# Generated by pormake.
# Topology umk, (4)-cn, num edge types: 1
# Building blocks:
#     Node 0, Type 0, BuildingBlock: AZAVOO_clean_sbu_0, # of connection points: 4
#     Node 1, Type 0, BuildingBlock: AZAVOO_clean_sbu_0, # of connection points: 4
#     Node 2, Type 0, BuildingBlock: AZAVOO_clean_sbu_0, # of connection points: 4
#     Node 3, Type 0, BuildingBlock: AZAVOO_clean_sbu_0, # of connection points: 4
#     Node 4, Type 0, BuildingBlock: AZAVOO_clean_sbu_0, # of connection points: 4
#     Node 5, Type 0, BuildingBlock: AZAVOO_clean_sbu_0, # of connection points: 4
#     Node 6, Type 0, BuildingBlock: AZAVOO_clean_sbu_0, # of connection points: 4
#     Node 7, Type 0, BuildingBlock: AZAVOO_clean_sbu_0, # of connection points: 4
#     Node 8, Type 0, BuildingBlock: AZAVOO_clean_sbu_0, # of connection points: 4
#     Node 9, Type 0, BuildingBlock: AZAVOO_clean_sbu_0, # of connection points: 4
#     Node 10, Type 0, BuildingBlock: AZAVOO_clean_sbu_0, # of connection points: 4
#     Node 11, Type 0, BuildingBlock: AZAVOO_clean_sbu_0, # of connection points: 4
#     Node 12, Type 0, BuildingBlock: AZAVOO_clean_sbu_0, # of connection points: 4
#     Node 13, Type 0, BuildingBlock: AZAVOO_clean_sbu_0, # of connection points: 4
#     Node 14, Type 0, BuildingBlock: AZAVOO_clean_sbu_0, # of connection points: 4
#     Node 15, Type 0, BuildingBlock: AZAVOO_clean_sbu_0, # of connection points: 4
#     Node 16, Type 0, BuildingBlock: AZAVOO_clean_sbu_0, # of connection points: 4
#     Node 17, Type 0, BuildingBlock: AZAVOO_clean_sbu_0, # of connection points: 4
#     Node 18, Type 0, BuildingBlock: AZAVOO_clean_sbu_0, # of connection points: 4
#     Node 19, Type 0, BuildingBlock: AZAVOO_clean_sbu_0, # of connection points: 4
#     Node 20, Type 0, BuildingBlock: AZAVOO_clean_sbu_0, # of connection points: 4
#     Node 21, Type 0, BuildingBlock: AZAVOO_clean_sbu_0, # of connection points: 4
#     Node 22, Type 0, BuildingBlock: AZAVOO_clean_sbu_0, # of connection points: 4
#     Node 23, Type 0, BuildingBlock: AZAVOO_clean_sbu_0, # of connection points: 4
#     Edge 24, Type (0, 0), BuildingBlock: ZUJKAS_clean_linker_0, # of connection points: 2
#     Edge 25, Type (0, 0), BuildingBlock: ZUJKAS_clean_linker_0, # of connection points: 2
#     Edge 26, Type (0, 0), BuildingBlock: ZUJKAS_clean_linker_0, # of connection points: 2
#     Edge 27, Type (0, 0), BuildingBlock: ZUJKAS_clean_linker_0, # of connection points: 2
#     Edge 28, Type (0, 0), BuildingBlock: ZUJKAS_clean_linker_0, # of connection points: 2
#     Edge 29, Type (0, 0), BuildingBlock: ZUJKAS_clean_linker_0, # of connection points: 2
#     Edge 30, Type (0, 0), BuildingBlock: ZUJKAS_clean_linker_0, # of connection points: 2
#     Edge 31, Type (0, 0), BuildingBlock: ZUJKAS_clean_linker_0, # of connection points: 2
#     Edge 32, Type (0, 0), BuildingBlock: ZUJKAS_clean_linker_0, # of connection points: 2
#     Edge 33, Type (0, 0), BuildingBlock: ZUJKAS_clean_linker_0, # of connection points: 2
#     Edge 34, Type (0, 0), BuildingBlock: ZUJKAS_clean_linker_0, # of connection points: 2
#     Edge 35, Type (0, 0), BuildingBlock: ZUJKAS_clean_linker_0, # of connection points: 2
#     Edge 36, Type (0, 0), BuildingBlock: ZUJKAS_clean_linker_0, # of connection points: 2
#     Edge 37, Type (0, 0), BuildingBlock: ZUJKAS_clean_linker_0, # of connection points: 2
#     Edge 38, Type (0, 0), BuildingBlock: ZUJKAS_clean_linker_0, # of connection points: 2
#     Edge 39, Type (0, 0), BuildingBlock: ZUJKAS_clean_linker_0, # of connection points: 2
#     Edge 40, Type (0, 0), BuildingBlock: ZUJKAS_clean_linker_0, # of connection points: 2
#     Edge 41, Type (0, 0), BuildingBlock: ZUJKAS_clean_linker_0, # of connection points: 2
#     Edge 42, Type (0, 0), BuildingBlock: ZUJKAS_clean_linker_0, # of connection points: 2
#     Edge 43, Type (0, 0), BuildingBlock: ZUJKAS_clean_linker_0, # of connection points: 2
#     Edge 44, Type (0, 0), BuildingBlock: ZUJKAS_clean_linker_0, # of connection points: 2
#     Edge 45, Type (0, 0), BuildingBlock: ZUJKAS_clean_linker_0, # of connection points: 2
#     Edge 46, Type (0, 0), BuildingBlock: ZUJKAS_clean_linker_0, # of connection points: 2
#     Edge 47, Type (0, 0), BuildingBlock: ZUJKAS_clean_linker_0, # of connection points: 2
#     Edge 48, Type (0, 0), BuildingBlock: ZUJKAS_clean_linker_0, # of connection points: 2
#     Edge 49, Type (0, 0), BuildingBlock: ZUJKAS_clean_linker_0, # of connection points: 2
#     Edge 50, Type (0, 0), BuildingBlock: ZUJKAS_clean_linker_0, # of connection points: 2
#     Edge 51, Type (0, 0), BuildingBlock: ZUJKAS_clean_linker_0, # of connection points: 2
#     Edge 52, Type (0, 0), BuildingBlock: ZUJKAS_clean_linker_0, # of connection points: 2
#     Edge 53, Type (0, 0), BuildingBlock: ZUJKAS_clean_linker_0, # of connection points: 2
#     Edge 54, Type (0, 0), BuildingBlock: ZUJKAS_clean_linker_0, # of connection points: 2
#     Edge 55, Type (0, 0), BuildingBlock: ZUJKAS_clean_linker_0, # of connection points: 2
#     Edge 56, Type (0, 0), BuildingBlock: ZUJKAS_clean_linker_0, # of connection points: 2
#     Edge 57, Type (0, 0), BuildingBlock: ZUJKAS_clean_linker_0, # of connection points: 2
#     Edge 58, Type (0, 0), BuildingBlock: ZUJKAS_clean_linker_0, # of connection points: 2
#     Edge 59, Type (0, 0), BuildingBlock: ZUJKAS_clean_linker_0, # of connection points: 2
#     Edge 60, Type (0, 0), BuildingBlock: ZUJKAS_clean_linker_0, # of connection points: 2
#     Edge 61, Type (0, 0), BuildingBlock: ZUJKAS_clean_linker_0, # of connection points: 2
#     Edge 62, Type (0, 0), BuildingBlock: ZUJKAS_clean_linker_0, # of connection points: 2
#     Edge 63, Type (0, 0), BuildingBlock: ZUJKAS_clean_linker_0, # of connection points: 2
#     Edge 64, Type (0, 0), BuildingBlock: ZUJKAS_clean_linker_0, # of connection points: 2
#     Edge 65, Type (0, 0), BuildingBlock: ZUJKAS_clean_linker_0, # of connection points: 2
#     Edge 66, Type (0, 0), BuildingBlock: ZUJKAS_clean_linker_0, # of connection points: 2
#     Edge 67, Type (0, 0), BuildingBlock: ZUJKAS_clean_linker_0, # of connection points: 2
#     Edge 68, Type (0, 0), BuildingBlock: ZUJKAS_clean_linker_0, # of connection points: 2
#     Edge 69, Type (0, 0), BuildingBlock: ZUJKAS_clean_linker_0, # of connection points: 2
#     Edge 70, Type (0, 0), BuildingBlock: ZUJKAS_clean_linker_0, # of connection points: 2
#     Edge 71, Type (0, 0), BuildingBlock: ZUJKAS_clean_linker_0, # of connection points: 2
# Relax obj value: 0.144
# Max RMSD: 0.161
# Mean RMSD: 0.161
data_MOF--net-umk--node1-AZAVOO_clean_sbu_0--edge1-ZUJKAS_clean_linker_0
_symmetry_space_group_name_H-M    P1
_symmetry_Int_Tables_number       1
_symmetry_cell_setting            triclinic
loop_
_symmetry_equiv_pos_as_xyz
'x, y, z'
_cell_length_a     84.647971
_cell_length_b     84.656666
_cell_length_c     55.823288
_cell_angle_alpha  90.005362
_cell_angle_beta   89.989133
_cell_angle_gamma 120.00849
loop_
_atom_site_label
_atom_site_type_symbol
_atom_site_fract_x
_atom_site_fract_y
_atom_site_fract_z
_atom_type_partial_charge
Mg0 Mg 0.33113 0.45237 0.06916 0.0
O1 O 0.35816 0.47518 0.05384 0.0
O2 O 0.38074 0.47349 0.07218 0.0
Mg3 Mg 0.36834 0.45023 0.09924 0.0
C4 C 0.37512 0.48087 0.05702 0.0
C5 C 0.30125 0.46203 0.06323 0.0
O6 O 0.29692 0.45285 0.08344 0.0
O7 O 0.3356 0.46873 0.10327 0.0
O8 O 0.35783 0.46617 0.12112 0.0
O9 O 0.33073 0.43303 0.04168 0.0
O10 O 0.34336 0.43711 0.07747 0.0
C11 C 0.3465 0.47198 0.12075 0.0
C12 C 0.3402 0.42948 0.05671 0.0
O13 O 0.31562 0.46492 0.05233 0.0
Mg14 Mg 0.86913 0.32464 0.58039 0.0
O15 O 0.87112 0.3508 0.56532 0.0
O16 O 0.89314 0.37452 0.58521 0.0
Mg17 Mg 0.90499 0.36365 0.61304 0.0
C18 C 0.88073 0.36793 0.56918 0.0
C19 C 0.84254 0.29821 0.54315 0.0
O20 O 0.85784 0.29856 0.53791 0.0
O21 O 0.85449 0.32647 0.61373 0.0
O22 O 0.87748 0.35005 0.6326 0.0
O23 O 0.89046 0.32761 0.55435 0.0
O24 O 0.89642 0.33925 0.59083 0.0
C25 C 0.86077 0.33744 0.63146 0.0
C26 C 0.90238 0.33765 0.57026 0.0
O27 O 0.84231 0.3077 0.56062 0.0
Mg28 Mg 0.54724 0.87127 0.07312 0.0
O29 O 0.5243 0.87657 0.06193 0.0
O30 O 0.531 0.90411 0.07531 0.0
Mg31 Mg 0.55782 0.91588 0.09609 0.0
C32 C 0.52056 0.88936 0.06404 0.0
C33 C 0.53768 0.83219 0.0653 0.0
O34 O 0.55467 0.84036 0.07281 0.0
O35 O 0.5362 0.8653 0.11113 0.0
O36 O 0.54352 0.8931 0.12416 0.0
O37 O 0.56245 0.88524 0.03977 0.0
O38 O 0.56548 0.899 0.07457 0.0
C39 C 0.53644 0.87593 0.12751 0.0
C40 C 0.56946 0.90018 0.05214 0.0
O41 O 0.52978 0.8415 0.06318 0.0
Mg42 Mg 0.66618 0.5399 0.58253 0.0
O43 O 0.6393 0.51641 0.56798 0.0
O44 O 0.61636 0.51823 0.58504 0.0
Mg45 Mg 0.6285 0.54272 0.61018 0.0
C46 C 0.62228 0.51049 0.57092 0.0
C47 C 0.69877 0.53554 0.56986 0.0
O48 O 0.70612 0.55065 0.58252 0.0
O49 O 0.66178 0.52486 0.61799 0.0
O50 O 0.63913 0.52784 0.63375 0.0
O51 O 0.66626 0.55787 0.55323 0.0
O52 O 0.65366 0.55524 0.58877 0.0
C53 C 0.65053 0.52214 0.63488 0.0
C54 C 0.65661 0.56182 0.56738 0.0
O55 O 0.6816 0.52685 0.56692 0.0
Mg56 Mg 0.12256 0.67405 0.07057 0.0
O57 O 0.11743 0.6459 0.05899 0.0
O58 O 0.09218 0.62476 0.07737 0.0
Mg59 Mg 0.08124 0.63941 0.10049 0.0
C60 C 0.10565 0.62926 0.06328 0.0
C61 C 0.16275 0.70262 0.06381 0.0
O62 O 0.15787 0.7094 0.08163 0.0
O63 O 0.13276 0.67067 0.10689 0.0
O64 O 0.10674 0.64995 0.12418 0.0
O65 O 0.10504 0.6737 0.04045 0.0
O66 O 0.09495 0.66334 0.07689 0.0
C67 C 0.12401 0.66064 0.1247 0.0
C68 C 0.09142 0.66546 0.05508 0.0
O69 O 0.15109 0.68731 0.05509 0.0
Mg70 Mg 0.44664 0.11461 0.57358 0.0
O71 O 0.47212 0.11458 0.55959 0.0
O72 O 0.47123 0.08946 0.57379 0.0
Mg73 Mg 0.44571 0.07376 0.59664 0.0
C74 C 0.47893 0.10415 0.56151 0.0
C75 C 0.44766 0.14788 0.55149 0.0
O76 O 0.43096 0.13467 0.54714 0.0
O77 O 0.45953 0.12311 0.61048 0.0
O78 O 0.45738 0.09725 0.62385 0.0
O79 O 0.4308 0.09848 0.54172 0.0
O80 O 0.43281 0.08632 0.57578 0.0
C81 C 0.46188 0.11395 0.62682 0.0
C82 C 0.42716 0.08405 0.55393 0.0
O83 O 0.45848 0.14415 0.56257 0.0
Mg84 Mg 0.54393 0.67565 0.92164 0.0
O85 O 0.52157 0.6465 0.93078 0.0
O86 O 0.52838 0.62668 0.91402 0.0
Mg87 Mg 0.55411 0.64333 0.8917 0.0
C88 C 0.51808 0.63019 0.92697 0.0
C89 C 0.51714 0.68099 0.95552 0.0
O90 O 0.51634 0.66694 0.96667 0.0
O91 O 0.53153 0.67266 0.88464 0.0
O92 O 0.53805 0.6526 0.86789 0.0
O93 O 0.56012 0.67506 0.9528 0.0
O94 O 0.56228 0.66657 0.91601 0.0
C95 C 0.53085 0.66274 0.86701 0.0
C96 C 0.56674 0.66791 0.93828 0.0
O97 O 0.52679 0.68708 0.93669 0.0
Mg98 Mg 0.86934 0.53666 0.4088 0.0
O99 O 0.87146 0.51224 0.42257 0.0
O100 O 0.89552 0.51303 0.40481 0.0
Mg101 Mg 0.90878 0.53784 0.38022 0.0
C102 C 0.88193 0.50564 0.41909 0.0
C103 C 0.83374 0.53458 0.42315 0.0
O104 O 0.84267 0.55034 0.41204 0.0
O105 O 0.85813 0.52235 0.37306 0.0
O106 O 0.88318 0.52449 0.35655 0.0
O107 O 0.88773 0.55382 0.43827 0.0
O108 O 0.89725 0.55104 0.40249 0.0
C109 C 0.86623 0.51954 0.3557 0.0
C110 C 0.90116 0.55738 0.42398 0.0
O111 O 0.84097 0.5246 0.42451 0.0
Mg112 Mg 0.33414 0.88242 0.92457 0.0
O113 O 0.36065 0.88454 0.93847 0.0
O114 O 0.38389 0.91007 0.92343 0.0
Mg115 Mg 0.37236 0.92401 0.90008 0.0
C116 C 0.37773 0.89569 0.93623 0.0
C117 C 0.30087 0.84598 0.93628 0.0
O118 O 0.29396 0.85582 0.92816 0.0
O119 O 0.33878 0.87378 0.88786 0.0
O120 O 0.36152 0.89998 0.87362 0.0
O121 O 0.33365 0.8985 0.95588 0.0
O122 O 0.3471 0.91063 0.9214 0.0
C123 C 0.34993 0.88302 0.87122 0.0
C124 C 0.34369 0.91294 0.94322 0.0
O125 O 0.31808 0.85304 0.93688 0.0
Mg126 Mg 0.45257 0.32563 0.41669 0.0
O127 O 0.47691 0.3523 0.43043 0.0
O128 O 0.47732 0.37539 0.41045 0.0
Mg129 Mg 0.45352 0.36362 0.38423 0.0
C130 C 0.48394 0.36932 0.42609 0.0
C131 C 0.46875 0.31162 0.45645 0.0
O132 O 0.46855 0.32474 0.46875 0.0
O133 O 0.46798 0.32749 0.38239 0.0
O134 O 0.46723 0.35034 0.36341 0.0
O135 O 0.43472 0.3281 0.44408 0.0
O136 O 0.4391 0.33955 0.4075 0.0
C137 C 0.47177 0.33805 0.36435 0.0
C138 C 0.43208 0.33787 0.42848 0.0
O139 O 0.46348 0.30907 0.43477 0.0
Mg140 Mg 0.11629 0.45159 0.92249 0.0
O141 O 0.11375 0.47579 0.93644 0.0
O142 O 0.09106 0.47589 0.916 0.0
Mg143 Mg 0.07905 0.45199 0.88998 0.0
C144 C 0.10367 0.48268 0.93176 0.0
C145 C 0.1471 0.45049 0.94814 0.0
O146 O 0.13457 0.43325 0.94556 0.0
O147 O 0.12968 0.46717 0.88832 0.0
O148 O 0.10606 0.46614 0.86905 0.0
O149 O 0.09635 0.43354 0.94994 0.0
O150 O 0.08877 0.43781 0.91362 0.0
C151 C 0.12295 0.4709 0.87023 0.0
C152 C 0.08371 0.4307 0.93463 0.0
O153 O 0.14384 0.46264 0.94031 0.0
Mg154 Mg 0.66374 0.11656 0.4135 0.0
O155 O 0.63786 0.11581 0.42742 0.0
O156 O 0.61389 0.09044 0.41328 0.0
Mg157 Mg 0.6243 0.07549 0.38999 0.0
C158 C 0.62066 0.1051 0.42561 0.0
C159 C 0.69718 0.15461 0.41834 0.0
O160 O 0.70309 0.14644 0.40387 0.0
O161 O 0.65933 0.12524 0.37669 0.0
O162 O 0.63563 0.09935 0.36331 0.0
O163 O 0.6636 0.10042 0.44513 0.0
O164 O 0.64977 0.08828 0.41085 0.0
C165 C 0.6477 0.11611 0.36045 0.0
C166 C 0.65305 0.086 0.43274 0.0
O167 O 0.68073 0.14594 0.42541 0.0
Mg168 Mg 0.65473 0.53676 0.92505 0.0
O169 O 0.62799 0.51278 0.93909 0.0
O170 O 0.60504 0.51368 0.92053 0.0
Mg171 Mg 0.61701 0.53848 0.89587 0.0
C172 C 0.61098 0.50632 0.93526 0.0
C173 C 0.68707 0.53112 0.93311 0.0
O174 O 0.69332 0.54457 0.91756 0.0
O175 O 0.65135 0.52221 0.88956 0.0
O176 O 0.62912 0.52498 0.87212 0.0
O177 O 0.65419 0.55443 0.95422 0.0
O178 O 0.64158 0.55149 0.91861 0.0
C179 C 0.64087 0.51971 0.8718 0.0
C180 C 0.6444 0.55814 0.93998 0.0
O181 O 0.67068 0.52415 0.94021 0.0
Mg182 Mg 0.12248 0.66917 0.41376 0.0
O183 O 0.12122 0.64314 0.42799 0.0
O184 O 0.0973 0.61915 0.4112 0.0
Mg185 Mg 0.08391 0.62983 0.38542 0.0
C186 C 0.111 0.62594 0.42532 0.0
C187 C 0.1546 0.68578 0.4509 0.0
O188 O 0.14138 0.67528 0.46566 0.0
O189 O 0.13407 0.66615 0.37838 0.0
O190 O 0.1097 0.64235 0.36203 0.0
O191 O 0.10334 0.66729 0.44284 0.0
O192 O 0.09469 0.65487 0.40698 0.0
C193 C 0.12646 0.65485 0.36125 0.0
C194 C 0.09027 0.65709 0.42825 0.0
O195 O 0.15102 0.68607 0.42886 0.0
Mg196 Mg 0.44563 0.12434 0.92405 0.0
O197 O 0.46738 0.11731 0.93521 0.0
O198 O 0.45919 0.08926 0.9224 0.0
Mg199 Mg 0.43266 0.079 0.90135 0.0
C200 C 0.47021 0.1039 0.93346 0.0
C201 C 0.47206 0.15864 0.95438 0.0
O202 O 0.46868 0.14607 0.97056 0.0
O203 O 0.45665 0.12969 0.88608 0.0
O204 O 0.44827 0.10153 0.87339 0.0
O205 O 0.43011 0.11087 0.95745 0.0
O206 O 0.42619 0.09696 0.92255 0.0
C207 C 0.45607 0.11875 0.86994 0.0
C208 C 0.42238 0.09596 0.94501 0.0
O209 O 0.46475 0.15387 0.93382 0.0
Mg210 Mg 0.32924 0.45718 0.40769 0.0
O211 O 0.35615 0.48043 0.42252 0.0
O212 O 0.37903 0.47896 0.40466 0.0
Mg213 Mg 0.36683 0.45484 0.37889 0.0
C214 C 0.37316 0.48642 0.41933 0.0
C215 C 0.29745 0.4638 0.41753 0.0
O216 O 0.29073 0.45123 0.40076 0.0
O217 O 0.33342 0.4727 0.37267 0.0
O218 O 0.35581 0.46972 0.35606 0.0
O219 O 0.32937 0.43879 0.43626 0.0
O220 O 0.34175 0.44199 0.40045 0.0
C221 C 0.34443 0.47546 0.35544 0.0
C222 C 0.33897 0.43511 0.42165 0.0
O223 O 0.31384 0.46995 0.42418 0.0
Mg224 Mg 0.86193 0.32128 0.91922 0.0
O225 O 0.86789 0.34997 0.92975 0.0
O226 O 0.89344 0.37029 0.91114 0.0
Mg227 Mg 0.9029 0.35465 0.88741 0.0
C228 C 0.88018 0.36642 0.92537 0.0
C229 C 0.83034 0.31269 0.95611 0.0
O230 O 0.84373 0.3256 0.9686 0.0
O231 O 0.85108 0.32394 0.88305 0.0
O232 O 0.87684 0.34421 0.86479 0.0
O233 O 0.88008 0.32224 0.94894 0.0
O234 O 0.88929 0.33128 0.91181 0.0
C235 C 0.85954 0.33366 0.86488 0.0
C236 C 0.8933 0.32981 0.93362 0.0
O237 O 0.83366 0.30859 0.93554 0.0
Mg238 Mg 0.54102 0.87143 0.42484 0.0
O239 O 0.51841 0.87716 0.43665 0.0
O240 O 0.52454 0.90413 0.42175 0.0
Mg241 Mg 0.55042 0.91501 0.39914 0.0
C242 C 0.51458 0.88987 0.43417 0.0
C243 C 0.51699 0.83815 0.4582 0.0
O244 O 0.5178 0.8512 0.47183 0.0
O245 O 0.52856 0.86369 0.38753 0.0
O246 O 0.53528 0.89099 0.3731 0.0
O247 O 0.55763 0.88706 0.4566 0.0
O248 O 0.55905 0.89906 0.4209 0.0
C249 C 0.5282 0.87374 0.37073 0.0
C250 C 0.56407 0.90134 0.44297 0.0
O251 O 0.52454 0.84218 0.43772 0.0
Mg252 Mg 0.44446 0.31345 0.07791 0.0
O253 O 0.46657 0.34223 0.06697 0.0
O254 O 0.46151 0.36266 0.08555 0.0
Mg255 Mg 0.43634 0.34669 0.10914 0.0
C256 C 0.47076 0.35869 0.07123 0.0
C257 C 0.46858 0.30656 0.0415 0.0
O258 O 0.46676 0.31869 0.029 0.0
O259 O 0.45828 0.31685 0.11396 0.0
O260 O 0.45252 0.33702 0.13194 0.0
O261 O 0.42707 0.31368 0.04808 0.0
O262 O 0.42673 0.32306 0.08498 0.0
C263 C 0.45956 0.32672 0.13194 0.0
C264 C 0.42132 0.32136 0.06308 0.0
O265 O 0.46106 0.30178 0.06194 0.0
Mg266 Mg 0.12653 0.45972 0.58607 0.0
O267 O 0.12456 0.48389 0.57094 0.0
O268 O 0.10107 0.48416 0.58878 0.0
Mg269 Mg 0.08863 0.46089 0.61582 0.0
C270 C 0.11427 0.49077 0.57386 0.0
C271 C 0.15824 0.45819 0.56374 0.0
O272 O 0.14683 0.44124 0.56998 0.0
O273 O 0.13939 0.47557 0.6204 0.0
O274 O 0.11517 0.47482 0.63756 0.0
O275 O 0.10665 0.4414 0.55851 0.0
O276 O 0.09895 0.44621 0.59446 0.0
C277 C 0.13204 0.47942 0.63771 0.0
C278 C 0.09397 0.43883 0.57363 0.0
O279 O 0.1541 0.47034 0.56845 0.0
Mg280 Mg 0.66109 0.11411 0.0641 0.0
O281 O 0.63364 0.11058 0.05172 0.0
O282 O 0.61157 0.08457 0.06743 0.0
Mg283 Mg 0.62475 0.07175 0.08985 0.0
C284 C 0.61678 0.09883 0.05464 0.0
C285 C 0.692 0.14974 0.04485 0.0
O286 O 0.69859 0.1386 0.04407 0.0
O287 O 0.65686 0.12241 0.10126 0.0
O288 O 0.63523 0.09581 0.11615 0.0
O289 O 0.66137 0.098 0.03245 0.0
O290 O 0.64943 0.08614 0.06767 0.0
C291 C 0.6463 0.11292 0.11828 0.0
C292 C 0.65232 0.08366 0.04571 0.0
O293 O 0.67577 0.14365 0.05214 0.0
Mg294 Mg 0.54261 0.6684 0.57723 0.0
O295 O 0.51892 0.64149 0.56327 0.0
O296 O 0.52019 0.61858 0.58131 0.0
Mg297 Mg 0.54476 0.63087 0.60642 0.0
C298 C 0.51271 0.62448 0.56672 0.0
C299 C 0.53972 0.69863 0.55106 0.0
O300 O 0.55717 0.70406 0.54895 0.0
O301 O 0.5279 0.66487 0.61268 0.0
O302 O 0.53071 0.64255 0.62977 0.0
O303 O 0.56039 0.6676 0.54815 0.0
O304 O 0.5576 0.65567 0.58419 0.0
C305 C 0.5253 0.65419 0.63024 0.0
C306 C 0.56416 0.6581 0.56284 0.0
O307 O 0.52942 0.68373 0.56177 0.0
Mg308 Mg 0.87154 0.54492 0.06512 0.0
O309 O 0.87632 0.52209 0.05154 0.0
O310 O 0.90177 0.52561 0.06856 0.0
Mg311 Mg 0.91273 0.55017 0.09368 0.0
C312 C 0.88815 0.51711 0.05453 0.0
C313 C 0.83316 0.53728 0.05556 0.0
O314 O 0.84005 0.55151 0.06987 0.0
O315 O 0.86129 0.53023 0.10076 0.0
O316 O 0.88722 0.53463 0.11733 0.0
O317 O 0.88933 0.56319 0.03579 0.0
O318 O 0.8991 0.56141 0.07186 0.0
C319 C 0.86998 0.52826 0.1181 0.0
C320 C 0.9028 0.56802 0.05052 0.0
O321 O 0.84296 0.53043 0.04978 0.0
Mg322 Mg 0.32322 0.87187 0.57425 0.0
O323 O 0.35132 0.87748 0.56123 0.0
O324 O 0.37225 0.9051 0.57427 0.0
Mg325 Mg 0.35773 0.91657 0.5967 0.0
C326 C 0.36783 0.89046 0.56266 0.0
C327 C 0.31256 0.83789 0.54217 0.0
O328 O 0.32373 0.85082 0.52751 0.0
O329 O 0.32936 0.86568 0.61177 0.0
O330 O 0.35001 0.89363 0.62418 0.0
O331 O 0.321 0.88607 0.54173 0.0
O332 O 0.33265 0.8996 0.57636 0.0
C333 C 0.34018 0.87646 0.62774 0.0
C334 C 0.32922 0.90091 0.55423 0.0
O335 O 0.31024 0.84218 0.56316 0.0
H336 H 0.3184 0.47759 0.13365 0.0
H337 H 0.31435 0.48885 0.17232 0.0
H338 H 0.3673 0.4988 0.19485 0.0
H339 H 0.37148 0.48774 0.15652 0.0
H340 H 0.31328 0.47098 0.2134 0.0
H341 H 0.36687 0.54289 0.22251 0.0
H342 H 0.35964 0.53177 0.1937 0.0
H343 H 0.37642 0.52967 0.21114 0.0
C344 C 0.32939 0.48267 0.14661 0.0
C345 C 0.34519 0.48159 0.14214 0.0
C346 C 0.32705 0.48913 0.16866 0.0
C347 C 0.34061 0.49491 0.18634 0.0
C348 C 0.35683 0.49485 0.18129 0.0
H349 H 0.36913 0.48867 0.31913 0.0
H350 H 0.36509 0.49795 0.27951 0.0
C351 C 0.35911 0.48828 0.15943 0.0
C352 C 0.33687 0.49785 0.21137 0.0
H353 H 0.35853 0.52467 0.25964 0.0
C354 C 0.32272 0.48298 0.22349 0.0
C355 C 0.34909 0.51358 0.22441 0.0
C356 C 0.36373 0.53044 0.21216 0.0
C357 C 0.3219 0.48249 0.2486 0.0
C358 C 0.33541 0.49745 0.26178 0.0
C359 C 0.34828 0.51315 0.24952 0.0
C360 C 0.33885 0.49537 0.28727 0.0
C361 C 0.30775 0.46522 0.26074 0.0
C362 C 0.32575 0.49156 0.30516 0.0
C363 C 0.32796 0.48604 0.32799 0.0
C364 C 0.3433 0.48431 0.33314 0.0
C365 C 0.357 0.48956 0.31569 0.0
C366 C 0.35478 0.49502 0.29303 0.0
H367 H 0.29937 0.45425 0.24772 0.0
H368 H 0.31442 0.46006 0.27311 0.0
H369 H 0.29846 0.46813 0.27146 0.0
H370 H 0.31349 0.49205 0.30117 0.0
H371 H 0.31724 0.48225 0.34113 0.0
H372 H 0.8287 0.30684 0.64435 0.0
H373 H 0.81315 0.3012 0.68313 0.0
H374 H 0.85133 0.35637 0.70477 0.0
H375 H 0.86655 0.36214 0.66632 0.0
H376 H 0.83032 0.30184 0.72296 0.0
H377 H 0.80615 0.3505 0.73554 0.0
H378 H 0.81101 0.345 0.70615 0.0
H379 H 0.82892 0.36267 0.72401 0.0
C380 C 0.83336 0.31793 0.6571 0.0
C381 C 0.84901 0.33487 0.65241 0.0
C382 C 0.82445 0.31468 0.67924 0.0
C383 C 0.8309 0.32841 0.69681 0.0
C384 C 0.84573 0.34568 0.69138 0.0
H385 H 0.87095 0.35709 0.82711 0.0
H386 H 0.85648 0.35242 0.78806 0.0
C387 C 0.85463 0.34889 0.66942 0.0
C388 C 0.82489 0.32413 0.7221 0.0
H389 H 0.81992 0.34477 0.7717 0.0
C390 C 0.82726 0.31071 0.73359 0.0
C391 C 0.8207 0.33554 0.73598 0.0
C392 C 0.81636 0.34908 0.72464 0.0
C393 C 0.82796 0.31001 0.75864 0.0
C394 C 0.82607 0.32298 0.77243 0.0
C395 C 0.82158 0.33498 0.76105 0.0
C396 C 0.83262 0.32679 0.79746 0.0
C397 C 0.83263 0.29669 0.77007 0.0
C398 C 0.82368 0.31416 0.81593 0.0
C399 C 0.83197 0.31679 0.83843 0.0
C400 C 0.84936 0.33201 0.8426 0.0
C401 C 0.85768 0.34511 0.82442 0.0
C402 C 0.84936 0.34254 0.80212 0.0
H403 H 0.83451 0.28809 0.75663 0.0
H404 H 0.84536 0.30417 0.78072 0.0
H405 H 0.82153 0.28759 0.78246 0.0
H406 H 0.81069 0.30197 0.81266 0.0
H407 H 0.82518 0.30649 0.85212 0.0
H408 H 0.51882 0.88898 0.33455 0.0
H409 H 0.51102 0.87818 0.29358 0.0
H410 H 0.51256 0.82945 0.3118 0.0
H411 H 0.52066 0.84034 0.35317 0.0
H412 H 0.5347 0.84786 0.27441 0.0
H413 H 0.46706 0.84003 0.25761 0.0
H414 H 0.48157 0.86147 0.27192 0.0
H415 H 0.47546 0.84053 0.28753 0.0
C416 C 0.51714 0.87578 0.33006 0.0
C417 C 0.52053 0.86561 0.34708 0.0
C418 C 0.51245 0.8695 0.30663 0.0
C419 C 0.51092 0.85287 0.29969 0.0
C420 C 0.51347 0.84224 0.31687 0.0
H421 H 0.52494 0.8414 0.14465 0.0
H422 H 0.51486 0.83018 0.18551 0.0
C423 C 0.5181 0.84848 0.34048 0.0
C424 C 0.50951 0.84834 0.27387 0.0
H425 H 0.48789 0.84981 0.22308 0.0
C426 C 0.52414 0.84762 0.26316 0.0
C427 C 0.49567 0.84794 0.25925 0.0
C428 C 0.47897 0.84733 0.26976 0.0
C429 C 0.5263 0.84847 0.23819 0.0
C430 C 0.51335 0.84986 0.22369 0.0
C431 C 0.49787 0.8489 0.2343 0.0
C432 C 0.51726 0.8554 0.1983 0.0
C433 C 0.54319 0.84947 0.22761 0.0
C434 C 0.52143 0.87308 0.19192 0.0
C435 C 0.52721 0.87954 0.16877 0.0
C436 C 0.52886 0.8684 0.15144 0.0
C437 C 0.52391 0.85037 0.1576 0.0
C438 C 0.51818 0.84393 0.18091 0.0
H439 H 0.55269 0.8498 0.2416 0.0
H440 H 0.53922 0.83739 0.21605 0.0
H441 H 0.55055 0.86183 0.21626 0.0
H442 H 0.52082 0.88214 0.20514 0.0
H443 H 0.53073 0.89343 0.16463 0.0
H444 H 0.66851 0.51299 0.85993 0.0
H445 H 0.67429 0.50406 0.82053 0.0
H446 H 0.62453 0.49979 0.79372 0.0
H447 H 0.61852 0.50842 0.83279 0.0
H448 H 0.63198 0.47198 0.77643 0.0
H449 H 0.69095 0.54272 0.76662 0.0
H450 H 0.69058 0.5292 0.79169 0.0
H451 H 0.67436 0.53693 0.79017 0.0
C452 C 0.65863 0.50981 0.84576 0.0
C453 C 0.6432 0.51172 0.84939 0.0
C454 C 0.66199 0.50475 0.82327 0.0
C455 C 0.64996 0.50153 0.80418 0.0
C456 C 0.63399 0.50225 0.80823 0.0
H457 H 0.62375 0.50585 0.6682 0.0
H458 H 0.62624 0.49579 0.70803 0.0
C459 C 0.63064 0.50731 0.83057 0.0
C460 C 0.6546 0.49942 0.77928 0.0
H461 H 0.67919 0.52554 0.73188 0.0
C462 C 0.64264 0.48349 0.76674 0.0
C463 C 0.66867 0.51436 0.76673 0.0
C464 C 0.68189 0.53184 0.77934 0.0
C465 C 0.64338 0.48271 0.74169 0.0
C466 C 0.65615 0.49837 0.72896 0.0
C467 C 0.66933 0.51357 0.74168 0.0
C468 C 0.65378 0.50084 0.70319 0.0
C469 C 0.6298 0.46547 0.72902 0.0
C470 C 0.66842 0.50699 0.68704 0.0
C471 C 0.66706 0.51292 0.6641 0.0
C472 C 0.65115 0.51308 0.65721 0.0
C473 C 0.63624 0.50602 0.673 0.0
C474 C 0.63755 0.50001 0.69573 0.0
H475 H 0.62656 0.45328 0.74002 0.0
H476 H 0.6169 0.46566 0.72631 0.0
H477 H 0.63497 0.46413 0.71129 0.0
H478 H 0.68114 0.50796 0.69256 0.0
H479 H 0.67879 0.51832 0.65232 0.0
H480 H 0.11719 0.63025 0.32502 0.0
H481 H 0.1307 0.63553 0.2854 0.0
H482 H 0.17248 0.68947 0.30665 0.0
H483 H 0.15876 0.68436 0.34662 0.0
H484 H 0.15418 0.69016 0.26797 0.0
H485 H 0.17416 0.63847 0.25215 0.0
H486 H 0.15174 0.62768 0.26489 0.0
H487 H 0.17082 0.64461 0.28198 0.0
C488 C 0.1295 0.64311 0.32153 0.0
C489 C 0.13675 0.65697 0.3389 0.0
C490 C 0.13738 0.64602 0.29889 0.0
C491 C 0.15278 0.6628 0.29311 0.0
C492 C 0.16071 0.67634 0.31082 0.0
H493 H 0.15843 0.68718 0.13834 0.0
H494 H 0.17259 0.69066 0.17787 0.0
C495 C 0.15284 0.6734 0.33363 0.0
C496 C 0.1582 0.66697 0.26763 0.0
H497 H 0.16138 0.64619 0.21701 0.0
C498 C 0.1565 0.68102 0.25682 0.0
C499 C 0.16139 0.65516 0.25313 0.0
C500 C 0.16483 0.64078 0.26375 0.0
C501 C 0.15563 0.68214 0.23184 0.0
C502 C 0.15668 0.66896 0.21743 0.0
C503 C 0.16039 0.65617 0.22814 0.0
C504 C 0.15013 0.66589 0.19239 0.0
C505 C 0.15173 0.69622 0.22117 0.0
C506 C 0.13318 0.65053 0.18735 0.0
C507 C 0.12508 0.64853 0.16502 0.0
C508 C 0.13381 0.66185 0.14718 0.0
C509 C 0.15133 0.67673 0.15177 0.0
C510 C 0.15942 0.67877 0.1743 0.0
H511 H 0.15023 0.70477 0.23507 0.0
H512 H 0.16305 0.70532 0.20905 0.0
H513 H 0.13901 0.68943 0.21038 0.0
H514 H 0.1258 0.64045 0.20111 0.0
H515 H 0.11169 0.63679 0.16201 0.0
H516 H 0.46476 0.10168 0.83538 0.0
H517 H 0.47488 0.11204 0.79463 0.0
H518 H 0.47548 0.16234 0.80939 0.0
H519 H 0.46531 0.15206 0.85052 0.0
H520 H 0.45428 0.14278 0.7697 0.0
H521 H 0.52294 0.15059 0.76382 0.0
H522 H 0.50701 0.12966 0.77829 0.0
H523 H 0.51266 0.15111 0.79199 0.0
C524 C 0.46731 0.11508 0.83015 0.0
C525 C 0.4641 0.12599 0.84614 0.0
C526 C 0.47331 0.12107 0.80691 0.0
C527 C 0.47621 0.13807 0.79914 0.0
C528 C 0.47354 0.14927 0.8152 0.0
H529 H 0.47036 0.14816 0.64237 0.0
H530 H 0.47834 0.16016 0.68325 0.0
C531 C 0.4677 0.14335 0.83863 0.0
C532 C 0.47953 0.14268 0.77341 0.0
H533 H 0.50529 0.14216 0.72683 0.0
C534 C 0.46572 0.14326 0.76026 0.0
C535 C 0.49451 0.14338 0.76128 0.0
C536 C 0.51021 0.14384 0.77463 0.0
C537 C 0.4655 0.14255 0.73515 0.0
C538 C 0.4797 0.14163 0.72302 0.0
C539 C 0.49437 0.14277 0.73617 0.0
C540 C 0.47787 0.13617 0.69755 0.0
C541 C 0.44925 0.14113 0.72198 0.0
C542 C 0.47584 0.11913 0.69187 0.0
C543 C 0.47143 0.1123 0.66865 0.0
C544 C 0.46891 0.12238 0.65055 0.0
C545 C 0.47201 0.13996 0.65594 0.0
C546 C 0.47651 0.14683 0.67929 0.0
H547 H 0.43832 0.13965 0.73438 0.0
H548 H 0.45364 0.15362 0.71112 0.0
H549 H 0.44342 0.12926 0.70962 0.0
H550 H 0.47687 0.1107 0.7057 0.0
H551 H 0.46935 0.09881 0.66515 0.0
H552 H 0.51776 0.68124 0.64255 0.0
H553 H 0.50877 0.68654 0.68219 0.0
H554 H 0.50579 0.63714 0.7082 0.0
H555 H 0.51431 0.63155 0.6689 0.0
H556 H 0.47832 0.64324 0.72701 0.0
H557 H 0.5478 0.70458 0.73476 0.0
H558 H 0.53327 0.7037 0.71069 0.0
H559 H 0.54216 0.68839 0.71074 0.0
C560 C 0.51482 0.67132 0.6566 0.0
C561 C 0.5171 0.65615 0.65268 0.0
C562 C 0.50975 0.67442 0.67924 0.0
C563 C 0.50694 0.6624 0.6982 0.0
C564 C 0.50794 0.64662 0.69382 0.0
H565 H 0.51774 0.63715 0.83183 0.0
H566 H 0.50674 0.6394 0.79246 0.0
C567 C 0.51295 0.64351 0.67133 0.0
C568 C 0.50507 0.66687 0.72329 0.0
H569 H 0.53173 0.69202 0.77004 0.0
C570 C 0.48976 0.65425 0.73638 0.0
C571 C 0.51993 0.68136 0.73546 0.0
C572 C 0.53679 0.69529 0.72234 0.0
C573 C 0.48967 0.65469 0.76149 0.0
C574 C 0.50535 0.66796 0.77368 0.0
C575 C 0.51977 0.68179 0.76058 0.0
C576 C 0.5088 0.66557 0.79903 0.0
C577 C 0.47327 0.64025 0.77477 0.0
C578 C 0.51365 0.67957 0.81587 0.0
C579 C 0.52002 0.67833 0.83855 0.0
C580 C 0.522 0.66325 0.84444 0.0
C581 C 0.5165 0.649 0.8278 0.0
C582 C 0.50997 0.65015 0.80536 0.0
H583 H 0.46057 0.63589 0.76434 0.0
H584 H 0.47482 0.6281 0.77737 0.0
H585 H 0.47184 0.6452 0.79262 0.0
H586 H 0.51309 0.6917 0.81117 0.0
H587 H 0.52419 0.68954 0.85101 0.0
H588 H 0.83405 0.51662 0.34024 0.0
H589 H 0.82097 0.50822 0.29987 0.0
H590 H 0.86336 0.49664 0.27978 0.0
H591 H 0.87624 0.50469 0.31975 0.0
H592 H 0.83982 0.52748 0.26142 0.0
H593 H 0.82041 0.45591 0.24587 0.0
H594 H 0.82331 0.46534 0.27567 0.0
H595 H 0.84267 0.4677 0.25907 0.0
C596 C 0.84023 0.51175 0.32739 0.0
C597 C 0.8563 0.51151 0.3331 0.0
C598 C 0.83273 0.50695 0.30437 0.0
C599 C 0.84102 0.50155 0.28688 0.0
C600 C 0.85641 0.50028 0.29307 0.0
H601 H 0.88232 0.51629 0.15497 0.0
H602 H 0.86843 0.50587 0.19421 0.0
C603 C 0.86393 0.50515 0.31592 0.0
C604 C 0.83592 0.50032 0.26127 0.0
H605 H 0.83321 0.47638 0.2108 0.0
C606 C 0.83765 0.51605 0.25034 0.0
C607 C 0.83295 0.48535 0.24684 0.0
C608 C 0.82953 0.46757 0.25758 0.0
C609 C 0.83869 0.51802 0.22534 0.0
C610 C 0.83775 0.50379 0.21103 0.0
C611 C 0.8341 0.48734 0.22185 0.0
C612 C 0.84414 0.50716 0.1859 0.0
C613 C 0.84258 0.53598 0.21459 0.0
C614 C 0.83478 0.51079 0.16796 0.0
C615 C 0.84275 0.51683 0.14536 0.0
C616 C 0.86021 0.5194 0.14051 0.0
C617 C 0.86897 0.51469 0.15816 0.0
C618 C 0.861 0.5086 0.18058 0.0
H619 H 0.84428 0.54613 0.22845 0.0
H620 H 0.85517 0.5418 0.20355 0.0
H621 H 0.83114 0.53374 0.2027 0.0
H622 H 0.82167 0.50958 0.17171 0.0
H623 H 0.8356 0.52026 0.13211 0.0
H624 H 0.31655 0.84277 0.64695 0.0
H625 H 0.31591 0.83289 0.68846 0.0
H626 H 0.36439 0.88409 0.70404 0.0
H627 H 0.36529 0.89397 0.66289 0.0
H628 H 0.36335 0.8525 0.72545 0.0
H629 H 0.30043 0.85656 0.7419 0.0
H630 H 0.30017 0.8421 0.7181 0.0
H631 H 0.31423 0.86639 0.71551 0.0
C632 C 0.32724 0.85179 0.65913 0.0
C633 C 0.34082 0.86928 0.65169 0.0
C634 C 0.3268 0.84614 0.68283 0.0
C635 C 0.33997 0.85787 0.69933 0.0
C636 C 0.35409 0.87485 0.69157 0.0
H637 H 0.37419 0.89672 0.83427 0.0
H638 H 0.37042 0.88464 0.79387 0.0
C639 C 0.35451 0.88051 0.66804 0.0
C640 C 0.33847 0.85359 0.72521 0.0
H641 H 0.31623 0.85518 0.77529 0.0
C642 C 0.3528 0.85261 0.73638 0.0
C643 C 0.32461 0.85359 0.73938 0.0
C644 C 0.30898 0.85478 0.72827 0.0
C645 C 0.35432 0.85291 0.76142 0.0
C646 C 0.34137 0.8546 0.77553 0.0
C647 C 0.3262 0.85397 0.76442 0.0
C648 C 0.34476 0.86005 0.80107 0.0
C649 C 0.37021 0.8522 0.77248 0.0
C650 C 0.33155 0.85029 0.81864 0.0
C651 C 0.33361 0.85727 0.84188 0.0
C652 C 0.34878 0.87428 0.84779 0.0
C653 C 0.3623 0.88363 0.83035 0.0
C654 C 0.36027 0.87662 0.80725 0.0
H655 H 0.37443 0.84417 0.76115 0.0
H656 H 0.38202 0.86626 0.77385 0.0
H657 H 0.36685 0.84612 0.7907 0.0
H658 H 0.31938 0.83758 0.81415 0.0
H659 H 0.32293 0.84974 0.85488 0.0
H660 H 0.47447 0.30797 0.35251 0.0
H661 H 0.48325 0.30149 0.31346 0.0
H662 H 0.4964 0.35498 0.28869 0.0
H663 H 0.48805 0.36161 0.32738 0.0
H664 H 0.46441 0.29952 0.27469 0.0
H665 H 0.53576 0.35024 0.25591 0.0
H666 H 0.52679 0.34544 0.28608 0.0
H667 H 0.52474 0.36191 0.26774 0.0
C668 C 0.47981 0.31855 0.33896 0.0
C669 C 0.48033 0.33522 0.34291 0.0
C670 C 0.48485 0.31483 0.31668 0.0
C671 C 0.49072 0.32781 0.2982 0.0
C672 C 0.49241 0.34489 0.30278 0.0
H673 H 0.47144 0.35065 0.16917 0.0
H674 H 0.48324 0.34755 0.20755 0.0
C675 C 0.48735 0.34858 0.32489 0.0
C676 C 0.49161 0.32271 0.27304 0.0
H677 H 0.51439 0.34232 0.22127 0.0
C678 C 0.47564 0.30837 0.26303 0.0
C679 C 0.50632 0.33409 0.25783 0.0
C680 C 0.52442 0.34864 0.26758 0.0
C681 C 0.47308 0.3067 0.23815 0.0
C682 C 0.48692 0.31963 0.22305 0.0
C683 C 0.50371 0.33257 0.23295 0.0
C684 C 0.48265 0.32244 0.19831 0.0
C685 C 0.45487 0.29238 0.22831 0.0
C686 C 0.47886 0.30956 0.18017 0.0
C687 C 0.47204 0.31128 0.15806 0.0
C688 C 0.46881 0.32584 0.15396 0.0
C689 C 0.47353 0.33916 0.17182 0.0
C690 C 0.48043 0.33749 0.19372 0.0
H691 H 0.44533 0.28376 0.24263 0.0
H692 H 0.44843 0.29899 0.21819 0.0
H693 H 0.45688 0.2834 0.21571 0.0
H694 H 0.48058 0.29789 0.18341 0.0
H695 H 0.46861 0.30084 0.1446 0.0
H696 H 0.16515 0.48346 0.65128 0.0
H697 H 0.179 0.4919 0.69124 0.0
H698 H 0.13635 0.50235 0.71389 0.0
H699 H 0.1228 0.49447 0.67425 0.0
H700 H 0.17011 0.52618 0.73481 0.0
H701 H 0.1525 0.45339 0.74286 0.0
H702 H 0.16821 0.46719 0.71985 0.0
H703 H 0.14465 0.46109 0.71786 0.0
C704 C 0.15901 0.48801 0.66462 0.0
C705 C 0.14263 0.48789 0.65977 0.0
C706 C 0.1669 0.49274 0.68746 0.0
C707 C 0.15846 0.49734 0.70566 0.0
C708 C 0.14306 0.49876 0.70015 0.0
H709 H 0.11644 0.48879 0.83455 0.0
H710 H 0.13306 0.50005 0.79712 0.0
C711 C 0.13523 0.4941 0.67747 0.0
C712 C 0.16363 0.49823 0.73117 0.0
H713 H 0.156 0.46944 0.77804 0.0
C714 C 0.16762 0.51396 0.74428 0.0
C715 C 0.16059 0.48233 0.74352 0.0
C716 C 0.15618 0.46498 0.73044 0.0
C717 C 0.16675 0.5136 0.76938 0.0
C718 C 0.1616 0.49708 0.78153 0.0
C719 C 0.1598 0.48206 0.76862 0.0
C720 C 0.15418 0.49376 0.80619 0.0
C721 C 0.17015 0.53056 0.78257 0.0
C722 C 0.16055 0.4865 0.82385 0.0
C723 C 0.15096 0.47994 0.84538 0.0
C724 C 0.13467 0.48022 0.84931 0.0
C725 C 0.12886 0.48826 0.83202 0.0
C726 C 0.1385 0.49495 0.81071 0.0
H727 H 0.18039 0.54301 0.773 0.0
H728 H 0.15727 0.53099 0.78342 0.0
H729 H 0.17499 0.5308 0.80113 0.0
H730 H 0.17247 0.48523 0.82055 0.0
H731 H 0.15577 0.4738 0.85836 0.0
H732 H 0.67575 0.14804 0.34226 0.0
H733 H 0.67863 0.15957 0.30124 0.0
H734 H 0.62504 0.1148 0.28465 0.0
H735 H 0.62196 0.10337 0.3253 0.0
H736 H 0.67848 0.13997 0.26258 0.0
H737 H 0.62373 0.1565 0.25134 0.0
H738 H 0.63193 0.15461 0.2805 0.0
H739 H 0.61488 0.13456 0.26511 0.0
C740 C 0.66441 0.14092 0.33002 0.0
C741 C 0.64868 0.12469 0.33698 0.0
C742 C 0.66608 0.14755 0.30662 0.0
C743 C 0.65194 0.13821 0.28999 0.0
C744 C 0.63594 0.12251 0.2973 0.0
H745 H 0.62287 0.09855 0.15595 0.0
H746 H 0.62674 0.11088 0.19628 0.0
C747 C 0.63429 0.11585 0.32053 0.0
C748 C 0.65467 0.14292 0.2642 0.0
H749 H 0.63155 0.14502 0.21541 0.0
C750 C 0.66862 0.14174 0.25224 0.0
C751 C 0.64187 0.14534 0.25078 0.0
C752 C 0.62739 0.14802 0.26269 0.0
C753 C 0.66893 0.14091 0.22716 0.0
C754 C 0.65503 0.14151 0.21382 0.0
C755 C 0.6421 0.14442 0.22571 0.0
C756 C 0.65182 0.13585 0.18842 0.0
C757 C 0.68312 0.13774 0.21523 0.0
C758 C 0.6644 0.14608 0.17045 0.0
C759 C 0.66226 0.13902 0.14723 0.0
C760 C 0.64752 0.12161 0.14175 0.0
C761 C 0.63448 0.1119 0.15957 0.0
C762 C 0.6366 0.11897 0.18263 0.0
H763 H 0.69193 0.13595 0.22842 0.0
H764 H 0.67643 0.12543 0.20366 0.0
H765 H 0.69196 0.14957 0.20366 0.0
H766 H 0.67615 0.15923 0.17456 0.0
H767 H 0.6725 0.14689 0.13388 0.0
H768 H 0.15741 0.42752 0.96747 0.0
H769 H 0.18661 0.43545 0.98575 0.0
H770 H 0.20615 0.49247 0.97247 0.0
H771 H 0.17674 0.48468 0.95434 0.0
H772 H 0.22107 0.45396 0.96408 0.0
H773 H 0.21674 0.49069 0.04433 0.0
H774 H 0.19708 0.47619 0.02618 0.0
H775 H 0.21365 0.49846 0.01565 0.0
C776 C 0.16785 0.44177 0.96851 0.0
C777 C 0.16475 0.45548 0.95951 0.0
C778 C 0.18454 0.44626 0.97892 0.0
C779 C 0.19845 0.46454 0.98061 0.0
C780 C 0.19547 0.47831 0.97164 0.0
H781 H 0.30624 0.48185 0.02227 0.0
H782 H 0.28346 0.48656 0.00143 0.0
C783 C 0.1787 0.47382 0.96122 0.0
C784 C 0.21609 0.46885 0.99143 0.0
H785 H 0.24264 0.48738 0.041 0.0
C786 C 0.22596 0.46146 0.98075 0.0
C787 C 0.22229 0.47858 0.01319 0.0
C788 C 0.21188 0.48637 0.02569 0.0
C789 C 0.24149 0.46287 0.99175 0.0
C790 C 0.24751 0.47229 0.01379 0.0
C791 C 0.23804 0.4803 0.02402 0.0
C792 C 0.26225 0.47208 0.02776 0.0
C793 C 0.25065 0.45335 0.98036 0.0
C794 C 0.25814 0.46324 0.05003 0.0
C795 C 0.27113 0.46072 0.06209 0.0
C796 C 0.28847 0.46693 0.05201 0.0
C797 C 0.29291 0.4767 0.03033 0.0
C798 C 0.27991 0.47935 0.01837 0.0
H799 H 0.24215 0.44374 0.96603 0.0
H800 H 0.26375 0.46367 0.97221 0.0
H801 H 0.25366 0.44564 0.99396 0.0
H802 H 0.24459 0.45758 0.05763 0.0
H803 H 0.26731 0.45324 0.07882 0.0
H804 H 0.73395 0.1747 0.4114 0.0
H805 H 0.75555 0.2029 0.43164 0.0
H806 H 0.71112 0.20406 0.46782 0.0
H807 H 0.68935 0.17556 0.44799 0.0
H808 H 0.75946 0.23777 0.43382 0.0
H809 H 0.74271 0.20363 0.523 0.0
H810 H 0.73522 0.19097 0.49535 0.0
H811 H 0.72398 0.20267 0.50663 0.0
C812 C 0.72872 0.18102 0.42348 0.0
C813 C 0.70996 0.17277 0.42835 0.0
C814 C 0.74109 0.19716 0.43499 0.0
C815 C 0.73493 0.20535 0.45153 0.0
C816 C 0.71614 0.19771 0.45548 0.0
H817 H 0.80786 0.29194 0.55097 0.0
H818 H 0.78027 0.27169 0.52808 0.0
C819 C 0.70374 0.18149 0.44406 0.0
C820 C 0.74839 0.22128 0.46547 0.0
H821 H 0.76638 0.23405 0.52157 0.0
C822 C 0.76084 0.23707 0.45306 0.0
C823 C 0.75009 0.22032 0.49058 0.0
C824 C 0.7374 0.20347 0.50474 0.0
C825 C 0.77537 0.2517 0.46498 0.0
C826 C 0.77757 0.25035 0.48985 0.0
C827 C 0.76459 0.23499 0.50248 0.0
C828 C 0.79425 0.26369 0.50262 0.0
C829 C 0.78845 0.26832 0.45078 0.0
C830 C 0.81113 0.26571 0.49595 0.0
C831 C 0.82681 0.27712 0.50898 0.0
C832 C 0.82591 0.28668 0.52903 0.0
C833 C 0.80899 0.28478 0.53558 0.0
C834 C 0.79325 0.27327 0.52253 0.0
H835 H 0.78192 0.26979 0.43432 0.0
H836 H 0.79363 0.28094 0.46165 0.0
H837 H 0.80027 0.2669 0.44519 0.0
H838 H 0.81211 0.25809 0.48099 0.0
H839 H 0.8396 0.27824 0.50348 0.0
H840 H 0.5015 0.80986 0.05447 0.0
H841 H 0.48666 0.77795 0.04139 0.0
H842 H 0.53818 0.77927 0.04651 0.0
H843 H 0.55283 0.81067 0.06029 0.0
H844 H 0.49224 0.76441 0.00255 0.0
H845 H 0.50608 0.73166 0.07807 0.0
H846 H 0.50883 0.75416 0.08058 0.0
H847 H 0.52719 0.75117 0.06943 0.0
C848 C 0.50956 0.80321 0.05315 0.0
C849 C 0.52832 0.81274 0.05848 0.0
C850 C 0.50106 0.78498 0.04572 0.0
C851 C 0.51119 0.77605 0.04353 0.0
C852 C 0.5299 0.7856 0.04892 0.0
H853 H 0.52276 0.71438 0.94244 0.0
H854 H 0.51414 0.7336 0.96443 0.0
C855 C 0.53833 0.80367 0.05655 0.0
C856 C 0.50298 0.75744 0.03329 0.0
H857 H 0.50593 0.71893 0.03816 0.0
C858 C 0.49473 0.7542 0.01064 0.0
C859 C 0.50548 0.74374 0.04412 0.0
C860 C 0.51217 0.74532 0.06953 0.0
C861 C 0.49095 0.73861 -0.00258 0.0
C862 C 0.49617 0.72636 0.0068 0.0
C863 C 0.50235 0.72852 0.03057 0.0
C864 C 0.49831 0.71329 0.99134 0.0
C865 C 0.48207 0.73585 0.97319 0.0
C866 C 0.49246 0.69542 -0.00089 0.0
C867 C 0.49784 0.68448 0.98682 0.0
C868 C 0.5091 0.69124 0.9665 0.0
C869 C 0.51403 0.70872 0.95798 0.0
C870 C 0.50888 0.71969 0.97042 0.0
H871 H 0.47186 0.74046 0.97343 0.0
H872 H 0.49258 0.74428 0.95972 0.0
H873 H 0.47519 0.72135 0.9675 0.0
H874 H 0.48439 0.69021 0.01527 0.0
H875 H 0.49374 0.67102 0.99374 0.0
H876 H 0.73591 0.55358 0.56816 0.0
H877 H 0.75518 0.54651 0.54315 0.0
H878 H 0.70765 0.49781 0.51774 0.0
H879 H 0.68812 0.50502 0.54236 0.0
H880 H 0.76067 0.51716 0.54012 0.0
H881 H 0.73039 0.52572 0.45602 0.0
H882 H 0.72604 0.53232 0.48489 0.0
H883 H 0.71473 0.50868 0.47647 0.0
C884 C 0.72952 0.54127 0.55743 0.0
C885 C 0.71047 0.52999 0.55699 0.0
C886 C 0.74057 0.53723 0.54318 0.0
C887 C 0.73281 0.52183 0.52827 0.0
C888 C 0.71387 0.50998 0.52873 0.0
H889 H 0.81161 0.50297 0.44762 0.0
H890 H 0.78482 0.49617 0.47187 0.0
C891 C 0.70276 0.51407 0.5429 0.0
C892 C 0.74466 0.51895 0.51146 0.0
H893 H 0.75492 0.5204 0.45208 0.0
C894 C 0.75931 0.5176 0.52085 0.0
C895 C 0.74285 0.51968 0.48634 0.0
C896 C 0.72776 0.52182 0.47523 0.0
C897 C 0.77269 0.51777 0.50585 0.0
C898 C 0.77109 0.5189 0.48076 0.0
C899 C 0.756 0.51943 0.47132 0.0
C900 C 0.786 0.52181 0.46425 0.0
C901 C 0.78894 0.51782 0.51707 0.0
C902 C 0.795 0.53809 0.45112 0.0
C903 C 0.81012 0.54191 0.43708 0.0
C904 C 0.81658 0.52954 0.43595 0.0
C905 C 0.80707 0.51286 0.44831 0.0
C906 C 0.79183 0.50899 0.46227 0.0
H907 H 0.78978 0.52045 0.53666 0.0
H908 H 0.78783 0.50433 0.51426 0.0
H909 H 0.80182 0.52835 0.50863 0.0
H910 H 0.79067 0.54814 0.45235 0.0
H911 H 0.81707 0.55484 0.42771 0.0
H912 H 0.31046 0.82161 0.95352 0.0
H913 H 0.29042 0.79201 0.97232 0.0
H914 H 0.24428 0.79968 0.96096 0.0
H915 H 0.264 0.82886 0.94173 0.0
H916 H 0.271 0.78569 0.01237 0.0
H917 H 0.22369 0.74801 0.93873 0.0
H918 H 0.24504 0.76881 0.93371 0.0
H919 H 0.22499 0.76963 0.94267 0.0
C920 C 0.29599 0.81683 0.9547 0.0
C921 C 0.2888 0.82756 0.94611 0.0
C922 C 0.28458 0.79993 0.96543 0.0
C923 C 0.26581 0.79348 0.96764 0.0
C924 C 0.25862 0.8041 0.95882 0.0
H925 H 0.18796 0.73814 0.07262 0.0
H926 H 0.2155 0.75751 0.04984 0.0
C927 C 0.26996 0.8209 0.948 0.0
C928 C 0.25383 0.77651 0.98102 0.0
H929 H 0.21145 0.73885 0.97909 0.0
C930 C 0.25816 0.7752 0.00494 0.0
C931 C 0.23731 0.76255 0.9712 0.0
C932 C 0.23261 0.76223 0.94507 0.0
C933 C 0.24569 0.76114 0.01986 0.0
C934 C 0.2283 0.74839 0.01073 0.0
C935 C 0.22464 0.74881 0.98628 0.0
C936 C 0.21305 0.73592 0.02654 0.0
C937 C 0.25114 0.76039 0.04537 0.0
C938 C 0.20233 0.71733 0.02093 0.0
C939 C 0.1863 0.70625 0.03368 0.0
C940 C 0.18074 0.7136 0.05226 0.0
C941 C 0.1919 0.73202 0.0585 0.0
C942 C 0.20779 0.74311 0.04561 0.0
H943 H 0.26606 0.76569 0.04671 0.0
H944 H 0.24795 0.76919 0.05674 0.0
H945 H 0.2438 0.74628 0.05259 0.0
H946 H 0.20606 0.71152 0.00619 0.0
H947 H 0.17801 0.69207 0.02851 0.0
H948 H 0.42823 0.15951 0.52546 0.0
H949 H 0.43751 0.19063 0.51337 0.0
H950 H 0.48931 0.2102 0.54872 0.0
H951 H 0.48024 0.17892 0.56065 0.0
H952 H 0.44732 0.22059 0.54325 0.0
H953 H 0.50357 0.23223 0.48102 0.0
H954 H 0.48689 0.20976 0.49135 0.0
H955 H 0.50485 0.22511 0.51095 0.0
C956 C 0.44164 0.17039 0.53061 0.0
C957 C 0.45352 0.16675 0.54396 0.0
C958 C 0.4469 0.18817 0.52371 0.0
C959 C 0.46414 0.20266 0.53 0.0
C960 C 0.47606 0.19914 0.54338 0.0
H961 H 0.47921 0.31189 0.50301 0.0
H962 H 0.48203 0.28786 0.52358 0.0
C963 C 0.47082 0.18129 0.55025 0.0
C964 C 0.46922 0.2214 0.5227 0.0
H965 H 0.49664 0.25579 0.48453 0.0
C966 C 0.45826 0.22844 0.53066 0.0
C967 C 0.48347 0.23149 0.50625 0.0
C968 C 0.49534 0.22429 0.49669 0.0
C969 C 0.4606 0.24495 0.52176 0.0
C970 C 0.47457 0.25486 0.50484 0.0
C971 C 0.48605 0.2482 0.49766 0.0
C972 C 0.47585 0.27079 0.49214 0.0
C973 C 0.44739 0.25106 0.52947 0.0
C974 C 0.47239 0.26956 0.46746 0.0
C975 C 0.47094 0.28328 0.45564 0.0
C976 C 0.47287 0.29849 0.46834 0.0
C977 C 0.47743 0.30024 0.4928 0.0
C978 C 0.47899 0.2865 0.5046 0.0
H979 H 0.43543 0.24015 0.53916 0.0
H980 H 0.45443 0.26295 0.54164 0.0
H981 H 0.44237 0.2553 0.51374 0.0
H982 H 0.46999 0.25756 0.45751 0.0
H983 H 0.46757 0.28157 0.43675 0.0
H984 H 0.81153 0.55251 0.05853 0.0
H985 H 0.7826 0.5427 0.03842 0.0
H986 H 0.78407 0.49633 0.00892 0.0
H987 H 0.81352 0.50646 0.02849 0.0
H988 H 0.77665 0.51318 0.97525 0.0
H989 H 0.7315 0.50359 0.05149 0.0
H990 H 0.75135 0.52578 0.05337 0.0
H991 H 0.75367 0.50576 0.05546 0.0
C992 C 0.80561 0.54007 0.04806 0.0
C993 C 0.81483 0.53028 0.04507 0.0
C994 C 0.78894 0.53437 0.03674 0.0
C995 C 0.78094 0.51855 0.02258 0.0
C996 C 0.78992 0.50849 0.01995 0.0
H997 H 0.67797 0.50155 0.96184 0.0
H998 H 0.69882 0.49342 0.98143 0.0
C999 C 0.80674 0.5143 0.03111 0.0
C1000 C 0.76421 0.51378 0.00872 0.0
H1001 H 0.72335 0.51228 0.01362 0.0
C1002 C 0.76479 0.51253 0.98369 0.0
C1003 C 0.74848 0.51238 0.01966 0.0
C1004 C 0.74615 0.51173 0.0465 0.0
C1005 C 0.75078 0.51156 0.96924 0.0
C1006 C 0.73614 0.51243 0.98011 0.0
C1007 C 0.73477 0.51202 0.0052 0.0
C1008 C 0.72327 0.5158 0.96604 0.0
C1009 C 0.75209 0.51005 0.94247 0.0
C1010 C 0.73006 0.53102 0.95081 0.0
C1011 C 0.71821 0.53557 0.93946 0.0
C1012 C 0.69933 0.52522 0.94349 0.0
C1013 C 0.69247 0.50981 0.95843 0.0
C1014 C 0.70436 0.50513 0.96961 0.0
H1015 H 0.75914 0.50233 0.93799 0.0
H1016 H 0.73841 0.50318 0.93391 0.0
H1017 H 0.76027 0.52392 0.93473 0.0
H1018 H 0.74461 0.53982 0.94838 0.0
H1019 H 0.72394 0.5476 0.9282 0.0
H1020 H 0.18533 0.70658 0.42458 0.0
H1021 H 0.2155 0.72907 0.43932 0.0
H1022 H 0.19615 0.71588 0.5121 0.0
H1023 H 0.16599 0.69307 0.49753 0.0
H1024 H 0.2217 0.75877 0.46518 0.0
H1025 H 0.2453 0.71833 0.51637 0.0
H1026 H 0.22665 0.70808 0.49526 0.0
H1027 H 0.223 0.71384 0.52499 0.0
C1028 C 0.18755 0.70824 0.44375 0.0
C1029 C 0.17324 0.69811 0.45991 0.0
C1030 C 0.20482 0.72107 0.45212 0.0
C1031 C 0.20813 0.724 0.47679 0.0
C1032 C 0.19402 0.71354 0.493 0.0
H1033 H 0.28547 0.80898 0.56647 0.0
H1034 H 0.26198 0.78012 0.54948 0.0
C1035 C 0.17674 0.70062 0.48464 0.0
C1036 C 0.22565 0.73935 0.48538 0.0
H1037 H 0.26143 0.75063 0.52325 0.0
C1038 C 0.23054 0.75697 0.47759 0.0
C1039 C 0.23706 0.73694 0.50169 0.0
C1040 C 0.23285 0.71826 0.50991 0.0
C1041 C 0.24621 0.77233 0.48627 0.0
C1042 C 0.25748 0.76997 0.50288 0.0
C1043 C 0.25279 0.75234 0.51041 0.0
C1044 C 0.27343 0.78585 0.51377 0.0
C1045 C 0.25014 0.79101 0.47836 0.0
C1046 C 0.28807 0.79823 0.49951 0.0
C1047 C 0.30148 0.81481 0.50911 0.0
C1048 C 0.30048 0.81919 0.53316 0.0
C1049 C 0.28656 0.80611 0.54782 0.0
C1050 C 0.27314 0.78957 0.53818 0.0
H1051 H 0.23817 0.79058 0.46948 0.0
H1052 H 0.25418 0.80049 0.49384 0.0
H1053 H 0.2616 0.79667 0.46537 0.0
H1054 H 0.28867 0.79542 0.48071 0.0
H1055 H 0.31213 0.82451 0.49741 0.0
H1056 H 0.48582 0.18781 0.9241 0.0
H1057 H 0.4968 0.21961 0.93481 0.0
H1058 H 0.49081 0.20521 0.00974 0.0
H1059 H 0.48035 0.17354 -0.00082 0.0
H1060 H 0.47421 0.22782 0.95635 0.0
H1061 H 0.53613 0.25445 0.01203 0.0
H1062 H 0.52833 0.23442 0.99345 0.0
H1063 H 0.51881 0.23267 0.02287 0.0
C1064 C 0.48735 0.19152 0.94288 0.0
C1065 C 0.48198 0.17816 0.96082 0.0
C1066 C 0.4937 0.20971 0.94896 0.0
C1067 C 0.49474 0.21483 0.97307 0.0
C1068 C 0.49056 0.2017 0.99103 0.0
H1069 H 0.4727 0.27952 0.06175 0.0
H1070 H 0.48381 0.2611 0.04251 0.0
C1071 C 0.48439 0.18353 0.98497 0.0
C1072 C 0.49668 0.23272 0.97931 0.0
H1073 H 0.51676 0.26778 0.01933 0.0
C1074 C 0.48388 0.23686 0.96961 0.0
C1075 C 0.50925 0.24446 0.99665 0.0
C1076 C 0.52402 0.24135 0.00663 0.0
C1077 C 0.48233 0.25159 0.9781 0.0
C1078 C 0.49415 0.26266 0.99653 0.0
C1079 C 0.50771 0.25923 0.00522 0.0
C1080 C 0.49082 0.27607 0.00911 0.0
C1081 C 0.46717 0.25432 0.96852 0.0
C1082 C 0.4917 0.29099 0.99696 0.0
C1083 C 0.48515 0.30147 0.00783 0.0
C1084 C 0.47774 0.2972 0.03106 0.0
C1085 C 0.47811 0.28304 0.04374 0.0
C1086 C 0.48458 0.27256 0.03284 0.0
H1087 H 0.4575 0.24279 0.95704 0.0
H1088 H 0.45939 0.25587 0.98346 0.0
H1089 H 0.47312 0.26695 0.95759 0.0
H1090 H 0.49673 0.29405 0.97873 0.0
H1091 H 0.48527 0.31245 -0.00228 0.0
H1092 H 0.18443 0.49164 0.547 0.0
H1093 H 0.21134 0.49846 0.52294 0.0
H1094 H 0.19658 0.4418 0.52567 0.0
H1095 H 0.16994 0.43491 0.54993 0.0
H1096 H 0.23346 0.46581 0.53431 0.0
H1097 H 0.20933 0.48443 0.452 0.0
H1098 H 0.21065 0.49686 0.47875 0.0
H1099 H 0.19445 0.4729 0.477 0.0
C1100 C 0.18698 0.48066 0.54256 0.0
C1101 C 0.175 0.46271 0.55024 0.0
C1102 C 0.20229 0.48457 0.52872 0.0
C1103 C 0.20577 0.47058 0.52228 0.0
C1104 C 0.19409 0.45277 0.53042 0.0
H1105 H 0.26071 0.44923 0.41235 0.0
H1106 H 0.24032 0.45444 0.43779 0.0
C1107 C 0.17885 0.44886 0.54425 0.0
C1108 C 0.2214 0.47417 0.5068 0.0
H1109 H 0.23715 0.48462 0.44939 0.0
C1110 C 0.23445 0.47015 0.51582 0.0
C1111 C 0.22247 0.4797 0.48266 0.0
C1112 C 0.20844 0.48362 0.47186 0.0
C1113 C 0.2482 0.47085 0.50111 0.0
C1114 C 0.24913 0.4761 0.47685 0.0
C1115 C 0.23645 0.48074 0.46804 0.0
C1116 C 0.26188 0.47492 0.45982 0.0
C1117 C 0.26098 0.46498 0.51135 0.0
C1118 C 0.28082 0.48518 0.46326 0.0
C1119 C 0.29253 0.48211 0.44887 0.0
C1120 C 0.28547 0.46886 0.43065 0.0
C1121 C 0.26658 0.45945 0.42631 0.0
C1122 C 0.2549 0.46244 0.4408 0.0
H1123 H 0.25608 0.45786 0.52881 0.0
H1124 H 0.26263 0.45575 0.49876 0.0
H1125 H 0.27459 0.47718 0.51426 0.0
H1126 H 0.28649 0.49516 0.47753 0.0
H1127 H 0.30704 0.48973 0.45248 0.0
H1128 H 0.8009 0.28345 0.93606 0.0
H1129 H 0.77323 0.2611 0.95614 0.0
H1130 H 0.79062 0.29311 0.02098 0.0
H1131 H 0.81884 0.31544 0.00108 0.0
H1132 H 0.78295 0.25981 0.02964 0.0
H1133 H 0.72566 0.25503 0.97746 0.0
H1134 H 0.74134 0.25352 0.95737 0.0
H1135 H 0.74856 0.27412 0.97444 0.0
C1136 C 0.79871 0.28601 0.95444 0.0
C1137 C 0.8122 0.30111 0.96707 0.0
C1138 C 0.78271 0.27328 0.96585 0.0
C1139 C 0.77967 0.27551 0.99 0.0
C1140 C 0.79262 0.29116 0.00228 0.0
H1141 H 0.68386 0.17724 0.04819 0.0
H1142 H 0.70395 0.20963 0.03877 0.0
C1143 C 0.80875 0.30389 0.99089 0.0
C1144 C 0.76459 0.2601 0.00307 0.0
H1145 H 0.7203 0.22636 0.9962 0.0
C1146 C 0.76912 0.25279 0.02272 0.0
C1147 C 0.74642 0.25104 0.99446 0.0
C1148 C 0.74021 0.25901 0.97494 0.0
C1149 C 0.75647 0.23588 0.03251 0.0
C1150 C 0.73899 0.22584 0.02198 0.0
C1151 C 0.73388 0.23388 0.00386 0.0
C1152 C 0.72668 0.20639 0.02783 0.0
C1153 C 0.76218 0.22865 0.05349 0.0
C1154 C 0.73269 0.19384 0.02423 0.0
C1155 C 0.72134 0.17544 0.02958 0.0
C1156 C 0.70364 0.16916 0.0384 0.0
C1157 C 0.69745 0.18168 0.04147 0.0
C1158 C 0.70889 0.20017 0.03615 0.0
H1159 H 0.77276 0.23996 0.06443 0.0
H1160 H 0.75039 0.21984 0.06517 0.0
H1161 H 0.76816 0.22045 0.04672 0.0
H1162 H 0.7462 0.19828 0.01717 0.0
H1163 H 0.72648 0.16615 0.0268 0.0
H1164 H 0.51725 0.80941 0.4365 0.0
H1165 H 0.51213 0.78136 0.45533 0.0
H1166 H 0.49628 0.79664 0.52092 0.0
H1167 H 0.50189 0.82516 0.50232 0.0
H1168 H 0.52318 0.79019 0.52845 0.0
H1169 H 0.47098 0.7328 0.47564 0.0
H1170 H 0.48816 0.74917 0.45611 0.0
H1171 H 0.47425 0.75554 0.47348 0.0
C1172 C 0.51223 0.80664 0.45475 0.0
C1173 C 0.51024 0.81965 0.46803 0.0
C1174 C 0.5091 0.79044 0.46543 0.0
C1175 C 0.50364 0.78678 0.48948 0.0
C1176 C 0.50042 0.79917 0.5023 0.0
H1177 H 0.50463 0.6921 0.55407 0.0
H1178 H 0.49326 0.71237 0.54148 0.0
C1179 C 0.50366 0.81547 0.49165 0.0
C1180 C 0.5044 0.77176 0.50205 0.0
H1181 H 0.49368 0.72739 0.49548 0.0
C1182 C 0.51635 0.77635 0.52159 0.0
C1183 C 0.49536 0.75362 0.49335 0.0
C1184 C 0.48132 0.74748 0.47365 0.0
C1185 C 0.52053 0.76369 0.53148 0.0
C1186 C 0.51286 0.74611 0.52124 0.0
C1187 C 0.49984 0.74103 0.50295 0.0
C1188 C 0.51933 0.73346 0.52808 0.0
C1189 C 0.5336 0.76943 0.55233 0.0
C1190 C 0.53762 0.73847 0.52412 0.0
C1191 C 0.54414 0.727 0.53123 0.0
C1192 C 0.53246 0.71023 0.54234 0.0
C1193 C 0.51399 0.70498 0.54565 0.0
C1194 C 0.50746 0.71651 0.53849 0.0
H1195 H 0.5338 0.7808 0.56253 0.0
H1196 H 0.52996 0.75786 0.56474 0.0
H1197 H 0.5476 0.77427 0.54549 0.0
H1198 H 0.54689 0.75136 0.51565 0.0
H1199 H 0.5584 0.73139 0.52826 0.0
H1200 H 0.33838 0.41347 0.01325 0.0
H1201 H 0.35025 0.39303 0.00332 0.0
H1202 H 0.37055 0.39824 0.07537 0.0
H1203 H 0.35867 0.41831 0.08556 0.0
H1204 H 0.39509 0.40356 0.02574 0.0
H1205 H 0.32976 0.33927 0.04339 0.0
H1206 H 0.33028 0.35861 0.02886 0.0
H1207 H 0.33504 0.35951 0.06026 0.0
C1208 C 0.34544 0.41031 0.02693 0.0
C1209 C 0.34769 0.41761 0.05016 0.0
C1210 C 0.3522 0.39868 0.0212 0.0
C1211 C 0.36126 0.39427 0.03864 0.0
C1212 C 0.36364 0.40162 0.0617 0.0
H1213 H 0.40242 0.33233 0.09114 0.0
H1214 H 0.38657 0.3484 0.07886 0.0
C1215 C 0.35688 0.41314 0.06744 0.0
C1216 C 0.36805 0.38164 0.03353 0.0
H1217 H 0.35669 0.33736 0.04245 0.0
C1218 C 0.38666 0.38899 0.02861 0.0
C1219 C 0.35692 0.36273 0.03747 0.0
C1220 C 0.33684 0.3544 0.04274 0.0
C1221 C 0.39471 0.37798 0.02911 0.0
C1222 C 0.38379 0.35925 0.03468 0.0
C1223 C 0.36496 0.35172 0.03807 0.0
C1224 C 0.39213 0.34814 0.04108 0.0
C1225 C 0.41504 0.38665 0.02556 0.0
C1226 C 0.40023 0.34243 0.02378 0.0
C1227 C 0.40932 0.33317 0.03076 0.0
C1228 C 0.41051 0.32969 0.05514 0.0
C1229 C 0.4019 0.33499 0.07226 0.0
C1230 C 0.39276 0.34408 0.06527 0.0
H1231 H 0.42172 0.4016 0.02259 0.0
H1232 H 0.42133 0.3841 0.04147 0.0
H1233 H 0.41783 0.38039 0.00984 0.0
H1234 H 0.39978 0.34541 0.005 0.0
H1235 H 0.41583 0.32922 0.01719 0.0
H1236 H 0.07887 0.42468 0.5297 0.0
H1237 H 0.04627 0.40818 0.5193 0.0
H1238 H 0.03273 0.41371 0.59211 0.0
H1239 H 0.06489 0.42978 0.60271 0.0
H1240 H 0.01726 0.37483 0.54346 0.0
H1241 H 0.00618 0.43392 0.54903 0.0
H1242 H 0.02844 0.43639 0.54431 0.0
H1243 H 0.01879 0.43237 0.57391 0.0
C1244 C 0.06892 0.4224 0.54344 0.0
C1245 C 0.07448 0.42879 0.56695 0.0
C1246 C 0.05036 0.41301 0.53746 0.0
C1247 C 0.03722 0.41009 0.55486 0.0
C1248 C 0.04274 0.41621 0.57833 0.0
H1249 H 0.93043 0.35777 0.60088 0.0
H1250 H 0.96288 0.37532 0.59159 0.0
C1251 C 0.06116 0.42543 0.58434 0.0
C1252 C 0.01755 0.40011 0.54925 0.0
H1253 H 0.97965 0.40423 0.55439 0.0
C1254 C 0.00899 0.38126 0.54515 0.0
C1255 C 0.00692 0.40864 0.5514 0.0
C1256 C 0.01555 0.42898 0.55467 0.0
C1257 C 0.98988 0.37046 0.54513 0.0
C1258 C 0.97929 0.37885 0.54912 0.0
C1259 C 0.98788 0.39786 0.55148 0.0
C1260 C 0.95954 0.36806 0.55404 0.0
C1261 C 0.98115 0.35005 0.54256 0.0
C1262 C 0.94697 0.35819 0.53592 0.0
C1263 C 0.92831 0.34818 0.54115 0.0
C1264 C 0.92204 0.34797 0.56457 0.0
C1265 C 0.93476 0.35782 0.58262 0.0
C1266 C 0.95332 0.36782 0.57737 0.0
H1267 H 0.99141 0.34554 0.54142 0.0
H1268 H 0.972 0.34313 0.55802 0.0
H1269 H 0.97268 0.34556 0.52609 0.0
H1270 H 0.95157 0.35835 0.51776 0.0
H1271 H 0.91883 0.34073 0.52686 0.0
H1272 H 0.57041 0.90954 0.00482 0.0
H1273 H 0.58719 0.94046 0.98762 0.0
H1274 H 0.61003 0.96206 0.05712 0.0
H1275 H 0.59327 0.93158 0.07433 0.0
H1276 H 0.58281 0.97084 0.00656 0.0
H1277 H 0.65434 0.98595 0.00966 0.0
H1278 H 0.63513 0.96296 0.00809 0.0
H1279 H 0.64184 0.97479 0.03631 0.0
C1280 C 0.57924 0.9209 0.01627 0.0
C1281 C 0.58052 0.91823 0.04091 0.0
C1282 C 0.58879 0.93848 0.00644 0.0
C1283 C 0.60004 0.95343 0.02106 0.0
C1284 C 0.60168 0.95063 0.04547 0.0
H1285 H 0.63448 0.05178 0.07036 0.0
H1286 H 0.62212 0.02095 0.05512 0.0
C1287 C 0.59198 0.93324 0.05532 0.0
C1288 C 0.60872 0.97235 0.01207 0.0
H1289 H 0.64958 0.01187 0.01537 0.0
C1290 C 0.59748 0.97978 0.00744 0.0
C1291 C 0.62783 0.98394 0.0131 0.0
C1292 C 0.64051 0.97647 0.01682 0.0
C1293 C 0.60475 -0.00126 0.00668 0.0
C1294 C 0.62361 0.01032 0.01059 0.0
C1295 C 0.63509 0.00288 0.01245 0.0
C1296 C 0.63073 0.02927 0.01859 0.0
C1297 C 0.59208 0.00632 0.0041 0.0
C1298 C 0.6397 0.04413 0.00297 0.0
C1299 C 0.64666 0.06196 0.01163 0.0
C1300 C 0.64481 0.06502 0.03601 0.0
C1301 C 0.63589 0.04998 0.05145 0.0
C1302 C 0.62887 0.03231 0.0428 0.0
H1303 H 0.5787 0.9961 0.99645 0.0
H1304 H 0.58969 0.01044 0.02201 0.0
H1305 H 0.59832 0.01863 0.9925 0.0
H1306 H 0.64131 0.04194 0.98422 0.0
H1307 H 0.65355 0.07329 -0.00069 0.0
H1308 H 0.65593 0.57352 0.52169 0.0
H1309 H 0.6412 0.59073 0.50829 0.0
H1310 H 0.62369 0.59123 0.58066 0.0
H1311 H 0.63839 0.57439 0.59421 0.0
H1312 H 0.59575 0.5778 0.53647 0.0
H1313 H 0.65773 0.64692 0.53249 0.0
H1314 H 0.65803 0.62696 0.52162 0.0
H1315 H 0.65697 0.63016 0.55318 0.0
C1316 C 0.64897 0.57735 0.53472 0.0
C1317 C 0.64817 0.57245 0.55898 0.0
C1318 C 0.64059 0.58715 0.52703 0.0
C1319 C 0.63138 0.59213 0.54354 0.0
C1320 C 0.6307 0.58739 0.56769 0.0
H1321 H 0.57627 0.64022 0.59105 0.0
H1322 H 0.5923 0.62439 0.57888 0.0
C1323 C 0.63906 0.5777 0.57538 0.0
C1324 C 0.62212 0.60217 0.53616 0.0
H1325 H 0.62911 0.64547 0.53431 0.0
C1326 C 0.60302 0.59257 0.53514 0.0
C1327 C 0.63173 0.62138 0.53447 0.0
C1328 C 0.65227 0.6321 0.53542 0.0
C1329 C 0.59319 0.60184 0.53436 0.0
C1330 C 0.60277 0.62109 0.53485 0.0
C1331 C 0.62188 0.63068 0.53384 0.0
C1332 C 0.59332 0.63111 0.54134 0.0
C1333 C 0.57263 0.59107 0.5349 0.0
C1334 C 0.5888 0.64028 0.52417 0.0
C1335 C 0.5794 0.64926 0.53106 0.0
C1336 C 0.57453 0.64919 0.55519 0.0
C1337 C 0.57949 0.64028 0.57228 0.0
C1338 C 0.58874 0.63129 0.5654 0.0
H1339 H 0.5673 0.57668 0.52936 0.0
H1340 H 0.56786 0.59113 0.55341 0.0
H1341 H 0.56684 0.5974 0.52298 0.0
H1342 H 0.59234 0.64028 0.50552 0.0
H1343 H 0.57581 0.65608 0.51752 0.0
H1344 H 0.93211 0.58559 0.07971 0.0
H1345 H 0.96387 0.60541 0.06843 0.0
H1346 H 0.9489 0.59783 0.99374 0.0
H1347 H 0.91669 0.57786 0.00495 0.0
H1348 H 0.98021 0.59215 0.01077 0.0
H1349 H 0.9866 0.65817 0.03723 0.0
H1350 H 0.97431 0.64014 0.05848 0.0
H1351 H 0.96507 0.63849 0.02898 0.0
C1352 C 0.93549 0.5881 0.06086 0.0
C1353 C 0.92192 0.58014 0.0432 0.0
C1354 C 0.95363 0.59953 0.05447 0.0
C1355 C 0.95862 0.6032 0.03031 0.0
C1356 C 0.9452 0.59523 0.01249 0.0
H1357 H 0.07865 0.66146 0.00895 0.0
H1358 H 0.04666 0.64796 0.99616 0.0
C1359 C 0.92689 0.58387 0.01892 0.0
C1360 C 0.9781 0.61481 0.02433 0.0
H1361 H 0.01423 0.65646 0.03832 0.0
C1362 C 0.98771 0.6064 0.01594 0.0
C1363 C 0.98771 0.63337 0.03108 0.0
C1364 C 0.97789 0.64316 0.03925 0.0
C1365 C 0.00687 0.61566 0.01638 0.0
C1366 C 0.01643 0.6337 0.02527 0.0
C1367 C 0.00681 0.64258 0.0316 0.0
C1368 C 0.03581 0.64231 0.0322 0.0
C1369 C 0.01672 0.60565 0.00937 0.0
C1370 C 0.04017 0.6437 0.0566 0.0
C1371 C 0.05825 0.6513 0.06391 0.0
C1372 C 0.07237 0.65773 0.04694 0.0
C1373 C 0.06803 0.65658 0.02242 0.0
C1374 C 0.04982 0.64885 0.01509 0.0
H1375 H 0.00721 0.59145 0.00345 0.0
H1376 H 0.02638 0.61303 0.99455 0.0
H1377 H 0.02482 0.60525 0.02477 0.0
H1378 H 0.02951 0.63872 0.07004 0.0
H1379 H 0.06113 0.65216 0.08292 0.0
H1380 H 0.42026 0.05189 0.57414 0.0
H1381 H 0.40316 0.02147 0.55731 0.0
H1382 H 0.39343 0.0434 0.49293 0.0
H1383 H 0.41126 0.07439 0.50947 0.0
H1384 H 0.36109 0.01315 0.51998 0.0
H1385 H 0.41557 -0.00265 0.49852 0.0
H1386 H 0.41906 0.00923 0.52645 0.0
H1387 H 0.41934 0.02036 0.49888 0.0
C1388 C 0.41493 0.05045 0.55621 0.0
C1389 C 0.41735 0.06566 0.54308 0.0
C1390 C 0.40513 0.03299 0.54659 0.0
C1391 C 0.39733 0.03028 0.52377 0.0
C1392 C 0.39961 0.04533 0.51046 0.0
H1393 H 0.3374 0.91078 0.50704 0.0
H1394 H 0.35151 0.9419 0.49052 0.0
C1395 C 0.40974 0.06296 0.51997 0.0
C1396 C 0.38544 0.0114 0.51544 0.0
H1397 H 0.3863 0.97174 0.51027 0.0
C1398 C 0.36651 0.00411 0.5169 0.0
C1399 C 0.39255 -0.00029 0.51118 0.0
C1400 C 0.41276 0.00707 0.50842 0.0
C1401 C 0.35466 0.98518 0.51706 0.0
C1402 C 0.36201 0.97346 0.5158 0.0
C1403 C 0.38071 0.98079 0.51141 0.0
C1404 C 0.35155 0.95443 0.5243 0.0
C1405 C 0.33451 0.97785 0.52055 0.0
C1406 C 0.34705 0.95133 0.54867 0.0
C1407 C 0.33939 0.93382 0.55814 0.0
C1408 C 0.33592 0.91902 0.54337 0.0
C1409 C 0.33985 0.92198 0.51875 0.0
C1410 C 0.34786 0.93967 0.50931 0.0
H1411 H 0.33036 0.98755 0.51368 0.0
H1412 H 0.32635 0.96451 0.51139 0.0
H1413 H 0.33131 0.97583 0.53997 0.0
H1414 H 0.35012 0.96261 0.5606 0.0
H1415 H 0.33645 0.93192 0.57715 0.0
H1416 H 0.5679 0.65633 0.98376 0.0
H1417 H 0.58334 0.63969 0.99664 0.0
H1418 H 0.60481 0.64429 0.92532 0.0
H1419 H 0.58937 0.66061 0.91233 0.0
H1420 H 0.5762 0.60569 0.97277 0.0
H1421 H 0.64927 0.65886 0.97114 0.0
H1422 H 0.63115 0.66411 0.97475 0.0
H1423 H 0.63677 0.65949 0.94549 0.0
C1424 C 0.57619 0.65405 0.971 0.0
C1425 C 0.57742 0.65968 0.94703 0.0
C1426 C 0.58496 0.64457 0.97836 0.0
C1427 C 0.59538 0.64102 0.96198 0.0
C1428 C 0.59709 0.64719 0.93831 0.0
H1429 H 0.62147 0.56608 0.9151 0.0
H1430 H 0.60911 0.58524 0.92766 0.0
C1431 C 0.58815 0.65638 0.93088 0.0
C1432 C 0.60294 0.62921 0.9684 0.0
H1433 H 0.64242 0.62777 0.96494 0.0
C1434 C 0.59072 0.61055 0.97182 0.0
C1435 C 0.62187 0.63564 0.9673 0.0
C1436 C 0.63556 0.65566 0.9647 0.0
C1437 C 0.59686 0.59794 0.97196 0.0
C1438 C 0.61561 0.60423 0.96858 0.0
C1439 C 0.62801 0.62301 0.96737 0.0
C1440 C 0.62216 0.59154 0.9624 0.0
C1441 C 0.58317 0.57789 0.97425 0.0
C1442 C 0.63367 0.58885 0.9778 0.0
C1443 C 0.64062 0.57762 0.97077 0.0
C1444 C 0.63637 0.56923 0.94808 0.0
C1445 C 0.62483 0.57206 0.93279 0.0
C1446 C 0.61774 0.58303 0.93993 0.0
H1447 H 0.57034 0.57558 0.98284 0.0
H1448 H 0.57978 0.57166 0.95613 0.0
H1449 H 0.58889 0.57082 0.98487 0.0
H1450 H 0.63736 0.59551 0.99511 0.0
H1451 H 0.64957 0.57581 0.9829 0.0
H1452 H 0.91389 0.5695 0.46942 0.0
H1453 H 0.94589 0.58634 0.48257 0.0
H1454 H 0.96339 0.58491 0.41047 0.0
H1455 H 0.93178 0.56841 0.39718 0.0
H1456 H 0.97897 0.57306 0.4515 0.0
H1457 H 0.98457 0.64129 0.46123 0.0
H1458 H 0.96534 0.62123 0.47372 0.0
H1459 H 0.96753 0.62414 0.44188 0.0
C1460 C 0.92458 0.5728 0.4564 0.0
C1461 C 0.92029 0.5675 0.43228 0.0
C1462 C 0.9428 0.5824 0.46394 0.0
C1463 C 0.95689 0.5868 0.44745 0.0
C1464 C 0.95264 0.58153 0.42346 0.0
H1465 H 0.06058 0.63732 0.40014 0.0
H1466 H 0.02877 0.61999 0.41219 0.0
C1467 C 0.93454 0.57204 0.41591 0.0
C1468 C 0.97626 0.59694 0.45461 0.0
H1469 H 0.01195 0.64046 0.45953 0.0
C1470 C 0.98616 0.58773 0.45402 0.0
C1471 C 0.98551 0.61605 0.45798 0.0
C1472 C 0.97531 0.6264 0.45877 0.0
C1473 C 0.00526 0.59734 0.45484 0.0
C1474 C 0.01457 0.61657 0.456 0.0
C1475 C 0.00467 0.62568 0.45868 0.0
C1476 C 0.03406 0.62732 0.44962 0.0
C1477 C 0.01541 0.58699 0.45276 0.0
C1478 C 0.04752 0.63742 0.46673 0.0
C1479 C 0.06592 0.64728 0.45991 0.0
C1480 C 0.07096 0.64721 0.43589 0.0
C1481 C 0.05728 0.63739 0.41885 0.0
C1482 C 0.03906 0.62751 0.42568 0.0
H1483 H 0.00677 0.57251 0.45824 0.0
H1484 H 0.01956 0.58725 0.43383 0.0
H1485 H 0.02795 0.59341 0.46393 0.0
H1486 H 0.04381 0.6375 0.48528 0.0
H1487 H 0.07616 0.65481 0.47341 0.0
H1488 H 0.39609 0.06554 0.92361 0.0
H1489 H 0.38009 0.03469 0.93975 0.0
H1490 H 0.40758 0.05449 0.00745 0.0
H1491 H 0.4236 0.08576 0.99133 0.0
H1492 H 0.4118 0.02628 0.98505 0.0
H1493 H 0.33915 0.00696 0.98957 0.0
H1494 H 0.34963 0.01884 0.96231 0.0
H1495 H 0.35748 0.03044 0.99058 0.0
C1496 C 0.39844 0.06341 0.94211 0.0
C1497 C 0.41109 0.07797 0.95622 0.0
C1498 C 0.38916 0.0458 0.95138 0.0
C1499 C 0.39244 0.04237 0.9749 0.0
C1500 C 0.40468 0.05696 0.98937 0.0
H1501 H 0.33799 0.9224 0.98809 0.0
H1502 H 0.35012 0.95334 0.0043 0.0
C1503 C 0.41379 0.07475 0.98017 0.0
C1504 C 0.385 0.02322 0.98246 0.0
H1505 H 0.34537 0.98242 0.97949 0.0
C1506 C 0.39724 0.01669 0.98479 0.0
C1507 C 0.36603 0.01075 0.98237 0.0
C1508 C 0.35231 0.01714 0.98132 0.0
C1509 C 0.39104 -0.00207 0.98413 0.0
C1510 C 0.37222 0.98557 0.98105 0.0
C1511 C 0.35983 0.99198 0.98159 0.0
C1512 C 0.36567 0.9668 0.97254 0.0
C1513 C 0.40474 0.99152 0.98486 0.0
C1514 C 0.37025 0.96427 0.94929 0.0
C1515 C 0.36318 0.94679 0.93989 0.0
C1516 C 0.35151 0.93142 0.95365 0.0
C1517 C 0.34705 0.93397 0.9771 0.0
C1518 C 0.35397 0.95158 0.98641 0.0
H1519 H 0.41748 0.00155 0.99412 0.0
H1520 H 0.39901 0.97813 0.99405 0.0
H1521 H 0.40833 0.98987 0.96625 0.0
H1522 H 0.37897 0.97591 0.93816 0.0
H1523 H 0.36667 0.94542 0.92169 0.0
H1524 H 0.3568 0.42279 0.39363 0.0
H1525 H 0.37236 0.40654 0.40608 0.0
H1526 H 0.35635 0.40688 0.47931 0.0
H1527 H 0.34073 0.42348 0.467 0.0
H1528 H 0.40149 0.42048 0.44577 0.0
H1529 H 0.34064 0.35146 0.45933 0.0
H1530 H 0.33959 0.36769 0.43936 0.0
H1531 H 0.34101 0.37151 0.47104 0.0
C1532 C 0.35662 0.41954 0.41242 0.0
C1533 C 0.3477 0.4246 0.42937 0.0
C1534 C 0.36547 0.41019 0.41947 0.0
C1535 C 0.36548 0.40558 0.44356 0.0
C1536 C 0.35639 0.41031 0.46061 0.0
H1537 H 0.41858 0.34003 0.47235 0.0
H1538 H 0.40287 0.35701 0.48227 0.0
C1539 C 0.34752 0.41977 0.45354 0.0
C1540 C 0.37543 0.3961 0.45033 0.0
H1541 H 0.36932 0.35333 0.45675 0.0
C1542 C 0.39452 0.40587 0.44884 0.0
C1543 C 0.36624 0.3771 0.45444 0.0
C1544 C 0.34573 0.36618 0.45617 0.0
C1545 C 0.40461 0.39688 0.44968 0.0
C1546 C 0.3953 0.37769 0.45172 0.0
C1547 C 0.37635 0.36807 0.45514 0.0
C1548 C 0.40464 0.36733 0.44636 0.0
C1549 C 0.42507 0.40785 0.447 0.0
C1550 C 0.41042 0.36731 0.42286 0.0
C1551 C 0.41917 0.3576 0.41711 0.0
C1552 C 0.42242 0.34777 0.4348 0.0
C1553 C 0.41637 0.34758 0.45836 0.0
C1554 C 0.40743 0.35725 0.46408 0.0
H1555 H 0.43049 0.42231 0.45229 0.0
H1556 H 0.43179 0.40197 0.45801 0.0
H1557 H 0.42872 0.4076 0.42797 0.0
H1558 H 0.40806 0.37478 0.40888 0.0
H1559 H 0.42329 0.35776 0.39872 0.0
H1560 H 0.05431 0.42393 0.90707 0.0
H1561 H 0.02214 0.40636 0.91781 0.0
H1562 H 0.0364 0.39541 0.9875 0.0
H1563 H 0.06889 0.41346 0.97714 0.0
H1564 H 0.0082 0.3635 0.9549 0.0
H1565 H 0.99433 0.42007 0.97234 0.0
H1566 H 0.0084 0.42288 0.94669 0.0
H1567 H 0.01665 0.42247 0.97618 0.0
C1568 C 0.05073 0.41809 0.92482 0.0
C1569 C 0.06421 0.42028 0.94133 0.0
C1570 C 0.03231 0.40802 0.93091 0.0
C1571 C 0.02701 0.39982 0.9535 0.0
C1572 C 0.04033 0.40182 0.97005 0.0
H1573 H 0.90786 0.34011 0.97867 0.0
H1574 H 0.9404 0.35569 0.98953 0.0
C1575 C 0.05883 0.41211 0.96407 0.0
C1576 C 0.00742 0.38839 0.95892 0.0
H1577 H 0.96853 0.39082 0.96365 0.0
C1578 C -0.00048 0.36939 0.95746 0.0
C1579 C -0.00376 0.39619 0.96237 0.0
C1580 C 0.00428 0.41653 0.96469 0.0
C1581 C 0.9805 0.35803 0.95754 0.0
C1582 C 0.96929 0.36595 0.9591 0.0
C1583 C 0.97723 0.38483 0.96243 0.0
C1584 C 0.94965 0.35536 0.95352 0.0
C1585 C 0.97248 0.33773 0.95467 0.0
C1586 C 0.94427 0.35016 0.92975 0.0
C1587 C 0.9259 0.34158 0.92348 0.0
C1588 C 0.91254 0.33791 0.94093 0.0
C1589 C 0.91789 0.34271 0.96491 0.0
C1590 C 0.9364 0.35159 0.97113 0.0
H1591 H 0.98244 0.33336 0.95956 0.0
H1592 H 0.96006 0.33017 0.96589 0.0
H1593 H 0.96848 0.33396 0.93568 0.0
H1594 H 0.95437 0.35317 0.9159 0.0
H1595 H 0.92218 0.33797 0.90489 0.0
H1596 H 0.58801 0.93095 0.41783 0.0
H1597 H 0.60562 0.96237 0.43176 0.0
H1598 H 0.58381 0.94546 0.50294 0.0
H1599 H 0.56623 0.91359 0.48909 0.0
H1600 H 0.57942 0.97481 0.4788 0.0
H1601 H 0.65062 0.98863 0.47872 0.0
H1602 H 0.63767 0.97562 0.45325 0.0
H1603 H 0.63116 0.96602 0.4828 0.0
C1604 C 0.58716 0.93384 0.43654 0.0
C1605 C 0.57575 0.91989 0.45238 0.0
C1606 C 0.59733 0.95176 0.44451 0.0
C1607 C 0.59617 0.95613 0.46842 0.0
C1608 C 0.58502 0.94224 0.48449 0.0
H1609 H 0.65761 0.07658 0.47821 0.0
H1610 H 0.6438 0.04571 0.49528 0.0
C1611 C 0.57503 0.92412 0.47658 0.0
C1612 C 0.60512 0.97556 0.4752 0.0
H1613 H 0.6464 0.0144 0.46979 0.0
C1614 C 0.59412 0.9835 0.47779 0.0
C1615 C 0.62428 0.98681 0.47401 0.0
C1616 C 0.63666 0.97883 0.47227 0.0
C1617 C 0.60169 0.00247 0.47649 0.0
C1618 C 0.62063 0.01358 0.47255 0.0
C1619 C 0.63185 0.00578 0.47267 0.0
C1620 C 0.62831 0.03235 0.46345 0.0
C1621 C 0.58927 0.01043 0.47738 0.0
C1622 C 0.62431 0.03488 0.4399 0.0
C1623 C 0.63233 0.05229 0.43001 0.0
C1624 C 0.64438 0.0676 0.44359 0.0
C1625 C 0.64829 0.06506 0.46734 0.0
C1626 C 0.64041 0.0475 0.47714 0.0
H1627 H 0.57625 0.00115 0.48668 0.0
H1628 H 0.59601 0.02385 0.48663 0.0
H1629 H 0.58601 0.01256 0.45882 0.0
H1630 H 0.61525 0.02326 0.42894 0.0
H1631 H 0.62924 0.05363 0.4116 0.0
H1632 H 0.49101 0.63162 0.95211 0.0
H1633 H 0.46519 0.60663 0.97286 0.0
H1634 H 0.48257 0.56928 0.94895 0.0
H1635 H 0.50836 0.59411 0.92794 0.0
H1636 H 0.4448 0.55555 0.94455 0.0
H1637 H 0.47036 0.58391 0.03529 0.0
H1638 H 0.46804 0.59912 0.01504 0.0
H1639 H 0.4845 0.59215 0.00888 0.0
C1640 C 0.48938 0.61811 0.95124 0.0
C1641 C 0.5019 0.61493 0.93856 0.0
C1642 C 0.47463 0.60386 0.96316 0.0
C1643 C 0.47217 0.58621 0.96274 0.0
C1644 C 0.4843 0.58285 0.94955 0.0
H1645 H 0.41219 0.49598 0.05784 0.0
H1646 H 0.43477 0.52153 0.03418 0.0
C1647 C 0.49904 0.59707 0.93758 0.0
C1648 C 0.45719 0.57125 0.97641 0.0
H1649 H 0.44142 0.55724 0.03318 0.0
C1650 C 0.44399 0.55591 0.96392 0.0
C1651 C 0.45635 0.57174 0.00168 0.0
C1652 C 0.47063 0.58752 0.0161 0.0
C1653 C 0.42994 0.54097 0.97608 0.0
C1654 C 0.42898 0.54156 0.00133 0.0
C1655 C 0.44214 0.55693 0.01379 0.0
C1656 C 0.41501 0.52599 0.01534 0.0
C1657 C 0.41657 0.52448 0.9619 0.0
C1658 C 0.3964 0.52013 0.0127 0.0
C1659 C 0.38338 0.50545 0.0262 0.0
C1660 C 0.38879 0.49646 0.04267 0.0
C1661 C 0.40749 0.50253 0.04534 0.0
C1662 C 0.42045 0.51716 0.03184 0.0
H1663 H 0.42156 0.52457 0.94345 0.0
H1664 H 0.4139 0.5117 0.97096 0.0
H1665 H 0.40344 0.52437 0.9605 0.0
H1666 H 0.39196 0.52699 0.00035 0.0
H1667 H 0.3691 0.5012 0.02377 0.0
H1668 H 0.8622 0.36073 0.52665 0.0
H1669 H 0.86013 0.38262 0.50006 0.0
H1670 H 0.89047 0.42565 0.55103 0.0
H1671 H 0.89303 0.40404 0.57738 0.0
H1672 H 0.8461 0.40553 0.50517 0.0
H1673 H 0.92085 0.4453 0.49076 0.0
H1674 H 0.9098 0.42324 0.50506 0.0
H1675 H 0.91469 0.44335 0.52181 0.0
C1676 C 0.86835 0.37484 0.53226 0.0
C1677 C 0.87801 0.3807 0.55398 0.0
C1678 C 0.86714 0.38731 0.51705 0.0
C1679 C 0.8755 0.40582 0.52335 0.0
C1680 C 0.88436 0.41152 0.54554 0.0
H1681 H 0.8616 0.49151 0.45981 0.0
H1682 H 0.85866 0.46607 0.48393 0.0
C1683 C 0.88574 0.39912 0.56062 0.0
C1684 C 0.87544 0.41929 0.50649 0.0
H1685 H 0.90373 0.45875 0.47686 0.0
C1686 C 0.85867 0.41712 0.49883 0.0
C1687 C 0.89188 0.43419 0.4979 0.0
C1688 C 0.91032 0.43659 0.50409 0.0
C1689 C 0.85791 0.42975 0.48324 0.0
C1690 C 0.87437 0.44513 0.47559 0.0
C1691 C 0.89111 0.44704 0.48289 0.0
C1692 C 0.87475 0.45953 0.46006 0.0
C1693 C 0.83952 0.42633 0.47484 0.0
C1694 C 0.88497 0.46449 0.4388 0.0
C1695 C 0.88697 0.47922 0.42525 0.0
C1696 C 0.8787 0.48926 0.43261 0.0
C1697 C 0.86803 0.48396 0.45355 0.0
C1698 C 0.86623 0.46934 0.46728 0.0
H1699 H 0.82903 0.41165 0.4761 0.0
H1700 H 0.83506 0.43404 0.4864 0.0
H1701 H 0.84013 0.43089 0.45605 0.0
H1702 H 0.8917 0.45713 0.43291 0.0
H1703 H 0.89519 0.48288 0.40914 0.0
H1704 H 0.41497 0.91574 0.93483 0.0
H1705 H 0.43669 0.91049 0.95705 0.0
H1706 H 0.39237 0.86243 0.98927 0.0
H1707 H 0.37037 0.86764 0.96723 0.0
H1708 H 0.41871 0.886 0.02213 0.0
H1709 H 0.45082 0.87135 0.9453 0.0
H1710 H 0.45026 0.89214 0.94175 0.0
H1711 H 0.42922 0.8707 0.94293 0.0
C1712 C 0.40976 0.90397 0.9465 0.0
C1713 C 0.39089 0.89209 0.94918 0.0
C1714 C 0.42224 0.90093 0.95908 0.0
C1715 C 0.41613 0.88592 0.97449 0.0
C1716 C 0.39733 0.87403 0.9773 0.0
H1717 H 0.49489 0.86011 0.03843 0.0
H1718 H 0.4679 0.85716 0.0183 0.0
C1719 C 0.3848 0.87703 0.96467 0.0
C1720 C 0.42947 0.88325 0.98841 0.0
H1721 H 0.46736 0.87914 0.98232 0.0
C1722 C 0.42922 0.88426 0.01348 0.0
C1723 C 0.44298 0.88071 0.97708 0.0
C1724 C 0.44327 0.87847 0.95029 0.0
C1725 C 0.44267 0.88366 0.02749 0.0
C1726 C 0.45685 0.88229 0.01604 0.0
C1727 C 0.45659 0.88041 0.99105 0.0
C1728 C 0.47253 0.88361 0.02949 0.0
C1729 C 0.44166 0.88462 0.05439 0.0
C1730 C 0.48411 0.89951 0.04235 0.0
C1731 C 0.49955 0.90126 0.05388 0.0
C1732 C 0.50378 0.88719 0.05261 0.0
C1733 C 0.49206 0.87122 0.03981 0.0
C1734 C 0.47661 0.86949 0.02829 0.0
H1735 H 0.42752 0.88009 0.06047 0.0
H1736 H 0.44649 0.87608 0.06331 0.0
H1737 H 0.45048 0.89895 0.06028 0.0
H1738 H 0.48144 0.91074 0.04303 0.0
H1739 H 0.50829 0.91378 0.06347 0.0
H1740 H 0.49638 0.36357 0.46867 0.0
H1741 H 0.52077 0.38642 0.49389 0.0
H1742 H 0.53204 0.42768 0.44066 0.0
H1743 H 0.5074 0.40512 0.41571 0.0
H1744 H 0.55732 0.40925 0.48775 0.0
H1745 H 0.52233 0.44924 0.49957 0.0
H1746 H 0.51121 0.42678 0.4864 0.0
H1747 H 0.52619 0.44641 0.46868 0.0
C1748 C 0.50412 0.37749 0.46227 0.0
C1749 C 0.49978 0.3826 0.44035 0.0
C1750 C 0.51805 0.39052 0.4767 0.0
C1751 C 0.52791 0.40882 0.46938 0.0
C1752 C 0.52425 0.41374 0.44695 0.0
H1753 H 0.62821 0.49592 0.53045 0.0
H1754 H 0.60552 0.47036 0.50664 0.0
C1755 C 0.51021 0.4008 0.43266 0.0
C1756 C 0.54166 0.42289 0.48546 0.0
H1757 H 0.55307 0.4632 0.51291 0.0
C1758 C 0.55637 0.42101 0.49339 0.0
C1759 C 0.54019 0.43803 0.49315 0.0
C1760 C 0.52403 0.44017 0.48673 0.0
C1761 C 0.56989 0.4341 0.50842 0.0
C1762 C 0.56885 0.44967 0.51517 0.0
C1763 C 0.55395 0.45134 0.50756 0.0
C1764 C 0.58291 0.46443 0.53025 0.0
C1765 C 0.58492 0.43092 0.51725 0.0
C1766 C 0.5777 0.46984 0.55116 0.0
C1767 C 0.59054 0.48466 0.5645 0.0
C1768 C 0.60891 0.49431 0.55728 0.0
C1769 C 0.61419 0.48866 0.53659 0.0
C1770 C 0.60126 0.47396 0.52305 0.0
H1771 H 0.58074 0.41621 0.51671 0.0
H1772 H 0.59703 0.43834 0.5055 0.0
H1773 H 0.58897 0.43595 0.53586 0.0
H1774 H 0.56361 0.46271 0.55703 0.0
H1775 H 0.58604 0.4886 0.58043 0.0
H1776 H 0.09263 0.50665 0.91882 0.0
H1777 H 0.09557 0.53254 0.94163 0.0
H1778 H 0.12291 0.52089 -0.00172 0.0
H1779 H 0.12057 0.49524 0.97511 0.0
H1780 H 0.0808 0.5317 0.98354 0.0
H1781 H 0.15593 0.57502 0.99105 0.0
H1782 H 0.14521 0.55584 0.97086 0.0
H1783 H 0.14746 0.55231 0.00217 0.0
C1784 C 0.09944 0.50969 0.93603 0.0
C1785 C 0.10636 0.49889 0.94518 0.0
C1786 C 0.10112 0.52451 0.94904 0.0
C1787 C 0.10963 0.52879 0.97155 0.0
C1788 C 0.11669 0.51813 0.9807 0.0
H1789 H 0.08901 0.59315 0.07522 0.0
H1790 H 0.0908 0.56884 0.05408 0.0
C1791 C 0.11524 0.50341 0.96751 0.0
C1792 C 0.10998 0.5437 0.9859 0.0
H1793 H 0.13811 0.58358 0.01497 0.0
C1794 C 0.09335 0.54307 0.99034 0.0
C1795 C 0.12638 0.55863 0.99455 0.0
C1796 C 0.14478 0.56064 0.98923 0.0
C1797 C 0.09263 0.55693 0.00314 0.0
C1798 C 0.10894 0.57154 0.0125 0.0
C1799 C 0.12561 0.57225 0.00801 0.0
C1800 C 0.10898 0.58647 0.0264 0.0
C1801 C 0.07443 0.55599 0.00589 0.0
C1802 C 0.11929 0.60459 0.0185 0.0
C1803 C 0.11855 0.61858 0.03078 0.0
C1804 C 0.10738 0.61467 0.05112 0.0
C1805 C 0.09751 0.59658 0.0594 0.0
C1806 C 0.09846 0.58265 0.04728 0.0
H1807 H 0.06451 0.54707 0.99208 0.0
H1808 H 0.06861 0.55019 0.02371 0.0
H1809 H 0.07589 0.56975 0.00458 0.0
H1810 H 0.12759 0.60785 0.00249 0.0
H1811 H 0.12635 0.63238 0.02398 0.0
H1812 H 0.50046 0.13469 0.53453 0.0
H1813 H 0.52788 0.14136 0.51179 0.0
H1814 H 0.52318 0.09084 0.53617 0.0
H1815 H 0.49613 0.0842 0.55919 0.0
H1816 H 0.55866 0.12005 0.53794 0.0
H1817 H 0.52627 0.11517 0.44934 0.0
H1818 H 0.52647 0.13149 0.47012 0.0
H1819 H 0.51321 0.10756 0.47669 0.0
C1820 C 0.50532 0.12504 0.53514 0.0
C1821 C 0.49599 0.10883 0.54855 0.0
C1822 C 0.52094 0.12885 0.52206 0.0
C1823 C 0.52739 0.11647 0.52207 0.0
C1824 C 0.5184 0.10057 0.53592 0.0
H1825 H 0.58358 0.08438 0.42861 0.0
H1826 H 0.5629 0.09067 0.45162 0.0
C1827 C 0.50289 0.09678 0.54903 0.0
C1828 C 0.54311 0.1195 0.50715 0.0
H1829 H 0.55582 0.11933 0.44918 0.0
C1830 C 0.55822 0.12017 0.51852 0.0
C1831 C 0.54235 0.11954 0.48184 0.0
C1832 C 0.52618 0.11828 0.46867 0.0
C1833 C 0.57223 0.12004 0.50527 0.0
C1834 C 0.57123 0.11958 0.47997 0.0
C1835 C 0.55654 0.11976 0.46858 0.0
C1836 C 0.58404 0.11669 0.46512 0.0
C1837 C 0.58742 0.11932 0.51847 0.0
C1838 C 0.60279 0.1294 0.46481 0.0
C1839 C 0.61475 0.12579 0.45176 0.0
C1840 C 0.60809 0.10947 0.43866 0.0
C1841 C 0.58922 0.09706 0.43852 0.0
C1842 C 0.57734 0.10065 0.45162 0.0
H1843 H 0.58439 0.11644 0.53786 0.0
H1844 H 0.5899 0.10868 0.5107 0.0
H1845 H 0.60018 0.13266 0.51671 0.0
H1846 H 0.60818 0.14202 0.47481 0.0
H1847 H 0.62919 0.13571 0.4521 0.0
H1848 H 0.48936 0.39498 0.08263 0.0
H1849 H 0.51445 0.41969 0.06046 0.0
H1850 H 0.51234 0.38097 0.00848 0.0
H1851 H 0.48775 0.35613 0.03099 0.0
H1852 H 0.54674 0.40546 0.01897 0.0
H1853 H 0.5084 0.44125 -0.00043 0.0
H1854 H 0.51047 0.43847 0.03105 0.0
H1855 H 0.4977 0.4187 0.01241 0.0
C1856 C 0.49427 0.39172 0.06651 0.0
C1857 C 0.48645 0.3736 0.05847 0.0
C1858 C 0.50854 0.40588 0.05378 0.0
C1859 C 0.51498 0.40223 0.0325 0.0
C1860 C 0.50752 0.38411 0.02478 0.0
H1861 H 0.57543 0.4829 0.92371 0.0
H1862 H 0.55286 0.45694 0.94692 0.0
C1863 C 0.49345 0.36992 0.03768 0.0
C1864 C 0.52935 0.41727 0.0181 0.0
H1865 H 0.53986 0.45696 0.98953 0.0
C1866 C 0.54523 0.4167 0.01245 0.0
C1867 C 0.52721 0.43176 0.00925 0.0
C1868 C 0.50995 0.43252 0.01315 0.0
C1869 C 0.55909 0.4303 -0.00166 0.0
C1870 C 0.55726 0.44516 0.9903 0.0
C1871 C 0.54133 0.44565 0.99586 0.0
C1872 C 0.57143 0.4602 0.97567 0.0
C1873 C 0.5753 0.42831 0.9917 0.0
C1874 C 0.58942 0.47063 0.98403 0.0
C1875 C 0.60245 0.48532 0.97058 0.0
C1876 C 0.59759 0.4901 0.9488 0.0
C1877 C 0.57958 0.47961 0.94047 0.0
C1878 C 0.56666 0.46478 0.95372 0.0
H1879 H 0.57202 0.41388 0.99288 0.0
H1880 H 0.58009 0.43334 0.97326 0.0
H1881 H 0.58663 0.43641 0.00435 0.0
H1882 H 0.59331 0.46768 0.0012 0.0
H1883 H 0.61617 0.49327 0.97759 0.0
H1884 H 0.14006 0.63476 0.45509 0.0
H1885 H 0.14565 0.61395 0.4793 0.0
H1886 H 0.09602 0.56826 0.45248 0.0
H1887 H 0.09049 0.58878 0.4279 0.0
H1888 H 0.12492 0.59172 0.51493 0.0
H1889 H 0.13176 0.55036 0.44344 0.0
H1890 H 0.1326 0.57172 0.43741 0.0
H1891 H 0.11099 0.55098 0.44046 0.0
C1892 C 0.13042 0.62025 0.45414 0.0
C1893 C 0.11485 0.61344 0.43945 0.0
C1894 C 0.13366 0.6084 0.46798 0.0
C1895 C 0.12144 0.58953 0.46734 0.0
C1896 C 0.1059 0.58271 0.45274 0.0
H1897 H 0.09331 0.50695 0.57196 0.0
H1898 H 0.09773 0.53234 0.54681 0.0
C1899 C 0.1027 0.59451 0.43882 0.0
C1900 C 0.12417 0.577 0.48305 0.0
H1901 H 0.12454 0.53688 0.48284 0.0
C1902 C 0.12513 0.57987 0.5079 0.0
C1903 C 0.1248 0.56174 0.47387 0.0
C1904 C 0.12519 0.55862 0.44731 0.0
C1905 C 0.12568 0.56737 0.52386 0.0
C1906 C 0.12483 0.55137 0.51472 0.0
C1907 C 0.12491 0.54901 0.48985 0.0
C1908 C 0.12274 0.53643 0.5306 0.0
C1909 C 0.12699 0.57134 0.55036 0.0
C1910 C 0.13507 0.52994 0.5294 0.0
C1911 C 0.13247 0.51522 0.5436 0.0
C1912 C 0.11743 0.50668 0.5592 0.0
C1913 C 0.10513 0.51327 0.56033 0.0
C1914 C 0.1077 0.5279 0.54607 0.0
H1915 H 0.13358 0.58623 0.55383 0.0
H1916 H 0.11305 0.5648 0.5581 0.0
H1917 H 0.13484 0.56593 0.55978 0.0
H1918 H 0.14668 0.53625 0.5174 0.0
H1919 H 0.14219 0.51049 0.54225 0.0
H1920 H 0.62204 0.12632 0.02382 0.0
H1921 H 0.59866 0.13021 0.00326 0.0
H1922 H 0.55658 0.08143 0.03706 0.0
H1923 H 0.5797 0.07746 0.05782 0.0
H1924 H 0.57172 0.10556 0.97153 0.0
H1925 H 0.54094 0.11933 0.05076 0.0
H1926 H 0.56302 0.12094 0.05166 0.0
H1927 H 0.54255 0.09906 0.05358 0.0
C1928 C 0.60782 0.11648 0.02704 0.0
C1929 C 0.60277 0.1016 0.04255 0.0
C1930 C 0.59449 0.11873 0.01525 0.0
C1931 C 0.57593 0.10625 0.01893 0.0
C1932 C 0.57084 0.09141 0.03436 0.0
H1933 H 0.48111 0.0784 0.93389 0.0
H1934 H 0.50782 0.08051 0.95371 0.0
C1935 C 0.58411 0.08912 0.0461 0.0
C1936 C 0.56178 0.10823 0.00594 0.0
H1937 H 0.52375 0.11177 0.01441 0.0
C1938 C 0.56133 0.10711 0.98085 0.0
C1939 C 0.54841 0.11047 0.01817 0.0
C1940 C 0.5488 0.1127 0.04502 0.0
C1941 C 0.5474 0.10749 0.96769 0.0
C1942 C 0.53349 0.10877 0.98002 0.0
C1943 C 0.53434 0.11059 0.00504 0.0
C1944 C 0.51766 0.10779 0.96737 0.0
C1945 C 0.54769 0.1065 0.94072 0.0
C1946 C 0.51416 0.12229 0.96889 0.0
C1947 C 0.49885 0.12111 0.9577 0.0
C1948 C 0.48666 0.10531 0.9449 0.0
C1949 C 0.49023 0.0908 0.94347 0.0
C1950 C 0.50556 0.09201 0.95467 0.0
H1951 H 0.56157 0.11069 0.93389 0.0
H1952 H 0.53841 0.09223 0.93493 0.0
H1953 H 0.54295 0.11531 0.93238 0.0
H1954 H 0.52329 0.13453 0.97877 0.0
H1955 H 0.49652 0.13254 0.95923 0.0
H1956 H 0.4906 0.58814 0.57577 0.0
H1957 H 0.46566 0.56571 0.551 0.0
H1958 H 0.47427 0.60794 0.50064 0.0
H1959 H 0.49887 0.6306 0.52573 0.0
H1960 H 0.43843 0.58466 0.50773 0.0
H1961 H 0.4738 0.54572 0.48973 0.0
H1962 H 0.47046 0.54758 0.5211 0.0
H1963 H 0.48499 0.56778 0.50402 0.0
C1964 C 0.48715 0.59268 0.55947 0.0
C1965 C 0.49684 0.61112 0.55258 0.0
C1966 C 0.47295 0.57982 0.54528 0.0
C1967 C 0.46843 0.58508 0.52368 0.0
C1968 C 0.47764 0.60357 0.51717 0.0
H1969 H 0.40928 0.50883 0.40965 0.0
H1970 H 0.43184 0.53386 0.43411 0.0
C1971 C 0.49169 0.61649 0.53152 0.0
C1972 C 0.45436 0.57125 0.50763 0.0
H1973 H 0.44286 0.53195 0.47736 0.0
C1974 C 0.43941 0.57317 0.50098 0.0
C1975 C 0.45586 0.55646 0.49849 0.0
C1976 C 0.47223 0.55434 0.50348 0.0
C1977 C 0.42575 0.56051 0.48571 0.0
C1978 C 0.42685 0.54529 0.47743 0.0
C1979 C 0.44193 0.54354 0.48387 0.0
C1980 C 0.41272 0.53105 0.46185 0.0
C1981 C 0.41052 0.56383 0.47822 0.0
C1982 C 0.39441 0.5212 0.46921 0.0
C1983 C 0.38141 0.50702 0.45506 0.0
C1984 C 0.38657 0.50219 0.43355 0.0
C1985 C 0.40488 0.51215 0.42617 0.0
C1986 C 0.4178 0.52647 0.44013 0.0
H1987 H 0.4146 0.57847 0.47985 0.0
H1988 H 0.40627 0.55943 0.45944 0.0
H1989 H 0.39857 0.55593 0.49007 0.0
H1990 H 0.39025 0.52414 0.48619 0.0
H1991 H 0.36744 0.49948 0.46134 0.0
H1992 H 0.90494 0.40294 0.923 0.0
H1993 H 0.90446 0.42763 0.94491 0.0
H1994 H 0.85324 0.38907 0.97745 0.0
H1995 H 0.85369 0.36414 0.95588 0.0
H1996 H 0.8791 0.43927 0.94468 0.0
H1997 H 0.88551 0.41567 0.03515 0.0
H1998 H 0.88957 0.40666 0.008 0.0
H1999 H 0.86663 0.39906 0.01775 0.0
C2000 C 0.89353 0.39965 0.93477 0.0
C2001 C 0.87941 0.3815 0.93779 0.0
C2002 C 0.89328 0.41381 0.94726 0.0
C2003 C 0.87896 0.41014 0.96306 0.0
C2004 C 0.86461 0.39214 0.9657 0.0
H2005 H 0.86013 0.49417 0.02491 0.0
H2006 H 0.85709 0.46789 0.0027 0.0
C2007 C 0.86485 0.37792 0.95325 0.0
C2008 C 0.87921 0.42523 0.97678 0.0
H2009 H 0.88128 0.44123 0.0335 0.0
C2010 C 0.87953 0.4397 0.96411 0.0
C2011 C 0.88 0.42582 0.0021 0.0
C2012 C 0.88058 0.41107 0.01661 0.0
C2013 C 0.88063 0.4548 0.97608 0.0
C2014 C 0.8811 0.45524 0.00141 0.0
C2015 C 0.88076 0.44076 0.01408 0.0
C2016 C 0.88268 0.47094 0.01512 0.0
C2017 C 0.88181 0.47037 0.96151 0.0
C2018 C 0.89785 0.48106 0.02994 0.0
C2019 C 0.89958 0.496 0.0428 0.0
C2020 C 0.88613 0.50108 0.04115 0.0
C2021 C 0.87082 0.49074 0.02649 0.0
C2022 C 0.86908 0.47576 0.01367 0.0
H2023 H 0.88573 0.46992 0.94263 0.0
H2024 H 0.86829 0.46949 0.96141 0.0
H2025 H 0.89187 0.48372 0.96938 0.0
H2026 H 0.90846 0.47751 0.03135 0.0
H2027 H 0.91154 0.50361 0.05392 0.0
H2028 H 0.50218 0.91418 0.43379 0.0
H2029 H 0.47626 0.91214 0.45572 0.0
H2030 H 0.46416 0.86 0.48447 0.0
H2031 H 0.49017 0.86192 0.46279 0.0
H2032 H 0.43893 0.88515 0.45372 0.0
H2033 H 0.46854 0.89058 0.54431 0.0
H2034 H 0.48205 0.89627 0.51731 0.0
H2035 H 0.46752 0.87281 0.5256 0.0
C2036 C 0.49402 0.90224 0.44473 0.0
C2037 C 0.49837 0.88827 0.44664 0.0
C2038 C 0.4792 0.9011 0.45722 0.0
C2039 C 0.46848 0.88605 0.47194 0.0
C2040 C 0.47248 0.87189 0.47351 0.0
H2041 H 0.36399 0.86219 0.53445 0.0
H2042 H 0.38789 0.86005 0.51255 0.0
C2043 C 0.48731 0.87299 0.46102 0.0
C2044 C 0.45319 0.88532 0.48573 0.0
H2045 H 0.43853 0.88569 0.5426 0.0
C2046 C 0.43877 0.88519 0.47315 0.0
C2047 C 0.45318 0.88558 0.51106 0.0
C2048 C 0.4687 0.88647 0.52545 0.0
C2049 C 0.42431 0.88534 0.48526 0.0
C2050 C 0.4242 0.88539 0.5106 0.0
C2051 C 0.4386 0.88549 0.52317 0.0
C2052 C 0.40973 0.88628 0.52439 0.0
C2053 C 0.40955 0.88597 0.47087 0.0
C2054 C 0.41419 0.90153 0.53877 0.0
C2055 C 0.40061 0.90279 0.55138 0.0
C2056 C 0.38229 0.88875 0.54996 0.0
C2057 C 0.37793 0.87329 0.53588 0.0
C2058 C 0.39155 0.87207 0.52324 0.0
H2059 H 0.41365 0.88979 0.4519 0.0
H2060 H 0.39708 0.8723 0.4711 0.0
H2061 H 0.40604 0.89587 0.47876 0.0
H2062 H 0.42817 0.91261 0.53995 0.0
H2063 H 0.4045 0.91486 0.56208 0.0
loop_
_geom_bond_atom_site_label_1
_geom_bond_atom_site_label_2
_geom_bond_distance
_geom_bond_site_symmetry_2
_ccdc_geom_bond_type
Mg0 O1 2.028 . S
Mg0 O7 1.986 . S
Mg0 O9 2.114 . S
Mg0 O10 2.251 . S
Mg0 O13 2.010 . S
O1 Mg0 2.028 . S
O1 C4 1.250 . S
O2 Mg3 2.028 . S
O2 C4 1.248 . S
Mg3 O2 2.028 . S
Mg3 O8 2.032 . S
Mg3 O10 2.079 . S
C4 O1 1.250 . S
C4 O2 1.248 . S
C5 O6 1.264 . S
C5 O13 1.249 . S
O6 C5 1.264 . S
O7 Mg0 1.986 . S
O7 C11 1.246 . S
O8 Mg3 2.032 . S
O8 C11 1.259 . S
O9 Mg0 2.114 . S
O9 C12 1.252 . S
O10 Mg0 2.251 . S
O10 Mg3 2.079 . S
O10 C12 1.273 . S
C11 O7 1.246 . S
C11 O8 1.259 . S
C12 O9 1.252 . S
C12 O10 1.273 . S
O13 Mg0 2.010 . S
O13 C5 1.249 . S
Mg14 O15 2.028 . S
Mg14 O21 1.986 . S
Mg14 O23 2.114 . S
Mg14 O24 2.251 . S
Mg14 O27 2.010 . S
O15 Mg14 2.028 . S
O15 C18 1.250 . S
O16 Mg17 2.028 . S
O16 C18 1.248 . S
Mg17 O16 2.028 . S
Mg17 O22 2.032 . S
Mg17 O24 2.079 . S
C18 O15 1.250 . S
C18 O16 1.248 . S
C19 O20 1.264 . S
C19 O27 1.249 . S
O20 C19 1.264 . S
O21 Mg14 1.986 . S
O21 C25 1.246 . S
O22 Mg17 2.032 . S
O22 C25 1.259 . S
O23 Mg14 2.114 . S
O23 C26 1.252 . S
O24 Mg14 2.251 . S
O24 Mg17 2.079 . S
O24 C26 1.273 . S
C25 O21 1.246 . S
C25 O22 1.259 . S
C26 O23 1.252 . S
C26 O24 1.273 . S
O27 Mg14 2.010 . S
O27 C19 1.249 . S
Mg28 O29 2.028 . S
Mg28 O35 1.986 . S
Mg28 O37 2.114 . S
Mg28 O38 2.251 . S
Mg28 O41 2.010 . S
O29 Mg28 2.028 . S
O29 C32 1.250 . S
O30 Mg31 2.028 . S
O30 C32 1.248 . S
Mg31 O30 2.028 . S
Mg31 O36 2.032 . S
Mg31 O38 2.079 . S
C32 O29 1.250 . S
C32 O30 1.248 . S
C33 O34 1.264 . S
C33 O41 1.249 . S
O34 C33 1.264 . S
O35 Mg28 1.986 . S
O35 C39 1.246 . S
O36 Mg31 2.032 . S
O36 C39 1.259 . S
O37 Mg28 2.114 . S
O37 C40 1.252 . S
O38 Mg28 2.251 . S
O38 Mg31 2.079 . S
O38 C40 1.273 . S
C39 O35 1.246 . S
C39 O36 1.259 . S
C40 O37 1.252 . S
C40 O38 1.273 . S
O41 Mg28 2.010 . S
O41 C33 1.249 . S
Mg42 O43 2.028 . S
Mg42 O49 1.986 . S
Mg42 O51 2.114 . S
Mg42 O52 2.251 . S
Mg42 O55 2.010 . S
O43 Mg42 2.028 . S
O43 C46 1.250 . S
O44 Mg45 2.028 . S
O44 C46 1.248 . S
Mg45 O44 2.028 . S
Mg45 O50 2.032 . S
Mg45 O52 2.079 . S
C46 O43 1.250 . S
C46 O44 1.248 . S
C47 O48 1.264 . S
C47 O55 1.249 . S
O48 C47 1.264 . S
O49 Mg42 1.986 . S
O49 C53 1.246 . S
O50 Mg45 2.032 . S
O50 C53 1.259 . S
O51 Mg42 2.114 . S
O51 C54 1.252 . S
O52 Mg42 2.251 . S
O52 Mg45 2.079 . S
O52 C54 1.273 . S
C53 O49 1.246 . S
C53 O50 1.259 . S
C54 O51 1.252 . S
C54 O52 1.273 . S
O55 Mg42 2.010 . S
O55 C47 1.249 . S
Mg56 O57 2.028 . S
Mg56 O63 1.986 . S
Mg56 O65 2.114 . S
Mg56 O66 2.251 . S
Mg56 O69 2.010 . S
O57 Mg56 2.028 . S
O57 C60 1.250 . S
O58 Mg59 2.028 . S
O58 C60 1.248 . S
Mg59 O58 2.028 . S
Mg59 O64 2.032 . S
Mg59 O66 2.079 . S
C60 O57 1.250 . S
C60 O58 1.248 . S
C61 O62 1.264 . S
C61 O69 1.249 . S
O62 C61 1.264 . S
O63 Mg56 1.986 . S
O63 C67 1.246 . S
O64 Mg59 2.032 . S
O64 C67 1.259 . S
O65 Mg56 2.114 . S
O65 C68 1.252 . S
O66 Mg56 2.251 . S
O66 Mg59 2.079 . S
O66 C68 1.273 . S
C67 O63 1.246 . S
C67 O64 1.259 . S
C68 O65 1.252 . S
C68 O66 1.273 . S
O69 Mg56 2.010 . S
O69 C61 1.249 . S
Mg70 O71 2.028 . S
Mg70 O77 1.986 . S
Mg70 O79 2.114 . S
Mg70 O80 2.251 . S
Mg70 O83 2.010 . S
O71 Mg70 2.028 . S
O71 C74 1.250 . S
O72 Mg73 2.028 . S
O72 C74 1.248 . S
Mg73 O72 2.028 . S
Mg73 O78 2.032 . S
Mg73 O80 2.079 . S
C74 O71 1.250 . S
C74 O72 1.248 . S
C75 O76 1.264 . S
C75 O83 1.249 . S
O76 C75 1.264 . S
O77 Mg70 1.986 . S
O77 C81 1.246 . S
O78 Mg73 2.032 . S
O78 C81 1.259 . S
O79 Mg70 2.114 . S
O79 C82 1.252 . S
O80 Mg70 2.251 . S
O80 Mg73 2.079 . S
O80 C82 1.273 . S
C81 O77 1.246 . S
C81 O78 1.259 . S
C82 O79 1.252 . S
C82 O80 1.273 . S
O83 Mg70 2.010 . S
O83 C75 1.249 . S
Mg84 O85 2.028 . S
Mg84 O91 1.986 . S
Mg84 O93 2.114 . S
Mg84 O94 2.251 . S
Mg84 O97 2.010 . S
O85 Mg84 2.028 . S
O85 C88 1.250 . S
O86 Mg87 2.028 . S
O86 C88 1.248 . S
Mg87 O86 2.028 . S
Mg87 O92 2.032 . S
Mg87 O94 2.079 . S
C88 O85 1.250 . S
C88 O86 1.248 . S
C89 O90 1.264 . S
C89 O97 1.249 . S
O90 C89 1.264 . S
O91 Mg84 1.986 . S
O91 C95 1.246 . S
O92 Mg87 2.032 . S
O92 C95 1.259 . S
O93 Mg84 2.114 . S
O93 C96 1.252 . S
O94 Mg84 2.251 . S
O94 Mg87 2.079 . S
O94 C96 1.273 . S
C95 O91 1.246 . S
C95 O92 1.259 . S
C96 O93 1.252 . S
C96 O94 1.273 . S
O97 Mg84 2.010 . S
O97 C89 1.249 . S
Mg98 O99 2.028 . S
Mg98 O105 1.986 . S
Mg98 O107 2.114 . S
Mg98 O108 2.251 . S
Mg98 O111 2.010 . S
O99 Mg98 2.028 . S
O99 C102 1.250 . S
O100 Mg101 2.028 . S
O100 C102 1.248 . S
Mg101 O100 2.028 . S
Mg101 O106 2.032 . S
Mg101 O108 2.079 . S
C102 O99 1.250 . S
C102 O100 1.248 . S
C103 O104 1.264 . S
C103 O111 1.249 . S
O104 C103 1.264 . S
O105 Mg98 1.986 . S
O105 C109 1.246 . S
O106 Mg101 2.032 . S
O106 C109 1.259 . S
O107 Mg98 2.114 . S
O107 C110 1.252 . S
O108 Mg98 2.251 . S
O108 Mg101 2.079 . S
O108 C110 1.273 . S
C109 O105 1.246 . S
C109 O106 1.259 . S
C110 O107 1.252 . S
C110 O108 1.273 . S
O111 Mg98 2.010 . S
O111 C103 1.249 . S
Mg112 O113 2.028 . S
Mg112 O119 1.986 . S
Mg112 O121 2.114 . S
Mg112 O122 2.251 . S
Mg112 O125 2.010 . S
O113 Mg112 2.028 . S
O113 C116 1.250 . S
O114 Mg115 2.028 . S
O114 C116 1.248 . S
Mg115 O114 2.028 . S
Mg115 O120 2.032 . S
Mg115 O122 2.079 . S
C116 O113 1.250 . S
C116 O114 1.248 . S
C117 O118 1.264 . S
C117 O125 1.249 . S
O118 C117 1.264 . S
O119 Mg112 1.986 . S
O119 C123 1.246 . S
O120 Mg115 2.032 . S
O120 C123 1.259 . S
O121 Mg112 2.114 . S
O121 C124 1.252 . S
O122 Mg112 2.251 . S
O122 Mg115 2.079 . S
O122 C124 1.273 . S
C123 O119 1.246 . S
C123 O120 1.259 . S
C124 O121 1.252 . S
C124 O122 1.273 . S
O125 Mg112 2.010 . S
O125 C117 1.249 . S
Mg126 O127 2.028 . S
Mg126 O133 1.986 . S
Mg126 O135 2.114 . S
Mg126 O136 2.251 . S
Mg126 O139 2.010 . S
O127 Mg126 2.028 . S
O127 C130 1.250 . S
O128 Mg129 2.028 . S
O128 C130 1.248 . S
Mg129 O128 2.028 . S
Mg129 O134 2.032 . S
Mg129 O136 2.079 . S
C130 O127 1.250 . S
C130 O128 1.248 . S
C131 O132 1.264 . S
C131 O139 1.249 . S
O132 C131 1.264 . S
O133 Mg126 1.986 . S
O133 C137 1.246 . S
O134 Mg129 2.032 . S
O134 C137 1.259 . S
O135 Mg126 2.114 . S
O135 C138 1.252 . S
O136 Mg126 2.251 . S
O136 Mg129 2.079 . S
O136 C138 1.273 . S
C137 O133 1.246 . S
C137 O134 1.259 . S
C138 O135 1.252 . S
C138 O136 1.273 . S
O139 Mg126 2.010 . S
O139 C131 1.249 . S
Mg140 O141 2.028 . S
Mg140 O147 1.986 . S
Mg140 O149 2.114 . S
Mg140 O150 2.251 . S
Mg140 O153 2.010 . S
O141 Mg140 2.028 . S
O141 C144 1.250 . S
O142 Mg143 2.028 . S
O142 C144 1.248 . S
Mg143 O142 2.028 . S
Mg143 O148 2.032 . S
Mg143 O150 2.079 . S
C144 O141 1.250 . S
C144 O142 1.248 . S
C145 O146 1.264 . S
C145 O153 1.249 . S
O146 C145 1.264 . S
O147 Mg140 1.986 . S
O147 C151 1.246 . S
O148 Mg143 2.032 . S
O148 C151 1.259 . S
O149 Mg140 2.114 . S
O149 C152 1.252 . S
O150 Mg140 2.251 . S
O150 Mg143 2.079 . S
O150 C152 1.273 . S
C151 O147 1.246 . S
C151 O148 1.259 . S
C152 O149 1.252 . S
C152 O150 1.273 . S
O153 Mg140 2.010 . S
O153 C145 1.249 . S
Mg154 O155 2.028 . S
Mg154 O161 1.986 . S
Mg154 O163 2.114 . S
Mg154 O164 2.251 . S
Mg154 O167 2.010 . S
O155 Mg154 2.028 . S
O155 C158 1.250 . S
O156 Mg157 2.028 . S
O156 C158 1.248 . S
Mg157 O156 2.028 . S
Mg157 O162 2.032 . S
Mg157 O164 2.079 . S
C158 O155 1.250 . S
C158 O156 1.248 . S
C159 O160 1.264 . S
C159 O167 1.249 . S
O160 C159 1.264 . S
O161 Mg154 1.986 . S
O161 C165 1.246 . S
O162 Mg157 2.032 . S
O162 C165 1.259 . S
O163 Mg154 2.114 . S
O163 C166 1.252 . S
O164 Mg154 2.251 . S
O164 Mg157 2.079 . S
O164 C166 1.273 . S
C165 O161 1.246 . S
C165 O162 1.259 . S
C166 O163 1.252 . S
C166 O164 1.273 . S
O167 Mg154 2.010 . S
O167 C159 1.249 . S
Mg168 O169 2.028 . S
Mg168 O175 1.986 . S
Mg168 O177 2.114 . S
Mg168 O178 2.251 . S
Mg168 O181 2.010 . S
O169 Mg168 2.028 . S
O169 C172 1.250 . S
O170 Mg171 2.028 . S
O170 C172 1.248 . S
Mg171 O170 2.028 . S
Mg171 O176 2.032 . S
Mg171 O178 2.079 . S
C172 O169 1.250 . S
C172 O170 1.248 . S
C173 O174 1.264 . S
C173 O181 1.249 . S
O174 C173 1.264 . S
O175 Mg168 1.986 . S
O175 C179 1.246 . S
O176 Mg171 2.032 . S
O176 C179 1.259 . S
O177 Mg168 2.114 . S
O177 C180 1.252 . S
O178 Mg168 2.251 . S
O178 Mg171 2.079 . S
O178 C180 1.273 . S
C179 O175 1.246 . S
C179 O176 1.259 . S
C180 O177 1.252 . S
C180 O178 1.273 . S
O181 Mg168 2.010 . S
O181 C173 1.249 . S
Mg182 O183 2.028 . S
Mg182 O189 1.986 . S
Mg182 O191 2.114 . S
Mg182 O192 2.251 . S
Mg182 O195 2.010 . S
O183 Mg182 2.028 . S
O183 C186 1.250 . S
O184 Mg185 2.028 . S
O184 C186 1.248 . S
Mg185 O184 2.028 . S
Mg185 O190 2.032 . S
Mg185 O192 2.079 . S
C186 O183 1.250 . S
C186 O184 1.248 . S
C187 O188 1.264 . S
C187 O195 1.249 . S
O188 C187 1.264 . S
O189 Mg182 1.986 . S
O189 C193 1.246 . S
O190 Mg185 2.032 . S
O190 C193 1.259 . S
O191 Mg182 2.114 . S
O191 C194 1.252 . S
O192 Mg182 2.251 . S
O192 Mg185 2.079 . S
O192 C194 1.273 . S
C193 O189 1.246 . S
C193 O190 1.259 . S
C194 O191 1.252 . S
C194 O192 1.273 . S
O195 Mg182 2.010 . S
O195 C187 1.249 . S
Mg196 O197 2.028 . S
Mg196 O203 1.986 . S
Mg196 O205 2.114 . S
Mg196 O206 2.251 . S
Mg196 O209 2.010 . S
O197 Mg196 2.028 . S
O197 C200 1.250 . S
O198 Mg199 2.028 . S
O198 C200 1.248 . S
Mg199 O198 2.028 . S
Mg199 O204 2.032 . S
Mg199 O206 2.079 . S
C200 O197 1.250 . S
C200 O198 1.248 . S
C201 O202 1.264 . S
C201 O209 1.249 . S
O202 C201 1.264 . S
O203 Mg196 1.986 . S
O203 C207 1.246 . S
O204 Mg199 2.032 . S
O204 C207 1.259 . S
O205 Mg196 2.114 . S
O205 C208 1.252 . S
O206 Mg196 2.251 . S
O206 Mg199 2.079 . S
O206 C208 1.273 . S
C207 O203 1.246 . S
C207 O204 1.259 . S
C208 O205 1.252 . S
C208 O206 1.273 . S
O209 Mg196 2.010 . S
O209 C201 1.249 . S
Mg210 O211 2.028 . S
Mg210 O217 1.986 . S
Mg210 O219 2.114 . S
Mg210 O220 2.251 . S
Mg210 O223 2.010 . S
O211 Mg210 2.028 . S
O211 C214 1.250 . S
O212 Mg213 2.028 . S
O212 C214 1.248 . S
Mg213 O212 2.028 . S
Mg213 O218 2.032 . S
Mg213 O220 2.079 . S
C214 O211 1.250 . S
C214 O212 1.248 . S
C215 O216 1.264 . S
C215 O223 1.249 . S
O216 C215 1.264 . S
O217 Mg210 1.986 . S
O217 C221 1.246 . S
O218 Mg213 2.032 . S
O218 C221 1.259 . S
O219 Mg210 2.114 . S
O219 C222 1.252 . S
O220 Mg210 2.251 . S
O220 Mg213 2.079 . S
O220 C222 1.273 . S
C221 O217 1.246 . S
C221 O218 1.259 . S
C222 O219 1.252 . S
C222 O220 1.273 . S
O223 Mg210 2.010 . S
O223 C215 1.249 . S
Mg224 O225 2.028 . S
Mg224 O231 1.986 . S
Mg224 O233 2.114 . S
Mg224 O234 2.251 . S
Mg224 O237 2.010 . S
O225 Mg224 2.028 . S
O225 C228 1.250 . S
O226 Mg227 2.028 . S
O226 C228 1.248 . S
Mg227 O226 2.028 . S
Mg227 O232 2.032 . S
Mg227 O234 2.079 . S
C228 O225 1.250 . S
C228 O226 1.248 . S
C229 O230 1.264 . S
C229 O237 1.249 . S
O230 C229 1.264 . S
O231 Mg224 1.986 . S
O231 C235 1.246 . S
O232 Mg227 2.032 . S
O232 C235 1.259 . S
O233 Mg224 2.114 . S
O233 C236 1.252 . S
O234 Mg224 2.251 . S
O234 Mg227 2.079 . S
O234 C236 1.273 . S
C235 O231 1.246 . S
C235 O232 1.259 . S
C236 O233 1.252 . S
C236 O234 1.273 . S
O237 Mg224 2.010 . S
O237 C229 1.249 . S
Mg238 O239 2.028 . S
Mg238 O245 1.986 . S
Mg238 O247 2.114 . S
Mg238 O248 2.251 . S
Mg238 O251 2.010 . S
O239 Mg238 2.028 . S
O239 C242 1.250 . S
O240 Mg241 2.028 . S
O240 C242 1.248 . S
Mg241 O240 2.028 . S
Mg241 O246 2.032 . S
Mg241 O248 2.079 . S
C242 O239 1.250 . S
C242 O240 1.248 . S
C243 O244 1.264 . S
C243 O251 1.249 . S
O244 C243 1.264 . S
O245 Mg238 1.986 . S
O245 C249 1.246 . S
O246 Mg241 2.032 . S
O246 C249 1.259 . S
O247 Mg238 2.114 . S
O247 C250 1.252 . S
O248 Mg238 2.251 . S
O248 Mg241 2.079 . S
O248 C250 1.273 . S
C249 O245 1.246 . S
C249 O246 1.259 . S
C250 O247 1.252 . S
C250 O248 1.273 . S
O251 Mg238 2.010 . S
O251 C243 1.249 . S
Mg252 O253 2.028 . S
Mg252 O259 1.986 . S
Mg252 O261 2.114 . S
Mg252 O262 2.251 . S
Mg252 O265 2.010 . S
O253 Mg252 2.028 . S
O253 C256 1.250 . S
O254 Mg255 2.028 . S
O254 C256 1.248 . S
Mg255 O254 2.028 . S
Mg255 O260 2.032 . S
Mg255 O262 2.079 . S
C256 O253 1.250 . S
C256 O254 1.248 . S
C257 O258 1.264 . S
C257 O265 1.249 . S
O258 C257 1.264 . S
O259 Mg252 1.986 . S
O259 C263 1.246 . S
O260 Mg255 2.032 . S
O260 C263 1.259 . S
O261 Mg252 2.114 . S
O261 C264 1.252 . S
O262 Mg252 2.251 . S
O262 Mg255 2.079 . S
O262 C264 1.273 . S
C263 O259 1.246 . S
C263 O260 1.259 . S
C264 O261 1.252 . S
C264 O262 1.273 . S
O265 Mg252 2.010 . S
O265 C257 1.249 . S
Mg266 O267 2.028 . S
Mg266 O273 1.986 . S
Mg266 O275 2.114 . S
Mg266 O276 2.251 . S
Mg266 O279 2.010 . S
O267 Mg266 2.028 . S
O267 C270 1.250 . S
O268 Mg269 2.028 . S
O268 C270 1.248 . S
Mg269 O268 2.028 . S
Mg269 O274 2.032 . S
Mg269 O276 2.079 . S
C270 O267 1.250 . S
C270 O268 1.248 . S
C271 O272 1.264 . S
C271 O279 1.249 . S
O272 C271 1.264 . S
O273 Mg266 1.986 . S
O273 C277 1.246 . S
O274 Mg269 2.032 . S
O274 C277 1.259 . S
O275 Mg266 2.114 . S
O275 C278 1.252 . S
O276 Mg266 2.251 . S
O276 Mg269 2.079 . S
O276 C278 1.273 . S
C277 O273 1.246 . S
C277 O274 1.259 . S
C278 O275 1.252 . S
C278 O276 1.273 . S
O279 Mg266 2.010 . S
O279 C271 1.249 . S
Mg280 O281 2.028 . S
Mg280 O287 1.986 . S
Mg280 O289 2.114 . S
Mg280 O290 2.251 . S
Mg280 O293 2.010 . S
O281 Mg280 2.028 . S
O281 C284 1.250 . S
O282 Mg283 2.028 . S
O282 C284 1.248 . S
Mg283 O282 2.028 . S
Mg283 O288 2.032 . S
Mg283 O290 2.079 . S
C284 O281 1.250 . S
C284 O282 1.248 . S
C285 O286 1.264 . S
C285 O293 1.249 . S
O286 C285 1.264 . S
O287 Mg280 1.986 . S
O287 C291 1.246 . S
O288 Mg283 2.032 . S
O288 C291 1.259 . S
O289 Mg280 2.114 . S
O289 C292 1.252 . S
O290 Mg280 2.251 . S
O290 Mg283 2.079 . S
O290 C292 1.273 . S
C291 O287 1.246 . S
C291 O288 1.259 . S
C292 O289 1.252 . S
C292 O290 1.273 . S
O293 Mg280 2.010 . S
O293 C285 1.249 . S
Mg294 O295 2.028 . S
Mg294 O301 1.986 . S
Mg294 O303 2.114 . S
Mg294 O304 2.251 . S
Mg294 O307 2.010 . S
O295 Mg294 2.028 . S
O295 C298 1.250 . S
O296 Mg297 2.028 . S
O296 C298 1.248 . S
Mg297 O296 2.028 . S
Mg297 O302 2.032 . S
Mg297 O304 2.079 . S
C298 O295 1.250 . S
C298 O296 1.248 . S
C299 O300 1.264 . S
C299 O307 1.249 . S
O300 C299 1.264 . S
O301 Mg294 1.986 . S
O301 C305 1.246 . S
O302 Mg297 2.032 . S
O302 C305 1.259 . S
O303 Mg294 2.114 . S
O303 C306 1.252 . S
O304 Mg294 2.251 . S
O304 Mg297 2.079 . S
O304 C306 1.273 . S
C305 O301 1.246 . S
C305 O302 1.259 . S
C306 O303 1.252 . S
C306 O304 1.273 . S
O307 Mg294 2.010 . S
O307 C299 1.249 . S
Mg308 O309 2.028 . S
Mg308 O315 1.986 . S
Mg308 O317 2.114 . S
Mg308 O318 2.251 . S
Mg308 O321 2.010 . S
O309 Mg308 2.028 . S
O309 C312 1.250 . S
O310 Mg311 2.028 . S
O310 C312 1.248 . S
Mg311 O310 2.028 . S
Mg311 O316 2.032 . S
Mg311 O318 2.079 . S
C312 O309 1.250 . S
C312 O310 1.248 . S
C313 O314 1.264 . S
C313 O321 1.249 . S
O314 C313 1.264 . S
O315 Mg308 1.986 . S
O315 C319 1.246 . S
O316 Mg311 2.032 . S
O316 C319 1.259 . S
O317 Mg308 2.114 . S
O317 C320 1.252 . S
O318 Mg308 2.251 . S
O318 Mg311 2.079 . S
O318 C320 1.273 . S
C319 O315 1.246 . S
C319 O316 1.259 . S
C320 O317 1.252 . S
C320 O318 1.273 . S
O321 Mg308 2.010 . S
O321 C313 1.249 . S
Mg322 O323 2.028 . S
Mg322 O329 1.986 . S
Mg322 O331 2.114 . S
Mg322 O332 2.251 . S
Mg322 O335 2.010 . S
O323 Mg322 2.028 . S
O323 C326 1.250 . S
O324 Mg325 2.028 . S
O324 C326 1.248 . S
Mg325 O324 2.028 . S
Mg325 O330 2.032 . S
Mg325 O332 2.079 . S
C326 O323 1.250 . S
C326 O324 1.248 . S
C327 O328 1.264 . S
C327 O335 1.249 . S
O328 C327 1.264 . S
O329 Mg322 1.986 . S
O329 C333 1.246 . S
O330 Mg325 2.032 . S
O330 C333 1.259 . S
O331 Mg322 2.114 . S
O331 C334 1.252 . S
O332 Mg322 2.251 . S
O332 Mg325 2.079 . S
O332 C334 1.273 . S
C333 O329 1.246 . S
C333 O330 1.259 . S
C334 O331 1.252 . S
C334 O332 1.273 . S
O335 Mg322 2.010 . S
O335 C327 1.249 . S
H336 C344 0.929 . S
H337 C346 0.930 . S
H338 C348 0.930 . S
H339 C351 0.929 . S
H340 C354 0.930 . S
H341 C356 0.960 . S
H342 C356 0.960 . S
H343 C356 0.960 . S
C344 H336 0.929 . S
C344 C345 1.377 . S
C344 C346 1.384 . S
C345 C344 1.377 . S
C345 C351 1.390 . S
C346 H337 0.930 . S
C346 C344 1.384 . S
C346 C347 1.372 . S
C347 C346 1.372 . S
C347 C348 1.400 . S
C347 C352 1.490 . S
C348 H338 0.930 . S
C348 C347 1.400 . S
C348 C351 1.386 . S
H349 C365 0.930 . S
H350 C366 0.931 . S
C351 H339 0.929 . S
C351 C345 1.390 . S
C351 C348 1.386 . S
C352 C347 1.490 . S
C352 C354 1.395 . S
C352 C355 1.403 . S
H353 C359 0.930 . S
C354 H340 0.930 . S
C354 C352 1.395 . S
C354 C357 1.403 . S
C355 C352 1.403 . S
C355 C356 1.524 . S
C355 C359 1.400 . S
C356 H341 0.960 . S
C356 H342 0.960 . S
C356 H343 0.960 . S
C356 C355 1.524 . S
C357 C354 1.403 . S
C357 C358 1.392 . S
C357 C361 1.495 . S
C358 C357 1.392 . S
C358 C359 1.385 . S
C358 C360 1.478 . S
C359 H353 0.930 . S
C359 C355 1.400 . S
C359 C358 1.385 . S
C360 C358 1.478 . S
C360 C362 1.381 . S
C360 C366 1.383 . S
C361 C357 1.495 . S
C361 H367 0.959 . S
C361 H368 0.961 . S
C361 H369 0.960 . S
C362 C360 1.381 . S
C362 C363 1.394 . S
C362 H370 0.930 . S
C363 C362 1.394 . S
C363 C364 1.383 . S
C363 H371 0.929 . S
C364 C363 1.383 . S
C364 C365 1.377 . S
C365 H349 0.930 . S
C365 C364 1.377 . S
C365 C366 1.379 . S
C366 H350 0.931 . S
C366 C360 1.383 . S
C366 C365 1.379 . S
H367 C361 0.959 . S
H368 C361 0.961 . S
H369 C361 0.960 . S
H370 C362 0.930 . S
H371 C363 0.929 . S
H372 C380 0.929 . S
H373 C382 0.930 . S
H374 C384 0.930 . S
H375 C387 0.929 . S
H376 C390 0.930 . S
H377 C392 0.960 . S
H378 C392 0.960 . S
H379 C392 0.960 . S
C380 H372 0.929 . S
C380 C381 1.377 . S
C380 C382 1.384 . S
C381 C380 1.377 . S
C381 C387 1.390 . S
C382 H373 0.930 . S
C382 C380 1.384 . S
C382 C383 1.372 . S
C383 C382 1.372 . S
C383 C384 1.400 . S
C383 C388 1.490 . S
C384 H374 0.930 . S
C384 C383 1.400 . S
C384 C387 1.386 . S
H385 C401 0.930 . S
H386 C402 0.931 . S
C387 H375 0.929 . S
C387 C381 1.390 . S
C387 C384 1.386 . S
C388 C383 1.490 . S
C388 C390 1.395 . S
C388 C391 1.403 . S
H389 C395 0.930 . S
C390 H376 0.930 . S
C390 C388 1.395 . S
C390 C393 1.403 . S
C391 C388 1.403 . S
C391 C392 1.524 . S
C391 C395 1.400 . S
C392 H377 0.960 . S
C392 H378 0.960 . S
C392 H379 0.960 . S
C392 C391 1.524 . S
C393 C390 1.403 . S
C393 C394 1.392 . S
C393 C397 1.495 . S
C394 C393 1.392 . S
C394 C395 1.385 . S
C394 C396 1.478 . S
C395 H389 0.930 . S
C395 C391 1.400 . S
C395 C394 1.385 . S
C396 C394 1.478 . S
C396 C398 1.381 . S
C396 C402 1.383 . S
C397 C393 1.495 . S
C397 H403 0.959 . S
C397 H404 0.961 . S
C397 H405 0.960 . S
C398 C396 1.381 . S
C398 C399 1.394 . S
C398 H406 0.930 . S
C399 C398 1.394 . S
C399 C400 1.383 . S
C399 H407 0.929 . S
C400 C399 1.383 . S
C400 C401 1.377 . S
C401 H385 0.930 . S
C401 C400 1.377 . S
C401 C402 1.379 . S
C402 H386 0.931 . S
C402 C396 1.383 . S
C402 C401 1.379 . S
H403 C397 0.959 . S
H404 C397 0.961 . S
H405 C397 0.960 . S
H406 C398 0.930 . S
H407 C399 0.929 . S
H408 C416 0.929 . S
H409 C418 0.930 . S
H410 C420 0.930 . S
H411 C423 0.929 . S
H412 C426 0.930 . S
H413 C428 0.960 . S
H414 C428 0.960 . S
H415 C428 0.960 . S
C416 H408 0.929 . S
C416 C417 1.377 . S
C416 C418 1.384 . S
C417 C416 1.377 . S
C417 C423 1.390 . S
C418 H409 0.930 . S
C418 C416 1.384 . S
C418 C419 1.372 . S
C419 C418 1.372 . S
C419 C420 1.400 . S
C419 C424 1.490 . S
C420 H410 0.930 . S
C420 C419 1.400 . S
C420 C423 1.386 . S
H421 C437 0.930 . S
H422 C438 0.931 . S
C423 H411 0.929 . S
C423 C417 1.390 . S
C423 C420 1.386 . S
C424 C419 1.490 . S
C424 C426 1.395 . S
C424 C427 1.403 . S
H425 C431 0.930 . S
C426 H412 0.930 . S
C426 C424 1.395 . S
C426 C429 1.403 . S
C427 C424 1.403 . S
C427 C428 1.524 . S
C427 C431 1.400 . S
C428 H413 0.960 . S
C428 H414 0.960 . S
C428 H415 0.960 . S
C428 C427 1.524 . S
C429 C426 1.403 . S
C429 C430 1.392 . S
C429 C433 1.495 . S
C430 C429 1.392 . S
C430 C431 1.385 . S
C430 C432 1.478 . S
C431 H425 0.930 . S
C431 C427 1.400 . S
C431 C430 1.385 . S
C432 C430 1.478 . S
C432 C434 1.381 . S
C432 C438 1.383 . S
C433 C429 1.495 . S
C433 H439 0.959 . S
C433 H440 0.961 . S
C433 H441 0.960 . S
C434 C432 1.381 . S
C434 C435 1.394 . S
C434 H442 0.930 . S
C435 C434 1.394 . S
C435 C436 1.383 . S
C435 H443 0.929 . S
C436 C435 1.383 . S
C436 C437 1.377 . S
C437 H421 0.930 . S
C437 C436 1.377 . S
C437 C438 1.379 . S
C438 H422 0.931 . S
C438 C432 1.383 . S
C438 C437 1.379 . S
H439 C433 0.959 . S
H440 C433 0.961 . S
H441 C433 0.960 . S
H442 C434 0.930 . S
H443 C435 0.929 . S
H444 C452 0.929 . S
H445 C454 0.930 . S
H446 C456 0.930 . S
H447 C459 0.929 . S
H448 C462 0.930 . S
H449 C464 0.960 . S
H450 C464 0.960 . S
H451 C464 0.960 . S
C452 H444 0.929 . S
C452 C453 1.377 . S
C452 C454 1.384 . S
C453 C452 1.377 . S
C453 C459 1.390 . S
C454 H445 0.930 . S
C454 C452 1.384 . S
C454 C455 1.372 . S
C455 C454 1.372 . S
C455 C456 1.400 . S
C455 C460 1.490 . S
C456 H446 0.930 . S
C456 C455 1.400 . S
C456 C459 1.386 . S
H457 C473 0.930 . S
H458 C474 0.931 . S
C459 H447 0.929 . S
C459 C453 1.390 . S
C459 C456 1.386 . S
C460 C455 1.490 . S
C460 C462 1.395 . S
C460 C463 1.403 . S
H461 C467 0.930 . S
C462 H448 0.930 . S
C462 C460 1.395 . S
C462 C465 1.403 . S
C463 C460 1.403 . S
C463 C464 1.524 . S
C463 C467 1.400 . S
C464 H449 0.960 . S
C464 H450 0.960 . S
C464 H451 0.960 . S
C464 C463 1.524 . S
C465 C462 1.403 . S
C465 C466 1.392 . S
C465 C469 1.495 . S
C466 C465 1.392 . S
C466 C467 1.385 . S
C466 C468 1.478 . S
C467 H461 0.930 . S
C467 C463 1.400 . S
C467 C466 1.385 . S
C468 C466 1.478 . S
C468 C470 1.381 . S
C468 C474 1.383 . S
C469 C465 1.495 . S
C469 H475 0.959 . S
C469 H476 0.961 . S
C469 H477 0.960 . S
C470 C468 1.381 . S
C470 C471 1.394 . S
C470 H478 0.930 . S
C471 C470 1.394 . S
C471 C472 1.383 . S
C471 H479 0.929 . S
C472 C471 1.383 . S
C472 C473 1.377 . S
C473 H457 0.930 . S
C473 C472 1.377 . S
C473 C474 1.379 . S
C474 H458 0.931 . S
C474 C468 1.383 . S
C474 C473 1.379 . S
H475 C469 0.959 . S
H476 C469 0.961 . S
H477 C469 0.960 . S
H478 C470 0.930 . S
H479 C471 0.929 . S
H480 C488 0.929 . S
H481 C490 0.930 . S
H482 C492 0.930 . S
H483 C495 0.929 . S
H484 C498 0.930 . S
H485 C500 0.960 . S
H486 C500 0.960 . S
H487 C500 0.960 . S
C488 H480 0.929 . S
C488 C489 1.377 . S
C488 C490 1.384 . S
C489 C488 1.377 . S
C489 C495 1.390 . S
C490 H481 0.930 . S
C490 C488 1.384 . S
C490 C491 1.372 . S
C491 C490 1.372 . S
C491 C492 1.400 . S
C491 C496 1.490 . S
C492 H482 0.930 . S
C492 C491 1.400 . S
C492 C495 1.386 . S
H493 C509 0.930 . S
H494 C510 0.931 . S
C495 H483 0.929 . S
C495 C489 1.390 . S
C495 C492 1.386 . S
C496 C491 1.490 . S
C496 C498 1.395 . S
C496 C499 1.403 . S
H497 C503 0.930 . S
C498 H484 0.930 . S
C498 C496 1.395 . S
C498 C501 1.403 . S
C499 C496 1.403 . S
C499 C500 1.524 . S
C499 C503 1.400 . S
C500 H485 0.960 . S
C500 H486 0.960 . S
C500 H487 0.960 . S
C500 C499 1.524 . S
C501 C498 1.403 . S
C501 C502 1.392 . S
C501 C505 1.495 . S
C502 C501 1.392 . S
C502 C503 1.385 . S
C502 C504 1.478 . S
C503 H497 0.930 . S
C503 C499 1.400 . S
C503 C502 1.385 . S
C504 C502 1.478 . S
C504 C506 1.381 . S
C504 C510 1.383 . S
C505 C501 1.495 . S
C505 H511 0.959 . S
C505 H512 0.961 . S
C505 H513 0.960 . S
C506 C504 1.381 . S
C506 C507 1.394 . S
C506 H514 0.930 . S
C507 C506 1.394 . S
C507 C508 1.383 . S
C507 H515 0.929 . S
C508 C507 1.383 . S
C508 C509 1.377 . S
C509 H493 0.930 . S
C509 C508 1.377 . S
C509 C510 1.379 . S
C510 H494 0.931 . S
C510 C504 1.383 . S
C510 C509 1.379 . S
H511 C505 0.959 . S
H512 C505 0.961 . S
H513 C505 0.960 . S
H514 C506 0.930 . S
H515 C507 0.929 . S
H516 C524 0.929 . S
H517 C526 0.930 . S
H518 C528 0.930 . S
H519 C531 0.929 . S
H520 C534 0.930 . S
H521 C536 0.960 . S
H522 C536 0.960 . S
H523 C536 0.960 . S
C524 H516 0.929 . S
C524 C525 1.377 . S
C524 C526 1.384 . S
C525 C524 1.377 . S
C525 C531 1.390 . S
C526 H517 0.930 . S
C526 C524 1.384 . S
C526 C527 1.372 . S
C527 C526 1.372 . S
C527 C528 1.400 . S
C527 C532 1.490 . S
C528 H518 0.930 . S
C528 C527 1.400 . S
C528 C531 1.386 . S
H529 C545 0.930 . S
H530 C546 0.931 . S
C531 H519 0.929 . S
C531 C525 1.390 . S
C531 C528 1.386 . S
C532 C527 1.490 . S
C532 C534 1.395 . S
C532 C535 1.403 . S
H533 C539 0.930 . S
C534 H520 0.930 . S
C534 C532 1.395 . S
C534 C537 1.403 . S
C535 C532 1.403 . S
C535 C536 1.524 . S
C535 C539 1.400 . S
C536 H521 0.960 . S
C536 H522 0.960 . S
C536 H523 0.960 . S
C536 C535 1.524 . S
C537 C534 1.403 . S
C537 C538 1.392 . S
C537 C541 1.495 . S
C538 C537 1.392 . S
C538 C539 1.385 . S
C538 C540 1.478 . S
C539 H533 0.930 . S
C539 C535 1.400 . S
C539 C538 1.385 . S
C540 C538 1.478 . S
C540 C542 1.381 . S
C540 C546 1.383 . S
C541 C537 1.495 . S
C541 H547 0.959 . S
C541 H548 0.961 . S
C541 H549 0.960 . S
C542 C540 1.381 . S
C542 C543 1.394 . S
C542 H550 0.930 . S
C543 C542 1.394 . S
C543 C544 1.383 . S
C543 H551 0.929 . S
C544 C543 1.383 . S
C544 C545 1.377 . S
C545 H529 0.930 . S
C545 C544 1.377 . S
C545 C546 1.379 . S
C546 H530 0.931 . S
C546 C540 1.383 . S
C546 C545 1.379 . S
H547 C541 0.959 . S
H548 C541 0.961 . S
H549 C541 0.960 . S
H550 C542 0.930 . S
H551 C543 0.929 . S
H552 C560 0.929 . S
H553 C562 0.930 . S
H554 C564 0.930 . S
H555 C567 0.929 . S
H556 C570 0.930 . S
H557 C572 0.960 . S
H558 C572 0.960 . S
H559 C572 0.960 . S
C560 H552 0.929 . S
C560 C561 1.377 . S
C560 C562 1.384 . S
C561 C560 1.377 . S
C561 C567 1.390 . S
C562 H553 0.930 . S
C562 C560 1.384 . S
C562 C563 1.372 . S
C563 C562 1.372 . S
C563 C564 1.400 . S
C563 C568 1.490 . S
C564 H554 0.930 . S
C564 C563 1.400 . S
C564 C567 1.386 . S
H565 C581 0.930 . S
H566 C582 0.931 . S
C567 H555 0.929 . S
C567 C561 1.390 . S
C567 C564 1.386 . S
C568 C563 1.490 . S
C568 C570 1.395 . S
C568 C571 1.403 . S
H569 C575 0.930 . S
C570 H556 0.930 . S
C570 C568 1.395 . S
C570 C573 1.403 . S
C571 C568 1.403 . S
C571 C572 1.524 . S
C571 C575 1.400 . S
C572 H557 0.960 . S
C572 H558 0.960 . S
C572 H559 0.960 . S
C572 C571 1.524 . S
C573 C570 1.403 . S
C573 C574 1.392 . S
C573 C577 1.495 . S
C574 C573 1.392 . S
C574 C575 1.385 . S
C574 C576 1.478 . S
C575 H569 0.930 . S
C575 C571 1.400 . S
C575 C574 1.385 . S
C576 C574 1.478 . S
C576 C578 1.381 . S
C576 C582 1.383 . S
C577 C573 1.495 . S
C577 H583 0.959 . S
C577 H584 0.961 . S
C577 H585 0.960 . S
C578 C576 1.381 . S
C578 C579 1.394 . S
C578 H586 0.930 . S
C579 C578 1.394 . S
C579 C580 1.383 . S
C579 H587 0.929 . S
C580 C579 1.383 . S
C580 C581 1.377 . S
C581 H565 0.930 . S
C581 C580 1.377 . S
C581 C582 1.379 . S
C582 H566 0.931 . S
C582 C576 1.383 . S
C582 C581 1.379 . S
H583 C577 0.959 . S
H584 C577 0.961 . S
H585 C577 0.960 . S
H586 C578 0.930 . S
H587 C579 0.929 . S
H588 C596 0.929 . S
H589 C598 0.930 . S
H590 C600 0.930 . S
H591 C603 0.929 . S
H592 C606 0.930 . S
H593 C608 0.960 . S
H594 C608 0.960 . S
H595 C608 0.960 . S
C596 H588 0.929 . S
C596 C597 1.377 . S
C596 C598 1.384 . S
C597 C596 1.377 . S
C597 C603 1.390 . S
C598 H589 0.930 . S
C598 C596 1.384 . S
C598 C599 1.372 . S
C599 C598 1.372 . S
C599 C600 1.400 . S
C599 C604 1.490 . S
C600 H590 0.930 . S
C600 C599 1.400 . S
C600 C603 1.386 . S
H601 C617 0.930 . S
H602 C618 0.931 . S
C603 H591 0.929 . S
C603 C597 1.390 . S
C603 C600 1.386 . S
C604 C599 1.490 . S
C604 C606 1.395 . S
C604 C607 1.403 . S
H605 C611 0.930 . S
C606 H592 0.930 . S
C606 C604 1.395 . S
C606 C609 1.403 . S
C607 C604 1.403 . S
C607 C608 1.524 . S
C607 C611 1.400 . S
C608 H593 0.960 . S
C608 H594 0.960 . S
C608 H595 0.960 . S
C608 C607 1.524 . S
C609 C606 1.403 . S
C609 C610 1.392 . S
C609 C613 1.495 . S
C610 C609 1.392 . S
C610 C611 1.385 . S
C610 C612 1.478 . S
C611 H605 0.930 . S
C611 C607 1.400 . S
C611 C610 1.385 . S
C612 C610 1.478 . S
C612 C614 1.381 . S
C612 C618 1.383 . S
C613 C609 1.495 . S
C613 H619 0.959 . S
C613 H620 0.961 . S
C613 H621 0.960 . S
C614 C612 1.381 . S
C614 C615 1.394 . S
C614 H622 0.930 . S
C615 C614 1.394 . S
C615 C616 1.383 . S
C615 H623 0.929 . S
C616 C615 1.383 . S
C616 C617 1.377 . S
C617 H601 0.930 . S
C617 C616 1.377 . S
C617 C618 1.379 . S
C618 H602 0.931 . S
C618 C612 1.383 . S
C618 C617 1.379 . S
H619 C613 0.959 . S
H620 C613 0.961 . S
H621 C613 0.960 . S
H622 C614 0.930 . S
H623 C615 0.929 . S
H624 C632 0.929 . S
H625 C634 0.930 . S
H626 C636 0.930 . S
H627 C639 0.929 . S
H628 C642 0.930 . S
H629 C644 0.960 . S
H630 C644 0.960 . S
H631 C644 0.960 . S
C632 H624 0.929 . S
C632 C633 1.377 . S
C632 C634 1.384 . S
C633 C632 1.377 . S
C633 C639 1.390 . S
C634 H625 0.930 . S
C634 C632 1.384 . S
C634 C635 1.372 . S
C635 C634 1.372 . S
C635 C636 1.400 . S
C635 C640 1.490 . S
C636 H626 0.930 . S
C636 C635 1.400 . S
C636 C639 1.386 . S
H637 C653 0.930 . S
H638 C654 0.931 . S
C639 H627 0.929 . S
C639 C633 1.390 . S
C639 C636 1.386 . S
C640 C635 1.490 . S
C640 C642 1.395 . S
C640 C643 1.403 . S
H641 C647 0.930 . S
C642 H628 0.930 . S
C642 C640 1.395 . S
C642 C645 1.403 . S
C643 C640 1.403 . S
C643 C644 1.524 . S
C643 C647 1.400 . S
C644 H629 0.960 . S
C644 H630 0.960 . S
C644 H631 0.960 . S
C644 C643 1.524 . S
C645 C642 1.403 . S
C645 C646 1.392 . S
C645 C649 1.495 . S
C646 C645 1.392 . S
C646 C647 1.385 . S
C646 C648 1.478 . S
C647 H641 0.930 . S
C647 C643 1.400 . S
C647 C646 1.385 . S
C648 C646 1.478 . S
C648 C650 1.381 . S
C648 C654 1.383 . S
C649 C645 1.495 . S
C649 H655 0.959 . S
C649 H656 0.961 . S
C649 H657 0.960 . S
C650 C648 1.381 . S
C650 C651 1.394 . S
C650 H658 0.930 . S
C651 C650 1.394 . S
C651 C652 1.383 . S
C651 H659 0.929 . S
C652 C651 1.383 . S
C652 C653 1.377 . S
C653 H637 0.930 . S
C653 C652 1.377 . S
C653 C654 1.379 . S
C654 H638 0.931 . S
C654 C648 1.383 . S
C654 C653 1.379 . S
H655 C649 0.959 . S
H656 C649 0.961 . S
H657 C649 0.960 . S
H658 C650 0.930 . S
H659 C651 0.929 . S
H660 C668 0.929 . S
H661 C670 0.930 . S
H662 C672 0.930 . S
H663 C675 0.929 . S
H664 C678 0.930 . S
H665 C680 0.960 . S
H666 C680 0.960 . S
H667 C680 0.960 . S
C668 H660 0.929 . S
C668 C669 1.377 . S
C668 C670 1.384 . S
C669 C668 1.377 . S
C669 C675 1.390 . S
C670 H661 0.930 . S
C670 C668 1.384 . S
C670 C671 1.372 . S
C671 C670 1.372 . S
C671 C672 1.400 . S
C671 C676 1.490 . S
C672 H662 0.930 . S
C672 C671 1.400 . S
C672 C675 1.386 . S
H673 C689 0.930 . S
H674 C690 0.931 . S
C675 H663 0.929 . S
C675 C669 1.390 . S
C675 C672 1.386 . S
C676 C671 1.490 . S
C676 C678 1.395 . S
C676 C679 1.403 . S
H677 C683 0.930 . S
C678 H664 0.930 . S
C678 C676 1.395 . S
C678 C681 1.403 . S
C679 C676 1.403 . S
C679 C680 1.524 . S
C679 C683 1.400 . S
C680 H665 0.960 . S
C680 H666 0.960 . S
C680 H667 0.960 . S
C680 C679 1.524 . S
C681 C678 1.403 . S
C681 C682 1.392 . S
C681 C685 1.495 . S
C682 C681 1.392 . S
C682 C683 1.385 . S
C682 C684 1.478 . S
C683 H677 0.930 . S
C683 C679 1.400 . S
C683 C682 1.385 . S
C684 C682 1.478 . S
C684 C686 1.381 . S
C684 C690 1.383 . S
C685 C681 1.495 . S
C685 H691 0.959 . S
C685 H692 0.961 . S
C685 H693 0.960 . S
C686 C684 1.381 . S
C686 C687 1.394 . S
C686 H694 0.930 . S
C687 C686 1.394 . S
C687 C688 1.383 . S
C687 H695 0.929 . S
C688 C687 1.383 . S
C688 C689 1.377 . S
C689 H673 0.930 . S
C689 C688 1.377 . S
C689 C690 1.379 . S
C690 H674 0.931 . S
C690 C684 1.383 . S
C690 C689 1.379 . S
H691 C685 0.959 . S
H692 C685 0.961 . S
H693 C685 0.960 . S
H694 C686 0.930 . S
H695 C687 0.929 . S
H696 C704 0.929 . S
H697 C706 0.930 . S
H698 C708 0.930 . S
H699 C711 0.929 . S
H700 C714 0.930 . S
H701 C716 0.960 . S
H702 C716 0.960 . S
H703 C716 0.960 . S
C704 H696 0.929 . S
C704 C705 1.377 . S
C704 C706 1.384 . S
C705 C704 1.377 . S
C705 C711 1.390 . S
C706 H697 0.930 . S
C706 C704 1.384 . S
C706 C707 1.372 . S
C707 C706 1.372 . S
C707 C708 1.400 . S
C707 C712 1.490 . S
C708 H698 0.930 . S
C708 C707 1.400 . S
C708 C711 1.386 . S
H709 C725 0.930 . S
H710 C726 0.931 . S
C711 H699 0.929 . S
C711 C705 1.390 . S
C711 C708 1.386 . S
C712 C707 1.490 . S
C712 C714 1.395 . S
C712 C715 1.403 . S
H713 C719 0.930 . S
C714 H700 0.930 . S
C714 C712 1.395 . S
C714 C717 1.403 . S
C715 C712 1.403 . S
C715 C716 1.524 . S
C715 C719 1.400 . S
C716 H701 0.960 . S
C716 H702 0.960 . S
C716 H703 0.960 . S
C716 C715 1.524 . S
C717 C714 1.403 . S
C717 C718 1.392 . S
C717 C721 1.495 . S
C718 C717 1.392 . S
C718 C719 1.385 . S
C718 C720 1.478 . S
C719 H713 0.930 . S
C719 C715 1.400 . S
C719 C718 1.385 . S
C720 C718 1.478 . S
C720 C722 1.381 . S
C720 C726 1.383 . S
C721 C717 1.495 . S
C721 H727 0.959 . S
C721 H728 0.961 . S
C721 H729 0.960 . S
C722 C720 1.381 . S
C722 C723 1.394 . S
C722 H730 0.930 . S
C723 C722 1.394 . S
C723 C724 1.383 . S
C723 H731 0.929 . S
C724 C723 1.383 . S
C724 C725 1.377 . S
C725 H709 0.930 . S
C725 C724 1.377 . S
C725 C726 1.379 . S
C726 H710 0.931 . S
C726 C720 1.383 . S
C726 C725 1.379 . S
H727 C721 0.959 . S
H728 C721 0.961 . S
H729 C721 0.960 . S
H730 C722 0.930 . S
H731 C723 0.929 . S
H732 C740 0.929 . S
H733 C742 0.930 . S
H734 C744 0.930 . S
H735 C747 0.929 . S
H736 C750 0.930 . S
H737 C752 0.960 . S
H738 C752 0.960 . S
H739 C752 0.960 . S
C740 H732 0.929 . S
C740 C741 1.377 . S
C740 C742 1.384 . S
C741 C740 1.377 . S
C741 C747 1.390 . S
C742 H733 0.930 . S
C742 C740 1.384 . S
C742 C743 1.372 . S
C743 C742 1.372 . S
C743 C744 1.400 . S
C743 C748 1.490 . S
C744 H734 0.930 . S
C744 C743 1.400 . S
C744 C747 1.386 . S
H745 C761 0.930 . S
H746 C762 0.931 . S
C747 H735 0.929 . S
C747 C741 1.390 . S
C747 C744 1.386 . S
C748 C743 1.490 . S
C748 C750 1.395 . S
C748 C751 1.403 . S
H749 C755 0.930 . S
C750 H736 0.930 . S
C750 C748 1.395 . S
C750 C753 1.403 . S
C751 C748 1.403 . S
C751 C752 1.524 . S
C751 C755 1.400 . S
C752 H737 0.960 . S
C752 H738 0.960 . S
C752 H739 0.960 . S
C752 C751 1.524 . S
C753 C750 1.403 . S
C753 C754 1.392 . S
C753 C757 1.495 . S
C754 C753 1.392 . S
C754 C755 1.385 . S
C754 C756 1.478 . S
C755 H749 0.930 . S
C755 C751 1.400 . S
C755 C754 1.385 . S
C756 C754 1.478 . S
C756 C758 1.381 . S
C756 C762 1.383 . S
C757 C753 1.495 . S
C757 H763 0.959 . S
C757 H764 0.961 . S
C757 H765 0.960 . S
C758 C756 1.381 . S
C758 C759 1.394 . S
C758 H766 0.930 . S
C759 C758 1.394 . S
C759 C760 1.383 . S
C759 H767 0.929 . S
C760 C759 1.383 . S
C760 C761 1.377 . S
C761 H745 0.930 . S
C761 C760 1.377 . S
C761 C762 1.379 . S
C762 H746 0.931 . S
C762 C756 1.383 . S
C762 C761 1.379 . S
H763 C757 0.959 . S
H764 C757 0.961 . S
H765 C757 0.960 . S
H766 C758 0.930 . S
H767 C759 0.929 . S
H768 C776 0.929 . S
H769 C778 0.930 . S
H770 C780 0.930 . S
H771 C783 0.929 . S
H772 C786 0.930 . S
H773 C788 0.960 . S
H774 C788 0.960 . S
H775 C788 0.960 . S
C776 H768 0.929 . S
C776 C777 1.377 . S
C776 C778 1.384 . S
C777 C776 1.377 . S
C777 C783 1.390 . S
C778 H769 0.930 . S
C778 C776 1.384 . S
C778 C779 1.372 . S
C779 C778 1.372 . S
C779 C780 1.400 . S
C779 C784 1.490 . S
C780 H770 0.930 . S
C780 C779 1.400 . S
C780 C783 1.386 . S
H781 C797 0.930 . S
H782 C798 0.931 . S
C783 H771 0.929 . S
C783 C777 1.390 . S
C783 C780 1.386 . S
C784 C779 1.490 . S
C784 C786 1.395 . S
C784 C787 1.403 1_556 S
H785 C791 0.930 . S
C786 H772 0.930 . S
C786 C784 1.395 . S
C786 C789 1.403 . S
C787 C784 1.403 1_554 S
C787 C788 1.524 . S
C787 C791 1.400 . S
C788 H773 0.960 . S
C788 H774 0.960 . S
C788 H775 0.960 . S
C788 C787 1.524 . S
C789 C786 1.403 . S
C789 C790 1.392 1_556 S
C789 C793 1.495 . S
C790 C789 1.392 1_554 S
C790 C791 1.385 . S
C790 C792 1.478 . S
C791 H785 0.930 . S
C791 C787 1.400 . S
C791 C790 1.385 . S
C792 C790 1.478 . S
C792 C794 1.381 . S
C792 C798 1.383 . S
C793 C789 1.495 . S
C793 H799 0.959 . S
C793 H800 0.961 . S
C793 H801 0.960 . S
C794 C792 1.381 . S
C794 C795 1.394 . S
C794 H802 0.930 . S
C795 C794 1.394 . S
C795 C796 1.383 . S
C795 H803 0.929 . S
C796 C795 1.383 . S
C796 C797 1.377 . S
C797 H781 0.930 . S
C797 C796 1.377 . S
C797 C798 1.379 . S
C798 H782 0.931 . S
C798 C792 1.383 . S
C798 C797 1.379 . S
H799 C793 0.959 . S
H800 C793 0.961 . S
H801 C793 0.960 . S
H802 C794 0.930 . S
H803 C795 0.929 . S
H804 C812 0.929 . S
H805 C814 0.930 . S
H806 C816 0.930 . S
H807 C819 0.929 . S
H808 C822 0.930 . S
H809 C824 0.960 . S
H810 C824 0.960 . S
H811 C824 0.960 . S
C812 H804 0.929 . S
C812 C813 1.377 . S
C812 C814 1.384 . S
C813 C812 1.377 . S
C813 C819 1.390 . S
C814 H805 0.930 . S
C814 C812 1.384 . S
C814 C815 1.372 . S
C815 C814 1.372 . S
C815 C816 1.400 . S
C815 C820 1.490 . S
C816 H806 0.930 . S
C816 C815 1.400 . S
C816 C819 1.386 . S
H817 C833 0.930 . S
H818 C834 0.931 . S
C819 H807 0.929 . S
C819 C813 1.390 . S
C819 C816 1.386 . S
C820 C815 1.490 . S
C820 C822 1.395 . S
C820 C823 1.403 . S
H821 C827 0.930 . S
C822 H808 0.930 . S
C822 C820 1.395 . S
C822 C825 1.403 . S
C823 C820 1.403 . S
C823 C824 1.524 . S
C823 C827 1.400 . S
C824 H809 0.960 . S
C824 H810 0.960 . S
C824 H811 0.960 . S
C824 C823 1.524 . S
C825 C822 1.403 . S
C825 C826 1.392 . S
C825 C829 1.495 . S
C826 C825 1.392 . S
C826 C827 1.385 . S
C826 C828 1.478 . S
C827 H821 0.930 . S
C827 C823 1.400 . S
C827 C826 1.385 . S
C828 C826 1.478 . S
C828 C830 1.381 . S
C828 C834 1.383 . S
C829 C825 1.495 . S
C829 H835 0.959 . S
C829 H836 0.961 . S
C829 H837 0.960 . S
C830 C828 1.381 . S
C830 C831 1.394 . S
C830 H838 0.930 . S
C831 C830 1.394 . S
C831 C832 1.383 . S
C831 H839 0.929 . S
C832 C831 1.383 . S
C832 C833 1.377 . S
C833 H817 0.930 . S
C833 C832 1.377 . S
C833 C834 1.379 . S
C834 H818 0.931 . S
C834 C828 1.383 . S
C834 C833 1.379 . S
H835 C829 0.959 . S
H836 C829 0.961 . S
H837 C829 0.960 . S
H838 C830 0.930 . S
H839 C831 0.929 . S
H840 C848 0.929 . S
H841 C850 0.930 . S
H842 C852 0.930 1_556 S
H843 C855 0.929 . S
H844 C858 0.930 . S
H845 C860 0.960 . S
H846 C860 0.960 . S
H847 C860 0.960 . S
C848 H840 0.929 . S
C848 C849 1.377 . S
C848 C850 1.384 . S
C849 C848 1.377 . S
C849 C855 1.390 . S
C850 H841 0.930 . S
C850 C848 1.384 . S
C850 C851 1.372 . S
C851 C850 1.372 . S
C851 C852 1.400 . S
C851 C856 1.490 . S
C852 H842 0.930 1_554 S
C852 C851 1.400 . S
C852 C855 1.386 . S
H853 C869 0.930 . S
H854 C870 0.931 . S
C855 H843 0.929 . S
C855 C849 1.390 . S
C855 C852 1.386 . S
C856 C851 1.490 . S
C856 C858 1.395 . S
C856 C859 1.403 . S
H857 C863 0.930 . S
C858 H844 0.930 . S
C858 C856 1.395 . S
C858 C861 1.403 1_554 S
C859 C856 1.403 . S
C859 C860 1.524 . S
C859 C863 1.400 1_554 S
C860 H845 0.960 . S
C860 H846 0.960 . S
C860 H847 0.960 . S
C860 C859 1.524 . S
C861 C858 1.403 1_556 S
C861 C862 1.392 . S
C861 C865 1.495 . S
C862 C861 1.392 . S
C862 C863 1.385 . S
C862 C864 1.478 . S
C863 H857 0.930 . S
C863 C859 1.400 1_556 S
C863 C862 1.385 . S
C864 C862 1.478 . S
C864 C866 1.381 . S
C864 C870 1.383 . S
C865 C861 1.495 . S
C865 H871 0.959 . S
C865 H872 0.961 . S
C865 H873 0.960 . S
C866 C864 1.381 . S
C866 C867 1.394 . S
C866 H874 0.930 1_556 S
C867 C866 1.394 . S
C867 C868 1.383 . S
C867 H875 0.929 . S
C868 C867 1.383 . S
C868 C869 1.377 . S
C869 H853 0.930 . S
C869 C868 1.377 . S
C869 C870 1.379 . S
C870 H854 0.931 . S
C870 C864 1.383 . S
C870 C869 1.379 . S
H871 C865 0.959 . S
H872 C865 0.961 . S
H873 C865 0.960 . S
H874 C866 0.930 1_554 S
H875 C867 0.929 . S
H876 C884 0.929 . S
H877 C886 0.930 . S
H878 C888 0.930 . S
H879 C891 0.929 . S
H880 C894 0.930 . S
H881 C896 0.960 . S
H882 C896 0.960 . S
H883 C896 0.960 . S
C884 H876 0.929 . S
C884 C885 1.377 . S
C884 C886 1.384 . S
C885 C884 1.377 . S
C885 C891 1.390 . S
C886 H877 0.930 . S
C886 C884 1.384 . S
C886 C887 1.372 . S
C887 C886 1.372 . S
C887 C888 1.400 . S
C887 C892 1.490 . S
C888 H878 0.930 . S
C888 C887 1.400 . S
C888 C891 1.386 . S
H889 C905 0.930 . S
H890 C906 0.931 . S
C891 H879 0.929 . S
C891 C885 1.390 . S
C891 C888 1.386 . S
C892 C887 1.490 . S
C892 C894 1.395 . S
C892 C895 1.403 . S
H893 C899 0.930 . S
C894 H880 0.930 . S
C894 C892 1.395 . S
C894 C897 1.403 . S
C895 C892 1.403 . S
C895 C896 1.524 . S
C895 C899 1.400 . S
C896 H881 0.960 . S
C896 H882 0.960 . S
C896 H883 0.960 . S
C896 C895 1.524 . S
C897 C894 1.403 . S
C897 C898 1.392 . S
C897 C901 1.495 . S
C898 C897 1.392 . S
C898 C899 1.385 . S
C898 C900 1.478 . S
C899 H893 0.930 . S
C899 C895 1.400 . S
C899 C898 1.385 . S
C900 C898 1.478 . S
C900 C902 1.381 . S
C900 C906 1.383 . S
C901 C897 1.495 . S
C901 H907 0.959 . S
C901 H908 0.961 . S
C901 H909 0.960 . S
C902 C900 1.381 . S
C902 C903 1.394 . S
C902 H910 0.930 . S
C903 C902 1.394 . S
C903 C904 1.383 . S
C903 H911 0.929 . S
C904 C903 1.383 . S
C904 C905 1.377 . S
C905 H889 0.930 . S
C905 C904 1.377 . S
C905 C906 1.379 . S
C906 H890 0.931 . S
C906 C900 1.383 . S
C906 C905 1.379 . S
H907 C901 0.959 . S
H908 C901 0.961 . S
H909 C901 0.960 . S
H910 C902 0.930 . S
H911 C903 0.929 . S
H912 C920 0.929 . S
H913 C922 0.930 . S
H914 C924 0.930 . S
H915 C927 0.929 . S
H916 C930 0.930 . S
H917 C932 0.960 . S
H918 C932 0.960 . S
H919 C932 0.960 . S
C920 H912 0.929 . S
C920 C921 1.377 . S
C920 C922 1.384 . S
C921 C920 1.377 . S
C921 C927 1.390 . S
C922 H913 0.930 . S
C922 C920 1.384 . S
C922 C923 1.372 . S
C923 C922 1.372 . S
C923 C924 1.400 . S
C923 C928 1.490 . S
C924 H914 0.930 . S
C924 C923 1.400 . S
C924 C927 1.386 . S
H925 C941 0.930 . S
H926 C942 0.931 . S
C927 H915 0.929 . S
C927 C921 1.390 . S
C927 C924 1.386 . S
C928 C923 1.490 . S
C928 C930 1.395 1_556 S
C928 C931 1.403 . S
H929 C935 0.930 . S
C930 H916 0.930 . S
C930 C928 1.395 1_554 S
C930 C933 1.403 . S
C931 C928 1.403 . S
C931 C932 1.524 . S
C931 C935 1.400 . S
C932 H917 0.960 . S
C932 H918 0.960 . S
C932 H919 0.960 . S
C932 C931 1.524 . S
C933 C930 1.403 . S
C933 C934 1.392 . S
C933 C937 1.495 . S
C934 C933 1.392 . S
C934 C935 1.385 1_554 S
C934 C936 1.478 . S
C935 H929 0.930 . S
C935 C931 1.400 . S
C935 C934 1.385 1_556 S
C936 C934 1.478 . S
C936 C938 1.381 . S
C936 C942 1.383 . S
C937 C933 1.495 . S
C937 H943 0.959 . S
C937 H944 0.961 . S
C937 H945 0.960 . S
C938 C936 1.381 . S
C938 C939 1.394 . S
C938 H946 0.930 . S
C939 C938 1.394 . S
C939 C940 1.383 . S
C939 H947 0.929 . S
C940 C939 1.383 . S
C940 C941 1.377 . S
C941 H925 0.930 . S
C941 C940 1.377 . S
C941 C942 1.379 . S
C942 H926 0.931 . S
C942 C936 1.383 . S
C942 C941 1.379 . S
H943 C937 0.959 . S
H944 C937 0.961 . S
H945 C937 0.960 . S
H946 C938 0.930 . S
H947 C939 0.929 . S
H948 C956 0.929 . S
H949 C958 0.930 . S
H950 C960 0.930 . S
H951 C963 0.929 . S
H952 C966 0.930 . S
H953 C968 0.960 . S
H954 C968 0.960 . S
H955 C968 0.960 . S
C956 H948 0.929 . S
C956 C957 1.377 . S
C956 C958 1.384 . S
C957 C956 1.377 . S
C957 C963 1.390 . S
C958 H949 0.930 . S
C958 C956 1.384 . S
C958 C959 1.372 . S
C959 C958 1.372 . S
C959 C960 1.400 . S
C959 C964 1.490 . S
C960 H950 0.930 . S
C960 C959 1.400 . S
C960 C963 1.386 . S
H961 C977 0.930 . S
H962 C978 0.931 . S
C963 H951 0.929 . S
C963 C957 1.390 . S
C963 C960 1.386 . S
C964 C959 1.490 . S
C964 C966 1.395 . S
C964 C967 1.403 . S
H965 C971 0.930 . S
C966 H952 0.930 . S
C966 C964 1.395 . S
C966 C969 1.403 . S
C967 C964 1.403 . S
C967 C968 1.524 . S
C967 C971 1.400 . S
C968 H953 0.960 . S
C968 H954 0.960 . S
C968 H955 0.960 . S
C968 C967 1.524 . S
C969 C966 1.403 . S
C969 C970 1.392 . S
C969 C973 1.495 . S
C970 C969 1.392 . S
C970 C971 1.385 . S
C970 C972 1.478 . S
C971 H965 0.930 . S
C971 C967 1.400 . S
C971 C970 1.385 . S
C972 C970 1.478 . S
C972 C974 1.381 . S
C972 C978 1.383 . S
C973 C969 1.495 . S
C973 H979 0.959 . S
C973 H980 0.961 . S
C973 H981 0.960 . S
C974 C972 1.381 . S
C974 C975 1.394 . S
C974 H982 0.930 . S
C975 C974 1.394 . S
C975 C976 1.383 . S
C975 H983 0.929 . S
C976 C975 1.383 . S
C976 C977 1.377 . S
C977 H961 0.930 . S
C977 C976 1.377 . S
C977 C978 1.379 . S
C978 H962 0.931 . S
C978 C972 1.383 . S
C978 C977 1.379 . S
H979 C973 0.959 . S
H980 C973 0.961 . S
H981 C973 0.960 . S
H982 C974 0.930 . S
H983 C975 0.929 . S
H984 C992 0.929 . S
H985 C994 0.930 . S
H986 C996 0.930 . S
H987 C999 0.929 . S
H988 C1002 0.930 . S
H989 C1004 0.960 . S
H990 C1004 0.960 . S
H991 C1004 0.960 . S
C992 H984 0.929 . S
C992 C993 1.377 . S
C992 C994 1.384 . S
C993 C992 1.377 . S
C993 C999 1.390 . S
C994 H985 0.930 . S
C994 C992 1.384 . S
C994 C995 1.372 . S
C995 C994 1.372 . S
C995 C996 1.400 . S
C995 C1000 1.490 . S
C996 H986 0.930 . S
C996 C995 1.400 . S
C996 C999 1.386 . S
H997 C1013 0.930 . S
H998 C1014 0.931 . S
C999 H987 0.929 . S
C999 C993 1.390 . S
C999 C996 1.386 . S
C1000 C995 1.490 . S
C1000 C1002 1.395 1_554 S
C1000 C1003 1.403 . S
H1001 C1007 0.930 . S
C1002 H988 0.930 . S
C1002 C1000 1.395 1_556 S
C1002 C1005 1.403 . S
C1003 C1000 1.403 . S
C1003 C1004 1.524 . S
C1003 C1007 1.400 . S
C1004 H989 0.960 . S
C1004 H990 0.960 . S
C1004 H991 0.960 . S
C1004 C1003 1.524 . S
C1005 C1002 1.403 . S
C1005 C1006 1.392 . S
C1005 C1009 1.495 . S
C1006 C1005 1.392 . S
C1006 C1007 1.385 1_556 S
C1006 C1008 1.478 . S
C1007 H1001 0.930 . S
C1007 C1003 1.400 . S
C1007 C1006 1.385 1_554 S
C1008 C1006 1.478 . S
C1008 C1010 1.381 . S
C1008 C1014 1.383 . S
C1009 C1005 1.495 . S
C1009 H1015 0.959 . S
C1009 H1016 0.961 . S
C1009 H1017 0.960 . S
C1010 C1008 1.381 . S
C1010 C1011 1.394 . S
C1010 H1018 0.930 . S
C1011 C1010 1.394 . S
C1011 C1012 1.383 . S
C1011 H1019 0.929 . S
C1012 C1011 1.383 . S
C1012 C1013 1.377 . S
C1013 H997 0.930 . S
C1013 C1012 1.377 . S
C1013 C1014 1.379 . S
C1014 H998 0.931 . S
C1014 C1008 1.383 . S
C1014 C1013 1.379 . S
H1015 C1009 0.959 . S
H1016 C1009 0.961 . S
H1017 C1009 0.960 . S
H1018 C1010 0.930 . S
H1019 C1011 0.929 . S
H1020 C1028 0.929 . S
H1021 C1030 0.930 . S
H1022 C1032 0.930 . S
H1023 C1035 0.929 . S
H1024 C1038 0.930 . S
H1025 C1040 0.960 . S
H1026 C1040 0.960 . S
H1027 C1040 0.960 . S
C1028 H1020 0.929 . S
C1028 C1029 1.377 . S
C1028 C1030 1.384 . S
C1029 C1028 1.377 . S
C1029 C1035 1.390 . S
C1030 H1021 0.930 . S
C1030 C1028 1.384 . S
C1030 C1031 1.372 . S
C1031 C1030 1.372 . S
C1031 C1032 1.400 . S
C1031 C1036 1.490 . S
C1032 H1022 0.930 . S
C1032 C1031 1.400 . S
C1032 C1035 1.386 . S
H1033 C1049 0.930 . S
H1034 C1050 0.931 . S
C1035 H1023 0.929 . S
C1035 C1029 1.390 . S
C1035 C1032 1.386 . S
C1036 C1031 1.490 . S
C1036 C1038 1.395 . S
C1036 C1039 1.403 . S
H1037 C1043 0.930 . S
C1038 H1024 0.930 . S
C1038 C1036 1.395 . S
C1038 C1041 1.403 . S
C1039 C1036 1.403 . S
C1039 C1040 1.524 . S
C1039 C1043 1.400 . S
C1040 H1025 0.960 . S
C1040 H1026 0.960 . S
C1040 H1027 0.960 . S
C1040 C1039 1.524 . S
C1041 C1038 1.403 . S
C1041 C1042 1.392 . S
C1041 C1045 1.495 . S
C1042 C1041 1.392 . S
C1042 C1043 1.385 . S
C1042 C1044 1.478 . S
C1043 H1037 0.930 . S
C1043 C1039 1.400 . S
C1043 C1042 1.385 . S
C1044 C1042 1.478 . S
C1044 C1046 1.381 . S
C1044 C1050 1.383 . S
C1045 C1041 1.495 . S
C1045 H1051 0.959 . S
C1045 H1052 0.961 . S
C1045 H1053 0.960 . S
C1046 C1044 1.381 . S
C1046 C1047 1.394 . S
C1046 H1054 0.930 . S
C1047 C1046 1.394 . S
C1047 C1048 1.383 . S
C1047 H1055 0.929 . S
C1048 C1047 1.383 . S
C1048 C1049 1.377 . S
C1049 H1033 0.930 . S
C1049 C1048 1.377 . S
C1049 C1050 1.379 . S
C1050 H1034 0.931 . S
C1050 C1044 1.383 . S
C1050 C1049 1.379 . S
H1051 C1045 0.959 . S
H1052 C1045 0.961 . S
H1053 C1045 0.960 . S
H1054 C1046 0.930 . S
H1055 C1047 0.929 . S
H1056 C1064 0.929 . S
H1057 C1066 0.930 . S
H1058 C1068 0.930 1_554 S
H1059 C1071 0.929 . S
H1060 C1074 0.930 . S
H1061 C1076 0.960 . S
H1062 C1076 0.960 1_556 S
H1063 C1076 0.960 . S
C1064 H1056 0.929 . S
C1064 C1065 1.377 . S
C1064 C1066 1.384 . S
C1065 C1064 1.377 . S
C1065 C1071 1.390 . S
C1066 H1057 0.930 . S
C1066 C1064 1.384 . S
C1066 C1067 1.372 . S
C1067 C1066 1.372 . S
C1067 C1068 1.400 . S
C1067 C1072 1.490 . S
C1068 H1058 0.930 1_556 S
C1068 C1067 1.400 . S
C1068 C1071 1.386 . S
H1069 C1085 0.930 . S
H1070 C1086 0.931 . S
C1071 H1059 0.929 . S
C1071 C1065 1.390 . S
C1071 C1068 1.386 . S
C1072 C1067 1.490 . S
C1072 C1074 1.395 . S
C1072 C1075 1.403 1_556 S
H1073 C1079 0.930 . S
C1074 H1060 0.930 . S
C1074 C1072 1.395 . S
C1074 C1077 1.403 . S
C1075 C1072 1.403 1_554 S
C1075 C1076 1.524 . S
C1075 C1079 1.400 . S
C1076 H1061 0.960 . S
C1076 H1062 0.960 1_554 S
C1076 H1063 0.960 . S
C1076 C1075 1.524 . S
C1077 C1074 1.403 . S
C1077 C1078 1.392 1_556 S
C1077 C1081 1.495 . S
C1078 C1077 1.392 1_554 S
C1078 C1079 1.385 . S
C1078 C1080 1.478 . S
C1079 H1073 0.930 . S
C1079 C1075 1.400 . S
C1079 C1078 1.385 . S
C1080 C1078 1.478 . S
C1080 C1082 1.381 . S
C1080 C1086 1.383 . S
C1081 C1077 1.495 . S
C1081 H1087 0.959 . S
C1081 H1088 0.961 . S
C1081 H1089 0.960 . S
C1082 C1080 1.381 . S
C1082 C1083 1.394 . S
C1082 H1090 0.930 1_554 S
C1083 C1082 1.394 . S
C1083 C1084 1.383 . S
C1083 H1091 0.929 . S
C1084 C1083 1.383 . S
C1084 C1085 1.377 . S
C1085 H1069 0.930 . S
C1085 C1084 1.377 . S
C1085 C1086 1.379 . S
C1086 H1070 0.931 . S
C1086 C1080 1.383 . S
C1086 C1085 1.379 . S
H1087 C1081 0.959 . S
H1088 C1081 0.961 . S
H1089 C1081 0.960 . S
H1090 C1082 0.930 1_556 S
H1091 C1083 0.929 . S
H1092 C1100 0.929 . S
H1093 C1102 0.930 . S
H1094 C1104 0.930 . S
H1095 C1107 0.929 . S
H1096 C1110 0.930 . S
H1097 C1112 0.960 . S
H1098 C1112 0.960 . S
H1099 C1112 0.960 . S
C1100 H1092 0.929 . S
C1100 C1101 1.377 . S
C1100 C1102 1.384 . S
C1101 C1100 1.377 . S
C1101 C1107 1.390 . S
C1102 H1093 0.930 . S
C1102 C1100 1.384 . S
C1102 C1103 1.372 . S
C1103 C1102 1.372 . S
C1103 C1104 1.400 . S
C1103 C1108 1.490 . S
C1104 H1094 0.930 . S
C1104 C1103 1.400 . S
C1104 C1107 1.386 . S
H1105 C1121 0.930 . S
H1106 C1122 0.931 . S
C1107 H1095 0.929 . S
C1107 C1101 1.390 . S
C1107 C1104 1.386 . S
C1108 C1103 1.490 . S
C1108 C1110 1.395 . S
C1108 C1111 1.403 . S
H1109 C1115 0.930 . S
C1110 H1096 0.930 . S
C1110 C1108 1.395 . S
C1110 C1113 1.403 . S
C1111 C1108 1.403 . S
C1111 C1112 1.524 . S
C1111 C1115 1.400 . S
C1112 H1097 0.960 . S
C1112 H1098 0.960 . S
C1112 H1099 0.960 . S
C1112 C1111 1.524 . S
C1113 C1110 1.403 . S
C1113 C1114 1.392 . S
C1113 C1117 1.495 . S
C1114 C1113 1.392 . S
C1114 C1115 1.385 . S
C1114 C1116 1.478 . S
C1115 H1109 0.930 . S
C1115 C1111 1.400 . S
C1115 C1114 1.385 . S
C1116 C1114 1.478 . S
C1116 C1118 1.381 . S
C1116 C1122 1.383 . S
C1117 C1113 1.495 . S
C1117 H1123 0.959 . S
C1117 H1124 0.961 . S
C1117 H1125 0.960 . S
C1118 C1116 1.381 . S
C1118 C1119 1.394 . S
C1118 H1126 0.930 . S
C1119 C1118 1.394 . S
C1119 C1120 1.383 . S
C1119 H1127 0.929 . S
C1120 C1119 1.383 . S
C1120 C1121 1.377 . S
C1121 H1105 0.930 . S
C1121 C1120 1.377 . S
C1121 C1122 1.379 . S
C1122 H1106 0.931 . S
C1122 C1116 1.383 . S
C1122 C1121 1.379 . S
H1123 C1117 0.959 . S
H1124 C1117 0.961 . S
H1125 C1117 0.960 . S
H1126 C1118 0.930 . S
H1127 C1119 0.929 . S
H1128 C1136 0.929 . S
H1129 C1138 0.930 . S
H1130 C1140 0.930 1_554 S
H1131 C1143 0.929 . S
H1132 C1146 0.930 . S
H1133 C1148 0.960 . S
H1134 C1148 0.960 . S
H1135 C1148 0.955 1_554 S
C1136 H1128 0.929 . S
C1136 C1137 1.377 . S
C1136 C1138 1.384 . S
C1137 C1136 1.377 . S
C1137 C1143 1.390 . S
C1138 H1129 0.930 . S
C1138 C1136 1.384 . S
C1138 C1139 1.372 . S
C1139 C1138 1.372 . S
C1139 C1140 1.400 . S
C1139 C1144 1.490 . S
C1140 H1130 0.930 1_556 S
C1140 C1139 1.400 . S
C1140 C1143 1.386 . S
H1141 C1157 0.930 . S
H1142 C1158 0.931 . S
C1143 H1131 0.929 . S
C1143 C1137 1.390 . S
C1143 C1140 1.386 . S
C1144 C1139 1.490 . S
C1144 C1146 1.395 . S
C1144 C1147 1.403 . S
H1145 C1151 0.930 . S
C1146 H1132 0.930 . S
C1146 C1144 1.395 . S
C1146 C1149 1.403 1_556 S
C1147 C1144 1.403 . S
C1147 C1148 1.524 . S
C1147 C1151 1.400 1_556 S
C1148 H1133 0.960 . S
C1148 H1134 0.960 . S
C1148 H1135 0.955 1_556 S
C1148 C1147 1.524 . S
C1149 C1146 1.403 1_554 S
C1149 C1150 1.392 . S
C1149 C1153 1.495 . S
C1150 C1149 1.392 . S
C1150 C1151 1.385 . S
C1150 C1152 1.478 . S
C1151 H1145 0.930 . S
C1151 C1147 1.400 1_554 S
C1151 C1150 1.385 . S
C1152 C1150 1.478 . S
C1152 C1154 1.381 . S
C1152 C1158 1.383 . S
C1153 C1149 1.495 . S
C1153 H1159 0.966 . S
C1153 H1160 0.961 . S
C1153 H1161 0.960 1_554 S
C1154 C1152 1.381 . S
C1154 C1155 1.394 . S
C1154 H1162 0.930 1_554 S
C1155 C1154 1.394 . S
C1155 C1156 1.383 . S
C1155 H1163 0.929 . S
C1156 C1155 1.383 . S
C1156 C1157 1.377 . S
C1157 H1141 0.930 . S
C1157 C1156 1.377 . S
C1157 C1158 1.379 . S
C1158 H1142 0.931 . S
C1158 C1152 1.383 . S
C1158 C1157 1.379 . S
H1159 C1153 0.966 . S
H1160 C1153 0.961 . S
H1161 C1153 0.960 1_556 S
H1162 C1154 0.930 1_556 S
H1163 C1155 0.929 . S
H1164 C1172 0.929 . S
H1165 C1174 0.930 . S
H1166 C1176 0.930 . S
H1167 C1179 0.929 . S
H1168 C1182 0.930 . S
H1169 C1184 0.960 . S
H1170 C1184 0.960 . S
H1171 C1184 0.960 . S
C1172 H1164 0.929 . S
C1172 C1173 1.377 . S
C1172 C1174 1.384 . S
C1173 C1172 1.377 . S
C1173 C1179 1.390 . S
C1174 H1165 0.930 . S
C1174 C1172 1.384 . S
C1174 C1175 1.372 . S
C1175 C1174 1.372 . S
C1175 C1176 1.400 . S
C1175 C1180 1.490 . S
C1176 H1166 0.930 . S
C1176 C1175 1.400 . S
C1176 C1179 1.386 . S
H1177 C1193 0.930 . S
H1178 C1194 0.931 . S
C1179 H1167 0.929 . S
C1179 C1173 1.390 . S
C1179 C1176 1.386 . S
C1180 C1175 1.490 . S
C1180 C1182 1.395 . S
C1180 C1183 1.403 . S
H1181 C1187 0.930 . S
C1182 H1168 0.930 . S
C1182 C1180 1.395 . S
C1182 C1185 1.403 . S
C1183 C1180 1.403 . S
C1183 C1184 1.524 . S
C1183 C1187 1.400 . S
C1184 H1169 0.960 . S
C1184 H1170 0.960 . S
C1184 H1171 0.960 . S
C1184 C1183 1.524 . S
C1185 C1182 1.403 . S
C1185 C1186 1.392 . S
C1185 C1189 1.495 . S
C1186 C1185 1.392 . S
C1186 C1187 1.385 . S
C1186 C1188 1.478 . S
C1187 H1181 0.930 . S
C1187 C1183 1.400 . S
C1187 C1186 1.385 . S
C1188 C1186 1.478 . S
C1188 C1190 1.381 . S
C1188 C1194 1.383 . S
C1189 C1185 1.495 . S
C1189 H1195 0.959 . S
C1189 H1196 0.961 . S
C1189 H1197 0.960 . S
C1190 C1188 1.381 . S
C1190 C1191 1.394 . S
C1190 H1198 0.930 . S
C1191 C1190 1.394 . S
C1191 C1192 1.383 . S
C1191 H1199 0.929 . S
C1192 C1191 1.383 . S
C1192 C1193 1.377 . S
C1193 H1177 0.930 . S
C1193 C1192 1.377 . S
C1193 C1194 1.379 . S
C1194 H1178 0.931 . S
C1194 C1188 1.383 . S
C1194 C1193 1.379 . S
H1195 C1189 0.959 . S
H1196 C1189 0.961 . S
H1197 C1189 0.960 . S
H1198 C1190 0.930 . S
H1199 C1191 0.929 . S
H1200 C1208 0.929 . S
H1201 C1210 0.930 . S
H1202 C1212 0.930 . S
H1203 C1215 0.929 . S
H1204 C1218 0.930 . S
H1205 C1220 0.960 . S
H1206 C1220 0.960 . S
H1207 C1220 0.960 . S
C1208 H1200 0.929 . S
C1208 C1209 1.377 . S
C1208 C1210 1.384 . S
C1209 C1208 1.377 . S
C1209 C1215 1.390 . S
C1210 H1201 0.930 . S
C1210 C1208 1.384 . S
C1210 C1211 1.372 . S
C1211 C1210 1.372 . S
C1211 C1212 1.400 . S
C1211 C1216 1.490 . S
C1212 H1202 0.930 . S
C1212 C1211 1.400 . S
C1212 C1215 1.386 . S
H1213 C1229 0.930 . S
H1214 C1230 0.931 . S
C1215 H1203 0.929 . S
C1215 C1209 1.390 . S
C1215 C1212 1.386 . S
C1216 C1211 1.490 . S
C1216 C1218 1.395 . S
C1216 C1219 1.403 . S
H1217 C1223 0.930 . S
C1218 H1204 0.930 . S
C1218 C1216 1.395 . S
C1218 C1221 1.403 . S
C1219 C1216 1.403 . S
C1219 C1220 1.524 . S
C1219 C1223 1.400 . S
C1220 H1205 0.960 . S
C1220 H1206 0.960 . S
C1220 H1207 0.960 . S
C1220 C1219 1.524 . S
C1221 C1218 1.403 . S
C1221 C1222 1.392 . S
C1221 C1225 1.495 . S
C1222 C1221 1.392 . S
C1222 C1223 1.385 . S
C1222 C1224 1.478 . S
C1223 H1217 0.930 . S
C1223 C1219 1.400 . S
C1223 C1222 1.385 . S
C1224 C1222 1.478 . S
C1224 C1226 1.381 . S
C1224 C1230 1.383 . S
C1225 C1221 1.495 . S
C1225 H1231 0.959 . S
C1225 H1232 0.961 . S
C1225 H1233 0.960 . S
C1226 C1224 1.381 . S
C1226 C1227 1.394 . S
C1226 H1234 0.930 . S
C1227 C1226 1.394 . S
C1227 C1228 1.383 . S
C1227 H1235 0.929 . S
C1228 C1227 1.383 . S
C1228 C1229 1.377 . S
C1229 H1213 0.930 . S
C1229 C1228 1.377 . S
C1229 C1230 1.379 . S
C1230 H1214 0.931 . S
C1230 C1224 1.383 . S
C1230 C1229 1.379 . S
H1231 C1225 0.959 . S
H1232 C1225 0.961 . S
H1233 C1225 0.960 . S
H1234 C1226 0.930 . S
H1235 C1227 0.929 . S
H1236 C1244 0.929 . S
H1237 C1246 0.930 . S
H1238 C1248 0.930 . S
H1239 C1251 0.929 . S
H1240 C1254 0.930 . S
H1241 C1256 0.960 . S
H1242 C1256 0.960 . S
H1243 C1256 0.960 . S
C1244 H1236 0.929 . S
C1244 C1245 1.377 . S
C1244 C1246 1.384 . S
C1245 C1244 1.377 . S
C1245 C1251 1.390 . S
C1246 H1237 0.930 . S
C1246 C1244 1.384 . S
C1246 C1247 1.372 . S
C1247 C1246 1.372 . S
C1247 C1248 1.400 . S
C1247 C1252 1.490 . S
C1248 H1238 0.930 . S
C1248 C1247 1.400 . S
C1248 C1251 1.386 . S
H1249 C1265 0.930 . S
H1250 C1266 0.931 . S
C1251 H1239 0.929 . S
C1251 C1245 1.390 . S
C1251 C1248 1.386 . S
C1252 C1247 1.490 . S
C1252 C1254 1.395 . S
C1252 C1255 1.403 . S
H1253 C1259 0.930 . S
C1254 H1240 0.930 . S
C1254 C1252 1.395 . S
C1254 C1257 1.403 1_455 S
C1255 C1252 1.403 . S
C1255 C1256 1.524 . S
C1255 C1259 1.400 1_455 S
C1256 H1241 0.960 . S
C1256 H1242 0.960 . S
C1256 H1243 0.960 . S
C1256 C1255 1.524 . S
C1257 C1254 1.403 1_655 S
C1257 C1258 1.392 . S
C1257 C1261 1.495 . S
C1258 C1257 1.392 . S
C1258 C1259 1.385 . S
C1258 C1260 1.478 . S
C1259 H1253 0.930 . S
C1259 C1255 1.400 1_655 S
C1259 C1258 1.385 . S
C1260 C1258 1.478 . S
C1260 C1262 1.381 . S
C1260 C1266 1.383 . S
C1261 C1257 1.495 . S
C1261 H1267 0.959 . S
C1261 H1268 0.961 . S
C1261 H1269 0.960 . S
C1262 C1260 1.381 . S
C1262 C1263 1.394 . S
C1262 H1270 0.930 . S
C1263 C1262 1.394 . S
C1263 C1264 1.383 . S
C1263 H1271 0.929 . S
C1264 C1263 1.383 . S
C1264 C1265 1.377 . S
C1265 H1249 0.930 . S
C1265 C1264 1.377 . S
C1265 C1266 1.379 . S
C1266 H1250 0.931 . S
C1266 C1260 1.383 . S
C1266 C1265 1.379 . S
H1267 C1261 0.959 . S
H1268 C1261 0.961 . S
H1269 C1261 0.960 . S
H1270 C1262 0.930 . S
H1271 C1263 0.929 . S
H1272 C1280 0.929 . S
H1273 C1282 0.930 . S
H1274 C1284 0.930 . S
H1275 C1287 0.929 . S
H1276 C1290 0.930 . S
H1277 C1292 0.960 . S
H1278 C1292 0.960 . S
H1279 C1292 0.960 . S
C1280 H1272 0.929 . S
C1280 C1281 1.377 . S
C1280 C1282 1.384 . S
C1281 C1280 1.377 . S
C1281 C1287 1.390 . S
C1282 H1273 0.930 . S
C1282 C1280 1.384 . S
C1282 C1283 1.372 . S
C1283 C1282 1.372 . S
C1283 C1284 1.400 . S
C1283 C1288 1.490 . S
C1284 H1274 0.930 . S
C1284 C1283 1.400 . S
C1284 C1287 1.386 . S
H1285 C1301 0.930 . S
H1286 C1302 0.931 . S
C1287 H1275 0.929 . S
C1287 C1281 1.390 . S
C1287 C1284 1.386 . S
C1288 C1283 1.490 . S
C1288 C1290 1.395 . S
C1288 C1291 1.403 . S
H1289 C1295 0.930 . S
C1290 H1276 0.930 . S
C1290 C1288 1.395 . S
C1290 C1293 1.403 1_565 S
C1291 C1288 1.403 . S
C1291 C1292 1.524 . S
C1291 C1295 1.400 1_565 S
C1292 H1277 0.960 . S
C1292 H1278 0.960 . S
C1292 H1279 0.960 . S
C1292 C1291 1.524 . S
C1293 C1290 1.403 1_545 S
C1293 C1294 1.392 . S
C1293 C1297 1.495 . S
C1294 C1293 1.392 . S
C1294 C1295 1.385 . S
C1294 C1296 1.478 . S
C1295 H1289 0.930 . S
C1295 C1291 1.400 1_545 S
C1295 C1294 1.385 . S
C1296 C1294 1.478 . S
C1296 C1298 1.381 . S
C1296 C1302 1.383 . S
C1297 C1293 1.495 . S
C1297 H1303 0.959 1_554 S
C1297 H1304 0.961 . S
C1297 H1305 0.960 . S
C1298 C1296 1.381 . S
C1298 C1299 1.394 . S
C1298 H1306 0.930 . S
C1299 C1298 1.394 . S
C1299 C1300 1.383 . S
C1299 H1307 0.929 . S
C1300 C1299 1.383 . S
C1300 C1301 1.377 . S
C1301 H1285 0.930 . S
C1301 C1300 1.377 . S
C1301 C1302 1.379 . S
C1302 H1286 0.931 . S
C1302 C1296 1.383 . S
C1302 C1301 1.379 . S
H1303 C1297 0.959 1_556 S
H1304 C1297 0.961 . S
H1305 C1297 0.960 . S
H1306 C1298 0.930 . S
H1307 C1299 0.929 . S
H1308 C1316 0.929 . S
H1309 C1318 0.930 . S
H1310 C1320 0.930 . S
H1311 C1323 0.929 . S
H1312 C1326 0.930 . S
H1313 C1328 0.960 . S
H1314 C1328 0.960 . S
H1315 C1328 0.960 . S
C1316 H1308 0.929 . S
C1316 C1317 1.377 . S
C1316 C1318 1.384 . S
C1317 C1316 1.377 . S
C1317 C1323 1.390 . S
C1318 H1309 0.930 . S
C1318 C1316 1.384 . S
C1318 C1319 1.372 . S
C1319 C1318 1.372 . S
C1319 C1320 1.400 . S
C1319 C1324 1.490 . S
C1320 H1310 0.930 . S
C1320 C1319 1.400 . S
C1320 C1323 1.386 . S
H1321 C1337 0.930 . S
H1322 C1338 0.931 . S
C1323 H1311 0.929 . S
C1323 C1317 1.390 . S
C1323 C1320 1.386 . S
C1324 C1319 1.490 . S
C1324 C1326 1.395 . S
C1324 C1327 1.403 . S
H1325 C1331 0.930 . S
C1326 H1312 0.930 . S
C1326 C1324 1.395 . S
C1326 C1329 1.403 . S
C1327 C1324 1.403 . S
C1327 C1328 1.524 . S
C1327 C1331 1.400 . S
C1328 H1313 0.960 . S
C1328 H1314 0.960 . S
C1328 H1315 0.960 . S
C1328 C1327 1.524 . S
C1329 C1326 1.403 . S
C1329 C1330 1.392 . S
C1329 C1333 1.495 . S
C1330 C1329 1.392 . S
C1330 C1331 1.385 . S
C1330 C1332 1.478 . S
C1331 H1325 0.930 . S
C1331 C1327 1.400 . S
C1331 C1330 1.385 . S
C1332 C1330 1.478 . S
C1332 C1334 1.381 . S
C1332 C1338 1.383 . S
C1333 C1329 1.495 . S
C1333 H1339 0.959 . S
C1333 H1340 0.961 . S
C1333 H1341 0.960 . S
C1334 C1332 1.381 . S
C1334 C1335 1.394 . S
C1334 H1342 0.930 . S
C1335 C1334 1.394 . S
C1335 C1336 1.383 . S
C1335 H1343 0.929 . S
C1336 C1335 1.383 . S
C1336 C1337 1.377 . S
C1337 H1321 0.930 . S
C1337 C1336 1.377 . S
C1337 C1338 1.379 . S
C1338 H1322 0.931 . S
C1338 C1332 1.383 . S
C1338 C1337 1.379 . S
H1339 C1333 0.959 . S
H1340 C1333 0.961 . S
H1341 C1333 0.960 . S
H1342 C1334 0.930 . S
H1343 C1335 0.929 . S
H1344 C1352 0.929 . S
H1345 C1354 0.930 . S
H1346 C1356 0.930 . S
H1347 C1359 0.929 . S
H1348 C1362 0.930 . S
H1349 C1364 0.960 . S
H1350 C1364 0.960 . S
H1351 C1364 0.960 . S
C1352 H1344 0.929 . S
C1352 C1353 1.377 . S
C1352 C1354 1.384 . S
C1353 C1352 1.377 . S
C1353 C1359 1.390 . S
C1354 H1345 0.930 . S
C1354 C1352 1.384 . S
C1354 C1355 1.372 . S
C1355 C1354 1.372 . S
C1355 C1356 1.400 . S
C1355 C1360 1.490 . S
C1356 H1346 0.930 . S
C1356 C1355 1.400 . S
C1356 C1359 1.386 . S
H1357 C1373 0.930 . S
H1358 C1374 0.931 . S
C1359 H1347 0.929 . S
C1359 C1353 1.390 . S
C1359 C1356 1.386 . S
C1360 C1355 1.490 . S
C1360 C1362 1.395 . S
C1360 C1363 1.403 . S
H1361 C1367 0.930 . S
C1362 H1348 0.930 . S
C1362 C1360 1.395 . S
C1362 C1365 1.403 1_655 S
C1363 C1360 1.403 . S
C1363 C1364 1.524 . S
C1363 C1367 1.400 1_655 S
C1364 H1349 0.960 . S
C1364 H1350 0.960 . S
C1364 H1351 0.960 . S
C1364 C1363 1.524 . S
C1365 C1362 1.403 1_455 S
C1365 C1366 1.392 . S
C1365 C1369 1.495 . S
C1366 C1365 1.392 . S
C1366 C1367 1.385 . S
C1366 C1368 1.478 . S
C1367 H1361 0.930 . S
C1367 C1363 1.400 1_455 S
C1367 C1366 1.385 . S
C1368 C1366 1.478 . S
C1368 C1370 1.381 . S
C1368 C1374 1.383 . S
C1369 C1365 1.495 . S
C1369 H1375 0.959 . S
C1369 H1376 0.961 . S
C1369 H1377 0.960 . S
C1370 C1368 1.381 . S
C1370 C1371 1.394 . S
C1370 H1378 0.930 . S
C1371 C1370 1.394 . S
C1371 C1372 1.383 . S
C1371 H1379 0.929 . S
C1372 C1371 1.383 . S
C1372 C1373 1.377 . S
C1373 H1357 0.930 . S
C1373 C1372 1.377 . S
C1373 C1374 1.379 . S
C1374 H1358 0.931 . S
C1374 C1368 1.383 . S
C1374 C1373 1.379 . S
H1375 C1369 0.959 . S
H1376 C1369 0.961 . S
H1377 C1369 0.960 . S
H1378 C1370 0.930 . S
H1379 C1371 0.929 . S
H1380 C1388 0.929 . S
H1381 C1390 0.930 . S
H1382 C1392 0.930 . S
H1383 C1395 0.929 . S
H1384 C1398 0.930 . S
H1385 C1400 0.960 . S
H1386 C1400 0.960 . S
H1387 C1400 0.960 . S
C1388 H1380 0.929 . S
C1388 C1389 1.377 . S
C1388 C1390 1.384 . S
C1389 C1388 1.377 . S
C1389 C1395 1.390 . S
C1390 H1381 0.930 . S
C1390 C1388 1.384 . S
C1390 C1391 1.372 . S
C1391 C1390 1.372 . S
C1391 C1392 1.400 . S
C1391 C1396 1.490 . S
C1392 H1382 0.930 . S
C1392 C1391 1.400 . S
C1392 C1395 1.386 . S
H1393 C1409 0.930 . S
H1394 C1410 0.931 . S
C1395 H1383 0.929 . S
C1395 C1389 1.390 . S
C1395 C1392 1.386 . S
C1396 C1391 1.490 . S
C1396 C1398 1.395 . S
C1396 C1399 1.403 . S
H1397 C1403 0.930 . S
C1398 H1384 0.930 . S
C1398 C1396 1.395 . S
C1398 C1401 1.403 1_545 S
C1399 C1396 1.403 . S
C1399 C1400 1.524 . S
C1399 C1403 1.400 1_545 S
C1400 H1385 0.960 . S
C1400 H1386 0.960 . S
C1400 H1387 0.960 . S
C1400 C1399 1.524 . S
C1401 C1398 1.403 1_565 S
C1401 C1402 1.392 . S
C1401 C1405 1.495 . S
C1402 C1401 1.392 . S
C1402 C1403 1.385 . S
C1402 C1404 1.478 . S
C1403 H1397 0.930 . S
C1403 C1399 1.400 1_565 S
C1403 C1402 1.385 . S
C1404 C1402 1.478 . S
C1404 C1406 1.381 . S
C1404 C1410 1.383 . S
C1405 C1401 1.495 . S
C1405 H1411 0.959 . S
C1405 H1412 0.961 . S
C1405 H1413 0.960 . S
C1406 C1404 1.381 . S
C1406 C1407 1.394 . S
C1406 H1414 0.930 . S
C1407 C1406 1.394 . S
C1407 C1408 1.383 . S
C1407 H1415 0.929 . S
C1408 C1407 1.383 . S
C1408 C1409 1.377 . S
C1409 H1393 0.930 . S
C1409 C1408 1.377 . S
C1409 C1410 1.379 . S
C1410 H1394 0.931 . S
C1410 C1404 1.383 . S
C1410 C1409 1.379 . S
H1411 C1405 0.959 . S
H1412 C1405 0.961 . S
H1413 C1405 0.960 . S
H1414 C1406 0.930 . S
H1415 C1407 0.929 . S
H1416 C1424 0.929 . S
H1417 C1426 0.930 . S
H1418 C1428 0.930 . S
H1419 C1431 0.929 . S
H1420 C1434 0.930 . S
H1421 C1436 0.960 . S
H1422 C1436 0.960 . S
H1423 C1436 0.960 . S
C1424 H1416 0.929 . S
C1424 C1425 1.377 . S
C1424 C1426 1.384 . S
C1425 C1424 1.377 . S
C1425 C1431 1.390 . S
C1426 H1417 0.930 . S
C1426 C1424 1.384 . S
C1426 C1427 1.372 . S
C1427 C1426 1.372 . S
C1427 C1428 1.400 . S
C1427 C1432 1.490 . S
C1428 H1418 0.930 . S
C1428 C1427 1.400 . S
C1428 C1431 1.386 . S
H1429 C1445 0.930 . S
H1430 C1446 0.931 . S
C1431 H1419 0.929 . S
C1431 C1425 1.390 . S
C1431 C1428 1.386 . S
C1432 C1427 1.490 . S
C1432 C1434 1.395 . S
C1432 C1435 1.403 . S
H1433 C1439 0.930 . S
C1434 H1420 0.930 . S
C1434 C1432 1.395 . S
C1434 C1437 1.403 . S
C1435 C1432 1.403 . S
C1435 C1436 1.524 . S
C1435 C1439 1.400 . S
C1436 H1421 0.960 . S
C1436 H1422 0.960 . S
C1436 H1423 0.960 . S
C1436 C1435 1.524 . S
C1437 C1434 1.403 . S
C1437 C1438 1.392 . S
C1437 C1441 1.495 . S
C1438 C1437 1.392 . S
C1438 C1439 1.385 . S
C1438 C1440 1.478 . S
C1439 H1433 0.930 . S
C1439 C1435 1.400 . S
C1439 C1438 1.385 . S
C1440 C1438 1.478 . S
C1440 C1442 1.381 . S
C1440 C1446 1.383 . S
C1441 C1437 1.495 . S
C1441 H1447 0.959 . S
C1441 H1448 0.961 . S
C1441 H1449 0.960 . S
C1442 C1440 1.381 . S
C1442 C1443 1.394 . S
C1442 H1450 0.930 . S
C1443 C1442 1.394 . S
C1443 C1444 1.383 . S
C1443 H1451 0.929 . S
C1444 C1443 1.383 . S
C1444 C1445 1.377 . S
C1445 H1429 0.930 . S
C1445 C1444 1.377 . S
C1445 C1446 1.379 . S
C1446 H1430 0.931 . S
C1446 C1440 1.383 . S
C1446 C1445 1.379 . S
H1447 C1441 0.959 . S
H1448 C1441 0.961 . S
H1449 C1441 0.960 . S
H1450 C1442 0.930 . S
H1451 C1443 0.929 . S
H1452 C1460 0.929 . S
H1453 C1462 0.930 . S
H1454 C1464 0.930 . S
H1455 C1467 0.929 . S
H1456 C1470 0.930 . S
H1457 C1472 0.960 . S
H1458 C1472 0.960 . S
H1459 C1472 0.960 . S
C1460 H1452 0.929 . S
C1460 C1461 1.377 . S
C1460 C1462 1.384 . S
C1461 C1460 1.377 . S
C1461 C1467 1.390 . S
C1462 H1453 0.930 . S
C1462 C1460 1.384 . S
C1462 C1463 1.372 . S
C1463 C1462 1.372 . S
C1463 C1464 1.400 . S
C1463 C1468 1.490 . S
C1464 H1454 0.930 . S
C1464 C1463 1.400 . S
C1464 C1467 1.386 . S
H1465 C1481 0.930 . S
H1466 C1482 0.931 . S
C1467 H1455 0.929 . S
C1467 C1461 1.390 . S
C1467 C1464 1.386 . S
C1468 C1463 1.490 . S
C1468 C1470 1.395 . S
C1468 C1471 1.403 . S
H1469 C1475 0.930 . S
C1470 H1456 0.930 . S
C1470 C1468 1.395 . S
C1470 C1473 1.403 1_655 S
C1471 C1468 1.403 . S
C1471 C1472 1.524 . S
C1471 C1475 1.400 1_655 S
C1472 H1457 0.960 . S
C1472 H1458 0.960 . S
C1472 H1459 0.960 . S
C1472 C1471 1.524 . S
C1473 C1470 1.403 1_455 S
C1473 C1474 1.392 . S
C1473 C1477 1.495 . S
C1474 C1473 1.392 . S
C1474 C1475 1.385 . S
C1474 C1476 1.478 . S
C1475 H1469 0.930 . S
C1475 C1471 1.400 1_455 S
C1475 C1474 1.385 . S
C1476 C1474 1.478 . S
C1476 C1478 1.381 . S
C1476 C1482 1.383 . S
C1477 C1473 1.495 . S
C1477 H1483 0.959 . S
C1477 H1484 0.961 . S
C1477 H1485 0.960 . S
C1478 C1476 1.381 . S
C1478 C1479 1.394 . S
C1478 H1486 0.930 . S
C1479 C1478 1.394 . S
C1479 C1480 1.383 . S
C1479 H1487 0.929 . S
C1480 C1479 1.383 . S
C1480 C1481 1.377 . S
C1481 H1465 0.930 . S
C1481 C1480 1.377 . S
C1481 C1482 1.379 . S
C1482 H1466 0.931 . S
C1482 C1476 1.383 . S
C1482 C1481 1.379 . S
H1483 C1477 0.959 . S
H1484 C1477 0.961 . S
H1485 C1477 0.960 . S
H1486 C1478 0.930 . S
H1487 C1479 0.929 . S
H1488 C1496 0.929 . S
H1489 C1498 0.930 . S
H1490 C1500 0.930 . S
H1491 C1503 0.929 . S
H1492 C1506 0.930 . S
H1493 C1508 0.960 . S
H1494 C1508 0.960 . S
H1495 C1508 0.960 . S
C1496 H1488 0.929 . S
C1496 C1497 1.377 . S
C1496 C1498 1.384 . S
C1497 C1496 1.377 . S
C1497 C1503 1.390 . S
C1498 H1489 0.930 . S
C1498 C1496 1.384 . S
C1498 C1499 1.372 . S
C1499 C1498 1.372 . S
C1499 C1500 1.400 . S
C1499 C1504 1.490 . S
C1500 H1490 0.930 . S
C1500 C1499 1.400 . S
C1500 C1503 1.386 . S
H1501 C1517 0.930 . S
H1502 C1518 0.931 . S
C1503 H1491 0.929 . S
C1503 C1497 1.390 . S
C1503 C1500 1.386 . S
C1504 C1499 1.490 . S
C1504 C1506 1.395 . S
C1504 C1507 1.403 . S
H1505 C1511 0.930 . S
C1506 H1492 0.930 . S
C1506 C1504 1.395 . S
C1506 C1509 1.403 1_545 S
C1507 C1504 1.403 . S
C1507 C1508 1.524 . S
C1507 C1511 1.400 1_545 S
C1508 H1493 0.960 . S
C1508 H1494 0.960 . S
C1508 H1495 0.960 . S
C1508 C1507 1.524 . S
C1509 C1506 1.403 1_565 S
C1509 C1510 1.392 . S
C1509 C1513 1.495 . S
C1510 C1509 1.392 . S
C1510 C1511 1.385 . S
C1510 C1512 1.478 . S
C1511 H1505 0.930 . S
C1511 C1507 1.400 1_565 S
C1511 C1510 1.385 . S
C1512 C1510 1.478 . S
C1512 C1514 1.381 . S
C1512 C1518 1.383 . S
C1513 C1509 1.495 . S
C1513 H1519 0.959 . S
C1513 H1520 0.961 . S
C1513 H1521 0.960 . S
C1514 C1512 1.381 . S
C1514 C1515 1.394 . S
C1514 H1522 0.930 . S
C1515 C1514 1.394 . S
C1515 C1516 1.383 . S
C1515 H1523 0.929 . S
C1516 C1515 1.383 . S
C1516 C1517 1.377 . S
C1517 H1501 0.930 . S
C1517 C1516 1.377 . S
C1517 C1518 1.379 . S
C1518 H1502 0.931 . S
C1518 C1512 1.383 . S
C1518 C1517 1.379 . S
H1519 C1513 0.959 . S
H1520 C1513 0.961 . S
H1521 C1513 0.960 . S
H1522 C1514 0.930 . S
H1523 C1515 0.929 . S
H1524 C1532 0.929 . S
H1525 C1534 0.930 . S
H1526 C1536 0.930 . S
H1527 C1539 0.929 . S
H1528 C1542 0.930 . S
H1529 C1544 0.960 . S
H1530 C1544 0.960 . S
H1531 C1544 0.960 . S
C1532 H1524 0.929 . S
C1532 C1533 1.377 . S
C1532 C1534 1.384 . S
C1533 C1532 1.377 . S
C1533 C1539 1.390 . S
C1534 H1525 0.930 . S
C1534 C1532 1.384 . S
C1534 C1535 1.372 . S
C1535 C1534 1.372 . S
C1535 C1536 1.400 . S
C1535 C1540 1.490 . S
C1536 H1526 0.930 . S
C1536 C1535 1.400 . S
C1536 C1539 1.386 . S
H1537 C1553 0.930 . S
H1538 C1554 0.931 . S
C1539 H1527 0.929 . S
C1539 C1533 1.390 . S
C1539 C1536 1.386 . S
C1540 C1535 1.490 . S
C1540 C1542 1.395 . S
C1540 C1543 1.403 . S
H1541 C1547 0.930 . S
C1542 H1528 0.930 . S
C1542 C1540 1.395 . S
C1542 C1545 1.403 . S
C1543 C1540 1.403 . S
C1543 C1544 1.524 . S
C1543 C1547 1.400 . S
C1544 H1529 0.960 . S
C1544 H1530 0.960 . S
C1544 H1531 0.960 . S
C1544 C1543 1.524 . S
C1545 C1542 1.403 . S
C1545 C1546 1.392 . S
C1545 C1549 1.495 . S
C1546 C1545 1.392 . S
C1546 C1547 1.385 . S
C1546 C1548 1.478 . S
C1547 H1541 0.930 . S
C1547 C1543 1.400 . S
C1547 C1546 1.385 . S
C1548 C1546 1.478 . S
C1548 C1550 1.381 . S
C1548 C1554 1.383 . S
C1549 C1545 1.495 . S
C1549 H1555 0.959 . S
C1549 H1556 0.961 . S
C1549 H1557 0.960 . S
C1550 C1548 1.381 . S
C1550 C1551 1.394 . S
C1550 H1558 0.930 . S
C1551 C1550 1.394 . S
C1551 C1552 1.383 . S
C1551 H1559 0.929 . S
C1552 C1551 1.383 . S
C1552 C1553 1.377 . S
C1553 H1537 0.930 . S
C1553 C1552 1.377 . S
C1553 C1554 1.379 . S
C1554 H1538 0.931 . S
C1554 C1548 1.383 . S
C1554 C1553 1.379 . S
H1555 C1549 0.959 . S
H1556 C1549 0.961 . S
H1557 C1549 0.960 . S
H1558 C1550 0.930 . S
H1559 C1551 0.929 . S
H1560 C1568 0.929 . S
H1561 C1570 0.930 . S
H1562 C1572 0.930 . S
H1563 C1575 0.929 . S
H1564 C1578 0.930 . S
H1565 C1580 0.960 . S
H1566 C1580 0.960 . S
H1567 C1580 0.960 . S
C1568 H1560 0.929 . S
C1568 C1569 1.377 . S
C1568 C1570 1.384 . S
C1569 C1568 1.377 . S
C1569 C1575 1.390 . S
C1570 H1561 0.930 . S
C1570 C1568 1.384 . S
C1570 C1571 1.372 . S
C1571 C1570 1.372 . S
C1571 C1572 1.400 . S
C1571 C1576 1.490 . S
C1572 H1562 0.930 . S
C1572 C1571 1.400 . S
C1572 C1575 1.386 . S
H1573 C1589 0.930 . S
H1574 C1590 0.931 . S
C1575 H1563 0.929 . S
C1575 C1569 1.390 . S
C1575 C1572 1.386 . S
C1576 C1571 1.490 . S
C1576 C1578 1.395 . S
C1576 C1579 1.403 . S
H1577 C1583 0.930 . S
C1578 H1564 0.930 . S
C1578 C1576 1.395 . S
C1578 C1581 1.403 1_455 S
C1579 C1576 1.403 . S
C1579 C1580 1.524 . S
C1579 C1583 1.400 1_455 S
C1580 H1565 0.960 . S
C1580 H1566 0.960 . S
C1580 H1567 0.960 . S
C1580 C1579 1.524 . S
C1581 C1578 1.403 1_655 S
C1581 C1582 1.392 . S
C1581 C1585 1.495 . S
C1582 C1581 1.392 . S
C1582 C1583 1.385 . S
C1582 C1584 1.478 . S
C1583 H1577 0.930 . S
C1583 C1579 1.400 1_655 S
C1583 C1582 1.385 . S
C1584 C1582 1.478 . S
C1584 C1586 1.381 . S
C1584 C1590 1.383 . S
C1585 C1581 1.495 . S
C1585 H1591 0.959 . S
C1585 H1592 0.961 . S
C1585 H1593 0.960 . S
C1586 C1584 1.381 . S
C1586 C1587 1.394 . S
C1586 H1594 0.930 . S
C1587 C1586 1.394 . S
C1587 C1588 1.383 . S
C1587 H1595 0.929 . S
C1588 C1587 1.383 . S
C1588 C1589 1.377 . S
C1589 H1573 0.930 . S
C1589 C1588 1.377 . S
C1589 C1590 1.379 . S
C1590 H1574 0.931 . S
C1590 C1584 1.383 . S
C1590 C1589 1.379 . S
H1591 C1585 0.959 . S
H1592 C1585 0.961 . S
H1593 C1585 0.960 . S
H1594 C1586 0.930 . S
H1595 C1587 0.929 . S
H1596 C1604 0.929 . S
H1597 C1606 0.930 . S
H1598 C1608 0.930 . S
H1599 C1611 0.929 . S
H1600 C1614 0.930 . S
H1601 C1616 0.960 . S
H1602 C1616 0.960 . S
H1603 C1616 0.960 . S
C1604 H1596 0.929 . S
C1604 C1605 1.377 . S
C1604 C1606 1.384 . S
C1605 C1604 1.377 . S
C1605 C1611 1.390 . S
C1606 H1597 0.930 . S
C1606 C1604 1.384 . S
C1606 C1607 1.372 . S
C1607 C1606 1.372 . S
C1607 C1608 1.400 . S
C1607 C1612 1.490 . S
C1608 H1598 0.930 . S
C1608 C1607 1.400 . S
C1608 C1611 1.386 . S
H1609 C1625 0.930 . S
H1610 C1626 0.931 . S
C1611 H1599 0.929 . S
C1611 C1605 1.390 . S
C1611 C1608 1.386 . S
C1612 C1607 1.490 . S
C1612 C1614 1.395 . S
C1612 C1615 1.403 . S
H1613 C1619 0.930 . S
C1614 H1600 0.930 . S
C1614 C1612 1.395 . S
C1614 C1617 1.403 1_565 S
C1615 C1612 1.403 . S
C1615 C1616 1.524 . S
C1615 C1619 1.400 1_565 S
C1616 H1601 0.960 . S
C1616 H1602 0.960 . S
C1616 H1603 0.960 . S
C1616 C1615 1.524 . S
C1617 C1614 1.403 1_545 S
C1617 C1618 1.392 . S
C1617 C1621 1.495 . S
C1618 C1617 1.392 . S
C1618 C1619 1.385 . S
C1618 C1620 1.478 . S
C1619 H1613 0.930 . S
C1619 C1615 1.400 1_545 S
C1619 C1618 1.385 . S
C1620 C1618 1.478 . S
C1620 C1622 1.381 . S
C1620 C1626 1.383 . S
C1621 C1617 1.495 . S
C1621 H1627 0.959 . S
C1621 H1628 0.961 . S
C1621 H1629 0.960 . S
C1622 C1620 1.381 . S
C1622 C1623 1.394 . S
C1622 H1630 0.930 . S
C1623 C1622 1.394 . S
C1623 C1624 1.383 . S
C1623 H1631 0.929 . S
C1624 C1623 1.383 . S
C1624 C1625 1.377 . S
C1625 H1609 0.930 . S
C1625 C1624 1.377 . S
C1625 C1626 1.379 . S
C1626 H1610 0.931 . S
C1626 C1620 1.383 . S
C1626 C1625 1.379 . S
H1627 C1621 0.959 . S
H1628 C1621 0.961 . S
H1629 C1621 0.960 . S
H1630 C1622 0.930 . S
H1631 C1623 0.929 . S
H1632 C1640 0.929 . S
H1633 C1642 0.930 . S
H1634 C1644 0.940 . S
H1635 C1647 0.929 . S
H1636 C1650 0.930 . S
H1637 C1652 0.960 . S
H1638 C1652 0.960 . S
H1639 C1652 0.960 . S
C1640 H1632 0.929 . S
C1640 C1641 1.377 . S
C1640 C1642 1.384 . S
C1641 C1640 1.377 . S
C1641 C1647 1.390 . S
C1642 H1633 0.930 . S
C1642 C1640 1.384 . S
C1642 C1643 1.372 . S
C1643 C1642 1.372 . S
C1643 C1644 1.400 . S
C1643 C1648 1.490 . S
C1644 H1634 0.940 . S
C1644 C1643 1.400 . S
C1644 C1647 1.386 . S
H1645 C1661 0.930 . S
H1646 C1662 0.931 . S
C1647 H1635 0.929 . S
C1647 C1641 1.390 . S
C1647 C1644 1.386 . S
C1648 C1643 1.490 . S
C1648 C1650 1.395 . S
C1648 C1651 1.403 1_556 S
H1649 C1655 0.930 . S
C1650 H1636 0.930 . S
C1650 C1648 1.395 . S
C1650 C1653 1.403 . S
C1651 C1648 1.403 1_554 S
C1651 C1652 1.524 . S
C1651 C1655 1.400 . S
C1652 H1637 0.960 . S
C1652 H1638 0.960 . S
C1652 H1639 0.960 . S
C1652 C1651 1.524 . S
C1653 C1650 1.403 . S
C1653 C1654 1.392 1_556 S
C1653 C1657 1.495 . S
C1654 C1653 1.392 1_554 S
C1654 C1655 1.385 . S
C1654 C1656 1.478 . S
C1655 H1649 0.930 . S
C1655 C1651 1.400 . S
C1655 C1654 1.385 . S
C1656 C1654 1.478 . S
C1656 C1658 1.381 . S
C1656 C1662 1.383 . S
C1657 C1653 1.495 . S
C1657 H1663 0.959 . S
C1657 H1664 0.961 . S
C1657 H1665 0.960 . S
C1658 C1656 1.381 . S
C1658 C1659 1.394 . S
C1658 H1666 0.908 1_554 S
C1659 C1658 1.394 . S
C1659 C1660 1.383 . S
C1659 H1667 0.929 . S
C1660 C1659 1.383 . S
C1660 C1661 1.377 . S
C1661 H1645 0.930 . S
C1661 C1660 1.377 . S
C1661 C1662 1.379 . S
C1662 H1646 0.931 . S
C1662 C1656 1.383 . S
C1662 C1661 1.379 . S
H1663 C1657 0.959 . S
H1664 C1657 0.961 . S
H1665 C1657 0.960 . S
H1666 C1658 0.908 1_556 S
H1667 C1659 0.929 . S
H1668 C1676 0.929 . S
H1669 C1678 0.930 . S
H1670 C1680 0.930 . S
H1671 C1683 0.929 . S
H1672 C1686 0.930 . S
H1673 C1688 0.960 . S
H1674 C1688 0.960 . S
H1675 C1688 0.960 . S
C1676 H1668 0.929 . S
C1676 C1677 1.377 . S
C1676 C1678 1.384 . S
C1677 C1676 1.377 . S
C1677 C1683 1.390 . S
C1678 H1669 0.930 . S
C1678 C1676 1.384 . S
C1678 C1679 1.372 . S
C1679 C1678 1.372 . S
C1679 C1680 1.400 . S
C1679 C1684 1.490 . S
C1680 H1670 0.930 . S
C1680 C1679 1.400 . S
C1680 C1683 1.386 . S
H1681 C1697 0.930 . S
H1682 C1698 0.931 . S
C1683 H1671 0.929 . S
C1683 C1677 1.390 . S
C1683 C1680 1.386 . S
C1684 C1679 1.490 . S
C1684 C1686 1.395 . S
C1684 C1687 1.403 . S
H1685 C1691 0.930 . S
C1686 H1672 0.930 . S
C1686 C1684 1.395 . S
C1686 C1689 1.403 . S
C1687 C1684 1.403 . S
C1687 C1688 1.524 . S
C1687 C1691 1.400 . S
C1688 H1673 0.960 . S
C1688 H1674 0.960 . S
C1688 H1675 0.960 . S
C1688 C1687 1.524 . S
C1689 C1686 1.403 . S
C1689 C1690 1.392 . S
C1689 C1693 1.495 . S
C1690 C1689 1.392 . S
C1690 C1691 1.385 . S
C1690 C1692 1.478 . S
C1691 H1685 0.930 . S
C1691 C1687 1.400 . S
C1691 C1690 1.385 . S
C1692 C1690 1.478 . S
C1692 C1694 1.381 . S
C1692 C1698 1.383 . S
C1693 C1689 1.495 . S
C1693 H1699 0.959 . S
C1693 H1700 0.961 . S
C1693 H1701 0.960 . S
C1694 C1692 1.381 . S
C1694 C1695 1.394 . S
C1694 H1702 0.930 . S
C1695 C1694 1.394 . S
C1695 C1696 1.383 . S
C1695 H1703 0.929 . S
C1696 C1695 1.383 . S
C1696 C1697 1.377 . S
C1697 H1681 0.930 . S
C1697 C1696 1.377 . S
C1697 C1698 1.379 . S
C1698 H1682 0.931 . S
C1698 C1692 1.383 . S
C1698 C1697 1.379 . S
H1699 C1693 0.959 . S
H1700 C1693 0.961 . S
H1701 C1693 0.960 . S
H1702 C1694 0.930 . S
H1703 C1695 0.929 . S
H1704 C1712 0.929 . S
H1705 C1714 0.930 . S
H1706 C1716 0.930 . S
H1707 C1719 0.929 . S
H1708 C1722 0.930 . S
H1709 C1724 0.960 . S
H1710 C1724 0.960 . S
H1711 C1724 0.960 . S
C1712 H1704 0.929 . S
C1712 C1713 1.377 . S
C1712 C1714 1.384 . S
C1713 C1712 1.377 . S
C1713 C1719 1.390 . S
C1714 H1705 0.930 . S
C1714 C1712 1.384 . S
C1714 C1715 1.372 . S
C1715 C1714 1.372 . S
C1715 C1716 1.400 . S
C1715 C1720 1.490 . S
C1716 H1706 0.930 . S
C1716 C1715 1.400 . S
C1716 C1719 1.386 . S
H1717 C1733 0.930 . S
H1718 C1734 0.931 . S
C1719 H1707 0.929 . S
C1719 C1713 1.390 . S
C1719 C1716 1.386 . S
C1720 C1715 1.490 . S
C1720 C1722 1.395 1_556 S
C1720 C1723 1.403 . S
H1721 C1727 0.930 . S
C1722 H1708 0.930 . S
C1722 C1720 1.395 1_554 S
C1722 C1725 1.403 . S
C1723 C1720 1.403 . S
C1723 C1724 1.524 . S
C1723 C1727 1.400 . S
C1724 H1709 0.960 . S
C1724 H1710 0.960 . S
C1724 H1711 0.960 . S
C1724 C1723 1.524 . S
C1725 C1722 1.403 . S
C1725 C1726 1.392 . S
C1725 C1729 1.495 . S
C1726 C1725 1.392 . S
C1726 C1727 1.385 1_554 S
C1726 C1728 1.478 . S
C1727 H1721 0.930 . S
C1727 C1723 1.400 . S
C1727 C1726 1.385 1_556 S
C1728 C1726 1.478 . S
C1728 C1730 1.381 . S
C1728 C1734 1.383 . S
C1729 C1725 1.495 . S
C1729 H1735 0.959 . S
C1729 H1736 0.961 . S
C1729 H1737 0.960 . S
C1730 C1728 1.381 . S
C1730 C1731 1.394 . S
C1730 H1738 0.930 . S
C1731 C1730 1.394 . S
C1731 C1732 1.383 . S
C1731 H1739 0.929 . S
C1732 C1731 1.383 . S
C1732 C1733 1.377 . S
C1733 H1717 0.930 . S
C1733 C1732 1.377 . S
C1733 C1734 1.379 . S
C1734 H1718 0.931 . S
C1734 C1728 1.383 . S
C1734 C1733 1.379 . S
H1735 C1729 0.959 . S
H1736 C1729 0.961 . S
H1737 C1729 0.960 . S
H1738 C1730 0.930 . S
H1739 C1731 0.929 . S
H1740 C1748 0.929 . S
H1741 C1750 0.930 . S
H1742 C1752 0.930 . S
H1743 C1755 0.929 . S
H1744 C1758 0.930 . S
H1745 C1760 0.960 . S
H1746 C1760 0.960 . S
H1747 C1760 0.960 . S
C1748 H1740 0.929 . S
C1748 C1749 1.377 . S
C1748 C1750 1.384 . S
C1749 C1748 1.377 . S
C1749 C1755 1.390 . S
C1750 H1741 0.930 . S
C1750 C1748 1.384 . S
C1750 C1751 1.372 . S
C1751 C1750 1.372 . S
C1751 C1752 1.400 . S
C1751 C1756 1.490 . S
C1752 H1742 0.930 . S
C1752 C1751 1.400 . S
C1752 C1755 1.386 . S
H1753 C1769 0.930 . S
H1754 C1770 0.931 . S
C1755 H1743 0.929 . S
C1755 C1749 1.390 . S
C1755 C1752 1.386 . S
C1756 C1751 1.490 . S
C1756 C1758 1.395 . S
C1756 C1759 1.403 . S
H1757 C1763 0.930 . S
C1758 H1744 0.930 . S
C1758 C1756 1.395 . S
C1758 C1761 1.403 . S
C1759 C1756 1.403 . S
C1759 C1760 1.524 . S
C1759 C1763 1.400 . S
C1760 H1745 0.960 . S
C1760 H1746 0.960 . S
C1760 H1747 0.960 . S
C1760 C1759 1.524 . S
C1761 C1758 1.403 . S
C1761 C1762 1.392 . S
C1761 C1765 1.495 . S
C1762 C1761 1.392 . S
C1762 C1763 1.385 . S
C1762 C1764 1.478 . S
C1763 H1757 0.930 . S
C1763 C1759 1.400 . S
C1763 C1762 1.385 . S
C1764 C1762 1.478 . S
C1764 C1766 1.381 . S
C1764 C1770 1.383 . S
C1765 C1761 1.495 . S
C1765 H1771 0.959 . S
C1765 H1772 0.961 . S
C1765 H1773 0.960 . S
C1766 C1764 1.381 . S
C1766 C1767 1.394 . S
C1766 H1774 0.930 . S
C1767 C1766 1.394 . S
C1767 C1768 1.383 . S
C1767 H1775 0.929 . S
C1768 C1767 1.383 . S
C1768 C1769 1.377 . S
C1769 H1753 0.930 . S
C1769 C1768 1.377 . S
C1769 C1770 1.379 . S
C1770 H1754 0.931 . S
C1770 C1764 1.383 . S
C1770 C1769 1.379 . S
H1771 C1765 0.959 . S
H1772 C1765 0.961 . S
H1773 C1765 0.960 . S
H1774 C1766 0.930 . S
H1775 C1767 0.929 . S
H1776 C1784 0.929 . S
H1777 C1786 0.930 . S
H1778 C1788 0.930 1_554 S
H1779 C1791 0.929 . S
H1780 C1794 0.930 . S
H1781 C1796 0.960 . S
H1782 C1796 0.960 . S
H1783 C1796 0.960 . S
C1784 H1776 0.929 . S
C1784 C1785 1.377 . S
C1784 C1786 1.384 . S
C1785 C1784 1.377 . S
C1785 C1791 1.390 . S
C1786 H1777 0.930 . S
C1786 C1784 1.384 . S
C1786 C1787 1.372 . S
C1787 C1786 1.372 . S
C1787 C1788 1.400 . S
C1787 C1792 1.490 . S
C1788 H1778 0.930 1_556 S
C1788 C1787 1.400 . S
C1788 C1791 1.386 . S
H1789 C1805 0.930 . S
H1790 C1806 0.931 . S
C1791 H1779 0.929 . S
C1791 C1785 1.390 . S
C1791 C1788 1.386 . S
C1792 C1787 1.490 . S
C1792 C1794 1.395 . S
C1792 C1795 1.403 1_556 S
H1793 C1799 0.930 . S
C1794 H1780 0.930 . S
C1794 C1792 1.395 . S
C1794 C1797 1.403 . S
C1795 C1792 1.403 1_554 S
C1795 C1796 1.524 . S
C1795 C1799 1.400 . S
C1796 H1781 0.960 . S
C1796 H1782 0.960 . S
C1796 H1783 0.960 . S
C1796 C1795 1.524 . S
C1797 C1794 1.403 . S
C1797 C1798 1.392 1_556 S
C1797 C1801 1.495 . S
C1798 C1797 1.392 1_554 S
C1798 C1799 1.385 . S
C1798 C1800 1.478 . S
C1799 H1793 0.930 . S
C1799 C1795 1.400 . S
C1799 C1798 1.385 . S
C1800 C1798 1.478 . S
C1800 C1802 1.381 . S
C1800 C1806 1.383 . S
C1801 C1797 1.495 . S
C1801 H1807 0.959 . S
C1801 H1808 0.961 . S
C1801 H1809 0.960 . S
C1802 C1800 1.381 . S
C1802 C1803 1.394 . S
C1802 H1810 0.930 1_554 S
C1803 C1802 1.394 . S
C1803 C1804 1.383 . S
C1803 H1811 0.929 . S
C1804 C1803 1.383 . S
C1804 C1805 1.377 . S
C1805 H1789 0.930 . S
C1805 C1804 1.377 . S
C1805 C1806 1.379 . S
C1806 H1790 0.931 . S
C1806 C1800 1.383 . S
C1806 C1805 1.379 . S
H1807 C1801 0.959 . S
H1808 C1801 0.961 . S
H1809 C1801 0.960 . S
H1810 C1802 0.930 1_556 S
H1811 C1803 0.929 . S
H1812 C1820 0.929 . S
H1813 C1822 0.930 . S
H1814 C1824 0.930 . S
H1815 C1827 0.929 . S
H1816 C1830 0.930 . S
H1817 C1832 0.960 . S
H1818 C1832 0.960 . S
H1819 C1832 0.960 . S
C1820 H1812 0.929 . S
C1820 C1821 1.377 . S
C1820 C1822 1.384 . S
C1821 C1820 1.377 . S
C1821 C1827 1.390 . S
C1822 H1813 0.930 . S
C1822 C1820 1.384 . S
C1822 C1823 1.372 . S
C1823 C1822 1.372 . S
C1823 C1824 1.400 . S
C1823 C1828 1.490 . S
C1824 H1814 0.930 . S
C1824 C1823 1.400 . S
C1824 C1827 1.386 . S
H1825 C1841 0.930 . S
H1826 C1842 0.931 . S
C1827 H1815 0.929 . S
C1827 C1821 1.390 . S
C1827 C1824 1.386 . S
C1828 C1823 1.490 . S
C1828 C1830 1.395 . S
C1828 C1831 1.403 . S
H1829 C1835 0.930 . S
C1830 H1816 0.930 . S
C1830 C1828 1.395 . S
C1830 C1833 1.403 . S
C1831 C1828 1.403 . S
C1831 C1832 1.524 . S
C1831 C1835 1.400 . S
C1832 H1817 0.960 . S
C1832 H1818 0.960 . S
C1832 H1819 0.960 . S
C1832 C1831 1.524 . S
C1833 C1830 1.403 . S
C1833 C1834 1.392 . S
C1833 C1837 1.495 . S
C1834 C1833 1.392 . S
C1834 C1835 1.385 . S
C1834 C1836 1.478 . S
C1835 H1829 0.930 . S
C1835 C1831 1.400 . S
C1835 C1834 1.385 . S
C1836 C1834 1.478 . S
C1836 C1838 1.381 . S
C1836 C1842 1.383 . S
C1837 C1833 1.495 . S
C1837 H1843 0.959 . S
C1837 H1844 0.961 . S
C1837 H1845 0.960 . S
C1838 C1836 1.381 . S
C1838 C1839 1.394 . S
C1838 H1846 0.930 . S
C1839 C1838 1.394 . S
C1839 C1840 1.383 . S
C1839 H1847 0.929 . S
C1840 C1839 1.383 . S
C1840 C1841 1.377 . S
C1841 H1825 0.930 . S
C1841 C1840 1.377 . S
C1841 C1842 1.379 . S
C1842 H1826 0.931 . S
C1842 C1836 1.383 . S
C1842 C1841 1.379 . S
H1843 C1837 0.959 . S
H1844 C1837 0.961 . S
H1845 C1837 0.960 . S
H1846 C1838 0.930 . S
H1847 C1839 0.929 . S
H1848 C1856 0.929 . S
H1849 C1858 0.930 . S
H1850 C1860 0.925 1_556 S
H1851 C1863 0.929 . S
H1852 C1866 0.930 . S
H1853 C1868 0.960 . S
H1854 C1868 0.960 . S
H1855 C1868 0.960 . S
C1856 H1848 0.929 . S
C1856 C1857 1.377 . S
C1856 C1858 1.384 . S
C1857 C1856 1.377 . S
C1857 C1863 1.390 . S
C1858 H1849 0.930 . S
C1858 C1856 1.384 . S
C1858 C1859 1.372 . S
C1859 C1858 1.372 . S
C1859 C1860 1.400 . S
C1859 C1864 1.490 . S
C1860 H1850 0.925 1_554 S
C1860 C1859 1.400 . S
C1860 C1863 1.386 . S
H1861 C1877 0.930 . S
H1862 C1878 0.931 . S
C1863 H1851 0.929 . S
C1863 C1857 1.390 . S
C1863 C1860 1.386 . S
C1864 C1859 1.490 . S
C1864 C1866 1.395 . S
C1864 C1867 1.403 . S
H1865 C1871 0.930 . S
C1866 H1852 0.930 . S
C1866 C1864 1.395 . S
C1866 C1869 1.403 1_554 S
C1867 C1864 1.403 . S
C1867 C1868 1.524 . S
C1867 C1871 1.400 1_554 S
C1868 H1853 0.960 . S
C1868 H1854 0.960 . S
C1868 H1855 0.960 . S
C1868 C1867 1.524 . S
C1869 C1866 1.403 1_556 S
C1869 C1870 1.392 . S
C1869 C1873 1.495 . S
C1870 C1869 1.392 . S
C1870 C1871 1.385 . S
C1870 C1872 1.478 . S
C1871 H1865 0.930 . S
C1871 C1867 1.400 1_556 S
C1871 C1870 1.385 . S
C1872 C1870 1.478 . S
C1872 C1874 1.381 . S
C1872 C1878 1.383 . S
C1873 C1869 1.495 . S
C1873 H1879 0.959 . S
C1873 H1880 0.961 . S
C1873 H1881 0.960 . S
C1874 C1872 1.381 . S
C1874 C1875 1.394 . S
C1874 H1882 0.930 1_556 S
C1875 C1874 1.394 . S
C1875 C1876 1.383 . S
C1875 H1883 0.929 . S
C1876 C1875 1.383 . S
C1876 C1877 1.377 . S
C1877 H1861 0.930 . S
C1877 C1876 1.377 . S
C1877 C1878 1.379 . S
C1878 H1862 0.931 . S
C1878 C1872 1.383 . S
C1878 C1877 1.379 . S
H1879 C1873 0.959 . S
H1880 C1873 0.961 . S
H1881 C1873 0.960 . S
H1882 C1874 0.930 1_554 S
H1883 C1875 0.929 . S
H1884 C1892 0.929 . S
H1885 C1894 0.930 . S
H1886 C1896 0.930 . S
H1887 C1899 0.929 . S
H1888 C1902 0.930 . S
H1889 C1904 0.960 . S
H1890 C1904 0.960 . S
H1891 C1904 0.960 . S
C1892 H1884 0.929 . S
C1892 C1893 1.377 . S
C1892 C1894 1.384 . S
C1893 C1892 1.377 . S
C1893 C1899 1.390 . S
C1894 H1885 0.930 . S
C1894 C1892 1.384 . S
C1894 C1895 1.372 . S
C1895 C1894 1.372 . S
C1895 C1896 1.400 . S
C1895 C1900 1.490 . S
C1896 H1886 0.930 . S
C1896 C1895 1.400 . S
C1896 C1899 1.386 . S
H1897 C1913 0.930 . S
H1898 C1914 0.931 . S
C1899 H1887 0.929 . S
C1899 C1893 1.390 . S
C1899 C1896 1.386 . S
C1900 C1895 1.490 . S
C1900 C1902 1.395 . S
C1900 C1903 1.403 . S
H1901 C1907 0.930 . S
C1902 H1888 0.930 . S
C1902 C1900 1.395 . S
C1902 C1905 1.403 . S
C1903 C1900 1.403 . S
C1903 C1904 1.524 . S
C1903 C1907 1.400 . S
C1904 H1889 0.960 . S
C1904 H1890 0.960 . S
C1904 H1891 0.960 . S
C1904 C1903 1.524 . S
C1905 C1902 1.403 . S
C1905 C1906 1.392 . S
C1905 C1909 1.495 . S
C1906 C1905 1.392 . S
C1906 C1907 1.385 . S
C1906 C1908 1.478 . S
C1907 H1901 0.930 . S
C1907 C1903 1.400 . S
C1907 C1906 1.385 . S
C1908 C1906 1.478 . S
C1908 C1910 1.381 . S
C1908 C1914 1.383 . S
C1909 C1905 1.495 . S
C1909 H1915 0.959 . S
C1909 H1916 0.961 . S
C1909 H1917 0.960 . S
C1910 C1908 1.381 . S
C1910 C1911 1.394 . S
C1910 H1918 0.930 . S
C1911 C1910 1.394 . S
C1911 C1912 1.383 . S
C1911 H1919 0.929 . S
C1912 C1911 1.383 . S
C1912 C1913 1.377 . S
C1913 H1897 0.930 . S
C1913 C1912 1.377 . S
C1913 C1914 1.379 . S
C1914 H1898 0.931 . S
C1914 C1908 1.383 . S
C1914 C1913 1.379 . S
H1915 C1909 0.959 . S
H1916 C1909 0.961 . S
H1917 C1909 0.960 . S
H1918 C1910 0.930 . S
H1919 C1911 0.929 . S
H1920 C1928 0.929 . S
H1921 C1930 0.930 . S
H1922 C1932 0.930 . S
H1923 C1935 0.929 . S
H1924 C1938 0.930 . S
H1925 C1940 0.960 . S
H1926 C1940 0.960 . S
H1927 C1940 0.960 . S
C1928 H1920 0.929 . S
C1928 C1929 1.377 . S
C1928 C1930 1.384 . S
C1929 C1928 1.377 . S
C1929 C1935 1.390 . S
C1930 H1921 0.930 . S
C1930 C1928 1.384 . S
C1930 C1931 1.372 . S
C1931 C1930 1.372 . S
C1931 C1932 1.400 . S
C1931 C1936 1.490 . S
C1932 H1922 0.930 . S
C1932 C1931 1.400 . S
C1932 C1935 1.386 . S
H1933 C1949 0.930 . S
H1934 C1950 0.931 . S
C1935 H1923 0.929 . S
C1935 C1929 1.390 . S
C1935 C1932 1.386 . S
C1936 C1931 1.490 . S
C1936 C1938 1.395 1_554 S
C1936 C1939 1.403 . S
H1937 C1943 0.930 . S
C1938 H1924 0.930 . S
C1938 C1936 1.395 1_556 S
C1938 C1941 1.403 . S
C1939 C1936 1.403 . S
C1939 C1940 1.524 . S
C1939 C1943 1.400 . S
C1940 H1925 0.960 . S
C1940 H1926 0.960 . S
C1940 H1927 0.960 . S
C1940 C1939 1.524 . S
C1941 C1938 1.403 . S
C1941 C1942 1.392 . S
C1941 C1945 1.495 . S
C1942 C1941 1.392 . S
C1942 C1943 1.385 1_556 S
C1942 C1944 1.478 . S
C1943 H1937 0.930 . S
C1943 C1939 1.400 . S
C1943 C1942 1.385 1_554 S
C1944 C1942 1.478 . S
C1944 C1946 1.381 . S
C1944 C1950 1.383 . S
C1945 C1941 1.495 . S
C1945 H1951 0.959 . S
C1945 H1952 0.961 . S
C1945 H1953 0.960 . S
C1946 C1944 1.381 . S
C1946 C1947 1.394 . S
C1946 H1954 0.930 . S
C1947 C1946 1.394 . S
C1947 C1948 1.383 . S
C1947 H1955 0.929 . S
C1948 C1947 1.383 . S
C1948 C1949 1.377 . S
C1949 H1933 0.930 . S
C1949 C1948 1.377 . S
C1949 C1950 1.379 . S
C1950 H1934 0.931 . S
C1950 C1944 1.383 . S
C1950 C1949 1.379 . S
H1951 C1945 0.959 . S
H1952 C1945 0.961 . S
H1953 C1945 0.960 . S
H1954 C1946 0.930 . S
H1955 C1947 0.929 . S
H1956 C1964 0.929 . S
H1957 C1966 0.930 . S
H1958 C1968 0.930 . S
H1959 C1971 0.929 . S
H1960 C1974 0.930 . S
H1961 C1976 0.960 . S
H1962 C1976 0.960 . S
H1963 C1976 0.960 . S
C1964 H1956 0.929 . S
C1964 C1965 1.377 . S
C1964 C1966 1.384 . S
C1965 C1964 1.377 . S
C1965 C1971 1.390 . S
C1966 H1957 0.930 . S
C1966 C1964 1.384 . S
C1966 C1967 1.372 . S
C1967 C1966 1.372 . S
C1967 C1968 1.400 . S
C1967 C1972 1.490 . S
C1968 H1958 0.930 . S
C1968 C1967 1.400 . S
C1968 C1971 1.386 . S
H1969 C1985 0.930 . S
H1970 C1986 0.931 . S
C1971 H1959 0.929 . S
C1971 C1965 1.390 . S
C1971 C1968 1.386 . S
C1972 C1967 1.490 . S
C1972 C1974 1.395 . S
C1972 C1975 1.403 . S
H1973 C1979 0.930 . S
C1974 H1960 0.930 . S
C1974 C1972 1.395 . S
C1974 C1977 1.403 . S
C1975 C1972 1.403 . S
C1975 C1976 1.524 . S
C1975 C1979 1.400 . S
C1976 H1961 0.960 . S
C1976 H1962 0.960 . S
C1976 H1963 0.960 . S
C1976 C1975 1.524 . S
C1977 C1974 1.403 . S
C1977 C1978 1.392 . S
C1977 C1981 1.495 . S
C1978 C1977 1.392 . S
C1978 C1979 1.385 . S
C1978 C1980 1.478 . S
C1979 H1973 0.930 . S
C1979 C1975 1.400 . S
C1979 C1978 1.385 . S
C1980 C1978 1.478 . S
C1980 C1982 1.381 . S
C1980 C1986 1.383 . S
C1981 C1977 1.495 . S
C1981 H1987 0.959 . S
C1981 H1988 0.961 . S
C1981 H1989 0.960 . S
C1982 C1980 1.381 . S
C1982 C1983 1.394 . S
C1982 H1990 0.930 . S
C1983 C1982 1.394 . S
C1983 C1984 1.383 . S
C1983 H1991 0.929 . S
C1984 C1983 1.383 . S
C1984 C1985 1.377 . S
C1985 H1969 0.930 . S
C1985 C1984 1.377 . S
C1985 C1986 1.379 . S
C1986 H1970 0.931 . S
C1986 C1980 1.383 . S
C1986 C1985 1.379 . S
H1987 C1981 0.959 . S
H1988 C1981 0.961 . S
H1989 C1981 0.960 . S
H1990 C1982 0.930 . S
H1991 C1983 0.929 . S
H1992 C2000 0.929 . S
H1993 C2002 0.930 . S
H1994 C2004 0.930 . S
H1995 C2007 0.929 . S
H1996 C2010 0.930 . S
H1997 C2012 0.960 . S
H1998 C2012 0.960 . S
H1999 C2012 0.960 . S
C2000 H1992 0.929 . S
C2000 C2001 1.377 . S
C2000 C2002 1.384 . S
C2001 C2000 1.377 . S
C2001 C2007 1.390 . S
C2002 H1993 0.930 . S
C2002 C2000 1.384 . S
C2002 C2003 1.372 . S
C2003 C2002 1.372 . S
C2003 C2004 1.400 . S
C2003 C2008 1.490 . S
C2004 H1994 0.930 . S
C2004 C2003 1.400 . S
C2004 C2007 1.386 . S
H2005 C2021 0.930 . S
H2006 C2022 0.931 . S
C2007 H1995 0.929 . S
C2007 C2001 1.390 . S
C2007 C2004 1.386 . S
C2008 C2003 1.490 . S
C2008 C2010 1.395 . S
C2008 C2011 1.403 1_556 S
H2009 C2015 0.930 . S
C2010 H1996 0.930 . S
C2010 C2008 1.395 . S
C2010 C2013 1.403 . S
C2011 C2008 1.403 1_554 S
C2011 C2012 1.524 . S
C2011 C2015 1.400 . S
C2012 H1997 0.960 . S
C2012 H1998 0.960 . S
C2012 H1999 0.960 . S
C2012 C2011 1.524 . S
C2013 C2010 1.403 . S
C2013 C2014 1.392 1_556 S
C2013 C2017 1.495 . S
C2014 C2013 1.392 1_554 S
C2014 C2015 1.385 . S
C2014 C2016 1.478 . S
C2015 H2009 0.930 . S
C2015 C2011 1.400 . S
C2015 C2014 1.385 . S
C2016 C2014 1.478 . S
C2016 C2018 1.381 . S
C2016 C2022 1.383 . S
C2017 C2013 1.495 . S
C2017 H2023 0.959 . S
C2017 H2024 0.961 . S
C2017 H2025 0.989 . S
C2018 C2016 1.381 . S
C2018 C2019 1.394 . S
C2018 H2026 0.930 . S
C2019 C2018 1.394 . S
C2019 C2020 1.383 . S
C2019 H2027 0.929 . S
C2020 C2019 1.383 . S
C2020 C2021 1.377 . S
C2021 H2005 0.930 . S
C2021 C2020 1.377 . S
C2021 C2022 1.379 . S
C2022 H2006 0.931 . S
C2022 C2016 1.383 . S
C2022 C2021 1.379 . S
H2023 C2017 0.959 . S
H2024 C2017 0.961 . S
H2025 C2017 0.989 . S
H2026 C2018 0.930 . S
H2027 C2019 0.929 . S
H2028 C2036 0.929 . S
H2029 C2038 0.930 . S
H2030 C2040 0.930 . S
H2031 C2043 0.929 . S
H2032 C2046 0.930 . S
H2033 C2048 0.960 . S
H2034 C2048 0.960 . S
H2035 C2048 0.960 . S
C2036 H2028 0.929 . S
C2036 C2037 1.377 . S
C2036 C2038 1.384 . S
C2037 C2036 1.377 . S
C2037 C2043 1.390 . S
C2038 H2029 0.930 . S
C2038 C2036 1.384 . S
C2038 C2039 1.372 . S
C2039 C2038 1.372 . S
C2039 C2040 1.400 . S
C2039 C2044 1.490 . S
C2040 H2030 0.930 . S
C2040 C2039 1.400 . S
C2040 C2043 1.386 . S
H2041 C2057 0.930 . S
H2042 C2058 0.931 . S
C2043 H2031 0.929 . S
C2043 C2037 1.390 . S
C2043 C2040 1.386 . S
C2044 C2039 1.490 . S
C2044 C2046 1.395 . S
C2044 C2047 1.403 . S
H2045 C2051 0.930 . S
C2046 H2032 0.930 . S
C2046 C2044 1.395 . S
C2046 C2049 1.403 . S
C2047 C2044 1.403 . S
C2047 C2048 1.524 . S
C2047 C2051 1.400 . S
C2048 H2033 0.960 . S
C2048 H2034 0.960 . S
C2048 H2035 0.960 . S
C2048 C2047 1.524 . S
C2049 C2046 1.403 . S
C2049 C2050 1.392 . S
C2049 C2053 1.495 . S
C2050 C2049 1.392 . S
C2050 C2051 1.385 . S
C2050 C2052 1.478 . S
C2051 H2045 0.930 . S
C2051 C2047 1.400 . S
C2051 C2050 1.385 . S
C2052 C2050 1.478 . S
C2052 C2054 1.381 . S
C2052 C2058 1.383 . S
C2053 C2049 1.495 . S
C2053 H2059 0.959 . S
C2053 H2060 0.961 . S
C2053 H2061 0.960 . S
C2054 C2052 1.381 . S
C2054 C2055 1.394 . S
C2054 H2062 0.930 . S
C2055 C2054 1.394 . S
C2055 C2056 1.383 . S
C2055 H2063 0.929 . S
C2056 C2055 1.383 . S
C2056 C2057 1.377 . S
C2057 H2041 0.930 . S
C2057 C2056 1.377 . S
C2057 C2058 1.379 . S
C2058 H2042 0.931 . S
C2058 C2052 1.383 . S
C2058 C2057 1.379 . S
H2059 C2053 0.959 . S
H2060 C2053 0.961 . S
H2061 C2053 0.960 . S
H2062 C2054 0.930 . S
H2063 C2055 0.929 . S
C345 C11 1.441 . S
C364 C221 1.444 . S
C381 C25 1.442 . S
C400 C235 1.429 . S
C417 C249 1.433 . S
C436 C39 1.447 . S
C453 C179 1.437 . S
C472 C53 1.455 . S
C489 C193 1.433 . S
C508 C67 1.446 . S
C525 C207 1.440 . S
C544 C81 1.412 . S
C561 C305 1.442 . S
C580 C95 1.435 . S
C597 C109 1.437 . S
C616 C319 1.456 . S
C633 C333 1.436 . S
C652 C123 1.457 . S
C669 C137 1.439 . S
C688 C263 1.451 . S
C705 C277 1.441 . S
C724 C151 1.443 . S
C741 C165 1.440 . S
C760 C291 1.447 . S
C777 C145 0.865 . S
C796 C5 0.891 . S
C813 C159 0.868 . S
C832 C19 0.880 . S
C849 C33 0.855 . S
C868 C89 0.923 . S
C885 C47 0.859 . S
C904 C103 0.917 . S
C921 C117 0.863 . S
C940 C61 0.885 . S
C957 C75 0.884 . S
C976 C131 0.793 . S
C993 C313 0.852 . S
C1012 C173 0.830 . S
C1029 C187 0.867 . S
C1048 C327 0.808 . S
C1065 C201 0.873 . S
C1084 C257 0.830 . S
C1101 C271 0.883 . S
C1120 C215 0.934 . S
C1137 C229 0.865 . S
C1156 C285 0.801 . S
C1173 C243 0.868 . S
C1192 C299 0.808 . S
C1209 C12 1.053 . S
C1228 C264 1.032 . S
C1245 C278 1.052 . S
C1264 C26 1.058 . S
C1281 C40 1.051 . S
C1300 C292 1.063 . S
C1317 C54 1.052 . S
C1336 C306 1.028 . S
C1353 C320 1.047 . S
C1372 C68 1.042 . S
C1389 C82 1.050 . S
C1408 C334 1.030 . S
C1425 C96 1.054 . S
C1444 C180 1.044 . S
C1461 C110 1.052 . S
C1480 C194 1.059 . S
C1497 C208 1.046 . S
C1516 C124 1.048 . S
C1533 C222 1.052 . S
C1552 C138 1.028 . S
C1569 C152 1.047 . S
C1588 C236 1.039 . S
C1605 C250 1.048 . S
C1624 C166 1.033 . S
C1641 C88 1.520 . S
C1660 C4 1.515 . S
C1677 C18 1.512 . S
C1696 C102 1.520 . S
C1713 C116 1.511 . S
C1732 C32 1.508 . S
C1749 C130 1.516 . S
C1768 C46 1.535 . S
C1785 C144 1.520 . S
C1804 C60 1.508 . S
C1821 C74 1.520 . S
C1840 C158 1.512 . S
C1857 C256 1.512 . S
C1876 C172 1.531 . S
C1893 C186 1.516 . S
C1912 C270 1.514 . S
C1929 C284 1.517 . S
C1948 C200 1.506 . S
C1965 C298 1.510 . S
C1984 C214 1.536 . S
C2001 C228 1.517 . S
C2020 C312 1.503 . S
C2037 C242 1.514 . S
C2056 C326 1.517 . S
