# Generated by pormake.
# Topology rac, (4)-cn, num edge types: 1
# Building blocks:
#     Node 0, Type 0, BuildingBlock: NAHDIM_clean_sbu_0, # of connection points: 4
#     Node 1, Type 0, BuildingBlock: NAHDIM_clean_sbu_0, # of connection points: 4
#     Node 2, Type 0, BuildingBlock: NAHDIM_clean_sbu_0, # of connection points: 4
#     Node 3, Type 0, BuildingBlock: NAHDIM_clean_sbu_0, # of connection points: 4
#     Node 4, Type 0, BuildingBlock: NAHDIM_clean_sbu_0, # of connection points: 4
#     Node 5, Type 0, BuildingBlock: NAHDIM_clean_sbu_0, # of connection points: 4
#     Node 6, Type 0, BuildingBlock: NAHDIM_clean_sbu_0, # of connection points: 4
#     Node 7, Type 0, BuildingBlock: NAHDIM_clean_sbu_0, # of connection points: 4
#     Edge 8, Type (0, 0), BuildingBlock: MIFKUJ_clean_linker_0, # of connection points: 2
#     Edge 9, Type (0, 0), BuildingBlock: MIFKUJ_clean_linker_0, # of connection points: 2
#     Edge 10, Type (0, 0), BuildingBlock: MIFKUJ_clean_linker_0, # of connection points: 2
#     Edge 11, Type (0, 0), BuildingBlock: MIFKUJ_clean_linker_0, # of connection points: 2
#     Edge 12, Type (0, 0), BuildingBlock: MIFKUJ_clean_linker_0, # of connection points: 2
#     Edge 13, Type (0, 0), BuildingBlock: MIFKUJ_clean_linker_0, # of connection points: 2
#     Edge 14, Type (0, 0), BuildingBlock: MIFKUJ_clean_linker_0, # of connection points: 2
#     Edge 15, Type (0, 0), BuildingBlock: MIFKUJ_clean_linker_0, # of connection points: 2
#     Edge 16, Type (0, 0), BuildingBlock: MIFKUJ_clean_linker_0, # of connection points: 2
#     Edge 17, Type (0, 0), BuildingBlock: MIFKUJ_clean_linker_0, # of connection points: 2
#     Edge 18, Type (0, 0), BuildingBlock: MIFKUJ_clean_linker_0, # of connection points: 2
#     Edge 19, Type (0, 0), BuildingBlock: MIFKUJ_clean_linker_0, # of connection points: 2
#     Edge 20, Type (0, 0), BuildingBlock: MIFKUJ_clean_linker_0, # of connection points: 2
#     Edge 21, Type (0, 0), BuildingBlock: MIFKUJ_clean_linker_0, # of connection points: 2
#     Edge 22, Type (0, 0), BuildingBlock: MIFKUJ_clean_linker_0, # of connection points: 2
#     Edge 23, Type (0, 0), BuildingBlock: MIFKUJ_clean_linker_0, # of connection points: 2
# Relax obj value: 0.231
# Max RMSD: 0.117
# Mean RMSD: 0.117
data_MOF--net-rac--node1-NAHDIM_clean_sbu_0--edge1-MIFKUJ_clean_linker_0
_symmetry_space_group_name_H-M    P1
_symmetry_Int_Tables_number       1
_symmetry_cell_setting            triclinic
loop_
_symmetry_equiv_pos_as_xyz
'x, y, z'
_cell_length_a     51.157495
_cell_length_b     26.850566
_cell_length_c     53.975099
_cell_angle_alpha  90.021735
_cell_angle_beta   90.012139
_cell_angle_gamma 89.968749
loop_
_atom_site_label
_atom_site_type_symbol
_atom_site_fract_x
_atom_site_fract_y
_atom_site_fract_z
_atom_type_partial_charge
C0 C 0.43102 0.29754 0.06447 0.0
O1 O 0.42025 0.30859 0.08588 0.0
O2 O 0.39421 0.22537 0.10526 0.0
Zn3 Zn 0.38973 0.2319 0.0681 0.0
O4 O 0.36287 0.28486 0.06204 0.0
C5 C 0.37341 0.12859 0.06465 0.0
O6 O 0.38444 0.12522 0.08656 0.0
O7 O 0.42232 0.2602 0.05251 0.0
C8 C 0.33885 0.27563 0.05829 0.0
O9 O 0.33051 0.22938 0.05886 0.0
C10 C 0.37416 0.22314 0.11913 0.0
O11 O 0.35089 0.22168 0.10889 0.0
O12 O 0.37557 0.16895 0.05253 0.0
C13 C 0.07455 0.67812 0.04896 0.0
O14 O 0.0841 0.66058 0.06978 0.0
O15 O 0.10541 0.74421 0.09765 0.0
Zn16 Zn 0.11532 0.73886 0.06118 0.0
O17 O 0.14049 0.68214 0.05718 0.0
C18 C 0.1551 0.80594 0.06567 0.0
O19 O 0.15757 0.77483 0.08432 0.0
O20 O 0.08413 0.71832 0.04033 0.0
C21 C 0.1583 0.68109 0.04081 0.0
O22 O 0.16088 0.71866 0.02542 0.0
C23 C 0.11292 0.71094 0.11288 0.0
O24 O 0.12643 0.67277 0.10465 0.0
O25 O 0.13559 0.8007 0.05122 0.0
C26 C 0.44352 0.19991 0.43989 0.0
O27 O 0.4355 0.18762 0.41758 0.0
O28 O 0.40363 0.26511 0.39699 0.0
Zn29 Zn 0.39948 0.26064 0.4342 0.0
O30 O 0.37338 0.20656 0.44068 0.0
C31 C 0.3841 0.3642 0.43516 0.0
O32 O 0.39842 0.36627 0.41498 0.0
O33 O 0.43223 0.23582 0.45097 0.0
C34 C 0.3493 0.21411 0.445 0.0
O35 O 0.34014 0.25983 0.44521 0.0
C36 C 0.3829 0.2696 0.38417 0.0
O37 O 0.36034 0.27344 0.39561 0.0
O38 O 0.38406 0.3243 0.44783 0.0
C39 C 0.0897 0.82374 0.43959 0.0
O40 O 0.10148 0.84126 0.41983 0.0
O41 O 0.11407 0.7529 0.39008 0.0
Zn42 Zn 0.12588 0.75494 0.42599 0.0
O43 O 0.1539 0.80655 0.42994 0.0
C44 C 0.16029 0.67801 0.41857 0.0
O45 O 0.16279 0.70718 0.39918 0.0
O46 O 0.09614 0.7806 0.44736 0.0
C47 C 0.17295 0.8021 0.44486 0.0
O48 O 0.17535 0.7614 0.45816 0.0
C49 C 0.12319 0.78338 0.37424 0.0
O50 O 0.14016 0.81712 0.38142 0.0
O51 O 0.14297 0.68888 0.43467 0.0
C52 C 0.56402 0.70604 0.95088 0.0
O53 O 0.57377 0.69819 0.9287 0.0
O54 O 0.60125 0.78773 0.91297 0.0
Zn55 Zn 0.60651 0.76846 0.94874 0.0
O56 O 0.63092 0.71007 0.94819 0.0
C57 C 0.62461 0.86805 0.96014 0.0
O58 O 0.60863 0.88089 0.94219 0.0
O59 O 0.57377 0.7407 0.96404 0.0
C60 C 0.65534 0.7129 0.95213 0.0
O61 O 0.66597 0.75633 0.957 0.0
C62 C 0.62163 0.79842 0.90059 0.0
O63 O 0.64428 0.80004 0.91202 0.0
O64 O 0.62458 0.82323 0.96767 0.0
C65 C 0.91368 0.31425 0.92957 0.0
O66 O 0.901 0.32379 0.90893 0.0
O67 O 0.88108 0.22159 0.89279 0.0
Zn68 Zn 0.87503 0.24257 0.92817 0.0
O69 O 0.84771 0.29612 0.92749 0.0
C70 C 0.8607 0.14109 0.94282 0.0
O71 O 0.87595 0.12708 0.92452 0.0
O72 O 0.90703 0.27625 0.94218 0.0
C73 C 0.82346 0.28802 0.93052 0.0
O74 O 0.81518 0.24222 0.93387 0.0
C75 C 0.86245 0.20191 0.88068 0.0
O76 O 0.84021 0.19303 0.892 0.0
O77 O 0.85987 0.18687 0.94877 0.0
C78 C 0.56775 0.81362 0.57744 0.0
O79 O 0.57494 0.83002 0.59934 0.0
O80 O 0.61121 0.76541 0.62187 0.0
Zn81 Zn 0.61551 0.76848 0.58475 0.0
O82 O 0.63416 0.83179 0.57673 0.0
C83 C 0.66171 0.71577 0.56994 0.0
O84 O 0.67182 0.7598 0.57437 0.0
O85 O 0.58106 0.77894 0.56747 0.0
C86 C 0.63682 0.84373 0.5541 0.0
O87 O 0.62826 0.81343 0.53679 0.0
C88 C 0.6309 0.77586 0.63527 0.0
O89 O 0.65329 0.78596 0.62449 0.0
O90 O 0.63716 0.70963 0.57258 0.0
C91 C 0.9185 0.16906 0.5609 0.0
O92 O 0.90318 0.14897 0.57766 0.0
O93 O 0.87828 0.22515 0.60355 0.0
Zn94 Zn 0.87742 0.2328 0.56619 0.0
O95 O 0.85176 0.18431 0.55172 0.0
C96 C 0.83965 0.30424 0.56668 0.0
O97 O 0.8301 0.26563 0.57854 0.0
O98 O 0.91238 0.21159 0.55215 0.0
C99 C 0.83862 0.19377 0.53229 0.0
O100 O 0.84205 0.23618 0.52063 0.0
C101 C 0.8626 0.19674 0.61515 0.0
O102 O 0.84519 0.17102 0.60266 0.0
O103 O 0.86306 0.30191 0.55864 0.0
H104 H 0.36245 0.0398 0.08699 0.0
H105 H 0.32606 0.98406 0.07812 0.0
H106 H 0.30404 0.07521 0.0157 0.0
H107 H 0.34032 0.13176 0.02468 0.0
H108 H 0.26287 0.05777 0.04454 0.0
H109 H 0.32756 0.95734 0.00655 0.0
H110 H 0.36966 0.9135 0.00217 0.0
H111 H 0.35119 0.82186 0.06494 0.0
H112 H 0.30914 0.86563 0.06995 0.0
H113 H 0.15954 0.87345 0.02724 0.0
H114 H 0.1969 0.92856 0.01861 0.0
H115 H 0.23583 0.87414 0.08411 0.0
H116 H 0.19906 0.81985 0.09287 0.0
H117 H 0.26785 0.87334 0.04301 0.0
H118 H 0.20695 0.98549 0.08443 0.0
H119 H 0.16507 0.03021 0.08876 0.0
H120 H 0.17682 0.09961 0.01797 0.0
H121 H 0.21864 0.05474 0.01309 0.0
C122 C 0.35023 0.04754 0.07106 0.0
C123 C 0.35429 0.09036 0.05661 0.0
C124 C 0.32943 0.01547 0.06594 0.0
C125 C 0.31234 0.02526 0.04615 0.0
C126 C 0.31696 0.0669 0.03106 0.0
C127 C 0.33782 0.09903 0.03615 0.0
C128 C 0.28858 0.99419 0.0427 0.0
C129 C 0.26397 0.01747 0.04357 0.0
C130 C 0.28994 0.9416 0.04162 0.0
C131 C 0.31522 0.915 0.03869 0.0
C132 C 0.33254 0.92808 0.01954 0.0
C133 C 0.35639 0.90319 0.01692 0.0
C134 C 0.36311 0.86496 0.03328 0.0
C135 C 0.34596 0.85148 0.05227 0.0
C136 C 0.32209 0.87627 0.05498 0.0
C137 C 0.176 0.87363 0.03986 0.0
C138 C 0.17631 0.84218 0.06071 0.0
C139 C 0.19731 0.90501 0.0349 0.0
C140 C 0.2192 0.90515 0.05066 0.0
C141 C 0.21928 0.8743 0.07158 0.0
C142 C 0.19809 0.8434 0.07661 0.0
C143 C 0.24236 0.93691 0.0458 0.0
C144 C 0.26682 0.9137 0.04334 0.0
C145 C 0.24085 0.98948 0.04532 0.0
C146 C 0.21571 0.01625 0.04824 0.0
C147 C 0.20047 0.0099 0.06968 0.0
C148 C 0.17678 0.03536 0.07226 0.0
C149 C 0.16824 0.06758 0.05361 0.0
C150 C 0.18342 0.07453 0.03237 0.0
C151 C 0.20712 0.04911 0.02969 0.0
H152 H 0.1499 0.08728 0.05565 0.0
H153 H 0.38158 0.84574 0.03123 0.0
H154 H 0.16838 0.62054 0.46026 0.0
H155 H 0.20451 0.56197 0.46745 0.0
H156 H 0.23279 0.58865 0.39332 0.0
H157 H 0.19671 0.64542 0.38584 0.0
H158 H 0.23851 0.49508 0.40346 0.0
H159 H 0.25826 0.64954 0.44508 0.0
H160 H 0.25027 0.71822 0.47447 0.0
H161 H 0.24976 0.6144 0.53497 0.0
H162 H 0.25744 0.54498 0.50585 0.0
H163 H 0.37192 0.44414 0.40611 0.0
H164 H 0.33255 0.49529 0.40837 0.0
H165 H 0.30983 0.42115 0.47582 0.0
H166 H 0.34919 0.36928 0.47368 0.0
H167 H 0.2991 0.5304 0.47314 0.0
H168 H 0.28514 0.37654 0.4284 0.0
H169 H 0.29753 0.31411 0.397 0.0
H170 H 0.29011 0.42409 0.3397 0.0
H171 H 0.27826 0.4875 0.37084 0.0
C172 C 0.18207 0.61315 0.4454 0.0
C173 C 0.17977 0.63795 0.42256 0.0
C174 C 0.20281 0.57999 0.44958 0.0
C175 C 0.22166 0.57148 0.43105 0.0
C176 C 0.21859 0.59453 0.40793 0.0
C177 C 0.19793 0.62727 0.40372 0.0
C178 C 0.24536 0.54069 0.43572 0.0
C179 C 0.2517 0.50293 0.41871 0.0
C180 C 0.26257 0.5504 0.45574 0.0
C181 C 0.25809 0.59204 0.47328 0.0
C182 C 0.25625 0.64133 0.46463 0.0
C183 C 0.2518 0.68039 0.48124 0.0
C184 C 0.2494 0.67066 0.50656 0.0
C185 C 0.25155 0.62186 0.51534 0.0
C186 C 0.25596 0.58265 0.4988 0.0
C187 C 0.35894 0.43941 0.42178 0.0
C188 C 0.36357 0.40215 0.43955 0.0
C189 C 0.33641 0.46866 0.423 0.0
C190 C 0.31817 0.46142 0.44206 0.0
C191 C 0.32368 0.42713 0.46094 0.0
C192 C 0.34617 0.39751 0.45964 0.0
C193 C 0.29225 0.48585 0.44065 0.0
C194 C 0.28557 0.52216 0.45821 0.0
C195 C 0.27492 0.47549 0.42088 0.0
C196 C 0.28099 0.43688 0.402 0.0
C197 C 0.28628 0.38749 0.40912 0.0
C198 C 0.29323 0.35193 0.39137 0.0
C199 C 0.29468 0.36516 0.36637 0.0
C200 C 0.28903 0.41392 0.35907 0.0
C201 C 0.28218 0.44969 0.37677 0.0
H202 H 0.30012 0.33762 0.35265 0.0
H203 H 0.24596 0.70094 0.5194 0.0
H204 H 0.63464 0.96218 0.94324 0.0
H205 H 0.67582 0.00766 0.9467 0.0
H206 H 0.70661 0.89298 0.99442 0.0
H207 H 0.66538 0.84761 0.99144 0.0
H208 H 0.72476 0.98422 0.00786 0.0
H209 H 0.71829 0.8862 0.93412 0.0
H210 H 0.69712 0.85655 0.89584 0.0
H211 H 0.70079 0.00398 0.86525 0.0
H212 H 0.72166 0.03471 0.90357 0.0
H213 H 0.85301 0.04298 0.93092 0.0
H214 H 0.81459 0.99226 0.94033 0.0
H215 H 0.78266 0.11242 0.98397 0.0
H216 H 0.82116 0.16272 0.97522 0.0
H217 H 0.76697 0.01027 0.9261 0.0
H218 H 0.74021 0.06954 0.02675 0.0
H219 H 0.76259 0.09095 0.06581 0.0
H220 H 0.82963 0.00595 0.04332 0.0
H221 H 0.80753 0.98347 0.00429 0.0
C222 C 0.6499 0.9472 0.95499 0.0
C223 C 0.64684 0.90083 0.96673 0.0
C224 C 0.67348 0.97316 0.95686 0.0
C225 C 0.69447 0.95308 0.97034 0.0
C226 C 0.69073 0.90897 0.98378 0.0
C227 C 0.66712 0.88305 0.98201 0.0
C228 C 0.72093 0.97532 0.96839 0.0
C229 C 0.73402 0.99013 0.99002 0.0
C230 C 0.73333 0.98135 0.94514 0.0
C231 C 0.72133 0.96285 0.92181 0.0
C232 C 0.71446 0.91237 0.91929 0.0
C233 C 0.7025 0.89536 0.89758 0.0
C234 C 0.69752 0.92839 0.87814 0.0
C235 C 0.70462 0.97846 0.88034 0.0
C236 C 0.71654 0.99569 0.90205 0.0
C237 C 0.83812 0.05816 0.94303 0.0
C238 C 0.84014 0.10704 0.95219 0.0
C239 C 0.81608 0.02921 0.94828 0.0
C240 C 0.79567 0.04847 0.96283 0.0
C241 C 0.79825 0.09636 0.97298 0.0
C242 C 0.82032 0.1252 0.96788 0.0
C243 C 0.77076 0.02048 0.96558 0.0
C244 C 0.75787 0.00446 0.94402 0.0
C245 C 0.7589 0.01224 0.98895 0.0
C246 C 0.77227 0.02521 0.01248 0.0
C247 C 0.75968 0.05525 0.03018 0.0
C248 C 0.77233 0.0676 0.05231 0.0
C249 C 0.79754 0.04994 0.05701 0.0
C250 C 0.81014 0.01976 0.03962 0.0
C251 C 0.79757 0.00727 0.01747 0.0
H252 H 0.8073 0.05957 0.07415 0.0
H253 H 0.68822 0.91516 0.86136 0.0
H254 H 0.64954 0.61631 0.56673 0.0
H255 H 0.68007 0.54676 0.56136 0.0
H256 H 0.74412 0.65032 0.55489 0.0
H257 H 0.71386 0.7198 0.55992 0.0
H258 H 0.74963 0.57243 0.52271 0.0
H259 H 0.73169 0.59665 0.60954 0.0
H260 H 0.70337 0.60511 0.64627 0.0
H261 H 0.67271 0.45837 0.63385 0.0
H262 H 0.7006 0.44932 0.59681 0.0
H263 H 0.85317 0.40107 0.55521 0.0
H264 H 0.82331 0.47256 0.5514 0.0
H265 H 0.75745 0.3751 0.56334 0.0
H266 H 0.78687 0.30466 0.56773 0.0
H267 H 0.75365 0.45208 0.5923 0.0
H268 H 0.77207 0.42662 0.50574 0.0
H269 H 0.80018 0.41822 0.46887 0.0
H270 H 0.8299 0.56595 0.48043 0.0
H271 H 0.8022 0.57499 0.51759 0.0
C272 C 0.67006 0.62427 0.56382 0.0
C273 C 0.67929 0.67356 0.56405 0.0
C274 C 0.68749 0.58452 0.56082 0.0
C275 C 0.71443 0.5934 0.55808 0.0
C276 C 0.72346 0.64261 0.55703 0.0
C277 C 0.7061 0.68228 0.56005 0.0
C278 C 0.73343 0.55162 0.55805 0.0
C279 C 0.75069 0.54627 0.53798 0.0
C280 C 0.73465 0.51731 0.57789 0.0
C281 C 0.71804 0.52252 0.60027 0.0
C282 C 0.71877 0.56633 0.61454 0.0
C283 C 0.70282 0.57121 0.63543 0.0
C284 C 0.6862 0.53235 0.64235 0.0
C285 C 0.68556 0.48847 0.62844 0.0
C286 C 0.70145 0.48343 0.60751 0.0
C287 C 0.83231 0.39506 0.55678 0.0
C288 C 0.82239 0.34745 0.56207 0.0
C289 C 0.81526 0.4358 0.55452 0.0
C290 C 0.78808 0.42921 0.55712 0.0
C291 C 0.77829 0.38129 0.56151 0.0
C292 C 0.7952 0.341 0.56402 0.0
C293 C 0.76965 0.47203 0.5567 0.0
C294 C 0.75258 0.47792 0.57688 0.0
C295 C 0.76864 0.50662 0.53693 0.0
C296 C 0.78527 0.50127 0.51459 0.0
C297 C 0.78476 0.45716 0.50054 0.0
C298 C 0.80059 0.45231 0.47956 0.0
C299 C 0.81687 0.49147 0.47235 0.0
C300 C 0.81731 0.53561 0.48606 0.0
C301 C 0.80153 0.54064 0.50707 0.0
H302 H 0.82911 0.48765 0.4561 0.0
H303 H 0.67386 0.53621 0.65853 0.0
H304 H 0.41908 0.23117 0.14655 0.0
H305 H 0.42275 0.24079 0.19152 0.0
H306 H 0.33888 0.2312 0.19827 0.0
H307 H 0.33501 0.22208 0.15343 0.0
H308 H 0.35821 0.30813 0.22477 0.0
H309 H 0.37777 0.13374 0.21416 0.0
H310 H 0.40151 0.06177 0.19682 0.0
H311 H 0.47347 0.11755 0.22693 0.0
H312 H 0.45019 0.19024 0.24418 0.0
H313 H 0.34161 0.26691 0.35234 0.0
H314 H 0.34266 0.26089 0.30735 0.0
H315 H 0.42699 0.26403 0.30875 0.0
H316 H 0.42611 0.26848 0.35409 0.0
H317 H 0.41043 0.19457 0.27778 0.0
H318 H 0.39053 0.36677 0.2905 0.0
H319 H 0.3666 0.4378 0.30855 0.0
H320 H 0.29552 0.38674 0.27473 0.0
H321 H 0.31895 0.315 0.25673 0.0
C322 C 0.40143 0.23073 0.15763 0.0
C323 C 0.37675 0.2258 0.14641 0.0
C324 C 0.40357 0.23617 0.18332 0.0
C325 C 0.38108 0.23651 0.19824 0.0
C326 C 0.35647 0.23118 0.18709 0.0
C327 C 0.35432 0.22573 0.16146 0.0
C328 C 0.38303 0.2433 0.22545 0.0
C329 C 0.36942 0.28303 0.2364 0.0
C330 C 0.39829 0.21144 0.24052 0.0
C331 C 0.41229 0.16769 0.23022 0.0
C332 C 0.39869 0.13087 0.2169 0.0
C333 C 0.41205 0.08991 0.20713 0.0
C334 C 0.43899 0.08516 0.21071 0.0
C335 C 0.45261 0.12131 0.22414 0.0
C336 C 0.43934 0.16238 0.23393 0.0
C337 C 0.36042 0.26658 0.34313 0.0
C338 C 0.38379 0.2683 0.3568 0.0
C339 C 0.36098 0.26337 0.31735 0.0
C340 C 0.3849 0.26278 0.30461 0.0
C341 C 0.40831 0.26457 0.31819 0.0
C342 C 0.40777 0.26729 0.34407 0.0
C343 C 0.38533 0.25905 0.27717 0.0
C344 C 0.3994 0.21997 0.26616 0.0
C345 C 0.37054 0.29162 0.26202 0.0
C346 C 0.35648 0.33532 0.27239 0.0
C347 C 0.36977 0.37056 0.287 0.0
C348 C 0.3563 0.41095 0.29722 0.0
C349 C 0.32956 0.41674 0.29282 0.0
C350 C 0.31624 0.38221 0.27812 0.0
C351 C 0.32962 0.34171 0.26787 0.0
H352 H 0.31916 0.44803 0.30075 0.0
H353 H 0.4493 0.05342 0.20313 0.0
H354 H 0.0899 0.71638 0.35243 0.0
H355 H 0.0825 0.70416 0.30798 0.0
H356 H 0.13357 0.82766 0.29184 0.0
H357 H 0.14115 0.84014 0.33602 0.0
H358 H 0.06476 0.76558 0.26816 0.0
H359 H 0.1744 0.78852 0.24607 0.0
H360 H 0.21704 0.77884 0.26694 0.0
H361 H 0.18428 0.66833 0.3153 0.0
H362 H 0.1416 0.6768 0.29447 0.0
H363 H 0.0906 0.78961 0.13762 0.0
H364 H 0.08662 0.8 0.18258 0.0
H365 H 0.12022 0.65429 0.19363 0.0
H366 H 0.12449 0.6438 0.14899 0.0
H367 H 0.14474 0.72245 0.22072 0.0
H368 H 0.05614 0.67476 0.20495 0.0
H369 H 0.01292 0.67932 0.18484 0.0
H370 H 0.00231 0.8278 0.21266 0.0
H371 H 0.04565 0.8244 0.23265 0.0
C372 C 0.09929 0.74132 0.33942 0.0
C373 C 0.11639 0.77881 0.34773 0.0
C374 C 0.09491 0.73445 0.31408 0.0
C375 C 0.10769 0.76472 0.29672 0.0
C376 C 0.12371 0.80368 0.305 0.0
C377 C 0.12805 0.81066 0.33027 0.0
C378 C 0.10629 0.75306 0.27 0.0
C379 C 0.08218 0.75619 0.2577 0.0
C380 C 0.129 0.73992 0.25658 0.0
C381 C 0.15476 0.73369 0.26887 0.0
C382 C 0.17635 0.76199 0.26108 0.0
C383 C 0.20051 0.75673 0.27291 0.0
C384 C 0.20334 0.72311 0.29248 0.0
C385 C 0.18204 0.69449 0.3002 0.0
C386 C 0.15786 0.69954 0.2884 0.0
C387 C 0.09684 0.75958 0.14964 0.0
C388 C 0.10806 0.71606 0.13976 0.0
C389 C 0.09446 0.76548 0.1753 0.0
C390 C 0.10312 0.72787 0.19141 0.0
C391 C 0.11352 0.68383 0.18152 0.0
C392 C 0.11593 0.67793 0.15597 0.0
C393 C 0.10322 0.73557 0.21858 0.0
C394 C 0.12722 0.73183 0.23104 0.0
C395 C 0.08032 0.74732 0.23209 0.0
C396 C 0.05426 0.74949 0.2201 0.0
C397 C 0.04469 0.70855 0.2066 0.0
C398 C 0.02015 0.71089 0.19526 0.0
C399 C 0.00491 0.75387 0.19742 0.0
C400 C 0.01415 0.79456 0.21097 0.0
C401 C 0.0387 0.79242 0.22234 0.0
H402 H 0.98591 0.75561 0.18863 0.0
H403 H 0.22205 0.71916 0.30164 0.0
H404 H 0.66238 0.81305 0.8689 0.0
H405 H 0.66127 0.81418 0.82382 0.0
H406 H 0.5774 0.79747 0.82527 0.0
H407 H 0.5784 0.79512 0.87062 0.0
H408 H 0.59925 0.73369 0.79334 0.0
H409 H 0.60633 0.90912 0.80927 0.0
H410 H 0.6256 0.98333 0.82905 0.0
H411 H 0.69915 0.9529 0.79384 0.0
H412 H 0.68042 0.87811 0.77409 0.0
H413 H 0.58637 0.76946 0.66327 0.0
H414 H 0.58252 0.77827 0.70822 0.0
H415 H 0.66598 0.79845 0.71383 0.0
H416 H 0.66993 0.79072 0.66892 0.0
H417 H 0.64139 0.86432 0.7421 0.0
H418 H 0.63668 0.68751 0.72909 0.0
H419 H 0.61966 0.60978 0.71088 0.0
H420 H 0.54387 0.64007 0.74159 0.0
H421 H 0.56037 0.71838 0.75972 0.0
C422 C 0.64363 0.81019 0.8597 0.0
C423 C 0.62046 0.80399 0.87336 0.0
C424 C 0.64303 0.81103 0.83388 0.0
C425 C 0.61922 0.80642 0.82116 0.0
C426 C 0.59598 0.80115 0.83473 0.0
C427 C 0.59657 0.80002 0.86063 0.0
C428 C 0.61885 0.80469 0.7937 0.0
C429 C 0.60798 0.76275 0.78209 0.0
C430 C 0.63092 0.84193 0.7791 0.0
C431 C 0.64199 0.88784 0.7903 0.0
C432 C 0.62664 0.91816 0.8058 0.0
C433 C 0.63747 0.96033 0.81701 0.0
C434 C 0.66359 0.97277 0.81273 0.0
C435 C 0.67891 0.94322 0.79713 0.0
C436 C 0.66818 0.90099 0.78588 0.0
C437 C 0.60392 0.77555 0.67409 0.0
C438 C 0.62848 0.77921 0.66253 0.0
C439 C 0.60169 0.78053 0.69978 0.0
C440 C 0.62399 0.78864 0.71442 0.0
C441 C 0.6485 0.79235 0.7029 0.0
C442 C 0.65073 0.78768 0.67723 0.0
C443 C 0.6219 0.79316 0.74175 0.0
C444 C 0.63235 0.83558 0.75332 0.0
C445 C 0.60964 0.75616 0.75636 0.0
C446 C 0.59969 0.70907 0.74552 0.0
C447 C 0.61633 0.6778 0.73179 0.0
C448 C 0.60679 0.6336 0.72151 0.0
C449 C 0.58068 0.62007 0.72501 0.0
C450 C 0.56408 0.65065 0.73886 0.0
C451 C 0.57352 0.69493 0.74915 0.0
H452 H 0.57333 0.58583 0.71705 0.0
H453 H 0.67196 0.00534 0.82149 0.0
H454 H 0.90001 0.23431 0.64617 0.0
H455 H 0.9013 0.22924 0.6914 0.0
H456 H 0.82916 0.14612 0.69107 0.0
H457 H 0.8276 0.15137 0.64588 0.0
H458 H 0.82875 0.22213 0.72476 0.0
H459 H 0.88574 0.08741 0.70207 0.0
H460 H 0.92303 0.04839 0.68059 0.0
H461 H 0.97605 0.14627 0.71844 0.0
H462 H 0.93901 0.18638 0.73989 0.0
H463 H 0.82785 0.15428 0.85038 0.0
H464 H 0.82957 0.14745 0.80531 0.0
H465 H 0.9036 0.22431 0.80477 0.0
H466 H 0.90231 0.23043 0.84997 0.0
H467 H 0.90327 0.14982 0.7714 0.0
H468 H 0.84733 0.28666 0.79275 0.0
H469 H 0.81062 0.32815 0.814 0.0
H470 H 0.75636 0.22954 0.77826 0.0
H471 H 0.79281 0.18698 0.75706 0.0
C472 C 0.88446 0.21484 0.65571 0.0
C473 C 0.86373 0.19309 0.64245 0.0
C474 C 0.8853 0.21176 0.68154 0.0
C475 C 0.86545 0.18689 0.69453 0.0
C476 C 0.84471 0.16532 0.68135 0.0
C477 C 0.84391 0.16819 0.65554 0.0
C478 C 0.86588 0.18474 0.72194 0.0
C479 C 0.84485 0.20562 0.73497 0.0
C480 C 0.88725 0.16446 0.73519 0.0
C481 C 0.90957 0.14022 0.72241 0.0
C482 C 0.90532 0.10089 0.70566 0.0
C483 C 0.92642 0.07852 0.69352 0.0
C484 C 0.95188 0.09492 0.6981 0.0
C485 C 0.95631 0.13364 0.71489 0.0
C486 C 0.93527 0.15618 0.72706 0.0
C487 C 0.84464 0.1693 0.84072 0.0
C488 C 0.86482 0.19336 0.85372 0.0
C489 C 0.84555 0.1655 0.81495 0.0
C490 C 0.86647 0.18623 0.80167 0.0
C491 C 0.88723 0.20824 0.81466 0.0
C492 C 0.88642 0.21178 0.84049 0.0
C493 C 0.86607 0.187 0.77421 0.0
C494 C 0.88712 0.16609 0.76118 0.0
C495 C 0.8448 0.20761 0.76091 0.0
C496 C 0.82282 0.23332 0.77352 0.0
C497 C 0.82759 0.27359 0.78957 0.0
C498 C 0.80682 0.29733 0.80158 0.0
C499 C 0.78118 0.28141 0.79753 0.0
C500 C 0.77624 0.24179 0.7814 0.0
C501 C 0.79694 0.21786 0.76937 0.0
H502 H 0.76513 0.29984 0.80685 0.0
H503 H 0.96819 0.07756 0.68868 0.0
H504 H 0.45423 0.37713 0.08651 0.0
H505 H 0.47743 0.44521 0.06636 0.0
H506 H 0.47191 0.36898 0.99623 0.0
H507 H 0.44855 0.30017 0.01633 0.0
H508 H 0.52021 0.41839 0.00351 0.0
H509 H 0.42841 0.45339 0.00807 0.0
H510 H 0.38575 0.46103 0.02899 0.0
H511 H 0.41694 0.57412 0.07685 0.0
H512 H 0.45995 0.56653 0.05649 0.0
H513 H 0.54162 0.62685 0.92759 0.0
H514 H 0.5186 0.55725 0.94666 0.0
H515 H 0.52298 0.63003 0.01777 0.0
H516 H 0.54617 0.70022 0.9988 0.0
H517 H 0.47497 0.58175 0.00922 0.0
H518 H 0.56689 0.54628 0.00471 0.0
H519 H 0.60946 0.53886 0.98359 0.0
H520 H 0.57794 0.42672 0.93537 0.0
H521 H 0.53502 0.43414 0.95592 0.0
C522 C 0.45829 0.37429 0.06686 0.0
C523 C 0.44923 0.33351 0.05295 0.0
C524 C 0.47152 0.41335 0.05538 0.0
C525 C 0.47589 0.41254 0.02975 0.0
C526 C 0.46855 0.37036 0.01603 0.0
C527 C 0.45525 0.33109 0.02754 0.0
C528 C 0.48637 0.45734 0.01721 0.0
C529 C 0.51017 0.45395 0.00445 0.0
C530 C 0.47342 0.50389 0.01884 0.0
C531 C 0.44748 0.50905 0.03091 0.0
C532 C 0.42623 0.47962 0.02318 0.0
C533 C 0.40198 0.48397 0.03492 0.0
C534 C 0.39865 0.51796 0.05427 0.0
C535 C 0.41956 0.54777 0.06187 0.0
C536 C 0.44388 0.54347 0.05023 0.0
C537 C 0.53735 0.62859 0.94722 0.0
C538 C 0.54602 0.66886 0.96175 0.0
C539 C 0.52426 0.58864 0.95809 0.0
C540 C 0.51958 0.58811 0.98367 0.0
C541 C 0.52659 0.62968 0.99799 0.0
C542 C 0.5398 0.66974 0.98712 0.0
C543 C 0.50885 0.54287 0.9956 0.0
C544 C 0.48499 0.54618 0.00824 0.0
C545 C 0.52173 0.49627 0.99383 0.0
C546 C 0.54765 0.49113 0.9817 0.0
C547 C 0.56897 0.5203 0.98948 0.0
C548 C 0.59317 0.51608 0.97763 0.0
C549 C 0.59639 0.48243 0.95812 0.0
C550 C 0.57542 0.45282 0.95047 0.0
C551 C 0.55115 0.45701 0.96222 0.0
H552 H 0.61514 0.47923 0.94896 0.0
H553 H 0.37986 0.52127 0.06333 0.0
H554 H 0.05241 0.59146 0.06385 0.0
H555 H 0.02611 0.5341 0.03959 0.0
H556 H 0.02735 0.63595 0.97788 0.0
H557 H 0.05433 0.69419 0.00216 0.0
H558 H 0.97658 0.58802 0.98895 0.0
H559 H 0.06574 0.54677 0.97256 0.0
H560 H 0.11164 0.52927 0.98346 0.0
H561 H 0.08755 0.40193 0.02576 0.0
H562 H 0.04144 0.41916 0.01546 0.0
H563 H 0.9288 0.40126 0.90791 0.0
H564 H 0.95704 0.4657 0.92513 0.0
H565 H 0.97037 0.37526 0.98993 0.0
H566 H 0.94203 0.31018 0.97278 0.0
H567 H 0.0155 0.42155 0.97307 0.0
H568 H 0.92675 0.46617 0.99246 0.0
H569 H 0.88053 0.48402 0.98301 0.0
H570 H 0.90365 0.60515 0.93596 0.0
H571 H 0.95007 0.58751 0.94484 0.0
C572 C 0.04699 0.6022 0.0452 0.0
C573 C 0.05571 0.64732 0.03485 0.0
C574 C 0.03196 0.56918 0.03135 0.0
C575 C 0.02516 0.58049 0.00688 0.0
C576 C 0.03258 0.62656 0.99675 0.0
C577 C 0.04793 0.65973 0.01063 0.0
C578 C 0.01114 0.54273 0.99196 0.0
C579 C 0.98522 0.552 0.98494 0.0
C580 C 0.02234 0.4954 0.98734 0.0
C581 C 0.05009 0.48452 0.99339 0.0
C582 C 0.0702 0.51527 0.98435 0.0
C583 C 0.09626 0.50537 0.9904 0.0
C584 C 0.1025 0.46458 0.00534 0.0
C585 C 0.08269 0.43354 0.01421 0.0
C586 C 0.05658 0.44333 0.00825 0.0
C587 C 0.93791 0.3947 0.92573 0.0
C588 C 0.933 0.35064 0.93907 0.0
C589 C 0.95399 0.43174 0.93557 0.0
C590 C 0.96549 0.42556 0.95894 0.0
C591 C 0.96158 0.38079 0.97187 0.0
C592 C 0.94537 0.34368 0.96207 0.0
C593 C 0.98079 0.46658 0.97025 0.0
C594 C 0.00695 0.45781 0.97669 0.0
C595 C 0.96979 0.51433 0.97437 0.0
C596 C 0.9419 0.52514 0.96908 0.0
C597 C 0.92199 0.49633 0.97992 0.0
C598 C 0.89576 0.50646 0.9747 0.0
C599 C 0.88916 0.54559 0.95883 0.0
C600 C 0.90879 0.57478 0.94821 0.0
C601 C 0.93507 0.56474 0.95333 0.0
H602 H 0.86884 0.55338 0.95481 0.0
H603 H 0.1227 0.45698 0.01 0.0
H604 H 0.53535 0.8868 0.59392 0.0
H605 H 0.51325 0.94963 0.56906 0.0
H606 H 0.53707 0.87384 0.50227 0.0
H607 H 0.55982 0.81107 0.52715 0.0
H608 H 0.55004 0.96974 0.50054 0.0
H609 H 0.47228 0.87962 0.51985 0.0
H610 H 0.44023 0.837 0.54655 0.0
H611 H 0.42628 0.97322 0.5861 0.0
H612 H 0.45852 0.01654 0.55986 0.0
H613 H 0.47278 0.12417 0.42077 0.0
H614 H 0.49488 0.05801 0.44365 0.0
H615 H 0.47581 0.13084 0.51256 0.0
H616 H 0.45349 0.1972 0.48977 0.0
H617 H 0.46002 0.03441 0.5119 0.0
H618 H 0.53865 0.12375 0.49298 0.0
H619 H 0.57162 0.16543 0.46692 0.0
H620 H 0.58403 0.02972 0.4265 0.0
H621 H 0.55092 0.98734 0.45213 0.0
C622 C 0.53539 0.88273 0.57396 0.0
C623 C 0.54947 0.84405 0.56252 0.0
C624 C 0.52266 0.9187 0.55974 0.0
C625 C 0.52347 0.91651 0.53377 0.0
C626 C 0.53624 0.87632 0.52229 0.0
C627 C 0.54904 0.84022 0.53654 0.0
C628 C 0.51308 0.95855 0.51885 0.0
C629 C 0.53017 0.98329 0.50264 0.0
C630 C 0.48744 0.97716 0.52218 0.0
C631 C 0.468 0.95124 0.538 0.0
C632 C 0.46254 0.90041 0.53436 0.0
C633 C 0.4443 0.87614 0.54939 0.0
C634 C 0.43127 0.90236 0.56804 0.0
C635 C 0.4364 0.95295 0.57166 0.0
C636 C 0.45463 0.97739 0.55669 0.0
C637 C 0.47376 0.12674 0.44077 0.0
C638 C 0.46121 0.1658 0.45346 0.0
C639 C 0.48648 0.08889 0.45383 0.0
C640 C 0.48694 0.08939 0.47981 0.0
C641 C 0.47561 0.12968 0.49249 0.0
C642 C 0.463 0.16774 0.47944 0.0
C643 C 0.49703 0.04575 0.49371 0.0
C644 C 0.47984 0.02069 0.50971 0.0
C645 C 0.52255 0.02677 0.49011 0.0
C646 C 0.54205 0.05253 0.4743 0.0
C647 C 0.54818 0.10294 0.47834 0.0
C648 C 0.56697 0.12665 0.4637 0.0
C649 C 0.57986 0.10028 0.44502 0.0
C650 C 0.574 0.05013 0.44094 0.0
C651 C 0.55525 0.02624 0.45554 0.0
H652 H 0.59445 0.11866 0.43375 0.0
H653 H 0.41716 0.8835 0.57965 0.0
H654 H 0.9386 0.08387 0.58011 0.0
H655 H 0.96942 0.02679 0.56085 0.0
H656 H 0.97856 0.12791 0.49936 0.0
H657 H 0.94707 0.18531 0.51846 0.0
H658 H 0.968 0.0349 0.48393 0.0
H659 H 0.02826 0.10814 0.5414 0.0
H660 H 0.0439 0.13603 0.58232 0.0
H661 H 0.04002 0.9859 0.60944 0.0
H662 H 0.02402 0.95719 0.56876 0.0
H663 H 0.07215 0.91429 0.42492 0.0
H664 H 0.04399 0.97155 0.44717 0.0
H665 H 0.03618 0.86536 0.50666 0.0
H666 H 0.06519 0.80739 0.48446 0.0
H667 H 0.04575 0.95902 0.52392 0.0
H668 H 0.9857 0.8855 0.46691 0.0
H669 H 0.96971 0.85692 0.42622 0.0
H670 H 0.97257 0.00682 0.39868 0.0
H671 H 0.98892 0.03623 0.43911 0.0
C672 C 0.94742 0.09448 0.56265 0.0
C673 C 0.94027 0.13905 0.55073 0.0
C674 C 0.9652 0.06181 0.55172 0.0
C675 C 0.97643 0.07312 0.52872 0.0
C676 C 0.97012 0.11849 0.51715 0.0
C677 C 0.95226 0.15137 0.52813 0.0
C678 C 0.99306 0.03567 0.516 0.0
C679 C 0.98528 0.01897 0.4925 0.0
C680 C 0.01498 0.01343 0.52761 0.0
C681 C 0.02472 0.03059 0.55207 0.0
C682 C 0.03055 0.08112 0.55614 0.0
C683 C 0.03952 0.09707 0.57929 0.0
C684 C 0.04289 0.06278 0.59849 0.0
C685 C 0.03738 0.01244 0.59456 0.0
C686 C 0.02839 0.99629 0.57145 0.0
C687 C 0.06438 0.90265 0.44266 0.0
C688 C 0.0709 0.85608 0.45289 0.0
C689 C 0.04814 0.93554 0.45533 0.0
C690 C 0.03769 0.92257 0.47843 0.0
C691 C 0.04398 0.87601 0.48878 0.0
C692 C 0.06041 0.84285 0.47604 0.0
C693 C 0.02082 0.9587 0.49178 0.0
C694 C 0.02848 0.97502 0.51539 0.0
C695 C 0.9987 0.98053 0.48033 0.0
C696 C 0.98873 0.963 0.456 0.0
C697 C 0.9831 0.91232 0.45213 0.0
C698 C 0.97394 0.89598 0.42911 0.0
C699 C 0.97018 0.93002 0.40986 0.0
C700 C 0.97551 0.98049 0.41361 0.0
C701 C 0.98469 0.99703 0.43658 0.0
H702 H 0.96309 0.91729 0.39206 0.0
H703 H 0.04983 0.07521 0.6164 0.0
H704 H 0.20602 0.67661 0.01821 0.0
H705 H 0.23703 0.60726 0.01898 0.0
H706 H 0.18221 0.52005 0.06154 0.0
H707 H 0.15157 0.58971 0.06156 0.0
H708 H 0.22821 0.51302 0.08125 0.0
H709 H 0.19429 0.49789 0.99886 0.0
H710 H 0.1826 0.52645 0.95689 0.0
H711 H 0.26316 0.55962 0.9419 0.0
H712 H 0.2753 0.53186 0.98394 0.0
H713 H 0.2859 0.27438 0.06376 0.0
H714 H 0.25565 0.34431 0.0585 0.0
H715 H 0.31982 0.43938 0.03746 0.0
H716 H 0.35034 0.36999 0.04318 0.0
H717 H 0.27054 0.44271 0.00625 0.0
H718 H 0.30318 0.45682 0.0901 0.0
H719 H 0.31344 0.4244 0.13172 0.0
H720 H 0.23252 0.38867 0.14314 0.0
H721 H 0.22186 0.42017 0.10138 0.0
C722 C 0.20053 0.64249 0.02756 0.0
C723 C 0.17644 0.63853 0.03986 0.0
C724 C 0.21821 0.60284 0.02791 0.0
C725 C 0.21183 0.5583 0.04014 0.0
C726 C 0.18757 0.55411 0.05207 0.0
C727 C 0.17008 0.5939 0.05202 0.0
C728 C 0.23076 0.51664 0.04138 0.0
C729 C 0.23716 0.49732 0.06478 0.0
C730 C 0.24287 0.49675 0.01996 0.0
C731 C 0.23566 0.51326 0.99464 0.0
C732 C 0.20949 0.51162 0.98668 0.0
C733 C 0.20278 0.52761 0.96287 0.0
C734 C 0.22212 0.54496 0.94676 0.0
C735 C 0.24821 0.54623 0.95441 0.0
C736 C 0.25501 0.53033 0.97822 0.0
C737 C 0.29354 0.31008 0.05787 0.0
C738 C 0.32045 0.31689 0.05399 0.0
C739 C 0.27628 0.34986 0.05488 0.0
C740 C 0.28564 0.3967 0.04763 0.0
C741 C 0.31235 0.40332 0.04301 0.0
C742 C 0.3297 0.36379 0.04642 0.0
C743 C 0.26759 0.43929 0.04598 0.0
C744 C 0.26146 0.45868 0.02259 0.0
C745 C 0.25545 0.4589 0.06734 0.0
C746 C 0.26178 0.44033 0.09252 0.0
C747 C 0.28762 0.4416 0.10139 0.0
C748 C 0.2935 0.42348 0.12502 0.0
C749 C 0.27366 0.40434 0.14004 0.0
C750 C 0.24788 0.40343 0.13147 0.0
C751 C 0.24191 0.42144 0.10783 0.0
H752 H 0.27824 0.39034 0.15833 0.0
H753 H 0.21689 0.55733 0.92833 0.0
H754 H 0.29606 0.21301 0.44191 0.0
H755 H 0.26723 0.14098 0.44585 0.0
H756 H 0.33386 0.04712 0.46115 0.0
H757 H 0.36286 0.11866 0.45631 0.0
H758 H 0.30429 0.00325 0.42944 0.0
H759 H 0.28905 0.08199 0.50712 0.0
H760 H 0.27867 0.15052 0.5359 0.0
H761 H 0.20293 0.16666 0.50256 0.0
H762 H 0.21299 0.09866 0.47333 0.0
H763 H 0.22196 0.79837 0.46492 0.0
H764 H 0.25326 0.86716 0.46868 0.0
H765 H 0.19741 0.96709 0.4353 0.0
H766 H 0.16625 0.89867 0.4311 0.0
H767 H 0.2232 0.00369 0.47986 0.0
H768 H 0.24177 0.92757 0.40006 0.0
H769 H 0.25281 0.85666 0.37296 0.0
H770 H 0.3239 0.83298 0.41362 0.0
H771 H 0.31307 0.90338 0.4412 0.0
C772 C 0.30452 0.17709 0.44632 0.0
C773 C 0.33168 0.1714 0.44879 0.0
C774 C 0.28802 0.13599 0.4487 0.0
C775 C 0.29835 0.08873 0.45414 0.0
C776 C 0.32546 0.0832 0.45695 0.0
C777 C 0.34199 0.12411 0.45421 0.0
C778 C 0.28099 0.04468 0.45566 0.0
C779 C 0.28685 0.0031 0.44086 0.0
C780 C 0.25804 0.04456 0.47033 0.0
C781 C 0.25187 0.08546 0.4879 0.0
C782 C 0.27025 0.10039 0.5058 0.0
C783 C 0.26442 0.13911 0.52222 0.0
C784 C 0.24018 0.16301 0.52103 0.0
C785 C 0.22171 0.14815 0.50345 0.0
C786 C 0.22745 0.10947 0.48697 0.0
C787 C 0.21637 0.83504 0.45845 0.0
C788 C 0.19177 0.8432 0.44761 0.0
C789 C 0.23422 0.87415 0.46061 0.0
C790 C 0.22752 0.92195 0.45226 0.0
C791 C 0.20281 0.93038 0.4419 0.0
C792 C 0.18514 0.89123 0.43938 0.0
C793 C 0.2465 0.96312 0.45351 0.0
C794 C 0.24089 0.00397 0.46877 0.0
C795 C 0.26984 0.96234 0.43957 0.0
C796 C 0.27646 0.92034 0.42286 0.0
C797 C 0.25964 0.90696 0.40336 0.0
C798 C 0.26588 0.86692 0.38788 0.0
C799 C 0.289 0.84022 0.39161 0.0
C800 C 0.30597 0.85363 0.41078 0.0
C801 C 0.2998 0.89361 0.42633 0.0
H802 H 0.2938 0.80923 0.37962 0.0
H803 H 0.2357 0.19297 0.53375 0.0
H804 H 0.7086 0.70739 0.9508 0.0
H805 H 0.73543 0.63259 0.94615 0.0
H806 H 0.66589 0.5418 0.94464 0.0
H807 H 0.63887 0.61635 0.94929 0.0
H808 H 0.70512 0.50347 0.97493 0.0
H809 H 0.69516 0.56489 0.89213 0.0
H810 H 0.69643 0.62819 0.85908 0.0
H811 H 0.77901 0.64645 0.87008 0.0
H812 H 0.77815 0.58378 0.90349 0.0
H813 H 0.77015 0.28435 0.93399 0.0
H814 H 0.73988 0.35469 0.93656 0.0
H815 H 0.80473 0.45699 0.9319 0.0
H816 H 0.83501 0.38711 0.92878 0.0
H817 H 0.76547 0.48723 0.9034 0.0
H818 H 0.77538 0.4298 0.9874 0.0
H819 H 0.77446 0.36809 0.02122 0.0
H820 H 0.69258 0.3436 0.00866 0.0
H821 H 0.6931 0.40471 0.97452 0.0
C822 C 0.69902 0.67151 0.94958 0.0
C823 C 0.67164 0.66775 0.95028 0.0
C824 C 0.71435 0.62889 0.94683 0.0
C825 C 0.70257 0.5819 0.94479 0.0
C826 C 0.67529 0.57784 0.9461 0.0
C827 C 0.65992 0.62047 0.94866 0.0
C828 C 0.7188 0.53702 0.94112 0.0
C829 C 0.71804 0.49944 0.95912 0.0
C830 C 0.73592 0.53249 0.92068 0.0
C831 C 0.73654 0.56996 0.90048 0.0
C832 C 0.71355 0.58269 0.88765 0.0
C833 C 0.7142 0.61841 0.86882 0.0
C834 C 0.73777 0.64142 0.86252 0.0
C835 C 0.76076 0.62864 0.875 0.0
C836 C 0.7602 0.59299 0.89387 0.0
C837 C 0.77795 0.32183 0.93343 0.0
C838 C 0.80497 0.33019 0.93129 0.0
C839 C 0.76064 0.36195 0.93499 0.0
C840 C 0.77011 0.41101 0.93474 0.0
C841 C 0.79702 0.41941 0.93214 0.0
C842 C 0.8143 0.3794 0.93042 0.0
C843 C 0.7521 0.4538 0.93741 0.0
C844 C 0.75247 0.49102 0.91917 0.0
C845 C 0.7347 0.45809 0.95769 0.0
C846 C 0.73435 0.4214 0.97823 0.0
C847 C 0.75723 0.41095 0.99172 0.0
C848 C 0.75677 0.37614 0.01097 0.0
C849 C 0.73349 0.35182 0.01703 0.0
C850 C 0.71061 0.36238 0.00391 0.0
C851 C 0.71097 0.39713 0.98462 0.0
H852 H 0.73318 0.32489 0.03195 0.0
H853 H 0.73824 0.66906 0.84794 0.0
H854 H 0.64312 0.92683 0.58217 0.0
H855 H 0.67095 0.99844 0.57321 0.0
H856 H 0.69192 0.93317 0.50281 0.0
H857 H 0.66311 0.86269 0.51124 0.0
H858 H 0.71971 0.9955 0.57054 0.0
H859 H 0.71475 0.01864 0.46265 0.0
H860 H 0.68148 0.01677 0.4296 0.0
H861 H 0.62154 0.05062 0.48268 0.0
H862 H 0.65448 0.05343 0.516 0.0
H863 H 0.83705 0.09325 0.53579 0.0
H864 H 0.79827 0.04049 0.53285 0.0
H865 H 0.75167 0.16864 0.51322 0.0
H866 H 0.79083 0.22112 0.51484 0.0
H867 H 0.73214 0.08752 0.49171 0.0
H868 H 0.75733 0.13466 0.57335 0.0
H869 H 0.78755 0.14584 0.60854 0.0
H870 H 0.79953 0.98773 0.61224 0.0
H871 H 0.76969 0.97566 0.57684 0.0
C872 C 0.65331 0.92831 0.56459 0.0
C873 C 0.65124 0.88914 0.54749 0.0
C874 C 0.66915 0.96923 0.55946 0.0
C875 C 0.68355 0.97127 0.53734 0.0
C876 C 0.68065 0.93301 0.51979 0.0
C877 C 0.66435 0.89252 0.52471 0.0
C878 C 0.70403 0.0097 0.53411 0.0
C879 C 0.72218 0.01588 0.55335 0.0
C880 C 0.70707 0.03715 0.51189 0.0
C881 C 0.68712 0.03584 0.49188 0.0
C882 C 0.6945 0.02592 0.46727 0.0
C883 C 0.67569 0.02465 0.44849 0.0
C884 C 0.64941 0.03345 0.45405 0.0
C885 C 0.64189 0.04364 0.47841 0.0
C886 C 0.66063 0.04498 0.49726 0.0
C887 C 0.81865 0.10978 0.53017 0.0
C888 C 0.81672 0.16109 0.5258 0.0
C889 C 0.79653 0.07977 0.52857 0.0
C890 C 0.772 0.101 0.52355 0.0
C891 C 0.7704 0.15162 0.51726 0.0
C892 C 0.79273 0.18151 0.51822 0.0
C893 C 0.74797 0.07163 0.52784 0.0
C894 C 0.7293 0.06734 0.5089 0.0
C895 C 0.74375 0.04727 0.55073 0.0
C896 C 0.7614 0.0543 0.57233 0.0
C897 C 0.7665 0.1023 0.5816 0.0
C898 C 0.78357 0.10879 0.60158 0.0
C899 C 0.79548 0.06752 0.61258 0.0
C900 C 0.7903 0.01966 0.60368 0.0
C901 C 0.77329 0.01296 0.58368 0.0
H902 H 0.8087 0.07255 0.62804 0.0
H903 H 0.6349 0.03245 0.43947 0.0
loop_
_geom_bond_atom_site_label_1
_geom_bond_atom_site_label_2
_geom_bond_distance
_geom_bond_site_symmetry_2
_ccdc_geom_bond_type
C0 O1 1.160 . S
C0 O7 1.185 . S
O1 C0 1.160 . S
O2 Zn3 1.899 . S
O2 C10 1.284 . S
Zn3 O2 1.899 . S
Zn3 O4 2.032 . S
Zn3 O7 2.086 . S
Zn3 O12 1.977 . S
O4 Zn3 2.032 . S
O4 C8 1.278 . S
C5 O6 1.203 . S
C5 O12 1.267 . S
O6 C5 1.203 . S
O7 C0 1.185 . S
O7 Zn3 2.086 . S
C8 O4 1.278 . S
C8 O9 1.211 . S
O9 C8 1.211 . S
C10 O2 1.284 . S
C10 O11 1.273 . S
O11 C10 1.273 . S
O12 Zn3 1.977 . S
O12 C5 1.267 . S
C13 O14 1.160 . S
C13 O20 1.185 . S
O14 C13 1.160 . S
O15 Zn16 1.899 . S
O15 C23 1.284 . S
Zn16 O15 1.899 . S
Zn16 O17 2.032 . S
Zn16 O20 2.086 . S
Zn16 O25 1.977 . S
O17 Zn16 2.032 . S
O17 C21 1.278 . S
C18 O19 1.203 . S
C18 O25 1.267 . S
O19 C18 1.203 . S
O20 C13 1.185 . S
O20 Zn16 2.086 . S
C21 O17 1.278 . S
C21 O22 1.211 . S
O22 C21 1.211 . S
C23 O15 1.284 . S
C23 O24 1.273 . S
O24 C23 1.273 . S
O25 Zn16 1.977 . S
O25 C18 1.267 . S
C26 O27 1.160 . S
C26 O33 1.185 . S
O27 C26 1.160 . S
O28 Zn29 1.899 . S
O28 C36 1.284 . S
Zn29 O28 1.899 . S
Zn29 O30 2.032 . S
Zn29 O33 2.086 . S
Zn29 O38 1.977 . S
O30 Zn29 2.032 . S
O30 C34 1.278 . S
C31 O32 1.203 . S
C31 O38 1.267 . S
O32 C31 1.203 . S
O33 C26 1.185 . S
O33 Zn29 2.086 . S
C34 O30 1.278 . S
C34 O35 1.211 . S
O35 C34 1.211 . S
C36 O28 1.284 . S
C36 O37 1.273 . S
O37 C36 1.273 . S
O38 Zn29 1.977 . S
O38 C31 1.267 . S
C39 O40 1.160 . S
C39 O46 1.185 . S
O40 C39 1.160 . S
O41 Zn42 1.899 . S
O41 C49 1.284 . S
Zn42 O41 1.899 . S
Zn42 O43 2.032 . S
Zn42 O46 2.086 . S
Zn42 O51 1.977 . S
O43 Zn42 2.032 . S
O43 C47 1.278 . S
C44 O45 1.203 . S
C44 O51 1.267 . S
O45 C44 1.203 . S
O46 C39 1.185 . S
O46 Zn42 2.086 . S
C47 O43 1.278 . S
C47 O48 1.211 . S
O48 C47 1.211 . S
C49 O41 1.284 . S
C49 O50 1.273 . S
O50 C49 1.273 . S
O51 Zn42 1.977 . S
O51 C44 1.267 . S
C52 O53 1.160 . S
C52 O59 1.185 . S
O53 C52 1.160 . S
O54 Zn55 1.899 . S
O54 C62 1.284 . S
Zn55 O54 1.899 . S
Zn55 O56 2.032 . S
Zn55 O59 2.086 . S
Zn55 O64 1.977 . S
O56 Zn55 2.032 . S
O56 C60 1.278 . S
C57 O58 1.203 . S
C57 O64 1.267 . S
O58 C57 1.203 . S
O59 C52 1.185 . S
O59 Zn55 2.086 . S
C60 O56 1.278 . S
C60 O61 1.211 . S
O61 C60 1.211 . S
C62 O54 1.284 . S
C62 O63 1.273 . S
O63 C62 1.273 . S
O64 Zn55 1.977 . S
O64 C57 1.267 . S
C65 O66 1.160 . S
C65 O72 1.185 . S
O66 C65 1.160 . S
O67 Zn68 1.899 . S
O67 C75 1.284 . S
Zn68 O67 1.899 . S
Zn68 O69 2.032 . S
Zn68 O72 2.086 . S
Zn68 O77 1.977 . S
O69 Zn68 2.032 . S
O69 C73 1.278 . S
C70 O71 1.203 . S
C70 O77 1.267 . S
O71 C70 1.203 . S
O72 C65 1.185 . S
O72 Zn68 2.086 . S
C73 O69 1.278 . S
C73 O74 1.211 . S
O74 C73 1.211 . S
C75 O67 1.284 . S
C75 O76 1.273 . S
O76 C75 1.273 . S
O77 Zn68 1.977 . S
O77 C70 1.267 . S
C78 O79 1.160 . S
C78 O85 1.185 . S
O79 C78 1.160 . S
O80 Zn81 1.899 . S
O80 C88 1.284 . S
Zn81 O80 1.899 . S
Zn81 O82 2.032 . S
Zn81 O85 2.086 . S
Zn81 O90 1.977 . S
O82 Zn81 2.032 . S
O82 C86 1.278 . S
C83 O84 1.203 . S
C83 O90 1.267 . S
O84 C83 1.203 . S
O85 C78 1.185 . S
O85 Zn81 2.086 . S
C86 O82 1.278 . S
C86 O87 1.211 . S
O87 C86 1.211 . S
C88 O80 1.284 . S
C88 O89 1.273 . S
O89 C88 1.273 . S
O90 Zn81 1.977 . S
O90 C83 1.267 . S
C91 O92 1.160 . S
C91 O98 1.185 . S
O92 C91 1.160 . S
O93 Zn94 1.899 . S
O93 C101 1.284 . S
Zn94 O93 1.899 . S
Zn94 O95 2.032 . S
Zn94 O98 2.086 . S
Zn94 O103 1.977 . S
O95 Zn94 2.032 . S
O95 C99 1.278 . S
C96 O97 1.203 . S
C96 O103 1.267 . S
O97 C96 1.203 . S
O98 C91 1.185 . S
O98 Zn94 2.086 . S
C99 O95 1.278 . S
C99 O100 1.211 . S
O100 C99 1.211 . S
C101 O93 1.284 . S
C101 O102 1.273 . S
O102 C101 1.273 . S
O103 Zn94 1.977 . S
O103 C96 1.267 . S
H104 C122 0.951 . S
H105 C124 0.951 . S
H106 C126 0.950 . S
H107 C127 0.950 . S
H108 C129 0.950 . S
H109 C132 0.950 1_545 S
H110 C133 0.950 1_545 S
H111 C135 0.950 . S
H112 C136 0.950 . S
H113 C137 0.951 . S
H114 C139 0.951 . S
H115 C141 0.950 . S
H116 C142 0.950 . S
H117 C144 0.950 . S
H118 C147 0.950 1_565 S
H119 C148 0.950 1_565 S
H120 C150 0.950 . S
H121 C151 0.950 . S
C122 H104 0.951 . S
C122 C123 1.366 . S
C122 C124 1.388 . S
C123 C122 1.366 . S
C123 C127 1.385 . S
C124 H105 0.951 . S
C124 C122 1.388 . S
C124 C125 1.366 . S
C125 C124 1.366 . S
C125 C126 1.414 . S
C125 C128 1.499 . S
C126 H106 0.950 . S
C126 C125 1.414 . S
C126 C127 1.374 . S
C127 H107 0.950 . S
C127 C123 1.385 . S
C127 C126 1.374 . S
C128 C125 1.499 . S
C128 C129 1.373 . S
C128 C130 1.389 1_545 S
C129 H108 0.950 . S
C129 C128 1.373 . S
C129 C145 1.377 . S
C130 C128 1.389 1_565 S
C130 C131 1.524 . S
C130 C144 1.377 . S
C131 C130 1.524 . S
C131 C132 1.397 . S
C131 C136 1.363 . S
C132 H109 0.950 1_565 S
C132 C131 1.397 . S
C132 C133 1.334 1_554 S
C133 H110 0.950 1_565 S
C133 C132 1.334 1_556 S
C133 C134 1.287 1_556 S
C134 C133 1.287 1_554 S
C134 C135 1.524 . S
C134 H153 0.913 1_554 S
C135 H111 0.950 . S
C135 C134 1.524 . S
C135 C136 1.415 . S
C136 H112 0.950 . S
C136 C131 1.363 . S
C136 C135 1.415 . S
C137 H113 0.951 . S
C137 C138 1.366 . S
C137 C139 1.388 . S
C138 C137 1.366 . S
C138 C142 1.385 . S
C139 H114 0.951 . S
C139 C137 1.388 . S
C139 C140 1.366 . S
C140 C139 1.366 . S
C140 C141 1.414 . S
C140 C143 1.499 . S
C141 H115 0.950 . S
C141 C140 1.414 . S
C141 C142 1.374 . S
C142 H116 0.950 . S
C142 C138 1.385 . S
C142 C141 1.374 . S
C143 C140 1.499 . S
C143 C144 1.373 . S
C143 C145 1.389 1_565 S
C144 H117 0.950 . S
C144 C130 1.377 . S
C144 C143 1.373 . S
C145 C129 1.377 . S
C145 C143 1.389 1_545 S
C145 C146 1.524 . S
C146 C145 1.524 . S
C146 C147 1.397 . S
C146 C151 1.363 . S
C147 H118 0.950 1_545 S
C147 C146 1.397 . S
C147 C148 1.334 . S
C148 H119 0.950 1_545 S
C148 C147 1.334 . S
C148 C149 1.287 . S
C149 C148 1.287 . S
C149 C150 1.524 . S
C149 H152 0.999 . S
C150 H120 0.950 . S
C150 C149 1.524 . S
C150 C151 1.415 . S
C151 H121 0.950 . S
C151 C146 1.363 . S
C151 C150 1.415 . S
H152 C149 0.999 . S
H153 C134 0.913 1_556 S
H154 C172 0.951 . S
H155 C174 0.951 . S
H156 C176 0.950 . S
H157 C177 0.950 . S
H158 C179 0.950 . S
H159 C182 0.950 . S
H160 C183 0.950 . S
H161 C185 0.950 . S
H162 C186 0.950 . S
H163 C187 0.951 . S
H164 C189 0.951 . S
H165 C191 0.950 . S
H166 C192 0.950 . S
H167 C194 0.950 . S
H168 C197 0.950 . S
H169 C198 0.950 . S
H170 C200 0.950 . S
H171 C201 0.950 . S
C172 H154 0.951 . S
C172 C173 1.366 . S
C172 C174 1.388 . S
C173 C172 1.366 . S
C173 C177 1.385 . S
C174 H155 0.951 . S
C174 C172 1.388 . S
C174 C175 1.366 . S
C175 C174 1.366 . S
C175 C176 1.414 . S
C175 C178 1.499 . S
C176 H156 0.950 . S
C176 C175 1.414 . S
C176 C177 1.374 . S
C177 H157 0.950 . S
C177 C173 1.385 . S
C177 C176 1.374 . S
C178 C175 1.499 . S
C178 C179 1.373 . S
C178 C180 1.389 . S
C179 H158 0.950 . S
C179 C178 1.373 . S
C179 C195 1.377 . S
C180 C178 1.389 . S
C180 C181 1.524 . S
C180 C194 1.377 . S
C181 C180 1.524 . S
C181 C182 1.397 . S
C181 C186 1.363 . S
C182 H159 0.950 . S
C182 C181 1.397 . S
C182 C183 1.334 . S
C183 H160 0.950 . S
C183 C182 1.334 . S
C183 C184 1.287 . S
C184 C183 1.287 . S
C184 C185 1.524 . S
C184 H203 0.913 . S
C185 H161 0.950 . S
C185 C184 1.524 . S
C185 C186 1.415 . S
C186 H162 0.950 . S
C186 C181 1.363 . S
C186 C185 1.415 . S
C187 H163 0.951 . S
C187 C188 1.366 . S
C187 C189 1.388 . S
C188 C187 1.366 . S
C188 C192 1.385 . S
C189 H164 0.951 . S
C189 C187 1.388 . S
C189 C190 1.366 . S
C190 C189 1.366 . S
C190 C191 1.414 . S
C190 C193 1.499 . S
C191 H165 0.950 . S
C191 C190 1.414 . S
C191 C192 1.374 . S
C192 H166 0.950 . S
C192 C188 1.385 . S
C192 C191 1.374 . S
C193 C190 1.499 . S
C193 C194 1.373 . S
C193 C195 1.389 . S
C194 H167 0.950 . S
C194 C180 1.377 . S
C194 C193 1.373 . S
C195 C179 1.377 . S
C195 C193 1.389 . S
C195 C196 1.524 . S
C196 C195 1.524 . S
C196 C197 1.397 . S
C196 C201 1.363 . S
C197 H168 0.950 . S
C197 C196 1.397 . S
C197 C198 1.334 . S
C198 H169 0.950 . S
C198 C197 1.334 . S
C198 C199 1.287 . S
C199 C198 1.287 . S
C199 C200 1.524 . S
C199 H202 0.999 . S
C200 H170 0.950 . S
C200 C199 1.524 . S
C200 C201 1.415 . S
C201 H171 0.950 . S
C201 C196 1.363 . S
C201 C200 1.415 . S
H202 C199 0.999 . S
H203 C184 0.913 . S
H204 C222 0.951 . S
H205 C224 0.951 . S
H206 C226 0.950 . S
H207 C227 0.950 . S
H208 C229 0.950 . S
H209 C232 0.950 . S
H210 C233 0.950 . S
H211 C235 0.950 . S
H212 C236 0.950 . S
H213 C237 0.951 . S
H214 C239 0.951 . S
H215 C241 0.950 . S
H216 C242 0.950 . S
H217 C244 0.950 . S
H218 C247 0.950 1_556 S
H219 C248 0.950 . S
H220 C250 0.950 . S
H221 C251 0.950 . S
C222 H204 0.951 . S
C222 C223 1.366 . S
C222 C224 1.388 . S
C223 C222 1.366 . S
C223 C227 1.385 . S
C224 H205 0.951 . S
C224 C222 1.388 . S
C224 C225 1.366 . S
C225 C224 1.366 . S
C225 C226 1.414 . S
C225 C228 1.499 . S
C226 H206 0.950 . S
C226 C225 1.414 . S
C226 C227 1.374 . S
C227 H207 0.950 . S
C227 C223 1.385 . S
C227 C226 1.374 . S
C228 C225 1.499 . S
C228 C229 1.373 . S
C228 C230 1.372 1_565 S
C229 H208 0.950 . S
C229 C228 1.373 . S
C229 C245 1.394 . S
C230 C228 1.372 1_545 S
C230 C231 1.525 . S
C230 C244 1.394 . S
C231 C230 1.525 . S
C231 C232 1.397 1_545 S
C231 C236 1.363 . S
C232 H209 0.950 . S
C232 C231 1.397 1_565 S
C232 C233 1.334 . S
C233 H210 0.950 . S
C233 C232 1.334 . S
C233 C234 1.287 . S
C234 C233 1.287 . S
C234 C235 1.524 1_565 S
C234 H253 0.913 . S
C235 H211 0.950 . S
C235 C234 1.524 1_545 S
C235 C236 1.415 . S
C236 H212 0.950 . S
C236 C231 1.363 . S
C236 C235 1.415 . S
C237 H213 0.951 . S
C237 C238 1.366 . S
C237 C239 1.388 . S
C238 C237 1.366 . S
C238 C242 1.385 . S
C239 H214 0.951 . S
C239 C237 1.388 . S
C239 C240 1.366 . S
C240 C239 1.366 . S
C240 C241 1.414 . S
C240 C243 1.499 . S
C241 H215 0.950 . S
C241 C240 1.414 . S
C241 C242 1.374 . S
C242 H216 0.950 . S
C242 C238 1.385 . S
C242 C241 1.374 . S
C243 C240 1.499 . S
C243 C244 1.373 . S
C243 C245 1.372 1_545 S
C244 H217 0.950 . S
C244 C230 1.394 . S
C244 C243 1.373 . S
C245 C229 1.394 . S
C245 C243 1.372 1_565 S
C245 C246 1.525 . S
C246 C245 1.525 . S
C246 C247 1.397 1_566 S
C246 C251 1.363 . S
C247 H218 0.950 1_554 S
C247 C246 1.397 1_544 S
C247 C248 1.334 . S
C248 H219 0.950 . S
C248 C247 1.334 . S
C248 C249 1.287 . S
C249 C248 1.287 . S
C249 C250 1.524 1_545 S
C249 H252 0.999 1_545 S
C250 H220 0.950 . S
C250 C249 1.524 1_565 S
C250 C251 1.415 1_554 S
C251 H221 0.950 . S
C251 C246 1.363 . S
C251 C250 1.415 1_556 S
H252 C249 0.999 1_565 S
H253 C234 0.913 . S
H254 C272 0.951 . S
H255 C274 0.951 . S
H256 C276 0.950 . S
H257 C277 0.950 . S
H258 C279 0.950 . S
H259 C282 0.950 . S
H260 C283 0.950 . S
H261 C285 0.950 . S
H262 C286 0.950 . S
H263 C287 0.951 . S
H264 C289 0.951 . S
H265 C291 0.950 . S
H266 C292 0.950 . S
H267 C294 0.950 . S
H268 C297 0.950 . S
H269 C298 0.950 . S
H270 C300 0.950 . S
H271 C301 0.950 . S
C272 H254 0.951 . S
C272 C273 1.366 . S
C272 C274 1.388 . S
C273 C272 1.366 . S
C273 C277 1.385 . S
C274 H255 0.951 . S
C274 C272 1.388 . S
C274 C275 1.366 . S
C275 C274 1.366 . S
C275 C276 1.414 . S
C275 C278 1.499 . S
C276 H256 0.950 . S
C276 C275 1.414 . S
C276 C277 1.374 . S
C277 H257 0.950 . S
C277 C273 1.385 . S
C277 C276 1.374 . S
C278 C275 1.499 . S
C278 C279 1.373 . S
C278 C280 1.389 . S
C279 H258 0.950 . S
C279 C278 1.373 . S
C279 C295 1.377 . S
C280 C278 1.389 . S
C280 C281 1.524 . S
C280 C294 1.377 . S
C281 C280 1.524 . S
C281 C282 1.397 . S
C281 C286 1.363 . S
C282 H259 0.950 . S
C282 C281 1.397 . S
C282 C283 1.334 . S
C283 H260 0.950 . S
C283 C282 1.334 . S
C283 C284 1.287 . S
C284 C283 1.287 . S
C284 C285 1.524 . S
C284 H303 0.913 . S
C285 H261 0.950 . S
C285 C284 1.524 . S
C285 C286 1.415 . S
C286 H262 0.950 . S
C286 C281 1.363 . S
C286 C285 1.415 . S
C287 H263 0.951 . S
C287 C288 1.366 . S
C287 C289 1.388 . S
C288 C287 1.366 . S
C288 C292 1.385 . S
C289 H264 0.951 . S
C289 C287 1.388 . S
C289 C290 1.366 . S
C290 C289 1.366 . S
C290 C291 1.414 . S
C290 C293 1.499 . S
C291 H265 0.950 . S
C291 C290 1.414 . S
C291 C292 1.374 . S
C292 H266 0.950 . S
C292 C288 1.385 . S
C292 C291 1.374 . S
C293 C290 1.499 . S
C293 C294 1.373 . S
C293 C295 1.389 . S
C294 H267 0.950 . S
C294 C280 1.377 . S
C294 C293 1.373 . S
C295 C279 1.377 . S
C295 C293 1.389 . S
C295 C296 1.524 . S
C296 C295 1.524 . S
C296 C297 1.397 . S
C296 C301 1.363 . S
C297 H268 0.950 . S
C297 C296 1.397 . S
C297 C298 1.334 . S
C298 H269 0.950 . S
C298 C297 1.334 . S
C298 C299 1.287 . S
C299 C298 1.287 . S
C299 C300 1.524 . S
C299 H302 0.999 . S
C300 H270 0.950 . S
C300 C299 1.524 . S
C300 C301 1.415 . S
C301 H271 0.950 . S
C301 C296 1.363 . S
C301 C300 1.415 . S
H302 C299 0.999 . S
H303 C284 0.913 . S
H304 C322 0.951 . S
H305 C324 0.951 . S
H306 C326 0.950 . S
H307 C327 0.950 . S
H308 C329 0.950 . S
H309 C332 0.950 . S
H310 C333 0.950 . S
H311 C335 0.950 . S
H312 C336 0.950 . S
H313 C337 0.951 . S
H314 C339 0.951 . S
H315 C341 0.950 . S
H316 C342 0.950 . S
H317 C344 0.950 . S
H318 C347 0.950 . S
H319 C348 0.950 . S
H320 C350 0.950 . S
H321 C351 0.950 . S
C322 H304 0.951 . S
C322 C323 1.366 . S
C322 C324 1.388 . S
C323 C322 1.366 . S
C323 C327 1.385 . S
C324 H305 0.951 . S
C324 C322 1.388 . S
C324 C325 1.366 . S
C325 C324 1.366 . S
C325 C326 1.414 . S
C325 C328 1.499 . S
C326 H306 0.950 . S
C326 C325 1.414 . S
C326 C327 1.374 . S
C327 H307 0.950 . S
C327 C323 1.385 . S
C327 C326 1.374 . S
C328 C325 1.499 . S
C328 C329 1.373 . S
C328 C330 1.389 . S
C329 H308 0.950 . S
C329 C328 1.373 . S
C329 C345 1.377 . S
C330 C328 1.389 . S
C330 C331 1.524 . S
C330 C344 1.377 . S
C331 C330 1.524 . S
C331 C332 1.397 . S
C331 C336 1.363 . S
C332 H309 0.950 . S
C332 C331 1.397 . S
C332 C333 1.334 . S
C333 H310 0.950 . S
C333 C332 1.334 . S
C333 C334 1.287 . S
C334 C333 1.287 . S
C334 C335 1.524 . S
C334 H353 0.913 . S
C335 H311 0.950 . S
C335 C334 1.524 . S
C335 C336 1.415 . S
C336 H312 0.950 . S
C336 C331 1.363 . S
C336 C335 1.415 . S
C337 H313 0.951 . S
C337 C338 1.366 . S
C337 C339 1.388 . S
C338 C337 1.366 . S
C338 C342 1.385 . S
C339 H314 0.951 . S
C339 C337 1.388 . S
C339 C340 1.366 . S
C340 C339 1.366 . S
C340 C341 1.414 . S
C340 C343 1.499 . S
C341 H315 0.950 . S
C341 C340 1.414 . S
C341 C342 1.374 . S
C342 H316 0.950 . S
C342 C338 1.385 . S
C342 C341 1.374 . S
C343 C340 1.499 . S
C343 C344 1.373 . S
C343 C345 1.389 . S
C344 H317 0.950 . S
C344 C330 1.377 . S
C344 C343 1.373 . S
C345 C329 1.377 . S
C345 C343 1.389 . S
C345 C346 1.524 . S
C346 C345 1.524 . S
C346 C347 1.397 . S
C346 C351 1.363 . S
C347 H318 0.950 . S
C347 C346 1.397 . S
C347 C348 1.334 . S
C348 H319 0.950 . S
C348 C347 1.334 . S
C348 C349 1.287 . S
C349 C348 1.287 . S
C349 C350 1.524 . S
C349 H352 0.999 . S
C350 H320 0.950 . S
C350 C349 1.524 . S
C350 C351 1.415 . S
C351 H321 0.950 . S
C351 C346 1.363 . S
C351 C350 1.415 . S
H352 C349 0.999 . S
H353 C334 0.913 . S
H354 C372 0.951 . S
H355 C374 0.951 . S
H356 C376 0.950 . S
H357 C377 0.950 . S
H358 C379 0.950 . S
H359 C382 0.950 . S
H360 C383 0.950 . S
H361 C385 0.950 . S
H362 C386 0.950 . S
H363 C387 0.951 . S
H364 C389 0.951 . S
H365 C391 0.950 . S
H366 C392 0.950 . S
H367 C394 0.950 . S
H368 C397 0.950 . S
H369 C398 0.950 . S
H370 C400 0.950 . S
H371 C401 0.950 . S
C372 H354 0.951 . S
C372 C373 1.366 . S
C372 C374 1.388 . S
C373 C372 1.366 . S
C373 C377 1.385 . S
C374 H355 0.951 . S
C374 C372 1.388 . S
C374 C375 1.366 . S
C375 C374 1.366 . S
C375 C376 1.414 . S
C375 C378 1.499 . S
C376 H356 0.950 . S
C376 C375 1.414 . S
C376 C377 1.374 . S
C377 H357 0.950 . S
C377 C373 1.385 . S
C377 C376 1.374 . S
C378 C375 1.499 . S
C378 C379 1.373 . S
C378 C380 1.389 . S
C379 H358 0.950 . S
C379 C378 1.373 . S
C379 C395 1.377 . S
C380 C378 1.389 . S
C380 C381 1.524 . S
C380 C394 1.377 . S
C381 C380 1.524 . S
C381 C382 1.397 . S
C381 C386 1.363 . S
C382 H359 0.950 . S
C382 C381 1.397 . S
C382 C383 1.334 . S
C383 H360 0.950 . S
C383 C382 1.334 . S
C383 C384 1.287 . S
C384 C383 1.287 . S
C384 C385 1.524 . S
C384 H403 0.913 . S
C385 H361 0.950 . S
C385 C384 1.524 . S
C385 C386 1.415 . S
C386 H362 0.950 . S
C386 C381 1.363 . S
C386 C385 1.415 . S
C387 H363 0.951 . S
C387 C388 1.366 . S
C387 C389 1.388 . S
C388 C387 1.366 . S
C388 C392 1.385 . S
C389 H364 0.951 . S
C389 C387 1.388 . S
C389 C390 1.366 . S
C390 C389 1.366 . S
C390 C391 1.414 . S
C390 C393 1.499 . S
C391 H365 0.950 . S
C391 C390 1.414 . S
C391 C392 1.374 . S
C392 H366 0.950 . S
C392 C388 1.385 . S
C392 C391 1.374 . S
C393 C390 1.499 . S
C393 C394 1.373 . S
C393 C395 1.389 . S
C394 H367 0.950 . S
C394 C380 1.377 . S
C394 C393 1.373 . S
C395 C379 1.377 . S
C395 C393 1.389 . S
C395 C396 1.524 . S
C396 C395 1.524 . S
C396 C397 1.397 . S
C396 C401 1.363 . S
C397 H368 0.950 . S
C397 C396 1.397 . S
C397 C398 1.334 . S
C398 H369 0.950 . S
C398 C397 1.334 . S
C398 C399 1.287 . S
C399 C398 1.287 . S
C399 C400 1.524 . S
C399 H402 0.999 . S
C400 H370 0.950 . S
C400 C399 1.524 . S
C400 C401 1.415 . S
C401 H371 0.950 . S
C401 C396 1.363 . S
C401 C400 1.415 . S
H402 C399 0.999 . S
H403 C384 0.913 . S
H404 C422 0.951 . S
H405 C424 0.951 . S
H406 C426 0.950 . S
H407 C427 0.950 . S
H408 C429 0.950 . S
H409 C432 0.950 . S
H410 C433 0.950 . S
H411 C435 0.950 . S
H412 C436 0.950 . S
H413 C437 0.951 . S
H414 C439 0.951 . S
H415 C441 0.950 . S
H416 C442 0.950 . S
H417 C444 0.950 . S
H418 C447 0.950 . S
H419 C448 0.950 . S
H420 C450 0.950 . S
H421 C451 0.950 . S
C422 H404 0.951 . S
C422 C423 1.366 . S
C422 C424 1.388 . S
C423 C422 1.366 . S
C423 C427 1.385 . S
C424 H405 0.951 . S
C424 C422 1.388 . S
C424 C425 1.366 . S
C425 C424 1.366 . S
C425 C426 1.414 . S
C425 C428 1.499 . S
C426 H406 0.950 . S
C426 C425 1.414 . S
C426 C427 1.374 . S
C427 H407 0.950 . S
C427 C423 1.385 . S
C427 C426 1.374 . S
C428 C425 1.499 . S
C428 C429 1.373 . S
C428 C430 1.389 . S
C429 H408 0.950 . S
C429 C428 1.373 . S
C429 C445 1.377 . S
C430 C428 1.389 . S
C430 C431 1.524 . S
C430 C444 1.377 . S
C431 C430 1.524 . S
C431 C432 1.397 . S
C431 C436 1.363 . S
C432 H409 0.950 . S
C432 C431 1.397 . S
C432 C433 1.334 . S
C433 H410 0.950 . S
C433 C432 1.334 . S
C433 C434 1.287 . S
C434 C433 1.287 . S
C434 C435 1.524 . S
C434 H453 0.913 . S
C435 H411 0.950 . S
C435 C434 1.524 . S
C435 C436 1.415 . S
C436 H412 0.950 . S
C436 C431 1.363 . S
C436 C435 1.415 . S
C437 H413 0.951 . S
C437 C438 1.366 . S
C437 C439 1.388 . S
C438 C437 1.366 . S
C438 C442 1.385 . S
C439 H414 0.951 . S
C439 C437 1.388 . S
C439 C440 1.366 . S
C440 C439 1.366 . S
C440 C441 1.414 . S
C440 C443 1.499 . S
C441 H415 0.950 . S
C441 C440 1.414 . S
C441 C442 1.374 . S
C442 H416 0.950 . S
C442 C438 1.385 . S
C442 C441 1.374 . S
C443 C440 1.499 . S
C443 C444 1.373 . S
C443 C445 1.389 . S
C444 H417 0.950 . S
C444 C430 1.377 . S
C444 C443 1.373 . S
C445 C429 1.377 . S
C445 C443 1.389 . S
C445 C446 1.524 . S
C446 C445 1.524 . S
C446 C447 1.397 . S
C446 C451 1.363 . S
C447 H418 0.950 . S
C447 C446 1.397 . S
C447 C448 1.334 . S
C448 H419 0.950 . S
C448 C447 1.334 . S
C448 C449 1.287 . S
C449 C448 1.287 . S
C449 C450 1.524 . S
C449 H452 0.999 . S
C450 H420 0.950 . S
C450 C449 1.524 . S
C450 C451 1.415 . S
C451 H421 0.950 . S
C451 C446 1.363 . S
C451 C450 1.415 . S
H452 C449 0.999 . S
H453 C434 0.913 . S
H454 C472 0.951 . S
H455 C474 0.951 . S
H456 C476 0.950 . S
H457 C477 0.950 . S
H458 C479 0.950 . S
H459 C482 0.950 . S
H460 C483 0.950 . S
H461 C485 0.950 . S
H462 C486 0.950 . S
H463 C487 0.951 . S
H464 C489 0.951 . S
H465 C491 0.950 . S
H466 C492 0.950 . S
H467 C494 0.950 . S
H468 C497 0.950 . S
H469 C498 0.950 . S
H470 C500 0.950 . S
H471 C501 0.950 . S
C472 H454 0.951 . S
C472 C473 1.366 . S
C472 C474 1.388 . S
C473 C472 1.366 . S
C473 C477 1.385 . S
C474 H455 0.951 . S
C474 C472 1.388 . S
C474 C475 1.366 . S
C475 C474 1.366 . S
C475 C476 1.414 . S
C475 C478 1.499 . S
C476 H456 0.950 . S
C476 C475 1.414 . S
C476 C477 1.374 . S
C477 H457 0.950 . S
C477 C473 1.385 . S
C477 C476 1.374 . S
C478 C475 1.499 . S
C478 C479 1.373 . S
C478 C480 1.389 . S
C479 H458 0.950 . S
C479 C478 1.373 . S
C479 C495 1.377 . S
C480 C478 1.389 . S
C480 C481 1.524 . S
C480 C494 1.377 . S
C481 C480 1.524 . S
C481 C482 1.397 . S
C481 C486 1.363 . S
C482 H459 0.950 . S
C482 C481 1.397 . S
C482 C483 1.334 . S
C483 H460 0.950 . S
C483 C482 1.334 . S
C483 C484 1.287 . S
C484 C483 1.287 . S
C484 C485 1.524 . S
C484 H503 0.913 . S
C485 H461 0.950 . S
C485 C484 1.524 . S
C485 C486 1.415 . S
C486 H462 0.950 . S
C486 C481 1.363 . S
C486 C485 1.415 . S
C487 H463 0.951 . S
C487 C488 1.366 . S
C487 C489 1.388 . S
C488 C487 1.366 . S
C488 C492 1.385 . S
C489 H464 0.951 . S
C489 C487 1.388 . S
C489 C490 1.366 . S
C490 C489 1.366 . S
C490 C491 1.414 . S
C490 C493 1.499 . S
C491 H465 0.950 . S
C491 C490 1.414 . S
C491 C492 1.374 . S
C492 H466 0.950 . S
C492 C488 1.385 . S
C492 C491 1.374 . S
C493 C490 1.499 . S
C493 C494 1.373 . S
C493 C495 1.389 . S
C494 H467 0.950 . S
C494 C480 1.377 . S
C494 C493 1.373 . S
C495 C479 1.377 . S
C495 C493 1.389 . S
C495 C496 1.524 . S
C496 C495 1.524 . S
C496 C497 1.397 . S
C496 C501 1.363 . S
C497 H468 0.950 . S
C497 C496 1.397 . S
C497 C498 1.334 . S
C498 H469 0.950 . S
C498 C497 1.334 . S
C498 C499 1.287 . S
C499 C498 1.287 . S
C499 C500 1.524 . S
C499 H502 0.999 . S
C500 H470 0.950 . S
C500 C499 1.524 . S
C500 C501 1.415 . S
C501 H471 0.950 . S
C501 C496 1.363 . S
C501 C500 1.415 . S
H502 C499 0.999 . S
H503 C484 0.913 . S
H504 C522 0.951 . S
H505 C524 0.951 . S
H506 C526 0.950 1_556 S
H507 C527 0.950 . S
H508 C529 0.950 . S
H509 C532 0.950 . S
H510 C533 0.950 . S
H511 C535 0.950 . S
H512 C536 0.950 . S
H513 C537 0.951 . S
H514 C539 0.951 . S
H515 C541 0.950 1_554 S
H516 C542 0.950 . S
H517 C544 0.950 . S
H518 C547 0.950 . S
H519 C548 0.950 . S
H520 C550 0.950 . S
H521 C551 0.950 . S
C522 H504 0.951 . S
C522 C523 1.366 . S
C522 C524 1.388 . S
C523 C522 1.366 . S
C523 C527 1.385 . S
C524 H505 0.951 . S
C524 C522 1.388 . S
C524 C525 1.366 . S
C525 C524 1.366 . S
C525 C526 1.414 . S
C525 C528 1.499 . S
C526 H506 0.950 1_554 S
C526 C525 1.414 . S
C526 C527 1.374 . S
C527 H507 0.950 . S
C527 C523 1.385 . S
C527 C526 1.374 . S
C528 C525 1.499 . S
C528 C529 1.373 1_554 S
C528 C530 1.389 . S
C529 H508 0.950 . S
C529 C528 1.373 1_556 S
C529 C545 1.377 . S
C530 C528 1.389 . S
C530 C531 1.524 . S
C530 C544 1.377 . S
C531 C530 1.524 . S
C531 C532 1.397 . S
C531 C536 1.363 . S
C532 H509 0.950 . S
C532 C531 1.397 . S
C532 C533 1.334 . S
C533 H510 0.950 . S
C533 C532 1.334 . S
C533 C534 1.287 . S
C534 C533 1.287 . S
C534 C535 1.524 . S
C534 H553 0.913 . S
C535 H511 0.950 . S
C535 C534 1.524 . S
C535 C536 1.415 . S
C536 H512 0.950 . S
C536 C531 1.363 . S
C536 C535 1.415 . S
C537 H513 0.951 . S
C537 C538 1.366 . S
C537 C539 1.388 . S
C538 C537 1.366 . S
C538 C542 1.385 . S
C539 H514 0.951 . S
C539 C537 1.388 . S
C539 C540 1.366 . S
C540 C539 1.366 . S
C540 C541 1.414 . S
C540 C543 1.499 . S
C541 H515 0.950 1_556 S
C541 C540 1.414 . S
C541 C542 1.374 . S
C542 H516 0.950 . S
C542 C538 1.385 . S
C542 C541 1.374 . S
C543 C540 1.499 . S
C543 C544 1.373 1_556 S
C543 C545 1.389 . S
C544 H517 0.950 . S
C544 C530 1.377 . S
C544 C543 1.373 1_554 S
C545 C529 1.377 . S
C545 C543 1.389 . S
C545 C546 1.524 . S
C546 C545 1.524 . S
C546 C547 1.397 . S
C546 C551 1.363 . S
C547 H518 0.950 . S
C547 C546 1.397 . S
C547 C548 1.334 . S
C548 H519 0.950 . S
C548 C547 1.334 . S
C548 C549 1.287 . S
C549 C548 1.287 . S
C549 C550 1.524 . S
C549 H552 0.999 . S
C550 H520 0.950 . S
C550 C549 1.524 . S
C550 C551 1.415 . S
C551 H521 0.950 . S
C551 C546 1.363 . S
C551 C550 1.415 . S
H552 C549 0.999 . S
H553 C534 0.913 . S
H554 C572 0.951 . S
H555 C574 0.951 . S
H556 C576 0.950 . S
H557 C577 0.950 . S
H558 C579 0.950 . S
H559 C582 0.950 . S
H560 C583 0.950 . S
H561 C585 0.950 . S
H562 C586 0.950 . S
H563 C587 0.951 . S
H564 C589 0.951 . S
H565 C591 0.950 . S
H566 C592 0.950 . S
H567 C594 0.950 . S
H568 C597 0.950 . S
H569 C598 0.950 . S
H570 C600 0.950 . S
H571 C601 0.950 . S
C572 H554 0.951 . S
C572 C573 1.366 . S
C572 C574 1.388 . S
C573 C572 1.366 . S
C573 C577 1.385 . S
C574 H555 0.951 . S
C574 C572 1.388 . S
C574 C575 1.366 . S
C575 C574 1.366 . S
C575 C576 1.414 . S
C575 C578 1.499 . S
C576 H556 0.950 . S
C576 C575 1.414 . S
C576 C577 1.374 . S
C577 H557 0.950 . S
C577 C573 1.385 . S
C577 C576 1.374 . S
C578 C575 1.499 . S
C578 C579 1.373 1_455 S
C578 C580 1.389 1_554 S
C579 H558 0.950 . S
C579 C578 1.373 1_655 S
C579 C595 1.377 . S
C580 C578 1.389 1_556 S
C580 C581 1.524 . S
C580 C594 1.377 . S
C581 C580 1.524 . S
C581 C582 1.397 . S
C581 C586 1.363 . S
C582 H559 0.950 . S
C582 C581 1.397 . S
C582 C583 1.334 . S
C583 H560 0.950 . S
C583 C582 1.334 . S
C583 C584 1.287 . S
C584 C583 1.287 . S
C584 C585 1.524 . S
C584 H603 0.913 . S
C585 H561 0.950 . S
C585 C584 1.524 . S
C585 C586 1.415 . S
C586 H562 0.950 . S
C586 C581 1.363 . S
C586 C585 1.415 . S
C587 H563 0.951 . S
C587 C588 1.366 . S
C587 C589 1.388 . S
C588 C587 1.366 . S
C588 C592 1.385 . S
C589 H564 0.951 . S
C589 C587 1.388 . S
C589 C590 1.366 . S
C590 C589 1.366 . S
C590 C591 1.414 . S
C590 C593 1.499 . S
C591 H565 0.950 . S
C591 C590 1.414 . S
C591 C592 1.374 . S
C592 H566 0.950 . S
C592 C588 1.385 . S
C592 C591 1.374 . S
C593 C590 1.499 . S
C593 C594 1.373 1_655 S
C593 C595 1.389 1_556 S
C594 H567 0.950 . S
C594 C580 1.377 . S
C594 C593 1.373 1_455 S
C595 C579 1.377 . S
C595 C593 1.389 1_554 S
C595 C596 1.524 . S
C596 C595 1.524 . S
C596 C597 1.397 . S
C596 C601 1.363 . S
C597 H568 0.950 . S
C597 C596 1.397 . S
C597 C598 1.334 . S
C598 H569 0.950 . S
C598 C597 1.334 . S
C598 C599 1.287 . S
C599 C598 1.287 . S
C599 C600 1.524 . S
C599 H602 0.999 . S
C600 H570 0.950 . S
C600 C599 1.524 . S
C600 C601 1.415 . S
C601 H571 0.950 . S
C601 C596 1.363 . S
C601 C600 1.415 . S
H602 C599 0.999 . S
H603 C584 0.913 . S
H604 C622 0.951 . S
H605 C624 0.951 . S
H606 C626 0.950 . S
H607 C627 0.950 . S
H608 C629 0.950 . S
H609 C632 0.950 . S
H610 C633 0.950 . S
H611 C635 0.950 . S
H612 C636 0.950 . S
H613 C637 0.951 . S
H614 C639 0.951 . S
H615 C641 0.950 . S
H616 C642 0.950 . S
H617 C644 0.950 . S
H618 C647 0.950 . S
H619 C648 0.950 . S
H620 C650 0.950 . S
H621 C651 0.950 . S
C622 H604 0.951 . S
C622 C623 1.366 . S
C622 C624 1.388 . S
C623 C622 1.366 . S
C623 C627 1.385 . S
C624 H605 0.951 . S
C624 C622 1.388 . S
C624 C625 1.366 . S
C625 C624 1.366 . S
C625 C626 1.414 . S
C625 C628 1.499 . S
C626 H606 0.950 . S
C626 C625 1.414 . S
C626 C627 1.374 . S
C627 H607 0.950 . S
C627 C623 1.385 . S
C627 C626 1.374 . S
C628 C625 1.499 . S
C628 C629 1.373 . S
C628 C630 1.389 . S
C629 H608 0.950 . S
C629 C628 1.373 . S
C629 C645 1.377 1_565 S
C630 C628 1.389 . S
C630 C631 1.524 . S
C630 C644 1.377 1_565 S
C631 C630 1.524 . S
C631 C632 1.397 . S
C631 C636 1.363 1_565 S
C632 H609 0.950 . S
C632 C631 1.397 . S
C632 C633 1.334 . S
C633 H610 0.950 . S
C633 C632 1.334 . S
C633 C634 1.287 . S
C634 C633 1.287 . S
C634 C635 1.524 1_565 S
C634 H653 0.913 . S
C635 H611 0.950 . S
C635 C634 1.524 1_545 S
C635 C636 1.415 . S
C636 H612 0.950 . S
C636 C631 1.363 1_545 S
C636 C635 1.415 . S
C637 H613 0.951 . S
C637 C638 1.366 . S
C637 C639 1.388 . S
C638 C637 1.366 . S
C638 C642 1.385 . S
C639 H614 0.951 . S
C639 C637 1.388 . S
C639 C640 1.366 . S
C640 C639 1.366 . S
C640 C641 1.414 . S
C640 C643 1.499 . S
C641 H615 0.950 . S
C641 C640 1.414 . S
C641 C642 1.374 . S
C642 H616 0.950 . S
C642 C638 1.385 . S
C642 C641 1.374 . S
C643 C640 1.499 . S
C643 C644 1.373 . S
C643 C645 1.389 . S
C644 H617 0.950 . S
C644 C630 1.377 1_545 S
C644 C643 1.373 . S
C645 C629 1.377 1_545 S
C645 C643 1.389 . S
C645 C646 1.524 . S
C646 C645 1.524 . S
C646 C647 1.397 . S
C646 C651 1.363 1_545 S
C647 H618 0.950 . S
C647 C646 1.397 . S
C647 C648 1.334 . S
C648 H619 0.950 . S
C648 C647 1.334 . S
C648 C649 1.287 . S
C649 C648 1.287 . S
C649 C650 1.524 1_545 S
C649 H652 0.999 . S
C650 H620 0.950 . S
C650 C649 1.524 1_565 S
C650 C651 1.415 . S
C651 H621 0.950 . S
C651 C646 1.363 1_565 S
C651 C650 1.415 . S
H652 C649 0.999 . S
H653 C634 0.913 . S
H654 C672 0.951 . S
H655 C674 0.951 . S
H656 C676 0.950 . S
H657 C677 0.950 . S
H658 C679 0.950 . S
H659 C682 0.950 . S
H660 C683 0.950 . S
H661 C685 0.950 . S
H662 C686 0.950 . S
H663 C687 0.951 . S
H664 C689 0.951 . S
H665 C691 0.950 . S
H666 C692 0.950 . S
H667 C694 0.950 . S
H668 C697 0.950 . S
H669 C698 0.950 . S
H670 C700 0.950 . S
H671 C701 0.950 . S
C672 H654 0.951 . S
C672 C673 1.366 . S
C672 C674 1.388 . S
C673 C672 1.366 . S
C673 C677 1.385 . S
C674 H655 0.951 . S
C674 C672 1.388 . S
C674 C675 1.366 . S
C675 C674 1.366 . S
C675 C676 1.414 . S
C675 C678 1.499 . S
C676 H656 0.950 . S
C676 C675 1.414 . S
C676 C677 1.374 . S
C677 H657 0.950 . S
C677 C673 1.385 . S
C677 C676 1.374 . S
C678 C675 1.499 . S
C678 C679 1.373 . S
C678 C680 1.389 1_545 S
C679 H658 0.950 . S
C679 C678 1.373 . S
C679 C695 1.377 1_655 S
C680 C678 1.389 1_565 S
C680 C681 1.524 . S
C680 C694 1.377 1_655 S
C681 C680 1.524 . S
C681 C682 1.397 1_565 S
C681 C686 1.363 . S
C682 H659 0.950 . S
C682 C681 1.397 1_545 S
C682 C683 1.334 . S
C683 H660 0.950 . S
C683 C682 1.334 . S
C683 C684 1.287 1_545 S
C684 C683 1.287 1_565 S
C684 C685 1.524 . S
C684 H703 0.913 . S
C685 H661 0.950 . S
C685 C684 1.524 . S
C685 C686 1.415 . S
C686 H662 0.950 . S
C686 C681 1.363 . S
C686 C685 1.415 . S
C687 H663 0.951 . S
C687 C688 1.366 . S
C687 C689 1.388 . S
C688 C687 1.366 . S
C688 C692 1.385 . S
C689 H664 0.951 . S
C689 C687 1.388 . S
C689 C690 1.366 . S
C690 C689 1.366 . S
C690 C691 1.414 . S
C690 C693 1.499 . S
C691 H665 0.950 . S
C691 C690 1.414 . S
C691 C692 1.374 . S
C692 H666 0.950 . S
C692 C688 1.385 . S
C692 C691 1.374 . S
C693 C690 1.499 . S
C693 C694 1.373 . S
C693 C695 1.389 1_565 S
C694 H667 0.950 . S
C694 C680 1.377 1_455 S
C694 C693 1.373 . S
C695 C679 1.377 1_455 S
C695 C693 1.389 1_545 S
C695 C696 1.524 . S
C696 C695 1.524 . S
C696 C697 1.397 1_545 S
C696 C701 1.363 . S
C697 H668 0.950 . S
C697 C696 1.397 1_565 S
C697 C698 1.334 . S
C698 H669 0.950 . S
C698 C697 1.334 . S
C698 C699 1.287 1_565 S
C699 C698 1.287 1_545 S
C699 C700 1.524 . S
C699 H702 0.999 . S
C700 H670 0.950 . S
C700 C699 1.524 . S
C700 C701 1.415 . S
C701 H671 0.950 . S
C701 C696 1.363 . S
C701 C700 1.415 . S
H702 C699 0.999 . S
H703 C684 0.913 . S
H704 C722 0.951 . S
H705 C724 0.951 . S
H706 C726 0.950 . S
H707 C727 0.950 . S
H708 C729 0.950 . S
H709 C732 0.950 . S
H710 C733 0.950 . S
H711 C735 0.950 . S
H712 C736 0.962 . S
H713 C737 0.951 . S
H714 C739 0.951 . S
H715 C741 0.950 . S
H716 C742 0.950 . S
H717 C744 0.950 . S
H718 C747 0.950 . S
H719 C748 0.950 . S
H720 C750 0.950 . S
H721 C751 0.950 . S
C722 H704 0.951 . S
C722 C723 1.366 . S
C722 C724 1.388 . S
C723 C722 1.366 . S
C723 C727 1.385 . S
C724 H705 0.951 . S
C724 C722 1.388 . S
C724 C725 1.366 . S
C725 C724 1.366 . S
C725 C726 1.414 . S
C725 C728 1.499 . S
C726 H706 0.950 . S
C726 C725 1.414 . S
C726 C727 1.374 . S
C727 H707 0.950 . S
C727 C723 1.385 . S
C727 C726 1.374 . S
C728 C725 1.499 . S
C728 C729 1.373 . S
C728 C730 1.389 . S
C729 H708 0.950 . S
C729 C728 1.373 . S
C729 C745 1.377 . S
C730 C728 1.389 . S
C730 C731 1.524 . S
C730 C744 1.377 . S
C731 C730 1.524 . S
C731 C732 1.397 . S
C731 C736 1.381 . S
C732 H709 0.950 . S
C732 C731 1.397 . S
C732 C733 1.334 1_554 S
C733 H710 0.950 . S
C733 C732 1.334 1_556 S
C733 C734 1.287 . S
C734 C733 1.287 . S
C734 C735 1.524 . S
C734 H753 0.913 . S
C735 H711 0.950 . S
C735 C734 1.524 . S
C735 C736 1.386 1_556 S
C736 H712 0.962 . S
C736 C731 1.381 . S
C736 C735 1.386 1_554 S
C737 H713 0.951 . S
C737 C738 1.366 . S
C737 C739 1.388 . S
C738 C737 1.366 . S
C738 C742 1.385 . S
C739 H714 0.951 . S
C739 C737 1.388 . S
C739 C740 1.366 . S
C740 C739 1.366 . S
C740 C741 1.414 . S
C740 C743 1.499 . S
C741 H715 0.950 . S
C741 C740 1.414 . S
C741 C742 1.374 . S
C742 H716 0.950 . S
C742 C738 1.385 . S
C742 C741 1.374 . S
C743 C740 1.499 . S
C743 C744 1.373 . S
C743 C745 1.389 . S
C744 H717 0.950 . S
C744 C730 1.377 . S
C744 C743 1.373 . S
C745 C729 1.377 . S
C745 C743 1.389 . S
C745 C746 1.524 . S
C746 C745 1.524 . S
C746 C747 1.397 . S
C746 C751 1.363 . S
C747 H718 0.950 . S
C747 C746 1.397 . S
C747 C748 1.334 . S
C748 H719 0.950 . S
C748 C747 1.334 . S
C748 C749 1.287 . S
C749 C748 1.287 . S
C749 C750 1.524 . S
C749 H752 0.999 . S
C750 H720 0.950 . S
C750 C749 1.524 . S
C750 C751 1.415 . S
C751 H721 0.950 . S
C751 C746 1.363 . S
C751 C750 1.415 . S
H752 C749 0.999 . S
H753 C734 0.913 . S
H754 C772 0.951 . S
H755 C774 0.951 . S
H756 C776 0.950 . S
H757 C777 0.950 . S
H758 C779 0.950 . S
H759 C782 0.950 . S
H760 C783 0.950 . S
H761 C785 0.950 . S
H762 C786 0.950 . S
H763 C787 0.951 . S
H764 C789 0.951 . S
H765 C791 0.950 . S
H766 C792 0.950 . S
H767 C794 0.950 . S
H768 C797 0.950 . S
H769 C798 0.950 . S
H770 C800 0.950 . S
H771 C801 0.950 . S
C772 H754 0.951 . S
C772 C773 1.366 . S
C772 C774 1.388 . S
C773 C772 1.366 . S
C773 C777 1.385 . S
C774 H755 0.951 . S
C774 C772 1.388 . S
C774 C775 1.366 . S
C775 C774 1.366 . S
C775 C776 1.414 . S
C775 C778 1.499 . S
C776 H756 0.950 . S
C776 C775 1.414 . S
C776 C777 1.374 . S
C777 H757 0.950 . S
C777 C773 1.385 . S
C777 C776 1.374 . S
C778 C775 1.499 . S
C778 C779 1.373 1_545 S
C778 C780 1.389 . S
C779 H758 0.950 . S
C779 C778 1.373 1_565 S
C779 C795 1.377 . S
C780 C778 1.389 . S
C780 C781 1.524 . S
C780 C794 1.377 . S
C781 C780 1.524 . S
C781 C782 1.397 . S
C781 C786 1.363 . S
C782 H759 0.950 . S
C782 C781 1.397 . S
C782 C783 1.334 . S
C783 H760 0.950 . S
C783 C782 1.334 . S
C783 C784 1.287 . S
C784 C783 1.287 . S
C784 C785 1.524 . S
C784 H803 0.913 . S
C785 H761 0.950 . S
C785 C784 1.524 . S
C785 C786 1.415 . S
C786 H762 0.950 . S
C786 C781 1.363 . S
C786 C785 1.415 . S
C787 H763 0.951 . S
C787 C788 1.366 . S
C787 C789 1.388 . S
C788 C787 1.366 . S
C788 C792 1.385 . S
C789 H764 0.951 . S
C789 C787 1.388 . S
C789 C790 1.366 . S
C790 C789 1.366 . S
C790 C791 1.414 . S
C790 C793 1.499 . S
C791 H765 0.950 . S
C791 C790 1.414 . S
C791 C792 1.374 . S
C792 H766 0.950 . S
C792 C788 1.385 . S
C792 C791 1.374 . S
C793 C790 1.499 . S
C793 C794 1.373 1_565 S
C793 C795 1.389 . S
C794 H767 0.950 . S
C794 C780 1.377 . S
C794 C793 1.373 1_545 S
C795 C779 1.377 . S
C795 C793 1.389 . S
C795 C796 1.524 . S
C796 C795 1.524 . S
C796 C797 1.397 . S
C796 C801 1.363 . S
C797 H768 0.950 . S
C797 C796 1.397 . S
C797 C798 1.334 . S
C798 H769 0.950 . S
C798 C797 1.334 . S
C798 C799 1.287 . S
C799 C798 1.287 . S
C799 C800 1.524 . S
C799 H802 0.999 . S
C800 H770 0.950 . S
C800 C799 1.524 . S
C800 C801 1.415 . S
C801 H771 0.950 . S
C801 C796 1.363 . S
C801 C800 1.415 . S
H802 C799 0.999 . S
H803 C784 0.913 . S
H804 C822 0.951 . S
H805 C824 0.951 . S
H806 C826 0.950 . S
H807 C827 0.950 . S
H808 C829 0.950 . S
H809 C832 0.950 . S
H810 C833 0.950 . S
H811 C835 0.950 . S
H812 C836 0.950 . S
H813 C837 0.951 . S
H814 C839 0.951 . S
H815 C841 0.950 . S
H816 C842 0.950 . S
H817 C844 0.950 . S
H818 C847 0.950 . S
H819 C848 0.950 . S
H820 C850 0.950 . S
H821 C851 0.950 . S
C822 H804 0.951 . S
C822 C823 1.366 . S
C822 C824 1.388 . S
C823 C822 1.366 . S
C823 C827 1.385 . S
C824 H805 0.951 . S
C824 C822 1.388 . S
C824 C825 1.366 . S
C825 C824 1.366 . S
C825 C826 1.414 . S
C825 C828 1.499 . S
C826 H806 0.950 . S
C826 C825 1.414 . S
C826 C827 1.374 . S
C827 H807 0.950 . S
C827 C823 1.385 . S
C827 C826 1.374 . S
C828 C825 1.499 . S
C828 C829 1.373 . S
C828 C830 1.389 . S
C829 H808 0.950 . S
C829 C828 1.373 . S
C829 C845 1.377 . S
C830 C828 1.389 . S
C830 C831 1.524 . S
C830 C844 1.377 . S
C831 C830 1.524 . S
C831 C832 1.397 . S
C831 C836 1.363 . S
C832 H809 0.950 . S
C832 C831 1.397 . S
C832 C833 1.334 . S
C833 H810 0.950 . S
C833 C832 1.334 . S
C833 C834 1.287 . S
C834 C833 1.287 . S
C834 C835 1.524 . S
C834 H853 0.913 . S
C835 H811 0.950 . S
C835 C834 1.524 . S
C835 C836 1.415 . S
C836 H812 0.950 . S
C836 C831 1.363 . S
C836 C835 1.415 . S
C837 H813 0.951 . S
C837 C838 1.366 . S
C837 C839 1.388 . S
C838 C837 1.366 . S
C838 C842 1.385 . S
C839 H814 0.951 . S
C839 C837 1.388 . S
C839 C840 1.366 . S
C840 C839 1.366 . S
C840 C841 1.414 . S
C840 C843 1.499 . S
C841 H815 0.950 . S
C841 C840 1.414 . S
C841 C842 1.374 . S
C842 H816 0.950 . S
C842 C838 1.385 . S
C842 C841 1.374 . S
C843 C840 1.499 . S
C843 C844 1.373 . S
C843 C845 1.389 . S
C844 H817 0.950 . S
C844 C830 1.377 . S
C844 C843 1.373 . S
C845 C829 1.377 . S
C845 C843 1.389 . S
C845 C846 1.524 . S
C846 C845 1.524 . S
C846 C847 1.397 . S
C846 C851 1.363 . S
C847 H818 0.950 . S
C847 C846 1.397 . S
C847 C848 1.334 1_556 S
C848 H819 0.950 . S
C848 C847 1.334 1_554 S
C848 C849 1.285 1_554 S
C849 C848 1.285 1_556 S
C849 C850 1.536 . S
C849 H852 0.990 1_556 S
C850 H820 0.950 . S
C850 C849 1.536 . S
C850 C851 1.415 . S
C851 H821 0.950 . S
C851 C846 1.363 . S
C851 C850 1.415 . S
H852 C849 0.990 1_554 S
H853 C834 0.913 . S
H854 C872 0.951 . S
H855 C874 0.951 . S
H856 C876 0.950 . S
H857 C877 0.950 . S
H858 C879 0.950 . S
H859 C882 0.950 . S
H860 C883 0.950 . S
H861 C885 0.950 . S
H862 C886 0.950 . S
H863 C887 0.951 . S
H864 C889 0.951 . S
H865 C891 0.950 . S
H866 C892 0.950 . S
H867 C894 0.950 . S
H868 C897 0.950 . S
H869 C898 0.950 . S
H870 C900 0.950 . S
H871 C901 0.950 . S
C872 H854 0.951 . S
C872 C873 1.366 . S
C872 C874 1.388 . S
C873 C872 1.366 . S
C873 C877 1.385 . S
C874 H855 0.951 . S
C874 C872 1.388 . S
C874 C875 1.366 . S
C875 C874 1.366 . S
C875 C876 1.414 . S
C875 C878 1.499 . S
C876 H856 0.950 . S
C876 C875 1.414 . S
C876 C877 1.374 . S
C877 H857 0.950 . S
C877 C873 1.385 . S
C877 C876 1.374 . S
C878 C875 1.499 . S
C878 C879 1.373 . S
C878 C880 1.389 1_565 S
C879 H858 0.950 . S
C879 C878 1.373 . S
C879 C895 1.377 . S
C880 C878 1.389 1_545 S
C880 C881 1.524 . S
C880 C894 1.377 . S
C881 C880 1.524 . S
C881 C882 1.397 1_545 S
C881 C886 1.363 . S
C882 H859 0.950 . S
C882 C881 1.397 1_565 S
C882 C883 1.334 . S
C883 H860 0.950 . S
C883 C882 1.334 . S
C883 C884 1.287 1_565 S
C884 C883 1.287 1_545 S
C884 C885 1.524 . S
C884 H903 0.913 . S
C885 H861 0.950 . S
C885 C884 1.524 . S
C885 C886 1.415 . S
C886 H862 0.950 . S
C886 C881 1.363 . S
C886 C885 1.415 . S
C887 H863 0.951 . S
C887 C888 1.366 . S
C887 C889 1.388 . S
C888 C887 1.366 . S
C888 C892 1.385 . S
C889 H864 0.951 . S
C889 C887 1.388 . S
C889 C890 1.366 . S
C890 C889 1.366 . S
C890 C891 1.414 . S
C890 C893 1.499 . S
C891 H865 0.950 . S
C891 C890 1.414 . S
C891 C892 1.374 . S
C892 H866 0.950 . S
C892 C888 1.385 . S
C892 C891 1.374 . S
C893 C890 1.499 . S
C893 C894 1.373 . S
C893 C895 1.389 1_545 S
C894 H867 0.950 . S
C894 C880 1.377 . S
C894 C893 1.373 . S
C895 C879 1.377 . S
C895 C893 1.389 1_565 S
C895 C896 1.524 . S
C896 C895 1.524 . S
C896 C897 1.397 1_565 S
C896 C901 1.363 . S
C897 H868 0.950 . S
C897 C896 1.397 1_545 S
C897 C898 1.334 . S
C898 H869 0.950 . S
C898 C897 1.334 . S
C898 C899 1.287 1_545 S
C899 C898 1.287 1_565 S
C899 C900 1.524 . S
C899 H902 0.999 . S
C900 H870 0.950 . S
C900 C899 1.524 . S
C900 C901 1.415 . S
C901 H871 0.950 . S
C901 C896 1.363 . S
C901 C900 1.415 . S
H902 C899 0.999 . S
H903 C884 0.913 . S
C123 C5 1.239 . S
C138 C18 1.240 . S
C173 C44 1.239 . S
C188 C31 1.241 . S
C223 C57 1.240 . S
C238 C70 1.239 . S
C273 C83 1.240 . S
C288 C96 1.239 . S
C323 C10 1.478 . S
C338 C36 1.478 . S
C373 C49 1.479 . S
C388 C23 1.478 . S
C423 C62 1.478 . S
C438 C88 1.478 . S
C473 C101 1.478 . S
C488 C75 1.479 . S
C523 C0 1.403 . S
C538 C52 1.403 . S
C573 C13 1.402 . S
C588 C65 1.402 . S
C623 C78 1.403 . S
C638 C26 1.403 . S
C673 C91 1.404 . S
C688 C39 1.404 . S
C723 C21 0.443 . S
C738 C8 0.443 . S
C773 C34 0.443 . S
C788 C47 0.444 . S
C823 C60 0.444 . S
C838 C73 0.444 . S
C873 C86 0.442 . S
C888 C99 0.443 . S
