# Generated by pormake.
# Topology wgo, (5)-cn, num edge types: 1
# Building blocks:
#     Node 0, Type 0, BuildingBlock: BEQFEK_clean_sbu_0, # of connection points: 5
#     Node 1, Type 0, BuildingBlock: BEQFEK_clean_sbu_0, # of connection points: 5
#     Node 2, Type 0, BuildingBlock: BEQFEK_clean_sbu_0, # of connection points: 5
#     Node 3, Type 0, BuildingBlock: BEQFEK_clean_sbu_0, # of connection points: 5
#     Node 4, Type 0, BuildingBlock: BEQFEK_clean_sbu_0, # of connection points: 5
#     Node 5, Type 0, BuildingBlock: BEQFEK_clean_sbu_0, # of connection points: 5
#     Node 6, Type 0, BuildingBlock: BEQFEK_clean_sbu_0, # of connection points: 5
#     Node 7, Type 0, BuildingBlock: BEQFEK_clean_sbu_0, # of connection points: 5
#     Node 8, Type 0, BuildingBlock: BEQFEK_clean_sbu_0, # of connection points: 5
#     Node 9, Type 0, BuildingBlock: BEQFEK_clean_sbu_0, # of connection points: 5
#     Node 10, Type 0, BuildingBlock: BEQFEK_clean_sbu_0, # of connection points: 5
#     Node 11, Type 0, BuildingBlock: BEQFEK_clean_sbu_0, # of connection points: 5
#     Node 12, Type 0, BuildingBlock: BEQFEK_clean_sbu_0, # of connection points: 5
#     Node 13, Type 0, BuildingBlock: BEQFEK_clean_sbu_0, # of connection points: 5
#     Node 14, Type 0, BuildingBlock: BEQFEK_clean_sbu_0, # of connection points: 5
#     Node 15, Type 0, BuildingBlock: BEQFEK_clean_sbu_0, # of connection points: 5
#     Node 16, Type 0, BuildingBlock: BEQFEK_clean_sbu_0, # of connection points: 5
#     Node 17, Type 0, BuildingBlock: BEQFEK_clean_sbu_0, # of connection points: 5
#     Node 18, Type 0, BuildingBlock: BEQFEK_clean_sbu_0, # of connection points: 5
#     Node 19, Type 0, BuildingBlock: BEQFEK_clean_sbu_0, # of connection points: 5
#     Node 20, Type 0, BuildingBlock: BEQFEK_clean_sbu_0, # of connection points: 5
#     Node 21, Type 0, BuildingBlock: BEQFEK_clean_sbu_0, # of connection points: 5
#     Node 22, Type 0, BuildingBlock: BEQFEK_clean_sbu_0, # of connection points: 5
#     Node 23, Type 0, BuildingBlock: BEQFEK_clean_sbu_0, # of connection points: 5
#     Node 24, Type 0, BuildingBlock: BEQFEK_clean_sbu_0, # of connection points: 5
#     Node 25, Type 0, BuildingBlock: BEQFEK_clean_sbu_0, # of connection points: 5
#     Node 26, Type 0, BuildingBlock: BEQFEK_clean_sbu_0, # of connection points: 5
#     Node 27, Type 0, BuildingBlock: BEQFEK_clean_sbu_0, # of connection points: 5
#     Node 28, Type 0, BuildingBlock: BEQFEK_clean_sbu_0, # of connection points: 5
#     Node 29, Type 0, BuildingBlock: BEQFEK_clean_sbu_0, # of connection points: 5
#     Node 30, Type 0, BuildingBlock: BEQFEK_clean_sbu_0, # of connection points: 5
#     Node 31, Type 0, BuildingBlock: BEQFEK_clean_sbu_0, # of connection points: 5
#     Edge 32, Type (0, 0), BuildingBlock: XUDNAN_clean_linker_2, # of connection points: 2
#     Edge 33, Type (0, 0), BuildingBlock: XUDNAN_clean_linker_2, # of connection points: 2
#     Edge 34, Type (0, 0), BuildingBlock: XUDNAN_clean_linker_2, # of connection points: 2
#     Edge 35, Type (0, 0), BuildingBlock: XUDNAN_clean_linker_2, # of connection points: 2
#     Edge 36, Type (0, 0), BuildingBlock: XUDNAN_clean_linker_2, # of connection points: 2
#     Edge 37, Type (0, 0), BuildingBlock: XUDNAN_clean_linker_2, # of connection points: 2
#     Edge 38, Type (0, 0), BuildingBlock: XUDNAN_clean_linker_2, # of connection points: 2
#     Edge 39, Type (0, 0), BuildingBlock: XUDNAN_clean_linker_2, # of connection points: 2
#     Edge 40, Type (0, 0), BuildingBlock: XUDNAN_clean_linker_2, # of connection points: 2
#     Edge 41, Type (0, 0), BuildingBlock: XUDNAN_clean_linker_2, # of connection points: 2
#     Edge 42, Type (0, 0), BuildingBlock: XUDNAN_clean_linker_2, # of connection points: 2
#     Edge 43, Type (0, 0), BuildingBlock: XUDNAN_clean_linker_2, # of connection points: 2
#     Edge 44, Type (0, 0), BuildingBlock: XUDNAN_clean_linker_2, # of connection points: 2
#     Edge 45, Type (0, 0), BuildingBlock: XUDNAN_clean_linker_2, # of connection points: 2
#     Edge 46, Type (0, 0), BuildingBlock: XUDNAN_clean_linker_2, # of connection points: 2
#     Edge 47, Type (0, 0), BuildingBlock: XUDNAN_clean_linker_2, # of connection points: 2
#     Edge 48, Type (0, 0), BuildingBlock: XUDNAN_clean_linker_2, # of connection points: 2
#     Edge 49, Type (0, 0), BuildingBlock: XUDNAN_clean_linker_2, # of connection points: 2
#     Edge 50, Type (0, 0), BuildingBlock: XUDNAN_clean_linker_2, # of connection points: 2
#     Edge 51, Type (0, 0), BuildingBlock: XUDNAN_clean_linker_2, # of connection points: 2
#     Edge 52, Type (0, 0), BuildingBlock: XUDNAN_clean_linker_2, # of connection points: 2
#     Edge 53, Type (0, 0), BuildingBlock: XUDNAN_clean_linker_2, # of connection points: 2
#     Edge 54, Type (0, 0), BuildingBlock: XUDNAN_clean_linker_2, # of connection points: 2
#     Edge 55, Type (0, 0), BuildingBlock: XUDNAN_clean_linker_2, # of connection points: 2
#     Edge 56, Type (0, 0), BuildingBlock: XUDNAN_clean_linker_2, # of connection points: 2
#     Edge 57, Type (0, 0), BuildingBlock: XUDNAN_clean_linker_2, # of connection points: 2
#     Edge 58, Type (0, 0), BuildingBlock: XUDNAN_clean_linker_2, # of connection points: 2
#     Edge 59, Type (0, 0), BuildingBlock: XUDNAN_clean_linker_2, # of connection points: 2
#     Edge 60, Type (0, 0), BuildingBlock: XUDNAN_clean_linker_2, # of connection points: 2
#     Edge 61, Type (0, 0), BuildingBlock: XUDNAN_clean_linker_2, # of connection points: 2
#     Edge 62, Type (0, 0), BuildingBlock: XUDNAN_clean_linker_2, # of connection points: 2
#     Edge 63, Type (0, 0), BuildingBlock: XUDNAN_clean_linker_2, # of connection points: 2
#     Edge 64, Type (0, 0), BuildingBlock: XUDNAN_clean_linker_2, # of connection points: 2
#     Edge 65, Type (0, 0), BuildingBlock: XUDNAN_clean_linker_2, # of connection points: 2
#     Edge 66, Type (0, 0), BuildingBlock: XUDNAN_clean_linker_2, # of connection points: 2
#     Edge 67, Type (0, 0), BuildingBlock: XUDNAN_clean_linker_2, # of connection points: 2
#     Edge 68, Type (0, 0), BuildingBlock: XUDNAN_clean_linker_2, # of connection points: 2
#     Edge 69, Type (0, 0), BuildingBlock: XUDNAN_clean_linker_2, # of connection points: 2
#     Edge 70, Type (0, 0), BuildingBlock: XUDNAN_clean_linker_2, # of connection points: 2
#     Edge 71, Type (0, 0), BuildingBlock: XUDNAN_clean_linker_2, # of connection points: 2
#     Edge 72, Type (0, 0), BuildingBlock: XUDNAN_clean_linker_2, # of connection points: 2
#     Edge 73, Type (0, 0), BuildingBlock: XUDNAN_clean_linker_2, # of connection points: 2
#     Edge 74, Type (0, 0), BuildingBlock: XUDNAN_clean_linker_2, # of connection points: 2
#     Edge 75, Type (0, 0), BuildingBlock: XUDNAN_clean_linker_2, # of connection points: 2
#     Edge 76, Type (0, 0), BuildingBlock: XUDNAN_clean_linker_2, # of connection points: 2
#     Edge 77, Type (0, 0), BuildingBlock: XUDNAN_clean_linker_2, # of connection points: 2
#     Edge 78, Type (0, 0), BuildingBlock: XUDNAN_clean_linker_2, # of connection points: 2
#     Edge 79, Type (0, 0), BuildingBlock: XUDNAN_clean_linker_2, # of connection points: 2
#     Edge 80, Type (0, 0), BuildingBlock: XUDNAN_clean_linker_2, # of connection points: 2
#     Edge 81, Type (0, 0), BuildingBlock: XUDNAN_clean_linker_2, # of connection points: 2
#     Edge 82, Type (0, 0), BuildingBlock: XUDNAN_clean_linker_2, # of connection points: 2
#     Edge 83, Type (0, 0), BuildingBlock: XUDNAN_clean_linker_2, # of connection points: 2
#     Edge 84, Type (0, 0), BuildingBlock: XUDNAN_clean_linker_2, # of connection points: 2
#     Edge 85, Type (0, 0), BuildingBlock: XUDNAN_clean_linker_2, # of connection points: 2
#     Edge 86, Type (0, 0), BuildingBlock: XUDNAN_clean_linker_2, # of connection points: 2
#     Edge 87, Type (0, 0), BuildingBlock: XUDNAN_clean_linker_2, # of connection points: 2
#     Edge 88, Type (0, 0), BuildingBlock: XUDNAN_clean_linker_2, # of connection points: 2
#     Edge 89, Type (0, 0), BuildingBlock: XUDNAN_clean_linker_2, # of connection points: 2
#     Edge 90, Type (0, 0), BuildingBlock: XUDNAN_clean_linker_2, # of connection points: 2
#     Edge 91, Type (0, 0), BuildingBlock: XUDNAN_clean_linker_2, # of connection points: 2
#     Edge 92, Type (0, 0), BuildingBlock: XUDNAN_clean_linker_2, # of connection points: 2
#     Edge 93, Type (0, 0), BuildingBlock: XUDNAN_clean_linker_2, # of connection points: 2
#     Edge 94, Type (0, 0), BuildingBlock: XUDNAN_clean_linker_2, # of connection points: 2
#     Edge 95, Type (0, 0), BuildingBlock: XUDNAN_clean_linker_2, # of connection points: 2
#     Edge 96, Type (0, 0), BuildingBlock: XUDNAN_clean_linker_2, # of connection points: 2
#     Edge 97, Type (0, 0), BuildingBlock: XUDNAN_clean_linker_2, # of connection points: 2
#     Edge 98, Type (0, 0), BuildingBlock: XUDNAN_clean_linker_2, # of connection points: 2
#     Edge 99, Type (0, 0), BuildingBlock: XUDNAN_clean_linker_2, # of connection points: 2
#     Edge 100, Type (0, 0), BuildingBlock: XUDNAN_clean_linker_2, # of connection points: 2
#     Edge 101, Type (0, 0), BuildingBlock: XUDNAN_clean_linker_2, # of connection points: 2
#     Edge 102, Type (0, 0), BuildingBlock: XUDNAN_clean_linker_2, # of connection points: 2
#     Edge 103, Type (0, 0), BuildingBlock: XUDNAN_clean_linker_2, # of connection points: 2
#     Edge 104, Type (0, 0), BuildingBlock: XUDNAN_clean_linker_2, # of connection points: 2
#     Edge 105, Type (0, 0), BuildingBlock: XUDNAN_clean_linker_2, # of connection points: 2
#     Edge 106, Type (0, 0), BuildingBlock: XUDNAN_clean_linker_2, # of connection points: 2
#     Edge 107, Type (0, 0), BuildingBlock: XUDNAN_clean_linker_2, # of connection points: 2
#     Edge 108, Type (0, 0), BuildingBlock: XUDNAN_clean_linker_2, # of connection points: 2
#     Edge 109, Type (0, 0), BuildingBlock: XUDNAN_clean_linker_2, # of connection points: 2
#     Edge 110, Type (0, 0), BuildingBlock: XUDNAN_clean_linker_2, # of connection points: 2
#     Edge 111, Type (0, 0), BuildingBlock: XUDNAN_clean_linker_2, # of connection points: 2
# Relax obj value: 0.282
# Max RMSD: 0.175
# Mean RMSD: 0.175
data_MOF--net-wgo--node1-BEQFEK_clean_sbu_0--edge1-XUDNAN_clean_linker_2
_symmetry_space_group_name_H-M    P1
_symmetry_Int_Tables_number       1
_symmetry_cell_setting            triclinic
loop_
_symmetry_equiv_pos_as_xyz
'x, y, z'
_cell_length_a     35.582842
_cell_length_b     35.519441
_cell_length_c     106.0372
_cell_angle_alpha  90.013327
_cell_angle_beta   90.002674
_cell_angle_gamma 90.018333
loop_
_atom_site_label
_atom_site_type_symbol
_atom_site_fract_x
_atom_site_fract_y
_atom_site_fract_z
_atom_type_partial_charge
Co0 Co 0.47122 0.04437 0.08974 0.0
Co1 Co 0.39384 0.07698 0.08234 0.0
C2 C 0.44559 0.04454 0.06273 0.0
O3 O 0.46991 0.03669 0.07111 0.0
O4 O 0.41447 0.05993 0.06574 0.0
C5 C 0.53186 0.99303 0.08932 0.0
O6 O 0.51082 0.97493 0.08114 0.0
C7 C 0.31411 0.07857 0.07523 0.0
C8 C 0.2973 0.13373 0.08307 0.0
C9 C 0.28328 0.10179 0.07726 0.0
N10 N 0.34462 0.09577 0.07995 0.0
N11 N 0.33453 0.12907 0.08435 0.0
C12 C 0.31534 0.04152 0.06849 0.0
H13 H 0.32794 0.01973 0.07465 0.0
H14 H 0.28712 0.03253 0.06523 0.0
H15 H 0.33412 0.0442 0.06018 0.0
C16 C 0.4228 0.99805 0.10716 0.0
N17 N 0.42765 0.0242 0.09804 0.0
N18 N 0.39472 0.03861 0.09504 0.0
C19 C 0.36809 0.02266 0.10241 0.0
C20 C 0.38477 0.99606 0.11018 0.0
C21 C 0.45397 0.97499 0.1126 0.0
H22 H 0.47562 0.994 0.11663 0.0
H23 H 0.46749 0.95855 0.10495 0.0
H24 H 0.44366 0.95548 0.12 0.0
O25 O 0.47826 0.09931 0.09352 0.0
O26 O 0.42192 0.12084 0.0884 0.0
H27 H 0.32549 0.06551 0.1014 0.0
H28 H 0.31547 0.02816 0.11238 0.0
C29 C 0.32784 0.03484 0.10303 0.0
H30 H 0.31135 0.01955 0.09581 0.0
H31 H 0.35274 0.14794 0.08876 0.0
O32 O 0.51807 0.02073 0.09531 0.0
C33 C 0.45494 0.12629 0.09251 0.0
Co34 Co 0.21856 0.228 0.34457 0.0
Co35 Co 0.18356 0.15434 0.33427 0.0
C36 C 0.2241 0.20539 0.31692 0.0
O37 O 0.22793 0.22632 0.3265 0.0
O38 O 0.20782 0.1735 0.31795 0.0
C39 C 0.28201 0.27249 0.3452 0.0
O40 O 0.29556 0.24245 0.33958 0.0
C41 C 0.17787 0.07374 0.32837 0.0
C42 C 0.12029 0.06184 0.33497 0.0
C43 C 0.15278 0.04466 0.3307 0.0
N44 N 0.16113 0.10644 0.33135 0.0
N45 N 0.12623 0.0992 0.33485 0.0
C46 C 0.21844 0.07023 0.32483 0.0
H47 H 0.23425 0.09578 0.32771 0.0
H48 H 0.23112 0.04469 0.32911 0.0
H49 H 0.22047 0.0673 0.31444 0.0
C50 C 0.25422 0.177 0.36286 0.0
N51 N 0.23324 0.18298 0.35249 0.0
N52 N 0.21819 0.1511 0.34865 0.0
C53 C 0.22887 0.1237 0.35686 0.0
C54 C 0.25258 0.13912 0.36596 0.0
C55 C 0.27412 0.20761 0.36993 0.0
H56 H 0.25451 0.23135 0.37164 0.0
H57 H 0.29767 0.21824 0.3641 0.0
H58 H 0.28588 0.19763 0.37901 0.0
O59 O 0.165 0.23889 0.34741 0.0
O60 O 0.13996 0.18789 0.33876 0.0
H61 H 0.21423 0.07306 0.36702 0.0
H62 H 0.22822 0.06623 0.35097 0.0
C63 C 0.21235 0.08502 0.35737 0.0
H64 H 0.18247 0.08581 0.35449 0.0
H65 H 0.10745 0.11945 0.33817 0.0
O66 O 0.24898 0.27131 0.34975 0.0
C67 C 0.13633 0.21988 0.34409 0.0
Co68 Co 0.02859 0.95262 0.59077 0.0
Co69 Co 0.10727 0.93074 0.58243 0.0
C70 C 0.0514 0.96119 0.56381 0.0
O71 O 0.02652 0.96429 0.57232 0.0
O72 O 0.08396 0.94901 0.56655 0.0
C73 C 0.97298 0.00584 0.59351 0.0
O74 O 0.99613 0.02488 0.58626 0.0
C75 C 0.18281 0.94434 0.57398 0.0
C76 C 0.21049 0.8899 0.57777 0.0
C77 C 0.2174 0.92651 0.57387 0.0
N78 N 0.15714 0.91987 0.57818 0.0
N79 N 0.17345 0.88695 0.58003 0.0
C80 C 0.17411 0.98434 0.57058 0.0
H81 H 0.14971 0.98504 0.56408 0.0
H82 H 0.16601 1.00018 0.57917 0.0
H83 H 0.1985 0.99822 0.566 0.0
C84 C 0.07145 0.99763 0.6099 0.0
N85 N 0.06989 0.9756 0.59951 0.0
N86 N 0.10421 0.96597 0.59622 0.0
C87 C 0.12864 0.9813 0.6046 0.0
C88 C 0.10879 0.00242 0.61341 0.0
C89 C 0.03764 0.01266 0.61664 0.0
H90 H 0.01733 0.98953 0.61836 0.0
H91 H 0.02387 0.03409 0.61062 0.0
H92 H 0.04503 0.02627 0.62571 0.0
O93 O 0.02719 0.89679 0.59349 0.0
O94 O 0.08512 0.88243 0.58755 0.0
H95 H 0.17636 0.94622 0.60012 0.0
H96 H 0.17781 0.968 0.61548 0.0
C97 C 0.16953 0.97202 0.60547 0.0
H98 H 0.18593 0.99616 0.60181 0.0
H99 H 0.15975 0.86316 0.58348 0.0
O100 O 0.98216 0.97319 0.59724 0.0
C101 C 0.05314 0.87263 0.59175 0.0
Co102 Co 0.29024 0.7723 0.83969 0.0
Co103 Co 0.31854 0.85329 0.8343 0.0
C104 C 0.29142 0.80491 0.81328 0.0
O105 O 0.28579 0.7788 0.82121 0.0
O106 O 0.30376 0.8369 0.81683 0.0
C107 C 0.23176 0.72307 0.83641 0.0
O108 O 0.21792 0.75381 0.83132 0.0
C109 C 0.32024 0.93557 0.83004 0.0
C110 C 0.37655 0.94909 0.83764 0.0
C111 C 0.34466 0.96518 0.83251 0.0
N112 N 0.33688 0.90349 0.83378 0.0
N113 N 0.37068 0.91179 0.83815 0.0
C114 C 0.28284 0.93727 0.8236 0.0
H115 H 0.27511 0.90921 0.8198 0.0
H116 H 0.26084 0.94606 0.83037 0.0
H117 H 0.28358 0.95837 0.81588 0.0
C118 C 0.24455 0.81309 0.85893 0.0
N119 N 0.268 0.81291 0.84893 0.0
N120 N 0.27981 0.84746 0.84678 0.0
C121 C 0.26464 0.87063 0.85555 0.0
C122 C 0.24137 0.84976 0.86346 0.0
C123 C 0.22684 0.77836 0.86429 0.0
H124 H 0.24894 0.75715 0.86629 0.0
H125 H 0.20749 0.76615 0.8572 0.0
H126 H 0.21052 0.78428 0.87297 0.0
O127 O 0.34452 0.76559 0.84421 0.0
O128 O 0.36247 0.82391 0.83982 0.0
H129 H 0.27114 0.91948 0.86759 0.0
H130 H 0.26098 0.92933 0.85137 0.0
C131 C 0.2768 0.91047 0.85775 0.0
H132 H 0.30723 0.91355 0.85588 0.0
H133 H 0.38953 0.8921 0.84176 0.0
O134 O 0.26296 0.7249 0.84222 0.0
C135 C 0.36997 0.79077 0.84356 0.0
Co136 Co 0.47224 0.95467 0.45342 0.0
Co137 Co 0.39545 0.93524 0.46603 0.0
C138 C 0.45672 0.96698 0.48149 0.0
O139 O 0.47614 0.966 0.47149 0.0
O140 O 0.42246 0.95667 0.48128 0.0
C141 C 0.5212 0.01237 0.4517 0.0
O142 O 0.49028 0.02822 0.45591 0.0
C143 C 0.31897 0.94967 0.47481 0.0
C144 C 0.29029 0.89716 0.46924 0.0
C145 C 0.28349 0.93343 0.47355 0.0
N146 N 0.34482 0.92483 0.47079 0.0
N147 N 0.32763 0.89303 0.46792 0.0
C148 C 0.32877 0.98802 0.47969 0.0
H149 H 0.33682 0.00669 0.47176 0.0
H150 H 0.30496 0.00059 0.48498 0.0
H151 H 0.35353 0.98595 0.486 0.0
C152 C 0.42231 0.99814 0.43583 0.0
N153 N 0.42824 0.97645 0.44614 0.0
N154 N 0.39564 0.96751 0.45124 0.0
C155 C 0.36806 0.98223 0.44396 0.0
C156 C 0.38385 0.00295 0.43422 0.0
C157 C 0.45291 0.01421 0.4278 0.0
H158 H 0.47728 0.99476 0.42756 0.0
H159 H 0.46224 0.04136 0.43192 0.0
H160 H 0.44293 0.01964 0.41807 0.0
O161 O 0.47227 0.89888 0.4513 0.0
O162 O 0.41823 0.88632 0.46104 0.0
H163 H 0.31292 0.97603 0.43573 0.0
H164 H 0.31378 0.99219 0.45167 0.0
C165 C 0.32725 0.97269 0.44496 0.0
H166 H 0.32358 0.94328 0.44812 0.0
H167 H 0.34108 0.86946 0.46413 0.0
O168 O 0.51936 0.97866 0.44767 0.0
C169 C 0.44765 0.87546 0.45521 0.0
Co170 Co 0.27439 0.23518 0.70257 0.0
Co171 Co 0.31691 0.16048 0.7083 0.0
C172 C 0.28097 0.20364 0.72914 0.0
O173 O 0.27096 0.22845 0.72119 0.0
O174 O 0.29843 0.1742 0.72555 0.0
C175 C 0.21309 0.28312 0.70645 0.0
O176 O 0.20294 0.25485 0.71367 0.0
C177 C 0.32891 0.08124 0.71458 0.0
C178 C 0.38021 0.06837 0.70363 0.0
C179 C 0.35295 0.05214 0.71121 0.0
N180 N 0.34125 0.113 0.70912 0.0
N181 N 0.37237 0.10534 0.70282 0.0
C182 C 0.29252 0.07846 0.7216 0.0
H183 H 0.27443 0.10315 0.71953 0.0
H184 H 0.27746 0.05215 0.71908 0.0
H185 H 0.29841 0.07792 0.73188 0.0
C186 C 0.23318 0.1842 0.6845 0.0
N187 N 0.25934 0.19088 0.69349 0.0
N188 N 0.27754 0.15937 0.69587 0.0
C189 C 0.26363 0.13186 0.68839 0.0
C190 C 0.23499 0.14647 0.68098 0.0
C191 C 0.20626 0.21316 0.67973 0.0
H192 H 0.18583 0.21999 0.68729 0.0
H193 H 0.1908 0.20295 0.6713 0.0
H194 H 0.22175 0.23939 0.6774 0.0
O195 O 0.32737 0.24968 0.69856 0.0
O196 O 0.35666 0.19647 0.70332 0.0
H197 H 0.268 0.07745 0.6793 0.0
H198 H 0.2683 0.0767 0.69625 0.0
C199 C 0.27817 0.09236 0.68785 0.0
H200 H 0.30928 0.0925 0.68775 0.0
H201 H 0.38722 0.12496 0.69746 0.0
O202 O 0.24163 0.27934 0.69933 0.0
C203 C 0.35752 0.23055 0.69965 0.0
Co204 Co 0.024 0.01995 0.95493 0.0
Co205 Co 0.09932 0.06325 0.95978 0.0
C206 C 0.05795 0.02726 0.9811 0.0
O207 O 0.0327 0.0168 0.97337 0.0
O208 O 0.08709 0.04484 0.97726 0.0
C209 C 0.96427 0.96778 0.95937 0.0
O210 O 0.98036 0.96453 0.97044 0.0
C211 C 0.1803 0.07651 0.96375 0.0
C212 C 0.18719 0.13233 0.95481 0.0
C213 C 0.20689 0.10354 0.96058 0.0
N214 N 0.1465 0.08864 0.95982 0.0
N215 N 0.15077 0.12225 0.95466 0.0
C216 C 0.18627 0.04068 0.97091 0.0
H217 H 0.16112 0.0223 0.97019 0.0
H218 H 0.21138 0.02542 0.96747 0.0
H219 H 0.19115 0.0476 0.98098 0.0
C220 C 0.07254 0.97856 0.93668 0.0
N221 N 0.06726 0.00525 0.94557 0.0
N222 N 0.09899 0.02364 0.94737 0.0
C223 C 0.12524 0.00942 0.93945 0.0
C224 C 0.10945 0.98037 0.93249 0.0
C225 C 0.04283 0.95156 0.93248 0.0
H226 H 0.01852 0.96757 0.92872 0.0
H227 H 0.03275 0.9352 0.94073 0.0
H228 H 0.05351 0.93201 0.92514 0.0
O229 O 0.0093 0.07263 0.95106 0.0
O230 O 0.06238 0.10276 0.95523 0.0
H231 H 0.16487 0.05485 0.93841 0.0
H232 H 0.1776 0.01399 0.92923 0.0
C233 C 0.16461 0.02368 0.93818 0.0
H234 H 0.18172 0.01276 0.9461 0.0
H235 H 0.12897 0.13785 0.95067 0.0
O236 O 0.97951 0.98819 0.95094 0.0
C237 C 0.02802 0.10307 0.95193 0.0
Co238 Co 0.23102 0.76209 0.19955 0.0
Co239 Co 0.19491 0.83454 0.21039 0.0
C240 C 0.23695 0.78362 0.22731 0.0
O241 O 0.24111 0.76313 0.21763 0.0
O242 O 0.22008 0.81522 0.22646 0.0
C243 C 0.29452 0.71726 0.19841 0.0
O244 O 0.30889 0.74651 0.20427 0.0
C245 C 0.18496 0.9148 0.21659 0.0
C246 C 0.12577 0.92269 0.21101 0.0
C247 C 0.15752 0.94204 0.21484 0.0
N248 N 0.17022 0.88107 0.21371 0.0
N249 N 0.13441 0.8859 0.21083 0.0
C250 C 0.22551 0.92115 0.21967 0.0
H251 H 0.24277 0.89676 0.21662 0.0
H252 H 0.23592 0.94752 0.21527 0.0
H253 H 0.22837 0.92429 0.23004 0.0
C254 C 0.26423 0.8148 0.18127 0.0
N255 N 0.24407 0.80788 0.19176 0.0
N256 N 0.22865 0.83929 0.19587 0.0
C257 C 0.23822 0.86726 0.18773 0.0
C258 C 0.26174 0.85278 0.17841 0.0
C259 C 0.28368 0.78493 0.17374 0.0
H260 H 0.30779 0.77398 0.17925 0.0
H261 H 0.29436 0.79583 0.16462 0.0
H262 H 0.26407 0.76118 0.17203 0.0
O263 O 0.17768 0.74935 0.19707 0.0
O264 O 0.15259 0.79983 0.206 0.0
H265 H 0.22122 0.91756 0.17782 0.0
H266 H 0.23698 0.92467 0.19367 0.0
C267 C 0.22075 0.90553 0.18748 0.0
H268 H 0.19127 0.90401 0.19076 0.0
H269 H 0.11657 0.86445 0.20776 0.0
O270 O 0.2616 0.71968 0.19385 0.0
C271 C 0.14906 0.76787 0.20069 0.0
Co272 Co 0.51779 0.97901 0.9495 0.0
Co273 Co 0.5901 0.94105 0.96023 0.0
C274 C 0.54009 0.98381 0.97729 0.0
O275 O 0.51964 0.98847 0.96762 0.0
O276 O 0.57129 0.96621 0.97642 0.0
C277 C 0.47249 0.04316 0.94857 0.0
O278 O 0.5014 0.05717 0.9547 0.0
C279 C 0.67047 0.92908 0.96649 0.0
C280 C 0.67794 0.87189 0.95875 0.0
C281 C 0.69754 0.9022 0.96364 0.0
N282 N 0.63665 0.91553 0.96307 0.0
N283 N 0.64128 0.88077 0.95891 0.0
C284 C 0.67704 0.96841 0.97105 0.0
H285 H 0.6528 0.98672 0.96864 0.0
H286 H 0.70344 0.98004 0.96706 0.0
H287 H 0.68013 0.96785 0.98146 0.0
C288 C 0.57202 0.01477 0.93206 0.0
N289 N 0.56385 0.99185 0.94182 0.0
N290 N 0.5948 0.9753 0.94584 0.0
C291 C 0.62349 0.98659 0.93828 0.0
C292 C 0.61003 0.01223 0.92949 0.0
C293 C 0.54384 0.03842 0.92524 0.0
H294 H 0.51754 0.02222 0.92382 0.0
H295 H 0.5372 0.06353 0.93105 0.0
H296 H 0.5549 0.04798 0.91599 0.0
O297 O 0.50523 0.92563 0.9467 0.0
O298 O 0.55483 0.8993 0.95573 0.0
H299 H 0.67713 0.97583 0.92953 0.0
H300 H 0.67896 0.98786 0.9459 0.0
C301 C 0.66283 0.97195 0.93875 0.0
H302 H 0.66279 0.94162 0.94111 0.0
H303 H 0.6198 0.86416 0.95518 0.0
O304 O 0.47497 0.01018 0.94399 0.0
C305 C 0.52314 0.89649 0.95023 0.0
Co306 Co 0.79843 0.77258 0.70286 0.0
Co307 Co 0.8117 0.84787 0.7168 0.0
C308 C 0.77838 0.78255 0.73047 0.0
O309 O 0.7815 0.76367 0.72037 0.0
O310 O 0.78835 0.81701 0.73077 0.0
C311 C 0.7527 0.71241 0.69784 0.0
O312 O 0.72862 0.73474 0.70353 0.0
C313 C 0.79074 0.92202 0.72619 0.0
C314 C 0.84278 0.95388 0.72247 0.0
C315 C 0.80518 0.9585 0.72563 0.0
N316 N 0.81791 0.89789 0.72273 0.0
N317 N 0.84935 0.91691 0.72103 0.0
C318 C 0.75209 0.90953 0.72991 0.0
H319 H 0.7354 0.9025 0.72141 0.0
H320 H 0.7375 0.93162 0.73547 0.0
H321 H 0.75403 0.8835 0.73565 0.0
C322 C 0.75506 0.82218 0.68522 0.0
N323 N 0.77587 0.81615 0.6957 0.0
N324 N 0.78272 0.84857 0.70128 0.0
C325 C 0.76759 0.8763 0.69415 0.0
C326 C 0.74881 0.8606 0.68396 0.0
C327 C 0.74095 0.79166 0.67674 0.0
H328 H 0.76374 0.77106 0.67492 0.0
H329 H 0.71766 0.77659 0.68152 0.0
H330 H 0.73043 0.80317 0.66768 0.0
O331 O 0.85423 0.77575 0.70256 0.0
O332 O 0.86304 0.82921 0.71298 0.0
H333 H 0.77262 0.93255 0.6867 0.0
H334 H 0.75256 0.92924 0.70208 0.0
C335 C 0.77448 0.9175 0.69586 0.0
H336 H 0.80266 0.92244 0.69992 0.0
H337 H 0.87443 0.90507 0.71784 0.0
O338 O 0.78406 0.72591 0.69436 0.0
C339 C 0.876 0.80057 0.70722 0.0
Co340 Co 0.96551 0.0411 0.45128 0.0
Co341 Co 0.88975 0.0586 0.46466 0.0
C342 C 0.94998 0.02662 0.47969 0.0
O343 O 0.96895 0.0281 0.46951 0.0
O344 O 0.91563 0.03689 0.47983 0.0
C345 C 0.02548 0.99104 0.44897 0.0
O346 O 0.00275 0.96921 0.45545 0.0
C347 C 0.80998 0.05967 0.4741 0.0
C348 C 0.79098 0.11122 0.46434 0.0
C349 C 0.77865 0.08205 0.47187 0.0
N350 N 0.83946 0.07487 0.46796 0.0
N351 N 0.82781 0.106 0.46236 0.0
C352 C 0.81193 0.02528 0.48222 0.0
H353 H 0.80488 0.0331 0.49207 0.0
H354 H 0.84049 0.01275 0.48194 0.0
H355 H 0.79087 0.00422 0.47912 0.0
C356 C 0.91359 0.00255 0.43297 0.0
N357 N 0.92121 0.02072 0.44388 0.0
N358 N 0.8899 0.02503 0.45031 0.0
C359 C 0.86168 0.00822 0.44395 0.0
C360 C 0.87523 0.99414 0.43252 0.0
C361 C 0.94205 0.9963 0.42281 0.0
H362 H 0.96627 0.01564 0.42403 0.0
H363 H 0.95241 0.96689 0.42337 0.0
H364 H 0.92927 0.00063 0.41337 0.0
O365 O 0.96751 0.09625 0.44959 0.0
O366 O 0.91469 0.10736 0.45995 0.0
H367 H 0.80712 0.02989 0.4484 0.0
H368 H 0.80747 0.98028 0.44442 0.0
C369 C 0.82305 0.00317 0.44925 0.0
H370 H 0.82539 0.99555 0.45931 0.0
H371 H 0.84462 0.1229 0.45664 0.0
O372 O 0.01258 0.02126 0.44426 0.0
C373 C 0.94369 0.11913 0.45412 0.0
Co374 Co 0.7099 0.22177 0.2029 0.0
Co375 Co 0.67815 0.14465 0.21051 0.0
C376 C 0.71378 0.19663 0.22967 0.0
O377 O 0.72014 0.22127 0.22129 0.0
O378 O 0.69812 0.16559 0.22675 0.0
C379 C 0.75948 0.28317 0.20286 0.0
O380 O 0.77914 0.26165 0.21047 0.0
C381 C 0.68369 0.06753 0.21914 0.0
C382 C 0.62731 0.04492 0.21479 0.0
C383 C 0.66254 0.03454 0.21921 0.0
N384 N 0.66225 0.09529 0.21452 0.0
N385 N 0.62823 0.08201 0.2123 0.0
C386 C 0.72499 0.07215 0.22146 0.0
H387 H 0.73469 0.10031 0.21832 0.0
H388 H 0.7411 0.05013 0.21637 0.0
H389 H 0.73074 0.06948 0.2317 0.0
C390 C 0.75433 0.17599 0.18484 0.0
N391 N 0.72927 0.17898 0.1943 0.0
N392 N 0.71527 0.14557 0.19693 0.0
C393 C 0.731 0.12015 0.18894 0.0
C394 C 0.75711 0.13838 0.18118 0.0
C395 C 0.77227 0.20933 0.17863 0.0
H396 H 0.75143 0.23233 0.17768 0.0
H397 H 0.79564 0.21967 0.18464 0.0
H398 H 0.78319 0.2023 0.16912 0.0
O399 O 0.65546 0.22712 0.19977 0.0
O400 O 0.63183 0.17213 0.20549 0.0
H401 H 0.70484 0.07451 0.17918 0.0
H402 H 0.74561 0.06146 0.18822 0.0
C403 C 0.72015 0.07951 0.18813 0.0
H404 H 0.701 0.07129 0.19573 0.0
H405 H 0.60624 0.09781 0.20854 0.0
O406 O 0.73139 0.2693 0.19714 0.0
C407 C 0.62746 0.20533 0.20126 0.0
Co408 Co 0.53319 0.0301 0.59246 0.0
Co409 Co 0.60578 0.07035 0.5854 0.0
C410 C 0.55758 0.02996 0.56588 0.0
O411 O 0.53424 0.01974 0.57423 0.0
O412 O 0.58656 0.04908 0.56892 0.0
C413 C 0.47817 0.97436 0.59359 0.0
O414 O 0.49995 0.95727 0.58538 0.0
C415 C 0.68373 0.06661 0.57921 0.0
C416 C 0.70462 0.12292 0.58452 0.0
C417 C 0.71633 0.08718 0.58103 0.0
N418 N 0.65441 0.08855 0.58204 0.0
N419 N 0.66679 0.12267 0.58475 0.0
C420 C 0.68027 0.02561 0.5761 0.0
H421 H 0.67275 0.00959 0.58471 0.0
H422 H 0.70696 0.01441 0.57218 0.0
H423 H 0.65727 0.02142 0.56918 0.0
C424 C 0.58169 0.99111 0.61086 0.0
N425 N 0.57686 0.01475 0.60106 0.0
N426 N 0.60779 0.03417 0.59916 0.0
C427 C 0.63287 0.02446 0.60825 0.0
C428 C 0.61752 0.99612 0.6157 0.0
C429 C 0.55162 0.96599 0.61601 0.0
H430 H 0.52886 0.9835 0.6201 0.0
H431 H 0.53948 0.94903 0.60824 0.0
H432 H 0.56266 0.94668 0.62334 0.0
O433 O 0.52203 0.08443 0.59515 0.0
O434 O 0.57468 0.11402 0.59013 0.0
H435 H 0.66099 0.06185 0.6208 0.0
H436 H 0.6908 0.0278 0.61362 0.0
C437 C 0.66677 0.04692 0.61181 0.0
H438 H 0.67393 0.06811 0.60462 0.0
H439 H 0.64972 0.1448 0.58775 0.0
O440 O 0.48973 0.00409 0.59892 0.0
C441 C 0.54072 0.11475 0.59383 0.0
Co442 Co 0.71914 0.78552 0.33576 0.0
Co443 Co 0.678 0.86087 0.32945 0.0
C444 C 0.71456 0.81821 0.30897 0.0
O445 O 0.72329 0.79346 0.31714 0.0
O446 O 0.69755 0.84831 0.31223 0.0
C447 C 0.77434 0.72838 0.33198 0.0
O448 O 0.78106 0.74694 0.32152 0.0
C449 C 0.6609 0.94241 0.32617 0.0
C450 C 0.61177 0.94625 0.33879 0.0
C451 C 0.63724 0.96801 0.33214 0.0
N452 N 0.65091 0.90742 0.32972 0.0
N453 N 0.62042 0.91 0.33678 0.0
C454 C 0.69472 0.95127 0.31831 0.0
H455 H 0.71325 0.92625 0.31748 0.0
H456 H 0.7105 0.97542 0.32232 0.0
H457 H 0.68523 0.95957 0.30874 0.0
C458 C 0.75333 0.83321 0.35595 0.0
N459 N 0.73269 0.82876 0.34534 0.0
N460 N 0.71681 0.86101 0.34234 0.0
C461 C 0.72796 0.88724 0.35079 0.0
C462 C 0.75093 0.87057 0.35987 0.0
C463 C 0.77126 0.80128 0.36291 0.0
H464 H 0.75349 0.77571 0.36214 0.0
H465 H 0.79887 0.79497 0.35852 0.0
H466 H 0.77569 0.80828 0.37299 0.0
O467 O 0.66691 0.77109 0.33971 0.0
O468 O 0.63819 0.8236 0.33398 0.0
H469 H 0.68696 0.93107 0.3519 0.0
H470 H 0.73339 0.94545 0.35693 0.0
C471 C 0.71748 0.92794 0.35013 0.0
H472 H 0.72433 0.93858 0.34066 0.0
H473 H 0.60748 0.88718 0.34119 0.0
O474 O 0.75078 0.74139 0.33987 0.0
C475 C 0.63695 0.79001 0.33812 0.0
Co476 Co 0.98596 0.95193 0.09482 0.0
Co477 Co 0.90765 0.93832 0.08287 0.0
C478 C 0.96737 0.96821 0.06695 0.0
O479 O 0.98784 0.96512 0.07669 0.0
O480 O 0.93263 0.9597 0.06743 0.0
C481 C 0.03186 0.0111 0.09756 0.0
O482 O -0.0002 0.02581 0.09387 0.0
C483 C 0.83054 0.94759 0.07345 0.0
C484 C 0.80228 0.90021 0.08302 0.0
C485 C 0.79545 0.93174 0.0757 0.0
N486 N 0.85651 0.92693 0.07949 0.0
N487 N 0.83956 0.89803 0.08487 0.0
C488 C 0.8396 0.98129 0.06552 0.0
H489 H 0.86333 0.99734 0.06966 0.0
H490 H 0.81483 0.99974 0.06414 0.0
H491 H 0.84892 0.97134 0.0561 0.0
C492 C 0.94008 0.99248 0.11387 0.0
N493 N 0.94347 0.97315 0.103 0.0
N494 N 0.91053 0.97081 0.09746 0.0
C495 C 0.88514 0.98988 0.10453 0.0
C496 C 0.90294 0.00432 0.11526 0.0
C497 C 0.97156 0.99697 0.12312 0.0
H498 H 0.99185 0.97344 0.12213 0.0
H499 H 0.98663 0.02369 0.12118 0.0
H500 H 0.96068 0.9978 0.13293 0.0
O501 O 0.98638 0.89663 0.09637 0.0
O502 O 0.93075 0.88847 0.08721 0.0
H503 H 0.82909 0.96981 0.10174 0.0
H504 H 0.83171 0.01915 0.10603 0.0
C505 C 0.84532 0.99627 0.1006 0.0
H506 H 0.84484 0.00446 0.09057 0.0
H507 H 0.85315 0.87812 0.09048 0.0
O508 O 0.03264 0.97637 0.10049 0.0
C509 C 0.96027 0.87514 0.0924 0.0
Co510 Co 0.78077 0.22129 0.83586 0.0
Co511 Co 0.82338 0.14582 0.83132 0.0
C512 C 0.78668 0.18663 0.80989 0.0
O513 O 0.77709 0.2123 0.81757 0.0
O514 O 0.8039 0.15724 0.81375 0.0
C515 C 0.72731 0.28027 0.83176 0.0
O516 O 0.72678 0.26724 0.82019 0.0
C517 C 0.83438 0.06408 0.82906 0.0
C518 C 0.89004 0.05781 0.83809 0.0
C519 C 0.86008 0.03753 0.83328 0.0
N520 N 0.84836 0.09847 0.83148 0.0
N521 N 0.88208 0.09451 0.83654 0.0
C522 C 0.79538 0.0571 0.82433 0.0
H523 H 0.77827 0.08319 0.82489 0.0
H524 H 0.78176 0.03418 0.82978 0.0
H525 H 0.79689 0.04796 0.81434 0.0
C526 C 0.74128 0.17528 0.85495 0.0
N527 N 0.76595 0.17852 0.84537 0.0
N528 N 0.7849 0.14692 0.84418 0.0
C529 C 0.77366 0.12296 0.8534 0.0
C530 C 0.74535 0.14001 0.86047 0.0
C531 C 0.7145 0.20577 0.85872 0.0
H532 H 0.7013 0.218 0.85018 0.0
H533 H 0.69203 0.195 0.86501 0.0
H534 H 0.73021 0.22848 0.86361 0.0
O535 O 0.83344 0.23602 0.83983 0.0
O536 O 0.86322 0.18273 0.83558 0.0
H537 H 0.78935 0.07971 0.86675 0.0
H538 H 0.7812 0.06374 0.85093 0.0
C539 C 0.79319 0.08691 0.85665 0.0
H540 H 0.82364 0.08925 0.8547 0.0
H541 H 0.89862 0.11681 0.83973 0.0
O542 O 0.74809 0.26469 0.83999 0.0
C543 C 0.86374 0.2171 0.83895 0.0
Co544 Co 0.98215 0.52545 0.58817 0.0
Co545 Co 0.90535 0.56451 0.58455 0.0
C546 C 0.94728 0.531 0.56256 0.0
O547 O 0.97363 0.52124 0.56988 0.0
O548 O 0.9182 0.54744 0.5669 0.0
C549 C 0.03066 0.46602 0.58413 0.0
O550 O 0.00055 0.45302 0.57842 0.0
C551 C 0.82475 0.55976 0.58233 0.0
C552 C 0.80578 0.61627 0.5882 0.0
C553 C 0.79291 0.5805 0.58523 0.0
N554 N 0.85496 0.58179 0.58392 0.0
N555 N 0.8435 0.61588 0.58708 0.0
C556 C 0.82688 0.51917 0.57856 0.0
H557 H 0.84997 0.51505 0.57167 0.0
H558 H 0.83328 0.50159 0.58691 0.0
H559 H 0.79986 0.50961 0.57441 0.0
C560 C 0.93956 0.4816 0.60743 0.0
N561 N 0.9415 0.50703 0.59798 0.0
N562 N 0.90965 0.52576 0.59734 0.0
C563 C 0.88721 0.51396 0.60687 0.0
C564 C 0.90471 0.48472 0.61327 0.0
C565 C 0.97122 0.45614 0.61108 0.0
H566 H 0.99589 0.47336 0.61387 0.0
H567 H 0.97948 0.43889 0.60283 0.0
H568 H 0.96337 0.43703 0.61892 0.0
O569 O 0.99286 0.57924 0.59229 0.0
O570 O 0.93804 0.60756 0.58905 0.0
H571 H 0.85733 0.5401 0.62205 0.0
H572 H 0.82852 0.51733 0.61071 0.0
C573 C 0.85386 0.53498 0.61178 0.0
H574 H 0.85028 0.56241 0.60705 0.0
H575 H 0.86151 0.63822 0.58925 0.0
O576 O 0.02819 0.49614 0.59055 0.0
C577 C 0.97271 0.60896 0.59202 0.0
Co578 Co 0.71524 0.72155 0.84138 0.0
Co579 Co 0.67719 0.64408 0.83612 0.0
C580 C 0.70964 0.68628 0.8149 0.0
O581 O 0.71755 0.71205 0.82282 0.0
O582 O 0.69459 0.65548 0.81852 0.0
C583 C 0.77021 0.7783 0.83652 0.0
O584 O 0.77363 0.7606 0.82572 0.0
C585 C 0.65919 0.56288 0.8327 0.0
C586 C 0.61375 0.55766 0.84682 0.0
C587 C 0.63587 0.53685 0.83866 0.0
N588 N 0.65166 0.59716 0.83746 0.0
N589 N 0.62376 0.59388 0.84561 0.0
C590 C 0.69042 0.55515 0.8236 0.0
H591 H 0.70881 0.5802 0.82257 0.0
H592 H 0.70727 0.53063 0.82677 0.0
H593 H 0.67825 0.54827 0.81424 0.0
C594 C 0.75641 0.67628 0.86043 0.0
N595 N 0.73156 0.67936 0.8509 0.0
N596 N 0.71737 0.64605 0.84835 0.0
C597 C 0.73383 0.62033 0.85599 0.0
C598 C 0.75919 0.63857 0.86401 0.0
C599 C 0.77478 0.70954 0.86654 0.0
H600 H 0.7552 0.73383 0.86658 0.0
H601 H 0.80004 0.71759 0.86102 0.0
H602 H 0.7832 0.70322 0.87639 0.0
O603 O 0.6631 0.73478 0.84584 0.0
O604 O 0.6367 0.6806 0.84056 0.0
H605 H 0.699 0.57189 0.85867 0.0
H606 H 0.74885 0.56227 0.86006 0.0
C607 C 0.72731 0.57884 0.85496 0.0
H608 H 0.72854 0.57061 0.84494 0.0
H609 H 0.61298 0.61613 0.85091 0.0
O610 O 0.74759 0.76592 0.84482 0.0
C611 C 0.634 0.71437 0.84446 0.0
Co612 Co 0.51207 0.47279 0.09372 0.0
Co613 Co 0.58463 0.44338 0.08124 0.0
C614 C 0.52614 0.47807 0.06532 0.0
O615 O 0.50735 0.48136 0.07543 0.0
O616 O 0.55921 0.46436 0.06562 0.0
C617 C 0.4668 0.53482 0.09628 0.0
O618 O 0.49572 0.5495 0.09034 0.0
C619 C 0.65908 0.44307 0.06969 0.0
C620 C 0.6859 0.39565 0.07968 0.0
C621 C 0.6934 0.42517 0.07151 0.0
N622 N 0.63319 0.42583 0.07685 0.0
N623 N 0.64907 0.39674 0.08247 0.0
C624 C 0.6506 0.47597 0.06132 0.0
H625 H 0.62747 0.46823 0.0548 0.0
H626 H 0.64051 0.50007 0.06704 0.0
H627 H 0.67543 0.48438 0.05565 0.0
C628 C 0.56542 0.5136 0.11008 0.0
N629 N 0.55783 0.49083 0.10026 0.0
N630 N 0.58936 0.4799 0.09494 0.0
C631 C 0.61834 0.49625 0.10124 0.0
C632 C 0.60408 0.5185 0.11103 0.0
C633 C 0.53615 0.52797 0.11902 0.0
H634 H 0.51274 0.50747 0.11978 0.0
H635 H 0.52473 0.55493 0.1154 0.0
H636 H 0.54825 0.53297 0.12852 0.0
O637 O 0.50636 0.41901 0.09724 0.0
O638 O 0.55666 0.39723 0.08725 0.0
H639 H 0.66678 0.46179 0.09823 0.0
H640 H 0.67768 0.50888 0.10365 0.0
C641 C 0.6587 0.49189 0.09764 0.0
H642 H 0.66226 0.50126 0.08779 0.0
H643 H 0.63535 0.37917 0.08888 0.0
O644 O 0.46893 0.50105 0.10018 0.0
C645 C 0.52674 0.39161 0.09363 0.0
Co646 Co 0.79102 0.27569 0.34256 0.0
Co647 Co 0.816 0.35177 0.33038 0.0
C648 C 0.78409 0.29238 0.31424 0.0
O649 O 0.78327 0.27279 0.32423 0.0
O650 O 0.79491 0.32661 0.31464 0.0
C651 C 0.73308 0.22362 0.34324 0.0
O652 O 0.71991 0.24742 0.33486 0.0
C653 C 0.81744 0.43235 0.32268 0.0
C654 C 0.87511 0.44706 0.32841 0.0
C655 C 0.84187 0.46259 0.3241 0.0
N656 N 0.83518 0.40072 0.32632 0.0
N657 N 0.87017 0.40967 0.32925 0.0
C658 C 0.77704 0.43401 0.31884 0.0
H659 H 0.76196 0.40815 0.32184 0.0
H660 H 0.7633 0.45954 0.32273 0.0
H661 H 0.77558 0.43598 0.3084 0.0
C662 C 0.74732 0.32679 0.35921 0.0
N663 N 0.77072 0.32089 0.34937 0.0
N664 N 0.78094 0.35351 0.34451 0.0
C665 C 0.76476 0.38116 0.35148 0.0
C666 C 0.74259 0.36519 0.36083 0.0
C667 C 0.72955 0.2961 0.36679 0.0
H668 H 0.7073 0.28244 0.36107 0.0
H669 H 0.71678 0.3072 0.37559 0.0
H670 H 0.75089 0.27445 0.36915 0.0
O671 O 0.84583 0.27118 0.34586 0.0
O672 O 0.8617 0.32423 0.33616 0.0
H673 H 0.76924 0.43653 0.35962 0.0
H674 H 0.75352 0.43524 0.34362 0.0
C675 C 0.77321 0.42219 0.35041 0.0
H676 H 0.80257 0.42625 0.34733 0.0
H677 H 0.88996 0.39072 0.33274 0.0
O678 O 0.7637 0.23104 0.34891 0.0
C679 C 0.87068 0.29443 0.34211 0.0
Co680 Co 0.97645 0.44471 0.95105 0.0
Co681 Co 0.89905 0.43086 0.96325 0.0
C682 C 0.95977 0.46012 0.97904 0.0
O683 O 0.97981 0.45737 0.96918 0.0
O684 O 0.92502 0.45165 0.97866 0.0
C685 C 0.02211 0.50371 0.94783 0.0
O686 O 0.99077 0.51855 0.95209 0.0
C687 C 0.82376 0.44096 0.97375 0.0
C688 C 0.79246 0.3971 0.96339 0.0
C689 C 0.78778 0.42743 0.97146 0.0
N690 N 0.84814 0.42042 0.96699 0.0
N691 N 0.82942 0.39349 0.96113 0.0
C692 C 0.83515 0.47274 0.98224 0.0
H693 H 0.85433 0.46166 0.98961 0.0
H694 H 0.85122 0.49413 0.97686 0.0
H695 H 0.81056 0.4859 0.98691 0.0
C696 C 0.9305 0.48651 0.93246 0.0
N697 N 0.93391 0.46646 0.94317 0.0
N698 N 0.9011 0.46401 0.94877 0.0
C699 C 0.87572 0.48377 0.94189 0.0
C700 C 0.89354 0.49896 0.93128 0.0
C701 C 0.96164 0.49089 0.92307 0.0
H702 H 0.98137 0.46679 0.92374 0.0
H703 H 0.97748 0.51709 0.92511 0.0
H704 H 0.95031 0.49266 0.91333 0.0
O705 O 0.97639 0.38967 0.9492 0.0
O706 O 0.92121 0.38068 0.95857 0.0
H707 H 0.81965 0.46316 0.94408 0.0
H708 H 0.8223 0.51302 0.9406 0.0
C709 C 0.83572 0.48946 0.94576 0.0
H710 H 0.83467 0.49601 0.95591 0.0
H711 H 0.8416 0.37422 0.95493 0.0
O712 O 0.02254 0.46891 0.94499 0.0
C713 C 0.95055 0.3678 0.95314 0.0
Co714 Co 0.80553 0.734 0.19722 0.0
Co715 Co 0.81335 0.65667 0.20998 0.0
C716 C 0.7831 0.71987 0.22473 0.0
O717 O 0.78807 0.73958 0.21488 0.0
O718 O 0.79108 0.68491 0.22469 0.0
C719 C 0.75645 0.79102 0.19239 0.0
O720 O 0.73247 0.76398 0.19496 0.0
C721 C 0.79708 0.58174 0.22019 0.0
C722 C 0.84636 0.55011 0.21327 0.0
C723 C 0.81228 0.54581 0.21941 0.0
N724 N 0.82068 0.60574 0.21447 0.0
N725 N 0.85057 0.58685 0.21067 0.0
C726 C 0.76155 0.59363 0.22664 0.0
H727 H 0.74803 0.61708 0.22144 0.0
H728 H 0.74173 0.56984 0.22789 0.0
H729 H 0.76887 0.60448 0.23615 0.0
C730 C 0.7633 0.68945 0.17811 0.0
N731 N 0.78235 0.69253 0.18904 0.0
N732 N 0.78336 0.6596 0.1947 0.0
C733 C 0.76403 0.6345 0.18756 0.0
C734 C 0.75044 0.6526 0.17676 0.0
C735 C 0.75977 0.72078 0.16874 0.0
H736 H 0.78417 0.7401 0.16951 0.0
H737 H 0.73384 0.73706 0.17072 0.0
H738 H 0.75801 0.70953 0.15899 0.0
O739 O 0.86062 0.73027 0.19689 0.0
O740 O 0.86554 0.67505 0.20647 0.0
H741 H 0.7839 0.57935 0.19214 0.0
H742 H 0.7379 0.57966 0.18485 0.0
C743 C 0.75683 0.59466 0.19143 0.0
H744 H 0.74334 0.59464 0.2008 0.0
H745 H 0.87289 0.59868 0.20568 0.0
O746 O 0.79047 0.78248 0.19024 0.0
C747 C 0.88058 0.70369 0.20129 0.0
Co748 Co 0.51895 0.52696 0.45339 0.0
Co749 Co 0.5943 0.56741 0.45876 0.0
C750 C 0.55161 0.52798 0.47946 0.0
O751 O 0.52616 0.51841 0.47168 0.0
O752 O 0.58043 0.54642 0.47579 0.0
C753 C 0.45816 0.47444 0.45507 0.0
O754 O 0.47874 0.45719 0.46357 0.0
C755 C 0.67539 0.5766 0.46297 0.0
C756 C 0.68373 0.63486 0.45615 0.0
C757 C 0.70272 0.60361 0.4606 0.0
N758 N 0.64191 0.59107 0.45975 0.0
N759 N 0.64701 0.62612 0.45591 0.0
C760 C 0.68051 0.53825 0.46857 0.0
H761 H 0.65604 0.5311 0.47459 0.0
H762 H 0.68203 0.5169 0.46098 0.0
H763 H 0.70676 0.5369 0.47421 0.0
C764 C 0.56509 0.4887 0.43374 0.0
N765 N 0.56143 0.51236 0.44361 0.0
N766 N 0.59344 0.53017 0.44546 0.0
C767 C 0.61829 0.51877 0.43655 0.0
C768 C 0.60134 0.49171 0.42894 0.0
C769 C 0.53391 0.46454 0.42884 0.0
H770 H 0.51347 0.48249 0.42372 0.0
H771 H 0.51894 0.45116 0.43685 0.0
H772 H 0.54461 0.4424 0.42239 0.0
O773 O 0.50619 0.58081 0.45071 0.0
O774 O 0.55987 0.60945 0.45483 0.0
H775 H 0.65509 0.5669 0.437 0.0
H776 H 0.66275 0.53553 0.42389 0.0
C777 C 0.65552 0.53701 0.43407 0.0
H778 H 0.67775 0.5219 0.43933 0.0
H779 H 0.6256 0.64367 0.45268 0.0
O780 O 0.4724 0.50101 0.44864 0.0
C781 C 0.52542 0.61081 0.45177 0.0
Co782 Co 0.70117 0.26884 0.69716 0.0
Co783 Co 0.68962 0.345 0.7107 0.0
C784 C 0.71887 0.27961 0.72502 0.0
O785 O 0.71562 0.26053 0.71496 0.0
O786 O 0.71046 0.31446 0.72512 0.0
C787 C 0.74713 0.20823 0.69346 0.0
O788 O 0.77085 0.23187 0.69872 0.0
C789 C 0.70865 0.41868 0.72126 0.0
C790 C 0.65805 0.45119 0.71615 0.0
C791 C 0.69412 0.45504 0.72094 0.0
N792 N 0.683 0.39517 0.71633 0.0
N793 N 0.65233 0.41455 0.71371 0.0
C794 C 0.74587 0.40591 0.72629 0.0
H795 H 0.76371 0.39533 0.7185 0.0
H796 H 0.76053 0.42886 0.73142 0.0
H797 H 0.74136 0.38195 0.73283 0.0
C798 C 0.74896 0.31599 0.68004 0.0
N799 N 0.72629 0.31136 0.69016 0.0
N800 N 0.72119 0.34413 0.69574 0.0
C801 C 0.74005 0.37066 0.68909 0.0
C802 C 0.75871 0.35372 0.6791 0.0
C803 C 0.76183 0.28472 0.67165 0.0
H804 H 0.73879 0.26409 0.67028 0.0
H805 H 0.78576 0.27004 0.67621 0.0
H806 H 0.77131 0.29565 0.66238 0.0
O807 O 0.64563 0.27368 0.69597 0.0
O808 O 0.6381 0.32755 0.70623 0.0
H809 H 0.74425 0.42805 0.68263 0.0
H810 H 0.76055 0.41972 0.69832 0.0
C811 C 0.73852 0.41212 0.69143 0.0
H812 H 0.71057 0.42038 0.69504 0.0
H813 H 0.62845 0.40322 0.70946 0.0
O814 O 0.71591 0.22086 0.68948 0.0
C815 C 0.62445 0.29944 0.70035 0.0
Co816 Co 0.00629 0.46758 0.44733 0.0
Co817 Co 0.0808 0.43723 0.45839 0.0
C818 C 0.02728 0.4766 0.47511 0.0
O819 O 0.00647 0.47986 0.46545 0.0
O820 O 0.0593 0.46071 0.47425 0.0
C821 C 0.96236 0.53041 0.44472 0.0
O822 O 0.99277 0.54493 0.44981 0.0
C823 C 0.15735 0.43634 0.46843 0.0
C824 C 0.18261 0.38998 0.45748 0.0
C825 C 0.1914 0.4189 0.46574 0.0
N826 N 0.13023 0.41939 0.4617 0.0
N827 N 0.14529 0.39092 0.45549 0.0
C828 C 0.15039 0.46874 0.47718 0.0
H829 H 0.13057 0.45956 0.48466 0.0
H830 H 0.13658 0.49216 0.47206 0.0
H831 H 0.17667 0.47866 0.48173 0.0
C832 C 0.05687 0.50468 0.42916 0.0
N833 N 0.05086 0.48258 0.43927 0.0
N834 N 0.08313 0.47239 0.44422 0.0
C835 C 0.11105 0.48911 0.43751 0.0
C836 C 0.09534 0.51045 0.42772 0.0
C837 C 0.02617 0.51783 0.42057 0.0
H838 H 0.00285 0.4971 0.42047 0.0
H839 H 0.01501 0.54509 0.42402 0.0
H840 H 0.03682 0.52177 0.41082 0.0
O841 O 0.99749 0.41364 0.44554 0.0
O842 O 0.04978 0.39098 0.45406 0.0
H843 H 0.16207 0.45801 0.43965 0.0
H844 H 0.16922 0.50705 0.43561 0.0
C845 C 0.15163 0.48713 0.44105 0.0
H846 H 0.15436 0.49437 0.45111 0.0
H847 H 0.13054 0.37378 0.44921 0.0
O848 O 0.96275 0.49609 0.44135 0.0
C849 C 0.01752 0.38589 0.44904 0.0
Co850 Co 0.28358 0.26251 0.20407 0.0
Co851 Co 0.31231 0.34307 0.21012 0.0
C852 C 0.28433 0.295 0.23083 0.0
O853 O 0.27865 0.26896 0.2228 0.0
O854 O 0.29697 0.327 0.22738 0.0
C855 C 0.22878 0.20573 0.20706 0.0
O856 O 0.21856 0.22678 0.21664 0.0
C857 C 0.32414 0.42454 0.21571 0.0
C858 C 0.37363 0.43502 0.2036 0.0
C859 C 0.34918 0.45221 0.21189 0.0
N860 N 0.33349 0.39224 0.20989 0.0
N861 N 0.36331 0.39877 0.20278 0.0
C862 C 0.29283 0.42853 0.22504 0.0
H863 H 0.27811 0.4013 0.22641 0.0
H864 H 0.27247 0.45001 0.22174 0.0
H865 H 0.3044 0.43849 0.23417 0.0
C866 C 0.23962 0.30554 0.18488 0.0
N867 N 0.26327 0.30404 0.1948 0.0
N868 N 0.27272 0.33844 0.19806 0.0
C869 C 0.25405 0.36313 0.19066 0.0
C870 C 0.23241 0.34325 0.18188 0.0
C871 C 0.22745 0.27125 0.17775 0.0
H872 H 0.24944 0.24919 0.17831 0.0
H873 H 0.20137 0.25991 0.18205 0.0
H874 H 0.2221 0.27787 0.16768 0.0
O875 O 0.33732 0.2541 0.19988 0.0
O876 O 0.35549 0.31202 0.20459 0.0
H877 H 0.28071 0.41642 0.18779 0.0
H878 H 0.22991 0.41883 0.1888 0.0
C879 C 0.25544 0.40484 0.19254 0.0
H880 H 0.25742 0.41113 0.20271 0.0
H881 H 0.37623 0.37865 0.19709 0.0
O882 O 0.25563 0.21624 0.2 0.0
C883 C 0.36292 0.27892 0.2008 0.0
Co884 Co 0.46885 0.55215 0.95342 0.0
Co885 Co 0.38702 0.57357 0.95928 0.0
C886 C 0.43519 0.54393 0.97975 0.0
O887 O 0.46216 0.54185 0.97189 0.0
O888 O 0.40282 0.55534 0.97627 0.0
C889 C 0.53043 0.50292 0.95505 0.0
O890 O 0.50637 0.48167 0.96119 0.0
C891 C 0.30605 0.57702 0.96529 0.0
C892 C 0.28901 0.62283 0.95235 0.0
C893 C 0.27532 0.59762 0.96114 0.0
N894 N 0.3365 0.58949 0.9591 0.0
N895 N 0.32618 0.61717 0.95153 0.0
C896 C 0.30706 0.54712 0.97524 0.0
H897 H 0.32466 0.52314 0.97208 0.0
H898 H 0.27848 0.53727 0.97779 0.0
H899 H 0.32059 0.55893 0.9838 0.0
C900 C 0.43054 0.50585 0.93334 0.0
N901 N 0.43025 0.52931 0.94336 0.0
N902 N 0.39522 0.53701 0.94633 0.0
C903 C 0.37203 0.51799 0.9385 0.0
C904 C 0.39349 0.49765 0.92983 0.0
C905 C 0.46579 0.49365 0.92683 0.0
H906 H 0.48766 0.51576 0.9277 0.0
H907 H 0.47649 0.46768 0.93141 0.0
H908 H 0.46055 0.48777 0.9167 0.0
O909 O 0.47221 0.60734 0.95049 0.0
O910 O 0.41332 0.62095 0.95516 0.0
H911 H 0.31834 0.54364 0.93559 0.0
H912 H 0.31736 0.49268 0.93526 0.0
C913 C 0.33013 0.51765 0.93984 0.0
H914 H 0.32248 0.51709 0.94993 0.0
H915 H 0.34439 0.63149 0.9455 0.0
O916 O 0.51885 0.53258 0.94964 0.0
C917 C 0.44593 0.63122 0.95177 0.0
Co918 Co 0.22469 0.74031 0.70097 0.0
Co919 Co 0.19279 0.66309 0.70999 0.0
C920 C 0.23446 0.71005 0.72799 0.0
O921 O 0.23747 0.7331 0.71888 0.0
O922 O 0.21728 0.67875 0.72654 0.0
C923 C 0.28636 0.78821 0.70061 0.0
O924 O 0.3018 0.7581 0.70557 0.0
C925 C 0.18052 0.58227 0.71663 0.0
C926 C 0.13741 0.56828 0.70235 0.0
C927 C 0.15963 0.55278 0.71168 0.0
N928 N 0.17111 0.61393 0.71041 0.0
N929 N 0.14477 0.60538 0.70209 0.0
C930 C 0.2117 0.57946 0.72603 0.0
H931 H 0.2299 0.6048 0.72566 0.0
H932 H 0.22871 0.5538 0.72426 0.0
H933 H 0.19945 0.57702 0.73562 0.0
C934 C 0.25926 0.69325 0.68123 0.0
N935 N 0.23805 0.69753 0.69162 0.0
N936 N 0.22761 0.6644 0.69587 0.0
C937 C 0.24328 0.63758 0.68846 0.0
C938 C 0.26385 0.6549 0.67882 0.0
C939 C 0.27289 0.72573 0.67348 0.0
H940 H 0.25292 0.74961 0.67422 0.0
H941 H 0.3005 0.73526 0.67715 0.0
H942 H 0.27603 0.71762 0.66343 0.0
O943 O 0.17109 0.75097 0.69968 0.0
O944 O 0.14807 0.69712 0.70689 0.0
H945 H 0.21409 0.58502 0.68775 0.0
H946 H 0.26461 0.58069 0.6867 0.0
C947 C 0.24125 0.59633 0.69122 0.0
H948 H 0.24287 0.59176 0.70152 0.0
H949 H 0.13324 0.62461 0.69574 0.0
O950 O 0.25311 0.78596 0.69633 0.0
C951 C 0.14327 0.73055 0.70278 0.0
Co952 Co 0.01728 0.52493 0.09061 0.0
Co953 Co 0.09518 0.55994 0.08525 0.0
C954 C 0.05204 0.52497 0.06436 0.0
O955 O 0.02601 0.51773 0.07223 0.0
O956 O 0.08239 0.54097 0.06793 0.0
C957 C 0.95721 0.47338 0.0873 0.0
O958 O 0.9801 0.45566 0.07961 0.0
C959 C 0.17637 0.57427 0.08068 0.0
C960 C 0.18429 0.62414 0.09289 0.0
C961 C 0.20309 0.59963 0.085 0.0
N962 N 0.14318 0.58328 0.08591 0.0
N963 N 0.1481 0.61345 0.09304 0.0
C964 C 0.18207 0.54295 0.07142 0.0
H965 H 0.15566 0.52692 0.07 0.0
H966 H 0.2044 0.52359 0.07473 0.0
H967 H 0.19152 0.55493 0.06229 0.0
C968 C 0.06035 0.48339 0.11019 0.0
N969 N 0.0581 0.50801 0.10057 0.0
N970 N 0.09182 0.52079 0.09789 0.0
C971 C 0.11704 0.50326 0.10543 0.0
C972 C 0.09803 0.47892 0.11363 0.0
C973 C 0.02643 0.46679 0.11643 0.0
H974 H 0.00255 0.48678 0.11588 0.0
H975 H 0.01825 0.44064 0.1114 0.0
H976 H 0.03207 0.46013 0.12647 0.0
O977 O 0.00622 0.57812 0.09376 0.0
O978 O 0.0612 0.6033 0.08915 0.0
H979 H 0.1679 0.53423 0.10831 0.0
H980 H 0.17419 0.48356 0.10822 0.0
C981 C 0.15866 0.50738 0.10395 0.0
H982 H 0.16567 0.50818 0.09381 0.0
H983 H 0.1269 0.62616 0.09833 0.0
O984 O 0.96983 0.49954 0.09427 0.0
C985 C 0.02706 0.60683 0.09247 0.0
Co986 Co 0.20608 0.27302 0.84315 0.0
Co987 Co 0.18777 0.35089 0.83159 0.0
C988 C 0.21867 0.29278 0.81511 0.0
O989 O 0.21746 0.272 0.82486 0.0
O990 O 0.20871 0.32721 0.81576 0.0
C991 C 0.26556 0.22567 0.84532 0.0
O992 O 0.2809 0.25628 0.84063 0.0
C993 C 0.18666 0.43001 0.8224 0.0
C994 C 0.13391 0.44927 0.83133 0.0
C995 C 0.16347 0.46106 0.82389 0.0
N996 N 0.17134 0.40103 0.82873 0.0
N997 N 0.13965 0.41275 0.83391 0.0
C998 C 0.22184 0.42764 0.81471 0.0
H999 H 0.235 0.39946 0.81564 0.0
H1000 H 0.24207 0.44966 0.81769 0.0
H1001 H 0.21491 0.43297 0.80466 0.0
C1002 C 0.249 0.32043 0.86131 0.0
N1003 N 0.22716 0.31635 0.85101 0.0
N1004 N 0.222 0.34939 0.8457 0.0
C1005 C 0.24124 0.37561 0.85238 0.0
C1006 C 0.25923 0.35815 0.86255 0.0
C1007 C 0.25784 0.28892 0.8702 0.0
H1008 H 0.23513 0.26752 0.86997 0.0
H1009 H 0.28444 0.27522 0.86726 0.0
H1010 H 0.26127 0.29961 0.87997 0.0
O1011 O 0.15103 0.27003 0.84549 0.0
O1012 O 0.13985 0.32495 0.83633 0.0
H1013 H 0.21644 0.42998 0.85003 0.0
H1014 H 0.26601 0.43135 0.85393 0.0
C1015 C 0.24402 0.41607 0.84859 0.0
H1016 H 0.25108 0.41766 0.83845 0.0
H1017 H 0.12241 0.39612 0.83957 0.0
O1018 O 0.23134 0.22678 0.84875 0.0
C1019 C 0.12814 0.29506 0.84168 0.0
Co1020 Co 0.4773 0.45554 0.59362 0.0
Co1021 Co 0.4018 0.43585 0.58095 0.0
C1022 C 0.46268 0.4687 0.56556 0.0
O1023 O 0.48251 0.46858 0.57554 0.0
O1024 O 0.42868 0.4573 0.56581 0.0
C1025 C 0.53225 0.51012 0.59832 0.0
O1026 O 0.5105 0.53041 0.59097 0.0
C1027 C 0.32442 0.4359 0.57044 0.0
C1028 C 0.3062 0.37896 0.57624 0.0
C1029 C 0.29426 0.41115 0.57016 0.0
N1030 N 0.35295 0.41896 0.5765 0.0
N1031 N 0.34193 0.38477 0.57976 0.0
C1032 C 0.32676 0.47394 0.56445 0.0
H1033 H 0.32339 0.47091 0.55409 0.0
H1034 H 0.35426 0.48739 0.56651 0.0
H1035 H 0.3036 0.4922 0.56782 0.0
C1036 C 0.42788 0.49778 0.61094 0.0
N1037 N 0.43292 0.47576 0.60076 0.0
N1038 N 0.40043 0.46991 0.59518 0.0
C1039 C 0.37352 0.489 0.60161 0.0
C1040 C 0.39016 0.50767 0.61181 0.0
C1041 C 0.45855 0.5074 0.62006 0.0
H1042 H 0.47852 0.48356 0.62087 0.0
H1043 H 0.47411 0.53237 0.61657 0.0
H1044 H 0.44695 0.51389 0.62954 0.0
O1045 O 0.48021 0.40067 0.59573 0.0
O1046 O 0.42651 0.38782 0.58616 0.0
H1047 H 0.32194 0.46247 0.59621 0.0
H1048 H 0.31565 0.50684 0.60434 0.0
C1049 C 0.33335 0.49126 0.59753 0.0
H1050 H 0.33202 0.50615 0.58838 0.0
H1051 H 0.35842 0.36557 0.58471 0.0
O1052 O 0.52187 0.47724 0.60144 0.0
C1053 C 0.45608 0.37707 0.59184 0.0
Co1054 Co 0.29476 0.72662 0.34019 0.0
Co1055 Co 0.32123 0.64507 0.33424 0.0
C1056 C 0.29352 0.69309 0.31353 0.0
O1057 O 0.28891 0.71953 0.32149 0.0
O1058 O 0.30539 0.66085 0.31704 0.0
C1059 C 0.24185 0.78533 0.33705 0.0
O1060 O 0.23145 0.76466 0.3274 0.0
C1061 C 0.32978 0.56327 0.32883 0.0
C1062 C 0.37808 0.55063 0.34125 0.0
C1063 C 0.35312 0.53446 0.33289 0.0
N1064 N 0.34052 0.5952 0.3346 0.0
N1065 N 0.36965 0.58741 0.34189 0.0
C1066 C 0.29861 0.56058 0.31939 0.0
H1067 H 0.28479 0.58829 0.31808 0.0
H1068 H 0.27747 0.53962 0.32251 0.0
H1069 H 0.31014 0.55064 0.31026 0.0
C1070 C 0.24954 0.68482 0.3595 0.0
N1071 N 0.27363 0.68579 0.34968 0.0
N1072 N 0.28241 0.65115 0.3465 0.0
C1073 C 0.26304 0.62691 0.35387 0.0
C1074 C 0.24155 0.64729 0.36254 0.0
C1075 C 0.23701 0.71943 0.36637 0.0
H1076 H 0.25929 0.74125 0.366 0.0
H1077 H 0.21154 0.73091 0.36171 0.0
H1078 H 0.23046 0.71312 0.37638 0.0
O1079 O 0.34923 0.73346 0.34391 0.0
O1080 O 0.36576 0.67508 0.33916 0.0
H1081 H 0.28862 0.57292 0.35635 0.0
H1082 H 0.2377 0.5717 0.35591 0.0
C1083 C 0.26315 0.58519 0.35192 0.0
H1084 H 0.26387 0.57904 0.34172 0.0
H1085 H 0.38322 0.60704 0.3476 0.0
O1086 O 0.26813 0.77397 0.34423 0.0
C1087 C 0.37428 0.70813 0.34276 0.0
H1088 H 0.50428 0.00311 0.05241 0.0
H1089 H 0.40782 0.07182 0.0423 0.0
H1090 H 0.42441 0.06559 1.01989 0.0
H1091 H 0.56759 0.03789 0.02851 0.0
H1092 H 0.58857 0.99279 0.02515 0.0
H1093 H 0.56995 0.00238 0.04063 0.0
H1094 H 0.52724 0.94368 0.03911 0.0
H1095 H 0.54594 0.93361 0.02369 0.0
H1096 H 0.49594 0.93859 0.02585 0.0
H1097 H 0.45144 0.05471 0.99897 0.0
H1098 H 0.48317 0.03375 0.97984 0.0
H1099 H 0.56204 0.96853 1.00232 0.0
C1100 C 0.48659 0.01673 0.04546 0.0
C1101 C 0.4547 0.03816 0.04918 0.0
C1102 C 0.43224 0.05527 0.03977 0.0
C1103 C 0.44157 0.05206 0.02699 0.0
C1104 C 0.4733 0.03132 0.02367 0.0
C1105 C 0.49525 0.01342 0.03255 0.0
C1106 C 0.52713 0.99183 0.0262 0.0
C1107 C 0.56559 0.00715 0.03037 0.0
C1108 C 0.52385 0.94941 0.02887 0.0
C1109 C 0.51956 0.00058 1.01237 0.0
C1110 C 0.48853 0.02379 1.01128 0.0
C1111 C 0.47558 0.03629 0.99968 0.0
C1112 C 0.49403 0.02407 0.98882 0.0
C1113 C 0.52517 0.99907 0.98944 0.0
C1114 C 0.5385 0.98766 1.00146 0.0
H1115 H 0.21235 0.17996 0.29204 0.0
H1116 H 0.26929 0.26617 0.31407 0.0
H1117 H 0.28946 0.29737 0.29475 0.0
H1118 H 0.2841 0.1767 0.26676 0.0
H1119 H 0.25012 0.17007 0.25434 0.0
H1120 H 0.24042 0.15284 0.26999 0.0
H1121 H 0.17841 0.19094 0.27029 0.0
H1122 H 0.18824 0.2085 0.25469 0.0
H1123 H 0.17974 0.24097 0.26745 0.0
H1124 H 0.30053 0.32277 0.27354 0.0
H1125 H 0.30748 0.33714 0.25094 0.0
H1126 H 0.24697 0.23452 0.24165 0.0
C1127 C 0.22946 0.20508 0.29277 0.0
C1128 C 0.23876 0.22052 0.30472 0.0
C1129 C 0.26122 0.25363 0.30516 0.0
C1130 C 0.27299 0.27181 0.29419 0.0
C1131 C 0.26264 0.25664 0.28265 0.0
C1132 C 0.24193 0.22377 0.28175 0.0
C1133 C 0.23512 0.21397 0.26795 0.0
C1134 C 0.25355 0.17615 0.26456 0.0
C1135 C 0.19286 0.21358 0.26492 0.0
C1136 C 0.25487 0.24668 0.26141 0.0
C1137 C 0.27025 0.27098 0.27014 0.0
C1138 C 0.28894 0.30379 0.26656 0.0
C1139 C 0.29259 0.31183 0.25368 0.0
C1140 C 0.27796 0.28704 0.24445 0.0
C1141 C 0.25867 0.25404 0.24843 0.0
H1142 H 0.9242 0.02552 0.50458 0.0
H1143 H 0.02095 0.99838 0.48123 0.0
H1144 H 0.0563 0.97982 0.50004 0.0
H1145 H 0.97646 0.06394 0.53071 0.0
H1146 H 0.94648 0.04427 0.54273 0.0
H1147 H 0.92754 0.05512 0.5274 0.0
H1148 H 0.90423 0.9864 0.52508 0.0
H1149 H 0.92296 0.97547 0.54043 0.0
H1150 H 0.93713 0.9482 0.52691 0.0
H1151 H 0.08266 0.96594 0.52107 0.0
H1152 H 0.09748 0.95405 0.54336 0.0
H1153 H 0.98455 0.98861 0.55385 0.0
C1154 C 0.95271 0.01544 0.50344 0.0
C1155 C 0.96961 0.01362 0.49133 0.0
C1156 C 0.00712 1.00029 0.49031 0.0
C1157 C 0.02764 0.98964 0.50098 0.0
C1158 C 0.01048 0.99226 0.51272 0.0
C1159 C 0.97384 0.00453 0.51408 0.0
C1160 C 0.96251 0.00438 0.52792 0.0
C1161 C 0.95267 0.04431 0.53245 0.0
C1162 C 0.92977 0.97697 0.53022 0.0
C1163 C 0.99857 0.99029 0.53404 0.0
C1164 C 0.0258 0.98364 0.52503 0.0
C1165 C 0.06154 0.97086 0.52822 0.0
C1166 C 0.06971 0.96426 0.54095 0.0
C1167 C 0.04226 0.97025 0.55044 0.0
C1168 C 0.00621 0.98367 0.54687 0.0
H1169 H 0.2123 0.69284 0.75272 0.0
H1170 H 0.29505 0.75474 0.73096 0.0
H1171 H 0.31657 0.78686 0.75011 0.0
H1172 H 0.18818 0.76504 0.77405 0.0
H1173 H 0.18542 0.73588 0.78793 0.0
H1174 H 0.17671 0.71577 0.77261 0.0
H1175 H 0.22846 0.66581 0.77642 0.0
H1176 H 0.23677 0.6854 0.79185 0.0
H1177 H 0.27505 0.68085 0.78082 0.0
H1178 H 0.32467 0.81789 0.77091 0.0
H1179 H 0.32742 0.83732 0.79326 0.0
H1180 H 0.24442 0.75213 0.80257 0.0
C1181 C 0.23554 0.71242 0.75207 0.0
C1182 C 0.25136 0.72192 0.74022 0.0
C1183 C 0.2817 0.7478 0.73982 0.0
C1184 C 0.2943 0.76617 0.75068 0.0
C1185 C 0.27703 0.75777 0.76208 0.0
C1186 C 0.24914 0.73072 0.76299 0.0
C1187 C 0.2361 0.727 0.77661 0.0
C1188 C 0.19411 0.7365 0.77787 0.0
C1189 C 0.24461 0.68742 0.78173 0.0
C1190 C 0.26045 0.75666 0.78301 0.0
C1191 C 0.28348 0.77433 0.77438 0.0
C1192 C 0.30723 0.80387 0.77782 0.0
C1193 C 0.30837 0.81498 0.79052 0.0
C1194 C 0.28635 0.79622 0.79968 0.0
C1195 C 0.26183 0.76686 0.7958 0.0
H1196 H 0.49494 0.99496 0.55585 0.0
H1197 H 0.60104 0.04663 0.54525 0.0
H1198 H 0.58558 0.03677 0.52281 0.0
H1199 H 0.49382 0.92385 0.53117 0.0
H1200 H 0.44376 0.92691 0.52876 0.0
H1201 H 0.46345 0.93719 0.54403 0.0
H1202 H 0.43122 0.00237 0.54374 0.0
H1203 H 0.41177 0.99256 0.5284 0.0
H1204 H 0.43997 0.03412 0.5308 0.0
H1205 H 0.55863 0.0231 0.50171 0.0
H1206 H 0.52346 0.00387 0.48292 0.0
H1207 H 0.43366 0.96051 0.50664 0.0
C1208 C 0.51513 0.00395 0.54883 0.0
C1209 C 0.54937 0.02161 0.55238 0.0
C1210 C 0.57475 0.03305 0.54284 0.0
C1211 C 0.56615 0.02763 0.53004 0.0
C1212 C 0.53204 0.01071 0.5269 0.0
C1213 C 0.50696 0.9988 0.53598 0.0
C1214 C 0.47213 0.98152 0.52996 0.0
C1215 C 0.46807 0.93989 0.5337 0.0
C1216 C 0.43668 0.004 0.53343 0.0
C1217 C 0.48157 0.98568 0.51604 0.0
C1218 C 0.5163 0.00267 0.51458 0.0
C1219 C 0.53151 0.00964 0.50274 0.0
C1220 C 0.51113 0.99851 0.49209 0.0
C1221 C 0.47565 0.98043 0.49321 0.0
C1222 C 0.46054 0.97434 0.50542 0.0
H1223 H 0.24699 0.26528 0.74025 0.0
H1224 H 0.29836 0.15748 0.74906 0.0
H1225 H 0.28875 0.16974 0.77174 0.0
H1226 H 0.2863 0.31661 0.7663 0.0
H1227 H 0.2448 0.34448 0.76908 0.0
H1228 H 0.25485 0.3273 0.75345 0.0
H1229 H 0.18968 0.29524 0.75252 0.0
H1230 H 0.17921 0.31246 0.76811 0.0
H1231 H 0.17622 0.26278 0.76478 0.0
H1232 H 0.27467 0.19351 0.79332 0.0
H1233 H 0.25514 0.22594 0.81265 0.0
H1234 H 0.21253 0.31935 0.79037 0.0
C1235 C 0.2561 0.2441 0.74693 0.0
C1236 C 0.27352 0.21029 0.7428 0.0
C1237 C 0.28499 0.18351 0.75192 0.0
C1238 C 0.2797 0.19027 0.76484 0.0
C1239 C 0.26288 0.22397 0.76856 0.0
C1240 C 0.25107 0.25042 0.7599 0.0
C1241 C 0.23376 0.28433 0.76648 0.0
C1242 C 0.25628 0.32031 0.76366 0.0
C1243 C 0.19225 0.28896 0.76275 0.0
C1244 C 0.23771 0.27278 0.78023 0.0
C1245 C 0.25465 0.23784 0.78113 0.0
C1246 C 0.26131 0.22082 0.79272 0.0
C1247 C 0.25 0.23962 0.80368 0.0
C1248 C 0.23208 0.27533 0.80312 0.0
C1249 C 0.22625 0.29225 0.79117 0.0
H1250 H 0.94039 0.96509 0.04233 0.0
H1251 H 0.0361 0.0013 0.06471 0.0
H1252 H 0.06943 0.01992 0.0454 0.0
H1253 H 0.99381 0.9263 1.01679 0.0
H1254 H 0.96204 0.94191 1.00462 0.0
H1255 H 0.94457 0.93241 1.02024 0.0
H1256 H 0.91687 0.99976 1.02147 0.0
H1257 H 0.93403 0.00921 1.0058 0.0
H1258 H 0.94706 0.03968 1.01868 0.0
H1259 H 0.09378 0.0333 0.02364 0.0
H1260 H 0.10597 0.0422 1.00086 0.0
H1261 H 0.99504 0.99765 0.9925 0.0
C1262 C 0.96818 0.97728 0.04316 0.0
C1263 C 0.98551 0.98154 0.0551 0.0
C1264 C 0.02212 0.99743 0.05572 0.0
C1265 C 0.04141 0.0082 0.04479 0.0
C1266 C 0.02392 0.00302 0.03319 0.0
C1267 C 0.98807 0.98814 0.03227 0.0
C1268 C 0.97608 0.9852 1.01857 0.0
C1269 C 0.9687 0.944 1.01484 0.0
C1270 C 0.94146 0.00995 1.01598 0.0
C1271 C 0.0108 0.00058 1.01201 0.0
C1272 C 0.03807 0.0107 1.02061 0.0
C1273 C 0.07259 0.02553 1.01679 0.0
C1274 C 0.07932 0.03042 1.00383 0.0
C1275 C 0.05169 0.02048 0.99481 0.0
C1276 C 0.01705 0.00525 0.99906 0.0
H1277 H 0.2579 0.75436 0.30259 0.0
H1278 H 0.31502 0.64968 0.29352 0.0
H1279 H 0.3086 0.66385 0.27089 0.0
H1280 H 0.19063 0.74944 0.27679 0.0
H1281 H 0.19082 0.79946 0.27393 0.0
H1282 H 0.20016 0.78169 0.28953 0.0
H1283 H 0.26304 0.81807 0.28993 0.0
H1284 H 0.25419 0.83572 0.27428 0.0
H1285 H 0.29699 0.81042 0.27757 0.0
H1286 H 0.29889 0.68951 0.24961 0.0
H1287 H 0.28023 0.72139 0.23022 0.0
H1288 H 0.22566 0.80936 0.25213 0.0
C1289 C 0.26892 0.73433 0.29584 0.0
C1290 C 0.28715 0.70084 0.2999 0.0
C1291 C 0.30094 0.67539 0.29072 0.0
C1292 C 0.29759 0.6833 0.27782 0.0
C1293 C 0.28001 0.71664 0.27418 0.0
C1294 C 0.26537 0.74156 0.28286 0.0
C1295 C 0.2468 0.77482 0.27624 0.0
C1296 C 0.20459 0.77643 0.2793 0.0
C1297 C 0.26644 0.81196 0.27972 0.0
C1298 C 0.25349 0.76462 0.26247 0.0
C1299 C 0.2731 0.73109 0.26164 0.0
C1300 C 0.28325 0.71559 0.25012 0.0
C1301 C 0.2724 0.73418 0.23911 0.0
C1302 C 0.25104 0.768 0.23951 0.0
C1303 C 0.24194 0.7837 0.25144 0.0
H1304 H 0.77599 0.80835 0.7552 0.0
H1305 H 0.74828 0.71182 0.7318 0.0
H1306 H 0.72751 0.67704 0.7506 0.0
H1307 H 0.81207 0.75594 0.78138 0.0
H1308 H 0.79286 0.78687 0.79322 0.0
H1309 H 0.80456 0.80503 0.77785 0.0
H1310 H 0.73658 0.82992 0.77523 0.0
H1311 H 0.72487 0.81201 0.79063 0.0
H1312 H 0.6976 0.79796 0.77709 0.0
H1313 H 0.7113 0.65139 0.77216 0.0
H1314 H 0.69941 0.63821 0.79473 0.0
H1315 H 0.7369 0.75119 0.80407 0.0
C1316 C 0.76527 0.78004 0.75401 0.0
C1317 C 0.76392 0.76299 0.74195 0.0
C1318 C 0.74981 0.72569 0.74089 0.0
C1319 C 0.73788 0.70555 0.75154 0.0
C1320 C 0.74008 0.72291 0.76329 0.0
C1321 C 0.75324 0.75937 0.7646 0.0
C1322 C 0.75303 0.77122 0.77835 0.0
C1323 C 0.79301 0.78029 0.78297 0.0
C1324 C 0.72642 0.80476 0.78044 0.0
C1325 C 0.73795 0.73571 0.78452 0.0
C1326 C 0.73065 0.70815 0.77568 0.0
C1327 C 0.71684 0.67283 0.77917 0.0
C1328 C 0.71019 0.66555 0.79203 0.0
C1329 C 0.71736 0.69345 0.80128 0.0
C1330 C 0.73139 0.72897 0.79735 0.0
H1331 H 0.7443 0.26183 0.23982 0.0
H1332 H 0.70534 0.14986 0.24996 0.0
H1333 H 0.71919 0.16324 0.27225 0.0
H1334 H 0.8208 0.26617 0.26254 0.0
H1335 H 0.81407 0.31537 0.26605 0.0
H1336 H 0.80169 0.29725 0.25073 0.0
H1337 H 0.73434 0.32318 0.25339 0.0
H1338 H 0.74632 0.34123 0.26875 0.0
H1339 H 0.70698 0.30967 0.26697 0.0
H1340 H 0.73567 0.18794 0.29321 0.0
H1341 H 0.75544 0.22179 0.31209 0.0
H1342 H 0.78456 0.31938 0.2893 0.0
C1343 C 0.73884 0.24004 0.24672 0.0
C1344 C 0.72363 0.20467 0.24306 0.0
C1345 C 0.71689 0.17709 0.25244 0.0
C1346 C 0.72466 0.18445 0.26516 0.0
C1347 C 0.73925 0.21953 0.26843 0.0
C1348 C 0.74646 0.24693 0.25953 0.0
C1349 C 0.7621 0.28233 0.26575 0.0
C1350 C 0.80204 0.29076 0.26098 0.0
C1351 C 0.73586 0.31609 0.26358 0.0
C1352 C 0.76237 0.27047 0.27955 0.0
C1353 C 0.74901 0.23407 0.28075 0.0
C1354 C 0.74626 0.2164 0.29239 0.0
C1355 C 0.75763 0.23616 0.30312 0.0
C1356 C 0.77171 0.27356 0.30232 0.0
C1357 C 0.77394 0.29097 0.29029 0.0
H1358 H 0.78286 0.69473 0.24962 0.0
H1359 H 0.75063 0.78921 0.22598 0.0
H1360 H 0.73021 0.8243 0.24473 0.0
H1361 H 0.70571 0.70393 0.27218 0.0
H1362 H 0.73435 0.69159 0.28558 0.0
H1363 H 0.74554 0.67313 0.27021 0.0
H1364 H 0.81284 0.70033 0.27215 0.0
H1365 H 0.80159 0.71906 0.28747 0.0
H1366 H 0.81904 0.74983 0.27529 0.0
H1367 H 0.71437 0.85041 0.26607 0.0
H1368 H 0.70273 0.86456 0.28855 0.0
H1369 H 0.74486 0.75377 0.29859 0.0
C1370 C 0.77115 0.72262 0.24839 0.0
C1371 C 0.76855 0.73911 0.23625 0.0
C1372 C 0.75327 0.77589 0.23512 0.0
C1373 C 0.74147 0.79616 0.24574 0.0
C1374 C 0.74497 0.77947 0.25755 0.0
C1375 C 0.75926 0.74348 0.25897 0.0
C1376 C 0.76033 0.7325 0.27282 0.0
C1377 C 0.73496 0.69826 0.27534 0.0
C1378 C 0.80086 0.725 0.27719 0.0
C1379 C 0.74455 0.76793 0.27888 0.0
C1380 C 0.73588 0.79465 0.2699 0.0
C1381 C 0.721 0.82966 0.2732 0.0
C1382 C 0.71453 0.8375 0.28602 0.0
C1383 C 0.72296 0.81049 0.29543 0.0
C1384 C 0.7383 0.77529 0.29171 0.0
H1385 H 0.75991 0.25085 0.79868 0.0
H1386 H 0.79608 0.13701 0.79003 0.0
H1387 H 0.78354 0.14896 0.76738 0.0
H1388 H 0.68431 0.25526 0.77626 0.0
H1389 H 0.69239 0.30408 0.77249 0.0
H1390 H 0.70433 0.28639 0.7879 0.0
H1391 H 0.77249 0.31032 0.78506 0.0
H1392 H 0.76092 0.32795 0.76962 0.0
H1393 H 0.79934 0.29539 0.77154 0.0
H1394 H 0.76646 0.17364 0.74576 0.0
H1395 H 0.74651 0.20796 0.72675 0.0
H1396 H 0.72133 0.30624 0.74964 0.0
C1397 C 0.7649 0.22813 0.79211 0.0
C1398 C 0.77871 0.19273 0.79623 0.0
C1399 C 0.78542 0.16425 0.78716 0.0
C1400 C 0.77838 0.17083 0.77427 0.0
C1401 C 0.76473 0.20607 0.7706 0.0
C1402 C 0.75806 0.23422 0.77927 0.0
C1403 C 0.74345 0.26966 0.77294 0.0
C1404 C 0.70376 0.2794 0.77768 0.0
C1405 C 0.77069 0.30278 0.77491 0.0
C1406 C 0.74282 0.25713 0.75928 0.0
C1407 C 0.75521 0.22036 0.75816 0.0
C1408 C 0.75682 0.2024 0.74651 0.0
C1409 C 0.74532 0.22228 0.73576 0.0
C1410 C 0.73223 0.25999 0.73663 0.0
C1411 C 0.73127 0.2776 0.7486 0.0
H1412 H 0.00477 0.49368 0.55041 0.0
H1413 H 0.9015 0.55539 0.54333 0.0
H1414 H 0.91235 0.54947 0.52041 0.0
H1415 H 0.05854 0.53352 0.52519 0.0
H1416 H 0.08258 0.49036 0.52133 0.0
H1417 H 0.06667 0.49862 0.53723 0.0
H1418 H 0.02902 0.43636 0.5368 0.0
H1419 H 0.04505 0.42762 0.52095 0.0
H1420 H 0.99542 0.42827 0.52436 0.0
H1421 H 0.93502 0.53868 0.49842 0.0
H1422 H 0.96511 0.52001 0.47857 0.0
H1423 H 0.05404 0.4641 0.49952 0.0
C1424 C 0.98424 0.5058 0.54406 0.0
C1425 C 0.95217 0.5251 0.54874 0.0
C1426 C 0.92614 0.54043 0.54004 0.0
C1427 C 0.93217 0.53733 0.52699 0.0
C1428 C 0.9643 0.5187 0.52274 0.0
C1429 C 0.98975 0.50287 0.53099 0.0
C1430 C 0.02185 0.48404 0.52392 0.0
C1431 C 0.05965 0.50277 0.52711 0.0
C1432 C 0.02288 0.44155 0.52667 0.0
C1433 C 0.01048 0.49181 0.51035 0.0
C1434 C 0.97727 0.51203 0.50996 0.0
C1435 C 0.96091 0.52271 0.49861 0.0
C1436 C 0.97839 0.51189 0.48735 0.0
C1437 C 0.01204 0.49034 0.48739 0.0
C1438 C 0.02851 0.48064 0.49912 0.0
H1439 H 0.50013 0.51549 0.99064 0.0
H1440 H 0.38624 0.55074 0.99955 0.0
H1441 H 0.39806 0.53777 0.02202 0.0
H1442 H 0.50457 0.43923 1.01353 0.0
H1443 H 0.55315 0.44748 1.01749 0.0
H1444 H 0.53604 0.45908 1.00198 0.0
H1445 H 0.55971 0.52739 1.00474 0.0
H1446 H 0.57679 0.51615 1.02028 0.0
H1447 H 0.54432 0.55457 1.01814 0.0
H1448 H 0.42196 0.52343 0.04339 0.0
H1449 H 0.4552 0.50543 0.06266 0.0
H1450 H 0.55443 0.47747 0.04062 0.0
C1451 C 0.47758 0.52033 0.9973 0.0
C1452 C 0.44214 0.53427 0.99325 0.0
C1453 C 0.41353 0.54011 1.00233 0.0
C1454 C 0.42001 0.53287 1.01515 0.0
C1455 C 0.45522 0.51957 1.01881 0.0
C1456 C 0.48352 0.51305 1.01019 0.0
C1457 C 0.51875 0.49854 1.01677 0.0
C1458 C 0.5287 0.45871 1.01217 0.0
C1459 C 0.55184 0.5258 1.01487 0.0
C1460 C 0.50578 0.49816 0.03045 0.0
C1461 C 0.46904 0.51058 0.03132 0.0
C1462 C 0.45065 0.51345 0.04283 0.0
C1463 C 0.47001 0.50312 0.05377 0.0
C1464 C 0.50763 0.48976 0.05328 0.0
C1465 C 0.52576 0.48741 0.04138 0.0
H1466 H 0.98847 0.49478 0.05343 0.0
H1467 H 0.1003 0.53592 0.04444 0.0
H1468 H 0.08796 0.52448 1.02183 0.0
H1469 H 0.98545 0.42091 0.02993 0.0
H1470 H 0.93638 0.42781 0.02641 0.0
H1471 H 0.95411 0.43867 0.0419 0.0
H1472 H 0.92796 0.50633 0.03997 0.0
H1473 H 0.91031 0.49587 0.02444 0.0
H1474 H 0.94162 0.53518 0.02676 0.0
H1475 H 0.06342 0.50974 1.00029 0.0
H1476 H 0.02962 0.49082 0.98114 0.0
H1477 H 0.93282 0.45901 1.00376 0.0
C1478 C 0.01055 0.5012 0.04674 0.0
C1479 C 0.04552 0.51626 0.05078 0.0
C1480 C 0.0734 0.52435 0.04164 0.0
C1481 C 0.06659 0.518 0.02876 0.0
C1482 C 0.03175 0.50355 0.02513 0.0
C1483 C 0.00421 0.49509 0.03383 0.0
C1484 C 0.96911 0.47996 0.02739 0.0
C1485 C 0.96079 0.43943 0.03166 0.0
C1486 C 0.93525 0.50589 0.02978 0.0
C1487 C 0.98123 0.48122 1.01366 0.0
C1488 C 0.01747 0.495 1.01263 0.0
C1489 C 0.0351 0.49882 1.001 0.0
C1490 C 0.0155 0.4879 0.99014 0.0
C1491 C 0.97842 0.47319 0.99086 0.0
C1492 C 0.961 0.47019 1.00284 0.0
H1493 H 0.49031 0.49457 0.49079 0.0
H1494 H 0.59934 0.54366 0.49917 0.0
H1495 H 0.58765 0.53438 0.52191 0.0
H1496 H 0.44101 0.53561 0.5167 0.0
H1497 H 0.41206 0.4949 0.51966 0.0
H1498 H 0.42926 0.50402 0.50398 0.0
H1499 H 0.45951 0.43782 0.50322 0.0
H1500 H 0.44215 0.4283 0.51886 0.0
H1501 H 0.49161 0.42382 0.51551 0.0
H1502 H 0.56368 0.52148 0.54368 0.0
H1503 H 0.53064 0.50345 0.5631 0.0
H1504 H 0.4364 0.46263 0.5409 0.0
C1505 C 0.51197 0.50307 0.49738 0.0
C1506 C 0.5459 0.51983 0.49312 0.0
C1507 C 0.57323 0.53071 0.50213 0.0
C1508 C 0.56678 0.52563 0.51509 0.0
C1509 C 0.53286 0.50961 0.51894 0.0
C1510 C 0.50597 0.49828 0.51036 0.0
C1511 C 0.47174 0.4821 0.51702 0.0
C1512 C 0.43644 0.50557 0.51417 0.0
C1513 C 0.46593 0.44054 0.51344 0.0
C1514 C 0.48356 0.48616 0.53072 0.0
C1515 C 0.51892 0.50216 0.53156 0.0
C1516 C 0.53606 0.50882 0.54313 0.0
C1517 C 0.51691 0.49843 0.55414 0.0
C1518 C 0.48078 0.48145 0.55361 0.0
C1519 C 0.46383 0.47562 0.54168 0.0
H1520 H 0.57249 0.93499 0.07891 0.0
H1521 H 0.58431 0.04154 0.09868 0.0
H1522 H 0.65252 0.03995 0.0951 0.0
H1523 H 0.65795 0.89365 0.09153 0.0
H1524 H 0.66882 0.86894 0.07713 0.0
H1525 H 0.62067 0.87889 0.08113 0.0
H1526 H 0.61233 0.91233 0.05957 0.0
H1527 H 0.66079 0.90336 0.05566 0.0
H1528 H 0.64296 0.95085 0.05546 0.0
H1529 H 0.71824 0.02899 0.08867 0.0
H1530 H 0.78028 0.00291 0.08358 0.0
H1531 H 0.72775 0.90175 0.06893 0.0
C1532 C 0.58951 0.95773 0.08261 0.0
C1533 C 0.57303 0.98846 0.08901 0.0
C1534 C 0.59625 0.01762 0.09378 0.0
C1535 C 0.63501 0.01722 0.09167 0.0
C1536 C 0.65017 0.98727 0.08494 0.0
C1537 C 0.62845 0.95753 0.08077 0.0
C1538 C 0.65237 0.92782 0.0744 0.0
C1539 C 0.64981 0.8901 0.08147 0.0
C1540 C 0.64145 0.92334 0.06045 0.0
C1541 C 0.69093 0.94551 0.07574 0.0
C1542 C 0.68874 0.98022 0.08158 0.0
C1543 C 0.72042 0.00192 0.08404 0.0
C1544 C 0.75557 0.98705 0.08095 0.0
C1545 C 0.75872 0.95071 0.07558 0.0
C1546 C 0.72594 0.92997 0.07276 0.0
H1547 H 0.29073 0.49485 0.33892 0.0
H1548 H 0.40511 0.48302 0.32552 0.0
H1549 H 0.39988 0.41361 0.32738 0.0
H1550 H 0.29651 0.42588 0.36207 0.0
H1551 H 0.24922 0.4086 0.36017 0.0
H1552 H 0.26012 0.45672 0.35631 0.0
H1553 H 0.23432 0.44747 0.33365 0.0
H1554 H 0.22233 0.39959 0.33754 0.0
H1555 H 0.25188 0.40928 0.32412 0.0
H1556 H 0.38276 0.34606 0.33175 0.0
H1557 H 0.35421 0.28488 0.33737 0.0
H1558 H 0.25223 0.34243 0.34894 0.0
C1559 C 0.31404 0.47751 0.33585 0.0
C1560 C 0.34785 0.49376 0.33164 0.0
C1561 C 0.37871 0.4706 0.32846 0.0
C1562 C 0.37603 0.43136 0.32955 0.0
C1563 C 0.34249 0.41613 0.33403 0.0
C1564 C 0.31197 0.43848 0.33706 0.0
C1565 C 0.28002 0.4155 0.34242 0.0
C1566 C 0.27096 0.4274 0.35605 0.0
C1567 C 0.24508 0.41811 0.33393 0.0
C1568 C 0.29734 0.3767 0.34199 0.0
C1569 C 0.3333 0.37758 0.33708 0.0
C1570 C 0.35462 0.345 0.3356 0.0
C1571 C 0.33827 0.31045 0.33888 0.0
C1572 C 0.30115 0.30896 0.34367 0.0
C1573 C 0.28084 0.34266 0.34547 0.0
H1574 H 0.78621 0.11246 0.57419 0.0
H1575 H 0.72882 0.02706 0.59619 0.0
H1576 H 0.78886 0.0043 0.60432 0.0
H1577 H 0.86062 0.05158 0.56467 0.0
H1578 H 0.89638 0.08751 0.56506 0.0
H1579 H 0.84827 0.10017 0.56203 0.0
H1580 H 0.85059 0.14716 0.58076 0.0
H1581 H 0.89857 0.134 0.58398 0.0
H1582 H 0.86357 0.13048 0.59622 0.0
H1583 H 0.85342 0.98915 0.60967 0.0
H1584 H 0.9209 0.97468 0.6091 0.0
H1585 H 0.9386 0.06678 0.58277 0.0
C1586 C 0.78655 0.08901 0.58072 0.0
C1587 C 0.75295 0.07153 0.58459 0.0
C1588 C 0.75416 0.04079 0.59307 0.0
C1589 C 0.78816 0.02789 0.59787 0.0
C1590 C 0.82078 0.04583 0.59399 0.0
C1591 C 0.82056 0.07511 0.5854 0.0
C1592 C 0.86014 0.08634 0.58179 0.0
C1593 C 0.86673 0.08106 0.56755 0.0
C1594 C 0.86871 0.12691 0.58594 0.0
C1595 C 0.88231 0.05814 0.5895 0.0
C1596 C 0.85891 0.03583 0.59672 0.0
C1597 C 0.87224 0.00645 0.60412 0.0
C1598 C 0.91056 0.99846 0.60373 0.0
C1599 C 0.93477 0.01948 0.59582 0.0
C1600 C 0.92071 0.0505 0.58898 0.0
H1601 H 0.22457 0.49993 0.83173 0.0
H1602 H 0.11849 0.51159 0.81209 0.0
H1603 H 0.12545 0.58097 0.81248 0.0
H1604 H 0.21006 0.57196 0.85258 0.0
H1605 H 0.2579 0.5886 0.8531 0.0
H1606 H 0.24835 0.54012 0.84938 0.0
H1607 H 0.285 0.54608 0.82835 0.0
H1608 H 0.29569 0.59435 0.83218 0.0
H1609 H 0.27301 0.58311 0.81745 0.0
H1610 H 0.14093 0.6484 0.81697 0.0
H1611 H 0.1656 0.70977 0.82409 0.0
H1612 H 0.26048 0.65325 0.84157 0.0
C1613 C 0.20387 0.51708 0.82693 0.0
C1614 C 0.17172 0.50078 0.82144 0.0
C1615 C 0.14379 0.52392 0.816 0.0
C1616 C 0.14744 0.56319 0.81625 0.0
C1617 C 0.17897 0.57855 0.82211 0.0
C1618 C 0.2069 0.55623 0.82724 0.0
C1619 C 0.23617 0.57961 0.834 0.0
C1620 C 0.23821 0.56945 0.8481 0.0
C1621 C 0.27475 0.57555 0.82761 0.0
C1622 C 0.22 0.61851 0.83206 0.0
C1623 C 0.18717 0.61734 0.82511 0.0
C1624 C 0.16679 0.64974 0.82232 0.0
C1625 C 0.18089 0.6844 0.82649 0.0
C1626 C 0.21488 0.68626 0.83342 0.0
C1627 C 0.23431 0.65276 0.83636 0.0
H1628 H 0.74242 0.01861 0.46407 0.0
H1629 H 0.72491 0.12775 0.48134 0.0
H1630 H 0.65639 0.12115 0.47819 0.0
H1631 H 0.67849 0.02929 0.44032 0.0
H1632 H 0.66118 0.9816 0.44011 0.0
H1633 H 0.70809 0.99122 0.44558 0.0
H1634 H 0.69393 0.95878 0.46693 0.0
H1635 H 0.6473 0.94787 0.46138 0.0
H1636 H 0.65349 0.97325 0.47596 0.0
H1637 H 0.59186 0.10676 0.4707 0.0
H1638 H 0.53298 0.08176 0.46188 0.0
H1639 H 0.59201 0.98147 0.44932 0.0
C1640 C 0.72396 0.04007 0.46783 0.0
C1641 C 0.73859 0.07313 0.47336 0.0
C1642 C 0.71389 0.10183 0.47742 0.0
C1643 C 0.67507 0.09843 0.47557 0.0
C1644 C 0.6616 0.06621 0.46959 0.0
C1645 C 0.68512 0.03716 0.466 0.0
C1646 C 0.66368 0.00686 0.45894 0.0
C1647 C 0.67877 0.00198 0.44544 0.0
C1648 C 0.66465 0.96947 0.46624 0.0
C1649 C 0.62462 0.02381 0.45892 0.0
C1650 C 0.62415 0.05806 0.4651 0.0
C1651 C 0.59171 0.07971 0.466 0.0
C1652 C 0.55845 0.06537 0.46085 0.0
C1653 C 0.55779 0.0296 0.45492 0.0
C1654 C 0.59158 0.00894 0.45374 0.0
H1655 H 0.21561 0.34499 0.69096 0.0
H1656 H 0.17697 0.30709 0.72765 0.0
H1657 H 0.15936 0.3722 0.73314 0.0
H1658 H 0.25515 0.43105 0.70075 0.0
H1659 H 0.23998 0.45756 0.68718 0.0
H1660 H 0.24814 0.4077 0.68583 0.0
H1661 H 0.18041 0.39798 0.67744 0.0
H1662 H 0.17224 0.44791 0.67859 0.0
H1663 H 0.14118 0.41544 0.68647 0.0
H1664 H 0.15177 0.44254 0.73542 0.0
H1665 H 0.14628 0.51193 0.73301 0.0
H1666 H 0.18562 0.50297 0.69447 0.0
C1667 C 0.20285 0.35034 0.70006 0.0
C1668 C 0.19758 0.32101 0.70886 0.0
C1669 C 0.1809 0.32907 0.72069 0.0
C1670 C 0.17106 0.36602 0.72395 0.0
C1671 C 0.17746 0.39447 0.71518 0.0
C1672 C 0.19221 0.38696 0.70337 0.0
C1673 C 0.19598 0.42259 0.69565 0.0
C1674 C 0.23727 0.43015 0.69215 0.0
C1675 C 0.17095 0.42087 0.68384 0.0
C1676 C 0.1816 0.4513 0.70502 0.0
C1677 C 0.17147 0.43464 0.71629 0.0
C1678 C 0.15906 0.45585 0.72658 0.0
C1679 C 0.15623 0.49507 0.72518 0.0
C1680 C 0.16524 0.51223 0.71356 0.0
C1681 C 0.17821 0.49015 0.70341 0.0
H1682 H 0.75452 0.91912 0.98022 0.0
H1683 H 0.72957 0.90176 0.94063 0.0
H1684 H 0.79592 0.91401 0.9352 0.0
H1685 H 0.82125 0.99364 0.97618 0.0
H1686 H 0.85216 0.97776 0.98856 0.0
H1687 H 0.80268 0.9674 0.98933 0.0
H1688 H 0.81784 0.89625 0.99132 0.0
H1689 H 0.86738 0.90648 0.99047 0.0
H1690 H 0.84654 0.87385 0.97948 0.0
H1691 H 0.86372 0.93138 0.93391 0.0
H1692 H 0.92985 0.95093 0.93701 0.0
H1693 H 0.91202 0.95298 0.9775 0.0
C1694 C 0.76329 0.91783 0.97045 0.0
C1695 C 0.73734 0.90942 0.96082 0.0
C1696 C 0.74939 0.9079 0.94811 0.0
C1697 C 0.78689 0.91485 0.94494 0.0
C1698 C 0.81203 0.9228 0.95462 0.0
C1699 C 0.80091 0.92408 0.96713 0.0
C1700 C 0.8338 0.93318 0.97566 0.0
C1701 C 0.82706 0.9702 0.98285 0.0
C1702 C 0.84186 0.90048 0.98477 0.0
C1703 C 0.86483 0.93734 0.96598 0.0
C1704 C 0.85165 0.93137 0.9539 0.0
C1705 C 0.87458 0.93566 0.94333 0.0
C1706 C 0.912 0.94676 0.94516 0.0
C1707 C 0.92605 0.95292 0.95747 0.0
C1708 C 0.90223 0.94765 0.96799 0.0
H1709 H 0.26107 0.64909 0.19471 0.0
H1710 H 0.36569 0.70105 0.20663 0.0
H1711 H 0.3902 0.63848 0.21273 0.0
H1712 H 0.25516 0.58422 0.21987 0.0
H1713 H 0.23556 0.54675 0.21047 0.0
H1714 H 0.2271 0.59507 0.20619 0.0
H1715 H 0.25447 0.58326 0.18387 0.0
H1716 H 0.26198 0.53467 0.18796 0.0
H1717 H 0.30061 0.56284 0.18231 0.0
H1718 H 0.40289 0.57004 0.21749 0.0
H1719 H 0.40375 0.50051 0.21957 0.0
H1720 H 0.28933 0.49532 0.20574 0.0
C1721 C 0.28945 0.64735 0.19836 0.0
C1722 C 0.31164 0.67987 0.20011 0.0
C1723 C 0.34835 0.67639 0.20513 0.0
C1724 C 0.36238 0.64106 0.2087 0.0
C1725 C 0.33917 0.60975 0.20726 0.0
C1726 C 0.30359 0.61257 0.20213 0.0
C1727 C 0.28385 0.57492 0.20182 0.0
C1728 C 0.24832 0.57529 0.21008 0.0
C1729 C 0.27472 0.56323 0.18818 0.0
C1730 C 0.314 0.5503 0.20749 0.0
C1731 C 0.34573 0.57085 0.21058 0.0
C1732 C 0.37805 0.55373 0.21529 0.0
C1733 C 0.37824 0.51444 0.21652 0.0
C1734 C 0.34614 0.4931 0.21325 0.0
C1735 C 0.31353 0.51129 0.20888 0.0
H1736 H 0.4039 0.01377 0.9422 0.0
H1737 H 0.45711 0.1135 0.95778 0.0
H1738 H 0.39461 0.13998 0.96267 0.0
H1739 H 0.32172 0.06124 0.92856 0.0
H1740 H 0.29076 0.02286 0.93254 0.0
H1741 H 0.33958 0.01379 0.92925 0.0
H1742 H 0.34586 0.9806 0.95091 0.0
H1743 H 0.29731 0.99036 0.9544 0.0
H1744 H 0.33359 0.00585 0.96508 0.0
H1745 H 0.32622 0.15405 0.96684 0.0
H1746 H 0.25685 0.15569 0.96903 0.0
H1747 H 0.24936 0.04636 0.95107 0.0
C1748 C 0.40248 0.04158 0.94636 0.0
C1749 C 0.43541 0.06166 0.94955 0.0
C1750 C 0.43225 0.09769 0.95519 0.0
C1751 C 0.39688 0.1129 0.95805 0.0
C1752 C 0.36504 0.09173 0.95519 0.0
C1753 C 0.3675 0.05702 0.94936 0.0
C1754 C 0.32914 0.03926 0.94774 0.0
C1755 C 0.31975 0.034 0.93369 0.0
C1756 C 0.32634 0.0018 0.95497 0.0
C1757 C 0.30474 0.0692 0.9537 0.0
C1758 C 0.32591 0.09932 0.95792 0.0
C1759 C 0.30939 0.13056 0.96363 0.0
C1760 C 0.27014 0.13119 0.96489 0.0
C1761 C 0.24812 0.10056 0.96064 0.0
C1762 C 0.26569 0.06931 0.95495 0.0
H1763 H 0.69575 0.67398 0.70945 0.0
H1764 H 0.8027 0.65814 0.6904 0.0
H1765 H 0.80301 0.59152 0.69692 0.0
H1766 H 0.71531 0.61471 0.73594 0.0
H1767 H 0.66826 0.59614 0.73692 0.0
H1768 H 0.67607 0.64276 0.73074 0.0
H1769 H 0.64154 0.62492 0.70999 0.0
H1770 H 0.63276 0.57872 0.71629 0.0
H1771 H 0.65638 0.58381 0.70135 0.0
H1772 H 0.79271 0.52761 0.70592 0.0
H1773 H 0.76685 0.4675 0.71307 0.0
H1774 H 0.66649 0.52451 0.72636 0.0
C1775 C 0.71898 0.65642 0.70647 0.0
C1776 C 0.74927 0.67133 0.69946 0.0
C1777 C 0.77915 0.64735 0.69577 0.0
C1778 C 0.77982 0.6096 0.69955 0.0
C1779 C 0.75039 0.59634 0.70697 0.0
C1780 C 0.72014 0.61874 0.71016 0.0
C1781 C 0.69141 0.59715 0.71779 0.0
C1782 C 0.68754 0.61368 0.73114 0.0
C1783 C 0.65328 0.59607 0.71094 0.0
C1784 C 0.70984 0.55878 0.71812 0.0
C1785 C 0.74425 0.55922 0.71209 0.0
C1786 C 0.7659 0.52689 0.71073 0.0
C1787 C 0.75103 0.49274 0.715 0.0
C1788 C 0.71466 0.49116 0.72043 0.0
C1789 C 0.69458 0.52492 0.72243 0.0
H1790 H 0.06394 0.93229 0.4598 0.0
H1791 H 0.07979 0.04191 0.4424 0.0
H1792 H 0.14618 0.04144 0.4489 0.0
H1793 H 0.1231 0.94724 0.4864 0.0
H1794 H 0.14241 0.90033 0.48652 0.0
H1795 H 0.09585 0.90839 0.4804 0.0
H1796 H 0.11438 0.87774 0.45909 0.0
H1797 H 0.16062 0.86863 0.46526 0.0
H1798 H 0.15524 0.8947 0.45079 0.0
H1799 H 0.20922 0.03132 0.45837 0.0
H1800 H 0.26887 0.0067 0.46613 0.0
H1801 H 0.21401 0.90208 0.47671 0.0
C1802 C 0.08151 0.95591 0.45717 0.0
C1803 C 0.06654 0.98721 0.45064 0.0
C1804 C 0.09053 0.01756 0.44738 0.0
C1805 C 0.12822 0.01777 0.45115 0.0
C1806 C 0.14161 0.98727 0.45804 0.0
C1807 C 0.11936 0.95645 0.46074 0.0
C1808 C 0.14128 0.92669 0.46786 0.0
C1809 C 0.12466 0.9203 0.48108 0.0
C1810 C 0.14299 0.88976 0.4603 0.0
C1811 C 0.17943 0.94554 0.46862 0.0
C1812 C 0.17863 0.9808 0.46315 0.0
C1813 C 0.2103 0.00365 0.46263 0.0
C1814 C 0.24426 0.98936 0.46724 0.0
C1815 C 0.24651 0.95225 0.47211 0.0
C1816 C 0.21325 0.93062 0.47313 0.0
H1817 H 0.8387 0.47885 0.22808 0.0
H1818 H 0.74319 0.53102 0.20967 0.0
H1819 H 0.7185 0.46874 0.20409 0.0
H1820 H 0.85504 0.41183 0.20622 0.0
H1821 H 0.86682 0.37358 0.21666 0.0
H1822 H 0.87403 0.42144 0.22165 0.0
H1823 H 0.83233 0.41086 0.24138 0.0
H1824 H 0.82613 0.36245 0.23672 0.0
H1825 H 0.78569 0.39182 0.2395 0.0
H1826 H 0.71069 0.4032 0.19697 0.0
H1827 H 0.7127 0.33541 0.19236 0.0
H1828 H 0.81236 0.32422 0.21578 0.0
C1829 C 0.81167 0.47691 0.22343 0.0
C1830 C 0.79229 0.50964 0.21963 0.0
C1831 C 0.75774 0.50636 0.21312 0.0
C1832 C 0.74373 0.47104 0.20973 0.0
C1833 C 0.76446 0.43939 0.21306 0.0
C1834 C 0.79707 0.44175 0.2201 0.0
C1835 C 0.81506 0.40339 0.22172 0.0
C1836 C 0.8551 0.40255 0.21623 0.0
C1837 C 0.81477 0.39142 0.23566 0.0
C1838 C 0.78842 0.37957 0.21397 0.0
C1839 C 0.7595 0.40097 0.20907 0.0
C1840 C 0.73263 0.38588 0.201 0.0
C1841 C 0.73433 0.3474 0.19832 0.0
C1842 C 0.76255 0.32444 0.20379 0.0
C1843 C 0.79036 0.34099 0.2115 0.0
H1844 H 0.28492 0.90106 0.56519 0.0
H1845 H 0.23281 0.99051 0.58691 0.0
H1846 H 0.29423 0.00994 0.59483 0.0
H1847 H 0.35064 0.87404 0.58681 0.0
H1848 H 0.38949 0.86698 0.57616 0.0
H1849 H 0.34201 0.86208 0.57054 0.0
H1850 H 0.35364 0.91218 0.55316 0.0
H1851 H 0.40167 0.916 0.55839 0.0
H1852 H 0.37261 0.95745 0.55749 0.0
H1853 H 0.35771 0.01237 0.60338 0.0
H1854 H 0.42546 0.01085 0.60758 0.0
H1855 H 0.43908 0.92314 0.5793 0.0
C1856 C 0.2868 0.92564 0.5712 0.0
C1857 C 0.25419 0.94447 0.57535 0.0
C1858 C 0.25734 0.97609 0.5834 0.0
C1859 C 0.29215 0.98711 0.5881 0.0
C1860 C 0.32347 0.96664 0.58443 0.0
C1861 C 0.32159 0.93763 0.57577 0.0
C1862 C 0.35996 0.92046 0.57353 0.0
C1863 C 0.36052 0.8784 0.57697 0.0
C1864 C 0.37272 0.92693 0.55983 0.0
C1865 C 0.3831 0.94342 0.5827 0.0
C1866 C 0.36122 0.96947 0.58898 0.0
C1867 C 0.37551 0.99285 0.59831 0.0
C1868 C 0.41396 0.99143 0.60071 0.0
C1869 C 0.43759 0.96735 0.59359 0.0
C1870 C 0.42173 0.94196 0.58484 0.0
H1871 H 0.83271 0.52326 0.30825 0.0
H1872 H 0.82781 0.48859 0.3474 0.0
H1873 H 0.8124 0.55347 0.35379 0.0
H1874 H 0.87656 0.61337 0.31419 0.0
H1875 H 0.85067 0.63795 0.30212 0.0
H1876 H 0.86034 0.58841 0.30042 0.0
H1877 H 0.78917 0.57487 0.29776 0.0
H1878 H 0.77946 0.62441 0.29931 0.0
H1879 H 0.75672 0.59113 0.30963 0.0
H1880 H 0.79676 0.62106 0.35602 0.0
H1881 H 0.78041 0.68834 0.35384 0.0
H1882 H 0.79844 0.68077 0.31342 0.0
C1883 C 0.82803 0.52954 0.31812 0.0
C1884 C 0.83079 0.50118 0.32735 0.0
C1885 C 0.82511 0.51006 0.34022 0.0
C1886 C 0.81664 0.5468 0.34394 0.0
C1887 C 0.8144 0.57437 0.33467 0.0
C1888 C 0.81988 0.56637 0.32203 0.0
C1889 C 0.81604 0.60158 0.31407 0.0
C1890 C 0.85312 0.61087 0.3073 0.0
C1891 C 0.7834 0.59776 0.30464 0.0
C1892 C 0.80731 0.63034 0.32423 0.0
C1893 C 0.80652 0.61398 0.33603 0.0
C1894 C 0.79755 0.63438 0.34684 0.0
C1895 C 0.78837 0.6725 0.34553 0.0
C1896 C 0.78857 0.68974 0.3335 0.0
C1897 C 0.79879 0.66848 0.32276 0.0
H1898 H 0.10449 0.98495 0.09897 0.0
H1899 H 0.03821 0.08436 0.09032 0.0
H1900 H 0.09506 0.11652 0.08267 0.0
H1901 H 0.18798 0.03573 0.10968 0.0
H1902 H 0.21974 0.00162 0.10299 0.0
H1903 H 0.17381 0.98718 0.10823 0.0
H1904 H 0.16072 0.95947 0.08603 0.0
H1905 H 0.20621 0.97482 0.08063 0.0
H1906 H 0.16441 0.98947 0.07238 0.0
H1907 H 0.15809 0.1372 0.07523 0.0
H1908 H 0.22557 0.14791 0.07097 0.0
H1909 H 0.25072 0.03558 0.08459 0.0
C1910 C 0.10205 0.01372 0.0957 0.0
C1911 C 0.0669 0.0321 0.09522 0.0
C1912 C 0.06485 0.06968 0.09077 0.0
C1913 C 0.09692 0.08814 0.08632 0.0
C1914 C 0.13083 0.06872 0.08645 0.0
C1915 C 0.13383 0.03265 0.09123 0.0
C1916 C 0.17382 0.01835 0.09039 0.0
C1917 C 0.18978 0.01026 0.10361 0.0
C1918 C 0.17642 0.98346 0.08185 0.0
C1919 C 0.1927 0.05204 0.08438 0.0
C1920 C 0.16732 0.08064 0.08208 0.0
C1921 C 0.17827 0.11498 0.07692 0.0
C1922 C 0.21649 0.12072 0.07446 0.0
C1923 C 0.24308 0.09223 0.07712 0.0
C1924 C 0.23089 0.05728 0.08196 0.0
H1925 H 0.65177 0.48684 0.81943 0.0
H1926 H 0.63042 0.49384 0.85967 0.0
H1927 H 0.645 0.4265 0.8619 0.0
H1928 H 0.61586 0.38914 0.81516 0.0
H1929 H 0.65199 0.37773 0.80388 0.0
H1930 H 0.63484 0.42535 0.8051 0.0
H1931 H 0.70285 0.44914 0.80878 0.0
H1932 H 0.72013 0.40169 0.80761 0.0
H1933 H 0.73024 0.42936 0.82145 0.0
H1934 H 0.67092 0.36188 0.86046 0.0
H1935 H 0.70255 0.30211 0.85499 0.0
H1936 H 0.70553 0.33592 0.81568 0.0
C1937 C 0.64986 0.47411 0.82868 0.0
C1938 C 0.64036 0.49562 0.83939 0.0
C1939 C 0.63746 0.47782 0.85131 0.0
C1940 C 0.64574 0.43958 0.85269 0.0
C1941 C 0.65628 0.41941 0.84203 0.0
C1942 C 0.65786 0.43583 0.83021 0.0
C1943 C 0.6723 0.40833 0.82045 0.0
C1944 C 0.64193 0.39962 0.81056 0.0
C1945 C 0.70853 0.42301 0.81421 0.0
C1946 C 0.67996 0.37449 0.82874 0.0
C1947 C 0.6703 0.38141 0.84114 0.0
C1948 C 0.67785 0.3557 0.85074 0.0
C1949 C 0.69598 0.32201 0.84757 0.0
C1950 C 0.70603 0.31442 0.83492 0.0
C1951 C 0.69738 0.34074 0.82539 0.0
H1952 H 0.09919 0.49444 0.59085 0.0
H1953 H 0.04626 0.4043 0.56959 0.0
H1954 H 0.10848 0.38428 0.56177 0.0
H1955 H 0.16842 0.51814 0.56772 0.0
H1956 H 0.20479 0.52759 0.57912 0.0
H1957 H 0.15619 0.53472 0.58325 0.0
H1958 H 0.16315 0.48985 0.60242 0.0
H1959 H 0.21196 0.48353 0.59855 0.0
H1960 H 0.1816 0.44313 0.60002 0.0
H1961 H 0.17645 0.37331 0.55672 0.0
H1962 H 0.24593 0.36925 0.55622 0.0
H1963 H 0.25321 0.46794 0.5801 0.0
C1964 C 0.10063 0.47022 0.58466 0.0
C1965 C 0.06791 0.45086 0.58085 0.0
C1966 C 0.07102 0.41945 0.57268 0.0
C1967 C 0.10617 0.40807 0.5681 0.0
C1968 C 0.13773 0.42854 0.57174 0.0
C1969 C 0.13532 0.4587 0.57994 0.0
C1970 C 0.1735 0.47555 0.5826 0.0
C1971 C 0.17584 0.51642 0.57789 0.0
C1972 C 0.18312 0.47282 0.59673 0.0
C1973 C 0.19789 0.44979 0.57476 0.0
C1974 C 0.17673 0.42303 0.56849 0.0
C1975 C 0.19331 0.39449 0.56139 0.0
C1976 C 0.23262 0.39253 0.56108 0.0
C1977 C 0.25459 0.41916 0.5677 0.0
C1978 C 0.23702 0.44852 0.57439 0.0
H1979 H 0.83499 0.98401 0.81669 0.0
H1980 H 0.86872 0.00134 0.85555 0.0
H1981 H 0.85242 0.93537 0.8605 0.0
H1982 H 0.75685 0.92583 0.82268 0.0
H1983 H 0.76444 0.89497 0.80942 0.0
H1984 H 0.78056 0.94297 0.80879 0.0
H1985 H 0.8481 0.91983 0.80389 0.0
H1986 H 0.8321 0.87172 0.80449 0.0
H1987 H 0.87047 0.88678 0.81438 0.0
H1988 H 0.82602 0.87017 0.86173 0.0
H1989 H 0.79671 0.80755 0.8586 0.0
H1990 H 0.78504 0.83099 0.81865 0.0
C1991 C 0.83924 0.97364 0.82618 0.0
C1992 C 0.853 0.99743 0.83576 0.0
C1993 C 0.85845 0.98321 0.84808 0.0
C1994 C 0.84918 0.94591 0.85099 0.0
C1995 C 0.83522 0.92315 0.84139 0.0
C1996 C 0.83084 0.93622 0.82919 0.0
C1997 C 0.81495 0.90599 0.82066 0.0
C1998 C 0.77695 0.91817 0.81506 0.0
C1999 C 0.84309 0.89546 0.81024 0.0
C2000 C 0.81024 0.87426 0.83005 0.0
C2001 C 0.82187 0.88479 0.84198 0.0
C2002 C 0.81751 0.86124 0.8524 0.0
C2003 C 0.80078 0.82592 0.85056 0.0
C2004 C 0.78932 0.8145 0.83839 0.0
C2005 C 0.79447 0.83881 0.82801 0.0
H2006 H 0.24471 0.53905 0.09165 0.0
H2007 H 0.25309 0.65433 0.07863 0.0
H2008 H 0.32242 0.65166 0.08102 0.0
H2009 H 0.31408 0.54582 0.11515 0.0
H2010 H 0.33228 0.49898 0.11283 0.0
H2011 H 0.28386 0.50907 0.10925 0.0
H2012 H 0.29287 0.48478 0.08637 0.0
H2013 H 0.34104 0.47365 0.09 0.0
H2014 H 0.33024 0.50387 0.07683 0.0
H2015 H 0.3905 0.63604 0.08516 0.0
H2016 H 0.45257 0.60792 0.08971 0.0
H2017 H 0.39797 0.50375 0.10084 0.0
C2018 C 0.2613 0.56319 0.08884 0.0
C2019 C 0.2441 0.59645 0.08451 0.0
C2020 C 0.26625 0.62837 0.08167 0.0
C2021 C 0.30542 0.62714 0.08308 0.0
C2022 C 0.32157 0.59397 0.08754 0.0
C2023 C 0.30019 0.56254 0.09032 0.0
C2024 C 0.32406 0.53077 0.09536 0.0
C2025 C 0.31289 0.52058 0.10895 0.0
C2026 C 0.32193 0.49624 0.08662 0.0
C2027 C 0.36234 0.5491 0.0949 0.0
C2028 C 0.36037 0.58555 0.09039 0.0
C2029 C 0.39239 0.60758 0.08874 0.0
C2030 C 0.42746 0.59144 0.09141 0.0
C2031 C 0.43004 0.55377 0.0957 0.0
C2032 C 0.39692 0.53279 0.09775 0.0
H2033 H 0.70367 0.18141 0.32436 0.0
H2034 H 0.72541 0.18146 0.3646 0.0
H2035 H 0.69885 0.11708 0.36617 0.0
H2036 H 0.61737 0.12623 0.32443 0.0
H2037 H 0.62974 0.10056 0.31036 0.0
H2038 H 0.64679 0.14786 0.31263 0.0
H2039 H 0.71519 0.12457 0.3097 0.0
H2040 H 0.69845 0.07721 0.30744 0.0
H2041 H 0.73266 0.08705 0.31953 0.0
H2042 H 0.67085 0.05342 0.36327 0.0
H2043 H 0.64873 0.99139 0.35604 0.0
H2044 H 0.65037 0.03028 0.31727 0.0
C2045 C 0.70213 0.16805 0.33353 0.0
C2046 C 0.71578 0.18631 0.34444 0.0
C2047 C 0.71465 0.16779 0.35621 0.0
C2048 C 0.69957 0.13142 0.35717 0.0
C2049 C 0.68655 0.11402 0.34621 0.0
C2050 C 0.68814 0.13148 0.33458 0.0
C2051 C 0.67538 0.10537 0.32411 0.0
C2052 C 0.64022 0.12094 0.31749 0.0
C2053 C 0.70733 0.09813 0.31464 0.0
C2054 C 0.66633 0.07038 0.33167 0.0
C2055 C 0.67241 0.07632 0.34441 0.0
C2056 C 0.66596 0.04843 0.35333 0.0
C2057 C 0.65327 0.01339 0.34913 0.0
C2058 C 0.64775 0.00632 0.33611 0.0
C2059 C 0.65431 0.03517 0.32726 0.0
H2060 H 0.24166 0.52976 0.95806 0.0
H2061 H 0.21941 0.64747 0.96578 0.0
H2062 H 0.15126 0.63612 0.96309 0.0
H2063 H 0.17763 0.52037 0.93391 0.0
H2064 H 0.16275 0.4732 0.9377 0.0
H2065 H 0.20913 0.48883 0.94201 0.0
H2066 H 0.19659 0.47231 0.96546 0.0
H2067 H 0.15059 0.45543 0.96116 0.0
H2068 H 0.15549 0.49099 0.97318 0.0
H2069 H 0.08708 0.61327 0.95767 0.0
H2070 H 0.02929 0.57903 0.95191 0.0
H2071 H 0.09406 0.47636 0.94718 0.0
C2072 C 0.22223 0.55267 0.95977 0.0
C2073 C 0.23528 0.58921 0.96252 0.0
C2074 C 0.20949 0.61914 0.96397 0.0
C2075 C 0.17093 0.61299 0.96238 0.0
C2076 C 0.159 0.57684 0.95924 0.0
C2077 C 0.18377 0.54706 0.95812 0.0
C2078 C 0.164 0.51156 0.95388 0.0
C2079 C 0.1793 0.4977 0.94112 0.0
C2080 C 0.16682 0.48076 0.96403 0.0
C2081 C 0.12429 0.52617 0.95263 0.0
C2082 C 0.12205 0.56386 0.95578 0.0
C2083 C 0.08837 0.58367 0.95529 0.0
C2084 C 0.0558 0.56404 0.95193 0.0
C2085 C 0.05727 0.5251 0.94909 0.0
C2086 C 0.09213 0.5062 0.94918 0.0
H2087 H 0.63681 0.97514 0.20548 0.0
H2088 H 0.71997 0.00496 0.23374 0.0
H2089 H 0.75315 0.94527 0.22972 0.0
H2090 H 0.6367 0.87181 0.21339 0.0
H2091 H 0.62905 0.85937 0.19711 0.0
H2092 H 0.61007 0.90266 0.20327 0.0
H2093 H 0.64412 0.93928 0.1855 0.0
H2094 H 0.66427 0.89641 0.17951 0.0
H2095 H 0.69439 0.93508 0.18389 0.0
H2096 H 0.78288 0.88885 0.21986 0.0
H2097 H 0.80013 0.83092 0.20841 0.0
H2098 H 0.69404 0.83407 0.18829 0.0
C2099 C 0.66133 0.96873 0.21113 0.0
C2100 C 0.67682 0.9955 0.21952 0.0
C2101 C 0.70871 0.98578 0.22679 0.0
C2102 C 0.72752 0.95175 0.22467 0.0
C2103 C 0.71309 0.92731 0.21562 0.0
C2104 C 0.67992 0.93462 0.20933 0.0
C2105 C 0.67077 0.90392 0.19991 0.0
C2106 C 0.6345 0.8832 0.20365 0.0
C2107 C 0.66826 0.91964 0.18641 0.0
C2108 C 0.70486 0.87902 0.20151 0.0
C2109 C 0.72905 0.89325 0.21054 0.0
C2110 C 0.76384 0.87696 0.21297 0.0
C2111 C 0.77363 0.84451 0.20628 0.0
C2112 C 0.74841 0.8285 0.19744 0.0
C2113 C 0.71369 0.84598 0.195 0.0
H2114 H 0.41537 0.41366 0.46254 0.0
H2115 H 0.4079 0.52906 0.44918 0.0
H2116 H 0.33975 0.52851 0.45278 0.0
H2117 H 0.32867 0.38339 0.44748 0.0
H2118 H 0.31597 0.35174 0.46007 0.0
H2119 H 0.36472 0.36157 0.45692 0.0
H2120 H 0.37338 0.38239 0.48017 0.0
H2121 H 0.32441 0.37339 0.48331 0.0
H2122 H 0.34405 0.4192 0.4865 0.0
H2123 H 0.27396 0.51747 0.45862 0.0
H2124 H 0.21078 0.49232 0.46214 0.0
H2125 H 0.25784 0.38216 0.47014 0.0
C2126 C 0.39923 0.43861 0.46028 0.0
C2127 C 0.41691 0.47139 0.45561 0.0
C2128 C 0.39495 0.5035 0.45268 0.0
C2129 C 0.35626 0.50367 0.45482 0.0
C2130 C 0.33981 0.47133 0.45971 0.0
C2131 C 0.36021 0.43901 0.46208 0.0
C2132 C 0.33472 0.40735 0.46644 0.0
C2133 C 0.3361 0.37405 0.45717 0.0
C2134 C 0.34475 0.39485 0.47991 0.0
C2135 C 0.29692 0.42707 0.46609 0.0
C2136 C 0.30088 0.46423 0.4625 0.0
C2137 C 0.27036 0.48841 0.46144 0.0
C2138 C 0.23449 0.47388 0.46361 0.0
C2139 C 0.22936 0.43539 0.46662 0.0
C2140 C 0.26108 0.41184 0.46806 0.0
H2141 H 0.80519 0.17252 0.70543 0.0
H2142 H 0.69607 0.15249 0.68829 0.0
H2143 H 0.6961 0.08794 0.69685 0.0
H2144 H 0.84268 0.07928 0.69977 0.0
H2145 H 0.86798 0.07823 0.7145 0.0
H2146 H 0.85927 0.12248 0.70677 0.0
H2147 H 0.82666 0.14768 0.72718 0.0
H2148 H 0.83603 0.1032 0.73473 0.0
H2149 H 0.78866 0.12081 0.73395 0.0
H2150 H 0.70647 0.02705 0.70812 0.0
H2151 H 0.7314 0.96984 0.71761 0.0
H2152 H 0.83405 0.02921 0.72758 0.0
C2153 C 0.78156 0.15441 0.70328 0.0
C2154 C 0.75057 0.16765 0.69622 0.0
C2155 C 0.72019 0.14299 0.69365 0.0
C2156 C 0.71973 0.10641 0.69859 0.0
C2157 C 0.7499 0.09495 0.70601 0.0
C2158 C 0.78062 0.11787 0.70812 0.0
C2159 C 0.80993 0.09829 0.71611 0.0
C2160 C 0.84716 0.09432 0.70885 0.0
C2161 C 0.81567 0.11877 0.72874 0.0
C2162 C 0.791 0.0606 0.71806 0.0
C2163 C 0.75615 0.05954 0.71235 0.0
C2164 C 0.73375 0.0275 0.71262 0.0
C2165 C 0.74824 0.99494 0.71825 0.0
C2166 C 0.78503 0.99452 0.72343 0.0
C2167 C 0.80581 0.02845 0.72377 0.0
H2168 H 0.89202 0.50221 0.44054 0.0
H2169 H 0.95143 0.6037 0.45173 0.0
H2170 H 0.89097 0.63375 0.45712 0.0
H2171 H 0.80821 0.54881 0.42745 0.0
H2172 H 0.77734 0.51264 0.43336 0.0
H2173 H 0.82498 0.50117 0.4291 0.0
H2174 H 0.83539 0.47358 0.45147 0.0
H2175 H 0.78815 0.48591 0.45591 0.0
H2176 H 0.82728 0.50288 0.46509 0.0
H2177 H 0.82449 0.65101 0.46265 0.0
H2178 H 0.756 0.65563 0.46651 0.0
H2179 H 0.74139 0.54228 0.45209 0.0
C2180 C 0.89233 0.53111 0.44381 0.0
C2181 C 0.92639 0.55069 0.44568 0.0
C2182 C 0.9256 0.58824 0.45017 0.0
C2183 C 0.89145 0.60549 0.45331 0.0
C2184 C 0.85851 0.58477 0.45186 0.0
C2185 C 0.85862 0.54859 0.44706 0.0
C2186 C 0.81961 0.53173 0.44697 0.0
C2187 C 0.80678 0.5231 0.43341 0.0
C2188 C 0.81751 0.49645 0.45536 0.0
C2189 C 0.7976 0.56393 0.45261 0.0
C2190 C 0.82046 0.59432 0.45534 0.0
C2191 C 0.80629 0.6274 0.46055 0.0
C2192 C 0.76754 0.6297 0.46277 0.0
C2193 C 0.74371 0.59895 0.45992 0.0
C2194 C 0.75905 0.56568 0.45483 0.0
H2195 H 0.20513 0.15876 0.22568 0.0
H2196 H 0.21868 0.16729 0.18512 0.0
H2197 H 0.19745 0.10132 0.18278 0.0
H2198 H 0.24292 0.06803 0.22816 0.0
H2199 H 0.21196 0.05251 0.24057 0.0
H2200 H 0.22316 0.10171 0.23902 0.0
H2201 H 0.15237 0.118 0.23762 0.0
H2202 H 0.1408 0.06884 0.23927 0.0
H2203 H 0.12349 0.0951 0.22594 0.0
H2204 H 0.17768 0.03467 0.18488 0.0
H2205 H 0.16347 0.96941 0.19131 0.0
H2206 H 0.16761 0.00234 0.23065 0.0
C2207 C 0.20267 0.14694 0.21629 0.0
C2208 C 0.21285 0.16796 0.20553 0.0
C2209 C 0.21063 0.15147 0.19343 0.0
C2210 C 0.19855 0.11419 0.19202 0.0
C2211 C 0.18938 0.09392 0.20284 0.0
C2212 C 0.19149 0.10956 0.21475 0.0
C2213 C 0.18334 0.08064 0.22489 0.0
C2214 C 0.21738 0.07543 0.23367 0.0
C2215 C 0.14788 0.09129 0.23237 0.0
C2216 C 0.17677 0.04614 0.21682 0.0
C2217 C 0.1798 0.05469 0.20412 0.0
C2218 C 0.17514 0.02762 0.19478 0.0
C2219 C 0.16719 0.99075 0.1985 0.0
C2220 C 0.16464 0.98133 0.21142 0.0
C2221 C 0.16945 0.00921 0.22071 0.0
H2222 H 0.56702 0.44053 0.96416 0.0
H2223 H 0.58561 0.55449 0.95063 0.0
H2224 H 0.65236 0.54976 0.95639 0.0
H2225 H 0.63215 0.44375 0.99044 0.0
H2226 H 0.64875 0.3963 0.98814 0.0
H2227 H 0.6015 0.40878 0.98366 0.0
H2228 H 0.6137 0.38529 0.96086 0.0
H2229 H 0.66058 0.37192 0.96536 0.0
H2230 H 0.65348 0.40336 0.95223 0.0
H2231 H 0.71629 0.53346 0.96343 0.0
H2232 H 0.77655 0.50249 0.96762 0.0
H2233 H 0.71834 0.39807 0.97596 0.0
C2234 C 0.58521 0.4644 0.96238 0.0
C2235 C 0.57109 0.4979 0.95701 0.0
C2236 C 0.59579 0.52845 0.9547 0.0
C2237 C 0.63367 0.52625 0.95808 0.0
C2238 C 0.64647 0.49324 0.96366 0.0
C2239 C 0.62331 0.46253 0.96554 0.0
C2240 C 0.64505 0.42942 0.97079 0.0
C2241 C 0.63102 0.41896 0.98405 0.0
C2242 C 0.6431 0.39551 0.96177 0.0
C2243 C 0.68417 0.44617 0.97128 0.0
C2244 C 0.68404 0.48335 0.96745 0.0
C2245 C 0.71682 0.5045 0.96659 0.0
C2246 C 0.75098 0.48671 0.96916 0.0
C2247 C 0.75204 0.44808 0.97243 0.0
C2248 C 0.71813 0.42786 0.97379 0.0
H2249 H 0.32074 0.84318 0.68656 0.0
H2250 H 0.27949 0.81652 0.72393 0.0
H2251 H 0.29747 0.8798 0.7314 0.0
H2252 H 0.40096 0.90215 0.69715 0.0
H2253 H 0.39548 0.93506 0.68435 0.0
H2254 H 0.38257 0.8864 0.68221 0.0
H2255 H 0.31562 0.90674 0.67539 0.0
H2256 H 0.32832 0.95537 0.67749 0.0
H2257 H 0.28823 0.93635 0.6857 0.0
H2258 H 0.31455 0.9472 0.73433 0.0
H2259 H 0.33043 0.01478 0.73252 0.0
H2260 H 0.36135 0.99794 0.69336 0.0
C2261 C 0.31625 0.85068 0.69634 0.0
C2262 C 0.2996 0.82512 0.7048 0.0
C2263 C 0.29324 0.83566 0.71747 0.0
C2264 C 0.30318 0.87152 0.72177 0.0
C2265 C 0.3196 0.89632 0.71325 0.0
C2266 C 0.32633 0.8864 0.70082 0.0
C2267 C 0.34269 0.9191 0.6935 0.0
C2268 C 0.38281 0.91014 0.68904 0.0
C2269 C 0.31718 0.93003 0.68237 0.0
C2270 C 0.3428 0.94916 0.70363 0.0
C2271 C 0.32968 0.93535 0.71498 0.0
C2272 C 0.32523 0.95833 0.72554 0.0
C2273 C 0.33403 0.99664 0.72441 0.0
C2274 C 0.3469 0.0114 0.71281 0.0
C2275 C 0.35202 0.98718 0.70239 0.0
H2276 H 0.75894 0.3872 0.0673 0.0
H2277 H 0.71373 0.49904 0.0738 0.0
H2278 H 0.77712 0.52332 0.07717 0.0
H2279 H 0.82414 0.38834 0.0905 0.0
H2280 H 0.86167 0.36474 0.08226 0.0
H2281 H 0.81363 0.35624 0.0778 0.0
H2282 H 0.8279 0.37612 0.05478 0.0
H2283 H 0.87636 0.38361 0.05907 0.0
H2284 H 0.84988 0.42096 0.05178 0.0
H2285 H 0.84167 0.53297 0.08424 0.0
H2286 H 0.90803 0.53087 0.09049 0.0
H2287 H 0.91481 0.41417 0.07841 0.0
C2288 C 0.76268 0.4171 0.06887 0.0
C2289 C 0.73133 0.44129 0.06999 0.0
C2290 C 0.73708 0.48005 0.07246 0.0
C2291 C 0.77314 0.49415 0.07455 0.0
C2292 C 0.80321 0.46927 0.07397 0.0
C2293 C 0.79872 0.43181 0.07081 0.0
C2294 C 0.83581 0.41085 0.07163 0.0
C2295 C 0.83365 0.37812 0.08111 0.0
C2296 C 0.84822 0.39708 0.05853 0.0
C2297 C 0.86119 0.44202 0.07639 0.0
C2298 C 0.8416 0.47537 0.07768 0.0
C2299 C 0.85768 0.50736 0.08295 0.0
C2300 C 0.89527 0.50565 0.08665 0.0
C2301 C 0.91651 0.47231 0.08491 0.0
C2302 C 0.89921 0.44004 0.07974 0.0
H2303 H 0.23683 0.15483 0.84903 0.0
H2304 H 0.33839 0.21457 0.83823 0.0
H2305 H 0.36864 0.15424 0.83288 0.0
H2306 H 0.28374 0.07297 0.86275 0.0
H2307 H 0.24854 0.0407 0.85702 0.0
H2308 H 0.23594 0.08859 0.86064 0.0
H2309 H 0.20937 0.0962 0.83802 0.0
H2310 H 0.22278 0.04863 0.83422 0.0
H2311 H 0.23942 0.08715 0.82467 0.0
H2312 H 0.3871 0.08806 0.82799 0.0
H2313 H 0.39438 0.01921 0.82558 0.0
H2314 H 0.28081 0.00297 0.83941 0.0
C2315 C 0.26567 0.1552 0.84577 0.0
C2316 C 0.28529 0.18939 0.84406 0.0
C2317 C 0.32285 0.18869 0.83964 0.0
C2318 C 0.34022 0.1546 0.83651 0.0
C2319 C 0.31965 0.12154 0.83789 0.0
C2320 C 0.28341 0.12145 0.84257 0.0
C2321 C 0.26743 0.08198 0.84302 0.0
C2322 C 0.2584 0.07038 0.85667 0.0
C2323 C 0.23269 0.0783 0.83447 0.0
C2324 C 0.30032 0.05996 0.8378 0.0
C2325 C 0.33011 0.08334 0.83487 0.0
C2326 C 0.36395 0.06944 0.83021 0.0
C2327 C 0.36776 0.03044 0.82882 0.0
C2328 C 0.33783 0.00598 0.83199 0.0
C2329 C 0.30359 0.02102 0.83641 0.0
H2330 H 0.72382 0.61077 0.57984 0.0
H2331 H 0.77796 0.51712 0.59874 0.0
H2332 H 0.71734 0.49566 0.60682 0.0
H2333 H 0.64921 0.62762 0.6028 0.0
H2334 H 0.61355 0.6357 0.59103 0.0
H2335 H 0.66194 0.64689 0.58766 0.0
H2336 H 0.6602 0.60407 0.56785 0.0
H2337 H 0.61168 0.59342 0.57104 0.0
H2338 H 0.6453 0.55578 0.56943 0.0
H2339 H 0.65212 0.48349 0.61274 0.0
H2340 H 0.58382 0.47339 0.61274 0.0
H2341 H 0.56946 0.57147 0.58871 0.0
C2342 C 0.72271 0.58582 0.58569 0.0
C2343 C 0.7557 0.56579 0.58876 0.0
C2344 C 0.75329 0.533 0.59629 0.0
C2345 C 0.71889 0.52073 0.60104 0.0
C2346 C 0.68698 0.54127 0.59801 0.0
C2347 C 0.68824 0.57249 0.59025 0.0
C2348 C 0.64903 0.58662 0.58733 0.0
C2349 C 0.6431 0.62659 0.59252 0.0
C2350 C 0.64109 0.58485 0.57307 0.0
C2351 C 0.62578 0.55805 0.59454 0.0
C2352 C 0.64844 0.53286 0.6009 0.0
C2353 C 0.63392 0.50299 0.60783 0.0
C2354 C 0.59508 0.49755 0.60778 0.0
C2355 C 0.57139 0.52148 0.60065 0.0
C2356 C 0.58685 0.5529 0.59433 0.0
H2357 H 0.16776 0.98609 0.31461 0.0
H2358 H 0.16135 0.01678 0.35411 0.0
H2359 H 0.18191 0.9529 0.36018 0.0
H2360 H 0.13195 0.89015 0.31895 0.0
H2361 H 0.16219 0.8704 0.30702 0.0
H2362 H 0.14673 0.91855 0.30576 0.0
H2363 H 0.21605 0.94066 0.30435 0.0
H2364 H 0.23163 0.89259 0.3056 0.0
H2365 H 0.24861 0.92739 0.31659 0.0
H2366 H 0.20743 0.88782 0.3619 0.0
H2367 H 0.23199 0.82311 0.35919 0.0
H2368 H 0.21679 0.83263 0.31871 0.0
C2369 C 0.17048 0.97902 0.32451 0.0
C2370 C 0.16319 0.00592 0.33394 0.0
C2371 C 0.1669 0.9962 0.34681 0.0
C2372 C 0.17852 0.96011 0.35033 0.0
C2373 C 0.18563 0.93403 0.34084 0.0
C2374 C 0.18131 0.94276 0.3282 0.0
C2375 C 0.19051 0.90924 0.31994 0.0
C2376 C 0.15577 0.89632 0.31248 0.0
C2377 C 0.22368 0.91801 0.3111 0.0
C2378 C 0.20131 0.88071 0.32991 0.0
C2379 C 0.19853 0.89567 0.3419 0.0
C2380 C 0.2092 0.8755 0.35259 0.0
C2381 C 0.22317 0.83894 0.35097 0.0
C2382 C 0.2257 0.82298 0.33879 0.0
C2383 C 0.21432 0.84401 0.32816 0.0
H2384 H 0.31607 0.90749 0.17615 0.0
H2385 H 0.23785 0.84006 0.15448 0.0
H2386 H 0.26163 0.86869 0.13474 0.0
H2387 H 0.31114 0.99175 0.15664 0.0
H2388 H 0.36045 0.00246 0.15818 0.0
H2389 H 0.33638 0.97763 0.1706 0.0
H2390 H 0.38527 0.9238 0.16915 0.0
H2391 H 0.40929 0.94831 0.15664 0.0
H2392 H 0.39311 0.90076 0.15422 0.0
H2393 H 0.29342 0.90467 0.11744 0.0
H2394 H 0.33147 0.94558 0.10354 0.0
H2395 H 0.3917 0.98834 0.13604 0.0
C2396 C 0.3039 0.8991 0.16722 0.0
C2397 C 0.27513 0.87165 0.16675 0.0
C2398 C 0.25991 0.86103 0.15496 0.0
C2399 C 0.27328 0.87711 0.14374 0.0
C2400 C 0.30207 0.90368 0.14445 0.0
C2401 C 0.31728 0.91466 0.15587 0.0
C2402 C 0.3485 0.94332 0.15392 0.0
C2403 C 0.33851 0.98103 0.16021 0.0
C2404 C 0.38628 0.92813 0.15877 0.0
C2405 C 0.34848 0.94671 0.13963 0.0
C2406 C 0.32127 0.92369 0.13439 0.0
C2407 C 0.31497 0.92258 0.12142 0.0
C2408 C 0.33674 0.9458 0.11361 0.0
C2409 C 0.36479 0.96956 0.11871 0.0
C2410 C 0.37091 0.96983 0.1319 0.0
H2411 H 0.38299 0.00264 0.40798 0.0
H2412 H 0.33649 0.05892 0.44073 0.0
H2413 H 0.29704 0.0984 0.42688 0.0
H2414 H 0.38577 0.08544 0.38752 0.0
H2415 H 0.37251 0.05975 0.37355 0.0
H2416 H 0.39779 0.03634 0.38601 0.0
H2417 H 0.34523 0.98604 0.38733 0.0
H2418 H 0.3196 0.00954 0.37497 0.0
H2419 H 0.29736 0.00069 0.38995 0.0
H2420 H 0.26197 0.13116 0.40976 0.0
H2421 H 0.23494 0.15718 0.39012 0.0
H2422 H 0.3031 0.08054 0.36805 0.0
C2423 C 0.36502 0.02381 0.41217 0.0
C2424 C 0.3631 0.02816 0.42543 0.0
C2425 C 0.33848 0.05537 0.4306 0.0
C2426 C 0.31593 0.07785 0.42282 0.0
C2427 C 0.31811 0.07276 0.40981 0.0
C2428 C 0.34207 0.04657 0.40448 0.0
C2429 C 0.3384 0.04676 0.39018 0.0
C2430 C 0.37585 0.05773 0.38395 0.0
C2431 C 0.32431 0.00848 0.38533 0.0
C2432 C 0.30885 0.07723 0.38836 0.0
C2433 C 0.29753 0.09168 0.39985 0.0
C2434 C 0.27071 0.12017 0.4007 0.0
C2435 C 0.25551 0.13478 0.38952 0.0
C2436 C 0.26719 0.12109 0.37763 0.0
C2437 C 0.29375 0.09148 0.37705 0.0
H2438 H 0.1599 0.06049 0.61541 0.0
H2439 H 0.09166 0.98454 0.63771 0.0
H2440 H 0.11476 0.01475 0.65727 0.0
H2441 H 0.23961 0.06343 0.63661 0.0
H2442 H 0.24921 0.11264 0.634 0.0
H2443 H 0.22739 0.08498 0.62178 0.0
H2444 H 0.17213 0.13234 0.62089 0.0
H2445 H 0.19365 0.16 0.63318 0.0
H2446 H 0.1463 0.14288 0.63509 0.0
H2447 H 0.14607 0.05219 0.67441 0.0
H2448 H 0.18395 0.09416 0.68805 0.0
H2449 H 0.23093 0.14793 0.65496 0.0
C2450 C 0.14993 0.05034 0.62444 0.0
C2451 C 0.12363 0.02047 0.62509 0.0
C2452 C 0.11134 0.00772 0.63703 0.0
C2453 C 0.12438 0.02467 0.64817 0.0
C2454 C 0.14977 0.05447 0.64724 0.0
C2455 C 0.16249 0.06725 0.63569 0.0
C2456 C 0.18986 0.09978 0.6374 0.0
C2457 C 0.22883 0.08959 0.63214 0.0
C2458 C 0.17456 0.13589 0.63128 0.0
C2459 C 0.19064 0.10319 0.6517 0.0
C2460 C 0.16731 0.07666 0.65716 0.0
C2461 C 0.16412 0.07328 0.67022 0.0
C2462 C 0.18558 0.0973 0.6779 0.0
C2463 C 0.20967 0.12464 0.67255 0.0
C2464 C 0.21204 0.12778 0.65927 0.0
H2465 H 0.19098 0.9077 0.86628 0.0
H2466 H 0.25158 0.82251 0.88728 0.0
H2467 H 0.22269 0.84531 0.90709 0.0
H2468 H 0.19958 0.98105 0.88938 0.0
H2469 H 0.15334 1.00008 0.88665 0.0
H2470 H 0.17785 0.97628 0.87411 0.0
H2471 H 0.12155 0.93074 0.87136 0.0
H2472 H 0.09689 0.95435 0.88392 0.0
H2473 H 0.10484 0.9043 0.88475 0.0
H2474 H 0.18894 0.87876 0.92471 0.0
H2475 H 0.15216 0.92029 0.93888 0.0
H2476 H 0.11254 0.98356 0.90662 0.0
C2477 C 0.19784 0.89375 0.87506 0.0
C2478 C 0.22294 0.86288 0.87526 0.0
C2479 C 0.23174 0.84561 0.88691 0.0
C2480 C 0.21563 0.85852 0.89821 0.0
C2481 C 0.19078 0.88884 0.8977 0.0
C2482 C 0.18186 0.90625 0.88644 0.0
C2483 C 0.15477 0.93869 0.88855 0.0
C2484 C 0.17245 0.97624 0.88443 0.0
C2485 C 0.11729 0.93158 0.88174 0.0
C2486 C 0.14998 0.93692 0.90277 0.0
C2487 C 0.17107 0.90795 0.90786 0.0
C2488 C 0.17208 0.90128 0.92082 0.0
C2489 C 0.15111 0.92486 0.92879 0.0
C2490 C 0.12929 0.95453 0.92378 0.0
C2491 C 0.12863 0.9606 0.91062 0.0
H2492 H 0.71296 0.0707 0.86497 0.0
H2493 H 0.73828 0.17763 0.88279 0.0
H2494 H 0.70699 0.15622 0.90229 0.0
H2495 H 0.62215 0.05722 0.87878 0.0
H2496 H 0.62744 0.00719 0.88098 0.0
H2497 H 0.65227 0.03058 0.86842 0.0
H2498 H 0.71538 0.00456 0.87691 0.0
H2499 H 0.69071 0.98098 0.88948 0.0
H2500 H 0.72833 0.01323 0.89309 0.0
H2501 H 0.67131 0.12428 0.91965 0.0
H2502 H 0.63506 0.0828 0.93397 0.0
H2503 H 0.63415 0.99545 0.90547 0.0
C2504 C 0.71207 0.08944 0.87303 0.0
C2505 C 0.72753 0.1261 0.87231 0.0
C2506 C 0.72588 0.1498 0.88303 0.0
C2507 C 0.7084 0.13777 0.89418 0.0
C2508 C 0.69295 0.10173 0.89455 0.0
C2509 C 0.69481 0.07775 0.8843 0.0
C2510 C 0.67583 0.04042 0.88723 0.0
C2511 C 0.64244 0.03346 0.87832 0.0
C2512 C 0.70427 0.00787 0.88664 0.0
C2513 C 0.66268 0.04736 0.90066 0.0
C2514 C 0.67293 0.08296 0.90468 0.0
C2515 C 0.66335 0.09628 0.91663 0.0
C2516 C 0.64279 0.07265 0.92469 0.0
C2517 C 0.63215 0.03614 0.92079 0.0
C2518 C 0.64225 0.02327 0.90864 0.0
H2519 H 0.75511 0.86843 0.65806 0.0
H2520 H 0.68677 0.90016 0.69016 0.0
H2521 H 0.6462 0.93852 0.67627 0.0
H2522 H 0.75204 0.95907 0.64285 0.0
H2523 H 0.74987 0.94052 0.62705 0.0
H2524 H 0.77275 0.91396 0.63932 0.0
H2525 H 0.7295 0.8569 0.63474 0.0
H2526 H 0.70674 0.88316 0.62238 0.0
H2527 H 0.67922 0.86311 0.63497 0.0
H2528 H 0.61291 0.97331 0.65903 0.0
H2529 H 0.58941 0.00304 0.63944 0.0
H2530 H 0.68031 0.95179 0.61837 0.0
C2531 C 0.73122 0.88305 0.66206 0.0
C2532 C 0.72355 0.88095 0.67513 0.0
C2533 C 0.69273 0.90116 0.68014 0.0
C2534 C 0.66963 0.92306 0.67234 0.0
C2535 C 0.67795 0.92488 0.65951 0.0
C2536 C 0.70803 0.90554 0.65437 0.0
C2537 C 0.71124 0.9134 0.64032 0.0
C2538 C 0.7487 0.93289 0.63721 0.0
C2539 C 0.70637 0.87697 0.63265 0.0
C2540 C 0.67823 0.93994 0.63838 0.0
C2541 C 0.65936 0.94602 0.64959 0.0
C2542 C 0.62752 0.96884 0.6502 0.0
C2543 C 0.61437 0.98561 0.63906 0.0
C2544 C 0.63312 0.97973 0.62747 0.0
C2545 C 0.66569 0.95692 0.62716 0.0
H2546 H 0.82079 0.8666 0.37181 0.0
H2547 H 0.70846 0.9126 0.37581 0.0
H2548 H 0.7293 0.95012 0.394 0.0
H2549 H 0.83523 0.85843 0.4066 0.0
H2550 H 0.88471 0.86896 0.40561 0.0
H2551 H 0.8614 0.84574 0.39267 0.0
H2552 H 0.88463 0.8981 0.37759 0.0
H2553 H 0.90743 0.92183 0.39052 0.0
H2554 H 0.87347 0.94655 0.38101 0.0
H2555 H 0.76393 0.98979 0.40927 0.0
H2556 H 0.80585 0.01784 0.425 0.0
H2557 H 0.89309 0.93774 0.41497 0.0
C2558 C 0.80054 0.88415 0.37665 0.0
C2559 C 0.76331 0.88794 0.37202 0.0
C2560 C 0.73749 0.91055 0.3788 0.0
C2561 C 0.749 0.93187 0.38919 0.0
C2562 C 0.78617 0.92908 0.39313 0.0
C2563 C 0.81128 0.90477 0.38745 0.0
C2564 C 0.84903 0.90594 0.39424 0.0
C2565 C 0.85813 0.86748 0.40013 0.0
C2566 C 0.8805 0.91887 0.3853 0.0
C2567 C 0.84125 0.93542 0.40436 0.0
C2568 C 0.80496 0.94879 0.40327 0.0
C2569 C 0.79186 0.97842 0.41061 0.0
C2570 C 0.8159 0.99393 0.41966 0.0
C2571 C 0.85224 0.97887 0.42182 0.0
C2572 C 0.86532 0.9496 0.41381 0.0
H2573 H 0.83335 0.99834 0.12705 0.0
H2574 H 0.93555 0.06508 0.12681 0.0
H2575 H 0.91079 0.10363 0.14422 0.0
H2576 H 0.77244 0.0798 0.1312 0.0
H2577 H 0.73878 0.05463 0.1407 0.0
H2578 H 0.76598 0.02988 0.12901 0.0
H2579 H 0.78938 0.98374 0.14622 0.0
H2580 H 0.76262 0.00865 0.15799 0.0
H2581 H 0.81245 0.00205 0.16006 0.0
H2582 H 0.87602 0.13327 0.16236 0.0
H2583 H 0.83076 0.15759 0.17792 0.0
H2584 H 0.74623 0.08059 0.16352 0.0
C2585 C 0.85038 0.02139 0.1305 0.0
C2586 C 0.88684 0.02812 0.1256 0.0
C2587 C 0.90818 0.05833 0.13062 0.0
C2588 C 0.89417 0.08072 0.14046 0.0
C2589 C 0.85821 0.07336 0.14503 0.0
C2590 C 0.83622 0.04499 0.14003 0.0
C2591 C 0.79744 0.0449 0.14605 0.0
C2592 C 0.76685 0.05278 0.13615 0.0
C2593 C 0.79005 0.00761 0.15299 0.0
C2594 C 0.80128 0.07742 0.15529 0.0
C2595 C 0.83683 0.0929 0.15469 0.0
C2596 C 0.84781 0.12193 0.16271 0.0
C2597 C 0.82167 0.13584 0.17145 0.0
C2598 C 0.78439 0.12175 0.17193 0.0
C2599 C 0.77433 0.09195 0.16368 0.0
H2600 H 0.83825 0.44646 0.6154 0.0
H2601 H 0.93738 0.47841 0.63658 0.0
H2602 H 0.91143 0.44692 0.65554 0.0
H2603 H 0.77152 0.45969 0.64034 0.0
H2604 H 0.74297 0.41977 0.63604 0.0
H2605 H 0.76972 0.44417 0.62416 0.0
H2606 H 0.80204 0.38157 0.6179 0.0
H2607 H 0.77545 0.35697 0.62978 0.0
H2608 H 0.82604 0.35433 0.62977 0.0
H2609 H 0.87312 0.4146 0.67245 0.0
H2610 H 0.82665 0.38144 0.68584 0.0
H2611 H 0.7532 0.36797 0.65359 0.0
C2612 C 0.8545 0.4466 0.62404 0.0
C2613 C 0.89001 0.46449 0.62453 0.0
C2614 C 0.91045 0.4643 0.63597 0.0
C2615 C 0.89581 0.44666 0.64678 0.0
C2616 C 0.86074 0.42917 0.64599 0.0
C2617 C 0.84043 0.42879 0.63488 0.0
C2618 C 0.80339 0.40805 0.63655 0.0
C2619 C 0.76993 0.4345 0.63413 0.0
C2620 C 0.80165 0.37316 0.62799 0.0
C2621 C 0.80589 0.39697 0.65036 0.0
C2622 C 0.83914 0.40965 0.65563 0.0
C2623 C 0.84725 0.40418 0.66837 0.0
C2624 C 0.82079 0.3853 0.67589 0.0
C2625 C 0.78684 0.37167 0.67067 0.0
C2626 C 0.77934 0.37751 0.65773 0.0
H2627 H 0.74402 0.58155 0.88126 0.0
H2628 H 0.83239 0.65717 0.86882 0.0
H2629 H 0.87429 0.63209 0.88529 0.0
H2630 H 0.76486 0.57971 0.91429 0.0
H2631 H 0.75696 0.52989 0.91614 0.0
H2632 H 0.73234 0.5556 0.90405 0.0
H2633 H 0.75784 0.50991 0.88705 0.0
H2634 H 0.78218 0.48379 0.89911 0.0
H2635 H 0.80779 0.50225 0.88581 0.0
H2636 H 0.90552 0.60127 0.90381 0.0
H2637 H 0.9276 0.56077 0.92109 0.0
H2638 H 0.82426 0.4961 0.919 0.0
C2639 C 0.77235 0.59249 0.88186 0.0
C2640 C 0.78458 0.62192 0.87379 0.0
C2641 C 0.8218 0.63559 0.87509 0.0
C2642 C 0.84599 0.62126 0.88437 0.0
C2643 C 0.83306 0.5924 0.89213 0.0
C2644 C 0.79743 0.57749 0.8908 0.0
C2645 C 0.79162 0.54469 0.89982 0.0
C2646 C 0.75954 0.55298 0.90912 0.0
C2647 C 0.78444 0.50798 0.89251 0.0
C2648 C 0.82942 0.54382 0.9065 0.0
C2649 C 0.85253 0.57211 0.90205 0.0
C2650 C 0.88801 0.57845 0.90715 0.0
C2651 C 0.90049 0.55494 0.91692 0.0
C2652 C 0.87819 0.52457 0.92131 0.0
C2653 C 0.84203 0.51913 0.91598 0.0
H2654 H 0.66741 0.50492 0.12589 0.0
H2655 H 0.58564 0.59091 0.11635 0.0
H2656 H 0.61357 0.63334 0.13216 0.0
H2657 H 0.67345 0.52341 0.15886 0.0
H2658 H 0.72357 0.51698 0.16002 0.0
H2659 H 0.69736 0.49258 0.148 0.0
H2660 H 0.74014 0.52118 0.13072 0.0
H2661 H 0.76679 0.54529 0.14271 0.0
H2662 H 0.74609 0.57152 0.12993 0.0
H2663 H 0.64695 0.66489 0.14993 0.0
H2664 H 0.68829 0.68666 0.16706 0.0
H2665 H 0.75476 0.58478 0.16354 0.0
C2666 C 0.65589 0.53295 0.12696 0.0
C2667 C 0.62401 0.54444 0.11991 0.0
C2668 C 0.6095 0.58115 0.12178 0.0
C2669 C 0.62531 0.60558 0.13071 0.0
C2670 C 0.65626 0.59331 0.1376 0.0
C2671 C 0.67195 0.55818 0.1357 0.0
C2672 C 0.70588 0.55266 0.14426 0.0
C2673 C 0.69968 0.51943 0.15332 0.0
C2674 C 0.74186 0.54735 0.13644 0.0
C2675 C 0.70636 0.58995 0.15134 0.0
C2676 C 0.67716 0.61269 0.14741 0.0
C2677 C 0.67039 0.64764 0.15291 0.0
C2678 C 0.69426 0.65992 0.1626 0.0
C2679 C 0.72514 0.63779 0.16662 0.0
C2680 C 0.73122 0.60229 0.16083 0.0
H2681 H 0.66659 0.45087 0.42629 0.0
H2682 H 0.57129 0.49371 0.4053 0.0
H2683 H 0.59714 0.46605 0.38571 0.0
H2684 H 0.73671 0.46503 0.40218 0.0
H2685 H 0.76172 0.42208 0.40555 0.0
H2686 H 0.73603 0.44563 0.41788 0.0
H2687 H 0.69845 0.38451 0.4222 0.0
H2688 H 0.724 0.36078 0.40987 0.0
H2689 H 0.67338 0.36214 0.40946 0.0
H2690 H 0.63443 0.4358 0.36827 0.0
H2691 H 0.67861 0.40144 0.35436 0.0
H2692 H 0.74832 0.3746 0.38661 0.0
C2693 C 0.65126 0.45431 0.41755 0.0
C2694 C 0.61684 0.47427 0.41728 0.0
C2695 C 0.59746 0.47819 0.4057 0.0
C2696 C 0.61203 0.46273 0.39454 0.0
C2697 C 0.64593 0.44307 0.3951 0.0
C2698 C 0.66519 0.4385 0.40631 0.0
C2699 C 0.70064 0.41535 0.40433 0.0
C2700 C 0.73586 0.4384 0.40768 0.0
C2701 C 0.699 0.37851 0.41192 0.0
C2702 C 0.69841 0.40779 0.39024 0.0
C2703 C 0.66675 0.42437 0.3851 0.0
C2704 C 0.65907 0.4224 0.37222 0.0
C2705 C 0.68424 0.40287 0.36439 0.0
C2706 C 0.7164 0.38509 0.36946 0.0
C2707 C 0.72357 0.38757 0.38255 0.0
H2708 H 0.24944 0.58356 0.3776 0.0
H2709 H 0.17378 0.67672 0.37001 0.0
H2710 H 0.1314 0.6541 0.38671 0.0
H2711 H 0.17332 0.51573 0.38082 0.0
H2712 H 0.1973 0.48833 0.39265 0.0
H2713 H 0.22395 0.51403 0.38105 0.0
H2714 H 0.26013 0.54797 0.39893 0.0
H2715 H 0.23327 0.52271 0.41059 0.0
H2716 H 0.23431 0.57343 0.41082 0.0
H2717 H 0.09859 0.62306 0.40492 0.0
H2718 H 0.07215 0.58085 0.42101 0.0
H2719 H 0.16119 0.50017 0.4138 0.0
C2720 C 0.22374 0.59901 0.37928 0.0
C2721 C 0.21556 0.63257 0.37253 0.0
C2722 C 0.18169 0.6519 0.37528 0.0
C2723 C 0.15712 0.639 0.3847 0.0
C2724 C 0.16604 0.60593 0.39109 0.0
C2725 C 0.19803 0.58562 0.3883 0.0
C2726 C 0.19925 0.54922 0.39587 0.0
C2727 C 0.19839 0.51479 0.38707 0.0
C2728 C 0.2338 0.5483 0.40457 0.0
C2729 C 0.16309 0.55251 0.40343 0.0
C2730 C 0.14491 0.58589 0.4007 0.0
C2731 C 0.1121 0.59643 0.40691 0.0
C2732 C 0.09706 0.57198 0.41598 0.0
C2733 C 0.11394 0.53666 0.41857 0.0
C2734 C 0.14761 0.52699 0.41218 0.0
H2735 H 0.15905 0.49048 0.12964 0.0
H2736 H 0.07404 0.4078 0.1198 0.0
H2737 H 0.09688 0.36641 0.13673 0.0
H2738 H 0.232 0.41851 0.13391 0.0
H2739 H 0.25536 0.44429 0.14628 0.0
H2740 H 0.23005 0.46922 0.13416 0.0
H2741 H 0.19061 0.50278 0.15133 0.0
H2742 H 0.21541 0.47754 0.16349 0.0
H2743 H 0.16488 0.47503 0.16266 0.0
H2744 H 0.12568 0.33642 0.15602 0.0
H2745 H 0.16538 0.31414 0.17348 0.0
H2746 H 0.24179 0.40764 0.16717 0.0
C2747 C 0.14557 0.46342 0.13084 0.0
C2748 C 0.11389 0.45309 0.12348 0.0
C2749 C 0.09714 0.4174 0.12559 0.0
C2750 C 0.11023 0.39337 0.13513 0.0
C2751 C 0.1412 0.40456 0.14223 0.0
C2752 C 0.15946 0.43817 0.13993 0.0
C2753 C 0.19412 0.44187 0.14823 0.0
C2754 C 0.23001 0.44356 0.14016 0.0
C2755 C 0.19105 0.47635 0.15694 0.0
C2756 C 0.19196 0.40541 0.1557 0.0
C2757 C 0.16069 0.3848 0.15227 0.0
C2758 C 0.15093 0.3517 0.1585 0.0
C2759 C 0.17403 0.33898 0.16835 0.0
C2760 C 0.20747 0.35837 0.17165 0.0
C2761 C 0.21639 0.39209 0.16511 0.0
H2762 H 0.33314 0.50849 0.9137 0.0
H2763 H 0.42228 0.42938 0.92248 0.0
H2764 H 0.39969 0.38736 0.90558 0.0
H2765 H 0.26257 0.43652 0.90926 0.0
H2766 H 0.23843 0.46168 0.89692 0.0
H2767 H 0.26374 0.48725 0.90889 0.0
H2768 H 0.30236 0.52104 0.89155 0.0
H2769 H 0.27738 0.49534 0.87953 0.0
H2770 H 0.32796 0.49344 0.88015 0.0
H2771 H 0.36768 0.35403 0.88751 0.0
H2772 H 0.32585 0.32926 0.87093 0.0
H2773 H 0.25165 0.425 0.87595 0.0
C2774 C 0.34778 0.48218 0.91217 0.0
C2775 C 0.37987 0.47256 0.91943 0.0
C2776 C 0.39834 0.43804 0.9169 0.0
C2777 C 0.38547 0.41375 0.90736 0.0
C2778 C 0.35358 0.42392 0.90052 0.0
C2779 C 0.33462 0.45707 0.90292 0.0
C2780 C 0.29963 0.46016 0.89475 0.0
C2781 C 0.26398 0.46147 0.90294 0.0
C2782 C 0.30199 0.49454 0.88598 0.0
C2783 C 0.302 0.42363 0.88733 0.0
C2784 C 0.33365 0.40346 0.8907 0.0
C2785 C 0.34255 0.36936 0.88493 0.0
C2786 C 0.31837 0.35533 0.87558 0.0
C2787 C 0.28512 0.37481 0.87218 0.0
C2788 C 0.27699 0.40953 0.87818 0.0
H2789 H 0.24931 0.59051 0.66461 0.0
H2790 H 0.33261 0.67818 0.67039 0.0
H2791 H 0.3702 0.65263 0.65295 0.0
H2792 H 0.31974 0.51733 0.65938 0.0
H2793 H 0.29157 0.49221 0.64802 0.0
H2794 H 0.26919 0.5192 0.66029 0.0
H2795 H 0.23204 0.5563 0.64338 0.0
H2796 H 0.25473 0.5298 0.63104 0.0
H2797 H 0.2572 0.58049 0.63104 0.0
H2798 H 0.39737 0.62009 0.63432 0.0
H2799 H 0.41864 0.57613 0.61786 0.0
H2800 H 0.32476 0.50223 0.62624 0.0
C2801 C 0.27565 0.60411 0.66232 0.0
C2802 C 0.28732 0.63722 0.66872 0.0
C2803 C 0.32205 0.65393 0.66534 0.0
C2804 C 0.34388 0.63937 0.6555 0.0
C2805 C 0.33134 0.60722 0.64928 0.0
C2806 C 0.2986 0.5891 0.65274 0.0
C2807 C 0.29332 0.55323 0.64508 0.0
C2808 C 0.29347 0.51843 0.65371 0.0
C2809 C 0.25717 0.55508 0.63717 0.0
C2810 C 0.32808 0.55436 0.63673 0.0
C2811 C 0.34908 0.58625 0.63919 0.0
C2812 C 0.38157 0.59465 0.63246 0.0
C2813 C 0.39353 0.56937 0.62316 0.0
C2814 C 0.37376 0.53545 0.62083 0.0
C2815 C 0.34031 0.52807 0.62766 0.0
H2816 H 0.5177 0.16726 0.08598 0.0
H2817 H 0.41344 0.17255 0.10704 0.0
H2818 H 0.42453 0.23982 0.11147 0.0
H2819 H 0.57149 0.23784 0.10509 0.0
H2820 H 0.59357 0.25788 0.09135 0.0
H2821 H 0.58092 0.20873 0.09153 0.0
H2822 H 0.54203 0.21815 0.07113 0.0
H2823 H 0.55433 0.26729 0.07093 0.0
H2824 H 0.5056 0.25341 0.0708 0.0
H2825 H 0.44294 0.30672 0.11195 0.0
H2826 H 0.46672 0.37061 0.10804 0.0
H2827 H 0.55836 0.32428 0.08583 0.0
C2828 C 0.49799 0.18246 0.09186 0.0
C2829 C 0.46509 0.16478 0.0964 0.0
C2830 C 0.43901 0.18566 0.10364 0.0
C2831 C 0.44511 0.2238 0.10622 0.0
C2832 C 0.47727 0.24079 0.10137 0.0
C2833 C 0.50334 0.22096 0.09433 0.0
C2834 C 0.53336 0.24717 0.08915 0.0
C2835 C 0.57214 0.23731 0.09461 0.0
C2836 C 0.53383 0.24645 0.07464 0.0
C2837 C 0.51947 0.28478 0.09412 0.0
C2838 C 0.48741 0.28021 0.1013 0.0
C2839 C 0.46826 0.3107 0.10646 0.0
C2840 C 0.48199 0.34696 0.10414 0.0
C2841 C 0.51447 0.35265 0.09663 0.0
C2842 C 0.53366 0.32095 0.09169 0.0
H2843 H 0.91108 0.2284 0.34028 0.0
H2844 H 0.92099 0.34679 0.34971 0.0
H2845 H 0.98929 0.33909 0.35279 0.0
H2846 H 0.98531 0.19294 0.36162 0.0
H2847 H 0.0023 0.15904 0.35033 0.0
H2848 H 0.95347 0.17255 0.35029 0.0
H2849 H 0.95881 0.19137 0.32676 0.0
H2850 H 0.00762 0.17806 0.32674 0.0
H2851 H 0.99414 0.22488 0.32201 0.0
H2852 H 0.0563 0.31988 0.35388 0.0
H2853 H 0.11895 0.29119 0.35183 0.0
H2854 H 0.06733 0.18555 0.34053 0.0
C2855 C 0.92764 0.25239 0.34327 0.0
C2856 C 0.91085 0.28811 0.34492 0.0
C2857 C 0.93341 0.31919 0.34846 0.0
C2858 C 0.97216 0.31506 0.35027 0.0
C2859 C 0.98808 0.27972 0.34836 0.0
C2860 C 0.9667 0.2489 0.34487 0.0
C2861 C 0.99153 0.21491 0.34241 0.0
C2862 C 0.98262 0.18297 0.35172 0.0
C2863 C 0.9878 0.20153 0.32866 0.0
C2864 C 0.0301 0.23163 0.34491 0.0
C2865 C 0.02729 0.2689 0.34851 0.0
C2866 C 0.0589 0.29066 0.35112 0.0
C2867 C 0.09443 0.27404 0.34993 0.0
C2868 C 0.09825 0.23607 0.34601 0.0
C2869 C 0.06547 0.21461 0.34356 0.0
H2870 H 0.93961 0.67898 0.59109 0.0
H2871 H 0.04604 0.62313 0.59837 0.0
H2872 H 0.07667 0.68493 0.60085 0.0
H2873 H 0.97592 0.75206 0.5726 0.0
H2874 H 0.94474 0.78793 0.57852 0.0
H2875 H 0.93014 0.73943 0.57854 0.0
H2876 H 0.91726 0.7431 0.60255 0.0
H2877 H 0.93174 0.79173 0.60261 0.0
H2878 H 0.95408 0.75849 0.61303 0.0
H2879 H 0.09709 0.75193 0.60045 0.0
H2880 H 0.10585 0.82028 0.59777 0.0
H2881 H 0.98615 0.83359 0.59128 0.0
C2882 C 0.96923 0.67967 0.59341 0.0
C2883 C 0.99037 0.64606 0.59455 0.0
C2884 C 0.02916 0.64836 0.59748 0.0
C2885 C 0.04684 0.68337 0.59893 0.0
C2886 C 0.02534 0.71587 0.59752 0.0
C2887 C 0.98734 0.71441 0.59492 0.0
C2888 C 0.97116 0.75361 0.59323 0.0
C2889 C 0.95452 0.75853 0.57993 0.0
C2890 C 0.94183 0.76224 0.60347 0.0
C2891 C 0.00624 0.77729 0.59497 0.0
C2892 C 0.0371 0.75487 0.5975 0.0
C2893 C 0.07307 0.76983 0.59866 0.0
C2894 C 0.07776 0.80868 0.59708 0.0
C2895 C 0.04664 0.83227 0.59441 0.0
C2896 C 0.01033 0.81635 0.59354 0.0
H2897 H 0.56521 0.68137 0.84015 0.0
H2898 H 0.61714 0.78356 0.85443 0.0
H2899 H 0.55435 0.81124 0.85771 0.0
H2900 H 0.49382 0.72598 0.82289 0.0
H2901 H 0.45818 0.69128 0.8262 0.0
H2902 H 0.50696 0.67793 0.82613 0.0
H2903 H 0.50036 0.65201 0.84885 0.0
H2904 H 0.45148 0.66535 0.849 0.0
H2905 H 0.48266 0.68226 0.86115 0.0
H2906 H 0.48711 0.82989 0.85778 0.0
H2907 H 0.41927 0.83902 0.85436 0.0
H2908 H 0.4098 0.7248 0.84021 0.0
C2909 C 0.56343 0.70937 0.84415 0.0
C2910 C 0.59624 0.73024 0.84707 0.0
C2911 C 0.59254 0.76696 0.85213 0.0
C2912 C 0.55696 0.78289 0.85407 0.0
C2913 C 0.5253 0.76172 0.85096 0.0
C2914 C 0.52811 0.72575 0.84612 0.0
C2915 C 0.48967 0.70999 0.84283 0.0
C2916 C 0.48702 0.70077 0.82867 0.0
C2917 C 0.48051 0.67535 0.85095 0.0
C2918 C 0.46486 0.74312 0.84629 0.0
C2919 C 0.4861 0.77249 0.85107 0.0
C2920 C 0.47013 0.80697 0.8542 0.0
C2921 C 0.43159 0.8119 0.85219 0.0
C2922 C 0.4093 0.78254 0.84709 0.0
C2923 C 0.42605 0.74742 0.84436 0.0
H2924 H 0.55887 0.68066 0.45133 0.0
H2925 H 0.45026 0.62525 0.44887 0.0
H2926 H 0.41911 0.68724 0.44814 0.0
H2927 H 0.53124 0.754 0.47142 0.0
H2928 H 0.55976 0.78968 0.46404 0.0
H2929 H 0.57394 0.74109 0.46335 0.0
H2930 H 0.57644 0.7445 0.43897 0.0
H2931 H 0.56242 0.79322 0.43957 0.0
H2932 H 0.53562 0.76007 0.43036 0.0
H2933 H 0.39939 0.75452 0.44985 0.0
H2934 H 0.39241 0.82312 0.45257 0.0
H2935 H 0.51373 0.83558 0.453 0.0
C2936 C 0.52856 0.68149 0.45045 0.0
C2937 C 0.50703 0.64797 0.45016 0.0
C2938 C 0.46741 0.65044 0.44906 0.0
C2939 C 0.44944 0.68555 0.44865 0.0
C2940 C 0.47145 0.71796 0.44919 0.0
C2941 C 0.51017 0.71631 0.44992 0.0
C2942 C 0.52714 0.75542 0.45078 0.0
C2943 C 0.54932 0.76032 0.46314 0.0
C2944 C 0.55186 0.76379 0.43923 0.0
C2945 C 0.49184 0.77928 0.45073 0.0
C2946 C 0.46005 0.75704 0.4498 0.0
C2947 C 0.42406 0.77227 0.45038 0.0
C2948 C 0.4204 0.81125 0.45199 0.0
C2949 C 0.45252 0.83467 0.4529 0.0
C2950 C 0.4887 0.81844 0.45211 0.0
H2951 H 0.58161 0.23561 0.69765 0.0
H2952 H 0.57397 0.35734 0.69976 0.0
H2953 H 0.50486 0.35327 0.69792 0.0
H2954 H 0.50345 0.22001 0.6758 0.0
H2955 H 0.48768 0.17823 0.68387 0.0
H2956 H 0.53672 0.19088 0.68411 0.0
H2957 H 0.53613 0.18974 0.70855 0.0
H2958 H 0.48717 0.17702 0.70837 0.0
H2959 H 0.50238 0.21811 0.71695 0.0
H2960 H 0.43621 0.33576 0.69658 0.0
H2961 H 0.37344 0.30603 0.69759 0.0
H2962 H 0.42596 0.1957 0.69735 0.0
C2963 C 0.56542 0.26142 0.69751 0.0
C2964 C 0.58317 0.29682 0.69872 0.0
C2965 C 0.56095 0.32992 0.69881 0.0
C2966 C 0.52169 0.3279 0.69772 0.0
C2967 C 0.505 0.29255 0.69665 0.0
C2968 C 0.52613 0.25987 0.69664 0.0
C2969 C 0.50115 0.22533 0.6964 0.0
C2970 C 0.50764 0.20226 0.68433 0.0
C2971 C 0.50706 0.20114 0.70827 0.0
C2972 C 0.4627 0.24367 0.69637 0.0
C2973 C 0.46548 0.28245 0.69633 0.0
C2974 C 0.43368 0.3054 0.69656 0.0
C2975 C 0.39812 0.28826 0.69709 0.0
C2976 C 0.39467 0.24854 0.69755 0.0
C2977 C 0.42753 0.22614 0.697 0.0
H2978 H 0.06078 0.17279 0.94994 0.0
H2979 H 0.95235 0.11664 0.94987 0.0
H2980 H 0.92069 0.17844 0.94897 0.0
H2981 H 0.03586 0.2476 0.96968 0.0
H2982 H 0.06311 0.28267 0.96147 0.0
H2983 H 0.07737 0.23408 0.96104 0.0
H2984 H 0.07622 0.23522 0.93661 0.0
H2985 H 0.06219 0.28396 0.93696 0.0
H2986 H 0.03414 0.24997 0.92854 0.0
H2987 H 0.9009 0.24631 0.95038 0.0
H2988 H 0.89442 0.31532 0.95235 0.0
H2989 H 0.0157 0.32718 0.95059 0.0
C2990 C 0.03038 0.17339 0.94954 0.0
C2991 C 0.00906 0.13978 0.94998 0.0
C2992 C 0.96932 0.14193 0.94947 0.0
C2993 C 0.95106 0.17692 0.94899 0.0
C2994 C 0.97294 0.20949 0.94885 0.0
C2995 C 0.01173 0.20802 0.94894 0.0
C2996 C 0.02871 0.24715 0.94912 0.0
C2997 C 0.05266 0.25321 0.96104 0.0
C2998 C 0.05167 0.2545 0.93709 0.0
C2999 C 0.99338 0.27089 0.94942 0.0
C3000 C 0.96151 0.24863 0.94928 0.0
C3001 C 0.92564 0.26405 0.95029 0.0
C3002 C 0.92225 0.30325 0.95147 0.0
C3003 C 0.95453 0.32662 0.95151 0.0
C3004 C 0.99049 0.3101 0.95036 0.0
H3005 H 0.92448 0.76709 0.201 0.0
H3006 H 0.93003 0.64514 0.1997 0.0
H3007 H 0.99929 0.64848 0.19819 0.0
H3008 H 0.00203 0.78673 0.17982 0.0
H3009 H 0.01887 0.82614 0.18892 0.0
H3010 H 0.96963 0.81428 0.18907 0.0
H3011 H 0.97128 0.80935 0.21345 0.0
H3012 H 0.02046 0.82128 0.21337 0.0
H3013 H 0.00488 0.77848 0.22086 0.0
H3014 H 0.06786 0.66517 0.19667 0.0
H3015 H 0.13119 0.69358 0.19737 0.0
H3016 H 0.0811 0.80447 0.20105 0.0
C3017 C 0.9403 0.74113 0.20026 0.0
C3018 C 0.92196 0.70585 0.20034 0.0
C3019 C 0.94358 0.67245 0.19964 0.0
C3020 C 0.98288 0.67408 0.19872 0.0
C3021 C 0.00012 0.70931 0.19869 0.0
C3022 C 0.97958 0.74223 0.1996 0.0
C3023 C 0.00512 0.77633 0.20018 0.0
C3024 C 0.99851 0.8024 0.18882 0.0
C3025 C 0.00013 0.7976 0.21271 0.0
C3026 C 0.04322 0.75744 0.19945 0.0
C3027 C 0.0397 0.71883 0.19841 0.0
C3028 C 0.07098 0.69538 0.19752 0.0
C3029 C 0.10683 0.71179 0.19787 0.0
C3030 C 0.11112 0.75122 0.19931 0.0
C3031 C 0.07877 0.77424 0.20001 0.0
H3032 H 0.51157 0.67165 0.95462 0.0
H3033 H 0.39461 0.68218 0.94357 0.0
H3034 H 0.40308 0.75043 0.94058 0.0
H3035 H 0.51403 0.75522 0.97272 0.0
H3036 H 0.56135 0.76808 0.96844 0.0
H3037 H 0.54752 0.71933 0.96844 0.0
H3038 H 0.56846 0.71307 0.94514 0.0
H3039 H 0.58246 0.76184 0.94507 0.0
H3040 H 0.5495 0.74479 0.93349 0.0
H3041 H 0.42289 0.81755 0.93969 0.0
H3042 H 0.45221 0.88009 0.94185 0.0
H3043 H 0.55583 0.82722 0.95434 0.0
C3044 C 0.48801 0.68829 0.95134 0.0
C3045 C 0.45249 0.67162 0.94923 0.0
C3046 C 0.42205 0.69439 0.94524 0.0
C3047 C 0.42661 0.73316 0.94346 0.0
C3048 C 0.46174 0.74889 0.94581 0.0
C3049 C 0.49193 0.72731 0.94971 0.0
C3050 C 0.52586 0.75185 0.95244 0.0
C3051 C 0.53788 0.74841 0.96634 0.0
C3052 C 0.5585 0.74231 0.9435 0.0
C3053 C 0.50979 0.79051 0.94963 0.0
C3054 C 0.47292 0.78804 0.94566 0.0
C3055 C 0.45183 0.81989 0.94273 0.0
C3056 C 0.46876 0.85532 0.94399 0.0
C3057 C 0.50634 0.85871 0.94827 0.0
C3058 C 0.52709 0.82569 0.95103 0.0
H3059 H 0.91774 0.73542 0.70565 0.0
H3060 H 0.92711 0.85726 0.70571 0.0
H3061 H 0.99594 0.85201 0.70354 0.0
H3062 H -0.00037 0.71949 0.72459 0.0
H3063 H 0.01364 0.67724 0.71643 0.0
H3064 H 0.96477 0.69026 0.71708 0.0
H3065 H 0.96119 0.68819 0.69269 0.0
H3066 H 0.01009 0.67519 0.69197 0.0
H3067 H 0.99359 0.716 0.68352 0.0
H3068 H 0.06301 0.83415 0.70132 0.0
H3069 H 0.12563 0.80496 0.70097 0.0
H3070 H 0.07444 0.69418 0.7037 0.0
C3071 C 0.93433 0.76093 0.70507 0.0
C3072 C 0.91714 0.79679 0.70574 0.0
C3073 C 0.93975 0.82955 0.70521 0.0
C3074 C 0.97882 0.82685 0.70393 0.0
C3075 C 0.99495 0.79118 0.70335 0.0
C3076 C 0.97359 0.75875 0.70404 0.0
C3077 C 0.99843 0.72398 0.70396 0.0
C3078 C 0.99384 0.70142 0.71625 0.0
C3079 C 0.99033 0.69939 0.69234 0.0
C3080 C 0.03703 0.74202 0.70315 0.0
C3081 C 0.03417 0.78079 0.70263 0.0
C3082 C 0.06567 0.80383 0.70175 0.0
C3083 C 0.10116 0.78689 0.70151 0.0
C3084 C 0.10507 0.74723 0.70233 0.0
C3085 C 0.07242 0.72455 0.70311 0.0
H3086 H 0.00961 0.16 0.45417 0.0
H3087 H 0.88879 0.1707 0.45002 0.0
H3088 H 0.89562 0.23918 0.44709 0.0
H3089 H 0.02088 0.24431 0.47245 0.0
H3090 H 0.06548 0.25701 0.4656 0.0
H3091 H 0.05173 0.20827 0.46644 0.0
H3092 H 0.06114 0.20177 0.44232 0.0
H3093 H 0.07484 0.25055 0.4414 0.0
H3094 H 0.03668 0.2333 0.43182 0.0
H3095 H 0.9148 0.30565 0.44454 0.0
H3096 H 0.94434 0.36809 0.44453 0.0
H3097 H 0.05309 0.31672 0.45176 0.0
C3098 C 0.98472 0.17683 0.45251 0.0
C3099 C 0.94863 0.16008 0.45224 0.0
C3100 C 0.91662 0.18297 0.45031 0.0
C3101 C 0.92025 0.22186 0.44855 0.0
C3102 C 0.95608 0.23758 0.44894 0.0
C3103 C 0.98778 0.21601 0.45102 0.0
C3104 C 0.02264 0.24065 0.45181 0.0
C3105 C 0.04127 0.23736 0.46485 0.0
C3106 C 0.05046 0.23099 0.4412 0.0
C3107 C 0.00545 0.27937 0.44987 0.0
C3108 C 0.96709 0.27666 0.44804 0.0
C3109 C 0.9448 0.3082 0.44598 0.0
C3110 C 0.96198 0.34361 0.44596 0.0
C3111 C 0.00112 0.3475 0.44816 0.0
C3112 C 0.02314 0.31476 0.45006 0.0
H3113 H 0.55912 0.17191 0.20647 0.0
H3114 H 0.60933 0.27127 0.18951 0.0
H3115 H 0.54633 0.2973 0.18566 0.0
H3116 H 0.47581 0.16747 0.18555 0.0
H3117 H 0.44498 0.15301 0.19814 0.0
H3118 H 0.49396 0.14006 0.1985 0.0
H3119 H 0.50079 0.17081 0.22053 0.0
H3120 H 0.45194 0.18383 0.22025 0.0
H3121 H 0.48741 0.21936 0.22264 0.0
H3122 H 0.47942 0.31555 0.18541 0.0
H3123 H 0.41165 0.32514 0.18885 0.0
H3124 H 0.40303 0.2141 0.2056 0.0
C3125 C 0.55684 0.19884 0.20175 0.0
C3126 C 0.58929 0.21947 0.19827 0.0
C3127 C 0.58502 0.25487 0.19227 0.0
C3128 C 0.54931 0.26987 0.18999 0.0
C3129 C 0.51801 0.24911 0.19368 0.0
C3130 C 0.52128 0.21433 0.1994 0.0
C3131 C 0.48299 0.1991 0.20315 0.0
C3132 C 0.4739 0.16275 0.1959 0.0
C3133 C 0.48066 0.19293 0.2175 0.0
C3134 C 0.45788 0.23126 0.19895 0.0
C3135 C 0.4788 0.25962 0.19342 0.0
C3136 C 0.46264 0.29336 0.18956 0.0
C3137 C 0.42417 0.29861 0.1916 0.0
C3138 C 0.40218 0.27028 0.1974 0.0
C3139 C 0.41911 0.23584 0.20089 0.0
H3140 H 0.57251 0.18539 0.59356 0.0
H3141 H 0.46594 0.12729 0.59823 0.0
H3142 H 0.43337 0.18839 0.59947 0.0
H3143 H 0.55085 0.26456 0.61483 0.0
H3144 H 0.57508 0.29822 0.60505 0.0
H3145 H 0.59049 0.2499 0.60545 0.0
H3146 H 0.58379 0.24597 0.58115 0.0
H3147 H 0.56819 0.29414 0.58068 0.0
H3148 H 0.5394 0.25756 0.57393 0.0
H3149 H 0.41156 0.25503 0.59801 0.0
H3150 H 0.40243 0.32347 0.59545 0.0
H3151 H 0.52308 0.33891 0.59266 0.0
C3152 C 0.54239 0.18547 0.59504 0.0
C3153 C 0.52181 0.15145 0.5958 0.0
C3154 C 0.4824 0.15289 0.59767 0.0
C3155 C 0.46359 0.18748 0.59837 0.0
C3156 C 0.48461 0.22041 0.59734 0.0
C3157 C 0.52318 0.21977 0.59587 0.0
C3158 C 0.53892 0.25927 0.59462 0.0
C3159 C 0.5654 0.26853 0.60565 0.0
C3160 C 0.55873 0.26453 0.58183 0.0
C3161 C 0.50306 0.28214 0.59533 0.0
C3162 C 0.47207 0.25912 0.59688 0.0
C3163 C 0.43563 0.27341 0.59698 0.0
C3164 C 0.43071 0.31226 0.59544 0.0
C3165 C 0.46204 0.33642 0.59393 0.0
C3166 C 0.49868 0.32113 0.59402 0.0
H3167 H 0.41236 0.77486 0.33903 0.0
H3168 H 0.42696 0.65945 0.35147 0.0
H3169 H 0.49528 0.66942 0.35304 0.0
H3170 H 0.49136 0.77682 0.31939 0.0
H3171 H 0.50462 0.82475 0.32277 0.0
H3172 H 0.45624 0.81054 0.32415 0.0
H3173 H 0.45484 0.83382 0.3473 0.0
H3174 H 0.50321 0.84841 0.34596 0.0
H3175 H 0.4893 0.81649 0.35833 0.0
H3176 H 0.56203 0.68959 0.35156 0.0
H3177 H 0.6234 0.71919 0.34731 0.0
H3178 H 0.5666 0.82147 0.33541 0.0
C3179 C 0.42991 0.7521 0.34241 0.0
C3180 C 0.41436 0.71645 0.34522 0.0
C3181 C 0.43828 0.68697 0.34928 0.0
C3182 C 0.47713 0.69238 0.35024 0.0
C3183 C 0.49178 0.72745 0.34708 0.0
C3184 C 0.469 0.75692 0.34329 0.0
C3185 C 0.4924 0.79083 0.33954 0.0
C3186 C 0.48575 0.80133 0.32564 0.0
C3187 C 0.48446 0.82437 0.34831 0.0
C3188 C 0.53173 0.77547 0.34157 0.0
C3189 C 0.53066 0.73899 0.34603 0.0
C3190 C 0.5633 0.71831 0.34819 0.0
C3191 C 0.59806 0.73536 0.3457 0.0
C3192 C 0.59998 0.77269 0.34104 0.0
C3193 C 0.56622 0.79296 0.33903 0.0
H3194 H 0.02476 0.83236 0.09322 0.0
H3195 H 0.90309 0.82467 0.09449 0.0
H3196 H 0.90749 0.75555 0.09607 0.0
H3197 H 0.03759 0.75248 0.07347 0.0
H3198 H 0.08032 0.73698 0.08097 0.0
H3199 H 0.068 0.78613 0.08109 0.0
H3200 H 0.07243 0.78694 0.10547 0.0
H3201 H 0.08477 0.73773 0.10543 0.0
H3202 H 0.04512 0.75382 0.11453 0.0
H3203 H 0.92454 0.68766 0.09695 0.0
H3204 H 0.95294 0.62458 0.09569 0.0
H3205 H 0.06377 0.6753 0.09282 0.0
C3206 C 0.99913 0.8161 0.09402 0.0
C3207 C 0.96357 0.83386 0.09384 0.0
C3208 C 0.9306 0.81163 0.09462 0.0
C3209 C 0.93281 0.77237 0.09558 0.0
C3210 C 0.9682 0.75568 0.09562 0.0
C3211 C 0.0008 0.77671 0.09477 0.0
C3212 C 0.03511 0.75142 0.09414 0.0
C3213 C 0.0565 0.7571 0.08168 0.0
C3214 C 0.06088 0.75787 0.10558 0.0
C3215 C 0.01662 0.71297 0.09467 0.0
C3216 C 0.97805 0.71618 0.09569 0.0
C3217 C 0.95473 0.68474 0.09619 0.0
C3218 C 0.97119 0.64899 0.09548 0.0
C3219 C 0.01062 0.64487 0.09414 0.0
C3220 C 0.03356 0.67743 0.09385 0.0
H3221 H 0.08799 0.22877 0.84211 0.0
H3222 H 0.07554 0.35002 0.84456 0.0
H3223 H 0.00675 0.34289 0.84576 0.0
H3224 H 0.01063 0.21457 0.82185 0.0
H3225 H 0.99613 0.17059 0.82879 0.0
H3226 H 0.04465 0.18473 0.82952 0.0
H3227 H 0.04353 0.17833 0.85386 0.0
H3228 H 0.99495 0.16408 0.8532 0.0
H3229 H 0.00864 0.2036 0.86283 0.0
H3230 H 0.93923 0.32313 0.8456 0.0
H3231 H 0.87756 0.29212 0.84312 0.0
H3232 H 0.93341 0.18378 0.84 0.0
C3233 C 0.07077 0.25371 0.84315 0.0
C3234 C 0.08713 0.28996 0.84332 0.0
C3235 C 0.06364 0.322 0.84439 0.0
C3236 C 0.02451 0.31823 0.84514 0.0
C3237 C 0.00917 0.28221 0.84473 0.0
C3238 C 0.0315 0.25047 0.84372 0.0
C3239 C 0.00766 0.21526 0.84252 0.0
C3240 C 0.01522 0.19512 0.82992 0.0
C3241 C 0.01408 0.18876 0.85377 0.0
C3242 C 0.96859 0.23227 0.84284 0.0
C3243 C 0.97009 0.27086 0.84429 0.0
C3244 C 0.93766 0.29287 0.84453 0.0
C3245 C 0.90273 0.27499 0.84312 0.0
C3246 C 0.9005 0.2355 0.84136 0.0
C3247 C 0.93401 0.21399 0.84135 0.0
loop_
_geom_bond_atom_site_label_1
_geom_bond_atom_site_label_2
_geom_bond_distance
_geom_bond_site_symmetry_2
_ccdc_geom_bond_type
Co0 O3 1.970 . S
Co0 N17 1.989 1_545 S
Co0 O25 1.967 . S
Co0 O32 1.920 . S
Co1 O4 1.966 . S
Co1 N10 2.022 . S
Co1 N18 1.993 1_545 S
Co1 O26 1.941 . S
C2 O3 1.258 . S
C2 O4 1.263 . S
O3 Co0 1.970 . S
O3 C2 1.258 . S
O4 Co1 1.966 . S
O4 C2 1.263 . S
C5 O6 1.235 . S
C5 O32 1.289 1_565 S
O6 C5 1.235 . S
C7 C9 1.400 . S
C7 N10 1.351 . S
C7 C12 1.501 1_545 S
C8 C9 1.387 . S
C8 N11 1.341 . S
C9 C7 1.400 . S
C9 C8 1.387 . S
N10 Co1 2.022 . S
N10 C7 1.351 . S
N10 N11 1.365 . S
N11 C8 1.341 . S
N11 N10 1.365 . S
N11 H31 0.862 . S
C12 C7 1.501 1_565 S
C12 H13 0.961 . S
C12 H14 0.961 . S
C12 H15 0.960 1_565 S
H13 C12 0.961 . S
H14 C12 0.961 . S
H15 C12 0.960 1_545 S
C16 N17 1.342 . S
C16 C20 1.401 . S
C16 C21 1.499 . S
N17 Co0 1.989 1_565 S
N17 C16 1.342 . S
N17 N18 1.388 . S
N18 Co1 1.993 1_565 S
N18 N17 1.388 . S
N18 C19 1.346 . S
C19 N18 1.346 . S
C19 C20 1.396 . S
C19 C29 1.510 . S
C20 C16 1.401 . S
C20 C19 1.396 . S
C21 C16 1.499 . S
C21 H22 0.959 . S
C21 H23 0.960 . S
C21 H24 0.961 . S
H22 C21 0.959 . S
H23 C21 0.960 . S
H24 C21 0.961 . S
O25 Co0 1.967 . S
O25 C33 1.258 . S
O26 Co1 1.941 . S
O26 C33 1.266 . S
H27 C29 0.959 . S
H28 C29 0.961 . S
C29 C19 1.510 . S
C29 H27 0.959 . S
C29 H28 0.961 . S
C29 H30 0.960 . S
H30 C29 0.960 . S
H31 N11 0.862 . S
O32 Co0 1.920 . S
O32 C5 1.289 1_545 S
C33 O25 1.258 . S
C33 O26 1.266 . S
Co34 O37 1.970 . S
Co34 N51 1.989 . S
Co34 O59 1.967 . S
Co34 O66 1.920 . S
Co35 O38 1.966 . S
Co35 N44 2.022 . S
Co35 N52 1.993 . S
Co35 O60 1.941 . S
C36 O37 1.258 . S
C36 O38 1.263 . S
O37 Co34 1.970 . S
O37 C36 1.258 . S
O38 Co35 1.966 . S
O38 C36 1.263 . S
C39 O40 1.235 . S
C39 O66 1.289 . S
O40 C39 1.235 . S
C41 C43 1.400 . S
C41 N44 1.351 . S
C41 C46 1.501 . S
C42 C43 1.387 . S
C42 N45 1.341 . S
C43 C41 1.400 . S
C43 C42 1.387 . S
N44 Co35 2.022 . S
N44 C41 1.351 . S
N44 N45 1.365 . S
N45 C42 1.341 . S
N45 N44 1.365 . S
N45 H65 0.862 . S
C46 C41 1.501 . S
C46 H47 0.961 . S
C46 H48 0.961 . S
C46 H49 0.960 . S
H47 C46 0.961 . S
H48 C46 0.961 . S
H49 C46 0.960 . S
C50 N51 1.342 . S
C50 C54 1.401 . S
C50 C55 1.499 . S
N51 Co34 1.989 . S
N51 C50 1.342 . S
N51 N52 1.388 . S
N52 Co35 1.993 . S
N52 N51 1.388 . S
N52 C53 1.346 . S
C53 N52 1.346 . S
C53 C54 1.396 . S
C53 C63 1.510 . S
C54 C50 1.401 . S
C54 C53 1.396 . S
C55 C50 1.499 . S
C55 H56 0.959 . S
C55 H57 0.960 . S
C55 H58 0.961 . S
H56 C55 0.959 . S
H57 C55 0.960 . S
H58 C55 0.961 . S
O59 Co34 1.967 . S
O59 C67 1.258 . S
O60 Co35 1.941 . S
O60 C67 1.266 . S
H61 C63 0.959 . S
H62 C63 0.961 . S
C63 C53 1.510 . S
C63 H61 0.959 . S
C63 H62 0.961 . S
C63 H64 0.960 . S
H64 C63 0.960 . S
H65 N45 0.862 . S
O66 Co34 1.920 . S
O66 C39 1.289 . S
C67 O59 1.258 . S
C67 O60 1.266 . S
Co68 O71 1.970 1_655 S
Co68 N85 1.989 1_665 S
Co68 O93 1.967 1_655 S
Co68 O100 1.920 . S
Co69 O72 1.966 . S
Co69 N78 2.022 . S
Co69 N86 1.993 1_565 S
Co69 O94 1.941 . S
C70 O71 1.258 . S
C70 O72 1.263 . S
O71 Co68 1.970 1_455 S
O71 C70 1.258 . S
O72 Co69 1.966 . S
O72 C70 1.263 . S
C73 O74 1.235 . S
C73 O100 1.289 1_545 S
O74 C73 1.235 . S
C75 C77 1.400 . S
C75 N78 1.351 . S
C75 C80 1.501 1_565 S
C76 C77 1.387 . S
C76 N79 1.341 . S
C77 C75 1.400 . S
C77 C76 1.387 . S
N78 Co69 2.022 . S
N78 C75 1.351 . S
N78 N79 1.365 . S
N79 C76 1.341 . S
N79 N78 1.365 . S
N79 H99 0.862 . S
C80 C75 1.501 1_545 S
C80 H81 0.961 . S
C80 H82 0.961 . S
C80 H83 0.960 1_545 S
H81 C80 0.961 . S
H82 C80 0.961 . S
H83 C80 0.960 1_565 S
C84 N85 1.342 . S
C84 C88 1.401 . S
C84 C89 1.499 1_455 S
N85 Co68 1.989 1_445 S
N85 C84 1.342 . S
N85 N86 1.388 . S
N86 Co69 1.993 1_545 S
N86 N85 1.388 . S
N86 C87 1.346 . S
C87 N86 1.346 . S
C87 C88 1.396 . S
C87 C97 1.510 . S
C88 C84 1.401 . S
C88 C87 1.396 . S
C89 C84 1.499 1_655 S
C89 H90 0.959 . S
C89 H91 0.960 . S
C89 H92 0.961 . S
H90 C89 0.959 . S
H91 C89 0.960 . S
H92 C89 0.961 . S
O93 Co68 1.967 1_455 S
O93 C101 1.258 . S
O94 Co69 1.941 . S
O94 C101 1.266 . S
H95 C97 0.959 . S
H96 C97 0.961 . S
C97 C87 1.510 . S
C97 H95 0.959 . S
C97 H96 0.961 . S
C97 H98 0.960 . S
H98 C97 0.960 . S
H99 N79 0.862 . S
O100 Co68 1.920 . S
O100 C73 1.289 1_565 S
C101 O93 1.258 . S
C101 O94 1.266 . S
Co102 O105 1.970 . S
Co102 N119 1.989 . S
Co102 O127 1.967 . S
Co102 O134 1.920 . S
Co103 O106 1.966 . S
Co103 N112 2.022 . S
Co103 N120 1.993 . S
Co103 O128 1.941 . S
C104 O105 1.258 . S
C104 O106 1.263 . S
O105 Co102 1.970 . S
O105 C104 1.258 . S
O106 Co103 1.966 . S
O106 C104 1.263 . S
C107 O108 1.235 . S
C107 O134 1.289 . S
O108 C107 1.235 . S
C109 C111 1.400 . S
C109 N112 1.351 . S
C109 C114 1.501 . S
C110 C111 1.387 . S
C110 N113 1.341 . S
C111 C109 1.400 . S
C111 C110 1.387 . S
N112 Co103 2.022 . S
N112 C109 1.351 . S
N112 N113 1.365 . S
N113 C110 1.341 . S
N113 N112 1.365 . S
N113 H133 0.862 . S
C114 C109 1.501 . S
C114 H115 0.961 . S
C114 H116 0.961 . S
C114 H117 0.960 . S
H115 C114 0.961 . S
H116 C114 0.961 . S
H117 C114 0.960 . S
C118 N119 1.342 . S
C118 C122 1.401 . S
C118 C123 1.499 . S
N119 Co102 1.989 . S
N119 C118 1.342 . S
N119 N120 1.388 . S
N120 Co103 1.993 . S
N120 N119 1.388 . S
N120 C121 1.346 . S
C121 N120 1.346 . S
C121 C122 1.396 . S
C121 C131 1.510 . S
C122 C118 1.401 . S
C122 C121 1.396 . S
C123 C118 1.499 . S
C123 H124 0.959 . S
C123 H125 0.960 . S
C123 H126 0.961 . S
H124 C123 0.959 . S
H125 C123 0.960 . S
H126 C123 0.961 . S
O127 Co102 1.967 . S
O127 C135 1.258 . S
O128 Co103 1.941 . S
O128 C135 1.266 . S
H129 C131 0.959 . S
H130 C131 0.961 . S
C131 C121 1.510 . S
C131 H129 0.959 . S
C131 H130 0.961 . S
C131 H132 0.960 . S
H132 C131 0.960 . S
H133 N113 0.862 . S
O134 Co102 1.920 . S
O134 C107 1.289 . S
C135 O127 1.258 . S
C135 O128 1.266 . S
Co136 O139 1.970 . S
Co136 N153 1.989 1_565 S
Co136 O161 1.967 . S
Co136 O168 1.920 . S
Co137 O140 1.966 . S
Co137 N146 2.022 . S
Co137 N154 1.993 1_565 S
Co137 O162 1.941 . S
C138 O139 1.258 . S
C138 O140 1.263 . S
O139 Co136 1.970 . S
O139 C138 1.258 . S
O140 Co137 1.966 . S
O140 C138 1.263 . S
C141 O142 1.235 . S
C141 O168 1.289 1_545 S
O142 C141 1.235 . S
C143 C145 1.400 . S
C143 N146 1.351 . S
C143 C148 1.501 1_565 S
C144 C145 1.387 . S
C144 N147 1.341 . S
C145 C143 1.400 . S
C145 C144 1.387 . S
N146 Co137 2.022 . S
N146 C143 1.351 . S
N146 N147 1.365 . S
N147 C144 1.341 . S
N147 N146 1.365 . S
N147 H167 0.862 . S
C148 C143 1.501 1_545 S
C148 H149 0.961 . S
C148 H150 0.961 . S
C148 H151 0.960 1_545 S
H149 C148 0.961 . S
H150 C148 0.961 . S
H151 C148 0.960 1_565 S
C152 N153 1.342 . S
C152 C156 1.401 . S
C152 C157 1.499 . S
N153 Co136 1.989 1_545 S
N153 C152 1.342 . S
N153 N154 1.388 . S
N154 Co137 1.993 1_545 S
N154 N153 1.388 . S
N154 C155 1.346 . S
C155 N154 1.346 . S
C155 C156 1.396 . S
C155 C165 1.510 . S
C156 C152 1.401 . S
C156 C155 1.396 . S
C157 C152 1.499 . S
C157 H158 0.959 . S
C157 H159 0.960 . S
C157 H160 0.961 . S
H158 C157 0.959 . S
H159 C157 0.960 . S
H160 C157 0.961 . S
O161 Co136 1.967 . S
O161 C169 1.258 . S
O162 Co137 1.941 . S
O162 C169 1.266 . S
H163 C165 0.959 . S
H164 C165 0.961 . S
C165 C155 1.510 . S
C165 H163 0.959 . S
C165 H164 0.961 . S
C165 H166 0.960 . S
H166 C165 0.960 . S
H167 N147 0.862 . S
O168 Co136 1.920 . S
O168 C141 1.289 1_565 S
C169 O161 1.258 . S
C169 O162 1.266 . S
Co170 O173 1.970 . S
Co170 N187 1.989 . S
Co170 O195 1.967 . S
Co170 O202 1.920 . S
Co171 O174 1.966 . S
Co171 N180 2.022 . S
Co171 N188 1.993 . S
Co171 O196 1.941 . S
C172 O173 1.258 . S
C172 O174 1.263 . S
O173 Co170 1.970 . S
O173 C172 1.258 . S
O174 Co171 1.966 . S
O174 C172 1.263 . S
C175 O176 1.235 . S
C175 O202 1.289 . S
O176 C175 1.235 . S
C177 C179 1.400 . S
C177 N180 1.351 . S
C177 C182 1.501 . S
C178 C179 1.387 . S
C178 N181 1.341 . S
C179 C177 1.400 . S
C179 C178 1.387 . S
N180 Co171 2.022 . S
N180 C177 1.351 . S
N180 N181 1.365 . S
N181 C178 1.341 . S
N181 N180 1.365 . S
N181 H201 0.862 . S
C182 C177 1.501 . S
C182 H183 0.961 . S
C182 H184 0.961 . S
C182 H185 0.960 . S
H183 C182 0.961 . S
H184 C182 0.961 . S
H185 C182 0.960 . S
C186 N187 1.342 . S
C186 C190 1.401 . S
C186 C191 1.499 . S
N187 Co170 1.989 . S
N187 C186 1.342 . S
N187 N188 1.388 . S
N188 Co171 1.993 . S
N188 N187 1.388 . S
N188 C189 1.346 . S
C189 N188 1.346 . S
C189 C190 1.396 . S
C189 C199 1.510 . S
C190 C186 1.401 . S
C190 C189 1.396 . S
C191 C186 1.499 . S
C191 H192 0.959 . S
C191 H193 0.960 . S
C191 H194 0.961 . S
H192 C191 0.959 . S
H193 C191 0.960 . S
H194 C191 0.961 . S
O195 Co170 1.967 . S
O195 C203 1.258 . S
O196 Co171 1.941 . S
O196 C203 1.266 . S
H197 C199 0.959 . S
H198 C199 0.961 . S
C199 C189 1.510 . S
C199 H197 0.959 . S
C199 H198 0.961 . S
C199 H200 0.960 . S
H200 C199 0.960 . S
H201 N181 0.862 . S
O202 Co170 1.920 . S
O202 C175 1.289 . S
C203 O195 1.258 . S
C203 O196 1.266 . S
Co204 O207 1.970 1_655 S
Co204 N221 1.989 1_645 S
Co204 O229 1.967 1_655 S
Co204 O236 1.920 . S
Co205 O208 1.966 . S
Co205 N214 2.022 . S
Co205 N222 1.993 1_545 S
Co205 O230 1.941 . S
C206 O207 1.258 . S
C206 O208 1.263 . S
O207 Co204 1.970 1_455 S
O207 C206 1.258 . S
O208 Co205 1.966 . S
O208 C206 1.263 . S
C209 O210 1.235 . S
C209 O236 1.289 1_565 S
O210 C209 1.235 . S
C211 C213 1.400 . S
C211 N214 1.351 . S
C211 C216 1.501 1_545 S
C212 C213 1.387 . S
C212 N215 1.341 . S
C213 C211 1.400 . S
C213 C212 1.387 . S
N214 Co205 2.022 . S
N214 C211 1.351 . S
N214 N215 1.365 . S
N215 C212 1.341 . S
N215 N214 1.365 . S
N215 H235 0.862 . S
C216 C211 1.501 1_565 S
C216 H217 0.961 . S
C216 H218 0.961 . S
C216 H219 0.960 1_565 S
H217 C216 0.961 . S
H218 C216 0.961 . S
H219 C216 0.960 1_545 S
C220 N221 1.342 . S
C220 C224 1.401 . S
C220 C225 1.499 1_455 S
N221 Co204 1.989 1_465 S
N221 C220 1.342 . S
N221 N222 1.388 . S
N222 Co205 1.993 1_565 S
N222 N221 1.388 . S
N222 C223 1.346 . S
C223 N222 1.346 . S
C223 C224 1.396 . S
C223 C233 1.510 . S
C224 C220 1.401 . S
C224 C223 1.396 . S
C225 C220 1.499 1_655 S
C225 H226 0.959 . S
C225 H227 0.960 . S
C225 H228 0.961 . S
H226 C225 0.959 . S
H227 C225 0.960 . S
H228 C225 0.961 . S
O229 Co204 1.967 1_455 S
O229 C237 1.258 . S
O230 Co205 1.941 . S
O230 C237 1.266 . S
H231 C233 0.959 . S
H232 C233 0.961 . S
C233 C223 1.510 . S
C233 H231 0.959 . S
C233 H232 0.961 . S
C233 H234 0.960 . S
H234 C233 0.960 . S
H235 N215 0.862 . S
O236 Co204 1.920 . S
O236 C209 1.289 1_545 S
C237 O229 1.258 . S
C237 O230 1.266 . S
Co238 O241 1.970 . S
Co238 N255 1.989 . S
Co238 O263 1.967 . S
Co238 O270 1.920 . S
Co239 O242 1.966 . S
Co239 N248 2.022 . S
Co239 N256 1.993 . S
Co239 O264 1.941 . S
C240 O241 1.258 . S
C240 O242 1.263 . S
O241 Co238 1.970 . S
O241 C240 1.258 . S
O242 Co239 1.966 . S
O242 C240 1.263 . S
C243 O244 1.235 . S
C243 O270 1.289 . S
O244 C243 1.235 . S
C245 C247 1.400 . S
C245 N248 1.351 . S
C245 C250 1.501 . S
C246 C247 1.387 . S
C246 N249 1.341 . S
C247 C245 1.400 . S
C247 C246 1.387 . S
N248 Co239 2.022 . S
N248 C245 1.351 . S
N248 N249 1.365 . S
N249 C246 1.341 . S
N249 N248 1.365 . S
N249 H269 0.862 . S
C250 C245 1.501 . S
C250 H251 0.961 . S
C250 H252 0.961 . S
C250 H253 0.960 . S
H251 C250 0.961 . S
H252 C250 0.961 . S
H253 C250 0.960 . S
C254 N255 1.342 . S
C254 C258 1.401 . S
C254 C259 1.499 . S
N255 Co238 1.989 . S
N255 C254 1.342 . S
N255 N256 1.388 . S
N256 Co239 1.993 . S
N256 N255 1.388 . S
N256 C257 1.346 . S
C257 N256 1.346 . S
C257 C258 1.396 . S
C257 C267 1.510 . S
C258 C254 1.401 . S
C258 C257 1.396 . S
C259 C254 1.499 . S
C259 H260 0.959 . S
C259 H261 0.960 . S
C259 H262 0.961 . S
H260 C259 0.959 . S
H261 C259 0.960 . S
H262 C259 0.961 . S
O263 Co238 1.967 . S
O263 C271 1.258 . S
O264 Co239 1.941 . S
O264 C271 1.266 . S
H265 C267 0.959 . S
H266 C267 0.961 . S
C267 C257 1.510 . S
C267 H265 0.959 . S
C267 H266 0.961 . S
C267 H268 0.960 . S
H268 C267 0.960 . S
H269 N249 0.862 . S
O270 Co238 1.920 . S
O270 C243 1.289 . S
C271 O263 1.258 . S
C271 O264 1.266 . S
Co272 O275 1.970 . S
Co272 N289 1.989 1_565 S
Co272 O297 1.967 . S
Co272 O304 1.920 . S
Co273 O276 1.966 . S
Co273 N282 2.022 . S
Co273 N290 1.993 1_565 S
Co273 O298 1.941 . S
C274 O275 1.258 . S
C274 O276 1.263 . S
O275 Co272 1.970 . S
O275 C274 1.258 . S
O276 Co273 1.966 . S
O276 C274 1.263 . S
C277 O278 1.235 . S
C277 O304 1.289 1_545 S
O278 C277 1.235 . S
C279 C281 1.400 . S
C279 N282 1.351 . S
C279 C284 1.501 1_565 S
C280 C281 1.387 . S
C280 N283 1.341 . S
C281 C279 1.400 . S
C281 C280 1.387 . S
N282 Co273 2.022 . S
N282 C279 1.351 . S
N282 N283 1.365 . S
N283 C280 1.341 . S
N283 N282 1.365 . S
N283 H303 0.862 . S
C284 C279 1.501 1_545 S
C284 H285 0.961 . S
C284 H286 0.961 . S
C284 H287 0.960 1_545 S
H285 C284 0.961 . S
H286 C284 0.961 . S
H287 C284 0.960 1_565 S
C288 N289 1.342 . S
C288 C292 1.401 . S
C288 C293 1.499 . S
N289 Co272 1.989 1_545 S
N289 C288 1.342 . S
N289 N290 1.388 . S
N290 Co273 1.993 1_545 S
N290 N289 1.388 . S
N290 C291 1.346 . S
C291 N290 1.346 . S
C291 C292 1.396 . S
C291 C301 1.510 . S
C292 C288 1.401 . S
C292 C291 1.396 . S
C293 C288 1.499 . S
C293 H294 0.959 . S
C293 H295 0.960 . S
C293 H296 0.961 . S
H294 C293 0.959 . S
H295 C293 0.960 . S
H296 C293 0.961 . S
O297 Co272 1.967 . S
O297 C305 1.258 . S
O298 Co273 1.941 . S
O298 C305 1.266 . S
H299 C301 0.959 . S
H300 C301 0.961 . S
C301 C291 1.510 . S
C301 H299 0.959 . S
C301 H300 0.961 . S
C301 H302 0.960 . S
H302 C301 0.960 . S
H303 N283 0.862 . S
O304 Co272 1.920 . S
O304 C277 1.289 1_565 S
C305 O297 1.258 . S
C305 O298 1.266 . S
Co306 O309 1.970 . S
Co306 N323 1.989 . S
Co306 O331 1.967 . S
Co306 O338 1.920 . S
Co307 O310 1.966 . S
Co307 N316 2.022 . S
Co307 N324 1.993 . S
Co307 O332 1.941 . S
C308 O309 1.258 . S
C308 O310 1.263 . S
O309 Co306 1.970 . S
O309 C308 1.258 . S
O310 Co307 1.966 . S
O310 C308 1.263 . S
C311 O312 1.235 . S
C311 O338 1.289 . S
O312 C311 1.235 . S
C313 C315 1.400 . S
C313 N316 1.351 . S
C313 C318 1.501 . S
C314 C315 1.387 . S
C314 N317 1.341 . S
C315 C313 1.400 . S
C315 C314 1.387 . S
N316 Co307 2.022 . S
N316 C313 1.351 . S
N316 N317 1.365 . S
N317 C314 1.341 . S
N317 N316 1.365 . S
N317 H337 0.862 . S
C318 C313 1.501 . S
C318 H319 0.961 . S
C318 H320 0.961 . S
C318 H321 0.960 . S
H319 C318 0.961 . S
H320 C318 0.961 . S
H321 C318 0.960 . S
C322 N323 1.342 . S
C322 C326 1.401 . S
C322 C327 1.499 . S
N323 Co306 1.989 . S
N323 C322 1.342 . S
N323 N324 1.388 . S
N324 Co307 1.993 . S
N324 N323 1.388 . S
N324 C325 1.346 . S
C325 N324 1.346 . S
C325 C326 1.396 . S
C325 C335 1.510 . S
C326 C322 1.401 . S
C326 C325 1.396 . S
C327 C322 1.499 . S
C327 H328 0.959 . S
C327 H329 0.960 . S
C327 H330 0.961 . S
H328 C327 0.959 . S
H329 C327 0.960 . S
H330 C327 0.961 . S
O331 Co306 1.967 . S
O331 C339 1.258 . S
O332 Co307 1.941 . S
O332 C339 1.266 . S
H333 C335 0.959 . S
H334 C335 0.961 . S
C335 C325 1.510 . S
C335 H333 0.959 . S
C335 H334 0.961 . S
C335 H336 0.960 . S
H336 C335 0.960 . S
H337 N317 0.862 . S
O338 Co306 1.920 . S
O338 C311 1.289 . S
C339 O331 1.258 . S
C339 O332 1.266 . S
Co340 O343 1.970 1_455 S
Co340 N357 1.989 1_445 S
Co340 O365 1.967 1_455 S
Co340 O372 1.920 . S
Co341 O344 1.966 . S
Co341 N350 2.022 . S
Co341 N358 1.993 1_545 S
Co341 O366 1.941 . S
C342 O343 1.258 . S
C342 O344 1.263 . S
O343 Co340 1.970 1_655 S
O343 C342 1.258 . S
O344 Co341 1.966 . S
O344 C342 1.263 . S
C345 O346 1.235 . S
C345 O372 1.289 1_565 S
O346 C345 1.235 . S
C347 C349 1.400 . S
C347 N350 1.351 . S
C347 C352 1.501 1_545 S
C348 C349 1.387 . S
C348 N351 1.341 . S
C349 C347 1.400 . S
C349 C348 1.387 . S
N350 Co341 2.022 . S
N350 C347 1.351 . S
N350 N351 1.365 . S
N351 C348 1.341 . S
N351 N350 1.365 . S
N351 H371 0.862 . S
C352 C347 1.501 1_565 S
C352 H353 0.961 . S
C352 H354 0.961 . S
C352 H355 0.960 1_565 S
H353 C352 0.961 . S
H354 C352 0.961 . S
H355 C352 0.960 1_545 S
C356 N357 1.342 . S
C356 C360 1.401 . S
C356 C361 1.499 1_655 S
N357 Co340 1.989 1_665 S
N357 C356 1.342 . S
N357 N358 1.388 . S
N358 Co341 1.993 1_565 S
N358 N357 1.388 . S
N358 C359 1.346 . S
C359 N358 1.346 . S
C359 C360 1.396 . S
C359 C369 1.510 . S
C360 C356 1.401 . S
C360 C359 1.396 . S
C361 C356 1.499 1_455 S
C361 H362 0.959 . S
C361 H363 0.960 . S
C361 H364 0.961 . S
H362 C361 0.959 . S
H363 C361 0.960 . S
H364 C361 0.961 . S
O365 Co340 1.967 1_655 S
O365 C373 1.258 . S
O366 Co341 1.941 . S
O366 C373 1.266 . S
H367 C369 0.959 . S
H368 C369 0.961 . S
C369 C359 1.510 . S
C369 H367 0.959 . S
C369 H368 0.961 . S
C369 H370 0.960 . S
H370 C369 0.960 . S
H371 N351 0.862 . S
O372 Co340 1.920 . S
O372 C345 1.289 1_545 S
C373 O365 1.258 . S
C373 O366 1.266 . S
Co374 O377 1.970 . S
Co374 N391 1.989 . S
Co374 O399 1.967 . S
Co374 O406 1.920 . S
Co375 O378 1.966 . S
Co375 N384 2.022 . S
Co375 N392 1.993 . S
Co375 O400 1.941 . S
C376 O377 1.258 . S
C376 O378 1.263 . S
O377 Co374 1.970 . S
O377 C376 1.258 . S
O378 Co375 1.966 . S
O378 C376 1.263 . S
C379 O380 1.235 . S
C379 O406 1.289 . S
O380 C379 1.235 . S
C381 C383 1.400 . S
C381 N384 1.351 . S
C381 C386 1.501 . S
C382 C383 1.387 . S
C382 N385 1.341 . S
C383 C381 1.400 . S
C383 C382 1.387 . S
N384 Co375 2.022 . S
N384 C381 1.351 . S
N384 N385 1.365 . S
N385 C382 1.341 . S
N385 N384 1.365 . S
N385 H405 0.862 . S
C386 C381 1.501 . S
C386 H387 0.961 . S
C386 H388 0.961 . S
C386 H389 0.960 . S
H387 C386 0.961 . S
H388 C386 0.961 . S
H389 C386 0.960 . S
C390 N391 1.342 . S
C390 C394 1.401 . S
C390 C395 1.499 . S
N391 Co374 1.989 . S
N391 C390 1.342 . S
N391 N392 1.388 . S
N392 Co375 1.993 . S
N392 N391 1.388 . S
N392 C393 1.346 . S
C393 N392 1.346 . S
C393 C394 1.396 . S
C393 C403 1.510 . S
C394 C390 1.401 . S
C394 C393 1.396 . S
C395 C390 1.499 . S
C395 H396 0.959 . S
C395 H397 0.960 . S
C395 H398 0.961 . S
H396 C395 0.959 . S
H397 C395 0.960 . S
H398 C395 0.961 . S
O399 Co374 1.967 . S
O399 C407 1.258 . S
O400 Co375 1.941 . S
O400 C407 1.266 . S
H401 C403 0.959 . S
H402 C403 0.961 . S
C403 C393 1.510 . S
C403 H401 0.959 . S
C403 H402 0.961 . S
C403 H404 0.960 . S
H404 C403 0.960 . S
H405 N385 0.862 . S
O406 Co374 1.920 . S
O406 C379 1.289 . S
C407 O399 1.258 . S
C407 O400 1.266 . S
Co408 O411 1.970 . S
Co408 N425 1.989 1_545 S
Co408 O433 1.967 . S
Co408 O440 1.920 . S
Co409 O412 1.966 . S
Co409 N418 2.022 . S
Co409 N426 1.993 1_545 S
Co409 O434 1.941 . S
C410 O411 1.258 . S
C410 O412 1.263 . S
O411 Co408 1.970 . S
O411 C410 1.258 . S
O412 Co409 1.966 . S
O412 C410 1.263 . S
C413 O414 1.235 . S
C413 O440 1.289 1_565 S
O414 C413 1.235 . S
C415 C417 1.400 . S
C415 N418 1.351 . S
C415 C420 1.501 1_545 S
C416 C417 1.387 . S
C416 N419 1.341 . S
C417 C415 1.400 . S
C417 C416 1.387 . S
N418 Co409 2.022 . S
N418 C415 1.351 . S
N418 N419 1.365 . S
N419 C416 1.341 . S
N419 N418 1.365 . S
N419 H439 0.862 . S
C420 C415 1.501 1_565 S
C420 H421 0.961 . S
C420 H422 0.961 . S
C420 H423 0.960 1_565 S
H421 C420 0.961 . S
H422 C420 0.961 . S
H423 C420 0.960 1_545 S
C424 N425 1.342 . S
C424 C428 1.401 . S
C424 C429 1.499 . S
N425 Co408 1.989 1_565 S
N425 C424 1.342 . S
N425 N426 1.388 . S
N426 Co409 1.993 1_565 S
N426 N425 1.388 . S
N426 C427 1.346 . S
C427 N426 1.346 . S
C427 C428 1.396 . S
C427 C437 1.510 . S
C428 C424 1.401 . S
C428 C427 1.396 . S
C429 C424 1.499 . S
C429 H430 0.959 . S
C429 H431 0.960 . S
C429 H432 0.961 . S
H430 C429 0.959 . S
H431 C429 0.960 . S
H432 C429 0.961 . S
O433 Co408 1.967 . S
O433 C441 1.258 . S
O434 Co409 1.941 . S
O434 C441 1.266 . S
H435 C437 0.959 . S
H436 C437 0.961 . S
C437 C427 1.510 . S
C437 H435 0.959 . S
C437 H436 0.961 . S
C437 H438 0.960 . S
H438 C437 0.960 . S
H439 N419 0.862 . S
O440 Co408 1.920 . S
O440 C413 1.289 1_545 S
C441 O433 1.258 . S
C441 O434 1.266 . S
Co442 O445 1.970 . S
Co442 N459 1.989 . S
Co442 O467 1.967 . S
Co442 O474 1.920 . S
Co443 O446 1.966 . S
Co443 N452 2.022 . S
Co443 N460 1.993 . S
Co443 O468 1.941 . S
C444 O445 1.258 . S
C444 O446 1.263 . S
O445 Co442 1.970 . S
O445 C444 1.258 . S
O446 Co443 1.966 . S
O446 C444 1.263 . S
C447 O448 1.235 . S
C447 O474 1.289 . S
O448 C447 1.235 . S
C449 C451 1.400 . S
C449 N452 1.351 . S
C449 C454 1.501 . S
C450 C451 1.387 . S
C450 N453 1.341 . S
C451 C449 1.400 . S
C451 C450 1.387 . S
N452 Co443 2.022 . S
N452 C449 1.351 . S
N452 N453 1.365 . S
N453 C450 1.341 . S
N453 N452 1.365 . S
N453 H473 0.862 . S
C454 C449 1.501 . S
C454 H455 0.961 . S
C454 H456 0.961 . S
C454 H457 0.960 . S
H455 C454 0.961 . S
H456 C454 0.961 . S
H457 C454 0.960 . S
C458 N459 1.342 . S
C458 C462 1.401 . S
C458 C463 1.499 . S
N459 Co442 1.989 . S
N459 C458 1.342 . S
N459 N460 1.388 . S
N460 Co443 1.993 . S
N460 N459 1.388 . S
N460 C461 1.346 . S
C461 N460 1.346 . S
C461 C462 1.396 . S
C461 C471 1.510 . S
C462 C458 1.401 . S
C462 C461 1.396 . S
C463 C458 1.499 . S
C463 H464 0.959 . S
C463 H465 0.960 . S
C463 H466 0.961 . S
H464 C463 0.959 . S
H465 C463 0.960 . S
H466 C463 0.961 . S
O467 Co442 1.967 . S
O467 C475 1.258 . S
O468 Co443 1.941 . S
O468 C475 1.266 . S
H469 C471 0.959 . S
H470 C471 0.961 . S
C471 C461 1.510 . S
C471 H469 0.959 . S
C471 H470 0.961 . S
C471 H472 0.960 . S
H472 C471 0.960 . S
H473 N453 0.862 . S
O474 Co442 1.920 . S
O474 C447 1.289 . S
C475 O467 1.258 . S
C475 O468 1.266 . S
Co476 O479 1.970 1_455 S
Co476 N493 1.989 1_465 S
Co476 O501 1.967 1_455 S
Co476 O508 1.920 . S
Co477 O480 1.966 . S
Co477 N486 2.022 . S
Co477 N494 1.993 1_565 S
Co477 O502 1.941 . S
C478 O479 1.258 . S
C478 O480 1.263 . S
O479 Co476 1.970 1_655 S
O479 C478 1.258 . S
O480 Co477 1.966 . S
O480 C478 1.263 . S
C481 O482 1.235 . S
C481 O508 1.289 1_545 S
O482 C481 1.235 . S
C483 C485 1.400 . S
C483 N486 1.351 . S
C483 C488 1.501 1_565 S
C484 C485 1.387 . S
C484 N487 1.341 . S
C485 C483 1.400 . S
C485 C484 1.387 . S
N486 Co477 2.022 . S
N486 C483 1.351 . S
N486 N487 1.365 . S
N487 C484 1.341 . S
N487 N486 1.365 . S
N487 H507 0.862 . S
C488 C483 1.501 1_545 S
C488 H489 0.961 . S
C488 H490 0.961 . S
C488 H491 0.960 1_545 S
H489 C488 0.961 . S
H490 C488 0.961 . S
H491 C488 0.960 1_565 S
C492 N493 1.342 . S
C492 C496 1.401 . S
C492 C497 1.499 1_655 S
N493 Co476 1.989 1_645 S
N493 C492 1.342 . S
N493 N494 1.388 . S
N494 Co477 1.993 1_545 S
N494 N493 1.388 . S
N494 C495 1.346 . S
C495 N494 1.346 . S
C495 C496 1.396 . S
C495 C505 1.510 . S
C496 C492 1.401 . S
C496 C495 1.396 . S
C497 C492 1.499 1_455 S
C497 H498 0.959 . S
C497 H499 0.960 . S
C497 H500 0.961 . S
H498 C497 0.959 . S
H499 C497 0.960 . S
H500 C497 0.961 . S
O501 Co476 1.967 1_655 S
O501 C509 1.258 . S
O502 Co477 1.941 . S
O502 C509 1.266 . S
H503 C505 0.959 . S
H504 C505 0.961 . S
C505 C495 1.510 . S
C505 H503 0.959 . S
C505 H504 0.961 . S
C505 H506 0.960 . S
H506 C505 0.960 . S
H507 N487 0.862 . S
O508 Co476 1.920 . S
O508 C481 1.289 1_565 S
C509 O501 1.258 . S
C509 O502 1.266 . S
Co510 O513 1.970 . S
Co510 N527 1.989 . S
Co510 O535 1.967 . S
Co510 O542 1.920 . S
Co511 O514 1.966 . S
Co511 N520 2.022 . S
Co511 N528 1.993 . S
Co511 O536 1.941 . S
C512 O513 1.258 . S
C512 O514 1.263 . S
O513 Co510 1.970 . S
O513 C512 1.258 . S
O514 Co511 1.966 . S
O514 C512 1.263 . S
C515 O516 1.235 . S
C515 O542 1.289 . S
O516 C515 1.235 . S
C517 C519 1.400 . S
C517 N520 1.351 . S
C517 C522 1.501 . S
C518 C519 1.387 . S
C518 N521 1.341 . S
C519 C517 1.400 . S
C519 C518 1.387 . S
N520 Co511 2.022 . S
N520 C517 1.351 . S
N520 N521 1.365 . S
N521 C518 1.341 . S
N521 N520 1.365 . S
N521 H541 0.862 . S
C522 C517 1.501 . S
C522 H523 0.961 . S
C522 H524 0.961 . S
C522 H525 0.960 . S
H523 C522 0.961 . S
H524 C522 0.961 . S
H525 C522 0.960 . S
C526 N527 1.342 . S
C526 C530 1.401 . S
C526 C531 1.499 . S
N527 Co510 1.989 . S
N527 C526 1.342 . S
N527 N528 1.388 . S
N528 Co511 1.993 . S
N528 N527 1.388 . S
N528 C529 1.346 . S
C529 N528 1.346 . S
C529 C530 1.396 . S
C529 C539 1.510 . S
C530 C526 1.401 . S
C530 C529 1.396 . S
C531 C526 1.499 . S
C531 H532 0.959 . S
C531 H533 0.960 . S
C531 H534 0.961 . S
H532 C531 0.959 . S
H533 C531 0.960 . S
H534 C531 0.961 . S
O535 Co510 1.967 . S
O535 C543 1.258 . S
O536 Co511 1.941 . S
O536 C543 1.266 . S
H537 C539 0.959 . S
H538 C539 0.961 . S
C539 C529 1.510 . S
C539 H537 0.959 . S
C539 H538 0.961 . S
C539 H540 0.960 . S
H540 C539 0.960 . S
H541 N521 0.862 . S
O542 Co510 1.920 . S
O542 C515 1.289 . S
C543 O535 1.258 . S
C543 O536 1.266 . S
Co544 O547 1.970 1_455 S
Co544 N561 1.989 1_455 S
Co544 O569 1.967 1_455 S
Co544 O576 1.920 . S
Co545 O548 1.966 . S
Co545 N554 2.022 . S
Co545 N562 1.993 . S
Co545 O570 1.941 . S
C546 O547 1.258 . S
C546 O548 1.263 . S
O547 Co544 1.970 1_655 S
O547 C546 1.258 . S
O548 Co545 1.966 . S
O548 C546 1.263 . S
C549 O550 1.235 . S
C549 O576 1.289 . S
O550 C549 1.235 . S
C551 C553 1.400 . S
C551 N554 1.351 . S
C551 C556 1.501 . S
C552 C553 1.387 . S
C552 N555 1.341 . S
C553 C551 1.400 . S
C553 C552 1.387 . S
N554 Co545 2.022 . S
N554 C551 1.351 . S
N554 N555 1.365 . S
N555 C552 1.341 . S
N555 N554 1.365 . S
N555 H575 0.862 . S
C556 C551 1.501 . S
C556 H557 0.961 . S
C556 H558 0.961 . S
C556 H559 0.960 . S
H557 C556 0.961 . S
H558 C556 0.961 . S
H559 C556 0.960 . S
C560 N561 1.342 . S
C560 C564 1.401 . S
C560 C565 1.499 1_655 S
N561 Co544 1.989 1_655 S
N561 C560 1.342 . S
N561 N562 1.388 . S
N562 Co545 1.993 . S
N562 N561 1.388 . S
N562 C563 1.346 . S
C563 N562 1.346 . S
C563 C564 1.396 . S
C563 C573 1.510 . S
C564 C560 1.401 . S
C564 C563 1.396 . S
C565 C560 1.499 1_455 S
C565 H566 0.959 . S
C565 H567 0.960 . S
C565 H568 0.961 . S
H566 C565 0.959 . S
H567 C565 0.960 . S
H568 C565 0.961 . S
O569 Co544 1.967 1_655 S
O569 C577 1.258 . S
O570 Co545 1.941 . S
O570 C577 1.266 . S
H571 C573 0.959 . S
H572 C573 0.961 . S
C573 C563 1.510 . S
C573 H571 0.959 . S
C573 H572 0.961 . S
C573 H574 0.960 . S
H574 C573 0.960 . S
H575 N555 0.862 . S
O576 Co544 1.920 . S
O576 C549 1.289 . S
C577 O569 1.258 . S
C577 O570 1.266 . S
Co578 O581 1.970 . S
Co578 N595 1.989 . S
Co578 O603 1.967 . S
Co578 O610 1.920 . S
Co579 O582 1.966 . S
Co579 N588 2.022 . S
Co579 N596 1.993 . S
Co579 O604 1.941 . S
C580 O581 1.258 . S
C580 O582 1.263 . S
O581 Co578 1.970 . S
O581 C580 1.258 . S
O582 Co579 1.966 . S
O582 C580 1.263 . S
C583 O584 1.235 . S
C583 O610 1.289 . S
O584 C583 1.235 . S
C585 C587 1.400 . S
C585 N588 1.351 . S
C585 C590 1.501 . S
C586 C587 1.387 . S
C586 N589 1.341 . S
C587 C585 1.400 . S
C587 C586 1.387 . S
N588 Co579 2.022 . S
N588 C585 1.351 . S
N588 N589 1.365 . S
N589 C586 1.341 . S
N589 N588 1.365 . S
N589 H609 0.862 . S
C590 C585 1.501 . S
C590 H591 0.961 . S
C590 H592 0.961 . S
C590 H593 0.960 . S
H591 C590 0.961 . S
H592 C590 0.961 . S
H593 C590 0.960 . S
C594 N595 1.342 . S
C594 C598 1.401 . S
C594 C599 1.499 . S
N595 Co578 1.989 . S
N595 C594 1.342 . S
N595 N596 1.388 . S
N596 Co579 1.993 . S
N596 N595 1.388 . S
N596 C597 1.346 . S
C597 N596 1.346 . S
C597 C598 1.396 . S
C597 C607 1.510 . S
C598 C594 1.401 . S
C598 C597 1.396 . S
C599 C594 1.499 . S
C599 H600 0.959 . S
C599 H601 0.960 . S
C599 H602 0.961 . S
H600 C599 0.959 . S
H601 C599 0.960 . S
H602 C599 0.961 . S
O603 Co578 1.967 . S
O603 C611 1.258 . S
O604 Co579 1.941 . S
O604 C611 1.266 . S
H605 C607 0.959 . S
H606 C607 0.961 . S
C607 C597 1.510 . S
C607 H605 0.959 . S
C607 H606 0.961 . S
C607 H608 0.960 . S
H608 C607 0.960 . S
H609 N589 0.862 . S
O610 Co578 1.920 . S
O610 C583 1.289 . S
C611 O603 1.258 . S
C611 O604 1.266 . S
Co612 O615 1.970 . S
Co612 N629 1.989 . S
Co612 O637 1.967 . S
Co612 O644 1.920 . S
Co613 O616 1.966 . S
Co613 N622 2.022 . S
Co613 N630 1.993 . S
Co613 O638 1.941 . S
C614 O615 1.258 . S
C614 O616 1.263 . S
O615 Co612 1.970 . S
O615 C614 1.258 . S
O616 Co613 1.966 . S
O616 C614 1.263 . S
C617 O618 1.235 . S
C617 O644 1.289 . S
O618 C617 1.235 . S
C619 C621 1.400 . S
C619 N622 1.351 . S
C619 C624 1.501 . S
C620 C621 1.387 . S
C620 N623 1.341 . S
C621 C619 1.400 . S
C621 C620 1.387 . S
N622 Co613 2.022 . S
N622 C619 1.351 . S
N622 N623 1.365 . S
N623 C620 1.341 . S
N623 N622 1.365 . S
N623 H643 0.862 . S
C624 C619 1.501 . S
C624 H625 0.961 . S
C624 H626 0.961 . S
C624 H627 0.960 . S
H625 C624 0.961 . S
H626 C624 0.961 . S
H627 C624 0.960 . S
C628 N629 1.342 . S
C628 C632 1.401 . S
C628 C633 1.499 . S
N629 Co612 1.989 . S
N629 C628 1.342 . S
N629 N630 1.388 . S
N630 Co613 1.993 . S
N630 N629 1.388 . S
N630 C631 1.346 . S
C631 N630 1.346 . S
C631 C632 1.396 . S
C631 C641 1.510 . S
C632 C628 1.401 . S
C632 C631 1.396 . S
C633 C628 1.499 . S
C633 H634 0.959 . S
C633 H635 0.960 . S
C633 H636 0.961 . S
H634 C633 0.959 . S
H635 C633 0.960 . S
H636 C633 0.961 . S
O637 Co612 1.967 . S
O637 C645 1.258 . S
O638 Co613 1.941 . S
O638 C645 1.266 . S
H639 C641 0.959 . S
H640 C641 0.961 . S
C641 C631 1.510 . S
C641 H639 0.959 . S
C641 H640 0.961 . S
C641 H642 0.960 . S
H642 C641 0.960 . S
H643 N623 0.862 . S
O644 Co612 1.920 . S
O644 C617 1.289 . S
C645 O637 1.258 . S
C645 O638 1.266 . S
Co646 O649 1.970 . S
Co646 N663 1.989 . S
Co646 O671 1.967 . S
Co646 O678 1.920 . S
Co647 O650 1.966 . S
Co647 N656 2.022 . S
Co647 N664 1.993 . S
Co647 O672 1.941 . S
C648 O649 1.258 . S
C648 O650 1.263 . S
O649 Co646 1.970 . S
O649 C648 1.258 . S
O650 Co647 1.966 . S
O650 C648 1.263 . S
C651 O652 1.235 . S
C651 O678 1.289 . S
O652 C651 1.235 . S
C653 C655 1.400 . S
C653 N656 1.351 . S
C653 C658 1.501 . S
C654 C655 1.387 . S
C654 N657 1.341 . S
C655 C653 1.400 . S
C655 C654 1.387 . S
N656 Co647 2.022 . S
N656 C653 1.351 . S
N656 N657 1.365 . S
N657 C654 1.341 . S
N657 N656 1.365 . S
N657 H677 0.862 . S
C658 C653 1.501 . S
C658 H659 0.961 . S
C658 H660 0.961 . S
C658 H661 0.960 . S
H659 C658 0.961 . S
H660 C658 0.961 . S
H661 C658 0.960 . S
C662 N663 1.342 . S
C662 C666 1.401 . S
C662 C667 1.499 . S
N663 Co646 1.989 . S
N663 C662 1.342 . S
N663 N664 1.388 . S
N664 Co647 1.993 . S
N664 N663 1.388 . S
N664 C665 1.346 . S
C665 N664 1.346 . S
C665 C666 1.396 . S
C665 C675 1.510 . S
C666 C662 1.401 . S
C666 C665 1.396 . S
C667 C662 1.499 . S
C667 H668 0.959 . S
C667 H669 0.960 . S
C667 H670 0.961 . S
H668 C667 0.959 . S
H669 C667 0.960 . S
H670 C667 0.961 . S
O671 Co646 1.967 . S
O671 C679 1.258 . S
O672 Co647 1.941 . S
O672 C679 1.266 . S
H673 C675 0.959 . S
H674 C675 0.961 . S
C675 C665 1.510 . S
C675 H673 0.959 . S
C675 H674 0.961 . S
C675 H676 0.960 . S
H676 C675 0.960 . S
H677 N657 0.862 . S
O678 Co646 1.920 . S
O678 C651 1.289 . S
C679 O671 1.258 . S
C679 O672 1.266 . S
Co680 O683 1.970 1_455 S
Co680 N697 1.989 1_455 S
Co680 O705 1.967 1_455 S
Co680 O712 1.920 . S
Co681 O684 1.966 . S
Co681 N690 2.022 . S
Co681 N698 1.993 . S
Co681 O706 1.941 . S
C682 O683 1.258 . S
C682 O684 1.263 . S
O683 Co680 1.970 1_655 S
O683 C682 1.258 . S
O684 Co681 1.966 . S
O684 C682 1.263 . S
C685 O686 1.235 . S
C685 O712 1.289 . S
O686 C685 1.235 . S
C687 C689 1.400 . S
C687 N690 1.351 . S
C687 C692 1.501 . S
C688 C689 1.387 . S
C688 N691 1.341 . S
C689 C687 1.400 . S
C689 C688 1.387 . S
N690 Co681 2.022 . S
N690 C687 1.351 . S
N690 N691 1.365 . S
N691 C688 1.341 . S
N691 N690 1.365 . S
N691 H711 0.862 . S
C692 C687 1.501 . S
C692 H693 0.961 . S
C692 H694 0.961 . S
C692 H695 0.960 . S
H693 C692 0.961 . S
H694 C692 0.961 . S
H695 C692 0.960 . S
C696 N697 1.342 . S
C696 C700 1.401 . S
C696 C701 1.499 1_655 S
N697 Co680 1.989 1_655 S
N697 C696 1.342 . S
N697 N698 1.388 . S
N698 Co681 1.993 . S
N698 N697 1.388 . S
N698 C699 1.346 . S
C699 N698 1.346 . S
C699 C700 1.396 . S
C699 C709 1.510 . S
C700 C696 1.401 . S
C700 C699 1.396 . S
C701 C696 1.499 1_455 S
C701 H702 0.959 . S
C701 H703 0.960 . S
C701 H704 0.961 . S
H702 C701 0.959 . S
H703 C701 0.960 . S
H704 C701 0.961 . S
O705 Co680 1.967 1_655 S
O705 C713 1.258 . S
O706 Co681 1.941 . S
O706 C713 1.266 . S
H707 C709 0.959 . S
H708 C709 0.961 . S
C709 C699 1.510 . S
C709 H707 0.959 . S
C709 H708 0.961 . S
C709 H710 0.960 . S
H710 C709 0.960 . S
H711 N691 0.862 . S
O712 Co680 1.920 . S
O712 C685 1.289 . S
C713 O705 1.258 . S
C713 O706 1.266 . S
Co714 O717 1.970 . S
Co714 N731 1.989 . S
Co714 O739 1.967 . S
Co714 O746 1.920 . S
Co715 O718 1.966 . S
Co715 N724 2.022 . S
Co715 N732 1.993 . S
Co715 O740 1.941 . S
C716 O717 1.258 . S
C716 O718 1.263 . S
O717 Co714 1.970 . S
O717 C716 1.258 . S
O718 Co715 1.966 . S
O718 C716 1.263 . S
C719 O720 1.235 . S
C719 O746 1.289 . S
O720 C719 1.235 . S
C721 C723 1.400 . S
C721 N724 1.351 . S
C721 C726 1.501 . S
C722 C723 1.387 . S
C722 N725 1.341 . S
C723 C721 1.400 . S
C723 C722 1.387 . S
N724 Co715 2.022 . S
N724 C721 1.351 . S
N724 N725 1.365 . S
N725 C722 1.341 . S
N725 N724 1.365 . S
N725 H745 0.862 . S
C726 C721 1.501 . S
C726 H727 0.961 . S
C726 H728 0.961 . S
C726 H729 0.960 . S
H727 C726 0.961 . S
H728 C726 0.961 . S
H729 C726 0.960 . S
C730 N731 1.342 . S
C730 C734 1.401 . S
C730 C735 1.499 . S
N731 Co714 1.989 . S
N731 C730 1.342 . S
N731 N732 1.388 . S
N732 Co715 1.993 . S
N732 N731 1.388 . S
N732 C733 1.346 . S
C733 N732 1.346 . S
C733 C734 1.396 . S
C733 C743 1.510 . S
C734 C730 1.401 . S
C734 C733 1.396 . S
C735 C730 1.499 . S
C735 H736 0.959 . S
C735 H737 0.960 . S
C735 H738 0.961 . S
H736 C735 0.959 . S
H737 C735 0.960 . S
H738 C735 0.961 . S
O739 Co714 1.967 . S
O739 C747 1.258 . S
O740 Co715 1.941 . S
O740 C747 1.266 . S
H741 C743 0.959 . S
H742 C743 0.961 . S
C743 C733 1.510 . S
C743 H741 0.959 . S
C743 H742 0.961 . S
C743 H744 0.960 . S
H744 C743 0.960 . S
H745 N725 0.862 . S
O746 Co714 1.920 . S
O746 C719 1.289 . S
C747 O739 1.258 . S
C747 O740 1.266 . S
Co748 O751 1.970 . S
Co748 N765 1.989 . S
Co748 O773 1.967 . S
Co748 O780 1.920 . S
Co749 O752 1.966 . S
Co749 N758 2.022 . S
Co749 N766 1.993 . S
Co749 O774 1.941 . S
C750 O751 1.258 . S
C750 O752 1.263 . S
O751 Co748 1.970 . S
O751 C750 1.258 . S
O752 Co749 1.966 . S
O752 C750 1.263 . S
C753 O754 1.235 . S
C753 O780 1.289 . S
O754 C753 1.235 . S
C755 C757 1.400 . S
C755 N758 1.351 . S
C755 C760 1.501 . S
C756 C757 1.387 . S
C756 N759 1.341 . S
C757 C755 1.400 . S
C757 C756 1.387 . S
N758 Co749 2.022 . S
N758 C755 1.351 . S
N758 N759 1.365 . S
N759 C756 1.341 . S
N759 N758 1.365 . S
N759 H779 0.862 . S
C760 C755 1.501 . S
C760 H761 0.961 . S
C760 H762 0.961 . S
C760 H763 0.960 . S
H761 C760 0.961 . S
H762 C760 0.961 . S
H763 C760 0.960 . S
C764 N765 1.342 . S
C764 C768 1.401 . S
C764 C769 1.499 . S
N765 Co748 1.989 . S
N765 C764 1.342 . S
N765 N766 1.388 . S
N766 Co749 1.993 . S
N766 N765 1.388 . S
N766 C767 1.346 . S
C767 N766 1.346 . S
C767 C768 1.396 . S
C767 C777 1.510 . S
C768 C764 1.401 . S
C768 C767 1.396 . S
C769 C764 1.499 . S
C769 H770 0.959 . S
C769 H771 0.960 . S
C769 H772 0.961 . S
H770 C769 0.959 . S
H771 C769 0.960 . S
H772 C769 0.961 . S
O773 Co748 1.967 . S
O773 C781 1.258 . S
O774 Co749 1.941 . S
O774 C781 1.266 . S
H775 C777 0.959 . S
H776 C777 0.961 . S
C777 C767 1.510 . S
C777 H775 0.959 . S
C777 H776 0.961 . S
C777 H778 0.960 . S
H778 C777 0.960 . S
H779 N759 0.862 . S
O780 Co748 1.920 . S
O780 C753 1.289 . S
C781 O773 1.258 . S
C781 O774 1.266 . S
Co782 O785 1.970 . S
Co782 N799 1.989 . S
Co782 O807 1.967 . S
Co782 O814 1.920 . S
Co783 O786 1.966 . S
Co783 N792 2.022 . S
Co783 N800 1.993 . S
Co783 O808 1.941 . S
C784 O785 1.258 . S
C784 O786 1.263 . S
O785 Co782 1.970 . S
O785 C784 1.258 . S
O786 Co783 1.966 . S
O786 C784 1.263 . S
C787 O788 1.235 . S
C787 O814 1.289 . S
O788 C787 1.235 . S
C789 C791 1.400 . S
C789 N792 1.351 . S
C789 C794 1.501 . S
C790 C791 1.387 . S
C790 N793 1.341 . S
C791 C789 1.400 . S
C791 C790 1.387 . S
N792 Co783 2.022 . S
N792 C789 1.351 . S
N792 N793 1.365 . S
N793 C790 1.341 . S
N793 N792 1.365 . S
N793 H813 0.862 . S
C794 C789 1.501 . S
C794 H795 0.961 . S
C794 H796 0.961 . S
C794 H797 0.960 . S
H795 C794 0.961 . S
H796 C794 0.961 . S
H797 C794 0.960 . S
C798 N799 1.342 . S
C798 C802 1.401 . S
C798 C803 1.499 . S
N799 Co782 1.989 . S
N799 C798 1.342 . S
N799 N800 1.388 . S
N800 Co783 1.993 . S
N800 N799 1.388 . S
N800 C801 1.346 . S
C801 N800 1.346 . S
C801 C802 1.396 . S
C801 C811 1.510 . S
C802 C798 1.401 . S
C802 C801 1.396 . S
C803 C798 1.499 . S
C803 H804 0.959 . S
C803 H805 0.960 . S
C803 H806 0.961 . S
H804 C803 0.959 . S
H805 C803 0.960 . S
H806 C803 0.961 . S
O807 Co782 1.967 . S
O807 C815 1.258 . S
O808 Co783 1.941 . S
O808 C815 1.266 . S
H809 C811 0.959 . S
H810 C811 0.961 . S
C811 C801 1.510 . S
C811 H809 0.959 . S
C811 H810 0.961 . S
C811 H812 0.960 . S
H812 C811 0.960 . S
H813 N793 0.862 . S
O814 Co782 1.920 . S
O814 C787 1.289 . S
C815 O807 1.258 . S
C815 O808 1.266 . S
Co816 O819 1.970 1_655 S
Co816 N833 1.989 1_655 S
Co816 O841 1.967 1_655 S
Co816 O848 1.920 . S
Co817 O820 1.966 . S
Co817 N826 2.022 . S
Co817 N834 1.993 . S
Co817 O842 1.941 . S
C818 O819 1.258 . S
C818 O820 1.263 . S
O819 Co816 1.970 1_455 S
O819 C818 1.258 . S
O820 Co817 1.966 . S
O820 C818 1.263 . S
C821 O822 1.235 . S
C821 O848 1.289 . S
O822 C821 1.235 . S
C823 C825 1.400 . S
C823 N826 1.351 . S
C823 C828 1.501 . S
C824 C825 1.387 . S
C824 N827 1.341 . S
C825 C823 1.400 . S
C825 C824 1.387 . S
N826 Co817 2.022 . S
N826 C823 1.351 . S
N826 N827 1.365 . S
N827 C824 1.341 . S
N827 N826 1.365 . S
N827 H847 0.862 . S
C828 C823 1.501 . S
C828 H829 0.961 . S
C828 H830 0.961 . S
C828 H831 0.960 . S
H829 C828 0.961 . S
H830 C828 0.961 . S
H831 C828 0.960 . S
C832 N833 1.342 . S
C832 C836 1.401 . S
C832 C837 1.499 1_455 S
N833 Co816 1.989 1_455 S
N833 C832 1.342 . S
N833 N834 1.388 . S
N834 Co817 1.993 . S
N834 N833 1.388 . S
N834 C835 1.346 . S
C835 N834 1.346 . S
C835 C836 1.396 . S
C835 C845 1.510 . S
C836 C832 1.401 . S
C836 C835 1.396 . S
C837 C832 1.499 1_655 S
C837 H838 0.959 . S
C837 H839 0.960 . S
C837 H840 0.961 . S
H838 C837 0.959 . S
H839 C837 0.960 . S
H840 C837 0.961 . S
O841 Co816 1.967 1_455 S
O841 C849 1.258 . S
O842 Co817 1.941 . S
O842 C849 1.266 . S
H843 C845 0.959 . S
H844 C845 0.961 . S
C845 C835 1.510 . S
C845 H843 0.959 . S
C845 H844 0.961 . S
C845 H846 0.960 . S
H846 C845 0.960 . S
H847 N827 0.862 . S
O848 Co816 1.920 . S
O848 C821 1.289 . S
C849 O841 1.258 . S
C849 O842 1.266 . S
Co850 O853 1.970 . S
Co850 N867 1.989 . S
Co850 O875 1.967 . S
Co850 O882 1.920 . S
Co851 O854 1.966 . S
Co851 N860 2.022 . S
Co851 N868 1.993 . S
Co851 O876 1.941 . S
C852 O853 1.258 . S
C852 O854 1.263 . S
O853 Co850 1.970 . S
O853 C852 1.258 . S
O854 Co851 1.966 . S
O854 C852 1.263 . S
C855 O856 1.235 . S
C855 O882 1.289 . S
O856 C855 1.235 . S
C857 C859 1.400 . S
C857 N860 1.351 . S
C857 C862 1.501 . S
C858 C859 1.387 . S
C858 N861 1.341 . S
C859 C857 1.400 . S
C859 C858 1.387 . S
N860 Co851 2.022 . S
N860 C857 1.351 . S
N860 N861 1.365 . S
N861 C858 1.341 . S
N861 N860 1.365 . S
N861 H881 0.862 . S
C862 C857 1.501 . S
C862 H863 0.961 . S
C862 H864 0.961 . S
C862 H865 0.960 . S
H863 C862 0.961 . S
H864 C862 0.961 . S
H865 C862 0.960 . S
C866 N867 1.342 . S
C866 C870 1.401 . S
C866 C871 1.499 . S
N867 Co850 1.989 . S
N867 C866 1.342 . S
N867 N868 1.388 . S
N868 Co851 1.993 . S
N868 N867 1.388 . S
N868 C869 1.346 . S
C869 N868 1.346 . S
C869 C870 1.396 . S
C869 C879 1.510 . S
C870 C866 1.401 . S
C870 C869 1.396 . S
C871 C866 1.499 . S
C871 H872 0.959 . S
C871 H873 0.960 . S
C871 H874 0.961 . S
H872 C871 0.959 . S
H873 C871 0.960 . S
H874 C871 0.961 . S
O875 Co850 1.967 . S
O875 C883 1.258 . S
O876 Co851 1.941 . S
O876 C883 1.266 . S
H877 C879 0.959 . S
H878 C879 0.961 . S
C879 C869 1.510 . S
C879 H877 0.959 . S
C879 H878 0.961 . S
C879 H880 0.960 . S
H880 C879 0.960 . S
H881 N861 0.862 . S
O882 Co850 1.920 . S
O882 C855 1.289 . S
C883 O875 1.258 . S
C883 O876 1.266 . S
Co884 O887 1.970 . S
Co884 N901 1.989 . S
Co884 O909 1.967 . S
Co884 O916 1.920 . S
Co885 O888 1.966 . S
Co885 N894 2.022 . S
Co885 N902 1.993 . S
Co885 O910 1.941 . S
C886 O887 1.258 . S
C886 O888 1.263 . S
O887 Co884 1.970 . S
O887 C886 1.258 . S
O888 Co885 1.966 . S
O888 C886 1.263 . S
C889 O890 1.235 . S
C889 O916 1.289 . S
O890 C889 1.235 . S
C891 C893 1.400 . S
C891 N894 1.351 . S
C891 C896 1.501 . S
C892 C893 1.387 . S
C892 N895 1.341 . S
C893 C891 1.400 . S
C893 C892 1.387 . S
N894 Co885 2.022 . S
N894 C891 1.351 . S
N894 N895 1.365 . S
N895 C892 1.341 . S
N895 N894 1.365 . S
N895 H915 0.862 . S
C896 C891 1.501 . S
C896 H897 0.961 . S
C896 H898 0.961 . S
C896 H899 0.960 . S
H897 C896 0.961 . S
H898 C896 0.961 . S
H899 C896 0.960 . S
C900 N901 1.342 . S
C900 C904 1.401 . S
C900 C905 1.499 . S
N901 Co884 1.989 . S
N901 C900 1.342 . S
N901 N902 1.388 . S
N902 Co885 1.993 . S
N902 N901 1.388 . S
N902 C903 1.346 . S
C903 N902 1.346 . S
C903 C904 1.396 . S
C903 C913 1.510 . S
C904 C900 1.401 . S
C904 C903 1.396 . S
C905 C900 1.499 . S
C905 H906 0.959 . S
C905 H907 0.960 . S
C905 H908 0.961 . S
H906 C905 0.959 . S
H907 C905 0.960 . S
H908 C905 0.961 . S
O909 Co884 1.967 . S
O909 C917 1.258 . S
O910 Co885 1.941 . S
O910 C917 1.266 . S
H911 C913 0.959 . S
H912 C913 0.961 . S
C913 C903 1.510 . S
C913 H911 0.959 . S
C913 H912 0.961 . S
C913 H914 0.960 . S
H914 C913 0.960 . S
H915 N895 0.862 . S
O916 Co884 1.920 . S
O916 C889 1.289 . S
C917 O909 1.258 . S
C917 O910 1.266 . S
Co918 O921 1.970 . S
Co918 N935 1.989 . S
Co918 O943 1.967 . S
Co918 O950 1.920 . S
Co919 O922 1.966 . S
Co919 N928 2.022 . S
Co919 N936 1.993 . S
Co919 O944 1.941 . S
C920 O921 1.258 . S
C920 O922 1.263 . S
O921 Co918 1.970 . S
O921 C920 1.258 . S
O922 Co919 1.966 . S
O922 C920 1.263 . S
C923 O924 1.235 . S
C923 O950 1.289 . S
O924 C923 1.235 . S
C925 C927 1.400 . S
C925 N928 1.351 . S
C925 C930 1.501 . S
C926 C927 1.387 . S
C926 N929 1.341 . S
C927 C925 1.400 . S
C927 C926 1.387 . S
N928 Co919 2.022 . S
N928 C925 1.351 . S
N928 N929 1.365 . S
N929 C926 1.341 . S
N929 N928 1.365 . S
N929 H949 0.862 . S
C930 C925 1.501 . S
C930 H931 0.961 . S
C930 H932 0.961 . S
C930 H933 0.960 . S
H931 C930 0.961 . S
H932 C930 0.961 . S
H933 C930 0.960 . S
C934 N935 1.342 . S
C934 C938 1.401 . S
C934 C939 1.499 . S
N935 Co918 1.989 . S
N935 C934 1.342 . S
N935 N936 1.388 . S
N936 Co919 1.993 . S
N936 N935 1.388 . S
N936 C937 1.346 . S
C937 N936 1.346 . S
C937 C938 1.396 . S
C937 C947 1.510 . S
C938 C934 1.401 . S
C938 C937 1.396 . S
C939 C934 1.499 . S
C939 H940 0.959 . S
C939 H941 0.960 . S
C939 H942 0.961 . S
H940 C939 0.959 . S
H941 C939 0.960 . S
H942 C939 0.961 . S
O943 Co918 1.967 . S
O943 C951 1.258 . S
O944 Co919 1.941 . S
O944 C951 1.266 . S
H945 C947 0.959 . S
H946 C947 0.961 . S
C947 C937 1.510 . S
C947 H945 0.959 . S
C947 H946 0.961 . S
C947 H948 0.960 . S
H948 C947 0.960 . S
H949 N929 0.862 . S
O950 Co918 1.920 . S
O950 C923 1.289 . S
C951 O943 1.258 . S
C951 O944 1.266 . S
Co952 O955 1.970 1_655 S
Co952 N969 1.989 1_655 S
Co952 O977 1.967 1_655 S
Co952 O984 1.920 . S
Co953 O956 1.966 . S
Co953 N962 2.022 . S
Co953 N970 1.993 . S
Co953 O978 1.941 . S
C954 O955 1.258 . S
C954 O956 1.263 . S
O955 Co952 1.970 1_455 S
O955 C954 1.258 . S
O956 Co953 1.966 . S
O956 C954 1.263 . S
C957 O958 1.235 . S
C957 O984 1.289 . S
O958 C957 1.235 . S
C959 C961 1.400 . S
C959 N962 1.351 . S
C959 C964 1.501 . S
C960 C961 1.387 . S
C960 N963 1.341 . S
C961 C959 1.400 . S
C961 C960 1.387 . S
N962 Co953 2.022 . S
N962 C959 1.351 . S
N962 N963 1.365 . S
N963 C960 1.341 . S
N963 N962 1.365 . S
N963 H983 0.862 . S
C964 C959 1.501 . S
C964 H965 0.961 . S
C964 H966 0.961 . S
C964 H967 0.960 . S
H965 C964 0.961 . S
H966 C964 0.961 . S
H967 C964 0.960 . S
C968 N969 1.342 . S
C968 C972 1.401 . S
C968 C973 1.499 1_455 S
N969 Co952 1.989 1_455 S
N969 C968 1.342 . S
N969 N970 1.388 . S
N970 Co953 1.993 . S
N970 N969 1.388 . S
N970 C971 1.346 . S
C971 N970 1.346 . S
C971 C972 1.396 . S
C971 C981 1.510 . S
C972 C968 1.401 . S
C972 C971 1.396 . S
C973 C968 1.499 1_655 S
C973 H974 0.959 . S
C973 H975 0.960 . S
C973 H976 0.961 . S
H974 C973 0.959 . S
H975 C973 0.960 . S
H976 C973 0.961 . S
O977 Co952 1.967 1_455 S
O977 C985 1.258 . S
O978 Co953 1.941 . S
O978 C985 1.266 . S
H979 C981 0.959 . S
H980 C981 0.961 . S
C981 C971 1.510 . S
C981 H979 0.959 . S
C981 H980 0.961 . S
C981 H982 0.960 . S
H982 C981 0.960 . S
H983 N963 0.862 . S
O984 Co952 1.920 . S
O984 C957 1.289 . S
C985 O977 1.258 . S
C985 O978 1.266 . S
Co986 O989 1.970 . S
Co986 N1003 1.989 . S
Co986 O1011 1.967 . S
Co986 O1018 1.920 . S
Co987 O990 1.966 . S
Co987 N996 2.022 . S
Co987 N1004 1.993 . S
Co987 O1012 1.941 . S
C988 O989 1.258 . S
C988 O990 1.263 . S
O989 Co986 1.970 . S
O989 C988 1.258 . S
O990 Co987 1.966 . S
O990 C988 1.263 . S
C991 O992 1.235 . S
C991 O1018 1.289 . S
O992 C991 1.235 . S
C993 C995 1.400 . S
C993 N996 1.351 . S
C993 C998 1.501 . S
C994 C995 1.387 . S
C994 N997 1.341 . S
C995 C993 1.400 . S
C995 C994 1.387 . S
N996 Co987 2.022 . S
N996 C993 1.351 . S
N996 N997 1.365 . S
N997 C994 1.341 . S
N997 N996 1.365 . S
N997 H1017 0.862 . S
C998 C993 1.501 . S
C998 H999 0.961 . S
C998 H1000 0.961 . S
C998 H1001 0.960 . S
H999 C998 0.961 . S
H1000 C998 0.961 . S
H1001 C998 0.960 . S
C1002 N1003 1.342 . S
C1002 C1006 1.401 . S
C1002 C1007 1.499 . S
N1003 Co986 1.989 . S
N1003 C1002 1.342 . S
N1003 N1004 1.388 . S
N1004 Co987 1.993 . S
N1004 N1003 1.388 . S
N1004 C1005 1.346 . S
C1005 N1004 1.346 . S
C1005 C1006 1.396 . S
C1005 C1015 1.510 . S
C1006 C1002 1.401 . S
C1006 C1005 1.396 . S
C1007 C1002 1.499 . S
C1007 H1008 0.959 . S
C1007 H1009 0.960 . S
C1007 H1010 0.961 . S
H1008 C1007 0.959 . S
H1009 C1007 0.960 . S
H1010 C1007 0.961 . S
O1011 Co986 1.967 . S
O1011 C1019 1.258 . S
O1012 Co987 1.941 . S
O1012 C1019 1.266 . S
H1013 C1015 0.959 . S
H1014 C1015 0.961 . S
C1015 C1005 1.510 . S
C1015 H1013 0.959 . S
C1015 H1014 0.961 . S
C1015 H1016 0.960 . S
H1016 C1015 0.960 . S
H1017 N997 0.862 . S
O1018 Co986 1.920 . S
O1018 C991 1.289 . S
C1019 O1011 1.258 . S
C1019 O1012 1.266 . S
Co1020 O1023 1.970 . S
Co1020 N1037 1.989 . S
Co1020 O1045 1.967 . S
Co1020 O1052 1.920 . S
Co1021 O1024 1.966 . S
Co1021 N1030 2.022 . S
Co1021 N1038 1.993 . S
Co1021 O1046 1.941 . S
C1022 O1023 1.258 . S
C1022 O1024 1.263 . S
O1023 Co1020 1.970 . S
O1023 C1022 1.258 . S
O1024 Co1021 1.966 . S
O1024 C1022 1.263 . S
C1025 O1026 1.235 . S
C1025 O1052 1.289 . S
O1026 C1025 1.235 . S
C1027 C1029 1.400 . S
C1027 N1030 1.351 . S
C1027 C1032 1.501 . S
C1028 C1029 1.387 . S
C1028 N1031 1.341 . S
C1029 C1027 1.400 . S
C1029 C1028 1.387 . S
N1030 Co1021 2.022 . S
N1030 C1027 1.351 . S
N1030 N1031 1.365 . S
N1031 C1028 1.341 . S
N1031 N1030 1.365 . S
N1031 H1051 0.862 . S
C1032 C1027 1.501 . S
C1032 H1033 0.961 . S
C1032 H1034 0.961 . S
C1032 H1035 0.960 . S
H1033 C1032 0.961 . S
H1034 C1032 0.961 . S
H1035 C1032 0.960 . S
C1036 N1037 1.342 . S
C1036 C1040 1.401 . S
C1036 C1041 1.499 . S
N1037 Co1020 1.989 . S
N1037 C1036 1.342 . S
N1037 N1038 1.388 . S
N1038 Co1021 1.993 . S
N1038 N1037 1.388 . S
N1038 C1039 1.346 . S
C1039 N1038 1.346 . S
C1039 C1040 1.396 . S
C1039 C1049 1.510 . S
C1040 C1036 1.401 . S
C1040 C1039 1.396 . S
C1041 C1036 1.499 . S
C1041 H1042 0.959 . S
C1041 H1043 0.960 . S
C1041 H1044 0.961 . S
H1042 C1041 0.959 . S
H1043 C1041 0.960 . S
H1044 C1041 0.961 . S
O1045 Co1020 1.967 . S
O1045 C1053 1.258 . S
O1046 Co1021 1.941 . S
O1046 C1053 1.266 . S
H1047 C1049 0.959 . S
H1048 C1049 0.961 . S
C1049 C1039 1.510 . S
C1049 H1047 0.959 . S
C1049 H1048 0.961 . S
C1049 H1050 0.960 . S
H1050 C1049 0.960 . S
H1051 N1031 0.862 . S
O1052 Co1020 1.920 . S
O1052 C1025 1.289 . S
C1053 O1045 1.258 . S
C1053 O1046 1.266 . S
Co1054 O1057 1.970 . S
Co1054 N1071 1.989 . S
Co1054 O1079 1.967 . S
Co1054 O1086 1.920 . S
Co1055 O1058 1.966 . S
Co1055 N1064 2.022 . S
Co1055 N1072 1.993 . S
Co1055 O1080 1.941 . S
C1056 O1057 1.258 . S
C1056 O1058 1.263 . S
O1057 Co1054 1.970 . S
O1057 C1056 1.258 . S
O1058 Co1055 1.966 . S
O1058 C1056 1.263 . S
C1059 O1060 1.235 . S
C1059 O1086 1.289 . S
O1060 C1059 1.235 . S
C1061 C1063 1.400 . S
C1061 N1064 1.351 . S
C1061 C1066 1.501 . S
C1062 C1063 1.387 . S
C1062 N1065 1.341 . S
C1063 C1061 1.400 . S
C1063 C1062 1.387 . S
N1064 Co1055 2.022 . S
N1064 C1061 1.351 . S
N1064 N1065 1.365 . S
N1065 C1062 1.341 . S
N1065 N1064 1.365 . S
N1065 H1085 0.862 . S
C1066 C1061 1.501 . S
C1066 H1067 0.961 . S
C1066 H1068 0.961 . S
C1066 H1069 0.960 . S
H1067 C1066 0.961 . S
H1068 C1066 0.961 . S
H1069 C1066 0.960 . S
C1070 N1071 1.342 . S
C1070 C1074 1.401 . S
C1070 C1075 1.499 . S
N1071 Co1054 1.989 . S
N1071 C1070 1.342 . S
N1071 N1072 1.388 . S
N1072 Co1055 1.993 . S
N1072 N1071 1.388 . S
N1072 C1073 1.346 . S
C1073 N1072 1.346 . S
C1073 C1074 1.396 . S
C1073 C1083 1.510 . S
C1074 C1070 1.401 . S
C1074 C1073 1.396 . S
C1075 C1070 1.499 . S
C1075 H1076 0.959 . S
C1075 H1077 0.960 . S
C1075 H1078 0.961 . S
H1076 C1075 0.959 . S
H1077 C1075 0.960 . S
H1078 C1075 0.961 . S
O1079 Co1054 1.967 . S
O1079 C1087 1.258 . S
O1080 Co1055 1.941 . S
O1080 C1087 1.266 . S
H1081 C1083 0.959 . S
H1082 C1083 0.961 . S
C1083 C1073 1.510 . S
C1083 H1081 0.959 . S
C1083 H1082 0.961 . S
C1083 H1084 0.960 . S
H1084 C1083 0.960 . S
H1085 N1065 0.862 . S
O1086 Co1054 1.920 . S
O1086 C1059 1.289 . S
C1087 O1079 1.258 . S
C1087 O1080 1.266 . S
H1088 C1100 0.930 . S
H1089 C1102 0.930 . S
H1090 C1103 0.930 . S
H1091 C1107 0.959 . S
H1092 C1107 0.959 1_556 S
H1093 C1107 0.961 . S
H1094 C1108 0.934 1_554 S
H1095 C1108 0.982 . S
H1096 C1108 0.970 . S
H1097 C1111 0.929 . S
H1098 C1112 0.931 . S
H1099 C1114 0.930 . S
C1100 H1088 0.930 . S
C1100 C1101 1.399 1_565 S
C1100 C1105 1.399 . S
C1101 C1100 1.399 1_545 S
C1101 C1102 1.376 . S
C1102 H1089 0.930 . S
C1102 C1101 1.376 . S
C1102 C1103 1.388 . S
C1103 H1090 0.930 . S
C1103 C1102 1.388 . S
C1103 C1104 1.390 . S
C1104 C1103 1.390 . S
C1104 C1105 1.394 1_545 S
C1104 C1110 1.465 1_554 S
C1105 C1100 1.399 . S
C1105 C1104 1.394 1_565 S
C1105 C1106 1.516 . S
C1106 C1105 1.516 . S
C1106 C1107 1.502 . S
C1106 C1108 1.557 1_554 S
C1106 C1109 1.526 1_554 S
C1107 H1091 0.959 . S
C1107 H1092 0.959 1_554 S
C1107 H1093 0.961 . S
C1107 C1106 1.502 . S
C1108 H1094 0.934 1_556 S
C1108 H1095 0.982 . S
C1108 H1096 0.970 . S
C1108 C1106 1.557 1_556 S
C1109 C1106 1.526 1_556 S
C1109 C1110 1.396 1_565 S
C1109 C1114 1.390 . S
C1110 C1104 1.465 1_556 S
C1110 C1109 1.396 1_545 S
C1110 C1111 1.399 . S
C1111 H1097 0.929 . S
C1111 C1110 1.399 . S
C1111 C1112 1.385 . S
C1112 H1098 0.931 . S
C1112 C1111 1.385 . S
C1112 C1113 1.389 1_545 S
C1113 C1112 1.389 1_565 S
C1113 C1114 1.387 . S
C1114 H1099 0.930 . S
C1114 C1109 1.390 . S
C1114 C1113 1.387 . S
H1115 C1127 0.930 . S
H1116 C1129 0.930 . S
H1117 C1130 0.930 . S
H1118 C1134 0.959 . S
H1119 C1134 0.959 . S
H1120 C1134 0.961 . S
H1121 C1135 0.960 . S
H1122 C1135 0.961 . S
H1123 C1135 0.959 . S
H1124 C1138 0.929 . S
H1125 C1139 0.931 . S
H1126 C1141 0.930 . S
C1127 H1115 0.930 . S
C1127 C1128 1.399 . S
C1127 C1132 1.399 . S
C1128 C1127 1.399 . S
C1128 C1129 1.376 . S
C1129 H1116 0.930 . S
C1129 C1128 1.376 . S
C1129 C1130 1.388 . S
C1130 H1117 0.930 . S
C1130 C1129 1.388 . S
C1130 C1131 1.390 . S
C1131 C1130 1.390 . S
C1131 C1132 1.394 . S
C1131 C1137 1.465 . S
C1132 C1127 1.399 . S
C1132 C1131 1.394 . S
C1132 C1133 1.516 . S
C1133 C1132 1.516 . S
C1133 C1134 1.502 . S
C1133 C1135 1.561 . S
C1133 C1136 1.526 . S
C1134 H1118 0.959 . S
C1134 H1119 0.959 . S
C1134 H1120 0.961 . S
C1134 C1133 1.502 . S
C1135 H1121 0.960 . S
C1135 H1122 0.961 . S
C1135 H1123 0.959 . S
C1135 C1133 1.561 . S
C1136 C1133 1.526 . S
C1136 C1137 1.396 . S
C1136 C1141 1.390 . S
C1137 C1131 1.465 . S
C1137 C1136 1.396 . S
C1137 C1138 1.399 . S
C1138 H1124 0.929 . S
C1138 C1137 1.399 . S
C1138 C1139 1.385 . S
C1139 H1125 0.931 . S
C1139 C1138 1.385 . S
C1139 C1140 1.389 . S
C1140 C1139 1.389 . S
C1140 C1141 1.387 . S
C1141 H1126 0.930 . S
C1141 C1136 1.390 . S
C1141 C1140 1.387 . S
H1142 C1154 0.930 . S
H1143 C1156 0.930 . S
H1144 C1157 0.930 . S
H1145 C1161 0.959 . S
H1146 C1161 0.959 . S
H1147 C1161 0.961 . S
H1148 C1162 0.960 . S
H1149 C1162 0.961 . S
H1150 C1162 0.959 . S
H1151 C1165 0.929 . S
H1152 C1166 0.931 . S
H1153 C1168 0.930 . S
C1154 H1142 0.930 . S
C1154 C1155 1.399 1_565 S
C1154 C1159 1.399 . S
C1155 C1154 1.399 1_545 S
C1155 C1156 1.376 . S
C1156 H1143 0.930 . S
C1156 C1155 1.376 . S
C1156 C1157 1.388 1_655 S
C1157 H1144 0.930 . S
C1157 C1156 1.388 1_455 S
C1157 C1158 1.390 . S
C1158 C1157 1.390 . S
C1158 C1159 1.394 1_445 S
C1158 C1164 1.465 . S
C1159 C1154 1.399 . S
C1159 C1158 1.394 1_665 S
C1159 C1160 1.516 . S
C1160 C1159 1.516 . S
C1160 C1161 1.502 . S
C1160 C1162 1.561 1_655 S
C1160 C1163 1.526 1_655 S
C1161 H1145 0.959 . S
C1161 H1146 0.959 . S
C1161 H1147 0.961 . S
C1161 C1160 1.502 . S
C1162 H1148 0.960 . S
C1162 H1149 0.961 . S
C1162 H1150 0.959 . S
C1162 C1160 1.561 1_455 S
C1163 C1160 1.526 1_455 S
C1163 C1164 1.396 1_565 S
C1163 C1168 1.390 . S
C1164 C1158 1.465 . S
C1164 C1163 1.396 1_545 S
C1164 C1165 1.399 . S
C1165 H1151 0.929 . S
C1165 C1164 1.399 . S
C1165 C1166 1.385 . S
C1166 H1152 0.931 . S
C1166 C1165 1.385 . S
C1166 C1167 1.389 1_545 S
C1167 C1166 1.389 1_565 S
C1167 C1168 1.387 . S
C1168 H1153 0.930 . S
C1168 C1163 1.390 . S
C1168 C1167 1.387 . S
H1169 C1181 0.930 . S
H1170 C1183 0.930 . S
H1171 C1184 0.930 . S
H1172 C1188 0.959 . S
H1173 C1188 0.959 . S
H1174 C1188 0.961 . S
H1175 C1189 0.960 . S
H1176 C1189 0.961 . S
H1177 C1189 0.959 . S
H1178 C1192 0.929 . S
H1179 C1193 0.931 . S
H1180 C1195 0.930 . S
C1181 H1169 0.930 . S
C1181 C1182 1.399 . S
C1181 C1186 1.399 . S
C1182 C1181 1.399 . S
C1182 C1183 1.376 . S
C1183 H1170 0.930 . S
C1183 C1182 1.376 . S
C1183 C1184 1.388 . S
C1184 H1171 0.930 . S
C1184 C1183 1.388 . S
C1184 C1185 1.390 . S
C1185 C1184 1.390 . S
C1185 C1186 1.394 . S
C1185 C1191 1.465 . S
C1186 C1181 1.399 . S
C1186 C1185 1.394 . S
C1186 C1187 1.516 . S
C1187 C1186 1.516 . S
C1187 C1188 1.502 . S
C1187 C1189 1.561 . S
C1187 C1190 1.526 . S
C1188 H1172 0.959 . S
C1188 H1173 0.959 . S
C1188 H1174 0.961 . S
C1188 C1187 1.502 . S
C1189 H1175 0.960 . S
C1189 H1176 0.961 . S
C1189 H1177 0.959 . S
C1189 C1187 1.561 . S
C1190 C1187 1.526 . S
C1190 C1191 1.396 . S
C1190 C1195 1.390 . S
C1191 C1185 1.465 . S
C1191 C1190 1.396 . S
C1191 C1192 1.399 . S
C1192 H1178 0.929 . S
C1192 C1191 1.399 . S
C1192 C1193 1.385 . S
C1193 H1179 0.931 . S
C1193 C1192 1.385 . S
C1193 C1194 1.389 . S
C1194 C1193 1.389 . S
C1194 C1195 1.387 . S
C1195 H1180 0.930 . S
C1195 C1190 1.390 . S
C1195 C1194 1.387 . S
H1196 C1208 0.926 1_565 S
H1197 C1210 0.930 . S
H1198 C1211 0.930 . S
H1199 C1215 0.959 . S
H1200 C1215 0.959 . S
H1201 C1215 0.961 . S
H1202 C1216 0.960 . S
H1203 C1216 0.961 . S
H1204 C1216 0.959 . S
H1205 C1219 0.929 . S
H1206 C1220 0.931 . S
H1207 C1222 0.930 . S
C1208 H1196 0.926 1_545 S
C1208 C1209 1.399 . S
C1208 C1213 1.399 . S
C1209 C1208 1.399 . S
C1209 C1210 1.376 . S
C1210 H1197 0.930 . S
C1210 C1209 1.376 . S
C1210 C1211 1.388 . S
C1211 H1198 0.930 . S
C1211 C1210 1.388 . S
C1211 C1212 1.390 . S
C1212 C1211 1.390 . S
C1212 C1213 1.394 . S
C1212 C1218 1.465 . S
C1213 C1208 1.399 . S
C1213 C1212 1.394 . S
C1213 C1214 1.516 . S
C1214 C1213 1.516 . S
C1214 C1215 1.501 1_545 S
C1214 C1216 1.562 . S
C1214 C1217 1.525 1_545 S
C1215 H1199 0.959 . S
C1215 H1200 0.959 . S
C1215 H1201 0.961 . S
C1215 C1214 1.501 1_565 S
C1216 H1202 0.960 . S
C1216 H1203 0.961 . S
C1216 H1204 0.959 . S
C1216 C1214 1.562 . S
C1217 C1214 1.525 1_565 S
C1217 C1218 1.393 1_565 S
C1217 C1222 1.392 . S
C1218 C1212 1.465 . S
C1218 C1217 1.393 1_545 S
C1218 C1219 1.399 . S
C1219 H1205 0.929 . S
C1219 C1218 1.399 . S
C1219 C1220 1.385 . S
C1220 H1206 0.931 . S
C1220 C1219 1.385 . S
C1220 C1221 1.389 1_545 S
C1221 C1220 1.389 1_565 S
C1221 C1222 1.387 . S
C1222 H1207 0.930 . S
C1222 C1217 1.392 . S
C1222 C1221 1.387 . S
H1223 C1235 0.930 . S
H1224 C1237 0.930 . S
H1225 C1238 0.930 . S
H1226 C1242 0.959 . S
H1227 C1242 0.959 . S
H1228 C1242 0.961 . S
H1229 C1243 0.960 . S
H1230 C1243 0.961 . S
H1231 C1243 0.959 . S
H1232 C1246 0.929 . S
H1233 C1247 0.931 . S
H1234 C1249 0.930 . S
C1235 H1223 0.930 . S
C1235 C1236 1.399 . S
C1235 C1240 1.399 . S
C1236 C1235 1.399 . S
C1236 C1237 1.376 . S
C1237 H1224 0.930 . S
C1237 C1236 1.376 . S
C1237 C1238 1.388 . S
C1238 H1225 0.930 . S
C1238 C1237 1.388 . S
C1238 C1239 1.390 . S
C1239 C1238 1.390 . S
C1239 C1240 1.394 . S
C1239 C1245 1.465 . S
C1240 C1235 1.399 . S
C1240 C1239 1.394 . S
C1240 C1241 1.516 . S
C1241 C1240 1.516 . S
C1241 C1242 1.502 . S
C1241 C1243 1.561 . S
C1241 C1244 1.526 . S
C1242 H1226 0.959 . S
C1242 H1227 0.959 . S
C1242 H1228 0.961 . S
C1242 C1241 1.502 . S
C1243 H1229 0.960 . S
C1243 H1230 0.961 . S
C1243 H1231 0.959 . S
C1243 C1241 1.561 . S
C1244 C1241 1.526 . S
C1244 C1245 1.396 . S
C1244 C1249 1.390 . S
C1245 C1239 1.465 . S
C1245 C1244 1.396 . S
C1245 C1246 1.399 . S
C1246 H1232 0.929 . S
C1246 C1245 1.399 . S
C1246 C1247 1.385 . S
C1247 H1233 0.931 . S
C1247 C1246 1.385 . S
C1247 C1248 1.389 . S
C1248 C1247 1.389 . S
C1248 C1249 1.387 . S
C1249 H1234 0.930 . S
C1249 C1244 1.390 . S
C1249 C1248 1.387 . S
H1250 C1262 0.930 . S
H1251 C1264 0.930 . S
H1252 C1265 0.930 . S
H1253 C1269 0.959 . S
H1254 C1269 0.959 . S
H1255 C1269 0.961 1_554 S
H1256 C1270 0.960 . S
H1257 C1270 0.961 1_556 S
H1258 C1270 0.959 . S
H1259 C1273 0.929 . S
H1260 C1274 0.931 . S
H1261 C1276 0.930 . S
C1262 H1250 0.930 . S
C1262 C1263 1.399 1_545 S
C1262 C1267 1.399 . S
C1263 C1262 1.399 1_565 S
C1263 C1264 1.376 . S
C1264 H1251 0.930 . S
C1264 C1263 1.376 . S
C1264 C1265 1.388 1_655 S
C1265 H1252 0.930 . S
C1265 C1264 1.388 1_455 S
C1265 C1266 1.390 . S
C1266 C1265 1.390 . S
C1266 C1267 1.394 1_465 S
C1266 C1272 1.465 1_554 S
C1267 C1262 1.399 . S
C1267 C1266 1.394 1_645 S
C1267 C1268 1.518 . S
C1268 C1267 1.518 . S
C1268 C1269 1.501 1_554 S
C1268 C1270 1.562 1_655 S
C1268 C1271 1.524 1_654 S
C1269 H1253 0.959 . S
C1269 H1254 0.959 . S
C1269 H1255 0.961 1_556 S
C1269 C1268 1.501 1_556 S
C1270 H1256 0.960 . S
C1270 H1257 0.961 1_554 S
C1270 H1258 0.959 . S
C1270 C1268 1.562 1_455 S
C1271 C1268 1.524 1_456 S
C1271 C1272 1.396 1_545 S
C1271 C1276 1.390 . S
C1272 C1266 1.465 1_556 S
C1272 C1271 1.396 1_565 S
C1272 C1273 1.399 . S
C1273 H1259 0.929 . S
C1273 C1272 1.399 . S
C1273 C1274 1.385 . S
C1274 H1260 0.931 . S
C1274 C1273 1.385 . S
C1274 C1275 1.389 1_565 S
C1275 C1274 1.389 1_545 S
C1275 C1276 1.387 . S
C1276 H1261 0.930 . S
C1276 C1271 1.390 . S
C1276 C1275 1.387 . S
H1277 C1289 0.930 . S
H1278 C1291 0.930 . S
H1279 C1292 0.930 . S
H1280 C1296 0.959 . S
H1281 C1296 0.959 . S
H1282 C1296 0.961 . S
H1283 C1297 0.960 . S
H1284 C1297 0.961 . S
H1285 C1297 0.959 . S
H1286 C1300 0.929 . S
H1287 C1301 0.931 . S
H1288 C1303 0.930 . S
C1289 H1277 0.930 . S
C1289 C1290 1.399 . S
C1289 C1294 1.399 . S
C1290 C1289 1.399 . S
C1290 C1291 1.376 . S
C1291 H1278 0.930 . S
C1291 C1290 1.376 . S
C1291 C1292 1.388 . S
C1292 H1279 0.930 . S
C1292 C1291 1.388 . S
C1292 C1293 1.390 . S
C1293 C1292 1.390 . S
C1293 C1294 1.394 . S
C1293 C1299 1.465 . S
C1294 C1289 1.399 . S
C1294 C1293 1.394 . S
C1294 C1295 1.516 . S
C1295 C1294 1.516 . S
C1295 C1296 1.502 . S
C1295 C1297 1.561 . S
C1295 C1298 1.526 . S
C1296 H1280 0.959 . S
C1296 H1281 0.959 . S
C1296 H1282 0.961 . S
C1296 C1295 1.502 . S
C1297 H1283 0.960 . S
C1297 H1284 0.961 . S
C1297 H1285 0.959 . S
C1297 C1295 1.561 . S
C1298 C1295 1.526 . S
C1298 C1299 1.396 . S
C1298 C1303 1.390 . S
C1299 C1293 1.465 . S
C1299 C1298 1.396 . S
C1299 C1300 1.399 . S
C1300 H1286 0.929 . S
C1300 C1299 1.399 . S
C1300 C1301 1.385 . S
C1301 H1287 0.931 . S
C1301 C1300 1.385 . S
C1301 C1302 1.389 . S
C1302 C1301 1.389 . S
C1302 C1303 1.387 . S
C1303 H1288 0.930 . S
C1303 C1298 1.390 . S
C1303 C1302 1.387 . S
H1304 C1316 0.930 . S
H1305 C1318 0.930 . S
H1306 C1319 0.930 . S
H1307 C1323 0.959 . S
H1308 C1323 0.959 . S
H1309 C1323 0.961 . S
H1310 C1324 0.960 . S
H1311 C1324 0.961 . S
H1312 C1324 0.959 . S
H1313 C1327 0.929 . S
H1314 C1328 0.931 . S
H1315 C1330 0.930 . S
C1316 H1304 0.930 . S
C1316 C1317 1.399 . S
C1316 C1321 1.399 . S
C1317 C1316 1.399 . S
C1317 C1318 1.376 . S
C1318 H1305 0.930 . S
C1318 C1317 1.376 . S
C1318 C1319 1.388 . S
C1319 H1306 0.930 . S
C1319 C1318 1.388 . S
C1319 C1320 1.390 . S
C1320 C1319 1.390 . S
C1320 C1321 1.394 . S
C1320 C1326 1.465 . S
C1321 C1316 1.399 . S
C1321 C1320 1.394 . S
C1321 C1322 1.516 . S
C1322 C1321 1.516 . S
C1322 C1323 1.502 . S
C1322 C1324 1.561 . S
C1322 C1325 1.526 . S
C1323 H1307 0.959 . S
C1323 H1308 0.959 . S
C1323 H1309 0.961 . S
C1323 C1322 1.502 . S
C1324 H1310 0.960 . S
C1324 H1311 0.961 . S
C1324 H1312 0.959 . S
C1324 C1322 1.561 . S
C1325 C1322 1.526 . S
C1325 C1326 1.396 . S
C1325 C1330 1.390 . S
C1326 C1320 1.465 . S
C1326 C1325 1.396 . S
C1326 C1327 1.399 . S
C1327 H1313 0.929 . S
C1327 C1326 1.399 . S
C1327 C1328 1.385 . S
C1328 H1314 0.931 . S
C1328 C1327 1.385 . S
C1328 C1329 1.389 . S
C1329 C1328 1.389 . S
C1329 C1330 1.387 . S
C1330 H1315 0.930 . S
C1330 C1325 1.390 . S
C1330 C1329 1.387 . S
H1331 C1343 0.930 . S
H1332 C1345 0.930 . S
H1333 C1346 0.930 . S
H1334 C1350 0.959 . S
H1335 C1350 0.959 . S
H1336 C1350 0.961 . S
H1337 C1351 0.960 . S
H1338 C1351 0.961 . S
H1339 C1351 0.959 . S
H1340 C1354 0.929 . S
H1341 C1355 0.931 . S
H1342 C1357 0.930 . S
C1343 H1331 0.930 . S
C1343 C1344 1.399 . S
C1343 C1348 1.399 . S
C1344 C1343 1.399 . S
C1344 C1345 1.376 . S
C1345 H1332 0.930 . S
C1345 C1344 1.376 . S
C1345 C1346 1.388 . S
C1346 H1333 0.930 . S
C1346 C1345 1.388 . S
C1346 C1347 1.390 . S
C1347 C1346 1.390 . S
C1347 C1348 1.394 . S
C1347 C1353 1.465 . S
C1348 C1343 1.399 . S
C1348 C1347 1.394 . S
C1348 C1349 1.516 . S
C1349 C1348 1.516 . S
C1349 C1350 1.502 . S
C1349 C1351 1.561 . S
C1349 C1352 1.526 . S
C1350 H1334 0.959 . S
C1350 H1335 0.959 . S
C1350 H1336 0.961 . S
C1350 C1349 1.502 . S
C1351 H1337 0.960 . S
C1351 H1338 0.961 . S
C1351 H1339 0.959 . S
C1351 C1349 1.561 . S
C1352 C1349 1.526 . S
C1352 C1353 1.396 . S
C1352 C1357 1.390 . S
C1353 C1347 1.465 . S
C1353 C1352 1.396 . S
C1353 C1354 1.399 . S
C1354 H1340 0.929 . S
C1354 C1353 1.399 . S
C1354 C1355 1.385 . S
C1355 H1341 0.931 . S
C1355 C1354 1.385 . S
C1355 C1356 1.389 . S
C1356 C1355 1.389 . S
C1356 C1357 1.387 . S
C1357 H1342 0.930 . S
C1357 C1352 1.390 . S
C1357 C1356 1.387 . S
H1358 C1370 0.930 . S
H1359 C1372 0.930 . S
H1360 C1373 0.930 . S
H1361 C1377 0.959 . S
H1362 C1377 0.959 . S
H1363 C1377 0.961 . S
H1364 C1378 0.960 . S
H1365 C1378 0.961 . S
H1366 C1378 0.959 . S
H1367 C1381 0.929 . S
H1368 C1382 0.931 . S
H1369 C1384 0.930 . S
C1370 H1358 0.930 . S
C1370 C1371 1.399 . S
C1370 C1375 1.399 . S
C1371 C1370 1.399 . S
C1371 C1372 1.376 . S
C1372 H1359 0.930 . S
C1372 C1371 1.376 . S
C1372 C1373 1.388 . S
C1373 H1360 0.930 . S
C1373 C1372 1.388 . S
C1373 C1374 1.390 . S
C1374 C1373 1.390 . S
C1374 C1375 1.394 . S
C1374 C1380 1.465 . S
C1375 C1370 1.399 . S
C1375 C1374 1.394 . S
C1375 C1376 1.516 . S
C1376 C1375 1.516 . S
C1376 C1377 1.502 . S
C1376 C1378 1.561 . S
C1376 C1379 1.526 . S
C1377 H1361 0.959 . S
C1377 H1362 0.959 . S
C1377 H1363 0.961 . S
C1377 C1376 1.502 . S
C1378 H1364 0.960 . S
C1378 H1365 0.961 . S
C1378 H1366 0.959 . S
C1378 C1376 1.561 . S
C1379 C1376 1.526 . S
C1379 C1380 1.396 . S
C1379 C1384 1.390 . S
C1380 C1374 1.465 . S
C1380 C1379 1.396 . S
C1380 C1381 1.399 . S
C1381 H1367 0.929 . S
C1381 C1380 1.399 . S
C1381 C1382 1.385 . S
C1382 H1368 0.931 . S
C1382 C1381 1.385 . S
C1382 C1383 1.389 . S
C1383 C1382 1.389 . S
C1383 C1384 1.387 . S
C1384 H1369 0.930 . S
C1384 C1379 1.390 . S
C1384 C1383 1.387 . S
H1385 C1397 0.930 . S
H1386 C1399 0.930 . S
H1387 C1400 0.930 . S
H1388 C1404 0.959 . S
H1389 C1404 0.959 . S
H1390 C1404 0.961 . S
H1391 C1405 0.960 . S
H1392 C1405 0.961 . S
H1393 C1405 0.959 . S
H1394 C1408 0.929 . S
H1395 C1409 0.931 . S
H1396 C1411 0.930 . S
C1397 H1385 0.930 . S
C1397 C1398 1.399 . S
C1397 C1402 1.399 . S
C1398 C1397 1.399 . S
C1398 C1399 1.376 . S
C1399 H1386 0.930 . S
C1399 C1398 1.376 . S
C1399 C1400 1.388 . S
C1400 H1387 0.930 . S
C1400 C1399 1.388 . S
C1400 C1401 1.390 . S
C1401 C1400 1.390 . S
C1401 C1402 1.394 . S
C1401 C1407 1.465 . S
C1402 C1397 1.399 . S
C1402 C1401 1.394 . S
C1402 C1403 1.516 . S
C1403 C1402 1.516 . S
C1403 C1404 1.502 . S
C1403 C1405 1.561 . S
C1403 C1406 1.526 . S
C1404 H1388 0.959 . S
C1404 H1389 0.959 . S
C1404 H1390 0.961 . S
C1404 C1403 1.502 . S
C1405 H1391 0.960 . S
C1405 H1392 0.961 . S
C1405 H1393 0.959 . S
C1405 C1403 1.561 . S
C1406 C1403 1.526 . S
C1406 C1407 1.396 . S
C1406 C1411 1.390 . S
C1407 C1401 1.465 . S
C1407 C1406 1.396 . S
C1407 C1408 1.399 . S
C1408 H1394 0.929 . S
C1408 C1407 1.399 . S
C1408 C1409 1.385 . S
C1409 H1395 0.931 . S
C1409 C1408 1.385 . S
C1409 C1410 1.389 . S
C1410 C1409 1.389 . S
C1410 C1411 1.387 . S
C1411 H1396 0.930 . S
C1411 C1406 1.390 . S
C1411 C1410 1.387 . S
H1412 C1424 0.930 . S
H1413 C1426 0.930 . S
H1414 C1427 0.930 . S
H1415 C1431 0.959 . S
H1416 C1431 0.959 . S
H1417 C1431 0.961 . S
H1418 C1432 0.960 . S
H1419 C1432 0.961 . S
H1420 C1432 0.959 . S
H1421 C1435 0.929 . S
H1422 C1436 0.931 . S
H1423 C1438 0.930 . S
C1424 H1412 0.930 . S
C1424 C1425 1.399 1_455 S
C1424 C1429 1.399 . S
C1425 C1424 1.399 1_655 S
C1425 C1426 1.376 . S
C1426 H1413 0.930 . S
C1426 C1425 1.376 . S
C1426 C1427 1.388 . S
C1427 H1414 0.930 . S
C1427 C1426 1.388 . S
C1427 C1428 1.390 . S
C1428 C1427 1.390 . S
C1428 C1429 1.394 1_655 S
C1428 C1434 1.465 . S
C1429 C1424 1.399 . S
C1429 C1428 1.394 1_455 S
C1429 C1430 1.516 . S
C1430 C1429 1.516 . S
C1430 C1431 1.502 . S
C1430 C1432 1.561 . S
C1430 C1433 1.526 . S
C1431 H1415 0.959 . S
C1431 H1416 0.959 . S
C1431 H1417 0.961 . S
C1431 C1430 1.502 . S
C1432 H1418 0.960 . S
C1432 H1419 0.961 . S
C1432 H1420 0.959 . S
C1432 C1430 1.561 . S
C1433 C1430 1.526 . S
C1433 C1434 1.396 1_455 S
C1433 C1438 1.390 . S
C1434 C1428 1.465 . S
C1434 C1433 1.396 1_655 S
C1434 C1435 1.399 . S
C1435 H1421 0.929 . S
C1435 C1434 1.399 . S
C1435 C1436 1.385 . S
C1436 H1422 0.931 . S
C1436 C1435 1.385 . S
C1436 C1437 1.389 1_655 S
C1437 C1436 1.389 1_455 S
C1437 C1438 1.387 . S
C1438 H1423 0.930 . S
C1438 C1433 1.390 . S
C1438 C1437 1.387 . S
H1439 C1451 0.930 . S
H1440 C1453 0.930 . S
H1441 C1454 0.930 . S
H1442 C1458 0.959 . S
H1443 C1458 0.959 1_554 S
H1444 C1458 0.961 . S
H1445 C1459 0.960 1_556 S
H1446 C1459 0.961 . S
H1447 C1459 0.959 . S
H1448 C1462 0.929 . S
H1449 C1463 0.931 . S
H1450 C1465 0.930 . S
C1451 H1439 0.930 . S
C1451 C1452 1.399 . S
C1451 C1456 1.399 . S
C1452 C1451 1.399 . S
C1452 C1453 1.376 . S
C1453 H1440 0.930 . S
C1453 C1452 1.376 . S
C1453 C1454 1.388 . S
C1454 H1441 0.930 . S
C1454 C1453 1.388 . S
C1454 C1455 1.390 . S
C1455 C1454 1.390 . S
C1455 C1456 1.394 . S
C1455 C1461 1.465 1_556 S
C1456 C1451 1.399 . S
C1456 C1455 1.394 . S
C1456 C1457 1.539 . S
C1457 C1456 1.539 . S
C1457 C1458 1.509 . S
C1457 C1459 1.555 1_556 S
C1457 C1460 1.501 1_556 S
C1458 H1442 0.959 . S
C1458 H1443 0.959 1_556 S
C1458 H1444 0.961 . S
C1458 C1457 1.509 . S
C1459 H1445 0.960 1_554 S
C1459 H1446 0.961 . S
C1459 H1447 0.959 . S
C1459 C1457 1.555 1_554 S
C1460 C1457 1.501 1_554 S
C1460 C1461 1.396 . S
C1460 C1465 1.390 . S
C1461 C1455 1.465 1_554 S
C1461 C1460 1.396 . S
C1461 C1462 1.399 . S
C1462 H1448 0.929 . S
C1462 C1461 1.399 . S
C1462 C1463 1.385 . S
C1463 H1449 0.931 . S
C1463 C1462 1.385 . S
C1463 C1464 1.389 . S
C1464 C1463 1.389 . S
C1464 C1465 1.387 . S
C1465 H1450 0.930 . S
C1465 C1460 1.390 . S
C1465 C1464 1.387 . S
H1466 C1478 0.930 . S
H1467 C1480 0.930 . S
H1468 C1481 0.930 . S
H1469 C1485 0.959 . S
H1470 C1485 0.959 1_556 S
H1471 C1485 0.961 . S
H1472 C1486 0.960 1_554 S
H1473 C1486 0.961 . S
H1474 C1486 0.959 . S
H1475 C1489 0.929 . S
H1476 C1490 0.931 . S
H1477 C1492 0.930 . S
C1478 H1466 0.930 . S
C1478 C1479 1.399 . S
C1478 C1483 1.399 . S
C1479 C1478 1.399 . S
C1479 C1480 1.376 . S
C1480 H1467 0.930 . S
C1480 C1479 1.376 . S
C1480 C1481 1.388 . S
C1481 H1468 0.930 . S
C1481 C1480 1.388 . S
C1481 C1482 1.390 . S
C1482 C1481 1.390 . S
C1482 C1483 1.394 . S
C1482 C1488 1.465 1_554 S
C1483 C1478 1.399 . S
C1483 C1482 1.394 . S
C1483 C1484 1.518 1_455 S
C1484 C1483 1.518 1_655 S
C1484 C1485 1.502 . S
C1484 C1486 1.561 1_654 S
C1484 C1487 1.524 1_554 S
C1485 H1469 0.959 . S
C1485 H1470 0.959 1_554 S
C1485 H1471 0.961 . S
C1485 C1484 1.502 . S
C1486 H1472 0.960 1_556 S
C1486 H1473 0.961 . S
C1486 H1474 0.959 . S
C1486 C1484 1.561 1_456 S
C1487 C1484 1.524 1_556 S
C1487 C1488 1.396 1_655 S
C1487 C1492 1.390 . S
C1488 C1482 1.465 1_556 S
C1488 C1487 1.396 1_455 S
C1488 C1489 1.399 . S
C1489 H1475 0.929 . S
C1489 C1488 1.399 . S
C1489 C1490 1.385 1_455 S
C1490 H1476 0.931 . S
C1490 C1489 1.385 1_655 S
C1490 C1491 1.389 . S
C1491 C1490 1.389 . S
C1491 C1492 1.387 . S
C1492 H1477 0.930 . S
C1492 C1487 1.390 . S
C1492 C1491 1.387 . S
H1493 C1505 0.930 . S
H1494 C1507 0.930 . S
H1495 C1508 0.930 . S
H1496 C1512 0.959 . S
H1497 C1512 0.959 . S
H1498 C1512 0.961 . S
H1499 C1513 0.960 . S
H1500 C1513 0.961 . S
H1501 C1513 0.959 . S
H1502 C1516 0.929 . S
H1503 C1517 0.931 . S
H1504 C1519 0.930 . S
C1505 H1493 0.930 . S
C1505 C1506 1.399 . S
C1505 C1510 1.399 . S
C1506 C1505 1.399 . S
C1506 C1507 1.376 . S
C1507 H1494 0.930 . S
C1507 C1506 1.376 . S
C1507 C1508 1.388 . S
C1508 H1495 0.930 . S
C1508 C1507 1.388 . S
C1508 C1509 1.390 . S
C1509 C1508 1.390 . S
C1509 C1510 1.394 . S
C1509 C1515 1.465 . S
C1510 C1505 1.399 . S
C1510 C1509 1.394 . S
C1510 C1511 1.516 . S
C1511 C1510 1.516 . S
C1511 C1512 1.502 . S
C1511 C1513 1.561 . S
C1511 C1514 1.526 . S
C1512 H1496 0.959 . S
C1512 H1497 0.959 . S
C1512 H1498 0.961 . S
C1512 C1511 1.502 . S
C1513 H1499 0.960 . S
C1513 H1500 0.961 . S
C1513 H1501 0.959 . S
C1513 C1511 1.561 . S
C1514 C1511 1.526 . S
C1514 C1515 1.396 . S
C1514 C1519 1.390 . S
C1515 C1509 1.465 . S
C1515 C1514 1.396 . S
C1515 C1516 1.399 . S
C1516 H1502 0.929 . S
C1516 C1515 1.399 . S
C1516 C1517 1.385 . S
C1517 H1503 0.931 . S
C1517 C1516 1.385 . S
C1517 C1518 1.389 . S
C1518 C1517 1.389 . S
C1518 C1519 1.387 . S
C1519 H1504 0.930 . S
C1519 C1514 1.390 . S
C1519 C1518 1.387 . S
H1520 C1532 0.930 . S
H1521 C1534 0.930 . S
H1522 C1535 0.930 . S
H1523 C1539 0.959 . S
H1524 C1539 0.959 . S
H1525 C1539 0.961 . S
H1526 C1540 0.960 . S
H1527 C1540 0.961 . S
H1528 C1540 0.959 . S
H1529 C1543 0.929 . S
H1530 C1544 0.931 . S
H1531 C1546 0.930 . S
C1532 H1520 0.930 . S
C1532 C1533 1.399 . S
C1532 C1537 1.399 . S
C1533 C1532 1.399 . S
C1533 C1534 1.376 1_565 S
C1534 H1521 0.930 . S
C1534 C1533 1.376 1_545 S
C1534 C1535 1.388 . S
C1535 H1522 0.930 . S
C1535 C1534 1.388 . S
C1535 C1536 1.390 . S
C1536 C1535 1.390 . S
C1536 C1537 1.394 1_545 S
C1536 C1542 1.465 . S
C1537 C1532 1.399 . S
C1537 C1536 1.394 1_565 S
C1537 C1538 1.516 . S
C1538 C1537 1.516 . S
C1538 C1539 1.502 . S
C1538 C1540 1.561 1_565 S
C1538 C1541 1.526 . S
C1539 H1523 0.959 . S
C1539 H1524 0.959 . S
C1539 H1525 0.961 . S
C1539 C1538 1.502 . S
C1540 H1526 0.960 . S
C1540 H1527 0.961 . S
C1540 H1528 0.959 . S
C1540 C1538 1.561 1_545 S
C1541 C1538 1.526 . S
C1541 C1542 1.396 1_565 S
C1541 C1546 1.390 . S
C1542 C1536 1.465 . S
C1542 C1541 1.396 1_545 S
C1542 C1543 1.399 . S
C1543 H1529 0.929 . S
C1543 C1542 1.399 . S
C1543 C1544 1.385 . S
C1544 H1530 0.931 . S
C1544 C1543 1.385 . S
C1544 C1545 1.389 1_545 S
C1545 C1544 1.389 1_565 S
C1545 C1546 1.387 . S
C1546 H1531 0.930 . S
C1546 C1541 1.390 . S
C1546 C1545 1.387 . S
H1547 C1559 0.930 . S
H1548 C1561 0.930 . S
H1549 C1562 0.930 . S
H1550 C1566 0.959 . S
H1551 C1566 0.959 . S
H1552 C1566 0.961 . S
H1553 C1567 0.960 . S
H1554 C1567 0.961 . S
H1555 C1567 0.959 . S
H1556 C1570 0.929 . S
H1557 C1571 0.931 . S
H1558 C1573 0.930 . S
C1559 H1547 0.930 . S
C1559 C1560 1.399 . S
C1559 C1564 1.399 . S
C1560 C1559 1.399 . S
C1560 C1561 1.376 . S
C1561 H1548 0.930 . S
C1561 C1560 1.376 . S
C1561 C1562 1.388 . S
C1562 H1549 0.930 . S
C1562 C1561 1.388 . S
C1562 C1563 1.390 . S
C1563 C1562 1.390 . S
C1563 C1564 1.394 . S
C1563 C1569 1.465 . S
C1564 C1559 1.399 . S
C1564 C1563 1.394 . S
C1564 C1565 1.516 . S
C1565 C1564 1.516 . S
C1565 C1566 1.502 . S
C1565 C1567 1.561 . S
C1565 C1568 1.526 . S
C1566 H1550 0.959 . S
C1566 H1551 0.959 . S
C1566 H1552 0.961 . S
C1566 C1565 1.502 . S
C1567 H1553 0.960 . S
C1567 H1554 0.961 . S
C1567 H1555 0.959 . S
C1567 C1565 1.561 . S
C1568 C1565 1.526 . S
C1568 C1569 1.396 . S
C1568 C1573 1.390 . S
C1569 C1563 1.465 . S
C1569 C1568 1.396 . S
C1569 C1570 1.399 . S
C1570 H1556 0.929 . S
C1570 C1569 1.399 . S
C1570 C1571 1.385 . S
C1571 H1557 0.931 . S
C1571 C1570 1.385 . S
C1571 C1572 1.389 . S
C1572 C1571 1.389 . S
C1572 C1573 1.387 . S
C1573 H1558 0.930 . S
C1573 C1568 1.390 . S
C1573 C1572 1.387 . S
H1574 C1586 0.930 . S
H1575 C1588 0.930 . S
H1576 C1589 0.930 . S
H1577 C1593 0.959 1_565 S
H1578 C1593 0.959 . S
H1579 C1593 0.961 . S
H1580 C1594 0.960 . S
H1581 C1594 0.961 . S
H1582 C1594 0.959 . S
H1583 C1597 0.929 . S
H1584 C1598 0.928 1_565 S
H1585 C1600 0.930 . S
C1586 H1574 0.930 . S
C1586 C1587 1.399 . S
C1586 C1591 1.399 . S
C1587 C1586 1.399 . S
C1587 C1588 1.376 1_545 S
C1588 H1575 0.930 . S
C1588 C1587 1.376 1_565 S
C1588 C1589 1.388 . S
C1589 H1576 0.930 . S
C1589 C1588 1.388 . S
C1589 C1590 1.390 1_565 S
C1590 C1589 1.390 1_545 S
C1590 C1591 1.394 . S
C1590 C1596 1.465 . S
C1591 C1586 1.399 . S
C1591 C1590 1.394 . S
C1591 C1592 1.516 . S
C1592 C1591 1.516 . S
C1592 C1593 1.502 . S
C1592 C1594 1.561 . S
C1592 C1595 1.526 . S
C1593 H1577 0.959 1_545 S
C1593 H1578 0.959 . S
C1593 H1579 0.961 . S
C1593 C1592 1.502 . S
C1594 H1580 0.960 . S
C1594 H1581 0.961 . S
C1594 H1582 0.959 . S
C1594 C1592 1.561 . S
C1595 C1592 1.526 . S
C1595 C1596 1.396 . S
C1595 C1600 1.390 . S
C1596 C1590 1.465 . S
C1596 C1595 1.396 . S
C1596 C1597 1.399 1_545 S
C1597 H1583 0.929 . S
C1597 C1596 1.399 1_565 S
C1597 C1598 1.384 1_565 S
C1598 H1584 0.928 1_545 S
C1598 C1597 1.384 1_545 S
C1598 C1599 1.393 . S
C1599 C1598 1.393 . S
C1599 C1600 1.387 . S
C1600 H1585 0.930 . S
C1600 C1595 1.390 . S
C1600 C1599 1.387 . S
H1601 C1613 0.930 . S
H1602 C1615 0.930 . S
H1603 C1616 0.930 . S
H1604 C1620 0.959 . S
H1605 C1620 0.959 . S
H1606 C1620 0.961 . S
H1607 C1621 0.960 . S
H1608 C1621 0.961 . S
H1609 C1621 0.959 . S
H1610 C1624 0.929 . S
H1611 C1625 0.931 . S
H1612 C1627 0.930 . S
C1613 H1601 0.930 . S
C1613 C1614 1.399 . S
C1613 C1618 1.399 . S
C1614 C1613 1.399 . S
C1614 C1615 1.376 . S
C1615 H1602 0.930 . S
C1615 C1614 1.376 . S
C1615 C1616 1.388 . S
C1616 H1603 0.930 . S
C1616 C1615 1.388 . S
C1616 C1617 1.390 . S
C1617 C1616 1.390 . S
C1617 C1618 1.394 . S
C1617 C1623 1.465 . S
C1618 C1613 1.399 . S
C1618 C1617 1.394 . S
C1618 C1619 1.516 . S
C1619 C1618 1.516 . S
C1619 C1620 1.502 . S
C1619 C1621 1.561 . S
C1619 C1622 1.526 . S
C1620 H1604 0.959 . S
C1620 H1605 0.959 . S
C1620 H1606 0.961 . S
C1620 C1619 1.502 . S
C1621 H1607 0.960 . S
C1621 H1608 0.961 . S
C1621 H1609 0.959 . S
C1621 C1619 1.561 . S
C1622 C1619 1.526 . S
C1622 C1623 1.396 . S
C1622 C1627 1.390 . S
C1623 C1617 1.465 . S
C1623 C1622 1.396 . S
C1623 C1624 1.399 . S
C1624 H1610 0.929 . S
C1624 C1623 1.399 . S
C1624 C1625 1.385 . S
C1625 H1611 0.931 . S
C1625 C1624 1.385 . S
C1625 C1626 1.389 . S
C1626 C1625 1.389 . S
C1626 C1627 1.387 . S
C1627 H1612 0.930 . S
C1627 C1622 1.390 . S
C1627 C1626 1.387 . S
H1628 C1640 0.930 . S
H1629 C1642 0.930 . S
H1630 C1643 0.930 . S
H1631 C1647 0.959 . S
H1632 C1647 0.959 . S
H1633 C1647 0.961 . S
H1634 C1648 0.960 . S
H1635 C1648 0.961 . S
H1636 C1648 0.959 . S
H1637 C1651 0.929 . S
H1638 C1652 0.931 . S
H1639 C1654 0.930 . S
C1640 H1628 0.930 . S
C1640 C1641 1.399 1_565 S
C1640 C1645 1.399 . S
C1641 C1640 1.399 1_545 S
C1641 C1642 1.376 . S
C1642 H1629 0.930 . S
C1642 C1641 1.376 . S
C1642 C1643 1.388 . S
C1643 H1630 0.930 . S
C1643 C1642 1.388 . S
C1643 C1644 1.390 . S
C1644 C1643 1.390 . S
C1644 C1645 1.394 1_545 S
C1644 C1650 1.465 . S
C1645 C1640 1.399 . S
C1645 C1644 1.394 1_565 S
C1645 C1646 1.516 . S
C1646 C1645 1.516 . S
C1646 C1647 1.502 . S
C1646 C1648 1.561 . S
C1646 C1649 1.526 . S
C1647 H1631 0.959 . S
C1647 H1632 0.959 . S
C1647 H1633 0.961 . S
C1647 C1646 1.502 . S
C1648 H1634 0.960 . S
C1648 H1635 0.961 . S
C1648 H1636 0.959 . S
C1648 C1646 1.561 . S
C1649 C1646 1.526 . S
C1649 C1650 1.396 1_565 S
C1649 C1654 1.390 . S
C1650 C1644 1.465 . S
C1650 C1649 1.396 1_545 S
C1650 C1651 1.399 . S
C1651 H1637 0.929 . S
C1651 C1650 1.399 . S
C1651 C1652 1.385 . S
C1652 H1638 0.931 . S
C1652 C1651 1.385 . S
C1652 C1653 1.389 . S
C1653 C1652 1.389 . S
C1653 C1654 1.387 1_545 S
C1654 H1639 0.930 . S
C1654 C1649 1.390 . S
C1654 C1653 1.387 1_565 S
H1655 C1667 0.930 . S
H1656 C1669 0.930 . S
H1657 C1670 0.930 . S
H1658 C1674 0.959 . S
H1659 C1674 0.959 . S
H1660 C1674 0.961 . S
H1661 C1675 0.960 . S
H1662 C1675 0.961 . S
H1663 C1675 0.959 . S
H1664 C1678 0.929 . S
H1665 C1679 0.931 . S
H1666 C1681 0.930 . S
C1667 H1655 0.930 . S
C1667 C1668 1.399 . S
C1667 C1672 1.399 . S
C1668 C1667 1.399 . S
C1668 C1669 1.376 . S
C1669 H1656 0.930 . S
C1669 C1668 1.376 . S
C1669 C1670 1.388 . S
C1670 H1657 0.930 . S
C1670 C1669 1.388 . S
C1670 C1671 1.390 . S
C1671 C1670 1.390 . S
C1671 C1672 1.394 . S
C1671 C1677 1.465 . S
C1672 C1667 1.399 . S
C1672 C1671 1.394 . S
C1672 C1673 1.516 . S
C1673 C1672 1.516 . S
C1673 C1674 1.502 . S
C1673 C1675 1.561 . S
C1673 C1676 1.526 . S
C1674 H1658 0.959 . S
C1674 H1659 0.959 . S
C1674 H1660 0.961 . S
C1674 C1673 1.502 . S
C1675 H1661 0.960 . S
C1675 H1662 0.961 . S
C1675 H1663 0.959 . S
C1675 C1673 1.561 . S
C1676 C1673 1.526 . S
C1676 C1677 1.396 . S
C1676 C1681 1.390 . S
C1677 C1671 1.465 . S
C1677 C1676 1.396 . S
C1677 C1678 1.399 . S
C1678 H1664 0.929 . S
C1678 C1677 1.399 . S
C1678 C1679 1.385 . S
C1679 H1665 0.931 . S
C1679 C1678 1.385 . S
C1679 C1680 1.389 . S
C1680 C1679 1.389 . S
C1680 C1681 1.387 . S
C1681 H1666 0.930 . S
C1681 C1676 1.390 . S
C1681 C1680 1.387 . S
H1682 C1694 0.930 1_545 S
H1683 C1696 0.930 . S
H1684 C1697 0.930 . S
H1685 C1701 0.959 . S
H1686 C1701 0.959 . S
H1687 C1701 0.961 . S
H1688 C1702 0.960 . S
H1689 C1702 0.961 . S
H1690 C1702 0.959 . S
H1691 C1705 0.929 . S
H1692 C1706 0.931 . S
H1693 C1708 0.930 . S
C1694 H1682 0.930 1_565 S
C1694 C1695 1.399 . S
C1694 C1699 1.399 . S
C1695 C1694 1.399 . S
C1695 C1696 1.376 . S
C1696 H1683 0.930 . S
C1696 C1695 1.376 . S
C1696 C1697 1.388 . S
C1697 H1684 0.930 . S
C1697 C1696 1.388 . S
C1697 C1698 1.390 . S
C1698 C1697 1.390 . S
C1698 C1699 1.394 . S
C1698 C1704 1.465 . S
C1699 C1694 1.399 . S
C1699 C1698 1.394 . S
C1699 C1700 1.516 . S
C1700 C1699 1.516 . S
C1700 C1701 1.502 1_565 S
C1700 C1702 1.561 . S
C1700 C1703 1.526 . S
C1701 H1685 0.959 . S
C1701 H1686 0.959 . S
C1701 H1687 0.961 . S
C1701 C1700 1.502 1_545 S
C1702 H1688 0.960 . S
C1702 H1689 0.961 . S
C1702 H1690 0.959 . S
C1702 C1700 1.561 . S
C1703 C1700 1.526 . S
C1703 C1704 1.396 . S
C1703 C1708 1.390 . S
C1704 C1698 1.465 . S
C1704 C1703 1.396 . S
C1704 C1705 1.399 . S
C1705 H1691 0.929 . S
C1705 C1704 1.399 . S
C1705 C1706 1.385 . S
C1706 H1692 0.931 . S
C1706 C1705 1.385 . S
C1706 C1707 1.389 . S
C1707 C1706 1.389 . S
C1707 C1708 1.387 . S
C1708 H1693 0.930 . S
C1708 C1703 1.390 . S
C1708 C1707 1.387 . S
H1709 C1721 0.930 . S
H1710 C1723 0.930 . S
H1711 C1724 0.930 . S
H1712 C1728 0.959 . S
H1713 C1728 0.959 . S
H1714 C1728 0.961 . S
H1715 C1729 0.960 . S
H1716 C1729 0.961 . S
H1717 C1729 0.959 . S
H1718 C1732 0.929 . S
H1719 C1733 0.931 . S
H1720 C1735 0.930 . S
C1721 H1709 0.930 . S
C1721 C1722 1.399 . S
C1721 C1726 1.399 . S
C1722 C1721 1.399 . S
C1722 C1723 1.376 . S
C1723 H1710 0.930 . S
C1723 C1722 1.376 . S
C1723 C1724 1.388 . S
C1724 H1711 0.930 . S
C1724 C1723 1.388 . S
C1724 C1725 1.390 . S
C1725 C1724 1.390 . S
C1725 C1726 1.394 . S
C1725 C1731 1.465 . S
C1726 C1721 1.399 . S
C1726 C1725 1.394 . S
C1726 C1727 1.516 . S
C1727 C1726 1.516 . S
C1727 C1728 1.502 . S
C1727 C1729 1.561 . S
C1727 C1730 1.526 . S
C1728 H1712 0.959 . S
C1728 H1713 0.959 . S
C1728 H1714 0.961 . S
C1728 C1727 1.502 . S
C1729 H1715 0.960 . S
C1729 H1716 0.961 . S
C1729 H1717 0.959 . S
C1729 C1727 1.561 . S
C1730 C1727 1.526 . S
C1730 C1731 1.396 . S
C1730 C1735 1.390 . S
C1731 C1725 1.465 . S
C1731 C1730 1.396 . S
C1731 C1732 1.399 . S
C1732 H1718 0.929 . S
C1732 C1731 1.399 . S
C1732 C1733 1.385 . S
C1733 H1719 0.931 . S
C1733 C1732 1.385 . S
C1733 C1734 1.389 . S
C1734 C1733 1.389 . S
C1734 C1735 1.387 . S
C1735 H1720 0.930 . S
C1735 C1730 1.390 . S
C1735 C1734 1.387 . S
H1736 C1748 0.930 . S
H1737 C1750 0.930 . S
H1738 C1751 0.930 . S
H1739 C1755 0.959 . S
H1740 C1755 0.959 . S
H1741 C1755 0.961 . S
H1742 C1756 0.960 . S
H1743 C1756 0.961 . S
H1744 C1756 0.959 . S
H1745 C1759 0.929 . S
H1746 C1760 0.931 . S
H1747 C1762 0.930 . S
C1748 H1736 0.930 . S
C1748 C1749 1.399 1_565 S
C1748 C1753 1.399 . S
C1749 C1748 1.399 1_545 S
C1749 C1750 1.376 . S
C1750 H1737 0.930 . S
C1750 C1749 1.376 . S
C1750 C1751 1.388 . S
C1751 H1738 0.930 . S
C1751 C1750 1.388 . S
C1751 C1752 1.390 . S
C1752 C1751 1.390 . S
C1752 C1753 1.394 1_545 S
C1752 C1758 1.465 . S
C1753 C1748 1.399 . S
C1753 C1752 1.394 1_565 S
C1753 C1754 1.516 . S
C1754 C1753 1.516 . S
C1754 C1755 1.502 . S
C1754 C1756 1.561 . S
C1754 C1757 1.526 . S
C1755 H1739 0.959 . S
C1755 H1740 0.959 . S
C1755 H1741 0.961 . S
C1755 C1754 1.502 . S
C1756 H1742 0.960 . S
C1756 H1743 0.961 . S
C1756 H1744 0.959 . S
C1756 C1754 1.561 . S
C1757 C1754 1.526 . S
C1757 C1758 1.396 1_565 S
C1757 C1762 1.390 . S
C1758 C1752 1.465 . S
C1758 C1757 1.396 1_545 S
C1758 C1759 1.399 . S
C1759 H1745 0.929 . S
C1759 C1758 1.399 . S
C1759 C1760 1.385 . S
C1760 H1746 0.931 . S
C1760 C1759 1.385 . S
C1760 C1761 1.389 . S
C1761 C1760 1.389 . S
C1761 C1762 1.387 1_545 S
C1762 H1747 0.930 . S
C1762 C1757 1.390 . S
C1762 C1761 1.387 1_565 S
H1763 C1775 0.930 . S
H1764 C1777 0.930 . S
H1765 C1778 0.930 . S
H1766 C1782 0.959 . S
H1767 C1782 0.959 . S
H1768 C1782 0.961 . S
H1769 C1783 0.960 . S
H1770 C1783 0.961 . S
H1771 C1783 0.959 . S
H1772 C1786 0.929 . S
H1773 C1787 0.931 . S
H1774 C1789 0.930 . S
C1775 H1763 0.930 . S
C1775 C1776 1.399 . S
C1775 C1780 1.399 . S
C1776 C1775 1.399 . S
C1776 C1777 1.376 . S
C1777 H1764 0.930 . S
C1777 C1776 1.376 . S
C1777 C1778 1.388 . S
C1778 H1765 0.930 . S
C1778 C1777 1.388 . S
C1778 C1779 1.390 . S
C1779 C1778 1.390 . S
C1779 C1780 1.394 . S
C1779 C1785 1.465 . S
C1780 C1775 1.399 . S
C1780 C1779 1.394 . S
C1780 C1781 1.516 . S
C1781 C1780 1.516 . S
C1781 C1782 1.502 . S
C1781 C1783 1.561 . S
C1781 C1784 1.526 . S
C1782 H1766 0.959 . S
C1782 H1767 0.959 . S
C1782 H1768 0.961 . S
C1782 C1781 1.502 . S
C1783 H1769 0.960 . S
C1783 H1770 0.961 . S
C1783 H1771 0.959 . S
C1783 C1781 1.561 . S
C1784 C1781 1.526 . S
C1784 C1785 1.396 . S
C1784 C1789 1.390 . S
C1785 C1779 1.465 . S
C1785 C1784 1.396 . S
C1785 C1786 1.399 . S
C1786 H1772 0.929 . S
C1786 C1785 1.399 . S
C1786 C1787 1.385 . S
C1787 H1773 0.931 . S
C1787 C1786 1.385 . S
C1787 C1788 1.389 . S
C1788 C1787 1.389 . S
C1788 C1789 1.387 . S
C1789 H1774 0.930 . S
C1789 C1784 1.390 . S
C1789 C1788 1.387 . S
H1790 C1802 0.930 . S
H1791 C1804 0.930 . S
H1792 C1805 0.930 . S
H1793 C1809 0.962 1_545 S
H1794 C1809 0.959 . S
H1795 C1809 0.961 . S
H1796 C1810 0.960 . S
H1797 C1810 0.961 . S
H1798 C1810 0.959 . S
H1799 C1813 0.929 . S
H1800 C1814 0.931 . S
H1801 C1816 0.930 . S
C1802 H1790 0.930 . S
C1802 C1803 1.399 . S
C1802 C1807 1.399 . S
C1803 C1802 1.399 . S
C1803 C1804 1.376 1_565 S
C1804 H1791 0.930 . S
C1804 C1803 1.376 1_545 S
C1804 C1805 1.388 . S
C1805 H1792 0.930 . S
C1805 C1804 1.388 . S
C1805 C1806 1.390 1_545 S
C1806 C1805 1.390 1_565 S
C1806 C1807 1.394 . S
C1806 C1812 1.465 . S
C1807 C1802 1.399 . S
C1807 C1806 1.394 . S
C1807 C1808 1.516 . S
C1808 C1807 1.516 . S
C1808 C1809 1.502 . S
C1808 C1810 1.561 . S
C1808 C1811 1.526 . S
C1809 H1793 0.962 1_565 S
C1809 H1794 0.959 . S
C1809 H1795 0.961 . S
C1809 C1808 1.502 . S
C1810 H1796 0.960 . S
C1810 H1797 0.961 . S
C1810 H1798 0.959 . S
C1810 C1808 1.561 . S
C1811 C1808 1.526 . S
C1811 C1812 1.396 . S
C1811 C1816 1.390 . S
C1812 C1806 1.465 . S
C1812 C1811 1.396 . S
C1812 C1813 1.399 1_565 S
C1813 H1799 0.929 . S
C1813 C1812 1.399 1_545 S
C1813 C1814 1.385 . S
C1814 H1800 0.931 . S
C1814 C1813 1.385 . S
C1814 C1815 1.389 1_545 S
C1815 C1814 1.389 1_565 S
C1815 C1816 1.387 . S
C1816 H1801 0.930 . S
C1816 C1811 1.390 . S
C1816 C1815 1.387 . S
H1817 C1829 0.930 . S
H1818 C1831 0.930 . S
H1819 C1832 0.930 . S
H1820 C1836 0.959 . S
H1821 C1836 0.959 . S
H1822 C1836 0.961 . S
H1823 C1837 0.960 . S
H1824 C1837 0.961 . S
H1825 C1837 0.959 . S
H1826 C1840 0.929 . S
H1827 C1841 0.931 . S
H1828 C1843 0.930 . S
C1829 H1817 0.930 . S
C1829 C1830 1.399 . S
C1829 C1834 1.399 . S
C1830 C1829 1.399 . S
C1830 C1831 1.376 . S
C1831 H1818 0.930 . S
C1831 C1830 1.376 . S
C1831 C1832 1.388 . S
C1832 H1819 0.930 . S
C1832 C1831 1.388 . S
C1832 C1833 1.390 . S
C1833 C1832 1.390 . S
C1833 C1834 1.394 . S
C1833 C1839 1.465 . S
C1834 C1829 1.399 . S
C1834 C1833 1.394 . S
C1834 C1835 1.516 . S
C1835 C1834 1.516 . S
C1835 C1836 1.502 . S
C1835 C1837 1.561 . S
C1835 C1838 1.526 . S
C1836 H1820 0.959 . S
C1836 H1821 0.959 . S
C1836 H1822 0.961 . S
C1836 C1835 1.502 . S
C1837 H1823 0.960 . S
C1837 H1824 0.961 . S
C1837 H1825 0.959 . S
C1837 C1835 1.561 . S
C1838 C1835 1.526 . S
C1838 C1839 1.396 . S
C1838 C1843 1.390 . S
C1839 C1833 1.465 . S
C1839 C1838 1.396 . S
C1839 C1840 1.399 . S
C1840 H1826 0.929 . S
C1840 C1839 1.399 . S
C1840 C1841 1.385 . S
C1841 H1827 0.931 . S
C1841 C1840 1.385 . S
C1841 C1842 1.389 . S
C1842 C1841 1.389 . S
C1842 C1843 1.387 . S
C1843 H1828 0.930 . S
C1843 C1838 1.390 . S
C1843 C1842 1.387 . S
H1844 C1856 0.930 . S
H1845 C1858 0.930 . S
H1846 C1859 0.930 . S
H1847 C1863 0.959 . S
H1848 C1863 0.959 . S
H1849 C1863 0.961 . S
H1850 C1864 0.960 . S
H1851 C1864 0.961 . S
H1852 C1864 0.959 . S
H1853 C1867 0.929 . S
H1854 C1868 0.931 . S
H1855 C1870 0.930 . S
C1856 H1844 0.930 . S
C1856 C1857 1.399 . S
C1856 C1861 1.399 . S
C1857 C1856 1.399 . S
C1857 C1858 1.376 1_565 S
C1858 H1845 0.930 . S
C1858 C1857 1.376 1_545 S
C1858 C1859 1.388 . S
C1859 H1846 0.930 . S
C1859 C1858 1.388 . S
C1859 C1860 1.390 . S
C1860 C1859 1.390 . S
C1860 C1861 1.394 1_545 S
C1860 C1866 1.465 . S
C1861 C1856 1.399 . S
C1861 C1860 1.394 1_565 S
C1861 C1862 1.516 . S
C1862 C1861 1.516 . S
C1862 C1863 1.502 . S
C1862 C1864 1.561 . S
C1862 C1865 1.526 . S
C1863 H1847 0.959 . S
C1863 H1848 0.959 . S
C1863 H1849 0.961 . S
C1863 C1862 1.502 . S
C1864 H1850 0.960 . S
C1864 H1851 0.961 . S
C1864 H1852 0.959 . S
C1864 C1862 1.561 . S
C1865 C1862 1.526 . S
C1865 C1866 1.396 1_565 S
C1865 C1870 1.390 . S
C1866 C1860 1.465 . S
C1866 C1865 1.396 1_545 S
C1866 C1867 1.399 . S
C1867 H1853 0.929 . S
C1867 C1866 1.399 . S
C1867 C1868 1.385 . S
C1868 H1854 0.931 . S
C1868 C1867 1.385 . S
C1868 C1869 1.389 1_545 S
C1869 C1868 1.389 1_565 S
C1869 C1870 1.387 . S
C1870 H1855 0.930 . S
C1870 C1865 1.390 . S
C1870 C1869 1.387 . S
H1871 C1883 0.930 . S
H1872 C1885 0.930 . S
H1873 C1886 0.930 . S
H1874 C1890 0.959 . S
H1875 C1890 0.959 . S
H1876 C1890 0.961 . S
H1877 C1891 0.960 . S
H1878 C1891 0.961 . S
H1879 C1891 0.959 . S
H1880 C1894 0.929 . S
H1881 C1895 0.931 . S
H1882 C1897 0.930 . S
C1883 H1871 0.930 . S
C1883 C1884 1.399 . S
C1883 C1888 1.399 . S
C1884 C1883 1.399 . S
C1884 C1885 1.376 . S
C1885 H1872 0.930 . S
C1885 C1884 1.376 . S
C1885 C1886 1.388 . S
C1886 H1873 0.930 . S
C1886 C1885 1.388 . S
C1886 C1887 1.390 . S
C1887 C1886 1.390 . S
C1887 C1888 1.394 . S
C1887 C1893 1.465 . S
C1888 C1883 1.399 . S
C1888 C1887 1.394 . S
C1888 C1889 1.516 . S
C1889 C1888 1.516 . S
C1889 C1890 1.502 . S
C1889 C1891 1.561 . S
C1889 C1892 1.526 . S
C1890 H1874 0.959 . S
C1890 H1875 0.959 . S
C1890 H1876 0.961 . S
C1890 C1889 1.502 . S
C1891 H1877 0.960 . S
C1891 H1878 0.961 . S
C1891 H1879 0.959 . S
C1891 C1889 1.561 . S
C1892 C1889 1.526 . S
C1892 C1893 1.396 . S
C1892 C1897 1.390 . S
C1893 C1887 1.465 . S
C1893 C1892 1.396 . S
C1893 C1894 1.399 . S
C1894 H1880 0.929 . S
C1894 C1893 1.399 . S
C1894 C1895 1.385 . S
C1895 H1881 0.931 . S
C1895 C1894 1.385 . S
C1895 C1896 1.389 . S
C1896 C1895 1.389 . S
C1896 C1897 1.387 . S
C1897 H1882 0.930 . S
C1897 C1892 1.390 . S
C1897 C1896 1.387 . S
H1898 C1910 0.932 . S
H1899 C1912 0.930 . S
H1900 C1913 0.930 . S
H1901 C1917 0.959 . S
H1902 C1917 0.959 . S
H1903 C1917 0.961 . S
H1904 C1918 0.960 . S
H1905 C1918 0.961 . S
H1906 C1918 0.959 . S
H1907 C1921 0.929 . S
H1908 C1922 0.931 . S
H1909 C1924 0.930 . S
C1910 H1898 0.932 . S
C1910 C1911 1.399 . S
C1910 C1915 1.399 . S
C1911 C1910 1.399 . S
C1911 C1912 1.376 . S
C1912 H1899 0.930 . S
C1912 C1911 1.376 . S
C1912 C1913 1.388 . S
C1913 H1900 0.930 . S
C1913 C1912 1.388 . S
C1913 C1914 1.390 . S
C1914 C1913 1.390 . S
C1914 C1915 1.394 . S
C1914 C1920 1.465 . S
C1915 C1910 1.399 . S
C1915 C1914 1.394 . S
C1915 C1916 1.516 1_545 S
C1916 C1915 1.516 1_565 S
C1916 C1917 1.502 1_565 S
C1916 C1918 1.561 . S
C1916 C1919 1.524 1_565 S
C1917 H1901 0.959 . S
C1917 H1902 0.959 . S
C1917 H1903 0.961 . S
C1917 C1916 1.502 1_545 S
C1918 H1904 0.960 . S
C1918 H1905 0.961 . S
C1918 H1906 0.959 . S
C1918 C1916 1.561 . S
C1919 C1916 1.524 1_545 S
C1919 C1920 1.399 . S
C1919 C1924 1.389 1_545 S
C1920 C1914 1.465 . S
C1920 C1919 1.399 . S
C1920 C1921 1.399 . S
C1921 H1907 0.929 . S
C1921 C1920 1.399 . S
C1921 C1922 1.385 . S
C1922 H1908 0.931 . S
C1922 C1921 1.385 . S
C1922 C1923 1.389 . S
C1923 C1922 1.389 . S
C1923 C1924 1.387 1_545 S
C1924 H1909 0.930 . S
C1924 C1919 1.389 1_565 S
C1924 C1923 1.387 1_565 S
H1925 C1937 0.930 . S
H1926 C1939 0.930 . S
H1927 C1940 0.930 . S
H1928 C1944 0.959 . S
H1929 C1944 0.959 . S
H1930 C1944 0.961 . S
H1931 C1945 0.960 . S
H1932 C1945 0.961 . S
H1933 C1945 0.959 . S
H1934 C1948 0.929 . S
H1935 C1949 0.931 . S
H1936 C1951 0.930 . S
C1937 H1925 0.930 . S
C1937 C1938 1.399 . S
C1937 C1942 1.399 . S
C1938 C1937 1.399 . S
C1938 C1939 1.376 . S
C1939 H1926 0.930 . S
C1939 C1938 1.376 . S
C1939 C1940 1.388 . S
C1940 H1927 0.930 . S
C1940 C1939 1.388 . S
C1940 C1941 1.390 . S
C1941 C1940 1.390 . S
C1941 C1942 1.394 . S
C1941 C1947 1.465 . S
C1942 C1937 1.399 . S
C1942 C1941 1.394 . S
C1942 C1943 1.516 . S
C1943 C1942 1.516 . S
C1943 C1944 1.502 . S
C1943 C1945 1.561 . S
C1943 C1946 1.526 . S
C1944 H1928 0.959 . S
C1944 H1929 0.959 . S
C1944 H1930 0.961 . S
C1944 C1943 1.502 . S
C1945 H1931 0.960 . S
C1945 H1932 0.961 . S
C1945 H1933 0.959 . S
C1945 C1943 1.561 . S
C1946 C1943 1.526 . S
C1946 C1947 1.396 . S
C1946 C1951 1.390 . S
C1947 C1941 1.465 . S
C1947 C1946 1.396 . S
C1947 C1948 1.399 . S
C1948 H1934 0.929 . S
C1948 C1947 1.399 . S
C1948 C1949 1.385 . S
C1949 H1935 0.931 . S
C1949 C1948 1.385 . S
C1949 C1950 1.389 . S
C1950 C1949 1.389 . S
C1950 C1951 1.387 . S
C1951 H1936 0.930 . S
C1951 C1946 1.390 . S
C1951 C1950 1.387 . S
H1952 C1964 0.930 . S
H1953 C1966 0.930 . S
H1954 C1967 0.930 . S
H1955 C1971 0.959 . S
H1956 C1971 0.959 . S
H1957 C1971 0.961 . S
H1958 C1972 0.960 . S
H1959 C1972 0.961 . S
H1960 C1972 0.959 . S
H1961 C1975 0.929 . S
H1962 C1976 0.931 . S
H1963 C1978 0.930 . S
C1964 H1952 0.930 . S
C1964 C1965 1.399 . S
C1964 C1969 1.399 . S
C1965 C1964 1.399 . S
C1965 C1966 1.376 . S
C1966 H1953 0.930 . S
C1966 C1965 1.376 . S
C1966 C1967 1.388 . S
C1967 H1954 0.930 . S
C1967 C1966 1.388 . S
C1967 C1968 1.390 . S
C1968 C1967 1.390 . S
C1968 C1969 1.394 . S
C1968 C1974 1.465 . S
C1969 C1964 1.399 . S
C1969 C1968 1.394 . S
C1969 C1970 1.516 . S
C1970 C1969 1.516 . S
C1970 C1971 1.502 . S
C1970 C1972 1.561 . S
C1970 C1973 1.526 . S
C1971 H1955 0.959 . S
C1971 H1956 0.959 . S
C1971 H1957 0.961 . S
C1971 C1970 1.502 . S
C1972 H1958 0.960 . S
C1972 H1959 0.961 . S
C1972 H1960 0.959 . S
C1972 C1970 1.561 . S
C1973 C1970 1.526 . S
C1973 C1974 1.396 . S
C1973 C1978 1.390 . S
C1974 C1968 1.465 . S
C1974 C1973 1.396 . S
C1974 C1975 1.399 . S
C1975 H1961 0.929 . S
C1975 C1974 1.399 . S
C1975 C1976 1.385 . S
C1976 H1962 0.931 . S
C1976 C1975 1.385 . S
C1976 C1977 1.389 . S
C1977 C1976 1.389 . S
C1977 C1978 1.387 . S
C1978 H1963 0.930 . S
C1978 C1973 1.390 . S
C1978 C1977 1.387 . S
H1979 C1991 0.930 . S
H1980 C1993 0.930 . S
H1981 C1994 0.930 . S
H1982 C1998 0.959 . S
H1983 C1998 0.959 . S
H1984 C1998 0.961 . S
H1985 C1999 0.960 . S
H1986 C1999 0.961 . S
H1987 C1999 0.959 . S
H1988 C2002 0.929 . S
H1989 C2003 0.931 . S
H1990 C2005 0.930 . S
C1991 H1979 0.930 . S
C1991 C1992 1.399 . S
C1991 C1996 1.399 1_545 S
C1992 C1991 1.399 . S
C1992 C1993 1.376 . S
C1993 H1980 0.930 . S
C1993 C1992 1.376 . S
C1993 C1994 1.388 1_545 S
C1994 H1981 0.930 . S
C1994 C1993 1.388 1_565 S
C1994 C1995 1.390 . S
C1995 C1994 1.390 . S
C1995 C1996 1.394 . S
C1995 C2001 1.465 . S
C1996 C1991 1.399 1_565 S
C1996 C1995 1.394 . S
C1996 C1997 1.516 . S
C1997 C1996 1.516 . S
C1997 C1998 1.502 . S
C1997 C1999 1.561 . S
C1997 C2000 1.526 . S
C1998 H1982 0.959 . S
C1998 H1983 0.959 . S
C1998 H1984 0.961 . S
C1998 C1997 1.502 . S
C1999 H1985 0.960 . S
C1999 H1986 0.961 . S
C1999 H1987 0.959 . S
C1999 C1997 1.561 . S
C2000 C1997 1.526 . S
C2000 C2001 1.396 . S
C2000 C2005 1.390 . S
C2001 C1995 1.465 . S
C2001 C2000 1.396 . S
C2001 C2002 1.399 . S
C2002 H1988 0.929 . S
C2002 C2001 1.399 . S
C2002 C2003 1.385 . S
C2003 H1989 0.931 . S
C2003 C2002 1.385 . S
C2003 C2004 1.389 . S
C2004 C2003 1.389 . S
C2004 C2005 1.387 . S
C2005 H1990 0.930 . S
C2005 C2000 1.390 . S
C2005 C2004 1.387 . S
H2006 C2018 0.930 . S
H2007 C2020 0.930 . S
H2008 C2021 0.930 . S
H2009 C2025 0.959 . S
H2010 C2025 0.959 . S
H2011 C2025 0.961 . S
H2012 C2026 0.960 . S
H2013 C2026 0.961 . S
H2014 C2026 0.959 . S
H2015 C2029 0.929 . S
H2016 C2030 0.931 . S
H2017 C2032 0.930 . S
C2018 H2006 0.930 . S
C2018 C2019 1.399 . S
C2018 C2023 1.399 . S
C2019 C2018 1.399 . S
C2019 C2020 1.376 . S
C2020 H2007 0.930 . S
C2020 C2019 1.376 . S
C2020 C2021 1.388 . S
C2021 H2008 0.930 . S
C2021 C2020 1.388 . S
C2021 C2022 1.390 . S
C2022 C2021 1.390 . S
C2022 C2023 1.394 . S
C2022 C2028 1.465 . S
C2023 C2018 1.399 . S
C2023 C2022 1.394 . S
C2023 C2024 1.516 . S
C2024 C2023 1.516 . S
C2024 C2025 1.502 . S
C2024 C2026 1.561 . S
C2024 C2027 1.526 . S
C2025 H2009 0.959 . S
C2025 H2010 0.959 . S
C2025 H2011 0.961 . S
C2025 C2024 1.502 . S
C2026 H2012 0.960 . S
C2026 H2013 0.961 . S
C2026 H2014 0.959 . S
C2026 C2024 1.561 . S
C2027 C2024 1.526 . S
C2027 C2028 1.396 . S
C2027 C2032 1.390 . S
C2028 C2022 1.465 . S
C2028 C2027 1.396 . S
C2028 C2029 1.399 . S
C2029 H2015 0.929 . S
C2029 C2028 1.399 . S
C2029 C2030 1.385 . S
C2030 H2016 0.931 . S
C2030 C2029 1.385 . S
C2030 C2031 1.389 . S
C2031 C2030 1.389 . S
C2031 C2032 1.387 . S
C2032 H2017 0.930 . S
C2032 C2027 1.390 . S
C2032 C2031 1.387 . S
H2033 C2045 0.930 . S
H2034 C2047 0.930 . S
H2035 C2048 0.930 . S
H2036 C2052 0.959 . S
H2037 C2052 0.959 . S
H2038 C2052 0.961 . S
H2039 C2053 0.960 . S
H2040 C2053 0.961 . S
H2041 C2053 0.959 . S
H2042 C2056 0.929 . S
H2043 C2057 0.931 . S
H2044 C2059 0.930 . S
C2045 H2033 0.930 . S
C2045 C2046 1.399 . S
C2045 C2050 1.399 . S
C2046 C2045 1.399 . S
C2046 C2047 1.376 . S
C2047 H2034 0.930 . S
C2047 C2046 1.376 . S
C2047 C2048 1.388 . S
C2048 H2035 0.930 . S
C2048 C2047 1.388 . S
C2048 C2049 1.390 . S
C2049 C2048 1.390 . S
C2049 C2050 1.394 . S
C2049 C2055 1.465 . S
C2050 C2045 1.399 . S
C2050 C2049 1.394 . S
C2050 C2051 1.516 . S
C2051 C2050 1.516 . S
C2051 C2052 1.502 . S
C2051 C2053 1.561 . S
C2051 C2054 1.526 . S
C2052 H2036 0.959 . S
C2052 H2037 0.959 . S
C2052 H2038 0.961 . S
C2052 C2051 1.502 . S
C2053 H2039 0.960 . S
C2053 H2040 0.961 . S
C2053 H2041 0.959 . S
C2053 C2051 1.561 . S
C2054 C2051 1.526 . S
C2054 C2055 1.396 . S
C2054 C2059 1.390 1_545 S
C2055 C2049 1.465 . S
C2055 C2054 1.396 . S
C2055 C2056 1.399 . S
C2056 H2042 0.929 . S
C2056 C2055 1.399 . S
C2056 C2057 1.385 1_545 S
C2057 H2043 0.931 . S
C2057 C2056 1.385 1_565 S
C2057 C2058 1.389 . S
C2058 C2057 1.389 . S
C2058 C2059 1.387 . S
C2059 H2044 0.930 . S
C2059 C2054 1.390 1_565 S
C2059 C2058 1.387 . S
H2060 C2072 0.930 . S
H2061 C2074 0.930 . S
H2062 C2075 0.930 . S
H2063 C2079 0.959 . S
H2064 C2079 0.959 . S
H2065 C2079 0.961 . S
H2066 C2080 0.960 . S
H2067 C2080 0.961 . S
H2068 C2080 0.959 . S
H2069 C2083 0.929 . S
H2070 C2084 0.931 . S
H2071 C2086 0.930 . S
C2072 H2060 0.930 . S
C2072 C2073 1.399 . S
C2072 C2077 1.399 . S
C2073 C2072 1.399 . S
C2073 C2074 1.376 . S
C2074 H2061 0.930 . S
C2074 C2073 1.376 . S
C2074 C2075 1.388 . S
C2075 H2062 0.930 . S
C2075 C2074 1.388 . S
C2075 C2076 1.390 . S
C2076 C2075 1.390 . S
C2076 C2077 1.394 . S
C2076 C2082 1.465 . S
C2077 C2072 1.399 . S
C2077 C2076 1.394 . S
C2077 C2078 1.516 . S
C2078 C2077 1.516 . S
C2078 C2079 1.502 . S
C2078 C2080 1.561 . S
C2078 C2081 1.526 . S
C2079 H2063 0.959 . S
C2079 H2064 0.959 . S
C2079 H2065 0.961 . S
C2079 C2078 1.502 . S
C2080 H2066 0.960 . S
C2080 H2067 0.961 . S
C2080 H2068 0.959 . S
C2080 C2078 1.561 . S
C2081 C2078 1.526 . S
C2081 C2082 1.396 . S
C2081 C2086 1.390 . S
C2082 C2076 1.465 . S
C2082 C2081 1.396 . S
C2082 C2083 1.399 . S
C2083 H2069 0.929 . S
C2083 C2082 1.399 . S
C2083 C2084 1.385 . S
C2084 H2070 0.931 . S
C2084 C2083 1.385 . S
C2084 C2085 1.389 . S
C2085 C2084 1.389 . S
C2085 C2086 1.387 . S
C2086 H2071 0.930 . S
C2086 C2081 1.390 . S
C2086 C2085 1.387 . S
H2087 C2099 0.930 . S
H2088 C2101 0.930 . S
H2089 C2102 0.930 . S
H2090 C2106 0.959 . S
H2091 C2106 0.959 . S
H2092 C2106 0.961 . S
H2093 C2107 0.960 . S
H2094 C2107 0.961 . S
H2095 C2107 0.959 . S
H2096 C2110 0.929 . S
H2097 C2111 0.931 . S
H2098 C2113 0.930 . S
C2099 H2087 0.930 . S
C2099 C2100 1.399 . S
C2099 C2104 1.399 1_545 S
C2100 C2099 1.399 . S
C2100 C2101 1.376 . S
C2101 H2088 0.930 . S
C2101 C2100 1.376 . S
C2101 C2102 1.388 1_545 S
C2102 H2089 0.930 . S
C2102 C2101 1.388 1_565 S
C2102 C2103 1.390 . S
C2103 C2102 1.390 . S
C2103 C2104 1.394 . S
C2103 C2109 1.465 . S
C2104 C2099 1.399 1_565 S
C2104 C2103 1.394 . S
C2104 C2105 1.516 . S
C2105 C2104 1.516 . S
C2105 C2106 1.502 . S
C2105 C2107 1.561 . S
C2105 C2108 1.526 . S
C2106 H2090 0.959 . S
C2106 H2091 0.959 . S
C2106 H2092 0.961 . S
C2106 C2105 1.502 . S
C2107 H2093 0.960 . S
C2107 H2094 0.961 . S
C2107 H2095 0.959 . S
C2107 C2105 1.561 . S
C2108 C2105 1.526 . S
C2108 C2109 1.396 . S
C2108 C2113 1.390 . S
C2109 C2103 1.465 . S
C2109 C2108 1.396 . S
C2109 C2110 1.399 . S
C2110 H2096 0.929 . S
C2110 C2109 1.399 . S
C2110 C2111 1.385 . S
C2111 H2097 0.931 . S
C2111 C2110 1.385 . S
C2111 C2112 1.389 . S
C2112 C2111 1.389 . S
C2112 C2113 1.387 . S
C2113 H2098 0.930 . S
C2113 C2108 1.390 . S
C2113 C2112 1.387 . S
H2114 C2126 0.930 . S
H2115 C2128 0.930 . S
H2116 C2129 0.930 . S
H2117 C2133 0.959 . S
H2118 C2133 0.959 . S
H2119 C2133 0.961 . S
H2120 C2134 0.960 . S
H2121 C2134 0.961 . S
H2122 C2134 0.959 . S
H2123 C2137 0.929 . S
H2124 C2138 0.931 . S
H2125 C2140 0.930 . S
C2126 H2114 0.930 . S
C2126 C2127 1.399 . S
C2126 C2131 1.399 . S
C2127 C2126 1.399 . S
C2127 C2128 1.376 . S
C2128 H2115 0.930 . S
C2128 C2127 1.376 . S
C2128 C2129 1.388 . S
C2129 H2116 0.930 . S
C2129 C2128 1.388 . S
C2129 C2130 1.390 . S
C2130 C2129 1.390 . S
C2130 C2131 1.394 . S
C2130 C2136 1.465 . S
C2131 C2126 1.399 . S
C2131 C2130 1.394 . S
C2131 C2132 1.516 . S
C2132 C2131 1.516 . S
C2132 C2133 1.502 . S
C2132 C2134 1.561 . S
C2132 C2135 1.526 . S
C2133 H2117 0.959 . S
C2133 H2118 0.959 . S
C2133 H2119 0.961 . S
C2133 C2132 1.502 . S
C2134 H2120 0.960 . S
C2134 H2121 0.961 . S
C2134 H2122 0.959 . S
C2134 C2132 1.561 . S
C2135 C2132 1.526 . S
C2135 C2136 1.396 . S
C2135 C2140 1.390 . S
C2136 C2130 1.465 . S
C2136 C2135 1.396 . S
C2136 C2137 1.399 . S
C2137 H2123 0.929 . S
C2137 C2136 1.399 . S
C2137 C2138 1.385 . S
C2138 H2124 0.931 . S
C2138 C2137 1.385 . S
C2138 C2139 1.389 . S
C2139 C2138 1.389 . S
C2139 C2140 1.387 . S
C2140 H2125 0.930 . S
C2140 C2135 1.390 . S
C2140 C2139 1.387 . S
H2141 C2153 0.930 . S
H2142 C2155 0.930 . S
H2143 C2156 0.930 . S
H2144 C2160 0.959 . S
H2145 C2160 0.959 . S
H2146 C2160 0.961 . S
H2147 C2161 0.960 . S
H2148 C2161 0.961 . S
H2149 C2161 0.959 . S
H2150 C2164 0.929 . S
H2151 C2165 0.931 . S
H2152 C2167 0.930 . S
C2153 H2141 0.930 . S
C2153 C2154 1.399 . S
C2153 C2158 1.399 . S
C2154 C2153 1.399 . S
C2154 C2155 1.376 . S
C2155 H2142 0.930 . S
C2155 C2154 1.376 . S
C2155 C2156 1.388 . S
C2156 H2143 0.930 . S
C2156 C2155 1.388 . S
C2156 C2157 1.390 . S
C2157 C2156 1.390 . S
C2157 C2158 1.394 . S
C2157 C2163 1.465 . S
C2158 C2153 1.399 . S
C2158 C2157 1.394 . S
C2158 C2159 1.516 . S
C2159 C2158 1.516 . S
C2159 C2160 1.502 . S
C2159 C2161 1.561 . S
C2159 C2162 1.526 . S
C2160 H2144 0.959 . S
C2160 H2145 0.959 . S
C2160 H2146 0.961 . S
C2160 C2159 1.502 . S
C2161 H2147 0.960 . S
C2161 H2148 0.961 . S
C2161 H2149 0.959 . S
C2161 C2159 1.561 . S
C2162 C2159 1.526 . S
C2162 C2163 1.396 . S
C2162 C2167 1.390 1_545 S
C2163 C2157 1.465 . S
C2163 C2162 1.396 . S
C2163 C2164 1.399 . S
C2164 H2150 0.929 . S
C2164 C2163 1.399 . S
C2164 C2165 1.385 1_545 S
C2165 H2151 0.931 . S
C2165 C2164 1.385 1_565 S
C2165 C2166 1.389 . S
C2166 C2165 1.389 . S
C2166 C2167 1.387 . S
C2167 H2152 0.930 . S
C2167 C2162 1.390 1_565 S
C2167 C2166 1.387 . S
H2168 C2180 0.930 . S
H2169 C2182 0.930 . S
H2170 C2183 0.930 . S
H2171 C2187 0.959 . S
H2172 C2187 0.959 . S
H2173 C2187 0.961 . S
H2174 C2188 0.960 . S
H2175 C2188 0.961 . S
H2176 C2188 0.959 . S
H2177 C2191 0.929 . S
H2178 C2192 0.931 . S
H2179 C2194 0.930 . S
C2180 H2168 0.930 . S
C2180 C2181 1.399 . S
C2180 C2185 1.399 . S
C2181 C2180 1.399 . S
C2181 C2182 1.376 . S
C2182 H2169 0.930 . S
C2182 C2181 1.376 . S
C2182 C2183 1.388 . S
C2183 H2170 0.930 . S
C2183 C2182 1.388 . S
C2183 C2184 1.390 . S
C2184 C2183 1.390 . S
C2184 C2185 1.394 . S
C2184 C2190 1.465 . S
C2185 C2180 1.399 . S
C2185 C2184 1.394 . S
C2185 C2186 1.516 . S
C2186 C2185 1.516 . S
C2186 C2187 1.502 . S
C2186 C2188 1.561 . S
C2186 C2189 1.526 . S
C2187 H2171 0.959 . S
C2187 H2172 0.959 . S
C2187 H2173 0.961 . S
C2187 C2186 1.502 . S
C2188 H2174 0.960 . S
C2188 H2175 0.961 . S
C2188 H2176 0.959 . S
C2188 C2186 1.561 . S
C2189 C2186 1.526 . S
C2189 C2190 1.396 . S
C2189 C2194 1.390 . S
C2190 C2184 1.465 . S
C2190 C2189 1.396 . S
C2190 C2191 1.399 . S
C2191 H2177 0.929 . S
C2191 C2190 1.399 . S
C2191 C2192 1.385 . S
C2192 H2178 0.931 . S
C2192 C2191 1.385 . S
C2192 C2193 1.389 . S
C2193 C2192 1.389 . S
C2193 C2194 1.387 . S
C2194 H2179 0.930 . S
C2194 C2189 1.390 . S
C2194 C2193 1.387 . S
H2195 C2207 0.930 . S
H2196 C2209 0.930 . S
H2197 C2210 0.930 . S
H2198 C2214 0.959 . S
H2199 C2214 0.959 . S
H2200 C2214 0.961 . S
H2201 C2215 0.960 . S
H2202 C2215 0.961 . S
H2203 C2215 0.959 . S
H2204 C2218 0.929 . S
H2205 C2219 0.931 . S
H2206 C2221 0.930 . S
C2207 H2195 0.930 . S
C2207 C2208 1.399 . S
C2207 C2212 1.399 . S
C2208 C2207 1.399 . S
C2208 C2209 1.376 . S
C2209 H2196 0.930 . S
C2209 C2208 1.376 . S
C2209 C2210 1.388 . S
C2210 H2197 0.930 . S
C2210 C2209 1.388 . S
C2210 C2211 1.390 . S
C2211 C2210 1.390 . S
C2211 C2212 1.394 . S
C2211 C2217 1.465 . S
C2212 C2207 1.399 . S
C2212 C2211 1.394 . S
C2212 C2213 1.516 . S
C2213 C2212 1.516 . S
C2213 C2214 1.502 . S
C2213 C2215 1.561 . S
C2213 C2216 1.526 . S
C2214 H2198 0.959 . S
C2214 H2199 0.959 . S
C2214 H2200 0.961 . S
C2214 C2213 1.502 . S
C2215 H2201 0.960 . S
C2215 H2202 0.961 . S
C2215 H2203 0.959 . S
C2215 C2213 1.561 . S
C2216 C2213 1.526 . S
C2216 C2217 1.396 . S
C2216 C2221 1.390 1_545 S
C2217 C2211 1.465 . S
C2217 C2216 1.396 . S
C2217 C2218 1.399 . S
C2218 H2204 0.929 . S
C2218 C2217 1.399 . S
C2218 C2219 1.385 1_545 S
C2219 H2205 0.931 . S
C2219 C2218 1.385 1_565 S
C2219 C2220 1.389 . S
C2220 C2219 1.389 . S
C2220 C2221 1.387 . S
C2221 H2206 0.930 . S
C2221 C2216 1.390 1_565 S
C2221 C2220 1.387 . S
H2222 C2234 0.930 . S
H2223 C2236 0.930 . S
H2224 C2237 0.930 . S
H2225 C2241 0.959 . S
H2226 C2241 0.959 . S
H2227 C2241 0.961 . S
H2228 C2242 0.960 . S
H2229 C2242 0.961 . S
H2230 C2242 0.959 . S
H2231 C2245 0.929 . S
H2232 C2246 0.931 . S
H2233 C2248 0.930 . S
C2234 H2222 0.930 . S
C2234 C2235 1.399 . S
C2234 C2239 1.399 . S
C2235 C2234 1.399 . S
C2235 C2236 1.376 . S
C2236 H2223 0.930 . S
C2236 C2235 1.376 . S
C2236 C2237 1.388 . S
C2237 H2224 0.930 . S
C2237 C2236 1.388 . S
C2237 C2238 1.390 . S
C2238 C2237 1.390 . S
C2238 C2239 1.394 . S
C2238 C2244 1.465 . S
C2239 C2234 1.399 . S
C2239 C2238 1.394 . S
C2239 C2240 1.516 . S
C2240 C2239 1.516 . S
C2240 C2241 1.502 . S
C2240 C2242 1.561 . S
C2240 C2243 1.526 . S
C2241 H2225 0.959 . S
C2241 H2226 0.959 . S
C2241 H2227 0.961 . S
C2241 C2240 1.502 . S
C2242 H2228 0.960 . S
C2242 H2229 0.961 . S
C2242 H2230 0.959 . S
C2242 C2240 1.561 . S
C2243 C2240 1.526 . S
C2243 C2244 1.396 . S
C2243 C2248 1.390 . S
C2244 C2238 1.465 . S
C2244 C2243 1.396 . S
C2244 C2245 1.399 . S
C2245 H2231 0.929 . S
C2245 C2244 1.399 . S
C2245 C2246 1.385 . S
C2246 H2232 0.931 . S
C2246 C2245 1.385 . S
C2246 C2247 1.389 . S
C2247 C2246 1.389 . S
C2247 C2248 1.387 . S
C2248 H2233 0.930 . S
C2248 C2243 1.390 . S
C2248 C2247 1.387 . S
H2249 C2261 0.930 . S
H2250 C2263 0.930 . S
H2251 C2264 0.930 . S
H2252 C2268 0.959 . S
H2253 C2268 0.959 . S
H2254 C2268 0.961 . S
H2255 C2269 0.960 . S
H2256 C2269 0.961 . S
H2257 C2269 0.959 . S
H2258 C2272 0.929 . S
H2259 C2273 0.931 . S
H2260 C2275 0.930 . S
C2261 H2249 0.930 . S
C2261 C2262 1.399 . S
C2261 C2266 1.399 . S
C2262 C2261 1.399 . S
C2262 C2263 1.376 . S
C2263 H2250 0.930 . S
C2263 C2262 1.376 . S
C2263 C2264 1.388 . S
C2264 H2251 0.930 . S
C2264 C2263 1.388 . S
C2264 C2265 1.390 . S
C2265 C2264 1.390 . S
C2265 C2266 1.394 . S
C2265 C2271 1.465 . S
C2266 C2261 1.399 . S
C2266 C2265 1.394 . S
C2266 C2267 1.516 . S
C2267 C2266 1.516 . S
C2267 C2268 1.502 . S
C2267 C2269 1.561 . S
C2267 C2270 1.526 . S
C2268 H2252 0.959 . S
C2268 H2253 0.959 . S
C2268 H2254 0.961 . S
C2268 C2267 1.502 . S
C2269 H2255 0.960 . S
C2269 H2256 0.961 . S
C2269 H2257 0.959 . S
C2269 C2267 1.561 . S
C2270 C2267 1.526 . S
C2270 C2271 1.396 . S
C2270 C2275 1.390 1_565 S
C2271 C2265 1.465 . S
C2271 C2270 1.396 . S
C2271 C2272 1.399 . S
C2272 H2258 0.929 . S
C2272 C2271 1.399 . S
C2272 C2273 1.385 1_565 S
C2273 H2259 0.931 . S
C2273 C2272 1.385 1_545 S
C2273 C2274 1.389 . S
C2274 C2273 1.389 . S
C2274 C2275 1.387 . S
C2275 H2260 0.930 . S
C2275 C2270 1.390 1_545 S
C2275 C2274 1.387 . S
H2276 C2288 0.930 . S
H2277 C2290 0.930 . S
H2278 C2291 0.930 . S
H2279 C2295 0.959 . S
H2280 C2295 0.959 . S
H2281 C2295 0.961 . S
H2282 C2296 0.960 . S
H2283 C2296 0.961 . S
H2284 C2296 0.959 . S
H2285 C2299 0.929 . S
H2286 C2300 0.931 . S
H2287 C2302 0.930 . S
C2288 H2276 0.930 . S
C2288 C2289 1.399 . S
C2288 C2293 1.399 . S
C2289 C2288 1.399 . S
C2289 C2290 1.376 . S
C2290 H2277 0.930 . S
C2290 C2289 1.376 . S
C2290 C2291 1.388 . S
C2291 H2278 0.930 . S
C2291 C2290 1.388 . S
C2291 C2292 1.390 . S
C2292 C2291 1.390 . S
C2292 C2293 1.394 . S
C2292 C2298 1.465 . S
C2293 C2288 1.399 . S
C2293 C2292 1.394 . S
C2293 C2294 1.516 . S
C2294 C2293 1.516 . S
C2294 C2295 1.502 . S
C2294 C2296 1.561 . S
C2294 C2297 1.526 . S
C2295 H2279 0.959 . S
C2295 H2280 0.959 . S
C2295 H2281 0.961 . S
C2295 C2294 1.502 . S
C2296 H2282 0.960 . S
C2296 H2283 0.961 . S
C2296 H2284 0.959 . S
C2296 C2294 1.561 . S
C2297 C2294 1.526 . S
C2297 C2298 1.396 . S
C2297 C2302 1.390 . S
C2298 C2292 1.465 . S
C2298 C2297 1.396 . S
C2298 C2299 1.399 . S
C2299 H2285 0.929 . S
C2299 C2298 1.399 . S
C2299 C2300 1.385 . S
C2300 H2286 0.931 . S
C2300 C2299 1.385 . S
C2300 C2301 1.389 . S
C2301 C2300 1.389 . S
C2301 C2302 1.387 . S
C2302 H2287 0.930 . S
C2302 C2297 1.390 . S
C2302 C2301 1.387 . S
H2303 C2315 0.930 . S
H2304 C2317 0.930 . S
H2305 C2318 0.930 . S
H2306 C2322 0.959 . S
H2307 C2322 0.959 . S
H2308 C2322 0.961 . S
H2309 C2323 0.960 . S
H2310 C2323 0.961 . S
H2311 C2323 0.959 . S
H2312 C2326 0.929 . S
H2313 C2327 0.931 . S
H2314 C2329 0.930 . S
C2315 H2303 0.930 . S
C2315 C2316 1.399 . S
C2315 C2320 1.399 . S
C2316 C2315 1.399 . S
C2316 C2317 1.376 . S
C2317 H2304 0.930 . S
C2317 C2316 1.376 . S
C2317 C2318 1.388 . S
C2318 H2305 0.930 . S
C2318 C2317 1.388 . S
C2318 C2319 1.390 . S
C2319 C2318 1.390 . S
C2319 C2320 1.394 . S
C2319 C2325 1.465 . S
C2320 C2315 1.399 . S
C2320 C2319 1.394 . S
C2320 C2321 1.516 . S
C2321 C2320 1.516 . S
C2321 C2322 1.502 . S
C2321 C2323 1.561 . S
C2321 C2324 1.526 . S
C2322 H2306 0.959 . S
C2322 H2307 0.959 . S
C2322 H2308 0.961 . S
C2322 C2321 1.502 . S
C2323 H2309 0.960 . S
C2323 H2310 0.961 . S
C2323 H2311 0.959 . S
C2323 C2321 1.561 . S
C2324 C2321 1.526 . S
C2324 C2325 1.396 . S
C2324 C2329 1.390 1_545 S
C2325 C2319 1.465 . S
C2325 C2324 1.396 . S
C2325 C2326 1.399 . S
C2326 H2312 0.929 . S
C2326 C2325 1.399 . S
C2326 C2327 1.385 1_545 S
C2327 H2313 0.931 . S
C2327 C2326 1.385 1_565 S
C2327 C2328 1.389 . S
C2328 C2327 1.389 . S
C2328 C2329 1.387 . S
C2329 H2314 0.930 . S
C2329 C2324 1.390 1_565 S
C2329 C2328 1.387 . S
H2330 C2342 0.930 . S
H2331 C2344 0.930 . S
H2332 C2345 0.930 . S
H2333 C2349 0.959 . S
H2334 C2349 0.959 . S
H2335 C2349 0.961 . S
H2336 C2350 0.960 . S
H2337 C2350 0.961 . S
H2338 C2350 0.959 . S
H2339 C2353 0.929 . S
H2340 C2354 0.931 . S
H2341 C2356 0.930 . S
C2342 H2330 0.930 . S
C2342 C2343 1.399 . S
C2342 C2347 1.399 . S
C2343 C2342 1.399 . S
C2343 C2344 1.376 . S
C2344 H2331 0.930 . S
C2344 C2343 1.376 . S
C2344 C2345 1.388 . S
C2345 H2332 0.930 . S
C2345 C2344 1.388 . S
C2345 C2346 1.390 . S
C2346 C2345 1.390 . S
C2346 C2347 1.394 . S
C2346 C2352 1.465 . S
C2347 C2342 1.399 . S
C2347 C2346 1.394 . S
C2347 C2348 1.516 . S
C2348 C2347 1.516 . S
C2348 C2349 1.502 . S
C2348 C2350 1.561 . S
C2348 C2351 1.526 . S
C2349 H2333 0.959 . S
C2349 H2334 0.959 . S
C2349 H2335 0.961 . S
C2349 C2348 1.502 . S
C2350 H2336 0.960 . S
C2350 H2337 0.961 . S
C2350 H2338 0.959 . S
C2350 C2348 1.561 . S
C2351 C2348 1.526 . S
C2351 C2352 1.396 . S
C2351 C2356 1.390 . S
C2352 C2346 1.465 . S
C2352 C2351 1.396 . S
C2352 C2353 1.399 . S
C2353 H2339 0.929 . S
C2353 C2352 1.399 . S
C2353 C2354 1.385 . S
C2354 H2340 0.931 . S
C2354 C2353 1.385 . S
C2354 C2355 1.389 . S
C2355 C2354 1.389 . S
C2355 C2356 1.387 . S
C2356 H2341 0.930 . S
C2356 C2351 1.390 . S
C2356 C2355 1.387 . S
H2357 C2369 0.930 . S
H2358 C2371 0.930 . S
H2359 C2372 0.930 . S
H2360 C2376 0.959 . S
H2361 C2376 0.959 . S
H2362 C2376 0.961 . S
H2363 C2377 0.960 . S
H2364 C2377 0.961 . S
H2365 C2377 0.959 . S
H2366 C2380 0.929 . S
H2367 C2381 0.931 . S
H2368 C2383 0.930 . S
C2369 H2357 0.930 . S
C2369 C2370 1.399 . S
C2369 C2374 1.399 1_545 S
C2370 C2369 1.399 . S
C2370 C2371 1.376 . S
C2371 H2358 0.930 . S
C2371 C2370 1.376 . S
C2371 C2372 1.388 1_545 S
C2372 H2359 0.930 . S
C2372 C2371 1.388 1_565 S
C2372 C2373 1.390 . S
C2373 C2372 1.390 . S
C2373 C2374 1.394 . S
C2373 C2379 1.465 . S
C2374 C2369 1.399 1_565 S
C2374 C2373 1.394 . S
C2374 C2375 1.516 . S
C2375 C2374 1.516 . S
C2375 C2376 1.502 . S
C2375 C2377 1.561 . S
C2375 C2378 1.526 . S
C2376 H2360 0.959 . S
C2376 H2361 0.959 . S
C2376 H2362 0.961 . S
C2376 C2375 1.502 . S
C2377 H2363 0.960 . S
C2377 H2364 0.961 . S
C2377 H2365 0.959 . S
C2377 C2375 1.561 . S
C2378 C2375 1.526 . S
C2378 C2379 1.396 . S
C2378 C2383 1.390 . S
C2379 C2373 1.465 . S
C2379 C2378 1.396 . S
C2379 C2380 1.399 . S
C2380 H2366 0.929 . S
C2380 C2379 1.399 . S
C2380 C2381 1.385 . S
C2381 H2367 0.931 . S
C2381 C2380 1.385 . S
C2381 C2382 1.389 . S
C2382 C2381 1.389 . S
C2382 C2383 1.387 . S
C2383 H2368 0.930 . S
C2383 C2378 1.390 . S
C2383 C2382 1.387 . S
H2384 C2396 0.930 . S
H2385 C2398 0.930 . S
H2386 C2399 0.930 . S
H2387 C2403 0.959 . S
H2388 C2403 0.959 . S
H2389 C2403 0.961 . S
H2390 C2404 0.960 . S
H2391 C2404 0.961 . S
H2392 C2404 0.959 . S
H2393 C2407 0.929 . S
H2394 C2408 0.931 . S
H2395 C2410 0.930 . S
C2396 H2384 0.930 . S
C2396 C2397 1.399 . S
C2396 C2401 1.399 . S
C2397 C2396 1.399 . S
C2397 C2398 1.376 . S
C2398 H2385 0.930 . S
C2398 C2397 1.376 . S
C2398 C2399 1.388 . S
C2399 H2386 0.930 . S
C2399 C2398 1.388 . S
C2399 C2400 1.390 . S
C2400 C2399 1.390 . S
C2400 C2401 1.394 . S
C2400 C2406 1.465 . S
C2401 C2396 1.399 . S
C2401 C2400 1.394 . S
C2401 C2402 1.516 . S
C2402 C2401 1.516 . S
C2402 C2403 1.502 . S
C2402 C2404 1.561 . S
C2402 C2405 1.526 . S
C2403 H2387 0.959 . S
C2403 H2388 0.959 . S
C2403 H2389 0.961 . S
C2403 C2402 1.502 . S
C2404 H2390 0.960 . S
C2404 H2391 0.961 . S
C2404 H2392 0.959 . S
C2404 C2402 1.561 . S
C2405 C2402 1.526 . S
C2405 C2406 1.396 . S
C2405 C2410 1.390 . S
C2406 C2400 1.465 . S
C2406 C2405 1.396 . S
C2406 C2407 1.399 . S
C2407 H2393 0.929 . S
C2407 C2406 1.399 . S
C2407 C2408 1.385 . S
C2408 H2394 0.931 . S
C2408 C2407 1.385 . S
C2408 C2409 1.389 . S
C2409 C2408 1.389 . S
C2409 C2410 1.387 . S
C2410 H2395 0.930 . S
C2410 C2405 1.390 . S
C2410 C2409 1.387 . S
H2411 C2423 0.930 . S
H2412 C2425 0.930 . S
H2413 C2426 0.930 . S
H2414 C2430 0.959 . S
H2415 C2430 0.959 . S
H2416 C2430 0.961 . S
H2417 C2431 0.960 . S
H2418 C2431 0.961 . S
H2419 C2431 0.959 . S
H2420 C2434 0.929 . S
H2421 C2435 0.931 . S
H2422 C2437 0.930 . S
C2423 H2411 0.930 . S
C2423 C2424 1.399 . S
C2423 C2428 1.399 . S
C2424 C2423 1.399 . S
C2424 C2425 1.376 . S
C2425 H2412 0.930 . S
C2425 C2424 1.376 . S
C2425 C2426 1.388 . S
C2426 H2413 0.930 . S
C2426 C2425 1.388 . S
C2426 C2427 1.390 . S
C2427 C2426 1.390 . S
C2427 C2428 1.394 . S
C2427 C2433 1.465 . S
C2428 C2423 1.399 . S
C2428 C2427 1.394 . S
C2428 C2429 1.516 . S
C2429 C2428 1.516 . S
C2429 C2430 1.502 . S
C2429 C2431 1.561 . S
C2429 C2432 1.526 . S
C2430 H2414 0.959 . S
C2430 H2415 0.959 . S
C2430 H2416 0.961 . S
C2430 C2429 1.502 . S
C2431 H2417 0.960 . S
C2431 H2418 0.961 . S
C2431 H2419 0.959 . S
C2431 C2429 1.561 . S
C2432 C2429 1.526 . S
C2432 C2433 1.396 . S
C2432 C2437 1.390 . S
C2433 C2427 1.465 . S
C2433 C2432 1.396 . S
C2433 C2434 1.399 . S
C2434 H2420 0.929 . S
C2434 C2433 1.399 . S
C2434 C2435 1.385 . S
C2435 H2421 0.931 . S
C2435 C2434 1.385 . S
C2435 C2436 1.389 . S
C2436 C2435 1.389 . S
C2436 C2437 1.387 . S
C2437 H2422 0.930 . S
C2437 C2432 1.390 . S
C2437 C2436 1.387 . S
H2438 C2450 0.930 . S
H2439 C2452 0.930 . S
H2440 C2453 0.930 . S
H2441 C2457 0.959 . S
H2442 C2457 0.959 . S
H2443 C2457 0.961 . S
H2444 C2458 0.960 . S
H2445 C2458 0.961 . S
H2446 C2458 0.959 . S
H2447 C2461 0.929 . S
H2448 C2462 0.931 . S
H2449 C2464 0.930 . S
C2450 H2438 0.930 . S
C2450 C2451 1.399 . S
C2450 C2455 1.399 . S
C2451 C2450 1.399 . S
C2451 C2452 1.376 . S
C2452 H2439 0.930 . S
C2452 C2451 1.376 . S
C2452 C2453 1.388 . S
C2453 H2440 0.930 . S
C2453 C2452 1.388 . S
C2453 C2454 1.390 . S
C2454 C2453 1.390 . S
C2454 C2455 1.394 . S
C2454 C2460 1.465 . S
C2455 C2450 1.399 . S
C2455 C2454 1.394 . S
C2455 C2456 1.516 . S
C2456 C2455 1.516 . S
C2456 C2457 1.502 . S
C2456 C2458 1.561 . S
C2456 C2459 1.526 . S
C2457 H2441 0.959 . S
C2457 H2442 0.959 . S
C2457 H2443 0.961 . S
C2457 C2456 1.502 . S
C2458 H2444 0.960 . S
C2458 H2445 0.961 . S
C2458 H2446 0.959 . S
C2458 C2456 1.561 . S
C2459 C2456 1.526 . S
C2459 C2460 1.396 . S
C2459 C2464 1.390 . S
C2460 C2454 1.465 . S
C2460 C2459 1.396 . S
C2460 C2461 1.399 . S
C2461 H2447 0.929 . S
C2461 C2460 1.399 . S
C2461 C2462 1.385 . S
C2462 H2448 0.931 . S
C2462 C2461 1.385 . S
C2462 C2463 1.389 . S
C2463 C2462 1.389 . S
C2463 C2464 1.387 . S
C2464 H2449 0.930 . S
C2464 C2459 1.390 . S
C2464 C2463 1.387 . S
H2465 C2477 0.930 . S
H2466 C2479 0.930 . S
H2467 C2480 0.930 . S
H2468 C2484 0.959 . S
H2469 C2484 0.959 . S
H2470 C2484 0.961 . S
H2471 C2485 0.960 . S
H2472 C2485 0.961 . S
H2473 C2485 0.959 . S
H2474 C2488 0.929 . S
H2475 C2489 0.931 . S
H2476 C2491 0.930 . S
C2477 H2465 0.930 . S
C2477 C2478 1.399 . S
C2477 C2482 1.399 . S
C2478 C2477 1.399 . S
C2478 C2479 1.376 . S
C2479 H2466 0.930 . S
C2479 C2478 1.376 . S
C2479 C2480 1.388 . S
C2480 H2467 0.930 . S
C2480 C2479 1.388 . S
C2480 C2481 1.390 . S
C2481 C2480 1.390 . S
C2481 C2482 1.394 . S
C2481 C2487 1.465 . S
C2482 C2477 1.399 . S
C2482 C2481 1.394 . S
C2482 C2483 1.516 . S
C2483 C2482 1.516 . S
C2483 C2484 1.502 . S
C2483 C2485 1.561 . S
C2483 C2486 1.526 . S
C2484 H2468 0.959 . S
C2484 H2469 0.959 . S
C2484 H2470 0.961 . S
C2484 C2483 1.502 . S
C2485 H2471 0.960 . S
C2485 H2472 0.961 . S
C2485 H2473 0.959 . S
C2485 C2483 1.561 . S
C2486 C2483 1.526 . S
C2486 C2487 1.396 . S
C2486 C2491 1.390 . S
C2487 C2481 1.465 . S
C2487 C2486 1.396 . S
C2487 C2488 1.399 . S
C2488 H2474 0.929 . S
C2488 C2487 1.399 . S
C2488 C2489 1.385 . S
C2489 H2475 0.931 . S
C2489 C2488 1.385 . S
C2489 C2490 1.389 . S
C2490 C2489 1.389 . S
C2490 C2491 1.387 . S
C2491 H2476 0.930 . S
C2491 C2486 1.390 . S
C2491 C2490 1.387 . S
H2492 C2504 0.930 . S
H2493 C2506 0.930 . S
H2494 C2507 0.930 . S
H2495 C2511 0.959 . S
H2496 C2511 0.959 . S
H2497 C2511 0.961 . S
H2498 C2512 0.960 . S
H2499 C2512 0.961 . S
H2500 C2512 0.959 . S
H2501 C2515 0.929 . S
H2502 C2516 0.931 . S
H2503 C2518 0.930 . S
C2504 H2492 0.930 . S
C2504 C2505 1.399 . S
C2504 C2509 1.399 . S
C2505 C2504 1.399 . S
C2505 C2506 1.376 . S
C2506 H2493 0.930 . S
C2506 C2505 1.376 . S
C2506 C2507 1.388 . S
C2507 H2494 0.930 . S
C2507 C2506 1.388 . S
C2507 C2508 1.390 . S
C2508 C2507 1.390 . S
C2508 C2509 1.394 . S
C2508 C2514 1.465 . S
C2509 C2504 1.399 . S
C2509 C2508 1.394 . S
C2509 C2510 1.516 . S
C2510 C2509 1.516 . S
C2510 C2511 1.502 . S
C2510 C2512 1.561 . S
C2510 C2513 1.526 . S
C2511 H2495 0.959 . S
C2511 H2496 0.959 . S
C2511 H2497 0.961 . S
C2511 C2510 1.502 . S
C2512 H2498 0.960 . S
C2512 H2499 0.961 . S
C2512 H2500 0.959 . S
C2512 C2510 1.561 . S
C2513 C2510 1.526 . S
C2513 C2514 1.396 . S
C2513 C2518 1.390 . S
C2514 C2508 1.465 . S
C2514 C2513 1.396 . S
C2514 C2515 1.399 . S
C2515 H2501 0.929 . S
C2515 C2514 1.399 . S
C2515 C2516 1.385 . S
C2516 H2502 0.931 . S
C2516 C2515 1.385 . S
C2516 C2517 1.389 . S
C2517 C2516 1.389 . S
C2517 C2518 1.387 . S
C2518 H2503 0.930 . S
C2518 C2513 1.390 . S
C2518 C2517 1.387 . S
H2519 C2531 0.930 . S
H2520 C2533 0.930 . S
H2521 C2534 0.930 . S
H2522 C2538 0.959 . S
H2523 C2538 0.959 . S
H2524 C2538 0.961 . S
H2525 C2539 0.960 . S
H2526 C2539 0.961 . S
H2527 C2539 0.959 . S
H2528 C2542 0.929 . S
H2529 C2543 0.931 . S
H2530 C2545 0.930 . S
C2531 H2519 0.930 . S
C2531 C2532 1.399 . S
C2531 C2536 1.399 . S
C2532 C2531 1.399 . S
C2532 C2533 1.376 . S
C2533 H2520 0.930 . S
C2533 C2532 1.376 . S
C2533 C2534 1.388 . S
C2534 H2521 0.930 . S
C2534 C2533 1.388 . S
C2534 C2535 1.390 . S
C2535 C2534 1.390 . S
C2535 C2536 1.394 . S
C2535 C2541 1.465 . S
C2536 C2531 1.399 . S
C2536 C2535 1.394 . S
C2536 C2537 1.516 . S
C2537 C2536 1.516 . S
C2537 C2538 1.502 . S
C2537 C2539 1.561 . S
C2537 C2540 1.526 . S
C2538 H2522 0.959 . S
C2538 H2523 0.959 . S
C2538 H2524 0.961 . S
C2538 C2537 1.502 . S
C2539 H2525 0.960 . S
C2539 H2526 0.961 . S
C2539 H2527 0.959 . S
C2539 C2537 1.561 . S
C2540 C2537 1.526 . S
C2540 C2541 1.396 . S
C2540 C2545 1.390 . S
C2541 C2535 1.465 . S
C2541 C2540 1.396 . S
C2541 C2542 1.399 . S
C2542 H2528 0.929 . S
C2542 C2541 1.399 . S
C2542 C2543 1.385 . S
C2543 H2529 0.931 . S
C2543 C2542 1.385 . S
C2543 C2544 1.389 . S
C2544 C2543 1.389 . S
C2544 C2545 1.387 . S
C2545 H2530 0.930 . S
C2545 C2540 1.390 . S
C2545 C2544 1.387 . S
H2546 C2558 0.930 . S
H2547 C2560 0.930 . S
H2548 C2561 0.930 . S
H2549 C2565 0.959 . S
H2550 C2565 0.959 . S
H2551 C2565 0.961 . S
H2552 C2566 0.960 . S
H2553 C2566 0.961 . S
H2554 C2566 0.959 . S
H2555 C2569 0.929 . S
H2556 C2570 0.931 . S
H2557 C2572 0.930 . S
C2558 H2546 0.930 . S
C2558 C2559 1.399 . S
C2558 C2563 1.399 . S
C2559 C2558 1.399 . S
C2559 C2560 1.376 . S
C2560 H2547 0.930 . S
C2560 C2559 1.376 . S
C2560 C2561 1.388 . S
C2561 H2548 0.930 . S
C2561 C2560 1.388 . S
C2561 C2562 1.390 . S
C2562 C2561 1.390 . S
C2562 C2563 1.394 . S
C2562 C2568 1.465 . S
C2563 C2558 1.399 . S
C2563 C2562 1.394 . S
C2563 C2564 1.516 . S
C2564 C2563 1.516 . S
C2564 C2565 1.502 . S
C2564 C2566 1.561 . S
C2564 C2567 1.526 . S
C2565 H2549 0.959 . S
C2565 H2550 0.959 . S
C2565 H2551 0.961 . S
C2565 C2564 1.502 . S
C2566 H2552 0.960 . S
C2566 H2553 0.961 . S
C2566 H2554 0.959 . S
C2566 C2564 1.561 . S
C2567 C2564 1.526 . S
C2567 C2568 1.396 . S
C2567 C2572 1.390 . S
C2568 C2562 1.465 . S
C2568 C2567 1.396 . S
C2568 C2569 1.399 . S
C2569 H2555 0.929 . S
C2569 C2568 1.399 . S
C2569 C2570 1.385 . S
C2570 H2556 0.931 . S
C2570 C2569 1.385 . S
C2570 C2571 1.389 . S
C2571 C2570 1.389 . S
C2571 C2572 1.387 . S
C2572 H2557 0.930 . S
C2572 C2567 1.390 . S
C2572 C2571 1.387 . S
H2573 C2585 0.930 . S
H2574 C2587 0.930 . S
H2575 C2588 0.930 . S
H2576 C2592 0.959 . S
H2577 C2592 0.959 . S
H2578 C2592 0.961 . S
H2579 C2593 0.960 . S
H2580 C2593 0.961 . S
H2581 C2593 0.959 . S
H2582 C2596 0.929 . S
H2583 C2597 0.931 . S
H2584 C2599 0.930 . S
C2585 H2573 0.930 . S
C2585 C2586 1.399 . S
C2585 C2590 1.399 . S
C2586 C2585 1.399 . S
C2586 C2587 1.376 . S
C2587 H2574 0.930 . S
C2587 C2586 1.376 . S
C2587 C2588 1.388 . S
C2588 H2575 0.930 . S
C2588 C2587 1.388 . S
C2588 C2589 1.390 . S
C2589 C2588 1.390 . S
C2589 C2590 1.394 . S
C2589 C2595 1.465 . S
C2590 C2585 1.399 . S
C2590 C2589 1.394 . S
C2590 C2591 1.516 . S
C2591 C2590 1.516 . S
C2591 C2592 1.502 . S
C2591 C2593 1.561 . S
C2591 C2594 1.526 . S
C2592 H2576 0.959 . S
C2592 H2577 0.959 . S
C2592 H2578 0.961 . S
C2592 C2591 1.502 . S
C2593 H2579 0.960 . S
C2593 H2580 0.961 . S
C2593 H2581 0.959 . S
C2593 C2591 1.561 . S
C2594 C2591 1.526 . S
C2594 C2595 1.396 . S
C2594 C2599 1.390 . S
C2595 C2589 1.465 . S
C2595 C2594 1.396 . S
C2595 C2596 1.399 . S
C2596 H2582 0.929 . S
C2596 C2595 1.399 . S
C2596 C2597 1.385 . S
C2597 H2583 0.931 . S
C2597 C2596 1.385 . S
C2597 C2598 1.389 . S
C2598 C2597 1.389 . S
C2598 C2599 1.387 . S
C2599 H2584 0.930 . S
C2599 C2594 1.390 . S
C2599 C2598 1.387 . S
H2600 C2612 0.930 . S
H2601 C2614 0.930 . S
H2602 C2615 0.930 . S
H2603 C2619 0.959 . S
H2604 C2619 0.959 . S
H2605 C2619 0.961 . S
H2606 C2620 0.960 . S
H2607 C2620 0.961 . S
H2608 C2620 0.959 . S
H2609 C2623 0.929 . S
H2610 C2624 0.931 . S
H2611 C2626 0.930 . S
C2612 H2600 0.930 . S
C2612 C2613 1.399 . S
C2612 C2617 1.399 . S
C2613 C2612 1.399 . S
C2613 C2614 1.376 . S
C2614 H2601 0.930 . S
C2614 C2613 1.376 . S
C2614 C2615 1.388 . S
C2615 H2602 0.930 . S
C2615 C2614 1.388 . S
C2615 C2616 1.390 . S
C2616 C2615 1.390 . S
C2616 C2617 1.394 . S
C2616 C2622 1.465 . S
C2617 C2612 1.399 . S
C2617 C2616 1.394 . S
C2617 C2618 1.516 . S
C2618 C2617 1.516 . S
C2618 C2619 1.502 . S
C2618 C2620 1.561 . S
C2618 C2621 1.526 . S
C2619 H2603 0.959 . S
C2619 H2604 0.959 . S
C2619 H2605 0.961 . S
C2619 C2618 1.502 . S
C2620 H2606 0.960 . S
C2620 H2607 0.961 . S
C2620 H2608 0.959 . S
C2620 C2618 1.561 . S
C2621 C2618 1.526 . S
C2621 C2622 1.396 . S
C2621 C2626 1.390 . S
C2622 C2616 1.465 . S
C2622 C2621 1.396 . S
C2622 C2623 1.399 . S
C2623 H2609 0.929 . S
C2623 C2622 1.399 . S
C2623 C2624 1.385 . S
C2624 H2610 0.931 . S
C2624 C2623 1.385 . S
C2624 C2625 1.389 . S
C2625 C2624 1.389 . S
C2625 C2626 1.387 . S
C2626 H2611 0.930 . S
C2626 C2621 1.390 . S
C2626 C2625 1.387 . S
H2627 C2639 0.930 . S
H2628 C2641 0.930 . S
H2629 C2642 0.930 . S
H2630 C2646 0.959 . S
H2631 C2646 0.959 . S
H2632 C2646 0.961 . S
H2633 C2647 0.960 . S
H2634 C2647 0.961 . S
H2635 C2647 0.959 . S
H2636 C2650 0.929 . S
H2637 C2651 0.931 . S
H2638 C2653 0.930 . S
C2639 H2627 0.930 . S
C2639 C2640 1.399 . S
C2639 C2644 1.399 . S
C2640 C2639 1.399 . S
C2640 C2641 1.376 . S
C2641 H2628 0.930 . S
C2641 C2640 1.376 . S
C2641 C2642 1.388 . S
C2642 H2629 0.930 . S
C2642 C2641 1.388 . S
C2642 C2643 1.390 . S
C2643 C2642 1.390 . S
C2643 C2644 1.394 . S
C2643 C2649 1.465 . S
C2644 C2639 1.399 . S
C2644 C2643 1.394 . S
C2644 C2645 1.516 . S
C2645 C2644 1.516 . S
C2645 C2646 1.502 . S
C2645 C2647 1.561 . S
C2645 C2648 1.526 . S
C2646 H2630 0.959 . S
C2646 H2631 0.959 . S
C2646 H2632 0.961 . S
C2646 C2645 1.502 . S
C2647 H2633 0.960 . S
C2647 H2634 0.961 . S
C2647 H2635 0.959 . S
C2647 C2645 1.561 . S
C2648 C2645 1.526 . S
C2648 C2649 1.396 . S
C2648 C2653 1.390 . S
C2649 C2643 1.465 . S
C2649 C2648 1.396 . S
C2649 C2650 1.399 . S
C2650 H2636 0.929 . S
C2650 C2649 1.399 . S
C2650 C2651 1.385 . S
C2651 H2637 0.931 . S
C2651 C2650 1.385 . S
C2651 C2652 1.389 . S
C2652 C2651 1.389 . S
C2652 C2653 1.387 . S
C2653 H2638 0.930 . S
C2653 C2648 1.390 . S
C2653 C2652 1.387 . S
H2654 C2666 0.930 . S
H2655 C2668 0.930 . S
H2656 C2669 0.930 . S
H2657 C2673 0.959 . S
H2658 C2673 0.959 . S
H2659 C2673 0.961 . S
H2660 C2674 0.960 . S
H2661 C2674 0.961 . S
H2662 C2674 0.959 . S
H2663 C2677 0.929 . S
H2664 C2678 0.931 . S
H2665 C2680 0.930 . S
C2666 H2654 0.930 . S
C2666 C2667 1.399 . S
C2666 C2671 1.399 . S
C2667 C2666 1.399 . S
C2667 C2668 1.376 . S
C2668 H2655 0.930 . S
C2668 C2667 1.376 . S
C2668 C2669 1.388 . S
C2669 H2656 0.930 . S
C2669 C2668 1.388 . S
C2669 C2670 1.390 . S
C2670 C2669 1.390 . S
C2670 C2671 1.394 . S
C2670 C2676 1.465 . S
C2671 C2666 1.399 . S
C2671 C2670 1.394 . S
C2671 C2672 1.516 . S
C2672 C2671 1.516 . S
C2672 C2673 1.502 . S
C2672 C2674 1.561 . S
C2672 C2675 1.526 . S
C2673 H2657 0.959 . S
C2673 H2658 0.959 . S
C2673 H2659 0.961 . S
C2673 C2672 1.502 . S
C2674 H2660 0.960 . S
C2674 H2661 0.961 . S
C2674 H2662 0.959 . S
C2674 C2672 1.561 . S
C2675 C2672 1.526 . S
C2675 C2676 1.396 . S
C2675 C2680 1.390 . S
C2676 C2670 1.465 . S
C2676 C2675 1.396 . S
C2676 C2677 1.399 . S
C2677 H2663 0.929 . S
C2677 C2676 1.399 . S
C2677 C2678 1.385 . S
C2678 H2664 0.931 . S
C2678 C2677 1.385 . S
C2678 C2679 1.389 . S
C2679 C2678 1.389 . S
C2679 C2680 1.387 . S
C2680 H2665 0.930 . S
C2680 C2675 1.390 . S
C2680 C2679 1.387 . S
H2681 C2693 0.930 . S
H2682 C2695 0.930 . S
H2683 C2696 0.930 . S
H2684 C2700 0.959 . S
H2685 C2700 0.959 . S
H2686 C2700 0.961 . S
H2687 C2701 0.960 . S
H2688 C2701 0.961 . S
H2689 C2701 0.959 . S
H2690 C2704 0.929 . S
H2691 C2705 0.931 . S
H2692 C2707 0.930 . S
C2693 H2681 0.930 . S
C2693 C2694 1.399 . S
C2693 C2698 1.399 . S
C2694 C2693 1.399 . S
C2694 C2695 1.376 . S
C2695 H2682 0.930 . S
C2695 C2694 1.376 . S
C2695 C2696 1.388 . S
C2696 H2683 0.930 . S
C2696 C2695 1.388 . S
C2696 C2697 1.390 . S
C2697 C2696 1.390 . S
C2697 C2698 1.394 . S
C2697 C2703 1.465 . S
C2698 C2693 1.399 . S
C2698 C2697 1.394 . S
C2698 C2699 1.516 . S
C2699 C2698 1.516 . S
C2699 C2700 1.502 . S
C2699 C2701 1.561 . S
C2699 C2702 1.526 . S
C2700 H2684 0.959 . S
C2700 H2685 0.959 . S
C2700 H2686 0.961 . S
C2700 C2699 1.502 . S
C2701 H2687 0.960 . S
C2701 H2688 0.961 . S
C2701 H2689 0.959 . S
C2701 C2699 1.561 . S
C2702 C2699 1.526 . S
C2702 C2703 1.396 . S
C2702 C2707 1.390 . S
C2703 C2697 1.465 . S
C2703 C2702 1.396 . S
C2703 C2704 1.399 . S
C2704 H2690 0.929 . S
C2704 C2703 1.399 . S
C2704 C2705 1.385 . S
C2705 H2691 0.931 . S
C2705 C2704 1.385 . S
C2705 C2706 1.389 . S
C2706 C2705 1.389 . S
C2706 C2707 1.387 . S
C2707 H2692 0.930 . S
C2707 C2702 1.390 . S
C2707 C2706 1.387 . S
H2708 C2720 0.930 . S
H2709 C2722 0.930 . S
H2710 C2723 0.930 . S
H2711 C2727 0.959 . S
H2712 C2727 0.959 . S
H2713 C2727 0.961 . S
H2714 C2728 0.960 . S
H2715 C2728 0.961 . S
H2716 C2728 0.959 . S
H2717 C2731 0.929 . S
H2718 C2732 0.931 . S
H2719 C2734 0.930 . S
C2720 H2708 0.930 . S
C2720 C2721 1.399 . S
C2720 C2725 1.399 . S
C2721 C2720 1.399 . S
C2721 C2722 1.376 . S
C2722 H2709 0.930 . S
C2722 C2721 1.376 . S
C2722 C2723 1.388 . S
C2723 H2710 0.930 . S
C2723 C2722 1.388 . S
C2723 C2724 1.390 . S
C2724 C2723 1.390 . S
C2724 C2725 1.394 . S
C2724 C2730 1.465 . S
C2725 C2720 1.399 . S
C2725 C2724 1.394 . S
C2725 C2726 1.516 . S
C2726 C2725 1.516 . S
C2726 C2727 1.502 . S
C2726 C2728 1.561 . S
C2726 C2729 1.526 . S
C2727 H2711 0.959 . S
C2727 H2712 0.959 . S
C2727 H2713 0.961 . S
C2727 C2726 1.502 . S
C2728 H2714 0.960 . S
C2728 H2715 0.961 . S
C2728 H2716 0.959 . S
C2728 C2726 1.561 . S
C2729 C2726 1.526 . S
C2729 C2730 1.396 . S
C2729 C2734 1.390 . S
C2730 C2724 1.465 . S
C2730 C2729 1.396 . S
C2730 C2731 1.399 . S
C2731 H2717 0.929 . S
C2731 C2730 1.399 . S
C2731 C2732 1.385 . S
C2732 H2718 0.931 . S
C2732 C2731 1.385 . S
C2732 C2733 1.389 . S
C2733 C2732 1.389 . S
C2733 C2734 1.387 . S
C2734 H2719 0.930 . S
C2734 C2729 1.390 . S
C2734 C2733 1.387 . S
H2735 C2747 0.930 . S
H2736 C2749 0.930 . S
H2737 C2750 0.930 . S
H2738 C2754 0.959 . S
H2739 C2754 0.959 . S
H2740 C2754 0.961 . S
H2741 C2755 0.960 . S
H2742 C2755 0.961 . S
H2743 C2755 0.959 . S
H2744 C2758 0.929 . S
H2745 C2759 0.931 . S
H2746 C2761 0.930 . S
C2747 H2735 0.930 . S
C2747 C2748 1.399 . S
C2747 C2752 1.399 . S
C2748 C2747 1.399 . S
C2748 C2749 1.376 . S
C2749 H2736 0.930 . S
C2749 C2748 1.376 . S
C2749 C2750 1.388 . S
C2750 H2737 0.930 . S
C2750 C2749 1.388 . S
C2750 C2751 1.390 . S
C2751 C2750 1.390 . S
C2751 C2752 1.394 . S
C2751 C2757 1.465 . S
C2752 C2747 1.399 . S
C2752 C2751 1.394 . S
C2752 C2753 1.516 . S
C2753 C2752 1.516 . S
C2753 C2754 1.502 . S
C2753 C2755 1.561 . S
C2753 C2756 1.526 . S
C2754 H2738 0.959 . S
C2754 H2739 0.959 . S
C2754 H2740 0.961 . S
C2754 C2753 1.502 . S
C2755 H2741 0.960 . S
C2755 H2742 0.961 . S
C2755 H2743 0.959 . S
C2755 C2753 1.561 . S
C2756 C2753 1.526 . S
C2756 C2757 1.396 . S
C2756 C2761 1.390 . S
C2757 C2751 1.465 . S
C2757 C2756 1.396 . S
C2757 C2758 1.399 . S
C2758 H2744 0.929 . S
C2758 C2757 1.399 . S
C2758 C2759 1.385 . S
C2759 H2745 0.931 . S
C2759 C2758 1.385 . S
C2759 C2760 1.389 . S
C2760 C2759 1.389 . S
C2760 C2761 1.387 . S
C2761 H2746 0.930 . S
C2761 C2756 1.390 . S
C2761 C2760 1.387 . S
H2762 C2774 0.930 . S
H2763 C2776 0.930 . S
H2764 C2777 0.930 . S
H2765 C2781 0.959 . S
H2766 C2781 0.959 . S
H2767 C2781 0.961 . S
H2768 C2782 0.960 . S
H2769 C2782 0.961 . S
H2770 C2782 0.959 . S
H2771 C2785 0.929 . S
H2772 C2786 0.931 . S
H2773 C2788 0.930 . S
C2774 H2762 0.930 . S
C2774 C2775 1.399 . S
C2774 C2779 1.399 . S
C2775 C2774 1.399 . S
C2775 C2776 1.376 . S
C2776 H2763 0.930 . S
C2776 C2775 1.376 . S
C2776 C2777 1.388 . S
C2777 H2764 0.930 . S
C2777 C2776 1.388 . S
C2777 C2778 1.390 . S
C2778 C2777 1.390 . S
C2778 C2779 1.394 . S
C2778 C2784 1.465 . S
C2779 C2774 1.399 . S
C2779 C2778 1.394 . S
C2779 C2780 1.516 . S
C2780 C2779 1.516 . S
C2780 C2781 1.502 . S
C2780 C2782 1.561 . S
C2780 C2783 1.526 . S
C2781 H2765 0.959 . S
C2781 H2766 0.959 . S
C2781 H2767 0.961 . S
C2781 C2780 1.502 . S
C2782 H2768 0.960 . S
C2782 H2769 0.961 . S
C2782 H2770 0.959 . S
C2782 C2780 1.561 . S
C2783 C2780 1.526 . S
C2783 C2784 1.396 . S
C2783 C2788 1.390 . S
C2784 C2778 1.465 . S
C2784 C2783 1.396 . S
C2784 C2785 1.399 . S
C2785 H2771 0.929 . S
C2785 C2784 1.399 . S
C2785 C2786 1.385 . S
C2786 H2772 0.931 . S
C2786 C2785 1.385 . S
C2786 C2787 1.389 . S
C2787 C2786 1.389 . S
C2787 C2788 1.387 . S
C2788 H2773 0.930 . S
C2788 C2783 1.390 . S
C2788 C2787 1.387 . S
H2789 C2801 0.930 . S
H2790 C2803 0.930 . S
H2791 C2804 0.930 . S
H2792 C2808 0.959 . S
H2793 C2808 0.959 . S
H2794 C2808 0.961 . S
H2795 C2809 0.960 . S
H2796 C2809 0.961 . S
H2797 C2809 0.959 . S
H2798 C2812 0.929 . S
H2799 C2813 0.931 . S
H2800 C2815 0.930 . S
C2801 H2789 0.930 . S
C2801 C2802 1.399 . S
C2801 C2806 1.399 . S
C2802 C2801 1.399 . S
C2802 C2803 1.376 . S
C2803 H2790 0.930 . S
C2803 C2802 1.376 . S
C2803 C2804 1.388 . S
C2804 H2791 0.930 . S
C2804 C2803 1.388 . S
C2804 C2805 1.390 . S
C2805 C2804 1.390 . S
C2805 C2806 1.394 . S
C2805 C2811 1.465 . S
C2806 C2801 1.399 . S
C2806 C2805 1.394 . S
C2806 C2807 1.516 . S
C2807 C2806 1.516 . S
C2807 C2808 1.502 . S
C2807 C2809 1.561 . S
C2807 C2810 1.526 . S
C2808 H2792 0.959 . S
C2808 H2793 0.959 . S
C2808 H2794 0.961 . S
C2808 C2807 1.502 . S
C2809 H2795 0.960 . S
C2809 H2796 0.961 . S
C2809 H2797 0.959 . S
C2809 C2807 1.561 . S
C2810 C2807 1.526 . S
C2810 C2811 1.396 . S
C2810 C2815 1.390 . S
C2811 C2805 1.465 . S
C2811 C2810 1.396 . S
C2811 C2812 1.399 . S
C2812 H2798 0.929 . S
C2812 C2811 1.399 . S
C2812 C2813 1.385 . S
C2813 H2799 0.931 . S
C2813 C2812 1.385 . S
C2813 C2814 1.389 . S
C2814 C2813 1.389 . S
C2814 C2815 1.387 . S
C2815 H2800 0.930 . S
C2815 C2810 1.390 . S
C2815 C2814 1.387 . S
H2816 C2828 0.930 . S
H2817 C2830 0.930 . S
H2818 C2831 0.930 . S
H2819 C2835 0.959 . S
H2820 C2835 0.959 . S
H2821 C2835 0.961 . S
H2822 C2836 0.960 . S
H2823 C2836 0.961 . S
H2824 C2836 0.959 . S
H2825 C2839 0.929 . S
H2826 C2840 0.931 . S
H2827 C2842 0.930 . S
C2828 H2816 0.930 . S
C2828 C2829 1.399 . S
C2828 C2833 1.399 . S
C2829 C2828 1.399 . S
C2829 C2830 1.376 . S
C2830 H2817 0.930 . S
C2830 C2829 1.376 . S
C2830 C2831 1.388 . S
C2831 H2818 0.930 . S
C2831 C2830 1.388 . S
C2831 C2832 1.390 . S
C2832 C2831 1.390 . S
C2832 C2833 1.394 . S
C2832 C2838 1.465 . S
C2833 C2828 1.399 . S
C2833 C2832 1.394 . S
C2833 C2834 1.516 . S
C2834 C2833 1.516 . S
C2834 C2835 1.502 . S
C2834 C2836 1.561 . S
C2834 C2837 1.526 . S
C2835 H2819 0.959 . S
C2835 H2820 0.959 . S
C2835 H2821 0.961 . S
C2835 C2834 1.502 . S
C2836 H2822 0.960 . S
C2836 H2823 0.961 . S
C2836 H2824 0.959 . S
C2836 C2834 1.561 . S
C2837 C2834 1.526 . S
C2837 C2838 1.396 . S
C2837 C2842 1.390 . S
C2838 C2832 1.465 . S
C2838 C2837 1.396 . S
C2838 C2839 1.399 . S
C2839 H2825 0.929 . S
C2839 C2838 1.399 . S
C2839 C2840 1.385 . S
C2840 H2826 0.931 . S
C2840 C2839 1.385 . S
C2840 C2841 1.389 . S
C2841 C2840 1.389 . S
C2841 C2842 1.387 . S
C2842 H2827 0.930 . S
C2842 C2837 1.390 . S
C2842 C2841 1.387 . S
H2843 C2855 0.930 . S
H2844 C2857 0.930 . S
H2845 C2858 0.930 . S
H2846 C2862 0.959 . S
H2847 C2862 0.959 1_455 S
H2848 C2862 0.961 . S
H2849 C2863 0.960 1_655 S
H2850 C2863 0.961 . S
H2851 C2863 0.959 . S
H2852 C2866 0.929 . S
H2853 C2867 0.931 . S
H2854 C2869 0.930 . S
C2855 H2843 0.930 . S
C2855 C2856 1.399 . S
C2855 C2860 1.399 . S
C2856 C2855 1.399 . S
C2856 C2857 1.376 . S
C2857 H2844 0.930 . S
C2857 C2856 1.376 . S
C2857 C2858 1.388 . S
C2858 H2845 0.930 . S
C2858 C2857 1.388 . S
C2858 C2859 1.390 . S
C2859 C2858 1.390 . S
C2859 C2860 1.394 . S
C2859 C2865 1.465 1_655 S
C2860 C2855 1.399 . S
C2860 C2859 1.394 . S
C2860 C2861 1.516 . S
C2861 C2860 1.516 . S
C2861 C2862 1.502 . S
C2861 C2863 1.561 1_655 S
C2861 C2864 1.526 1_655 S
C2862 H2846 0.959 . S
C2862 H2847 0.959 1_655 S
C2862 H2848 0.961 . S
C2862 C2861 1.502 . S
C2863 H2849 0.960 1_455 S
C2863 H2850 0.961 . S
C2863 H2851 0.959 . S
C2863 C2861 1.561 1_455 S
C2864 C2861 1.526 1_455 S
C2864 C2865 1.396 . S
C2864 C2869 1.390 . S
C2865 C2859 1.465 1_455 S
C2865 C2864 1.396 . S
C2865 C2866 1.399 . S
C2866 H2852 0.929 . S
C2866 C2865 1.399 . S
C2866 C2867 1.385 . S
C2867 H2853 0.931 . S
C2867 C2866 1.385 . S
C2867 C2868 1.389 . S
C2868 C2867 1.389 . S
C2868 C2869 1.387 . S
C2869 H2854 0.930 . S
C2869 C2864 1.390 . S
C2869 C2868 1.387 . S
H2870 C2882 0.930 . S
H2871 C2884 0.929 1_455 S
H2872 C2885 0.930 . S
H2873 C2889 0.959 . S
H2874 C2889 0.959 . S
H2875 C2889 0.961 . S
H2876 C2890 0.960 . S
H2877 C2890 0.961 . S
H2878 C2890 0.959 . S
H2879 C2893 0.929 . S
H2880 C2894 0.931 . S
H2881 C2896 0.930 . S
C2882 H2870 0.930 . S
C2882 C2883 1.399 . S
C2882 C2887 1.399 . S
C2883 C2882 1.399 . S
C2883 C2884 1.379 . S
C2884 H2871 0.929 1_655 S
C2884 C2883 1.379 . S
C2884 C2885 1.387 1_655 S
C2885 H2872 0.930 . S
C2885 C2884 1.387 1_455 S
C2885 C2886 1.390 . S
C2886 C2885 1.390 . S
C2886 C2887 1.394 1_455 S
C2886 C2892 1.465 . S
C2887 C2882 1.399 . S
C2887 C2886 1.394 1_655 S
C2887 C2888 1.516 . S
C2888 C2887 1.516 . S
C2888 C2889 1.502 . S
C2888 C2890 1.561 1_655 S
C2888 C2891 1.526 1_655 S
C2889 H2873 0.959 . S
C2889 H2874 0.959 . S
C2889 H2875 0.961 . S
C2889 C2888 1.502 . S
C2890 H2876 0.960 . S
C2890 H2877 0.961 . S
C2890 H2878 0.959 . S
C2890 C2888 1.561 1_455 S
C2891 C2888 1.526 1_455 S
C2891 C2892 1.396 . S
C2891 C2896 1.390 . S
C2892 C2886 1.465 . S
C2892 C2891 1.396 . S
C2892 C2893 1.399 . S
C2893 H2879 0.929 . S
C2893 C2892 1.399 . S
C2893 C2894 1.385 . S
C2894 H2880 0.931 . S
C2894 C2893 1.385 . S
C2894 C2895 1.389 . S
C2895 C2894 1.389 . S
C2895 C2896 1.387 . S
C2896 H2881 0.930 . S
C2896 C2891 1.390 . S
C2896 C2895 1.387 . S
H2897 C2909 0.930 . S
H2898 C2911 0.930 . S
H2899 C2912 0.930 . S
H2900 C2916 0.959 . S
H2901 C2916 0.959 . S
H2902 C2916 0.961 . S
H2903 C2917 0.960 . S
H2904 C2917 0.961 . S
H2905 C2917 0.959 . S
H2906 C2920 0.929 . S
H2907 C2921 0.931 . S
H2908 C2923 0.930 . S
C2909 H2897 0.930 . S
C2909 C2910 1.399 . S
C2909 C2914 1.399 . S
C2910 C2909 1.399 . S
C2910 C2911 1.376 . S
C2911 H2898 0.930 . S
C2911 C2910 1.376 . S
C2911 C2912 1.388 . S
C2912 H2899 0.930 . S
C2912 C2911 1.388 . S
C2912 C2913 1.390 . S
C2913 C2912 1.390 . S
C2913 C2914 1.394 . S
C2913 C2919 1.465 . S
C2914 C2909 1.399 . S
C2914 C2913 1.394 . S
C2914 C2915 1.516 . S
C2915 C2914 1.516 . S
C2915 C2916 1.502 . S
C2915 C2917 1.561 . S
C2915 C2918 1.526 . S
C2916 H2900 0.959 . S
C2916 H2901 0.959 . S
C2916 H2902 0.961 . S
C2916 C2915 1.502 . S
C2917 H2903 0.960 . S
C2917 H2904 0.961 . S
C2917 H2905 0.959 . S
C2917 C2915 1.561 . S
C2918 C2915 1.526 . S
C2918 C2919 1.396 . S
C2918 C2923 1.390 . S
C2919 C2913 1.465 . S
C2919 C2918 1.396 . S
C2919 C2920 1.399 . S
C2920 H2906 0.929 . S
C2920 C2919 1.399 . S
C2920 C2921 1.385 . S
C2921 H2907 0.931 . S
C2921 C2920 1.385 . S
C2921 C2922 1.389 . S
C2922 C2921 1.389 . S
C2922 C2923 1.387 . S
C2923 H2908 0.930 . S
C2923 C2918 1.390 . S
C2923 C2922 1.387 . S
H2924 C2936 0.930 . S
H2925 C2938 0.930 . S
H2926 C2939 0.930 . S
H2927 C2943 0.959 . S
H2928 C2943 0.959 . S
H2929 C2943 0.961 . S
H2930 C2944 0.960 . S
H2931 C2944 0.961 . S
H2932 C2944 0.959 . S
H2933 C2947 0.929 . S
H2934 C2948 0.931 . S
H2935 C2950 0.930 . S
C2936 H2924 0.930 . S
C2936 C2937 1.399 . S
C2936 C2941 1.399 . S
C2937 C2936 1.399 . S
C2937 C2938 1.376 . S
C2938 H2925 0.930 . S
C2938 C2937 1.376 . S
C2938 C2939 1.388 . S
C2939 H2926 0.930 . S
C2939 C2938 1.388 . S
C2939 C2940 1.390 . S
C2940 C2939 1.390 . S
C2940 C2941 1.394 . S
C2940 C2946 1.465 . S
C2941 C2936 1.399 . S
C2941 C2940 1.394 . S
C2941 C2942 1.516 . S
C2942 C2941 1.516 . S
C2942 C2943 1.502 . S
C2942 C2944 1.561 . S
C2942 C2945 1.526 . S
C2943 H2927 0.959 . S
C2943 H2928 0.959 . S
C2943 H2929 0.961 . S
C2943 C2942 1.502 . S
C2944 H2930 0.960 . S
C2944 H2931 0.961 . S
C2944 H2932 0.959 . S
C2944 C2942 1.561 . S
C2945 C2942 1.526 . S
C2945 C2946 1.396 . S
C2945 C2950 1.390 . S
C2946 C2940 1.465 . S
C2946 C2945 1.396 . S
C2946 C2947 1.399 . S
C2947 H2933 0.929 . S
C2947 C2946 1.399 . S
C2947 C2948 1.385 . S
C2948 H2934 0.931 . S
C2948 C2947 1.385 . S
C2948 C2949 1.389 . S
C2949 C2948 1.389 . S
C2949 C2950 1.387 . S
C2950 H2935 0.930 . S
C2950 C2945 1.390 . S
C2950 C2949 1.387 . S
H2951 C2963 0.930 . S
H2952 C2965 0.930 . S
H2953 C2966 0.930 . S
H2954 C2970 0.959 . S
H2955 C2970 0.959 . S
H2956 C2970 0.961 . S
H2957 C2971 0.960 . S
H2958 C2971 0.961 . S
H2959 C2971 0.959 . S
H2960 C2974 0.929 . S
H2961 C2975 0.931 . S
H2962 C2977 0.930 . S
C2963 H2951 0.930 . S
C2963 C2964 1.399 . S
C2963 C2968 1.399 . S
C2964 C2963 1.399 . S
C2964 C2965 1.376 . S
C2965 H2952 0.930 . S
C2965 C2964 1.376 . S
C2965 C2966 1.388 . S
C2966 H2953 0.930 . S
C2966 C2965 1.388 . S
C2966 C2967 1.390 . S
C2967 C2966 1.390 . S
C2967 C2968 1.394 . S
C2967 C2973 1.465 . S
C2968 C2963 1.399 . S
C2968 C2967 1.394 . S
C2968 C2969 1.516 . S
C2969 C2968 1.516 . S
C2969 C2970 1.502 . S
C2969 C2971 1.561 . S
C2969 C2972 1.526 . S
C2970 H2954 0.959 . S
C2970 H2955 0.959 . S
C2970 H2956 0.961 . S
C2970 C2969 1.502 . S
C2971 H2957 0.960 . S
C2971 H2958 0.961 . S
C2971 H2959 0.959 . S
C2971 C2969 1.561 . S
C2972 C2969 1.526 . S
C2972 C2973 1.396 . S
C2972 C2977 1.390 . S
C2973 C2967 1.465 . S
C2973 C2972 1.396 . S
C2973 C2974 1.399 . S
C2974 H2960 0.929 . S
C2974 C2973 1.399 . S
C2974 C2975 1.385 . S
C2975 H2961 0.931 . S
C2975 C2974 1.385 . S
C2975 C2976 1.389 . S
C2976 C2975 1.389 . S
C2976 C2977 1.387 . S
C2977 H2962 0.930 . S
C2977 C2972 1.390 . S
C2977 C2976 1.387 . S
H2978 C2990 0.930 . S
H2979 C2992 0.930 . S
H2980 C2993 0.930 . S
H2981 C2997 0.959 . S
H2982 C2997 0.959 . S
H2983 C2997 0.961 . S
H2984 C2998 0.960 . S
H2985 C2998 0.961 . S
H2986 C2998 0.959 . S
H2987 C3001 0.929 . S
H2988 C3002 0.931 . S
H2989 C3004 0.930 . S
C2990 H2978 0.930 . S
C2990 C2991 1.399 . S
C2990 C2995 1.399 . S
C2991 C2990 1.399 . S
C2991 C2992 1.376 . S
C2992 H2979 0.930 . S
C2992 C2991 1.376 . S
C2992 C2993 1.388 1_455 S
C2993 H2980 0.930 . S
C2993 C2992 1.388 1_655 S
C2993 C2994 1.390 . S
C2994 C2993 1.390 . S
C2994 C2995 1.394 1_655 S
C2994 C3000 1.465 . S
C2995 C2990 1.399 . S
C2995 C2994 1.394 1_455 S
C2995 C2996 1.514 1_455 S
C2996 C2995 1.514 1_655 S
C2996 C2997 1.488 1_655 S
C2996 C2998 1.576 . S
C2996 C2999 1.529 . S
C2997 H2981 0.959 . S
C2997 H2982 0.959 . S
C2997 H2983 0.961 . S
C2997 C2996 1.488 1_455 S
C2998 H2984 0.960 . S
C2998 H2985 0.961 . S
C2998 H2986 0.959 . S
C2998 C2996 1.576 . S
C2999 C2996 1.529 . S
C2999 C3000 1.396 . S
C2999 C3004 1.390 . S
C3000 C2994 1.465 . S
C3000 C2999 1.396 . S
C3000 C3001 1.399 . S
C3001 H2987 0.929 . S
C3001 C3000 1.399 . S
C3001 C3002 1.385 . S
C3002 H2988 0.931 . S
C3002 C3001 1.385 . S
C3002 C3003 1.389 . S
C3003 C3002 1.389 . S
C3003 C3004 1.387 . S
C3004 H2989 0.930 . S
C3004 C2999 1.390 . S
C3004 C3003 1.387 . S
H3005 C3017 0.930 . S
H3006 C3019 0.930 . S
H3007 C3020 0.930 . S
H3008 C3024 0.959 . S
H3009 C3024 0.959 1_455 S
H3010 C3024 0.961 . S
H3011 C3025 0.960 1_655 S
H3012 C3025 0.961 . S
H3013 C3025 0.959 . S
H3014 C3028 0.929 . S
H3015 C3029 0.931 . S
H3016 C3031 0.930 . S
C3017 H3005 0.930 . S
C3017 C3018 1.399 . S
C3017 C3022 1.399 . S
C3018 C3017 1.399 . S
C3018 C3019 1.376 . S
C3019 H3006 0.930 . S
C3019 C3018 1.376 . S
C3019 C3020 1.388 . S
C3020 H3007 0.930 . S
C3020 C3019 1.388 . S
C3020 C3021 1.390 . S
C3021 C3020 1.390 . S
C3021 C3022 1.394 . S
C3021 C3027 1.465 1_655 S
C3022 C3017 1.399 . S
C3022 C3021 1.394 . S
C3022 C3023 1.516 . S
C3023 C3022 1.516 . S
C3023 C3024 1.502 . S
C3023 C3025 1.561 1_655 S
C3023 C3026 1.526 1_655 S
C3024 H3008 0.959 . S
C3024 H3009 0.959 1_655 S
C3024 H3010 0.961 . S
C3024 C3023 1.502 . S
C3025 H3011 0.960 1_455 S
C3025 H3012 0.961 . S
C3025 H3013 0.959 . S
C3025 C3023 1.561 1_455 S
C3026 C3023 1.526 1_455 S
C3026 C3027 1.396 . S
C3026 C3031 1.390 . S
C3027 C3021 1.465 1_455 S
C3027 C3026 1.396 . S
C3027 C3028 1.399 . S
C3028 H3014 0.929 . S
C3028 C3027 1.399 . S
C3028 C3029 1.385 . S
C3029 H3015 0.931 . S
C3029 C3028 1.385 . S
C3029 C3030 1.389 . S
C3030 C3029 1.389 . S
C3030 C3031 1.387 . S
C3031 H3016 0.930 . S
C3031 C3026 1.390 . S
C3031 C3030 1.387 . S
H3032 C3044 0.930 . S
H3033 C3046 0.930 . S
H3034 C3047 0.930 . S
H3035 C3051 0.959 . S
H3036 C3051 0.959 . S
H3037 C3051 0.961 . S
H3038 C3052 0.960 . S
H3039 C3052 0.961 . S
H3040 C3052 0.959 . S
H3041 C3055 0.929 . S
H3042 C3056 0.931 . S
H3043 C3058 0.930 . S
C3044 H3032 0.930 . S
C3044 C3045 1.399 . S
C3044 C3049 1.399 . S
C3045 C3044 1.399 . S
C3045 C3046 1.376 . S
C3046 H3033 0.930 . S
C3046 C3045 1.376 . S
C3046 C3047 1.388 . S
C3047 H3034 0.930 . S
C3047 C3046 1.388 . S
C3047 C3048 1.390 . S
C3048 C3047 1.390 . S
C3048 C3049 1.394 . S
C3048 C3054 1.465 . S
C3049 C3044 1.399 . S
C3049 C3048 1.394 . S
C3049 C3050 1.516 . S
C3050 C3049 1.516 . S
C3050 C3051 1.502 . S
C3050 C3052 1.561 . S
C3050 C3053 1.526 . S
C3051 H3035 0.959 . S
C3051 H3036 0.959 . S
C3051 H3037 0.961 . S
C3051 C3050 1.502 . S
C3052 H3038 0.960 . S
C3052 H3039 0.961 . S
C3052 H3040 0.959 . S
C3052 C3050 1.561 . S
C3053 C3050 1.526 . S
C3053 C3054 1.396 . S
C3053 C3058 1.390 . S
C3054 C3048 1.465 . S
C3054 C3053 1.396 . S
C3054 C3055 1.399 . S
C3055 H3041 0.929 . S
C3055 C3054 1.399 . S
C3055 C3056 1.385 . S
C3056 H3042 0.931 . S
C3056 C3055 1.385 . S
C3056 C3057 1.389 . S
C3057 C3056 1.389 . S
C3057 C3058 1.387 . S
C3058 H3043 0.930 . S
C3058 C3053 1.390 . S
C3058 C3057 1.387 . S
H3059 C3071 0.930 . S
H3060 C3073 0.930 . S
H3061 C3074 0.930 . S
H3062 C3078 0.959 . S
H3063 C3078 0.959 1_455 S
H3064 C3078 0.961 . S
H3065 C3079 0.960 1_655 S
H3066 C3079 0.961 . S
H3067 C3079 0.959 . S
H3068 C3082 0.929 . S
H3069 C3083 0.931 . S
H3070 C3085 0.930 . S
C3071 H3059 0.930 . S
C3071 C3072 1.399 . S
C3071 C3076 1.399 . S
C3072 C3071 1.399 . S
C3072 C3073 1.376 . S
C3073 H3060 0.930 . S
C3073 C3072 1.376 . S
C3073 C3074 1.388 . S
C3074 H3061 0.930 . S
C3074 C3073 1.388 . S
C3074 C3075 1.390 . S
C3075 C3074 1.390 . S
C3075 C3076 1.394 . S
C3075 C3081 1.465 1_655 S
C3076 C3071 1.399 . S
C3076 C3075 1.394 . S
C3076 C3077 1.516 . S
C3077 C3076 1.516 . S
C3077 C3078 1.502 . S
C3077 C3079 1.561 1_655 S
C3077 C3080 1.526 1_655 S
C3078 H3062 0.959 . S
C3078 H3063 0.959 1_655 S
C3078 H3064 0.961 . S
C3078 C3077 1.502 . S
C3079 H3065 0.960 1_455 S
C3079 H3066 0.961 . S
C3079 H3067 0.959 . S
C3079 C3077 1.561 1_455 S
C3080 C3077 1.526 1_455 S
C3080 C3081 1.396 . S
C3080 C3085 1.390 . S
C3081 C3075 1.465 1_455 S
C3081 C3080 1.396 . S
C3081 C3082 1.399 . S
C3082 H3068 0.929 . S
C3082 C3081 1.399 . S
C3082 C3083 1.385 . S
C3083 H3069 0.931 . S
C3083 C3082 1.385 . S
C3083 C3084 1.389 . S
C3084 C3083 1.389 . S
C3084 C3085 1.387 . S
C3085 H3070 0.930 . S
C3085 C3080 1.390 . S
C3085 C3084 1.387 . S
H3086 C3098 0.930 1_455 S
H3087 C3100 0.930 . S
H3088 C3101 0.930 . S
H3089 C3105 0.959 . S
H3090 C3105 0.959 . S
H3091 C3105 0.961 . S
H3092 C3106 0.960 . S
H3093 C3106 0.961 1_455 S
H3094 C3106 0.959 . S
H3095 C3109 0.929 . S
H3096 C3110 0.931 . S
H3097 C3112 0.930 . S
C3098 H3086 0.930 1_655 S
C3098 C3099 1.399 . S
C3098 C3103 1.399 1_655 S
C3099 C3098 1.399 . S
C3099 C3100 1.376 . S
C3100 H3087 0.930 . S
C3100 C3099 1.376 . S
C3100 C3101 1.388 . S
C3101 H3088 0.930 . S
C3101 C3100 1.388 . S
C3101 C3102 1.390 . S
C3102 C3101 1.390 . S
C3102 C3103 1.395 1_655 S
C3102 C3108 1.465 . S
C3103 C3098 1.399 1_455 S
C3103 C3102 1.395 1_455 S
C3103 C3104 1.515 . S
C3104 C3103 1.515 . S
C3104 C3105 1.502 . S
C3104 C3106 1.561 1_455 S
C3104 C3107 1.526 . S
C3105 H3089 0.959 . S
C3105 H3090 0.959 . S
C3105 H3091 0.961 . S
C3105 C3104 1.502 . S
C3106 H3092 0.960 . S
C3106 H3093 0.961 1_655 S
C3106 H3094 0.959 . S
C3106 C3104 1.561 1_655 S
C3107 C3104 1.526 . S
C3107 C3108 1.396 1_455 S
C3107 C3112 1.390 . S
C3108 C3102 1.465 . S
C3108 C3107 1.396 1_655 S
C3108 C3109 1.399 . S
C3109 H3095 0.929 . S
C3109 C3108 1.399 . S
C3109 C3110 1.385 . S
C3110 H3096 0.931 . S
C3110 C3109 1.385 . S
C3110 C3111 1.389 1_655 S
C3111 C3110 1.389 1_455 S
C3111 C3112 1.387 . S
C3112 H3097 0.930 . S
C3112 C3107 1.390 . S
C3112 C3111 1.387 . S
H3113 C3125 0.930 . S
H3114 C3127 0.930 . S
H3115 C3128 0.930 . S
H3116 C3132 0.959 . S
H3117 C3132 0.959 . S
H3118 C3132 0.961 . S
H3119 C3133 0.960 . S
H3120 C3133 0.961 . S
H3121 C3133 0.959 . S
H3122 C3136 0.929 . S
H3123 C3137 0.931 . S
H3124 C3139 0.930 . S
C3125 H3113 0.930 . S
C3125 C3126 1.399 . S
C3125 C3130 1.399 . S
C3126 C3125 1.399 . S
C3126 C3127 1.376 . S
C3127 H3114 0.930 . S
C3127 C3126 1.376 . S
C3127 C3128 1.388 . S
C3128 H3115 0.930 . S
C3128 C3127 1.388 . S
C3128 C3129 1.390 . S
C3129 C3128 1.390 . S
C3129 C3130 1.394 . S
C3129 C3135 1.465 . S
C3130 C3125 1.399 . S
C3130 C3129 1.394 . S
C3130 C3131 1.516 . S
C3131 C3130 1.516 . S
C3131 C3132 1.502 . S
C3131 C3133 1.561 . S
C3131 C3134 1.526 . S
C3132 H3116 0.959 . S
C3132 H3117 0.959 . S
C3132 H3118 0.961 . S
C3132 C3131 1.502 . S
C3133 H3119 0.960 . S
C3133 H3120 0.961 . S
C3133 H3121 0.959 . S
C3133 C3131 1.561 . S
C3134 C3131 1.526 . S
C3134 C3135 1.396 . S
C3134 C3139 1.390 . S
C3135 C3129 1.465 . S
C3135 C3134 1.396 . S
C3135 C3136 1.399 . S
C3136 H3122 0.929 . S
C3136 C3135 1.399 . S
C3136 C3137 1.385 . S
C3137 H3123 0.931 . S
C3137 C3136 1.385 . S
C3137 C3138 1.389 . S
C3138 C3137 1.389 . S
C3138 C3139 1.387 . S
C3139 H3124 0.930 . S
C3139 C3134 1.390 . S
C3139 C3138 1.387 . S
H3140 C3152 0.930 . S
H3141 C3154 0.930 . S
H3142 C3155 0.930 . S
H3143 C3159 0.959 . S
H3144 C3159 0.959 . S
H3145 C3159 0.961 . S
H3146 C3160 0.960 . S
H3147 C3160 0.961 . S
H3148 C3160 0.959 . S
H3149 C3163 0.929 . S
H3150 C3164 0.931 . S
H3151 C3166 0.930 . S
C3152 H3140 0.930 . S
C3152 C3153 1.399 . S
C3152 C3157 1.399 . S
C3153 C3152 1.399 . S
C3153 C3154 1.376 . S
C3154 H3141 0.930 . S
C3154 C3153 1.376 . S
C3154 C3155 1.388 . S
C3155 H3142 0.930 . S
C3155 C3154 1.388 . S
C3155 C3156 1.390 . S
C3156 C3155 1.390 . S
C3156 C3157 1.394 . S
C3156 C3162 1.465 . S
C3157 C3152 1.399 . S
C3157 C3156 1.394 . S
C3157 C3158 1.516 . S
C3158 C3157 1.516 . S
C3158 C3159 1.502 . S
C3158 C3160 1.561 . S
C3158 C3161 1.526 . S
C3159 H3143 0.959 . S
C3159 H3144 0.959 . S
C3159 H3145 0.961 . S
C3159 C3158 1.502 . S
C3160 H3146 0.960 . S
C3160 H3147 0.961 . S
C3160 H3148 0.959 . S
C3160 C3158 1.561 . S
C3161 C3158 1.526 . S
C3161 C3162 1.396 . S
C3161 C3166 1.390 . S
C3162 C3156 1.465 . S
C3162 C3161 1.396 . S
C3162 C3163 1.399 . S
C3163 H3149 0.929 . S
C3163 C3162 1.399 . S
C3163 C3164 1.385 . S
C3164 H3150 0.931 . S
C3164 C3163 1.385 . S
C3164 C3165 1.389 . S
C3165 C3164 1.389 . S
C3165 C3166 1.387 . S
C3166 H3151 0.930 . S
C3166 C3161 1.390 . S
C3166 C3165 1.387 . S
H3167 C3179 0.930 . S
H3168 C3181 0.930 . S
H3169 C3182 0.930 . S
H3170 C3186 0.959 . S
H3171 C3186 0.959 . S
H3172 C3186 0.961 . S
H3173 C3187 0.960 . S
H3174 C3187 0.961 . S
H3175 C3187 0.959 . S
H3176 C3190 0.929 . S
H3177 C3191 0.931 . S
H3178 C3193 0.930 . S
C3179 H3167 0.930 . S
C3179 C3180 1.399 . S
C3179 C3184 1.399 . S
C3180 C3179 1.399 . S
C3180 C3181 1.376 . S
C3181 H3168 0.930 . S
C3181 C3180 1.376 . S
C3181 C3182 1.388 . S
C3182 H3169 0.930 . S
C3182 C3181 1.388 . S
C3182 C3183 1.390 . S
C3183 C3182 1.390 . S
C3183 C3184 1.394 . S
C3183 C3189 1.465 . S
C3184 C3179 1.399 . S
C3184 C3183 1.394 . S
C3184 C3185 1.516 . S
C3185 C3184 1.516 . S
C3185 C3186 1.502 . S
C3185 C3187 1.561 . S
C3185 C3188 1.526 . S
C3186 H3170 0.959 . S
C3186 H3171 0.959 . S
C3186 H3172 0.961 . S
C3186 C3185 1.502 . S
C3187 H3173 0.960 . S
C3187 H3174 0.961 . S
C3187 H3175 0.959 . S
C3187 C3185 1.561 . S
C3188 C3185 1.526 . S
C3188 C3189 1.396 . S
C3188 C3193 1.390 . S
C3189 C3183 1.465 . S
C3189 C3188 1.396 . S
C3189 C3190 1.399 . S
C3190 H3176 0.929 . S
C3190 C3189 1.399 . S
C3190 C3191 1.385 . S
C3191 H3177 0.931 . S
C3191 C3190 1.385 . S
C3191 C3192 1.389 . S
C3192 C3191 1.389 . S
C3192 C3193 1.387 . S
C3193 H3178 0.930 . S
C3193 C3188 1.390 . S
C3193 C3192 1.387 . S
H3194 C3206 0.930 1_455 S
H3195 C3208 0.930 . S
H3196 C3209 0.930 . S
H3197 C3213 0.959 . S
H3198 C3213 0.959 . S
H3199 C3213 0.961 . S
H3200 C3214 0.960 . S
H3201 C3214 0.961 1_455 S
H3202 C3214 0.959 . S
H3203 C3217 0.929 . S
H3204 C3218 0.931 . S
H3205 C3220 0.930 . S
C3206 H3194 0.930 1_655 S
C3206 C3207 1.399 . S
C3206 C3211 1.400 . S
C3207 C3206 1.399 . S
C3207 C3208 1.376 . S
C3208 H3195 0.930 . S
C3208 C3207 1.376 . S
C3208 C3209 1.388 . S
C3209 H3196 0.930 . S
C3209 C3208 1.388 . S
C3209 C3210 1.390 . S
C3210 C3209 1.390 . S
C3210 C3211 1.400 . S
C3210 C3216 1.465 . S
C3211 C3206 1.400 . S
C3211 C3210 1.400 . S
C3211 C3212 1.510 1_655 S
C3212 C3211 1.510 1_455 S
C3212 C3213 1.502 . S
C3212 C3214 1.561 1_455 S
C3212 C3215 1.526 . S
C3213 H3197 0.959 . S
C3213 H3198 0.959 . S
C3213 H3199 0.961 . S
C3213 C3212 1.502 . S
C3214 H3200 0.960 . S
C3214 H3201 0.961 1_655 S
C3214 H3202 0.959 . S
C3214 C3212 1.561 1_655 S
C3215 C3212 1.526 . S
C3215 C3216 1.396 1_455 S
C3215 C3220 1.390 . S
C3216 C3210 1.465 . S
C3216 C3215 1.396 1_655 S
C3216 C3217 1.399 . S
C3217 H3203 0.929 . S
C3217 C3216 1.399 . S
C3217 C3218 1.385 . S
C3218 H3204 0.931 . S
C3218 C3217 1.385 . S
C3218 C3219 1.389 1_655 S
C3219 C3218 1.389 1_455 S
C3219 C3220 1.387 . S
C3220 H3205 0.930 . S
C3220 C3215 1.390 . S
C3220 C3219 1.387 . S
H3221 C3233 0.930 . S
H3222 C3235 0.930 . S
H3223 C3236 0.930 . S
H3224 C3240 0.959 . S
H3225 C3240 0.959 . S
H3226 C3240 0.961 1_455 S
H3227 C3241 0.960 . S
H3228 C3241 0.961 1_655 S
H3229 C3241 0.959 . S
H3230 C3244 0.929 . S
H3231 C3245 0.931 . S
H3232 C3247 0.930 . S
C3233 H3221 0.930 . S
C3233 C3234 1.399 . S
C3233 C3238 1.399 . S
C3234 C3233 1.399 . S
C3234 C3235 1.376 . S
C3235 H3222 0.930 . S
C3235 C3234 1.376 . S
C3235 C3236 1.388 . S
C3236 H3223 0.930 . S
C3236 C3235 1.388 . S
C3236 C3237 1.390 . S
C3237 C3236 1.390 . S
C3237 C3238 1.394 . S
C3237 C3243 1.465 1_455 S
C3238 C3233 1.399 . S
C3238 C3237 1.394 . S
C3238 C3239 1.516 . S
C3239 C3238 1.516 . S
C3239 C3240 1.502 1_455 S
C3239 C3241 1.561 . S
C3239 C3242 1.526 1_455 S
C3240 H3224 0.959 . S
C3240 H3225 0.959 . S
C3240 H3226 0.961 1_655 S
C3240 C3239 1.502 1_655 S
C3241 H3227 0.960 . S
C3241 H3228 0.961 1_455 S
C3241 H3229 0.959 . S
C3241 C3239 1.561 . S
C3242 C3239 1.526 1_655 S
C3242 C3243 1.396 . S
C3242 C3247 1.390 . S
C3243 C3237 1.465 1_655 S
C3243 C3242 1.396 . S
C3243 C3244 1.399 . S
C3244 H3230 0.929 . S
C3244 C3243 1.399 . S
C3244 C3245 1.385 . S
C3245 H3231 0.931 . S
C3245 C3244 1.385 . S
C3245 C3246 1.389 . S
C3246 C3245 1.389 . S
C3246 C3247 1.387 . S
C3247 H3232 0.930 . S
C3247 C3242 1.390 . S
C3247 C3246 1.387 . S
C1101 C2 1.522 . S
C1113 C274 1.516 . S
C1128 C36 1.504 . S
C1140 C852 1.528 . S
C1155 C342 1.505 . S
C1167 C70 1.526 . S
C1182 C920 1.511 . S
C1194 C104 1.527 . S
C1209 C410 1.525 . S
C1221 C138 1.507 . S
C1236 C172 1.529 . S
C1248 C988 1.504 . S
C1263 C478 1.506 . S
C1275 C206 1.526 . S
C1290 C1056 1.521 . S
C1302 C240 1.510 . S
C1317 C308 1.512 . S
C1329 C580 1.526 . S
C1344 C376 1.523 . S
C1356 C648 1.508 . S
C1371 C716 1.504 . S
C1383 C444 1.529 . S
C1398 C512 1.520 . S
C1410 C784 1.510 . S
C1425 C546 1.527 . S
C1437 C818 1.506 . S
C1452 C886 1.529 . S
C1464 C614 1.507 . S
C1479 C954 1.529 . S
C1491 C682 1.508 . S
C1506 C750 1.525 . S
C1518 C1022 1.507 . S
C1533 C5 0.829 . S
C1545 C485 0.748 . S
C1560 C1063 0.884 . S
C1572 C39 0.727 . S
C1587 C417 0.692 . S
C1599 C73 0.846 . S
C1614 C995 0.884 . S
C1626 C107 0.731 . S
C1641 C349 0.780 . S
C1653 C141 0.760 . S
C1668 C175 0.723 . S
C1680 C927 0.880 . S
C1695 C281 0.661 . S
C1707 C209 0.844 . S
C1722 C243 0.759 . S
C1734 C859 0.780 . S
C1749 C277 0.733 . S
C1761 C213 0.769 . S
C1776 C311 0.848 . S
C1788 C791 0.738 . S
C1803 C345 0.848 . S
C1815 C145 0.737 . S
C1830 C723 0.847 . S
C1842 C379 0.811 . S
C1857 C77 0.883 . S
C1869 C413 0.766 . S
C1884 C655 0.739 . S
C1896 C447 0.847 . S
C1911 C481 0.722 . S
C1923 C9 0.844 . S
C1938 C587 0.758 . S
C1950 C515 0.845 . S
C1965 C549 0.832 . S
C1977 C1029 0.670 . S
C1992 C519 0.661 . S
C2004 C583 0.841 . S
C2019 C961 0.837 . S
C2031 C617 0.732 . S
C2046 C651 0.841 . S
C2058 C451 0.715 . S
C2073 C893 0.784 . S
C2085 C685 0.758 . S
C2100 C383 0.882 . S
C2112 C719 0.736 . S
C2127 C753 0.745 . S
C2139 C825 0.874 . S
C2154 C787 0.834 . S
C2166 C315 0.738 . S
C2181 C821 0.741 . S
C2193 C757 0.748 . S
C2208 C855 0.844 . S
C2220 C247 0.689 . S
C2235 C889 0.827 . S
C2247 C689 0.818 . S
C2262 C923 0.750 . S
C2274 C179 0.881 . S
C2289 C621 0.882 . S
C2301 C957 0.746 . S
C2316 C991 0.748 . S
C2328 C111 0.881 . S
C2343 C553 0.833 . S
C2355 C1025 0.819 . S
C2370 C43 0.742 . S
C2382 C1059 0.847 . S
C2397 C258 1.798 . S
C2409 C20 1.766 . S
C2424 C156 1.753 . S
C2436 C54 1.801 . S
C2451 C88 1.801 . S
C2463 C190 1.754 . S
C2478 C122 1.804 . S
C2490 C224 1.756 . S
C2505 C530 1.803 . S
C2517 C292 1.759 . S
C2532 C326 1.753 . S
C2544 C428 1.797 . S
C2559 C462 1.756 . S
C2571 C360 1.780 . S
C2586 C496 1.782 . S
C2598 C394 1.797 . S
C2613 C564 1.803 . S
C2625 C802 1.758 . S
C2640 C598 1.785 . S
C2652 C700 1.781 . S
C2667 C632 1.794 . S
C2679 C734 1.771 . S
C2694 C768 1.800 . S
C2706 C666 1.754 . S
C2721 C1074 1.804 . S
C2733 C836 1.767 . S
C2748 C972 1.785 . S
C2760 C870 1.795 . S
C2775 C904 1.796 . S
C2787 C1006 1.784 . S
C2802 C938 1.797 . S
C2814 C1040 1.783 . S
C2829 C33 2.197 . S
C2841 C645 2.201 . S
C2856 C679 2.196 . S
C2868 C67 2.200 . S
C2883 C577 2.194 . S
C2895 C101 2.192 . S
C2910 C611 2.194 . S
C2922 C135 2.191 . S
C2937 C781 2.193 . S
C2949 C169 2.192 . S
C2964 C815 2.198 . S
C2976 C203 2.201 . S
C2991 C237 2.193 . S
C3003 C713 2.192 . S
C3018 C747 2.198 . S
C3030 C271 2.201 . S
C3045 C917 2.191 . S
C3057 C305 2.193 . S
C3072 C339 2.191 . S
C3084 C951 2.193 . S
C3099 C373 2.192 . S
C3111 C849 2.194 . S
C3126 C407 2.196 . S
C3138 C883 2.194 . S
C3153 C441 2.200 . S
C3165 C1053 2.199 . S
C3180 C1087 2.191 . S
C3192 C475 2.193 . S
C3207 C509 2.192 . S
C3219 C985 2.194 . S
C3234 C1019 2.200 . S
C3246 C543 2.200 . S
