# Generated by pormake.
# Topology uov, (4)-cn, num edge types: 1
# Building blocks:
#     Node 0, Type 0, BuildingBlock: QUQFOY_clean_sbu_3, # of connection points: 4
#     Node 1, Type 0, BuildingBlock: QUQFOY_clean_sbu_3, # of connection points: 4
#     Node 2, Type 0, BuildingBlock: QUQFOY_clean_sbu_3, # of connection points: 4
#     Node 3, Type 0, BuildingBlock: QUQFOY_clean_sbu_3, # of connection points: 4
#     Node 4, Type 0, BuildingBlock: QUQFOY_clean_sbu_3, # of connection points: 4
#     Node 5, Type 0, BuildingBlock: QUQFOY_clean_sbu_3, # of connection points: 4
#     Node 6, Type 0, BuildingBlock: QUQFOY_clean_sbu_3, # of connection points: 4
#     Node 7, Type 0, BuildingBlock: QUQFOY_clean_sbu_3, # of connection points: 4
#     Edge 8, Type (0, 0), BuildingBlock: XIVTED_clean_linker_0, # of connection points: 2
#     Edge 9, Type (0, 0), BuildingBlock: XIVTED_clean_linker_0, # of connection points: 2
#     Edge 10, Type (0, 0), BuildingBlock: XIVTED_clean_linker_0, # of connection points: 2
#     Edge 11, Type (0, 0), BuildingBlock: XIVTED_clean_linker_0, # of connection points: 2
#     Edge 12, Type (0, 0), BuildingBlock: XIVTED_clean_linker_0, # of connection points: 2
#     Edge 13, Type (0, 0), BuildingBlock: XIVTED_clean_linker_0, # of connection points: 2
#     Edge 14, Type (0, 0), BuildingBlock: XIVTED_clean_linker_0, # of connection points: 2
#     Edge 15, Type (0, 0), BuildingBlock: XIVTED_clean_linker_0, # of connection points: 2
#     Edge 16, Type (0, 0), BuildingBlock: XIVTED_clean_linker_0, # of connection points: 2
#     Edge 17, Type (0, 0), BuildingBlock: XIVTED_clean_linker_0, # of connection points: 2
#     Edge 18, Type (0, 0), BuildingBlock: XIVTED_clean_linker_0, # of connection points: 2
#     Edge 19, Type (0, 0), BuildingBlock: XIVTED_clean_linker_0, # of connection points: 2
#     Edge 20, Type (0, 0), BuildingBlock: XIVTED_clean_linker_0, # of connection points: 2
#     Edge 21, Type (0, 0), BuildingBlock: XIVTED_clean_linker_0, # of connection points: 2
#     Edge 22, Type (0, 0), BuildingBlock: XIVTED_clean_linker_0, # of connection points: 2
#     Edge 23, Type (0, 0), BuildingBlock: XIVTED_clean_linker_0, # of connection points: 2
# Relax obj value: 0.139
# Max RMSD: 0.153
# Mean RMSD: 0.146
data_MOF--net-uov--node1-QUQFOY_clean_sbu_3--edge1-XIVTED_clean_linker_0
_symmetry_space_group_name_H-M    P1
_symmetry_Int_Tables_number       1
_symmetry_cell_setting            triclinic
loop_
_symmetry_equiv_pos_as_xyz
'x, y, z'
_cell_length_a     31.866715
_cell_length_b     31.766743
_cell_length_c     43.441766
_cell_angle_alpha  89.948111
_cell_angle_beta   89.745268
_cell_angle_gamma 87.462039
loop_
_atom_site_label
_atom_site_type_symbol
_atom_site_fract_x
_atom_site_fract_y
_atom_site_fract_z
_atom_type_partial_charge
C0 C 0.93198 0.1939 0.58212 0.0
O1 O 0.94466 0.16216 0.59784 0.0
Cd2 Cd 0.01534 0.1532 0.61741 0.0
O3 O 0.95629 0.22382 0.57703 0.0
Cd4 Cd 0.0281 0.24193 0.5902 0.0
C5 C 0.07428 0.16224 0.55155 0.0
O6 O 0.03708 0.21538 0.64258 0.0
O7 O 0.09365 0.22669 0.61667 0.0
O8 O 0.01407 0.31329 0.60661 0.0
C9 C 0.07682 0.2173 0.64213 0.0
O10 O 0.0639 0.13942 0.57426 0.0
C11 C 0.02968 0.33006 0.58293 0.0
O12 O 0.0617 0.2007 0.54979 0.0
O13 O 0.04439 0.3057 0.562 0.0
C14 C 0.17346 0.92451 0.32497 0.0
O15 O 0.15272 0.95452 0.33817 0.0
Cd16 Cd 0.17034 -0.00542 0.38254 0.0
O17 O 0.20971 0.91214 0.33456 0.0
Cd18 Cd 0.25884 0.93229 0.37545 0.0
C19 C 0.19163 0.91153 0.43339 0.0
O20 O 0.24148 0.0069 0.37645 0.0
O21 O 0.28175 -0.01596 0.41263 0.0
O22 O 0.31607 0.93064 0.33876 0.0
C23 C 0.2601 0.01462 0.40137 0.0
O24 O 0.17171 0.94541 0.4253 0.0
C25 C 0.34146 0.90976 0.35599 0.0
O26 O 0.22255 0.89603 0.41763 0.0
O27 O 0.32676 0.8954 0.38097 0.0
C28 C 0.02006 0.79514 0.59737 0.0
O29 O 0.00239 0.81925 0.61732 0.0
Cd30 Cd 0.93444 0.80583 0.63936 0.0
O31 O 0.00344 0.76115 0.58957 0.0
Cd32 Cd 0.94337 0.71855 0.60137 0.0
C33 C 0.87987 0.79421 0.57131 0.0
O34 O 0.93201 0.73425 0.65527 0.0
O35 O 0.88067 0.70652 0.63146 0.0
O36 O -0.00901 0.65884 0.60694 0.0
C37 C 0.89508 0.72085 0.65632 0.0
O38 O 0.88556 0.8143 0.59625 0.0
C39 C 0.97489 0.63699 0.58599 0.0
O40 O 0.89987 0.75944 0.56568 0.0
O41 O 0.94323 0.65322 0.57189 0.0
C42 C 0.78494 0.05442 0.32397 0.0
O43 O 0.81221 0.03485 0.34046 0.0
Cd44 Cd 0.80233 0.0083 0.391 0.0
O45 O 0.747 0.05965 0.33311 0.0
Cd46 Cd 0.70568 0.03603 0.3782 0.0
C47 C 0.7567 0.0968 0.42682 0.0
O48 O 0.74189 0.96812 0.38874 0.0
O49 O 0.70109 -0.00647 0.42439 0.0
O50 O 0.65306 0.00971 0.34379 0.0
C51 C 0.72479 0.96327 0.41482 0.0
O52 O 0.78652 0.06913 0.42361 0.0
C53 C 0.62209 0.02573 0.35882 0.0
O54 O 0.72277 0.09519 0.41156 0.0
O55 O 0.63027 0.04986 0.38112 0.0
C56 C 0.9043 0.16704 0.12957 0.0
O57 O 0.9301 0.14351 0.11432 0.0
Cd58 Cd 0.97375 0.16128 0.07169 0.0
O59 O 0.89907 0.2061 0.12322 0.0
Cd60 Cd 0.92838 0.25528 0.08532 0.0
C61 C 0.89584 0.20216 0.02346 0.0
O62 O 0.00031 0.2268 0.08358 0.0
O63 O -0.01668 0.27186 0.04857 0.0
O64 O 0.93628 0.30858 0.12463 0.0
C65 C 0.01119 0.24682 0.05984 0.0
O66 O 0.92667 0.17647 0.02912 0.0
C67 C 0.91959 0.33828 0.10866 0.0
O68 O 0.8851 0.23198 0.04195 0.0
O69 O 0.9031 0.32827 0.08325 0.0
C70 C 0.17411 0.92891 0.87564 0.0
O71 O 0.14545 0.94569 0.85887 0.0
Cd72 Cd 0.14669 0.01653 0.83929 0.0
O73 O 0.20695 0.94868 0.88157 0.0
Cd74 Cd 0.23676 0.0163 0.86764 0.0
C75 C 0.16303 0.07162 0.90629 0.0
O76 O 0.21238 0.02803 0.81524 0.0
O77 O 0.23139 0.08293 0.84004 0.0
O78 O 0.30346 -0.01465 0.85201 0.0
C79 C 0.21958 0.067 0.81494 0.0
O80 O 0.13977 0.06479 0.88318 0.0
C81 C 0.32442 0.00192 0.87321 0.0
O82 O 0.19964 0.05424 0.90847 0.0
O83 O 0.30436 0.02517 0.89253 0.0
C84 C 0.04436 0.79283 0.14083 0.0
O85 O 0.01973 0.8165 0.12485 0.0
Cd86 Cd 0.97977 0.79943 0.08046 0.0
O87 O 0.05033 0.7539 0.13433 0.0
Cd88 Cd 0.02405 0.70559 0.09483 0.0
C89 C 0.06126 0.7594 0.03462 0.0
O90 O 0.95211 0.73379 0.09065 0.0
O91 O 0.97258 0.69006 0.05558 0.0
O92 O 0.0123 0.65003 0.13193 0.0
C93 C 0.94348 0.71436 0.0662 0.0
O94 O 0.02999 0.78498 0.03936 0.0
C95 C 0.03181 0.62156 0.11631 0.0
O96 O 0.07059 0.72941 0.05327 0.0
O97 O 0.05135 0.63334 0.09245 0.0
C98 C 0.78706 0.02219 0.87027 0.0
O99 O 0.81525 0.00425 0.85349 0.0
Cd100 Cd 0.8121 0.9324 0.83591 0.0
O101 O 0.75413 0.00311 0.8773 0.0
Cd102 Cd 0.7222 0.93577 0.86673 0.0
C103 C 0.79684 0.88161 0.90515 0.0
O104 O 0.74521 0.91961 0.81445 0.0
O105 O 0.72408 0.86753 0.84167 0.0
O106 O 0.65657 0.96935 0.85192 0.0
C107 C 0.73685 0.88093 0.81593 0.0
O108 O 0.81942 0.88697 0.88127 0.0
C109 C 0.63536 0.95461 0.87389 0.0
O110 O 0.76046 0.89952 0.90774 0.0
O111 O 0.65481 0.93085 0.89314 0.0
H112 H 0.95032 0.58252 0.54116 0.0
H113 H 0.04022 0.38562 0.62889 0.0
H114 H 0.03627 0.5931 0.61709 0.0
H115 H 0.02034 0.37804 0.53093 0.0
H116 H 0.03532 0.46232 0.62541 0.0
H117 H 0.97231 0.50776 0.5363 0.0
C118 C 0.97414 0.56927 0.55651 0.0
C119 C -0.00899 0.59371 0.5799 0.0
C120 C 0.03258 0.44393 0.60459 0.0
C121 C 0.01579 0.50897 0.57459 0.0
C122 C 0.03509 0.4003 0.60661 0.0
C123 C 0.03039 0.3759 0.58018 0.0
C124 C 0.0241 0.46316 0.57608 0.0
C125 C 0.02412 0.39613 0.55178 0.0
C126 C -0.01322 0.52683 0.5536 0.0
C127 C 0.02204 0.57524 0.599 0.0
N128 N 0.02031 0.43888 0.5505 0.0
N129 N 0.03292 0.53374 0.59626 0.0
H130 H 0.55764 0.02894 0.39991 0.0
H131 H 0.38308 0.93042 0.30312 0.0
H132 H 0.59074 -0.01381 0.30829 0.0
H133 H 0.40319 0.8971 0.39846 0.0
H134 H 0.45425 0.95699 0.30096 0.0
H135 H 0.49254 -0.00845 0.39657 0.0
C136 C 0.5508 0.01244 0.37883 0.0
C137 C 0.57956 0.0106 0.35432 0.0
C138 C 0.44324 0.94288 0.32205 0.0
C139 C 0.50553 0.96753 0.35059 0.0
C140 C 0.40289 0.92748 0.32328 0.0
C141 C 0.38708 0.91205 0.35113 0.0
C142 C 0.46709 0.94368 0.34904 0.0
C143 C 0.41398 0.90896 0.37657 0.0
C144 C 0.51402 -0.0094 0.37716 0.0
C145 C 0.56928 -0.01169 0.32767 0.0
N146 N 0.45232 0.92577 0.37516 0.0
N147 N 0.53282 0.96766 0.3264 0.0
H148 H 0.94549 0.37171 0.16334 0.0
H149 H 0.04893 0.55635 0.07709 0.0
H150 H 0.91495 0.40479 0.06938 0.0
H151 H -0.00512 0.58513 0.16639 0.0
H152 H 0.0179 0.48755 0.07896 0.0
H153 H 0.97658 0.44079 0.16964 0.0
C154 C 0.94442 0.39382 0.14433 0.0
C155 C 0.92781 0.3825 0.11573 0.0
C156 C 0.01351 0.50879 0.09832 0.0
C157 C 0.96464 0.45979 0.12247 0.0
C158 C 0.0316 0.54779 0.0975 0.0
C159 C 0.02398 0.57671 0.12146 0.0
C160 C -0.01159 0.49832 0.1235 0.0
C161 C 0.00116 0.56381 0.14733 0.0
C162 C 0.96236 0.43288 0.14791 0.0
C163 C 0.92736 0.41216 0.0918 0.0
N164 N -0.0162 0.52543 0.14764 0.0
N165 N 0.94643 0.4491 0.0955 0.0
H166 H 0.37634 0.97824 0.82623 0.0
H167 H 0.58332 0.94442 0.92357 0.0
H168 H 0.37636 0.01067 0.92272 0.0
H169 H 0.58408 -0.01502 0.82867 0.0
H170 H 0.50665 0.95752 0.92488 0.0
H171 H 0.45261 0.96818 0.82769 0.0
C172 C 0.39245 -0.01695 0.84777 0.0
C173 C 0.37024 -0.00467 0.8744 0.0
C174 C 0.52389 0.96373 0.90394 0.0
C175 C 0.45714 -0.01641 0.87623 0.0
C176 C 0.56738 0.95613 0.90311 0.0
C177 C 0.58984 0.96356 0.87595 0.0
C178 C 0.50309 0.97783 0.87721 0.0
C179 C 0.56792 0.97889 0.85009 0.0
C180 C 0.43588 0.97755 0.84852 0.0
C181 C 0.39257 0.00137 0.90169 0.0
N182 N 0.52565 -0.0149 0.85126 0.0
N183 N 0.43505 -0.00491 0.90201 0.0
H184 H 0.27824 0.02561 0.46212 0.0
H185 H 0.08756 0.19122 0.49308 0.0
H186 H 0.2024 0.07863 0.38831 0.0
H187 H 0.12957 0.09487 0.5575 0.0
H188 H 0.1399 0.16356 0.45581 0.0
H189 H 0.23609 0.06729 0.49893 0.0
C190 C 0.25339 0.04678 0.45354 0.0
C191 C 0.24316 0.04795 0.42215 0.0
C192 C 0.13757 0.14868 0.47816 0.0
C193 C 0.19483 0.09537 0.46419 0.0
C194 C 0.10774 0.16426 0.49935 0.0
C195 C 0.10401 0.14498 0.52826 0.0
C196 C 0.16428 0.11424 0.48629 0.0
C197 C 0.13102 0.11031 0.53531 0.0
C198 C 0.22915 0.07025 0.47462 0.0
C199 C 0.21092 0.07635 0.41237 0.0
N200 N 0.16015 0.09615 0.51449 0.0
N201 N 0.18741 0.09861 0.43342 0.0
H202 H 0.19494 0.8271 0.44838 0.0
H203 H 0.05806 0.87075 0.60079 0.0
H204 H 0.15796 0.95016 0.48372 0.0
H205 H 0.06708 0.75024 0.55471 0.0
H206 H 0.11097 0.89651 0.56551 0.0
H207 H 0.16348 0.79527 0.49424 0.0
C208 C 0.18083 0.84733 0.46599 0.0
C209 C 0.17823 0.89118 0.46208 0.0
C210 C 0.10176 0.86423 0.5634 0.0
C211 C 0.14285 0.85539 0.51431 0.0
C212 C 0.07165 0.84946 0.58362 0.0
C213 C 0.05744 0.80858 0.5803 0.0
C214 C 0.11772 0.83799 0.53967 0.0
C215 C 0.07655 0.78228 0.55777 0.0
C216 C 0.16285 0.82925 0.49205 0.0
C217 C 0.15981 0.91613 0.48556 0.0
N218 N 0.1053 0.79762 0.538 0.0
N219 N 0.14261 0.89789 0.51053 0.0
H220 H 0.78164 0.89793 0.40328 0.0
H221 H 0.81746 0.85436 0.58056 0.0
H222 H 0.70185 0.9524 0.47473 0.0
H223 H 0.87498 0.77527 0.50993 0.0
H224 H 0.77248 0.8882 0.54178 0.0
H225 H 0.81348 0.84952 0.44123 0.0
C226 C 0.77041 0.89928 0.42684 0.0
C227 C 0.73959 0.92964 0.43601 0.0
C228 C 0.7946 0.86314 0.53476 0.0
C229 C 0.77603 0.87485 0.47945 0.0
C230 C 0.82048 0.84398 0.55688 0.0
C231 C 0.85036 0.81237 0.54836 0.0
C232 C 0.79908 0.8511 0.50379 0.0
C233 C 0.85249 0.79972 0.51742 0.0
C234 C 0.78855 0.87165 0.44847 0.0
C235 C 0.72593 0.92984 0.46675 0.0
N236 N 0.82757 0.81958 0.49612 0.0
N237 N 0.74469 0.90328 0.48747 0.0
H238 H 0.79527 0.17106 0.42237 0.0
H239 H 0.86796 0.14019 0.59104 0.0
H240 H 0.73241 0.09109 0.48613 0.0
H241 H 0.90331 0.24626 0.53599 0.0
H242 H 0.80901 0.13026 0.55653 0.0
H243 H 0.82495 0.20858 0.46579 0.0
C244 C 0.78634 0.16272 0.44561 0.0
C245 C 0.76133 0.12835 0.45093 0.0
C246 C 0.82908 0.15632 0.55236 0.0
C247 C 0.7966 0.16931 0.50055 0.0
C248 C 0.86285 0.16191 0.57205 0.0
C249 C 0.89124 0.19341 0.56596 0.0
C250 C 0.82421 0.18184 0.52604 0.0
C251 C 0.88266 0.22105 0.54128 0.0
C252 C 0.80349 0.18383 0.47042 0.0
C253 C 0.75137 0.11781 0.48131 0.0
N254 N 0.85052 0.214 0.52179 0.0
N255 N 0.76982 0.13758 0.50506 0.0
H256 H 0.73661 0.06659 0.91127 0.0
H257 H 0.92875 0.19471 0.96645 0.0
H258 H 0.8549 0.07139 0.8628 0.0
H259 H 0.81145 0.19276 0.01599 0.0
H260 H 0.89518 0.16491 0.92165 0.0
H261 H 0.75626 0.12615 0.94274 0.0
C262 C 0.7664 0.08063 0.90682 0.0
C263 C 0.79466 0.06322 0.88486 0.0
C264 C 0.87635 0.17176 0.94199 0.0
C265 C 0.81733 0.13133 0.92095 0.0
C266 C 0.89549 0.18895 0.96749 0.0
C267 C 0.87277 0.1957 -0.00517 0.0
C268 C 0.83446 0.16005 0.94419 0.0
C269 C 0.82988 0.18789 -0.0048 0.0
C270 C 0.77756 0.1147 0.92483 0.0
C271 C 0.83247 0.08317 0.87985 0.0
N272 N 0.81223 0.16946 0.97042 0.0
N273 N 0.84298 0.11568 0.89812 0.0
H274 H 0.1878 0.07587 0.96655 0.0
H275 H 0.03198 0.27344 0.00226 0.0
H276 H 0.1042 0.13567 0.90014 0.0
H277 H 0.06873 0.18224 0.07198 0.0
H278 H 0.07697 0.23511 0.96529 0.0
H279 H 0.16028 0.12551 0.00587 0.0
C280 C 0.16389 0.09957 0.96023 0.0
C281 C 0.14778 0.10141 0.93021 0.0
C282 C 0.07567 0.22393 -0.01117 0.0
C283 C 0.11726 0.15845 0.97457 0.0
C284 C 0.05022 0.24588 0.01001 0.0
C285 C 0.0459 0.23042 0.04006 0.0
C286 C 0.09717 0.1865 -0.00216 0.0
C287 C 0.07072 0.19486 0.04889 0.0
C288 C 0.14834 0.12779 -0.01741 0.0
C289 C 0.11699 0.13276 0.92313 0.0
N290 N 0.09495 0.17365 0.02769 0.0
N291 N 0.10275 0.16008 0.94516 0.0
H292 H 0.14664 0.76494 0.02851 0.0
H293 H 0.11132 0.87461 0.86552 0.0
H294 H 0.03111 0.76897 0.9772 0.0
H295 H 0.2203 0.89148 0.92214 0.0
H296 H 0.09146 0.81709 0.89897 0.0
H297 H 0.18292 0.79266 -0.01688 0.0
C298 C 0.12933 0.77042 0.00737 0.0
C299 C 0.08591 0.76539 0.00646 0.0
C300 C 0.12012 0.83291 0.90382 0.0
C301 C 0.1266 0.79699 0.955 0.0
C302 C 0.13147 0.86578 0.88469 0.0
C303 C 0.16688 0.88866 0.89152 0.0
C304 C 0.14399 0.8232 0.93022 0.0
C305 C 0.19227 0.87521 0.91634 0.0
C306 C 0.14987 0.78641 0.9816 0.0
C307 C 0.0646 0.77307 0.97877 0.0
N308 N 0.17985 0.84391 0.93521 0.0
N309 N 0.08504 0.78893 0.95426 0.0
H310 H 0.85683 0.81846 0.89969 0.0
H311 H 0.88472 0.77847 0.07689 0.0
H312 H 0.77237 0.87882 0.96575 0.0
H313 H 0.92697 0.68825 0.0079 0.0
H314 H 0.84168 0.81532 0.03789 0.0
H315 H 0.88356 0.77125 0.93996 0.0
C316 C 0.84395 0.82181 0.92272 0.0
C317 C 0.81265 0.85284 0.9295 0.0
C318 C 0.85975 0.78696 0.03151 0.0
C319 C 0.84307 0.79882 0.97571 0.0
C320 C 0.88421 0.76586 0.05375 0.0
C321 C 0.91007 0.73073 0.04546 0.0
C322 C 0.86173 0.77303 0.00086 0.0
C323 C 0.90804 0.71561 0.0152 0.0
C324 C 0.85892 0.79456 0.94564 0.0
C325 C 0.79666 0.85537 0.95964 0.0
N326 N 0.88496 0.73733 -0.00615 0.0
N327 N 0.81247 0.82901 -0.01817 0.0
H328 H 0.15447 0.17832 0.63876 0.0
H329 H 0.18627 0.14734 0.81812 0.0
H330 H 0.05747 0.21815 0.70341 0.0
H331 H 0.21888 0.04746 0.75393 0.0
H332 H 0.1547 0.18882 0.77575 0.0
H333 H 0.19438 0.14512 0.68112 0.0
C334 C 0.14192 0.18063 0.66195 0.0
C335 C 0.1026 0.20072 0.66774 0.0
C336 C 0.16928 0.15803 0.77104 0.0
C337 C 0.14821 0.1637 0.71589 0.0
C338 C 0.18746 0.13453 0.79501 0.0
C339 C 0.20499 0.09398 0.78933 0.0
C340 C 0.16978 0.14121 0.74124 0.0
C341 C 0.20542 0.07856 0.75913 0.0
C342 C 0.16457 0.16158 0.68594 0.0
C343 C 0.08757 0.20264 0.6981 0.0
N344 N 0.18815 0.10233 0.73606 0.0
N345 N 0.11055 0.18442 0.72119 0.0
H346 H 0.10545 0.75569 0.17783 0.0
H347 H 0.10385 0.95115 0.29304 0.0
H348 H 0.03145 0.87156 0.16485 0.0
H349 H 0.20131 0.85224 0.29493 0.0
H350 H 0.0738 0.91856 0.24817 0.0
H351 H 0.13841 0.7871 0.22274 0.0
C352 C 0.09616 0.78767 0.18437 0.0
C353 C 0.06553 0.81099 0.1676 0.0
C354 C 0.10182 0.90395 0.25831 0.0
C355 C 0.10284 0.8468 0.21882 0.0
C356 C 0.11895 0.92249 0.28406 0.0
C357 C 0.1552 0.90442 0.29779 0.0
C358 C 0.12078 0.86682 0.2462 0.0
C359 C 0.17339 0.86729 0.28499 0.0
C360 C 0.11505 0.80555 0.20992 0.0
C361 C 0.05484 0.85232 0.17703 0.0
N362 N 0.15588 0.84956 0.2599 0.0
N363 N 0.07332 0.86876 0.20205 0.0
H364 H 0.91278 0.72669 0.71745 0.0
H365 H 0.73813 0.89342 0.75387 0.0
H366 H 0.81285 0.74678 0.65162 0.0
H367 H 0.77112 0.8018 0.82405 0.0
H368 H 0.77097 0.8461 0.71508 0.0
H369 H 0.86724 0.75941 0.7574 0.0
C370 C 0.88108 0.73733 0.71163 0.0
C371 C 0.8664 0.73404 0.68142 0.0
C372 C 0.77032 0.83624 0.73894 0.0
C373 C 0.81518 0.77236 0.72627 0.0
C374 C 0.75184 0.86314 0.76097 0.0
C375 C 0.75196 0.85127 0.79201 0.0
C376 C 0.79021 0.79812 0.74833 0.0
C377 C 0.7702 0.81185 0.80024 0.0
C378 C 0.85518 0.75584 0.73429 0.0
C379 C 0.82517 0.7485 0.67483 0.0
N380 N 0.78947 0.78693 0.77855 0.0
N381 N 0.80119 0.76797 0.69694 0.0
H382 H 0.74696 0.11757 0.2891 0.0
H383 H 0.91366 0.08725 0.15242 0.0
H384 H 0.85236 0.02735 0.28986 0.0
H385 H 0.84323 0.20508 0.16651 0.0
H386 H 0.88026 0.05869 0.1978 0.0
H387 H 0.77188 0.14443 0.23942 0.0
C388 C 0.7751 0.10329 0.27874 0.0
C389 C 0.79782 0.07039 0.29365 0.0
C390 C 0.87199 0.09077 0.19092 0.0
C391 C 0.82591 0.1004 0.23713 0.0
C392 C 0.89097 0.10712 0.16493 0.0
C393 C 0.88164 0.14885 0.15582 0.0
C394 C 0.84323 0.11613 0.20795 0.0
C395 C 0.85167 0.17288 0.17291 0.0
C396 C 0.78931 0.11868 0.25055 0.0
C397 C 0.83409 0.05301 0.27933 0.0
N398 N 0.83357 0.1562 0.19831 0.0
N399 N 0.84691 0.06816 0.25188 0.0
loop_
_geom_bond_atom_site_label_1
_geom_bond_atom_site_label_2
_geom_bond_distance
_geom_bond_site_symmetry_2
_ccdc_geom_bond_type
C0 O1 1.306 . S
C0 O3 1.160 . S
O1 C0 1.306 . S
O1 Cd2 2.228 . S
Cd2 O1 2.228 . S
Cd2 O6 2.273 . S
Cd2 O10 2.277 . S
O3 C0 1.160 . S
O3 Cd4 2.203 . S
Cd4 O3 2.203 . S
Cd4 O6 2.411 . S
Cd4 O7 2.333 . S
Cd4 O8 2.352 . S
Cd4 O12 2.277 . S
Cd4 O13 2.356 . S
C5 O10 1.209 . S
C5 O12 1.226 . S
O6 Cd2 2.273 . S
O6 Cd4 2.411 . S
O6 C9 1.320 . S
O7 Cd4 2.333 . S
O7 C9 1.214 . S
O8 Cd4 2.352 . S
O8 C11 1.258 . S
C9 O6 1.320 . S
C9 O7 1.214 . S
O10 Cd2 2.277 . S
O10 C5 1.209 . S
C11 O8 1.258 . S
C11 O13 1.282 . S
O12 Cd4 2.277 . S
O12 C5 1.226 . S
O13 Cd4 2.356 . S
O13 C11 1.282 . S
C14 O15 1.306 . S
C14 O17 1.160 . S
O15 C14 1.306 . S
O15 Cd16 2.228 . S
Cd16 O15 2.228 . S
Cd16 O20 2.273 . S
Cd16 O24 2.277 . S
O17 C14 1.160 . S
O17 Cd18 2.203 . S
Cd18 O17 2.203 . S
Cd18 O20 2.411 . S
Cd18 O21 2.333 . S
Cd18 O22 2.352 . S
Cd18 O26 2.277 . S
Cd18 O27 2.356 . S
C19 O24 1.209 . S
C19 O26 1.226 . S
O20 Cd16 2.273 . S
O20 Cd18 2.411 . S
O20 C23 1.320 . S
O21 Cd18 2.333 . S
O21 C23 1.214 . S
O22 Cd18 2.352 . S
O22 C25 1.258 . S
C23 O20 1.320 . S
C23 O21 1.214 . S
O24 Cd16 2.277 . S
O24 C19 1.209 . S
C25 O22 1.258 . S
C25 O27 1.282 . S
O26 Cd18 2.277 . S
O26 C19 1.226 . S
O27 Cd18 2.356 . S
O27 C25 1.282 . S
C28 O29 1.306 . S
C28 O31 1.160 . S
O29 C28 1.306 . S
O29 Cd30 2.228 . S
Cd30 O29 2.228 . S
Cd30 O34 2.273 . S
Cd30 O38 2.277 . S
O31 C28 1.160 . S
O31 Cd32 2.203 . S
Cd32 O31 2.203 . S
Cd32 O34 2.411 . S
Cd32 O35 2.333 . S
Cd32 O36 2.352 . S
Cd32 O40 2.277 . S
Cd32 O41 2.356 . S
C33 O38 1.209 . S
C33 O40 1.226 . S
O34 Cd30 2.273 . S
O34 Cd32 2.411 . S
O34 C37 1.320 . S
O35 Cd32 2.333 . S
O35 C37 1.214 . S
O36 Cd32 2.352 . S
O36 C39 1.258 . S
C37 O34 1.320 . S
C37 O35 1.214 . S
O38 Cd30 2.277 . S
O38 C33 1.209 . S
C39 O36 1.258 . S
C39 O41 1.282 . S
O40 Cd32 2.277 . S
O40 C33 1.226 . S
O41 Cd32 2.356 . S
O41 C39 1.282 . S
C42 O43 1.306 . S
C42 O45 1.160 . S
O43 C42 1.306 . S
O43 Cd44 2.228 . S
Cd44 O43 2.228 . S
Cd44 O48 2.273 . S
Cd44 O52 2.277 . S
O45 C42 1.160 . S
O45 Cd46 2.203 . S
Cd46 O45 2.203 . S
Cd46 O48 2.411 . S
Cd46 O49 2.333 . S
Cd46 O50 2.352 . S
Cd46 O54 2.277 . S
Cd46 O55 2.356 . S
C47 O52 1.209 . S
C47 O54 1.226 . S
O48 Cd44 2.273 . S
O48 Cd46 2.411 . S
O48 C51 1.320 . S
O49 Cd46 2.333 . S
O49 C51 1.214 . S
O50 Cd46 2.352 . S
O50 C53 1.258 . S
C51 O48 1.320 . S
C51 O49 1.214 . S
O52 Cd44 2.277 . S
O52 C47 1.209 . S
C53 O50 1.258 . S
C53 O55 1.282 . S
O54 Cd46 2.277 . S
O54 C47 1.226 . S
O55 Cd46 2.356 . S
O55 C53 1.282 . S
C56 O57 1.306 . S
C56 O59 1.160 . S
O57 C56 1.306 . S
O57 Cd58 2.228 . S
Cd58 O57 2.228 . S
Cd58 O62 2.273 . S
Cd58 O66 2.277 . S
O59 C56 1.160 . S
O59 Cd60 2.203 . S
Cd60 O59 2.203 . S
Cd60 O62 2.411 . S
Cd60 O63 2.333 . S
Cd60 O64 2.352 . S
Cd60 O68 2.277 . S
Cd60 O69 2.356 . S
C61 O66 1.209 . S
C61 O68 1.226 . S
O62 Cd58 2.273 . S
O62 Cd60 2.411 . S
O62 C65 1.320 . S
O63 Cd60 2.333 . S
O63 C65 1.214 . S
O64 Cd60 2.352 . S
O64 C67 1.258 . S
C65 O62 1.320 . S
C65 O63 1.214 . S
O66 Cd58 2.277 . S
O66 C61 1.209 . S
C67 O64 1.258 . S
C67 O69 1.282 . S
O68 Cd60 2.277 . S
O68 C61 1.226 . S
O69 Cd60 2.356 . S
O69 C67 1.282 . S
C70 O71 1.306 . S
C70 O73 1.160 . S
O71 C70 1.306 . S
O71 Cd72 2.228 . S
Cd72 O71 2.228 . S
Cd72 O76 2.273 . S
Cd72 O80 2.277 . S
O73 C70 1.160 . S
O73 Cd74 2.203 . S
Cd74 O73 2.203 . S
Cd74 O76 2.411 . S
Cd74 O77 2.333 . S
Cd74 O78 2.352 . S
Cd74 O82 2.277 . S
Cd74 O83 2.356 . S
C75 O80 1.209 . S
C75 O82 1.226 . S
O76 Cd72 2.273 . S
O76 Cd74 2.411 . S
O76 C79 1.320 . S
O77 Cd74 2.333 . S
O77 C79 1.214 . S
O78 Cd74 2.352 . S
O78 C81 1.258 . S
C79 O76 1.320 . S
C79 O77 1.214 . S
O80 Cd72 2.277 . S
O80 C75 1.209 . S
C81 O78 1.258 . S
C81 O83 1.282 . S
O82 Cd74 2.277 . S
O82 C75 1.226 . S
O83 Cd74 2.356 . S
O83 C81 1.282 . S
C84 O85 1.306 . S
C84 O87 1.160 . S
O85 C84 1.306 . S
O85 Cd86 2.228 . S
Cd86 O85 2.228 . S
Cd86 O90 2.273 . S
Cd86 O94 2.277 . S
O87 C84 1.160 . S
O87 Cd88 2.203 . S
Cd88 O87 2.203 . S
Cd88 O90 2.411 . S
Cd88 O91 2.333 . S
Cd88 O92 2.352 . S
Cd88 O96 2.277 . S
Cd88 O97 2.356 . S
C89 O94 1.209 . S
C89 O96 1.226 . S
O90 Cd86 2.273 . S
O90 Cd88 2.411 . S
O90 C93 1.320 . S
O91 Cd88 2.333 . S
O91 C93 1.214 . S
O92 Cd88 2.352 . S
O92 C95 1.258 . S
C93 O90 1.320 . S
C93 O91 1.214 . S
O94 Cd86 2.277 . S
O94 C89 1.209 . S
C95 O92 1.258 . S
C95 O97 1.282 . S
O96 Cd88 2.277 . S
O96 C89 1.226 . S
O97 Cd88 2.356 . S
O97 C95 1.282 . S
C98 O99 1.306 . S
C98 O101 1.160 . S
O99 C98 1.306 . S
O99 Cd100 2.228 . S
Cd100 O99 2.228 . S
Cd100 O104 2.273 . S
Cd100 O108 2.277 . S
O101 C98 1.160 . S
O101 Cd102 2.203 . S
Cd102 O101 2.203 . S
Cd102 O104 2.411 . S
Cd102 O105 2.333 . S
Cd102 O106 2.352 . S
Cd102 O110 2.277 . S
Cd102 O111 2.356 . S
C103 O108 1.209 . S
C103 O110 1.226 . S
O104 Cd100 2.273 . S
O104 Cd102 2.411 . S
O104 C107 1.320 . S
O105 Cd102 2.333 . S
O105 C107 1.214 . S
O106 Cd102 2.352 . S
O106 C109 1.258 . S
C107 O104 1.320 . S
C107 O105 1.214 . S
O108 Cd100 2.277 . S
O108 C103 1.209 . S
C109 O106 1.258 . S
C109 O111 1.282 . S
O110 Cd102 2.277 . S
O110 C103 1.226 . S
O111 Cd102 2.356 . S
O111 C109 1.282 . S
H112 C118 0.930 . S
H113 C122 0.930 . S
H114 C127 0.929 . S
H115 C125 0.929 . S
H116 C120 0.929 1_655 S
H117 C126 0.929 1_455 S
C118 H112 0.930 . S
C118 C119 1.367 . S
C118 C126 1.378 . S
C119 C118 1.367 . S
C119 C127 1.433 . S
C120 H116 0.929 1_455 S
C120 C122 1.378 . S
C120 C124 1.350 . S
C121 C124 1.463 1_655 S
C121 C126 1.350 . S
C121 N129 1.427 . S
C122 H113 0.930 . S
C122 C120 1.378 . S
C122 C123 1.367 . S
C123 C122 1.367 . S
C123 C125 1.433 . S
C124 C120 1.350 . S
C124 C121 1.463 1_455 S
C124 N128 1.427 . S
C125 H115 0.929 . S
C125 C123 1.433 . S
C125 N128 1.384 . S
C126 H117 0.929 1_655 S
C126 C118 1.378 . S
C126 C121 1.350 . S
C127 H114 0.929 . S
C127 C119 1.433 . S
C127 N129 1.384 . S
N128 C124 1.427 . S
N128 C125 1.384 . S
N129 C121 1.427 . S
N129 C127 1.384 . S
H130 C136 0.930 . S
H131 C140 0.930 . S
H132 C145 0.929 . S
H133 C143 0.929 . S
H134 C138 0.929 1_545 S
H135 C144 0.929 1_565 S
C136 H130 0.930 . S
C136 C137 1.367 . S
C136 C144 1.378 . S
C137 C136 1.367 . S
C137 C145 1.433 . S
C138 H134 0.929 1_565 S
C138 C140 1.378 . S
C138 C142 1.350 . S
C139 C142 1.463 1_545 S
C139 C144 1.350 . S
C139 N147 1.427 . S
C140 H131 0.930 . S
C140 C138 1.378 . S
C140 C141 1.367 . S
C141 C140 1.367 . S
C141 C143 1.433 . S
C142 C138 1.350 . S
C142 C139 1.463 1_565 S
C142 N146 1.427 . S
C143 H133 0.929 . S
C143 C141 1.433 . S
C143 N146 1.384 . S
C144 H135 0.929 1_545 S
C144 C136 1.378 . S
C144 C139 1.350 . S
C145 H132 0.929 . S
C145 C137 1.433 . S
C145 N147 1.384 . S
N146 C142 1.427 . S
N146 C143 1.384 . S
N147 C139 1.427 . S
N147 C145 1.384 . S
H148 C154 0.930 . S
H149 C158 0.930 . S
H150 C163 0.929 . S
H151 C161 0.929 . S
H152 C156 0.929 . S
H153 C162 0.929 . S
C154 H148 0.930 . S
C154 C155 1.367 . S
C154 C162 1.378 . S
C155 C154 1.367 . S
C155 C163 1.433 . S
C156 H152 0.929 . S
C156 C158 1.378 . S
C156 C160 1.350 . S
C157 C160 1.463 1_655 S
C157 C162 1.350 . S
C157 N165 1.427 . S
C158 H149 0.930 . S
C158 C156 1.378 . S
C158 C159 1.367 . S
C159 C158 1.367 . S
C159 C161 1.433 . S
C160 C156 1.350 . S
C160 C157 1.463 1_455 S
C160 N164 1.427 . S
C161 H151 0.929 . S
C161 C159 1.433 . S
C161 N164 1.384 . S
C162 H153 0.929 . S
C162 C154 1.378 . S
C162 C157 1.350 . S
C163 H150 0.929 . S
C163 C155 1.433 . S
C163 N165 1.384 . S
N164 C160 1.427 . S
N164 C161 1.384 . S
N165 C157 1.427 . S
N165 C163 1.384 . S
H166 C172 0.930 . S
H167 C176 0.930 . S
H168 C181 0.929 . S
H169 C179 0.929 . S
H170 C174 0.929 . S
H171 C180 0.929 . S
C172 H166 0.930 . S
C172 C173 1.367 . S
C172 C180 1.378 . S
C173 C172 1.367 . S
C173 C181 1.433 . S
C174 H170 0.929 . S
C174 C176 1.378 . S
C174 C178 1.350 . S
C175 C178 1.463 1_545 S
C175 C180 1.350 . S
C175 N183 1.427 . S
C176 H167 0.930 . S
C176 C174 1.378 . S
C176 C177 1.367 . S
C177 C176 1.367 . S
C177 C179 1.433 . S
C178 C174 1.350 . S
C178 C175 1.463 1_565 S
C178 N182 1.427 . S
C179 H169 0.929 . S
C179 C177 1.433 . S
C179 N182 1.384 . S
C180 H171 0.929 . S
C180 C172 1.378 . S
C180 C175 1.350 . S
C181 H168 0.929 . S
C181 C173 1.433 . S
C181 N183 1.384 . S
N182 C178 1.427 . S
N182 C179 1.384 . S
N183 C175 1.427 . S
N183 C181 1.384 . S
H184 C190 0.922 1_565 S
H185 C194 0.930 . S
H186 C199 0.929 . S
H187 C197 0.929 . S
H188 C192 0.929 . S
H189 C198 0.929 . S
C190 H184 0.922 1_545 S
C190 C191 1.368 . S
C190 C198 1.385 . S
C191 C190 1.368 . S
C191 C199 1.433 . S
C192 H188 0.929 . S
C192 C194 1.378 . S
C192 C196 1.350 . S
C193 C196 1.463 . S
C193 C198 1.350 . S
C193 N201 1.427 . S
C194 H185 0.930 . S
C194 C192 1.378 . S
C194 C195 1.367 . S
C195 C194 1.367 . S
C195 C197 1.433 . S
C196 C192 1.350 . S
C196 C193 1.463 . S
C196 N200 1.427 . S
C197 H187 0.929 . S
C197 C195 1.433 . S
C197 N200 1.384 . S
C198 H189 0.929 . S
C198 C190 1.385 . S
C198 C193 1.350 . S
C199 H186 0.929 . S
C199 C191 1.433 . S
C199 N201 1.384 . S
N200 C196 1.427 . S
N200 C197 1.384 . S
N201 C193 1.427 . S
N201 C199 1.384 . S
H202 C208 0.930 . S
H203 C212 0.930 1_655 S
H204 C217 0.929 . S
H205 C215 0.929 . S
H206 C210 0.929 . S
H207 C216 0.929 . S
C208 H202 0.930 . S
C208 C209 1.367 . S
C208 C216 1.378 . S
C209 C208 1.367 . S
C209 C217 1.433 . S
C210 H206 0.929 . S
C210 C212 1.378 . S
C210 C214 1.350 . S
C211 C214 1.463 . S
C211 C216 1.350 . S
C211 N219 1.427 . S
C212 H203 0.930 1_455 S
C212 C210 1.378 . S
C212 C213 1.367 . S
C213 C212 1.367 . S
C213 C215 1.433 . S
C214 C210 1.350 . S
C214 C211 1.463 . S
C214 N218 1.427 . S
C215 H205 0.929 . S
C215 C213 1.433 . S
C215 N218 1.384 . S
C216 H207 0.929 . S
C216 C208 1.378 . S
C216 C211 1.350 . S
C217 H204 0.929 . S
C217 C209 1.433 . S
C217 N219 1.384 . S
N218 C214 1.427 . S
N218 C215 1.384 . S
N219 C211 1.427 . S
N219 C217 1.384 . S
H220 C226 0.930 . S
H221 C230 0.930 . S
H222 C235 0.929 1_545 S
H223 C233 0.929 . S
H224 C228 0.929 . S
H225 C234 0.929 . S
C226 H220 0.930 . S
C226 C227 1.367 . S
C226 C234 1.378 . S
C227 C226 1.367 . S
C227 C235 1.433 . S
C228 H224 0.929 . S
C228 C230 1.378 . S
C228 C232 1.350 . S
C229 C232 1.463 . S
C229 C234 1.350 . S
C229 N237 1.427 . S
C230 H221 0.930 . S
C230 C228 1.378 . S
C230 C231 1.367 . S
C231 C230 1.367 . S
C231 C233 1.433 . S
C232 C228 1.350 . S
C232 C229 1.463 . S
C232 N236 1.427 . S
C233 H223 0.929 . S
C233 C231 1.433 . S
C233 N236 1.384 . S
C234 H225 0.929 . S
C234 C226 1.378 . S
C234 C229 1.350 . S
C235 H222 0.929 1_565 S
C235 C227 1.433 . S
C235 N237 1.384 . S
N236 C232 1.427 . S
N236 C233 1.384 . S
N237 C229 1.427 . S
N237 C235 1.384 . S
H238 C244 0.930 . S
H239 C248 0.930 . S
H240 C253 0.929 . S
H241 C251 0.929 1_455 S
H242 C246 0.929 . S
H243 C252 0.929 . S
C244 H238 0.930 . S
C244 C245 1.367 . S
C244 C252 1.378 . S
C245 C244 1.367 . S
C245 C253 1.433 . S
C246 H242 0.929 . S
C246 C248 1.378 . S
C246 C250 1.350 . S
C247 C250 1.463 . S
C247 C252 1.350 . S
C247 N255 1.427 . S
C248 H239 0.930 . S
C248 C246 1.378 . S
C248 C249 1.367 . S
C249 C248 1.367 . S
C249 C251 1.433 . S
C250 C246 1.350 . S
C250 C247 1.463 . S
C250 N254 1.427 . S
C251 H241 0.929 1_655 S
C251 C249 1.433 . S
C251 N254 1.384 . S
C252 H243 0.929 . S
C252 C244 1.378 . S
C252 C247 1.350 . S
C253 H240 0.929 . S
C253 C245 1.433 . S
C253 N255 1.384 . S
N254 C250 1.427 . S
N254 C251 1.384 . S
N255 C247 1.427 . S
N255 C253 1.384 . S
H256 C262 0.930 . S
H257 C266 0.930 . S
H258 C271 0.929 . S
H259 C269 0.929 . S
H260 C264 0.929 . S
H261 C270 0.929 1_554 S
C262 H256 0.930 . S
C262 C263 1.367 . S
C262 C270 1.378 . S
C263 C262 1.367 . S
C263 C271 1.433 . S
C264 H260 0.929 . S
C264 C266 1.378 1_556 S
C264 C268 1.350 1_556 S
C265 C268 1.463 1_556 S
C265 C270 1.350 . S
C265 N273 1.427 . S
C266 H257 0.930 . S
C266 C264 1.378 1_554 S
C266 C267 1.367 . S
C267 C266 1.367 . S
C267 C269 1.433 . S
C268 C264 1.350 1_554 S
C268 C265 1.463 1_554 S
C268 N272 1.427 . S
C269 H259 0.929 . S
C269 C267 1.433 . S
C269 N272 1.384 . S
C270 H261 0.929 1_556 S
C270 C262 1.378 . S
C270 C265 1.350 . S
C271 H258 0.929 . S
C271 C263 1.433 . S
C271 N273 1.384 . S
N272 C268 1.427 . S
N272 C269 1.384 . S
N273 C265 1.427 . S
N273 C271 1.384 . S
H274 C280 0.930 . S
H275 C284 0.930 . S
H276 C289 0.929 . S
H277 C287 0.929 . S
H278 C282 0.929 1_556 S
H279 C288 0.929 . S
C280 H274 0.930 . S
C280 C281 1.367 . S
C280 C288 1.378 1_556 S
C281 C280 1.367 . S
C281 C289 1.433 . S
C282 H278 0.929 1_554 S
C282 C284 1.378 . S
C282 C286 1.350 . S
C283 C286 1.463 1_556 S
C283 C288 1.350 1_556 S
C283 N291 1.427 . S
C284 H275 0.930 . S
C284 C282 1.378 . S
C284 C285 1.367 . S
C285 C284 1.367 . S
C285 C287 1.433 . S
C286 C282 1.350 . S
C286 C283 1.463 1_554 S
C286 N290 1.427 . S
C287 H277 0.929 . S
C287 C285 1.433 . S
C287 N290 1.384 . S
C288 H279 0.929 . S
C288 C280 1.378 1_554 S
C288 C283 1.350 1_554 S
C289 H276 0.929 . S
C289 C281 1.433 . S
C289 N291 1.384 . S
N290 C286 1.427 . S
N290 C287 1.384 . S
N291 C283 1.427 . S
N291 C289 1.384 . S
H292 C298 0.930 . S
H293 C302 0.930 . S
H294 C307 0.929 1_556 S
H295 C305 0.927 . S
H296 C300 0.929 . S
H297 C306 0.929 . S
C298 H292 0.930 . S
C298 C299 1.367 . S
C298 C306 1.378 . S
C299 C298 1.367 . S
C299 C307 1.433 . S
C300 H296 0.929 . S
C300 C302 1.378 . S
C300 C304 1.350 . S
C301 C304 1.463 1_554 S
C301 C306 1.350 . S
C301 N309 1.427 1_554 S
C302 H293 0.930 . S
C302 C300 1.378 . S
C302 C303 1.367 . S
C303 C302 1.367 . S
C303 C305 1.433 . S
C304 C300 1.350 . S
C304 C301 1.463 1_556 S
C304 N308 1.424 1_556 S
C305 H295 0.927 . S
C305 C303 1.433 . S
C305 N308 1.379 1_556 S
C306 H297 0.929 . S
C306 C298 1.378 . S
C306 C301 1.350 . S
C307 H294 0.929 1_554 S
C307 C299 1.433 . S
C307 N309 1.384 1_554 S
N308 C304 1.424 1_554 S
N308 C305 1.379 1_554 S
N309 C301 1.427 1_556 S
N309 C307 1.384 1_556 S
H310 C316 0.930 . S
H311 C320 0.930 . S
H312 C325 0.929 . S
H313 C323 0.929 1_455 S
H314 C318 0.929 . S
H315 C324 0.929 . S
C316 H310 0.930 . S
C316 C317 1.367 . S
C316 C324 1.378 . S
C317 C316 1.367 . S
C317 C325 1.433 . S
C318 H314 0.929 . S
C318 C320 1.378 . S
C318 C322 1.350 . S
C319 C322 1.463 1_556 S
C319 C324 1.350 . S
C319 N327 1.427 1_556 S
C320 H311 0.930 . S
C320 C318 1.378 . S
C320 C321 1.367 . S
C321 C320 1.367 . S
C321 C323 1.433 . S
C322 C318 1.350 . S
C322 C319 1.463 1_554 S
C322 N326 1.427 . S
C323 H313 0.929 1_655 S
C323 C321 1.433 . S
C323 N326 1.384 . S
C324 H315 0.929 . S
C324 C316 1.378 . S
C324 C319 1.350 . S
C325 H312 0.929 . S
C325 C317 1.433 . S
C325 N327 1.384 1_556 S
N326 C322 1.427 . S
N326 C323 1.384 . S
N327 C319 1.427 1_554 S
N327 C325 1.384 1_554 S
H328 C334 0.930 . S
H329 C338 0.930 . S
H330 C343 0.929 . S
H331 C341 0.929 . S
H332 C336 0.929 . S
H333 C342 0.929 . S
C334 H328 0.930 . S
C334 C335 1.367 . S
C334 C342 1.378 . S
C335 C334 1.367 . S
C335 C343 1.433 . S
C336 H332 0.929 . S
C336 C338 1.378 . S
C336 C340 1.350 . S
C337 C340 1.463 . S
C337 C342 1.350 . S
C337 N345 1.427 . S
C338 H329 0.930 . S
C338 C336 1.378 . S
C338 C339 1.367 . S
C339 C338 1.367 . S
C339 C341 1.433 . S
C340 C336 1.350 . S
C340 C337 1.463 . S
C340 N344 1.427 . S
C341 H331 0.929 . S
C341 C339 1.433 . S
C341 N344 1.384 . S
C342 H333 0.929 . S
C342 C334 1.378 . S
C342 C337 1.350 . S
C343 H330 0.929 . S
C343 C335 1.433 . S
C343 N345 1.384 . S
N344 C340 1.427 . S
N344 C341 1.384 . S
N345 C337 1.427 . S
N345 C343 1.384 . S
H346 C352 0.930 . S
H347 C356 0.930 . S
H348 C361 0.929 . S
H349 C359 0.929 . S
H350 C354 0.929 . S
H351 C360 0.929 . S
C352 H346 0.930 . S
C352 C353 1.367 . S
C352 C360 1.378 . S
C353 C352 1.367 . S
C353 C361 1.433 . S
C354 H350 0.929 . S
C354 C356 1.378 . S
C354 C358 1.350 . S
C355 C358 1.463 . S
C355 C360 1.350 . S
C355 N363 1.427 . S
C356 H347 0.930 . S
C356 C354 1.378 . S
C356 C357 1.367 . S
C357 C356 1.367 . S
C357 C359 1.433 . S
C358 C354 1.350 . S
C358 C355 1.463 . S
C358 N362 1.427 . S
C359 H349 0.929 . S
C359 C357 1.433 . S
C359 N362 1.384 . S
C360 H351 0.929 . S
C360 C352 1.378 . S
C360 C355 1.350 . S
C361 H348 0.929 . S
C361 C353 1.433 . S
C361 N363 1.384 . S
N362 C358 1.427 . S
N362 C359 1.384 . S
N363 C355 1.427 . S
N363 C361 1.384 . S
H364 C370 0.930 . S
H365 C374 0.930 . S
H366 C379 0.929 . S
H367 C377 0.929 . S
H368 C372 0.929 . S
H369 C378 0.929 . S
C370 H364 0.930 . S
C370 C371 1.367 . S
C370 C378 1.378 . S
C371 C370 1.367 . S
C371 C379 1.433 . S
C372 H368 0.929 . S
C372 C374 1.378 . S
C372 C376 1.350 . S
C373 C376 1.463 . S
C373 C378 1.350 . S
C373 N381 1.427 . S
C374 H365 0.930 . S
C374 C372 1.378 . S
C374 C375 1.367 . S
C375 C374 1.367 . S
C375 C377 1.433 . S
C376 C372 1.350 . S
C376 C373 1.463 . S
C376 N380 1.427 . S
C377 H367 0.929 . S
C377 C375 1.433 . S
C377 N380 1.384 . S
C378 H369 0.929 . S
C378 C370 1.378 . S
C378 C373 1.350 . S
C379 H366 0.929 . S
C379 C371 1.433 . S
C379 N381 1.384 . S
N380 C376 1.427 . S
N380 C377 1.384 . S
N381 C373 1.427 . S
N381 C379 1.384 . S
H382 C388 0.930 . S
H383 C392 0.930 . S
H384 C397 0.929 . S
H385 C395 0.929 . S
H386 C390 0.929 . S
H387 C396 0.929 . S
C388 H382 0.930 . S
C388 C389 1.367 . S
C388 C396 1.378 . S
C389 C388 1.367 . S
C389 C397 1.433 . S
C390 H386 0.929 . S
C390 C392 1.378 . S
C390 C394 1.350 . S
C391 C394 1.463 . S
C391 C396 1.350 . S
C391 N399 1.427 . S
C392 H383 0.930 . S
C392 C390 1.378 . S
C392 C393 1.367 . S
C393 C392 1.367 . S
C393 C395 1.433 . S
C394 C390 1.350 . S
C394 C391 1.463 . S
C394 N398 1.427 . S
C395 H385 0.929 . S
C395 C393 1.433 . S
C395 N398 1.384 . S
C396 H387 0.929 . S
C396 C388 1.378 . S
C396 C391 1.350 . S
C397 H384 0.929 . S
C397 C389 1.433 . S
C397 N399 1.384 . S
N398 C394 1.427 . S
N398 C395 1.384 . S
N399 C391 1.427 . S
N399 C397 1.384 . S
C119 C39 1.440 . S
C123 C11 1.441 . S
C137 C53 1.513 . S
C141 C25 1.516 . S
C155 C67 1.522 . S
C159 C95 1.519 . S
C173 C81 1.445 . S
C177 C109 1.443 . S
C191 C23 1.099 1_545 S
C195 C5 1.092 . S
C209 C19 1.136 . S
C213 C28 1.154 1_455 S
C227 C51 1.104 1_565 S
C231 C33 1.087 . S
C245 C47 1.124 . S
C249 C0 1.159 1_655 S
C263 C98 1.157 1_545 S
C267 C61 1.123 . S
C281 C75 1.079 . S
C285 C65 1.095 1_455 S
C299 C89 1.129 . S
C303 C70 1.158 1_565 S
C317 C103 1.088 . S
C321 C93 1.105 1_655 S
C335 C9 1.683 . S
C339 C79 1.683 . S
C353 C84 1.668 . S
C357 C14 1.663 . S
C371 C37 1.687 . S
C375 C107 1.687 . S
C389 C42 1.667 . S
C393 C56 1.661 . S
