# Generated by pormake.
# Topology wlj, (5)-cn, num edge types: 1
# Building blocks:
#     Node 0, Type 0, BuildingBlock: BEQFEK_clean_sbu_0, # of connection points: 5
#     Node 1, Type 0, BuildingBlock: BEQFEK_clean_sbu_0, # of connection points: 5
#     Node 2, Type 0, BuildingBlock: BEQFEK_clean_sbu_0, # of connection points: 5
#     Node 3, Type 0, BuildingBlock: BEQFEK_clean_sbu_0, # of connection points: 5
#     Node 4, Type 0, BuildingBlock: BEQFEK_clean_sbu_0, # of connection points: 5
#     Node 5, Type 0, BuildingBlock: BEQFEK_clean_sbu_0, # of connection points: 5
#     Edge 6, Type (0, 0), BuildingBlock: TEMPAE_clean_linker_10, # of connection points: 2
#     Edge 7, Type (0, 0), BuildingBlock: TEMPAE_clean_linker_10, # of connection points: 2
#     Edge 8, Type (0, 0), BuildingBlock: TEMPAE_clean_linker_10, # of connection points: 2
#     Edge 9, Type (0, 0), BuildingBlock: TEMPAE_clean_linker_10, # of connection points: 2
#     Edge 10, Type (0, 0), BuildingBlock: TEMPAE_clean_linker_10, # of connection points: 2
#     Edge 11, Type (0, 0), BuildingBlock: TEMPAE_clean_linker_10, # of connection points: 2
#     Edge 12, Type (0, 0), BuildingBlock: TEMPAE_clean_linker_10, # of connection points: 2
#     Edge 13, Type (0, 0), BuildingBlock: TEMPAE_clean_linker_10, # of connection points: 2
#     Edge 14, Type (0, 0), BuildingBlock: TEMPAE_clean_linker_10, # of connection points: 2
#     Edge 15, Type (0, 0), BuildingBlock: TEMPAE_clean_linker_10, # of connection points: 2
#     Edge 16, Type (0, 0), BuildingBlock: TEMPAE_clean_linker_10, # of connection points: 2
#     Edge 17, Type (0, 0), BuildingBlock: TEMPAE_clean_linker_10, # of connection points: 2
#     Edge 18, Type (0, 0), BuildingBlock: TEMPAE_clean_linker_10, # of connection points: 2
#     Edge 19, Type (0, 0), BuildingBlock: TEMPAE_clean_linker_10, # of connection points: 2
#     Edge 20, Type (0, 0), BuildingBlock: TEMPAE_clean_linker_10, # of connection points: 2
# Relax obj value: 0.046
# Max RMSD: 0.094
# Mean RMSD: 0.094
data_MOF--net-wlj--node1-BEQFEK_clean_sbu_0--edge1-TEMPAE_clean_linker_10
_symmetry_space_group_name_H-M    P1
_symmetry_Int_Tables_number       1
_symmetry_cell_setting            triclinic
loop_
_symmetry_equiv_pos_as_xyz
'x, y, z'
_cell_length_a     24.127783
_cell_length_b     24.099073
_cell_length_c     69.478306
_cell_angle_alpha  90.012328
_cell_angle_beta   89.96214
_cell_angle_gamma 120.01068
loop_
_atom_site_label
_atom_site_type_symbol
_atom_site_fract_x
_atom_site_fract_y
_atom_site_fract_z
_atom_type_partial_charge
Co0 Co 0.48952 0.337 0.21899 0.0
Co1 Co 0.54245 0.26609 0.24432 0.0
C2 C 0.44283 0.19558 0.2145 0.0
O3 O 0.44259 0.2466 0.20989 0.0
O4 O 0.47865 0.19567 0.22797 0.0
C5 C 0.39578 0.37206 0.20719 0.0
O6 O 0.35775 0.33041 0.22004 0.0
C7 C 0.54236 0.17675 0.27339 0.0
C8 C 0.64383 0.22681 0.28227 0.0
C9 C 0.58507 0.17286 0.28608 0.0
N10 N 0.57458 0.23063 0.26289 0.0
N11 N 0.63532 0.25982 0.26811 0.0
C12 C 0.47128 0.13395 0.27229 0.0
H13 H 0.44883 0.15913 0.26522 0.0
H14 H 0.45064 0.11817 0.28689 0.0
H15 H 0.46023 0.09102 0.26359 0.0
C16 C 0.47455 0.3819 0.25758 0.0
N17 N 0.48736 0.3444 0.24616 0.0
N18 N 0.50739 0.31281 0.25689 0.0
C19 C 0.50584 0.32776 0.27555 0.0
C20 C 0.48508 0.37214 0.2766 0.0
C21 C 0.46196 0.43309 0.25033 0.0
H22 H 0.48469 0.45062 0.23608 0.0
H23 H 0.4096 0.41327 0.24899 0.0
H24 H 0.48085 0.4741 0.26049 0.0
O25 O 0.57921 0.37784 0.21091 0.0
O26 O 0.61676 0.32514 0.22772 0.0
H27 H 0.57541 0.31577 0.29125 0.0
H28 H 0.51269 0.31347 0.30616 0.0
C29 C 0.52365 0.29982 0.29204 0.0
H30 H 0.49627 0.247 0.29104 0.0
H31 H 0.67068 0.30319 0.26233 0.0
O32 O 0.45235 0.3822 0.20504 0.0
C33 C 0.62434 0.36759 0.2154 0.0
Co34 Co 0.66611 0.14921 0.8865 0.0
Co35 Co 0.73363 0.27344 0.9119 0.0
C36 C 0.80562 0.24465 0.88182 0.0
O37 O 0.75583 0.19225 0.87725 0.0
O38 O 0.80386 0.28028 0.89509 0.0
C39 C 0.63173 0.05335 0.85741 0.0
O40 O 0.67952 0.1003 0.84806 0.0
C41 C 0.82033 0.35764 0.94205 0.0
C42 C 0.77876 0.41893 0.94865 0.0
C43 C 0.82728 0.40712 0.95401 0.0
N44 N 0.77006 0.3412 0.93036 0.0
N45 N 0.74585 0.37846 0.93424 0.0
C46 C 0.85683 0.32252 0.94261 0.0
H47 H 0.82851 0.2745 0.9359 0.0
H48 H 0.86907 0.31744 0.95766 0.0
H49 H 0.90188 0.34995 0.93432 0.0
C50 C 0.62851 0.08861 0.92488 0.0
N51 N 0.66149 0.14053 0.91364 0.0
N52 N 0.68844 0.19225 0.92447 0.0
C53 C 0.6726 0.17471 0.94303 0.0
C54 C 0.63428 0.10844 0.9439 0.0
C55 C 0.59161 0.02147 0.9174 0.0
H56 H 0.54863 0.01509 0.90963 0.0
H57 H 0.62156 0.01301 0.90702 0.0
H58 H 0.57654 0.98571 0.92917 0.0
O59 O 0.62511 0.19876 0.87811 0.0
O60 O 0.6731 0.28689 0.89595 0.0
H61 H 0.68127 0.26117 0.95465 0.0
H62 H 0.65615 0.19718 0.97193 0.0
C63 C 0.68753 0.2207 0.95933 0.0
H64 H 0.73797 0.23993 0.9638 0.0
H65 H 0.70593 0.37526 0.92735 0.0
O66 O 0.61795 0.06369 0.8742 0.0
C67 C 0.63263 0.253 0.88307 0.0
Co68 Co 0.84999 0.51396 0.55162 0.0
Co69 Co 0.7273 0.46233 0.57751 0.0
C70 C 0.75845 0.56419 0.54803 0.0
O71 O 0.80941 0.56421 0.54324 0.0
O72 O 0.7222 0.52734 0.56127 0.0
C73 C 0.97957 0.60538 0.53975 0.0
O74 O 0.97716 0.64375 0.55273 0.0
C75 C 0.64097 0.4647 0.60718 0.0
C76 C 0.58082 0.36184 0.61406 0.0
C77 C 0.59103 0.422 0.61876 0.0
N78 N 0.6599 0.43137 0.59613 0.0
N79 N 0.62334 0.36984 0.60022 0.0
C80 C 0.66932 0.53584 0.60637 0.0
H81 H 0.71573 0.55855 0.59859 0.0
H82 H 0.67611 0.55588 0.62112 0.0
H83 H 0.63574 0.54702 0.59871 0.0
C84 C 0.91026 0.52607 0.5901 0.0
N85 N 0.85998 0.51427 0.57884 0.0
N86 N 0.80899 0.49561 0.58976 0.0
C87 C 0.82584 0.49706 0.60837 0.0
C88 C 0.8906 0.5163 0.60921 0.0
C89 C 0.97342 0.53759 0.58266 0.0
H90 H 0.9675 0.51492 0.56837 0.0
H91 H 0.00674 0.58989 0.58136 0.0
H92 H 0.99503 0.51788 0.5927 0.0
O93 O 0.79761 0.4251 0.54278 0.0
O94 O 0.71028 0.38746 0.56103 0.0
H95 H 0.74275 0.43031 0.62417 0.0
H96 H 0.80547 0.49087 0.63906 0.0
C97 C 0.78085 0.48135 0.62498 0.0
H98 H 0.75822 0.51138 0.62416 0.0
H99 H 0.62793 0.3333 0.59373 0.0
O100 O 0.93209 0.54938 0.5375 0.0
C101 C 0.74285 0.38012 0.54787 0.0
Co102 Co 0.33533 0.48419 0.79102 0.0
Co103 Co 0.26531 0.53849 0.76576 0.0
C104 C 0.19532 0.4389 0.79612 0.0
O105 O 0.24557 0.43697 0.80049 0.0
O106 O 0.19615 0.47564 0.7828 0.0
C107 C 0.36891 0.42124 0.81987 0.0
O108 O 0.32108 0.42013 0.82926 0.0
C109 C 0.17637 0.53455 0.73619 0.0
C110 C 0.21523 0.63727 0.72983 0.0
C111 C 0.16738 0.57643 0.72473 0.0
N112 N 0.22771 0.56899 0.74744 0.0
N113 N 0.2504 0.63041 0.74368 0.0
C114 C 0.13545 0.46315 0.73702 0.0
H115 H 0.15969 0.44194 0.74527 0.0
H116 H 0.12414 0.44258 0.72231 0.0
H117 H 0.08953 0.4506 0.7442 0.0
C118 C 0.37576 0.46515 0.75256 0.0
N119 N 0.34033 0.48093 0.76385 0.0
N120 N 0.31058 0.50276 0.75306 0.0
C121 C 0.32582 0.50101 0.73445 0.0
C122 C 0.36778 0.47719 0.73349 0.0
C123 C 0.42193 0.44626 0.76027 0.0
H124 H 0.45113 0.47999 0.77183 0.0
H125 H 0.39478 0.39767 0.76668 0.0
H126 H 0.45448 0.44648 0.74896 0.0
O127 O 0.37584 0.57455 0.79938 0.0
O128 O 0.32642 0.61323 0.78157 0.0
H129 H 0.31257 0.5721 0.72002 0.0
H130 H 0.31905 0.51658 0.70386 0.0
C131 C 0.30046 0.52163 0.71793 0.0
H132 H 0.24778 0.49121 0.71752 0.0
H133 H 0.29039 0.66765 0.75041 0.0
O134 O 0.38307 0.44615 0.80319 0.0
C135 C 0.36751 0.6207 0.79436 0.0
Co136 Co 0.51572 0.85117 0.45765 0.0
Co137 Co 0.4601 0.72487 0.43333 0.0
C138 C 0.56338 0.75907 0.46298 0.0
O139 O 0.5649 0.81116 0.4673 0.0
O140 O 0.52577 0.72215 0.44998 0.0
C141 C 0.60763 0.97579 0.47287 0.0
O142 O 0.6514 0.96478 0.46552 0.0
C143 C 0.46662 0.64459 0.40259 0.0
C144 C 0.36552 0.56827 0.39986 0.0
C145 C 0.42607 0.58949 0.39239 0.0
N146 N 0.43151 0.65585 0.41537 0.0
N147 N 0.37114 0.6099 0.41371 0.0
C148 C 0.53801 0.68349 0.40118 0.0
H149 H 0.55745 0.72322 0.41179 0.0
H150 H 0.5525 0.70366 0.3865 0.0
H151 H 0.55871 0.65212 0.40379 0.0
C152 C 0.5339 0.90848 0.41875 0.0
N153 N 0.5178 0.85807 0.43045 0.0
N154 N 0.49272 0.80512 0.42012 0.0
C155 C 0.49175 0.82048 0.40147 0.0
C156 C 0.51825 0.88636 0.4 0.0
C157 C 0.56246 0.97626 0.42555 0.0
H158 H 0.53087 0.9793 0.4366 0.0
H159 H 0.60942 0.99118 0.43232 0.0
H160 H 0.56985 0.00977 0.4136 0.0
O161 O 0.42586 0.80047 0.46606 0.0
O162 O 0.38591 0.70891 0.44981 0.0
H163 H 0.4158 0.73018 0.39115 0.0
H164 H 0.4454 0.79416 0.37368 0.0
C165 C 0.45922 0.77295 0.38562 0.0
H166 H 0.49249 0.75803 0.37979 0.0
H167 H 0.33372 0.60703 0.422 0.0
O168 O 0.54878 0.93501 0.47055 0.0
C169 C 0.37985 0.74487 0.46206 0.0
Co170 Co 0.15201 0.66468 0.12515 0.0
Co171 Co 0.27709 0.73191 0.1002 0.0
C172 C 0.24679 0.80508 0.12926 0.0
O173 O 0.19478 0.75503 0.13395 0.0
O174 O 0.28277 0.80317 0.11615 0.0
C175 C 0.0263 0.63356 0.13925 0.0
O176 O 0.03363 0.68307 0.12927 0.0
C177 C 0.3618 0.81716 0.06979 0.0
C178 C 0.42437 0.77634 0.06428 0.0
C179 C 0.41208 0.824 0.05822 0.0
N180 N 0.34541 0.76776 0.08189 0.0
N181 N 0.38343 0.74403 0.07866 0.0
C182 C 0.32599 0.85288 0.06855 0.0
H183 H 0.27802 0.82472 0.07528 0.0
H184 H 0.32081 0.86348 0.05332 0.0
H185 H 0.35285 0.89882 0.07647 0.0
C186 C 0.09279 0.62149 0.08651 0.0
N187 N 0.14354 0.65695 0.09798 0.0
N188 N 0.19598 0.68451 0.08742 0.0
C189 C 0.1799 0.66751 0.06884 0.0
C190 C 0.11411 0.62737 0.06766 0.0
C191 C 0.02543 0.58185 0.09359 0.0
H192 H 0.02424 0.55309 0.10621 0.0
H193 H 0.00762 0.61417 0.09817 0.0
H194 H 0.99275 0.54961 0.08232 0.0
O195 O 0.20096 0.62415 0.13381 0.0
O196 O 0.29188 0.67395 0.11723 0.0
H197 H 0.2674 0.67763 0.0577 0.0
H198 H 0.2044 0.6522 0.04009 0.0
C199 C 0.2269 0.68341 0.05279 0.0
H200 H 0.24572 0.73388 0.04837 0.0
H201 H 0.3805 0.70484 0.08598 0.0
O202 O 0.0693 0.61791 0.13888 0.0
C203 C 0.25608 0.63282 0.12971 0.0
C204 C 0.36786 0.13632 0.18729 0.0
C205 C 0.40485 0.1365 0.20292 0.0
C206 C 0.33711 0.08304 0.175 0.0
C207 C 0.34356 0.02862 0.17839 0.0
C208 C 0.37889 0.02758 0.19452 0.0
C209 C 0.40897 0.0814 0.2066 0.0
C210 C 0.29941 0.08579 0.15806 0.0
C211 C 0.38673 0.97037 0.19867 0.0
C212 C 0.23084 0.86725 0.15554 0.0
C213 C 0.26848 0.86502 0.14045 0.0
C214 C 0.2538 0.921 0.16764 0.0
C215 C 0.31594 0.97383 0.16463 0.0
C216 C 0.35318 0.97296 0.14899 0.0
C217 C 0.32899 0.9187 0.13708 0.0
C218 C 0.2124 0.9203 0.18406 0.0
C219 C 0.41962 0.02846 0.14525 0.0
H220 H 0.3641 0.17847 0.18432 0.0
H221 H 0.43719 0.08082 0.21865 0.0
H222 H 0.32307 0.08488 0.14446 0.0
H223 H 0.25062 0.04319 0.158 0.0
H224 H 0.29522 0.12964 0.15819 0.0
H225 H 0.41316 0.97588 0.21228 0.0
H226 H 0.33919 0.92625 0.19964 0.0
H227 H 0.41312 0.96347 0.18669 0.0
H228 H 0.18391 0.82624 0.15826 0.0
H229 H 0.35844 0.9177 0.12545 0.0
H230 H 0.20852 0.96426 0.18377 0.0
H231 H 0.2348 0.91997 0.19796 0.0
H232 H 0.16346 0.87782 0.18356 0.0
H233 H 0.4184 0.07373 0.14402 0.0
H234 H 0.44103 0.02184 0.1319 0.0
H235 H 0.4513 0.03394 0.15755 0.0
C236 C 0.08187 0.40702 0.8042 0.0
C237 C 0.13633 0.4018 0.8078 0.0
C238 C 0.02815 0.37759 0.81633 0.0
C239 C 0.02864 0.34182 0.83243 0.0
C240 C 0.08246 0.33444 0.83578 0.0
C241 C 0.13564 0.36451 0.82344 0.0
C242 C 0.97157 0.3864 0.81222 0.0
C243 C 0.08464 0.29631 0.85271 0.0
C244 C 0.91893 0.32726 0.87381 0.0
C245 C 0.86519 0.26681 0.87041 0.0
C246 C 0.97309 0.35149 0.86186 0.0
C247 C 0.97374 0.31437 0.84614 0.0
C248 C 0.92071 0.25239 0.84305 0.0
C249 C 0.86712 0.22938 0.85519 0.0
C250 C 0.0288 0.41776 0.86569 0.0
C251 C 0.91973 0.21115 0.82654 0.0
H252 H 0.0817 0.4355 0.79216 0.0
H253 H 0.17729 0.35993 0.82635 0.0
H254 H 0.92716 0.33912 0.81116 0.0
H255 H 0.96497 0.41282 0.82425 0.0
H256 H 0.97754 0.41328 0.79866 0.0
H257 H 0.12833 0.29191 0.85266 0.0
H258 H 0.08347 0.31977 0.86633 0.0
H259 H 0.04198 0.24754 0.85266 0.0
H260 H 0.91814 0.35655 0.88554 0.0
H261 H 0.82606 0.18251 0.85245 0.0
H262 H 0.0347 0.44975 0.85342 0.0
H263 H 0.07378 0.4161 0.86693 0.0
H264 H 0.02224 0.43914 0.87905 0.0
H265 H 0.92031 0.23429 0.81268 0.0
H266 H 0.87677 0.16249 0.82685 0.0
H267 H 0.96313 0.20637 0.82689 0.0
C268 C 0.59598 0.67811 0.47117 0.0
C269 C 0.60198 0.73839 0.47438 0.0
C270 C 0.62651 0.65477 0.48318 0.0
C271 C 0.66429 0.69266 0.49877 0.0
C272 C 0.67278 0.7546 0.50163 0.0
C273 C 0.64147 0.77669 0.48943 0.0
C274 C 0.61639 0.58851 0.4796 0.0
C275 C 0.71318 0.79668 0.51797 0.0
C276 C 0.679 0.59941 0.54061 0.0
C277 C 0.73803 0.60339 0.53681 0.0
C278 C 0.65547 0.63001 0.5287 0.0
C279 C 0.69189 0.66576 0.51261 0.0
C280 C 0.75276 0.67243 0.50917 0.0
C281 C 0.77507 0.64114 0.52129 0.0
C282 C 0.59039 0.6219 0.53289 0.0
C283 C 0.79327 0.7106 0.49228 0.0
H284 H 0.56585 0.64815 0.45957 0.0
H285 H 0.64674 0.82345 0.49202 0.0
H286 H 0.66316 0.59043 0.47835 0.0
H287 H 0.59062 0.55693 0.49197 0.0
H288 H 0.58834 0.56647 0.4663 0.0
H289 H 0.7192 0.84546 0.51731 0.0
H290 H 0.6905 0.77448 0.53191 0.0
H291 H 0.76119 0.80106 0.51776 0.0
H292 H 0.65005 0.57067 0.55259 0.0
H293 H 0.82088 0.64485 0.51825 0.0
H294 H 0.55699 0.59491 0.521 0.0
H295 H 0.59353 0.66936 0.53372 0.0
H296 H 0.5698 0.59582 0.54659 0.0
H297 H 0.76935 0.68648 0.47866 0.0
H298 H 0.8417 0.71583 0.49256 0.0
H299 H 0.79849 0.75902 0.4921 0.0
C300 C 0.34048 0.62277 0.14739 0.0
C301 C 0.27843 0.59413 0.13987 0.0
C302 C 0.36014 0.58705 0.15852 0.0
C303 C 0.31738 0.52078 0.16149 0.0
C304 C 0.25539 0.49133 0.1533 0.0
C305 C 0.23622 0.52871 0.1429 0.0
C306 C 0.42589 0.62052 0.16752 0.0
C307 C 0.20929 0.42039 0.15553 0.0
C308 C 0.39013 0.41917 0.17599 0.0
C309 C 0.37419 0.40858 0.19554 0.0
C310 C 0.3709 0.45464 0.16463 0.0
C311 C 0.33721 0.48223 0.17328 0.0
C312 C 0.32187 0.47241 0.19314 0.0
C313 C 0.33953 0.43453 0.20398 0.0
C314 C 0.38601 0.46198 0.14337 0.0
C315 C 0.28779 0.50274 0.20299 0.0
H316 H 0.37273 0.6736 0.14518 0.0
H317 H 0.18829 0.50667 0.13696 0.0
H318 H 0.42158 0.61462 0.18339 0.0
H319 H 0.45409 0.59854 0.16242 0.0
H320 H 0.45281 0.67253 0.16411 0.0
H321 H 0.16446 0.40429 0.14723 0.0
H322 H 0.23216 0.39275 0.15062 0.0
H323 H 0.19669 0.4086 0.17092 0.0
H324 H 0.41672 0.39865 0.1695 0.0
H325 H 0.32797 0.42679 0.21918 0.0
H326 H 0.41728 0.51331 0.13974 0.0
H327 H 0.34124 0.44432 0.13494 0.0
H328 H 0.4103 0.43534 0.13877 0.0
H329 H 0.31484 0.55542 0.20078 0.0
H330 H 0.28208 0.49282 0.2187 0.0
H331 H 0.23969 0.48458 0.19657 0.0
C332 C 0.45467 0.69444 0.81682 0.0
C333 C 0.40642 0.68424 0.80362 0.0
C334 C 0.49191 0.75419 0.82571 0.0
C335 C 0.48053 0.80501 0.82138 0.0
C336 C 0.4319 0.79513 0.80812 0.0
C337 C 0.39554 0.73494 0.79936 0.0
C338 C 0.54356 0.76299 0.83972 0.0
C339 C 0.41821 0.84815 0.80321 0.0
C340 C 0.5373 0.94208 0.85714 0.0
C341 C 0.59352 0.98953 0.84834 0.0
C342 C 0.49996 0.88188 0.8485 0.0
C343 C 0.51961 0.86859 0.83072 0.0
C344 C 0.57662 0.91601 0.82186 0.0
C345 C 0.61276 0.97601 0.83074 0.0
C346 C 0.43926 0.83261 0.85833 0.0
C347 C 0.59945 0.90337 0.80299 0.0
H348 H 0.46362 0.65571 0.82021 0.0
H349 H 0.35837 0.72761 0.78922 0.0
H350 H 0.5907 0.80214 0.83471 0.0
H351 H 0.53431 0.77722 0.85402 0.0
H352 H 0.54654 0.71873 0.84146 0.0
H353 H 0.37848 0.83259 0.79269 0.0
H354 H 0.40555 0.86508 0.81645 0.0
H355 H 0.46167 0.88962 0.79708 0.0
H356 H 0.52203 0.95216 0.87073 0.0
H357 H 0.65626 0.01228 0.82388 0.0
H358 H 0.44173 0.78869 0.86134 0.0
H359 H 0.39767 0.81864 0.8487 0.0
H360 H 0.43059 0.85053 0.87209 0.0
H361 H 0.60628 0.86133 0.80444 0.0
H362 H 0.64521 0.94507 0.7981 0.0
H363 H 0.56276 0.89167 0.79169 0.0
C364 C 0.03195 0.60997 0.50852 0.0
C365 C 0.03752 0.626 0.52807 0.0
C366 C 0.08652 0.62887 0.49711 0.0
C367 C 0.14787 0.66231 0.5057 0.0
C368 C 0.15357 0.67752 0.52558 0.0
C369 C 0.09821 0.66022 0.53646 0.0
C370 C 0.07855 0.61387 0.47585 0.0
C371 C 0.21804 0.71131 0.53537 0.0
C372 C 0.28514 0.65976 0.47959 0.0
C373 C 0.31858 0.72207 0.47217 0.0
C374 C 0.22969 0.63973 0.49072 0.0
C375 C 0.20615 0.68238 0.49382 0.0
C376 C 0.23869 0.74461 0.48573 0.0
C377 C 0.29527 0.76412 0.47531 0.0
C378 C 0.19743 0.57373 0.49962 0.0
C379 C 0.21388 0.79066 0.48811 0.0
H380 H 0.98481 0.58374 0.50206 0.0
H381 H 0.10223 0.67186 0.55166 0.0
H382 H 0.10536 0.65881 0.46744 0.0
H383 H 0.0988 0.58287 0.47212 0.0
H384 H 0.02757 0.58932 0.47132 0.0
H385 H 0.21393 0.71653 0.55112 0.0
H386 H 0.24359 0.68432 0.53298 0.0
H387 H 0.24794 0.75967 0.52907 0.0
H388 H 0.30376 0.6276 0.47731 0.0
H389 H 0.32116 0.81225 0.46945 0.0
H390 H 0.14716 0.54564 0.49462 0.0
H391 H 0.19617 0.57777 0.51551 0.0
H392 H 0.22232 0.54678 0.49604 0.0
H393 H 0.16333 0.76777 0.48328 0.0
H394 H 0.2425 0.83564 0.47982 0.0
H395 H 0.21493 0.80312 0.50352 0.0
C396 C 0.6038 0.33847 0.87793 0.0
C397 C 0.59361 0.27714 0.87364 0.0
C398 C 0.56736 0.36193 0.86906 0.0
C399 C 0.51936 0.32307 0.85564 0.0
C400 C 0.5087 0.26114 0.85126 0.0
C401 C 0.54602 0.23897 0.86027 0.0
C402 C 0.58029 0.42837 0.87404 0.0
C403 C 0.45772 0.21819 0.83709 0.0
C404 C 0.38695 0.36132 0.84624 0.0
C405 C 0.40671 0.39499 0.82879 0.0
C406 C 0.42281 0.33707 0.85503 0.0
C407 C 0.4801 0.3472 0.84625 0.0
C408 C 0.50019 0.38089 0.8286 0.0
C409 C 0.4631 0.40414 0.82003 0.0
C410 C 0.39954 0.30083 0.87376 0.0
C411 C 0.56119 0.39293 0.81885 0.0
H412 H 0.64046 0.36842 0.8882 0.0
H413 H 0.53764 0.19149 0.85686 0.0
H414 H 0.59303 0.45819 0.86084 0.0
H415 H 0.53647 0.42576 0.88008 0.0
H416 H 0.61971 0.45274 0.88465 0.0
H417 H 0.45536 0.17124 0.83529 0.0
H418 H 0.41023 0.20947 0.84198 0.0
H419 H 0.46717 0.242 0.82284 0.0
H420 H 0.34329 0.35376 0.85306 0.0
H421 H 0.47877 0.43017 0.80656 0.0
H422 H 0.43566 0.32583 0.88521 0.0
H423 H 0.39341 0.25224 0.87222 0.0
H424 H 0.35332 0.29592 0.87852 0.0
H425 H 0.60256 0.42085 0.82854 0.0
H426 H 0.56989 0.41957 0.8051 0.0
H427 H 0.55921 0.34676 0.81586 0.0
C428 C 0.73431 0.27385 0.54447 0.0
C429 C 0.71714 0.31823 0.53814 0.0
C430 C 0.71524 0.21697 0.53421 0.0
C431 C 0.67889 0.20502 0.51714 0.0
C432 C 0.66084 0.2497 0.51087 0.0
C433 C 0.68025 0.30597 0.52151 0.0
C434 C 0.73492 0.17025 0.54143 0.0
C435 C 0.62245 0.23881 0.4927 0.0
C436 C 0.685 0.09023 0.48083 0.0
C437 C 0.62609 0.0346 0.48405 0.0
C438 C 0.70244 0.14642 0.49132 0.0
C439 C 0.66061 0.14625 0.50568 0.0
C440 C 0.60139 0.0899 0.50912 0.0
C441 C 0.5845 0.03497 0.49809 0.0
C442 C 0.76541 0.20605 0.48698 0.0
C443 C 0.55617 0.08746 0.52457 0.0
H444 H 0.76354 0.28425 0.55729 0.0
H445 H 0.66788 0.34114 0.51661 0.0
H446 H 0.69213 0.12204 0.54323 0.0
H447 H 0.76651 0.16568 0.53072 0.0
H448 H 0.76072 0.18538 0.55539 0.0
H449 H 0.61137 0.27768 0.49002 0.0
H450 H 0.64941 0.23579 0.48018 0.0
H451 H 0.57681 0.19257 0.49357 0.0
H452 H 0.71699 0.09014 0.46988 0.0
H453 H 0.53911 0.99179 0.50073 0.0
H454 H 0.79621 0.22127 0.49998 0.0
H455 H 0.75703 0.24588 0.48305 0.0
H456 H 0.7917 0.19869 0.47504 0.0
H457 H 0.58069 0.09951 0.53874 0.0
H458 H 0.51237 0.03956 0.52563 0.0
H459 H 0.54169 0.12365 0.5216 0.0
C460 C 0.90788 0.57644 0.14324 0.0
C461 C 0.96843 0.59555 0.15087 0.0
C462 C 0.85235 0.53754 0.15397 0.0
C463 C 0.85802 0.51979 0.17301 0.0
C464 C 0.91938 0.5404 0.18088 0.0
C465 C 0.97389 0.57697 0.16954 0.0
C466 C 0.7877 0.51475 0.14486 0.0
C467 C 0.9275 0.52461 0.20135 0.0
C468 C 0.71446 0.47293 0.20529 0.0
C469 C 0.68656 0.4062 0.2059 0.0
C470 C 0.77157 0.51067 0.19518 0.0
C471 C 0.79974 0.48053 0.18478 0.0
C472 C 0.77159 0.41293 0.18539 0.0
C473 C 0.71577 0.37655 0.19629 0.0
C474 C 0.80139 0.58268 0.19549 0.0
C475 C 0.79909 0.37896 0.174 0.0
H476 H 0.90398 0.59039 0.12869 0.0
H477 H 0.02101 0.59225 0.17541 0.0
H478 H 0.7588 0.46168 0.14554 0.0
H479 H 0.76122 0.53388 0.15293 0.0
H480 H 0.7916 0.5299 0.12958 0.0
H481 H 0.97865 0.54618 0.20548 0.0
H482 H 0.90395 0.54226 0.2114 0.0
H483 H 0.90394 0.47195 0.20325 0.0
H484 H 0.69158 0.49557 0.21281 0.0
H485 H 0.69341 0.32475 0.19663 0.0
H486 H 0.80028 0.60042 0.18085 0.0
H487 H 0.85235 0.60535 0.19989 0.0
H488 H 0.7762 0.59867 0.20549 0.0
H489 H 0.79971 0.38998 0.15847 0.0
H490 H 0.77122 0.32614 0.17594 0.0
H491 H 0.8493 0.39628 0.17838 0.0
C492 C 0.49302 0.95962 0.38145 0.0
C493 C 0.52401 0.92376 0.38251 0.0
C494 C 0.49968 0.99686 0.36515 0.0
C495 C 0.53881 0.99863 0.34967 0.0
C496 C 0.56915 0.96128 0.35058 0.0
C497 C 0.56088 0.92378 0.36696 0.0
C498 C 0.46577 0.03519 0.36462 0.0
C499 C 0.61187 0.96247 0.33451 0.0
C500 C 0.52342 0.06275 0.30106 0.0
C501 C 0.57269 0.1269 0.30204 0.0
C502 C 0.5115 0.02042 0.31649 0.0
C503 C 0.55081 0.04231 0.33307 0.0
C504 C 0.60168 0.10645 0.33391 0.0
C505 C 0.61182 0.14788 0.31845 0.0
C506 C 0.45666 0.95236 0.31509 0.0
C507 C 0.64526 0.13152 0.35122 0.0
H508 H 0.46373 0.95861 0.39344 0.0
H509 H 0.58454 0.89566 0.36786 0.0
H510 H 0.50148 0.08712 0.3643 0.0
H511 H 0.43661 0.02401 0.35133 0.0
H512 H 0.43405 0.02549 0.37728 0.0
H513 H 0.62965 0.92856 0.33706 0.0
H514 H 0.58574 0.95022 0.32062 0.0
H515 H 0.65365 0.01151 0.33304 0.0
H516 H 0.4946 0.04507 0.2882 0.0
H517 H 0.65025 0.19723 0.31934 0.0
H518 H 0.42303 0.942 0.32725 0.0
H519 H 0.47491 0.9184 0.31621 0.0
H520 H 0.42979 0.94311 0.30138 0.0
H521 H 0.61706 0.12831 0.36421 0.0
H522 H 0.68382 0.18212 0.34937 0.0
H523 H 0.66761 0.10168 0.35391 0.0
C524 C 0.85161 0.45846 0.98639 0.0
C525 C 0.87217 0.43866 0.97025 0.0
C526 C 0.89275 0.48912 1.00195 0.0
C527 C 0.95629 0.50064 1.00135 0.0
C528 C 0.97761 0.48124 0.98505 0.0
C529 C 0.93537 0.45077 0.96963 0.0
C530 C 0.86815 0.50912 0.01905 0.0
C531 C 0.04513 0.49302 0.98385 0.0
C532 C 0.0756 0.6309 0.03465 0.0
C533 C 0.07609 0.59481 0.05035 0.0
C534 C 0.03782 0.60082 0.01839 0.0
C535 C 1.00014 0.53307 0.01785 0.0
C536 C 0.00211 0.49645 0.0335 0.0
C537 C 0.04023 0.52785 0.04957 0.0
C538 C 0.03698 0.64156 1.00201 0.0
C539 C 0.96302 0.42418 0.03343 0.0
H540 H 0.80287 0.4494 0.98696 0.0
H541 H 0.95241 0.43775 0.95697 0.0
H542 H 0.87188 0.48539 0.03228 0.0
H543 H 0.89793 0.56159 0.02131 0.0
H544 H 0.81752 0.49683 0.01724 0.0
H545 H 0.05394 0.47398 0.97033 0.0
H546 H 0.07973 0.54518 0.98466 0.0
H547 H 0.05491 0.4702 0.99625 0.0
H548 H 0.10381 0.68275 0.03529 0.0
H549 H 0.04175 0.5001 0.06164 0.0
H550 H 0.98822 0.63484 1.00047 0.0
H551 H 0.04881 0.62639 0.98827 0.0
H552 H 0.07134 0.69334 1.00426 0.0
H553 H 0.9113 0.40864 0.03293 0.0
H554 H 0.97206 0.40272 0.04635 0.0
H555 H 0.97403 0.4049 0.02039 0.0
C556 C 0.40148 0.4142 0.71289 0.0
C557 C 0.40096 0.47119 0.71633 0.0
C558 C 0.4336 0.40809 0.69689 0.0
C559 C 0.4646 0.45975 0.68377 0.0
C560 C 0.46379 0.51729 0.68713 0.0
C561 C 0.43292 0.52268 0.70356 0.0
C562 C 0.43466 0.3465 0.69408 0.0
C563 C 0.49528 0.57302 0.67332 0.0
C564 C 0.59442 0.46517 0.65145 0.0
C565 C 0.55993 0.43627 0.63468 0.0
C566 C 0.56407 0.47345 0.66754 0.0
C567 C 0.49803 0.45352 0.66659 0.0
C568 C 0.46356 0.42597 0.64939 0.0
C569 C 0.49481 0.4167 0.63371 0.0
C570 C 0.60214 0.50156 0.68574 0.0
C571 C 0.39356 0.40558 0.64765 0.0
H572 H 0.37675 0.37438 0.72277 0.0
H573 H 0.43385 0.56734 0.70645 0.0
H574 H 0.41082 0.32359 0.68034 0.0
H575 H 0.48485 0.35679 0.69313 0.0
H576 H 0.41028 0.31186 0.70597 0.0
H577 H 0.48815 0.61342 0.67762 0.0
H578 H 0.5474 0.5907 0.67255 0.0
H579 H 0.47559 0.55723 0.65863 0.0
H580 H 0.64469 0.47929 0.65217 0.0
H581 H 0.4684 0.39405 0.62068 0.0
H582 H 0.5812 0.46618 0.69761 0.0
H583 H 0.5997 0.54452 0.69014 0.0
H584 H 0.65322 0.51533 0.68402 0.0
H585 H 0.36511 0.36616 0.65792 0.0
H586 H 0.37484 0.38892 0.6329 0.0
H587 H 0.38604 0.44608 0.65145 0.0
C588 C 0.08056 0.58605 0.70857 0.0
C589 C 0.12205 0.56129 0.70872 0.0
C590 C 0.0403 0.57585 0.69276 0.0
C591 C 0.0433 0.5418 0.67653 0.0
C592 C 0.08531 0.51669 0.67669 0.0
C593 C 0.12391 0.52639 0.69287 0.0
C594 C 0.99527 0.60227 0.69331 0.0
C595 C 0.09108 0.48152 0.65951 0.0
C596 C 0.90692 0.47362 0.64031 0.0
C597 C 0.9297 0.52216 0.62638 0.0
C598 C 0.94301 0.47962 0.65683 0.0
C599 C 0.00425 0.53456 0.65913 0.0
C600 C 0.02823 0.58287 0.64481 0.0
C601 C 0.99036 0.57634 0.6287 0.0
C602 C 0.91544 0.42747 0.67189 0.0
C603 C 0.09384 0.64153 0.64651 0.0
H604 H 0.07972 0.61347 0.72083 0.0
H605 H 0.15736 0.50873 0.69287 0.0
H606 H 0.00882 0.63938 0.68201 0.0
H607 H 0.94567 0.56364 0.69019 0.0
H608 H 0.99577 0.62392 0.70747 0.0
H609 H 0.12479 0.46357 0.66213 0.0
H610 H 0.04359 0.4403 0.65574 0.0
H611 H 0.10811 0.51395 0.64685 0.0
H612 H 0.86076 0.43084 0.63828 0.0
H613 H 0.00803 0.61396 0.61794 0.0
H614 H 0.91366 0.44806 0.68601 0.0
H615 H 0.94666 0.40624 0.67363 0.0
H616 H 0.86643 0.38865 0.66816 0.0
H617 H 0.09595 0.66941 0.65947 0.0
H618 H 0.10648 0.67327 0.63372 0.0
H619 H 0.13054 0.62702 0.64831 0.0
C620 C 0.52883 0.43266 0.30743 0.0
C621 C 0.47939 0.4053 0.29384 0.0
C622 C 0.52335 0.46344 0.32389 0.0
C623 C 0.4678 0.46843 0.32652 0.0
C624 C 0.41841 0.44221 0.31257 0.0
C625 C 0.42462 0.41052 0.29648 0.0
C626 C 0.57677 0.49026 0.33851 0.0
C627 C 0.3589 0.44745 0.31467 0.0
C628 C 0.41891 0.49385 0.37629 0.0
C629 C 0.44134 0.5598 0.37619 0.0
C630 C 0.42903 0.46382 0.36045 0.0
C631 C 0.46085 0.50049 0.34393 0.0
C632 C 0.48375 0.56729 0.34382 0.0
C633 C 0.47394 0.59622 0.36001 0.0
C634 C 0.40477 0.3927 0.36125 0.0
C635 C 0.51663 0.6078 0.32635 0.0
H636 H 0.57198 0.43017 0.30516 0.0
H637 H 0.38635 0.38937 0.28597 0.0
H638 H 0.59659 0.54266 0.34004 0.0
H639 H 0.5579 0.46837 0.35281 0.0
H640 H 0.61625 0.4814 0.3345 0.0
H641 H 0.32616 0.42675 0.30216 0.0
H642 H 0.33261 0.42218 0.32789 0.0
H643 H 0.37218 0.49846 0.31621 0.0
H644 H 0.39332 0.46574 0.38879 0.0
H645 H 0.4894 0.64687 0.3597 0.0
H646 H 0.44418 0.38308 0.35792 0.0
H647 H 0.3671 0.36767 0.35021 0.0
H648 H 0.38453 0.37188 0.37557 0.0
H649 H 0.55808 0.60241 0.3222 0.0
H650 H 0.53373 0.65942 0.32884 0.0
H651 H 0.48302 0.59121 0.31399 0.0
C652 C 0.53512 0.0284 0.96097 0.0
C653 C 0.60163 0.06879 0.96098 0.0
C654 C 0.50347 0.99026 0.97704 0.0
C655 C 0.53938 0.99238 0.99342 0.0
C656 C 0.60664 0.03368 0.99353 0.0
C657 C 0.63695 0.07168 0.9773 0.0
C658 C 0.43168 0.94737 0.97642 0.0
C659 C 0.64669 0.03689 0.01064 0.0
C660 C 0.45337 0.93012 0.0413 0.0
C661 C 0.44413 0.86785 0.04173 0.0
C662 C 0.48392 0.97112 0.02562 0.0
C663 C 0.5068 0.94974 0.01017 0.0
C664 C 0.49854 0.88735 0.01067 0.0
C665 C 0.46734 0.84726 0.02642 0.0
C666 C 0.4919 0.03738 0.02561 0.0
C667 C 0.52261 0.86284 0.99456 0.0
H668 H 0.50783 0.02697 0.94841 0.0
H669 H 0.68845 0.10302 0.97724 0.0
H670 H 0.41912 0.89654 0.97783 0.0
H671 H 0.40937 0.95828 0.98874 0.0
H672 H 0.41059 0.95289 0.96285 0.0
H673 H 0.69817 0.07263 0.00862 0.0
H674 H 0.62933 0.04948 0.0238 0.0
H675 H 0.64191 0.98921 0.01313 0.0
H676 H 0.43798 0.94753 0.05335 0.0
H677 H 0.46066 0.79931 0.02664 0.0
H678 H 0.46944 0.04407 0.01255 0.0
H679 H 0.54349 0.074 0.02514 0.0
H680 H 0.47017 0.04624 0.0385 0.0
H681 H 0.49933 0.86312 0.98082 0.0
H682 H 0.51312 0.81341 0.99726 0.0
H683 H 0.5749 0.89489 0.99266 0.0
loop_
_geom_bond_atom_site_label_1
_geom_bond_atom_site_label_2
_geom_bond_distance
_geom_bond_site_symmetry_2
_ccdc_geom_bond_type
Co0 O3 1.970 . S
Co0 N17 1.989 . S
Co0 O25 1.967 . S
Co0 O32 1.920 . S
Co1 O4 1.966 . S
Co1 N10 2.022 . S
Co1 N18 1.993 . S
Co1 O26 1.941 . S
C2 O3 1.258 . S
C2 O4 1.263 . S
O3 Co0 1.970 . S
O3 C2 1.258 . S
O4 Co1 1.966 . S
O4 C2 1.263 . S
C5 O6 1.235 . S
C5 O32 1.289 . S
O6 C5 1.235 . S
C7 C9 1.400 . S
C7 N10 1.351 . S
C7 C12 1.501 . S
C8 C9 1.387 . S
C8 N11 1.341 . S
C9 C7 1.400 . S
C9 C8 1.387 . S
N10 Co1 2.022 . S
N10 C7 1.351 . S
N10 N11 1.365 . S
N11 C8 1.341 . S
N11 N10 1.365 . S
N11 H31 0.862 . S
C12 C7 1.501 . S
C12 H13 0.961 . S
C12 H14 0.961 . S
C12 H15 0.960 . S
H13 C12 0.961 . S
H14 C12 0.961 . S
H15 C12 0.960 . S
C16 N17 1.342 . S
C16 C20 1.401 . S
C16 C21 1.499 . S
N17 Co0 1.989 . S
N17 C16 1.342 . S
N17 N18 1.388 . S
N18 Co1 1.993 . S
N18 N17 1.388 . S
N18 C19 1.346 . S
C19 N18 1.346 . S
C19 C20 1.396 . S
C19 C29 1.510 . S
C20 C16 1.401 . S
C20 C19 1.396 . S
C21 C16 1.499 . S
C21 H22 0.959 . S
C21 H23 0.960 . S
C21 H24 0.961 . S
H22 C21 0.959 . S
H23 C21 0.960 . S
H24 C21 0.961 . S
O25 Co0 1.967 . S
O25 C33 1.258 . S
O26 Co1 1.941 . S
O26 C33 1.266 . S
H27 C29 0.959 . S
H28 C29 0.961 . S
C29 C19 1.510 . S
C29 H27 0.959 . S
C29 H28 0.961 . S
C29 H30 0.960 . S
H30 C29 0.960 . S
H31 N11 0.862 . S
O32 Co0 1.920 . S
O32 C5 1.289 . S
C33 O25 1.258 . S
C33 O26 1.266 . S
Co34 O37 1.970 . S
Co34 N51 1.989 . S
Co34 O59 1.967 . S
Co34 O66 1.920 . S
Co35 O38 1.966 . S
Co35 N44 2.022 . S
Co35 N52 1.993 . S
Co35 O60 1.941 . S
C36 O37 1.258 . S
C36 O38 1.263 . S
O37 Co34 1.970 . S
O37 C36 1.258 . S
O38 Co35 1.966 . S
O38 C36 1.263 . S
C39 O40 1.235 1_545 S
C39 O66 1.289 . S
O40 C39 1.235 1_565 S
C41 C43 1.400 . S
C41 N44 1.351 . S
C41 C46 1.501 . S
C42 C43 1.387 . S
C42 N45 1.341 . S
C43 C41 1.400 . S
C43 C42 1.387 . S
N44 Co35 2.022 . S
N44 C41 1.351 . S
N44 N45 1.365 . S
N45 C42 1.341 . S
N45 N44 1.365 . S
N45 H65 0.862 . S
C46 C41 1.501 . S
C46 H47 0.961 . S
C46 H48 0.961 . S
C46 H49 0.960 . S
H47 C46 0.961 . S
H48 C46 0.961 . S
H49 C46 0.960 . S
C50 N51 1.342 . S
C50 C54 1.401 . S
C50 C55 1.499 1_545 S
N51 Co34 1.989 . S
N51 C50 1.342 . S
N51 N52 1.388 . S
N52 Co35 1.993 . S
N52 N51 1.388 . S
N52 C53 1.346 . S
C53 N52 1.346 . S
C53 C54 1.396 . S
C53 C63 1.510 . S
C54 C50 1.401 . S
C54 C53 1.396 . S
C55 C50 1.499 1_565 S
C55 H56 0.959 . S
C55 H57 0.960 . S
C55 H58 0.961 . S
H56 C55 0.959 . S
H57 C55 0.960 . S
H58 C55 0.961 . S
O59 Co34 1.967 . S
O59 C67 1.258 . S
O60 Co35 1.941 . S
O60 C67 1.266 . S
H61 C63 0.959 . S
H62 C63 0.961 . S
C63 C53 1.510 . S
C63 H61 0.959 . S
C63 H62 0.961 . S
C63 H64 0.960 . S
H64 C63 0.960 . S
H65 N45 0.862 . S
O66 Co34 1.920 . S
O66 C39 1.289 . S
C67 O59 1.258 . S
C67 O60 1.266 . S
Co68 O71 1.970 . S
Co68 N85 1.989 . S
Co68 O93 1.967 . S
Co68 O100 1.920 . S
Co69 O72 1.966 . S
Co69 N78 2.022 . S
Co69 N86 1.993 . S
Co69 O94 1.941 . S
C70 O71 1.258 . S
C70 O72 1.263 . S
O71 Co68 1.970 . S
O71 C70 1.258 . S
O72 Co69 1.966 . S
O72 C70 1.263 . S
C73 O74 1.235 1_655 S
C73 O100 1.289 . S
O74 C73 1.235 1_455 S
C75 C77 1.400 . S
C75 N78 1.351 . S
C75 C80 1.501 . S
C76 C77 1.387 . S
C76 N79 1.341 . S
C77 C75 1.400 . S
C77 C76 1.387 . S
N78 Co69 2.022 . S
N78 C75 1.351 . S
N78 N79 1.365 . S
N79 C76 1.341 . S
N79 N78 1.365 . S
N79 H99 0.862 . S
C80 C75 1.501 . S
C80 H81 0.961 . S
C80 H82 0.961 . S
C80 H83 0.960 . S
H81 C80 0.961 . S
H82 C80 0.961 . S
H83 C80 0.960 . S
C84 N85 1.342 . S
C84 C88 1.401 . S
C84 C89 1.499 1_655 S
N85 Co68 1.989 . S
N85 C84 1.342 . S
N85 N86 1.388 . S
N86 Co69 1.993 . S
N86 N85 1.388 . S
N86 C87 1.346 . S
C87 N86 1.346 . S
C87 C88 1.396 . S
C87 C97 1.510 . S
C88 C84 1.401 . S
C88 C87 1.396 . S
C89 C84 1.499 1_455 S
C89 H90 0.959 . S
C89 H91 0.960 . S
C89 H92 0.961 . S
H90 C89 0.959 . S
H91 C89 0.960 . S
H92 C89 0.961 . S
O93 Co68 1.967 . S
O93 C101 1.258 . S
O94 Co69 1.941 . S
O94 C101 1.266 . S
H95 C97 0.959 . S
H96 C97 0.961 . S
C97 C87 1.510 . S
C97 H95 0.959 . S
C97 H96 0.961 . S
C97 H98 0.960 . S
H98 C97 0.960 . S
H99 N79 0.862 . S
O100 Co68 1.920 . S
O100 C73 1.289 . S
C101 O93 1.258 . S
C101 O94 1.266 . S
Co102 O105 1.970 . S
Co102 N119 1.989 . S
Co102 O127 1.967 . S
Co102 O134 1.920 . S
Co103 O106 1.966 . S
Co103 N112 2.022 . S
Co103 N120 1.993 . S
Co103 O128 1.941 . S
C104 O105 1.258 . S
C104 O106 1.263 . S
O105 Co102 1.970 . S
O105 C104 1.258 . S
O106 Co103 1.966 . S
O106 C104 1.263 . S
C107 O108 1.235 . S
C107 O134 1.289 . S
O108 C107 1.235 . S
C109 C111 1.400 . S
C109 N112 1.351 . S
C109 C114 1.501 . S
C110 C111 1.387 . S
C110 N113 1.341 . S
C111 C109 1.400 . S
C111 C110 1.387 . S
N112 Co103 2.022 . S
N112 C109 1.351 . S
N112 N113 1.365 . S
N113 C110 1.341 . S
N113 N112 1.365 . S
N113 H133 0.862 . S
C114 C109 1.501 . S
C114 H115 0.961 . S
C114 H116 0.961 . S
C114 H117 0.960 . S
H115 C114 0.961 . S
H116 C114 0.961 . S
H117 C114 0.960 . S
C118 N119 1.342 . S
C118 C122 1.401 . S
C118 C123 1.499 . S
N119 Co102 1.989 . S
N119 C118 1.342 . S
N119 N120 1.388 . S
N120 Co103 1.993 . S
N120 N119 1.388 . S
N120 C121 1.346 . S
C121 N120 1.346 . S
C121 C122 1.396 . S
C121 C131 1.510 . S
C122 C118 1.401 . S
C122 C121 1.396 . S
C123 C118 1.499 . S
C123 H124 0.959 . S
C123 H125 0.960 . S
C123 H126 0.961 . S
H124 C123 0.959 . S
H125 C123 0.960 . S
H126 C123 0.961 . S
O127 Co102 1.967 . S
O127 C135 1.258 . S
O128 Co103 1.941 . S
O128 C135 1.266 . S
H129 C131 0.959 . S
H130 C131 0.961 . S
C131 C121 1.510 . S
C131 H129 0.959 . S
C131 H130 0.961 . S
C131 H132 0.960 . S
H132 C131 0.960 . S
H133 N113 0.862 . S
O134 Co102 1.920 . S
O134 C107 1.289 . S
C135 O127 1.258 . S
C135 O128 1.266 . S
Co136 O139 1.970 . S
Co136 N153 1.989 . S
Co136 O161 1.967 . S
Co136 O168 1.920 . S
Co137 O140 1.966 . S
Co137 N146 2.022 . S
Co137 N154 1.993 . S
Co137 O162 1.941 . S
C138 O139 1.258 . S
C138 O140 1.263 . S
O139 Co136 1.970 . S
O139 C138 1.258 . S
O140 Co137 1.966 . S
O140 C138 1.263 . S
C141 O142 1.235 1_565 S
C141 O168 1.289 . S
O142 C141 1.235 1_545 S
C143 C145 1.400 . S
C143 N146 1.351 . S
C143 C148 1.501 . S
C144 C145 1.387 . S
C144 N147 1.341 . S
C145 C143 1.400 . S
C145 C144 1.387 . S
N146 Co137 2.022 . S
N146 C143 1.351 . S
N146 N147 1.365 . S
N147 C144 1.341 . S
N147 N146 1.365 . S
N147 H167 0.862 . S
C148 C143 1.501 . S
C148 H149 0.961 . S
C148 H150 0.961 . S
C148 H151 0.960 . S
H149 C148 0.961 . S
H150 C148 0.961 . S
H151 C148 0.960 . S
C152 N153 1.342 . S
C152 C156 1.401 . S
C152 C157 1.499 1_565 S
N153 Co136 1.989 . S
N153 C152 1.342 . S
N153 N154 1.388 . S
N154 Co137 1.993 . S
N154 N153 1.388 . S
N154 C155 1.346 . S
C155 N154 1.346 . S
C155 C156 1.396 . S
C155 C165 1.510 . S
C156 C152 1.401 . S
C156 C155 1.396 . S
C157 C152 1.499 1_545 S
C157 H158 0.959 . S
C157 H159 0.960 . S
C157 H160 0.961 . S
H158 C157 0.959 . S
H159 C157 0.960 . S
H160 C157 0.961 . S
O161 Co136 1.967 . S
O161 C169 1.258 . S
O162 Co137 1.941 . S
O162 C169 1.266 . S
H163 C165 0.959 . S
H164 C165 0.961 . S
C165 C155 1.510 . S
C165 H163 0.959 . S
C165 H164 0.961 . S
C165 H166 0.960 . S
H166 C165 0.960 . S
H167 N147 0.862 . S
O168 Co136 1.920 . S
O168 C141 1.289 . S
C169 O161 1.258 . S
C169 O162 1.266 . S
Co170 O173 1.970 . S
Co170 N187 1.989 . S
Co170 O195 1.967 . S
Co170 O202 1.920 . S
Co171 O174 1.966 . S
Co171 N180 2.022 . S
Co171 N188 1.993 . S
Co171 O196 1.941 . S
C172 O173 1.258 . S
C172 O174 1.263 . S
O173 Co170 1.970 . S
O173 C172 1.258 . S
O174 Co171 1.966 . S
O174 C172 1.263 . S
C175 O176 1.235 1_455 S
C175 O202 1.289 . S
O176 C175 1.235 1_655 S
C177 C179 1.400 . S
C177 N180 1.351 . S
C177 C182 1.501 . S
C178 C179 1.387 . S
C178 N181 1.341 . S
C179 C177 1.400 . S
C179 C178 1.387 . S
N180 Co171 2.022 . S
N180 C177 1.351 . S
N180 N181 1.365 . S
N181 C178 1.341 . S
N181 N180 1.365 . S
N181 H201 0.862 . S
C182 C177 1.501 . S
C182 H183 0.961 . S
C182 H184 0.961 . S
C182 H185 0.960 . S
H183 C182 0.961 . S
H184 C182 0.961 . S
H185 C182 0.960 . S
C186 N187 1.342 . S
C186 C190 1.401 . S
C186 C191 1.499 1_455 S
N187 Co170 1.989 . S
N187 C186 1.342 . S
N187 N188 1.388 . S
N188 Co171 1.993 . S
N188 N187 1.388 . S
N188 C189 1.346 . S
C189 N188 1.346 . S
C189 C190 1.396 . S
C189 C199 1.510 . S
C190 C186 1.401 . S
C190 C189 1.396 . S
C191 C186 1.499 1_655 S
C191 H192 0.959 . S
C191 H193 0.960 . S
C191 H194 0.961 . S
H192 C191 0.959 . S
H193 C191 0.960 . S
H194 C191 0.961 . S
O195 Co170 1.967 . S
O195 C203 1.258 . S
O196 Co171 1.941 . S
O196 C203 1.266 . S
H197 C199 0.959 . S
H198 C199 0.961 . S
C199 C189 1.510 . S
C199 H197 0.959 . S
C199 H198 0.961 . S
C199 H200 0.960 . S
H200 C199 0.960 . S
H201 N181 0.862 . S
O202 Co170 1.920 . S
O202 C175 1.289 . S
C203 O195 1.258 . S
C203 O196 1.266 . S
C204 C205 1.391 . S
C204 C206 1.394 . S
C204 H220 0.931 . S
C205 C204 1.391 . S
C205 C209 1.376 . S
C206 C204 1.394 . S
C206 C207 1.369 . S
C206 C210 1.531 . S
C207 C206 1.369 . S
C207 C208 1.410 . S
C207 C215 1.503 1_545 S
C208 C207 1.410 . S
C208 C209 1.392 . S
C208 C211 1.511 . S
C209 C205 1.376 . S
C209 C208 1.392 . S
C209 H221 0.929 . S
C210 C206 1.531 . S
C210 H222 0.960 . S
C210 H223 0.962 . S
C210 H224 0.960 . S
C211 C208 1.511 . S
C211 H225 0.961 . S
C211 H226 0.961 1_545 S
C211 H227 0.961 . S
C212 C213 1.370 . S
C212 C214 1.363 . S
C212 H228 0.931 . S
C213 C212 1.370 . S
C213 C217 1.408 . S
C214 C212 1.363 . S
C214 C215 1.370 . S
C214 C218 1.524 . S
C215 C207 1.503 1_565 S
C215 C214 1.370 . S
C215 C216 1.403 . S
C216 C215 1.403 . S
C216 C217 1.404 . S
C216 C219 1.539 1_565 S
C217 C213 1.408 . S
C217 C216 1.404 . S
C217 H229 0.930 . S
C218 C214 1.524 . S
C218 H230 0.956 . S
C218 H231 0.961 . S
C218 H232 0.961 . S
C219 C216 1.539 1_545 S
C219 H233 0.958 . S
C219 H234 0.961 . S
C219 H235 0.960 . S
H220 C204 0.931 . S
H221 C209 0.929 . S
H222 C210 0.960 . S
H223 C210 0.962 . S
H224 C210 0.960 . S
H225 C211 0.961 . S
H226 C211 0.961 1_565 S
H227 C211 0.961 . S
H228 C212 0.931 . S
H229 C217 0.930 . S
H230 C218 0.956 . S
H231 C218 0.961 . S
H232 C218 0.961 . S
H233 C219 0.958 . S
H234 C219 0.961 . S
H235 C219 0.960 . S
C236 C237 1.391 . S
C236 C238 1.394 . S
C236 H252 0.931 . S
C237 C236 1.391 . S
C237 C241 1.376 . S
C238 C236 1.394 . S
C238 C239 1.369 . S
C238 C242 1.531 1_455 S
C239 C238 1.369 . S
C239 C240 1.410 . S
C239 C247 1.503 1_455 S
C240 C239 1.410 . S
C240 C241 1.392 . S
C240 C243 1.511 . S
C241 C237 1.376 . S
C241 C240 1.392 . S
C241 H253 0.929 . S
C242 C238 1.531 1_655 S
C242 H254 0.960 . S
C242 H255 0.962 . S
C242 H256 0.960 . S
C243 C240 1.511 . S
C243 H257 0.961 . S
C243 H258 0.961 . S
C243 H259 0.961 . S
C244 C245 1.370 . S
C244 C246 1.363 . S
C244 H260 0.931 . S
C245 C244 1.370 . S
C245 C249 1.408 . S
C246 C244 1.363 . S
C246 C247 1.370 . S
C246 C250 1.524 1_655 S
C247 C239 1.503 1_655 S
C247 C246 1.370 . S
C247 C248 1.403 . S
C248 C247 1.403 . S
C248 C249 1.404 . S
C248 C251 1.539 . S
C249 C245 1.408 . S
C249 C248 1.404 . S
C249 H261 0.930 . S
C250 C246 1.524 1_455 S
C250 H262 0.956 . S
C250 H263 0.961 . S
C250 H264 0.951 1_455 S
C251 C248 1.539 . S
C251 H265 0.958 . S
C251 H266 0.961 . S
C251 H267 0.960 . S
H252 C236 0.931 . S
H253 C241 0.929 . S
H254 C242 0.960 . S
H255 C242 0.962 . S
H256 C242 0.960 . S
H257 C243 0.961 . S
H258 C243 0.961 . S
H259 C243 0.961 . S
H260 C244 0.931 . S
H261 C249 0.930 . S
H262 C250 0.956 . S
H263 C250 0.961 . S
H264 C250 0.951 1_655 S
H265 C251 0.958 . S
H266 C251 0.961 . S
H267 C251 0.960 . S
C268 C269 1.391 . S
C268 C270 1.394 . S
C268 H284 0.931 . S
C269 C268 1.391 . S
C269 C273 1.376 . S
C270 C268 1.394 . S
C270 C271 1.369 . S
C270 C274 1.531 . S
C271 C270 1.369 . S
C271 C272 1.410 . S
C271 C279 1.503 . S
C272 C271 1.410 . S
C272 C273 1.392 . S
C272 C275 1.511 . S
C273 C269 1.376 . S
C273 C272 1.392 . S
C273 H285 0.929 . S
C274 C270 1.531 . S
C274 H286 0.960 . S
C274 H287 0.962 . S
C274 H288 0.960 . S
C275 C272 1.511 . S
C275 H289 0.961 . S
C275 H290 0.961 . S
C275 H291 0.961 . S
C276 C277 1.370 . S
C276 C278 1.363 . S
C276 H292 0.931 . S
C277 C276 1.370 . S
C277 C281 1.408 . S
C278 C276 1.363 . S
C278 C279 1.370 . S
C278 C282 1.524 . S
C279 C271 1.503 . S
C279 C278 1.370 . S
C279 C280 1.403 . S
C280 C279 1.403 . S
C280 C281 1.404 . S
C280 C283 1.539 . S
C281 C277 1.408 . S
C281 C280 1.404 . S
C281 H293 0.930 . S
C282 C278 1.524 . S
C282 H294 0.956 . S
C282 H295 0.961 . S
C282 H296 0.961 . S
C283 C280 1.539 . S
C283 H297 0.958 . S
C283 H298 0.961 . S
C283 H299 0.960 . S
H284 C268 0.931 . S
H285 C273 0.929 . S
H286 C274 0.960 . S
H287 C274 0.962 . S
H288 C274 0.960 . S
H289 C275 0.961 . S
H290 C275 0.961 . S
H291 C275 0.961 . S
H292 C276 0.931 . S
H293 C281 0.930 . S
H294 C282 0.956 . S
H295 C282 0.961 . S
H296 C282 0.961 . S
H297 C283 0.958 . S
H298 C283 0.961 . S
H299 C283 0.960 . S
C300 C301 1.391 . S
C300 C302 1.394 . S
C300 H316 0.931 . S
C301 C300 1.391 . S
C301 C305 1.376 . S
C302 C300 1.394 . S
C302 C303 1.369 . S
C302 C306 1.531 . S
C303 C302 1.369 . S
C303 C304 1.410 . S
C303 C311 1.503 . S
C304 C303 1.410 . S
C304 C305 1.392 . S
C304 C307 1.511 . S
C305 C301 1.376 . S
C305 C304 1.392 . S
C305 H317 0.929 . S
C306 C302 1.531 . S
C306 H318 0.960 . S
C306 H319 0.962 . S
C306 H320 0.960 . S
C307 C304 1.511 . S
C307 H321 0.961 . S
C307 H322 0.961 . S
C307 H323 0.961 . S
C308 C309 1.370 . S
C308 C310 1.363 . S
C308 H324 0.931 . S
C309 C308 1.370 . S
C309 C313 1.408 . S
C310 C308 1.363 . S
C310 C311 1.370 . S
C310 C314 1.524 . S
C311 C303 1.503 . S
C311 C310 1.370 . S
C311 C312 1.403 . S
C312 C311 1.403 . S
C312 C313 1.404 . S
C312 C315 1.539 . S
C313 C309 1.408 . S
C313 C312 1.404 . S
C313 H325 0.930 . S
C314 C310 1.524 . S
C314 H326 0.956 . S
C314 H327 0.961 . S
C314 H328 0.961 . S
C315 C312 1.539 . S
C315 H329 0.958 . S
C315 H330 0.961 . S
C315 H331 0.960 . S
H316 C300 0.931 . S
H317 C305 0.929 . S
H318 C306 0.960 . S
H319 C306 0.962 . S
H320 C306 0.960 . S
H321 C307 0.961 . S
H322 C307 0.961 . S
H323 C307 0.961 . S
H324 C308 0.931 . S
H325 C313 0.930 . S
H326 C314 0.956 . S
H327 C314 0.961 . S
H328 C314 0.961 . S
H329 C315 0.958 . S
H330 C315 0.961 . S
H331 C315 0.960 . S
C332 C333 1.391 . S
C332 C334 1.394 . S
C332 H348 0.931 . S
C333 C332 1.391 . S
C333 C337 1.376 . S
C334 C332 1.394 . S
C334 C335 1.369 . S
C334 C338 1.531 . S
C335 C334 1.369 . S
C335 C336 1.410 . S
C335 C343 1.503 . S
C336 C335 1.410 . S
C336 C337 1.392 . S
C336 C339 1.511 . S
C337 C333 1.376 . S
C337 C336 1.392 . S
C337 H349 0.929 . S
C338 C334 1.531 . S
C338 H350 0.960 . S
C338 H351 0.962 . S
C338 H352 0.960 . S
C339 C336 1.511 . S
C339 H353 0.961 . S
C339 H354 0.961 . S
C339 H355 0.961 . S
C340 C341 1.370 . S
C340 C342 1.363 . S
C340 H356 0.931 . S
C341 C340 1.370 . S
C341 C345 1.408 . S
C342 C340 1.363 . S
C342 C343 1.370 . S
C342 C346 1.524 . S
C343 C335 1.503 . S
C343 C342 1.370 . S
C343 C344 1.403 . S
C344 C343 1.403 . S
C344 C345 1.404 . S
C344 C347 1.539 . S
C345 C341 1.408 . S
C345 C344 1.404 . S
C345 H357 0.930 . S
C346 C342 1.524 . S
C346 H358 0.956 . S
C346 H359 0.961 . S
C346 H360 0.961 . S
C347 C344 1.539 . S
C347 H361 0.958 . S
C347 H362 0.961 . S
C347 H363 0.960 . S
H348 C332 0.931 . S
H349 C337 0.929 . S
H350 C338 0.960 . S
H351 C338 0.962 . S
H352 C338 0.960 . S
H353 C339 0.961 . S
H354 C339 0.961 . S
H355 C339 0.961 . S
H356 C340 0.931 . S
H357 C345 0.930 . S
H358 C346 0.956 . S
H359 C346 0.961 . S
H360 C346 0.961 . S
H361 C347 0.958 . S
H362 C347 0.961 . S
H363 C347 0.960 . S
C364 C365 1.391 . S
C364 C366 1.394 . S
C364 H380 0.931 . S
C365 C364 1.391 . S
C365 C369 1.376 . S
C366 C364 1.394 . S
C366 C367 1.369 . S
C366 C370 1.531 . S
C367 C366 1.369 . S
C367 C368 1.410 . S
C367 C375 1.503 . S
C368 C367 1.410 . S
C368 C369 1.392 . S
C368 C371 1.511 . S
C369 C365 1.376 . S
C369 C368 1.392 . S
C369 H381 0.929 . S
C370 C366 1.531 . S
C370 H382 0.960 . S
C370 H383 0.962 . S
C370 H384 0.960 . S
C371 C368 1.511 . S
C371 H385 0.961 . S
C371 H386 0.961 . S
C371 H387 0.961 . S
C372 C373 1.370 . S
C372 C374 1.363 . S
C372 H388 0.931 . S
C373 C372 1.370 . S
C373 C377 1.408 . S
C374 C372 1.363 . S
C374 C375 1.370 . S
C374 C378 1.524 . S
C375 C367 1.503 . S
C375 C374 1.370 . S
C375 C376 1.403 . S
C376 C375 1.403 . S
C376 C377 1.404 . S
C376 C379 1.539 . S
C377 C373 1.408 . S
C377 C376 1.404 . S
C377 H389 0.930 . S
C378 C374 1.524 . S
C378 H390 0.956 . S
C378 H391 0.961 . S
C378 H392 0.961 . S
C379 C376 1.539 . S
C379 H393 0.958 . S
C379 H394 0.961 . S
C379 H395 0.960 . S
H380 C364 0.931 . S
H381 C369 0.929 . S
H382 C370 0.960 . S
H383 C370 0.962 . S
H384 C370 0.960 . S
H385 C371 0.961 . S
H386 C371 0.961 . S
H387 C371 0.961 . S
H388 C372 0.931 . S
H389 C377 0.930 . S
H390 C378 0.956 . S
H391 C378 0.961 . S
H392 C378 0.961 . S
H393 C379 0.958 . S
H394 C379 0.961 . S
H395 C379 0.960 . S
C396 C397 1.391 . S
C396 C398 1.394 . S
C396 H412 0.931 . S
C397 C396 1.391 . S
C397 C401 1.376 . S
C398 C396 1.394 . S
C398 C399 1.369 . S
C398 C402 1.531 . S
C399 C398 1.369 . S
C399 C400 1.410 . S
C399 C407 1.503 . S
C400 C399 1.410 . S
C400 C401 1.392 . S
C400 C403 1.511 . S
C401 C397 1.376 . S
C401 C400 1.392 . S
C401 H413 0.929 . S
C402 C398 1.531 . S
C402 H414 0.960 . S
C402 H415 0.962 . S
C402 H416 0.960 . S
C403 C400 1.511 . S
C403 H417 0.961 . S
C403 H418 0.961 . S
C403 H419 0.961 . S
C404 C405 1.370 . S
C404 C406 1.363 . S
C404 H420 0.931 . S
C405 C404 1.370 . S
C405 C409 1.408 . S
C406 C404 1.363 . S
C406 C407 1.370 . S
C406 C410 1.524 . S
C407 C399 1.503 . S
C407 C406 1.370 . S
C407 C408 1.403 . S
C408 C407 1.403 . S
C408 C409 1.404 . S
C408 C411 1.539 . S
C409 C405 1.408 . S
C409 C408 1.404 . S
C409 H421 0.930 . S
C410 C406 1.524 . S
C410 H422 0.956 . S
C410 H423 0.961 . S
C410 H424 0.961 . S
C411 C408 1.539 . S
C411 H425 0.958 . S
C411 H426 0.961 . S
C411 H427 0.960 . S
H412 C396 0.931 . S
H413 C401 0.929 . S
H414 C402 0.960 . S
H415 C402 0.962 . S
H416 C402 0.960 . S
H417 C403 0.961 . S
H418 C403 0.961 . S
H419 C403 0.961 . S
H420 C404 0.931 . S
H421 C409 0.930 . S
H422 C410 0.956 . S
H423 C410 0.961 . S
H424 C410 0.961 . S
H425 C411 0.958 . S
H426 C411 0.961 . S
H427 C411 0.960 . S
C428 C429 1.391 . S
C428 C430 1.394 . S
C428 H444 0.931 . S
C429 C428 1.391 . S
C429 C433 1.376 . S
C430 C428 1.394 . S
C430 C431 1.369 . S
C430 C434 1.531 . S
C431 C430 1.369 . S
C431 C432 1.410 . S
C431 C439 1.503 . S
C432 C431 1.410 . S
C432 C433 1.392 . S
C432 C435 1.511 . S
C433 C429 1.376 . S
C433 C432 1.392 . S
C433 H445 0.929 . S
C434 C430 1.531 . S
C434 H446 0.960 . S
C434 H447 0.962 . S
C434 H448 0.960 . S
C435 C432 1.511 . S
C435 H449 0.961 . S
C435 H450 0.961 . S
C435 H451 0.961 . S
C436 C437 1.370 . S
C436 C438 1.363 . S
C436 H452 0.931 . S
C437 C436 1.370 . S
C437 C441 1.408 . S
C438 C436 1.363 . S
C438 C439 1.370 . S
C438 C442 1.524 . S
C439 C431 1.503 . S
C439 C438 1.370 . S
C439 C440 1.403 . S
C440 C439 1.403 . S
C440 C441 1.404 . S
C440 C443 1.539 . S
C441 C437 1.408 . S
C441 C440 1.404 . S
C441 H453 0.930 . S
C442 C438 1.524 . S
C442 H454 0.956 . S
C442 H455 0.961 . S
C442 H456 0.961 . S
C443 C440 1.539 . S
C443 H457 0.958 . S
C443 H458 0.961 . S
C443 H459 0.960 . S
H444 C428 0.931 . S
H445 C433 0.929 . S
H446 C434 0.960 . S
H447 C434 0.962 . S
H448 C434 0.960 . S
H449 C435 0.961 . S
H450 C435 0.961 . S
H451 C435 0.961 . S
H452 C436 0.931 . S
H453 C441 0.930 . S
H454 C442 0.956 . S
H455 C442 0.961 . S
H456 C442 0.961 . S
H457 C443 0.958 . S
H458 C443 0.961 . S
H459 C443 0.960 . S
C460 C461 1.391 . S
C460 C462 1.394 . S
C460 H476 0.931 . S
C461 C460 1.391 . S
C461 C465 1.376 . S
C462 C460 1.394 . S
C462 C463 1.369 . S
C462 C466 1.531 . S
C463 C462 1.369 . S
C463 C464 1.410 . S
C463 C471 1.503 . S
C464 C463 1.410 . S
C464 C465 1.392 . S
C464 C467 1.511 . S
C465 C461 1.376 . S
C465 C464 1.392 . S
C465 H477 0.929 . S
C466 C462 1.531 . S
C466 H478 0.960 . S
C466 H479 0.962 . S
C466 H480 0.960 . S
C467 C464 1.511 . S
C467 H481 0.961 . S
C467 H482 0.961 . S
C467 H483 0.961 . S
C468 C469 1.370 . S
C468 C470 1.363 . S
C468 H484 0.931 . S
C469 C468 1.370 . S
C469 C473 1.408 . S
C470 C468 1.363 . S
C470 C471 1.370 . S
C470 C474 1.524 . S
C471 C463 1.503 . S
C471 C470 1.370 . S
C471 C472 1.403 . S
C472 C471 1.403 . S
C472 C473 1.404 . S
C472 C475 1.539 . S
C473 C469 1.408 . S
C473 C472 1.404 . S
C473 H485 0.930 . S
C474 C470 1.524 . S
C474 H486 0.956 . S
C474 H487 0.961 . S
C474 H488 0.961 . S
C475 C472 1.539 . S
C475 H489 0.958 . S
C475 H490 0.961 . S
C475 H491 0.960 . S
H476 C460 0.931 . S
H477 C465 0.929 . S
H478 C466 0.960 . S
H479 C466 0.962 . S
H480 C466 0.960 . S
H481 C467 0.961 . S
H482 C467 0.961 . S
H483 C467 0.961 . S
H484 C468 0.931 . S
H485 C473 0.930 . S
H486 C474 0.956 . S
H487 C474 0.961 . S
H488 C474 0.961 . S
H489 C475 0.958 . S
H490 C475 0.961 . S
H491 C475 0.960 . S
C492 C493 1.391 . S
C492 C494 1.394 1_565 S
C492 H508 0.931 . S
C493 C492 1.391 . S
C493 C497 1.376 . S
C494 C492 1.394 1_545 S
C494 C495 1.369 . S
C494 C498 1.531 . S
C495 C494 1.369 . S
C495 C496 1.410 . S
C495 C503 1.503 . S
C496 C495 1.410 . S
C496 C497 1.392 1_545 S
C496 C499 1.511 . S
C497 C493 1.376 . S
C497 C496 1.392 1_565 S
C497 H509 0.929 . S
C498 C494 1.531 . S
C498 H510 0.960 . S
C498 H511 0.962 . S
C498 H512 0.960 . S
C499 C496 1.511 . S
C499 H513 0.961 . S
C499 H514 0.961 . S
C499 H515 0.961 . S
C500 C501 1.370 . S
C500 C502 1.363 . S
C500 H516 0.931 . S
C501 C500 1.370 . S
C501 C505 1.408 . S
C502 C500 1.363 . S
C502 C503 1.370 . S
C502 C506 1.524 1_545 S
C503 C495 1.503 . S
C503 C502 1.370 . S
C503 C504 1.403 . S
C504 C503 1.403 . S
C504 C505 1.404 . S
C504 C507 1.539 . S
C505 C501 1.408 . S
C505 C504 1.404 . S
C505 H517 0.930 . S
C506 C502 1.524 1_565 S
C506 H518 0.956 . S
C506 H519 0.961 . S
C506 H520 0.961 . S
C507 C504 1.539 . S
C507 H521 0.958 . S
C507 H522 0.961 . S
C507 H523 0.960 . S
H508 C492 0.931 . S
H509 C497 0.929 . S
H510 C498 0.960 . S
H511 C498 0.962 . S
H512 C498 0.960 . S
H513 C499 0.961 . S
H514 C499 0.961 . S
H515 C499 0.961 . S
H516 C500 0.931 . S
H517 C505 0.930 . S
H518 C506 0.956 . S
H519 C506 0.961 . S
H520 C506 0.961 . S
H521 C507 0.958 . S
H522 C507 0.961 . S
H523 C507 0.960 . S
C524 C525 1.391 . S
C524 C526 1.344 1_556 S
C524 H540 0.931 . S
C525 C524 1.391 . S
C525 C529 1.376 . S
C526 C524 1.344 1_554 S
C526 C527 1.368 . S
C526 C530 1.584 . S
C527 C526 1.368 . S
C527 C528 1.395 1_554 S
C527 C535 1.517 . S
C528 C527 1.395 1_556 S
C528 C529 1.392 . S
C528 C531 1.511 1_655 S
C529 C525 1.376 . S
C529 C528 1.392 . S
C529 H541 0.929 . S
C530 C526 1.584 . S
C530 H542 0.960 . S
C530 H543 0.962 . S
C530 H544 0.960 . S
C531 C528 1.511 1_455 S
C531 H545 0.961 . S
C531 H546 0.961 . S
C531 H547 0.961 . S
C532 C533 1.370 . S
C532 C534 1.363 1_455 S
C532 H548 0.931 . S
C533 C532 1.370 . S
C533 C537 1.408 . S
C534 C532 1.363 1_655 S
C534 C535 1.370 . S
C534 C538 1.524 . S
C535 C527 1.517 . S
C535 C534 1.370 . S
C535 C536 1.403 . S
C536 C535 1.403 . S
C536 C537 1.404 1_655 S
C536 C539 1.539 . S
C537 C533 1.408 . S
C537 C536 1.404 1_455 S
C537 H549 0.930 . S
C538 C534 1.524 . S
C538 H550 0.956 . S
C538 H551 0.961 1_554 S
C538 H552 0.961 . S
C539 C536 1.539 . S
C539 H553 0.958 . S
C539 H554 0.961 1_655 S
C539 H555 0.960 . S
H540 C524 0.931 . S
H541 C529 0.929 . S
H542 C530 0.960 . S
H543 C530 0.962 . S
H544 C530 0.960 . S
H545 C531 0.961 . S
H546 C531 0.961 . S
H547 C531 0.961 . S
H548 C532 0.931 . S
H549 C537 0.930 . S
H550 C538 0.956 . S
H551 C538 0.961 1_556 S
H552 C538 0.961 . S
H553 C539 0.958 . S
H554 C539 0.961 1_455 S
H555 C539 0.960 . S
C556 C557 1.391 . S
C556 C558 1.394 . S
C556 H572 0.931 . S
C557 C556 1.391 . S
C557 C561 1.376 . S
C558 C556 1.394 . S
C558 C559 1.369 . S
C558 C562 1.531 . S
C559 C558 1.369 . S
C559 C560 1.410 . S
C559 C567 1.503 . S
C560 C559 1.410 . S
C560 C561 1.392 . S
C560 C563 1.511 . S
C561 C557 1.376 . S
C561 C560 1.392 . S
C561 H573 0.929 . S
C562 C558 1.531 . S
C562 H574 0.960 . S
C562 H575 0.962 . S
C562 H576 0.960 . S
C563 C560 1.511 . S
C563 H577 0.961 . S
C563 H578 0.961 . S
C563 H579 0.961 . S
C564 C565 1.370 . S
C564 C566 1.363 . S
C564 H580 0.931 . S
C565 C564 1.370 . S
C565 C569 1.408 . S
C566 C564 1.363 . S
C566 C567 1.370 . S
C566 C570 1.524 . S
C567 C559 1.503 . S
C567 C566 1.370 . S
C567 C568 1.403 . S
C568 C567 1.403 . S
C568 C569 1.404 . S
C568 C571 1.539 . S
C569 C565 1.408 . S
C569 C568 1.404 . S
C569 H581 0.930 . S
C570 C566 1.524 . S
C570 H582 0.956 . S
C570 H583 0.961 . S
C570 H584 0.961 . S
C571 C568 1.539 . S
C571 H585 0.958 . S
C571 H586 0.961 . S
C571 H587 0.960 . S
H572 C556 0.931 . S
H573 C561 0.929 . S
H574 C562 0.960 . S
H575 C562 0.962 . S
H576 C562 0.960 . S
H577 C563 0.961 . S
H578 C563 0.961 . S
H579 C563 0.961 . S
H580 C564 0.931 . S
H581 C569 0.930 . S
H582 C570 0.956 . S
H583 C570 0.961 . S
H584 C570 0.961 . S
H585 C571 0.958 . S
H586 C571 0.961 . S
H587 C571 0.960 . S
C588 C589 1.391 . S
C588 C590 1.394 . S
C588 H604 0.931 . S
C589 C588 1.391 . S
C589 C593 1.376 . S
C590 C588 1.394 . S
C590 C591 1.369 . S
C590 C594 1.531 . S
C591 C590 1.369 . S
C591 C592 1.410 . S
C591 C599 1.503 . S
C592 C591 1.410 . S
C592 C593 1.392 . S
C592 C595 1.511 . S
C593 C589 1.376 . S
C593 C592 1.392 . S
C593 H605 0.929 . S
C594 C590 1.531 . S
C594 H606 0.960 . S
C594 H607 0.962 1_455 S
C594 H608 0.960 . S
C595 C592 1.511 . S
C595 H609 0.961 . S
C595 H610 0.961 . S
C595 H611 0.961 . S
C596 C597 1.370 . S
C596 C598 1.363 . S
C596 H612 0.931 . S
C597 C596 1.370 . S
C597 C601 1.408 1_655 S
C598 C596 1.363 . S
C598 C599 1.370 1_655 S
C598 C602 1.524 . S
C599 C591 1.503 . S
C599 C598 1.370 1_455 S
C599 C600 1.403 . S
C600 C599 1.403 . S
C600 C601 1.404 . S
C600 C603 1.539 . S
C601 C597 1.408 1_455 S
C601 C600 1.404 . S
C601 H613 0.930 . S
C602 C598 1.524 . S
C602 H614 0.956 . S
C602 H615 0.961 . S
C602 H616 0.961 . S
C603 C600 1.539 . S
C603 H617 0.958 . S
C603 H618 0.961 . S
C603 H619 0.960 . S
H604 C588 0.931 . S
H605 C593 0.929 . S
H606 C594 0.960 . S
H607 C594 0.962 1_655 S
H608 C594 0.960 . S
H609 C595 0.961 . S
H610 C595 0.961 . S
H611 C595 0.961 . S
H612 C596 0.931 . S
H613 C601 0.930 . S
H614 C602 0.956 . S
H615 C602 0.961 . S
H616 C602 0.961 . S
H617 C603 0.958 . S
H618 C603 0.961 . S
H619 C603 0.960 . S
C620 C621 1.391 . S
C620 C622 1.394 . S
C620 H636 0.931 . S
C621 C620 1.391 . S
C621 C625 1.376 . S
C622 C620 1.394 . S
C622 C623 1.369 . S
C622 C626 1.531 . S
C623 C622 1.369 . S
C623 C624 1.410 . S
C623 C631 1.503 . S
C624 C623 1.410 . S
C624 C625 1.392 . S
C624 C627 1.511 . S
C625 C621 1.376 . S
C625 C624 1.392 . S
C625 H637 0.929 . S
C626 C622 1.531 . S
C626 H638 0.960 . S
C626 H639 0.962 . S
C626 H640 0.960 . S
C627 C624 1.511 . S
C627 H641 0.961 . S
C627 H642 0.961 . S
C627 H643 0.961 . S
C628 C629 1.370 . S
C628 C630 1.363 . S
C628 H644 0.931 . S
C629 C628 1.370 . S
C629 C633 1.408 . S
C630 C628 1.363 . S
C630 C631 1.370 . S
C630 C634 1.524 . S
C631 C623 1.503 . S
C631 C630 1.370 . S
C631 C632 1.403 . S
C632 C631 1.403 . S
C632 C633 1.404 . S
C632 C635 1.539 . S
C633 C629 1.408 . S
C633 C632 1.404 . S
C633 H645 0.930 . S
C634 C630 1.524 . S
C634 H646 0.956 . S
C634 H647 0.961 . S
C634 H648 0.961 . S
C635 C632 1.539 . S
C635 H649 0.958 . S
C635 H650 0.961 . S
C635 H651 0.960 . S
H636 C620 0.931 . S
H637 C625 0.929 . S
H638 C626 0.960 . S
H639 C626 0.962 . S
H640 C626 0.960 . S
H641 C627 0.961 . S
H642 C627 0.961 . S
H643 C627 0.961 . S
H644 C628 0.931 . S
H645 C633 0.930 . S
H646 C634 0.956 . S
H647 C634 0.961 . S
H648 C634 0.961 . S
H649 C635 0.958 . S
H650 C635 0.961 . S
H651 C635 0.960 . S
C652 C653 1.391 . S
C652 C654 1.394 . S
C652 H668 0.931 . S
C653 C652 1.391 . S
C653 C657 1.376 1_545 S
C654 C652 1.394 . S
C654 C655 1.369 1_545 S
C654 C658 1.531 . S
C655 C654 1.369 1_565 S
C655 C656 1.410 . S
C655 C663 1.542 . S
C656 C655 1.410 . S
C656 C657 1.392 . S
C656 C659 1.511 . S
C657 C653 1.376 1_565 S
C657 C656 1.392 . S
C657 H669 0.929 . S
C658 C654 1.531 . S
C658 H670 0.960 1_545 S
C658 H671 0.962 . S
C658 H672 0.960 . S
C659 C656 1.511 . S
C659 H673 0.961 . S
C659 H674 0.961 . S
C659 H675 0.961 . S
C660 C661 1.370 . S
C660 C662 1.363 . S
C660 H676 0.931 . S
C661 C660 1.370 . S
C661 C665 1.408 . S
C662 C660 1.363 . S
C662 C663 1.328 1_554 S
C662 C666 1.524 1_565 S
C663 C655 1.542 . S
C663 C662 1.328 1_556 S
C663 C664 1.407 . S
C664 C663 1.407 . S
C664 C665 1.404 1_556 S
C664 C667 1.539 . S
C665 C661 1.408 . S
C665 C664 1.404 1_554 S
C665 H677 0.930 . S
C666 C662 1.524 1_545 S
C666 H678 0.956 . S
C666 H679 0.961 . S
C666 H680 0.961 . S
C667 C664 1.539 . S
C667 H681 0.958 . S
C667 H682 0.961 . S
C667 H683 0.960 . S
H668 C652 0.931 . S
H669 C657 0.929 . S
H670 C658 0.960 1_565 S
H671 C658 0.962 . S
H672 C658 0.960 . S
H673 C659 0.961 . S
H674 C659 0.961 . S
H675 C659 0.961 . S
H676 C660 0.931 . S
H677 C665 0.930 . S
H678 C666 0.956 . S
H679 C666 0.961 . S
H680 C666 0.961 . S
H681 C667 0.958 . S
H682 C667 0.961 . S
H683 C667 0.960 . S
C205 C2 1.948 . S
C213 C172 1.960 . S
C237 C104 1.960 . S
C245 C36 1.960 . S
C269 C138 1.958 . S
C277 C70 1.957 . S
C301 C203 1.509 . S
C309 C5 1.493 . S
C333 C135 1.505 . S
C341 C39 1.492 1_565 S
C365 C73 1.480 1_455 S
C373 C169 1.511 . S
C397 C67 1.511 . S
C405 C107 1.502 . S
C429 C101 1.508 . S
C437 C141 1.505 1_545 S
C461 C175 1.504 1_655 S
C469 C33 1.513 . S
C493 C156 1.301 . S
C501 C9 1.252 . S
C525 C43 1.282 . S
C533 C190 1.302 . S
C557 C122 1.299 . S
C565 C77 1.259 . S
C589 C111 1.228 . S
C597 C88 1.303 . S
C621 C20 1.299 . S
C629 C145 1.265 . S
C653 C54 1.300 . S
C661 C179 1.257 . S
