# Generated by pormake.
# Topology pem, (4)-cn, num edge types: 1
# Building blocks:
#     Node 0, Type 0, BuildingBlock: UXUYUI_clean_sbu_0, # of connection points: 4
#     Node 1, Type 0, BuildingBlock: UXUYUI_clean_sbu_0, # of connection points: 4
#     Node 2, Type 0, BuildingBlock: UXUYUI_clean_sbu_0, # of connection points: 4
#     Node 3, Type 0, BuildingBlock: UXUYUI_clean_sbu_0, # of connection points: 4
#     Node 4, Type 0, BuildingBlock: UXUYUI_clean_sbu_0, # of connection points: 4
#     Node 5, Type 0, BuildingBlock: UXUYUI_clean_sbu_0, # of connection points: 4
#     Node 6, Type 0, BuildingBlock: UXUYUI_clean_sbu_0, # of connection points: 4
#     Node 7, Type 0, BuildingBlock: UXUYUI_clean_sbu_0, # of connection points: 4
#     Node 8, Type 0, BuildingBlock: UXUYUI_clean_sbu_0, # of connection points: 4
#     Node 9, Type 0, BuildingBlock: UXUYUI_clean_sbu_0, # of connection points: 4
#     Node 10, Type 0, BuildingBlock: UXUYUI_clean_sbu_0, # of connection points: 4
#     Node 11, Type 0, BuildingBlock: UXUYUI_clean_sbu_0, # of connection points: 4
#     Node 12, Type 0, BuildingBlock: UXUYUI_clean_sbu_0, # of connection points: 4
#     Node 13, Type 0, BuildingBlock: UXUYUI_clean_sbu_0, # of connection points: 4
#     Node 14, Type 0, BuildingBlock: UXUYUI_clean_sbu_0, # of connection points: 4
#     Node 15, Type 0, BuildingBlock: UXUYUI_clean_sbu_0, # of connection points: 4
#     Node 16, Type 0, BuildingBlock: UXUYUI_clean_sbu_0, # of connection points: 4
#     Node 17, Type 0, BuildingBlock: UXUYUI_clean_sbu_0, # of connection points: 4
#     Node 18, Type 0, BuildingBlock: UXUYUI_clean_sbu_0, # of connection points: 4
#     Node 19, Type 0, BuildingBlock: UXUYUI_clean_sbu_0, # of connection points: 4
#     Node 20, Type 0, BuildingBlock: UXUYUI_clean_sbu_0, # of connection points: 4
#     Node 21, Type 0, BuildingBlock: UXUYUI_clean_sbu_0, # of connection points: 4
#     Node 22, Type 0, BuildingBlock: UXUYUI_clean_sbu_0, # of connection points: 4
#     Node 23, Type 0, BuildingBlock: UXUYUI_clean_sbu_0, # of connection points: 4
#     Node 24, Type 0, BuildingBlock: UXUYUI_clean_sbu_0, # of connection points: 4
#     Node 25, Type 0, BuildingBlock: UXUYUI_clean_sbu_0, # of connection points: 4
#     Node 26, Type 0, BuildingBlock: UXUYUI_clean_sbu_0, # of connection points: 4
#     Node 27, Type 0, BuildingBlock: UXUYUI_clean_sbu_0, # of connection points: 4
#     Node 28, Type 0, BuildingBlock: UXUYUI_clean_sbu_0, # of connection points: 4
#     Node 29, Type 0, BuildingBlock: UXUYUI_clean_sbu_0, # of connection points: 4
#     Node 30, Type 0, BuildingBlock: UXUYUI_clean_sbu_0, # of connection points: 4
#     Node 31, Type 0, BuildingBlock: UXUYUI_clean_sbu_0, # of connection points: 4
#     Edge 32, Type (0, 0), BuildingBlock: OJICUG_clean_linker_0, # of connection points: 2
#     Edge 33, Type (0, 0), BuildingBlock: OJICUG_clean_linker_0, # of connection points: 2
#     Edge 34, Type (0, 0), BuildingBlock: OJICUG_clean_linker_0, # of connection points: 2
#     Edge 35, Type (0, 0), BuildingBlock: OJICUG_clean_linker_0, # of connection points: 2
#     Edge 36, Type (0, 0), BuildingBlock: OJICUG_clean_linker_0, # of connection points: 2
#     Edge 37, Type (0, 0), BuildingBlock: OJICUG_clean_linker_0, # of connection points: 2
#     Edge 38, Type (0, 0), BuildingBlock: OJICUG_clean_linker_0, # of connection points: 2
#     Edge 39, Type (0, 0), BuildingBlock: OJICUG_clean_linker_0, # of connection points: 2
#     Edge 40, Type (0, 0), BuildingBlock: OJICUG_clean_linker_0, # of connection points: 2
#     Edge 41, Type (0, 0), BuildingBlock: OJICUG_clean_linker_0, # of connection points: 2
#     Edge 42, Type (0, 0), BuildingBlock: OJICUG_clean_linker_0, # of connection points: 2
#     Edge 43, Type (0, 0), BuildingBlock: OJICUG_clean_linker_0, # of connection points: 2
#     Edge 44, Type (0, 0), BuildingBlock: OJICUG_clean_linker_0, # of connection points: 2
#     Edge 45, Type (0, 0), BuildingBlock: OJICUG_clean_linker_0, # of connection points: 2
#     Edge 46, Type (0, 0), BuildingBlock: OJICUG_clean_linker_0, # of connection points: 2
#     Edge 47, Type (0, 0), BuildingBlock: OJICUG_clean_linker_0, # of connection points: 2
#     Edge 48, Type (0, 0), BuildingBlock: OJICUG_clean_linker_0, # of connection points: 2
#     Edge 49, Type (0, 0), BuildingBlock: OJICUG_clean_linker_0, # of connection points: 2
#     Edge 50, Type (0, 0), BuildingBlock: OJICUG_clean_linker_0, # of connection points: 2
#     Edge 51, Type (0, 0), BuildingBlock: OJICUG_clean_linker_0, # of connection points: 2
#     Edge 52, Type (0, 0), BuildingBlock: OJICUG_clean_linker_0, # of connection points: 2
#     Edge 53, Type (0, 0), BuildingBlock: OJICUG_clean_linker_0, # of connection points: 2
#     Edge 54, Type (0, 0), BuildingBlock: OJICUG_clean_linker_0, # of connection points: 2
#     Edge 55, Type (0, 0), BuildingBlock: OJICUG_clean_linker_0, # of connection points: 2
#     Edge 56, Type (0, 0), BuildingBlock: OJICUG_clean_linker_0, # of connection points: 2
#     Edge 57, Type (0, 0), BuildingBlock: OJICUG_clean_linker_0, # of connection points: 2
#     Edge 58, Type (0, 0), BuildingBlock: OJICUG_clean_linker_0, # of connection points: 2
#     Edge 59, Type (0, 0), BuildingBlock: OJICUG_clean_linker_0, # of connection points: 2
#     Edge 60, Type (0, 0), BuildingBlock: OJICUG_clean_linker_0, # of connection points: 2
#     Edge 61, Type (0, 0), BuildingBlock: OJICUG_clean_linker_0, # of connection points: 2
#     Edge 62, Type (0, 0), BuildingBlock: OJICUG_clean_linker_0, # of connection points: 2
#     Edge 63, Type (0, 0), BuildingBlock: OJICUG_clean_linker_0, # of connection points: 2
#     Edge 64, Type (0, 0), BuildingBlock: OJICUG_clean_linker_0, # of connection points: 2
#     Edge 65, Type (0, 0), BuildingBlock: OJICUG_clean_linker_0, # of connection points: 2
#     Edge 66, Type (0, 0), BuildingBlock: OJICUG_clean_linker_0, # of connection points: 2
#     Edge 67, Type (0, 0), BuildingBlock: OJICUG_clean_linker_0, # of connection points: 2
#     Edge 68, Type (0, 0), BuildingBlock: OJICUG_clean_linker_0, # of connection points: 2
#     Edge 69, Type (0, 0), BuildingBlock: OJICUG_clean_linker_0, # of connection points: 2
#     Edge 70, Type (0, 0), BuildingBlock: OJICUG_clean_linker_0, # of connection points: 2
#     Edge 71, Type (0, 0), BuildingBlock: OJICUG_clean_linker_0, # of connection points: 2
#     Edge 72, Type (0, 0), BuildingBlock: OJICUG_clean_linker_0, # of connection points: 2
#     Edge 73, Type (0, 0), BuildingBlock: OJICUG_clean_linker_0, # of connection points: 2
#     Edge 74, Type (0, 0), BuildingBlock: OJICUG_clean_linker_0, # of connection points: 2
#     Edge 75, Type (0, 0), BuildingBlock: OJICUG_clean_linker_0, # of connection points: 2
#     Edge 76, Type (0, 0), BuildingBlock: OJICUG_clean_linker_0, # of connection points: 2
#     Edge 77, Type (0, 0), BuildingBlock: OJICUG_clean_linker_0, # of connection points: 2
#     Edge 78, Type (0, 0), BuildingBlock: OJICUG_clean_linker_0, # of connection points: 2
#     Edge 79, Type (0, 0), BuildingBlock: OJICUG_clean_linker_0, # of connection points: 2
#     Edge 80, Type (0, 0), BuildingBlock: OJICUG_clean_linker_0, # of connection points: 2
#     Edge 81, Type (0, 0), BuildingBlock: OJICUG_clean_linker_0, # of connection points: 2
#     Edge 82, Type (0, 0), BuildingBlock: OJICUG_clean_linker_0, # of connection points: 2
#     Edge 83, Type (0, 0), BuildingBlock: OJICUG_clean_linker_0, # of connection points: 2
#     Edge 84, Type (0, 0), BuildingBlock: OJICUG_clean_linker_0, # of connection points: 2
#     Edge 85, Type (0, 0), BuildingBlock: OJICUG_clean_linker_0, # of connection points: 2
#     Edge 86, Type (0, 0), BuildingBlock: OJICUG_clean_linker_0, # of connection points: 2
#     Edge 87, Type (0, 0), BuildingBlock: OJICUG_clean_linker_0, # of connection points: 2
#     Edge 88, Type (0, 0), BuildingBlock: OJICUG_clean_linker_0, # of connection points: 2
#     Edge 89, Type (0, 0), BuildingBlock: OJICUG_clean_linker_0, # of connection points: 2
#     Edge 90, Type (0, 0), BuildingBlock: OJICUG_clean_linker_0, # of connection points: 2
#     Edge 91, Type (0, 0), BuildingBlock: OJICUG_clean_linker_0, # of connection points: 2
#     Edge 92, Type (0, 0), BuildingBlock: OJICUG_clean_linker_0, # of connection points: 2
#     Edge 93, Type (0, 0), BuildingBlock: OJICUG_clean_linker_0, # of connection points: 2
#     Edge 94, Type (0, 0), BuildingBlock: OJICUG_clean_linker_0, # of connection points: 2
#     Edge 95, Type (0, 0), BuildingBlock: OJICUG_clean_linker_0, # of connection points: 2
# Relax obj value: 0.135
# Max RMSD: 0.073
# Mean RMSD: 0.073
data_MOF--net-pem--node1-UXUYUI_clean_sbu_0--edge1-OJICUG_clean_linker_0
_symmetry_space_group_name_H-M    P1
_symmetry_Int_Tables_number       1
_symmetry_cell_setting            triclinic
loop_
_symmetry_equiv_pos_as_xyz
'x, y, z'
_cell_length_a     51.46415
_cell_length_b     51.14029
_cell_length_c     51.115135
_cell_angle_alpha  90.12149
_cell_angle_beta   90.018537
_cell_angle_gamma 89.982639
loop_
_atom_site_label
_atom_site_type_symbol
_atom_site_fract_x
_atom_site_fract_y
_atom_site_fract_z
_atom_type_partial_charge
Li0 Li 0.0624 0.12513 0.11117 0.0
Li1 Li 0.08765 0.08363 0.12696 0.0
Li2 Li 0.10709 0.11603 0.09098 0.0
Li3 Li 0.06959 0.08716 0.08288 0.0
C4 C 0.08942 0.12716 0.15654 0.0
N5 N 0.07517 0.12992 0.20885 0.0
C6 C 0.06352 0.1235 0.16417 0.0
C7 C 0.10781 0.13208 0.17572 0.0
C8 C 0.05665 0.12532 0.19052 0.0
C9 C 0.10045 0.13314 0.20205 0.0
C10 C 0.029 0.07607 0.12631 0.0
C11 C 0.00723 0.03772 0.14288 0.0
N12 N 0.9853 0.05207 0.14664 0.0
C13 C 0.0062 0.09039 0.13034 0.0
C14 C 0.02949 0.04949 0.13268 0.0
C15 C 0.98435 0.07794 0.14065 0.0
C16 C 0.01793 0.15447 0.0971 0.0
N17 N 0.0369 0.15392 0.11567 0.0
C18 C 0.01935 0.19301 0.1351 0.0
C19 C 0.03779 0.17277 0.1346 0.0
C20 C 0.99995 0.19422 0.11575 0.0
C21 C 0.99946 0.17453 0.0966 0.0
H22 H 0.01689 0.13901 0.08276 0.0
H23 H 0.05316 0.17268 0.14899 0.0
C24 C 0.1192 0.0436 0.15182 0.0
N25 N 0.09635 0.05677 0.15473 0.0
C26 C 0.12683 0.02396 0.1695 0.0
C27 C 0.08667 0.03019 0.19266 0.0
C28 C 0.08008 0.05022 0.17477 0.0
C29 C 0.11083 0.017 0.1908 0.0
H30 H 0.13168 0.04829 0.13558 0.0
H31 H 0.0619 0.06059 0.17708 0.0
C32 C 0.06676 0.13893 0.05427 0.0
N33 N 0.05178 0.17008 0.01284 0.0
C34 C 0.04549 0.13184 0.0388 0.0
C35 C 0.08061 0.16169 0.04843 0.0
C36 C 0.03816 0.14791 0.01802 0.0
C37 C 0.07269 0.17722 0.02747 0.0
C38 C 0.10887 0.05309 0.08093 0.0
C39 C 0.12565 0.05071 0.05956 0.0
C40 C 0.0952 0.03119 0.08959 0.0
C41 C 0.12808 0.02659 0.04696 0.0
C42 C 0.09804 0.00742 0.07644 0.0
N43 N 0.11428 0.00563 0.05553 0.0
C44 C 0.1562 0.14544 0.07311 0.0
C45 C 0.13347 0.11866 0.0433 0.0
C46 C 0.17532 0.15076 0.05389 0.0
N47 N 0.13585 0.12918 0.06768 0.0
C48 C 0.15247 0.12254 0.02406 0.0
C49 C 0.1741 0.13847 0.02916 0.0
H50 H 0.15793 0.15392 0.09239 0.0
H51 H 0.11687 0.10658 0.0389 0.0
C52 C 0.03401 0.05362 0.06209 0.0
N53 N 0.05576 0.0673 0.05643 0.0
C54 C 0.02581 0.03416 0.04541 0.0
C55 C 0.06129 0.04474 0.01607 0.0
C56 C 0.06889 0.06413 0.03356 0.0
C57 C 0.04013 0.02904 0.02269 0.0
H58 H 0.0234 0.05728 0.07978 0.0
H59 H 0.08585 0.0758 0.0295 0.0
O60 O 0.09743 0.12314 0.13116 0.0
O61 O 0.05062 0.0881 0.11624 0.0
O62 O 0.07426 0.12345 0.07472 0.0
O63 O 0.10545 0.07675 0.09308 0.0
H64 H 0.04848 0.11977 0.15024 0.0
H65 H 0.12782 0.13321 0.17016 0.0
H66 H 0.03662 0.12279 0.1964 0.0
H67 H 0.11489 0.13587 0.21716 0.0
H68 H 0.0074 0.01717 0.14785 0.0
H69 H 0.00534 0.11094 0.12571 0.0
H70 H 0.0468 0.03798 0.12986 0.0
H71 H 0.96663 0.08887 0.14391 0.0
H72 H 0.02057 0.20786 0.1502 0.0
H73 H 0.98451 0.17426 0.08168 0.0
H74 H 0.14521 0.01425 0.16618 0.0
H75 H 0.07348 0.02629 0.20864 0.0
H76 H 0.03454 0.1143 0.04299 0.0
H77 H 0.09744 0.16729 0.05976 0.0
H78 H 0.02162 0.14275 0.00601 0.0
H79 H 0.08321 0.19491 0.0228 0.0
H80 H 0.13696 0.06714 0.05291 0.0
H81 H 0.08238 0.03259 0.10617 0.0
H82 H 0.14098 0.02455 0.03038 0.0
H83 H 0.08734 0.9904 0.08283 0.0
H84 H 0.19141 0.16355 0.05868 0.0
H85 H 0.15014 0.11316 0.00519 0.0
H86 H 0.00853 0.02306 0.05029 0.0
H87 H 0.07205 0.04159 0.99813 0.0
Li88 Li 0.19201 0.8652 0.38284 0.0
Li89 Li 0.16808 0.87824 0.33963 0.0
Li90 Li 0.14623 0.84406 0.37329 0.0
Li91 Li 0.18532 0.83467 0.3473 0.0
C92 C 0.1645 0.9104 0.3812 0.0
N93 N 0.17884 0.96272 0.38266 0.0
C94 C 0.1906 0.91778 0.37905 0.0
C95 C 0.14593 0.92984 0.38341 0.0
C96 C 0.19752 0.94414 0.38027 0.0
C97 C 0.15333 0.95615 0.38403 0.0
C98 C 0.22646 0.87613 0.3328 0.0
C99 C 0.24952 0.88372 0.29241 0.0
N100 N 0.26955 0.89436 0.30611 0.0
C101 C 0.24746 0.88692 0.34647 0.0
C102 C 0.22764 0.87438 0.30554 0.0
C103 C 0.26898 0.89612 0.33264 0.0
C104 C 0.23805 0.85449 0.41105 0.0
N105 N 0.21765 0.87144 0.41125 0.0
C106 C 0.23442 0.89142 0.45042 0.0
C107 C 0.21581 0.89005 0.43033 0.0
C108 C 0.25488 0.87316 0.45133 0.0
C109 C 0.25661 0.85471 0.43105 0.0
H110 H 0.24007 0.84081 0.39513 0.0
H111 H 0.19959 0.90349 0.43044 0.0
C112 C 0.13723 0.90188 0.29826 0.0
N113 N 0.16018 0.90486 0.31124 0.0
C114 C 0.12989 0.91878 0.27785 0.0
C115 C 0.17037 0.94155 0.28318 0.0
C116 C 0.17685 0.9242 0.30375 0.0
C117 C 0.14616 0.93956 0.27007 0.0
H118 H 0.12445 0.88617 0.30368 0.0
H119 H 0.19522 0.9264 0.31382 0.0
C120 C 0.18733 0.80817 0.39853 0.0
N121 N 0.20366 0.76571 0.42763 0.0
C122 C 0.21108 0.79608 0.39303 0.0
C123 C 0.17184 0.79849 0.41879 0.0
C124 C 0.21901 0.77471 0.40797 0.0
C125 C 0.18043 0.77707 0.43328 0.0
C126 C 0.14669 0.83182 0.31056 0.0
C127 C 0.13024 0.81016 0.30855 0.0
C128 C 0.1591 0.84113 0.28817 0.0
C129 C 0.12714 0.79777 0.28438 0.0
C130 C 0.15552 0.82828 0.26433 0.0
N131 N 0.13978 0.80698 0.26295 0.0
C132 C 0.09365 0.82505 0.39765 0.0
C133 C 0.12187 0.79502 0.37751 0.0
C134 C 0.0751 0.80488 0.40173 0.0
N135 N 0.11662 0.81998 0.38521 0.0
C136 C 0.10357 0.77485 0.3798 0.0
C137 C 0.0795 0.77952 0.39171 0.0
H138 H 0.08937 0.84471 0.404 0.0
H139 H 0.14042 0.79076 0.36914 0.0
C140 C 0.22413 0.8073 0.3225 0.0
N141 N 0.19956 0.80628 0.33185 0.0
C142 C 0.23321 0.78692 0.30734 0.0
C143 C 0.19242 0.76405 0.31408 0.0
C144 C 0.18431 0.78479 0.32926 0.0
C145 C 0.21651 0.7659 0.30213 0.0
H146 H 0.23618 0.82418 0.32602 0.0
H147 H 0.16524 0.7844 0.33742 0.0
O148 O 0.15674 0.88481 0.37824 0.0
O149 O 0.20503 0.86737 0.34616 0.0
O150 O 0.17905 0.82917 0.38413 0.0
O151 O 0.15029 0.84412 0.33415 0.0
H152 H 0.20561 0.90364 0.37649 0.0
H153 H 0.12589 0.92435 0.38287 0.0
H154 H 0.21772 0.94982 0.37895 0.0
H155 H 0.13879 0.97138 0.3851 0.0
H156 H 0.2506 0.88243 0.27131 0.0
H157 H 0.24726 0.88828 0.36757 0.0
H158 H 0.21211 0.86559 0.29454 0.0
H159 H 0.28524 0.90462 0.34301 0.0
H160 H 0.23243 0.90623 0.46543 0.0
H161 H 0.2725 0.84083 0.43033 0.0
H162 H 0.11143 0.91534 0.26833 0.0
H163 H 0.18379 0.95716 0.27865 0.0
H164 H 0.2234 0.8031 0.37747 0.0
H165 H 0.15335 0.80738 0.42341 0.0
H166 H 0.23739 0.76526 0.40393 0.0
H167 H 0.16863 0.76947 0.44902 0.0
H168 H 0.11983 0.803 0.3254 0.0
H169 H 0.17103 0.85835 0.28906 0.0
H170 H 0.11459 0.7809 0.28266 0.0
H171 H 0.16514 0.83533 0.24691 0.0
H172 H 0.0571 0.80929 0.41173 0.0
H173 H 0.10833 0.75558 0.37238 0.0
H174 H 0.25224 0.78828 0.29836 0.0
H175 H 0.17941 0.74784 0.31018 0.0
Li176 Li 0.40809 0.92923 0.63112 0.0
Li177 Li 0.44519 0.89159 0.61455 0.0
Li178 Li 0.4376 0.93075 0.59031 0.0
Li179 Li 0.40391 0.89714 0.58985 0.0
C180 C 0.46988 0.94403 0.63563 0.0
N181 N 0.51322 0.97127 0.65246 0.0
C182 C 0.49412 0.93183 0.63651 0.0
C183 C 0.46759 0.96992 0.64411 0.0
C184 C 0.51583 0.94591 0.64489 0.0
C185 C 0.48973 0.98344 0.65228 0.0
C186 C 0.41939 0.8725 0.64952 0.0
C187 C 0.42052 0.83309 0.68175 0.0
N188 N 0.44141 0.84501 0.69267 0.0
C189 C 0.44033 0.88229 0.66407 0.0
C190 C 0.40734 0.84844 0.65875 0.0
C191 C 0.4509 0.86854 0.68507 0.0
C192 C 0.36121 0.94669 0.67078 0.0
N193 N 0.38364 0.9534 0.65726 0.0
C194 C 0.38315 0.9933 0.68247 0.0
C195 C 0.39237 0.97815 0.66139 0.0
C196 C 0.36758 0.98189 0.7027 0.0
C197 C 0.35428 0.95927 0.69482 0.0
H198 H 0.35112 0.92886 0.66621 0.0
H199 H 0.40731 0.98607 0.64909 0.0
C200 C 0.49696 0.8662 0.60624 0.0
N201 N 0.4733 0.86252 0.6179 0.0
C202 C 0.5161 0.84636 0.60612 0.0
C203 C 0.48654 0.8184 0.62911 0.0
C204 C 0.46781 0.83838 0.62804 0.0
C205 C 0.51117 0.82216 0.61812 0.0
H206 H 0.501 0.88443 0.59639 0.0
H207 H 0.44867 0.83379 0.63465 0.0
C208 C 0.39612 0.96032 0.58149 0.0
N209 N 0.38879 0.00799 0.55714 0.0
C210 C 0.37925 0.96243 0.56012 0.0
C211 C 0.40878 0.98264 0.59076 0.0
C212 C 0.37587 0.98664 0.54805 0.0
C213 C 0.40503 0.00649 0.57808 0.0
C214 C 0.44977 0.87908 0.55998 0.0
C215 C 0.47232 0.8866 0.54681 0.0
C216 C 0.43827 0.85499 0.5544 0.0
C217 C 0.48314 0.86967 0.52831 0.0
C218 C 0.44967 0.83861 0.53579 0.0
N219 N 0.47169 0.84623 0.52322 0.0
C220 C 0.47035 0.97095 0.57368 0.0
C221 C 0.44247 0.95118 0.54231 0.0
C222 C 0.47709 0.99005 0.55598 0.0
N223 N 0.45273 0.95261 0.56676 0.0
C224 C 0.44849 0.97006 0.52393 0.0
C225 C 0.46546 0.99005 0.53113 0.0
H226 H 0.4787 0.97122 0.59292 0.0
H227 H 0.42884 0.93594 0.53751 0.0
C228 C 0.35995 0.86425 0.56931 0.0
N229 N 0.37821 0.88305 0.56513 0.0
C230 C 0.34002 0.86001 0.55086 0.0
C231 C 0.35908 0.8932 0.5236 0.0
C232 C 0.3788 0.89623 0.5421 0.0
C233 C 0.33865 0.87567 0.52825 0.0
H234 H 0.36034 0.85311 0.58718 0.0
H235 H 0.39403 0.9102 0.53861 0.0
O236 O 0.44843 0.93033 0.62754 0.0
O237 O 0.40787 0.88658 0.62944 0.0
O238 O 0.39997 0.93667 0.59354 0.0
O239 O 0.43849 0.89565 0.5776 0.0
H240 H 0.49611 0.91157 0.63134 0.0
H241 H 0.44912 0.9797 0.64399 0.0
H242 H 0.5347 0.93662 0.64555 0.0
H243 H 0.48822 1.00362 0.65849 0.0
H244 H 0.40905 0.83718 0.6698 0.0
H245 H 0.44852 0.90097 0.66023 0.0
H246 H 0.38852 0.84663 0.64434 0.0
H247 H 0.46727 0.87678 0.6955 0.0
H248 H 0.39153 0.01255 0.68469 0.0
H249 H 0.34005 0.9504 0.70761 0.0
H250 H 0.53467 0.85002 0.59687 0.0
H251 H 0.48146 0.79977 0.63779 0.0
H252 H 0.36824 0.94581 0.55336 0.0
H253 H 0.42211 0.98133 0.60697 0.0
H254 H 0.36285 0.98849 0.53154 0.0
H255 H 0.41514 0.02379 0.5848 0.0
H256 H 0.48136 0.90528 0.55085 0.0
H257 H 0.42059 0.84913 0.5641 0.0
H258 H 0.50062 0.8752 0.51796 0.0
H259 H 0.44095 0.8199 0.53125 0.0
H260 H 0.49143 0.00454 0.56159 0.0
H261 H 0.44 0.96919 0.50455 0.0
H262 H 0.32511 0.84568 0.55493 0.0
H263 H 0.35963 0.90492 0.50598 0.0
Li264 Li 0.34537 0.14463 0.83051 0.0
Li265 Li 0.31068 0.15964 0.87013 0.0
Li266 Li 0.31941 0.18738 0.83254 0.0
Li267 Li 0.35342 0.18184 0.86544 0.0
C268 C 0.28543 0.14159 0.81653 0.0
N269 N 0.24365 0.12038 0.79016 0.0
C270 C 0.26024 0.14513 0.82613 0.0
C271 C 0.28941 0.12719 0.79367 0.0
C272 C 0.23936 0.13421 0.81251 0.0
C273 C 0.26802 0.11672 0.78053 0.0
C274 C 0.33401 0.11617 0.8747 0.0
C275 C 0.33741 0.07052 0.88671 0.0
N276 N 0.31225 0.06636 0.88024 0.0
C277 C 0.30773 0.11107 0.86853 0.0
C278 C 0.34839 0.09552 0.88425 0.0
C279 C 0.29722 0.08613 0.87143 0.0
C280 C 0.38696 0.10467 0.81534 0.0
N281 N 0.36758 0.1198 0.80517 0.0
C282 C 0.37912 0.10136 0.76303 0.0
C283 C 0.36515 0.11949 0.7786 0.0
C284 C 0.39402 0.08083 0.77447 0.0
C285 C 0.40081 0.08557 0.8005 0.0
H286 H 0.38811 0.1033 0.836 0.0
H287 H 0.35192 0.13265 0.76904 0.0
C288 C 0.26246 0.16908 0.90182 0.0
N289 N 0.28401 0.15355 0.90025 0.0
C290 C 0.24534 0.16757 0.92338 0.0
C291 C 0.27165 0.13317 0.94117 0.0
C292 C 0.28864 0.13584 0.91976 0.0
C293 C 0.24972 0.14936 0.94353 0.0
H294 H 0.25861 0.18307 0.88649 0.0
H295 H 0.30585 0.12383 0.91928 0.0
C296 C 0.36172 0.19405 0.80358 0.0
N297 N 0.36986 0.22064 0.7573 0.0
C298 C 0.37808 0.21587 0.80301 0.0
C299 C 0.34922 0.18606 0.78068 0.0
C300 C 0.38207 0.22894 0.7794 0.0
C301 C 0.35363 0.19967 0.75746 0.0
C302 C 0.30968 0.21213 0.88824 0.0
C303 C 0.28888 0.22887 0.88311 0.0
C304 C 0.32064 0.21139 0.91322 0.0
C305 C 0.27904 0.24439 0.90331 0.0
C306 C 0.31028 0.22724 0.93289 0.0
N307 N 0.28984 0.24326 0.92758 0.0
C308 C 0.28829 0.20371 0.79262 0.0
C309 C 0.31747 0.23583 0.80892 0.0
C310 C 0.28395 0.21822 0.77046 0.0
N311 N 0.30568 0.21211 0.81059 0.0
C312 C 0.31367 0.25119 0.78683 0.0
C313 C 0.29758 0.24166 0.76692 0.0
H314 H 0.2788 0.1852 0.79459 0.0
H315 H 0.33122 0.24183 0.82373 0.0
C316 C 0.40302 0.20004 0.89325 0.0
N317 N 0.38063 0.20594 0.88022 0.0
C318 C 0.42228 0.2193 0.89742 0.0
C319 C 0.39495 0.25048 0.87548 0.0
C320 C 0.37625 0.23087 0.87211 0.0
C321 C 0.41876 0.24508 0.88801 0.0
H322 H 0.40658 0.18015 0.89928 0.0
H323 H 0.3586 0.23528 0.86155 0.0
O324 O 0.30627 0.15147 0.82993 0.0
O325 O 0.34583 0.14059 0.87215 0.0
O326 O 0.35689 0.18128 0.82659 0.0
O327 O 0.31943 0.19675 0.86876 0.0
H328 H 0.25691 0.15609 0.84395 0.0
H329 H 0.30881 0.12408 0.7862 0.0
H330 H 0.21975 0.1367 0.81972 0.0
H331 H 0.2708 0.10559 0.76273 0.0
H332 H 0.34887 0.05398 0.89234 0.0
H333 H 0.29415 0.12574 0.86346 0.0
H334 H 0.36803 0.09936 0.88875 0.0
H335 H 0.27697 0.0826 0.86695 0.0
H336 H 0.37709 0.10326 0.74213 0.0
H337 H 0.41361 0.0722 0.81059 0.0
H338 H 0.22857 0.18035 0.92404 0.0
H339 H 0.2761 0.11891 0.95617 0.0
H340 H 0.38774 0.22258 0.82053 0.0
H341 H 0.33521 0.17036 0.7812 0.0
H342 H 0.39478 0.24576 0.77869 0.0
H343 H 0.34379 0.19383 0.73968 0.0
H344 H 0.2803 0.22966 0.86378 0.0
H345 H 0.33702 0.19882 0.91731 0.0
H346 H 0.26281 0.25734 0.8997 0.0
H347 H 0.3185 0.22683 0.95236 0.0
H348 H 0.27001 0.21115 0.7562 0.0
H349 H 0.32345 0.26985 0.78501 0.0
H350 H 0.43988 0.21375 0.90758 0.0
H351 H 0.39091 0.26944 0.86711 0.0
Li352 Li 0.06528 0.92263 0.42876 0.0
Li353 Li 0.10401 0.89622 0.41721 0.0
Li354 Li 0.08143 0.9282 0.38356 0.0
Li355 Li 0.0578 0.88582 0.39824 0.0
C356 C 0.10541 0.95903 0.42742 0.0
N357 N 0.1164 0.00747 0.4487 0.0
C358 C 0.12829 0.96289 0.44168 0.0
C359 C 0.08843 0.97994 0.42357 0.0
C360 C 0.13344 0.98748 0.45236 0.0
C361 C 0.09421 0.00424 0.4346 0.0
C362 C 0.06618 0.87097 0.45564 0.0
C363 C 0.07578 0.83445 0.48381 0.0
N364 N 0.05469 0.84048 0.49866 0.0
C365 C 0.04472 0.87693 0.47131 0.0
C366 C 0.08195 0.84967 0.46204 0.0
C367 C 0.03919 0.86123 0.49293 0.0
C368 C 0.02845 0.95005 0.45533 0.0
N369 N 0.05291 0.94055 0.45697 0.0
C370 C 0.06275 0.96719 0.49382 0.0
C371 C 0.06957 0.94754 0.47642 0.0
C372 C 0.03858 0.97894 0.49081 0.0
C373 C 0.02078 0.96963 0.47224 0.0
H374 H 0.01551 0.94331 0.44014 0.0
H375 H 0.08875 0.93933 0.47729 0.0
C376 C 0.15147 0.86475 0.43611 0.0
N377 N 0.13395 0.88447 0.4396 0.0
C378 C 0.17036 0.85915 0.45553 0.0
C379 C 0.15273 0.89381 0.48185 0.0
C380 C 0.13399 0.89812 0.46246 0.0
C381 C 0.17175 0.87439 0.47859 0.0
H382 H 0.1507 0.85327 0.41845 0.0
H383 H 0.11924 0.91257 0.46571 0.0
C384 C 0.02313 0.9333 0.38484 0.0
N385 N 0.97921 0.95446 0.36204 0.0
C386 C 0.00712 0.91782 0.36906 0.0
C387 C 0.01673 0.95954 0.38905 0.0
C388 C 0.98502 0.92887 0.35771 0.0
C389 C 0.99449 0.96988 0.37734 0.0
C390 C 0.08414 0.88448 0.35226 0.0
C391 C 0.06648 0.90148 0.34024 0.0
C392 C 0.09156 0.86186 0.3389 0.0
C393 C 0.05714 0.89598 0.31522 0.0
C394 C 0.08134 0.85665 0.31407 0.0
N395 N 0.06462 0.87377 0.30276 0.0
C396 C 0.10967 0.95114 0.33904 0.0
C397 C 0.07697 0.9796 0.35397 0.0
C398 C 0.11948 0.9706 0.32247 0.0
N399 N 0.08954 0.95607 0.35563 0.0
C400 C 0.08508 0.99902 0.33597 0.0
C401 C 0.10714 0.99489 0.32011 0.0
H402 H 0.11898 0.93227 0.33932 0.0
H403 H 0.06078 0.98365 0.36675 0.0
C404 C 0.01533 0.85359 0.41297 0.0
N405 N 0.0325 0.85707 0.39301 0.0
C406 C 0.99793 0.83251 0.413 0.0
C407 C 0.01479 0.81937 0.37104 0.0
C408 C 0.03212 0.84062 0.37198 0.0
C409 C 0.9975 0.81485 0.39192 0.0
H410 H 0.01505 0.86729 0.42901 0.0
H411 H 0.04554 0.84348 0.35611 0.0
O412 O 0.09952 0.93485 0.41753 0.0
O413 O 0.07187 0.88594 0.43425 0.0
O414 O 0.0447 0.92257 0.39634 0.0
O415 O 0.0922 0.88863 0.37762 0.0
H416 H 0.14218 0.94725 0.44413 0.0
H417 H 0.07075 0.97725 0.41261 0.0
H418 H 0.15103 0.99069 0.46349 0.0
H419 H 0.08102 0.0205 0.43204 0.0
H420 H 0.08778 0.81784 0.48889 0.0
H421 H 0.0322 0.89324 0.46665 0.0
H422 H 0.09879 0.84485 0.45037 0.0
H423 H 0.02254 0.86552 0.5051 0.0
H424 H 0.07644 0.9739 0.50847 0.0
H425 H 1.00159 0.97817 0.47027 0.0
H426 H 0.18436 0.84373 0.45205 0.0
H427 H 0.152 0.9055 0.49952 0.0
H428 H 0.01173 0.89749 0.36552 0.0
H429 H 0.02858 0.97182 0.40142 0.0
H430 H 0.97248 0.91709 0.34545 0.0
H431 H 0.98933 0.99015 0.38048 0.0
H432 H 0.05959 0.9187 0.34995 0.0
H433 H 0.10443 0.84808 0.34785 0.0
H434 H 0.04362 0.9092 0.30587 0.0
H435 H 0.08649 0.83896 0.30378 0.0
H436 H 0.13685 0.96674 0.31167 0.0
H437 H 0.07472 0.01743 0.33521 0.0
H438 H 0.98454 0.8304 0.4292 0.0
H439 H 0.01528 0.80634 0.35433 0.0
Li440 Li 0.32016 0.82185 0.67044 0.0
Li441 Li 0.35489 0.82767 0.63853 0.0
Li442 Li 0.34785 0.86424 0.67332 0.0
Li443 Li 0.31271 0.85128 0.6334 0.0
C444 C 0.3637 0.81534 0.70103 0.0
N445 N 0.37497 0.79247 0.74866 0.0
C446 C 0.38061 0.79397 0.70232 0.0
C447 C 0.35212 0.8246 0.72389 0.0
C448 C 0.38618 0.78278 0.72658 0.0
C449 C 0.3582 0.81299 0.74782 0.0
C450 C 0.31256 0.79739 0.61478 0.0
C451 C 0.31677 0.78001 0.57116 0.0
N452 N 0.29723 0.76286 0.57623 0.0
C453 C 0.29261 0.77956 0.61965 0.0
C454 C 0.32483 0.79761 0.59043 0.0
C455 C 0.28509 0.76229 0.59986 0.0
C456 C 0.27552 0.80885 0.69084 0.0
N457 N 0.29996 0.79932 0.68984 0.0
C458 C 0.2986 0.78678 0.73414 0.0
C459 C 0.31017 0.78531 0.70968 0.0
C460 C 0.27607 0.80229 0.73756 0.0
C461 C 0.26321 0.81105 0.71481 0.0
H462 H 0.26728 0.8181 0.67377 0.0
H463 H 0.32884 0.77594 0.70749 0.0
C464 C 0.40266 0.80944 0.6085 0.0
N465 N 0.38159 0.80357 0.62359 0.0
C466 C 0.42227 0.79061 0.60405 0.0
C467 C 0.39792 0.76002 0.63012 0.0
C468 C 0.37868 0.77909 0.63355 0.0
C469 C 0.42039 0.76571 0.61567 0.0
H470 H 0.405 0.82907 0.60115 0.0
H471 H 0.36188 0.77473 0.64549 0.0
C472 C 0.28868 0.86855 0.68856 0.0
N473 N 0.24924 0.89054 0.71798 0.0
C474 C 0.26357 0.87069 0.67822 0.0
C475 C 0.29374 0.8781 0.71364 0.0
C476 C 0.2439 0.88174 0.69344 0.0
C477 C 0.27354 0.88896 0.72829 0.0
C478 C 0.33771 0.89375 0.62838 0.0
C479 C 0.31202 0.90021 0.63558 0.0
C480 C 0.35211 0.9131 0.61628 0.0
C481 C 0.30227 0.92536 0.6319 0.0
C482 C 0.34177 0.93825 0.61274 0.0
N483 N 0.31732 0.94387 0.62072 0.0
C484 C 0.38956 0.90436 0.68805 0.0
C485 C 0.36853 0.88953 0.72521 0.0
C486 C 0.40321 0.92385 0.70258 0.0
N487 N 0.37045 0.8891 0.69857 0.0
C488 C 0.38242 0.90797 0.74044 0.0
C489 C 0.3965 0.92875 0.72858 0.0
H490 H 0.39076 0.90531 0.66736 0.0
H491 H 0.35576 0.87629 0.73519 0.0
C492 C 0.26438 0.842 0.60316 0.0
N493 N 0.28557 0.85804 0.60434 0.0
C494 C 0.24646 0.84357 0.58228 0.0
C495 C 0.27148 0.87879 0.56421 0.0
C496 C 0.28927 0.87609 0.58495 0.0
C497 C 0.24973 0.86226 0.56234 0.0
H498 H 0.26149 0.82755 0.61829 0.0
H499 H 0.30637 0.88827 0.58495 0.0
O500 O 0.35778 0.82662 0.6775 0.0
O501 O 0.32044 0.81414 0.63401 0.0
O502 O 0.30852 0.85869 0.67353 0.0
O503 O 0.34859 0.86898 0.63157 0.0
H504 H 0.38966 0.78625 0.68489 0.0
H505 H 0.33745 0.83958 0.72289 0.0
H506 H 0.39938 0.76637 0.72784 0.0
H507 H 0.34912 0.81991 0.76562 0.0
H508 H 0.32612 0.77994 0.55221 0.0
H509 H 0.28303 0.77911 0.63848 0.0
H510 H 0.34057 0.81101 0.58656 0.0
H511 H 0.26962 0.74839 0.60331 0.0
H512 H 0.30838 0.77688 0.7499 0.0
H513 H 0.24458 0.82069 0.71506 0.0
H514 H 0.43929 0.79589 0.59279 0.0
H515 H 0.39544 0.74105 0.63917 0.0
H516 H 0.25934 0.8639 0.65861 0.0
H517 H 0.31307 0.87744 0.72167 0.0
H518 H 0.2244 0.8834 0.68572 0.0
H519 H 0.27724 0.89632 0.7478 0.0
H520 H 0.29815 0.88629 0.64163 0.0
H521 H 0.37107 0.90816 0.61 0.0
H522 H 0.28247 0.92995 0.63733 0.0
H523 H 0.35307 0.95371 0.60452 0.0
H524 H 0.41579 0.93731 0.69234 0.0
H525 H 0.38058 0.90658 0.76143 0.0
H526 H 0.22994 0.83046 0.58197 0.0
H527 H 0.27515 0.89336 0.54933 0.0
Li528 Li 0.39969 0.11102 0.91307 0.0
Li529 Li 0.43239 0.07602 0.91129 0.0
Li530 Li 0.44192 0.11589 0.88846 0.0
Li531 Li 0.40365 0.07947 0.8709 0.0
C532 C 0.44526 0.12701 0.94366 0.0
N533 N 0.46589 0.15912 0.98182 0.0
C534 C 0.46624 0.11847 0.95873 0.0
C535 C 0.43468 0.15177 0.94805 0.0
C536 C 0.47643 0.13502 0.97792 0.0
C537 C 0.44541 0.16775 0.9674 0.0
C538 C 0.38906 0.04837 0.92 0.0
C539 C 0.39481 1.00173 0.92359 0.0
N540 N 0.3773 1.00123 0.9435 0.0
C541 C 0.37089 0.04734 0.94032 0.0
C542 C 0.40086 0.02533 0.91135 0.0
C543 C 0.36527 0.02336 0.95199 0.0
C544 C 0.35643 0.14497 0.93583 0.0
N545 N 0.3743 0.1255 0.93888 0.0
C546 C 0.35699 0.11606 0.98155 0.0
C547 C 0.37548 0.11226 0.96189 0.0
C548 C 0.337 0.13443 0.97828 0.0
C549 C 0.33776 0.15002 0.95554 0.0
H550 H 0.35619 0.15619 0.91798 0.0
H551 H 0.39028 0.0978 0.96468 0.0
C552 C 0.46565 0.03571 0.92849 0.0
N553 N 0.44667 0.05319 0.93389 0.0
C554 C 0.47472 0.01976 0.9482 0.0
C555 C 0.44368 0.03959 0.97802 0.0
C556 C 0.43566 0.05541 0.95787 0.0
C557 C 0.46391 0.02216 0.97329 0.0
H558 H 0.47432 0.03464 0.90942 0.0
H559 H 0.42092 0.0698 0.9613 0.0
C560 C 0.41682 0.13616 0.85355 0.0
N561 N 0.43874 0.16279 0.80975 0.0
C562 C 0.43738 0.12583 0.83878 0.0
C563 C 0.4054 0.16057 0.84447 0.0
C564 C 0.44785 0.13912 0.81743 0.0
C565 C 0.41842 0.17537 0.82103 0.0
C566 C 0.46549 0.06338 0.86745 0.0
C567 C 0.48994 0.07517 0.8684 0.0
C568 C 0.46326 0.03779 0.8581 0.0
C569 C 0.51182 0.06102 0.86064 0.0
C570 C 0.4856 0.02419 0.85063 0.0
N571 N 0.50923 0.03598 0.85205 0.0
C572 C 0.49361 0.14052 0.89991 0.0
C573 C 0.468 0.16771 0.87338 0.0
C574 C 0.51346 0.15968 0.90073 0.0
N575 N 0.47126 0.14424 0.88582 0.0
C576 C 0.48771 0.18674 0.87265 0.0
C577 C 0.51086 0.18312 0.88659 0.0
H578 H 0.49606 0.12273 0.91102 0.0
H579 H 0.44993 0.17263 0.86444 0.0
C580 C 0.35737 0.06242 0.82988 0.0
N581 N 0.37937 0.05564 0.84412 0.0
C582 C 0.35129 0.04992 0.80556 0.0
C583 C 0.37937 0.01566 0.81908 0.0
C584 C 0.38801 0.0308 0.84041 0.0
C585 C 0.3648 0.02724 0.79819 0.0
H586 H 0.34708 0.08026 0.83421 0.0
H587 H 0.40249 0.02282 0.85324 0.0
O588 O 0.43463 0.11088 0.92524 0.0
O589 O 0.39486 0.07173 0.90826 0.0
O590 O 0.40489 0.12234 0.87357 0.0
O591 O 0.44384 0.07726 0.87453 0.0
H592 H 0.47459 0.09929 0.95559 0.0
H593 H 0.41818 0.15843 0.93685 0.0
H594 H 0.4927 0.1287 0.98973 0.0
H595 H 0.43739 0.18698 0.97103 0.0
H596 H 0.40413 0.98382 0.91732 0.0
H597 H 0.36067 0.06468 0.94656 0.0
H598 H 0.41519 0.02583 0.89594 0.0
H599 H 0.35123 0.02231 0.96769 0.0
H600 H 0.35827 0.10434 0.99912 0.0
H601 H 0.32329 0.16503 0.95236 0.0
H602 H 0.49107 0.00699 0.94427 0.0
H603 H 0.43531 0.04198 0.99733 0.0
H604 H 0.44531 0.10705 0.8426 0.0
H605 H 0.3869 0.16286 0.85922 0.0
H606 H 0.4638 0.13038 0.80677 0.0
H607 H 0.40729 0.17178 0.83345 0.0
H608 H 0.49195 0.09515 0.87461 0.0
H609 H 0.44464 0.02833 0.85701 0.0
H610 H 0.53085 0.07 0.86132 0.0
H611 H 0.48413 0.00425 0.84369 0.0
H612 H 0.53084 0.15602 0.9121 0.0
H613 H 0.48441 0.20465 0.86188 0.0
H614 H 0.33763 0.0589 0.79222 0.0
H615 H 0.38768 0.99633 0.81726 0.0
Li616 Li 0.15165 0.16617 0.14356 0.0
Li617 Li 0.19046 0.17789 0.16996 0.0
Li618 Li 0.19779 0.14727 0.13279 0.0
Li619 Li 0.17422 0.13268 0.17546 0.0
C620 C 0.19062 0.20413 0.11799 0.0
N621 N 0.20443 0.24616 0.08716 0.0
C622 C 0.21305 0.21844 0.12368 0.0
C623 C 0.17506 0.21137 0.09681 0.0
C624 C 0.21974 0.23959 0.10782 0.0
C625 C 0.18242 0.23261 0.08139 0.0
C626 C 0.14957 0.17618 0.20608 0.0
C627 C 0.15922 0.18306 0.25172 0.0
N628 N 0.13693 0.19711 0.25428 0.0
C629 C 0.12659 0.19044 0.20923 0.0
C630 C 0.16585 0.17222 0.22754 0.0
C631 C 0.12059 0.20093 0.23372 0.0
C632 C 0.10203 0.18524 0.11517 0.0
N633 N 0.12169 0.18892 0.13272 0.0
C634 C 0.105 0.23192 0.14267 0.0
C635 C 0.12376 0.21225 0.14542 0.0
C636 C 0.084 0.22857 0.12547 0.0
C637 C 0.0833 0.20514 0.11077 0.0
H638 H 0.10075 0.16698 0.10467 0.0
H639 H 0.14004 0.21548 0.15819 0.0
C640 C 0.22802 0.20452 0.19643 0.0
N641 N 0.20304 0.20599 0.18834 0.0
C642 C 0.23641 0.22064 0.21641 0.0
C643 C 0.19397 0.24133 0.21725 0.0
C644 C 0.18643 0.22475 0.19714 0.0
C645 C 0.2188 0.23832 0.22756 0.0
H646 H 0.2409 0.18995 0.18831 0.0
H647 H 0.16678 0.22559 0.19006 0.0
C648 C 0.17179 0.10104 0.13255 0.0
N649 N 0.19186 0.05151 0.12307 0.0
C650 C 0.19007 0.08989 0.14951 0.0
C651 C 0.16375 0.0866 0.11083 0.0
C652 C 0.19975 0.06488 0.1446 0.0
C653 C 0.17435 0.06184 0.10615 0.0
C654 C 0.23286 0.13509 0.18078 0.0
C655 C 0.2498 0.11995 0.16567 0.0
C656 C 0.23857 0.13968 0.20713 0.0
C657 C 0.27215 0.10961 0.17721 0.0
C658 C 0.26109 0.12899 0.21795 0.0
N659 N 0.27729 0.11431 0.20289 0.0
C660 C 0.24205 0.16028 0.10117 0.0
C661 C 0.22128 0.12214 0.08571 0.0
C662 C 0.25945 0.15985 0.07998 0.0
N663 N 0.22301 0.14191 0.10358 0.0
C664 C 0.23848 0.12081 0.06432 0.0
C665 C 0.25787 0.13998 0.06099 0.0
H666 H 0.24381 0.17544 0.11577 0.0
H667 H 0.20619 0.10768 0.08751 0.0
C668 C 0.14541 0.08899 0.19876 0.0
N669 N 0.16591 0.10516 0.20343 0.0
C670 C 0.13541 0.07279 0.21846 0.0
C671 C 0.17016 0.08599 0.2466 0.0
C672 C 0.17856 0.10352 0.22691 0.0
C673 C 0.1478 0.0705 0.24277 0.0
H674 H 0.13605 0.08924 0.17989 0.0
H675 H 0.19504 0.11599 0.23073 0.0
O676 O 0.18375 0.18328 0.13318 0.0
O677 O 0.15622 0.16639 0.18206 0.0
O678 O 0.1633 0.1264 0.13604 0.0
O679 O 0.21099 0.1455 0.16959 0.0
H680 H 0.22534 0.21314 0.13999 0.0
H681 H 0.15745 0.20076 0.09228 0.0
H682 H 0.23713 0.25075 0.11191 0.0
H683 H 0.1706 0.23835 0.06486 0.0
H684 H 0.17185 0.18038 0.26841 0.0
H685 H 0.11327 0.19304 0.19312 0.0
H686 H 0.18363 0.16132 0.22539 0.0
H687 H 0.1029 0.21204 0.2364 0.0
H688 H 0.10712 0.24982 0.15383 0.0
H689 H 0.06784 0.20178 0.09679 0.0
H690 H 0.25605 0.21867 0.22385 0.0
H691 H 0.18038 0.25532 0.2254 0.0
H692 H 0.19703 0.10007 0.16639 0.0
H693 H 0.15004 0.09462 0.09733 0.0
H694 H 0.21378 0.05624 0.15776 0.0
H695 H 0.16879 0.05078 0.08906 0.0
H696 H 0.2457 0.11614 0.14526 0.0
H697 H 0.22599 0.1516 0.2191 0.0
H698 H 0.28542 0.09786 0.16573 0.0
H699 H 0.26573 0.13244 0.23831 0.0
H700 H 0.27434 0.17476 0.07881 0.0
H701 H 0.23622 0.10514 0.05023 0.0
H702 H 0.11789 0.06224 0.21472 0.0
H703 H 0.18058 0.08531 0.26499 0.0
Li704 Li 0.60713 0.39916 0.91827 0.0
Li705 Li 0.57586 0.43493 0.9139 0.0
Li706 Li 0.56801 0.3946 0.89019 0.0
Li707 Li 0.60764 0.42972 0.87646 0.0
C708 C 0.56584 0.38255 0.94664 0.0
N709 N 0.55485 0.34782 0.9864 0.0
C710 C 0.55675 0.39172 0.9707 0.0
C711 C 0.56973 0.35579 0.94291 0.0
C712 C 0.55126 0.37386 0.99055 0.0
C713 C 0.56389 0.3385 0.96318 0.0
C714 C 0.61947 0.46088 0.92736 0.0
C715 C 0.61508 0.50763 0.93194 0.0
N716 N 0.63149 0.5071 0.95277 0.0
C717 C 0.63639 0.46085 0.94877 0.0
C718 C 0.60882 0.48447 0.91888 0.0
C719 C 0.64218 0.48437 0.96137 0.0
C720 C 0.6489 0.36538 0.94241 0.0
N721 N 0.6303 0.38403 0.94617 0.0
C722 C 0.64677 0.39206 0.98955 0.0
C723 C 0.62845 0.39646 0.96968 0.0
C724 C 0.6671 0.37406 0.98581 0.0
C725 C 0.6674 0.35991 0.9621 0.0
H726 H 0.65011 0.35564 0.92371 0.0
H727 H 0.61348 0.41103 0.97255 0.0
C728 C 0.52952 0.4441 0.92789 0.0
N729 N 0.55329 0.45405 0.93353 0.0
C730 C 0.50981 0.4452 0.94603 0.0
C731 C 0.53907 0.46826 0.97524 0.0
C732 C 0.55854 0.46622 0.95652 0.0
C733 C 0.51479 0.45659 0.9703 0.0
H734 H 0.52682 0.43227 0.91077 0.0
H735 H 0.57811 0.47199 0.96143 0.0
C736 C 0.59406 0.37335 0.85795 0.0
N737 N 0.56921 0.34235 0.81878 0.0
C738 C 0.57308 0.38248 0.84299 0.0
C739 C 0.60398 0.34765 0.85163 0.0
C740 C 0.56142 0.36721 0.82367 0.0
C741 C 0.5894 0.33042 0.83093 0.0
C742 C 0.54773 0.44814 0.86653 0.0
C743 C 0.52452 0.43634 0.85848 0.0
C744 C 0.55041 0.47523 0.86434 0.0
C745 C 0.50418 0.45187 0.84928 0.0
C746 C 0.52969 0.4901 0.8549 0.0
N747 N 0.50715 0.47823 0.84771 0.0
C748 C 0.51415 0.37313 0.89315 0.0
C749 C 0.54505 0.34121 0.88207 0.0
C750 C 0.49457 0.35388 0.89453 0.0
N751 N 0.53907 0.36688 0.88649 0.0
C752 C 0.52602 0.32155 0.88218 0.0
C753 C 0.50005 0.32736 0.88874 0.0
H754 H 0.50941 0.39298 0.89848 0.0
H755 H 0.56487 0.33535 0.87963 0.0
C756 C 0.65632 0.4438 0.83875 0.0
N757 N 0.63435 0.45138 0.85236 0.0
C758 C 0.66662 0.45892 0.81761 0.0
C759 C 0.6384 0.49312 0.83157 0.0
C760 C 0.62685 0.47652 0.84987 0.0
C761 C 0.65693 0.48407 0.81246 0.0
H762 H 0.66375 0.42441 0.84115 0.0
H763 H 0.61086 0.48367 0.86134 0.0
O764 O 0.57151 0.39977 0.92705 0.0
O765 O 0.61367 0.43804 0.91458 0.0
O766 O 0.60571 0.38777 0.87787 0.0
O767 O 0.56762 0.43298 0.87607 0.0
H768 H 0.55412 0.4124 0.97409 0.0
H769 H 0.57743 0.34852 0.92467 0.0
H770 H 0.54418 0.3807 0.00928 0.0
H771 H 0.56669 0.3177 0.96049 0.0
H772 H 0.60674 0.52597 0.92562 0.0
H773 H 0.6456 0.44304 0.95518 0.0
H774 H 0.59526 0.4848 0.90293 0.0
H775 H 0.65533 0.48458 0.97788 0.0
H776 H 0.64523 0.40306 0.00762 0.0
H777 H 0.68254 0.3457 0.95828 0.0
H778 H 0.49157 0.4355 0.94179 0.0
H779 H 0.54337 0.47753 0.99381 0.0
H780 H 0.56576 0.40179 0.8451 0.0
H781 H 0.62248 0.34678 0.8664 0.0
H782 H 0.54533 0.37521 0.81264 0.0
H783 H 0.60161 0.33492 0.84217 0.0
H784 H 0.52221 0.41538 0.85933 0.0
H785 H 0.5681 0.48488 0.86987 0.0
H786 H 0.48607 0.44295 0.84328 0.0
H787 H 0.53153 0.5111 0.8533 0.0
H788 H 0.47549 0.36 0.90086 0.0
H789 H 0.53215 0.30189 0.87749 0.0
H790 H 0.68116 0.45043 0.80486 0.0
H791 H 0.62971 0.51228 0.83151 0.0
Li792 Li 0.81668 0.32303 0.17622 0.0
Li793 Li 0.8487 0.32684 0.14195 0.0
Li794 Li 0.84579 0.36354 0.17731 0.0
Li795 Li 0.80865 0.35192 0.13922 0.0
C796 C 0.85813 0.31347 0.20424 0.0
N797 N 0.86291 0.28813 0.25179 0.0
C798 C 0.87106 0.28945 0.20582 0.0
C799 C 0.84669 0.32387 0.22669 0.0
C800 C 0.8736 0.27716 0.23006 0.0
C801 C 0.84953 0.31101 0.25059 0.0
C802 C 0.80519 0.29802 0.12101 0.0
C803 C 0.80637 0.2825 0.07651 0.0
N804 N 0.78844 0.26397 0.08264 0.0
C805 C 0.78681 0.27886 0.12692 0.0
C806 C 0.81508 0.29991 0.09566 0.0
C807 C 0.77855 0.26183 0.10722 0.0
C808 C 0.78761 0.30792 0.21854 0.0
N809 N 0.80198 0.29896 0.19827 0.0
C810 C 0.80855 0.25791 0.21895 0.0
C811 C 0.81144 0.27416 0.19739 0.0
C812 C 0.7956 0.26759 0.24101 0.0
C813 C 0.78413 0.29247 0.24025 0.0
H814 H 0.78036 0.32757 0.21885 0.0
H815 H 0.82293 0.26783 0.18087 0.0
C816 C 0.89232 0.3093 0.10717 0.0
N817 N 0.87281 0.30285 0.12399 0.0
C818 C 0.91296 0.29177 0.10277 0.0
C819 C 0.89203 0.26095 0.13154 0.0
C820 C 0.87173 0.2787 0.13492 0.0
C821 C 0.91365 0.2678 0.11628 0.0
H822 H 0.89315 0.32882 0.09918 0.0
H823 H 0.85591 0.27394 0.14794 0.0
C824 C 0.78575 0.36975 0.19323 0.0
N825 N 0.74427 0.39091 0.22012 0.0
C826 C 0.7604 0.36553 0.18438 0.0
C827 C 0.79005 0.38483 0.2156 0.0
C828 C 0.73967 0.37643 0.19825 0.0
C829 C 0.76881 0.39526 0.22902 0.0
C830 C 0.83551 0.39307 0.13234 0.0
C831 C 0.81049 0.40096 0.14047 0.0
C832 C 0.85057 0.41145 0.11953 0.0
C833 C 0.80214 0.42666 0.13704 0.0
C834 C 0.84165 0.43718 0.11639 0.0
N835 N 0.81787 0.44423 0.12528 0.0
C836 C 0.89056 0.40006 0.19216 0.0
C837 C 0.86782 0.38685 0.22895 0.0
C838 C 0.90516 0.41866 0.20687 0.0
N839 N 0.87015 0.38639 0.20237 0.0
C840 C 0.88334 0.40351 0.24449 0.0
C841 C 0.89889 0.42343 0.23304 0.0
H842 H 0.89203 0.40109 0.1715 0.0
H843 H 0.8535 0.37513 0.23866 0.0
C844 C 0.75951 0.34424 0.11044 0.0
N845 N 0.78143 0.3593 0.1107 0.0
C846 C 0.74141 0.34586 0.08978 0.0
C847 C 0.76807 0.37874 0.0697 0.0
C848 C 0.78596 0.37607 0.09038 0.0
C849 C 0.74541 0.36342 0.069 0.0
H850 H 0.75628 0.33033 0.12599 0.0
H851 H 0.80379 0.38711 0.08958 0.0
O852 O 0.85487 0.3259 0.1807 0.0
O853 O 0.81374 0.31454 0.14015 0.0
O854 O 0.8064 0.35983 0.17961 0.0
O855 O 0.84519 0.36785 0.13547 0.0
H856 H 0.87885 0.28012 0.18858 0.0
H857 H 0.83422 0.34074 0.22522 0.0
H858 H 0.88378 0.25872 0.23153 0.0
H859 H 0.84054 0.31889 0.26803 0.0
H860 H 0.81392 0.28369 0.05679 0.0
H861 H 0.779 0.27721 0.14651 0.0
H862 H 0.82947 0.31449 0.09092 0.0
H863 H 0.7643 0.24689 0.11149 0.0
H864 H 0.81659 0.23834 0.21864 0.0
H865 H 0.77257 0.3 0.2563 0.0
H866 H 0.92912 0.29779 0.09063 0.0
H867 H 0.89125 0.24237 0.14164 0.0
H868 H 0.75681 0.354 0.16702 0.0
H869 H 0.8096 0.38847 0.22248 0.0
H870 H 0.71993 0.37338 0.19163 0.0
H871 H 0.77184 0.4069 0.24644 0.0
H872 H 0.79618 0.38785 0.14746 0.0
H873 H 0.86884 0.40526 0.11215 0.0
H874 H 0.78289 0.43247 0.14325 0.0
H875 H 0.85347 0.45187 0.10744 0.0
H876 H 0.91833 0.43157 0.19668 0.0
H877 H 0.88165 0.40139 0.2654 0.0
H878 H 0.72429 0.33356 0.0902 0.0
H879 H 0.77239 0.39219 0.05394 0.0
Li880 Li 0.89959 0.61163 0.41896 0.0
Li881 Li 0.93542 0.57959 0.42156 0.0
Li882 Li 0.94268 0.61844 0.39584 0.0
Li883 Li 0.90813 0.57856 0.37817 0.0
C884 C 0.94475 0.63173 0.45047 0.0
N885 N 0.96636 0.66457 0.4874 0.0
C886 C 0.96751 0.62445 0.46342 0.0
C887 C 0.93288 0.65558 0.45633 0.0
C888 C 0.97818 0.64138 0.48201 0.0
C889 C 0.94413 0.67195 0.47505 0.0
C890 C 0.894 0.54879 0.42897 0.0
C891 C 0.90229 0.50278 0.43483 0.0
N892 N 0.88508 0.50237 0.45501 0.0
C893 C 0.87604 0.5478 0.44948 0.0
C894 C 0.90683 0.52598 0.42125 0.0
C895 C 0.8719 0.5242 0.46247 0.0
C896 C 0.85245 0.64196 0.43968 0.0
N897 N 0.87247 0.62499 0.44404 0.0
C898 C 0.85701 0.61804 0.48807 0.0
C899 C 0.87534 0.61402 0.46814 0.0
C900 C 0.83564 0.63456 0.48397 0.0
C901 C 0.83399 0.64727 0.45959 0.0
H902 H 0.85047 0.65106 0.42074 0.0
H903 H 0.89163 0.60132 0.47173 0.0
C904 C 0.96976 0.54216 0.43976 0.0
N905 N 0.9502 0.55851 0.44639 0.0
C906 C 0.97586 0.5216 0.45599 0.0
C907 C 0.94348 0.53682 0.48695 0.0
C908 C 0.93799 0.5572 0.46995 0.0
C909 C 0.96176 0.51825 0.47919 0.0
H910 H 0.98003 0.54441 0.42165 0.0
H911 H 0.92291 0.57099 0.47475 0.0
C912 C 0.91831 0.63447 0.35828 0.0
N913 N 0.94149 0.66071 0.31665 0.0
C914 C 0.94078 0.6246 0.34594 0.0
C915 C 0.90681 0.65646 0.34744 0.0
C916 C 0.95219 0.63811 0.32524 0.0
C917 C 0.91923 0.6701 0.3273 0.0
C918 C 0.97021 0.56652 0.37716 0.0
C919 C 0.99364 0.58013 0.37502 0.0
C920 C 0.96937 0.54004 0.37044 0.0
C921 C 0.01592 0.56695 0.36671 0.0
C922 C 0.99207 0.52748 0.36231 0.0
N923 N 0.01471 0.54109 0.36063 0.0
C924 C 0.99346 0.64662 0.40578 0.0
C925 C 0.96429 0.67197 0.38122 0.0
C926 C 0.01134 0.66772 0.40663 0.0
N927 N 0.97023 0.64861 0.39283 0.0
C928 C 0.98185 0.69306 0.38076 0.0
C929 C 0.00576 0.69138 0.39373 0.0
H930 H 0.99809 0.62879 0.4161 0.0
H931 H 0.94551 0.67513 0.37302 0.0
C932 C 0.86453 0.55865 0.33539 0.0
N933 N 0.88655 0.55284 0.35006 0.0
C934 C 0.85879 0.54558 0.31124 0.0
C935 C 0.88885 0.51302 0.32447 0.0
C936 C 0.89665 0.52857 0.34601 0.0
C937 C 0.87309 0.52344 0.30378 0.0
H938 H 0.85377 0.57624 0.33918 0.0
H939 H 0.91152 0.5213 0.35888 0.0
O940 O 0.93374 0.61527 0.43259 0.0
O941 O 0.89844 0.57178 0.416 0.0
O942 O 0.90586 0.62137 0.3785 0.0
O943 O 0.94813 0.57931 0.38499 0.0
H944 H 0.97687 0.60598 0.45911 0.0
H945 H 0.91508 0.66132 0.44667 0.0
H946 H 0.99584 0.63606 0.49217 0.0
H947 H 0.93515 0.69049 0.47981 0.0
H948 H 0.91249 0.4851 0.42936 0.0
H949 H 0.86494 0.56485 0.45493 0.0
H950 H 0.92061 0.52638 0.40535 0.0
H951 H 0.8581 0.52321 0.47839 0.0
H952 H 0.8596 0.60821 0.50664 0.0
H953 H 0.81795 0.66037 0.45572 0.0
H954 H 0.9913 0.50829 0.45039 0.0
H955 H 0.93324 0.53514 0.50538 0.0
H956 H 0.94916 0.60636 0.35085 0.0
H957 H 0.88858 0.66277 0.35491 0.0
H958 H 0.96955 0.63055 0.31598 0.0
H959 H 0.9116 0.68832 0.32039 0.0
H960 H 0.99452 0.60074 0.37926 0.0
H961 H 0.95161 0.5291 0.37205 0.0
H962 H 0.03416 0.57732 0.36497 0.0
H963 H 0.9917 0.50691 0.35738 0.0
H964 H 0.02945 0.66545 0.41716 0.0
H965 H 0.97626 0.71102 0.37105 0.0
H966 H 0.84449 0.55374 0.29804 0.0
H967 H 0.89806 0.49412 0.32257 0.0
Li968 Li 0.81131 0.64916 0.36905 0.0
Li969 Li 0.8485 0.63764 0.32993 0.0
Li970 Li 0.85118 0.67486 0.36388 0.0
Li971 Li 0.81786 0.67598 0.33053 0.0
C972 C 0.83706 0.60902 0.37591 0.0
N973 N 0.8184 0.55826 0.38432 0.0
C974 C 0.81153 0.60143 0.36866 0.0
C975 C 0.85189 0.59045 0.38852 0.0
C976 C 0.80269 0.57603 0.37289 0.0
C977 C 0.84259 0.5649 0.39224 0.0
C978 C 0.78788 0.63542 0.31286 0.0
C979 C 0.76965 0.62682 0.2703 0.0
N980 N 0.74538 0.62758 0.28083 0.0
C981 C 0.76278 0.6359 0.32332 0.0
C982 C 0.79139 0.63058 0.28622 0.0
C983 C 0.74154 0.63197 0.30679 0.0
C984 C 0.76396 0.65931 0.39924 0.0
N985 N 0.78493 0.64299 0.39858 0.0
C986 C 0.77121 0.62439 0.43977 0.0
C987 C 0.78887 0.62598 0.41884 0.0
C988 C 0.74952 0.64107 0.44071 0.0
C989 C 0.74619 0.65881 0.42007 0.0
H990 H 0.76114 0.67336 0.38392 0.0
H991 H 0.80604 0.61389 0.41941 0.0
C992 C 0.89345 0.6 0.31737 0.0
N993 N 0.87338 0.61369 0.30638 0.0
C994 C 0.90788 0.58067 0.30343 0.0
C995 C 0.8875 0.59564 0.26497 0.0
C996 C 0.87147 0.61241 0.27979 0.0
C997 C 0.902 0.5755 0.27725 0.0
H998 H 0.8947 0.59961 0.33809 0.0
H999 H 0.85693 0.62327 0.26951 0.0
C1000 C 0.81184 0.70682 0.38287 0.0
N1001 N 0.80369 0.74916 0.41544 0.0
C1002 C 0.80609 0.73134 0.3723 0.0
C1003 C 0.81344 0.70385 0.40992 0.0
C1004 C 0.80203 0.7525 0.3891 0.0
C1005 C 0.80928 0.72547 0.4261 0.0
C1006 C 0.86093 0.68948 0.30209 0.0
C1007 C 0.87255 0.71421 0.3028 0.0
C1008 C 0.85543 0.67817 0.27795 0.0
C1009 C 0.87925 0.72658 0.27943 0.0
C1010 C 0.8624 0.69103 0.25493 0.0
N1011 N 0.87416 0.71478 0.25614 0.0
C1012 C 0.89609 0.69296 0.39757 0.0
C1013 C 0.87347 0.72405 0.3722 0.0
C1014 C 0.9161 0.71121 0.40244 0.0
N1015 N 0.8758 0.69933 0.3816 0.0
C1016 C 0.89305 0.74252 0.37607 0.0
C1017 C 0.91543 0.73591 0.39027 0.0
H1018 H 0.89784 0.6732 0.40481 0.0
H1019 H 0.85721 0.72896 0.35983 0.0
C1020 C 0.77172 0.69816 0.32714 0.0
N1021 N 0.7937 0.6951 0.31268 0.0
C1022 C 0.75129 0.71309 0.31791 0.0
C1023 C 0.77567 0.71891 0.27776 0.0
C1024 C 0.79575 0.70447 0.28809 0.0
C1025 C 0.75364 0.72404 0.29322 0.0
H1026 H 0.77053 0.68972 0.34626 0.0
H1027 H 0.81293 0.70165 0.2767 0.0
O1028 O 0.84773 0.63388 0.372 0.0
O1029 O 0.80892 0.63881 0.32886 0.0
O1030 O 0.8159 0.68582 0.3668 0.0
O1031 O 0.85574 0.67597 0.32469 0.0
H1032 H 0.7969 0.61437 0.36194 0.0
H1033 H 0.8706 0.59635 0.39446 0.0
H1034 H 0.78309 0.57059 0.36747 0.0
H1035 H 0.85461 0.54986 0.40027 0.0
H1036 H 0.77207 0.62317 0.2496 0.0
H1037 H 0.75973 0.63931 0.34399 0.0
H1038 H 0.81065 0.62958 0.27793 0.0
H1039 H 0.72202 0.63236 0.3146 0.0
H1040 H 0.77492 0.6107 0.45547 0.0
H1041 H 0.72977 0.67207 0.41984 0.0
H1042 H 0.92052 0.56762 0.31413 0.0
H1043 H 0.88623 0.597 0.24393 0.0
H1044 H 0.80518 0.73413 0.35135 0.0
H1045 H 0.81788 0.68502 0.41822 0.0
H1046 H 0.79764 0.7716 0.38118 0.0
H1047 H 0.8105 0.72341 0.44712 0.0
H1048 H 0.87748 0.72345 0.32102 0.0
H1049 H 0.84387 0.66081 0.27714 0.0
H1050 H 0.8887 0.74547 0.27984 0.0
H1051 H 0.85789 0.6824 0.23613 0.0
H1052 H 0.9327 0.70539 0.41407 0.0
H1053 H 0.89106 0.76158 0.3671 0.0
H1054 H 0.73467 0.71717 0.33026 0.0
H1055 H 0.77824 0.7278 0.2587 0.0
Li1056 Li 0.65985 0.37294 0.83141 0.0
Li1057 Li 0.69789 0.35395 0.86698 0.0
Li1058 Li 0.68697 0.33131 0.82657 0.0
Li1059 Li 0.65646 0.32999 0.86208 0.0
C1060 C 0.72195 0.37423 0.81533 0.0
N1061 N 0.76784 0.38851 0.79134 0.0
C1062 C 0.74516 0.36179 0.82205 0.0
C1063 C 0.72208 0.39411 0.79664 0.0
C1064 C 0.76819 0.36935 0.80976 0.0
C1065 C 0.74544 0.40088 0.78454 0.0
C1066 C 0.67391 0.39487 0.88016 0.0
C1067 C 0.67291 0.44056 0.90374 0.0
N1068 N 0.69672 0.44463 0.89331 0.0
C1069 C 0.69899 0.4025 0.87224 0.0
C1070 C 0.66033 0.41329 0.89721 0.0
C1071 C 0.70962 0.42684 0.87854 0.0
C1072 C 0.61581 0.41527 0.81534 0.0
N1073 N 0.63737 0.40086 0.80813 0.0
C1074 C 0.63604 0.42438 0.76717 0.0
C1075 C 0.64666 0.40519 0.78368 0.0
C1076 C 0.61616 0.44236 0.77536 0.0
C1077 C 0.60573 0.43653 0.80006 0.0
H1078 H 0.60913 0.41402 0.83498 0.0
H1079 H 0.66353 0.39478 0.77697 0.0
C1080 C 0.74838 0.34457 0.89617 0.0
N1081 N 0.7254 0.358 0.89711 0.0
C1082 C 0.76632 0.34549 0.91717 0.0
C1083 C 0.73721 0.37396 0.9403 0.0
C1084 C 0.71955 0.37183 0.91935 0.0
C1085 C 0.76108 0.36068 0.93958 0.0
H1086 H 0.75274 0.33252 0.87935 0.0
H1087 H 0.70093 0.38122 0.92137 0.0
C1088 C 0.64395 0.3248 0.79987 0.0
N1089 N 0.63659 0.301 0.7517 0.0
C1090 C 0.63055 0.30106 0.79801 0.0
C1091 C 0.65357 0.33626 0.7771 0.0
C1092 C 0.62697 0.2894 0.77355 0.0
C1093 C 0.6497 0.32402 0.75297 0.0
C1094 C 0.69883 0.30126 0.88142 0.0
C1095 C 0.71563 0.28027 0.87703 0.0
C1096 C 0.68949 0.30616 0.90659 0.0
C1097 C 0.72289 0.26447 0.89805 0.0
C1098 C 0.6972 0.28994 0.92711 0.0
N1099 N 0.7136 0.26959 0.92245 0.0
C1100 C 0.71171 0.31933 0.7795 0.0
C1101 C 0.69207 0.28429 0.80264 0.0
C1102 C 0.71627 0.30324 0.7583 0.0
N1103 N 0.69969 0.30963 0.80095 0.0
C1104 C 0.69571 0.26756 0.78159 0.0
C1105 C 0.708 0.27706 0.7591 0.0
H1106 H 0.71667 0.33972 0.77823 0.0
H1107 H 0.68223 0.27746 0.81996 0.0
C1108 C 0.6125 0.30549 0.89535 0.0
N1109 N 0.63164 0.30218 0.87706 0.0
C1110 C 0.59301 0.28629 0.8989 0.0
C1111 C 0.61434 0.25954 0.86669 0.0
C1112 C 0.6334 0.27901 0.86399 0.0
C1113 C 0.59321 0.26318 0.88375 0.0
H1114 H 0.61136 0.32368 0.90607 0.0
H1115 H 0.649 0.27611 0.8502 0.0
O1116 O 0.69927 0.36756 0.82759 0.0
O1117 O 0.66238 0.37088 0.87382 0.0
O1118 O 0.64885 0.33615 0.82378 0.0
O1119 O 0.69149 0.31682 0.86106 0.0
H1120 H 0.7453 0.34638 0.83647 0.0
H1121 H 0.70443 0.40435 0.79166 0.0
H1122 H 0.78633 0.35994 0.8148 0.0
H1123 H 0.74578 0.4161 0.76988 0.0
H1124 H 0.6622 0.42757 0.90363 0.0
H1125 H 0.71213 0.38969 0.86273 0.0
H1126 H 0.64088 0.40112 0.90254 0.0
H1127 H 0.72898 0.43152 0.87175 0.0
H1128 H 0.64575 0.42565 0.74854 0.0
H1129 H 0.59083 0.44903 0.8083 0.0
H1130 H 0.78432 0.33461 0.91573 0.0
H1131 H 0.73189 0.38546 0.95731 0.0
H1132 H 0.62287 0.2916 0.81512 0.0
H1133 H 0.66557 0.35337 0.77829 0.0
H1134 H 0.61666 0.27105 0.77196 0.0
H1135 H 0.65764 0.33254 0.73535 0.0
H1136 H 0.72299 0.27628 0.85758 0.0
H1137 H 0.67647 0.3223 0.91015 0.0
H1138 H 0.7359 0.24814 0.89497 0.0
H1139 H 0.69014 0.29352 0.94673 0.0
H1140 H 0.72676 0.31117 0.74175 0.0
H1141 H 0.6895 0.24738 0.78303 0.0
H1142 H 0.5773 0.29008 0.91248 0.0
H1143 H 0.61596 0.24187 0.85509 0.0
Li1144 Li 0.86593 0.9074 0.91118 0.0
Li1145 Li 0.91473 0.88588 0.90896 0.0
Li1146 Li 0.90241 0.92765 0.93414 0.0
Li1147 Li 0.89209 0.93795 0.88458 0.0
C1148 C 0.89543 0.88254 0.96352 0.0
N1149 N 0.90539 0.86503 0.01368 0.0
C1150 C 0.90378 0.85689 0.9677 0.0
C1151 C 0.89148 0.89905 0.98501 0.0
C1152 C 0.90889 0.84846 0.99315 0.0
C1153 C 0.89681 0.88992 0.01016 0.0
C1154 C 0.91335 0.90562 0.85767 0.0
C1155 C 0.94664 0.93489 0.83866 0.0
N1156 N 0.95239 0.91705 0.82006 0.0
C1157 C 0.92053 0.88805 0.83782 0.0
C1158 C 0.92633 0.93032 0.85617 0.0
C1159 C 0.93911 0.89433 0.81871 0.0
C1160 C 0.80655 0.87488 0.90692 0.0
N1161 N 0.82402 0.8989 0.91652 0.0
C1162 C 0.83494 0.8826 0.96959 0.0
C1163 C 0.83584 0.90293 0.94418 0.0
C1164 C 0.81884 0.85474 0.97327 0.0
C1165 C 0.80474 0.84056 0.94613 0.0
H1166 H 0.79857 0.87414 0.88719 0.0
H1167 H 0.84793 0.91957 0.9474 0.0
C1168 C 0.95837 0.84009 0.92882 0.0
N1169 N 0.93556 0.84711 0.91059 0.0
C1170 C 0.98619 0.82447 0.92175 0.0
C1171 C 0.97479 0.81296 0.86516 0.0
C1172 C 0.9325 0.83744 0.88309 0.0
C1173 C 0.99649 0.81125 0.89304 0.0
H1174 H 0.95822 0.84926 0.94789 0.0
H1175 H 0.91522 0.84468 0.87325 0.0
C1176 C 0.85653 0.96449 0.92411 0.0
N1177 N 0.82554 0.00551 0.94044 0.0
C1178 C 0.8417 0.97839 0.90598 0.0
C1179 C 0.85534 0.97126 0.95061 0.0
C1180 C 0.82622 0.99913 0.9146 0.0
C1181 C 0.83962 0.99207 0.95847 0.0
C1182 C 0.95233 0.93402 0.9102 0.0
C1183 C 0.95735 0.96064 0.90662 0.0
C1184 C 0.97267 0.91706 0.91634 0.0
C1185 C 0.98276 0.96982 0.90927 0.0
C1186 C 0.99779 0.92702 0.91899 0.0
N1187 N 1.00228 0.95297 0.9154 0.0
C1188 C 0.94088 0.92816 0.96961 0.0
C1189 C 0.92271 0.97005 0.96125 0.0
C1190 C 0.96357 0.93924 0.97883 0.0
N1191 N 0.92136 0.94359 0.96048 0.0
C1192 C 0.94507 0.98201 0.97058 0.0
C1193 C 0.96621 0.96639 0.97824 0.0
H1194 H 0.94055 0.90731 0.96632 0.0
H1195 H 0.9079 0.98175 0.95195 0.0
C1196 C 0.85626 0.95708 0.83519 0.0
N1197 N 0.87826 0.96188 0.85007 0.0
C1198 C 0.85097 0.96848 0.80992 0.0
C1199 C 0.88856 0.99428 0.81737 0.0
C1200 C 0.89255 0.98269 0.84221 0.0
C1201 C 0.86781 0.98691 0.79856 0.0
H1202 H 0.84306 0.94312 0.84164 0.0
H1203 H 0.90895 0.98889 0.85392 0.0
O1204 O 0.89065 0.89097 0.93849 0.0
O1205 O 0.89286 0.89945 0.87571 0.0
O1206 O 0.87283 0.94493 0.91595 0.0
O1207 O 0.92782 0.92426 0.90639 0.0
H1208 H 0.90583 0.84343 0.95152 0.0
H1209 H 0.88393 0.91859 0.98238 0.0
H1210 H 0.91548 0.82867 0.99658 0.0
H1211 H 0.89392 0.90257 0.0269 0.0
H1212 H 0.95683 0.95339 0.83893 0.0
H1213 H 0.91101 0.87006 0.83521 0.0
H1214 H 0.9221 0.94696 0.86809 0.0
H1215 H 0.94372 0.88054 0.80339 0.0
H1216 H 0.84318 0.89041 0.98735 0.0
H1217 H 0.79628 0.82114 0.94788 0.0
H1218 H 0.99967 0.82448 0.93791 0.0
H1219 H 0.98026 0.8063 0.84562 0.0
H1220 H 0.84209 0.97331 0.8855 0.0
H1221 H 0.86653 0.96061 0.96498 0.0
H1222 H 0.81476 0.01017 0.90073 0.0
H1223 H 0.83866 0.99756 0.97889 0.0
H1224 H 0.9418 0.97404 0.90177 0.0
H1225 H 0.96897 0.89648 0.91927 0.0
H1226 H 0.98695 0.99034 0.90647 0.0
H1227 H 0.01371 0.91411 0.92389 0.0
H1228 H 0.97964 0.9266 0.98405 0.0
H1229 H 0.94638 1.00314 0.97031 0.0
H1230 H 0.8341 0.96202 0.79905 0.0
H1231 H 0.9028 0.00922 0.81345 0.0
Li1232 Li 0.85763 0.2018 0.67555 0.0
Li1233 Li 0.86674 0.1538 0.69146 0.0
Li1234 Li 0.89516 0.17634 0.6647 0.0
Li1235 Li 0.84865 0.17297 0.63634 0.0
C1236 C 0.90336 0.19612 0.71457 0.0
N1237 N 0.94352 0.21516 0.745 0.0
C1238 C 0.92298 0.17939 0.72321 0.0
C1239 C 0.90451 0.2227 0.72091 0.0
C1240 C 0.94304 0.18932 0.73869 0.0
C1241 C 0.92487 0.23192 0.73644 0.0
C1242 C 0.80974 0.17327 0.68791 0.0
C1243 C 0.76382 0.1642 0.69038 0.0
N1244 N 0.76524 0.16492 0.71693 0.0
C1245 C 0.81073 0.17395 0.71522 0.0
C1246 C 0.78616 0.16799 0.67541 0.0
C1247 C 0.78807 0.16951 0.72954 0.0
C1248 C 0.8169 0.23233 0.66655 0.0
N1249 N 0.83613 0.22927 0.6846 0.0
C1250 C 0.80783 0.24116 0.71906 0.0
C1251 C 0.83246 0.2345 0.71031 0.0
C1252 C 0.78709 0.24151 0.70115 0.0
C1253 C 0.79197 0.23863 0.67447 0.0
H1254 H 0.81971 0.2259 0.64666 0.0
H1255 H 0.84737 0.22989 0.72442 0.0
C1256 C 0.88468 0.09887 0.70131 0.0
N1257 N 0.88301 0.1216 0.71497 0.0
C1258 C 0.8981 0.07678 0.70994 0.0
C1259 C 0.90717 0.09904 0.74964 0.0
C1260 C 0.8942 0.12171 0.73938 0.0
C1261 C 0.90905 0.07533 0.73494 0.0
H1262 H 0.87757 0.09822 0.68217 0.0
H1263 H 0.89343 0.13933 0.75108 0.0
C1264 C 0.8684 0.22618 0.63079 0.0
N1265 N 0.85683 0.27546 0.61195 0.0
C1266 C 0.85822 0.22923 0.60563 0.0
C1267 C 0.87344 0.24839 0.64607 0.0
C1268 C 0.8523 0.25424 0.59654 0.0
C1269 C 0.86724 0.27307 0.63628 0.0
C1270 C 0.8472 0.12668 0.6577 0.0
C1271 C 0.83629 0.11496 0.63609 0.0
C1272 C 0.83456 0.12183 0.68207 0.0
C1273 C 0.81512 0.09764 0.63825 0.0
C1274 C 0.81271 0.10572 0.68349 0.0
N1275 N 0.80364 0.09373 0.66173 0.0
C1276 C 0.95828 0.15724 0.65316 0.0
C1277 C 0.9256 0.20321 0.65517 0.0
C1278 C 0.96943 0.16038 0.62197 0.0
N1279 N 0.93796 0.17731 0.66487 0.0
C1280 C 0.92776 0.21659 0.62579 0.0
C1281 C 0.94815 0.20489 0.60274 0.0
H1282 H 0.96964 0.14513 0.66605 0.0
H1283 H 0.91274 0.21333 0.66818 0.0
C1284 C 0.79819 0.17951 0.60445 0.0
N1285 N 0.82694 0.17186 0.59799 0.0
C1286 C 0.77023 0.16801 0.59079 0.0
C1287 C 0.79332 0.13236 0.55199 0.0
C1288 C 0.83568 0.15382 0.57432 0.0
C1289 C 0.76647 0.14668 0.56573 0.0
H1290 H 0.79544 0.19264 0.62077 0.0
H1291 H 0.85621 0.15051 0.57188 0.0
O1292 O 0.88319 0.18674 0.6998 0.0
O1293 O 0.83243 0.17342 0.67384 0.0
O1294 O 0.87452 0.20164 0.63967 0.0
O1295 O 0.86945 0.14252 0.65398 0.0
H1296 H 0.92303 0.15909 0.71756 0.0
H1297 H 0.89006 0.23618 0.71366 0.0
H1298 H 0.9583 0.17651 0.74556 0.0
H1299 H 0.92589 0.25242 0.74158 0.0
H1300 H 0.74548 0.16005 0.68091 0.0
H1301 H 0.82903 0.17695 0.72524 0.0
H1302 H 0.78527 0.16559 0.65449 0.0
H1303 H 0.78863 0.16972 0.75069 0.0
H1304 H 0.80464 0.2438 0.73984 0.0
H1305 H 0.77634 0.23857 0.66027 0.0
H1306 H 0.89814 0.06014 0.69698 0.0
H1307 H 0.91499 0.10004 0.76925 0.0
H1308 H 0.85533 0.21251 0.59303 0.0
H1309 H 0.88188 0.24662 0.66536 0.0
H1310 H 0.84427 0.2568 0.57716 0.0
H1311 H 0.87076 0.29034 0.64801 0.0
H1312 H 0.84547 0.11916 0.61809 0.0
H1313 H 0.84006 0.13064 0.70025 0.0
H1314 H 0.80788 0.08712 0.62143 0.0
H1315 H 0.80317 0.10252 0.70206 0.0
H1316 H 0.98564 0.14808 0.6156 0.0
H1317 H 0.91698 0.23448 0.62238 0.0
H1318 H 0.75261 0.17722 0.59776 0.0
H1319 H 0.79079 0.11784 0.53656 0.0
Li1320 Li 0.59318 0.1266 0.41825 0.0
Li1321 Li 0.64192 0.10453 0.42202 0.0
Li1322 Li 0.61468 0.07394 0.39496 0.0
Li1323 Li 0.605 0.08586 0.44404 0.0
C1324 C 0.59495 0.10746 0.36764 0.0
N1325 N 0.5564 0.0978 0.32906 0.0
C1326 C 0.58811 0.12591 0.34861 0.0
C1327 C 0.58168 0.08301 0.36511 0.0
C1328 C 0.56953 0.12063 0.32915 0.0
C1329 C 0.5619 0.07912 0.34682 0.0
C1330 C 0.6114 0.13119 0.47273 0.0
C1331 C 0.6082 0.12426 0.51935 0.0
N1332 N 0.59906 0.14903 0.52232 0.0
C1333 C 0.60257 0.15676 0.47642 0.0
C1334 C 0.6148 0.11498 0.49453 0.0
C1335 C 0.59623 0.16535 0.50155 0.0
C1336 C 0.54891 0.17211 0.43652 0.0
N1337 N 0.57256 0.16507 0.41917 0.0
C1338 C 0.53932 0.20544 0.37466 0.0
C1339 C 0.57813 0.17673 0.39268 0.0
C1340 C 0.51549 0.20619 0.40062 0.0
C1341 C 0.52261 0.19035 0.42898 0.0
H1342 H 0.54735 0.16168 0.45483 0.0
H1343 H 0.59613 0.17008 0.38362 0.0
C1344 C 0.70286 0.13465 0.41896 0.0
N1345 N 0.68368 0.11279 0.43012 0.0
C1346 C 0.7047 0.17342 0.45385 0.0
C1347 C 0.67088 0.13615 0.48024 0.0
C1348 C 0.67031 0.11267 0.45732 0.0
C1349 C 0.68833 0.16359 0.48151 0.0
H1350 H 0.71213 0.1323 0.39992 0.0
H1351 H 0.65751 0.09666 0.46149 0.0
C1352 C 0.55517 0.078 0.41872 0.0
N1353 N 0.50564 0.05752 0.42142 0.0
C1354 C 0.5513 0.05106 0.4162 0.0
C1355 C 0.53389 0.09453 0.42243 0.0
C1356 C 0.52609 0.0411 0.41757 0.0
C1357 C 0.509 0.08379 0.42389 0.0
C1358 C 0.65214 0.04938 0.43462 0.0
C1359 C 0.66712 0.03612 0.41608 0.0
C1360 C 0.65463 0.04311 0.4611 0.0
C1361 C 0.68425 0.01663 0.42433 0.0
C1362 C 0.67199 0.02354 0.46859 0.0
N1363 N 0.68629 0.01077 0.45019 0.0
C1364 C 0.64683 0.05391 0.34507 0.0
C1365 C 0.61332 0.02515 0.35495 0.0
C1366 C 0.6524 0.04083 0.3208 0.0
N1367 N 0.62614 0.04778 0.36107 0.0
C1368 C 0.61901 0.01075 0.33166 0.0
C1369 C 0.63701 0.01982 0.31218 0.0
H1370 H 0.65776 0.07072 0.34939 0.0
H1371 H 0.59796 0.01839 0.36769 0.0
C1372 C 0.56583 0.08708 0.47711 0.0
N1373 N 0.58595 0.07118 0.47044 0.0
C1374 C 0.54263 0.07652 0.48528 0.0
C1375 C 0.56197 0.03342 0.48167 0.0
C1376 C 0.58488 0.04487 0.47315 0.0
C1377 C 0.54019 0.04939 0.48637 0.0
H1378 H 0.56623 0.10759 0.47223 0.0
H1379 H 0.60049 0.03273 0.4659 0.0
O1380 O 0.61561 0.11263 0.38572 0.0
O1381 O 0.61722 0.12263 0.44793 0.0
O1382 O 0.57953 0.08842 0.41595 0.0
O1383 O 0.63411 0.06736 0.42678 0.0
H1384 H 0.5977 0.14406 0.34735 0.0
H1385 H 0.58514 0.06611 0.37683 0.0
H1386 H 0.5652 0.13508 0.31439 0.0
H1387 H 0.55163 0.06067 0.34609 0.0
H1388 H 0.61057 0.11183 0.53628 0.0
H1389 H 0.60111 0.17007 0.46012 0.0
H1390 H 0.62286 0.09557 0.49246 0.0
H1391 H 0.58921 0.18507 0.50456 0.0
H1392 H 0.53629 0.21531 0.35599 0.0
H1393 H 0.50813 0.19046 0.4442 0.0
H1394 H 0.715 0.19204 0.45417 0.0
H1395 H 0.66064 0.13161 0.498 0.0
H1396 H 0.5676 0.03805 0.41305 0.0
H1397 H 0.53668 0.11539 0.4243 0.0
H1398 H 0.52278 0.02031 0.41558 0.0
H1399 H 0.49235 0.09635 0.42692 0.0
H1400 H 0.66547 0.0407 0.39554 0.0
H1401 H 0.6431 0.0531 0.47573 0.0
H1402 H 0.69587 0.00611 0.41016 0.0
H1403 H 0.67402 0.01842 0.48901 0.0
H1404 H 0.6677 0.04824 0.30832 0.0
H1405 H 0.60799 0.99306 0.32836 0.0
H1406 H 0.52616 0.08941 0.48813 0.0
H1407 H 0.56085 0.01232 0.48292 0.0
Li1408 Li 0.65866 0.84107 0.18361 0.0
Li1409 Li 0.69832 0.81338 0.1701 0.0
Li1410 Li 0.67457 0.82843 0.12819 0.0
Li1411 Li 0.65707 0.7968 0.16086 0.0
C1412 C 0.71252 0.8669 0.16378 0.0
N1413 N 0.75249 0.90213 0.17276 0.0
C1414 C 0.70884 0.88846 0.18033 0.0
C1415 C 0.73699 0.86302 0.15245 0.0
C1416 C 0.72911 0.90609 0.18445 0.0
C1417 C 0.75681 0.8811 0.15704 0.0
C1418 C 0.65568 0.78995 0.21112 0.0
C1419 C 0.64657 0.74603 0.22533 0.0
N1420 N 0.62584 0.75507 0.23918 0.0
C1421 C 0.63435 0.79885 0.22549 0.0
C1422 C 0.66197 0.76339 0.21108 0.0
C1423 C 0.6195 0.7809 0.23958 0.0
C1424 C 0.61704 0.88052 0.20795 0.0
N1425 N 0.64126 0.86965 0.21126 0.0
C1426 C 0.64926 0.90293 0.24411 0.0
C1427 C 0.65671 0.8802 0.23011 0.0
C1428 C 0.62563 0.91687 0.23884 0.0
C1429 C 0.60914 0.90406 0.22115 0.0
H1430 H 0.60411 0.87154 0.19416 0.0
H1431 H 0.67588 0.87208 0.23322 0.0
C1432 C 0.74876 0.79279 0.18058 0.0
N1433 N 0.73052 0.81147 0.18463 0.0
C1434 C 0.76469 0.78589 0.20145 0.0
C1435 C 0.7475 0.82211 0.2263 0.0
C1436 C 0.73096 0.82749 0.20585 0.0
C1437 C 0.75959 0.79777 0.2258 0.0
H1438 H 0.74826 0.78086 0.16313 0.0
H1439 H 0.71573 0.8417 0.20883 0.0
C1440 C 0.63818 0.85111 0.13918 0.0
N1441 N 0.65516 0.88996 0.11004 0.0
C1442 C 0.63215 0.85046 0.11309 0.0
C1443 C 0.65003 0.87295 0.15073 0.0
C1444 C 0.63889 0.87184 0.09919 0.0
C1445 C 0.66158 0.89085 0.13509 0.0
C1446 C 0.69516 0.77157 0.12725 0.0
C1447 C 0.69166 0.76735 0.10049 0.0
C1448 C 0.70605 0.75199 0.14279 0.0
C1449 C 0.69907 0.74341 0.08965 0.0
C1450 C 0.71316 0.72829 0.13122 0.0
N1451 N 0.70957 0.72453 0.10511 0.0
C1452 C 0.7139 0.83961 0.09398 0.0
C1453 C 0.67212 0.85324 0.06151 0.0
C1454 C 0.73806 0.85758 0.08086 0.0
N1455 N 0.68474 0.83866 0.08615 0.0
C1456 C 0.7082 0.884 0.03978 0.0
C1457 C 0.73741 0.87745 0.05474 0.0
H1458 H 0.71929 0.82757 0.11034 0.0
H1459 H 0.65214 0.84875 0.05591 0.0
C1460 C 0.60635 0.77645 0.1625 0.0
N1461 N 0.63122 0.76903 0.1571 0.0
C1462 C 0.58532 0.76036 0.15581 0.0
C1463 C 0.6157 0.72863 0.13901 0.0
C1464 C 0.63612 0.74533 0.14598 0.0
C1465 C 0.58976 0.73624 0.14331 0.0
H1466 H 0.6027 0.79546 0.17106 0.0
H1467 H 0.65572 0.73949 0.14171 0.0
O1468 O 0.69245 0.84948 0.15963 0.0
O1469 O 0.67022 0.8072 0.19703 0.0
O1470 O 0.63804 0.82849 0.1514 0.0
O1471 O 0.68862 0.7951 0.13793 0.0
H1472 H 0.69053 0.89171 0.18997 0.0
H1473 H 0.74124 0.84577 0.14118 0.0
H1474 H 0.72627 0.92289 0.19703 0.0
H1475 H 0.77576 0.87823 0.14835 0.0
H1476 H 0.65109 0.72538 0.22538 0.0
H1477 H 0.62925 0.81937 0.22567 0.0
H1478 H 0.67843 0.75626 0.20003 0.0
H1479 H 0.60291 0.78748 0.25079 0.0
H1480 H 0.66411 0.91081 0.25676 0.0
H1481 H 0.59038 0.91256 0.21762 0.0
H1482 H 0.77536 0.76765 0.20036 0.0
H1483 H 0.74446 0.8325 0.24456 0.0
H1484 H 0.62214 0.83411 0.10412 0.0
H1485 H 0.65471 0.87478 0.17041 0.0
H1486 H 0.63112 0.87457 0.08001 0.0
H1487 H 0.67392 0.90632 0.14239 0.0
H1488 H 0.68338 0.78244 0.08823 0.0
H1489 H 0.70872 0.75495 0.16357 0.0
H1490 H 0.69652 0.73985 0.06894 0.0
H1491 H 0.72151 0.71288 0.143 0.0
H1492 H 0.75714 0.85352 0.08877 0.0
H1493 H 0.70781 0.89744 0.02331 0.0
H1494 H 0.56579 0.76733 0.15945 0.0
H1495 H 0.62029 0.71001 0.13002 0.0
Li1496 Li 0.88808 0.06929 0.61361 0.0
Li1497 Li 0.90016 0.08335 0.5657 0.0
Li1498 Li 0.91193 0.12207 0.59411 0.0
Li1499 Li 0.86278 0.10191 0.58905 0.0
C1500 C 0.94929 0.07424 0.59289 0.0
N1501 N 0.99999 0.05661 0.5935 0.0
C1502 C 0.95453 0.04766 0.59634 0.0
C1503 C 0.96979 0.09181 0.58974 0.0
C1504 C 0.98031 0.03918 0.59685 0.0
C1505 C 0.99529 0.08251 0.58987 0.0
C1506 C 0.85116 0.04815 0.57221 0.0
C1507 C 0.8316 0.02357 0.53707 0.0
N1508 N 0.81505 0.01237 0.55449 0.0
C1509 C 0.83381 0.03663 0.58973 0.0
C1510 C 0.84996 0.04173 0.54565 0.0
C1511 C 0.81574 0.01851 0.58039 0.0
C1512 C 0.85671 0.05615 0.66232 0.0
N1513 N 0.87275 0.04343 0.64537 0.0
C1514 C 0.86582 0.00475 0.67278 0.0
C1515 C 0.87647 0.0173 0.65003 0.0
C1516 C 0.85184 0.01895 0.69239 0.0
C1517 C 0.84668 0.04499 0.68565 0.0
H1518 H 0.85328 0.07588 0.65868 0.0
H1519 H 0.88821 0.00601 0.63657 0.0
C1520 C 0.9409 0.08482 0.53286 0.0
N1521 N 0.92021 0.0695 0.53923 0.0
C1522 C 0.96406 0.0735 0.52516 0.0
C1523 C 0.94358 0.031 0.52905 0.0
C1524 C 0.92074 0.04315 0.53673 0.0
C1525 C 0.96582 0.0463 0.52472 0.0
H1526 H 0.94082 0.10544 0.53742 0.0
H1527 H 0.90474 0.03148 0.54379 0.0
C1528 C 0.90865 0.09996 0.6434 0.0
N1529 N 0.94795 0.0868 0.68001 0.0
C1530 C 0.91881 0.11812 0.66127 0.0
C1531 C 0.91971 0.0743 0.64534 0.0
C1532 C 0.93741 0.11097 0.68005 0.0
C1533 C 0.93972 0.06857 0.66282 0.0
C1534 C 0.89508 0.13019 0.53988 0.0
C1535 C 0.90378 0.15598 0.5378 0.0
C1536 C 0.89228 0.11511 0.51716 0.0
C1537 C 0.91074 0.16583 0.51335 0.0
C1538 C 0.89945 0.12565 0.49304 0.0
N1539 N 0.90854 0.15056 0.49166 0.0
C1540 C 0.95778 0.16555 0.57664 0.0
C1541 C 0.92924 0.17151 0.62066 0.0
C1542 C 0.9848 0.1826 0.58384 0.0
N1543 N 0.93404 0.15957 0.59413 0.0
C1544 C 0.96975 0.19896 0.63818 0.0
C1545 C 0.99297 0.19852 0.61195 0.0
H1546 H 0.95876 0.15497 0.55833 0.0
H1547 H 0.91117 0.16563 0.62993 0.0
C1548 C 0.80336 0.13446 0.59243 0.0
N1549 N 0.82179 0.11191 0.58123 0.0
C1550 C 0.80282 0.17317 0.55767 0.0
C1551 C 0.83555 0.13484 0.53126 0.0
C1552 C 0.83532 0.11141 0.55406 0.0
C1553 C 0.81889 0.16274 0.52996 0.0
H1554 H 0.79333 0.13222 0.61106 0.0
H1555 H 0.8478 0.09522 0.54971 0.0
O1556 O 0.92437 0.08345 0.59486 0.0
O1557 O 0.86987 0.06496 0.58103 0.0
O1558 O 0.88846 0.10729 0.62559 0.0
O1559 O 0.88856 0.12034 0.56399 0.0
H1560 H 0.93886 0.03381 0.59907 0.0
H1561 H 0.96599 0.11242 0.58733 0.0
H1562 H 0.98468 0.01874 0.59993 0.0
H1563 H 0.01134 0.09593 0.58735 0.0
H1564 H 0.83055 0.01834 0.51658 0.0
H1565 H 0.83427 0.04158 0.61028 0.0
H1566 H 0.8631 0.05069 0.53178 0.0
H1567 H 0.80227 0.0093 0.59375 0.0
H1568 H 0.87012 0.98428 0.6756 0.0
H1569 H 0.83647 0.05746 0.69935 0.0
H1570 H 0.981 0.08573 0.52227 0.0
H1571 H 0.94437 0.00984 0.52841 0.0
H1572 H 0.91154 0.13745 0.66253 0.0
H1573 H 0.9151 0.05798 0.6331 0.0
H1574 H 0.94337 0.12474 0.69494 0.0
H1575 H 0.94825 0.04923 0.66315 0.0
H1576 H 0.90464 0.16851 0.55481 0.0
H1577 H 0.88412 0.09565 0.51799 0.0
H1578 H 0.9177 0.18571 0.51159 0.0
H1579 H 0.89754 0.11409 0.4754 0.0
H1580 H 0.99912 0.18144 0.56854 0.0
H1581 H 0.97373 0.20825 0.657 0.0
H1582 H 0.79274 0.19193 0.55717 0.0
H1583 H 0.84591 0.13001 0.51363 0.0
Li1584 Li 0.61409 0.1782 0.34727 0.0
Li1585 Li 0.66041 0.17381 0.3753 0.0
Li1586 Li 0.65223 0.20181 0.33569 0.0
Li1587 Li 0.64364 0.15342 0.3209 0.0
C1588 C 0.64196 0.22759 0.38053 0.0
N1589 N 0.65419 0.27655 0.40009 0.0
C1590 C 0.65165 0.23033 0.40593 0.0
C1591 C 0.63765 0.25001 0.36542 0.0
C1592 C 0.65794 0.25516 0.41538 0.0
C1593 C 0.64421 0.2745 0.37555 0.0
C1594 C 0.66101 0.12601 0.35467 0.0
C1595 C 0.69618 0.10438 0.33013 0.0
N1596 N 0.70365 0.09144 0.35193 0.0
C1597 C 0.66957 0.11216 0.37597 0.0
C1598 C 0.67489 0.12135 0.33094 0.0
C1599 C 0.69066 0.09473 0.37471 0.0
C1600 C 0.55003 0.16324 0.35853 0.0
N1601 N 0.57125 0.183 0.34826 0.0
C1602 C 0.58167 0.22174 0.38771 0.0
C1603 C 0.58391 0.20844 0.35836 0.0
C1604 C 0.56026 0.21076 0.41064 0.0
C1605 C 0.53742 0.16689 0.39102 0.0
H1606 H 0.54122 0.16193 0.375 0.0
H1607 H 0.59747 0.21775 0.34548 0.0
C1608 C 0.70957 0.17951 0.40713 0.0
N1609 N 0.68064 0.17283 0.41366 0.0
C1610 C 0.7371 0.16708 0.42068 0.0
C1611 C 0.71293 0.13233 0.45938 0.0
C1612 C 0.67123 0.1551 0.43723 0.0
C1613 C 0.7402 0.14579 0.44571 0.0
H1614 H 0.71266 0.1926 0.39088 0.0
H1615 H 0.65055 0.15228 0.43957 0.0
C1616 C 0.60678 0.19531 0.29644 0.0
N1617 N 0.56848 0.21393 0.2635 0.0
C1618 C 0.59064 0.1779 0.28308 0.0
C1619 C 0.60351 0.22222 0.29297 0.0
C1620 C 0.57136 0.18767 0.26654 0.0
C1621 C 0.58401 0.23125 0.27629 0.0
C1622 C 0.70037 0.17271 0.32445 0.0
C1623 C 0.69937 0.17245 0.29713 0.0
C1624 C 0.7239 0.16745 0.33706 0.0
C1625 C 0.72179 0.16651 0.28296 0.0
C1626 C 0.74611 0.16259 0.32219 0.0
N1627 N 0.74458 0.16202 0.29565 0.0
C1628 C 0.69299 0.23292 0.34225 0.0
C1629 C 0.67484 0.23441 0.29947 0.0
C1630 C 0.71746 0.23886 0.33271 0.0
N1631 N 0.67282 0.22938 0.32537 0.0
C1632 C 0.6989 0.24077 0.28914 0.0
C1633 C 0.72073 0.24096 0.3057 0.0
H1634 H 0.69121 0.227 0.36242 0.0
H1635 H 0.65897 0.22981 0.28642 0.0
C1636 C 0.6224 0.09892 0.31364 0.0
N1637 N 0.62952 0.11947 0.29831 0.0
C1638 C 0.60938 0.07666 0.30428 0.0
C1639 C 0.61619 0.09232 0.26138 0.0
C1640 C 0.62578 0.11645 0.27193 0.0
C1641 C 0.60909 0.07103 0.27799 0.0
H1642 H 0.62691 0.09933 0.33373 0.0
H1643 H 0.63116 0.13213 0.25884 0.0
O1644 O 0.63548 0.20319 0.37137 0.0
O1645 O 0.63962 0.14332 0.35806 0.0
O1646 O 0.62637 0.18611 0.31198 0.0
O1647 O 0.67766 0.17331 0.33848 0.0
H1648 H 0.65373 0.21357 0.41853 0.0
H1649 H 0.62956 0.24863 0.34598 0.0
H1650 H 0.66559 0.25743 0.43496 0.0
H1651 H 0.64129 0.29189 0.36391 0.0
H1652 H 0.70679 0.10158 0.31207 0.0
H1653 H 0.65961 0.11597 0.3933 0.0
H1654 H 0.67112 0.13108 0.31285 0.0
H1655 H 0.6966 0.08368 0.39168 0.0
H1656 H 0.59296 0.23927 0.3914 0.0
H1657 H 0.52123 0.15365 0.40208 0.0
H1658 H 0.75499 0.17572 0.41374 0.0
H1659 H 0.71504 0.11773 0.47472 0.0
H1660 H 0.59301 0.15709 0.28536 0.0
H1661 H 0.61586 0.23603 0.30306 0.0
H1662 H 0.55874 0.17437 0.25605 0.0
H1663 H 0.58128 0.25202 0.27346 0.0
H1664 H 0.68111 0.17548 0.28704 0.0
H1665 H 0.72485 0.16579 0.35802 0.0
H1666 H 0.7211 0.16559 0.26183 0.0
H1667 H 0.76441 0.15847 0.33176 0.0
H1668 H 0.73395 0.23879 0.34589 0.0
H1669 H 0.70087 0.24293 0.26816 0.0
H1670 H 0.60297 0.06198 0.31778 0.0
H1671 H 0.61612 0.08971 0.24036 0.0
Li1672 Li 0.60168 0.94676 0.08712 0.0
Li1673 Li 0.61764 0.94178 0.13171 0.0
Li1674 Li 0.63583 0.91502 0.08827 0.0
Li1675 Li 0.5817 0.90813 0.10308 0.0
C1676 C 0.64484 0.97316 0.08461 0.0
N1677 N 0.65835 0.01603 0.0549 0.0
C1678 C 0.64785 0.99758 0.09647 0.0
C1679 C 0.64878 0.97044 0.05771 0.0
C1680 C 0.6547 0.01904 0.0811 0.0
C1681 C 0.65553 0.99238 0.04299 0.0
C1682 C 0.56366 0.96617 0.12145 0.0
C1683 C 0.52057 0.98476 0.12141 0.0
N1684 N 0.53103 0.00899 0.12436 0.0
C1685 C 0.57398 0.99125 0.12428 0.0
C1686 C 0.53674 0.96291 0.11991 0.0
C1687 C 0.55717 0.01265 0.12581 0.0
C1688 C 0.56181 0.95302 0.06424 0.0
N1689 N 0.58324 0.96838 0.06635 0.0
C1690 C 0.56243 1.00294 0.04398 0.0
C1691 C 0.58413 0.99315 0.05702 0.0
C1692 C 0.54036 0.98687 0.04153 0.0
C1693 C 0.54001 0.96198 0.05217 0.0
H1694 H 0.56113 0.93397 0.07321 0.0
H1695 H 0.60104 0.00524 0.06014 0.0
C1696 C 0.64993 0.94006 0.18412 0.0
N1697 N 0.63496 0.95455 0.16716 0.0
C1698 C 0.65992 0.95075 0.20807 0.0
C1699 C 0.64197 0.99148 0.19565 0.0
C1700 C 0.63273 0.9805 0.17217 0.0
C1701 C 0.65232 0.97575 0.21668 0.0
H1702 H 0.65365 0.91987 0.17989 0.0
H1703 H 0.6228 0.99289 0.1584 0.0
C1704 C 0.59801 0.90451 0.04397 0.0
N1705 N 0.59098 0.88876 0.99254 0.0
C1706 C 0.59626 0.87794 0.03757 0.0
C1707 C 0.5973 0.92298 0.02377 0.0
C1708 C 0.59252 0.87038 0.01162 0.0
C1709 C 0.59332 0.91467 0.99804 0.0
C1710 C 0.59374 0.895 0.14582 0.0
C1711 C 0.58277 0.86975 0.14579 0.0
C1712 C 0.58309 0.91351 0.16304 0.0
C1713 C 0.56233 0.86362 0.16265 0.0
C1714 C 0.56123 0.90722 0.17801 0.0
N1715 N 0.55173 0.88247 0.17797 0.0
C1716 C 0.6973 0.88127 0.07994 0.0
C1717 C 0.66217 0.89373 0.03973 0.0
C1718 C 0.70936 0.84236 0.04687 0.0
N1719 N 0.67391 0.89796 0.06744 0.0
C1720 C 0.66892 0.87029 0.01767 0.0
C1721 C 0.69201 0.84703 0.01843 0.0
H1722 H 0.70369 0.8855 0.09991 0.0
H1723 H 0.64703 0.90692 0.03401 0.0
C1724 C 0.55325 0.85697 0.09139 0.0
N1725 N 0.55 0.8807 0.10347 0.0
C1726 C 0.53436 0.8368 0.09285 0.0
C1727 C 0.50816 0.86477 0.11948 0.0
C1728 C 0.52745 0.8846 0.11723 0.0
C1729 C 0.51124 0.84006 0.10731 0.0
H1730 H 0.5713 0.85275 0.0818 0.0
H1731 H 0.52477 0.90254 0.12797 0.0
O1732 O 0.63859 0.95184 0.09928 0.0
O1733 O 0.57982 0.94494 0.11965 0.0
O1734 O 0.6024 0.91193 0.06951 0.0
O1735 O 0.61216 0.90255 0.1273 0.0
H1736 H 0.64511 0.9999 0.11731 0.0
H1737 H 0.64653 0.95163 0.04832 0.0
H1738 H 0.65715 0.03809 0.09 0.0
H1739 H 0.65852 0.99061 0.02212 0.0
H1740 H 0.49971 0.98246 0.12007 0.0
H1741 H 0.59473 0.9942 0.12453 0.0
H1742 H 0.5284 0.94384 0.11692 0.0
H1743 H 0.56492 0.03219 0.12792 0.0
H1744 H 0.56284 0.02247 0.03584 0.0
H1745 H 0.52298 0.94951 0.05124 0.0
H1746 H 0.67215 0.93907 0.22048 0.0
H1747 H 0.63745 0.01198 0.19812 0.0
H1748 H 0.59877 0.86306 0.0522 0.0
H1749 H 0.60049 0.94347 0.02755 0.0
H1750 H 0.59116 0.84986 0.00661 0.0
H1751 H 0.59246 0.92881 0.98237 0.0
H1752 H 0.5882 0.85505 0.1319 0.0
H1753 H 0.59078 0.93304 0.16437 0.0
H1754 H 0.55401 0.84419 0.16248 0.0
H1755 H 0.55237 0.92189 0.1904 0.0
H1756 H 0.72199 0.82543 0.04854 0.0
H1757 H 0.65825 0.87204 0.99951 0.0
H1758 H 0.53855 0.81827 0.08348 0.0
H1759 H 0.49099 0.8689 0.13097 0.0
Li1760 Li 0.89892 0.83563 0.83923 0.0
Li1761 Li 0.85182 0.83752 0.86798 0.0
Li1762 Li 0.86168 0.80894 0.82846 0.0
Li1763 Li 0.86812 0.85759 0.81192 0.0
C1764 C 0.87331 0.78538 0.87387 0.0
N1765 N 0.8621 0.73651 0.894 0.0
C1766 C 0.86418 0.78283 0.89948 0.0
C1767 C 0.87755 0.76286 0.8588 0.0
C1768 C 0.85838 0.75803 0.90921 0.0
C1769 C 0.87156 0.7384 0.86925 0.0
C1770 C 0.84749 0.88461 0.8436 0.0
C1771 C 0.81079 0.90014 0.81671 0.0
N1772 N 0.80063 0.91278 0.83758 0.0
C1773 C 0.83725 0.89995 0.86328 0.0
C1774 C 0.83423 0.88652 0.81904 0.0
C1775 C 0.81336 0.91309 0.86071 0.0
C1776 C 0.96242 0.85552 0.85361 0.0
N1777 N 0.94311 0.83607 0.83908 0.0
C1778 C 0.9328 0.79294 0.87359 0.0
C1779 C 0.93134 0.809 0.84574 0.0
C1780 C 0.95159 0.8029 0.89854 0.0
C1781 C 0.97235 0.84969 0.88489 0.0
H1782 H 0.97338 0.86979 0.84274 0.0
H1783 H 0.91862 0.80001 0.83192 0.0
C1784 C 0.8028 0.82857 0.90023 0.0
N1785 N 0.83092 0.83781 0.9071 0.0
C1786 C 0.77399 0.84092 0.91086 0.0
C1787 C 0.79404 0.88145 0.94612 0.0
C1788 C 0.83805 0.85852 0.92903 0.0
C1789 C 0.76835 0.86482 0.93299 0.0
H1790 H 0.80122 0.81362 0.88538 0.0
H1791 H 0.85819 0.86275 0.93177 0.0
C1792 C 0.90456 0.81541 0.78699 0.0
N1793 N 0.93969 0.79512 0.75147 0.0
C1794 C 0.92133 0.83196 0.77347 0.0
C1795 C 0.90612 0.7884 0.78291 0.0
C1796 C 0.93884 0.8214 0.75546 0.0
C1797 C 0.92388 0.77854 0.76479 0.0
C1798 C 0.81191 0.83366 0.8177 0.0
C1799 C 0.81176 0.83225 0.7904 0.0
C1800 C 0.78842 0.83659 0.8311 0.0
C1801 C 0.78814 0.83353 0.77704 0.0
C1802 C 0.76515 0.83712 0.81711 0.0
N1803 N 0.76549 0.83572 0.79056 0.0
C1804 C 0.82242 0.7759 0.83722 0.0
C1805 C 0.83807 0.77425 0.7935 0.0
C1806 C 0.79815 0.76723 0.82944 0.0
N1807 N 0.84132 0.78033 0.81911 0.0
C1808 C 0.81416 0.76512 0.78493 0.0
C1809 C 0.79351 0.76336 0.80282 0.0
H1810 H 0.82471 0.78283 0.85701 0.0
H1811 H 0.85243 0.77988 0.77922 0.0
C1812 C 0.88555 0.91421 0.80469 0.0
N1813 N 0.88278 0.89222 0.78981 0.0
C1814 C 0.90019 0.93602 0.79676 0.0
C1815 C 0.90434 0.9176 0.75527 0.0
C1816 C 0.89258 0.89388 0.76484 0.0
C1817 C 0.90624 0.94073 0.77112 0.0
H1818 H 0.87901 0.91423 0.82429 0.0
H1819 H 0.89083 0.87726 0.75185 0.0
O1820 O 0.87919 0.80974 0.86429 0.0
O1821 O 0.87 0.86908 0.84883 0.0
O1822 O 0.88675 0.82542 0.80425 0.0
O1823 O 0.83511 0.83605 0.83077 0.0
H1824 H 0.8621 0.79975 0.91196 0.0
H1825 H 0.88566 0.76426 0.83936 0.0
H1826 H 0.85114 0.75587 0.92896 0.0
H1827 H 0.87457 0.7209 0.85772 0.0
H1828 H 0.80053 0.90037 0.79823 0.0
H1829 H 0.84856 0.9027 0.87997 0.0
H1830 H 0.84 0.87679 0.80137 0.0
H1831 H 0.80582 0.92486 0.87658 0.0
H1832 H 0.92231 0.77461 0.87456 0.0
H1833 H 0.9877 0.86183 0.89334 0.0
H1834 H 0.757 0.83037 0.90421 0.0
H1835 H 0.79025 0.89847 0.95825 0.0
H1836 H 0.92107 0.85267 0.77701 0.0
H1837 H 0.89409 0.77511 0.79394 0.0
H1838 H 0.95181 0.83409 0.74474 0.0
H1839 H 0.92517 0.75769 0.76142 0.0
H1840 H 0.82983 0.831 0.77962 0.0
H1841 H 0.78811 0.83958 0.8519 0.0
H1842 H 0.78782 0.83278 0.7559 0.0
H1843 H 0.74687 0.83931 0.82733 0.0
H1844 H 0.7826 0.76635 0.84369 0.0
H1845 H 0.81124 0.76178 0.76421 0.0
H1846 H 0.90618 0.94998 0.81058 0.0
H1847 H 0.9087 0.91888 0.73459 0.0
Li1848 Li 0.39425 0.57729 0.12308 0.0
Li1849 Li 0.41988 0.56487 0.0831 0.0
Li1850 Li 0.43605 0.60413 0.09865 0.0
Li1851 Li 0.39333 0.603 0.07649 0.0
C1852 C 0.45122 0.54978 0.12325 0.0
N1853 N 0.49101 0.51562 0.13535 0.0
C1854 C 0.47476 0.551 0.10975 0.0
C1855 C 0.4477 0.53078 0.14247 0.0
C1856 C 0.49471 0.53369 0.11623 0.0
C1857 C 0.46807 0.51376 0.14842 0.0
C1858 C 0.37711 0.54487 0.0718 0.0
C1859 C 0.38018 0.52224 0.03037 0.0
N1860 N 0.36823 0.50117 0.04117 0.0
C1861 C 0.36456 0.52312 0.08236 0.0
C1862 C 0.38479 0.54448 0.04549 0.0
C1863 C 0.36037 0.50117 0.06659 0.0
C1864 C 0.354 0.57247 0.17239 0.0
N1865 N 0.37009 0.56065 0.15417 0.0
C1866 C 0.36411 0.52065 0.17838 0.0
C1867 C 0.37352 0.5345 0.15655 0.0
C1868 C 0.35194 0.53325 0.20045 0.0
C1869 C 0.34611 0.55971 0.19606 0.0
H1870 H 0.35054 0.59305 0.17127 0.0
H1871 H 0.38484 0.52424 0.14196 0.0
C1872 C 0.44835 0.5379 0.04791 0.0
N1873 N 0.4333 0.53466 0.0693 0.0
C1874 C 0.45746 0.51626 0.03484 0.0
C1875 C 0.43672 0.48838 0.06716 0.0
C1876 C 0.42803 0.51079 0.07975 0.0
C1877 C 0.45087 0.49136 0.04414 0.0
H1878 H 0.45269 0.55725 0.04082 0.0
H1879 H 0.41649 0.50926 0.09735 0.0
C1880 C 0.42008 0.62726 0.13694 0.0
N1881 N 0.45038 0.64603 0.17894 0.0
C1882 C 0.4146 0.65081 0.14935 0.0
C1883 C 0.44329 0.61463 0.14547 0.0
C1884 C 0.42968 0.65983 0.17044 0.0
C1885 C 0.45752 0.62376 0.16679 0.0
C1886 C 0.43282 0.61807 0.0469 0.0
C1887 C 0.42414 0.6427 0.05482 0.0
C1888 C 0.44579 0.6154 0.02302 0.0
C1889 C 0.42909 0.66441 0.03907 0.0
C1890 C 0.45013 0.63753 0.00765 0.0
N1891 N 0.44182 0.66139 0.01595 0.0
C1892 C 0.49209 0.62261 0.09957 0.0
C1893 C 0.46069 0.65601 0.10396 0.0
C1894 C 0.51209 0.6407 0.10428 0.0
N1895 N 0.46667 0.63016 0.10028 0.0
C1896 C 0.47995 0.67449 0.10956 0.0
C1897 C 0.50606 0.66685 0.11019 0.0
H1898 H 0.4971 0.60249 0.0961 0.0
H1899 H 0.44074 0.66243 0.10378 0.0
C1900 C 0.35055 0.59996 0.03733 0.0
N1901 N 0.3656 0.61862 0.0491 0.0
C1902 C 0.33253 0.60576 0.01754 0.0
C1903 C 0.34322 0.651 0.02211 0.0
C1904 C 0.36145 0.64419 0.04207 0.0
C1905 C 0.32876 0.63147 0.00886 0.0
H1906 H 0.35199 0.58008 0.04319 0.0
H1907 H 0.37224 0.65958 0.05168 0.0
O1908 O 0.43203 0.56765 0.11817 0.0
O1909 O 0.38221 0.56637 0.08706 0.0
O1910 O 0.40383 0.61848 0.11635 0.0
O1911 O 0.42755 0.59643 0.06165 0.0
H1912 H 0.47726 0.56475 0.09399 0.0
H1913 H 0.42942 0.52904 0.15257 0.0
H1914 H 0.51307 0.53451 0.10597 0.0
H1915 H 0.46563 0.49907 0.16341 0.0
H1916 H 0.3863 0.52166 0.01013 0.0
H1917 H 0.35823 0.52314 0.10252 0.0
H1918 H 0.39465 0.56112 0.03698 0.0
H1919 H 0.3509 0.48408 0.07457 0.0
H1920 H 0.36905 0.50017 0.17805 0.0
H1921 H 0.33662 0.57091 0.21126 0.0
H1922 H 0.46918 0.51882 0.01741 0.0
H1923 H 0.43211 0.46921 0.07483 0.0
H1924 H 0.39987 0.66269 0.14133 0.0
H1925 H 0.45291 0.59948 0.13544 0.0
H1926 H 0.42561 0.67803 0.17995 0.0
H1927 H 0.4749 0.61361 0.17302 0.0
H1928 H 0.41329 0.64498 0.07277 0.0
H1929 H 0.45221 0.59642 0.01625 0.0
H1930 H 0.42254 0.68361 0.04509 0.0
H1931 H 0.46004 0.63572 0.98907 0.0
H1932 H 0.53206 0.63402 0.10437 0.0
H1933 H 0.4744 0.69456 0.11353 0.0
H1934 H 0.32142 0.58984 0.00912 0.0
H1935 H 0.34099 0.67133 0.0167 0.0
Li1936 Li 0.18923 0.65898 0.84783 0.0
Li1937 Li 0.13536 0.67262 0.83576 0.0
Li1938 Li 0.16706 0.64663 0.8016 0.0
Li1939 Li 0.17599 0.69193 0.81478 0.0
C1940 C 0.16815 0.6106 0.8472 0.0
N1941 N 0.18686 0.5636 0.86663 0.0
C1942 C 0.17533 0.60826 0.87351 0.0
C1943 C 0.17049 0.58872 0.83091 0.0
C1944 C 0.18423 0.58432 0.88308 0.0
C1945 C 0.18036 0.56537 0.84093 0.0
C1946 C 0.16619 0.70956 0.87184 0.0
C1947 C 0.16375 0.75425 0.887 0.0
N1948 N 0.16461 0.74571 0.91215 0.0
C1949 C 0.16669 0.70126 0.89789 0.0
C1950 C 0.16438 0.73632 0.86641 0.0
C1951 C 0.166 0.71981 0.91796 0.0
C1952 C 0.22493 0.67434 0.89277 0.0
N1953 N 0.21794 0.65343 0.8775 0.0
C1954 C 0.24783 0.62673 0.90313 0.0
C1955 C 0.23029 0.63013 0.88204 0.0
C1956 C 0.25462 0.64769 0.91991 0.0
C1957 C 0.24279 0.67192 0.91386 0.0
H1958 H 0.21701 0.69338 0.8885 0.0
H1959 H 0.22659 0.61357 0.86956 0.0
C1960 C 0.07082 0.66727 0.85314 0.0
N1961 N 0.09437 0.68649 0.84938 0.0
C1962 C 0.04963 0.66984 0.87882 0.0
C1963 C 0.08985 0.7262 0.89011 0.0
C1964 C 0.10173 0.71267 0.86284 0.0
C1965 C 0.06311 0.71391 0.90586 0.0
H1966 H 0.06826 0.65135 0.83949 0.0
H1967 H 0.11818 0.72261 0.85486 0.0
C1968 C 0.22092 0.64829 0.79943 0.0
N1969 N 0.25865 0.61759 0.77626 0.0
C1970 C 0.23359 0.65695 0.77691 0.0
C1971 C 0.22734 0.62403 0.81007 0.0
C1972 C 0.25263 0.64114 0.76548 0.0
C1973 C 0.24648 0.60879 0.79815 0.0
C1974 C 0.13095 0.6938 0.78124 0.0
C1975 C 0.12852 0.68596 0.75518 0.0
C1976 C 0.11974 0.71723 0.78958 0.0
C1977 C 0.1148 0.70182 0.73779 0.0
C1978 C 0.10634 0.73265 0.77156 0.0
N1979 N 0.10411 0.72465 0.74626 0.0
C1980 C 0.13466 0.61182 0.77357 0.0
C1981 C 0.17733 0.60991 0.75661 0.0
C1982 C 0.12636 0.5923 0.7561 0.0
N1983 N 0.15982 0.62023 0.7738 0.0
C1984 C 0.1697 0.59055 0.73845 0.0
C1985 C 0.14387 0.58131 0.73804 0.0
H1986 H 0.12099 0.62006 0.7874 0.0
H1987 H 0.19727 0.61648 0.75698 0.0
C1988 C 0.20906 0.72837 0.82634 0.0
N1989 N 0.19036 0.72371 0.8082 0.0
C1990 C 0.22061 0.75272 0.82803 0.0
C1991 C 0.19497 0.76619 0.79064 0.0
C1992 C 0.18291 0.74188 0.79058 0.0
C1993 C 0.21452 0.77177 0.80934 0.0
H1994 H 0.21425 0.71328 0.84019 0.0
H1995 H 0.16811 0.7374 0.77628 0.0
O1996 O 0.15928 0.63419 0.83752 0.0
O1997 O 0.1667 0.69143 0.85195 0.0
O1998 O 0.20198 0.66333 0.81064 0.0
O1999 O 0.14329 0.67802 0.79872 0.0
H2000 H 0.17509 0.62501 0.88638 0.0
H2001 H 0.16507 0.58948 0.81068 0.0
H2002 H 0.1898 0.58247 0.9034 0.0
H2003 H 0.18269 0.54858 0.82826 0.0
H2004 H 0.16229 0.77496 0.88298 0.0
H2005 H 0.16792 0.68068 0.9026 0.0
H2006 H 0.16246 0.74326 0.84656 0.0
H2007 H 0.16659 0.71361 0.93817 0.0
H2008 H 0.2557 0.60738 0.90611 0.0
H2009 H 0.2475 0.6893 0.92496 0.0
H2010 H 0.03261 0.6571 0.87956 0.0
H2011 H 0.09932 0.74398 0.89688 0.0
H2012 H 0.22868 0.67565 0.76832 0.0
H2013 H 0.21743 0.61689 0.82712 0.0
H2014 H 0.2626 0.64756 0.74802 0.0
H2015 H 0.25159 0.58994 0.80623 0.0
H2016 H 0.13691 0.6677 0.74855 0.0
H2017 H 0.12168 0.72361 0.80963 0.0
H2018 H 0.1126 0.69595 0.71757 0.0
H2019 H 0.09769 0.75094 0.77769 0.0
H2020 H 0.10625 0.5861 0.75653 0.0
H2021 H 0.18403 0.58256 0.72514 0.0
H2022 H 0.23506 0.75603 0.84306 0.0
H2023 H 0.18993 0.77971 0.77521 0.0
Li2024 Li 0.09917 0.42823 0.60217 0.0
Li2025 Li 0.09772 0.41473 0.55504 0.0
Li2026 Li 0.08986 0.37612 0.58455 0.0
Li2027 Li 0.13556 0.40119 0.58305 0.0
C2028 C 0.04488 0.41868 0.57619 0.0
N2029 N 0.9942 0.43636 0.57413 0.0
C2030 C 0.03943 0.44527 0.57929 0.0
C2031 C 0.02458 0.40115 0.57161 0.0
C2032 C 0.01367 0.45376 0.57864 0.0
C2033 C 0.99911 0.41048 0.57044 0.0
C2034 C 0.13774 0.45792 0.56719 0.0
C2035 C 0.15913 0.48431 0.53443 0.0
N2036 N 0.16642 0.50158 0.55329 0.0
C2037 C 0.14566 0.47596 0.58617 0.0
C2038 C 0.1447 0.46218 0.54104 0.0
C2039 C 0.16005 0.49786 0.57881 0.0
C2040 C 0.11307 0.45452 0.65107 0.0
N2041 N 0.09978 0.45922 0.62843 0.0
C2042 C 0.09685 0.50484 0.64068 0.0
C2043 C 0.09148 0.48406 0.62318 0.0
C2044 C 0.11051 0.50008 0.66409 0.0
C2045 C 0.11827 0.4744 0.66921 0.0
H2046 H 0.12057 0.43537 0.6548 0.0
H2047 H 0.08191 0.48819 0.60484 0.0
C2048 C 0.06031 0.41272 0.51819 0.0
N2049 N 0.08046 0.42802 0.52613 0.0
C2050 C 0.03717 0.4242 0.51043 0.0
C2051 C 0.05762 0.46659 0.51517 0.0
C2052 C 0.08005 0.45438 0.52358 0.0
C2053 C 0.03529 0.45147 0.5108 0.0
H2054 H 0.0605 0.39197 0.52217 0.0
H2055 H 0.09535 0.46622 0.53161 0.0
C2056 C 0.09036 0.39704 0.63886 0.0
N2057 N 0.05685 0.41051 0.68097 0.0
C2058 C 0.09306 0.38641 0.66446 0.0
C2059 C 0.06929 0.41473 0.6363 0.0
C2060 C 0.07648 0.39348 0.68499 0.0
C2061 C 0.0529 0.42106 0.65713 0.0
C2062 C 0.10962 0.36911 0.5313 0.0
C2063 C 0.10291 0.34272 0.52918 0.0
C2064 C 0.11222 0.384 0.50852 0.0
C2065 C 0.09726 0.33215 0.50464 0.0
C2066 C 0.1065 0.37275 0.4843 0.0
N2067 N 0.09905 0.34729 0.48288 0.0
C2068 C 0.05012 0.33067 0.56932 0.0
C2069 C 0.08045 0.33076 0.61283 0.0
C2070 C 0.02376 0.31481 0.57951 0.0
N2071 N 0.07427 0.33855 0.58513 0.0
C2072 C 0.04101 0.30565 0.63503 0.0
C2073 C 0.01684 0.30237 0.60934 0.0
H2074 H 0.04828 0.33927 0.5501 0.0
H2075 H 0.09845 0.33879 0.62081 0.0
C2076 C 0.19935 0.37887 0.59095 0.0
N2077 N 0.17836 0.39866 0.57938 0.0
C2078 C 0.20609 0.34054 0.5557 0.0
C2079 C 0.16986 0.37472 0.52843 0.0
C2080 C 0.16612 0.39766 0.55155 0.0
C2081 C 0.1897 0.34896 0.52768 0.0
H2082 H 0.20663 0.38169 0.61084 0.0
H2083 H 0.15182 0.41183 0.54666 0.0
O2084 O 0.06966 0.40959 0.58016 0.0
O2085 O 0.12286 0.43663 0.57403 0.0
O2086 O 0.1089 0.39247 0.61842 0.0
O2087 O 0.11483 0.37974 0.55544 0.0
H2088 H 0.05492 0.45905 0.58286 0.0
H2089 H 0.02847 0.38059 0.56902 0.0
H2090 H 0.00914 0.47417 0.58177 0.0
H2091 H 0.98322 0.3971 0.5669 0.0
H2092 H 0.16444 0.48781 0.51427 0.0
H2093 H 0.14134 0.47297 0.60652 0.0
H2094 H 0.13867 0.44877 0.5258 0.0
H2095 H 0.16624 0.51185 0.59344 0.0
H2096 H 0.0907 0.52448 0.63579 0.0
H2097 H 0.12938 0.46989 0.68661 0.0
H2098 H 0.02031 0.41193 0.50726 0.0
H2099 H 0.05706 0.48776 0.5147 0.0
H2100 H 0.10703 0.3724 0.67016 0.0
H2101 H 0.06609 0.42651 0.61981 0.0
H2102 H 0.07902 0.38507 0.70417 0.0
H2103 H 0.03742 0.43513 0.65443 0.0
H2104 H 0.10269 0.33026 0.54618 0.0
H2105 H 0.11925 0.4039 0.50941 0.0
H2106 H 0.09174 0.31182 0.50286 0.0
H2107 H 0.10822 0.38419 0.46662 0.0
H2108 H 0.00865 0.31455 0.56491 0.0
H2109 H 0.03816 0.298 0.65474 0.0
H2110 H 0.21703 0.32234 0.55612 0.0
H2111 H 0.16059 0.37905 0.51008 0.0
Li2112 Li 0.15599 0.31386 0.67127 0.0
Li2113 Li 0.15177 0.36175 0.68449 0.0
Li2114 Li 0.11653 0.33846 0.65843 0.0
Li2115 Li 0.16276 0.34137 0.63192 0.0
C2116 C 0.11526 0.32369 0.71393 0.0
N2117 N 0.08606 0.30775 0.75639 0.0
C2118 C 0.10573 0.34206 0.73177 0.0
C2119 C 0.10992 0.29716 0.71775 0.0
C2120 C 0.09101 0.33365 0.75308 0.0
C2121 C 0.09512 0.2895 0.73929 0.0
C2122 C 0.2053 0.34129 0.68127 0.0
C2123 C 0.2507 0.35237 0.68545 0.0
N2124 N 0.24847 0.35124 0.71192 0.0
C2125 C 0.20359 0.33994 0.70848 0.0
C2126 C 0.22901 0.34792 0.66967 0.0
C2127 C 0.22547 0.34547 0.72364 0.0
C2128 C 0.19497 0.28043 0.66569 0.0
N2129 N 0.1752 0.28552 0.68264 0.0
C2130 C 0.2007 0.27262 0.71884 0.0
C2131 C 0.17705 0.28054 0.70858 0.0
C2132 C 0.22231 0.27068 0.70216 0.0
C2133 C 0.21902 0.2728 0.67516 0.0
H2134 H 0.19331 0.28611 0.64542 0.0
H2135 H 0.16168 0.2863 0.72173 0.0
C2136 C 0.1346 0.41208 0.71161 0.0
N2137 N 0.14957 0.39038 0.71578 0.0
C2138 C 0.12888 0.4303 0.73177 0.0
C2139 C 0.15527 0.40523 0.76091 0.0
C2140 C 0.16003 0.38708 0.74024 0.0
C2141 C 0.139 0.42725 0.75724 0.0
H2142 H 0.12645 0.4152 0.69258 0.0
H2143 H 0.17158 0.36995 0.74431 0.0
C2144 C 0.14279 0.28769 0.627 0.0
N2145 N 0.15232 0.23829 0.60701 0.0
C2146 C 0.14965 0.28445 0.60074 0.0
C2147 C 0.1398 0.26553 0.64281 0.0
C2148 C 0.15464 0.25941 0.59108 0.0
C2149 C 0.145 0.24082 0.63244 0.0
C2150 C 0.16073 0.39458 0.64767 0.0
C2151 C 0.1604 0.41508 0.62937 0.0
C2152 C 0.18017 0.39638 0.66711 0.0
C2153 C 0.17973 0.43433 0.62928 0.0
C2154 C 0.1989 0.41607 0.66674 0.0
N2155 N 0.19851 0.43441 0.64777 0.0
C2156 C 0.05262 0.3495 0.64411 0.0
C2157 C 0.08565 0.3046 0.65144 0.0
C2158 C 0.04019 0.34179 0.61412 0.0
N2159 N 0.07378 0.33178 0.65765 0.0
C2160 C 0.0825 0.28686 0.62432 0.0
C2161 C 0.06139 0.29533 0.5998 0.0
H2162 H 0.04454 0.366 0.65433 0.0
H2163 H 0.0997 0.29734 0.6651 0.0
C2164 C 0.21028 0.33474 0.60249 0.0
N2165 N 0.1812 0.33858 0.59486 0.0
C2166 C 0.23669 0.34991 0.58997 0.0
C2167 C 0.21049 0.3823 0.5509 0.0
C2168 C 0.17063 0.35546 0.57137 0.0
C2169 C 0.23852 0.37124 0.56505 0.0
H2170 H 0.21402 0.32217 0.61901 0.0
H2171 H 0.14991 0.35625 0.56865 0.0
O2172 O 0.13057 0.33154 0.6935 0.0
O2173 O 0.18295 0.34075 0.66664 0.0
O2174 O 0.1378 0.31231 0.63653 0.0
O2175 O 0.14221 0.37416 0.64688 0.0
H2176 H 0.10968 0.3626 0.72934 0.0
H2177 H 0.11741 0.28253 0.70446 0.0
H2178 H 0.08359 0.34772 0.76703 0.0
H2179 H 0.09096 0.26903 0.7425 0.0
H2180 H 0.26913 0.35748 0.67668 0.0
H2181 H 0.18522 0.3356 0.71776 0.0
H2182 H 0.23053 0.35085 0.64888 0.0
H2183 H 0.22419 0.34506 0.74475 0.0
H2184 H 0.2027 0.27059 0.73984 0.0
H2185 H 0.23539 0.27148 0.66189 0.0
H2186 H 0.11655 0.44682 0.72725 0.0
H2187 H 0.16364 0.40141 0.77995 0.0
H2188 H 0.15045 0.30099 0.58769 0.0
H2189 H 0.13337 0.26725 0.66283 0.0
H2190 H 0.1601 0.25674 0.57081 0.0
H2191 H 0.14304 0.22362 0.64456 0.0
H2192 H 0.14553 0.4171 0.61517 0.0
H2193 H 0.18156 0.38355 0.68323 0.0
H2194 H 0.18 0.44916 0.61437 0.0
H2195 H 0.21378 0.41675 0.68169 0.0
H2196 H 0.02406 0.35339 0.60648 0.0
H2197 H 0.09282 0.26841 0.62343 0.0
H2198 H 0.2551 0.34298 0.59746 0.0
H2199 H 0.21168 0.39739 0.53596 0.0
Li2200 Li 0.34085 0.68371 0.18195 0.0
Li2201 Li 0.36601 0.64024 0.17683 0.0
Li2202 Li 0.37068 0.68329 0.14686 0.0
Li2203 Li 0.32669 0.66183 0.14395 0.0
C2204 C 0.38087 0.69281 0.20711 0.0
N2205 N 0.38545 0.72439 0.25079 0.0
C2206 C 0.39058 0.68259 0.23045 0.0
C2207 C 0.37395 0.71926 0.20588 0.0
C2208 C 0.39257 0.69882 0.25238 0.0
C2209 C 0.37635 0.73487 0.22815 0.0
C2210 C 0.30862 0.64236 0.20088 0.0
C2211 C 0.29261 0.61809 0.23795 0.0
N2212 N 0.26855 0.62841 0.23414 0.0
C2213 C 0.28363 0.65234 0.19713 0.0
C2214 C 0.31303 0.62483 0.22129 0.0
C2215 C 0.26369 0.64527 0.21421 0.0
C2216 C 0.30066 0.71381 0.19123 0.0
N2217 N 0.32051 0.7023 0.20433 0.0
C2218 C 0.29719 0.70337 0.24413 0.0
C2219 C 0.3194 0.69696 0.23025 0.0
C2220 C 0.27589 0.71414 0.23067 0.0
C2221 C 0.27782 0.71937 0.20395 0.0
H2222 H 0.30119 0.71607 0.17034 0.0
H2223 H 0.33483 0.68612 0.23962 0.0
C2224 C 0.40406 0.59026 0.18534 0.0
N2225 N 0.38841 0.60936 0.19626 0.0
C2226 C 0.41263 0.56761 0.1994 0.0
C2227 C 0.39415 0.58684 0.23738 0.0
C2228 C 0.38505 0.60819 0.22254 0.0
C2229 C 0.40697 0.56447 0.22599 0.0
H2230 H 0.40647 0.58962 0.16467 0.0
H2231 H 0.3741 0.62338 0.23225 0.0
C2232 C 0.33546 0.71534 0.12653 0.0
N2233 N 0.33286 0.75022 0.08547 0.0
C2234 C 0.33781 0.70645 0.10081 0.0
C2235 C 0.3324 0.74204 0.13145 0.0
C2236 C 0.33621 0.72434 0.08028 0.0
C2237 C 0.33102 0.75936 0.11041 0.0
C2238 C 0.34262 0.62041 0.12907 0.0
C2239 C 0.34808 0.60484 0.10755 0.0
C2240 C 0.31835 0.61489 0.14136 0.0
C2241 C 0.33174 0.58411 0.10002 0.0
C2242 C 0.30343 0.59317 0.13463 0.0
N2243 N 0.31031 0.57827 0.11403 0.0
C2244 C 0.41301 0.72222 0.15187 0.0
C2245 C 0.40357 0.71835 0.10721 0.0
C2246 C 0.43113 0.74225 0.1471 0.0
N2247 N 0.39906 0.71034 0.1324 0.0
C2248 C 0.42158 0.73889 0.1015 0.0
C2249 C 0.43561 0.75175 0.12172 0.0
H2250 H 0.41022 0.71656 0.17172 0.0
H2251 H 0.39292 0.70932 0.09135 0.0
C2252 C 0.27154 0.66278 0.12275 0.0
N2253 N 0.29696 0.65778 0.11696 0.0
C2254 C 0.25171 0.65677 0.10477 0.0
C2255 C 0.28414 0.64161 0.07444 0.0
C2256 C 0.30331 0.64865 0.09259 0.0
C2257 C 0.2579 0.64528 0.08056 0.0
H2258 H 0.26639 0.67124 0.14133 0.0
H2259 H 0.32338 0.64605 0.08721 0.0
O2260 O 0.37841 0.6772 0.18543 0.0
O2261 O 0.32816 0.64813 0.18347 0.0
O2262 O 0.33706 0.69818 0.14694 0.0
O2263 O 0.35909 0.64192 0.13484 0.0
H2264 H 0.39673 0.66245 0.23158 0.0
H2265 H 0.36648 0.72755 0.1879 0.0
H2266 H 0.39987 0.6911 0.27064 0.0
H2267 H 0.37086 0.75528 0.22747 0.0
H2268 H 0.29586 0.60451 0.25381 0.0
H2269 H 0.27973 0.66555 0.1813 0.0
H2270 H 0.33186 0.61617 0.22402 0.0
H2271 H 0.24436 0.65315 0.21159 0.0
H2272 H 0.29662 0.69955 0.26494 0.0
H2273 H 0.26164 0.72697 0.19274 0.0
H2274 H 0.42248 0.55209 0.18916 0.0
H2275 H 0.38895 0.58804 0.25777 0.0
H2276 H 0.34164 0.6861 0.09678 0.0
H2277 H 0.33115 0.74932 0.15131 0.0
H2278 H 0.33796 0.71769 0.06025 0.0
H2279 H 0.32855 0.78008 0.11392 0.0
H2280 H 0.36359 0.61059 0.09552 0.0
H2281 H 0.30788 0.62784 0.1533 0.0
H2282 H 0.33528 0.57302 0.08258 0.0
H2283 H 0.28531 0.5893 0.14464 0.0
H2284 H 0.44159 0.75021 0.16366 0.0
H2285 H 0.42393 0.745 0.08139 0.0
H2286 H 0.23164 0.66041 0.11003 0.0
H2287 H 0.28982 0.63346 0.05572 0.0
Li2288 Li 0.56416 0.61343 0.60685 0.0
Li2289 Li 0.6026 0.57869 0.62452 0.0
Li2290 Li 0.60495 0.60962 0.58326 0.0
Li2291 Li 0.5748 0.57404 0.58328 0.0
C2292 C 0.58835 0.62913 0.64643 0.0
N2293 N 0.56599 0.64577 0.69512 0.0
C2294 C 0.56433 0.61992 0.65573 0.0
C2295 C 0.60126 0.64892 0.6624 0.0
C2296 C 0.55392 0.62798 0.67964 0.0
C2297 C 0.58875 0.65756 0.68909 0.0
C2298 C 0.54073 0.56107 0.6262 0.0
C2299 C 0.51802 0.52857 0.65151 0.0
N2300 N 0.4953 0.53593 0.64009 0.0
C2301 C 0.51721 0.56821 0.61463 0.0
C2302 C 0.54115 0.54124 0.64495 0.0
C2303 C 0.49441 0.5554 0.62202 0.0
C2304 C 0.51386 0.64047 0.59612 0.0
N2305 N 0.53617 0.64232 0.61056 0.0
C2306 C 0.52276 0.68541 0.62497 0.0
C2307 C 0.54099 0.66501 0.624 0.0
C2308 C 0.49957 0.68365 0.61072 0.0
C2309 C 0.49543 0.66089 0.59582 0.0
H2310 H 0.51061 0.62354 0.58391 0.0
H2311 H 0.55927 0.66807 0.63368 0.0
C2312 C 0.64958 0.56274 0.66329 0.0
N2313 N 0.62691 0.55581 0.65054 0.0
C2314 C 0.66069 0.54744 0.6839 0.0
C2315 C 0.6296 0.51466 0.67329 0.0
C2316 C 0.61793 0.53131 0.65491 0.0
C2317 C 0.65041 0.52284 0.69022 0.0
H2318 H 0.65712 0.58194 0.66088 0.0
H2319 H 0.60074 0.52468 0.64496 0.0
C2320 C 0.56237 0.62858 0.55387 0.0
N2321 N 0.54636 0.66864 0.52158 0.0
C2322 C 0.54523 0.62347 0.53332 0.0
C2323 C 0.57143 0.65397 0.55801 0.0
C2324 C 0.53736 0.644 0.51718 0.0
C2325 C 0.56307 0.674 0.54151 0.0
C2326 C 0.61824 0.5481 0.57572 0.0
C2327 C 0.63338 0.54747 0.55302 0.0
C2328 C 0.60849 0.52476 0.58585 0.0
C2329 C 0.6381 0.52357 0.54066 0.0
C2330 C 0.61351 0.50125 0.57289 0.0
N2331 N 0.62808 0.50114 0.55071 0.0
C2332 C 0.64916 0.64278 0.56354 0.0
C2333 C 0.6283 0.61405 0.53406 0.0
C2334 C 0.66871 0.64799 0.54492 0.0
N2335 N 0.6299 0.62527 0.55815 0.0
C2336 C 0.64762 0.61809 0.51529 0.0
C2337 C 0.66872 0.63459 0.5208 0.0
H2338 H 0.65007 0.65162 0.5827 0.0
H2339 H 0.61269 0.60062 0.52991 0.0
C2340 C 0.54976 0.52799 0.56897 0.0
N2341 N 0.56231 0.54964 0.5606 0.0
C2342 C 0.544 0.50838 0.55138 0.0
C2343 C 0.56471 0.53359 0.51706 0.0
C2344 C 0.56973 0.55294 0.53535 0.0
C2345 C 0.55156 0.51108 0.52509 0.0
H2346 H 0.54493 0.52551 0.58931 0.0
H2347 H 0.58003 0.57037 0.52964 0.0
O2348 O 0.59983 0.62104 0.62315 0.0
O2349 O 0.56315 0.57395 0.61981 0.0
O2350 O 0.57032 0.60868 0.56973 0.0
O2351 O 0.61247 0.57144 0.58764 0.0
H2352 H 0.55196 0.60776 0.64452 0.0
H2353 H 0.62032 0.65408 0.64922 0.0
H2354 H 0.53538 0.62016 0.68581 0.0
H2355 H 0.59934 0.65681 0.6759 0.0
H2356 H 0.51812 0.51304 0.66585 0.0
H2357 H 0.51667 0.58329 0.59997 0.0
H2358 H 0.55905 0.53579 0.6545 0.0
H2359 H 0.47604 0.56084 0.61331 0.0
H2360 H 0.5272 0.70287 0.63617 0.0
H2361 H 0.47799 0.65881 0.58415 0.0
H2362 H 0.67641 0.55549 0.69546 0.0
H2363 H 0.61989 0.49608 0.67502 0.0
H2364 H 0.53805 0.60386 0.52992 0.0
H2365 H 0.58478 0.65806 0.57376 0.0
H2366 H 0.52408 0.64036 0.50118 0.0
H2367 H 0.5699 0.69379 0.54451 0.0
H2368 H 0.64173 0.56511 0.54517 0.0
H2369 H 0.59585 0.52498 0.60263 0.0
H2370 H 0.64975 0.52286 0.52306 0.0
H2371 H 0.60551 0.48315 0.58025 0.0
H2372 H 0.68438 0.66123 0.54989 0.0
H2373 H 0.64632 0.60788 0.49675 0.0
H2374 H 0.53294 0.49172 0.55822 0.0
H2375 H 0.57035 0.53642 0.49684 0.0
Li2376 Li 0.9073 0.42344 0.13452 0.0
Li2377 Li 0.94257 0.38456 0.11721 0.0
Li2378 Li 0.93815 0.42401 0.09361 0.0
Li2379 Li 0.90117 0.39211 0.09177 0.0
C2380 C 0.96824 0.43523 0.14223 0.0
N2381 N 0.00989 0.46072 0.16509 0.0
C2382 C 0.99115 0.42167 0.14775 0.0
C2383 C 0.96629 0.4616 0.14918 0.0
C2384 C 0.01204 0.43489 0.15911 0.0
C2385 C 0.9876 0.47421 0.16044 0.0
C2386 C 0.91679 0.36634 0.15173 0.0
C2387 C 0.91865 0.3272 0.178 0.0
N2388 N 0.93987 0.33634 0.1908 0.0
C2389 C 0.93789 0.37593 0.16649 0.0
C2390 C 0.90612 0.34273 0.15936 0.0
C2391 C 0.94935 0.36053 0.18582 0.0
C2392 C 0.86204 0.44227 0.176 0.0
N2393 N 0.8842 0.44843 0.16176 0.0
C2394 C 0.88573 0.48792 0.18768 0.0
C2395 C 0.89371 0.47288 0.16595 0.0
C2396 C 0.87079 0.47663 0.20854 0.0
C2397 C 0.85649 0.45457 0.20065 0.0
H2398 H 0.85122 0.42488 0.17138 0.0
H2399 H 0.90818 0.48071 0.15302 0.0
C2400 C 0.99525 0.35919 0.11265 0.0
N2401 N 0.9702 0.35499 0.12064 0.0
C2402 C 0.01384 0.33878 0.11248 0.0
C2403 C 0.98109 0.30946 0.12827 0.0
C2404 C 0.96304 0.33011 0.12725 0.0
C2405 C 0.00693 0.31348 0.1207 0.0
H2406 H 1.00085 0.37831 0.10565 0.0
H2407 H 0.94311 0.3257 0.13092 0.0
C2408 C 0.89673 0.45494 0.08364 0.0
N2409 N 0.8892 0.50178 0.05786 0.0
C2410 C 0.8803 0.45618 0.06189 0.0
C2411 C 0.90885 0.47768 0.09259 0.0
C2412 C 0.87684 0.47999 0.04905 0.0
C2413 C 0.90497 0.50113 0.0792 0.0
C2414 C 0.94846 0.37199 0.0636 0.0
C2415 C 0.97316 0.37778 0.05394 0.0
C2416 C 0.93592 0.34906 0.05577 0.0
C2417 C 0.98508 0.36028 0.03671 0.0
C2418 C 0.94845 0.33209 0.03847 0.0
N2419 N 0.97258 0.338 0.02938 0.0
C2420 C 0.97265 0.46423 0.08218 0.0
C2421 C 0.94647 0.44841 0.04748 0.0
C2422 C 0.97557 0.48809 0.0699 0.0
N2423 N 0.95614 0.44631 0.07202 0.0
C2424 C 0.94988 0.47153 0.03381 0.0
C2425 C 0.96253 0.49263 0.04618 0.0
H2426 H 0.98157 0.46121 0.10085 0.0
H2427 H 0.93381 0.43336 0.0398 0.0
C2428 C 0.85402 0.36344 0.06941 0.0
N2429 N 0.87453 0.37983 0.06516 0.0
C2430 C 0.83548 0.35849 0.0495 0.0
C2431 C 0.85936 0.38701 0.02101 0.0
C2432 C 0.8778 0.39065 0.04102 0.0
C2433 C 0.83753 0.37099 0.02503 0.0
H2434 H 0.8517 0.35448 0.08832 0.0
H2435 H 0.89443 0.40307 0.0375 0.0
O2436 O 0.94764 0.42253 0.13084 0.0
O2437 O 0.90478 0.38085 0.13215 0.0
O2438 O 0.90031 0.43178 0.0966 0.0
O2439 O 0.93618 0.38916 0.07989 0.0
H2440 H 0.99263 0.40104 0.14387 0.0
H2441 H 0.94897 0.47253 0.14502 0.0
H2442 H 0.0299 0.42458 0.16334 0.0
H2443 H 0.98645 0.49476 0.16536 0.0
H2444 H 0.91198 0.30774 0.18191 0.0
H2445 H 0.94455 0.39547 0.16496 0.0
H2446 H 0.88847 0.33678 0.15052 0.0
H2447 H 0.96565 0.36793 0.19697 0.0
H2448 H 0.8945 0.50702 0.1896 0.0
H2449 H 0.84243 0.44592 0.21379 0.0
H2450 H 0.03347 0.34278 0.10604 0.0
H2451 H 0.97467 0.29022 0.13421 0.0
H2452 H 0.86962 0.43924 0.05547 0.0
H2453 H 0.92163 0.47708 0.10928 0.0
H2454 H 0.86416 0.48117 0.03222 0.0
H2455 H 0.91466 0.51877 0.08565 0.0
H2456 H 0.98298 0.3956 0.0597 0.0
H2457 H 0.91663 0.34455 0.06277 0.0
H2458 H 0.00424 0.36444 0.0291 0.0
H2459 H 0.93896 0.31427 0.03221 0.0
H2460 H 0.98623 0.50314 0.08017 0.0
H2461 H 0.94109 0.47328 0.01467 0.0
H2462 H 0.81919 0.34573 0.05352 0.0
H2463 H 0.86222 0.39671 1.00241 0.0
Li2464 Li 0.68498 0.67308 0.6819 0.0
Li2465 Li 0.65381 0.67441 0.64664 0.0
Li2466 Li 0.65748 0.63184 0.67577 0.0
Li2467 Li 0.69539 0.65113 0.64086 0.0
C2468 C 0.64113 0.68021 0.70793 0.0
N2469 N 0.63028 0.70522 0.7547 0.0
C2470 C 0.62552 0.70259 0.70831 0.0
C2471 C 0.65086 0.67041 0.73146 0.0
C2472 C 0.62026 0.71493 0.73211 0.0
C2473 C 0.64536 0.68339 0.75485 0.0
C2474 C 0.69678 0.70448 0.62811 0.0
C2475 C 0.69577 0.71854 0.58317 0.0
N2476 N 0.71302 0.73783 0.58904 0.0
C2477 C 0.71445 0.72441 0.63375 0.0
C2478 C 0.68729 0.7015 0.6027 0.0
C2479 C 0.72244 0.74109 0.61371 0.0
C2480 C 0.71106 0.68424 0.72832 0.0
N2481 N 0.69777 0.69433 0.70784 0.0
C2482 C 0.69552 0.73619 0.72798 0.0
C2483 C 0.68991 0.71967 0.70717 0.0
C2484 C 0.70975 0.72637 0.74916 0.0
C2485 C 0.71743 0.70003 0.74925 0.0
H2486 H 0.71614 0.66388 0.7289 0.0
H2487 H 0.67882 0.72678 0.69071 0.0
C2488 C 0.60752 0.69578 0.61663 0.0
N2489 N 0.62821 0.70064 0.63263 0.0
C2490 C 0.58856 0.71526 0.61194 0.0
C2491 C 0.61271 0.74457 0.63965 0.0
C2492 C 0.63141 0.72491 0.64318 0.0
C2493 C 0.59057 0.73987 0.62427 0.0
H2494 H 0.60512 0.67649 0.60842 0.0
H2495 H 0.64793 0.72866 0.65567 0.0
C2496 C 0.71979 0.62965 0.69192 0.0
N2497 N 0.76588 0.61493 0.71539 0.0
C2498 C 0.74325 0.64066 0.68379 0.0
C2499 C 0.71979 0.61094 0.7118 0.0
C2500 C 0.76637 0.63283 0.69575 0.0
C2501 C 0.74324 0.60402 0.72367 0.0
C2502 C 0.67119 0.61129 0.62568 0.0
C2503 C 0.69583 0.60258 0.6339 0.0
C2504 C 0.65773 0.59448 0.60701 0.0
C2505 C 0.70627 0.57862 0.62602 0.0
C2506 C 0.67031 0.5678 0.5984 0.0
N2507 N 0.6937 0.56246 0.60923 0.0
C2508 C 0.6121 0.59053 0.69217 0.0
C2509 C 0.64427 0.6009 0.72242 0.0
C2510 C 0.60267 0.56944 0.70803 0.0
N2511 N 0.63433 0.6045 0.69823 0.0
C2512 C 0.6342 0.58216 0.73958 0.0
C2513 C 0.61414 0.56387 0.73234 0.0
H2514 H 0.60372 0.59242 0.67325 0.0
H2515 H 0.66102 0.61191 0.72839 0.0
C2516 C 0.74571 0.66154 0.61187 0.0
N2517 N 0.72297 0.64772 0.6108 0.0
C2518 C 0.76386 0.66075 0.59108 0.0
C2519 C 0.73531 0.6319 0.56774 0.0
C2520 C 0.71745 0.63391 0.58845 0.0
C2521 C 0.759 0.64537 0.56873 0.0
H2522 H 0.74972 0.67383 0.6286 0.0
H2523 H 0.69897 0.62448 0.58602 0.0
O2524 O 0.64726 0.66825 0.68467 0.0
O2525 O 0.68875 0.68808 0.64751 0.0
O2526 O 0.697 0.63663 0.67996 0.0
O2527 O 0.65974 0.63475 0.63351 0.0
H2528 H 0.61714 0.71013 0.69054 0.0
H2529 H 0.66383 0.65392 0.73151 0.0
H2530 H 0.6082 0.73225 0.73261 0.0
H2531 H 0.65335 0.67629 0.77308 0.0
H2532 H 0.68862 0.71644 0.56337 0.0
H2533 H 0.72192 0.72691 0.6534 0.0
H2534 H 0.67354 0.68623 0.59818 0.0
H2535 H 0.73613 0.75662 0.61777 0.0
H2536 H 0.68964 0.75651 0.72718 0.0
H2537 H 0.7292 0.69186 0.76479 0.0
H2538 H 0.57194 0.71071 0.59977 0.0
H2539 H 0.61539 0.76328 0.64926 0.0
H2540 H 0.74352 0.65514 0.6685 0.0
H2541 H 0.70199 0.60174 0.71798 0.0
H2542 H 0.7847 0.64108 0.68952 0.0
H2543 H 0.74346 0.5898 0.73931 0.0
H2544 H 0.70883 0.61443 0.64471 0.0
H2545 H 0.63822 0.60712 0.60265 0.0
H2546 H 0.72532 0.57304 0.63304 0.0
H2547 H 0.65955 0.58078 0.59945 0.0
H2548 H 0.58728 0.55701 0.70064 0.0
H2549 H 0.6448 0.58142 0.75774 0.0
H2550 H 0.78171 0.67185 0.59265 0.0
H2551 H 0.73025 0.62035 0.55069 0.0
Li2552 Li 0.36467 0.40828 0.42224 0.0
Li2553 Li 0.41288 0.38578 0.41872 0.0
Li2554 Li 0.40229 0.42517 0.44677 0.0
Li2555 Li 0.39298 0.43872 0.3988 0.0
C2556 C 0.39365 0.37855 0.47252 0.0
N2557 N 0.40419 0.35718 0.52104 0.0
C2558 C 0.40077 0.35228 0.47471 0.0
C2559 C 0.39104 0.39369 0.49522 0.0
C2560 C 0.40625 0.3419 0.49934 0.0
C2561 C 0.39668 0.38262 0.5195 0.0
C2562 C 0.41095 0.40757 0.36766 0.0
C2563 C 0.44241 0.4379 0.34729 0.0
N2564 N 0.44745 0.42055 0.32806 0.0
C2565 C 0.41774 0.3903 0.34734 0.0
C2566 C 0.42448 0.43189 0.36684 0.0
C2567 C 0.4354 0.39714 0.32763 0.0
C2568 C 0.30384 0.37884 0.41649 0.0
N2569 N 0.32259 0.40097 0.42805 0.0
C2570 C 0.3342 0.37842 0.47865 0.0
C2571 C 0.33533 0.40143 0.45559 0.0
C2572 C 0.31681 0.35112 0.47991 0.0
C2573 C 0.30137 0.3406 0.45184 0.0
H2574 H 0.29481 0.38087 0.39732 0.0
H2575 H 0.34814 0.41722 0.46026 0.0
C2576 C 0.45601 0.34055 0.43703 0.0
N2577 N 0.43279 0.34762 0.41932 0.0
C2578 C 0.48293 0.32356 0.42961 0.0
C2579 C 0.46885 0.3102 0.37411 0.0
C2580 C 0.42834 0.33718 0.39217 0.0
C2581 C 0.49156 0.30893 0.40103 0.0
H2582 H 0.45678 0.35039 0.45577 0.0
H2583 H 0.41078 0.3443 0.38262 0.0
C2584 C 0.35576 0.46292 0.4385 0.0
N2585 N 0.32099 0.50062 0.45503 0.0
C2586 C 0.33914 0.47487 0.42055 0.0
C2587 C 0.35442 0.46985 0.46493 0.0
C2588 C 0.32178 0.49398 0.42926 0.0
C2589 C 0.33677 0.48899 0.4729 0.0
C2590 C 0.45243 0.4327 0.42088 0.0
C2591 C 0.45725 0.45947 0.41834 0.0
C2592 C 0.47317 0.41537 0.42373 0.0
C2593 C 0.48288 0.46838 0.41831 0.0
C2594 C 0.49852 0.42508 0.42401 0.0
N2595 N 0.50282 0.45116 0.42121 0.0
C2596 C 0.4415 0.42065 0.47948 0.0
C2597 C 0.42462 0.46386 0.47726 0.0
C2598 C 0.46572 0.42981 0.48639 0.0
N2599 N 0.422 0.43772 0.47398 0.0
C2600 C 0.44856 0.47391 0.48469 0.0
C2601 C 0.4698 0.45678 0.4875 0.0
H2602 H 0.43981 0.40029 0.47416 0.0
H2603 H 0.40946 0.477 0.47091 0.0
C2604 C 0.36077 0.46142 0.35235 0.0
N2605 N 0.38189 0.46626 0.36798 0.0
C2606 C 0.354 0.47672 0.33018 0.0
C2607 C 0.39035 0.5037 0.34061 0.0
C2608 C 0.39591 0.48811 0.36269 0.0
C2609 C 0.36917 0.49822 0.32304 0.0
H2610 H 0.35014 0.44441 0.35556 0.0
H2611 H 0.41261 0.49278 0.37468 0.0
O2612 O 0.38876 0.38898 0.44826 0.0
O2613 O 0.39112 0.40118 0.38634 0.0
O2614 O 0.3736 0.44481 0.43036 0.0
O2615 O 0.42765 0.42319 0.41852 0.0
H2616 H 0.40161 0.33983 0.45764 0.0
H2617 H 0.38409 0.41362 0.4942 0.0
H2618 H 0.41197 0.32164 0.50122 0.0
H2619 H 0.39484 0.39419 0.53714 0.0
H2620 H 0.45225 0.45659 0.3474 0.0
H2621 H 0.40981 0.37144 0.34579 0.0
H2622 H 0.42248 0.44719 0.38079 0.0
H2623 H 0.44015 0.38341 0.31234 0.0
H2624 H 0.34349 0.38367 0.49679 0.0
H2625 H 0.29146 0.32179 0.45201 0.0
H2626 H 0.49699 0.3238 0.44523 0.0
H2627 H 0.47314 0.3019 0.3549 0.0
H2628 H 0.3395 0.46942 0.40017 0.0
H2629 H 0.36678 0.4604 0.4792 0.0
H2630 H 0.3089 0.50351 0.41553 0.0
H2631 H 0.33561 0.49458 0.49328 0.0
H2632 H 0.44137 0.47316 0.41598 0.0
H2633 H 0.46964 0.39468 0.42583 0.0
H2634 H 0.48693 0.489 0.41603 0.0
H2635 H 0.51477 0.41186 0.4263 0.0
H2636 H 0.48155 0.41595 0.48779 0.0
H2637 H 0.45082 0.49491 0.48618 0.0
H2638 H 0.33802 0.47055 0.31784 0.0
H2639 H 0.40453 0.51875 0.33708 0.0
Li2640 Li 0.10104 0.59351 0.95533 0.0
Li2641 Li 0.08063 0.62583 0.92411 0.0
Li2642 Li 0.05664 0.58798 0.94415 0.0
Li2643 Li 0.08856 0.56989 0.91225 0.0
C2644 C 0.06452 0.627 0.98395 0.0
N2645 N 0.04941 0.64333 0.03316 0.0
C2646 C 0.06451 0.65361 0.99023 0.0
C2647 C 0.05693 0.6087 1.00271 0.0
C2648 C 0.05678 0.66148 0.01521 0.0
C2649 C 0.04931 0.61734 0.02746 0.0
C2650 C 0.11551 0.61025 0.89605 0.0
C2651 C 0.10285 0.61322 0.851 0.0
N2652 N 0.11417 0.63689 0.85057 0.0
C2653 C 0.12686 0.63413 0.89519 0.0
C2654 C 0.10298 0.59957 0.87411 0.0
C2655 C 0.1264 0.64702 0.87201 0.0
C2656 C 0.15341 0.58526 0.97744 0.0
N2657 N 0.13049 0.59842 0.98009 0.0
C2658 C 0.1495 0.62539 0.01362 0.0
C2659 C 0.12855 0.61827 0.99779 0.0
C2660 C 0.17351 0.61256 0.01124 0.0
C2661 C 0.17514 0.5919 0.99293 0.0
H2662 H 0.15517 0.57012 0.96275 0.0
H2663 H 0.11104 0.6294 0.99941 0.0
C2664 C 0.04543 0.67331 0.92582 0.0
N2665 N 0.07327 0.66792 0.91724 0.0
C2666 C 0.02257 0.69015 0.911 0.0
C2667 C 0.05418 0.7089 0.86515 0.0
C2668 C 0.08674 0.68098 0.89433 0.0
C2669 C 0.02349 0.7076 0.88324 0.0
H2670 H 0.03821 0.66137 0.94162 0.0
H2671 H 0.10756 0.68165 0.89607 0.0
C2672 C 0.09951 0.54313 0.9627 0.0
N2673 N 0.13493 0.51293 0.98989 0.0
C2674 C 0.11671 0.52677 0.94927 0.0
C2675 C 0.10024 0.54397 0.99002 0.0
C2676 C 0.13448 0.51169 0.96332 0.0
C2677 C 0.11831 0.52861 1.0034 0.0
C2678 C 0.04042 0.58761 0.88823 0.0
C2679 C 0.02885 0.56314 0.89115 0.0
C2680 C 0.03588 0.60173 0.86536 0.0
C2681 C 0.01211 0.55372 0.87178 0.0
C2682 C 0.01907 0.59179 0.84636 0.0
N2683 N 0.00755 0.56817 0.84996 0.0
C2684 C 0.00828 0.60283 0.96346 0.0
C2685 C 0.01468 0.55742 0.95593 0.0
C2686 C 0.98557 0.59788 0.97732 0.0
N2687 N 0.02305 0.58247 0.95493 0.0
C2688 C 0.9911 0.55181 0.96744 0.0
C2689 C 0.97774 0.57193 0.98048 0.0
H2690 H 0.01541 0.62262 0.96184 0.0
H2691 H 0.02721 0.54165 0.94963 0.0
C2692 C 0.12329 0.53776 0.87477 0.0
N2693 N 0.09839 0.53942 0.88411 0.0
C2694 C 0.13043 0.5195 0.85498 0.0
C2695 C 0.08654 0.50427 0.85398 0.0
C2696 C 0.08031 0.52247 0.87411 0.0
C2697 C 0.11198 0.50241 0.84367 0.0
H2698 H 0.1378 0.55089 0.88253 0.0
H2699 H 0.06074 0.52281 0.88156 0.0
O2700 O 0.07282 0.61891 0.95985 0.0
O2701 O 0.11366 0.59946 0.91957 0.0
O2702 O 0.08233 0.55844 0.94918 0.0
O2703 O 0.05778 0.59673 0.9065 0.0
H2704 H 0.07095 0.66799 0.97617 0.0
H2705 H 0.05655 0.5881 0.99806 0.0
H2706 H 0.0568 0.682 0.02038 0.0
H2707 H 0.04329 0.60339 0.04213 0.0
H2708 H 0.09297 0.60574 0.83386 0.0
H2709 H 0.13592 0.64274 0.91231 0.0
H2710 H 0.09152 0.58244 0.87478 0.0
H2711 H 0.13602 0.6653 0.87151 0.0
H2712 H 0.14669 0.64105 0.02761 0.0
H2713 H 0.1932 0.58148 0.98993 0.0
H2714 H 1.0038 0.68706 0.91994 0.0
H2715 H 0.05693 0.72008 0.84725 0.0
H2716 H 0.11651 0.52572 0.92824 0.0
H2717 H 0.08718 0.55644 1.00086 0.0
H2718 H 0.14794 0.49904 0.9531 0.0
H2719 H 0.11916 0.5292 0.02454 0.0
H2720 H 0.0336 0.55101 0.90762 0.0
H2721 H 0.04603 0.61964 0.86183 0.0
H2722 H 1.00311 0.53473 0.87389 0.0
H2723 H 0.01551 0.60268 0.8286 0.0
H2724 H 0.97592 0.61361 0.9877 0.0
H2725 H 0.98579 0.53147 0.97016 0.0
H2726 H 0.15032 0.51918 0.84826 0.0
H2727 H 0.07138 0.49144 0.84685 0.0
Li2728 Li 0.34754 0.34082 0.3732 0.0
Li2729 Li 0.3947 0.33736 0.34592 0.0
Li2730 Li 0.36632 0.36281 0.31901 0.0
Li2731 Li 0.35712 0.31406 0.33231 0.0
C2732 C 0.34741 0.38929 0.35253 0.0
N2733 N 0.3035 0.42207 0.34875 0.0
C2734 C 0.337 0.4017 0.37394 0.0
C2735 C 0.33453 0.39415 0.32826 0.0
C2736 C 0.31508 0.41809 0.37216 0.0
C2737 C 0.31282 0.41049 0.32688 0.0
C2738 C 0.3658 0.28678 0.37654 0.0
C2739 C 0.36365 0.2401 0.36953 0.0
N2740 N 0.35252 0.23719 0.39346 0.0
C2741 C 0.35493 0.28315 0.40132 0.0
C2742 C 0.37073 0.26492 0.36075 0.0
C2743 C 0.34812 0.25802 0.40942 0.0
C2744 C 0.29773 0.33374 0.40499 0.0
N2745 N 0.32644 0.3408 0.41203 0.0
C2746 C 0.29268 0.38171 0.45653 0.0
C2747 C 0.33508 0.35881 0.43576 0.0
C2748 C 0.26593 0.36781 0.44239 0.0
C2749 C 0.26981 0.34614 0.41773 0.0
H2750 H 0.2951 0.32043 0.38877 0.0
H2751 H 0.35554 0.36178 0.4384 0.0
C2752 C 0.45803 0.35297 0.36111 0.0
N2753 N 0.4377 0.33385 0.34791 0.0
C2754 C 0.46869 0.34787 0.39228 0.0
C2755 C 0.42645 0.29246 0.38451 0.0
C2756 C 0.42502 0.30754 0.35587 0.0
C2757 C 0.44648 0.30266 0.40874 0.0
H2758 H 0.46804 0.36741 0.34958 0.0
H2759 H 0.41178 0.29886 0.34225 0.0
C2760 C 0.30891 0.34209 0.32154 0.0
N2761 N 0.26356 0.34792 0.2932 0.0
C2762 C 0.30959 0.34209 0.29422 0.0
C2763 C 0.2852 0.34554 0.3344 0.0
C2764 C 0.28649 0.34525 0.28026 0.0
C2765 C 0.26245 0.34802 0.31977 0.0
C2766 C 0.40349 0.32011 0.29481 0.0
C2767 C 0.42092 0.33669 0.28216 0.0
C2768 C 0.40575 0.29306 0.29129 0.0
C2769 C 0.44043 0.32606 0.26642 0.0
C2770 C 0.42549 0.28314 0.27542 0.0
N2771 N 0.4423 0.29971 0.26339 0.0
C2772 C 0.38472 0.42037 0.30922 0.0
C2773 C 0.38742 0.39658 0.27039 0.0
C2774 C 0.39554 0.44285 0.29714 0.0
N2775 N 0.38058 0.39722 0.29628 0.0
C2776 C 0.39761 0.41908 0.25737 0.0
C2777 C 0.40053 0.44366 0.27029 0.0
H2778 H 0.38033 0.42147 0.32956 0.0
H2779 H 0.38482 0.37866 0.25944 0.0
C2780 C 0.31635 0.28115 0.33506 0.0
N2781 N 0.33703 0.28699 0.31954 0.0
C2782 C 0.29316 0.27299 0.32388 0.0
C2783 C 0.31395 0.2749 0.28137 0.0
C2784 C 0.33665 0.28321 0.2933 0.0
C2785 C 0.2916 0.27133 0.29667 0.0
H2786 H 0.31664 0.28623 0.35558 0.0
H2787 H 0.35253 0.28993 0.28131 0.0
O2788 O 0.36854 0.37191 0.35663 0.0
O2789 O 0.37278 0.31147 0.36867 0.0
O2790 O 0.33171 0.34244 0.33543 0.0
O2791 O 0.38384 0.33023 0.30986 0.0
H2792 H 0.34672 0.39839 0.39163 0.0
H2793 H 0.33907 0.38468 0.31014 0.0
H2794 H 0.30776 0.42831 0.38915 0.0
H2795 H 0.30312 0.41358 0.30836 0.0
H2796 H 0.36709 0.22314 0.35734 0.0
H2797 H 0.35234 0.29943 0.41449 0.0
H2798 H 0.37981 0.26698 0.34187 0.0
H2799 H 0.33957 0.25505 0.42851 0.0
H2800 H 0.29003 0.39717 0.47091 0.0
H2801 H 0.25216 0.33718 0.41051 0.0
H2802 H 0.48488 0.35962 0.39962 0.0
H2803 H 0.41524 0.27463 0.38672 0.0
H2804 H 0.32791 0.34048 0.28393 0.0
H2805 H 0.28442 0.34738 0.35537 0.0
H2806 H 0.28682 0.34567 0.25911 0.0
H2807 H 0.24398 0.35066 0.32953 0.0
H2808 H 0.41938 0.35753 0.28435 0.0
H2809 H 0.39252 0.27978 0.30081 0.0
H2810 H 0.45403 0.33878 0.25654 0.0
H2811 H 0.42743 0.26225 0.27265 0.0
H2812 H 0.39922 0.45993 0.3088 0.0
H2813 H 0.40197 0.4174 0.23673 0.0
H2814 H 0.27612 0.2705 0.33607 0.0
H2815 H 0.31326 0.27342 0.26023 0.0
C2816 C 0.02528 0.98412 0.01664 0.0
C2817 C 0.03085 0.00848 0.00552 0.0
H2818 H 0.99911 0.95199 0.01722 0.0
C2819 C 0.01972 0.01568 0.98167 0.0
H2820 H 0.03397 0.97842 0.0351 0.0
C2821 C 0.99985 1.00055 0.9713 0.0
C2822 C 0.99115 0.97838 0.98493 0.0
H2823 H 0.02401 0.03446 0.97288 0.0
H2824 H 0.98991 0.00739 0.95395 0.0
C2825 C 0.0052 0.9692 0.00654 0.0
C2826 C 0.24188 0.74697 0.23845 0.0
C2827 C 0.25291 0.72271 0.24492 0.0
H2828 H 0.22038 0.77959 0.2524 0.0
C2829 C 0.2451 0.70964 0.26776 0.0
H2830 H 0.24737 0.75764 0.22104 0.0
C2831 C 0.23027 0.72286 0.28616 0.0
C2832 C 0.22288 0.74857 0.28102 0.0
H2833 H 0.25256 0.69042 0.27252 0.0
H2834 H 0.22688 0.71413 0.30515 0.0
C2835 C 0.22659 0.75973 0.25644 0.0
C2836 C 0.47798 0.03481 0.5205 0.0
C2837 C 0.47442 0.009 0.51212 0.0
H2838 H 0.50329 0.06751 0.51997 0.0
C2839 C 0.48746 0.99964 0.49 0.0
H2840 H 0.46755 0.04233 0.53734 0.0
C2841 C 0.50769 0.01417 0.47968 0.0
C2842 C 0.51481 0.03782 0.49168 0.0
H2843 H 0.48457 0.97981 0.48306 0.0
H2844 H 0.5192 0.00575 0.46406 0.0
C2845 C 0.49858 0.04907 0.51066 0.0
C2846 C 0.27593 0.27988 0.75014 0.0
C2847 C 0.29054 0.2576 0.7445 0.0
H2848 H 0.24103 0.30006 0.7418 0.0
C2849 C 0.28776 0.24506 0.72016 0.0
H2850 H 0.27802 0.28996 0.7687 0.0
C2851 C 0.26633 0.25082 0.70463 0.0
C2852 C 0.24839 0.26948 0.71336 0.0
H2853 H 0.29928 0.22792 0.71551 0.0
H2854 H 0.26225 0.23872 0.68769 0.0
C2855 C 0.25444 0.28539 0.73491 0.0
C2856 C 0.02756 0.02494 0.49348 0.0
C2857 C 0.03099 1.00111 0.50648 0.0
H2858 H 1.00296 0.05821 0.48899 0.0
C2859 C 0.01764 0.99581 0.52959 0.0
H2860 H 0.03783 0.02895 0.47541 0.0
C2861 C 0.99745 0.01208 0.53699 0.0
C2862 C 0.99103 0.03374 0.52145 0.0
H2863 H 0.02017 0.97731 0.53958 0.0
H2864 H 0.98529 0.00623 0.55321 0.0
C2865 C 0.00742 0.04135 0.50097 0.0
C2866 C 0.2756 0.7952 0.78635 0.0
C2867 C 0.2649 0.8072 0.76405 0.0
H2868 H 0.26716 0.77521 0.82139 0.0
C2869 C 0.24107 0.82051 0.76726 0.0
H2870 H 0.29534 0.78815 0.78711 0.0
C2871 C 0.22502 0.81403 0.78815 0.0
C2872 C 0.23268 0.79374 0.80484 0.0
H2873 H 0.23331 0.8336 0.75269 0.0
H2874 H 0.20513 0.82098 0.78807 0.0
C2875 C 0.25941 0.78849 0.80693 0.0
C2876 C 0.48702 0.98529 0.99269 0.0
C2877 C 0.47759 0.01076 0.99508 0.0
H2878 H 0.51583 0.95831 0.00493 0.0
C2879 C 0.48654 0.02739 0.01504 0.0
H2880 H 0.48016 0.97237 0.97733 0.0
C2881 C 0.50675 0.01938 0.03093 0.0
C2882 C 0.51787 0.99486 0.02674 0.0
H2883 H 0.47952 0.04728 0.01692 0.0
H2884 H 0.51434 0.0326 0.04566 0.0
C2885 C 0.50741 0.97747 0.00825 0.0
C2886 C 0.26025 0.28365 0.26226 0.0
C2887 C 0.26653 0.26788 0.28381 0.0
H2888 H 0.23794 0.28676 0.22725 0.0
C2889 C 0.25049 0.24688 0.29061 0.0
H2890 H 0.27232 0.30002 0.25682 0.0
C2891 C 0.23078 0.23934 0.27362 0.0
C2892 C 0.22722 0.25301 0.25015 0.0
H2893 H 0.25495 0.23468 0.30733 0.0
H2894 H 0.22071 0.22106 0.27707 0.0
C2895 C 0.24042 0.27632 0.24552 0.0
C2896 C 0.45132 0.46774 1.00335 0.0
C2897 C 0.45995 0.46919 0.02926 0.0
H2898 H 0.46303 0.46429 0.96365 0.0
C2899 C 0.48414 0.45899 0.03629 0.0
H2900 H 0.4326 0.47578 0.99785 0.0
C2901 C 0.50166 0.4523 0.01678 0.0
C2902 C 0.49475 0.45595 0.99048 0.0
H2903 H 0.49088 0.46004 0.05636 0.0
H2904 H 0.52124 0.44674 0.02222 0.0
C2905 C 0.46892 0.46164 0.98382 0.0
C2906 C 0.7729 0.22956 0.25669 0.0
C2907 C 0.78899 0.25064 0.26287 0.0
H2908 H 0.7367 0.2118 0.26465 0.0
C2909 C 0.78788 0.26182 0.28801 0.0
H2910 H 0.77382 0.22024 0.23764 0.0
C2911 C 0.76633 0.25699 0.30369 0.0
C2912 C 0.74678 0.24037 0.29435 0.0
H2913 H 0.80075 0.27778 0.29324 0.0
H2914 H 0.76353 0.26854 0.32125 0.0
C2915 C 0.7513 0.225 0.27204 0.0
C2916 C 0.00508 0.48693 0.52403 0.0
C2917 C 0.00993 0.46432 0.50908 0.0
H2918 H 0.9833 0.52224 0.52671 0.0
C2919 C 0.99139 0.4557 0.49094 0.0
H2920 H 0.01855 0.49346 0.53894 0.0
C2921 C 0.97067 0.47186 0.48468 0.0
C2922 C 0.96914 0.49679 0.49604 0.0
H2923 H 0.99437 0.43808 0.47954 0.0
H2924 H 0.9586 0.46684 0.46802 0.0
C2925 C 0.98449 0.5031 0.51764 0.0
C2926 C 0.72616 0.74311 0.26092 0.0
C2927 C 0.73756 0.74588 0.28554 0.0
H2928 H 0.72699 0.75636 0.22153 0.0
C2929 C 0.74849 0.76999 0.29269 0.0
H2930 H 0.71639 0.7251 0.25556 0.0
C2931 C 0.75649 0.78696 0.27307 0.0
C2932 C 0.75109 0.78069 0.24697 0.0
H2933 H 0.75606 0.77296 0.31227 0.0
H2934 H 0.76802 0.80397 0.27805 0.0
C2935 C 0.73366 0.76014 0.24129 0.0
C2936 C 0.75351 0.22974 0.73354 0.0
C2937 C 0.7604 0.24319 0.71071 0.0
H2938 H 0.72932 0.22941 0.76699 0.0
C2939 C 0.74281 0.2607 0.69933 0.0
H2940 H 0.7664 0.21555 0.74223 0.0
C2941 C 0.72097 0.26833 0.71338 0.0
C2942 C 0.71755 0.25908 0.73901 0.0
H2943 H 0.7474 0.27074 0.68128 0.0
H2944 H 0.70938 0.28445 0.70609 0.0
C2945 C 0.73188 0.23744 0.74757 0.0
C2946 C 0.75919 0.77239 0.77014 0.0
C2947 C 0.7669 0.75995 0.7933 0.0
H2948 H 0.73307 0.7722 0.73811 0.0
C2949 C 0.74972 0.74291 0.80599 0.0
H2950 H 0.77171 0.78621 0.76036 0.0
C2951 C 0.72705 0.73522 0.79338 0.0
C2952 C 0.72207 0.74407 0.76788 0.0
H2953 H 0.75496 0.73355 0.82423 0.0
H2954 H 0.71552 0.71966 0.80186 0.0
C2955 C 0.73665 0.76473 0.7576 0.0
C2956 C 0.50299 0.49078 0.47812 0.0
C2957 C 0.49629 0.467 0.49001 0.0
H2958 H 0.52781 0.52387 0.47961 0.0
C2959 C 0.51457 0.45411 0.5058 0.0
H2960 H 0.48999 0.50047 0.4646 0.0
C2961 C 0.53714 0.46692 0.51309 0.0
C2962 C 0.54056 0.49311 0.50589 0.0
H2963 H 0.51039 0.43546 0.51481 0.0
H2964 H 0.54948 0.45807 0.5278 0.0
C2965 C 0.52516 0.50388 0.48605 0.0
C2966 C 0.94288 0.54825 1.00232 0.0
C2967 C 0.96494 0.56398 0.00447 0.0
H2968 H 0.9242 0.51345 0.01483 0.0
C2969 C 0.98198 0.5605 0.02558 0.0
H2970 H 0.92939 0.55093 0.98627 0.0
C2971 C 0.9809 0.53757 0.03992 0.0
C2972 C 0.9612 0.51918 0.0349 0.0
H2973 H 0.9992 0.5726 0.02748 0.0
H2974 H 0.99697 0.53351 0.05289 0.0
C2975 C 0.94076 0.5261 0.01788 0.0
C2976 C 0.10204 0.98281 0.22648 0.0
C2977 C 0.11985 0.99733 0.21135 0.0
H2978 H 0.09575 0.95466 0.2567 0.0
C2979 C 0.14654 0.99298 0.21639 0.0
H2980 H 0.08135 0.98516 0.22365 0.0
C2981 C 0.15499 0.97447 0.23502 0.0
C2982 C 0.13718 0.95965 0.24987 0.0
H2983 H 0.16124 0.00405 0.20613 0.0
H2984 H 0.17568 0.97171 0.23744 0.0
C2985 C 0.11048 0.96462 0.2454 0.0
C2986 C 0.3044 0.85095 0.50246 0.0
C2987 C 0.31595 0.87475 0.50991 0.0
H2988 H 0.27609 0.83176 0.47824 0.0
C2989 C 0.30593 0.89807 0.49923 0.0
H2990 H 0.31144 0.83264 0.51035 0.0
C2991 C 0.28566 0.89759 0.48095 0.0
C2992 C 0.27488 0.87376 0.47259 0.0
H2993 H 0.31387 0.91684 0.50496 0.0
H2994 H 0.27899 0.9159 0.47273 0.0
C2995 C 0.28424 0.85045 0.4839 0.0
C2996 C 0.41113 0.02687 0.77704 0.0
C2997 C 0.39491 0.053 0.76227 0.0
H2998 H 0.41503 0.97846 0.77784 0.0
C2999 C 0.37221 0.0505 0.73847 0.0
H3000 H 0.42555 0.03068 0.79197 0.0
C3001 C 0.35921 0.02473 0.72452 0.0
C3002 C 0.3681 0.9942 0.73155 0.0
H3003 H 0.36292 0.06761 0.73087 0.0
H3004 H 0.34565 0.02815 0.70866 0.0
C3005 C 0.40312 0.99402 0.76942 0.0
C3006 C 0.22212 0.16888 0.9802 0.0
C3007 C 0.23141 0.14678 0.9665 0.0
H3008 H 0.19749 0.18372 0.01099 0.0
C3009 C 0.2228 0.12201 0.9748 0.0
H3010 H 0.22857 0.18826 0.97469 0.0
C3011 C 0.20473 0.11945 0.9953 0.0
C3012 C 0.19501 0.14153 0.00868 0.0
H3013 H 0.22947 0.10451 0.9649 0.0
H3014 H 0.19821 0.10005 1.00064 0.0
C3015 C 0.20444 0.16628 1.00119 0.0
C3016 C 0.11036 0.04825 0.267 0.0
C3017 C 0.13736 0.05194 0.26343 0.0
H3018 H 0.07977 0.028 0.28733 0.0
C3019 C 0.15419 0.03699 0.27921 0.0
H3020 H 0.09657 0.05931 0.25548 0.0
C3021 C 0.14444 0.0189 0.29757 0.0
C3022 C 0.11745 0.01522 0.30115 0.0
H3023 H 0.17503 0.0388 0.27699 0.0
H3024 H 0.15822 0.00781 0.30909 0.0
C3025 C 0.10061 0.03037 0.28559 0.0
C3026 C 0.22019 0.84303 0.52695 0.0
C3027 C 0.23048 0.865 0.54014 0.0
H3028 H 0.19423 0.82851 0.49717 0.0
C3029 C 0.22205 0.88988 0.532 0.0
H3030 H 0.22644 0.82355 0.53232 0.0
C3031 C 0.20341 0.89271 0.51208 0.0
C3032 C 0.19272 0.87082 0.49911 0.0
H3033 H 0.22943 0.90731 0.54149 0.0
H3034 H 0.19749 0.9123 0.5067 0.0
C3035 C 0.20182 0.8459 0.50658 0.0
C3036 C 0.35792 0.98463 0.77572 0.0
C3037 C 0.3669 0.01525 0.76924 0.0
H3038 H 0.36223 0.94176 0.76935 0.0
C3039 C 0.40404 0.0158 0.73349 0.0
H3040 H 0.34342 0.98106 0.79068 0.0
C3041 C 0.41281 0.98303 0.72636 0.0
C3042 C 0.39611 0.95675 0.74024 0.0
H3043 H 0.41622 0.03151 0.72577 0.0
H3044 H 0.4281 0.97932 0.7123 0.0
C3045 C 0.37197 0.959 0.76258 0.0
C3046 C 0.30451 0.16035 0.00582 0.0
C3047 C 0.31549 0.13625 0.99827 0.0
H3048 H 0.27788 0.18053 0.03125 0.0
C3049 C 0.30609 0.11343 0.01052 0.0
H3050 H 0.31101 0.17835 0.99684 0.0
C3051 C 0.28717 0.11466 0.03024 0.0
C3052 C 0.27689 0.13877 0.03856 0.0
H3053 H 0.31345 0.09439 0.00491 0.0
H3054 H 0.28114 0.09663 0.03949 0.0
C3055 C 0.28561 0.1616 0.02578 0.0
C3056 C 0.94578 0.23889 0.13946 0.0
C3057 C 0.93712 0.25056 0.11608 0.0
H3058 H 0.97235 0.21231 0.15773 0.0
C3059 C 0.95076 0.24517 0.09286 0.0
H3060 H 0.93618 0.24311 0.15785 0.0
C3061 C 0.9716 0.22742 0.09282 0.0
C3062 C 0.97955 0.215 0.11608 0.0
H3063 H 0.94479 0.25398 0.07457 0.0
H3064 H 0.98131 0.22315 0.07452 0.0
C3065 C 0.96676 0.22146 0.13948 0.0
C3066 C 0.45255 0.31233 0.88888 0.0
C3067 C 0.47926 0.3061 0.88988 0.0
H3068 H 0.41326 0.29917 0.88911 0.0
C3069 C 0.48564 0.2792 0.89179 0.0
H3070 H 0.44606 0.33234 0.88721 0.0
C3071 C 0.46633 0.25964 0.89165 0.0
C3072 C 0.43969 0.26599 0.89008 0.0
H3073 H 0.50559 0.27283 0.89346 0.0
H3074 H 0.47257 0.23949 0.89237 0.0
C3075 C 0.43331 0.29284 0.88938 0.0
C3076 C 0.03238 0.72667 0.41692 0.0
C3077 C 0.02439 0.71425 0.39359 0.0
H3078 H 0.05522 0.75739 0.43472 0.0
C3079 C 0.03379 0.72437 0.3698 0.0
H3080 H 0.02529 0.71967 0.43558 0.0
C3081 C 0.05128 0.74558 0.36935 0.0
C3082 C 0.05939 0.758 0.39262 0.0
H3083 H 0.02797 0.7155 0.35145 0.0
H3084 H 0.05853 0.75235 0.35066 0.0
C3085 C 0.04937 0.74845 0.41642 0.0
C3086 C 0.03596 0.27975 0.09847 0.0
C3087 C 0.02627 0.29139 0.12153 0.0
H3088 H 0.06115 0.25055 0.08145 0.0
C3089 C 0.03479 0.28134 0.14563 0.0
H3090 H 0.02954 0.28679 0.07958 0.0
C3091 C 0.05312 0.26092 0.14673 0.0
C3092 C 0.06318 0.24939 0.12374 0.0
H3093 H 0.02752 0.2896 0.16374 0.0
H3094 H 0.05942 0.25405 0.16573 0.0
C3095 C 0.05394 0.25884 0.09956 0.0
C3096 C 0.5597 0.76866 0.59795 0.0
C3097 C 0.56953 0.7603 0.62228 0.0
H3098 H 0.53418 0.79516 0.57746 0.0
C3099 C 0.55961 0.77226 0.64506 0.0
H3100 H 0.56685 0.75994 0.58001 0.0
C3101 C 0.54058 0.79197 0.64361 0.0
C3102 C 0.53132 0.80088 0.61931 0.0
H3103 H 0.5665 0.76622 0.66414 0.0
H3104 H 0.53334 0.80058 0.66157 0.0
C3105 C 0.54111 0.78895 0.59647 0.0
C3106 C 0.94506 0.76799 0.36779 0.0
C3107 C 0.9381 0.75437 0.39069 0.0
H3108 H 0.96887 0.79743 0.35019 0.0
C3109 C 0.95242 0.75928 0.41363 0.0
H3110 H 0.93498 0.76429 0.34956 0.0
C3111 C 0.97212 0.77839 0.41395 0.0
C3112 C 0.97824 0.7928 0.39125 0.0
H3113 H 0.94783 0.74902 0.43155 0.0
H3114 H 0.98239 0.78208 0.43208 0.0
C3115 C 0.9648 0.78684 0.36805 0.0
C3116 C 0.54186 0.21295 0.86232 0.0
C3117 C 0.53183 0.20377 0.88622 0.0
H3118 H 0.56884 0.23834 0.84282 0.0
C3119 C 0.5416 0.21494 0.90947 0.0
H3120 H 0.53473 0.205 0.84402 0.0
C3121 C 0.5609 0.23461 0.9088 0.0
C3122 C 0.57151 0.24322 0.88487 0.0
H3123 H 0.53409 0.20864 0.92822 0.0
H3124 H 0.56794 0.24267 0.92708 0.0
C3125 C 0.56154 0.23208 0.86166 0.0
C3126 C 0.91501 0.02367 0.72394 0.0
C3127 C 0.9123 0.04773 0.7469 0.0
H3128 H 0.89523 0.97633 0.71032 0.0
C3129 C 0.89438 0.04765 0.77419 0.0
H3130 H 0.90614 0.00747 0.72116 0.0
C3131 C 0.87081 0.02786 0.78344 0.0
C3132 C 0.86427 0.99905 0.76816 0.0
H3133 H 0.89548 0.06483 0.78642 0.0
H3134 H 0.85966 0.03416 0.80046 0.0
C3135 C 0.89437 0.99522 0.7247 0.0
C3136 C 0.7209 0.18218 0.51644 0.0
C3137 C 0.70445 0.16206 0.50753 0.0
H3138 H 0.75164 0.19386 0.54246 0.0
C3139 C 0.70744 0.13754 0.52125 0.0
H3140 H 0.72007 0.20121 0.50724 0.0
C3141 C 0.72692 0.13274 0.53987 0.0
C3142 C 0.74367 0.15243 0.54772 0.0
H3143 H 0.69647 0.1202 0.51667 0.0
H3144 H 0.72909 0.11324 0.54785 0.0
C3145 C 0.73953 0.17765 0.53662 0.0
C3146 C 0.63867 0.94887 0.27724 0.0
C3147 C 0.62085 0.94509 0.25005 0.0
H3148 H 0.65837 0.97248 0.31111 0.0
C3149 C 0.6054 0.96976 0.23236 0.0
H3150 H 0.64459 0.93131 0.2873 0.0
C3151 C 0.61087 0.00466 0.24112 0.0
C3152 C 0.63946 0.00543 0.28415 0.0
H3153 H 0.60538 0.98876 0.23338 0.0
H3154 H 0.60141 0.02342 0.23071 0.0
C3155 C 0.64807 0.97528 0.29285 0.0
C3156 C 0.78817 0.83973 0.01153 0.0
C3157 C 0.80104 0.85961 0.99789 0.0
H3158 H 0.76204 0.8293 0.04197 0.0
C3159 C 0.79419 0.88584 0.0063 0.0
H3160 H 0.79244 0.81949 0.00703 0.0
C3161 C 0.77384 0.89163 0.02382 0.0
C3162 C 0.7607 0.87182 0.03669 0.0
H3163 H 0.8032 0.90316 0.9985 0.0
H3164 H 0.76865 0.91184 0.0275 0.0
C3165 C 0.76959 0.84573 0.03133 0.0
C3166 C 0.84985 0.9786 0.72674 0.0
C3167 C 0.85097 0.01 0.72153 0.0
H3168 H 0.86315 0.93949 0.74297 0.0
C3169 C 0.87111 0.02801 0.73793 0.0
H3170 H 0.83561 0.96819 0.71515 0.0
C3171 C 0.90581 1.0019 0.76453 0.0
C3172 C 0.89699 0.96719 0.76043 0.0
H3173 H 0.86697 0.04875 0.73584 0.0
H3174 H 0.92296 0.00811 0.77539 0.0
C3175 C 0.86962 0.95958 0.74352 0.0
C3176 C 0.78608 0.18127 0.49516 0.0
C3177 C 0.80264 0.16119 0.5039 0.0
H3178 H 0.75531 0.193 0.46931 0.0
C3179 C 0.79954 0.13667 0.49001 0.0
H3180 H 0.78696 0.20031 0.50439 0.0
C3181 C 0.77988 0.13183 0.47153 0.0
C3182 C 0.763 0.15147 0.46391 0.0
H3183 H 0.81052 0.1193 0.49434 0.0
H3184 H 0.77772 0.11235 0.46344 0.0
C3185 C 0.7673 0.17671 0.47507 0.0
C3186 C 0.65675 0.01526 0.24261 0.0
C3187 C 0.64725 0.98442 0.24718 0.0
H3188 H 0.64995 0.05864 0.24787 0.0
C3189 C 0.60501 0.98239 0.27658 0.0
H3190 H 0.67386 0.01924 0.23088 0.0
C3191 C 0.59437 0.01654 0.28234 0.0
C3192 C 0.61282 0.04243 0.2702 0.0
H3193 H 0.59392 0.96271 0.28275 0.0
H3194 H 0.59615 0.99761 0.28176 0.0
C3195 C 0.64025 0.04058 0.25276 0.0
C3196 C 0.70899 0.8727 0.9781 0.0
C3197 C 0.70817 0.84882 0.99289 0.0
H3198 H 0.72863 0.89706 0.94989 0.0
C3199 C 0.72594 0.82955 0.98507 0.0
H3200 H 0.69604 0.88882 0.98204 0.0
C3201 C 0.74363 0.83413 0.96423 0.0
C3202 C 0.74591 0.8589 0.95162 0.0
H3203 H 0.72653 0.81104 0.99529 0.0
H3204 H 0.75617 0.81814 0.95889 0.0
C3205 C 0.72797 0.87793 0.95892 0.0
C3206 C 0.02384 0.7796 0.92318 0.0
C3207 C 0.01893 0.79144 0.89791 0.0
H3208 H 0.03941 0.74693 0.94559 0.0
C3209 C 0.03442 0.78226 0.87786 0.0
H3210 H 0.01322 0.78555 0.94033 0.0
C3211 C 0.05113 0.76082 0.88186 0.0
C3212 C 0.05151 0.74423 0.90541 0.0
H3213 H 0.03337 0.79127 0.85873 0.0
H3214 H 0.06308 0.75715 0.86496 0.0
C3215 C 0.03922 0.75644 0.92669 0.0
C3216 C 0.54967 0.68788 0.10307 0.0
C3217 C 0.52678 0.68576 0.11784 0.0
H3218 H 0.58689 0.70594 0.09888 0.0
C3219 C 0.52418 0.70119 0.14051 0.0
H3220 H 0.55203 0.67661 0.08526 0.0
C3221 C 0.54441 0.71766 0.14871 0.0
C3222 C 0.56766 0.71937 0.13427 0.0
H3223 H 0.50679 0.69989 0.15239 0.0
H3224 H 0.54203 0.72851 0.16676 0.0
C3225 C 0.56973 0.7046 0.11104 0.0
C3226 C 0.98185 0.27284 0.62855 0.0
C3227 C 0.99437 0.28227 0.60686 0.0
H3228 H 0.95722 0.24674 0.64555 0.0
C3229 C 0.98659 0.27039 0.58225 0.0
H3230 H 0.98583 0.2813 0.6476 0.0
C3231 C 0.97025 0.24776 0.58021 0.0
C3232 C 0.95988 0.2357 0.6025 0.0
H3233 H 0.99528 0.27605 0.56398 0.0
H3234 H 0.9677 0.23849 0.56133 0.0
C3235 C 0.96495 0.25147 0.62649 0.0
C3236 C 0.98988 0.74028 0.86491 0.0
C3237 C 1.00054 0.7276 0.88595 0.0
H3238 H 0.9644 0.76713 0.85012 0.0
C3239 C 0.98893 0.7347 0.91111 0.0
H3240 H 0.99589 0.73508 0.84526 0.0
C3241 C 0.97176 0.75638 0.9152 0.0
C3242 C 0.96386 0.7722 0.89444 0.0
H3243 H 0.99532 0.72613 0.92924 0.0
H3244 H 0.96675 0.76205 0.93498 0.0
C3245 C 0.97147 0.76024 0.86877 0.0
C3246 C 0.46707 0.25843 0.43068 0.0
C3247 C 0.45797 0.27186 0.40846 0.0
H3248 H 0.49095 0.22826 0.44649 0.0
C3249 C 0.46388 0.25729 0.38408 0.0
H3250 H 0.46351 0.26662 0.44988 0.0
C3251 C 0.48108 0.23622 0.38176 0.0
C3252 C 0.49261 0.22561 0.40352 0.0
H3253 H 0.4568 0.26289 0.36501 0.0
H3254 H 0.486 0.22885 0.36249 0.0
C3255 C 0.48337 0.23564 0.42831 0.0
C3256 C 0.02528 0.22586 0.58337 0.0
C3257 C 0.01615 0.2172 0.60887 0.0
H3258 H 0.0449 0.25545 0.5595 0.0
C3259 C 0.02699 0.22834 0.63119 0.0
H3260 H 0.01775 0.21746 0.56564 0.0
C3261 C 0.04305 0.25021 0.63021 0.0
C3262 C 0.04928 0.26375 0.60283 0.0
H3263 H 0.02187 0.22082 0.65028 0.0
H3264 H 0.04742 0.26001 0.61726 0.0
C3265 C 0.04111 0.24831 0.57904 0.0
C3266 C 0.45858 0.79407 0.13681 0.0
C3267 C 0.45441 0.77482 0.11723 0.0
H3268 H 0.47896 0.82852 0.14955 0.0
C3269 C 0.46891 0.77789 0.09392 0.0
H3270 H 0.44782 0.79335 0.15497 0.0
C3271 C 0.48694 0.79874 0.09065 0.0
C3272 C 0.49128 0.81777 0.11043 0.0
H3273 H 0.46675 0.76385 0.0782 0.0
H3274 H 0.49742 0.79998 0.07235 0.0
C3275 C 0.47647 0.81488 0.13352 0.0
C3276 C 0.61734 0.49787 0.77378 0.0
C3277 C 0.61058 0.46793 0.75922 0.0
H3278 H 0.66271 0.54161 0.74836 0.0
C3279 C 0.62174 0.46166 0.72911 0.0
H3280 H 0.60825 0.50209 0.79254 0.0
C3281 C 0.64382 0.47756 0.71137 0.0
C3282 C 0.65679 0.50725 0.71583 0.0
H3283 H 0.61586 0.44311 0.72074 0.0
H3284 H 0.64849 0.46808 0.693 0.0
C3285 C 0.65238 0.52328 0.7454 0.0
C3286 C 0.80681 0.39019 0.99123 0.0
C3287 C 0.81711 0.36802 1.00391 0.0
H3288 H 0.78104 0.40531 0.96172 0.0
C3289 C 0.80826 0.34325 0.99557 0.0
H3290 H 0.8129 0.40958 0.99716 0.0
C3291 C 0.7904 0.34078 0.97465 0.0
C3292 C 0.78023 0.36301 0.96193 0.0
H3293 H 0.81566 0.32572 0.00481 0.0
H3294 H 0.78436 0.32142 0.96854 0.0
C3295 C 0.78845 0.38774 0.97088 0.0
C3296 C 0.87776 0.54495 0.24344 0.0
C3297 C 0.90186 0.5475 0.26588 0.0
H3298 H 0.84923 0.52259 0.21566 0.0
C3299 C 0.91849 0.52144 0.28026 0.0
H3300 H 0.86797 0.56197 0.23621 0.0
C3301 C 0.90966 0.48862 0.2736 0.0
C3302 C 0.8726 0.48876 0.23768 0.0
H3303 H 0.93371 0.52535 0.29434 0.0
H3304 H 0.9218 0.47299 0.28156 0.0
C3305 C 0.86368 0.51921 0.23072 0.0
C3306 C 0.72048 0.6153 0.47089 0.0
C3307 C 0.73019 0.63961 0.46262 0.0
H3308 H 0.69367 0.59474 0.49548 0.0
C3309 C 0.72053 0.66239 0.47482 0.0
H3310 H 0.7274 0.59737 0.46198 0.0
C3311 C 0.70128 0.66088 0.49435 0.0
C3312 C 0.6908 0.63658 0.50174 0.0
H3313 H 0.72779 0.68143 0.46916 0.0
H3314 H 0.69401 0.67877 0.50304 0.0
C3315 C 0.70097 0.61382 0.48999 0.0
C3316 C 0.65329 0.48323 0.75731 0.0
C3317 C 0.66098 0.49938 0.78618 0.0
H3318 H 0.60374 0.50393 0.71577 0.0
C3319 C 0.64844 0.52897 0.79203 0.0
H3320 H 0.66344 0.46504 0.7531 0.0
C3321 C 0.62403 0.54439 0.77732 0.0
C3322 C 0.60963 0.53816 0.74867 0.0
H3323 H 0.65549 0.53877 0.80944 0.0
H3324 H 0.61855 0.56259 0.7867 0.0
C3325 C 0.6149 0.50824 0.73334 0.0
C3326 C 0.71779 0.39067 0.0383 0.0
C3327 C 0.72608 0.3659 0.04693 0.0
H3328 H 0.69291 0.4126 0.01272 0.0
C3329 C 0.71547 0.34369 0.03447 0.0
H3330 H 0.72545 0.40823 0.04732 0.0
C3331 C 0.69697 0.3462 0.01422 0.0
C3332 C 0.68804 0.37099 0.00626 0.0
H3333 H 0.72158 0.32429 0.04032 0.0
H3334 H 0.68916 0.32868 0.00527 0.0
C3335 C 0.69894 0.39316 0.01851 0.0
C3336 C 0.8648 0.48006 0.2826 0.0
C3337 C 0.87378 0.51037 0.2751 0.0
H3338 H 0.86841 0.43715 0.2771 0.0
C3339 C 0.90889 0.50984 0.23733 0.0
H3340 H 0.85129 0.47697 0.29855 0.0
C3341 C 0.91682 0.47689 0.23024 0.0
C3342 C 0.9004 0.45111 0.24528 0.0
H3343 H 0.92086 0.52523 0.2287 0.0
H3344 H 0.93121 0.47279 0.21536 0.0
C3345 C 0.87772 0.45405 0.26908 0.0
C3346 C 0.80671 0.66259 0.51335 0.0
C3347 C 0.8152 0.63774 0.50492 0.0
H3348 H 0.78297 0.68457 0.54037 0.0
C3349 C 0.80458 0.61562 0.51736 0.0
H3350 H 0.81442 0.68006 0.50427 0.0
C3351 C 0.78623 0.6182 0.53762 0.0
C3352 C 0.77833 0.64299 0.54666 0.0
H3353 H 0.81041 0.59618 0.51131 0.0
H3354 H 0.77855 0.60067 0.54663 0.0
C3355 C 0.78882 0.66518 0.53417 0.0
C3356 C 0.47034 0.71705 0.58863 0.0
C3357 C 0.47996 0.70539 0.61165 0.0
H3358 H 0.44461 0.74574 0.57179 0.0
C3359 C 0.47071 0.7147 0.63583 0.0
H3360 H 0.47728 0.71055 0.5697 0.0
C3361 C 0.45173 0.73441 0.63699 0.0
C3362 C 0.44187 0.74591 0.61403 0.0
H3363 H 0.47773 0.70625 0.65392 0.0
H3364 H 0.44466 0.74067 0.65596 0.0
C3365 C 0.45178 0.73732 0.58982 0.0
C3366 C 0.39459 0.51033 0.23089 0.0
C3367 C 0.41065 0.53824 0.24175 0.0
H3368 H 0.34908 0.47697 0.26854 0.0
C3369 C 0.40807 0.5473 0.27298 0.0
H3370 H 0.39884 0.50327 0.21124 0.0
C3371 C 0.38745 0.53741 0.2959 0.0
C3372 C 0.36705 0.51189 0.29605 0.0
H3373 H 0.41959 0.5641 0.27869 0.0
H3374 H 0.3883 0.54904 0.31357 0.0
C3375 C 0.36188 0.49401 0.26743 0.0
C3376 C 0.21883 0.65522 0.05276 0.0
C3377 C 0.23718 0.6371 0.06183 0.0
H3378 H 0.18558 0.66225 0.02881 0.0
C3379 C 0.23545 0.61105 0.05308 0.0
H3380 H 0.21998 0.67551 0.05876 0.0
C3381 C 0.21516 0.60308 0.03643 0.0
C3382 C 0.19631 0.62109 0.02771 0.0
H3383 H 0.24939 0.59666 0.05976 0.0
H3384 H 0.21392 0.58265 0.03103 0.0
C3385 C 0.19894 0.64743 0.03569 0.0
C3386 C 0.10099 0.47604 0.80182 0.0
C3387 C 0.11906 0.48308 0.82152 0.0
H3388 H 0.09264 0.4538 0.76698 0.0
C3389 C 0.14396 0.47138 0.81955 0.0
H3390 H 0.0817 0.48447 0.80193 0.0
C3391 C 0.15031 0.45342 0.79921 0.0
C3392 C 0.13224 0.44651 0.77948 0.0
H3393 H 0.15868 0.47575 0.83404 0.0
H3394 H 0.16969 0.4452 0.79881 0.0
C3395 C 0.10745 0.4584 0.78131 0.0
C3396 C 0.27634 0.38511 0.5361 0.0
C3397 C 0.26116 0.36529 0.54638 0.0
H3398 H 0.30586 0.39714 0.51151 0.0
C3399 C 0.26687 0.3394 0.5372 0.0
H3400 H 0.27327 0.4051 0.54248 0.0
C3401 C 0.28491 0.33419 0.51658 0.0
C3402 C 0.29991 0.35428 0.50553 0.0
H3403 H 0.25692 0.32275 0.54522 0.0
H3404 H 0.28682 0.31444 0.50916 0.0
C3405 C 0.29571 0.37972 0.51744 0.0
C3406 C 0.40328 0.50036 0.27062 0.0
C3407 C 0.39899 0.46996 0.25537 0.0
H3408 H 0.36207 0.55309 0.25901 0.0
C3409 C 0.37645 0.46653 0.23178 0.0
H3410 H 0.41721 0.50166 0.28673 0.0
C3411 C 0.35405 0.48751 0.22128 0.0
C3412 C 0.3502 0.5192 0.22784 0.0
H3413 H 0.37373 0.44738 0.22335 0.0
H3414 H 0.3415 0.47969 0.20615 0.0
C3415 C 0.36713 0.53315 0.25352 0.0
C3416 C 0.30917 0.6194 0.96451 0.0
C3417 C 0.31034 0.63683 0.98595 0.0
H3418 H 0.29263 0.60917 0.92761 0.0
C3419 C 0.29319 0.65839 0.98526 0.0
H3420 H 0.32216 0.60276 0.9637 0.0
C3421 C 0.27533 0.66194 0.96428 0.0
C3422 C 0.27402 0.6443 0.94277 0.0
H3423 H 0.29304 0.67222 1.00132 0.0
H3424 H 0.26222 0.67842 0.96536 0.0
C3425 C 0.29172 0.6231 0.94349 0.0
C3426 C 0.13408 0.54223 0.67455 0.0
C3427 C 0.11794 0.52158 0.68266 0.0
H3428 H 0.15524 0.57681 0.68551 0.0
C3429 C 0.11052 0.52061 0.70915 0.0
H3430 H 0.14049 0.54329 0.6544 0.0
C3431 C 0.11869 0.53998 0.72696 0.0
C3432 C 0.1351 0.56057 0.71896 0.0
H3433 H 0.09836 0.50479 0.71611 0.0
H3434 H 0.11253 0.53854 0.74716 0.0
C3435 C 0.14275 0.56128 0.69248 0.0
C3436 C 0.2218 0.33138 0.4921 0.0
C3437 C 0.20595 0.35141 0.50206 0.0
H3438 H 0.25093 0.31995 0.46442 0.0
C3439 C 0.20873 0.37635 0.48919 0.0
H3440 H 0.22098 0.31208 0.50071 0.0
C3441 C 0.22748 0.38149 0.46996 0.0
C3442 C 0.24349 0.36176 0.4607 0.0
H3443 H 0.19782 0.39348 0.49468 0.0
H3444 H 0.22963 0.40121 0.46256 0.0
C3445 C 0.23953 0.33626 0.47128 0.0
C3446 C 0.52746 0.28055 0.38253 0.0
C3447 C 0.5145 0.28969 0.40453 0.0
H3448 H 0.54783 0.24838 0.39585 0.0
C3449 C 0.52199 0.2792 0.43002 0.0
H3450 H 0.52378 0.28949 0.36371 0.0
C3451 C 0.53802 0.25665 0.43405 0.0
C3452 C 0.54875 0.24327 0.40983 0.0
H3453 H 0.51285 0.28611 0.44763 0.0
H3454 H 0.54017 0.24797 0.45321 0.0
C3455 C 0.54432 0.25925 0.38335 0.0
loop_
_geom_bond_atom_site_label_1
_geom_bond_atom_site_label_2
_geom_bond_distance
_geom_bond_site_symmetry_2
_ccdc_geom_bond_type
Li0 N17 1.990 . S
Li0 O60 1.956 . S
Li0 O61 1.970 . S
Li0 O62 1.961 . S
Li1 N25 1.990 . S
Li1 O60 1.970 . S
Li1 O61 1.956 . S
Li1 O63 1.961 . S
Li2 N47 1.990 . S
Li2 O60 1.961 . S
Li2 O62 1.956 . S
Li2 O63 1.970 . S
Li3 N53 1.990 . S
Li3 O61 1.961 . S
Li3 O62 1.970 . S
Li3 O63 1.956 . S
C4 C6 1.348 . S
C4 C7 1.356 . S
C4 O60 1.325 . S
N5 C8 1.314 . S
N5 C9 1.279 . S
C6 C4 1.348 . S
C6 C8 1.353 . S
C6 H64 0.929 . S
C7 C4 1.356 . S
C7 C9 1.358 . S
C7 H65 0.930 . S
C8 N5 1.314 . S
C8 C6 1.353 . S
C8 H66 0.930 . S
C9 N5 1.279 . S
C9 C7 1.358 . S
C9 H67 0.930 . S
C10 C13 1.348 . S
C10 C14 1.356 . S
C10 O61 1.325 . S
C11 N12 1.279 . S
C11 C14 1.358 . S
C11 H68 0.930 . S
N12 C11 1.279 . S
N12 C15 1.314 . S
C13 C10 1.348 . S
C13 C15 1.353 . S
C13 H69 0.929 . S
C14 C10 1.356 . S
C14 C11 1.358 . S
C14 H70 0.930 . S
C15 N12 1.314 . S
C15 C13 1.353 . S
C15 H71 0.930 . S
C16 N17 1.314 . S
C16 C21 1.353 . S
C16 H22 0.930 . S
N17 Li0 1.990 . S
N17 C16 1.314 . S
N17 C19 1.279 . S
C18 C19 1.358 . S
C18 C20 1.356 . S
C18 H72 0.930 . S
C19 N17 1.279 . S
C19 C18 1.358 . S
C19 H23 0.930 . S
C20 C18 1.356 . S
C20 C21 1.348 . S
C21 C16 1.353 . S
C21 C20 1.348 . S
C21 H73 0.929 . S
H22 C16 0.930 . S
H23 C19 0.930 . S
C24 N25 1.314 . S
C24 C26 1.353 . S
C24 H30 0.930 . S
N25 Li1 1.990 . S
N25 C24 1.314 . S
N25 C28 1.279 . S
C26 C24 1.353 . S
C26 C29 1.348 . S
C26 H74 0.929 . S
C27 C28 1.358 . S
C27 C29 1.356 . S
C27 H75 0.930 . S
C28 N25 1.279 . S
C28 C27 1.358 . S
C28 H31 0.930 . S
C29 C26 1.348 . S
C29 C27 1.356 . S
H30 C24 0.930 . S
H31 C28 0.930 . S
C32 C34 1.348 . S
C32 C35 1.356 . S
C32 O62 1.325 . S
N33 C36 1.314 . S
N33 C37 1.279 . S
C34 C32 1.348 . S
C34 C36 1.353 . S
C34 H76 0.929 . S
C35 C32 1.356 . S
C35 C37 1.358 . S
C35 H77 0.930 . S
C36 N33 1.314 . S
C36 C34 1.353 . S
C36 H78 0.930 1_554 S
C37 N33 1.279 . S
C37 C35 1.358 . S
C37 H79 0.930 . S
C38 C39 1.348 . S
C38 C40 1.356 . S
C38 O63 1.325 . S
C39 C38 1.348 . S
C39 C41 1.353 . S
C39 H80 0.929 . S
C40 C38 1.356 . S
C40 C42 1.358 . S
C40 H81 0.930 . S
C41 C39 1.353 . S
C41 N43 1.314 . S
C41 H82 0.930 . S
C42 C40 1.358 . S
C42 N43 1.279 . S
C42 H83 0.930 1_545 S
N43 C41 1.314 . S
N43 C42 1.279 . S
C44 C46 1.353 . S
C44 N47 1.314 . S
C44 H50 0.930 . S
C45 N47 1.279 . S
C45 C48 1.358 . S
C45 H51 0.930 . S
C46 C44 1.353 . S
C46 C49 1.348 . S
C46 H84 0.929 . S
N47 Li2 1.990 . S
N47 C44 1.314 . S
N47 C45 1.279 . S
C48 C45 1.358 . S
C48 C49 1.356 . S
C48 H85 0.930 . S
C49 C46 1.348 . S
C49 C48 1.356 . S
H50 C44 0.930 . S
H51 C45 0.930 . S
C52 N53 1.314 . S
C52 C54 1.353 . S
C52 H58 0.930 . S
N53 Li3 1.990 . S
N53 C52 1.314 . S
N53 C56 1.279 . S
C54 C52 1.353 . S
C54 C57 1.348 . S
C54 H86 0.935 . S
C55 C56 1.358 . S
C55 C57 1.356 . S
C55 H87 0.930 . S
C56 N53 1.279 . S
C56 C55 1.358 . S
C56 H59 0.930 . S
C57 C54 1.348 . S
C57 C55 1.356 . S
H58 C52 0.930 . S
H59 C56 0.930 . S
O60 Li0 1.956 . S
O60 Li1 1.970 . S
O60 Li2 1.961 . S
O60 C4 1.325 . S
O61 Li0 1.970 . S
O61 Li1 1.956 . S
O61 Li3 1.961 . S
O61 C10 1.325 . S
O62 Li0 1.961 . S
O62 Li2 1.956 . S
O62 Li3 1.970 . S
O62 C32 1.325 . S
O63 Li1 1.961 . S
O63 Li2 1.970 . S
O63 Li3 1.956 . S
O63 C38 1.325 . S
H64 C6 0.929 . S
H65 C7 0.930 . S
H66 C8 0.930 . S
H67 C9 0.930 . S
H68 C11 0.930 . S
H69 C13 0.929 . S
H70 C14 0.930 . S
H71 C15 0.930 . S
H72 C18 0.930 . S
H73 C21 0.929 . S
H74 C26 0.929 . S
H75 C27 0.930 . S
H76 C34 0.929 . S
H77 C35 0.930 . S
H78 C36 0.930 1_556 S
H79 C37 0.930 . S
H80 C39 0.929 . S
H81 C40 0.930 . S
H82 C41 0.930 . S
H83 C42 0.930 1_565 S
H84 C46 0.929 . S
H85 C48 0.930 . S
H86 C54 0.935 . S
H87 C55 0.930 . S
Li88 N105 1.990 . S
Li88 O148 1.956 . S
Li88 O149 1.970 . S
Li88 O150 1.961 . S
Li89 N113 1.990 . S
Li89 O148 1.970 . S
Li89 O149 1.956 . S
Li89 O151 1.961 . S
Li90 N135 1.990 . S
Li90 O148 1.961 . S
Li90 O150 1.956 . S
Li90 O151 1.970 . S
Li91 N141 1.990 . S
Li91 O149 1.961 . S
Li91 O150 1.970 . S
Li91 O151 1.956 . S
C92 C94 1.348 . S
C92 C95 1.356 . S
C92 O148 1.325 . S
N93 C96 1.314 . S
N93 C97 1.279 . S
C94 C92 1.348 . S
C94 C96 1.353 . S
C94 H152 0.929 . S
C95 C92 1.356 . S
C95 C97 1.358 . S
C95 H153 0.930 . S
C96 N93 1.314 . S
C96 C94 1.353 . S
C96 H154 0.930 . S
C97 N93 1.279 . S
C97 C95 1.358 . S
C97 H155 0.930 . S
C98 C101 1.348 . S
C98 C102 1.356 . S
C98 O149 1.325 . S
C99 N100 1.279 . S
C99 C102 1.358 . S
C99 H156 0.930 . S
N100 C99 1.279 . S
N100 C103 1.314 . S
C101 C98 1.348 . S
C101 C103 1.353 . S
C101 H157 0.929 . S
C102 C98 1.356 . S
C102 C99 1.358 . S
C102 H158 0.930 . S
C103 N100 1.314 . S
C103 C101 1.353 . S
C103 H159 0.930 . S
C104 N105 1.314 . S
C104 C109 1.353 . S
C104 H110 0.930 . S
N105 Li88 1.990 . S
N105 C104 1.314 . S
N105 C107 1.279 . S
C106 C107 1.358 . S
C106 C108 1.356 . S
C106 H160 0.930 . S
C107 N105 1.279 . S
C107 C106 1.358 . S
C107 H111 0.930 . S
C108 C106 1.356 . S
C108 C109 1.348 . S
C109 C104 1.353 . S
C109 C108 1.348 . S
C109 H161 0.929 . S
H110 C104 0.930 . S
H111 C107 0.930 . S
C112 N113 1.314 . S
C112 C114 1.353 . S
C112 H118 0.930 . S
N113 Li89 1.990 . S
N113 C112 1.314 . S
N113 C116 1.279 . S
C114 C112 1.353 . S
C114 C117 1.348 . S
C114 H162 0.929 . S
C115 C116 1.358 . S
C115 C117 1.356 . S
C115 H163 0.930 . S
C116 N113 1.279 . S
C116 C115 1.358 . S
C116 H119 0.930 . S
C117 C114 1.348 . S
C117 C115 1.356 . S
H118 C112 0.930 . S
H119 C116 0.930 . S
C120 C122 1.348 . S
C120 C123 1.356 . S
C120 O150 1.325 . S
N121 C124 1.314 . S
N121 C125 1.279 . S
C122 C120 1.348 . S
C122 C124 1.353 . S
C122 H164 0.929 . S
C123 C120 1.356 . S
C123 C125 1.358 . S
C123 H165 0.930 . S
C124 N121 1.314 . S
C124 C122 1.353 . S
C124 H166 0.930 . S
C125 N121 1.279 . S
C125 C123 1.358 . S
C125 H167 0.930 . S
C126 C127 1.348 . S
C126 C128 1.356 . S
C126 O151 1.325 . S
C127 C126 1.348 . S
C127 C129 1.353 . S
C127 H168 0.929 . S
C128 C126 1.356 . S
C128 C130 1.358 . S
C128 H169 0.930 . S
C129 C127 1.353 . S
C129 N131 1.314 . S
C129 H170 0.930 . S
C130 C128 1.358 . S
C130 N131 1.279 . S
C130 H171 0.930 . S
N131 C129 1.314 . S
N131 C130 1.279 . S
C132 C134 1.353 . S
C132 N135 1.314 . S
C132 H138 0.930 . S
C133 N135 1.279 . S
C133 C136 1.358 . S
C133 H139 0.930 . S
C134 C132 1.353 . S
C134 C137 1.348 . S
C134 H172 0.929 . S
N135 Li90 1.990 . S
N135 C132 1.314 . S
N135 C133 1.279 . S
C136 C133 1.358 . S
C136 C137 1.356 . S
C136 H173 0.930 . S
C137 C134 1.348 . S
C137 C136 1.356 . S
H138 C132 0.930 . S
H139 C133 0.930 . S
C140 N141 1.314 . S
C140 C142 1.353 . S
C140 H146 0.930 . S
N141 Li91 1.990 . S
N141 C140 1.314 . S
N141 C144 1.279 . S
C142 C140 1.353 . S
C142 C145 1.348 . S
C142 H174 0.929 . S
C143 C144 1.358 . S
C143 C145 1.356 . S
C143 H175 0.930 . S
C144 N141 1.279 . S
C144 C143 1.358 . S
C144 H147 0.930 . S
C145 C142 1.348 . S
C145 C143 1.356 . S
H146 C140 0.930 . S
H147 C144 0.930 . S
O148 Li88 1.956 . S
O148 Li89 1.970 . S
O148 Li90 1.961 . S
O148 C92 1.325 . S
O149 Li88 1.970 . S
O149 Li89 1.956 . S
O149 Li91 1.961 . S
O149 C98 1.325 . S
O150 Li88 1.961 . S
O150 Li90 1.956 . S
O150 Li91 1.970 . S
O150 C120 1.325 . S
O151 Li89 1.961 . S
O151 Li90 1.970 . S
O151 Li91 1.956 . S
O151 C126 1.325 . S
H152 C94 0.929 . S
H153 C95 0.930 . S
H154 C96 0.930 . S
H155 C97 0.930 . S
H156 C99 0.930 . S
H157 C101 0.929 . S
H158 C102 0.930 . S
H159 C103 0.930 . S
H160 C106 0.930 . S
H161 C109 0.929 . S
H162 C114 0.929 . S
H163 C115 0.930 . S
H164 C122 0.929 . S
H165 C123 0.930 . S
H166 C124 0.930 . S
H167 C125 0.930 . S
H168 C127 0.929 . S
H169 C128 0.930 . S
H170 C129 0.930 . S
H171 C130 0.930 . S
H172 C134 0.929 . S
H173 C136 0.930 . S
H174 C142 0.929 . S
H175 C143 0.930 . S
Li176 N193 1.990 . S
Li176 O236 1.956 . S
Li176 O237 1.970 . S
Li176 O238 1.961 . S
Li177 N201 1.990 . S
Li177 O236 1.970 . S
Li177 O237 1.956 . S
Li177 O239 1.961 . S
Li178 N223 1.990 . S
Li178 O236 1.961 . S
Li178 O238 1.956 . S
Li178 O239 1.970 . S
Li179 N229 1.990 . S
Li179 O237 1.961 . S
Li179 O238 1.970 . S
Li179 O239 1.956 . S
C180 C182 1.348 . S
C180 C183 1.356 . S
C180 O236 1.325 . S
N181 C184 1.314 . S
N181 C185 1.279 . S
C182 C180 1.348 . S
C182 C184 1.353 . S
C182 H240 0.929 . S
C183 C180 1.356 . S
C183 C185 1.358 . S
C183 H241 0.930 . S
C184 N181 1.314 . S
C184 C182 1.353 . S
C184 H242 0.930 . S
C185 N181 1.279 . S
C185 C183 1.358 . S
C185 H243 0.930 . S
C186 C189 1.348 . S
C186 C190 1.356 . S
C186 O237 1.325 . S
C187 N188 1.279 . S
C187 C190 1.358 . S
C187 H244 0.930 . S
N188 C187 1.279 . S
N188 C191 1.314 . S
C189 C186 1.348 . S
C189 C191 1.353 . S
C189 H245 0.929 . S
C190 C186 1.356 . S
C190 C187 1.358 . S
C190 H246 0.930 . S
C191 N188 1.314 . S
C191 C189 1.353 . S
C191 H247 0.930 . S
C192 N193 1.314 . S
C192 C197 1.353 . S
C192 H198 0.930 . S
N193 Li176 1.990 . S
N193 C192 1.314 . S
N193 C195 1.279 . S
C194 C195 1.358 . S
C194 C196 1.356 . S
C194 H248 0.930 . S
C195 N193 1.279 . S
C195 C194 1.358 . S
C195 H199 0.930 . S
C196 C194 1.356 . S
C196 C197 1.348 . S
C197 C192 1.353 . S
C197 C196 1.348 . S
C197 H249 0.929 . S
H198 C192 0.930 . S
H199 C195 0.930 . S
C200 N201 1.314 . S
C200 C202 1.353 . S
C200 H206 0.930 . S
N201 Li177 1.990 . S
N201 C200 1.314 . S
N201 C204 1.279 . S
C202 C200 1.353 . S
C202 C205 1.348 . S
C202 H250 0.929 . S
C203 C204 1.358 . S
C203 C205 1.356 . S
C203 H251 0.930 . S
C204 N201 1.279 . S
C204 C203 1.358 . S
C204 H207 0.930 . S
C205 C202 1.348 . S
C205 C203 1.356 . S
H206 C200 0.930 . S
H207 C204 0.930 . S
C208 C210 1.348 . S
C208 C211 1.356 . S
C208 O238 1.325 . S
N209 C212 1.314 . S
N209 C213 1.279 . S
C210 C208 1.348 . S
C210 C212 1.353 . S
C210 H252 0.929 . S
C211 C208 1.356 . S
C211 C213 1.358 . S
C211 H253 0.930 . S
C212 N209 1.314 . S
C212 C210 1.353 . S
C212 H254 0.930 . S
C213 N209 1.279 . S
C213 C211 1.358 . S
C213 H255 0.930 1_565 S
C214 C215 1.348 . S
C214 C216 1.356 . S
C214 O239 1.325 . S
C215 C214 1.348 . S
C215 C217 1.353 . S
C215 H256 0.929 . S
C216 C214 1.356 . S
C216 C218 1.358 . S
C216 H257 0.930 . S
C217 C215 1.353 . S
C217 N219 1.314 . S
C217 H258 0.930 . S
C218 C216 1.358 . S
C218 N219 1.279 . S
C218 H259 0.930 . S
N219 C217 1.314 . S
N219 C218 1.279 . S
C220 C222 1.353 . S
C220 N223 1.314 . S
C220 H226 0.930 . S
C221 N223 1.279 . S
C221 C224 1.358 . S
C221 H227 0.930 . S
C222 C220 1.353 . S
C222 C225 1.348 . S
C222 H260 0.929 . S
N223 Li178 1.990 . S
N223 C220 1.314 . S
N223 C221 1.279 . S
C224 C221 1.358 . S
C224 C225 1.356 . S
C224 H261 0.930 . S
C225 C222 1.348 . S
C225 C224 1.356 . S
H226 C220 0.930 . S
H227 C221 0.930 . S
C228 N229 1.314 . S
C228 C230 1.353 . S
C228 H234 0.930 . S
N229 Li179 1.990 . S
N229 C228 1.314 . S
N229 C232 1.279 . S
C230 C228 1.353 . S
C230 C233 1.348 . S
C230 H262 0.929 . S
C231 C232 1.358 . S
C231 C233 1.356 . S
C231 H263 0.930 . S
C232 N229 1.279 . S
C232 C231 1.358 . S
C232 H235 0.930 . S
C233 C230 1.348 . S
C233 C231 1.356 . S
H234 C228 0.930 . S
H235 C232 0.930 . S
O236 Li176 1.956 . S
O236 Li177 1.970 . S
O236 Li178 1.961 . S
O236 C180 1.325 . S
O237 Li176 1.970 . S
O237 Li177 1.956 . S
O237 Li179 1.961 . S
O237 C186 1.325 . S
O238 Li176 1.961 . S
O238 Li178 1.956 . S
O238 Li179 1.970 . S
O238 C208 1.325 . S
O239 Li177 1.961 . S
O239 Li178 1.970 . S
O239 Li179 1.956 . S
O239 C214 1.325 . S
H240 C182 0.929 . S
H241 C183 0.930 . S
H242 C184 0.930 . S
H243 C185 0.930 . S
H244 C187 0.930 . S
H245 C189 0.929 . S
H246 C190 0.930 . S
H247 C191 0.930 . S
H248 C194 0.930 . S
H249 C197 0.929 . S
H250 C202 0.929 . S
H251 C203 0.930 . S
H252 C210 0.929 . S
H253 C211 0.930 . S
H254 C212 0.930 . S
H255 C213 0.930 1_545 S
H256 C215 0.929 . S
H257 C216 0.930 . S
H258 C217 0.930 . S
H259 C218 0.930 . S
H260 C222 0.929 . S
H261 C224 0.930 . S
H262 C230 0.929 . S
H263 C231 0.930 . S
Li264 N281 1.990 . S
Li264 O324 1.956 . S
Li264 O325 1.970 . S
Li264 O326 1.961 . S
Li265 N289 1.990 . S
Li265 O324 1.970 . S
Li265 O325 1.956 . S
Li265 O327 1.961 . S
Li266 N311 1.990 . S
Li266 O324 1.961 . S
Li266 O326 1.956 . S
Li266 O327 1.970 . S
Li267 N317 1.990 . S
Li267 O325 1.961 . S
Li267 O326 1.970 . S
Li267 O327 1.956 . S
C268 C270 1.348 . S
C268 C271 1.356 . S
C268 O324 1.325 . S
N269 C272 1.314 . S
N269 C273 1.279 . S
C270 C268 1.348 . S
C270 C272 1.353 . S
C270 H328 0.929 . S
C271 C268 1.356 . S
C271 C273 1.358 . S
C271 H329 0.930 . S
C272 N269 1.314 . S
C272 C270 1.353 . S
C272 H330 0.930 . S
C273 N269 1.279 . S
C273 C271 1.358 . S
C273 H331 0.930 . S
C274 C277 1.348 . S
C274 C278 1.356 . S
C274 O325 1.325 . S
C275 N276 1.279 . S
C275 C278 1.358 . S
C275 H332 0.930 . S
N276 C275 1.279 . S
N276 C279 1.314 . S
C277 C274 1.348 . S
C277 C279 1.353 . S
C277 H333 0.929 . S
C278 C274 1.356 . S
C278 C275 1.358 . S
C278 H334 0.930 . S
C279 N276 1.314 . S
C279 C277 1.353 . S
C279 H335 0.930 . S
C280 N281 1.314 . S
C280 C285 1.353 . S
C280 H286 0.930 . S
N281 Li264 1.990 . S
N281 C280 1.314 . S
N281 C283 1.279 . S
C282 C283 1.358 . S
C282 C284 1.356 . S
C282 H336 0.930 . S
C283 N281 1.279 . S
C283 C282 1.358 . S
C283 H287 0.930 . S
C284 C282 1.356 . S
C284 C285 1.348 . S
C285 C280 1.353 . S
C285 C284 1.348 . S
C285 H337 0.929 . S
H286 C280 0.930 . S
H287 C283 0.930 . S
C288 N289 1.314 . S
C288 C290 1.353 . S
C288 H294 0.930 . S
N289 Li265 1.990 . S
N289 C288 1.314 . S
N289 C292 1.279 . S
C290 C288 1.353 . S
C290 C293 1.348 . S
C290 H338 0.929 . S
C291 C292 1.358 . S
C291 C293 1.356 . S
C291 H339 0.930 . S
C292 N289 1.279 . S
C292 C291 1.358 . S
C292 H295 0.930 . S
C293 C290 1.348 . S
C293 C291 1.356 . S
H294 C288 0.930 . S
H295 C292 0.930 . S
C296 C298 1.348 . S
C296 C299 1.356 . S
C296 O326 1.325 . S
N297 C300 1.314 . S
N297 C301 1.279 . S
C298 C296 1.348 . S
C298 C300 1.353 . S
C298 H340 0.929 . S
C299 C296 1.356 . S
C299 C301 1.358 . S
C299 H341 0.930 . S
C300 N297 1.314 . S
C300 C298 1.353 . S
C300 H342 0.930 . S
C301 N297 1.279 . S
C301 C299 1.358 . S
C301 H343 0.930 . S
C302 C303 1.348 . S
C302 C304 1.356 . S
C302 O327 1.325 . S
C303 C302 1.348 . S
C303 C305 1.353 . S
C303 H344 0.929 . S
C304 C302 1.356 . S
C304 C306 1.358 . S
C304 H345 0.930 . S
C305 C303 1.353 . S
C305 N307 1.314 . S
C305 H346 0.930 . S
C306 C304 1.358 . S
C306 N307 1.279 . S
C306 H347 0.930 . S
N307 C305 1.314 . S
N307 C306 1.279 . S
C308 C310 1.353 . S
C308 N311 1.314 . S
C308 H314 0.930 . S
C309 N311 1.279 . S
C309 C312 1.358 . S
C309 H315 0.930 . S
C310 C308 1.353 . S
C310 C313 1.348 . S
C310 H348 0.929 . S
N311 Li266 1.990 . S
N311 C308 1.314 . S
N311 C309 1.279 . S
C312 C309 1.358 . S
C312 C313 1.356 . S
C312 H349 0.930 . S
C313 C310 1.348 . S
C313 C312 1.356 . S
H314 C308 0.930 . S
H315 C309 0.930 . S
C316 N317 1.314 . S
C316 C318 1.353 . S
C316 H322 0.930 . S
N317 Li267 1.990 . S
N317 C316 1.314 . S
N317 C320 1.279 . S
C318 C316 1.353 . S
C318 C321 1.348 . S
C318 H350 0.929 . S
C319 C320 1.358 . S
C319 C321 1.356 . S
C319 H351 0.930 . S
C320 N317 1.279 . S
C320 C319 1.358 . S
C320 H323 0.930 . S
C321 C318 1.348 . S
C321 C319 1.356 . S
H322 C316 0.930 . S
H323 C320 0.930 . S
O324 Li264 1.956 . S
O324 Li265 1.970 . S
O324 Li266 1.961 . S
O324 C268 1.325 . S
O325 Li264 1.970 . S
O325 Li265 1.956 . S
O325 Li267 1.961 . S
O325 C274 1.325 . S
O326 Li264 1.961 . S
O326 Li266 1.956 . S
O326 Li267 1.970 . S
O326 C296 1.325 . S
O327 Li265 1.961 . S
O327 Li266 1.970 . S
O327 Li267 1.956 . S
O327 C302 1.325 . S
H328 C270 0.929 . S
H329 C271 0.930 . S
H330 C272 0.930 . S
H331 C273 0.930 . S
H332 C275 0.930 . S
H333 C277 0.929 . S
H334 C278 0.930 . S
H335 C279 0.930 . S
H336 C282 0.930 . S
H337 C285 0.929 . S
H338 C290 0.929 . S
H339 C291 0.930 . S
H340 C298 0.929 . S
H341 C299 0.930 . S
H342 C300 0.930 . S
H343 C301 0.930 . S
H344 C303 0.929 . S
H345 C304 0.930 . S
H346 C305 0.930 . S
H347 C306 0.930 . S
H348 C310 0.929 . S
H349 C312 0.930 . S
H350 C318 0.929 . S
H351 C319 0.930 . S
Li352 N369 1.990 . S
Li352 O412 1.956 . S
Li352 O413 1.970 . S
Li352 O414 1.961 . S
Li353 N377 1.990 . S
Li353 O412 1.970 . S
Li353 O413 1.956 . S
Li353 O415 1.961 . S
Li354 N399 1.990 . S
Li354 O412 1.961 . S
Li354 O414 1.956 . S
Li354 O415 1.970 . S
Li355 N405 1.990 . S
Li355 O413 1.961 . S
Li355 O414 1.970 . S
Li355 O415 1.956 . S
C356 C358 1.348 . S
C356 C359 1.356 . S
C356 O412 1.325 . S
N357 C360 1.314 . S
N357 C361 1.279 . S
C358 C356 1.348 . S
C358 C360 1.353 . S
C358 H416 0.929 . S
C359 C356 1.356 . S
C359 C361 1.358 . S
C359 H417 0.930 . S
C360 N357 1.314 . S
C360 C358 1.353 . S
C360 H418 0.930 . S
C361 N357 1.279 . S
C361 C359 1.358 . S
C361 H419 0.930 1_565 S
C362 C365 1.348 . S
C362 C366 1.356 . S
C362 O413 1.325 . S
C363 N364 1.279 . S
C363 C366 1.358 . S
C363 H420 0.930 . S
N364 C363 1.279 . S
N364 C367 1.314 . S
C365 C362 1.348 . S
C365 C367 1.353 . S
C365 H421 0.929 . S
C366 C362 1.356 . S
C366 C363 1.358 . S
C366 H422 0.930 . S
C367 N364 1.314 . S
C367 C365 1.353 . S
C367 H423 0.930 . S
C368 N369 1.314 . S
C368 C373 1.353 . S
C368 H374 0.930 . S
N369 Li352 1.990 . S
N369 C368 1.314 . S
N369 C371 1.279 . S
C370 C371 1.358 . S
C370 C372 1.356 . S
C370 H424 0.930 . S
C371 N369 1.279 . S
C371 C370 1.358 . S
C371 H375 0.930 . S
C372 C370 1.356 . S
C372 C373 1.348 . S
C373 C368 1.353 . S
C373 C372 1.348 . S
C373 H425 0.935 . S
H374 C368 0.930 . S
H375 C371 0.930 . S
C376 N377 1.314 . S
C376 C378 1.353 . S
C376 H382 0.930 . S
N377 Li353 1.990 . S
N377 C376 1.314 . S
N377 C380 1.279 . S
C378 C376 1.353 . S
C378 C381 1.348 . S
C378 H426 0.929 . S
C379 C380 1.358 . S
C379 C381 1.356 . S
C379 H427 0.930 . S
C380 N377 1.279 . S
C380 C379 1.358 . S
C380 H383 0.930 . S
C381 C378 1.348 . S
C381 C379 1.356 . S
H382 C376 0.930 . S
H383 C380 0.930 . S
C384 C386 1.348 . S
C384 C387 1.356 . S
C384 O414 1.325 . S
N385 C388 1.314 . S
N385 C389 1.279 . S
C386 C384 1.348 . S
C386 C388 1.353 . S
C386 H428 0.929 . S
C387 C384 1.356 . S
C387 C389 1.358 . S
C387 H429 0.930 . S
C388 N385 1.314 . S
C388 C386 1.353 . S
C388 H430 0.930 . S
C389 N385 1.279 . S
C389 C387 1.358 . S
C389 H431 0.930 . S
C390 C391 1.348 . S
C390 C392 1.356 . S
C390 O415 1.325 . S
C391 C390 1.348 . S
C391 C393 1.353 . S
C391 H432 0.929 . S
C392 C390 1.356 . S
C392 C394 1.358 . S
C392 H433 0.930 . S
C393 C391 1.353 . S
C393 N395 1.314 . S
C393 H434 0.930 . S
C394 C392 1.358 . S
C394 N395 1.279 . S
C394 H435 0.930 . S
N395 C393 1.314 . S
N395 C394 1.279 . S
C396 C398 1.353 . S
C396 N399 1.314 . S
C396 H402 0.930 . S
C397 N399 1.279 . S
C397 C400 1.358 . S
C397 H403 0.930 . S
C398 C396 1.353 . S
C398 C401 1.348 . S
C398 H436 0.929 . S
N399 Li354 1.990 . S
N399 C396 1.314 . S
N399 C397 1.279 . S
C400 C397 1.358 . S
C400 C401 1.356 . S
C400 H437 0.930 . S
C401 C398 1.348 . S
C401 C400 1.356 . S
H402 C396 0.930 . S
H403 C397 0.930 . S
C404 N405 1.314 . S
C404 C406 1.353 . S
C404 H410 0.930 . S
N405 Li355 1.990 . S
N405 C404 1.314 . S
N405 C408 1.279 . S
C406 C404 1.353 . S
C406 C409 1.348 . S
C406 H438 0.929 . S
C407 C408 1.358 . S
C407 C409 1.356 . S
C407 H439 0.930 . S
C408 N405 1.279 . S
C408 C407 1.358 . S
C408 H411 0.930 . S
C409 C406 1.348 . S
C409 C407 1.356 . S
H410 C404 0.930 . S
H411 C408 0.930 . S
O412 Li352 1.956 . S
O412 Li353 1.970 . S
O412 Li354 1.961 . S
O412 C356 1.325 . S
O413 Li352 1.970 . S
O413 Li353 1.956 . S
O413 Li355 1.961 . S
O413 C362 1.325 . S
O414 Li352 1.961 . S
O414 Li354 1.956 . S
O414 Li355 1.970 . S
O414 C384 1.325 . S
O415 Li353 1.961 . S
O415 Li354 1.970 . S
O415 Li355 1.956 . S
O415 C390 1.325 . S
H416 C358 0.929 . S
H417 C359 0.930 . S
H418 C360 0.930 . S
H419 C361 0.930 1_545 S
H420 C363 0.930 . S
H421 C365 0.929 . S
H422 C366 0.930 . S
H423 C367 0.930 . S
H424 C370 0.930 . S
H425 C373 0.935 . S
H426 C378 0.929 . S
H427 C379 0.930 . S
H428 C386 0.929 . S
H429 C387 0.930 . S
H430 C388 0.930 . S
H431 C389 0.930 . S
H432 C391 0.929 . S
H433 C392 0.930 . S
H434 C393 0.930 . S
H435 C394 0.930 . S
H436 C398 0.929 . S
H437 C400 0.930 . S
H438 C406 0.929 . S
H439 C407 0.930 . S
Li440 N457 1.990 . S
Li440 O500 1.956 . S
Li440 O501 1.970 . S
Li440 O502 1.961 . S
Li441 N465 1.990 . S
Li441 O500 1.970 . S
Li441 O501 1.956 . S
Li441 O503 1.961 . S
Li442 N487 1.990 . S
Li442 O500 1.961 . S
Li442 O502 1.956 . S
Li442 O503 1.970 . S
Li443 N493 1.990 . S
Li443 O501 1.961 . S
Li443 O502 1.970 . S
Li443 O503 1.956 . S
C444 C446 1.348 . S
C444 C447 1.356 . S
C444 O500 1.325 . S
N445 C448 1.314 . S
N445 C449 1.279 . S
C446 C444 1.348 . S
C446 C448 1.353 . S
C446 H504 0.929 . S
C447 C444 1.356 . S
C447 C449 1.358 . S
C447 H505 0.930 . S
C448 N445 1.314 . S
C448 C446 1.353 . S
C448 H506 0.930 . S
C449 N445 1.279 . S
C449 C447 1.358 . S
C449 H507 0.930 . S
C450 C453 1.348 . S
C450 C454 1.356 . S
C450 O501 1.325 . S
C451 N452 1.279 . S
C451 C454 1.358 . S
C451 H508 0.930 . S
N452 C451 1.279 . S
N452 C455 1.314 . S
C453 C450 1.348 . S
C453 C455 1.353 . S
C453 H509 0.929 . S
C454 C450 1.356 . S
C454 C451 1.358 . S
C454 H510 0.930 . S
C455 N452 1.314 . S
C455 C453 1.353 . S
C455 H511 0.930 . S
C456 N457 1.314 . S
C456 C461 1.353 . S
C456 H462 0.930 . S
N457 Li440 1.990 . S
N457 C456 1.314 . S
N457 C459 1.279 . S
C458 C459 1.358 . S
C458 C460 1.356 . S
C458 H512 0.930 . S
C459 N457 1.279 . S
C459 C458 1.358 . S
C459 H463 0.930 . S
C460 C458 1.356 . S
C460 C461 1.348 . S
C461 C456 1.353 . S
C461 C460 1.348 . S
C461 H513 0.929 . S
H462 C456 0.930 . S
H463 C459 0.930 . S
C464 N465 1.314 . S
C464 C466 1.353 . S
C464 H470 0.930 . S
N465 Li441 1.990 . S
N465 C464 1.314 . S
N465 C468 1.279 . S
C466 C464 1.353 . S
C466 C469 1.348 . S
C466 H514 0.929 . S
C467 C468 1.358 . S
C467 C469 1.356 . S
C467 H515 0.930 . S
C468 N465 1.279 . S
C468 C467 1.358 . S
C468 H471 0.930 . S
C469 C466 1.348 . S
C469 C467 1.356 . S
H470 C464 0.930 . S
H471 C468 0.930 . S
C472 C474 1.348 . S
C472 C475 1.356 . S
C472 O502 1.325 . S
N473 C476 1.314 . S
N473 C477 1.279 . S
C474 C472 1.348 . S
C474 C476 1.353 . S
C474 H516 0.929 . S
C475 C472 1.356 . S
C475 C477 1.358 . S
C475 H517 0.930 . S
C476 N473 1.314 . S
C476 C474 1.353 . S
C476 H518 0.930 . S
C477 N473 1.279 . S
C477 C475 1.358 . S
C477 H519 0.930 . S
C478 C479 1.348 . S
C478 C480 1.356 . S
C478 O503 1.325 . S
C479 C478 1.348 . S
C479 C481 1.353 . S
C479 H520 0.929 . S
C480 C478 1.356 . S
C480 C482 1.358 . S
C480 H521 0.930 . S
C481 C479 1.353 . S
C481 N483 1.314 . S
C481 H522 0.930 . S
C482 C480 1.358 . S
C482 N483 1.279 . S
C482 H523 0.930 . S
N483 C481 1.314 . S
N483 C482 1.279 . S
C484 C486 1.353 . S
C484 N487 1.314 . S
C484 H490 0.930 . S
C485 N487 1.279 . S
C485 C488 1.358 . S
C485 H491 0.930 . S
C486 C484 1.353 . S
C486 C489 1.348 . S
C486 H524 0.929 . S
N487 Li442 1.990 . S
N487 C484 1.314 . S
N487 C485 1.279 . S
C488 C485 1.358 . S
C488 C489 1.356 . S
C488 H525 0.930 . S
C489 C486 1.348 . S
C489 C488 1.356 . S
H490 C484 0.930 . S
H491 C485 0.930 . S
C492 N493 1.314 . S
C492 C494 1.353 . S
C492 H498 0.930 . S
N493 Li443 1.990 . S
N493 C492 1.314 . S
N493 C496 1.279 . S
C494 C492 1.353 . S
C494 C497 1.348 . S
C494 H526 0.929 . S
C495 C496 1.358 . S
C495 C497 1.356 . S
C495 H527 0.930 . S
C496 N493 1.279 . S
C496 C495 1.358 . S
C496 H499 0.930 . S
C497 C494 1.348 . S
C497 C495 1.356 . S
H498 C492 0.930 . S
H499 C496 0.930 . S
O500 Li440 1.956 . S
O500 Li441 1.970 . S
O500 Li442 1.961 . S
O500 C444 1.325 . S
O501 Li440 1.970 . S
O501 Li441 1.956 . S
O501 Li443 1.961 . S
O501 C450 1.325 . S
O502 Li440 1.961 . S
O502 Li442 1.956 . S
O502 Li443 1.970 . S
O502 C472 1.325 . S
O503 Li441 1.961 . S
O503 Li442 1.970 . S
O503 Li443 1.956 . S
O503 C478 1.325 . S
H504 C446 0.929 . S
H505 C447 0.930 . S
H506 C448 0.930 . S
H507 C449 0.930 . S
H508 C451 0.930 . S
H509 C453 0.929 . S
H510 C454 0.930 . S
H511 C455 0.930 . S
H512 C458 0.930 . S
H513 C461 0.929 . S
H514 C466 0.929 . S
H515 C467 0.930 . S
H516 C474 0.929 . S
H517 C475 0.930 . S
H518 C476 0.930 . S
H519 C477 0.930 . S
H520 C479 0.929 . S
H521 C480 0.930 . S
H522 C481 0.930 . S
H523 C482 0.930 . S
H524 C486 0.929 . S
H525 C488 0.930 . S
H526 C494 0.929 . S
H527 C495 0.930 . S
Li528 N545 1.990 . S
Li528 O588 1.956 . S
Li528 O589 1.970 . S
Li528 O590 1.961 . S
Li529 N553 1.990 . S
Li529 O588 1.970 . S
Li529 O589 1.956 . S
Li529 O591 1.961 . S
Li530 N575 1.990 . S
Li530 O588 1.961 . S
Li530 O590 1.956 . S
Li530 O591 1.970 . S
Li531 N581 1.990 . S
Li531 O589 1.961 . S
Li531 O590 1.970 . S
Li531 O591 1.956 . S
C532 C534 1.348 . S
C532 C535 1.356 . S
C532 O588 1.325 . S
N533 C536 1.314 . S
N533 C537 1.279 . S
C534 C532 1.348 . S
C534 C536 1.353 . S
C534 H592 0.929 . S
C535 C532 1.356 . S
C535 C537 1.358 . S
C535 H593 0.930 . S
C536 N533 1.314 . S
C536 C534 1.353 . S
C536 H594 0.930 1_556 S
C537 N533 1.279 . S
C537 C535 1.358 . S
C537 H595 0.930 . S
C538 C541 1.348 . S
C538 C542 1.356 . S
C538 O589 1.325 . S
C539 N540 1.279 . S
C539 C542 1.358 . S
C539 H596 0.930 1_545 S
N540 C539 1.279 . S
N540 C543 1.314 . S
C541 C538 1.348 . S
C541 C543 1.353 . S
C541 H597 0.929 . S
C542 C538 1.356 . S
C542 C539 1.358 . S
C542 H598 0.930 . S
C543 N540 1.314 . S
C543 C541 1.353 . S
C543 H599 0.930 . S
C544 N545 1.314 . S
C544 C549 1.353 . S
C544 H550 0.930 . S
N545 Li528 1.990 . S
N545 C544 1.314 . S
N545 C547 1.279 . S
C546 C547 1.358 . S
C546 C548 1.356 . S
C546 H600 0.930 . S
C547 N545 1.279 . S
C547 C546 1.358 . S
C547 H551 0.930 . S
C548 C546 1.356 . S
C548 C549 1.348 . S
C549 C544 1.353 . S
C549 C548 1.348 . S
C549 H601 0.929 . S
H550 C544 0.930 . S
H551 C547 0.930 . S
C552 N553 1.314 . S
C552 C554 1.353 . S
C552 H558 0.930 . S
N553 Li529 1.990 . S
N553 C552 1.314 . S
N553 C556 1.279 . S
C554 C552 1.353 . S
C554 C557 1.348 . S
C554 H602 0.929 . S
C555 C556 1.358 . S
C555 C557 1.356 . S
C555 H603 0.930 . S
C556 N553 1.279 . S
C556 C555 1.358 . S
C556 H559 0.930 . S
C557 C554 1.348 . S
C557 C555 1.356 . S
H558 C552 0.930 . S
H559 C556 0.930 . S
C560 C562 1.348 . S
C560 C563 1.356 . S
C560 O590 1.325 . S
N561 C564 1.314 . S
N561 C565 1.279 . S
C562 C560 1.348 . S
C562 C564 1.353 . S
C562 H604 0.929 . S
C563 C560 1.356 . S
C563 C565 1.358 . S
C563 H605 0.930 . S
C564 N561 1.314 . S
C564 C562 1.353 . S
C564 H606 0.930 . S
C565 N561 1.279 . S
C565 C563 1.358 . S
C565 H607 0.930 . S
C566 C567 1.348 . S
C566 C568 1.356 . S
C566 O591 1.325 . S
C567 C566 1.348 . S
C567 C569 1.353 . S
C567 H608 0.929 . S
C568 C566 1.356 . S
C568 C570 1.358 . S
C568 H609 0.930 . S
C569 C567 1.353 . S
C569 N571 1.314 . S
C569 H610 0.930 . S
C570 C568 1.358 . S
C570 N571 1.279 . S
C570 H611 0.930 . S
N571 C569 1.314 . S
N571 C570 1.279 . S
C572 C574 1.353 . S
C572 N575 1.314 . S
C572 H578 0.930 . S
C573 N575 1.279 . S
C573 C576 1.358 . S
C573 H579 0.930 . S
C574 C572 1.353 . S
C574 C577 1.348 . S
C574 H612 0.929 . S
N575 Li530 1.990 . S
N575 C572 1.314 . S
N575 C573 1.279 . S
C576 C573 1.358 . S
C576 C577 1.356 . S
C576 H613 0.930 . S
C577 C574 1.348 . S
C577 C576 1.356 . S
H578 C572 0.930 . S
H579 C573 0.930 . S
C580 N581 1.314 . S
C580 C582 1.353 . S
C580 H586 0.930 . S
N581 Li531 1.990 . S
N581 C580 1.314 . S
N581 C584 1.279 . S
C582 C580 1.353 . S
C582 C585 1.348 . S
C582 H614 0.929 . S
C583 C584 1.358 . S
C583 C585 1.356 . S
C583 H615 0.930 . S
C584 N581 1.279 . S
C584 C583 1.358 . S
C584 H587 0.930 . S
C585 C582 1.348 . S
C585 C583 1.356 . S
H586 C580 0.930 . S
H587 C584 0.930 . S
O588 Li528 1.956 . S
O588 Li529 1.970 . S
O588 Li530 1.961 . S
O588 C532 1.325 . S
O589 Li528 1.970 . S
O589 Li529 1.956 . S
O589 Li531 1.961 . S
O589 C538 1.325 . S
O590 Li528 1.961 . S
O590 Li530 1.956 . S
O590 Li531 1.970 . S
O590 C560 1.325 . S
O591 Li529 1.961 . S
O591 Li530 1.970 . S
O591 Li531 1.956 . S
O591 C566 1.325 . S
H592 C534 0.929 . S
H593 C535 0.930 . S
H594 C536 0.930 1_554 S
H595 C537 0.930 . S
H596 C539 0.930 1_565 S
H597 C541 0.929 . S
H598 C542 0.930 . S
H599 C543 0.930 . S
H600 C546 0.930 . S
H601 C549 0.929 . S
H602 C554 0.929 . S
H603 C555 0.930 . S
H604 C562 0.929 . S
H605 C563 0.930 . S
H606 C564 0.930 . S
H607 C565 0.930 . S
H608 C567 0.929 . S
H609 C568 0.930 . S
H610 C569 0.930 . S
H611 C570 0.930 . S
H612 C574 0.929 . S
H613 C576 0.930 . S
H614 C582 0.929 . S
H615 C583 0.930 . S
Li616 N633 1.990 . S
Li616 O676 1.956 . S
Li616 O677 1.970 . S
Li616 O678 1.961 . S
Li617 N641 1.990 . S
Li617 O676 1.970 . S
Li617 O677 1.956 . S
Li617 O679 1.961 . S
Li618 N663 1.990 . S
Li618 O676 1.961 . S
Li618 O678 1.956 . S
Li618 O679 1.970 . S
Li619 N669 1.990 . S
Li619 O677 1.961 . S
Li619 O678 1.970 . S
Li619 O679 1.956 . S
C620 C622 1.348 . S
C620 C623 1.356 . S
C620 O676 1.325 . S
N621 C624 1.314 . S
N621 C625 1.279 . S
C622 C620 1.348 . S
C622 C624 1.353 . S
C622 H680 0.929 . S
C623 C620 1.356 . S
C623 C625 1.358 . S
C623 H681 0.930 . S
C624 N621 1.314 . S
C624 C622 1.353 . S
C624 H682 0.930 . S
C625 N621 1.279 . S
C625 C623 1.358 . S
C625 H683 0.930 . S
C626 C629 1.348 . S
C626 C630 1.356 . S
C626 O677 1.325 . S
C627 N628 1.279 . S
C627 C630 1.358 . S
C627 H684 0.930 . S
N628 C627 1.279 . S
N628 C631 1.314 . S
C629 C626 1.348 . S
C629 C631 1.353 . S
C629 H685 0.929 . S
C630 C626 1.356 . S
C630 C627 1.358 . S
C630 H686 0.930 . S
C631 N628 1.314 . S
C631 C629 1.353 . S
C631 H687 0.930 . S
C632 N633 1.314 . S
C632 C637 1.353 . S
C632 H638 0.930 . S
N633 Li616 1.990 . S
N633 C632 1.314 . S
N633 C635 1.279 . S
C634 C635 1.358 . S
C634 C636 1.356 . S
C634 H688 0.930 . S
C635 N633 1.279 . S
C635 C634 1.358 . S
C635 H639 0.930 . S
C636 C634 1.356 . S
C636 C637 1.348 . S
C637 C632 1.353 . S
C637 C636 1.348 . S
C637 H689 0.929 . S
H638 C632 0.930 . S
H639 C635 0.930 . S
C640 N641 1.314 . S
C640 C642 1.353 . S
C640 H646 0.930 . S
N641 Li617 1.990 . S
N641 C640 1.314 . S
N641 C644 1.279 . S
C642 C640 1.353 . S
C642 C645 1.348 . S
C642 H690 0.929 . S
C643 C644 1.358 . S
C643 C645 1.356 . S
C643 H691 0.930 . S
C644 N641 1.279 . S
C644 C643 1.358 . S
C644 H647 0.930 . S
C645 C642 1.348 . S
C645 C643 1.356 . S
H646 C640 0.930 . S
H647 C644 0.930 . S
C648 C650 1.348 . S
C648 C651 1.356 . S
C648 O678 1.325 . S
N649 C652 1.314 . S
N649 C653 1.279 . S
C650 C648 1.348 . S
C650 C652 1.353 . S
C650 H692 0.929 . S
C651 C648 1.356 . S
C651 C653 1.358 . S
C651 H693 0.930 . S
C652 N649 1.314 . S
C652 C650 1.353 . S
C652 H694 0.930 . S
C653 N649 1.279 . S
C653 C651 1.358 . S
C653 H695 0.930 . S
C654 C655 1.348 . S
C654 C656 1.356 . S
C654 O679 1.325 . S
C655 C654 1.348 . S
C655 C657 1.353 . S
C655 H696 0.929 . S
C656 C654 1.356 . S
C656 C658 1.358 . S
C656 H697 0.930 . S
C657 C655 1.353 . S
C657 N659 1.314 . S
C657 H698 0.930 . S
C658 C656 1.358 . S
C658 N659 1.279 . S
C658 H699 0.930 . S
N659 C657 1.314 . S
N659 C658 1.279 . S
C660 C662 1.353 . S
C660 N663 1.314 . S
C660 H666 0.930 . S
C661 N663 1.279 . S
C661 C664 1.358 . S
C661 H667 0.930 . S
C662 C660 1.353 . S
C662 C665 1.348 . S
C662 H700 0.929 . S
N663 Li618 1.990 . S
N663 C660 1.314 . S
N663 C661 1.279 . S
C664 C661 1.358 . S
C664 C665 1.356 . S
C664 H701 0.930 . S
C665 C662 1.348 . S
C665 C664 1.356 . S
H666 C660 0.930 . S
H667 C661 0.930 . S
C668 N669 1.314 . S
C668 C670 1.353 . S
C668 H674 0.930 . S
N669 Li619 1.990 . S
N669 C668 1.314 . S
N669 C672 1.279 . S
C670 C668 1.353 . S
C670 C673 1.348 . S
C670 H702 0.929 . S
C671 C672 1.358 . S
C671 C673 1.356 . S
C671 H703 0.930 . S
C672 N669 1.279 . S
C672 C671 1.358 . S
C672 H675 0.930 . S
C673 C670 1.348 . S
C673 C671 1.356 . S
H674 C668 0.930 . S
H675 C672 0.930 . S
O676 Li616 1.956 . S
O676 Li617 1.970 . S
O676 Li618 1.961 . S
O676 C620 1.325 . S
O677 Li616 1.970 . S
O677 Li617 1.956 . S
O677 Li619 1.961 . S
O677 C626 1.325 . S
O678 Li616 1.961 . S
O678 Li618 1.956 . S
O678 Li619 1.970 . S
O678 C648 1.325 . S
O679 Li617 1.961 . S
O679 Li618 1.970 . S
O679 Li619 1.956 . S
O679 C654 1.325 . S
H680 C622 0.929 . S
H681 C623 0.930 . S
H682 C624 0.930 . S
H683 C625 0.930 . S
H684 C627 0.930 . S
H685 C629 0.929 . S
H686 C630 0.930 . S
H687 C631 0.930 . S
H688 C634 0.930 . S
H689 C637 0.929 . S
H690 C642 0.929 . S
H691 C643 0.930 . S
H692 C650 0.929 . S
H693 C651 0.930 . S
H694 C652 0.930 . S
H695 C653 0.930 . S
H696 C655 0.929 . S
H697 C656 0.930 . S
H698 C657 0.930 . S
H699 C658 0.930 . S
H700 C662 0.929 . S
H701 C664 0.930 . S
H702 C670 0.929 . S
H703 C671 0.930 . S
Li704 N721 1.990 . S
Li704 O764 1.956 . S
Li704 O765 1.970 . S
Li704 O766 1.961 . S
Li705 N729 1.990 . S
Li705 O764 1.970 . S
Li705 O765 1.956 . S
Li705 O767 1.961 . S
Li706 N751 1.990 . S
Li706 O764 1.961 . S
Li706 O766 1.956 . S
Li706 O767 1.970 . S
Li707 N757 1.990 . S
Li707 O765 1.961 . S
Li707 O766 1.970 . S
Li707 O767 1.956 . S
C708 C710 1.348 . S
C708 C711 1.356 . S
C708 O764 1.325 . S
N709 C712 1.314 . S
N709 C713 1.279 . S
C710 C708 1.348 . S
C710 C712 1.353 . S
C710 H768 0.929 . S
C711 C708 1.356 . S
C711 C713 1.358 . S
C711 H769 0.930 . S
C712 N709 1.314 . S
C712 C710 1.353 . S
C712 H770 0.930 1_556 S
C713 N709 1.279 . S
C713 C711 1.358 . S
C713 H771 0.930 . S
C714 C717 1.348 . S
C714 C718 1.356 . S
C714 O765 1.325 . S
C715 N716 1.279 . S
C715 C718 1.358 . S
C715 H772 0.930 . S
N716 C715 1.279 . S
N716 C719 1.314 . S
C717 C714 1.348 . S
C717 C719 1.353 . S
C717 H773 0.929 . S
C718 C714 1.356 . S
C718 C715 1.358 . S
C718 H774 0.930 . S
C719 N716 1.314 . S
C719 C717 1.353 . S
C719 H775 0.930 . S
C720 N721 1.314 . S
C720 C725 1.353 . S
C720 H726 0.930 . S
N721 Li704 1.990 . S
N721 C720 1.314 . S
N721 C723 1.279 . S
C722 C723 1.358 . S
C722 C724 1.356 . S
C722 H776 0.930 . S
C723 N721 1.279 . S
C723 C722 1.358 . S
C723 H727 0.930 . S
C724 C722 1.356 . S
C724 C725 1.348 . S
C725 C720 1.353 . S
C725 C724 1.348 . S
C725 H777 0.929 . S
H726 C720 0.930 . S
H727 C723 0.930 . S
C728 N729 1.314 . S
C728 C730 1.353 . S
C728 H734 0.930 . S
N729 Li705 1.990 . S
N729 C728 1.314 . S
N729 C732 1.279 . S
C730 C728 1.353 . S
C730 C733 1.348 . S
C730 H778 0.929 . S
C731 C732 1.358 . S
C731 C733 1.356 . S
C731 H779 0.930 . S
C732 N729 1.279 . S
C732 C731 1.358 . S
C732 H735 0.930 . S
C733 C730 1.348 . S
C733 C731 1.356 . S
H734 C728 0.930 . S
H735 C732 0.930 . S
C736 C738 1.348 . S
C736 C739 1.356 . S
C736 O766 1.325 . S
N737 C740 1.314 . S
N737 C741 1.279 . S
C738 C736 1.348 . S
C738 C740 1.353 . S
C738 H780 0.929 . S
C739 C736 1.356 . S
C739 C741 1.358 . S
C739 H781 0.930 . S
C740 N737 1.314 . S
C740 C738 1.353 . S
C740 H782 0.930 . S
C741 N737 1.279 . S
C741 C739 1.358 . S
C741 H783 0.930 . S
C742 C743 1.348 . S
C742 C744 1.356 . S
C742 O767 1.325 . S
C743 C742 1.348 . S
C743 C745 1.353 . S
C743 H784 0.929 . S
C744 C742 1.356 . S
C744 C746 1.358 . S
C744 H785 0.930 . S
C745 C743 1.353 . S
C745 N747 1.314 . S
C745 H786 0.930 . S
C746 C744 1.358 . S
C746 N747 1.279 . S
C746 H787 0.930 . S
N747 C745 1.314 . S
N747 C746 1.279 . S
C748 C750 1.353 . S
C748 N751 1.314 . S
C748 H754 0.930 . S
C749 N751 1.279 . S
C749 C752 1.358 . S
C749 H755 0.930 . S
C750 C748 1.353 . S
C750 C753 1.348 . S
C750 H788 0.929 . S
N751 Li706 1.990 . S
N751 C748 1.314 . S
N751 C749 1.279 . S
C752 C749 1.358 . S
C752 C753 1.356 . S
C752 H789 0.930 . S
C753 C750 1.348 . S
C753 C752 1.356 . S
H754 C748 0.930 . S
H755 C749 0.930 . S
C756 N757 1.314 . S
C756 C758 1.353 . S
C756 H762 0.930 . S
N757 Li707 1.990 . S
N757 C756 1.314 . S
N757 C760 1.279 . S
C758 C756 1.353 . S
C758 C761 1.348 . S
C758 H790 0.929 . S
C759 C760 1.358 . S
C759 C761 1.356 . S
C759 H791 0.930 . S
C760 N757 1.279 . S
C760 C759 1.358 . S
C760 H763 0.930 . S
C761 C758 1.348 . S
C761 C759 1.356 . S
H762 C756 0.930 . S
H763 C760 0.930 . S
O764 Li704 1.956 . S
O764 Li705 1.970 . S
O764 Li706 1.961 . S
O764 C708 1.325 . S
O765 Li704 1.970 . S
O765 Li705 1.956 . S
O765 Li707 1.961 . S
O765 C714 1.325 . S
O766 Li704 1.961 . S
O766 Li706 1.956 . S
O766 Li707 1.970 . S
O766 C736 1.325 . S
O767 Li705 1.961 . S
O767 Li706 1.970 . S
O767 Li707 1.956 . S
O767 C742 1.325 . S
H768 C710 0.929 . S
H769 C711 0.930 . S
H770 C712 0.930 1_554 S
H771 C713 0.930 . S
H772 C715 0.930 . S
H773 C717 0.929 . S
H774 C718 0.930 . S
H775 C719 0.930 . S
H776 C722 0.930 . S
H777 C725 0.929 . S
H778 C730 0.929 . S
H779 C731 0.930 . S
H780 C738 0.929 . S
H781 C739 0.930 . S
H782 C740 0.930 . S
H783 C741 0.930 . S
H784 C743 0.929 . S
H785 C744 0.930 . S
H786 C745 0.930 . S
H787 C746 0.930 . S
H788 C750 0.929 . S
H789 C752 0.930 . S
H790 C758 0.929 . S
H791 C759 0.930 . S
Li792 N809 1.990 . S
Li792 O852 1.956 . S
Li792 O853 1.970 . S
Li792 O854 1.961 . S
Li793 N817 1.990 . S
Li793 O852 1.970 . S
Li793 O853 1.956 . S
Li793 O855 1.961 . S
Li794 N839 1.990 . S
Li794 O852 1.961 . S
Li794 O854 1.956 . S
Li794 O855 1.970 . S
Li795 N845 1.990 . S
Li795 O853 1.961 . S
Li795 O854 1.970 . S
Li795 O855 1.956 . S
C796 C798 1.348 . S
C796 C799 1.356 . S
C796 O852 1.325 . S
N797 C800 1.314 . S
N797 C801 1.279 . S
C798 C796 1.348 . S
C798 C800 1.353 . S
C798 H856 0.929 . S
C799 C796 1.356 . S
C799 C801 1.358 . S
C799 H857 0.930 . S
C800 N797 1.314 . S
C800 C798 1.353 . S
C800 H858 0.930 . S
C801 N797 1.279 . S
C801 C799 1.358 . S
C801 H859 0.930 . S
C802 C805 1.348 . S
C802 C806 1.356 . S
C802 O853 1.325 . S
C803 N804 1.279 . S
C803 C806 1.358 . S
C803 H860 0.930 . S
N804 C803 1.279 . S
N804 C807 1.314 . S
C805 C802 1.348 . S
C805 C807 1.353 . S
C805 H861 0.929 . S
C806 C802 1.356 . S
C806 C803 1.358 . S
C806 H862 0.930 . S
C807 N804 1.314 . S
C807 C805 1.353 . S
C807 H863 0.930 . S
C808 N809 1.314 . S
C808 C813 1.353 . S
C808 H814 0.930 . S
N809 Li792 1.990 . S
N809 C808 1.314 . S
N809 C811 1.279 . S
C810 C811 1.358 . S
C810 C812 1.356 . S
C810 H864 0.930 . S
C811 N809 1.279 . S
C811 C810 1.358 . S
C811 H815 0.930 . S
C812 C810 1.356 . S
C812 C813 1.348 . S
C813 C808 1.353 . S
C813 C812 1.348 . S
C813 H865 0.929 . S
H814 C808 0.930 . S
H815 C811 0.930 . S
C816 N817 1.314 . S
C816 C818 1.353 . S
C816 H822 0.930 . S
N817 Li793 1.990 . S
N817 C816 1.314 . S
N817 C820 1.279 . S
C818 C816 1.353 . S
C818 C821 1.348 . S
C818 H866 0.929 . S
C819 C820 1.358 . S
C819 C821 1.356 . S
C819 H867 0.930 . S
C820 N817 1.279 . S
C820 C819 1.358 . S
C820 H823 0.930 . S
C821 C818 1.348 . S
C821 C819 1.356 . S
H822 C816 0.930 . S
H823 C820 0.930 . S
C824 C826 1.348 . S
C824 C827 1.356 . S
C824 O854 1.325 . S
N825 C828 1.314 . S
N825 C829 1.279 . S
C826 C824 1.348 . S
C826 C828 1.353 . S
C826 H868 0.929 . S
C827 C824 1.356 . S
C827 C829 1.358 . S
C827 H869 0.930 . S
C828 N825 1.314 . S
C828 C826 1.353 . S
C828 H870 0.930 . S
C829 N825 1.279 . S
C829 C827 1.358 . S
C829 H871 0.930 . S
C830 C831 1.348 . S
C830 C832 1.356 . S
C830 O855 1.325 . S
C831 C830 1.348 . S
C831 C833 1.353 . S
C831 H872 0.929 . S
C832 C830 1.356 . S
C832 C834 1.358 . S
C832 H873 0.930 . S
C833 C831 1.353 . S
C833 N835 1.314 . S
C833 H874 0.930 . S
C834 C832 1.358 . S
C834 N835 1.279 . S
C834 H875 0.930 . S
N835 C833 1.314 . S
N835 C834 1.279 . S
C836 C838 1.353 . S
C836 N839 1.314 . S
C836 H842 0.930 . S
C837 N839 1.279 . S
C837 C840 1.358 . S
C837 H843 0.930 . S
C838 C836 1.353 . S
C838 C841 1.348 . S
C838 H876 0.929 . S
N839 Li794 1.990 . S
N839 C836 1.314 . S
N839 C837 1.279 . S
C840 C837 1.358 . S
C840 C841 1.356 . S
C840 H877 0.930 . S
C841 C838 1.348 . S
C841 C840 1.356 . S
H842 C836 0.930 . S
H843 C837 0.930 . S
C844 N845 1.314 . S
C844 C846 1.353 . S
C844 H850 0.930 . S
N845 Li795 1.990 . S
N845 C844 1.314 . S
N845 C848 1.279 . S
C846 C844 1.353 . S
C846 C849 1.348 . S
C846 H878 0.929 . S
C847 C848 1.358 . S
C847 C849 1.356 . S
C847 H879 0.930 . S
C848 N845 1.279 . S
C848 C847 1.358 . S
C848 H851 0.930 . S
C849 C846 1.348 . S
C849 C847 1.356 . S
H850 C844 0.930 . S
H851 C848 0.930 . S
O852 Li792 1.956 . S
O852 Li793 1.970 . S
O852 Li794 1.961 . S
O852 C796 1.325 . S
O853 Li792 1.970 . S
O853 Li793 1.956 . S
O853 Li795 1.961 . S
O853 C802 1.325 . S
O854 Li792 1.961 . S
O854 Li794 1.956 . S
O854 Li795 1.970 . S
O854 C824 1.325 . S
O855 Li793 1.961 . S
O855 Li794 1.970 . S
O855 Li795 1.956 . S
O855 C830 1.325 . S
H856 C798 0.929 . S
H857 C799 0.930 . S
H858 C800 0.930 . S
H859 C801 0.930 . S
H860 C803 0.930 . S
H861 C805 0.929 . S
H862 C806 0.930 . S
H863 C807 0.930 . S
H864 C810 0.930 . S
H865 C813 0.929 . S
H866 C818 0.929 . S
H867 C819 0.930 . S
H868 C826 0.929 . S
H869 C827 0.930 . S
H870 C828 0.930 . S
H871 C829 0.930 . S
H872 C831 0.929 . S
H873 C832 0.930 . S
H874 C833 0.930 . S
H875 C834 0.930 . S
H876 C838 0.929 . S
H877 C840 0.930 . S
H878 C846 0.929 . S
H879 C847 0.930 . S
Li880 N897 1.990 . S
Li880 O940 1.956 . S
Li880 O941 1.970 . S
Li880 O942 1.961 . S
Li881 N905 1.990 . S
Li881 O940 1.970 . S
Li881 O941 1.956 . S
Li881 O943 1.961 . S
Li882 N927 1.990 . S
Li882 O940 1.961 . S
Li882 O942 1.956 . S
Li882 O943 1.970 . S
Li883 N933 1.990 . S
Li883 O941 1.961 . S
Li883 O942 1.970 . S
Li883 O943 1.956 . S
C884 C886 1.348 . S
C884 C887 1.356 . S
C884 O940 1.325 . S
N885 C888 1.314 . S
N885 C889 1.279 . S
C886 C884 1.348 . S
C886 C888 1.353 . S
C886 H944 0.929 . S
C887 C884 1.356 . S
C887 C889 1.358 . S
C887 H945 0.930 . S
C888 N885 1.314 . S
C888 C886 1.353 . S
C888 H946 0.930 . S
C889 N885 1.279 . S
C889 C887 1.358 . S
C889 H947 0.930 . S
C890 C893 1.348 . S
C890 C894 1.356 . S
C890 O941 1.325 . S
C891 N892 1.279 . S
C891 C894 1.358 . S
C891 H948 0.930 . S
N892 C891 1.279 . S
N892 C895 1.314 . S
C893 C890 1.348 . S
C893 C895 1.353 . S
C893 H949 0.929 . S
C894 C890 1.356 . S
C894 C891 1.358 . S
C894 H950 0.930 . S
C895 N892 1.314 . S
C895 C893 1.353 . S
C895 H951 0.930 . S
C896 N897 1.314 . S
C896 C901 1.353 . S
C896 H902 0.930 . S
N897 Li880 1.990 . S
N897 C896 1.314 . S
N897 C899 1.279 . S
C898 C899 1.358 . S
C898 C900 1.356 . S
C898 H952 0.930 . S
C899 N897 1.279 . S
C899 C898 1.358 . S
C899 H903 0.930 . S
C900 C898 1.356 . S
C900 C901 1.348 . S
C901 C896 1.353 . S
C901 C900 1.348 . S
C901 H953 0.929 . S
H902 C896 0.930 . S
H903 C899 0.930 . S
C904 N905 1.314 . S
C904 C906 1.353 . S
C904 H910 0.930 . S
N905 Li881 1.990 . S
N905 C904 1.314 . S
N905 C908 1.279 . S
C906 C904 1.353 . S
C906 C909 1.348 . S
C906 H954 0.935 . S
C907 C908 1.358 . S
C907 C909 1.356 . S
C907 H955 0.930 . S
C908 N905 1.279 . S
C908 C907 1.358 . S
C908 H911 0.930 . S
C909 C906 1.348 . S
C909 C907 1.356 . S
H910 C904 0.930 . S
H911 C908 0.930 . S
C912 C914 1.348 . S
C912 C915 1.356 . S
C912 O942 1.325 . S
N913 C916 1.314 . S
N913 C917 1.279 . S
C914 C912 1.348 . S
C914 C916 1.353 . S
C914 H956 0.929 . S
C915 C912 1.356 . S
C915 C917 1.358 . S
C915 H957 0.930 . S
C916 N913 1.314 . S
C916 C914 1.353 . S
C916 H958 0.930 . S
C917 N913 1.279 . S
C917 C915 1.358 . S
C917 H959 0.930 . S
C918 C919 1.348 . S
C918 C920 1.356 . S
C918 O943 1.325 . S
C919 C918 1.348 . S
C919 C921 1.353 . S
C919 H960 0.929 . S
C920 C918 1.356 . S
C920 C922 1.358 . S
C920 H961 0.930 . S
C921 C919 1.353 . S
C921 N923 1.314 . S
C921 H962 0.930 . S
C922 C920 1.358 . S
C922 N923 1.279 . S
C922 H963 0.930 . S
N923 C921 1.314 . S
N923 C922 1.279 . S
C924 C926 1.353 . S
C924 N927 1.314 . S
C924 H930 0.930 . S
C925 N927 1.279 . S
C925 C928 1.358 . S
C925 H931 0.930 . S
C926 C924 1.353 . S
C926 C929 1.348 . S
C926 H964 0.929 . S
N927 Li882 1.990 . S
N927 C924 1.314 . S
N927 C925 1.279 . S
C928 C925 1.358 . S
C928 C929 1.356 . S
C928 H965 0.930 . S
C929 C926 1.348 . S
C929 C928 1.356 . S
H930 C924 0.930 . S
H931 C925 0.930 . S
C932 N933 1.314 . S
C932 C934 1.353 . S
C932 H938 0.930 . S
N933 Li883 1.990 . S
N933 C932 1.314 . S
N933 C936 1.279 . S
C934 C932 1.353 . S
C934 C937 1.348 . S
C934 H966 0.929 . S
C935 C936 1.358 . S
C935 C937 1.356 . S
C935 H967 0.930 . S
C936 N933 1.279 . S
C936 C935 1.358 . S
C936 H939 0.930 . S
C937 C934 1.348 . S
C937 C935 1.356 . S
H938 C932 0.930 . S
H939 C936 0.930 . S
O940 Li880 1.956 . S
O940 Li881 1.970 . S
O940 Li882 1.961 . S
O940 C884 1.325 . S
O941 Li880 1.970 . S
O941 Li881 1.956 . S
O941 Li883 1.961 . S
O941 C890 1.325 . S
O942 Li880 1.961 . S
O942 Li882 1.956 . S
O942 Li883 1.970 . S
O942 C912 1.325 . S
O943 Li881 1.961 . S
O943 Li882 1.970 . S
O943 Li883 1.956 . S
O943 C918 1.325 . S
H944 C886 0.929 . S
H945 C887 0.930 . S
H946 C888 0.930 . S
H947 C889 0.930 . S
H948 C891 0.930 . S
H949 C893 0.929 . S
H950 C894 0.930 . S
H951 C895 0.930 . S
H952 C898 0.930 . S
H953 C901 0.929 . S
H954 C906 0.935 . S
H955 C907 0.930 . S
H956 C914 0.929 . S
H957 C915 0.930 . S
H958 C916 0.930 . S
H959 C917 0.930 . S
H960 C919 0.929 . S
H961 C920 0.930 . S
H962 C921 0.930 . S
H963 C922 0.930 . S
H964 C926 0.929 . S
H965 C928 0.930 . S
H966 C934 0.929 . S
H967 C935 0.930 . S
Li968 N985 1.990 . S
Li968 O1028 1.956 . S
Li968 O1029 1.970 . S
Li968 O1030 1.961 . S
Li969 N993 1.990 . S
Li969 O1028 1.970 . S
Li969 O1029 1.956 . S
Li969 O1031 1.961 . S
Li970 N1015 1.990 . S
Li970 O1028 1.961 . S
Li970 O1030 1.956 . S
Li970 O1031 1.970 . S
Li971 N1021 1.990 . S
Li971 O1029 1.961 . S
Li971 O1030 1.970 . S
Li971 O1031 1.956 . S
C972 C974 1.348 . S
C972 C975 1.356 . S
C972 O1028 1.325 . S
N973 C976 1.314 . S
N973 C977 1.279 . S
C974 C972 1.348 . S
C974 C976 1.353 . S
C974 H1032 0.929 . S
C975 C972 1.356 . S
C975 C977 1.358 . S
C975 H1033 0.930 . S
C976 N973 1.314 . S
C976 C974 1.353 . S
C976 H1034 0.930 . S
C977 N973 1.279 . S
C977 C975 1.358 . S
C977 H1035 0.930 . S
C978 C981 1.348 . S
C978 C982 1.356 . S
C978 O1029 1.325 . S
C979 N980 1.279 . S
C979 C982 1.358 . S
C979 H1036 0.930 . S
N980 C979 1.279 . S
N980 C983 1.314 . S
C981 C978 1.348 . S
C981 C983 1.353 . S
C981 H1037 0.929 . S
C982 C978 1.356 . S
C982 C979 1.358 . S
C982 H1038 0.930 . S
C983 N980 1.314 . S
C983 C981 1.353 . S
C983 H1039 0.930 . S
C984 N985 1.314 . S
C984 C989 1.353 . S
C984 H990 0.930 . S
N985 Li968 1.990 . S
N985 C984 1.314 . S
N985 C987 1.279 . S
C986 C987 1.358 . S
C986 C988 1.356 . S
C986 H1040 0.930 . S
C987 N985 1.279 . S
C987 C986 1.358 . S
C987 H991 0.930 . S
C988 C986 1.356 . S
C988 C989 1.348 . S
C989 C984 1.353 . S
C989 C988 1.348 . S
C989 H1041 0.929 . S
H990 C984 0.930 . S
H991 C987 0.930 . S
C992 N993 1.314 . S
C992 C994 1.353 . S
C992 H998 0.930 . S
N993 Li969 1.990 . S
N993 C992 1.314 . S
N993 C996 1.279 . S
C994 C992 1.353 . S
C994 C997 1.348 . S
C994 H1042 0.929 . S
C995 C996 1.358 . S
C995 C997 1.356 . S
C995 H1043 0.930 . S
C996 N993 1.279 . S
C996 C995 1.358 . S
C996 H999 0.930 . S
C997 C994 1.348 . S
C997 C995 1.356 . S
H998 C992 0.930 . S
H999 C996 0.930 . S
C1000 C1002 1.348 . S
C1000 C1003 1.356 . S
C1000 O1030 1.325 . S
N1001 C1004 1.314 . S
N1001 C1005 1.279 . S
C1002 C1000 1.348 . S
C1002 C1004 1.353 . S
C1002 H1044 0.929 . S
C1003 C1000 1.356 . S
C1003 C1005 1.358 . S
C1003 H1045 0.930 . S
C1004 N1001 1.314 . S
C1004 C1002 1.353 . S
C1004 H1046 0.930 . S
C1005 N1001 1.279 . S
C1005 C1003 1.358 . S
C1005 H1047 0.930 . S
C1006 C1007 1.348 . S
C1006 C1008 1.356 . S
C1006 O1031 1.325 . S
C1007 C1006 1.348 . S
C1007 C1009 1.353 . S
C1007 H1048 0.929 . S
C1008 C1006 1.356 . S
C1008 C1010 1.358 . S
C1008 H1049 0.930 . S
C1009 C1007 1.353 . S
C1009 N1011 1.314 . S
C1009 H1050 0.930 . S
C1010 C1008 1.358 . S
C1010 N1011 1.279 . S
C1010 H1051 0.930 . S
N1011 C1009 1.314 . S
N1011 C1010 1.279 . S
C1012 C1014 1.353 . S
C1012 N1015 1.314 . S
C1012 H1018 0.930 . S
C1013 N1015 1.279 . S
C1013 C1016 1.358 . S
C1013 H1019 0.930 . S
C1014 C1012 1.353 . S
C1014 C1017 1.348 . S
C1014 H1052 0.929 . S
N1015 Li970 1.990 . S
N1015 C1012 1.314 . S
N1015 C1013 1.279 . S
C1016 C1013 1.358 . S
C1016 C1017 1.356 . S
C1016 H1053 0.930 . S
C1017 C1014 1.348 . S
C1017 C1016 1.356 . S
H1018 C1012 0.930 . S
H1019 C1013 0.930 . S
C1020 N1021 1.314 . S
C1020 C1022 1.353 . S
C1020 H1026 0.930 . S
N1021 Li971 1.990 . S
N1021 C1020 1.314 . S
N1021 C1024 1.279 . S
C1022 C1020 1.353 . S
C1022 C1025 1.348 . S
C1022 H1054 0.929 . S
C1023 C1024 1.358 . S
C1023 C1025 1.356 . S
C1023 H1055 0.930 . S
C1024 N1021 1.279 . S
C1024 C1023 1.358 . S
C1024 H1027 0.930 . S
C1025 C1022 1.348 . S
C1025 C1023 1.356 . S
H1026 C1020 0.930 . S
H1027 C1024 0.930 . S
O1028 Li968 1.956 . S
O1028 Li969 1.970 . S
O1028 Li970 1.961 . S
O1028 C972 1.325 . S
O1029 Li968 1.970 . S
O1029 Li969 1.956 . S
O1029 Li971 1.961 . S
O1029 C978 1.325 . S
O1030 Li968 1.961 . S
O1030 Li970 1.956 . S
O1030 Li971 1.970 . S
O1030 C1000 1.325 . S
O1031 Li969 1.961 . S
O1031 Li970 1.970 . S
O1031 Li971 1.956 . S
O1031 C1006 1.325 . S
H1032 C974 0.929 . S
H1033 C975 0.930 . S
H1034 C976 0.930 . S
H1035 C977 0.930 . S
H1036 C979 0.930 . S
H1037 C981 0.929 . S
H1038 C982 0.930 . S
H1039 C983 0.930 . S
H1040 C986 0.930 . S
H1041 C989 0.929 . S
H1042 C994 0.929 . S
H1043 C995 0.930 . S
H1044 C1002 0.929 . S
H1045 C1003 0.930 . S
H1046 C1004 0.930 . S
H1047 C1005 0.930 . S
H1048 C1007 0.929 . S
H1049 C1008 0.930 . S
H1050 C1009 0.930 . S
H1051 C1010 0.930 . S
H1052 C1014 0.929 . S
H1053 C1016 0.930 . S
H1054 C1022 0.929 . S
H1055 C1023 0.930 . S
Li1056 N1073 1.990 . S
Li1056 O1116 1.956 . S
Li1056 O1117 1.970 . S
Li1056 O1118 1.961 . S
Li1057 N1081 1.990 . S
Li1057 O1116 1.970 . S
Li1057 O1117 1.956 . S
Li1057 O1119 1.961 . S
Li1058 N1103 1.990 . S
Li1058 O1116 1.961 . S
Li1058 O1118 1.956 . S
Li1058 O1119 1.970 . S
Li1059 N1109 1.990 . S
Li1059 O1117 1.961 . S
Li1059 O1118 1.970 . S
Li1059 O1119 1.956 . S
C1060 C1062 1.348 . S
C1060 C1063 1.356 . S
C1060 O1116 1.325 . S
N1061 C1064 1.314 . S
N1061 C1065 1.279 . S
C1062 C1060 1.348 . S
C1062 C1064 1.353 . S
C1062 H1120 0.929 . S
C1063 C1060 1.356 . S
C1063 C1065 1.358 . S
C1063 H1121 0.930 . S
C1064 N1061 1.314 . S
C1064 C1062 1.353 . S
C1064 H1122 0.930 . S
C1065 N1061 1.279 . S
C1065 C1063 1.358 . S
C1065 H1123 0.930 . S
C1066 C1069 1.348 . S
C1066 C1070 1.356 . S
C1066 O1117 1.325 . S
C1067 N1068 1.279 . S
C1067 C1070 1.358 . S
C1067 H1124 0.930 . S
N1068 C1067 1.279 . S
N1068 C1071 1.314 . S
C1069 C1066 1.348 . S
C1069 C1071 1.353 . S
C1069 H1125 0.929 . S
C1070 C1066 1.356 . S
C1070 C1067 1.358 . S
C1070 H1126 0.930 . S
C1071 N1068 1.314 . S
C1071 C1069 1.353 . S
C1071 H1127 0.930 . S
C1072 N1073 1.314 . S
C1072 C1077 1.353 . S
C1072 H1078 0.930 . S
N1073 Li1056 1.990 . S
N1073 C1072 1.314 . S
N1073 C1075 1.279 . S
C1074 C1075 1.358 . S
C1074 C1076 1.356 . S
C1074 H1128 0.930 . S
C1075 N1073 1.279 . S
C1075 C1074 1.358 . S
C1075 H1079 0.930 . S
C1076 C1074 1.356 . S
C1076 C1077 1.348 . S
C1077 C1072 1.353 . S
C1077 C1076 1.348 . S
C1077 H1129 0.929 . S
H1078 C1072 0.930 . S
H1079 C1075 0.930 . S
C1080 N1081 1.314 . S
C1080 C1082 1.353 . S
C1080 H1086 0.930 . S
N1081 Li1057 1.990 . S
N1081 C1080 1.314 . S
N1081 C1084 1.279 . S
C1082 C1080 1.353 . S
C1082 C1085 1.348 . S
C1082 H1130 0.929 . S
C1083 C1084 1.358 . S
C1083 C1085 1.356 . S
C1083 H1131 0.930 . S
C1084 N1081 1.279 . S
C1084 C1083 1.358 . S
C1084 H1087 0.930 . S
C1085 C1082 1.348 . S
C1085 C1083 1.356 . S
H1086 C1080 0.930 . S
H1087 C1084 0.930 . S
C1088 C1090 1.348 . S
C1088 C1091 1.356 . S
C1088 O1118 1.325 . S
N1089 C1092 1.314 . S
N1089 C1093 1.279 . S
C1090 C1088 1.348 . S
C1090 C1092 1.353 . S
C1090 H1132 0.929 . S
C1091 C1088 1.356 . S
C1091 C1093 1.358 . S
C1091 H1133 0.930 . S
C1092 N1089 1.314 . S
C1092 C1090 1.353 . S
C1092 H1134 0.930 . S
C1093 N1089 1.279 . S
C1093 C1091 1.358 . S
C1093 H1135 0.930 . S
C1094 C1095 1.348 . S
C1094 C1096 1.356 . S
C1094 O1119 1.325 . S
C1095 C1094 1.348 . S
C1095 C1097 1.353 . S
C1095 H1136 0.929 . S
C1096 C1094 1.356 . S
C1096 C1098 1.358 . S
C1096 H1137 0.930 . S
C1097 C1095 1.353 . S
C1097 N1099 1.314 . S
C1097 H1138 0.930 . S
C1098 C1096 1.358 . S
C1098 N1099 1.279 . S
C1098 H1139 0.930 . S
N1099 C1097 1.314 . S
N1099 C1098 1.279 . S
C1100 C1102 1.353 . S
C1100 N1103 1.314 . S
C1100 H1106 0.930 . S
C1101 N1103 1.279 . S
C1101 C1104 1.358 . S
C1101 H1107 0.930 . S
C1102 C1100 1.353 . S
C1102 C1105 1.348 . S
C1102 H1140 0.929 . S
N1103 Li1058 1.990 . S
N1103 C1100 1.314 . S
N1103 C1101 1.279 . S
C1104 C1101 1.358 . S
C1104 C1105 1.356 . S
C1104 H1141 0.930 . S
C1105 C1102 1.348 . S
C1105 C1104 1.356 . S
H1106 C1100 0.930 . S
H1107 C1101 0.930 . S
C1108 N1109 1.314 . S
C1108 C1110 1.353 . S
C1108 H1114 0.930 . S
N1109 Li1059 1.990 . S
N1109 C1108 1.314 . S
N1109 C1112 1.279 . S
C1110 C1108 1.353 . S
C1110 C1113 1.348 . S
C1110 H1142 0.929 . S
C1111 C1112 1.358 . S
C1111 C1113 1.356 . S
C1111 H1143 0.930 . S
C1112 N1109 1.279 . S
C1112 C1111 1.358 . S
C1112 H1115 0.930 . S
C1113 C1110 1.348 . S
C1113 C1111 1.356 . S
H1114 C1108 0.930 . S
H1115 C1112 0.930 . S
O1116 Li1056 1.956 . S
O1116 Li1057 1.970 . S
O1116 Li1058 1.961 . S
O1116 C1060 1.325 . S
O1117 Li1056 1.970 . S
O1117 Li1057 1.956 . S
O1117 Li1059 1.961 . S
O1117 C1066 1.325 . S
O1118 Li1056 1.961 . S
O1118 Li1058 1.956 . S
O1118 Li1059 1.970 . S
O1118 C1088 1.325 . S
O1119 Li1057 1.961 . S
O1119 Li1058 1.970 . S
O1119 Li1059 1.956 . S
O1119 C1094 1.325 . S
H1120 C1062 0.929 . S
H1121 C1063 0.930 . S
H1122 C1064 0.930 . S
H1123 C1065 0.930 . S
H1124 C1067 0.930 . S
H1125 C1069 0.929 . S
H1126 C1070 0.930 . S
H1127 C1071 0.930 . S
H1128 C1074 0.930 . S
H1129 C1077 0.929 . S
H1130 C1082 0.929 . S
H1131 C1083 0.930 . S
H1132 C1090 0.929 . S
H1133 C1091 0.930 . S
H1134 C1092 0.930 . S
H1135 C1093 0.930 . S
H1136 C1095 0.929 . S
H1137 C1096 0.930 . S
H1138 C1097 0.930 . S
H1139 C1098 0.930 . S
H1140 C1102 0.929 . S
H1141 C1104 0.930 . S
H1142 C1110 0.929 . S
H1143 C1111 0.930 . S
Li1144 N1161 1.990 . S
Li1144 O1204 1.956 . S
Li1144 O1205 1.970 . S
Li1144 O1206 1.961 . S
Li1145 N1169 1.990 . S
Li1145 O1204 1.970 . S
Li1145 O1205 1.956 . S
Li1145 O1207 1.961 . S
Li1146 N1191 1.990 . S
Li1146 O1204 1.961 . S
Li1146 O1206 1.956 . S
Li1146 O1207 1.970 . S
Li1147 N1197 1.990 . S
Li1147 O1205 1.961 . S
Li1147 O1206 1.970 . S
Li1147 O1207 1.956 . S
C1148 C1150 1.348 . S
C1148 C1151 1.356 . S
C1148 O1204 1.325 . S
N1149 C1152 1.314 . S
N1149 C1153 1.279 . S
C1150 C1148 1.348 . S
C1150 C1152 1.353 . S
C1150 H1208 0.929 . S
C1151 C1148 1.356 . S
C1151 C1153 1.358 . S
C1151 H1209 0.930 . S
C1152 N1149 1.314 . S
C1152 C1150 1.353 . S
C1152 H1210 0.930 . S
C1153 N1149 1.279 . S
C1153 C1151 1.358 . S
C1153 H1211 0.930 1_556 S
C1154 C1157 1.348 . S
C1154 C1158 1.356 . S
C1154 O1205 1.325 . S
C1155 N1156 1.279 . S
C1155 C1158 1.358 . S
C1155 H1212 0.930 . S
N1156 C1155 1.279 . S
N1156 C1159 1.314 . S
C1157 C1154 1.348 . S
C1157 C1159 1.353 . S
C1157 H1213 0.929 . S
C1158 C1154 1.356 . S
C1158 C1155 1.358 . S
C1158 H1214 0.930 . S
C1159 N1156 1.314 . S
C1159 C1157 1.353 . S
C1159 H1215 0.930 . S
C1160 N1161 1.314 . S
C1160 C1165 1.353 . S
C1160 H1166 0.930 . S
N1161 Li1144 1.990 . S
N1161 C1160 1.314 . S
N1161 C1163 1.279 . S
C1162 C1163 1.358 . S
C1162 C1164 1.356 . S
C1162 H1216 0.930 . S
C1163 N1161 1.279 . S
C1163 C1162 1.358 . S
C1163 H1167 0.930 . S
C1164 C1162 1.356 . S
C1164 C1165 1.348 . S
C1165 C1160 1.353 . S
C1165 C1164 1.348 . S
C1165 H1217 0.929 . S
H1166 C1160 0.930 . S
H1167 C1163 0.930 . S
C1168 N1169 1.314 . S
C1168 C1170 1.353 . S
C1168 H1174 0.930 . S
N1169 Li1145 1.990 . S
N1169 C1168 1.314 . S
N1169 C1172 1.279 . S
C1170 C1168 1.353 . S
C1170 C1173 1.348 . S
C1170 H1218 0.929 . S
C1171 C1172 1.358 . S
C1171 C1173 1.356 . S
C1171 H1219 0.930 . S
C1172 N1169 1.279 . S
C1172 C1171 1.358 . S
C1172 H1175 0.930 . S
C1173 C1170 1.348 . S
C1173 C1171 1.356 . S
H1174 C1168 0.930 . S
H1175 C1172 0.930 . S
C1176 C1178 1.348 . S
C1176 C1179 1.356 . S
C1176 O1206 1.325 . S
N1177 C1180 1.314 . S
N1177 C1181 1.279 . S
C1178 C1176 1.348 . S
C1178 C1180 1.353 . S
C1178 H1220 0.929 . S
C1179 C1176 1.356 . S
C1179 C1181 1.358 . S
C1179 H1221 0.930 . S
C1180 N1177 1.314 . S
C1180 C1178 1.353 . S
C1180 H1222 0.930 1_565 S
C1181 N1177 1.279 . S
C1181 C1179 1.358 . S
C1181 H1223 0.930 . S
C1182 C1183 1.348 . S
C1182 C1184 1.356 . S
C1182 O1207 1.325 . S
C1183 C1182 1.348 . S
C1183 C1185 1.353 . S
C1183 H1224 0.929 . S
C1184 C1182 1.356 . S
C1184 C1186 1.358 . S
C1184 H1225 0.930 . S
C1185 C1183 1.353 . S
C1185 N1187 1.314 . S
C1185 H1226 0.930 . S
C1186 C1184 1.358 . S
C1186 N1187 1.279 . S
C1186 H1227 0.930 . S
N1187 C1185 1.314 . S
N1187 C1186 1.279 . S
C1188 C1190 1.353 . S
C1188 N1191 1.314 . S
C1188 H1194 0.930 . S
C1189 N1191 1.279 . S
C1189 C1192 1.358 . S
C1189 H1195 0.930 . S
C1190 C1188 1.353 . S
C1190 C1193 1.348 . S
C1190 H1228 0.929 . S
N1191 Li1146 1.990 . S
N1191 C1188 1.314 . S
N1191 C1189 1.279 . S
C1192 C1189 1.358 . S
C1192 C1193 1.356 . S
C1192 H1229 0.930 . S
C1193 C1190 1.348 . S
C1193 C1192 1.356 . S
H1194 C1188 0.930 . S
H1195 C1189 0.930 . S
C1196 N1197 1.314 . S
C1196 C1198 1.353 . S
C1196 H1202 0.930 . S
N1197 Li1147 1.990 . S
N1197 C1196 1.314 . S
N1197 C1200 1.279 . S
C1198 C1196 1.353 . S
C1198 C1201 1.348 . S
C1198 H1230 0.929 . S
C1199 C1200 1.358 . S
C1199 C1201 1.356 . S
C1199 H1231 0.930 . S
C1200 N1197 1.279 . S
C1200 C1199 1.358 . S
C1200 H1203 0.930 . S
C1201 C1198 1.348 . S
C1201 C1199 1.356 . S
H1202 C1196 0.930 . S
H1203 C1200 0.930 . S
O1204 Li1144 1.956 . S
O1204 Li1145 1.970 . S
O1204 Li1146 1.961 . S
O1204 C1148 1.325 . S
O1205 Li1144 1.970 . S
O1205 Li1145 1.956 . S
O1205 Li1147 1.961 . S
O1205 C1154 1.325 . S
O1206 Li1144 1.961 . S
O1206 Li1146 1.956 . S
O1206 Li1147 1.970 . S
O1206 C1176 1.325 . S
O1207 Li1145 1.961 . S
O1207 Li1146 1.970 . S
O1207 Li1147 1.956 . S
O1207 C1182 1.325 . S
H1208 C1150 0.929 . S
H1209 C1151 0.930 . S
H1210 C1152 0.930 . S
H1211 C1153 0.930 1_554 S
H1212 C1155 0.930 . S
H1213 C1157 0.929 . S
H1214 C1158 0.930 . S
H1215 C1159 0.930 . S
H1216 C1162 0.930 . S
H1217 C1165 0.929 . S
H1218 C1170 0.929 . S
H1219 C1171 0.930 . S
H1220 C1178 0.929 . S
H1221 C1179 0.930 . S
H1222 C1180 0.930 1_545 S
H1223 C1181 0.930 . S
H1224 C1183 0.929 . S
H1225 C1184 0.930 . S
H1226 C1185 0.930 . S
H1227 C1186 0.930 . S
H1228 C1190 0.929 . S
H1229 C1192 0.930 . S
H1230 C1198 0.929 . S
H1231 C1199 0.930 . S
Li1232 N1249 1.990 . S
Li1232 O1292 1.956 . S
Li1232 O1293 1.970 . S
Li1232 O1294 1.961 . S
Li1233 N1257 1.990 . S
Li1233 O1292 1.970 . S
Li1233 O1293 1.956 . S
Li1233 O1295 1.961 . S
Li1234 N1279 1.990 . S
Li1234 O1292 1.961 . S
Li1234 O1294 1.956 . S
Li1234 O1295 1.970 . S
Li1235 N1285 1.990 . S
Li1235 O1293 1.961 . S
Li1235 O1294 1.970 . S
Li1235 O1295 1.956 . S
C1236 C1238 1.348 . S
C1236 C1239 1.356 . S
C1236 O1292 1.325 . S
N1237 C1240 1.314 . S
N1237 C1241 1.279 . S
C1238 C1236 1.348 . S
C1238 C1240 1.353 . S
C1238 H1296 0.929 . S
C1239 C1236 1.356 . S
C1239 C1241 1.358 . S
C1239 H1297 0.930 . S
C1240 N1237 1.314 . S
C1240 C1238 1.353 . S
C1240 H1298 0.930 . S
C1241 N1237 1.279 . S
C1241 C1239 1.358 . S
C1241 H1299 0.930 . S
C1242 C1245 1.348 . S
C1242 C1246 1.356 . S
C1242 O1293 1.325 . S
C1243 N1244 1.279 . S
C1243 C1246 1.358 . S
C1243 H1300 0.930 . S
N1244 C1243 1.279 . S
N1244 C1247 1.314 . S
C1245 C1242 1.348 . S
C1245 C1247 1.353 . S
C1245 H1301 0.929 . S
C1246 C1242 1.356 . S
C1246 C1243 1.358 . S
C1246 H1302 0.930 . S
C1247 N1244 1.314 . S
C1247 C1245 1.353 . S
C1247 H1303 0.930 . S
C1248 N1249 1.314 . S
C1248 C1253 1.353 . S
C1248 H1254 0.930 . S
N1249 Li1232 1.990 . S
N1249 C1248 1.314 . S
N1249 C1251 1.279 . S
C1250 C1251 1.358 . S
C1250 C1252 1.356 . S
C1250 H1304 0.930 . S
C1251 N1249 1.279 . S
C1251 C1250 1.358 . S
C1251 H1255 0.930 . S
C1252 C1250 1.356 . S
C1252 C1253 1.348 . S
C1253 C1248 1.353 . S
C1253 C1252 1.348 . S
C1253 H1305 0.929 . S
H1254 C1248 0.930 . S
H1255 C1251 0.930 . S
C1256 N1257 1.314 . S
C1256 C1258 1.353 . S
C1256 H1262 0.930 . S
N1257 Li1233 1.990 . S
N1257 C1256 1.314 . S
N1257 C1260 1.279 . S
C1258 C1256 1.353 . S
C1258 C1261 1.348 . S
C1258 H1306 0.929 . S
C1259 C1260 1.358 . S
C1259 C1261 1.356 . S
C1259 H1307 0.930 . S
C1260 N1257 1.279 . S
C1260 C1259 1.358 . S
C1260 H1263 0.930 . S
C1261 C1258 1.348 . S
C1261 C1259 1.356 . S
H1262 C1256 0.930 . S
H1263 C1260 0.930 . S
C1264 C1266 1.348 . S
C1264 C1267 1.356 . S
C1264 O1294 1.325 . S
N1265 C1268 1.314 . S
N1265 C1269 1.279 . S
C1266 C1264 1.348 . S
C1266 C1268 1.353 . S
C1266 H1308 0.929 . S
C1267 C1264 1.356 . S
C1267 C1269 1.358 . S
C1267 H1309 0.930 . S
C1268 N1265 1.314 . S
C1268 C1266 1.353 . S
C1268 H1310 0.930 . S
C1269 N1265 1.279 . S
C1269 C1267 1.358 . S
C1269 H1311 0.930 . S
C1270 C1271 1.348 . S
C1270 C1272 1.356 . S
C1270 O1295 1.325 . S
C1271 C1270 1.348 . S
C1271 C1273 1.353 . S
C1271 H1312 0.929 . S
C1272 C1270 1.356 . S
C1272 C1274 1.358 . S
C1272 H1313 0.930 . S
C1273 C1271 1.353 . S
C1273 N1275 1.314 . S
C1273 H1314 0.930 . S
C1274 C1272 1.358 . S
C1274 N1275 1.279 . S
C1274 H1315 0.930 . S
N1275 C1273 1.314 . S
N1275 C1274 1.279 . S
C1276 C1278 1.353 . S
C1276 N1279 1.314 . S
C1276 H1282 0.930 . S
C1277 N1279 1.279 . S
C1277 C1280 1.358 . S
C1277 H1283 0.930 . S
C1278 C1276 1.353 . S
C1278 C1281 1.348 . S
C1278 H1316 0.929 . S
N1279 Li1234 1.990 . S
N1279 C1276 1.314 . S
N1279 C1277 1.279 . S
C1280 C1277 1.358 . S
C1280 C1281 1.356 . S
C1280 H1317 0.930 . S
C1281 C1278 1.348 . S
C1281 C1280 1.356 . S
H1282 C1276 0.930 . S
H1283 C1277 0.930 . S
C1284 N1285 1.314 . S
C1284 C1286 1.353 . S
C1284 H1290 0.930 . S
N1285 Li1235 1.990 . S
N1285 C1284 1.314 . S
N1285 C1288 1.279 . S
C1286 C1284 1.353 . S
C1286 C1289 1.348 . S
C1286 H1318 0.929 . S
C1287 C1288 1.358 . S
C1287 C1289 1.356 . S
C1287 H1319 0.930 . S
C1288 N1285 1.279 . S
C1288 C1287 1.358 . S
C1288 H1291 0.930 . S
C1289 C1286 1.348 . S
C1289 C1287 1.356 . S
H1290 C1284 0.930 . S
H1291 C1288 0.930 . S
O1292 Li1232 1.956 . S
O1292 Li1233 1.970 . S
O1292 Li1234 1.961 . S
O1292 C1236 1.325 . S
O1293 Li1232 1.970 . S
O1293 Li1233 1.956 . S
O1293 Li1235 1.961 . S
O1293 C1242 1.325 . S
O1294 Li1232 1.961 . S
O1294 Li1234 1.956 . S
O1294 Li1235 1.970 . S
O1294 C1264 1.325 . S
O1295 Li1233 1.961 . S
O1295 Li1234 1.970 . S
O1295 Li1235 1.956 . S
O1295 C1270 1.325 . S
H1296 C1238 0.929 . S
H1297 C1239 0.930 . S
H1298 C1240 0.930 . S
H1299 C1241 0.930 . S
H1300 C1243 0.930 . S
H1301 C1245 0.929 . S
H1302 C1246 0.930 . S
H1303 C1247 0.930 . S
H1304 C1250 0.930 . S
H1305 C1253 0.929 . S
H1306 C1258 0.929 . S
H1307 C1259 0.930 . S
H1308 C1266 0.929 . S
H1309 C1267 0.930 . S
H1310 C1268 0.930 . S
H1311 C1269 0.930 . S
H1312 C1271 0.929 . S
H1313 C1272 0.930 . S
H1314 C1273 0.930 . S
H1315 C1274 0.930 . S
H1316 C1278 0.929 . S
H1317 C1280 0.930 . S
H1318 C1286 0.929 . S
H1319 C1287 0.930 . S
Li1320 N1337 1.990 . S
Li1320 O1380 1.956 . S
Li1320 O1381 1.970 . S
Li1320 O1382 1.961 . S
Li1321 N1345 1.990 . S
Li1321 O1380 1.970 . S
Li1321 O1381 1.956 . S
Li1321 O1383 1.961 . S
Li1322 N1367 1.990 . S
Li1322 O1380 1.961 . S
Li1322 O1382 1.956 . S
Li1322 O1383 1.970 . S
Li1323 N1373 1.990 . S
Li1323 O1381 1.961 . S
Li1323 O1382 1.970 . S
Li1323 O1383 1.956 . S
C1324 C1326 1.348 . S
C1324 C1327 1.356 . S
C1324 O1380 1.325 . S
N1325 C1328 1.314 . S
N1325 C1329 1.279 . S
C1326 C1324 1.348 . S
C1326 C1328 1.353 . S
C1326 H1384 0.929 . S
C1327 C1324 1.356 . S
C1327 C1329 1.358 . S
C1327 H1385 0.930 . S
C1328 N1325 1.314 . S
C1328 C1326 1.353 . S
C1328 H1386 0.930 . S
C1329 N1325 1.279 . S
C1329 C1327 1.358 . S
C1329 H1387 0.930 . S
C1330 C1333 1.348 . S
C1330 C1334 1.356 . S
C1330 O1381 1.325 . S
C1331 N1332 1.279 . S
C1331 C1334 1.358 . S
C1331 H1388 0.930 . S
N1332 C1331 1.279 . S
N1332 C1335 1.314 . S
C1333 C1330 1.348 . S
C1333 C1335 1.353 . S
C1333 H1389 0.929 . S
C1334 C1330 1.356 . S
C1334 C1331 1.358 . S
C1334 H1390 0.930 . S
C1335 N1332 1.314 . S
C1335 C1333 1.353 . S
C1335 H1391 0.930 . S
C1336 N1337 1.314 . S
C1336 C1341 1.353 . S
C1336 H1342 0.930 . S
N1337 Li1320 1.990 . S
N1337 C1336 1.314 . S
N1337 C1339 1.279 . S
C1338 C1339 1.358 . S
C1338 C1340 1.356 . S
C1338 H1392 0.930 . S
C1339 N1337 1.279 . S
C1339 C1338 1.358 . S
C1339 H1343 0.930 . S
C1340 C1338 1.356 . S
C1340 C1341 1.348 . S
C1341 C1336 1.353 . S
C1341 C1340 1.348 . S
C1341 H1393 0.929 . S
H1342 C1336 0.930 . S
H1343 C1339 0.930 . S
C1344 N1345 1.314 . S
C1344 C1346 1.353 . S
C1344 H1350 0.930 . S
N1345 Li1321 1.990 . S
N1345 C1344 1.314 . S
N1345 C1348 1.279 . S
C1346 C1344 1.353 . S
C1346 C1349 1.348 . S
C1346 H1394 0.929 . S
C1347 C1348 1.358 . S
C1347 C1349 1.356 . S
C1347 H1395 0.930 . S
C1348 N1345 1.279 . S
C1348 C1347 1.358 . S
C1348 H1351 0.930 . S
C1349 C1346 1.348 . S
C1349 C1347 1.356 . S
H1350 C1344 0.930 . S
H1351 C1348 0.930 . S
C1352 C1354 1.348 . S
C1352 C1355 1.356 . S
C1352 O1382 1.325 . S
N1353 C1356 1.314 . S
N1353 C1357 1.279 . S
C1354 C1352 1.348 . S
C1354 C1356 1.353 . S
C1354 H1396 0.929 . S
C1355 C1352 1.356 . S
C1355 C1357 1.358 . S
C1355 H1397 0.930 . S
C1356 N1353 1.314 . S
C1356 C1354 1.353 . S
C1356 H1398 0.930 . S
C1357 N1353 1.279 . S
C1357 C1355 1.358 . S
C1357 H1399 0.930 . S
C1358 C1359 1.348 . S
C1358 C1360 1.356 . S
C1358 O1383 1.325 . S
C1359 C1358 1.348 . S
C1359 C1361 1.353 . S
C1359 H1400 0.929 . S
C1360 C1358 1.356 . S
C1360 C1362 1.358 . S
C1360 H1401 0.930 . S
C1361 C1359 1.353 . S
C1361 N1363 1.314 . S
C1361 H1402 0.930 1_545 S
C1362 C1360 1.358 . S
C1362 N1363 1.279 . S
C1362 H1403 0.930 . S
N1363 C1361 1.314 . S
N1363 C1362 1.279 . S
C1364 C1366 1.353 . S
C1364 N1367 1.314 . S
C1364 H1370 0.930 . S
C1365 N1367 1.279 . S
C1365 C1368 1.358 . S
C1365 H1371 0.930 . S
C1366 C1364 1.353 . S
C1366 C1369 1.348 . S
C1366 H1404 0.929 . S
N1367 Li1322 1.990 . S
N1367 C1364 1.314 . S
N1367 C1365 1.279 . S
C1368 C1365 1.358 . S
C1368 C1369 1.356 . S
C1368 H1405 0.930 . S
C1369 C1366 1.348 . S
C1369 C1368 1.356 . S
H1370 C1364 0.930 . S
H1371 C1365 0.930 . S
C1372 N1373 1.314 . S
C1372 C1374 1.353 . S
C1372 H1378 0.930 . S
N1373 Li1323 1.990 . S
N1373 C1372 1.314 . S
N1373 C1376 1.279 . S
C1374 C1372 1.353 . S
C1374 C1377 1.348 . S
C1374 H1406 0.929 . S
C1375 C1376 1.358 . S
C1375 C1377 1.356 . S
C1375 H1407 0.930 . S
C1376 N1373 1.279 . S
C1376 C1375 1.358 . S
C1376 H1379 0.930 . S
C1377 C1374 1.348 . S
C1377 C1375 1.356 . S
H1378 C1372 0.930 . S
H1379 C1376 0.930 . S
O1380 Li1320 1.956 . S
O1380 Li1321 1.970 . S
O1380 Li1322 1.961 . S
O1380 C1324 1.325 . S
O1381 Li1320 1.970 . S
O1381 Li1321 1.956 . S
O1381 Li1323 1.961 . S
O1381 C1330 1.325 . S
O1382 Li1320 1.961 . S
O1382 Li1322 1.956 . S
O1382 Li1323 1.970 . S
O1382 C1352 1.325 . S
O1383 Li1321 1.961 . S
O1383 Li1322 1.970 . S
O1383 Li1323 1.956 . S
O1383 C1358 1.325 . S
H1384 C1326 0.929 . S
H1385 C1327 0.930 . S
H1386 C1328 0.930 . S
H1387 C1329 0.930 . S
H1388 C1331 0.930 . S
H1389 C1333 0.929 . S
H1390 C1334 0.930 . S
H1391 C1335 0.930 . S
H1392 C1338 0.930 . S
H1393 C1341 0.929 . S
H1394 C1346 0.929 . S
H1395 C1347 0.930 . S
H1396 C1354 0.929 . S
H1397 C1355 0.930 . S
H1398 C1356 0.930 . S
H1399 C1357 0.930 . S
H1400 C1359 0.929 . S
H1401 C1360 0.930 . S
H1402 C1361 0.930 1_565 S
H1403 C1362 0.930 . S
H1404 C1366 0.929 . S
H1405 C1368 0.930 . S
H1406 C1374 0.929 . S
H1407 C1375 0.930 . S
Li1408 N1425 1.990 . S
Li1408 O1468 1.956 . S
Li1408 O1469 1.970 . S
Li1408 O1470 1.961 . S
Li1409 N1433 1.990 . S
Li1409 O1468 1.970 . S
Li1409 O1469 1.956 . S
Li1409 O1471 1.961 . S
Li1410 N1455 1.990 . S
Li1410 O1468 1.961 . S
Li1410 O1470 1.956 . S
Li1410 O1471 1.970 . S
Li1411 N1461 1.990 . S
Li1411 O1469 1.961 . S
Li1411 O1470 1.970 . S
Li1411 O1471 1.956 . S
C1412 C1414 1.348 . S
C1412 C1415 1.356 . S
C1412 O1468 1.325 . S
N1413 C1416 1.314 . S
N1413 C1417 1.279 . S
C1414 C1412 1.348 . S
C1414 C1416 1.353 . S
C1414 H1472 0.929 . S
C1415 C1412 1.356 . S
C1415 C1417 1.358 . S
C1415 H1473 0.930 . S
C1416 N1413 1.314 . S
C1416 C1414 1.353 . S
C1416 H1474 0.930 . S
C1417 N1413 1.279 . S
C1417 C1415 1.358 . S
C1417 H1475 0.930 . S
C1418 C1421 1.348 . S
C1418 C1422 1.356 . S
C1418 O1469 1.325 . S
C1419 N1420 1.279 . S
C1419 C1422 1.358 . S
C1419 H1476 0.930 . S
N1420 C1419 1.279 . S
N1420 C1423 1.314 . S
C1421 C1418 1.348 . S
C1421 C1423 1.353 . S
C1421 H1477 0.929 . S
C1422 C1418 1.356 . S
C1422 C1419 1.358 . S
C1422 H1478 0.930 . S
C1423 N1420 1.314 . S
C1423 C1421 1.353 . S
C1423 H1479 0.930 . S
C1424 N1425 1.314 . S
C1424 C1429 1.353 . S
C1424 H1430 0.930 . S
N1425 Li1408 1.990 . S
N1425 C1424 1.314 . S
N1425 C1427 1.279 . S
C1426 C1427 1.358 . S
C1426 C1428 1.356 . S
C1426 H1480 0.930 . S
C1427 N1425 1.279 . S
C1427 C1426 1.358 . S
C1427 H1431 0.930 . S
C1428 C1426 1.356 . S
C1428 C1429 1.348 . S
C1429 C1424 1.353 . S
C1429 C1428 1.348 . S
C1429 H1481 0.929 . S
H1430 C1424 0.930 . S
H1431 C1427 0.930 . S
C1432 N1433 1.314 . S
C1432 C1434 1.353 . S
C1432 H1438 0.930 . S
N1433 Li1409 1.990 . S
N1433 C1432 1.314 . S
N1433 C1436 1.279 . S
C1434 C1432 1.353 . S
C1434 C1437 1.348 . S
C1434 H1482 0.929 . S
C1435 C1436 1.358 . S
C1435 C1437 1.356 . S
C1435 H1483 0.930 . S
C1436 N1433 1.279 . S
C1436 C1435 1.358 . S
C1436 H1439 0.930 . S
C1437 C1434 1.348 . S
C1437 C1435 1.356 . S
H1438 C1432 0.930 . S
H1439 C1436 0.930 . S
C1440 C1442 1.348 . S
C1440 C1443 1.356 . S
C1440 O1470 1.325 . S
N1441 C1444 1.314 . S
N1441 C1445 1.279 . S
C1442 C1440 1.348 . S
C1442 C1444 1.353 . S
C1442 H1484 0.929 . S
C1443 C1440 1.356 . S
C1443 C1445 1.358 . S
C1443 H1485 0.930 . S
C1444 N1441 1.314 . S
C1444 C1442 1.353 . S
C1444 H1486 0.930 . S
C1445 N1441 1.279 . S
C1445 C1443 1.358 . S
C1445 H1487 0.930 . S
C1446 C1447 1.348 . S
C1446 C1448 1.356 . S
C1446 O1471 1.325 . S
C1447 C1446 1.348 . S
C1447 C1449 1.353 . S
C1447 H1488 0.929 . S
C1448 C1446 1.356 . S
C1448 C1450 1.358 . S
C1448 H1489 0.930 . S
C1449 C1447 1.353 . S
C1449 N1451 1.314 . S
C1449 H1490 0.930 . S
C1450 C1448 1.358 . S
C1450 N1451 1.279 . S
C1450 H1491 0.930 . S
N1451 C1449 1.314 . S
N1451 C1450 1.279 . S
C1452 C1454 1.353 . S
C1452 N1455 1.314 . S
C1452 H1458 0.930 . S
C1453 N1455 1.279 . S
C1453 C1456 1.358 . S
C1453 H1459 0.930 . S
C1454 C1452 1.353 . S
C1454 C1457 1.348 . S
C1454 H1492 0.929 . S
N1455 Li1410 1.990 . S
N1455 C1452 1.314 . S
N1455 C1453 1.279 . S
C1456 C1453 1.358 . S
C1456 C1457 1.356 . S
C1456 H1493 0.930 . S
C1457 C1454 1.348 . S
C1457 C1456 1.356 . S
H1458 C1452 0.930 . S
H1459 C1453 0.930 . S
C1460 N1461 1.314 . S
C1460 C1462 1.353 . S
C1460 H1466 0.930 . S
N1461 Li1411 1.990 . S
N1461 C1460 1.314 . S
N1461 C1464 1.279 . S
C1462 C1460 1.353 . S
C1462 C1465 1.348 . S
C1462 H1494 0.929 . S
C1463 C1464 1.358 . S
C1463 C1465 1.356 . S
C1463 H1495 0.930 . S
C1464 N1461 1.279 . S
C1464 C1463 1.358 . S
C1464 H1467 0.930 . S
C1465 C1462 1.348 . S
C1465 C1463 1.356 . S
H1466 C1460 0.930 . S
H1467 C1464 0.930 . S
O1468 Li1408 1.956 . S
O1468 Li1409 1.970 . S
O1468 Li1410 1.961 . S
O1468 C1412 1.325 . S
O1469 Li1408 1.970 . S
O1469 Li1409 1.956 . S
O1469 Li1411 1.961 . S
O1469 C1418 1.325 . S
O1470 Li1408 1.961 . S
O1470 Li1410 1.956 . S
O1470 Li1411 1.970 . S
O1470 C1440 1.325 . S
O1471 Li1409 1.961 . S
O1471 Li1410 1.970 . S
O1471 Li1411 1.956 . S
O1471 C1446 1.325 . S
H1472 C1414 0.929 . S
H1473 C1415 0.930 . S
H1474 C1416 0.930 . S
H1475 C1417 0.930 . S
H1476 C1419 0.930 . S
H1477 C1421 0.929 . S
H1478 C1422 0.930 . S
H1479 C1423 0.930 . S
H1480 C1426 0.930 . S
H1481 C1429 0.929 . S
H1482 C1434 0.929 . S
H1483 C1435 0.930 . S
H1484 C1442 0.929 . S
H1485 C1443 0.930 . S
H1486 C1444 0.930 . S
H1487 C1445 0.930 . S
H1488 C1447 0.929 . S
H1489 C1448 0.930 . S
H1490 C1449 0.930 . S
H1491 C1450 0.930 . S
H1492 C1454 0.929 . S
H1493 C1456 0.930 . S
H1494 C1462 0.929 . S
H1495 C1463 0.930 . S
Li1496 N1513 1.990 . S
Li1496 O1556 1.956 . S
Li1496 O1557 1.970 . S
Li1496 O1558 1.961 . S
Li1497 N1521 1.990 . S
Li1497 O1556 1.970 . S
Li1497 O1557 1.956 . S
Li1497 O1559 1.961 . S
Li1498 N1543 1.990 . S
Li1498 O1556 1.961 . S
Li1498 O1558 1.956 . S
Li1498 O1559 1.970 . S
Li1499 N1549 1.990 . S
Li1499 O1557 1.961 . S
Li1499 O1558 1.970 . S
Li1499 O1559 1.956 . S
C1500 C1502 1.348 . S
C1500 C1503 1.356 . S
C1500 O1556 1.325 . S
N1501 C1504 1.314 . S
N1501 C1505 1.279 . S
C1502 C1500 1.348 . S
C1502 C1504 1.353 . S
C1502 H1560 0.929 . S
C1503 C1500 1.356 . S
C1503 C1505 1.358 . S
C1503 H1561 0.930 . S
C1504 N1501 1.314 . S
C1504 C1502 1.353 . S
C1504 H1562 0.930 . S
C1505 N1501 1.279 . S
C1505 C1503 1.358 . S
C1505 H1563 0.930 . S
C1506 C1509 1.348 . S
C1506 C1510 1.356 . S
C1506 O1557 1.325 . S
C1507 N1508 1.279 . S
C1507 C1510 1.358 . S
C1507 H1564 0.930 . S
N1508 C1507 1.279 . S
N1508 C1511 1.314 . S
C1509 C1506 1.348 . S
C1509 C1511 1.353 . S
C1509 H1565 0.929 . S
C1510 C1506 1.356 . S
C1510 C1507 1.358 . S
C1510 H1566 0.930 . S
C1511 N1508 1.314 . S
C1511 C1509 1.353 . S
C1511 H1567 0.930 1_545 S
C1512 N1513 1.314 . S
C1512 C1517 1.353 . S
C1512 H1518 0.930 . S
N1513 Li1496 1.990 . S
N1513 C1512 1.314 . S
N1513 C1515 1.279 . S
C1514 C1515 1.358 . S
C1514 C1516 1.356 . S
C1514 H1568 0.930 . S
C1515 N1513 1.279 . S
C1515 C1514 1.358 . S
C1515 H1519 0.930 . S
C1516 C1514 1.356 . S
C1516 C1517 1.348 . S
C1517 C1512 1.353 . S
C1517 C1516 1.348 . S
C1517 H1569 0.929 . S
H1518 C1512 0.930 . S
H1519 C1515 0.930 . S
C1520 N1521 1.314 . S
C1520 C1522 1.353 . S
C1520 H1526 0.930 . S
N1521 Li1497 1.990 . S
N1521 C1520 1.314 . S
N1521 C1524 1.279 . S
C1522 C1520 1.353 . S
C1522 C1525 1.348 . S
C1522 H1570 0.929 . S
C1523 C1524 1.358 . S
C1523 C1525 1.356 . S
C1523 H1571 0.930 . S
C1524 N1521 1.279 . S
C1524 C1523 1.358 . S
C1524 H1527 0.930 . S
C1525 C1522 1.348 . S
C1525 C1523 1.356 . S
H1526 C1520 0.930 . S
H1527 C1524 0.930 . S
C1528 C1530 1.348 . S
C1528 C1531 1.356 . S
C1528 O1558 1.325 . S
N1529 C1532 1.314 . S
N1529 C1533 1.279 . S
C1530 C1528 1.348 . S
C1530 C1532 1.353 . S
C1530 H1572 0.929 . S
C1531 C1528 1.356 . S
C1531 C1533 1.358 . S
C1531 H1573 0.930 . S
C1532 N1529 1.314 . S
C1532 C1530 1.353 . S
C1532 H1574 0.930 . S
C1533 N1529 1.279 . S
C1533 C1531 1.358 . S
C1533 H1575 0.930 . S
C1534 C1535 1.348 . S
C1534 C1536 1.356 . S
C1534 O1559 1.325 . S
C1535 C1534 1.348 . S
C1535 C1537 1.353 . S
C1535 H1576 0.929 . S
C1536 C1534 1.356 . S
C1536 C1538 1.358 . S
C1536 H1577 0.930 . S
C1537 C1535 1.353 . S
C1537 N1539 1.314 . S
C1537 H1578 0.930 . S
C1538 C1536 1.358 . S
C1538 N1539 1.279 . S
C1538 H1579 0.930 . S
N1539 C1537 1.314 . S
N1539 C1538 1.279 . S
C1540 C1542 1.353 . S
C1540 N1543 1.314 . S
C1540 H1546 0.930 . S
C1541 N1543 1.279 . S
C1541 C1544 1.358 . S
C1541 H1547 0.930 . S
C1542 C1540 1.353 . S
C1542 C1545 1.348 . S
C1542 H1580 0.929 . S
N1543 Li1498 1.990 . S
N1543 C1540 1.314 . S
N1543 C1541 1.279 . S
C1544 C1541 1.358 . S
C1544 C1545 1.356 . S
C1544 H1581 0.930 . S
C1545 C1542 1.348 . S
C1545 C1544 1.356 . S
H1546 C1540 0.930 . S
H1547 C1541 0.930 . S
C1548 N1549 1.314 . S
C1548 C1550 1.353 . S
C1548 H1554 0.930 . S
N1549 Li1499 1.990 . S
N1549 C1548 1.314 . S
N1549 C1552 1.279 . S
C1550 C1548 1.353 . S
C1550 C1553 1.348 . S
C1550 H1582 0.929 . S
C1551 C1552 1.358 . S
C1551 C1553 1.356 . S
C1551 H1583 0.930 . S
C1552 N1549 1.279 . S
C1552 C1551 1.358 . S
C1552 H1555 0.930 . S
C1553 C1550 1.348 . S
C1553 C1551 1.356 . S
H1554 C1548 0.930 . S
H1555 C1552 0.930 . S
O1556 Li1496 1.956 . S
O1556 Li1497 1.970 . S
O1556 Li1498 1.961 . S
O1556 C1500 1.325 . S
O1557 Li1496 1.970 . S
O1557 Li1497 1.956 . S
O1557 Li1499 1.961 . S
O1557 C1506 1.325 . S
O1558 Li1496 1.961 . S
O1558 Li1498 1.956 . S
O1558 Li1499 1.970 . S
O1558 C1528 1.325 . S
O1559 Li1497 1.961 . S
O1559 Li1498 1.970 . S
O1559 Li1499 1.956 . S
O1559 C1534 1.325 . S
H1560 C1502 0.929 . S
H1561 C1503 0.930 . S
H1562 C1504 0.930 . S
H1563 C1505 0.930 . S
H1564 C1507 0.930 . S
H1565 C1509 0.929 . S
H1566 C1510 0.930 . S
H1567 C1511 0.930 1_565 S
H1568 C1514 0.930 . S
H1569 C1517 0.929 . S
H1570 C1522 0.929 . S
H1571 C1523 0.930 . S
H1572 C1530 0.929 . S
H1573 C1531 0.930 . S
H1574 C1532 0.930 . S
H1575 C1533 0.930 . S
H1576 C1535 0.929 . S
H1577 C1536 0.930 . S
H1578 C1537 0.930 . S
H1579 C1538 0.930 . S
H1580 C1542 0.929 . S
H1581 C1544 0.930 . S
H1582 C1550 0.929 . S
H1583 C1551 0.930 . S
Li1584 N1601 1.990 . S
Li1584 O1644 1.956 . S
Li1584 O1645 1.970 . S
Li1584 O1646 1.961 . S
Li1585 N1609 1.990 . S
Li1585 O1644 1.970 . S
Li1585 O1645 1.956 . S
Li1585 O1647 1.961 . S
Li1586 N1631 1.990 . S
Li1586 O1644 1.961 . S
Li1586 O1646 1.956 . S
Li1586 O1647 1.970 . S
Li1587 N1637 1.990 . S
Li1587 O1645 1.961 . S
Li1587 O1646 1.970 . S
Li1587 O1647 1.956 . S
C1588 C1590 1.348 . S
C1588 C1591 1.356 . S
C1588 O1644 1.325 . S
N1589 C1592 1.314 . S
N1589 C1593 1.279 . S
C1590 C1588 1.348 . S
C1590 C1592 1.353 . S
C1590 H1648 0.929 . S
C1591 C1588 1.356 . S
C1591 C1593 1.358 . S
C1591 H1649 0.930 . S
C1592 N1589 1.314 . S
C1592 C1590 1.353 . S
C1592 H1650 0.930 . S
C1593 N1589 1.279 . S
C1593 C1591 1.358 . S
C1593 H1651 0.930 . S
C1594 C1597 1.348 . S
C1594 C1598 1.356 . S
C1594 O1645 1.325 . S
C1595 N1596 1.279 . S
C1595 C1598 1.358 . S
C1595 H1652 0.930 . S
N1596 C1595 1.279 . S
N1596 C1599 1.314 . S
C1597 C1594 1.348 . S
C1597 C1599 1.353 . S
C1597 H1653 0.929 . S
C1598 C1594 1.356 . S
C1598 C1595 1.358 . S
C1598 H1654 0.930 . S
C1599 N1596 1.314 . S
C1599 C1597 1.353 . S
C1599 H1655 0.930 . S
C1600 N1601 1.314 . S
C1600 C1605 1.353 . S
C1600 H1606 0.930 . S
N1601 Li1584 1.990 . S
N1601 C1600 1.314 . S
N1601 C1603 1.279 . S
C1602 C1603 1.358 . S
C1602 C1604 1.356 . S
C1602 H1656 0.930 . S
C1603 N1601 1.279 . S
C1603 C1602 1.358 . S
C1603 H1607 0.930 . S
C1604 C1602 1.356 . S
C1604 C1605 1.348 . S
C1605 C1600 1.353 . S
C1605 C1604 1.348 . S
C1605 H1657 0.929 . S
H1606 C1600 0.930 . S
H1607 C1603 0.930 . S
C1608 N1609 1.314 . S
C1608 C1610 1.353 . S
C1608 H1614 0.930 . S
N1609 Li1585 1.990 . S
N1609 C1608 1.314 . S
N1609 C1612 1.279 . S
C1610 C1608 1.353 . S
C1610 C1613 1.348 . S
C1610 H1658 0.929 . S
C1611 C1612 1.358 . S
C1611 C1613 1.356 . S
C1611 H1659 0.930 . S
C1612 N1609 1.279 . S
C1612 C1611 1.358 . S
C1612 H1615 0.930 . S
C1613 C1610 1.348 . S
C1613 C1611 1.356 . S
H1614 C1608 0.930 . S
H1615 C1612 0.930 . S
C1616 C1618 1.348 . S
C1616 C1619 1.356 . S
C1616 O1646 1.325 . S
N1617 C1620 1.314 . S
N1617 C1621 1.279 . S
C1618 C1616 1.348 . S
C1618 C1620 1.353 . S
C1618 H1660 0.929 . S
C1619 C1616 1.356 . S
C1619 C1621 1.358 . S
C1619 H1661 0.930 . S
C1620 N1617 1.314 . S
C1620 C1618 1.353 . S
C1620 H1662 0.930 . S
C1621 N1617 1.279 . S
C1621 C1619 1.358 . S
C1621 H1663 0.930 . S
C1622 C1623 1.348 . S
C1622 C1624 1.356 . S
C1622 O1647 1.325 . S
C1623 C1622 1.348 . S
C1623 C1625 1.353 . S
C1623 H1664 0.929 . S
C1624 C1622 1.356 . S
C1624 C1626 1.358 . S
C1624 H1665 0.930 . S
C1625 C1623 1.353 . S
C1625 N1627 1.314 . S
C1625 H1666 0.930 . S
C1626 C1624 1.358 . S
C1626 N1627 1.279 . S
C1626 H1667 0.930 . S
N1627 C1625 1.314 . S
N1627 C1626 1.279 . S
C1628 C1630 1.353 . S
C1628 N1631 1.314 . S
C1628 H1634 0.930 . S
C1629 N1631 1.279 . S
C1629 C1632 1.358 . S
C1629 H1635 0.930 . S
C1630 C1628 1.353 . S
C1630 C1633 1.348 . S
C1630 H1668 0.929 . S
N1631 Li1586 1.990 . S
N1631 C1628 1.314 . S
N1631 C1629 1.279 . S
C1632 C1629 1.358 . S
C1632 C1633 1.356 . S
C1632 H1669 0.930 . S
C1633 C1630 1.348 . S
C1633 C1632 1.356 . S
H1634 C1628 0.930 . S
H1635 C1629 0.930 . S
C1636 N1637 1.314 . S
C1636 C1638 1.353 . S
C1636 H1642 0.930 . S
N1637 Li1587 1.990 . S
N1637 C1636 1.314 . S
N1637 C1640 1.279 . S
C1638 C1636 1.353 . S
C1638 C1641 1.348 . S
C1638 H1670 0.929 . S
C1639 C1640 1.358 . S
C1639 C1641 1.356 . S
C1639 H1671 0.930 . S
C1640 N1637 1.279 . S
C1640 C1639 1.358 . S
C1640 H1643 0.930 . S
C1641 C1638 1.348 . S
C1641 C1639 1.356 . S
H1642 C1636 0.930 . S
H1643 C1640 0.930 . S
O1644 Li1584 1.956 . S
O1644 Li1585 1.970 . S
O1644 Li1586 1.961 . S
O1644 C1588 1.325 . S
O1645 Li1584 1.970 . S
O1645 Li1585 1.956 . S
O1645 Li1587 1.961 . S
O1645 C1594 1.325 . S
O1646 Li1584 1.961 . S
O1646 Li1586 1.956 . S
O1646 Li1587 1.970 . S
O1646 C1616 1.325 . S
O1647 Li1585 1.961 . S
O1647 Li1586 1.970 . S
O1647 Li1587 1.956 . S
O1647 C1622 1.325 . S
H1648 C1590 0.929 . S
H1649 C1591 0.930 . S
H1650 C1592 0.930 . S
H1651 C1593 0.930 . S
H1652 C1595 0.930 . S
H1653 C1597 0.929 . S
H1654 C1598 0.930 . S
H1655 C1599 0.930 . S
H1656 C1602 0.930 . S
H1657 C1605 0.929 . S
H1658 C1610 0.929 . S
H1659 C1611 0.930 . S
H1660 C1618 0.929 . S
H1661 C1619 0.930 . S
H1662 C1620 0.930 . S
H1663 C1621 0.930 . S
H1664 C1623 0.929 . S
H1665 C1624 0.930 . S
H1666 C1625 0.930 . S
H1667 C1626 0.930 . S
H1668 C1630 0.929 . S
H1669 C1632 0.930 . S
H1670 C1638 0.929 . S
H1671 C1639 0.930 . S
Li1672 N1689 1.990 . S
Li1672 O1732 1.956 . S
Li1672 O1733 1.970 . S
Li1672 O1734 1.961 . S
Li1673 N1697 1.990 . S
Li1673 O1732 1.970 . S
Li1673 O1733 1.956 . S
Li1673 O1735 1.961 . S
Li1674 N1719 1.990 . S
Li1674 O1732 1.961 . S
Li1674 O1734 1.956 . S
Li1674 O1735 1.970 . S
Li1675 N1725 1.990 . S
Li1675 O1733 1.961 . S
Li1675 O1734 1.970 . S
Li1675 O1735 1.956 . S
C1676 C1678 1.348 . S
C1676 C1679 1.356 . S
C1676 O1732 1.325 . S
N1677 C1680 1.314 . S
N1677 C1681 1.279 . S
C1678 C1676 1.348 . S
C1678 C1680 1.353 . S
C1678 H1736 0.929 . S
C1679 C1676 1.356 . S
C1679 C1681 1.358 . S
C1679 H1737 0.930 . S
C1680 N1677 1.314 . S
C1680 C1678 1.353 . S
C1680 H1738 0.930 1_565 S
C1681 N1677 1.279 . S
C1681 C1679 1.358 . S
C1681 H1739 0.930 . S
C1682 C1685 1.348 . S
C1682 C1686 1.356 . S
C1682 O1733 1.325 . S
C1683 N1684 1.279 . S
C1683 C1686 1.358 . S
C1683 H1740 0.930 . S
N1684 C1683 1.279 . S
N1684 C1687 1.314 . S
C1685 C1682 1.348 . S
C1685 C1687 1.353 . S
C1685 H1741 0.929 . S
C1686 C1682 1.356 . S
C1686 C1683 1.358 . S
C1686 H1742 0.930 . S
C1687 N1684 1.314 . S
C1687 C1685 1.353 . S
C1687 H1743 0.930 . S
C1688 N1689 1.314 . S
C1688 C1693 1.353 . S
C1688 H1694 0.930 . S
N1689 Li1672 1.990 . S
N1689 C1688 1.314 . S
N1689 C1691 1.279 . S
C1690 C1691 1.358 . S
C1690 C1692 1.356 . S
C1690 H1744 0.930 . S
C1691 N1689 1.279 . S
C1691 C1690 1.358 . S
C1691 H1695 0.930 . S
C1692 C1690 1.356 . S
C1692 C1693 1.348 . S
C1693 C1688 1.353 . S
C1693 C1692 1.348 . S
C1693 H1745 0.929 . S
H1694 C1688 0.930 . S
H1695 C1691 0.930 . S
C1696 N1697 1.314 . S
C1696 C1698 1.353 . S
C1696 H1702 0.930 . S
N1697 Li1673 1.990 . S
N1697 C1696 1.314 . S
N1697 C1700 1.279 . S
C1698 C1696 1.353 . S
C1698 C1701 1.348 . S
C1698 H1746 0.929 . S
C1699 C1700 1.358 . S
C1699 C1701 1.356 . S
C1699 H1747 0.930 . S
C1700 N1697 1.279 . S
C1700 C1699 1.358 . S
C1700 H1703 0.930 . S
C1701 C1698 1.348 . S
C1701 C1699 1.356 . S
H1702 C1696 0.930 . S
H1703 C1700 0.930 . S
C1704 C1706 1.348 . S
C1704 C1707 1.356 . S
C1704 O1734 1.325 . S
N1705 C1708 1.314 . S
N1705 C1709 1.279 . S
C1706 C1704 1.348 . S
C1706 C1708 1.353 . S
C1706 H1748 0.929 . S
C1707 C1704 1.356 . S
C1707 C1709 1.358 . S
C1707 H1749 0.930 . S
C1708 N1705 1.314 . S
C1708 C1706 1.353 . S
C1708 H1750 0.930 . S
C1709 N1705 1.279 . S
C1709 C1707 1.358 . S
C1709 H1751 0.930 1_554 S
C1710 C1711 1.348 . S
C1710 C1712 1.356 . S
C1710 O1735 1.325 . S
C1711 C1710 1.348 . S
C1711 C1713 1.353 . S
C1711 H1752 0.929 . S
C1712 C1710 1.356 . S
C1712 C1714 1.358 . S
C1712 H1753 0.930 . S
C1713 C1711 1.353 . S
C1713 N1715 1.314 . S
C1713 H1754 0.930 . S
C1714 C1712 1.358 . S
C1714 N1715 1.279 . S
C1714 H1755 0.930 . S
N1715 C1713 1.314 . S
N1715 C1714 1.279 . S
C1716 C1718 1.353 . S
C1716 N1719 1.314 . S
C1716 H1722 0.930 . S
C1717 N1719 1.279 . S
C1717 C1720 1.358 . S
C1717 H1723 0.930 . S
C1718 C1716 1.353 . S
C1718 C1721 1.348 . S
C1718 H1756 0.929 . S
N1719 Li1674 1.990 . S
N1719 C1716 1.314 . S
N1719 C1717 1.279 . S
C1720 C1717 1.358 . S
C1720 C1721 1.356 . S
C1720 H1757 0.930 . S
C1721 C1718 1.348 . S
C1721 C1720 1.356 . S
H1722 C1716 0.930 . S
H1723 C1717 0.930 . S
C1724 N1725 1.314 . S
C1724 C1726 1.353 . S
C1724 H1730 0.930 . S
N1725 Li1675 1.990 . S
N1725 C1724 1.314 . S
N1725 C1728 1.279 . S
C1726 C1724 1.353 . S
C1726 C1729 1.348 . S
C1726 H1758 0.929 . S
C1727 C1728 1.358 . S
C1727 C1729 1.356 . S
C1727 H1759 0.930 . S
C1728 N1725 1.279 . S
C1728 C1727 1.358 . S
C1728 H1731 0.930 . S
C1729 C1726 1.348 . S
C1729 C1727 1.356 . S
H1730 C1724 0.930 . S
H1731 C1728 0.930 . S
O1732 Li1672 1.956 . S
O1732 Li1673 1.970 . S
O1732 Li1674 1.961 . S
O1732 C1676 1.325 . S
O1733 Li1672 1.970 . S
O1733 Li1673 1.956 . S
O1733 Li1675 1.961 . S
O1733 C1682 1.325 . S
O1734 Li1672 1.961 . S
O1734 Li1674 1.956 . S
O1734 Li1675 1.970 . S
O1734 C1704 1.325 . S
O1735 Li1673 1.961 . S
O1735 Li1674 1.970 . S
O1735 Li1675 1.956 . S
O1735 C1710 1.325 . S
H1736 C1678 0.929 . S
H1737 C1679 0.930 . S
H1738 C1680 0.930 1_545 S
H1739 C1681 0.930 . S
H1740 C1683 0.930 . S
H1741 C1685 0.929 . S
H1742 C1686 0.930 . S
H1743 C1687 0.930 . S
H1744 C1690 0.930 . S
H1745 C1693 0.929 . S
H1746 C1698 0.929 . S
H1747 C1699 0.930 . S
H1748 C1706 0.929 . S
H1749 C1707 0.930 . S
H1750 C1708 0.930 . S
H1751 C1709 0.930 1_556 S
H1752 C1711 0.929 . S
H1753 C1712 0.930 . S
H1754 C1713 0.930 . S
H1755 C1714 0.930 . S
H1756 C1718 0.929 . S
H1757 C1720 0.930 . S
H1758 C1726 0.929 . S
H1759 C1727 0.930 . S
Li1760 N1777 1.990 . S
Li1760 O1820 1.956 . S
Li1760 O1821 1.970 . S
Li1760 O1822 1.961 . S
Li1761 N1785 1.990 . S
Li1761 O1820 1.970 . S
Li1761 O1821 1.956 . S
Li1761 O1823 1.961 . S
Li1762 N1807 1.990 . S
Li1762 O1820 1.961 . S
Li1762 O1822 1.956 . S
Li1762 O1823 1.970 . S
Li1763 N1813 1.990 . S
Li1763 O1821 1.961 . S
Li1763 O1822 1.970 . S
Li1763 O1823 1.956 . S
C1764 C1766 1.348 . S
C1764 C1767 1.356 . S
C1764 O1820 1.325 . S
N1765 C1768 1.314 . S
N1765 C1769 1.279 . S
C1766 C1764 1.348 . S
C1766 C1768 1.353 . S
C1766 H1824 0.929 . S
C1767 C1764 1.356 . S
C1767 C1769 1.358 . S
C1767 H1825 0.930 . S
C1768 N1765 1.314 . S
C1768 C1766 1.353 . S
C1768 H1826 0.930 . S
C1769 N1765 1.279 . S
C1769 C1767 1.358 . S
C1769 H1827 0.930 . S
C1770 C1773 1.348 . S
C1770 C1774 1.356 . S
C1770 O1821 1.325 . S
C1771 N1772 1.279 . S
C1771 C1774 1.358 . S
C1771 H1828 0.930 . S
N1772 C1771 1.279 . S
N1772 C1775 1.314 . S
C1773 C1770 1.348 . S
C1773 C1775 1.353 . S
C1773 H1829 0.929 . S
C1774 C1770 1.356 . S
C1774 C1771 1.358 . S
C1774 H1830 0.930 . S
C1775 N1772 1.314 . S
C1775 C1773 1.353 . S
C1775 H1831 0.930 . S
C1776 N1777 1.314 . S
C1776 C1781 1.353 . S
C1776 H1782 0.930 . S
N1777 Li1760 1.990 . S
N1777 C1776 1.314 . S
N1777 C1779 1.279 . S
C1778 C1779 1.358 . S
C1778 C1780 1.356 . S
C1778 H1832 0.930 . S
C1779 N1777 1.279 . S
C1779 C1778 1.358 . S
C1779 H1783 0.930 . S
C1780 C1778 1.356 . S
C1780 C1781 1.348 . S
C1781 C1776 1.353 . S
C1781 C1780 1.348 . S
C1781 H1833 0.929 . S
H1782 C1776 0.930 . S
H1783 C1779 0.930 . S
C1784 N1785 1.314 . S
C1784 C1786 1.353 . S
C1784 H1790 0.930 . S
N1785 Li1761 1.990 . S
N1785 C1784 1.314 . S
N1785 C1788 1.279 . S
C1786 C1784 1.353 . S
C1786 C1789 1.348 . S
C1786 H1834 0.929 . S
C1787 C1788 1.358 . S
C1787 C1789 1.356 . S
C1787 H1835 0.930 . S
C1788 N1785 1.279 . S
C1788 C1787 1.358 . S
C1788 H1791 0.930 . S
C1789 C1786 1.348 . S
C1789 C1787 1.356 . S
H1790 C1784 0.930 . S
H1791 C1788 0.930 . S
C1792 C1794 1.348 . S
C1792 C1795 1.356 . S
C1792 O1822 1.325 . S
N1793 C1796 1.314 . S
N1793 C1797 1.279 . S
C1794 C1792 1.348 . S
C1794 C1796 1.353 . S
C1794 H1836 0.929 . S
C1795 C1792 1.356 . S
C1795 C1797 1.358 . S
C1795 H1837 0.930 . S
C1796 N1793 1.314 . S
C1796 C1794 1.353 . S
C1796 H1838 0.930 . S
C1797 N1793 1.279 . S
C1797 C1795 1.358 . S
C1797 H1839 0.930 . S
C1798 C1799 1.348 . S
C1798 C1800 1.356 . S
C1798 O1823 1.325 . S
C1799 C1798 1.348 . S
C1799 C1801 1.353 . S
C1799 H1840 0.929 . S
C1800 C1798 1.356 . S
C1800 C1802 1.358 . S
C1800 H1841 0.930 . S
C1801 C1799 1.353 . S
C1801 N1803 1.314 . S
C1801 H1842 0.930 . S
C1802 C1800 1.358 . S
C1802 N1803 1.279 . S
C1802 H1843 0.930 . S
N1803 C1801 1.314 . S
N1803 C1802 1.279 . S
C1804 C1806 1.353 . S
C1804 N1807 1.314 . S
C1804 H1810 0.930 . S
C1805 N1807 1.279 . S
C1805 C1808 1.358 . S
C1805 H1811 0.930 . S
C1806 C1804 1.353 . S
C1806 C1809 1.348 . S
C1806 H1844 0.929 . S
N1807 Li1762 1.990 . S
N1807 C1804 1.314 . S
N1807 C1805 1.279 . S
C1808 C1805 1.358 . S
C1808 C1809 1.356 . S
C1808 H1845 0.930 . S
C1809 C1806 1.348 . S
C1809 C1808 1.356 . S
H1810 C1804 0.930 . S
H1811 C1805 0.930 . S
C1812 N1813 1.314 . S
C1812 C1814 1.353 . S
C1812 H1818 0.930 . S
N1813 Li1763 1.990 . S
N1813 C1812 1.314 . S
N1813 C1816 1.279 . S
C1814 C1812 1.353 . S
C1814 C1817 1.348 . S
C1814 H1846 0.929 . S
C1815 C1816 1.358 . S
C1815 C1817 1.356 . S
C1815 H1847 0.930 . S
C1816 N1813 1.279 . S
C1816 C1815 1.358 . S
C1816 H1819 0.930 . S
C1817 C1814 1.348 . S
C1817 C1815 1.356 . S
H1818 C1812 0.930 . S
H1819 C1816 0.930 . S
O1820 Li1760 1.956 . S
O1820 Li1761 1.970 . S
O1820 Li1762 1.961 . S
O1820 C1764 1.325 . S
O1821 Li1760 1.970 . S
O1821 Li1761 1.956 . S
O1821 Li1763 1.961 . S
O1821 C1770 1.325 . S
O1822 Li1760 1.961 . S
O1822 Li1762 1.956 . S
O1822 Li1763 1.970 . S
O1822 C1792 1.325 . S
O1823 Li1761 1.961 . S
O1823 Li1762 1.970 . S
O1823 Li1763 1.956 . S
O1823 C1798 1.325 . S
H1824 C1766 0.929 . S
H1825 C1767 0.930 . S
H1826 C1768 0.930 . S
H1827 C1769 0.930 . S
H1828 C1771 0.930 . S
H1829 C1773 0.929 . S
H1830 C1774 0.930 . S
H1831 C1775 0.930 . S
H1832 C1778 0.930 . S
H1833 C1781 0.929 . S
H1834 C1786 0.929 . S
H1835 C1787 0.930 . S
H1836 C1794 0.929 . S
H1837 C1795 0.930 . S
H1838 C1796 0.930 . S
H1839 C1797 0.930 . S
H1840 C1799 0.929 . S
H1841 C1800 0.930 . S
H1842 C1801 0.930 . S
H1843 C1802 0.930 . S
H1844 C1806 0.929 . S
H1845 C1808 0.930 . S
H1846 C1814 0.929 . S
H1847 C1815 0.930 . S
Li1848 N1865 1.990 . S
Li1848 O1908 1.956 . S
Li1848 O1909 1.970 . S
Li1848 O1910 1.961 . S
Li1849 N1873 1.990 . S
Li1849 O1908 1.970 . S
Li1849 O1909 1.956 . S
Li1849 O1911 1.961 . S
Li1850 N1895 1.990 . S
Li1850 O1908 1.961 . S
Li1850 O1910 1.956 . S
Li1850 O1911 1.970 . S
Li1851 N1901 1.990 . S
Li1851 O1909 1.961 . S
Li1851 O1910 1.970 . S
Li1851 O1911 1.956 . S
C1852 C1854 1.348 . S
C1852 C1855 1.356 . S
C1852 O1908 1.325 . S
N1853 C1856 1.314 . S
N1853 C1857 1.279 . S
C1854 C1852 1.348 . S
C1854 C1856 1.353 . S
C1854 H1912 0.929 . S
C1855 C1852 1.356 . S
C1855 C1857 1.358 . S
C1855 H1913 0.930 . S
C1856 N1853 1.314 . S
C1856 C1854 1.353 . S
C1856 H1914 0.930 . S
C1857 N1853 1.279 . S
C1857 C1855 1.358 . S
C1857 H1915 0.930 . S
C1858 C1861 1.348 . S
C1858 C1862 1.356 . S
C1858 O1909 1.325 . S
C1859 N1860 1.279 . S
C1859 C1862 1.358 . S
C1859 H1916 0.930 . S
N1860 C1859 1.279 . S
N1860 C1863 1.314 . S
C1861 C1858 1.348 . S
C1861 C1863 1.353 . S
C1861 H1917 0.929 . S
C1862 C1858 1.356 . S
C1862 C1859 1.358 . S
C1862 H1918 0.930 . S
C1863 N1860 1.314 . S
C1863 C1861 1.353 . S
C1863 H1919 0.930 . S
C1864 N1865 1.314 . S
C1864 C1869 1.353 . S
C1864 H1870 0.930 . S
N1865 Li1848 1.990 . S
N1865 C1864 1.314 . S
N1865 C1867 1.279 . S
C1866 C1867 1.358 . S
C1866 C1868 1.356 . S
C1866 H1920 0.930 . S
C1867 N1865 1.279 . S
C1867 C1866 1.358 . S
C1867 H1871 0.930 . S
C1868 C1866 1.356 . S
C1868 C1869 1.348 . S
C1869 C1864 1.353 . S
C1869 C1868 1.348 . S
C1869 H1921 0.929 . S
H1870 C1864 0.930 . S
H1871 C1867 0.930 . S
C1872 N1873 1.314 . S
C1872 C1874 1.353 . S
C1872 H1878 0.930 . S
N1873 Li1849 1.990 . S
N1873 C1872 1.314 . S
N1873 C1876 1.279 . S
C1874 C1872 1.353 . S
C1874 C1877 1.348 . S
C1874 H1922 0.929 . S
C1875 C1876 1.358 . S
C1875 C1877 1.356 . S
C1875 H1923 0.930 . S
C1876 N1873 1.279 . S
C1876 C1875 1.358 . S
C1876 H1879 0.930 . S
C1877 C1874 1.348 . S
C1877 C1875 1.356 . S
H1878 C1872 0.930 . S
H1879 C1876 0.930 . S
C1880 C1882 1.348 . S
C1880 C1883 1.356 . S
C1880 O1910 1.325 . S
N1881 C1884 1.314 . S
N1881 C1885 1.279 . S
C1882 C1880 1.348 . S
C1882 C1884 1.353 . S
C1882 H1924 0.929 . S
C1883 C1880 1.356 . S
C1883 C1885 1.358 . S
C1883 H1925 0.930 . S
C1884 N1881 1.314 . S
C1884 C1882 1.353 . S
C1884 H1926 0.930 . S
C1885 N1881 1.279 . S
C1885 C1883 1.358 . S
C1885 H1927 0.930 . S
C1886 C1887 1.348 . S
C1886 C1888 1.356 . S
C1886 O1911 1.325 . S
C1887 C1886 1.348 . S
C1887 C1889 1.353 . S
C1887 H1928 0.929 . S
C1888 C1886 1.356 . S
C1888 C1890 1.358 . S
C1888 H1929 0.930 . S
C1889 C1887 1.353 . S
C1889 N1891 1.314 . S
C1889 H1930 0.930 . S
C1890 C1888 1.358 . S
C1890 N1891 1.279 . S
C1890 H1931 0.930 1_554 S
N1891 C1889 1.314 . S
N1891 C1890 1.279 . S
C1892 C1894 1.353 . S
C1892 N1895 1.314 . S
C1892 H1898 0.930 . S
C1893 N1895 1.279 . S
C1893 C1896 1.358 . S
C1893 H1899 0.930 . S
C1894 C1892 1.353 . S
C1894 C1897 1.348 . S
C1894 H1932 0.929 . S
N1895 Li1850 1.990 . S
N1895 C1892 1.314 . S
N1895 C1893 1.279 . S
C1896 C1893 1.358 . S
C1896 C1897 1.356 . S
C1896 H1933 0.930 . S
C1897 C1894 1.348 . S
C1897 C1896 1.356 . S
H1898 C1892 0.930 . S
H1899 C1893 0.930 . S
C1900 N1901 1.314 . S
C1900 C1902 1.353 . S
C1900 H1906 0.930 . S
N1901 Li1851 1.990 . S
N1901 C1900 1.314 . S
N1901 C1904 1.279 . S
C1902 C1900 1.353 . S
C1902 C1905 1.348 . S
C1902 H1934 0.929 . S
C1903 C1904 1.358 . S
C1903 C1905 1.356 . S
C1903 H1935 0.930 . S
C1904 N1901 1.279 . S
C1904 C1903 1.358 . S
C1904 H1907 0.930 . S
C1905 C1902 1.348 . S
C1905 C1903 1.356 . S
H1906 C1900 0.930 . S
H1907 C1904 0.930 . S
O1908 Li1848 1.956 . S
O1908 Li1849 1.970 . S
O1908 Li1850 1.961 . S
O1908 C1852 1.325 . S
O1909 Li1848 1.970 . S
O1909 Li1849 1.956 . S
O1909 Li1851 1.961 . S
O1909 C1858 1.325 . S
O1910 Li1848 1.961 . S
O1910 Li1850 1.956 . S
O1910 Li1851 1.970 . S
O1910 C1880 1.325 . S
O1911 Li1849 1.961 . S
O1911 Li1850 1.970 . S
O1911 Li1851 1.956 . S
O1911 C1886 1.325 . S
H1912 C1854 0.929 . S
H1913 C1855 0.930 . S
H1914 C1856 0.930 . S
H1915 C1857 0.930 . S
H1916 C1859 0.930 . S
H1917 C1861 0.929 . S
H1918 C1862 0.930 . S
H1919 C1863 0.930 . S
H1920 C1866 0.930 . S
H1921 C1869 0.929 . S
H1922 C1874 0.929 . S
H1923 C1875 0.930 . S
H1924 C1882 0.929 . S
H1925 C1883 0.930 . S
H1926 C1884 0.930 . S
H1927 C1885 0.930 . S
H1928 C1887 0.929 . S
H1929 C1888 0.930 . S
H1930 C1889 0.930 . S
H1931 C1890 0.930 1_556 S
H1932 C1894 0.929 . S
H1933 C1896 0.930 . S
H1934 C1902 0.929 . S
H1935 C1903 0.930 . S
Li1936 N1953 1.990 . S
Li1936 O1996 1.956 . S
Li1936 O1997 1.970 . S
Li1936 O1998 1.961 . S
Li1937 N1961 1.990 . S
Li1937 O1996 1.970 . S
Li1937 O1997 1.956 . S
Li1937 O1999 1.961 . S
Li1938 N1983 1.990 . S
Li1938 O1996 1.961 . S
Li1938 O1998 1.956 . S
Li1938 O1999 1.970 . S
Li1939 N1989 1.990 . S
Li1939 O1997 1.961 . S
Li1939 O1998 1.970 . S
Li1939 O1999 1.956 . S
C1940 C1942 1.348 . S
C1940 C1943 1.356 . S
C1940 O1996 1.325 . S
N1941 C1944 1.314 . S
N1941 C1945 1.279 . S
C1942 C1940 1.348 . S
C1942 C1944 1.353 . S
C1942 H2000 0.929 . S
C1943 C1940 1.356 . S
C1943 C1945 1.358 . S
C1943 H2001 0.930 . S
C1944 N1941 1.314 . S
C1944 C1942 1.353 . S
C1944 H2002 0.930 . S
C1945 N1941 1.279 . S
C1945 C1943 1.358 . S
C1945 H2003 0.930 . S
C1946 C1949 1.348 . S
C1946 C1950 1.356 . S
C1946 O1997 1.325 . S
C1947 N1948 1.279 . S
C1947 C1950 1.358 . S
C1947 H2004 0.930 . S
N1948 C1947 1.279 . S
N1948 C1951 1.314 . S
C1949 C1946 1.348 . S
C1949 C1951 1.353 . S
C1949 H2005 0.929 . S
C1950 C1946 1.356 . S
C1950 C1947 1.358 . S
C1950 H2006 0.930 . S
C1951 N1948 1.314 . S
C1951 C1949 1.353 . S
C1951 H2007 0.930 . S
C1952 N1953 1.314 . S
C1952 C1957 1.353 . S
C1952 H1958 0.930 . S
N1953 Li1936 1.990 . S
N1953 C1952 1.314 . S
N1953 C1955 1.279 . S
C1954 C1955 1.358 . S
C1954 C1956 1.356 . S
C1954 H2008 0.930 . S
C1955 N1953 1.279 . S
C1955 C1954 1.358 . S
C1955 H1959 0.930 . S
C1956 C1954 1.356 . S
C1956 C1957 1.348 . S
C1957 C1952 1.353 . S
C1957 C1956 1.348 . S
C1957 H2009 0.929 . S
H1958 C1952 0.930 . S
H1959 C1955 0.930 . S
C1960 N1961 1.314 . S
C1960 C1962 1.353 . S
C1960 H1966 0.930 . S
N1961 Li1937 1.990 . S
N1961 C1960 1.314 . S
N1961 C1964 1.279 . S
C1962 C1960 1.353 . S
C1962 C1965 1.348 . S
C1962 H2010 0.929 . S
C1963 C1964 1.358 . S
C1963 C1965 1.356 . S
C1963 H2011 0.930 . S
C1964 N1961 1.279 . S
C1964 C1963 1.358 . S
C1964 H1967 0.930 . S
C1965 C1962 1.348 . S
C1965 C1963 1.356 . S
H1966 C1960 0.930 . S
H1967 C1964 0.930 . S
C1968 C1970 1.348 . S
C1968 C1971 1.356 . S
C1968 O1998 1.325 . S
N1969 C1972 1.314 . S
N1969 C1973 1.279 . S
C1970 C1968 1.348 . S
C1970 C1972 1.353 . S
C1970 H2012 0.929 . S
C1971 C1968 1.356 . S
C1971 C1973 1.358 . S
C1971 H2013 0.930 . S
C1972 N1969 1.314 . S
C1972 C1970 1.353 . S
C1972 H2014 0.930 . S
C1973 N1969 1.279 . S
C1973 C1971 1.358 . S
C1973 H2015 0.930 . S
C1974 C1975 1.348 . S
C1974 C1976 1.356 . S
C1974 O1999 1.325 . S
C1975 C1974 1.348 . S
C1975 C1977 1.353 . S
C1975 H2016 0.929 . S
C1976 C1974 1.356 . S
C1976 C1978 1.358 . S
C1976 H2017 0.930 . S
C1977 C1975 1.353 . S
C1977 N1979 1.314 . S
C1977 H2018 0.930 . S
C1978 C1976 1.358 . S
C1978 N1979 1.279 . S
C1978 H2019 0.930 . S
N1979 C1977 1.314 . S
N1979 C1978 1.279 . S
C1980 C1982 1.353 . S
C1980 N1983 1.314 . S
C1980 H1986 0.930 . S
C1981 N1983 1.279 . S
C1981 C1984 1.358 . S
C1981 H1987 0.930 . S
C1982 C1980 1.353 . S
C1982 C1985 1.348 . S
C1982 H2020 0.929 . S
N1983 Li1938 1.990 . S
N1983 C1980 1.314 . S
N1983 C1981 1.279 . S
C1984 C1981 1.358 . S
C1984 C1985 1.356 . S
C1984 H2021 0.930 . S
C1985 C1982 1.348 . S
C1985 C1984 1.356 . S
H1986 C1980 0.930 . S
H1987 C1981 0.930 . S
C1988 N1989 1.314 . S
C1988 C1990 1.353 . S
C1988 H1994 0.930 . S
N1989 Li1939 1.990 . S
N1989 C1988 1.314 . S
N1989 C1992 1.279 . S
C1990 C1988 1.353 . S
C1990 C1993 1.348 . S
C1990 H2022 0.929 . S
C1991 C1992 1.358 . S
C1991 C1993 1.356 . S
C1991 H2023 0.930 . S
C1992 N1989 1.279 . S
C1992 C1991 1.358 . S
C1992 H1995 0.930 . S
C1993 C1990 1.348 . S
C1993 C1991 1.356 . S
H1994 C1988 0.930 . S
H1995 C1992 0.930 . S
O1996 Li1936 1.956 . S
O1996 Li1937 1.970 . S
O1996 Li1938 1.961 . S
O1996 C1940 1.325 . S
O1997 Li1936 1.970 . S
O1997 Li1937 1.956 . S
O1997 Li1939 1.961 . S
O1997 C1946 1.325 . S
O1998 Li1936 1.961 . S
O1998 Li1938 1.956 . S
O1998 Li1939 1.970 . S
O1998 C1968 1.325 . S
O1999 Li1937 1.961 . S
O1999 Li1938 1.970 . S
O1999 Li1939 1.956 . S
O1999 C1974 1.325 . S
H2000 C1942 0.929 . S
H2001 C1943 0.930 . S
H2002 C1944 0.930 . S
H2003 C1945 0.930 . S
H2004 C1947 0.930 . S
H2005 C1949 0.929 . S
H2006 C1950 0.930 . S
H2007 C1951 0.930 . S
H2008 C1954 0.930 . S
H2009 C1957 0.929 . S
H2010 C1962 0.929 . S
H2011 C1963 0.930 . S
H2012 C1970 0.929 . S
H2013 C1971 0.930 . S
H2014 C1972 0.930 . S
H2015 C1973 0.930 . S
H2016 C1975 0.929 . S
H2017 C1976 0.930 . S
H2018 C1977 0.930 . S
H2019 C1978 0.930 . S
H2020 C1982 0.929 . S
H2021 C1984 0.930 . S
H2022 C1990 0.929 . S
H2023 C1991 0.930 . S
Li2024 N2041 1.990 . S
Li2024 O2084 1.956 . S
Li2024 O2085 1.970 . S
Li2024 O2086 1.961 . S
Li2025 N2049 1.990 . S
Li2025 O2084 1.970 . S
Li2025 O2085 1.956 . S
Li2025 O2087 1.961 . S
Li2026 N2071 1.990 . S
Li2026 O2084 1.961 . S
Li2026 O2086 1.956 . S
Li2026 O2087 1.970 . S
Li2027 N2077 1.990 . S
Li2027 O2085 1.961 . S
Li2027 O2086 1.970 . S
Li2027 O2087 1.956 . S
C2028 C2030 1.348 . S
C2028 C2031 1.356 . S
C2028 O2084 1.325 . S
N2029 C2032 1.314 . S
N2029 C2033 1.279 . S
C2030 C2028 1.348 . S
C2030 C2032 1.353 . S
C2030 H2088 0.929 . S
C2031 C2028 1.356 . S
C2031 C2033 1.358 . S
C2031 H2089 0.930 . S
C2032 N2029 1.314 . S
C2032 C2030 1.353 . S
C2032 H2090 0.930 . S
C2033 N2029 1.279 . S
C2033 C2031 1.358 . S
C2033 H2091 0.930 . S
C2034 C2037 1.348 . S
C2034 C2038 1.356 . S
C2034 O2085 1.325 . S
C2035 N2036 1.279 . S
C2035 C2038 1.358 . S
C2035 H2092 0.930 . S
N2036 C2035 1.279 . S
N2036 C2039 1.314 . S
C2037 C2034 1.348 . S
C2037 C2039 1.353 . S
C2037 H2093 0.929 . S
C2038 C2034 1.356 . S
C2038 C2035 1.358 . S
C2038 H2094 0.930 . S
C2039 N2036 1.314 . S
C2039 C2037 1.353 . S
C2039 H2095 0.930 . S
C2040 N2041 1.314 . S
C2040 C2045 1.353 . S
C2040 H2046 0.930 . S
N2041 Li2024 1.990 . S
N2041 C2040 1.314 . S
N2041 C2043 1.279 . S
C2042 C2043 1.358 . S
C2042 C2044 1.356 . S
C2042 H2096 0.930 . S
C2043 N2041 1.279 . S
C2043 C2042 1.358 . S
C2043 H2047 0.930 . S
C2044 C2042 1.356 . S
C2044 C2045 1.348 . S
C2045 C2040 1.353 . S
C2045 C2044 1.348 . S
C2045 H2097 0.929 . S
H2046 C2040 0.930 . S
H2047 C2043 0.930 . S
C2048 N2049 1.314 . S
C2048 C2050 1.353 . S
C2048 H2054 0.930 . S
N2049 Li2025 1.990 . S
N2049 C2048 1.314 . S
N2049 C2052 1.279 . S
C2050 C2048 1.353 . S
C2050 C2053 1.348 . S
C2050 H2098 0.929 . S
C2051 C2052 1.358 . S
C2051 C2053 1.356 . S
C2051 H2099 0.930 . S
C2052 N2049 1.279 . S
C2052 C2051 1.358 . S
C2052 H2055 0.930 . S
C2053 C2050 1.348 . S
C2053 C2051 1.356 . S
H2054 C2048 0.930 . S
H2055 C2052 0.930 . S
C2056 C2058 1.348 . S
C2056 C2059 1.356 . S
C2056 O2086 1.325 . S
N2057 C2060 1.314 . S
N2057 C2061 1.279 . S
C2058 C2056 1.348 . S
C2058 C2060 1.353 . S
C2058 H2100 0.929 . S
C2059 C2056 1.356 . S
C2059 C2061 1.358 . S
C2059 H2101 0.930 . S
C2060 N2057 1.314 . S
C2060 C2058 1.353 . S
C2060 H2102 0.930 . S
C2061 N2057 1.279 . S
C2061 C2059 1.358 . S
C2061 H2103 0.930 . S
C2062 C2063 1.348 . S
C2062 C2064 1.356 . S
C2062 O2087 1.325 . S
C2063 C2062 1.348 . S
C2063 C2065 1.353 . S
C2063 H2104 0.929 . S
C2064 C2062 1.356 . S
C2064 C2066 1.358 . S
C2064 H2105 0.930 . S
C2065 C2063 1.353 . S
C2065 N2067 1.314 . S
C2065 H2106 0.930 . S
C2066 C2064 1.358 . S
C2066 N2067 1.279 . S
C2066 H2107 0.930 . S
N2067 C2065 1.314 . S
N2067 C2066 1.279 . S
C2068 C2070 1.353 . S
C2068 N2071 1.314 . S
C2068 H2074 0.930 . S
C2069 N2071 1.279 . S
C2069 C2072 1.358 . S
C2069 H2075 0.930 . S
C2070 C2068 1.353 . S
C2070 C2073 1.348 . S
C2070 H2108 0.929 . S
N2071 Li2026 1.990 . S
N2071 C2068 1.314 . S
N2071 C2069 1.279 . S
C2072 C2069 1.358 . S
C2072 C2073 1.356 . S
C2072 H2109 0.930 . S
C2073 C2070 1.348 . S
C2073 C2072 1.356 . S
H2074 C2068 0.930 . S
H2075 C2069 0.930 . S
C2076 N2077 1.314 . S
C2076 C2078 1.353 . S
C2076 H2082 0.930 . S
N2077 Li2027 1.990 . S
N2077 C2076 1.314 . S
N2077 C2080 1.279 . S
C2078 C2076 1.353 . S
C2078 C2081 1.348 . S
C2078 H2110 0.929 . S
C2079 C2080 1.358 . S
C2079 C2081 1.356 . S
C2079 H2111 0.930 . S
C2080 N2077 1.279 . S
C2080 C2079 1.358 . S
C2080 H2083 0.930 . S
C2081 C2078 1.348 . S
C2081 C2079 1.356 . S
H2082 C2076 0.930 . S
H2083 C2080 0.930 . S
O2084 Li2024 1.956 . S
O2084 Li2025 1.970 . S
O2084 Li2026 1.961 . S
O2084 C2028 1.325 . S
O2085 Li2024 1.970 . S
O2085 Li2025 1.956 . S
O2085 Li2027 1.961 . S
O2085 C2034 1.325 . S
O2086 Li2024 1.961 . S
O2086 Li2026 1.956 . S
O2086 Li2027 1.970 . S
O2086 C2056 1.325 . S
O2087 Li2025 1.961 . S
O2087 Li2026 1.970 . S
O2087 Li2027 1.956 . S
O2087 C2062 1.325 . S
H2088 C2030 0.929 . S
H2089 C2031 0.930 . S
H2090 C2032 0.930 . S
H2091 C2033 0.930 . S
H2092 C2035 0.930 . S
H2093 C2037 0.929 . S
H2094 C2038 0.930 . S
H2095 C2039 0.930 . S
H2096 C2042 0.930 . S
H2097 C2045 0.929 . S
H2098 C2050 0.929 . S
H2099 C2051 0.930 . S
H2100 C2058 0.929 . S
H2101 C2059 0.930 . S
H2102 C2060 0.930 . S
H2103 C2061 0.930 . S
H2104 C2063 0.929 . S
H2105 C2064 0.930 . S
H2106 C2065 0.930 . S
H2107 C2066 0.930 . S
H2108 C2070 0.929 . S
H2109 C2072 0.930 . S
H2110 C2078 0.929 . S
H2111 C2079 0.930 . S
Li2112 N2129 1.990 . S
Li2112 O2172 1.956 . S
Li2112 O2173 1.970 . S
Li2112 O2174 1.961 . S
Li2113 N2137 1.990 . S
Li2113 O2172 1.970 . S
Li2113 O2173 1.956 . S
Li2113 O2175 1.961 . S
Li2114 N2159 1.990 . S
Li2114 O2172 1.961 . S
Li2114 O2174 1.956 . S
Li2114 O2175 1.970 . S
Li2115 N2165 1.990 . S
Li2115 O2173 1.961 . S
Li2115 O2174 1.970 . S
Li2115 O2175 1.956 . S
C2116 C2118 1.348 . S
C2116 C2119 1.356 . S
C2116 O2172 1.325 . S
N2117 C2120 1.314 . S
N2117 C2121 1.279 . S
C2118 C2116 1.348 . S
C2118 C2120 1.353 . S
C2118 H2176 0.929 . S
C2119 C2116 1.356 . S
C2119 C2121 1.358 . S
C2119 H2177 0.930 . S
C2120 N2117 1.314 . S
C2120 C2118 1.353 . S
C2120 H2178 0.930 . S
C2121 N2117 1.279 . S
C2121 C2119 1.358 . S
C2121 H2179 0.930 . S
C2122 C2125 1.348 . S
C2122 C2126 1.356 . S
C2122 O2173 1.325 . S
C2123 N2124 1.279 . S
C2123 C2126 1.358 . S
C2123 H2180 0.930 . S
N2124 C2123 1.279 . S
N2124 C2127 1.314 . S
C2125 C2122 1.348 . S
C2125 C2127 1.353 . S
C2125 H2181 0.929 . S
C2126 C2122 1.356 . S
C2126 C2123 1.358 . S
C2126 H2182 0.930 . S
C2127 N2124 1.314 . S
C2127 C2125 1.353 . S
C2127 H2183 0.930 . S
C2128 N2129 1.314 . S
C2128 C2133 1.353 . S
C2128 H2134 0.930 . S
N2129 Li2112 1.990 . S
N2129 C2128 1.314 . S
N2129 C2131 1.279 . S
C2130 C2131 1.358 . S
C2130 C2132 1.356 . S
C2130 H2184 0.930 . S
C2131 N2129 1.279 . S
C2131 C2130 1.358 . S
C2131 H2135 0.930 . S
C2132 C2130 1.356 . S
C2132 C2133 1.348 . S
C2133 C2128 1.353 . S
C2133 C2132 1.348 . S
C2133 H2185 0.929 . S
H2134 C2128 0.930 . S
H2135 C2131 0.930 . S
C2136 N2137 1.314 . S
C2136 C2138 1.353 . S
C2136 H2142 0.930 . S
N2137 Li2113 1.990 . S
N2137 C2136 1.314 . S
N2137 C2140 1.279 . S
C2138 C2136 1.353 . S
C2138 C2141 1.348 . S
C2138 H2186 0.929 . S
C2139 C2140 1.358 . S
C2139 C2141 1.356 . S
C2139 H2187 0.930 . S
C2140 N2137 1.279 . S
C2140 C2139 1.358 . S
C2140 H2143 0.930 . S
C2141 C2138 1.348 . S
C2141 C2139 1.356 . S
H2142 C2136 0.930 . S
H2143 C2140 0.930 . S
C2144 C2146 1.348 . S
C2144 C2147 1.356 . S
C2144 O2174 1.325 . S
N2145 C2148 1.314 . S
N2145 C2149 1.279 . S
C2146 C2144 1.348 . S
C2146 C2148 1.353 . S
C2146 H2188 0.929 . S
C2147 C2144 1.356 . S
C2147 C2149 1.358 . S
C2147 H2189 0.930 . S
C2148 N2145 1.314 . S
C2148 C2146 1.353 . S
C2148 H2190 0.930 . S
C2149 N2145 1.279 . S
C2149 C2147 1.358 . S
C2149 H2191 0.930 . S
C2150 C2151 1.348 . S
C2150 C2152 1.356 . S
C2150 O2175 1.325 . S
C2151 C2150 1.348 . S
C2151 C2153 1.353 . S
C2151 H2192 0.929 . S
C2152 C2150 1.356 . S
C2152 C2154 1.358 . S
C2152 H2193 0.930 . S
C2153 C2151 1.353 . S
C2153 N2155 1.314 . S
C2153 H2194 0.930 . S
C2154 C2152 1.358 . S
C2154 N2155 1.279 . S
C2154 H2195 0.930 . S
N2155 C2153 1.314 . S
N2155 C2154 1.279 . S
C2156 C2158 1.353 . S
C2156 N2159 1.314 . S
C2156 H2162 0.930 . S
C2157 N2159 1.279 . S
C2157 C2160 1.358 . S
C2157 H2163 0.930 . S
C2158 C2156 1.353 . S
C2158 C2161 1.348 . S
C2158 H2196 0.929 . S
N2159 Li2114 1.990 . S
N2159 C2156 1.314 . S
N2159 C2157 1.279 . S
C2160 C2157 1.358 . S
C2160 C2161 1.356 . S
C2160 H2197 0.930 . S
C2161 C2158 1.348 . S
C2161 C2160 1.356 . S
H2162 C2156 0.930 . S
H2163 C2157 0.930 . S
C2164 N2165 1.314 . S
C2164 C2166 1.353 . S
C2164 H2170 0.930 . S
N2165 Li2115 1.990 . S
N2165 C2164 1.314 . S
N2165 C2168 1.279 . S
C2166 C2164 1.353 . S
C2166 C2169 1.348 . S
C2166 H2198 0.929 . S
C2167 C2168 1.358 . S
C2167 C2169 1.356 . S
C2167 H2199 0.930 . S
C2168 N2165 1.279 . S
C2168 C2167 1.358 . S
C2168 H2171 0.930 . S
C2169 C2166 1.348 . S
C2169 C2167 1.356 . S
H2170 C2164 0.930 . S
H2171 C2168 0.930 . S
O2172 Li2112 1.956 . S
O2172 Li2113 1.970 . S
O2172 Li2114 1.961 . S
O2172 C2116 1.325 . S
O2173 Li2112 1.970 . S
O2173 Li2113 1.956 . S
O2173 Li2115 1.961 . S
O2173 C2122 1.325 . S
O2174 Li2112 1.961 . S
O2174 Li2114 1.956 . S
O2174 Li2115 1.970 . S
O2174 C2144 1.325 . S
O2175 Li2113 1.961 . S
O2175 Li2114 1.970 . S
O2175 Li2115 1.956 . S
O2175 C2150 1.325 . S
H2176 C2118 0.929 . S
H2177 C2119 0.930 . S
H2178 C2120 0.930 . S
H2179 C2121 0.930 . S
H2180 C2123 0.930 . S
H2181 C2125 0.929 . S
H2182 C2126 0.930 . S
H2183 C2127 0.930 . S
H2184 C2130 0.930 . S
H2185 C2133 0.929 . S
H2186 C2138 0.929 . S
H2187 C2139 0.930 . S
H2188 C2146 0.929 . S
H2189 C2147 0.930 . S
H2190 C2148 0.930 . S
H2191 C2149 0.930 . S
H2192 C2151 0.929 . S
H2193 C2152 0.930 . S
H2194 C2153 0.930 . S
H2195 C2154 0.930 . S
H2196 C2158 0.929 . S
H2197 C2160 0.930 . S
H2198 C2166 0.929 . S
H2199 C2167 0.930 . S
Li2200 N2217 1.990 . S
Li2200 O2260 1.956 . S
Li2200 O2261 1.970 . S
Li2200 O2262 1.961 . S
Li2201 N2225 1.990 . S
Li2201 O2260 1.970 . S
Li2201 O2261 1.956 . S
Li2201 O2263 1.961 . S
Li2202 N2247 1.990 . S
Li2202 O2260 1.961 . S
Li2202 O2262 1.956 . S
Li2202 O2263 1.970 . S
Li2203 N2253 1.990 . S
Li2203 O2261 1.961 . S
Li2203 O2262 1.970 . S
Li2203 O2263 1.956 . S
C2204 C2206 1.348 . S
C2204 C2207 1.356 . S
C2204 O2260 1.325 . S
N2205 C2208 1.314 . S
N2205 C2209 1.279 . S
C2206 C2204 1.348 . S
C2206 C2208 1.353 . S
C2206 H2264 0.929 . S
C2207 C2204 1.356 . S
C2207 C2209 1.358 . S
C2207 H2265 0.930 . S
C2208 N2205 1.314 . S
C2208 C2206 1.353 . S
C2208 H2266 0.930 . S
C2209 N2205 1.279 . S
C2209 C2207 1.358 . S
C2209 H2267 0.930 . S
C2210 C2213 1.348 . S
C2210 C2214 1.356 . S
C2210 O2261 1.325 . S
C2211 N2212 1.279 . S
C2211 C2214 1.358 . S
C2211 H2268 0.930 . S
N2212 C2211 1.279 . S
N2212 C2215 1.314 . S
C2213 C2210 1.348 . S
C2213 C2215 1.353 . S
C2213 H2269 0.929 . S
C2214 C2210 1.356 . S
C2214 C2211 1.358 . S
C2214 H2270 0.930 . S
C2215 N2212 1.314 . S
C2215 C2213 1.353 . S
C2215 H2271 0.930 . S
C2216 N2217 1.314 . S
C2216 C2221 1.353 . S
C2216 H2222 0.930 . S
N2217 Li2200 1.990 . S
N2217 C2216 1.314 . S
N2217 C2219 1.279 . S
C2218 C2219 1.358 . S
C2218 C2220 1.356 . S
C2218 H2272 0.930 . S
C2219 N2217 1.279 . S
C2219 C2218 1.358 . S
C2219 H2223 0.930 . S
C2220 C2218 1.356 . S
C2220 C2221 1.348 . S
C2221 C2216 1.353 . S
C2221 C2220 1.348 . S
C2221 H2273 0.929 . S
H2222 C2216 0.930 . S
H2223 C2219 0.930 . S
C2224 N2225 1.314 . S
C2224 C2226 1.353 . S
C2224 H2230 0.930 . S
N2225 Li2201 1.990 . S
N2225 C2224 1.314 . S
N2225 C2228 1.279 . S
C2226 C2224 1.353 . S
C2226 C2229 1.348 . S
C2226 H2274 0.929 . S
C2227 C2228 1.358 . S
C2227 C2229 1.356 . S
C2227 H2275 0.930 . S
C2228 N2225 1.279 . S
C2228 C2227 1.358 . S
C2228 H2231 0.930 . S
C2229 C2226 1.348 . S
C2229 C2227 1.356 . S
H2230 C2224 0.930 . S
H2231 C2228 0.930 . S
C2232 C2234 1.348 . S
C2232 C2235 1.356 . S
C2232 O2262 1.325 . S
N2233 C2236 1.314 . S
N2233 C2237 1.279 . S
C2234 C2232 1.348 . S
C2234 C2236 1.353 . S
C2234 H2276 0.929 . S
C2235 C2232 1.356 . S
C2235 C2237 1.358 . S
C2235 H2277 0.930 . S
C2236 N2233 1.314 . S
C2236 C2234 1.353 . S
C2236 H2278 0.930 . S
C2237 N2233 1.279 . S
C2237 C2235 1.358 . S
C2237 H2279 0.930 . S
C2238 C2239 1.348 . S
C2238 C2240 1.356 . S
C2238 O2263 1.325 . S
C2239 C2238 1.348 . S
C2239 C2241 1.353 . S
C2239 H2280 0.929 . S
C2240 C2238 1.356 . S
C2240 C2242 1.358 . S
C2240 H2281 0.930 . S
C2241 C2239 1.353 . S
C2241 N2243 1.314 . S
C2241 H2282 0.930 . S
C2242 C2240 1.358 . S
C2242 N2243 1.279 . S
C2242 H2283 0.930 . S
N2243 C2241 1.314 . S
N2243 C2242 1.279 . S
C2244 C2246 1.353 . S
C2244 N2247 1.314 . S
C2244 H2250 0.930 . S
C2245 N2247 1.279 . S
C2245 C2248 1.358 . S
C2245 H2251 0.930 . S
C2246 C2244 1.353 . S
C2246 C2249 1.348 . S
C2246 H2284 0.929 . S
N2247 Li2202 1.990 . S
N2247 C2244 1.314 . S
N2247 C2245 1.279 . S
C2248 C2245 1.358 . S
C2248 C2249 1.356 . S
C2248 H2285 0.930 . S
C2249 C2246 1.348 . S
C2249 C2248 1.356 . S
H2250 C2244 0.930 . S
H2251 C2245 0.930 . S
C2252 N2253 1.314 . S
C2252 C2254 1.353 . S
C2252 H2258 0.930 . S
N2253 Li2203 1.990 . S
N2253 C2252 1.314 . S
N2253 C2256 1.279 . S
C2254 C2252 1.353 . S
C2254 C2257 1.348 . S
C2254 H2286 0.929 . S
C2255 C2256 1.358 . S
C2255 C2257 1.356 . S
C2255 H2287 0.930 . S
C2256 N2253 1.279 . S
C2256 C2255 1.358 . S
C2256 H2259 0.930 . S
C2257 C2254 1.348 . S
C2257 C2255 1.356 . S
H2258 C2252 0.930 . S
H2259 C2256 0.930 . S
O2260 Li2200 1.956 . S
O2260 Li2201 1.970 . S
O2260 Li2202 1.961 . S
O2260 C2204 1.325 . S
O2261 Li2200 1.970 . S
O2261 Li2201 1.956 . S
O2261 Li2203 1.961 . S
O2261 C2210 1.325 . S
O2262 Li2200 1.961 . S
O2262 Li2202 1.956 . S
O2262 Li2203 1.970 . S
O2262 C2232 1.325 . S
O2263 Li2201 1.961 . S
O2263 Li2202 1.970 . S
O2263 Li2203 1.956 . S
O2263 C2238 1.325 . S
H2264 C2206 0.929 . S
H2265 C2207 0.930 . S
H2266 C2208 0.930 . S
H2267 C2209 0.930 . S
H2268 C2211 0.930 . S
H2269 C2213 0.929 . S
H2270 C2214 0.930 . S
H2271 C2215 0.930 . S
H2272 C2218 0.930 . S
H2273 C2221 0.929 . S
H2274 C2226 0.929 . S
H2275 C2227 0.930 . S
H2276 C2234 0.929 . S
H2277 C2235 0.930 . S
H2278 C2236 0.930 . S
H2279 C2237 0.930 . S
H2280 C2239 0.929 . S
H2281 C2240 0.930 . S
H2282 C2241 0.930 . S
H2283 C2242 0.930 . S
H2284 C2246 0.929 . S
H2285 C2248 0.930 . S
H2286 C2254 0.929 . S
H2287 C2255 0.930 . S
Li2288 N2305 1.990 . S
Li2288 O2348 1.956 . S
Li2288 O2349 1.970 . S
Li2288 O2350 1.961 . S
Li2289 N2313 1.990 . S
Li2289 O2348 1.970 . S
Li2289 O2349 1.956 . S
Li2289 O2351 1.961 . S
Li2290 N2335 1.990 . S
Li2290 O2348 1.961 . S
Li2290 O2350 1.956 . S
Li2290 O2351 1.970 . S
Li2291 N2341 1.990 . S
Li2291 O2349 1.961 . S
Li2291 O2350 1.970 . S
Li2291 O2351 1.956 . S
C2292 C2294 1.348 . S
C2292 C2295 1.356 . S
C2292 O2348 1.325 . S
N2293 C2296 1.314 . S
N2293 C2297 1.279 . S
C2294 C2292 1.348 . S
C2294 C2296 1.353 . S
C2294 H2352 0.929 . S
C2295 C2292 1.356 . S
C2295 C2297 1.358 . S
C2295 H2353 0.930 . S
C2296 N2293 1.314 . S
C2296 C2294 1.353 . S
C2296 H2354 0.930 . S
C2297 N2293 1.279 . S
C2297 C2295 1.358 . S
C2297 H2355 0.930 . S
C2298 C2301 1.348 . S
C2298 C2302 1.356 . S
C2298 O2349 1.325 . S
C2299 N2300 1.279 . S
C2299 C2302 1.358 . S
C2299 H2356 0.930 . S
N2300 C2299 1.279 . S
N2300 C2303 1.314 . S
C2301 C2298 1.348 . S
C2301 C2303 1.353 . S
C2301 H2357 0.929 . S
C2302 C2298 1.356 . S
C2302 C2299 1.358 . S
C2302 H2358 0.930 . S
C2303 N2300 1.314 . S
C2303 C2301 1.353 . S
C2303 H2359 0.930 . S
C2304 N2305 1.314 . S
C2304 C2309 1.353 . S
C2304 H2310 0.930 . S
N2305 Li2288 1.990 . S
N2305 C2304 1.314 . S
N2305 C2307 1.279 . S
C2306 C2307 1.358 . S
C2306 C2308 1.356 . S
C2306 H2360 0.930 . S
C2307 N2305 1.279 . S
C2307 C2306 1.358 . S
C2307 H2311 0.930 . S
C2308 C2306 1.356 . S
C2308 C2309 1.348 . S
C2309 C2304 1.353 . S
C2309 C2308 1.348 . S
C2309 H2361 0.929 . S
H2310 C2304 0.930 . S
H2311 C2307 0.930 . S
C2312 N2313 1.314 . S
C2312 C2314 1.353 . S
C2312 H2318 0.930 . S
N2313 Li2289 1.990 . S
N2313 C2312 1.314 . S
N2313 C2316 1.279 . S
C2314 C2312 1.353 . S
C2314 C2317 1.348 . S
C2314 H2362 0.929 . S
C2315 C2316 1.358 . S
C2315 C2317 1.356 . S
C2315 H2363 0.930 . S
C2316 N2313 1.279 . S
C2316 C2315 1.358 . S
C2316 H2319 0.930 . S
C2317 C2314 1.348 . S
C2317 C2315 1.356 . S
H2318 C2312 0.930 . S
H2319 C2316 0.930 . S
C2320 C2322 1.348 . S
C2320 C2323 1.356 . S
C2320 O2350 1.325 . S
N2321 C2324 1.314 . S
N2321 C2325 1.279 . S
C2322 C2320 1.348 . S
C2322 C2324 1.353 . S
C2322 H2364 0.929 . S
C2323 C2320 1.356 . S
C2323 C2325 1.358 . S
C2323 H2365 0.930 . S
C2324 N2321 1.314 . S
C2324 C2322 1.353 . S
C2324 H2366 0.930 . S
C2325 N2321 1.279 . S
C2325 C2323 1.358 . S
C2325 H2367 0.930 . S
C2326 C2327 1.348 . S
C2326 C2328 1.356 . S
C2326 O2351 1.325 . S
C2327 C2326 1.348 . S
C2327 C2329 1.353 . S
C2327 H2368 0.929 . S
C2328 C2326 1.356 . S
C2328 C2330 1.358 . S
C2328 H2369 0.930 . S
C2329 C2327 1.353 . S
C2329 N2331 1.314 . S
C2329 H2370 0.930 . S
C2330 C2328 1.358 . S
C2330 N2331 1.279 . S
C2330 H2371 0.930 . S
N2331 C2329 1.314 . S
N2331 C2330 1.279 . S
C2332 C2334 1.353 . S
C2332 N2335 1.314 . S
C2332 H2338 0.930 . S
C2333 N2335 1.279 . S
C2333 C2336 1.358 . S
C2333 H2339 0.930 . S
C2334 C2332 1.353 . S
C2334 C2337 1.348 . S
C2334 H2372 0.929 . S
N2335 Li2290 1.990 . S
N2335 C2332 1.314 . S
N2335 C2333 1.279 . S
C2336 C2333 1.358 . S
C2336 C2337 1.356 . S
C2336 H2373 0.930 . S
C2337 C2334 1.348 . S
C2337 C2336 1.356 . S
H2338 C2332 0.930 . S
H2339 C2333 0.930 . S
C2340 N2341 1.314 . S
C2340 C2342 1.353 . S
C2340 H2346 0.930 . S
N2341 Li2291 1.990 . S
N2341 C2340 1.314 . S
N2341 C2344 1.279 . S
C2342 C2340 1.353 . S
C2342 C2345 1.348 . S
C2342 H2374 0.929 . S
C2343 C2344 1.358 . S
C2343 C2345 1.356 . S
C2343 H2375 0.930 . S
C2344 N2341 1.279 . S
C2344 C2343 1.358 . S
C2344 H2347 0.930 . S
C2345 C2342 1.348 . S
C2345 C2343 1.356 . S
H2346 C2340 0.930 . S
H2347 C2344 0.930 . S
O2348 Li2288 1.956 . S
O2348 Li2289 1.970 . S
O2348 Li2290 1.961 . S
O2348 C2292 1.325 . S
O2349 Li2288 1.970 . S
O2349 Li2289 1.956 . S
O2349 Li2291 1.961 . S
O2349 C2298 1.325 . S
O2350 Li2288 1.961 . S
O2350 Li2290 1.956 . S
O2350 Li2291 1.970 . S
O2350 C2320 1.325 . S
O2351 Li2289 1.961 . S
O2351 Li2290 1.970 . S
O2351 Li2291 1.956 . S
O2351 C2326 1.325 . S
H2352 C2294 0.929 . S
H2353 C2295 0.930 . S
H2354 C2296 0.930 . S
H2355 C2297 0.930 . S
H2356 C2299 0.930 . S
H2357 C2301 0.929 . S
H2358 C2302 0.930 . S
H2359 C2303 0.930 . S
H2360 C2306 0.930 . S
H2361 C2309 0.929 . S
H2362 C2314 0.929 . S
H2363 C2315 0.930 . S
H2364 C2322 0.929 . S
H2365 C2323 0.930 . S
H2366 C2324 0.930 . S
H2367 C2325 0.930 . S
H2368 C2327 0.929 . S
H2369 C2328 0.930 . S
H2370 C2329 0.930 . S
H2371 C2330 0.930 . S
H2372 C2334 0.929 . S
H2373 C2336 0.930 . S
H2374 C2342 0.929 . S
H2375 C2343 0.930 . S
Li2376 N2393 1.990 . S
Li2376 O2436 1.956 . S
Li2376 O2437 1.970 . S
Li2376 O2438 1.961 . S
Li2377 N2401 1.990 . S
Li2377 O2436 1.970 . S
Li2377 O2437 1.956 . S
Li2377 O2439 1.961 . S
Li2378 N2423 1.990 . S
Li2378 O2436 1.961 . S
Li2378 O2438 1.956 . S
Li2378 O2439 1.970 . S
Li2379 N2429 1.990 . S
Li2379 O2437 1.961 . S
Li2379 O2438 1.970 . S
Li2379 O2439 1.956 . S
C2380 C2382 1.348 . S
C2380 C2383 1.356 . S
C2380 O2436 1.325 . S
N2381 C2384 1.314 . S
N2381 C2385 1.279 . S
C2382 C2380 1.348 . S
C2382 C2384 1.353 . S
C2382 H2440 0.929 . S
C2383 C2380 1.356 . S
C2383 C2385 1.358 . S
C2383 H2441 0.930 . S
C2384 N2381 1.314 . S
C2384 C2382 1.353 . S
C2384 H2442 0.930 . S
C2385 N2381 1.279 . S
C2385 C2383 1.358 . S
C2385 H2443 0.930 . S
C2386 C2389 1.348 . S
C2386 C2390 1.356 . S
C2386 O2437 1.325 . S
C2387 N2388 1.279 . S
C2387 C2390 1.358 . S
C2387 H2444 0.930 . S
N2388 C2387 1.279 . S
N2388 C2391 1.314 . S
C2389 C2386 1.348 . S
C2389 C2391 1.353 . S
C2389 H2445 0.929 . S
C2390 C2386 1.356 . S
C2390 C2387 1.358 . S
C2390 H2446 0.930 . S
C2391 N2388 1.314 . S
C2391 C2389 1.353 . S
C2391 H2447 0.930 . S
C2392 N2393 1.314 . S
C2392 C2397 1.353 . S
C2392 H2398 0.930 . S
N2393 Li2376 1.990 . S
N2393 C2392 1.314 . S
N2393 C2395 1.279 . S
C2394 C2395 1.358 . S
C2394 C2396 1.356 . S
C2394 H2448 0.930 . S
C2395 N2393 1.279 . S
C2395 C2394 1.358 . S
C2395 H2399 0.930 . S
C2396 C2394 1.356 . S
C2396 C2397 1.348 . S
C2397 C2392 1.353 . S
C2397 C2396 1.348 . S
C2397 H2449 0.929 . S
H2398 C2392 0.930 . S
H2399 C2395 0.930 . S
C2400 N2401 1.314 . S
C2400 C2402 1.353 . S
C2400 H2406 0.930 . S
N2401 Li2377 1.990 . S
N2401 C2400 1.314 . S
N2401 C2404 1.279 . S
C2402 C2400 1.353 . S
C2402 C2405 1.348 . S
C2402 H2450 0.929 . S
C2403 C2404 1.358 . S
C2403 C2405 1.356 . S
C2403 H2451 0.930 . S
C2404 N2401 1.279 . S
C2404 C2403 1.358 . S
C2404 H2407 0.930 . S
C2405 C2402 1.348 . S
C2405 C2403 1.356 . S
H2406 C2400 0.930 . S
H2407 C2404 0.930 . S
C2408 C2410 1.348 . S
C2408 C2411 1.356 . S
C2408 O2438 1.325 . S
N2409 C2412 1.314 . S
N2409 C2413 1.279 . S
C2410 C2408 1.348 . S
C2410 C2412 1.353 . S
C2410 H2452 0.929 . S
C2411 C2408 1.356 . S
C2411 C2413 1.358 . S
C2411 H2453 0.930 . S
C2412 N2409 1.314 . S
C2412 C2410 1.353 . S
C2412 H2454 0.930 . S
C2413 N2409 1.279 . S
C2413 C2411 1.358 . S
C2413 H2455 0.930 . S
C2414 C2415 1.348 . S
C2414 C2416 1.356 . S
C2414 O2439 1.325 . S
C2415 C2414 1.348 . S
C2415 C2417 1.353 . S
C2415 H2456 0.929 . S
C2416 C2414 1.356 . S
C2416 C2418 1.358 . S
C2416 H2457 0.930 . S
C2417 C2415 1.353 . S
C2417 N2419 1.314 . S
C2417 H2458 0.930 1_554 S
C2418 C2416 1.358 . S
C2418 N2419 1.279 . S
C2418 H2459 0.930 . S
N2419 C2417 1.314 . S
N2419 C2418 1.279 . S
C2420 C2422 1.353 . S
C2420 N2423 1.314 . S
C2420 H2426 0.930 . S
C2421 N2423 1.279 . S
C2421 C2424 1.358 . S
C2421 H2427 0.930 . S
C2422 C2420 1.353 . S
C2422 C2425 1.348 . S
C2422 H2460 0.935 . S
N2423 Li2378 1.990 . S
N2423 C2420 1.314 . S
N2423 C2421 1.279 . S
C2424 C2421 1.358 . S
C2424 C2425 1.356 . S
C2424 H2461 0.930 . S
C2425 C2422 1.348 . S
C2425 C2424 1.356 . S
H2426 C2420 0.930 . S
H2427 C2421 0.930 . S
C2428 N2429 1.314 . S
C2428 C2430 1.353 . S
C2428 H2434 0.930 . S
N2429 Li2379 1.990 . S
N2429 C2428 1.314 . S
N2429 C2432 1.279 . S
C2430 C2428 1.353 . S
C2430 C2433 1.348 . S
C2430 H2462 0.929 . S
C2431 C2432 1.358 . S
C2431 C2433 1.356 . S
C2431 H2463 0.930 . S
C2432 N2429 1.279 . S
C2432 C2431 1.358 . S
C2432 H2435 0.930 . S
C2433 C2430 1.348 . S
C2433 C2431 1.356 . S
H2434 C2428 0.930 . S
H2435 C2432 0.930 . S
O2436 Li2376 1.956 . S
O2436 Li2377 1.970 . S
O2436 Li2378 1.961 . S
O2436 C2380 1.325 . S
O2437 Li2376 1.970 . S
O2437 Li2377 1.956 . S
O2437 Li2379 1.961 . S
O2437 C2386 1.325 . S
O2438 Li2376 1.961 . S
O2438 Li2378 1.956 . S
O2438 Li2379 1.970 . S
O2438 C2408 1.325 . S
O2439 Li2377 1.961 . S
O2439 Li2378 1.970 . S
O2439 Li2379 1.956 . S
O2439 C2414 1.325 . S
H2440 C2382 0.929 . S
H2441 C2383 0.930 . S
H2442 C2384 0.930 . S
H2443 C2385 0.930 . S
H2444 C2387 0.930 . S
H2445 C2389 0.929 . S
H2446 C2390 0.930 . S
H2447 C2391 0.930 . S
H2448 C2394 0.930 . S
H2449 C2397 0.929 . S
H2450 C2402 0.929 . S
H2451 C2403 0.930 . S
H2452 C2410 0.929 . S
H2453 C2411 0.930 . S
H2454 C2412 0.930 . S
H2455 C2413 0.930 . S
H2456 C2415 0.929 . S
H2457 C2416 0.930 . S
H2458 C2417 0.930 1_556 S
H2459 C2418 0.930 . S
H2460 C2422 0.935 . S
H2461 C2424 0.930 . S
H2462 C2430 0.929 . S
H2463 C2431 0.930 . S
Li2464 N2481 1.990 . S
Li2464 O2524 1.956 . S
Li2464 O2525 1.970 . S
Li2464 O2526 1.961 . S
Li2465 N2489 1.990 . S
Li2465 O2524 1.970 . S
Li2465 O2525 1.956 . S
Li2465 O2527 1.961 . S
Li2466 N2511 1.990 . S
Li2466 O2524 1.961 . S
Li2466 O2526 1.956 . S
Li2466 O2527 1.970 . S
Li2467 N2517 1.990 . S
Li2467 O2525 1.961 . S
Li2467 O2526 1.970 . S
Li2467 O2527 1.956 . S
C2468 C2470 1.348 . S
C2468 C2471 1.356 . S
C2468 O2524 1.325 . S
N2469 C2472 1.314 . S
N2469 C2473 1.279 . S
C2470 C2468 1.348 . S
C2470 C2472 1.353 . S
C2470 H2528 0.929 . S
C2471 C2468 1.356 . S
C2471 C2473 1.358 . S
C2471 H2529 0.930 . S
C2472 N2469 1.314 . S
C2472 C2470 1.353 . S
C2472 H2530 0.930 . S
C2473 N2469 1.279 . S
C2473 C2471 1.358 . S
C2473 H2531 0.930 . S
C2474 C2477 1.348 . S
C2474 C2478 1.356 . S
C2474 O2525 1.325 . S
C2475 N2476 1.279 . S
C2475 C2478 1.358 . S
C2475 H2532 0.930 . S
N2476 C2475 1.279 . S
N2476 C2479 1.314 . S
C2477 C2474 1.348 . S
C2477 C2479 1.353 . S
C2477 H2533 0.929 . S
C2478 C2474 1.356 . S
C2478 C2475 1.358 . S
C2478 H2534 0.930 . S
C2479 N2476 1.314 . S
C2479 C2477 1.353 . S
C2479 H2535 0.930 . S
C2480 N2481 1.314 . S
C2480 C2485 1.353 . S
C2480 H2486 0.930 . S
N2481 Li2464 1.990 . S
N2481 C2480 1.314 . S
N2481 C2483 1.279 . S
C2482 C2483 1.358 . S
C2482 C2484 1.356 . S
C2482 H2536 0.930 . S
C2483 N2481 1.279 . S
C2483 C2482 1.358 . S
C2483 H2487 0.930 . S
C2484 C2482 1.356 . S
C2484 C2485 1.348 . S
C2485 C2480 1.353 . S
C2485 C2484 1.348 . S
C2485 H2537 0.929 . S
H2486 C2480 0.930 . S
H2487 C2483 0.930 . S
C2488 N2489 1.314 . S
C2488 C2490 1.353 . S
C2488 H2494 0.930 . S
N2489 Li2465 1.990 . S
N2489 C2488 1.314 . S
N2489 C2492 1.279 . S
C2490 C2488 1.353 . S
C2490 C2493 1.348 . S
C2490 H2538 0.929 . S
C2491 C2492 1.358 . S
C2491 C2493 1.356 . S
C2491 H2539 0.930 . S
C2492 N2489 1.279 . S
C2492 C2491 1.358 . S
C2492 H2495 0.930 . S
C2493 C2490 1.348 . S
C2493 C2491 1.356 . S
H2494 C2488 0.930 . S
H2495 C2492 0.930 . S
C2496 C2498 1.348 . S
C2496 C2499 1.356 . S
C2496 O2526 1.325 . S
N2497 C2500 1.314 . S
N2497 C2501 1.279 . S
C2498 C2496 1.348 . S
C2498 C2500 1.353 . S
C2498 H2540 0.929 . S
C2499 C2496 1.356 . S
C2499 C2501 1.358 . S
C2499 H2541 0.930 . S
C2500 N2497 1.314 . S
C2500 C2498 1.353 . S
C2500 H2542 0.930 . S
C2501 N2497 1.279 . S
C2501 C2499 1.358 . S
C2501 H2543 0.930 . S
C2502 C2503 1.348 . S
C2502 C2504 1.356 . S
C2502 O2527 1.325 . S
C2503 C2502 1.348 . S
C2503 C2505 1.353 . S
C2503 H2544 0.929 . S
C2504 C2502 1.356 . S
C2504 C2506 1.358 . S
C2504 H2545 0.930 . S
C2505 C2503 1.353 . S
C2505 N2507 1.314 . S
C2505 H2546 0.930 . S
C2506 C2504 1.358 . S
C2506 N2507 1.279 . S
C2506 H2547 0.930 . S
N2507 C2505 1.314 . S
N2507 C2506 1.279 . S
C2508 C2510 1.353 . S
C2508 N2511 1.314 . S
C2508 H2514 0.930 . S
C2509 N2511 1.279 . S
C2509 C2512 1.358 . S
C2509 H2515 0.930 . S
C2510 C2508 1.353 . S
C2510 C2513 1.348 . S
C2510 H2548 0.929 . S
N2511 Li2466 1.990 . S
N2511 C2508 1.314 . S
N2511 C2509 1.279 . S
C2512 C2509 1.358 . S
C2512 C2513 1.356 . S
C2512 H2549 0.930 . S
C2513 C2510 1.348 . S
C2513 C2512 1.356 . S
H2514 C2508 0.930 . S
H2515 C2509 0.930 . S
C2516 N2517 1.314 . S
C2516 C2518 1.353 . S
C2516 H2522 0.930 . S
N2517 Li2467 1.990 . S
N2517 C2516 1.314 . S
N2517 C2520 1.279 . S
C2518 C2516 1.353 . S
C2518 C2521 1.348 . S
C2518 H2550 0.929 . S
C2519 C2520 1.358 . S
C2519 C2521 1.356 . S
C2519 H2551 0.930 . S
C2520 N2517 1.279 . S
C2520 C2519 1.358 . S
C2520 H2523 0.930 . S
C2521 C2518 1.348 . S
C2521 C2519 1.356 . S
H2522 C2516 0.930 . S
H2523 C2520 0.930 . S
O2524 Li2464 1.956 . S
O2524 Li2465 1.970 . S
O2524 Li2466 1.961 . S
O2524 C2468 1.325 . S
O2525 Li2464 1.970 . S
O2525 Li2465 1.956 . S
O2525 Li2467 1.961 . S
O2525 C2474 1.325 . S
O2526 Li2464 1.961 . S
O2526 Li2466 1.956 . S
O2526 Li2467 1.970 . S
O2526 C2496 1.325 . S
O2527 Li2465 1.961 . S
O2527 Li2466 1.970 . S
O2527 Li2467 1.956 . S
O2527 C2502 1.325 . S
H2528 C2470 0.929 . S
H2529 C2471 0.930 . S
H2530 C2472 0.930 . S
H2531 C2473 0.930 . S
H2532 C2475 0.930 . S
H2533 C2477 0.929 . S
H2534 C2478 0.930 . S
H2535 C2479 0.930 . S
H2536 C2482 0.930 . S
H2537 C2485 0.929 . S
H2538 C2490 0.929 . S
H2539 C2491 0.930 . S
H2540 C2498 0.929 . S
H2541 C2499 0.930 . S
H2542 C2500 0.930 . S
H2543 C2501 0.930 . S
H2544 C2503 0.929 . S
H2545 C2504 0.930 . S
H2546 C2505 0.930 . S
H2547 C2506 0.930 . S
H2548 C2510 0.929 . S
H2549 C2512 0.930 . S
H2550 C2518 0.929 . S
H2551 C2519 0.930 . S
Li2552 N2569 1.990 . S
Li2552 O2612 1.956 . S
Li2552 O2613 1.970 . S
Li2552 O2614 1.961 . S
Li2553 N2577 1.990 . S
Li2553 O2612 1.970 . S
Li2553 O2613 1.956 . S
Li2553 O2615 1.961 . S
Li2554 N2599 1.990 . S
Li2554 O2612 1.961 . S
Li2554 O2614 1.956 . S
Li2554 O2615 1.970 . S
Li2555 N2605 1.990 . S
Li2555 O2613 1.961 . S
Li2555 O2614 1.970 . S
Li2555 O2615 1.956 . S
C2556 C2558 1.348 . S
C2556 C2559 1.356 . S
C2556 O2612 1.325 . S
N2557 C2560 1.314 . S
N2557 C2561 1.279 . S
C2558 C2556 1.348 . S
C2558 C2560 1.353 . S
C2558 H2616 0.929 . S
C2559 C2556 1.356 . S
C2559 C2561 1.358 . S
C2559 H2617 0.930 . S
C2560 N2557 1.314 . S
C2560 C2558 1.353 . S
C2560 H2618 0.930 . S
C2561 N2557 1.279 . S
C2561 C2559 1.358 . S
C2561 H2619 0.930 . S
C2562 C2565 1.348 . S
C2562 C2566 1.356 . S
C2562 O2613 1.325 . S
C2563 N2564 1.279 . S
C2563 C2566 1.358 . S
C2563 H2620 0.930 . S
N2564 C2563 1.279 . S
N2564 C2567 1.314 . S
C2565 C2562 1.348 . S
C2565 C2567 1.353 . S
C2565 H2621 0.929 . S
C2566 C2562 1.356 . S
C2566 C2563 1.358 . S
C2566 H2622 0.930 . S
C2567 N2564 1.314 . S
C2567 C2565 1.353 . S
C2567 H2623 0.930 . S
C2568 N2569 1.314 . S
C2568 C2573 1.353 . S
C2568 H2574 0.930 . S
N2569 Li2552 1.990 . S
N2569 C2568 1.314 . S
N2569 C2571 1.279 . S
C2570 C2571 1.358 . S
C2570 C2572 1.356 . S
C2570 H2624 0.930 . S
C2571 N2569 1.279 . S
C2571 C2570 1.358 . S
C2571 H2575 0.930 . S
C2572 C2570 1.356 . S
C2572 C2573 1.348 . S
C2573 C2568 1.353 . S
C2573 C2572 1.348 . S
C2573 H2625 0.929 . S
H2574 C2568 0.930 . S
H2575 C2571 0.930 . S
C2576 N2577 1.314 . S
C2576 C2578 1.353 . S
C2576 H2582 0.930 . S
N2577 Li2553 1.990 . S
N2577 C2576 1.314 . S
N2577 C2580 1.279 . S
C2578 C2576 1.353 . S
C2578 C2581 1.348 . S
C2578 H2626 0.929 . S
C2579 C2580 1.358 . S
C2579 C2581 1.356 . S
C2579 H2627 0.930 . S
C2580 N2577 1.279 . S
C2580 C2579 1.358 . S
C2580 H2583 0.930 . S
C2581 C2578 1.348 . S
C2581 C2579 1.356 . S
H2582 C2576 0.930 . S
H2583 C2580 0.930 . S
C2584 C2586 1.348 . S
C2584 C2587 1.356 . S
C2584 O2614 1.325 . S
N2585 C2588 1.314 . S
N2585 C2589 1.279 . S
C2586 C2584 1.348 . S
C2586 C2588 1.353 . S
C2586 H2628 0.929 . S
C2587 C2584 1.356 . S
C2587 C2589 1.358 . S
C2587 H2629 0.930 . S
C2588 N2585 1.314 . S
C2588 C2586 1.353 . S
C2588 H2630 0.930 . S
C2589 N2585 1.279 . S
C2589 C2587 1.358 . S
C2589 H2631 0.930 . S
C2590 C2591 1.348 . S
C2590 C2592 1.356 . S
C2590 O2615 1.325 . S
C2591 C2590 1.348 . S
C2591 C2593 1.353 . S
C2591 H2632 0.929 . S
C2592 C2590 1.356 . S
C2592 C2594 1.358 . S
C2592 H2633 0.930 . S
C2593 C2591 1.353 . S
C2593 N2595 1.314 . S
C2593 H2634 0.930 . S
C2594 C2592 1.358 . S
C2594 N2595 1.279 . S
C2594 H2635 0.930 . S
N2595 C2593 1.314 . S
N2595 C2594 1.279 . S
C2596 C2598 1.353 . S
C2596 N2599 1.314 . S
C2596 H2602 0.930 . S
C2597 N2599 1.279 . S
C2597 C2600 1.358 . S
C2597 H2603 0.930 . S
C2598 C2596 1.353 . S
C2598 C2601 1.348 . S
C2598 H2636 0.929 . S
N2599 Li2554 1.990 . S
N2599 C2596 1.314 . S
N2599 C2597 1.279 . S
C2600 C2597 1.358 . S
C2600 C2601 1.356 . S
C2600 H2637 0.930 . S
C2601 C2598 1.348 . S
C2601 C2600 1.356 . S
H2602 C2596 0.930 . S
H2603 C2597 0.930 . S
C2604 N2605 1.314 . S
C2604 C2606 1.353 . S
C2604 H2610 0.930 . S
N2605 Li2555 1.990 . S
N2605 C2604 1.314 . S
N2605 C2608 1.279 . S
C2606 C2604 1.353 . S
C2606 C2609 1.348 . S
C2606 H2638 0.929 . S
C2607 C2608 1.358 . S
C2607 C2609 1.356 . S
C2607 H2639 0.930 . S
C2608 N2605 1.279 . S
C2608 C2607 1.358 . S
C2608 H2611 0.930 . S
C2609 C2606 1.348 . S
C2609 C2607 1.356 . S
H2610 C2604 0.930 . S
H2611 C2608 0.930 . S
O2612 Li2552 1.956 . S
O2612 Li2553 1.970 . S
O2612 Li2554 1.961 . S
O2612 C2556 1.325 . S
O2613 Li2552 1.970 . S
O2613 Li2553 1.956 . S
O2613 Li2555 1.961 . S
O2613 C2562 1.325 . S
O2614 Li2552 1.961 . S
O2614 Li2554 1.956 . S
O2614 Li2555 1.970 . S
O2614 C2584 1.325 . S
O2615 Li2553 1.961 . S
O2615 Li2554 1.970 . S
O2615 Li2555 1.956 . S
O2615 C2590 1.325 . S
H2616 C2558 0.929 . S
H2617 C2559 0.930 . S
H2618 C2560 0.930 . S
H2619 C2561 0.930 . S
H2620 C2563 0.930 . S
H2621 C2565 0.929 . S
H2622 C2566 0.930 . S
H2623 C2567 0.930 . S
H2624 C2570 0.930 . S
H2625 C2573 0.929 . S
H2626 C2578 0.929 . S
H2627 C2579 0.930 . S
H2628 C2586 0.929 . S
H2629 C2587 0.930 . S
H2630 C2588 0.930 . S
H2631 C2589 0.930 . S
H2632 C2591 0.929 . S
H2633 C2592 0.930 . S
H2634 C2593 0.930 . S
H2635 C2594 0.930 . S
H2636 C2598 0.929 . S
H2637 C2600 0.930 . S
H2638 C2606 0.929 . S
H2639 C2607 0.930 . S
Li2640 N2657 1.990 . S
Li2640 O2700 1.956 . S
Li2640 O2701 1.970 . S
Li2640 O2702 1.961 . S
Li2641 N2665 1.990 . S
Li2641 O2700 1.970 . S
Li2641 O2701 1.956 . S
Li2641 O2703 1.961 . S
Li2642 N2687 1.990 . S
Li2642 O2700 1.961 . S
Li2642 O2702 1.956 . S
Li2642 O2703 1.970 . S
Li2643 N2693 1.990 . S
Li2643 O2701 1.961 . S
Li2643 O2702 1.970 . S
Li2643 O2703 1.956 . S
C2644 C2646 1.348 . S
C2644 C2647 1.356 . S
C2644 O2700 1.325 . S
N2645 C2648 1.314 . S
N2645 C2649 1.279 . S
C2646 C2644 1.348 . S
C2646 C2648 1.353 . S
C2646 H2704 0.929 . S
C2647 C2644 1.356 . S
C2647 C2649 1.358 . S
C2647 H2705 0.930 . S
C2648 N2645 1.314 . S
C2648 C2646 1.353 . S
C2648 H2706 0.930 . S
C2649 N2645 1.279 . S
C2649 C2647 1.358 . S
C2649 H2707 0.930 1_556 S
C2650 C2653 1.348 . S
C2650 C2654 1.356 . S
C2650 O2701 1.325 . S
C2651 N2652 1.279 . S
C2651 C2654 1.358 . S
C2651 H2708 0.930 . S
N2652 C2651 1.279 . S
N2652 C2655 1.314 . S
C2653 C2650 1.348 . S
C2653 C2655 1.353 . S
C2653 H2709 0.929 . S
C2654 C2650 1.356 . S
C2654 C2651 1.358 . S
C2654 H2710 0.930 . S
C2655 N2652 1.314 . S
C2655 C2653 1.353 . S
C2655 H2711 0.930 . S
C2656 N2657 1.314 . S
C2656 C2661 1.353 . S
C2656 H2662 0.930 . S
N2657 Li2640 1.990 . S
N2657 C2656 1.314 . S
N2657 C2659 1.279 . S
C2658 C2659 1.358 . S
C2658 C2660 1.356 . S
C2658 H2712 0.930 . S
C2659 N2657 1.279 . S
C2659 C2658 1.358 . S
C2659 H2663 0.930 . S
C2660 C2658 1.356 . S
C2660 C2661 1.348 . S
C2661 C2656 1.353 . S
C2661 C2660 1.348 . S
C2661 H2713 0.929 . S
H2662 C2656 0.930 . S
H2663 C2659 0.930 . S
C2664 N2665 1.314 . S
C2664 C2666 1.353 . S
C2664 H2670 0.930 . S
N2665 Li2641 1.990 . S
N2665 C2664 1.314 . S
N2665 C2668 1.279 . S
C2666 C2664 1.353 . S
C2666 C2669 1.348 . S
C2666 H2714 0.929 . S
C2667 C2668 1.358 . S
C2667 C2669 1.356 . S
C2667 H2715 0.930 . S
C2668 N2665 1.279 . S
C2668 C2667 1.358 . S
C2668 H2671 0.930 . S
C2669 C2666 1.348 . S
C2669 C2667 1.356 . S
H2670 C2664 0.930 . S
H2671 C2668 0.930 . S
C2672 C2674 1.348 . S
C2672 C2675 1.356 . S
C2672 O2702 1.325 . S
N2673 C2676 1.314 . S
N2673 C2677 1.279 . S
C2674 C2672 1.348 . S
C2674 C2676 1.353 . S
C2674 H2716 0.929 . S
C2675 C2672 1.356 . S
C2675 C2677 1.358 . S
C2675 H2717 0.930 . S
C2676 N2673 1.314 . S
C2676 C2674 1.353 . S
C2676 H2718 0.930 . S
C2677 N2673 1.279 . S
C2677 C2675 1.358 . S
C2677 H2719 0.930 . S
C2678 C2679 1.348 . S
C2678 C2680 1.356 . S
C2678 O2703 1.325 . S
C2679 C2678 1.348 . S
C2679 C2681 1.353 . S
C2679 H2720 0.929 . S
C2680 C2678 1.356 . S
C2680 C2682 1.358 . S
C2680 H2721 0.930 . S
C2681 C2679 1.353 . S
C2681 N2683 1.314 . S
C2681 H2722 0.930 . S
C2682 C2680 1.358 . S
C2682 N2683 1.279 . S
C2682 H2723 0.930 . S
N2683 C2681 1.314 . S
N2683 C2682 1.279 . S
C2684 C2686 1.353 . S
C2684 N2687 1.314 . S
C2684 H2690 0.930 . S
C2685 N2687 1.279 . S
C2685 C2688 1.358 . S
C2685 H2691 0.930 . S
C2686 C2684 1.353 . S
C2686 C2689 1.348 . S
C2686 H2724 0.929 . S
N2687 Li2642 1.990 . S
N2687 C2684 1.314 . S
N2687 C2685 1.279 . S
C2688 C2685 1.358 . S
C2688 C2689 1.356 . S
C2688 H2725 0.930 . S
C2689 C2686 1.348 . S
C2689 C2688 1.356 . S
H2690 C2684 0.930 . S
H2691 C2685 0.930 . S
C2692 N2693 1.314 . S
C2692 C2694 1.353 . S
C2692 H2698 0.930 . S
N2693 Li2643 1.990 . S
N2693 C2692 1.314 . S
N2693 C2696 1.279 . S
C2694 C2692 1.353 . S
C2694 C2697 1.348 . S
C2694 H2726 0.929 . S
C2695 C2696 1.358 . S
C2695 C2697 1.356 . S
C2695 H2727 0.930 . S
C2696 N2693 1.279 . S
C2696 C2695 1.358 . S
C2696 H2699 0.930 . S
C2697 C2694 1.348 . S
C2697 C2695 1.356 . S
H2698 C2692 0.930 . S
H2699 C2696 0.930 . S
O2700 Li2640 1.956 . S
O2700 Li2641 1.970 . S
O2700 Li2642 1.961 . S
O2700 C2644 1.325 . S
O2701 Li2640 1.970 . S
O2701 Li2641 1.956 . S
O2701 Li2643 1.961 . S
O2701 C2650 1.325 . S
O2702 Li2640 1.961 . S
O2702 Li2642 1.956 . S
O2702 Li2643 1.970 . S
O2702 C2672 1.325 . S
O2703 Li2641 1.961 . S
O2703 Li2642 1.970 . S
O2703 Li2643 1.956 . S
O2703 C2678 1.325 . S
H2704 C2646 0.929 . S
H2705 C2647 0.930 . S
H2706 C2648 0.930 . S
H2707 C2649 0.930 1_554 S
H2708 C2651 0.930 . S
H2709 C2653 0.929 . S
H2710 C2654 0.930 . S
H2711 C2655 0.930 . S
H2712 C2658 0.930 . S
H2713 C2661 0.929 . S
H2714 C2666 0.929 . S
H2715 C2667 0.930 . S
H2716 C2674 0.929 . S
H2717 C2675 0.930 . S
H2718 C2676 0.930 . S
H2719 C2677 0.930 . S
H2720 C2679 0.929 . S
H2721 C2680 0.930 . S
H2722 C2681 0.930 . S
H2723 C2682 0.930 . S
H2724 C2686 0.929 . S
H2725 C2688 0.930 . S
H2726 C2694 0.929 . S
H2727 C2695 0.930 . S
Li2728 N2745 1.990 . S
Li2728 O2788 1.956 . S
Li2728 O2789 1.970 . S
Li2728 O2790 1.961 . S
Li2729 N2753 1.990 . S
Li2729 O2788 1.970 . S
Li2729 O2789 1.956 . S
Li2729 O2791 1.961 . S
Li2730 N2775 1.990 . S
Li2730 O2788 1.961 . S
Li2730 O2790 1.956 . S
Li2730 O2791 1.970 . S
Li2731 N2781 1.990 . S
Li2731 O2789 1.961 . S
Li2731 O2790 1.970 . S
Li2731 O2791 1.956 . S
C2732 C2734 1.348 . S
C2732 C2735 1.356 . S
C2732 O2788 1.325 . S
N2733 C2736 1.314 . S
N2733 C2737 1.279 . S
C2734 C2732 1.348 . S
C2734 C2736 1.353 . S
C2734 H2792 0.929 . S
C2735 C2732 1.356 . S
C2735 C2737 1.358 . S
C2735 H2793 0.930 . S
C2736 N2733 1.314 . S
C2736 C2734 1.353 . S
C2736 H2794 0.930 . S
C2737 N2733 1.279 . S
C2737 C2735 1.358 . S
C2737 H2795 0.930 . S
C2738 C2741 1.348 . S
C2738 C2742 1.356 . S
C2738 O2789 1.325 . S
C2739 N2740 1.279 . S
C2739 C2742 1.358 . S
C2739 H2796 0.930 . S
N2740 C2739 1.279 . S
N2740 C2743 1.314 . S
C2741 C2738 1.348 . S
C2741 C2743 1.353 . S
C2741 H2797 0.929 . S
C2742 C2738 1.356 . S
C2742 C2739 1.358 . S
C2742 H2798 0.930 . S
C2743 N2740 1.314 . S
C2743 C2741 1.353 . S
C2743 H2799 0.930 . S
C2744 N2745 1.314 . S
C2744 C2749 1.353 . S
C2744 H2750 0.930 . S
N2745 Li2728 1.990 . S
N2745 C2744 1.314 . S
N2745 C2747 1.279 . S
C2746 C2747 1.358 . S
C2746 C2748 1.356 . S
C2746 H2800 0.930 . S
C2747 N2745 1.279 . S
C2747 C2746 1.358 . S
C2747 H2751 0.930 . S
C2748 C2746 1.356 . S
C2748 C2749 1.348 . S
C2749 C2744 1.353 . S
C2749 C2748 1.348 . S
C2749 H2801 0.929 . S
H2750 C2744 0.930 . S
H2751 C2747 0.930 . S
C2752 N2753 1.314 . S
C2752 C2754 1.353 . S
C2752 H2758 0.930 . S
N2753 Li2729 1.990 . S
N2753 C2752 1.314 . S
N2753 C2756 1.279 . S
C2754 C2752 1.353 . S
C2754 C2757 1.348 . S
C2754 H2802 0.929 . S
C2755 C2756 1.358 . S
C2755 C2757 1.356 . S
C2755 H2803 0.930 . S
C2756 N2753 1.279 . S
C2756 C2755 1.358 . S
C2756 H2759 0.930 . S
C2757 C2754 1.348 . S
C2757 C2755 1.356 . S
H2758 C2752 0.930 . S
H2759 C2756 0.930 . S
C2760 C2762 1.348 . S
C2760 C2763 1.356 . S
C2760 O2790 1.325 . S
N2761 C2764 1.314 . S
N2761 C2765 1.279 . S
C2762 C2760 1.348 . S
C2762 C2764 1.353 . S
C2762 H2804 0.929 . S
C2763 C2760 1.356 . S
C2763 C2765 1.358 . S
C2763 H2805 0.930 . S
C2764 N2761 1.314 . S
C2764 C2762 1.353 . S
C2764 H2806 0.930 . S
C2765 N2761 1.279 . S
C2765 C2763 1.358 . S
C2765 H2807 0.930 . S
C2766 C2767 1.348 . S
C2766 C2768 1.356 . S
C2766 O2791 1.325 . S
C2767 C2766 1.348 . S
C2767 C2769 1.353 . S
C2767 H2808 0.929 . S
C2768 C2766 1.356 . S
C2768 C2770 1.358 . S
C2768 H2809 0.930 . S
C2769 C2767 1.353 . S
C2769 N2771 1.314 . S
C2769 H2810 0.930 . S
C2770 C2768 1.358 . S
C2770 N2771 1.279 . S
C2770 H2811 0.930 . S
N2771 C2769 1.314 . S
N2771 C2770 1.279 . S
C2772 C2774 1.353 . S
C2772 N2775 1.314 . S
C2772 H2778 0.930 . S
C2773 N2775 1.279 . S
C2773 C2776 1.358 . S
C2773 H2779 0.930 . S
C2774 C2772 1.353 . S
C2774 C2777 1.348 . S
C2774 H2812 0.929 . S
N2775 Li2730 1.990 . S
N2775 C2772 1.314 . S
N2775 C2773 1.279 . S
C2776 C2773 1.358 . S
C2776 C2777 1.356 . S
C2776 H2813 0.930 . S
C2777 C2774 1.348 . S
C2777 C2776 1.356 . S
H2778 C2772 0.930 . S
H2779 C2773 0.930 . S
C2780 N2781 1.314 . S
C2780 C2782 1.353 . S
C2780 H2786 0.930 . S
N2781 Li2731 1.990 . S
N2781 C2780 1.314 . S
N2781 C2784 1.279 . S
C2782 C2780 1.353 . S
C2782 C2785 1.348 . S
C2782 H2814 0.929 . S
C2783 C2784 1.358 . S
C2783 C2785 1.356 . S
C2783 H2815 0.930 . S
C2784 N2781 1.279 . S
C2784 C2783 1.358 . S
C2784 H2787 0.930 . S
C2785 C2782 1.348 . S
C2785 C2783 1.356 . S
H2786 C2780 0.930 . S
H2787 C2784 0.930 . S
O2788 Li2728 1.956 . S
O2788 Li2729 1.970 . S
O2788 Li2730 1.961 . S
O2788 C2732 1.325 . S
O2789 Li2728 1.970 . S
O2789 Li2729 1.956 . S
O2789 Li2731 1.961 . S
O2789 C2738 1.325 . S
O2790 Li2728 1.961 . S
O2790 Li2730 1.956 . S
O2790 Li2731 1.970 . S
O2790 C2760 1.325 . S
O2791 Li2729 1.961 . S
O2791 Li2730 1.970 . S
O2791 Li2731 1.956 . S
O2791 C2766 1.325 . S
H2792 C2734 0.929 . S
H2793 C2735 0.930 . S
H2794 C2736 0.930 . S
H2795 C2737 0.930 . S
H2796 C2739 0.930 . S
H2797 C2741 0.929 . S
H2798 C2742 0.930 . S
H2799 C2743 0.930 . S
H2800 C2746 0.930 . S
H2801 C2749 0.929 . S
H2802 C2754 0.929 . S
H2803 C2755 0.930 . S
H2804 C2762 0.929 . S
H2805 C2763 0.930 . S
H2806 C2764 0.930 . S
H2807 C2765 0.930 . S
H2808 C2767 0.929 . S
H2809 C2768 0.930 . S
H2810 C2769 0.930 . S
H2811 C2770 0.930 . S
H2812 C2774 0.929 . S
H2813 C2776 0.930 . S
H2814 C2782 0.929 . S
H2815 C2783 0.930 . S
C2816 C2817 1.387 1_565 S
C2816 H2820 0.950 . S
C2816 C2825 1.390 1_455 S
C2817 C2816 1.387 1_545 S
C2817 C2819 1.387 1_554 S
H2818 C2825 0.950 . S
C2819 C2817 1.387 1_556 S
C2819 C2821 1.390 1_455 S
C2819 H2823 0.950 . S
H2820 C2816 0.950 . S
C2821 C2819 1.390 1_655 S
C2821 C2822 1.387 1_545 S
C2821 H2824 0.950 . S
C2822 C2821 1.387 1_565 S
C2822 C2825 1.387 1_556 S
H2823 C2819 0.950 . S
H2824 C2821 0.950 . S
C2825 C2816 1.390 1_655 S
C2825 H2818 0.950 . S
C2825 C2822 1.387 1_554 S
C2826 C2827 1.387 . S
C2826 H2830 0.950 . S
C2826 C2835 1.390 . S
C2827 C2826 1.387 . S
C2827 C2829 1.387 . S
H2828 C2835 0.950 . S
C2829 C2827 1.387 . S
C2829 C2831 1.390 . S
C2829 H2833 0.950 . S
H2830 C2826 0.950 . S
C2831 C2829 1.390 . S
C2831 C2832 1.387 . S
C2831 H2834 0.950 . S
C2832 C2831 1.387 . S
C2832 C2835 1.387 . S
H2833 C2829 0.950 . S
H2834 C2831 0.950 . S
C2835 C2826 1.390 . S
C2835 H2828 0.950 . S
C2835 C2832 1.387 . S
C2836 C2837 1.387 1_545 S
C2836 H2840 0.950 . S
C2836 C2845 1.390 . S
C2837 C2836 1.387 1_565 S
C2837 C2839 1.387 . S
H2838 C2845 0.950 . S
C2839 C2837 1.387 . S
C2839 C2841 1.390 . S
C2839 H2843 0.950 . S
H2840 C2836 0.950 . S
C2841 C2839 1.390 . S
C2841 C2842 1.387 1_565 S
C2841 H2844 0.950 . S
C2842 C2841 1.387 1_545 S
C2842 C2845 1.387 . S
H2843 C2839 0.950 . S
H2844 C2841 0.950 . S
C2845 C2836 1.390 . S
C2845 H2838 0.950 . S
C2845 C2842 1.387 . S
C2846 C2847 1.387 . S
C2846 H2850 0.950 . S
C2846 C2855 1.390 . S
C2847 C2846 1.387 . S
C2847 C2849 1.387 . S
H2848 C2855 0.950 . S
C2849 C2847 1.387 . S
C2849 C2851 1.390 . S
C2849 H2853 0.950 . S
H2850 C2846 0.950 . S
C2851 C2849 1.390 . S
C2851 C2852 1.387 . S
C2851 H2854 0.950 . S
C2852 C2851 1.387 . S
C2852 C2855 1.387 . S
H2853 C2849 0.950 . S
H2854 C2851 0.950 . S
C2855 C2846 1.390 . S
C2855 H2848 0.950 . S
C2855 C2852 1.387 . S
C2856 C2857 1.387 1_545 S
C2856 H2860 0.950 . S
C2856 C2865 1.390 . S
C2857 C2856 1.387 1_565 S
C2857 C2859 1.387 1_455 S
H2858 C2865 0.950 . S
C2859 C2857 1.387 1_655 S
C2859 C2861 1.390 . S
C2859 H2863 0.950 . S
H2860 C2856 0.950 . S
C2861 C2859 1.390 . S
C2861 C2862 1.387 1_565 S
C2861 H2864 0.950 . S
C2862 C2861 1.387 1_545 S
C2862 C2865 1.387 1_655 S
H2863 C2859 0.950 . S
H2864 C2861 0.950 . S
C2865 C2856 1.390 . S
C2865 H2858 0.950 . S
C2865 C2862 1.387 1_455 S
C2866 C2867 1.387 . S
C2866 H2870 0.950 . S
C2866 C2875 1.390 . S
C2867 C2866 1.387 . S
C2867 C2869 1.387 . S
H2868 C2875 0.950 . S
C2869 C2867 1.387 . S
C2869 C2871 1.390 . S
C2869 H2873 0.950 . S
H2870 C2866 0.950 . S
C2871 C2869 1.390 . S
C2871 C2872 1.387 . S
C2871 H2874 0.950 . S
C2872 C2871 1.387 . S
C2872 C2875 1.387 . S
H2873 C2869 0.950 . S
H2874 C2871 0.950 . S
C2875 C2866 1.390 . S
C2875 H2868 0.950 . S
C2875 C2872 1.387 . S
C2876 C2877 1.387 1_565 S
C2876 H2880 0.950 . S
C2876 C2885 1.390 . S
C2877 C2876 1.387 1_545 S
C2877 C2879 1.387 1_556 S
H2878 C2885 0.950 . S
C2879 C2877 1.387 1_554 S
C2879 C2881 1.390 . S
C2879 H2883 0.950 . S
H2880 C2876 0.950 . S
C2881 C2879 1.390 . S
C2881 C2882 1.387 1_545 S
C2881 H2884 0.950 . S
C2882 C2881 1.387 1_565 S
C2882 C2885 1.387 1_554 S
H2883 C2879 0.950 . S
H2884 C2881 0.950 . S
C2885 C2876 1.390 . S
C2885 H2878 0.950 . S
C2885 C2882 1.387 1_556 S
C2886 C2887 1.387 . S
C2886 H2890 0.950 . S
C2886 C2895 1.390 . S
C2887 C2886 1.387 . S
C2887 C2889 1.387 . S
H2888 C2895 0.950 . S
C2889 C2887 1.387 . S
C2889 C2891 1.390 . S
C2889 H2893 0.950 . S
H2890 C2886 0.950 . S
C2891 C2889 1.390 . S
C2891 C2892 1.387 . S
C2891 H2894 0.950 . S
C2892 C2891 1.387 . S
C2892 C2895 1.387 . S
H2893 C2889 0.950 . S
H2894 C2891 0.950 . S
C2895 C2886 1.390 . S
C2895 H2888 0.950 . S
C2895 C2892 1.387 . S
C2896 C2897 1.387 1_556 S
C2896 H2900 0.950 . S
C2896 C2905 1.390 . S
C2897 C2896 1.387 1_554 S
C2897 C2899 1.387 . S
H2898 C2905 0.950 . S
C2899 C2897 1.387 . S
C2899 C2901 1.390 . S
C2899 H2903 0.950 . S
H2900 C2896 0.950 . S
C2901 C2899 1.390 . S
C2901 C2902 1.387 1_554 S
C2901 H2904 0.950 . S
C2902 C2901 1.387 1_556 S
C2902 C2905 1.387 . S
H2903 C2899 0.950 . S
H2904 C2901 0.950 . S
C2905 C2896 1.390 . S
C2905 H2898 0.950 . S
C2905 C2902 1.387 . S
C2906 C2907 1.387 . S
C2906 H2910 0.950 . S
C2906 C2915 1.390 . S
C2907 C2906 1.387 . S
C2907 C2909 1.387 . S
H2908 C2915 0.950 . S
C2909 C2907 1.387 . S
C2909 C2911 1.390 . S
C2909 H2913 0.950 . S
H2910 C2906 0.950 . S
C2911 C2909 1.390 . S
C2911 C2912 1.387 . S
C2911 H2914 0.950 . S
C2912 C2911 1.387 . S
C2912 C2915 1.387 . S
H2913 C2909 0.950 . S
H2914 C2911 0.950 . S
C2915 C2906 1.390 . S
C2915 H2908 0.950 . S
C2915 C2912 1.387 . S
C2916 C2917 1.387 . S
C2916 H2920 0.950 . S
C2916 C2925 1.390 . S
C2917 C2916 1.387 . S
C2917 C2919 1.387 1_455 S
H2918 C2925 0.950 . S
C2919 C2917 1.387 1_655 S
C2919 C2921 1.390 . S
C2919 H2923 0.950 . S
H2920 C2916 0.950 . S
C2921 C2919 1.390 . S
C2921 C2922 1.387 . S
C2921 H2924 0.950 . S
C2922 C2921 1.387 . S
C2922 C2925 1.387 1_655 S
H2923 C2919 0.950 . S
H2924 C2921 0.950 . S
C2925 C2916 1.390 . S
C2925 H2918 0.950 . S
C2925 C2922 1.387 1_455 S
C2926 C2927 1.387 . S
C2926 H2930 0.950 . S
C2926 C2935 1.390 . S
C2927 C2926 1.387 . S
C2927 C2929 1.387 . S
H2928 C2935 0.950 . S
C2929 C2927 1.387 . S
C2929 C2931 1.390 . S
C2929 H2933 0.950 . S
H2930 C2926 0.950 . S
C2931 C2929 1.390 . S
C2931 C2932 1.387 . S
C2931 H2934 0.950 . S
C2932 C2931 1.387 . S
C2932 C2935 1.387 . S
H2933 C2929 0.950 . S
H2934 C2931 0.950 . S
C2935 C2926 1.390 . S
C2935 H2928 0.950 . S
C2935 C2932 1.387 . S
C2936 C2937 1.387 . S
C2936 H2940 0.950 . S
C2936 C2945 1.390 . S
C2937 C2936 1.387 . S
C2937 C2939 1.387 . S
H2938 C2945 0.950 . S
C2939 C2937 1.387 . S
C2939 C2941 1.390 . S
C2939 H2943 0.950 . S
H2940 C2936 0.950 . S
C2941 C2939 1.390 . S
C2941 C2942 1.387 . S
C2941 H2944 0.950 . S
C2942 C2941 1.387 . S
C2942 C2945 1.387 . S
H2943 C2939 0.950 . S
H2944 C2941 0.950 . S
C2945 C2936 1.390 . S
C2945 H2938 0.950 . S
C2945 C2942 1.387 . S
C2946 C2947 1.387 . S
C2946 H2950 0.950 . S
C2946 C2955 1.390 . S
C2947 C2946 1.387 . S
C2947 C2949 1.387 . S
H2948 C2955 0.950 . S
C2949 C2947 1.387 . S
C2949 C2951 1.390 . S
C2949 H2953 0.950 . S
H2950 C2946 0.950 . S
C2951 C2949 1.390 . S
C2951 C2952 1.387 . S
C2951 H2954 0.950 . S
C2952 C2951 1.387 . S
C2952 C2955 1.387 . S
H2953 C2949 0.950 . S
H2954 C2951 0.950 . S
C2955 C2946 1.390 . S
C2955 H2948 0.950 . S
C2955 C2952 1.387 . S
C2956 C2957 1.387 . S
C2956 H2960 0.950 . S
C2956 C2965 1.390 . S
C2957 C2956 1.387 . S
C2957 C2959 1.387 . S
H2958 C2965 0.950 . S
C2959 C2957 1.387 . S
C2959 C2961 1.390 . S
C2959 H2963 0.950 . S
H2960 C2956 0.950 . S
C2961 C2959 1.390 . S
C2961 C2962 1.387 . S
C2961 H2964 0.950 . S
C2962 C2961 1.387 . S
C2962 C2965 1.387 . S
H2963 C2959 0.950 . S
H2964 C2961 0.950 . S
C2965 C2956 1.390 . S
C2965 H2958 0.950 . S
C2965 C2962 1.387 . S
C2966 C2967 1.387 1_655 S
C2966 H2970 0.950 . S
C2966 C2975 1.390 1_556 S
C2967 C2966 1.387 1_455 S
C2967 C2969 1.387 . S
H2968 C2975 0.950 . S
C2969 C2967 1.387 . S
C2969 C2971 1.390 1_556 S
C2969 H2973 0.950 . S
H2970 C2966 0.950 . S
C2971 C2969 1.390 1_554 S
C2971 C2972 1.387 1_455 S
C2971 H2974 0.950 . S
C2972 C2971 1.387 1_655 S
C2972 C2975 1.387 . S
H2973 C2969 0.950 . S
H2974 C2971 0.950 . S
C2975 C2966 1.390 1_554 S
C2975 H2968 0.950 . S
C2975 C2972 1.387 . S
C2976 C2977 1.387 1_565 S
C2976 H2980 0.950 . S
C2976 C2985 1.390 . S
C2977 C2976 1.387 1_545 S
C2977 C2979 1.387 . S
H2978 C2985 0.950 . S
C2979 C2977 1.387 . S
C2979 C2981 1.390 1_545 S
C2979 H2983 0.950 . S
H2980 C2976 0.950 . S
C2981 C2979 1.390 1_565 S
C2981 C2982 1.387 . S
C2981 H2984 0.950 . S
C2982 C2981 1.387 . S
C2982 C2985 1.387 . S
H2983 C2979 0.950 . S
H2984 C2981 0.950 . S
C2985 C2976 1.390 . S
C2985 H2978 0.950 . S
C2985 C2982 1.387 . S
C2986 C2987 1.387 . S
C2986 H2990 0.950 . S
C2986 C2995 1.390 . S
C2987 C2986 1.387 . S
C2987 C2989 1.387 . S
H2988 C2995 0.950 . S
C2989 C2987 1.387 . S
C2989 C2991 1.390 . S
C2989 H2993 0.950 . S
H2990 C2986 0.950 . S
C2991 C2989 1.390 . S
C2991 C2992 1.387 . S
C2991 H2994 0.950 . S
C2992 C2991 1.387 . S
C2992 C2995 1.387 . S
H2993 C2989 0.950 . S
H2994 C2991 0.950 . S
C2995 C2986 1.390 . S
C2995 H2988 0.950 . S
C2995 C2992 1.387 . S
C2996 C2997 1.387 1_565 S
C2996 H3000 0.950 . S
C2996 C3005 1.390 . S
C2997 C2996 1.387 1_545 S
C2997 C2999 1.387 . S
H2998 C3005 0.950 . S
C2999 C2997 1.387 . S
C2999 C3001 1.390 . S
C2999 H3003 0.950 . S
H3000 C2996 0.950 . S
C3001 C2999 1.390 . S
C3001 C3002 1.387 1_545 S
C3001 H3004 0.950 . S
C3002 C3001 1.387 1_565 S
C3002 C3005 1.387 . S
H3003 C2999 0.950 . S
H3004 C3001 0.950 . S
C3005 C2996 1.390 . S
C3005 H2998 0.950 . S
C3005 C3002 1.387 . S
C3006 C3007 1.387 . S
C3006 H3010 0.950 . S
C3006 C3015 1.402 . S
C3007 C3006 1.387 . S
C3007 C3009 1.387 . S
H3008 C3015 0.946 1_554 S
C3009 C3007 1.387 . S
C3009 C3011 1.390 1_556 S
C3009 H3013 0.950 . S
H3010 C3006 0.950 . S
C3011 C3009 1.390 1_554 S
C3011 C3012 1.387 . S
C3011 H3014 0.950 . S
C3012 C3011 1.387 . S
C3012 C3015 1.379 1_554 S
H3013 C3009 0.950 . S
H3014 C3011 0.950 . S
C3015 C3006 1.402 . S
C3015 H3008 0.946 1_556 S
C3015 C3012 1.379 1_556 S
C3016 C3017 1.387 . S
C3016 H3020 0.950 . S
C3016 C3025 1.390 1_545 S
C3017 C3016 1.387 . S
C3017 C3019 1.387 . S
H3018 C3025 0.950 . S
C3019 C3017 1.387 . S
C3019 C3021 1.361 1_545 S
C3019 H3023 0.950 . S
H3020 C3016 0.950 . S
C3021 C3019 1.361 1_565 S
C3021 C3022 1.408 . S
C3021 H3024 0.960 . S
C3022 C3021 1.408 . S
C3022 C3025 1.387 . S
H3023 C3019 0.950 . S
H3024 C3021 0.960 . S
C3025 C3016 1.390 1_565 S
C3025 H3018 0.950 . S
C3025 C3022 1.387 . S
C3026 C3027 1.387 . S
C3026 H3030 0.950 . S
C3026 C3035 1.390 . S
C3027 C3026 1.387 . S
C3027 C3029 1.387 . S
H3028 C3035 0.950 . S
C3029 C3027 1.387 . S
C3029 C3031 1.390 . S
C3029 H3033 0.950 . S
H3030 C3026 0.950 . S
C3031 C3029 1.390 . S
C3031 C3032 1.387 . S
C3031 H3034 0.950 . S
C3032 C3031 1.387 . S
C3032 C3035 1.387 . S
H3033 C3029 0.950 . S
H3034 C3031 0.950 . S
C3035 C3026 1.390 . S
C3035 H3028 0.950 . S
C3035 C3032 1.387 . S
C3036 C3037 1.387 1_565 S
C3036 H3040 0.950 . S
C3036 C3045 1.390 . S
C3037 C3036 1.387 1_545 S
C3037 C3039 1.387 . S
H3038 C3045 0.950 . S
C3039 C3037 1.387 . S
C3039 C3041 1.390 . S
C3039 H3043 0.950 . S
H3040 C3036 0.950 . S
C3041 C3039 1.390 . S
C3041 C3042 1.387 1_545 S
C3041 H3044 0.950 . S
C3042 C3041 1.387 1_565 S
C3042 C3045 1.387 . S
H3043 C3039 0.950 . S
H3044 C3041 0.950 . S
C3045 C3036 1.390 . S
C3045 H3038 0.950 . S
C3045 C3042 1.387 . S
C3046 C3047 1.367 1_554 S
C3046 H3050 0.943 1_554 S
C3046 C3055 1.418 . S
C3047 C3046 1.367 1_556 S
C3047 C3049 1.387 . S
H3048 C3055 0.950 . S
C3049 C3047 1.387 . S
C3049 C3051 1.390 1_556 S
C3049 H3053 0.950 . S
H3050 C3046 0.943 1_556 S
C3051 C3049 1.390 1_554 S
C3051 C3052 1.387 . S
C3051 H3054 0.950 . S
C3052 C3051 1.387 . S
C3052 C3055 1.387 . S
H3053 C3049 0.950 . S
H3054 C3051 0.950 . S
C3055 C3046 1.418 . S
C3055 H3048 0.950 . S
C3055 C3052 1.387 . S
C3056 C3057 1.387 . S
C3056 H3060 0.950 . S
C3056 C3065 1.390 . S
C3057 C3056 1.387 . S
C3057 C3059 1.387 . S
H3058 C3065 0.950 1_455 S
C3059 C3057 1.387 . S
C3059 C3061 1.390 1_655 S
C3059 H3063 0.950 . S
H3060 C3056 0.950 . S
C3061 C3059 1.390 1_455 S
C3061 C3062 1.387 . S
C3061 H3064 0.950 . S
C3062 C3061 1.387 . S
C3062 C3065 1.387 1_455 S
H3063 C3059 0.950 . S
H3064 C3061 0.950 . S
C3065 C3056 1.390 . S
C3065 H3058 0.950 1_655 S
C3065 C3062 1.387 1_655 S
C3066 C3067 1.387 . S
C3066 H3070 0.950 . S
C3066 C3075 1.390 . S
C3067 C3066 1.387 . S
C3067 C3069 1.387 . S
H3068 C3075 0.950 . S
C3069 C3067 1.387 . S
C3069 C3071 1.390 . S
C3069 H3073 0.950 . S
H3070 C3066 0.950 . S
C3071 C3069 1.390 . S
C3071 C3072 1.387 . S
C3071 H3074 0.950 . S
C3072 C3071 1.387 . S
C3072 C3075 1.387 . S
H3073 C3069 0.950 . S
H3074 C3071 0.950 . S
C3075 C3066 1.390 . S
C3075 H3068 0.950 . S
C3075 C3072 1.387 . S
C3076 C3077 1.368 1_455 S
C3076 H3080 0.942 1_455 S
C3076 C3085 1.420 . S
C3077 C3076 1.368 1_655 S
C3077 C3079 1.387 . S
H3078 C3085 0.950 . S
C3079 C3077 1.387 . S
C3079 C3081 1.390 1_655 S
C3079 H3083 0.950 . S
H3080 C3076 0.942 1_655 S
C3081 C3079 1.390 1_455 S
C3081 C3082 1.387 . S
C3081 H3084 0.950 . S
C3082 C3081 1.387 . S
C3082 C3085 1.387 . S
H3083 C3079 0.950 . S
H3084 C3081 0.950 . S
C3085 C3076 1.420 . S
C3085 H3078 0.950 . S
C3085 C3082 1.387 . S
C3086 C3087 1.387 . S
C3086 H3090 0.950 . S
C3086 C3095 1.390 1_655 S
C3087 C3086 1.387 . S
C3087 C3089 1.387 . S
H3088 C3095 0.950 . S
C3089 C3087 1.387 . S
C3089 C3091 1.390 1_655 S
C3089 H3093 0.950 . S
H3090 C3086 0.950 . S
C3091 C3089 1.390 1_455 S
C3091 C3092 1.387 . S
C3091 H3094 0.950 . S
C3092 C3091 1.387 . S
C3092 C3095 1.387 . S
H3093 C3089 0.950 . S
H3094 C3091 0.950 . S
C3095 C3086 1.390 1_455 S
C3095 H3088 0.950 . S
C3095 C3092 1.387 . S
C3096 C3097 1.387 . S
C3096 H3100 0.950 . S
C3096 C3105 1.390 . S
C3097 C3096 1.387 . S
C3097 C3099 1.387 . S
H3098 C3105 0.950 . S
C3099 C3097 1.387 . S
C3099 C3101 1.390 . S
C3099 H3103 0.950 . S
H3100 C3096 0.950 . S
C3101 C3099 1.390 . S
C3101 C3102 1.387 . S
C3101 H3104 0.950 . S
C3102 C3101 1.387 . S
C3102 C3105 1.387 . S
H3103 C3099 0.950 . S
H3104 C3101 0.950 . S
C3105 C3096 1.390 . S
C3105 H3098 0.950 . S
C3105 C3102 1.387 . S
C3106 C3107 1.387 . S
C3106 H3110 0.950 . S
C3106 C3115 1.390 . S
C3107 C3106 1.387 . S
C3107 C3109 1.387 . S
H3108 C3115 0.950 . S
C3109 C3107 1.387 . S
C3109 C3111 1.390 1_655 S
C3109 H3113 0.950 . S
H3110 C3106 0.950 . S
C3111 C3109 1.390 1_455 S
C3111 C3112 1.387 . S
C3111 H3114 0.950 . S
C3112 C3111 1.387 . S
C3112 C3115 1.387 1_455 S
H3113 C3109 0.950 . S
H3114 C3111 0.950 . S
C3115 C3106 1.390 . S
C3115 H3108 0.950 . S
C3115 C3112 1.387 1_655 S
C3116 C3117 1.387 . S
C3116 H3120 0.950 . S
C3116 C3125 1.390 . S
C3117 C3116 1.387 . S
C3117 C3119 1.387 . S
H3118 C3125 0.950 . S
C3119 C3117 1.387 . S
C3119 C3121 1.390 . S
C3119 H3123 0.950 . S
H3120 C3116 0.950 . S
C3121 C3119 1.390 . S
C3121 C3122 1.387 . S
C3121 H3124 0.950 . S
C3122 C3121 1.387 . S
C3122 C3125 1.387 . S
H3123 C3119 0.950 . S
H3124 C3121 0.950 . S
C3125 C3116 1.390 . S
C3125 H3118 0.950 . S
C3125 C3122 1.387 . S
C3126 C3127 1.387 1_565 S
C3126 H3130 0.950 . S
C3126 C3135 1.390 . S
C3127 C3126 1.387 1_545 S
C3127 C3129 1.387 . S
H3128 C3135 0.950 . S
C3129 C3127 1.387 . S
C3129 C3131 1.390 . S
C3129 H3133 0.950 . S
H3130 C3126 0.950 . S
C3131 C3129 1.390 . S
C3131 C3132 1.387 1_545 S
C3131 H3134 0.950 . S
C3132 C3131 1.387 1_565 S
C3132 C3135 1.387 . S
H3133 C3129 0.950 . S
H3134 C3131 0.950 . S
C3135 C3126 1.390 . S
C3135 H3128 0.950 . S
C3135 C3132 1.387 . S
C3136 C3137 1.387 . S
C3136 H3140 0.950 . S
C3136 C3145 1.390 . S
C3137 C3136 1.387 . S
C3137 C3139 1.387 . S
H3138 C3145 0.950 . S
C3139 C3137 1.387 . S
C3139 C3141 1.390 . S
C3139 H3143 0.950 . S
H3140 C3136 0.950 . S
C3141 C3139 1.390 . S
C3141 C3142 1.387 . S
C3141 H3144 0.950 . S
C3142 C3141 1.387 . S
C3142 C3145 1.387 . S
H3143 C3139 0.950 . S
H3144 C3141 0.950 . S
C3145 C3136 1.390 . S
C3145 H3138 0.950 . S
C3145 C3142 1.387 . S
C3146 C3147 1.387 . S
C3146 H3150 0.950 . S
C3146 C3155 1.390 . S
C3147 C3146 1.387 . S
C3147 C3149 1.383 . S
H3148 C3155 0.950 . S
C3149 C3147 1.383 . S
C3149 C3151 1.393 1_565 S
C3149 H3153 0.951 1_565 S
H3150 C3146 0.950 . S
C3151 C3149 1.393 1_545 S
C3151 C3152 1.387 . S
C3151 H3154 0.950 . S
C3152 C3151 1.387 . S
C3152 C3155 1.387 1_545 S
H3153 C3149 0.951 1_545 S
H3154 C3151 0.950 . S
C3155 C3146 1.390 . S
C3155 H3148 0.950 . S
C3155 C3152 1.387 1_565 S
C3156 C3157 1.387 1_554 S
C3156 H3160 0.950 . S
C3156 C3165 1.390 . S
C3157 C3156 1.387 1_556 S
C3157 C3159 1.387 . S
H3158 C3165 0.950 . S
C3159 C3157 1.387 . S
C3159 C3161 1.390 1_556 S
C3159 H3163 0.950 . S
H3160 C3156 0.950 . S
C3161 C3159 1.390 1_554 S
C3161 C3162 1.387 . S
C3161 H3164 0.950 . S
C3162 C3161 1.387 . S
C3162 C3165 1.387 . S
H3163 C3159 0.950 . S
H3164 C3161 0.950 . S
C3165 C3156 1.390 . S
C3165 H3158 0.950 . S
C3165 C3162 1.387 . S
C3166 C3167 1.387 1_565 S
C3166 H3170 0.950 . S
C3166 C3175 1.390 . S
C3167 C3166 1.387 1_545 S
C3167 C3169 1.387 . S
H3168 C3175 0.950 . S
C3169 C3167 1.387 . S
C3169 C3171 1.414 . S
C3169 H3173 0.950 . S
H3170 C3166 0.950 . S
C3171 C3169 1.414 . S
C3171 C3172 1.355 1_545 S
C3171 H3174 0.959 . S
C3172 C3171 1.355 1_565 S
C3172 C3175 1.387 . S
H3173 C3169 0.950 . S
H3174 C3171 0.959 . S
C3175 C3166 1.390 . S
C3175 H3168 0.950 . S
C3175 C3172 1.387 . S
C3176 C3177 1.387 . S
C3176 H3180 0.950 . S
C3176 C3185 1.390 . S
C3177 C3176 1.387 . S
C3177 C3179 1.387 . S
H3178 C3185 0.950 . S
C3179 C3177 1.387 . S
C3179 C3181 1.390 . S
C3179 H3183 0.950 . S
H3180 C3176 0.950 . S
C3181 C3179 1.390 . S
C3181 C3182 1.387 . S
C3181 H3184 0.950 . S
C3182 C3181 1.387 . S
C3182 C3185 1.387 . S
H3183 C3179 0.950 . S
H3184 C3181 0.950 . S
C3185 C3176 1.390 . S
C3185 H3178 0.950 . S
C3185 C3182 1.387 . S
C3186 C3187 1.387 1_545 S
C3186 H3190 0.950 . S
C3186 C3195 1.390 . S
C3187 C3186 1.387 1_565 S
C3187 C3189 1.387 . S
H3188 C3195 0.950 . S
C3189 C3187 1.387 . S
C3189 C3191 1.390 . S
C3189 H3193 0.950 . S
H3190 C3186 0.950 . S
C3191 C3189 1.390 . S
C3191 C3192 1.387 1_565 S
C3191 H3194 0.950 . S
C3192 C3191 1.387 1_545 S
C3192 C3195 1.387 . S
H3193 C3189 0.950 . S
H3194 C3191 0.950 . S
C3195 C3186 1.390 . S
C3195 H3188 0.950 . S
C3195 C3192 1.387 . S
C3196 C3197 1.387 . S
C3196 H3200 0.950 . S
C3196 C3205 1.390 1_554 S
C3197 C3196 1.387 . S
C3197 C3199 1.378 1_554 S
H3198 C3205 0.950 . S
C3199 C3197 1.378 1_556 S
C3199 C3201 1.404 . S
C3199 H3203 0.947 1_556 S
H3200 C3196 0.950 . S
C3201 C3199 1.404 . S
C3201 C3202 1.387 . S
C3201 H3204 0.950 . S
C3202 C3201 1.387 . S
C3202 C3205 1.387 . S
H3203 C3199 0.947 1_554 S
H3204 C3201 0.950 . S
C3205 C3196 1.390 1_556 S
C3205 H3198 0.950 . S
C3205 C3202 1.387 . S
C3206 C3207 1.387 1_455 S
C3206 H3210 0.950 1_455 S
C3206 C3215 1.390 . S
C3207 C3206 1.387 1_655 S
C3207 C3209 1.387 . S
H3208 C3215 0.950 . S
C3209 C3207 1.387 . S
C3209 C3211 1.390 1_655 S
C3209 H3213 0.950 . S
H3210 C3206 0.950 1_655 S
C3211 C3209 1.390 1_455 S
C3211 C3212 1.387 . S
C3211 H3214 0.950 . S
C3212 C3211 1.387 . S
C3212 C3215 1.387 . S
H3213 C3209 0.950 . S
H3214 C3211 0.950 . S
C3215 C3206 1.390 . S
C3215 H3208 0.950 . S
C3215 C3212 1.387 . S
C3216 C3217 1.387 . S
C3216 H3220 0.950 . S
C3216 C3225 1.390 . S
C3217 C3216 1.387 . S
C3217 C3219 1.387 . S
H3218 C3225 0.950 . S
C3219 C3217 1.387 . S
C3219 C3221 1.390 . S
C3219 H3223 0.950 . S
H3220 C3216 0.950 . S
C3221 C3219 1.390 . S
C3221 C3222 1.387 . S
C3221 H3224 0.950 . S
C3222 C3221 1.387 . S
C3222 C3225 1.387 . S
H3223 C3219 0.950 . S
H3224 C3221 0.950 . S
C3225 C3216 1.390 . S
C3225 H3218 0.950 . S
C3225 C3222 1.387 . S
C3226 C3227 1.387 . S
C3226 H3230 0.950 . S
C3226 C3235 1.390 1_455 S
C3227 C3226 1.387 . S
C3227 C3229 1.374 1_455 S
H3228 C3235 0.950 . S
C3229 C3227 1.374 1_655 S
C3229 C3231 1.410 . S
C3229 H3233 0.944 1_655 S
H3230 C3226 0.950 . S
C3231 C3229 1.410 . S
C3231 C3232 1.387 . S
C3231 H3234 0.950 . S
C3232 C3231 1.387 . S
C3232 C3235 1.387 . S
H3233 C3229 0.944 1_455 S
H3234 C3231 0.950 . S
C3235 C3226 1.390 1_655 S
C3235 H3228 0.950 . S
C3235 C3232 1.387 . S
C3236 C3237 1.387 . S
C3236 H3240 0.950 . S
C3236 C3245 1.390 1_455 S
C3237 C3236 1.387 . S
C3237 C3239 1.389 1_455 S
H3238 C3245 0.950 . S
C3239 C3237 1.389 1_655 S
C3239 C3241 1.388 . S
C3239 H3243 0.951 1_655 S
H3240 C3236 0.950 . S
C3241 C3239 1.388 . S
C3241 C3242 1.387 . S
C3241 H3244 0.950 . S
C3242 C3241 1.387 . S
C3242 C3245 1.387 . S
H3243 C3239 0.951 1_455 S
H3244 C3241 0.950 . S
C3245 C3236 1.390 1_655 S
C3245 H3238 0.950 . S
C3245 C3242 1.387 . S
C3246 C3247 1.387 . S
C3246 H3250 0.950 . S
C3246 C3255 1.390 . S
C3247 C3246 1.387 . S
C3247 C3249 1.387 . S
H3248 C3255 0.950 . S
C3249 C3247 1.387 . S
C3249 C3251 1.390 . S
C3249 H3253 0.950 . S
H3250 C3246 0.950 . S
C3251 C3249 1.390 . S
C3251 C3252 1.387 . S
C3251 H3254 0.950 . S
C3252 C3251 1.387 . S
C3252 C3255 1.387 . S
H3253 C3249 0.950 . S
H3254 C3251 0.950 . S
C3255 C3246 1.390 . S
C3255 H3248 0.950 . S
C3255 C3252 1.387 . S
C3256 C3257 1.387 1_455 S
C3256 H3260 0.950 . S
C3256 C3265 1.390 . S
C3257 C3256 1.387 1_655 S
C3257 C3259 1.387 . S
H3258 C3265 0.950 . S
C3259 C3257 1.387 . S
C3259 C3261 1.390 1_655 S
C3259 H3263 0.950 . S
H3260 C3256 0.950 . S
C3261 C3259 1.390 1_455 S
C3261 C3262 1.387 . S
C3261 H3264 0.950 . S
C3262 C3261 1.387 . S
C3262 C3265 1.387 . S
H3263 C3259 0.950 . S
H3264 C3261 0.950 . S
C3265 C3256 1.390 . S
C3265 H3258 0.950 . S
C3265 C3262 1.387 . S
C3266 C3267 1.387 . S
C3266 H3270 0.950 . S
C3266 C3275 1.390 . S
C3267 C3266 1.387 . S
C3267 C3269 1.387 . S
H3268 C3275 0.950 . S
C3269 C3267 1.387 . S
C3269 C3271 1.390 . S
C3269 H3273 0.950 . S
H3270 C3266 0.950 . S
C3271 C3269 1.390 . S
C3271 C3272 1.387 . S
C3271 H3274 0.950 . S
C3272 C3271 1.387 . S
C3272 C3275 1.387 . S
H3273 C3269 0.950 . S
H3274 C3271 0.950 . S
C3275 C3266 1.390 . S
C3275 H3268 0.950 . S
C3275 C3272 1.387 . S
C3276 C3277 1.387 . S
C3276 H3280 0.950 . S
C3276 C3285 1.390 . S
C3277 C3276 1.387 . S
C3277 C3279 1.387 . S
H3278 C3285 0.950 . S
C3279 C3277 1.387 . S
C3279 C3281 1.390 . S
C3279 H3283 0.950 . S
H3280 C3276 0.950 . S
C3281 C3279 1.390 . S
C3281 C3282 1.387 . S
C3281 H3284 0.950 . S
C3282 C3281 1.387 . S
C3282 C3285 1.387 . S
H3283 C3279 0.950 . S
H3284 C3281 0.950 . S
C3285 C3276 1.390 . S
C3285 H3278 0.950 . S
C3285 C3282 1.387 . S
C3286 C3287 1.387 . S
C3286 H3290 0.950 . S
C3286 C3295 1.390 1_554 S
C3287 C3286 1.387 . S
C3287 C3289 1.387 . S
H3288 C3295 0.950 . S
C3289 C3287 1.387 . S
C3289 C3291 1.390 1_554 S
C3289 H3293 0.950 . S
H3290 C3286 0.950 . S
C3291 C3289 1.390 1_556 S
C3291 C3292 1.387 . S
C3291 H3294 0.950 . S
C3292 C3291 1.387 . S
C3292 C3295 1.387 . S
H3293 C3289 0.950 . S
H3294 C3291 0.950 . S
C3295 C3286 1.390 1_556 S
C3295 H3288 0.950 . S
C3295 C3292 1.387 . S
C3296 C3297 1.387 . S
C3296 H3300 0.950 . S
C3296 C3305 1.390 . S
C3297 C3296 1.387 . S
C3297 C3299 1.387 . S
H3298 C3305 0.950 . S
C3299 C3297 1.387 . S
C3299 C3301 1.390 . S
C3299 H3303 0.950 . S
H3300 C3296 0.950 . S
C3301 C3299 1.390 . S
C3301 C3302 1.387 . S
C3301 H3304 0.950 . S
C3302 C3301 1.387 . S
C3302 C3305 1.387 . S
H3303 C3299 0.950 . S
H3304 C3301 0.950 . S
C3305 C3296 1.390 . S
C3305 H3298 0.950 . S
C3305 C3302 1.387 . S
C3306 C3307 1.387 . S
C3306 H3310 0.950 . S
C3306 C3315 1.390 . S
C3307 C3306 1.387 . S
C3307 C3309 1.387 . S
H3308 C3315 0.950 . S
C3309 C3307 1.387 . S
C3309 C3311 1.390 . S
C3309 H3313 0.950 . S
H3310 C3306 0.950 . S
C3311 C3309 1.390 . S
C3311 C3312 1.387 . S
C3311 H3314 0.950 . S
C3312 C3311 1.387 . S
C3312 C3315 1.387 . S
H3313 C3309 0.950 . S
H3314 C3311 0.950 . S
C3315 C3306 1.390 . S
C3315 H3308 0.950 . S
C3315 C3312 1.387 . S
C3316 C3317 1.387 . S
C3316 H3320 0.950 . S
C3316 C3325 1.390 . S
C3317 C3316 1.387 . S
C3317 C3319 1.387 . S
H3318 C3325 0.950 . S
C3319 C3317 1.387 . S
C3319 C3321 1.390 . S
C3319 H3323 0.950 . S
H3320 C3316 0.950 . S
C3321 C3319 1.390 . S
C3321 C3322 1.387 . S
C3321 H3324 0.950 . S
C3322 C3321 1.387 . S
C3322 C3325 1.387 . S
H3323 C3319 0.950 . S
H3324 C3321 0.950 . S
C3325 C3316 1.390 . S
C3325 H3318 0.950 . S
C3325 C3322 1.387 . S
C3326 C3327 1.387 . S
C3326 H3330 0.950 . S
C3326 C3335 1.390 1_554 S
C3327 C3326 1.387 . S
C3327 C3329 1.387 . S
H3328 C3335 0.950 . S
C3329 C3327 1.387 . S
C3329 C3331 1.390 . S
C3329 H3333 0.950 . S
H3330 C3326 0.950 . S
C3331 C3329 1.390 . S
C3331 C3332 1.387 1_554 S
C3331 H3334 0.950 . S
C3332 C3331 1.387 1_556 S
C3332 C3335 1.387 . S
H3333 C3329 0.950 . S
H3334 C3331 0.950 . S
C3335 C3326 1.390 1_556 S
C3335 H3328 0.950 . S
C3335 C3332 1.387 . S
C3336 C3337 1.387 . S
C3336 H3340 0.950 . S
C3336 C3345 1.390 . S
C3337 C3336 1.387 . S
C3337 C3339 1.387 . S
H3338 C3345 0.950 . S
C3339 C3337 1.387 . S
C3339 C3341 1.390 . S
C3339 H3343 0.950 . S
H3340 C3336 0.950 . S
C3341 C3339 1.390 . S
C3341 C3342 1.387 . S
C3341 H3344 0.950 . S
C3342 C3341 1.387 . S
C3342 C3345 1.387 . S
H3343 C3339 0.950 . S
H3344 C3341 0.950 . S
C3345 C3336 1.390 . S
C3345 H3338 0.950 . S
C3345 C3342 1.387 . S
C3346 C3347 1.387 . S
C3346 H3350 0.950 . S
C3346 C3355 1.390 . S
C3347 C3346 1.387 . S
C3347 C3349 1.387 . S
H3348 C3355 0.950 . S
C3349 C3347 1.387 . S
C3349 C3351 1.390 . S
C3349 H3353 0.950 . S
H3350 C3346 0.950 . S
C3351 C3349 1.390 . S
C3351 C3352 1.387 . S
C3351 H3354 0.950 . S
C3352 C3351 1.387 . S
C3352 C3355 1.387 . S
H3353 C3349 0.950 . S
H3354 C3351 0.950 . S
C3355 C3346 1.390 . S
C3355 H3348 0.950 . S
C3355 C3352 1.387 . S
C3356 C3357 1.387 . S
C3356 H3360 0.950 . S
C3356 C3365 1.390 . S
C3357 C3356 1.387 . S
C3357 C3359 1.387 . S
H3358 C3365 0.950 . S
C3359 C3357 1.387 . S
C3359 C3361 1.390 . S
C3359 H3363 0.950 . S
H3360 C3356 0.950 . S
C3361 C3359 1.390 . S
C3361 C3362 1.387 . S
C3361 H3364 0.950 . S
C3362 C3361 1.387 . S
C3362 C3365 1.387 . S
H3363 C3359 0.950 . S
H3364 C3361 0.950 . S
C3365 C3356 1.390 . S
C3365 H3358 0.950 . S
C3365 C3362 1.387 . S
C3366 C3367 1.387 . S
C3366 H3370 0.950 . S
C3366 C3375 1.390 . S
C3367 C3366 1.387 . S
C3367 C3369 1.387 . S
H3368 C3375 0.950 . S
C3369 C3367 1.387 . S
C3369 C3371 1.390 . S
C3369 H3373 0.950 . S
H3370 C3366 0.950 . S
C3371 C3369 1.390 . S
C3371 C3372 1.387 . S
C3371 H3374 0.950 . S
C3372 C3371 1.387 . S
C3372 C3375 1.387 . S
H3373 C3369 0.950 . S
H3374 C3371 0.950 . S
C3375 C3366 1.390 . S
C3375 H3368 0.950 . S
C3375 C3372 1.387 . S
C3376 C3377 1.387 . S
C3376 H3380 0.950 . S
C3376 C3385 1.390 . S
C3377 C3376 1.387 . S
C3377 C3379 1.387 . S
H3378 C3385 0.950 1_556 S
C3379 C3377 1.387 . S
C3379 C3381 1.390 1_554 S
C3379 H3383 0.950 . S
H3380 C3376 0.950 . S
C3381 C3379 1.390 1_556 S
C3381 C3382 1.387 . S
C3381 H3384 0.950 . S
C3382 C3381 1.387 . S
C3382 C3385 1.388 1_556 S
H3383 C3379 0.950 . S
H3384 C3381 0.950 . S
C3385 C3376 1.390 . S
C3385 H3378 0.950 1_554 S
C3385 C3382 1.388 1_554 S
C3386 C3387 1.387 . S
C3386 H3390 0.950 . S
C3386 C3395 1.390 . S
C3387 C3386 1.387 . S
C3387 C3389 1.387 . S
H3388 C3395 0.950 . S
C3389 C3387 1.387 . S
C3389 C3391 1.390 . S
C3389 H3393 0.950 . S
H3390 C3386 0.950 . S
C3391 C3389 1.390 . S
C3391 C3392 1.387 . S
C3391 H3394 0.950 . S
C3392 C3391 1.387 . S
C3392 C3395 1.387 . S
H3393 C3389 0.950 . S
H3394 C3391 0.950 . S
C3395 C3386 1.390 . S
C3395 H3388 0.950 . S
C3395 C3392 1.387 . S
C3396 C3397 1.387 . S
C3396 H3400 0.950 . S
C3396 C3405 1.390 . S
C3397 C3396 1.387 . S
C3397 C3399 1.387 . S
H3398 C3405 0.950 . S
C3399 C3397 1.387 . S
C3399 C3401 1.390 . S
C3399 H3403 0.950 . S
H3400 C3396 0.950 . S
C3401 C3399 1.390 . S
C3401 C3402 1.387 . S
C3401 H3404 0.950 . S
C3402 C3401 1.387 . S
C3402 C3405 1.387 . S
H3403 C3399 0.950 . S
H3404 C3401 0.950 . S
C3405 C3396 1.390 . S
C3405 H3398 0.950 . S
C3405 C3402 1.387 . S
C3406 C3407 1.387 . S
C3406 H3410 0.950 . S
C3406 C3415 1.390 . S
C3407 C3406 1.387 . S
C3407 C3409 1.387 . S
H3408 C3415 0.950 . S
C3409 C3407 1.387 . S
C3409 C3411 1.390 . S
C3409 H3413 0.950 . S
H3410 C3406 0.950 . S
C3411 C3409 1.390 . S
C3411 C3412 1.387 . S
C3411 H3414 0.950 . S
C3412 C3411 1.387 . S
C3412 C3415 1.387 . S
H3413 C3409 0.950 . S
H3414 C3411 0.950 . S
C3415 C3406 1.390 . S
C3415 H3408 0.950 . S
C3415 C3412 1.387 . S
C3416 C3417 1.387 . S
C3416 H3420 0.950 . S
C3416 C3425 1.390 1_554 S
C3417 C3416 1.387 . S
C3417 C3419 1.387 . S
H3418 C3425 0.950 . S
C3419 C3417 1.387 . S
C3419 C3421 1.390 1_554 S
C3419 H3423 0.950 . S
H3420 C3416 0.950 . S
C3421 C3419 1.390 1_556 S
C3421 C3422 1.387 . S
C3421 H3424 0.950 . S
C3422 C3421 1.387 . S
C3422 C3425 1.387 . S
H3423 C3419 0.950 . S
H3424 C3421 0.950 . S
C3425 C3416 1.390 1_556 S
C3425 H3418 0.950 . S
C3425 C3422 1.387 . S
C3426 C3427 1.387 . S
C3426 H3430 0.950 . S
C3426 C3435 1.390 . S
C3427 C3426 1.387 . S
C3427 C3429 1.387 . S
H3428 C3435 0.950 . S
C3429 C3427 1.387 . S
C3429 C3431 1.390 . S
C3429 H3433 0.950 . S
H3430 C3426 0.950 . S
C3431 C3429 1.390 . S
C3431 C3432 1.387 . S
C3431 H3434 0.950 . S
C3432 C3431 1.387 . S
C3432 C3435 1.387 . S
H3433 C3429 0.950 . S
H3434 C3431 0.950 . S
C3435 C3426 1.390 . S
C3435 H3428 0.950 . S
C3435 C3432 1.387 . S
C3436 C3437 1.387 . S
C3436 H3440 0.950 . S
C3436 C3445 1.390 . S
C3437 C3436 1.387 . S
C3437 C3439 1.387 . S
H3438 C3445 0.950 . S
C3439 C3437 1.387 . S
C3439 C3441 1.390 . S
C3439 H3443 0.950 . S
H3440 C3436 0.950 . S
C3441 C3439 1.390 . S
C3441 C3442 1.387 . S
C3441 H3444 0.950 . S
C3442 C3441 1.387 . S
C3442 C3445 1.387 . S
H3443 C3439 0.950 . S
H3444 C3441 0.950 . S
C3445 C3436 1.390 . S
C3445 H3438 0.950 . S
C3445 C3442 1.387 . S
C3446 C3447 1.387 . S
C3446 H3450 0.950 . S
C3446 C3455 1.390 . S
C3447 C3446 1.387 . S
C3447 C3449 1.387 . S
H3448 C3455 0.950 . S
C3449 C3447 1.387 . S
C3449 C3451 1.390 . S
C3449 H3453 0.950 . S
H3450 C3446 0.950 . S
C3451 C3449 1.390 . S
C3451 C3452 1.387 . S
C3451 H3454 0.950 . S
C3452 C3451 1.387 . S
C3452 C3455 1.387 . S
H3453 C3449 0.950 . S
H3454 C3451 0.950 . S
C3455 C3446 1.390 . S
C3455 H3448 0.950 . S
C3455 C3452 1.387 . S
C2817 C57 1.026 . S
C2822 C1193 1.026 . S
C2827 C2220 1.026 . S
C2832 C145 1.026 . S
C2837 C225 1.026 . S
C2842 C1377 1.026 . S
C2847 C313 1.026 . S
C2852 C2132 1.026 . S
C2857 C372 1.026 . S
C2862 C1525 1.026 . S
C2867 C460 1.026 . S
C2872 C1993 1.026 . S
C2877 C557 1.026 . S
C2882 C1692 1.026 . S
C2887 C2785 1.026 . S
C2892 C645 1.026 . S
C2897 C1877 1.026 . S
C2902 C733 1.026 . S
C2907 C812 1.026 . S
C2912 C1633 1.026 . S
C2917 C2053 1.026 . S
C2922 C909 1.026 . S
C2927 C1025 1.026 . S
C2932 C1437 1.026 . S
C2937 C1252 1.026 . S
C2942 C1105 1.026 . S
C2947 C1809 1.026 . S
C2952 C2484 1.026 . S
C2957 C2601 1.026 . S
C2962 C2345 1.026 . S
C2967 C2689 1.026 . S
C2972 C2425 1.026 . S
C2977 C29 1.771 . S
C2982 C117 1.770 . S
C2987 C233 1.788 . S
C2992 C108 1.783 . S
C2997 C284 1.772 . S
C3002 C196 1.773 . S
C3007 C293 1.784 . S
C3012 C49 1.788 . S
C3017 C673 1.771 . S
C3022 C401 1.772 . S
C3027 C497 1.783 . S
C3032 C381 1.788 . S
C3037 C585 1.770 . S
C3042 C489 1.771 . S
C3047 C548 1.788 . S
C3052 C665 1.784 . S
C3057 C821 1.789 . S
C3062 C20 1.783 . S
C3067 C753 1.782 . S
C3072 C321 1.787 . S
C3077 C929 1.783 . S
C3082 C137 1.787 . S
C3087 C2405 1.783 . S
C3092 C636 1.788 . S
C3097 C2493 1.788 . S
C3102 C205 1.783 . S
C3107 C1017 1.789 . S
C3112 C409 1.783 . S
C3117 C577 1.783 . S
C3122 C1113 1.789 . S
C3127 C1261 1.769 . S
C3132 C1201 1.769 . S
C3137 C1349 1.780 . S
C3142 C1289 1.795 . S
C3147 C1428 1.771 . S
C3152 C1369 1.771 . S
C3157 C1164 1.779 . S
C3162 C1457 1.794 . S
C3167 C1516 1.772 . S
C3172 C1817 1.772 . S
C3177 C1553 1.779 . S
C3182 C1613 1.794 . S
C3187 C1701 1.772 . S
C3192 C1641 1.772 . S
C3197 C1721 1.778 . S
C3202 C1789 1.795 . S
C3207 C1173 1.795 . S
C3212 C1965 1.780 . S
C3217 C1897 1.794 . S
C3222 C1465 1.780 . S
C3227 C2073 1.794 . S
C3232 C1281 1.777 . S
C3237 C2669 1.794 . S
C3242 C1780 1.777 . S
C3247 C2757 1.779 . S
C3252 C1340 1.794 . S
C3257 C1545 1.795 . S
C3262 C2161 1.780 . S
C3267 C2249 1.778 . S
C3272 C1729 1.795 . S
C3277 C1076 1.773 . S
C3282 C2317 1.773 . S
C3287 C2433 1.789 . S
C3292 C1085 1.782 . S
C3297 C997 1.771 . S
C3302 C2396 1.770 . S
C3307 C988 1.783 . S
C3312 C2337 1.789 . S
C3317 C761 1.773 . S
C3322 C2513 1.772 . S
C3327 C849 1.783 . S
C3332 C724 1.789 . S
C3337 C937 1.770 . S
C3342 C841 1.770 . S
C3347 C900 1.788 . S
C3352 C2521 1.783 . S
C3357 C2308 1.783 . S
C3362 C469 1.788 . S
C3367 C2229 1.769 . S
C3372 C2609 1.769 . S
C3377 C2257 1.794 . S
C3382 C2660 1.779 . S
C3387 C2697 1.771 . S
C3392 C2141 1.772 . S
C3397 C2169 1.794 . S
C3402 C2572 1.777 . S
C3407 C2777 1.769 . S
C3412 C1868 1.769 . S
C3417 C1905 1.778 . S
C3422 C1956 1.795 . S
C3427 C2044 1.772 . S
C3432 C1985 1.771 . S
C3437 C2081 1.779 . S
C3442 C2748 1.794 . S
C3447 C2581 1.794 . S
C3452 C1604 1.777 . S
