# Generated by pormake.
# Topology bcs, (6)-cn, num edge types: 1
# Building blocks:
#     Node 0, Type 0, BuildingBlock: BETDEL_clean_sbu_0, # of connection points: 6
#     Node 1, Type 0, BuildingBlock: BETDEL_clean_sbu_0, # of connection points: 6
#     Node 2, Type 0, BuildingBlock: BETDEL_clean_sbu_0, # of connection points: 6
#     Node 3, Type 0, BuildingBlock: BETDEL_clean_sbu_0, # of connection points: 6
#     Node 4, Type 0, BuildingBlock: BETDEL_clean_sbu_0, # of connection points: 6
#     Node 5, Type 0, BuildingBlock: BETDEL_clean_sbu_0, # of connection points: 6
#     Node 6, Type 0, BuildingBlock: BETDEL_clean_sbu_0, # of connection points: 6
#     Node 7, Type 0, BuildingBlock: BETDEL_clean_sbu_0, # of connection points: 6
#     Node 8, Type 0, BuildingBlock: BETDEL_clean_sbu_0, # of connection points: 6
#     Node 9, Type 0, BuildingBlock: BETDEL_clean_sbu_0, # of connection points: 6
#     Node 10, Type 0, BuildingBlock: BETDEL_clean_sbu_0, # of connection points: 6
#     Node 11, Type 0, BuildingBlock: BETDEL_clean_sbu_0, # of connection points: 6
#     Node 12, Type 0, BuildingBlock: BETDEL_clean_sbu_0, # of connection points: 6
#     Node 13, Type 0, BuildingBlock: BETDEL_clean_sbu_0, # of connection points: 6
#     Node 14, Type 0, BuildingBlock: BETDEL_clean_sbu_0, # of connection points: 6
#     Node 15, Type 0, BuildingBlock: BETDEL_clean_sbu_0, # of connection points: 6
#     Edge 16, Type (0, 0), BuildingBlock: UVAHIK_clean_linker_0, # of connection points: 2
#     Edge 17, Type (0, 0), BuildingBlock: UVAHIK_clean_linker_0, # of connection points: 2
#     Edge 18, Type (0, 0), BuildingBlock: UVAHIK_clean_linker_0, # of connection points: 2
#     Edge 19, Type (0, 0), BuildingBlock: UVAHIK_clean_linker_0, # of connection points: 2
#     Edge 20, Type (0, 0), BuildingBlock: UVAHIK_clean_linker_0, # of connection points: 2
#     Edge 21, Type (0, 0), BuildingBlock: UVAHIK_clean_linker_0, # of connection points: 2
#     Edge 22, Type (0, 0), BuildingBlock: UVAHIK_clean_linker_0, # of connection points: 2
#     Edge 23, Type (0, 0), BuildingBlock: UVAHIK_clean_linker_0, # of connection points: 2
#     Edge 24, Type (0, 0), BuildingBlock: UVAHIK_clean_linker_0, # of connection points: 2
#     Edge 25, Type (0, 0), BuildingBlock: UVAHIK_clean_linker_0, # of connection points: 2
#     Edge 26, Type (0, 0), BuildingBlock: UVAHIK_clean_linker_0, # of connection points: 2
#     Edge 27, Type (0, 0), BuildingBlock: UVAHIK_clean_linker_0, # of connection points: 2
#     Edge 28, Type (0, 0), BuildingBlock: UVAHIK_clean_linker_0, # of connection points: 2
#     Edge 29, Type (0, 0), BuildingBlock: UVAHIK_clean_linker_0, # of connection points: 2
#     Edge 30, Type (0, 0), BuildingBlock: UVAHIK_clean_linker_0, # of connection points: 2
#     Edge 31, Type (0, 0), BuildingBlock: UVAHIK_clean_linker_0, # of connection points: 2
#     Edge 32, Type (0, 0), BuildingBlock: UVAHIK_clean_linker_0, # of connection points: 2
#     Edge 33, Type (0, 0), BuildingBlock: UVAHIK_clean_linker_0, # of connection points: 2
#     Edge 34, Type (0, 0), BuildingBlock: UVAHIK_clean_linker_0, # of connection points: 2
#     Edge 35, Type (0, 0), BuildingBlock: UVAHIK_clean_linker_0, # of connection points: 2
#     Edge 36, Type (0, 0), BuildingBlock: UVAHIK_clean_linker_0, # of connection points: 2
#     Edge 37, Type (0, 0), BuildingBlock: UVAHIK_clean_linker_0, # of connection points: 2
#     Edge 38, Type (0, 0), BuildingBlock: UVAHIK_clean_linker_0, # of connection points: 2
#     Edge 39, Type (0, 0), BuildingBlock: UVAHIK_clean_linker_0, # of connection points: 2
#     Edge 40, Type (0, 0), BuildingBlock: UVAHIK_clean_linker_0, # of connection points: 2
#     Edge 41, Type (0, 0), BuildingBlock: UVAHIK_clean_linker_0, # of connection points: 2
#     Edge 42, Type (0, 0), BuildingBlock: UVAHIK_clean_linker_0, # of connection points: 2
#     Edge 43, Type (0, 0), BuildingBlock: UVAHIK_clean_linker_0, # of connection points: 2
#     Edge 44, Type (0, 0), BuildingBlock: UVAHIK_clean_linker_0, # of connection points: 2
#     Edge 45, Type (0, 0), BuildingBlock: UVAHIK_clean_linker_0, # of connection points: 2
#     Edge 46, Type (0, 0), BuildingBlock: UVAHIK_clean_linker_0, # of connection points: 2
#     Edge 47, Type (0, 0), BuildingBlock: UVAHIK_clean_linker_0, # of connection points: 2
#     Edge 48, Type (0, 0), BuildingBlock: UVAHIK_clean_linker_0, # of connection points: 2
#     Edge 49, Type (0, 0), BuildingBlock: UVAHIK_clean_linker_0, # of connection points: 2
#     Edge 50, Type (0, 0), BuildingBlock: UVAHIK_clean_linker_0, # of connection points: 2
#     Edge 51, Type (0, 0), BuildingBlock: UVAHIK_clean_linker_0, # of connection points: 2
#     Edge 52, Type (0, 0), BuildingBlock: UVAHIK_clean_linker_0, # of connection points: 2
#     Edge 53, Type (0, 0), BuildingBlock: UVAHIK_clean_linker_0, # of connection points: 2
#     Edge 54, Type (0, 0), BuildingBlock: UVAHIK_clean_linker_0, # of connection points: 2
#     Edge 55, Type (0, 0), BuildingBlock: UVAHIK_clean_linker_0, # of connection points: 2
#     Edge 56, Type (0, 0), BuildingBlock: UVAHIK_clean_linker_0, # of connection points: 2
#     Edge 57, Type (0, 0), BuildingBlock: UVAHIK_clean_linker_0, # of connection points: 2
#     Edge 58, Type (0, 0), BuildingBlock: UVAHIK_clean_linker_0, # of connection points: 2
#     Edge 59, Type (0, 0), BuildingBlock: UVAHIK_clean_linker_0, # of connection points: 2
#     Edge 60, Type (0, 0), BuildingBlock: UVAHIK_clean_linker_0, # of connection points: 2
#     Edge 61, Type (0, 0), BuildingBlock: UVAHIK_clean_linker_0, # of connection points: 2
#     Edge 62, Type (0, 0), BuildingBlock: UVAHIK_clean_linker_0, # of connection points: 2
#     Edge 63, Type (0, 0), BuildingBlock: UVAHIK_clean_linker_0, # of connection points: 2
# Relax obj value: 0.156
# Max RMSD: 0.233
# Mean RMSD: 0.196
data_MOF--net-bcs--node1-BETDEL_clean_sbu_0--edge1-UVAHIK_clean_linker_0
_symmetry_space_group_name_H-M    P1
_symmetry_Int_Tables_number       1
_symmetry_cell_setting            triclinic
loop_
_symmetry_equiv_pos_as_xyz
'x, y, z'
_cell_length_a     46.400843
_cell_length_b     47.827423
_cell_length_c     43.899977
_cell_angle_alpha  91.992088
_cell_angle_beta   93.969605
_cell_angle_gamma 102.85484
loop_
_atom_site_label
_atom_site_type_symbol
_atom_site_fract_x
_atom_site_fract_y
_atom_site_fract_z
_atom_type_partial_charge
Dy0 Dy 0.0171 0.97913 0.9608 0.0
C1 C 0.96339 0.04248 0.04525 0.0
C2 C 0.05139 0.95468 0.92484 0.0
Dy3 Dy 0.99631 0.01655 0.00911 0.0
O4 O 0.02591 0.94172 0.93359 0.0
O5 O 0.05781 0.98133 0.93503 0.0
O6 O 0.97476 0.94544 0.96219 0.0
O7 O 0.9932 0.97098 0.00157 0.0
C8 C 0.97118 0.95223 0.99039 0.0
C9 C 0.04341 0.04261 0.98115 0.0
O10 O 0.02638 0.99822 0.04035 0.0
O11 O 0.05007 0.98081 0.0013 0.0
O12 O 0.98457 0.05579 0.02969 0.0
O13 O 0.96055 0.01494 0.04159 0.0
O14 O 0.0397 0.0484 0.00958 0.0
O15 O 0.02097 0.02497 0.96874 0.0
O16 O 0.98752 0.99819 0.92982 0.0
O17 O 0.96224 0.0126 0.96916 0.0
C18 C 0.04795 0.98689 0.0307 0.0
C19 C 0.96503 0.00792 0.93963 0.0
Dy20 Dy 0.25919 0.73688 0.27026 0.0
C21 C 0.19326 0.8107 0.2106 0.0
C22 C 0.28894 0.70278 0.30202 0.0
Dy23 Dy 0.22475 0.77867 0.24339 0.0
O24 O 0.26205 0.69471 0.28954 0.0
O25 O 0.29936 0.72982 0.29793 0.0
O26 O 0.25065 0.71105 0.22595 0.0
O27 O 0.21843 0.73235 0.24008 0.0
C28 C 0.22568 0.71788 0.21858 0.0
C29 C 0.25987 0.79888 0.29377 0.0
O30 O 0.19129 0.75183 0.27048 0.0
O31 O 0.22681 0.74081 0.30462 0.0
O32 O 0.19694 0.81128 0.24012 0.0
O33 O 0.20659 0.79228 0.19866 0.0
O34 O 0.23556 0.80686 0.28635 0.0
O35 O 0.26577 0.7833 0.27256 0.0
O36 O 0.29282 0.75901 0.24056 0.0
O37 O 0.26184 0.78234 0.21235 0.0
C38 C 0.1995 0.74377 0.29762 0.0
C39 C 0.28718 0.774 0.21703 0.0
Dy40 Dy 0.50683 0.02111 0.53695 0.0
C41 C 0.53989 0.97912 0.4222 0.0
C42 C 0.50413 0.04759 0.59219 0.0
Dy43 Dy 0.52236 0.00277 0.47292 0.0
O44 O 0.49568 0.02006 0.58599 0.0
O45 O 0.51449 0.06044 0.56834 0.0
O46 O 0.45985 0.99651 0.52731 0.0
O47 O 0.49425 0.98236 0.50715 0.0
C48 C 0.46658 0.97829 0.50797 0.0
C49 C 0.5487 0.05619 0.4937 0.0
O50 O 0.48224 0.01994 0.46021 0.0
O51 O 0.48576 0.04816 0.50506 0.0
O52 O 0.55666 0.99826 0.4412 0.0
O53 O 0.513 0.9725 0.43085 0.0
O54 O 0.54088 0.04926 0.46504 0.0
O55 O 0.54383 0.03421 0.50917 0.0
O56 O 0.5395 0.99492 0.55155 0.0
O57 O 0.54644 0.97688 0.50321 0.0
C58 C 0.47492 0.04099 0.47632 0.0
C59 C 0.55109 0.97813 0.53352 0.0
Dy60 Dy 0.28428 0.23348 0.74606 0.0
C61 C 0.20613 0.31082 0.75595 0.0
C62 C 0.31824 0.1952 0.73472 0.0
Dy63 Dy 0.23767 0.27104 0.74208 0.0
O64 O 0.32181 0.21237 0.75894 0.0
O65 O 0.29602 0.19884 0.71682 0.0
O66 O 0.31071 0.26396 0.78354 0.0
O67 O 0.28516 0.27885 0.75009 0.0
C68 C 0.30069 0.28589 0.77468 0.0
C69 C 0.22305 0.22119 0.71009 0.0
O70 O 0.26674 0.29028 0.7061 0.0
O71 O 0.29091 0.25291 0.70011 0.0
O72 O 0.19971 0.29256 0.73248 0.0
O73 O 0.22983 0.30744 0.77156 0.0
O74 O 0.21341 0.24358 0.70185 0.0
O75 O 0.23678 0.22574 0.73608 0.0
O76 O 0.25592 0.21381 0.78206 0.0
O77 O 0.22947 0.24952 0.78675 0.0
C78 C 0.28391 0.27691 0.69077 0.0
C79 C 0.23746 0.22612 0.79651 0.0
Dy80 Dy 0.0186 0.97921 0.5062 0.0
C81 C 0.93871 0.05186 0.47088 0.0
C82 C 0.0573 0.9487 0.52987 0.0
Dy83 Dy 0.97816 0.02309 0.4965 0.0
O84 O 0.04283 0.94342 0.50313 0.0
O85 O 0.05065 0.97065 0.54361 0.0
O86 O 0.99501 0.95277 0.465 0.0
O87 O 0.9725 0.97694 0.4913 0.0
C88 C 0.97074 0.96179 0.46705 0.0
C89 C 0.02537 0.03938 0.53639 0.0
O90 O 0.95362 0.99662 0.53153 0.0
O91 O 0.99078 0.9731 0.54673 0.0
O92 O 0.95527 0.06007 0.49615 0.0
O93 O 0.94363 0.02795 0.45985 0.0
O94 O 1.00127 0.04867 0.53891 0.0
O95 O 0.02377 0.025 0.5117 0.0
O96 O 0.04368 0.00638 0.47212 0.0
O97 O 0.00652 0.02958 0.4563 0.0
C98 C 0.96509 0.98026 0.55062 0.0
C99 C 0.03237 0.02262 0.45281 0.0
Dy100 Dy 0.26077 0.768 0.75353 0.0
C101 C 0.29242 0.70829 0.64785 0.0
C102 C 0.2485 0.7978 0.80335 0.0
Dy103 Dy 0.28224 0.73957 0.69749 0.0
O104 O 0.23808 0.77061 0.79673 0.0
O105 O 0.26653 0.80852 0.78323 0.0
O106 O 0.21416 0.74452 0.73865 0.0
O107 O 0.24977 0.72563 0.73026 0.0
C108 C 0.22222 0.72292 0.72592 0.0
C109 C 0.32096 0.78482 0.72463 0.0
O110 O 0.24884 0.76192 0.67511 0.0
O111 O 0.24633 0.79322 0.71612 0.0
O112 O 0.30435 0.73526 0.65423 0.0
O113 O 0.27414 0.69858 0.66817 0.0
O114 O 0.329 0.76343 0.71135 0.0
O115 O 0.29331 0.78186 0.72076 0.0
O116 O 0.29375 0.74563 0.77615 0.0
O117 O 0.29665 0.71437 0.73523 0.0
C118 C 0.24027 0.78446 0.68694 0.0
C119 C 0.30202 0.72285 0.76458 0.0
Dy120 Dy 0.52023 0.97256 0.98718 0.0
C121 C 0.44547 0.04033 0.04543 0.0
C122 C 0.55335 0.94285 0.95462 0.0
Dy123 Dy 0.47791 0.00972 0.01288 0.0
O124 O 0.56316 0.96021 0.97831 0.0
O125 O 0.52525 0.94176 0.94845 0.0
O126 O 0.54395 0.97597 0.03363 0.0
O127 O 0.5249 0.00982 0.01903 0.0
C128 C 0.53772 0.00028 0.04132 0.0
C129 C 0.4603 0.98071 0.95929 0.0
O130 O 0.50747 0.04264 0.98761 0.0
O131 O 0.52459 0.00982 0.95696 0.0
O132 O 0.43687 0.02656 0.01922 0.0
O133 O 0.47195 0.03729 0.05412 0.0
O134 O 0.45394 0.00521 0.96592 0.0
O135 O 0.47343 0.97235 0.98196 0.0
O136 O 0.49079 0.93924 0.01161 0.0
O137 O 0.47044 0.97056 0.04108 0.0
C138 C 0.52032 0.03589 0.96321 0.0
C139 C 0.47564 0.94476 0.03474 0.0
Dy140 Dy 0.26923 0.23987 0.27647 0.0
C141 C 0.19819 0.27175 0.1753 0.0
C142 C 0.29637 0.21303 0.32052 0.0
Dy143 Dy 0.22876 0.24741 0.21868 0.0
O144 O 0.30651 0.23902 0.31221 0.0
O145 O 0.27103 0.20219 0.30543 0.0
O146 O 0.29678 0.2848 0.27257 0.0
O147 O 0.27538 0.26035 0.23357 0.0
C148 C 0.29003 0.28475 0.24324 0.0
C149 C 0.20876 0.20178 0.25079 0.0
O150 O 0.25638 0.22128 0.19536 0.0
O151 O 0.28014 0.20968 0.24026 0.0
O152 O 0.18634 0.2533 0.19442 0.0
O153 O 0.22692 0.27614 0.17907 0.0
O154 O 0.20303 0.20204 0.22132 0.0
O155 O 0.22241 0.22634 0.26145 0.0
O156 O 0.23996 0.26457 0.29912 0.0
O157 O 0.22249 0.28104 0.25375 0.0
C158 C 0.2743 0.20706 0.20999 0.0
C159 C 0.22528 0.28149 0.28416 0.0
Dy160 Dy 0.51947 0.47443 -0.00163 0.0
C161 C 0.43294 0.53823 0.95518 0.0
C162 C 0.55832 0.44507 0.02416 0.0
Dy163 Dy 0.47104 0.50947 0.98352 0.0
O164 O 0.53507 0.4337 0.00598 0.0
O165 O 0.56054 0.47253 0.02799 0.0
O166 O 0.51561 0.45989 0.9487 0.0
O167 O 0.47867 0.46816 0.96961 0.0
C168 C 0.48823 0.46215 0.94471 0.0
C169 C 0.50142 0.52255 0.03764 0.0
O170 O 0.44369 0.47372 0.00721 0.0
O171 O 0.48389 0.4582 0.03009 0.0
O172 O 0.44957 0.54712 0.98017 0.0
O173 O 0.4367 0.51328 0.9459 0.0
O174 O 0.47454 0.5259 0.0321 0.0
O175 O 0.51171 0.51585 0.01322 0.0
O176 O 0.54709 0.50987 0.97438 0.0
O177 O 0.50785 0.52859 0.9544 0.0
C178 C 0.45519 0.45843 0.02748 0.0
C179 C 0.53619 0.52711 0.95603 0.0
Dy180 Dy 0.72929 0.25975 0.27683 0.0
C181 C 0.77245 0.19685 0.18265 0.0
C182 C 0.70678 0.29387 0.3153 0.0
Dy183 Dy 0.75615 0.23331 0.22372 0.0
O184 O 0.69275 0.27961 0.29107 0.0
O185 O 0.73344 0.28946 0.31892 0.0
O186 O 0.69818 0.21712 0.28194 0.0
O187 O 0.71202 0.22898 0.23873 0.0
C188 C 0.69798 0.20896 0.25339 0.0
C189 C 0.78857 0.28374 0.24701 0.0
O190 O 0.72437 0.25446 0.19815 0.0
O191 O 0.72558 0.28822 0.23751 0.0
O192 O 0.77921 0.22466 0.18229 0.0
O193 O 0.75638 0.1889 0.20522 0.0
O194 O 0.78938 0.27464 0.21897 0.0
O195 O 0.77362 0.26422 0.26165 0.0
O196 O 0.75702 0.23587 0.30487 0.0
O197 O 0.76848 0.20915 0.26386 0.0
C198 C 0.71952 0.27929 0.20832 0.0
C199 C 0.76841 0.2149 0.29369 0.0
Dy200 Dy 0.02154 0.47975 0.48056 0.0
C201 C 0.94461 0.54286 0.54177 0.0
C202 C 0.05475 0.45067 0.44699 0.0
Dy203 Dy 0.97806 0.51434 0.50791 0.0
O204 O 0.05816 0.45611 0.47634 0.0
O205 O 0.03307 0.46136 0.43565 0.0
O206 O 0.0444 0.48026 0.5274 0.0
O207 O 0.02474 0.5141 0.51559 0.0
C208 C 0.03712 0.50344 0.53722 0.0
C209 C 0.96326 0.49146 0.45097 0.0
O210 O 0.01099 0.54999 0.49041 0.0
O211 O 0.03332 0.5223 0.45861 0.0
O212 O 0.9397 0.53566 0.51279 0.0
O213 O 0.96781 0.53421 0.55251 0.0
O214 O 0.95638 0.51484 0.46081 0.0
O215 O 0.97486 0.48012 0.47264 0.0
O216 O 0.98868 0.44431 0.49882 0.0
O217 O 0.9683 0.47283 0.53151 0.0
C218 C 0.02814 0.54738 0.46802 0.0
C219 C 0.97307 0.4476 0.52234 0.0
Dy220 Dy 0.77245 0.73115 0.23888 0.0
C221 C 0.69876 0.81291 0.25552 0.0
C222 C 0.8056 0.6926 0.22549 0.0
Dy223 Dy 0.73164 0.7747 0.2404 0.0
O224 O 0.81587 0.71763 0.23933 0.0
O225 O 0.77721 0.68862 0.21891 0.0
O226 O 0.78854 0.74455 0.28768 0.0
O227 O 0.77616 0.77427 0.25802 0.0
C228 C 0.78393 0.77021 0.28517 0.0
C229 C 0.71781 0.73385 0.19529 0.0
O230 O 0.76555 0.79792 0.21135 0.0
O231 O 0.7852 0.75855 0.19898 0.0
O232 O 0.68807 0.78714 0.2437 0.0
O233 O 0.72753 0.81793 0.25906 0.0
O234 O 0.71277 0.75939 0.19275 0.0
O235 O 0.72745 0.73119 0.22223 0.0
O236 O 0.73741 0.70758 0.26676 0.0
O237 O 0.71905 0.74741 0.2804 0.0
C238 C 0.7824 0.78527 0.19494 0.0
C239 C 0.72104 0.72037 0.28375 0.0
Dy240 Dy 0.77329 0.21417 0.74737 0.0
C241 C 0.70976 0.3023 0.71873 0.0
C242 C 0.80227 0.17533 0.77124 0.0
Dy243 Dy 0.73934 0.2624 0.73878 0.0
O244 O 0.79617 0.17766 0.74226 0.0
O245 O 0.79276 0.19434 0.78715 0.0
O246 O 0.76598 0.20232 0.69701 0.0
O247 O 0.73451 0.21919 0.71944 0.0
C248 C 0.74199 0.21202 0.69387 0.0
C249 C 0.77063 0.26381 0.79242 0.0
O250 O 0.70404 0.23084 0.75869 0.0
O251 O 0.73301 0.19878 0.7731 0.0
O252 O 0.7346 0.30805 0.73573 0.0
O253 O 0.7013 0.27484 0.71241 0.0
O254 O 0.74602 0.27248 0.78938 0.0
O255 O 0.77842 0.25746 0.76669 0.0
O256 O 0.80848 0.24812 0.73072 0.0
O257 O 0.77559 0.27202 0.7067 0.0
C258 C 0.70805 0.20802 0.77312 0.0
C259 C 0.80221 0.26608 0.71036 0.0
Dy260 Dy 0.77497 0.74352 0.77778 0.0
C261 C 0.71096 0.78436 0.678 0.0
C262 C 0.80436 0.7172 0.82032 0.0
Dy263 Dy 0.73525 0.75356 0.72024 0.0
O264 O 0.8167 0.73764 0.80352 0.0
O265 O 0.77572 0.71181 0.81468 0.0
O266 O 0.80136 0.78881 0.77686 0.0
O267 O 0.782 0.76591 0.73584 0.0
C268 C 0.79593 0.79003 0.74747 0.0
C269 C 0.71308 0.708 0.75214 0.0
O270 O 0.76381 0.72876 0.69668 0.0
O271 O 0.78157 0.71124 0.74135 0.0
O272 O 0.69989 0.75767 0.6835 0.0
O273 O 0.73556 0.79367 0.6949 0.0
O274 O 0.70615 0.70902 0.72294 0.0
O275 O 0.72846 0.73194 0.76228 0.0
O276 O 0.74737 0.7691 0.80202 0.0
O277 O 0.724 0.78227 0.75767 0.0
C278 C 0.77847 0.71145 0.71098 0.0
C279 C 0.72962 0.78385 0.78795 0.0
Dy280 Dy 0.52129 0.50051 0.52551 0.0
C281 C 0.46956 0.51911 0.40765 0.0
C282 C 0.5411 0.48074 0.57863 0.0
Dy283 Dy 0.49066 0.50026 0.46065 0.0
O284 O 0.55184 0.50587 0.56853 0.0
O285 O 0.51927 0.46683 0.56002 0.0
O286 O 0.54699 0.54587 0.52079 0.0
O287 O 0.5347 0.51727 0.48232 0.0
C288 C 0.54614 0.54287 0.49112 0.0
C289 C 0.46653 0.45747 0.49464 0.0
O290 O 0.52464 0.47664 0.44835 0.0
O291 O 0.53982 0.46834 0.49828 0.0
O292 O 0.45794 0.49506 0.41952 0.0
O293 O 0.49314 0.53235 0.42437 0.0
O294 O 0.46606 0.45463 0.465 0.0
O295 O 0.47726 0.48317 0.50374 0.0
O296 O 0.48682 0.52411 0.53751 0.0
O297 O 0.47325 0.53315 0.48743 0.0
C298 C 0.53974 0.46394 0.46816 0.0
C299 C 0.47236 0.53716 0.51741 0.0
Dy300 Dy 0.98557 0.49472 0.02428 0.0
C301 C 0.02312 0.46009 0.90846 0.0
C302 C 0.96311 0.5164 0.07321 0.0
Dy303 Dy 0.01223 0.48387 0.96246 0.0
O304 O 0.94773 0.4985 0.05205 0.0
O305 O 0.99097 0.52233 0.06783 0.0
O306 O 0.96737 0.44732 0.02615 0.0
O307 O 0.97168 0.46625 0.98375 0.0
C308 C 0.96529 0.4428 -0.00334 0.0
C309 C 0.04563 0.52564 -0.00032 0.0
O310 O 0.97994 0.50937 0.94519 0.0
O311 O 0.96263 0.52002 0.99209 0.0
O312 O 0.03014 0.48748 0.916 0.0
O313 O 0.00967 0.44604 0.93015 0.0
O314 O 0.05661 0.51182 0.97907 0.0
O315 O 0.01779 0.51915 -0.00371 0.0
O316 O 0.02451 0.47749 0.04126 0.0
O317 O 0.03135 0.45599 0.99469 0.0
C318 C 0.96331 0.52215 0.96198 0.0
C319 C 0.03648 0.45984 0.02484 0.0
C320 C 0.19742 0.21908 0.83284 0.0
C321 C 0.2222 0.21094 0.82172 0.0
C322 C 0.1804 0.20215 0.85331 0.0
C323 C 0.13719 0.15004 0.87355 0.0
H324 H 0.16926 0.11408 0.94187 0.0
C325 C 0.06545 0.05683 0.93219 0.0
C326 C 0.06694 0.0596 0.96422 0.0
C327 C 0.08622 0.07498 0.91604 0.0
C328 C 0.16003 0.12406 0.92291 0.0
H329 H 0.24968 0.1797 0.82499 0.0
H330 H 0.21997 0.15027 0.8607 0.0
H331 H 0.20265 0.14886 0.91338 0.0
H332 H 0.0919 0.08241 0.00463 0.0
H333 H 0.12831 0.1141 0.97638 0.0
H334 H 0.09465 0.12533 0.88293 0.0
C335 C 0.21369 0.16968 0.85354 0.0
C336 C 0.17911 0.14382 0.90656 0.0
C337 C 0.23061 0.18649 0.83293 0.0
C338 C 0.09023 0.07995 0.9799 0.0
C339 C 0.11112 0.09797 0.96377 0.0
C340 C 0.1182 0.13015 0.8897 0.0
C341 C 0.18794 0.17689 0.86324 0.0
C342 C 0.16785 0.157 0.88171 0.0
C343 C 0.10895 0.09606 0.93166 0.0
C344 C 0.12941 0.11689 0.91446 0.0
H345 H 0.1904 0.23785 0.82481 0.0
H346 H 0.1609 0.20845 0.86081 0.0
H347 H 0.12792 0.15955 0.85424 0.0
H348 H 0.04779 0.0412 0.91957 0.0
H349 H 0.08431 0.07277 0.8913 0.0
C350 C 0.06383 0.97759 0.08446 0.0
C351 C 0.06846 0.97737 0.05317 0.0
C352 C 0.08039 0.96423 0.10474 0.0
C353 C 0.14583 0.93089 0.11136 0.0
H354 H 0.09824 0.88066 0.16543 0.0
C355 C 0.1811 0.83305 0.16226 0.0
C356 C 0.17844 0.83017 0.19368 0.0
C357 C 0.16891 0.85338 0.14698 0.0
C358 C 0.11187 0.8948 0.15068 0.0
H359 H 0.09554 0.96482 0.01901 0.0
H360 H 0.12371 0.94118 0.05401 0.0
H361 H 0.07645 0.91457 0.13675 0.0
H362 H 0.16059 0.84553 0.23374 0.0
H363 H 0.13889 0.8807 0.20692 0.0
H364 H 0.18088 0.91018 0.12455 0.0
C365 C 0.1076 0.9518 0.06311 0.0
C366 C 0.09949 0.91438 0.13441 0.0
C367 C 0.0912 0.9652 0.04293 0.0
C368 C 0.16287 0.84735 0.20945 0.0
C369 C 0.15044 0.86741 0.19414 0.0
C370 C 0.1581 0.9111 0.12741 0.0
C371 C 0.10182 0.95042 0.09407 0.0
C372 C 0.11618 0.93234 0.11419 0.0
C373 C 0.15364 0.87084 0.16286 0.0
C374 C 0.14108 0.89261 0.14686 0.0
H375 H 0.04661 0.98696 0.0931 0.0
H376 H 0.0758 0.96397 0.12859 0.0
H377 H 0.15944 0.94475 0.09637 0.0
H378 H 0.19309 0.82006 0.14967 0.0
H379 H 0.17135 0.8554 0.12273 0.0
C380 C 0.41457 0.95236 0.4941 0.0
C381 C 0.44489 0.95509 0.49089 0.0
C382 C 0.3937 0.93121 0.47696 0.0
C383 C 0.38344 0.86415 0.42911 0.0
H384 H 0.31845 0.89173 0.38968 0.0
C385 C 0.3092 0.80773 0.3233 0.0
C386 C 0.27949 0.80992 0.32114 0.0
C387 C 0.32845 0.82134 0.34794 0.0
C388 C 0.3361 0.88346 0.40095 0.0
H389 H 0.47749 0.93739 0.46841 0.0
H390 H 0.44085 0.90074 0.43766 0.0
H391 H 0.35407 0.92348 0.42551 0.0
H392 H 0.24574 0.82558 0.34386 0.0
H393 H 0.27912 0.84882 0.38718 0.0
H394 H 0.36556 0.8242 0.40375 0.0
C395 C 0.43323 0.9147 0.45369 0.0
C396 C 0.35655 0.90169 0.42147 0.0
C397 C 0.45415 0.93583 0.47099 0.0
C398 C 0.26876 0.82413 0.34481 0.0
C399 C 0.28785 0.83744 0.36952 0.0
C400 C 0.36286 0.8458 0.40849 0.0
C401 C 0.40279 0.91253 0.45617 0.0
C402 C 0.3805 0.89231 0.43564 0.0
C403 C 0.3181 0.83706 0.3708 0.0
C404 C 0.33907 0.85538 0.39413 0.0
H405 H 0.40693 0.96683 0.50954 0.0
H406 H 0.37038 0.92973 0.47967 0.0
H407 H 0.40162 0.85634 0.43992 0.0
H408 H 0.31783 0.79665 0.30531 0.0
H409 H 0.35168 0.82079 0.34826 0.0
C410 C 0.36268 0.17508 0.74727 0.0
C411 C 0.33853 0.17688 0.72688 0.0
C412 C 0.38375 0.16024 0.7383 0.0
C413 C 0.41568 0.142 0.66922 0.0
H414 H 0.44636 0.08614 0.71601 0.0
C415 C 0.50439 0.09281 0.62188 0.0
C416 C 0.49608 0.06274 0.61893 0.0
C417 C 0.49068 0.1079 0.64202 0.0
C418 C 0.43811 0.10187 0.70287 0.0
H419 H 0.31656 0.16364 0.68184 0.0
H420 H 0.35342 0.13793 0.66612 0.0
H421 H 0.40876 0.10883 0.7367 0.0
H422 H 0.4694 0.02465 0.63678 0.0
H423 H 0.4451 0.05106 0.67177 0.0
H424 H 0.44414 0.13483 0.63512 0.0
C425 C 0.3562 0.14811 0.6889 0.0
C426 C 0.41672 0.11484 0.71469 0.0
C427 C 0.33507 0.16269 0.69793 0.0
C428 C 0.47609 0.04788 0.63859 0.0
C429 C 0.46226 0.063 0.65869 0.0
C430 C 0.43714 0.12933 0.6576 0.0
C431 C 0.38107 0.14729 0.70873 0.0
C432 C 0.40492 0.13458 0.69762 0.0
C433 C 0.46832 0.09316 0.65939 0.0
C434 C 0.44832 0.10884 0.67405 0.0
H435 H 0.36575 0.18583 0.76977 0.0
H436 H 0.40276 0.15994 0.75397 0.0
H437 H 0.40724 0.15745 0.65579 0.0
H438 H 0.52001 0.10475 0.60718 0.0
H439 H 0.49622 0.13116 0.64258 0.0
C440 C 0.08206 0.90733 0.52725 0.0
C441 C 0.07726 0.93157 0.54334 0.0
C442 C 0.09996 0.89041 0.54075 0.0
C443 C 0.12795 0.87269 0.61656 0.0
H444 H 0.18569 0.84353 0.57254 0.0
C445 C 0.21675 0.8261 0.67957 0.0
C446 C 0.22292 0.80062 0.66753 0.0
C447 C 0.19904 0.84084 0.66258 0.0
C448 C 0.16939 0.85122 0.58498 0.0
H449 H 0.08788 0.95766 0.58567 0.0
H450 H 0.11924 0.92834 0.60917 0.0
H451 H 0.15475 0.87201 0.54622 0.0
H452 H 0.21586 0.77111 0.62767 0.0
H453 H 0.18457 0.79707 0.59781 0.0
H454 H 0.14249 0.85216 0.65529 0.0
C455 C 0.10888 0.92207 0.58635 0.0
C456 C 0.15171 0.86754 0.56995 0.0
C457 C 0.09107 0.93896 0.57285 0.0
C458 C 0.21153 0.79066 0.63762 0.0
C459 C 0.19368 0.80554 0.62051 0.0
C460 C 0.14552 0.85643 0.63151 0.0
C461 C 0.11327 0.89741 0.57061 0.0
C462 C 0.13114 0.87885 0.58576 0.0
C463 C 0.18688 0.83056 0.63307 0.0
C464 C 0.16681 0.84592 0.61609 0.0
H465 H 0.07164 0.90119 0.50443 0.0
H466 H 0.10277 0.87147 0.52811 0.0
H467 H 0.11181 0.88046 0.62919 0.0
H468 H 0.22538 0.83469 0.70236 0.0
H469 H 0.19482 0.8604 0.67267 0.0
C470 C 0.3303 0.83236 0.75273 0.0
C471 C 0.3414 0.80999 0.74009 0.0
C472 C 0.34924 0.85513 0.76968 0.0
C473 C 0.42274 0.87234 0.81323 0.0
H474 H 0.39959 0.94435 0.82767 0.0
C475 C 0.44908 0.97948 0.90286 0.0
C476 C 0.45411 0.9652 0.92936 0.0
C477 C 0.44235 0.96423 0.87458 0.0
C478 C 0.40701 0.92474 0.82358 0.0
H479 H 0.38118 0.79489 0.73273 0.0
H480 H 0.41468 0.83552 0.7609 0.0
H481 H 0.37563 0.91236 0.78497 0.0
H482 H 0.45677 0.92426 0.94751 0.0
H483 H 0.44327 0.89732 0.89891 0.0
H484 H 0.455 0.88527 0.85102 0.0
C485 C 0.39117 0.83489 0.75915 0.0
C486 C 0.39277 0.90602 0.79932 0.0
C487 C 0.37203 0.81169 0.74283 0.0
C488 C 0.45297 0.9357 0.92726 0.0
C489 C 0.4456 0.92035 0.89923 0.0
C490 C 0.43757 0.89142 0.83693 0.0
C491 C 0.37992 0.85652 0.77358 0.0
C492 C 0.39934 0.87892 0.79483 0.0
C493 C 0.43987 0.93432 0.8725 0.0
C494 C 0.42882 0.91717 0.84344 0.0
H495 H 0.30691 0.83198 0.75007 0.0
H496 H 0.33945 0.87099 0.78066 0.0
H497 H 0.42861 0.85177 0.81066 0.0
H498 H 0.45036 0.00239 0.904 0.0
H499 H 0.43873 0.97586 0.85448 0.0
C500 C 0.4013 0.06216 0.04823 0.0
C501 C 0.42778 0.05728 0.0622 0.0
C502 C 0.38452 0.07833 0.06363 0.0
C503 C 0.3892 0.13023 0.1308 0.0
H504 H 0.30347 0.11125 0.11677 0.0
C505 C 0.3139 0.17897 0.20681 0.0
C506 C 0.29042 0.18901 0.19223 0.0
C507 C 0.33017 0.16309 0.19039 0.0
C508 C 0.3274 0.117 0.12072 0.0
H509 H 0.45732 0.0653 0.10347 0.0
H510 H 0.4277 0.09271 0.13084 0.0
H511 H 0.33263 0.08295 0.09015 0.0
H512 H 0.26551 0.1896 0.14871 0.0
H513 H 0.29374 0.16137 0.12006 0.0
H514 H 0.38375 0.16383 0.16199 0.0
C515 C 0.4201 0.08474 0.10763 0.0
C516 C 0.34424 0.1008 0.10537 0.0
C517 C 0.43706 0.0688 0.09204 0.0
C518 C 0.28339 0.18226 0.16073 0.0
C519 C 0.29952 0.16599 0.14433 0.0
C520 C 0.37233 0.14618 0.14639 0.0
C521 C 0.39355 0.08985 0.09365 0.0
C522 C 0.37546 0.10713 0.11014 0.0
C523 C 0.32333 0.15645 0.15892 0.0
C524 C 0.3412 0.13978 0.14161 0.0
H525 H 0.39363 0.05372 0.02516 0.0
H526 H 0.36465 0.08211 0.05169 0.0
H527 H 0.4131 0.13633 0.13473 0.0
H528 H 0.32011 0.18367 0.23099 0.0
H529 H 0.34808 0.1558 0.20247 0.0
C530 C 0.04054 0.05504 0.40904 0.0
C531 C 0.05048 0.03567 0.4283 0.0
C532 C 0.05862 0.069 0.38747 0.0
C533 C 0.13718 0.09164 0.37264 0.0
H534 H 0.10491 0.10887 0.29345 0.0
C535 C 0.17688 0.153 0.25607 0.0
C536 C 0.19459 0.17861 0.26977 0.0
C537 C 0.16119 0.13217 0.27402 0.0
C538 C 0.11439 0.10392 0.31529 0.0
H539 H 0.08685 0.01498 0.43911 0.0
H540 H 0.1182 0.03916 0.40127 0.0
H541 H 0.073 0.07786 0.32632 0.0
H542 H 0.21062 0.20226 0.31289 0.0
H543 H 0.18319 0.16607 0.34421 0.0
H544 H 0.17856 0.11773 0.36164 0.0
C545 C 0.09661 0.04388 0.40323 0.0
C546 C 0.096 0.08643 0.33428 0.0
C547 C 0.07854 0.02992 0.42481 0.0
C548 C 0.19721 0.18263 0.30174 0.0
C549 C 0.18158 0.16183 0.31969 0.0
C550 C 0.15557 0.10913 0.35366 0.0
C551 C 0.08703 0.06389 0.38461 0.0
C552 C 0.10707 0.08045 0.36336 0.0
C553 C 0.16298 0.13658 0.306 0.0
C554 C 0.14427 0.11584 0.32498 0.0
H555 H 0.01906 0.05999 0.41107 0.0
H556 H 0.05069 0.08454 0.37373 0.0
H557 H 0.14636 0.08767 0.39501 0.0
H558 H 0.17461 0.14932 0.23145 0.0
H559 H 0.14738 0.11277 0.26284 0.0
C560 C 0.78001 0.14816 0.1686 0.0
C561 C 0.78528 0.17762 0.16358 0.0
C562 C 0.79559 0.13069 0.15356 0.0
C563 C 0.84392 0.12844 0.08987 0.0
H564 H 0.87804 0.07792 0.14143 0.0
C565 C 0.9446 0.08588 0.05807 0.0
C566 C 0.94293 0.05645 0.06091 0.0
C567 C 0.92339 0.09875 0.07008 0.0
C568 C 0.86838 0.09167 0.12667 0.0
H569 H 0.8097 0.21178 0.13801 0.0
H570 H 0.8371 0.1815 0.11201 0.0
H571 H 0.84262 0.10317 0.16162 0.0
H572 H 0.91851 0.01746 0.07919 0.0
H573 H 0.88151 0.04016 0.10074 0.0
H574 H 0.87042 0.11757 0.05526 0.0
C575 C 0.8208 0.17169 0.12723 0.0
C576 C 0.848 0.10604 0.13815 0.0
C577 C 0.80522 0.18909 0.14223 0.0
C578 C 0.92027 0.04024 0.07681 0.0
C579 C 0.89916 0.05319 0.08911 0.0
C580 C 0.86442 0.11423 0.07849 0.0
C581 C 0.81669 0.14243 0.13326 0.0
C582 C 0.83589 0.12493 0.12002 0.0
C583 C 0.90025 0.08246 0.08536 0.0
C584 C 0.87719 0.09607 0.09694 0.0
H585 H 0.76464 0.13881 0.18493 0.0
H586 H 0.79159 0.10814 0.15831 0.0
H587 H 0.8346 0.14245 0.07515 0.0
H588 H 0.96187 0.09884 0.04588 0.0
H589 H 0.92501 0.12145 0.06731 0.0
C590 C 0.03501 0.59981 0.46025 0.0
C591 C 0.04347 0.57375 0.45451 0.0
C592 C 0.05013 0.62503 0.44827 0.0
C593 C 0.12168 0.65732 0.42098 0.0
H594 H 0.07981 0.7037 0.37164 0.0
C595 C 0.14813 0.72455 0.31187 0.0
C596 C 0.17795 0.73711 0.32059 0.0
C597 C 0.12912 0.7133 0.33391 0.0
C598 C 0.09175 0.69114 0.38567 0.0
H599 H 0.07406 0.55356 0.43148 0.0
H600 H 0.10048 0.59765 0.41064 0.0
H601 H 0.05173 0.66432 0.39925 0.0
H602 H 0.21057 0.75148 0.35892 0.0
H603 H 0.17718 0.73257 0.39751 0.0
H604 H 0.1615 0.68251 0.40622 0.0
C605 C 0.08231 0.59853 0.42462 0.0
C606 C 0.07573 0.66878 0.40153 0.0
C607 C 0.06706 0.57329 0.43634 0.0
C608 C 0.18777 0.74111 0.3517 0.0
C609 C 0.16868 0.7304 0.37372 0.0
C610 C 0.13763 0.67958 0.40528 0.0
C611 C 0.0741 0.62459 0.43069 0.0
C612 C 0.09063 0.65106 0.41828 0.0
C613 C 0.1397 0.71491 0.36489 0.0
C614 C 0.12281 0.69607 0.38658 0.0
H615 H 0.01675 0.60077 0.47405 0.0
H616 H 0.04344 0.64493 0.45314 0.0
H617 H 0.1336 0.64415 0.43418 0.0
H618 H 0.14011 0.72148 0.28795 0.0
H619 H 0.10695 0.70136 0.32635 0.0
C620 C 0.57338 0.95806 0.57958 0.0
C621 C 0.56899 0.95894 0.54763 0.0
C622 C 0.58925 0.93912 0.59268 0.0
C623 C 0.61417 0.87199 0.57517 0.0
H624 H 0.66726 0.89619 0.64801 0.0
C625 C 0.66696 0.79277 0.64591 0.0
C626 C 0.69606 0.80288 0.65908 0.0
C627 C 0.65195 0.81144 0.63091 0.0
C628 C 0.65274 0.8891 0.6275 0.0
H629 H 0.57838 0.94063 0.50446 0.0
H630 H 0.6062 0.90805 0.52725 0.0
H631 H 0.64078 0.92974 0.62493 0.0
H632 H 0.73263 0.84015 0.66594 0.0
H633 H 0.70678 0.8725 0.63943 0.0
H634 H 0.62654 0.83147 0.5775 0.0
C635 C 0.59699 0.92166 0.54224 0.0
C636 C 0.63722 0.90828 0.61447 0.0
C637 C 0.58117 0.94058 0.52916 0.0
C638 C 0.71016 0.83174 0.65611 0.0
C639 C 0.69522 0.85036 0.64113 0.0
C640 C 0.62967 0.85277 0.58824 0.0
C641 C 0.60115 0.92054 0.57419 0.0
C642 C 0.61771 0.90003 0.5881 0.0
C643 C 0.66572 0.84063 0.62877 0.0
C644 C 0.64922 0.86106 0.61458 0.0
H645 H 0.56428 0.97175 0.59458 0.0
H646 H 0.59168 0.93868 0.61736 0.0
H647 H 0.5991 0.86471 0.55508 0.0
H648 H 0.65548 0.77066 0.64799 0.0
H649 H 0.6292 0.80318 0.6219 0.0
C650 C 0.48491 0.46162 0.8877 0.0
C651 C 0.47107 0.4601 0.91518 0.0
C652 C 0.46779 0.45766 0.85975 0.0
C653 C 0.38848 0.44268 0.82696 0.0
H654 H 0.41163 0.37944 0.78507 0.0
C655 C 0.31973 0.32978 0.80846 0.0
C656 C 0.3182 0.31519 0.78007 0.0
C657 C 0.33675 0.35778 0.81299 0.0
C658 C 0.40504 0.39755 0.7958 0.0
H659 H 0.42912 0.45486 0.9355 0.0
H660 H 0.39933 0.447 0.88745 0.0
H661 H 0.44884 0.4149 0.81543 0.0
H662 H 0.3323 0.31777 0.73396 0.0
H663 H 0.36335 0.3664 0.74249 0.0
H664 H 0.34386 0.42255 0.8105 0.0
C665 C 0.42321 0.45208 0.88681 0.0
C666 C 0.42642 0.41808 0.81313 0.0
C667 C 0.44025 0.45615 0.91452 0.0
C668 C 0.33331 0.32887 0.75608 0.0
C669 C 0.35079 0.35659 0.76079 0.0
C670 C 0.36698 0.42168 0.81026 0.0
C671 C 0.43664 0.45179 0.85905 0.0
C672 C 0.41788 0.43938 0.83103 0.0
C673 C 0.35275 0.37114 0.78932 0.0
C674 C 0.375 0.398 0.79644 0.0
H675 H 0.50881 0.46518 0.88783 0.0
H676 H 0.47883 0.45785 0.83879 0.0
H677 H 0.38146 0.45953 0.83957 0.0
H678 H 0.30801 0.31949 0.82704 0.0
H679 H 0.33856 0.36853 0.83541 0.0
C680 C 0.79021 0.82034 0.30545 0.0
C681 C 0.78557 0.79104 0.31074 0.0
C682 C 0.79651 0.84055 0.32999 0.0
C683 C 0.8354 0.84336 0.4046 0.0
H684 H 0.83783 0.92456 0.39837 0.0
C685 C 0.91571 0.95372 0.45947 0.0
C686 C 0.94234 0.94746 0.45088 0.0
C687 C 0.88846 0.93675 0.44763 0.0
C688 C 0.83686 0.90191 0.40083 0.0
H689 H 0.77934 0.75932 0.34511 0.0
H690 H 0.78938 0.79463 0.38824 0.0
H691 H 0.79772 0.889 0.37027 0.0
H692 H 0.96164 0.92017 0.42182 0.0
H693 H 0.91411 0.8905 0.40124 0.0
H694 H 0.87522 0.85628 0.43386 0.0
C695 C 0.78947 0.80216 0.36526 0.0
C696 C 0.81409 0.88158 0.3847 0.0
C697 C 0.78388 0.78197 0.34068 0.0
C698 C 0.94143 0.92523 0.42899 0.0
C699 C 0.91432 0.90821 0.41741 0.0
C700 C 0.85791 0.86357 0.42068 0.0
C701 C 0.79782 0.83167 0.3602 0.0
C702 C 0.8143 0.85218 0.38486 0.0
C703 C 0.88775 0.91329 0.42738 0.0
C704 C 0.8598 0.89291 0.41735 0.0
H705 H 0.79111 0.8277 0.28239 0.0
H706 H 0.80293 0.86301 0.32504 0.0
H707 H 0.83654 0.82104 0.40539 0.0
H708 H 0.91594 0.9709 0.47629 0.0
H709 H 0.86813 0.94107 0.45533 0.0
C710 C 0.43386 0.56565 0.50723 0.0
C711 C 0.45261 0.55517 0.52831 0.0
C712 C 0.41406 0.58141 0.51727 0.0
C713 C 0.37623 0.59621 0.58555 0.0
H714 H 0.36272 0.66136 0.54107 0.0
C715 C 0.29309 0.66022 0.62425 0.0
C716 C 0.30361 0.69014 0.62583 0.0
C717 C 0.30779 0.64261 0.60813 0.0
C718 C 0.36627 0.64326 0.55378 0.0
H719 H 0.46561 0.55355 0.57651 0.0
H720 H 0.43153 0.58169 0.59405 0.0
H721 H 0.39714 0.63391 0.52314 0.0
H722 H 0.33642 0.72531 0.61032 0.0
H723 H 0.36229 0.69476 0.58262 0.0
H724 H 0.34643 0.60632 0.61698 0.0
C725 C 0.43169 0.57714 0.56973 0.0
C726 C 0.3858 0.62733 0.54334 0.0
C727 C 0.45141 0.5612 0.55968 0.0
C728 C 0.32782 0.70228 0.60942 0.0
C729 C 0.34259 0.68472 0.59344 0.0
C730 C 0.35682 0.61222 0.59608 0.0
C731 C 0.41262 0.58726 0.54864 0.0
C732 C 0.39125 0.60378 0.55928 0.0
C733 C 0.33334 0.65464 0.59344 0.0
C734 C 0.35182 0.63612 0.5805 0.0
H735 H 0.43402 0.56129 0.48287 0.0
H736 H 0.39946 0.58851 0.50041 0.0
H737 H 0.37951 0.57793 0.59811 0.0
H738 H 0.27438 0.65034 0.63665 0.0
H739 H 0.29971 0.61955 0.60804 0.0
C740 C 0.54451 0.08558 0.95047 0.0
C741 C 0.5294 0.05757 0.94101 0.0
C742 C 0.55707 0.10448 0.92892 0.0
C743 C 0.58668 0.09896 0.8546 0.0
H744 H 0.60304 0.18214 0.86117 0.0
C745 C 0.65684 0.20097 0.79061 0.0
C746 C 0.68364 0.19193 0.78968 0.0
C747 C 0.63392 0.18578 0.80662 0.0
C748 C 0.59827 0.15891 0.85881 0.0
H749 H 0.5124 0.02804 0.90205 0.0
H750 H 0.53317 0.0613 0.86434 0.0
H751 H 0.56709 0.15425 0.89312 0.0
H752 H 0.70749 0.16007 0.80501 0.0
H753 H 0.66768 0.13383 0.83298 0.0
H754 H 0.61784 0.10345 0.82058 0.0
C755 C 0.53656 0.06843 0.88828 0.0
C756 C 0.57794 0.14299 0.87724 0.0
C757 C 0.52465 0.04943 0.90978 0.0
C758 C 0.68709 0.16752 0.80508 0.0
C759 C 0.66422 0.15237 0.82098 0.0
C760 C 0.6068 0.11479 0.83622 0.0
C761 C 0.55412 0.09563 0.89771 0.0
C762 C 0.57242 0.11285 0.87573 0.0
C763 C 0.6374 0.16128 0.8218 0.0
C764 C 0.61339 0.14487 0.83872 0.0
H765 H 0.54822 0.09219 0.97454 0.0
H766 H 0.5706 0.12525 0.93693 0.0
H767 H 0.58335 0.0758 0.85314 0.0
H768 H 0.65351 0.21976 0.77902 0.0
H769 H 0.61338 0.19298 0.80682 0.0
C770 C 0.05055 0.43418 0.07051 0.0
C771 C 0.05528 0.44259 0.04061 0.0
C772 C 0.0668 0.416 0.08442 0.0
C773 C 0.11567 0.3657 0.06568 0.0
H774 H 0.13047 0.36854 0.15384 0.0
C775 C 0.19535 0.30653 0.13421 0.0
C776 C 0.18166 0.28902 0.15656 0.0
C777 C 0.18031 0.32487 0.1187 0.0
C778 C 0.12643 0.36753 0.12918 0.0
H779 H 0.08156 0.43952 0.00227 0.0
H780 H 0.11107 0.40934 0.02694 0.0
H781 H 0.10503 0.40268 0.13027 0.0
H782 H 0.14153 0.2768 0.18009 0.0
H783 H 0.1157 0.30943 0.15366 0.0
H784 H 0.13838 0.33114 0.06497 0.0
C785 C 0.09397 0.41556 0.03939 0.0
C786 C 0.11159 0.38695 0.11557 0.0
C787 C 0.07722 0.43317 0.02526 0.0
C788 C 0.15257 0.2899 0.16282 0.0
C789 C 0.13785 0.30868 0.14788 0.0
C790 C 0.13114 0.34674 0.0793 0.0
C791 C 0.08874 0.40626 0.06904 0.0
C792 C 0.10564 0.38618 0.08358 0.0
C793 C 0.15164 0.32649 0.12586 0.0
C794 C 0.13635 0.34728 0.11119 0.0
H795 H 0.03354 0.44084 0.08279 0.0
H796 H 0.06151 0.40903 0.10696 0.0
H797 H 0.11112 0.3638 0.04109 0.0
H798 H 0.21782 0.30637 0.12907 0.0
H799 H 0.19141 0.33847 0.10183 0.0
C800 C 0.58385 0.53957 0.93037 0.0
C801 C 0.556 0.545 0.93564 0.0
C802 C 0.6018 0.55578 0.90996 0.0
C803 C 0.61544 0.62562 0.87526 0.0
H804 H 0.65326 0.58931 0.8138 0.0
C805 C 0.70203 0.69178 0.8041 0.0
C806 C 0.69803 0.68622 0.77228 0.0
C807 C 0.68604 0.67295 0.82362 0.0
C808 C 0.64273 0.59967 0.83079 0.0
H809 H 0.5253 0.5719 0.92377 0.0
H810 H 0.55671 0.60026 0.88862 0.0
H811 H 0.62243 0.55966 0.84916 0.0
H812 H 0.67495 0.65608 0.73592 0.0
H813 H 0.64676 0.62279 0.77034 0.0
H814 H 0.63552 0.66554 0.85706 0.0
C815 C 0.56466 0.58348 0.90022 0.0
C816 C 0.62535 0.58278 0.85116 0.0
C817 C 0.54663 0.56713 0.92031 0.0
C818 C 0.67842 0.66085 0.76037 0.0
C819 C 0.66242 0.64181 0.78004 0.0
C820 C 0.633 0.64246 0.85519 0.0
C821 C 0.59238 0.57794 0.89475 0.0
C822 C 0.61144 0.59562 0.87351 0.0
C823 C 0.66565 0.64805 0.81182 0.0
C824 C 0.64685 0.62971 0.83275 0.0
H825 H 0.59166 0.52256 0.94167 0.0
H826 H 0.62318 0.55121 0.90635 0.0
H827 H 0.60517 0.63613 0.89237 0.0
H828 H 0.7169 0.71119 0.814 0.0
H829 H 0.6893 0.67812 0.84802 0.0
C830 C 0.69251 0.28529 0.15835 0.0
C831 C 0.70598 0.29698 0.18704 0.0
C832 C 0.67836 0.30153 0.13895 0.0
C833 C 0.67453 0.37539 0.12201 0.0
H834 H 0.59469 0.34066 0.08808 0.0
C835 C 0.59823 0.44193 0.06424 0.0
C836 C 0.57792 0.42883 0.03996 0.0
C837 C 0.61536 0.426 0.08061 0.0
C838 C 0.61716 0.3506 0.09684 0.0
H839 H 0.71581 0.33517 0.21752 0.0
H840 H 0.69139 0.36359 0.18344 0.0
H841 H 0.62219 0.31261 0.11904 0.0
H842 H 0.56016 0.38919 0.01301 0.0
H843 H 0.59073 0.36157 0.04075 0.0
H844 H 0.66977 0.41328 0.09957 0.0
C845 C 0.69175 0.34184 0.17603 0.0
C846 C 0.63287 0.33449 0.1147 0.0
C847 C 0.70558 0.32549 0.1956 0.0
C848 C 0.57556 0.39976 0.03177 0.0
C849 C 0.59293 0.3839 0.04787 0.0
C850 C 0.65896 0.39143 0.10383 0.0
C851 C 0.6777 0.32992 0.14766 0.0
C852 C 0.66162 0.34678 0.12767 0.0
C853 C 0.61277 0.39668 0.07282 0.0
C854 C 0.62995 0.37933 0.09118 0.0
H855 H 0.69239 0.26338 0.15107 0.0
H856 H 0.66791 0.29189 0.1171 0.0
H857 H 0.6968 0.3853 0.13146 0.0
H858 H 0.60033 0.46431 0.07113 0.0
H859 H 0.63 0.43654 0.09991 0.0
C860 C 0.9567 0.44945 0.41393 0.0
C861 C 0.95222 0.4769 0.42108 0.0
C862 C 0.94264 0.43405 0.38738 0.0
C863 C 0.9153 0.40869 0.32441 0.0
H864 H 0.83058 0.40381 0.32282 0.0
C865 C 0.82815 0.32822 0.24443 0.0
C866 C 0.80711 0.31061 0.26109 0.0
C867 C 0.84687 0.35295 0.25848 0.0
C868 C 0.85422 0.40527 0.32273 0.0
H869 H 0.93158 0.51078 0.40529 0.0
H870 H 0.90671 0.48368 0.35901 0.0
H871 H 0.86453 0.44011 0.35633 0.0
H872 H 0.78867 0.30504 0.30503 0.0
H873 H 0.82077 0.3486 0.32937 0.0
H874 H 0.90464 0.37287 0.29171 0.0
C875 C 0.9209 0.47404 0.37397 0.0
C876 C 0.87366 0.42614 0.34168 0.0
C877 C 0.93509 0.48949 0.4004 0.0
C878 C 0.80451 0.31841 0.29166 0.0
C879 C 0.82281 0.34333 0.30552 0.0
C880 C 0.89582 0.38799 0.30514 0.0
C881 C 0.92381 0.44586 0.36773 0.0
C882 C 0.90428 0.42743 0.34344 0.0
C883 C 0.84434 0.36061 0.28916 0.0
C884 C 0.86509 0.38554 0.30499 0.0
H885 H 0.96991 0.43935 0.4295 0.0
H886 H 0.94505 0.41225 0.38325 0.0
H887 H 0.93884 0.40939 0.32529 0.0
H888 H 0.83056 0.32259 0.22078 0.0
H889 H 0.86337 0.36601 0.2455 0.0
C890 C 0.56797 0.55466 0.44178 0.0
C891 C 0.56294 0.56375 0.47131 0.0
C892 C 0.58561 0.57344 0.42343 0.0
C893 C 0.61268 0.64769 0.40726 0.0
H894 H 0.67781 0.62108 0.37422 0.0
C895 C 0.6943 0.71799 0.33155 0.0
C896 C 0.70417 0.70385 0.3071 0.0
C897 C 0.67816 0.70226 0.35351 0.0
C898 C 0.65951 0.62874 0.38287 0.0
H899 H 0.57139 0.59981 0.50447 0.0
H900 H 0.60195 0.63317 0.47175 0.0
H901 H 0.64657 0.59137 0.40856 0.0
H902 H 0.70454 0.66222 0.28618 0.0
H903 H 0.6756 0.63482 0.32366 0.0
H904 H 0.62468 0.6845 0.3806 0.0
C905 C 0.5924 0.61133 0.46315 0.0
C906 C 0.64179 0.61178 0.40271 0.0
C907 C 0.57505 0.59231 0.48181 0.0
C908 C 0.69751 0.67373 0.30495 0.0
C909 C 0.68104 0.65802 0.32661 0.0
C910 C 0.63015 0.66453 0.38697 0.0
C911 C 0.59823 0.60182 0.43404 0.0
C912 C 0.61804 0.62095 0.4148 0.0
C913 C 0.67123 0.67204 0.35127 0.0
C914 C 0.65359 0.65508 0.37421 0.0
H915 H 0.55885 0.53279 0.43304 0.0
H916 H 0.58954 0.56575 0.40093 0.0
H917 H 0.59434 0.65509 0.41621 0.0
H918 H 0.69933 0.74122 0.33394 0.0
H919 H 0.6714 0.71381 0.37239 0.0
C920 C 0.77889 0.27294 0.84875 0.0
C921 C 0.79013 0.26794 0.82076 0.0
C922 C 0.79814 0.28159 0.87487 0.0
C923 C 0.87818 0.29753 0.90463 0.0
H924 H 0.85784 0.3649 0.94114 0.0
C925 C 0.94347 0.41417 0.94899 0.0
C926 C 0.95048 0.41534 0.98067 0.0
C927 C 0.92601 0.38924 0.93428 0.0
C928 C 0.86352 0.34582 0.93156 0.0
H929 H 0.82969 0.26537 0.79835 0.0
H930 H 0.86349 0.28188 0.84345 0.0
H931 H 0.82093 0.33155 0.9079 0.0
H932 H 0.94634 0.39114 0.02164 0.0
H933 H 0.91516 0.34735 -0.0044 0.0
H934 H 0.92178 0.3137 0.92696 0.0
C935 C 0.8399 0.2786 0.84568 0.0
C936 C 0.84237 0.32652 0.91269 0.0
C937 C 0.82056 0.26942 0.8197 0.0
C938 C 0.94112 0.39071 -0.00283 0.0
C939 C 0.92353 0.36572 0.98239 0.0
C940 C 0.89948 0.31705 0.92353 0.0
C941 C 0.82899 0.28601 0.87325 0.0
C942 C 0.84968 0.30263 0.89816 0.0
C943 C 0.91539 0.36519 0.95102 0.0
C944 C 0.89236 0.34166 0.93628 0.0
H945 H 0.75536 0.27132 0.85017 0.0
H946 H 0.78895 0.28635 0.89596 0.0
H947 H 0.8844 0.27917 0.89407 0.0
H948 H 0.95024 0.43289 0.93579 0.0
H949 H 0.91959 0.38917 0.91006 0.0
C950 C 0.80715 0.83193 0.1747 0.0
C951 C 0.79923 0.8018 0.17161 0.0
C952 C 0.82428 0.84764 0.1535 0.0
C953 C 0.84315 0.85069 0.07624 0.0
H954 H 0.92124 0.89357 0.1075 0.0
C955 C 0.92911 0.91039 -0.00302 0.0
C956 C 0.94896 0.9355 0.00909 0.0
C957 C 0.90965 0.8936 0.01571 0.0
C958 C 0.89932 0.88226 0.09837 0.0
H959 H 0.80212 0.76451 0.14343 0.0
H960 H 0.8315 0.7923 0.10572 0.0
H961 H 0.88861 0.86562 0.14188 0.0
H962 H 0.96386 0.96295 0.05001 0.0
H963 H 0.92872 0.93525 0.08192 0.0
H964 H 0.8531 0.86818 0.033 0.0
C965 C 0.82466 0.80351 0.12483 0.0
C966 C 0.8808 0.86604 0.1181 0.0
C967 C 0.80806 0.78771 0.14644 0.0
C968 C 0.94852 0.94393 0.03992 0.0
C969 C 0.92868 0.92764 0.0584 0.0
C970 C 0.86144 0.86748 0.05654 0.0
C971 C 0.83319 0.83354 0.1285 0.0
C972 C 0.85262 0.8502 0.1072 0.0
C973 C 0.90937 0.90189 0.04679 0.0
C974 C 0.88977 0.88361 0.06738 0.0
H975 H 0.80076 0.84335 0.19393 0.0
H976 H 0.83071 0.87082 0.15667 0.0
H977 H 0.82136 0.83863 0.06749 0.0
H978 H 0.92916 0.90329 0.97329 0.0
H979 H 0.89545 0.87378 0.00596 0.0
C980 C 0.82996 0.13652 0.76544 0.0
C981 C 0.81672 0.15356 0.78428 0.0
C982 C 0.84346 0.1157 0.77799 0.0
C983 C 0.84362 0.07083 0.84382 0.0
H984 H 0.92576 0.07334 0.82996 0.0
C985 C 0.92001 0.02716 0.92775 0.0
C986 C 0.94348 0.01623 0.91732 0.0
C987 C 0.90161 0.03831 0.90743 0.0
C988 C 0.90261 0.07179 0.83353 0.0
H989 H 0.80685 0.16224 0.83073 0.0
H990 H 0.83009 0.12562 0.8526 0.0
H991 H 0.89913 0.10409 0.8017 0.0
H992 H 0.96497 0.00697 0.87701 0.0
H993 H 0.93237 0.0261 0.84131 0.0
H994 H 0.847 0.03884 0.87584 0.0
C995 C 0.83003 0.12832 0.8282 0.0
C996 C 0.88744 0.08952 0.81743 0.0
C997 C 0.81695 0.14937 0.81575 0.0
C998 C 0.9472 0.01539 0.88581 0.0
C999 C 0.92864 0.02651 0.86538 0.0
C1000 C 0.85864 0.05288 0.85964 0.0
C1001 C 0.84344 0.11133 0.80945 0.0
C1002 C 0.85812 0.08981 0.82317 0.0
C1003 C 0.90603 0.03866 0.87609 0.0
C1004 C 0.88862 0.05385 0.85546 0.0
H1005 H 0.83002 0.13938 0.74107 0.0
H1006 H 0.85366 0.10284 0.7631 0.0
H1007 H 0.82083 0.07035 0.84823 0.0
H1008 H 0.91639 0.0281 0.95184 0.0
H1009 H 0.88476 0.04786 0.91662 0.0
C1010 C 0.69456 0.21265 0.66449 0.0
C1011 C 0.72476 0.21273 0.66478 0.0
C1012 C 0.67716 0.20938 0.63687 0.0
C1013 C 0.67773 0.17503 0.56109 0.0
H1014 H 0.59736 0.1863 0.55591 0.0
C1015 C 0.5748 0.1067 0.48565 0.0
C1016 C 0.56588 0.08451 0.50555 0.0
C1017 C 0.59378 0.13257 0.49673 0.0
C1018 C 0.62 0.18372 0.55643 0.0
H1019 H 0.76149 0.21303 0.6369 0.0
H1020 H 0.73143 0.20863 0.58834 0.0
H1021 H 0.63539 0.21773 0.59057 0.0
H1022 H 0.56892 0.0721 0.55247 0.0
H1023 H 0.60115 0.11757 0.57189 0.0
H1024 H 0.66178 0.14026 0.52787 0.0
C1025 C 0.72073 0.20969 0.60936 0.0
C1026 C 0.6417 0.20135 0.57655 0.0
C1027 C 0.73798 0.21222 0.63709 0.0
C1028 C 0.57505 0.08898 0.53677 0.0
C1029 C 0.59345 0.1149 0.54785 0.0
C1030 C 0.65622 0.15792 0.54058 0.0
C1031 C 0.68981 0.20672 0.60893 0.0
C1032 C 0.67025 0.19576 0.58077 0.0
C1033 C 0.60338 0.13655 0.52784 0.0
C1034 C 0.62692 0.16106 0.53956 0.0
H1035 H 0.68398 0.21331 0.68567 0.0
H1036 H 0.65349 0.20687 0.63781 0.0
H1037 H 0.69926 0.16979 0.56355 0.0
H1038 H 0.56804 0.10365 0.46143 0.0
H1039 H 0.60168 0.14901 0.481 0.0
C1040 C 0.53611 0.93883 0.38294 0.0
C1041 C 0.55136 0.96546 0.39661 0.0
C1042 C 0.54993 0.92414 0.36227 0.0
C1043 C 0.62494 0.9183 0.34863 0.0
H1044 H 0.59002 0.87518 0.27362 0.0
C1045 C 0.69427 0.86055 0.27686 0.0
C1046 C 0.6807 0.8326 0.26563 0.0
C1047 C 0.6773 0.87845 0.2887 0.0
C1048 C 0.59998 0.88698 0.29464 0.0
H1049 H 0.59169 -0.00121 0.39773 0.0
H1050 H 0.61549 0.9735 0.36155 0.0
H1051 H 0.56125 0.90331 0.30157 0.0
H1052 H 0.63884 0.80157 0.25691 0.0
H1053 H 0.60923 0.83251 0.27838 0.0
H1054 H 0.6632 0.9016 0.34259 0.0
C1055 C 0.59328 0.96358 0.36718 0.0
C1056 C 0.58352 0.90306 0.31056 0.0
C1057 C 0.57962 0.97808 0.3878 0.0
C1058 C 0.64981 0.8231 0.26547 0.0
C1059 C 0.63284 0.84089 0.27757 0.0
C1060 C 0.64124 0.90218 0.33293 0.0
C1061 C 0.57908 0.93603 0.35509 0.0
C1062 C 0.59597 0.91898 0.33762 0.0
C1063 C 0.64647 0.86859 0.28986 0.0
C1064 C 0.62906 0.88639 0.3057 0.0
H1065 H 0.51427 0.92872 0.38944 0.0
H1066 H 0.53852 0.9029 0.35326 0.0
H1067 H 0.63487 0.92982 0.36982 0.0
H1068 H 0.71805 0.86843 0.27698 0.0
H1069 H 0.68842 0.89988 0.29739 0.0
C1070 C 0.79188 0.20724 0.34531 0.0
C1071 C 0.78288 0.1977 0.31475 0.0
C1072 C 0.8076 0.19169 0.36413 0.0
C1073 C 0.85391 0.13801 0.35834 0.0
H1074 H 0.84201 0.12854 0.44426 0.0
C1075 C 0.90427 0.05821 0.42689 0.0
C1076 C 0.91875 0.06809 0.45565 0.0
C1077 C 0.88684 0.07428 0.4113 0.0
C1078 C 0.84571 0.13123 0.42034 0.0
H1079 H 0.78196 0.16358 0.28052 0.0
H1080 H 0.80851 0.13638 0.31328 0.0
H1081 H 0.81278 0.15612 0.41414 0.0
H1082 H 0.92577 0.10207 0.49114 0.0
H1083 H 0.89504 0.13025 0.46386 0.0
H1084 H 0.88651 0.11293 0.36434 0.0
C1085 C 0.80437 0.15626 0.32258 0.0
C1086 C 0.82903 0.14706 0.4031 0.0
C1087 C 0.78895 0.17183 0.3038 0.0
C1088 C 0.91483 0.09399 0.46896 0.0
C1089 C 0.89718 0.11003 0.45342 0.0
C1090 C 0.87036 0.1221 0.37546 0.0
C1091 C 0.81446 0.16624 0.35278 0.0
C1092 C 0.83272 0.15038 0.37177 0.0
C1093 C 0.88339 0.10055 0.4242 0.0
C1094 C 0.86628 0.11827 0.40656 0.0
H1095 H 0.78757 0.22711 0.35443 0.0
H1096 H 0.81514 0.20008 0.38724 0.0
H1097 H 0.85797 0.14074 0.3345 0.0
H1098 H 0.90679 0.03825 0.41614 0.0
H1099 H 0.87613 0.06619 0.38903 0.0
C1100 C 0.68342 0.1749 0.20826 0.0
C1101 C 0.6802 0.18193 0.23892 0.0
C1102 C 0.66602 0.14986 0.19381 0.0
C1103 C 0.59434 0.10476 0.18928 0.0
H1104 H 0.62983 0.05201 0.1436 0.0
C1105 C 0.56215 0.00311 0.09382 0.0
C1106 C 0.5475 0.01582 0.07097 0.0
C1107 C 0.57432 0.01873 0.12085 0.0
C1108 C 0.61949 0.06617 0.15667 0.0
H1109 H 0.65632 0.16866 0.27863 0.0
H1110 H 0.62475 0.12499 0.25264 0.0
H1111 H 0.66098 0.08803 0.17969 0.0
H1112 H 0.53264 0.05412 0.05883 0.0
H1113 H 0.55385 0.08151 0.10626 0.0
H1114 H 0.55311 0.08408 0.16469 0.0
C1115 C 0.64127 0.1387 0.24023 0.0
C1116 C 0.63733 0.08678 0.17717 0.0
C1117 C 0.65926 0.16353 0.25498 0.0
C1118 C 0.54376 0.04385 0.07619 0.0
C1119 C 0.55574 0.05942 0.10336 0.0
C1120 C 0.5765 0.08436 0.16838 0.0
C1121 C 0.64464 0.13176 0.20956 0.0
C1122 C 0.62501 0.1067 0.19294 0.0
C1123 C 0.57184 0.04724 0.12552 0.0
C1124 C 0.58912 0.06543 0.15133 0.0
H1125 H 0.6991 0.18893 0.19527 0.0
H1126 H 0.66863 0.14507 0.16999 0.0
H1127 H 0.58452 0.12014 0.20111 0.0
H1128 H 0.56508 0.9814 0.09041 0.0
H1129 H 0.58649 0.00886 0.13769 0.0
C1130 C 0.72103 0.80842 0.8375 0.0
C1131 C 0.71304 0.80091 0.80628 0.0
C1132 C 0.70449 0.82388 0.8544 0.0
C1133 C 0.62989 0.83838 0.85591 0.0
H1134 H 0.66796 0.90672 0.90583 0.0
C1135 C 0.56093 0.91195 0.90963 0.0
C1136 C 0.57154 0.92646 0.93792 0.0
C1137 C 0.57845 0.89666 0.89402 0.0
C1138 C 0.65684 0.88742 0.89248 0.0
H1139 H 0.68113 0.80379 0.76855 0.0
H1140 H 0.65233 0.83007 0.79801 0.0
H1141 H 0.69814 0.87959 0.87911 0.0
H1142 H 0.60861 0.93599 0.9723 0.0
H1143 H 0.63859 0.90855 0.94596 0.0
H1144 H 0.58868 0.84548 0.86965 0.0
C1145 C 0.67141 0.82416 0.80942 0.0
C1146 C 0.67427 0.87192 0.87705 0.0
C1147 C 0.68813 0.80922 0.79249 0.0
C1148 C 0.59989 0.92518 0.9504 0.0
C1149 C 0.61722 0.90957 0.93508 0.0
C1150 C 0.61248 0.85358 0.87169 0.0
C1151 C 0.67928 0.83165 0.84058 0.0
C1152 C 0.66098 0.84737 0.85834 0.0
C1153 C 0.60688 0.89511 0.90654 0.0
C1154 C 0.62561 0.87853 0.89005 0.0
H1155 H 0.74004 0.8024 0.84887 0.0
H1156 H 0.71106 0.82928 0.87842 0.0
H1157 H 0.61898 0.81935 0.84196 0.0
H1158 H 0.53921 0.91268 0.89937 0.0
H1159 H 0.56974 0.88639 0.87191 0.0
C1160 C 0.91863 0.97141 0.57834 0.0
C1161 C 0.94731 0.96707 0.57531 0.0
C1162 C 0.90089 0.95683 0.59986 0.0
C1163 C 0.90309 0.91432 0.66889 0.0
H1164 H 0.82196 0.87849 0.63994 0.0
C1165 C 0.80722 0.81142 0.69744 0.0
C1166 C 0.80932 0.81434 0.72949 0.0
C1167 C 0.82171 0.83364 0.68039 0.0
C1168 C 0.84457 0.88835 0.64837 0.0
H1169 H 0.98022 0.94478 0.59342 0.0
H1170 H 0.94924 0.9192 0.63054 0.0
H1171 H 0.85288 0.91104 0.6076 0.0
H1172 H 0.82729 0.843 0.76888 0.0
H1173 H 0.85252 0.88204 0.73908 0.0
H1174 H 0.89525 0.89057 0.70903 0.0
C1175 C 0.94051 0.93408 0.61653 0.0
C1176 C 0.86219 0.90728 0.62999 0.0
C1177 C 0.95823 0.94863 0.59504 0.0
C1178 C 0.82547 0.84017 0.74418 0.0
C1179 C 0.83999 0.86244 0.72713 0.0
C1180 C 0.88549 0.89536 0.68725 0.0
C1181 C 0.91146 0.93764 0.61887 0.0
C1182 C 0.89184 0.92005 0.63979 0.0
C1183 C 0.83864 0.85926 0.69505 0.0
C1184 C 0.8562 0.88171 0.67695 0.0
H1185 H 0.90955 0.98557 0.56362 0.0
H1186 H 0.87875 0.96034 0.60139 0.0
H1187 H 0.92573 0.92409 0.67728 0.0
H1188 H 0.79504 0.79165 0.68553 0.0
H1189 H 0.82054 0.8303 0.65577 0.0
C1190 C 0.24309 0.84511 0.82517 0.0
C1191 C 0.23517 0.81497 0.82446 0.0
C1192 C 0.22563 0.86132 0.8393 0.0
C1193 C 0.14822 0.85443 0.85233 0.0
H1194 H 0.17425 0.92427 0.9038 0.0
C1195 C 0.06512 0.91001 0.90648 0.0
C1196 C 0.07204 0.94004 0.91031 0.0
C1197 C 0.0859 0.8956 0.89612 0.0
C1198 C 0.16667 0.90505 0.88903 0.0
H1199 H 0.20447 0.77818 0.84008 0.0
H1200 H 0.17406 0.80648 0.86473 0.0
H1201 H 0.21056 0.89749 0.88851 0.0
H1202 H 0.10561 0.97877 0.90549 0.0
H1203 H 0.14171 0.95367 0.88626 0.0
H1204 H 0.10462 0.86211 0.85188 0.0
C1205 C 0.19347 0.81755 0.85407 0.0
C1206 C 0.18745 0.88965 0.88051 0.0
C1207 C 0.21099 0.80139 0.84016 0.0
C1208 C 0.09976 0.95555 0.90269 0.0
C1209 C 0.12052 0.94114 0.89201 0.0
C1210 C 0.12756 0.86994 0.86049 0.0
C1211 C 0.19996 0.84758 0.85272 0.0
C1212 C 0.17833 0.86403 0.86235 0.0
C1213 C 0.11399 0.91094 0.88902 0.0
C1214 C 0.13642 0.8953 0.87919 0.0
H1215 H 0.26164 0.85608 0.81319 0.0
H1216 H 0.23112 0.88446 0.83796 0.0
H1217 H 0.14068 0.8351 0.83769 0.0
H1218 H 0.04399 0.89752 0.91247 0.0
H1219 H 0.0802 0.87235 0.89461 0.0
C1220 C 0.95904 0.39442 0.52736 0.0
C1221 C 0.9612 0.42242 0.53965 0.0
C1222 C 0.94808 0.37074 0.54434 0.0
C1223 C 0.93387 0.34987 0.62271 0.0
H1224 H 0.86299 0.29742 0.58588 0.0
C1225 C 0.85404 0.27473 0.69454 0.0
C1226 C 0.82477 0.27807 0.68954 0.0
C1227 C 0.87508 0.28533 0.67411 0.0
C1228 C 0.88301 0.31164 0.59632 0.0
H1229 H 0.95445 0.44768 0.57949 0.0
H1230 H 0.93535 0.40651 0.6089 0.0
H1231 H 0.89432 0.3302 0.55388 0.0
H1232 H 0.79437 0.29446 0.65891 0.0
H1233 H 0.83113 0.31331 0.62366 0.0
H1234 H 0.92148 0.33285 0.66546 0.0
C1235 C 0.94226 0.40282 0.58631 0.0
C1236 C 0.90104 0.33015 0.57801 0.0
C1237 C 0.95279 0.42637 0.56929 0.0
C1238 C 0.8168 0.29179 0.66356 0.0
C1239 C 0.83774 0.30218 0.6431 0.0
C1240 C 0.91594 0.33129 0.64099 0.0
C1241 C 0.93969 0.37484 0.57397 0.0
C1242 C 0.92572 0.35039 0.59138 0.0
C1243 C 0.86707 0.29918 0.64825 0.0
C1244 C 0.88957 0.31309 0.62814 0.0
H1245 H 0.96546 0.39079 0.50455 0.0
H1246 H 0.94607 0.34929 0.53435 0.0
H1247 H 0.95306 0.36514 0.63338 0.0
H1248 H 0.86078 0.26407 0.71429 0.0
H1249 H 0.89761 0.28286 0.67858 0.0
C1250 C 0.44517 0.07895 0.47864 0.0
C1251 C 0.45491 0.05786 0.46156 0.0
C1252 C 0.42712 0.09551 0.4647 0.0
C1253 C 0.37756 0.09811 0.3947 0.0
H1254 H 0.3901 0.17854 0.42053 0.0
C1255 C 0.29985 0.1684 0.34735 0.0
C1256 C 0.31294 0.19665 0.34054 0.0
C1257 C 0.3163 0.15177 0.36367 0.0
C1258 C 0.38638 0.15618 0.41283 0.0
H1259 H 0.45299 0.03769 0.41622 0.0
H1260 H 0.42199 0.06684 0.39182 0.0
H1261 H 0.42068 0.14901 0.44476 0.0
H1262 H 0.35339 0.22985 0.34593 0.0
H1263 H 0.3823 0.20083 0.37401 0.0
H1264 H 0.34397 0.10549 0.36206 0.0
C1265 C 0.42789 0.07029 0.41618 0.0
C1266 C 0.40372 0.13908 0.42706 0.0
C1267 C 0.44585 0.05362 0.43017 0.0
C1268 C 0.34264 0.2082 0.35103 0.0
C1269 C 0.35918 0.19153 0.36723 0.0
C1270 C 0.3603 0.11523 0.38041 0.0
C1271 C 0.41835 0.09159 0.43321 0.0
C1272 C 0.39961 0.10978 0.41819 0.0
C1273 C 0.34637 0.16291 0.37344 0.0
C1274 C 0.36446 0.14454 0.38922 0.0
H1275 H 0.45151 0.08275 0.5029 0.0
H1276 H 0.41985 0.11128 0.47874 0.0
H1277 H 0.37342 0.07561 0.38743 0.0
H1278 H 0.27696 0.15892 0.33961 0.0
H1279 H 0.30543 0.13008 0.36849 0.0
C1280 C 0.54471 0.52536 0.07485 0.0
C1281 C 0.52046 0.53623 0.06431 0.0
C1282 C 0.56654 0.5417 0.09563 0.0
C1283 C 0.58675 0.61053 0.14285 0.0
H1284 H 0.66406 0.61446 0.11228 0.0
C1285 C 0.67938 0.7117 0.15401 0.0
C1286 C 0.70187 0.70891 0.17595 0.0
C1287 C 0.65931 0.68729 0.1413 0.0
C1288 C 0.64259 0.61332 0.12106 0.0
H1289 H 0.49793 0.57104 0.06906 0.0
H1290 H 0.53629 0.60014 0.10446 0.0
H1291 H 0.62241 0.57538 0.09377 0.0
H1292 H 0.72267 0.67878 0.19994 0.0
H1293 H 0.68824 0.63605 0.17658 0.0
H1294 H 0.60688 0.64967 0.16859 0.0
C1295 C 0.5386 0.57891 0.09729 0.0
C1296 C 0.61884 0.59085 0.11089 0.0
C1297 C 0.51665 0.56234 0.07686 0.0
C1298 C 0.7057 0.68145 0.18287 0.0
C1299 C 0.68599 0.65706 0.16972 0.0
C1300 C 0.61036 0.63322 0.15256 0.0
C1301 C 0.56443 0.56931 0.10576 0.0
C1302 C 0.59048 0.58967 0.12107 0.0
C1303 C 0.66206 0.66 0.14993 0.0
C1304 C 0.63811 0.63502 0.14111 0.0
H1305 H 0.54727 0.50475 0.06625 0.0
H1306 H 0.58575 0.53338 0.10248 0.0
H1307 H 0.56534 0.60989 0.15154 0.0
H1308 H 0.67597 0.73265 0.14835 0.0
H1309 H 0.64086 0.68971 0.12587 0.0
C1310 C 0.21874 0.1683 0.70772 0.0
C1311 C 0.21578 0.19332 0.69316 0.0
C1312 C 0.20821 0.14143 0.69254 0.0
C1313 C 0.15557 0.09523 0.66444 0.0
H1314 H 0.15552 0.08353 0.57664 0.0
C1315 C 0.05101 0.05967 0.58663 0.0
C1316 C 0.05137 0.04506 0.55854 0.0
C1317 C 0.07658 0.06669 0.60657 0.0
C1318 C 0.15565 0.08573 0.60129 0.0
H1319 H 0.20211 0.21048 0.65095 0.0
H1320 H 0.18386 0.16376 0.62437 0.0
H1321 H 0.19617 0.1178 0.60445 0.0
H1322 H 0.07793 0.02497 0.52965 0.0
H1323 H 0.12248 0.03693 0.56465 0.0
H1324 H 0.11395 0.06464 0.66097 0.0
C1325 C 0.19423 0.16468 0.64738 0.0
C1326 C 0.17891 0.10548 0.61715 0.0
C1327 C 0.20429 0.1914 0.66266 0.0
C1328 C 0.07714 0.03634 0.55124 0.0
C1329 C 0.10263 0.04316 0.57122 0.0
C1330 C 0.13228 0.07543 0.64857 0.0
C1331 C 0.19519 0.13943 0.66249 0.0
C1332 C 0.17794 0.1118 0.64845 0.0
C1333 C 0.10287 0.05912 0.59869 0.0
C1334 C 0.13117 0.072 0.61658 0.0
H1335 H 0.2278 0.1694 0.73126 0.0
H1336 H 0.20909 0.12224 0.70463 0.0
H1337 H 0.15434 0.09966 0.68863 0.0
H1338 H 0.03131 0.06646 0.59276 0.0
H1339 H 0.07619 0.07947 0.62733 0.0
C1340 C 0.70765 0.324 0.36347 0.0
C1341 C 0.69411 0.31305 0.33459 0.0
C1342 C 0.69482 0.3421 0.38133 0.0
C1343 C 0.64724 0.39288 0.37445 0.0
H1344 H 0.62124 0.3718 0.45427 0.0
C1345 C 0.55641 0.43816 0.42476 0.0
C1346 C 0.55904 0.44615 0.45608 0.0
C1347 C 0.57585 0.42316 0.41264 0.0
C1348 C 0.62883 0.37828 0.43227 0.0
H1349 H 0.65696 0.3124 0.30155 0.0
H1350 H 0.63509 0.34433 0.33229 0.0
H1351 H 0.6518 0.34411 0.42837 0.0
H1352 H 0.58375 0.44402 0.49944 0.0
H1353 H 0.61809 0.41801 0.47805 0.0
H1354 H 0.62431 0.42675 0.37786 0.0
C1355 C 0.6554 0.3389 0.34123 0.0
C1356 C 0.6463 0.36246 0.41752 0.0
C1357 C 0.66784 0.32055 0.32375 0.0
C1358 C 0.58112 0.43814 0.47519 0.0
C1359 C 0.60076 0.42321 0.46298 0.0
C1360 C 0.63011 0.40879 0.38922 0.0
C1361 C 0.66874 0.34986 0.37012 0.0
C1362 C 0.65482 0.36915 0.3881 0.0
C1363 C 0.5986 0.41597 0.43146 0.0
C1364 C 0.61986 0.4011 0.41783 0.0
H1365 H 0.72792 0.31842 0.37227 0.0
H1366 H 0.70541 0.35035 0.4036 0.0
H1367 H 0.65392 0.39862 0.3519 0.0
H1368 H 0.53943 0.44366 0.40944 0.0
H1369 H 0.57303 0.41721 0.3884 0.0
C1370 C 0.4612 0.89238 0.04343 0.0
C1371 C 0.46338 0.92099 0.05377 0.0
C1372 C 0.44823 0.86982 0.06085 0.0
C1373 C 0.39678 0.83218 0.09059 0.0
H1374 H 0.40853 0.83558 0.1791 0.0
C1375 C 0.30434 0.79536 0.16862 0.0
C1376 C 0.31041 0.78247 0.19583 0.0
C1377 C 0.3268 0.80477 0.14942 0.0
C1378 C 0.40538 0.83388 0.15436 0.0
H1379 H 0.45508 0.9485 0.09095 0.0
H1380 H 0.43236 0.9091 0.12129 0.0
H1381 H 0.44392 0.86721 0.1499 0.0
H1382 H 0.34442 0.76812 0.22365 0.0
H1383 H 0.38374 0.78502 0.19016 0.0
H1384 H 0.35736 0.79994 0.09517 0.0
C1385 C 0.44078 0.90414 0.09981 0.0
C1386 C 0.42548 0.8521 0.13774 0.0
C1387 C 0.45343 0.92667 0.08229 0.0
C1388 C 0.33909 0.77818 0.20292 0.0
C1389 C 0.3616 0.78778 0.1838 0.0
C1390 C 0.37657 0.81408 0.10724 0.0
C1391 C 0.43765 0.87556 0.08901 0.0
C1392 C 0.42064 0.85218 0.10585 0.0
C1393 C 0.35573 0.80157 0.15717 0.0
C1394 C 0.38011 0.81563 0.1393 0.0
H1395 H 0.46877 0.88736 0.02153 0.0
H1396 H 0.44601 0.84791 0.05212 0.0
H1397 H 0.39254 0.83194 0.06599 0.0
H1398 H 0.28241 0.79872 0.16241 0.0
H1399 H 0.32181 0.81574 0.12921 0.0
C1400 C 0.92034 0.54606 0.96004 0.0
C1401 C 0.94545 0.54067 0.94689 0.0
C1402 C 0.90423 0.56462 0.9467 0.0
C1403 C 0.89495 0.6033 0.87486 0.0
H1404 H 0.85692 0.64852 0.92751 0.0
C1405 C 0.85075 0.70082 0.83439 0.0
C1406 C 0.82069 0.69935 0.83847 0.0
C1407 C 0.86557 0.68166 0.84849 0.0
C1408 C 0.86734 0.63591 0.91257 0.0
H1409 H 0.97348 0.55071 0.90949 0.0
H1410 H 0.9464 0.58401 0.88699 0.0
H1411 H 0.88377 0.61478 0.94983 0.0
H1412 H 0.78282 0.67739 0.86129 0.0
H1413 H 0.80919 0.64448 0.887 0.0
H1414 H 0.87943 0.62562 0.83781 0.0
C1415 C 0.9383 0.57321 0.907 0.0
C1416 C 0.88259 0.61635 0.92526 0.0
C1417 C 0.95402 0.55416 0.92 0.0
C1418 C 0.80603 0.67906 0.85788 0.0
C1419 C 0.82108 0.66026 0.87254 0.0
C1420 C 0.88025 0.6233 0.8623 0.0
C1421 C 0.91315 0.57884 0.92018 0.0
C1422 C 0.89663 0.59965 0.90661 0.0
C1423 C 0.85083 0.66102 0.86746 0.0
C1424 C 0.86627 0.63977 0.88101 0.0
H1425 H 0.913 0.53581 0.98064 0.0
H1426 H 0.88467 0.56765 0.95725 0.0
H1427 H 0.90473 0.59054 0.85949 0.0
H1428 H 0.86258 0.71612 0.81942 0.0
H1429 H 0.88856 0.68283 0.84439 0.0
C1430 C 0.44683 0.4241 0.06942 0.0
C1431 C 0.43582 0.44225 0.0494 0.0
C1432 C 0.42937 0.41011 0.0914 0.0
C1433 C 0.39506 0.39619 0.14703 0.0
H1434 H 0.31201 0.36131 0.12611 0.0
C1435 C 0.32128 0.33336 0.23434 0.0
C1436 C 0.30341 0.30698 0.22276 0.0
C1437 C 0.33536 0.35332 0.21439 0.0
C1438 C 0.33519 0.37094 0.13232 0.0
H1439 H 0.39761 0.45974 0.0367 0.0
H1440 H 0.3672 0.43547 0.0753 0.0
H1441 H 0.34119 0.38849 0.08844 0.0
H1442 H 0.28607 0.28082 0.1814 0.0
H1443 H 0.31049 0.31525 0.14687 0.0
H1444 H 0.38941 0.37751 0.1904 0.0
C1445 C 0.38928 0.43183 0.07375 0.0
C1446 C 0.35184 0.38677 0.11082 0.0
C1447 C 0.40674 0.44578 0.05162 0.0
C1448 C 0.29936 0.30115 0.191 0.0
C1449 C 0.31332 0.32098 0.17115 0.0
C1450 C 0.37843 0.38028 0.16849 0.0
C1451 C 0.40048 0.414 0.09406 0.0
C1452 C 0.38214 0.39912 0.1177 0.0
C1453 C 0.33176 0.34719 0.18255 0.0
C1454 C 0.34844 0.36697 0.16118 0.0
H1455 H 0.46906 0.42073 0.06827 0.0
H1456 H 0.43849 0.39603 0.10619 0.0
H1457 H 0.41821 0.40588 0.15329 0.0
H1458 H 0.32473 0.33837 0.25876 0.0
H1459 H 0.34923 0.37343 0.22389 0.0
C1460 C 0.41293 0.58228 0.95055 0.0
C1461 C 0.41546 0.55561 0.93805 0.0
C1462 C 0.39884 0.60014 0.93332 0.0
C1463 C 0.34919 0.60114 0.8633 0.0
H1464 H 0.38602 0.68254 0.86849 0.0
C1465 C 0.32045 0.67836 0.77439 0.0
C1466 C 0.31592 0.70493 0.78533 0.0
C1467 C 0.33185 0.66047 0.79406 0.0
C1468 C 0.37529 0.65992 0.86704 0.0
H1469 H 0.40477 0.52629 0.89808 0.0
H1470 H 0.3806 0.55761 0.86769 0.0
H1471 H 0.40636 0.65018 0.90104 0.0
H1472 H 0.32046 0.73372 0.82554 0.0
H1473 H 0.34066 0.70242 0.85991 0.0
H1474 H 0.31852 0.61091 0.82879 0.0
C1475 C 0.38902 0.56465 0.89097 0.0
C1476 C 0.38688 0.64134 0.88575 0.0
C1477 C 0.40296 0.54671 0.90831 0.0
C1478 C 0.32366 0.71341 0.81635 0.0
C1479 C 0.33531 0.69554 0.83603 0.0
C1480 C 0.33774 0.6197 0.84446 0.0
C1481 C 0.38716 0.59178 0.90311 0.0
C1482 C 0.37408 0.61168 0.88401 0.0
C1483 C 0.3392 0.66873 0.82514 0.0
C1484 C 0.35078 0.64926 0.84598 0.0
H1485 H 0.42229 0.58961 0.9735 0.0
H1486 H 0.39732 0.62061 0.94363 0.0
H1487 H 0.33843 0.57854 0.8617 0.0
H1488 H 0.31479 0.67108 0.75064 0.0
H1489 H 0.33503 0.64015 0.78488 0.0
C1490 C 0.07138 0.51012 0.58444 0.0
C1491 C 0.0502 0.51974 0.5657 0.0
C1492 C 0.08746 0.52788 0.60858 0.0
C1493 C 0.09192 0.59302 0.65723 0.0
H1494 H 0.17591 0.60846 0.64523 0.0
C1495 C 0.17222 0.69761 0.70341 0.0
C1496 C 0.2017 0.69705 0.71211 0.0
C1497 C 0.1527 0.67304 0.69015 0.0
C1498 C 0.15267 0.60405 0.64953 0.0
H1499 H 0.0276 0.55434 0.5586 0.0
H1500 H 0.05531 0.58515 0.60117 0.0
H1501 H 0.1421 0.56904 0.61606 0.0
H1502 H 0.23396 0.67054 0.71478 0.0
H1503 H 0.19971 0.6273 0.6926 0.0
H1504 H 0.10239 0.62813 0.69061 0.0
C1505 C 0.05955 0.56399 0.59717 0.0
C1506 C 0.13331 0.58145 0.63275 0.0
C1507 C 0.04378 0.54642 0.57278 0.0
C1508 C 0.21134 0.67151 0.7079 0.0
C1509 C 0.19173 0.6468 0.69511 0.0
C1510 C 0.11137 0.61541 0.67442 0.0
C1511 C 0.08222 0.55527 0.61456 0.0
C1512 C 0.10273 0.57617 0.63594 0.0
C1513 C 0.16223 0.64733 0.68579 0.0
C1514 C 0.1419 0.62165 0.67019 0.0
H1515 H 0.07661 0.48954 0.5795 0.0
H1516 H 0.10477 0.52069 0.62184 0.0
H1517 H 0.06839 0.58921 0.66012 0.0
H1518 H 0.16438 0.71717 0.70637 0.0
H1519 H 0.13036 0.67445 0.68267 0.0
C1520 C 0.30515 0.32198 0.66576 0.0
C1521 C 0.30021 0.29193 0.66623 0.0
C1522 C 0.32411 0.33693 0.64559 0.0
C1523 C 0.35506 0.33565 0.57377 0.0
H1524 H 0.42342 0.39022 0.61271 0.0
C1525 C 0.44044 0.407 0.50289 0.0
C1526 C 0.45092 0.43555 0.5141 0.0
C1527 C 0.42421 0.38668 0.52104 0.0
C1528 C 0.40432 0.37533 0.60141 0.0
H1529 H 0.31005 0.25385 0.64501 0.0
H1530 H 0.34258 0.28025 0.60872 0.0
H1531 H 0.38888 0.3602 0.64404 0.0
H1532 H 0.4531 0.46534 0.55297 0.0
H1533 H 0.42406 0.43046 0.58412 0.0
H1534 H 0.36935 0.35176 0.53119 0.0
C1535 C 0.33201 0.29202 0.62441 0.0
C1536 C 0.38472 0.35805 0.61938 0.0
C1537 C 0.31348 0.27701 0.6451 0.0
C1538 C 0.44539 0.4434 0.54383 0.0
C1539 C 0.42891 0.42327 0.56178 0.0
C1540 C 0.37439 0.35336 0.55572 0.0
C1541 C 0.33798 0.32211 0.6251 0.0
C1542 C 0.35975 0.33842 0.60571 0.0
C1543 C 0.41792 0.39466 0.5506 0.0
C1544 C 0.39899 0.3738 0.56938 0.0
H1545 H 0.29551 0.33413 0.68194 0.0
H1546 H 0.32838 0.36017 0.64633 0.0
H1547 H 0.33581 0.32064 0.56287 0.0
H1548 H 0.44462 0.40042 0.48006 0.0
H1549 H 0.41654 0.36477 0.51185 0.0
C1550 C 0.17966 0.71439 0.18407 0.0
C1551 C 0.20689 0.70683 0.19056 0.0
C1552 C 0.16124 0.70206 0.15827 0.0
C1553 C 0.15967 0.65687 0.08664 0.0
H1554 H 0.07746 0.62779 0.10215 0.0
C1555 C 0.08145 0.57293 0.00382 0.0
C1556 C 0.06251 0.55094 0.01779 0.0
C1557 C 0.09681 0.59748 0.02107 0.0
C1558 C 0.10038 0.63568 0.09747 0.0
H1559 H 0.23691 0.68158 0.17486 0.0
H1560 H 0.20465 0.65941 0.13078 0.0
H1561 H 0.10974 0.66177 0.13897 0.0
H1562 H 0.04549 0.5363 0.06035 0.0
H1563 H 0.07283 0.5785 0.09088 0.0
H1564 H 0.15103 0.62896 0.0465 0.0
C1565 C 0.19754 0.67524 0.14489 0.0
C1566 C 0.1188 0.65559 0.11836 0.0
C1567 C 0.21594 0.68769 0.17041 0.0
C1568 C 0.05932 0.55348 0.04911 0.0
C1569 C 0.07496 0.57773 0.06648 0.0
C1570 C 0.14139 0.63662 0.06601 0.0
C1571 C 0.16975 0.68189 0.13872 0.0
C1572 C 0.14894 0.66557 0.11375 0.0
C1573 C 0.09386 0.60011 0.05269 0.0
C1574 C 0.11181 0.625 0.07177 0.0
H1575 H 0.17239 0.72938 0.19919 0.0
H1576 H 0.14015 0.70792 0.15395 0.0
H1577 H 0.18261 0.6647 0.08201 0.0
H1578 H 0.08398 0.57131 0.97952 0.0
H1579 H 0.11092 0.61437 0.00962 0.0
C1580 C 0.70457 0.35302 0.71554 0.0
C1581 C 0.69272 0.32354 0.70941 0.0
C1582 C 0.68801 0.37305 0.70718 0.0
C1583 C 0.61155 0.38035 0.68866 0.0
H1584 H 0.64762 0.44417 0.64164 0.0
C1585 C 0.54388 0.43862 0.60934 0.0
C1586 C 0.55523 0.4675 0.60361 0.0
C1587 C 0.55996 0.42417 0.62878 0.0
C1588 C 0.63731 0.42691 0.65537 0.0
H1589 H 0.65443 0.29173 0.68997 0.0
H1590 H 0.62545 0.32667 0.67547 0.0
H1591 H 0.67775 0.41268 0.66264 0.0
H1592 H 0.59114 0.50461 0.61527 0.0
H1593 H 0.6191 0.47951 0.6499 0.0
H1594 H 0.57102 0.39426 0.6811 0.0
C1595 C 0.64742 0.33433 0.68687 0.0
C1596 C 0.6546 0.40879 0.66728 0.0
C1597 C 0.66407 0.31437 0.69493 0.0
C1598 C 0.58198 0.48227 0.61923 0.0
C1599 C 0.59808 0.46783 0.63883 0.0
C1600 C 0.59431 0.39861 0.677 0.0
C1601 C 0.65921 0.36386 0.6929 0.0
C1602 C 0.64171 0.3849 0.68335 0.0
C1603 C 0.58771 0.43835 0.64302 0.0
C1604 C 0.6068 0.42166 0.6595 0.0
H1605 H 0.72661 0.3606 0.72676 0.0
H1606 H 0.69758 0.39569 0.71215 0.0
H1607 H 0.60118 0.36235 0.70144 0.0
H1608 H 0.52328 0.42672 0.59755 0.0
H1609 H 0.55139 0.40143 0.63115 0.0
C1610 C 0.85456 0.67938 0.22403 0.0
C1611 C 0.82372 0.67224 0.21729 0.0
C1612 C 0.87196 0.66075 0.21475 0.0
C1613 C 0.86848 0.58584 0.18735 0.0
H1614 H 0.93774 0.62014 0.14572 0.0
C1615 C 0.9194 0.52316 0.09986 0.0
C1616 C 0.95012 0.53042 0.09746 0.0
C1617 C 0.90635 0.53858 0.12031 0.0
C1618 C 0.91886 0.6102 0.15783 0.0
H1619 H 0.78666 0.63989 0.19638 0.0
H1620 H 0.81701 0.6074 0.17991 0.0
H1621 H 0.91025 0.65089 0.17079 0.0
H1622 H 0.99159 0.55849 0.11541 0.0
H1623 H 0.96878 0.58544 0.15152 0.0
H1624 H 0.87668 0.5451 0.17365 0.0
C1625 C 0.82779 0.6272 0.19263 0.0
C1626 C 0.90306 0.62785 0.17217 0.0
C1627 C 0.81042 0.64587 0.20185 0.0
C1628 C 0.9678 0.55255 0.1168 0.0
C1629 C 0.95473 0.56805 0.1373 0.0
C1630 C 0.88432 0.56817 0.17306 0.0
C1631 C 0.85879 0.6346 0.19864 0.0
C1632 C 0.87732 0.61586 0.1865 0.0
C1633 C 0.92378 0.56161 0.13881 0.0
C1634 C 0.90931 0.58015 0.15754 0.0
H1635 H 0.86532 0.69957 0.23605 0.0
H1636 H 0.89575 0.6669 0.21999 0.0
H1637 H 0.84901 0.57599 0.19866 0.0
H1638 H 0.90527 0.50618 0.08516 0.0
H1639 H 0.88243 0.53328 0.12058 0.0
C1640 C 0.93226 0.56441 0.59108 0.0
C1641 C 0.92686 0.55921 0.55927 0.0
C1642 C 0.91549 0.58012 0.60726 0.0
C1643 C 0.86871 0.63331 0.59714 0.0
H1644 H 0.84006 0.60791 0.67463 0.0
C1645 C 0.78981 0.69009 0.66078 0.0
C1646 C 0.79353 0.69262 0.69292 0.0
C1647 C 0.80508 0.67315 0.64414 0.0
C1648 C 0.84817 0.61564 0.65324 0.0
H1649 H 0.89967 0.56647 0.51949 0.0
H1650 H 0.87062 0.59395 0.54757 0.0
H1651 H 0.86916 0.58038 0.64697 0.0
H1652 H 0.81654 0.67915 0.73259 0.0
H1653 H 0.84338 0.65049 0.70386 0.0
H1654 H 0.84829 0.66885 0.60356 0.0
C1655 C 0.88785 0.58603 0.56009 0.0
C1656 C 0.86487 0.59973 0.63731 0.0
C1657 C 0.90439 0.57011 0.544 0.0
C1658 C 0.8128 0.67763 0.7079 0.0
C1659 C 0.82818 0.66093 0.69132 0.0
C1660 C 0.85223 0.64938 0.61318 0.0
C1661 C 0.89312 0.59127 0.59196 0.0
C1662 C 0.87539 0.60833 0.60903 0.0
C1663 C 0.82467 0.65841 0.65915 0.0
C1664 C 0.8417 0.64085 0.64155 0.0
H1665 H 0.94947 0.55635 0.60348 0.0
H1666 H 0.92037 0.58394 0.63173 0.0
H1667 H 0.87673 0.6408 0.57561 0.0
H1668 H 0.77513 0.70123 0.64841 0.0
H1669 H 0.80132 0.6715 0.61947 0.0
C1670 C 0.46563 0.56179 0.37837 0.0
C1671 C 0.45384 0.53314 0.3847 0.0
C1672 C 0.4478 0.57778 0.36333 0.0
C1673 C 0.36969 0.58009 0.3569 0.0
H1674 H 0.39581 0.64337 0.30508 0.0
C1675 C 0.2938 0.65346 0.31373 0.0
C1676 C 0.3067 0.68291 0.31349 0.0
C1677 C 0.31133 0.63392 0.32046 0.0
C1678 C 0.38833 0.6259 0.31976 0.0
H1679 H 0.41533 0.49775 0.37764 0.0
H1680 H 0.38425 0.52555 0.35079 0.0
H1681 H 0.42757 0.60988 0.31583 0.0
H1682 H 0.34771 0.71529 0.32104 0.0
H1683 H 0.37839 0.68115 0.33335 0.0
H1684 H 0.33075 0.59635 0.36133 0.0
C1685 C 0.40703 0.53587 0.35809 0.0
C1686 C 0.40643 0.60666 0.32576 0.0
C1687 C 0.42487 0.5199 0.3732 0.0
C1688 C 0.33724 0.69266 0.32113 0.0
C1689 C 0.35481 0.67311 0.32782 0.0
C1690 C 0.35162 0.59928 0.35087 0.0
C1691 C 0.41791 0.56532 0.35431 0.0
C1692 C 0.39745 0.58375 0.34471 0.0
C1693 C 0.3421 0.64349 0.32702 0.0
C1694 C 0.36091 0.62261 0.33259 0.0
H1695 H 0.48797 0.57247 0.38697 0.0
H1696 H 0.45686 0.60042 0.36085 0.0
H1697 H 0.36239 0.56304 0.37212 0.0
H1698 H 0.27029 0.6454 0.30774 0.0
H1699 H 0.30092 0.61124 0.31951 0.0
C1700 C 0.16201 0.33248 0.74758 0.0
C1701 C 0.18753 0.33025 0.76562 0.0
C1702 C 0.14284 0.34868 0.75849 0.0
C1703 C 0.11824 0.36983 0.83048 0.0
H1704 H 0.08542 0.42581 0.78606 0.0
C1705 C 0.0274 0.4161 0.87905 0.0
C1706 C 0.03443 0.44617 0.88284 0.0
C1707 C 0.04283 0.40219 0.85956 0.0
C1708 C 0.09438 0.41014 0.79859 0.0
H1709 H 0.21379 0.34402 0.80848 0.0
H1710 H 0.18017 0.37195 0.82766 0.0
H1711 H 0.12096 0.40221 0.76243 0.0
H1712 H 0.06122 0.48543 0.86741 0.0
H1713 H 0.08827 0.46099 0.83309 0.0
H1714 H 0.09202 0.37756 0.8666 0.0
C1715 C 0.17494 0.36118 0.80518 0.0
C1716 C 0.11456 0.39663 0.7851 0.0
C1717 C 0.19419 0.34529 0.79417 0.0
C1718 C 0.05542 0.4622 0.86489 0.0
C1719 C 0.07085 0.44823 0.84524 0.0
C1720 C 0.09786 0.38294 0.84372 0.0
C1721 C 0.14879 0.36254 0.78773 0.0
C1722 C 0.1269 0.37661 0.80114 0.0
C1723 C 0.06552 0.41809 0.84343 0.0
C1724 C 0.08582 0.40332 0.82802 0.0
H1725 H 0.15644 0.32109 0.72545 0.0
H1726 H 0.12275 0.34934 0.74467 0.0
H1727 H 0.12719 0.35425 0.84321 0.0
H1728 H 0.01113 0.40324 0.89244 0.0
H1729 H 0.03797 0.37893 0.85819 0.0
C1730 C 0.21209 0.30277 0.33361 0.0
C1731 C 0.20982 0.30055 0.30144 0.0
C1732 C 0.19625 0.31972 0.34945 0.0
C1733 C 0.15424 0.37789 0.33867 0.0
H1734 H 0.1214 0.35149 0.41409 0.0
C1735 C 0.06889 0.43028 0.39776 0.0
C1736 C 0.07263 0.43418 0.42979 0.0
C1737 C 0.08593 0.41447 0.38201 0.0
C1738 C 0.13061 0.35936 0.3932 0.0
H1739 H 0.18886 0.31475 0.26088 0.0
H1740 H 0.16109 0.34353 0.28823 0.0
H1741 H 0.15081 0.32357 0.38745 0.0
H1742 H 0.09722 0.42455 0.47036 0.0
H1743 H 0.12671 0.39708 0.44309 0.0
H1744 H 0.13359 0.41348 0.34431 0.0
C1745 C 0.17554 0.33274 0.30142 0.0
C1746 C 0.14766 0.34334 0.3779 0.0
C1747 C 0.19146 0.31598 0.28564 0.0
C1748 C 0.09373 0.42191 0.44567 0.0
C1749 C 0.11055 0.40598 0.43002 0.0
C1750 C 0.13702 0.3938 0.35388 0.0
C1751 C 0.17753 0.33484 0.3336 0.0
C1752 C 0.15978 0.35232 0.35035 0.0
C1753 C 0.10692 0.40197 0.39795 0.0
C1754 C 0.12498 0.3848 0.3814 0.0
H1755 H 0.22601 0.29129 0.34662 0.0
H1756 H 0.19883 0.32105 0.37419 0.0
H1757 H 0.16352 0.38593 0.31788 0.0
H1758 H 0.05279 0.43941 0.38487 0.0
H1759 H 0.0823 0.41166 0.35735 0.0
loop_
_geom_bond_atom_site_label_1
_geom_bond_atom_site_label_2
_geom_bond_distance
_geom_bond_site_symmetry_2
_ccdc_geom_bond_type
Dy0 O4 2.398 1_655 S
Dy0 O5 2.491 1_655 S
Dy0 O6 2.403 . S
Dy0 O7 2.664 1_556 S
Dy0 O11 2.326 1_656 S
Dy0 O15 2.310 1_665 S
Dy0 O16 2.357 . S
C1 O12 1.185 . S
C1 O13 1.355 . S
C2 O4 1.185 . S
C2 O5 1.355 . S
Dy3 O7 2.310 1_445 S
Dy3 O10 2.365 . S
Dy3 O12 2.398 1_455 S
Dy3 O13 2.491 1_455 S
Dy3 O14 2.403 . S
Dy3 O15 2.664 1_554 S
Dy3 O17 2.326 1_454 S
O4 Dy0 2.398 1_455 S
O4 C2 1.185 . S
O5 Dy0 2.491 1_455 S
O5 C2 1.355 . S
O6 Dy0 2.403 . S
O6 C8 1.254 1_556 S
O7 Dy0 2.664 1_554 S
O7 Dy3 2.310 1_665 S
O7 C8 1.268 . S
C8 O6 1.254 1_554 S
C8 O7 1.268 . S
C9 O14 1.254 1_556 S
C9 O15 1.268 . S
O10 Dy3 2.365 . S
O10 C18 1.234 1_545 S
O11 Dy0 2.326 1_454 S
O11 C18 1.267 . S
O12 C1 1.185 . S
O12 Dy3 2.398 1_655 S
O13 C1 1.355 . S
O13 Dy3 2.491 1_655 S
O14 Dy3 2.403 . S
O14 C9 1.254 1_554 S
O15 Dy0 2.310 1_445 S
O15 Dy3 2.664 1_556 S
O15 C9 1.268 . S
O16 Dy0 2.357 . S
O16 C19 1.242 1_565 S
O17 Dy3 2.326 1_656 S
O17 C19 1.267 . S
C18 O10 1.234 1_565 S
C18 O11 1.267 . S
C19 O16 1.242 1_545 S
C19 O17 1.267 . S
Dy20 O24 2.398 . S
Dy20 O25 2.491 . S
Dy20 O26 2.403 . S
Dy20 O27 2.664 . S
Dy20 O31 2.326 . S
Dy20 O35 2.310 . S
Dy20 O36 2.351 . S
C21 O32 1.185 . S
C21 O33 1.355 . S
C22 O24 1.185 . S
C22 O25 1.355 . S
Dy23 O27 2.310 . S
Dy23 O30 2.351 . S
Dy23 O32 2.398 . S
Dy23 O33 2.491 . S
Dy23 O34 2.403 . S
Dy23 O35 2.664 . S
Dy23 O37 2.326 . S
O24 Dy20 2.398 . S
O24 C22 1.185 . S
O25 Dy20 2.491 . S
O25 C22 1.355 . S
O26 Dy20 2.403 . S
O26 C28 1.254 . S
O27 Dy20 2.664 . S
O27 Dy23 2.310 . S
O27 C28 1.268 . S
C28 O26 1.254 . S
C28 O27 1.268 . S
C29 O34 1.254 . S
C29 O35 1.268 . S
O30 Dy23 2.351 . S
O30 C38 1.249 . S
O31 Dy20 2.326 . S
O31 C38 1.267 . S
O32 C21 1.185 . S
O32 Dy23 2.398 . S
O33 C21 1.355 . S
O33 Dy23 2.491 . S
O34 Dy23 2.403 . S
O34 C29 1.254 . S
O35 Dy20 2.310 . S
O35 Dy23 2.664 . S
O35 C29 1.268 . S
O36 Dy20 2.351 . S
O36 C39 1.249 . S
O37 Dy23 2.326 . S
O37 C39 1.267 . S
C38 O30 1.249 . S
C38 O31 1.267 . S
C39 O36 1.249 . S
C39 O37 1.267 . S
Dy40 O44 2.398 1_565 S
Dy40 O45 2.491 1_565 S
Dy40 O46 2.403 . S
Dy40 O47 2.664 . S
Dy40 O51 2.326 1_565 S
Dy40 O55 2.310 1_565 S
Dy40 O56 2.351 . S
C41 O52 1.185 . S
C41 O53 1.355 . S
C42 O44 1.185 . S
C42 O45 1.355 . S
Dy43 O47 2.310 1_545 S
Dy43 O50 2.351 . S
Dy43 O52 2.398 1_545 S
Dy43 O53 2.491 1_545 S
Dy43 O54 2.403 . S
Dy43 O55 2.664 . S
Dy43 O57 2.326 1_545 S
O44 Dy40 2.398 1_545 S
O44 C42 1.185 . S
O45 Dy40 2.491 1_545 S
O45 C42 1.355 . S
O46 Dy40 2.403 . S
O46 C48 1.254 . S
O47 Dy40 2.664 . S
O47 Dy43 2.310 1_565 S
O47 C48 1.268 . S
C48 O46 1.254 . S
C48 O47 1.268 . S
C49 O54 1.254 . S
C49 O55 1.268 . S
O50 Dy43 2.351 . S
O50 C58 1.249 . S
O51 Dy40 2.326 1_545 S
O51 C58 1.267 . S
O52 C41 1.185 . S
O52 Dy43 2.398 1_565 S
O53 C41 1.355 . S
O53 Dy43 2.491 1_565 S
O54 Dy43 2.403 . S
O54 C49 1.254 . S
O55 Dy40 2.310 1_545 S
O55 Dy43 2.664 . S
O55 C49 1.268 . S
O56 Dy40 2.351 . S
O56 C59 1.249 . S
O57 Dy43 2.326 1_565 S
O57 C59 1.267 . S
C58 O50 1.249 . S
C58 O51 1.267 . S
C59 O56 1.249 . S
C59 O57 1.267 . S
Dy60 O64 2.398 . S
Dy60 O65 2.491 . S
Dy60 O66 2.403 . S
Dy60 O67 2.664 . S
Dy60 O71 2.326 . S
Dy60 O75 2.310 . S
Dy60 O76 2.351 . S
C61 O72 1.185 . S
C61 O73 1.355 . S
C62 O64 1.185 . S
C62 O65 1.355 . S
Dy63 O67 2.310 . S
Dy63 O70 2.351 . S
Dy63 O72 2.398 . S
Dy63 O73 2.491 . S
Dy63 O74 2.403 . S
Dy63 O75 2.664 . S
Dy63 O77 2.326 . S
O64 Dy60 2.398 . S
O64 C62 1.185 . S
O65 Dy60 2.491 . S
O65 C62 1.355 . S
O66 Dy60 2.403 . S
O66 C68 1.254 . S
O67 Dy60 2.664 . S
O67 Dy63 2.310 . S
O67 C68 1.268 . S
C68 O66 1.254 . S
C68 O67 1.268 . S
C69 O74 1.254 . S
C69 O75 1.268 . S
O70 Dy63 2.351 . S
O70 C78 1.249 . S
O71 Dy60 2.326 . S
O71 C78 1.267 . S
O72 C61 1.185 . S
O72 Dy63 2.398 . S
O73 C61 1.355 . S
O73 Dy63 2.491 . S
O74 Dy63 2.403 . S
O74 C69 1.254 . S
O75 Dy60 2.310 . S
O75 Dy63 2.664 . S
O75 C69 1.268 . S
O76 Dy60 2.351 . S
O76 C79 1.249 . S
O77 Dy63 2.326 . S
O77 C79 1.267 . S
C78 O70 1.249 . S
C78 O71 1.267 . S
C79 O76 1.249 . S
C79 O77 1.267 . S
Dy80 O84 2.398 . S
Dy80 O85 2.491 . S
Dy80 O86 2.403 1_455 S
Dy80 O87 2.664 1_455 S
Dy80 O91 2.326 1_455 S
Dy80 O95 2.310 1_565 S
Dy80 O96 2.351 1_565 S
C81 O92 1.185 . S
C81 O93 1.355 . S
C82 O84 1.185 . S
C82 O85 1.355 . S
Dy83 O87 2.310 1_545 S
Dy83 O90 2.351 1_545 S
Dy83 O92 2.398 . S
Dy83 O93 2.491 . S
Dy83 O94 2.403 1_655 S
Dy83 O95 2.664 1_655 S
Dy83 O97 2.326 1_655 S
O84 Dy80 2.398 . S
O84 C82 1.185 . S
O85 Dy80 2.491 . S
O85 C82 1.355 . S
O86 Dy80 2.403 1_655 S
O86 C88 1.254 . S
O87 Dy80 2.664 1_655 S
O87 Dy83 2.310 1_565 S
O87 C88 1.268 . S
C88 O86 1.254 . S
C88 O87 1.268 . S
C89 O94 1.254 . S
C89 O95 1.268 . S
O90 Dy83 2.351 1_565 S
O90 C98 1.249 . S
O91 Dy80 2.326 1_655 S
O91 C98 1.267 . S
O92 C81 1.185 . S
O92 Dy83 2.398 . S
O93 C81 1.355 . S
O93 Dy83 2.491 . S
O94 Dy83 2.403 1_455 S
O94 C89 1.254 . S
O95 Dy80 2.310 1_545 S
O95 Dy83 2.664 1_455 S
O95 C89 1.268 . S
O96 Dy80 2.351 1_545 S
O96 C99 1.249 . S
O97 Dy83 2.326 1_455 S
O97 C99 1.267 . S
C98 O90 1.249 . S
C98 O91 1.267 . S
C99 O96 1.249 . S
C99 O97 1.267 . S
Dy100 O104 2.398 . S
Dy100 O105 2.491 . S
Dy100 O106 2.403 . S
Dy100 O107 2.664 . S
Dy100 O111 2.326 . S
Dy100 O115 2.310 . S
Dy100 O116 2.351 . S
C101 O112 1.185 . S
C101 O113 1.355 . S
C102 O104 1.185 . S
C102 O105 1.355 . S
Dy103 O107 2.310 . S
Dy103 O110 2.351 . S
Dy103 O112 2.398 . S
Dy103 O113 2.491 . S
Dy103 O114 2.403 . S
Dy103 O115 2.664 . S
Dy103 O117 2.326 . S
O104 Dy100 2.398 . S
O104 C102 1.185 . S
O105 Dy100 2.491 . S
O105 C102 1.355 . S
O106 Dy100 2.403 . S
O106 C108 1.254 . S
O107 Dy100 2.664 . S
O107 Dy103 2.310 . S
O107 C108 1.268 . S
C108 O106 1.254 . S
C108 O107 1.268 . S
C109 O114 1.254 . S
C109 O115 1.268 . S
O110 Dy103 2.351 . S
O110 C118 1.249 . S
O111 Dy100 2.326 . S
O111 C118 1.267 . S
O112 C101 1.185 . S
O112 Dy103 2.398 . S
O113 C101 1.355 . S
O113 Dy103 2.491 . S
O114 Dy103 2.403 . S
O114 C109 1.254 . S
O115 Dy100 2.310 . S
O115 Dy103 2.664 . S
O115 C109 1.268 . S
O116 Dy100 2.351 . S
O116 C119 1.249 . S
O117 Dy103 2.326 . S
O117 C119 1.267 . S
C118 O110 1.249 . S
C118 O111 1.267 . S
C119 O116 1.249 . S
C119 O117 1.267 . S
Dy120 O124 2.398 1_554 S
Dy120 O125 2.491 1_554 S
Dy120 O126 2.403 1_565 S
Dy120 O127 2.664 1_565 S
Dy120 O131 2.326 1_564 S
Dy120 O135 2.310 1_554 S
Dy120 O136 2.351 . S
C121 O132 1.185 . S
C121 O133 1.355 . S
C122 O124 1.185 . S
C122 O125 1.355 . S
Dy123 O127 2.293 1_556 S
Dy123 O130 2.376 . S
Dy123 O132 2.388 1_556 S
Dy123 O133 2.460 1_556 S
Dy123 O134 2.424 1_545 S
Dy123 O135 2.679 1_545 S
Dy123 O137 2.307 1_546 S
O124 Dy120 2.398 1_556 S
O124 C122 1.185 . S
O125 Dy120 2.491 1_556 S
O125 C122 1.355 . S
O126 Dy120 2.403 1_545 S
O126 C128 1.254 . S
O127 Dy120 2.664 1_545 S
O127 Dy123 2.293 1_554 S
O127 C128 1.268 . S
C128 O126 1.254 . S
C128 O127 1.268 . S
C129 O134 1.254 . S
C129 O135 1.268 . S
O130 Dy123 2.376 . S
O130 C138 1.249 . S
O131 Dy120 2.326 1_546 S
O131 C138 1.267 . S
O132 C121 1.185 . S
O132 Dy123 2.388 1_554 S
O133 C121 1.355 . S
O133 Dy123 2.460 1_554 S
O134 Dy123 2.424 1_565 S
O134 C129 1.254 . S
O135 Dy120 2.310 1_556 S
O135 Dy123 2.679 1_565 S
O135 C129 1.268 . S
O136 Dy120 2.351 . S
O136 C139 1.249 . S
O137 Dy123 2.307 1_564 S
O137 C139 1.267 . S
C138 O130 1.249 . S
C138 O131 1.267 . S
C139 O136 1.249 . S
C139 O137 1.267 . S
Dy140 O144 2.398 . S
Dy140 O145 2.491 . S
Dy140 O146 2.403 . S
Dy140 O147 2.664 . S
Dy140 O151 2.326 . S
Dy140 O155 2.310 . S
Dy140 O156 2.351 . S
C141 O152 1.185 . S
C141 O153 1.355 . S
C142 O144 1.185 . S
C142 O145 1.355 . S
Dy143 O147 2.310 . S
Dy143 O150 2.351 . S
Dy143 O152 2.398 . S
Dy143 O153 2.491 . S
Dy143 O154 2.403 . S
Dy143 O155 2.664 . S
Dy143 O157 2.326 . S
O144 Dy140 2.398 . S
O144 C142 1.185 . S
O145 Dy140 2.491 . S
O145 C142 1.355 . S
O146 Dy140 2.403 . S
O146 C148 1.254 . S
O147 Dy140 2.664 . S
O147 Dy143 2.310 . S
O147 C148 1.268 . S
C148 O146 1.254 . S
C148 O147 1.268 . S
C149 O154 1.254 . S
C149 O155 1.268 . S
O150 Dy143 2.351 . S
O150 C158 1.249 . S
O151 Dy140 2.326 . S
O151 C158 1.267 . S
O152 C141 1.185 . S
O152 Dy143 2.398 . S
O153 C141 1.355 . S
O153 Dy143 2.491 . S
O154 Dy143 2.403 . S
O154 C149 1.254 . S
O155 Dy140 2.310 . S
O155 Dy143 2.664 . S
O155 C149 1.268 . S
O156 Dy140 2.351 . S
O156 C159 1.249 . S
O157 Dy143 2.326 . S
O157 C159 1.267 . S
C158 O150 1.249 . S
C158 O151 1.267 . S
C159 O156 1.249 . S
C159 O157 1.267 . S
Dy160 O164 2.398 . S
Dy160 O165 2.491 . S
Dy160 O166 2.403 1_554 S
Dy160 O167 2.664 1_554 S
Dy160 O171 2.326 . S
Dy160 O175 2.310 . S
Dy160 O176 2.351 1_554 S
C161 O172 1.185 . S
C161 O173 1.355 . S
C162 O164 1.185 . S
C162 O165 1.355 . S
Dy163 O167 2.310 . S
Dy163 O170 2.351 1_556 S
Dy163 O172 2.398 . S
Dy163 O173 2.491 . S
Dy163 O174 2.403 1_556 S
Dy163 O175 2.664 1_556 S
Dy163 O177 2.326 . S
O164 Dy160 2.398 . S
O164 C162 1.185 . S
O165 Dy160 2.491 . S
O165 C162 1.355 . S
O166 Dy160 2.403 1_556 S
O166 C168 1.254 . S
O167 Dy160 2.664 1_556 S
O167 Dy163 2.310 . S
O167 C168 1.268 . S
C168 O166 1.254 . S
C168 O167 1.268 . S
C169 O174 1.254 . S
C169 O175 1.268 . S
O170 Dy163 2.351 1_554 S
O170 C178 1.249 . S
O171 Dy160 2.326 . S
O171 C178 1.267 . S
O172 C161 1.185 . S
O172 Dy163 2.398 . S
O173 C161 1.355 . S
O173 Dy163 2.491 . S
O174 Dy163 2.403 1_554 S
O174 C169 1.254 . S
O175 Dy160 2.310 . S
O175 Dy163 2.664 1_554 S
O175 C169 1.268 . S
O176 Dy160 2.351 1_556 S
O176 C179 1.249 . S
O177 Dy163 2.326 . S
O177 C179 1.267 . S
C178 O170 1.249 . S
C178 O171 1.267 . S
C179 O176 1.249 . S
C179 O177 1.267 . S
Dy180 O184 2.398 . S
Dy180 O185 2.491 . S
Dy180 O186 2.403 . S
Dy180 O187 2.664 . S
Dy180 O191 2.326 . S
Dy180 O195 2.310 . S
Dy180 O196 2.351 . S
C181 O192 1.185 . S
C181 O193 1.355 . S
C182 O184 1.185 . S
C182 O185 1.355 . S
Dy183 O187 2.310 . S
Dy183 O190 2.351 . S
Dy183 O192 2.398 . S
Dy183 O193 2.491 . S
Dy183 O194 2.403 . S
Dy183 O195 2.664 . S
Dy183 O197 2.326 . S
O184 Dy180 2.398 . S
O184 C182 1.185 . S
O185 Dy180 2.491 . S
O185 C182 1.355 . S
O186 Dy180 2.403 . S
O186 C188 1.254 . S
O187 Dy180 2.664 . S
O187 Dy183 2.310 . S
O187 C188 1.268 . S
C188 O186 1.254 . S
C188 O187 1.268 . S
C189 O194 1.254 . S
C189 O195 1.268 . S
O190 Dy183 2.351 . S
O190 C198 1.249 . S
O191 Dy180 2.326 . S
O191 C198 1.267 . S
O192 C181 1.185 . S
O192 Dy183 2.398 . S
O193 C181 1.355 . S
O193 Dy183 2.491 . S
O194 Dy183 2.403 . S
O194 C189 1.254 . S
O195 Dy180 2.310 . S
O195 Dy183 2.664 . S
O195 C189 1.268 . S
O196 Dy180 2.351 . S
O196 C199 1.249 . S
O197 Dy183 2.326 . S
O197 C199 1.267 . S
C198 O190 1.249 . S
C198 O191 1.267 . S
C199 O196 1.249 . S
C199 O197 1.267 . S
Dy200 O204 2.398 . S
Dy200 O205 2.491 . S
Dy200 O206 2.403 . S
Dy200 O207 2.664 . S
Dy200 O211 2.326 . S
Dy200 O215 2.310 1_455 S
Dy200 O216 2.351 1_455 S
C201 O212 1.185 . S
C201 O213 1.355 . S
C202 O204 1.185 . S
C202 O205 1.355 . S
Dy203 O207 2.310 1_655 S
Dy203 O210 2.351 1_655 S
Dy203 O212 2.398 . S
Dy203 O213 2.491 . S
Dy203 O214 2.403 . S
Dy203 O215 2.664 . S
Dy203 O217 2.326 . S
O204 Dy200 2.398 . S
O204 C202 1.185 . S
O205 Dy200 2.491 . S
O205 C202 1.355 . S
O206 Dy200 2.403 . S
O206 C208 1.254 . S
O207 Dy200 2.664 . S
O207 Dy203 2.310 1_455 S
O207 C208 1.268 . S
C208 O206 1.254 . S
C208 O207 1.268 . S
C209 O214 1.254 . S
C209 O215 1.268 . S
O210 Dy203 2.351 1_455 S
O210 C218 1.249 . S
O211 Dy200 2.326 . S
O211 C218 1.267 . S
O212 C201 1.185 . S
O212 Dy203 2.398 . S
O213 C201 1.355 . S
O213 Dy203 2.491 . S
O214 Dy203 2.403 . S
O214 C209 1.254 . S
O215 Dy200 2.310 1_655 S
O215 Dy203 2.664 . S
O215 C209 1.268 . S
O216 Dy200 2.351 1_655 S
O216 C219 1.249 . S
O217 Dy203 2.326 . S
O217 C219 1.267 . S
C218 O210 1.249 . S
C218 O211 1.267 . S
C219 O216 1.249 . S
C219 O217 1.267 . S
Dy220 O224 2.398 . S
Dy220 O225 2.491 . S
Dy220 O226 2.403 . S
Dy220 O227 2.664 . S
Dy220 O231 2.326 . S
Dy220 O235 2.310 . S
Dy220 O236 2.351 . S
C221 O232 1.185 . S
C221 O233 1.355 . S
C222 O224 1.185 . S
C222 O225 1.355 . S
Dy223 O227 2.310 . S
Dy223 O230 2.351 . S
Dy223 O232 2.398 . S
Dy223 O233 2.491 . S
Dy223 O234 2.403 . S
Dy223 O235 2.664 . S
Dy223 O237 2.326 . S
O224 Dy220 2.398 . S
O224 C222 1.185 . S
O225 Dy220 2.491 . S
O225 C222 1.355 . S
O226 Dy220 2.403 . S
O226 C228 1.254 . S
O227 Dy220 2.664 . S
O227 Dy223 2.310 . S
O227 C228 1.268 . S
C228 O226 1.254 . S
C228 O227 1.268 . S
C229 O234 1.254 . S
C229 O235 1.268 . S
O230 Dy223 2.351 . S
O230 C238 1.249 . S
O231 Dy220 2.326 . S
O231 C238 1.267 . S
O232 C221 1.185 . S
O232 Dy223 2.398 . S
O233 C221 1.355 . S
O233 Dy223 2.491 . S
O234 Dy223 2.403 . S
O234 C229 1.254 . S
O235 Dy220 2.310 . S
O235 Dy223 2.664 . S
O235 C229 1.268 . S
O236 Dy220 2.351 . S
O236 C239 1.249 . S
O237 Dy223 2.326 . S
O237 C239 1.267 . S
C238 O230 1.249 . S
C238 O231 1.267 . S
C239 O236 1.249 . S
C239 O237 1.267 . S
Dy240 O244 2.398 . S
Dy240 O245 2.491 . S
Dy240 O246 2.403 . S
Dy240 O247 2.664 . S
Dy240 O251 2.326 . S
Dy240 O255 2.310 . S
Dy240 O256 2.351 . S
C241 O252 1.185 . S
C241 O253 1.355 . S
C242 O244 1.185 . S
C242 O245 1.355 . S
Dy243 O247 2.310 . S
Dy243 O250 2.351 . S
Dy243 O252 2.398 . S
Dy243 O253 2.491 . S
Dy243 O254 2.403 . S
Dy243 O255 2.664 . S
Dy243 O257 2.326 . S
O244 Dy240 2.398 . S
O244 C242 1.185 . S
O245 Dy240 2.491 . S
O245 C242 1.355 . S
O246 Dy240 2.403 . S
O246 C248 1.254 . S
O247 Dy240 2.664 . S
O247 Dy243 2.310 . S
O247 C248 1.268 . S
C248 O246 1.254 . S
C248 O247 1.268 . S
C249 O254 1.254 . S
C249 O255 1.268 . S
O250 Dy243 2.351 . S
O250 C258 1.249 . S
O251 Dy240 2.326 . S
O251 C258 1.267 . S
O252 C241 1.185 . S
O252 Dy243 2.398 . S
O253 C241 1.355 . S
O253 Dy243 2.491 . S
O254 Dy243 2.403 . S
O254 C249 1.254 . S
O255 Dy240 2.310 . S
O255 Dy243 2.664 . S
O255 C249 1.268 . S
O256 Dy240 2.351 . S
O256 C259 1.249 . S
O257 Dy243 2.326 . S
O257 C259 1.267 . S
C258 O250 1.249 . S
C258 O251 1.267 . S
C259 O256 1.249 . S
C259 O257 1.267 . S
Dy260 O264 2.398 . S
Dy260 O265 2.491 . S
Dy260 O266 2.403 . S
Dy260 O267 2.664 . S
Dy260 O271 2.326 . S
Dy260 O275 2.310 . S
Dy260 O276 2.351 . S
C261 O272 1.185 . S
C261 O273 1.355 . S
C262 O264 1.185 . S
C262 O265 1.355 . S
Dy263 O267 2.310 . S
Dy263 O270 2.351 . S
Dy263 O272 2.398 . S
Dy263 O273 2.491 . S
Dy263 O274 2.403 . S
Dy263 O275 2.664 . S
Dy263 O277 2.326 . S
O264 Dy260 2.398 . S
O264 C262 1.185 . S
O265 Dy260 2.491 . S
O265 C262 1.355 . S
O266 Dy260 2.403 . S
O266 C268 1.254 . S
O267 Dy260 2.664 . S
O267 Dy263 2.310 . S
O267 C268 1.268 . S
C268 O266 1.254 . S
C268 O267 1.268 . S
C269 O274 1.254 . S
C269 O275 1.268 . S
O270 Dy263 2.351 . S
O270 C278 1.249 . S
O271 Dy260 2.326 . S
O271 C278 1.267 . S
O272 C261 1.185 . S
O272 Dy263 2.398 . S
O273 C261 1.355 . S
O273 Dy263 2.491 . S
O274 Dy263 2.403 . S
O274 C269 1.254 . S
O275 Dy260 2.310 . S
O275 Dy263 2.664 . S
O275 C269 1.268 . S
O276 Dy260 2.351 . S
O276 C279 1.249 . S
O277 Dy263 2.326 . S
O277 C279 1.267 . S
C278 O270 1.249 . S
C278 O271 1.267 . S
C279 O276 1.249 . S
C279 O277 1.267 . S
Dy280 O284 2.398 . S
Dy280 O285 2.491 . S
Dy280 O286 2.403 . S
Dy280 O287 2.664 . S
Dy280 O291 2.326 . S
Dy280 O295 2.310 . S
Dy280 O296 2.351 . S
C281 O292 1.185 . S
C281 O293 1.355 . S
C282 O284 1.185 . S
C282 O285 1.355 . S
Dy283 O287 2.310 . S
Dy283 O290 2.351 . S
Dy283 O292 2.398 . S
Dy283 O293 2.491 . S
Dy283 O294 2.403 . S
Dy283 O295 2.664 . S
Dy283 O297 2.326 . S
O284 Dy280 2.398 . S
O284 C282 1.185 . S
O285 Dy280 2.491 . S
O285 C282 1.355 . S
O286 Dy280 2.403 . S
O286 C288 1.254 . S
O287 Dy280 2.664 . S
O287 Dy283 2.310 . S
O287 C288 1.268 . S
C288 O286 1.254 . S
C288 O287 1.268 . S
C289 O294 1.254 . S
C289 O295 1.268 . S
O290 Dy283 2.351 . S
O290 C298 1.249 . S
O291 Dy280 2.326 . S
O291 C298 1.267 . S
O292 C281 1.185 . S
O292 Dy283 2.398 . S
O293 C281 1.355 . S
O293 Dy283 2.491 . S
O294 Dy283 2.403 . S
O294 C289 1.254 . S
O295 Dy280 2.310 . S
O295 Dy283 2.664 . S
O295 C289 1.268 . S
O296 Dy280 2.351 . S
O296 C299 1.249 . S
O297 Dy283 2.326 . S
O297 C299 1.267 . S
C298 O290 1.249 . S
C298 O291 1.267 . S
C299 O296 1.249 . S
C299 O297 1.267 . S
Dy300 O304 2.398 . S
Dy300 O305 2.491 . S
Dy300 O306 2.403 1_554 S
Dy300 O307 2.664 1_554 S
Dy300 O311 2.326 1_554 S
Dy300 O315 2.310 1_655 S
Dy300 O316 2.351 1_655 S
C301 O312 1.185 . S
C301 O313 1.355 . S
C302 O304 1.185 . S
C302 O305 1.355 . S
Dy303 O307 2.310 1_455 S
Dy303 O310 2.351 1_455 S
Dy303 O312 2.398 . S
Dy303 O313 2.491 . S
Dy303 O314 2.403 1_556 S
Dy303 O315 2.664 1_556 S
Dy303 O317 2.326 1_556 S
O304 Dy300 2.398 . S
O304 C302 1.185 . S
O305 Dy300 2.491 . S
O305 C302 1.355 . S
O306 Dy300 2.403 1_556 S
O306 C308 1.254 . S
O307 Dy300 2.664 1_556 S
O307 Dy303 2.310 1_655 S
O307 C308 1.268 . S
C308 O306 1.254 . S
C308 O307 1.268 . S
C309 O314 1.254 . S
C309 O315 1.268 . S
O310 Dy303 2.351 1_655 S
O310 C318 1.249 . S
O311 Dy300 2.326 1_556 S
O311 C318 1.267 . S
O312 C301 1.185 . S
O312 Dy303 2.398 . S
O313 C301 1.355 . S
O313 Dy303 2.491 . S
O314 Dy303 2.403 1_554 S
O314 C309 1.254 . S
O315 Dy300 2.310 1_455 S
O315 Dy303 2.664 1_554 S
O315 C309 1.268 . S
O316 Dy300 2.351 1_455 S
O316 C319 1.249 . S
O317 Dy303 2.326 1_554 S
O317 C319 1.267 . S
C318 O310 1.249 . S
C318 O311 1.267 . S
C319 O316 1.249 . S
C319 O317 1.267 . S
C320 C321 1.349 . S
C320 C322 1.327 . S
C320 H345 0.950 . S
C321 C320 1.349 . S
C321 C337 1.349 . S
C322 C320 1.327 . S
C322 C341 1.429 . S
C322 H346 0.950 . S
C323 C340 1.574 . S
C323 C342 1.368 . S
C323 H347 0.949 . S
H324 C328 0.949 . S
C325 C326 1.349 . S
C325 C327 1.327 . S
C325 H348 0.950 . S
C326 C325 1.349 . S
C326 C338 1.349 . S
C327 C325 1.327 . S
C327 C343 1.429 . S
C327 H349 0.950 . S
C328 H324 0.949 . S
C328 C336 1.574 . S
C328 C344 1.368 . S
H329 C337 0.950 . S
H330 C335 0.950 . S
H331 C336 0.949 . S
H332 C338 0.950 . S
H333 C339 0.950 . S
H334 C340 0.949 . S
C335 H330 0.950 . S
C335 C337 1.327 . S
C335 C341 1.429 . S
C336 C328 1.574 . S
C336 H331 0.949 . S
C336 C342 1.368 . S
C337 C321 1.349 . S
C337 H329 0.950 . S
C337 C335 1.327 . S
C338 C326 1.349 . S
C338 H332 0.950 . S
C338 C339 1.327 . S
C339 H333 0.950 . S
C339 C338 1.327 . S
C339 C343 1.429 . S
C340 C323 1.574 . S
C340 H334 0.949 . S
C340 C344 1.368 . S
C341 C322 1.429 . S
C341 C335 1.429 . S
C341 C342 1.523 . S
C342 C323 1.368 . S
C342 C336 1.368 . S
C342 C341 1.523 . S
C343 C327 1.429 . S
C343 C339 1.429 . S
C343 C344 1.523 . S
C344 C328 1.368 . S
C344 C340 1.368 . S
C344 C343 1.523 . S
H345 C320 0.950 . S
H346 C322 0.950 . S
H347 C323 0.949 . S
H348 C325 0.950 . S
H349 C327 0.950 . S
C350 C351 1.349 . S
C350 C352 1.327 . S
C350 H375 0.950 . S
C351 C350 1.349 . S
C351 C367 1.349 . S
C352 C350 1.327 . S
C352 C371 1.429 . S
C352 H376 0.950 . S
C353 C370 1.574 . S
C353 C372 1.368 . S
C353 H377 0.949 . S
H354 C358 0.949 . S
C355 C356 1.349 . S
C355 C357 1.327 . S
C355 H378 0.950 . S
C356 C355 1.349 . S
C356 C368 1.349 . S
C357 C355 1.327 . S
C357 C373 1.429 . S
C357 H379 0.950 . S
C358 H354 0.949 . S
C358 C366 1.574 . S
C358 C374 1.368 . S
H359 C367 0.950 . S
H360 C365 0.950 . S
H361 C366 0.949 . S
H362 C368 0.950 . S
H363 C369 0.950 . S
H364 C370 0.949 . S
C365 H360 0.950 . S
C365 C367 1.327 . S
C365 C371 1.429 . S
C366 C358 1.574 . S
C366 H361 0.949 . S
C366 C372 1.368 . S
C367 C351 1.349 . S
C367 H359 0.950 . S
C367 C365 1.327 . S
C368 C356 1.349 . S
C368 H362 0.950 . S
C368 C369 1.327 . S
C369 H363 0.950 . S
C369 C368 1.327 . S
C369 C373 1.429 . S
C370 C353 1.574 . S
C370 H364 0.949 . S
C370 C374 1.368 . S
C371 C352 1.429 . S
C371 C365 1.429 . S
C371 C372 1.523 . S
C372 C353 1.368 . S
C372 C366 1.368 . S
C372 C371 1.523 . S
C373 C357 1.429 . S
C373 C369 1.429 . S
C373 C374 1.523 . S
C374 C358 1.368 . S
C374 C370 1.368 . S
C374 C373 1.523 . S
H375 C350 0.950 . S
H376 C352 0.950 . S
H377 C353 0.949 . S
H378 C355 0.950 . S
H379 C357 0.950 . S
C380 C381 1.349 . S
C380 C382 1.327 . S
C380 H405 0.950 . S
C381 C380 1.349 . S
C381 C397 1.349 . S
C382 C380 1.327 . S
C382 C401 1.429 . S
C382 H406 0.950 . S
C383 C400 1.574 . S
C383 C402 1.368 . S
C383 H407 0.949 . S
H384 C388 0.949 . S
C385 C386 1.349 . S
C385 C387 1.327 . S
C385 H408 0.950 . S
C386 C385 1.349 . S
C386 C398 1.349 . S
C387 C385 1.327 . S
C387 C403 1.429 . S
C387 H409 0.950 . S
C388 H384 0.949 . S
C388 C396 1.574 . S
C388 C404 1.368 . S
H389 C397 0.950 . S
H390 C395 0.950 . S
H391 C396 0.949 . S
H392 C398 0.950 . S
H393 C399 0.950 . S
H394 C400 0.949 . S
C395 H390 0.950 . S
C395 C397 1.327 . S
C395 C401 1.429 . S
C396 C388 1.574 . S
C396 H391 0.949 . S
C396 C402 1.368 . S
C397 C381 1.349 . S
C397 H389 0.950 . S
C397 C395 1.327 . S
C398 C386 1.349 . S
C398 H392 0.950 . S
C398 C399 1.327 . S
C399 H393 0.950 . S
C399 C398 1.327 . S
C399 C403 1.429 . S
C400 C383 1.574 . S
C400 H394 0.949 . S
C400 C404 1.368 . S
C401 C382 1.429 . S
C401 C395 1.429 . S
C401 C402 1.523 . S
C402 C383 1.368 . S
C402 C396 1.368 . S
C402 C401 1.523 . S
C403 C387 1.429 . S
C403 C399 1.429 . S
C403 C404 1.523 . S
C404 C388 1.368 . S
C404 C400 1.368 . S
C404 C403 1.523 . S
H405 C380 0.950 . S
H406 C382 0.950 . S
H407 C383 0.949 . S
H408 C385 0.950 . S
H409 C387 0.950 . S
C410 C411 1.349 . S
C410 C412 1.327 . S
C410 H435 0.950 . S
C411 C410 1.349 . S
C411 C427 1.349 . S
C412 C410 1.327 . S
C412 C431 1.429 . S
C412 H436 0.950 . S
C413 C430 1.574 . S
C413 C432 1.368 . S
C413 H437 0.949 . S
H414 C418 0.949 . S
C415 C416 1.349 . S
C415 C417 1.327 . S
C415 H438 0.950 . S
C416 C415 1.349 . S
C416 C428 1.349 . S
C417 C415 1.327 . S
C417 C433 1.429 . S
C417 H439 0.950 . S
C418 H414 0.949 . S
C418 C426 1.574 . S
C418 C434 1.368 . S
H419 C427 0.950 . S
H420 C425 0.950 . S
H421 C426 0.949 . S
H422 C428 0.950 . S
H423 C429 0.950 . S
H424 C430 0.949 . S
C425 H420 0.950 . S
C425 C427 1.327 . S
C425 C431 1.429 . S
C426 C418 1.574 . S
C426 H421 0.949 . S
C426 C432 1.368 . S
C427 C411 1.349 . S
C427 H419 0.950 . S
C427 C425 1.327 . S
C428 C416 1.349 . S
C428 H422 0.950 . S
C428 C429 1.327 . S
C429 H423 0.950 . S
C429 C428 1.327 . S
C429 C433 1.429 . S
C430 C413 1.574 . S
C430 H424 0.949 . S
C430 C434 1.368 . S
C431 C412 1.429 . S
C431 C425 1.429 . S
C431 C432 1.523 . S
C432 C413 1.368 . S
C432 C426 1.368 . S
C432 C431 1.523 . S
C433 C417 1.429 . S
C433 C429 1.429 . S
C433 C434 1.523 . S
C434 C418 1.368 . S
C434 C430 1.368 . S
C434 C433 1.523 . S
H435 C410 0.950 . S
H436 C412 0.950 . S
H437 C413 0.949 . S
H438 C415 0.950 . S
H439 C417 0.950 . S
C440 C441 1.349 . S
C440 C442 1.327 . S
C440 H465 0.950 . S
C441 C440 1.349 . S
C441 C457 1.349 . S
C442 C440 1.327 . S
C442 C461 1.429 . S
C442 H466 0.950 . S
C443 C460 1.574 . S
C443 C462 1.368 . S
C443 H467 0.949 . S
H444 C448 0.949 . S
C445 C446 1.349 . S
C445 C447 1.327 . S
C445 H468 0.950 . S
C446 C445 1.349 . S
C446 C458 1.349 . S
C447 C445 1.327 . S
C447 C463 1.429 . S
C447 H469 0.950 . S
C448 H444 0.949 . S
C448 C456 1.574 . S
C448 C464 1.368 . S
H449 C457 0.950 . S
H450 C455 0.950 . S
H451 C456 0.949 . S
H452 C458 0.950 . S
H453 C459 0.950 . S
H454 C460 0.949 . S
C455 H450 0.950 . S
C455 C457 1.327 . S
C455 C461 1.429 . S
C456 C448 1.574 . S
C456 H451 0.949 . S
C456 C462 1.368 . S
C457 C441 1.349 . S
C457 H449 0.950 . S
C457 C455 1.327 . S
C458 C446 1.349 . S
C458 H452 0.950 . S
C458 C459 1.327 . S
C459 H453 0.950 . S
C459 C458 1.327 . S
C459 C463 1.429 . S
C460 C443 1.574 . S
C460 H454 0.949 . S
C460 C464 1.368 . S
C461 C442 1.429 . S
C461 C455 1.429 . S
C461 C462 1.523 . S
C462 C443 1.368 . S
C462 C456 1.368 . S
C462 C461 1.523 . S
C463 C447 1.429 . S
C463 C459 1.429 . S
C463 C464 1.523 . S
C464 C448 1.368 . S
C464 C460 1.368 . S
C464 C463 1.523 . S
H465 C440 0.950 . S
H466 C442 0.950 . S
H467 C443 0.949 . S
H468 C445 0.950 . S
H469 C447 0.950 . S
C470 C471 1.349 . S
C470 C472 1.327 . S
C470 H495 0.950 . S
C471 C470 1.349 . S
C471 C487 1.349 . S
C472 C470 1.327 . S
C472 C491 1.429 . S
C472 H496 0.950 . S
C473 C490 1.574 . S
C473 C492 1.368 . S
C473 H497 0.949 . S
H474 C478 0.949 . S
C475 C476 1.349 . S
C475 C477 1.327 . S
C475 H498 0.950 . S
C476 C475 1.349 . S
C476 C488 1.349 . S
C477 C475 1.327 . S
C477 C493 1.429 . S
C477 H499 0.950 . S
C478 H474 0.949 . S
C478 C486 1.574 . S
C478 C494 1.368 . S
H479 C487 0.950 . S
H480 C485 0.950 . S
H481 C486 0.949 . S
H482 C488 0.950 . S
H483 C489 0.950 . S
H484 C490 0.949 . S
C485 H480 0.950 . S
C485 C487 1.327 . S
C485 C491 1.429 . S
C486 C478 1.574 . S
C486 H481 0.949 . S
C486 C492 1.368 . S
C487 C471 1.349 . S
C487 H479 0.950 . S
C487 C485 1.327 . S
C488 C476 1.349 . S
C488 H482 0.950 . S
C488 C489 1.327 . S
C489 H483 0.950 . S
C489 C488 1.327 . S
C489 C493 1.429 . S
C490 C473 1.574 . S
C490 H484 0.949 . S
C490 C494 1.368 . S
C491 C472 1.429 . S
C491 C485 1.429 . S
C491 C492 1.523 . S
C492 C473 1.368 . S
C492 C486 1.368 . S
C492 C491 1.523 . S
C493 C477 1.429 . S
C493 C489 1.429 . S
C493 C494 1.523 . S
C494 C478 1.368 . S
C494 C490 1.368 . S
C494 C493 1.523 . S
H495 C470 0.950 . S
H496 C472 0.950 . S
H497 C473 0.949 . S
H498 C475 0.950 . S
H499 C477 0.950 . S
C500 C501 1.349 . S
C500 C502 1.327 . S
C500 H525 0.950 . S
C501 C500 1.349 . S
C501 C517 1.349 . S
C502 C500 1.327 . S
C502 C521 1.429 . S
C502 H526 0.950 . S
C503 C520 1.574 . S
C503 C522 1.368 . S
C503 H527 0.949 . S
H504 C508 0.949 . S
C505 C506 1.349 . S
C505 C507 1.327 . S
C505 H528 0.950 . S
C506 C505 1.349 . S
C506 C518 1.349 . S
C507 C505 1.327 . S
C507 C523 1.429 . S
C507 H529 0.950 . S
C508 H504 0.949 . S
C508 C516 1.574 . S
C508 C524 1.368 . S
H509 C517 0.950 . S
H510 C515 0.950 . S
H511 C516 0.949 . S
H512 C518 0.950 . S
H513 C519 0.950 . S
H514 C520 0.949 . S
C515 H510 0.950 . S
C515 C517 1.327 . S
C515 C521 1.429 . S
C516 C508 1.574 . S
C516 H511 0.949 . S
C516 C522 1.368 . S
C517 C501 1.349 . S
C517 H509 0.950 . S
C517 C515 1.327 . S
C518 C506 1.349 . S
C518 H512 0.950 . S
C518 C519 1.327 . S
C519 H513 0.950 . S
C519 C518 1.327 . S
C519 C523 1.429 . S
C520 C503 1.574 . S
C520 H514 0.949 . S
C520 C524 1.368 . S
C521 C502 1.429 . S
C521 C515 1.429 . S
C521 C522 1.523 . S
C522 C503 1.368 . S
C522 C516 1.368 . S
C522 C521 1.523 . S
C523 C507 1.429 . S
C523 C519 1.429 . S
C523 C524 1.523 . S
C524 C508 1.368 . S
C524 C520 1.368 . S
C524 C523 1.523 . S
H525 C500 0.950 . S
H526 C502 0.950 . S
H527 C503 0.949 . S
H528 C505 0.950 . S
H529 C507 0.950 . S
C530 C531 1.349 . S
C530 C532 1.327 . S
C530 H555 0.950 . S
C531 C530 1.349 . S
C531 C547 1.349 . S
C532 C530 1.327 . S
C532 C551 1.429 . S
C532 H556 0.950 . S
C533 C550 1.574 . S
C533 C552 1.368 . S
C533 H557 0.949 . S
H534 C538 0.949 . S
C535 C536 1.349 . S
C535 C537 1.327 . S
C535 H558 0.950 . S
C536 C535 1.349 . S
C536 C548 1.349 . S
C537 C535 1.327 . S
C537 C553 1.429 . S
C537 H559 0.950 . S
C538 H534 0.949 . S
C538 C546 1.574 . S
C538 C554 1.368 . S
H539 C547 0.950 . S
H540 C545 0.950 . S
H541 C546 0.949 . S
H542 C548 0.950 . S
H543 C549 0.950 . S
H544 C550 0.949 . S
C545 H540 0.950 . S
C545 C547 1.327 . S
C545 C551 1.429 . S
C546 C538 1.574 . S
C546 H541 0.949 . S
C546 C552 1.368 . S
C547 C531 1.349 . S
C547 H539 0.950 . S
C547 C545 1.327 . S
C548 C536 1.349 . S
C548 H542 0.950 . S
C548 C549 1.327 . S
C549 H543 0.950 . S
C549 C548 1.327 . S
C549 C553 1.429 . S
C550 C533 1.574 . S
C550 H544 0.949 . S
C550 C554 1.368 . S
C551 C532 1.429 . S
C551 C545 1.429 . S
C551 C552 1.523 . S
C552 C533 1.368 . S
C552 C546 1.368 . S
C552 C551 1.523 . S
C553 C537 1.429 . S
C553 C549 1.429 . S
C553 C554 1.523 . S
C554 C538 1.368 . S
C554 C550 1.368 . S
C554 C553 1.523 . S
H555 C530 0.950 . S
H556 C532 0.950 . S
H557 C533 0.949 . S
H558 C535 0.950 . S
H559 C537 0.950 . S
C560 C561 1.349 . S
C560 C562 1.327 . S
C560 H585 0.950 . S
C561 C560 1.349 . S
C561 C577 1.349 . S
C562 C560 1.327 . S
C562 C581 1.429 . S
C562 H586 0.950 . S
C563 C580 1.574 . S
C563 C582 1.368 . S
C563 H587 0.949 . S
H564 C568 0.949 . S
C565 C566 1.349 . S
C565 C567 1.327 . S
C565 H588 0.950 . S
C566 C565 1.349 . S
C566 C578 1.349 . S
C567 C565 1.327 . S
C567 C583 1.429 . S
C567 H589 0.950 . S
C568 H564 0.949 . S
C568 C576 1.574 . S
C568 C584 1.368 . S
H569 C577 0.950 . S
H570 C575 0.950 . S
H571 C576 0.949 . S
H572 C578 0.950 . S
H573 C579 0.950 . S
H574 C580 0.949 . S
C575 H570 0.950 . S
C575 C577 1.327 . S
C575 C581 1.429 . S
C576 C568 1.574 . S
C576 H571 0.949 . S
C576 C582 1.368 . S
C577 C561 1.349 . S
C577 H569 0.950 . S
C577 C575 1.327 . S
C578 C566 1.349 . S
C578 H572 0.950 . S
C578 C579 1.327 . S
C579 H573 0.950 . S
C579 C578 1.327 . S
C579 C583 1.429 . S
C580 C563 1.574 . S
C580 H574 0.949 . S
C580 C584 1.368 . S
C581 C562 1.429 . S
C581 C575 1.429 . S
C581 C582 1.523 . S
C582 C563 1.368 . S
C582 C576 1.368 . S
C582 C581 1.523 . S
C583 C567 1.429 . S
C583 C579 1.429 . S
C583 C584 1.523 . S
C584 C568 1.368 . S
C584 C580 1.368 . S
C584 C583 1.523 . S
H585 C560 0.950 . S
H586 C562 0.950 . S
H587 C563 0.949 . S
H588 C565 0.950 . S
H589 C567 0.950 . S
C590 C591 1.349 . S
C590 C592 1.327 . S
C590 H615 0.950 . S
C591 C590 1.349 . S
C591 C607 1.349 . S
C592 C590 1.327 . S
C592 C611 1.429 . S
C592 H616 0.950 . S
C593 C610 1.574 . S
C593 C612 1.368 . S
C593 H617 0.949 . S
H594 C598 0.949 . S
C595 C596 1.349 . S
C595 C597 1.327 . S
C595 H618 0.950 . S
C596 C595 1.349 . S
C596 C608 1.349 . S
C597 C595 1.327 . S
C597 C613 1.429 . S
C597 H619 0.950 . S
C598 H594 0.949 . S
C598 C606 1.574 . S
C598 C614 1.368 . S
H599 C607 0.950 . S
H600 C605 0.950 . S
H601 C606 0.949 . S
H602 C608 0.950 . S
H603 C609 0.950 . S
H604 C610 0.949 . S
C605 H600 0.950 . S
C605 C607 1.327 . S
C605 C611 1.429 . S
C606 C598 1.574 . S
C606 H601 0.949 . S
C606 C612 1.368 . S
C607 C591 1.349 . S
C607 H599 0.950 . S
C607 C605 1.327 . S
C608 C596 1.349 . S
C608 H602 0.950 . S
C608 C609 1.327 . S
C609 H603 0.950 . S
C609 C608 1.327 . S
C609 C613 1.429 . S
C610 C593 1.574 . S
C610 H604 0.949 . S
C610 C614 1.368 . S
C611 C592 1.429 . S
C611 C605 1.429 . S
C611 C612 1.523 . S
C612 C593 1.368 . S
C612 C606 1.368 . S
C612 C611 1.523 . S
C613 C597 1.429 . S
C613 C609 1.429 . S
C613 C614 1.523 . S
C614 C598 1.368 . S
C614 C610 1.368 . S
C614 C613 1.523 . S
H615 C590 0.950 . S
H616 C592 0.950 . S
H617 C593 0.949 . S
H618 C595 0.950 . S
H619 C597 0.950 . S
C620 C621 1.349 . S
C620 C622 1.327 . S
C620 H645 0.950 . S
C621 C620 1.349 . S
C621 C637 1.349 . S
C622 C620 1.327 . S
C622 C641 1.429 . S
C622 H646 0.950 . S
C623 C640 1.574 . S
C623 C642 1.368 . S
C623 H647 0.949 . S
H624 C628 0.949 . S
C625 C626 1.349 . S
C625 C627 1.327 . S
C625 H648 0.950 . S
C626 C625 1.349 . S
C626 C638 1.349 . S
C627 C625 1.327 . S
C627 C643 1.429 . S
C627 H649 0.950 . S
C628 H624 0.949 . S
C628 C636 1.574 . S
C628 C644 1.368 . S
H629 C637 0.950 . S
H630 C635 0.950 . S
H631 C636 0.949 . S
H632 C638 0.950 . S
H633 C639 0.950 . S
H634 C640 0.949 . S
C635 H630 0.950 . S
C635 C637 1.327 . S
C635 C641 1.429 . S
C636 C628 1.574 . S
C636 H631 0.949 . S
C636 C642 1.368 . S
C637 C621 1.349 . S
C637 H629 0.950 . S
C637 C635 1.327 . S
C638 C626 1.349 . S
C638 H632 0.950 . S
C638 C639 1.327 . S
C639 H633 0.950 . S
C639 C638 1.327 . S
C639 C643 1.429 . S
C640 C623 1.574 . S
C640 H634 0.949 . S
C640 C644 1.368 . S
C641 C622 1.429 . S
C641 C635 1.429 . S
C641 C642 1.523 . S
C642 C623 1.368 . S
C642 C636 1.368 . S
C642 C641 1.523 . S
C643 C627 1.429 . S
C643 C639 1.429 . S
C643 C644 1.523 . S
C644 C628 1.368 . S
C644 C640 1.368 . S
C644 C643 1.523 . S
H645 C620 0.950 . S
H646 C622 0.950 . S
H647 C623 0.949 . S
H648 C625 0.950 . S
H649 C627 0.950 . S
C650 C651 1.349 . S
C650 C652 1.327 . S
C650 H675 0.950 . S
C651 C650 1.349 . S
C651 C667 1.349 . S
C652 C650 1.327 . S
C652 C671 1.429 . S
C652 H676 0.950 . S
C653 C670 1.574 . S
C653 C672 1.368 . S
C653 H677 0.949 . S
H654 C658 0.949 . S
C655 C656 1.349 . S
C655 C657 1.327 . S
C655 H678 0.950 . S
C656 C655 1.349 . S
C656 C668 1.349 . S
C657 C655 1.327 . S
C657 C673 1.429 . S
C657 H679 0.950 . S
C658 H654 0.949 . S
C658 C666 1.574 . S
C658 C674 1.368 . S
H659 C667 0.950 . S
H660 C665 0.950 . S
H661 C666 0.949 . S
H662 C668 0.950 . S
H663 C669 0.950 . S
H664 C670 0.949 . S
C665 H660 0.950 . S
C665 C667 1.327 . S
C665 C671 1.429 . S
C666 C658 1.574 . S
C666 H661 0.949 . S
C666 C672 1.368 . S
C667 C651 1.349 . S
C667 H659 0.950 . S
C667 C665 1.327 . S
C668 C656 1.349 . S
C668 H662 0.950 . S
C668 C669 1.327 . S
C669 H663 0.950 . S
C669 C668 1.327 . S
C669 C673 1.429 . S
C670 C653 1.574 . S
C670 H664 0.949 . S
C670 C674 1.368 . S
C671 C652 1.429 . S
C671 C665 1.429 . S
C671 C672 1.523 . S
C672 C653 1.368 . S
C672 C666 1.368 . S
C672 C671 1.523 . S
C673 C657 1.429 . S
C673 C669 1.429 . S
C673 C674 1.523 . S
C674 C658 1.368 . S
C674 C670 1.368 . S
C674 C673 1.523 . S
H675 C650 0.950 . S
H676 C652 0.950 . S
H677 C653 0.949 . S
H678 C655 0.950 . S
H679 C657 0.950 . S
C680 C681 1.349 . S
C680 C682 1.327 . S
C680 H705 0.950 . S
C681 C680 1.349 . S
C681 C697 1.349 . S
C682 C680 1.327 . S
C682 C701 1.429 . S
C682 H706 0.950 . S
C683 C700 1.574 . S
C683 C702 1.368 . S
C683 H707 0.949 . S
H684 C688 0.949 . S
C685 C686 1.349 . S
C685 C687 1.327 . S
C685 H708 0.950 . S
C686 C685 1.349 . S
C686 C698 1.349 . S
C687 C685 1.327 . S
C687 C703 1.429 . S
C687 H709 0.950 . S
C688 H684 0.949 . S
C688 C696 1.574 . S
C688 C704 1.368 . S
H689 C697 0.950 . S
H690 C695 0.950 . S
H691 C696 0.949 . S
H692 C698 0.950 . S
H693 C699 0.950 . S
H694 C700 0.949 . S
C695 H690 0.950 . S
C695 C697 1.327 . S
C695 C701 1.429 . S
C696 C688 1.574 . S
C696 H691 0.949 . S
C696 C702 1.368 . S
C697 C681 1.349 . S
C697 H689 0.950 . S
C697 C695 1.327 . S
C698 C686 1.349 . S
C698 H692 0.950 . S
C698 C699 1.327 . S
C699 H693 0.950 . S
C699 C698 1.327 . S
C699 C703 1.429 . S
C700 C683 1.574 . S
C700 H694 0.949 . S
C700 C704 1.368 . S
C701 C682 1.429 . S
C701 C695 1.429 . S
C701 C702 1.523 . S
C702 C683 1.368 . S
C702 C696 1.368 . S
C702 C701 1.523 . S
C703 C687 1.429 . S
C703 C699 1.429 . S
C703 C704 1.523 . S
C704 C688 1.368 . S
C704 C700 1.368 . S
C704 C703 1.523 . S
H705 C680 0.950 . S
H706 C682 0.950 . S
H707 C683 0.949 . S
H708 C685 0.950 . S
H709 C687 0.950 . S
C710 C711 1.349 . S
C710 C712 1.327 . S
C710 H735 0.950 . S
C711 C710 1.349 . S
C711 C727 1.349 . S
C712 C710 1.327 . S
C712 C731 1.429 . S
C712 H736 0.950 . S
C713 C730 1.574 . S
C713 C732 1.368 . S
C713 H737 0.949 . S
H714 C718 0.949 . S
C715 C716 1.349 . S
C715 C717 1.327 . S
C715 H738 0.950 . S
C716 C715 1.349 . S
C716 C728 1.349 . S
C717 C715 1.327 . S
C717 C733 1.429 . S
C717 H739 0.950 . S
C718 H714 0.949 . S
C718 C726 1.574 . S
C718 C734 1.368 . S
H719 C727 0.950 . S
H720 C725 0.950 . S
H721 C726 0.949 . S
H722 C728 0.950 . S
H723 C729 0.950 . S
H724 C730 0.949 . S
C725 H720 0.950 . S
C725 C727 1.327 . S
C725 C731 1.429 . S
C726 C718 1.574 . S
C726 H721 0.949 . S
C726 C732 1.368 . S
C727 C711 1.349 . S
C727 H719 0.950 . S
C727 C725 1.327 . S
C728 C716 1.349 . S
C728 H722 0.950 . S
C728 C729 1.327 . S
C729 H723 0.950 . S
C729 C728 1.327 . S
C729 C733 1.429 . S
C730 C713 1.574 . S
C730 H724 0.949 . S
C730 C734 1.368 . S
C731 C712 1.429 . S
C731 C725 1.429 . S
C731 C732 1.523 . S
C732 C713 1.368 . S
C732 C726 1.368 . S
C732 C731 1.523 . S
C733 C717 1.429 . S
C733 C729 1.429 . S
C733 C734 1.523 . S
C734 C718 1.368 . S
C734 C730 1.368 . S
C734 C733 1.523 . S
H735 C710 0.950 . S
H736 C712 0.950 . S
H737 C713 0.949 . S
H738 C715 0.950 . S
H739 C717 0.950 . S
C740 C741 1.349 . S
C740 C742 1.327 . S
C740 H765 0.950 . S
C741 C740 1.349 . S
C741 C757 1.349 . S
C742 C740 1.327 . S
C742 C761 1.429 . S
C742 H766 0.950 . S
C743 C760 1.574 . S
C743 C762 1.368 . S
C743 H767 0.949 . S
H744 C748 0.949 . S
C745 C746 1.349 . S
C745 C747 1.327 . S
C745 H768 0.950 . S
C746 C745 1.349 . S
C746 C758 1.349 . S
C747 C745 1.327 . S
C747 C763 1.429 . S
C747 H769 0.950 . S
C748 H744 0.949 . S
C748 C756 1.574 . S
C748 C764 1.368 . S
H749 C757 0.950 . S
H750 C755 0.950 . S
H751 C756 0.949 . S
H752 C758 0.950 . S
H753 C759 0.950 . S
H754 C760 0.949 . S
C755 H750 0.950 . S
C755 C757 1.327 . S
C755 C761 1.429 . S
C756 C748 1.574 . S
C756 H751 0.949 . S
C756 C762 1.368 . S
C757 C741 1.349 . S
C757 H749 0.950 . S
C757 C755 1.327 . S
C758 C746 1.349 . S
C758 H752 0.950 . S
C758 C759 1.327 . S
C759 H753 0.950 . S
C759 C758 1.327 . S
C759 C763 1.429 . S
C760 C743 1.574 . S
C760 H754 0.949 . S
C760 C764 1.368 . S
C761 C742 1.429 . S
C761 C755 1.429 . S
C761 C762 1.523 . S
C762 C743 1.368 . S
C762 C756 1.368 . S
C762 C761 1.523 . S
C763 C747 1.429 . S
C763 C759 1.429 . S
C763 C764 1.523 . S
C764 C748 1.368 . S
C764 C760 1.368 . S
C764 C763 1.523 . S
H765 C740 0.950 . S
H766 C742 0.950 . S
H767 C743 0.949 . S
H768 C745 0.950 . S
H769 C747 0.950 . S
C770 C771 1.349 . S
C770 C772 1.327 . S
C770 H795 0.950 . S
C771 C770 1.349 . S
C771 C787 1.349 . S
C772 C770 1.327 . S
C772 C791 1.429 . S
C772 H796 0.950 . S
C773 C790 1.574 . S
C773 C792 1.368 . S
C773 H797 0.949 . S
H774 C778 0.949 . S
C775 C776 1.349 . S
C775 C777 1.327 . S
C775 H798 0.950 . S
C776 C775 1.349 . S
C776 C788 1.349 . S
C777 C775 1.327 . S
C777 C793 1.429 . S
C777 H799 0.950 . S
C778 H774 0.949 . S
C778 C786 1.574 . S
C778 C794 1.368 . S
H779 C787 0.950 . S
H780 C785 0.950 . S
H781 C786 0.949 . S
H782 C788 0.950 . S
H783 C789 0.950 . S
H784 C790 0.949 . S
C785 H780 0.950 . S
C785 C787 1.327 . S
C785 C791 1.429 . S
C786 C778 1.574 . S
C786 H781 0.949 . S
C786 C792 1.368 . S
C787 C771 1.349 . S
C787 H779 0.950 . S
C787 C785 1.327 . S
C788 C776 1.349 . S
C788 H782 0.950 . S
C788 C789 1.327 . S
C789 H783 0.950 . S
C789 C788 1.327 . S
C789 C793 1.429 . S
C790 C773 1.574 . S
C790 H784 0.949 . S
C790 C794 1.368 . S
C791 C772 1.429 . S
C791 C785 1.429 . S
C791 C792 1.523 . S
C792 C773 1.368 . S
C792 C786 1.368 . S
C792 C791 1.523 . S
C793 C777 1.429 . S
C793 C789 1.429 . S
C793 C794 1.523 . S
C794 C778 1.368 . S
C794 C790 1.368 . S
C794 C793 1.523 . S
H795 C770 0.950 . S
H796 C772 0.950 . S
H797 C773 0.949 . S
H798 C775 0.950 . S
H799 C777 0.950 . S
C800 C801 1.349 . S
C800 C802 1.327 . S
C800 H825 0.950 . S
C801 C800 1.349 . S
C801 C817 1.349 . S
C802 C800 1.327 . S
C802 C821 1.429 . S
C802 H826 0.950 . S
C803 C820 1.574 . S
C803 C822 1.368 . S
C803 H827 0.949 . S
H804 C808 0.949 . S
C805 C806 1.349 . S
C805 C807 1.327 . S
C805 H828 0.950 . S
C806 C805 1.349 . S
C806 C818 1.349 . S
C807 C805 1.327 . S
C807 C823 1.429 . S
C807 H829 0.950 . S
C808 H804 0.949 . S
C808 C816 1.574 . S
C808 C824 1.368 . S
H809 C817 0.950 . S
H810 C815 0.950 . S
H811 C816 0.949 . S
H812 C818 0.950 . S
H813 C819 0.950 . S
H814 C820 0.949 . S
C815 H810 0.950 . S
C815 C817 1.327 . S
C815 C821 1.429 . S
C816 C808 1.574 . S
C816 H811 0.949 . S
C816 C822 1.368 . S
C817 C801 1.349 . S
C817 H809 0.950 . S
C817 C815 1.327 . S
C818 C806 1.349 . S
C818 H812 0.950 . S
C818 C819 1.327 . S
C819 H813 0.950 . S
C819 C818 1.327 . S
C819 C823 1.429 . S
C820 C803 1.574 . S
C820 H814 0.949 . S
C820 C824 1.368 . S
C821 C802 1.429 . S
C821 C815 1.429 . S
C821 C822 1.523 . S
C822 C803 1.368 . S
C822 C816 1.368 . S
C822 C821 1.523 . S
C823 C807 1.429 . S
C823 C819 1.429 . S
C823 C824 1.523 . S
C824 C808 1.368 . S
C824 C820 1.368 . S
C824 C823 1.523 . S
H825 C800 0.950 . S
H826 C802 0.950 . S
H827 C803 0.949 . S
H828 C805 0.950 . S
H829 C807 0.950 . S
C830 C831 1.349 . S
C830 C832 1.327 . S
C830 H855 0.950 . S
C831 C830 1.349 . S
C831 C847 1.349 . S
C832 C830 1.327 . S
C832 C851 1.429 . S
C832 H856 0.950 . S
C833 C850 1.574 . S
C833 C852 1.368 . S
C833 H857 0.949 . S
H834 C838 0.949 . S
C835 C836 1.349 . S
C835 C837 1.327 . S
C835 H858 0.950 . S
C836 C835 1.349 . S
C836 C848 1.349 . S
C837 C835 1.327 . S
C837 C853 1.429 . S
C837 H859 0.950 . S
C838 H834 0.949 . S
C838 C846 1.574 . S
C838 C854 1.368 . S
H839 C847 0.950 . S
H840 C845 0.950 . S
H841 C846 0.949 . S
H842 C848 0.950 . S
H843 C849 0.950 . S
H844 C850 0.949 . S
C845 H840 0.950 . S
C845 C847 1.327 . S
C845 C851 1.429 . S
C846 C838 1.574 . S
C846 H841 0.949 . S
C846 C852 1.368 . S
C847 C831 1.349 . S
C847 H839 0.950 . S
C847 C845 1.327 . S
C848 C836 1.349 . S
C848 H842 0.950 . S
C848 C849 1.327 . S
C849 H843 0.950 . S
C849 C848 1.327 . S
C849 C853 1.429 . S
C850 C833 1.574 . S
C850 H844 0.949 . S
C850 C854 1.368 . S
C851 C832 1.429 . S
C851 C845 1.429 . S
C851 C852 1.523 . S
C852 C833 1.368 . S
C852 C846 1.368 . S
C852 C851 1.523 . S
C853 C837 1.429 . S
C853 C849 1.429 . S
C853 C854 1.523 . S
C854 C838 1.368 . S
C854 C850 1.368 . S
C854 C853 1.523 . S
H855 C830 0.950 . S
H856 C832 0.950 . S
H857 C833 0.949 . S
H858 C835 0.950 . S
H859 C837 0.950 . S
C860 C861 1.349 . S
C860 C862 1.327 . S
C860 H885 0.950 . S
C861 C860 1.349 . S
C861 C877 1.349 . S
C862 C860 1.327 . S
C862 C881 1.429 . S
C862 H886 0.950 . S
C863 C880 1.574 . S
C863 C882 1.368 . S
C863 H887 0.949 . S
H864 C868 0.949 . S
C865 C866 1.349 . S
C865 C867 1.327 . S
C865 H888 0.950 . S
C866 C865 1.349 . S
C866 C878 1.349 . S
C867 C865 1.327 . S
C867 C883 1.429 . S
C867 H889 0.950 . S
C868 H864 0.949 . S
C868 C876 1.574 . S
C868 C884 1.368 . S
H869 C877 0.950 . S
H870 C875 0.950 . S
H871 C876 0.949 . S
H872 C878 0.950 . S
H873 C879 0.950 . S
H874 C880 0.949 . S
C875 H870 0.950 . S
C875 C877 1.327 . S
C875 C881 1.429 . S
C876 C868 1.574 . S
C876 H871 0.949 . S
C876 C882 1.368 . S
C877 C861 1.349 . S
C877 H869 0.950 . S
C877 C875 1.327 . S
C878 C866 1.349 . S
C878 H872 0.950 . S
C878 C879 1.327 . S
C879 H873 0.950 . S
C879 C878 1.327 . S
C879 C883 1.429 . S
C880 C863 1.574 . S
C880 H874 0.949 . S
C880 C884 1.368 . S
C881 C862 1.429 . S
C881 C875 1.429 . S
C881 C882 1.523 . S
C882 C863 1.368 . S
C882 C876 1.368 . S
C882 C881 1.523 . S
C883 C867 1.429 . S
C883 C879 1.429 . S
C883 C884 1.523 . S
C884 C868 1.368 . S
C884 C880 1.368 . S
C884 C883 1.523 . S
H885 C860 0.950 . S
H886 C862 0.950 . S
H887 C863 0.949 . S
H888 C865 0.950 . S
H889 C867 0.950 . S
C890 C891 1.349 . S
C890 C892 1.327 . S
C890 H915 0.950 . S
C891 C890 1.349 . S
C891 C907 1.349 . S
C892 C890 1.327 . S
C892 C911 1.429 . S
C892 H916 0.950 . S
C893 C910 1.574 . S
C893 C912 1.368 . S
C893 H917 0.949 . S
H894 C898 0.949 . S
C895 C896 1.349 . S
C895 C897 1.327 . S
C895 H918 0.950 . S
C896 C895 1.349 . S
C896 C908 1.349 . S
C897 C895 1.327 . S
C897 C913 1.429 . S
C897 H919 0.950 . S
C898 H894 0.949 . S
C898 C906 1.574 . S
C898 C914 1.368 . S
H899 C907 0.950 . S
H900 C905 0.950 . S
H901 C906 0.949 . S
H902 C908 0.950 . S
H903 C909 0.950 . S
H904 C910 0.949 . S
C905 H900 0.950 . S
C905 C907 1.327 . S
C905 C911 1.429 . S
C906 C898 1.574 . S
C906 H901 0.949 . S
C906 C912 1.368 . S
C907 C891 1.349 . S
C907 H899 0.950 . S
C907 C905 1.327 . S
C908 C896 1.349 . S
C908 H902 0.950 . S
C908 C909 1.327 . S
C909 H903 0.950 . S
C909 C908 1.327 . S
C909 C913 1.429 . S
C910 C893 1.574 . S
C910 H904 0.949 . S
C910 C914 1.368 . S
C911 C892 1.429 . S
C911 C905 1.429 . S
C911 C912 1.523 . S
C912 C893 1.368 . S
C912 C906 1.368 . S
C912 C911 1.523 . S
C913 C897 1.429 . S
C913 C909 1.429 . S
C913 C914 1.523 . S
C914 C898 1.368 . S
C914 C910 1.368 . S
C914 C913 1.523 . S
H915 C890 0.950 . S
H916 C892 0.950 . S
H917 C893 0.949 . S
H918 C895 0.950 . S
H919 C897 0.950 . S
C920 C921 1.349 . S
C920 C922 1.327 . S
C920 H945 0.950 . S
C921 C920 1.349 . S
C921 C937 1.349 . S
C922 C920 1.327 . S
C922 C941 1.429 . S
C922 H946 0.950 . S
C923 C940 1.574 . S
C923 C942 1.368 . S
C923 H947 0.949 . S
H924 C928 0.949 . S
C925 C926 1.349 . S
C925 C927 1.327 . S
C925 H948 0.950 . S
C926 C925 1.349 . S
C926 C938 1.349 . S
C927 C925 1.327 . S
C927 C943 1.429 . S
C927 H949 0.950 . S
C928 H924 0.949 . S
C928 C936 1.574 . S
C928 C944 1.368 . S
H929 C937 0.950 . S
H930 C935 0.950 . S
H931 C936 0.949 . S
H932 C938 0.950 . S
H933 C939 0.950 . S
H934 C940 0.949 . S
C935 H930 0.950 . S
C935 C937 1.327 . S
C935 C941 1.429 . S
C936 C928 1.574 . S
C936 H931 0.949 . S
C936 C942 1.368 . S
C937 C921 1.349 . S
C937 H929 0.950 . S
C937 C935 1.327 . S
C938 C926 1.349 . S
C938 H932 0.950 . S
C938 C939 1.327 . S
C939 H933 0.950 . S
C939 C938 1.327 . S
C939 C943 1.429 . S
C940 C923 1.574 . S
C940 H934 0.949 . S
C940 C944 1.368 . S
C941 C922 1.429 . S
C941 C935 1.429 . S
C941 C942 1.523 . S
C942 C923 1.368 . S
C942 C936 1.368 . S
C942 C941 1.523 . S
C943 C927 1.429 . S
C943 C939 1.429 . S
C943 C944 1.523 . S
C944 C928 1.368 . S
C944 C940 1.368 . S
C944 C943 1.523 . S
H945 C920 0.950 . S
H946 C922 0.950 . S
H947 C923 0.949 . S
H948 C925 0.950 . S
H949 C927 0.950 . S
C950 C951 1.349 . S
C950 C952 1.327 . S
C950 H975 0.950 . S
C951 C950 1.349 . S
C951 C967 1.349 . S
C952 C950 1.327 . S
C952 C971 1.429 . S
C952 H976 0.950 . S
C953 C970 1.574 . S
C953 C972 1.368 . S
C953 H977 0.949 . S
H954 C958 0.949 . S
C955 C956 1.349 . S
C955 C957 1.327 . S
C955 H978 0.950 . S
C956 C955 1.349 . S
C956 C968 1.349 . S
C957 C955 1.327 . S
C957 C973 1.429 . S
C957 H979 0.950 . S
C958 H954 0.949 . S
C958 C966 1.574 . S
C958 C974 1.368 . S
H959 C967 0.950 . S
H960 C965 0.950 . S
H961 C966 0.949 . S
H962 C968 0.950 . S
H963 C969 0.950 . S
H964 C970 0.949 . S
C965 H960 0.950 . S
C965 C967 1.327 . S
C965 C971 1.429 . S
C966 C958 1.574 . S
C966 H961 0.949 . S
C966 C972 1.368 . S
C967 C951 1.349 . S
C967 H959 0.950 . S
C967 C965 1.327 . S
C968 C956 1.349 . S
C968 H962 0.950 . S
C968 C969 1.327 . S
C969 H963 0.950 . S
C969 C968 1.327 . S
C969 C973 1.429 . S
C970 C953 1.574 . S
C970 H964 0.949 . S
C970 C974 1.368 . S
C971 C952 1.429 . S
C971 C965 1.429 . S
C971 C972 1.523 . S
C972 C953 1.368 . S
C972 C966 1.368 . S
C972 C971 1.523 . S
C973 C957 1.429 . S
C973 C969 1.429 . S
C973 C974 1.523 . S
C974 C958 1.368 . S
C974 C970 1.368 . S
C974 C973 1.523 . S
H975 C950 0.950 . S
H976 C952 0.950 . S
H977 C953 0.949 . S
H978 C955 0.950 . S
H979 C957 0.950 . S
C980 C981 1.349 . S
C980 C982 1.327 . S
C980 H1005 0.950 . S
C981 C980 1.349 . S
C981 C997 1.349 . S
C982 C980 1.327 . S
C982 C1001 1.429 . S
C982 H1006 0.950 . S
C983 C1000 1.574 . S
C983 C1002 1.368 . S
C983 H1007 0.949 . S
H984 C988 0.949 . S
C985 C986 1.349 . S
C985 C987 1.327 . S
C985 H1008 0.950 . S
C986 C985 1.349 . S
C986 C998 1.349 . S
C987 C985 1.327 . S
C987 C1003 1.429 . S
C987 H1009 0.950 . S
C988 H984 0.949 . S
C988 C996 1.574 . S
C988 C1004 1.368 . S
H989 C997 0.950 . S
H990 C995 0.950 . S
H991 C996 0.949 . S
H992 C998 0.950 . S
H993 C999 0.950 . S
H994 C1000 0.949 . S
C995 H990 0.950 . S
C995 C997 1.327 . S
C995 C1001 1.429 . S
C996 C988 1.574 . S
C996 H991 0.949 . S
C996 C1002 1.368 . S
C997 C981 1.349 . S
C997 H989 0.950 . S
C997 C995 1.327 . S
C998 C986 1.349 . S
C998 H992 0.950 . S
C998 C999 1.327 . S
C999 H993 0.950 . S
C999 C998 1.327 . S
C999 C1003 1.429 . S
C1000 C983 1.574 . S
C1000 H994 0.949 . S
C1000 C1004 1.368 . S
C1001 C982 1.429 . S
C1001 C995 1.429 . S
C1001 C1002 1.523 . S
C1002 C983 1.368 . S
C1002 C996 1.368 . S
C1002 C1001 1.523 . S
C1003 C987 1.429 . S
C1003 C999 1.429 . S
C1003 C1004 1.523 . S
C1004 C988 1.368 . S
C1004 C1000 1.368 . S
C1004 C1003 1.523 . S
H1005 C980 0.950 . S
H1006 C982 0.950 . S
H1007 C983 0.949 . S
H1008 C985 0.950 . S
H1009 C987 0.950 . S
C1010 C1011 1.349 . S
C1010 C1012 1.327 . S
C1010 H1035 0.950 . S
C1011 C1010 1.349 . S
C1011 C1027 1.349 . S
C1012 C1010 1.327 . S
C1012 C1031 1.429 . S
C1012 H1036 0.950 . S
C1013 C1030 1.574 . S
C1013 C1032 1.368 . S
C1013 H1037 0.949 . S
H1014 C1018 0.949 . S
C1015 C1016 1.349 . S
C1015 C1017 1.327 . S
C1015 H1038 0.950 . S
C1016 C1015 1.349 . S
C1016 C1028 1.349 . S
C1017 C1015 1.327 . S
C1017 C1033 1.429 . S
C1017 H1039 0.950 . S
C1018 H1014 0.949 . S
C1018 C1026 1.574 . S
C1018 C1034 1.368 . S
H1019 C1027 0.950 . S
H1020 C1025 0.950 . S
H1021 C1026 0.949 . S
H1022 C1028 0.950 . S
H1023 C1029 0.950 . S
H1024 C1030 0.949 . S
C1025 H1020 0.950 . S
C1025 C1027 1.327 . S
C1025 C1031 1.429 . S
C1026 C1018 1.574 . S
C1026 H1021 0.949 . S
C1026 C1032 1.368 . S
C1027 C1011 1.349 . S
C1027 H1019 0.950 . S
C1027 C1025 1.327 . S
C1028 C1016 1.349 . S
C1028 H1022 0.950 . S
C1028 C1029 1.327 . S
C1029 H1023 0.950 . S
C1029 C1028 1.327 . S
C1029 C1033 1.429 . S
C1030 C1013 1.574 . S
C1030 H1024 0.949 . S
C1030 C1034 1.368 . S
C1031 C1012 1.429 . S
C1031 C1025 1.429 . S
C1031 C1032 1.523 . S
C1032 C1013 1.368 . S
C1032 C1026 1.368 . S
C1032 C1031 1.523 . S
C1033 C1017 1.429 . S
C1033 C1029 1.429 . S
C1033 C1034 1.523 . S
C1034 C1018 1.368 . S
C1034 C1030 1.368 . S
C1034 C1033 1.523 . S
H1035 C1010 0.950 . S
H1036 C1012 0.950 . S
H1037 C1013 0.949 . S
H1038 C1015 0.950 . S
H1039 C1017 0.950 . S
C1040 C1041 1.349 . S
C1040 C1042 1.327 . S
C1040 H1065 0.950 . S
C1041 C1040 1.349 . S
C1041 C1057 1.349 . S
C1042 C1040 1.327 . S
C1042 C1061 1.429 . S
C1042 H1066 0.950 . S
C1043 C1060 1.574 . S
C1043 C1062 1.368 . S
C1043 H1067 0.949 . S
H1044 C1048 0.949 . S
C1045 C1046 1.349 . S
C1045 C1047 1.327 . S
C1045 H1068 0.950 . S
C1046 C1045 1.349 . S
C1046 C1058 1.349 . S
C1047 C1045 1.327 . S
C1047 C1063 1.429 . S
C1047 H1069 0.950 . S
C1048 H1044 0.949 . S
C1048 C1056 1.574 . S
C1048 C1064 1.368 . S
H1049 C1057 0.950 . S
H1050 C1055 0.950 . S
H1051 C1056 0.949 . S
H1052 C1058 0.950 . S
H1053 C1059 0.950 . S
H1054 C1060 0.949 . S
C1055 H1050 0.950 . S
C1055 C1057 1.327 . S
C1055 C1061 1.429 . S
C1056 C1048 1.574 . S
C1056 H1051 0.949 . S
C1056 C1062 1.368 . S
C1057 C1041 1.349 . S
C1057 H1049 0.950 . S
C1057 C1055 1.327 . S
C1058 C1046 1.349 . S
C1058 H1052 0.950 . S
C1058 C1059 1.327 . S
C1059 H1053 0.950 . S
C1059 C1058 1.327 . S
C1059 C1063 1.429 . S
C1060 C1043 1.574 . S
C1060 H1054 0.949 . S
C1060 C1064 1.368 . S
C1061 C1042 1.429 . S
C1061 C1055 1.429 . S
C1061 C1062 1.523 . S
C1062 C1043 1.368 . S
C1062 C1056 1.368 . S
C1062 C1061 1.523 . S
C1063 C1047 1.429 . S
C1063 C1059 1.429 . S
C1063 C1064 1.523 . S
C1064 C1048 1.368 . S
C1064 C1060 1.368 . S
C1064 C1063 1.523 . S
H1065 C1040 0.950 . S
H1066 C1042 0.950 . S
H1067 C1043 0.949 . S
H1068 C1045 0.950 . S
H1069 C1047 0.950 . S
C1070 C1071 1.349 . S
C1070 C1072 1.327 . S
C1070 H1095 0.950 . S
C1071 C1070 1.349 . S
C1071 C1087 1.349 . S
C1072 C1070 1.327 . S
C1072 C1091 1.429 . S
C1072 H1096 0.950 . S
C1073 C1090 1.574 . S
C1073 C1092 1.368 . S
C1073 H1097 0.949 . S
H1074 C1078 0.949 . S
C1075 C1076 1.349 . S
C1075 C1077 1.327 . S
C1075 H1098 0.950 . S
C1076 C1075 1.349 . S
C1076 C1088 1.349 . S
C1077 C1075 1.327 . S
C1077 C1093 1.429 . S
C1077 H1099 0.950 . S
C1078 H1074 0.949 . S
C1078 C1086 1.574 . S
C1078 C1094 1.368 . S
H1079 C1087 0.950 . S
H1080 C1085 0.950 . S
H1081 C1086 0.949 . S
H1082 C1088 0.950 . S
H1083 C1089 0.950 . S
H1084 C1090 0.949 . S
C1085 H1080 0.950 . S
C1085 C1087 1.327 . S
C1085 C1091 1.429 . S
C1086 C1078 1.574 . S
C1086 H1081 0.949 . S
C1086 C1092 1.368 . S
C1087 C1071 1.349 . S
C1087 H1079 0.950 . S
C1087 C1085 1.327 . S
C1088 C1076 1.349 . S
C1088 H1082 0.950 . S
C1088 C1089 1.327 . S
C1089 H1083 0.950 . S
C1089 C1088 1.327 . S
C1089 C1093 1.429 . S
C1090 C1073 1.574 . S
C1090 H1084 0.949 . S
C1090 C1094 1.368 . S
C1091 C1072 1.429 . S
C1091 C1085 1.429 . S
C1091 C1092 1.523 . S
C1092 C1073 1.368 . S
C1092 C1086 1.368 . S
C1092 C1091 1.523 . S
C1093 C1077 1.429 . S
C1093 C1089 1.429 . S
C1093 C1094 1.523 . S
C1094 C1078 1.368 . S
C1094 C1090 1.368 . S
C1094 C1093 1.523 . S
H1095 C1070 0.950 . S
H1096 C1072 0.950 . S
H1097 C1073 0.949 . S
H1098 C1075 0.950 . S
H1099 C1077 0.950 . S
C1100 C1101 1.349 . S
C1100 C1102 1.327 . S
C1100 H1125 0.950 . S
C1101 C1100 1.349 . S
C1101 C1117 1.349 . S
C1102 C1100 1.327 . S
C1102 C1121 1.429 . S
C1102 H1126 0.950 . S
C1103 C1120 1.574 . S
C1103 C1122 1.368 . S
C1103 H1127 0.949 . S
H1104 C1108 0.949 . S
C1105 C1106 1.349 . S
C1105 C1107 1.327 . S
C1105 H1128 0.950 . S
C1106 C1105 1.349 . S
C1106 C1118 1.349 . S
C1107 C1105 1.327 . S
C1107 C1123 1.429 . S
C1107 H1129 0.950 . S
C1108 H1104 0.949 . S
C1108 C1116 1.574 . S
C1108 C1124 1.368 . S
H1109 C1117 0.950 . S
H1110 C1115 0.950 . S
H1111 C1116 0.949 . S
H1112 C1118 0.950 . S
H1113 C1119 0.950 . S
H1114 C1120 0.949 . S
C1115 H1110 0.950 . S
C1115 C1117 1.327 . S
C1115 C1121 1.429 . S
C1116 C1108 1.574 . S
C1116 H1111 0.949 . S
C1116 C1122 1.368 . S
C1117 C1101 1.349 . S
C1117 H1109 0.950 . S
C1117 C1115 1.327 . S
C1118 C1106 1.349 . S
C1118 H1112 0.950 . S
C1118 C1119 1.327 . S
C1119 H1113 0.950 . S
C1119 C1118 1.327 . S
C1119 C1123 1.429 . S
C1120 C1103 1.574 . S
C1120 H1114 0.949 . S
C1120 C1124 1.368 . S
C1121 C1102 1.429 . S
C1121 C1115 1.429 . S
C1121 C1122 1.523 . S
C1122 C1103 1.368 . S
C1122 C1116 1.368 . S
C1122 C1121 1.523 . S
C1123 C1107 1.429 . S
C1123 C1119 1.429 . S
C1123 C1124 1.523 . S
C1124 C1108 1.368 . S
C1124 C1120 1.368 . S
C1124 C1123 1.523 . S
H1125 C1100 0.950 . S
H1126 C1102 0.950 . S
H1127 C1103 0.949 . S
H1128 C1105 0.950 . S
H1129 C1107 0.950 . S
C1130 C1131 1.349 . S
C1130 C1132 1.327 . S
C1130 H1155 0.950 . S
C1131 C1130 1.349 . S
C1131 C1147 1.349 . S
C1132 C1130 1.327 . S
C1132 C1151 1.429 . S
C1132 H1156 0.950 . S
C1133 C1150 1.574 . S
C1133 C1152 1.368 . S
C1133 H1157 0.949 . S
H1134 C1138 0.949 . S
C1135 C1136 1.349 . S
C1135 C1137 1.327 . S
C1135 H1158 0.950 . S
C1136 C1135 1.349 . S
C1136 C1148 1.349 . S
C1137 C1135 1.327 . S
C1137 C1153 1.429 . S
C1137 H1159 0.950 . S
C1138 H1134 0.949 . S
C1138 C1146 1.574 . S
C1138 C1154 1.368 . S
H1139 C1147 0.950 . S
H1140 C1145 0.950 . S
H1141 C1146 0.949 . S
H1142 C1148 0.950 . S
H1143 C1149 0.950 . S
H1144 C1150 0.949 . S
C1145 H1140 0.950 . S
C1145 C1147 1.327 . S
C1145 C1151 1.429 . S
C1146 C1138 1.574 . S
C1146 H1141 0.949 . S
C1146 C1152 1.368 . S
C1147 C1131 1.349 . S
C1147 H1139 0.950 . S
C1147 C1145 1.327 . S
C1148 C1136 1.349 . S
C1148 H1142 0.950 . S
C1148 C1149 1.327 . S
C1149 H1143 0.950 . S
C1149 C1148 1.327 . S
C1149 C1153 1.429 . S
C1150 C1133 1.574 . S
C1150 H1144 0.949 . S
C1150 C1154 1.368 . S
C1151 C1132 1.429 . S
C1151 C1145 1.429 . S
C1151 C1152 1.523 . S
C1152 C1133 1.368 . S
C1152 C1146 1.368 . S
C1152 C1151 1.523 . S
C1153 C1137 1.429 . S
C1153 C1149 1.429 . S
C1153 C1154 1.523 . S
C1154 C1138 1.368 . S
C1154 C1150 1.368 . S
C1154 C1153 1.523 . S
H1155 C1130 0.950 . S
H1156 C1132 0.950 . S
H1157 C1133 0.949 . S
H1158 C1135 0.950 . S
H1159 C1137 0.950 . S
C1160 C1161 1.349 . S
C1160 C1162 1.327 . S
C1160 H1185 0.950 . S
C1161 C1160 1.349 . S
C1161 C1177 1.349 . S
C1162 C1160 1.327 . S
C1162 C1181 1.429 . S
C1162 H1186 0.950 . S
C1163 C1180 1.574 . S
C1163 C1182 1.368 . S
C1163 H1187 0.949 . S
H1164 C1168 0.949 . S
C1165 C1166 1.349 . S
C1165 C1167 1.327 . S
C1165 H1188 0.950 . S
C1166 C1165 1.349 . S
C1166 C1178 1.349 . S
C1167 C1165 1.327 . S
C1167 C1183 1.429 . S
C1167 H1189 0.950 . S
C1168 H1164 0.949 . S
C1168 C1176 1.574 . S
C1168 C1184 1.368 . S
H1169 C1177 0.950 . S
H1170 C1175 0.950 . S
H1171 C1176 0.949 . S
H1172 C1178 0.950 . S
H1173 C1179 0.950 . S
H1174 C1180 0.949 . S
C1175 H1170 0.950 . S
C1175 C1177 1.327 . S
C1175 C1181 1.429 . S
C1176 C1168 1.574 . S
C1176 H1171 0.949 . S
C1176 C1182 1.368 . S
C1177 C1161 1.349 . S
C1177 H1169 0.950 . S
C1177 C1175 1.327 . S
C1178 C1166 1.349 . S
C1178 H1172 0.950 . S
C1178 C1179 1.327 . S
C1179 H1173 0.950 . S
C1179 C1178 1.327 . S
C1179 C1183 1.429 . S
C1180 C1163 1.574 . S
C1180 H1174 0.949 . S
C1180 C1184 1.368 . S
C1181 C1162 1.429 . S
C1181 C1175 1.429 . S
C1181 C1182 1.523 . S
C1182 C1163 1.368 . S
C1182 C1176 1.368 . S
C1182 C1181 1.523 . S
C1183 C1167 1.429 . S
C1183 C1179 1.429 . S
C1183 C1184 1.523 . S
C1184 C1168 1.368 . S
C1184 C1180 1.368 . S
C1184 C1183 1.523 . S
H1185 C1160 0.950 . S
H1186 C1162 0.950 . S
H1187 C1163 0.949 . S
H1188 C1165 0.950 . S
H1189 C1167 0.950 . S
C1190 C1191 1.349 . S
C1190 C1192 1.327 . S
C1190 H1215 0.950 . S
C1191 C1190 1.349 . S
C1191 C1207 1.349 . S
C1192 C1190 1.327 . S
C1192 C1211 1.429 . S
C1192 H1216 0.950 . S
C1193 C1210 1.574 . S
C1193 C1212 1.368 . S
C1193 H1217 0.949 . S
H1194 C1198 0.949 . S
C1195 C1196 1.349 . S
C1195 C1197 1.327 . S
C1195 H1218 0.950 . S
C1196 C1195 1.349 . S
C1196 C1208 1.349 . S
C1197 C1195 1.327 . S
C1197 C1213 1.429 . S
C1197 H1219 0.950 . S
C1198 H1194 0.949 . S
C1198 C1206 1.574 . S
C1198 C1214 1.368 . S
H1199 C1207 0.950 . S
H1200 C1205 0.950 . S
H1201 C1206 0.949 . S
H1202 C1208 0.950 . S
H1203 C1209 0.950 . S
H1204 C1210 0.949 . S
C1205 H1200 0.950 . S
C1205 C1207 1.327 . S
C1205 C1211 1.429 . S
C1206 C1198 1.574 . S
C1206 H1201 0.949 . S
C1206 C1212 1.368 . S
C1207 C1191 1.349 . S
C1207 H1199 0.950 . S
C1207 C1205 1.327 . S
C1208 C1196 1.349 . S
C1208 H1202 0.950 . S
C1208 C1209 1.327 . S
C1209 H1203 0.950 . S
C1209 C1208 1.327 . S
C1209 C1213 1.429 . S
C1210 C1193 1.574 . S
C1210 H1204 0.949 . S
C1210 C1214 1.368 . S
C1211 C1192 1.429 . S
C1211 C1205 1.429 . S
C1211 C1212 1.523 . S
C1212 C1193 1.368 . S
C1212 C1206 1.368 . S
C1212 C1211 1.523 . S
C1213 C1197 1.429 . S
C1213 C1209 1.429 . S
C1213 C1214 1.523 . S
C1214 C1198 1.368 . S
C1214 C1210 1.368 . S
C1214 C1213 1.523 . S
H1215 C1190 0.950 . S
H1216 C1192 0.950 . S
H1217 C1193 0.949 . S
H1218 C1195 0.950 . S
H1219 C1197 0.950 . S
C1220 C1221 1.349 . S
C1220 C1222 1.327 . S
C1220 H1245 0.950 . S
C1221 C1220 1.349 . S
C1221 C1237 1.349 . S
C1222 C1220 1.327 . S
C1222 C1241 1.429 . S
C1222 H1246 0.950 . S
C1223 C1240 1.574 . S
C1223 C1242 1.368 . S
C1223 H1247 0.949 . S
H1224 C1228 0.949 . S
C1225 C1226 1.349 . S
C1225 C1227 1.327 . S
C1225 H1248 0.950 . S
C1226 C1225 1.349 . S
C1226 C1238 1.349 . S
C1227 C1225 1.327 . S
C1227 C1243 1.429 . S
C1227 H1249 0.950 . S
C1228 H1224 0.949 . S
C1228 C1236 1.574 . S
C1228 C1244 1.368 . S
H1229 C1237 0.950 . S
H1230 C1235 0.950 . S
H1231 C1236 0.949 . S
H1232 C1238 0.950 . S
H1233 C1239 0.950 . S
H1234 C1240 0.949 . S
C1235 H1230 0.950 . S
C1235 C1237 1.327 . S
C1235 C1241 1.429 . S
C1236 C1228 1.574 . S
C1236 H1231 0.949 . S
C1236 C1242 1.368 . S
C1237 C1221 1.349 . S
C1237 H1229 0.950 . S
C1237 C1235 1.327 . S
C1238 C1226 1.349 . S
C1238 H1232 0.950 . S
C1238 C1239 1.327 . S
C1239 H1233 0.950 . S
C1239 C1238 1.327 . S
C1239 C1243 1.429 . S
C1240 C1223 1.574 . S
C1240 H1234 0.949 . S
C1240 C1244 1.368 . S
C1241 C1222 1.429 . S
C1241 C1235 1.429 . S
C1241 C1242 1.523 . S
C1242 C1223 1.368 . S
C1242 C1236 1.368 . S
C1242 C1241 1.523 . S
C1243 C1227 1.429 . S
C1243 C1239 1.429 . S
C1243 C1244 1.523 . S
C1244 C1228 1.368 . S
C1244 C1240 1.368 . S
C1244 C1243 1.523 . S
H1245 C1220 0.950 . S
H1246 C1222 0.950 . S
H1247 C1223 0.949 . S
H1248 C1225 0.950 . S
H1249 C1227 0.950 . S
C1250 C1251 1.349 . S
C1250 C1252 1.327 . S
C1250 H1275 0.950 . S
C1251 C1250 1.349 . S
C1251 C1267 1.349 . S
C1252 C1250 1.327 . S
C1252 C1271 1.429 . S
C1252 H1276 0.950 . S
C1253 C1270 1.574 . S
C1253 C1272 1.368 . S
C1253 H1277 0.949 . S
H1254 C1258 0.949 . S
C1255 C1256 1.349 . S
C1255 C1257 1.327 . S
C1255 H1278 0.950 . S
C1256 C1255 1.349 . S
C1256 C1268 1.349 . S
C1257 C1255 1.327 . S
C1257 C1273 1.429 . S
C1257 H1279 0.950 . S
C1258 H1254 0.949 . S
C1258 C1266 1.574 . S
C1258 C1274 1.368 . S
H1259 C1267 0.950 . S
H1260 C1265 0.950 . S
H1261 C1266 0.949 . S
H1262 C1268 0.950 . S
H1263 C1269 0.950 . S
H1264 C1270 0.949 . S
C1265 H1260 0.950 . S
C1265 C1267 1.327 . S
C1265 C1271 1.429 . S
C1266 C1258 1.574 . S
C1266 H1261 0.949 . S
C1266 C1272 1.368 . S
C1267 C1251 1.349 . S
C1267 H1259 0.950 . S
C1267 C1265 1.327 . S
C1268 C1256 1.349 . S
C1268 H1262 0.950 . S
C1268 C1269 1.327 . S
C1269 H1263 0.950 . S
C1269 C1268 1.327 . S
C1269 C1273 1.429 . S
C1270 C1253 1.574 . S
C1270 H1264 0.949 . S
C1270 C1274 1.368 . S
C1271 C1252 1.429 . S
C1271 C1265 1.429 . S
C1271 C1272 1.523 . S
C1272 C1253 1.368 . S
C1272 C1266 1.368 . S
C1272 C1271 1.523 . S
C1273 C1257 1.429 . S
C1273 C1269 1.429 . S
C1273 C1274 1.523 . S
C1274 C1258 1.368 . S
C1274 C1270 1.368 . S
C1274 C1273 1.523 . S
H1275 C1250 0.950 . S
H1276 C1252 0.950 . S
H1277 C1253 0.949 . S
H1278 C1255 0.950 . S
H1279 C1257 0.950 . S
C1280 C1281 1.349 . S
C1280 C1282 1.327 . S
C1280 H1305 0.950 . S
C1281 C1280 1.349 . S
C1281 C1297 1.349 . S
C1282 C1280 1.327 . S
C1282 C1301 1.429 . S
C1282 H1306 0.950 . S
C1283 C1300 1.574 . S
C1283 C1302 1.368 . S
C1283 H1307 0.949 . S
H1284 C1288 0.949 . S
C1285 C1286 1.349 . S
C1285 C1287 1.327 . S
C1285 H1308 0.950 . S
C1286 C1285 1.349 . S
C1286 C1298 1.349 . S
C1287 C1285 1.327 . S
C1287 C1303 1.429 . S
C1287 H1309 0.950 . S
C1288 H1284 0.949 . S
C1288 C1296 1.574 . S
C1288 C1304 1.368 . S
H1289 C1297 0.950 . S
H1290 C1295 0.950 . S
H1291 C1296 0.949 . S
H1292 C1298 0.950 . S
H1293 C1299 0.950 . S
H1294 C1300 0.949 . S
C1295 H1290 0.950 . S
C1295 C1297 1.327 . S
C1295 C1301 1.429 . S
C1296 C1288 1.574 . S
C1296 H1291 0.949 . S
C1296 C1302 1.368 . S
C1297 C1281 1.349 . S
C1297 H1289 0.950 . S
C1297 C1295 1.327 . S
C1298 C1286 1.349 . S
C1298 H1292 0.950 . S
C1298 C1299 1.327 . S
C1299 H1293 0.950 . S
C1299 C1298 1.327 . S
C1299 C1303 1.429 . S
C1300 C1283 1.574 . S
C1300 H1294 0.949 . S
C1300 C1304 1.368 . S
C1301 C1282 1.429 . S
C1301 C1295 1.429 . S
C1301 C1302 1.523 . S
C1302 C1283 1.368 . S
C1302 C1296 1.368 . S
C1302 C1301 1.523 . S
C1303 C1287 1.429 . S
C1303 C1299 1.429 . S
C1303 C1304 1.523 . S
C1304 C1288 1.368 . S
C1304 C1300 1.368 . S
C1304 C1303 1.523 . S
H1305 C1280 0.950 . S
H1306 C1282 0.950 . S
H1307 C1283 0.949 . S
H1308 C1285 0.950 . S
H1309 C1287 0.950 . S
C1310 C1311 1.349 . S
C1310 C1312 1.327 . S
C1310 H1335 0.950 . S
C1311 C1310 1.349 . S
C1311 C1327 1.349 . S
C1312 C1310 1.327 . S
C1312 C1331 1.429 . S
C1312 H1336 0.950 . S
C1313 C1330 1.574 . S
C1313 C1332 1.368 . S
C1313 H1337 0.949 . S
H1314 C1318 0.949 . S
C1315 C1316 1.349 . S
C1315 C1317 1.327 . S
C1315 H1338 0.950 . S
C1316 C1315 1.349 . S
C1316 C1328 1.349 . S
C1317 C1315 1.327 . S
C1317 C1333 1.429 . S
C1317 H1339 0.950 . S
C1318 H1314 0.949 . S
C1318 C1326 1.574 . S
C1318 C1334 1.368 . S
H1319 C1327 0.950 . S
H1320 C1325 0.950 . S
H1321 C1326 0.949 . S
H1322 C1328 0.950 . S
H1323 C1329 0.950 . S
H1324 C1330 0.949 . S
C1325 H1320 0.950 . S
C1325 C1327 1.327 . S
C1325 C1331 1.429 . S
C1326 C1318 1.574 . S
C1326 H1321 0.949 . S
C1326 C1332 1.368 . S
C1327 C1311 1.349 . S
C1327 H1319 0.950 . S
C1327 C1325 1.327 . S
C1328 C1316 1.349 . S
C1328 H1322 0.950 . S
C1328 C1329 1.327 . S
C1329 H1323 0.950 . S
C1329 C1328 1.327 . S
C1329 C1333 1.429 . S
C1330 C1313 1.574 . S
C1330 H1324 0.949 . S
C1330 C1334 1.368 . S
C1331 C1312 1.429 . S
C1331 C1325 1.429 . S
C1331 C1332 1.523 . S
C1332 C1313 1.368 . S
C1332 C1326 1.368 . S
C1332 C1331 1.523 . S
C1333 C1317 1.429 . S
C1333 C1329 1.429 . S
C1333 C1334 1.523 . S
C1334 C1318 1.368 . S
C1334 C1330 1.368 . S
C1334 C1333 1.523 . S
H1335 C1310 0.950 . S
H1336 C1312 0.950 . S
H1337 C1313 0.949 . S
H1338 C1315 0.950 . S
H1339 C1317 0.950 . S
C1340 C1341 1.349 . S
C1340 C1342 1.327 . S
C1340 H1365 0.950 . S
C1341 C1340 1.349 . S
C1341 C1357 1.349 . S
C1342 C1340 1.327 . S
C1342 C1361 1.429 . S
C1342 H1366 0.950 . S
C1343 C1360 1.574 . S
C1343 C1362 1.368 . S
C1343 H1367 0.949 . S
H1344 C1348 0.949 . S
C1345 C1346 1.349 . S
C1345 C1347 1.327 . S
C1345 H1368 0.950 . S
C1346 C1345 1.349 . S
C1346 C1358 1.349 . S
C1347 C1345 1.327 . S
C1347 C1363 1.429 . S
C1347 H1369 0.950 . S
C1348 H1344 0.949 . S
C1348 C1356 1.574 . S
C1348 C1364 1.368 . S
H1349 C1357 0.950 . S
H1350 C1355 0.950 . S
H1351 C1356 0.949 . S
H1352 C1358 0.950 . S
H1353 C1359 0.950 . S
H1354 C1360 0.949 . S
C1355 H1350 0.950 . S
C1355 C1357 1.327 . S
C1355 C1361 1.429 . S
C1356 C1348 1.574 . S
C1356 H1351 0.949 . S
C1356 C1362 1.368 . S
C1357 C1341 1.349 . S
C1357 H1349 0.950 . S
C1357 C1355 1.327 . S
C1358 C1346 1.349 . S
C1358 H1352 0.950 . S
C1358 C1359 1.327 . S
C1359 H1353 0.950 . S
C1359 C1358 1.327 . S
C1359 C1363 1.429 . S
C1360 C1343 1.574 . S
C1360 H1354 0.949 . S
C1360 C1364 1.368 . S
C1361 C1342 1.429 . S
C1361 C1355 1.429 . S
C1361 C1362 1.523 . S
C1362 C1343 1.368 . S
C1362 C1356 1.368 . S
C1362 C1361 1.523 . S
C1363 C1347 1.429 . S
C1363 C1359 1.429 . S
C1363 C1364 1.523 . S
C1364 C1348 1.368 . S
C1364 C1360 1.368 . S
C1364 C1363 1.523 . S
H1365 C1340 0.950 . S
H1366 C1342 0.950 . S
H1367 C1343 0.949 . S
H1368 C1345 0.950 . S
H1369 C1347 0.950 . S
C1370 C1371 1.349 . S
C1370 C1372 1.327 . S
C1370 H1395 0.950 . S
C1371 C1370 1.349 . S
C1371 C1387 1.349 . S
C1372 C1370 1.327 . S
C1372 C1391 1.429 . S
C1372 H1396 0.950 . S
C1373 C1390 1.574 . S
C1373 C1392 1.368 . S
C1373 H1397 0.949 . S
H1374 C1378 0.949 . S
C1375 C1376 1.349 . S
C1375 C1377 1.327 . S
C1375 H1398 0.950 . S
C1376 C1375 1.349 . S
C1376 C1388 1.349 . S
C1377 C1375 1.327 . S
C1377 C1393 1.429 . S
C1377 H1399 0.950 . S
C1378 H1374 0.949 . S
C1378 C1386 1.574 . S
C1378 C1394 1.368 . S
H1379 C1387 0.950 . S
H1380 C1385 0.950 . S
H1381 C1386 0.949 . S
H1382 C1388 0.950 . S
H1383 C1389 0.950 . S
H1384 C1390 0.949 . S
C1385 H1380 0.950 . S
C1385 C1387 1.327 . S
C1385 C1391 1.429 . S
C1386 C1378 1.574 . S
C1386 H1381 0.949 . S
C1386 C1392 1.368 . S
C1387 C1371 1.349 . S
C1387 H1379 0.950 . S
C1387 C1385 1.327 . S
C1388 C1376 1.349 . S
C1388 H1382 0.950 . S
C1388 C1389 1.327 . S
C1389 H1383 0.950 . S
C1389 C1388 1.327 . S
C1389 C1393 1.429 . S
C1390 C1373 1.574 . S
C1390 H1384 0.949 . S
C1390 C1394 1.368 . S
C1391 C1372 1.429 . S
C1391 C1385 1.429 . S
C1391 C1392 1.523 . S
C1392 C1373 1.368 . S
C1392 C1386 1.368 . S
C1392 C1391 1.523 . S
C1393 C1377 1.429 . S
C1393 C1389 1.429 . S
C1393 C1394 1.523 . S
C1394 C1378 1.368 . S
C1394 C1390 1.368 . S
C1394 C1393 1.523 . S
H1395 C1370 0.950 . S
H1396 C1372 0.950 . S
H1397 C1373 0.949 . S
H1398 C1375 0.950 . S
H1399 C1377 0.950 . S
C1400 C1401 1.349 . S
C1400 C1402 1.327 . S
C1400 H1425 0.950 . S
C1401 C1400 1.349 . S
C1401 C1417 1.349 . S
C1402 C1400 1.327 . S
C1402 C1421 1.429 . S
C1402 H1426 0.950 . S
C1403 C1420 1.574 . S
C1403 C1422 1.368 . S
C1403 H1427 0.949 . S
H1404 C1408 0.949 . S
C1405 C1406 1.349 . S
C1405 C1407 1.327 . S
C1405 H1428 0.950 . S
C1406 C1405 1.349 . S
C1406 C1418 1.349 . S
C1407 C1405 1.327 . S
C1407 C1423 1.429 . S
C1407 H1429 0.950 . S
C1408 H1404 0.949 . S
C1408 C1416 1.574 . S
C1408 C1424 1.368 . S
H1409 C1417 0.950 . S
H1410 C1415 0.950 . S
H1411 C1416 0.949 . S
H1412 C1418 0.950 . S
H1413 C1419 0.950 . S
H1414 C1420 0.949 . S
C1415 H1410 0.950 . S
C1415 C1417 1.327 . S
C1415 C1421 1.429 . S
C1416 C1408 1.574 . S
C1416 H1411 0.949 . S
C1416 C1422 1.368 . S
C1417 C1401 1.349 . S
C1417 H1409 0.950 . S
C1417 C1415 1.327 . S
C1418 C1406 1.349 . S
C1418 H1412 0.950 . S
C1418 C1419 1.327 . S
C1419 H1413 0.950 . S
C1419 C1418 1.327 . S
C1419 C1423 1.429 . S
C1420 C1403 1.574 . S
C1420 H1414 0.949 . S
C1420 C1424 1.368 . S
C1421 C1402 1.429 . S
C1421 C1415 1.429 . S
C1421 C1422 1.523 . S
C1422 C1403 1.368 . S
C1422 C1416 1.368 . S
C1422 C1421 1.523 . S
C1423 C1407 1.429 . S
C1423 C1419 1.429 . S
C1423 C1424 1.523 . S
C1424 C1408 1.368 . S
C1424 C1420 1.368 . S
C1424 C1423 1.523 . S
H1425 C1400 0.950 . S
H1426 C1402 0.950 . S
H1427 C1403 0.949 . S
H1428 C1405 0.950 . S
H1429 C1407 0.950 . S
C1430 C1431 1.349 . S
C1430 C1432 1.327 . S
C1430 H1455 0.950 . S
C1431 C1430 1.349 . S
C1431 C1447 1.349 . S
C1432 C1430 1.327 . S
C1432 C1451 1.429 . S
C1432 H1456 0.950 . S
C1433 C1450 1.574 . S
C1433 C1452 1.368 . S
C1433 H1457 0.949 . S
H1434 C1438 0.949 . S
C1435 C1436 1.349 . S
C1435 C1437 1.327 . S
C1435 H1458 0.950 . S
C1436 C1435 1.349 . S
C1436 C1448 1.349 . S
C1437 C1435 1.327 . S
C1437 C1453 1.429 . S
C1437 H1459 0.950 . S
C1438 H1434 0.949 . S
C1438 C1446 1.574 . S
C1438 C1454 1.368 . S
H1439 C1447 0.950 . S
H1440 C1445 0.950 . S
H1441 C1446 0.949 . S
H1442 C1448 0.950 . S
H1443 C1449 0.950 . S
H1444 C1450 0.949 . S
C1445 H1440 0.950 . S
C1445 C1447 1.327 . S
C1445 C1451 1.429 . S
C1446 C1438 1.574 . S
C1446 H1441 0.949 . S
C1446 C1452 1.368 . S
C1447 C1431 1.349 . S
C1447 H1439 0.950 . S
C1447 C1445 1.327 . S
C1448 C1436 1.349 . S
C1448 H1442 0.950 . S
C1448 C1449 1.327 . S
C1449 H1443 0.950 . S
C1449 C1448 1.327 . S
C1449 C1453 1.429 . S
C1450 C1433 1.574 . S
C1450 H1444 0.949 . S
C1450 C1454 1.368 . S
C1451 C1432 1.429 . S
C1451 C1445 1.429 . S
C1451 C1452 1.523 . S
C1452 C1433 1.368 . S
C1452 C1446 1.368 . S
C1452 C1451 1.523 . S
C1453 C1437 1.429 . S
C1453 C1449 1.429 . S
C1453 C1454 1.523 . S
C1454 C1438 1.368 . S
C1454 C1450 1.368 . S
C1454 C1453 1.523 . S
H1455 C1430 0.950 . S
H1456 C1432 0.950 . S
H1457 C1433 0.949 . S
H1458 C1435 0.950 . S
H1459 C1437 0.950 . S
C1460 C1461 1.349 . S
C1460 C1462 1.327 . S
C1460 H1485 0.950 . S
C1461 C1460 1.349 . S
C1461 C1477 1.349 . S
C1462 C1460 1.327 . S
C1462 C1481 1.429 . S
C1462 H1486 0.950 . S
C1463 C1480 1.574 . S
C1463 C1482 1.368 . S
C1463 H1487 0.949 . S
H1464 C1468 0.949 . S
C1465 C1466 1.349 . S
C1465 C1467 1.327 . S
C1465 H1488 0.950 . S
C1466 C1465 1.349 . S
C1466 C1478 1.349 . S
C1467 C1465 1.327 . S
C1467 C1483 1.429 . S
C1467 H1489 0.950 . S
C1468 H1464 0.949 . S
C1468 C1476 1.574 . S
C1468 C1484 1.368 . S
H1469 C1477 0.950 . S
H1470 C1475 0.950 . S
H1471 C1476 0.949 . S
H1472 C1478 0.950 . S
H1473 C1479 0.950 . S
H1474 C1480 0.949 . S
C1475 H1470 0.950 . S
C1475 C1477 1.327 . S
C1475 C1481 1.429 . S
C1476 C1468 1.574 . S
C1476 H1471 0.949 . S
C1476 C1482 1.368 . S
C1477 C1461 1.349 . S
C1477 H1469 0.950 . S
C1477 C1475 1.327 . S
C1478 C1466 1.349 . S
C1478 H1472 0.950 . S
C1478 C1479 1.327 . S
C1479 H1473 0.950 . S
C1479 C1478 1.327 . S
C1479 C1483 1.429 . S
C1480 C1463 1.574 . S
C1480 H1474 0.949 . S
C1480 C1484 1.368 . S
C1481 C1462 1.429 . S
C1481 C1475 1.429 . S
C1481 C1482 1.523 . S
C1482 C1463 1.368 . S
C1482 C1476 1.368 . S
C1482 C1481 1.523 . S
C1483 C1467 1.429 . S
C1483 C1479 1.429 . S
C1483 C1484 1.523 . S
C1484 C1468 1.368 . S
C1484 C1480 1.368 . S
C1484 C1483 1.523 . S
H1485 C1460 0.950 . S
H1486 C1462 0.950 . S
H1487 C1463 0.949 . S
H1488 C1465 0.950 . S
H1489 C1467 0.950 . S
C1490 C1491 1.349 . S
C1490 C1492 1.327 . S
C1490 H1515 0.950 . S
C1491 C1490 1.349 . S
C1491 C1507 1.349 . S
C1492 C1490 1.327 . S
C1492 C1511 1.429 . S
C1492 H1516 0.950 . S
C1493 C1510 1.574 . S
C1493 C1512 1.368 . S
C1493 H1517 0.949 . S
H1494 C1498 0.949 . S
C1495 C1496 1.349 . S
C1495 C1497 1.327 . S
C1495 H1518 0.950 . S
C1496 C1495 1.349 . S
C1496 C1508 1.349 . S
C1497 C1495 1.327 . S
C1497 C1513 1.429 . S
C1497 H1519 0.950 . S
C1498 H1494 0.949 . S
C1498 C1506 1.574 . S
C1498 C1514 1.368 . S
H1499 C1507 0.950 . S
H1500 C1505 0.950 . S
H1501 C1506 0.949 . S
H1502 C1508 0.950 . S
H1503 C1509 0.950 . S
H1504 C1510 0.949 . S
C1505 H1500 0.950 . S
C1505 C1507 1.327 . S
C1505 C1511 1.429 . S
C1506 C1498 1.574 . S
C1506 H1501 0.949 . S
C1506 C1512 1.368 . S
C1507 C1491 1.349 . S
C1507 H1499 0.950 . S
C1507 C1505 1.327 . S
C1508 C1496 1.349 . S
C1508 H1502 0.950 . S
C1508 C1509 1.327 . S
C1509 H1503 0.950 . S
C1509 C1508 1.327 . S
C1509 C1513 1.429 . S
C1510 C1493 1.574 . S
C1510 H1504 0.949 . S
C1510 C1514 1.368 . S
C1511 C1492 1.429 . S
C1511 C1505 1.429 . S
C1511 C1512 1.523 . S
C1512 C1493 1.368 . S
C1512 C1506 1.368 . S
C1512 C1511 1.523 . S
C1513 C1497 1.429 . S
C1513 C1509 1.429 . S
C1513 C1514 1.523 . S
C1514 C1498 1.368 . S
C1514 C1510 1.368 . S
C1514 C1513 1.523 . S
H1515 C1490 0.950 . S
H1516 C1492 0.950 . S
H1517 C1493 0.949 . S
H1518 C1495 0.950 . S
H1519 C1497 0.950 . S
C1520 C1521 1.349 . S
C1520 C1522 1.327 . S
C1520 H1545 0.950 . S
C1521 C1520 1.349 . S
C1521 C1537 1.349 . S
C1522 C1520 1.327 . S
C1522 C1541 1.429 . S
C1522 H1546 0.950 . S
C1523 C1540 1.574 . S
C1523 C1542 1.368 . S
C1523 H1547 0.949 . S
H1524 C1528 0.949 . S
C1525 C1526 1.349 . S
C1525 C1527 1.327 . S
C1525 H1548 0.950 . S
C1526 C1525 1.349 . S
C1526 C1538 1.349 . S
C1527 C1525 1.327 . S
C1527 C1543 1.429 . S
C1527 H1549 0.950 . S
C1528 H1524 0.949 . S
C1528 C1536 1.574 . S
C1528 C1544 1.368 . S
H1529 C1537 0.950 . S
H1530 C1535 0.950 . S
H1531 C1536 0.949 . S
H1532 C1538 0.950 . S
H1533 C1539 0.950 . S
H1534 C1540 0.949 . S
C1535 H1530 0.950 . S
C1535 C1537 1.327 . S
C1535 C1541 1.429 . S
C1536 C1528 1.574 . S
C1536 H1531 0.949 . S
C1536 C1542 1.368 . S
C1537 C1521 1.349 . S
C1537 H1529 0.950 . S
C1537 C1535 1.327 . S
C1538 C1526 1.349 . S
C1538 H1532 0.950 . S
C1538 C1539 1.327 . S
C1539 H1533 0.950 . S
C1539 C1538 1.327 . S
C1539 C1543 1.429 . S
C1540 C1523 1.574 . S
C1540 H1534 0.949 . S
C1540 C1544 1.368 . S
C1541 C1522 1.429 . S
C1541 C1535 1.429 . S
C1541 C1542 1.523 . S
C1542 C1523 1.368 . S
C1542 C1536 1.368 . S
C1542 C1541 1.523 . S
C1543 C1527 1.429 . S
C1543 C1539 1.429 . S
C1543 C1544 1.523 . S
C1544 C1528 1.368 . S
C1544 C1540 1.368 . S
C1544 C1543 1.523 . S
H1545 C1520 0.950 . S
H1546 C1522 0.950 . S
H1547 C1523 0.949 . S
H1548 C1525 0.950 . S
H1549 C1527 0.950 . S
C1550 C1551 1.349 . S
C1550 C1552 1.327 . S
C1550 H1575 0.950 . S
C1551 C1550 1.349 . S
C1551 C1567 1.349 . S
C1552 C1550 1.327 . S
C1552 C1571 1.429 . S
C1552 H1576 0.950 . S
C1553 C1570 1.574 . S
C1553 C1572 1.368 . S
C1553 H1577 0.949 . S
H1554 C1558 0.949 . S
C1555 C1556 1.349 . S
C1555 C1557 1.327 . S
C1555 H1578 0.950 1_554 S
C1556 C1555 1.349 . S
C1556 C1568 1.349 . S
C1557 C1555 1.327 . S
C1557 C1573 1.429 . S
C1557 H1579 0.950 . S
C1558 H1554 0.949 . S
C1558 C1566 1.574 . S
C1558 C1574 1.368 . S
H1559 C1567 0.950 . S
H1560 C1565 0.950 . S
H1561 C1566 0.949 . S
H1562 C1568 0.950 . S
H1563 C1569 0.950 . S
H1564 C1570 0.949 . S
C1565 H1560 0.950 . S
C1565 C1567 1.327 . S
C1565 C1571 1.429 . S
C1566 C1558 1.574 . S
C1566 H1561 0.949 . S
C1566 C1572 1.368 . S
C1567 C1551 1.349 . S
C1567 H1559 0.950 . S
C1567 C1565 1.327 . S
C1568 C1556 1.349 . S
C1568 H1562 0.950 . S
C1568 C1569 1.327 . S
C1569 H1563 0.950 . S
C1569 C1568 1.327 . S
C1569 C1573 1.429 . S
C1570 C1553 1.574 . S
C1570 H1564 0.949 . S
C1570 C1574 1.368 . S
C1571 C1552 1.429 . S
C1571 C1565 1.429 . S
C1571 C1572 1.523 . S
C1572 C1553 1.368 . S
C1572 C1566 1.368 . S
C1572 C1571 1.523 . S
C1573 C1557 1.429 . S
C1573 C1569 1.429 . S
C1573 C1574 1.523 . S
C1574 C1558 1.368 . S
C1574 C1570 1.368 . S
C1574 C1573 1.523 . S
H1575 C1550 0.950 . S
H1576 C1552 0.950 . S
H1577 C1553 0.949 . S
H1578 C1555 0.950 1_556 S
H1579 C1557 0.950 . S
C1580 C1581 1.349 . S
C1580 C1582 1.327 . S
C1580 H1605 0.950 . S
C1581 C1580 1.349 . S
C1581 C1597 1.349 . S
C1582 C1580 1.327 . S
C1582 C1601 1.429 . S
C1582 H1606 0.950 . S
C1583 C1600 1.574 . S
C1583 C1602 1.368 . S
C1583 H1607 0.949 . S
H1584 C1588 0.949 . S
C1585 C1586 1.349 . S
C1585 C1587 1.327 . S
C1585 H1608 0.950 . S
C1586 C1585 1.349 . S
C1586 C1598 1.349 . S
C1587 C1585 1.327 . S
C1587 C1603 1.429 . S
C1587 H1609 0.950 . S
C1588 H1584 0.949 . S
C1588 C1596 1.574 . S
C1588 C1604 1.368 . S
H1589 C1597 0.950 . S
H1590 C1595 0.950 . S
H1591 C1596 0.949 . S
H1592 C1598 0.950 . S
H1593 C1599 0.950 . S
H1594 C1600 0.949 . S
C1595 H1590 0.950 . S
C1595 C1597 1.327 . S
C1595 C1601 1.429 . S
C1596 C1588 1.574 . S
C1596 H1591 0.949 . S
C1596 C1602 1.368 . S
C1597 C1581 1.349 . S
C1597 H1589 0.950 . S
C1597 C1595 1.327 . S
C1598 C1586 1.349 . S
C1598 H1592 0.950 . S
C1598 C1599 1.327 . S
C1599 H1593 0.950 . S
C1599 C1598 1.327 . S
C1599 C1603 1.429 . S
C1600 C1583 1.574 . S
C1600 H1594 0.949 . S
C1600 C1604 1.368 . S
C1601 C1582 1.429 . S
C1601 C1595 1.429 . S
C1601 C1602 1.523 . S
C1602 C1583 1.368 . S
C1602 C1596 1.368 . S
C1602 C1601 1.523 . S
C1603 C1587 1.429 . S
C1603 C1599 1.429 . S
C1603 C1604 1.523 . S
C1604 C1588 1.368 . S
C1604 C1600 1.368 . S
C1604 C1603 1.523 . S
H1605 C1580 0.950 . S
H1606 C1582 0.950 . S
H1607 C1583 0.949 . S
H1608 C1585 0.950 . S
H1609 C1587 0.950 . S
C1610 C1611 1.349 . S
C1610 C1612 1.327 . S
C1610 H1635 0.950 . S
C1611 C1610 1.349 . S
C1611 C1627 1.349 . S
C1612 C1610 1.327 . S
C1612 C1631 1.429 . S
C1612 H1636 0.950 . S
C1613 C1630 1.574 . S
C1613 C1632 1.368 . S
C1613 H1637 0.949 . S
H1614 C1618 0.949 . S
C1615 C1616 1.349 . S
C1615 C1617 1.327 . S
C1615 H1638 0.950 . S
C1616 C1615 1.349 . S
C1616 C1628 1.349 . S
C1617 C1615 1.327 . S
C1617 C1633 1.429 . S
C1617 H1639 0.950 . S
C1618 H1614 0.949 . S
C1618 C1626 1.574 . S
C1618 C1634 1.368 . S
H1619 C1627 0.950 . S
H1620 C1625 0.950 . S
H1621 C1626 0.949 . S
H1622 C1628 0.950 . S
H1623 C1629 0.950 . S
H1624 C1630 0.949 . S
C1625 H1620 0.950 . S
C1625 C1627 1.327 . S
C1625 C1631 1.429 . S
C1626 C1618 1.574 . S
C1626 H1621 0.949 . S
C1626 C1632 1.368 . S
C1627 C1611 1.349 . S
C1627 H1619 0.950 . S
C1627 C1625 1.327 . S
C1628 C1616 1.349 . S
C1628 H1622 0.950 . S
C1628 C1629 1.327 . S
C1629 H1623 0.950 . S
C1629 C1628 1.327 . S
C1629 C1633 1.429 . S
C1630 C1613 1.574 . S
C1630 H1624 0.949 . S
C1630 C1634 1.368 . S
C1631 C1612 1.429 . S
C1631 C1625 1.429 . S
C1631 C1632 1.523 . S
C1632 C1613 1.368 . S
C1632 C1626 1.368 . S
C1632 C1631 1.523 . S
C1633 C1617 1.429 . S
C1633 C1629 1.429 . S
C1633 C1634 1.523 . S
C1634 C1618 1.368 . S
C1634 C1630 1.368 . S
C1634 C1633 1.523 . S
H1635 C1610 0.950 . S
H1636 C1612 0.950 . S
H1637 C1613 0.949 . S
H1638 C1615 0.950 . S
H1639 C1617 0.950 . S
C1640 C1641 1.349 . S
C1640 C1642 1.327 . S
C1640 H1665 0.950 . S
C1641 C1640 1.349 . S
C1641 C1657 1.349 . S
C1642 C1640 1.327 . S
C1642 C1661 1.429 . S
C1642 H1666 0.950 . S
C1643 C1660 1.574 . S
C1643 C1662 1.368 . S
C1643 H1667 0.949 . S
H1644 C1648 0.949 . S
C1645 C1646 1.349 . S
C1645 C1647 1.327 . S
C1645 H1668 0.950 . S
C1646 C1645 1.349 . S
C1646 C1658 1.349 . S
C1647 C1645 1.327 . S
C1647 C1663 1.429 . S
C1647 H1669 0.950 . S
C1648 H1644 0.949 . S
C1648 C1656 1.574 . S
C1648 C1664 1.368 . S
H1649 C1657 0.950 . S
H1650 C1655 0.950 . S
H1651 C1656 0.949 . S
H1652 C1658 0.950 . S
H1653 C1659 0.950 . S
H1654 C1660 0.949 . S
C1655 H1650 0.950 . S
C1655 C1657 1.327 . S
C1655 C1661 1.429 . S
C1656 C1648 1.574 . S
C1656 H1651 0.949 . S
C1656 C1662 1.368 . S
C1657 C1641 1.349 . S
C1657 H1649 0.950 . S
C1657 C1655 1.327 . S
C1658 C1646 1.349 . S
C1658 H1652 0.950 . S
C1658 C1659 1.327 . S
C1659 H1653 0.950 . S
C1659 C1658 1.327 . S
C1659 C1663 1.429 . S
C1660 C1643 1.574 . S
C1660 H1654 0.949 . S
C1660 C1664 1.368 . S
C1661 C1642 1.429 . S
C1661 C1655 1.429 . S
C1661 C1662 1.523 . S
C1662 C1643 1.368 . S
C1662 C1656 1.368 . S
C1662 C1661 1.523 . S
C1663 C1647 1.429 . S
C1663 C1659 1.429 . S
C1663 C1664 1.523 . S
C1664 C1648 1.368 . S
C1664 C1660 1.368 . S
C1664 C1663 1.523 . S
H1665 C1640 0.950 . S
H1666 C1642 0.950 . S
H1667 C1643 0.949 . S
H1668 C1645 0.950 . S
H1669 C1647 0.950 . S
C1670 C1671 1.349 . S
C1670 C1672 1.327 . S
C1670 H1695 0.950 . S
C1671 C1670 1.349 . S
C1671 C1687 1.349 . S
C1672 C1670 1.327 . S
C1672 C1691 1.429 . S
C1672 H1696 0.950 . S
C1673 C1690 1.574 . S
C1673 C1692 1.368 . S
C1673 H1697 0.949 . S
H1674 C1678 0.949 . S
C1675 C1676 1.349 . S
C1675 C1677 1.327 . S
C1675 H1698 0.950 . S
C1676 C1675 1.349 . S
C1676 C1688 1.349 . S
C1677 C1675 1.327 . S
C1677 C1693 1.429 . S
C1677 H1699 0.950 . S
C1678 H1674 0.949 . S
C1678 C1686 1.574 . S
C1678 C1694 1.368 . S
H1679 C1687 0.950 . S
H1680 C1685 0.950 . S
H1681 C1686 0.949 . S
H1682 C1688 0.950 . S
H1683 C1689 0.950 . S
H1684 C1690 0.949 . S
C1685 H1680 0.950 . S
C1685 C1687 1.327 . S
C1685 C1691 1.429 . S
C1686 C1678 1.574 . S
C1686 H1681 0.949 . S
C1686 C1692 1.368 . S
C1687 C1671 1.349 . S
C1687 H1679 0.950 . S
C1687 C1685 1.327 . S
C1688 C1676 1.349 . S
C1688 H1682 0.950 . S
C1688 C1689 1.327 . S
C1689 H1683 0.950 . S
C1689 C1688 1.327 . S
C1689 C1693 1.429 . S
C1690 C1673 1.574 . S
C1690 H1684 0.949 . S
C1690 C1694 1.368 . S
C1691 C1672 1.429 . S
C1691 C1685 1.429 . S
C1691 C1692 1.523 . S
C1692 C1673 1.368 . S
C1692 C1686 1.368 . S
C1692 C1691 1.523 . S
C1693 C1677 1.429 . S
C1693 C1689 1.429 . S
C1693 C1694 1.523 . S
C1694 C1678 1.368 . S
C1694 C1690 1.368 . S
C1694 C1693 1.523 . S
H1695 C1670 0.950 . S
H1696 C1672 0.950 . S
H1697 C1673 0.949 . S
H1698 C1675 0.950 . S
H1699 C1677 0.950 . S
C1700 C1701 1.349 . S
C1700 C1702 1.327 . S
C1700 H1725 0.950 . S
C1701 C1700 1.349 . S
C1701 C1717 1.349 . S
C1702 C1700 1.327 . S
C1702 C1721 1.429 . S
C1702 H1726 0.950 . S
C1703 C1720 1.574 . S
C1703 C1722 1.368 . S
C1703 H1727 0.949 . S
H1704 C1708 0.949 . S
C1705 C1706 1.349 . S
C1705 C1707 1.327 . S
C1705 H1728 0.950 . S
C1706 C1705 1.349 . S
C1706 C1718 1.349 . S
C1707 C1705 1.327 . S
C1707 C1723 1.429 . S
C1707 H1729 0.950 . S
C1708 H1704 0.949 . S
C1708 C1716 1.574 . S
C1708 C1724 1.368 . S
H1709 C1717 0.950 . S
H1710 C1715 0.950 . S
H1711 C1716 0.949 . S
H1712 C1718 0.950 . S
H1713 C1719 0.950 . S
H1714 C1720 0.949 . S
C1715 H1710 0.950 . S
C1715 C1717 1.327 . S
C1715 C1721 1.429 . S
C1716 C1708 1.574 . S
C1716 H1711 0.949 . S
C1716 C1722 1.368 . S
C1717 C1701 1.349 . S
C1717 H1709 0.950 . S
C1717 C1715 1.327 . S
C1718 C1706 1.349 . S
C1718 H1712 0.950 . S
C1718 C1719 1.327 . S
C1719 H1713 0.950 . S
C1719 C1718 1.327 . S
C1719 C1723 1.429 . S
C1720 C1703 1.574 . S
C1720 H1714 0.949 . S
C1720 C1724 1.368 . S
C1721 C1702 1.429 . S
C1721 C1715 1.429 . S
C1721 C1722 1.523 . S
C1722 C1703 1.368 . S
C1722 C1716 1.368 . S
C1722 C1721 1.523 . S
C1723 C1707 1.429 . S
C1723 C1719 1.429 . S
C1723 C1724 1.523 . S
C1724 C1708 1.368 . S
C1724 C1720 1.368 . S
C1724 C1723 1.523 . S
H1725 C1700 0.950 . S
H1726 C1702 0.950 . S
H1727 C1703 0.949 . S
H1728 C1705 0.950 . S
H1729 C1707 0.950 . S
C1730 C1731 1.349 . S
C1730 C1732 1.327 . S
C1730 H1755 0.950 . S
C1731 C1730 1.349 . S
C1731 C1747 1.349 . S
C1732 C1730 1.327 . S
C1732 C1751 1.429 . S
C1732 H1756 0.950 . S
C1733 C1750 1.574 . S
C1733 C1752 1.368 . S
C1733 H1757 0.949 . S
H1734 C1738 0.949 . S
C1735 C1736 1.349 . S
C1735 C1737 1.327 . S
C1735 H1758 0.950 . S
C1736 C1735 1.349 . S
C1736 C1748 1.349 . S
C1737 C1735 1.327 . S
C1737 C1753 1.429 . S
C1737 H1759 0.950 . S
C1738 H1734 0.949 . S
C1738 C1746 1.574 . S
C1738 C1754 1.368 . S
H1739 C1747 0.950 . S
H1740 C1745 0.950 . S
H1741 C1746 0.949 . S
H1742 C1748 0.950 . S
H1743 C1749 0.950 . S
H1744 C1750 0.949 . S
C1745 H1740 0.950 . S
C1745 C1747 1.327 . S
C1745 C1751 1.429 . S
C1746 C1738 1.574 . S
C1746 H1741 0.949 . S
C1746 C1752 1.368 . S
C1747 C1731 1.349 . S
C1747 H1739 0.950 . S
C1747 C1745 1.327 . S
C1748 C1736 1.349 . S
C1748 H1742 0.950 . S
C1748 C1749 1.327 . S
C1749 H1743 0.950 . S
C1749 C1748 1.327 . S
C1749 C1753 1.429 . S
C1750 C1733 1.574 . S
C1750 H1744 0.949 . S
C1750 C1754 1.368 . S
C1751 C1732 1.429 . S
C1751 C1745 1.429 . S
C1751 C1752 1.523 . S
C1752 C1733 1.368 . S
C1752 C1746 1.368 . S
C1752 C1751 1.523 . S
C1753 C1737 1.429 . S
C1753 C1749 1.429 . S
C1753 C1754 1.523 . S
C1754 C1738 1.368 . S
C1754 C1750 1.368 . S
C1754 C1753 1.523 . S
H1755 C1730 0.950 . S
H1756 C1732 0.950 . S
H1757 C1733 0.949 . S
H1758 C1735 0.950 . S
H1759 C1737 0.950 . S
C321 C79 1.283 . S
C326 C9 1.297 . S
C351 C18 1.422 . S
C356 C21 1.441 . S
C381 C48 0.629 . S
C386 C29 0.626 . S
C411 C62 1.099 . S
C416 C42 1.111 . S
C441 C82 1.761 . S
C446 C118 1.751 . S
C471 C109 0.592 . S
C476 C129 0.599 . S
C501 C121 2.009 . S
C506 C158 1.986 . S
C531 C99 1.326 . S
C536 C149 1.336 . S
C561 C181 1.398 . S
C566 C1 1.397 . S
C591 C218 1.346 . S
C596 C38 1.352 . S
C621 C59 1.750 . S
C626 C261 1.769 . S
C651 C168 0.541 . S
C656 C68 0.533 . S
C681 C228 0.597 . S
C686 C88 0.602 . S
C711 C299 1.693 . S
C716 C101 1.716 . S
C741 C138 1.116 . S
C746 C258 1.115 . S
C771 C319 1.689 . S
C776 C141 1.695 . S
C801 C179 1.293 . S
C806 C269 1.307 . S
C831 C198 1.653 . S
C836 C162 1.668 . S
C861 C209 0.532 . S
C866 C189 0.534 . S
C891 C288 1.357 . S
C896 C239 1.340 . S
C921 C249 0.496 . S
C926 C308 0.492 . S
C951 C238 1.283 . S
C956 C8 1.296 . S
C981 C242 1.442 . S
C986 C19 1.424 . S
C1011 C248 0.626 . S
C1016 C49 0.627 . S
C1041 C41 1.114 . S
C1046 C221 1.100 . S
C1071 C199 1.750 . S
C1076 C81 1.760 . S
C1101 C188 0.592 . S
C1106 C128 0.589 . S
C1131 C279 1.990 . S
C1136 C122 2.014 . S
C1161 C98 1.326 . S
C1166 C268 1.342 . S
C1191 C102 1.397 . S
C1196 C2 1.401 . S
C1221 C219 1.346 . S
C1226 C259 1.354 . S
C1251 C58 1.750 . S
C1256 C142 1.763 . S
C1281 C169 0.541 . S
C1286 C229 0.529 . S
C1311 C69 0.597 . S
C1316 C89 0.597 . S
C1341 C182 1.716 . S
C1346 C298 1.693 . S
C1371 C139 1.116 . S
C1376 C39 1.111 . S
C1401 C318 1.689 . S
C1406 C262 1.702 . S
C1431 C178 1.293 . S
C1436 C148 1.301 . S
C1461 C161 1.671 . S
C1466 C119 1.655 . S
C1491 C208 0.532 . S
C1496 C108 0.534 . S
C1521 C78 1.340 . S
C1526 C289 1.357 . S
C1551 C28 0.496 . S
C1556 C309 0.486 . S
C1581 C241 1.115 . S
C1586 C282 1.117 . S
C1611 C222 1.204 . S
C1616 C302 1.225 . S
C1641 C201 1.966 . S
C1646 C278 1.951 . S
C1671 C281 1.117 . S
C1676 C22 1.115 . S
C1701 C61 1.204 . S
C1706 C301 1.223 . S
C1731 C159 1.949 . S
C1736 C202 1.964 . S
