# Generated by pormake.
# Topology sml, (6)-cn, num edge types: 1
# Building blocks:
#     Node 0, Type 0, BuildingBlock: KUMJIN_clean_sbu_0, # of connection points: 6
#     Node 1, Type 0, BuildingBlock: KUMJIN_clean_sbu_0, # of connection points: 6
#     Node 2, Type 0, BuildingBlock: KUMJIN_clean_sbu_0, # of connection points: 6
#     Node 3, Type 0, BuildingBlock: KUMJIN_clean_sbu_0, # of connection points: 6
#     Node 4, Type 0, BuildingBlock: KUMJIN_clean_sbu_0, # of connection points: 6
#     Node 5, Type 0, BuildingBlock: KUMJIN_clean_sbu_0, # of connection points: 6
#     Edge 6, Type (0, 0), BuildingBlock: UVAHIK_clean_linker_0, # of connection points: 2
#     Edge 7, Type (0, 0), BuildingBlock: UVAHIK_clean_linker_0, # of connection points: 2
#     Edge 8, Type (0, 0), BuildingBlock: UVAHIK_clean_linker_0, # of connection points: 2
#     Edge 9, Type (0, 0), BuildingBlock: UVAHIK_clean_linker_0, # of connection points: 2
#     Edge 10, Type (0, 0), BuildingBlock: UVAHIK_clean_linker_0, # of connection points: 2
#     Edge 11, Type (0, 0), BuildingBlock: UVAHIK_clean_linker_0, # of connection points: 2
#     Edge 12, Type (0, 0), BuildingBlock: UVAHIK_clean_linker_0, # of connection points: 2
#     Edge 13, Type (0, 0), BuildingBlock: UVAHIK_clean_linker_0, # of connection points: 2
#     Edge 14, Type (0, 0), BuildingBlock: UVAHIK_clean_linker_0, # of connection points: 2
#     Edge 15, Type (0, 0), BuildingBlock: UVAHIK_clean_linker_0, # of connection points: 2
#     Edge 16, Type (0, 0), BuildingBlock: UVAHIK_clean_linker_0, # of connection points: 2
#     Edge 17, Type (0, 0), BuildingBlock: UVAHIK_clean_linker_0, # of connection points: 2
#     Edge 18, Type (0, 0), BuildingBlock: UVAHIK_clean_linker_0, # of connection points: 2
#     Edge 19, Type (0, 0), BuildingBlock: UVAHIK_clean_linker_0, # of connection points: 2
#     Edge 20, Type (0, 0), BuildingBlock: UVAHIK_clean_linker_0, # of connection points: 2
#     Edge 21, Type (0, 0), BuildingBlock: UVAHIK_clean_linker_0, # of connection points: 2
#     Edge 22, Type (0, 0), BuildingBlock: UVAHIK_clean_linker_0, # of connection points: 2
#     Edge 23, Type (0, 0), BuildingBlock: UVAHIK_clean_linker_0, # of connection points: 2
# Relax obj value: 0.026
# Max RMSD: 0.145
# Mean RMSD: 0.145
data_MOF--net-sml--node1-KUMJIN_clean_sbu_0--edge1-UVAHIK_clean_linker_0
_symmetry_space_group_name_H-M    P1
_symmetry_Int_Tables_number       1
_symmetry_cell_setting            triclinic
loop_
_symmetry_equiv_pos_as_xyz
'x, y, z'
_cell_length_a     44.522701
_cell_length_b     44.512174
_cell_length_c     28.825016
_cell_angle_alpha  90.004958
_cell_angle_beta   90.103125
_cell_angle_gamma 120.04361
loop_
_atom_site_label
_atom_site_type_symbol
_atom_site_fract_x
_atom_site_fract_y
_atom_site_fract_z
_atom_type_partial_charge
Eu0 Eu 0.18647 0.42462 0.96816 0.0
C1 C 0.30613 0.41122 0.06388 0.0
C2 C 0.2855 0.34958 0.06021 0.0
C3 C 0.34746 0.39074 0.05987 0.0
C4 C 0.27894 0.37744 0.06248 0.0
C5 C 0.34073 0.41827 0.06385 0.0
C6 C 0.31988 0.35644 0.05796 0.0
C7 C 0.35927 0.4788 0.07624 0.0
N8 N 0.29869 0.43711 0.06816 0.0
C9 C 0.32451 0.47041 0.07641 0.0
C10 C 0.36746 0.45267 0.06929 0.0
Eu11 Eu 0.23944 0.42149 0.06669 0.0
N12 N 0.24606 0.37178 0.06471 0.0
C13 C 0.21859 0.33872 0.06789 0.0
C14 C 0.25733 0.31567 0.06104 0.0
C15 C 0.22376 0.31024 0.06547 0.0
H16 H 0.31819 0.49064 0.08182 0.0
H17 H 0.20181 0.28412 0.06688 0.0
H18 H 0.32542 0.33539 0.05576 0.0
H19 H 0.37968 0.50537 0.08156 0.0
H20 H 0.19247 0.334 0.07105 0.0
H21 H 0.21191 0.55808 0.96675 0.0
H22 H 0.26125 0.29356 0.05916 0.0
H23 H 0.11131 0.35138 0.95018 0.0
H24 H 0.22665 0.51163 0.96175 0.0
H25 H 0.04852 0.33151 0.94784 0.0
H26 H 0.37388 0.39563 0.05931 0.0
H27 H 0.15081 0.54315 0.97697 0.0
H28 H 0.08783 0.49703 0.98061 0.0
H29 H 0.39439 0.45917 0.06946 0.0
H30 H 0.04322 0.43528 0.97482 0.0
N31 N 0.17463 0.47083 0.97093 0.0
C32 C 0.19989 0.50475 0.96622 0.0
C33 C 0.15715 0.52264 0.97499 0.0
C34 C 0.1311 0.48771 0.97636 0.0
C35 C 0.19164 0.53117 0.96904 0.0
C36 C 0.14079 0.46206 0.97389 0.0
H37 H 0.02832 0.37345 0.9613 0.0
N38 N 0.12614 0.40371 0.9655 0.0
C39 C 0.06713 0.35851 0.9546 0.0
C40 C 0.11571 0.42738 0.97085 0.0
C41 C 0.10265 0.36982 0.95587 0.0
C42 C 0.05583 0.38225 0.96236 0.0
C43 C 0.08023 0.41728 0.96994 0.0
O44 O 0.17283 0.39822 0.90099 0.0
O45 O 0.21849 0.40334 0.99585 0.0
O46 O 0.27664 0.4504 1.00781 0.0
O47 O 0.2434 0.46615 0.96126 0.0
O48 O 0.17564 0.36924 0.95826 0.0
O49 O 0.20678 0.45396 0.90403 0.0
O50 O 0.25599 0.44987 0.13232 0.0
O51 O 0.20813 0.44374 0.03887 0.0
O52 O 0.15032 0.39997 0.02851 0.0
O53 O 0.1814 0.38155 0.07449 0.0
O54 O 0.25279 0.47748 0.07455 0.0
O55 O 0.21851 0.39499 0.13256 0.0
C56 C 0.20274 0.37301 0.97975 0.0
C57 C 0.17129 0.43107 0.83772 0.0
C58 C 0.16369 0.4323 0.75387 0.0
C59 C 0.1811 0.42842 0.79229 0.0
C60 C 0.13631 0.43887 0.76183 0.0
C61 C 0.14403 0.43773 0.8448 0.0
C62 C 0.12662 0.44155 0.807 0.0
C63 C 0.27302 0.46784 0.97305 0.0
C64 C 0.18974 0.4269 0.87731 0.0
C65 C 0.07037 0.44255 0.97491 0.0
C66 C 0.09578 0.47772 0.97821 0.0
C67 C 0.22589 0.4745 0.05337 0.0
C68 C 0.25554 0.41763 0.1975 0.0
C69 C 0.24596 0.42087 0.24282 0.0
C70 C 0.26295 0.41658 0.28141 0.0
C71 C 0.28966 0.40897 0.27375 0.0
C72 C 0.2821 0.40989 0.19071 0.0
C73 C 0.29909 0.40565 0.22868 0.0
C74 C 0.15243 0.38151 0.06305 0.0
C75 C 0.23767 0.42243 0.1577 0.0
H76 H 0.20201 0.42298 0.78697 0.0
H77 H 0.12271 0.44248 0.73313 0.0
H78 H 0.13626 0.44007 0.87941 0.0
H79 H 0.10564 0.44677 0.81274 0.0
H80 H 0.22558 0.42711 0.24795 0.0
H81 H 0.30292 0.40504 0.30261 0.0
H82 H 0.28967 0.40707 0.15619 0.0
H83 H 0.31954 0.39962 0.22317 0.0
Eu84 Eu 0.75925 0.18472 0.29794 0.0
C85 C 0.89401 0.30475 0.39148 0.0
C86 C 0.93503 0.28418 0.38765 0.0
C87 C 0.95586 0.34615 0.38722 0.0
C88 C 0.9006 0.27758 0.39013 0.0
C89 C 0.92158 0.33938 0.39115 0.0
C90 C 0.96257 0.31859 0.38539 0.0
C91 C 0.87955 0.35792 0.40256 0.0
N92 N 0.86067 0.29729 0.39553 0.0
C93 C 0.85315 0.32315 0.40293 0.0
C94 C 0.9139 0.36611 0.39605 0.0
Eu95 Eu 0.81703 0.23801 0.39491 0.0
N96 N 0.87335 0.24467 0.39213 0.0
C97 C 0.87892 0.21719 0.39467 0.0
C98 C 0.94075 0.25602 0.38805 0.0
C99 C 0.91258 0.2224 0.39208 0.0
H100 H 0.82656 0.31685 0.40789 0.0
H101 H 0.91674 0.20045 0.39305 0.0
H102 H 0.98916 0.32416 0.38306 0.0
H103 H 0.87338 0.37835 0.40731 0.0
H104 H 0.85751 0.19102 0.39752 0.0
H105 H 0.64764 0.20438 0.30334 0.0
H106 H 0.96678 0.25998 0.38598 0.0
H107 H 0.76049 0.11135 0.27757 0.0
H108 H 0.70938 0.2217 0.29586 0.0
H109 H 0.71948 0.04817 0.27437 0.0
H110 H 0.97738 0.37258 0.38648 0.0
H111 H 0.60333 0.1424 0.31233 0.0
H112 H 0.58896 0.0801 0.31317 0.0
H113 H 0.93434 0.39306 0.39596 0.0
H114 H 0.60845 0.0375 0.30447 0.0
N115 N 0.70044 0.17029 0.30284 0.0
C116 C 0.69037 0.19459 0.29997 0.0
C117 C 0.63045 0.14989 0.3094 0.0
C118 C 0.64072 0.12488 0.30881 0.0
C119 C 0.65536 0.18488 0.30416 0.0
C120 C 0.67638 0.13605 0.30515 0.0
H121 H 0.65696 0.02535 0.2888 0.0
N122 N 0.72161 0.12398 0.29426 0.0
C123 C 0.7101 0.06585 0.28194 0.0
C124 C 0.68728 0.1121 0.30036 0.0
C125 C 0.73325 0.10163 0.28372 0.0
C126 C 0.67484 0.05307 0.29023 0.0
C127 C 0.66294 0.07629 0.29899 0.0
O128 O 0.77213 0.17349 0.22931 0.0
O129 O 0.81303 0.21721 0.32398 0.0
O130 O 0.82384 0.27445 0.33507 0.0
O131 O 0.77206 0.24098 0.29431 0.0
O132 O 0.80429 0.17496 0.28531 0.0
O133 O 0.74837 0.20544 0.23549 0.0
O134 O 0.80654 0.2552 0.46091 0.0
O135 O 0.76273 0.20626 0.36917 0.0
O136 O 0.74884 0.14847 0.35794 0.0
O137 O 0.79907 0.17993 0.40263 0.0
O138 O 0.77496 0.25167 0.40414 0.0
O139 O 0.82262 0.21674 0.46057 0.0
C140 C 0.82772 0.20198 0.30678 0.0
C141 C 0.7367 0.17194 0.16729 0.0
C142 C 0.72785 0.16555 0.08324 0.0
C143 C 0.74916 0.18243 0.12193 0.0
C144 C 0.69398 0.13787 0.0909 0.0
C145 C 0.70285 0.14439 0.174 0.0
C146 C 0.68166 0.12743 0.13595 0.0
C147 C 0.80071 0.27084 0.30313 0.0
C148 C 0.75921 0.19001 0.20721 0.0
C149 C 0.62753 0.06493 0.30494 0.0
C150 C 0.61644 0.08919 0.30993 0.0
C151 C 0.7504 0.22449 0.3842 0.0
C152 C 0.83785 0.25342 0.52603 0.0
C153 C 0.82529 0.24288 0.57134 0.0
C154 C 0.84685 0.25899 0.61011 0.0
C155 C 0.88112 0.28593 0.60255 0.0
C156 C 0.87211 0.28016 0.51944 0.0
C157 C 0.89358 0.29634 0.55754 0.0
C158 C 0.76999 0.15081 0.39187 0.0
C159 C 0.81502 0.23623 0.48603 0.0
H160 H 0.77522 0.20402 0.11689 0.0
H161 H 0.67709 0.12394 0.06203 0.0
H162 H 0.6928 0.13602 0.20856 0.0
H163 H 0.65558 0.10608 0.14139 0.0
H164 H 0.79891 0.22186 0.57626 0.0
H165 H 0.89825 0.29931 0.63144 0.0
H166 H 0.88226 0.28854 0.48494 0.0
H167 H 0.91996 0.31711 0.55219 0.0
Eu168 Eu 0.57643 0.761 0.63765 0.0
C169 C 0.59126 0.89609 0.72928 0.0
C170 C 0.65271 0.93743 0.72345 0.0
C171 C 0.61121 0.95776 0.72326 0.0
C172 C 0.62508 0.90294 0.72715 0.0
C173 C 0.58393 0.92345 0.72846 0.0
C174 C 0.64554 0.96473 0.72068 0.0
C175 C 0.52363 0.88122 0.74185 0.0
N176 N 0.56561 0.86273 0.73453 0.0
C177 C 0.53228 0.85505 0.74271 0.0
C178 C 0.54952 0.91556 0.73411 0.0
Eu179 Eu 0.58168 0.81945 0.73426 0.0
N180 N 0.63104 0.87593 0.72972 0.0
C181 C 0.66423 0.88183 0.73175 0.0
C182 C 0.6867 0.94345 0.72325 0.0
C183 C 0.69248 0.91554 0.72796 0.0
H184 H 0.51221 0.82847 0.74859 0.0
H185 H 0.71869 0.91995 0.72851 0.0
H186 H 0.6664 0.99135 0.71741 0.0
H187 H 0.49704 0.87491 0.74719 0.0
H188 H 0.66922 0.86061 0.73512 0.0
H189 H 0.44549 0.64838 0.64004 0.0
H190 H 0.70863 0.96953 0.72026 0.0
H191 H 0.65196 0.76344 0.62044 0.0
H192 H 0.48955 0.71036 0.63471 0.0
H193 H 0.67475 0.723 0.61776 0.0
H194 H 0.60609 0.97912 0.72211 0.0
H195 H 0.46361 0.60438 0.64783 0.0
H196 H 0.51194 0.59066 0.64918 0.0
H197 H 0.5428 0.93583 0.73367 0.0
H198 H 0.57432 0.61092 0.64249 0.0
N199 N 0.53234 0.70192 0.64133 0.0
C200 C 0.49789 0.69153 0.63817 0.0
C201 C 0.48311 0.63162 0.64573 0.0
C202 C 0.51849 0.64227 0.64583 0.0
C203 C 0.47278 0.65636 0.64117 0.0
C204 C 0.54279 0.67807 0.64324 0.0
H205 H 0.63513 0.66012 0.62977 0.0
N206 N 0.60016 0.7239 0.63455 0.0
C207 C 0.64745 0.71322 0.62409 0.0
C208 C 0.5778 0.6894 0.63947 0.0
C209 C 0.63446 0.73604 0.62556 0.0
C210 C 0.62501 0.67775 0.631 0.0
C211 C 0.58963 0.66536 0.63824 0.0
O212 O 0.60035 0.77361 0.56891 0.0
O213 O 0.59762 0.81501 0.66295 0.0
O214 O 0.55063 0.82498 0.6752 0.0
O215 O 0.53233 0.77285 0.63527 0.0
O216 O 0.63104 0.80619 0.62435 0.0
O217 O 0.54473 0.75082 0.57536 0.0
O218 O 0.55518 0.80951 0.80107 0.0
O219 O 0.559 0.76517 0.70886 0.0
O220 O 0.60187 0.75051 0.69834 0.0
O221 O 0.62214 0.80191 0.74066 0.0
O222 O 0.52637 0.77674 0.74642 0.0
O223 O 0.60983 0.82609 0.79911 0.0
C224 C 0.62741 0.82973 0.64533 0.0
C225 C 0.5658 0.73887 0.50674 0.0
C226 C 0.56267 0.73035 0.42258 0.0
C227 C 0.56776 0.75162 0.46152 0.0
C228 C 0.5558 0.6962 0.42987 0.0
C229 C 0.55888 0.70478 0.51306 0.0
C230 C 0.55394 0.68361 0.47478 0.0
C231 C 0.53053 0.80114 0.64435 0.0
C232 C 0.57087 0.76132 0.54695 0.0
C233 C 0.56571 0.62978 0.64294 0.0
C234 C 0.5302 0.61825 0.64679 0.0
C235 C 0.52885 0.75245 0.72556 0.0
C236 C 0.58924 0.84161 0.86511 0.0
C237 C 0.58651 0.829 0.91056 0.0
C238 C 0.59231 0.8508 0.94913 0.0
C239 C 0.60073 0.88536 0.94119 0.0
C240 C 0.59781 0.87615 0.85813 0.0
C241 C 0.60345 0.89786 0.89603 0.0
C242 C 0.62143 0.77228 0.73133 0.0
C243 C 0.58313 0.81849 0.82536 0.0
H244 H 0.57276 0.77789 0.45677 0.0
H245 H 0.5523 0.67932 0.40082 0.0
H246 H 0.55726 0.69453 0.5475 0.0
H247 H 0.54872 0.65733 0.47992 0.0
H248 H 0.58032 0.80239 0.91577 0.0
H249 H 0.60478 0.9027 0.96991 0.0
H250 H 0.6001 0.88631 0.82349 0.0
H251 H 0.60989 0.92447 0.8904 0.0
Eu252 Eu 0.81369 0.57457 0.96428 0.0
C253 C 0.69315 0.58782 0.05551 0.0
C254 C 0.71278 0.64923 0.05098 0.0
C255 C 0.65104 0.60721 0.04918 0.0
C256 C 0.71995 0.62181 0.05421 0.0
C257 C 0.65835 0.58013 0.0542 0.0
C258 C 0.67822 0.64171 0.04748 0.0
C259 C 0.64069 0.51984 0.06706 0.0
N260 N 0.70111 0.56235 0.06068 0.0
C261 C 0.67561 0.52883 0.06833 0.0
C262 C 0.63199 0.54555 0.05933 0.0
Eu263 Eu 0.76063 0.57914 0.061 0.0
N264 N 0.75302 0.62814 0.05766 0.0
C265 C 0.78003 0.6614 0.0613 0.0
C266 C 0.74052 0.68338 0.05221 0.0
C267 C 0.77426 0.68947 0.05801 0.0
H268 H 0.68232 0.50891 0.07408 0.0
H269 H 0.79586 0.71578 0.05976 0.0
H270 H 0.67222 0.66241 0.04446 0.0
H271 H 0.62053 0.49314 0.072 0.0
H272 H 0.80626 0.66656 0.06548 0.0
H273 H 0.79244 0.44256 0.9677 0.0
H274 H 0.73613 0.70516 0.04959 0.0
H275 H 0.8876 0.64877 0.94409 0.0
H276 H 0.77583 0.48752 0.96097 0.0
H277 H 0.95061 0.67032 0.94123 0.0
H278 H 0.62447 0.60182 0.04762 0.0
H279 H 0.85418 0.45951 0.97708 0.0
H280 H 0.91668 0.507 0.9788 0.0
H281 H 0.60492 0.53856 0.05854 0.0
H282 H 0.95984 0.56905 0.97089 0.0
N283 N 0.82744 0.52964 0.96843 0.0
C284 C 0.80285 0.49535 0.96511 0.0
C285 C 0.84702 0.47939 0.97436 0.0
C286 C 0.87232 0.51461 0.97432 0.0
C287 C 0.81217 0.46973 0.9689 0.0
C288 C 0.86156 0.53943 0.97094 0.0
H289 H 0.97272 0.63003 0.95565 0.0
N290 N 0.87432 0.59701 0.96061 0.0
C291 C 0.93268 0.64327 0.94864 0.0
C292 C 0.88581 0.57424 0.9666 0.0
C293 C 0.89698 0.63097 0.95023 0.0
C294 C 0.94507 0.62046 0.95693 0.0
C295 C 0.92154 0.58536 0.96542 0.0
O296 O 0.8247 0.59926 0.89603 0.0
O297 O 0.78145 0.59626 0.99007 0.0
O298 O 0.72441 0.55061 1.00046 0.0
O299 O 0.75731 0.53113 0.96126 0.0
O300 O 0.8247 0.62982 0.95291 0.0
O301 O 0.79264 0.5435 0.90141 0.0
O302 O 0.74395 0.55167 0.12716 0.0
O303 O 0.79242 0.55684 0.03546 0.0
O304 O 0.84998 0.60045 0.02442 0.0
O305 O 0.81872 0.6195 0.06881 0.0
O306 O 0.7478 0.5235 0.07147 0.0
O307 O 0.78092 0.60675 0.12652 0.0
C308 C 0.79763 0.62648 0.97376 0.0
C309 C 0.82617 0.56587 0.83349 0.0
C310 C 0.8336 0.5655 0.74943 0.0
C311 C 0.8163 0.56904 0.78819 0.0
C312 C 0.86085 0.55865 0.75697 0.0
C313 C 0.85336 0.55902 0.84008 0.0
C314 C 0.87059 0.55545 0.80196 0.0
C315 C 0.7277 0.53059 0.96914 0.0
C316 C 0.80809 0.57 0.87351 0.0
C317 C 0.93249 0.56098 0.9712 0.0
C318 C 0.90791 0.52565 0.97573 0.0
C319 C 0.77493 0.52643 0.05121 0.0
C320 C 0.74418 0.58437 0.19174 0.0
C321 C 0.75367 0.58108 0.23721 0.0
C322 C 0.73654 0.58522 0.2757 0.0
C323 C 0.70982 0.5928 0.26772 0.0
C324 C 0.71756 0.592 0.18469 0.0
C325 C 0.70049 0.59616 0.22254 0.0
C326 C 0.8478 0.61947 0.05817 0.0
C327 C 0.76207 0.5795 0.15209 0.0
H328 H 0.79549 0.5747 0.78325 0.0
H329 H 0.87436 0.55525 0.72804 0.0
H330 H 0.86123 0.55638 0.87459 0.0
H331 H 0.89151 0.55006 0.80731 0.0
H332 H 0.77405 0.57485 0.24252 0.0
H333 H 0.69644 0.59663 0.29643 0.0
H334 H 0.71 0.59474 0.15003 0.0
H335 H 0.68 0.60213 0.21685 0.0
Eu336 Eu 0.23922 0.81507 0.30089 0.0
C337 C 0.10456 0.69346 0.39318 0.0
C338 C 0.06279 0.71301 0.38842 0.0
C339 C 0.04294 0.65125 0.38838 0.0
C340 C 0.0974 0.72021 0.39134 0.0
C341 C 0.07741 0.65863 0.39278 0.0
C342 C 0.03565 0.6784 0.38612 0.0
C343 C 0.12021 0.64114 0.40477 0.0
N344 N 0.13807 0.70152 0.39765 0.0
C345 C 0.14617 0.67609 0.40519 0.0
C346 C 0.08568 0.63233 0.39798 0.0
Eu347 Eu 0.18103 0.76105 0.39671 0.0
N348 N 0.12427 0.75331 0.39349 0.0
C349 C 0.11813 0.78042 0.39583 0.0
C350 C 0.05648 0.7408 0.38851 0.0
C351 C 0.08427 0.77463 0.39276 0.0
H352 H 0.17288 0.68283 0.41031 0.0
H353 H 0.07966 0.7963 0.39354 0.0
H354 H 0.00892 0.67237 0.38347 0.0
H355 H 0.12684 0.62105 0.4097 0.0
H356 H 0.13924 0.80674 0.39887 0.0
H357 H 0.34949 0.7932 0.30081 0.0
H358 H 0.03029 0.73639 0.38611 0.0
H359 H 0.23882 0.88996 0.29239 0.0
H360 H 0.28796 0.77696 0.29439 0.0
H361 H 0.28036 0.95301 0.29725 0.0
H362 H 0.02173 0.62466 0.38758 0.0
H363 H 0.39443 0.85458 0.31331 0.0
H364 H 0.40962 0.91694 0.3203 0.0
H365 H 0.06558 0.60525 0.39784 0.0
H366 H 0.39089 0.96043 0.31889 0.0
N367 N 0.29771 0.82841 0.30456 0.0
C368 C 0.30726 0.80383 0.29976 0.0
C369 C 0.36742 0.84759 0.31059 0.0
C370 C 0.35764 0.87293 0.31277 0.0
C371 C 0.34215 0.81294 0.30341 0.0
C372 C 0.32211 0.8624 0.30923 0.0
H373 H 0.34281 0.97415 0.30981 0.0
N374 N 0.27738 0.87579 0.30288 0.0
C375 C 0.28949 0.93468 0.30049 0.0
C376 C 0.31165 0.88688 0.30818 0.0
C377 C 0.26607 0.89902 0.29759 0.0
C378 C 0.32472 0.94651 0.30768 0.0
C379 C 0.33628 0.92255 0.31103 0.0
O380 O 0.22818 0.82993 0.23348 0.0
O381 O 0.18522 0.78234 0.32594 0.0
O382 O 0.17428 0.72477 0.33661 0.0
O383 O 0.22563 0.75866 0.29517 0.0
O384 O 0.19442 0.82539 0.28889 0.0
O385 O 0.24932 0.79546 0.23681 0.0
O386 O 0.19244 0.74517 0.46318 0.0
O387 O 0.2352 0.79214 0.37095 0.0
O388 O 0.25088 0.84874 0.36402 0.0
O389 O 0.19819 0.81908 0.40314 0.0
O390 O 0.22309 0.74714 0.40634 0.0
O391 O 0.17553 0.78296 0.46188 0.0
C392 C 0.17071 0.79791 0.30914 0.0
C393 C 0.26249 0.83102 0.17039 0.0
C394 C 0.27124 0.83854 0.08639 0.0
C395 C 0.24997 0.8212 0.12482 0.0
C396 C 0.3053 0.86579 0.09459 0.0
C397 C 0.29645 0.85825 0.17762 0.0
C398 C 0.31771 0.87549 0.13985 0.0
C399 C 0.19723 0.72866 0.30431 0.0
C400 C 0.23975 0.81279 0.20994 0.0
C401 C 0.37158 0.93314 0.31631 0.0
C402 C 0.38224 0.90837 0.31717 0.0
C403 C 0.24759 0.77396 0.38587 0.0
C404 C 0.16138 0.74724 0.52817 0.0
C405 C 0.1748 0.75711 0.57335 0.0
C406 C 0.1538 0.7408 0.61239 0.0
C407 C 0.11912 0.71459 0.60523 0.0
C408 C 0.12677 0.72111 0.52198 0.0
C409 C 0.1058 0.7049 0.56037 0.0
C410 C 0.22885 0.84723 0.39581 0.0
C411 C 0.18377 0.76417 0.48783 0.0
H412 H 0.22353 0.8004 0.11942 0.0
H413 H 0.32257 0.87934 0.066 0.0
H414 H 0.3065 0.86614 0.21238 0.0
H415 H 0.34397 0.89643 0.14567 0.0
H416 H 0.20168 0.77712 0.578 0.0
H417 H 0.10209 0.70186 0.63435 0.0
H418 H 0.11598 0.71326 0.48756 0.0
H419 H 0.07906 0.6848 0.55534 0.0
Eu420 Eu 0.42164 0.23813 0.63348 0.0
C421 C 0.41028 0.10513 0.72216 0.0
C422 C 0.34911 0.06286 0.71566 0.0
C423 C 0.39172 0.04398 0.71271 0.0
C424 C 0.3762 0.09752 0.72038 0.0
C425 C 0.41843 0.07838 0.71959 0.0
C426 C 0.3571 0.03624 0.71068 0.0
C427 C 0.47827 0.12116 0.73526 0.0
N428 N 0.43535 0.13852 0.72929 0.0
C429 C 0.46883 0.14672 0.7378 0.0
C430 C 0.45303 0.08689 0.72546 0.0
Eu431 Eu 0.41791 0.18076 0.73051 0.0
N432 N 0.36942 0.12385 0.72551 0.0
C433 C 0.33603 0.11701 0.72974 0.0
C434 C 0.31482 0.05592 0.71734 0.0
C435 C 0.30827 0.08306 0.72522 0.0
H436 H 0.4884 0.17329 0.74505 0.0
H437 H 0.28184 0.0779 0.72747 0.0
H438 H 0.33667 0.00951 0.70649 0.0
H439 H 0.50498 0.12791 0.7408 0.0
H440 H 0.33054 0.13773 0.73538 0.0
H441 H 0.55203 0.35159 0.63712 0.0
H442 H 0.29327 0.02967 0.71372 0.0
H443 H 0.34618 0.23516 0.61284 0.0
H444 H 0.50839 0.28949 0.63076 0.0
H445 H 0.3229 0.27515 0.60919 0.0
H446 H 0.39747 0.02309 0.71013 0.0
H447 H 0.53331 0.3951 0.64557 0.0
H448 H 0.48455 0.40821 0.64645 0.0
H449 H 0.46037 0.06709 0.72371 0.0
H450 H 0.42214 0.38745 0.63811 0.0
N451 N 0.46529 0.2974 0.63753 0.0
C452 C 0.49981 0.30812 0.63449 0.0
C453 C 0.51401 0.36781 0.64301 0.0
C454 C 0.47856 0.35685 0.64268 0.0
C455 C 0.52467 0.34335 0.63807 0.0
C456 C 0.45454 0.32099 0.63952 0.0
H457 H 0.36178 0.33798 0.62299 0.0
N458 N 0.39754 0.27488 0.62914 0.0
C459 C 0.35011 0.28511 0.61667 0.0
C460 C 0.41953 0.30938 0.63488 0.0
C461 C 0.36338 0.26253 0.61871 0.0
C462 C 0.37211 0.32054 0.62461 0.0
C463 C 0.4074 0.33317 0.63325 0.0
O464 O 0.39747 0.22427 0.56481 0.0
O465 O 0.40086 0.18446 0.6596 0.0
O466 O 0.4477 0.17455 0.67076 0.0
O467 O 0.4661 0.22677 0.63135 0.0
O468 O 0.36686 0.19277 0.62147 0.0
O469 O 0.45321 0.24826 0.57124 0.0
O470 O 0.44487 0.19095 0.79713 0.0
O471 O 0.43957 0.23482 0.70484 0.0
O472 O 0.39557 0.24807 0.69356 0.0
O473 O 0.37704 0.19773 0.73783 0.0
O474 O 0.47305 0.22433 0.74219 0.0
O475 O 0.38983 0.17283 0.79558 0.0
C476 C 0.37072 0.16956 0.64295 0.0
C477 C 0.4313 0.25915 0.50254 0.0
C478 C 0.43407 0.26743 0.41838 0.0
C479 C 0.42963 0.24643 0.45737 0.0
C480 C 0.43996 0.30125 0.42557 0.0
C481 C 0.43728 0.29294 0.50877 0.0
C482 C 0.44154 0.31382 0.47044 0.0
C483 C 0.46777 0.19838 0.64008 0.0
C484 C 0.42691 0.23703 0.54283 0.0
C485 C 0.43098 0.36878 0.63878 0.0
C486 C 0.46652 0.3806 0.64357 0.0
C487 C 0.46987 0.24819 0.72129 0.0
C488 C 0.41161 0.15787 0.86095 0.0
C489 C 0.41389 0.17004 0.90657 0.0
C490 C 0.40884 0.14825 0.94483 0.0
C491 C 0.40163 0.1141 0.93641 0.0
C492 C 0.40426 0.12374 0.85345 0.0
C493 C 0.39935 0.10203 0.89106 0.0
C494 C 0.37675 0.22669 0.72724 0.0
C495 C 0.41686 0.18101 0.8216 0.0
H496 H 0.42538 0.22042 0.4527 0.0
H497 H 0.44292 0.3179 0.39648 0.0
H498 H 0.4387 0.30317 0.54319 0.0
H499 H 0.44602 0.33985 0.47551 0.0
H500 H 0.41912 0.19632 0.91214 0.0
H501 H 0.39816 0.09679 0.96488 0.0
H502 H 0.40233 0.11392 0.81862 0.0
H503 H 0.39384 0.07574 0.88505 0.0
C504 C 0.33965 0.21946 0.7972 0.0
C505 C 0.3555 0.23682 0.75573 0.0
C506 C 0.32231 0.23151 0.82561 0.0
C507 C 0.31726 0.31173 0.84504 0.0
H508 H 0.23619 0.25156 0.91825 0.0
C509 C 0.25646 0.37153 0.95912 0.0
C510 C 0.22028 0.35411 0.96388 0.0
C511 C 0.27303 0.35479 0.94054 0.0
C512 C 0.25861 0.26875 0.89766 0.0
H513 H 0.36473 0.2801 0.71169 0.0
H514 H 0.33272 0.2991 0.75829 0.0
H515 H 0.26324 0.22639 0.87054 0.0
H516 H 0.17281 0.30576 0.95102 0.0
H517 H 0.20143 0.27697 0.91517 0.0
H518 H 0.31161 0.35376 0.8688 0.0
C519 C 0.33468 0.2771 0.77031 0.0
C520 C 0.27446 0.25431 0.87077 0.0
C521 C 0.3526 0.26567 0.74279 0.0
C522 C 0.20085 0.3196 0.94859 0.0
C523 C 0.21737 0.30304 0.92845 0.0
C524 C 0.30109 0.326 0.87089 0.0
C525 C 0.32008 0.26087 0.81278 0.0
C526 C 0.30378 0.27564 0.8436 0.0
C527 C 0.25375 0.32064 0.92349 0.0
C528 C 0.27146 0.30483 0.89758 0.0
H529 H 0.34152 0.19725 0.80849 0.0
H530 H 0.3116 0.21842 0.85818 0.0
H531 H 0.34034 0.32925 0.82578 0.0
H532 H 0.27218 0.39835 0.96925 0.0
H533 H 0.30108 0.36909 0.93883 0.0
C534 C 0.08965 0.35951 0.07871 0.0
C535 C 0.12068 0.36058 0.0911 0.0
C536 C 0.05979 0.3411 0.10515 0.0
C537 C 0.01957 0.27648 0.20083 0.0
H538 H 0.95791 0.31429 0.20067 0.0
C539 C 0.88286 0.25614 0.28703 0.0
C540 C 0.86418 0.2199 0.29084 0.0
C541 C 0.91639 0.27318 0.26918 0.0
C542 C 0.97493 0.30351 0.20233 0.0
H543 H 0.14456 0.34324 0.14216 0.0
H544 H 0.09268 0.31264 0.19028 0.0
H545 H 0.01218 0.34451 0.16045 0.0
H546 H 0.8653 0.17277 0.27649 0.0
H547 H 0.92305 0.20224 0.24161 0.0
H548 H 0.98287 0.23654 0.24551 0.0
C549 C 0.09117 0.32501 0.15873 0.0
C550 C 0.00601 0.32058 0.17797 0.0
C551 C 0.12105 0.34279 0.13127 0.0
C552 C 0.87945 0.20086 0.27487 0.0
C553 C 0.91274 0.21787 0.25531 0.0
C554 C 0.98867 0.25976 0.22642 0.0
C555 C 0.06018 0.32425 0.14619 0.0
C556 C 0.02844 0.30695 0.17576 0.0
C557 C 0.93156 0.25436 0.25168 0.0
C558 C 0.96563 0.2728 0.22699 0.0
H559 H 0.08829 0.37336 0.04885 0.0
H560 H 0.03638 0.34042 0.09325 0.0
H561 H 0.03606 0.26506 0.19996 0.0
H562 H 0.87165 0.27162 0.29758 0.0
H563 H 0.93008 0.30125 0.26863 0.0
C564 C 0.73014 0.08775 0.40782 0.0
C565 C 0.75958 0.11925 0.42031 0.0
C566 C 0.71875 0.05822 0.43509 0.0
C567 C 0.74304 0.01998 0.53356 0.0
H568 H 0.64365 0.9573 0.5334 0.0
C569 C 0.67975 0.88123 0.61197 0.0
C570 C 0.64554 0.86597 0.62834 0.0
C571 C 0.69564 0.91413 0.59126 0.0
C572 C 0.67142 0.97463 0.53495 0.0
H573 H 0.80012 0.14421 0.47215 0.0
H574 H 0.77911 0.09291 0.52139 0.0
H575 H 0.66742 0.01076 0.49079 0.0
H576 H 0.60104 0.87303 0.63476 0.0
H577 H 0.62918 0.93091 0.60312 0.0
H578 H 0.74658 0.98439 0.58018 0.0
C579 C 0.76549 0.09079 0.48932 0.0
C580 C 0.68526 0.00522 0.50932 0.0
C581 C 0.77745 0.12035 0.46118 0.0
C582 C 0.62768 0.8843 0.62381 0.0
C583 C 0.64377 0.91745 0.60454 0.0
C584 C 0.72905 0.98956 0.56022 0.0
C585 C 0.73565 0.05938 0.47686 0.0
C586 C 0.72131 0.02802 0.50728 0.0
C587 C 0.67768 0.93258 0.58671 0.0
C588 C 0.693 0.96617 0.5608 0.0
H589 H 0.71528 0.08577 0.37724 0.0
H590 H 0.69634 0.03445 0.42329 0.0
H591 H 0.77093 0.03674 0.53286 0.0
H592 H 0.6939 0.86734 0.61418 0.0
H593 H 0.72151 0.9244 0.57735 0.0
C594 C 0.6441 0.73214 0.74957 0.0
C595 C 0.64298 0.76246 0.75993 0.0
C596 C 0.66369 0.72223 0.77665 0.0
C597 C 0.69029 0.71716 0.88908 0.0
H598 H 0.76923 0.71529 0.83539 0.0
C599 C 0.80201 0.68157 0.94572 0.0
C600 C 0.78122 0.64654 0.95816 0.0
C601 C 0.78707 0.69985 0.92632 0.0
C602 C 0.74749 0.71605 0.85099 0.0
H603 H 0.66102 0.80558 0.80824 0.0
H604 H 0.69428 0.78722 0.85676 0.0
H605 H 0.73954 0.73982 0.79101 0.0
H606 H 0.72866 0.60291 0.95833 0.0
H607 H 0.70243 0.6352 0.92649 0.0
H608 H 0.69701 0.69151 0.94803 0.0
C609 C 0.68048 0.77181 0.82672 0.0
C610 C 0.73054 0.72995 0.82562 0.0
C611 C 0.6615 0.78227 0.79886 0.0
C612 C 0.74523 0.63015 0.95074 0.0
C613 C 0.73021 0.64859 0.93229 0.0
C614 C 0.7068 0.70253 0.91411 0.0
C615 C 0.68183 0.74184 0.81554 0.0
C616 C 0.70169 0.73037 0.84433 0.0
C617 C 0.75104 0.68345 0.9193 0.0
C618 C 0.73537 0.70161 0.89506 0.0
H619 H 0.62955 0.71567 0.72083 0.0
H620 H 0.66413 0.6988 0.76774 0.0
H621 H 0.66787 0.717 0.9039 0.0
H622 H 0.8299 0.69461 0.95029 0.0
H623 H 0.80367 0.72668 0.91628 0.0
C624 C 0.11944 0.79948 0.27582 0.0
C625 C 0.13438 0.78022 0.29225 0.0
C626 C 0.08639 0.78273 0.25529 0.0
C627 C 0.01062 0.74109 0.22451 0.0
H628 H 0.98812 0.65732 0.15651 0.0
C629 C 0.8788 0.65807 0.12693 0.0
C630 C 0.87953 0.64082 0.08638 0.0
C631 C 0.90858 0.67593 0.15476 0.0
C632 C 0.99401 0.68096 0.17463 0.0
H633 H 0.12644 0.72832 0.29907 0.0
H634 H 0.06844 0.69913 0.26802 0.0
H635 H 0.04191 0.6871 0.19844 0.0
H636 H 0.91258 0.62938 0.04361 0.0
H637 H 0.96424 0.66224 0.08896 0.0
H638 H 0.96336 0.73588 0.19732 0.0
C639 C 0.08225 0.7272 0.26909 0.0
C640 C 0.02481 0.69778 0.19989 0.0
C641 C 0.11552 0.74398 0.28807 0.0
C642 C 0.91087 0.64266 0.0739 0.0
C643 C 0.94062 0.66107 0.1008 0.0
C644 C 0.97996 0.72458 0.19818 0.0
C645 C 0.06747 0.74626 0.25106 0.0
C646 C 0.03374 0.72813 0.22529 0.0
C647 C 0.93984 0.67729 0.14228 0.0
C648 C 0.97144 0.69445 0.17241 0.0
H649 H 0.13369 0.82756 0.27779 0.0
H650 H 0.07636 0.79852 0.24129 0.0
H651 H 0.01617 0.76406 0.24408 0.0
H652 H 0.85505 0.65704 0.13789 0.0
H653 H 0.90678 0.68782 0.1866 0.0
C654 C 0.31671 0.11597 0.61767 0.0
C655 C 0.35259 0.13332 0.62631 0.0
C656 C 0.30019 0.08298 0.59713 0.0
C657 C 0.31763 0.03426 0.51325 0.0
H658 H 0.23967 0.95018 0.56195 0.0
C659 C 0.2754 0.90356 0.42731 0.0
C660 C 0.23998 0.87852 0.4248 0.0
C661 C 0.28675 0.93351 0.45376 0.0
C662 C 0.26106 0.97354 0.54749 0.0
H663 H 0.39942 0.13023 0.61905 0.0
H664 H 0.37079 0.07312 0.58286 0.0
H665 H 0.26345 0.00444 0.60636 0.0
H666 H 0.18867 0.86507 0.44883 0.0
H667 H 0.20845 0.91829 0.49429 0.0
H668 H 0.31512 0.00443 0.45401 0.0
C669 C 0.35532 0.08461 0.59294 0.0
C670 C 0.27471 0.00448 0.57306 0.0
C671 C 0.37166 0.11721 0.61399 0.0
C672 C 0.21613 0.88395 0.45002 0.0
C673 C 0.22752 0.91436 0.47624 0.0
C674 C 0.30374 0.00369 0.48746 0.0
C675 C 0.31957 0.06743 0.5837 0.0
C676 C 0.30351 0.03489 0.55642 0.0
C677 C 0.26301 0.93969 0.47806 0.0
C678 C 0.27573 0.97268 0.50457 0.0
H679 H 0.3016 0.12814 0.62629 0.0
H680 H 0.27263 0.0703 0.58994 0.0
H681 H 0.33947 0.05757 0.49933 0.0
H682 H 0.29464 0.89996 0.40912 0.0
H683 H 0.31436 0.95175 0.45532 0.0
C684 C 0.14883 0.41257 0.67104 0.0
C685 C 0.1741 0.42983 0.70559 0.0
C686 C 0.15852 0.4112 0.62534 0.0
C687 C 0.23174 0.42062 0.55398 0.0
H688 H 0.18164 0.43417 0.45355 0.0
C689 C 0.27816 0.43678 0.364 0.0
C690 C 0.25276 0.41963 0.32957 0.0
C691 C 0.26864 0.43858 0.40966 0.0
C692 C 0.19566 0.42995 0.48114 0.0
H693 H 0.22946 0.45921 0.71901 0.0
H694 H 0.24638 0.45678 0.63924 0.0
H695 H 0.16496 0.4357 0.53365 0.0
H696 H 0.19738 0.39093 0.31626 0.0
H697 H 0.18074 0.39399 0.39597 0.0
H698 H 0.26239 0.4148 0.5015 0.0
C699 C 0.21903 0.44393 0.64765 0.0
C700 C 0.18609 0.43083 0.52709 0.0
C701 C 0.20933 0.44531 0.69341 0.0
C702 C 0.2176 0.40472 0.34179 0.0
C703 C 0.20807 0.40648 0.38751 0.0
C704 C 0.24129 0.41973 0.50803 0.0
C705 C 0.19374 0.42704 0.61299 0.0
C706 C 0.20399 0.42614 0.56409 0.0
C707 C 0.23348 0.42323 0.42209 0.0
C708 C 0.22337 0.42438 0.47101 0.0
H709 H 0.12147 0.39984 0.67939 0.0
H710 H 0.13837 0.39742 0.59972 0.0
H711 H 0.24575 0.41641 0.58158 0.0
H712 H 0.30549 0.44905 0.35558 0.0
H713 H 0.2889 0.45225 0.43518 0.0
C714 C 0.71882 0.17781 1.00072 0.0
C715 C 0.7407 0.17653 0.03497 0.0
C716 C 0.73032 0.1869 0.95502 0.0
C717 C 0.80992 0.23031 0.8831 0.0
H718 H 0.74656 0.17978 0.78249 0.0
C719 C 0.85547 0.24614 0.69255 0.0
C720 C 0.83387 0.24801 0.65835 0.0
C721 C 0.84393 0.23713 0.73824 0.0
C722 C 0.76448 0.19441 0.81014 0.0
H723 H 0.79198 0.18393 0.04777 0.0
H724 H 0.81205 0.19975 0.96802 0.0
H725 H 0.72718 0.16518 0.8626 0.0
H726 H 0.78299 0.24168 0.64572 0.0
H727 H 0.76278 0.22582 0.72543 0.0
H728 H 0.84724 0.25947 0.83061 0.0
C729 C 0.78608 0.19413 0.97666 0.0
C730 C 0.75336 0.18605 0.85614 0.0
C731 C 0.77458 0.18506 0.02244 0.0
C732 C 0.80018 0.24008 0.67096 0.0
C733 C 0.78859 0.23101 0.71672 0.0
C734 C 0.82105 0.23863 0.8371 0.0
C735 C 0.76402 0.19496 0.94227 0.0
C736 C 0.77593 0.2039 0.89325 0.0
C737 C 0.81042 0.22966 0.75102 0.0
C738 C 0.79848 0.22079 0.80001 0.0
H739 H 0.69279 0.17202 1.0093 0.0
H740 H 0.71283 0.18792 0.92973 0.0
H741 H 0.82784 0.24497 0.91072 0.0
H742 H 0.88134 0.25141 0.68395 0.0
H743 H 0.8612 0.2357 0.7635 0.0
C744 C 0.54111 0.72204 0.34017 0.0
C745 C 0.56464 0.74351 0.37443 0.0
C746 C 0.5437 0.73371 0.2945 0.0
C747 C 0.58178 0.81351 0.22249 0.0
H748 H 0.56728 0.74966 0.122 0.0
C749 C 0.61313 0.85899 0.03193 0.0
C750 C 0.58957 0.83775 0.99753 0.0
C751 C 0.61001 0.84735 0.0777 0.0
C752 C 0.57103 0.76773 0.14961 0.0
H753 H 0.60932 0.79431 0.38727 0.0
H754 H 0.61391 0.81469 0.30759 0.0
H755 H 0.5618 0.73007 0.20212 0.0
H756 H 0.54418 0.78744 0.98466 0.0
H757 H 0.5388 0.76708 0.06448 0.0
H758 H 0.59112 0.85119 0.16994 0.0
C759 C 0.59313 0.7889 0.31619 0.0
C760 C 0.56787 0.75649 0.19562 0.0
C761 C 0.5905 0.77722 0.36195 0.0
C762 C 0.56306 0.80434 1.01005 0.0
C763 C 0.55996 0.79267 0.05588 0.0
C764 C 0.58498 0.82476 0.17647 0.0
C765 C 0.56992 0.7672 0.28177 0.0
C766 C 0.5732 0.77922 0.23271 0.0
C767 C 0.58327 0.81412 0.09037 0.0
C768 C 0.57968 0.80203 0.13941 0.0
H769 H 0.52046 0.69616 0.3487 0.0
H770 H 0.52494 0.71652 0.26921 0.0
H771 H 0.58554 0.8316 0.25008 0.0
H772 H 0.63427 0.88462 0.02343 0.0
H773 H 0.62883 0.86433 0.1031 0.0
C774 C 0.78814 0.55364 0.68869 0.0
C775 C 0.82331 0.56869 0.70122 0.0
C776 C 0.7786 0.55549 0.6429 0.0
C777 C 0.81207 0.56938 0.5225 0.0
H778 H 0.73586 0.5855 0.49637 0.0
C779 C 0.78156 0.59654 0.33681 0.0
C780 C 0.74648 0.58193 0.32406 0.0
C781 C 0.79083 0.59452 0.38268 0.0
C782 C 0.75694 0.58055 0.50301 0.0
H783 H 0.87601 0.59857 0.67554 0.0
H784 H 0.85943 0.60183 0.59592 0.0
H785 H 0.75203 0.58321 0.5766 0.0
H786 H 0.69364 0.55275 0.34943 0.0
H787 H 0.70976 0.54909 0.42919 0.0
H788 H 0.81697 0.56667 0.44895 0.0
C789 C 0.83916 0.58796 0.62125 0.0
C790 C 0.76623 0.57926 0.54908 0.0
C791 C 0.84868 0.58612 0.66696 0.0
C792 C 0.72092 0.56482 0.35818 0.0
C793 C 0.73017 0.56277 0.40399 0.0
C794 C 0.80277 0.57064 0.47644 0.0
C795 C 0.804 0.57245 0.6085 0.0
C796 C 0.79396 0.57371 0.55944 0.0
C797 C 0.76526 0.57779 0.41695 0.0
C798 C 0.77509 0.57627 0.46606 0.0
H799 H 0.76791 0.53966 0.71403 0.0
H800 H 0.75128 0.54291 0.63424 0.0
H801 H 0.83318 0.56447 0.52916 0.0
H802 H 0.80193 0.61029 0.31158 0.0
H803 H 0.81811 0.60679 0.39148 0.0
C804 C 0.18888 0.7861 0.6727 0.0
C805 C 0.16766 0.751 0.66051 0.0
C806 C 0.20046 0.79559 0.71848 0.0
C807 C 0.18006 0.76245 0.83933 0.0
H808 H 0.27291 0.83794 0.86539 0.0
C809 C 0.23775 0.79322 0.02532 0.0
C810 C 0.25823 0.82836 0.03788 0.0
C811 C 0.22656 0.78377 0.97941 0.0
C812 C 0.24675 0.81704 0.85876 0.0
H813 H 0.14311 0.69831 0.68673 0.0
H814 H 0.16341 0.71478 0.76622 0.0
H815 H 0.25439 0.82164 0.78518 0.0
H816 H 0.28201 0.88111 1.01195 0.0
H817 H 0.26254 0.86466 0.93215 0.0
H818 H 0.17244 0.75781 0.9129 0.0
C819 C 0.17049 0.73509 0.74072 0.0
C820 C 0.23612 0.80768 0.81268 0.0
C821 C 0.15888 0.72563 0.69505 0.0
C822 C 0.26683 0.85378 1.00343 0.0
C823 C 0.25567 0.84434 0.95758 0.0
C824 C 0.1907 0.77177 0.88539 0.0
C825 C 0.19118 0.77021 0.7532 0.0
C826 C 0.20262 0.78024 0.80231 0.0
C827 C 0.23555 0.80921 0.94486 0.0
C828 C 0.22419 0.79921 0.89575 0.0
H829 H 0.19581 0.80634 0.64713 0.0
H830 H 0.216 0.82291 0.72686 0.0
H831 H 0.15387 0.74159 0.83275 0.0
H832 H 0.231 0.77293 0.05075 0.0
H833 H 0.21147 0.75645 0.97081 0.0
C834 C 0.45569 0.27616 0.33612 0.0
C835 C 0.43249 0.25433 0.37028 0.0
C836 C 0.45344 0.26451 0.29049 0.0
C837 C 0.41756 0.18474 0.2185 0.0
H838 H 0.43005 0.24784 0.11795 0.0
C839 C 0.38794 0.13905 0.02755 0.0
C840 C 0.41113 0.1609 0.99338 0.0
C841 C 0.39056 0.15047 0.07338 0.0
C842 C 0.42688 0.22999 0.14557 0.0
H843 H 0.38878 0.20293 0.38301 0.0
H844 H 0.38481 0.18258 0.30337 0.0
H845 H 0.43477 0.26729 0.19805 0.0
H846 H 0.45541 0.21204 0.98103 0.0
H847 H 0.45993 0.23199 0.06094 0.0
H848 H 0.40959 0.14742 0.16597 0.0
C849 C 0.40505 0.20865 0.31203 0.0
C850 C 0.4296 0.24116 0.19158 0.0
C851 C 0.40733 0.22031 0.35775 0.0
C852 C 0.4368 0.19465 1.00623 0.0
C853 C 0.43941 0.2061 0.05211 0.0
C854 C 0.41481 0.17356 0.17248 0.0
C855 C 0.42792 0.23069 0.27771 0.0
C856 C 0.425 0.2187 0.22868 0.0
C857 C 0.41642 0.18409 0.08635 0.0
C858 C 0.41943 0.19604 0.13539 0.0
H859 H 0.47581 0.3023 0.3447 0.0
H860 H 0.47194 0.28199 0.26527 0.0
H861 H 0.41438 0.16689 0.24611 0.0
H862 H 0.36745 0.11312 0.01879 0.0
H863 H 0.37201 0.13303 0.09859 0.0
C864 C 0.17777 0.48381 0.08105 0.0
C865 C 0.21222 0.49738 0.06618 0.0
C866 C 0.16697 0.50574 0.10038 0.0
C867 C 0.19085 0.59774 0.11196 0.0
H868 H 0.15508 0.5742 0.23739 0.0
C869 C 0.21764 0.70202 0.24516 0.0
C870 C 0.1916 0.69837 0.27606 0.0
C871 C 0.21249 0.67487 0.21612 0.0
C872 C 0.16431 0.58086 0.20207 0.0
H873 H 0.26213 0.54406 0.05901 0.0
H874 H 0.24325 0.58243 0.09163 0.0
H875 H 0.15877 0.53084 0.18919 0.0
H876 H 0.13965 0.66274 0.30082 0.0
H877 H 0.13087 0.61464 0.25006 0.0
H878 H 0.19767 0.64805 0.12516 0.0
C879 C 0.22446 0.55506 0.08817 0.0
C880 C 0.1664 0.55604 0.17446 0.0
C881 C 0.23534 0.53315 0.06968 0.0
C882 C 0.16035 0.66638 0.2777 0.0
C883 C 0.15526 0.6389 0.24855 0.0
C884 C 0.18864 0.6224 0.13937 0.0
C885 C 0.19041 0.54154 0.10467 0.0
C886 C 0.181 0.56475 0.12982 0.0
C887 C 0.18118 0.64312 0.21697 0.0
C888 C 0.17675 0.61474 0.18541 0.0
H889 H 0.15965 0.45618 0.07956 0.0
H890 H 0.1406 0.49468 0.11286 0.0
H891 H 0.20169 0.60495 0.07742 0.0
H892 H 0.24221 0.72603 0.24297 0.0
H893 H 0.23335 0.67873 0.19313 0.0
C894 C 0.70357 0.23661 0.4024 0.0
C895 C 0.71425 0.21204 0.39775 0.0
C896 C 0.67316 0.22833 0.42599 0.0
C897 C 0.59142 0.16207 0.4756 0.0
H898 H 0.61463 0.23267 0.56989 0.0
C899 C 0.49367 0.16232 0.61283 0.0
C900 C 0.4945 0.19433 0.61489 0.0
C901 C 0.51888 0.15917 0.58749 0.0
C902 C 0.6077 0.21271 0.54382 0.0
H903 H 0.70074 0.15887 0.41152 0.0
H904 H 0.64688 0.1442 0.45324 0.0
H905 H 0.65979 0.23602 0.51923 0.0
H906 H 0.52244 0.24798 0.59178 0.0
H907 H 0.56583 0.24247 0.54841 0.0
H908 H 0.53881 0.13941 0.49985 0.0
C909 C 0.66208 0.16978 0.43818 0.0
C910 C 0.63352 0.21466 0.51476 0.0
C911 C 0.69274 0.17812 0.41428 0.0
C912 C 0.52093 0.22294 0.59123 0.0
C913 C 0.54602 0.21986 0.56645 0.0
C914 C 0.5653 0.16016 0.50485 0.0
C915 C 0.653 0.19541 0.44601 0.0
C916 C 0.62552 0.19006 0.47944 0.0
C917 C 0.54546 0.18808 0.56441 0.0
C918 C 0.57312 0.18615 0.53826 0.0
H919 H 0.71977 0.26289 0.38988 0.0
H920 H 0.66638 0.24835 0.43084 0.0
H921 H 0.58472 0.14268 0.44878 0.0
H922 H 0.4734 0.13969 0.63026 0.0
H923 H 0.51788 0.13436 0.58644 0.0
C924 C 0.29961 0.48524 0.89523 0.0
C925 C 0.30312 0.48944 0.94348 0.0
C926 C 0.32667 0.50729 0.86597 0.0
C927 C 0.41983 0.57876 0.86437 0.0
H928 H 0.38933 0.60533 0.75363 0.0
C929 C 0.51632 0.69296 0.74884 0.0
C930 C 0.50457 0.71583 0.73633 0.0
C931 C 0.49306 0.66012 0.76692 0.0
C932 C 0.39837 0.59827 0.7844 0.0
H933 H 0.33765 0.51918 0.99944 0.0
H934 H 0.3846 0.55909 0.94849 0.0
H935 H 0.34712 0.5588 0.8016 0.0
H936 H 0.45986 0.72267 0.73237 0.0
H937 H 0.41953 0.66607 0.76416 0.0
H938 H 0.47087 0.62034 0.84862 0.0
C939 C 0.36146 0.53807 0.93292 0.0
C940 C 0.37413 0.57108 0.81176 0.0
C941 C 0.33454 0.51536 0.96227 0.0
C942 C 0.46934 0.7052 0.74112 0.0
C943 C 0.44622 0.67262 0.7591 0.0
C944 C 0.44409 0.60638 0.83723 0.0
C945 C 0.35761 0.53479 0.88425 0.0
C946 C 0.38433 0.56136 0.85274 0.0
C947 C 0.45781 0.64986 0.77314 0.0
C948 C 0.43346 0.61708 0.79759 0.0
H949 H 0.2757 0.46498 0.88005 0.0
H950 H 0.32297 0.50309 0.82891 0.0
H951 H 0.42887 0.57164 0.89506 0.0
H952 H 0.54357 0.70092 0.74632 0.0
H953 H 0.5028 0.64313 0.77701 0.0
C954 C 0.83806 0.33289 0.27621 0.0
C955 C 0.80644 0.30123 0.27509 0.0
C956 C 0.84332 0.36042 0.24706 0.0
C957 C 0.80964 0.37711 0.13826 0.0
H958 H 0.84162 0.46939 0.18717 0.0
C959 C 0.76488 0.46763 0.06763 0.0
C960 C 0.78832 0.5033 0.06399 0.0
C961 C 0.77542 0.44549 0.08628 0.0
C962 C 0.83341 0.44397 0.17268 0.0
H963 H 0.75533 0.27423 0.24303 0.0
H964 H 0.7645 0.3216 0.19305 0.0
H965 H 0.84464 0.4258 0.23575 0.0
H966 H 0.84115 0.54411 0.07714 0.0
H967 H 0.85963 0.50517 0.11078 0.0
H968 H 0.79678 0.39461 0.07615 0.0
C969 C 0.7855 0.32516 0.21568 0.0
C970 C 0.83509 0.41902 0.20051 0.0
C971 C 0.78018 0.29797 0.24476 0.0
C972 C 0.82278 0.51654 0.0788 0.0
C973 C 0.83325 0.49436 0.09832 0.0
C974 C 0.80788 0.40192 0.11061 0.0
C975 C 0.81719 0.35655 0.21596 0.0
C976 C 0.82189 0.38492 0.18419 0.0
C977 C 0.80946 0.45866 0.1028 0.0
C978 C 0.81849 0.43519 0.12813 0.0
H979 H 0.85893 0.33622 0.29887 0.0
H980 H 0.868 0.38439 0.24813 0.0
H981 H 0.80002 0.35127 0.12431 0.0
H982 H 0.73808 0.45697 0.05699 0.0
H983 H 0.75635 0.41821 0.08988 0.0
C984 C 0.29464 0.7618 0.40305 0.0
C985 C 0.28392 0.78637 0.3988 0.0
C986 C 0.3251 0.76998 0.42666 0.0
C987 C 0.40668 0.83643 0.47792 0.0
H988 H 0.38349 0.76526 0.57118 0.0
C989 C 0.50401 0.83679 0.61718 0.0
C990 C 0.50361 0.80498 0.6191 0.0
C991 C 0.47877 0.83972 0.59137 0.0
C992 C 0.39044 0.78538 0.54538 0.0
H993 H 0.29748 0.83945 0.41345 0.0
H994 H 0.35138 0.85396 0.45494 0.0
H995 H 0.33857 0.76154 0.51949 0.0
H996 H 0.47627 0.75144 0.59529 0.0
H997 H 0.43293 0.75655 0.55122 0.0
H998 H 0.45907 0.85965 0.50353 0.0
C999 C 0.3362 0.82845 0.43955 0.0
C1000 C 0.36474 0.7832 0.51569 0.0
C1001 C 0.30549 0.82021 0.4157 0.0
C1002 C 0.4775 0.77634 0.59493 0.0
C1003 C 0.4524 0.77919 0.56969 0.0
C1004 C 0.43269 0.83855 0.50776 0.0
C1005 C 0.3453 0.80281 0.44709 0.0
C1006 C 0.37272 0.80804 0.48076 0.0
C1007 C 0.45256 0.81076 0.56768 0.0
C1008 C 0.4249 0.8124 0.54086 0.0
H1009 H 0.27837 0.73556 0.39034 0.0
H1010 H 0.33187 0.74993 0.43128 0.0
H1011 H 0.41337 0.85604 0.45146 0.0
H1012 H 0.52399 0.85945 0.63504 0.0
H1013 H 0.47946 0.86438 0.59037 0.0
C1014 C 0.70026 0.48302 0.91051 0.0
C1015 C 0.69725 0.50612 0.94087 0.0
C1016 C 0.67289 0.46116 0.88155 0.0
C1017 C 0.57892 0.41703 0.86729 0.0
H1018 H 0.60209 0.40232 0.74279 0.0
C1019 C 0.48001 0.30627 0.74762 0.0
C1020 C 0.49309 0.28495 0.73284 0.0
C1021 C 0.50244 0.33915 0.76647 0.0
C1022 C 0.59513 0.40634 0.7773 0.0
H1023 H 0.66259 0.52393 0.96464 0.0
H1024 H 0.61411 0.48481 0.91419 0.0
H1025 H 0.646 0.44907 0.79037 0.0
H1026 H 0.53933 0.28107 0.72513 0.0
H1027 H 0.57849 0.33847 0.75682 0.0
H1028 H 0.52835 0.37322 0.85462 0.0
C1029 C 0.63801 0.48399 0.91302 0.0
C1030 C 0.62027 0.43301 0.80461 0.0
C1031 C 0.66571 0.50627 0.94201 0.0
C1032 C 0.52881 0.29731 0.73573 0.0
C1033 C 0.55117 0.3302 0.75371 0.0
C1034 C 0.55365 0.39028 0.8398 0.0
C1035 C 0.64156 0.46155 0.88201 0.0
C1036 C 0.6129 0.43775 0.85058 0.0
C1037 C 0.5382 0.35118 0.7703 0.0
C1038 C 0.56197 0.38385 0.79521 0.0
H1039 H 0.72392 0.48182 0.90871 0.0
H1040 H 0.67622 0.4436 0.85894 0.0
H1041 H 0.57248 0.42002 0.90256 0.0
H1042 H 0.45241 0.29695 0.74653 0.0
H1043 H 0.49178 0.3548 0.77901 0.0
loop_
_geom_bond_atom_site_label_1
_geom_bond_atom_site_label_2
_geom_bond_distance
_geom_bond_site_symmetry_2
_ccdc_geom_bond_type
Eu0 N31 2.657 . S
Eu0 N38 2.609 . S
Eu0 O44 2.558 . S
Eu0 O45 2.612 . S
Eu0 O47 2.339 . S
Eu0 O48 2.563 . S
Eu0 O49 2.419 . S
Eu0 O51 2.380 1_556 S
Eu0 O52 2.427 1_556 S
Eu0 C64 2.848 . S
C1 C4 1.429 . S
C1 C5 1.411 . S
C1 N8 1.377 . S
C2 C4 1.420 . S
C2 C6 1.423 . S
C2 C14 1.392 . S
C3 C5 1.420 . S
C3 C6 1.351 . S
C3 H26 0.931 . S
C4 C1 1.429 . S
C4 C2 1.420 . S
C4 N12 1.362 . S
C5 C1 1.411 . S
C5 C3 1.420 . S
C5 C10 1.395 . S
C6 C2 1.423 . S
C6 C3 1.351 . S
C6 H18 0.930 . S
C7 C9 1.400 . S
C7 C10 1.386 . S
C7 H19 0.930 . S
N8 C1 1.377 . S
N8 C9 1.321 . S
N8 Eu11 2.609 . S
C9 C7 1.400 . S
C9 N8 1.321 . S
C9 H16 0.930 . S
C10 C5 1.395 . S
C10 C7 1.386 . S
C10 H29 0.930 . S
Eu11 N8 2.609 . S
Eu11 N12 2.657 . S
Eu11 O45 2.380 1_554 S
Eu11 O46 2.432 . S
Eu11 O50 2.558 . S
Eu11 O51 2.612 . S
Eu11 O53 2.339 . S
Eu11 O54 2.563 . S
Eu11 O55 2.419 . S
Eu11 C75 2.848 . S
N12 C4 1.362 . S
N12 Eu11 2.657 . S
N12 C13 1.334 . S
C13 N12 1.334 . S
C13 C15 1.413 . S
C13 H20 0.929 . S
C14 C2 1.392 . S
C14 C15 1.367 . S
C14 H22 0.930 . S
C15 C13 1.413 . S
C15 C14 1.367 . S
C15 H17 0.930 . S
H16 C9 0.930 . S
H17 C15 0.930 . S
H18 C6 0.930 . S
H19 C7 0.930 . S
H20 C13 0.929 . S
H21 C35 0.930 . S
H22 C14 0.930 . S
H23 C41 0.930 . S
H24 C32 0.929 . S
H25 C39 0.930 . S
H26 C3 0.931 . S
H27 C33 0.930 . S
H28 C66 0.930 . S
H29 C10 0.930 . S
H30 C65 0.931 . S
N31 Eu0 2.657 . S
N31 C32 1.334 . S
N31 C36 1.362 . S
C32 H24 0.929 . S
C32 N31 1.334 . S
C32 C35 1.413 . S
C33 H27 0.930 . S
C33 C34 1.392 . S
C33 C35 1.367 . S
C34 C33 1.392 . S
C34 C36 1.420 . S
C34 C66 1.423 . S
C35 H21 0.930 . S
C35 C32 1.413 . S
C35 C33 1.367 . S
C36 N31 1.362 . S
C36 C34 1.420 . S
C36 C40 1.429 . S
H37 C42 0.930 . S
N38 Eu0 2.609 . S
N38 C40 1.377 . S
N38 C41 1.321 . S
C39 H25 0.930 . S
C39 C41 1.400 . S
C39 C42 1.386 . S
C40 C36 1.429 . S
C40 N38 1.377 . S
C40 C43 1.411 . S
C41 H23 0.930 . S
C41 N38 1.321 . S
C41 C39 1.400 . S
C42 H37 0.930 . S
C42 C39 1.386 . S
C42 C43 1.395 . S
C43 C40 1.411 . S
C43 C42 1.395 . S
C43 C65 1.420 . S
O44 Eu0 2.558 . S
O44 C64 1.257 . S
O45 Eu0 2.612 . S
O45 Eu11 2.380 1_556 S
O45 C56 1.276 . S
O46 Eu11 2.432 . S
O46 C63 1.264 1_554 S
O47 Eu0 2.339 . S
O47 C63 1.254 . S
O48 Eu0 2.563 . S
O48 C56 1.235 . S
O49 Eu0 2.419 . S
O49 C64 1.249 . S
O50 Eu11 2.558 . S
O50 C75 1.257 . S
O51 Eu0 2.380 1_554 S
O51 Eu11 2.612 . S
O51 C67 1.276 . S
O52 Eu0 2.427 1_554 S
O52 C74 1.272 . S
O53 Eu11 2.339 . S
O53 C74 1.254 . S
O54 Eu11 2.563 . S
O54 C67 1.235 . S
O55 Eu11 2.419 . S
O55 C75 1.249 . S
C56 O45 1.276 . S
C56 O48 1.235 . S
C57 C59 1.393 . S
C57 C61 1.395 . S
C57 C64 1.492 . S
C58 C59 1.392 . S
C58 C60 1.386 . S
C59 C57 1.393 . S
C59 C58 1.392 . S
C59 H76 0.930 . S
C60 C58 1.386 . S
C60 C62 1.395 . S
C60 H77 0.930 . S
C61 C57 1.395 . S
C61 C62 1.379 . S
C61 H78 0.930 . S
C62 C60 1.395 . S
C62 C61 1.379 . S
C62 H79 0.930 . S
C63 O46 1.264 1_556 S
C63 O47 1.254 . S
C64 Eu0 2.848 . S
C64 O44 1.257 . S
C64 O49 1.249 . S
C64 C57 1.492 . S
C65 H30 0.931 . S
C65 C43 1.420 . S
C65 C66 1.351 . S
C66 H28 0.930 . S
C66 C34 1.423 . S
C66 C65 1.351 . S
C67 O51 1.276 . S
C67 O54 1.235 . S
C68 C69 1.393 . S
C68 C72 1.395 . S
C68 C75 1.492 . S
C69 C68 1.393 . S
C69 C70 1.392 . S
C69 H80 0.930 . S
C70 C69 1.392 . S
C70 C71 1.386 . S
C71 C70 1.386 . S
C71 C73 1.395 . S
C71 H81 0.930 . S
C72 C68 1.395 . S
C72 C73 1.379 . S
C72 H82 0.930 . S
C73 C71 1.395 . S
C73 C72 1.379 . S
C73 H83 0.930 . S
C74 O52 1.272 . S
C74 O53 1.254 . S
C75 Eu11 2.848 . S
C75 O50 1.257 . S
C75 O55 1.249 . S
C75 C68 1.492 . S
H76 C59 0.930 . S
H77 C60 0.930 . S
H78 C61 0.930 . S
H79 C62 0.930 . S
H80 C69 0.930 . S
H81 C71 0.930 . S
H82 C72 0.930 . S
H83 C73 0.930 . S
Eu84 N115 2.657 . S
Eu84 N122 2.609 . S
Eu84 O128 2.558 . S
Eu84 O129 2.612 . S
Eu84 O131 2.339 . S
Eu84 O132 2.563 . S
Eu84 O133 2.419 . S
Eu84 O135 2.380 . S
Eu84 O136 2.432 . S
Eu84 C148 2.848 . S
C85 C88 1.429 . S
C85 C89 1.411 . S
C85 N92 1.377 . S
C86 C88 1.420 . S
C86 C90 1.423 . S
C86 C98 1.392 . S
C87 C89 1.420 . S
C87 C90 1.351 . S
C87 H110 0.931 . S
C88 C85 1.429 . S
C88 C86 1.420 . S
C88 N96 1.362 . S
C89 C85 1.411 . S
C89 C87 1.420 . S
C89 C94 1.395 . S
C90 C86 1.423 . S
C90 C87 1.351 . S
C90 H102 0.930 . S
C91 C93 1.400 . S
C91 C94 1.386 . S
C91 H103 0.930 . S
N92 C85 1.377 . S
N92 C93 1.321 . S
N92 Eu95 2.609 . S
C93 C91 1.400 . S
C93 N92 1.321 . S
C93 H100 0.930 . S
C94 C89 1.395 . S
C94 C91 1.386 . S
C94 H113 0.930 . S
Eu95 N92 2.609 . S
Eu95 N96 2.657 . S
Eu95 O129 2.380 . S
Eu95 O130 2.432 . S
Eu95 O134 2.558 . S
Eu95 O135 2.612 . S
Eu95 O137 2.339 . S
Eu95 O138 2.563 . S
Eu95 O139 2.419 . S
Eu95 C159 2.848 . S
N96 C88 1.362 . S
N96 Eu95 2.657 . S
N96 C97 1.334 . S
C97 N96 1.334 . S
C97 C99 1.413 . S
C97 H104 0.929 . S
C98 C86 1.392 . S
C98 C99 1.367 . S
C98 H106 0.930 . S
C99 C97 1.413 . S
C99 C98 1.367 . S
C99 H101 0.930 . S
H100 C93 0.930 . S
H101 C99 0.930 . S
H102 C90 0.930 . S
H103 C91 0.930 . S
H104 C97 0.929 . S
H105 C119 0.930 . S
H106 C98 0.930 . S
H107 C125 0.930 . S
H108 C116 0.929 . S
H109 C123 0.930 . S
H110 C87 0.931 . S
H111 C117 0.930 . S
H112 C150 0.930 . S
H113 C94 0.930 . S
H114 C149 0.931 . S
N115 Eu84 2.657 . S
N115 C116 1.334 . S
N115 C120 1.362 . S
C116 H108 0.929 . S
C116 N115 1.334 . S
C116 C119 1.413 . S
C117 H111 0.930 . S
C117 C118 1.392 . S
C117 C119 1.367 . S
C118 C117 1.392 . S
C118 C120 1.420 . S
C118 C150 1.423 . S
C119 H105 0.930 . S
C119 C116 1.413 . S
C119 C117 1.367 . S
C120 N115 1.362 . S
C120 C118 1.420 . S
C120 C124 1.429 . S
H121 C126 0.930 . S
N122 Eu84 2.609 . S
N122 C124 1.377 . S
N122 C125 1.321 . S
C123 H109 0.930 . S
C123 C125 1.400 . S
C123 C126 1.386 . S
C124 C120 1.429 . S
C124 N122 1.377 . S
C124 C127 1.411 . S
C125 H107 0.930 . S
C125 N122 1.321 . S
C125 C123 1.400 . S
C126 H121 0.930 . S
C126 C123 1.386 . S
C126 C127 1.395 . S
C127 C124 1.411 . S
C127 C126 1.395 . S
C127 C149 1.420 . S
O128 Eu84 2.558 . S
O128 C148 1.257 . S
O129 Eu84 2.612 . S
O129 Eu95 2.380 . S
O129 C140 1.276 . S
O130 Eu95 2.432 . S
O130 C147 1.264 . S
O131 Eu84 2.339 . S
O131 C147 1.254 . S
O132 Eu84 2.563 . S
O132 C140 1.235 . S
O133 Eu84 2.419 . S
O133 C148 1.249 . S
O134 Eu95 2.558 . S
O134 C159 1.257 . S
O135 Eu84 2.380 . S
O135 Eu95 2.612 . S
O135 C151 1.276 . S
O136 Eu84 2.432 . S
O136 C158 1.264 . S
O137 Eu95 2.339 . S
O137 C158 1.254 . S
O138 Eu95 2.563 . S
O138 C151 1.235 . S
O139 Eu95 2.419 . S
O139 C159 1.249 . S
C140 O129 1.276 . S
C140 O132 1.235 . S
C141 C143 1.393 . S
C141 C145 1.395 . S
C141 C148 1.492 . S
C142 C143 1.392 . S
C142 C144 1.386 . S
C143 C141 1.393 . S
C143 C142 1.392 . S
C143 H160 0.930 . S
C144 C142 1.386 . S
C144 C146 1.395 . S
C144 H161 0.930 . S
C145 C141 1.395 . S
C145 C146 1.379 . S
C145 H162 0.930 . S
C146 C144 1.395 . S
C146 C145 1.379 . S
C146 H163 0.930 . S
C147 O130 1.264 . S
C147 O131 1.254 . S
C148 Eu84 2.848 . S
C148 O128 1.257 . S
C148 O133 1.249 . S
C148 C141 1.492 . S
C149 H114 0.931 . S
C149 C127 1.420 . S
C149 C150 1.351 . S
C150 H112 0.930 . S
C150 C118 1.423 . S
C150 C149 1.351 . S
C151 O135 1.276 . S
C151 O138 1.235 . S
C152 C153 1.393 . S
C152 C156 1.395 . S
C152 C159 1.492 . S
C153 C152 1.393 . S
C153 C154 1.392 . S
C153 H164 0.930 . S
C154 C153 1.392 . S
C154 C155 1.386 . S
C155 C154 1.386 . S
C155 C157 1.395 . S
C155 H165 0.930 . S
C156 C152 1.395 . S
C156 C157 1.379 . S
C156 H166 0.930 . S
C157 C155 1.395 . S
C157 C156 1.379 . S
C157 H167 0.930 . S
C158 O136 1.264 . S
C158 O137 1.254 . S
C159 Eu95 2.848 . S
C159 O134 1.257 . S
C159 O139 1.249 . S
C159 C152 1.492 . S
H160 C143 0.930 . S
H161 C144 0.930 . S
H162 C145 0.930 . S
H163 C146 0.930 . S
H164 C153 0.930 . S
H165 C155 0.930 . S
H166 C156 0.930 . S
H167 C157 0.930 . S
Eu168 N199 2.657 . S
Eu168 N206 2.609 . S
Eu168 O212 2.558 . S
Eu168 O213 2.612 . S
Eu168 O215 2.339 . S
Eu168 O216 2.563 . S
Eu168 O217 2.419 . S
Eu168 O219 2.380 . S
Eu168 O220 2.432 . S
Eu168 C232 2.848 . S
C169 C172 1.429 . S
C169 C173 1.411 . S
C169 N176 1.377 . S
C170 C172 1.420 . S
C170 C174 1.423 . S
C170 C182 1.392 . S
C171 C173 1.420 . S
C171 C174 1.351 . S
C171 H194 0.931 . S
C172 C169 1.429 . S
C172 C170 1.420 . S
C172 N180 1.362 . S
C173 C169 1.411 . S
C173 C171 1.420 . S
C173 C178 1.395 . S
C174 C170 1.423 . S
C174 C171 1.351 . S
C174 H186 0.930 . S
C175 C177 1.400 . S
C175 C178 1.386 . S
C175 H187 0.930 . S
N176 C169 1.377 . S
N176 C177 1.321 . S
N176 Eu179 2.609 . S
C177 C175 1.400 . S
C177 N176 1.321 . S
C177 H184 0.930 . S
C178 C173 1.395 . S
C178 C175 1.386 . S
C178 H197 0.930 . S
Eu179 N176 2.609 . S
Eu179 N180 2.657 . S
Eu179 O213 2.380 . S
Eu179 O214 2.432 . S
Eu179 O218 2.558 . S
Eu179 O219 2.612 . S
Eu179 O221 2.339 . S
Eu179 O222 2.563 . S
Eu179 O223 2.419 . S
Eu179 C243 2.848 . S
N180 C172 1.362 . S
N180 Eu179 2.657 . S
N180 C181 1.334 . S
C181 N180 1.334 . S
C181 C183 1.413 . S
C181 H188 0.929 . S
C182 C170 1.392 . S
C182 C183 1.367 . S
C182 H190 0.930 . S
C183 C181 1.413 . S
C183 C182 1.367 . S
C183 H185 0.930 . S
H184 C177 0.930 . S
H185 C183 0.930 . S
H186 C174 0.930 . S
H187 C175 0.930 . S
H188 C181 0.929 . S
H189 C203 0.930 . S
H190 C182 0.930 . S
H191 C209 0.930 . S
H192 C200 0.929 . S
H193 C207 0.930 . S
H194 C171 0.931 . S
H195 C201 0.930 . S
H196 C234 0.930 . S
H197 C178 0.930 . S
H198 C233 0.931 . S
N199 Eu168 2.657 . S
N199 C200 1.334 . S
N199 C204 1.362 . S
C200 H192 0.929 . S
C200 N199 1.334 . S
C200 C203 1.413 . S
C201 H195 0.930 . S
C201 C202 1.392 . S
C201 C203 1.367 . S
C202 C201 1.392 . S
C202 C204 1.420 . S
C202 C234 1.423 . S
C203 H189 0.930 . S
C203 C200 1.413 . S
C203 C201 1.367 . S
C204 N199 1.362 . S
C204 C202 1.420 . S
C204 C208 1.429 . S
H205 C210 0.930 . S
N206 Eu168 2.609 . S
N206 C208 1.377 . S
N206 C209 1.321 . S
C207 H193 0.930 . S
C207 C209 1.400 . S
C207 C210 1.386 . S
C208 C204 1.429 . S
C208 N206 1.377 . S
C208 C211 1.411 . S
C209 H191 0.930 . S
C209 N206 1.321 . S
C209 C207 1.400 . S
C210 H205 0.930 . S
C210 C207 1.386 . S
C210 C211 1.395 . S
C211 C208 1.411 . S
C211 C210 1.395 . S
C211 C233 1.420 . S
O212 Eu168 2.558 . S
O212 C232 1.257 . S
O213 Eu168 2.612 . S
O213 Eu179 2.380 . S
O213 C224 1.276 . S
O214 Eu179 2.432 . S
O214 C231 1.264 . S
O215 Eu168 2.339 . S
O215 C231 1.254 . S
O216 Eu168 2.563 . S
O216 C224 1.235 . S
O217 Eu168 2.419 . S
O217 C232 1.249 . S
O218 Eu179 2.558 . S
O218 C243 1.257 . S
O219 Eu168 2.380 . S
O219 Eu179 2.612 . S
O219 C235 1.276 . S
O220 Eu168 2.432 . S
O220 C242 1.264 . S
O221 Eu179 2.339 . S
O221 C242 1.254 . S
O222 Eu179 2.563 . S
O222 C235 1.235 . S
O223 Eu179 2.419 . S
O223 C243 1.249 . S
C224 O213 1.276 . S
C224 O216 1.235 . S
C225 C227 1.393 . S
C225 C229 1.395 . S
C225 C232 1.492 . S
C226 C227 1.392 . S
C226 C228 1.386 . S
C227 C225 1.393 . S
C227 C226 1.392 . S
C227 H244 0.930 . S
C228 C226 1.386 . S
C228 C230 1.395 . S
C228 H245 0.930 . S
C229 C225 1.395 . S
C229 C230 1.379 . S
C229 H246 0.930 . S
C230 C228 1.395 . S
C230 C229 1.379 . S
C230 H247 0.930 . S
C231 O214 1.264 . S
C231 O215 1.254 . S
C232 Eu168 2.848 . S
C232 O212 1.257 . S
C232 O217 1.249 . S
C232 C225 1.492 . S
C233 H198 0.931 . S
C233 C211 1.420 . S
C233 C234 1.351 . S
C234 H196 0.930 . S
C234 C202 1.423 . S
C234 C233 1.351 . S
C235 O219 1.276 . S
C235 O222 1.235 . S
C236 C237 1.393 . S
C236 C240 1.395 . S
C236 C243 1.492 . S
C237 C236 1.393 . S
C237 C238 1.392 . S
C237 H248 0.930 . S
C238 C237 1.392 . S
C238 C239 1.386 . S
C239 C238 1.386 . S
C239 C241 1.395 . S
C239 H249 0.930 . S
C240 C236 1.395 . S
C240 C241 1.379 . S
C240 H250 0.930 . S
C241 C239 1.395 . S
C241 C240 1.379 . S
C241 H251 0.930 . S
C242 O220 1.264 . S
C242 O221 1.254 . S
C243 Eu179 2.848 . S
C243 O218 1.257 . S
C243 O223 1.249 . S
C243 C236 1.492 . S
H244 C227 0.930 . S
H245 C228 0.930 . S
H246 C229 0.930 . S
H247 C230 0.930 . S
H248 C237 0.930 . S
H249 C239 0.930 . S
H250 C240 0.930 . S
H251 C241 0.930 . S
Eu252 N283 2.657 . S
Eu252 N290 2.609 . S
Eu252 O296 2.558 . S
Eu252 O297 2.612 . S
Eu252 O299 2.339 . S
Eu252 O300 2.563 . S
Eu252 O301 2.419 . S
Eu252 O303 2.380 1_556 S
Eu252 O304 2.427 1_556 S
Eu252 C316 2.848 . S
C253 C256 1.429 . S
C253 C257 1.411 . S
C253 N260 1.377 . S
C254 C256 1.420 . S
C254 C258 1.423 . S
C254 C266 1.392 . S
C255 C257 1.420 . S
C255 C258 1.351 . S
C255 H278 0.931 . S
C256 C253 1.429 . S
C256 C254 1.420 . S
C256 N264 1.362 . S
C257 C253 1.411 . S
C257 C255 1.420 . S
C257 C262 1.395 . S
C258 C254 1.423 . S
C258 C255 1.351 . S
C258 H270 0.930 . S
C259 C261 1.400 . S
C259 C262 1.386 . S
C259 H271 0.930 . S
N260 C253 1.377 . S
N260 C261 1.321 . S
N260 Eu263 2.609 . S
C261 C259 1.400 . S
C261 N260 1.321 . S
C261 H268 0.930 . S
C262 C257 1.395 . S
C262 C259 1.386 . S
C262 H281 0.930 . S
Eu263 N260 2.609 . S
Eu263 N264 2.657 . S
Eu263 O297 2.380 1_554 S
Eu263 O298 2.432 . S
Eu263 O302 2.558 . S
Eu263 O303 2.612 . S
Eu263 O305 2.339 . S
Eu263 O306 2.563 . S
Eu263 O307 2.419 . S
Eu263 C327 2.848 . S
N264 C256 1.362 . S
N264 Eu263 2.657 . S
N264 C265 1.334 . S
C265 N264 1.334 . S
C265 C267 1.413 . S
C265 H272 0.929 . S
C266 C254 1.392 . S
C266 C267 1.367 . S
C266 H274 0.930 . S
C267 C265 1.413 . S
C267 C266 1.367 . S
C267 H269 0.930 . S
H268 C261 0.930 . S
H269 C267 0.930 . S
H270 C258 0.930 . S
H271 C259 0.930 . S
H272 C265 0.929 . S
H273 C287 0.930 . S
H274 C266 0.930 . S
H275 C293 0.930 . S
H276 C284 0.929 . S
H277 C291 0.930 . S
H278 C255 0.931 . S
H279 C285 0.930 . S
H280 C318 0.930 . S
H281 C262 0.930 . S
H282 C317 0.931 . S
N283 Eu252 2.657 . S
N283 C284 1.334 . S
N283 C288 1.362 . S
C284 H276 0.929 . S
C284 N283 1.334 . S
C284 C287 1.413 . S
C285 H279 0.930 . S
C285 C286 1.392 . S
C285 C287 1.367 . S
C286 C285 1.392 . S
C286 C288 1.420 . S
C286 C318 1.423 . S
C287 H273 0.930 . S
C287 C284 1.413 . S
C287 C285 1.367 . S
C288 N283 1.362 . S
C288 C286 1.420 . S
C288 C292 1.429 . S
H289 C294 0.930 . S
N290 Eu252 2.609 . S
N290 C292 1.377 . S
N290 C293 1.321 . S
C291 H277 0.930 . S
C291 C293 1.400 . S
C291 C294 1.386 . S
C292 C288 1.429 . S
C292 N290 1.377 . S
C292 C295 1.411 . S
C293 H275 0.930 . S
C293 N290 1.321 . S
C293 C291 1.400 . S
C294 H289 0.930 . S
C294 C291 1.386 . S
C294 C295 1.395 . S
C295 C292 1.411 . S
C295 C294 1.395 . S
C295 C317 1.420 . S
O296 Eu252 2.558 . S
O296 C316 1.257 . S
O297 Eu252 2.612 . S
O297 Eu263 2.380 1_556 S
O297 C308 1.276 . S
O298 Eu263 2.432 . S
O298 C315 1.264 1_554 S
O299 Eu252 2.339 . S
O299 C315 1.254 . S
O300 Eu252 2.563 . S
O300 C308 1.235 . S
O301 Eu252 2.419 . S
O301 C316 1.249 . S
O302 Eu263 2.558 . S
O302 C327 1.257 . S
O303 Eu252 2.380 1_554 S
O303 Eu263 2.612 . S
O303 C319 1.276 . S
O304 Eu252 2.427 1_554 S
O304 C326 1.272 . S
O305 Eu263 2.339 . S
O305 C326 1.254 . S
O306 Eu263 2.563 . S
O306 C319 1.235 . S
O307 Eu263 2.419 . S
O307 C327 1.249 . S
C308 O297 1.276 . S
C308 O300 1.235 . S
C309 C311 1.393 . S
C309 C313 1.395 . S
C309 C316 1.492 . S
C310 C311 1.392 . S
C310 C312 1.386 . S
C311 C309 1.393 . S
C311 C310 1.392 . S
C311 H328 0.930 . S
C312 C310 1.386 . S
C312 C314 1.395 . S
C312 H329 0.930 . S
C313 C309 1.395 . S
C313 C314 1.379 . S
C313 H330 0.930 . S
C314 C312 1.395 . S
C314 C313 1.379 . S
C314 H331 0.930 . S
C315 O298 1.264 1_556 S
C315 O299 1.254 . S
C316 Eu252 2.848 . S
C316 O296 1.257 . S
C316 O301 1.249 . S
C316 C309 1.492 . S
C317 H282 0.931 . S
C317 C295 1.420 . S
C317 C318 1.351 . S
C318 H280 0.930 . S
C318 C286 1.423 . S
C318 C317 1.351 . S
C319 O303 1.276 . S
C319 O306 1.235 . S
C320 C321 1.393 . S
C320 C324 1.395 . S
C320 C327 1.492 . S
C321 C320 1.393 . S
C321 C322 1.392 . S
C321 H332 0.930 . S
C322 C321 1.392 . S
C322 C323 1.386 . S
C323 C322 1.386 . S
C323 C325 1.395 . S
C323 H333 0.930 . S
C324 C320 1.395 . S
C324 C325 1.379 . S
C324 H334 0.930 . S
C325 C323 1.395 . S
C325 C324 1.379 . S
C325 H335 0.930 . S
C326 O304 1.272 . S
C326 O305 1.254 . S
C327 Eu263 2.848 . S
C327 O302 1.257 . S
C327 O307 1.249 . S
C327 C320 1.492 . S
H328 C311 0.930 . S
H329 C312 0.930 . S
H330 C313 0.930 . S
H331 C314 0.930 . S
H332 C321 0.930 . S
H333 C323 0.930 . S
H334 C324 0.930 . S
H335 C325 0.930 . S
Eu336 N367 2.657 . S
Eu336 N374 2.609 . S
Eu336 O380 2.558 . S
Eu336 O381 2.612 . S
Eu336 O383 2.339 . S
Eu336 O384 2.563 . S
Eu336 O385 2.419 . S
Eu336 O387 2.380 . S
Eu336 O388 2.432 . S
Eu336 C400 2.848 . S
C337 C340 1.429 . S
C337 C341 1.411 . S
C337 N344 1.377 . S
C338 C340 1.420 . S
C338 C342 1.423 . S
C338 C350 1.392 . S
C339 C341 1.420 . S
C339 C342 1.351 . S
C339 H362 0.931 . S
C340 C337 1.429 . S
C340 C338 1.420 . S
C340 N348 1.362 . S
C341 C337 1.411 . S
C341 C339 1.420 . S
C341 C346 1.395 . S
C342 C338 1.423 . S
C342 C339 1.351 . S
C342 H354 0.930 . S
C343 C345 1.400 . S
C343 C346 1.386 . S
C343 H355 0.930 . S
N344 C337 1.377 . S
N344 C345 1.321 . S
N344 Eu347 2.609 . S
C345 C343 1.400 . S
C345 N344 1.321 . S
C345 H352 0.930 . S
C346 C341 1.395 . S
C346 C343 1.386 . S
C346 H365 0.930 . S
Eu347 N344 2.609 . S
Eu347 N348 2.657 . S
Eu347 O381 2.380 . S
Eu347 O382 2.432 . S
Eu347 O386 2.558 . S
Eu347 O387 2.612 . S
Eu347 O389 2.339 . S
Eu347 O390 2.563 . S
Eu347 O391 2.419 . S
Eu347 C411 2.848 . S
N348 C340 1.362 . S
N348 Eu347 2.657 . S
N348 C349 1.334 . S
C349 N348 1.334 . S
C349 C351 1.413 . S
C349 H356 0.929 . S
C350 C338 1.392 . S
C350 C351 1.367 . S
C350 H358 0.930 . S
C351 C349 1.413 . S
C351 C350 1.367 . S
C351 H353 0.930 . S
H352 C345 0.930 . S
H353 C351 0.930 . S
H354 C342 0.930 . S
H355 C343 0.930 . S
H356 C349 0.929 . S
H357 C371 0.930 . S
H358 C350 0.930 . S
H359 C377 0.930 . S
H360 C368 0.929 . S
H361 C375 0.930 . S
H362 C339 0.931 . S
H363 C369 0.930 . S
H364 C402 0.930 . S
H365 C346 0.930 . S
H366 C401 0.931 . S
N367 Eu336 2.657 . S
N367 C368 1.334 . S
N367 C372 1.362 . S
C368 H360 0.929 . S
C368 N367 1.334 . S
C368 C371 1.413 . S
C369 H363 0.930 . S
C369 C370 1.392 . S
C369 C371 1.367 . S
C370 C369 1.392 . S
C370 C372 1.420 . S
C370 C402 1.423 . S
C371 H357 0.930 . S
C371 C368 1.413 . S
C371 C369 1.367 . S
C372 N367 1.362 . S
C372 C370 1.420 . S
C372 C376 1.429 . S
H373 C378 0.930 . S
N374 Eu336 2.609 . S
N374 C376 1.377 . S
N374 C377 1.321 . S
C375 H361 0.930 . S
C375 C377 1.400 . S
C375 C378 1.386 . S
C376 C372 1.429 . S
C376 N374 1.377 . S
C376 C379 1.411 . S
C377 H359 0.930 . S
C377 N374 1.321 . S
C377 C375 1.400 . S
C378 H373 0.930 . S
C378 C375 1.386 . S
C378 C379 1.395 . S
C379 C376 1.411 . S
C379 C378 1.395 . S
C379 C401 1.420 . S
O380 Eu336 2.558 . S
O380 C400 1.257 . S
O381 Eu336 2.612 . S
O381 Eu347 2.380 . S
O381 C392 1.276 . S
O382 Eu347 2.432 . S
O382 C399 1.264 . S
O383 Eu336 2.339 . S
O383 C399 1.254 . S
O384 Eu336 2.563 . S
O384 C392 1.235 . S
O385 Eu336 2.419 . S
O385 C400 1.249 . S
O386 Eu347 2.558 . S
O386 C411 1.257 . S
O387 Eu336 2.380 . S
O387 Eu347 2.612 . S
O387 C403 1.276 . S
O388 Eu336 2.432 . S
O388 C410 1.264 . S
O389 Eu347 2.339 . S
O389 C410 1.254 . S
O390 Eu347 2.563 . S
O390 C403 1.235 . S
O391 Eu347 2.419 . S
O391 C411 1.249 . S
C392 O381 1.276 . S
C392 O384 1.235 . S
C393 C395 1.393 . S
C393 C397 1.395 . S
C393 C400 1.492 . S
C394 C395 1.392 . S
C394 C396 1.386 . S
C395 C393 1.393 . S
C395 C394 1.392 . S
C395 H412 0.930 . S
C396 C394 1.386 . S
C396 C398 1.395 . S
C396 H413 0.930 . S
C397 C393 1.395 . S
C397 C398 1.379 . S
C397 H414 0.930 . S
C398 C396 1.395 . S
C398 C397 1.379 . S
C398 H415 0.930 . S
C399 O382 1.264 . S
C399 O383 1.254 . S
C400 Eu336 2.848 . S
C400 O380 1.257 . S
C400 O385 1.249 . S
C400 C393 1.492 . S
C401 H366 0.931 . S
C401 C379 1.420 . S
C401 C402 1.351 . S
C402 H364 0.930 . S
C402 C370 1.423 . S
C402 C401 1.351 . S
C403 O387 1.276 . S
C403 O390 1.235 . S
C404 C405 1.393 . S
C404 C408 1.395 . S
C404 C411 1.492 . S
C405 C404 1.393 . S
C405 C406 1.392 . S
C405 H416 0.930 . S
C406 C405 1.392 . S
C406 C407 1.386 . S
C407 C406 1.386 . S
C407 C409 1.395 . S
C407 H417 0.930 . S
C408 C404 1.395 . S
C408 C409 1.379 . S
C408 H418 0.930 . S
C409 C407 1.395 . S
C409 C408 1.379 . S
C409 H419 0.930 . S
C410 O388 1.264 . S
C410 O389 1.254 . S
C411 Eu347 2.848 . S
C411 O386 1.257 . S
C411 O391 1.249 . S
C411 C404 1.492 . S
H412 C395 0.930 . S
H413 C396 0.930 . S
H414 C397 0.930 . S
H415 C398 0.930 . S
H416 C405 0.930 . S
H417 C407 0.930 . S
H418 C408 0.930 . S
H419 C409 0.930 . S
Eu420 N451 2.657 . S
Eu420 N458 2.609 . S
Eu420 O464 2.558 . S
Eu420 O465 2.612 . S
Eu420 O467 2.339 . S
Eu420 O468 2.563 . S
Eu420 O469 2.419 . S
Eu420 O471 2.380 . S
Eu420 O472 2.432 . S
Eu420 C484 2.848 . S
C421 C424 1.429 . S
C421 C425 1.411 . S
C421 N428 1.377 . S
C422 C424 1.420 . S
C422 C426 1.423 . S
C422 C434 1.392 . S
C423 C425 1.420 . S
C423 C426 1.351 . S
C423 H446 0.931 . S
C424 C421 1.429 . S
C424 C422 1.420 . S
C424 N432 1.362 . S
C425 C421 1.411 . S
C425 C423 1.420 . S
C425 C430 1.395 . S
C426 C422 1.423 . S
C426 C423 1.351 . S
C426 H438 0.930 . S
C427 C429 1.400 . S
C427 C430 1.386 . S
C427 H439 0.930 . S
N428 C421 1.377 . S
N428 C429 1.321 . S
N428 Eu431 2.609 . S
C429 C427 1.400 . S
C429 N428 1.321 . S
C429 H436 0.930 . S
C430 C425 1.395 . S
C430 C427 1.386 . S
C430 H449 0.930 . S
Eu431 N428 2.609 . S
Eu431 N432 2.657 . S
Eu431 O465 2.380 . S
Eu431 O466 2.432 . S
Eu431 O470 2.558 . S
Eu431 O471 2.612 . S
Eu431 O473 2.339 . S
Eu431 O474 2.563 . S
Eu431 O475 2.419 . S
Eu431 C495 2.848 . S
N432 C424 1.362 . S
N432 Eu431 2.657 . S
N432 C433 1.334 . S
C433 N432 1.334 . S
C433 C435 1.413 . S
C433 H440 0.929 . S
C434 C422 1.392 . S
C434 C435 1.367 . S
C434 H442 0.930 . S
C435 C433 1.413 . S
C435 C434 1.367 . S
C435 H437 0.930 . S
H436 C429 0.930 . S
H437 C435 0.930 . S
H438 C426 0.930 . S
H439 C427 0.930 . S
H440 C433 0.929 . S
H441 C455 0.930 . S
H442 C434 0.930 . S
H443 C461 0.930 . S
H444 C452 0.929 . S
H445 C459 0.930 . S
H446 C423 0.931 . S
H447 C453 0.930 . S
H448 C486 0.930 . S
H449 C430 0.930 . S
H450 C485 0.931 . S
N451 Eu420 2.657 . S
N451 C452 1.334 . S
N451 C456 1.362 . S
C452 H444 0.929 . S
C452 N451 1.334 . S
C452 C455 1.413 . S
C453 H447 0.930 . S
C453 C454 1.392 . S
C453 C455 1.367 . S
C454 C453 1.392 . S
C454 C456 1.420 . S
C454 C486 1.423 . S
C455 H441 0.930 . S
C455 C452 1.413 . S
C455 C453 1.367 . S
C456 N451 1.362 . S
C456 C454 1.420 . S
C456 C460 1.429 . S
H457 C462 0.930 . S
N458 Eu420 2.609 . S
N458 C460 1.377 . S
N458 C461 1.321 . S
C459 H445 0.930 . S
C459 C461 1.400 . S
C459 C462 1.386 . S
C460 C456 1.429 . S
C460 N458 1.377 . S
C460 C463 1.411 . S
C461 H443 0.930 . S
C461 N458 1.321 . S
C461 C459 1.400 . S
C462 H457 0.930 . S
C462 C459 1.386 . S
C462 C463 1.395 . S
C463 C460 1.411 . S
C463 C462 1.395 . S
C463 C485 1.420 . S
O464 Eu420 2.558 . S
O464 C484 1.257 . S
O465 Eu420 2.612 . S
O465 Eu431 2.380 . S
O465 C476 1.276 . S
O466 Eu431 2.432 . S
O466 C483 1.264 . S
O467 Eu420 2.339 . S
O467 C483 1.254 . S
O468 Eu420 2.563 . S
O468 C476 1.235 . S
O469 Eu420 2.419 . S
O469 C484 1.249 . S
O470 Eu431 2.558 . S
O470 C495 1.257 . S
O471 Eu420 2.380 . S
O471 Eu431 2.612 . S
O471 C487 1.276 . S
O472 Eu420 2.432 . S
O472 C494 1.264 . S
O473 Eu431 2.339 . S
O473 C494 1.254 . S
O474 Eu431 2.563 . S
O474 C487 1.235 . S
O475 Eu431 2.419 . S
O475 C495 1.249 . S
C476 O465 1.276 . S
C476 O468 1.235 . S
C477 C479 1.393 . S
C477 C481 1.395 . S
C477 C484 1.492 . S
C478 C479 1.392 . S
C478 C480 1.386 . S
C479 C477 1.393 . S
C479 C478 1.392 . S
C479 H496 0.930 . S
C480 C478 1.386 . S
C480 C482 1.395 . S
C480 H497 0.930 . S
C481 C477 1.395 . S
C481 C482 1.379 . S
C481 H498 0.930 . S
C482 C480 1.395 . S
C482 C481 1.379 . S
C482 H499 0.930 . S
C483 O466 1.264 . S
C483 O467 1.254 . S
C484 Eu420 2.848 . S
C484 O464 1.257 . S
C484 O469 1.249 . S
C484 C477 1.492 . S
C485 H450 0.931 . S
C485 C463 1.420 . S
C485 C486 1.351 . S
C486 H448 0.930 . S
C486 C454 1.423 . S
C486 C485 1.351 . S
C487 O471 1.276 . S
C487 O474 1.235 . S
C488 C489 1.393 . S
C488 C492 1.395 . S
C488 C495 1.492 . S
C489 C488 1.393 . S
C489 C490 1.392 . S
C489 H500 0.930 . S
C490 C489 1.392 . S
C490 C491 1.386 . S
C491 C490 1.386 . S
C491 C493 1.395 . S
C491 H501 0.930 . S
C492 C488 1.395 . S
C492 C493 1.379 . S
C492 H502 0.930 . S
C493 C491 1.395 . S
C493 C492 1.379 . S
C493 H503 0.930 . S
C494 O472 1.264 . S
C494 O473 1.254 . S
C495 Eu431 2.848 . S
C495 O470 1.257 . S
C495 O475 1.249 . S
C495 C488 1.492 . S
H496 C479 0.930 . S
H497 C480 0.930 . S
H498 C481 0.930 . S
H499 C482 0.930 . S
H500 C489 0.930 . S
H501 C491 0.930 . S
H502 C492 0.930 . S
H503 C493 0.930 . S
C504 C505 1.349 . S
C504 C506 1.327 . S
C504 H529 0.950 . S
C505 C504 1.349 . S
C505 C521 1.349 . S
C506 C504 1.327 . S
C506 C525 1.429 . S
C506 H530 0.950 . S
C507 C524 1.574 . S
C507 C526 1.368 . S
C507 H531 0.949 . S
H508 C512 0.949 . S
C509 C510 1.349 . S
C509 C511 1.327 . S
C509 H532 0.950 . S
C510 C509 1.349 . S
C510 C522 1.349 . S
C511 C509 1.327 . S
C511 C527 1.429 . S
C511 H533 0.950 . S
C512 H508 0.949 . S
C512 C520 1.574 . S
C512 C528 1.368 . S
H513 C521 0.950 . S
H514 C519 0.950 . S
H515 C520 0.949 . S
H516 C522 0.950 . S
H517 C523 0.950 . S
H518 C524 0.949 . S
C519 H514 0.950 . S
C519 C521 1.327 . S
C519 C525 1.429 . S
C520 C512 1.574 . S
C520 H515 0.949 . S
C520 C526 1.368 . S
C521 C505 1.349 . S
C521 H513 0.950 . S
C521 C519 1.327 . S
C522 C510 1.349 . S
C522 H516 0.950 . S
C522 C523 1.327 . S
C523 H517 0.950 . S
C523 C522 1.327 . S
C523 C527 1.429 . S
C524 C507 1.574 . S
C524 H518 0.949 . S
C524 C528 1.368 . S
C525 C506 1.429 . S
C525 C519 1.429 . S
C525 C526 1.523 . S
C526 C507 1.368 . S
C526 C520 1.368 . S
C526 C525 1.523 . S
C527 C511 1.429 . S
C527 C523 1.429 . S
C527 C528 1.523 . S
C528 C512 1.368 . S
C528 C524 1.368 . S
C528 C527 1.523 . S
H529 C504 0.950 . S
H530 C506 0.950 . S
H531 C507 0.949 . S
H532 C509 0.950 . S
H533 C511 0.950 . S
C534 C535 1.349 . S
C534 C536 1.327 . S
C534 H559 0.950 . S
C535 C534 1.349 . S
C535 C551 1.349 . S
C536 C534 1.327 . S
C536 C555 1.429 . S
C536 H560 0.950 . S
C537 C554 1.574 1_455 S
C537 C556 1.368 . S
C537 H561 0.949 . S
H538 C542 0.949 . S
C539 C540 1.349 . S
C539 C541 1.327 . S
C539 H562 0.950 . S
C540 C539 1.349 . S
C540 C552 1.349 . S
C541 C539 1.327 . S
C541 C557 1.429 . S
C541 H563 0.950 . S
C542 H538 0.949 . S
C542 C550 1.574 1_655 S
C542 C558 1.368 . S
H543 C551 0.950 . S
H544 C549 0.950 . S
H545 C550 0.949 . S
H546 C552 0.950 . S
H547 C553 0.950 . S
H548 C554 0.949 . S
C549 H544 0.950 . S
C549 C551 1.327 . S
C549 C555 1.429 . S
C550 C542 1.574 1_455 S
C550 H545 0.949 . S
C550 C556 1.368 . S
C551 C535 1.349 . S
C551 H543 0.950 . S
C551 C549 1.327 . S
C552 C540 1.349 . S
C552 H546 0.950 . S
C552 C553 1.327 . S
C553 H547 0.950 . S
C553 C552 1.327 . S
C553 C557 1.429 . S
C554 C537 1.574 1_655 S
C554 H548 0.949 . S
C554 C558 1.368 . S
C555 C536 1.429 . S
C555 C549 1.429 . S
C555 C556 1.523 . S
C556 C537 1.368 . S
C556 C550 1.368 . S
C556 C555 1.523 . S
C557 C541 1.429 . S
C557 C553 1.429 . S
C557 C558 1.523 . S
C558 C542 1.368 . S
C558 C554 1.368 . S
C558 C557 1.523 . S
H559 C534 0.950 . S
H560 C536 0.950 . S
H561 C537 0.949 . S
H562 C539 0.950 . S
H563 C541 0.950 . S
C564 C565 1.349 . S
C564 C566 1.327 . S
C564 H589 0.950 . S
C565 C564 1.349 . S
C565 C581 1.349 . S
C566 C564 1.327 . S
C566 C585 1.429 . S
C566 H590 0.950 . S
C567 C584 1.574 1_545 S
C567 C586 1.368 . S
C567 H591 0.949 . S
H568 C572 0.949 . S
C569 C570 1.349 . S
C569 C571 1.327 . S
C569 H592 0.950 . S
C570 C569 1.349 . S
C570 C582 1.349 . S
C571 C569 1.327 . S
C571 C587 1.429 . S
C571 H593 0.950 . S
C572 H568 0.949 . S
C572 C580 1.574 . S
C572 C588 1.368 . S
H573 C581 0.950 . S
H574 C579 0.950 . S
H575 C580 0.945 1_545 S
H576 C582 0.950 . S
H577 C583 0.950 . S
H578 C584 0.949 . S
C579 H574 0.950 . S
C579 C581 1.327 . S
C579 C585 1.429 . S
C580 C572 1.574 . S
C580 H575 0.945 1_565 S
C580 C586 1.368 1_565 S
C581 C565 1.349 . S
C581 H573 0.950 . S
C581 C579 1.327 . S
C582 C570 1.349 . S
C582 H576 0.950 . S
C582 C583 1.327 . S
C583 H577 0.950 . S
C583 C582 1.327 . S
C583 C587 1.429 . S
C584 C567 1.574 1_565 S
C584 H578 0.949 . S
C584 C588 1.368 . S
C585 C566 1.429 . S
C585 C579 1.429 . S
C585 C586 1.523 . S
C586 C567 1.368 . S
C586 C580 1.368 1_545 S
C586 C585 1.523 . S
C587 C571 1.429 . S
C587 C583 1.429 . S
C587 C588 1.523 . S
C588 C572 1.368 . S
C588 C584 1.368 . S
C588 C587 1.523 . S
H589 C564 0.950 . S
H590 C566 0.950 . S
H591 C567 0.949 . S
H592 C569 0.950 . S
H593 C571 0.950 . S
C594 C595 1.349 . S
C594 C596 1.327 . S
C594 H619 0.950 . S
C595 C594 1.349 . S
C595 C611 1.349 . S
C596 C594 1.327 . S
C596 C615 1.429 . S
C596 H620 0.950 . S
C597 C614 1.574 . S
C597 C616 1.368 . S
C597 H621 0.949 . S
H598 C602 0.949 . S
C599 C600 1.349 . S
C599 C601 1.327 . S
C599 H622 0.950 . S
C600 C599 1.349 . S
C600 C612 1.349 . S
C601 C599 1.327 . S
C601 C617 1.429 . S
C601 H623 0.950 . S
C602 H598 0.949 . S
C602 C610 1.574 . S
C602 C618 1.368 . S
H603 C611 0.950 . S
H604 C609 0.950 . S
H605 C610 0.949 . S
H606 C612 0.950 . S
H607 C613 0.950 . S
H608 C614 0.949 . S
C609 H604 0.950 . S
C609 C611 1.327 . S
C609 C615 1.429 . S
C610 C602 1.574 . S
C610 H605 0.949 . S
C610 C616 1.368 . S
C611 C595 1.349 . S
C611 H603 0.950 . S
C611 C609 1.327 . S
C612 C600 1.349 . S
C612 H606 0.950 . S
C612 C613 1.327 . S
C613 H607 0.950 . S
C613 C612 1.327 . S
C613 C617 1.429 . S
C614 C597 1.574 . S
C614 H608 0.949 . S
C614 C618 1.368 . S
C615 C596 1.429 . S
C615 C609 1.429 . S
C615 C616 1.523 . S
C616 C597 1.368 . S
C616 C610 1.368 . S
C616 C615 1.523 . S
C617 C601 1.429 . S
C617 C613 1.429 . S
C617 C618 1.523 . S
C618 C602 1.368 . S
C618 C614 1.368 . S
C618 C617 1.523 . S
H619 C594 0.950 . S
H620 C596 0.950 . S
H621 C597 0.949 . S
H622 C599 0.950 . S
H623 C601 0.950 . S
C624 C625 1.349 . S
C624 C626 1.327 . S
C624 H649 0.950 . S
C625 C624 1.349 . S
C625 C641 1.349 . S
C626 C624 1.327 . S
C626 C645 1.429 . S
C626 H650 0.950 . S
C627 C644 1.574 1_455 S
C627 C646 1.368 . S
C627 H651 0.949 . S
H628 C632 0.949 . S
C629 C630 1.349 . S
C629 C631 1.327 . S
C629 H652 0.950 . S
C630 C629 1.349 . S
C630 C642 1.349 . S
C631 C629 1.327 . S
C631 C647 1.429 . S
C631 H653 0.950 . S
C632 H628 0.949 . S
C632 C640 1.574 1_655 S
C632 C648 1.368 . S
H633 C641 0.950 . S
H634 C639 0.950 . S
H635 C640 0.949 . S
H636 C642 0.950 . S
H637 C643 0.950 . S
H638 C644 0.949 . S
C639 H634 0.950 . S
C639 C641 1.327 . S
C639 C645 1.429 . S
C640 C632 1.574 1_455 S
C640 H635 0.949 . S
C640 C646 1.368 . S
C641 C625 1.349 . S
C641 H633 0.950 . S
C641 C639 1.327 . S
C642 C630 1.349 . S
C642 H636 0.950 . S
C642 C643 1.327 . S
C643 H637 0.950 . S
C643 C642 1.327 . S
C643 C647 1.429 . S
C644 C627 1.574 1_655 S
C644 H638 0.949 . S
C644 C648 1.368 . S
C645 C626 1.429 . S
C645 C639 1.429 . S
C645 C646 1.523 . S
C646 C627 1.368 . S
C646 C640 1.368 . S
C646 C645 1.523 . S
C647 C631 1.429 . S
C647 C643 1.429 . S
C647 C648 1.523 . S
C648 C632 1.368 . S
C648 C644 1.368 . S
C648 C647 1.523 . S
H649 C624 0.950 . S
H650 C626 0.950 . S
H651 C627 0.949 . S
H652 C629 0.950 . S
H653 C631 0.950 . S
C654 C655 1.349 . S
C654 C656 1.327 . S
C654 H679 0.950 . S
C655 C654 1.349 . S
C655 C671 1.349 . S
C656 C654 1.327 . S
C656 C675 1.429 . S
C656 H680 0.950 . S
C657 C674 1.574 1_545 S
C657 C676 1.368 . S
C657 H681 0.949 . S
H658 C662 0.949 . S
C659 C660 1.349 . S
C659 C661 1.327 . S
C659 H682 0.950 . S
C660 C659 1.349 . S
C660 C672 1.349 . S
C661 C659 1.327 . S
C661 C677 1.429 . S
C661 H683 0.950 . S
C662 H658 0.949 . S
C662 C670 1.574 1_565 S
C662 C678 1.368 . S
H663 C671 0.950 . S
H664 C669 0.950 . S
H665 C670 0.949 . S
H666 C672 0.950 . S
H667 C673 0.950 . S
H668 C674 0.949 . S
C669 H664 0.950 . S
C669 C671 1.327 . S
C669 C675 1.429 . S
C670 C662 1.574 1_545 S
C670 H665 0.949 . S
C670 C676 1.368 . S
C671 C655 1.349 . S
C671 H663 0.950 . S
C671 C669 1.327 . S
C672 C660 1.349 . S
C672 H666 0.950 . S
C672 C673 1.327 . S
C673 H667 0.950 . S
C673 C672 1.327 . S
C673 C677 1.429 . S
C674 C657 1.574 1_565 S
C674 H668 0.949 . S
C674 C678 1.368 . S
C675 C656 1.429 . S
C675 C669 1.429 . S
C675 C676 1.523 . S
C676 C657 1.368 . S
C676 C670 1.368 . S
C676 C675 1.523 . S
C677 C661 1.429 . S
C677 C673 1.429 . S
C677 C678 1.523 . S
C678 C662 1.368 . S
C678 C674 1.368 . S
C678 C677 1.523 . S
H679 C654 0.950 . S
H680 C656 0.950 . S
H681 C657 0.949 . S
H682 C659 0.950 . S
H683 C661 0.950 . S
C684 C685 1.349 . S
C684 C686 1.327 . S
C684 H709 0.950 . S
C685 C684 1.349 . S
C685 C701 1.349 . S
C686 C684 1.327 . S
C686 C705 1.429 . S
C686 H710 0.950 . S
C687 C704 1.574 . S
C687 C706 1.368 . S
C687 H711 0.949 . S
H688 C692 0.949 . S
C689 C690 1.349 . S
C689 C691 1.327 . S
C689 H712 0.950 . S
C690 C689 1.349 . S
C690 C702 1.349 . S
C691 C689 1.327 . S
C691 C707 1.429 . S
C691 H713 0.950 . S
C692 H688 0.949 . S
C692 C700 1.574 . S
C692 C708 1.368 . S
H693 C701 0.950 . S
H694 C699 0.950 . S
H695 C700 0.949 . S
H696 C702 0.950 . S
H697 C703 0.950 . S
H698 C704 0.949 . S
C699 H694 0.950 . S
C699 C701 1.327 . S
C699 C705 1.429 . S
C700 C692 1.574 . S
C700 H695 0.949 . S
C700 C706 1.368 . S
C701 C685 1.349 . S
C701 H693 0.950 . S
C701 C699 1.327 . S
C702 C690 1.349 . S
C702 H696 0.950 . S
C702 C703 1.327 . S
C703 H697 0.950 . S
C703 C702 1.327 . S
C703 C707 1.429 . S
C704 C687 1.574 . S
C704 H698 0.949 . S
C704 C708 1.368 . S
C705 C686 1.429 . S
C705 C699 1.429 . S
C705 C706 1.523 . S
C706 C687 1.368 . S
C706 C700 1.368 . S
C706 C705 1.523 . S
C707 C691 1.429 . S
C707 C703 1.429 . S
C707 C708 1.523 . S
C708 C692 1.368 . S
C708 C704 1.368 . S
C708 C707 1.523 . S
H709 C684 0.950 . S
H710 C686 0.950 . S
H711 C687 0.949 . S
H712 C689 0.950 . S
H713 C691 0.950 . S
C714 C715 1.349 1_556 S
C714 C716 1.327 . S
C714 H739 0.950 1_556 S
C715 C714 1.349 1_554 S
C715 C731 1.349 . S
C716 C714 1.327 . S
C716 C735 1.429 . S
C716 H740 0.950 . S
C717 C734 1.574 . S
C717 C736 1.368 . S
C717 H741 0.949 . S
H718 C722 0.949 . S
C719 C720 1.349 . S
C719 C721 1.327 . S
C719 H742 0.950 . S
C720 C719 1.349 . S
C720 C732 1.349 . S
C721 C719 1.327 . S
C721 C737 1.429 . S
C721 H743 0.950 . S
C722 H718 0.949 . S
C722 C730 1.574 . S
C722 C738 1.368 . S
H723 C731 0.950 . S
H724 C729 0.950 . S
H725 C730 0.949 . S
H726 C732 0.950 . S
H727 C733 0.950 . S
H728 C734 0.949 . S
C729 H724 0.950 . S
C729 C731 1.327 1_556 S
C729 C735 1.429 . S
C730 C722 1.574 . S
C730 H725 0.949 . S
C730 C736 1.368 . S
C731 C715 1.349 . S
C731 H723 0.950 . S
C731 C729 1.327 1_554 S
C732 C720 1.349 . S
C732 H726 0.950 . S
C732 C733 1.327 . S
C733 H727 0.950 . S
C733 C732 1.327 . S
C733 C737 1.429 . S
C734 C717 1.574 . S
C734 H728 0.949 . S
C734 C738 1.368 . S
C735 C716 1.429 . S
C735 C729 1.429 . S
C735 C736 1.523 . S
C736 C717 1.368 . S
C736 C730 1.368 . S
C736 C735 1.523 . S
C737 C721 1.429 . S
C737 C733 1.429 . S
C737 C738 1.523 . S
C738 C722 1.368 . S
C738 C734 1.368 . S
C738 C737 1.523 . S
H739 C714 0.950 1_554 S
H740 C716 0.950 . S
H741 C717 0.949 . S
H742 C719 0.950 . S
H743 C721 0.950 . S
C744 C745 1.349 . S
C744 C746 1.327 . S
C744 H769 0.950 . S
C745 C744 1.349 . S
C745 C761 1.349 . S
C746 C744 1.327 . S
C746 C765 1.429 . S
C746 H770 0.950 . S
C747 C764 1.574 . S
C747 C766 1.368 . S
C747 H771 0.949 . S
H748 C752 0.949 . S
C749 C750 1.349 1_554 S
C749 C751 1.327 . S
C749 H772 0.950 1_554 S
C750 C749 1.349 1_556 S
C750 C762 1.349 1_556 S
C751 C749 1.327 . S
C751 C767 1.429 . S
C751 H773 0.950 . S
C752 H748 0.949 . S
C752 C760 1.574 . S
C752 C768 1.368 . S
H753 C761 0.950 . S
H754 C759 0.950 . S
H755 C760 0.949 . S
H756 C762 0.950 1_556 S
H757 C763 0.950 . S
H758 C764 0.949 . S
C759 H754 0.950 . S
C759 C761 1.327 . S
C759 C765 1.429 . S
C760 C752 1.574 . S
C760 H755 0.949 . S
C760 C766 1.368 . S
C761 C745 1.349 . S
C761 H753 0.950 . S
C761 C759 1.327 . S
C762 C750 1.349 1_554 S
C762 H756 0.950 1_554 S
C762 C763 1.327 . S
C763 H757 0.950 . S
C763 C762 1.327 . S
C763 C767 1.429 . S
C764 C747 1.574 . S
C764 H758 0.949 . S
C764 C768 1.368 . S
C765 C746 1.429 . S
C765 C759 1.429 . S
C765 C766 1.523 . S
C766 C747 1.368 . S
C766 C760 1.368 . S
C766 C765 1.523 . S
C767 C751 1.429 . S
C767 C763 1.429 . S
C767 C768 1.523 . S
C768 C752 1.368 . S
C768 C764 1.368 . S
C768 C767 1.523 . S
H769 C744 0.950 . S
H770 C746 0.950 . S
H771 C747 0.949 . S
H772 C749 0.950 1_556 S
H773 C751 0.950 . S
C774 C775 1.349 . S
C774 C776 1.327 . S
C774 H799 0.950 . S
C775 C774 1.349 . S
C775 C791 1.349 . S
C776 C774 1.327 . S
C776 C795 1.429 . S
C776 H800 0.950 . S
C777 C794 1.574 . S
C777 C796 1.368 . S
C777 H801 0.949 . S
H778 C782 0.949 . S
C779 C780 1.349 . S
C779 C781 1.327 . S
C779 H802 0.950 . S
C780 C779 1.349 . S
C780 C792 1.349 . S
C781 C779 1.327 . S
C781 C797 1.429 . S
C781 H803 0.950 . S
C782 H778 0.949 . S
C782 C790 1.574 . S
C782 C798 1.368 . S
H783 C791 0.950 . S
H784 C789 0.950 . S
H785 C790 0.949 . S
H786 C792 0.950 . S
H787 C793 0.950 . S
H788 C794 0.949 . S
C789 H784 0.950 . S
C789 C791 1.327 . S
C789 C795 1.429 . S
C790 C782 1.574 . S
C790 H785 0.949 . S
C790 C796 1.368 . S
C791 C775 1.349 . S
C791 H783 0.950 . S
C791 C789 1.327 . S
C792 C780 1.349 . S
C792 H786 0.950 . S
C792 C793 1.327 . S
C793 H787 0.950 . S
C793 C792 1.327 . S
C793 C797 1.429 . S
C794 C777 1.574 . S
C794 H788 0.949 . S
C794 C798 1.368 . S
C795 C776 1.429 . S
C795 C789 1.429 . S
C795 C796 1.523 . S
C796 C777 1.368 . S
C796 C790 1.368 . S
C796 C795 1.523 . S
C797 C781 1.429 . S
C797 C793 1.429 . S
C797 C798 1.523 . S
C798 C782 1.368 . S
C798 C794 1.368 . S
C798 C797 1.523 . S
H799 C774 0.950 . S
H800 C776 0.950 . S
H801 C777 0.949 . S
H802 C779 0.950 . S
H803 C781 0.950 . S
C804 C805 1.349 . S
C804 C806 1.327 . S
C804 H829 0.950 . S
C805 C804 1.349 . S
C805 C821 1.349 . S
C806 C804 1.327 . S
C806 C825 1.429 . S
C806 H830 0.950 . S
C807 C824 1.574 . S
C807 C826 1.368 . S
C807 H831 0.949 . S
H808 C812 0.949 . S
C809 C810 1.349 . S
C809 C811 1.327 1_554 S
C809 H832 0.950 . S
C810 C809 1.349 . S
C810 C822 1.349 1_554 S
C811 C809 1.327 1_556 S
C811 C827 1.429 . S
C811 H833 0.950 . S
C812 H808 0.949 . S
C812 C820 1.574 . S
C812 C828 1.368 . S
H813 C821 0.950 . S
H814 C819 0.950 . S
H815 C820 0.949 . S
H816 C822 0.950 1_554 S
H817 C823 0.950 . S
H818 C824 0.949 . S
C819 H814 0.950 . S
C819 C821 1.327 . S
C819 C825 1.429 . S
C820 C812 1.574 . S
C820 H815 0.949 . S
C820 C826 1.368 . S
C821 C805 1.349 . S
C821 H813 0.950 . S
C821 C819 1.327 . S
C822 C810 1.349 1_556 S
C822 H816 0.950 1_556 S
C822 C823 1.327 . S
C823 H817 0.950 . S
C823 C822 1.327 . S
C823 C827 1.429 . S
C824 C807 1.574 . S
C824 H818 0.949 . S
C824 C828 1.368 . S
C825 C806 1.429 . S
C825 C819 1.429 . S
C825 C826 1.523 . S
C826 C807 1.368 . S
C826 C820 1.368 . S
C826 C825 1.523 . S
C827 C811 1.429 . S
C827 C823 1.429 . S
C827 C828 1.523 . S
C828 C812 1.368 . S
C828 C824 1.368 . S
C828 C827 1.523 . S
H829 C804 0.950 . S
H830 C806 0.950 . S
H831 C807 0.949 . S
H832 C809 0.950 . S
H833 C811 0.950 . S
C834 C835 1.349 . S
C834 C836 1.327 . S
C834 H859 0.950 . S
C835 C834 1.349 . S
C835 C851 1.349 . S
C836 C834 1.327 . S
C836 C855 1.429 . S
C836 H860 0.950 . S
C837 C854 1.574 . S
C837 C856 1.368 . S
C837 H861 0.949 . S
H838 C842 0.949 . S
C839 C840 1.349 1_554 S
C839 C841 1.327 . S
C839 H862 0.950 1_554 S
C840 C839 1.349 1_556 S
C840 C852 1.349 1_556 S
C841 C839 1.327 . S
C841 C857 1.429 . S
C841 H863 0.950 . S
C842 H838 0.949 . S
C842 C850 1.574 . S
C842 C858 1.368 . S
H843 C851 0.950 . S
H844 C849 0.950 . S
H845 C850 0.949 . S
H846 C852 0.950 1_556 S
H847 C853 0.950 . S
H848 C854 0.949 . S
C849 H844 0.950 . S
C849 C851 1.327 . S
C849 C855 1.429 . S
C850 C842 1.574 . S
C850 H845 0.949 . S
C850 C856 1.368 . S
C851 C835 1.349 . S
C851 H843 0.950 . S
C851 C849 1.327 . S
C852 C840 1.349 1_554 S
C852 H846 0.950 1_554 S
C852 C853 1.327 . S
C853 H847 0.950 . S
C853 C852 1.327 . S
C853 C857 1.429 . S
C854 C837 1.574 . S
C854 H848 0.949 . S
C854 C858 1.368 . S
C855 C836 1.429 . S
C855 C849 1.429 . S
C855 C856 1.523 . S
C856 C837 1.368 . S
C856 C850 1.368 . S
C856 C855 1.523 . S
C857 C841 1.429 . S
C857 C853 1.429 . S
C857 C858 1.523 . S
C858 C842 1.368 . S
C858 C854 1.368 . S
C858 C857 1.523 . S
H859 C834 0.950 . S
H860 C836 0.950 . S
H861 C837 0.949 . S
H862 C839 0.950 1_556 S
H863 C841 0.950 . S
C864 C865 1.349 . S
C864 C866 1.327 . S
C864 H889 0.950 . S
C865 C864 1.349 . S
C865 C881 1.349 . S
C866 C864 1.327 . S
C866 C885 1.429 . S
C866 H890 0.950 . S
C867 C884 1.574 . S
C867 C886 1.368 . S
C867 H891 0.949 . S
H868 C872 0.949 . S
C869 C870 1.349 . S
C869 C871 1.327 . S
C869 H892 0.950 . S
C870 C869 1.349 . S
C870 C882 1.349 . S
C871 C869 1.327 . S
C871 C887 1.429 . S
C871 H893 0.950 . S
C872 H868 0.949 . S
C872 C880 1.574 . S
C872 C888 1.368 . S
H873 C881 0.950 . S
H874 C879 0.950 . S
H875 C880 0.949 . S
H876 C882 0.950 . S
H877 C883 0.950 . S
H878 C884 0.949 . S
C879 H874 0.950 . S
C879 C881 1.327 . S
C879 C885 1.429 . S
C880 C872 1.574 . S
C880 H875 0.949 . S
C880 C886 1.368 . S
C881 C865 1.349 . S
C881 H873 0.950 . S
C881 C879 1.327 . S
C882 C870 1.349 . S
C882 H876 0.950 . S
C882 C883 1.327 . S
C883 H877 0.950 . S
C883 C882 1.327 . S
C883 C887 1.429 . S
C884 C867 1.574 . S
C884 H878 0.949 . S
C884 C888 1.368 . S
C885 C866 1.429 . S
C885 C879 1.429 . S
C885 C886 1.523 . S
C886 C867 1.368 . S
C886 C880 1.368 . S
C886 C885 1.523 . S
C887 C871 1.429 . S
C887 C883 1.429 . S
C887 C888 1.523 . S
C888 C872 1.368 . S
C888 C884 1.368 . S
C888 C887 1.523 . S
H889 C864 0.950 . S
H890 C866 0.950 . S
H891 C867 0.949 . S
H892 C869 0.950 . S
H893 C871 0.950 . S
C894 C895 1.349 . S
C894 C896 1.327 . S
C894 H919 0.950 . S
C895 C894 1.349 . S
C895 C911 1.349 . S
C896 C894 1.327 . S
C896 C915 1.429 . S
C896 H920 0.950 . S
C897 C914 1.574 . S
C897 C916 1.368 . S
C897 H921 0.949 . S
H898 C902 0.949 . S
C899 C900 1.349 . S
C899 C901 1.327 . S
C899 H922 0.950 . S
C900 C899 1.349 . S
C900 C912 1.349 . S
C901 C899 1.327 . S
C901 C917 1.429 . S
C901 H923 0.950 . S
C902 H898 0.949 . S
C902 C910 1.574 . S
C902 C918 1.368 . S
H903 C911 0.950 . S
H904 C909 0.950 . S
H905 C910 0.949 . S
H906 C912 0.950 . S
H907 C913 0.950 . S
H908 C914 0.949 . S
C909 H904 0.950 . S
C909 C911 1.327 . S
C909 C915 1.429 . S
C910 C902 1.574 . S
C910 H905 0.949 . S
C910 C916 1.368 . S
C911 C895 1.349 . S
C911 H903 0.950 . S
C911 C909 1.327 . S
C912 C900 1.349 . S
C912 H906 0.950 . S
C912 C913 1.327 . S
C913 H907 0.950 . S
C913 C912 1.327 . S
C913 C917 1.429 . S
C914 C897 1.574 . S
C914 H908 0.949 . S
C914 C918 1.368 . S
C915 C896 1.429 . S
C915 C909 1.429 . S
C915 C916 1.523 . S
C916 C897 1.368 . S
C916 C910 1.368 . S
C916 C915 1.523 . S
C917 C901 1.429 . S
C917 C913 1.429 . S
C917 C918 1.523 . S
C918 C902 1.368 . S
C918 C914 1.368 . S
C918 C917 1.523 . S
H919 C894 0.950 . S
H920 C896 0.950 . S
H921 C897 0.949 . S
H922 C899 0.950 . S
H923 C901 0.950 . S
C924 C925 1.349 . S
C924 C926 1.327 . S
C924 H949 0.950 . S
C925 C924 1.349 . S
C925 C941 1.349 . S
C926 C924 1.327 . S
C926 C945 1.429 . S
C926 H950 0.950 . S
C927 C944 1.574 . S
C927 C946 1.368 . S
C927 H951 0.949 . S
H928 C932 0.949 . S
C929 C930 1.349 . S
C929 C931 1.327 . S
C929 H952 0.950 . S
C930 C929 1.349 . S
C930 C942 1.349 . S
C931 C929 1.327 . S
C931 C947 1.429 . S
C931 H953 0.950 . S
C932 H928 0.949 . S
C932 C940 1.574 . S
C932 C948 1.368 . S
H933 C941 0.950 . S
H934 C939 0.950 . S
H935 C940 0.949 . S
H936 C942 0.950 . S
H937 C943 0.950 . S
H938 C944 0.949 . S
C939 H934 0.950 . S
C939 C941 1.327 . S
C939 C945 1.429 . S
C940 C932 1.574 . S
C940 H935 0.949 . S
C940 C946 1.368 . S
C941 C925 1.349 . S
C941 H933 0.950 . S
C941 C939 1.327 . S
C942 C930 1.349 . S
C942 H936 0.950 . S
C942 C943 1.327 . S
C943 H937 0.950 . S
C943 C942 1.327 . S
C943 C947 1.429 . S
C944 C927 1.574 . S
C944 H938 0.949 . S
C944 C948 1.368 . S
C945 C926 1.429 . S
C945 C939 1.429 . S
C945 C946 1.523 . S
C946 C927 1.368 . S
C946 C940 1.368 . S
C946 C945 1.523 . S
C947 C931 1.429 . S
C947 C943 1.429 . S
C947 C948 1.523 . S
C948 C932 1.368 . S
C948 C944 1.368 . S
C948 C947 1.523 . S
H949 C924 0.950 . S
H950 C926 0.950 . S
H951 C927 0.949 . S
H952 C929 0.950 . S
H953 C931 0.950 . S
C954 C955 1.349 . S
C954 C956 1.327 . S
C954 H979 0.950 . S
C955 C954 1.349 . S
C955 C971 1.349 . S
C956 C954 1.327 . S
C956 C975 1.429 . S
C956 H980 0.950 . S
C957 C974 1.574 . S
C957 C976 1.368 . S
C957 H981 0.949 . S
H958 C962 0.949 . S
C959 C960 1.349 . S
C959 C961 1.327 . S
C959 H982 0.950 . S
C960 C959 1.349 . S
C960 C972 1.349 . S
C961 C959 1.327 . S
C961 C977 1.429 . S
C961 H983 0.950 . S
C962 H958 0.949 . S
C962 C970 1.574 . S
C962 C978 1.368 . S
H963 C971 0.950 . S
H964 C969 0.950 . S
H965 C970 0.949 . S
H966 C972 0.950 . S
H967 C973 0.950 . S
H968 C974 0.949 . S
C969 H964 0.950 . S
C969 C971 1.327 . S
C969 C975 1.429 . S
C970 C962 1.574 . S
C970 H965 0.949 . S
C970 C976 1.368 . S
C971 C955 1.349 . S
C971 H963 0.950 . S
C971 C969 1.327 . S
C972 C960 1.349 . S
C972 H966 0.950 . S
C972 C973 1.327 . S
C973 H967 0.950 . S
C973 C972 1.327 . S
C973 C977 1.429 . S
C974 C957 1.574 . S
C974 H968 0.949 . S
C974 C978 1.368 . S
C975 C956 1.429 . S
C975 C969 1.429 . S
C975 C976 1.523 . S
C976 C957 1.368 . S
C976 C970 1.368 . S
C976 C975 1.523 . S
C977 C961 1.429 . S
C977 C973 1.429 . S
C977 C978 1.523 . S
C978 C962 1.368 . S
C978 C974 1.368 . S
C978 C977 1.523 . S
H979 C954 0.950 . S
H980 C956 0.950 . S
H981 C957 0.949 . S
H982 C959 0.950 . S
H983 C961 0.950 . S
C984 C985 1.349 . S
C984 C986 1.327 . S
C984 H1009 0.950 . S
C985 C984 1.349 . S
C985 C1001 1.349 . S
C986 C984 1.327 . S
C986 C1005 1.429 . S
C986 H1010 0.950 . S
C987 C1004 1.574 . S
C987 C1006 1.368 . S
C987 H1011 0.949 . S
H988 C992 0.949 . S
C989 C990 1.349 . S
C989 C991 1.327 . S
C989 H1012 0.950 . S
C990 C989 1.349 . S
C990 C1002 1.349 . S
C991 C989 1.327 . S
C991 C1007 1.429 . S
C991 H1013 0.950 . S
C992 H988 0.949 . S
C992 C1000 1.574 . S
C992 C1008 1.368 . S
H993 C1001 0.950 . S
H994 C999 0.950 . S
H995 C1000 0.949 . S
H996 C1002 0.950 . S
H997 C1003 0.950 . S
H998 C1004 0.949 . S
C999 H994 0.950 . S
C999 C1001 1.327 . S
C999 C1005 1.429 . S
C1000 C992 1.574 . S
C1000 H995 0.949 . S
C1000 C1006 1.368 . S
C1001 C985 1.349 . S
C1001 H993 0.950 . S
C1001 C999 1.327 . S
C1002 C990 1.349 . S
C1002 H996 0.950 . S
C1002 C1003 1.327 . S
C1003 H997 0.950 . S
C1003 C1002 1.327 . S
C1003 C1007 1.429 . S
C1004 C987 1.574 . S
C1004 H998 0.949 . S
C1004 C1008 1.368 . S
C1005 C986 1.429 . S
C1005 C999 1.429 . S
C1005 C1006 1.523 . S
C1006 C987 1.368 . S
C1006 C1000 1.368 . S
C1006 C1005 1.523 . S
C1007 C991 1.429 . S
C1007 C1003 1.429 . S
C1007 C1008 1.523 . S
C1008 C992 1.368 . S
C1008 C1004 1.368 . S
C1008 C1007 1.523 . S
H1009 C984 0.950 . S
H1010 C986 0.950 . S
H1011 C987 0.949 . S
H1012 C989 0.950 . S
H1013 C991 0.950 . S
C1014 C1015 1.349 . S
C1014 C1016 1.327 . S
C1014 H1039 0.950 . S
C1015 C1014 1.349 . S
C1015 C1031 1.349 . S
C1016 C1014 1.327 . S
C1016 C1035 1.429 . S
C1016 H1040 0.950 . S
C1017 C1034 1.574 . S
C1017 C1036 1.368 . S
C1017 H1041 0.949 . S
H1018 C1022 0.949 . S
C1019 C1020 1.349 . S
C1019 C1021 1.327 . S
C1019 H1042 0.950 . S
C1020 C1019 1.349 . S
C1020 C1032 1.349 . S
C1021 C1019 1.327 . S
C1021 C1037 1.429 . S
C1021 H1043 0.950 . S
C1022 H1018 0.949 . S
C1022 C1030 1.574 . S
C1022 C1038 1.368 . S
H1023 C1031 0.950 . S
H1024 C1029 0.950 . S
H1025 C1030 0.949 . S
H1026 C1032 0.950 . S
H1027 C1033 0.950 . S
H1028 C1034 0.949 . S
C1029 H1024 0.950 . S
C1029 C1031 1.327 . S
C1029 C1035 1.429 . S
C1030 C1022 1.574 . S
C1030 H1025 0.949 . S
C1030 C1036 1.368 . S
C1031 C1015 1.349 . S
C1031 H1023 0.950 . S
C1031 C1029 1.327 . S
C1032 C1020 1.349 . S
C1032 H1026 0.950 . S
C1032 C1033 1.327 . S
C1033 H1027 0.950 . S
C1033 C1032 1.327 . S
C1033 C1037 1.429 . S
C1034 C1017 1.574 . S
C1034 H1028 0.949 . S
C1034 C1038 1.368 . S
C1035 C1016 1.429 . S
C1035 C1029 1.429 . S
C1035 C1036 1.523 . S
C1036 C1017 1.368 . S
C1036 C1030 1.368 . S
C1036 C1035 1.523 . S
C1037 C1021 1.429 . S
C1037 C1033 1.429 . S
C1037 C1038 1.523 . S
C1038 C1022 1.368 . S
C1038 C1034 1.368 . S
C1038 C1037 1.523 . S
H1039 C1014 0.950 . S
H1040 C1016 0.950 . S
H1041 C1017 0.949 . S
H1042 C1019 0.950 . S
H1043 C1021 0.950 . S
C505 C494 1.431 . S
C510 C56 1.397 . S
C535 C74 1.431 . S
C540 C140 1.397 . S
C565 C158 1.431 . S
C570 C224 1.396 . S
C595 C242 1.431 . S
C600 C308 1.397 . S
C625 C392 1.397 . S
C630 C326 1.431 . S
C655 C476 1.396 . S
C660 C410 1.431 . S
C685 C58 1.314 . S
C690 C70 1.314 . S
C715 C142 1.314 . S
C720 C154 1.314 . S
C745 C226 1.314 . S
C750 C238 1.314 . S
C775 C310 1.314 . S
C780 C322 1.314 . S
C805 C406 1.314 . S
C810 C394 1.314 . S
C835 C478 1.314 . S
C840 C490 1.314 . S
C865 C67 1.311 . S
C870 C399 1.349 . S
C895 C151 1.311 . S
C900 C483 1.349 . S
C925 C63 1.349 . S
C930 C235 1.311 . S
C955 C147 1.349 . S
C960 C319 1.311 . S
C985 C403 1.311 . S
C990 C231 1.349 . S
C1015 C315 1.349 . S
C1020 C487 1.311 . S
