# Generated by pormake.
# Topology crr, (4)-cn, num edge types: 1
# Building blocks:
#     Node 0, Type 0, BuildingBlock: ESEHIV_clean_sbu_0, # of connection points: 4
#     Node 1, Type 0, BuildingBlock: ESEHIV_clean_sbu_0, # of connection points: 4
#     Node 2, Type 0, BuildingBlock: ESEHIV_clean_sbu_0, # of connection points: 4
#     Node 3, Type 0, BuildingBlock: ESEHIV_clean_sbu_0, # of connection points: 4
#     Node 4, Type 0, BuildingBlock: ESEHIV_clean_sbu_0, # of connection points: 4
#     Node 5, Type 0, BuildingBlock: ESEHIV_clean_sbu_0, # of connection points: 4
#     Node 6, Type 0, BuildingBlock: ESEHIV_clean_sbu_0, # of connection points: 4
#     Node 7, Type 0, BuildingBlock: ESEHIV_clean_sbu_0, # of connection points: 4
#     Node 8, Type 0, BuildingBlock: ESEHIV_clean_sbu_0, # of connection points: 4
#     Node 9, Type 0, BuildingBlock: ESEHIV_clean_sbu_0, # of connection points: 4
#     Node 10, Type 0, BuildingBlock: ESEHIV_clean_sbu_0, # of connection points: 4
#     Node 11, Type 0, BuildingBlock: ESEHIV_clean_sbu_0, # of connection points: 4
#     Edge 12, Type (0, 0), None
#     Edge 13, Type (0, 0), None
#     Edge 14, Type (0, 0), None
#     Edge 15, Type (0, 0), None
#     Edge 16, Type (0, 0), None
#     Edge 17, Type (0, 0), None
#     Edge 18, Type (0, 0), None
#     Edge 19, Type (0, 0), None
#     Edge 20, Type (0, 0), None
#     Edge 21, Type (0, 0), None
#     Edge 22, Type (0, 0), None
#     Edge 23, Type (0, 0), None
#     Edge 24, Type (0, 0), None
#     Edge 25, Type (0, 0), None
#     Edge 26, Type (0, 0), None
#     Edge 27, Type (0, 0), None
#     Edge 28, Type (0, 0), None
#     Edge 29, Type (0, 0), None
#     Edge 30, Type (0, 0), None
#     Edge 31, Type (0, 0), None
#     Edge 32, Type (0, 0), None
#     Edge 33, Type (0, 0), None
#     Edge 34, Type (0, 0), None
#     Edge 35, Type (0, 0), None
# Relax obj value: 0.049
# Max RMSD: 0.165
# Mean RMSD: 0.115
data_MOF--net-crr--node1-ESEHIV_clean_sbu_0--edge1-none
_symmetry_space_group_name_H-M    P1
_symmetry_Int_Tables_number       1
_symmetry_cell_setting            triclinic
loop_
_symmetry_equiv_pos_as_xyz
'x, y, z'
_cell_length_a     18.925953
_cell_length_b     22.844306
_cell_length_c     19.077295
_cell_angle_alpha  92.922761
_cell_angle_beta   80.15583
_cell_angle_gamma 86.797356
loop_
_atom_site_label
_atom_site_type_symbol
_atom_site_fract_x
_atom_site_fract_y
_atom_site_fract_z
_atom_type_partial_charge
Cu0 Cu 0.17635 0.41272 0.51324 0.0
N1 N 0.07893 0.43101 0.50416 0.0
N2 N 0.97978 0.48191 0.48294 0.0
C3 C 0.04636 0.48503 0.50002 0.0
C4 C 0.97032 0.42383 0.47642 0.0
C5 C 1.03128 0.39285 0.48878 0.0
O6 O 0.19696 0.42774 0.6099 0.0
C7 C 0.29789 0.46298 0.42185 0.0
O8 O 0.34395 0.43598 0.45552 0.0
H9 H 0.07245 0.52557 0.50573 0.0
H10 H 0.04117 0.34559 0.48451 0.0
N11 N 0.21078 0.33381 0.48788 0.0
N12 N 0.29891 0.26355 0.45026 0.0
C13 C 0.27168 0.318 0.44122 0.0
C14 C 0.19799 0.28625 0.52626 0.0
C15 C 0.25184 0.24261 0.50265 0.0
C16 C 0.171 0.40662 0.66925 0.0
O17 O 0.19955 0.42033 0.7255 0.0
H18 H 0.29736 0.34653 0.40271 0.0
H19 H 0.15556 0.28446 0.57159 0.0
O20 O 0.2304 0.46075 0.44307 0.0
H21 H 0.92359 0.40485 0.46116 0.0
H22 H 0.25771 0.20019 0.52464 0.0
Cu23 Cu 0.41179 0.91032 0.61995 0.0
N24 N 0.36503 0.84351 0.59319 0.0
N25 N 0.29183 0.76986 0.60987 0.0
C26 C 0.29856 0.82834 0.61958 0.0
C27 C 0.35486 0.74745 0.57208 0.0
C28 C 0.40028 0.79286 0.563 0.0
O29 O 0.4652 0.88343 0.69494 0.0
C30 C 0.44583 0.93321 0.47084 0.0
O31 O 0.42095 0.88187 0.45876 0.0
H32 H 0.25859 0.85845 0.65244 0.0
H33 H 0.4572 0.78825 0.54165 0.0
N34 N 0.35783 0.97559 0.67044 0.0
N35 N 0.37701 1.05141 0.7428 0.0
C36 C 0.39781 1.02148 0.67928 0.0
C37 C 0.30654 0.97895 0.72951 0.0
C38 C 0.31931 1.02503 0.77493 0.0
C39 C 0.42135 0.86355 0.74591 0.0
O40 O 0.35442 0.85988 0.73817 0.0
H41 H 0.44946 1.02563 0.6461 0.0
H42 H 0.26886 0.94585 0.74357 0.0
O43 O 0.45753 0.9476 0.53341 0.0
H44 H 0.36933 0.70122 0.55859 0.0
H45 H 0.2934 1.03419 0.82981 0.0
Cu46 Cu 0.90062 0.65066 0.43796 0.0
N47 N 0.85623 0.63203 0.35907 0.0
N48 N 0.80384 0.6508 0.26513 0.0
C49 C 0.85864 0.66233 0.29993 0.0
C50 C 0.76656 0.61067 0.30243 0.0
C51 C 0.79882 0.59931 0.36031 0.0
O52 O 0.83585 0.70694 0.50498 0.0
C53 C 0.9338 0.52629 0.46772 0.0
O54 O 0.87621 0.51317 0.44207 0.0
H55 H 0.89499 0.69672 0.28711 0.0
H56 H 0.77658 0.57435 0.40448 0.0
N57 N 0.97425 0.70107 0.41769 0.0
N58 N 1.02517 0.75303 0.49588 0.0
C59 C 1.01838 0.69946 0.46587 0.0
C60 C 0.95911 0.75899 0.41181 0.0
C61 C 0.98914 0.79114 0.46142 0.0
C62 C 0.78749 0.73786 0.48133 0.0
O63 O 0.75262 0.71279 0.43536 0.0
H64 H 1.03095 0.65957 0.49059 0.0
H65 H 0.91706 0.77608 0.38509 0.0
O66 O 0.94775 0.58026 0.4745 0.0
H67 H 0.71669 0.59413 0.29172 0.0
H68 H 0.97778 0.83737 0.47706 0.0
Cu69 Cu 0.61614 0.14728 0.72222 0.0
N70 N 0.70092 0.14918 0.76059 0.0
N71 N 0.79943 0.20069 0.75622 0.0
C72 C 0.75725 0.17085 0.71859 0.0
C73 C 0.76981 0.19635 0.82523 0.0
C74 C 0.70889 0.16483 0.82775 0.0
O75 O 0.6048 0.23138 0.71 0.0
C76 C 0.62151 1.04015 0.63245 0.0
O77 O 0.58057 1.0182 0.68594 0.0
H78 H 0.76015 0.17276 0.66166 0.0
H79 H 0.66805 0.16163 0.87431 0.0
N80 N 0.53031 0.12337 0.7741 0.0
N81 N 0.42372 0.08464 0.77676 0.0
C82 C 0.47281 0.11819 0.74176 0.0
C83 C 0.51657 0.09312 0.83313 0.0
C84 C 0.45061 0.06905 0.83484 0.0
C85 C 0.59084 0.26112 0.76998 0.0
O86 O 0.56192 0.23463 0.82644 0.0
H87 H 0.47201 0.13151 0.68822 0.0
H88 H 0.55503 0.08347 0.86756 0.0
O89 O 0.63937 0.09349 0.63697 0.0
H90 H 0.78574 0.21979 0.87011 0.0
H91 H 0.42906 1.03649 0.87046 0.0
Cu92 Cu 0.1387 0.66274 0.6865 0.0
N93 N 0.16385 0.65765 0.77732 0.0
N94 N 0.24082 0.67473 0.8522 0.0
C95 C 0.18893 0.69837 0.81909 0.0
C96 C 0.24731 0.61713 0.83274 0.0
C97 C 0.19914 0.60669 0.78787 0.0
O98 O 0.22998 0.68545 0.6313 0.0
C99 C 1.0297 0.58458 0.65591 0.0
O100 O 0.99949 0.62958 0.62968 0.0
H101 H 0.17628 0.7451 0.81861 0.0
H102 H 0.19728 0.56589 0.75707 0.0
N103 N 0.07853 0.72108 0.65778 0.0
N104 N 0.04127 0.76156 0.56502 0.0
C105 C 0.09176 0.72754 0.58722 0.0
C106 C 1.01731 0.75387 0.6828 0.0
C107 C 0.99372 0.77861 0.625 0.0
C108 C 0.2367 0.74064 0.64376 0.0
O109 O 0.18807 0.77049 0.6916 0.0
H110 H 0.13306 0.70107 0.55108 0.0
H111 H 0.9885 0.75501 0.737 0.0
O112 O 0.09285 0.58786 0.6717 0.0
H113 H 0.28629 0.58547 0.84717 0.0
H114 H 0.94214 0.80163 0.62641 0.0
Cu115 Cu 0.69051 0.94946 0.44155 0.0
N116 N 0.75656 0.89187 0.46683 0.0
N117 N 0.78327 0.79793 0.48959 0.0
C118 C 0.74444 0.83466 0.45535 0.0
C119 C 0.8211 0.83341 0.52555 0.0
C120 C 0.80466 0.89126 0.51157 0.0
O121 O 0.664 0.90822 0.35711 0.0
C122 C 0.65992 1.00068 0.57351 0.0
O123 O 0.72744 1.01033 0.55082 0.0
H124 H 0.70575 0.82014 0.42359 0.0
H125 H 0.82456 0.92971 0.53495 0.0
N126 N 0.70687 1.02753 0.41122 0.0
N127 N 0.64346 0.11085 0.39342 0.0
C128 C 0.65539 0.07007 0.43921 0.0
C129 C 0.73135 1.04543 0.3453 0.0
C130 C 0.69203 0.09607 0.3341 0.0
C131 C 0.72015 0.90113 0.30832 0.0
O132 O 0.78086 0.91946 0.32303 0.0
H133 H 0.61607 0.06487 0.48588 0.0
H134 H 0.76822 1.02044 0.30382 0.0
O135 O 0.62718 0.96886 0.53347 0.0
H136 H 0.85741 0.81876 0.55976 0.0
H137 H 0.69372 0.11628 0.28376 0.0
Cu138 Cu 0.96719 0.38106 0.75995 0.0
N139 N 0.92025 0.31763 0.72513 0.0
N140 N 0.84933 0.24172 0.72889 0.0
C141 C 0.8838 0.27893 0.76665 0.0
C142 C 0.86494 0.25721 0.6608 0.0
C143 C 0.90857 0.30406 0.65873 0.0
O144 O 0.92506 0.3907 0.86068 0.0
C145 C 0.1041 0.37519 0.67942 0.0
O146 O 0.06723 0.37183 0.62749 0.0
H147 H 0.88064 0.27946 0.82381 0.0
H148 H 0.92818 0.32788 0.61252 0.0
N149 N 0.95609 0.45228 0.71664 0.0
N150 N 0.99096 0.53675 0.67117 0.0
C151 C 1.00706 0.49183 0.70989 0.0
C152 C 0.90498 0.47359 0.68198 0.0
C153 C 0.92587 0.52625 0.65479 0.0
C154 C 0.85713 0.40123 0.87712 0.0
O155 O 0.82033 0.41236 0.82659 0.0
H156 H 0.05486 0.48809 0.7338 0.0
H157 H 0.85659 0.45214 0.67618 0.0
O158 O 0.0718 0.36836 0.74275 0.0
H159 H 0.84435 0.23783 0.61611 0.0
H160 H 0.89577 0.55428 0.62472 0.0
Cu161 Cu 0.45184 0.13895 0.34907 0.0
N162 N 0.42423 0.15814 0.26253 0.0
N163 N 0.39132 0.22601 0.19154 0.0
C164 C 0.44055 0.20841 0.231 0.0
C165 C 0.34387 0.18392 0.19553 0.0
C166 C 0.36413 0.14227 0.23963 0.0
O167 O 0.38075 0.18384 0.42233 0.0
C168 C 0.57981 0.14361 0.39963 0.0
O169 O 0.53586 0.14839 0.4613 0.0
H170 H 0.48188 0.23548 0.24471 0.0
H171 H 0.33197 0.10749 0.26097 0.0
N172 N 0.44676 0.05834 0.36585 0.0
N173 N 0.44964 0.9729 0.4192 0.0
C174 C 0.45509 1.0317 0.42617 0.0
C175 C 0.43708 1.01469 0.31911 0.0
C176 C 0.43817 0.96224 0.35188 0.0
C177 C 0.36197 0.23724 0.41404 0.0
O178 O 0.40235 0.26622 0.36669 0.0
H179 H 0.46215 1.05512 0.47498 0.0
H180 H 0.42925 1.02061 0.26502 0.0
O181 O 0.55328 0.15326 0.34421 0.0
H182 H 0.29363 0.18674 0.17565 0.0
H183 H 0.42981 0.91962 0.32826 0.0
Cu184 Cu 0.39313 0.45863 0.20572 0.0
N185 N 0.37227 0.38242 0.17765 0.0
N186 N 0.37813 0.28419 0.17248 0.0
C187 C 0.40153 0.33336 0.20065 0.0
C188 C 0.33216 0.30265 0.13021 0.0
C189 C 0.3292 0.36349 0.13296 0.0
O190 O 0.37972 0.46084 0.31085 0.0
C191 C 0.50501 0.462 0.08941 0.0
O192 O 0.45124 0.45507 0.05508 0.0
H193 H 0.43767 0.33405 0.23885 0.0
H194 H 0.29758 0.39176 0.10469 0.0
N195 N 0.3328 0.51845 0.17801 0.0
N196 N 0.2955 0.60885 0.15443 0.0
C197 C 0.35075 0.5741 0.16869 0.0
C198 C 0.26366 0.51807 0.16874 0.0
C199 C 0.24053 0.57395 0.15375 0.0
C200 C 0.32132 0.48265 0.34955 0.0
O201 O 0.27347 0.51107 0.31957 0.0
H202 H 0.40372 0.58869 0.17135 0.0
H203 H 0.23205 0.48001 0.17313 0.0
O204 O 0.49228 0.46685 0.15757 0.0
H205 H 0.30237 0.27441 0.10037 0.0
H206 H 0.18881 0.5872 0.14061 0.0
Cu207 Cu 0.40119 0.72908 0.95693 0.0
N208 N 0.42755 0.79796 0.90929 0.0
N209 N 0.44007 0.84541 0.80756 0.0
C210 C 0.39531 0.81848 0.85697 0.0
C211 C 0.50356 0.84414 0.83003 0.0
C212 C 0.49577 0.8146 0.8925 0.0
O213 O 0.34473 0.68314 0.89894 0.0
C214 C 0.51559 0.72006 1.02568 0.0
O215 O 0.47999 0.76799 0.05719 0.0
H216 H 0.34224 0.80821 0.84984 0.0
H217 H 0.53948 0.80047 0.91873 0.0
N218 N 0.34508 0.72883 1.0485 0.0
N219 N 0.3011 0.66535 0.12803 0.0
C220 C 0.35894 0.68116 0.08409 0.0
C221 C 0.275 0.74469 0.07305 0.0
C222 C 0.24743 0.70498 0.12178 0.0
C223 C 0.28232 0.70437 0.89149 0.0
O224 O 0.25855 0.75645 0.921 0.0
H225 H 0.4066 0.65203 0.06864 0.0
H226 H 0.24374 0.77806 1.05144 0.0
O227 O 0.49267 0.69372 0.9739 0.0
H228 H 0.55273 0.85948 0.80121 0.0
H229 H 0.19156 0.70236 0.14537 0.0
Cu230 Cu 0.6991 0.72886 0.12211 0.0
N231 N 0.75995 0.70833 1.03571 0.0
N232 N 0.78225 0.64429 0.94084 0.0
C233 C 0.7732 0.65157 1.01261 0.0
C234 C 0.77937 0.69915 0.91777 0.0
C235 C 0.76522 0.73857 0.97652 0.0
O236 O 0.60178 0.72908 0.10117 0.0
C237 C 0.78464 0.68046 0.21053 0.0
O238 O 0.8272 0.71876 0.17984 0.0
H239 H 0.76201 0.61654 1.04808 0.0
H240 H 0.74858 0.7846 0.97605 0.0
N241 N 0.71199 0.8042 0.15912 0.0
N242 N 0.72058 0.87448 0.2427 0.0
C243 C 0.68358 0.82868 0.2249 0.0
C244 C 0.76657 0.83676 0.13404 0.0
C245 C 0.77246 0.87953 0.18552 0.0
C246 C 0.58185 0.70007 1.04964 0.0
O247 O 0.62346 0.65713 1.01359 0.0
H248 H 0.64342 0.80871 0.26193 0.0
H249 H 0.80395 0.82646 0.08483 0.0
O250 O 0.72353 0.67505 0.19169 0.0
H251 H 0.77735 0.70979 0.86352 0.0
H252 H 0.81479 0.90979 0.18287 0.0
Cu253 Cu 0.68169 0.43536 0.9153 0.0
N254 N 0.71745 0.5072 0.88938 0.0
N255 N 0.76568 0.59313 0.90354 0.0
C256 C 0.74831 0.54209 0.93262 0.0
C257 C 0.74563 0.59 0.83888 0.0
C258 C 0.7159 0.53672 0.83027 0.0
O259 O 0.58923 0.44954 0.98065 0.0
C260 C 0.81925 0.38937 0.94853 0.0
O261 O 0.85618 0.36615 0.99372 0.0
H262 H 0.75446 0.53107 0.98578 0.0
H263 H 0.69206 0.52187 0.78549 0.0
N264 N 0.66394 0.38762 0.83702 0.0
N265 N 0.61961 0.31373 0.7795 0.0
C266 C 0.62203 0.34175 0.84322 0.0
C267 C 0.68791 0.38932 0.76633 0.0
C268 C 0.66108 0.34349 0.73076 0.0
C269 C 0.57908 0.45912 1.04834 0.0
O270 O 0.63432 0.46225 0.08136 0.0
H271 H 0.59617 0.32774 0.89418 0.0
H272 H 0.72391 0.42058 0.74212 0.0
O273 O 0.75094 0.397 0.96638 0.0
H274 H 0.74811 0.6248 0.80235 0.0
H275 H 0.67339 0.33171 0.67409 0.0
loop_
_geom_bond_atom_site_label_1
_geom_bond_atom_site_label_2
_geom_bond_distance
_geom_bond_site_symmetry_2
_ccdc_geom_bond_type
Cu0 N1 1.999 . S
Cu0 O6 1.974 . S
Cu0 N11 1.985 . S
Cu0 O20 1.959 . S
N1 Cu0 1.999 . S
N1 C3 1.267 . S
N1 C5 1.389 . S
N2 C3 1.353 1_655 S
N2 C4 1.400 . S
C3 N1 1.267 . S
C3 N2 1.353 1_455 S
C3 H9 0.931 . S
C4 N2 1.400 . S
C4 C5 1.351 1_655 S
C4 H21 0.930 . S
C5 N1 1.389 . S
C5 C4 1.351 1_455 S
C5 H10 0.930 . S
O6 Cu0 1.974 . S
O6 C16 1.282 . S
C7 O8 1.261 . S
C7 O20 1.251 . S
O8 C7 1.261 . S
H9 C3 0.931 . S
H10 C5 0.930 . S
N11 Cu0 1.985 . S
N11 C13 1.335 . S
N11 C14 1.390 . S
N12 C13 1.345 . S
N12 C15 1.336 . S
C13 N11 1.335 . S
C13 N12 1.345 . S
C13 H18 0.930 . S
C14 N11 1.390 . S
C14 C15 1.346 . S
C14 H19 0.930 . S
C15 N12 1.336 . S
C15 C14 1.346 . S
C15 H22 0.929 . S
C16 O6 1.282 . S
C16 O17 1.216 . S
O17 C16 1.216 . S
H18 C13 0.930 . S
H19 C14 0.930 . S
O20 Cu0 1.959 . S
O20 C7 1.251 . S
H21 C4 0.930 . S
H22 C15 0.929 . S
Cu23 N24 1.999 . S
Cu23 O29 1.974 . S
Cu23 N34 1.985 . S
Cu23 O43 1.959 . S
N24 Cu23 1.999 . S
N24 C26 1.263 . S
N24 C28 1.389 . S
N25 C26 1.358 . S
N25 C27 1.400 . S
C26 N24 1.263 . S
C26 N25 1.358 . S
C26 H32 0.930 . S
C27 N25 1.400 . S
C27 C28 1.351 . S
C27 H44 0.930 . S
C28 N24 1.389 . S
C28 C27 1.351 . S
C28 H33 0.930 . S
O29 Cu23 1.974 . S
O29 C39 1.282 . S
C30 O31 1.261 . S
C30 O43 1.251 . S
O31 C30 1.261 . S
H32 C26 0.930 . S
H33 C28 0.930 . S
N34 Cu23 1.985 . S
N34 C36 1.335 . S
N34 C37 1.390 . S
N35 C36 1.345 . S
N35 C38 1.336 . S
C36 N34 1.335 . S
C36 N35 1.345 . S
C36 H41 0.930 . S
C37 N34 1.390 . S
C37 C38 1.346 . S
C37 H42 0.930 . S
C38 N35 1.336 . S
C38 C37 1.346 . S
C38 H45 0.929 . S
C39 O29 1.282 . S
C39 O40 1.216 . S
O40 C39 1.216 . S
H41 C36 0.930 . S
H42 C37 0.930 . S
O43 Cu23 1.959 . S
O43 C30 1.251 . S
H44 C27 0.930 . S
H45 C38 0.929 . S
Cu46 N47 1.999 . S
Cu46 O52 1.974 . S
Cu46 N57 1.985 . S
Cu46 O66 1.959 . S
N47 Cu46 1.999 . S
N47 C49 1.263 . S
N47 C51 1.389 . S
N48 C49 1.358 . S
N48 C50 1.400 . S
C49 N47 1.263 . S
C49 N48 1.358 . S
C49 H55 0.930 . S
C50 N48 1.400 . S
C50 C51 1.351 . S
C50 H67 0.930 . S
C51 N47 1.389 . S
C51 C50 1.351 . S
C51 H56 0.930 . S
O52 Cu46 1.974 . S
O52 C62 1.282 . S
C53 O54 1.261 . S
C53 O66 1.251 . S
O54 C53 1.261 . S
H55 C49 0.930 . S
H56 C51 0.930 . S
N57 Cu46 1.985 . S
N57 C59 1.335 . S
N57 C60 1.390 . S
N58 C59 1.345 . S
N58 C61 1.336 . S
C59 N57 1.335 . S
C59 N58 1.345 . S
C59 H64 0.930 . S
C60 N57 1.390 . S
C60 C61 1.346 . S
C60 H65 0.930 . S
C61 N58 1.336 . S
C61 C60 1.346 . S
C61 H68 0.929 . S
C62 O52 1.282 . S
C62 O63 1.216 . S
O63 C62 1.216 . S
H64 C59 0.930 . S
H65 C60 0.930 . S
O66 Cu46 1.959 . S
O66 C53 1.251 . S
H67 C50 0.930 . S
H68 C61 0.929 . S
Cu69 N70 1.999 . S
Cu69 O75 1.974 . S
Cu69 N80 1.985 . S
Cu69 O89 1.959 . S
N70 Cu69 1.999 . S
N70 C72 1.263 . S
N70 C74 1.389 . S
N71 C72 1.358 . S
N71 C73 1.400 . S
C72 N70 1.263 . S
C72 N71 1.358 . S
C72 H78 0.930 . S
C73 N71 1.400 . S
C73 C74 1.351 . S
C73 H90 0.930 . S
C74 N70 1.389 . S
C74 C73 1.351 . S
C74 H79 0.930 . S
O75 Cu69 1.974 . S
O75 C85 1.282 . S
C76 O77 1.261 . S
C76 O89 1.251 1_565 S
O77 C76 1.261 . S
H78 C72 0.930 . S
H79 C74 0.930 . S
N80 Cu69 1.985 . S
N80 C82 1.335 . S
N80 C83 1.390 . S
N81 C82 1.345 1_565 S
N81 C84 1.336 1_565 S
C82 N80 1.335 . S
C82 N81 1.345 1_545 S
C82 H87 0.930 . S
C83 N80 1.390 . S
C83 C84 1.346 . S
C83 H88 0.930 . S
C84 N81 1.336 1_545 S
C84 C83 1.346 . S
C84 H91 0.929 1_545 S
C85 O75 1.282 . S
C85 O86 1.216 . S
O86 C85 1.216 . S
H87 C82 0.930 . S
H88 C83 0.930 . S
O89 Cu69 1.959 . S
O89 C76 1.251 1_545 S
H90 C73 0.930 . S
H91 C84 0.929 1_565 S
Cu92 N93 1.999 . S
Cu92 O98 1.974 . S
Cu92 N103 1.985 . S
Cu92 O112 1.959 . S
N93 Cu92 1.999 . S
N93 C95 1.263 . S
N93 C97 1.389 . S
N94 C95 1.358 . S
N94 C96 1.400 . S
C95 N93 1.263 . S
C95 N94 1.358 . S
C95 H101 0.930 . S
C96 N94 1.400 . S
C96 C97 1.351 . S
C96 H113 0.930 . S
C97 N93 1.389 . S
C97 C96 1.351 . S
C97 H102 0.930 . S
O98 Cu92 1.974 . S
O98 C108 1.282 . S
C99 O100 1.261 1_455 S
C99 O112 1.251 . S
O100 C99 1.261 1_655 S
H101 C95 0.930 . S
H102 C97 0.930 . S
N103 Cu92 1.985 . S
N103 C105 1.335 . S
N103 C106 1.390 . S
N104 C105 1.345 1_655 S
N104 C107 1.336 . S
C105 N103 1.335 . S
C105 N104 1.345 1_455 S
C105 H110 0.930 . S
C106 N103 1.390 . S
C106 C107 1.346 1_455 S
C106 H111 0.930 . S
C107 N104 1.336 . S
C107 C106 1.346 1_655 S
C107 H114 0.929 . S
C108 O98 1.282 . S
C108 O109 1.216 . S
O109 C108 1.216 . S
H110 C105 0.930 . S
H111 C106 0.930 . S
O112 Cu92 1.959 . S
O112 C99 1.251 . S
H113 C96 0.930 . S
H114 C107 0.929 . S
Cu115 N116 1.999 . S
Cu115 O121 1.974 . S
Cu115 N126 1.985 . S
Cu115 O135 1.959 . S
N116 Cu115 1.999 . S
N116 C118 1.263 . S
N116 C120 1.389 . S
N117 C118 1.358 . S
N117 C119 1.400 . S
C118 N116 1.263 . S
C118 N117 1.358 . S
C118 H124 0.930 . S
C119 N117 1.400 . S
C119 C120 1.351 . S
C119 H136 0.930 . S
C120 N116 1.389 . S
C120 C119 1.351 . S
C120 H125 0.930 . S
O121 Cu115 1.974 . S
O121 C131 1.282 . S
C122 O123 1.261 . S
C122 O135 1.251 . S
O123 C122 1.261 . S
H124 C118 0.930 . S
H125 C120 0.930 . S
N126 Cu115 1.985 . S
N126 C128 1.335 . S
N126 C129 1.390 . S
N127 C128 1.345 1_545 S
N127 C130 1.336 . S
C128 N126 1.335 . S
C128 N127 1.345 1_565 S
C128 H133 0.930 . S
C129 N126 1.390 . S
C129 C130 1.346 1_565 S
C129 H134 0.930 . S
C130 N127 1.336 . S
C130 C129 1.346 1_545 S
C130 H137 0.929 . S
C131 O121 1.282 . S
C131 O132 1.216 . S
O132 C131 1.216 . S
H133 C128 0.930 . S
H134 C129 0.930 . S
O135 Cu115 1.959 . S
O135 C122 1.251 . S
H136 C119 0.930 . S
H137 C130 0.929 . S
Cu138 N139 1.999 . S
Cu138 O144 1.974 . S
Cu138 N149 1.985 . S
Cu138 O158 1.959 1_655 S
N139 Cu138 1.999 . S
N139 C141 1.263 . S
N139 C143 1.389 . S
N140 C141 1.358 . S
N140 C142 1.400 . S
C141 N139 1.263 . S
C141 N140 1.358 . S
C141 H147 0.930 . S
C142 N140 1.400 . S
C142 C143 1.351 . S
C142 H159 0.930 . S
C143 N139 1.389 . S
C143 C142 1.351 . S
C143 H148 0.930 1_655 S
O144 Cu138 1.974 . S
O144 C154 1.282 . S
C145 O146 1.268 . S
C145 O158 1.248 1_655 S
O146 C145 1.268 . S
H147 C141 0.930 . S
H148 C143 0.930 1_455 S
N149 Cu138 1.985 . S
N149 C151 1.335 1_655 S
N149 C152 1.390 . S
N150 C151 1.345 . S
N150 C153 1.336 1_455 S
C151 N149 1.335 1_455 S
C151 N150 1.345 . S
C151 H156 0.930 . S
C152 N149 1.390 . S
C152 C153 1.346 . S
C152 H157 0.930 . S
C153 N150 1.336 1_655 S
C153 C152 1.346 . S
C153 H160 0.929 . S
C154 O144 1.282 . S
C154 O155 1.216 . S
O155 C154 1.216 . S
H156 C151 0.930 . S
H157 C152 0.930 . S
O158 Cu138 1.959 1_455 S
O158 C145 1.248 1_455 S
H159 C142 0.930 . S
H160 C153 0.929 . S
Cu161 N162 1.999 . S
Cu161 O167 1.974 . S
Cu161 N172 1.985 . S
Cu161 O181 1.959 . S
N162 Cu161 1.999 . S
N162 C164 1.263 . S
N162 C166 1.389 . S
N163 C164 1.358 . S
N163 C165 1.400 . S
C164 N162 1.263 . S
C164 N163 1.358 . S
C164 H170 0.930 . S
C165 N163 1.400 . S
C165 C166 1.351 . S
C165 H182 0.930 . S
C166 N162 1.389 . S
C166 C165 1.351 . S
C166 H171 0.930 . S
O167 Cu161 1.974 . S
O167 C177 1.282 . S
C168 O169 1.261 . S
C168 O181 1.251 . S
O169 C168 1.261 . S
H170 C164 0.930 . S
H171 C166 0.930 . S
N172 Cu161 1.985 . S
N172 C174 1.335 1_545 S
N172 C175 1.390 . S
N173 C174 1.345 . S
N173 C176 1.336 1_565 S
C174 N172 1.335 1_565 S
C174 N173 1.345 . S
C174 H179 0.930 . S
C175 N172 1.390 . S
C175 C176 1.346 . S
C175 H180 0.930 . S
C176 N173 1.336 1_545 S
C176 C175 1.346 . S
C176 H183 0.929 . S
C177 O167 1.282 . S
C177 O178 1.216 . S
O178 C177 1.216 . S
H179 C174 0.930 . S
H180 C175 0.930 . S
O181 Cu161 1.959 . S
O181 C168 1.251 . S
H182 C165 0.930 . S
H183 C176 0.929 . S
Cu184 N185 1.999 . S
Cu184 O190 1.974 . S
Cu184 N195 1.985 . S
Cu184 O204 1.959 . S
N185 Cu184 1.999 . S
N185 C187 1.263 . S
N185 C189 1.389 . S
N186 C187 1.358 . S
N186 C188 1.400 . S
C187 N185 1.263 . S
C187 N186 1.358 . S
C187 H193 0.930 . S
C188 N186 1.400 . S
C188 C189 1.351 . S
C188 H205 0.930 . S
C189 N185 1.389 . S
C189 C188 1.351 . S
C189 H194 0.930 . S
O190 Cu184 1.974 . S
O190 C200 1.282 . S
C191 O192 1.261 1_554 S
C191 O204 1.251 . S
O192 C191 1.261 1_556 S
H193 C187 0.930 . S
H194 C189 0.930 . S
N195 Cu184 1.985 . S
N195 C197 1.335 . S
N195 C198 1.390 . S
N196 C197 1.345 . S
N196 C199 1.336 . S
C197 N195 1.335 . S
C197 N196 1.345 . S
C197 H202 0.930 . S
C198 N195 1.390 . S
C198 C199 1.346 . S
C198 H203 0.930 . S
C199 N196 1.336 . S
C199 C198 1.346 . S
C199 H206 0.929 . S
C200 O190 1.282 . S
C200 O201 1.216 . S
O201 C200 1.216 . S
H202 C197 0.930 . S
H203 C198 0.930 . S
O204 Cu184 1.959 . S
O204 C191 1.251 . S
H205 C188 0.930 . S
H206 C199 0.929 . S
Cu207 N208 1.999 . S
Cu207 O213 1.974 . S
Cu207 N218 1.985 . S
Cu207 O227 1.959 . S
N208 Cu207 1.999 . S
N208 C210 1.263 . S
N208 C212 1.389 . S
N209 C210 1.358 . S
N209 C211 1.400 . S
C210 N208 1.263 . S
C210 N209 1.358 . S
C210 H216 0.930 . S
C211 N209 1.400 . S
C211 C212 1.351 . S
C211 H228 0.930 . S
C212 N208 1.389 . S
C212 C211 1.351 . S
C212 H217 0.930 . S
O213 Cu207 1.974 . S
O213 C223 1.282 . S
C214 O215 1.261 . S
C214 O227 1.251 1_554 S
O215 C214 1.261 . S
H216 C210 0.930 . S
H217 C212 0.930 . S
N218 Cu207 1.985 . S
N218 C220 1.335 . S
N218 C221 1.390 . S
N219 C220 1.345 1_554 S
N219 C222 1.336 . S
C220 N218 1.335 . S
C220 N219 1.345 1_556 S
C220 H225 0.930 . S
C221 N218 1.390 . S
C221 C222 1.346 1_556 S
C221 H226 0.930 . S
C222 N219 1.336 . S
C222 C221 1.346 1_554 S
C222 H229 0.929 . S
C223 O213 1.282 . S
C223 O224 1.216 . S
O224 C223 1.216 . S
H225 C220 0.930 . S
H226 C221 0.930 . S
O227 Cu207 1.959 . S
O227 C214 1.251 1_556 S
H228 C211 0.930 . S
H229 C222 0.929 . S
Cu230 N231 1.999 . S
Cu230 O236 1.974 . S
Cu230 N241 1.985 . S
Cu230 O250 1.959 . S
N231 Cu230 1.999 . S
N231 C233 1.263 . S
N231 C235 1.389 . S
N232 C233 1.358 1_556 S
N232 C234 1.400 1_556 S
C233 N231 1.263 . S
C233 N232 1.358 1_554 S
C233 H239 0.930 1_554 S
C234 N232 1.400 1_554 S
C234 C235 1.351 . S
C234 H251 0.930 . S
C235 N231 1.389 . S
C235 C234 1.351 . S
C235 H240 0.930 . S
O236 Cu230 1.974 . S
O236 C246 1.282 1_554 S
C237 O238 1.261 . S
C237 O250 1.251 . S
O238 C237 1.261 . S
H239 C233 0.930 1_556 S
H240 C235 0.930 . S
N241 Cu230 1.985 . S
N241 C243 1.335 . S
N241 C244 1.390 . S
N242 C243 1.345 . S
N242 C245 1.336 . S
C243 N241 1.335 . S
C243 N242 1.345 . S
C243 H248 0.930 . S
C244 N241 1.390 . S
C244 C245 1.346 . S
C244 H249 0.930 . S
C245 N242 1.336 . S
C245 C244 1.346 . S
C245 H252 0.929 . S
C246 O236 1.282 1_556 S
C246 O247 1.216 . S
O247 C246 1.216 . S
H248 C243 0.930 . S
H249 C244 0.930 . S
O250 Cu230 1.959 . S
O250 C237 1.251 . S
H251 C234 0.930 . S
H252 C245 0.929 . S
Cu253 N254 1.999 . S
Cu253 O259 1.974 . S
Cu253 N264 1.985 . S
Cu253 O273 1.959 . S
N254 Cu253 1.999 . S
N254 C256 1.263 . S
N254 C258 1.389 . S
N255 C256 1.358 . S
N255 C257 1.400 . S
C256 N254 1.263 . S
C256 N255 1.358 . S
C256 H262 0.930 . S
C257 N255 1.400 . S
C257 C258 1.351 . S
C257 H274 0.930 . S
C258 N254 1.389 . S
C258 C257 1.351 . S
C258 H263 0.930 . S
O259 Cu253 1.974 . S
O259 C269 1.282 . S
C260 O261 1.261 . S
C260 O273 1.251 . S
O261 C260 1.261 . S
H262 C256 0.930 . S
H263 C258 0.930 . S
N264 Cu253 1.985 . S
N264 C266 1.335 . S
N264 C267 1.390 . S
N265 C266 1.345 . S
N265 C268 1.336 . S
C266 N264 1.335 . S
C266 N265 1.345 . S
C266 H271 0.930 . S
C267 N264 1.390 . S
C267 C268 1.346 . S
C267 H272 0.930 . S
C268 N265 1.336 . S
C268 C267 1.346 . S
C268 H275 0.929 . S
C269 O259 1.282 . S
C269 O270 1.216 1_556 S
O270 C269 1.216 1_554 S
H271 C266 0.930 . S
H272 C267 0.930 . S
O273 Cu253 1.959 . S
O273 C260 1.251 . S
H274 C257 0.930 . S
H275 C268 0.929 . S
N12 C177 1.666 . S
N25 C108 1.659 . S
N117 C62 1.680 . S
N140 N71 1.707 . S
N186 N163 1.992 . S
C223 N94 1.794 . S
N242 C131 1.919 . S
C260 C154 2.088 . S
C39 N209 2.084 . S
C237 N48 1.781 . S
C85 N265 1.673 . S
C200 C7 1.922 . S
C145 C16 1.625 1_655 S
N173 C30 2.256 . S
N104 N58 1.195 . S
C76 C122 2.565 . S
C168 N127 1.853 . S
C99 N150 2.071 . S
N81 N35 1.530 . S
C53 N2 2.073 . S
N196 N219 1.225 . S
C214 C246 2.432 1_554 S
N255 N232 1.190 . S
C191 C269 2.041 1_554 S
