# Generated by pormake.
# Topology dei, (4)-cn, num edge types: 1
# Building blocks:
#     Node 0, Type 0, BuildingBlock: NAHDIM_clean_sbu_0, # of connection points: 4
#     Node 1, Type 0, BuildingBlock: NAHDIM_clean_sbu_0, # of connection points: 4
#     Node 2, Type 0, BuildingBlock: NAHDIM_clean_sbu_0, # of connection points: 4
#     Node 3, Type 0, BuildingBlock: NAHDIM_clean_sbu_0, # of connection points: 4
#     Node 4, Type 0, BuildingBlock: NAHDIM_clean_sbu_0, # of connection points: 4
#     Node 5, Type 0, BuildingBlock: NAHDIM_clean_sbu_0, # of connection points: 4
#     Node 6, Type 0, BuildingBlock: NAHDIM_clean_sbu_0, # of connection points: 4
#     Node 7, Type 0, BuildingBlock: NAHDIM_clean_sbu_0, # of connection points: 4
#     Node 8, Type 0, BuildingBlock: NAHDIM_clean_sbu_0, # of connection points: 4
#     Node 9, Type 0, BuildingBlock: NAHDIM_clean_sbu_0, # of connection points: 4
#     Node 10, Type 0, BuildingBlock: NAHDIM_clean_sbu_0, # of connection points: 4
#     Node 11, Type 0, BuildingBlock: NAHDIM_clean_sbu_0, # of connection points: 4
#     Node 12, Type 0, BuildingBlock: NAHDIM_clean_sbu_0, # of connection points: 4
#     Node 13, Type 0, BuildingBlock: NAHDIM_clean_sbu_0, # of connection points: 4
#     Node 14, Type 0, BuildingBlock: NAHDIM_clean_sbu_0, # of connection points: 4
#     Node 15, Type 0, BuildingBlock: NAHDIM_clean_sbu_0, # of connection points: 4
#     Node 16, Type 0, BuildingBlock: NAHDIM_clean_sbu_0, # of connection points: 4
#     Node 17, Type 0, BuildingBlock: NAHDIM_clean_sbu_0, # of connection points: 4
#     Node 18, Type 0, BuildingBlock: NAHDIM_clean_sbu_0, # of connection points: 4
#     Node 19, Type 0, BuildingBlock: NAHDIM_clean_sbu_0, # of connection points: 4
#     Node 20, Type 0, BuildingBlock: NAHDIM_clean_sbu_0, # of connection points: 4
#     Node 21, Type 0, BuildingBlock: NAHDIM_clean_sbu_0, # of connection points: 4
#     Node 22, Type 0, BuildingBlock: NAHDIM_clean_sbu_0, # of connection points: 4
#     Node 23, Type 0, BuildingBlock: NAHDIM_clean_sbu_0, # of connection points: 4
#     Node 24, Type 0, BuildingBlock: NAHDIM_clean_sbu_0, # of connection points: 4
#     Node 25, Type 0, BuildingBlock: NAHDIM_clean_sbu_0, # of connection points: 4
#     Node 26, Type 0, BuildingBlock: NAHDIM_clean_sbu_0, # of connection points: 4
#     Node 27, Type 0, BuildingBlock: NAHDIM_clean_sbu_0, # of connection points: 4
#     Node 28, Type 0, BuildingBlock: NAHDIM_clean_sbu_0, # of connection points: 4
#     Node 29, Type 0, BuildingBlock: NAHDIM_clean_sbu_0, # of connection points: 4
#     Node 30, Type 0, BuildingBlock: NAHDIM_clean_sbu_0, # of connection points: 4
#     Node 31, Type 0, BuildingBlock: NAHDIM_clean_sbu_0, # of connection points: 4
#     Edge 32, Type (0, 0), BuildingBlock: AJUNOK_clean_linker_0, # of connection points: 2
#     Edge 33, Type (0, 0), BuildingBlock: AJUNOK_clean_linker_0, # of connection points: 2
#     Edge 34, Type (0, 0), BuildingBlock: AJUNOK_clean_linker_0, # of connection points: 2
#     Edge 35, Type (0, 0), BuildingBlock: AJUNOK_clean_linker_0, # of connection points: 2
#     Edge 36, Type (0, 0), BuildingBlock: AJUNOK_clean_linker_0, # of connection points: 2
#     Edge 37, Type (0, 0), BuildingBlock: AJUNOK_clean_linker_0, # of connection points: 2
#     Edge 38, Type (0, 0), BuildingBlock: AJUNOK_clean_linker_0, # of connection points: 2
#     Edge 39, Type (0, 0), BuildingBlock: AJUNOK_clean_linker_0, # of connection points: 2
#     Edge 40, Type (0, 0), BuildingBlock: AJUNOK_clean_linker_0, # of connection points: 2
#     Edge 41, Type (0, 0), BuildingBlock: AJUNOK_clean_linker_0, # of connection points: 2
#     Edge 42, Type (0, 0), BuildingBlock: AJUNOK_clean_linker_0, # of connection points: 2
#     Edge 43, Type (0, 0), BuildingBlock: AJUNOK_clean_linker_0, # of connection points: 2
#     Edge 44, Type (0, 0), BuildingBlock: AJUNOK_clean_linker_0, # of connection points: 2
#     Edge 45, Type (0, 0), BuildingBlock: AJUNOK_clean_linker_0, # of connection points: 2
#     Edge 46, Type (0, 0), BuildingBlock: AJUNOK_clean_linker_0, # of connection points: 2
#     Edge 47, Type (0, 0), BuildingBlock: AJUNOK_clean_linker_0, # of connection points: 2
#     Edge 48, Type (0, 0), BuildingBlock: AJUNOK_clean_linker_0, # of connection points: 2
#     Edge 49, Type (0, 0), BuildingBlock: AJUNOK_clean_linker_0, # of connection points: 2
#     Edge 50, Type (0, 0), BuildingBlock: AJUNOK_clean_linker_0, # of connection points: 2
#     Edge 51, Type (0, 0), BuildingBlock: AJUNOK_clean_linker_0, # of connection points: 2
#     Edge 52, Type (0, 0), BuildingBlock: AJUNOK_clean_linker_0, # of connection points: 2
#     Edge 53, Type (0, 0), BuildingBlock: AJUNOK_clean_linker_0, # of connection points: 2
#     Edge 54, Type (0, 0), BuildingBlock: AJUNOK_clean_linker_0, # of connection points: 2
#     Edge 55, Type (0, 0), BuildingBlock: AJUNOK_clean_linker_0, # of connection points: 2
#     Edge 56, Type (0, 0), BuildingBlock: AJUNOK_clean_linker_0, # of connection points: 2
#     Edge 57, Type (0, 0), BuildingBlock: AJUNOK_clean_linker_0, # of connection points: 2
#     Edge 58, Type (0, 0), BuildingBlock: AJUNOK_clean_linker_0, # of connection points: 2
#     Edge 59, Type (0, 0), BuildingBlock: AJUNOK_clean_linker_0, # of connection points: 2
#     Edge 60, Type (0, 0), BuildingBlock: AJUNOK_clean_linker_0, # of connection points: 2
#     Edge 61, Type (0, 0), BuildingBlock: AJUNOK_clean_linker_0, # of connection points: 2
#     Edge 62, Type (0, 0), BuildingBlock: AJUNOK_clean_linker_0, # of connection points: 2
#     Edge 63, Type (0, 0), BuildingBlock: AJUNOK_clean_linker_0, # of connection points: 2
#     Edge 64, Type (0, 0), BuildingBlock: AJUNOK_clean_linker_0, # of connection points: 2
#     Edge 65, Type (0, 0), BuildingBlock: AJUNOK_clean_linker_0, # of connection points: 2
#     Edge 66, Type (0, 0), BuildingBlock: AJUNOK_clean_linker_0, # of connection points: 2
#     Edge 67, Type (0, 0), BuildingBlock: AJUNOK_clean_linker_0, # of connection points: 2
#     Edge 68, Type (0, 0), BuildingBlock: AJUNOK_clean_linker_0, # of connection points: 2
#     Edge 69, Type (0, 0), BuildingBlock: AJUNOK_clean_linker_0, # of connection points: 2
#     Edge 70, Type (0, 0), BuildingBlock: AJUNOK_clean_linker_0, # of connection points: 2
#     Edge 71, Type (0, 0), BuildingBlock: AJUNOK_clean_linker_0, # of connection points: 2
#     Edge 72, Type (0, 0), BuildingBlock: AJUNOK_clean_linker_0, # of connection points: 2
#     Edge 73, Type (0, 0), BuildingBlock: AJUNOK_clean_linker_0, # of connection points: 2
#     Edge 74, Type (0, 0), BuildingBlock: AJUNOK_clean_linker_0, # of connection points: 2
#     Edge 75, Type (0, 0), BuildingBlock: AJUNOK_clean_linker_0, # of connection points: 2
#     Edge 76, Type (0, 0), BuildingBlock: AJUNOK_clean_linker_0, # of connection points: 2
#     Edge 77, Type (0, 0), BuildingBlock: AJUNOK_clean_linker_0, # of connection points: 2
#     Edge 78, Type (0, 0), BuildingBlock: AJUNOK_clean_linker_0, # of connection points: 2
#     Edge 79, Type (0, 0), BuildingBlock: AJUNOK_clean_linker_0, # of connection points: 2
#     Edge 80, Type (0, 0), BuildingBlock: AJUNOK_clean_linker_0, # of connection points: 2
#     Edge 81, Type (0, 0), BuildingBlock: AJUNOK_clean_linker_0, # of connection points: 2
#     Edge 82, Type (0, 0), BuildingBlock: AJUNOK_clean_linker_0, # of connection points: 2
#     Edge 83, Type (0, 0), BuildingBlock: AJUNOK_clean_linker_0, # of connection points: 2
#     Edge 84, Type (0, 0), BuildingBlock: AJUNOK_clean_linker_0, # of connection points: 2
#     Edge 85, Type (0, 0), BuildingBlock: AJUNOK_clean_linker_0, # of connection points: 2
#     Edge 86, Type (0, 0), BuildingBlock: AJUNOK_clean_linker_0, # of connection points: 2
#     Edge 87, Type (0, 0), BuildingBlock: AJUNOK_clean_linker_0, # of connection points: 2
#     Edge 88, Type (0, 0), BuildingBlock: AJUNOK_clean_linker_0, # of connection points: 2
#     Edge 89, Type (0, 0), BuildingBlock: AJUNOK_clean_linker_0, # of connection points: 2
#     Edge 90, Type (0, 0), BuildingBlock: AJUNOK_clean_linker_0, # of connection points: 2
#     Edge 91, Type (0, 0), BuildingBlock: AJUNOK_clean_linker_0, # of connection points: 2
#     Edge 92, Type (0, 0), BuildingBlock: AJUNOK_clean_linker_0, # of connection points: 2
#     Edge 93, Type (0, 0), BuildingBlock: AJUNOK_clean_linker_0, # of connection points: 2
#     Edge 94, Type (0, 0), BuildingBlock: AJUNOK_clean_linker_0, # of connection points: 2
#     Edge 95, Type (0, 0), BuildingBlock: AJUNOK_clean_linker_0, # of connection points: 2
# Relax obj value: 0.224
# Max RMSD: 0.094
# Mean RMSD: 0.094
data_MOF--net-dei--node1-NAHDIM_clean_sbu_0--edge1-AJUNOK_clean_linker_0
_symmetry_space_group_name_H-M    P1
_symmetry_Int_Tables_number       1
_symmetry_cell_setting            triclinic
loop_
_symmetry_equiv_pos_as_xyz
'x, y, z'
_cell_length_a     39.55827
_cell_length_b     39.548982
_cell_length_c     69.262445
_cell_angle_alpha  89.989692
_cell_angle_beta   89.998469
_cell_angle_gamma 90.013818
loop_
_atom_site_label
_atom_site_type_symbol
_atom_site_fract_x
_atom_site_fract_y
_atom_site_fract_z
_atom_type_partial_charge
C0 C 0.16548 0.55383 0.02898 0.0
O1 O 0.16568 0.54419 0.04713 0.0
O2 O 0.15684 0.60767 0.07168 0.0
Zn3 Zn 0.13956 0.61682 0.04479 0.0
O4 O 0.08874 0.61455 0.04523 0.0
C5 C 0.17825 0.67887 0.04392 0.0
O6 O 0.19962 0.66128 0.0544 0.0
O7 O 0.15653 0.58384 0.02491 0.0
C8 C 0.07259 0.63457 0.05622 0.0
O9 O 0.08975 0.65579 0.06703 0.0
C10 C 0.14127 0.5878 0.08304 0.0
O11 O 0.11497 0.57105 0.07651 0.0
O12 O 0.15177 0.66444 0.0376 0.0
C13 C 0.69953 0.9054 0.2847 0.0
O14 O 0.70823 0.90071 0.30279 0.0
O15 O 0.64087 0.9088 0.32591 0.0
Zn16 Zn 0.63297 0.88939 0.29937 0.0
O17 O 0.63143 0.83868 0.30199 0.0
C18 C 0.57233 0.93022 0.29636 0.0
O19 O 0.58899 0.95093 0.30775 0.0
O20 O 0.66855 0.90287 0.28008 0.0
C21 C 0.64307 0.81788 0.28971 0.0
O22 O 0.65773 0.82953 0.27404 0.0
C23 C 0.65678 0.89189 0.33859 0.0
O24 O 0.67056 0.86296 0.33359 0.0
O25 O 0.58682 0.90349 0.29046 0.0
C26 C 0.33423 0.45227 0.52897 0.0
O27 O 0.33382 0.46047 0.54733 0.0
O28 O 0.34303 0.39637 0.57056 0.0
Zn29 Zn 0.35992 0.3883 0.54348 0.0
O30 O 0.4108 0.38974 0.54387 0.0
C31 C 0.32054 0.32674 0.54232 0.0
O32 O 0.29955 0.34441 0.55299 0.0
O33 O 0.34317 0.42255 0.52421 0.0
C34 C 0.42645 0.36762 0.55374 0.0
O35 O 0.40873 0.34516 0.56339 0.0
C36 C 0.35906 0.41505 0.58236 0.0
O37 O 0.38581 0.43155 0.57623 0.0
O38 O 0.34697 0.34105 0.53583 0.0
C39 C 0.80245 0.09123 0.78249 0.0
O40 O 0.79483 0.09808 0.80053 0.0
O41 O 0.86077 0.09148 0.8228 0.0
Zn42 Zn 0.86904 0.10828 0.79576 0.0
O43 O 0.86935 0.15912 0.79734 0.0
C44 C 0.92868 0.06573 0.78995 0.0
O45 O 0.91103 0.0423 0.79886 0.0
O46 O 0.83318 0.09287 0.77724 0.0
C47 C 0.85377 0.17874 0.78586 0.0
O48 O 0.83585 0.16567 0.77175 0.0
C49 C 0.88538 0.09316 0.83455 0.0
O50 O 0.91485 0.10391 0.82833 0.0
O51 O 0.9152 0.09432 0.78671 0.0
C52 C 0.16334 0.45236 0.96856 0.0
O53 O 0.15955 0.46069 0.95034 0.0
O54 O 0.15681 0.39341 0.92781 0.0
Zn55 Zn 0.14025 0.38702 0.95508 0.0
O56 O 0.08937 0.38875 0.95514 0.0
C57 C 0.18071 0.32666 0.95733 0.0
O58 O 0.20151 0.34467 0.94671 0.0
O59 O 0.15777 0.42198 0.97362 0.0
C60 C 0.0729 0.36628 0.94599 0.0
O61 O 0.08974 0.34275 0.93667 0.0
C62 C 0.14037 0.41024 0.91533 0.0
O63 O 0.11307 0.42658 0.92077 0.0
O64 O 0.15366 0.34031 0.96342 0.0
C65 C 0.79958 0.90415 0.22327 0.0
O66 O 0.78901 0.90096 0.20539 0.0
O67 O 0.85475 0.90055 0.18027 0.0
Zn68 Zn 0.86343 0.88226 0.20699 0.0
O69 O 0.86039 0.83154 0.20597 0.0
C70 C 0.9262 0.91988 0.20833 0.0
O71 O 0.90948 0.94143 0.1975 0.0
O72 O 0.83056 0.89884 0.22701 0.0
C73 C 0.88131 0.81506 0.19572 0.0
O74 O 0.90446 0.83178 0.18602 0.0
C75 C 0.83588 0.88488 0.16841 0.0
O76 O 0.81962 0.85784 0.17433 0.0
O77 O 0.91109 0.89369 0.21452 0.0
C78 C 0.33319 0.55371 0.4684 0.0
O79 O 0.33511 0.5441 0.45028 0.0
O80 O 0.33966 0.60957 0.42607 0.0
Zn81 Zn 0.35634 0.61828 0.45317 0.0
O82 O 0.40718 0.61705 0.45266 0.0
C83 C 0.31685 0.6801 0.45493 0.0
O84 O 0.29569 0.66307 0.44402 0.0
O85 O 0.33991 0.58423 0.47266 0.0
C86 C 0.42255 0.63824 0.44201 0.0
O87 O 0.40458 0.6598 0.43187 0.0
C88 C 0.35617 0.59032 0.41478 0.0
O89 O 0.38268 0.5742 0.42154 0.0
O90 O 0.34339 0.66545 0.461 0.0
C91 C 0.69907 0.09082 0.72304 0.0
O92 O 0.70847 0.09155 0.70486 0.0
O93 O 0.64422 0.09836 0.68067 0.0
Zn94 Zn 0.63562 0.1157 0.70759 0.0
O95 O 0.63829 0.16647 0.70706 0.0
C96 C 0.57409 0.0765 0.70908 0.0
O97 O 0.59207 0.05484 0.69902 0.0
O98 O 0.66887 0.09874 0.7273 0.0
C99 C 0.61779 0.18299 0.69655 0.0
O100 O 0.59536 0.16625 0.68633 0.0
C101 C 0.66336 0.11418 0.66902 0.0
O102 O 0.67996 0.14077 0.67528 0.0
O103 O 0.58809 0.10352 0.71497 0.0
C104 C 0.84073 0.44392 0.96816 0.0
O105 O 0.85416 0.45213 0.95146 0.0
O106 O 0.84036 0.38537 0.92632 0.0
Zn107 Zn 0.85648 0.37822 0.95372 0.0
O108 O 0.90723 0.38229 0.95432 0.0
C109 C 0.81934 0.31522 0.95432 0.0
O110 O 0.79866 0.33228 0.94314 0.0
O111 O 0.83744 0.41276 0.97227 0.0
C112 C 0.92543 0.36088 0.94545 0.0
O113 O 0.91051 0.33626 0.93597 0.0
C114 C 0.85748 0.40169 0.91388 0.0
O115 O 0.88565 0.4165 0.9193 0.0
O116 O 0.84483 0.33037 0.96144 0.0
C117 C 0.30246 0.08308 0.72211 0.0
O118 O 0.29412 0.08167 0.70378 0.0
O119 O 0.35766 0.09382 0.68032 0.0
Zn120 Zn 0.36492 0.11162 0.70724 0.0
O121 O 0.36073 0.1623 0.70666 0.0
C122 C 0.42742 0.07428 0.70909 0.0
O123 O 0.41012 0.05212 0.699 0.0
O124 O 0.33175 0.09359 0.72667 0.0
C125 C 0.38123 0.1795 0.69652 0.0
O126 O 0.4046 0.16352 0.68659 0.0
C127 C 0.33854 0.10872 0.66829 0.0
O128 O 0.32076 0.13487 0.6741 0.0
O129 O 0.41263 0.10089 0.71494 0.0
C130 C 0.6632 0.55367 0.46649 0.0
O131 O 0.66612 0.5456 0.44818 0.0
O132 O 0.65447 0.6105 0.42475 0.0
Zn133 Zn 0.63644 0.61755 0.45173 0.0
O134 O 0.58569 0.61546 0.45072 0.0
C135 C 0.67361 0.68085 0.45508 0.0
O136 O 0.69529 0.6661 0.44343 0.0
O137 O 0.65252 0.58295 0.47094 0.0
C138 C 0.57005 0.63765 0.44091 0.0
O139 O 0.58773 0.66055 0.43159 0.0
C140 C 0.63946 0.5905 0.41322 0.0
O141 O 0.61358 0.57294 0.41961 0.0
O142 O 0.64789 0.6644 0.46073 0.0
C143 C 0.20105 0.90252 0.22197 0.0
O144 O 0.2111 0.89337 0.20467 0.0
O145 O 0.14381 0.90259 0.17956 0.0
Zn146 Zn 0.13597 0.88451 0.20645 0.0
O147 O 0.13812 0.83365 0.20557 0.0
C148 C 0.0727 0.92154 0.20786 0.0
O149 O 0.0885 0.94256 0.19626 0.0
O150 O 0.16968 0.90178 0.22585 0.0
C151 C 0.11589 0.81837 0.19559 0.0
O152 O 0.09331 0.83647 0.18629 0.0
C153 C 0.16164 0.88649 0.16737 0.0
O154 O 0.17706 0.85871 0.1729 0.0
O155 O 0.08863 0.89619 0.21449 0.0
C156 C 0.83261 0.54936 0.0265 0.0
O157 O 0.8265 0.54246 0.04471 0.0
O158 O 0.84185 0.60413 0.06861 0.0
Zn159 Zn 0.85943 0.61306 0.04173 0.0
O160 O 0.91024 0.61236 0.04306 0.0
C161 C 0.82159 0.67604 0.04111 0.0
O162 O 0.80144 0.65969 0.05296 0.0
O163 O 0.84489 0.57809 0.02213 0.0
C164 C 0.92509 0.6327 0.05446 0.0
O165 O 0.90662 0.65327 0.06497 0.0
C166 C 0.85707 0.58368 0.0798 0.0
O167 O 0.88276 0.56632 0.073 0.0
O168 O 0.84663 0.66047 0.03383 0.0
C169 C 0.20121 0.08391 0.78258 0.0
O170 O 0.21074 0.09019 0.80039 0.0
O171 O 0.14273 0.09175 0.82414 0.0
Zn172 Zn 0.136 0.10666 0.79655 0.0
O173 O 0.13847 0.15746 0.79537 0.0
C174 C 0.07451 0.06662 0.7928 0.0
O175 O 0.0909 0.04427 0.80326 0.0
O176 O 0.17035 0.08783 0.77808 0.0
C177 C 0.13027 0.17244 0.77983 0.0
O178 O 0.12106 0.1541 0.76492 0.0
C179 C 0.16069 0.10921 0.83564 0.0
O180 O 0.17664 0.13586 0.82892 0.0
O181 O 0.08923 0.09395 0.78813 0.0
C182 C 0.66127 0.45297 0.52747 0.0
O183 O 0.65604 0.46293 0.54531 0.0
O184 O 0.65759 0.39722 0.56992 0.0
Zn185 Zn 0.6404 0.38845 0.54297 0.0
O186 O 0.58952 0.38981 0.54342 0.0
C187 C 0.68006 0.32722 0.54236 0.0
O188 O 0.70093 0.34544 0.55281 0.0
O189 O 0.65729 0.42193 0.52333 0.0
C190 C 0.57401 0.36769 0.55337 0.0
O191 O 0.59188 0.34533 0.563 0.0
C192 C 0.64104 0.41475 0.58204 0.0
O193 O 0.61336 0.43013 0.57632 0.0
O194 O 0.65349 0.34106 0.53575 0.0
C195 C 0.30112 0.91283 0.28313 0.0
O196 O 0.29302 0.91969 0.30109 0.0
O197 O 0.35649 0.91098 0.32549 0.0
Zn198 Zn 0.36543 0.8901 0.29952 0.0
O199 O 0.36712 0.83966 0.30337 0.0
C200 C 0.42635 0.93063 0.29644 0.0
O201 O 0.40977 0.95164 0.30767 0.0
O202 O 0.33044 0.90138 0.27946 0.0
C203 C 0.35851 0.81851 0.29048 0.0
O204 O 0.34726 0.82975 0.27383 0.0
C205 C 0.33714 0.89638 0.33752 0.0
O206 O 0.32045 0.86934 0.33198 0.0
O207 O 0.41174 0.90385 0.2907 0.0
C208 C 0.66755 0.05523 0.53364 0.0
O209 O 0.66986 0.04795 0.55208 0.0
O210 O 0.65891 0.11263 0.57453 0.0
Zn211 Zn 0.64092 0.11931 0.5476 0.0
O212 O 0.59009 0.11739 0.54858 0.0
C213 C 0.68013 0.18068 0.54494 0.0
O214 O 0.70143 0.1635 0.55567 0.0
O215 O 0.65726 0.0844 0.52867 0.0
C216 C 0.57443 0.13816 0.55935 0.0
O217 O 0.59209 0.15991 0.56954 0.0
C218 C 0.64403 0.09396 0.58679 0.0
O219 O 0.61765 0.07624 0.58126 0.0
O220 O 0.65339 0.16617 0.53903 0.0
C221 C 0.19425 0.41383 0.77949 0.0
O222 O 0.20293 0.41415 0.79778 0.0
O223 O 0.1392 0.40352 0.82142 0.0
Zn224 Zn 0.13103 0.38674 0.79434 0.0
O225 O 0.13414 0.33594 0.79422 0.0
C226 C 0.06954 0.426 0.79269 0.0
O227 O 0.08765 0.44774 0.80262 0.0
O228 O 0.16452 0.40457 0.77496 0.0
C229 C 0.12768 0.32001 0.77872 0.0
O230 O 0.11948 0.33739 0.76325 0.0
C231 C 0.15818 0.38766 0.83313 0.0
O232 O 0.17471 0.36098 0.82694 0.0
O233 O 0.08341 0.39883 0.78694 0.0
C234 C 0.8279 0.95131 0.03566 0.0
O235 O 0.8245 0.95502 0.0544 0.0
O236 O 0.83948 0.88996 0.07387 0.0
Zn237 Zn 0.85624 0.88612 0.04647 0.0
O238 O 0.90698 0.88952 0.04682 0.0
C239 C 0.81986 0.82282 0.0431 0.0
O240 O 0.79901 0.83772 0.05516 0.0
O241 O 0.83905 0.9234 0.02914 0.0
C242 C 0.92444 0.86784 0.05597 0.0
O243 O 0.90873 0.84343 0.06521 0.0
C244 C 0.85462 0.90799 0.08635 0.0
O245 O 0.88054 0.92643 0.08088 0.0
O246 O 0.84489 0.83947 0.03661 0.0
C247 C 0.29968 0.57616 0.27881 0.0
O248 O 0.29035 0.5828 0.29661 0.0
O249 O 0.35667 0.58823 0.32015 0.0
Zn250 Zn 0.3631 0.60277 0.29244 0.0
O251 O 0.35672 0.6531 0.29043 0.0
C252 C 0.42723 0.5678 0.29155 0.0
O253 O 0.41131 0.54633 0.30282 0.0
O254 O 0.33031 0.58099 0.27405 0.0
C255 C 0.37337 0.67303 0.30123 0.0
O256 O 0.39465 0.6602 0.31382 0.0
C257 C 0.33785 0.60407 0.33195 0.0
O258 O 0.3198 0.62967 0.32563 0.0
O259 O 0.41114 0.59301 0.28487 0.0
C260 C 0.66312 0.95229 0.47416 0.0
O261 O 0.66054 0.96155 0.45601 0.0
O262 O 0.65272 0.89681 0.43248 0.0
Zn263 Zn 0.6357 0.88956 0.45956 0.0
O264 O 0.58506 0.89438 0.45951 0.0
C265 C 0.67291 0.82702 0.46088 0.0
O266 O 0.69519 0.84468 0.45107 0.0
O267 O 0.65512 0.92227 0.47881 0.0
C268 C 0.5678 0.88516 0.47405 0.0
O269 O 0.58368 0.87301 0.4892 0.0
C270 C 0.63751 0.91569 0.42044 0.0
O271 O 0.61117 0.93319 0.42623 0.0
O272 O 0.6462 0.84156 0.46678 0.0
C273 C 0.29596 0.41308 0.71911 0.0
O274 O 0.28667 0.40327 0.70178 0.0
O275 O 0.35403 0.41193 0.67708 0.0
Zn276 Zn 0.36121 0.39513 0.70426 0.0
O277 O 0.35815 0.34434 0.70445 0.0
C278 C 0.42263 0.43414 0.70565 0.0
O279 O 0.4045 0.45547 0.69545 0.0
O280 O 0.32725 0.41329 0.72324 0.0
C281 C 0.37967 0.32701 0.6951 0.0
O282 O 0.40333 0.34291 0.68535 0.0
C283 C 0.33762 0.39528 0.6645 0.0
O284 O 0.32212 0.36737 0.66975 0.0
O285 O 0.40868 0.40733 0.71189 0.0
C286 C 0.83604 0.07146 0.98775 0.0
O287 O 0.83696 0.10113 0.99627 0.0
O288 O 0.85685 0.10036 0.92665 0.0
Zn289 Zn 0.8648 0.10784 0.955 0.0
O290 O 0.91525 0.10832 0.95878 0.0
C291 C 0.82344 0.16844 0.95354 0.0
O292 O 0.80752 0.15166 0.93993 0.0
O293 O 0.84547 0.06919 0.97028 0.0
C294 C 0.9297 0.12456 0.97228 0.0
O295 O 0.91103 0.14121 0.98474 0.0
C296 C 0.87639 0.08039 0.9176 0.0
O297 O 0.89981 0.06399 0.92726 0.0
O298 O 0.84724 0.15385 0.96262 0.0
C299 C 0.1972 0.57419 0.21911 0.0
O300 O 0.20455 0.57055 0.20074 0.0
O301 O 0.14263 0.58738 0.17748 0.0
Zn302 Zn 0.13475 0.60393 0.20458 0.0
O303 O 0.13656 0.6548 0.20445 0.0
C304 C 0.07391 0.56404 0.20542 0.0
O305 O 0.0924 0.54326 0.19507 0.0
O306 O 0.16868 0.58654 0.22377 0.0
C307 C 0.11507 0.67077 0.1943 0.0
O308 O 0.09293 0.65337 0.18425 0.0
C309 C 0.16143 0.60295 0.16557 0.0
O310 O 0.17883 0.62921 0.17161 0.0
O311 O 0.08746 0.59081 0.21199 0.0
C312 C 0.33001 0.95314 0.47346 0.0
O313 O 0.33578 0.96247 0.45556 0.0
O314 O 0.33654 0.89806 0.43141 0.0
Zn315 Zn 0.3526 0.88925 0.45859 0.0
O316 O 0.40332 0.89306 0.45889 0.0
C317 C 0.31481 0.82674 0.45865 0.0
O318 O 0.29336 0.84465 0.44841 0.0
O319 O 0.33394 0.92226 0.47798 0.0
C320 C 0.42028 0.8852 0.47379 0.0
O321 O 0.40411 0.87465 0.48924 0.0
C322 C 0.35369 0.91618 0.41984 0.0
O323 O 0.381 0.93136 0.42626 0.0
O324 O 0.34105 0.84117 0.46533 0.0
C325 C 0.80184 0.57054 0.2163 0.0
O326 O 0.7931 0.56986 0.19802 0.0
O327 O 0.85738 0.58262 0.17435 0.0
Zn328 Zn 0.86468 0.59904 0.20158 0.0
O329 O 0.86077 0.64974 0.20192 0.0
C330 C 0.92733 0.56166 0.20303 0.0
O331 O 0.91045 0.54017 0.19225 0.0
O332 O 0.83137 0.58047 0.22077 0.0
C333 C 0.88187 0.66765 0.1926 0.0
O334 O 0.90573 0.6524 0.18269 0.0
C335 C 0.83845 0.59827 0.16253 0.0
O336 O 0.8209 0.6243 0.16873 0.0
O337 O 0.91225 0.5878 0.20932 0.0
C338 C 0.16688 0.05393 0.97174 0.0
O339 O 0.16231 0.04542 0.95361 0.0
O340 O 0.15934 0.11078 0.93048 0.0
Zn341 Zn 0.1438 0.11857 0.95785 0.0
O342 O 0.09302 0.11606 0.95876 0.0
C343 C 0.183 0.18017 0.95845 0.0
O344 O 0.20367 0.16247 0.94759 0.0
O345 O 0.16206 0.08449 0.97669 0.0
C346 C 0.07715 0.12865 0.973 0.0
O347 O 0.09452 0.14275 0.98702 0.0
C348 C 0.14199 0.09404 0.91836 0.0
O349 O 0.11418 0.07904 0.92423 0.0
O350 O 0.15679 0.16589 0.96523 0.0
C351 C 0.69478 0.42849 0.71804 0.0
O352 O 0.70336 0.42978 0.69975 0.0
O353 O 0.64023 0.4149 0.67596 0.0
Zn354 Zn 0.63234 0.3991 0.70327 0.0
O355 O 0.63645 0.34843 0.70388 0.0
C356 C 0.56937 0.43619 0.70421 0.0
O357 O 0.58628 0.45764 0.69342 0.0
O358 O 0.66545 0.41796 0.72251 0.0
C359 C 0.61617 0.33043 0.69406 0.0
O360 O 0.593 0.34558 0.68357 0.0
C361 C 0.66015 0.39923 0.66468 0.0
O362 O 0.67794 0.37389 0.67154 0.0
O363 O 0.58451 0.41022 0.71068 0.0
C364 C 0.33022 0.05607 0.53307 0.0
O365 O 0.32443 0.0496 0.55137 0.0
O366 O 0.34313 0.11118 0.5745 0.0
Zn367 Zn 0.36052 0.11864 0.5475 0.0
O368 O 0.41138 0.11693 0.54831 0.0
C369 C 0.3211 0.18016 0.54472 0.0
O370 O 0.29941 0.16306 0.55525 0.0
O371 O 0.34399 0.08397 0.52845 0.0
C372 C 0.42686 0.13744 0.55934 0.0
O373 O 0.40899 0.15862 0.56979 0.0
C374 C 0.35776 0.09066 0.58588 0.0
O375 O 0.38292 0.07234 0.57927 0.0
O376 O 0.34802 0.16561 0.53914 0.0
C377 C 0.70125 0.57534 0.27695 0.0
O378 O 0.7112 0.58332 0.29446 0.0
O379 O 0.64446 0.58766 0.31867 0.0
Zn380 Zn 0.63819 0.60204 0.29092 0.0
O381 O 0.64509 0.65232 0.28878 0.0
C382 C 0.57402 0.56738 0.29043 0.0
O383 O 0.59032 0.54575 0.30141 0.0
O384 O 0.67039 0.57954 0.27249 0.0
C385 C 0.62745 0.67213 0.29912 0.0
O386 O 0.60515 0.65912 0.31105 0.0
C387 C 0.66252 0.60388 0.33069 0.0
O388 O 0.68034 0.6298 0.32458 0.0
O389 O 0.58992 0.59265 0.28365 0.0
C390 C 0.16418 0.95136 0.0315 0.0
O391 O 0.16018 0.96077 0.04954 0.0
O392 O 0.15737 0.89384 0.073 0.0
Zn393 Zn 0.13976 0.88723 0.046 0.0
O394 O 0.08902 0.89083 0.04635 0.0
C395 C 0.17818 0.82557 0.04378 0.0
O396 O 0.20015 0.84334 0.05374 0.0
O397 O 0.15812 0.92086 0.02693 0.0
C398 C 0.07195 0.86928 0.05585 0.0
O399 O 0.08812 0.84547 0.06533 0.0
C400 C 0.14186 0.91123 0.08561 0.0
O401 O 0.11473 0.92814 0.08045 0.0
O402 O 0.15118 0.8398 0.03807 0.0
C403 C 0.79583 0.42256 0.77836 0.0
O404 O 0.78594 0.41244 0.79552 0.0
O405 O 0.85235 0.40736 0.81989 0.0
Zn406 Zn 0.85882 0.3955 0.79176 0.0
O407 O 0.85106 0.34569 0.78801 0.0
C408 C 0.92274 0.43045 0.79172 0.0
O409 O 0.90583 0.45216 0.80234 0.0
O410 O 0.82686 0.41978 0.77394 0.0
C411 C 0.86959 0.32419 0.79657 0.0
O412 O 0.89357 0.33509 0.80814 0.0
C413 C 0.83425 0.38977 0.83126 0.0
O414 O 0.81697 0.36423 0.82423 0.0
O415 O 0.90726 0.40496 0.7849 0.0
C416 C 0.17735 0.6152 0.13132 0.0
C417 C 0.15971 0.59493 0.14464 0.0
C418 C 0.17248 0.61155 0.1114 0.0
C419 C 0.14968 0.58752 0.10394 0.0
H420 H 0.19417 0.635 0.13627 0.0
H421 H 0.18572 0.62872 0.10184 0.0
S422 S 0.10059 0.52502 0.13253 0.0
N423 N 0.12105 0.54753 0.14883 0.0
N424 N 0.11184 0.54078 0.11142 0.0
C425 C 0.13341 0.56567 0.11703 0.0
C426 C 0.13845 0.56933 0.13735 0.0
C427 C 0.66634 0.88674 0.39294 0.0
C428 C 0.64612 0.91357 0.39963 0.0
C429 C 0.67093 0.88098 0.37318 0.0
C430 C 0.65565 0.90189 0.35924 0.0
H431 H 0.67758 0.86902 0.403 0.0
H432 H 0.68561 0.85913 0.36886 0.0
S433 S 0.60441 0.97865 0.36923 0.0
N434 N 0.61364 0.96345 0.39079 0.0
N435 N 0.62241 0.95278 0.35361 0.0
C436 C 0.6372 0.93017 0.36573 0.0
C437 C 0.63238 0.93594 0.38592 0.0
C438 C 0.32234 0.38504 0.62996 0.0
C439 C 0.33991 0.40441 0.64373 0.0
C440 C 0.32745 0.38985 0.61014 0.0
C441 C 0.35052 0.41412 0.60323 0.0
H442 H 0.30524 0.36515 0.63447 0.0
H443 H 0.31416 0.37337 0.60022 0.0
S444 S 0.4 0.47429 0.63319 0.0
N445 N 0.37909 0.45105 0.64897 0.0
N446 N 0.38878 0.45996 0.61174 0.0
C447 C 0.36687 0.43499 0.6168 0.0
C448 C 0.36154 0.4302 0.63702 0.0
C449 C 0.9064 0.0718 0.88636 0.0
C450 C 0.87636 0.0797 0.89625 0.0
C451 C 0.90867 0.07519 0.86629 0.0
C452 C 0.88079 0.08589 0.8553 0.0
H453 H 0.92887 0.06437 0.89423 0.0
H454 H 0.93269 0.07003 0.85938 0.0
S455 S 0.79542 0.10673 0.87401 0.0
N456 N 0.8175 0.09679 0.89344 0.0
N457 N 0.82156 0.1024 0.85558 0.0
C458 C 0.85005 0.09214 0.86485 0.0
C459 C 0.84791 0.08929 0.88537 0.0
C460 C 0.1295 0.42518 0.8808 0.0
C461 C 0.14901 0.40761 0.8945 0.0
C462 C 0.13383 0.41977 0.86097 0.0
C463 C 0.15774 0.39641 0.85398 0.0
H464 H 0.10986 0.4425 0.88537 0.0
H465 H 0.11727 0.43309 0.8511 0.0
S466 S 0.21819 0.34689 0.88373 0.0
N467 N 0.19546 0.36816 0.89958 0.0
N468 N 0.20347 0.35792 0.86234 0.0
C469 C 0.17878 0.38008 0.86747 0.0
C470 C 0.17447 0.3857 0.8877 0.0
C471 C 0.86542 0.92249 0.12095 0.0
C472 C 0.8459 0.90515 0.10715 0.0
C473 C 0.86081 0.91704 0.14075 0.0
C474 C 0.83654 0.89393 0.14761 0.0
H475 H 0.88532 0.9396 0.11647 0.0
H476 H 0.87743 0.9301 0.1507 0.0
S477 S 0.77571 0.84542 0.11759 0.0
N478 N 0.79894 0.8664 0.10184 0.0
N479 N 0.79037 0.85611 0.13904 0.0
C480 C 0.81546 0.87791 0.13403 0.0
C481 C 0.8201 0.88353 0.11382 0.0
C482 C 0.32589 0.61382 0.38603 0.0
C483 C 0.34851 0.58994 0.3938 0.0
C484 C 0.32155 0.61718 0.36605 0.0
C485 C 0.33956 0.59674 0.35297 0.0
H486 H 0.31233 0.63105 0.3954 0.0
H487 H 0.30475 0.6368 0.36086 0.0
S488 S 0.39863 0.5273 0.36593 0.0
N489 N 0.38674 0.54329 0.38686 0.0
N490 N 0.37856 0.54952 0.34934 0.0
C491 C 0.36079 0.57141 0.36056 0.0
C492 C 0.36527 0.56805 0.38094 0.0
C493 C 0.63872 0.08258 0.64107 0.0
C494 C 0.66271 0.10581 0.64812 0.0
C495 C 0.63402 0.07775 0.62122 0.0
C496 C 0.65316 0.09585 0.60757 0.0
H497 H 0.62236 0.06895 0.65091 0.0
H498 H 0.61429 0.06055 0.61661 0.0
S499 S 0.72255 0.15627 0.61848 0.0
N500 N 0.70826 0.14459 0.63985 0.0
N501 N 0.69951 0.13546 0.60256 0.0
C502 C 0.67874 0.11757 0.61441 0.0
C503 C 0.68348 0.12256 0.63466 0.0
C504 C 0.86081 0.41772 0.8599 0.0
C505 C 0.83644 0.39529 0.85245 0.0
C506 C 0.8665 0.42047 0.8798 0.0
C507 C 0.84795 0.40106 0.89314 0.0
H508 H 0.87657 0.43252 0.85029 0.0
H509 H 0.88628 0.43737 0.88468 0.0
S510 S 0.77873 0.34101 0.88128 0.0
N511 N 0.79177 0.35513 0.86013 0.0
N512 N 0.80237 0.36037 0.89751 0.0
C513 C 0.82229 0.37977 0.88597 0.0
C514 C 0.81658 0.37686 0.86565 0.0
C515 C 0.32251 0.11999 0.63397 0.0
C516 C 0.34007 0.1 0.64745 0.0
C517 C 0.32717 0.11564 0.61408 0.0
C518 C 0.34963 0.09114 0.60681 0.0
H519 H 0.30593 0.1401 0.63875 0.0
H520 H 0.31397 0.13261 0.60439 0.0
S521 S 0.39833 0.02911 0.63593 0.0
N522 N 0.37828 0.05238 0.65205 0.0
N523 N 0.38705 0.04427 0.61469 0.0
C524 C 0.36579 0.06957 0.62009 0.0
C525 C 0.36101 0.07397 0.64038 0.0
C526 C 0.67044 0.61499 0.38495 0.0
C527 C 0.64832 0.5903 0.39237 0.0
C528 C 0.67601 0.61818 0.36505 0.0
C529 C 0.65977 0.59679 0.35171 0.0
H530 H 0.68267 0.6329 0.3945 0.0
H531 H 0.69233 0.63841 0.36011 0.0
S532 S 0.60271 0.52519 0.3638 0.0
N533 N 0.61249 0.54201 0.38488 0.0
N534 N 0.62298 0.54795 0.34753 0.0
C535 C 0.63906 0.57075 0.359 0.0
C536 C 0.63332 0.56754 0.37929 0.0
C537 C 0.13651 0.91944 0.14008 0.0
C538 C 0.16078 0.8961 0.14666 0.0
C539 C 0.13172 0.92538 0.12033 0.0
C540 C 0.15109 0.90836 0.10633 0.0
H541 H 0.11998 0.93222 0.15019 0.0
H542 H 0.11177 0.94257 0.11605 0.0
S543 S 0.22128 0.84827 0.11609 0.0
N544 N 0.20682 0.85847 0.13767 0.0
N545 N 0.19797 0.8697 0.10058 0.0
C546 C 0.17696 0.88659 0.11276 0.0
C547 C 0.18174 0.88043 0.1329 0.0
C548 C 0.82665 0.60747 0.10842 0.0
C549 C 0.84908 0.58331 0.10075 0.0
C550 C 0.82218 0.611 0.12838 0.0
C551 C 0.83989 0.59049 0.14155 0.0
H552 H 0.81335 0.62481 0.09899 0.0
H553 H 0.8056 0.63087 0.13348 0.0
S554 S 0.89821 0.52024 0.12891 0.0
N555 N 0.88668 0.53623 0.1079 0.0
N556 N 0.87826 0.5428 0.14539 0.0
C557 C 0.86083 0.56481 0.13407 0.0
C558 C 0.86543 0.56125 0.1137 0.0
C559 C 0.13518 0.08026 0.86428 0.0
C560 C 0.15976 0.10233 0.85671 0.0
C561 C 0.1306 0.07671 0.88424 0.0
C562 C 0.15054 0.09491 0.89748 0.0
H563 H 0.11833 0.06656 0.85475 0.0
H564 H 0.11052 0.0603 0.88926 0.0
S565 S 0.22133 0.15283 0.88513 0.0
N566 N 0.20641 0.14033 0.86406 0.0
N567 N 0.19797 0.13357 0.90153 0.0
C568 C 0.17657 0.11557 0.89012 0.0
C569 C 0.18111 0.11931 0.86976 0.0
C570 C 0.63027 0.43228 0.61618 0.0
C571 C 0.64999 0.41401 0.60287 0.0
C572 C 0.63491 0.42858 0.63611 0.0
C573 C 0.65939 0.40633 0.64362 0.0
H574 H 0.61023 0.44879 0.61122 0.0
H575 H 0.61817 0.44235 0.64567 0.0
S576 S 0.72048 0.35561 0.61498 0.0
N577 N 0.69716 0.37511 0.59866 0.0
N578 N 0.70579 0.36811 0.63611 0.0
C579 C 0.68062 0.38935 0.6305 0.0
C580 C 0.67596 0.3932 0.61015 0.0
C581 C 0.31863 0.88735 0.37165 0.0
C582 C 0.33766 0.90612 0.35822 0.0
C583 C 0.32262 0.89212 0.39155 0.0
C584 C 0.34592 0.91577 0.39888 0.0
H585 H 0.30145 0.86778 0.36682 0.0
H586 H 0.3084 0.87596 0.40122 0.0
S587 S 0.39823 0.97499 0.36989 0.0
N588 N 0.3779 0.95209 0.35371 0.0
N589 N 0.38547 0.96091 0.39111 0.0
C590 C 0.36343 0.93634 0.38564 0.0
C591 C 0.35927 0.93158 0.36533 0.0
C592 C 0.01722 0.61228 0.04415 0.0
C593 C 0.03502 0.63426 0.0565 0.0
C594 C 0.98182 0.61185 0.04372 0.0
C595 C 0.9626 0.63338 0.05561 0.0
H596 H 0.03069 0.5953 0.0346 0.0
H597 H 0.96949 0.59455 0.03385 0.0
S598 S 0.99676 0.69519 0.091 0.0
N599 N 0.03059 0.67774 0.08125 0.0
N600 N 0.96413 0.67694 0.08044 0.0
C601 C 0.98002 0.65528 0.0682 0.0
C602 C 0.01615 0.65571 0.06864 0.0
C603 C 0.64946 0.723 0.28163 0.0
C604 C 0.63166 0.70931 0.2974 0.0
C605 C 0.65314 0.75803 0.27934 0.0
C606 C 0.63937 0.78087 0.2928 0.0
H607 H 0.66034 0.70658 0.27077 0.0
H608 H 0.66681 0.76718 0.26684 0.0
S609 S 0.5918 0.75794 0.33721 0.0
N610 N 0.60099 0.72134 0.32706 0.0
N611 N 0.60798 0.78705 0.32286 0.0
C612 C 0.62195 0.76748 0.30884 0.0
C613 C 0.61806 0.73178 0.3111 0.0
C614 C 0.48244 0.39223 0.54433 0.0
C615 C 0.46401 0.36711 0.55417 0.0
C616 C 0.51787 0.39224 0.54423 0.0
C617 C 0.53646 0.36713 0.55397 0.0
H618 H 0.46946 0.41214 0.53656 0.0
H619 H 0.53072 0.41216 0.5364 0.0
S620 S 0.50047 0.2955 0.58199 0.0
N621 N 0.46717 0.31634 0.57399 0.0
N622 N 0.53363 0.31636 0.5738 0.0
C623 C 0.51839 0.34188 0.56395 0.0
C624 C 0.48225 0.34187 0.56405 0.0
C625 C 0.88347 0.26408 0.80444 0.0
C626 C 0.86444 0.28736 0.79359 0.0
C627 C 0.87961 0.22918 0.80189 0.0
C628 C 0.85666 0.21595 0.78831 0.0
H629 H 0.90161 0.27279 0.81504 0.0
H630 H 0.89504 0.21247 0.81061 0.0
S631 S 0.80021 0.266 0.75637 0.0
N632 N 0.82132 0.29463 0.76883 0.0
N633 N 0.81417 0.22902 0.76401 0.0
C634 C 0.83728 0.2389 0.77739 0.0
C635 C 0.84112 0.27455 0.78005 0.0
C636 C 0.98247 0.33847 0.93649 0.0
C637 C 0.96292 0.3634 0.94574 0.0
C638 C 0.01785 0.3398 0.9366 0.0
C639 C 0.03532 0.36611 0.94597 0.0
H640 H 0.97042 0.31754 0.92912 0.0
H641 H 0.03156 0.31982 0.92932 0.0
S642 S 0.99614 0.43827 0.97204 0.0
N643 N 0.96378 0.41566 0.96433 0.0
N644 N 0.03024 0.41814 0.96454 0.0
C645 C 0.01613 0.39141 0.95519 0.0
C646 C 0.98001 0.39006 0.95507 0.0
C647 C 0.90545 0.75978 0.18484 0.0
C648 C 0.88012 0.77754 0.19487 0.0
C649 C 0.90556 0.72439 0.18407 0.0
C650 C 0.88034 0.70517 0.19329 0.0
H651 H 0.92566 0.77325 0.1776 0.0
H652 H 0.92585 0.71207 0.17627 0.0
S653 S 0.8074 0.73933 0.2209 0.0
N654 N 0.82847 0.77315 0.21384 0.0
N655 N 0.82867 0.70669 0.21239 0.0
C656 C 0.85453 0.72258 0.20318 0.0
C657 C 0.85443 0.7587 0.20397 0.0
C658 C 0.47872 0.61431 0.45156 0.0
C659 C 0.46008 0.63851 0.44113 0.0
C660 C 0.51413 0.6141 0.45124 0.0
C661 C 0.53249 0.63811 0.4405 0.0
H662 H 0.46593 0.59531 0.46013 0.0
H663 H 0.52715 0.59499 0.45962 0.0
S664 S 0.49587 0.70669 0.41036 0.0
N665 N 0.46276 0.68698 0.4195 0.0
N666 N 0.52923 0.6866 0.41891 0.0
C667 C 0.5142 0.66233 0.42985 0.0
C668 C 0.47807 0.66253 0.43016 0.0
C669 C 0.59393 0.23822 0.68543 0.0
C670 C 0.6187 0.22052 0.69595 0.0
C671 C 0.59356 0.27361 0.68481 0.0
C672 C 0.61794 0.29292 0.69469 0.0
H673 H 0.57438 0.22469 0.67766 0.0
H674 H 0.57373 0.28587 0.6766 0.0
S675 S 0.6892 0.25898 0.72379 0.0
N676 N 0.66893 0.22508 0.7161 0.0
N677 N 0.66825 0.29156 0.71494 0.0
C678 C 0.64318 0.27559 0.70509 0.0
C679 C 0.64355 0.23946 0.70572 0.0
C680 C 0.40386 0.27092 0.68571 0.0
C681 C 0.37869 0.28945 0.69542 0.0
C682 C 0.40423 0.23552 0.68604 0.0
C683 C 0.37946 0.21703 0.69612 0.0
H684 H 0.42372 0.28381 0.67784 0.0
H685 H 0.42437 0.22261 0.67843 0.0
S686 S 0.30714 0.25326 0.72339 0.0
N687 N 0.3277 0.2865 0.71505 0.0
N688 N 0.32841 0.22 0.71568 0.0
C689 C 0.35383 0.23517 0.70571 0.0
C690 C 0.35344 0.27132 0.70536 0.0
C691 C 0.13965 0.72647 0.20435 0.0
C692 C 0.11486 0.70836 0.19405 0.0
C693 C 0.13986 0.7619 0.20465 0.0
C694 C 0.11529 0.78082 0.19467 0.0
H695 H 0.15911 0.71322 0.21234 0.0
H696 H 0.15947 0.7745 0.21286 0.0
S697 S 0.04485 0.74575 0.16533 0.0
N698 N 0.06511 0.71218 0.17346 0.0
N699 N 0.0655 0.77864 0.17403 0.0
C700 C 0.09044 0.76307 0.1842 0.0
C701 C 0.09023 0.72693 0.18388 0.0
C702 C 0.13949 0.22906 0.79517 0.0
C703 C 0.13016 0.20999 0.77885 0.0
C704 C 0.13881 0.26448 0.79492 0.0
C705 C 0.1288 0.28244 0.77832 0.0
H706 H 0.14724 0.21658 0.80837 0.0
H707 H 0.1461 0.27782 0.80793 0.0
S708 S 0.10238 0.24466 0.73157 0.0
N709 N 0.11093 0.21188 0.74547 0.0
N710 N 0.10968 0.27835 0.74499 0.0
C711 C 0.1197 0.26374 0.76181 0.0
C712 C 0.12037 0.2276 0.76208 0.0
C713 C 0.35309 0.72353 0.28282 0.0
C714 C 0.36928 0.71016 0.29923 0.0
C715 C 0.34962 0.75849 0.28021 0.0
C716 C 0.36192 0.78159 0.29397 0.0
H717 H 0.34336 0.7069 0.2717 0.0
H718 H 0.33722 0.76738 0.26722 0.0
S719 S 0.40507 0.7596 0.33997 0.0
N720 N 0.39694 0.72278 0.32976 0.0
N721 N 0.39027 0.78843 0.32495 0.0
C722 C 0.3777 0.76856 0.31064 0.0
C723 C 0.38143 0.7329 0.31323 0.0
C724 C 0.48304 0.11584 0.54809 0.0
C725 C 0.46442 0.13778 0.56005 0.0
C726 C 0.51846 0.11602 0.5481 0.0
C727 C 0.53687 0.13814 0.56006 0.0
H728 H 0.47021 0.09844 0.53849 0.0
H729 H 0.53145 0.09874 0.5385 0.0
S730 S 0.50034 0.19998 0.59464 0.0
N731 N 0.46719 0.1818 0.58458 0.0
N732 N 0.53367 0.18212 0.58459 0.0
C733 C 0.51861 0.15998 0.57228 0.0
C734 C 0.48247 0.1598 0.57228 0.0
C735 C 0.98074 0.84423 0.06542 0.0
C736 C 0.96197 0.86955 0.056 0.0
C737 C 0.01615 0.8446 0.06541 0.0
C738 C 0.0344 0.87029 0.05595 0.0
H739 H 0.96807 0.82368 0.07281 0.0
H740 H 0.02926 0.82431 0.07278 0.0
S741 S 0.99743 0.94331 0.02961 0.0
N742 N 0.9644 0.92164 0.03729 0.0
N743 N 0.0309 0.92231 0.03726 0.0
C744 C 0.01599 0.89606 0.04664 0.0
C745 C 0.97985 0.89569 0.04667 0.0
C746 C 0.47623 0.87436 0.4895 0.0
C747 C 0.45782 0.88672 0.47361 0.0
C748 C 0.51165 0.87436 0.48955 0.0
C749 C 0.53026 0.88676 0.47374 0.0
H750 H 0.46326 0.86419 0.50198 0.0
H751 H 0.52448 0.86419 0.50209 0.0
S752 S 0.49427 0.92344 0.42881 0.0
N753 N 0.46096 0.91277 0.44179 0.0
N754 N 0.52745 0.91279 0.44191 0.0
C755 C 0.51219 0.89976 0.45785 0.0
C756 C 0.47605 0.89973 0.45778 0.0
C757 C 0.02182 0.10911 0.95952 0.0
C758 C 0.03962 0.12763 0.97358 0.0
C759 C 0.98645 0.10803 0.95941 0.0
C760 C 0.96723 0.12551 0.97331 0.0
H761 H 0.03527 0.09527 0.94842 0.0
H762 H 0.97414 0.09347 0.94818 0.0
S763 S 0.00145 0.17783 0.01334 0.0
N764 N 0.03526 0.16387 0.00188 0.0
N765 N 0.96878 0.16188 0.00165 0.0
C766 C 0.98466 0.14401 0.98755 0.0
C767 C 0.02079 0.14506 0.98769 0.0
C768 C 0.16932 0.46946 0.00317 0.0
C769 C 0.16918 0.47864 0.98352 0.0
C770 C 0.16995 0.49394 0.01777 0.0
C771 C 0.17034 0.52866 0.01334 0.0
H772 H 0.16766 0.44315 0.00741 0.0
H773 H 0.16861 0.48548 0.03262 0.0
S774 S 0.17538 0.56609 0.96424 0.0
N775 N 0.17334 0.52494 0.96046 0.0
N776 N 0.17442 0.57093 0.9879 0.0
C777 C 0.17243 0.53819 0.99379 0.0
C778 C 0.17189 0.51321 0.97889 0.0
C779 C 0.74004 0.90908 0.23507 0.0
C780 C 0.77488 0.90909 0.23918 0.0
C781 C 0.71593 0.90926 0.24988 0.0
C782 C 0.7256 0.90948 0.26944 0.0
H783 H 0.73115 0.90773 0.2203 0.0
H784 H 0.68949 0.90809 0.24588 0.0
S785 S 0.81362 0.91386 0.28798 0.0
N786 N 0.81784 0.91249 0.26429 0.0
N787 N 0.77254 0.91282 0.2921 0.0
C788 C 0.76033 0.91137 0.27377 0.0
C789 C 0.78494 0.91119 0.25866 0.0
C790 C 0.33158 0.46919 0.49418 0.0
C791 C 0.32889 0.47828 0.51378 0.0
C792 C 0.33123 0.49364 0.47956 0.0
C793 C 0.32832 0.52826 0.4839 0.0
H794 H 0.33517 0.44302 0.49005 0.0
H795 H 0.33469 0.4853 0.4648 0.0
S796 S 0.31581 0.56523 0.53267 0.0
N797 N 0.31967 0.52424 0.53658 0.0
N798 N 0.31913 0.57017 0.50909 0.0
C799 C 0.32356 0.53761 0.50333 0.0
C800 C 0.32379 0.51265 0.51825 0.0
C801 C 0.78407 0.08546 0.7481 0.0
C802 C 0.77552 0.08632 0.76783 0.0
C803 C 0.75914 0.08525 0.73375 0.0
C804 C 0.72457 0.08593 0.73851 0.0
H805 H 0.81028 0.08621 0.74359 0.0
H806 H 0.76719 0.08591 0.71881 0.0
S807 S 0.6886 0.08339 0.78804 0.0
N808 N 0.7299 0.08426 0.79139 0.0
N809 N 0.68303 0.08388 0.76443 0.0
C810 C 0.7156 0.08471 0.75818 0.0
C811 C 0.74105 0.08491 0.77282 0.0
C812 C 0.83945 0.52997 0.99234 0.0
C813 C 0.8298 0.52266 0.01145 0.0
C814 C 0.84141 0.50456 0.97831 0.0
C815 C 0.83384 0.47065 0.98274 0.0
H816 H 0.84668 0.55539 0.98823 0.0
H817 H 0.85006 0.51155 0.96402 0.0
S818 S 0.80328 0.43857 0.03003 0.0
N819 N 0.80956 0.47935 0.03362 0.0
N820 N 0.81331 0.4316 0.00724 0.0
C821 C 0.82231 0.46321 0.0015 0.0
C822 C 0.82027 0.48918 0.01584 0.0
C823 C 0.26134 0.08247 0.77156 0.0
C824 C 0.22686 0.07792 0.76732 0.0
C825 C 0.28577 0.08234 0.75693 0.0
C826 C 0.27679 0.07757 0.73744 0.0
H827 H 0.26952 0.08769 0.78618 0.0
H828 H 0.31176 0.08737 0.76093 0.0
S829 S 0.19051 0.05923 0.71903 0.0
N830 N 0.1854 0.06459 0.74248 0.0
N831 N 0.23132 0.0643 0.71499 0.0
C832 C 0.24269 0.0706 0.73316 0.0
C833 C 0.21775 0.0708 0.74808 0.0
C834 C 0.66285 0.51288 0.51605 0.0
C835 C 0.66683 0.47827 0.51195 0.0
C836 C 0.66326 0.53714 0.50133 0.0
C837 C 0.66779 0.52789 0.48187 0.0
H838 H 0.65802 0.52134 0.53066 0.0
H839 H 0.65883 0.56327 0.50526 0.0
S840 S 0.68406 0.44102 0.46371 0.0
N841 N 0.67891 0.43627 0.4872 0.0
N842 N 0.67975 0.48188 0.45953 0.0
C843 C 0.67394 0.49359 0.47768 0.0
C844 C 0.67342 0.4688 0.49271 0.0
C845 C 0.26069 0.90296 0.2338 0.0
C846 C 0.22628 0.90946 0.23733 0.0
C847 C 0.28476 0.90539 0.24853 0.0
C848 C 0.27553 0.91454 0.26746 0.0
H849 H 0.26911 0.89479 0.21967 0.0
H850 H 0.31071 0.89905 0.2451 0.0
S851 S 0.18928 0.93814 0.28382 0.0
N852 N 0.18457 0.92833 0.26082 0.0
N853 N 0.22985 0.93297 0.28853 0.0
C854 C 0.24148 0.92287 0.27099 0.0
C855 C 0.21687 0.9203 0.25595 0.0
C856 C 0.66943 0.03731 0.49904 0.0
C857 C 0.67204 0.02865 0.51871 0.0
C858 C 0.66847 0.01247 0.48467 0.0
C859 C 0.66988 0.97788 0.48934 0.0
H860 H 0.66687 0.06349 0.49469 0.0
H861 H 0.66505 0.02053 0.46985 0.0
S862 S 0.68177 0.9418 0.53838 0.0
N863 N 0.67977 0.98302 0.54191 0.0
N864 N 0.67781 0.93633 0.51486 0.0
C865 C 0.67473 0.96888 0.50881 0.0
C866 C 0.67588 0.99425 0.52349 0.0
C867 C 0.21128 0.41282 0.74472 0.0
C868 C 0.21993 0.41904 0.76411 0.0
C869 C 0.23582 0.41265 0.73015 0.0
C870 C 0.27011 0.41869 0.73433 0.0
H871 H 0.18551 0.40669 0.74076 0.0
H872 H 0.22788 0.4064 0.71562 0.0
S873 S 0.30542 0.44124 0.78234 0.0
N874 N 0.26477 0.43503 0.78639 0.0
N875 N 0.31091 0.43472 0.75901 0.0
C876 C 0.27883 0.42713 0.75345 0.0
C877 C 0.25377 0.4273 0.76833 0.0
C878 C 0.82115 0.01363 0.03067 0.0
C879 C 0.8245 0.98106 0.02269 0.0
C880 C 0.82328 0.04266 0.01913 0.0
C881 C 0.82875 0.04037 0.99909 0.0
H882 H 0.81833 0.01694 0.04611 0.0
H883 H 0.82192 0.06709 0.02615 0.0
S884 S 0.83402 0.96089 0.9706 0.0
N885 N 0.82978 0.94814 0.99316 0.0
N886 N 0.83365 0.00259 0.97145 0.0
C887 C 0.82982 0.00789 0.99072 0.0
C888 C 0.82774 0.9783 0.00251 0.0
C889 C 0.23937 0.57394 0.26824 0.0
C890 C 0.27377 0.56945 0.26379 0.0
C891 C 0.21464 0.57367 0.25379 0.0
C892 C 0.22321 0.56874 0.23427 0.0
H893 H 0.23147 0.57934 0.2829 0.0
H894 H 0.18873 0.5787 0.25796 0.0
S895 S 0.30911 0.55024 0.21534 0.0
N896 N 0.31471 0.55586 0.23873 0.0
N897 N 0.26821 0.55523 0.21155 0.0
C898 C 0.25721 0.56167 0.22977 0.0
C899 C 0.28248 0.56207 0.24453 0.0
C900 C 0.32952 0.03826 0.49848 0.0
C901 C 0.32486 0.02984 0.51804 0.0
C902 C 0.32929 0.01345 0.48408 0.0
C903 C 0.32461 0.97909 0.48862 0.0
H904 H 0.3345 0.06415 0.49423 0.0
H905 H 0.33427 0.02127 0.46936 0.0
S906 S 0.30689 0.94405 0.53733 0.0
N907 N 0.31205 0.98497 0.54099 0.0
N908 N 0.31177 0.93829 0.5139 0.0
C909 C 0.31786 0.97049 0.50797 0.0
C910 C 0.31792 0.99586 0.52268 0.0
C911 C 0.76123 0.57174 0.26585 0.0
C912 C 0.72663 0.56772 0.26176 0.0
C913 C 0.78553 0.57065 0.25118 0.0
C914 C 0.7763 0.56545 0.23177 0.0
H915 H 0.76964 0.5774 0.28038 0.0
H916 H 0.81162 0.57544 0.25506 0.0
S917 S 0.68964 0.54752 0.21383 0.0
N918 N 0.68478 0.55393 0.23722 0.0
N919 N 0.73048 0.55186 0.20962 0.0
C920 C 0.74208 0.55873 0.22767 0.0
C921 C 0.71726 0.55989 0.24265 0.0
C922 C 0.16872 0.0116 0.02086 0.0
C923 C 0.17049 0.97699 0.01626 0.0
C924 C 0.16941 0.03639 0.00642 0.0
C925 C 0.17192 0.02762 0.98677 0.0
H926 H 0.16529 0.01971 0.03566 0.0
H927 H 0.16649 0.06255 0.01072 0.0
S928 S 0.18286 0.94082 0.96727 0.0
N929 N 0.17895 0.93542 0.99079 0.0
N930 N 0.18026 0.98199 0.96367 0.0
C931 C 0.17611 0.99324 0.98206 0.0
C932 C 0.17538 0.96795 0.99679 0.0
C933 C 0.73577 0.42659 0.76748 0.0
C934 C 0.77034 0.43071 0.76332 0.0
C935 C 0.71134 0.42793 0.75288 0.0
C936 C 0.7204 0.43349 0.73347 0.0
H937 H 0.72748 0.42064 0.78199 0.0
H938 H 0.68529 0.42302 0.7568 0.0
S939 S 0.80691 0.45175 0.71539 0.0
N940 N 0.81197 0.44497 0.73873 0.0
N941 N 0.76604 0.44749 0.71127 0.0
C942 C 0.75458 0.44034 0.72932 0.0
C943 C 0.77953 0.43895 0.74423 0.0
C944 C 0.15697 0.76986 0.03184 0.0
C945 C 0.18202 0.7884 0.04165 0.0
C946 C 0.15698 0.7345 0.03189 0.0
C947 C 0.18204 0.71604 0.04175 0.0
H948 H 0.13636 0.78269 0.0246 0.0
H949 H 0.13638 0.72161 0.02467 0.0
S950 S 0.25577 0.75236 0.06771 0.0
N951 N 0.23443 0.78559 0.06001 0.0
N952 N 0.23446 0.71905 0.06009 0.0
C953 C 0.20843 0.73419 0.05064 0.0
C954 C 0.20842 0.77035 0.05059 0.0
C955 C 0.51715 0.95683 0.3053 0.0
C956 C 0.53545 0.93453 0.2934 0.0
C957 C 0.48171 0.95692 0.30532 0.0
C958 C 0.46324 0.93473 0.29345 0.0
H959 H 0.53014 0.9731 0.31545 0.0
H960 H 0.46884 0.97326 0.31549 0.0
S961 S 0.4991 0.87602 0.25697 0.0
N962 N 0.53243 0.89308 0.26748 0.0
N963 N 0.46591 0.89326 0.26753 0.0
C964 C 0.48122 0.91429 0.28036 0.0
C965 C 0.5173 0.91419 0.28034 0.0
C966 C 0.34273 0.23529 0.53212 0.0
C967 C 0.31715 0.21716 0.54175 0.0
C968 C 0.34256 0.27064 0.5315 0.0
C969 C 0.31682 0.2895 0.5405 0.0
H970 H 0.3639 0.2222 0.5256 0.0
H971 H 0.36363 0.28322 0.52456 0.0
S972 S 0.24129 0.25424 0.56522 0.0
N973 N 0.26336 0.22071 0.55871 0.0
N974 N 0.26305 0.28723 0.55755 0.0
C975 C 0.28986 0.2717 0.54907 0.0
C976 C 0.29003 0.23556 0.54969 0.0
C977 C 0.98353 0.03817 0.79863 0.0
C978 C 0.96567 0.06191 0.78745 0.0
C979 C 0.01895 0.03854 0.79942 0.0
C980 C 0.03781 0.06266 0.78904 0.0
H981 H 0.9701 0.02037 0.80772 0.0
H982 H 0.03145 0.02092 0.80903 0.0
S983 S 0.0033 0.12608 0.75475 0.0
N984 N 0.96962 0.10708 0.76371 0.0
N985 N 0.03608 0.10777 0.76513 0.0
C986 C 0.02033 0.08471 0.77659 0.0
C987 C 0.9843 0.08434 0.77581 0.0
C988 C 0.16326 0.23575 0.97134 0.0
C989 C 0.18686 0.21738 0.96033 0.0
C990 C 0.16268 0.27111 0.97106 0.0
C991 C 0.1857 0.2897 0.95977 0.0
H992 H 0.1441 0.22276 0.97971 0.0
H993 H 0.14312 0.28386 0.97922 0.0
S994 S 0.25539 0.25395 0.93017 0.0
N995 N 0.23599 0.22058 0.93923 0.0
N996 N 0.23492 0.28709 0.9387 0.0
C997 C 0.21089 0.27177 0.94968 0.0
C998 C 0.21147 0.23563 0.94995 0.0
C999 C 0.98136 0.94685 0.19961 0.0
C1000 C 0.9633 0.92333 0.21084 0.0
C1001 C 0.01678 0.94727 0.19951 0.0
C1002 C 0.03559 0.9242 0.21065 0.0
H1003 H 0.96815 0.96418 0.19014 0.0
H1004 H 0.02941 0.96491 0.18996 0.0
S1005 S 0.00044 0.861 0.2449 0.0
N1006 N 0.96691 0.87894 0.23512 0.0
N1007 N 0.03339 0.87974 0.23495 0.0
C1008 C 0.01784 0.90207 0.22295 0.0
C1009 C 0.98175 0.90163 0.22304 0.0
C1010 C 0.3378 0.73515 0.46803 0.0
C1011 C 0.31267 0.71705 0.458 0.0
C1012 C 0.33727 0.77049 0.46897 0.0
C1013 C 0.3116 0.78936 0.45992 0.0
H1014 H 0.35887 0.72207 0.47466 0.0
H1015 H 0.35797 0.78307 0.47627 0.0
S1016 S 0.23726 0.75409 0.43405 0.0
N1017 N 0.25944 0.72059 0.44048 0.0
N1018 N 0.25844 0.78706 0.44225 0.0
C1019 C 0.28512 0.77156 0.45088 0.0
C1020 C 0.28566 0.73543 0.44992 0.0
C1021 C 0.48275 0.09686 0.72076 0.0
C1022 C 0.46464 0.07114 0.71126 0.0
C1023 C 0.51811 0.0974 0.72075 0.0
C1024 C 0.53697 0.07225 0.71124 0.0
H1025 H 0.4696 0.11755 0.72772 0.0
H1026 H 0.53065 0.11848 0.72771 0.0
S1027 S 0.5019 0.9969 0.68624 0.0
N1028 N 0.46833 0.01804 0.6936 0.0
N1029 N 0.53484 0.01904 0.69359 0.0
C1030 C 0.51927 0.04522 0.70267 0.0
C1031 C 0.48313 0.04467 0.70268 0.0
C1032 C 0.84016 0.25984 0.96723 0.0
C1033 C 0.81621 0.27788 0.95627 0.0
C1034 C 0.84106 0.22443 0.9671 0.0
C1035 C 0.81814 0.20544 0.95594 0.0
H1036 H 0.85929 0.27314 0.97545 0.0
H1037 H 0.86091 0.21198 0.97519 0.0
S1038 S 0.74744 0.24014 0.92674 0.0
N1039 N 0.76671 0.27383 0.93549 0.0
N1040 N 0.76849 0.20732 0.93522 0.0
C1041 C 0.79269 0.22304 0.94588 0.0
C1042 C 0.7917 0.25919 0.94605 0.0
C1043 C 0.70011 0.77274 0.45078 0.0
C1044 C 0.67605 0.7897 0.46219 0.0
C1045 C 0.70023 0.73739 0.44933 0.0
C1046 C 0.67632 0.71758 0.45925 0.0
H1047 H 0.71811 0.78684 0.44217 0.0
H1048 H 0.71834 0.72571 0.43968 0.0
S1049 S 0.61136 0.74936 0.4935 0.0
N1050 N 0.63019 0.78377 0.48537 0.0
N1051 N 0.63041 0.71743 0.48269 0.0
C1052 C 0.6536 0.7341 0.47176 0.0
C1053 C 0.65347 0.77011 0.47322 0.0
C1054 C 0.79418 0.73107 0.04975 0.0
C1055 C 0.81835 0.71331 0.03881 0.0
C1056 C 0.79375 0.7665 0.05022 0.0
C1057 C 0.81747 0.78574 0.03977 0.0
H1058 H 0.77622 0.71759 0.0587 0.0
H1059 H 0.77548 0.77878 0.05952 0.0
S1060 S 0.88302 0.75168 0.00664 0.0
N1061 N 0.86438 0.71781 0.01561 0.0
N1062 N 0.86357 0.78431 0.0165 0.0
C1063 C 0.84038 0.76836 0.02777 0.0
C1064 C 0.84082 0.73222 0.02729 0.0
C1065 C 0.66 0.27094 0.53065 0.0
C1066 C 0.68423 0.29 0.54081 0.0
C1067 C 0.66 0.23558 0.53129 0.0
C1068 C 0.68423 0.21768 0.5421 0.0
H1069 H 0.63997 0.28336 0.52269 0.0
H1070 H 0.63998 0.2223 0.52379 0.0
S1071 S 0.75581 0.25538 0.56935 0.0
N1072 N 0.73514 0.28818 0.56054 0.0
N1073 N 0.73513 0.22168 0.56174 0.0
C1074 C 0.70993 0.2363 0.55133 0.0
C1075 C 0.70993 0.27244 0.55069 0.0
C1076 C 0.97801 0.40649 0.78077 0.0
C1077 C 0.96011 0.43274 0.78993 0.0
C1078 C 0.01337 0.40542 0.78102 0.0
C1079 C 0.03246 0.43055 0.79042 0.0
H1080 H 0.96466 0.38583 0.77389 0.0
H1081 H 0.02572 0.38399 0.7743 0.0
S1082 S 0.99808 0.50707 0.81455 0.0
N1083 N 0.96432 0.48623 0.80716 0.0
N1084 N 0.0308 0.48422 0.80761 0.0
C1085 C 0.015 0.45801 0.79868 0.0
C1086 C 0.97886 0.4591 0.79844 0.0
C1087 C 0.48304 0.54174 0.2998 0.0
C1088 C 0.4644 0.56524 0.28887 0.0
C1089 C 0.51846 0.54162 0.29952 0.0
C1090 C 0.53674 0.56501 0.2883 0.0
H1091 H 0.4703 0.52402 0.30925 0.0
H1092 H 0.53154 0.52384 0.30877 0.0
S1093 S 0.49998 0.62886 0.25502 0.0
N1094 N 0.46691 0.61036 0.26498 0.0
N1095 N 0.5334 0.61015 0.26446 0.0
C1096 C 0.51841 0.58737 0.27642 0.0
C1097 C 0.4823 0.58748 0.2767 0.0
C1098 C 0.47896 0.41345 0.71697 0.0
C1099 C 0.45982 0.43836 0.70741 0.0
C1100 C 0.51432 0.41393 0.71659 0.0
C1101 C 0.53218 0.43933 0.70664 0.0
H1102 H 0.4666 0.39261 0.72426 0.0
H1103 H 0.52767 0.39343 0.72363 0.0
S1104 S 0.4942 0.51282 0.68123 0.0
N1105 N 0.46148 0.49097 0.68916 0.0
N1106 N 0.52798 0.49186 0.68847 0.0
C1107 C 0.51344 0.46553 0.69797 0.0
C1108 C 0.4773 0.46505 0.69836 0.0
C1109 C 0.98201 0.58298 0.21639 0.0
C1110 C 0.96444 0.55834 0.20568 0.0
C1111 C 0.01735 0.58352 0.217 0.0
C1112 C 0.03674 0.55945 0.20694 0.0
H1113 H 0.96845 0.60286 0.22385 0.0
H1114 H 0.0295 0.6038 0.22489 0.0
S1115 S 0.00313 0.4871 0.17861 0.0
N1116 N 0.96914 0.50734 0.18618 0.0
N1117 N 0.03562 0.50835 0.18733 0.0
C1118 C 0.01954 0.53342 0.19712 0.0
C1119 C 0.98341 0.53287 0.19649 0.0
loop_
_geom_bond_atom_site_label_1
_geom_bond_atom_site_label_2
_geom_bond_distance
_geom_bond_site_symmetry_2
_ccdc_geom_bond_type
C0 O1 1.160 . S
C0 O7 1.185 . S
O1 C0 1.160 . S
O2 Zn3 1.899 . S
O2 C10 1.284 . S
Zn3 O2 1.899 . S
Zn3 O4 2.032 . S
Zn3 O7 2.086 . S
Zn3 O12 1.977 . S
O4 Zn3 2.032 . S
O4 C8 1.278 . S
C5 O6 1.203 . S
C5 O12 1.267 . S
O6 C5 1.203 . S
O7 C0 1.185 . S
O7 Zn3 2.086 . S
C8 O4 1.278 . S
C8 O9 1.211 . S
O9 C8 1.211 . S
C10 O2 1.284 . S
C10 O11 1.273 . S
O11 C10 1.273 . S
O12 Zn3 1.977 . S
O12 C5 1.267 . S
C13 O14 1.160 . S
C13 O20 1.185 . S
O14 C13 1.160 . S
O15 Zn16 1.899 . S
O15 C23 1.284 . S
Zn16 O15 1.899 . S
Zn16 O17 2.032 . S
Zn16 O20 2.086 . S
Zn16 O25 1.977 . S
O17 Zn16 2.032 . S
O17 C21 1.278 . S
C18 O19 1.203 . S
C18 O25 1.267 . S
O19 C18 1.203 . S
O20 C13 1.185 . S
O20 Zn16 2.086 . S
C21 O17 1.278 . S
C21 O22 1.211 . S
O22 C21 1.211 . S
C23 O15 1.284 . S
C23 O24 1.273 . S
O24 C23 1.273 . S
O25 Zn16 1.977 . S
O25 C18 1.267 . S
C26 O27 1.160 . S
C26 O33 1.185 . S
O27 C26 1.160 . S
O28 Zn29 1.899 . S
O28 C36 1.284 . S
Zn29 O28 1.899 . S
Zn29 O30 2.032 . S
Zn29 O33 2.086 . S
Zn29 O38 1.977 . S
O30 Zn29 2.032 . S
O30 C34 1.278 . S
C31 O32 1.203 . S
C31 O38 1.267 . S
O32 C31 1.203 . S
O33 C26 1.185 . S
O33 Zn29 2.086 . S
C34 O30 1.278 . S
C34 O35 1.211 . S
O35 C34 1.211 . S
C36 O28 1.284 . S
C36 O37 1.273 . S
O37 C36 1.273 . S
O38 Zn29 1.977 . S
O38 C31 1.267 . S
C39 O40 1.160 . S
C39 O46 1.185 . S
O40 C39 1.160 . S
O41 Zn42 1.899 . S
O41 C49 1.284 . S
Zn42 O41 1.899 . S
Zn42 O43 2.032 . S
Zn42 O46 2.086 . S
Zn42 O51 1.977 . S
O43 Zn42 2.032 . S
O43 C47 1.278 . S
C44 O45 1.203 . S
C44 O51 1.267 . S
O45 C44 1.203 . S
O46 C39 1.185 . S
O46 Zn42 2.086 . S
C47 O43 1.278 . S
C47 O48 1.211 . S
O48 C47 1.211 . S
C49 O41 1.284 . S
C49 O50 1.273 . S
O50 C49 1.273 . S
O51 Zn42 1.977 . S
O51 C44 1.267 . S
C52 O53 1.160 . S
C52 O59 1.185 . S
O53 C52 1.160 . S
O54 Zn55 1.899 . S
O54 C62 1.284 . S
Zn55 O54 1.899 . S
Zn55 O56 2.032 . S
Zn55 O59 2.086 . S
Zn55 O64 1.977 . S
O56 Zn55 2.032 . S
O56 C60 1.278 . S
C57 O58 1.203 . S
C57 O64 1.267 . S
O58 C57 1.203 . S
O59 C52 1.185 . S
O59 Zn55 2.086 . S
C60 O56 1.278 . S
C60 O61 1.211 . S
O61 C60 1.211 . S
C62 O54 1.284 . S
C62 O63 1.273 . S
O63 C62 1.273 . S
O64 Zn55 1.977 . S
O64 C57 1.267 . S
C65 O66 1.160 . S
C65 O72 1.185 . S
O66 C65 1.160 . S
O67 Zn68 1.899 . S
O67 C75 1.284 . S
Zn68 O67 1.899 . S
Zn68 O69 2.032 . S
Zn68 O72 2.086 . S
Zn68 O77 1.977 . S
O69 Zn68 2.032 . S
O69 C73 1.278 . S
C70 O71 1.203 . S
C70 O77 1.267 . S
O71 C70 1.203 . S
O72 C65 1.185 . S
O72 Zn68 2.086 . S
C73 O69 1.278 . S
C73 O74 1.211 . S
O74 C73 1.211 . S
C75 O67 1.284 . S
C75 O76 1.273 . S
O76 C75 1.273 . S
O77 Zn68 1.977 . S
O77 C70 1.267 . S
C78 O79 1.160 . S
C78 O85 1.185 . S
O79 C78 1.160 . S
O80 Zn81 1.899 . S
O80 C88 1.284 . S
Zn81 O80 1.899 . S
Zn81 O82 2.032 . S
Zn81 O85 2.086 . S
Zn81 O90 1.977 . S
O82 Zn81 2.032 . S
O82 C86 1.278 . S
C83 O84 1.203 . S
C83 O90 1.267 . S
O84 C83 1.203 . S
O85 C78 1.185 . S
O85 Zn81 2.086 . S
C86 O82 1.278 . S
C86 O87 1.211 . S
O87 C86 1.211 . S
C88 O80 1.284 . S
C88 O89 1.273 . S
O89 C88 1.273 . S
O90 Zn81 1.977 . S
O90 C83 1.267 . S
C91 O92 1.160 . S
C91 O98 1.185 . S
O92 C91 1.160 . S
O93 Zn94 1.899 . S
O93 C101 1.284 . S
Zn94 O93 1.899 . S
Zn94 O95 2.032 . S
Zn94 O98 2.086 . S
Zn94 O103 1.977 . S
O95 Zn94 2.032 . S
O95 C99 1.278 . S
C96 O97 1.203 . S
C96 O103 1.267 . S
O97 C96 1.203 . S
O98 C91 1.185 . S
O98 Zn94 2.086 . S
C99 O95 1.278 . S
C99 O100 1.211 . S
O100 C99 1.211 . S
C101 O93 1.284 . S
C101 O102 1.273 . S
O102 C101 1.273 . S
O103 Zn94 1.977 . S
O103 C96 1.267 . S
C104 O105 1.160 . S
C104 O111 1.185 . S
O105 C104 1.160 . S
O106 Zn107 1.899 . S
O106 C114 1.284 . S
Zn107 O106 1.899 . S
Zn107 O108 2.032 . S
Zn107 O111 2.086 . S
Zn107 O116 1.977 . S
O108 Zn107 2.032 . S
O108 C112 1.278 . S
C109 O110 1.203 . S
C109 O116 1.267 . S
O110 C109 1.203 . S
O111 C104 1.185 . S
O111 Zn107 2.086 . S
C112 O108 1.278 . S
C112 O113 1.211 . S
O113 C112 1.211 . S
C114 O106 1.284 . S
C114 O115 1.273 . S
O115 C114 1.273 . S
O116 Zn107 1.977 . S
O116 C109 1.267 . S
C117 O118 1.160 . S
C117 O124 1.185 . S
O118 C117 1.160 . S
O119 Zn120 1.899 . S
O119 C127 1.284 . S
Zn120 O119 1.899 . S
Zn120 O121 2.032 . S
Zn120 O124 2.086 . S
Zn120 O129 1.977 . S
O121 Zn120 2.032 . S
O121 C125 1.278 . S
C122 O123 1.203 . S
C122 O129 1.267 . S
O123 C122 1.203 . S
O124 C117 1.185 . S
O124 Zn120 2.086 . S
C125 O121 1.278 . S
C125 O126 1.211 . S
O126 C125 1.211 . S
C127 O119 1.284 . S
C127 O128 1.273 . S
O128 C127 1.273 . S
O129 Zn120 1.977 . S
O129 C122 1.267 . S
C130 O131 1.160 . S
C130 O137 1.185 . S
O131 C130 1.160 . S
O132 Zn133 1.899 . S
O132 C140 1.284 . S
Zn133 O132 1.899 . S
Zn133 O134 2.032 . S
Zn133 O137 2.086 . S
Zn133 O142 1.977 . S
O134 Zn133 2.032 . S
O134 C138 1.278 . S
C135 O136 1.203 . S
C135 O142 1.267 . S
O136 C135 1.203 . S
O137 C130 1.185 . S
O137 Zn133 2.086 . S
C138 O134 1.278 . S
C138 O139 1.211 . S
O139 C138 1.211 . S
C140 O132 1.284 . S
C140 O141 1.273 . S
O141 C140 1.273 . S
O142 Zn133 1.977 . S
O142 C135 1.267 . S
C143 O144 1.160 . S
C143 O150 1.185 . S
O144 C143 1.160 . S
O145 Zn146 1.899 . S
O145 C153 1.284 . S
Zn146 O145 1.899 . S
Zn146 O147 2.032 . S
Zn146 O150 2.086 . S
Zn146 O155 1.977 . S
O147 Zn146 2.032 . S
O147 C151 1.278 . S
C148 O149 1.203 . S
C148 O155 1.267 . S
O149 C148 1.203 . S
O150 C143 1.185 . S
O150 Zn146 2.086 . S
C151 O147 1.278 . S
C151 O152 1.211 . S
O152 C151 1.211 . S
C153 O145 1.284 . S
C153 O154 1.273 . S
O154 C153 1.273 . S
O155 Zn146 1.977 . S
O155 C148 1.267 . S
C156 O157 1.160 . S
C156 O163 1.185 . S
O157 C156 1.160 . S
O158 Zn159 1.899 . S
O158 C166 1.284 . S
Zn159 O158 1.899 . S
Zn159 O160 2.032 . S
Zn159 O163 2.086 . S
Zn159 O168 1.977 . S
O160 Zn159 2.032 . S
O160 C164 1.278 . S
C161 O162 1.203 . S
C161 O168 1.267 . S
O162 C161 1.203 . S
O163 C156 1.185 . S
O163 Zn159 2.086 . S
C164 O160 1.278 . S
C164 O165 1.211 . S
O165 C164 1.211 . S
C166 O158 1.284 . S
C166 O167 1.273 . S
O167 C166 1.273 . S
O168 Zn159 1.977 . S
O168 C161 1.267 . S
C169 O170 1.160 . S
C169 O176 1.185 . S
O170 C169 1.160 . S
O171 Zn172 1.899 . S
O171 C179 1.284 . S
Zn172 O171 1.899 . S
Zn172 O173 2.032 . S
Zn172 O176 2.086 . S
Zn172 O181 1.977 . S
O173 Zn172 2.032 . S
O173 C177 1.278 . S
C174 O175 1.203 . S
C174 O181 1.267 . S
O175 C174 1.203 . S
O176 C169 1.185 . S
O176 Zn172 2.086 . S
C177 O173 1.278 . S
C177 O178 1.211 . S
O178 C177 1.211 . S
C179 O171 1.284 . S
C179 O180 1.273 . S
O180 C179 1.273 . S
O181 Zn172 1.977 . S
O181 C174 1.267 . S
C182 O183 1.160 . S
C182 O189 1.185 . S
O183 C182 1.160 . S
O184 Zn185 1.899 . S
O184 C192 1.284 . S
Zn185 O184 1.899 . S
Zn185 O186 2.032 . S
Zn185 O189 2.086 . S
Zn185 O194 1.977 . S
O186 Zn185 2.032 . S
O186 C190 1.278 . S
C187 O188 1.203 . S
C187 O194 1.267 . S
O188 C187 1.203 . S
O189 C182 1.185 . S
O189 Zn185 2.086 . S
C190 O186 1.278 . S
C190 O191 1.211 . S
O191 C190 1.211 . S
C192 O184 1.284 . S
C192 O193 1.273 . S
O193 C192 1.273 . S
O194 Zn185 1.977 . S
O194 C187 1.267 . S
C195 O196 1.160 . S
C195 O202 1.185 . S
O196 C195 1.160 . S
O197 Zn198 1.899 . S
O197 C205 1.284 . S
Zn198 O197 1.899 . S
Zn198 O199 2.032 . S
Zn198 O202 2.086 . S
Zn198 O207 1.977 . S
O199 Zn198 2.032 . S
O199 C203 1.278 . S
C200 O201 1.203 . S
C200 O207 1.267 . S
O201 C200 1.203 . S
O202 C195 1.185 . S
O202 Zn198 2.086 . S
C203 O199 1.278 . S
C203 O204 1.211 . S
O204 C203 1.211 . S
C205 O197 1.284 . S
C205 O206 1.273 . S
O206 C205 1.273 . S
O207 Zn198 1.977 . S
O207 C200 1.267 . S
C208 O209 1.160 . S
C208 O215 1.185 . S
O209 C208 1.160 . S
O210 Zn211 1.899 . S
O210 C218 1.284 . S
Zn211 O210 1.899 . S
Zn211 O212 2.032 . S
Zn211 O215 2.086 . S
Zn211 O220 1.977 . S
O212 Zn211 2.032 . S
O212 C216 1.278 . S
C213 O214 1.203 . S
C213 O220 1.267 . S
O214 C213 1.203 . S
O215 C208 1.185 . S
O215 Zn211 2.086 . S
C216 O212 1.278 . S
C216 O217 1.211 . S
O217 C216 1.211 . S
C218 O210 1.284 . S
C218 O219 1.273 . S
O219 C218 1.273 . S
O220 Zn211 1.977 . S
O220 C213 1.267 . S
C221 O222 1.160 . S
C221 O228 1.185 . S
O222 C221 1.160 . S
O223 Zn224 1.899 . S
O223 C231 1.284 . S
Zn224 O223 1.899 . S
Zn224 O225 2.032 . S
Zn224 O228 2.086 . S
Zn224 O233 1.977 . S
O225 Zn224 2.032 . S
O225 C229 1.278 . S
C226 O227 1.203 . S
C226 O233 1.267 . S
O227 C226 1.203 . S
O228 C221 1.185 . S
O228 Zn224 2.086 . S
C229 O225 1.278 . S
C229 O230 1.211 . S
O230 C229 1.211 . S
C231 O223 1.284 . S
C231 O232 1.273 . S
O232 C231 1.273 . S
O233 Zn224 1.977 . S
O233 C226 1.267 . S
C234 O235 1.160 . S
C234 O241 1.185 . S
O235 C234 1.160 . S
O236 Zn237 1.899 . S
O236 C244 1.284 . S
Zn237 O236 1.899 . S
Zn237 O238 2.032 . S
Zn237 O241 2.086 . S
Zn237 O246 1.977 . S
O238 Zn237 2.032 . S
O238 C242 1.278 . S
C239 O240 1.203 . S
C239 O246 1.267 . S
O240 C239 1.203 . S
O241 C234 1.185 . S
O241 Zn237 2.086 . S
C242 O238 1.278 . S
C242 O243 1.211 . S
O243 C242 1.211 . S
C244 O236 1.284 . S
C244 O245 1.273 . S
O245 C244 1.273 . S
O246 Zn237 1.977 . S
O246 C239 1.267 . S
C247 O248 1.160 . S
C247 O254 1.185 . S
O248 C247 1.160 . S
O249 Zn250 1.899 . S
O249 C257 1.284 . S
Zn250 O249 1.899 . S
Zn250 O251 2.032 . S
Zn250 O254 2.086 . S
Zn250 O259 1.977 . S
O251 Zn250 2.032 . S
O251 C255 1.278 . S
C252 O253 1.203 . S
C252 O259 1.267 . S
O253 C252 1.203 . S
O254 C247 1.185 . S
O254 Zn250 2.086 . S
C255 O251 1.278 . S
C255 O256 1.211 . S
O256 C255 1.211 . S
C257 O249 1.284 . S
C257 O258 1.273 . S
O258 C257 1.273 . S
O259 Zn250 1.977 . S
O259 C252 1.267 . S
C260 O261 1.160 . S
C260 O267 1.185 . S
O261 C260 1.160 . S
O262 Zn263 1.899 . S
O262 C270 1.284 . S
Zn263 O262 1.899 . S
Zn263 O264 2.032 . S
Zn263 O267 2.086 . S
Zn263 O272 1.977 . S
O264 Zn263 2.032 . S
O264 C268 1.278 . S
C265 O266 1.203 . S
C265 O272 1.267 . S
O266 C265 1.203 . S
O267 C260 1.185 . S
O267 Zn263 2.086 . S
C268 O264 1.278 . S
C268 O269 1.211 . S
O269 C268 1.211 . S
C270 O262 1.284 . S
C270 O271 1.273 . S
O271 C270 1.273 . S
O272 Zn263 1.977 . S
O272 C265 1.267 . S
C273 O274 1.160 . S
C273 O280 1.185 . S
O274 C273 1.160 . S
O275 Zn276 1.899 . S
O275 C283 1.284 . S
Zn276 O275 1.899 . S
Zn276 O277 2.032 . S
Zn276 O280 2.086 . S
Zn276 O285 1.977 . S
O277 Zn276 2.032 . S
O277 C281 1.278 . S
C278 O279 1.203 . S
C278 O285 1.267 . S
O279 C278 1.203 . S
O280 C273 1.185 . S
O280 Zn276 2.086 . S
C281 O277 1.278 . S
C281 O282 1.211 . S
O282 C281 1.211 . S
C283 O275 1.284 . S
C283 O284 1.273 . S
O284 C283 1.273 . S
O285 Zn276 1.977 . S
O285 C278 1.267 . S
C286 O287 1.160 . S
C286 O293 1.185 . S
O287 C286 1.160 . S
O288 Zn289 1.899 . S
O288 C296 1.284 . S
Zn289 O288 1.899 . S
Zn289 O290 2.032 . S
Zn289 O293 2.086 . S
Zn289 O298 1.977 . S
O290 Zn289 2.032 . S
O290 C294 1.278 . S
C291 O292 1.203 . S
C291 O298 1.267 . S
O292 C291 1.203 . S
O293 C286 1.185 . S
O293 Zn289 2.086 . S
C294 O290 1.278 . S
C294 O295 1.211 . S
O295 C294 1.211 . S
C296 O288 1.284 . S
C296 O297 1.273 . S
O297 C296 1.273 . S
O298 Zn289 1.977 . S
O298 C291 1.267 . S
C299 O300 1.160 . S
C299 O306 1.185 . S
O300 C299 1.160 . S
O301 Zn302 1.899 . S
O301 C309 1.284 . S
Zn302 O301 1.899 . S
Zn302 O303 2.032 . S
Zn302 O306 2.086 . S
Zn302 O311 1.977 . S
O303 Zn302 2.032 . S
O303 C307 1.278 . S
C304 O305 1.203 . S
C304 O311 1.267 . S
O305 C304 1.203 . S
O306 C299 1.185 . S
O306 Zn302 2.086 . S
C307 O303 1.278 . S
C307 O308 1.211 . S
O308 C307 1.211 . S
C309 O301 1.284 . S
C309 O310 1.273 . S
O310 C309 1.273 . S
O311 Zn302 1.977 . S
O311 C304 1.267 . S
C312 O313 1.160 . S
C312 O319 1.185 . S
O313 C312 1.160 . S
O314 Zn315 1.899 . S
O314 C322 1.284 . S
Zn315 O314 1.899 . S
Zn315 O316 2.032 . S
Zn315 O319 2.086 . S
Zn315 O324 1.977 . S
O316 Zn315 2.032 . S
O316 C320 1.278 . S
C317 O318 1.203 . S
C317 O324 1.267 . S
O318 C317 1.203 . S
O319 C312 1.185 . S
O319 Zn315 2.086 . S
C320 O316 1.278 . S
C320 O321 1.211 . S
O321 C320 1.211 . S
C322 O314 1.284 . S
C322 O323 1.273 . S
O323 C322 1.273 . S
O324 Zn315 1.977 . S
O324 C317 1.267 . S
C325 O326 1.160 . S
C325 O332 1.185 . S
O326 C325 1.160 . S
O327 Zn328 1.899 . S
O327 C335 1.284 . S
Zn328 O327 1.899 . S
Zn328 O329 2.032 . S
Zn328 O332 2.086 . S
Zn328 O337 1.977 . S
O329 Zn328 2.032 . S
O329 C333 1.278 . S
C330 O331 1.203 . S
C330 O337 1.267 . S
O331 C330 1.203 . S
O332 C325 1.185 . S
O332 Zn328 2.086 . S
C333 O329 1.278 . S
C333 O334 1.211 . S
O334 C333 1.211 . S
C335 O327 1.284 . S
C335 O336 1.273 . S
O336 C335 1.273 . S
O337 Zn328 1.977 . S
O337 C330 1.267 . S
C338 O339 1.160 . S
C338 O345 1.185 . S
O339 C338 1.160 . S
O340 Zn341 1.899 . S
O340 C348 1.284 . S
Zn341 O340 1.899 . S
Zn341 O342 2.032 . S
Zn341 O345 2.086 . S
Zn341 O350 1.977 . S
O342 Zn341 2.032 . S
O342 C346 1.278 . S
C343 O344 1.203 . S
C343 O350 1.267 . S
O344 C343 1.203 . S
O345 C338 1.185 . S
O345 Zn341 2.086 . S
C346 O342 1.278 . S
C346 O347 1.211 . S
O347 C346 1.211 . S
C348 O340 1.284 . S
C348 O349 1.273 . S
O349 C348 1.273 . S
O350 Zn341 1.977 . S
O350 C343 1.267 . S
C351 O352 1.160 . S
C351 O358 1.185 . S
O352 C351 1.160 . S
O353 Zn354 1.899 . S
O353 C361 1.284 . S
Zn354 O353 1.899 . S
Zn354 O355 2.032 . S
Zn354 O358 2.086 . S
Zn354 O363 1.977 . S
O355 Zn354 2.032 . S
O355 C359 1.278 . S
C356 O357 1.203 . S
C356 O363 1.267 . S
O357 C356 1.203 . S
O358 C351 1.185 . S
O358 Zn354 2.086 . S
C359 O355 1.278 . S
C359 O360 1.211 . S
O360 C359 1.211 . S
C361 O353 1.284 . S
C361 O362 1.273 . S
O362 C361 1.273 . S
O363 Zn354 1.977 . S
O363 C356 1.267 . S
C364 O365 1.160 . S
C364 O371 1.185 . S
O365 C364 1.160 . S
O366 Zn367 1.899 . S
O366 C374 1.284 . S
Zn367 O366 1.899 . S
Zn367 O368 2.032 . S
Zn367 O371 2.086 . S
Zn367 O376 1.977 . S
O368 Zn367 2.032 . S
O368 C372 1.278 . S
C369 O370 1.203 . S
C369 O376 1.267 . S
O370 C369 1.203 . S
O371 C364 1.185 . S
O371 Zn367 2.086 . S
C372 O368 1.278 . S
C372 O373 1.211 . S
O373 C372 1.211 . S
C374 O366 1.284 . S
C374 O375 1.273 . S
O375 C374 1.273 . S
O376 Zn367 1.977 . S
O376 C369 1.267 . S
C377 O378 1.160 . S
C377 O384 1.185 . S
O378 C377 1.160 . S
O379 Zn380 1.899 . S
O379 C387 1.284 . S
Zn380 O379 1.899 . S
Zn380 O381 2.032 . S
Zn380 O384 2.086 . S
Zn380 O389 1.977 . S
O381 Zn380 2.032 . S
O381 C385 1.278 . S
C382 O383 1.203 . S
C382 O389 1.267 . S
O383 C382 1.203 . S
O384 C377 1.185 . S
O384 Zn380 2.086 . S
C385 O381 1.278 . S
C385 O386 1.211 . S
O386 C385 1.211 . S
C387 O379 1.284 . S
C387 O388 1.273 . S
O388 C387 1.273 . S
O389 Zn380 1.977 . S
O389 C382 1.267 . S
C390 O391 1.160 . S
C390 O397 1.185 . S
O391 C390 1.160 . S
O392 Zn393 1.899 . S
O392 C400 1.284 . S
Zn393 O392 1.899 . S
Zn393 O394 2.032 . S
Zn393 O397 2.086 . S
Zn393 O402 1.977 . S
O394 Zn393 2.032 . S
O394 C398 1.278 . S
C395 O396 1.203 . S
C395 O402 1.267 . S
O396 C395 1.203 . S
O397 C390 1.185 . S
O397 Zn393 2.086 . S
C398 O394 1.278 . S
C398 O399 1.211 . S
O399 C398 1.211 . S
C400 O392 1.284 . S
C400 O401 1.273 . S
O401 C400 1.273 . S
O402 Zn393 1.977 . S
O402 C395 1.267 . S
C403 O404 1.160 . S
C403 O410 1.185 . S
O404 C403 1.160 . S
O405 Zn406 1.899 . S
O405 C413 1.284 . S
Zn406 O405 1.899 . S
Zn406 O407 2.032 . S
Zn406 O410 2.086 . S
Zn406 O415 1.977 . S
O407 Zn406 2.032 . S
O407 C411 1.278 . S
C408 O409 1.203 . S
C408 O415 1.267 . S
O409 C408 1.203 . S
O410 C403 1.185 . S
O410 Zn406 2.086 . S
C411 O407 1.278 . S
C411 O412 1.211 . S
O412 C411 1.211 . S
C413 O405 1.284 . S
C413 O414 1.273 . S
O414 C413 1.273 . S
O415 Zn406 1.977 . S
O415 C408 1.267 . S
C416 C417 1.369 . S
C416 C418 1.419 . S
C416 H420 0.930 . S
C417 C416 1.369 . S
C417 C426 1.429 . S
C418 C416 1.419 . S
C418 C419 1.363 . S
C418 H421 0.929 . S
C419 C418 1.363 . S
C419 C425 1.428 . S
H420 C416 0.930 . S
H421 C418 0.929 . S
S422 N423 1.613 . S
S422 N424 1.610 . S
N423 S422 1.613 . S
N423 C426 1.350 . S
N424 S422 1.610 . S
N424 C425 1.351 . S
C425 C419 1.428 . S
C425 N424 1.351 . S
C425 C426 1.434 . S
C426 C417 1.429 . S
C426 N423 1.350 . S
C426 C425 1.434 . S
C427 C428 1.369 . S
C427 C429 1.419 . S
C427 H431 0.930 . S
C428 C427 1.369 . S
C428 C437 1.429 . S
C429 C427 1.419 . S
C429 C430 1.363 . S
C429 H432 0.929 . S
C430 C429 1.363 . S
C430 C436 1.428 . S
H431 C427 0.930 . S
H432 C429 0.929 . S
S433 N434 1.613 . S
S433 N435 1.610 . S
N434 S433 1.613 . S
N434 C437 1.350 . S
N435 S433 1.610 . S
N435 C436 1.351 . S
C436 C430 1.428 . S
C436 N435 1.351 . S
C436 C437 1.434 . S
C437 C428 1.429 . S
C437 N434 1.350 . S
C437 C436 1.434 . S
C438 C439 1.369 . S
C438 C440 1.419 . S
C438 H442 0.930 . S
C439 C438 1.369 . S
C439 C448 1.429 . S
C440 C438 1.419 . S
C440 C441 1.363 . S
C440 H443 0.929 . S
C441 C440 1.363 . S
C441 C447 1.428 . S
H442 C438 0.930 . S
H443 C440 0.929 . S
S444 N445 1.613 . S
S444 N446 1.610 . S
N445 S444 1.613 . S
N445 C448 1.350 . S
N446 S444 1.610 . S
N446 C447 1.351 . S
C447 C441 1.428 . S
C447 N446 1.351 . S
C447 C448 1.434 . S
C448 C439 1.429 . S
C448 N445 1.350 . S
C448 C447 1.434 . S
C449 C450 1.369 . S
C449 C451 1.419 . S
C449 H453 0.930 . S
C450 C449 1.369 . S
C450 C459 1.429 . S
C451 C449 1.419 . S
C451 C452 1.363 . S
C451 H454 0.929 . S
C452 C451 1.363 . S
C452 C458 1.428 . S
H453 C449 0.930 . S
H454 C451 0.929 . S
S455 N456 1.613 . S
S455 N457 1.610 . S
N456 S455 1.613 . S
N456 C459 1.350 . S
N457 S455 1.610 . S
N457 C458 1.351 . S
C458 C452 1.428 . S
C458 N457 1.351 . S
C458 C459 1.434 . S
C459 C450 1.429 . S
C459 N456 1.350 . S
C459 C458 1.434 . S
C460 C461 1.369 . S
C460 C462 1.419 . S
C460 H464 0.930 . S
C461 C460 1.369 . S
C461 C470 1.429 . S
C462 C460 1.419 . S
C462 C463 1.363 . S
C462 H465 0.929 . S
C463 C462 1.363 . S
C463 C469 1.428 . S
H464 C460 0.930 . S
H465 C462 0.929 . S
S466 N467 1.613 . S
S466 N468 1.610 . S
N467 S466 1.613 . S
N467 C470 1.350 . S
N468 S466 1.610 . S
N468 C469 1.351 . S
C469 C463 1.428 . S
C469 N468 1.351 . S
C469 C470 1.434 . S
C470 C461 1.429 . S
C470 N467 1.350 . S
C470 C469 1.434 . S
C471 C472 1.369 . S
C471 C473 1.419 . S
C471 H475 0.930 . S
C472 C471 1.369 . S
C472 C481 1.429 . S
C473 C471 1.419 . S
C473 C474 1.363 . S
C473 H476 0.929 . S
C474 C473 1.363 . S
C474 C480 1.428 . S
H475 C471 0.930 . S
H476 C473 0.929 . S
S477 N478 1.613 . S
S477 N479 1.610 . S
N478 S477 1.613 . S
N478 C481 1.350 . S
N479 S477 1.610 . S
N479 C480 1.351 . S
C480 C474 1.428 . S
C480 N479 1.351 . S
C480 C481 1.434 . S
C481 C472 1.429 . S
C481 N478 1.350 . S
C481 C480 1.434 . S
C482 C483 1.369 . S
C482 C484 1.419 . S
C482 H486 0.930 . S
C483 C482 1.369 . S
C483 C492 1.429 . S
C484 C482 1.419 . S
C484 C485 1.363 . S
C484 H487 0.929 . S
C485 C484 1.363 . S
C485 C491 1.428 . S
H486 C482 0.930 . S
H487 C484 0.929 . S
S488 N489 1.613 . S
S488 N490 1.610 . S
N489 S488 1.613 . S
N489 C492 1.350 . S
N490 S488 1.610 . S
N490 C491 1.351 . S
C491 C485 1.428 . S
C491 N490 1.351 . S
C491 C492 1.434 . S
C492 C483 1.429 . S
C492 N489 1.350 . S
C492 C491 1.434 . S
C493 C494 1.369 . S
C493 C495 1.419 . S
C493 H497 0.930 . S
C494 C493 1.369 . S
C494 C503 1.429 . S
C495 C493 1.419 . S
C495 C496 1.363 . S
C495 H498 0.929 . S
C496 C495 1.363 . S
C496 C502 1.428 . S
H497 C493 0.930 . S
H498 C495 0.929 . S
S499 N500 1.613 . S
S499 N501 1.610 . S
N500 S499 1.613 . S
N500 C503 1.350 . S
N501 S499 1.610 . S
N501 C502 1.351 . S
C502 C496 1.428 . S
C502 N501 1.351 . S
C502 C503 1.434 . S
C503 C494 1.429 . S
C503 N500 1.350 . S
C503 C502 1.434 . S
C504 C505 1.369 . S
C504 C506 1.419 . S
C504 H508 0.930 . S
C505 C504 1.369 . S
C505 C514 1.429 . S
C506 C504 1.419 . S
C506 C507 1.363 . S
C506 H509 0.929 . S
C507 C506 1.363 . S
C507 C513 1.428 . S
H508 C504 0.930 . S
H509 C506 0.929 . S
S510 N511 1.613 . S
S510 N512 1.610 . S
N511 S510 1.613 . S
N511 C514 1.350 . S
N512 S510 1.610 . S
N512 C513 1.351 . S
C513 C507 1.428 . S
C513 N512 1.351 . S
C513 C514 1.434 . S
C514 C505 1.429 . S
C514 N511 1.350 . S
C514 C513 1.434 . S
C515 C516 1.369 . S
C515 C517 1.419 . S
C515 H519 0.930 . S
C516 C515 1.369 . S
C516 C525 1.429 . S
C517 C515 1.419 . S
C517 C518 1.363 . S
C517 H520 0.929 . S
C518 C517 1.363 . S
C518 C524 1.428 . S
H519 C515 0.930 . S
H520 C517 0.929 . S
S521 N522 1.613 . S
S521 N523 1.610 . S
N522 S521 1.613 . S
N522 C525 1.350 . S
N523 S521 1.610 . S
N523 C524 1.351 . S
C524 C518 1.428 . S
C524 N523 1.351 . S
C524 C525 1.434 . S
C525 C516 1.429 . S
C525 N522 1.350 . S
C525 C524 1.434 . S
C526 C527 1.369 . S
C526 C528 1.419 . S
C526 H530 0.930 . S
C527 C526 1.369 . S
C527 C536 1.429 . S
C528 C526 1.419 . S
C528 C529 1.363 . S
C528 H531 0.929 . S
C529 C528 1.363 . S
C529 C535 1.428 . S
H530 C526 0.930 . S
H531 C528 0.929 . S
S532 N533 1.613 . S
S532 N534 1.610 . S
N533 S532 1.613 . S
N533 C536 1.350 . S
N534 S532 1.610 . S
N534 C535 1.351 . S
C535 C529 1.428 . S
C535 N534 1.351 . S
C535 C536 1.434 . S
C536 C527 1.429 . S
C536 N533 1.350 . S
C536 C535 1.434 . S
C537 C538 1.369 . S
C537 C539 1.419 . S
C537 H541 0.930 . S
C538 C537 1.369 . S
C538 C547 1.429 . S
C539 C537 1.419 . S
C539 C540 1.363 . S
C539 H542 0.929 . S
C540 C539 1.363 . S
C540 C546 1.428 . S
H541 C537 0.930 . S
H542 C539 0.929 . S
S543 N544 1.613 . S
S543 N545 1.610 . S
N544 S543 1.613 . S
N544 C547 1.350 . S
N545 S543 1.610 . S
N545 C546 1.351 . S
C546 C540 1.428 . S
C546 N545 1.351 . S
C546 C547 1.434 . S
C547 C538 1.429 . S
C547 N544 1.350 . S
C547 C546 1.434 . S
C548 C549 1.369 . S
C548 C550 1.419 . S
C548 H552 0.930 . S
C549 C548 1.369 . S
C549 C558 1.429 . S
C550 C548 1.419 . S
C550 C551 1.363 . S
C550 H553 0.929 . S
C551 C550 1.363 . S
C551 C557 1.428 . S
H552 C548 0.930 . S
H553 C550 0.929 . S
S554 N555 1.613 . S
S554 N556 1.610 . S
N555 S554 1.613 . S
N555 C558 1.350 . S
N556 S554 1.610 . S
N556 C557 1.351 . S
C557 C551 1.428 . S
C557 N556 1.351 . S
C557 C558 1.434 . S
C558 C549 1.429 . S
C558 N555 1.350 . S
C558 C557 1.434 . S
C559 C560 1.369 . S
C559 C561 1.419 . S
C559 H563 0.930 . S
C560 C559 1.369 . S
C560 C569 1.429 . S
C561 C559 1.419 . S
C561 C562 1.363 . S
C561 H564 0.929 . S
C562 C561 1.363 . S
C562 C568 1.428 . S
H563 C559 0.930 . S
H564 C561 0.929 . S
S565 N566 1.613 . S
S565 N567 1.610 . S
N566 S565 1.613 . S
N566 C569 1.350 . S
N567 S565 1.610 . S
N567 C568 1.351 . S
C568 C562 1.428 . S
C568 N567 1.351 . S
C568 C569 1.434 . S
C569 C560 1.429 . S
C569 N566 1.350 . S
C569 C568 1.434 . S
C570 C571 1.369 . S
C570 C572 1.419 . S
C570 H574 0.930 . S
C571 C570 1.369 . S
C571 C580 1.429 . S
C572 C570 1.419 . S
C572 C573 1.363 . S
C572 H575 0.929 . S
C573 C572 1.363 . S
C573 C579 1.428 . S
H574 C570 0.930 . S
H575 C572 0.929 . S
S576 N577 1.613 . S
S576 N578 1.610 . S
N577 S576 1.613 . S
N577 C580 1.350 . S
N578 S576 1.610 . S
N578 C579 1.351 . S
C579 C573 1.428 . S
C579 N578 1.351 . S
C579 C580 1.434 . S
C580 C571 1.429 . S
C580 N577 1.350 . S
C580 C579 1.434 . S
C581 C582 1.369 . S
C581 C583 1.419 . S
C581 H585 0.930 . S
C582 C581 1.369 . S
C582 C591 1.429 . S
C583 C581 1.419 . S
C583 C584 1.363 . S
C583 H586 0.929 . S
C584 C583 1.363 . S
C584 C590 1.428 . S
H585 C581 0.930 . S
H586 C583 0.929 . S
S587 N588 1.613 . S
S587 N589 1.610 . S
N588 S587 1.613 . S
N588 C591 1.350 . S
N589 S587 1.610 . S
N589 C590 1.351 . S
C590 C584 1.428 . S
C590 N589 1.351 . S
C590 C591 1.434 . S
C591 C582 1.429 . S
C591 N588 1.350 . S
C591 C590 1.434 . S
C592 C593 1.369 . S
C592 C594 1.419 1_455 S
C592 H596 0.930 . S
C593 C592 1.369 . S
C593 C602 1.429 . S
C594 C592 1.419 1_655 S
C594 C595 1.363 . S
C594 H597 0.929 . S
C595 C594 1.363 . S
C595 C601 1.428 . S
H596 C592 0.930 . S
H597 C594 0.929 . S
S598 N599 1.616 1_655 S
S598 N600 1.608 . S
N599 S598 1.616 1_455 S
N599 C602 1.350 . S
N600 S598 1.608 . S
N600 C601 1.351 . S
C601 C595 1.428 . S
C601 N600 1.351 . S
C601 C602 1.434 1_655 S
C602 C593 1.429 . S
C602 N599 1.350 . S
C602 C601 1.434 1_455 S
C603 C604 1.369 . S
C603 C605 1.419 . S
C603 H607 0.930 . S
C604 C603 1.369 . S
C604 C613 1.429 . S
C605 C603 1.419 . S
C605 C606 1.363 . S
C605 H608 0.929 . S
C606 C605 1.363 . S
C606 C612 1.428 . S
H607 C603 0.930 . S
H608 C605 0.929 . S
S609 N610 1.613 . S
S609 N611 1.610 . S
N610 S609 1.613 . S
N610 C613 1.350 . S
N611 S609 1.610 . S
N611 C612 1.351 . S
C612 C606 1.428 . S
C612 N611 1.351 . S
C612 C613 1.434 . S
C613 C604 1.429 . S
C613 N610 1.350 . S
C613 C612 1.434 . S
C614 C615 1.369 . S
C614 C616 1.419 . S
C614 H618 0.930 . S
C615 C614 1.369 . S
C615 C624 1.429 . S
C616 C614 1.419 . S
C616 C617 1.363 . S
C616 H619 0.929 . S
C617 C616 1.363 . S
C617 C623 1.428 . S
H618 C614 0.930 . S
H619 C616 0.929 . S
S620 N621 1.613 . S
S620 N622 1.610 . S
N621 S620 1.613 . S
N621 C624 1.350 . S
N622 S620 1.610 . S
N622 C623 1.351 . S
C623 C617 1.428 . S
C623 N622 1.351 . S
C623 C624 1.434 . S
C624 C615 1.429 . S
C624 N621 1.350 . S
C624 C623 1.434 . S
C625 C626 1.369 . S
C625 C627 1.419 . S
C625 H629 0.930 . S
C626 C625 1.369 . S
C626 C635 1.429 . S
C627 C625 1.419 . S
C627 C628 1.363 . S
C627 H630 0.929 . S
C628 C627 1.363 . S
C628 C634 1.428 . S
H629 C625 0.930 . S
H630 C627 0.929 . S
S631 N632 1.613 . S
S631 N633 1.610 . S
N632 S631 1.613 . S
N632 C635 1.350 . S
N633 S631 1.610 . S
N633 C634 1.351 . S
C634 C628 1.428 . S
C634 N633 1.351 . S
C634 C635 1.434 . S
C635 C626 1.429 . S
C635 N632 1.350 . S
C635 C634 1.434 . S
C636 C637 1.369 . S
C636 C638 1.419 1_655 S
C636 H640 0.930 . S
C637 C636 1.369 . S
C637 C646 1.429 . S
C638 C636 1.419 1_455 S
C638 C639 1.363 . S
C638 H641 0.929 . S
C639 C638 1.363 . S
C639 C645 1.428 . S
H640 C636 0.930 . S
H641 C638 0.929 . S
S642 N643 1.615 1_455 S
S642 N644 1.608 . S
N643 S642 1.615 1_655 S
N643 C646 1.350 . S
N644 S642 1.608 . S
N644 C645 1.351 . S
C645 C639 1.428 . S
C645 N644 1.351 . S
C645 C646 1.434 1_455 S
C646 C637 1.429 . S
C646 N643 1.350 . S
C646 C645 1.434 1_655 S
C647 C648 1.369 . S
C647 C649 1.419 . S
C647 H651 0.930 . S
C648 C647 1.369 . S
C648 C657 1.429 . S
C649 C647 1.419 . S
C649 C650 1.363 . S
C649 H652 0.929 . S
C650 C649 1.363 . S
C650 C656 1.428 . S
H651 C647 0.930 . S
H652 C649 0.929 . S
S653 N654 1.613 . S
S653 N655 1.610 . S
N654 S653 1.613 . S
N654 C657 1.350 . S
N655 S653 1.610 . S
N655 C656 1.351 . S
C656 C650 1.428 . S
C656 N655 1.351 . S
C656 C657 1.434 . S
C657 C648 1.429 . S
C657 N654 1.350 . S
C657 C656 1.434 . S
C658 C659 1.369 . S
C658 C660 1.419 . S
C658 H662 0.930 . S
C659 C658 1.369 . S
C659 C668 1.429 . S
C660 C658 1.419 . S
C660 C661 1.363 . S
C660 H663 0.929 . S
C661 C660 1.363 . S
C661 C667 1.428 . S
H662 C658 0.930 . S
H663 C660 0.929 . S
S664 N665 1.613 . S
S664 N666 1.610 . S
N665 S664 1.613 . S
N665 C668 1.350 . S
N666 S664 1.610 . S
N666 C667 1.351 . S
C667 C661 1.428 . S
C667 N666 1.351 . S
C667 C668 1.434 . S
C668 C659 1.429 . S
C668 N665 1.350 . S
C668 C667 1.434 . S
C669 C670 1.369 . S
C669 C671 1.419 . S
C669 H673 0.930 . S
C670 C669 1.369 . S
C670 C679 1.429 . S
C671 C669 1.419 . S
C671 C672 1.363 . S
C671 H674 0.929 . S
C672 C671 1.363 . S
C672 C678 1.428 . S
H673 C669 0.930 . S
H674 C671 0.929 . S
S675 N676 1.613 . S
S675 N677 1.610 . S
N676 S675 1.613 . S
N676 C679 1.350 . S
N677 S675 1.610 . S
N677 C678 1.351 . S
C678 C672 1.428 . S
C678 N677 1.351 . S
C678 C679 1.434 . S
C679 C670 1.429 . S
C679 N676 1.350 . S
C679 C678 1.434 . S
C680 C681 1.369 . S
C680 C682 1.419 . S
C680 H684 0.930 . S
C681 C680 1.369 . S
C681 C690 1.429 . S
C682 C680 1.419 . S
C682 C683 1.363 . S
C682 H685 0.929 . S
C683 C682 1.363 . S
C683 C689 1.428 . S
H684 C680 0.930 . S
H685 C682 0.929 . S
S686 N687 1.613 . S
S686 N688 1.610 . S
N687 S686 1.613 . S
N687 C690 1.350 . S
N688 S686 1.610 . S
N688 C689 1.351 . S
C689 C683 1.428 . S
C689 N688 1.351 . S
C689 C690 1.434 . S
C690 C681 1.429 . S
C690 N687 1.350 . S
C690 C689 1.434 . S
C691 C692 1.369 . S
C691 C693 1.419 . S
C691 H695 0.930 . S
C692 C691 1.369 . S
C692 C701 1.429 . S
C693 C691 1.419 . S
C693 C694 1.363 . S
C693 H696 0.929 . S
C694 C693 1.363 . S
C694 C700 1.428 . S
H695 C691 0.930 . S
H696 C693 0.929 . S
S697 N698 1.613 . S
S697 N699 1.610 . S
N698 S697 1.613 . S
N698 C701 1.350 . S
N699 S697 1.610 . S
N699 C700 1.351 . S
C700 C694 1.428 . S
C700 N699 1.351 . S
C700 C701 1.434 . S
C701 C692 1.429 . S
C701 N698 1.350 . S
C701 C700 1.434 . S
C702 C703 1.369 . S
C702 C704 1.419 . S
C702 H706 0.930 . S
C703 C702 1.369 . S
C703 C712 1.429 . S
C704 C702 1.419 . S
C704 C705 1.363 . S
C704 H707 0.929 . S
C705 C704 1.363 . S
C705 C711 1.428 . S
H706 C702 0.930 . S
H707 C704 0.929 . S
S708 N709 1.613 . S
S708 N710 1.610 . S
N709 S708 1.613 . S
N709 C712 1.350 . S
N710 S708 1.610 . S
N710 C711 1.351 . S
C711 C705 1.428 . S
C711 N710 1.351 . S
C711 C712 1.434 . S
C712 C703 1.429 . S
C712 N709 1.350 . S
C712 C711 1.434 . S
C713 C714 1.369 . S
C713 C715 1.419 . S
C713 H717 0.930 . S
C714 C713 1.369 . S
C714 C723 1.429 . S
C715 C713 1.419 . S
C715 C716 1.363 . S
C715 H718 0.929 . S
C716 C715 1.363 . S
C716 C722 1.428 . S
H717 C713 0.930 . S
H718 C715 0.929 . S
S719 N720 1.613 . S
S719 N721 1.610 . S
N720 S719 1.613 . S
N720 C723 1.350 . S
N721 S719 1.610 . S
N721 C722 1.351 . S
C722 C716 1.428 . S
C722 N721 1.351 . S
C722 C723 1.434 . S
C723 C714 1.429 . S
C723 N720 1.350 . S
C723 C722 1.434 . S
C724 C725 1.369 . S
C724 C726 1.419 . S
C724 H728 0.930 . S
C725 C724 1.369 . S
C725 C734 1.429 . S
C726 C724 1.419 . S
C726 C727 1.363 . S
C726 H729 0.929 . S
C727 C726 1.363 . S
C727 C733 1.428 . S
H728 C724 0.930 . S
H729 C726 0.929 . S
S730 N731 1.613 . S
S730 N732 1.610 . S
N731 S730 1.613 . S
N731 C734 1.350 . S
N732 S730 1.610 . S
N732 C733 1.351 . S
C733 C727 1.428 . S
C733 N732 1.351 . S
C733 C734 1.434 . S
C734 C725 1.429 . S
C734 N731 1.350 . S
C734 C733 1.434 . S
C735 C736 1.369 . S
C735 C737 1.419 1_655 S
C735 H739 0.930 . S
C736 C735 1.369 . S
C736 C745 1.429 . S
C737 C735 1.419 1_455 S
C737 C738 1.363 . S
C737 H740 0.929 . S
C738 C737 1.363 . S
C738 C744 1.428 . S
H739 C735 0.930 . S
H740 C737 0.929 . S
S741 N742 1.615 1_456 S
S741 N743 1.608 1_556 S
N742 S741 1.615 1_654 S
N742 C745 1.350 . S
N743 S741 1.608 1_554 S
N743 C744 1.351 . S
C744 C738 1.428 . S
C744 N743 1.351 . S
C744 C745 1.434 1_455 S
C745 C736 1.429 . S
C745 N742 1.350 . S
C745 C744 1.434 1_655 S
C746 C747 1.369 . S
C746 C748 1.419 . S
C746 H750 0.930 . S
C747 C746 1.369 . S
C747 C756 1.429 . S
C748 C746 1.419 . S
C748 C749 1.363 . S
C748 H751 0.929 . S
C749 C748 1.363 . S
C749 C755 1.428 . S
H750 C746 0.930 . S
H751 C748 0.929 . S
S752 N753 1.613 . S
S752 N754 1.610 . S
N753 S752 1.613 . S
N753 C756 1.350 . S
N754 S752 1.610 . S
N754 C755 1.351 . S
C755 C749 1.428 . S
C755 N754 1.351 . S
C755 C756 1.434 . S
C756 C747 1.429 . S
C756 N753 1.350 . S
C756 C755 1.434 . S
C757 C758 1.369 . S
C757 C759 1.419 1_455 S
C757 H761 0.930 . S
C758 C757 1.369 . S
C758 C767 1.429 . S
C759 C757 1.419 1_655 S
C759 C760 1.363 . S
C759 H762 0.929 . S
C760 C759 1.363 . S
C760 C766 1.428 . S
H761 C757 0.930 . S
H762 C759 0.929 . S
S763 N764 1.615 1_655 S
S763 N765 1.608 . S
N764 S763 1.615 1_455 S
N764 C767 1.350 . S
N765 S763 1.608 . S
N765 C766 1.351 . S
C766 C760 1.428 . S
C766 N765 1.351 . S
C766 C767 1.434 1_655 S
C767 C758 1.429 . S
C767 N764 1.350 . S
C767 C766 1.434 1_455 S
C768 C769 1.398 . S
C768 C770 1.392 1_556 S
C768 H772 0.930 . S
C769 C768 1.398 . S
C769 C778 1.429 . S
C770 C768 1.392 1_554 S
C770 C771 1.363 . S
C770 H773 0.929 . S
C771 C770 1.363 . S
C771 C777 1.433 . S
H772 C768 0.930 . S
H773 C770 0.929 . S
S774 N775 1.613 . S
S774 N776 1.610 . S
N775 S774 1.613 . S
N775 C778 1.350 . S
N776 S774 1.610 . S
N776 C777 1.350 1_556 S
C777 C771 1.433 . S
C777 N776 1.350 1_554 S
C777 C778 1.430 1_554 S
C778 C769 1.429 . S
C778 N775 1.350 . S
C778 C777 1.430 1_556 S
C779 C780 1.369 . S
C779 C781 1.419 . S
C779 H783 0.930 . S
C780 C779 1.369 . S
C780 C789 1.429 . S
C781 C779 1.419 . S
C781 C782 1.363 . S
C781 H784 0.929 . S
C782 C781 1.363 . S
C782 C788 1.428 . S
H783 C779 0.930 . S
H784 C781 0.929 . S
S785 N786 1.613 . S
S785 N787 1.610 . S
N786 S785 1.613 . S
N786 C789 1.350 . S
N787 S785 1.610 . S
N787 C788 1.351 . S
C788 C782 1.428 . S
C788 N787 1.351 . S
C788 C789 1.434 . S
C789 C780 1.429 . S
C789 N786 1.350 . S
C789 C788 1.434 . S
C790 C791 1.369 . S
C790 C792 1.419 . S
C790 H794 0.930 . S
C791 C790 1.369 . S
C791 C800 1.429 . S
C792 C790 1.419 . S
C792 C793 1.363 . S
C792 H795 0.929 . S
C793 C792 1.363 . S
C793 C799 1.428 . S
H794 C790 0.930 . S
H795 C792 0.929 . S
S796 N797 1.613 . S
S796 N798 1.610 . S
N797 S796 1.613 . S
N797 C800 1.350 . S
N798 S796 1.610 . S
N798 C799 1.351 . S
C799 C793 1.428 . S
C799 N798 1.351 . S
C799 C800 1.434 . S
C800 C791 1.429 . S
C800 N797 1.350 . S
C800 C799 1.434 . S
C801 C802 1.369 . S
C801 C803 1.419 . S
C801 H805 0.930 . S
C802 C801 1.369 . S
C802 C811 1.429 . S
C803 C801 1.419 . S
C803 C804 1.363 . S
C803 H806 0.929 . S
C804 C803 1.363 . S
C804 C810 1.428 . S
H805 C801 0.930 . S
H806 C803 0.929 . S
S807 N808 1.613 . S
S807 N809 1.610 . S
N808 S807 1.613 . S
N808 C811 1.350 . S
N809 S807 1.610 . S
N809 C810 1.351 . S
C810 C804 1.428 . S
C810 N809 1.351 . S
C810 C811 1.434 . S
C811 C802 1.429 . S
C811 N808 1.350 . S
C811 C810 1.434 . S
C812 C813 1.369 1_556 S
C812 C814 1.419 . S
C812 H816 0.930 . S
C813 C812 1.369 1_554 S
C813 C822 1.429 . S
C814 C812 1.419 . S
C814 C815 1.363 . S
C814 H817 0.929 . S
C815 C814 1.363 . S
C815 C821 1.428 1_556 S
H816 C812 0.930 . S
H817 C814 0.929 . S
S818 N819 1.613 . S
S818 N820 1.610 . S
N819 S818 1.613 . S
N819 C822 1.350 . S
N820 S818 1.610 . S
N820 C821 1.351 . S
C821 C815 1.428 1_554 S
C821 N820 1.351 . S
C821 C822 1.434 . S
C822 C813 1.429 . S
C822 N819 1.350 . S
C822 C821 1.434 . S
C823 C824 1.369 . S
C823 C825 1.419 . S
C823 H827 0.930 . S
C824 C823 1.369 . S
C824 C833 1.429 . S
C825 C823 1.419 . S
C825 C826 1.363 . S
C825 H828 0.929 . S
C826 C825 1.363 . S
C826 C832 1.428 . S
H827 C823 0.930 . S
H828 C825 0.929 . S
S829 N830 1.613 . S
S829 N831 1.610 . S
N830 S829 1.613 . S
N830 C833 1.350 . S
N831 S829 1.610 . S
N831 C832 1.351 . S
C832 C826 1.428 . S
C832 N831 1.351 . S
C832 C833 1.434 . S
C833 C824 1.429 . S
C833 N830 1.350 . S
C833 C832 1.434 . S
C834 C835 1.369 . S
C834 C836 1.419 . S
C834 H838 0.930 . S
C835 C834 1.369 . S
C835 C844 1.429 . S
C836 C834 1.419 . S
C836 C837 1.363 . S
C836 H839 0.929 . S
C837 C836 1.363 . S
C837 C843 1.428 . S
H838 C834 0.930 . S
H839 C836 0.929 . S
S840 N841 1.613 . S
S840 N842 1.610 . S
N841 S840 1.613 . S
N841 C844 1.350 . S
N842 S840 1.610 . S
N842 C843 1.351 . S
C843 C837 1.428 . S
C843 N842 1.351 . S
C843 C844 1.434 . S
C844 C835 1.429 . S
C844 N841 1.350 . S
C844 C843 1.434 . S
C845 C846 1.369 . S
C845 C847 1.419 . S
C845 H849 0.930 . S
C846 C845 1.369 . S
C846 C855 1.429 . S
C847 C845 1.419 . S
C847 C848 1.363 . S
C847 H850 0.929 . S
C848 C847 1.363 . S
C848 C854 1.428 . S
H849 C845 0.930 . S
H850 C847 0.929 . S
S851 N852 1.613 . S
S851 N853 1.610 . S
N852 S851 1.613 . S
N852 C855 1.350 . S
N853 S851 1.610 . S
N853 C854 1.351 . S
C854 C848 1.428 . S
C854 N853 1.351 . S
C854 C855 1.434 . S
C855 C846 1.429 . S
C855 N852 1.350 . S
C855 C854 1.434 . S
C856 C857 1.369 . S
C856 C858 1.417 . S
C856 H860 0.930 . S
C857 C856 1.369 . S
C857 C866 1.429 1_545 S
C858 C856 1.417 . S
C858 C859 1.364 1_545 S
C858 H861 0.929 . S
C859 C858 1.364 1_565 S
C859 C865 1.428 . S
H860 C856 0.930 . S
H861 C858 0.929 . S
S862 N863 1.613 . S
S862 N864 1.610 . S
N863 S862 1.613 . S
N863 C866 1.350 . S
N864 S862 1.610 . S
N864 C865 1.351 . S
C865 C859 1.428 . S
C865 N864 1.351 . S
C865 C866 1.434 . S
C866 C857 1.429 1_565 S
C866 N863 1.350 . S
C866 C865 1.434 . S
C867 C868 1.369 . S
C867 C869 1.419 . S
C867 H871 0.930 . S
C868 C867 1.369 . S
C868 C877 1.429 . S
C869 C867 1.419 . S
C869 C870 1.363 . S
C869 H872 0.929 . S
C870 C869 1.363 . S
C870 C876 1.428 . S
H871 C867 0.930 . S
H872 C869 0.929 . S
S873 N874 1.613 . S
S873 N875 1.610 . S
N874 S873 1.613 . S
N874 C877 1.350 . S
N875 S873 1.610 . S
N875 C876 1.351 . S
C876 C870 1.428 . S
C876 N875 1.351 . S
C876 C877 1.434 . S
C877 C868 1.429 . S
C877 N874 1.350 . S
C877 C876 1.434 . S
C878 C879 1.369 . S
C878 C880 1.419 1_564 S
C878 H882 0.930 . S
C879 C878 1.369 . S
C879 C888 1.429 . S
C880 C878 1.419 1_546 S
C880 C881 1.363 . S
C880 H883 0.929 . S
C881 C880 1.363 . S
C881 C887 1.428 . S
H882 C878 0.930 . S
H883 C880 0.929 . S
S884 N885 1.612 1_545 S
S884 N886 1.611 1_554 S
N885 S884 1.612 1_565 S
N885 C888 1.350 . S
N886 S884 1.611 1_556 S
N886 C887 1.351 . S
C887 C881 1.428 . S
C887 N886 1.351 . S
C887 C888 1.434 1_546 S
C888 C879 1.429 . S
C888 N885 1.350 . S
C888 C887 1.434 1_564 S
C889 C890 1.369 . S
C889 C891 1.419 . S
C889 H893 0.930 . S
C890 C889 1.369 . S
C890 C899 1.429 . S
C891 C889 1.419 . S
C891 C892 1.363 . S
C891 H894 0.929 . S
C892 C891 1.363 . S
C892 C898 1.428 . S
H893 C889 0.930 . S
H894 C891 0.929 . S
S895 N896 1.613 . S
S895 N897 1.610 . S
N896 S895 1.613 . S
N896 C899 1.350 . S
N897 S895 1.610 . S
N897 C898 1.351 . S
C898 C892 1.428 . S
C898 N897 1.351 . S
C898 C899 1.434 . S
C899 C890 1.429 . S
C899 N896 1.350 . S
C899 C898 1.434 . S
C900 C901 1.369 . S
C900 C902 1.419 1_545 S
C900 H904 0.930 . S
C901 C900 1.369 . S
C901 C910 1.429 . S
C902 C900 1.419 1_565 S
C902 C903 1.363 . S
C902 H905 0.929 . S
C903 C902 1.363 . S
C903 C909 1.428 . S
H904 C900 0.930 . S
H905 C902 0.929 . S
S906 N907 1.613 1_565 S
S906 N908 1.610 . S
N907 S906 1.613 1_545 S
N907 C910 1.350 . S
N908 S906 1.610 . S
N908 C909 1.351 . S
C909 C903 1.428 . S
C909 N908 1.351 . S
C909 C910 1.434 1_565 S
C910 C901 1.429 . S
C910 N907 1.350 . S
C910 C909 1.434 1_545 S
C911 C912 1.369 . S
C911 C913 1.419 . S
C911 H915 0.930 . S
C912 C911 1.369 . S
C912 C921 1.429 . S
C913 C911 1.419 . S
C913 C914 1.363 . S
C913 H916 0.929 . S
C914 C913 1.363 . S
C914 C920 1.428 . S
H915 C911 0.930 . S
H916 C913 0.929 . S
S917 N918 1.613 . S
S917 N919 1.610 . S
N918 S917 1.613 . S
N918 C921 1.350 . S
N919 S917 1.610 . S
N919 C920 1.351 . S
C920 C914 1.428 . S
C920 N919 1.351 . S
C920 C921 1.434 . S
C921 C912 1.429 . S
C921 N918 1.350 . S
C921 C920 1.434 . S
C922 C923 1.369 . S
C922 C924 1.419 1_564 S
C922 H926 0.930 . S
C923 C922 1.369 . S
C923 C932 1.446 . S
C924 C922 1.419 1_546 S
C924 C925 1.363 . S
C924 H927 0.929 . S
C925 C924 1.363 . S
C925 C931 1.428 . S
H926 C922 0.930 . S
H927 C924 0.929 . S
S928 N929 1.647 . S
S928 N930 1.610 1_565 S
N929 S928 1.647 . S
N929 C932 1.346 1_556 S
N930 S928 1.610 1_545 S
N930 C931 1.351 . S
C931 C925 1.428 . S
C931 N930 1.351 . S
C931 C932 1.417 1_546 S
C932 C923 1.446 . S
C932 N929 1.346 1_554 S
C932 C931 1.417 1_564 S
C933 C934 1.369 . S
C933 C935 1.419 . S
C933 H937 0.930 . S
C934 C933 1.369 . S
C934 C943 1.429 . S
C935 C933 1.419 . S
C935 C936 1.363 . S
C935 H938 0.929 . S
C936 C935 1.363 . S
C936 C942 1.428 . S
H937 C933 0.930 . S
H938 C935 0.929 . S
S939 N940 1.613 . S
S939 N941 1.610 . S
N940 S939 1.613 . S
N940 C943 1.350 . S
N941 S939 1.610 . S
N941 C942 1.351 . S
C942 C936 1.428 . S
C942 N941 1.351 . S
C942 C943 1.434 . S
C943 C934 1.429 . S
C943 N940 1.350 . S
C943 C942 1.434 . S
C944 C945 1.369 . S
C944 C946 1.419 . S
C944 H948 0.930 . S
C945 C944 1.369 . S
C945 C954 1.429 . S
C946 C944 1.419 . S
C946 C947 1.363 . S
C946 H949 0.929 . S
C947 C946 1.363 . S
C947 C953 1.428 . S
H948 C944 0.930 . S
H949 C946 0.929 . S
S950 N951 1.613 . S
S950 N952 1.610 . S
N951 S950 1.613 . S
N951 C954 1.350 . S
N952 S950 1.610 . S
N952 C953 1.351 . S
C953 C947 1.428 . S
C953 N952 1.351 . S
C953 C954 1.434 . S
C954 C945 1.429 . S
C954 N951 1.350 . S
C954 C953 1.434 . S
C955 C956 1.369 . S
C955 C957 1.419 . S
C955 H959 0.930 . S
C956 C955 1.369 . S
C956 C965 1.429 . S
C957 C955 1.419 . S
C957 C958 1.363 . S
C957 H960 0.929 . S
C958 C957 1.363 . S
C958 C964 1.428 . S
H959 C955 0.930 . S
H960 C957 0.929 . S
S961 N962 1.613 . S
S961 N963 1.610 . S
N962 S961 1.613 . S
N962 C965 1.350 . S
N963 S961 1.610 . S
N963 C964 1.351 . S
C964 C958 1.428 . S
C964 N963 1.351 . S
C964 C965 1.434 . S
C965 C956 1.429 . S
C965 N962 1.350 . S
C965 C964 1.434 . S
C966 C967 1.369 . S
C966 C968 1.419 . S
C966 H970 0.930 . S
C967 C966 1.369 . S
C967 C976 1.429 . S
C968 C966 1.419 . S
C968 C969 1.363 . S
C968 H971 0.929 . S
C969 C968 1.363 . S
C969 C975 1.428 . S
H970 C966 0.930 . S
H971 C968 0.929 . S
S972 N973 1.613 . S
S972 N974 1.610 . S
N973 S972 1.613 . S
N973 C976 1.350 . S
N974 S972 1.610 . S
N974 C975 1.351 . S
C975 C969 1.428 . S
C975 N974 1.351 . S
C975 C976 1.434 . S
C976 C967 1.429 . S
C976 N973 1.350 . S
C976 C975 1.434 . S
C977 C978 1.369 . S
C977 C979 1.419 1_655 S
C977 H981 0.930 . S
C978 C977 1.369 . S
C978 C987 1.429 . S
C979 C977 1.419 1_455 S
C979 C980 1.363 . S
C979 H982 0.929 . S
C980 C979 1.363 . S
C980 C986 1.428 . S
H981 C977 0.930 . S
H982 C979 0.929 . S
S983 N984 1.615 1_455 S
S983 N985 1.608 . S
N984 S983 1.615 1_655 S
N984 C987 1.350 . S
N985 S983 1.608 . S
N985 C986 1.351 . S
C986 C980 1.428 . S
C986 N985 1.351 . S
C986 C987 1.434 1_455 S
C987 C978 1.429 . S
C987 N984 1.350 . S
C987 C986 1.434 1_655 S
C988 C989 1.369 . S
C988 C990 1.419 . S
C988 H992 0.930 . S
C989 C988 1.369 . S
C989 C998 1.429 . S
C990 C988 1.419 . S
C990 C991 1.363 . S
C990 H993 0.929 . S
C991 C990 1.363 . S
C991 C997 1.428 . S
H992 C988 0.930 . S
H993 C990 0.929 . S
S994 N995 1.613 . S
S994 N996 1.610 . S
N995 S994 1.613 . S
N995 C998 1.350 . S
N996 S994 1.610 . S
N996 C997 1.351 . S
C997 C991 1.428 . S
C997 N996 1.351 . S
C997 C998 1.434 . S
C998 C989 1.429 . S
C998 N995 1.350 . S
C998 C997 1.434 . S
C999 C1000 1.369 . S
C999 C1001 1.419 1_655 S
C999 H1003 0.930 . S
C1000 C999 1.369 . S
C1000 C1009 1.429 . S
C1001 C999 1.419 1_455 S
C1001 C1002 1.363 . S
C1001 H1004 0.929 . S
C1002 C1001 1.363 . S
C1002 C1008 1.428 . S
H1003 C999 0.930 . S
H1004 C1001 0.929 . S
S1005 N1006 1.615 1_455 S
S1005 N1007 1.608 . S
N1006 S1005 1.615 1_655 S
N1006 C1009 1.350 . S
N1007 S1005 1.608 . S
N1007 C1008 1.351 . S
C1008 C1002 1.428 . S
C1008 N1007 1.351 . S
C1008 C1009 1.434 1_455 S
C1009 C1000 1.429 . S
C1009 N1006 1.350 . S
C1009 C1008 1.434 1_655 S
C1010 C1011 1.369 . S
C1010 C1012 1.419 . S
C1010 H1014 0.930 . S
C1011 C1010 1.369 . S
C1011 C1020 1.429 . S
C1012 C1010 1.419 . S
C1012 C1013 1.363 . S
C1012 H1015 0.929 . S
C1013 C1012 1.363 . S
C1013 C1019 1.428 . S
H1014 C1010 0.930 . S
H1015 C1012 0.929 . S
S1016 N1017 1.613 . S
S1016 N1018 1.610 . S
N1017 S1016 1.613 . S
N1017 C1020 1.350 . S
N1018 S1016 1.610 . S
N1018 C1019 1.351 . S
C1019 C1013 1.428 . S
C1019 N1018 1.351 . S
C1019 C1020 1.434 . S
C1020 C1011 1.429 . S
C1020 N1017 1.350 . S
C1020 C1019 1.434 . S
C1021 C1022 1.369 . S
C1021 C1023 1.419 . S
C1021 H1025 0.930 . S
C1022 C1021 1.369 . S
C1022 C1031 1.429 . S
C1023 C1021 1.419 . S
C1023 C1024 1.363 . S
C1023 H1026 0.929 . S
C1024 C1023 1.363 . S
C1024 C1030 1.428 . S
H1025 C1021 0.930 . S
H1026 C1023 0.929 . S
S1027 N1028 1.625 . S
S1027 N1029 1.622 . S
N1028 S1027 1.625 . S
N1028 C1031 1.350 . S
N1029 S1027 1.622 . S
N1029 C1030 1.351 . S
C1030 C1024 1.428 . S
C1030 N1029 1.351 . S
C1030 C1031 1.434 . S
C1031 C1022 1.429 . S
C1031 N1028 1.350 . S
C1031 C1030 1.434 . S
C1032 C1033 1.369 . S
C1032 C1034 1.419 . S
C1032 H1036 0.930 . S
C1033 C1032 1.369 . S
C1033 C1042 1.429 . S
C1034 C1032 1.419 . S
C1034 C1035 1.363 . S
C1034 H1037 0.929 . S
C1035 C1034 1.363 . S
C1035 C1041 1.428 . S
H1036 C1032 0.930 . S
H1037 C1034 0.929 . S
S1038 N1039 1.613 . S
S1038 N1040 1.610 . S
N1039 S1038 1.613 . S
N1039 C1042 1.350 . S
N1040 S1038 1.610 . S
N1040 C1041 1.351 . S
C1041 C1035 1.428 . S
C1041 N1040 1.351 . S
C1041 C1042 1.434 . S
C1042 C1033 1.429 . S
C1042 N1039 1.350 . S
C1042 C1041 1.434 . S
C1043 C1044 1.369 . S
C1043 C1045 1.419 . S
C1043 H1047 0.930 . S
C1044 C1043 1.369 . S
C1044 C1053 1.429 . S
C1045 C1043 1.419 . S
C1045 C1046 1.363 . S
C1045 H1048 0.929 . S
C1046 C1045 1.363 . S
C1046 C1052 1.428 . S
H1047 C1043 0.930 . S
H1048 C1045 0.929 . S
S1049 N1050 1.613 . S
S1049 N1051 1.610 . S
N1050 S1049 1.613 . S
N1050 C1053 1.350 . S
N1051 S1049 1.610 . S
N1051 C1052 1.351 . S
C1052 C1046 1.428 . S
C1052 N1051 1.351 . S
C1052 C1053 1.434 . S
C1053 C1044 1.429 . S
C1053 N1050 1.350 . S
C1053 C1052 1.434 . S
C1054 C1055 1.369 . S
C1054 C1056 1.419 . S
C1054 H1058 0.930 . S
C1055 C1054 1.369 . S
C1055 C1064 1.429 . S
C1056 C1054 1.419 . S
C1056 C1057 1.363 . S
C1056 H1059 0.929 . S
C1057 C1056 1.363 . S
C1057 C1063 1.428 . S
H1058 C1054 0.930 . S
H1059 C1056 0.929 . S
S1060 N1061 1.613 . S
S1060 N1062 1.610 . S
N1061 S1060 1.613 . S
N1061 C1064 1.350 . S
N1062 S1060 1.610 . S
N1062 C1063 1.351 . S
C1063 C1057 1.428 . S
C1063 N1062 1.351 . S
C1063 C1064 1.434 . S
C1064 C1055 1.429 . S
C1064 N1061 1.350 . S
C1064 C1063 1.434 . S
C1065 C1066 1.369 . S
C1065 C1067 1.419 . S
C1065 H1069 0.930 . S
C1066 C1065 1.369 . S
C1066 C1075 1.429 . S
C1067 C1065 1.419 . S
C1067 C1068 1.363 . S
C1067 H1070 0.929 . S
C1068 C1067 1.363 . S
C1068 C1074 1.428 . S
H1069 C1065 0.930 . S
H1070 C1067 0.929 . S
S1071 N1072 1.613 . S
S1071 N1073 1.610 . S
N1072 S1071 1.613 . S
N1072 C1075 1.350 . S
N1073 S1071 1.610 . S
N1073 C1074 1.351 . S
C1074 C1068 1.428 . S
C1074 N1073 1.351 . S
C1074 C1075 1.434 . S
C1075 C1066 1.429 . S
C1075 N1072 1.350 . S
C1075 C1074 1.434 . S
C1076 C1077 1.369 . S
C1076 C1078 1.419 1_655 S
C1076 H1080 0.930 . S
C1077 C1076 1.369 . S
C1077 C1086 1.429 . S
C1078 C1076 1.419 1_455 S
C1078 C1079 1.363 . S
C1078 H1081 0.929 . S
C1079 C1078 1.363 . S
C1079 C1085 1.428 . S
H1080 C1076 0.930 . S
H1081 C1078 0.929 . S
S1082 N1083 1.616 1_455 S
S1082 N1084 1.608 . S
N1083 S1082 1.616 1_655 S
N1083 C1086 1.350 . S
N1084 S1082 1.608 . S
N1084 C1085 1.351 . S
C1085 C1079 1.428 . S
C1085 N1084 1.351 . S
C1085 C1086 1.434 1_455 S
C1086 C1077 1.429 . S
C1086 N1083 1.350 . S
C1086 C1085 1.434 1_655 S
C1087 C1088 1.369 . S
C1087 C1089 1.419 . S
C1087 H1091 0.930 . S
C1088 C1087 1.369 . S
C1088 C1097 1.429 . S
C1089 C1087 1.419 . S
C1089 C1090 1.363 . S
C1089 H1092 0.929 . S
C1090 C1089 1.363 . S
C1090 C1096 1.428 . S
H1091 C1087 0.930 . S
H1092 C1089 0.929 . S
S1093 N1094 1.613 . S
S1093 N1095 1.610 . S
N1094 S1093 1.613 . S
N1094 C1097 1.350 . S
N1095 S1093 1.610 . S
N1095 C1096 1.351 . S
C1096 C1090 1.428 . S
C1096 N1095 1.351 . S
C1096 C1097 1.434 . S
C1097 C1088 1.429 . S
C1097 N1094 1.350 . S
C1097 C1096 1.434 . S
C1098 C1099 1.369 . S
C1098 C1100 1.419 . S
C1098 H1102 0.930 . S
C1099 C1098 1.369 . S
C1099 C1108 1.429 . S
C1100 C1098 1.419 . S
C1100 C1101 1.363 . S
C1100 H1103 0.929 . S
C1101 C1100 1.363 . S
C1101 C1107 1.428 . S
H1102 C1098 0.930 . S
H1103 C1100 0.929 . S
S1104 N1105 1.613 . S
S1104 N1106 1.610 . S
N1105 S1104 1.613 . S
N1105 C1108 1.350 . S
N1106 S1104 1.610 . S
N1106 C1107 1.351 . S
C1107 C1101 1.428 . S
C1107 N1106 1.351 . S
C1107 C1108 1.434 . S
C1108 C1099 1.429 . S
C1108 N1105 1.350 . S
C1108 C1107 1.434 . S
C1109 C1110 1.369 . S
C1109 C1111 1.419 1_655 S
C1109 H1113 0.930 . S
C1110 C1109 1.369 . S
C1110 C1119 1.429 . S
C1111 C1109 1.419 1_455 S
C1111 C1112 1.363 . S
C1111 H1114 0.929 . S
C1112 C1111 1.363 . S
C1112 C1118 1.428 . S
H1113 C1109 0.930 . S
H1114 C1111 0.929 . S
S1115 N1116 1.615 1_455 S
S1115 N1117 1.608 . S
N1116 S1115 1.615 1_655 S
N1116 C1119 1.350 . S
N1117 S1115 1.608 . S
N1117 C1118 1.351 . S
C1118 C1112 1.428 . S
C1118 N1117 1.351 . S
C1118 C1119 1.434 1_455 S
C1119 C1110 1.429 . S
C1119 N1116 1.350 . S
C1119 C1118 1.434 1_655 S
C417 C309 1.450 . S
C419 C10 1.447 . S
C428 C270 1.450 . S
C430 C23 1.455 . S
C439 C283 1.456 . S
C441 C36 1.450 . S
C450 C296 1.453 . S
C452 C49 1.447 . S
C461 C62 1.454 . S
C463 C231 1.455 . S
C472 C244 1.451 . S
C474 C75 1.447 . S
C483 C88 1.452 . S
C485 C257 1.455 . S
C494 C101 1.446 . S
C496 C218 1.451 . S
C505 C413 1.455 . S
C507 C114 1.455 . S
C516 C127 1.456 . S
C518 C374 1.451 . S
C527 C140 1.452 . S
C529 C387 1.455 . S
C538 C153 1.456 . S
C540 C400 1.454 . S
C549 C166 1.453 . S
C551 C335 1.455 . S
C560 C179 1.450 . S
C562 C348 1.455 . S
C571 C192 1.452 . S
C573 C361 1.447 . S
C582 C205 1.451 . S
C584 C322 1.447 . S
C593 C8 1.498 . S
C595 C164 1.498 . S
C604 C385 1.499 . S
C606 C21 1.499 . S
C615 C34 1.497 . S
C617 C190 1.498 . S
C626 C411 1.502 . S
C628 C47 1.501 . S
C637 C112 1.503 . S
C639 C60 1.503 . S
C648 C73 1.501 . S
C650 C333 1.501 . S
C659 C86 1.496 . S
C661 C138 1.497 . S
C670 C99 1.501 . S
C672 C359 1.501 . S
C681 C281 1.500 . S
C683 C125 1.501 . S
C692 C307 1.497 . S
C694 C151 1.497 . S
C703 C177 1.500 . S
C705 C229 1.500 . S
C714 C255 1.502 . S
C716 C203 1.501 . S
C725 C372 1.499 . S
C727 C216 1.499 . S
C736 C242 1.500 . S
C738 C398 1.500 . S
C747 C320 1.500 . S
C749 C268 1.500 . S
C758 C346 1.499 . S
C760 C294 1.499 . S
C769 C52 1.275 . S
C771 C0 1.280 . S
C780 C65 1.276 . S
C782 C13 1.278 . S
C791 C26 1.274 . S
C793 C78 1.281 . S
C802 C39 1.279 . S
C804 C91 1.281 . S
C813 C156 1.275 . S
C815 C104 1.282 . S
C824 C169 1.281 . S
C826 C117 1.279 . S
C835 C182 1.282 . S
C837 C130 1.275 . S
C846 C143 1.282 . S
C848 C195 1.278 . S
C857 C208 1.275 . S
C859 C260 1.282 . S
C868 C221 1.279 . S
C870 C273 1.281 . S
C879 C234 1.276 . S
C881 C286 1.279 . S
C890 C247 1.280 . S
C892 C299 1.276 . S
C901 C364 1.277 . S
C903 C312 1.281 . S
C912 C377 1.283 . S
C914 C325 1.277 . S
C923 C390 1.281 . S
C925 C338 1.276 . S
C934 C403 1.281 . S
C936 C351 1.275 . S
C945 C395 1.335 . S
C947 C5 1.336 . S
C956 C18 1.335 . S
C958 C200 1.336 . S
C967 C369 1.340 . S
C969 C31 1.340 . S
C978 C44 1.336 . S
C980 C174 1.336 . S
C989 C343 1.340 . S
C991 C57 1.340 . S
C1000 C70 1.345 . S
C1002 C148 1.343 . S
C1011 C83 1.343 . S
C1013 C317 1.342 . S
C1022 C122 1.345 . S
C1024 C96 1.344 . S
C1033 C109 1.334 . S
C1035 C291 1.335 . S
C1044 C265 1.343 . S
C1046 C135 1.342 . S
C1055 C161 1.334 . S
C1057 C239 1.335 . S
C1066 C187 1.340 . S
C1068 C213 1.340 . S
C1077 C408 1.336 . S
C1079 C226 1.337 . S
C1088 C252 1.345 . S
C1090 C382 1.344 . S
C1099 C278 1.337 . S
C1101 C356 1.338 . S
C1110 C330 1.336 . S
C1112 C304 1.337 . S
