# Generated by pormake.
# Topology umh, (4)-cn, num edge types: 1
# Building blocks:
#     Node 0, Type 0, BuildingBlock: KOZSID_clean_sbu_0, # of connection points: 4
#     Node 1, Type 0, BuildingBlock: KOZSID_clean_sbu_0, # of connection points: 4
#     Node 2, Type 0, BuildingBlock: KOZSID_clean_sbu_0, # of connection points: 4
#     Node 3, Type 0, BuildingBlock: KOZSID_clean_sbu_0, # of connection points: 4
#     Node 4, Type 0, BuildingBlock: KOZSID_clean_sbu_0, # of connection points: 4
#     Node 5, Type 0, BuildingBlock: KOZSID_clean_sbu_0, # of connection points: 4
#     Node 6, Type 0, BuildingBlock: KOZSID_clean_sbu_0, # of connection points: 4
#     Node 7, Type 0, BuildingBlock: KOZSID_clean_sbu_0, # of connection points: 4
#     Node 8, Type 0, BuildingBlock: KOZSID_clean_sbu_0, # of connection points: 4
#     Node 9, Type 0, BuildingBlock: KOZSID_clean_sbu_0, # of connection points: 4
#     Node 10, Type 0, BuildingBlock: KOZSID_clean_sbu_0, # of connection points: 4
#     Node 11, Type 0, BuildingBlock: KOZSID_clean_sbu_0, # of connection points: 4
#     Node 12, Type 0, BuildingBlock: KOZSID_clean_sbu_0, # of connection points: 4
#     Node 13, Type 0, BuildingBlock: KOZSID_clean_sbu_0, # of connection points: 4
#     Node 14, Type 0, BuildingBlock: KOZSID_clean_sbu_0, # of connection points: 4
#     Node 15, Type 0, BuildingBlock: KOZSID_clean_sbu_0, # of connection points: 4
#     Edge 16, Type (0, 0), BuildingBlock: OJICUG_clean_linker_0, # of connection points: 2
#     Edge 17, Type (0, 0), BuildingBlock: OJICUG_clean_linker_0, # of connection points: 2
#     Edge 18, Type (0, 0), BuildingBlock: OJICUG_clean_linker_0, # of connection points: 2
#     Edge 19, Type (0, 0), BuildingBlock: OJICUG_clean_linker_0, # of connection points: 2
#     Edge 20, Type (0, 0), BuildingBlock: OJICUG_clean_linker_0, # of connection points: 2
#     Edge 21, Type (0, 0), BuildingBlock: OJICUG_clean_linker_0, # of connection points: 2
#     Edge 22, Type (0, 0), BuildingBlock: OJICUG_clean_linker_0, # of connection points: 2
#     Edge 23, Type (0, 0), BuildingBlock: OJICUG_clean_linker_0, # of connection points: 2
#     Edge 24, Type (0, 0), BuildingBlock: OJICUG_clean_linker_0, # of connection points: 2
#     Edge 25, Type (0, 0), BuildingBlock: OJICUG_clean_linker_0, # of connection points: 2
#     Edge 26, Type (0, 0), BuildingBlock: OJICUG_clean_linker_0, # of connection points: 2
#     Edge 27, Type (0, 0), BuildingBlock: OJICUG_clean_linker_0, # of connection points: 2
#     Edge 28, Type (0, 0), BuildingBlock: OJICUG_clean_linker_0, # of connection points: 2
#     Edge 29, Type (0, 0), BuildingBlock: OJICUG_clean_linker_0, # of connection points: 2
#     Edge 30, Type (0, 0), BuildingBlock: OJICUG_clean_linker_0, # of connection points: 2
#     Edge 31, Type (0, 0), BuildingBlock: OJICUG_clean_linker_0, # of connection points: 2
#     Edge 32, Type (0, 0), BuildingBlock: OJICUG_clean_linker_0, # of connection points: 2
#     Edge 33, Type (0, 0), BuildingBlock: OJICUG_clean_linker_0, # of connection points: 2
#     Edge 34, Type (0, 0), BuildingBlock: OJICUG_clean_linker_0, # of connection points: 2
#     Edge 35, Type (0, 0), BuildingBlock: OJICUG_clean_linker_0, # of connection points: 2
#     Edge 36, Type (0, 0), BuildingBlock: OJICUG_clean_linker_0, # of connection points: 2
#     Edge 37, Type (0, 0), BuildingBlock: OJICUG_clean_linker_0, # of connection points: 2
#     Edge 38, Type (0, 0), BuildingBlock: OJICUG_clean_linker_0, # of connection points: 2
#     Edge 39, Type (0, 0), BuildingBlock: OJICUG_clean_linker_0, # of connection points: 2
#     Edge 40, Type (0, 0), BuildingBlock: OJICUG_clean_linker_0, # of connection points: 2
#     Edge 41, Type (0, 0), BuildingBlock: OJICUG_clean_linker_0, # of connection points: 2
#     Edge 42, Type (0, 0), BuildingBlock: OJICUG_clean_linker_0, # of connection points: 2
#     Edge 43, Type (0, 0), BuildingBlock: OJICUG_clean_linker_0, # of connection points: 2
#     Edge 44, Type (0, 0), BuildingBlock: OJICUG_clean_linker_0, # of connection points: 2
#     Edge 45, Type (0, 0), BuildingBlock: OJICUG_clean_linker_0, # of connection points: 2
#     Edge 46, Type (0, 0), BuildingBlock: OJICUG_clean_linker_0, # of connection points: 2
#     Edge 47, Type (0, 0), BuildingBlock: OJICUG_clean_linker_0, # of connection points: 2
# Relax obj value: 0.074
# Max RMSD: 0.158
# Mean RMSD: 0.158
data_MOF--net-umh--node1-KOZSID_clean_sbu_0--edge1-OJICUG_clean_linker_0
_symmetry_space_group_name_H-M    P1
_symmetry_Int_Tables_number       1
_symmetry_cell_setting            triclinic
loop_
_symmetry_equiv_pos_as_xyz
'x, y, z'
_cell_length_a     42.553619
_cell_length_b     42.558669
_cell_length_c     44.766224
_cell_angle_alpha  90.000539
_cell_angle_beta   90.000205
_cell_angle_gamma 89.99934
loop_
_atom_site_label
_atom_site_type_symbol
_atom_site_fract_x
_atom_site_fract_y
_atom_site_fract_z
_atom_type_partial_charge
C0 C 0.29139 0.0825 0.16688 0.0
C1 C 0.26354 0.06538 0.16668 0.0
C2 C 0.26184 0.05068 0.13956 0.0
C3 C 0.28823 0.06004 0.12443 0.0
N4 N 0.30637 0.07985 0.14033 0.0
Co5 Co 0.34462 0.10157 0.12589 0.0
N6 N 0.3327 0.09414 0.08372 0.0
C7 C 0.3124 0.07222 0.07383 0.0
C8 C 0.30933 0.07201 0.04334 0.0
C9 C 0.32915 0.09506 0.03341 0.0
C10 C 0.34324 0.10808 0.05858 0.0
N11 N 0.38276 0.12325 0.11137 0.0
C12 C 0.38936 0.13457 0.08377 0.0
C13 C 0.41924 0.14763 0.08308 0.0
C14 C 0.43172 0.14389 0.11121 0.0
C15 C 0.40884 0.12885 0.1275 0.0
N16 N 0.35606 0.10842 0.16824 0.0
C17 C 0.385 0.11506 0.17854 0.0
C18 C 0.38557 0.11869 0.20906 0.0
C19 C 0.35511 0.11395 0.21835 0.0
C20 C 0.33754 0.10781 0.19291 0.0
N21 N 0.36864 0.06125 0.12602 0.0
C22 C 0.41027 1.00865 0.12795 0.0
C23 C 0.3898 1.01561 0.15185 0.0
C24 C 0.36913 0.04167 0.15036 0.0
C25 C 0.40847 0.02843 0.10286 0.0
C26 C 0.38781 0.05419 0.10233 0.0
N27 N 0.3221 0.14256 0.12566 0.0
C28 C 0.32166 0.19774 0.13927 0.0
C29 C 0.29352 0.20287 0.12382 0.0
C30 C 0.27986 0.17688 0.10931 0.0
C31 C 0.29423 0.14691 0.11085 0.0
C32 C 0.33565 0.16789 0.13954 0.0
H33 H 0.28296 0.12736 0.09984 0.0
H34 H 0.35785 0.16557 0.15083 0.0
H35 H 0.35406 0.04641 0.16926 0.0
H36 H 0.38826 0.06903 0.08286 0.0
C37 C 0.29287 0.05635 0.09378 0.0
C38 C 0.30392 0.09944 0.19296 0.0
C39 C 0.36876 0.13111 0.05755 0.0
C40 C 0.40899 0.12366 0.15854 0.0
H41 H 0.24591 0.06382 0.184 0.0
H42 H 0.24263 0.03651 0.13121 0.0
H43 H 0.29377 0.05759 0.02999 0.0
H44 H 0.3331 0.10117 0.01025 0.0
H45 H 0.43088 0.15842 0.0642 0.0
H46 H 0.45439 0.15198 0.119 0.0
H47 H 0.40539 0.12541 0.22279 0.0
H48 H 0.34679 0.11494 0.24118 0.0
H49 H 0.38967 1.00104 0.17167 0.0
H50 H 0.42377 0.02482 0.08385 0.0
H51 H 0.33329 0.21698 0.15063 0.0
H52 H 0.25799 0.17959 0.09721 0.0
C53 C 0.45041 0.29125 0.66684 0.0
C54 C 0.46752 0.26339 0.66665 0.0
C55 C 0.48222 0.26169 0.63952 0.0
C56 C 0.47286 0.28807 0.62439 0.0
N57 N 0.45306 0.30622 0.64029 0.0
Co58 Co 0.43134 0.34447 0.62584 0.0
N59 N 0.43877 0.33255 0.58368 0.0
C60 C 0.46068 0.31223 0.57378 0.0
C61 C 0.46089 0.30915 0.5433 0.0
C62 C 0.43785 0.32898 0.53337 0.0
C63 C 0.42483 0.34308 0.55853 0.0
N64 N 0.40967 0.38261 0.61132 0.0
C65 C 0.39835 0.38922 0.58372 0.0
C66 C 0.3853 0.41909 0.58303 0.0
C67 C 0.38905 0.43157 0.61115 0.0
C68 C 0.40407 0.40869 0.62745 0.0
N69 N 0.4245 0.35591 0.6682 0.0
C70 C 0.41786 0.38485 0.67849 0.0
C71 C 0.41423 0.38543 0.70901 0.0
C72 C 0.41897 0.35498 0.71831 0.0
C73 C 0.42511 0.3374 0.69287 0.0
N74 N 0.47168 0.36848 0.62597 0.0
C75 C 0.52428 0.41011 0.6279 0.0
C76 C 0.51732 0.38965 0.65181 0.0
C77 C 0.49125 0.36897 0.65032 0.0
C78 C 0.5045 0.4083 0.60281 0.0
C79 C 0.47874 0.38764 0.60228 0.0
N80 N 0.39034 0.32197 0.62562 0.0
C81 C 0.33515 0.32154 0.63924 0.0
C82 C 0.33002 0.2934 0.62379 0.0
C83 C 0.356 0.27973 0.60928 0.0
C84 C 0.38598 0.29409 0.61082 0.0
C85 C 0.36501 0.33552 0.6395 0.0
H86 H 0.40553 0.28282 0.5998 0.0
H87 H 0.36734 0.35772 0.65078 0.0
H88 H 0.48651 0.35391 0.66921 0.0
H89 H 0.46391 0.38808 0.58281 0.0
C90 C 0.47655 0.2927 0.59374 0.0
C91 C 0.43348 0.30379 0.69293 0.0
C92 C 0.40182 0.36862 0.55749 0.0
C93 C 0.40926 0.40885 0.65849 0.0
H94 H 0.46907 0.24577 0.68396 0.0
H95 H 0.49638 0.24247 0.63117 0.0
H96 H 0.4753 0.29359 0.52995 0.0
H97 H 0.43174 0.33294 0.5102 0.0
H98 H 0.37452 0.43074 0.56414 0.0
H99 H 0.38096 0.45424 0.61894 0.0
H100 H 0.40752 0.40526 0.72274 0.0
H101 H 0.41799 0.34667 0.74114 0.0
H102 H 0.53189 0.38952 0.67163 0.0
H103 H 0.50811 0.4236 0.5838 0.0
H104 H 0.31592 0.33317 0.65059 0.0
H105 H 0.35329 0.25786 0.59719 0.0
C106 C 0.24168 0.45044 0.16682 0.0
C107 C 0.26954 0.46755 0.16663 0.0
C108 C 0.27124 0.48224 0.1395 0.0
C109 C 0.24486 0.47288 0.12437 0.0
N110 N 0.22671 0.45308 0.14027 0.0
Co111 Co 0.18845 0.43136 0.12583 0.0
N112 N 0.20038 0.43879 0.08366 0.0
C113 C 0.22069 0.4607 0.07376 0.0
C114 C 0.22376 0.4609 0.04328 0.0
C115 C 0.20394 0.43786 0.03335 0.0
C116 C 0.18984 0.42484 0.05852 0.0
N117 N 0.15031 0.40969 0.11131 0.0
C118 C 0.14371 0.39837 0.08371 0.0
C119 C 0.11383 0.38532 0.08303 0.0
C120 C 0.10135 0.38907 0.11115 0.0
C121 C 0.12423 0.4041 0.12744 0.0
N122 N 0.17701 0.42453 0.16818 0.0
C123 C 0.14807 0.41789 0.17848 0.0
C124 C 0.1475 0.41427 0.209 0.0
C125 C 0.17795 0.419 0.2183 0.0
C126 C 0.19553 0.42514 0.19285 0.0
N127 N 0.16445 0.47169 0.12595 0.0
C128 C 0.12281 0.5243 0.12788 0.0
C129 C 0.14328 0.51734 0.15178 0.0
C130 C 0.16395 0.49127 0.1503 0.0
C131 C 0.12462 0.50451 0.10279 0.0
C132 C 0.14528 0.47875 0.10226 0.0
N133 N 0.21097 0.39037 0.12561 0.0
C134 C 0.2114 0.33519 0.13923 0.0
C135 C 0.23954 0.33006 0.12379 0.0
C136 C 0.25321 0.35604 0.10928 0.0
C137 C 0.23884 0.38601 0.11081 0.0
C138 C 0.19741 0.36505 0.1395 0.0
H139 H 0.25011 0.40556 0.09979 0.0
H140 H 0.17521 0.36737 0.15077 0.0
H141 H 0.17902 0.48653 0.16919 0.0
H142 H 0.14483 0.46391 0.08279 0.0
C143 C 0.24022 0.47657 0.09372 0.0
C144 C 0.22915 0.4335 0.19291 0.0
C145 C 0.1643 0.40183 0.05749 0.0
C146 C 0.12407 0.40929 0.15848 0.0
H147 H 0.28717 0.4691 0.18394 0.0
H148 H 0.29046 0.4964 0.13114 0.0
H149 H 0.23932 0.47531 0.02993 0.0
H150 H 0.19998 0.43174 0.01019 0.0
H151 H 0.10218 0.37453 0.06414 0.0
H152 H 0.07867 0.38098 0.11894 0.0
H153 H 0.12767 0.40755 0.22273 0.0
H154 H 0.18627 0.41802 0.24112 0.0
H155 H 0.14341 0.53191 0.1716 0.0
H156 H 0.10932 0.50812 0.08378 0.0
H157 H 0.19977 0.31596 0.15059 0.0
H158 H 0.27509 0.35333 0.09718 0.0
C159 C 0.08242 0.24155 0.66686 0.0
C160 C 0.06529 0.2694 0.66668 0.0
C161 C 0.05059 0.2711 0.63955 0.0
C162 C 0.05996 0.24472 0.62442 0.0
N163 N 0.07977 0.22658 0.64031 0.0
Co164 Co 0.1015 0.18834 0.62586 0.0
N165 N 0.09407 0.20026 0.5837 0.0
C166 C 0.07214 0.22057 0.57381 0.0
C167 C 0.07193 0.22364 0.54332 0.0
C168 C 0.09499 0.20383 0.53339 0.0
C169 C 0.10802 0.18974 0.55855 0.0
N170 N 0.12319 0.15021 0.61133 0.0
C171 C 0.13452 0.14362 0.58374 0.0
C172 C 0.14758 0.11375 0.58304 0.0
C173 C 0.14384 0.10126 0.61116 0.0
C174 C 0.1288 0.12413 0.62746 0.0
N175 N 0.10835 0.17689 0.66822 0.0
C176 C 0.115 0.14796 0.67851 0.0
C177 C 0.11863 0.14738 0.70902 0.0
C178 C 0.11389 0.17783 0.71833 0.0
C179 C 0.10774 0.19541 0.69288 0.0
N180 N 0.06118 0.16432 0.62599 0.0
C181 C 1.00859 0.12266 0.62791 0.0
C182 C 1.01554 0.14313 0.65182 0.0
C183 C 0.0416 0.16381 0.65033 0.0
C184 C 0.02837 0.12448 0.60282 0.0
C185 C 0.05412 0.14515 0.60229 0.0
N186 N 0.14249 0.21086 0.62564 0.0
C187 C 0.19768 0.2113 0.63925 0.0
C188 C 0.20281 0.23944 0.6238 0.0
C189 C 0.17682 0.2531 0.60929 0.0
C190 C 0.14685 0.23873 0.61084 0.0
C191 C 0.16783 0.19731 0.63952 0.0
H192 H 0.12729 0.25 0.59982 0.0
H193 H 0.16551 0.17511 0.6508 0.0
H194 H 0.04634 0.17887 0.66923 0.0
H195 H 0.06896 0.14472 0.58282 0.0
C196 C 0.05627 0.24009 0.59376 0.0
C197 C 0.09937 0.22902 0.69295 0.0
C198 C 0.13105 0.16422 0.55752 0.0
C199 C 0.12361 0.12397 0.6585 0.0
H200 H 0.06374 0.28702 0.68399 0.0
H201 H 0.03642 0.29031 0.6312 0.0
H202 H 0.05751 0.2392 0.52998 0.0
H203 H 0.1011 0.19988 0.51022 0.0
H204 H 0.15837 0.10211 0.56415 0.0
H205 H 0.15194 0.07859 0.61895 0.0
H206 H 0.12536 0.12756 0.72275 0.0
H207 H 0.11487 0.18615 0.74115 0.0
H208 H 1.00097 0.14325 0.67164 0.0
H209 H 0.02476 0.10919 0.58381 0.0
H210 H 0.21692 0.19967 0.65061 0.0
H211 H 0.17953 0.27497 0.5972 0.0
C212 C 0.29138 0.45045 0.3277 0.0
C213 C 0.26353 0.46757 0.32788 0.0
C214 C 0.26183 0.48227 0.35501 0.0
C215 C 0.28821 0.4729 0.37014 0.0
N216 N 0.30635 0.4531 0.35425 0.0
Co217 Co 0.3446 0.43137 0.3687 0.0
N218 N 0.33267 0.43881 0.41087 0.0
C219 C 0.31236 0.46073 0.42075 0.0
C220 C 0.30929 0.46094 0.45124 0.0
C221 C 0.3291 0.43789 0.46118 0.0
C222 C 0.3432 0.42486 0.43601 0.0
N223 N 0.38273 0.40968 0.38324 0.0
C224 C 0.38932 0.39836 0.41083 0.0
C225 C 0.4192 0.3853 0.41153 0.0
C226 C 0.43169 0.38904 0.38341 0.0
C227 C 0.40881 0.40408 0.36711 0.0
N228 N 0.35604 0.42452 0.32635 0.0
C229 C 0.38499 0.41787 0.31606 0.0
C230 C 0.38557 0.41424 0.28554 0.0
C231 C 0.35511 0.41898 0.27624 0.0
C232 C 0.33753 0.42513 0.30168 0.0
N233 N 0.36862 0.47169 0.36857 0.0
C234 C 0.41026 0.52429 0.36665 0.0
C235 C 0.38979 0.51733 0.34274 0.0
C236 C 0.36912 0.49126 0.34423 0.0
C237 C 0.40845 0.5045 0.39173 0.0
C238 C 0.38779 0.47875 0.39226 0.0
N239 N 0.32208 0.39038 0.36892 0.0
C240 C 0.32163 0.3352 0.35532 0.0
C241 C 0.29349 0.33008 0.37076 0.0
C242 C 0.27982 0.35606 0.38527 0.0
C243 C 0.2942 0.38603 0.38373 0.0
C244 C 0.33563 0.36505 0.35505 0.0
H245 H 0.28293 0.40559 0.39474 0.0
H246 H 0.35783 0.36736 0.34377 0.0
H247 H 0.35405 0.48652 0.32533 0.0
H248 H 0.38823 0.46391 0.41174 0.0
C249 C 0.29284 0.4766 0.4008 0.0
C250 C 0.30392 0.4335 0.30161 0.0
C251 C 0.36872 0.40183 0.43705 0.0
C252 C 0.40898 0.40927 0.33607 0.0
H253 H 0.24591 0.46912 0.31057 0.0
H254 H 0.24261 0.49644 0.36335 0.0
H255 H 0.29373 0.47536 0.46458 0.0
H256 H 0.33305 0.43178 0.48434 0.0
H257 H 0.43083 0.37451 0.43042 0.0
H258 H 0.45436 0.38094 0.37562 0.0
H259 H 0.40539 0.40752 0.27182 0.0
H260 H 0.3468 0.418 0.25341 0.0
H261 H 0.38967 0.53189 0.32292 0.0
H262 H 0.42375 0.50811 0.41075 0.0
H263 H 0.33326 0.31596 0.34397 0.0
H264 H 0.25795 0.35336 0.39737 0.0
C265 C 0.08248 0.29127 0.82773 0.0
C266 C 0.06536 0.26342 0.82793 0.0
C267 C 0.05067 0.26173 0.85506 0.0
C268 C 0.06003 0.28811 0.87019 0.0
N269 N 0.07984 0.30625 0.85428 0.0
Co270 Co 0.10156 0.3445 0.86872 0.0
N271 N 0.09414 0.33259 0.91089 0.0
C272 C 0.07222 0.31228 0.92079 0.0
C273 C 0.07201 0.30922 0.95127 0.0
C274 C 0.09507 0.32904 0.9612 0.0
C275 C 0.10809 0.34313 0.93603 0.0
N276 N 0.12325 0.38264 0.88323 0.0
C277 C 0.13458 0.38924 0.91082 0.0
C278 C 0.14763 0.41912 0.91151 0.0
C279 C 0.14388 0.43159 0.88339 0.0
C280 C 0.12885 0.40871 0.8671 0.0
N281 N 0.1084 0.35593 0.82636 0.0
C282 C 0.11505 0.38487 0.81606 0.0
C283 C 0.11867 0.38544 0.78554 0.0
C284 C 0.11392 0.35498 0.77625 0.0
C285 C 0.10779 0.33741 0.8017 0.0
N286 N 0.06123 0.36851 0.86859 0.0
C287 C 1.00864 0.41016 0.86666 0.0
C288 C 1.01559 0.38969 0.84276 0.0
C289 C 0.04166 0.36901 0.84425 0.0
C290 C 0.02843 0.40835 0.89175 0.0
C291 C 0.05418 0.38769 0.89228 0.0
N292 N 0.14256 0.32199 0.86894 0.0
C293 C 0.19775 0.32155 0.85532 0.0
C294 C 0.20288 0.29342 0.87078 0.0
C295 C 0.17689 0.27975 0.8853 0.0
C296 C 0.14692 0.29412 0.88375 0.0
C297 C 0.16789 0.33553 0.85505 0.0
H298 H 0.12736 0.28286 0.89478 0.0
H299 H 0.16557 0.35773 0.84377 0.0
H300 H 0.04639 0.35394 0.82535 0.0
H301 H 0.06902 0.38813 0.91175 0.0
C302 C 0.05635 0.29275 0.90084 0.0
C303 C 0.09941 0.3038 0.80164 0.0
C304 C 0.13111 0.36865 0.93705 0.0
C305 C 0.12365 0.40886 0.83606 0.0
H306 H 0.0638 0.24579 0.81062 0.0
H307 H 0.0365 0.24251 0.86342 0.0
H308 H 0.0576 0.29367 0.96463 0.0
H309 H 0.10118 0.333 0.98436 0.0
H310 H 0.15842 0.43076 0.9304 0.0
H311 H 0.15198 0.45426 0.87559 0.0
H312 H 0.12539 0.40526 0.77181 0.0
H313 H 0.1149 0.34666 0.75342 0.0
H314 H 1.00102 0.38956 0.82294 0.0
H315 H 0.02482 0.42366 0.91076 0.0
H316 H 0.21698 0.33317 0.84396 0.0
H317 H 0.17961 0.25789 0.8974 0.0
C318 C 0.24166 0.08251 0.32774 0.0
C319 C 0.26952 0.0654 0.32794 0.0
C320 C 0.27122 0.05071 0.35507 0.0
C321 C 0.24484 0.06007 0.37019 0.0
N322 N 0.22669 0.07986 0.35429 0.0
Co323 Co 0.18843 0.10158 0.36873 0.0
N324 N 0.20035 0.09415 0.4109 0.0
C325 C 0.22066 0.07224 0.4208 0.0
C326 C 0.22373 0.07203 0.45128 0.0
C327 C 0.2039 0.09507 0.46121 0.0
C328 C 0.1898 0.10809 0.43605 0.0
N329 N 0.15028 0.12325 0.38325 0.0
C330 C 0.14367 0.13457 0.41084 0.0
C331 C 0.11379 0.14762 0.41153 0.0
C332 C 0.10132 0.14387 0.38341 0.0
C333 C 0.12421 0.12885 0.36712 0.0
N334 N 0.17699 0.10842 0.32638 0.0
C335 C 0.14805 0.11506 0.31608 0.0
C336 C 0.14748 0.11869 0.28556 0.0
C337 C 0.17794 0.11395 0.27626 0.0
C338 C 0.19551 0.10781 0.30171 0.0
N339 N 0.16442 0.06125 0.3686 0.0
C340 C 0.12279 1.00864 0.36667 0.0
C341 C 0.14327 1.01561 0.34276 0.0
C342 C 0.16393 0.04168 0.34426 0.0
C343 C 0.12459 0.02843 0.39175 0.0
C344 C 0.14525 0.05419 0.39229 0.0
N345 N 0.21094 0.14257 0.36896 0.0
C346 C 0.21137 0.19775 0.35534 0.0
C347 C 0.23951 0.20289 0.37078 0.0
C348 C 0.25318 0.17691 0.3853 0.0
C349 C 0.23881 0.14693 0.38376 0.0
C350 C 0.19738 0.1679 0.35507 0.0
H351 H 0.25008 0.12738 0.39478 0.0
H352 H 0.17518 0.16558 0.34379 0.0
H353 H 0.179 0.04642 0.32536 0.0
H354 H 0.1448 0.06902 0.41176 0.0
C355 C 0.2402 0.05638 0.40085 0.0
C356 C 0.22913 0.09945 0.30166 0.0
C357 C 0.16427 0.1311 0.43708 0.0
C358 C 0.12405 0.12366 0.33608 0.0
H359 H 0.28715 0.06385 0.31063 0.0
H360 H 0.29044 0.03655 0.36342 0.0
H361 H 0.23929 0.05762 0.46463 0.0
H362 H 0.19994 0.10119 0.48438 0.0
H363 H 0.10214 0.1584 0.43042 0.0
H364 H 0.07864 0.15196 0.37561 0.0
H365 H 0.12766 0.1254 0.27183 0.0
H366 H 0.18626 0.11493 0.25344 0.0
H367 H 0.1434 1.00104 0.32294 0.0
H368 H 0.10929 0.02481 0.41076 0.0
H369 H 0.19974 0.21699 0.34398 0.0
H370 H 0.27505 0.17962 0.39739 0.0
C371 C 0.45047 0.24159 0.82772 0.0
C372 C 0.46758 0.26944 0.8279 0.0
C373 C 0.48229 0.27116 0.85502 0.0
C374 C 0.47294 0.24478 0.87016 0.0
N375 N 0.45313 0.22663 0.85427 0.0
Co376 Co 0.43141 0.18838 0.86874 0.0
N377 N 0.43885 0.20032 0.9109 0.0
C378 C 0.46077 0.22064 0.92078 0.0
C379 C 0.46099 0.22373 0.95126 0.0
C380 C 0.43794 0.2039 0.96121 0.0
C381 C 0.42492 0.1898 0.93605 0.0
N382 N 0.40974 0.15025 0.88328 0.0
C383 C 0.39843 0.14366 0.91088 0.0
C384 C 0.38538 0.11378 0.91159 0.0
C385 C 0.38912 0.10129 0.88347 0.0
C386 C 0.40414 0.12417 0.86716 0.0
N387 N 0.42456 0.17693 0.82639 0.0
C388 C 0.41792 0.14798 0.81611 0.0
C389 C 0.41428 0.1474 0.78559 0.0
C390 C 0.41901 0.17785 0.77628 0.0
C391 C 0.42516 0.19543 0.80172 0.0
N392 N 0.47175 0.16438 0.86861 0.0
C393 C 0.52435 0.12273 0.86668 0.0
C394 C 0.51738 0.14319 0.84277 0.0
C395 C 0.49131 0.16387 0.84426 0.0
C396 C 0.50457 0.12456 0.89177 0.0
C397 C 0.47882 0.14522 0.8923 0.0
N398 N 0.39042 0.21089 0.86896 0.0
C399 C 0.33522 0.21132 0.85536 0.0
C400 C 0.33009 0.23946 0.87079 0.0
C401 C 0.35608 0.25314 0.88529 0.0
C402 C 0.38606 0.23877 0.88376 0.0
C403 C 0.36508 0.19733 0.85509 0.0
H404 H 0.40561 0.25004 0.89476 0.0
H405 H 0.3674 0.17512 0.84382 0.0
H406 H 0.48657 0.17892 0.82536 0.0
H407 H 0.46399 0.14478 0.91178 0.0
C408 C 0.47663 0.24016 0.90082 0.0
C409 C 0.43352 0.22905 0.80164 0.0
C410 C 0.4019 0.16427 0.9371 0.0
C411 C 0.40932 0.124 0.83612 0.0
H412 H 0.46913 0.28706 0.81058 0.0
H413 H 0.49646 0.29038 0.86336 0.0
H414 H 0.4754 0.23929 0.9646 0.0
H415 H 0.43184 0.19996 0.98438 0.0
H416 H 0.3746 0.10215 0.93048 0.0
H417 H 0.38103 0.07862 0.87568 0.0
H418 H 0.40756 0.12757 0.77187 0.0
H419 H 0.41802 0.18616 0.75345 0.0
H420 H 0.53194 0.14331 0.82295 0.0
H421 H 0.50819 0.10926 0.91079 0.0
H422 H 0.31599 0.19968 0.84401 0.0
H423 H 0.35337 0.27501 0.89738 0.0
C424 C 0.6955 0.92512 0.80171 0.0
C425 C 0.67791 0.91898 0.77627 0.0
C426 C 0.64746 0.91424 0.78558 0.0
C427 C 0.64805 0.91786 0.81609 0.0
N428 N 0.67699 0.92451 0.82638 0.0
Co429 Co 0.68844 0.93136 0.86873 0.0
N430 N 0.65029 0.90969 0.88327 0.0
C431 C 0.62421 0.9041 0.86714 0.0
C432 C 0.60133 0.88907 0.88344 0.0
C433 C 0.61381 0.88533 0.91156 0.0
C434 C 0.6437 0.89838 0.91086 0.0
N435 N 0.70037 0.9388 0.91089 0.0
C436 C 0.68984 0.92486 0.93604 0.0
C437 C 0.70395 0.93788 0.9612 0.0
C438 C 0.72377 0.96092 0.95126 0.0
C439 C 0.72069 0.96071 0.92078 0.0
N440 N 0.72669 0.95308 0.85428 0.0
C441 C 0.74483 0.9729 0.87017 0.0
C442 C 0.7712 0.98227 0.85502 0.0
C443 C 0.7695 0.96756 0.8279 0.0
C444 C 0.74165 0.95043 0.82772 0.0
N445 N 0.66443 0.97169 0.8686 0.0
C446 C 0.62278 0.02429 0.86668 0.0
C447 C 0.6246 1.00451 0.89176 0.0
C448 C 0.64527 0.97876 0.89229 0.0
C449 C 0.64325 0.01733 0.84276 0.0
C450 C 0.66392 0.99126 0.84425 0.0
N451 N 0.71095 0.89037 0.86896 0.0
C452 C 0.7532 0.85604 0.88529 0.0
C453 C 0.73952 0.83005 0.87079 0.0
C454 C 0.71137 0.83518 0.85535 0.0
C455 C 0.69739 0.86504 0.85508 0.0
C456 C 0.73882 0.88601 0.88375 0.0
H457 H 0.67518 0.86736 0.84381 0.0
H458 H 0.7501 0.90556 0.89476 0.0
H459 H 0.64483 0.96393 0.91177 0.0
H460 H 0.67898 0.98651 0.82535 0.0
C461 C 0.62405 0.90928 0.8361 0.0
C462 C 0.72912 0.93349 0.80164 0.0
C463 C 0.6643 0.90186 0.93709 0.0
C464 C 0.7402 0.97658 0.90082 0.0
H465 H 0.68623 0.91799 0.75344 0.0
H466 H 0.62763 0.90752 0.77185 0.0
H467 H 0.57865 0.88099 0.87565 0.0
H468 H 0.60217 0.87456 0.93046 0.0
H469 H 0.69999 0.93177 0.98437 0.0
H470 H 0.73933 0.97533 0.96461 0.0
H471 H 0.79042 0.99644 0.86337 0.0
H472 H 0.78712 0.96912 0.81058 0.0
H473 H 0.60931 1.00813 0.91078 0.0
H474 H 0.64337 0.03189 0.82294 0.0
H475 H 0.77507 0.85333 0.89738 0.0
H476 H 0.69974 0.81595 0.844 0.0
C477 C 0.60785 0.69547 0.3017 0.0
C478 C 0.61398 0.6779 0.27625 0.0
C479 C 0.61873 0.64744 0.28555 0.0
C480 C 0.61512 0.64802 0.31606 0.0
N481 N 0.60847 0.67695 0.32636 0.0
Co482 Co 0.60163 0.68838 0.36872 0.0
N483 N 0.62331 0.65023 0.38324 0.0
C484 C 0.6289 0.62416 0.3671 0.0
C485 C 0.64393 0.60127 0.38338 0.0
C486 C 0.64767 0.61374 0.41151 0.0
C487 C 0.63462 0.64362 0.41083 0.0
N488 N 0.5942 0.70029 0.41089 0.0
C489 C 0.60815 0.68975 0.43603 0.0
C490 C 0.59513 0.70384 0.4612 0.0
C491 C 0.57209 0.72367 0.45127 0.0
C492 C 0.57229 0.7206 0.42079 0.0
N493 N 0.5799 0.72663 0.35429 0.0
C494 C 0.56008 0.74476 0.37019 0.0
C495 C 0.55071 0.77114 0.35506 0.0
C496 C 0.56541 0.76945 0.32793 0.0
C497 C 0.58254 0.7416 0.32774 0.0
N498 N 0.56129 0.66437 0.36859 0.0
C499 C 0.50869 0.62273 0.36666 0.0
C500 C 0.52848 0.62454 0.39174 0.0
C501 C 0.55423 0.6452 0.39228 0.0
C502 C 0.51565 0.6432 0.34275 0.0
C503 C 0.54172 0.66387 0.34425 0.0
N504 N 0.64262 0.71089 0.36895 0.0
C505 C 0.67696 0.75312 0.38529 0.0
C506 C 0.70294 0.73945 0.37078 0.0
C507 C 0.69781 0.71132 0.35533 0.0
C508 C 0.66795 0.69733 0.35506 0.0
C509 C 0.64698 0.73875 0.38375 0.0
H510 H 0.66563 0.67513 0.34378 0.0
H511 H 0.62743 0.75002 0.39477 0.0
H512 H 0.56907 0.64475 0.41175 0.0
H513 H 0.54646 0.67894 0.32535 0.0
C514 C 0.62371 0.62401 0.33605 0.0
C515 C 0.59947 0.72908 0.30165 0.0
C516 C 0.63115 0.6642 0.43706 0.0
C517 C 0.55641 0.74012 0.40084 0.0
H518 H 0.61496 0.68622 0.25343 0.0
H519 H 0.62544 0.62762 0.27181 0.0
H520 H 0.65201 0.5786 0.37558 0.0
H521 H 0.65845 0.60209 0.4304 0.0
H522 H 0.60125 0.69988 0.48437 0.0
H523 H 0.55768 0.73923 0.46463 0.0
H524 H 0.53654 0.79035 0.36342 0.0
H525 H 0.56384 0.78707 0.31062 0.0
H526 H 0.52487 0.60923 0.41076 0.0
H527 H 0.50108 0.64333 0.32293 0.0
H528 H 0.67967 0.77499 0.39739 0.0
H529 H 0.71705 0.69969 0.34397 0.0
C530 C 0.83746 0.60775 0.80169 0.0
C531 C 0.85503 0.61387 0.77624 0.0
C532 C 0.88549 0.61862 0.78553 0.0
C533 C 0.88491 0.61502 0.81605 0.0
N534 N 0.85598 0.60837 0.82635 0.0
Co535 Co 0.84455 0.60154 0.86871 0.0
N536 N 0.8827 0.62321 0.88322 0.0
C537 C 0.90878 0.6288 0.86708 0.0
C538 C 0.93167 0.64383 0.88336 0.0
C539 C 0.9192 0.64759 0.91149 0.0
C540 C 0.88932 0.63454 0.91081 0.0
N541 N 0.83264 0.59412 0.91089 0.0
C542 C 0.84319 0.60807 0.93603 0.0
C543 C 0.8291 0.59506 0.9612 0.0
C544 C 0.80926 0.57201 0.95128 0.0
C545 C 0.81233 0.57221 0.92079 0.0
N546 N 0.80629 0.57982 0.85429 0.0
C547 C 0.78816 0.56 0.87019 0.0
C548 C 0.76177 0.55063 0.85507 0.0
C549 C 0.76347 0.56532 0.82794 0.0
C550 C 0.79131 0.58244 0.82774 0.0
N551 N 0.86856 0.56121 0.86859 0.0
C552 C 0.9102 0.50861 0.86666 0.0
C553 C 0.9084 0.5284 0.89174 0.0
C554 C 0.88774 0.55415 0.89227 0.0
C555 C 0.88973 0.51556 0.84276 0.0
C556 C 0.86905 0.54163 0.84425 0.0
N557 N 0.82204 0.64253 0.86894 0.0
C558 C 0.77981 0.67687 0.88529 0.0
C559 C 0.79348 0.70285 0.87077 0.0
C560 C 0.82161 0.69771 0.85532 0.0
C561 C 0.83559 0.66786 0.85505 0.0
C562 C 0.79418 0.6469 0.88375 0.0
H563 H 0.85779 0.66553 0.84376 0.0
H564 H 0.78291 0.62735 0.89478 0.0
H565 H 0.88819 0.56899 0.91174 0.0
H566 H 0.85398 0.54637 0.82535 0.0
C567 C 0.90892 0.62361 0.83604 0.0
C568 C 0.80384 0.59937 0.80164 0.0
C569 C 0.86873 0.63107 0.93705 0.0
C570 C 0.7928 0.55634 0.90085 0.0
H571 H 0.8467 0.61484 0.75342 0.0
H572 H 0.90531 0.62533 0.77179 0.0
H573 H 0.95434 0.65192 0.87556 0.0
H574 H 0.93085 0.65837 0.93038 0.0
H575 H 0.83306 0.60118 0.98436 0.0
H576 H 0.79371 0.55761 0.96463 0.0
H577 H 0.74257 0.53646 0.86343 0.0
H578 H 0.74584 0.56375 0.81063 0.0
H579 H 0.9237 0.52479 0.91075 0.0
H580 H 0.88959 0.50099 0.82294 0.0
H581 H 0.75794 0.67959 0.8974 0.0
H582 H 0.83324 0.71694 0.84396 0.0
C583 C 0.92523 0.83744 0.30168 0.0
C584 C 0.91909 0.85502 0.27624 0.0
C585 C 0.91434 0.88547 0.28554 0.0
C586 C 0.91796 0.88489 0.31606 0.0
N587 N 0.92461 0.85595 0.32635 0.0
Co588 Co 0.93146 0.84451 0.3687 0.0
N589 N 0.90977 0.88265 0.38323 0.0
C590 C 0.90417 0.90872 0.3671 0.0
C591 C 0.88913 0.9316 0.38339 0.0
C592 C 0.88539 0.91912 0.41151 0.0
C593 C 0.89845 0.88924 0.41082 0.0
N594 N 0.93889 0.83259 0.41087 0.0
C595 C 0.92494 0.84312 0.43601 0.0
C596 C 0.93796 0.82902 0.46118 0.0
C597 C 0.96102 0.80921 0.45124 0.0
C598 C 0.96081 0.81229 0.42076 0.0
N599 N 0.95319 0.80627 0.35426 0.0
C600 C 0.97302 0.78814 0.37015 0.0
C601 C 0.9824 0.76177 0.35502 0.0
C602 C 0.9677 0.76346 0.32789 0.0
C603 C 0.95056 0.7913 0.3277 0.0
N604 N 0.97179 0.86853 0.36858 0.0
C605 C 0.02438 0.91018 0.36665 0.0
C606 C 1.00459 0.90837 0.39174 0.0
C607 C 0.97884 0.8877 0.39227 0.0
C608 C 0.01743 0.88972 0.34274 0.0
C609 C 0.99136 0.86904 0.34423 0.0
N610 N 0.89047 0.82199 0.36892 0.0
C611 C 0.85614 0.77975 0.38527 0.0
C612 C 0.83015 0.79342 0.37076 0.0
C613 C 0.83528 0.82156 0.35532 0.0
C614 C 0.86513 0.83554 0.35504 0.0
C615 C 0.88611 0.79412 0.38373 0.0
H616 H 0.86745 0.85775 0.34377 0.0
H617 H 0.90567 0.78286 0.39474 0.0
H618 H 0.964 0.88814 0.41174 0.0
H619 H 0.98663 0.85398 0.32533 0.0
C620 C 0.90936 0.90889 0.33606 0.0
C621 C 0.93362 0.80383 0.30162 0.0
C622 C 0.90193 0.86865 0.43705 0.0
C623 C 0.97669 0.79277 0.40081 0.0
H624 H 0.91812 0.8467 0.25341 0.0
H625 H 0.90762 0.90529 0.27181 0.0
H626 H 0.88104 0.95427 0.3756 0.0
H627 H 0.8746 0.93076 0.4304 0.0
H628 H 0.93185 0.83298 0.48434 0.0
H629 H 0.97543 0.79366 0.46459 0.0
H630 H 0.99658 0.74256 0.36337 0.0
H631 H 0.96927 0.74584 0.31057 0.0
H632 H 1.0082 0.92366 0.41075 0.0
H633 H 0.03199 0.8896 0.32292 0.0
H634 H 0.85343 0.75788 0.39737 0.0
H635 H 0.81604 0.83319 0.34396 0.0
C636 C 0.69546 0.6077 0.69287 0.0
C637 C 0.67788 0.61384 0.71831 0.0
C638 C 0.64743 0.61859 0.709 0.0
C639 C 0.64801 0.61497 0.67848 0.0
N640 N 0.67695 0.60831 0.66819 0.0
Co641 Co 0.6884 0.60145 0.62584 0.0
N642 N 0.65027 0.62313 0.61131 0.0
C643 C 0.62418 0.62873 0.62743 0.0
C644 C 0.60131 0.64376 0.61113 0.0
C645 C 0.6138 0.6475 0.58301 0.0
C646 C 0.64367 0.63445 0.58371 0.0
N647 N 0.70034 0.59401 0.58368 0.0
C648 C 0.68981 0.60796 0.55853 0.0
C649 C 0.70391 0.59493 0.53337 0.0
C650 C 0.72373 0.57188 0.54331 0.0
C651 C 0.72065 0.5721 0.5738 0.0
N652 N 0.72665 0.57973 0.6403 0.0
C653 C 0.74479 0.5599 0.62441 0.0
C654 C 0.77116 0.55053 0.63956 0.0
C655 C 0.76945 0.56523 0.66668 0.0
C656 C 0.74161 0.58237 0.66686 0.0
N657 N 0.66439 0.56113 0.62597 0.0
C658 C 0.62273 0.50854 0.6279 0.0
C659 C 0.62455 0.52832 0.60281 0.0
C660 C 0.64522 0.55407 0.60228 0.0
C661 C 0.6432 0.5155 0.65181 0.0
C662 C 0.66388 0.54156 0.65032 0.0
N663 N 0.71092 0.64244 0.62562 0.0
C664 C 0.75317 0.67677 0.60927 0.0
C665 C 0.7395 0.70275 0.62378 0.0
C666 C 0.71136 0.69763 0.63922 0.0
C667 C 0.69737 0.66778 0.63949 0.0
C668 C 0.7388 0.6468 0.61082 0.0
H669 H 0.67516 0.66546 0.65076 0.0
H670 H 0.75007 0.62724 0.59981 0.0
H671 H 0.64479 0.5689 0.5828 0.0
H672 H 0.67894 0.5463 0.66922 0.0
C673 C 0.62402 0.62356 0.65847 0.0
C674 C 0.72908 0.59932 0.69293 0.0
C675 C 0.66428 0.63097 0.55749 0.0
C676 C 0.74016 0.55622 0.59376 0.0
H677 H 0.68619 0.61483 0.74113 0.0
H678 H 0.6276 0.62531 0.72272 0.0
H679 H 0.57863 0.65186 0.61891 0.0
H680 H 0.60216 0.65828 0.56411 0.0
H681 H 0.69997 0.60104 0.51021 0.0
H682 H 0.73929 0.55746 0.52997 0.0
H683 H 0.79037 0.53634 0.63121 0.0
H684 H 0.78707 0.56367 0.684 0.0
H685 H 0.60926 0.52471 0.5838 0.0
H686 H 0.64332 0.50094 0.67163 0.0
H687 H 0.77505 0.67947 0.59718 0.0
H688 H 0.69973 0.71687 0.65057 0.0
C689 C 0.92524 0.69548 0.19284 0.0
C690 C 0.9191 0.6779 0.21828 0.0
C691 C 0.91435 0.64745 0.20897 0.0
C692 C 0.91797 0.64803 0.17846 0.0
N693 N 0.92462 0.67697 0.16817 0.0
Co694 Co 0.93146 0.68841 0.12581 0.0
N695 N 0.90979 0.65027 0.11129 0.0
C696 C 0.9042 0.62419 0.12741 0.0
C697 C 0.88917 0.60131 0.11112 0.0
C698 C 0.88542 0.61379 0.083 0.0
C699 C 0.89847 0.64367 0.08369 0.0
N700 N 0.93889 0.70034 0.08365 0.0
C701 C 0.92495 0.68981 0.0585 0.0
C702 C 0.93797 0.70391 0.03334 0.0
C703 C 0.96101 0.72373 0.04327 0.0
C704 C 0.9608 0.72065 0.07376 0.0
N705 N 0.95319 0.72666 0.14026 0.0
C706 C 0.97301 0.7448 0.12437 0.0
C707 C 0.98238 0.77117 0.1395 0.0
C708 C 0.96768 0.76947 0.16663 0.0
C709 C 0.95055 0.74162 0.16682 0.0
N710 N 0.9718 0.6644 0.12594 0.0
C711 C 0.02439 0.62276 0.12787 0.0
C712 C 1.00461 0.62457 0.10278 0.0
C713 C 0.97886 0.64524 0.10225 0.0
C714 C 0.01744 0.64322 0.15178 0.0
C715 C 0.99137 0.6639 0.15029 0.0
N716 N 0.89047 0.71092 0.12559 0.0
C717 C 0.85613 0.75316 0.10926 0.0
C718 C 0.83015 0.73949 0.12377 0.0
C719 C 0.83528 0.71135 0.1392 0.0
C720 C 0.86514 0.69736 0.13947 0.0
C721 C 0.88611 0.73879 0.1108 0.0
H722 H 0.86746 0.67516 0.15074 0.0
H723 H 0.90566 0.75007 0.09978 0.0
H724 H 0.96402 0.6448 0.08278 0.0
H725 H 0.98663 0.67896 0.16919 0.0
C726 C 0.90938 0.62403 0.15846 0.0
C727 C 0.93361 0.72909 0.1929 0.0
C728 C 0.90195 0.66427 0.05746 0.0
C729 C 0.97668 0.74017 0.09371 0.0
H730 H 0.91812 0.68621 0.24111 0.0
H731 H 0.90764 0.62762 0.22271 0.0
H732 H 0.88108 0.57864 0.11891 0.0
H733 H 0.87464 0.60215 0.0641 0.0
H734 H 0.93185 0.69995 0.01017 0.0
H735 H 0.97542 0.73929 0.02993 0.0
H736 H 0.99655 0.79038 0.13116 0.0
H737 H 0.96924 0.78709 0.18395 0.0
H738 H 1.00822 0.60928 0.08377 0.0
H739 H 0.032 0.64334 0.1716 0.0
H740 H 0.85342 0.77503 0.09717 0.0
H741 H 0.81604 0.69971 0.15056 0.0
C742 C 0.83746 0.92504 0.69285 0.0
C743 C 0.85505 0.91891 0.71829 0.0
C744 C 0.8855 0.91417 0.70899 0.0
C745 C 0.88491 0.91778 0.67847 0.0
N746 N 0.85597 0.92443 0.66818 0.0
Co747 Co 0.84453 0.93127 0.62583 0.0
N748 N 0.88268 0.90961 0.6113 0.0
C749 C 0.90876 0.90402 0.62743 0.0
C750 C 0.93164 0.889 0.61113 0.0
C751 C 0.91917 0.88526 0.58301 0.0
C752 C 0.88928 0.8983 0.5837 0.0
N753 N 0.8326 0.9387 0.58366 0.0
C754 C 0.84314 0.92476 0.55851 0.0
C755 C 0.82903 0.93778 0.53335 0.0
C756 C 0.80919 0.96081 0.54329 0.0
C757 C 0.81227 0.9606 0.57377 0.0
N758 N 0.80627 0.95298 0.64028 0.0
C759 C 0.78812 0.97279 0.62438 0.0
C760 C 0.76174 0.98216 0.63952 0.0
C761 C 0.76345 0.96746 0.66665 0.0
C762 C 0.7913 0.95035 0.66683 0.0
N763 N 0.86852 0.97161 0.62596 0.0
C764 C 0.91016 0.02421 0.62789 0.0
C765 C 0.90835 1.00443 0.6028 0.0
C766 C 0.88769 0.97868 0.60227 0.0
C767 C 0.88969 0.01724 0.6518 0.0
C768 C 0.86902 0.99118 0.65031 0.0
N769 N 0.82202 0.89028 0.6256 0.0
C770 C 0.77978 0.85593 0.60926 0.0
C771 C 0.79346 0.82995 0.62377 0.0
C772 C 0.82161 0.83509 0.63921 0.0
C773 C 0.83559 0.86495 0.63948 0.0
C774 C 0.79415 0.88591 0.6108 0.0
H775 H 0.85779 0.86727 0.65075 0.0
H776 H 0.78287 0.90546 0.59979 0.0
H777 H 0.88814 0.96384 0.58279 0.0
H778 H 0.85396 0.98643 0.6692 0.0
C779 C 0.90892 0.9092 0.65847 0.0
C780 C 0.80384 0.93342 0.69292 0.0
C781 C 0.86869 0.90178 0.55747 0.0
C782 C 0.79275 0.97647 0.59373 0.0
H783 H 0.84673 0.91794 0.74112 0.0
H784 H 0.90533 0.90746 0.72272 0.0
H785 H 0.95432 0.88092 0.61892 0.0
H786 H 0.93082 0.87449 0.56412 0.0
H787 H 0.83298 0.93167 0.51019 0.0
H788 H 0.79363 0.97522 0.52994 0.0
H789 H 0.74253 0.99633 0.63117 0.0
H790 H 0.74583 0.96902 0.68397 0.0
H791 H 0.92365 1.00805 0.58379 0.0
H792 H 0.88957 0.03181 0.67162 0.0
H793 H 0.75791 0.85322 0.59717 0.0
H794 H 0.83325 0.81586 0.65056 0.0
C795 C 0.60786 0.83745 0.19289 0.0
C796 C 0.614 0.85503 0.21833 0.0
C797 C 0.61875 0.88548 0.20903 0.0
C798 C 0.61513 0.8849 0.17851 0.0
N799 N 0.60847 0.85597 0.16822 0.0
Co800 Co 0.60162 0.84453 0.12587 0.0
N801 N 0.6233 0.88267 0.11134 0.0
C802 C 0.6289 0.90874 0.12747 0.0
C803 C 0.64393 0.93162 0.11118 0.0
C804 C 0.64767 0.91914 0.08305 0.0
C805 C 0.63461 0.88927 0.08375 0.0
N806 N 0.59418 0.83261 0.0837 0.0
C807 C 0.60813 0.84314 0.05855 0.0
C808 C 0.5951 0.82905 0.03339 0.0
C809 C 0.57205 0.80922 0.04333 0.0
C810 C 0.57227 0.8123 0.07381 0.0
N811 N 0.5799 0.80628 0.14031 0.0
C812 C 0.56007 0.78815 0.12442 0.0
C813 C 0.55069 0.76178 0.13955 0.0
C814 C 0.5654 0.76347 0.16668 0.0
C815 C 0.58253 0.79131 0.16686 0.0
N816 N 0.56129 0.86854 0.126 0.0
C817 C 0.5087 0.91019 0.12794 0.0
C818 C 0.52848 0.90838 0.10285 0.0
C819 C 0.55423 0.88771 0.10231 0.0
C820 C 0.51565 0.88972 0.15184 0.0
C821 C 0.54172 0.86904 0.15035 0.0
N822 N 0.64261 0.82201 0.12564 0.0
C823 C 0.67694 0.77977 0.10928 0.0
C824 C 0.70293 0.79344 0.12379 0.0
C825 C 0.69781 0.82158 0.13924 0.0
C826 C 0.66795 0.83557 0.13951 0.0
C827 C 0.64697 0.79415 0.11083 0.0
H828 H 0.66563 0.85777 0.15079 0.0
H829 H 0.62741 0.78288 0.09982 0.0
H830 H 0.56906 0.88815 0.08284 0.0
H831 H 0.54646 0.85398 0.16925 0.0
C832 C 0.62372 0.9089 0.15852 0.0
C833 C 0.59948 0.80384 0.19295 0.0
C834 C 0.63113 0.86868 0.05752 0.0
C835 C 0.55639 0.79278 0.09376 0.0
H836 H 0.61498 0.84671 0.24116 0.0
H837 H 0.62547 0.9053 0.22276 0.0
H838 H 0.65202 0.95429 0.11897 0.0
H839 H 0.65845 0.93079 0.06416 0.0
H840 H 0.60122 0.833 0.01023 0.0
H841 H 0.55764 0.79367 0.02998 0.0
H842 H 0.53651 0.74257 0.1312 0.0
H843 H 0.56383 0.74585 0.18399 0.0
H844 H 0.52487 0.92368 0.08383 0.0
H845 H 0.50109 0.8896 0.17166 0.0
H846 H 0.67965 0.75791 0.09719 0.0
H847 H 0.71705 0.83321 0.15059 0.0
C848 C 0.40852 0.13077 0.9823 0.0
C849 C 0.39144 0.15398 0.96707 0.0
H850 H 0.41511 0.10598 0.02357 0.0
C851 C 0.36829 0.17112 0.98231 0.0
H852 H 0.42708 0.11796 0.97108 0.0
C853 C 0.3619 0.16472 0.01235 0.0
C854 C 0.37905 0.14158 0.02758 0.0
H855 H 0.3555 0.18968 0.97105 0.0
H856 H 0.34333 0.17749 0.02361 0.0
C857 C 0.40228 0.12453 0.01235 0.0
C858 C 0.40222 0.40839 0.48226 0.0
C859 C 0.37899 0.39135 0.46701 0.0
H860 H 0.42701 0.41494 0.52354 0.0
C861 C 0.36183 0.36821 0.48224 0.0
H862 H 0.41505 0.42694 0.47104 0.0
C863 C 0.36821 0.3618 0.51228 0.0
C864 C 0.39137 0.37892 0.52753 0.0
H865 H 0.34326 0.35545 0.47098 0.0
H866 H 0.35542 0.34324 0.52353 0.0
C867 C 0.40845 0.40214 0.5123 0.0
C868 C 0.16474 0.3618 0.98225 0.0
C869 C 0.14159 0.37895 0.96702 0.0
H870 H 0.18971 0.35543 0.02354 0.0
C871 C 0.12454 0.40217 0.98225 0.0
H872 H 0.17751 0.34323 0.97099 0.0
C873 C 0.13079 0.40842 0.01229 0.0
C874 C 0.15401 0.39136 0.02752 0.0
H875 H 0.10598 0.41499 0.97103 0.0
H876 H 0.11797 0.42698 0.02352 0.0
C877 C 0.17115 0.3682 0.01229 0.0
C878 C 0.12448 0.13072 0.51231 0.0
C879 C 0.14153 0.15395 0.52755 0.0
H880 H 0.11793 0.10592 0.47103 0.0
C881 C 0.16468 0.1711 0.51232 0.0
H882 H 0.10593 0.11789 0.52353 0.0
C883 C 0.17109 0.16471 0.48229 0.0
C884 C 0.15396 0.14156 0.46704 0.0
H885 H 0.17744 0.18967 0.52359 0.0
H886 H 0.18965 0.1775 0.47104 0.0
C887 C 0.13074 0.12449 0.48226 0.0
C888 C 0.62455 0.9022 0.01233 0.0
C889 C 0.64161 0.87897 0.02756 0.0
H890 H 0.61797 0.927 0.97106 0.0
C891 C 0.66476 0.86183 0.01232 0.0
H892 H 0.60598 0.91501 0.02356 0.0
C893 C 0.67115 0.86824 0.98228 0.0
C894 C 0.65401 0.89138 0.96705 0.0
H895 H 0.67753 0.84327 0.02357 0.0
H896 H 0.68972 0.85546 0.97102 0.0
C897 C 0.63078 0.90844 0.98229 0.0
C898 C 0.63077 0.62441 0.51228 0.0
C899 C 0.654 0.64146 0.52753 0.0
H900 H 0.60598 0.61786 0.47101 0.0
C901 C 0.67116 0.6646 0.5123 0.0
H902 H 0.61795 0.60585 0.5235 0.0
C903 C 0.66477 0.67101 0.48227 0.0
C904 C 0.64162 0.65389 0.46702 0.0
H905 H 0.68973 0.67736 0.52357 0.0
H906 H 0.67755 0.68958 0.47102 0.0
C907 C 0.62454 0.63067 0.48224 0.0
C908 C 0.90227 0.6245 0.98223 0.0
C909 C 0.87904 0.64156 0.967 0.0
H910 H 0.92709 0.61793 0.02349 0.0
C911 C 0.8619 0.66471 0.98224 0.0
H912 H 0.91508 0.60594 0.971 0.0
C913 C 0.86831 0.67111 0.01227 0.0
C914 C 0.89147 0.65397 0.02751 0.0
H915 H 0.84333 0.67748 0.97099 0.0
H916 H 0.85554 0.68968 0.02353 0.0
C917 C 0.90852 0.63075 0.01227 0.0
C918 C 0.90847 0.90216 0.48225 0.0
C919 C 0.89143 0.87893 0.467 0.0
H920 H 0.91502 0.92696 0.52352 0.0
C921 C 0.86829 0.86177 0.48223 0.0
H922 H 0.92703 0.91499 0.47103 0.0
C923 C 0.86187 0.86816 0.51227 0.0
C924 C 0.879 0.89132 0.52751 0.0
H925 H 0.85553 0.8432 0.47097 0.0
H926 H 0.84331 0.85537 0.52352 0.0
C927 C 0.90221 0.90839 0.51229 0.0
C928 C 0.26061 0.28198 0.09638 0.0
C929 C 0.25413 0.29777 0.12338 0.0
H930 H 0.27715 0.23948 0.07525 0.0
C931 C 0.26022 0.28176 0.1503 0.0
H932 H 0.25595 0.29343 0.07524 0.0
C933 C 0.27283 0.25117 0.15031 0.0
C934 C 0.27893 0.23516 0.12339 0.0
H935 H 0.25546 0.29309 0.1715 0.0
H936 H 0.27757 0.23985 0.17151 0.0
C937 C 0.27247 0.25094 0.09639 0.0
C938 C 0.28194 0.27233 0.59638 0.0
C939 C 0.29773 0.27882 0.62337 0.0
H940 H 0.23944 0.2558 0.57524 0.0
C941 C 0.2817 0.27274 0.6503 0.0
H942 H 0.2934 0.27699 0.57524 0.0
C943 C 0.25111 0.26014 0.6503 0.0
C944 C 0.2351 0.25402 0.62338 0.0
H945 H 0.29302 0.27751 0.6715 0.0
H946 H 0.23978 0.2554 0.6715 0.0
C947 C 0.2509 0.26048 0.59638 0.0
C948 C 0.2728 0.28177 0.34427 0.0
C949 C 0.2789 0.29779 0.37119 0.0
H950 H 0.25543 0.23986 0.32308 0.0
C951 C 0.27243 0.282 0.39819 0.0
H952 H 0.27755 0.2931 0.32307 0.0
C953 C 0.26058 0.25097 0.3982 0.0
C954 C 0.2541 0.23517 0.3712 0.0
H955 H 0.27711 0.29346 0.41933 0.0
H956 H 0.25591 0.23951 0.41934 0.0
C957 C 0.26019 0.25119 0.34427 0.0
C958 C 0.28201 0.26054 0.89821 0.0
C959 C 0.2978 0.25404 0.87121 0.0
H960 H 0.23952 0.27708 0.91935 0.0
C961 C 0.28178 0.26011 0.84429 0.0
H962 H 0.29348 0.25589 0.91935 0.0
C963 C 0.25118 0.27272 0.84428 0.0
C964 C 0.23517 0.27884 0.87121 0.0
H965 H 0.29309 0.25534 0.82309 0.0
H966 H 0.23985 0.27745 0.82309 0.0
C967 C 0.25097 0.27239 0.89821 0.0
C968 C 0.7602 0.78175 0.84428 0.0
C969 C 0.7541 0.79776 0.87121 0.0
H970 H 0.77756 0.73984 0.82308 0.0
C971 C 0.76057 0.78197 0.8982 0.0
H972 H 0.75545 0.79308 0.82309 0.0
C973 C 0.77242 0.75093 0.8982 0.0
C974 C 0.7789 0.73514 0.8712 0.0
H975 H 0.7559 0.79342 0.91935 0.0
H976 H 0.77709 0.73947 0.91934 0.0
C977 C 0.7728 0.75116 0.84428 0.0
C978 C 0.75124 0.76014 0.34427 0.0
C979 C 0.73523 0.75404 0.3712 0.0
H980 H 0.79316 0.7775 0.32307 0.0
C981 C 0.75104 0.7605 0.39819 0.0
H982 H 0.73991 0.7554 0.32307 0.0
C983 C 0.78208 0.77235 0.39819 0.0
C984 C 0.79786 0.77883 0.37119 0.0
H985 H 0.73958 0.75582 0.41933 0.0
H986 H 0.79354 0.77702 0.41933 0.0
C987 C 0.78184 0.77275 0.34427 0.0
C988 C 0.77282 0.78164 0.65028 0.0
C989 C 0.77888 0.79766 0.62335 0.0
H990 H 0.75548 0.73971 0.67147 0.0
C991 C 0.77238 0.78188 0.59635 0.0
H992 H 0.77759 0.79295 0.67147 0.0
C993 C 0.76053 0.75084 0.59635 0.0
C994 C 0.75409 0.73504 0.62335 0.0
H995 H 0.77703 0.79335 0.57521 0.0
H996 H 0.75584 0.73939 0.57521 0.0
C997 C 0.76021 0.75105 0.65028 0.0
C998 C 0.78183 0.76014 0.15028 0.0
C999 C 0.79785 0.75407 0.12335 0.0
H1000 H 0.73991 0.77747 0.17148 0.0
C1001 C 0.78206 0.76057 0.09636 0.0
H1002 H 0.79315 0.75537 0.17147 0.0
C1003 C 0.75102 0.77241 0.09636 0.0
C1004 C 0.73522 0.77886 0.12336 0.0
H1005 H 0.79353 0.75592 0.07521 0.0
H1006 H 0.73957 0.7771 0.07522 0.0
C1007 C 0.75124 0.77274 0.15028 0.0
C1008 C 0.25671 0.07158 0.25979 0.0
C1009 C 0.24755 0.09994 0.27325 0.0
H1010 H 0.2838 0.04928 0.22555 0.0
C1011 C 0.25714 0.12843 0.26024 0.0
H1012 H 0.24926 0.04928 0.26908 0.0
C1013 C 0.2759 0.12843 0.23437 0.0
C1014 C 0.2855 0.09994 0.22137 0.0
H1015 H 0.2503 0.1506 0.2702 0.0
H1016 H 0.28275 0.15059 0.22441 0.0
C1017 C 0.27634 0.07158 0.23483 0.0
C1018 C 0.4045 0.27579 0.73436 0.0
C1019 C 0.433 0.28538 0.72134 0.0
H1020 H 0.38235 0.2502 0.7702 0.0
C1021 C 0.46137 0.27623 0.73479 0.0
H1022 H 0.38233 0.28263 0.72441 0.0
C1023 C 0.46138 0.25661 0.75976 0.0
C1024 C 0.43302 0.24746 0.77323 0.0
H1025 H 0.48366 0.28368 0.7255 0.0
H1026 H 0.48368 0.24915 0.76904 0.0
C1027 C 0.40451 0.25704 0.76023 0.0
C1028 C 0.25715 0.40452 0.23433 0.0
C1029 C 0.24757 0.43301 0.22131 0.0
H1030 H 0.28274 0.38235 0.27016 0.0
C1031 C 0.25673 0.46137 0.23477 0.0
H1032 H 0.2503 0.38235 0.22437 0.0
C1033 C 0.27635 0.46137 0.25974 0.0
C1034 C 0.2855 0.43301 0.27321 0.0
H1035 H 0.24928 0.48367 0.22548 0.0
H1036 H 0.28381 0.48366 0.26902 0.0
C1037 C 0.27591 0.40452 0.2602 0.0
C1038 C 0.12838 0.25703 0.73435 0.0
C1039 C 0.09987 0.24744 0.72135 0.0
H1040 H 0.15056 0.28263 0.77017 0.0
C1041 C 0.07151 0.2566 0.73482 0.0
H1042 H 0.15054 0.25019 0.72438 0.0
C1043 C 0.07152 0.27622 0.75978 0.0
C1044 C 0.09989 0.28538 0.77324 0.0
H1045 H 0.04921 0.24914 0.72554 0.0
H1046 H 0.04923 0.28368 0.76908 0.0
C1047 C 0.12839 0.27579 0.76022 0.0
C1048 C 0.7571 0.90447 0.76023 0.0
C1049 C 0.74752 0.93297 0.77323 0.0
H1050 H 0.78268 0.88228 0.7244 0.0
C1051 C 0.75668 0.96133 0.75976 0.0
H1052 H 0.75026 0.88231 0.7702 0.0
C1053 C 0.7763 0.96131 0.73479 0.0
C1054 C 0.78544 0.93294 0.72133 0.0
H1055 H 0.74923 0.98363 0.76904 0.0
H1056 H 0.78376 0.9836 0.72549 0.0
C1057 C 0.77585 0.90445 0.73436 0.0
C1058 C 0.57161 0.75666 0.25978 0.0
C1059 C 0.59997 0.7475 0.27324 0.0
H1060 H 0.54931 0.78374 0.22554 0.0
C1061 C 0.62847 0.75708 0.26023 0.0
H1062 H 0.54931 0.7492 0.26907 0.0
C1063 C 0.62847 0.77584 0.23436 0.0
C1064 C 0.59997 0.78543 0.22136 0.0
H1065 H 0.65063 0.75024 0.27019 0.0
H1066 H 0.65064 0.78267 0.2244 0.0
C1067 C 0.57161 0.77628 0.23482 0.0
C1068 C 0.77626 0.57148 0.75979 0.0
C1069 C 0.78542 0.59985 0.77324 0.0
H1070 H 0.74918 0.54917 0.72555 0.0
C1071 C 0.77584 0.62834 0.76021 0.0
H1072 H 0.78372 0.54919 0.76909 0.0
C1073 C 0.75708 0.62833 0.73434 0.0
C1074 C 0.74749 0.59983 0.72134 0.0
H1075 H 0.78268 0.65051 0.77016 0.0
H1076 H 0.75025 0.65049 0.72437 0.0
C1077 C 0.75664 0.57147 0.73482 0.0
C1078 C 0.96148 0.77627 0.25974 0.0
C1079 C 0.93312 0.78542 0.27321 0.0
H1080 H 0.98378 0.74919 0.22549 0.0
C1081 C 0.90462 0.77583 0.2602 0.0
H1082 H 0.98378 0.78372 0.26903 0.0
C1083 C 0.90462 0.75708 0.23433 0.0
C1084 C 0.93312 0.7475 0.22131 0.0
H1085 H 0.88246 0.78267 0.27016 0.0
H1086 H 0.88245 0.75024 0.22437 0.0
C1087 C 0.96148 0.75665 0.23478 0.0
C1088 C 0.44964 0.9731 0.15538 0.0
C1089 C 0.43375 0.98167 0.12888 0.0
H1090 H 0.4854 0.94462 0.17605 0.0
C1091 C 0.44161 0.96496 0.10268 0.0
H1092 H 0.4447 0.98533 0.17605 0.0
C1093 C 0.46502 0.94155 0.10268 0.0
C1094 C 0.48172 0.93367 0.12887 0.0
H1095 H 0.42964 0.96994 0.08188 0.0
H1096 H 0.46999 0.92958 0.08188 0.0
C1097 C 0.47317 0.94956 0.15537 0.0
C1098 C 0.58336 0.47301 0.65533 0.0
C1099 C 0.59925 0.48157 0.62883 0.0
H1100 H 0.54759 0.44453 0.67601 0.0
C1101 C 0.59138 0.46486 0.60264 0.0
H1102 H 0.5883 0.48523 0.67601 0.0
C1103 C 0.56797 0.44146 0.60264 0.0
C1104 C 0.55126 0.43359 0.62883 0.0
H1105 H 0.60335 0.46984 0.58184 0.0
H1106 H 0.56299 0.42949 0.58183 0.0
C1107 C 0.55982 0.44948 0.65533 0.0
C1108 C 0.08345 0.55984 0.1553 0.0
C1109 C 0.09934 0.55128 0.12881 0.0
H1110 H 0.0477 0.58833 0.17598 0.0
C1111 C 0.09147 0.56798 0.10261 0.0
H1112 H 0.08839 0.54762 0.17598 0.0
C1113 C 0.06807 0.59139 0.10261 0.0
C1114 C 0.05136 0.59927 0.1288 0.0
H1115 H 0.10345 0.563 0.08181 0.0
H1116 H 0.06309 0.60337 0.08181 0.0
C1117 C 0.05992 0.58338 0.1553 0.0
C1118 C 0.94151 0.0679 0.60264 0.0
C1119 C 0.93363 0.05119 0.62883 0.0
H1120 H 0.96989 0.10328 0.58184 0.0
C1121 C 0.94952 0.05975 0.65533 0.0
H1122 H 0.92953 0.06292 0.58183 0.0
C1123 C 0.97305 0.08329 0.65533 0.0
C1124 C 0.98161 0.09918 0.62884 0.0
H1125 H 0.94458 0.04752 0.67601 0.0
H1126 H 0.98528 0.08823 0.67601 0.0
C1127 C 0.96491 0.09131 0.60264 0.0
C1128 C 0.47316 0.58336 0.33922 0.0
C1129 C 0.48172 0.59925 0.36572 0.0
H1130 H 0.44468 0.5476 0.31854 0.0
C1131 C 0.46501 0.59137 0.39192 0.0
H1132 H 0.48539 0.58831 0.31855 0.0
C1133 C 0.44161 0.56797 0.39192 0.0
C1134 C 0.43374 0.55126 0.36572 0.0
H1135 H 0.46999 0.60334 0.41272 0.0
H1136 H 0.42963 0.56298 0.41272 0.0
C1137 C 0.44963 0.55983 0.33922 0.0
C1138 C 0.97309 0.44952 0.83923 0.0
C1139 C 0.98166 0.43364 0.86573 0.0
H1140 H 0.94461 0.48528 0.81855 0.0
C1141 C 0.96496 0.44152 0.89193 0.0
H1142 H 0.98531 0.44457 0.81855 0.0
C1143 C 0.94156 0.46493 0.89193 0.0
C1144 C 0.93368 0.48163 0.86573 0.0
H1145 H 0.96995 0.42956 0.91273 0.0
H1146 H 0.92959 0.46992 0.91273 0.0
C1147 C 0.94956 0.47306 0.83923 0.0
C1148 C 0.05991 0.94956 0.33923 0.0
C1149 C 0.05135 0.93367 0.36573 0.0
H1150 H 0.08838 0.98533 0.31855 0.0
C1151 C 0.06805 0.94154 0.39192 0.0
H1152 H 0.04769 0.94461 0.31855 0.0
C1153 C 0.09145 0.96496 0.39193 0.0
C1154 C 0.09932 0.98166 0.36573 0.0
H1155 H 0.06307 0.92957 0.41272 0.0
H1156 H 0.10342 0.96994 0.41273 0.0
C1157 C 0.08344 0.9731 0.33923 0.0
C1158 C 0.59144 0.06798 0.89194 0.0
C1159 C 0.59931 0.05127 0.86574 0.0
H1160 H 0.56306 0.10336 0.91274 0.0
C1161 C 0.58341 0.05982 0.83925 0.0
H1162 H 0.60342 0.063 0.91274 0.0
C1163 C 0.55988 0.08336 0.83925 0.0
C1164 C 0.55132 0.09925 0.86575 0.0
H1165 H 0.58835 0.04759 0.81857 0.0
H1166 H 0.54765 0.0883 0.81857 0.0
C1167 C 0.56804 0.09138 0.89194 0.0
loop_
_geom_bond_atom_site_label_1
_geom_bond_atom_site_label_2
_geom_bond_distance
_geom_bond_site_symmetry_2
_ccdc_geom_bond_type
C0 C1 1.443 . S
C0 N4 1.376 . S
C0 C38 1.389 . S
C1 C0 1.443 . S
C1 C2 1.340 . S
C1 H41 0.951 . S
C2 C1 1.340 . S
C2 C3 1.439 . S
C2 H42 0.950 . S
C3 C2 1.439 . S
C3 N4 1.374 . S
C3 C37 1.395 . S
N4 C0 1.376 . S
N4 C3 1.374 . S
N4 Co5 2.008 . S
Co5 N4 2.008 . S
Co5 N6 1.995 . S
Co5 N11 2.008 . S
Co5 N16 1.995 . S
Co5 N21 2.282 . S
Co5 N27 2.282 . S
N6 Co5 1.995 . S
N6 C7 1.376 . S
N6 C10 1.383 . S
C7 N6 1.376 . S
C7 C8 1.446 . S
C7 C37 1.391 . S
C8 C7 1.446 . S
C8 C9 1.339 . S
C8 H43 0.949 . S
C9 C8 1.339 . S
C9 C10 1.439 . S
C9 H44 0.950 . S
C10 N6 1.383 . S
C10 C9 1.439 . S
C10 C39 1.392 . S
N11 Co5 2.008 . S
N11 C12 1.376 . S
N11 C15 1.374 . S
C12 N11 1.376 . S
C12 C13 1.443 . S
C12 C39 1.389 . S
C13 C12 1.443 . S
C13 C14 1.340 . S
C13 H45 0.951 . S
C14 C13 1.340 . S
C14 C15 1.439 . S
C14 H46 0.950 . S
C15 N11 1.374 . S
C15 C14 1.439 . S
C15 C40 1.395 . S
N16 Co5 1.995 . S
N16 C17 1.376 . S
N16 C20 1.383 . S
C17 N16 1.376 . S
C17 C18 1.446 . S
C17 C40 1.391 . S
C18 C17 1.446 . S
C18 C19 1.339 . S
C18 H47 0.949 . S
C19 C18 1.339 . S
C19 C20 1.439 . S
C19 H48 0.950 . S
C20 N16 1.383 . S
C20 C19 1.439 . S
C20 C38 1.392 . S
N21 Co5 2.282 . S
N21 C24 1.332 . S
N21 C26 1.332 . S
C22 C23 1.386 . S
C22 C25 1.388 . S
C23 C22 1.386 . S
C23 C24 1.382 . S
C23 H49 0.950 . S
C24 N21 1.332 . S
C24 C23 1.382 . S
C24 H35 0.952 . S
C25 C22 1.388 . S
C25 C26 1.382 . S
C25 H50 0.950 1_545 S
C26 N21 1.332 . S
C26 C25 1.382 . S
C26 H36 0.948 . S
N27 Co5 2.282 . S
N27 C31 1.332 . S
N27 C32 1.332 . S
C28 C29 1.388 . S
C28 C32 1.382 . S
C28 H51 0.950 . S
C29 C28 1.388 . S
C29 C30 1.386 . S
C30 C29 1.386 . S
C30 C31 1.382 . S
C30 H52 0.950 . S
C31 N27 1.332 . S
C31 C30 1.382 . S
C31 H33 0.952 . S
C32 N27 1.332 . S
C32 C28 1.382 . S
C32 H34 0.948 . S
H33 C31 0.952 . S
H34 C32 0.948 . S
H35 C24 0.952 . S
H36 C26 0.948 . S
C37 C3 1.395 . S
C37 C7 1.391 . S
C38 C0 1.389 . S
C38 C20 1.392 . S
C39 C10 1.392 . S
C39 C12 1.389 . S
C40 C15 1.395 . S
C40 C17 1.391 . S
H41 C1 0.951 . S
H42 C2 0.950 . S
H43 C8 0.949 . S
H44 C9 0.950 . S
H45 C13 0.951 . S
H46 C14 0.950 . S
H47 C18 0.949 . S
H48 C19 0.950 . S
H49 C23 0.950 . S
H50 C25 0.950 1_565 S
H51 C28 0.950 . S
H52 C30 0.950 . S
C53 C54 1.443 . S
C53 N57 1.376 . S
C53 C91 1.389 . S
C54 C53 1.443 . S
C54 C55 1.340 . S
C54 H94 0.951 . S
C55 C54 1.340 . S
C55 C56 1.439 . S
C55 H95 0.950 . S
C56 C55 1.439 . S
C56 N57 1.374 . S
C56 C90 1.395 . S
N57 C53 1.376 . S
N57 C56 1.374 . S
N57 Co58 2.008 . S
Co58 N57 2.008 . S
Co58 N59 1.995 . S
Co58 N64 2.008 . S
Co58 N69 1.995 . S
Co58 N74 2.282 . S
Co58 N80 2.282 . S
N59 Co58 1.995 . S
N59 C60 1.376 . S
N59 C63 1.383 . S
C60 N59 1.376 . S
C60 C61 1.446 . S
C60 C90 1.391 . S
C61 C60 1.446 . S
C61 C62 1.339 . S
C61 H96 0.949 . S
C62 C61 1.339 . S
C62 C63 1.439 . S
C62 H97 0.950 . S
C63 N59 1.383 . S
C63 C62 1.439 . S
C63 C92 1.392 . S
N64 Co58 2.008 . S
N64 C65 1.376 . S
N64 C68 1.374 . S
C65 N64 1.376 . S
C65 C66 1.443 . S
C65 C92 1.389 . S
C66 C65 1.443 . S
C66 C67 1.340 . S
C66 H98 0.951 . S
C67 C66 1.340 . S
C67 C68 1.439 . S
C67 H99 0.950 . S
C68 N64 1.374 . S
C68 C67 1.439 . S
C68 C93 1.395 . S
N69 Co58 1.995 . S
N69 C70 1.376 . S
N69 C73 1.383 . S
C70 N69 1.376 . S
C70 C71 1.446 . S
C70 C93 1.391 . S
C71 C70 1.446 . S
C71 C72 1.339 . S
C71 H100 0.949 . S
C72 C71 1.339 . S
C72 C73 1.439 . S
C72 H101 0.950 . S
C73 N69 1.383 . S
C73 C72 1.439 . S
C73 C91 1.392 . S
N74 Co58 2.282 . S
N74 C77 1.332 . S
N74 C79 1.332 . S
C75 C76 1.386 . S
C75 C78 1.388 . S
C76 C75 1.386 . S
C76 C77 1.382 . S
C76 H102 0.950 . S
C77 N74 1.332 . S
C77 C76 1.382 . S
C77 H88 0.952 . S
C78 C75 1.388 . S
C78 C79 1.382 . S
C78 H103 0.950 . S
C79 N74 1.332 . S
C79 C78 1.382 . S
C79 H89 0.948 . S
N80 Co58 2.282 . S
N80 C84 1.332 . S
N80 C85 1.332 . S
C81 C82 1.388 . S
C81 C85 1.382 . S
C81 H104 0.950 . S
C82 C81 1.388 . S
C82 C83 1.386 . S
C83 C82 1.386 . S
C83 C84 1.382 . S
C83 H105 0.950 . S
C84 N80 1.332 . S
C84 C83 1.382 . S
C84 H86 0.952 . S
C85 N80 1.332 . S
C85 C81 1.382 . S
C85 H87 0.948 . S
H86 C84 0.952 . S
H87 C85 0.948 . S
H88 C77 0.952 . S
H89 C79 0.948 . S
C90 C56 1.395 . S
C90 C60 1.391 . S
C91 C53 1.389 . S
C91 C73 1.392 . S
C92 C63 1.392 . S
C92 C65 1.389 . S
C93 C68 1.395 . S
C93 C70 1.391 . S
H94 C54 0.951 . S
H95 C55 0.950 . S
H96 C61 0.949 . S
H97 C62 0.950 . S
H98 C66 0.951 . S
H99 C67 0.950 . S
H100 C71 0.949 . S
H101 C72 0.950 . S
H102 C76 0.950 . S
H103 C78 0.950 . S
H104 C81 0.950 . S
H105 C83 0.950 . S
C106 C107 1.443 . S
C106 N110 1.376 . S
C106 C144 1.389 . S
C107 C106 1.443 . S
C107 C108 1.340 . S
C107 H147 0.951 . S
C108 C107 1.340 . S
C108 C109 1.439 . S
C108 H148 0.950 . S
C109 C108 1.439 . S
C109 N110 1.374 . S
C109 C143 1.395 . S
N110 C106 1.376 . S
N110 C109 1.374 . S
N110 Co111 2.008 . S
Co111 N110 2.008 . S
Co111 N112 1.995 . S
Co111 N117 2.008 . S
Co111 N122 1.995 . S
Co111 N127 2.282 . S
Co111 N133 2.282 . S
N112 Co111 1.995 . S
N112 C113 1.376 . S
N112 C116 1.383 . S
C113 N112 1.376 . S
C113 C114 1.446 . S
C113 C143 1.391 . S
C114 C113 1.446 . S
C114 C115 1.339 . S
C114 H149 0.949 . S
C115 C114 1.339 . S
C115 C116 1.439 . S
C115 H150 0.950 . S
C116 N112 1.383 . S
C116 C115 1.439 . S
C116 C145 1.392 . S
N117 Co111 2.008 . S
N117 C118 1.376 . S
N117 C121 1.374 . S
C118 N117 1.376 . S
C118 C119 1.443 . S
C118 C145 1.389 . S
C119 C118 1.443 . S
C119 C120 1.340 . S
C119 H151 0.951 . S
C120 C119 1.340 . S
C120 C121 1.439 . S
C120 H152 0.950 . S
C121 N117 1.374 . S
C121 C120 1.439 . S
C121 C146 1.395 . S
N122 Co111 1.995 . S
N122 C123 1.376 . S
N122 C126 1.383 . S
C123 N122 1.376 . S
C123 C124 1.446 . S
C123 C146 1.391 . S
C124 C123 1.446 . S
C124 C125 1.339 . S
C124 H153 0.949 . S
C125 C124 1.339 . S
C125 C126 1.439 . S
C125 H154 0.950 . S
C126 N122 1.383 . S
C126 C125 1.439 . S
C126 C144 1.392 . S
N127 Co111 2.282 . S
N127 C130 1.332 . S
N127 C132 1.332 . S
C128 C129 1.386 . S
C128 C131 1.388 . S
C129 C128 1.386 . S
C129 C130 1.382 . S
C129 H155 0.950 . S
C130 N127 1.332 . S
C130 C129 1.382 . S
C130 H141 0.952 . S
C131 C128 1.388 . S
C131 C132 1.382 . S
C131 H156 0.950 . S
C132 N127 1.332 . S
C132 C131 1.382 . S
C132 H142 0.948 . S
N133 Co111 2.282 . S
N133 C137 1.332 . S
N133 C138 1.332 . S
C134 C135 1.388 . S
C134 C138 1.382 . S
C134 H157 0.950 . S
C135 C134 1.388 . S
C135 C136 1.386 . S
C136 C135 1.386 . S
C136 C137 1.382 . S
C136 H158 0.950 . S
C137 N133 1.332 . S
C137 C136 1.382 . S
C137 H139 0.952 . S
C138 N133 1.332 . S
C138 C134 1.382 . S
C138 H140 0.948 . S
H139 C137 0.952 . S
H140 C138 0.948 . S
H141 C130 0.952 . S
H142 C132 0.948 . S
C143 C109 1.395 . S
C143 C113 1.391 . S
C144 C106 1.389 . S
C144 C126 1.392 . S
C145 C116 1.392 . S
C145 C118 1.389 . S
C146 C121 1.395 . S
C146 C123 1.391 . S
H147 C107 0.951 . S
H148 C108 0.950 . S
H149 C114 0.949 . S
H150 C115 0.950 . S
H151 C119 0.951 . S
H152 C120 0.950 . S
H153 C124 0.949 . S
H154 C125 0.950 . S
H155 C129 0.950 . S
H156 C131 0.950 . S
H157 C134 0.950 . S
H158 C136 0.950 . S
C159 C160 1.443 . S
C159 N163 1.376 . S
C159 C197 1.389 . S
C160 C159 1.443 . S
C160 C161 1.340 . S
C160 H200 0.951 . S
C161 C160 1.340 . S
C161 C162 1.439 . S
C161 H201 0.950 . S
C162 C161 1.439 . S
C162 N163 1.374 . S
C162 C196 1.395 . S
N163 C159 1.376 . S
N163 C162 1.374 . S
N163 Co164 2.008 . S
Co164 N163 2.008 . S
Co164 N165 1.995 . S
Co164 N170 2.008 . S
Co164 N175 1.995 . S
Co164 N180 2.282 . S
Co164 N186 2.282 . S
N165 Co164 1.995 . S
N165 C166 1.376 . S
N165 C169 1.383 . S
C166 N165 1.376 . S
C166 C167 1.446 . S
C166 C196 1.391 . S
C167 C166 1.446 . S
C167 C168 1.339 . S
C167 H202 0.949 . S
C168 C167 1.339 . S
C168 C169 1.439 . S
C168 H203 0.950 . S
C169 N165 1.383 . S
C169 C168 1.439 . S
C169 C198 1.392 . S
N170 Co164 2.008 . S
N170 C171 1.376 . S
N170 C174 1.374 . S
C171 N170 1.376 . S
C171 C172 1.443 . S
C171 C198 1.389 . S
C172 C171 1.443 . S
C172 C173 1.340 . S
C172 H204 0.951 . S
C173 C172 1.340 . S
C173 C174 1.439 . S
C173 H205 0.950 . S
C174 N170 1.374 . S
C174 C173 1.439 . S
C174 C199 1.395 . S
N175 Co164 1.995 . S
N175 C176 1.376 . S
N175 C179 1.383 . S
C176 N175 1.376 . S
C176 C177 1.446 . S
C176 C199 1.391 . S
C177 C176 1.446 . S
C177 C178 1.339 . S
C177 H206 0.949 . S
C178 C177 1.339 . S
C178 C179 1.439 . S
C178 H207 0.950 . S
C179 N175 1.383 . S
C179 C178 1.439 . S
C179 C197 1.392 . S
N180 Co164 2.282 . S
N180 C183 1.332 . S
N180 C185 1.332 . S
C181 C182 1.386 . S
C181 C184 1.388 . S
C182 C181 1.386 . S
C182 C183 1.382 . S
C182 H208 0.950 . S
C183 N180 1.332 . S
C183 C182 1.382 . S
C183 H194 0.952 . S
C184 C181 1.388 . S
C184 C185 1.382 . S
C184 H209 0.950 1_455 S
C185 N180 1.332 . S
C185 C184 1.382 . S
C185 H195 0.948 . S
N186 Co164 2.282 . S
N186 C190 1.332 . S
N186 C191 1.332 . S
C187 C188 1.388 . S
C187 C191 1.382 . S
C187 H210 0.950 . S
C188 C187 1.388 . S
C188 C189 1.386 . S
C189 C188 1.386 . S
C189 C190 1.382 . S
C189 H211 0.950 . S
C190 N186 1.332 . S
C190 C189 1.382 . S
C190 H192 0.952 . S
C191 N186 1.332 . S
C191 C187 1.382 . S
C191 H193 0.948 . S
H192 C190 0.952 . S
H193 C191 0.948 . S
H194 C183 0.952 . S
H195 C185 0.948 . S
C196 C162 1.395 . S
C196 C166 1.391 . S
C197 C159 1.389 . S
C197 C179 1.392 . S
C198 C169 1.392 . S
C198 C171 1.389 . S
C199 C174 1.395 . S
C199 C176 1.391 . S
H200 C160 0.951 . S
H201 C161 0.950 . S
H202 C167 0.949 . S
H203 C168 0.950 . S
H204 C172 0.951 . S
H205 C173 0.950 . S
H206 C177 0.949 . S
H207 C178 0.950 . S
H208 C182 0.950 . S
H209 C184 0.950 1_655 S
H210 C187 0.950 . S
H211 C189 0.950 . S
C212 C213 1.443 . S
C212 N216 1.376 . S
C212 C250 1.389 . S
C213 C212 1.443 . S
C213 C214 1.340 . S
C213 H253 0.951 . S
C214 C213 1.340 . S
C214 C215 1.439 . S
C214 H254 0.950 . S
C215 C214 1.439 . S
C215 N216 1.374 . S
C215 C249 1.395 . S
N216 C212 1.376 . S
N216 C215 1.374 . S
N216 Co217 2.008 . S
Co217 N216 2.008 . S
Co217 N218 1.995 . S
Co217 N223 2.008 . S
Co217 N228 1.995 . S
Co217 N233 2.282 . S
Co217 N239 2.282 . S
N218 Co217 1.995 . S
N218 C219 1.376 . S
N218 C222 1.383 . S
C219 N218 1.376 . S
C219 C220 1.446 . S
C219 C249 1.391 . S
C220 C219 1.446 . S
C220 C221 1.339 . S
C220 H255 0.949 . S
C221 C220 1.339 . S
C221 C222 1.439 . S
C221 H256 0.950 . S
C222 N218 1.383 . S
C222 C221 1.439 . S
C222 C251 1.392 . S
N223 Co217 2.008 . S
N223 C224 1.376 . S
N223 C227 1.374 . S
C224 N223 1.376 . S
C224 C225 1.443 . S
C224 C251 1.389 . S
C225 C224 1.443 . S
C225 C226 1.340 . S
C225 H257 0.951 . S
C226 C225 1.340 . S
C226 C227 1.439 . S
C226 H258 0.950 . S
C227 N223 1.374 . S
C227 C226 1.439 . S
C227 C252 1.395 . S
N228 Co217 1.995 . S
N228 C229 1.376 . S
N228 C232 1.383 . S
C229 N228 1.376 . S
C229 C230 1.446 . S
C229 C252 1.391 . S
C230 C229 1.446 . S
C230 C231 1.339 . S
C230 H259 0.949 . S
C231 C230 1.339 . S
C231 C232 1.439 . S
C231 H260 0.950 . S
C232 N228 1.383 . S
C232 C231 1.439 . S
C232 C250 1.392 . S
N233 Co217 2.282 . S
N233 C236 1.332 . S
N233 C238 1.332 . S
C234 C235 1.386 . S
C234 C237 1.388 . S
C235 C234 1.386 . S
C235 C236 1.382 . S
C235 H261 0.950 . S
C236 N233 1.332 . S
C236 C235 1.382 . S
C236 H247 0.952 . S
C237 C234 1.388 . S
C237 C238 1.382 . S
C237 H262 0.950 . S
C238 N233 1.332 . S
C238 C237 1.382 . S
C238 H248 0.948 . S
N239 Co217 2.282 . S
N239 C243 1.332 . S
N239 C244 1.332 . S
C240 C241 1.388 . S
C240 C244 1.382 . S
C240 H263 0.950 . S
C241 C240 1.388 . S
C241 C242 1.386 . S
C242 C241 1.386 . S
C242 C243 1.382 . S
C242 H264 0.950 . S
C243 N239 1.332 . S
C243 C242 1.382 . S
C243 H245 0.952 . S
C244 N239 1.332 . S
C244 C240 1.382 . S
C244 H246 0.948 . S
H245 C243 0.952 . S
H246 C244 0.948 . S
H247 C236 0.952 . S
H248 C238 0.948 . S
C249 C215 1.395 . S
C249 C219 1.391 . S
C250 C212 1.389 . S
C250 C232 1.392 . S
C251 C222 1.392 . S
C251 C224 1.389 . S
C252 C227 1.395 . S
C252 C229 1.391 . S
H253 C213 0.951 . S
H254 C214 0.950 . S
H255 C220 0.949 . S
H256 C221 0.950 . S
H257 C225 0.951 . S
H258 C226 0.950 . S
H259 C230 0.949 . S
H260 C231 0.950 . S
H261 C235 0.950 . S
H262 C237 0.950 . S
H263 C240 0.950 . S
H264 C242 0.950 . S
C265 C266 1.443 . S
C265 N269 1.376 . S
C265 C303 1.389 . S
C266 C265 1.443 . S
C266 C267 1.340 . S
C266 H306 0.951 . S
C267 C266 1.340 . S
C267 C268 1.439 . S
C267 H307 0.950 . S
C268 C267 1.439 . S
C268 N269 1.374 . S
C268 C302 1.395 . S
N269 C265 1.376 . S
N269 C268 1.374 . S
N269 Co270 2.008 . S
Co270 N269 2.008 . S
Co270 N271 1.995 . S
Co270 N276 2.008 . S
Co270 N281 1.995 . S
Co270 N286 2.282 . S
Co270 N292 2.282 . S
N271 Co270 1.995 . S
N271 C272 1.376 . S
N271 C275 1.383 . S
C272 N271 1.376 . S
C272 C273 1.446 . S
C272 C302 1.391 . S
C273 C272 1.446 . S
C273 C274 1.339 . S
C273 H308 0.949 . S
C274 C273 1.339 . S
C274 C275 1.439 . S
C274 H309 0.950 . S
C275 N271 1.383 . S
C275 C274 1.439 . S
C275 C304 1.392 . S
N276 Co270 2.008 . S
N276 C277 1.376 . S
N276 C280 1.374 . S
C277 N276 1.376 . S
C277 C278 1.443 . S
C277 C304 1.389 . S
C278 C277 1.443 . S
C278 C279 1.340 . S
C278 H310 0.951 . S
C279 C278 1.340 . S
C279 C280 1.439 . S
C279 H311 0.950 . S
C280 N276 1.374 . S
C280 C279 1.439 . S
C280 C305 1.395 . S
N281 Co270 1.995 . S
N281 C282 1.376 . S
N281 C285 1.383 . S
C282 N281 1.376 . S
C282 C283 1.446 . S
C282 C305 1.391 . S
C283 C282 1.446 . S
C283 C284 1.339 . S
C283 H312 0.949 . S
C284 C283 1.339 . S
C284 C285 1.439 . S
C284 H313 0.950 . S
C285 N281 1.383 . S
C285 C284 1.439 . S
C285 C303 1.392 . S
N286 Co270 2.282 . S
N286 C289 1.332 . S
N286 C291 1.332 . S
C287 C288 1.386 . S
C287 C290 1.388 . S
C288 C287 1.386 . S
C288 C289 1.382 . S
C288 H314 0.950 . S
C289 N286 1.332 . S
C289 C288 1.382 . S
C289 H300 0.952 . S
C290 C287 1.388 . S
C290 C291 1.382 . S
C290 H315 0.950 1_455 S
C291 N286 1.332 . S
C291 C290 1.382 . S
C291 H301 0.948 . S
N292 Co270 2.282 . S
N292 C296 1.332 . S
N292 C297 1.332 . S
C293 C294 1.388 . S
C293 C297 1.382 . S
C293 H316 0.950 . S
C294 C293 1.388 . S
C294 C295 1.386 . S
C295 C294 1.386 . S
C295 C296 1.382 . S
C295 H317 0.950 . S
C296 N292 1.332 . S
C296 C295 1.382 . S
C296 H298 0.952 . S
C297 N292 1.332 . S
C297 C293 1.382 . S
C297 H299 0.948 . S
H298 C296 0.952 . S
H299 C297 0.948 . S
H300 C289 0.952 . S
H301 C291 0.948 . S
C302 C268 1.395 . S
C302 C272 1.391 . S
C303 C265 1.389 . S
C303 C285 1.392 . S
C304 C275 1.392 . S
C304 C277 1.389 . S
C305 C280 1.395 . S
C305 C282 1.391 . S
H306 C266 0.951 . S
H307 C267 0.950 . S
H308 C273 0.949 . S
H309 C274 0.950 . S
H310 C278 0.951 . S
H311 C279 0.950 . S
H312 C283 0.949 . S
H313 C284 0.950 . S
H314 C288 0.950 . S
H315 C290 0.950 1_655 S
H316 C293 0.950 . S
H317 C295 0.950 . S
C318 C319 1.443 . S
C318 N322 1.376 . S
C318 C356 1.389 . S
C319 C318 1.443 . S
C319 C320 1.340 . S
C319 H359 0.951 . S
C320 C319 1.340 . S
C320 C321 1.439 . S
C320 H360 0.950 . S
C321 C320 1.439 . S
C321 N322 1.374 . S
C321 C355 1.395 . S
N322 C318 1.376 . S
N322 C321 1.374 . S
N322 Co323 2.008 . S
Co323 N322 2.008 . S
Co323 N324 1.995 . S
Co323 N329 2.008 . S
Co323 N334 1.995 . S
Co323 N339 2.282 . S
Co323 N345 2.282 . S
N324 Co323 1.995 . S
N324 C325 1.376 . S
N324 C328 1.383 . S
C325 N324 1.376 . S
C325 C326 1.446 . S
C325 C355 1.391 . S
C326 C325 1.446 . S
C326 C327 1.339 . S
C326 H361 0.949 . S
C327 C326 1.339 . S
C327 C328 1.439 . S
C327 H362 0.950 . S
C328 N324 1.383 . S
C328 C327 1.439 . S
C328 C357 1.392 . S
N329 Co323 2.008 . S
N329 C330 1.376 . S
N329 C333 1.374 . S
C330 N329 1.376 . S
C330 C331 1.443 . S
C330 C357 1.389 . S
C331 C330 1.443 . S
C331 C332 1.340 . S
C331 H363 0.951 . S
C332 C331 1.340 . S
C332 C333 1.439 . S
C332 H364 0.950 . S
C333 N329 1.374 . S
C333 C332 1.439 . S
C333 C358 1.395 . S
N334 Co323 1.995 . S
N334 C335 1.376 . S
N334 C338 1.383 . S
C335 N334 1.376 . S
C335 C336 1.446 . S
C335 C358 1.391 . S
C336 C335 1.446 . S
C336 C337 1.339 . S
C336 H365 0.949 . S
C337 C336 1.339 . S
C337 C338 1.439 . S
C337 H366 0.950 . S
C338 N334 1.383 . S
C338 C337 1.439 . S
C338 C356 1.392 . S
N339 Co323 2.282 . S
N339 C342 1.332 . S
N339 C344 1.332 . S
C340 C341 1.386 . S
C340 C343 1.388 . S
C341 C340 1.386 . S
C341 C342 1.382 . S
C341 H367 0.950 . S
C342 N339 1.332 . S
C342 C341 1.382 . S
C342 H353 0.952 . S
C343 C340 1.388 . S
C343 C344 1.382 . S
C343 H368 0.950 1_545 S
C344 N339 1.332 . S
C344 C343 1.382 . S
C344 H354 0.948 . S
N345 Co323 2.282 . S
N345 C349 1.332 . S
N345 C350 1.332 . S
C346 C347 1.388 . S
C346 C350 1.382 . S
C346 H369 0.950 . S
C347 C346 1.388 . S
C347 C348 1.386 . S
C348 C347 1.386 . S
C348 C349 1.382 . S
C348 H370 0.950 . S
C349 N345 1.332 . S
C349 C348 1.382 . S
C349 H351 0.952 . S
C350 N345 1.332 . S
C350 C346 1.382 . S
C350 H352 0.948 . S
H351 C349 0.952 . S
H352 C350 0.948 . S
H353 C342 0.952 . S
H354 C344 0.948 . S
C355 C321 1.395 . S
C355 C325 1.391 . S
C356 C318 1.389 . S
C356 C338 1.392 . S
C357 C328 1.392 . S
C357 C330 1.389 . S
C358 C333 1.395 . S
C358 C335 1.391 . S
H359 C319 0.951 . S
H360 C320 0.950 . S
H361 C326 0.949 . S
H362 C327 0.950 . S
H363 C331 0.951 . S
H364 C332 0.950 . S
H365 C336 0.949 . S
H366 C337 0.950 . S
H367 C341 0.950 . S
H368 C343 0.950 1_565 S
H369 C346 0.950 . S
H370 C348 0.950 . S
C371 C372 1.443 . S
C371 N375 1.376 . S
C371 C409 1.389 . S
C372 C371 1.443 . S
C372 C373 1.340 . S
C372 H412 0.951 . S
C373 C372 1.340 . S
C373 C374 1.439 . S
C373 H413 0.950 . S
C374 C373 1.439 . S
C374 N375 1.374 . S
C374 C408 1.395 . S
N375 C371 1.376 . S
N375 C374 1.374 . S
N375 Co376 2.008 . S
Co376 N375 2.008 . S
Co376 N377 1.995 . S
Co376 N382 2.008 . S
Co376 N387 1.995 . S
Co376 N392 2.282 . S
Co376 N398 2.282 . S
N377 Co376 1.995 . S
N377 C378 1.376 . S
N377 C381 1.383 . S
C378 N377 1.376 . S
C378 C379 1.446 . S
C378 C408 1.391 . S
C379 C378 1.446 . S
C379 C380 1.339 . S
C379 H414 0.949 . S
C380 C379 1.339 . S
C380 C381 1.439 . S
C380 H415 0.950 . S
C381 N377 1.383 . S
C381 C380 1.439 . S
C381 C410 1.392 . S
N382 Co376 2.008 . S
N382 C383 1.376 . S
N382 C386 1.374 . S
C383 N382 1.376 . S
C383 C384 1.443 . S
C383 C410 1.389 . S
C384 C383 1.443 . S
C384 C385 1.340 . S
C384 H416 0.951 . S
C385 C384 1.340 . S
C385 C386 1.439 . S
C385 H417 0.950 . S
C386 N382 1.374 . S
C386 C385 1.439 . S
C386 C411 1.395 . S
N387 Co376 1.995 . S
N387 C388 1.376 . S
N387 C391 1.383 . S
C388 N387 1.376 . S
C388 C389 1.446 . S
C388 C411 1.391 . S
C389 C388 1.446 . S
C389 C390 1.339 . S
C389 H418 0.949 . S
C390 C389 1.339 . S
C390 C391 1.439 . S
C390 H419 0.950 . S
C391 N387 1.383 . S
C391 C390 1.439 . S
C391 C409 1.392 . S
N392 Co376 2.282 . S
N392 C395 1.332 . S
N392 C397 1.332 . S
C393 C394 1.386 . S
C393 C396 1.388 . S
C394 C393 1.386 . S
C394 C395 1.382 . S
C394 H420 0.950 . S
C395 N392 1.332 . S
C395 C394 1.382 . S
C395 H406 0.952 . S
C396 C393 1.388 . S
C396 C397 1.382 . S
C396 H421 0.950 . S
C397 N392 1.332 . S
C397 C396 1.382 . S
C397 H407 0.948 . S
N398 Co376 2.282 . S
N398 C402 1.332 . S
N398 C403 1.332 . S
C399 C400 1.388 . S
C399 C403 1.382 . S
C399 H422 0.950 . S
C400 C399 1.388 . S
C400 C401 1.386 . S
C401 C400 1.386 . S
C401 C402 1.382 . S
C401 H423 0.950 . S
C402 N398 1.332 . S
C402 C401 1.382 . S
C402 H404 0.952 . S
C403 N398 1.332 . S
C403 C399 1.382 . S
C403 H405 0.948 . S
H404 C402 0.952 . S
H405 C403 0.948 . S
H406 C395 0.952 . S
H407 C397 0.948 . S
C408 C374 1.395 . S
C408 C378 1.391 . S
C409 C371 1.389 . S
C409 C391 1.392 . S
C410 C381 1.392 . S
C410 C383 1.389 . S
C411 C386 1.395 . S
C411 C388 1.391 . S
H412 C372 0.951 . S
H413 C373 0.950 . S
H414 C379 0.949 . S
H415 C380 0.950 . S
H416 C384 0.951 . S
H417 C385 0.950 . S
H418 C389 0.949 . S
H419 C390 0.950 . S
H420 C394 0.950 . S
H421 C396 0.950 . S
H422 C399 0.950 . S
H423 C401 0.950 . S
C424 C425 1.443 . S
C424 N428 1.376 . S
C424 C462 1.389 . S
C425 C424 1.443 . S
C425 C426 1.340 . S
C425 H465 0.951 . S
C426 C425 1.340 . S
C426 C427 1.439 . S
C426 H466 0.950 . S
C427 C426 1.439 . S
C427 N428 1.374 . S
C427 C461 1.395 . S
N428 C424 1.376 . S
N428 C427 1.374 . S
N428 Co429 2.008 . S
Co429 N428 2.008 . S
Co429 N430 1.995 . S
Co429 N435 2.008 . S
Co429 N440 1.995 . S
Co429 N445 2.282 . S
Co429 N451 2.282 . S
N430 Co429 1.995 . S
N430 C431 1.376 . S
N430 C434 1.383 . S
C431 N430 1.376 . S
C431 C432 1.446 . S
C431 C461 1.391 . S
C432 C431 1.446 . S
C432 C433 1.339 . S
C432 H467 0.949 . S
C433 C432 1.339 . S
C433 C434 1.439 . S
C433 H468 0.950 . S
C434 N430 1.383 . S
C434 C433 1.439 . S
C434 C463 1.392 . S
N435 Co429 2.008 . S
N435 C436 1.376 . S
N435 C439 1.374 . S
C436 N435 1.376 . S
C436 C437 1.443 . S
C436 C463 1.389 . S
C437 C436 1.443 . S
C437 C438 1.340 . S
C437 H469 0.951 . S
C438 C437 1.340 . S
C438 C439 1.439 . S
C438 H470 0.950 . S
C439 N435 1.374 . S
C439 C438 1.439 . S
C439 C464 1.395 . S
N440 Co429 1.995 . S
N440 C441 1.376 . S
N440 C444 1.383 . S
C441 N440 1.376 . S
C441 C442 1.446 . S
C441 C464 1.391 . S
C442 C441 1.446 . S
C442 C443 1.339 . S
C442 H471 0.949 . S
C443 C442 1.339 . S
C443 C444 1.439 . S
C443 H472 0.950 . S
C444 N440 1.383 . S
C444 C443 1.439 . S
C444 C462 1.392 . S
N445 Co429 2.282 . S
N445 C448 1.332 . S
N445 C450 1.332 . S
C446 C447 1.386 . S
C446 C449 1.388 . S
C447 C446 1.386 . S
C447 C448 1.382 . S
C447 H473 0.950 1_565 S
C448 N445 1.332 . S
C448 C447 1.382 . S
C448 H459 0.952 . S
C449 C446 1.388 . S
C449 C450 1.382 . S
C449 H474 0.950 . S
C450 N445 1.332 . S
C450 C449 1.382 . S
C450 H460 0.948 . S
N451 Co429 2.282 . S
N451 C455 1.332 . S
N451 C456 1.332 . S
C452 C453 1.388 . S
C452 C456 1.382 . S
C452 H475 0.950 . S
C453 C452 1.388 . S
C453 C454 1.386 . S
C454 C453 1.386 . S
C454 C455 1.382 . S
C454 H476 0.950 . S
C455 N451 1.332 . S
C455 C454 1.382 . S
C455 H457 0.952 . S
C456 N451 1.332 . S
C456 C452 1.382 . S
C456 H458 0.948 . S
H457 C455 0.952 . S
H458 C456 0.948 . S
H459 C448 0.952 . S
H460 C450 0.948 . S
C461 C427 1.395 . S
C461 C431 1.391 . S
C462 C424 1.389 . S
C462 C444 1.392 . S
C463 C434 1.392 . S
C463 C436 1.389 . S
C464 C439 1.395 . S
C464 C441 1.391 . S
H465 C425 0.951 . S
H466 C426 0.950 . S
H467 C432 0.949 . S
H468 C433 0.950 . S
H469 C437 0.951 . S
H470 C438 0.950 . S
H471 C442 0.949 . S
H472 C443 0.950 . S
H473 C447 0.950 1_545 S
H474 C449 0.950 . S
H475 C452 0.950 . S
H476 C454 0.950 . S
C477 C478 1.443 . S
C477 N481 1.376 . S
C477 C515 1.389 . S
C478 C477 1.443 . S
C478 C479 1.340 . S
C478 H518 0.951 . S
C479 C478 1.340 . S
C479 C480 1.439 . S
C479 H519 0.950 . S
C480 C479 1.439 . S
C480 N481 1.374 . S
C480 C514 1.395 . S
N481 C477 1.376 . S
N481 C480 1.374 . S
N481 Co482 2.008 . S
Co482 N481 2.008 . S
Co482 N483 1.995 . S
Co482 N488 2.008 . S
Co482 N493 1.995 . S
Co482 N498 2.282 . S
Co482 N504 2.282 . S
N483 Co482 1.995 . S
N483 C484 1.376 . S
N483 C487 1.383 . S
C484 N483 1.376 . S
C484 C485 1.446 . S
C484 C514 1.391 . S
C485 C484 1.446 . S
C485 C486 1.339 . S
C485 H520 0.949 . S
C486 C485 1.339 . S
C486 C487 1.439 . S
C486 H521 0.950 . S
C487 N483 1.383 . S
C487 C486 1.439 . S
C487 C516 1.392 . S
N488 Co482 2.008 . S
N488 C489 1.376 . S
N488 C492 1.374 . S
C489 N488 1.376 . S
C489 C490 1.443 . S
C489 C516 1.389 . S
C490 C489 1.443 . S
C490 C491 1.340 . S
C490 H522 0.951 . S
C491 C490 1.340 . S
C491 C492 1.439 . S
C491 H523 0.950 . S
C492 N488 1.374 . S
C492 C491 1.439 . S
C492 C517 1.395 . S
N493 Co482 1.995 . S
N493 C494 1.376 . S
N493 C497 1.383 . S
C494 N493 1.376 . S
C494 C495 1.446 . S
C494 C517 1.391 . S
C495 C494 1.446 . S
C495 C496 1.339 . S
C495 H524 0.949 . S
C496 C495 1.339 . S
C496 C497 1.439 . S
C496 H525 0.950 . S
C497 N493 1.383 . S
C497 C496 1.439 . S
C497 C515 1.392 . S
N498 Co482 2.282 . S
N498 C501 1.332 . S
N498 C503 1.332 . S
C499 C500 1.386 . S
C499 C502 1.388 . S
C500 C499 1.386 . S
C500 C501 1.382 . S
C500 H526 0.950 . S
C501 N498 1.332 . S
C501 C500 1.382 . S
C501 H512 0.952 . S
C502 C499 1.388 . S
C502 C503 1.382 . S
C502 H527 0.950 . S
C503 N498 1.332 . S
C503 C502 1.382 . S
C503 H513 0.948 . S
N504 Co482 2.282 . S
N504 C508 1.332 . S
N504 C509 1.332 . S
C505 C506 1.388 . S
C505 C509 1.382 . S
C505 H528 0.950 . S
C506 C505 1.388 . S
C506 C507 1.386 . S
C507 C506 1.386 . S
C507 C508 1.382 . S
C507 H529 0.950 . S
C508 N504 1.332 . S
C508 C507 1.382 . S
C508 H510 0.952 . S
C509 N504 1.332 . S
C509 C505 1.382 . S
C509 H511 0.948 . S
H510 C508 0.952 . S
H511 C509 0.948 . S
H512 C501 0.952 . S
H513 C503 0.948 . S
C514 C480 1.395 . S
C514 C484 1.391 . S
C515 C477 1.389 . S
C515 C497 1.392 . S
C516 C487 1.392 . S
C516 C489 1.389 . S
C517 C492 1.395 . S
C517 C494 1.391 . S
H518 C478 0.951 . S
H519 C479 0.950 . S
H520 C485 0.949 . S
H521 C486 0.950 . S
H522 C490 0.951 . S
H523 C491 0.950 . S
H524 C495 0.949 . S
H525 C496 0.950 . S
H526 C500 0.950 . S
H527 C502 0.950 . S
H528 C505 0.950 . S
H529 C507 0.950 . S
C530 C531 1.443 . S
C530 N534 1.376 . S
C530 C568 1.389 . S
C531 C530 1.443 . S
C531 C532 1.340 . S
C531 H571 0.951 . S
C532 C531 1.340 . S
C532 C533 1.439 . S
C532 H572 0.950 . S
C533 C532 1.439 . S
C533 N534 1.374 . S
C533 C567 1.395 . S
N534 C530 1.376 . S
N534 C533 1.374 . S
N534 Co535 2.008 . S
Co535 N534 2.008 . S
Co535 N536 1.995 . S
Co535 N541 2.008 . S
Co535 N546 1.995 . S
Co535 N551 2.282 . S
Co535 N557 2.282 . S
N536 Co535 1.995 . S
N536 C537 1.376 . S
N536 C540 1.383 . S
C537 N536 1.376 . S
C537 C538 1.446 . S
C537 C567 1.391 . S
C538 C537 1.446 . S
C538 C539 1.339 . S
C538 H573 0.949 . S
C539 C538 1.339 . S
C539 C540 1.439 . S
C539 H574 0.950 . S
C540 N536 1.383 . S
C540 C539 1.439 . S
C540 C569 1.392 . S
N541 Co535 2.008 . S
N541 C542 1.376 . S
N541 C545 1.374 . S
C542 N541 1.376 . S
C542 C543 1.443 . S
C542 C569 1.389 . S
C543 C542 1.443 . S
C543 C544 1.340 . S
C543 H575 0.951 . S
C544 C543 1.340 . S
C544 C545 1.439 . S
C544 H576 0.950 . S
C545 N541 1.374 . S
C545 C544 1.439 . S
C545 C570 1.395 . S
N546 Co535 1.995 . S
N546 C547 1.376 . S
N546 C550 1.383 . S
C547 N546 1.376 . S
C547 C548 1.446 . S
C547 C570 1.391 . S
C548 C547 1.446 . S
C548 C549 1.339 . S
C548 H577 0.949 . S
C549 C548 1.339 . S
C549 C550 1.439 . S
C549 H578 0.950 . S
C550 N546 1.383 . S
C550 C549 1.439 . S
C550 C568 1.392 . S
N551 Co535 2.282 . S
N551 C554 1.332 . S
N551 C556 1.332 . S
C552 C553 1.386 . S
C552 C555 1.388 . S
C553 C552 1.386 . S
C553 C554 1.382 . S
C553 H579 0.950 . S
C554 N551 1.332 . S
C554 C553 1.382 . S
C554 H565 0.952 . S
C555 C552 1.388 . S
C555 C556 1.382 . S
C555 H580 0.950 . S
C556 N551 1.332 . S
C556 C555 1.382 . S
C556 H566 0.948 . S
N557 Co535 2.282 . S
N557 C561 1.332 . S
N557 C562 1.332 . S
C558 C559 1.388 . S
C558 C562 1.382 . S
C558 H581 0.950 . S
C559 C558 1.388 . S
C559 C560 1.386 . S
C560 C559 1.386 . S
C560 C561 1.382 . S
C560 H582 0.950 . S
C561 N557 1.332 . S
C561 C560 1.382 . S
C561 H563 0.952 . S
C562 N557 1.332 . S
C562 C558 1.382 . S
C562 H564 0.948 . S
H563 C561 0.952 . S
H564 C562 0.948 . S
H565 C554 0.952 . S
H566 C556 0.948 . S
C567 C533 1.395 . S
C567 C537 1.391 . S
C568 C530 1.389 . S
C568 C550 1.392 . S
C569 C540 1.392 . S
C569 C542 1.389 . S
C570 C545 1.395 . S
C570 C547 1.391 . S
H571 C531 0.951 . S
H572 C532 0.950 . S
H573 C538 0.949 . S
H574 C539 0.950 . S
H575 C543 0.951 . S
H576 C544 0.950 . S
H577 C548 0.949 . S
H578 C549 0.950 . S
H579 C553 0.950 . S
H580 C555 0.950 . S
H581 C558 0.950 . S
H582 C560 0.950 . S
C583 C584 1.443 . S
C583 N587 1.376 . S
C583 C621 1.389 . S
C584 C583 1.443 . S
C584 C585 1.340 . S
C584 H624 0.951 . S
C585 C584 1.340 . S
C585 C586 1.439 . S
C585 H625 0.950 . S
C586 C585 1.439 . S
C586 N587 1.374 . S
C586 C620 1.395 . S
N587 C583 1.376 . S
N587 C586 1.374 . S
N587 Co588 2.008 . S
Co588 N587 2.008 . S
Co588 N589 1.995 . S
Co588 N594 2.008 . S
Co588 N599 1.995 . S
Co588 N604 2.282 . S
Co588 N610 2.282 . S
N589 Co588 1.995 . S
N589 C590 1.376 . S
N589 C593 1.383 . S
C590 N589 1.376 . S
C590 C591 1.446 . S
C590 C620 1.391 . S
C591 C590 1.446 . S
C591 C592 1.339 . S
C591 H626 0.949 . S
C592 C591 1.339 . S
C592 C593 1.439 . S
C592 H627 0.950 . S
C593 N589 1.383 . S
C593 C592 1.439 . S
C593 C622 1.392 . S
N594 Co588 2.008 . S
N594 C595 1.376 . S
N594 C598 1.374 . S
C595 N594 1.376 . S
C595 C596 1.443 . S
C595 C622 1.389 . S
C596 C595 1.443 . S
C596 C597 1.340 . S
C596 H628 0.951 . S
C597 C596 1.340 . S
C597 C598 1.439 . S
C597 H629 0.950 . S
C598 N594 1.374 . S
C598 C597 1.439 . S
C598 C623 1.395 . S
N599 Co588 1.995 . S
N599 C600 1.376 . S
N599 C603 1.383 . S
C600 N599 1.376 . S
C600 C601 1.446 . S
C600 C623 1.391 . S
C601 C600 1.446 . S
C601 C602 1.339 . S
C601 H630 0.949 . S
C602 C601 1.339 . S
C602 C603 1.439 . S
C602 H631 0.950 . S
C603 N599 1.383 . S
C603 C602 1.439 . S
C603 C621 1.392 . S
N604 Co588 2.282 . S
N604 C607 1.332 . S
N604 C609 1.332 . S
C605 C606 1.386 . S
C605 C608 1.388 . S
C606 C605 1.386 . S
C606 C607 1.382 . S
C606 H632 0.950 1_655 S
C607 N604 1.332 . S
C607 C606 1.382 . S
C607 H618 0.952 . S
C608 C605 1.388 . S
C608 C609 1.382 . S
C608 H633 0.950 . S
C609 N604 1.332 . S
C609 C608 1.382 . S
C609 H619 0.948 . S
N610 Co588 2.282 . S
N610 C614 1.332 . S
N610 C615 1.332 . S
C611 C612 1.388 . S
C611 C615 1.382 . S
C611 H634 0.950 . S
C612 C611 1.388 . S
C612 C613 1.386 . S
C613 C612 1.386 . S
C613 C614 1.382 . S
C613 H635 0.950 . S
C614 N610 1.332 . S
C614 C613 1.382 . S
C614 H616 0.952 . S
C615 N610 1.332 . S
C615 C611 1.382 . S
C615 H617 0.948 . S
H616 C614 0.952 . S
H617 C615 0.948 . S
H618 C607 0.952 . S
H619 C609 0.948 . S
C620 C586 1.395 . S
C620 C590 1.391 . S
C621 C583 1.389 . S
C621 C603 1.392 . S
C622 C593 1.392 . S
C622 C595 1.389 . S
C623 C598 1.395 . S
C623 C600 1.391 . S
H624 C584 0.951 . S
H625 C585 0.950 . S
H626 C591 0.949 . S
H627 C592 0.950 . S
H628 C596 0.951 . S
H629 C597 0.950 . S
H630 C601 0.949 . S
H631 C602 0.950 . S
H632 C606 0.950 1_455 S
H633 C608 0.950 . S
H634 C611 0.950 . S
H635 C613 0.950 . S
C636 C637 1.443 . S
C636 N640 1.376 . S
C636 C674 1.389 . S
C637 C636 1.443 . S
C637 C638 1.340 . S
C637 H677 0.951 . S
C638 C637 1.340 . S
C638 C639 1.439 . S
C638 H678 0.950 . S
C639 C638 1.439 . S
C639 N640 1.374 . S
C639 C673 1.395 . S
N640 C636 1.376 . S
N640 C639 1.374 . S
N640 Co641 2.008 . S
Co641 N640 2.008 . S
Co641 N642 1.995 . S
Co641 N647 2.008 . S
Co641 N652 1.995 . S
Co641 N657 2.282 . S
Co641 N663 2.282 . S
N642 Co641 1.995 . S
N642 C643 1.376 . S
N642 C646 1.383 . S
C643 N642 1.376 . S
C643 C644 1.446 . S
C643 C673 1.391 . S
C644 C643 1.446 . S
C644 C645 1.339 . S
C644 H679 0.949 . S
C645 C644 1.339 . S
C645 C646 1.439 . S
C645 H680 0.950 . S
C646 N642 1.383 . S
C646 C645 1.439 . S
C646 C675 1.392 . S
N647 Co641 2.008 . S
N647 C648 1.376 . S
N647 C651 1.374 . S
C648 N647 1.376 . S
C648 C649 1.443 . S
C648 C675 1.389 . S
C649 C648 1.443 . S
C649 C650 1.340 . S
C649 H681 0.951 . S
C650 C649 1.340 . S
C650 C651 1.439 . S
C650 H682 0.950 . S
C651 N647 1.374 . S
C651 C650 1.439 . S
C651 C676 1.395 . S
N652 Co641 1.995 . S
N652 C653 1.376 . S
N652 C656 1.383 . S
C653 N652 1.376 . S
C653 C654 1.446 . S
C653 C676 1.391 . S
C654 C653 1.446 . S
C654 C655 1.339 . S
C654 H683 0.949 . S
C655 C654 1.339 . S
C655 C656 1.439 . S
C655 H684 0.950 . S
C656 N652 1.383 . S
C656 C655 1.439 . S
C656 C674 1.392 . S
N657 Co641 2.282 . S
N657 C660 1.332 . S
N657 C662 1.332 . S
C658 C659 1.386 . S
C658 C661 1.388 . S
C659 C658 1.386 . S
C659 C660 1.382 . S
C659 H685 0.950 . S
C660 N657 1.332 . S
C660 C659 1.382 . S
C660 H671 0.952 . S
C661 C658 1.388 . S
C661 C662 1.382 . S
C661 H686 0.950 . S
C662 N657 1.332 . S
C662 C661 1.382 . S
C662 H672 0.948 . S
N663 Co641 2.282 . S
N663 C667 1.332 . S
N663 C668 1.332 . S
C664 C665 1.388 . S
C664 C668 1.382 . S
C664 H687 0.950 . S
C665 C664 1.388 . S
C665 C666 1.386 . S
C666 C665 1.386 . S
C666 C667 1.382 . S
C666 H688 0.950 . S
C667 N663 1.332 . S
C667 C666 1.382 . S
C667 H669 0.952 . S
C668 N663 1.332 . S
C668 C664 1.382 . S
C668 H670 0.948 . S
H669 C667 0.952 . S
H670 C668 0.948 . S
H671 C660 0.952 . S
H672 C662 0.948 . S
C673 C639 1.395 . S
C673 C643 1.391 . S
C674 C636 1.389 . S
C674 C656 1.392 . S
C675 C646 1.392 . S
C675 C648 1.389 . S
C676 C651 1.395 . S
C676 C653 1.391 . S
H677 C637 0.951 . S
H678 C638 0.950 . S
H679 C644 0.949 . S
H680 C645 0.950 . S
H681 C649 0.951 . S
H682 C650 0.950 . S
H683 C654 0.949 . S
H684 C655 0.950 . S
H685 C659 0.950 . S
H686 C661 0.950 . S
H687 C664 0.950 . S
H688 C666 0.950 . S
C689 C690 1.443 . S
C689 N693 1.376 . S
C689 C727 1.389 . S
C690 C689 1.443 . S
C690 C691 1.340 . S
C690 H730 0.951 . S
C691 C690 1.340 . S
C691 C692 1.439 . S
C691 H731 0.950 . S
C692 C691 1.439 . S
C692 N693 1.374 . S
C692 C726 1.395 . S
N693 C689 1.376 . S
N693 C692 1.374 . S
N693 Co694 2.008 . S
Co694 N693 2.008 . S
Co694 N695 1.995 . S
Co694 N700 2.008 . S
Co694 N705 1.995 . S
Co694 N710 2.282 . S
Co694 N716 2.282 . S
N695 Co694 1.995 . S
N695 C696 1.376 . S
N695 C699 1.383 . S
C696 N695 1.376 . S
C696 C697 1.446 . S
C696 C726 1.391 . S
C697 C696 1.446 . S
C697 C698 1.339 . S
C697 H732 0.949 . S
C698 C697 1.339 . S
C698 C699 1.439 . S
C698 H733 0.950 . S
C699 N695 1.383 . S
C699 C698 1.439 . S
C699 C728 1.392 . S
N700 Co694 2.008 . S
N700 C701 1.376 . S
N700 C704 1.374 . S
C701 N700 1.376 . S
C701 C702 1.443 . S
C701 C728 1.389 . S
C702 C701 1.443 . S
C702 C703 1.340 . S
C702 H734 0.951 . S
C703 C702 1.340 . S
C703 C704 1.439 . S
C703 H735 0.950 . S
C704 N700 1.374 . S
C704 C703 1.439 . S
C704 C729 1.395 . S
N705 Co694 1.995 . S
N705 C706 1.376 . S
N705 C709 1.383 . S
C706 N705 1.376 . S
C706 C707 1.446 . S
C706 C729 1.391 . S
C707 C706 1.446 . S
C707 C708 1.339 . S
C707 H736 0.949 . S
C708 C707 1.339 . S
C708 C709 1.439 . S
C708 H737 0.950 . S
C709 N705 1.383 . S
C709 C708 1.439 . S
C709 C727 1.392 . S
N710 Co694 2.282 . S
N710 C713 1.332 . S
N710 C715 1.332 . S
C711 C712 1.386 . S
C711 C714 1.388 . S
C712 C711 1.386 . S
C712 C713 1.382 . S
C712 H738 0.950 1_655 S
C713 N710 1.332 . S
C713 C712 1.382 . S
C713 H724 0.952 . S
C714 C711 1.388 . S
C714 C715 1.382 . S
C714 H739 0.950 . S
C715 N710 1.332 . S
C715 C714 1.382 . S
C715 H725 0.948 . S
N716 Co694 2.282 . S
N716 C720 1.332 . S
N716 C721 1.332 . S
C717 C718 1.388 . S
C717 C721 1.382 . S
C717 H740 0.950 . S
C718 C717 1.388 . S
C718 C719 1.386 . S
C719 C718 1.386 . S
C719 C720 1.382 . S
C719 H741 0.950 . S
C720 N716 1.332 . S
C720 C719 1.382 . S
C720 H722 0.952 . S
C721 N716 1.332 . S
C721 C717 1.382 . S
C721 H723 0.948 . S
H722 C720 0.952 . S
H723 C721 0.948 . S
H724 C713 0.952 . S
H725 C715 0.948 . S
C726 C692 1.395 . S
C726 C696 1.391 . S
C727 C689 1.389 . S
C727 C709 1.392 . S
C728 C699 1.392 . S
C728 C701 1.389 . S
C729 C704 1.395 . S
C729 C706 1.391 . S
H730 C690 0.951 . S
H731 C691 0.950 . S
H732 C697 0.949 . S
H733 C698 0.950 . S
H734 C702 0.951 . S
H735 C703 0.950 . S
H736 C707 0.949 . S
H737 C708 0.950 . S
H738 C712 0.950 1_455 S
H739 C714 0.950 . S
H740 C717 0.950 . S
H741 C719 0.950 . S
C742 C743 1.443 . S
C742 N746 1.376 . S
C742 C780 1.389 . S
C743 C742 1.443 . S
C743 C744 1.340 . S
C743 H783 0.951 . S
C744 C743 1.340 . S
C744 C745 1.439 . S
C744 H784 0.950 . S
C745 C744 1.439 . S
C745 N746 1.374 . S
C745 C779 1.395 . S
N746 C742 1.376 . S
N746 C745 1.374 . S
N746 Co747 2.008 . S
Co747 N746 2.008 . S
Co747 N748 1.995 . S
Co747 N753 2.008 . S
Co747 N758 1.995 . S
Co747 N763 2.282 . S
Co747 N769 2.282 . S
N748 Co747 1.995 . S
N748 C749 1.376 . S
N748 C752 1.383 . S
C749 N748 1.376 . S
C749 C750 1.446 . S
C749 C779 1.391 . S
C750 C749 1.446 . S
C750 C751 1.339 . S
C750 H785 0.949 . S
C751 C750 1.339 . S
C751 C752 1.439 . S
C751 H786 0.950 . S
C752 N748 1.383 . S
C752 C751 1.439 . S
C752 C781 1.392 . S
N753 Co747 2.008 . S
N753 C754 1.376 . S
N753 C757 1.374 . S
C754 N753 1.376 . S
C754 C755 1.443 . S
C754 C781 1.389 . S
C755 C754 1.443 . S
C755 C756 1.340 . S
C755 H787 0.951 . S
C756 C755 1.340 . S
C756 C757 1.439 . S
C756 H788 0.950 . S
C757 N753 1.374 . S
C757 C756 1.439 . S
C757 C782 1.395 . S
N758 Co747 1.995 . S
N758 C759 1.376 . S
N758 C762 1.383 . S
C759 N758 1.376 . S
C759 C760 1.446 . S
C759 C782 1.391 . S
C760 C759 1.446 . S
C760 C761 1.339 . S
C760 H789 0.949 . S
C761 C760 1.339 . S
C761 C762 1.439 . S
C761 H790 0.950 . S
C762 N758 1.383 . S
C762 C761 1.439 . S
C762 C780 1.392 . S
N763 Co747 2.282 . S
N763 C766 1.332 . S
N763 C768 1.332 . S
C764 C765 1.386 . S
C764 C767 1.388 . S
C765 C764 1.386 . S
C765 C766 1.382 . S
C765 H791 0.950 1_565 S
C766 N763 1.332 . S
C766 C765 1.382 . S
C766 H777 0.952 . S
C767 C764 1.388 . S
C767 C768 1.382 . S
C767 H792 0.950 . S
C768 N763 1.332 . S
C768 C767 1.382 . S
C768 H778 0.948 . S
N769 Co747 2.282 . S
N769 C773 1.332 . S
N769 C774 1.332 . S
C770 C771 1.388 . S
C770 C774 1.382 . S
C770 H793 0.950 . S
C771 C770 1.388 . S
C771 C772 1.386 . S
C772 C771 1.386 . S
C772 C773 1.382 . S
C772 H794 0.950 . S
C773 N769 1.332 . S
C773 C772 1.382 . S
C773 H775 0.952 . S
C774 N769 1.332 . S
C774 C770 1.382 . S
C774 H776 0.948 . S
H775 C773 0.952 . S
H776 C774 0.948 . S
H777 C766 0.952 . S
H778 C768 0.948 . S
C779 C745 1.395 . S
C779 C749 1.391 . S
C780 C742 1.389 . S
C780 C762 1.392 . S
C781 C752 1.392 . S
C781 C754 1.389 . S
C782 C757 1.395 . S
C782 C759 1.391 . S
H783 C743 0.951 . S
H784 C744 0.950 . S
H785 C750 0.949 . S
H786 C751 0.950 . S
H787 C755 0.951 . S
H788 C756 0.950 . S
H789 C760 0.949 . S
H790 C761 0.950 . S
H791 C765 0.950 1_545 S
H792 C767 0.950 . S
H793 C770 0.950 . S
H794 C772 0.950 . S
C795 C796 1.443 . S
C795 N799 1.376 . S
C795 C833 1.389 . S
C796 C795 1.443 . S
C796 C797 1.340 . S
C796 H836 0.951 . S
C797 C796 1.340 . S
C797 C798 1.439 . S
C797 H837 0.950 . S
C798 C797 1.439 . S
C798 N799 1.374 . S
C798 C832 1.395 . S
N799 C795 1.376 . S
N799 C798 1.374 . S
N799 Co800 2.008 . S
Co800 N799 2.008 . S
Co800 N801 1.995 . S
Co800 N806 2.008 . S
Co800 N811 1.995 . S
Co800 N816 2.282 . S
Co800 N822 2.282 . S
N801 Co800 1.995 . S
N801 C802 1.376 . S
N801 C805 1.383 . S
C802 N801 1.376 . S
C802 C803 1.446 . S
C802 C832 1.391 . S
C803 C802 1.446 . S
C803 C804 1.339 . S
C803 H838 0.949 . S
C804 C803 1.339 . S
C804 C805 1.439 . S
C804 H839 0.950 . S
C805 N801 1.383 . S
C805 C804 1.439 . S
C805 C834 1.392 . S
N806 Co800 2.008 . S
N806 C807 1.376 . S
N806 C810 1.374 . S
C807 N806 1.376 . S
C807 C808 1.443 . S
C807 C834 1.389 . S
C808 C807 1.443 . S
C808 C809 1.340 . S
C808 H840 0.951 . S
C809 C808 1.340 . S
C809 C810 1.439 . S
C809 H841 0.950 . S
C810 N806 1.374 . S
C810 C809 1.439 . S
C810 C835 1.395 . S
N811 Co800 1.995 . S
N811 C812 1.376 . S
N811 C815 1.383 . S
C812 N811 1.376 . S
C812 C813 1.446 . S
C812 C835 1.391 . S
C813 C812 1.446 . S
C813 C814 1.339 . S
C813 H842 0.949 . S
C814 C813 1.339 . S
C814 C815 1.439 . S
C814 H843 0.950 . S
C815 N811 1.383 . S
C815 C814 1.439 . S
C815 C833 1.392 . S
N816 Co800 2.282 . S
N816 C819 1.332 . S
N816 C821 1.332 . S
C817 C818 1.386 . S
C817 C820 1.388 . S
C818 C817 1.386 . S
C818 C819 1.382 . S
C818 H844 0.950 . S
C819 N816 1.332 . S
C819 C818 1.382 . S
C819 H830 0.952 . S
C820 C817 1.388 . S
C820 C821 1.382 . S
C820 H845 0.950 . S
C821 N816 1.332 . S
C821 C820 1.382 . S
C821 H831 0.948 . S
N822 Co800 2.282 . S
N822 C826 1.332 . S
N822 C827 1.332 . S
C823 C824 1.388 . S
C823 C827 1.382 . S
C823 H846 0.950 . S
C824 C823 1.388 . S
C824 C825 1.386 . S
C825 C824 1.386 . S
C825 C826 1.382 . S
C825 H847 0.950 . S
C826 N822 1.332 . S
C826 C825 1.382 . S
C826 H828 0.952 . S
C827 N822 1.332 . S
C827 C823 1.382 . S
C827 H829 0.948 . S
H828 C826 0.952 . S
H829 C827 0.948 . S
H830 C819 0.952 . S
H831 C821 0.948 . S
C832 C798 1.395 . S
C832 C802 1.391 . S
C833 C795 1.389 . S
C833 C815 1.392 . S
C834 C805 1.392 . S
C834 C807 1.389 . S
C835 C810 1.395 . S
C835 C812 1.391 . S
H836 C796 0.951 . S
H837 C797 0.950 . S
H838 C803 0.949 . S
H839 C804 0.950 . S
H840 C808 0.951 . S
H841 C809 0.950 . S
H842 C813 0.949 . S
H843 C814 0.950 . S
H844 C818 0.950 . S
H845 C820 0.950 . S
H846 C823 0.950 . S
H847 C825 0.950 . S
C848 C849 1.387 . S
C848 H852 0.950 . S
C848 C857 1.390 1_556 S
C849 C848 1.387 . S
C849 C851 1.387 . S
H850 C857 0.950 . S
C851 C849 1.387 . S
C851 C853 1.390 1_556 S
C851 H855 0.950 . S
H852 C848 0.950 . S
C853 C851 1.390 1_554 S
C853 C854 1.387 . S
C853 H856 0.950 . S
C854 C853 1.387 . S
C854 C857 1.387 . S
H855 C851 0.950 . S
H856 C853 0.950 . S
C857 C848 1.390 1_554 S
C857 H850 0.950 . S
C857 C854 1.387 . S
C858 C859 1.387 . S
C858 H862 0.950 . S
C858 C867 1.390 . S
C859 C858 1.387 . S
C859 C861 1.387 . S
H860 C867 0.950 . S
C861 C859 1.387 . S
C861 C863 1.390 . S
C861 H865 0.950 . S
H862 C858 0.950 . S
C863 C861 1.390 . S
C863 C864 1.387 . S
C863 H866 0.950 . S
C864 C863 1.387 . S
C864 C867 1.387 . S
H865 C861 0.950 . S
H866 C863 0.950 . S
C867 C858 1.390 . S
C867 H860 0.950 . S
C867 C864 1.387 . S
C868 C869 1.387 . S
C868 H872 0.950 . S
C868 C877 1.390 1_556 S
C869 C868 1.387 . S
C869 C871 1.387 . S
H870 C877 0.950 . S
C871 C869 1.387 . S
C871 C873 1.390 1_556 S
C871 H875 0.950 . S
H872 C868 0.950 . S
C873 C871 1.390 1_554 S
C873 C874 1.387 . S
C873 H876 0.950 . S
C874 C873 1.387 . S
C874 C877 1.387 . S
H875 C871 0.950 . S
H876 C873 0.950 . S
C877 C868 1.390 1_554 S
C877 H870 0.950 . S
C877 C874 1.387 . S
C878 C879 1.387 . S
C878 H882 0.950 . S
C878 C887 1.390 . S
C879 C878 1.387 . S
C879 C881 1.387 . S
H880 C887 0.950 . S
C881 C879 1.387 . S
C881 C883 1.390 . S
C881 H885 0.950 . S
H882 C878 0.950 . S
C883 C881 1.390 . S
C883 C884 1.387 . S
C883 H886 0.950 . S
C884 C883 1.387 . S
C884 C887 1.387 . S
H885 C881 0.950 . S
H886 C883 0.950 . S
C887 C878 1.390 . S
C887 H880 0.950 . S
C887 C884 1.387 . S
C888 C889 1.387 . S
C888 H892 0.950 . S
C888 C897 1.390 1_554 S
C889 C888 1.387 . S
C889 C891 1.387 . S
H890 C897 0.950 . S
C891 C889 1.387 . S
C891 C893 1.390 1_554 S
C891 H895 0.950 . S
H892 C888 0.950 . S
C893 C891 1.390 1_556 S
C893 C894 1.387 . S
C893 H896 0.950 . S
C894 C893 1.387 . S
C894 C897 1.387 . S
H895 C891 0.950 . S
H896 C893 0.950 . S
C897 C888 1.390 1_556 S
C897 H890 0.950 . S
C897 C894 1.387 . S
C898 C899 1.387 . S
C898 H902 0.950 . S
C898 C907 1.390 . S
C899 C898 1.387 . S
C899 C901 1.387 . S
H900 C907 0.950 . S
C901 C899 1.387 . S
C901 C903 1.390 . S
C901 H905 0.950 . S
H902 C898 0.950 . S
C903 C901 1.390 . S
C903 C904 1.387 . S
C903 H906 0.950 . S
C904 C903 1.387 . S
C904 C907 1.387 . S
H905 C901 0.950 . S
H906 C903 0.950 . S
C907 C898 1.390 . S
C907 H900 0.950 . S
C907 C904 1.387 . S
C908 C909 1.387 . S
C908 H912 0.950 . S
C908 C917 1.390 1_556 S
C909 C908 1.387 . S
C909 C911 1.387 . S
H910 C917 0.950 . S
C911 C909 1.387 . S
C911 C913 1.390 1_556 S
C911 H915 0.950 . S
H912 C908 0.950 . S
C913 C911 1.390 1_554 S
C913 C914 1.387 . S
C913 H916 0.950 . S
C914 C913 1.387 . S
C914 C917 1.387 . S
H915 C911 0.950 . S
H916 C913 0.950 . S
C917 C908 1.390 1_554 S
C917 H910 0.950 . S
C917 C914 1.387 . S
C918 C919 1.387 . S
C918 H922 0.950 . S
C918 C927 1.390 . S
C919 C918 1.387 . S
C919 C921 1.387 . S
H920 C927 0.950 . S
C921 C919 1.387 . S
C921 C923 1.390 . S
C921 H925 0.950 . S
H922 C918 0.950 . S
C923 C921 1.390 . S
C923 C924 1.387 . S
C923 H926 0.950 . S
C924 C923 1.387 . S
C924 C927 1.387 . S
H925 C921 0.950 . S
H926 C923 0.950 . S
C927 C918 1.390 . S
C927 H920 0.950 . S
C927 C924 1.387 . S
C928 C929 1.387 . S
C928 H932 0.950 . S
C928 C937 1.390 . S
C929 C928 1.387 . S
C929 C931 1.387 . S
H930 C937 0.950 . S
C931 C929 1.387 . S
C931 C933 1.390 . S
C931 H935 0.950 . S
H932 C928 0.950 . S
C933 C931 1.390 . S
C933 C934 1.387 . S
C933 H936 0.950 . S
C934 C933 1.387 . S
C934 C937 1.387 . S
H935 C931 0.950 . S
H936 C933 0.950 . S
C937 C928 1.390 . S
C937 H930 0.950 . S
C937 C934 1.387 . S
C938 C939 1.387 . S
C938 H942 0.950 . S
C938 C947 1.390 . S
C939 C938 1.387 . S
C939 C941 1.387 . S
H940 C947 0.950 . S
C941 C939 1.387 . S
C941 C943 1.390 . S
C941 H945 0.950 . S
H942 C938 0.950 . S
C943 C941 1.390 . S
C943 C944 1.387 . S
C943 H946 0.950 . S
C944 C943 1.387 . S
C944 C947 1.387 . S
H945 C941 0.950 . S
H946 C943 0.950 . S
C947 C938 1.390 . S
C947 H940 0.950 . S
C947 C944 1.387 . S
C948 C949 1.387 . S
C948 H952 0.950 . S
C948 C957 1.390 . S
C949 C948 1.387 . S
C949 C951 1.387 . S
H950 C957 0.950 . S
C951 C949 1.387 . S
C951 C953 1.390 . S
C951 H955 0.950 . S
H952 C948 0.950 . S
C953 C951 1.390 . S
C953 C954 1.387 . S
C953 H956 0.950 . S
C954 C953 1.387 . S
C954 C957 1.387 . S
H955 C951 0.950 . S
H956 C953 0.950 . S
C957 C948 1.390 . S
C957 H950 0.950 . S
C957 C954 1.387 . S
C958 C959 1.387 . S
C958 H962 0.950 . S
C958 C967 1.390 . S
C959 C958 1.387 . S
C959 C961 1.387 . S
H960 C967 0.950 . S
C961 C959 1.387 . S
C961 C963 1.390 . S
C961 H965 0.950 . S
H962 C958 0.950 . S
C963 C961 1.390 . S
C963 C964 1.387 . S
C963 H966 0.950 . S
C964 C963 1.387 . S
C964 C967 1.387 . S
H965 C961 0.950 . S
H966 C963 0.950 . S
C967 C958 1.390 . S
C967 H960 0.950 . S
C967 C964 1.387 . S
C968 C969 1.387 . S
C968 H972 0.950 . S
C968 C977 1.390 . S
C969 C968 1.387 . S
C969 C971 1.387 . S
H970 C977 0.950 . S
C971 C969 1.387 . S
C971 C973 1.390 . S
C971 H975 0.950 . S
H972 C968 0.950 . S
C973 C971 1.390 . S
C973 C974 1.387 . S
C973 H976 0.950 . S
C974 C973 1.387 . S
C974 C977 1.387 . S
H975 C971 0.950 . S
H976 C973 0.950 . S
C977 C968 1.390 . S
C977 H970 0.950 . S
C977 C974 1.387 . S
C978 C979 1.387 . S
C978 H982 0.950 . S
C978 C987 1.390 . S
C979 C978 1.387 . S
C979 C981 1.387 . S
H980 C987 0.950 . S
C981 C979 1.387 . S
C981 C983 1.390 . S
C981 H985 0.950 . S
H982 C978 0.950 . S
C983 C981 1.390 . S
C983 C984 1.387 . S
C983 H986 0.950 . S
C984 C983 1.387 . S
C984 C987 1.387 . S
H985 C981 0.950 . S
H986 C983 0.950 . S
C987 C978 1.390 . S
C987 H980 0.950 . S
C987 C984 1.387 . S
C988 C989 1.387 . S
C988 H992 0.950 . S
C988 C997 1.390 . S
C989 C988 1.387 . S
C989 C991 1.387 . S
H990 C997 0.950 . S
C991 C989 1.387 . S
C991 C993 1.390 . S
C991 H995 0.950 . S
H992 C988 0.950 . S
C993 C991 1.390 . S
C993 C994 1.387 . S
C993 H996 0.950 . S
C994 C993 1.387 . S
C994 C997 1.387 . S
H995 C991 0.950 . S
H996 C993 0.950 . S
C997 C988 1.390 . S
C997 H990 0.950 . S
C997 C994 1.387 . S
C998 C999 1.387 . S
C998 H1002 0.950 . S
C998 C1007 1.390 . S
C999 C998 1.387 . S
C999 C1001 1.387 . S
H1000 C1007 0.950 . S
C1001 C999 1.387 . S
C1001 C1003 1.390 . S
C1001 H1005 0.950 . S
H1002 C998 0.950 . S
C1003 C1001 1.390 . S
C1003 C1004 1.387 . S
C1003 H1006 0.950 . S
C1004 C1003 1.387 . S
C1004 C1007 1.387 . S
H1005 C1001 0.950 . S
H1006 C1003 0.950 . S
C1007 C998 1.390 . S
C1007 H1000 0.950 . S
C1007 C1004 1.387 . S
C1008 C1009 1.387 . S
C1008 H1012 0.950 . S
C1008 C1017 1.390 . S
C1009 C1008 1.387 . S
C1009 C1011 1.387 . S
H1010 C1017 0.950 . S
C1011 C1009 1.387 . S
C1011 C1013 1.390 . S
C1011 H1015 0.950 . S
H1012 C1008 0.950 . S
C1013 C1011 1.390 . S
C1013 C1014 1.387 . S
C1013 H1016 0.950 . S
C1014 C1013 1.387 . S
C1014 C1017 1.387 . S
H1015 C1011 0.950 . S
H1016 C1013 0.950 . S
C1017 C1008 1.390 . S
C1017 H1010 0.950 . S
C1017 C1014 1.387 . S
C1018 C1019 1.387 . S
C1018 H1022 0.950 . S
C1018 C1027 1.390 . S
C1019 C1018 1.387 . S
C1019 C1021 1.387 . S
H1020 C1027 0.950 . S
C1021 C1019 1.387 . S
C1021 C1023 1.390 . S
C1021 H1025 0.950 . S
H1022 C1018 0.950 . S
C1023 C1021 1.390 . S
C1023 C1024 1.387 . S
C1023 H1026 0.950 . S
C1024 C1023 1.387 . S
C1024 C1027 1.387 . S
H1025 C1021 0.950 . S
H1026 C1023 0.950 . S
C1027 C1018 1.390 . S
C1027 H1020 0.950 . S
C1027 C1024 1.387 . S
C1028 C1029 1.387 . S
C1028 H1032 0.950 . S
C1028 C1037 1.390 . S
C1029 C1028 1.387 . S
C1029 C1031 1.387 . S
H1030 C1037 0.950 . S
C1031 C1029 1.387 . S
C1031 C1033 1.390 . S
C1031 H1035 0.950 . S
H1032 C1028 0.950 . S
C1033 C1031 1.390 . S
C1033 C1034 1.387 . S
C1033 H1036 0.950 . S
C1034 C1033 1.387 . S
C1034 C1037 1.387 . S
H1035 C1031 0.950 . S
H1036 C1033 0.950 . S
C1037 C1028 1.390 . S
C1037 H1030 0.950 . S
C1037 C1034 1.387 . S
C1038 C1039 1.387 . S
C1038 H1042 0.950 . S
C1038 C1047 1.390 . S
C1039 C1038 1.387 . S
C1039 C1041 1.387 . S
H1040 C1047 0.950 . S
C1041 C1039 1.387 . S
C1041 C1043 1.390 . S
C1041 H1045 0.950 . S
H1042 C1038 0.950 . S
C1043 C1041 1.390 . S
C1043 C1044 1.387 . S
C1043 H1046 0.950 . S
C1044 C1043 1.387 . S
C1044 C1047 1.387 . S
H1045 C1041 0.950 . S
H1046 C1043 0.950 . S
C1047 C1038 1.390 . S
C1047 H1040 0.950 . S
C1047 C1044 1.387 . S
C1048 C1049 1.387 . S
C1048 H1052 0.950 . S
C1048 C1057 1.390 . S
C1049 C1048 1.387 . S
C1049 C1051 1.387 . S
H1050 C1057 0.950 . S
C1051 C1049 1.387 . S
C1051 C1053 1.390 . S
C1051 H1055 0.950 . S
H1052 C1048 0.950 . S
C1053 C1051 1.390 . S
C1053 C1054 1.387 . S
C1053 H1056 0.950 . S
C1054 C1053 1.387 . S
C1054 C1057 1.387 . S
H1055 C1051 0.950 . S
H1056 C1053 0.950 . S
C1057 C1048 1.390 . S
C1057 H1050 0.950 . S
C1057 C1054 1.387 . S
C1058 C1059 1.387 . S
C1058 H1062 0.950 . S
C1058 C1067 1.390 . S
C1059 C1058 1.387 . S
C1059 C1061 1.387 . S
H1060 C1067 0.950 . S
C1061 C1059 1.387 . S
C1061 C1063 1.390 . S
C1061 H1065 0.950 . S
H1062 C1058 0.950 . S
C1063 C1061 1.390 . S
C1063 C1064 1.387 . S
C1063 H1066 0.950 . S
C1064 C1063 1.387 . S
C1064 C1067 1.387 . S
H1065 C1061 0.950 . S
H1066 C1063 0.950 . S
C1067 C1058 1.390 . S
C1067 H1060 0.950 . S
C1067 C1064 1.387 . S
C1068 C1069 1.387 . S
C1068 H1072 0.950 . S
C1068 C1077 1.390 . S
C1069 C1068 1.387 . S
C1069 C1071 1.387 . S
H1070 C1077 0.950 . S
C1071 C1069 1.387 . S
C1071 C1073 1.390 . S
C1071 H1075 0.950 . S
H1072 C1068 0.950 . S
C1073 C1071 1.390 . S
C1073 C1074 1.387 . S
C1073 H1076 0.950 . S
C1074 C1073 1.387 . S
C1074 C1077 1.387 . S
H1075 C1071 0.950 . S
H1076 C1073 0.950 . S
C1077 C1068 1.390 . S
C1077 H1070 0.950 . S
C1077 C1074 1.387 . S
C1078 C1079 1.387 . S
C1078 H1082 0.950 . S
C1078 C1087 1.390 . S
C1079 C1078 1.387 . S
C1079 C1081 1.387 . S
H1080 C1087 0.950 . S
C1081 C1079 1.387 . S
C1081 C1083 1.390 . S
C1081 H1085 0.950 . S
H1082 C1078 0.950 . S
C1083 C1081 1.390 . S
C1083 C1084 1.387 . S
C1083 H1086 0.950 . S
C1084 C1083 1.387 . S
C1084 C1087 1.387 . S
H1085 C1081 0.950 . S
H1086 C1083 0.950 . S
C1087 C1078 1.390 . S
C1087 H1080 0.950 . S
C1087 C1084 1.387 . S
C1088 C1089 1.387 . S
C1088 H1092 0.950 . S
C1088 C1097 1.390 . S
C1089 C1088 1.387 . S
C1089 C1091 1.387 . S
H1090 C1097 0.950 . S
C1091 C1089 1.387 . S
C1091 C1093 1.390 . S
C1091 H1095 0.950 . S
H1092 C1088 0.950 . S
C1093 C1091 1.390 . S
C1093 C1094 1.387 . S
C1093 H1096 0.950 . S
C1094 C1093 1.387 . S
C1094 C1097 1.387 . S
H1095 C1091 0.950 . S
H1096 C1093 0.950 . S
C1097 C1088 1.390 . S
C1097 H1090 0.950 . S
C1097 C1094 1.387 . S
C1098 C1099 1.387 . S
C1098 H1102 0.950 . S
C1098 C1107 1.390 . S
C1099 C1098 1.387 . S
C1099 C1101 1.387 . S
H1100 C1107 0.950 . S
C1101 C1099 1.387 . S
C1101 C1103 1.390 . S
C1101 H1105 0.950 . S
H1102 C1098 0.950 . S
C1103 C1101 1.390 . S
C1103 C1104 1.387 . S
C1103 H1106 0.950 . S
C1104 C1103 1.387 . S
C1104 C1107 1.387 . S
H1105 C1101 0.950 . S
H1106 C1103 0.950 . S
C1107 C1098 1.390 . S
C1107 H1100 0.950 . S
C1107 C1104 1.387 . S
C1108 C1109 1.387 . S
C1108 H1112 0.950 . S
C1108 C1117 1.390 . S
C1109 C1108 1.387 . S
C1109 C1111 1.387 . S
H1110 C1117 0.950 . S
C1111 C1109 1.387 . S
C1111 C1113 1.390 . S
C1111 H1115 0.950 . S
H1112 C1108 0.950 . S
C1113 C1111 1.390 . S
C1113 C1114 1.387 . S
C1113 H1116 0.950 . S
C1114 C1113 1.387 . S
C1114 C1117 1.387 . S
H1115 C1111 0.950 . S
H1116 C1113 0.950 . S
C1117 C1108 1.390 . S
C1117 H1110 0.950 . S
C1117 C1114 1.387 . S
C1118 C1119 1.387 . S
C1118 H1122 0.950 . S
C1118 C1127 1.390 . S
C1119 C1118 1.387 . S
C1119 C1121 1.387 . S
H1120 C1127 0.950 . S
C1121 C1119 1.387 . S
C1121 C1123 1.390 . S
C1121 H1125 0.950 . S
H1122 C1118 0.950 . S
C1123 C1121 1.390 . S
C1123 C1124 1.387 . S
C1123 H1126 0.950 . S
C1124 C1123 1.387 . S
C1124 C1127 1.387 . S
H1125 C1121 0.950 . S
H1126 C1123 0.950 . S
C1127 C1118 1.390 . S
C1127 H1120 0.950 . S
C1127 C1124 1.387 . S
C1128 C1129 1.387 . S
C1128 H1132 0.950 . S
C1128 C1137 1.390 . S
C1129 C1128 1.387 . S
C1129 C1131 1.387 . S
H1130 C1137 0.950 . S
C1131 C1129 1.387 . S
C1131 C1133 1.390 . S
C1131 H1135 0.950 . S
H1132 C1128 0.950 . S
C1133 C1131 1.390 . S
C1133 C1134 1.387 . S
C1133 H1136 0.950 . S
C1134 C1133 1.387 . S
C1134 C1137 1.387 . S
H1135 C1131 0.950 . S
H1136 C1133 0.950 . S
C1137 C1128 1.390 . S
C1137 H1130 0.950 . S
C1137 C1134 1.387 . S
C1138 C1139 1.387 . S
C1138 H1142 0.950 . S
C1138 C1147 1.390 . S
C1139 C1138 1.387 . S
C1139 C1141 1.387 . S
H1140 C1147 0.950 . S
C1141 C1139 1.387 . S
C1141 C1143 1.390 . S
C1141 H1145 0.950 . S
H1142 C1138 0.950 . S
C1143 C1141 1.390 . S
C1143 C1144 1.387 . S
C1143 H1146 0.950 . S
C1144 C1143 1.387 . S
C1144 C1147 1.387 . S
H1145 C1141 0.950 . S
H1146 C1143 0.950 . S
C1147 C1138 1.390 . S
C1147 H1140 0.950 . S
C1147 C1144 1.387 . S
C1148 C1149 1.387 . S
C1148 H1152 0.950 . S
C1148 C1157 1.390 . S
C1149 C1148 1.387 . S
C1149 C1151 1.387 . S
H1150 C1157 0.950 . S
C1151 C1149 1.387 . S
C1151 C1153 1.390 . S
C1151 H1155 0.950 . S
H1152 C1148 0.950 . S
C1153 C1151 1.390 . S
C1153 C1154 1.387 . S
C1153 H1156 0.950 . S
C1154 C1153 1.387 . S
C1154 C1157 1.387 . S
H1155 C1151 0.950 . S
H1156 C1153 0.950 . S
C1157 C1148 1.390 . S
C1157 H1150 0.950 . S
C1157 C1154 1.387 . S
C1158 C1159 1.387 . S
C1158 H1162 0.950 . S
C1158 C1167 1.390 . S
C1159 C1158 1.387 . S
C1159 C1161 1.387 . S
H1160 C1167 0.950 . S
C1161 C1159 1.387 . S
C1161 C1163 1.390 . S
C1161 H1165 0.950 . S
H1162 C1158 0.950 . S
C1163 C1161 1.390 . S
C1163 C1164 1.387 . S
C1163 H1166 0.950 . S
C1164 C1163 1.387 . S
C1164 C1167 1.387 . S
H1165 C1161 0.950 . S
H1166 C1163 0.950 . S
C1167 C1158 1.390 . S
C1167 H1160 0.950 . S
C1167 C1164 1.387 . S
C849 C410 1.802 . S
C854 C39 1.803 . S
C859 C251 1.803 . S
C864 C92 1.802 . S
C869 C304 1.803 . S
C874 C145 1.801 . S
C879 C198 1.802 . S
C884 C357 1.803 . S
C889 C834 1.796 . S
C894 C463 1.795 . S
C899 C675 1.796 . S
C904 C516 1.795 . S
C909 C569 1.795 . S
C914 C728 1.796 . S
C919 C622 1.795 . S
C924 C781 1.796 . S
C929 C135 1.512 . S
C934 C29 1.512 . S
C939 C82 1.512 . S
C944 C188 1.512 . S
C949 C241 1.515 . S
C954 C347 1.515 . S
C959 C400 1.512 . S
C964 C294 1.512 . S
C969 C453 1.518 . S
C974 C559 1.518 . S
C979 C506 1.518 . S
C984 C612 1.518 . S
C989 C771 1.518 . S
C994 C665 1.518 . S
C999 C718 1.518 . S
C1004 C824 1.518 . S
C1009 C356 1.850 . S
C1014 C38 1.850 . S
C1019 C91 1.853 . S
C1024 C409 1.853 . S
C1029 C144 1.853 . S
C1034 C250 1.853 . S
C1039 C197 1.853 . S
C1044 C303 1.853 . S
C1049 C462 1.859 . S
C1054 C780 1.859 . S
C1059 C515 1.861 . S
C1064 C833 1.861 . S
C1069 C568 1.861 . S
C1074 C674 1.861 . S
C1079 C621 1.861 . S
C1084 C727 1.861 . S
C1089 C22 1.528 1_565 S
C1094 C817 1.527 . S
C1099 C658 1.527 . S
C1104 C75 1.528 . S
C1109 C128 1.528 . S
C1114 C711 1.527 1_455 S
C1119 C764 1.526 1_545 S
C1124 C181 1.528 1_655 S
C1129 C499 1.527 . S
C1134 C234 1.528 . S
C1139 C287 1.528 1_655 S
C1144 C552 1.527 . S
C1149 C605 1.527 1_455 S
C1154 C340 1.528 1_565 S
C1159 C446 1.526 1_545 S
C1164 C393 1.528 . S
