# Generated by pormake.
# Topology rac, (4)-cn, num edge types: 1
# Building blocks:
#     Node 0, Type 0, BuildingBlock: CEKHIL_clean_sbu_0, # of connection points: 4
#     Node 1, Type 0, BuildingBlock: CEKHIL_clean_sbu_0, # of connection points: 4
#     Node 2, Type 0, BuildingBlock: CEKHIL_clean_sbu_0, # of connection points: 4
#     Node 3, Type 0, BuildingBlock: CEKHIL_clean_sbu_0, # of connection points: 4
#     Node 4, Type 0, BuildingBlock: CEKHIL_clean_sbu_0, # of connection points: 4
#     Node 5, Type 0, BuildingBlock: CEKHIL_clean_sbu_0, # of connection points: 4
#     Node 6, Type 0, BuildingBlock: CEKHIL_clean_sbu_0, # of connection points: 4
#     Node 7, Type 0, BuildingBlock: CEKHIL_clean_sbu_0, # of connection points: 4
#     Edge 8, Type (0, 0), BuildingBlock: XIVTED_clean_linker_0, # of connection points: 2
#     Edge 9, Type (0, 0), BuildingBlock: XIVTED_clean_linker_0, # of connection points: 2
#     Edge 10, Type (0, 0), BuildingBlock: XIVTED_clean_linker_0, # of connection points: 2
#     Edge 11, Type (0, 0), BuildingBlock: XIVTED_clean_linker_0, # of connection points: 2
#     Edge 12, Type (0, 0), BuildingBlock: XIVTED_clean_linker_0, # of connection points: 2
#     Edge 13, Type (0, 0), BuildingBlock: XIVTED_clean_linker_0, # of connection points: 2
#     Edge 14, Type (0, 0), BuildingBlock: XIVTED_clean_linker_0, # of connection points: 2
#     Edge 15, Type (0, 0), BuildingBlock: XIVTED_clean_linker_0, # of connection points: 2
#     Edge 16, Type (0, 0), BuildingBlock: XIVTED_clean_linker_0, # of connection points: 2
#     Edge 17, Type (0, 0), BuildingBlock: XIVTED_clean_linker_0, # of connection points: 2
#     Edge 18, Type (0, 0), BuildingBlock: XIVTED_clean_linker_0, # of connection points: 2
#     Edge 19, Type (0, 0), BuildingBlock: XIVTED_clean_linker_0, # of connection points: 2
#     Edge 20, Type (0, 0), BuildingBlock: XIVTED_clean_linker_0, # of connection points: 2
#     Edge 21, Type (0, 0), BuildingBlock: XIVTED_clean_linker_0, # of connection points: 2
#     Edge 22, Type (0, 0), BuildingBlock: XIVTED_clean_linker_0, # of connection points: 2
#     Edge 23, Type (0, 0), BuildingBlock: XIVTED_clean_linker_0, # of connection points: 2
# Relax obj value: 0.228
# Max RMSD: 0.071
# Mean RMSD: 0.071
data_MOF--net-rac--node1-CEKHIL_clean_sbu_0--edge1-XIVTED_clean_linker_0
_symmetry_space_group_name_H-M    P1
_symmetry_Int_Tables_number       1
_symmetry_cell_setting            triclinic
loop_
_symmetry_equiv_pos_as_xyz
'x, y, z'
_cell_length_a     41.31159
_cell_length_b     21.299703
_cell_length_c     35.789014
_cell_angle_alpha  90.005467
_cell_angle_beta   89.987483
_cell_angle_gamma 90.046678
loop_
_atom_site_label
_atom_site_type_symbol
_atom_site_fract_x
_atom_site_fract_y
_atom_site_fract_z
_atom_type_partial_charge
Co0 Co 0.36871 0.28939 0.04819 0.0
O1 O 0.3924 0.36546 0.05744 0.0
O2 O 0.40444 0.29889 0.01243 0.0
C3 C 0.36752 0.26193 0.10902 0.0
O4 O 0.34761 0.20588 0.03157 0.0
Co5 Co 0.30077 0.27249 0.08462 0.0
O6 O 0.31055 0.18317 0.07551 0.0
C7 C 0.30795 0.34236 0.01313 0.0
C8 C 0.41107 0.35127 0.02979 0.0
C9 C 0.32677 0.16822 0.04668 0.0
O10 O 0.33878 0.33488 0.01351 0.0
O11 O 0.28913 0.32284 0.03915 0.0
O12 O 0.39237 0.24787 0.08846 0.0
O13 O 0.34533 0.29473 0.09289 0.0
Co14 Co 0.13619 0.71543 0.0472 0.0
O15 O 0.11389 0.6378 0.05653 0.0
O16 O 0.10021 0.70408 0.01202 0.0
C17 C 0.13762 0.74199 0.10813 0.0
O18 O 0.1557 0.80035 0.03058 0.0
Co19 Co 0.20409 0.73795 0.08235 0.0
O20 O 0.19086 0.82626 0.0757 0.0
C21 C 0.19754 0.66866 0.01054 0.0
C22 C 0.0946 0.65121 0.02933 0.0
C23 C 0.17511 0.84 0.04636 0.0
O24 O 0.16653 0.67236 0.01188 0.0
O25 O 0.21629 0.69035 0.036 0.0
O26 O 0.11232 0.75482 0.08802 0.0
O27 O 0.16028 0.71115 0.09147 0.0
Co28 Co 0.36919 0.20531 0.4492 0.0
O29 O 0.39202 0.12759 0.44399 0.0
O30 O 0.4055 0.20035 0.48478 0.0
C31 C 0.36812 0.22328 0.38706 0.0
O32 O 0.34888 0.29233 0.46023 0.0
Co33 Co 0.30092 0.21208 0.41245 0.0
O34 O 0.30862 0.30271 0.41801 0.0
C35 C 0.30876 0.15613 0.48768 0.0
C36 C 0.41143 0.14537 0.47011 0.0
C37 C 0.32678 0.32509 0.44345 0.0
O38 O 0.3394 0.16596 0.48678 0.0
O39 O 0.28966 0.16913 0.46058 0.0
O40 O 0.39299 0.23985 0.40687 0.0
O41 O 0.34594 0.19273 0.40483 0.0
Co42 Co 0.13866 0.79409 0.44847 0.0
O43 O 0.11575 0.87169 0.44348 0.0
O44 O 0.10238 0.79878 0.48418 0.0
C45 C 0.13944 0.77668 0.38629 0.0
O46 O 0.15928 0.70719 0.45918 0.0
Co47 Co 0.2067 0.78768 0.41138 0.0
O48 O 0.19806 0.69707 0.41522 0.0
C49 C 0.19919 0.8429 0.48685 0.0
C50 C 0.09637 0.85377 0.46956 0.0
C51 C 0.18075 0.67437 0.44135 0.0
O52 O 0.16852 0.83341 0.48598 0.0
O53 O 0.21822 0.82983 0.45969 0.0
O54 O 0.11475 0.75965 0.40625 0.0
O55 O 0.16168 0.80721 0.40398 0.0
Co56 Co 0.63862 0.70471 0.94991 0.0
O57 O 0.61545 0.6273 0.94461 0.0
O58 O 0.6021 0.70027 0.98527 0.0
C59 C 0.64013 0.72292 0.8878 0.0
O60 O 0.65921 0.79154 0.96093 0.0
Co61 Co 0.70716 0.71017 0.91362 0.0
O62 O 0.69999 0.80092 0.91922 0.0
C63 C 0.69863 0.65492 0.98894 0.0
C64 C 0.59597 0.64538 0.97057 0.0
C65 C 0.68164 0.8238 0.94431 0.0
O66 O 0.66803 0.66505 0.98775 0.0
O67 O 0.71795 0.66751 0.96196 0.0
O68 O 0.6152 0.73956 0.90747 0.0
O69 O 0.66206 0.69187 0.90564 0.0
Co70 Co 0.86818 0.29615 0.94712 0.0
O71 O 0.89086 0.37401 0.94175 0.0
O72 O 0.90463 0.30173 0.98261 0.0
C73 C 0.86707 0.27786 0.88504 0.0
O74 O 0.84786 0.20903 0.95812 0.0
Co75 Co 0.79989 0.28891 0.91052 0.0
O76 O 0.8089 0.19845 0.9144 0.0
C77 C 0.80767 0.34394 0.986 0.0
C78 C 0.91044 0.35664 0.96775 0.0
C79 C 0.8264 0.17595 0.9404 0.0
O80 O 0.83838 0.33519 0.98477 0.0
O81 O 0.78849 0.33053 0.95902 0.0
O82 O 0.89199 0.26168 0.90485 0.0
O83 O 0.84487 0.30843 0.90274 0.0
Co84 Co 0.63839 0.79038 0.54847 0.0
O85 O 0.61546 0.86766 0.55583 0.0
O86 O 0.60193 0.79744 0.51345 0.0
C87 C 0.64043 0.76752 0.60998 0.0
O88 O 0.65847 0.70443 0.53478 0.0
Co89 Co 0.70718 0.78011 0.58387 0.0
O90 O 0.69884 0.69002 0.57639 0.0
C91 C 0.69852 0.84122 0.51016 0.0
C92 C 0.596 0.8514 0.52937 0.0
C93 C 0.68048 0.67002 0.55044 0.0
O94 O 0.66782 0.83222 0.51147 0.0
O95 O 0.71794 0.82583 0.53651 0.0
O96 O 0.61514 0.7528 0.59033 0.0
O97 O 0.66233 0.79944 0.59264 0.0
Co98 Co 0.86863 0.20805 0.54587 0.0
O99 O 0.89122 0.13032 0.55282 0.0
O100 O 0.90498 0.20073 0.51065 0.0
C101 C 0.86702 0.23017 0.60746 0.0
O102 O 0.84877 0.29447 0.53273 0.0
Co103 Co 0.80012 0.21949 0.58179 0.0
O104 O 0.80999 0.30942 0.57615 0.0
C105 C 0.80804 0.15894 0.50777 0.0
C106 C 0.91072 0.14654 0.52641 0.0
C107 C 0.82765 0.32944 0.54956 0.0
O108 O 0.83881 0.16709 0.50893 0.0
O109 O 0.78884 0.17472 0.53427 0.0
O110 O 0.89226 0.24476 0.5877 0.0
O111 O 0.84487 0.19888 0.59013 0.0
H112 H 0.33848 0.04164 0.05106 0.0
H113 H 0.16352 0.96654 0.05079 0.0
H114 H 0.27806 0.17978 -0.00218 0.0
H115 H 0.22389 0.8283 -0.00249 0.0
H116 H 0.20386 0.04758 0.03519 0.0
H117 H 0.29825 0.96045 0.03525 0.0
C118 C 0.31759 0.05423 0.03439 0.0
C119 C 0.31195 0.11707 0.02483 0.0
C120 C 0.20763 0.99984 0.0257 0.0
C121 C 0.26499 0.02593 0.00921 0.0
C122 C 0.18443 0.9539 0.03415 0.0
C123 C 0.19001 0.89107 0.02452 0.0
C124 C 0.23712 0.98205 0.00917 0.0
C125 C 0.21837 0.8766 0.00454 0.0
C126 C 0.29446 0.00821 0.02581 0.0
C127 C 0.28362 0.13148 0.0048 0.0
N128 N 0.24138 0.92127 -0.00141 0.0
N129 N 0.26069 0.08673 -0.00129 0.0
H130 H 0.20376 0.64099 0.51054 0.0
H131 H 0.32695 0.43207 0.40342 0.0
H132 H 0.18703 0.56995 0.39954 0.0
H133 H 0.29923 0.3568 0.51041 0.0
H134 H 0.28639 0.51466 0.41071 0.0
H135 H 0.24504 0.55851 0.51996 0.0
C136 C 0.20746 0.60608 0.48895 0.0
C137 C 0.19168 0.61194 0.45427 0.0
C138 C 0.28993 0.48127 0.43318 0.0
C139 C 0.23999 0.52102 0.464 0.0
C140 C 0.31358 0.43503 0.42943 0.0
C141 C 0.31674 0.38788 0.4565 0.0
C142 C 0.26934 0.48086 0.46435 0.0
C143 C 0.29795 0.39297 0.4892 0.0
C144 C 0.23147 0.55999 0.49409 0.0
C145 C 0.19835 0.56679 0.42677 0.0
N146 N 0.27453 0.43808 0.49204 0.0
N147 N 0.22254 0.52453 0.43182 0.0
H148 H 0.68111 0.92984 0.90348 0.0
H149 H 0.80409 0.1416 0.00976 0.0
H150 H 0.70922 0.85726 0.01094 0.0
H151 H 0.82006 0.07187 0.89832 0.0
H152 H 0.76317 0.05839 0.01941 0.0
H153 H 0.72142 0.01316 0.91002 0.0
C154 C 0.69451 0.93356 0.92942 0.0
C155 C 0.69151 0.88697 0.95687 0.0
C156 C 0.77648 0.06034 0.99337 0.0
C157 C 0.73866 0.98077 0.96387 0.0
C158 C 0.8003 0.10684 0.9881 0.0
C159 C 0.81575 0.11326 0.95325 0.0
C160 C 0.76781 0.02155 0.96325 0.0
C161 C 0.80898 0.06829 0.92568 0.0
C162 C 0.71802 0.9802 0.93275 0.0
C163 C 0.71036 0.893 0.98946 0.0
N164 N 0.78497 0.02563 0.93087 0.0
N165 N 0.73363 0.93851 0.9919 0.0
H166 H 0.68 0.55847 0.58589 0.0
H167 H 0.80252 0.35464 0.48045 0.0
H168 H 0.70843 0.64667 0.48272 0.0
H169 H 0.82429 0.43919 0.58682 0.0
H170 H 0.76068 0.43554 0.47004 0.0
H171 H 0.72115 0.47774 0.57577 0.0
C172 C 0.6936 0.55874 0.56 0.0
C173 C 0.69055 0.60895 0.53495 0.0
C174 C 0.77556 0.43751 0.49492 0.0
C175 C 0.73847 0.51817 0.52394 0.0
C176 C 0.79986 0.39228 0.50058 0.0
C177 C 0.81711 0.39058 0.53447 0.0
C178 C 0.76841 0.48004 0.52369 0.0
C179 C 0.81179 0.43915 0.56021 0.0
C180 C 0.71752 0.51349 0.55464 0.0
C181 C 0.70965 0.60806 0.50235 0.0
N182 N 0.78731 0.48065 0.55482 0.0
N183 N 0.73342 0.56403 0.49806 0.0
H184 H 0.31466 0.26457 0.15462 0.0
H185 H 0.41822 0.25503 0.3413 0.0
H186 H 0.41764 0.23092 0.15513 0.0
H187 H 0.31655 0.20828 0.33995 0.0
H188 H 0.41776 0.2597 0.27305 0.0
H189 H 0.31409 0.25443 0.22278 0.0
C190 C 0.33708 0.25443 0.16909 0.0
C191 C 0.36626 0.24858 0.14935 0.0
C192 C 0.39557 0.24843 0.28772 0.0
C193 C 0.36586 0.23831 0.22705 0.0
C194 C 0.39573 0.24631 0.32663 0.0
C195 C 0.36736 0.23121 0.3462 0.0
C196 C 0.36673 0.23633 0.2683 0.0
C197 C 0.33894 0.21996 0.32584 0.0
C198 C 0.33673 0.2487 0.2079 0.0
C199 C 0.39463 0.23548 0.16935 0.0
N200 N 0.33929 0.223 0.2879 0.0
N201 N 0.3938 0.23151 0.20722 0.0
H202 H 0.08923 0.74366 0.34108 0.0
H203 H 0.19099 0.74195 0.15291 0.0
H204 H 0.19038 0.79434 0.33856 0.0
H205 H 0.08753 0.76942 0.15512 0.0
H206 H 0.19215 0.75122 0.22109 0.0
H207 H 0.08902 0.74006 0.27282 0.0
C208 C 0.11147 0.75348 0.32615 0.0
C209 C 0.13988 0.76936 0.34539 0.0
C210 C 0.16926 0.75578 0.20658 0.0
C211 C 0.13975 0.7655 0.26748 0.0
C212 C 0.16858 0.75055 0.16776 0.0
C213 C 0.13911 0.75489 0.14849 0.0
C214 C 0.14019 0.76418 0.22621 0.0
C215 C 0.11077 0.76604 0.16896 0.0
C216 C 0.11125 0.75196 0.28723 0.0
C217 C 0.16797 0.78201 0.3247 0.0
N218 N 0.11195 0.76958 0.20684 0.0
N219 N 0.16725 0.77958 0.28676 0.0
H220 H 0.59051 0.75632 0.84206 0.0
H221 H 0.69364 0.77416 0.65534 0.0
H222 H 0.69208 0.70913 0.84087 0.0
H223 H 0.59125 0.73396 0.65652 0.0
H224 H 0.6947 0.76277 0.72359 0.0
H225 H 0.59139 0.76359 0.77397 0.0
C226 C 0.61308 0.74803 0.82746 0.0
C227 C 0.64127 0.73201 0.84703 0.0
C228 C 0.67211 0.75602 0.70877 0.0
C229 C 0.6424 0.74025 0.76925 0.0
C230 C 0.67147 0.76252 0.66995 0.0
C231 C 0.64229 0.75511 0.65039 0.0
C232 C 0.64325 0.74335 0.72803 0.0
C233 C 0.61426 0.73994 0.67055 0.0
C234 C 0.61349 0.75169 0.78863 0.0
C235 C 0.66982 0.72145 0.82673 0.0
N236 N 0.61535 0.73526 0.70834 0.0
N237 N 0.66972 0.72601 0.78882 0.0
H238 H 0.81382 0.22448 0.65284 0.0
H239 H 0.91688 0.24434 0.83957 0.0
H240 H 0.91636 0.26325 0.65386 0.0
H241 H 0.81523 0.29085 0.83795 0.0
H242 H 0.91615 0.23617 0.77151 0.0
H243 H 0.81277 0.23661 0.72103 0.0
C244 C 0.83603 0.23594 0.66741 0.0
C245 C 0.86524 0.24276 0.64784 0.0
C246 C 0.89401 0.24813 0.78607 0.0
C247 C 0.8643 0.2554 0.7254 0.0
C248 C 0.89433 0.25231 0.82489 0.0
C249 C 0.86606 0.26837 0.84431 0.0
C250 C 0.8651 0.25912 0.76659 0.0
C251 C 0.83755 0.27851 0.82392 0.0
C252 C 0.8354 0.24287 0.70619 0.0
C253 C 0.89333 0.25773 0.66792 0.0
N254 N 0.83773 0.27345 0.78604 0.0
N255 N 0.89224 0.26287 0.70569 0.0
H256 H 0.458 0.33718 0.97512 0.0
H257 H 0.54766 0.66392 0.0237 0.0
H258 H 0.42621 0.4634 0.06199 0.0
H259 H 0.5811 0.53174 0.94085 0.0
H260 H 0.50231 0.59246 0.03783 0.0
H261 H 0.50276 0.40958 0.96125 0.0
C262 C 0.46037 0.38001 0.99121 0.0
C263 C 0.43829 0.39397 0.01977 0.0
C264 C 0.51967 0.57926 0.01657 0.0
C265 C 0.48946 0.47725 0.00417 0.0
C266 C 0.54555 0.62008 0.00857 0.0
C267 C 0.5683 0.60405 0.98108 0.0
C268 C 0.51653 0.52218 0.99686 0.0
C269 C 0.56426 0.54642 0.9623 0.0
C270 C 0.48595 0.4214 0.98336 0.0
C271 C 0.44262 0.4504 0.03972 0.0
N272 N 0.53902 0.50791 0.97048 0.0
N273 N 0.46759 0.48976 0.03159 0.0
H274 H 0.08051 0.53942 0.06266 0.0
H275 H 0.92497 0.46921 0.93656 0.0
H276 H 0.04735 0.66211 0.97473 0.0
H277 H 0.95858 0.34141 0.0217 0.0
H278 H 0.96934 0.53967 0.95091 0.0
H279 H 0.03642 0.46709 0.04863 0.0
C280 C 0.06397 0.55128 0.04027 0.0
C281 C 0.06776 0.6073 0.01982 0.0
C282 C 0.96716 0.49638 0.96658 0.0
C283 C 0.01682 0.52383 0.00366 0.0
C284 C 0.94167 0.45576 0.95846 0.0
C285 C 0.93783 0.39885 0.97798 0.0
C286 C 0.98936 0.48068 0.99461 0.0
C287 C 0.9605 0.38461 0.00594 0.0
C288 C 0.03873 0.50969 0.03233 0.0
C289 C 0.04546 0.61968 0.99123 0.0
N290 N 0.98529 0.4253 0.01343 0.0
N291 N 0.02097 0.57835 0.98405 0.0
H292 H 0.54761 0.83443 0.47658 0.0
H293 H 0.4602 0.16429 0.52253 0.0
H294 H 0.58196 0.96529 0.5597 0.0
H295 H 0.42515 0.03037 0.44153 0.0
H296 H 0.50528 0.09248 0.53672 0.0
H297 H 0.50267 0.90647 0.46284 0.0
C298 C 0.54577 0.87818 0.49186 0.0
C299 C 0.56864 0.8936 0.51931 0.0
C300 C 0.48763 0.07895 0.51586 0.0
C301 C 0.51729 0.97636 0.50392 0.0
C302 C 0.4619 0.11997 0.50784 0.0
C303 C 0.4388 0.1036 0.48081 0.0
C304 C 0.49026 0.02129 0.49666 0.0
C305 C 0.4423 0.04534 0.46259 0.0
C306 C 0.5201 0.91935 0.48409 0.0
C307 C 0.56496 0.95115 0.53828 0.0
N308 N 0.46741 0.00662 0.47077 0.0
N309 N 0.5399 0.9902 0.53027 0.0
H310 H 0.95995 0.16425 0.47471 0.0
H311 H 0.04666 0.8337 0.52077 0.0
H312 H 0.92389 0.03167 0.55589 0.0
H313 H 0.08327 0.96951 0.44181 0.0
H314 H 1.00119 0.90507 0.53422 0.0
H315 H 0.00514 0.09243 0.46163 0.0
C316 C 0.96145 0.12015 0.48966 0.0
C317 C 0.93806 0.10422 0.51642 0.0
C318 C 0.01928 0.9191 0.51397 0.0
C319 C 0.98971 0.02175 0.50182 0.0
C320 C 0.04524 0.87836 0.5064 0.0
C321 C 0.06887 0.89536 0.48013 0.0
C322 C 0.01696 0.97711 0.49509 0.0
C323 C 0.0657 0.95401 0.46227 0.0
C324 C 0.98727 0.07912 0.4823 0.0
C325 C 0.94132 0.04623 0.53502 0.0
N326 N 0.04037 0.99242 0.47 0.0
N327 N 0.96655 0.00735 0.52743 0.0
H328 H 0.25912 0.67831 0.98377 0.0
H329 H 0.33806 0.42541 0.96565 0.0
H330 H 0.1699 0.57687 0.96732 0.0
H331 H 0.24497 0.34336 0.99033 0.0
H332 H 0.31097 0.50844 0.93065 0.0
H333 H 0.28804 0.59641 0.9512 0.0
C334 C 0.2455 0.63928 0.97234 0.0
C335 C 0.2125 0.63212 0.98025 0.0
C336 C 0.29642 0.47203 0.9434 0.0
C337 C 0.24544 0.53704 0.94331 0.0
C338 C 0.31193 0.42429 0.96319 0.0
C339 C 0.29348 0.38016 0.98305 0.0
C340 C 0.26244 0.47609 0.94476 0.0
C341 C 0.25995 0.37895 0.97735 0.0
C342 C 0.26202 0.59235 0.95322 0.0
C343 C 0.19571 0.58259 0.96328 0.0
N344 N 0.2454 0.42736 0.95956 0.0
N345 N 0.21258 0.5356 0.94669 0.0
H346 H 0.33874 0.06999 0.53258 0.0
H347 H 0.16934 0.92843 0.53233 0.0
H348 H 0.24776 0.16517 0.51624 0.0
H349 H 0.2603 0.8336 0.51505 0.0
H350 H 0.1976 0.00936 0.56806 0.0
H351 H 0.31055 0.98841 0.56787 0.0
C352 C 0.31301 0.07498 0.53763 0.0
C353 C 0.29508 0.12196 0.51969 0.0
C354 C 0.2112 0.96945 0.55779 0.0
C355 C 0.26292 0.02907 0.55931 0.0
C356 C 0.19509 0.92337 0.53724 0.0
C357 C 0.21299 0.87671 0.51893 0.0
C358 C 0.24521 0.96889 0.55908 0.0
C359 C 0.246 0.87106 0.52711 0.0
C360 C 0.29694 0.02853 0.55793 0.0
C361 C 0.26209 0.1275 0.52802 0.0
N362 N 0.26129 0.91776 0.5458 0.0
N363 N 0.24682 0.08047 0.54644 0.0
H364 H 0.66831 0.56833 0.0333 0.0
H365 H 0.83755 0.42859 0.03213 0.0
H366 H 0.75924 0.66465 0.01846 0.0
H367 H 0.74664 0.33355 0.01439 0.0
H368 H 0.80934 0.50814 0.06894 0.0
H369 H 0.69634 0.48654 0.0685 0.0
C370 C 0.69398 0.57352 0.03868 0.0
C371 C 0.712 0.62086 0.02112 0.0
C372 C 0.79575 0.46846 0.0583 0.0
C373 C 0.74398 0.5277 0.06057 0.0
C374 C 0.81182 0.4232 0.03711 0.0
C375 C 0.79391 0.37699 0.01838 0.0
C376 C 0.76173 0.46763 0.05976 0.0
C377 C 0.76094 0.37079 0.02672 0.0
C378 C 0.70997 0.52695 0.05893 0.0
C379 C 0.74488 0.62667 0.0299 0.0
N380 N 0.74567 0.41676 0.04602 0.0
N381 N 0.76009 0.5795 0.04821 0.0
H382 H 0.66828 0.92886 0.46647 0.0
H383 H 0.83767 0.07082 0.46383 0.0
H384 H 0.75937 0.83322 0.48108 0.0
H385 H 0.74694 0.16734 0.4794 0.0
H386 H 0.80921 0.98841 0.42959 0.0
H387 H 0.69612 0.01058 0.43093 0.0
C388 C 0.69396 0.9239 0.46107 0.0
C389 C 0.71204 0.8766 0.47853 0.0
C390 C 0.7957 0.0289 0.43919 0.0
C391 C 0.74382 0.96965 0.43858 0.0
C392 C 0.81193 0.07585 0.45887 0.0
C393 C 0.79416 0.1236 0.47633 0.0
C394 C 0.76168 0.02966 0.43795 0.0
C395 C 0.76115 0.12913 0.46806 0.0
C396 C 0.70983 0.97042 0.44063 0.0
C397 C 0.74494 0.8711 0.46971 0.0
N398 N 0.74572 0.0816 0.45029 0.0
N399 N 0.76003 0.91818 0.45115 0.0
loop_
_geom_bond_atom_site_label_1
_geom_bond_atom_site_label_2
_geom_bond_distance
_geom_bond_site_symmetry_2
_ccdc_geom_bond_type
Co0 O1 2.216 . S
Co0 O2 2.091 1_554 S
Co0 O4 2.004 . S
Co0 O10 2.021 . S
Co0 O12 2.137 . S
Co0 O13 2.244 . S
O1 Co0 2.216 . S
O1 C8 1.247 . S
O2 Co0 2.091 1_556 S
O2 C8 1.261 1_556 S
C3 O12 1.247 . S
C3 O13 1.272 . S
O4 Co0 2.004 . S
O4 C9 1.259 . S
Co5 O6 2.061 . S
Co5 O11 2.052 . S
Co5 O13 2.135 . S
O6 Co5 2.061 . S
O6 C9 1.235 . S
C7 O10 1.238 . S
C7 O11 1.241 . S
C8 O1 1.247 . S
C8 O2 1.261 1_554 S
C9 O4 1.259 . S
C9 O6 1.235 . S
O10 Co0 2.021 . S
O10 C7 1.238 . S
O11 Co5 2.052 . S
O11 C7 1.241 . S
O12 Co0 2.137 . S
O12 C3 1.247 . S
O13 Co0 2.244 . S
O13 C3 1.272 . S
O13 Co5 2.135 . S
Co14 O15 2.216 . S
Co14 O16 2.091 1_554 S
Co14 O18 2.004 . S
Co14 O24 2.021 . S
Co14 O26 2.137 . S
Co14 O27 2.244 . S
O15 Co14 2.216 . S
O15 C22 1.247 . S
O16 Co14 2.091 1_556 S
O16 C22 1.262 1_556 S
C17 O26 1.247 . S
C17 O27 1.272 . S
O18 Co14 2.004 . S
O18 C23 1.259 . S
Co19 O20 2.061 . S
Co19 O25 2.052 . S
Co19 O27 2.135 . S
O20 Co19 2.061 . S
O20 C23 1.235 . S
C21 O24 1.238 . S
C21 O25 1.241 . S
C22 O15 1.247 . S
C22 O16 1.262 1_554 S
C23 O18 1.259 . S
C23 O20 1.235 . S
O24 Co14 2.021 . S
O24 C21 1.238 . S
O25 Co19 2.052 . S
O25 C21 1.241 . S
O26 Co14 2.137 . S
O26 C17 1.247 . S
O27 Co14 2.244 . S
O27 C17 1.272 . S
O27 Co19 2.135 . S
Co28 O29 2.216 . S
Co28 O30 2.091 . S
Co28 O32 2.004 . S
Co28 O38 2.021 . S
Co28 O40 2.137 . S
Co28 O41 2.244 . S
O29 Co28 2.216 . S
O29 C36 1.247 . S
O30 Co28 2.091 . S
O30 C36 1.261 . S
C31 O40 1.247 . S
C31 O41 1.272 . S
O32 Co28 2.004 . S
O32 C37 1.259 . S
Co33 O34 2.061 . S
Co33 O39 2.052 . S
Co33 O41 2.135 . S
O34 Co33 2.061 . S
O34 C37 1.235 . S
C35 O38 1.238 . S
C35 O39 1.241 . S
C36 O29 1.247 . S
C36 O30 1.261 . S
C37 O32 1.259 . S
C37 O34 1.235 . S
O38 Co28 2.021 . S
O38 C35 1.238 . S
O39 Co33 2.052 . S
O39 C35 1.241 . S
O40 Co28 2.137 . S
O40 C31 1.247 . S
O41 Co28 2.244 . S
O41 C31 1.272 . S
O41 Co33 2.135 . S
Co42 O43 2.216 . S
Co42 O44 2.091 . S
Co42 O46 2.004 . S
Co42 O52 2.021 . S
Co42 O54 2.137 . S
Co42 O55 2.244 . S
O43 Co42 2.216 . S
O43 C50 1.247 . S
O44 Co42 2.091 . S
O44 C50 1.261 . S
C45 O54 1.247 . S
C45 O55 1.272 . S
O46 Co42 2.004 . S
O46 C51 1.259 . S
Co47 O48 2.061 . S
Co47 O53 2.052 . S
Co47 O55 2.135 . S
O48 Co47 2.061 . S
O48 C51 1.235 . S
C49 O52 1.238 . S
C49 O53 1.241 . S
C50 O43 1.247 . S
C50 O44 1.261 . S
C51 O46 1.259 . S
C51 O48 1.235 . S
O52 Co42 2.021 . S
O52 C49 1.238 . S
O53 Co47 2.052 . S
O53 C49 1.241 . S
O54 Co42 2.137 . S
O54 C45 1.247 . S
O55 Co42 2.244 . S
O55 C45 1.272 . S
O55 Co47 2.135 . S
Co56 O57 2.216 . S
Co56 O58 2.091 1_556 S
Co56 O60 2.004 . S
Co56 O66 2.021 . S
Co56 O68 2.137 . S
Co56 O69 2.244 . S
O57 Co56 2.216 . S
O57 C64 1.247 . S
O58 Co56 2.091 1_554 S
O58 C64 1.261 1_554 S
C59 O68 1.247 . S
C59 O69 1.272 . S
O60 Co56 2.004 . S
O60 C65 1.259 . S
Co61 O62 2.061 . S
Co61 O67 2.052 . S
Co61 O69 2.135 . S
O62 Co61 2.061 . S
O62 C65 1.235 . S
C63 O66 1.238 . S
C63 O67 1.241 . S
C64 O57 1.247 . S
C64 O58 1.261 1_556 S
C65 O60 1.259 . S
C65 O62 1.235 . S
O66 Co56 2.021 . S
O66 C63 1.238 . S
O67 Co61 2.052 . S
O67 C63 1.241 . S
O68 Co56 2.137 . S
O68 C59 1.247 . S
O69 Co56 2.244 . S
O69 C59 1.272 . S
O69 Co61 2.135 . S
Co70 O71 2.216 . S
Co70 O72 2.091 1_556 S
Co70 O74 2.004 . S
Co70 O80 2.021 . S
Co70 O82 2.137 . S
Co70 O83 2.244 . S
O71 Co70 2.216 . S
O71 C78 1.247 . S
O72 Co70 2.091 1_554 S
O72 C78 1.262 1_554 S
C73 O82 1.247 . S
C73 O83 1.272 . S
O74 Co70 2.004 . S
O74 C79 1.259 . S
Co75 O76 2.061 . S
Co75 O81 2.052 . S
Co75 O83 2.135 . S
O76 Co75 2.061 . S
O76 C79 1.235 . S
C77 O80 1.238 . S
C77 O81 1.241 . S
C78 O71 1.247 . S
C78 O72 1.262 1_556 S
C79 O74 1.259 . S
C79 O76 1.235 . S
O80 Co70 2.021 . S
O80 C77 1.238 . S
O81 Co75 2.052 . S
O81 C77 1.241 . S
O82 Co70 2.137 . S
O82 C73 1.247 . S
O83 Co70 2.244 . S
O83 C73 1.272 . S
O83 Co75 2.135 . S
Co84 O85 2.216 . S
Co84 O86 2.091 . S
Co84 O88 2.004 . S
Co84 O94 2.021 . S
Co84 O96 2.137 . S
Co84 O97 2.244 . S
O85 Co84 2.216 . S
O85 C92 1.247 . S
O86 Co84 2.091 . S
O86 C92 1.261 . S
C87 O96 1.247 . S
C87 O97 1.272 . S
O88 Co84 2.004 . S
O88 C93 1.259 . S
Co89 O90 2.061 . S
Co89 O95 2.052 . S
Co89 O97 2.135 . S
O90 Co89 2.061 . S
O90 C93 1.235 . S
C91 O94 1.238 . S
C91 O95 1.241 . S
C92 O85 1.247 . S
C92 O86 1.261 . S
C93 O88 1.259 . S
C93 O90 1.235 . S
O94 Co84 2.021 . S
O94 C91 1.238 . S
O95 Co89 2.052 . S
O95 C91 1.241 . S
O96 Co84 2.137 . S
O96 C87 1.247 . S
O97 Co84 2.244 . S
O97 C87 1.272 . S
O97 Co89 2.135 . S
Co98 O99 2.216 . S
Co98 O100 2.091 . S
Co98 O102 2.004 . S
Co98 O108 2.021 . S
Co98 O110 2.137 . S
Co98 O111 2.244 . S
O99 Co98 2.216 . S
O99 C106 1.247 . S
O100 Co98 2.091 . S
O100 C106 1.261 . S
C101 O110 1.247 . S
C101 O111 1.272 . S
O102 Co98 2.004 . S
O102 C107 1.259 . S
Co103 O104 2.061 . S
Co103 O109 2.052 . S
Co103 O111 2.135 . S
O104 Co103 2.061 . S
O104 C107 1.235 . S
C105 O108 1.238 . S
C105 O109 1.241 . S
C106 O99 1.247 . S
C106 O100 1.261 . S
C107 O102 1.259 . S
C107 O104 1.235 . S
O108 Co98 2.021 . S
O108 C105 1.238 . S
O109 Co103 2.052 . S
O109 C105 1.241 . S
O110 Co98 2.137 . S
O110 C101 1.247 . S
O111 Co98 2.244 . S
O111 C101 1.272 . S
O111 Co103 2.135 . S
H112 C118 0.930 . S
H113 C122 0.930 . S
H114 C127 0.929 . S
H115 C125 0.929 . S
H116 C120 0.929 1_545 S
H117 C126 0.929 1_565 S
C118 H112 0.930 . S
C118 C119 1.367 . S
C118 C126 1.378 . S
C119 C118 1.367 . S
C119 C127 1.433 . S
C120 H116 0.929 1_565 S
C120 C122 1.378 . S
C120 C124 1.350 . S
C121 C124 1.463 1_545 S
C121 C126 1.350 . S
C121 N129 1.427 . S
C122 H113 0.930 . S
C122 C120 1.378 . S
C122 C123 1.367 . S
C123 C122 1.367 . S
C123 C125 1.433 . S
C124 C120 1.350 . S
C124 C121 1.463 1_565 S
C124 N128 1.427 . S
C125 H115 0.929 . S
C125 C123 1.433 . S
C125 N128 1.384 . S
C126 H117 0.929 1_545 S
C126 C118 1.378 . S
C126 C121 1.350 . S
C127 H114 0.929 . S
C127 C119 1.433 . S
C127 N129 1.384 . S
N128 C124 1.427 . S
N128 C125 1.384 . S
N129 C121 1.427 . S
N129 C127 1.384 . S
H130 C136 0.930 . S
H131 C140 0.930 . S
H132 C145 0.929 . S
H133 C143 0.929 . S
H134 C138 0.929 . S
H135 C144 0.929 . S
C136 H130 0.930 . S
C136 C137 1.367 . S
C136 C144 1.378 . S
C137 C136 1.367 . S
C137 C145 1.433 . S
C138 H134 0.929 . S
C138 C140 1.378 . S
C138 C142 1.350 . S
C139 C142 1.463 . S
C139 C144 1.350 . S
C139 N147 1.427 . S
C140 H131 0.930 . S
C140 C138 1.378 . S
C140 C141 1.367 . S
C141 C140 1.367 . S
C141 C143 1.433 . S
C142 C138 1.350 . S
C142 C139 1.463 . S
C142 N146 1.427 . S
C143 H133 0.929 . S
C143 C141 1.433 . S
C143 N146 1.384 . S
C144 H135 0.929 . S
C144 C136 1.378 . S
C144 C139 1.350 . S
C145 H132 0.929 . S
C145 C137 1.433 . S
C145 N147 1.384 . S
N146 C142 1.427 . S
N146 C143 1.384 . S
N147 C139 1.427 . S
N147 C145 1.384 . S
H148 C154 0.930 . S
H149 C158 0.930 . S
H150 C163 0.929 . S
H151 C161 0.929 . S
H152 C156 0.929 1_565 S
H153 C162 0.929 1_545 S
C154 H148 0.930 . S
C154 C155 1.367 . S
C154 C162 1.378 . S
C155 C154 1.367 . S
C155 C163 1.433 1_556 S
C156 H152 0.929 1_545 S
C156 C158 1.378 . S
C156 C160 1.350 1_554 S
C157 C160 1.463 1_565 S
C157 C162 1.350 . S
C157 N165 1.427 1_556 S
C158 H149 0.930 . S
C158 C156 1.378 . S
C158 C159 1.367 1_554 S
C159 C158 1.367 1_556 S
C159 C161 1.433 . S
C160 C156 1.350 1_556 S
C160 C157 1.463 1_545 S
C160 N164 1.427 . S
C161 H151 0.929 . S
C161 C159 1.433 . S
C161 N164 1.384 . S
C162 H153 0.929 1_565 S
C162 C154 1.378 . S
C162 C157 1.350 . S
C163 H150 0.929 . S
C163 C155 1.433 1_554 S
C163 N165 1.384 . S
N164 C160 1.427 . S
N164 C161 1.384 . S
N165 C157 1.427 1_554 S
N165 C163 1.384 . S
H166 C172 0.930 . S
H167 C176 0.930 . S
H168 C181 0.929 . S
H169 C179 0.929 . S
H170 C174 0.929 . S
H171 C180 0.929 . S
C172 H166 0.930 . S
C172 C173 1.367 . S
C172 C180 1.378 . S
C173 C172 1.367 . S
C173 C181 1.433 . S
C174 H170 0.929 . S
C174 C176 1.378 . S
C174 C178 1.350 . S
C175 C178 1.463 . S
C175 C180 1.350 . S
C175 N183 1.427 . S
C176 H167 0.930 . S
C176 C174 1.378 . S
C176 C177 1.367 . S
C177 C176 1.367 . S
C177 C179 1.433 . S
C178 C174 1.350 . S
C178 C175 1.463 . S
C178 N182 1.427 . S
C179 H169 0.929 . S
C179 C177 1.433 . S
C179 N182 1.384 . S
C180 H171 0.929 . S
C180 C172 1.378 . S
C180 C175 1.350 . S
C181 H168 0.929 . S
C181 C173 1.433 . S
C181 N183 1.384 . S
N182 C178 1.427 . S
N182 C179 1.384 . S
N183 C175 1.427 . S
N183 C181 1.384 . S
H184 C190 0.930 . S
H185 C194 0.930 . S
H186 C199 0.929 . S
H187 C197 0.929 . S
H188 C192 0.929 . S
H189 C198 0.929 . S
C190 H184 0.930 . S
C190 C191 1.367 . S
C190 C198 1.378 . S
C191 C190 1.367 . S
C191 C199 1.433 . S
C192 H188 0.929 . S
C192 C194 1.378 . S
C192 C196 1.350 . S
C193 C196 1.463 . S
C193 C198 1.350 . S
C193 N201 1.427 . S
C194 H185 0.930 . S
C194 C192 1.378 . S
C194 C195 1.367 . S
C195 C194 1.367 . S
C195 C197 1.433 . S
C196 C192 1.350 . S
C196 C193 1.463 . S
C196 N200 1.427 . S
C197 H187 0.929 . S
C197 C195 1.433 . S
C197 N200 1.384 . S
C198 H189 0.929 . S
C198 C190 1.378 . S
C198 C193 1.350 . S
C199 H186 0.929 . S
C199 C191 1.433 . S
C199 N201 1.384 . S
N200 C196 1.427 . S
N200 C197 1.384 . S
N201 C193 1.427 . S
N201 C199 1.384 . S
H202 C208 0.930 . S
H203 C212 0.930 . S
H204 C217 0.929 . S
H205 C215 0.929 . S
H206 C210 0.929 . S
H207 C216 0.929 . S
C208 H202 0.930 . S
C208 C209 1.367 . S
C208 C216 1.378 . S
C209 C208 1.367 . S
C209 C217 1.433 . S
C210 H206 0.929 . S
C210 C212 1.378 . S
C210 C214 1.350 . S
C211 C214 1.463 . S
C211 C216 1.350 . S
C211 N219 1.427 . S
C212 H203 0.930 . S
C212 C210 1.378 . S
C212 C213 1.367 . S
C213 C212 1.367 . S
C213 C215 1.433 . S
C214 C210 1.350 . S
C214 C211 1.463 . S
C214 N218 1.427 . S
C215 H205 0.929 . S
C215 C213 1.433 . S
C215 N218 1.384 . S
C216 H207 0.929 . S
C216 C208 1.378 . S
C216 C211 1.350 . S
C217 H204 0.929 . S
C217 C209 1.433 . S
C217 N219 1.384 . S
N218 C214 1.427 . S
N218 C215 1.384 . S
N219 C211 1.427 . S
N219 C217 1.384 . S
H220 C226 0.930 . S
H221 C230 0.930 . S
H222 C235 0.929 . S
H223 C233 0.929 . S
H224 C228 0.929 . S
H225 C234 0.929 . S
C226 H220 0.930 . S
C226 C227 1.367 . S
C226 C234 1.378 . S
C227 C226 1.367 . S
C227 C235 1.433 . S
C228 H224 0.929 . S
C228 C230 1.378 . S
C228 C232 1.350 . S
C229 C232 1.463 . S
C229 C234 1.350 . S
C229 N237 1.427 . S
C230 H221 0.930 . S
C230 C228 1.378 . S
C230 C231 1.367 . S
C231 C230 1.367 . S
C231 C233 1.433 . S
C232 C228 1.350 . S
C232 C229 1.463 . S
C232 N236 1.427 . S
C233 H223 0.929 . S
C233 C231 1.433 . S
C233 N236 1.384 . S
C234 H225 0.929 . S
C234 C226 1.378 . S
C234 C229 1.350 . S
C235 H222 0.929 . S
C235 C227 1.433 . S
C235 N237 1.384 . S
N236 C232 1.427 . S
N236 C233 1.384 . S
N237 C229 1.427 . S
N237 C235 1.384 . S
H238 C244 0.930 . S
H239 C248 0.930 . S
H240 C253 0.929 . S
H241 C251 0.929 . S
H242 C246 0.929 . S
H243 C252 0.929 . S
C244 H238 0.930 . S
C244 C245 1.367 . S
C244 C252 1.378 . S
C245 C244 1.367 . S
C245 C253 1.433 . S
C246 H242 0.929 . S
C246 C248 1.378 . S
C246 C250 1.350 . S
C247 C250 1.463 . S
C247 C252 1.350 . S
C247 N255 1.427 . S
C248 H239 0.930 . S
C248 C246 1.378 . S
C248 C249 1.367 . S
C249 C248 1.367 . S
C249 C251 1.433 . S
C250 C246 1.350 . S
C250 C247 1.463 . S
C250 N254 1.427 . S
C251 H241 0.929 . S
C251 C249 1.433 . S
C251 N254 1.384 . S
C252 H243 0.929 . S
C252 C244 1.378 . S
C252 C247 1.350 . S
C253 H240 0.929 . S
C253 C245 1.433 . S
C253 N255 1.384 . S
N254 C250 1.427 . S
N254 C251 1.384 . S
N255 C247 1.427 . S
N255 C253 1.384 . S
H256 C262 0.930 . S
H257 C266 0.930 . S
H258 C271 0.929 . S
H259 C269 0.929 . S
H260 C264 0.929 . S
H261 C270 0.929 . S
C262 H256 0.930 . S
C262 C263 1.367 1_556 S
C262 C270 1.378 . S
C263 C262 1.367 1_554 S
C263 C271 1.433 . S
C264 H260 0.929 . S
C264 C266 1.378 . S
C264 C268 1.340 1_554 S
C265 C268 1.462 1_554 S
C265 C270 1.340 1_554 S
C265 N273 1.439 . S
C266 H257 0.930 . S
C266 C264 1.378 . S
C266 C267 1.367 1_554 S
C267 C266 1.367 1_556 S
C267 C269 1.433 . S
C268 C264 1.340 1_556 S
C268 C265 1.462 1_556 S
C268 N272 1.439 . S
C269 H259 0.929 . S
C269 C267 1.433 . S
C269 N272 1.384 . S
C270 H261 0.929 . S
C270 C262 1.378 . S
C270 C265 1.340 1_556 S
C271 H258 0.929 . S
C271 C263 1.433 . S
C271 N273 1.384 . S
N272 C268 1.439 . S
N272 C269 1.384 . S
N273 C265 1.439 . S
N273 C271 1.384 . S
H274 C280 0.930 . S
H275 C284 0.930 . S
H276 C289 0.929 . S
H277 C287 0.929 . S
H278 C282 0.929 1_455 S
H279 C288 0.929 1_655 S
C280 H274 0.930 . S
C280 C281 1.367 . S
C280 C288 1.378 . S
C281 C280 1.367 . S
C281 C289 1.433 1_554 S
C282 H278 0.929 1_655 S
C282 C284 1.378 . S
C282 C286 1.350 . S
C283 C286 1.463 1_454 S
C283 C288 1.350 . S
C283 N291 1.427 1_554 S
C284 H275 0.930 . S
C284 C282 1.378 . S
C284 C285 1.367 . S
C285 C284 1.367 . S
C285 C287 1.433 1_556 S
C286 C282 1.350 . S
C286 C283 1.463 1_656 S
C286 N290 1.427 1_556 S
C287 H277 0.929 . S
C287 C285 1.433 1_554 S
C287 N290 1.384 . S
C288 H279 0.929 1_455 S
C288 C280 1.378 . S
C288 C283 1.350 . S
C289 H276 0.929 . S
C289 C281 1.433 1_556 S
C289 N291 1.384 . S
N290 C286 1.427 1_554 S
N290 C287 1.384 . S
N291 C283 1.427 1_556 S
N291 C289 1.384 . S
H292 C298 0.930 . S
H293 C302 0.930 . S
H294 C307 0.929 . S
H295 C305 0.929 . S
H296 C300 0.929 . S
H297 C306 0.929 . S
C298 H292 0.930 . S
C298 C299 1.367 . S
C298 C306 1.378 . S
C299 C298 1.367 . S
C299 C307 1.433 . S
C300 H296 0.929 . S
C300 C302 1.378 . S
C300 C304 1.350 . S
C301 C304 1.463 1_565 S
C301 C306 1.350 . S
C301 N309 1.427 . S
C302 H293 0.930 . S
C302 C300 1.378 . S
C302 C303 1.367 . S
C303 C302 1.367 . S
C303 C305 1.433 . S
C304 C300 1.350 . S
C304 C301 1.463 1_545 S
C304 N308 1.427 . S
C305 H295 0.929 . S
C305 C303 1.433 . S
C305 N308 1.384 . S
C306 H297 0.929 . S
C306 C298 1.378 . S
C306 C301 1.350 . S
C307 H294 0.929 . S
C307 C299 1.433 . S
C307 N309 1.384 . S
N308 C304 1.427 . S
N308 C305 1.384 . S
N309 C301 1.427 . S
N309 C307 1.384 . S
H310 C316 0.930 . S
H311 C320 0.930 . S
H312 C325 0.929 . S
H313 C323 0.929 . S
H314 C318 0.929 . S
H315 C324 0.929 . S
C316 H310 0.930 . S
C316 C317 1.367 . S
C316 C324 1.378 . S
C317 C316 1.367 . S
C317 C325 1.433 . S
C318 H314 0.929 . S
C318 C320 1.378 . S
C318 C322 1.350 . S
C319 C322 1.463 1_645 S
C319 C324 1.350 . S
C319 N327 1.427 . S
C320 H311 0.930 . S
C320 C318 1.378 . S
C320 C321 1.367 . S
C321 C320 1.367 . S
C321 C323 1.433 . S
C322 C318 1.350 . S
C322 C319 1.463 1_465 S
C322 N326 1.427 . S
C323 H313 0.929 . S
C323 C321 1.433 . S
C323 N326 1.384 . S
C324 H315 0.929 . S
C324 C316 1.378 . S
C324 C319 1.350 . S
C325 H312 0.929 . S
C325 C317 1.433 . S
C325 N327 1.384 . S
N326 C322 1.427 . S
N326 C323 1.384 . S
N327 C319 1.427 . S
N327 C325 1.384 . S
H328 C334 0.930 . S
H329 C338 0.930 . S
H330 C343 0.929 . S
H331 C341 0.929 . S
H332 C336 0.929 . S
H333 C342 0.929 . S
C334 H328 0.930 . S
C334 C335 1.367 1_556 S
C334 C342 1.378 . S
C335 C334 1.367 1_554 S
C335 C343 1.433 . S
C336 H332 0.929 . S
C336 C338 1.378 . S
C336 C340 1.350 . S
C337 C340 1.463 . S
C337 C342 1.350 1_554 S
C337 N345 1.427 . S
C338 H329 0.930 . S
C338 C336 1.378 . S
C338 C339 1.367 . S
C339 C338 1.367 . S
C339 C341 1.433 1_554 S
C340 C336 1.350 . S
C340 C337 1.463 . S
C340 N344 1.427 1_554 S
C341 H331 0.929 . S
C341 C339 1.433 1_556 S
C341 N344 1.384 . S
C342 H333 0.929 . S
C342 C334 1.378 . S
C342 C337 1.350 1_556 S
C343 H330 0.929 . S
C343 C335 1.433 . S
C343 N345 1.384 . S
N344 C340 1.427 1_556 S
N344 C341 1.384 . S
N345 C337 1.427 . S
N345 C343 1.384 . S
H346 C352 0.930 . S
H347 C356 0.930 . S
H348 C361 0.929 . S
H349 C359 0.929 . S
H350 C354 0.929 1_545 S
H351 C360 0.929 1_565 S
C352 H346 0.930 . S
C352 C353 1.367 . S
C352 C360 1.378 . S
C353 C352 1.367 . S
C353 C361 1.433 . S
C354 H350 0.929 1_565 S
C354 C356 1.378 . S
C354 C358 1.350 . S
C355 C358 1.463 1_545 S
C355 C360 1.350 . S
C355 N363 1.427 . S
C356 H347 0.930 . S
C356 C354 1.378 . S
C356 C357 1.367 . S
C357 C356 1.367 . S
C357 C359 1.433 . S
C358 C354 1.350 . S
C358 C355 1.463 1_565 S
C358 N362 1.427 . S
C359 H349 0.929 . S
C359 C357 1.433 . S
C359 N362 1.384 . S
C360 H351 0.929 1_545 S
C360 C352 1.378 . S
C360 C355 1.350 . S
C361 H348 0.929 . S
C361 C353 1.433 . S
C361 N363 1.384 . S
N362 C358 1.427 . S
N362 C359 1.384 . S
N363 C355 1.427 . S
N363 C361 1.384 . S
H364 C370 0.930 . S
H365 C374 0.930 . S
H366 C379 0.929 . S
H367 C377 0.929 . S
H368 C372 0.929 . S
H369 C378 0.929 . S
C370 H364 0.930 . S
C370 C371 1.367 . S
C370 C378 1.378 . S
C371 C370 1.367 . S
C371 C379 1.433 1_556 S
C372 H368 0.929 . S
C372 C374 1.378 . S
C372 C376 1.350 1_554 S
C373 C376 1.463 . S
C373 C378 1.350 . S
C373 N381 1.427 1_556 S
C374 H365 0.930 . S
C374 C372 1.378 . S
C374 C375 1.367 1_554 S
C375 C374 1.367 1_556 S
C375 C377 1.433 . S
C376 C372 1.350 1_556 S
C376 C373 1.463 . S
C376 N380 1.427 . S
C377 H367 0.929 . S
C377 C375 1.433 . S
C377 N380 1.384 . S
C378 H369 0.929 . S
C378 C370 1.378 . S
C378 C373 1.350 . S
C379 H366 0.929 . S
C379 C371 1.433 1_554 S
C379 N381 1.384 . S
N380 C376 1.427 . S
N380 C377 1.384 . S
N381 C373 1.427 1_554 S
N381 C379 1.384 . S
H382 C388 0.930 . S
H383 C392 0.930 . S
H384 C397 0.929 . S
H385 C395 0.929 . S
H386 C390 0.929 1_565 S
H387 C396 0.929 1_545 S
C388 H382 0.930 . S
C388 C389 1.367 . S
C388 C396 1.378 . S
C389 C388 1.367 . S
C389 C397 1.433 . S
C390 H386 0.929 1_545 S
C390 C392 1.378 . S
C390 C394 1.350 . S
C391 C394 1.463 1_565 S
C391 C396 1.350 . S
C391 N399 1.427 . S
C392 H383 0.930 . S
C392 C390 1.378 . S
C392 C393 1.367 . S
C393 C392 1.367 . S
C393 C395 1.433 . S
C394 C390 1.350 . S
C394 C391 1.463 1_545 S
C394 N398 1.427 . S
C395 H385 0.929 . S
C395 C393 1.433 . S
C395 N398 1.384 . S
C396 H387 0.929 1_565 S
C396 C388 1.378 . S
C396 C391 1.350 . S
C397 H384 0.929 . S
C397 C389 1.433 . S
C397 N399 1.384 . S
N398 C394 1.427 . S
N398 C395 1.384 . S
N399 C391 1.427 . S
N399 C397 1.384 . S
C119 C9 1.544 . S
C123 C23 1.543 . S
C137 C51 1.543 . S
C141 C37 1.531 . S
C155 C65 1.536 . S
C159 C79 1.546 . S
C173 C93 1.530 . S
C177 C107 1.541 . S
C191 C3 1.652 . S
C195 C31 1.653 . S
C209 C45 1.659 . S
C213 C17 1.656 . S
C227 C59 1.659 . S
C231 C87 1.656 . S
C245 C101 1.656 . S
C249 C73 1.659 . S
C263 C8 1.434 . S
C267 C64 1.434 . S
C281 C22 1.433 . S
C285 C78 1.433 . S
C299 C92 1.438 . S
C303 C36 1.438 . S
C317 C106 1.437 . S
C321 C50 1.437 . S
C335 C21 0.982 . S
C339 C7 0.960 . S
C353 C35 0.982 . S
C357 C49 0.973 . S
C371 C63 0.966 . S
C375 C77 0.985 . S
C389 C91 0.976 . S
C393 C105 0.981 . S
