# Generated by pormake.
# Topology fcs, (5)-cn, num edge types: 1
# Building blocks:
#     Node 0, Type 0, BuildingBlock: XOMCOT_clean_sbu_1, # of connection points: 5
#     Node 1, Type 0, BuildingBlock: XOMCOT_clean_sbu_1, # of connection points: 5
#     Node 2, Type 0, BuildingBlock: XOMCOT_clean_sbu_1, # of connection points: 5
#     Node 3, Type 0, BuildingBlock: XOMCOT_clean_sbu_1, # of connection points: 5
#     Node 4, Type 0, BuildingBlock: XOMCOT_clean_sbu_1, # of connection points: 5
#     Node 5, Type 0, BuildingBlock: XOMCOT_clean_sbu_1, # of connection points: 5
#     Node 6, Type 0, BuildingBlock: XOMCOT_clean_sbu_1, # of connection points: 5
#     Node 7, Type 0, BuildingBlock: XOMCOT_clean_sbu_1, # of connection points: 5
#     Node 8, Type 0, BuildingBlock: XOMCOT_clean_sbu_1, # of connection points: 5
#     Node 9, Type 0, BuildingBlock: XOMCOT_clean_sbu_1, # of connection points: 5
#     Node 10, Type 0, BuildingBlock: XOMCOT_clean_sbu_1, # of connection points: 5
#     Node 11, Type 0, BuildingBlock: XOMCOT_clean_sbu_1, # of connection points: 5
#     Node 12, Type 0, BuildingBlock: XOMCOT_clean_sbu_1, # of connection points: 5
#     Node 13, Type 0, BuildingBlock: XOMCOT_clean_sbu_1, # of connection points: 5
#     Node 14, Type 0, BuildingBlock: XOMCOT_clean_sbu_1, # of connection points: 5
#     Node 15, Type 0, BuildingBlock: XOMCOT_clean_sbu_1, # of connection points: 5
#     Node 16, Type 0, BuildingBlock: XOMCOT_clean_sbu_1, # of connection points: 5
#     Node 17, Type 0, BuildingBlock: XOMCOT_clean_sbu_1, # of connection points: 5
#     Node 18, Type 0, BuildingBlock: XOMCOT_clean_sbu_1, # of connection points: 5
#     Node 19, Type 0, BuildingBlock: XOMCOT_clean_sbu_1, # of connection points: 5
#     Node 20, Type 0, BuildingBlock: XOMCOT_clean_sbu_1, # of connection points: 5
#     Node 21, Type 0, BuildingBlock: XOMCOT_clean_sbu_1, # of connection points: 5
#     Node 22, Type 0, BuildingBlock: XOMCOT_clean_sbu_1, # of connection points: 5
#     Node 23, Type 0, BuildingBlock: XOMCOT_clean_sbu_1, # of connection points: 5
#     Node 24, Type 0, BuildingBlock: XOMCOT_clean_sbu_1, # of connection points: 5
#     Node 25, Type 0, BuildingBlock: XOMCOT_clean_sbu_1, # of connection points: 5
#     Node 26, Type 0, BuildingBlock: XOMCOT_clean_sbu_1, # of connection points: 5
#     Node 27, Type 0, BuildingBlock: XOMCOT_clean_sbu_1, # of connection points: 5
#     Node 28, Type 0, BuildingBlock: XOMCOT_clean_sbu_1, # of connection points: 5
#     Node 29, Type 0, BuildingBlock: XOMCOT_clean_sbu_1, # of connection points: 5
#     Node 30, Type 0, BuildingBlock: XOMCOT_clean_sbu_1, # of connection points: 5
#     Node 31, Type 0, BuildingBlock: XOMCOT_clean_sbu_1, # of connection points: 5
#     Node 32, Type 0, BuildingBlock: XOMCOT_clean_sbu_1, # of connection points: 5
#     Node 33, Type 0, BuildingBlock: XOMCOT_clean_sbu_1, # of connection points: 5
#     Node 34, Type 0, BuildingBlock: XOMCOT_clean_sbu_1, # of connection points: 5
#     Node 35, Type 0, BuildingBlock: XOMCOT_clean_sbu_1, # of connection points: 5
#     Node 36, Type 0, BuildingBlock: XOMCOT_clean_sbu_1, # of connection points: 5
#     Node 37, Type 0, BuildingBlock: XOMCOT_clean_sbu_1, # of connection points: 5
#     Node 38, Type 0, BuildingBlock: XOMCOT_clean_sbu_1, # of connection points: 5
#     Node 39, Type 0, BuildingBlock: XOMCOT_clean_sbu_1, # of connection points: 5
#     Node 40, Type 0, BuildingBlock: XOMCOT_clean_sbu_1, # of connection points: 5
#     Node 41, Type 0, BuildingBlock: XOMCOT_clean_sbu_1, # of connection points: 5
#     Node 42, Type 0, BuildingBlock: XOMCOT_clean_sbu_1, # of connection points: 5
#     Node 43, Type 0, BuildingBlock: XOMCOT_clean_sbu_1, # of connection points: 5
#     Node 44, Type 0, BuildingBlock: XOMCOT_clean_sbu_1, # of connection points: 5
#     Node 45, Type 0, BuildingBlock: XOMCOT_clean_sbu_1, # of connection points: 5
#     Node 46, Type 0, BuildingBlock: XOMCOT_clean_sbu_1, # of connection points: 5
#     Node 47, Type 0, BuildingBlock: XOMCOT_clean_sbu_1, # of connection points: 5
#     Edge 48, Type (0, 0), BuildingBlock: AJUNOK_clean_linker_0, # of connection points: 2
#     Edge 49, Type (0, 0), BuildingBlock: AJUNOK_clean_linker_0, # of connection points: 2
#     Edge 50, Type (0, 0), BuildingBlock: AJUNOK_clean_linker_0, # of connection points: 2
#     Edge 51, Type (0, 0), BuildingBlock: AJUNOK_clean_linker_0, # of connection points: 2
#     Edge 52, Type (0, 0), BuildingBlock: AJUNOK_clean_linker_0, # of connection points: 2
#     Edge 53, Type (0, 0), BuildingBlock: AJUNOK_clean_linker_0, # of connection points: 2
#     Edge 54, Type (0, 0), BuildingBlock: AJUNOK_clean_linker_0, # of connection points: 2
#     Edge 55, Type (0, 0), BuildingBlock: AJUNOK_clean_linker_0, # of connection points: 2
#     Edge 56, Type (0, 0), BuildingBlock: AJUNOK_clean_linker_0, # of connection points: 2
#     Edge 57, Type (0, 0), BuildingBlock: AJUNOK_clean_linker_0, # of connection points: 2
#     Edge 58, Type (0, 0), BuildingBlock: AJUNOK_clean_linker_0, # of connection points: 2
#     Edge 59, Type (0, 0), BuildingBlock: AJUNOK_clean_linker_0, # of connection points: 2
#     Edge 60, Type (0, 0), BuildingBlock: AJUNOK_clean_linker_0, # of connection points: 2
#     Edge 61, Type (0, 0), BuildingBlock: AJUNOK_clean_linker_0, # of connection points: 2
#     Edge 62, Type (0, 0), BuildingBlock: AJUNOK_clean_linker_0, # of connection points: 2
#     Edge 63, Type (0, 0), BuildingBlock: AJUNOK_clean_linker_0, # of connection points: 2
#     Edge 64, Type (0, 0), BuildingBlock: AJUNOK_clean_linker_0, # of connection points: 2
#     Edge 65, Type (0, 0), BuildingBlock: AJUNOK_clean_linker_0, # of connection points: 2
#     Edge 66, Type (0, 0), BuildingBlock: AJUNOK_clean_linker_0, # of connection points: 2
#     Edge 67, Type (0, 0), BuildingBlock: AJUNOK_clean_linker_0, # of connection points: 2
#     Edge 68, Type (0, 0), BuildingBlock: AJUNOK_clean_linker_0, # of connection points: 2
#     Edge 69, Type (0, 0), BuildingBlock: AJUNOK_clean_linker_0, # of connection points: 2
#     Edge 70, Type (0, 0), BuildingBlock: AJUNOK_clean_linker_0, # of connection points: 2
#     Edge 71, Type (0, 0), BuildingBlock: AJUNOK_clean_linker_0, # of connection points: 2
#     Edge 72, Type (0, 0), BuildingBlock: AJUNOK_clean_linker_0, # of connection points: 2
#     Edge 73, Type (0, 0), BuildingBlock: AJUNOK_clean_linker_0, # of connection points: 2
#     Edge 74, Type (0, 0), BuildingBlock: AJUNOK_clean_linker_0, # of connection points: 2
#     Edge 75, Type (0, 0), BuildingBlock: AJUNOK_clean_linker_0, # of connection points: 2
#     Edge 76, Type (0, 0), BuildingBlock: AJUNOK_clean_linker_0, # of connection points: 2
#     Edge 77, Type (0, 0), BuildingBlock: AJUNOK_clean_linker_0, # of connection points: 2
#     Edge 78, Type (0, 0), BuildingBlock: AJUNOK_clean_linker_0, # of connection points: 2
#     Edge 79, Type (0, 0), BuildingBlock: AJUNOK_clean_linker_0, # of connection points: 2
#     Edge 80, Type (0, 0), BuildingBlock: AJUNOK_clean_linker_0, # of connection points: 2
#     Edge 81, Type (0, 0), BuildingBlock: AJUNOK_clean_linker_0, # of connection points: 2
#     Edge 82, Type (0, 0), BuildingBlock: AJUNOK_clean_linker_0, # of connection points: 2
#     Edge 83, Type (0, 0), BuildingBlock: AJUNOK_clean_linker_0, # of connection points: 2
#     Edge 84, Type (0, 0), BuildingBlock: AJUNOK_clean_linker_0, # of connection points: 2
#     Edge 85, Type (0, 0), BuildingBlock: AJUNOK_clean_linker_0, # of connection points: 2
#     Edge 86, Type (0, 0), BuildingBlock: AJUNOK_clean_linker_0, # of connection points: 2
#     Edge 87, Type (0, 0), BuildingBlock: AJUNOK_clean_linker_0, # of connection points: 2
#     Edge 88, Type (0, 0), BuildingBlock: AJUNOK_clean_linker_0, # of connection points: 2
#     Edge 89, Type (0, 0), BuildingBlock: AJUNOK_clean_linker_0, # of connection points: 2
#     Edge 90, Type (0, 0), BuildingBlock: AJUNOK_clean_linker_0, # of connection points: 2
#     Edge 91, Type (0, 0), BuildingBlock: AJUNOK_clean_linker_0, # of connection points: 2
#     Edge 92, Type (0, 0), BuildingBlock: AJUNOK_clean_linker_0, # of connection points: 2
#     Edge 93, Type (0, 0), BuildingBlock: AJUNOK_clean_linker_0, # of connection points: 2
#     Edge 94, Type (0, 0), BuildingBlock: AJUNOK_clean_linker_0, # of connection points: 2
#     Edge 95, Type (0, 0), BuildingBlock: AJUNOK_clean_linker_0, # of connection points: 2
#     Edge 96, Type (0, 0), BuildingBlock: AJUNOK_clean_linker_0, # of connection points: 2
#     Edge 97, Type (0, 0), BuildingBlock: AJUNOK_clean_linker_0, # of connection points: 2
#     Edge 98, Type (0, 0), BuildingBlock: AJUNOK_clean_linker_0, # of connection points: 2
#     Edge 99, Type (0, 0), BuildingBlock: AJUNOK_clean_linker_0, # of connection points: 2
#     Edge 100, Type (0, 0), BuildingBlock: AJUNOK_clean_linker_0, # of connection points: 2
#     Edge 101, Type (0, 0), BuildingBlock: AJUNOK_clean_linker_0, # of connection points: 2
#     Edge 102, Type (0, 0), BuildingBlock: AJUNOK_clean_linker_0, # of connection points: 2
#     Edge 103, Type (0, 0), BuildingBlock: AJUNOK_clean_linker_0, # of connection points: 2
#     Edge 104, Type (0, 0), BuildingBlock: AJUNOK_clean_linker_0, # of connection points: 2
#     Edge 105, Type (0, 0), BuildingBlock: AJUNOK_clean_linker_0, # of connection points: 2
#     Edge 106, Type (0, 0), BuildingBlock: AJUNOK_clean_linker_0, # of connection points: 2
#     Edge 107, Type (0, 0), BuildingBlock: AJUNOK_clean_linker_0, # of connection points: 2
#     Edge 108, Type (0, 0), BuildingBlock: AJUNOK_clean_linker_0, # of connection points: 2
#     Edge 109, Type (0, 0), BuildingBlock: AJUNOK_clean_linker_0, # of connection points: 2
#     Edge 110, Type (0, 0), BuildingBlock: AJUNOK_clean_linker_0, # of connection points: 2
#     Edge 111, Type (0, 0), BuildingBlock: AJUNOK_clean_linker_0, # of connection points: 2
#     Edge 112, Type (0, 0), BuildingBlock: AJUNOK_clean_linker_0, # of connection points: 2
#     Edge 113, Type (0, 0), BuildingBlock: AJUNOK_clean_linker_0, # of connection points: 2
#     Edge 114, Type (0, 0), BuildingBlock: AJUNOK_clean_linker_0, # of connection points: 2
#     Edge 115, Type (0, 0), BuildingBlock: AJUNOK_clean_linker_0, # of connection points: 2
#     Edge 116, Type (0, 0), BuildingBlock: AJUNOK_clean_linker_0, # of connection points: 2
#     Edge 117, Type (0, 0), BuildingBlock: AJUNOK_clean_linker_0, # of connection points: 2
#     Edge 118, Type (0, 0), BuildingBlock: AJUNOK_clean_linker_0, # of connection points: 2
#     Edge 119, Type (0, 0), BuildingBlock: AJUNOK_clean_linker_0, # of connection points: 2
#     Edge 120, Type (0, 0), BuildingBlock: AJUNOK_clean_linker_0, # of connection points: 2
#     Edge 121, Type (0, 0), BuildingBlock: AJUNOK_clean_linker_0, # of connection points: 2
#     Edge 122, Type (0, 0), BuildingBlock: AJUNOK_clean_linker_0, # of connection points: 2
#     Edge 123, Type (0, 0), BuildingBlock: AJUNOK_clean_linker_0, # of connection points: 2
#     Edge 124, Type (0, 0), BuildingBlock: AJUNOK_clean_linker_0, # of connection points: 2
#     Edge 125, Type (0, 0), BuildingBlock: AJUNOK_clean_linker_0, # of connection points: 2
#     Edge 126, Type (0, 0), BuildingBlock: AJUNOK_clean_linker_0, # of connection points: 2
#     Edge 127, Type (0, 0), BuildingBlock: AJUNOK_clean_linker_0, # of connection points: 2
#     Edge 128, Type (0, 0), BuildingBlock: AJUNOK_clean_linker_0, # of connection points: 2
#     Edge 129, Type (0, 0), BuildingBlock: AJUNOK_clean_linker_0, # of connection points: 2
#     Edge 130, Type (0, 0), BuildingBlock: AJUNOK_clean_linker_0, # of connection points: 2
#     Edge 131, Type (0, 0), BuildingBlock: AJUNOK_clean_linker_0, # of connection points: 2
#     Edge 132, Type (0, 0), BuildingBlock: AJUNOK_clean_linker_0, # of connection points: 2
#     Edge 133, Type (0, 0), BuildingBlock: AJUNOK_clean_linker_0, # of connection points: 2
#     Edge 134, Type (0, 0), BuildingBlock: AJUNOK_clean_linker_0, # of connection points: 2
#     Edge 135, Type (0, 0), BuildingBlock: AJUNOK_clean_linker_0, # of connection points: 2
#     Edge 136, Type (0, 0), BuildingBlock: AJUNOK_clean_linker_0, # of connection points: 2
#     Edge 137, Type (0, 0), BuildingBlock: AJUNOK_clean_linker_0, # of connection points: 2
#     Edge 138, Type (0, 0), BuildingBlock: AJUNOK_clean_linker_0, # of connection points: 2
#     Edge 139, Type (0, 0), BuildingBlock: AJUNOK_clean_linker_0, # of connection points: 2
#     Edge 140, Type (0, 0), BuildingBlock: AJUNOK_clean_linker_0, # of connection points: 2
#     Edge 141, Type (0, 0), BuildingBlock: AJUNOK_clean_linker_0, # of connection points: 2
#     Edge 142, Type (0, 0), BuildingBlock: AJUNOK_clean_linker_0, # of connection points: 2
#     Edge 143, Type (0, 0), BuildingBlock: AJUNOK_clean_linker_0, # of connection points: 2
#     Edge 144, Type (0, 0), BuildingBlock: AJUNOK_clean_linker_0, # of connection points: 2
#     Edge 145, Type (0, 0), BuildingBlock: AJUNOK_clean_linker_0, # of connection points: 2
#     Edge 146, Type (0, 0), BuildingBlock: AJUNOK_clean_linker_0, # of connection points: 2
#     Edge 147, Type (0, 0), BuildingBlock: AJUNOK_clean_linker_0, # of connection points: 2
#     Edge 148, Type (0, 0), BuildingBlock: AJUNOK_clean_linker_0, # of connection points: 2
#     Edge 149, Type (0, 0), BuildingBlock: AJUNOK_clean_linker_0, # of connection points: 2
#     Edge 150, Type (0, 0), BuildingBlock: AJUNOK_clean_linker_0, # of connection points: 2
#     Edge 151, Type (0, 0), BuildingBlock: AJUNOK_clean_linker_0, # of connection points: 2
#     Edge 152, Type (0, 0), BuildingBlock: AJUNOK_clean_linker_0, # of connection points: 2
#     Edge 153, Type (0, 0), BuildingBlock: AJUNOK_clean_linker_0, # of connection points: 2
#     Edge 154, Type (0, 0), BuildingBlock: AJUNOK_clean_linker_0, # of connection points: 2
#     Edge 155, Type (0, 0), BuildingBlock: AJUNOK_clean_linker_0, # of connection points: 2
#     Edge 156, Type (0, 0), BuildingBlock: AJUNOK_clean_linker_0, # of connection points: 2
#     Edge 157, Type (0, 0), BuildingBlock: AJUNOK_clean_linker_0, # of connection points: 2
#     Edge 158, Type (0, 0), BuildingBlock: AJUNOK_clean_linker_0, # of connection points: 2
#     Edge 159, Type (0, 0), BuildingBlock: AJUNOK_clean_linker_0, # of connection points: 2
#     Edge 160, Type (0, 0), BuildingBlock: AJUNOK_clean_linker_0, # of connection points: 2
#     Edge 161, Type (0, 0), BuildingBlock: AJUNOK_clean_linker_0, # of connection points: 2
#     Edge 162, Type (0, 0), BuildingBlock: AJUNOK_clean_linker_0, # of connection points: 2
#     Edge 163, Type (0, 0), BuildingBlock: AJUNOK_clean_linker_0, # of connection points: 2
#     Edge 164, Type (0, 0), BuildingBlock: AJUNOK_clean_linker_0, # of connection points: 2
#     Edge 165, Type (0, 0), BuildingBlock: AJUNOK_clean_linker_0, # of connection points: 2
#     Edge 166, Type (0, 0), BuildingBlock: AJUNOK_clean_linker_0, # of connection points: 2
#     Edge 167, Type (0, 0), BuildingBlock: AJUNOK_clean_linker_0, # of connection points: 2
# Relax obj value: 0.343
# Max RMSD: 0.231
# Mean RMSD: 0.231
data_MOF--net-fcs--node1-XOMCOT_clean_sbu_1--edge1-AJUNOK_clean_linker_0
_symmetry_space_group_name_H-M    P1
_symmetry_Int_Tables_number       1
_symmetry_cell_setting            triclinic
loop_
_symmetry_equiv_pos_as_xyz
'x, y, z'
_cell_length_a     43.772429
_cell_length_b     43.819732
_cell_length_c     43.784424
_cell_angle_alpha  89.957956
_cell_angle_beta   90.025727
_cell_angle_gamma 89.927239
loop_
_atom_site_label
_atom_site_type_symbol
_atom_site_fract_x
_atom_site_fract_y
_atom_site_fract_z
_atom_type_partial_charge
C0 C 0.0905 0.14407 0.26831 0.0
C1 C 0.11552 0.13108 0.25437 0.0
N2 N 0.10936 0.10142 0.24927 0.0
N3 N 0.0688 0.12263 0.27218 0.0
C4 C 0.08119 0.09674 0.26076 0.0
H5 H 0.08756 0.16802 0.27348 0.0
Co6 Co 0.02851 0.1309 0.2832 0.0
C7 C 0.99833 0.07227 0.26402 0.0
O8 O 0.97832 0.08695 0.24718 0.0
N9 N 0.98705 0.13996 0.29459 0.0
C10 C 0.93838 0.1558 0.29421 0.0
C11 C 0.96279 0.14669 0.27653 0.0
C12 C 0.97614 0.14455 0.32322 0.0
N13 N 0.94686 0.15434 0.32365 0.0
O14 O 0.04 0.12552 0.32544 0.0
H15 H 0.96281 0.14615 0.25186 0.0
H16 H 0.98969 0.1422 0.34361 0.0
O17 O 0.01831 0.0871 0.27933 0.0
C18 C 0.04859 0.15131 0.33608 0.0
O19 O 0.04563 0.17569 0.31887 0.0
N20 N 0.02079 0.14023 0.24206 0.0
C21 C 0.04002 0.16738 0.18781 0.0
C22 C 0.03775 0.13549 0.19014 0.0
C23 C 0.02841 0.12226 0.21769 0.0
C24 C 0.01962 0.17117 0.23889 0.0
C25 C 0.02889 0.18523 0.21188 0.0
H26 H 0.03118 0.09796 0.22031 0.0
H27 H 0.01507 0.18524 0.25867 0.0
H28 H 0.06933 0.07516 0.25944 0.0
H29 H 0.1359 0.1429 0.24691 0.0
H30 H 0.91637 0.16359 0.28602 0.0
H31 H 0.04575 0.12088 0.17186 0.0
H32 H 0.03042 0.20989 0.21117 0.0
C33 C 0.3891 0.67428 0.99438 0.0
C34 C 0.37555 0.64915 0.00751 0.0
N35 N 0.34597 0.65577 0.01276 0.0
N36 N 0.36812 0.69659 0.991 0.0
C37 C 0.34198 0.68445 1.00225 0.0
H38 H 0.41308 0.6766 0.98899 0.0
Co39 Co 0.37678 0.7367 0.97847 0.0
C40 C 0.31819 0.76829 0.99597 0.0
O41 O 0.3335 0.78962 0.01033 0.0
N42 N 0.38631 0.77787 0.96527 0.0
C43 C 0.40236 0.82644 0.96409 0.0
C44 C 0.3922 0.80295 0.9824 0.0
C45 C 0.39264 0.78742 0.9364 0.0
N46 N 0.40295 0.81649 0.93509 0.0
O47 O 0.37183 0.72391 0.93658 0.0
H48 H 0.39036 0.80417 0.00697 0.0
H49 H 0.391 0.77317 0.91642 0.0
O50 O 0.33284 0.74707 0.98218 0.0
C51 C 0.39853 0.71562 0.92803 0.0
O52 O 0.42126 0.71879 0.94739 0.0
N53 N 0.38607 0.74603 0.0193 0.0
C54 C 0.41424 0.73182 0.07463 0.0
C55 C 0.38228 0.73094 0.0719 0.0
C56 C 0.36849 0.73847 0.04397 0.0
C57 C 0.41692 0.74919 0.02243 0.0
C58 C 0.4314 0.74278 0.05003 0.0
H59 H 0.3443 0.73451 0.04137 0.0
H60 H 0.43083 0.75346 1.00248 0.0
H61 H 0.32064 0.69669 1.00392 0.0
H62 H 0.3869 0.6282 0.01412 0.0
H63 H 0.40913 0.84893 0.9717 0.0
H64 H 0.36836 0.72204 0.09031 0.0
H65 H 0.45614 0.743 0.05095 0.0
C66 C 0.93445 0.36099 0.25263 0.0
C67 C 0.90829 0.37246 0.23961 0.0
N68 N 0.90926 0.4031 0.24143 0.0
N69 N 0.95189 0.38429 0.2627 0.0
C70 C 0.93583 0.40975 0.25556 0.0
H71 H 0.94106 0.33722 0.25334 0.0
Co72 Co 0.99137 0.37941 0.2789 0.0
C73 C 0.01362 0.44124 0.25606 0.0
O74 O 0.03038 0.42933 0.23427 0.0
N75 N 0.03089 0.37378 0.29598 0.0
C76 C 0.08065 0.37403 0.30718 0.0
C77 C 0.05809 0.38668 0.28919 0.0
C78 C 0.03776 0.35324 0.31808 0.0
N79 N 0.06782 0.35272 0.32517 0.0
O80 O 0.97452 0.3848 0.31943 0.0
H81 H 0.06185 0.40385 0.27206 0.0
H82 H 0.02094 0.33903 0.32909 0.0
O83 O 0.9987 0.42412 0.27457 0.0
C84 C 0.96228 0.35918 0.3263 0.0
O85 O 0.966 0.33618 0.30743 0.0
N86 N 1.00567 0.36937 0.2393 0.0
C87 C 0.99501 0.33288 0.18842 0.0
C88 C 0.98769 0.36399 0.1877 0.0
C89 C 0.99321 0.38195 0.21347 0.0
C90 C 0.01709 0.34035 0.23835 0.0
C91 C 0.01218 0.32174 0.21298 0.0
H92 H 0.98296 0.40437 0.21412 0.0
H93 H 0.02586 0.32973 0.25882 0.0
H94 H 0.94376 0.43276 0.25962 0.0
H95 H 0.89066 0.35936 0.22827 0.0
H96 H 0.10469 0.37979 0.30679 0.0
H97 H 0.97426 0.37338 0.16914 0.0
H98 H 0.01843 0.29783 0.21417 0.0
C99 C 0.6069 0.82356 0.00738 0.0
C100 C 0.61764 0.84876 0.02267 0.0
N101 N 0.64841 0.84766 0.02269 0.0
N102 N 0.63077 0.80655 0.99792 0.0
C103 C 0.65574 0.82243 0.00667 0.0
H104 H 0.58323 0.81684 1.0053 0.0
Co105 Co 0.62716 0.76625 0.98449 0.0
C106 C 0.68831 0.73914 1.00208 0.0
O107 O 0.67526 0.71465 0.0132 0.0
N108 N 0.62214 0.72483 0.97044 0.0
C109 C 0.60846 0.67554 0.96817 0.0
C110 C 0.61826 0.69886 0.9869 0.0
C111 C 0.6148 0.7161 0.94166 0.0
N112 N 0.60613 0.68664 0.93973 0.0
O113 O 0.63258 0.78069 0.94316 0.0
H114 H 0.61995 0.69722 0.01147 0.0
H115 H 0.61374 0.73127 0.92236 0.0
O116 O 0.67201 0.76029 0.99004 0.0
C117 C 0.60638 0.78862 0.93281 0.0
O118 O 0.58207 0.78339 0.94957 0.0
N119 N 0.61777 0.75511 0.0247 0.0
C120 C 0.58703 0.77161 0.07766 0.0
C121 C 0.61905 0.77277 0.07655 0.0
C122 C 0.63418 0.76427 0.04964 0.0
C123 C 0.58708 0.75032 0.02692 0.0
C124 C 0.57125 0.75829 0.05331 0.0
H125 H 0.65816 0.76955 0.04756 0.0
H126 H 0.57415 0.74448 0.0067 0.0
H127 H 0.67883 0.81473 1.00322 0.0
H128 H 0.60386 0.8658 0.0341 0.0
H129 H 0.60096 0.65312 0.97535 0.0
H130 H 0.63188 0.78349 0.09477 0.0
H131 H 0.54651 0.75729 0.05334 0.0
C132 C 0.08574 0.86691 0.25844 0.0
C133 C 0.11085 0.88128 0.27064 0.0
N134 N 0.10616 0.91161 0.26918 0.0
N135 N 0.0654 0.88811 0.24908 0.0
C136 C 0.07869 0.91519 0.25569 0.0
H137 H 0.08191 0.84255 0.25779 0.0
Co138 Co 0.02596 0.87979 0.23441 0.0
C139 C 0.99852 0.93917 0.2582 0.0
O140 O 0.98221 0.92535 0.27917 0.0
N141 N 0.98607 0.87122 0.21902 0.0
C142 C 0.93583 0.8638 0.21346 0.0
C143 C 0.95849 0.87441 0.23262 0.0
C144 C 0.97932 0.85843 0.19169 0.0
N145 N 0.94908 0.85371 0.18768 0.0
O146 O 0.04066 0.88691 0.19327 0.0
H147 H 0.95486 0.88292 0.25542 0.0
H148 H 0.99625 0.85191 0.175 0.0
O149 O 0.01497 0.9236 0.23961 0.0
C150 C 0.05455 0.86224 0.18591 0.0
O151 O 0.05336 0.83907 0.20494 0.0
N152 N 0.01449 0.86801 0.27436 0.0
C153 C 0.0254 0.83326 0.3267 0.0
C154 C 0.03052 0.86486 0.32684 0.0
C155 C 0.0251 0.88188 0.3003 0.0
C156 C 0.00653 0.8379 0.27507 0.0
C157 C 0.01156 0.82019 0.30106 0.0
H158 H 0.03325 0.90513 0.29956 0.0
H159 H 0.99997 0.82639 0.25426 0.0
H160 H 0.06821 0.93718 0.25162 0.0
H161 H 0.13035 0.87032 0.28122 0.0
H162 H 0.91155 0.8638 0.21811 0.0
H163 H 0.04189 0.87565 0.34597 0.0
H164 H 0.00761 0.7958 0.29999 0.0
C165 C 0.10561 0.68017 1.0056 0.0
C166 C 0.11605 0.65519 0.9898 0.0
N167 N 0.14658 0.6576 0.98686 0.0
N168 N 0.12942 0.69826 0.01292 0.0
C169 C 0.15417 0.6834 1.00189 0.0
H170 H 0.0819 0.6858 0.00961 0.0
Co171 Co 0.12475 0.73847 0.02696 0.0
C172 C 0.18505 0.7685 0.01138 0.0
O173 O 0.17133 0.79408 1.00406 0.0
N174 N 0.11842 0.77957 0.0416 0.0
C175 C 0.10338 0.82839 0.04473 0.0
C176 C 0.11151 0.80503 0.02534 0.0
C177 C 0.11441 0.78861 0.07101 0.0
N178 N 0.10524 0.81802 0.07352 0.0
O179 O 0.13094 0.72399 0.06822 0.0
H180 H 0.1113 0.80661 1.00071 0.0
H181 H 0.11629 0.77354 0.09042 0.0
O182 O 0.16938 0.74571 0.02096 0.0
C183 C 0.10471 0.71445 0.07687 0.0
O184 O 0.08126 0.71907 0.05869 0.0
N185 N 0.11468 0.74959 0.98692 0.0
C186 C 0.08494 0.73146 0.93388 0.0
C187 C 0.11699 0.73243 0.93493 0.0
C188 C 0.1316 0.74183 0.96185 0.0
C189 C 0.08372 0.75229 0.98481 0.0
C190 C 0.06839 0.74357 0.95838 0.0
H191 H 0.15593 0.73841 0.96379 0.0
H192 H 0.07049 0.75715 1.0051 0.0
H193 H 0.17708 0.69219 1.00305 0.0
H194 H 0.10203 0.63724 0.98026 0.0
H195 H 0.09585 0.85099 0.03814 0.0
H196 H 0.1305 0.72284 0.91656 0.0
H197 H 0.04364 0.7432 0.95835 0.0
C198 C 0.92527 0.6477 0.25647 0.0
C199 C 0.89952 0.63401 0.26799 0.0
N200 N 0.90425 0.60367 0.26868 0.0
N201 N 0.94611 0.62609 0.24956 0.0
C202 C 0.93255 0.59941 0.25729 0.0
H203 H 0.92903 0.672 0.25447 0.0
Co204 Co 0.98577 0.63408 0.23546 0.0
C205 C 0.01447 0.57431 0.25544 0.0
O206 O 0.03388 0.58788 0.27378 0.0
N207 N 0.02602 0.64269 0.22053 0.0
C208 C 0.07589 0.65304 0.216 0.0
C209 C 0.05313 0.64314 0.23544 0.0
C210 C 0.03323 0.65251 0.19207 0.0
N211 N 0.0632 0.65901 0.18867 0.0
O212 O 0.97119 0.62796 0.19434 0.0
H213 H 0.05629 0.63783 0.25931 0.0
H214 H 0.01676 0.65592 0.17406 0.0
O215 O 0.99588 0.59031 0.23948 0.0
C216 C 0.9583 0.65304 0.18673 0.0
O217 O 0.96081 0.67652 0.2052 0.0
N218 N 0.99701 0.64412 0.27573 0.0
C219 C 0.98167 0.67512 0.32897 0.0
C220 C 0.97916 0.64326 0.32754 0.0
C221 C 0.98717 0.62803 0.30063 0.0
C222 C 1.00284 0.67462 0.27816 0.0
C223 C 0.99567 0.69055 0.3048 0.0
H224 H 0.98105 0.60427 0.29855 0.0
H225 H 0.00905 0.68755 0.25806 0.0
H226 H 0.94336 0.57728 0.25553 0.0
H227 H 0.87945 0.64558 0.27661 0.0
H228 H 0.09981 0.65563 0.22164 0.0
H229 H 0.96799 0.63074 0.34572 0.0
H230 H 0.99743 0.71522 0.30497 0.0
C231 C 0.89457 0.83478 0.01225 0.0
C232 C 0.88247 0.85962 0.99737 0.0
N233 N 0.85298 0.8537 0.99098 0.0
N234 N 0.87278 0.81331 0.01562 0.0
C235 C 0.84751 0.82575 1.00271 0.0
H236 H 0.91823 0.83203 0.01872 0.0
Co237 Co 0.8804 0.77344 0.02948 0.0
C238 C 0.82153 0.74204 0.01439 0.0
O239 O 0.83677 0.71961 1.00167 0.0
N240 N 0.88892 0.73266 0.04385 0.0
C241 C 0.90444 0.68401 0.04687 0.0
C242 C 0.89564 0.70721 0.02755 0.0
C243 C 0.89353 0.72373 0.07319 0.0
N244 N 0.90304 0.69446 0.07564 0.0
O245 O 0.8763 0.78793 0.07095 0.0
H246 H 0.89525 0.70551 1.00294 0.0
H247 H 0.89166 0.73874 0.09261 0.0
O248 O 0.83625 0.76418 0.02652 0.0
C249 C 0.90327 0.79664 0.07812 0.0
O250 O 0.92555 0.7909 0.05884 0.0
N251 N 0.88898 0.76254 0.98907 0.0
C252 C 0.91667 0.77622 0.93348 0.0
C253 C 0.88465 0.77554 0.93602 0.0
C254 C 0.87112 0.76859 0.96418 0.0
C255 C 0.91989 0.76029 0.98611 0.0
C256 C 0.93418 0.76671 0.9585 0.0
H257 H 0.84682 0.77192 0.96664 0.0
H258 H 0.93389 0.75706 0.00621 0.0
H259 H 0.82611 0.81381 0.99981 0.0
H260 H 0.89473 0.88006 0.9909 0.0
H261 H 0.91205 0.66145 0.04022 0.0
H262 H 0.87036 0.78307 0.91726 0.0
H263 H 0.9589 0.76774 0.95798 0.0
C264 C 0.25742 0.07492 0.1529 0.0
C265 C 0.24436 0.101 0.14118 0.0
N266 N 0.24488 0.0991 0.11049 0.0
N267 N 0.266 0.05656 0.12972 0.0
C268 C 0.25831 0.07212 0.10416 0.0
H269 H 0.25884 0.06887 0.17681 0.0
Co270 Co 0.27949 0.01627 0.13478 0.0
C271 C 0.25973 0.98743 0.0756 0.0
O272 O 0.24628 0.96535 0.09064 0.0
N273 N 0.29379 0.97496 0.14106 0.0
C274 C 0.2968 0.92578 0.15496 0.0
C275 C 0.27759 0.94902 0.14588 0.0
C276 C 0.32297 0.96625 0.14701 0.0
N277 N 0.32537 0.93683 0.15597 0.0
O278 O 0.32082 0.03024 0.12861 0.0
H279 H 0.25302 0.94714 0.14463 0.0
H280 H 0.34233 0.98141 0.14653 0.0
O281 O 0.27352 0.00861 0.09033 0.0
C282 C 0.3297 0.03844 0.15523 0.0
O283 O 0.31079 0.03423 0.17817 0.0
N284 N 0.2394 1.00557 0.14528 0.0
C285 C 0.18793 0.02265 0.17832 0.0
C286 C 0.18809 0.02489 0.1463 0.0
C287 C 0.21416 0.01587 0.12999 0.0
C288 C 0.23807 1.00001 0.17589 0.0
C289 C 0.21232 0.00783 0.19275 0.0
H290 H 0.21562 0.02167 0.10605 0.0
H291 H 0.25852 0.99342 0.1881 0.0
H292 H 0.26143 0.06354 0.08134 0.0
H293 H 0.23364 0.11904 0.15423 0.0
H294 H 0.29006 0.90284 0.16109 0.0
H295 H 0.16989 0.03666 0.13434 0.0
H296 H 0.21298 1.00554 0.21739 0.0
C297 C 0.32616 0.51036 0.11055 0.0
C298 C 0.35045 0.52652 0.12211 0.0
N299 N 0.34893 0.52558 0.15282 0.0
N300 N 0.30934 0.49932 0.13387 0.0
C301 C 0.32443 0.50817 0.15936 0.0
H302 H 0.31975 0.50896 0.08674 0.0
Co303 Co 0.26961 0.48384 0.12957 0.0
C304 C 0.24478 0.50756 0.18946 0.0
O305 O 0.22384 0.52376 0.17533 0.0
N306 N 0.22955 0.46711 0.1245 0.0
C307 C 0.18512 0.44321 0.13217 0.0
C308 C 0.20645 0.46263 0.14457 0.0
C309 C 0.22133 0.44987 0.10014 0.0
N310 N 0.19458 0.43507 0.10421 0.0
O311 O 0.28525 0.44286 0.13549 0.0
H312 H 0.20615 0.46968 0.16806 0.0
H313 H 0.23597 0.44598 0.08069 0.0
O314 O 0.26276 0.49012 0.17423 0.0
C315 C 0.29435 0.43456 0.10895 0.0
O316 O 0.29256 0.4544 0.08651 0.0
N317 N 0.25629 0.52363 0.11886 0.0
C318 C 0.26936 0.57535 0.08396 0.0
C319 C 0.27433 0.57539 0.11562 0.0
C320 C 0.26748 0.5493 0.13277 0.0
C321 C 0.24757 0.52487 0.08896 0.0
C322 C 0.25384 0.55053 0.07111 0.0
H323 H 0.27573 0.5484 0.15599 0.0
H324 H 0.23993 0.50448 0.0775 0.0
H325 H 0.31635 0.5042 0.18231 0.0
H326 H 0.36701 0.53929 0.10895 0.0
H327 H 0.16611 0.43296 0.14421 0.0
H328 H 0.28673 0.59384 0.12643 0.0
H329 H 0.24949 0.54965 0.04676 0.0
C330 C 0.7464 0.42576 0.149 0.0
C331 C 0.75906 0.39968 0.13689 0.0
N332 N 0.76381 0.40432 0.10685 0.0
N333 N 0.74316 0.44675 0.12672 0.0
C334 C 0.75393 0.43294 0.10123 0.0
H335 H 0.74135 0.42972 0.17284 0.0
Co336 Co 0.73105 0.48717 0.13325 0.0
C337 C 0.75296 0.51517 0.07448 0.0
O338 O 0.77054 0.53475 0.08873 0.0
N339 N 0.71828 0.52872 0.14031 0.0
C340 C 0.71717 0.57823 0.15314 0.0
C341 C 0.73552 0.55404 0.14472 0.0
C342 C 0.68941 0.53876 0.14551 0.0
N343 N 0.68812 0.5685 0.15343 0.0
O344 O 0.68937 0.47476 0.12627 0.0
H345 H 0.76014 0.55489 0.14334 0.0
H346 H 0.66943 0.52443 0.14502 0.0
O347 O 0.73677 0.49612 0.08952 0.0
C348 C 0.67877 0.46686 0.15232 0.0
O349 O 0.696 0.47101 0.17656 0.0
N350 N 0.77149 0.49616 0.14448 0.0
C351 C 0.82344 0.47993 0.17738 0.0
C352 C 0.82329 0.47798 0.14539 0.0
C353 C 0.79689 0.48626 0.1292 0.0
C354 C 0.77268 0.50117 0.1752 0.0
C355 C 0.79864 0.49376 0.19202 0.0
H356 H 0.79569 0.48079 0.10521 0.0
H357 H 0.75213 0.50741 0.1874 0.0
H358 H 0.75579 0.4439 0.07918 0.0
H359 H 0.76582 0.37952 0.14952 0.0
H360 H 0.72466 0.60095 0.15927 0.0
H361 H 0.84196 0.46706 0.13339 0.0
H362 H 0.79801 0.49565 0.21669 0.0
C363 C 0.67252 0.01282 0.11604 0.0
C364 C 0.64834 0.9982 0.12969 0.0
N365 N 0.65659 0.99047 0.15831 0.0
N366 N 0.69596 0.01452 0.13595 0.0
C367 C 0.68548 1.00066 0.16151 0.0
H368 H 0.67351 0.02 0.09245 0.0
Co369 Co 0.73564 0.02696 0.12599 0.0
C370 C 0.77081 0.00999 0.18297 0.0
O371 O 0.79258 0.99765 0.16653 0.0
N372 N 0.77626 0.03972 0.11499 0.0
C373 C 0.8245 0.04032 0.098 0.0
C374 C 0.80046 0.02218 0.10688 0.0
C375 C 0.78661 0.0686 0.11063 0.0
N376 N 0.81566 0.06962 0.10005 0.0
O377 O 0.7233 0.0689 0.13271 0.0
H378 H 0.80088 0.99753 0.10702 0.0
H379 H 0.77287 0.08878 0.11409 0.0
O380 O 0.74783 0.02215 0.16949 0.0
C381 C 0.71208 0.07813 0.10732 0.0
O382 O 0.71479 0.06034 0.08333 0.0
N383 N 0.74404 0.98644 0.11534 0.0
C384 C 0.72604 0.9318 0.08807 0.0
C385 C 0.73146 0.93331 0.11975 0.0
C386 C 0.7401 0.96111 0.1331 0.0
C387 C 0.7423 0.98435 0.08434 0.0
C388 C 0.73346 0.9573 0.07024 0.0
H389 H 0.7402 0.96282 0.15768 0.0
H390 H 0.74428 1.0048 0.07064 0.0
H391 H 0.69951 0.99568 0.18115 0.0
H392 H 0.62679 0.99258 0.11894 0.0
H393 H 0.84674 0.0324 0.09069 0.0
H394 H 0.72683 0.91393 0.13436 0.0
H395 H 0.72953 0.95745 0.04582 0.0
C396 C 0.25206 0.93062 0.36383 0.0
C397 C 0.2393 0.90504 0.3768 0.0
N398 N 0.2415 0.90763 0.40735 0.0
N399 N 0.26236 0.94924 0.38611 0.0
C400 C 0.25557 0.9345 0.41244 0.0
H401 H 0.25255 0.93597 0.33972 0.0
Co402 Co 0.27885 0.98834 0.37983 0.0
C403 C 0.25619 0.01484 0.43932 0.0
O404 O 0.23868 0.03466 0.42515 0.0
N405 N 0.29667 0.02733 0.37309 0.0
C406 C 0.32264 0.07073 0.3788 0.0
C407 C 0.30265 0.05065 0.3924 0.0
C408 C 0.31334 0.0341 0.34794 0.0
N409 N 0.32982 0.06008 0.35091 0.0
O410 O 0.31935 0.97184 0.38587 0.0
H411 H 0.29548 0.05212 0.41586 0.0
H412 H 0.31424 0.01935 0.32822 0.0
O413 O 0.27373 0.99699 0.42413 0.0
C414 C 0.32677 0.95954 0.3604 0.0
O415 O 0.30724 0.96106 0.33766 0.0
N416 N 0.2393 1.00245 0.36912 0.0
C417 C 0.18673 0.99157 0.33487 0.0
C418 C 0.18682 0.98635 0.36644 0.0
C419 C 0.21345 0.99188 0.38325 0.0
C420 C 0.23793 0.0115 0.3393 0.0
C421 C 0.21186 0.00626 0.32175 0.0
H422 H 0.21445 0.98326 0.40633 0.0
H423 H 0.25833 0.01853 0.32753 0.0
H424 H 0.25994 0.9435 0.43502 0.0
H425 H 0.22793 0.88668 0.36481 0.0
H426 H 0.33313 0.09024 0.38973 0.0
H427 H 0.16801 0.97452 0.3773 0.0
H428 H 0.21265 0.01044 0.29736 0.0
C429 C 0.17144 0.49766 0.88813 0.0
C430 C 0.14695 0.50905 0.87205 0.0
N431 N 0.15456 0.50995 0.8423 0.0
N432 N 0.19432 0.49112 0.86856 0.0
C433 C 0.18321 0.49874 0.8407 0.0
H434 H 0.17302 0.49585 0.9127 0.0
Co435 Co 0.23387 0.47941 0.88025 0.0
C436 C 0.26723 0.4996 0.82349 0.0
O437 O 0.2854 0.51764 0.839 0.0
N438 N 0.27424 0.46716 0.89248 0.0
C439 C 0.32299 0.46648 0.90804 0.0
C440 C 0.29939 0.48448 0.89741 0.0
C441 C 0.28356 0.43865 0.90029 0.0
N442 N 0.31289 0.4376 0.90993 0.0
O443 O 0.22235 0.43738 0.87408 0.0
H444 H 0.30061 0.5089 0.89428 0.0
H445 H 0.26903 0.4188 0.89985 0.0
O446 O 0.24738 0.48332 0.83741 0.0
C447 C 0.20901 0.42987 0.89897 0.0
O448 O 0.20903 0.44959 0.92157 0.0
N449 N 0.24155 0.52036 0.89039 0.0
C450 C 0.22292 0.57466 0.91805 0.0
C451 C 0.22503 0.5725 0.88608 0.0
C452 C 0.23389 0.54489 0.87262 0.0
C453 C 0.24286 0.5233 0.92137 0.0
C454 C 0.23385 0.55027 0.93566 0.0
H455 H 0.23091 0.54237 0.84828 0.0
H456 H 0.2473 0.50342 0.93534 0.0
H457 H 0.19612 0.49732 0.81971 0.0
H458 H 0.12587 0.51773 0.88166 0.0
H459 H 0.34578 0.47412 0.91378 0.0
H460 H 0.21735 0.59101 0.87158 0.0
H461 H 0.23243 0.55074 0.96035 0.0
C462 C 0.76104 0.57765 0.35976 0.0
C463 C 0.77802 0.60117 0.37166 0.0
N464 N 0.77851 0.59817 0.40225 0.0
N465 N 0.75074 0.55985 0.38271 0.0
C466 C 0.76138 0.57336 0.40844 0.0
H467 H 0.7582 0.57268 0.33576 0.0
Co468 Co 0.7333 0.52104 0.37665 0.0
C469 C 0.75101 0.49217 0.43671 0.0
O470 O 0.76628 0.47058 0.42264 0.0
N471 N 0.71533 0.48163 0.36977 0.0
C472 C 0.7082 0.43228 0.35861 0.0
C473 C 0.72871 0.45374 0.36897 0.0
C474 C 0.68655 0.4761 0.35974 0.0
N475 N 0.68163 0.44645 0.35269 0.0
O476 O 0.69325 0.53886 0.3823 0.0
H477 H 0.75261 0.44927 0.37312 0.0
H478 H 0.66953 0.4936 0.35641 0.0
O479 O 0.73708 0.51251 0.42095 0.0
C480 C 0.68622 0.55156 0.35691 0.0
O481 O 0.70477 0.54801 0.33361 0.0
N482 N 0.77251 0.50633 0.36671 0.0
C483 C 0.82407 0.52135 0.33301 0.0
C484 C 0.82453 0.52347 0.365 0.0
C485 C 0.79843 0.51534 0.38166 0.0
C486 C 0.77358 0.49977 0.33627 0.0
C487 C 0.79946 0.50649 0.31907 0.0
H488 H 0.79759 0.52127 0.40558 0.0
H489 H 0.75287 0.49378 0.32422 0.0
H490 H 0.75898 0.56392 0.43109 0.0
H491 H 0.79007 0.61845 0.35875 0.0
H492 H 0.71325 0.40861 0.35368 0.0
H493 H 0.84322 0.53475 0.37662 0.0
H494 H 0.79858 0.50384 0.29448 0.0
C495 C 0.83108 1.00456 0.90241 0.0
C496 C 0.85655 0.99102 0.89009 0.0
N497 N 0.85342 0.99087 0.85954 0.0
N498 N 0.8121 0.01326 0.87971 0.0
C499 C 0.82637 1.00444 0.85374 0.0
H500 H 0.82611 0.00665 0.92649 0.0
Co501 Co 0.77309 0.02958 0.88624 0.0
C502 C 0.74463 0.01413 0.82543 0.0
O503 O 0.72249 0.99862 0.83832 0.0
N504 N 0.73335 0.0466 0.89385 0.0
C505 C 0.68419 0.05326 0.90651 0.0
C506 C 0.70572 0.03284 0.89569 0.0
C507 C 0.72759 0.07544 0.90351 0.0
N508 N 0.69818 0.08007 0.91161 0.0
O509 O 0.7902 0.07 0.882 0.0
H510 H 0.70158 0.00891 0.89147 0.0
H511 H 0.74476 0.09288 0.90584 0.0
O512 O 0.76474 0.02748 0.84191 0.0
C513 C 0.80185 0.07664 0.90795 0.0
O514 O 0.79755 0.05754 0.93069 0.0
N515 N 0.7594 0.98973 0.89438 0.0
C516 C 0.77462 0.93455 0.92205 0.0
C517 C 0.77396 0.93709 0.89009 0.0
C518 C 0.7668 0.96513 0.87663 0.0
C519 C 0.75534 0.98616 0.92506 0.0
C520 C 0.76285 0.95868 0.93943 0.0
H521 H 0.77193 0.96791 0.85271 0.0
H522 H 0.75083 0.00596 0.9391 0.0
H523 H 0.81691 0.00701 0.83106 0.0
H524 H 0.87525 0.98077 0.90264 0.0
H525 H 0.6607 0.04809 0.91218 0.0
H526 H 0.78241 0.91874 0.87582 0.0
H527 H 0.76302 0.95773 0.96415 0.0
C528 C 0.15761 0.25409 0.08204 0.0
C529 C 0.14714 0.23893 0.10745 0.0
N530 N 0.11687 0.23445 0.1042 0.0
N531 N 0.13406 0.25939 0.06288 0.0
C532 C 0.10939 0.24767 0.07738 0.0
H533 H 0.18122 0.25923 0.07705 0.0
Co534 Co 0.13865 0.2728 0.02246 0.0
C535 C 0.07708 0.25425 0.99754 0.0
O536 O 0.08972 0.23697 0.97658 0.0
N537 N 0.14401 0.28673 0.98116 0.0
C538 C 0.15445 0.28905 0.93111 0.0
C539 C 0.14603 0.27031 0.955 0.0
C540 C 0.15076 0.31553 0.97205 0.0
N541 N 0.15754 0.31749 0.94204 0.0
O542 O 0.13443 0.31428 0.03676 0.0
H543 H 0.14295 0.24591 0.9533 0.0
H544 H 0.15206 0.33491 0.98717 0.0
O545 O 0.09404 0.26927 0.01602 0.0
C546 C 0.16144 0.32215 0.04471 0.0
O547 O 0.18403 0.30357 0.03793 0.0
N548 N 0.14754 0.23225 0.01145 0.0
C549 C 0.1798 0.18068 0.02967 0.0
C550 C 0.14781 0.18118 0.0314 0.0
C551 C 0.1319 0.20733 0.02191 0.0
C552 C 0.17815 0.23027 1.00589 0.0
C553 C 0.1947 0.20452 0.01457 0.0
H554 H 0.10793 0.209 0.02744 0.0
H555 H 0.19064 0.25037 0.99892 0.0
H556 H 0.08678 0.24649 0.06747 0.0
H557 H 0.16096 0.23098 0.12635 0.0
H558 H 0.15839 0.28218 0.9077 0.0
H559 H 0.13561 0.16319 0.04318 0.0
H560 H 0.21939 0.20483 0.01281 0.0
C561 C 0.14466 0.75509 0.43277 0.0
C562 C 0.13104 0.76654 0.40689 0.0
N563 N 0.10058 0.76612 0.41102 0.0
N564 N 0.12289 0.74726 0.4531 0.0
C565 C 0.09616 0.75395 0.43899 0.0
H566 H 0.16896 0.75418 0.43716 0.0
Co567 Co 0.13079 0.73488 0.49342 0.0
C568 C 0.07039 0.75942 0.51801 0.0
O569 O 0.08346 0.78245 0.53195 0.0
N570 N 0.1393 0.72155 0.53421 0.0
C571 C 0.14306 0.71613 0.5849 0.0
C572 C 0.1304 0.73305 0.56147 0.0
C573 C 0.15774 0.69791 0.54201 0.0
N574 N 0.16028 0.69395 0.57251 0.0
O575 O 0.12495 0.69294 0.48074 0.0
H576 H 0.1164 0.75298 0.56457 0.0
H577 H 0.16938 0.68358 0.52575 0.0
O578 O 0.08655 0.73967 0.50356 0.0
C579 C 0.15092 0.6852 0.46971 0.0
O580 O 0.17324 0.70522 0.47087 0.0
N581 N 0.14145 0.77568 0.50308 0.0
C582 C 0.17595 0.82682 0.48755 0.0
C583 C 0.14445 0.82635 0.48206 0.0
C584 C 0.12755 0.80042 0.48985 0.0
C585 C 0.1713 0.77762 0.51198 0.0
C586 C 0.18896 0.80307 0.50453 0.0
H587 H 0.10448 0.79882 0.48129 0.0
H588 H 0.18289 0.75777 0.52096 0.0
H589 H 0.07392 0.75121 0.44935 0.0
H590 H 0.14265 0.77611 0.38728 0.0
H591 H 0.14048 0.72044 0.6091 0.0
H592 H 0.13371 0.84416 0.46863 0.0
H593 H 0.21329 0.80267 0.50907 0.0
C594 C 0.00871 0.61039 0.82486 0.0
C595 C 0.02235 0.62194 0.85073 0.0
N596 N 0.02262 0.65258 0.84853 0.0
N597 N 1.00028 0.63367 0.80653 0.0
C598 C 0.00856 0.65915 0.8219 0.0
H599 H 0.00673 0.58652 0.81894 0.0
Co600 Co 0.98624 0.62923 0.76631 0.0
C601 C 0.01186 0.6908 0.74579 0.0
O602 O 0.03406 0.67869 0.72967 0.0
N603 N 0.97131 0.62428 0.72588 0.0
C604 C 0.95867 0.62813 0.67664 0.0
C605 C 0.9762 0.64018 0.69988 0.0
C606 C 0.95102 0.60256 0.71756 0.0
N607 N 0.9429 0.60428 0.68782 0.0
O608 O 0.945 0.6363 0.78048 0.0
H609 H 0.99094 0.65966 0.69759 0.0
H610 H 0.94169 0.58619 0.73331 0.0
O611 O 0.99236 0.67366 0.75932 0.0
C612 C 0.93433 0.61104 0.79051 0.0
O613 O 0.95178 0.58665 0.78959 0.0
N614 N 0.02627 0.61776 0.7543 0.0
C615 C 0.07764 0.58112 0.76377 0.0
C616 C 0.07802 0.61204 0.77196 0.0
C617 C 0.05203 0.63 0.76713 0.0
C618 C 0.02707 0.58872 0.74297 0.0
C619 C 0.05257 0.57007 0.74733 0.0
H620 H 0.05143 0.6523 0.77757 0.0
H621 H 0.00654 0.57826 0.73426 0.0
H622 H 1.00555 0.68209 0.81333 0.0
H623 H 0.03278 0.60882 0.86892 0.0
H624 H 0.95733 0.63657 0.65344 0.0
H625 H 0.09667 0.62132 0.7853 0.0
H626 H 0.05137 0.54624 0.74081 0.0
C627 C 0.86878 0.77735 0.42564 0.0
C628 C 0.88118 0.76481 0.39968 0.0
N629 N 0.90755 0.75086 0.4073 0.0
N630 N 0.88739 0.77168 0.44952 0.0
C631 C 0.91106 0.75584 0.43748 0.0
H632 H 0.847 0.78888 0.42711 0.0
Co633 Co 0.87848 0.78052 0.49025 0.0
C634 C 0.93719 0.76224 0.5209 0.0
O635 O 0.9227 0.7468 0.54211 0.0
N636 N 0.86878 0.7899 0.53224 0.0
C637 C 0.84975 0.7872 0.57968 0.0
C638 C 0.85948 0.77071 0.55469 0.0
C639 C 0.86523 0.81796 0.54496 0.0
N640 N 0.85313 0.817 0.57335 0.0
O641 O 0.88356 0.8232 0.48083 0.0
H642 H 0.8587 0.74613 0.55299 0.0
H643 H 0.8699 0.83914 0.53326 0.0
O644 O 0.92212 0.77641 0.50026 0.0
C645 C 0.85685 0.83329 0.47459 0.0
O646 O 0.83346 0.81517 0.47957 0.0
N647 N 0.86918 0.73903 0.49588 0.0
C648 C 0.84303 0.6834 0.47876 0.0
C649 C 0.87464 0.68571 0.48423 0.0
C650 C 0.88744 0.71397 0.49212 0.0
C651 C 0.83825 0.73631 0.49373 0.0
C652 C 0.82473 0.70885 0.48527 0.0
H653 H 0.91196 0.71596 0.49224 0.0
H654 H 0.82411 0.75646 0.4957 0.0
H655 H 0.92972 0.74657 0.45078 0.0
H656 H 0.87114 0.76533 0.3771 0.0
H657 H 0.84033 0.77797 0.60058 0.0
H658 H 0.88968 0.66646 0.48043 0.0
H659 H 0.80032 0.70851 0.48125 0.0
C660 C 0.49644 0.39992 0.3274 0.0
C661 C 0.48135 0.38778 0.35206 0.0
N662 N 0.48194 0.35714 0.34968 0.0
N663 N 0.50648 0.37709 0.30935 0.0
C664 C 0.49771 0.35121 0.32383 0.0
H665 H 0.49803 0.4239 0.32184 0.0
Co666 Co 0.52186 0.3832 0.26975 0.0
C667 C 0.5012 0.32129 0.2459 0.0
O668 O 0.4791 0.33291 0.2293 0.0
N669 N 0.53806 0.39 0.22973 0.0
C670 C 0.54581 0.39328 0.17932 0.0
C671 C 0.52707 0.38191 0.20201 0.0
C672 C 0.56328 0.4066 0.22297 0.0
N673 N 0.56863 0.40886 0.19267 0.0
O674 O 0.56276 0.37845 0.28574 0.0
H675 H 0.5061 0.36972 0.19811 0.0
H676 H 0.57765 0.41731 0.23979 0.0
O677 O 0.51887 0.33873 0.26141 0.0
C678 C 0.56997 0.40469 0.29631 0.0
O679 O 0.55021 0.42708 0.2931 0.0
N680 N 0.48172 0.39257 0.2565 0.0
C681 C 0.43053 0.42744 0.27095 0.0
C682 C 0.43047 0.39587 0.27597 0.0
C683 C 0.45636 0.3787 0.26847 0.0
C684 C 0.48007 0.4223 0.24725 0.0
C685 C 0.45453 0.44013 0.25408 0.0
H686 H 0.45755 0.3556 0.27695 0.0
H687 H 0.50025 0.43375 0.23889 0.0
H688 H 0.50036 0.3286 0.31434 0.0
H689 H 0.4696 0.40056 0.36966 0.0
H690 H 0.54218 0.39123 0.15496 0.0
H691 H 0.41236 0.38525 0.28905 0.0
H692 H 0.45518 0.46442 0.24947 0.0
C693 C 0.37249 0.75449 0.58874 0.0
C694 C 0.38782 0.76581 0.6137 0.0
N695 N 0.41802 0.76385 0.6082 0.0
N696 N 0.39295 0.74526 0.56763 0.0
C697 C 0.42055 0.75096 0.58035 0.0
H698 H 0.34799 0.75428 0.58558 0.0
Co699 Co 0.38327 0.73135 0.52825 0.0
C700 C 0.44128 0.75596 0.49937 0.0
O701 O 0.42699 0.7775 0.4842 0.0
N702 N 0.37341 0.71662 0.48847 0.0
C703 C 0.36471 0.71157 0.43839 0.0
C704 C 0.37592 0.73048 0.46095 0.0
C705 C 0.36045 0.68938 0.4818 0.0
N706 N 0.35497 0.68568 0.45166 0.0
O707 O 0.39157 0.69023 0.54189 0.0
H708 H 0.38443 0.75326 0.4573 0.0
H709 H 0.35443 0.67251 0.49871 0.0
O710 O 0.42633 0.73702 0.51587 0.0
C711 C 0.3675 0.6825 0.55651 0.0
O712 O 0.34396 0.70115 0.5561 0.0
N713 N 0.37085 0.77142 0.51784 0.0
C714 C 0.33646 0.82386 0.52939 0.0
C715 C 0.36807 0.8236 0.5347 0.0
C716 C 0.38491 0.79707 0.5288 0.0
C717 C 0.3407 0.77246 0.5099 0.0
C718 C 0.32322 0.79856 0.51507 0.0
H719 H 0.40826 0.79609 0.53675 0.0
H720 H 0.32901 0.75187 0.50302 0.0
H721 H 0.44215 0.74659 0.5692 0.0
H722 H 0.37758 0.77615 0.63369 0.0
H723 H 0.36411 0.71641 0.41416 0.0
H724 H 0.37907 0.84237 0.54642 0.0
H725 H 0.29885 0.79782 0.51076 0.0
C726 C 0.01055 0.40636 0.68086 0.0
C727 C 0.02635 0.39391 0.65676 0.0
N728 N 0.02749 0.36341 0.66057 0.0
N729 N 1.00169 0.38386 0.69992 0.0
C730 C 0.01209 0.35791 0.68672 0.0
H731 H 0.00749 0.43045 0.68524 0.0
Co732 Co 0.98551 0.39011 0.73921 0.0
C733 C 0.00936 0.33036 0.76571 0.0
O734 O 0.02857 0.34371 0.78441 0.0
N735 N 0.96896 0.39659 0.7791 0.0
C736 C 0.96422 0.40515 0.82926 0.0
C737 C 0.98375 0.39611 0.80629 0.0
C738 C 0.94026 0.40563 0.78649 0.0
N739 N 0.93684 0.41088 0.81671 0.0
O740 O 0.94521 0.38177 0.7232 0.0
H741 H 0.00768 0.39096 0.80933 0.0
H742 H 0.92227 0.4095 0.77003 0.0
O743 O 0.99177 0.34637 0.74866 0.0
C744 C 0.93662 0.40649 0.71016 0.0
O745 O 0.95416 0.43066 0.71271 0.0
N746 N 0.0246 0.40289 0.75204 0.0
C747 C 0.07559 0.43941 0.74125 0.0
C748 C 0.07725 0.40765 0.73731 0.0
C749 C 0.05138 0.38968 0.7428 0.0
C750 C 0.02382 0.43323 0.75909 0.0
C751 C 0.04915 0.45183 0.7542 0.0
H752 H 0.05184 0.36618 0.73544 0.0
H753 H 1.00231 0.44402 0.76469 0.0
H754 H 0.01069 0.33565 0.69724 0.0
H755 H 0.03725 0.40647 0.63847 0.0
H756 H 0.96975 0.40765 0.85323 0.0
H757 H 0.09704 0.39726 0.72668 0.0
H758 H 0.04695 0.47626 0.7574 0.0
C759 C 0.01197 0.11834 0.68072 0.0
C760 C 0.99885 0.13024 0.65479 0.0
N761 N 0.99766 0.16077 0.65773 0.0
N762 N 0.01933 0.14127 0.6999 0.0
C763 C 0.0107 0.16698 0.68496 0.0
H764 H 0.01389 0.09436 0.68618 0.0
Co765 Co 0.03115 0.13527 0.74074 0.0
C766 C 0.00766 0.1972 0.76261 0.0
O767 O 0.98548 0.18487 0.77858 0.0
N768 N 0.04374 0.12836 0.78201 0.0
C769 C 0.05549 0.13165 0.83154 0.0
C770 C 0.04004 0.14511 0.80768 0.0
C771 C 0.06146 0.10469 0.7913 0.0
N772 N 0.06904 0.10612 0.82122 0.0
O773 O 0.07367 0.13971 0.72875 0.0
H774 H 0.02809 0.16644 0.80939 0.0
H775 H 0.06982 0.0873 0.77607 0.0
O776 O 0.02694 0.18018 0.74843 0.0
C777 C 0.08231 0.11331 0.71961 0.0
O778 O 0.06228 0.09102 0.7199 0.0
N779 N 0.98997 0.12603 0.75022 0.0
C780 C 0.93705 0.09385 0.735 0.0
C781 C 0.93893 0.12538 0.72992 0.0
C782 C 0.9657 0.141 0.73732 0.0
C783 C 0.98692 0.09621 0.75876 0.0
C784 C 0.96067 0.07965 0.75133 0.0
H785 H 0.96806 0.16398 0.72887 0.0
H786 H 0.00643 0.08378 0.76734 0.0
H787 H 0.01216 0.18968 0.69449 0.0
H788 H 0.98899 0.11735 0.63615 0.0
H789 H 0.0574 0.14056 0.85451 0.0
H790 H 0.92118 0.13725 0.71737 0.0
H791 H 0.96056 0.05524 0.75517 0.0
C792 C 0.58697 0.64767 0.76341 0.0
C793 C 0.61266 0.63531 0.75021 0.0
N794 N 0.6068 0.60595 0.74334 0.0
N795 N 0.56511 0.62611 0.76534 0.0
C796 C 0.57807 0.60082 0.75321 0.0
H797 H 0.58394 0.67131 0.76979 0.0
Co798 Co 0.52469 0.63363 0.77721 0.0
C799 C 0.49414 0.57569 0.75559 0.0
O800 O 0.47376 0.5913 0.74015 0.0
N801 N 0.48329 0.64238 0.78977 0.0
C802 C 0.43436 0.6578 0.79003 0.0
C803 C 0.45802 0.64682 0.77233 0.0
C804 C 0.4739 0.65095 0.81805 0.0
N805 N 0.44462 0.66058 0.81873 0.0
O806 O 0.53654 0.6256 0.81883 0.0
H807 H 0.45714 0.64464 0.74778 0.0
H808 H 0.48837 0.65181 0.83794 0.0
O809 O 0.51467 0.58992 0.77077 0.0
C810 C 0.54608 0.6509 0.82974 0.0
O811 O 0.5431 0.67563 0.81299 0.0
N812 N 0.51626 0.64529 0.73681 0.0
C813 C 0.53533 0.67629 0.68481 0.0
C814 C 0.53533 0.64428 0.68547 0.0
C815 C 0.5253 0.62905 0.71173 0.0
C816 C 0.51319 0.67624 0.73518 0.0
C817 C 0.52223 0.69221 0.70915 0.0
H818 H 0.52895 0.60474 0.71319 0.0
H819 H 0.50745 0.68901 0.75552 0.0
H820 H 0.56638 0.57936 0.75049 0.0
H821 H 0.63348 0.64739 0.74462 0.0
H822 H 0.41223 0.66541 0.782 0.0
H823 H 0.5457 0.63135 0.66711 0.0
H824 H 0.52234 0.71694 0.70954 0.0
C825 C 0.9 0.177 0.50278 0.0
C826 C 0.88785 0.1505 0.51446 0.0
N827 N 0.85726 0.15331 0.51452 0.0
N828 N 0.87711 0.19634 0.49541 0.0
C829 C 0.85129 0.18112 0.50282 0.0
H830 H 0.92404 0.18236 0.501 0.0
Co831 Co 0.8825 0.23643 0.48142 0.0
C832 C 0.82236 0.26487 0.50102 0.0
O833 O 0.83593 0.28775 0.51464 0.0
N834 N 0.88886 0.27732 0.46662 0.0
C835 C 0.90092 0.32689 0.46319 0.0
C836 C 0.89197 0.3037 0.48249 0.0
C837 C 0.896 0.28555 0.43759 0.0
N838 N 0.90332 0.3154 0.43488 0.0
O839 O 0.87568 0.22195 0.4404 0.0
H840 H 0.88967 0.30592 0.50695 0.0
H841 H 0.89765 0.26972 0.41882 0.0
O842 O 0.83816 0.24434 0.48743 0.0
C843 C 0.90142 0.2109 0.43205 0.0
O844 O 0.92514 0.21467 0.45005 0.0
N845 N 0.89348 0.24762 0.52125 0.0
C846 C 0.92692 0.23383 0.5736 0.0
C847 C 0.89492 0.23105 0.57354 0.0
C848 C 0.87844 0.23823 0.54695 0.0
C849 C 0.92406 0.25342 0.52219 0.0
C850 C 0.94111 0.24715 0.54827 0.0
H851 H 0.85457 0.23211 0.54582 0.0
H852 H 0.93608 0.25922 0.50141 0.0
H853 H 0.82853 0.19032 0.50049 0.0
H854 H 0.90048 0.13136 0.52373 0.0
H855 H 0.90616 0.35014 0.46964 0.0
H856 H 0.88319 0.22033 0.59248 0.0
H857 H 0.96573 0.24961 0.54744 0.0
C858 C 0.43538 0.8556 0.74669 0.0
C859 C 0.41118 0.86543 0.72921 0.0
N860 N 0.41166 0.89619 0.72824 0.0
N861 N 0.45096 0.87996 0.7572 0.0
C862 C 0.43552 0.90432 0.74611 0.0
H863 H 0.44214 0.83211 0.75014 0.0
Co864 Co 0.48945 0.87791 0.77642 0.0
C865 C 0.51241 0.93931 0.75295 0.0
O866 O 0.53381 0.92655 0.73625 0.0
N867 N 0.528 0.87486 0.79654 0.0
C868 C 0.57415 0.88201 0.81704 0.0
C869 C 0.55244 0.8937 0.79759 0.0
C870 C 0.53559 0.85203 0.81606 0.0
N871 N 0.56362 0.85568 0.82871 0.0
O872 O 0.47016 0.88456 0.81563 0.0
H873 H 0.55459 0.9153 0.78627 0.0
H874 H 0.52021 0.83364 0.82178 0.0
O875 O 0.49506 0.92286 0.76992 0.0
C876 C 0.45842 0.8592 0.82415 0.0
O877 O 0.46177 0.83526 0.80642 0.0
N878 N 0.50663 0.86678 0.7384 0.0
C879 C 0.49879 0.82982 0.68728 0.0
C880 C 0.49319 0.86125 0.68545 0.0
C881 C 0.49712 0.87942 0.71138 0.0
C882 C 0.51643 0.8372 0.73903 0.0
C883 C 0.5126 0.81824 0.7137 0.0
H884 H 0.48772 0.90218 0.71076 0.0
H885 H 0.52264 0.8267 0.76046 0.0
H886 H 0.44265 0.92758 0.74957 0.0
H887 H 0.39484 0.85082 0.71789 0.0
H888 H 0.5958 0.89252 0.82266 0.0
H889 H 0.48193 0.87093 0.66564 0.0
H890 H 0.51703 0.79401 0.71599 0.0
C891 C 0.11774 0.33663 0.49272 0.0
C892 C 0.12923 0.3633 0.50462 0.0
N893 N 0.15819 0.35816 0.5137 0.0
N894 N 0.1393 0.31471 0.49422 0.0
C895 C 0.16367 0.32855 0.50725 0.0
H896 H 0.09465 0.33312 0.48473 0.0
Co897 Co 0.13242 0.27383 0.48419 0.0
C898 C 0.19108 0.24272 0.50201 0.0
O899 O 0.17549 0.22008 0.51385 0.0
N900 N 0.12406 0.23171 0.47344 0.0
C901 C 0.10435 0.18453 0.47502 0.0
C902 C 0.11505 0.20865 0.49208 0.0
C903 C 0.1193 0.22009 0.44502 0.0
N904 N 0.10713 0.19181 0.44543 0.0
O905 O 0.13814 0.28433 0.4419 0.0
H906 H 0.11439 0.20962 0.51671 0.0
H907 H 0.12257 0.2326 0.42406 0.0
O908 O 0.17673 0.26505 0.48964 0.0
C909 C 0.11166 0.29026 0.43103 0.0
O910 O 0.0876 0.2853 0.44825 0.0
N911 N 0.12266 0.2669 0.52516 0.0
C912 C 0.09496 0.2844 0.5797 0.0
C913 C 0.12696 0.28262 0.57746 0.0
C914 C 0.14049 0.2737 0.54984 0.0
C915 C 0.09165 0.26627 0.5278 0.0
C916 C 0.07734 0.27458 0.55491 0.0
H917 H 0.16494 0.27582 0.54748 0.0
H918 H 0.07779 0.26243 0.50771 0.0
H919 H 0.18464 0.31701 0.51307 0.0
H920 H 0.11668 0.38436 0.50777 0.0
H921 H 0.09335 0.16417 0.48369 0.0
H922 H 0.14133 0.2904 0.59602 0.0
H923 H 0.05266 0.27642 0.55523 0.0
C924 C 0.59305 0.37137 0.74987 0.0
C925 C 0.61886 0.38552 0.76088 0.0
N926 N 0.61356 0.41578 0.76165 0.0
N927 N 0.57158 0.39261 0.74376 0.0
C928 C 0.58492 0.41947 0.75098 0.0
H929 H 0.5895 0.34702 0.7482 0.0
Co930 Co 0.53106 0.38366 0.73368 0.0
C931 C 0.49778 0.44253 0.74436 0.0
O932 O 0.47486 0.42764 0.75654 0.0
N933 N 0.48942 0.3733 0.72274 0.0
C934 C 0.44112 0.3564 0.72337 0.0
C935 C 0.46545 0.36597 0.74089 0.0
C936 C 0.47847 0.36806 0.69416 0.0
N937 N 0.44949 0.35729 0.69383 0.0
O938 O 0.54251 0.38472 0.69126 0.0
H939 H 0.46537 0.36716 0.76554 0.0
H940 H 0.49177 0.37087 0.67362 0.0
O941 O 0.52099 0.42788 0.73418 0.0
C942 C 0.54993 0.35729 0.68451 0.0
O943 O 0.54628 0.33613 0.7055 0.0
N944 N 0.52328 0.37875 0.77548 0.0
C945 C 0.54382 0.35804 0.832 0.0
C946 C 0.5424 0.38943 0.82579 0.0
C947 C 0.53162 0.39945 0.79732 0.0
C948 C 0.52206 0.34843 0.78231 0.0
C949 C 0.5317 0.33763 0.81064 0.0
H950 H 0.53402 0.42331 0.79167 0.0
H951 H 0.51704 0.33213 0.76447 0.0
H952 H 0.57354 0.44127 0.74992 0.0
H953 H 0.63911 0.37429 0.7696 0.0
H954 H 0.41907 0.34931 0.73194 0.0
H955 H 0.55171 0.40581 0.84178 0.0
H956 H 0.53276 0.31322 0.81448 0.0
C957 C 0.61447 0.17593 0.4994 0.0
C958 C 0.62729 0.15242 0.48307 0.0
N959 N 0.65764 0.15712 0.48133 0.0
N960 N 0.63658 0.1955 0.50812 0.0
C961 C 0.66271 0.18321 0.49693 0.0
H962 H 0.59028 0.17963 0.50269 0.0
Co963 Co 0.62894 0.2346 0.52419 0.0
C964 C 0.68861 0.26502 0.50727 0.0
O965 O 0.67426 0.28634 0.49187 0.0
N966 N 0.62059 0.27443 0.54064 0.0
C967 C 0.60765 0.32362 0.54568 0.0
C968 C 0.61809 0.30152 0.5259 0.0
C969 C 0.61156 0.28111 0.56951 0.0
N970 N 0.60344 0.31068 0.57317 0.0
O971 O 0.63405 0.21825 0.56503 0.0
H972 H 0.62155 0.30493 0.50172 0.0
H973 H 0.60989 0.26453 0.58762 0.0
O974 O 0.6731 0.24435 0.52099 0.0
C975 C 0.60824 0.20641 0.57209 0.0
O976 O 0.58556 0.2094 0.55264 0.0
N977 N 0.61923 0.24757 0.48447 0.0
C978 C 0.58756 0.23176 0.43179 0.0
C979 C 0.61963 0.23146 0.43207 0.0
C980 C 0.63523 0.2397 0.45882 0.0
C981 C 0.58837 0.2517 0.48304 0.0
C982 C 0.5721 0.24418 0.45681 0.0
H983 H 0.65945 0.2352 0.4601 0.0
H984 H 0.57567 0.25649 0.50367 0.0
H985 H 0.68461 0.19451 0.49767 0.0
H986 H 0.615 0.134 0.47212 0.0
H987 H 0.60167 0.34683 0.53966 0.0
H988 H 0.63229 0.22162 0.41324 0.0
H989 H 0.54735 0.24469 0.45739 0.0
C990 C 0.43179 0.15143 0.76401 0.0
C991 C 0.4084 0.14037 0.78174 0.0
N992 N 0.41183 0.10994 0.78452 0.0
N993 N 0.45 0.12818 0.75527 0.0
C994 C 0.43712 0.10311 0.76806 0.0
H995 H 0.43634 0.17526 0.75964 0.0
Co996 Co 0.48888 0.13394 0.73761 0.0
C997 C 0.51766 0.0725 0.74999 0.0
O998 O 0.54162 0.08531 0.76258 0.0
N999 N 0.5285 0.14097 0.71978 0.0
C1000 C 0.57807 0.15192 0.71349 0.0
C1001 C 0.55597 0.1429 0.73394 0.0
C1002 C 0.53493 0.14926 0.69057 0.0
N1003 N 0.56475 0.15622 0.68618 0.0
O1004 O 0.47094 0.13009 0.69746 0.0
H1005 H 0.5599 0.13916 0.75801 0.0
H1006 H 0.51795 0.15148 0.67286 0.0
O1007 O 0.49627 0.08938 0.73933 0.0
C1008 C 0.45901 0.15566 0.68996 0.0
O1009 O 0.46263 0.17908 0.70828 0.0
N1010 N 0.5038 0.14144 0.77689 0.0
C1011 C 0.49083 0.16903 0.83248 0.0
C1012 C 0.49128 0.13708 0.82998 0.0
C1013 C 0.49793 0.12358 0.80181 0.0
C1014 C 0.5075 0.17213 0.78006 0.0
C1015 C 0.50117 0.18643 0.80771 0.0
H1016 H 0.49369 0.09947 0.79928 0.0
H1017 H 0.51076 0.18613 0.75997 0.0
H1018 H 0.44751 0.08075 0.7676 0.0
H1019 H 0.3908 0.15389 0.79263 0.0
H1020 H 0.60204 0.15519 0.71854 0.0
H1021 H 0.48335 0.12288 0.84862 0.0
H1022 H 0.50053 0.21113 0.80828 0.0
C1023 C 0.39452 0.34187 0.51673 0.0
C1024 C 0.38236 0.36562 0.50014 0.0
N1025 N 0.3539 0.35783 0.49152 0.0
N1026 N 0.37375 0.31924 0.51892 0.0
C1027 C 0.34908 0.3299 0.50353 0.0
H1028 H 0.41772 0.3406 0.52501 0.0
Co1029 Co 0.38229 0.27963 0.53302 0.0
C1030 C 0.32426 0.24527 0.5193 0.0
O1031 O 0.34028 0.222 0.50938 0.0
N1032 N 0.39205 0.2391 0.54738 0.0
C1033 C 0.4097 0.19115 0.54982 0.0
C1034 C 0.40078 0.21447 0.53076 0.0
C1035 C 0.39581 0.22959 0.57668 0.0
N1036 N 0.40656 0.20068 0.57877 0.0
O1037 O 0.37686 0.29377 0.57467 0.0
H1038 H 0.40139 0.21332 0.50613 0.0
H1039 H 0.39239 0.244 0.59633 0.0
O1040 O 0.33817 0.26904 0.52917 0.0
C1041 C 0.40292 0.30386 0.58327 0.0
O1042 O 0.42637 0.30005 0.56495 0.0
N1043 N 0.39184 0.26912 0.49274 0.0
C1044 C 0.41844 0.28146 0.43625 0.0
C1045 C 0.38657 0.27831 0.43897 0.0
C1046 C 0.3736 0.27205 0.46758 0.0
C1047 C 0.42283 0.26957 0.48988 0.0
C1048 C 0.43661 0.2754 0.46187 0.0
H1049 H 0.34908 0.2731 0.46987 0.0
H1050 H 0.43693 0.26861 0.51015 0.0
H1051 H 0.3289 0.31662 0.49891 0.0
H1052 H 0.39394 0.38657 0.49407 0.0
H1053 H 0.41854 0.16914 0.54289 0.0
H1054 H 0.37175 0.28315 0.41975 0.0
H1055 H 0.46115 0.27844 0.46117 0.0
C1056 C 0.76127 0.58345 0.6458 0.0
C1057 C 0.74642 0.60854 0.63408 0.0
N1058 N 0.74531 0.60574 0.60346 0.0
N1059 N 0.76929 0.56477 0.6227 0.0
C1060 C 0.76003 0.57946 0.59709 0.0
H1061 H 0.76387 0.57796 0.66975 0.0
Co1062 Co 0.78189 0.5243 0.62847 0.0
C1063 C 0.76069 0.49496 0.56993 0.0
O1064 O 0.7478 0.47234 0.58464 0.0
N1065 N 0.79523 0.48275 0.63528 0.0
C1066 C 0.7971 0.43375 0.6499 0.0
C1067 C 0.7784 0.45737 0.64075 0.0
C1068 C 0.82423 0.47327 0.64081 0.0
N1069 N 0.82603 0.44397 0.65039 0.0
O1070 O 0.82324 0.53705 0.62081 0.0
H1071 H 0.75377 0.45614 0.63979 0.0
H1072 H 0.84393 0.48783 0.63933 0.0
O1073 O 0.77474 0.51596 0.58459 0.0
C1074 C 0.83423 0.54554 0.64651 0.0
O1075 O 0.81743 0.54218 0.67114 0.0
N1076 N 0.7418 0.51479 0.64013 0.0
C1077 C 0.68991 0.53094 0.6732 0.0
C1078 C 0.69007 0.53304 0.64115 0.0
C1079 C 0.71632 0.52451 0.62487 0.0
C1080 C 0.74077 0.5098 0.67085 0.0
C1081 C 0.71484 0.51708 0.68771 0.0
H1082 H 0.71751 0.5299 0.60083 0.0
H1083 H 0.7614 0.50363 0.68299 0.0
H1084 H 0.76184 0.57012 0.5744 0.0
H1085 H 0.73566 0.62655 0.64716 0.0
H1086 H 0.7897 0.4111 0.65634 0.0
H1087 H 0.67154 0.54416 0.62908 0.0
H1088 H 0.71556 0.51486 0.71235 0.0
C1089 C 0.83898 0.99857 0.61837 0.0
C1090 C 0.86421 0.01274 0.63034 0.0
N1091 N 0.85988 0.0166 0.66057 0.0
N1092 N 0.81869 0.99312 0.64087 0.0
C1093 C 0.83233 1.00396 0.66646 0.0
H1094 H 0.83478 0.99469 0.59436 0.0
Co1095 Co 0.77824 0.98018 0.63383 0.0
C1096 C 0.75357 0.00841 0.6927 0.0
O1097 O 0.73962 0.0307 0.67829 0.0
N1098 N 0.7377 0.96637 0.62615 0.0
C1099 C 0.68717 0.9595 0.62388 0.0
C1100 C 0.71043 0.97652 0.63652 0.0
C1101 C 0.73014 0.94333 0.60697 0.0
N1102 N 0.69967 0.93853 0.60528 0.0
O1103 O 0.79073 0.93862 0.64265 0.0
H1104 H 0.70708 0.99545 0.65173 0.0
H1105 H 0.74667 0.93018 0.59424 0.0
O1106 O 0.76802 0.98776 0.67767 0.0
C1107 C 0.80365 0.92862 0.6184 0.0
O1108 O 0.80388 0.94614 0.59405 0.0
N1109 N 0.76846 0.02026 0.62054 0.0
C1110 C 0.78249 0.07026 0.58357 0.0
C1111 C 0.78853 0.07103 0.61498 0.0
C1112 C 0.78138 0.0458 0.63309 0.0
C1113 C 0.75912 0.0208 0.59077 0.0
C1114 C 0.76557 0.04575 0.57197 0.0
H1115 H 0.78985 0.04559 0.65622 0.0
H1116 H 0.75011 1.00042 0.58025 0.0
H1117 H 0.82104 1.00543 0.68835 0.0
H1118 H 0.88349 0.0212 0.61739 0.0
H1119 H 0.66295 0.96295 0.62744 0.0
H1120 H 0.80161 0.0895 0.62492 0.0
H1121 H 0.75985 0.04458 0.54792 0.0
C1122 C 0.2527 0.92885 0.64608 0.0
C1123 C 0.26519 0.90327 0.63294 0.0
N1124 N 0.26708 0.90804 0.60267 0.0
N1125 N 0.24634 0.94957 0.62416 0.0
C1126 C 0.2553 0.93609 0.59781 0.0
H1127 H 0.25009 0.93271 0.67031 0.0
Co1128 Co 0.23369 0.98963 0.63233 0.0
C1129 C 0.24845 0.01922 0.57211 0.0
O1130 O 0.26485 0.04023 0.58574 0.0
N1131 N 0.22042 0.03053 0.64182 0.0
C1132 C 0.21905 0.07947 0.65681 0.0
C1133 C 0.23696 0.05654 0.64459 0.0
C1134 C 0.19248 0.03871 0.65254 0.0
N1135 N 0.19117 0.06796 0.66215 0.0
O1136 O 0.19193 0.97598 0.62975 0.0
H1137 H 0.26114 0.05848 0.64008 0.0
H1138 H 0.17336 0.02336 0.65465 0.0
O1139 O 0.2347 0.99897 0.5881 0.0
C1140 C 0.18608 0.96533 0.65631 0.0
O1141 O 0.20605 0.97011 0.67821 0.0
N1142 N 0.27484 0.99956 0.63885 0.0
C1143 C 0.329 0.9772 0.66371 0.0
C1144 C 0.32558 0.97985 0.63193 0.0
C1145 C 0.29809 0.99088 0.61985 0.0
C1146 C 0.27964 1.00132 0.66955 0.0
C1147 C 0.30654 0.99018 0.68249 0.0
H1148 H 0.29426 0.98802 0.59569 0.0
H1149 H 0.2608 0.00696 0.6845 0.0
H1150 H 0.25452 0.94699 0.57565 0.0
H1151 H 0.2739 0.88342 0.64486 0.0
H1152 H 0.22654 0.10211 0.66326 0.0
H1153 H 0.34275 0.97091 0.61654 0.0
H1154 H 0.30813 0.9887 0.70714 0.0
C1155 C 0.17821 0.51896 0.61968 0.0
C1156 C 0.15229 0.50829 0.63391 0.0
N1157 N 0.15761 0.50718 0.66421 0.0
N1158 N 0.19974 0.52461 0.64094 0.0
C1159 C 0.18627 0.51779 0.6679 0.0
H1160 H 0.18176 0.52084 0.59531 0.0
Co1161 Co 0.24048 0.53445 0.63281 0.0
C1162 C 0.26713 0.50728 0.69041 0.0
O1163 O 0.28248 0.48642 0.67534 0.0
N1164 N 0.28231 0.54512 0.62463 0.0
C1165 C 0.33218 0.54405 0.61299 0.0
C1166 C 0.30726 0.52693 0.62191 0.0
C1167 C 0.29324 0.5733 0.61797 0.0
N1168 N 0.3232 0.57325 0.61084 0.0
O1169 O 0.2305 0.57646 0.64109 0.0
H1170 H 0.30735 0.50247 0.62495 0.0
H1171 H 0.27955 0.59375 0.61727 0.0
O1172 O 0.25099 0.52697 0.676 0.0
C1173 C 0.22118 0.58688 0.6154 0.0
O1174 O 0.22314 0.56916 0.59128 0.0
N1175 N 0.24691 0.4937 0.62012 0.0
C1176 C 0.22981 0.44321 0.58513 0.0
C1177 C 0.2251 0.44342 0.61686 0.0
C1178 C 0.23395 0.46892 0.63406 0.0
C1179 C 0.25409 0.49245 0.58981 0.0
C1180 C 0.24667 0.46708 0.57217 0.0
H1181 H 0.22686 0.47015 0.65765 0.0
H1182 H 0.26268 0.51253 0.57832 0.0
H1183 H 0.19752 0.51941 0.68981 0.0
H1184 H 0.13179 0.5002 0.6227 0.0
H1185 H 0.35496 0.5357 0.60816 0.0
H1186 H 0.21212 0.42547 0.62783 0.0
H1187 H 0.25158 0.46748 0.54793 0.0
C1188 C 0.75179 0.4382 0.86337 0.0
C1189 C 0.73807 0.41286 0.87576 0.0
N1190 N 0.74056 0.41451 0.90638 0.0
N1191 N 0.76282 0.4559 0.88603 0.0
C1192 C 0.75576 0.44069 0.91203 0.0
H1193 H 0.75213 0.44423 0.83941 0.0
Co1194 Co 0.77928 0.49521 0.88029 0.0
C1195 C 0.75555 0.51921 0.94115 0.0
O1196 O 0.73514 0.53674 0.92784 0.0
N1197 N 0.79674 0.53454 0.8739 0.0
C1198 C 0.81043 0.58361 0.87502 0.0
C1199 C 0.79184 0.56168 0.88775 0.0
C1200 C 0.81841 0.54089 0.8527 0.0
N1201 N 0.82704 0.57054 0.85277 0.0
O1202 O 0.8197 0.47855 0.88672 0.0
H1203 H 0.77609 0.56583 0.90607 0.0
H1204 H 0.82825 0.52386 0.83784 0.0
O1205 O 0.77407 0.50345 0.92477 0.0
C1206 C 0.82676 0.46563 0.86148 0.0
O1207 O 0.80765 0.46801 0.83844 0.0
N1208 N 0.73984 0.50936 0.86923 0.0
C1209 C 0.68998 0.49629 0.832 0.0
C1210 C 0.68862 0.49048 0.86344 0.0
C1211 C 0.71384 0.49732 0.88181 0.0
C1212 C 0.73936 0.51954 0.83974 0.0
C1213 C 0.7145 0.51341 0.82074 0.0
H1214 H 0.71411 0.48818 0.90472 0.0
H1215 H 0.75992 0.52816 0.82924 0.0
H1216 H 0.76063 0.44901 0.93476 0.0
H1217 H 0.72575 0.39546 0.8633 0.0
H1218 H 0.81165 0.60737 0.88168 0.0
H1219 H 0.67004 0.47727 0.87303 0.0
H1220 H 0.71607 0.51882 0.79664 0.0
C1221 C 0.68056 0.99877 0.39168 0.0
C1222 C 0.6551 0.0125 0.37923 0.0
N1223 N 0.66011 0.01645 0.34918 0.0
N1224 N 0.70137 0.99381 0.36949 0.0
C1225 C 0.68797 1.00451 0.34381 0.0
H1226 H 0.68434 0.99432 0.41567 0.0
Co1227 Co 0.74175 0.98135 0.37629 0.0
C1228 C 0.77291 0.99616 0.31648 0.0
O1229 O 0.79643 0.00756 0.33106 0.0
N1230 N 0.7832 0.96833 0.38468 0.0
C1231 C 0.83084 0.9675 0.40368 0.0
C1232 C 0.80822 0.98548 0.39103 0.0
C1233 C 0.79204 0.93984 0.39306 0.0
N1234 N 0.82032 0.93882 0.40528 0.0
O1235 O 0.7287 0.93941 0.37196 0.0
H1236 H 0.80943 0.01003 0.38904 0.0
H1237 H 0.77754 0.92001 0.39241 0.0
O1238 O 0.75045 0.9851 0.33166 0.0
C1239 C 0.72083 0.93054 0.3987 0.0
O1240 O 0.72474 0.94956 0.42157 0.0
N1241 N 0.75138 0.02201 0.38477 0.0
C1242 C 0.73603 0.07742 0.41192 0.0
C1243 C 0.7364 0.07446 0.37992 0.0
C1244 C 0.74429 0.04642 0.36666 0.0
C1245 C 0.75385 0.02541 0.4156 0.0
C1246 C 0.74659 0.05295 0.42962 0.0
H1247 H 0.74085 0.04347 0.34243 0.0
H1248 H 0.75788 1.00558 0.42978 0.0
H1249 H 0.69874 1.00478 0.32178 0.0
H1250 H 0.63522 0.02054 0.39155 0.0
H1251 H 0.85206 0.97543 0.41358 0.0
H1252 H 0.72809 0.09276 0.36548 0.0
H1253 H 0.74587 0.05378 0.45433 0.0
C1254 C 0.23169 0.09129 0.87829 0.0
C1255 C 0.24497 0.1167 0.89108 0.0
N1256 N 0.25822 0.10838 0.91758 0.0
N1257 N 0.23658 0.06705 0.89661 0.0
C1258 C 0.25249 0.07834 0.9206 0.0
H1259 H 0.22058 0.09025 0.85626 0.0
Co1260 Co 0.2274 0.02676 0.8863 0.0
C1261 C 0.24335 0.99125 0.94265 0.0
O1262 O 0.25392 0.96886 0.92581 0.0
N1263 N 0.21742 0.98524 0.87495 0.0
C1264 C 0.21805 0.93921 0.85275 0.0
C1265 C 0.23551 0.9636 0.86219 0.0
C1266 C 0.18912 0.97259 0.8736 0.0
N1267 N 0.18873 0.94497 0.85979 0.0
O1268 O 0.18481 0.03625 0.89201 0.0
H1269 H 0.25988 0.96542 0.8589 0.0
H1270 H 0.16862 0.98412 0.88085 0.0
O1271 O 0.2323 0.01501 0.92965 0.0
C1272 C 0.17316 0.04191 0.86581 0.0
O1273 O 0.18997 0.0377 0.84133 0.0
N1274 N 0.26879 0.02107 0.87668 0.0
C1275 C 0.32488 0.03782 0.85154 0.0
C1276 C 0.3219 0.03339 0.88317 0.0
C1277 C 0.29356 0.02457 0.89539 0.0
C1278 C 0.27187 0.02392 0.84584 0.0
C1279 C 0.29976 0.0317 0.83277 0.0
H1280 H 0.29107 0.02361 0.91987 0.0
H1281 H 0.25184 0.02253 0.83143 0.0
H1282 H 0.26182 0.06454 0.9388 0.0
H1283 H 0.24611 0.13923 0.88098 0.0
H1284 H 0.22622 0.91928 0.84064 0.0
H1285 H 0.34076 0.03837 0.89839 0.0
H1286 H 0.30091 0.03556 0.80834 0.0
C1287 C 0.33138 0.50753 0.39666 0.0
C1288 C 0.35677 0.49506 0.383 0.0
N1289 N 0.35186 0.49415 0.35269 0.0
N1290 N 0.31059 0.51473 0.37505 0.0
C1291 C 0.32377 0.50607 0.34844 0.0
H1292 H 0.32778 0.50982 0.42097 0.0
Co1293 Co 0.27095 0.52925 0.38308 0.0
C1294 C 0.24078 0.51534 0.32273 0.0
O1295 O 0.21864 0.50062 0.33651 0.0
N1296 N 0.23054 0.54437 0.39211 0.0
C1297 C 0.18152 0.54788 0.40655 0.0
C1298 C 0.20384 0.52895 0.39487 0.0
C1299 C 0.22337 0.57275 0.40224 0.0
N1300 N 0.19399 0.57544 0.41138 0.0
O1301 O 0.28631 0.57042 0.37987 0.0
H1302 H 0.20094 0.50482 0.39076 0.0
H1303 H 0.23952 0.5912 0.4042 0.0
O1304 O 0.26174 0.52788 0.33879 0.0
C1305 C 0.29734 0.57636 0.40628 0.0
O1306 O 0.29313 0.55628 0.42818 0.0
N1307 N 0.25904 0.48884 0.3905 0.0
C1308 C 0.27578 0.43397 0.41776 0.0
C1309 C 0.27558 0.43685 0.38579 0.0
C1310 C 0.26708 0.46468 0.37247 0.0
C1311 C 0.25524 0.48494 0.42117 0.0
C1312 C 0.26318 0.45754 0.43525 0.0
H1313 H 0.27136 0.46787 0.3484 0.0
H1314 H 0.25025 0.50446 0.43543 0.0
H1315 H 0.31273 0.50719 0.32643 0.0
H1316 H 0.37661 0.48588 0.39459 0.0
H1317 H 0.15861 0.54123 0.41303 0.0
H1318 H 0.28488 0.41896 0.37149 0.0
H1319 H 0.26307 0.45634 0.45997 0.0
C1320 C 0.65066 0.7735 0.58461 0.0
C1321 C 0.64004 0.75977 0.61085 0.0
N1322 N 0.61237 0.74764 0.60494 0.0
N1323 N 0.62971 0.77031 0.56229 0.0
C1324 C 0.60655 0.7547 0.57552 0.0
H1325 H 0.67248 0.78469 0.5819 0.0
Co1326 Co 0.63396 0.783 0.52169 0.0
C1327 C 0.57404 0.761 0.49607 0.0
O1328 O 0.58793 0.74669 0.47365 0.0
N1329 N 0.63831 0.79697 0.48049 0.0
C1330 C 0.62828 0.82523 0.43924 0.0
C1331 C 0.61588 0.80946 0.46327 0.0
C1332 C 0.66431 0.80618 0.46629 0.0
N1333 N 0.65888 0.82367 0.44125 0.0
O1334 O 0.62738 0.82457 0.53447 0.0
H1335 H 0.59213 0.81092 0.46962 0.0
H1336 H 0.68683 0.80307 0.47593 0.0
O1337 O 0.58957 0.77639 0.51549 0.0
C1338 C 0.65393 0.83615 0.53817 0.0
O1339 O 0.6779 0.81927 0.53183 0.0
N1340 N 0.64522 0.74257 0.51157 0.0
C1341 C 0.6755 0.68836 0.52742 0.0
C1342 C 0.64357 0.68906 0.52401 0.0
C1343 C 0.62878 0.71663 0.5173 0.0
C1344 C 0.67632 0.74109 0.5106 0.0
C1345 C 0.6919 0.71442 0.51865 0.0
H1346 H 0.60443 0.71733 0.52048 0.0
H1347 H 0.68938 0.76178 0.50802 0.0
H1348 H 0.58617 0.74746 0.56361 0.0
H1349 H 0.65184 0.75893 0.63255 0.0
H1350 H 0.61572 0.84024 0.42411 0.0
H1351 H 0.62979 0.66923 0.52913 0.0
H1352 H 0.71651 0.71538 0.52096 0.0
C1353 C 0.65641 0.26177 0.93403 0.0
C1354 C 0.6471 0.28019 0.91032 0.0
N1355 N 0.61816 0.28924 0.91573 0.0
N1356 N 0.63338 0.25866 0.9542 0.0
C1357 C 0.61017 0.27515 0.94203 0.0
H1358 H 0.67911 0.25255 0.93702 0.0
Co1359 Co 0.63758 0.24201 0.99359 0.0
C1360 C 0.57621 0.25805 0.02073 0.0
O1361 O 0.58938 0.2712 0.04422 0.0
N1362 N 0.64276 0.22485 0.03398 0.0
C1363 C 0.65543 0.21899 0.08327 0.0
C1364 C 0.64715 0.23955 0.06088 0.0
C1365 C 0.64786 0.19514 0.0413 0.0
N1366 N 0.65582 0.19099 0.07085 0.0
O1367 O 0.63271 0.20159 0.97634 0.0
H1368 H 0.64597 0.26398 0.06405 0.0
H1369 H 0.64751 0.17668 0.02506 0.0
O1370 O 0.59287 0.24586 1.0 0.0
C1371 C 0.65965 0.19236 0.96967 0.0
O1372 O 0.68272 0.21007 0.97707 0.0
N1373 N 0.64707 0.28144 0.00767 0.0
C1374 C 0.67923 0.33315 0.99021 0.0
C1375 C 0.64718 0.33365 0.99107 0.0
C1376 C 0.63132 0.30742 1.00039 0.0
C1377 C 0.67799 0.28244 0.01143 0.0
C1378 C 0.69453 0.30826 1.00315 0.0
H1379 H 0.60692 0.30678 0.99696 0.0
H1380 H 0.69042 0.26165 0.0163 0.0
H1381 H 0.58848 0.27862 0.95331 0.0
H1382 H 0.66087 0.28653 0.89083 0.0
H1383 H 0.6616 0.22433 0.10661 0.0
H1384 H 0.63461 0.35258 0.98127 0.0
H1385 H 0.71928 0.30723 1.00314 0.0
C1386 C 0.51153 0.10922 0.32544 0.0
C1387 C 0.525 0.12157 0.35099 0.0
N1388 N 0.52328 0.15216 0.34886 0.0
N1389 N 0.50113 0.13194 0.30736 0.0
C1390 C 0.50824 0.15787 0.32259 0.0
H1391 H 0.51127 0.08529 0.31944 0.0
Co1392 Co 0.48705 0.12677 0.26709 0.0
C1393 C 0.50782 0.1885 0.24465 0.0
O1394 O 0.52702 0.17608 0.22523 0.0
N1395 N 0.47179 0.12105 0.22663 0.0
C1396 C 0.44699 0.1284 0.18264 0.0
C1397 C 0.46573 0.14147 0.20424 0.0
C1398 C 0.45657 0.09569 0.2176 0.0
N1399 N 0.4409 0.09956 0.19122 0.0
O1400 O 0.44534 0.12974 0.28145 0.0
H1401 H 0.47143 0.16534 0.20464 0.0
H1402 H 0.45509 0.07528 0.23137 0.0
O1403 O 0.49007 0.17158 0.26065 0.0
C1404 C 0.4389 0.10241 0.28958 0.0
O1405 O 0.46073 0.08188 0.28785 0.0
N1406 N 0.52784 0.11877 0.25498 0.0
C1407 C 0.58032 0.08615 0.27055 0.0
C1408 C 0.57882 0.1177 0.27557 0.0
C1409 C 0.55232 0.1337 0.26754 0.0
C1410 C 0.53094 0.08908 0.24607 0.0
C1411 C 0.55698 0.07232 0.25371 0.0
H1412 H 0.54998 0.15673 0.27593 0.0
H1413 H 0.51155 0.07673 0.23734 0.0
H1414 H 0.50391 0.18062 0.31403 0.0
H1415 H 0.53686 0.10912 0.36879 0.0
H1416 H 0.436 0.14042 0.16404 0.0
H1417 H 0.59621 0.12916 0.2889 0.0
H1418 H 0.55738 0.04798 0.24937 0.0
C1419 C 0.36654 0.25343 0.9301 0.0
C1420 C 0.37976 0.2384 0.90596 0.0
N1421 N 0.41022 0.23789 0.91028 0.0
N1422 N 0.38853 0.26276 0.94955 0.0
C1423 C 0.41495 0.25335 0.93653 0.0
H1424 H 0.34228 0.25549 0.93422 0.0
Co1425 Co 0.38108 0.27824 0.98892 0.0
C1426 C 0.44242 0.25991 0.01711 0.0
O1427 O 0.42998 0.24131 0.03697 0.0
N1428 N 0.37268 0.29431 0.02877 0.0
C1429 C 0.36222 0.29978 0.07854 0.0
C1430 C 0.37468 0.28088 0.05657 0.0
C1431 C 0.35876 0.3213 0.03476 0.0
N1432 N 0.35184 0.32506 0.0646 0.0
O1433 O 0.38615 0.31923 0.97306 0.0
H1434 H 0.38256 0.25792 0.06067 0.0
H1435 H 0.35296 0.33787 0.01754 0.0
O1436 O 0.42563 0.27508 0.99847 0.0
C1437 C 0.36087 0.3261 0.95998 0.0
O1438 O 0.3382 0.30658 0.96186 0.0
N1439 N 0.3715 0.23824 1.00171 0.0
C1440 C 0.33942 0.18522 0.98735 0.0
C1441 C 0.3714 0.1861 0.98481 0.0
C1442 C 0.38716 0.2129 0.99233 0.0
C1443 C 0.341 0.2363 0.00793 0.0
C1444 C 0.32456 0.20987 1.0012 0.0
H1445 H 0.41101 0.21445 0.98628 0.0
H1446 H 0.32836 0.25665 0.01393 0.0
H1447 H 0.437 0.25559 0.94722 0.0
H1448 H 0.36776 0.22741 0.88738 0.0
H1449 H 0.35944 0.29458 0.10255 0.0
H1450 H 0.3837 0.1674 0.97428 0.0
H1451 H 0.29989 0.2102 1.00333 0.0
C1452 C 1.00341 0.89823 0.8357 0.0
C1453 C 0.98734 0.8853 0.85931 0.0
N1454 N 0.98657 0.85487 0.85501 0.0
N1455 N 0.01284 0.8761 0.81648 0.0
C1456 C 1.00258 0.84984 0.82914 0.0
H1457 H 1.00593 0.92242 0.83155 0.0
Co1458 Co 0.02836 0.88361 0.77724 0.0
C1459 C 0.00844 0.82381 0.74891 0.0
O1460 O 0.98923 0.83723 0.73022 0.0
N1461 N 0.04435 0.89173 0.73753 0.0
C1462 C 0.05016 0.90087 0.68758 0.0
C1463 C 0.0303 0.89103 0.70996 0.0
C1464 C 0.07268 0.90222 0.73103 0.0
N1465 N 0.07691 0.90761 0.70097 0.0
O1466 O 0.06927 0.8774 0.79301 0.0
H1467 H 0.00667 0.88513 0.70622 0.0
H1468 H 0.08982 0.90706 0.74804 0.0
O1469 O 0.02484 0.83969 0.76717 0.0
C1470 C 0.07733 0.9018 0.80687 0.0
O1471 O 0.05902 0.92554 0.80586 0.0
N1472 N 0.98836 0.89376 0.76461 0.0
C1473 C 0.93613 0.92652 0.77982 0.0
C1474 C 0.93645 0.89464 0.78238 0.0
C1475 C 0.96288 0.87851 0.77438 0.0
C1476 C 0.98663 0.92414 0.75796 0.0
C1477 C 0.96044 0.94087 0.76484 0.0
H1478 H 0.96417 0.85472 0.78064 0.0
H1479 H 0.00699 0.93648 0.75146 0.0
H1480 H 1.00412 0.82783 0.81814 0.0
H1481 H 0.97573 0.89752 0.87739 0.0
H1482 H 0.04525 0.90316 0.66346 0.0
H1483 H 0.91806 0.88273 0.79385 0.0
H1484 H 0.96073 0.96544 0.76197 0.0
C1485 C 0.87058 0.25418 0.0897 0.0
C1486 C 0.88487 0.26549 0.11526 0.0
N1487 N 0.91524 0.26387 0.1108 0.0
N1488 N 0.89187 0.24536 0.06923 0.0
C1489 C 0.91893 0.25154 0.08286 0.0
H1490 H 0.84621 0.25399 0.08562 0.0
Co1491 Co 0.88369 0.23184 0.02934 0.0
C1492 C 0.94369 0.25512 1.00318 0.0
O1493 O 0.93059 0.27751 0.98819 0.0
N1494 N 0.87537 0.2175 0.98907 0.0
C1495 C 0.86898 0.21245 0.93862 0.0
C1496 C 0.87936 0.23129 0.96168 0.0
C1497 C 0.86245 0.1904 0.98182 0.0
N1498 N 0.85845 0.18669 0.9515 0.0
O1499 O 0.88996 0.19029 0.04313 0.0
H1500 H 0.8885 0.25391 0.95847 0.0
H1501 H 0.85546 0.17356 0.99836 0.0
O1502 O 0.92764 0.23632 0.01881 0.0
C1503 C 0.86505 0.18294 0.05659 0.0
O1504 O 0.84238 0.20262 0.05619 0.0
N1505 N 0.8726 0.2723 0.01859 0.0
C1506 C 0.83685 0.32306 0.03292 0.0
C1507 C 0.86837 0.32322 0.03873 0.0
C1508 C 0.886 0.29756 0.03121 0.0
C1509 C 0.8428 0.27361 0.0094 0.0
C1510 C 0.82471 0.29901 0.01578 0.0
H1511 H 0.90919 0.29652 0.03959 0.0
H1512 H 0.83155 0.25342 1.00084 0.0
H1513 H 0.94099 0.24837 0.0722 0.0
H1514 H 0.87383 0.27585 0.13481 0.0
H1515 H 0.86954 0.21716 0.91435 0.0
H1516 H 0.87865 0.3414 0.05194 0.0
H1517 H 0.80057 0.29831 0.01033 0.0
C1518 C 0.51234 0.89588 0.18298 0.0
C1519 C 0.52606 0.88318 0.15777 0.0
N1520 N 0.5244 0.85264 0.16037 0.0
N1521 N 0.5018 0.87345 0.2013 0.0
C1522 C 0.50919 0.84734 0.18663 0.0
H1523 H 0.51167 0.91992 0.18849 0.0
Co1524 Co 0.48676 0.88013 0.24086 0.0
C1525 C 0.50268 0.82055 0.27195 0.0
O1526 O 0.51598 0.83523 0.29436 0.0
N1527 N 0.47113 0.88845 0.28112 0.0
C1528 C 0.467 0.90267 0.3301 0.0
C1529 C 0.48651 0.89225 0.30774 0.0
C1530 C 0.44218 0.89696 0.28832 0.0
N1531 N 0.4391 0.90585 0.31774 0.0
O1532 O 0.4458 0.87442 0.22553 0.0
H1533 H 0.51081 0.88921 0.31075 0.0
H1534 H 0.42372 0.89825 0.27205 0.0
O1535 O 0.49056 0.83566 0.24997 0.0
C1536 C 0.43778 0.89906 0.21206 0.0
O1537 O 0.4564 0.92252 0.21308 0.0
N1538 N 0.52684 0.88914 0.25301 0.0
C1539 C 0.58147 0.91745 0.23773 0.0
C1540 C 0.57893 0.88556 0.23651 0.0
C1541 C 0.55136 0.87166 0.24471 0.0
C1542 C 0.53016 0.91975 0.25754 0.0
C1543 C 0.55754 0.93434 0.25047 0.0
H1544 H 0.5485 0.84772 0.23965 0.0
H1545 H 0.51032 0.93361 0.26253 0.0
H1546 H 0.50443 0.82489 0.19532 0.0
H1547 H 0.53786 0.89536 0.13978 0.0
H1548 H 0.47305 0.90793 0.35348 0.0
H1549 H 0.59687 0.87191 0.22631 0.0
H1550 H 0.55846 0.95905 0.25115 0.0
C1551 C 0.51078 0.61697 0.17268 0.0
C1552 C 0.49516 0.62927 0.1484 0.0
N1553 N 0.48754 0.65821 0.1554 0.0
N1554 N 0.51328 0.63803 0.19498 0.0
C1555 C 0.49879 0.66296 0.18373 0.0
H1556 H 0.51819 0.59353 0.17458 0.0
Co1557 Co 0.52774 0.62941 0.23439 0.0
C1558 C 0.51364 0.68699 0.26931 0.0
O1559 O 0.50369 0.67104 0.29262 0.0
N1560 N 0.54262 0.61943 0.27466 0.0
C1561 C 0.54587 0.60193 0.32261 0.0
C1562 C 0.5264 0.61092 0.29961 0.0
C1563 C 0.57207 0.61523 0.28353 0.0
N1564 N 0.5747 0.60464 0.31248 0.0
O1565 O 0.5689 0.63619 0.22009 0.0
H1566 H 0.50177 0.61047 0.30114 0.0
H1567 H 0.5914 0.61821 0.26857 0.0
O1568 O 0.52328 0.6731 0.24545 0.0
C1569 C 0.57816 0.6107 0.20932 0.0
O1570 O 0.56088 0.5865 0.21311 0.0
N1571 N 0.48781 0.61893 0.24502 0.0
C1572 C 0.43222 0.59169 0.23016 0.0
C1573 C 0.434 0.62334 0.23557 0.0
C1574 C 0.46229 0.6367 0.24248 0.0
C1575 C 0.48565 0.58797 0.24359 0.0
C1576 C 0.45816 0.57389 0.23625 0.0
H1577 H 0.46405 0.66127 0.24237 0.0
H1578 H 0.50622 0.5743 0.2445 0.0
H1579 H 0.49431 0.68329 0.19685 0.0
H1580 H 0.48886 0.61745 0.12764 0.0
H1581 H 0.53925 0.59337 0.34484 0.0
H1582 H 0.41434 0.63795 0.23216 0.0
H1583 H 0.45822 0.54949 0.2323 0.0
C1584 C 0.06702 0.22555 0.12914 0.0
C1585 C 0.09722 0.21621 0.12333 0.0
C1586 C 0.04806 0.20893 0.14897 0.0
C1587 C 0.05848 0.1821 0.16336 0.0
H1588 H 0.05834 0.24639 0.11902 0.0
H1589 H 0.0253 0.2175 0.15359 0.0
S1590 S 0.13506 0.14666 0.15376 0.0
N1591 N 0.13593 0.17724 0.13172 0.0
N1592 N 0.10083 0.14653 0.16956 0.0
C1593 C 0.08833 0.17196 0.15682 0.0
C1594 C 0.10758 0.18889 0.13671 0.0
C1595 C 0.44327 0.66543 0.12134 0.0
C1596 C 0.46778 0.67795 0.13788 0.0
C1597 C 0.42465 0.68363 0.10274 0.0
C1598 C 0.43018 0.71505 0.09942 0.0
H1599 H 0.43877 0.64118 0.12238 0.0
H1600 H 0.40677 0.67269 0.08959 0.0
S1601 S 0.49108 0.75928 0.1381 0.0
N1602 N 0.49606 0.72397 0.15043 0.0
N1603 N 0.46145 0.75818 0.11472 0.0
C1604 C 0.45421 0.72808 0.11627 0.0
C1605 C 0.47288 0.70956 0.13572 0.0
C1606 C 0.97885 0.31541 0.13614 0.0
C1607 C 0.97848 0.31149 0.16803 0.0
C1608 C 0.95927 0.29841 0.11723 0.0
C1609 C 0.93829 0.27754 0.12971 0.0
H1610 H 0.99365 0.33236 0.1259 0.0
H1611 H 0.95934 0.30278 0.0929 0.0
S1612 S 0.92894 0.25809 0.21143 0.0
N1613 N 0.95603 0.28427 0.21101 0.0
N1614 N 0.91925 0.25279 0.17537 0.0
C1615 C 0.9384 0.27274 0.16133 0.0
C1616 C 0.95851 0.28959 0.18052 0.0
C1617 C 0.552 0.81484 0.08879 0.0
C1618 C 0.56994 0.79054 0.09987 0.0
C1619 C 0.53686 0.83468 0.10872 0.0
C1620 C 0.53872 0.83077 0.14048 0.0
H1621 H 0.55027 0.81899 0.06445 0.0
H1622 H 0.52366 0.85335 0.09928 0.0
S1623 S 0.58246 0.77057 0.18111 0.0
N1624 N 0.58869 0.76355 0.14454 0.0
N1625 N 0.5599 0.80082 0.18224 0.0
C1626 C 0.55627 0.80636 0.15194 0.0
C1627 C 0.57204 0.7863 0.13156 0.0
C1628 C 0.06217 0.79166 0.33898 0.0
C1629 C 0.04085 0.81336 0.34943 0.0
C1630 C 0.0807 0.77543 0.35938 0.0
C1631 C 0.07837 0.7799 0.39103 0.0
H1632 H 0.06564 0.78824 0.31472 0.0
H1633 H 0.09762 0.75981 0.35034 0.0
S1634 S 0.02474 0.83248 0.43026 0.0
N1635 N 0.01741 0.83741 0.39355 0.0
N1636 N 0.05211 0.80653 0.43208 0.0
C1637 C 0.0562 0.80048 0.40194 0.0
C1638 C 0.03755 0.81738 0.38108 0.0
C1639 C 0.03498 0.66915 0.90073 0.0
C1640 C 0.03765 0.67338 0.86908 0.0
C1641 C 0.05009 0.68838 0.92128 0.0
C1642 C 0.06882 0.7124 0.91098 0.0
H1643 H 0.02097 0.65085 0.90964 0.0
H1644 H 0.0475 0.68409 0.94552 0.0
S1645 S 0.08415 0.73262 0.83027 0.0
N1646 N 0.06088 0.70303 0.82824 0.0
N1647 N 0.08955 0.73913 0.86706 0.0
C1648 C 0.07206 0.7167 0.87938 0.0
C1649 C 0.0563 0.69729 0.85837 0.0
C1650 C 0.95814 0.73164 0.39068 0.0
C1651 C 0.92602 0.73126 0.38836 0.0
C1652 C 0.97638 0.71295 0.37193 0.0
C1653 C 0.96296 0.69271 0.35096 0.0
H1654 H 0.96918 0.74704 0.40654 0.0
H1655 H 1.00102 0.71451 0.37362 0.0
S1656 S 0.88016 0.68298 0.33605 0.0
N1657 N 0.88181 0.70872 0.36349 0.0
N1658 N 0.91595 0.67373 0.32858 0.0
C1659 C 0.93097 0.69185 0.34879 0.0
C1660 C 0.91251 0.71107 0.36742 0.0
C1661 C 0.93949 0.84257 0.88343 0.0
C1662 C 0.96789 0.83334 0.87152 0.0
C1663 C 0.92187 0.82292 0.90143 0.0
C1664 C 0.93194 0.79321 0.90836 0.0
H1665 H 0.93104 0.86543 0.87928 0.0
H1666 H 0.90101 0.8317 0.91138 0.0
S1667 S 1.00287 0.75667 0.87995 0.0
N1668 N 1.00415 0.79165 0.86595 0.0
N1669 N 0.9707 0.75447 0.8995 0.0
C1670 C 0.9594 0.78304 0.89511 0.0
C1671 C 0.97742 0.80311 0.87674 0.0
C1672 C 0.17858 0.06096 0.21934 0.0
C1673 C 0.16649 0.04112 0.19708 0.0
C1674 C 0.15971 0.08021 0.23646 0.0
C1675 C 0.12796 0.08033 0.23222 0.0
H1676 H 0.20301 0.0622 0.22309 0.0
H1677 H 0.17004 0.09524 0.25314 0.0
S1678 S 0.08474 0.03333 0.17651 0.0
N1679 N 0.12071 0.02295 0.17158 0.0
N1680 N 0.08509 0.05946 0.20368 0.0
C1681 C 0.11541 0.0606 0.21014 0.0
C1682 C 0.13473 0.04102 0.19251 0.0
C1683 C 0.32367 0.60529 0.02343 0.0
C1684 C 0.32436 0.63686 0.0289 0.0
C1685 C 0.30469 0.58596 0.04044 0.0
C1686 C 0.28581 0.59734 0.0639 0.0
H1687 H 0.3383 0.59543 1.00611 0.0
H1688 H 0.30578 0.56166 0.03597 0.0
S1689 S 0.27871 0.67843 0.08696 0.0
N1690 N 0.30414 0.67883 0.0591 0.0
N1691 N 0.26839 0.64241 0.09109 0.0
C1692 C 0.28581 0.62897 0.06923 0.0
C1693 C 0.30501 0.64876 0.05168 0.0
C1694 C 0.87729 0.46662 0.19301 0.0
C1695 C 0.84562 0.4619 0.19562 0.0
C1696 C 0.89811 0.44812 0.20911 0.0
C1697 C 0.88788 0.424 0.22775 0.0
H1698 H 0.88596 0.48448 0.17826 0.0
H1699 H 0.92235 0.45192 0.20612 0.0
S1700 S 0.80743 0.40238 0.24232 0.0
N1701 N 0.80515 0.43151 0.2185 0.0
N1702 N 0.84426 0.39698 0.2485 0.0
C1703 C 0.85635 0.41939 0.23078 0.0
C1704 C 0.83523 0.43827 0.21477 0.0
C1705 C 0.69691 0.87607 0.02797 0.0
C1706 C 0.669 0.86627 0.04039 0.0
C1707 C 0.71625 0.89576 0.0443 0.0
C1708 C 0.70851 0.90625 0.07379 0.0
H1709 H 0.70331 0.86927 1.00507 0.0
H1710 H 0.73703 0.90356 0.03337 0.0
S1711 S 0.63983 0.88309 0.11806 0.0
N1712 N 0.63636 0.8651 0.08517 0.0
N1713 N 0.67177 0.90294 0.1155 0.0
C1714 C 0.68139 0.89503 0.08707 0.0
C1715 C 0.66185 0.87493 0.07044 0.0
C1716 C 0.17651 0.95294 0.29462 0.0
C1717 C 0.16492 0.97486 0.31509 0.0
C1718 C 0.15705 0.93308 0.27891 0.0
C1719 C 0.12525 0.93467 0.28265 0.0
H1720 H 0.20095 0.9501 0.29185 0.0
H1721 H 0.16693 0.91581 0.26423 0.0
S1722 S 0.08325 0.98916 0.33206 0.0
N1723 N 0.11961 0.99782 0.33736 0.0
N1724 N 0.08283 0.96073 0.30729 0.0
C1725 C 0.11321 0.95733 0.302 0.0
C1726 C 0.13312 0.9773 0.31843 0.0
C1727 C 0.21508 0.61246 0.96072 0.0
C1728 C 0.20488 0.59932 0.93315 0.0
C1729 C 0.19624 0.63207 0.97779 0.0
C1730 C 0.16637 0.63902 0.96812 0.0
H1731 H 0.23754 0.60695 0.96955 0.0
H1732 H 0.20471 0.64105 0.9992 0.0
S1733 S 0.12951 0.61291 0.89636 0.0
N1734 N 0.1632 0.59597 0.89642 0.0
N1735 N 0.12856 0.63366 0.92778 0.0
C1736 C 0.15642 0.62723 0.93994 0.0
C1737 C 0.17548 0.60723 0.92263 0.0
C1738 C 0.89636 0.5591 0.30251 0.0
C1739 C 0.88454 0.58121 0.28232 0.0
C1740 C 0.87688 0.53916 0.31847 0.0
C1741 C 0.84503 0.54032 0.31424 0.0
H1742 H 0.92069 0.55804 0.30685 0.0
H1743 H 0.8867 0.52305 0.33449 0.0
S1744 S 0.80307 0.59357 0.26307 0.0
N1745 N 0.83938 0.60246 0.25828 0.0
N1746 N 0.80274 0.56542 0.28813 0.0
C1747 C 0.83315 0.56192 0.2935 0.0
C1748 C 0.8529 0.58224 0.27758 0.0
C1749 C 0.802 0.87598 0.98053 0.0
C1750 C 0.83277 0.87175 0.97221 0.0
C1751 C 0.78272 0.89535 0.96356 0.0
C1752 C 0.79339 0.91056 0.93727 0.0
H1753 H 0.79315 0.86512 1.00091 0.0
H1754 H 0.75952 0.89895 0.97139 0.0
S1755 S 0.87162 0.90511 0.9047 0.0
N1756 N 0.87245 0.8828 0.93506 0.0
N1757 N 0.83664 0.91911 0.90336 0.0
C1758 C 0.82384 0.90546 0.92814 0.0
C1759 C 0.84342 0.8861 0.94555 0.0
C1760 C 0.21245 0.10808 0.06496 0.0
C1761 C 0.23022 0.11956 0.08924 0.0
C1762 C 0.19619 0.12781 0.04543 0.0
C1763 C 0.19776 0.15961 0.04922 0.0
H1764 H 0.21039 0.08369 0.06164 0.0
H1765 H 0.18227 0.11819 0.02739 0.0
S1766 S 0.24162 0.20102 0.10869 0.0
N1767 N 0.24879 0.16464 0.11545 0.0
N1768 N 0.21851 0.20163 0.0789 0.0
C1769 C 0.21584 0.17127 0.07308 0.0
C1770 C 0.23201 0.15128 0.09305 0.0
C1771 C 0.20852 0.89931 0.4524 0.0
C1772 C 0.22798 0.88764 0.42961 0.0
C1773 C 0.19229 0.87966 0.47195 0.0
C1774 C 0.1957 0.84781 0.46978 0.0
H1775 H 0.20484 0.92369 0.45417 0.0
H1776 H 0.17657 0.88935 0.48841 0.0
S1777 S 0.24515 0.80623 0.41492 0.0
N1778 N 0.25054 0.84262 0.40671 0.0
N1779 N 0.22061 0.80567 0.44356 0.0
C1780 C 0.21597 0.83605 0.44778 0.0
C1781 C 0.23198 0.85598 0.42767 0.0
C1782 C 0.10551 0.51869 0.81646 0.0
C1783 C 0.137 0.52428 0.81847 0.0
C1784 C 0.08691 0.53577 0.79681 0.0
C1785 C 0.09905 0.55945 0.77876 0.0
H1786 H 0.09507 0.50169 0.83105 0.0
H1787 H 0.06252 0.53161 0.79722 0.0
S1788 S 0.18061 0.58147 0.77382 0.0
N1789 N 0.18001 0.55362 0.79927 0.0
N1790 N 0.14489 0.58605 0.76246 0.0
C1791 C 0.13077 0.56426 0.77942 0.0
C1792 C 0.14982 0.54655 0.7992 0.0
C1793 C 0.78343 0.6266 0.45071 0.0
C1794 C 0.79642 0.61577 0.42347 0.0
C1795 C 0.7995 0.64684 0.46971 0.0
C1796 C 0.82923 0.6569 0.46223 0.0
H1797 H 0.7602 0.62047 0.45661 0.0
H1798 H 0.78809 0.65555 0.48985 0.0
S1799 S 0.87522 0.62993 0.39611 0.0
N1800 N 0.84206 0.61248 0.39228 0.0
N1801 N 0.87204 0.65123 0.42703 0.0
C1802 C 0.84319 0.64424 0.43609 0.0
C1803 C 0.82681 0.62359 0.41691 0.0
C1804 C 0.35895 0.45933 0.3088 0.0
C1805 C 0.37116 0.48 0.33016 0.0
C1806 C 0.37807 0.44299 0.2888 0.0
C1807 C 0.4099 0.44739 0.28906 0.0
H1808 H 0.33463 0.45485 0.30847 0.0
H1809 H 0.36799 0.42641 0.27348 0.0
S1810 S 0.45274 0.50013 0.33974 0.0
N1811 N 0.41664 0.50482 0.3496 0.0
N1812 N 0.45258 0.47447 0.31216 0.0
C1813 C 0.42215 0.4688 0.30968 0.0
C1814 C 0.40278 0.48501 0.33019 0.0
C1815 C 0.29294 0.83654 0.56381 0.0
C1816 C 0.31663 0.84682 0.54461 0.0
C1817 C 0.27618 0.85687 0.58187 0.0
C1818 C 0.28212 0.8883 0.58119 0.0
H1819 H 0.28818 0.81238 0.56598 0.0
H1820 H 0.25885 0.84791 0.59707 0.0
S1821 S 0.34074 0.92724 0.53421 0.0
N1822 N 0.34451 0.89076 0.52539 0.0
N1823 N 0.31272 0.92907 0.55942 0.0
C1824 C 0.30498 0.89914 0.56144 0.0
C1825 C 0.32236 0.87836 0.54321 0.0
C1826 C 0.10638 0.49736 0.68506 0.0
C1827 C 0.13814 0.49322 0.68679 0.0
C1828 C 0.08655 0.48109 0.70411 0.0
C1829 C 0.09768 0.45975 0.72549 0.0
H1830 H 0.09678 0.51274 0.66822 0.0
H1831 H 0.06219 0.48415 0.70096 0.0
S1832 S 0.17906 0.44204 0.74075 0.0
N1833 N 0.18001 0.46742 0.71285 0.0
N1834 N 0.14255 0.43682 0.74873 0.0
C1835 C 0.12944 0.45628 0.72839 0.0
C1836 C 0.14973 0.47308 0.70911 0.0
C1837 C 0.91085 0.08066 0.68619 0.0
C1838 C 0.91456 0.07517 0.71765 0.0
C1839 C 0.89281 0.06165 0.66801 0.0
C1840 C 0.87774 0.03609 0.68032 0.0
H1841 H 0.92278 0.09933 0.67519 0.0
H1842 H 0.89073 0.06711 0.64399 0.0
S1843 S 0.8786 0.01255 0.76172 0.0
N1844 N 0.90047 0.04321 0.76074 0.0
N1845 N 0.86694 0.00687 0.7263 0.0
C1846 C 0.8806 0.03066 0.7119 0.0
C1847 C 0.89901 0.05022 0.73056 0.0
C1848 C 0.54229 0.71381 0.64193 0.0
C1849 C 0.55486 0.69301 0.66289 0.0
C1850 C 0.56123 0.73146 0.62296 0.0
C1851 C 0.59336 0.72944 0.62484 0.0
H1852 H 0.51773 0.71656 0.64037 0.0
H1853 H 0.55067 0.74727 0.60713 0.0
S1854 S 0.63713 0.67955 0.67775 0.0
N1855 N 0.601 0.67204 0.68535 0.0
N1856 N 0.63661 0.70514 0.65004 0.0
C1857 C 0.60605 0.7089 0.64608 0.0
C1858 C 0.58678 0.69071 0.665 0.0
C1859 C 0.96787 0.19614 0.58572 0.0
C1860 C 0.94598 0.21723 0.59632 0.0
C1861 C 0.98515 0.17843 0.60598 0.0
C1862 C 0.98155 0.1813 0.63768 0.0
H1863 H 0.97109 0.19262 0.56144 0.0
H1864 H 1.00125 0.16205 0.59682 0.0
S1865 S 0.92791 0.23352 0.67737 0.0
N1866 N 0.92196 0.24026 0.6407 0.0
N1867 N 0.95469 0.20695 0.67895 0.0
C1868 C 0.96015 0.20261 0.64874 0.0
C1869 C 0.94222 0.22048 0.62802 0.0
C1870 C 0.4405 0.77318 0.65877 0.0
C1871 C 0.44186 0.77658 0.62692 0.0
C1872 C 0.4607 0.78886 0.67793 0.0
C1873 C 0.4828 0.8089 0.66598 0.0
H1874 H 0.42298 0.75903 0.66895 0.0
H1875 H 0.45776 0.78665 0.70241 0.0
S1876 S 0.4972 0.82424 0.58402 0.0
N1877 N 0.46829 0.80003 0.58406 0.0
N1878 N 0.5061 0.82989 0.62027 0.0
C1879 C 0.48531 0.81153 0.63411 0.0
C1880 C 0.46493 0.7952 0.61452 0.0
C1881 C 0.0732 0.35133 0.62978 0.0
C1882 C 0.04534 0.34206 0.64287 0.0
C1883 C 0.09017 0.33169 0.61107 0.0
C1884 C 0.07995 0.30196 0.6046 0.0
H1885 H 0.0818 0.37414 0.63368 0.0
H1886 H 0.11069 0.34045 0.60037 0.0
S1887 S 0.00981 0.26563 0.63506 0.0
N1888 N 0.00913 0.30051 0.64929 0.0
N1889 N 0.04133 0.26341 0.61446 0.0
C1890 C 0.05285 0.29189 0.61862 0.0
C1891 C 0.03552 0.31193 0.63771 0.0
C1892 C 0.56764 0.30687 0.8975 0.0
C1893 C 0.59963 0.31002 0.89781 0.0
C1894 C 0.54931 0.32408 0.87758 0.0
C1895 C 0.56219 0.34562 0.85767 0.0
H1896 H 0.55683 0.29002 0.91187 0.0
H1897 H 0.52496 0.31982 0.87692 0.0
S1898 S 0.64393 0.36748 0.85376 0.0
N1899 N 0.6428 0.34009 0.87967 0.0
N1900 N 0.60838 0.37197 0.84193 0.0
C1901 C 0.5938 0.35093 0.85948 0.0
C1902 C 0.61254 0.33326 0.87961 0.0
C1903 C 0.55195 0.18904 0.42051 0.0
C1904 C 0.57024 0.21307 0.40952 0.0
C1905 C 0.53633 0.16963 0.40054 0.0
C1906 C 0.53801 0.17372 0.36881 0.0
H1907 H 0.55027 0.18474 0.44484 0.0
H1908 H 0.5229 0.15113 0.40994 0.0
S1909 S 0.58258 0.23332 0.32836 0.0
N1910 N 0.58919 0.23993 0.36492 0.0
N1911 N 0.55943 0.20358 0.32714 0.0
C1912 C 0.55591 0.19788 0.35742 0.0
C1913 C 0.57224 0.21744 0.37784 0.0
C1914 C 0.42314 0.19153 0.88098 0.0
C1915 C 0.43202 0.21972 0.89348 0.0
C1916 C 0.44313 0.17418 0.86309 0.0
C1917 C 0.47301 0.18426 0.85702 0.0
H1918 H 0.40037 0.18296 0.88466 0.0
H1919 H 0.4345 0.1535 0.85266 0.0
S1920 S 0.50851 0.25485 0.88655 0.0
N1921 N 0.47331 0.25604 0.89994 0.0
N1922 N 0.51137 0.22288 0.86692 0.0
C1923 C 0.48277 0.21156 0.87068 0.0
C1924 C 0.46224 0.22938 0.88879 0.0
C1925 C 0.42011 0.32525 0.39988 0.0
C1926 C 0.4324 0.29717 0.40954 0.0
C1927 C 0.43608 0.34424 0.37973 0.0
C1928 C 0.46493 0.33592 0.36826 0.0
H1929 H 0.39872 0.33343 0.40925 0.0
H1930 H 0.426 0.36595 0.37354 0.0
S1931 S 0.50568 0.26329 0.38371 0.0
N1932 N 0.47395 0.26071 0.40395 0.0
N1933 N 0.50413 0.29666 0.3662 0.0
C1934 C 0.47672 0.30714 0.37626 0.0
C1935 C 0.46045 0.28776 0.39691 0.0
C1936 C 0.65813 0.58616 0.7319 0.0
C1937 C 0.62651 0.58556 0.72661 0.0
C1938 C 0.6781 0.56787 0.71496 0.0
C1939 C 0.66735 0.54822 0.69186 0.0
H1940 H 0.66751 0.60107 0.74922 0.0
H1941 H 0.70236 0.56979 0.71951 0.0
S1942 S 0.58649 0.53835 0.66871 0.0
N1943 N 0.58523 0.56399 0.69631 0.0
N1944 N 0.62289 0.52914 0.66473 0.0
C1945 C 0.63573 0.54723 0.68638 0.0
C1946 C 0.61528 0.5659 0.70376 0.0
C1947 C 0.81763 0.14357 0.55317 0.0
C1948 C 0.83603 0.13306 0.5291 0.0
C1949 C 0.79907 0.12343 0.5698 0.0
C1950 C 0.79827 0.09207 0.56283 0.0
H1951 H 0.81872 0.16728 0.55997 0.0
H1952 H 0.78593 0.1323 0.58879 0.0
S1953 S 0.84223 0.05368 0.50118 0.0
N1954 N 0.85202 0.08997 0.49848 0.0
N1955 N 0.81764 0.05174 0.52972 0.0
C1956 C 0.81613 0.08155 0.53816 0.0
C1957 C 0.835 0.10211 0.52139 0.0
C1958 C 0.36781 0.96641 0.70452 0.0
C1959 C 0.35299 0.9573 0.67756 0.0
C1960 C 0.38699 0.94642 0.72065 0.0
C1961 C 0.3924 0.91646 0.71048 0.0
H1962 H 0.36397 0.98908 0.71351 0.0
H1963 H 0.39711 0.95425 0.74173 0.0
S1964 S 0.36089 0.88189 0.63957 0.0
N1965 N 0.34568 0.91633 0.64077 0.0
N1966 N 0.38312 0.87949 0.66995 0.0
C1967 C 0.37871 0.90739 0.68274 0.0
C1968 C 0.3588 0.92765 0.66653 0.0
C1969 C 0.21273 0.38971 0.57238 0.0
C1970 C 0.21336 0.42104 0.5652 0.0
C1971 C 0.19543 0.36906 0.55491 0.0
C1972 C 0.17783 0.37906 0.52987 0.0
H1973 H 0.22547 0.38116 0.5918 0.0
H1974 H 0.19503 0.34528 0.56163 0.0
S1975 S 0.17211 0.45837 0.50094 0.0
N1976 N 0.19475 0.46084 0.53098 0.0
N1977 N 0.16322 0.42191 0.49793 0.0
C1978 C 0.17877 0.41011 0.52207 0.0
C1979 C 0.19628 0.4311 0.53976 0.0
C1980 C 0.63808 0.47848 0.81488 0.0
C1981 C 0.66996 0.47894 0.8108 0.0
C1982 C 0.61951 0.45876 0.79768 0.0
C1983 C 0.6323 0.43842 0.7763 0.0
H1984 H 0.62755 0.4929 0.83199 0.0
H1985 H 0.59518 0.4584 0.80211 0.0
S1986 S 0.71415 0.43116 0.75635 0.0
N1987 N 0.71328 0.45771 0.78307 0.0
N1988 N 0.67829 0.42082 0.75103 0.0
C1989 C 0.66392 0.43922 0.77146 0.0
C1990 C 0.68277 0.45945 0.78861 0.0
C1991 C 0.66931 0.12729 0.43492 0.0
C1992 C 0.67901 0.14024 0.46269 0.0
C1993 C 0.68877 0.10883 0.41749 0.0
C1994 C 0.7188 0.10248 0.4271 0.0
H1995 H 0.64623 0.13099 0.42681 0.0
H1996 H 0.6796 0.09811 0.39716 0.0
S1997 S 0.75639 0.13303 0.49658 0.0
N1998 N 0.72133 0.14694 0.49803 0.0
N1999 N 0.75815 0.11262 0.46494 0.0
C2000 C 0.72935 0.11656 0.454 0.0
C2001 C 0.70946 0.13538 0.47182 0.0
C2002 C 0.35921 0.08313 0.84724 0.0
C2003 C 0.35186 0.05332 0.83802 0.0
C2004 C 0.3796 0.10111 0.83025 0.0
C2005 C 0.3936 0.08991 0.80347 0.0
H2006 H 0.34784 0.09319 0.86675 0.0
H2007 H 0.38387 0.12423 0.8378 0.0
S2008 S 0.3848 0.01184 0.77229 0.0
N2009 N 0.36221 0.0123 0.80243 0.0
N2010 N 0.40047 0.046 0.77033 0.0
C2011 C 0.38786 0.05943 0.79523 0.0
C2012 C 0.36698 0.04121 0.8125 0.0
C2013 C 0.30253 0.37659 0.47732 0.0
C2014 C 0.33398 0.37431 0.47109 0.0
C2015 C 0.28325 0.3946 0.45897 0.0
C2016 C 0.29464 0.41036 0.43334 0.0
H2017 H 0.29307 0.36541 0.49724 0.0
H2018 H 0.25946 0.39698 0.46541 0.0
S2019 S 0.37486 0.40942 0.40572 0.0
N2020 N 0.3752 0.38743 0.43636 0.0
N2021 N 0.33923 0.4212 0.40198 0.0
C2022 C 0.3258 0.40696 0.42608 0.0
C2023 C 0.34541 0.38899 0.44494 0.0
C2024 C 0.73874 0.63479 0.55536 0.0
C2025 C 0.7267 0.62345 0.58284 0.0
C2026 C 0.72145 0.65437 0.53658 0.0
C2027 C 0.6914 0.66321 0.5445 0.0
H2028 H 0.762 0.62934 0.54896 0.0
H2029 H 0.73203 0.66328 0.51608 0.0
S2030 S 0.6481 0.63478 0.61193 0.0
N2031 N 0.68197 0.61856 0.615 0.0
N2032 N 0.64978 0.65616 0.58096 0.0
C2033 C 0.67865 0.65024 0.57118 0.0
C2034 C 0.69623 0.63024 0.59004 0.0
C2035 C 0.69571 0.38599 0.97419 0.0
C2036 C 0.69622 0.35421 0.9698 0.0
C2037 C 0.71109 0.40565 0.95392 0.0
C2038 C 0.72683 0.39415 0.92828 0.0
H2039 H 0.68333 0.39563 0.99331 0.0
H2040 H 0.70993 0.43003 0.95777 0.0
S2041 S 0.73473 0.31279 0.90665 0.0
N2042 N 0.7138 0.31225 0.93799 0.0
N2043 N 0.74232 0.34909 0.90007 0.0
C2044 C 0.7275 0.36247 0.92382 0.0
C2045 C 0.71228 0.34254 0.94451 0.0
C2046 C 0.60946 0.02776 0.32751 0.0
C2047 C 0.64106 0.03307 0.32814 0.0
C2048 C 0.59032 0.04425 0.30784 0.0
C2049 C 0.60201 0.06702 0.28833 0.0
H2050 H 0.59953 0.01073 0.34242 0.0
H2051 H 0.56599 0.03981 0.30861 0.0
S2052 S 0.68322 0.08972 0.28139 0.0
N2053 N 0.68334 0.06259 0.30761 0.0
N2054 N 0.64723 0.09378 0.27069 0.0
C2055 C 0.63361 0.07248 0.28864 0.0
C2056 C 0.65317 0.05544 0.30849 0.0
C2057 C 0.27682 0.12809 0.96725 0.0
C2058 C 0.27957 0.12598 0.9353 0.0
C2059 C 0.29692 0.14643 0.98438 0.0
C2060 C 0.32099 0.16242 0.97018 0.0
H2061 H 0.25844 0.11627 0.97882 0.0
H2062 H 0.29336 0.14854 0.00877 0.0
S2063 S 0.33837 0.16281 0.8872 0.0
N2064 N 0.30842 0.14028 0.89038 0.0
N2065 N 0.34641 0.17423 0.92223 0.0
C2066 C 0.3244 0.15949 0.93835 0.0
C2067 C 0.30366 0.14139 0.92101 0.0
C2068 C 0.88278 0.93979 0.79704 0.0
C2069 C 0.9145 0.94487 0.79842 0.0
C2070 C 0.86265 0.9557 0.8164 0.0
C2071 C 0.87374 0.97663 0.83809 0.0
H2072 H 0.87355 0.92335 0.78106 0.0
H2073 H 0.8384 0.95101 0.81506 0.0
S2074 S 0.95454 0.99747 0.85152 0.0
N2075 N 0.95587 0.97204 0.82377 0.0
N2076 N 0.91799 1.0017 0.85979 0.0
C2077 C 0.90524 0.98189 0.83963 0.0
C2078 C 0.92564 0.96606 0.81989 0.0
C2079 C 0.82131 0.376 0.04946 0.0
C2080 C 0.81611 0.3443 0.04951 0.0
C2081 C 0.80333 0.39574 0.06734 0.0
C2082 C 0.77996 0.38437 0.08628 0.0
H2083 H 0.83964 0.38551 0.03585 0.0
H2084 H 0.80849 0.4199 0.06727 0.0
S2085 S 0.75664 0.30355 0.09426 0.0
N2086 N 0.78543 0.30268 0.06995 0.0
N2087 N 0.75179 0.33985 0.10311 0.0
C2088 C 0.77417 0.35292 0.08606 0.0
C2089 C 0.79219 0.33289 0.06779 0.0
C2090 C 0.60424 0.92898 0.18714 0.0
C2091 C 0.60447 0.93357 0.21891 0.0
C2092 C 0.62136 0.9476 0.16762 0.0
C2093 C 0.63981 0.9712 0.17909 0.0
H2094 H 0.58961 0.91173 0.17714 0.0
H2095 H 0.61991 0.94366 0.14329 0.0
S2096 S 0.64935 0.99164 0.26071 0.0
N2097 N 0.62505 0.96284 0.26118 0.0
N2098 N 0.65788 0.99759 0.22446 0.0
C2099 C 0.641 0.97542 0.21094 0.0
C2100 C 0.62313 0.9567 0.23084 0.0
C2101 C 0.37735 0.5308 0.20133 0.0
C2102 C 0.3664 0.54364 0.17404 0.0
C2103 C 0.3968 0.54736 0.22072 0.0
C2104 C 0.40599 0.57743 0.21356 0.0
H2105 H 0.37185 0.5074 0.20704 0.0
H2106 H 0.40568 0.53607 0.24088 0.0
S2107 S 0.37817 0.62304 0.14744 0.0
N2108 N 0.36178 0.58944 0.14325 0.0
N2109 N 0.39928 0.62029 0.17858 0.0
C2110 C 0.39314 0.59118 0.18737 0.0
C2111 C 0.37321 0.57433 0.16785 0.0
C2112 C 1.00132 0.02058 0.28864 0.0
C2113 C 1.00003 0.03846 0.26202 0.0
C2114 C 1.00091 0.9885 0.28706 0.0
C2115 C 1.00021 0.97307 0.25879 0.0
H2116 H 1.00176 0.03145 0.31085 0.0
H2117 H 1.00125 0.97564 0.3082 0.0
S2118 S 0.99934 0.0095 0.1824 0.0
N2119 N 0.99931 0.03848 0.20652 0.0
N2120 N 0.99993 0.97829 0.2036 0.0
C2121 C 1.00026 0.99072 0.23201 0.0
C2122 C 0.99977 0.02337 0.23363 0.0
C2123 C 0.26901 0.7901 0.01628 0.0
C2124 C 0.28406 0.76745 0.99896 0.0
C2125 C 0.23717 0.78985 0.02044 0.0
C2126 C 0.21886 0.7667 0.00795 0.0
H2127 H 0.28187 0.80839 0.0268 0.0
H2128 H 0.22678 0.80797 0.0337 0.0
S2129 S 0.24588 0.70336 0.95861 0.0
N2130 N 0.27736 0.72198 0.96774 0.0
N2131 N 0.21771 0.72169 0.97571 0.0
C2132 C 0.23332 0.74411 0.99026 0.0
C2133 C 0.26581 0.74446 0.98573 0.0
C2134 C 0.025 0.52358 0.28035 0.0
C2135 C 0.0124 0.54028 0.25575 0.0
C2136 C 0.02398 0.49148 0.28118 0.0
C2137 C 0.01072 0.47485 0.25724 0.0
H2138 H 0.0359 0.53535 0.29916 0.0
H2139 H 0.03454 0.47959 0.30016 0.0
S2140 S 0.97342 0.50687 0.18829 0.0
N2141 N 0.98496 0.53718 0.2075 0.0
N2142 N 0.984 0.477 0.20876 0.0
C2143 C 0.99762 0.49106 0.23282 0.0
C2144 C 0.99815 0.52371 0.23217 0.0
C2145 C 0.77234 0.71827 0.99684 0.0
C2146 C 0.78742 0.74251 0.01178 0.0
C2147 C 0.74044 0.71782 0.99341 0.0
C2148 C 0.7221 0.74176 1.00431 0.0
H2149 H 0.78522 0.69924 0.98771 0.0
H2150 H 0.73 0.69849 0.98207 0.0
S2151 S 0.74929 0.8096 0.04708 0.0
N2152 N 0.78084 0.79063 0.03877 0.0
N2153 N 0.72098 0.78943 0.0325 0.0
C2154 C 0.7366 0.766 0.01958 0.0
C2155 C 0.76918 0.76646 0.02326 0.0
C2156 C 0.24804 0.0169 0.99412 0.0
C2157 C 0.24707 0.98995 0.97658 0.0
C2158 C 0.25316 0.0161 0.02588 0.0
C2159 C 0.2568 0.9883 0.04163 0.0
H2160 H 0.24509 0.0389 0.98328 0.0
H2161 H 0.25344 0.03744 0.03815 0.0
S2162 S 0.25534 0.91109 0.00678 0.0
N2163 N 0.24997 0.93451 0.97772 0.0
N2164 N 0.25877 0.93307 0.03719 0.0
C2165 C 0.25551 0.96118 0.02445 0.0
C2166 C 0.25086 0.96199 0.99208 0.0
C2167 C 0.22053 0.4977 0.27198 0.0
C2168 C 0.24281 0.51407 0.28859 0.0
C2169 C 0.22182 0.49512 0.24003 0.0
C2170 C 0.24568 0.50834 0.22326 0.0
H2171 H 0.2017 0.48676 0.28369 0.0
H2172 H 0.20387 0.48277 0.22832 0.0
S2173 S 0.30901 0.5549 0.25453 0.0
N2174 N 0.28901 0.54486 0.2849 0.0
N2175 N 0.29142 0.53945 0.22497 0.0
C2176 C 0.26804 0.52488 0.2392 0.0
C2177 C 0.26663 0.52786 0.2718 0.0
C2178 C 0.73223 0.53177 0.99207 0.0
C2179 C 0.75553 0.51702 0.97526 0.0
C2180 C 0.73114 0.53043 0.02411 0.0
C2181 C 0.75332 0.51438 0.04073 0.0
H2182 H 0.71455 0.54461 0.98045 0.0
H2183 H 0.71303 0.54241 0.036 0.0
S2184 S 0.81865 0.47111 0.00874 0.0
N2185 N 0.80103 0.48511 0.97842 0.0
N2186 N 0.79896 0.48304 0.03863 0.0
C2187 C 0.77656 0.49929 0.02456 0.0
C2188 C 0.77765 0.50046 0.99186 0.0
C2189 C 0.74515 0.01114 0.23481 0.0
C2190 C 0.77171 0.00686 0.21708 0.0
C2191 C 0.74531 0.00666 0.26669 0.0
C2192 C 0.77215 0.99833 0.28242 0.0
H2193 H 0.72395 0.01793 0.22406 0.0
H2194 H 0.7244 0.01071 0.27903 0.0
S2195 S 0.84818 0.98525 0.24729 0.0
N2196 N 0.82586 0.99411 0.21819 0.0
N2197 N 0.82612 0.98647 0.27783 0.0
C2198 C 0.79892 0.99443 0.26509 0.0
C2199 C 0.79872 0.99848 0.23261 0.0
C2200 C 0.27888 0.02506 0.49071 0.0
C2201 C 0.25491 0.01328 0.47304 0.0
C2202 C 0.27646 0.02686 0.52269 0.0
C2203 C 0.2502 0.01645 0.53824 0.0
H2204 H 0.29926 0.03373 0.47969 0.0
H2205 H 0.29542 0.03646 0.53534 0.0
S2206 S 0.18168 0.98232 0.50201 0.0
N2207 N 0.20439 0.99056 0.47303 0.0
N2208 N 0.20021 0.99289 0.53315 0.0
C2209 C 0.22648 1.00373 0.52072 0.0
C2210 C 0.22872 1.0025 0.48812 0.0
C2211 C 0.26552 0.47552 0.77146 0.0
C2212 C 0.26657 0.5019 0.78966 0.0
C2213 C 0.26597 0.47751 0.73937 0.0
C2214 C 0.26643 0.50598 0.72432 0.0
H2215 H 0.26501 0.45319 0.78208 0.0
H2216 H 0.26559 0.45658 0.72623 0.0
S2217 S 0.26703 0.58186 0.76164 0.0
N2218 N 0.26709 0.55737 0.79034 0.0
N2219 N 0.26661 0.56106 0.73019 0.0
C2220 C 0.2664 0.5325 0.7423 0.0
C2221 C 0.26683 0.53047 0.77492 0.0
C2222 C 0.76805 0.4707 0.48714 0.0
C2223 C 0.75245 0.49377 0.47083 0.0
C2224 C 0.77079 0.47153 0.51909 0.0
C2225 C 0.75856 0.49571 0.53615 0.0
H2226 H 0.77828 0.45162 0.47521 0.0
H2227 H 0.78275 0.45312 0.53054 0.0
S2228 S 0.71371 0.56082 0.50566 0.0
N2229 N 0.72314 0.5409 0.47505 0.0
N2230 N 0.72867 0.54236 0.53498 0.0
C2231 C 0.74258 0.51875 0.52049 0.0
C2232 C 0.73943 0.51781 0.4879 0.0
C2233 C 0.75248 0.03858 0.77424 0.0
C2234 C 0.74879 0.01207 0.79187 0.0
C2235 C 0.75434 0.03701 0.74221 0.0
C2236 C 0.75356 0.00881 0.72667 0.0
H2237 H 0.75297 0.06073 0.7852 0.0
H2238 H 0.75635 0.05812 0.72948 0.0
S2239 S 0.74694 0.93259 0.76274 0.0
N2240 N 0.74582 0.95669 0.79172 0.0
N2241 N 0.7506 0.95372 0.73169 0.0
C2242 C 0.75126 0.98207 0.74419 0.0
C2243 C 0.7485 0.98372 0.77674 0.0
C2244 C 0.99355 0.22963 0.99085 0.0
C2245 C 0.97754 0.25397 1.00421 0.0
C2246 C 0.02567 0.22996 0.98891 0.0
C2247 C 0.04307 0.25436 1.00081 0.0
H2248 H 0.98113 0.21066 0.98101 0.0
H2249 H 0.03693 0.21089 0.97791 0.0
S2250 S 0.01161 0.32267 0.03988 0.0
N2251 N 0.98113 0.30264 0.03031 0.0
N2252 N 0.04136 0.30286 0.02775 0.0
C2253 C 0.02718 0.27833 0.01519 0.0
C2254 C 0.99447 0.27825 0.01655 0.0
C2255 C 0.98814 0.78675 0.51184 0.0
C2256 C 0.97106 0.76058 0.51904 0.0
C2257 C 0.02025 0.78594 0.51127 0.0
C2258 C 0.0365 0.7587 0.51682 0.0
H2259 H 0.97664 0.80822 0.50745 0.0
H2260 H 0.03249 0.80687 0.50643 0.0
S2261 S 1.00252 0.68329 0.5341 0.0
N2262 N 0.97278 0.70629 0.53056 0.0
N2263 N 0.03305 0.70463 0.52817 0.0
C2264 C 0.0197 0.73211 0.52276 0.0
C2265 C 0.98702 0.7331 0.52424 0.0
C2266 C 0.0368 0.77398 0.75038 0.0
C2267 C 0.00897 0.78997 0.75034 0.0
C2268 C 0.03745 0.74189 0.74909 0.0
C2269 C 0.01029 0.72459 0.74864 0.0
H2270 H 0.05821 0.78636 0.75039 0.0
H2271 H 0.05943 0.73053 0.74843 0.0
S2272 S 0.93151 0.75564 0.75112 0.0
N2273 N 0.9536 0.78619 0.75131 0.0
N2274 N 0.95484 0.726 0.75006 0.0
C2275 C 0.98235 0.74033 0.75 0.0
C2276 C 0.98169 0.77298 0.7505 0.0
C2277 C 0.47854 0.23755 0.24915 0.0
C2278 C 0.5067 0.22225 0.24735 0.0
C2279 C 0.47709 0.26961 0.249 0.0
C2280 C 0.50379 0.28757 0.24802 0.0
H2281 H 0.45742 0.22467 0.24958 0.0
H2282 H 0.45484 0.28046 0.24955 0.0
S2283 S 0.58326 0.25854 0.24542 0.0
N2284 N 0.56198 0.22742 0.24569 0.0
N2285 N 0.55921 0.28759 0.2467 0.0
C2286 C 0.53211 0.27254 0.24757 0.0
C2287 C 0.53357 0.23991 0.24685 0.0
C2288 C 0.49072 0.78426 0.50272 0.0
C2289 C 0.47512 0.75627 0.50006 0.0
C2290 C 0.5228 0.78555 0.50256 0.0
C2291 C 0.54039 0.75899 0.49872 0.0
H2292 H 0.478 0.80535 0.50509 0.0
H2293 H 0.53388 0.80756 0.50451 0.0
S2294 S 0.51081 0.68001 0.49196 0.0
N2295 N 0.47978 0.7013 0.49505 0.0
N2296 N 0.54002 0.70382 0.49327 0.0
C2297 C 0.52513 0.73086 0.49638 0.0
C2298 C 0.4925 0.72946 0.49748 0.0
C2299 C 0.98215 0.28025 0.76 0.0
C2300 C 0.00964 0.29651 0.76303 0.0
C2301 C 0.9819 0.24815 0.75943 0.0
C2302 C 0.00919 0.23106 0.76088 0.0
H2303 H 0.96058 0.29238 0.75904 0.0
H2304 H 0.96009 0.23659 0.75793 0.0
S2305 S 0.08745 0.26277 0.76599 0.0
N2306 N 0.06503 0.29314 0.76588 0.0
N2307 N 0.06452 0.23293 0.76366 0.0
C2308 C 0.03691 0.24706 0.76247 0.0
C2309 C 0.03713 0.27973 0.76388 0.0
C2310 C 0.52258 0.49298 0.75649 0.0
C2311 C 0.49734 0.47646 0.74541 0.0
C2312 C 0.52122 0.52487 0.76038 0.0
C2313 C 0.49476 0.54165 0.7528 0.0
H2314 H 0.54316 0.48117 0.7633 0.0
H2315 H 0.54113 0.53633 0.76943 0.0
S2316 S 0.42217 0.50879 0.72344 0.0
N2317 N 0.44493 0.47901 0.72763 0.0
N2318 N 0.44242 0.5387 0.73411 0.0
C2319 C 0.46937 0.52523 0.74167 0.0
C2320 C 0.47065 0.49277 0.73822 0.0
C2321 C 0.73899 0.28621 0.48937 0.0
C2322 C 0.72285 0.26398 0.50626 0.0
C2323 C 0.77106 0.28595 0.48745 0.0
C2324 C 0.78847 0.2632 0.50188 0.0
H2325 H 0.72683 0.30421 0.47752 0.0
H2326 H 0.78236 0.30376 0.47452 0.0
S2327 S 0.75833 0.201 0.55071 0.0
N2328 N 0.72748 0.21928 0.53897 0.0
N2329 N 0.78762 0.21886 0.53505 0.0
C2330 C 0.77292 0.24097 0.51902 0.0
C2331 C 0.7402 0.24134 0.52127 0.0
C2332 C 0.53562 0.98904 0.76746 0.0
C2333 C 0.51124 0.97307 0.75417 0.0
C2334 C 0.53722 0.02101 0.7661 0.0
C2335 C 0.51467 0.03849 0.75101 0.0
H2336 H 0.55388 0.97664 0.77871 0.0
H2337 H 0.5566 0.03202 0.7768 0.0
S2338 S 0.44685 0.00707 0.71083 0.0
N2339 N 0.46461 0.97667 0.72441 0.0
N2340 N 0.4673 0.03675 0.72185 0.0
C2341 C 0.49008 0.02263 0.73754 0.0
C2342 C 0.48847 0.98996 0.73907 0.0
C2343 C 0.27314 0.27159 0.51223 0.0
C2344 C 0.2902 0.24455 0.51605 0.0
C2345 C 0.2414 0.2709 0.50668 0.0
C2346 C 0.2251 0.24318 0.50571 0.0
H2347 H 0.28434 0.29353 0.51302 0.0
H2348 H 0.22961 0.29234 0.50356 0.0
S2349 S 0.25872 0.16583 0.51518 0.0
N2350 N 0.28809 0.18916 0.51863 0.0
N2351 N 0.22873 0.18791 0.50924 0.0
C2352 C 0.24185 0.21601 0.50993 0.0
C2353 C 0.2742 0.21668 0.51489 0.0
C2354 C 0.52485 0.27799 0.03764 0.0
C2355 C 0.54205 0.25911 0.01789 0.0
C2356 C 0.49271 0.27897 0.03643 0.0
C2357 C 0.4763 0.26126 0.01537 0.0
H2358 H 0.53625 0.29203 0.05449 0.0
H2359 H 0.48057 0.29332 0.05252 0.0
S2360 S 0.5095 0.2072 0.95927 0.0
N2361 N 0.53954 0.22202 0.97662 0.0
N2362 N 0.47931 0.22347 0.975 0.0
C2363 C 0.49296 0.24234 0.99545 0.0
C2364 C 0.52574 0.24144 0.99648 0.0
C2365 C 0.50941 0.73828 0.24307 0.0
C2366 C 0.51134 0.72104 0.27019 0.0
C2367 C 0.50552 0.7702 0.24369 0.0
C2368 C 0.50432 0.78645 0.27143 0.0
H2369 H 0.5106 0.72712 0.2211 0.0
H2370 H 0.5041 0.7821 0.22219 0.0
S2371 S 0.50923 0.75239 0.349 0.0
N2372 N 0.51199 0.72293 0.32571 0.0
N2373 N 0.5056 0.78264 0.32681 0.0
C2374 C 0.50661 0.76951 0.2987 0.0
C2375 C 0.50992 0.73699 0.2981 0.0
C2376 C 0.09184 0.14801 0.37309 0.0
C2377 C 0.06107 0.15528 0.36714 0.0
C2378 C 0.10672 0.15914 0.39938 0.0
C2379 C 0.09115 0.17763 0.42049 0.0
H2380 H 0.10497 0.13525 0.35644 0.0
H2381 H 0.13074 0.15424 0.40273 0.0
S2382 S 0.01029 0.20213 0.41605 0.0
N2383 N 0.01554 0.18152 0.3849 0.0
N2384 N 0.04327 0.20167 0.43446 0.0
C2385 C 0.06015 0.18397 0.41539 0.0
C2386 C 0.04517 0.173 0.38863 0.0
C2387 C 0.3908 0.68082 0.88292 0.0
C2388 C 0.40592 0.70564 0.8966 0.0
C2389 C 0.4028 0.66676 0.8565 0.0
C2390 C 0.43026 0.67706 0.8433 0.0
H2391 H 0.37076 0.67111 0.89368 0.0
H2392 H 0.39148 0.64687 0.84722 0.0
S2393 S 0.4754 0.74429 0.86741 0.0
N2394 N 0.44755 0.74208 0.89273 0.0
N2395 N 0.46985 0.7157 0.84349 0.0
C2396 C 0.44426 0.70304 0.85562 0.0
C2397 C 0.43212 0.71732 0.88218 0.0
C2398 C 0.95432 0.36214 0.38325 0.0
C2399 C 0.94377 0.35382 0.35409 0.0
C2400 C 0.94012 0.35066 0.4098 0.0
C2401 C 0.91504 0.33048 0.40795 0.0
H2402 H 0.97468 0.37597 0.38553 0.0
H2403 H 0.94983 0.35625 0.43183 0.0
S2404 S 0.87598 0.30598 0.33698 0.0
N2405 N 0.90475 0.32718 0.32502 0.0
N2406 N 0.87816 0.30603 0.37463 0.0
C2407 C 0.90318 0.32383 0.37893 0.0
C2408 C 0.91752 0.33541 0.35211 0.0
C2409 C 0.59634 0.85143 0.87487 0.0
C2410 C 0.57798 0.83747 0.85233 0.0
C2411 C 0.60807 0.83472 0.89969 0.0
C2412 C 0.60195 0.80345 0.90285 0.0
H2413 H 0.60041 0.87577 0.87424 0.0
H2414 H 0.62035 0.84674 0.91749 0.0
S2415 S 0.55895 0.75512 0.84833 0.0
N2416 N 0.55749 0.78963 0.83323 0.0
N2417 N 0.57847 0.75864 0.88041 0.0
C2418 C 0.58499 0.78892 0.87983 0.0
C2419 C 0.57331 0.8058 0.85442 0.0
C2420 C 0.0564 0.86336 0.12845 0.0
C2421 C 0.07072 0.85748 0.15659 0.0
C2422 C 0.06855 0.85157 0.10103 0.0
C2423 C 0.09529 0.83345 0.10097 0.0
H2424 H 0.03475 0.87535 0.12782 0.0
H2425 H 0.05604 0.85521 0.08002 0.0
S2426 S 0.14374 0.81596 0.16816 0.0
N2427 N 0.11474 0.83549 0.1823 0.0
N2428 N 0.13749 0.81372 0.13104 0.0
C2429 C 0.11074 0.82931 0.12875 0.0
C2430 C 0.09847 0.84125 0.15646 0.0
C2431 C 0.06655 0.66108 0.13257 0.0
C2432 C 0.07755 0.67051 0.1612 0.0
C2433 C 0.07704 0.67439 0.1055 0.0
C2434 C 0.09922 0.69761 0.10571 0.0
H2435 H 0.04904 0.64372 0.13108 0.0
H2436 H 0.06695 0.66699 0.08415 0.0
S2437 S 0.13673 0.72978 0.17431 0.0
N2438 N 0.11289 0.70398 0.18803 0.0
N2439 N 0.13299 0.72863 0.13676 0.0
C2440 C 0.11171 0.70629 0.13393 0.0
C2441 C 0.10079 0.69283 0.16177 0.0
C2442 C 0.94061 0.66136 0.10239 0.0
C2443 C 0.91389 0.67945 0.10296 0.0
C2444 C 0.954 0.65045 0.12957 0.0
C2445 C 0.94101 0.65735 0.15808 0.0
H2446 H 0.9522 0.65709 0.08098 0.0
H2447 H 0.97556 0.63835 0.12838 0.0
S2448 S 0.86858 0.69918 0.17169 0.0
N2449 N 0.87301 0.70007 0.13425 0.0
N2450 N 0.89829 0.68019 0.18511 0.0
C2451 C 0.91328 0.67355 0.15874 0.0
C2452 C 0.89967 0.68446 0.13125 0.0
C2453 C 0.93539 0.83429 0.10538 0.0
C2454 C 0.91094 0.81347 0.10647 0.0
C2455 C 0.94694 0.84787 0.13184 0.0
C2456 C 0.93467 0.84124 0.16071 0.0
H2457 H 0.94623 0.83975 0.08381 0.0
H2458 H 0.966 0.86345 0.1297 0.0
S2459 S 0.8701 0.78854 0.17619 0.0
N2460 N 0.87422 0.78733 0.1387 0.0
N2461 N 0.89616 0.8127 0.18884 0.0
C2462 C 0.90949 0.82119 0.16218 0.0
C2463 C 0.89756 0.80736 0.13496 0.0
C2464 C 0.39781 0.06475 0.20145 0.0
C2465 C 0.41579 0.08097 0.18038 0.0
C2466 C 0.37094 0.05008 0.1925 0.0
C2467 C 0.36058 0.05085 0.16202 0.0
H2468 H 0.40359 0.06458 0.22546 0.0
H2469 H 0.35769 0.03874 0.21005 0.0
S2470 S 0.40082 0.08728 0.09709 0.0
N2471 N 0.42271 0.09466 0.12695 0.0
N2472 N 0.37168 0.06722 0.11019 0.0
C2473 C 0.37903 0.06556 0.14028 0.0
C2474 C 0.40663 0.08066 0.14946 0.0
C2475 C 0.32819 0.3887 0.11809 0.0
C2476 C 0.305 0.40334 0.10132 0.0
C2477 C 0.34279 0.36233 0.10657 0.0
C2478 C 0.3346 0.34987 0.07799 0.0
H2479 H 0.3363 0.39863 0.13924 0.0
H2480 H 0.36154 0.35247 0.11937 0.0
S2481 S 0.27133 0.37655 0.02824 0.0
N2482 N 0.27224 0.4014 0.05652 0.0
N2483 N 0.29867 0.35169 0.03573 0.0
C2484 C 0.30994 0.36313 0.06229 0.0
C2485 C 0.29543 0.3899 0.07373 0.0
C2486 C 0.60412 0.45253 0.19234 0.0
C2487 C 0.59328 0.42568 0.17849 0.0
C2488 C 0.63065 0.46702 0.18196 0.0
C2489 C 0.64733 0.45553 0.15706 0.0
H2490 H 0.59255 0.46192 0.21206 0.0
H2491 H 0.63891 0.48674 0.19439 0.0
S2492 S 0.62803 0.38709 0.11145 0.0
N2493 N 0.6007 0.38899 0.13743 0.0
N2494 N 0.65049 0.41672 0.11771 0.0
C2495 C 0.6359 0.42984 0.14173 0.0
C2496 C 0.60887 0.4148 0.15248 0.0
C2497 C 0.70672 0.13521 0.11295 0.0
C2498 C 0.69467 0.10695 0.10373 0.0
C2499 C 0.69303 0.16284 0.10344 0.0
C2500 C 0.66691 0.16298 0.08446 0.0
H2501 H 0.72777 0.13601 0.12594 0.0
H2502 H 0.70391 0.18415 0.10956 0.0
S2503 S 0.62395 0.09493 0.05853 0.0
N2504 N 0.65331 0.08084 0.07759 0.0
N2505 N 0.62757 0.13238 0.06035 0.0
C2506 C 0.65362 0.13482 0.07704 0.0
C2507 C 0.66751 0.10693 0.08652 0.0
C2508 C 0.35599 0.91814 0.33519 0.0
C2509 C 0.3561 0.94361 0.35479 0.0
C2510 C 0.38316 0.90545 0.32407 0.0
C2511 C 0.41172 0.91772 0.33195 0.0
H2512 H 0.33454 0.90843 0.32756 0.0
H2513 H 0.3818 0.8862 0.30864 0.0
S2514 S 0.42459 0.98493 0.382 0.0
N2515 N 0.38709 0.98074 0.38168 0.0
N2516 N 0.43845 0.95715 0.36056 0.0
C2517 C 0.41229 0.94275 0.35224 0.0
C2518 C 0.38442 0.95562 0.36374 0.0
C2519 C 0.16731 0.40013 0.9227 0.0
C2520 C 0.19344 0.40032 0.90398 0.0
C2521 C 0.15485 0.37287 0.93362 0.0
C2522 C 0.16799 0.34455 0.92639 0.0
H2523 H 0.157 0.42142 0.92998 0.0
H2524 H 0.13531 0.37398 0.94876 0.0
S2525 S 0.236 0.33233 0.87722 0.0
N2526 N 0.23136 0.36977 0.87749 0.0
N2527 N 0.20808 0.31819 0.89833 0.0
C2528 C 0.19326 0.34419 0.90642 0.0
C2529 C 0.20595 0.37218 0.89512 0.0
C2530 C 0.60179 0.56828 0.3468 0.0
C2531 C 0.60224 0.59428 0.32767 0.0
C2532 C 0.62897 0.55564 0.35862 0.0
C2533 C 0.65747 0.56855 0.35161 0.0
H2534 H 0.58049 0.55664 0.35136 0.0
H2535 H 0.62778 0.53462 0.37161 0.0
S2536 S 0.67095 0.63923 0.30698 0.0
N2537 N 0.63354 0.63456 0.30591 0.0
N2538 N 0.68439 0.6104 0.32724 0.0
C2539 C 0.65805 0.59552 0.33421 0.0
C2540 C 0.63053 0.60849 0.32245 0.0
C2541 C 0.8552 0.13089 0.94803 0.0
C2542 C 0.8467 0.15968 0.93681 0.0
C2543 C 0.84161 0.10422 0.93709 0.0
C2544 C 0.81896 0.10509 0.91427 0.0
H2545 H 0.87212 0.12908 0.96596 0.0
H2546 H 0.84835 0.08269 0.94728 0.0
S2547 S 0.78945 0.17465 0.87612 0.0
N2548 N 0.81503 0.18758 0.90069 0.0
N2549 N 0.78951 0.1371 0.87977 0.0
C2550 C 0.81122 0.13357 0.90164 0.0
C2551 C 0.8251 0.16097 0.91299 0.0
C2552 C 0.15928 0.40527 0.0714 0.0
C2553 C 0.18593 0.40716 0.08928 0.0
C2554 C 0.15071 0.37753 0.0574 0.0
C2555 C 0.16859 0.35101 0.06101 0.0
H2556 H 0.14524 0.42536 0.0681 0.0
H2557 H 0.13042 0.37702 0.04324 0.0
S2558 S 0.2383 0.34385 0.10911 0.0
N2559 N 0.22838 0.38008 0.1121 0.0
N2560 N 0.21284 0.32826 0.08611 0.0
C2561 C 0.19475 0.35272 0.07977 0.0
C2562 C 0.20327 0.38072 0.09384 0.0
C2563 C 0.18825 0.64321 0.46344 0.0
C2564 C 0.15845 0.65422 0.45833 0.0
C2565 C 0.19923 0.61717 0.44865 0.0
C2566 C 0.18096 0.60085 0.42795 0.0
H2567 H 0.2037 0.65541 0.47844 0.0
H2568 H 0.22248 0.60998 0.45316 0.0
S2569 S 0.10071 0.61919 0.40745 0.0
N2570 N 0.1103 0.64613 0.43207 0.0
N2571 N 0.13096 0.59682 0.40403 0.0
C2572 C 0.15057 0.6107 0.42359 0.0
C2573 C 0.13931 0.63745 0.43884 0.0
C2574 C 0.89609 0.61786 0.83217 0.0
C2575 C 0.9031 0.60744 0.80267 0.0
C2576 C 0.87035 0.60676 0.84794 0.0
C2577 C 0.85093 0.58466 0.83481 0.0
H2578 H 0.91168 0.63304 0.84392 0.0
H2579 H 0.86669 0.61419 0.87122 0.0
S2580 S 0.85718 0.55363 0.75623 0.0
N2581 N 0.88715 0.5762 0.75981 0.0
N2582 N 0.8386 0.55592 0.78898 0.0
C2583 C 0.85669 0.57573 0.80451 0.0
C2584 C 0.88284 0.58695 0.78859 0.0
C2585 C 0.82131 0.87585 0.46315 0.0
C2586 C 0.85084 0.8634 0.46026 0.0
C2587 C 0.81199 0.90086 0.44569 0.0
C2588 C 0.83175 0.91468 0.42457 0.0
H2589 H 0.80476 0.86555 0.47839 0.0
H2590 H 0.78885 0.9092 0.44835 0.0
S2591 S 0.91206 0.89256 0.40953 0.0
N2592 N 0.90044 0.86791 0.43566 0.0
N2593 N 0.88277 0.91552 0.40291 0.0
C2594 C 0.86186 0.9037 0.42249 0.0
C2595 C 0.87145 0.87792 0.44032 0.0
C2596 C 0.63873 0.45239 0.31666 0.0
C2597 C 0.65511 0.43407 0.33734 0.0
C2598 C 0.61213 0.44183 0.30256 0.0
C2599 C 0.60068 0.41237 0.30827 0.0
H2600 H 0.64641 0.47527 0.31139 0.0
H2601 H 0.60009 0.45722 0.28734 0.0
S2602 S 0.6352 0.35475 0.35972 0.0
N2603 N 0.65824 0.3845 0.36234 0.0
N2604 N 0.60814 0.36455 0.33526 0.0
C2605 C 0.6173 0.39323 0.32792 0.0
C2606 C 0.64452 0.4041 0.34259 0.0
C2607 C 0.36853 0.62518 0.55943 0.0
C2608 C 0.36421 0.65364 0.57364 0.0
C2609 C 0.3569 0.59825 0.57276 0.0
C2610 C 0.34053 0.59922 0.60048 0.0
H2611 H 0.37883 0.624 0.53696 0.0
H2612 H 0.35881 0.57697 0.56036 0.0
S2613 S 0.32758 0.66734 0.64875 0.0
N2614 N 0.34585 0.68053 0.61852 0.0
N2615 N 0.32413 0.63022 0.64327 0.0
C2616 C 0.33829 0.62718 0.61583 0.0
C2617 C 0.35011 0.65432 0.60247 0.0
C2618 C 0.90888 0.42798 0.66579 0.0
C2619 C 0.90817 0.40956 0.69211 0.0
C2620 C 0.882 0.43738 0.65122 0.0
C2621 C 0.85309 0.42921 0.66256 0.0
H2622 H 0.93049 0.43626 0.65702 0.0
H2623 H 0.8839 0.45223 0.63154 0.0
S2624 S 0.83887 0.3794 0.72985 0.0
N2625 N 0.87649 0.38158 0.72782 0.0
N2626 N 0.82561 0.39992 0.70108 0.0
C2627 C 0.85207 0.40932 0.68799 0.0
C2628 C 0.8797 0.39936 0.70262 0.0
C2629 C 0.15492 0.11073 0.6718 0.0
C2630 C 0.16675 0.08178 0.67954 0.0
C2631 C 0.12871 0.12254 0.68656 0.0
C2632 C 0.11385 0.10579 0.70964 0.0
H2633 H 0.16505 0.1235 0.65322 0.0
H2634 H 0.11901 0.14386 0.6786 0.0
S2635 S 0.13922 0.03152 0.74179 0.0
N2636 N 0.16401 0.03879 0.71434 0.0
N2637 N 0.11521 0.0606 0.74185 0.0
C2638 C 0.12695 0.07793 0.71892 0.0
C2639 C 0.15328 0.066 0.70394 0.0
C2640 C 0.54725 0.67955 0.87828 0.0
C2641 C 0.55763 0.65444 0.86121 0.0
C2642 C 0.56245 0.68898 0.90472 0.0
C2643 C 0.5887 0.67373 0.91507 0.0
H2644 H 0.528 0.69292 0.8703 0.0
H2645 H 0.55433 0.70907 0.91662 0.0
S2646 S 0.62381 0.60519 0.88024 0.0
N2647 N 0.59458 0.61318 0.85764 0.0
N2648 N 0.62321 0.63099 0.9078 0.0
C2649 C 0.59826 0.64741 0.89947 0.0
C2650 C 0.58267 0.63772 0.87237 0.0
C2651 C 0.90081 0.20615 0.3749 0.0
C2652 C 0.90595 0.19314 0.40379 0.0
C2653 C 0.91277 0.19242 0.34835 0.0
C2654 C 0.93026 0.16535 0.34998 0.0
H2655 H 0.88938 0.22802 0.37302 0.0
H2656 H 0.90994 0.20404 0.32671 0.0
S2657 S 0.94588 0.12023 0.41993 0.0
N2658 N 0.92675 0.15031 0.43219 0.0
N2659 N 0.94853 0.12431 0.38254 0.0
C2660 C 0.93349 0.15117 0.37857 0.0
C2661 C 0.92152 0.16513 0.4054 0.0
C2662 C 0.41475 0.83717 0.85258 0.0
C2663 C 0.44152 0.85492 0.85312 0.0
C2664 C 0.40152 0.82607 0.87953 0.0
C2665 C 0.41465 0.83192 0.90825 0.0
H2666 H 0.4046 0.83073 0.83095 0.0
H2667 H 0.38133 0.81193 0.87779 0.0
S2668 S 0.48507 0.87721 0.92203 0.0
N2669 N 0.48052 0.87837 0.88459 0.0
N2670 N 0.45608 0.85715 0.93545 0.0
C2671 C 0.44089 0.85065 0.90922 0.0
C2672 C 0.45423 0.86221 0.8816 0.0
C2673 C 0.11799 0.33126 0.39193 0.0
C2674 C 0.10658 0.30243 0.40003 0.0
C2675 C 0.10623 0.34706 0.36649 0.0
C2676 C 0.08266 0.33454 0.34844 0.0
H2677 H 0.13445 0.34256 0.40652 0.0
H2678 H 0.11437 0.36995 0.36203 0.0
S2679 S 0.04919 0.25726 0.35734 0.0
N2680 N 0.07315 0.26049 0.3863 0.0
N2681 N 0.0518 0.28959 0.33811 0.0
C2682 C 0.0729 0.30469 0.35509 0.0
C2683 C 0.08468 0.2888 0.381 0.0
C2684 C 0.55649 0.31749 0.6447 0.0
C2685 C 0.56132 0.34784 0.65405 0.0
C2686 C 0.5699 0.30585 0.61817 0.0
C2687 C 0.58895 0.32394 0.59974 0.0
H2688 H 0.54246 0.3023 0.65828 0.0
H2689 H 0.5653 0.28235 0.61212 0.0
S2690 S 0.60894 0.40507 0.61393 0.0
N2691 N 0.58606 0.39605 0.64255 0.0
N2692 N 0.61177 0.37407 0.59262 0.0
C2693 C 0.59344 0.35464 0.60834 0.0
C2694 C 0.57951 0.36661 0.63547 0.0
C2695 C 0.57889 0.16847 0.60233 0.0
C2696 C 0.60166 0.19116 0.60168 0.0
C2697 C 0.56771 0.15668 0.62988 0.0
C2698 C 0.57866 0.1671 0.65818 0.0
H2699 H 0.56896 0.1602 0.58122 0.0
H2700 H 0.54995 0.13953 0.62902 0.0
S2701 S 0.63836 0.22639 0.66922 0.0
N2702 N 0.63527 0.22328 0.63175 0.0
N2703 N 0.61395 0.20162 0.68379 0.0
C2704 C 0.60214 0.18923 0.65795 0.0
C2705 C 0.61373 0.2011 0.62966 0.0
C2706 C 0.45692 0.15599 0.63274 0.0
C2707 C 0.44248 0.16074 0.66098 0.0
C2708 C 0.44438 0.16801 0.60565 0.0
C2709 C 0.41702 0.18513 0.60597 0.0
H2710 H 0.47889 0.14464 0.63178 0.0
H2711 H 0.45704 0.16529 0.58459 0.0
S2712 S 0.36781 0.19867 0.67348 0.0
N2713 N 0.39776 0.18029 0.68725 0.0
N2714 N 0.37393 0.20219 0.63642 0.0
C2715 C 0.4014 0.188 0.63382 0.0
C2716 C 0.41421 0.17596 0.66129 0.0
C2717 C 0.4391 0.35917 0.63834 0.0
C2718 C 0.43291 0.34647 0.66721 0.0
C2719 C 0.42729 0.3463 0.61154 0.0
C2720 C 0.40826 0.32046 0.61229 0.0
H2721 H 0.4541 0.37867 0.63628 0.0
H2722 H 0.43412 0.35603 0.58982 0.0
S2723 S 0.38274 0.27956 0.68169 0.0
N2724 N 0.40493 0.30705 0.69478 0.0
N2725 N 0.38198 0.28371 0.6442 0.0
C2726 C 0.4001 0.30862 0.64091 0.0
C2727 C 0.41256 0.32144 0.66841 0.0
C2728 C 0.87336 0.58636 0.64022 0.0
C2729 C 0.86566 0.55696 0.65036 0.0
C2730 C 0.89968 0.60116 0.65123 0.0
C2731 C 0.91914 0.58699 0.67271 0.0
H2732 H 0.85786 0.59883 0.62548 0.0
H2733 H 0.9037 0.62453 0.64435 0.0
S2734 S 0.91133 0.50792 0.70222 0.0
N2735 N 0.88084 0.51304 0.6806 0.0
N2736 N 0.93094 0.54001 0.69996 0.0
C2737 C 0.91281 0.5566 0.68098 0.0
C2738 C 0.88588 0.54182 0.67017 0.0
C2739 C 0.84789 0.89714 0.60309 0.0
C2740 C 0.81836 0.89838 0.61572 0.0
C2741 C 0.85979 0.87 0.591 0.0
C2742 C 0.84258 0.84295 0.59086 0.0
H2743 H 0.86125 0.91784 0.60086 0.0
H2744 H 0.88212 0.87047 0.58037 0.0
S2745 S 0.7641 0.83397 0.62182 0.0
N2746 N 0.77247 0.87015 0.62829 0.0
N2747 N 0.79464 0.81893 0.60547 0.0
C2748 C 0.81356 0.84345 0.60492 0.0
C2749 C 0.80148 0.87124 0.61736 0.0
C2750 C 0.12928 0.9563 0.65278 0.0
C2751 C 0.15824 0.94772 0.66374 0.0
C2752 C 0.10259 0.94233 0.66417 0.0
C2753 C 0.10419 0.91944 0.6868 0.0
H2754 H 0.12714 0.97483 0.63653 0.0
H2755 H 0.08057 0.95039 0.65627 0.0
S2756 S 0.17482 0.88556 0.71902 0.0
N2757 N 0.18702 0.91261 0.6958 0.0
N2758 N 0.1372 0.8864 0.71668 0.0
C2759 C 0.13312 0.90951 0.69637 0.0
C2760 C 0.16006 0.92365 0.68496 0.0
C2761 C 0.20569 0.6606 0.57456 0.0
C2762 C 0.17815 0.67065 0.58774 0.0
C2763 C 0.22108 0.63489 0.58574 0.0
C2764 C 0.20983 0.6183 0.61081 0.0
H2765 H 0.21481 0.67201 0.55461 0.0
H2766 H 0.24116 0.62693 0.57363 0.0
S2767 S 0.13994 0.63591 0.65501 0.0
N2768 N 0.14117 0.66275 0.62849 0.0
N2769 N 0.17057 0.61449 0.64967 0.0
C2770 C 0.18351 0.62911 0.62557 0.0
C2771 C 0.16757 0.6553 0.61402 0.0
C2772 C 0.91102 0.44792 0.85098 0.0
C2773 C 0.90983 0.42201 0.83191 0.0
C2774 C 0.8841 0.46103 0.86293 0.0
C2775 C 0.85535 0.44834 0.85633 0.0
H2776 H 0.93271 0.45896 0.8553 0.0
H2777 H 0.88564 0.48212 0.87572 0.0
S2778 S 0.84078 0.37746 0.81243 0.0
N2779 N 0.87815 0.38218 0.81035 0.0
N2780 N 0.82779 0.40634 0.83288 0.0
C2781 C 0.85429 0.42123 0.83917 0.0
C2782 C 0.88146 0.40818 0.8269 0.0
C2783 C 0.71579 0.88713 0.43497 0.0
C2784 C 0.70979 0.8993 0.40576 0.0
C2785 C 0.70107 0.86078 0.44548 0.0
C2786 C 0.67936 0.84559 0.42737 0.0
H2787 H 0.73097 0.89891 0.45055 0.0
H2788 H 0.70515 0.85365 0.46878 0.0
S2789 S 0.65866 0.86549 0.34753 0.0
N2790 N 0.68328 0.89222 0.3576 0.0
N2791 N 0.65538 0.84255 0.37734 0.0
C2792 C 0.6749 0.85614 0.39722 0.0
C2793 C 0.69019 0.88297 0.3864 0.0
C2794 C 0.13652 0.085 0.87049 0.0
C2795 C 0.14233 0.05477 0.86166 0.0
C2796 C 0.1115 0.10117 0.85845 0.0
C2797 C 0.09143 0.08765 0.83715 0.0
H2798 H 0.1527 0.09697 0.88488 0.0
H2799 H 0.10909 0.12502 0.86437 0.0
S2800 S 0.09398 0.00697 0.81139 0.0
N2801 N 0.12441 0.01071 0.8334 0.0
N2802 N 0.0768 0.04058 0.81158 0.0
C2803 C 0.09575 0.05657 0.83019 0.0
C2804 C 0.12136 0.04028 0.84224 0.0
C2805 C 0.33578 0.60348 0.43766 0.0
C2806 C 0.31414 0.60472 0.41389 0.0
C2807 C 0.34953 0.62988 0.44909 0.0
C2808 C 0.34228 0.65882 0.43735 0.0
H2809 H 0.34178 0.58184 0.44808 0.0
H2810 H 0.36574 0.62763 0.46765 0.0
S2811 S 0.28741 0.67474 0.3746 0.0
N2812 N 0.28659 0.63721 0.37833 0.0
N2813 N 0.31232 0.68721 0.40006 0.0
C2814 C 0.32142 0.66046 0.41282 0.0
C2815 C 0.30739 0.63332 0.40103 0.0
C2816 C 0.69649 0.90784 0.55819 0.0
C2817 C 0.68429 0.91595 0.58675 0.0
C2818 C 0.68448 0.8835 0.54134 0.0
C2819 C 0.65959 0.86633 0.55215 0.0
H2820 H 0.71614 0.91982 0.54919 0.0
H2821 H 0.69577 0.87712 0.52027 0.0
S2822 S 0.61825 0.87878 0.62485 0.0
N2823 N 0.64493 0.90543 0.62459 0.0
N2824 N 0.62224 0.85976 0.59253 0.0
C2825 C 0.64596 0.87514 0.57978 0.0
C2826 C 0.65834 0.89993 0.59718 0.0
C2827 C 0.69578 0.14928 0.96211 0.0
C2828 C 0.66659 0.16174 0.95674 0.0
C2829 C 0.70541 0.12241 0.94787 0.0
C2830 C 0.6864 0.1066 0.92743 0.0
H2831 H 0.71174 0.16063 0.97722 0.0
H2832 H 0.72817 0.11406 0.95284 0.0
S2833 S 0.60726 0.12866 0.90626 0.0
N2834 N 0.61814 0.15552 0.93041 0.0
N2835 N 0.63639 0.10479 0.90327 0.0
C2836 C 0.65666 0.11805 0.9226 0.0
C2837 C 0.64673 0.14564 0.93732 0.0
C2838 C 0.38859 0.11293 0.316 0.0
C2839 C 0.40849 0.09255 0.30119 0.0
C2840 C 0.36223 0.10229 0.33114 0.0
C2841 C 0.35466 0.07095 0.33187 0.0
H2842 H 0.3941 0.137 0.3171 0.0
H2843 H 0.34804 0.11865 0.34306 0.0
S2844 S 0.39823 0.00853 0.29428 0.0
N2845 N 0.41745 0.0398 0.28606 0.0
N2846 N 0.36905 0.01997 0.31514 0.0
C2847 C 0.37375 0.05061 0.3159 0.0
C2848 C 0.40034 0.06139 0.30043 0.0
C2849 C 0.33561 0.3554 0.91874 0.0
C2850 C 0.35471 0.35559 0.9446 0.0
C2851 C 0.32318 0.38237 0.9069 0.0
C2852 C 0.32911 0.4108 0.92049 0.0
H2853 H 0.32921 0.33397 0.9082 0.0
H2854 H 0.30807 0.38087 0.88737 0.0
S2855 S 0.37805 0.42385 0.98857 0.0
N2856 N 0.37975 0.38659 0.98305 0.0
N2857 N 0.35603 0.43753 0.9611 0.0
C2858 C 0.34921 0.41154 0.94571 0.0
C2859 C 0.36211 0.38387 0.95768 0.0
C2860 C 0.16184 0.91415 0.82038 0.0
C2861 C 0.16199 0.92856 0.84926 0.0
C2862 C 0.13464 0.90267 0.80754 0.0
C2863 C 0.10672 0.90532 0.82312 0.0
H2864 H 0.18245 0.9134 0.80676 0.0
H2865 H 0.13514 0.89368 0.78452 0.0
S2866 S 0.09534 0.93636 0.90101 0.0
N2867 N 0.13223 0.94076 0.8945 0.0
N2868 N 0.08124 0.92036 0.86993 0.0
C2869 C 0.10693 0.91775 0.85267 0.0
C2870 C 0.1345 0.92906 0.86586 0.0
C2871 C 0.82731 0.12429 0.10676 0.0
C2872 C 0.83254 0.09668 0.09131 0.0
C2873 C 0.84016 0.15169 0.09655 0.0
C2874 C 0.85909 0.15275 0.07058 0.0
H2875 H 0.81235 0.12491 0.12644 0.0
H2876 H 0.83415 0.17257 0.10839 0.0
S2877 S 0.88172 0.08686 0.02277 0.0
N2878 N 0.85922 0.07201 0.04915 0.0
N2879 N 0.88397 0.12367 0.03058 0.0
C2880 C 0.86615 0.12518 0.05591 0.0
C2881 C 0.85272 0.09711 0.06611 0.0
C2882 C 0.38119 0.92991 0.15495 0.0
C2883 C 0.3527 0.92239 0.16767 0.0
C2884 C 0.4085 0.92043 0.16861 0.0
C2885 C 0.40858 0.9027 0.19541 0.0
H2886 H 0.38237 0.94421 0.13481 0.0
H2887 H 0.42986 0.92799 0.15865 0.0
S2888 S 0.3404 0.87561 0.23742 0.0
N2889 N 0.3263 0.89524 0.2084 0.0
N2890 N 0.37792 0.87673 0.23353 0.0
C2891 C 0.3804 0.89346 0.20753 0.0
C2892 C 0.35237 0.90346 0.19378 0.0
C2893 C 0.66237 0.60224 0.19106 0.0
C2894 C 0.66139 0.58461 0.16411 0.0
C2895 C 0.63534 0.61329 0.2047 0.0
C2896 C 0.60666 0.60706 0.19166 0.0
H2897 H 0.68391 0.60581 0.20267 0.0
H2898 H 0.63675 0.62484 0.22653 0.0
S2899 S 0.59227 0.56647 0.11879 0.0
N2900 N 0.62972 0.56506 0.12308 0.0
N2901 N 0.5792 0.58529 0.14872 0.0
C2902 C 0.60571 0.59145 0.16366 0.0
C2903 C 0.63301 0.58036 0.14985 0.0
loop_
_geom_bond_atom_site_label_1
_geom_bond_atom_site_label_2
_geom_bond_distance
_geom_bond_site_symmetry_2
_ccdc_geom_bond_type
C0 C1 1.351 . S
C0 N3 1.368 . S
C0 H5 0.931 . S
C1 C0 1.351 . S
C1 N2 1.373 . S
C1 H29 0.930 . S
N2 C1 1.373 . S
N2 C4 1.340 . S
N3 C0 1.368 . S
N3 C4 1.321 . S
N3 Co6 2.135 . S
C4 N2 1.340 . S
C4 N3 1.321 . S
C4 H28 0.930 . S
H5 C0 0.931 . S
Co6 N3 2.135 . S
Co6 N9 2.121 1_455 S
Co6 O14 2.055 . S
Co6 O17 2.039 . S
Co6 N20 2.140 . S
C7 O8 1.227 . S
C7 O17 1.265 . S
O8 C7 1.227 . S
N9 Co6 2.121 1_655 S
N9 C11 1.375 . S
N9 C12 1.313 . S
C10 C11 1.338 . S
C10 N13 1.377 . S
C10 H30 0.930 . S
C11 N9 1.375 . S
C11 C10 1.338 . S
C11 H15 0.931 . S
C12 N9 1.313 . S
C12 N13 1.344 . S
C12 H16 0.930 . S
N13 C10 1.377 . S
N13 C12 1.344 . S
O14 Co6 2.055 . S
O14 C18 1.253 . S
H15 C11 0.931 . S
H16 C12 0.930 . S
O17 Co6 2.039 . S
O17 C7 1.265 . S
C18 O14 1.253 . S
C18 O19 1.227 . S
O19 C18 1.227 . S
N20 Co6 2.140 . S
N20 C23 1.346 . S
N20 C24 1.345 . S
C21 C22 1.387 . S
C21 C25 1.391 . S
C22 C21 1.387 . S
C22 C23 1.369 . S
C22 H31 0.929 . S
C23 N20 1.346 . S
C23 C22 1.369 . S
C23 H26 0.928 . S
C24 N20 1.345 . S
C24 C25 1.371 . S
C24 H27 0.931 . S
C25 C21 1.391 . S
C25 C24 1.371 . S
C25 H32 0.930 1_455 S
H26 C23 0.928 . S
H27 C24 0.931 . S
H28 C4 0.930 . S
H29 C1 0.930 . S
H30 C10 0.930 . S
H31 C22 0.929 . S
H32 C25 0.930 1_655 S
C33 C34 1.351 . S
C33 N36 1.368 . S
C33 H38 0.931 . S
C34 C33 1.351 . S
C34 N35 1.373 1_556 S
C34 H62 0.925 1_556 S
N35 C34 1.373 1_554 S
N35 C37 1.340 1_554 S
N36 C33 1.368 . S
N36 C37 1.321 . S
N36 Co39 2.135 . S
C37 N35 1.340 1_556 S
C37 N36 1.321 . S
C37 H61 0.930 1_556 S
H38 C33 0.931 . S
Co39 N36 2.135 . S
Co39 N42 2.121 . S
Co39 O47 2.055 . S
Co39 O50 2.039 . S
Co39 N53 2.140 1_556 S
C40 O41 1.227 1_556 S
C40 O50 1.265 . S
O41 C40 1.227 1_554 S
N42 Co39 2.121 . S
N42 C44 1.375 . S
N42 C45 1.313 . S
C43 C44 1.338 . S
C43 N46 1.377 . S
C43 H63 0.930 . S
C44 N42 1.375 . S
C44 C43 1.338 . S
C44 H48 0.931 . S
C45 N42 1.313 . S
C45 N46 1.344 . S
C45 H49 0.930 . S
N46 C43 1.377 . S
N46 C45 1.344 . S
O47 Co39 2.055 . S
O47 C51 1.253 . S
H48 C44 0.931 . S
H49 C45 0.930 . S
O50 Co39 2.039 . S
O50 C40 1.265 . S
C51 O47 1.253 . S
C51 O52 1.227 . S
O52 C51 1.227 . S
N53 Co39 2.140 1_554 S
N53 C56 1.346 . S
N53 C57 1.345 . S
C54 C55 1.387 . S
C54 C58 1.391 . S
C55 C54 1.387 . S
C55 C56 1.369 . S
C55 H64 0.929 . S
C56 N53 1.346 . S
C56 C55 1.369 . S
C56 H59 0.928 . S
C57 N53 1.345 . S
C57 C58 1.371 . S
C57 H60 0.931 1_554 S
C58 C54 1.391 . S
C58 C57 1.371 . S
C58 H65 0.930 . S
H59 C56 0.928 . S
H60 C57 0.931 1_556 S
H61 C37 0.930 1_554 S
H62 C34 0.925 1_554 S
H63 C43 0.930 . S
H64 C55 0.929 . S
H65 C58 0.930 . S
C66 C67 1.351 . S
C66 N69 1.368 . S
C66 H71 0.931 . S
C67 C66 1.351 . S
C67 N68 1.373 . S
C67 H95 0.930 . S
N68 C67 1.373 . S
N68 C70 1.340 . S
N69 C66 1.368 . S
N69 C70 1.321 . S
N69 Co72 2.135 . S
C70 N68 1.340 . S
C70 N69 1.321 . S
C70 H94 0.930 . S
H71 C66 0.931 . S
Co72 N69 2.135 . S
Co72 N75 2.121 1_655 S
Co72 O80 2.055 . S
Co72 O83 2.039 . S
Co72 N86 2.140 . S
C73 O74 1.227 . S
C73 O83 1.265 . S
O74 C73 1.227 . S
N75 Co72 2.121 1_455 S
N75 C77 1.375 . S
N75 C78 1.313 . S
C76 C77 1.338 . S
C76 N79 1.377 . S
C76 H96 0.930 . S
C77 N75 1.375 . S
C77 C76 1.338 . S
C77 H81 0.931 . S
C78 N75 1.313 . S
C78 N79 1.344 . S
C78 H82 0.930 . S
N79 C76 1.377 . S
N79 C78 1.344 . S
O80 Co72 2.055 . S
O80 C84 1.253 . S
H81 C77 0.931 . S
H82 C78 0.930 . S
O83 Co72 2.039 . S
O83 C73 1.265 . S
C84 O80 1.253 . S
C84 O85 1.227 . S
O85 C84 1.227 . S
N86 Co72 2.140 . S
N86 C89 1.346 . S
N86 C90 1.345 . S
C87 C88 1.387 . S
C87 C91 1.391 . S
C88 C87 1.387 . S
C88 C89 1.369 . S
C88 H97 0.929 . S
C89 N86 1.346 . S
C89 C88 1.369 . S
C89 H92 0.928 . S
C90 N86 1.345 . S
C90 C91 1.371 . S
C90 H93 0.931 . S
C91 C87 1.391 . S
C91 C90 1.371 . S
C91 H98 0.930 1_655 S
H92 C89 0.928 . S
H93 C90 0.931 . S
H94 C70 0.930 . S
H95 C67 0.930 . S
H96 C76 0.930 . S
H97 C88 0.929 . S
H98 C91 0.930 1_455 S
C99 C100 1.351 . S
C99 N102 1.368 . S
C99 H104 0.931 . S
C100 C99 1.351 . S
C100 N101 1.373 1_556 S
C100 H128 0.925 1_556 S
N101 C100 1.373 1_554 S
N101 C103 1.340 1_554 S
N102 C99 1.368 . S
N102 C103 1.321 . S
N102 Co105 2.135 . S
C103 N101 1.340 1_556 S
C103 N102 1.321 . S
C103 H127 0.930 1_556 S
H104 C99 0.931 . S
Co105 N102 2.135 . S
Co105 N108 2.121 . S
Co105 O113 2.055 . S
Co105 O116 2.039 . S
Co105 N119 2.140 1_556 S
C106 O107 1.227 1_556 S
C106 O116 1.265 . S
O107 C106 1.227 1_554 S
N108 Co105 2.121 . S
N108 C110 1.375 . S
N108 C111 1.313 . S
C109 C110 1.338 . S
C109 N112 1.377 . S
C109 H129 0.930 . S
C110 N108 1.375 . S
C110 C109 1.338 . S
C110 H114 0.931 . S
C111 N108 1.313 . S
C111 N112 1.344 . S
C111 H115 0.930 . S
N112 C109 1.377 . S
N112 C111 1.344 . S
O113 Co105 2.055 . S
O113 C117 1.253 . S
H114 C110 0.931 . S
H115 C111 0.930 . S
O116 Co105 2.039 . S
O116 C106 1.265 . S
C117 O113 1.253 . S
C117 O118 1.227 . S
O118 C117 1.227 . S
N119 Co105 2.140 1_554 S
N119 C122 1.346 . S
N119 C123 1.345 . S
C120 C121 1.387 . S
C120 C124 1.391 . S
C121 C120 1.387 . S
C121 C122 1.369 . S
C121 H130 0.929 . S
C122 N119 1.346 . S
C122 C121 1.369 . S
C122 H125 0.928 . S
C123 N119 1.345 . S
C123 C124 1.371 . S
C123 H126 0.931 1_554 S
C124 C120 1.391 . S
C124 C123 1.371 . S
C124 H131 0.930 . S
H125 C122 0.928 . S
H126 C123 0.931 1_556 S
H127 C103 0.930 1_554 S
H128 C100 0.925 1_554 S
H129 C109 0.930 . S
H130 C121 0.929 . S
H131 C124 0.930 . S
C132 C133 1.351 . S
C132 N135 1.368 . S
C132 H137 0.931 . S
C133 C132 1.351 . S
C133 N134 1.373 . S
C133 H161 0.930 . S
N134 C133 1.373 . S
N134 C136 1.340 . S
N135 C132 1.368 . S
N135 C136 1.321 . S
N135 Co138 2.135 . S
C136 N134 1.340 . S
C136 N135 1.321 . S
C136 H160 0.930 . S
H137 C132 0.931 . S
Co138 N135 2.135 . S
Co138 N141 2.121 1_455 S
Co138 O146 2.055 . S
Co138 O149 2.039 . S
Co138 N152 2.140 . S
C139 O140 1.227 . S
C139 O149 1.265 . S
O140 C139 1.227 . S
N141 Co138 2.121 1_655 S
N141 C143 1.375 . S
N141 C144 1.313 . S
C142 C143 1.338 . S
C142 N145 1.377 . S
C142 H162 0.930 . S
C143 N141 1.375 . S
C143 C142 1.338 . S
C143 H147 0.931 . S
C144 N141 1.313 . S
C144 N145 1.344 . S
C144 H148 0.930 . S
N145 C142 1.377 . S
N145 C144 1.344 . S
O146 Co138 2.055 . S
O146 C150 1.253 . S
H147 C143 0.931 . S
H148 C144 0.930 . S
O149 Co138 2.039 . S
O149 C139 1.265 . S
C150 O146 1.253 . S
C150 O151 1.227 . S
O151 C150 1.227 . S
N152 Co138 2.140 . S
N152 C155 1.346 . S
N152 C156 1.345 . S
C153 C154 1.387 . S
C153 C157 1.391 . S
C154 C153 1.387 . S
C154 C155 1.369 . S
C154 H163 0.929 . S
C155 N152 1.346 . S
C155 C154 1.369 . S
C155 H158 0.928 . S
C156 N152 1.345 . S
C156 C157 1.371 . S
C156 H159 0.931 . S
C157 C153 1.391 . S
C157 C156 1.371 . S
C157 H164 0.930 1_455 S
H158 C155 0.928 . S
H159 C156 0.931 . S
H160 C136 0.930 . S
H161 C133 0.930 . S
H162 C142 0.930 . S
H163 C154 0.929 . S
H164 C157 0.930 1_655 S
C165 C166 1.351 . S
C165 N168 1.368 . S
C165 H170 0.931 . S
C166 C165 1.351 . S
C166 N167 1.373 1_554 S
C166 H194 0.926 1_554 S
N167 C166 1.373 1_556 S
N167 C169 1.340 1_556 S
N168 C165 1.368 . S
N168 C169 1.321 . S
N168 Co171 2.135 . S
C169 N167 1.340 1_554 S
C169 N168 1.321 . S
C169 H193 0.930 1_554 S
H170 C165 0.931 . S
Co171 N168 2.135 . S
Co171 N174 2.121 . S
Co171 O179 2.055 . S
Co171 O182 2.039 . S
Co171 N185 2.140 1_554 S
C172 O173 1.227 1_554 S
C172 O182 1.265 . S
O173 C172 1.227 1_556 S
N174 Co171 2.121 . S
N174 C176 1.375 . S
N174 C177 1.313 . S
C175 C176 1.338 . S
C175 N178 1.377 . S
C175 H195 0.930 . S
C176 N174 1.375 . S
C176 C175 1.338 . S
C176 H180 0.931 . S
C177 N174 1.313 . S
C177 N178 1.344 . S
C177 H181 0.930 . S
N178 C175 1.377 . S
N178 C177 1.344 . S
O179 Co171 2.055 . S
O179 C183 1.253 . S
H180 C176 0.931 . S
H181 C177 0.930 . S
O182 Co171 2.039 . S
O182 C172 1.265 . S
C183 O179 1.253 . S
C183 O184 1.227 . S
O184 C183 1.227 . S
N185 Co171 2.140 1_556 S
N185 C188 1.346 . S
N185 C189 1.345 . S
C186 C187 1.387 . S
C186 C190 1.391 . S
C187 C186 1.387 . S
C187 C188 1.369 . S
C187 H196 0.929 . S
C188 N185 1.346 . S
C188 C187 1.369 . S
C188 H191 0.928 . S
C189 N185 1.345 . S
C189 C190 1.371 . S
C189 H192 0.931 1_556 S
C190 C186 1.391 . S
C190 C189 1.371 . S
C190 H197 0.930 . S
H191 C188 0.928 . S
H192 C189 0.931 1_554 S
H193 C169 0.930 1_556 S
H194 C166 0.926 1_556 S
H195 C175 0.930 . S
H196 C187 0.929 . S
H197 C190 0.930 . S
C198 C199 1.351 . S
C198 N201 1.368 . S
C198 H203 0.931 . S
C199 C198 1.351 . S
C199 N200 1.373 . S
C199 H227 0.930 . S
N200 C199 1.373 . S
N200 C202 1.340 . S
N201 C198 1.368 . S
N201 C202 1.321 . S
N201 Co204 2.135 . S
C202 N200 1.340 . S
C202 N201 1.321 . S
C202 H226 0.930 . S
H203 C198 0.931 . S
Co204 N201 2.135 . S
Co204 N207 2.121 1_655 S
Co204 O212 2.055 . S
Co204 O215 2.039 . S
Co204 N218 2.140 . S
C205 O206 1.227 . S
C205 O215 1.265 . S
O206 C205 1.227 . S
N207 Co204 2.121 1_455 S
N207 C209 1.375 . S
N207 C210 1.313 . S
C208 C209 1.338 . S
C208 N211 1.377 . S
C208 H228 0.930 . S
C209 N207 1.375 . S
C209 C208 1.338 . S
C209 H213 0.931 . S
C210 N207 1.313 . S
C210 N211 1.344 . S
C210 H214 0.930 . S
N211 C208 1.377 . S
N211 C210 1.344 . S
O212 Co204 2.055 . S
O212 C216 1.253 . S
H213 C209 0.931 . S
H214 C210 0.930 . S
O215 Co204 2.039 . S
O215 C205 1.265 . S
C216 O212 1.253 . S
C216 O217 1.227 . S
O217 C216 1.227 . S
N218 Co204 2.140 . S
N218 C221 1.346 . S
N218 C222 1.345 . S
C219 C220 1.387 . S
C219 C223 1.391 . S
C220 C219 1.387 . S
C220 C221 1.369 . S
C220 H229 0.929 . S
C221 N218 1.346 . S
C221 C220 1.369 . S
C221 H224 0.928 . S
C222 N218 1.345 . S
C222 C223 1.371 . S
C222 H225 0.931 . S
C223 C219 1.391 . S
C223 C222 1.371 . S
C223 H230 0.930 1_655 S
H224 C221 0.928 . S
H225 C222 0.931 . S
H226 C202 0.930 . S
H227 C199 0.930 . S
H228 C208 0.930 . S
H229 C220 0.929 . S
H230 C223 0.930 1_455 S
C231 C232 1.351 . S
C231 N234 1.368 . S
C231 H236 0.931 . S
C232 C231 1.351 . S
C232 N233 1.373 1_554 S
C232 H260 0.926 1_554 S
N233 C232 1.373 1_556 S
N233 C235 1.340 1_556 S
N234 C231 1.368 . S
N234 C235 1.321 . S
N234 Co237 2.135 . S
C235 N233 1.340 1_554 S
C235 N234 1.321 . S
C235 H259 0.930 1_554 S
H236 C231 0.931 . S
Co237 N234 2.135 . S
Co237 N240 2.121 . S
Co237 O245 2.055 . S
Co237 O248 2.039 . S
Co237 N251 2.140 1_554 S
C238 O239 1.227 1_554 S
C238 O248 1.265 . S
O239 C238 1.227 1_556 S
N240 Co237 2.121 . S
N240 C242 1.375 . S
N240 C243 1.313 . S
C241 C242 1.338 . S
C241 N244 1.377 . S
C241 H261 0.930 . S
C242 N240 1.375 . S
C242 C241 1.338 . S
C242 H246 0.931 . S
C243 N240 1.313 . S
C243 N244 1.344 . S
C243 H247 0.930 . S
N244 C241 1.377 . S
N244 C243 1.344 . S
O245 Co237 2.055 . S
O245 C249 1.253 . S
H246 C242 0.931 . S
H247 C243 0.930 . S
O248 Co237 2.039 . S
O248 C238 1.265 . S
C249 O245 1.253 . S
C249 O250 1.227 . S
O250 C249 1.227 . S
N251 Co237 2.140 1_556 S
N251 C254 1.346 . S
N251 C255 1.345 . S
C252 C253 1.387 . S
C252 C256 1.391 . S
C253 C252 1.387 . S
C253 C254 1.369 . S
C253 H262 0.929 . S
C254 N251 1.346 . S
C254 C253 1.369 . S
C254 H257 0.928 . S
C255 N251 1.345 . S
C255 C256 1.371 . S
C255 H258 0.931 1_556 S
C256 C252 1.391 . S
C256 C255 1.371 . S
C256 H263 0.930 . S
H257 C254 0.928 . S
H258 C255 0.931 1_554 S
H259 C235 0.930 1_556 S
H260 C232 0.926 1_556 S
H261 C241 0.930 . S
H262 C253 0.929 . S
H263 C256 0.930 . S
C264 C265 1.351 . S
C264 N267 1.368 . S
C264 H269 0.931 . S
C265 C264 1.351 . S
C265 N266 1.373 . S
C265 H293 0.930 . S
N266 C265 1.373 . S
N266 C268 1.340 . S
N267 C264 1.368 . S
N267 C268 1.321 . S
N267 Co270 2.135 . S
C268 N266 1.340 . S
C268 N267 1.321 . S
C268 H292 0.930 . S
H269 C264 0.931 . S
Co270 N267 2.135 . S
Co270 N273 2.121 1_545 S
Co270 O278 2.055 . S
Co270 O281 2.039 . S
Co270 N284 2.140 . S
C271 O272 1.227 . S
C271 O281 1.265 . S
O272 C271 1.227 . S
N273 Co270 2.121 1_565 S
N273 C275 1.375 . S
N273 C276 1.313 . S
C274 C275 1.338 . S
C274 N277 1.377 . S
C274 H294 0.930 . S
C275 N273 1.375 . S
C275 C274 1.338 . S
C275 H279 0.931 . S
C276 N273 1.313 . S
C276 N277 1.344 . S
C276 H280 0.930 . S
N277 C274 1.377 . S
N277 C276 1.344 . S
O278 Co270 2.055 . S
O278 C282 1.253 . S
H279 C275 0.931 . S
H280 C276 0.930 . S
O281 Co270 2.039 . S
O281 C271 1.265 . S
C282 O278 1.253 . S
C282 O283 1.227 . S
O283 C282 1.227 . S
N284 Co270 2.140 . S
N284 C287 1.346 . S
N284 C288 1.345 . S
C285 C286 1.387 . S
C285 C289 1.391 . S
C286 C285 1.387 . S
C286 C287 1.369 . S
C286 H295 0.929 . S
C287 N284 1.346 . S
C287 C286 1.369 . S
C287 H290 0.928 . S
C288 N284 1.345 . S
C288 C289 1.371 . S
C288 H291 0.931 . S
C289 C285 1.391 . S
C289 C288 1.371 . S
C289 H296 0.930 1_545 S
H290 C287 0.928 . S
H291 C288 0.931 . S
H292 C268 0.930 . S
H293 C265 0.930 . S
H294 C274 0.930 . S
H295 C286 0.929 . S
H296 C289 0.930 1_565 S
C297 C298 1.351 . S
C297 N300 1.368 . S
C297 H302 0.931 . S
C298 C297 1.351 . S
C298 N299 1.373 . S
C298 H326 0.930 . S
N299 C298 1.373 . S
N299 C301 1.340 . S
N300 C297 1.368 . S
N300 C301 1.321 . S
N300 Co303 2.135 . S
C301 N299 1.340 . S
C301 N300 1.321 . S
C301 H325 0.930 . S
H302 C297 0.931 . S
Co303 N300 2.135 . S
Co303 N306 2.121 . S
Co303 O311 2.055 . S
Co303 O314 2.039 . S
Co303 N317 2.140 . S
C304 O305 1.227 . S
C304 O314 1.265 . S
O305 C304 1.227 . S
N306 Co303 2.121 . S
N306 C308 1.375 . S
N306 C309 1.313 . S
C307 C308 1.338 . S
C307 N310 1.377 . S
C307 H327 0.930 . S
C308 N306 1.375 . S
C308 C307 1.338 . S
C308 H312 0.931 . S
C309 N306 1.313 . S
C309 N310 1.344 . S
C309 H313 0.930 . S
N310 C307 1.377 . S
N310 C309 1.344 . S
O311 Co303 2.055 . S
O311 C315 1.253 . S
H312 C308 0.931 . S
H313 C309 0.930 . S
O314 Co303 2.039 . S
O314 C304 1.265 . S
C315 O311 1.253 . S
C315 O316 1.227 . S
O316 C315 1.227 . S
N317 Co303 2.140 . S
N317 C320 1.346 . S
N317 C321 1.345 . S
C318 C319 1.387 . S
C318 C322 1.391 . S
C319 C318 1.387 . S
C319 C320 1.369 . S
C319 H328 0.929 . S
C320 N317 1.346 . S
C320 C319 1.369 . S
C320 H323 0.928 . S
C321 N317 1.345 . S
C321 C322 1.371 . S
C321 H324 0.931 . S
C322 C318 1.391 . S
C322 C321 1.371 . S
C322 H329 0.930 . S
H323 C320 0.928 . S
H324 C321 0.931 . S
H325 C301 0.930 . S
H326 C298 0.930 . S
H327 C307 0.930 . S
H328 C319 0.929 . S
H329 C322 0.930 . S
C330 C331 1.351 . S
C330 N333 1.368 . S
C330 H335 0.931 . S
C331 C330 1.351 . S
C331 N332 1.373 . S
C331 H359 0.930 . S
N332 C331 1.373 . S
N332 C334 1.340 . S
N333 C330 1.368 . S
N333 C334 1.321 . S
N333 Co336 2.135 . S
C334 N332 1.340 . S
C334 N333 1.321 . S
C334 H358 0.930 . S
H335 C330 0.931 . S
Co336 N333 2.135 . S
Co336 N339 2.121 . S
Co336 O344 2.055 . S
Co336 O347 2.039 . S
Co336 N350 2.140 . S
C337 O338 1.227 . S
C337 O347 1.265 . S
O338 C337 1.227 . S
N339 Co336 2.121 . S
N339 C341 1.375 . S
N339 C342 1.313 . S
C340 C341 1.338 . S
C340 N343 1.377 . S
C340 H360 0.930 . S
C341 N339 1.375 . S
C341 C340 1.338 . S
C341 H345 0.931 . S
C342 N339 1.313 . S
C342 N343 1.344 . S
C342 H346 0.930 . S
N343 C340 1.377 . S
N343 C342 1.344 . S
O344 Co336 2.055 . S
O344 C348 1.253 . S
H345 C341 0.931 . S
H346 C342 0.930 . S
O347 Co336 2.039 . S
O347 C337 1.265 . S
C348 O344 1.253 . S
C348 O349 1.227 . S
O349 C348 1.227 . S
N350 Co336 2.140 . S
N350 C353 1.346 . S
N350 C354 1.345 . S
C351 C352 1.387 . S
C351 C355 1.391 . S
C352 C351 1.387 . S
C352 C353 1.369 . S
C352 H361 0.929 . S
C353 N350 1.346 . S
C353 C352 1.369 . S
C353 H356 0.928 . S
C354 N350 1.345 . S
C354 C355 1.371 . S
C354 H357 0.931 . S
C355 C351 1.391 . S
C355 C354 1.371 . S
C355 H362 0.930 . S
H356 C353 0.928 . S
H357 C354 0.931 . S
H358 C334 0.930 . S
H359 C331 0.930 . S
H360 C340 0.930 . S
H361 C352 0.929 . S
H362 C355 0.930 . S
C363 C364 1.351 . S
C363 N366 1.368 . S
C363 H368 0.931 . S
C364 C363 1.351 . S
C364 N365 1.373 1_545 S
C364 H392 0.926 1_545 S
N365 C364 1.373 1_565 S
N365 C367 1.340 1_565 S
N366 C363 1.368 . S
N366 C367 1.321 . S
N366 Co369 2.135 . S
C367 N365 1.340 1_545 S
C367 N366 1.321 . S
C367 H391 0.930 1_545 S
H368 C363 0.931 . S
Co369 N366 2.135 . S
Co369 N372 2.121 . S
Co369 O377 2.055 . S
Co369 O380 2.039 . S
Co369 N383 2.140 1_545 S
C370 O371 1.227 1_545 S
C370 O380 1.265 . S
O371 C370 1.227 1_565 S
N372 Co369 2.121 . S
N372 C374 1.375 . S
N372 C375 1.313 . S
C373 C374 1.338 . S
C373 N376 1.377 . S
C373 H393 0.930 . S
C374 N372 1.375 . S
C374 C373 1.338 . S
C374 H378 0.931 . S
C375 N372 1.313 . S
C375 N376 1.344 . S
C375 H379 0.930 . S
N376 C373 1.377 . S
N376 C375 1.344 . S
O377 Co369 2.055 . S
O377 C381 1.253 . S
H378 C374 0.931 . S
H379 C375 0.930 . S
O380 Co369 2.039 . S
O380 C370 1.265 . S
C381 O377 1.253 . S
C381 O382 1.227 . S
O382 C381 1.227 . S
N383 Co369 2.140 1_565 S
N383 C386 1.346 . S
N383 C387 1.345 . S
C384 C385 1.387 . S
C384 C388 1.391 . S
C385 C384 1.387 . S
C385 C386 1.369 . S
C385 H394 0.929 . S
C386 N383 1.346 . S
C386 C385 1.369 . S
C386 H389 0.928 . S
C387 N383 1.345 . S
C387 C388 1.371 . S
C387 H390 0.931 1_565 S
C388 C384 1.391 . S
C388 C387 1.371 . S
C388 H395 0.930 . S
H389 C386 0.928 . S
H390 C387 0.931 1_545 S
H391 C367 0.930 1_565 S
H392 C364 0.926 1_565 S
H393 C373 0.930 . S
H394 C385 0.929 . S
H395 C388 0.930 . S
C396 C397 1.351 . S
C396 N399 1.368 . S
C396 H401 0.931 . S
C397 C396 1.351 . S
C397 N398 1.373 . S
C397 H425 0.930 . S
N398 C397 1.373 . S
N398 C400 1.340 . S
N399 C396 1.368 . S
N399 C400 1.321 . S
N399 Co402 2.135 . S
C400 N398 1.340 . S
C400 N399 1.321 . S
C400 H424 0.930 . S
H401 C396 0.931 . S
Co402 N399 2.135 . S
Co402 N405 2.121 1_565 S
Co402 O410 2.055 . S
Co402 O413 2.039 . S
Co402 N416 2.140 . S
C403 O404 1.227 . S
C403 O413 1.265 . S
O404 C403 1.227 . S
N405 Co402 2.121 1_545 S
N405 C407 1.375 . S
N405 C408 1.313 . S
C406 C407 1.338 . S
C406 N409 1.377 . S
C406 H426 0.930 . S
C407 N405 1.375 . S
C407 C406 1.338 . S
C407 H411 0.931 . S
C408 N405 1.313 . S
C408 N409 1.344 . S
C408 H412 0.930 . S
N409 C406 1.377 . S
N409 C408 1.344 . S
O410 Co402 2.055 . S
O410 C414 1.253 . S
H411 C407 0.931 . S
H412 C408 0.930 . S
O413 Co402 2.039 . S
O413 C403 1.265 . S
C414 O410 1.253 . S
C414 O415 1.227 . S
O415 C414 1.227 . S
N416 Co402 2.140 . S
N416 C419 1.346 . S
N416 C420 1.345 . S
C417 C418 1.387 . S
C417 C421 1.391 . S
C418 C417 1.387 . S
C418 C419 1.369 . S
C418 H427 0.929 . S
C419 N416 1.346 . S
C419 C418 1.369 . S
C419 H422 0.928 . S
C420 N416 1.345 . S
C420 C421 1.371 . S
C420 H423 0.931 . S
C421 C417 1.391 . S
C421 C420 1.371 . S
C421 H428 0.930 1_565 S
H422 C419 0.928 . S
H423 C420 0.931 . S
H424 C400 0.930 . S
H425 C397 0.930 . S
H426 C406 0.930 . S
H427 C418 0.929 . S
H428 C421 0.930 1_545 S
C429 C430 1.351 . S
C429 N432 1.368 . S
C429 H434 0.931 . S
C430 C429 1.351 . S
C430 N431 1.373 . S
C430 H458 0.930 . S
N431 C430 1.373 . S
N431 C433 1.340 . S
N432 C429 1.368 . S
N432 C433 1.321 . S
N432 Co435 2.135 . S
C433 N431 1.340 . S
C433 N432 1.321 . S
C433 H457 0.930 . S
H434 C429 0.931 . S
Co435 N432 2.135 . S
Co435 N438 2.121 . S
Co435 O443 2.055 . S
Co435 O446 2.039 . S
Co435 N449 2.140 . S
C436 O437 1.227 . S
C436 O446 1.265 . S
O437 C436 1.227 . S
N438 Co435 2.121 . S
N438 C440 1.375 . S
N438 C441 1.313 . S
C439 C440 1.338 . S
C439 N442 1.377 . S
C439 H459 0.930 . S
C440 N438 1.375 . S
C440 C439 1.338 . S
C440 H444 0.931 . S
C441 N438 1.313 . S
C441 N442 1.344 . S
C441 H445 0.930 . S
N442 C439 1.377 . S
N442 C441 1.344 . S
O443 Co435 2.055 . S
O443 C447 1.253 . S
H444 C440 0.931 . S
H445 C441 0.930 . S
O446 Co435 2.039 . S
O446 C436 1.265 . S
C447 O443 1.253 . S
C447 O448 1.227 . S
O448 C447 1.227 . S
N449 Co435 2.140 . S
N449 C452 1.346 . S
N449 C453 1.345 . S
C450 C451 1.387 . S
C450 C454 1.391 . S
C451 C450 1.387 . S
C451 C452 1.369 . S
C451 H460 0.929 . S
C452 N449 1.346 . S
C452 C451 1.369 . S
C452 H455 0.928 . S
C453 N449 1.345 . S
C453 C454 1.371 . S
C453 H456 0.931 . S
C454 C450 1.391 . S
C454 C453 1.371 . S
C454 H461 0.930 . S
H455 C452 0.928 . S
H456 C453 0.931 . S
H457 C433 0.930 . S
H458 C430 0.930 . S
H459 C439 0.930 . S
H460 C451 0.929 . S
H461 C454 0.930 . S
C462 C463 1.351 . S
C462 N465 1.368 . S
C462 H467 0.931 . S
C463 C462 1.351 . S
C463 N464 1.373 . S
C463 H491 0.930 . S
N464 C463 1.373 . S
N464 C466 1.340 . S
N465 C462 1.368 . S
N465 C466 1.321 . S
N465 Co468 2.135 . S
C466 N464 1.340 . S
C466 N465 1.321 . S
C466 H490 0.930 . S
H467 C462 0.931 . S
Co468 N465 2.135 . S
Co468 N471 2.121 . S
Co468 O476 2.055 . S
Co468 O479 2.039 . S
Co468 N482 2.140 . S
C469 O470 1.227 . S
C469 O479 1.265 . S
O470 C469 1.227 . S
N471 Co468 2.121 . S
N471 C473 1.375 . S
N471 C474 1.313 . S
C472 C473 1.338 . S
C472 N475 1.377 . S
C472 H492 0.930 . S
C473 N471 1.375 . S
C473 C472 1.338 . S
C473 H477 0.931 . S
C474 N471 1.313 . S
C474 N475 1.344 . S
C474 H478 0.930 . S
N475 C472 1.377 . S
N475 C474 1.344 . S
O476 Co468 2.055 . S
O476 C480 1.253 . S
H477 C473 0.931 . S
H478 C474 0.930 . S
O479 Co468 2.039 . S
O479 C469 1.265 . S
C480 O476 1.253 . S
C480 O481 1.227 . S
O481 C480 1.227 . S
N482 Co468 2.140 . S
N482 C485 1.346 . S
N482 C486 1.345 . S
C483 C484 1.387 . S
C483 C487 1.391 . S
C484 C483 1.387 . S
C484 C485 1.369 . S
C484 H493 0.929 . S
C485 N482 1.346 . S
C485 C484 1.369 . S
C485 H488 0.928 . S
C486 N482 1.345 . S
C486 C487 1.371 . S
C486 H489 0.931 . S
C487 C483 1.391 . S
C487 C486 1.371 . S
C487 H494 0.930 . S
H488 C485 0.928 . S
H489 C486 0.931 . S
H490 C466 0.930 . S
H491 C463 0.930 . S
H492 C472 0.930 . S
H493 C484 0.929 . S
H494 C487 0.930 . S
C495 C496 1.351 . S
C495 N498 1.368 . S
C495 H500 0.931 . S
C496 C495 1.351 . S
C496 N497 1.373 1_545 S
C496 H524 0.926 1_545 S
N497 C496 1.373 1_565 S
N497 C499 1.340 1_565 S
N498 C495 1.368 . S
N498 C499 1.321 . S
N498 Co501 2.135 . S
C499 N497 1.340 1_545 S
C499 N498 1.321 . S
C499 H523 0.930 1_545 S
H500 C495 0.931 . S
Co501 N498 2.135 . S
Co501 N504 2.121 . S
Co501 O509 2.055 . S
Co501 O512 2.039 . S
Co501 N515 2.140 1_545 S
C502 O503 1.227 1_545 S
C502 O512 1.265 . S
O503 C502 1.227 1_565 S
N504 Co501 2.121 . S
N504 C506 1.375 . S
N504 C507 1.313 . S
C505 C506 1.338 . S
C505 N508 1.377 . S
C505 H525 0.930 . S
C506 N504 1.375 . S
C506 C505 1.338 . S
C506 H510 0.931 . S
C507 N504 1.313 . S
C507 N508 1.344 . S
C507 H511 0.930 . S
N508 C505 1.377 . S
N508 C507 1.344 . S
O509 Co501 2.055 . S
O509 C513 1.253 . S
H510 C506 0.931 . S
H511 C507 0.930 . S
O512 Co501 2.039 . S
O512 C502 1.265 . S
C513 O509 1.253 . S
C513 O514 1.227 . S
O514 C513 1.227 . S
N515 Co501 2.140 1_565 S
N515 C518 1.346 . S
N515 C519 1.345 . S
C516 C517 1.387 . S
C516 C520 1.391 . S
C517 C516 1.387 . S
C517 C518 1.369 . S
C517 H526 0.929 . S
C518 N515 1.346 . S
C518 C517 1.369 . S
C518 H521 0.928 . S
C519 N515 1.345 . S
C519 C520 1.371 . S
C519 H522 0.931 1_565 S
C520 C516 1.391 . S
C520 C519 1.371 . S
C520 H527 0.930 . S
H521 C518 0.928 . S
H522 C519 0.931 1_545 S
H523 C499 0.930 1_565 S
H524 C496 0.926 1_565 S
H525 C505 0.930 . S
H526 C517 0.929 . S
H527 C520 0.930 . S
C528 C529 1.351 . S
C528 N531 1.368 . S
C528 H533 0.931 . S
C529 C528 1.351 . S
C529 N530 1.373 . S
C529 H557 0.930 . S
N530 C529 1.373 . S
N530 C532 1.340 . S
N531 C528 1.368 . S
N531 C532 1.321 . S
N531 Co534 2.135 . S
C532 N530 1.340 . S
C532 N531 1.321 . S
C532 H556 0.930 . S
H533 C528 0.931 . S
Co534 N531 2.135 . S
Co534 N537 2.121 1_554 S
Co534 O542 2.055 . S
Co534 O545 2.039 . S
Co534 N548 2.140 . S
C535 O536 1.227 . S
C535 O545 1.265 . S
O536 C535 1.227 . S
N537 Co534 2.121 1_556 S
N537 C539 1.375 . S
N537 C540 1.313 . S
C538 C539 1.338 . S
C538 N541 1.377 . S
C538 H558 0.930 . S
C539 N537 1.375 . S
C539 C538 1.338 . S
C539 H543 0.931 . S
C540 N537 1.313 . S
C540 N541 1.344 . S
C540 H544 0.930 . S
N541 C538 1.377 . S
N541 C540 1.344 . S
O542 Co534 2.055 . S
O542 C546 1.253 . S
H543 C539 0.931 . S
H544 C540 0.930 . S
O545 Co534 2.039 . S
O545 C535 1.265 . S
C546 O542 1.253 . S
C546 O547 1.227 . S
O547 C546 1.227 . S
N548 Co534 2.140 . S
N548 C551 1.346 . S
N548 C552 1.345 . S
C549 C550 1.387 . S
C549 C553 1.391 . S
C550 C549 1.387 . S
C550 C551 1.369 . S
C550 H559 0.929 . S
C551 N548 1.346 . S
C551 C550 1.369 . S
C551 H554 0.928 . S
C552 N548 1.345 . S
C552 C553 1.371 . S
C552 H555 0.931 . S
C553 C549 1.391 . S
C553 C552 1.371 . S
C553 H560 0.930 1_554 S
H554 C551 0.928 . S
H555 C552 0.931 . S
H556 C532 0.930 . S
H557 C529 0.930 . S
H558 C538 0.930 . S
H559 C550 0.929 . S
H560 C553 0.930 1_556 S
C561 C562 1.351 . S
C561 N564 1.368 . S
C561 H566 0.931 . S
C562 C561 1.351 . S
C562 N563 1.373 . S
C562 H590 0.930 . S
N563 C562 1.373 . S
N563 C565 1.340 . S
N564 C561 1.368 . S
N564 C565 1.321 . S
N564 Co567 2.135 . S
C565 N563 1.340 . S
C565 N564 1.321 . S
C565 H589 0.930 . S
H566 C561 0.931 . S
Co567 N564 2.135 . S
Co567 N570 2.121 . S
Co567 O575 2.055 . S
Co567 O578 2.039 . S
Co567 N581 2.140 . S
C568 O569 1.227 . S
C568 O578 1.265 . S
O569 C568 1.227 . S
N570 Co567 2.121 . S
N570 C572 1.375 . S
N570 C573 1.313 . S
C571 C572 1.338 . S
C571 N574 1.377 . S
C571 H591 0.930 . S
C572 N570 1.375 . S
C572 C571 1.338 . S
C572 H576 0.931 . S
C573 N570 1.313 . S
C573 N574 1.344 . S
C573 H577 0.930 . S
N574 C571 1.377 . S
N574 C573 1.344 . S
O575 Co567 2.055 . S
O575 C579 1.253 . S
H576 C572 0.931 . S
H577 C573 0.930 . S
O578 Co567 2.039 . S
O578 C568 1.265 . S
C579 O575 1.253 . S
C579 O580 1.227 . S
O580 C579 1.227 . S
N581 Co567 2.140 . S
N581 C584 1.346 . S
N581 C585 1.345 . S
C582 C583 1.387 . S
C582 C586 1.391 . S
C583 C582 1.387 . S
C583 C584 1.369 . S
C583 H592 0.929 . S
C584 N581 1.346 . S
C584 C583 1.369 . S
C584 H587 0.928 . S
C585 N581 1.345 . S
C585 C586 1.371 . S
C585 H588 0.931 . S
C586 C582 1.391 . S
C586 C585 1.371 . S
C586 H593 0.930 . S
H587 C584 0.928 . S
H588 C585 0.931 . S
H589 C565 0.930 . S
H590 C562 0.930 . S
H591 C571 0.930 . S
H592 C583 0.929 . S
H593 C586 0.930 . S
C594 C595 1.351 . S
C594 N597 1.368 . S
C594 H599 0.931 . S
C595 C594 1.351 . S
C595 N596 1.373 1_655 S
C595 H623 0.925 1_655 S
N596 C595 1.373 1_455 S
N596 C598 1.340 1_455 S
N597 C594 1.368 . S
N597 C598 1.321 . S
N597 Co600 2.135 . S
C598 N596 1.340 1_655 S
C598 N597 1.321 . S
C598 H622 0.930 1_655 S
H599 C594 0.931 . S
Co600 N597 2.135 . S
Co600 N603 2.121 . S
Co600 O608 2.055 . S
Co600 O611 2.039 . S
Co600 N614 2.140 1_655 S
C601 O602 1.227 1_655 S
C601 O611 1.265 . S
O602 C601 1.227 1_455 S
N603 Co600 2.121 . S
N603 C605 1.375 . S
N603 C606 1.313 . S
C604 C605 1.338 . S
C604 N607 1.377 . S
C604 H624 0.930 . S
C605 N603 1.375 . S
C605 C604 1.338 . S
C605 H609 0.931 . S
C606 N603 1.313 . S
C606 N607 1.344 . S
C606 H610 0.930 . S
N607 C604 1.377 . S
N607 C606 1.344 . S
O608 Co600 2.055 . S
O608 C612 1.253 . S
H609 C605 0.931 . S
H610 C606 0.930 . S
O611 Co600 2.039 . S
O611 C601 1.265 . S
C612 O608 1.253 . S
C612 O613 1.227 . S
O613 C612 1.227 . S
N614 Co600 2.140 1_455 S
N614 C617 1.346 . S
N614 C618 1.345 . S
C615 C616 1.387 . S
C615 C619 1.391 . S
C616 C615 1.387 . S
C616 C617 1.369 . S
C616 H625 0.929 . S
C617 N614 1.346 . S
C617 C616 1.369 . S
C617 H620 0.928 . S
C618 N614 1.345 . S
C618 C619 1.371 . S
C618 H621 0.931 1_455 S
C619 C615 1.391 . S
C619 C618 1.371 . S
C619 H626 0.930 . S
H620 C617 0.928 . S
H621 C618 0.931 1_655 S
H622 C598 0.930 1_455 S
H623 C595 0.925 1_455 S
H624 C604 0.930 . S
H625 C616 0.929 . S
H626 C619 0.930 . S
C627 C628 1.351 . S
C627 N630 1.368 . S
C627 H632 0.931 . S
C628 C627 1.351 . S
C628 N629 1.373 . S
C628 H656 0.930 . S
N629 C628 1.373 . S
N629 C631 1.340 . S
N630 C627 1.368 . S
N630 C631 1.321 . S
N630 Co633 2.135 . S
C631 N629 1.340 . S
C631 N630 1.321 . S
C631 H655 0.930 . S
H632 C627 0.931 . S
Co633 N630 2.135 . S
Co633 N636 2.121 . S
Co633 O641 2.055 . S
Co633 O644 2.039 . S
Co633 N647 2.140 . S
C634 O635 1.227 . S
C634 O644 1.265 . S
O635 C634 1.227 . S
N636 Co633 2.121 . S
N636 C638 1.375 . S
N636 C639 1.313 . S
C637 C638 1.338 . S
C637 N640 1.377 . S
C637 H657 0.930 . S
C638 N636 1.375 . S
C638 C637 1.338 . S
C638 H642 0.931 . S
C639 N636 1.313 . S
C639 N640 1.344 . S
C639 H643 0.930 . S
N640 C637 1.377 . S
N640 C639 1.344 . S
O641 Co633 2.055 . S
O641 C645 1.253 . S
H642 C638 0.931 . S
H643 C639 0.930 . S
O644 Co633 2.039 . S
O644 C634 1.265 . S
C645 O641 1.253 . S
C645 O646 1.227 . S
O646 C645 1.227 . S
N647 Co633 2.140 . S
N647 C650 1.346 . S
N647 C651 1.345 . S
C648 C649 1.387 . S
C648 C652 1.391 . S
C649 C648 1.387 . S
C649 C650 1.369 . S
C649 H658 0.929 . S
C650 N647 1.346 . S
C650 C649 1.369 . S
C650 H653 0.928 . S
C651 N647 1.345 . S
C651 C652 1.371 . S
C651 H654 0.931 . S
C652 C648 1.391 . S
C652 C651 1.371 . S
C652 H659 0.930 . S
H653 C650 0.928 . S
H654 C651 0.931 . S
H655 C631 0.930 . S
H656 C628 0.930 . S
H657 C637 0.930 . S
H658 C649 0.929 . S
H659 C652 0.930 . S
C660 C661 1.351 . S
C660 N663 1.368 . S
C660 H665 0.931 . S
C661 C660 1.351 . S
C661 N662 1.373 . S
C661 H689 0.930 . S
N662 C661 1.373 . S
N662 C664 1.340 . S
N663 C660 1.368 . S
N663 C664 1.321 . S
N663 Co666 2.135 . S
C664 N662 1.340 . S
C664 N663 1.321 . S
C664 H688 0.930 . S
H665 C660 0.931 . S
Co666 N663 2.135 . S
Co666 N669 2.121 . S
Co666 O674 2.055 . S
Co666 O677 2.039 . S
Co666 N680 2.140 . S
C667 O668 1.227 . S
C667 O677 1.265 . S
O668 C667 1.227 . S
N669 Co666 2.121 . S
N669 C671 1.375 . S
N669 C672 1.313 . S
C670 C671 1.338 . S
C670 N673 1.377 . S
C670 H690 0.930 . S
C671 N669 1.375 . S
C671 C670 1.338 . S
C671 H675 0.931 . S
C672 N669 1.313 . S
C672 N673 1.344 . S
C672 H676 0.930 . S
N673 C670 1.377 . S
N673 C672 1.344 . S
O674 Co666 2.055 . S
O674 C678 1.253 . S
H675 C671 0.931 . S
H676 C672 0.930 . S
O677 Co666 2.039 . S
O677 C667 1.265 . S
C678 O674 1.253 . S
C678 O679 1.227 . S
O679 C678 1.227 . S
N680 Co666 2.140 . S
N680 C683 1.346 . S
N680 C684 1.345 . S
C681 C682 1.387 . S
C681 C685 1.391 . S
C682 C681 1.387 . S
C682 C683 1.369 . S
C682 H691 0.929 . S
C683 N680 1.346 . S
C683 C682 1.369 . S
C683 H686 0.928 . S
C684 N680 1.345 . S
C684 C685 1.371 . S
C684 H687 0.931 . S
C685 C681 1.391 . S
C685 C684 1.371 . S
C685 H692 0.930 . S
H686 C683 0.928 . S
H687 C684 0.931 . S
H688 C664 0.930 . S
H689 C661 0.930 . S
H690 C670 0.930 . S
H691 C682 0.929 . S
H692 C685 0.930 . S
C693 C694 1.351 . S
C693 N696 1.368 . S
C693 H698 0.931 . S
C694 C693 1.351 . S
C694 N695 1.373 . S
C694 H722 0.930 . S
N695 C694 1.373 . S
N695 C697 1.340 . S
N696 C693 1.368 . S
N696 C697 1.321 . S
N696 Co699 2.135 . S
C697 N695 1.340 . S
C697 N696 1.321 . S
C697 H721 0.930 . S
H698 C693 0.931 . S
Co699 N696 2.135 . S
Co699 N702 2.121 . S
Co699 O707 2.055 . S
Co699 O710 2.039 . S
Co699 N713 2.140 . S
C700 O701 1.227 . S
C700 O710 1.265 . S
O701 C700 1.227 . S
N702 Co699 2.121 . S
N702 C704 1.375 . S
N702 C705 1.313 . S
C703 C704 1.338 . S
C703 N706 1.377 . S
C703 H723 0.930 . S
C704 N702 1.375 . S
C704 C703 1.338 . S
C704 H708 0.931 . S
C705 N702 1.313 . S
C705 N706 1.344 . S
C705 H709 0.930 . S
N706 C703 1.377 . S
N706 C705 1.344 . S
O707 Co699 2.055 . S
O707 C711 1.253 . S
H708 C704 0.931 . S
H709 C705 0.930 . S
O710 Co699 2.039 . S
O710 C700 1.265 . S
C711 O707 1.253 . S
C711 O712 1.227 . S
O712 C711 1.227 . S
N713 Co699 2.140 . S
N713 C716 1.346 . S
N713 C717 1.345 . S
C714 C715 1.387 . S
C714 C718 1.391 . S
C715 C714 1.387 . S
C715 C716 1.369 . S
C715 H724 0.929 . S
C716 N713 1.346 . S
C716 C715 1.369 . S
C716 H719 0.928 . S
C717 N713 1.345 . S
C717 C718 1.371 . S
C717 H720 0.931 . S
C718 C714 1.391 . S
C718 C717 1.371 . S
C718 H725 0.930 . S
H719 C716 0.928 . S
H720 C717 0.931 . S
H721 C697 0.930 . S
H722 C694 0.930 . S
H723 C703 0.930 . S
H724 C715 0.929 . S
H725 C718 0.930 . S
C726 C727 1.351 . S
C726 N729 1.368 . S
C726 H731 0.931 . S
C727 C726 1.351 . S
C727 N728 1.373 1_655 S
C727 H755 0.925 1_655 S
N728 C727 1.373 1_455 S
N728 C730 1.340 1_455 S
N729 C726 1.368 . S
N729 C730 1.321 . S
N729 Co732 2.135 . S
C730 N728 1.340 1_655 S
C730 N729 1.321 . S
C730 H754 0.930 1_655 S
H731 C726 0.931 . S
Co732 N729 2.135 . S
Co732 N735 2.121 . S
Co732 O740 2.055 . S
Co732 O743 2.039 . S
Co732 N746 2.140 1_655 S
C733 O734 1.227 1_655 S
C733 O743 1.265 . S
O734 C733 1.227 1_455 S
N735 Co732 2.121 . S
N735 C737 1.375 . S
N735 C738 1.313 . S
C736 C737 1.338 . S
C736 N739 1.377 . S
C736 H756 0.930 . S
C737 N735 1.375 . S
C737 C736 1.338 . S
C737 H741 0.931 . S
C738 N735 1.313 . S
C738 N739 1.344 . S
C738 H742 0.930 . S
N739 C736 1.377 . S
N739 C738 1.344 . S
O740 Co732 2.055 . S
O740 C744 1.253 . S
H741 C737 0.931 . S
H742 C738 0.930 . S
O743 Co732 2.039 . S
O743 C733 1.265 . S
C744 O740 1.253 . S
C744 O745 1.227 . S
O745 C744 1.227 . S
N746 Co732 2.140 1_455 S
N746 C749 1.346 . S
N746 C750 1.345 . S
C747 C748 1.387 . S
C747 C751 1.391 . S
C748 C747 1.387 . S
C748 C749 1.369 . S
C748 H757 0.929 . S
C749 N746 1.346 . S
C749 C748 1.369 . S
C749 H752 0.928 . S
C750 N746 1.345 . S
C750 C751 1.371 . S
C750 H753 0.931 1_455 S
C751 C747 1.391 . S
C751 C750 1.371 . S
C751 H758 0.930 . S
H752 C749 0.928 . S
H753 C750 0.931 1_655 S
H754 C730 0.930 1_455 S
H755 C727 0.925 1_455 S
H756 C736 0.930 . S
H757 C748 0.929 . S
H758 C751 0.930 . S
C759 C760 1.351 . S
C759 N762 1.368 . S
C759 H764 0.931 . S
C760 C759 1.351 . S
C760 N761 1.373 1_455 S
C760 H788 0.926 1_455 S
N761 C760 1.373 1_655 S
N761 C763 1.340 1_655 S
N762 C759 1.368 . S
N762 C763 1.321 . S
N762 Co765 2.135 . S
C763 N761 1.340 1_455 S
C763 N762 1.321 . S
C763 H787 0.930 1_455 S
H764 C759 0.931 . S
Co765 N762 2.135 . S
Co765 N768 2.121 . S
Co765 O773 2.055 . S
Co765 O776 2.039 . S
Co765 N779 2.140 1_455 S
C766 O767 1.227 1_455 S
C766 O776 1.265 . S
O767 C766 1.227 1_655 S
N768 Co765 2.121 . S
N768 C770 1.375 . S
N768 C771 1.313 . S
C769 C770 1.338 . S
C769 N772 1.377 . S
C769 H789 0.930 . S
C770 N768 1.375 . S
C770 C769 1.338 . S
C770 H774 0.931 . S
C771 N768 1.313 . S
C771 N772 1.344 . S
C771 H775 0.930 . S
N772 C769 1.377 . S
N772 C771 1.344 . S
O773 Co765 2.055 . S
O773 C777 1.253 . S
H774 C770 0.931 . S
H775 C771 0.930 . S
O776 Co765 2.039 . S
O776 C766 1.265 . S
C777 O773 1.253 . S
C777 O778 1.227 . S
O778 C777 1.227 . S
N779 Co765 2.140 1_655 S
N779 C782 1.346 . S
N779 C783 1.345 . S
C780 C781 1.387 . S
C780 C784 1.391 . S
C781 C780 1.387 . S
C781 C782 1.369 . S
C781 H790 0.929 . S
C782 N779 1.346 . S
C782 C781 1.369 . S
C782 H785 0.928 . S
C783 N779 1.345 . S
C783 C784 1.371 . S
C783 H786 0.931 1_655 S
C784 C780 1.391 . S
C784 C783 1.371 . S
C784 H791 0.930 . S
H785 C782 0.928 . S
H786 C783 0.931 1_455 S
H787 C763 0.930 1_655 S
H788 C760 0.926 1_655 S
H789 C769 0.930 . S
H790 C781 0.929 . S
H791 C784 0.930 . S
C792 C793 1.351 . S
C792 N795 1.368 . S
C792 H797 0.931 . S
C793 C792 1.351 . S
C793 N794 1.373 . S
C793 H821 0.930 . S
N794 C793 1.373 . S
N794 C796 1.340 . S
N795 C792 1.368 . S
N795 C796 1.321 . S
N795 Co798 2.135 . S
C796 N794 1.340 . S
C796 N795 1.321 . S
C796 H820 0.930 . S
H797 C792 0.931 . S
Co798 N795 2.135 . S
Co798 N801 2.121 . S
Co798 O806 2.055 . S
Co798 O809 2.039 . S
Co798 N812 2.140 . S
C799 O800 1.227 . S
C799 O809 1.265 . S
O800 C799 1.227 . S
N801 Co798 2.121 . S
N801 C803 1.375 . S
N801 C804 1.313 . S
C802 C803 1.338 . S
C802 N805 1.377 . S
C802 H822 0.930 . S
C803 N801 1.375 . S
C803 C802 1.338 . S
C803 H807 0.931 . S
C804 N801 1.313 . S
C804 N805 1.344 . S
C804 H808 0.930 . S
N805 C802 1.377 . S
N805 C804 1.344 . S
O806 Co798 2.055 . S
O806 C810 1.253 . S
H807 C803 0.931 . S
H808 C804 0.930 . S
O809 Co798 2.039 . S
O809 C799 1.265 . S
C810 O806 1.253 . S
C810 O811 1.227 . S
O811 C810 1.227 . S
N812 Co798 2.140 . S
N812 C815 1.346 . S
N812 C816 1.345 . S
C813 C814 1.387 . S
C813 C817 1.391 . S
C814 C813 1.387 . S
C814 C815 1.369 . S
C814 H823 0.929 . S
C815 N812 1.346 . S
C815 C814 1.369 . S
C815 H818 0.928 . S
C816 N812 1.345 . S
C816 C817 1.371 . S
C816 H819 0.931 . S
C817 C813 1.391 . S
C817 C816 1.371 . S
C817 H824 0.930 . S
H818 C815 0.928 . S
H819 C816 0.931 . S
H820 C796 0.930 . S
H821 C793 0.930 . S
H822 C802 0.930 . S
H823 C814 0.929 . S
H824 C817 0.930 . S
C825 C826 1.351 . S
C825 N828 1.368 . S
C825 H830 0.931 . S
C826 C825 1.351 . S
C826 N827 1.373 . S
C826 H854 0.930 . S
N827 C826 1.373 . S
N827 C829 1.340 . S
N828 C825 1.368 . S
N828 C829 1.321 . S
N828 Co831 2.135 . S
C829 N827 1.340 . S
C829 N828 1.321 . S
C829 H853 0.930 . S
H830 C825 0.931 . S
Co831 N828 2.135 . S
Co831 N834 2.121 . S
Co831 O839 2.055 . S
Co831 O842 2.039 . S
Co831 N845 2.140 . S
C832 O833 1.227 . S
C832 O842 1.265 . S
O833 C832 1.227 . S
N834 Co831 2.121 . S
N834 C836 1.375 . S
N834 C837 1.313 . S
C835 C836 1.338 . S
C835 N838 1.377 . S
C835 H855 0.930 . S
C836 N834 1.375 . S
C836 C835 1.338 . S
C836 H840 0.931 . S
C837 N834 1.313 . S
C837 N838 1.344 . S
C837 H841 0.930 . S
N838 C835 1.377 . S
N838 C837 1.344 . S
O839 Co831 2.055 . S
O839 C843 1.253 . S
H840 C836 0.931 . S
H841 C837 0.930 . S
O842 Co831 2.039 . S
O842 C832 1.265 . S
C843 O839 1.253 . S
C843 O844 1.227 . S
O844 C843 1.227 . S
N845 Co831 2.140 . S
N845 C848 1.346 . S
N845 C849 1.345 . S
C846 C847 1.387 . S
C846 C850 1.391 . S
C847 C846 1.387 . S
C847 C848 1.369 . S
C847 H856 0.929 . S
C848 N845 1.346 . S
C848 C847 1.369 . S
C848 H851 0.928 . S
C849 N845 1.345 . S
C849 C850 1.371 . S
C849 H852 0.931 . S
C850 C846 1.391 . S
C850 C849 1.371 . S
C850 H857 0.930 . S
H851 C848 0.928 . S
H852 C849 0.931 . S
H853 C829 0.930 . S
H854 C826 0.930 . S
H855 C835 0.930 . S
H856 C847 0.929 . S
H857 C850 0.930 . S
C858 C859 1.351 . S
C858 N861 1.368 . S
C858 H863 0.931 . S
C859 C858 1.351 . S
C859 N860 1.373 . S
C859 H887 0.930 . S
N860 C859 1.373 . S
N860 C862 1.340 . S
N861 C858 1.368 . S
N861 C862 1.321 . S
N861 Co864 2.135 . S
C862 N860 1.340 . S
C862 N861 1.321 . S
C862 H886 0.930 . S
H863 C858 0.931 . S
Co864 N861 2.135 . S
Co864 N867 2.121 . S
Co864 O872 2.055 . S
Co864 O875 2.039 . S
Co864 N878 2.140 . S
C865 O866 1.227 . S
C865 O875 1.265 . S
O866 C865 1.227 . S
N867 Co864 2.121 . S
N867 C869 1.375 . S
N867 C870 1.313 . S
C868 C869 1.338 . S
C868 N871 1.377 . S
C868 H888 0.930 . S
C869 N867 1.375 . S
C869 C868 1.338 . S
C869 H873 0.931 . S
C870 N867 1.313 . S
C870 N871 1.344 . S
C870 H874 0.930 . S
N871 C868 1.377 . S
N871 C870 1.344 . S
O872 Co864 2.055 . S
O872 C876 1.253 . S
H873 C869 0.931 . S
H874 C870 0.930 . S
O875 Co864 2.039 . S
O875 C865 1.265 . S
C876 O872 1.253 . S
C876 O877 1.227 . S
O877 C876 1.227 . S
N878 Co864 2.140 . S
N878 C881 1.346 . S
N878 C882 1.345 . S
C879 C880 1.387 . S
C879 C883 1.391 . S
C880 C879 1.387 . S
C880 C881 1.369 . S
C880 H889 0.929 . S
C881 N878 1.346 . S
C881 C880 1.369 . S
C881 H884 0.928 . S
C882 N878 1.345 . S
C882 C883 1.371 . S
C882 H885 0.931 . S
C883 C879 1.391 . S
C883 C882 1.371 . S
C883 H890 0.930 . S
H884 C881 0.928 . S
H885 C882 0.931 . S
H886 C862 0.930 . S
H887 C859 0.930 . S
H888 C868 0.930 . S
H889 C880 0.929 . S
H890 C883 0.930 . S
C891 C892 1.351 . S
C891 N894 1.368 . S
C891 H896 0.931 . S
C892 C891 1.351 . S
C892 N893 1.373 . S
C892 H920 0.930 . S
N893 C892 1.373 . S
N893 C895 1.340 . S
N894 C891 1.368 . S
N894 C895 1.321 . S
N894 Co897 2.135 . S
C895 N893 1.340 . S
C895 N894 1.321 . S
C895 H919 0.930 . S
H896 C891 0.931 . S
Co897 N894 2.135 . S
Co897 N900 2.121 . S
Co897 O905 2.055 . S
Co897 O908 2.039 . S
Co897 N911 2.140 . S
C898 O899 1.227 . S
C898 O908 1.265 . S
O899 C898 1.227 . S
N900 Co897 2.121 . S
N900 C902 1.375 . S
N900 C903 1.313 . S
C901 C902 1.338 . S
C901 N904 1.377 . S
C901 H921 0.930 . S
C902 N900 1.375 . S
C902 C901 1.338 . S
C902 H906 0.931 . S
C903 N900 1.313 . S
C903 N904 1.344 . S
C903 H907 0.930 . S
N904 C901 1.377 . S
N904 C903 1.344 . S
O905 Co897 2.055 . S
O905 C909 1.253 . S
H906 C902 0.931 . S
H907 C903 0.930 . S
O908 Co897 2.039 . S
O908 C898 1.265 . S
C909 O905 1.253 . S
C909 O910 1.227 . S
O910 C909 1.227 . S
N911 Co897 2.140 . S
N911 C914 1.346 . S
N911 C915 1.345 . S
C912 C913 1.387 . S
C912 C916 1.391 . S
C913 C912 1.387 . S
C913 C914 1.369 . S
C913 H922 0.929 . S
C914 N911 1.346 . S
C914 C913 1.369 . S
C914 H917 0.928 . S
C915 N911 1.345 . S
C915 C916 1.371 . S
C915 H918 0.931 . S
C916 C912 1.391 . S
C916 C915 1.371 . S
C916 H923 0.930 . S
H917 C914 0.928 . S
H918 C915 0.931 . S
H919 C895 0.930 . S
H920 C892 0.930 . S
H921 C901 0.930 . S
H922 C913 0.929 . S
H923 C916 0.930 . S
C924 C925 1.351 . S
C924 N927 1.368 . S
C924 H929 0.931 . S
C925 C924 1.351 . S
C925 N926 1.373 . S
C925 H953 0.930 . S
N926 C925 1.373 . S
N926 C928 1.340 . S
N927 C924 1.368 . S
N927 C928 1.321 . S
N927 Co930 2.135 . S
C928 N926 1.340 . S
C928 N927 1.321 . S
C928 H952 0.930 . S
H929 C924 0.931 . S
Co930 N927 2.135 . S
Co930 N933 2.121 . S
Co930 O938 2.055 . S
Co930 O941 2.039 . S
Co930 N944 2.140 . S
C931 O932 1.227 . S
C931 O941 1.265 . S
O932 C931 1.227 . S
N933 Co930 2.121 . S
N933 C935 1.375 . S
N933 C936 1.313 . S
C934 C935 1.338 . S
C934 N937 1.377 . S
C934 H954 0.930 . S
C935 N933 1.375 . S
C935 C934 1.338 . S
C935 H939 0.931 . S
C936 N933 1.313 . S
C936 N937 1.344 . S
C936 H940 0.930 . S
N937 C934 1.377 . S
N937 C936 1.344 . S
O938 Co930 2.055 . S
O938 C942 1.253 . S
H939 C935 0.931 . S
H940 C936 0.930 . S
O941 Co930 2.039 . S
O941 C931 1.265 . S
C942 O938 1.253 . S
C942 O943 1.227 . S
O943 C942 1.227 . S
N944 Co930 2.140 . S
N944 C947 1.346 . S
N944 C948 1.345 . S
C945 C946 1.387 . S
C945 C949 1.391 . S
C946 C945 1.387 . S
C946 C947 1.369 . S
C946 H955 0.929 . S
C947 N944 1.346 . S
C947 C946 1.369 . S
C947 H950 0.928 . S
C948 N944 1.345 . S
C948 C949 1.371 . S
C948 H951 0.931 . S
C949 C945 1.391 . S
C949 C948 1.371 . S
C949 H956 0.930 . S
H950 C947 0.928 . S
H951 C948 0.931 . S
H952 C928 0.930 . S
H953 C925 0.930 . S
H954 C934 0.930 . S
H955 C946 0.929 . S
H956 C949 0.930 . S
C957 C958 1.351 . S
C957 N960 1.368 . S
C957 H962 0.931 . S
C958 C957 1.351 . S
C958 N959 1.373 . S
C958 H986 0.930 . S
N959 C958 1.373 . S
N959 C961 1.340 . S
N960 C957 1.368 . S
N960 C961 1.321 . S
N960 Co963 2.135 . S
C961 N959 1.340 . S
C961 N960 1.321 . S
C961 H985 0.930 . S
H962 C957 0.931 . S
Co963 N960 2.135 . S
Co963 N966 2.121 . S
Co963 O971 2.055 . S
Co963 O974 2.039 . S
Co963 N977 2.140 . S
C964 O965 1.227 . S
C964 O974 1.265 . S
O965 C964 1.227 . S
N966 Co963 2.121 . S
N966 C968 1.375 . S
N966 C969 1.313 . S
C967 C968 1.338 . S
C967 N970 1.377 . S
C967 H987 0.930 . S
C968 N966 1.375 . S
C968 C967 1.338 . S
C968 H972 0.931 . S
C969 N966 1.313 . S
C969 N970 1.344 . S
C969 H973 0.930 . S
N970 C967 1.377 . S
N970 C969 1.344 . S
O971 Co963 2.055 . S
O971 C975 1.253 . S
H972 C968 0.931 . S
H973 C969 0.930 . S
O974 Co963 2.039 . S
O974 C964 1.265 . S
C975 O971 1.253 . S
C975 O976 1.227 . S
O976 C975 1.227 . S
N977 Co963 2.140 . S
N977 C980 1.346 . S
N977 C981 1.345 . S
C978 C979 1.387 . S
C978 C982 1.391 . S
C979 C978 1.387 . S
C979 C980 1.369 . S
C979 H988 0.929 . S
C980 N977 1.346 . S
C980 C979 1.369 . S
C980 H983 0.928 . S
C981 N977 1.345 . S
C981 C982 1.371 . S
C981 H984 0.931 . S
C982 C978 1.391 . S
C982 C981 1.371 . S
C982 H989 0.930 . S
H983 C980 0.928 . S
H984 C981 0.931 . S
H985 C961 0.930 . S
H986 C958 0.930 . S
H987 C967 0.930 . S
H988 C979 0.929 . S
H989 C982 0.930 . S
C990 C991 1.351 . S
C990 N993 1.368 . S
C990 H995 0.931 . S
C991 C990 1.351 . S
C991 N992 1.373 . S
C991 H1019 0.930 . S
N992 C991 1.373 . S
N992 C994 1.340 . S
N993 C990 1.368 . S
N993 C994 1.321 . S
N993 Co996 2.135 . S
C994 N992 1.340 . S
C994 N993 1.321 . S
C994 H1018 0.930 . S
H995 C990 0.931 . S
Co996 N993 2.135 . S
Co996 N999 2.121 . S
Co996 O1004 2.055 . S
Co996 O1007 2.039 . S
Co996 N1010 2.140 . S
C997 O998 1.227 . S
C997 O1007 1.265 . S
O998 C997 1.227 . S
N999 Co996 2.121 . S
N999 C1001 1.375 . S
N999 C1002 1.313 . S
C1000 C1001 1.338 . S
C1000 N1003 1.377 . S
C1000 H1020 0.930 . S
C1001 N999 1.375 . S
C1001 C1000 1.338 . S
C1001 H1005 0.931 . S
C1002 N999 1.313 . S
C1002 N1003 1.344 . S
C1002 H1006 0.930 . S
N1003 C1000 1.377 . S
N1003 C1002 1.344 . S
O1004 Co996 2.055 . S
O1004 C1008 1.253 . S
H1005 C1001 0.931 . S
H1006 C1002 0.930 . S
O1007 Co996 2.039 . S
O1007 C997 1.265 . S
C1008 O1004 1.253 . S
C1008 O1009 1.227 . S
O1009 C1008 1.227 . S
N1010 Co996 2.140 . S
N1010 C1013 1.346 . S
N1010 C1014 1.345 . S
C1011 C1012 1.387 . S
C1011 C1015 1.391 . S
C1012 C1011 1.387 . S
C1012 C1013 1.369 . S
C1012 H1021 0.929 . S
C1013 N1010 1.346 . S
C1013 C1012 1.369 . S
C1013 H1016 0.928 . S
C1014 N1010 1.345 . S
C1014 C1015 1.371 . S
C1014 H1017 0.931 . S
C1015 C1011 1.391 . S
C1015 C1014 1.371 . S
C1015 H1022 0.930 . S
H1016 C1013 0.928 . S
H1017 C1014 0.931 . S
H1018 C994 0.930 . S
H1019 C991 0.930 . S
H1020 C1000 0.930 . S
H1021 C1012 0.929 . S
H1022 C1015 0.930 . S
C1023 C1024 1.351 . S
C1023 N1026 1.368 . S
C1023 H1028 0.931 . S
C1024 C1023 1.351 . S
C1024 N1025 1.373 . S
C1024 H1052 0.930 . S
N1025 C1024 1.373 . S
N1025 C1027 1.340 . S
N1026 C1023 1.368 . S
N1026 C1027 1.321 . S
N1026 Co1029 2.135 . S
C1027 N1025 1.340 . S
C1027 N1026 1.321 . S
C1027 H1051 0.930 . S
H1028 C1023 0.931 . S
Co1029 N1026 2.135 . S
Co1029 N1032 2.121 . S
Co1029 O1037 2.055 . S
Co1029 O1040 2.039 . S
Co1029 N1043 2.140 . S
C1030 O1031 1.227 . S
C1030 O1040 1.265 . S
O1031 C1030 1.227 . S
N1032 Co1029 2.121 . S
N1032 C1034 1.375 . S
N1032 C1035 1.313 . S
C1033 C1034 1.338 . S
C1033 N1036 1.377 . S
C1033 H1053 0.930 . S
C1034 N1032 1.375 . S
C1034 C1033 1.338 . S
C1034 H1038 0.931 . S
C1035 N1032 1.313 . S
C1035 N1036 1.344 . S
C1035 H1039 0.930 . S
N1036 C1033 1.377 . S
N1036 C1035 1.344 . S
O1037 Co1029 2.055 . S
O1037 C1041 1.253 . S
H1038 C1034 0.931 . S
H1039 C1035 0.930 . S
O1040 Co1029 2.039 . S
O1040 C1030 1.265 . S
C1041 O1037 1.253 . S
C1041 O1042 1.227 . S
O1042 C1041 1.227 . S
N1043 Co1029 2.140 . S
N1043 C1046 1.346 . S
N1043 C1047 1.345 . S
C1044 C1045 1.387 . S
C1044 C1048 1.391 . S
C1045 C1044 1.387 . S
C1045 C1046 1.369 . S
C1045 H1054 0.929 . S
C1046 N1043 1.346 . S
C1046 C1045 1.369 . S
C1046 H1049 0.928 . S
C1047 N1043 1.345 . S
C1047 C1048 1.371 . S
C1047 H1050 0.931 . S
C1048 C1044 1.391 . S
C1048 C1047 1.371 . S
C1048 H1055 0.930 . S
H1049 C1046 0.928 . S
H1050 C1047 0.931 . S
H1051 C1027 0.930 . S
H1052 C1024 0.930 . S
H1053 C1033 0.930 . S
H1054 C1045 0.929 . S
H1055 C1048 0.930 . S
C1056 C1057 1.351 . S
C1056 N1059 1.368 . S
C1056 H1061 0.931 . S
C1057 C1056 1.351 . S
C1057 N1058 1.373 . S
C1057 H1085 0.930 . S
N1058 C1057 1.373 . S
N1058 C1060 1.340 . S
N1059 C1056 1.368 . S
N1059 C1060 1.321 . S
N1059 Co1062 2.135 . S
C1060 N1058 1.340 . S
C1060 N1059 1.321 . S
C1060 H1084 0.930 . S
H1061 C1056 0.931 . S
Co1062 N1059 2.135 . S
Co1062 N1065 2.121 . S
Co1062 O1070 2.055 . S
Co1062 O1073 2.039 . S
Co1062 N1076 2.140 . S
C1063 O1064 1.227 . S
C1063 O1073 1.265 . S
O1064 C1063 1.227 . S
N1065 Co1062 2.121 . S
N1065 C1067 1.375 . S
N1065 C1068 1.313 . S
C1066 C1067 1.338 . S
C1066 N1069 1.377 . S
C1066 H1086 0.930 . S
C1067 N1065 1.375 . S
C1067 C1066 1.338 . S
C1067 H1071 0.931 . S
C1068 N1065 1.313 . S
C1068 N1069 1.344 . S
C1068 H1072 0.930 . S
N1069 C1066 1.377 . S
N1069 C1068 1.344 . S
O1070 Co1062 2.055 . S
O1070 C1074 1.253 . S
H1071 C1067 0.931 . S
H1072 C1068 0.930 . S
O1073 Co1062 2.039 . S
O1073 C1063 1.265 . S
C1074 O1070 1.253 . S
C1074 O1075 1.227 . S
O1075 C1074 1.227 . S
N1076 Co1062 2.140 . S
N1076 C1079 1.346 . S
N1076 C1080 1.345 . S
C1077 C1078 1.387 . S
C1077 C1081 1.391 . S
C1078 C1077 1.387 . S
C1078 C1079 1.369 . S
C1078 H1087 0.929 . S
C1079 N1076 1.346 . S
C1079 C1078 1.369 . S
C1079 H1082 0.928 . S
C1080 N1076 1.345 . S
C1080 C1081 1.371 . S
C1080 H1083 0.931 . S
C1081 C1077 1.391 . S
C1081 C1080 1.371 . S
C1081 H1088 0.930 . S
H1082 C1079 0.928 . S
H1083 C1080 0.931 . S
H1084 C1060 0.930 . S
H1085 C1057 0.930 . S
H1086 C1066 0.930 . S
H1087 C1078 0.929 . S
H1088 C1081 0.930 . S
C1089 C1090 1.351 . S
C1089 N1092 1.368 . S
C1089 H1094 0.931 . S
C1090 C1089 1.351 . S
C1090 N1091 1.373 1_565 S
C1090 H1118 0.925 1_565 S
N1091 C1090 1.373 1_545 S
N1091 C1093 1.340 1_545 S
N1092 C1089 1.368 . S
N1092 C1093 1.321 . S
N1092 Co1095 2.135 . S
C1093 N1091 1.340 1_565 S
C1093 N1092 1.321 . S
C1093 H1117 0.930 1_565 S
H1094 C1089 0.931 . S
Co1095 N1092 2.135 . S
Co1095 N1098 2.121 . S
Co1095 O1103 2.055 . S
Co1095 O1106 2.039 . S
Co1095 N1109 2.140 1_565 S
C1096 O1097 1.227 1_565 S
C1096 O1106 1.265 . S
O1097 C1096 1.227 1_545 S
N1098 Co1095 2.121 . S
N1098 C1100 1.375 . S
N1098 C1101 1.313 . S
C1099 C1100 1.338 . S
C1099 N1102 1.377 . S
C1099 H1119 0.930 . S
C1100 N1098 1.375 . S
C1100 C1099 1.338 . S
C1100 H1104 0.931 . S
C1101 N1098 1.313 . S
C1101 N1102 1.344 . S
C1101 H1105 0.930 . S
N1102 C1099 1.377 . S
N1102 C1101 1.344 . S
O1103 Co1095 2.055 . S
O1103 C1107 1.253 . S
H1104 C1100 0.931 . S
H1105 C1101 0.930 . S
O1106 Co1095 2.039 . S
O1106 C1096 1.265 . S
C1107 O1103 1.253 . S
C1107 O1108 1.227 . S
O1108 C1107 1.227 . S
N1109 Co1095 2.140 1_545 S
N1109 C1112 1.346 . S
N1109 C1113 1.345 . S
C1110 C1111 1.387 . S
C1110 C1114 1.391 . S
C1111 C1110 1.387 . S
C1111 C1112 1.369 . S
C1111 H1120 0.929 . S
C1112 N1109 1.346 . S
C1112 C1111 1.369 . S
C1112 H1115 0.928 . S
C1113 N1109 1.345 . S
C1113 C1114 1.371 . S
C1113 H1116 0.931 1_545 S
C1114 C1110 1.391 . S
C1114 C1113 1.371 . S
C1114 H1121 0.930 . S
H1115 C1112 0.928 . S
H1116 C1113 0.931 1_565 S
H1117 C1093 0.930 1_545 S
H1118 C1090 0.925 1_545 S
H1119 C1099 0.930 . S
H1120 C1111 0.929 . S
H1121 C1114 0.930 . S
C1122 C1123 1.351 . S
C1122 N1125 1.368 . S
C1122 H1127 0.931 . S
C1123 C1122 1.351 . S
C1123 N1124 1.373 . S
C1123 H1151 0.930 . S
N1124 C1123 1.373 . S
N1124 C1126 1.340 . S
N1125 C1122 1.368 . S
N1125 C1126 1.321 . S
N1125 Co1128 2.135 . S
C1126 N1124 1.340 . S
C1126 N1125 1.321 . S
C1126 H1150 0.930 . S
H1127 C1122 0.931 . S
Co1128 N1125 2.135 . S
Co1128 N1131 2.121 1_565 S
Co1128 O1136 2.055 . S
Co1128 O1139 2.039 . S
Co1128 N1142 2.140 . S
C1129 O1130 1.227 . S
C1129 O1139 1.265 . S
O1130 C1129 1.227 . S
N1131 Co1128 2.121 1_545 S
N1131 C1133 1.375 . S
N1131 C1134 1.313 . S
C1132 C1133 1.338 . S
C1132 N1135 1.377 . S
C1132 H1152 0.930 . S
C1133 N1131 1.375 . S
C1133 C1132 1.338 . S
C1133 H1137 0.931 . S
C1134 N1131 1.313 . S
C1134 N1135 1.344 . S
C1134 H1138 0.930 . S
N1135 C1132 1.377 . S
N1135 C1134 1.344 . S
O1136 Co1128 2.055 . S
O1136 C1140 1.253 . S
H1137 C1133 0.931 . S
H1138 C1134 0.930 . S
O1139 Co1128 2.039 . S
O1139 C1129 1.265 . S
C1140 O1136 1.253 . S
C1140 O1141 1.227 . S
O1141 C1140 1.227 . S
N1142 Co1128 2.140 . S
N1142 C1145 1.346 . S
N1142 C1146 1.345 . S
C1143 C1144 1.387 . S
C1143 C1147 1.391 . S
C1144 C1143 1.387 . S
C1144 C1145 1.369 . S
C1144 H1153 0.929 . S
C1145 N1142 1.346 . S
C1145 C1144 1.369 . S
C1145 H1148 0.928 . S
C1146 N1142 1.345 . S
C1146 C1147 1.371 . S
C1146 H1149 0.931 . S
C1147 C1143 1.391 . S
C1147 C1146 1.371 . S
C1147 H1154 0.930 1_565 S
H1148 C1145 0.928 . S
H1149 C1146 0.931 . S
H1150 C1126 0.930 . S
H1151 C1123 0.930 . S
H1152 C1132 0.930 . S
H1153 C1144 0.929 . S
H1154 C1147 0.930 1_545 S
C1155 C1156 1.351 . S
C1155 N1158 1.368 . S
C1155 H1160 0.931 . S
C1156 C1155 1.351 . S
C1156 N1157 1.373 . S
C1156 H1184 0.930 . S
N1157 C1156 1.373 . S
N1157 C1159 1.340 . S
N1158 C1155 1.368 . S
N1158 C1159 1.321 . S
N1158 Co1161 2.135 . S
C1159 N1157 1.340 . S
C1159 N1158 1.321 . S
C1159 H1183 0.930 . S
H1160 C1155 0.931 . S
Co1161 N1158 2.135 . S
Co1161 N1164 2.121 . S
Co1161 O1169 2.055 . S
Co1161 O1172 2.039 . S
Co1161 N1175 2.140 . S
C1162 O1163 1.227 . S
C1162 O1172 1.265 . S
O1163 C1162 1.227 . S
N1164 Co1161 2.121 . S
N1164 C1166 1.375 . S
N1164 C1167 1.313 . S
C1165 C1166 1.338 . S
C1165 N1168 1.377 . S
C1165 H1185 0.930 . S
C1166 N1164 1.375 . S
C1166 C1165 1.338 . S
C1166 H1170 0.931 . S
C1167 N1164 1.313 . S
C1167 N1168 1.344 . S
C1167 H1171 0.930 . S
N1168 C1165 1.377 . S
N1168 C1167 1.344 . S
O1169 Co1161 2.055 . S
O1169 C1173 1.253 . S
H1170 C1166 0.931 . S
H1171 C1167 0.930 . S
O1172 Co1161 2.039 . S
O1172 C1162 1.265 . S
C1173 O1169 1.253 . S
C1173 O1174 1.227 . S
O1174 C1173 1.227 . S
N1175 Co1161 2.140 . S
N1175 C1178 1.346 . S
N1175 C1179 1.345 . S
C1176 C1177 1.387 . S
C1176 C1180 1.391 . S
C1177 C1176 1.387 . S
C1177 C1178 1.369 . S
C1177 H1186 0.929 . S
C1178 N1175 1.346 . S
C1178 C1177 1.369 . S
C1178 H1181 0.928 . S
C1179 N1175 1.345 . S
C1179 C1180 1.371 . S
C1179 H1182 0.931 . S
C1180 C1176 1.391 . S
C1180 C1179 1.371 . S
C1180 H1187 0.930 . S
H1181 C1178 0.928 . S
H1182 C1179 0.931 . S
H1183 C1159 0.930 . S
H1184 C1156 0.930 . S
H1185 C1165 0.930 . S
H1186 C1177 0.929 . S
H1187 C1180 0.930 . S
C1188 C1189 1.351 . S
C1188 N1191 1.368 . S
C1188 H1193 0.931 . S
C1189 C1188 1.351 . S
C1189 N1190 1.373 . S
C1189 H1217 0.930 . S
N1190 C1189 1.373 . S
N1190 C1192 1.340 . S
N1191 C1188 1.368 . S
N1191 C1192 1.321 . S
N1191 Co1194 2.135 . S
C1192 N1190 1.340 . S
C1192 N1191 1.321 . S
C1192 H1216 0.930 . S
H1193 C1188 0.931 . S
Co1194 N1191 2.135 . S
Co1194 N1197 2.121 . S
Co1194 O1202 2.055 . S
Co1194 O1205 2.039 . S
Co1194 N1208 2.140 . S
C1195 O1196 1.227 . S
C1195 O1205 1.265 . S
O1196 C1195 1.227 . S
N1197 Co1194 2.121 . S
N1197 C1199 1.375 . S
N1197 C1200 1.313 . S
C1198 C1199 1.338 . S
C1198 N1201 1.377 . S
C1198 H1218 0.930 . S
C1199 N1197 1.375 . S
C1199 C1198 1.338 . S
C1199 H1203 0.931 . S
C1200 N1197 1.313 . S
C1200 N1201 1.344 . S
C1200 H1204 0.930 . S
N1201 C1198 1.377 . S
N1201 C1200 1.344 . S
O1202 Co1194 2.055 . S
O1202 C1206 1.253 . S
H1203 C1199 0.931 . S
H1204 C1200 0.930 . S
O1205 Co1194 2.039 . S
O1205 C1195 1.265 . S
C1206 O1202 1.253 . S
C1206 O1207 1.227 . S
O1207 C1206 1.227 . S
N1208 Co1194 2.140 . S
N1208 C1211 1.346 . S
N1208 C1212 1.345 . S
C1209 C1210 1.387 . S
C1209 C1213 1.391 . S
C1210 C1209 1.387 . S
C1210 C1211 1.369 . S
C1210 H1219 0.929 . S
C1211 N1208 1.346 . S
C1211 C1210 1.369 . S
C1211 H1214 0.928 . S
C1212 N1208 1.345 . S
C1212 C1213 1.371 . S
C1212 H1215 0.931 . S
C1213 C1209 1.391 . S
C1213 C1212 1.371 . S
C1213 H1220 0.930 . S
H1214 C1211 0.928 . S
H1215 C1212 0.931 . S
H1216 C1192 0.930 . S
H1217 C1189 0.930 . S
H1218 C1198 0.930 . S
H1219 C1210 0.929 . S
H1220 C1213 0.930 . S
C1221 C1222 1.351 . S
C1221 N1224 1.368 . S
C1221 H1226 0.931 . S
C1222 C1221 1.351 . S
C1222 N1223 1.373 1_565 S
C1222 H1250 0.925 1_565 S
N1223 C1222 1.373 1_545 S
N1223 C1225 1.340 1_545 S
N1224 C1221 1.368 . S
N1224 C1225 1.321 . S
N1224 Co1227 2.135 . S
C1225 N1223 1.340 1_565 S
C1225 N1224 1.321 . S
C1225 H1249 0.930 1_565 S
H1226 C1221 0.931 . S
Co1227 N1224 2.135 . S
Co1227 N1230 2.121 . S
Co1227 O1235 2.055 . S
Co1227 O1238 2.039 . S
Co1227 N1241 2.140 1_565 S
C1228 O1229 1.227 1_565 S
C1228 O1238 1.265 . S
O1229 C1228 1.227 1_545 S
N1230 Co1227 2.121 . S
N1230 C1232 1.375 . S
N1230 C1233 1.313 . S
C1231 C1232 1.338 . S
C1231 N1234 1.377 . S
C1231 H1251 0.930 . S
C1232 N1230 1.375 . S
C1232 C1231 1.338 . S
C1232 H1236 0.931 . S
C1233 N1230 1.313 . S
C1233 N1234 1.344 . S
C1233 H1237 0.930 . S
N1234 C1231 1.377 . S
N1234 C1233 1.344 . S
O1235 Co1227 2.055 . S
O1235 C1239 1.253 . S
H1236 C1232 0.931 . S
H1237 C1233 0.930 . S
O1238 Co1227 2.039 . S
O1238 C1228 1.265 . S
C1239 O1235 1.253 . S
C1239 O1240 1.227 . S
O1240 C1239 1.227 . S
N1241 Co1227 2.140 1_545 S
N1241 C1244 1.346 . S
N1241 C1245 1.345 . S
C1242 C1243 1.387 . S
C1242 C1246 1.391 . S
C1243 C1242 1.387 . S
C1243 C1244 1.369 . S
C1243 H1252 0.929 . S
C1244 N1241 1.346 . S
C1244 C1243 1.369 . S
C1244 H1247 0.928 . S
C1245 N1241 1.345 . S
C1245 C1246 1.371 . S
C1245 H1248 0.931 1_545 S
C1246 C1242 1.391 . S
C1246 C1245 1.371 . S
C1246 H1253 0.930 . S
H1247 C1244 0.928 . S
H1248 C1245 0.931 1_565 S
H1249 C1225 0.930 1_545 S
H1250 C1222 0.925 1_545 S
H1251 C1231 0.930 . S
H1252 C1243 0.929 . S
H1253 C1246 0.930 . S
C1254 C1255 1.351 . S
C1254 N1257 1.368 . S
C1254 H1259 0.931 . S
C1255 C1254 1.351 . S
C1255 N1256 1.373 . S
C1255 H1283 0.930 . S
N1256 C1255 1.373 . S
N1256 C1258 1.340 . S
N1257 C1254 1.368 . S
N1257 C1258 1.321 . S
N1257 Co1260 2.135 . S
C1258 N1256 1.340 . S
C1258 N1257 1.321 . S
C1258 H1282 0.930 . S
H1259 C1254 0.931 . S
Co1260 N1257 2.135 . S
Co1260 N1263 2.121 1_545 S
Co1260 O1268 2.055 . S
Co1260 O1271 2.039 . S
Co1260 N1274 2.140 . S
C1261 O1262 1.227 . S
C1261 O1271 1.265 . S
O1262 C1261 1.227 . S
N1263 Co1260 2.121 1_565 S
N1263 C1265 1.375 . S
N1263 C1266 1.313 . S
C1264 C1265 1.338 . S
C1264 N1267 1.377 . S
C1264 H1284 0.930 . S
C1265 N1263 1.375 . S
C1265 C1264 1.338 . S
C1265 H1269 0.931 . S
C1266 N1263 1.313 . S
C1266 N1267 1.344 . S
C1266 H1270 0.930 . S
N1267 C1264 1.377 . S
N1267 C1266 1.344 . S
O1268 Co1260 2.055 . S
O1268 C1272 1.253 . S
H1269 C1265 0.931 . S
H1270 C1266 0.930 . S
O1271 Co1260 2.039 . S
O1271 C1261 1.265 . S
C1272 O1268 1.253 . S
C1272 O1273 1.227 . S
O1273 C1272 1.227 . S
N1274 Co1260 2.140 . S
N1274 C1277 1.346 . S
N1274 C1278 1.345 . S
C1275 C1276 1.387 . S
C1275 C1279 1.391 . S
C1276 C1275 1.387 . S
C1276 C1277 1.369 . S
C1276 H1285 0.929 . S
C1277 N1274 1.346 . S
C1277 C1276 1.369 . S
C1277 H1280 0.928 . S
C1278 N1274 1.345 . S
C1278 C1279 1.371 . S
C1278 H1281 0.931 . S
C1279 C1275 1.391 . S
C1279 C1278 1.371 . S
C1279 H1286 0.930 1_545 S
H1280 C1277 0.928 . S
H1281 C1278 0.931 . S
H1282 C1258 0.930 . S
H1283 C1255 0.930 . S
H1284 C1264 0.930 . S
H1285 C1276 0.929 . S
H1286 C1279 0.930 1_565 S
C1287 C1288 1.351 . S
C1287 N1290 1.368 . S
C1287 H1292 0.931 . S
C1288 C1287 1.351 . S
C1288 N1289 1.373 . S
C1288 H1316 0.930 . S
N1289 C1288 1.373 . S
N1289 C1291 1.340 . S
N1290 C1287 1.368 . S
N1290 C1291 1.321 . S
N1290 Co1293 2.135 . S
C1291 N1289 1.340 . S
C1291 N1290 1.321 . S
C1291 H1315 0.930 . S
H1292 C1287 0.931 . S
Co1293 N1290 2.135 . S
Co1293 N1296 2.121 . S
Co1293 O1301 2.055 . S
Co1293 O1304 2.039 . S
Co1293 N1307 2.140 . S
C1294 O1295 1.227 . S
C1294 O1304 1.265 . S
O1295 C1294 1.227 . S
N1296 Co1293 2.121 . S
N1296 C1298 1.375 . S
N1296 C1299 1.313 . S
C1297 C1298 1.338 . S
C1297 N1300 1.377 . S
C1297 H1317 0.930 . S
C1298 N1296 1.375 . S
C1298 C1297 1.338 . S
C1298 H1302 0.931 . S
C1299 N1296 1.313 . S
C1299 N1300 1.344 . S
C1299 H1303 0.930 . S
N1300 C1297 1.377 . S
N1300 C1299 1.344 . S
O1301 Co1293 2.055 . S
O1301 C1305 1.253 . S
H1302 C1298 0.931 . S
H1303 C1299 0.930 . S
O1304 Co1293 2.039 . S
O1304 C1294 1.265 . S
C1305 O1301 1.253 . S
C1305 O1306 1.227 . S
O1306 C1305 1.227 . S
N1307 Co1293 2.140 . S
N1307 C1310 1.346 . S
N1307 C1311 1.345 . S
C1308 C1309 1.387 . S
C1308 C1312 1.391 . S
C1309 C1308 1.387 . S
C1309 C1310 1.369 . S
C1309 H1318 0.929 . S
C1310 N1307 1.346 . S
C1310 C1309 1.369 . S
C1310 H1313 0.928 . S
C1311 N1307 1.345 . S
C1311 C1312 1.371 . S
C1311 H1314 0.931 . S
C1312 C1308 1.391 . S
C1312 C1311 1.371 . S
C1312 H1319 0.930 . S
H1313 C1310 0.928 . S
H1314 C1311 0.931 . S
H1315 C1291 0.930 . S
H1316 C1288 0.930 . S
H1317 C1297 0.930 . S
H1318 C1309 0.929 . S
H1319 C1312 0.930 . S
C1320 C1321 1.351 . S
C1320 N1323 1.368 . S
C1320 H1325 0.931 . S
C1321 C1320 1.351 . S
C1321 N1322 1.373 . S
C1321 H1349 0.930 . S
N1322 C1321 1.373 . S
N1322 C1324 1.340 . S
N1323 C1320 1.368 . S
N1323 C1324 1.321 . S
N1323 Co1326 2.135 . S
C1324 N1322 1.340 . S
C1324 N1323 1.321 . S
C1324 H1348 0.930 . S
H1325 C1320 0.931 . S
Co1326 N1323 2.135 . S
Co1326 N1329 2.121 . S
Co1326 O1334 2.055 . S
Co1326 O1337 2.039 . S
Co1326 N1340 2.140 . S
C1327 O1328 1.227 . S
C1327 O1337 1.265 . S
O1328 C1327 1.227 . S
N1329 Co1326 2.121 . S
N1329 C1331 1.375 . S
N1329 C1332 1.313 . S
C1330 C1331 1.338 . S
C1330 N1333 1.377 . S
C1330 H1350 0.930 . S
C1331 N1329 1.375 . S
C1331 C1330 1.338 . S
C1331 H1335 0.931 . S
C1332 N1329 1.313 . S
C1332 N1333 1.344 . S
C1332 H1336 0.930 . S
N1333 C1330 1.377 . S
N1333 C1332 1.344 . S
O1334 Co1326 2.055 . S
O1334 C1338 1.253 . S
H1335 C1331 0.931 . S
H1336 C1332 0.930 . S
O1337 Co1326 2.039 . S
O1337 C1327 1.265 . S
C1338 O1334 1.253 . S
C1338 O1339 1.227 . S
O1339 C1338 1.227 . S
N1340 Co1326 2.140 . S
N1340 C1343 1.346 . S
N1340 C1344 1.345 . S
C1341 C1342 1.387 . S
C1341 C1345 1.391 . S
C1342 C1341 1.387 . S
C1342 C1343 1.369 . S
C1342 H1351 0.929 . S
C1343 N1340 1.346 . S
C1343 C1342 1.369 . S
C1343 H1346 0.928 . S
C1344 N1340 1.345 . S
C1344 C1345 1.371 . S
C1344 H1347 0.931 . S
C1345 C1341 1.391 . S
C1345 C1344 1.371 . S
C1345 H1352 0.930 . S
H1346 C1343 0.928 . S
H1347 C1344 0.931 . S
H1348 C1324 0.930 . S
H1349 C1321 0.930 . S
H1350 C1330 0.930 . S
H1351 C1342 0.929 . S
H1352 C1345 0.930 . S
C1353 C1354 1.351 . S
C1353 N1356 1.368 . S
C1353 H1358 0.931 . S
C1354 C1353 1.351 . S
C1354 N1355 1.373 . S
C1354 H1382 0.930 . S
N1355 C1354 1.373 . S
N1355 C1357 1.340 . S
N1356 C1353 1.368 . S
N1356 C1357 1.321 . S
N1356 Co1359 2.135 . S
C1357 N1355 1.340 . S
C1357 N1356 1.321 . S
C1357 H1381 0.930 . S
H1358 C1353 0.931 . S
Co1359 N1356 2.135 . S
Co1359 N1362 2.121 1_556 S
Co1359 O1367 2.055 . S
Co1359 O1370 2.039 . S
Co1359 N1373 2.140 . S
C1360 O1361 1.227 . S
C1360 O1370 1.265 . S
O1361 C1360 1.227 . S
N1362 Co1359 2.121 1_554 S
N1362 C1364 1.375 . S
N1362 C1365 1.313 . S
C1363 C1364 1.338 . S
C1363 N1366 1.377 . S
C1363 H1383 0.930 . S
C1364 N1362 1.375 . S
C1364 C1363 1.338 . S
C1364 H1368 0.931 . S
C1365 N1362 1.313 . S
C1365 N1366 1.344 . S
C1365 H1369 0.930 . S
N1366 C1363 1.377 . S
N1366 C1365 1.344 . S
O1367 Co1359 2.055 . S
O1367 C1371 1.253 . S
H1368 C1364 0.931 . S
H1369 C1365 0.930 . S
O1370 Co1359 2.039 . S
O1370 C1360 1.265 . S
C1371 O1367 1.253 . S
C1371 O1372 1.227 . S
O1372 C1371 1.227 . S
N1373 Co1359 2.140 . S
N1373 C1376 1.346 . S
N1373 C1377 1.345 . S
C1374 C1375 1.387 . S
C1374 C1378 1.391 . S
C1375 C1374 1.387 . S
C1375 C1376 1.369 . S
C1375 H1384 0.929 . S
C1376 N1373 1.346 . S
C1376 C1375 1.369 . S
C1376 H1379 0.928 . S
C1377 N1373 1.345 . S
C1377 C1378 1.371 . S
C1377 H1380 0.931 . S
C1378 C1374 1.391 . S
C1378 C1377 1.371 . S
C1378 H1385 0.930 1_556 S
H1379 C1376 0.928 . S
H1380 C1377 0.931 . S
H1381 C1357 0.930 . S
H1382 C1354 0.930 . S
H1383 C1363 0.930 . S
H1384 C1375 0.929 . S
H1385 C1378 0.930 1_554 S
C1386 C1387 1.351 . S
C1386 N1389 1.368 . S
C1386 H1391 0.931 . S
C1387 C1386 1.351 . S
C1387 N1388 1.373 . S
C1387 H1415 0.930 . S
N1388 C1387 1.373 . S
N1388 C1390 1.340 . S
N1389 C1386 1.368 . S
N1389 C1390 1.321 . S
N1389 Co1392 2.135 . S
C1390 N1388 1.340 . S
C1390 N1389 1.321 . S
C1390 H1414 0.930 . S
H1391 C1386 0.931 . S
Co1392 N1389 2.135 . S
Co1392 N1395 2.121 . S
Co1392 O1400 2.055 . S
Co1392 O1403 2.039 . S
Co1392 N1406 2.140 . S
C1393 O1394 1.227 . S
C1393 O1403 1.265 . S
O1394 C1393 1.227 . S
N1395 Co1392 2.121 . S
N1395 C1397 1.375 . S
N1395 C1398 1.313 . S
C1396 C1397 1.338 . S
C1396 N1399 1.377 . S
C1396 H1416 0.930 . S
C1397 N1395 1.375 . S
C1397 C1396 1.338 . S
C1397 H1401 0.931 . S
C1398 N1395 1.313 . S
C1398 N1399 1.344 . S
C1398 H1402 0.930 . S
N1399 C1396 1.377 . S
N1399 C1398 1.344 . S
O1400 Co1392 2.055 . S
O1400 C1404 1.253 . S
H1401 C1397 0.931 . S
H1402 C1398 0.930 . S
O1403 Co1392 2.039 . S
O1403 C1393 1.265 . S
C1404 O1400 1.253 . S
C1404 O1405 1.227 . S
O1405 C1404 1.227 . S
N1406 Co1392 2.140 . S
N1406 C1409 1.346 . S
N1406 C1410 1.345 . S
C1407 C1408 1.387 . S
C1407 C1411 1.391 . S
C1408 C1407 1.387 . S
C1408 C1409 1.369 . S
C1408 H1417 0.929 . S
C1409 N1406 1.346 . S
C1409 C1408 1.369 . S
C1409 H1412 0.928 . S
C1410 N1406 1.345 . S
C1410 C1411 1.371 . S
C1410 H1413 0.931 . S
C1411 C1407 1.391 . S
C1411 C1410 1.371 . S
C1411 H1418 0.930 . S
H1412 C1409 0.928 . S
H1413 C1410 0.931 . S
H1414 C1390 0.930 . S
H1415 C1387 0.930 . S
H1416 C1396 0.930 . S
H1417 C1408 0.929 . S
H1418 C1411 0.930 . S
C1419 C1420 1.351 . S
C1419 N1422 1.368 . S
C1419 H1424 0.931 . S
C1420 C1419 1.351 . S
C1420 N1421 1.373 . S
C1420 H1448 0.930 . S
N1421 C1420 1.373 . S
N1421 C1423 1.340 . S
N1422 C1419 1.368 . S
N1422 C1423 1.321 . S
N1422 Co1425 2.135 . S
C1423 N1421 1.340 . S
C1423 N1422 1.321 . S
C1423 H1447 0.930 . S
H1424 C1419 0.931 . S
Co1425 N1422 2.135 . S
Co1425 N1428 2.121 1_556 S
Co1425 O1433 2.055 . S
Co1425 O1436 2.039 . S
Co1425 N1439 2.140 . S
C1426 O1427 1.227 . S
C1426 O1436 1.265 . S
O1427 C1426 1.227 . S
N1428 Co1425 2.121 1_554 S
N1428 C1430 1.375 . S
N1428 C1431 1.313 . S
C1429 C1430 1.338 . S
C1429 N1432 1.377 . S
C1429 H1449 0.930 . S
C1430 N1428 1.375 . S
C1430 C1429 1.338 . S
C1430 H1434 0.931 . S
C1431 N1428 1.313 . S
C1431 N1432 1.344 . S
C1431 H1435 0.930 . S
N1432 C1429 1.377 . S
N1432 C1431 1.344 . S
O1433 Co1425 2.055 . S
O1433 C1437 1.253 . S
H1434 C1430 0.931 . S
H1435 C1431 0.930 . S
O1436 Co1425 2.039 . S
O1436 C1426 1.265 . S
C1437 O1433 1.253 . S
C1437 O1438 1.227 . S
O1438 C1437 1.227 . S
N1439 Co1425 2.140 . S
N1439 C1442 1.346 . S
N1439 C1443 1.345 . S
C1440 C1441 1.387 . S
C1440 C1444 1.391 . S
C1441 C1440 1.387 . S
C1441 C1442 1.369 . S
C1441 H1450 0.929 . S
C1442 N1439 1.346 . S
C1442 C1441 1.369 . S
C1442 H1445 0.928 . S
C1443 N1439 1.345 . S
C1443 C1444 1.371 . S
C1443 H1446 0.931 . S
C1444 C1440 1.391 . S
C1444 C1443 1.371 . S
C1444 H1451 0.930 1_556 S
H1445 C1442 0.928 . S
H1446 C1443 0.931 . S
H1447 C1423 0.930 . S
H1448 C1420 0.930 . S
H1449 C1429 0.930 . S
H1450 C1441 0.929 . S
H1451 C1444 0.930 1_554 S
C1452 C1453 1.351 . S
C1452 N1455 1.368 . S
C1452 H1457 0.931 . S
C1453 C1452 1.351 . S
C1453 N1454 1.373 1_455 S
C1453 H1481 0.926 1_455 S
N1454 C1453 1.373 1_655 S
N1454 C1456 1.340 1_655 S
N1455 C1452 1.368 . S
N1455 C1456 1.321 . S
N1455 Co1458 2.135 . S
C1456 N1454 1.340 1_455 S
C1456 N1455 1.321 . S
C1456 H1480 0.930 1_455 S
H1457 C1452 0.931 . S
Co1458 N1455 2.135 . S
Co1458 N1461 2.121 . S
Co1458 O1466 2.055 . S
Co1458 O1469 2.039 . S
Co1458 N1472 2.140 1_455 S
C1459 O1460 1.227 1_455 S
C1459 O1469 1.265 . S
O1460 C1459 1.227 1_655 S
N1461 Co1458 2.121 . S
N1461 C1463 1.375 . S
N1461 C1464 1.313 . S
C1462 C1463 1.338 . S
C1462 N1465 1.377 . S
C1462 H1482 0.930 . S
C1463 N1461 1.375 . S
C1463 C1462 1.338 . S
C1463 H1467 0.931 . S
C1464 N1461 1.313 . S
C1464 N1465 1.344 . S
C1464 H1468 0.930 . S
N1465 C1462 1.377 . S
N1465 C1464 1.344 . S
O1466 Co1458 2.055 . S
O1466 C1470 1.253 . S
H1467 C1463 0.931 . S
H1468 C1464 0.930 . S
O1469 Co1458 2.039 . S
O1469 C1459 1.265 . S
C1470 O1466 1.253 . S
C1470 O1471 1.227 . S
O1471 C1470 1.227 . S
N1472 Co1458 2.140 1_655 S
N1472 C1475 1.346 . S
N1472 C1476 1.345 . S
C1473 C1474 1.387 . S
C1473 C1477 1.391 . S
C1474 C1473 1.387 . S
C1474 C1475 1.369 . S
C1474 H1483 0.929 . S
C1475 N1472 1.346 . S
C1475 C1474 1.369 . S
C1475 H1478 0.928 . S
C1476 N1472 1.345 . S
C1476 C1477 1.371 . S
C1476 H1479 0.931 1_655 S
C1477 C1473 1.391 . S
C1477 C1476 1.371 . S
C1477 H1484 0.930 . S
H1478 C1475 0.928 . S
H1479 C1476 0.931 1_455 S
H1480 C1456 0.930 1_655 S
H1481 C1453 0.926 1_655 S
H1482 C1462 0.930 . S
H1483 C1474 0.929 . S
H1484 C1477 0.930 . S
C1485 C1486 1.351 . S
C1485 N1488 1.368 . S
C1485 H1490 0.931 . S
C1486 C1485 1.351 . S
C1486 N1487 1.373 . S
C1486 H1514 0.930 . S
N1487 C1486 1.373 . S
N1487 C1489 1.340 . S
N1488 C1485 1.368 . S
N1488 C1489 1.321 . S
N1488 Co1491 2.135 . S
C1489 N1487 1.340 . S
C1489 N1488 1.321 . S
C1489 H1513 0.930 . S
H1490 C1485 0.931 . S
Co1491 N1488 2.135 . S
Co1491 N1494 2.121 1_554 S
Co1491 O1499 2.055 . S
Co1491 O1502 2.039 . S
Co1491 N1505 2.140 . S
C1492 O1493 1.227 . S
C1492 O1502 1.265 . S
O1493 C1492 1.227 . S
N1494 Co1491 2.121 1_556 S
N1494 C1496 1.375 . S
N1494 C1497 1.313 . S
C1495 C1496 1.338 . S
C1495 N1498 1.377 . S
C1495 H1515 0.930 . S
C1496 N1494 1.375 . S
C1496 C1495 1.338 . S
C1496 H1500 0.931 . S
C1497 N1494 1.313 . S
C1497 N1498 1.344 . S
C1497 H1501 0.930 . S
N1498 C1495 1.377 . S
N1498 C1497 1.344 . S
O1499 Co1491 2.055 . S
O1499 C1503 1.253 . S
H1500 C1496 0.931 . S
H1501 C1497 0.930 . S
O1502 Co1491 2.039 . S
O1502 C1492 1.265 . S
C1503 O1499 1.253 . S
C1503 O1504 1.227 . S
O1504 C1503 1.227 . S
N1505 Co1491 2.140 . S
N1505 C1508 1.346 . S
N1505 C1509 1.345 . S
C1506 C1507 1.387 . S
C1506 C1510 1.391 . S
C1507 C1506 1.387 . S
C1507 C1508 1.369 . S
C1507 H1516 0.929 . S
C1508 N1505 1.346 . S
C1508 C1507 1.369 . S
C1508 H1511 0.928 . S
C1509 N1505 1.345 . S
C1509 C1510 1.371 . S
C1509 H1512 0.931 . S
C1510 C1506 1.391 . S
C1510 C1509 1.371 . S
C1510 H1517 0.930 1_554 S
H1511 C1508 0.928 . S
H1512 C1509 0.931 . S
H1513 C1489 0.930 . S
H1514 C1486 0.930 . S
H1515 C1495 0.930 . S
H1516 C1507 0.929 . S
H1517 C1510 0.930 1_556 S
C1518 C1519 1.351 . S
C1518 N1521 1.368 . S
C1518 H1523 0.931 . S
C1519 C1518 1.351 . S
C1519 N1520 1.373 . S
C1519 H1547 0.930 . S
N1520 C1519 1.373 . S
N1520 C1522 1.340 . S
N1521 C1518 1.368 . S
N1521 C1522 1.321 . S
N1521 Co1524 2.135 . S
C1522 N1520 1.340 . S
C1522 N1521 1.321 . S
C1522 H1546 0.930 . S
H1523 C1518 0.931 . S
Co1524 N1521 2.135 . S
Co1524 N1527 2.121 . S
Co1524 O1532 2.055 . S
Co1524 O1535 2.039 . S
Co1524 N1538 2.140 . S
C1525 O1526 1.227 . S
C1525 O1535 1.265 . S
O1526 C1525 1.227 . S
N1527 Co1524 2.121 . S
N1527 C1529 1.375 . S
N1527 C1530 1.313 . S
C1528 C1529 1.338 . S
C1528 N1531 1.377 . S
C1528 H1548 0.930 . S
C1529 N1527 1.375 . S
C1529 C1528 1.338 . S
C1529 H1533 0.931 . S
C1530 N1527 1.313 . S
C1530 N1531 1.344 . S
C1530 H1534 0.930 . S
N1531 C1528 1.377 . S
N1531 C1530 1.344 . S
O1532 Co1524 2.055 . S
O1532 C1536 1.253 . S
H1533 C1529 0.931 . S
H1534 C1530 0.930 . S
O1535 Co1524 2.039 . S
O1535 C1525 1.265 . S
C1536 O1532 1.253 . S
C1536 O1537 1.227 . S
O1537 C1536 1.227 . S
N1538 Co1524 2.140 . S
N1538 C1541 1.346 . S
N1538 C1542 1.345 . S
C1539 C1540 1.387 . S
C1539 C1543 1.391 . S
C1540 C1539 1.387 . S
C1540 C1541 1.369 . S
C1540 H1549 0.929 . S
C1541 N1538 1.346 . S
C1541 C1540 1.369 . S
C1541 H1544 0.928 . S
C1542 N1538 1.345 . S
C1542 C1543 1.371 . S
C1542 H1545 0.931 . S
C1543 C1539 1.391 . S
C1543 C1542 1.371 . S
C1543 H1550 0.930 . S
H1544 C1541 0.928 . S
H1545 C1542 0.931 . S
H1546 C1522 0.930 . S
H1547 C1519 0.930 . S
H1548 C1528 0.930 . S
H1549 C1540 0.929 . S
H1550 C1543 0.930 . S
C1551 C1552 1.351 . S
C1551 N1554 1.368 . S
C1551 H1556 0.931 . S
C1552 C1551 1.351 . S
C1552 N1553 1.373 . S
C1552 H1580 0.930 . S
N1553 C1552 1.373 . S
N1553 C1555 1.340 . S
N1554 C1551 1.368 . S
N1554 C1555 1.321 . S
N1554 Co1557 2.135 . S
C1555 N1553 1.340 . S
C1555 N1554 1.321 . S
C1555 H1579 0.930 . S
H1556 C1551 0.931 . S
Co1557 N1554 2.135 . S
Co1557 N1560 2.121 . S
Co1557 O1565 2.055 . S
Co1557 O1568 2.039 . S
Co1557 N1571 2.140 . S
C1558 O1559 1.227 . S
C1558 O1568 1.265 . S
O1559 C1558 1.227 . S
N1560 Co1557 2.121 . S
N1560 C1562 1.375 . S
N1560 C1563 1.313 . S
C1561 C1562 1.338 . S
C1561 N1564 1.377 . S
C1561 H1581 0.930 . S
C1562 N1560 1.375 . S
C1562 C1561 1.338 . S
C1562 H1566 0.931 . S
C1563 N1560 1.313 . S
C1563 N1564 1.344 . S
C1563 H1567 0.930 . S
N1564 C1561 1.377 . S
N1564 C1563 1.344 . S
O1565 Co1557 2.055 . S
O1565 C1569 1.253 . S
H1566 C1562 0.931 . S
H1567 C1563 0.930 . S
O1568 Co1557 2.039 . S
O1568 C1558 1.265 . S
C1569 O1565 1.253 . S
C1569 O1570 1.227 . S
O1570 C1569 1.227 . S
N1571 Co1557 2.140 . S
N1571 C1574 1.346 . S
N1571 C1575 1.345 . S
C1572 C1573 1.387 . S
C1572 C1576 1.391 . S
C1573 C1572 1.387 . S
C1573 C1574 1.369 . S
C1573 H1582 0.929 . S
C1574 N1571 1.346 . S
C1574 C1573 1.369 . S
C1574 H1577 0.928 . S
C1575 N1571 1.345 . S
C1575 C1576 1.371 . S
C1575 H1578 0.931 . S
C1576 C1572 1.391 . S
C1576 C1575 1.371 . S
C1576 H1583 0.930 . S
H1577 C1574 0.928 . S
H1578 C1575 0.931 . S
H1579 C1555 0.930 . S
H1580 C1552 0.930 . S
H1581 C1561 0.930 . S
H1582 C1573 0.929 . S
H1583 C1576 0.930 . S
C1584 C1585 1.369 . S
C1584 C1586 1.419 . S
C1584 H1588 0.930 . S
C1585 C1584 1.369 . S
C1585 C1594 1.429 . S
C1586 C1584 1.419 . S
C1586 C1587 1.363 . S
C1586 H1589 0.929 1_455 S
C1587 C1586 1.363 . S
C1587 C1593 1.428 . S
H1588 C1584 0.930 . S
H1589 C1586 0.929 1_655 S
S1590 N1591 1.613 . S
S1590 N1592 1.610 . S
N1591 S1590 1.613 . S
N1591 C1594 1.350 . S
N1592 S1590 1.610 . S
N1592 C1593 1.351 . S
C1593 C1587 1.428 . S
C1593 N1592 1.351 . S
C1593 C1594 1.434 . S
C1594 C1585 1.429 . S
C1594 N1591 1.350 . S
C1594 C1593 1.434 . S
C1595 C1596 1.369 . S
C1595 C1597 1.419 . S
C1595 H1599 0.930 . S
C1596 C1595 1.369 . S
C1596 C1605 1.429 . S
C1597 C1595 1.419 . S
C1597 C1598 1.363 . S
C1597 H1600 0.929 . S
C1598 C1597 1.363 . S
C1598 C1604 1.428 . S
H1599 C1595 0.930 . S
H1600 C1597 0.929 . S
S1601 N1602 1.613 . S
S1601 N1603 1.610 . S
N1602 S1601 1.613 . S
N1602 C1605 1.350 . S
N1603 S1601 1.610 . S
N1603 C1604 1.351 . S
C1604 C1598 1.428 . S
C1604 N1603 1.351 . S
C1604 C1605 1.434 . S
C1605 C1596 1.429 . S
C1605 N1602 1.350 . S
C1605 C1604 1.434 . S
C1606 C1607 1.369 . S
C1606 C1608 1.419 . S
C1606 H1610 0.930 . S
C1607 C1606 1.369 . S
C1607 C1616 1.429 . S
C1608 C1606 1.419 . S
C1608 C1609 1.363 . S
C1608 H1611 0.929 . S
C1609 C1608 1.363 . S
C1609 C1615 1.428 . S
H1610 C1606 0.930 . S
H1611 C1608 0.929 . S
S1612 N1613 1.613 . S
S1612 N1614 1.610 . S
N1613 S1612 1.613 . S
N1613 C1616 1.350 . S
N1614 S1612 1.610 . S
N1614 C1615 1.351 . S
C1615 C1609 1.428 . S
C1615 N1614 1.351 . S
C1615 C1616 1.434 . S
C1616 C1607 1.429 . S
C1616 N1613 1.350 . S
C1616 C1615 1.434 . S
C1617 C1618 1.369 . S
C1617 C1619 1.419 . S
C1617 H1621 0.930 . S
C1618 C1617 1.369 . S
C1618 C1627 1.429 . S
C1619 C1617 1.419 . S
C1619 C1620 1.363 . S
C1619 H1622 0.929 . S
C1620 C1619 1.363 . S
C1620 C1626 1.428 . S
H1621 C1617 0.930 . S
H1622 C1619 0.929 . S
S1623 N1624 1.613 . S
S1623 N1625 1.610 . S
N1624 S1623 1.613 . S
N1624 C1627 1.350 . S
N1625 S1623 1.610 . S
N1625 C1626 1.351 . S
C1626 C1620 1.428 . S
C1626 N1625 1.351 . S
C1626 C1627 1.434 . S
C1627 C1618 1.429 . S
C1627 N1624 1.350 . S
C1627 C1626 1.434 . S
C1628 C1629 1.369 . S
C1628 C1630 1.419 . S
C1628 H1632 0.930 . S
C1629 C1628 1.369 . S
C1629 C1638 1.429 . S
C1630 C1628 1.419 . S
C1630 C1631 1.363 . S
C1630 H1633 0.929 . S
C1631 C1630 1.363 . S
C1631 C1637 1.428 . S
H1632 C1628 0.930 . S
H1633 C1630 0.929 . S
S1634 N1635 1.613 . S
S1634 N1636 1.610 . S
N1635 S1634 1.613 . S
N1635 C1638 1.350 . S
N1636 S1634 1.610 . S
N1636 C1637 1.351 . S
C1637 C1631 1.428 . S
C1637 N1636 1.351 . S
C1637 C1638 1.434 . S
C1638 C1629 1.429 . S
C1638 N1635 1.350 . S
C1638 C1637 1.434 . S
C1639 C1640 1.369 . S
C1639 C1641 1.419 . S
C1639 H1643 0.930 1_455 S
C1640 C1639 1.369 . S
C1640 C1649 1.429 . S
C1641 C1639 1.419 . S
C1641 C1642 1.363 . S
C1641 H1644 0.929 . S
C1642 C1641 1.363 . S
C1642 C1648 1.428 . S
H1643 C1639 0.930 1_655 S
H1644 C1641 0.929 . S
S1645 N1646 1.613 . S
S1645 N1647 1.610 . S
N1646 S1645 1.613 . S
N1646 C1649 1.350 . S
N1647 S1645 1.610 . S
N1647 C1648 1.351 . S
C1648 C1642 1.428 . S
C1648 N1647 1.351 . S
C1648 C1649 1.434 . S
C1649 C1640 1.429 . S
C1649 N1646 1.350 . S
C1649 C1648 1.434 . S
C1650 C1651 1.369 . S
C1650 C1652 1.419 . S
C1650 H1654 0.930 . S
C1651 C1650 1.369 . S
C1651 C1660 1.429 . S
C1652 C1650 1.419 . S
C1652 C1653 1.363 . S
C1652 H1655 0.929 1_655 S
C1653 C1652 1.363 . S
C1653 C1659 1.428 . S
H1654 C1650 0.930 . S
H1655 C1652 0.929 1_455 S
S1656 N1657 1.613 . S
S1656 N1658 1.610 . S
N1657 S1656 1.613 . S
N1657 C1660 1.350 . S
N1658 S1656 1.610 . S
N1658 C1659 1.351 . S
C1659 C1653 1.428 . S
C1659 N1658 1.351 . S
C1659 C1660 1.434 . S
C1660 C1651 1.429 . S
C1660 N1657 1.350 . S
C1660 C1659 1.434 . S
C1661 C1662 1.369 . S
C1661 C1663 1.419 . S
C1661 H1665 0.930 . S
C1662 C1661 1.369 . S
C1662 C1671 1.429 . S
C1663 C1661 1.419 . S
C1663 C1664 1.363 . S
C1663 H1666 0.929 . S
C1664 C1663 1.363 . S
C1664 C1670 1.428 . S
H1665 C1661 0.930 . S
H1666 C1663 0.929 . S
S1667 N1668 1.613 1_655 S
S1667 N1669 1.610 . S
N1668 S1667 1.613 1_455 S
N1668 C1671 1.350 1_455 S
N1669 S1667 1.610 . S
N1669 C1670 1.351 . S
C1670 C1664 1.428 . S
C1670 N1669 1.351 . S
C1670 C1671 1.434 . S
C1671 C1662 1.429 . S
C1671 N1668 1.350 1_655 S
C1671 C1670 1.434 . S
C1672 C1673 1.369 . S
C1672 C1674 1.419 . S
C1672 H1676 0.930 . S
C1673 C1672 1.369 . S
C1673 C1682 1.429 . S
C1674 C1672 1.419 . S
C1674 C1675 1.363 . S
C1674 H1677 0.929 . S
C1675 C1674 1.363 . S
C1675 C1681 1.428 . S
H1676 C1672 0.930 . S
H1677 C1674 0.929 . S
S1678 N1679 1.613 . S
S1678 N1680 1.610 . S
N1679 S1678 1.613 . S
N1679 C1682 1.350 . S
N1680 S1678 1.610 . S
N1680 C1681 1.351 . S
C1681 C1675 1.428 . S
C1681 N1680 1.351 . S
C1681 C1682 1.434 . S
C1682 C1673 1.429 . S
C1682 N1679 1.350 . S
C1682 C1681 1.434 . S
C1683 C1684 1.369 . S
C1683 C1685 1.419 . S
C1683 H1687 0.930 . S
C1684 C1683 1.369 . S
C1684 C1693 1.429 . S
C1685 C1683 1.419 . S
C1685 C1686 1.363 . S
C1685 H1688 0.929 . S
C1686 C1685 1.363 . S
C1686 C1692 1.428 . S
H1687 C1683 0.930 . S
H1688 C1685 0.929 . S
S1689 N1690 1.613 . S
S1689 N1691 1.610 . S
N1690 S1689 1.613 . S
N1690 C1693 1.350 . S
N1691 S1689 1.610 . S
N1691 C1692 1.351 . S
C1692 C1686 1.428 . S
C1692 N1691 1.351 . S
C1692 C1693 1.434 . S
C1693 C1684 1.429 . S
C1693 N1690 1.350 . S
C1693 C1692 1.434 . S
C1694 C1695 1.369 . S
C1694 C1696 1.419 . S
C1694 H1698 0.930 . S
C1695 C1694 1.369 . S
C1695 C1704 1.429 . S
C1696 C1694 1.419 . S
C1696 C1697 1.363 . S
C1696 H1699 0.929 . S
C1697 C1696 1.363 . S
C1697 C1703 1.428 . S
H1698 C1694 0.930 . S
H1699 C1696 0.929 . S
S1700 N1701 1.613 . S
S1700 N1702 1.610 . S
N1701 S1700 1.613 . S
N1701 C1704 1.350 . S
N1702 S1700 1.610 . S
N1702 C1703 1.351 . S
C1703 C1697 1.428 . S
C1703 N1702 1.351 . S
C1703 C1704 1.434 . S
C1704 C1695 1.429 . S
C1704 N1701 1.350 . S
C1704 C1703 1.434 . S
C1705 C1706 1.369 . S
C1705 C1707 1.419 . S
C1705 H1709 0.930 . S
C1706 C1705 1.369 . S
C1706 C1715 1.429 . S
C1707 C1705 1.419 . S
C1707 C1708 1.363 . S
C1707 H1710 0.929 . S
C1708 C1707 1.363 . S
C1708 C1714 1.428 . S
H1709 C1705 0.930 . S
H1710 C1707 0.929 . S
S1711 N1712 1.613 . S
S1711 N1713 1.610 . S
N1712 S1711 1.613 . S
N1712 C1715 1.350 . S
N1713 S1711 1.610 . S
N1713 C1714 1.351 . S
C1714 C1708 1.428 . S
C1714 N1713 1.351 . S
C1714 C1715 1.434 . S
C1715 C1706 1.429 . S
C1715 N1712 1.350 . S
C1715 C1714 1.434 . S
C1716 C1717 1.369 . S
C1716 C1718 1.419 . S
C1716 H1720 0.930 . S
C1717 C1716 1.369 . S
C1717 C1726 1.429 . S
C1718 C1716 1.419 . S
C1718 C1719 1.363 . S
C1718 H1721 0.929 . S
C1719 C1718 1.363 . S
C1719 C1725 1.428 . S
H1720 C1716 0.930 . S
H1721 C1718 0.929 . S
S1722 N1723 1.613 . S
S1722 N1724 1.610 . S
N1723 S1722 1.613 . S
N1723 C1726 1.350 . S
N1724 S1722 1.610 . S
N1724 C1725 1.351 . S
C1725 C1719 1.428 . S
C1725 N1724 1.351 . S
C1725 C1726 1.434 . S
C1726 C1717 1.429 . S
C1726 N1723 1.350 . S
C1726 C1725 1.434 . S
C1727 C1728 1.369 . S
C1727 C1729 1.419 . S
C1727 H1731 0.930 . S
C1728 C1727 1.369 . S
C1728 C1737 1.429 . S
C1729 C1727 1.419 . S
C1729 C1730 1.363 . S
C1729 H1732 0.929 . S
C1730 C1729 1.363 . S
C1730 C1736 1.428 . S
H1731 C1727 0.930 . S
H1732 C1729 0.929 . S
S1733 N1734 1.613 . S
S1733 N1735 1.610 . S
N1734 S1733 1.613 . S
N1734 C1737 1.350 . S
N1735 S1733 1.610 . S
N1735 C1736 1.351 . S
C1736 C1730 1.428 . S
C1736 N1735 1.351 . S
C1736 C1737 1.434 . S
C1737 C1728 1.429 . S
C1737 N1734 1.350 . S
C1737 C1736 1.434 . S
C1738 C1739 1.369 . S
C1738 C1740 1.419 . S
C1738 H1742 0.930 . S
C1739 C1738 1.369 . S
C1739 C1748 1.429 . S
C1740 C1738 1.419 . S
C1740 C1741 1.363 . S
C1740 H1743 0.929 . S
C1741 C1740 1.363 . S
C1741 C1747 1.428 . S
H1742 C1738 0.930 . S
H1743 C1740 0.929 . S
S1744 N1745 1.613 . S
S1744 N1746 1.610 . S
N1745 S1744 1.613 . S
N1745 C1748 1.350 . S
N1746 S1744 1.610 . S
N1746 C1747 1.351 . S
C1747 C1741 1.428 . S
C1747 N1746 1.351 . S
C1747 C1748 1.434 . S
C1748 C1739 1.429 . S
C1748 N1745 1.350 . S
C1748 C1747 1.434 . S
C1749 C1750 1.369 . S
C1749 C1751 1.419 . S
C1749 H1753 0.930 . S
C1750 C1749 1.369 . S
C1750 C1759 1.429 . S
C1751 C1749 1.419 . S
C1751 C1752 1.363 . S
C1751 H1754 0.929 . S
C1752 C1751 1.363 . S
C1752 C1758 1.428 . S
H1753 C1749 0.930 . S
H1754 C1751 0.929 . S
S1755 N1756 1.613 . S
S1755 N1757 1.610 . S
N1756 S1755 1.613 . S
N1756 C1759 1.350 . S
N1757 S1755 1.610 . S
N1757 C1758 1.351 . S
C1758 C1752 1.428 . S
C1758 N1757 1.351 . S
C1758 C1759 1.434 . S
C1759 C1750 1.429 . S
C1759 N1756 1.350 . S
C1759 C1758 1.434 . S
C1760 C1761 1.369 . S
C1760 C1762 1.419 . S
C1760 H1764 0.930 . S
C1761 C1760 1.369 . S
C1761 C1770 1.429 . S
C1762 C1760 1.419 . S
C1762 C1763 1.363 . S
C1762 H1765 0.929 . S
C1763 C1762 1.363 . S
C1763 C1769 1.428 . S
H1764 C1760 0.930 . S
H1765 C1762 0.929 . S
S1766 N1767 1.613 . S
S1766 N1768 1.610 . S
N1767 S1766 1.613 . S
N1767 C1770 1.350 . S
N1768 S1766 1.610 . S
N1768 C1769 1.351 . S
C1769 C1763 1.428 . S
C1769 N1768 1.351 . S
C1769 C1770 1.434 . S
C1770 C1761 1.429 . S
C1770 N1767 1.350 . S
C1770 C1769 1.434 . S
C1771 C1772 1.369 . S
C1771 C1773 1.419 . S
C1771 H1775 0.930 . S
C1772 C1771 1.369 . S
C1772 C1781 1.429 . S
C1773 C1771 1.419 . S
C1773 C1774 1.363 . S
C1773 H1776 0.929 . S
C1774 C1773 1.363 . S
C1774 C1780 1.428 . S
H1775 C1771 0.930 . S
H1776 C1773 0.929 . S
S1777 N1778 1.613 . S
S1777 N1779 1.610 . S
N1778 S1777 1.613 . S
N1778 C1781 1.350 . S
N1779 S1777 1.610 . S
N1779 C1780 1.351 . S
C1780 C1774 1.428 . S
C1780 N1779 1.351 . S
C1780 C1781 1.434 . S
C1781 C1772 1.429 . S
C1781 N1778 1.350 . S
C1781 C1780 1.434 . S
C1782 C1783 1.369 . S
C1782 C1784 1.419 . S
C1782 H1786 0.930 . S
C1783 C1782 1.369 . S
C1783 C1792 1.429 . S
C1784 C1782 1.419 . S
C1784 C1785 1.363 . S
C1784 H1787 0.929 . S
C1785 C1784 1.363 . S
C1785 C1791 1.428 . S
H1786 C1782 0.930 . S
H1787 C1784 0.929 . S
S1788 N1789 1.613 . S
S1788 N1790 1.610 . S
N1789 S1788 1.613 . S
N1789 C1792 1.350 . S
N1790 S1788 1.610 . S
N1790 C1791 1.351 . S
C1791 C1785 1.428 . S
C1791 N1790 1.351 . S
C1791 C1792 1.434 . S
C1792 C1783 1.429 . S
C1792 N1789 1.350 . S
C1792 C1791 1.434 . S
C1793 C1794 1.369 . S
C1793 C1795 1.419 . S
C1793 H1797 0.930 . S
C1794 C1793 1.369 . S
C1794 C1803 1.429 . S
C1795 C1793 1.419 . S
C1795 C1796 1.363 . S
C1795 H1798 0.929 . S
C1796 C1795 1.363 . S
C1796 C1802 1.428 . S
H1797 C1793 0.930 . S
H1798 C1795 0.929 . S
S1799 N1800 1.613 . S
S1799 N1801 1.610 . S
N1800 S1799 1.613 . S
N1800 C1803 1.350 . S
N1801 S1799 1.610 . S
N1801 C1802 1.351 . S
C1802 C1796 1.428 . S
C1802 N1801 1.351 . S
C1802 C1803 1.434 . S
C1803 C1794 1.429 . S
C1803 N1800 1.350 . S
C1803 C1802 1.434 . S
C1804 C1805 1.369 . S
C1804 C1806 1.419 . S
C1804 H1808 0.930 . S
C1805 C1804 1.369 . S
C1805 C1814 1.429 . S
C1806 C1804 1.419 . S
C1806 C1807 1.363 . S
C1806 H1809 0.929 . S
C1807 C1806 1.363 . S
C1807 C1813 1.428 . S
H1808 C1804 0.930 . S
H1809 C1806 0.929 . S
S1810 N1811 1.613 . S
S1810 N1812 1.610 . S
N1811 S1810 1.613 . S
N1811 C1814 1.350 . S
N1812 S1810 1.610 . S
N1812 C1813 1.351 . S
C1813 C1807 1.428 . S
C1813 N1812 1.351 . S
C1813 C1814 1.434 . S
C1814 C1805 1.429 . S
C1814 N1811 1.350 . S
C1814 C1813 1.434 . S
C1815 C1816 1.369 . S
C1815 C1817 1.419 . S
C1815 H1819 0.930 . S
C1816 C1815 1.369 . S
C1816 C1825 1.429 . S
C1817 C1815 1.419 . S
C1817 C1818 1.363 . S
C1817 H1820 0.929 . S
C1818 C1817 1.363 . S
C1818 C1824 1.428 . S
H1819 C1815 0.930 . S
H1820 C1817 0.929 . S
S1821 N1822 1.613 . S
S1821 N1823 1.610 . S
N1822 S1821 1.613 . S
N1822 C1825 1.350 . S
N1823 S1821 1.610 . S
N1823 C1824 1.351 . S
C1824 C1818 1.428 . S
C1824 N1823 1.351 . S
C1824 C1825 1.434 . S
C1825 C1816 1.429 . S
C1825 N1822 1.350 . S
C1825 C1824 1.434 . S
C1826 C1827 1.369 . S
C1826 C1828 1.419 . S
C1826 H1830 0.930 . S
C1827 C1826 1.369 . S
C1827 C1836 1.429 . S
C1828 C1826 1.419 . S
C1828 C1829 1.363 . S
C1828 H1831 0.929 . S
C1829 C1828 1.363 . S
C1829 C1835 1.428 . S
H1830 C1826 0.930 . S
H1831 C1828 0.929 . S
S1832 N1833 1.613 . S
S1832 N1834 1.610 . S
N1833 S1832 1.613 . S
N1833 C1836 1.350 . S
N1834 S1832 1.610 . S
N1834 C1835 1.351 . S
C1835 C1829 1.428 . S
C1835 N1834 1.351 . S
C1835 C1836 1.434 . S
C1836 C1827 1.429 . S
C1836 N1833 1.350 . S
C1836 C1835 1.434 . S
C1837 C1838 1.369 . S
C1837 C1839 1.419 . S
C1837 H1841 0.930 . S
C1838 C1837 1.369 . S
C1838 C1847 1.429 . S
C1839 C1837 1.419 . S
C1839 C1840 1.363 . S
C1839 H1842 0.929 . S
C1840 C1839 1.363 . S
C1840 C1846 1.428 . S
H1841 C1837 0.930 . S
H1842 C1839 0.929 . S
S1843 N1844 1.613 . S
S1843 N1845 1.610 . S
N1844 S1843 1.613 . S
N1844 C1847 1.350 . S
N1845 S1843 1.610 . S
N1845 C1846 1.351 . S
C1846 C1840 1.428 . S
C1846 N1845 1.351 . S
C1846 C1847 1.434 . S
C1847 C1838 1.429 . S
C1847 N1844 1.350 . S
C1847 C1846 1.434 . S
C1848 C1849 1.369 . S
C1848 C1850 1.419 . S
C1848 H1852 0.930 . S
C1849 C1848 1.369 . S
C1849 C1858 1.429 . S
C1850 C1848 1.419 . S
C1850 C1851 1.363 . S
C1850 H1853 0.929 . S
C1851 C1850 1.363 . S
C1851 C1857 1.428 . S
H1852 C1848 0.930 . S
H1853 C1850 0.929 . S
S1854 N1855 1.613 . S
S1854 N1856 1.610 . S
N1855 S1854 1.613 . S
N1855 C1858 1.350 . S
N1856 S1854 1.610 . S
N1856 C1857 1.351 . S
C1857 C1851 1.428 . S
C1857 N1856 1.351 . S
C1857 C1858 1.434 . S
C1858 C1849 1.429 . S
C1858 N1855 1.350 . S
C1858 C1857 1.434 . S
C1859 C1860 1.369 . S
C1859 C1861 1.419 . S
C1859 H1863 0.930 . S
C1860 C1859 1.369 . S
C1860 C1869 1.429 . S
C1861 C1859 1.419 . S
C1861 C1862 1.363 . S
C1861 H1864 0.929 1_655 S
C1862 C1861 1.363 . S
C1862 C1868 1.428 . S
H1863 C1859 0.930 . S
H1864 C1861 0.929 1_455 S
S1865 N1866 1.613 . S
S1865 N1867 1.610 . S
N1866 S1865 1.613 . S
N1866 C1869 1.350 . S
N1867 S1865 1.610 . S
N1867 C1868 1.351 . S
C1868 C1862 1.428 . S
C1868 N1867 1.351 . S
C1868 C1869 1.434 . S
C1869 C1860 1.429 . S
C1869 N1866 1.350 . S
C1869 C1868 1.434 . S
C1870 C1871 1.369 . S
C1870 C1872 1.419 . S
C1870 H1874 0.930 . S
C1871 C1870 1.369 . S
C1871 C1880 1.429 . S
C1872 C1870 1.419 . S
C1872 C1873 1.363 . S
C1872 H1875 0.929 . S
C1873 C1872 1.363 . S
C1873 C1879 1.428 . S
H1874 C1870 0.930 . S
H1875 C1872 0.929 . S
S1876 N1877 1.613 . S
S1876 N1878 1.610 . S
N1877 S1876 1.613 . S
N1877 C1880 1.350 . S
N1878 S1876 1.610 . S
N1878 C1879 1.351 . S
C1879 C1873 1.428 . S
C1879 N1878 1.351 . S
C1879 C1880 1.434 . S
C1880 C1871 1.429 . S
C1880 N1877 1.350 . S
C1880 C1879 1.434 . S
C1881 C1882 1.369 . S
C1881 C1883 1.419 . S
C1881 H1885 0.930 . S
C1882 C1881 1.369 . S
C1882 C1891 1.429 . S
C1883 C1881 1.419 . S
C1883 C1884 1.363 . S
C1883 H1886 0.929 . S
C1884 C1883 1.363 . S
C1884 C1890 1.428 . S
H1885 C1881 0.930 . S
H1886 C1883 0.929 . S
S1887 N1888 1.613 . S
S1887 N1889 1.610 1_655 S
N1888 S1887 1.613 . S
N1888 C1891 1.350 1_655 S
N1889 S1887 1.610 1_455 S
N1889 C1890 1.351 . S
C1890 C1884 1.428 . S
C1890 N1889 1.351 . S
C1890 C1891 1.434 . S
C1891 C1882 1.429 . S
C1891 N1888 1.350 1_455 S
C1891 C1890 1.434 . S
C1892 C1893 1.369 . S
C1892 C1894 1.419 . S
C1892 H1896 0.930 . S
C1893 C1892 1.369 . S
C1893 C1902 1.429 . S
C1894 C1892 1.419 . S
C1894 C1895 1.363 . S
C1894 H1897 0.929 . S
C1895 C1894 1.363 . S
C1895 C1901 1.428 . S
H1896 C1892 0.930 . S
H1897 C1894 0.929 . S
S1898 N1899 1.613 . S
S1898 N1900 1.610 . S
N1899 S1898 1.613 . S
N1899 C1902 1.350 . S
N1900 S1898 1.610 . S
N1900 C1901 1.351 . S
C1901 C1895 1.428 . S
C1901 N1900 1.351 . S
C1901 C1902 1.434 . S
C1902 C1893 1.429 . S
C1902 N1899 1.350 . S
C1902 C1901 1.434 . S
C1903 C1904 1.369 . S
C1903 C1905 1.419 . S
C1903 H1907 0.930 . S
C1904 C1903 1.369 . S
C1904 C1913 1.429 . S
C1905 C1903 1.419 . S
C1905 C1906 1.363 . S
C1905 H1908 0.929 . S
C1906 C1905 1.363 . S
C1906 C1912 1.428 . S
H1907 C1903 0.930 . S
H1908 C1905 0.929 . S
S1909 N1910 1.613 . S
S1909 N1911 1.610 . S
N1910 S1909 1.613 . S
N1910 C1913 1.350 . S
N1911 S1909 1.610 . S
N1911 C1912 1.351 . S
C1912 C1906 1.428 . S
C1912 N1911 1.351 . S
C1912 C1913 1.434 . S
C1913 C1904 1.429 . S
C1913 N1910 1.350 . S
C1913 C1912 1.434 . S
C1914 C1915 1.369 . S
C1914 C1916 1.419 . S
C1914 H1918 0.930 . S
C1915 C1914 1.369 . S
C1915 C1924 1.429 . S
C1916 C1914 1.419 . S
C1916 C1917 1.363 . S
C1916 H1919 0.929 . S
C1917 C1916 1.363 . S
C1917 C1923 1.428 . S
H1918 C1914 0.930 . S
H1919 C1916 0.929 . S
S1920 N1921 1.613 . S
S1920 N1922 1.610 . S
N1921 S1920 1.613 . S
N1921 C1924 1.350 . S
N1922 S1920 1.610 . S
N1922 C1923 1.351 . S
C1923 C1917 1.428 . S
C1923 N1922 1.351 . S
C1923 C1924 1.434 . S
C1924 C1915 1.429 . S
C1924 N1921 1.350 . S
C1924 C1923 1.434 . S
C1925 C1926 1.369 . S
C1925 C1927 1.419 . S
C1925 H1929 0.930 . S
C1926 C1925 1.369 . S
C1926 C1935 1.429 . S
C1927 C1925 1.419 . S
C1927 C1928 1.363 . S
C1927 H1930 0.929 . S
C1928 C1927 1.363 . S
C1928 C1934 1.428 . S
H1929 C1925 0.930 . S
H1930 C1927 0.929 . S
S1931 N1932 1.613 . S
S1931 N1933 1.610 . S
N1932 S1931 1.613 . S
N1932 C1935 1.350 . S
N1933 S1931 1.610 . S
N1933 C1934 1.351 . S
C1934 C1928 1.428 . S
C1934 N1933 1.351 . S
C1934 C1935 1.434 . S
C1935 C1926 1.429 . S
C1935 N1932 1.350 . S
C1935 C1934 1.434 . S
C1936 C1937 1.369 . S
C1936 C1938 1.419 . S
C1936 H1940 0.930 . S
C1937 C1936 1.369 . S
C1937 C1946 1.429 . S
C1938 C1936 1.419 . S
C1938 C1939 1.363 . S
C1938 H1941 0.929 . S
C1939 C1938 1.363 . S
C1939 C1945 1.428 . S
H1940 C1936 0.930 . S
H1941 C1938 0.929 . S
S1942 N1943 1.613 . S
S1942 N1944 1.610 . S
N1943 S1942 1.613 . S
N1943 C1946 1.350 . S
N1944 S1942 1.610 . S
N1944 C1945 1.351 . S
C1945 C1939 1.428 . S
C1945 N1944 1.351 . S
C1945 C1946 1.434 . S
C1946 C1937 1.429 . S
C1946 N1943 1.350 . S
C1946 C1945 1.434 . S
C1947 C1948 1.369 . S
C1947 C1949 1.419 . S
C1947 H1951 0.930 . S
C1948 C1947 1.369 . S
C1948 C1957 1.429 . S
C1949 C1947 1.419 . S
C1949 C1950 1.363 . S
C1949 H1952 0.929 . S
C1950 C1949 1.363 . S
C1950 C1956 1.428 . S
H1951 C1947 0.930 . S
H1952 C1949 0.929 . S
S1953 N1954 1.613 . S
S1953 N1955 1.610 . S
N1954 S1953 1.613 . S
N1954 C1957 1.350 . S
N1955 S1953 1.610 . S
N1955 C1956 1.351 . S
C1956 C1950 1.428 . S
C1956 N1955 1.351 . S
C1956 C1957 1.434 . S
C1957 C1948 1.429 . S
C1957 N1954 1.350 . S
C1957 C1956 1.434 . S
C1958 C1959 1.369 . S
C1958 C1960 1.419 . S
C1958 H1962 0.930 1_565 S
C1959 C1958 1.369 . S
C1959 C1968 1.429 . S
C1960 C1958 1.419 . S
C1960 C1961 1.363 . S
C1960 H1963 0.929 . S
C1961 C1960 1.363 . S
C1961 C1967 1.428 . S
H1962 C1958 0.930 1_545 S
H1963 C1960 0.929 . S
S1964 N1965 1.613 . S
S1964 N1966 1.610 . S
N1965 S1964 1.613 . S
N1965 C1968 1.350 . S
N1966 S1964 1.610 . S
N1966 C1967 1.351 . S
C1967 C1961 1.428 . S
C1967 N1966 1.351 . S
C1967 C1968 1.434 . S
C1968 C1959 1.429 . S
C1968 N1965 1.350 . S
C1968 C1967 1.434 . S
C1969 C1970 1.369 . S
C1969 C1971 1.419 . S
C1969 H1973 0.930 . S
C1970 C1969 1.369 . S
C1970 C1979 1.429 . S
C1971 C1969 1.419 . S
C1971 C1972 1.363 . S
C1971 H1974 0.929 . S
C1972 C1971 1.363 . S
C1972 C1978 1.428 . S
H1973 C1969 0.930 . S
H1974 C1971 0.929 . S
S1975 N1976 1.613 . S
S1975 N1977 1.610 . S
N1976 S1975 1.613 . S
N1976 C1979 1.350 . S
N1977 S1975 1.610 . S
N1977 C1978 1.351 . S
C1978 C1972 1.428 . S
C1978 N1977 1.351 . S
C1978 C1979 1.434 . S
C1979 C1970 1.429 . S
C1979 N1976 1.350 . S
C1979 C1978 1.434 . S
C1980 C1981 1.369 . S
C1980 C1982 1.419 . S
C1980 H1984 0.930 . S
C1981 C1980 1.369 . S
C1981 C1990 1.429 . S
C1982 C1980 1.419 . S
C1982 C1983 1.363 . S
C1982 H1985 0.929 . S
C1983 C1982 1.363 . S
C1983 C1989 1.428 . S
H1984 C1980 0.930 . S
H1985 C1982 0.929 . S
S1986 N1987 1.613 . S
S1986 N1988 1.610 . S
N1987 S1986 1.613 . S
N1987 C1990 1.350 . S
N1988 S1986 1.610 . S
N1988 C1989 1.351 . S
C1989 C1983 1.428 . S
C1989 N1988 1.351 . S
C1989 C1990 1.434 . S
C1990 C1981 1.429 . S
C1990 N1987 1.350 . S
C1990 C1989 1.434 . S
C1991 C1992 1.369 . S
C1991 C1993 1.419 . S
C1991 H1995 0.930 . S
C1992 C1991 1.369 . S
C1992 C2001 1.429 . S
C1993 C1991 1.419 . S
C1993 C1994 1.363 . S
C1993 H1996 0.929 . S
C1994 C1993 1.363 . S
C1994 C2000 1.428 . S
H1995 C1991 0.930 . S
H1996 C1993 0.929 . S
S1997 N1998 1.613 . S
S1997 N1999 1.610 . S
N1998 S1997 1.613 . S
N1998 C2001 1.350 . S
N1999 S1997 1.610 . S
N1999 C2000 1.351 . S
C2000 C1994 1.428 . S
C2000 N1999 1.351 . S
C2000 C2001 1.434 . S
C2001 C1992 1.429 . S
C2001 N1998 1.350 . S
C2001 C2000 1.434 . S
C2002 C2003 1.369 . S
C2002 C2004 1.419 . S
C2002 H2006 0.930 . S
C2003 C2002 1.369 . S
C2003 C2012 1.429 . S
C2004 C2002 1.419 . S
C2004 C2005 1.363 . S
C2004 H2007 0.929 . S
C2005 C2004 1.363 . S
C2005 C2011 1.428 . S
H2006 C2002 0.930 . S
H2007 C2004 0.929 . S
S2008 N2009 1.613 . S
S2008 N2010 1.610 1_565 S
N2009 S2008 1.613 . S
N2009 C2012 1.350 1_565 S
N2010 S2008 1.610 1_545 S
N2010 C2011 1.351 . S
C2011 C2005 1.428 . S
C2011 N2010 1.351 . S
C2011 C2012 1.434 . S
C2012 C2003 1.429 . S
C2012 N2009 1.350 1_545 S
C2012 C2011 1.434 . S
C2013 C2014 1.369 . S
C2013 C2015 1.419 . S
C2013 H2017 0.930 . S
C2014 C2013 1.369 . S
C2014 C2023 1.429 . S
C2015 C2013 1.419 . S
C2015 C2016 1.363 . S
C2015 H2018 0.929 . S
C2016 C2015 1.363 . S
C2016 C2022 1.428 . S
H2017 C2013 0.930 . S
H2018 C2015 0.929 . S
S2019 N2020 1.613 . S
S2019 N2021 1.610 . S
N2020 S2019 1.613 . S
N2020 C2023 1.350 . S
N2021 S2019 1.610 . S
N2021 C2022 1.351 . S
C2022 C2016 1.428 . S
C2022 N2021 1.351 . S
C2022 C2023 1.434 . S
C2023 C2014 1.429 . S
C2023 N2020 1.350 . S
C2023 C2022 1.434 . S
C2024 C2025 1.369 . S
C2024 C2026 1.419 . S
C2024 H2028 0.930 . S
C2025 C2024 1.369 . S
C2025 C2034 1.429 . S
C2026 C2024 1.419 . S
C2026 C2027 1.363 . S
C2026 H2029 0.929 . S
C2027 C2026 1.363 . S
C2027 C2033 1.428 . S
H2028 C2024 0.930 . S
H2029 C2026 0.929 . S
S2030 N2031 1.613 . S
S2030 N2032 1.610 . S
N2031 S2030 1.613 . S
N2031 C2034 1.350 . S
N2032 S2030 1.610 . S
N2032 C2033 1.351 . S
C2033 C2027 1.428 . S
C2033 N2032 1.351 . S
C2033 C2034 1.434 . S
C2034 C2025 1.429 . S
C2034 N2031 1.350 . S
C2034 C2033 1.434 . S
C2035 C2036 1.369 . S
C2035 C2037 1.419 . S
C2035 H2039 0.930 . S
C2036 C2035 1.369 . S
C2036 C2045 1.429 . S
C2037 C2035 1.419 . S
C2037 C2038 1.363 . S
C2037 H2040 0.929 . S
C2038 C2037 1.363 . S
C2038 C2044 1.428 . S
H2039 C2035 0.930 . S
H2040 C2037 0.929 . S
S2041 N2042 1.613 1_556 S
S2041 N2043 1.610 . S
N2042 S2041 1.613 1_554 S
N2042 C2045 1.350 1_554 S
N2043 S2041 1.610 . S
N2043 C2044 1.351 . S
C2044 C2038 1.428 . S
C2044 N2043 1.351 . S
C2044 C2045 1.434 . S
C2045 C2036 1.429 . S
C2045 N2042 1.350 1_556 S
C2045 C2044 1.434 . S
C2046 C2047 1.369 . S
C2046 C2048 1.419 . S
C2046 H2050 0.930 . S
C2047 C2046 1.369 . S
C2047 C2056 1.429 . S
C2048 C2046 1.419 . S
C2048 C2049 1.363 . S
C2048 H2051 0.929 . S
C2049 C2048 1.363 . S
C2049 C2055 1.428 . S
H2050 C2046 0.930 . S
H2051 C2048 0.929 . S
S2052 N2053 1.613 . S
S2052 N2054 1.610 . S
N2053 S2052 1.613 . S
N2053 C2056 1.350 . S
N2054 S2052 1.610 . S
N2054 C2055 1.351 . S
C2055 C2049 1.428 . S
C2055 N2054 1.351 . S
C2055 C2056 1.434 . S
C2056 C2047 1.429 . S
C2056 N2053 1.350 . S
C2056 C2055 1.434 . S
C2057 C2058 1.369 . S
C2057 C2059 1.419 . S
C2057 H2061 0.930 . S
C2058 C2057 1.369 . S
C2058 C2067 1.429 . S
C2059 C2057 1.419 . S
C2059 C2060 1.363 . S
C2059 H2062 0.929 1_556 S
C2060 C2059 1.363 . S
C2060 C2066 1.428 . S
H2061 C2057 0.930 . S
H2062 C2059 0.929 1_554 S
S2063 N2064 1.613 . S
S2063 N2065 1.610 . S
N2064 S2063 1.613 . S
N2064 C2067 1.350 . S
N2065 S2063 1.610 . S
N2065 C2066 1.351 . S
C2066 C2060 1.428 . S
C2066 N2065 1.351 . S
C2066 C2067 1.434 . S
C2067 C2058 1.429 . S
C2067 N2064 1.350 . S
C2067 C2066 1.434 . S
C2068 C2069 1.369 . S
C2068 C2070 1.419 . S
C2068 H2072 0.930 . S
C2069 C2068 1.369 . S
C2069 C2078 1.429 . S
C2070 C2068 1.419 . S
C2070 C2071 1.363 . S
C2070 H2073 0.929 . S
C2071 C2070 1.363 . S
C2071 C2077 1.428 . S
H2072 C2068 0.930 . S
H2073 C2070 0.929 . S
S2074 N2075 1.613 . S
S2074 N2076 1.610 . S
N2075 S2074 1.613 . S
N2075 C2078 1.350 . S
N2076 S2074 1.610 . S
N2076 C2077 1.351 . S
C2077 C2071 1.428 . S
C2077 N2076 1.351 . S
C2077 C2078 1.434 . S
C2078 C2069 1.429 . S
C2078 N2075 1.350 . S
C2078 C2077 1.434 . S
C2079 C2080 1.369 . S
C2079 C2081 1.419 . S
C2079 H2083 0.930 1_554 S
C2080 C2079 1.369 . S
C2080 C2089 1.429 . S
C2081 C2079 1.419 . S
C2081 C2082 1.363 . S
C2081 H2084 0.929 . S
C2082 C2081 1.363 . S
C2082 C2088 1.428 . S
H2083 C2079 0.930 1_556 S
H2084 C2081 0.929 . S
S2085 N2086 1.613 . S
S2085 N2087 1.610 . S
N2086 S2085 1.613 . S
N2086 C2089 1.350 . S
N2087 S2085 1.610 . S
N2087 C2088 1.351 . S
C2088 C2082 1.428 . S
C2088 N2087 1.351 . S
C2088 C2089 1.434 . S
C2089 C2080 1.429 . S
C2089 N2086 1.350 . S
C2089 C2088 1.434 . S
C2090 C2091 1.369 . S
C2090 C2092 1.419 . S
C2090 H2094 0.930 . S
C2091 C2090 1.369 . S
C2091 C2100 1.429 . S
C2092 C2090 1.419 . S
C2092 C2093 1.363 . S
C2092 H2095 0.929 . S
C2093 C2092 1.363 . S
C2093 C2099 1.428 . S
H2094 C2090 0.930 . S
H2095 C2092 0.929 . S
S2096 N2097 1.613 . S
S2096 N2098 1.610 . S
N2097 S2096 1.613 . S
N2097 C2100 1.350 . S
N2098 S2096 1.610 . S
N2098 C2099 1.351 . S
C2099 C2093 1.428 . S
C2099 N2098 1.351 . S
C2099 C2100 1.434 . S
C2100 C2091 1.429 . S
C2100 N2097 1.350 . S
C2100 C2099 1.434 . S
C2101 C2102 1.369 . S
C2101 C2103 1.419 . S
C2101 H2105 0.930 . S
C2102 C2101 1.369 . S
C2102 C2111 1.429 . S
C2103 C2101 1.419 . S
C2103 C2104 1.363 . S
C2103 H2106 0.929 . S
C2104 C2103 1.363 . S
C2104 C2110 1.428 . S
H2105 C2101 0.930 . S
H2106 C2103 0.929 . S
S2107 N2108 1.613 . S
S2107 N2109 1.610 . S
N2108 S2107 1.613 . S
N2108 C2111 1.350 . S
N2109 S2107 1.610 . S
N2109 C2110 1.351 . S
C2110 C2104 1.428 . S
C2110 N2109 1.351 . S
C2110 C2111 1.434 . S
C2111 C2102 1.429 . S
C2111 N2108 1.350 . S
C2111 C2110 1.434 . S
C2112 C2113 1.369 1_655 S
C2112 C2114 1.419 1_545 S
C2112 H2116 0.930 . S
C2113 C2112 1.369 1_455 S
C2113 C2122 1.429 . S
C2114 C2112 1.419 1_565 S
C2114 C2115 1.363 1_655 S
C2114 H2117 0.929 . S
C2115 C2114 1.363 1_455 S
C2115 C2121 1.428 . S
H2116 C2112 0.930 . S
H2117 C2114 0.929 . S
S2118 N2119 1.613 . S
S2118 N2120 1.610 1_545 S
N2119 S2118 1.613 . S
N2119 C2122 1.350 . S
N2120 S2118 1.610 1_565 S
N2120 C2121 1.351 . S
C2121 C2115 1.428 . S
C2121 N2120 1.351 . S
C2121 C2122 1.434 1_565 S
C2122 C2113 1.429 . S
C2122 N2119 1.350 . S
C2122 C2121 1.434 1_545 S
C2123 C2124 1.369 . S
C2123 C2125 1.419 1_556 S
C2123 H2127 0.930 . S
C2124 C2123 1.369 . S
C2124 C2133 1.429 . S
C2125 C2123 1.419 1_554 S
C2125 C2126 1.363 . S
C2125 H2128 0.929 . S
C2126 C2125 1.363 . S
C2126 C2132 1.428 . S
H2127 C2123 0.930 . S
H2128 C2125 0.929 . S
S2129 N2130 1.613 . S
S2129 N2131 1.615 . S
N2130 S2129 1.613 . S
N2130 C2133 1.350 . S
N2131 S2129 1.615 . S
N2131 C2132 1.350 1_556 S
C2132 C2126 1.428 . S
C2132 N2131 1.350 1_554 S
C2132 C2133 1.434 1_554 S
C2133 C2124 1.429 . S
C2133 N2130 1.350 . S
C2133 C2132 1.434 1_556 S
C2134 C2135 1.369 . S
C2134 C2136 1.419 . S
C2134 H2138 0.930 . S
C2135 C2134 1.369 . S
C2135 C2144 1.429 1_655 S
C2136 C2134 1.419 . S
C2136 C2137 1.363 . S
C2136 H2139 0.929 . S
C2137 C2136 1.363 . S
C2137 C2143 1.428 1_655 S
H2138 C2134 0.930 . S
H2139 C2136 0.929 . S
S2140 N2141 1.613 . S
S2140 N2142 1.610 . S
N2141 S2140 1.613 . S
N2141 C2144 1.350 . S
N2142 S2140 1.610 . S
N2142 C2143 1.351 . S
C2143 C2137 1.428 1_455 S
C2143 N2142 1.351 . S
C2143 C2144 1.434 . S
C2144 C2135 1.429 1_455 S
C2144 N2141 1.350 . S
C2144 C2143 1.434 . S
C2145 C2146 1.369 1_556 S
C2145 C2147 1.419 . S
C2145 H2149 0.930 . S
C2146 C2145 1.369 1_554 S
C2146 C2155 1.429 . S
C2147 C2145 1.419 . S
C2147 C2148 1.363 . S
C2147 H2150 0.929 . S
C2148 C2147 1.363 . S
C2148 C2154 1.428 1_556 S
H2149 C2145 0.930 . S
H2150 C2147 0.929 . S
S2151 N2152 1.613 . S
S2151 N2153 1.610 . S
N2152 S2151 1.613 . S
N2152 C2155 1.350 . S
N2153 S2151 1.610 . S
N2153 C2154 1.351 . S
C2154 C2148 1.428 1_554 S
C2154 N2153 1.351 . S
C2154 C2155 1.434 . S
C2155 C2146 1.429 . S
C2155 N2152 1.350 . S
C2155 C2154 1.434 . S
C2156 C2157 1.369 . S
C2156 C2158 1.419 1_556 S
C2156 H2160 0.930 . S
C2157 C2156 1.369 . S
C2157 C2166 1.429 1_545 S
C2158 C2156 1.419 1_554 S
C2158 C2159 1.363 . S
C2158 H2161 0.929 . S
C2159 C2158 1.363 . S
C2159 C2165 1.428 1_545 S
H2160 C2156 0.930 . S
H2161 C2158 0.929 . S
S2162 N2163 1.613 1_554 S
S2162 N2164 1.610 . S
N2163 S2162 1.613 1_556 S
N2163 C2166 1.350 . S
N2164 S2162 1.610 . S
N2164 C2165 1.351 . S
C2165 C2159 1.428 1_565 S
C2165 N2164 1.351 . S
C2165 C2166 1.434 1_554 S
C2166 C2157 1.429 1_565 S
C2166 N2163 1.350 . S
C2166 C2165 1.434 1_556 S
C2167 C2168 1.369 . S
C2167 C2169 1.419 . S
C2167 H2171 0.930 . S
C2168 C2167 1.369 . S
C2168 C2177 1.429 . S
C2169 C2167 1.419 . S
C2169 C2170 1.363 . S
C2169 H2172 0.929 . S
C2170 C2169 1.363 . S
C2170 C2176 1.428 . S
H2171 C2167 0.930 . S
H2172 C2169 0.929 . S
S2173 N2174 1.613 . S
S2173 N2175 1.610 . S
N2174 S2173 1.613 . S
N2174 C2177 1.350 . S
N2175 S2173 1.610 . S
N2175 C2176 1.351 . S
C2176 C2170 1.428 . S
C2176 N2175 1.351 . S
C2176 C2177 1.434 . S
C2177 C2168 1.429 . S
C2177 N2174 1.350 . S
C2177 C2176 1.434 . S
C2178 C2179 1.369 . S
C2178 C2180 1.419 1_556 S
C2178 H2182 0.930 . S
C2179 C2178 1.369 . S
C2179 C2188 1.429 . S
C2180 C2178 1.419 1_554 S
C2180 C2181 1.363 . S
C2180 H2183 0.929 . S
C2181 C2180 1.363 . S
C2181 C2187 1.428 . S
H2182 C2178 0.930 . S
H2183 C2180 0.929 . S
S2184 N2185 1.613 1_554 S
S2184 N2186 1.610 . S
N2185 S2184 1.613 1_556 S
N2185 C2188 1.350 . S
N2186 S2184 1.610 . S
N2186 C2187 1.351 . S
C2187 C2181 1.428 . S
C2187 N2186 1.351 . S
C2187 C2188 1.434 1_554 S
C2188 C2179 1.429 . S
C2188 N2185 1.350 . S
C2188 C2187 1.434 1_556 S
C2189 C2190 1.369 . S
C2189 C2191 1.419 . S
C2189 H2193 0.930 . S
C2190 C2189 1.369 . S
C2190 C2199 1.429 1_545 S
C2191 C2189 1.419 . S
C2191 C2192 1.363 1_545 S
C2191 H2194 0.929 . S
C2192 C2191 1.363 1_565 S
C2192 C2198 1.428 . S
H2193 C2189 0.930 . S
H2194 C2191 0.929 . S
S2195 N2196 1.613 . S
S2195 N2197 1.610 . S
N2196 S2195 1.613 . S
N2196 C2199 1.350 . S
N2197 S2195 1.610 . S
N2197 C2198 1.351 . S
C2198 C2192 1.428 . S
C2198 N2197 1.351 . S
C2198 C2199 1.434 . S
C2199 C2190 1.429 1_565 S
C2199 N2196 1.350 . S
C2199 C2198 1.434 . S
C2200 C2201 1.369 . S
C2200 C2202 1.419 . S
C2200 H2204 0.930 . S
C2201 C2200 1.369 . S
C2201 C2210 1.429 1_565 S
C2202 C2200 1.419 . S
C2202 C2203 1.363 . S
C2202 H2205 0.929 . S
C2203 C2202 1.363 . S
C2203 C2209 1.428 1_565 S
H2204 C2200 0.930 . S
H2205 C2202 0.929 . S
S2206 N2207 1.613 . S
S2206 N2208 1.610 . S
N2207 S2206 1.613 . S
N2207 C2210 1.350 . S
N2208 S2206 1.610 . S
N2208 C2209 1.351 . S
C2209 C2203 1.428 1_545 S
C2209 N2208 1.351 . S
C2209 C2210 1.434 . S
C2210 C2201 1.429 1_545 S
C2210 N2207 1.350 . S
C2210 C2209 1.434 . S
C2211 C2212 1.369 . S
C2211 C2213 1.419 . S
C2211 H2215 0.930 . S
C2212 C2211 1.369 . S
C2212 C2221 1.429 . S
C2213 C2211 1.419 . S
C2213 C2214 1.363 . S
C2213 H2216 0.929 . S
C2214 C2213 1.363 . S
C2214 C2220 1.428 . S
H2215 C2211 0.930 . S
H2216 C2213 0.929 . S
S2217 N2218 1.613 . S
S2217 N2219 1.610 . S
N2218 S2217 1.613 . S
N2218 C2221 1.350 . S
N2219 S2217 1.610 . S
N2219 C2220 1.351 . S
C2220 C2214 1.428 . S
C2220 N2219 1.351 . S
C2220 C2221 1.434 . S
C2221 C2212 1.429 . S
C2221 N2218 1.350 . S
C2221 C2220 1.434 . S
C2222 C2223 1.369 . S
C2222 C2224 1.419 . S
C2222 H2226 0.930 . S
C2223 C2222 1.369 . S
C2223 C2232 1.429 . S
C2224 C2222 1.419 . S
C2224 C2225 1.363 . S
C2224 H2227 0.929 . S
C2225 C2224 1.363 . S
C2225 C2231 1.428 . S
H2226 C2222 0.930 . S
H2227 C2224 0.929 . S
S2228 N2229 1.613 . S
S2228 N2230 1.610 . S
N2229 S2228 1.613 . S
N2229 C2232 1.350 . S
N2230 S2228 1.610 . S
N2230 C2231 1.351 . S
C2231 C2225 1.428 . S
C2231 N2230 1.351 . S
C2231 C2232 1.434 . S
C2232 C2223 1.429 . S
C2232 N2229 1.350 . S
C2232 C2231 1.434 . S
C2233 C2234 1.369 . S
C2233 C2235 1.419 . S
C2233 H2237 0.930 . S
C2234 C2233 1.369 . S
C2234 C2243 1.429 1_545 S
C2235 C2233 1.419 . S
C2235 C2236 1.363 1_545 S
C2235 H2238 0.929 . S
C2236 C2235 1.363 1_565 S
C2236 C2242 1.428 . S
H2237 C2233 0.930 . S
H2238 C2235 0.929 . S
S2239 N2240 1.613 . S
S2239 N2241 1.610 . S
N2240 S2239 1.613 . S
N2240 C2243 1.350 . S
N2241 S2239 1.610 . S
N2241 C2242 1.351 . S
C2242 C2236 1.428 . S
C2242 N2241 1.351 . S
C2242 C2243 1.434 . S
C2243 C2234 1.429 1_565 S
C2243 N2240 1.350 . S
C2243 C2242 1.434 . S
C2244 C2245 1.369 1_556 S
C2244 C2246 1.419 1_655 S
C2244 H2248 0.930 . S
C2245 C2244 1.369 1_554 S
C2245 C2254 1.429 . S
C2246 C2244 1.419 1_455 S
C2246 C2247 1.363 1_556 S
C2246 H2249 0.929 . S
C2247 C2246 1.363 1_554 S
C2247 C2253 1.428 . S
H2248 C2244 0.930 . S
H2249 C2246 0.929 . S
S2250 N2251 1.613 . S
S2250 N2252 1.610 1_655 S
N2251 S2250 1.613 . S
N2251 C2254 1.350 . S
N2252 S2250 1.610 1_455 S
N2252 C2253 1.351 . S
C2253 C2247 1.428 . S
C2253 N2252 1.351 . S
C2253 C2254 1.434 1_455 S
C2254 C2245 1.429 . S
C2254 N2251 1.350 . S
C2254 C2253 1.434 1_655 S
C2255 C2256 1.369 . S
C2255 C2257 1.419 1_655 S
C2255 H2259 0.930 . S
C2256 C2255 1.369 . S
C2256 C2265 1.429 . S
C2257 C2255 1.419 1_455 S
C2257 C2258 1.363 . S
C2257 H2260 0.929 . S
C2258 C2257 1.363 . S
C2258 C2264 1.428 . S
H2259 C2255 0.930 . S
H2260 C2257 0.929 . S
S2261 N2262 1.613 . S
S2261 N2263 1.610 1_655 S
N2262 S2261 1.613 . S
N2262 C2265 1.350 . S
N2263 S2261 1.610 1_455 S
N2263 C2264 1.351 . S
C2264 C2258 1.428 . S
C2264 N2263 1.351 . S
C2264 C2265 1.434 1_455 S
C2265 C2256 1.429 . S
C2265 N2262 1.350 . S
C2265 C2264 1.434 1_655 S
C2266 C2267 1.369 . S
C2266 C2268 1.419 . S
C2266 H2270 0.930 . S
C2267 C2266 1.369 . S
C2267 C2276 1.429 1_455 S
C2268 C2266 1.419 . S
C2268 C2269 1.363 1_455 S
C2268 H2271 0.929 . S
C2269 C2268 1.363 1_655 S
C2269 C2275 1.428 . S
H2270 C2266 0.930 . S
H2271 C2268 0.929 . S
S2272 N2273 1.613 . S
S2272 N2274 1.610 . S
N2273 S2272 1.613 . S
N2273 C2276 1.350 . S
N2274 S2272 1.610 . S
N2274 C2275 1.351 . S
C2275 C2269 1.428 . S
C2275 N2274 1.351 . S
C2275 C2276 1.434 . S
C2276 C2267 1.429 1_655 S
C2276 N2273 1.350 . S
C2276 C2275 1.434 . S
C2277 C2278 1.369 . S
C2277 C2279 1.419 . S
C2277 H2281 0.930 . S
C2278 C2277 1.369 . S
C2278 C2287 1.429 . S
C2279 C2277 1.419 . S
C2279 C2280 1.363 . S
C2279 H2282 0.929 . S
C2280 C2279 1.363 . S
C2280 C2286 1.428 . S
H2281 C2277 0.930 . S
H2282 C2279 0.929 . S
S2283 N2284 1.613 . S
S2283 N2285 1.610 . S
N2284 S2283 1.613 . S
N2284 C2287 1.350 . S
N2285 S2283 1.610 . S
N2285 C2286 1.351 . S
C2286 C2280 1.428 . S
C2286 N2285 1.351 . S
C2286 C2287 1.434 . S
C2287 C2278 1.429 . S
C2287 N2284 1.350 . S
C2287 C2286 1.434 . S
C2288 C2289 1.369 . S
C2288 C2290 1.419 . S
C2288 H2292 0.930 . S
C2289 C2288 1.369 . S
C2289 C2298 1.429 . S
C2290 C2288 1.419 . S
C2290 C2291 1.363 . S
C2290 H2293 0.929 . S
C2291 C2290 1.363 . S
C2291 C2297 1.428 . S
H2292 C2288 0.930 . S
H2293 C2290 0.929 . S
S2294 N2295 1.613 . S
S2294 N2296 1.610 . S
N2295 S2294 1.613 . S
N2295 C2298 1.350 . S
N2296 S2294 1.610 . S
N2296 C2297 1.351 . S
C2297 C2291 1.428 . S
C2297 N2296 1.351 . S
C2297 C2298 1.434 . S
C2298 C2289 1.429 . S
C2298 N2295 1.350 . S
C2298 C2297 1.434 . S
C2299 C2300 1.369 . S
C2299 C2301 1.419 . S
C2299 H2303 0.930 . S
C2300 C2299 1.369 . S
C2300 C2309 1.429 1_655 S
C2301 C2299 1.419 . S
C2301 C2302 1.363 1_655 S
C2301 H2304 0.929 . S
C2302 C2301 1.363 1_455 S
C2302 C2308 1.428 . S
H2303 C2299 0.930 . S
H2304 C2301 0.929 . S
S2305 N2306 1.613 . S
S2305 N2307 1.610 . S
N2306 S2305 1.613 . S
N2306 C2309 1.350 . S
N2307 S2305 1.610 . S
N2307 C2308 1.351 . S
C2308 C2302 1.428 . S
C2308 N2307 1.351 . S
C2308 C2309 1.434 . S
C2309 C2300 1.429 1_455 S
C2309 N2306 1.350 . S
C2309 C2308 1.434 . S
C2310 C2311 1.369 . S
C2310 C2312 1.419 . S
C2310 H2314 0.930 . S
C2311 C2310 1.369 . S
C2311 C2320 1.429 . S
C2312 C2310 1.419 . S
C2312 C2313 1.363 . S
C2312 H2315 0.929 . S
C2313 C2312 1.363 . S
C2313 C2319 1.428 . S
H2314 C2310 0.930 . S
H2315 C2312 0.929 . S
S2316 N2317 1.613 . S
S2316 N2318 1.610 . S
N2317 S2316 1.613 . S
N2317 C2320 1.350 . S
N2318 S2316 1.610 . S
N2318 C2319 1.351 . S
C2319 C2313 1.428 . S
C2319 N2318 1.351 . S
C2319 C2320 1.434 . S
C2320 C2311 1.429 . S
C2320 N2317 1.350 . S
C2320 C2319 1.434 . S
C2321 C2322 1.369 . S
C2321 C2323 1.419 . S
C2321 H2325 0.930 . S
C2322 C2321 1.369 . S
C2322 C2331 1.429 . S
C2323 C2321 1.419 . S
C2323 C2324 1.363 . S
C2323 H2326 0.929 . S
C2324 C2323 1.363 . S
C2324 C2330 1.428 . S
H2325 C2321 0.930 . S
H2326 C2323 0.929 . S
S2327 N2328 1.613 . S
S2327 N2329 1.610 . S
N2328 S2327 1.613 . S
N2328 C2331 1.350 . S
N2329 S2327 1.610 . S
N2329 C2330 1.351 . S
C2330 C2324 1.428 . S
C2330 N2329 1.351 . S
C2330 C2331 1.434 . S
C2331 C2322 1.429 . S
C2331 N2328 1.350 . S
C2331 C2330 1.434 . S
C2332 C2333 1.369 . S
C2332 C2334 1.419 1_565 S
C2332 H2336 0.930 . S
C2333 C2332 1.369 . S
C2333 C2342 1.429 . S
C2334 C2332 1.419 1_545 S
C2334 C2335 1.363 . S
C2334 H2337 0.929 . S
C2335 C2334 1.363 . S
C2335 C2341 1.428 . S
H2336 C2332 0.930 . S
H2337 C2334 0.929 . S
S2338 N2339 1.613 1_545 S
S2338 N2340 1.610 . S
N2339 S2338 1.613 1_565 S
N2339 C2342 1.350 . S
N2340 S2338 1.610 . S
N2340 C2341 1.351 . S
C2341 C2335 1.428 . S
C2341 N2340 1.351 . S
C2341 C2342 1.434 1_545 S
C2342 C2333 1.429 . S
C2342 N2339 1.350 . S
C2342 C2341 1.434 1_565 S
C2343 C2344 1.369 . S
C2343 C2345 1.419 . S
C2343 H2347 0.930 . S
C2344 C2343 1.369 . S
C2344 C2353 1.429 . S
C2345 C2343 1.419 . S
C2345 C2346 1.363 . S
C2345 H2348 0.929 . S
C2346 C2345 1.363 . S
C2346 C2352 1.428 . S
H2347 C2343 0.930 . S
H2348 C2345 0.929 . S
S2349 N2350 1.613 . S
S2349 N2351 1.610 . S
N2350 S2349 1.613 . S
N2350 C2353 1.350 . S
N2351 S2349 1.610 . S
N2351 C2352 1.351 . S
C2352 C2346 1.428 . S
C2352 N2351 1.351 . S
C2352 C2353 1.434 . S
C2353 C2344 1.429 . S
C2353 N2350 1.350 . S
C2353 C2352 1.434 . S
C2354 C2355 1.369 1_554 S
C2354 C2356 1.419 . S
C2354 H2358 0.930 . S
C2355 C2354 1.369 1_556 S
C2355 C2364 1.429 . S
C2356 C2354 1.419 . S
C2356 C2357 1.363 1_554 S
C2356 H2359 0.929 . S
C2357 C2356 1.363 1_556 S
C2357 C2363 1.428 . S
H2358 C2354 0.930 . S
H2359 C2356 0.929 . S
S2360 N2361 1.613 . S
S2360 N2362 1.610 . S
N2361 S2360 1.613 . S
N2361 C2364 1.350 . S
N2362 S2360 1.610 . S
N2362 C2363 1.351 . S
C2363 C2357 1.428 . S
C2363 N2362 1.351 . S
C2363 C2364 1.434 . S
C2364 C2355 1.429 . S
C2364 N2361 1.350 . S
C2364 C2363 1.434 . S
C2365 C2366 1.369 . S
C2365 C2367 1.419 . S
C2365 H2369 0.930 . S
C2366 C2365 1.369 . S
C2366 C2375 1.429 . S
C2367 C2365 1.419 . S
C2367 C2368 1.363 . S
C2367 H2370 0.929 . S
C2368 C2367 1.363 . S
C2368 C2374 1.428 . S
H2369 C2365 0.930 . S
H2370 C2367 0.929 . S
S2371 N2372 1.613 . S
S2371 N2373 1.610 . S
N2372 S2371 1.613 . S
N2372 C2375 1.350 . S
N2373 S2371 1.610 . S
N2373 C2374 1.351 . S
C2374 C2368 1.428 . S
C2374 N2373 1.351 . S
C2374 C2375 1.434 . S
C2375 C2366 1.429 . S
C2375 N2372 1.350 . S
C2375 C2374 1.434 . S
C2376 C2377 1.369 . S
C2376 C2378 1.419 . S
C2376 H2380 0.930 . S
C2377 C2376 1.369 . S
C2377 C2386 1.429 . S
C2378 C2376 1.419 . S
C2378 C2379 1.363 . S
C2378 H2381 0.929 . S
C2379 C2378 1.363 . S
C2379 C2385 1.428 . S
H2380 C2376 0.930 . S
H2381 C2378 0.929 . S
S2382 N2383 1.613 . S
S2382 N2384 1.610 . S
N2383 S2382 1.613 . S
N2383 C2386 1.350 . S
N2384 S2382 1.610 . S
N2384 C2385 1.351 . S
C2385 C2379 1.428 . S
C2385 N2384 1.351 . S
C2385 C2386 1.434 . S
C2386 C2377 1.429 . S
C2386 N2383 1.350 . S
C2386 C2385 1.434 . S
C2387 C2388 1.369 . S
C2387 C2389 1.419 . S
C2387 H2391 0.930 . S
C2388 C2387 1.369 . S
C2388 C2397 1.429 . S
C2389 C2387 1.419 . S
C2389 C2390 1.363 . S
C2389 H2392 0.929 . S
C2390 C2389 1.363 . S
C2390 C2396 1.428 . S
H2391 C2387 0.930 . S
H2392 C2389 0.929 . S
S2393 N2394 1.613 . S
S2393 N2395 1.610 . S
N2394 S2393 1.613 . S
N2394 C2397 1.350 . S
N2395 S2393 1.610 . S
N2395 C2396 1.351 . S
C2396 C2390 1.428 . S
C2396 N2395 1.351 . S
C2396 C2397 1.434 . S
C2397 C2388 1.429 . S
C2397 N2394 1.350 . S
C2397 C2396 1.434 . S
C2398 C2399 1.369 . S
C2398 C2400 1.419 . S
C2398 H2402 0.930 . S
C2399 C2398 1.369 . S
C2399 C2408 1.429 . S
C2400 C2398 1.419 . S
C2400 C2401 1.363 . S
C2400 H2403 0.929 . S
C2401 C2400 1.363 . S
C2401 C2407 1.428 . S
H2402 C2398 0.930 . S
H2403 C2400 0.929 . S
S2404 N2405 1.613 . S
S2404 N2406 1.610 . S
N2405 S2404 1.613 . S
N2405 C2408 1.350 . S
N2406 S2404 1.610 . S
N2406 C2407 1.351 . S
C2407 C2401 1.428 . S
C2407 N2406 1.351 . S
C2407 C2408 1.434 . S
C2408 C2399 1.429 . S
C2408 N2405 1.350 . S
C2408 C2407 1.434 . S
C2409 C2410 1.369 . S
C2409 C2411 1.419 . S
C2409 H2413 0.930 . S
C2410 C2409 1.369 . S
C2410 C2419 1.429 . S
C2411 C2409 1.419 . S
C2411 C2412 1.363 . S
C2411 H2414 0.929 . S
C2412 C2411 1.363 . S
C2412 C2418 1.428 . S
H2413 C2409 0.930 . S
H2414 C2411 0.929 . S
S2415 N2416 1.613 . S
S2415 N2417 1.610 . S
N2416 S2415 1.613 . S
N2416 C2419 1.350 . S
N2417 S2415 1.610 . S
N2417 C2418 1.351 . S
C2418 C2412 1.428 . S
C2418 N2417 1.351 . S
C2418 C2419 1.434 . S
C2419 C2410 1.429 . S
C2419 N2416 1.350 . S
C2419 C2418 1.434 . S
C2420 C2421 1.369 . S
C2420 C2422 1.419 . S
C2420 H2424 0.930 . S
C2421 C2420 1.369 . S
C2421 C2430 1.429 . S
C2422 C2420 1.419 . S
C2422 C2423 1.363 . S
C2422 H2425 0.929 . S
C2423 C2422 1.363 . S
C2423 C2429 1.428 . S
H2424 C2420 0.930 . S
H2425 C2422 0.929 . S
S2426 N2427 1.613 . S
S2426 N2428 1.610 . S
N2427 S2426 1.613 . S
N2427 C2430 1.350 . S
N2428 S2426 1.610 . S
N2428 C2429 1.351 . S
C2429 C2423 1.428 . S
C2429 N2428 1.351 . S
C2429 C2430 1.434 . S
C2430 C2421 1.429 . S
C2430 N2427 1.350 . S
C2430 C2429 1.434 . S
C2431 C2432 1.369 . S
C2431 C2433 1.419 . S
C2431 H2435 0.930 . S
C2432 C2431 1.369 . S
C2432 C2441 1.429 . S
C2433 C2431 1.419 . S
C2433 C2434 1.363 . S
C2433 H2436 0.929 . S
C2434 C2433 1.363 . S
C2434 C2440 1.428 . S
H2435 C2431 0.930 . S
H2436 C2433 0.929 . S
S2437 N2438 1.613 . S
S2437 N2439 1.610 . S
N2438 S2437 1.613 . S
N2438 C2441 1.350 . S
N2439 S2437 1.610 . S
N2439 C2440 1.351 . S
C2440 C2434 1.428 . S
C2440 N2439 1.351 . S
C2440 C2441 1.434 . S
C2441 C2432 1.429 . S
C2441 N2438 1.350 . S
C2441 C2440 1.434 . S
C2442 C2443 1.369 . S
C2442 C2444 1.419 . S
C2442 H2446 0.930 . S
C2443 C2442 1.369 . S
C2443 C2452 1.429 . S
C2444 C2442 1.419 . S
C2444 C2445 1.363 . S
C2444 H2447 0.929 . S
C2445 C2444 1.363 . S
C2445 C2451 1.428 . S
H2446 C2442 0.930 . S
H2447 C2444 0.929 . S
S2448 N2449 1.613 . S
S2448 N2450 1.610 . S
N2449 S2448 1.613 . S
N2449 C2452 1.350 . S
N2450 S2448 1.610 . S
N2450 C2451 1.351 . S
C2451 C2445 1.428 . S
C2451 N2450 1.351 . S
C2451 C2452 1.434 . S
C2452 C2443 1.429 . S
C2452 N2449 1.350 . S
C2452 C2451 1.434 . S
C2453 C2454 1.369 . S
C2453 C2455 1.419 . S
C2453 H2457 0.930 . S
C2454 C2453 1.369 . S
C2454 C2463 1.429 . S
C2455 C2453 1.419 . S
C2455 C2456 1.363 . S
C2455 H2458 0.929 . S
C2456 C2455 1.363 . S
C2456 C2462 1.428 . S
H2457 C2453 0.930 . S
H2458 C2455 0.929 . S
S2459 N2460 1.613 . S
S2459 N2461 1.610 . S
N2460 S2459 1.613 . S
N2460 C2463 1.350 . S
N2461 S2459 1.610 . S
N2461 C2462 1.351 . S
C2462 C2456 1.428 . S
C2462 N2461 1.351 . S
C2462 C2463 1.434 . S
C2463 C2454 1.429 . S
C2463 N2460 1.350 . S
C2463 C2462 1.434 . S
C2464 C2465 1.369 . S
C2464 C2466 1.419 . S
C2464 H2468 0.930 . S
C2465 C2464 1.369 . S
C2465 C2474 1.429 . S
C2466 C2464 1.419 . S
C2466 C2467 1.363 . S
C2466 H2469 0.929 . S
C2467 C2466 1.363 . S
C2467 C2473 1.428 . S
H2468 C2464 0.930 . S
H2469 C2466 0.929 . S
S2470 N2471 1.613 . S
S2470 N2472 1.610 . S
N2471 S2470 1.613 . S
N2471 C2474 1.350 . S
N2472 S2470 1.610 . S
N2472 C2473 1.351 . S
C2473 C2467 1.428 . S
C2473 N2472 1.351 . S
C2473 C2474 1.434 . S
C2474 C2465 1.429 . S
C2474 N2471 1.350 . S
C2474 C2473 1.434 . S
C2475 C2476 1.369 . S
C2475 C2477 1.419 . S
C2475 H2479 0.930 . S
C2476 C2475 1.369 . S
C2476 C2485 1.429 . S
C2477 C2475 1.419 . S
C2477 C2478 1.363 . S
C2477 H2480 0.929 . S
C2478 C2477 1.363 . S
C2478 C2484 1.428 . S
H2479 C2475 0.930 . S
H2480 C2477 0.929 . S
S2481 N2482 1.613 . S
S2481 N2483 1.610 . S
N2482 S2481 1.613 . S
N2482 C2485 1.350 . S
N2483 S2481 1.610 . S
N2483 C2484 1.351 . S
C2484 C2478 1.428 . S
C2484 N2483 1.351 . S
C2484 C2485 1.434 . S
C2485 C2476 1.429 . S
C2485 N2482 1.350 . S
C2485 C2484 1.434 . S
C2486 C2487 1.369 . S
C2486 C2488 1.419 . S
C2486 H2490 0.930 . S
C2487 C2486 1.369 . S
C2487 C2496 1.429 . S
C2488 C2486 1.419 . S
C2488 C2489 1.363 . S
C2488 H2491 0.929 . S
C2489 C2488 1.363 . S
C2489 C2495 1.428 . S
H2490 C2486 0.930 . S
H2491 C2488 0.929 . S
S2492 N2493 1.613 . S
S2492 N2494 1.610 . S
N2493 S2492 1.613 . S
N2493 C2496 1.350 . S
N2494 S2492 1.610 . S
N2494 C2495 1.351 . S
C2495 C2489 1.428 . S
C2495 N2494 1.351 . S
C2495 C2496 1.434 . S
C2496 C2487 1.429 . S
C2496 N2493 1.350 . S
C2496 C2495 1.434 . S
C2497 C2498 1.369 . S
C2497 C2499 1.419 . S
C2497 H2501 0.930 . S
C2498 C2497 1.369 . S
C2498 C2507 1.429 . S
C2499 C2497 1.419 . S
C2499 C2500 1.363 . S
C2499 H2502 0.929 . S
C2500 C2499 1.363 . S
C2500 C2506 1.428 . S
H2501 C2497 0.930 . S
H2502 C2499 0.929 . S
S2503 N2504 1.613 . S
S2503 N2505 1.610 . S
N2504 S2503 1.613 . S
N2504 C2507 1.350 . S
N2505 S2503 1.610 . S
N2505 C2506 1.351 . S
C2506 C2500 1.428 . S
C2506 N2505 1.351 . S
C2506 C2507 1.434 . S
C2507 C2498 1.429 . S
C2507 N2504 1.350 . S
C2507 C2506 1.434 . S
C2508 C2509 1.369 . S
C2508 C2510 1.419 . S
C2508 H2512 0.930 . S
C2509 C2508 1.369 . S
C2509 C2518 1.429 . S
C2510 C2508 1.419 . S
C2510 C2511 1.363 . S
C2510 H2513 0.929 . S
C2511 C2510 1.363 . S
C2511 C2517 1.428 . S
H2512 C2508 0.930 . S
H2513 C2510 0.929 . S
S2514 N2515 1.613 . S
S2514 N2516 1.610 . S
N2515 S2514 1.613 . S
N2515 C2518 1.350 . S
N2516 S2514 1.610 . S
N2516 C2517 1.351 . S
C2517 C2511 1.428 . S
C2517 N2516 1.351 . S
C2517 C2518 1.434 . S
C2518 C2509 1.429 . S
C2518 N2515 1.350 . S
C2518 C2517 1.434 . S
C2519 C2520 1.369 . S
C2519 C2521 1.419 . S
C2519 H2523 0.930 . S
C2520 C2519 1.369 . S
C2520 C2529 1.429 . S
C2521 C2519 1.419 . S
C2521 C2522 1.363 . S
C2521 H2524 0.929 . S
C2522 C2521 1.363 . S
C2522 C2528 1.428 . S
H2523 C2519 0.930 . S
H2524 C2521 0.929 . S
S2525 N2526 1.613 . S
S2525 N2527 1.610 . S
N2526 S2525 1.613 . S
N2526 C2529 1.350 . S
N2527 S2525 1.610 . S
N2527 C2528 1.351 . S
C2528 C2522 1.428 . S
C2528 N2527 1.351 . S
C2528 C2529 1.434 . S
C2529 C2520 1.429 . S
C2529 N2526 1.350 . S
C2529 C2528 1.434 . S
C2530 C2531 1.369 . S
C2530 C2532 1.419 . S
C2530 H2534 0.930 . S
C2531 C2530 1.369 . S
C2531 C2540 1.429 . S
C2532 C2530 1.419 . S
C2532 C2533 1.363 . S
C2532 H2535 0.929 . S
C2533 C2532 1.363 . S
C2533 C2539 1.428 . S
H2534 C2530 0.930 . S
H2535 C2532 0.929 . S
S2536 N2537 1.613 . S
S2536 N2538 1.610 . S
N2537 S2536 1.613 . S
N2537 C2540 1.350 . S
N2538 S2536 1.610 . S
N2538 C2539 1.351 . S
C2539 C2533 1.428 . S
C2539 N2538 1.351 . S
C2539 C2540 1.434 . S
C2540 C2531 1.429 . S
C2540 N2537 1.350 . S
C2540 C2539 1.434 . S
C2541 C2542 1.369 . S
C2541 C2543 1.419 . S
C2541 H2545 0.930 . S
C2542 C2541 1.369 . S
C2542 C2551 1.429 . S
C2543 C2541 1.419 . S
C2543 C2544 1.363 . S
C2543 H2546 0.929 . S
C2544 C2543 1.363 . S
C2544 C2550 1.428 . S
H2545 C2541 0.930 . S
H2546 C2543 0.929 . S
S2547 N2548 1.613 . S
S2547 N2549 1.610 . S
N2548 S2547 1.613 . S
N2548 C2551 1.350 . S
N2549 S2547 1.610 . S
N2549 C2550 1.351 . S
C2550 C2544 1.428 . S
C2550 N2549 1.351 . S
C2550 C2551 1.434 . S
C2551 C2542 1.429 . S
C2551 N2548 1.350 . S
C2551 C2550 1.434 . S
C2552 C2553 1.369 . S
C2552 C2554 1.419 . S
C2552 H2556 0.930 . S
C2553 C2552 1.369 . S
C2553 C2562 1.429 . S
C2554 C2552 1.419 . S
C2554 C2555 1.363 . S
C2554 H2557 0.929 . S
C2555 C2554 1.363 . S
C2555 C2561 1.428 . S
H2556 C2552 0.930 . S
H2557 C2554 0.929 . S
S2558 N2559 1.613 . S
S2558 N2560 1.610 . S
N2559 S2558 1.613 . S
N2559 C2562 1.350 . S
N2560 S2558 1.610 . S
N2560 C2561 1.351 . S
C2561 C2555 1.428 . S
C2561 N2560 1.351 . S
C2561 C2562 1.434 . S
C2562 C2553 1.429 . S
C2562 N2559 1.350 . S
C2562 C2561 1.434 . S
C2563 C2564 1.369 . S
C2563 C2565 1.419 . S
C2563 H2567 0.930 . S
C2564 C2563 1.369 . S
C2564 C2573 1.429 . S
C2565 C2563 1.419 . S
C2565 C2566 1.363 . S
C2565 H2568 0.929 . S
C2566 C2565 1.363 . S
C2566 C2572 1.428 . S
H2567 C2563 0.930 . S
H2568 C2565 0.929 . S
S2569 N2570 1.613 . S
S2569 N2571 1.610 . S
N2570 S2569 1.613 . S
N2570 C2573 1.350 . S
N2571 S2569 1.610 . S
N2571 C2572 1.351 . S
C2572 C2566 1.428 . S
C2572 N2571 1.351 . S
C2572 C2573 1.434 . S
C2573 C2564 1.429 . S
C2573 N2570 1.350 . S
C2573 C2572 1.434 . S
C2574 C2575 1.369 . S
C2574 C2576 1.419 . S
C2574 H2578 0.930 . S
C2575 C2574 1.369 . S
C2575 C2584 1.429 . S
C2576 C2574 1.419 . S
C2576 C2577 1.363 . S
C2576 H2579 0.929 . S
C2577 C2576 1.363 . S
C2577 C2583 1.428 . S
H2578 C2574 0.930 . S
H2579 C2576 0.929 . S
S2580 N2581 1.613 . S
S2580 N2582 1.610 . S
N2581 S2580 1.613 . S
N2581 C2584 1.350 . S
N2582 S2580 1.610 . S
N2582 C2583 1.351 . S
C2583 C2577 1.428 . S
C2583 N2582 1.351 . S
C2583 C2584 1.434 . S
C2584 C2575 1.429 . S
C2584 N2581 1.350 . S
C2584 C2583 1.434 . S
C2585 C2586 1.369 . S
C2585 C2587 1.419 . S
C2585 H2589 0.930 . S
C2586 C2585 1.369 . S
C2586 C2595 1.429 . S
C2587 C2585 1.419 . S
C2587 C2588 1.363 . S
C2587 H2590 0.929 . S
C2588 C2587 1.363 . S
C2588 C2594 1.428 . S
H2589 C2585 0.930 . S
H2590 C2587 0.929 . S
S2591 N2592 1.613 . S
S2591 N2593 1.610 . S
N2592 S2591 1.613 . S
N2592 C2595 1.350 . S
N2593 S2591 1.610 . S
N2593 C2594 1.351 . S
C2594 C2588 1.428 . S
C2594 N2593 1.351 . S
C2594 C2595 1.434 . S
C2595 C2586 1.429 . S
C2595 N2592 1.350 . S
C2595 C2594 1.434 . S
C2596 C2597 1.369 . S
C2596 C2598 1.419 . S
C2596 H2600 0.930 . S
C2597 C2596 1.369 . S
C2597 C2606 1.429 . S
C2598 C2596 1.419 . S
C2598 C2599 1.363 . S
C2598 H2601 0.929 . S
C2599 C2598 1.363 . S
C2599 C2605 1.428 . S
H2600 C2596 0.930 . S
H2601 C2598 0.929 . S
S2602 N2603 1.613 . S
S2602 N2604 1.610 . S
N2603 S2602 1.613 . S
N2603 C2606 1.350 . S
N2604 S2602 1.610 . S
N2604 C2605 1.351 . S
C2605 C2599 1.428 . S
C2605 N2604 1.351 . S
C2605 C2606 1.434 . S
C2606 C2597 1.429 . S
C2606 N2603 1.350 . S
C2606 C2605 1.434 . S
C2607 C2608 1.369 . S
C2607 C2609 1.419 . S
C2607 H2611 0.930 . S
C2608 C2607 1.369 . S
C2608 C2617 1.429 . S
C2609 C2607 1.419 . S
C2609 C2610 1.363 . S
C2609 H2612 0.929 . S
C2610 C2609 1.363 . S
C2610 C2616 1.428 . S
H2611 C2607 0.930 . S
H2612 C2609 0.929 . S
S2613 N2614 1.613 . S
S2613 N2615 1.610 . S
N2614 S2613 1.613 . S
N2614 C2617 1.350 . S
N2615 S2613 1.610 . S
N2615 C2616 1.351 . S
C2616 C2610 1.428 . S
C2616 N2615 1.351 . S
C2616 C2617 1.434 . S
C2617 C2608 1.429 . S
C2617 N2614 1.350 . S
C2617 C2616 1.434 . S
C2618 C2619 1.369 . S
C2618 C2620 1.419 . S
C2618 H2622 0.930 . S
C2619 C2618 1.369 . S
C2619 C2628 1.429 . S
C2620 C2618 1.419 . S
C2620 C2621 1.363 . S
C2620 H2623 0.929 . S
C2621 C2620 1.363 . S
C2621 C2627 1.428 . S
H2622 C2618 0.930 . S
H2623 C2620 0.929 . S
S2624 N2625 1.613 . S
S2624 N2626 1.610 . S
N2625 S2624 1.613 . S
N2625 C2628 1.350 . S
N2626 S2624 1.610 . S
N2626 C2627 1.351 . S
C2627 C2621 1.428 . S
C2627 N2626 1.351 . S
C2627 C2628 1.434 . S
C2628 C2619 1.429 . S
C2628 N2625 1.350 . S
C2628 C2627 1.434 . S
C2629 C2630 1.369 . S
C2629 C2631 1.419 . S
C2629 H2633 0.930 . S
C2630 C2629 1.369 . S
C2630 C2639 1.429 . S
C2631 C2629 1.419 . S
C2631 C2632 1.363 . S
C2631 H2634 0.929 . S
C2632 C2631 1.363 . S
C2632 C2638 1.428 . S
H2633 C2629 0.930 . S
H2634 C2631 0.929 . S
S2635 N2636 1.613 . S
S2635 N2637 1.610 . S
N2636 S2635 1.613 . S
N2636 C2639 1.350 . S
N2637 S2635 1.610 . S
N2637 C2638 1.351 . S
C2638 C2632 1.428 . S
C2638 N2637 1.351 . S
C2638 C2639 1.434 . S
C2639 C2630 1.429 . S
C2639 N2636 1.350 . S
C2639 C2638 1.434 . S
C2640 C2641 1.369 . S
C2640 C2642 1.419 . S
C2640 H2644 0.930 . S
C2641 C2640 1.369 . S
C2641 C2650 1.429 . S
C2642 C2640 1.419 . S
C2642 C2643 1.363 . S
C2642 H2645 0.929 . S
C2643 C2642 1.363 . S
C2643 C2649 1.428 . S
H2644 C2640 0.930 . S
H2645 C2642 0.929 . S
S2646 N2647 1.613 . S
S2646 N2648 1.610 . S
N2647 S2646 1.613 . S
N2647 C2650 1.350 . S
N2648 S2646 1.610 . S
N2648 C2649 1.351 . S
C2649 C2643 1.428 . S
C2649 N2648 1.351 . S
C2649 C2650 1.434 . S
C2650 C2641 1.429 . S
C2650 N2647 1.350 . S
C2650 C2649 1.434 . S
C2651 C2652 1.369 . S
C2651 C2653 1.419 . S
C2651 H2655 0.930 . S
C2652 C2651 1.369 . S
C2652 C2661 1.429 . S
C2653 C2651 1.419 . S
C2653 C2654 1.363 . S
C2653 H2656 0.929 . S
C2654 C2653 1.363 . S
C2654 C2660 1.428 . S
H2655 C2651 0.930 . S
H2656 C2653 0.929 . S
S2657 N2658 1.613 . S
S2657 N2659 1.610 . S
N2658 S2657 1.613 . S
N2658 C2661 1.350 . S
N2659 S2657 1.610 . S
N2659 C2660 1.351 . S
C2660 C2654 1.428 . S
C2660 N2659 1.351 . S
C2660 C2661 1.434 . S
C2661 C2652 1.429 . S
C2661 N2658 1.350 . S
C2661 C2660 1.434 . S
C2662 C2663 1.369 . S
C2662 C2664 1.419 . S
C2662 H2666 0.930 . S
C2663 C2662 1.369 . S
C2663 C2672 1.429 . S
C2664 C2662 1.419 . S
C2664 C2665 1.363 . S
C2664 H2667 0.929 . S
C2665 C2664 1.363 . S
C2665 C2671 1.428 . S
H2666 C2662 0.930 . S
H2667 C2664 0.929 . S
S2668 N2669 1.613 . S
S2668 N2670 1.610 . S
N2669 S2668 1.613 . S
N2669 C2672 1.350 . S
N2670 S2668 1.610 . S
N2670 C2671 1.351 . S
C2671 C2665 1.428 . S
C2671 N2670 1.351 . S
C2671 C2672 1.434 . S
C2672 C2663 1.429 . S
C2672 N2669 1.350 . S
C2672 C2671 1.434 . S
C2673 C2674 1.369 . S
C2673 C2675 1.419 . S
C2673 H2677 0.930 . S
C2674 C2673 1.369 . S
C2674 C2683 1.429 . S
C2675 C2673 1.419 . S
C2675 C2676 1.363 . S
C2675 H2678 0.929 . S
C2676 C2675 1.363 . S
C2676 C2682 1.428 . S
H2677 C2673 0.930 . S
H2678 C2675 0.929 . S
S2679 N2680 1.613 . S
S2679 N2681 1.610 . S
N2680 S2679 1.613 . S
N2680 C2683 1.350 . S
N2681 S2679 1.610 . S
N2681 C2682 1.351 . S
C2682 C2676 1.428 . S
C2682 N2681 1.351 . S
C2682 C2683 1.434 . S
C2683 C2674 1.429 . S
C2683 N2680 1.350 . S
C2683 C2682 1.434 . S
C2684 C2685 1.369 . S
C2684 C2686 1.419 . S
C2684 H2688 0.930 . S
C2685 C2684 1.369 . S
C2685 C2694 1.429 . S
C2686 C2684 1.419 . S
C2686 C2687 1.363 . S
C2686 H2689 0.929 . S
C2687 C2686 1.363 . S
C2687 C2693 1.428 . S
H2688 C2684 0.930 . S
H2689 C2686 0.929 . S
S2690 N2691 1.613 . S
S2690 N2692 1.610 . S
N2691 S2690 1.613 . S
N2691 C2694 1.350 . S
N2692 S2690 1.610 . S
N2692 C2693 1.351 . S
C2693 C2687 1.428 . S
C2693 N2692 1.351 . S
C2693 C2694 1.434 . S
C2694 C2685 1.429 . S
C2694 N2691 1.350 . S
C2694 C2693 1.434 . S
C2695 C2696 1.369 . S
C2695 C2697 1.419 . S
C2695 H2699 0.930 . S
C2696 C2695 1.369 . S
C2696 C2705 1.429 . S
C2697 C2695 1.419 . S
C2697 C2698 1.363 . S
C2697 H2700 0.929 . S
C2698 C2697 1.363 . S
C2698 C2704 1.428 . S
H2699 C2695 0.930 . S
H2700 C2697 0.929 . S
S2701 N2702 1.613 . S
S2701 N2703 1.610 . S
N2702 S2701 1.613 . S
N2702 C2705 1.350 . S
N2703 S2701 1.610 . S
N2703 C2704 1.351 . S
C2704 C2698 1.428 . S
C2704 N2703 1.351 . S
C2704 C2705 1.434 . S
C2705 C2696 1.429 . S
C2705 N2702 1.350 . S
C2705 C2704 1.434 . S
C2706 C2707 1.369 . S
C2706 C2708 1.419 . S
C2706 H2710 0.930 . S
C2707 C2706 1.369 . S
C2707 C2716 1.429 . S
C2708 C2706 1.419 . S
C2708 C2709 1.363 . S
C2708 H2711 0.929 . S
C2709 C2708 1.363 . S
C2709 C2715 1.428 . S
H2710 C2706 0.930 . S
H2711 C2708 0.929 . S
S2712 N2713 1.613 . S
S2712 N2714 1.610 . S
N2713 S2712 1.613 . S
N2713 C2716 1.350 . S
N2714 S2712 1.610 . S
N2714 C2715 1.351 . S
C2715 C2709 1.428 . S
C2715 N2714 1.351 . S
C2715 C2716 1.434 . S
C2716 C2707 1.429 . S
C2716 N2713 1.350 . S
C2716 C2715 1.434 . S
C2717 C2718 1.369 . S
C2717 C2719 1.419 . S
C2717 H2721 0.930 . S
C2718 C2717 1.369 . S
C2718 C2727 1.429 . S
C2719 C2717 1.419 . S
C2719 C2720 1.363 . S
C2719 H2722 0.929 . S
C2720 C2719 1.363 . S
C2720 C2726 1.428 . S
H2721 C2717 0.930 . S
H2722 C2719 0.929 . S
S2723 N2724 1.613 . S
S2723 N2725 1.610 . S
N2724 S2723 1.613 . S
N2724 C2727 1.350 . S
N2725 S2723 1.610 . S
N2725 C2726 1.351 . S
C2726 C2720 1.428 . S
C2726 N2725 1.351 . S
C2726 C2727 1.434 . S
C2727 C2718 1.429 . S
C2727 N2724 1.350 . S
C2727 C2726 1.434 . S
C2728 C2729 1.369 . S
C2728 C2730 1.419 . S
C2728 H2732 0.930 . S
C2729 C2728 1.369 . S
C2729 C2738 1.429 . S
C2730 C2728 1.419 . S
C2730 C2731 1.363 . S
C2730 H2733 0.929 . S
C2731 C2730 1.363 . S
C2731 C2737 1.428 . S
H2732 C2728 0.930 . S
H2733 C2730 0.929 . S
S2734 N2735 1.613 . S
S2734 N2736 1.610 . S
N2735 S2734 1.613 . S
N2735 C2738 1.350 . S
N2736 S2734 1.610 . S
N2736 C2737 1.351 . S
C2737 C2731 1.428 . S
C2737 N2736 1.351 . S
C2737 C2738 1.434 . S
C2738 C2729 1.429 . S
C2738 N2735 1.350 . S
C2738 C2737 1.434 . S
C2739 C2740 1.369 . S
C2739 C2741 1.419 . S
C2739 H2743 0.930 . S
C2740 C2739 1.369 . S
C2740 C2749 1.429 . S
C2741 C2739 1.419 . S
C2741 C2742 1.363 . S
C2741 H2744 0.929 . S
C2742 C2741 1.363 . S
C2742 C2748 1.428 . S
H2743 C2739 0.930 . S
H2744 C2741 0.929 . S
S2745 N2746 1.613 . S
S2745 N2747 1.610 . S
N2746 S2745 1.613 . S
N2746 C2749 1.350 . S
N2747 S2745 1.610 . S
N2747 C2748 1.351 . S
C2748 C2742 1.428 . S
C2748 N2747 1.351 . S
C2748 C2749 1.434 . S
C2749 C2740 1.429 . S
C2749 N2746 1.350 . S
C2749 C2748 1.434 . S
C2750 C2751 1.369 . S
C2750 C2752 1.419 . S
C2750 H2754 0.930 . S
C2751 C2750 1.369 . S
C2751 C2760 1.429 . S
C2752 C2750 1.419 . S
C2752 C2753 1.363 . S
C2752 H2755 0.929 . S
C2753 C2752 1.363 . S
C2753 C2759 1.428 . S
H2754 C2750 0.930 . S
H2755 C2752 0.929 . S
S2756 N2757 1.613 . S
S2756 N2758 1.610 . S
N2757 S2756 1.613 . S
N2757 C2760 1.350 . S
N2758 S2756 1.610 . S
N2758 C2759 1.351 . S
C2759 C2753 1.428 . S
C2759 N2758 1.351 . S
C2759 C2760 1.434 . S
C2760 C2751 1.429 . S
C2760 N2757 1.350 . S
C2760 C2759 1.434 . S
C2761 C2762 1.369 . S
C2761 C2763 1.419 . S
C2761 H2765 0.930 . S
C2762 C2761 1.369 . S
C2762 C2771 1.429 . S
C2763 C2761 1.419 . S
C2763 C2764 1.363 . S
C2763 H2766 0.929 . S
C2764 C2763 1.363 . S
C2764 C2770 1.428 . S
H2765 C2761 0.930 . S
H2766 C2763 0.929 . S
S2767 N2768 1.613 . S
S2767 N2769 1.610 . S
N2768 S2767 1.613 . S
N2768 C2771 1.350 . S
N2769 S2767 1.610 . S
N2769 C2770 1.351 . S
C2770 C2764 1.428 . S
C2770 N2769 1.351 . S
C2770 C2771 1.434 . S
C2771 C2762 1.429 . S
C2771 N2768 1.350 . S
C2771 C2770 1.434 . S
C2772 C2773 1.369 . S
C2772 C2774 1.419 . S
C2772 H2776 0.930 . S
C2773 C2772 1.369 . S
C2773 C2782 1.429 . S
C2774 C2772 1.419 . S
C2774 C2775 1.363 . S
C2774 H2777 0.929 . S
C2775 C2774 1.363 . S
C2775 C2781 1.428 . S
H2776 C2772 0.930 . S
H2777 C2774 0.929 . S
S2778 N2779 1.613 . S
S2778 N2780 1.610 . S
N2779 S2778 1.613 . S
N2779 C2782 1.350 . S
N2780 S2778 1.610 . S
N2780 C2781 1.351 . S
C2781 C2775 1.428 . S
C2781 N2780 1.351 . S
C2781 C2782 1.434 . S
C2782 C2773 1.429 . S
C2782 N2779 1.350 . S
C2782 C2781 1.434 . S
C2783 C2784 1.369 . S
C2783 C2785 1.419 . S
C2783 H2787 0.930 . S
C2784 C2783 1.369 . S
C2784 C2793 1.429 . S
C2785 C2783 1.419 . S
C2785 C2786 1.363 . S
C2785 H2788 0.929 . S
C2786 C2785 1.363 . S
C2786 C2792 1.428 . S
H2787 C2783 0.930 . S
H2788 C2785 0.929 . S
S2789 N2790 1.613 . S
S2789 N2791 1.610 . S
N2790 S2789 1.613 . S
N2790 C2793 1.350 . S
N2791 S2789 1.610 . S
N2791 C2792 1.351 . S
C2792 C2786 1.428 . S
C2792 N2791 1.351 . S
C2792 C2793 1.434 . S
C2793 C2784 1.429 . S
C2793 N2790 1.350 . S
C2793 C2792 1.434 . S
C2794 C2795 1.369 . S
C2794 C2796 1.419 . S
C2794 H2798 0.930 . S
C2795 C2794 1.369 . S
C2795 C2804 1.429 . S
C2796 C2794 1.419 . S
C2796 C2797 1.363 . S
C2796 H2799 0.929 . S
C2797 C2796 1.363 . S
C2797 C2803 1.428 . S
H2798 C2794 0.930 . S
H2799 C2796 0.929 . S
S2800 N2801 1.613 . S
S2800 N2802 1.610 . S
N2801 S2800 1.613 . S
N2801 C2804 1.350 . S
N2802 S2800 1.610 . S
N2802 C2803 1.351 . S
C2803 C2797 1.428 . S
C2803 N2802 1.351 . S
C2803 C2804 1.434 . S
C2804 C2795 1.429 . S
C2804 N2801 1.350 . S
C2804 C2803 1.434 . S
C2805 C2806 1.369 . S
C2805 C2807 1.419 . S
C2805 H2809 0.930 . S
C2806 C2805 1.369 . S
C2806 C2815 1.429 . S
C2807 C2805 1.419 . S
C2807 C2808 1.363 . S
C2807 H2810 0.929 . S
C2808 C2807 1.363 . S
C2808 C2814 1.428 . S
H2809 C2805 0.930 . S
H2810 C2807 0.929 . S
S2811 N2812 1.613 . S
S2811 N2813 1.610 . S
N2812 S2811 1.613 . S
N2812 C2815 1.350 . S
N2813 S2811 1.610 . S
N2813 C2814 1.351 . S
C2814 C2808 1.428 . S
C2814 N2813 1.351 . S
C2814 C2815 1.434 . S
C2815 C2806 1.429 . S
C2815 N2812 1.350 . S
C2815 C2814 1.434 . S
C2816 C2817 1.369 . S
C2816 C2818 1.419 . S
C2816 H2820 0.930 . S
C2817 C2816 1.369 . S
C2817 C2826 1.429 . S
C2818 C2816 1.419 . S
C2818 C2819 1.363 . S
C2818 H2821 0.929 . S
C2819 C2818 1.363 . S
C2819 C2825 1.428 . S
H2820 C2816 0.930 . S
H2821 C2818 0.929 . S
S2822 N2823 1.613 . S
S2822 N2824 1.610 . S
N2823 S2822 1.613 . S
N2823 C2826 1.350 . S
N2824 S2822 1.610 . S
N2824 C2825 1.351 . S
C2825 C2819 1.428 . S
C2825 N2824 1.351 . S
C2825 C2826 1.434 . S
C2826 C2817 1.429 . S
C2826 N2823 1.350 . S
C2826 C2825 1.434 . S
C2827 C2828 1.369 . S
C2827 C2829 1.419 . S
C2827 H2831 0.930 . S
C2828 C2827 1.369 . S
C2828 C2837 1.429 . S
C2829 C2827 1.419 . S
C2829 C2830 1.363 . S
C2829 H2832 0.929 . S
C2830 C2829 1.363 . S
C2830 C2836 1.428 . S
H2831 C2827 0.930 . S
H2832 C2829 0.929 . S
S2833 N2834 1.613 . S
S2833 N2835 1.610 . S
N2834 S2833 1.613 . S
N2834 C2837 1.350 . S
N2835 S2833 1.610 . S
N2835 C2836 1.351 . S
C2836 C2830 1.428 . S
C2836 N2835 1.351 . S
C2836 C2837 1.434 . S
C2837 C2828 1.429 . S
C2837 N2834 1.350 . S
C2837 C2836 1.434 . S
C2838 C2839 1.369 . S
C2838 C2840 1.419 . S
C2838 H2842 0.930 . S
C2839 C2838 1.369 . S
C2839 C2848 1.429 . S
C2840 C2838 1.419 . S
C2840 C2841 1.363 . S
C2840 H2843 0.929 . S
C2841 C2840 1.363 . S
C2841 C2847 1.428 . S
H2842 C2838 0.930 . S
H2843 C2840 0.929 . S
S2844 N2845 1.613 . S
S2844 N2846 1.610 . S
N2845 S2844 1.613 . S
N2845 C2848 1.350 . S
N2846 S2844 1.610 . S
N2846 C2847 1.351 . S
C2847 C2841 1.428 . S
C2847 N2846 1.351 . S
C2847 C2848 1.434 . S
C2848 C2839 1.429 . S
C2848 N2845 1.350 . S
C2848 C2847 1.434 . S
C2849 C2850 1.369 . S
C2849 C2851 1.419 . S
C2849 H2853 0.930 . S
C2850 C2849 1.369 . S
C2850 C2859 1.429 . S
C2851 C2849 1.419 . S
C2851 C2852 1.363 . S
C2851 H2854 0.929 . S
C2852 C2851 1.363 . S
C2852 C2858 1.428 . S
H2853 C2849 0.930 . S
H2854 C2851 0.929 . S
S2855 N2856 1.613 . S
S2855 N2857 1.610 . S
N2856 S2855 1.613 . S
N2856 C2859 1.350 . S
N2857 S2855 1.610 . S
N2857 C2858 1.351 . S
C2858 C2852 1.428 . S
C2858 N2857 1.351 . S
C2858 C2859 1.434 . S
C2859 C2850 1.429 . S
C2859 N2856 1.350 . S
C2859 C2858 1.434 . S
C2860 C2861 1.369 . S
C2860 C2862 1.419 . S
C2860 H2864 0.930 . S
C2861 C2860 1.369 . S
C2861 C2870 1.429 . S
C2862 C2860 1.419 . S
C2862 C2863 1.363 . S
C2862 H2865 0.929 . S
C2863 C2862 1.363 . S
C2863 C2869 1.428 . S
H2864 C2860 0.930 . S
H2865 C2862 0.929 . S
S2866 N2867 1.613 . S
S2866 N2868 1.610 . S
N2867 S2866 1.613 . S
N2867 C2870 1.350 . S
N2868 S2866 1.610 . S
N2868 C2869 1.351 . S
C2869 C2863 1.428 . S
C2869 N2868 1.351 . S
C2869 C2870 1.434 . S
C2870 C2861 1.429 . S
C2870 N2867 1.350 . S
C2870 C2869 1.434 . S
C2871 C2872 1.369 . S
C2871 C2873 1.419 . S
C2871 H2875 0.930 . S
C2872 C2871 1.369 . S
C2872 C2881 1.429 . S
C2873 C2871 1.419 . S
C2873 C2874 1.363 . S
C2873 H2876 0.929 . S
C2874 C2873 1.363 . S
C2874 C2880 1.428 . S
H2875 C2871 0.930 . S
H2876 C2873 0.929 . S
S2877 N2878 1.613 . S
S2877 N2879 1.610 . S
N2878 S2877 1.613 . S
N2878 C2881 1.350 . S
N2879 S2877 1.610 . S
N2879 C2880 1.351 . S
C2880 C2874 1.428 . S
C2880 N2879 1.351 . S
C2880 C2881 1.434 . S
C2881 C2872 1.429 . S
C2881 N2878 1.350 . S
C2881 C2880 1.434 . S
C2882 C2883 1.369 . S
C2882 C2884 1.419 . S
C2882 H2886 0.930 . S
C2883 C2882 1.369 . S
C2883 C2892 1.429 . S
C2884 C2882 1.419 . S
C2884 C2885 1.363 . S
C2884 H2887 0.929 . S
C2885 C2884 1.363 . S
C2885 C2891 1.428 . S
H2886 C2882 0.930 . S
H2887 C2884 0.929 . S
S2888 N2889 1.613 . S
S2888 N2890 1.610 . S
N2889 S2888 1.613 . S
N2889 C2892 1.350 . S
N2890 S2888 1.610 . S
N2890 C2891 1.351 . S
C2891 C2885 1.428 . S
C2891 N2890 1.351 . S
C2891 C2892 1.434 . S
C2892 C2883 1.429 . S
C2892 N2889 1.350 . S
C2892 C2891 1.434 . S
C2893 C2894 1.369 . S
C2893 C2895 1.419 . S
C2893 H2897 0.930 . S
C2894 C2893 1.369 . S
C2894 C2903 1.429 . S
C2895 C2893 1.419 . S
C2895 C2896 1.363 . S
C2895 H2898 0.929 . S
C2896 C2895 1.363 . S
C2896 C2902 1.428 . S
H2897 C2893 0.930 . S
H2898 C2895 0.929 . S
S2899 N2900 1.613 . S
S2899 N2901 1.610 . S
N2900 S2899 1.613 . S
N2900 C2903 1.350 . S
N2901 S2899 1.610 . S
N2901 C2902 1.351 . S
C2902 C2896 1.428 . S
C2902 N2901 1.351 . S
C2902 C2903 1.434 . S
C2903 C2894 1.429 . S
C2903 N2900 1.350 . S
C2903 C2902 1.434 . S
C1585 N530 1.419 . S
C1587 C21 1.300 . S
C1596 N1553 1.419 . S
C1598 C54 1.310 . S
C1607 C87 1.307 . S
C1609 N1487 1.419 . S
C1618 C120 1.304 . S
C1620 N1520 1.419 . S
C1629 C153 1.300 . S
C1631 N563 1.419 . S
C1640 N596 1.419 . S
C1642 C186 1.301 . S
C1651 N629 1.419 . S
C1653 C219 1.302 . S
C1662 N1454 1.419 . S
C1664 C252 1.310 . S
C1673 C285 1.303 . S
C1675 N2 1.419 . S
C1684 N35 1.419 . S
C1686 C318 1.307 . S
C1695 C351 1.299 . S
C1697 N68 1.419 . S
C1706 N101 1.419 . S
C1708 C384 1.299 . S
C1717 C417 1.306 . S
C1719 N134 1.419 . S
C1728 C450 1.301 . S
C1730 N167 1.419 . S
C1739 N200 1.419 . S
C1741 C483 1.299 . S
C1750 N233 1.419 . S
C1752 C516 1.299 . S
C1761 N266 1.418 . S
C1763 C549 1.302 . S
C1772 N398 1.418 . S
C1774 C582 1.302 . S
C1783 N431 1.419 . S
C1785 C615 1.302 . S
C1794 N464 1.419 . S
C1796 C648 1.302 . S
C1805 N1289 1.418 . S
C1807 C681 1.304 . S
C1816 C714 1.301 . S
C1818 N1124 1.419 . S
C1827 N1157 1.419 . S
C1829 C747 1.302 . S
C1838 C780 1.311 . S
C1840 N1091 1.419 . S
C1849 C813 1.297 . S
C1851 N1322 1.419 . S
C1860 C846 1.306 . S
C1862 N761 1.419 . S
C1871 N695 1.419 . S
C1873 C879 1.309 . S
C1882 N728 1.419 . S
C1884 C912 1.308 . S
C1893 N1355 1.419 . S
C1895 C945 1.299 . S
C1904 C978 1.311 . S
C1906 N1388 1.419 . S
C1915 N1421 1.419 . S
C1917 C1011 1.309 . S
C1926 C1044 1.307 . S
C1928 N662 1.419 . S
C1937 N794 1.419 . S
C1939 C1077 1.310 . S
C1948 N827 1.418 . S
C1950 C1110 1.301 . S
C1959 C1143 1.298 . S
C1961 N860 1.419 . S
C1970 C1176 1.302 . S
C1972 N893 1.418 . S
C1981 C1209 1.307 . S
C1983 N926 1.419 . S
C1992 N959 1.419 . S
C1994 C1242 1.309 . S
C2003 C1275 1.311 . S
C2005 N992 1.419 . S
C2014 N1025 1.419 . S
C2016 C1308 1.299 . S
C2025 N1058 1.419 . S
C2027 C1341 1.304 . S
C2036 C1374 1.309 . S
C2038 N1190 1.419 . S
C2047 N1223 1.419 . S
C2049 C1407 1.306 . S
C2058 N1256 1.419 . S
C2060 C1440 1.300 . S
C2069 C1473 1.297 . S
C2071 N497 1.419 . S
C2080 C1506 1.298 . S
C2082 N332 1.419 . S
C2091 C1539 1.311 . S
C2093 N365 1.419 . S
C2102 N299 1.419 . S
C2104 C1572 1.299 . S
C2113 C7 0.884 . S
C2115 C139 0.894 . S
C2124 C40 0.889 . S
C2126 C172 0.884 . S
C2135 C205 0.895 . S
C2137 C73 0.885 . S
C2146 C238 0.892 . S
C2148 C106 0.884 . S
C2157 C1261 0.898 . S
C2159 C271 0.890 . S
C2168 C1294 0.892 . S
C2170 C304 0.884 . S
C2179 C1195 0.884 . S
C2181 C337 0.885 . S
C2190 C370 0.887 . S
C2192 C1228 0.896 . S
C2201 C403 0.890 . S
C2203 C1129 0.896 . S
C2212 C436 0.884 . S
C2214 C1162 0.895 . S
C2223 C469 0.889 . S
C2225 C1063 0.884 . S
C2234 C502 0.884 . S
C2236 C1096 0.895 . S
C2245 C1492 0.885 . S
C2247 C535 0.895 . S
C2256 C634 0.885 . S
C2258 C568 0.895 . S
C2267 C1459 0.884 . S
C2269 C601 0.895 . S
C2278 C1393 0.883 . S
C2280 C667 0.894 . S
C2289 C700 0.896 . S
C2291 C1327 0.886 . S
C2300 C733 0.882 . S
C2302 C766 0.893 . S
C2311 C931 0.898 . S
C2313 C799 0.891 . S
C2322 C964 0.888 . S
C2324 C832 0.884 . S
C2333 C865 0.883 . S
C2335 C997 0.887 . S
C2344 C1030 0.894 . S
C2346 C898 0.895 . S
C2355 C1360 0.883 . S
C2357 C1426 0.887 . S
C2366 C1558 0.898 . S
C2368 C1525 0.891 . S
C2377 C18 1.471 . S
C2379 N904 1.461 . S
C2388 C51 1.472 . S
C2390 N805 1.461 . S
C2399 C84 1.472 . S
C2401 N838 1.458 . S
C2410 N871 1.460 . S
C2412 C117 1.472 . S
C2421 C150 1.472 . S
C2423 N178 1.458 . S
C2432 N211 1.462 . S
C2434 C183 1.472 . S
C2443 N244 1.459 . S
C2445 C216 1.472 . S
C2454 C249 1.473 . S
C2456 N145 1.461 . S
C2465 N1399 1.460 . S
C2467 C282 1.473 . S
C2476 C315 1.472 . S
C2478 N1432 1.461 . S
C2487 N673 1.458 . S
C2489 C348 1.472 . S
C2498 C381 1.472 . S
C2500 N1366 1.459 . S
C2509 C414 1.472 . S
C2511 N1531 1.462 . S
C2520 C447 1.472 . S
C2522 N541 1.462 . S
C2531 N1564 1.458 . S
C2533 C480 1.472 . S
C2542 N1498 1.463 . S
C2544 C513 1.472 . S
C2553 N310 1.460 . S
C2555 C546 1.472 . S
C2564 C579 1.473 . S
C2566 N1300 1.461 . S
C2575 C612 1.472 . S
C2577 N1201 1.461 . S
C2586 C645 1.473 . S
C2588 N1234 1.461 . S
C2597 N475 1.462 . S
C2599 C678 1.472 . S
C2608 C711 1.472 . S
C2610 N1168 1.459 . S
C2619 C744 1.473 . S
C2621 N1069 1.461 . S
C2630 N1135 1.459 . S
C2632 C777 1.472 . S
C2641 C810 1.473 . S
C2643 N112 1.461 . S
C2652 C843 1.471 . S
C2654 N13 1.460 . S
C2663 C876 1.472 . S
C2665 N46 1.462 . S
C2674 C909 1.472 . S
C2676 N79 1.461 . S
C2685 C942 1.472 . S
C2687 N970 1.461 . S
C2696 C975 1.472 . S
C2698 N1003 1.462 . S
C2707 C1008 1.472 . S
C2709 N1036 1.458 . S
C2718 N937 1.463 . S
C2720 C1041 1.472 . S
C2729 C1074 1.471 . S
C2731 N607 1.461 . S
C2740 C1107 1.473 . S
C2742 N640 1.461 . S
C2751 C1140 1.472 . S
C2753 N1465 1.459 . S
C2762 N574 1.460 . S
C2764 C1173 1.472 . S
C2773 N739 1.458 . S
C2775 C1206 1.472 . S
C2784 C1239 1.473 . S
C2786 N1333 1.461 . S
C2795 C1272 1.472 . S
C2797 N772 1.461 . S
C2806 C1305 1.472 . S
C2808 N706 1.462 . S
C2817 N1102 1.459 . S
C2819 C1338 1.472 . S
C2828 C1371 1.473 . S
C2830 N508 1.461 . S
C2839 C1404 1.471 . S
C2841 N409 1.460 . S
C2850 C1437 1.472 . S
C2852 N442 1.461 . S
C2861 N1267 1.459 . S
C2863 C1470 1.472 . S
C2872 N376 1.462 . S
C2874 C1503 1.472 . S
C2883 N277 1.462 . S
C2885 C1536 1.472 . S
C2894 N343 1.458 . S
C2896 C1569 1.472 . S
