# Generated by pormake.
# Topology wjf, (4)-cn, num edge types: 1
# Building blocks:
#     Node 0, Type 0, BuildingBlock: CEKHIL_clean_sbu_0, # of connection points: 4
#     Node 1, Type 0, BuildingBlock: CEKHIL_clean_sbu_0, # of connection points: 4
#     Node 2, Type 0, BuildingBlock: CEKHIL_clean_sbu_0, # of connection points: 4
#     Node 3, Type 0, BuildingBlock: CEKHIL_clean_sbu_0, # of connection points: 4
#     Node 4, Type 0, BuildingBlock: CEKHIL_clean_sbu_0, # of connection points: 4
#     Node 5, Type 0, BuildingBlock: CEKHIL_clean_sbu_0, # of connection points: 4
#     Node 6, Type 0, BuildingBlock: CEKHIL_clean_sbu_0, # of connection points: 4
#     Node 7, Type 0, BuildingBlock: CEKHIL_clean_sbu_0, # of connection points: 4
#     Node 8, Type 0, BuildingBlock: CEKHIL_clean_sbu_0, # of connection points: 4
#     Node 9, Type 0, BuildingBlock: CEKHIL_clean_sbu_0, # of connection points: 4
#     Node 10, Type 0, BuildingBlock: CEKHIL_clean_sbu_0, # of connection points: 4
#     Node 11, Type 0, BuildingBlock: CEKHIL_clean_sbu_0, # of connection points: 4
#     Edge 12, Type (0, 0), BuildingBlock: EYOCIG_clean_linker_4, # of connection points: 2
#     Edge 13, Type (0, 0), BuildingBlock: EYOCIG_clean_linker_4, # of connection points: 2
#     Edge 14, Type (0, 0), BuildingBlock: EYOCIG_clean_linker_4, # of connection points: 2
#     Edge 15, Type (0, 0), BuildingBlock: EYOCIG_clean_linker_4, # of connection points: 2
#     Edge 16, Type (0, 0), BuildingBlock: EYOCIG_clean_linker_4, # of connection points: 2
#     Edge 17, Type (0, 0), BuildingBlock: EYOCIG_clean_linker_4, # of connection points: 2
#     Edge 18, Type (0, 0), BuildingBlock: EYOCIG_clean_linker_4, # of connection points: 2
#     Edge 19, Type (0, 0), BuildingBlock: EYOCIG_clean_linker_4, # of connection points: 2
#     Edge 20, Type (0, 0), BuildingBlock: EYOCIG_clean_linker_4, # of connection points: 2
#     Edge 21, Type (0, 0), BuildingBlock: EYOCIG_clean_linker_4, # of connection points: 2
#     Edge 22, Type (0, 0), BuildingBlock: EYOCIG_clean_linker_4, # of connection points: 2
#     Edge 23, Type (0, 0), BuildingBlock: EYOCIG_clean_linker_4, # of connection points: 2
#     Edge 24, Type (0, 0), BuildingBlock: EYOCIG_clean_linker_4, # of connection points: 2
#     Edge 25, Type (0, 0), BuildingBlock: EYOCIG_clean_linker_4, # of connection points: 2
#     Edge 26, Type (0, 0), BuildingBlock: EYOCIG_clean_linker_4, # of connection points: 2
#     Edge 27, Type (0, 0), BuildingBlock: EYOCIG_clean_linker_4, # of connection points: 2
#     Edge 28, Type (0, 0), BuildingBlock: EYOCIG_clean_linker_4, # of connection points: 2
#     Edge 29, Type (0, 0), BuildingBlock: EYOCIG_clean_linker_4, # of connection points: 2
#     Edge 30, Type (0, 0), BuildingBlock: EYOCIG_clean_linker_4, # of connection points: 2
#     Edge 31, Type (0, 0), BuildingBlock: EYOCIG_clean_linker_4, # of connection points: 2
#     Edge 32, Type (0, 0), BuildingBlock: EYOCIG_clean_linker_4, # of connection points: 2
#     Edge 33, Type (0, 0), BuildingBlock: EYOCIG_clean_linker_4, # of connection points: 2
#     Edge 34, Type (0, 0), BuildingBlock: EYOCIG_clean_linker_4, # of connection points: 2
#     Edge 35, Type (0, 0), BuildingBlock: EYOCIG_clean_linker_4, # of connection points: 2
# Relax obj value: 0.109
# Max RMSD: 0.132
# Mean RMSD: 0.131
data_MOF--net-wjf--node1-CEKHIL_clean_sbu_0--edge1-EYOCIG_clean_linker_4
_symmetry_space_group_name_H-M    P1
_symmetry_Int_Tables_number       1
_symmetry_cell_setting            triclinic
loop_
_symmetry_equiv_pos_as_xyz
'x, y, z'
_cell_length_a     39.498307
_cell_length_b     39.487724
_cell_length_c     21.566823
_cell_angle_alpha  90.020326
_cell_angle_beta   89.987247
_cell_angle_gamma 119.99631
loop_
_atom_site_label
_atom_site_type_symbol
_atom_site_fract_x
_atom_site_fract_y
_atom_site_fract_z
_atom_type_partial_charge
Co0 Co 0.33979 0.38892 0.07869 0.0
O1 O 0.28355 0.35862 0.07285 0.0
O2 O 0.32012 0.41988 0.04046 0.0
C3 C 0.3449 0.37316 0.17701 0.0
O4 O 0.39803 0.42966 0.07761 0.0
Co5 Co 0.38774 0.3469 0.09617 0.0
O6 O 0.43332 0.40062 0.09972 0.0
C7 C 0.35416 0.34554 0.97479 0.0
C8 C 0.28571 0.38911 0.04631 0.0
C9 C 0.43071 0.43071 0.08722 0.0
O10 O 0.34421 0.36981 -0.00515 0.0
O11 O 0.36945 0.33013 0.00857 0.0
O12 O 0.33686 0.40068 0.16568 0.0
O13 O 0.34568 0.35352 0.1296 0.0
Co14 Co 0.96305 0.33375 0.41198 0.0
O15 O 0.93762 0.27753 0.40585 0.0
O16 O 0.91227 0.31365 0.37417 0.0
C17 C 0.98431 0.33899 0.51007 0.0
O18 O 0.97997 0.39188 0.41139 0.0
Co19 Co 0.05303 0.38242 0.42873 0.0
O20 O 0.04428 0.4276 0.43343 0.0
C21 C 0.02056 0.34852 0.30759 0.0
C22 C 0.90904 0.27938 0.37961 0.0
C23 C 1.01142 0.4247 0.42128 0.0
O24 O 0.98638 0.3385 0.32787 0.0
O25 O 0.05134 0.36393 0.3412 0.0
O26 O 0.94859 0.33054 0.49913 0.0
O27 O 1.00465 0.34003 0.46241 0.0
Co28 Co 0.64143 0.95697 0.74502 0.0
O29 O 0.67197 0.93123 0.74026 0.0
O30 O 0.61105 0.90642 0.70623 0.0
C31 C 0.65611 0.97753 0.84369 0.0
O32 O 0.60054 0.97429 0.74273 0.0
Co33 Co 0.68301 0.04686 0.76322 0.0
O34 O 0.62918 0.03847 0.76584 0.0
C35 C 0.68566 0.01515 0.64197 0.0
C36 C 0.64182 0.90288 0.71309 0.0
C37 C 0.59929 1.00581 0.75251 0.0
O38 O 0.66134 0.98081 0.66156 0.0
O39 O 0.70062 0.04573 0.67604 0.0
O40 O 0.6288 0.94197 0.83174 0.0
O41 O 0.67619 0.99812 0.79675 0.0
Co42 Co 0.69663 0.63487 0.07888 0.0
O43 O 0.7529 0.66537 0.07398 0.0
O44 O 0.71674 0.60406 0.0415 0.0
C45 C 0.69062 0.65058 0.1769 0.0
O46 O 0.63848 0.59393 0.07702 0.0
Co47 Co 0.64832 0.67661 0.09428 0.0
O48 O 0.60288 0.62279 0.09802 0.0
C49 C 0.6833 0.67839 0.97405 0.0
C50 C 0.75104 0.63495 0.04763 0.0
C51 C 0.60569 0.59275 0.08611 0.0
O52 O 0.6928 0.65389 -0.0054 0.0
O53 O 0.66779 0.69384 0.00728 0.0
O54 O 0.69896 0.62321 0.16612 0.0
O55 O 0.69017 0.67018 0.12922 0.0
Co56 Co 0.07323 0.69068 0.41181 0.0
O57 O 0.09909 0.74693 0.40555 0.0
O58 O 0.12377 0.71031 0.37328 0.0
C59 C 0.0526 0.68585 0.51023 0.0
O60 O 0.05584 0.63244 0.41121 0.0
Co61 Co 0.98334 0.64264 0.42991 0.0
O62 O 0.99164 0.59717 0.43422 0.0
C63 C 1.01523 0.67621 0.30838 0.0
C64 C 0.12739 0.74473 0.37893 0.0
C65 C 0.0243 0.59977 0.4215 0.0
O66 O 0.04948 0.686 0.32809 0.0
O67 O 0.98466 0.66106 0.34245 0.0
O68 O 0.08815 0.69392 0.49873 0.0
O69 O 0.03207 0.68488 0.46291 0.0
Co70 Co 0.39491 0.06744 0.74495 0.0
O71 O 0.36426 0.09308 0.74037 0.0
O72 O 0.42532 0.11817 0.70682 0.0
C73 C 0.3799 0.04638 0.84337 0.0
O74 O 0.43599 0.05038 0.74258 0.0
Co75 Co 0.35366 0.97753 0.7619 0.0
O76 O 0.40756 0.9861 0.76471 0.0
C77 C 0.35069 1.00976 0.64137 0.0
C78 C 0.39447 0.12158 0.71355 0.0
C79 C 0.43741 0.01892 0.75194 0.0
O80 O 0.37526 0.04397 0.66114 0.0
O81 O 0.33566 0.97907 0.67518 0.0
O82 O 0.40718 0.08202 0.83189 0.0
O83 O 0.36005 0.02597 0.79612 0.0
Co84 Co 0.64152 0.69065 0.56693 0.0
O85 O 0.67212 0.74691 0.57256 0.0
O86 O 0.61108 0.71066 0.606 0.0
C87 C 0.65646 0.68524 0.46818 0.0
O88 O 0.60052 0.63246 0.56826 0.0
Co89 Co 0.68302 0.64233 0.54825 0.0
O90 O 0.62914 0.59701 0.5444 0.0
C91 C 0.68572 0.67648 0.66968 0.0
C92 C 0.64192 0.74499 0.59973 0.0
C93 C 0.59922 0.59973 0.55771 0.0
O94 O 0.66116 0.68624 0.65036 0.0
O95 O 0.70085 0.66113 0.63535 0.0
O96 O 0.62921 0.69355 0.48019 0.0
O97 O 0.67637 0.68445 0.51515 0.0
Co98 Co 0.96263 0.63517 0.89939 0.0
O99 O 0.93682 0.6656 0.90541 0.0
O100 O 0.91186 0.60417 0.93711 0.0
C101 C 0.98392 0.65135 0.80134 0.0
O102 O 0.97999 0.5943 0.9001 0.0
Co103 Co 0.05263 0.6771 0.88291 0.0
O104 O 0.04436 0.62334 0.87837 0.0
C105 C 0.01988 0.67831 0.00388 0.0
C106 C 0.90838 0.63506 0.93164 0.0
C107 C 1.01161 0.59322 0.8904 0.0
O108 O 0.9858 0.65388 0.98356 0.0
O109 O 0.05069 0.69392 0.97034 0.0
O110 O 0.94829 0.62385 0.81223 0.0
O111 O 1.00415 0.67073 0.84903 0.0
Co112 Co 0.33958 0.95647 0.23286 0.0
O113 O 0.28331 0.93049 0.23775 0.0
O114 O 0.31965 0.90567 0.27064 0.0
C115 C 0.34539 0.97776 0.13465 0.0
O116 O 0.39786 0.97405 0.2347 0.0
Co117 Co 0.38741 0.04649 0.21666 0.0
O118 O 0.43303 0.0384 0.21265 0.0
C119 C 0.35251 0.01362 0.33707 0.0
C120 C 0.28528 0.90206 0.26429 0.0
C121 C 0.43051 1.00573 0.22503 0.0
O122 O 0.34332 0.9796 0.31693 0.0
O123 O 0.36779 0.04442 0.30352 0.0
O124 O 0.33728 0.94216 0.14578 0.0
O125 O 0.34576 0.99793 0.18212 0.0
Co126 Co 0.39497 0.33359 0.56634 0.0
O127 O 0.36429 0.27737 0.57258 0.0
O128 O 0.42567 0.31362 0.60453 0.0
C129 C 0.37906 0.33862 0.46809 0.0
O130 O 0.43605 0.39176 0.56694 0.0
Co131 Co 0.35347 0.38204 0.54892 0.0
O132 O 0.40733 0.42733 0.5446 0.0
C133 C 0.35201 0.34842 0.67031 0.0
C134 C 0.39469 0.27932 0.59904 0.0
C135 C 0.43732 0.42453 0.557 0.0
O136 O 0.37621 0.33839 0.65025 0.0
O137 O 0.33664 0.36374 0.63651 0.0
O138 O 0.40639 0.33029 0.4793 0.0
O139 O 0.35966 0.33969 0.51559 0.0
Co140 Co 0.07406 0.38941 0.89935 0.0
O141 O 0.09985 0.35896 0.90525 0.0
O142 O 0.12466 0.42022 0.93774 0.0
C143 C 0.05331 0.37374 0.80097 0.0
O144 O 0.0567 0.43028 0.90027 0.0
Co145 Co 0.98413 0.34759 0.88151 0.0
O146 O 0.9925 0.40139 0.8773 0.0
C147 C 1.01613 0.346 0.00299 0.0
C148 C 0.12822 0.3894 0.93184 0.0
C149 C 0.02517 0.43143 0.89007 0.0
O150 O 0.05039 0.37028 0.98312 0.0
O151 O 0.9855 0.33066 0.96906 0.0
O152 O 0.08888 0.40118 0.81242 0.0
O153 O 0.03282 0.35412 0.84829 0.0
Co154 Co 0.69686 0.06797 0.23282 0.0
O155 O 0.75311 0.09345 0.23792 0.0
O156 O 0.71722 0.1189 0.27033 0.0
C157 C 0.69091 0.04637 0.1348 0.0
O158 O 0.63872 0.05098 0.23443 0.0
Co159 Co 0.64824 0.97792 0.21698 0.0
O160 O 0.60303 0.98663 0.21258 0.0
C161 C 0.68293 1.01085 0.33751 0.0
C162 C 0.75143 0.12211 0.26425 0.0
C163 C 0.60591 0.01948 0.22479 0.0
O164 O 0.69274 0.04495 0.31703 0.0
O165 O 0.66733 0.97994 0.30419 0.0
O166 O 0.69943 0.08213 0.14565 0.0
O167 O 0.69026 0.0262 0.18243 0.0
C168 C 0.35715 0.35803 0.29166 0.0
C169 C 0.35163 0.36457 0.23906 0.0
C170 C 0.36401 0.35107 0.3535 0.0
C171 C 0.3705 0.34546 0.40608 0.0
C172 C 1.01212 0.35173 0.62447 0.0
C173 C 0.99991 0.346 0.57196 0.0
C174 C 0.02599 0.35874 0.68627 0.0
C175 C 0.03805 0.36524 0.73887 0.0
C176 C 0.67046 1.0045 0.95864 0.0
C177 C 0.66421 0.99255 0.90596 0.0
C178 C 0.6775 0.01832 0.02049 0.0
C179 C 0.68353 0.03061 0.07299 0.0
C180 C 0.67756 0.66558 0.29125 0.0
C181 C 0.68344 0.65917 0.23874 0.0
C182 C 0.67069 0.67252 0.35315 0.0
C183 C 0.6645 0.67827 0.40586 0.0
C184 C 1.01164 0.66675 0.68688 0.0
C185 C 0.9995 0.66014 0.73944 0.0
C186 C 0.02541 0.67365 0.62501 0.0
C187 C 0.03739 0.67915 0.57236 0.0
C188 C 0.35825 1.00538 0.02007 0.0
C189 C 0.35246 0.99329 0.07268 0.0
C190 C 0.36519 0.01909 0.95815 0.0
C191 C 0.37153 0.0311 0.90549 0.0
C192 C 0.18961 0.38768 0.97668 0.0
C193 C 0.16155 0.38836 0.95616 0.0
C194 C 0.22273 0.38761 0.00133 0.0
C195 C 0.25141 0.38818 0.02192 0.0
C196 C 0.84795 0.21627 0.33407 0.0
C197 C 0.87591 0.24496 0.35496 0.0
C198 C 0.81482 0.18323 0.30909 0.0
C199 C 0.786 0.15525 0.28852 0.0
C200 C 0.6439 0.84147 0.66906 0.0
C201 C 0.64311 0.86956 0.68924 0.0
C202 C 0.64393 0.80826 0.64465 0.0
C203 C 0.64316 0.77947 0.62406 0.0
C204 C 0.81416 0.63682 0.00251 0.0
C205 C 0.78547 0.63617 0.02321 0.0
C206 C 0.84719 0.63679 0.97737 0.0
C207 C 0.87517 0.63612 0.95643 0.0
C208 C 0.1888 0.80762 0.33356 0.0
C209 C 0.16071 0.779 0.35435 0.0
C210 C 0.22203 0.84067 0.30883 0.0
C211 C 0.25084 0.86873 0.28845 0.0
C212 C 0.39247 0.18297 0.66936 0.0
C213 C 0.39314 0.15485 0.68966 0.0
C214 C 0.3926 0.21617 0.64462 0.0
C215 C 0.39344 0.24493 0.62376 0.0
C216 C 0.34146 0.3383 0.79027 0.0
C217 C 0.34414 0.34398 0.7353 0.0
C218 C 0.3443 0.33524 0.85475 0.0
C219 C 0.34985 0.33779 0.90976 0.0
C220 C 0.02095 0.33835 0.18758 0.0
C221 C 0.02386 0.34402 0.24257 0.0
C222 C 1.01531 0.33543 0.12302 0.0
C223 C 1.01254 0.33814 0.068 0.0
C224 C 0.69672 0.01628 0.52201 0.0
C225 C 0.69379 0.01892 0.57703 0.0
C226 C 0.69376 1.01074 0.45742 0.0
C227 C 0.68782 1.00779 0.40249 0.0
C228 C 0.69718 0.68665 0.78955 0.0
C229 C 0.6941 0.68098 0.73455 0.0
C230 C 0.69433 0.68934 0.85415 0.0
C231 C 0.68833 0.68636 0.90907 0.0
C232 C 1.01436 0.68613 0.18841 0.0
C233 C 1.01159 0.68058 0.24342 0.0
C234 C 0.02005 0.68891 0.12386 0.0
C235 C 0.02305 0.68615 0.06889 0.0
C236 C 0.34154 0.01406 0.45692 0.0
C237 C 0.34748 0.01682 0.40199 0.0
C238 C 0.33892 1.00878 0.52158 0.0
C239 C 0.34226 1.00621 0.57652 0.0
C240 C 0.49898 0.49558 0.07914 0.0
C241 C 0.46669 0.46724 0.08199 0.0
C242 C 0.53759 0.52764 0.07887 0.0
C243 C 0.56983 0.55607 0.08135 0.0
C244 C 0.02095 0.53145 0.41447 0.0
C245 C 0.0249 0.56377 0.4168 0.0
C246 C 1.01433 0.4928 0.41445 0.0
C247 C 1.01051 0.46054 0.41671 0.0
C248 C 0.53445 1.00923 0.7437 0.0
C249 C 0.56274 1.00519 0.7468 0.0
C250 C 0.50249 0.01594 0.74359 0.0
C251 C 0.47411 0.01982 0.7465 0.0
C252 C 0.53425 0.53146 0.56481 0.0
C253 C 0.56259 0.5638 0.56251 0.0
C254 C 0.5023 0.49277 0.56453 0.0
C255 C 0.47396 0.46045 0.56196 0.0
C256 C 1.01499 0.52828 0.89732 0.0
C257 C 1.01099 0.55662 0.895 0.0
C258 C 0.02174 0.49634 0.8973 0.0
C259 C 0.02576 0.46802 0.89489 0.0
C260 C 0.53771 0.01632 0.23205 0.0
C261 C 0.57004 0.02031 0.22961 0.0
C262 C 0.49898 1.00945 0.23213 0.0
C263 C 0.46658 1.00528 0.22975 0.0
loop_
_geom_bond_atom_site_label_1
_geom_bond_atom_site_label_2
_geom_bond_distance
_geom_bond_site_symmetry_2
_ccdc_geom_bond_type
Co0 O1 2.216 . S
Co0 O2 2.091 . S
Co0 O4 2.004 . S
Co0 O10 2.021 1_554 S
Co0 O12 2.137 . S
Co0 O13 2.244 . S
O1 Co0 2.216 . S
O1 C8 1.247 . S
O2 Co0 2.091 . S
O2 C8 1.261 . S
C3 O12 1.247 . S
C3 O13 1.272 . S
O4 Co0 2.004 . S
O4 C9 1.259 . S
Co5 O6 2.061 . S
Co5 O11 2.052 1_554 S
Co5 O13 2.135 . S
O6 Co5 2.061 . S
O6 C9 1.235 . S
C7 O10 1.238 . S
C7 O11 1.241 . S
C8 O1 1.247 . S
C8 O2 1.261 . S
C9 O4 1.259 . S
C9 O6 1.235 . S
O10 Co0 2.021 1_556 S
O10 C7 1.238 . S
O11 Co5 2.052 1_556 S
O11 C7 1.241 . S
O12 Co0 2.137 . S
O12 C3 1.247 . S
O13 Co0 2.244 . S
O13 C3 1.272 . S
O13 Co5 2.135 . S
Co14 O15 2.216 . S
Co14 O16 2.091 . S
Co14 O18 2.004 . S
Co14 O24 2.021 . S
Co14 O26 2.137 . S
Co14 O27 2.244 1_655 S
O15 Co14 2.216 . S
O15 C22 1.247 . S
O16 Co14 2.091 . S
O16 C22 1.261 . S
C17 O26 1.247 . S
C17 O27 1.272 1_655 S
O18 Co14 2.004 . S
O18 C23 1.259 . S
Co19 O20 2.061 . S
Co19 O25 2.052 . S
Co19 O27 2.135 . S
O20 Co19 2.061 . S
O20 C23 1.235 1_455 S
C21 O24 1.238 1_455 S
C21 O25 1.241 . S
C22 O15 1.247 . S
C22 O16 1.261 . S
C23 O18 1.259 . S
C23 O20 1.235 1_655 S
O24 Co14 2.021 . S
O24 C21 1.238 1_655 S
O25 Co19 2.052 . S
O25 C21 1.241 . S
O26 Co14 2.137 . S
O26 C17 1.247 . S
O27 Co14 2.244 1_455 S
O27 C17 1.272 1_455 S
O27 Co19 2.135 . S
Co28 O29 2.216 . S
Co28 O30 2.091 . S
Co28 O32 2.004 . S
Co28 O38 2.021 . S
Co28 O40 2.137 . S
Co28 O41 2.244 1_565 S
O29 Co28 2.216 . S
O29 C36 1.247 . S
O30 Co28 2.091 . S
O30 C36 1.261 . S
C31 O40 1.247 . S
C31 O41 1.272 1_565 S
O32 Co28 2.004 . S
O32 C37 1.259 . S
Co33 O34 2.061 . S
Co33 O39 2.052 . S
Co33 O41 2.135 . S
O34 Co33 2.061 . S
O34 C37 1.235 1_545 S
C35 O38 1.238 1_545 S
C35 O39 1.241 . S
C36 O29 1.247 . S
C36 O30 1.261 . S
C37 O32 1.259 . S
C37 O34 1.235 1_565 S
O38 Co28 2.021 . S
O38 C35 1.238 1_565 S
O39 Co33 2.052 . S
O39 C35 1.241 . S
O40 Co28 2.137 . S
O40 C31 1.247 . S
O41 Co28 2.244 1_545 S
O41 C31 1.272 1_545 S
O41 Co33 2.135 . S
Co42 O43 2.216 . S
Co42 O44 2.091 . S
Co42 O46 2.004 . S
Co42 O52 2.021 1_554 S
Co42 O54 2.137 . S
Co42 O55 2.244 . S
O43 Co42 2.216 . S
O43 C50 1.247 . S
O44 Co42 2.091 . S
O44 C50 1.261 . S
C45 O54 1.247 . S
C45 O55 1.272 . S
O46 Co42 2.004 . S
O46 C51 1.259 . S
Co47 O48 2.061 . S
Co47 O53 2.052 1_554 S
Co47 O55 2.135 . S
O48 Co47 2.061 . S
O48 C51 1.235 . S
C49 O52 1.238 . S
C49 O53 1.241 . S
C50 O43 1.247 . S
C50 O44 1.261 . S
C51 O46 1.259 . S
C51 O48 1.235 . S
O52 Co42 2.021 1_556 S
O52 C49 1.238 . S
O53 Co47 2.052 1_556 S
O53 C49 1.241 . S
O54 Co42 2.137 . S
O54 C45 1.247 . S
O55 Co42 2.244 . S
O55 C45 1.272 . S
O55 Co47 2.135 . S
Co56 O57 2.216 . S
Co56 O58 2.091 . S
Co56 O60 2.004 . S
Co56 O66 2.021 . S
Co56 O68 2.137 . S
Co56 O69 2.244 1_455 S
O57 Co56 2.216 . S
O57 C64 1.247 . S
O58 Co56 2.091 . S
O58 C64 1.261 . S
C59 O68 1.247 . S
C59 O69 1.272 1_455 S
O60 Co56 2.004 . S
O60 C65 1.259 . S
Co61 O62 2.061 . S
Co61 O67 2.052 . S
Co61 O69 2.135 . S
O62 Co61 2.061 . S
O62 C65 1.235 1_655 S
C63 O66 1.238 1_655 S
C63 O67 1.241 . S
C64 O57 1.247 . S
C64 O58 1.261 . S
C65 O60 1.259 . S
C65 O62 1.235 1_455 S
O66 Co56 2.021 . S
O66 C63 1.238 1_455 S
O67 Co61 2.052 . S
O67 C63 1.241 . S
O68 Co56 2.137 . S
O68 C59 1.247 . S
O69 Co56 2.244 1_655 S
O69 C59 1.272 1_655 S
O69 Co61 2.135 . S
Co70 O71 2.216 . S
Co70 O72 2.091 . S
Co70 O74 2.004 . S
Co70 O80 2.021 . S
Co70 O82 2.137 . S
Co70 O83 2.244 1_545 S
O71 Co70 2.216 . S
O71 C78 1.247 . S
O72 Co70 2.091 . S
O72 C78 1.261 . S
C73 O82 1.247 . S
C73 O83 1.272 1_545 S
O74 Co70 2.004 . S
O74 C79 1.259 . S
Co75 O76 2.061 . S
Co75 O81 2.052 . S
Co75 O83 2.135 . S
O76 Co75 2.061 . S
O76 C79 1.235 1_565 S
C77 O80 1.238 1_565 S
C77 O81 1.241 . S
C78 O71 1.247 . S
C78 O72 1.261 . S
C79 O74 1.259 . S
C79 O76 1.235 1_545 S
O80 Co70 2.021 . S
O80 C77 1.238 1_545 S
O81 Co75 2.052 . S
O81 C77 1.241 . S
O82 Co70 2.137 . S
O82 C73 1.247 . S
O83 Co70 2.244 1_565 S
O83 C73 1.272 1_565 S
O83 Co75 2.135 . S
Co84 O85 2.216 . S
Co84 O86 2.091 . S
Co84 O88 2.004 . S
Co84 O94 2.021 . S
Co84 O96 2.137 . S
Co84 O97 2.244 . S
O85 Co84 2.216 . S
O85 C92 1.247 . S
O86 Co84 2.091 . S
O86 C92 1.261 . S
C87 O96 1.247 . S
C87 O97 1.272 . S
O88 Co84 2.004 . S
O88 C93 1.259 . S
Co89 O90 2.061 . S
Co89 O95 2.052 . S
Co89 O97 2.135 . S
O90 Co89 2.061 . S
O90 C93 1.235 . S
C91 O94 1.238 . S
C91 O95 1.241 . S
C92 O85 1.247 . S
C92 O86 1.261 . S
C93 O88 1.259 . S
C93 O90 1.235 . S
O94 Co84 2.021 . S
O94 C91 1.238 . S
O95 Co89 2.052 . S
O95 C91 1.241 . S
O96 Co84 2.137 . S
O96 C87 1.247 . S
O97 Co84 2.244 . S
O97 C87 1.272 . S
O97 Co89 2.135 . S
Co98 O99 2.216 . S
Co98 O100 2.091 . S
Co98 O102 2.004 . S
Co98 O108 2.021 1_556 S
Co98 O110 2.137 . S
Co98 O111 2.244 1_655 S
O99 Co98 2.216 . S
O99 C106 1.247 . S
O100 Co98 2.091 . S
O100 C106 1.261 . S
C101 O110 1.247 . S
C101 O111 1.272 1_655 S
O102 Co98 2.004 . S
O102 C107 1.259 . S
Co103 O104 2.061 . S
Co103 O109 2.052 1_556 S
Co103 O111 2.135 . S
O104 Co103 2.061 . S
O104 C107 1.235 1_455 S
C105 O108 1.238 1_455 S
C105 O109 1.241 . S
C106 O99 1.247 . S
C106 O100 1.261 . S
C107 O102 1.259 . S
C107 O104 1.235 1_655 S
O108 Co98 2.021 1_554 S
O108 C105 1.238 1_655 S
O109 Co103 2.052 1_554 S
O109 C105 1.241 . S
O110 Co98 2.137 . S
O110 C101 1.247 . S
O111 Co98 2.244 1_455 S
O111 C101 1.272 1_455 S
O111 Co103 2.135 . S
Co112 O113 2.216 . S
Co112 O114 2.091 . S
Co112 O116 2.004 . S
Co112 O122 2.021 . S
Co112 O124 2.137 . S
Co112 O125 2.244 1_565 S
O113 Co112 2.216 . S
O113 C120 1.247 . S
O114 Co112 2.091 . S
O114 C120 1.261 . S
C115 O124 1.247 . S
C115 O125 1.272 1_565 S
O116 Co112 2.004 . S
O116 C121 1.259 . S
Co117 O118 2.061 . S
Co117 O123 2.052 . S
Co117 O125 2.135 . S
O118 Co117 2.061 . S
O118 C121 1.235 1_545 S
C119 O122 1.238 1_545 S
C119 O123 1.241 . S
C120 O113 1.247 . S
C120 O114 1.261 . S
C121 O116 1.259 . S
C121 O118 1.235 1_565 S
O122 Co112 2.021 . S
O122 C119 1.238 1_565 S
O123 Co117 2.052 . S
O123 C119 1.241 . S
O124 Co112 2.137 . S
O124 C115 1.247 . S
O125 Co112 2.244 1_545 S
O125 C115 1.272 1_545 S
O125 Co117 2.135 . S
Co126 O127 2.216 . S
Co126 O128 2.091 . S
Co126 O130 2.004 . S
Co126 O136 2.021 . S
Co126 O138 2.137 . S
Co126 O139 2.244 . S
O127 Co126 2.216 . S
O127 C134 1.247 . S
O128 Co126 2.091 . S
O128 C134 1.261 . S
C129 O138 1.247 . S
C129 O139 1.272 . S
O130 Co126 2.004 . S
O130 C135 1.259 . S
Co131 O132 2.061 . S
Co131 O137 2.052 . S
Co131 O139 2.135 . S
O132 Co131 2.061 . S
O132 C135 1.235 . S
C133 O136 1.238 . S
C133 O137 1.241 . S
C134 O127 1.247 . S
C134 O128 1.261 . S
C135 O130 1.259 . S
C135 O132 1.235 . S
O136 Co126 2.021 . S
O136 C133 1.238 . S
O137 Co131 2.052 . S
O137 C133 1.241 . S
O138 Co126 2.137 . S
O138 C129 1.247 . S
O139 Co126 2.244 . S
O139 C129 1.272 . S
O139 Co131 2.135 . S
Co140 O141 2.216 . S
Co140 O142 2.091 . S
Co140 O144 2.004 . S
Co140 O150 2.021 1_556 S
Co140 O152 2.137 . S
Co140 O153 2.244 1_455 S
O141 Co140 2.216 . S
O141 C148 1.247 . S
O142 Co140 2.091 . S
O142 C148 1.261 . S
C143 O152 1.247 . S
C143 O153 1.272 1_455 S
O144 Co140 2.004 . S
O144 C149 1.259 . S
Co145 O146 2.061 . S
Co145 O151 2.052 1_556 S
Co145 O153 2.135 . S
O146 Co145 2.061 . S
O146 C149 1.235 1_655 S
C147 O150 1.238 1_655 S
C147 O151 1.241 . S
C148 O141 1.247 . S
C148 O142 1.261 . S
C149 O144 1.259 . S
C149 O146 1.235 1_455 S
O150 Co140 2.021 1_554 S
O150 C147 1.238 1_455 S
O151 Co145 2.052 1_554 S
O151 C147 1.241 . S
O152 Co140 2.137 . S
O152 C143 1.247 . S
O153 Co140 2.244 1_655 S
O153 C143 1.272 1_655 S
O153 Co145 2.135 . S
Co154 O155 2.216 . S
Co154 O156 2.091 . S
Co154 O158 2.004 . S
Co154 O164 2.021 . S
Co154 O166 2.137 . S
Co154 O167 2.244 1_545 S
O155 Co154 2.216 . S
O155 C162 1.247 . S
O156 Co154 2.091 . S
O156 C162 1.261 . S
C157 O166 1.247 . S
C157 O167 1.272 1_545 S
O158 Co154 2.004 . S
O158 C163 1.259 . S
Co159 O160 2.061 . S
Co159 O165 2.052 . S
Co159 O167 2.135 . S
O160 Co159 2.061 . S
O160 C163 1.235 1_565 S
C161 O164 1.238 1_565 S
C161 O165 1.241 . S
C162 O155 1.247 . S
C162 O156 1.261 . S
C163 O158 1.259 . S
C163 O160 1.235 1_545 S
O164 Co154 2.021 . S
O164 C161 1.238 1_545 S
O165 Co159 2.052 . S
O165 C161 1.241 . S
O166 Co154 2.137 . S
O166 C157 1.247 . S
O167 Co154 2.244 1_565 S
O167 C157 1.272 1_565 S
O167 Co159 2.135 . S
C168 C169 1.170 . S
C168 C170 1.380 . S
C169 C168 1.170 . S
C170 C168 1.380 . S
C170 C171 1.170 . S
C171 C170 1.170 . S
C172 C173 1.170 1_455 S
C172 C174 1.380 . S
C173 C172 1.170 1_655 S
C174 C172 1.380 . S
C174 C175 1.170 . S
C175 C174 1.170 . S
C176 C177 1.170 . S
C176 C178 1.380 1_566 S
C177 C176 1.170 . S
C178 C176 1.380 1_544 S
C178 C179 1.171 . S
C179 C178 1.171 . S
C180 C181 1.170 . S
C180 C182 1.380 . S
C181 C180 1.170 . S
C182 C180 1.380 . S
C182 C183 1.170 . S
C183 C182 1.170 . S
C184 C185 1.170 . S
C184 C186 1.380 1_655 S
C185 C184 1.170 . S
C186 C184 1.380 1_455 S
C186 C187 1.170 . S
C187 C186 1.170 . S
C188 C189 1.170 . S
C188 C190 1.380 1_554 S
C189 C188 1.170 . S
C190 C188 1.380 1_556 S
C190 C191 1.170 1_565 S
C191 C190 1.170 1_545 S
C192 C193 1.170 . S
C192 C194 1.380 1_556 S
C193 C192 1.170 . S
C194 C192 1.380 1_554 S
C194 C195 1.170 . S
C195 C194 1.170 . S
C196 C197 1.170 . S
C196 C198 1.380 . S
C197 C196 1.170 . S
C198 C196 1.380 . S
C198 C199 1.170 . S
C199 C198 1.170 . S
C200 C201 1.170 . S
C200 C202 1.380 . S
C201 C200 1.170 . S
C202 C200 1.380 . S
C202 C203 1.170 . S
C203 C202 1.170 . S
C204 C205 1.170 . S
C204 C206 1.380 1_554 S
C205 C204 1.170 . S
C206 C204 1.380 1_556 S
C206 C207 1.170 . S
C207 C206 1.170 . S
C208 C209 1.170 . S
C208 C210 1.380 . S
C209 C208 1.170 . S
C210 C208 1.380 . S
C210 C211 1.170 . S
C211 C210 1.170 . S
C212 C213 1.170 . S
C212 C214 1.380 . S
C213 C212 1.170 . S
C214 C212 1.380 . S
C214 C215 1.170 . S
C215 C214 1.170 . S
C216 C217 1.170 . S
C216 C218 1.380 . S
C217 C216 1.170 . S
C218 C216 1.380 . S
C218 C219 1.170 . S
C219 C218 1.170 . S
C220 C221 1.171 . S
C220 C222 1.380 1_455 S
C221 C220 1.171 . S
C222 C220 1.380 1_655 S
C222 C223 1.170 . S
C223 C222 1.170 . S
C224 C225 1.170 . S
C224 C226 1.380 . S
C225 C224 1.170 . S
C226 C224 1.380 . S
C226 C227 1.170 1_545 S
C227 C226 1.170 1_565 S
C228 C229 1.170 . S
C228 C230 1.380 . S
C229 C228 1.170 . S
C230 C228 1.380 . S
C230 C231 1.170 . S
C231 C230 1.170 . S
C232 C233 1.170 . S
C232 C234 1.380 . S
C233 C232 1.170 . S
C234 C232 1.380 . S
C234 C235 1.170 1_655 S
C235 C234 1.170 1_455 S
C236 C237 1.170 1_565 S
C236 C238 1.380 . S
C237 C236 1.170 1_545 S
C238 C236 1.380 . S
C238 C239 1.170 . S
C239 C238 1.170 . S
C240 C241 1.170 . S
C240 C242 1.380 . S
C241 C240 1.170 . S
C242 C240 1.380 . S
C242 C243 1.170 . S
C243 C242 1.170 . S
C244 C245 1.170 . S
C244 C246 1.380 1_455 S
C245 C244 1.170 . S
C246 C244 1.380 1_655 S
C246 C247 1.170 . S
C247 C246 1.170 . S
C248 C249 1.170 . S
C248 C250 1.380 1_565 S
C249 C248 1.170 . S
C250 C248 1.380 1_545 S
C250 C251 1.170 . S
C251 C250 1.170 . S
C252 C253 1.170 . S
C252 C254 1.380 . S
C253 C252 1.170 . S
C254 C252 1.380 . S
C254 C255 1.170 . S
C255 C254 1.170 . S
C256 C257 1.170 . S
C256 C258 1.380 1_655 S
C257 C256 1.170 . S
C258 C256 1.380 1_455 S
C258 C259 1.170 . S
C259 C258 1.170 . S
C260 C261 1.170 . S
C260 C262 1.380 1_545 S
C261 C260 1.170 . S
C262 C260 1.380 1_565 S
C262 C263 1.170 . S
C263 C262 1.170 . S
C169 C3 1.528 . S
C171 C129 1.525 . S
C173 C17 1.526 . S
C175 C143 1.511 . S
C177 C31 1.499 . S
C179 C157 1.507 . S
C181 C45 1.513 . S
C183 C87 1.500 . S
C185 C101 1.524 . S
C187 C59 1.528 . S
C189 C115 1.507 . S
C191 C73 1.523 . S
C193 C148 1.587 . S
C195 C8 1.576 . S
C197 C22 1.581 . S
C199 C162 1.594 . S
C201 C36 1.595 . S
C203 C92 1.582 . S
C205 C50 1.580 . S
C207 C106 1.579 . S
C209 C64 1.578 . S
C211 C120 1.592 . S
C213 C78 1.594 . S
C215 C134 1.580 . S
C217 C133 0.959 . S
C219 C7 0.964 . S
C221 C21 0.958 . S
C223 C147 0.965 . S
C225 C35 0.976 . S
C227 C161 0.957 . S
C229 C91 0.986 . S
C231 C49 0.960 . S
C233 C63 0.977 . S
C235 C105 0.957 . S
C237 C119 0.970 . S
C239 C77 0.995 . S
C241 C9 1.498 . S
C243 C51 1.518 . S
C245 C65 1.496 . S
C247 C23 1.509 . S
C249 C37 1.502 . S
C251 C79 1.517 . S
C253 C93 1.500 . S
C255 C135 1.503 . S
C257 C107 1.503 . S
C259 C149 1.500 . S
C261 C163 1.509 . S
C263 C121 1.496 . S
