# Generated by pormake.
# Topology ana-e, (6)-cn, num edge types: 1
# Building blocks:
#     Node 0, Type 0, BuildingBlock: MIFKUJ_clean_sbu_0, # of connection points: 6
#     Node 1, Type 0, BuildingBlock: MIFKUJ_clean_sbu_0, # of connection points: 6
#     Node 2, Type 0, BuildingBlock: MIFKUJ_clean_sbu_0, # of connection points: 6
#     Node 3, Type 0, BuildingBlock: MIFKUJ_clean_sbu_0, # of connection points: 6
#     Node 4, Type 0, BuildingBlock: MIFKUJ_clean_sbu_0, # of connection points: 6
#     Node 5, Type 0, BuildingBlock: MIFKUJ_clean_sbu_0, # of connection points: 6
#     Node 6, Type 0, BuildingBlock: MIFKUJ_clean_sbu_0, # of connection points: 6
#     Node 7, Type 0, BuildingBlock: MIFKUJ_clean_sbu_0, # of connection points: 6
#     Node 8, Type 0, BuildingBlock: MIFKUJ_clean_sbu_0, # of connection points: 6
#     Node 9, Type 0, BuildingBlock: MIFKUJ_clean_sbu_0, # of connection points: 6
#     Node 10, Type 0, BuildingBlock: MIFKUJ_clean_sbu_0, # of connection points: 6
#     Node 11, Type 0, BuildingBlock: MIFKUJ_clean_sbu_0, # of connection points: 6
#     Node 12, Type 0, BuildingBlock: MIFKUJ_clean_sbu_0, # of connection points: 6
#     Node 13, Type 0, BuildingBlock: MIFKUJ_clean_sbu_0, # of connection points: 6
#     Node 14, Type 0, BuildingBlock: MIFKUJ_clean_sbu_0, # of connection points: 6
#     Node 15, Type 0, BuildingBlock: MIFKUJ_clean_sbu_0, # of connection points: 6
#     Node 16, Type 0, BuildingBlock: MIFKUJ_clean_sbu_0, # of connection points: 6
#     Node 17, Type 0, BuildingBlock: MIFKUJ_clean_sbu_0, # of connection points: 6
#     Node 18, Type 0, BuildingBlock: MIFKUJ_clean_sbu_0, # of connection points: 6
#     Node 19, Type 0, BuildingBlock: MIFKUJ_clean_sbu_0, # of connection points: 6
#     Node 20, Type 0, BuildingBlock: MIFKUJ_clean_sbu_0, # of connection points: 6
#     Node 21, Type 0, BuildingBlock: MIFKUJ_clean_sbu_0, # of connection points: 6
#     Node 22, Type 0, BuildingBlock: MIFKUJ_clean_sbu_0, # of connection points: 6
#     Node 23, Type 0, BuildingBlock: MIFKUJ_clean_sbu_0, # of connection points: 6
#     Node 24, Type 0, BuildingBlock: MIFKUJ_clean_sbu_0, # of connection points: 6
#     Node 25, Type 0, BuildingBlock: MIFKUJ_clean_sbu_0, # of connection points: 6
#     Node 26, Type 0, BuildingBlock: MIFKUJ_clean_sbu_0, # of connection points: 6
#     Node 27, Type 0, BuildingBlock: MIFKUJ_clean_sbu_0, # of connection points: 6
#     Node 28, Type 0, BuildingBlock: MIFKUJ_clean_sbu_0, # of connection points: 6
#     Node 29, Type 0, BuildingBlock: MIFKUJ_clean_sbu_0, # of connection points: 6
#     Node 30, Type 0, BuildingBlock: MIFKUJ_clean_sbu_0, # of connection points: 6
#     Node 31, Type 0, BuildingBlock: MIFKUJ_clean_sbu_0, # of connection points: 6
#     Node 32, Type 0, BuildingBlock: MIFKUJ_clean_sbu_0, # of connection points: 6
#     Node 33, Type 0, BuildingBlock: MIFKUJ_clean_sbu_0, # of connection points: 6
#     Node 34, Type 0, BuildingBlock: MIFKUJ_clean_sbu_0, # of connection points: 6
#     Node 35, Type 0, BuildingBlock: MIFKUJ_clean_sbu_0, # of connection points: 6
#     Node 36, Type 0, BuildingBlock: MIFKUJ_clean_sbu_0, # of connection points: 6
#     Node 37, Type 0, BuildingBlock: MIFKUJ_clean_sbu_0, # of connection points: 6
#     Node 38, Type 0, BuildingBlock: MIFKUJ_clean_sbu_0, # of connection points: 6
#     Node 39, Type 0, BuildingBlock: MIFKUJ_clean_sbu_0, # of connection points: 6
#     Node 40, Type 0, BuildingBlock: MIFKUJ_clean_sbu_0, # of connection points: 6
#     Node 41, Type 0, BuildingBlock: MIFKUJ_clean_sbu_0, # of connection points: 6
#     Node 42, Type 0, BuildingBlock: MIFKUJ_clean_sbu_0, # of connection points: 6
#     Node 43, Type 0, BuildingBlock: MIFKUJ_clean_sbu_0, # of connection points: 6
#     Node 44, Type 0, BuildingBlock: MIFKUJ_clean_sbu_0, # of connection points: 6
#     Node 45, Type 0, BuildingBlock: MIFKUJ_clean_sbu_0, # of connection points: 6
#     Node 46, Type 0, BuildingBlock: MIFKUJ_clean_sbu_0, # of connection points: 6
#     Node 47, Type 0, BuildingBlock: MIFKUJ_clean_sbu_0, # of connection points: 6
#     Node 48, Type 0, BuildingBlock: MIFKUJ_clean_sbu_0, # of connection points: 6
#     Node 49, Type 0, BuildingBlock: MIFKUJ_clean_sbu_0, # of connection points: 6
#     Node 50, Type 0, BuildingBlock: MIFKUJ_clean_sbu_0, # of connection points: 6
#     Node 51, Type 0, BuildingBlock: MIFKUJ_clean_sbu_0, # of connection points: 6
#     Node 52, Type 0, BuildingBlock: MIFKUJ_clean_sbu_0, # of connection points: 6
#     Node 53, Type 0, BuildingBlock: MIFKUJ_clean_sbu_0, # of connection points: 6
#     Node 54, Type 0, BuildingBlock: MIFKUJ_clean_sbu_0, # of connection points: 6
#     Node 55, Type 0, BuildingBlock: MIFKUJ_clean_sbu_0, # of connection points: 6
#     Node 56, Type 0, BuildingBlock: MIFKUJ_clean_sbu_0, # of connection points: 6
#     Node 57, Type 0, BuildingBlock: MIFKUJ_clean_sbu_0, # of connection points: 6
#     Node 58, Type 0, BuildingBlock: MIFKUJ_clean_sbu_0, # of connection points: 6
#     Node 59, Type 0, BuildingBlock: MIFKUJ_clean_sbu_0, # of connection points: 6
#     Node 60, Type 0, BuildingBlock: MIFKUJ_clean_sbu_0, # of connection points: 6
#     Node 61, Type 0, BuildingBlock: MIFKUJ_clean_sbu_0, # of connection points: 6
#     Node 62, Type 0, BuildingBlock: MIFKUJ_clean_sbu_0, # of connection points: 6
#     Node 63, Type 0, BuildingBlock: MIFKUJ_clean_sbu_0, # of connection points: 6
#     Node 64, Type 0, BuildingBlock: MIFKUJ_clean_sbu_0, # of connection points: 6
#     Node 65, Type 0, BuildingBlock: MIFKUJ_clean_sbu_0, # of connection points: 6
#     Node 66, Type 0, BuildingBlock: MIFKUJ_clean_sbu_0, # of connection points: 6
#     Node 67, Type 0, BuildingBlock: MIFKUJ_clean_sbu_0, # of connection points: 6
#     Node 68, Type 0, BuildingBlock: MIFKUJ_clean_sbu_0, # of connection points: 6
#     Node 69, Type 0, BuildingBlock: MIFKUJ_clean_sbu_0, # of connection points: 6
#     Node 70, Type 0, BuildingBlock: MIFKUJ_clean_sbu_0, # of connection points: 6
#     Node 71, Type 0, BuildingBlock: MIFKUJ_clean_sbu_0, # of connection points: 6
#     Node 72, Type 0, BuildingBlock: MIFKUJ_clean_sbu_0, # of connection points: 6
#     Node 73, Type 0, BuildingBlock: MIFKUJ_clean_sbu_0, # of connection points: 6
#     Node 74, Type 0, BuildingBlock: MIFKUJ_clean_sbu_0, # of connection points: 6
#     Node 75, Type 0, BuildingBlock: MIFKUJ_clean_sbu_0, # of connection points: 6
#     Node 76, Type 0, BuildingBlock: MIFKUJ_clean_sbu_0, # of connection points: 6
#     Node 77, Type 0, BuildingBlock: MIFKUJ_clean_sbu_0, # of connection points: 6
#     Node 78, Type 0, BuildingBlock: MIFKUJ_clean_sbu_0, # of connection points: 6
#     Node 79, Type 0, BuildingBlock: MIFKUJ_clean_sbu_0, # of connection points: 6
#     Node 80, Type 0, BuildingBlock: MIFKUJ_clean_sbu_0, # of connection points: 6
#     Node 81, Type 0, BuildingBlock: MIFKUJ_clean_sbu_0, # of connection points: 6
#     Node 82, Type 0, BuildingBlock: MIFKUJ_clean_sbu_0, # of connection points: 6
#     Node 83, Type 0, BuildingBlock: MIFKUJ_clean_sbu_0, # of connection points: 6
#     Node 84, Type 0, BuildingBlock: MIFKUJ_clean_sbu_0, # of connection points: 6
#     Node 85, Type 0, BuildingBlock: MIFKUJ_clean_sbu_0, # of connection points: 6
#     Node 86, Type 0, BuildingBlock: MIFKUJ_clean_sbu_0, # of connection points: 6
#     Node 87, Type 0, BuildingBlock: MIFKUJ_clean_sbu_0, # of connection points: 6
#     Node 88, Type 0, BuildingBlock: MIFKUJ_clean_sbu_0, # of connection points: 6
#     Node 89, Type 0, BuildingBlock: MIFKUJ_clean_sbu_0, # of connection points: 6
#     Node 90, Type 0, BuildingBlock: MIFKUJ_clean_sbu_0, # of connection points: 6
#     Node 91, Type 0, BuildingBlock: MIFKUJ_clean_sbu_0, # of connection points: 6
#     Node 92, Type 0, BuildingBlock: MIFKUJ_clean_sbu_0, # of connection points: 6
#     Node 93, Type 0, BuildingBlock: MIFKUJ_clean_sbu_0, # of connection points: 6
#     Node 94, Type 0, BuildingBlock: MIFKUJ_clean_sbu_0, # of connection points: 6
#     Node 95, Type 0, BuildingBlock: MIFKUJ_clean_sbu_0, # of connection points: 6
#     Edge 96, Type (0, 0), BuildingBlock: AJUNOK_clean_linker_0, # of connection points: 2
#     Edge 97, Type (0, 0), BuildingBlock: AJUNOK_clean_linker_0, # of connection points: 2
#     Edge 98, Type (0, 0), BuildingBlock: AJUNOK_clean_linker_0, # of connection points: 2
#     Edge 99, Type (0, 0), BuildingBlock: AJUNOK_clean_linker_0, # of connection points: 2
#     Edge 100, Type (0, 0), BuildingBlock: AJUNOK_clean_linker_0, # of connection points: 2
#     Edge 101, Type (0, 0), BuildingBlock: AJUNOK_clean_linker_0, # of connection points: 2
#     Edge 102, Type (0, 0), BuildingBlock: AJUNOK_clean_linker_0, # of connection points: 2
#     Edge 103, Type (0, 0), BuildingBlock: AJUNOK_clean_linker_0, # of connection points: 2
#     Edge 104, Type (0, 0), BuildingBlock: AJUNOK_clean_linker_0, # of connection points: 2
#     Edge 105, Type (0, 0), BuildingBlock: AJUNOK_clean_linker_0, # of connection points: 2
#     Edge 106, Type (0, 0), BuildingBlock: AJUNOK_clean_linker_0, # of connection points: 2
#     Edge 107, Type (0, 0), BuildingBlock: AJUNOK_clean_linker_0, # of connection points: 2
#     Edge 108, Type (0, 0), BuildingBlock: AJUNOK_clean_linker_0, # of connection points: 2
#     Edge 109, Type (0, 0), BuildingBlock: AJUNOK_clean_linker_0, # of connection points: 2
#     Edge 110, Type (0, 0), BuildingBlock: AJUNOK_clean_linker_0, # of connection points: 2
#     Edge 111, Type (0, 0), BuildingBlock: AJUNOK_clean_linker_0, # of connection points: 2
#     Edge 112, Type (0, 0), BuildingBlock: AJUNOK_clean_linker_0, # of connection points: 2
#     Edge 113, Type (0, 0), BuildingBlock: AJUNOK_clean_linker_0, # of connection points: 2
#     Edge 114, Type (0, 0), BuildingBlock: AJUNOK_clean_linker_0, # of connection points: 2
#     Edge 115, Type (0, 0), BuildingBlock: AJUNOK_clean_linker_0, # of connection points: 2
#     Edge 116, Type (0, 0), BuildingBlock: AJUNOK_clean_linker_0, # of connection points: 2
#     Edge 117, Type (0, 0), BuildingBlock: AJUNOK_clean_linker_0, # of connection points: 2
#     Edge 118, Type (0, 0), BuildingBlock: AJUNOK_clean_linker_0, # of connection points: 2
#     Edge 119, Type (0, 0), BuildingBlock: AJUNOK_clean_linker_0, # of connection points: 2
#     Edge 120, Type (0, 0), BuildingBlock: AJUNOK_clean_linker_0, # of connection points: 2
#     Edge 121, Type (0, 0), BuildingBlock: AJUNOK_clean_linker_0, # of connection points: 2
#     Edge 122, Type (0, 0), BuildingBlock: AJUNOK_clean_linker_0, # of connection points: 2
#     Edge 123, Type (0, 0), BuildingBlock: AJUNOK_clean_linker_0, # of connection points: 2
#     Edge 124, Type (0, 0), BuildingBlock: AJUNOK_clean_linker_0, # of connection points: 2
#     Edge 125, Type (0, 0), BuildingBlock: AJUNOK_clean_linker_0, # of connection points: 2
#     Edge 126, Type (0, 0), BuildingBlock: AJUNOK_clean_linker_0, # of connection points: 2
#     Edge 127, Type (0, 0), BuildingBlock: AJUNOK_clean_linker_0, # of connection points: 2
#     Edge 128, Type (0, 0), BuildingBlock: AJUNOK_clean_linker_0, # of connection points: 2
#     Edge 129, Type (0, 0), BuildingBlock: AJUNOK_clean_linker_0, # of connection points: 2
#     Edge 130, Type (0, 0), BuildingBlock: AJUNOK_clean_linker_0, # of connection points: 2
#     Edge 131, Type (0, 0), BuildingBlock: AJUNOK_clean_linker_0, # of connection points: 2
#     Edge 132, Type (0, 0), BuildingBlock: AJUNOK_clean_linker_0, # of connection points: 2
#     Edge 133, Type (0, 0), BuildingBlock: AJUNOK_clean_linker_0, # of connection points: 2
#     Edge 134, Type (0, 0), BuildingBlock: AJUNOK_clean_linker_0, # of connection points: 2
#     Edge 135, Type (0, 0), BuildingBlock: AJUNOK_clean_linker_0, # of connection points: 2
#     Edge 136, Type (0, 0), BuildingBlock: AJUNOK_clean_linker_0, # of connection points: 2
#     Edge 137, Type (0, 0), BuildingBlock: AJUNOK_clean_linker_0, # of connection points: 2
#     Edge 138, Type (0, 0), BuildingBlock: AJUNOK_clean_linker_0, # of connection points: 2
#     Edge 139, Type (0, 0), BuildingBlock: AJUNOK_clean_linker_0, # of connection points: 2
#     Edge 140, Type (0, 0), BuildingBlock: AJUNOK_clean_linker_0, # of connection points: 2
#     Edge 141, Type (0, 0), BuildingBlock: AJUNOK_clean_linker_0, # of connection points: 2
#     Edge 142, Type (0, 0), BuildingBlock: AJUNOK_clean_linker_0, # of connection points: 2
#     Edge 143, Type (0, 0), BuildingBlock: AJUNOK_clean_linker_0, # of connection points: 2
#     Edge 144, Type (0, 0), BuildingBlock: AJUNOK_clean_linker_0, # of connection points: 2
#     Edge 145, Type (0, 0), BuildingBlock: AJUNOK_clean_linker_0, # of connection points: 2
#     Edge 146, Type (0, 0), BuildingBlock: AJUNOK_clean_linker_0, # of connection points: 2
#     Edge 147, Type (0, 0), BuildingBlock: AJUNOK_clean_linker_0, # of connection points: 2
#     Edge 148, Type (0, 0), BuildingBlock: AJUNOK_clean_linker_0, # of connection points: 2
#     Edge 149, Type (0, 0), BuildingBlock: AJUNOK_clean_linker_0, # of connection points: 2
#     Edge 150, Type (0, 0), BuildingBlock: AJUNOK_clean_linker_0, # of connection points: 2
#     Edge 151, Type (0, 0), BuildingBlock: AJUNOK_clean_linker_0, # of connection points: 2
#     Edge 152, Type (0, 0), BuildingBlock: AJUNOK_clean_linker_0, # of connection points: 2
#     Edge 153, Type (0, 0), BuildingBlock: AJUNOK_clean_linker_0, # of connection points: 2
#     Edge 154, Type (0, 0), BuildingBlock: AJUNOK_clean_linker_0, # of connection points: 2
#     Edge 155, Type (0, 0), BuildingBlock: AJUNOK_clean_linker_0, # of connection points: 2
#     Edge 156, Type (0, 0), BuildingBlock: AJUNOK_clean_linker_0, # of connection points: 2
#     Edge 157, Type (0, 0), BuildingBlock: AJUNOK_clean_linker_0, # of connection points: 2
#     Edge 158, Type (0, 0), BuildingBlock: AJUNOK_clean_linker_0, # of connection points: 2
#     Edge 159, Type (0, 0), BuildingBlock: AJUNOK_clean_linker_0, # of connection points: 2
#     Edge 160, Type (0, 0), BuildingBlock: AJUNOK_clean_linker_0, # of connection points: 2
#     Edge 161, Type (0, 0), BuildingBlock: AJUNOK_clean_linker_0, # of connection points: 2
#     Edge 162, Type (0, 0), BuildingBlock: AJUNOK_clean_linker_0, # of connection points: 2
#     Edge 163, Type (0, 0), BuildingBlock: AJUNOK_clean_linker_0, # of connection points: 2
#     Edge 164, Type (0, 0), BuildingBlock: AJUNOK_clean_linker_0, # of connection points: 2
#     Edge 165, Type (0, 0), BuildingBlock: AJUNOK_clean_linker_0, # of connection points: 2
#     Edge 166, Type (0, 0), BuildingBlock: AJUNOK_clean_linker_0, # of connection points: 2
#     Edge 167, Type (0, 0), BuildingBlock: AJUNOK_clean_linker_0, # of connection points: 2
#     Edge 168, Type (0, 0), BuildingBlock: AJUNOK_clean_linker_0, # of connection points: 2
#     Edge 169, Type (0, 0), BuildingBlock: AJUNOK_clean_linker_0, # of connection points: 2
#     Edge 170, Type (0, 0), BuildingBlock: AJUNOK_clean_linker_0, # of connection points: 2
#     Edge 171, Type (0, 0), BuildingBlock: AJUNOK_clean_linker_0, # of connection points: 2
#     Edge 172, Type (0, 0), BuildingBlock: AJUNOK_clean_linker_0, # of connection points: 2
#     Edge 173, Type (0, 0), BuildingBlock: AJUNOK_clean_linker_0, # of connection points: 2
#     Edge 174, Type (0, 0), BuildingBlock: AJUNOK_clean_linker_0, # of connection points: 2
#     Edge 175, Type (0, 0), BuildingBlock: AJUNOK_clean_linker_0, # of connection points: 2
#     Edge 176, Type (0, 0), BuildingBlock: AJUNOK_clean_linker_0, # of connection points: 2
#     Edge 177, Type (0, 0), BuildingBlock: AJUNOK_clean_linker_0, # of connection points: 2
#     Edge 178, Type (0, 0), BuildingBlock: AJUNOK_clean_linker_0, # of connection points: 2
#     Edge 179, Type (0, 0), BuildingBlock: AJUNOK_clean_linker_0, # of connection points: 2
#     Edge 180, Type (0, 0), BuildingBlock: AJUNOK_clean_linker_0, # of connection points: 2
#     Edge 181, Type (0, 0), BuildingBlock: AJUNOK_clean_linker_0, # of connection points: 2
#     Edge 182, Type (0, 0), BuildingBlock: AJUNOK_clean_linker_0, # of connection points: 2
#     Edge 183, Type (0, 0), BuildingBlock: AJUNOK_clean_linker_0, # of connection points: 2
#     Edge 184, Type (0, 0), BuildingBlock: AJUNOK_clean_linker_0, # of connection points: 2
#     Edge 185, Type (0, 0), BuildingBlock: AJUNOK_clean_linker_0, # of connection points: 2
#     Edge 186, Type (0, 0), BuildingBlock: AJUNOK_clean_linker_0, # of connection points: 2
#     Edge 187, Type (0, 0), BuildingBlock: AJUNOK_clean_linker_0, # of connection points: 2
#     Edge 188, Type (0, 0), BuildingBlock: AJUNOK_clean_linker_0, # of connection points: 2
#     Edge 189, Type (0, 0), BuildingBlock: AJUNOK_clean_linker_0, # of connection points: 2
#     Edge 190, Type (0, 0), BuildingBlock: AJUNOK_clean_linker_0, # of connection points: 2
#     Edge 191, Type (0, 0), BuildingBlock: AJUNOK_clean_linker_0, # of connection points: 2
#     Edge 192, Type (0, 0), BuildingBlock: AJUNOK_clean_linker_0, # of connection points: 2
#     Edge 193, Type (0, 0), BuildingBlock: AJUNOK_clean_linker_0, # of connection points: 2
#     Edge 194, Type (0, 0), BuildingBlock: AJUNOK_clean_linker_0, # of connection points: 2
#     Edge 195, Type (0, 0), BuildingBlock: AJUNOK_clean_linker_0, # of connection points: 2
#     Edge 196, Type (0, 0), BuildingBlock: AJUNOK_clean_linker_0, # of connection points: 2
#     Edge 197, Type (0, 0), BuildingBlock: AJUNOK_clean_linker_0, # of connection points: 2
#     Edge 198, Type (0, 0), BuildingBlock: AJUNOK_clean_linker_0, # of connection points: 2
#     Edge 199, Type (0, 0), BuildingBlock: AJUNOK_clean_linker_0, # of connection points: 2
#     Edge 200, Type (0, 0), BuildingBlock: AJUNOK_clean_linker_0, # of connection points: 2
#     Edge 201, Type (0, 0), BuildingBlock: AJUNOK_clean_linker_0, # of connection points: 2
#     Edge 202, Type (0, 0), BuildingBlock: AJUNOK_clean_linker_0, # of connection points: 2
#     Edge 203, Type (0, 0), BuildingBlock: AJUNOK_clean_linker_0, # of connection points: 2
#     Edge 204, Type (0, 0), BuildingBlock: AJUNOK_clean_linker_0, # of connection points: 2
#     Edge 205, Type (0, 0), BuildingBlock: AJUNOK_clean_linker_0, # of connection points: 2
#     Edge 206, Type (0, 0), BuildingBlock: AJUNOK_clean_linker_0, # of connection points: 2
#     Edge 207, Type (0, 0), BuildingBlock: AJUNOK_clean_linker_0, # of connection points: 2
#     Edge 208, Type (0, 0), BuildingBlock: AJUNOK_clean_linker_0, # of connection points: 2
#     Edge 209, Type (0, 0), BuildingBlock: AJUNOK_clean_linker_0, # of connection points: 2
#     Edge 210, Type (0, 0), BuildingBlock: AJUNOK_clean_linker_0, # of connection points: 2
#     Edge 211, Type (0, 0), BuildingBlock: AJUNOK_clean_linker_0, # of connection points: 2
#     Edge 212, Type (0, 0), BuildingBlock: AJUNOK_clean_linker_0, # of connection points: 2
#     Edge 213, Type (0, 0), BuildingBlock: AJUNOK_clean_linker_0, # of connection points: 2
#     Edge 214, Type (0, 0), BuildingBlock: AJUNOK_clean_linker_0, # of connection points: 2
#     Edge 215, Type (0, 0), BuildingBlock: AJUNOK_clean_linker_0, # of connection points: 2
#     Edge 216, Type (0, 0), BuildingBlock: AJUNOK_clean_linker_0, # of connection points: 2
#     Edge 217, Type (0, 0), BuildingBlock: AJUNOK_clean_linker_0, # of connection points: 2
#     Edge 218, Type (0, 0), BuildingBlock: AJUNOK_clean_linker_0, # of connection points: 2
#     Edge 219, Type (0, 0), BuildingBlock: AJUNOK_clean_linker_0, # of connection points: 2
#     Edge 220, Type (0, 0), BuildingBlock: AJUNOK_clean_linker_0, # of connection points: 2
#     Edge 221, Type (0, 0), BuildingBlock: AJUNOK_clean_linker_0, # of connection points: 2
#     Edge 222, Type (0, 0), BuildingBlock: AJUNOK_clean_linker_0, # of connection points: 2
#     Edge 223, Type (0, 0), BuildingBlock: AJUNOK_clean_linker_0, # of connection points: 2
#     Edge 224, Type (0, 0), BuildingBlock: AJUNOK_clean_linker_0, # of connection points: 2
#     Edge 225, Type (0, 0), BuildingBlock: AJUNOK_clean_linker_0, # of connection points: 2
#     Edge 226, Type (0, 0), BuildingBlock: AJUNOK_clean_linker_0, # of connection points: 2
#     Edge 227, Type (0, 0), BuildingBlock: AJUNOK_clean_linker_0, # of connection points: 2
#     Edge 228, Type (0, 0), BuildingBlock: AJUNOK_clean_linker_0, # of connection points: 2
#     Edge 229, Type (0, 0), BuildingBlock: AJUNOK_clean_linker_0, # of connection points: 2
#     Edge 230, Type (0, 0), BuildingBlock: AJUNOK_clean_linker_0, # of connection points: 2
#     Edge 231, Type (0, 0), BuildingBlock: AJUNOK_clean_linker_0, # of connection points: 2
#     Edge 232, Type (0, 0), BuildingBlock: AJUNOK_clean_linker_0, # of connection points: 2
#     Edge 233, Type (0, 0), BuildingBlock: AJUNOK_clean_linker_0, # of connection points: 2
#     Edge 234, Type (0, 0), BuildingBlock: AJUNOK_clean_linker_0, # of connection points: 2
#     Edge 235, Type (0, 0), BuildingBlock: AJUNOK_clean_linker_0, # of connection points: 2
#     Edge 236, Type (0, 0), BuildingBlock: AJUNOK_clean_linker_0, # of connection points: 2
#     Edge 237, Type (0, 0), BuildingBlock: AJUNOK_clean_linker_0, # of connection points: 2
#     Edge 238, Type (0, 0), BuildingBlock: AJUNOK_clean_linker_0, # of connection points: 2
#     Edge 239, Type (0, 0), BuildingBlock: AJUNOK_clean_linker_0, # of connection points: 2
#     Edge 240, Type (0, 0), BuildingBlock: AJUNOK_clean_linker_0, # of connection points: 2
#     Edge 241, Type (0, 0), BuildingBlock: AJUNOK_clean_linker_0, # of connection points: 2
#     Edge 242, Type (0, 0), BuildingBlock: AJUNOK_clean_linker_0, # of connection points: 2
#     Edge 243, Type (0, 0), BuildingBlock: AJUNOK_clean_linker_0, # of connection points: 2
#     Edge 244, Type (0, 0), BuildingBlock: AJUNOK_clean_linker_0, # of connection points: 2
#     Edge 245, Type (0, 0), BuildingBlock: AJUNOK_clean_linker_0, # of connection points: 2
#     Edge 246, Type (0, 0), BuildingBlock: AJUNOK_clean_linker_0, # of connection points: 2
#     Edge 247, Type (0, 0), BuildingBlock: AJUNOK_clean_linker_0, # of connection points: 2
#     Edge 248, Type (0, 0), BuildingBlock: AJUNOK_clean_linker_0, # of connection points: 2
#     Edge 249, Type (0, 0), BuildingBlock: AJUNOK_clean_linker_0, # of connection points: 2
#     Edge 250, Type (0, 0), BuildingBlock: AJUNOK_clean_linker_0, # of connection points: 2
#     Edge 251, Type (0, 0), BuildingBlock: AJUNOK_clean_linker_0, # of connection points: 2
#     Edge 252, Type (0, 0), BuildingBlock: AJUNOK_clean_linker_0, # of connection points: 2
#     Edge 253, Type (0, 0), BuildingBlock: AJUNOK_clean_linker_0, # of connection points: 2
#     Edge 254, Type (0, 0), BuildingBlock: AJUNOK_clean_linker_0, # of connection points: 2
#     Edge 255, Type (0, 0), BuildingBlock: AJUNOK_clean_linker_0, # of connection points: 2
#     Edge 256, Type (0, 0), BuildingBlock: AJUNOK_clean_linker_0, # of connection points: 2
#     Edge 257, Type (0, 0), BuildingBlock: AJUNOK_clean_linker_0, # of connection points: 2
#     Edge 258, Type (0, 0), BuildingBlock: AJUNOK_clean_linker_0, # of connection points: 2
#     Edge 259, Type (0, 0), BuildingBlock: AJUNOK_clean_linker_0, # of connection points: 2
#     Edge 260, Type (0, 0), BuildingBlock: AJUNOK_clean_linker_0, # of connection points: 2
#     Edge 261, Type (0, 0), BuildingBlock: AJUNOK_clean_linker_0, # of connection points: 2
#     Edge 262, Type (0, 0), BuildingBlock: AJUNOK_clean_linker_0, # of connection points: 2
#     Edge 263, Type (0, 0), BuildingBlock: AJUNOK_clean_linker_0, # of connection points: 2
#     Edge 264, Type (0, 0), BuildingBlock: AJUNOK_clean_linker_0, # of connection points: 2
#     Edge 265, Type (0, 0), BuildingBlock: AJUNOK_clean_linker_0, # of connection points: 2
#     Edge 266, Type (0, 0), BuildingBlock: AJUNOK_clean_linker_0, # of connection points: 2
#     Edge 267, Type (0, 0), BuildingBlock: AJUNOK_clean_linker_0, # of connection points: 2
#     Edge 268, Type (0, 0), BuildingBlock: AJUNOK_clean_linker_0, # of connection points: 2
#     Edge 269, Type (0, 0), BuildingBlock: AJUNOK_clean_linker_0, # of connection points: 2
#     Edge 270, Type (0, 0), BuildingBlock: AJUNOK_clean_linker_0, # of connection points: 2
#     Edge 271, Type (0, 0), BuildingBlock: AJUNOK_clean_linker_0, # of connection points: 2
#     Edge 272, Type (0, 0), BuildingBlock: AJUNOK_clean_linker_0, # of connection points: 2
#     Edge 273, Type (0, 0), BuildingBlock: AJUNOK_clean_linker_0, # of connection points: 2
#     Edge 274, Type (0, 0), BuildingBlock: AJUNOK_clean_linker_0, # of connection points: 2
#     Edge 275, Type (0, 0), BuildingBlock: AJUNOK_clean_linker_0, # of connection points: 2
#     Edge 276, Type (0, 0), BuildingBlock: AJUNOK_clean_linker_0, # of connection points: 2
#     Edge 277, Type (0, 0), BuildingBlock: AJUNOK_clean_linker_0, # of connection points: 2
#     Edge 278, Type (0, 0), BuildingBlock: AJUNOK_clean_linker_0, # of connection points: 2
#     Edge 279, Type (0, 0), BuildingBlock: AJUNOK_clean_linker_0, # of connection points: 2
#     Edge 280, Type (0, 0), BuildingBlock: AJUNOK_clean_linker_0, # of connection points: 2
#     Edge 281, Type (0, 0), BuildingBlock: AJUNOK_clean_linker_0, # of connection points: 2
#     Edge 282, Type (0, 0), BuildingBlock: AJUNOK_clean_linker_0, # of connection points: 2
#     Edge 283, Type (0, 0), BuildingBlock: AJUNOK_clean_linker_0, # of connection points: 2
#     Edge 284, Type (0, 0), BuildingBlock: AJUNOK_clean_linker_0, # of connection points: 2
#     Edge 285, Type (0, 0), BuildingBlock: AJUNOK_clean_linker_0, # of connection points: 2
#     Edge 286, Type (0, 0), BuildingBlock: AJUNOK_clean_linker_0, # of connection points: 2
#     Edge 287, Type (0, 0), BuildingBlock: AJUNOK_clean_linker_0, # of connection points: 2
#     Edge 288, Type (0, 0), BuildingBlock: AJUNOK_clean_linker_0, # of connection points: 2
#     Edge 289, Type (0, 0), BuildingBlock: AJUNOK_clean_linker_0, # of connection points: 2
#     Edge 290, Type (0, 0), BuildingBlock: AJUNOK_clean_linker_0, # of connection points: 2
#     Edge 291, Type (0, 0), BuildingBlock: AJUNOK_clean_linker_0, # of connection points: 2
#     Edge 292, Type (0, 0), BuildingBlock: AJUNOK_clean_linker_0, # of connection points: 2
#     Edge 293, Type (0, 0), BuildingBlock: AJUNOK_clean_linker_0, # of connection points: 2
#     Edge 294, Type (0, 0), BuildingBlock: AJUNOK_clean_linker_0, # of connection points: 2
#     Edge 295, Type (0, 0), BuildingBlock: AJUNOK_clean_linker_0, # of connection points: 2
#     Edge 296, Type (0, 0), BuildingBlock: AJUNOK_clean_linker_0, # of connection points: 2
#     Edge 297, Type (0, 0), BuildingBlock: AJUNOK_clean_linker_0, # of connection points: 2
#     Edge 298, Type (0, 0), BuildingBlock: AJUNOK_clean_linker_0, # of connection points: 2
#     Edge 299, Type (0, 0), BuildingBlock: AJUNOK_clean_linker_0, # of connection points: 2
#     Edge 300, Type (0, 0), BuildingBlock: AJUNOK_clean_linker_0, # of connection points: 2
#     Edge 301, Type (0, 0), BuildingBlock: AJUNOK_clean_linker_0, # of connection points: 2
#     Edge 302, Type (0, 0), BuildingBlock: AJUNOK_clean_linker_0, # of connection points: 2
#     Edge 303, Type (0, 0), BuildingBlock: AJUNOK_clean_linker_0, # of connection points: 2
#     Edge 304, Type (0, 0), BuildingBlock: AJUNOK_clean_linker_0, # of connection points: 2
#     Edge 305, Type (0, 0), BuildingBlock: AJUNOK_clean_linker_0, # of connection points: 2
#     Edge 306, Type (0, 0), BuildingBlock: AJUNOK_clean_linker_0, # of connection points: 2
#     Edge 307, Type (0, 0), BuildingBlock: AJUNOK_clean_linker_0, # of connection points: 2
#     Edge 308, Type (0, 0), BuildingBlock: AJUNOK_clean_linker_0, # of connection points: 2
#     Edge 309, Type (0, 0), BuildingBlock: AJUNOK_clean_linker_0, # of connection points: 2
#     Edge 310, Type (0, 0), BuildingBlock: AJUNOK_clean_linker_0, # of connection points: 2
#     Edge 311, Type (0, 0), BuildingBlock: AJUNOK_clean_linker_0, # of connection points: 2
#     Edge 312, Type (0, 0), BuildingBlock: AJUNOK_clean_linker_0, # of connection points: 2
#     Edge 313, Type (0, 0), BuildingBlock: AJUNOK_clean_linker_0, # of connection points: 2
#     Edge 314, Type (0, 0), BuildingBlock: AJUNOK_clean_linker_0, # of connection points: 2
#     Edge 315, Type (0, 0), BuildingBlock: AJUNOK_clean_linker_0, # of connection points: 2
#     Edge 316, Type (0, 0), BuildingBlock: AJUNOK_clean_linker_0, # of connection points: 2
#     Edge 317, Type (0, 0), BuildingBlock: AJUNOK_clean_linker_0, # of connection points: 2
#     Edge 318, Type (0, 0), BuildingBlock: AJUNOK_clean_linker_0, # of connection points: 2
#     Edge 319, Type (0, 0), BuildingBlock: AJUNOK_clean_linker_0, # of connection points: 2
#     Edge 320, Type (0, 0), BuildingBlock: AJUNOK_clean_linker_0, # of connection points: 2
#     Edge 321, Type (0, 0), BuildingBlock: AJUNOK_clean_linker_0, # of connection points: 2
#     Edge 322, Type (0, 0), BuildingBlock: AJUNOK_clean_linker_0, # of connection points: 2
#     Edge 323, Type (0, 0), BuildingBlock: AJUNOK_clean_linker_0, # of connection points: 2
#     Edge 324, Type (0, 0), BuildingBlock: AJUNOK_clean_linker_0, # of connection points: 2
#     Edge 325, Type (0, 0), BuildingBlock: AJUNOK_clean_linker_0, # of connection points: 2
#     Edge 326, Type (0, 0), BuildingBlock: AJUNOK_clean_linker_0, # of connection points: 2
#     Edge 327, Type (0, 0), BuildingBlock: AJUNOK_clean_linker_0, # of connection points: 2
#     Edge 328, Type (0, 0), BuildingBlock: AJUNOK_clean_linker_0, # of connection points: 2
#     Edge 329, Type (0, 0), BuildingBlock: AJUNOK_clean_linker_0, # of connection points: 2
#     Edge 330, Type (0, 0), BuildingBlock: AJUNOK_clean_linker_0, # of connection points: 2
#     Edge 331, Type (0, 0), BuildingBlock: AJUNOK_clean_linker_0, # of connection points: 2
#     Edge 332, Type (0, 0), BuildingBlock: AJUNOK_clean_linker_0, # of connection points: 2
#     Edge 333, Type (0, 0), BuildingBlock: AJUNOK_clean_linker_0, # of connection points: 2
#     Edge 334, Type (0, 0), BuildingBlock: AJUNOK_clean_linker_0, # of connection points: 2
#     Edge 335, Type (0, 0), BuildingBlock: AJUNOK_clean_linker_0, # of connection points: 2
#     Edge 336, Type (0, 0), BuildingBlock: AJUNOK_clean_linker_0, # of connection points: 2
#     Edge 337, Type (0, 0), BuildingBlock: AJUNOK_clean_linker_0, # of connection points: 2
#     Edge 338, Type (0, 0), BuildingBlock: AJUNOK_clean_linker_0, # of connection points: 2
#     Edge 339, Type (0, 0), BuildingBlock: AJUNOK_clean_linker_0, # of connection points: 2
#     Edge 340, Type (0, 0), BuildingBlock: AJUNOK_clean_linker_0, # of connection points: 2
#     Edge 341, Type (0, 0), BuildingBlock: AJUNOK_clean_linker_0, # of connection points: 2
#     Edge 342, Type (0, 0), BuildingBlock: AJUNOK_clean_linker_0, # of connection points: 2
#     Edge 343, Type (0, 0), BuildingBlock: AJUNOK_clean_linker_0, # of connection points: 2
#     Edge 344, Type (0, 0), BuildingBlock: AJUNOK_clean_linker_0, # of connection points: 2
#     Edge 345, Type (0, 0), BuildingBlock: AJUNOK_clean_linker_0, # of connection points: 2
#     Edge 346, Type (0, 0), BuildingBlock: AJUNOK_clean_linker_0, # of connection points: 2
#     Edge 347, Type (0, 0), BuildingBlock: AJUNOK_clean_linker_0, # of connection points: 2
#     Edge 348, Type (0, 0), BuildingBlock: AJUNOK_clean_linker_0, # of connection points: 2
#     Edge 349, Type (0, 0), BuildingBlock: AJUNOK_clean_linker_0, # of connection points: 2
#     Edge 350, Type (0, 0), BuildingBlock: AJUNOK_clean_linker_0, # of connection points: 2
#     Edge 351, Type (0, 0), BuildingBlock: AJUNOK_clean_linker_0, # of connection points: 2
#     Edge 352, Type (0, 0), BuildingBlock: AJUNOK_clean_linker_0, # of connection points: 2
#     Edge 353, Type (0, 0), BuildingBlock: AJUNOK_clean_linker_0, # of connection points: 2
#     Edge 354, Type (0, 0), BuildingBlock: AJUNOK_clean_linker_0, # of connection points: 2
#     Edge 355, Type (0, 0), BuildingBlock: AJUNOK_clean_linker_0, # of connection points: 2
#     Edge 356, Type (0, 0), BuildingBlock: AJUNOK_clean_linker_0, # of connection points: 2
#     Edge 357, Type (0, 0), BuildingBlock: AJUNOK_clean_linker_0, # of connection points: 2
#     Edge 358, Type (0, 0), BuildingBlock: AJUNOK_clean_linker_0, # of connection points: 2
#     Edge 359, Type (0, 0), BuildingBlock: AJUNOK_clean_linker_0, # of connection points: 2
#     Edge 360, Type (0, 0), BuildingBlock: AJUNOK_clean_linker_0, # of connection points: 2
#     Edge 361, Type (0, 0), BuildingBlock: AJUNOK_clean_linker_0, # of connection points: 2
#     Edge 362, Type (0, 0), BuildingBlock: AJUNOK_clean_linker_0, # of connection points: 2
#     Edge 363, Type (0, 0), BuildingBlock: AJUNOK_clean_linker_0, # of connection points: 2
#     Edge 364, Type (0, 0), BuildingBlock: AJUNOK_clean_linker_0, # of connection points: 2
#     Edge 365, Type (0, 0), BuildingBlock: AJUNOK_clean_linker_0, # of connection points: 2
#     Edge 366, Type (0, 0), BuildingBlock: AJUNOK_clean_linker_0, # of connection points: 2
#     Edge 367, Type (0, 0), BuildingBlock: AJUNOK_clean_linker_0, # of connection points: 2
#     Edge 368, Type (0, 0), BuildingBlock: AJUNOK_clean_linker_0, # of connection points: 2
#     Edge 369, Type (0, 0), BuildingBlock: AJUNOK_clean_linker_0, # of connection points: 2
#     Edge 370, Type (0, 0), BuildingBlock: AJUNOK_clean_linker_0, # of connection points: 2
#     Edge 371, Type (0, 0), BuildingBlock: AJUNOK_clean_linker_0, # of connection points: 2
#     Edge 372, Type (0, 0), BuildingBlock: AJUNOK_clean_linker_0, # of connection points: 2
#     Edge 373, Type (0, 0), BuildingBlock: AJUNOK_clean_linker_0, # of connection points: 2
#     Edge 374, Type (0, 0), BuildingBlock: AJUNOK_clean_linker_0, # of connection points: 2
#     Edge 375, Type (0, 0), BuildingBlock: AJUNOK_clean_linker_0, # of connection points: 2
#     Edge 376, Type (0, 0), BuildingBlock: AJUNOK_clean_linker_0, # of connection points: 2
#     Edge 377, Type (0, 0), BuildingBlock: AJUNOK_clean_linker_0, # of connection points: 2
#     Edge 378, Type (0, 0), BuildingBlock: AJUNOK_clean_linker_0, # of connection points: 2
#     Edge 379, Type (0, 0), BuildingBlock: AJUNOK_clean_linker_0, # of connection points: 2
#     Edge 380, Type (0, 0), BuildingBlock: AJUNOK_clean_linker_0, # of connection points: 2
#     Edge 381, Type (0, 0), BuildingBlock: AJUNOK_clean_linker_0, # of connection points: 2
#     Edge 382, Type (0, 0), BuildingBlock: AJUNOK_clean_linker_0, # of connection points: 2
#     Edge 383, Type (0, 0), BuildingBlock: AJUNOK_clean_linker_0, # of connection points: 2
# Relax obj value: 0.343
# Max RMSD: 0.268
# Mean RMSD: 0.255
data_MOF--net-ana-e--node1-MIFKUJ_clean_sbu_0--edge1-AJUNOK_clean_linker_0
_symmetry_space_group_name_H-M    P1
_symmetry_Int_Tables_number       1
_symmetry_cell_setting            triclinic
loop_
_symmetry_equiv_pos_as_xyz
'x, y, z'
_cell_length_a     62.479027
_cell_length_b     62.53659
_cell_length_c     62.228823
_cell_angle_alpha  89.078316
_cell_angle_beta   89.151155
_cell_angle_gamma 88.600219
loop_
_atom_site_label
_atom_site_type_symbol
_atom_site_fract_x
_atom_site_fract_y
_atom_site_fract_z
_atom_type_partial_charge
Zn0 Zn 0.03793 0.09624 0.38062 0.0
Zn1 Zn 0.99305 0.12431 0.34467 0.0
C2 C 0.07608 0.07845 0.35926 0.0
O3 O 0.07453 0.0624 0.37301 0.0
C4 C 0.96795 0.15813 0.35654 0.0
O5 O 0.97951 0.16526 0.34027 0.0
O6 O 0.04573 0.09512 0.4113 0.0
O7 O 0.0242 0.12546 0.37611 0.0
O8 O 0.01951 0.14242 0.34584 0.0
C9 C 0.06455 0.09858 0.41718 0.0
O10 O 0.07957 0.10228 0.40273 0.0
O11 O 0.0626 0.09387 0.36007 0.0
C12 C 0.96707 0.11071 0.31162 0.0
O13 O 0.95784 0.10169 0.3284 0.0
O14 O 0.9834 0.12194 0.31424 0.0
O15 O -0.00145 0.09602 0.35914 0.0
O16 O 0.01721 0.07244 0.37714 0.0
O17 O 0.96996 0.13864 0.36199 0.0
C18 C 0.03092 0.13901 0.36229 0.0
C19 C -0.00021 0.07777 0.3682 0.0
Zn20 Zn 0.11249 0.74252 0.62627 0.0
Zn21 Zn 0.14273 0.78212 0.62088 0.0
C22 C 0.11121 0.73199 0.58088 0.0
O23 O 0.09163 0.74008 0.58207 0.0
C24 C 0.14885 0.78834 0.66582 0.0
O25 O 0.16847 0.78315 0.65967 0.0
O26 O 0.09294 0.71961 0.63677 0.0
O27 O 0.13733 0.74365 0.64577 0.0
O28 O 0.15967 0.75361 0.62044 0.0
C29 C 0.09745 0.70014 0.63288 0.0
O30 O 0.11577 0.69533 0.62328 0.0
O31 O 0.12315 0.73291 0.59716 0.0
C32 C 0.15721 0.82526 0.61619 0.0
O33 O 0.15181 0.82686 0.63656 0.0
O34 O 0.15932 0.80676 0.60809 0.0
O35 O 0.11651 0.78551 0.60232 0.0
O36 O 0.09428 0.76866 0.62394 0.0
O37 O 0.13415 0.78886 0.6519 0.0
C38 C 0.15498 0.74074 0.63578 0.0
C39 C 0.09776 0.78283 0.6097 0.0
Zn40 Zn 0.49871 0.86515 0.86988 0.0
Zn41 Zn 0.44937 0.89812 0.86418 0.0
C42 C 0.50976 0.8573 0.82672 0.0
O43 O 0.50624 0.83781 0.83391 0.0
C44 C 0.44438 0.90316 0.91057 0.0
O45 O 0.45161 0.92228 0.90609 0.0
O46 O 0.5245 0.8516 0.88446 0.0
O47 O 0.48534 0.89019 0.88444 0.0
O48 O 0.47508 0.91752 0.86482 0.0
C49 C 0.54302 0.85744 0.87832 0.0
O50 O 0.54445 0.87388 0.86503 0.0
O51 O 0.50717 0.87285 0.83947 0.0
C52 C 0.40733 0.91728 0.85404 0.0
O53 O 0.40711 0.92276 0.87434 0.0
O54 O 0.42437 0.90892 0.84619 0.0
O55 O 0.45873 0.87056 0.84957 0.0
O56 O 0.47515 0.8448 0.86785 0.0
O57 O 0.44086 0.89063 0.89515 0.0
C58 C 0.48939 0.90828 0.87623 0.0
C59 C 0.4586 0.85202 0.85831 0.0
Zn60 Zn 0.37638 0.24684 0.11241 0.0
Zn61 Zn 0.34339 0.2017 0.11375 0.0
C62 C 0.37426 0.25751 0.06586 0.0
O63 O 0.39294 0.2475 0.06429 0.0
C64 C 0.33957 0.19527 0.15987 0.0
O65 O 0.3196 0.2003 0.15526 0.0
O66 O 0.39684 0.26925 0.12289 0.0
O67 O 0.35206 0.24234 0.13377 0.0
O68 O 0.32562 0.22917 0.11516 0.0
C69 C 0.39364 0.28915 0.11925 0.0
O70 O 0.37633 0.29563 0.10912 0.0
O71 O 0.36458 0.25793 0.08401 0.0
C72 C 0.33171 0.15793 0.11128 0.0
O73 O 0.33595 0.1586 0.13179 0.0
O74 O 0.32938 0.17553 0.10096 0.0
O75 O 0.36754 0.20437 0.09242 0.0
O76 O 0.39367 0.22009 0.10858 0.0
O77 O 0.35352 0.19486 0.14467 0.0
C78 C 0.33279 0.24337 0.12745 0.0
C79 C 0.38692 0.20466 0.09789 0.0
Zn80 Zn -0.0037 0.86523 0.11113 0.0
Zn81 Zn 0.03425 0.89779 0.11331 0.0
C82 C 0.9883 0.86624 0.15682 0.0
O83 O -0.00198 0.84741 0.15644 0.0
C84 C 0.04462 0.89736 0.06712 0.0
O85 O 0.04017 0.91797 0.068 0.0
O86 O 0.97436 0.84318 0.10649 0.0
O87 O 0.99512 0.88867 0.08898 0.0
O88 O 0.00492 0.9132 0.11127 0.0
C89 C 0.95461 0.8482 0.10804 0.0
O90 O 0.94857 0.86838 0.10943 0.0
O91 O 0.98674 0.87729 0.1396 0.0
C92 C 0.07552 0.91839 0.1159 0.0
O93 O 0.07639 0.91698 0.0949 0.0
O94 O 0.05769 0.91567 0.12555 0.0
O95 O 0.03696 0.8731 0.13429 0.0
O96 O 0.02394 0.84912 0.11306 0.0
O97 O 0.04319 0.88588 0.08409 0.0
C98 C 0.99194 0.90699 0.09715 0.0
C99 C 0.03723 0.85429 0.12707 0.0
Zn100 Zn 0.37558 0.7409 0.35254 0.0
Zn101 Zn 0.34958 0.78029 0.36362 0.0
C102 C 0.38602 0.73179 0.39621 0.0
O103 O 0.40507 0.73643 0.38851 0.0
C104 C 0.3459 0.79013 0.31743 0.0
O105 O 0.32557 0.78595 0.32059 0.0
O106 O 0.39351 0.71585 0.34254 0.0
O107 O 0.34771 0.74112 0.33678 0.0
O108 O 0.33062 0.7542 0.3648 0.0
C109 C 0.38725 0.69737 0.34814 0.0
O110 O 0.36848 0.69557 0.35769 0.0
O111 O 0.37001 0.73324 0.38384 0.0
C112 C 0.33491 0.82419 0.36821 0.0
O113 O 0.33762 0.82519 0.3473 0.0
O114 O 0.33572 0.80606 0.37771 0.0
O115 O 0.37699 0.77832 0.37993 0.0
O116 O 0.39365 0.76722 0.35096 0.0
O117 O 0.35856 0.78825 0.3331 0.0
C118 C 0.33141 0.74128 0.3492 0.0
C119 C 0.39318 0.77897 0.36744 0.0
Zn120 Zn 0.49015 0.12764 0.61197 0.0
Zn121 Zn 0.4549 0.09887 0.61524 0.0
C122 C 0.49602 0.13482 0.65637 0.0
O123 O 0.49444 0.15453 0.64899 0.0
C124 C 0.44729 0.09339 0.56939 0.0
O125 O 0.44521 0.07341 0.57573 0.0
O126 O 0.5131 0.14893 0.60717 0.0
O127 O 0.49639 0.10174 0.59424 0.0
O128 O 0.48275 0.08253 0.62045 0.0
C129 C 0.53263 0.14492 0.60269 0.0
O130 O 0.53877 0.12526 0.59812 0.0
O131 O 0.49313 0.11968 0.64343 0.0
C132 C 0.41274 0.08612 0.61623 0.0
O133 O 0.41245 0.10034 0.60052 0.0
O134 O 0.43049 0.0807 0.62457 0.0
O135 O 0.44796 0.12506 0.63298 0.0
O136 O 0.46323 0.14434 0.60776 0.0
O137 O 0.4521 0.10723 0.58316 0.0
C138 C 0.49674 0.08476 0.60564 0.0
C139 C 0.4499 0.1428 0.62318 0.0
Zn140 Zn 0.14148 0.19991 0.84975 0.0
Zn141 Zn 0.10892 0.24089 0.88283 0.0
C142 C 0.16394 0.17156 0.87604 0.0
O143 O 0.17916 0.17617 0.86203 0.0
C144 C 0.08224 0.27719 0.88484 0.0
O145 O 0.0777 0.26882 0.90382 0.0
O146 O 0.14625 0.18301 0.82402 0.0
O147 O 0.10925 0.20873 0.84986 0.0
O148 O 0.0906 0.21667 0.879 0.0
C149 C 0.13294 0.16848 0.82112 0.0
O150 O 0.11925 0.16359 0.83649 0.0
O151 O 0.14633 0.18188 0.8752 0.0
C152 C 0.13206 0.24573 0.92197 0.0
O153 O 0.14949 0.24304 0.91019 0.0
O154 O 0.11398 0.2432 0.91362 0.0
O155 O 0.13535 0.23459 0.86706 0.0
O156 O 0.16293 0.22416 0.84905 0.0
O157 O 0.09487 0.26723 0.87225 0.0
C158 C 0.09505 0.20383 0.86398 0.0
C159 C 0.15371 0.23869 0.85977 0.0
Zn160 Zn 0.37368 0.03939 0.0884 0.0
Zn161 Zn 0.34112 0.99024 0.12183 0.0
C162 C 0.3594 0.07947 0.07017 0.0
O163 O 0.3777 0.0783 0.05958 0.0
C164 C 0.36864 0.96229 0.14651 0.0
O165 O 0.38084 0.97901 0.14774 0.0
O166 O 0.40358 0.0513 0.09028 0.0
O167 O 0.36234 0.03053 0.11768 0.0
O168 O 0.3463 0.01315 0.14356 0.0
C169 C 0.41581 0.04809 0.10622 0.0
O170 O 0.40915 0.0362 0.12246 0.0
O171 O 0.35328 0.06318 0.08069 0.0
C172 C 0.30409 0.97534 0.102 0.0
O173 O 0.31811 0.97188 0.08644 0.0
O174 O 0.30986 0.98512 0.11856 0.0
O175 O 0.356 -0.0015 0.09396 0.0
O176 O 0.37397 0.01363 0.06807 0.0
O177 O 0.35211 0.96316 0.13495 0.0
C178 C 0.35694 0.02923 0.13739 0.0
C179 C 0.36574 -0.0032 0.07601 0.0
Zn180 Zn 0.24531 0.10168 0.37282 0.0
Zn181 Zn 0.19411 0.11901 0.33829 0.0
C182 C 0.25591 0.05822 0.36661 0.0
O183 O 0.24766 0.05706 0.38613 0.0
C184 C 0.19078 0.16445 0.33503 0.0
O185 O 0.20192 0.16142 0.31724 0.0
O186 O 0.26922 0.11029 0.39169 0.0
O187 O 0.2354 0.12537 0.35226 0.0
O188 O 0.22169 0.12104 0.32061 0.0
C189 C 0.28884 0.10617 0.38753 0.0
O190 O 0.29439 0.09783 0.36897 0.0
O191 O 0.25527 0.07608 0.35668 0.0
C192 C 0.15308 0.10993 0.32048 0.0
O193 O 0.1521 0.13059 0.31639 0.0
O194 O 0.17072 0.1015 0.32654 0.0
O195 O 0.20194 0.10647 0.36678 0.0
O196 O 0.22108 0.09442 0.39311 0.0
O197 O 0.1842 0.14841 0.34568 0.0
C198 C 0.23808 0.12411 0.33203 0.0
C199 C 0.20284 0.09996 0.3861 0.0
Zn200 Zn 0.12382 0.99075 0.62405 0.0
Zn201 Zn 0.11232 0.94254 0.58751 0.0
C202 C 0.17232 0.98532 0.62591 0.0
O203 O 0.17228 0.97139 0.64188 0.0
C204 C 0.06692 0.94468 0.59654 0.0
O205 O 0.06761 0.96411 0.58833 0.0
O206 O 0.1117 0.0178 0.63737 0.0
O207 O 0.11469 0.98283 0.59582 0.0
O208 O 0.10735 0.96841 0.56611 0.0
C209 C 0.12528 0.03183 0.64183 0.0
O210 O 0.14548 0.02858 0.63663 0.0
O211 O 0.15488 0.99306 0.61873 0.0
C212 C 0.12016 0.89944 0.57451 0.0
O213 O 0.09921 0.89829 0.57526 0.0
O214 O 0.12863 0.91767 0.57494 0.0
O215 O 0.1298 0.94636 0.61553 0.0
O216 O 0.11858 0.96591 0.64261 0.0
O217 O 0.08378 0.93301 0.59729 0.0
C218 C 0.10921 0.98541 0.5766 0.0
C219 C 0.12285 0.9476 0.63494 0.0
Zn220 Zn 0.24801 0.8753 0.87277 0.0
Zn221 Zn 0.28907 0.87841 0.84052 0.0
C222 C 0.24056 0.91993 0.87752 0.0
O223 O 0.24352 0.91409 0.89765 0.0
C224 C 0.29195 0.8303 0.83865 0.0
O225 O 0.27682 0.83126 0.82429 0.0
O226 O 0.22401 0.86979 0.89448 0.0
O227 O 0.24466 0.85653 0.84771 0.0
O228 O 0.26 0.87914 0.825 0.0
C229 C 0.20445 0.87093 0.88908 0.0
O230 O 0.19995 0.87421 0.86873 0.0
O231 O 0.2436 0.9061 0.863 0.0
C232 C 0.3302 0.88532 0.81807 0.0
O233 O 0.33225 0.8644 0.81742 0.0
O234 O 0.31192 0.89356 0.82279 0.0
O235 O 0.29214 0.89411 0.86898 0.0
O236 O 0.27483 0.87078 0.88867 0.0
O237 O 0.2992 0.84741 0.8463 0.0
C238 C 0.24566 0.86548 0.8293 0.0
C239 C 0.28943 0.88436 0.88685 0.0
Zn240 Zn 0.36763 0.98697 0.35707 0.0
Zn241 Zn 0.36403 0.9432 0.3878 0.0
C242 C 0.32635 0.00099 0.34662 0.0
O243 O 0.33547 -0.00086 0.32757 0.0
C244 C 0.41183 0.94432 0.39406 0.0
O245 O 0.40803 0.95523 0.41159 0.0
O246 O 0.38045 0.0123 0.34206 0.0
O247 O 0.38393 0.98119 0.38349 0.0
O248 O 0.35803 0.97032 0.40445 0.0
C249 C 0.37619 0.03102 0.34883 0.0
O250 O 0.36407 0.03327 0.36611 0.0
O251 O 0.337 -0.00459 0.36314 0.0
C252 C 0.36409 0.90107 0.40673 0.0
O253 O 0.38477 0.9037 0.40832 0.0
O254 O 0.35211 0.91735 0.40292 0.0
O255 O 0.34981 0.94053 0.35892 0.0
O256 O 0.36769 0.96259 0.33741 0.0
O257 O 0.39632 0.93793 0.38292 0.0
C258 C 0.37274 0.98344 0.4004 0.0
C259 C 0.35646 0.94615 0.34031 0.0
Zn260 Zn 0.29503 0.13065 0.62689 0.0
Zn261 Zn 0.24959 0.09103 0.61361 0.0
C262 C 0.33118 0.10793 0.64563 0.0
O263 O 0.32519 0.11656 0.66393 0.0
C264 C 0.22456 0.11564 0.58347 0.0
O265 O 0.23921 0.10668 0.57102 0.0
O266 O 0.29994 0.16106 0.62084 0.0
O267 O 0.2781 0.11972 0.60211 0.0
O268 O 0.27179 0.08822 0.58997 0.0
C269 C 0.31836 0.16832 0.61741 0.0
O270 O 0.33524 0.15539 0.61774 0.0
O271 O 0.32122 0.11272 0.62857 0.0
C272 C 0.22532 0.05512 0.60875 0.0
O273 O 0.21814 0.06775 0.59326 0.0
O274 O 0.23938 0.06198 0.62116 0.0
O275 O 0.26702 0.10281 0.63714 0.0
O276 O 0.27818 0.12879 0.65533 0.0
O277 O 0.22521 0.1116 0.60357 0.0
C278 C 0.28383 0.10428 0.59008 0.0
C279 C 0.26405 0.11492 0.65302 0.0
Zn280 Zn 0.13235 -0.00141 0.85623 0.0
Zn281 Zn 0.13196 0.04721 0.88793 0.0
C282 C 0.17711 0.98448 0.85386 0.0
O283 O 0.1757 0.99135 0.83386 0.0
C284 C 0.08562 0.04692 0.89609 0.0
O285 O 0.09106 0.03775 0.9144 0.0
O286 O 0.11668 0.97471 0.84247 0.0
O287 O 0.11592 0.01207 0.87934 0.0
O288 O 0.13469 0.02051 0.90679 0.0
C289 C 0.11963 0.95551 0.84901 0.0
O290 O 0.13142 0.95185 0.86607 0.0
O291 O 0.16096 0.98686 0.86638 0.0
C292 C 0.13592 0.09002 0.90348 0.0
O293 O 0.11492 0.09081 0.90284 0.0
O294 O 0.14583 0.07231 0.90079 0.0
O295 O 0.14596 0.04768 0.85803 0.0
O296 O 0.13598 0.02221 0.83573 0.0
O297 O 0.1002 0.0533 0.88316 0.0
C298 C 0.1232 0.00716 0.89754 0.0
C299 C 0.14259 0.04089 0.83918 0.0
Zn300 Zn 0.23835 0.86339 0.1057 0.0
Zn301 Zn 0.1962 0.87364 0.13173 0.0
C302 C 0.24471 0.9077 0.0987 0.0
O303 O 0.24014 0.90206 0.0791 0.0
C304 C 0.18903 0.83196 0.14672 0.0
O305 O 0.1924 0.84171 0.16487 0.0
O306 O 0.26553 0.85388 0.09073 0.0
O307 O 0.23369 0.84558 0.13182 0.0
O308 O 0.22353 0.87443 0.14866 0.0
C309 C 0.2838 0.85917 0.09734 0.0
O310 O 0.28513 0.87036 0.11491 0.0
O311 O 0.2438 0.89377 0.11372 0.0
C312 C 0.15334 0.88181 0.148 0.0
O313 O 0.15121 0.86113 0.14592 0.0
O314 O 0.17187 0.88968 0.14628 0.0
O315 O 0.19467 0.88671 0.10195 0.0
O316 O 0.21483 0.86295 0.08473 0.0
O317 O 0.18933 0.84269 0.12926 0.0
C318 C 0.23555 0.85771 0.14773 0.0
C319 C 0.19967 0.87681 0.0849 0.0
Zn320 Zn 0.0951 0.38599 0.04329 0.0
Zn321 Zn 0.11708 0.34967 -0.00124 0.0
C322 C 0.0798 0.36411 0.08169 0.0
O323 O 0.06426 0.37864 0.08131 0.0
C324 C 0.15281 0.35949 0.9734 0.0
O325 O 0.16127 0.34622 0.98767 0.0
O326 O 0.09669 0.41483 0.05448 0.0
O327 O 0.12418 0.381 0.02844 0.0
O328 O 0.13622 0.34836 0.02378 0.0
C329 C 0.10478 0.41888 0.07237 0.0
O330 O 0.11112 0.40342 0.08548 0.0
O331 O 0.09355 0.3639 0.06654 0.0
C332 C 0.1113 0.3176 0.97046 0.0
O333 O 0.11087 0.33431 0.95743 0.0
O334 O 0.11133 0.32023 0.99053 0.0
O335 O 0.09182 0.3661 0.00815 0.0
O336 O 0.06916 0.38694 0.02363 0.0
O337 O 0.1331 0.3647 0.97509 0.0
C338 C 0.13649 0.36549 0.03431 0.0
C339 C 0.07433 0.37647 0.00713 0.0
Zn340 Zn 0.62013 0.12692 0.00252 0.0
Zn341 Zn 0.59063 0.11749 0.9473 0.0
C342 C 0.62513 0.17207 0.01313 0.0
O343 O 0.64154 0.17219 -0.00032 0.0
C344 C 0.59508 0.07189 0.94563 0.0
O345 O 0.57649 0.07309 0.95565 0.0
O346 O 0.63296 0.10611 0.02379 0.0
O347 O 0.59483 0.11932 0.98723 0.0
O348 O 0.56673 0.112 0.9701 0.0
C349 C 0.63195 0.11078 0.04355 0.0
O350 O 0.61794 0.1255 0.04978 0.0
O351 O 0.61468 0.15509 0.0159 0.0
C352 C 0.57469 0.11964 0.90505 0.0
O353 O 0.57424 0.09877 0.90748 0.0
O354 O 0.57819 0.13098 0.92121 0.0
O355 O 0.61558 0.1375 0.9554 0.0
O356 O 0.64079 0.12921 0.97868 0.0
O357 O 0.60423 0.08901 0.93986 0.0
C358 C 0.57585 0.11326 0.98796 0.0
C359 C 0.63516 0.13242 0.95933 0.0
Zn360 Zn 0.11635 0.37475 0.24508 0.0
Zn361 Zn 0.11868 0.34308 0.20253 0.0
C362 C 0.06994 0.37615 0.24961 0.0
O363 O 0.07118 0.39554 0.24135 0.0
C364 C 0.16673 0.33945 0.2002 0.0
O365 O 0.16508 0.32204 0.21211 0.0
O366 O 0.11951 0.39472 0.27032 0.0
O367 O 0.13712 0.34999 0.24777 0.0
O368 O 0.11792 0.32623 0.23106 0.0
C369 C 0.13028 0.39067 0.28718 0.0
O370 O 0.14151 0.37269 0.28861 0.0
O371 O 0.08644 0.36384 0.2492 0.0
C372 C 0.11482 0.32806 0.15925 0.0
O373 O 0.13549 0.33129 0.15799 0.0
O374 O 0.10568 0.32769 0.17766 0.0
O375 O 0.10034 0.37028 0.20068 0.0
O376 O 0.12057 0.3918 0.21828 0.0
O377 O 0.14984 0.34999 0.19482 0.0
C378 C 0.13042 0.33108 0.24617 0.0
C379 C 0.10928 0.38813 0.20212 0.0
Zn380 Zn 0.86321 0.86625 0.48905 0.0
Zn381 Zn 0.89268 0.86571 0.44612 0.0
C382 C 0.85864 0.82306 0.49956 0.0
O383 O 0.83884 0.82973 0.49625 0.0
C384 C 0.90085 0.91212 0.44278 0.0
O385 O 0.92059 0.906 0.44714 0.0
O386 O 0.84755 0.87705 0.51513 0.0
O387 O 0.88661 0.88638 0.48318 0.0
O388 O 0.90848 0.86077 0.47396 0.0
C389 C 0.85352 0.87265 0.53418 0.0
O390 O 0.87056 0.86029 0.5372 0.0
O391 O 0.87365 0.83617 0.49639 0.0
C392 C 0.90567 0.86384 0.40423 0.0
O393 O 0.89179 0.87993 0.40462 0.0
O394 O 0.91085 0.85475 0.4218 0.0
O395 O 0.86467 0.85092 0.44068 0.0
O396 O 0.84276 0.86498 0.4652 0.0
O397 O 0.88659 0.89799 0.44174 0.0
C398 C 0.90403 0.87628 0.48622 0.0
C399 C 0.84588 0.85534 0.44762 0.0
Zn400 Zn 0.86357 0.1182 0.23654 0.0
Zn401 Zn 0.86982 0.14842 0.19991 0.0
C402 C 0.90673 0.10781 0.24414 0.0
O403 O 0.89907 0.08911 0.23939 0.0
C404 C 0.82214 0.15228 0.19707 0.0
O405 O 0.8242 0.17198 0.20364 0.0
O406 O 0.85523 0.09942 0.26145 0.0
O407 O 0.84563 0.14466 0.23938 0.0
O408 O 0.87191 0.16461 0.22851 0.0
C409 C 0.85999 0.10497 0.28033 0.0
O410 O 0.86936 0.12332 0.28298 0.0
O411 O 0.89449 0.12424 0.24222 0.0
C412 C 0.86927 0.16832 0.15788 0.0
O413 O 0.84838 0.16812 0.16039 0.0
O414 O 0.88089 0.16545 0.17432 0.0
O415 O 0.88692 0.12064 0.19532 0.0
O416 O 0.86136 0.10142 0.20972 0.0
O417 O 0.83883 0.14047 0.19463 0.0
C418 C 0.85647 0.1613 0.24164 0.0
C419 C 0.87655 0.10341 0.19618 0.0
Zn420 Zn 0.39714 0.60849 0.54157 0.0
Zn421 Zn 0.37213 0.64708 0.49828 0.0
C422 C 0.41799 0.62989 0.57489 0.0
O423 O 0.4326 0.6147 0.57201 0.0
C424 C 0.34622 0.61736 0.47465 0.0
O425 O 0.33893 0.61048 0.49334 0.0
O426 O 0.39603 0.58022 0.55647 0.0
O427 O 0.36683 0.61399 0.53023 0.0
O428 O 0.35178 0.64537 0.52342 0.0
C429 C 0.3858 0.5654 0.5478 0.0
O430 O 0.37712 0.569 0.52893 0.0
O431 O 0.40239 0.6313 0.56219 0.0
C432 C 0.38878 0.67774 0.47119 0.0
O433 O 0.39915 0.6602 0.46544 0.0
O434 O 0.37641 0.67702 0.48751 0.0
O435 O 0.39778 0.63135 0.50813 0.0
O436 O 0.42045 0.60739 0.51834 0.0
O437 O 0.36019 0.63174 0.47389 0.0
C438 C 0.35404 0.62914 0.53589 0.0
C439 C 0.41409 0.61992 0.50356 0.0
Zn440 Zn 0.12896 0.64358 0.28903 0.0
Zn441 Zn 0.08763 0.62097 0.25182 0.0
C442 C 0.11252 0.65864 0.32911 0.0
O443 O 0.13116 0.66774 0.33045 0.0
C444 C 0.11776 0.59479 0.22506 0.0
O445 O 0.13302 0.5986 0.23865 0.0
O446 O 0.15814 0.64232 0.30169 0.0
O447 O 0.12308 0.61264 0.27902 0.0
O448 O 0.08948 0.60285 0.2785 0.0
C449 C 0.17087 0.62694 0.29694 0.0
O450 O 0.16499 0.61208 0.28382 0.0
O451 O 0.10754 0.64976 0.3118 0.0
C452 C 0.0601 0.63843 0.22421 0.0
O453 O 0.07861 0.64682 0.2192 0.0
O454 O 0.05817 0.62863 0.24211 0.0
O455 O 0.10618 0.64547 0.2551 0.0
O456 O 0.12953 0.667 0.26618 0.0
O457 O 0.09918 0.60293 0.22803 0.0
C458 C 0.10826 0.60044 0.28593 0.0
C459 C 0.1172 0.66179 0.25145 0.0
Zn460 Zn 0.35344 0.35414 0.79461 0.0
Zn461 Zn 0.39286 0.36787 0.748 0.0
C462 C 0.37162 0.3308 0.82976 0.0
O463 O 0.35683 0.31685 0.82591 0.0
C464 C 0.3721 0.39911 0.72359 0.0
O465 O 0.38813 0.40833 0.73287 0.0
O466 O 0.32379 0.3608 0.80367 0.0
O467 O 0.36429 0.38013 0.77838 0.0
O468 O 0.39634 0.39032 0.77003 0.0
C469 C 0.31838 0.36357 0.8231 0.0
O470 O 0.33258 0.36182 0.83836 0.0
O471 O 0.37254 0.34788 0.81864 0.0
C472 C 0.42466 0.3673 0.71489 0.0
O473 O 0.4086 0.37476 0.70345 0.0
O474 O 0.42182 0.36233 0.73451 0.0
O475 O 0.38259 0.34392 0.76679 0.0
O476 O 0.35354 0.32825 0.77561 0.0
O477 O 0.37002 0.37913 0.72681 0.0
C478 C 0.38047 0.39113 0.78293 0.0
C479 C 0.3692 0.32979 0.76263 0.0
Zn480 Zn -0.00402 0.86139 0.64402 0.0
Zn481 Zn 0.95 0.89316 0.6107 0.0
C482 C 0.02162 0.83344 0.6164 0.0
O483 O 0.00384 0.82284 0.61465 0.0
C484 C 0.91324 0.9118 0.62949 0.0
O485 O 0.91521 0.92518 0.61314 0.0
O486 O 0.00547 0.86303 0.67436 0.0
O487 O 0.98592 0.88964 0.63193 0.0
O488 O 0.97126 0.91631 0.61497 0.0
C489 C 0.01425 0.88009 0.67995 0.0
O490 O 0.01479 0.89633 0.66635 0.0
O491 O 0.02138 0.85033 0.62739 0.0
C492 C 0.92659 0.88295 0.57462 0.0
O493 O 0.91836 0.86922 0.58834 0.0
O494 O 0.93984 0.89636 0.5809 0.0
O495 O 0.9636 0.86305 0.61399 0.0
O496 O 0.97059 0.84226 0.64167 0.0
O497 O 0.92671 0.89655 0.63176 0.0
C498 C 0.98747 0.90841 0.62432 0.0
C499 C 0.95767 0.84846 0.62713 0.0
Zn500 Zn 0.85131 0.20774 0.36969 0.0
Zn501 Zn 0.87601 0.25286 0.36429 0.0
C502 C 0.84258 0.20078 0.32485 0.0
O503 O 0.82294 0.20483 0.33173 0.0
C504 C 0.87887 0.26303 0.40913 0.0
O505 O 0.89913 0.258 0.40548 0.0
O506 O 0.83849 0.18145 0.38438 0.0
O507 O 0.88006 0.207 0.385 0.0
O508 O 0.8979 0.23004 0.36509 0.0
C509 C 0.83395 0.1639 0.37555 0.0
O510 O 0.83136 0.16355 0.35467 0.0
O511 O 0.85779 0.20091 0.3382 0.0
C512 C 0.88588 0.29761 0.36036 0.0
O513 O 0.86958 0.30004 0.37374 0.0
O514 O 0.89082 0.27909 0.35343 0.0
O515 O 0.85259 0.24658 0.34454 0.0
O516 O 0.83167 0.23514 0.37033 0.0
O517 O 0.86546 0.26007 0.39432 0.0
C518 C 0.89766 0.21367 0.37727 0.0
C519 C 0.8347 0.24766 0.35423 0.0
Zn520 Zn 0.54338 0.09036 0.11803 0.0
Zn521 Zn 0.49062 0.1276 0.12398 0.0
C522 C 0.54905 0.08389 0.07235 0.0
O523 O 0.53589 0.06808 0.0756 0.0
C524 C 0.48397 0.1205 0.17034 0.0
O525 O 0.5035 0.12714 0.17304 0.0
O526 O 0.56533 0.08108 0.13958 0.0
O527 O 0.5339 0.12014 0.12604 0.0
O528 O 0.51386 0.14821 0.13169 0.0
C529 C 0.58283 0.07202 0.1339 0.0
O530 O 0.58442 0.06421 0.11444 0.0
O531 O 0.55559 0.09414 0.08835 0.0
C532 C 0.44835 0.13717 0.10935 0.0
O533 O 0.4439 0.12023 0.1212 0.0
O534 O 0.46766 0.14299 0.10757 0.0
O535 O 0.50383 0.10356 0.10651 0.0
O536 O 0.51675 0.07242 0.1164 0.0
O537 O 0.47702 0.11769 0.15152 0.0
C538 C 0.53248 0.13964 0.1312 0.0
C539 C 0.50078 0.08391 0.11038 0.0
Zn540 Zn 0.6548 0.79045 0.87128 0.0
Zn541 Zn 0.61648 0.74581 0.87911 0.0
C542 C 0.65493 0.79138 0.82324 0.0
O543 O 0.66834 0.77492 0.82441 0.0
C544 C 0.61138 0.73341 0.92269 0.0
O545 O 0.59138 0.73714 0.91723 0.0
O546 O 0.67011 0.81315 0.88724 0.0
O547 O 0.627 0.79042 0.88909 0.0
O548 O 0.5989 0.77273 0.87932 0.0
C549 C 0.66975 0.83224 0.87996 0.0
O550 O 0.66603 0.83563 0.85947 0.0
O551 O 0.64805 0.80003 0.84051 0.0
C552 C 0.60214 0.70242 0.87371 0.0
O553 O 0.61946 0.69696 0.88441 0.0
O554 O 0.59855 0.72201 0.86886 0.0
O555 O 0.6406 0.7513 0.85879 0.0
O556 O 0.67086 0.76136 0.87133 0.0
O557 O 0.62613 0.73745 0.909 0.0
C558 C 0.60769 0.79038 0.88286 0.0
C559 C 0.65947 0.74643 0.86447 0.0
Zn560 Zn 0.95655 0.08981 0.87353 0.0
Zn561 Zn -0.00364 0.11835 0.8757 0.0
C562 C 0.95201 0.08911 0.9208 0.0
O563 O 0.95974 0.06945 0.91932 0.0
C564 C 0.0007 0.12481 0.83185 0.0
O565 O -0.00461 0.144 0.8387 0.0
O566 O 0.93137 0.07449 0.86139 0.0
O567 O 0.95573 0.11607 0.85438 0.0
O568 O 0.96979 0.13645 0.87838 0.0
C569 C 0.91316 0.07674 0.87053 0.0
O570 O 0.91243 0.08186 0.8909 0.0
O571 O 0.9494 0.10025 0.90374 0.0
C572 C 0.04072 0.13382 0.88333 0.0
O573 O 0.04544 0.11609 0.89398 0.0
O574 O 0.02171 0.13763 0.87709 0.0
O575 O -0.00155 0.09331 0.89597 0.0
O576 O 0.98429 0.07182 0.87298 0.0
O577 O 0.00019 0.1091 0.84508 0.0
C578 C 0.9565 0.13403 0.86347 0.0
C579 C -0.00149 0.07531 0.88686 0.0
Zn580 Zn 0.64357 0.20637 0.6247 0.0
Zn581 Zn 0.61438 0.24512 0.63423 0.0
C582 C 0.64752 0.19874 0.67136 0.0
O583 O 0.66719 0.20536 0.66876 0.0
C584 C 0.60595 0.25431 0.59128 0.0
O585 O 0.58688 0.25113 0.59975 0.0
O586 O 0.65926 0.18208 0.61009 0.0
O587 O 0.6157 0.20602 0.60877 0.0
O588 O 0.59575 0.21957 0.63481 0.0
C589 C 0.66225 0.16415 0.6196 0.0
O590 O 0.66107 0.16321 0.64067 0.0
O591 O 0.63552 0.1976 0.65515 0.0
C592 C 0.60496 0.28952 0.63701 0.0
O593 O 0.62383 0.28998 0.62745 0.0
O594 O 0.59762 0.2716 0.6432 0.0
O595 O 0.64019 0.24227 0.65202 0.0
O596 O 0.66029 0.23415 0.6244 0.0
O597 O 0.62217 0.25163 0.6032 0.0
C598 C 0.59808 0.20678 0.61925 0.0
C599 C 0.65679 0.24574 0.64076 0.0
Zn600 Zn 0.53704 0.89084 0.37311 0.0
Zn601 Zn 0.49745 0.86253 0.37712 0.0
C602 C 0.5441 0.895 0.41867 0.0
O603 O 0.54031 0.91522 0.4137 0.0
C604 C 0.49214 0.85948 0.33294 0.0
O605 O 0.49547 0.83952 0.33901 0.0
O606 O 0.56158 0.90758 0.36093 0.0
O607 O 0.54014 0.86486 0.35432 0.0
O608 O 0.52342 0.84322 0.37672 0.0
C609 C 0.57906 0.90833 0.37098 0.0
O610 O 0.57982 0.90144 0.39094 0.0
O611 O 0.54318 0.88114 0.40401 0.0
C612 C 0.45438 0.84656 0.37331 0.0
O613 O 0.45232 0.86237 0.35932 0.0
O614 O 0.47178 0.84394 0.38355 0.0
O615 O 0.49775 0.88697 0.39735 0.0
O616 O 0.50948 0.90881 0.37244 0.0
O617 O 0.49319 0.87387 0.34701 0.0
C618 C 0.53748 0.84627 0.36215 0.0
C619 C 0.4961 0.90482 0.38745 0.0
Zn620 Zn 0.87019 0.74948 0.09928 0.0
Zn621 Zn 0.8503 0.78517 0.1404 0.0
C622 C 0.90155 0.72064 0.11738 0.0
O623 O 0.91358 0.73598 0.10971 0.0
C624 C 0.82907 0.81974 0.11595 0.0
O625 O 0.81357 0.81936 0.13044 0.0
O626 O 0.87103 0.74499 0.06811 0.0
O627 O 0.84162 0.76096 0.10856 0.0
O628 O 0.8314 0.76013 0.14178 0.0
C629 C 0.85781 0.73105 0.06326 0.0
O630 O 0.84602 0.7228 0.07869 0.0
O631 O 0.88137 0.72233 0.11493 0.0
C632 C 0.86227 0.81185 0.17268 0.0
O633 O 0.87729 0.81596 0.15834 0.0
O634 O 0.84691 0.80011 0.16775 0.0
O635 O 0.88258 0.7778 0.1379 0.0
O636 O 0.88943 0.77282 0.10336 0.0
O637 O 0.84345 0.80507 0.11613 0.0
C638 C 0.83086 0.75209 0.12338 0.0
C639 C 0.89357 0.78163 0.12089 0.0
Zn640 Zn 0.64169 -0.00066 0.8653 0.0
Zn641 Zn 0.61628 0.94667 0.90049 0.0
C642 C 0.63203 0.02916 0.83385 0.0
O643 O 0.64577 0.01599 0.82444 0.0
C644 C 0.63302 0.90654 0.91873 0.0
O645 O 0.61414 0.90513 0.92816 0.0
O646 O 0.67233 0.00705 0.86815 0.0
O647 O 0.62936 0.98879 0.89359 0.0
O648 O 0.61568 0.97187 0.92093 0.0
C649 C 0.68125 0.00796 0.88626 0.0
O650 O 0.67122 0.00076 0.90348 0.0
O651 O 0.62663 0.02569 0.85334 0.0
C652 C 0.57861 0.9295 0.88163 0.0
O653 O 0.59132 0.9274 0.86486 0.0
O654 O 0.58608 0.93612 0.89911 0.0
O655 O 0.62639 0.9568 0.87092 0.0
O656 O 0.63894 0.97552 0.84388 0.0
O657 O 0.63737 0.92353 0.90835 0.0
C658 C 0.62157 0.98945 0.91249 0.0
C659 C 0.63131 0.95818 0.85109 0.0
Zn660 Zn 0.79823 0.86749 0.64931 0.0
Zn661 Zn 0.74762 0.88593 0.61413 0.0
C662 C 0.80117 0.82171 0.6528 0.0
O663 O 0.7876 0.8245 0.66886 0.0
C664 C 0.73647 0.92951 0.62175 0.0
O665 O 0.74641 0.93215 0.60318 0.0
O666 O 0.81973 0.88587 0.6625 0.0
O667 O 0.79239 0.88044 0.62021 0.0
O668 O 0.77234 0.89374 0.5948 0.0
C669 C 0.83801 0.87831 0.66741 0.0
O670 O 0.84063 0.8575 0.66961 0.0
O671 O 0.80897 0.83793 0.6433 0.0
C672 C 0.70423 0.88216 0.59891 0.0
O673 O 0.69886 0.89086 0.61736 0.0
O674 O 0.7238 0.87746 0.59491 0.0
O675 O 0.75782 0.86221 0.63418 0.0
O676 O 0.77077 0.86568 0.6662 0.0
O677 O 0.73689 0.9111 0.63062 0.0
C678 C 0.79082 0.88824 0.60135 0.0
C679 C 0.75471 0.86312 0.65435 0.0
Zn680 Zn 0.87222 0.03869 0.39137 0.0
Zn681 Zn 0.87362 -0.00139 0.36228 0.0
C682 C 0.91794 0.04322 0.39472 0.0
O683 O 0.91339 0.03894 0.41499 0.0
C684 C 0.82837 -0.00367 0.36152 0.0
O685 O 0.83167 0.00301 0.3417 0.0
O686 O 0.86077 0.06542 0.40644 0.0
O687 O 0.85343 0.04139 0.36547 0.0
O688 O 0.87641 0.02524 0.34397 0.0
C689 C 0.87035 0.08304 0.40372 0.0
O690 O 0.89039 0.08264 0.39711 0.0
O691 O 0.90283 0.04345 0.38125 0.0
C692 C 0.88114 0.95413 0.34765 0.0
O693 O 0.88859 0.94999 0.36694 0.0
O694 O 0.87541 0.97314 0.34239 0.0
O695 O 0.89396 -0.00532 0.38685 0.0
O696 O 0.8716 0.01075 0.40945 0.0
O697 O 0.84392 -0.00418 0.37443 0.0
C698 C 0.86263 0.04006 0.34728 0.0
C699 C 0.88554 -0.00402 0.40552 0.0
Zn700 Zn 0.70453 0.11278 0.14218 0.0
Zn701 Zn 0.74632 0.11721 0.11213 0.0
C702 C 0.69577 0.15753 0.14755 0.0
O703 O 0.69888 0.15144 0.16759 0.0
C704 C 0.75349 0.06944 0.11293 0.0
O705 O 0.74101 0.06849 0.09621 0.0
O706 O 0.67923 0.09942 0.15761 0.0
O707 O 0.70549 0.09419 0.11628 0.0
O708 O 0.71991 0.11704 0.09384 0.0
C709 C 0.66089 0.10844 0.15995 0.0
O710 O 0.6588 0.12917 0.15669 0.0
O711 O 0.69716 0.14357 0.13293 0.0
C712 C 0.78979 0.12236 0.09912 0.0
O713 O 0.793 0.11266 0.1177 0.0
O714 O 0.77078 0.12695 0.09329 0.0
O715 O 0.74491 0.13669 0.13773 0.0
O716 O 0.73151 0.11286 0.16024 0.0
O717 O 0.75633 0.08732 0.12185 0.0
C718 C 0.70586 0.10324 0.09796 0.0
C719 C 0.74434 0.128 0.15631 0.0
Zn720 Zn 0.62769 0.04544 0.60105 0.0
Zn721 Zn 0.62403 0.00021 0.63291 0.0
C722 C 0.58182 0.05039 0.59418 0.0
O723 O 0.5864 0.04198 0.57541 0.0
C724 C 0.66553 0.98751 0.6397 0.0
O725 O 0.65741 0.9905 0.65904 0.0
O726 O 0.64231 0.06886 0.58478 0.0
O727 O 0.64293 0.04593 0.62958 0.0
O728 O 0.62659 0.02407 0.6528 0.0
C729 C 0.63304 0.087 0.58233 0.0
O730 O 0.61204 0.08815 0.58208 0.0
O731 O 0.59686 0.05377 0.60714 0.0
C732 C 0.61795 0.95494 0.64195 0.0
O733 O 0.63058 0.95262 0.62504 0.0
O734 O 0.61239 0.97376 0.64781 0.0
O735 O 0.6052 0.01022 0.60965 0.0
O736 O 0.62839 0.01818 0.58481 0.0
O737 O 0.65403 0.99207 0.62349 0.0
C738 C 0.63753 0.04053 0.64867 0.0
C739 C 0.61371 0.00611 0.59169 0.0
Zn740 Zn 0.73883 0.9025 0.38217 0.0
Zn741 Zn 0.69672 0.86024 0.36125 0.0
C742 C 0.7672 0.8703 0.40401 0.0
O743 O 0.74971 0.86319 0.41328 0.0
C744 C 0.66091 0.88335 0.34304 0.0
O745 O 0.66734 0.8754 0.32456 0.0
O746 O 0.74761 0.93301 0.37823 0.0
O747 O 0.72344 0.89117 0.35661 0.0
O748 O 0.71491 0.86661 0.33481 0.0
C749 C 0.76163 0.93475 0.36341 0.0
O750 O 0.76571 0.91827 0.35111 0.0
O751 O 0.76585 0.88588 0.39062 0.0
C752 C 0.67744 0.82018 0.3729 0.0
O753 O 0.66629 0.83162 0.38681 0.0
O754 O 0.69107 0.82915 0.36077 0.0
O755 O 0.71276 0.86852 0.38825 0.0
O756 O 0.71673 0.89844 0.40546 0.0
O757 O 0.67051 0.87802 0.36017 0.0
C758 C 0.72795 0.88074 0.33983 0.0
C759 C 0.70613 0.8816 0.40255 0.0
Zn760 Zn 0.86032 0.94571 0.1026 0.0
Zn761 Zn 0.86318 0.98967 0.13244 0.0
C762 C 0.90434 0.93951 0.09075 0.0
O763 O 0.89513 0.94032 0.07191 0.0
C764 C 0.81518 0.00015 0.13005 0.0
O765 O 0.81104 0.98456 0.14377 0.0
O766 O 0.85029 0.91968 0.08773 0.0
O767 O 0.84283 0.94444 0.13027 0.0
O768 O 0.86144 0.96418 0.15183 0.0
C769 C 0.85665 0.90412 0.09954 0.0
O770 O 0.86842 0.90798 0.1163 0.0
O771 O 0.89271 0.94124 0.10762 0.0
C772 C 0.87529 0.03202 0.13905 0.0
O773 O 0.86716 0.03341 0.11976 0.0
O774 O 0.87692 0.01368 0.14812 0.0
O775 O 0.88135 0.98205 0.10702 0.0
O776 O 0.85685 0.97241 0.0848 0.0
O777 O 0.83435 0.00292 0.12354 0.0
C778 C 0.85095 0.94747 0.14848 0.0
C779 C 0.87203 0.98462 0.08924 0.0
Zn780 Zn 0.79539 0.11955 0.84863 0.0
Zn781 Zn 0.74509 0.1229 0.88067 0.0
C782 C 0.79588 0.16634 0.84543 0.0
O783 O 0.78381 0.16387 0.82864 0.0
C784 C 0.73902 0.07784 0.88632 0.0
O785 O 0.75085 0.0807 0.90319 0.0
O786 O 0.82134 0.10439 0.83628 0.0
O787 O 0.79108 0.10254 0.87643 0.0
O788 O 0.76973 0.11945 0.89987 0.0
C789 C 0.83825 0.1143 0.83141 0.0
O790 O 0.83703 0.13518 0.82894 0.0
O791 O 0.80291 0.15004 0.85584 0.0
C792 C 0.70145 0.13374 0.89285 0.0
O793 O 0.69705 0.12211 0.87619 0.0
O794 O 0.72087 0.13792 0.89664 0.0
O795 O 0.75727 0.13768 0.85548 0.0
O796 O 0.76995 0.11883 0.82911 0.0
O797 O 0.73481 0.09355 0.87373 0.0
C798 C 0.7871 0.10944 0.89524 0.0
C799 C 0.75432 0.12902 0.83762 0.0
Zn800 Zn 0.86433 0.62777 0.98879 0.0
Zn801 Zn 0.89836 0.60074 0.94432 0.0
C802 C 0.83025 0.6206 0.01575 0.0
O803 O 0.82329 0.63598 0.00282 0.0
C804 C 0.91396 0.62908 0.9107 0.0
O805 O 0.93059 0.61585 0.90959 0.0
O806 O 0.86517 0.65706 -0.00257 0.0
O807 O 0.89314 0.61598 0.98322 0.0
O808 O 0.9205 0.60113 0.96805 0.0
C809 C 0.87508 0.67423 -0.00548 0.0
O810 O 0.89192 0.6749 0.98165 0.0
O811 O 0.8488 0.6125 0.01238 0.0
C812 C 0.88714 0.5674 0.919 0.0
O813 O 0.86988 0.57949 0.91729 0.0
O814 O 0.90338 0.57413 0.92847 0.0
O815 O 0.86678 0.59954 0.95417 0.0
O816 O 0.84743 0.62774 0.96236 0.0
O817 O 0.89978 0.62601 0.92507 0.0
C818 C 0.91227 0.60932 0.98474 0.0
C819 C 0.85284 0.6138 0.94876 0.0
Zn820 Zn 0.39687 0.86989 0.03505 0.0
Zn821 Zn 0.37133 0.86924 0.99314 0.0
C822 C 0.39832 0.9147 0.04483 0.0
O823 O 0.41781 0.90826 0.04986 0.0
C824 C 0.3682 0.82335 0.98306 0.0
O825 O 0.34933 0.82461 0.9926 0.0
O826 O 0.41023 0.86392 0.06406 0.0
O827 O 0.37152 0.85013 0.03858 0.0
O828 O 0.35206 0.87118 0.0184 0.0
C829 C 0.39628 0.86978 0.07806 0.0
O830 O 0.3786 0.87934 0.07143 0.0
O831 O 0.38613 0.90144 0.03606 0.0
C832 C 0.35575 0.88346 0.95094 0.0
O833 O 0.37574 0.88479 0.9443 0.0
O834 O 0.35158 0.87835 0.97028 0.0
O835 O 0.39579 0.88913 0.99272 0.0
O836 O 0.41736 0.86623 0.00908 0.0
O837 O 0.38058 0.83922 0.98381 0.0
C838 C 0.35365 0.8593 0.03486 0.0
C839 C 0.41419 0.88042 -0.00552 0.0
Zn840 Zn 0.8661 0.64759 0.79146 0.0
Zn841 Zn 0.87802 0.61315 0.74112 0.0
C842 C 0.82109 0.64891 0.79678 0.0
O843 O 0.82472 0.66904 0.79194 0.0
C844 C 0.92163 0.60959 0.73319 0.0
O845 O 0.91749 0.5906 0.74129 0.0
O846 O 0.88076 0.6593 0.81681 0.0
O847 O 0.88533 0.62404 0.78047 0.0
O848 O 0.88197 0.59297 0.76636 0.0
C849 C 0.87227 0.65745 0.83536 0.0
O850 O 0.8526 0.65066 0.83727 0.0
O851 O 0.83696 0.63594 0.79849 0.0
C852 C 0.87469 0.59792 0.69705 0.0
O853 O 0.88918 0.61214 0.69211 0.0
O854 O 0.86725 0.59683 0.7162 0.0
O855 O 0.85767 0.63625 0.75243 0.0
O856 O 0.86225 0.66775 0.76561 0.0
O857 O 0.90683 0.6239 0.73296 0.0
C858 C 0.88425 0.60396 0.78305 0.0
C859 C 0.85906 0.65626 0.74929 0.0
Zn860 Zn 0.09826 0.11967 0.54574 0.0
Zn861 Zn 0.12854 0.12503 0.49611 0.0
C862 C 0.08993 0.07258 0.5473 0.0
O863 O 0.0727 0.07662 0.53596 0.0
C864 C 0.12929 0.16789 0.48471 0.0
O865 O 0.14938 0.16298 0.48891 0.0
O866 O 0.08274 0.13516 0.56925 0.0
O867 O 0.12962 0.13011 0.54781 0.0
O868 O 0.14946 0.1305 0.51795 0.0
C869 C 0.07725 0.12586 0.58667 0.0
O870 O 0.07703 0.10486 0.58738 0.0
O871 O 0.10136 0.08801 0.55307 0.0
C872 C 0.13833 0.11825 0.45086 0.0
O873 O 0.12061 0.12936 0.44723 0.0
O874 O 0.14415 0.11422 0.47003 0.0
O875 O 0.10919 0.10356 0.50854 0.0
O876 O 0.08129 0.12204 0.51812 0.0
O877 O 0.11531 0.15362 0.48776 0.0
C878 C 0.14744 0.13324 0.53801 0.0
C879 C 0.09028 0.10965 0.5047 0.0
Zn880 Zn 0.11897 0.84295 0.7894 0.0
Zn881 Zn 0.12514 0.87226 0.74788 0.0
C882 C 0.1662 0.84048 0.79382 0.0
O883 O 0.1646 0.82049 0.788 0.0
C884 C 0.08307 0.88182 0.73943 0.0
O885 O 0.09171 0.90044 0.74249 0.0
O886 O 0.10606 0.8286 0.81608 0.0
O887 O 0.10159 0.87082 0.78967 0.0
O888 O 0.12546 0.89099 0.77341 0.0
C889 C 0.11579 0.82816 0.83394 0.0
O890 O 0.13635 0.832 0.83399 0.0
O891 O 0.14928 0.85205 0.79558 0.0
C892 C 0.12914 0.88285 0.70239 0.0
O893 O 0.11909 0.86482 0.70018 0.0
O894 O 0.13425 0.88856 0.72118 0.0
O895 O 0.14381 0.84664 0.75118 0.0
O896 O 0.11897 0.82488 0.76149 0.0
O897 O 0.09467 0.86504 0.74214 0.0
C898 C 0.11109 0.88852 0.78778 0.0
C899 C 0.13411 0.82946 0.74837 0.0
Zn900 Zn 0.61732 0.3426 0.49 0.0
Zn901 Zn 0.5922 0.38256 0.44776 0.0
C902 C 0.64829 0.36553 0.51181 0.0
O903 O 0.66067 0.35678 0.49705 0.0
C904 C 0.5767 0.36759 0.40776 0.0
O905 O 0.56694 0.38642 0.40714 0.0
O906 O 0.61741 0.31315 0.50274 0.0
O907 O 0.58946 0.35499 0.47986 0.0
O908 O 0.56946 0.38207 0.47154 0.0
C909 C 0.6041 0.31041 0.51799 0.0
O910 O 0.59028 0.32585 0.5226 0.0
O911 O 0.62849 0.36163 0.5122 0.0
C912 C 0.6112 0.42212 0.43618 0.0
O913 O 0.62861 0.41224 0.44297 0.0
O914 O 0.59362 0.41234 0.4358 0.0
O915 O 0.62197 0.37509 0.45975 0.0
O916 O 0.63698 0.34359 0.46398 0.0
O917 O 0.5867 0.36195 0.42457 0.0
C918 C 0.57478 0.36819 0.48562 0.0
C919 C 0.63459 0.36049 0.45262 0.0
Zn920 Zn 0.89772 0.37314 0.73937 0.0
Zn921 Zn 0.85783 0.35171 0.6982 0.0
C922 C 0.86681 0.39939 0.76501 0.0
O923 O 0.85563 0.40239 0.74751 0.0
C924 C 0.88628 0.33221 0.66409 0.0
O925 O 0.88253 0.31256 0.6706 0.0
O926 O 0.92716 0.36565 0.74738 0.0
O927 O 0.8827 0.34832 0.72951 0.0
O928 O 0.86019 0.32618 0.71856 0.0
C929 C 0.92717 0.35641 0.76559 0.0
O930 O 0.90902 0.34952 0.77369 0.0
O931 O 0.8835 0.38735 0.76469 0.0
C932 C 0.82009 0.35052 0.67404 0.0
O933 O 0.83334 0.34409 0.65875 0.0
O934 O 0.82724 0.35511 0.69216 0.0
O935 O 0.86531 0.38052 0.71059 0.0
O936 O 0.89687 0.39382 0.7149 0.0
O937 O 0.87686 0.34798 0.67298 0.0
C938 C 0.87254 0.33153 0.73323 0.0
C939 C 0.88014 0.39259 0.7037 0.0
Zn940 Zn 0.59417 0.61253 0.23965 0.0
Zn941 Zn 0.63355 0.63376 0.19431 0.0
C942 C 0.61389 0.58627 0.26948 0.0
O943 O 0.6019 0.57329 0.2588 0.0
C944 C 0.61334 0.64959 0.15739 0.0
O945 O 0.6203 0.66831 0.16302 0.0
O946 O 0.56422 0.61463 0.25115 0.0
O947 O 0.60253 0.63856 0.22228 0.0
O948 O 0.62636 0.66029 0.21056 0.0
C949 C 0.562 0.63044 0.26353 0.0
O950 O 0.57825 0.64309 0.26569 0.0
O951 O 0.61348 0.60603 0.2646 0.0
C952 C 0.67018 0.62069 0.17293 0.0
O953 O 0.65722 0.60595 0.16655 0.0
O954 O 0.66353 0.63471 0.18596 0.0
O955 O 0.62721 0.60714 0.21211 0.0
O956 O 0.59822 0.58912 0.21801 0.0
O957 O 0.61689 0.63312 0.16887 0.0
C958 C 0.61404 0.65452 0.22567 0.0
C959 C 0.61498 0.59225 0.20668 0.0
Zn960 Zn 0.5414 0.59553 0.87864 0.0
Zn961 Zn 0.49682 0.62837 0.84553 0.0
C962 C 0.57746 0.57818 0.85215 0.0
O963 O 0.57845 0.56149 0.86521 0.0
C964 C 0.45978 0.65348 0.85504 0.0
O965 O 0.45681 0.65012 0.83458 0.0
O966 O 0.55373 0.59231 0.9083 0.0
O967 O 0.53107 0.62683 0.87514 0.0
O968 O 0.52454 0.64287 0.84444 0.0
C969 C 0.5585 0.60942 0.91762 0.0
O970 O 0.5579 0.62748 0.90669 0.0
O971 O 0.56307 0.59245 0.8552 0.0
C972 C 0.47671 0.60887 0.80967 0.0
O973 O 0.47609 0.5924 0.82301 0.0
O974 O 0.48584 0.62566 0.81549 0.0
O975 O 0.50174 0.60015 0.86012 0.0
O976 O 0.51739 0.57403 0.87727 0.0
O977 O 0.4766 0.64615 0.8639 0.0
C978 C 0.53728 0.63908 0.85978 0.0
C979 C 0.50049 0.5819 0.86907 0.0
Zn980 Zn 0.6171 0.2409 0.12422 0.0
Zn981 Zn 0.64352 0.28365 0.11676 0.0
C982 C 0.60987 0.23191 0.0812 0.0
O983 O 0.59043 0.23531 0.08895 0.0
C984 C 0.64835 0.28744 0.16468 0.0
O985 O 0.66703 0.27771 0.16208 0.0
O986 O 0.60043 0.21604 0.13531 0.0
O987 O 0.6415 0.24549 0.14276 0.0
O988 O 0.66188 0.25516 0.11594 0.0
C989 C 0.60412 0.19683 0.12977 0.0
O990 O 0.62101 0.19242 0.11765 0.0
O991 O 0.62566 0.2344 0.09348 0.0
C992 C 0.66251 0.3262 0.10956 0.0
O993 O 0.6653 0.32618 0.13043 0.0
O994 O 0.65719 0.30888 0.10082 0.0
O995 O 0.61446 0.28481 0.10146 0.0
O996 O 0.59676 0.26479 0.1245 0.0
O997 O 0.63695 0.29199 0.14832 0.0
C998 C 0.65841 0.24245 0.13178 0.0
C999 C 0.59688 0.27952 0.11037 0.0
Zn1000 Zn -0.00172 0.36152 0.36458 0.0
Zn1001 Zn 0.94681 0.39821 0.36978 0.0
C1002 C 0.00726 0.36636 0.31845 0.0
O1003 O 0.98998 0.35525 0.31568 0.0
C1004 C 0.93828 0.40221 0.41396 0.0
O1005 O 0.94544 0.42136 0.4095 0.0
O1006 O 0.02056 0.34504 0.38007 0.0
O1007 O 0.98559 0.38529 0.38362 0.0
O1008 O 0.97263 0.41669 0.3739 0.0
C1009 C 0.04012 0.35001 0.37876 0.0
O1010 O 0.04546 0.36854 0.37034 0.0
O1011 O 0.01229 0.37205 0.33724 0.0
C1012 C 0.90589 0.41549 0.35838 0.0
O1013 O 0.905 0.42062 0.37876 0.0
O1014 O 0.92368 0.40915 0.35043 0.0
O1015 O 0.95986 0.37206 0.35804 0.0
O1016 O 0.9748 0.3411 0.35598 0.0
O1017 O 0.93615 0.38911 0.39888 0.0
C1018 C 0.98847 0.40509 0.38029 0.0
C1019 C 0.95778 0.35241 0.35485 0.0
Zn1020 Zn 0.87279 0.75123 0.60804 0.0
Zn1021 Zn 0.84009 0.69629 0.61915 0.0
C1022 C 0.87616 0.75781 0.56269 0.0
O1023 O 0.89565 0.75024 0.56592 0.0
C1024 C 0.84641 0.69457 0.6648 0.0
O1025 O 0.84395 0.71542 0.66319 0.0
O1026 O 0.88611 0.77687 0.6216 0.0
O1027 O 0.84903 0.73798 0.62558 0.0
O1028 O 0.81901 0.72161 0.62209 0.0
C1029 C 0.88563 0.79486 0.61175 0.0
O1030 O 0.87454 0.79707 0.59408 0.0
O1031 O 0.86302 0.75875 0.57848 0.0
C1032 C 0.82631 0.65608 0.60393 0.0
O1033 O 0.8213 0.65323 0.62433 0.0
O1034 O 0.83284 0.67423 0.59765 0.0
O1035 O 0.86833 0.70783 0.61029 0.0
O1036 O 0.89531 0.72793 0.60369 0.0
O1037 O 0.84496 0.68318 0.64817 0.0
C1038 C 0.82896 0.73907 0.62317 0.0
C1039 C 0.8878 0.70927 0.60492 0.0
Zn1040 Zn 0.49825 0.36651 0.61079 0.0
Zn1041 Zn 0.53153 0.39663 0.61396 0.0
C1042 C 0.49299 0.35733 0.65506 0.0
O1043 O 0.49862 0.3383 0.64797 0.0
C1044 C 0.54356 0.39898 0.56814 0.0
O1045 O 0.54896 0.41834 0.57352 0.0
O1046 O 0.47575 0.34494 0.60642 0.0
O1047 O 0.49085 0.3929 0.59322 0.0
O1048 O 0.50326 0.41377 0.61795 0.0
C1049 C 0.45665 0.35078 0.61103 0.0
O1050 O 0.45247 0.37081 0.61589 0.0
O1051 O 0.4934 0.37319 0.64203 0.0
C1052 C 0.57416 0.39839 0.61497 0.0
O1053 O 0.56855 0.38259 0.60294 0.0
O1054 O 0.55943 0.41132 0.62149 0.0
O1055 O 0.53614 0.37043 0.63351 0.0
O1056 O 0.52648 0.35127 0.60663 0.0
O1057 O 0.53409 0.38736 0.58212 0.0
C1058 C 0.4894 0.41016 0.60368 0.0
C1059 C 0.5383 0.35349 0.62275 0.0
Zn1060 Zn 0.87682 0.23747 0.85803 0.0
Zn1061 Zn 0.84482 0.28895 0.86065 0.0
C1062 C 0.87885 0.23327 0.90526 0.0
O1063 O 0.88989 0.25079 0.90475 0.0
C1064 C 0.84524 0.29851 0.81537 0.0
O1065 O 0.8254 0.29211 0.81661 0.0
O1066 O 0.89205 0.21514 0.84069 0.0
O1067 O 0.85177 0.25224 0.84491 0.0
O1068 O 0.82256 0.26631 0.85759 0.0
C1069 C 0.88941 0.19572 0.84594 0.0
O1070 O 0.87315 0.19082 0.85849 0.0
O1071 O 0.87123 0.22594 0.88804 0.0
C1072 C 0.81934 0.3262 0.86873 0.0
O1073 O 0.8111 0.32199 0.85002 0.0
O1074 O 0.83274 0.31312 0.87696 0.0
O1075 O 0.8708 0.2784 0.87682 0.0
O1076 O 0.89701 0.26077 0.86059 0.0
O1077 O 0.8564 0.29884 0.83214 0.0
C1078 C 0.83245 0.24992 0.85065 0.0
C1079 C 0.88964 0.27798 0.86864 0.0
Zn1080 Zn 0.99291 0.62929 0.10937 0.0
Zn1081 Zn 0.95519 0.5992 0.11453 0.0
C1082 C -3e-05 0.62801 0.15597 0.0
O1083 O 0.98372 0.64158 0.15722 0.0
C1084 C 0.95087 0.5957 0.06795 0.0
O1085 O 0.95705 0.57576 0.07157 0.0
O1086 O 0.01498 0.64956 0.09926 0.0
O1087 O 0.99294 0.60477 0.08966 0.0
O1088 O 0.98451 0.58331 0.11612 0.0
C1089 C 0.0345 0.6436 0.09804 0.0
O1090 O 0.03973 0.62332 0.10093 0.0
O1091 O 0.00491 0.61972 0.13802 0.0
C1092 C 0.91333 0.58981 0.1173 0.0
O1093 O 0.91442 0.60665 0.10456 0.0
O1094 O 0.93059 0.58085 0.12382 0.0
O1095 O 0.94807 0.6252 0.13279 0.0
O1096 O 0.96631 0.64719 0.11209 0.0
O1097 O 0.94993 0.60865 0.08346 0.0
C1098 C -0.00333 0.58757 0.10007 0.0
C1099 C 0.95107 0.64387 0.12524 0.0
Zn1100 Zn 0.63808 0.69818 0.348 0.0
Zn1101 Zn 0.6152 0.74157 0.38668 0.0
C1102 C 0.66057 0.66693 0.37388 0.0
O1103 O 0.67809 0.67488 0.36541 0.0
C1104 C 0.58818 0.77152 0.36784 0.0
O1105 O 0.57527 0.75896 0.37868 0.0
O1106 O 0.63541 0.69056 0.31819 0.0
O1107 O 0.60975 0.71234 0.35611 0.0
O1108 O 0.59195 0.7206 0.38492 0.0
C1109 C 0.64416 0.67448 0.30942 0.0
O1110 O 0.65713 0.66189 0.32056 0.0
O1111 O 0.64237 0.67378 0.36783 0.0
C1112 C 0.6184 0.76756 0.42187 0.0
O1113 O 0.62117 0.78223 0.40685 0.0
O1114 O 0.61619 0.74828 0.41695 0.0
O1115 O 0.64104 0.725 0.37731 0.0
O1116 O 0.66228 0.7192 0.35057 0.0
O1117 O 0.60819 0.76767 0.36832 0.0
C1118 C 0.59556 0.70737 0.37008 0.0
C1119 C 0.65676 0.73109 0.36603 0.0
Zn1120 Zn 0.87772 0.54022 0.58887 0.0
Zn1121 Zn 0.84127 0.49378 0.61905 0.0
C1122 C 0.85998 0.58041 0.56522 0.0
O1123 O 0.87331 0.57987 0.54871 0.0
C1124 C 0.85221 0.46623 0.65364 0.0
O1125 O 0.84102 0.4809 0.66405 0.0
O1126 O 0.90806 0.545 0.59641 0.0
O1127 O 0.86203 0.53254 0.61593 0.0
O1128 O 0.84235 0.51755 0.64018 0.0
C1129 C 0.91471 0.56382 0.59809 0.0
O1130 O 0.90149 0.58013 0.59467 0.0
O1131 O 0.86144 0.56636 0.58002 0.0
C1132 C 0.81277 0.46913 0.60328 0.0
O1133 O 0.83189 0.46273 0.59677 0.0
O1134 O 0.81112 0.48641 0.61349 0.0
O1135 O 0.85778 0.50031 0.59139 0.0
O1136 O 0.87737 0.51614 0.56721 0.0
O1137 O 0.85503 0.46824 0.63349 0.0
C1138 C 0.85426 0.53282 0.63485 0.0
C1139 C 0.86796 0.49938 0.57358 0.0
Zn1140 Zn 0.74366 0.6095 0.87066 0.0
Zn1141 Zn 0.69597 0.6147 0.8409 0.0
C1142 C 0.75161 0.56586 0.87481 0.0
O1143 O 0.74749 0.57169 0.89466 0.0
C1144 C 0.69225 0.66201 0.84104 0.0
O1145 O 0.70406 0.66121 0.82346 0.0
O1146 O 0.76972 0.61486 0.88834 0.0
O1147 O 0.73954 0.63212 0.84814 0.0
O1148 O 0.72312 0.61531 0.82253 0.0
C1149 C 0.78893 0.61028 0.88264 0.0
O1150 O 0.7931 0.60369 0.86305 0.0
O1151 O 0.74878 0.57955 0.85971 0.0
C1152 C 0.65523 0.61097 0.81866 0.0
O1153 O 0.65545 0.63193 0.81686 0.0
O1154 O 0.67178 0.60112 0.82563 0.0
O1155 O 0.69782 0.59581 0.86735 0.0
O1156 O 0.71902 0.61085 0.89028 0.0
O1157 O 0.6867 0.64477 0.85047 0.0
C1158 C 0.73857 0.62638 0.82881 0.0
C1159 C 0.7011 0.60317 0.88586 0.0
Zn1160 Zn 0.6156 0.49065 0.12383 0.0
Zn1161 Zn 0.62109 0.45278 0.09302 0.0
C1162 C 0.65963 0.4931 0.12933 0.0
O1163 O 0.65304 0.48905 0.14909 0.0
C1164 C 0.57333 0.44931 0.09007 0.0
O1165 O 0.57438 0.45832 0.07088 0.0
O1166 O 0.61081 0.51739 0.14129 0.0
O1167 O 0.59628 0.49123 0.09923 0.0
O1168 O 0.62128 0.48217 0.07616 0.0
C1169 C 0.61927 0.535 0.13566 0.0
O1170 O 0.63046 0.53631 0.11768 0.0
O1171 O 0.64612 0.49255 0.1143 0.0
C1172 C 0.62806 0.40964 0.09011 0.0
O1173 O 0.61526 0.41299 0.10665 0.0
O1174 O 0.63344 0.42568 0.0784 0.0
O1175 O 0.63687 0.44979 0.12139 0.0
O1176 O 0.61209 0.46476 0.14181 0.0
O1177 O 0.59023 0.44657 0.10097 0.0
C1178 C 0.60607 0.49508 0.08176 0.0
C1179 C 0.62594 0.44993 0.13879 0.0
Zn1180 Zn 0.74744 0.3738 0.37492 0.0
Zn1181 Zn 0.78636 0.37432 0.34313 0.0
C1182 C 0.73774 0.41837 0.37917 0.0
O1183 O 0.74123 0.41314 0.39937 0.0
C1184 C 0.79129 0.32929 0.33744 0.0
O1185 O 0.78708 0.33607 0.31783 0.0
O1186 O 0.72296 0.36862 0.3959 0.0
O1187 O 0.74411 0.35426 0.34984 0.0
O1188 O 0.75902 0.37557 0.32554 0.0
C1189 C 0.70361 0.37096 0.38994 0.0
O1190 O 0.69963 0.37504 0.36959 0.0
O1191 O 0.74152 0.40433 0.36493 0.0
C1192 C 0.83047 0.37347 0.32968 0.0
O1193 O 0.82937 0.35323 0.33529 0.0
O1194 O 0.81311 0.38426 0.32722 0.0
O1195 O 0.78801 0.39405 0.36832 0.0
O1196 O 0.77516 0.37061 0.39094 0.0
O1197 O 0.79122 0.34295 0.35241 0.0
C1198 C 0.74538 0.36146 0.33065 0.0
C1199 C 0.78882 0.38467 0.38642 0.0
Zn1200 Zn 0.86478 0.49824 0.85177 0.0
Zn1201 Zn 0.86946 0.44177 0.88155 0.0
C1202 C 0.81936 0.50572 0.8538 0.0
O1203 O 0.82061 0.49834 0.83418 0.0
C1204 C 0.91493 0.43512 0.88079 0.0
O1205 O 0.91442 0.45489 0.88733 0.0
O1206 O 0.87921 0.52536 0.84222 0.0
O1207 O 0.88212 0.48037 0.87237 0.0
O1208 O 0.87287 0.46546 0.90286 0.0
C1209 C 0.87322 0.54312 0.85035 0.0
O1210 O 0.85885 0.54328 0.86595 0.0
O1211 O 0.83627 0.50624 0.8649 0.0
C1212 C 0.84986 0.40477 0.898 0.0
O1213 O 0.86873 0.40105 0.90649 0.0
O1214 O 0.84591 0.42267 0.889 0.0
O1215 O 0.8622 0.45496 0.85275 0.0
O1216 O 0.85855 0.47882 0.82719 0.0
O1217 O 0.89757 0.42542 0.87796 0.0
C1218 C 0.87877 0.48186 0.89231 0.0
C1219 C 0.85774 0.45941 0.83343 0.0
Zn1220 Zn 0.79359 0.62709 0.13528 0.0
Zn1221 Zn 0.75156 0.58965 0.12092 0.0
C1222 C 0.83087 0.6061 0.15143 0.0
O1223 O 0.83104 0.62245 0.16442 0.0
C1224 C 0.72741 0.60978 0.08792 0.0
O1225 O 0.73873 0.59483 0.07808 0.0
O1226 O 0.80868 0.65422 0.13289 0.0
O1227 O 0.77888 0.62167 0.10649 0.0
O1228 O 0.77499 0.58761 0.09929 0.0
C1229 C 0.81131 0.66385 0.11504 0.0
O1230 O 0.8051 0.65516 0.09721 0.0
O1231 O 0.81484 0.60374 0.13956 0.0
C1232 C 0.71962 0.5589 0.12068 0.0
O1233 O 0.70882 0.57558 0.11327 0.0
O1234 O 0.73889 0.56082 0.12633 0.0
O1235 O 0.7676 0.59998 0.14529 0.0
O1236 O 0.77274 0.63012 0.15995 0.0
O1237 O 0.72959 0.61154 0.10817 0.0
C1238 C 0.784 0.60527 0.09541 0.0
C1239 C 0.76061 0.61464 0.15731 0.0
Zn1240 Zn 0.63079 0.4989 0.36055 0.0
Zn1241 Zn 0.63411 0.54572 0.38654 0.0
C1242 C 0.67351 0.48301 0.35729 0.0
O1243 O 0.66876 0.48626 0.33698 0.0
C1244 C 0.58891 0.5529 0.39464 0.0
O1245 O 0.59501 0.54748 0.41413 0.0
O1246 O 0.61786 0.47464 0.34562 0.0
O1247 O 0.61097 0.50997 0.38292 0.0
O1248 O 0.63441 0.51944 0.40591 0.0
C1249 C 0.62073 0.45508 0.35078 0.0
O1250 O 0.63111 0.44985 0.36838 0.0
O1251 O 0.65966 0.48836 0.37155 0.0
C1252 C 0.64007 0.58634 0.40823 0.0
O1253 O 0.61949 0.58623 0.41272 0.0
O1254 O 0.64899 0.56982 0.40024 0.0
O1255 O 0.65099 0.54455 0.35853 0.0
O1256 O 0.63441 0.52135 0.33868 0.0
O1257 O 0.60291 0.55406 0.37965 0.0
C1258 C 0.61942 0.50717 0.40104 0.0
C1259 C 0.64471 0.5384 0.34038 0.0
Zn1260 Zn 0.73697 0.36338 0.60419 0.0
Zn1261 Zn 0.69501 0.37508 0.63233 0.0
C1262 C 0.74395 0.40953 0.6022 0.0
O1263 O 0.73286 0.40966 0.58448 0.0
C1264 C 0.68746 0.33205 0.64565 0.0
O1265 O 0.694 0.33973 0.66388 0.0
O1266 O 0.76206 0.35292 0.58607 0.0
O1267 O 0.73163 0.34524 0.62993 0.0
O1268 O 0.72296 0.37353 0.64861 0.0
C1269 C 0.78111 0.34923 0.59232 0.0
O1270 O 0.7854 0.35016 0.61282 0.0
O1271 O 0.74564 0.39245 0.61342 0.0
C1272 C 0.65536 0.38374 0.65679 0.0
O1273 O 0.65745 0.36464 0.66563 0.0
O1274 O 0.67173 0.39212 0.64811 0.0
O1275 O 0.69386 0.38902 0.60259 0.0
O1276 O 0.71272 0.36471 0.58487 0.0
O1277 O 0.68613 0.34433 0.62923 0.0
C1278 C 0.7339 0.35617 0.64669 0.0
C1279 C 0.69832 0.37921 0.58534 0.0
Zn1280 Zn 0.59408 0.8838 0.54213 0.0
Zn1281 Zn 0.6213 0.84429 0.50272 0.0
C1282 C 0.57606 0.86298 0.57845 0.0
O1283 O 0.56322 0.87993 0.57777 0.0
C1284 C 0.64095 0.86642 0.46754 0.0
O1285 O 0.63614 0.88282 0.47978 0.0
O1286 O 0.59219 0.91125 0.55768 0.0
O1287 O 0.62472 0.88083 0.53007 0.0
O1288 O 0.64269 0.85117 0.52422 0.0
C1289 C 0.60957 0.92033 0.56163 0.0
O1290 O 0.62788 0.91125 0.55628 0.0
O1291 O 0.58929 0.85999 0.56307 0.0
C1292 C 0.59921 0.80615 0.50161 0.0
O1293 O 0.58129 0.81729 0.4992 0.0
O1294 O 0.61434 0.81466 0.51125 0.0
O1295 O 0.59562 0.86318 0.50545 0.0
O1296 O 0.57238 0.88581 0.51812 0.0
O1297 O 0.63519 0.84788 0.47357 0.0
C1298 C 0.63911 0.86724 0.53582 0.0
C1299 C 0.57889 0.87454 0.50255 0.0
Zn1300 Zn 0.12827 0.62394 0.50354 0.0
Zn1301 Zn 0.09486 0.61968 0.44947 0.0
C1302 C 0.12422 0.66879 0.51497 0.0
O1303 O 0.11883 0.67191 0.49481 0.0
C1304 C 0.09782 0.57328 0.44674 0.0
O1305 O 0.08184 0.57386 0.46059 0.0
O1306 O 0.13945 0.59893 0.52049 0.0
O1307 O 0.10055 0.6201 0.49045 0.0
O1308 O 0.07159 0.61561 0.47339 0.0
C1309 C 0.1341 0.59743 0.54016 0.0
O1310 O 0.11557 0.60574 0.54626 0.0
O1311 O 0.12835 0.64993 0.52184 0.0
C1312 C 0.07757 0.6241 0.40785 0.0
O1313 O 0.07381 0.60369 0.4108 0.0
O1314 O 0.08318 0.63497 0.42373 0.0
O1315 O 0.1212 0.63781 0.45736 0.0
O1316 O 0.14785 0.62782 0.47847 0.0
O1317 O 0.10576 0.59061 0.43983 0.0
C1318 C 0.08094 0.61605 0.49127 0.0
C1319 C 0.14094 0.63241 0.4598 0.0
Zn1320 Zn 0.61371 0.87335 0.75007 0.0
Zn1321 Zn 0.62725 0.83881 0.69648 0.0
C1322 C 0.56857 0.87418 0.75756 0.0
O1323 O 0.57039 0.89361 0.74954 0.0
C1324 C 0.67259 0.8448 0.69431 0.0
O1325 O 0.67039 0.8464 0.71523 0.0
O1326 O 0.62592 0.8888 0.77526 0.0
O1327 O 0.63289 0.84969 0.73877 0.0
O1328 O 0.62892 0.81926 0.72329 0.0
C1329 C 0.61559 0.88964 0.79299 0.0
O1330 O 0.59773 0.87921 0.79536 0.0
O1331 O 0.58509 0.86192 0.7581 0.0
C1332 C 0.61137 0.82657 0.65549 0.0
O1333 O 0.63147 0.82103 0.6517 0.0
O1334 O 0.60559 0.83149 0.67445 0.0
O1335 O 0.61821 0.86876 0.70468 0.0
O1336 O 0.60947 0.89494 0.72592 0.0
O1337 O 0.65634 0.84099 0.6831 0.0
C1338 C 0.63079 0.82959 0.7406 0.0
C1339 C 0.61262 0.88824 0.70697 0.0
Zn1340 Zn 0.35708 0.36189 0.99046 0.0
Zn1341 Zn 0.38924 0.3644 0.94624 0.0
C1342 C 0.3501 0.31689 -0.00288 0.0
O1343 O 0.33027 0.32326 0.99349 0.0
C1344 C 0.39868 0.40966 0.94245 0.0
O1345 O 0.41772 0.40235 0.94805 0.0
O1346 O 0.33986 0.36871 0.01794 0.0
O1347 O 0.38214 0.38121 0.98908 0.0
O1348 O 0.40481 0.35898 0.97366 0.0
C1349 C 0.3456 0.37884 0.0345 0.0
O1350 O 0.36453 0.38752 0.0346 0.0
O1351 O 0.365 0.33007 0.99356 0.0
C1352 C 0.40941 0.36095 0.90455 0.0
O1353 O 0.40738 0.38187 0.90349 0.0
O1354 O 0.40743 0.35169 0.92269 0.0
O1355 O 0.36142 0.34923 0.94249 0.0
O1356 O 0.3393 0.36657 0.96467 0.0
O1357 O 0.38358 0.39653 0.94092 0.0
C1358 C 0.40045 0.37222 0.98832 0.0
C1359 C 0.34317 0.35746 0.94692 0.0
Zn1360 Zn 0.36485 0.61843 0.74621 0.0
Zn1361 Zn 0.37114 0.64282 0.6987 0.0
C1362 C 0.409 0.60749 0.74868 0.0
O1363 O 0.40083 0.58872 0.74523 0.0
C1364 C 0.3252 0.65207 0.69203 0.0
O1365 O 0.32969 0.67178 0.697 0.0
O1366 O 0.35689 0.60553 0.77517 0.0
O1367 O 0.34754 0.6445 0.73878 0.0
O1368 O 0.3724 0.66379 0.72371 0.0
C1369 C 0.36848 0.60859 0.79144 0.0
O1370 O 0.38387 0.62251 0.79007 0.0
O1371 O 0.39664 0.62395 0.74774 0.0
C1372 C 0.38268 0.65753 0.65489 0.0
O1373 O 0.36234 0.66266 0.65248 0.0
O1374 O 0.38929 0.65145 0.67321 0.0
O1375 O 0.38319 0.61297 0.70382 0.0
O1376 O 0.35939 0.59706 0.72436 0.0
O1377 O 0.34028 0.63812 0.69093 0.0
C1378 C 0.35809 0.66152 0.73828 0.0
C1379 C 0.37084 0.59743 0.70744 0.0
Zn1380 Zn 0.89669 0.10708 0.04211 0.0
Zn1381 Zn 0.87028 0.13551 0.99115 0.0
C1382 C 0.90624 0.1306 0.08156 0.0
O1383 O 0.92374 0.11876 0.0838 0.0
C1384 C 0.83953 0.11354 0.96833 0.0
O1385 O 0.82779 0.1206 0.98451 0.0
O1386 O 0.89806 0.0777 0.05372 0.0
O1387 O 0.86742 0.10994 0.0275 0.0
O1388 O 0.85002 0.1384 0.01592 0.0
C1389 C 0.88355 0.07202 0.06681 0.0
O1390 O 0.87031 0.08637 0.07504 0.0
O1391 O 0.89461 0.1284 0.0653 0.0
C1392 C 0.88518 0.17912 0.98005 0.0
O1393 O 0.89891 0.17945 -0.00419 0.0
O1394 O 0.8734 0.16325 0.97751 0.0
O1395 O 0.89716 0.12397 0.00289 0.0
O1396 O 0.92239 0.10912 0.02094 0.0
O1397 O 0.85946 0.11677 0.96819 0.0
C1398 C 0.85362 0.12495 0.03094 0.0
C1399 C 0.91595 0.1162 0.00294 0.0
Zn1400 Zn 0.62798 0.14256 0.79144 0.0
Zn1401 Zn 0.59475 0.12295 0.74213 0.0
C1402 C 0.60889 0.15828 0.82865 0.0
O1403 O 0.62663 0.16913 0.82857 0.0
C1404 C 0.6258 0.09598 0.71983 0.0
O1405 O 0.63114 0.08984 0.73932 0.0
O1406 O 0.65556 0.13973 0.80668 0.0
O1407 O 0.62306 0.11427 0.77659 0.0
O1408 O 0.59305 0.10098 0.76609 0.0
C1409 C 0.66856 0.12395 0.80467 0.0
O1410 O 0.66359 0.10799 0.79239 0.0
O1411 O 0.60472 0.14719 0.8125 0.0
C1412 C 0.55494 0.11655 0.72428 0.0
O1413 O 0.56288 0.09691 0.72548 0.0
O1414 O 0.56578 0.13157 0.73175 0.0
O1415 O 0.61051 0.14673 0.75423 0.0
O1416 O 0.63039 0.168 0.77098 0.0
O1417 O 0.61125 0.11033 0.71742 0.0
C1418 C 0.60769 0.1016 0.78005 0.0
C1419 C 0.62088 0.1638 0.75386 0.0
Zn1420 Zn 0.85216 0.85507 0.29297 0.0
Zn1421 Zn 0.89388 0.87028 0.24674 0.0
C1422 C 0.88109 0.83625 0.32522 0.0
O1423 O 0.87859 0.81734 0.31686 0.0
C1424 C 0.86029 0.88419 0.21608 0.0
O1425 O 0.84804 0.88868 0.23279 0.0
O1426 O 0.82175 0.86068 0.29953 0.0
O1427 O 0.86296 0.87958 0.27495 0.0
O1428 O 0.89057 0.89711 0.26428 0.0
C1429 C 0.81649 0.86918 0.31716 0.0
O1430 O 0.83118 0.8732 0.33132 0.0
O1431 O 0.87067 0.85249 0.31813 0.0
C1432 C 0.93282 0.88255 0.2296 0.0
O1433 O 0.92267 0.90111 0.23093 0.0
O1434 O 0.92425 0.86617 0.23795 0.0
O1435 O 0.8837 0.84637 0.26633 0.0
O1436 O 0.85549 0.82868 0.27492 0.0
O1437 O 0.87826 0.87472 0.2189 0.0
C1438 C 0.8755 0.89489 0.27794 0.0
C1439 C 0.87096 0.83171 0.2619 0.0
Zn1440 Zn 0.49869 0.36781 0.13931 0.0
Zn1441 Zn 0.45349 0.39633 0.10777 0.0
C1442 C 0.53253 0.34044 0.12689 0.0
O1443 O 0.53616 0.34259 0.14743 0.0
C1444 C 0.41404 0.41226 0.12795 0.0
O1445 O 0.41393 0.42704 0.11273 0.0
O1446 O 0.51411 0.37292 0.16642 0.0
O1447 O 0.49086 0.39478 0.12507 0.0
O1448 O 0.47529 0.42016 0.10772 0.0
C1449 C 0.50817 0.37827 0.1852 0.0
O1450 O 0.48781 0.38207 0.18956 0.0
O1451 O 0.51681 0.35042 0.11854 0.0
C1452 C 0.43436 0.38013 0.07221 0.0
O1453 O 0.43435 0.36403 0.08576 0.0
O1454 O 0.44138 0.39782 0.07826 0.0
O1455 O 0.46519 0.36464 0.11218 0.0
O1456 O 0.47187 0.35147 0.14422 0.0
O1457 O 0.43037 0.39998 0.12991 0.0
C1458 C 0.49222 0.41296 0.11622 0.0
C1459 C 0.45975 0.35253 0.12803 0.0
Zn1460 Zn 0.34288 0.70454 0.86647 0.0
Zn1461 Zn 0.37705 0.75044 0.87117 0.0
C1462 C 0.34653 0.70812 0.81729 0.0
O1463 O 0.33574 0.72637 0.81703 0.0
C1464 C 0.37767 0.75876 0.91727 0.0
O1465 O 0.39325 0.7443 0.91745 0.0
O1466 O 0.32753 0.67923 0.88004 0.0
O1467 O 0.37096 0.69952 0.88195 0.0
O1468 O 0.39489 0.72445 0.87538 0.0
C1469 C 0.32677 0.66127 0.87073 0.0
O1470 O 0.32936 0.66068 0.84978 0.0
O1471 O 0.34982 0.69813 0.83503 0.0
C1472 C 0.39093 0.79157 0.85979 0.0
O1473 O 0.37283 0.79652 0.86968 0.0
O1474 O 0.39612 0.77197 0.85765 0.0
O1475 O 0.35325 0.74617 0.85112 0.0
O1476 O 0.32612 0.73311 0.86878 0.0
O1477 O 0.3678 0.76285 0.89987 0.0
C1478 C 0.39014 0.70584 0.88181 0.0
C1479 C 0.3344 0.74865 0.8585 0.0
Zn1480 Zn 0.04245 0.59284 0.62188 0.0
Zn1481 Zn 0.99087 0.62491 0.6195 0.0
C1482 C 0.05076 0.58963 0.57609 0.0
O1483 O 0.04362 0.57031 0.57972 0.0
C1484 C 0.97985 0.62683 0.66365 0.0
O1485 O 0.98562 0.64668 0.66038 0.0
O1486 O 0.06703 0.58157 0.63949 0.0
O1487 O 0.03105 0.61921 0.63807 0.0
O1488 O 0.01272 0.64648 0.62444 0.0
C1489 C 0.08275 0.57194 0.63056 0.0
O1490 O 0.0797 0.56288 0.612 0.0
O1491 O 0.05248 0.60212 0.59191 0.0
C1492 C 0.94664 0.637 0.61085 0.0
O1493 O 0.94208 0.62268 0.62581 0.0
O1494 O 0.96595 0.63876 0.6044 0.0
O1495 O 0.00796 0.60253 0.6044 0.0
O1496 O 0.0181 0.57199 0.61802 0.0
O1497 O 0.98106 0.61391 0.64813 0.0
C1498 C 0.03014 0.63873 0.6318 0.0
C1499 C 0.00371 0.5833 0.60877 0.0
Zn1500 Zn 0.14739 0.28646 0.37291 0.0
Zn1501 Zn 0.11874 0.23848 0.37465 0.0
C1502 C 0.15275 0.29165 0.32689 0.0
O1503 O 0.17302 0.29175 0.33221 0.0
C1504 C 0.11206 0.23169 0.41963 0.0
O1505 O 0.09257 0.23767 0.41418 0.0
O1506 O 0.15847 0.31518 0.38208 0.0
O1507 O 0.12095 0.28349 0.39157 0.0
O1508 O 0.09937 0.26347 0.37358 0.0
C1509 C 0.14611 0.33012 0.37504 0.0
O1510 O 0.13106 0.32506 0.3617 0.0
O1511 O 0.13872 0.28897 0.34163 0.0
C1512 C 0.10345 0.19482 0.37366 0.0
O1513 O 0.1177 0.19173 0.38878 0.0
O1514 O 0.10218 0.21297 0.36411 0.0
O1515 O 0.1439 0.24543 0.35615 0.0
O1516 O 0.16812 0.26126 0.37528 0.0
O1517 O 0.12687 0.23222 0.40537 0.0
C1518 C 0.10296 0.28083 0.38291 0.0
C1519 C 0.16213 0.24525 0.36475 0.0
Zn1520 Zn 0.45776 0.59154 0.37602 0.0
Zn1521 Zn 0.49615 0.62293 0.37661 0.0
C1522 C 0.44305 0.58941 0.42071 0.0
O1523 O 0.4352 0.57136 0.41422 0.0
C1524 C 0.5018 0.63354 0.33415 0.0
O1525 O 0.49662 0.6516 0.3436 0.0
O1526 O 0.42828 0.58088 0.36708 0.0
O1527 O 0.45723 0.61825 0.35664 0.0
O1528 O 0.46965 0.64114 0.37933 0.0
C1529 C 0.415 0.59579 0.37265 0.0
O1530 O 0.42203 0.61099 0.3847 0.0
O1531 O 0.45428 0.60044 0.40765 0.0
C1532 C 0.54018 0.63478 0.37355 0.0
O1533 O 0.54164 0.61789 0.36128 0.0
O1534 O 0.52253 0.63924 0.38326 0.0
O1535 O 0.49422 0.59746 0.39545 0.0
O1536 O 0.48603 0.57292 0.37311 0.0
O1537 O 0.50071 0.61626 0.34517 0.0
C1538 C 0.45614 0.63654 0.36522 0.0
C1539 C 0.49942 0.58026 0.38625 0.0
Zn1540 Zn 0.14138 0.7092 0.12442 0.0
Zn1541 Zn 0.11285 0.74411 0.13295 0.0
C1542 C 0.14418 0.69375 0.16841 0.0
O1543 O 0.16358 0.68799 0.16204 0.0
C1544 C 0.10747 0.75277 0.08803 0.0
O1545 O 0.08812 0.7461 0.09248 0.0
O1546 O 0.15768 0.68314 0.1141 0.0
O1547 O 0.11532 0.70761 0.10576 0.0
O1548 O 0.0953 0.71766 0.13295 0.0
C1549 C 0.14648 0.66695 0.11872 0.0
O1550 O 0.12868 0.66952 0.12994 0.0
O1551 O 0.13174 0.70331 0.15531 0.0
C1552 C 0.10132 0.78758 0.13754 0.0
O1553 O 0.1211 0.78937 0.13044 0.0
O1554 O 0.09417 0.769 0.14139 0.0
O1555 O 0.13847 0.74449 0.15154 0.0
O1556 O 0.15891 0.73617 0.12411 0.0
O1557 O 0.12145 0.75225 0.10266 0.0
C1558 C 0.0979 0.70633 0.11634 0.0
C1559 C 0.1556 0.74731 0.14084 0.0
Zn1560 Zn 0.04322 0.39449 0.87684 0.0
Zn1561 Zn 0.99365 0.35925 0.86964 0.0
C1562 C 0.05011 0.39862 0.92052 0.0
O1563 O 0.04233 0.41772 0.91551 0.0
C1564 C 0.99253 0.3739 0.82493 0.0
O1565 O 0.0115 0.36477 0.82212 0.0
O1566 O 0.06503 0.40572 0.85647 0.0
O1567 O 0.03166 0.36922 0.86406 0.0
O1568 O 0.01699 0.33909 0.86016 0.0
C1569 C 0.08206 0.41309 0.86379 0.0
O1570 O 0.08329 0.41623 0.88456 0.0
O1571 O 0.05406 0.38552 0.90556 0.0
C1572 C 0.95175 0.34382 0.87277 0.0
O1573 O 0.94842 0.36018 0.85977 0.0
O1574 O 0.97018 0.34071 0.88065 0.0
O1575 O 0.00453 0.38086 0.89082 0.0
O1576 O 0.01622 0.41231 0.88111 0.0
O1577 O 0.98446 0.37504 0.84371 0.0
C1578 C 0.03397 0.34945 0.86121 0.0
C1579 C 0.00065 0.40058 0.88691 0.0
Zn1580 Zn 0.37349 0.24959 0.60459 0.0
Zn1581 Zn 0.34104 0.29631 0.63533 0.0
C1582 C 0.399 0.2171 0.61493 0.0
O1583 O 0.40891 0.22861 0.60019 0.0
C1584 C 0.31848 0.33399 0.62256 0.0
O1585 O 0.31045 0.33303 0.64216 0.0
O1586 O 0.37425 0.24541 0.57357 0.0
O1587 O 0.34703 0.26405 0.61373 0.0
O1588 O 0.32017 0.27172 0.63394 0.0
C1589 C 0.36252 0.23067 0.5674 0.0
O1590 O 0.35032 0.22083 0.58153 0.0
O1591 O 0.37996 0.22217 0.62019 0.0
C1592 C 0.36051 0.31093 0.67312 0.0
O1593 O 0.37663 0.31452 0.65989 0.0
O1594 O 0.34286 0.30489 0.66573 0.0
O1595 O 0.37244 0.29049 0.62545 0.0
O1596 O 0.39688 0.26939 0.61075 0.0
O1597 O 0.33076 0.31907 0.61612 0.0
C1598 C 0.32956 0.25839 0.62192 0.0
C1599 C 0.39175 0.28698 0.61939 0.0
Zn1600 Zn 0.14775 0.49638 0.36637 0.0
Zn1601 Zn 0.11544 0.44954 0.39765 0.0
C1602 C 0.13806 0.52298 0.33018 0.0
O1603 O 0.15518 0.51262 0.32295 0.0
C1604 C 0.13656 0.41253 0.41567 0.0
O1605 O 0.121 0.41337 0.43007 0.0
O1606 O 0.17679 0.50786 0.37383 0.0
O1607 O 0.1315 0.48928 0.39318 0.0
O1608 O 0.11329 0.47427 0.41872 0.0
C1609 C 0.17541 0.52489 0.38467 0.0
O1610 O 0.15634 0.53315 0.38884 0.0
O1611 O 0.13118 0.5186 0.34901 0.0
C1612 C 0.07295 0.44116 0.38638 0.0
O1613 O 0.07706 0.4579 0.37415 0.0
O1614 O 0.08738 0.43407 0.39898 0.0
O1615 O 0.11957 0.4601 0.36613 0.0
O1616 O 0.14971 0.46859 0.35007 0.0
O1617 O 0.13973 0.42896 0.40393 0.0
C1618 C 0.12155 0.49104 0.41094 0.0
C1619 C 0.13514 0.455 0.35357 0.0
Zn1620 Zn 0.29076 0.36962 0.15062 0.0
Zn1621 Zn 0.23877 0.38383 0.11689 0.0
C1622 C 0.29992 0.32531 0.154 0.0
O1623 O 0.3012 0.33095 0.17418 0.0
C1624 C 0.23698 0.43286 0.11725 0.0
O1625 O 0.25654 0.43521 0.1097 0.0
O1626 O 0.31864 0.38048 0.16191 0.0
O1627 O 0.28463 0.38968 0.12406 0.0
O1628 O 0.26375 0.38178 0.09742 0.0
C1629 C 0.33141 0.37729 0.14616 0.0
O1630 O 0.32419 0.3678 0.1292 0.0
O1631 O 0.29562 0.33963 0.13993 0.0
C1632 C 0.19624 0.37711 0.10369 0.0
O1633 O 0.19284 0.39341 0.11639 0.0
O1634 O 0.2147 0.36811 0.10321 0.0
O1635 O 0.24927 0.37382 0.14512 0.0
O1636 O 0.2667 0.3655 0.17355 0.0
O1637 O 0.22961 0.41427 0.1202 0.0
C1638 C 0.28246 0.38411 0.10451 0.0
C1639 C 0.24881 0.36668 0.16421 0.0
Zn1640 Zn 0.37254 0.53888 0.89607 0.0
Zn1641 Zn 0.37781 0.49667 0.86559 0.0
C1642 C 0.421 0.54265 0.89576 0.0
O1643 O 0.42184 0.52993 0.91272 0.0
C1644 C 0.33344 0.49304 0.86124 0.0
O1645 O 0.33933 0.49793 0.84144 0.0
O1646 O 0.35614 0.56495 0.90839 0.0
O1647 O 0.35617 0.53704 0.86846 0.0
O1648 O 0.38011 0.52239 0.84694 0.0
C1649 C 0.36377 0.58321 0.90366 0.0
O1650 O 0.38322 0.58406 0.89566 0.0
O1651 O 0.40305 0.54765 0.88741 0.0
C1652 C 0.37673 0.45239 0.85232 0.0
O1653 O 0.36325 0.45036 0.86859 0.0
O1654 O 0.38549 0.47032 0.84874 0.0
O1655 O 0.39694 0.49952 0.89007 0.0
O1656 O 0.37342 0.51026 0.91405 0.0
O1657 O 0.34749 0.49282 0.87576 0.0
C1658 C 0.36699 0.53755 0.85109 0.0
C1659 C 0.38768 0.49652 0.90801 0.0
Zn1660 Zn 0.2058 0.6147 0.64423 0.0
Zn1661 Zn 0.24266 0.61702 0.61454 0.0
C1662 C 0.19749 0.65837 0.65161 0.0
O1663 O 0.19489 0.64947 0.67071 0.0
C1664 C 0.25153 0.57353 0.60618 0.0
O1665 O 0.24831 0.58114 0.58667 0.0
O1666 O 0.17674 0.60712 0.65733 0.0
O1667 O 0.20388 0.59557 0.61834 0.0
O1668 O 0.21585 0.62085 0.59749 0.0
C1669 C 0.16268 0.61433 0.64422 0.0
O1670 O 0.16886 0.62781 0.62918 0.0
O1671 O 0.20363 0.64663 0.63611 0.0
C1672 C 0.28628 0.6174 0.59971 0.0
O1673 O 0.28945 0.60783 0.61839 0.0
O1674 O 0.2674 0.62368 0.59483 0.0
O1675 O 0.2457 0.63508 0.64055 0.0
O1676 O 0.23194 0.61183 0.66353 0.0
O1677 O 0.24809 0.58583 0.62203 0.0
C1678 C 0.20293 0.60579 0.60066 0.0
C1679 C 0.24488 0.62686 0.65932 0.0
Zn1680 Zn 0.1273 0.54542 0.10469 0.0
Zn1681 Zn 0.12338 0.49943 0.13289 0.0
C1682 C 0.08366 0.55387 0.09098 0.0
O1683 O 0.09126 0.54668 0.07261 0.0
C1684 C 0.1717 0.49961 0.12608 0.0
O1685 O 0.17336 0.51598 0.13882 0.0
O1686 O 0.14529 0.56794 0.09062 0.0
O1687 O 0.13682 0.54645 0.13596 0.0
O1688 O 0.12498 0.51946 0.15604 0.0
C1689 C 0.13722 0.58506 0.08268 0.0
O1690 O 0.11767 0.58494 0.07528 0.0
O1691 O 0.09616 0.55551 0.10673 0.0
C1692 C 0.11866 0.45374 0.13756 0.0
O1693 O 0.13211 0.4533 0.12116 0.0
O1694 O 0.11195 0.47165 0.14474 0.0
O1695 O 0.10363 0.5121 0.11164 0.0
O1696 O 0.12813 0.51784 0.08787 0.0
O1697 O 0.15327 0.49291 0.12123 0.0
C1698 C 0.13298 0.53779 0.15422 0.0
C1699 C 0.1121 0.50713 0.09391 0.0
Zn1700 Zn 0.23889 0.40448 0.87937 0.0
Zn1701 Zn 0.19658 0.36422 0.85984 0.0
C1702 C 0.26826 0.37107 0.89713 0.0
O1703 O 0.25118 0.36155 0.90466 0.0
C1704 C 0.1637 0.38666 0.83672 0.0
O1705 O 0.16966 0.37436 0.82068 0.0
O1706 O 0.24701 0.43514 0.87758 0.0
O1707 O 0.2234 0.39384 0.85359 0.0
O1708 O 0.2168 0.36597 0.83498 0.0
C1709 C 0.26296 0.43784 0.86513 0.0
O1710 O 0.27056 0.42161 0.85412 0.0
O1711 O 0.26617 0.388 0.88573 0.0
C1712 C 0.19309 0.3197 0.87371 0.0
O1713 O 0.21018 0.32208 0.8854 0.0
O1714 O 0.18581 0.33515 0.86228 0.0
O1715 O 0.21187 0.37095 0.88715 0.0
O1716 O 0.21825 0.40036 0.90384 0.0
O1717 O 0.17316 0.38485 0.85456 0.0
C1718 C 0.22945 0.3807 0.83928 0.0
C1719 C 0.20627 0.38453 0.90124 0.0
Zn1720 Zn 0.35586 0.44428 0.60211 0.0
Zn1721 Zn 0.35267 0.48974 0.63001 0.0
C1722 C 0.40218 0.43994 0.59076 0.0
O1723 O 0.39681 0.44867 0.57221 0.0
C1724 C 0.31011 0.50369 0.62647 0.0
O1725 O 0.31114 0.49771 0.64678 0.0
O1726 O 0.34033 0.42501 0.5828 0.0
O1727 O 0.34415 0.43742 0.63295 0.0
O1728 O 0.34608 0.46744 0.65078 0.0
C1729 C 0.34921 0.40739 0.57776 0.0
O1730 O 0.36996 0.40691 0.57408 0.0
O1731 O 0.38755 0.43592 0.60459 0.0
C1732 C 0.35836 0.53321 0.6434 0.0
O1733 O 0.35081 0.53894 0.62451 0.0
O1734 O 0.36121 0.51357 0.6481 0.0
O1735 O 0.37747 0.4819 0.61143 0.0
O1736 O 0.35501 0.47347 0.58724 0.0
O1737 O 0.32638 0.50022 0.61443 0.0
C1738 C 0.34264 0.44764 0.65049 0.0
C1739 C 0.37027 0.48503 0.59284 0.0
Zn1740 Zn 0.2919 0.61304 0.35594 0.0
Zn1741 Zn 0.25359 0.62404 0.3857 0.0
C1742 C 0.2922 0.65896 0.34401 0.0
O1743 O 0.28525 0.65228 0.32551 0.0
C1744 C 0.24372 0.58217 0.40066 0.0
O1745 O 0.2476 0.59099 0.41917 0.0
O1746 O 0.31778 0.60041 0.34027 0.0
O1747 O 0.29476 0.59874 0.38512 0.0
O1748 O 0.28113 0.62737 0.40057 0.0
C1749 C 0.33253 0.61226 0.33302 0.0
O1750 O 0.32752 0.63187 0.32681 0.0
O1751 O 0.29596 0.64529 0.35898 0.0
C1752 C 0.21077 0.63636 0.39754 0.0
O1753 O 0.20824 0.63279 0.37701 0.0
O1754 O 0.22957 0.63537 0.4051 0.0
O1755 O 0.25046 0.63669 0.35619 0.0
O1756 O 0.26431 0.6079 0.34089 0.0
O1757 O 0.24742 0.59273 0.38349 0.0
C1758 C 0.29336 0.61092 0.40116 0.0
C1759 C 0.2504 0.62306 0.34128 0.0
Zn1760 Zn 0.36869 0.13813 0.48907 0.0
Zn1761 Zn 0.40075 0.10489 0.44381 0.0
C1762 C 0.34755 0.11334 0.52197 0.0
O1763 O 0.34843 0.09896 0.50681 0.0
C1764 C 0.41188 0.12261 0.40149 0.0
O1765 O 0.42092 0.10369 0.39858 0.0
O1766 O 0.37281 0.16879 0.48653 0.0
O1767 O 0.39584 0.12333 0.48198 0.0
O1768 O 0.42272 0.10606 0.46844 0.0
C1769 C 0.38632 0.17625 0.49903 0.0
O1770 O 0.40156 0.16346 0.5065 0.0
O1771 O 0.35608 0.13128 0.51833 0.0
C1772 C 0.38679 0.06962 0.42275 0.0
O1773 O 0.37305 0.08433 0.41622 0.0
O1774 O 0.40303 0.07516 0.43307 0.0
O1775 O 0.36921 0.10648 0.45511 0.0
O1776 O 0.34819 0.13258 0.46618 0.0
O1777 O 0.40369 0.12696 0.41977 0.0
C1778 C 0.414 0.11462 0.48476 0.0
C1779 C 0.35357 0.11957 0.45159 0.0
Zn1780 Zn 0.89532 0.36873 0.53907 0.0
Zn1781 Zn 0.86712 0.36832 0.48838 0.0
C1782 C 0.89615 0.41509 0.54454 0.0
O1783 O 0.91658 0.41175 0.54011 0.0
C1784 C 0.86224 0.32541 0.4758 0.0
O1785 O 0.84293 0.33036 0.48304 0.0
O1786 O 0.90755 0.35502 0.56589 0.0
O1787 O 0.86954 0.35003 0.53314 0.0
O1788 O 0.8457 0.36525 0.51161 0.0
C1789 C 0.91054 0.36549 0.58285 0.0
O1790 O 0.90812 0.38639 0.58217 0.0
O1791 O 0.88385 0.39915 0.54528 0.0
C1792 C 0.85952 0.37939 0.44421 0.0
O1793 O 0.87604 0.36637 0.44098 0.0
O1794 O 0.8538 0.38379 0.46337 0.0
O1795 O 0.88866 0.38532 0.5023 0.0
O1796 O 0.9175 0.36997 0.51425 0.0
O1797 O 0.87705 0.3388 0.47805 0.0
C1798 C 0.85045 0.35677 0.52966 0.0
C1799 C 0.90792 0.37987 0.49915 0.0
Zn1800 Zn 0.36679 0.15023 0.2889 0.0
Zn1801 Zn 0.37363 0.11313 0.24334 0.0
C1802 C 0.31844 0.14724 0.29022 0.0
O1803 O 0.31772 0.15454 0.27037 0.0
C1804 C 0.41895 0.11667 0.23697 0.0
O1805 O 0.41998 0.09947 0.24933 0.0
O1806 O 0.3828 0.16676 0.31135 0.0
O1807 O 0.37911 0.12068 0.29469 0.0
O1808 O 0.37836 0.09572 0.26984 0.0
C1809 C 0.37371 0.1688 0.32967 0.0
O1810 O 0.35275 0.17052 0.3304 0.0
O1811 O 0.33627 0.14552 0.29975 0.0
C1812 C 0.36827 0.0971 0.19914 0.0
O1813 O 0.37268 0.11658 0.19257 0.0
O1814 O 0.36679 0.09302 0.21925 0.0
O1815 O 0.35084 0.13559 0.24668 0.0
O1816 O 0.36707 0.16366 0.25812 0.0
O1817 O 0.40101 0.12631 0.23445 0.0
C1818 C 0.3822 0.10149 0.28882 0.0
C1819 C 0.35706 0.1545 0.24327 0.0
Zn1820 Zn 0.60454 0.62726 0.04199 0.0
Zn1821 Zn 0.63021 0.62386 -0.00135 0.0
C1822 C 0.59322 0.58097 0.04575 0.0
O1823 O 0.57451 0.58679 0.03796 0.0
C1824 C 0.6332 0.66799 0.9858 0.0
O1825 O 0.65352 0.66324 0.98894 0.0
O1826 O 0.58597 0.64256 0.06325 0.0
O1827 O 0.6346 0.6384 0.04814 0.0
O1828 O 0.65247 0.62428 0.02094 0.0
C1829 C 0.57514 0.63259 0.0773 0.0
O1830 O 0.56798 0.6137 0.0727 0.0
O1831 O 0.60715 0.59502 0.04905 0.0
C1832 C 0.63834 0.61541 0.95358 0.0
O1833 O 0.6195 0.62452 0.95018 0.0
O1834 O 0.64516 0.61337 0.97265 0.0
O1835 O 0.6069 0.60338 0.0043 0.0
O1836 O 0.58895 0.63154 0.01409 0.0
O1837 O 0.61948 0.65382 0.9903 0.0
C1838 C 0.6523 0.63264 0.03935 0.0
C1839 C 0.58998 0.61469 0.0031 0.0
Zn1840 Zn 0.62098 0.34158 0.28922 0.0
Zn1841 Zn 0.62481 0.37077 0.24748 0.0
C1842 C 0.66778 0.33496 0.29213 0.0
O1843 O 0.66362 0.31484 0.28859 0.0
C1844 C 0.57707 0.37435 0.24626 0.0
O1845 O 0.57794 0.38895 0.26108 0.0
O1846 O 0.60922 0.32743 0.31655 0.0
O1847 O 0.60558 0.37042 0.29265 0.0
O1848 O 0.62706 0.38955 0.27231 0.0
C1849 C 0.61941 0.33101 0.33364 0.0
O1850 O 0.63988 0.33506 0.33197 0.0
O1851 O 0.65233 0.34855 0.29289 0.0
C1852 C 0.63029 0.38224 0.20299 0.0
O1853 O 0.62044 0.36427 0.1999 0.0
O1854 O 0.63443 0.38786 0.22198 0.0
O1855 O 0.6434 0.34484 0.24959 0.0
O1856 O 0.61827 0.32395 0.26116 0.0
O1857 O 0.59408 0.36435 0.24025 0.0
C1858 C 0.61497 0.38789 0.28868 0.0
C1859 C 0.63306 0.32793 0.24739 0.0
Zn1860 Zn 0.1158 0.844 0.98944 0.0
Zn1861 Zn 0.09545 0.88506 0.94838 0.0
C1862 C 0.1482 0.86009 0.01343 0.0
O1863 O 0.15816 0.84582 0.00142 0.0
C1864 C 0.07696 0.85922 0.91161 0.0
O1865 O 0.05788 0.86849 0.91254 0.0
O1866 O 0.11198 0.81487 0.00191 0.0
O1867 O 0.08973 0.85752 0.97774 0.0
O1868 O 0.07093 0.88549 0.97046 0.0
C1869 C 0.10516 0.81607 0.02111 0.0
O1870 O 0.09933 0.83481 0.02875 0.0
O1871 O 0.12811 0.86269 0.01181 0.0
C1872 C 0.09563 0.92367 0.92211 0.0
O1873 O 0.08354 0.91383 0.9085 0.0
O1874 O 0.10118 0.9145 0.93938 0.0
O1875 O 0.12465 0.87692 0.96095 0.0
O1876 O 0.13683 0.84405 0.96454 0.0
O1877 O 0.09133 0.86469 0.92444 0.0
C1878 C 0.07514 0.87057 0.98373 0.0
C1879 C 0.13684 0.86173 0.9542 0.0
Zn1880 Zn 0.396 0.8659 0.24013 0.0
Zn1881 Zn 0.36048 0.84955 0.19777 0.0
C1882 C 0.37041 0.89652 0.26509 0.0
O1883 O 0.37521 0.90931 0.2489 0.0
C1884 C 0.3852 0.83358 0.16266 0.0
O1885 O 0.3705 0.81895 0.16236 0.0
O1886 O 0.42586 0.86586 0.25122 0.0
O1887 O 0.38927 0.83613 0.23127 0.0
O1888 O 0.35707 0.82888 0.2213 0.0
C1889 C 0.4273 0.86154 0.2711 0.0
O1890 O 0.41016 0.85638 0.28221 0.0
O1891 O 0.37633 0.87692 0.26434 0.0
C1892 C 0.32019 0.86246 0.18182 0.0
O1893 O 0.32563 0.88032 0.19064 0.0
O1894 O 0.33366 0.847 0.18089 0.0
O1895 O 0.36144 0.87941 0.20985 0.0
O1896 O 0.39522 0.88635 0.21484 0.0
O1897 O 0.38639 0.84511 0.17914 0.0
C1898 C 0.37157 0.82719 0.23513 0.0
C1899 C 0.37761 0.89067 0.20568 0.0
Zn1900 Zn 0.09533 0.12073 0.73943 0.0
Zn1901 Zn 0.13716 0.14683 0.69499 0.0
C1902 C 0.11261 0.09199 0.7694 0.0
O1903 O 0.10142 0.07956 0.75728 0.0
C1904 C 0.11447 0.17146 0.65477 0.0
O1905 O 0.11797 0.19205 0.65319 0.0
O1906 O 0.06458 0.12135 0.74769 0.0
O1907 O 0.10578 0.14712 0.72456 0.0
O1908 O 0.13332 0.16679 0.71942 0.0
C1909 C 0.05865 0.13497 0.76147 0.0
O1910 O 0.07224 0.14926 0.76742 0.0
O1911 O 0.11229 0.112 0.76567 0.0
C1912 C 0.17772 0.14012 0.67438 0.0
O1913 O 0.16633 0.14432 0.65726 0.0
O1914 O 0.16872 0.14062 0.69266 0.0
O1915 O 0.12178 0.1185 0.69977 0.0
O1916 O 0.09998 0.09776 0.71788 0.0
O1917 O 0.12277 0.16069 0.67004 0.0
C1918 C 0.11823 0.16091 0.73163 0.0
C1919 C 0.1126 0.10061 0.70198 0.0
C1920 C 0.07738 0.17617 0.35044 0.0
C1921 C 0.0865 0.17892 0.37068 0.0
C1922 C 0.05998 0.16262 0.34786 0.0
C1923 C 0.05072 0.15151 0.36546 0.0
H1924 H 0.08359 0.18473 0.33651 0.0
H1925 H 0.05346 0.1612 0.33193 0.0
S1926 S 0.06751 0.15534 0.42231 0.0
N1927 N 0.08464 0.17021 0.40877 0.0
N1928 N 0.05138 0.14568 0.40423 0.0
C1929 C 0.05969 0.15432 0.38586 0.0
C1930 C 0.0777 0.16777 0.38838 0.0
C1931 C 0.04254 0.80399 0.59864 0.0
C1932 C 0.04236 0.8236 0.60945 0.0
C1933 C 0.06136 0.79153 0.59671 0.0
C1934 C 0.08064 0.79852 0.60507 0.0
H1935 H 0.02779 0.79744 0.593 0.0
H1936 H 0.06053 0.77572 0.58995 0.0
S1937 S 0.08984 0.85001 0.63147 0.0
N1938 N 0.06401 0.85059 0.62615 0.0
N1939 N 0.09933 0.82706 0.62212 0.0
C1940 C 0.08128 0.81898 0.61381 0.0
C1941 C 0.06211 0.83162 0.61606 0.0
C1942 C 0.44456 0.81651 0.84948 0.0
C1943 C 0.44057 0.83789 0.8551 0.0
C1944 C 0.42798 0.8019 0.84934 0.0
C1945 C 0.40692 0.80812 0.85527 0.0
H1946 H 0.46073 0.81089 0.84581 0.0
H1947 H 0.43199 0.78539 0.84572 0.0
S1948 S 0.38811 0.86285 0.86959 0.0
N1949 N 0.41408 0.86505 0.86513 0.0
N1950 N 0.38275 0.83766 0.86498 0.0
C1951 C 0.40254 0.82984 0.8595 0.0
C1952 C 0.41944 0.84473 0.85945 0.0
C1953 C 0.39535 0.16719 0.10857 0.0
C1954 C 0.40034 0.18531 0.09607 0.0
C1955 C 0.41044 0.15049 0.11132 0.0
C1956 C 0.43095 0.15162 0.10173 0.0
H1957 H 0.38037 0.16667 0.11752 0.0
H1958 H 0.40652 0.13748 0.12227 0.0
S1959 S 0.44935 0.19348 0.06328 0.0
N1960 N 0.42529 0.20194 0.07118 0.0
N1961 N 0.45372 0.17041 0.07595 0.0
C1962 C 0.43509 0.16863 0.08732 0.0
C1963 C 0.41977 0.18562 0.08466 0.0
C1964 C 0.04999 0.82028 0.14387 0.0
C1965 C 0.05459 0.83924 0.13265 0.0
C1966 C 0.06571 0.80418 0.14652 0.0
C1967 C 0.08643 0.80635 0.13765 0.0
H1968 H 0.03396 0.81762 0.15008 0.0
H1969 H 0.06128 0.78956 0.15485 0.0
S1970 S 0.1061 0.85353 0.1067 0.0
N1971 N 0.08097 0.85985 0.11292 0.0
N1972 N 0.11068 0.82957 0.11749 0.0
C1973 C 0.09136 0.82573 0.12695 0.0
C1974 C 0.07534 0.84218 0.12449 0.0
C1975 C 0.43717 0.81772 0.35388 0.0
C1976 C 0.43906 0.82924 0.37288 0.0
C1977 C 0.42284 0.80099 0.35263 0.0
C1978 C 0.40944 0.79555 0.37015 0.0
H1979 H 0.44697 0.82161 0.3399 0.0
H1980 H 0.42201 0.79256 0.33763 0.0
S1981 S 0.40799 0.82172 0.42338 0.0
N1982 N 0.42658 0.83455 0.40952 0.0
N1983 N 0.39902 0.80337 0.40719 0.0
C1984 C 0.41117 0.80713 0.3893 0.0
C1985 C 0.42612 0.82396 0.39064 0.0
C1986 C 0.41387 0.16002 0.62828 0.0
C1987 C 0.43631 0.16142 0.62852 0.0
C1988 C 0.40095 0.17863 0.6262 0.0
C1989 C 0.4104 0.19878 0.6246 0.0
H1990 H 0.40647 0.14456 0.62752 0.0
H1991 H 0.38392 0.17711 0.62378 0.0
S1992 S 0.46756 0.21093 0.63081 0.0
N1993 N 0.46681 0.18456 0.63117 0.0
N1994 N 0.44248 0.21935 0.62843 0.0
C1995 C 0.43236 0.20035 0.62803 0.0
C1996 C 0.44543 0.18162 0.62965 0.0
C1997 C 0.07068 0.17594 0.85132 0.0
C1998 C 0.08592 0.18246 0.86603 0.0
C1999 C 0.05666 0.15942 0.85675 0.0
C2000 C 0.05758 0.14891 0.87697 0.0
H2001 H 0.06851 0.18465 0.83629 0.0
H2002 H 0.04447 0.15541 0.84538 0.0
S2003 S 0.0959 0.15921 0.92019 0.0
N2004 N 0.10209 0.17648 0.90088 0.0
N2005 N 0.07608 0.14517 0.9109 0.0
C2006 C 0.07382 0.15427 0.89107 0.0
C2007 C 0.08789 0.17117 0.88563 0.0
C2008 C 0.36208 0.06791 0.14614 0.0
C2009 C 0.36152 0.04633 0.15278 0.0
C2010 C 0.36437 0.0843 0.16113 0.0
C2011 C 0.36624 0.07964 0.18332 0.0
H2012 H 0.36001 0.07214 0.12936 0.0
H2013 H 0.3643 0.10073 0.15532 0.0
S2014 S 0.3687 0.02528 0.20832 0.0
N2015 N 0.3651 0.02101 0.18255 0.0
N2016 N 0.36938 0.0515 0.21066 0.0
C2017 C 0.36661 0.05798 0.18991 0.0
C2018 C 0.36427 0.04142 0.17468 0.0
C2019 C 0.14943 0.10118 0.41616 0.0
C2020 C 0.15385 0.11463 0.43336 0.0
C2021 C 0.16531 0.09639 0.40056 0.0
C2022 C 0.18568 0.10533 0.40164 0.0
H2023 H 0.13398 0.09378 0.41522 0.0
H2024 H 0.16193 0.08516 0.38807 0.0
S2025 S 0.20399 0.14332 0.44223 0.0
N2026 N 0.17927 0.13782 0.4498 0.0
N2027 N 0.2088 0.12936 0.42031 0.0
C2028 C 0.18983 0.11942 0.41833 0.0
C2029 C 0.17393 0.124 0.43422 0.0
C2030 C 0.12153 0.89373 0.66401 0.0
C2031 C 0.13101 0.8981 0.68389 0.0
C2032 C 0.11997 0.90943 0.64758 0.0
C2033 C 0.12752 0.93012 0.65066 0.0
H2034 H 0.11449 0.87837 0.66141 0.0
H2035 H 0.11183 0.90571 0.63289 0.0
S2036 S 0.15661 0.94878 0.69825 0.0
N2037 N 0.15071 0.92382 0.70427 0.0
N2038 N 0.14666 0.95349 0.67419 0.0
C2039 C 0.13809 0.93427 0.66993 0.0
C2040 C 0.14017 0.91821 0.68632 0.0
C2041 C 0.33979 0.89789 0.91687 0.0
C2042 C 0.33791 0.88541 0.93571 0.0
C2043 C 0.32319 0.89898 0.90192 0.0
C2044 C 0.30477 0.88662 0.90464 0.0
H2045 H 0.35409 0.90696 0.91371 0.0
H2046 H 0.32491 0.90947 0.88814 0.0
S2047 S 0.29068 0.8542 0.95317 0.0
N2048 N 0.31489 0.8628 0.95781 0.0
N2049 N 0.28429 0.86416 0.92936 0.0
C2050 C 0.30216 0.87524 0.92417 0.0
C2051 C 0.31869 0.87463 0.93967 0.0
C2052 C 0.34728 0.93809 0.30266 0.0
C2053 C 0.35509 0.93109 0.32264 0.0
C2054 C 0.35063 0.92569 0.2843 0.0
C2055 C 0.36218 0.90607 0.28531 0.0
H2056 H 0.33953 0.95372 0.30102 0.0
H2057 H 0.34526 0.93213 0.26898 0.0
S2058 S 0.38507 0.88061 0.33449 0.0
N2059 N 0.37372 0.90312 0.34291 0.0
N2060 N 0.38028 0.87981 0.30849 0.0
C2061 C 0.36878 0.89831 0.30561 0.0
C2062 C 0.36521 0.9109 0.32428 0.0
C2063 C 0.31181 0.12548 0.57049 0.0
C2064 C 0.3026 0.1056 0.57521 0.0
C2065 C 0.32723 0.12766 0.55399 0.0
C2066 C 0.33399 0.11004 0.54153 0.0
H2067 H 0.30636 0.1397 0.57887 0.0
H2068 H 0.3331 0.14348 0.55036 0.0
S2069 S 0.31724 0.05391 0.54961 0.0
N2070 N 0.30315 0.06753 0.56764 0.0
N2071 N 0.3321 0.07162 0.53681 0.0
C2072 C 0.32596 0.08984 0.54707 0.0
C2073 C 0.31028 0.08763 0.56383 0.0
C2074 C 0.12214 0.089 0.80814 0.0
C2075 C 0.1252 0.08227 0.78688 0.0
C2076 C 0.12976 0.07631 0.82532 0.0
C2077 C 0.14077 0.05672 0.82159 0.0
H2078 H 0.11238 0.10314 0.81156 0.0
H2079 H 0.12544 0.08097 0.84154 0.0
S2080 S 0.15634 0.0346 0.7687 0.0
N2081 N 0.14249 0.05673 0.76291 0.0
N2082 N 0.15683 0.0329 0.7952 0.0
C2083 C 0.14555 0.05099 0.80039 0.0
C2084 C 0.13777 0.06381 0.783 0.0
C2085 C 0.16362 0.87722 0.06865 0.0
C2086 C 0.18593 0.87895 0.06607 0.0
C2087 C 0.1508 0.87293 0.05099 0.0
C2088 C 0.16006 0.8704 0.03042 0.0
H2089 H 0.15633 0.87732 0.08456 0.0
H2090 H 0.13398 0.86985 0.05377 0.0
S2091 S 0.2166 0.8793 0.01471 0.0
N2092 N 0.21596 0.88192 0.04108 0.0
N2093 N 0.19183 0.87419 0.00783 0.0
C2094 C 0.18185 0.87464 0.02739 0.0
C2095 C 0.19485 0.87884 0.04529 0.0
C2096 C 0.15301 0.38729 0.06268 0.0
C2097 C 0.15164 0.36764 0.05225 0.0
C2098 C 0.16688 0.3898 0.07984 0.0
C2099 C 0.18059 0.37297 0.08679 0.0
H2100 H 0.14354 0.40101 0.05736 0.0
H2101 H 0.16732 0.40536 0.08722 0.0
S2102 S 0.18505 0.31881 0.06353 0.0
N2103 N 0.16616 0.33121 0.04946 0.0
N2104 N 0.19288 0.3363 0.08121 0.0
C2105 C 0.18001 0.35341 0.07609 0.0
C2106 C 0.16547 0.35067 0.05889 0.0
C2107 C 0.66421 0.1429 0.90583 0.0
C2108 C 0.68525 0.13583 0.9102 0.0
C2109 C 0.64798 0.14197 0.92175 0.0
C2110 C 0.65228 0.13372 0.94249 0.0
H2111 H 0.66023 0.14894 0.88993 0.0
H2112 H 0.63196 0.14751 0.91767 0.0
S2113 S 0.7049 0.11186 0.96128 0.0
N2114 N 0.70953 0.11991 0.93632 0.0
N2115 N 0.67936 0.11756 0.966 0.0
C2116 C 0.67344 0.12657 0.94689 0.0
C2117 C 0.68985 0.12785 0.93083 0.0
C2118 C 0.09524 0.43013 0.15997 0.0
C2119 C 0.11541 0.43428 0.15068 0.0
C2120 C 0.09291 0.41404 0.1758 0.0
C2121 C 0.11085 0.40229 0.1832 0.0
H2122 H 0.08137 0.43986 0.1555 0.0
H2123 H 0.0773 0.41164 0.18313 0.0
S2124 S 0.16679 0.4065 0.16356 0.0
N2125 N 0.15317 0.42417 0.14893 0.0
N2126 N 0.14904 0.39519 0.1797 0.0
C2127 C 0.13084 0.40575 0.17348 0.0
C2128 C 0.13306 0.42144 0.15689 0.0
C2129 C 0.82596 0.87115 0.41732 0.0
C2130 C 0.82796 0.85471 0.43279 0.0
C2131 C 0.80657 0.87506 0.40687 0.0
C2132 C 0.7885 0.86274 0.4116 0.0
H2133 H 0.83897 0.88204 0.41444 0.0
H2134 H 0.8054 0.88872 0.39608 0.0
S2135 S 0.78743 0.81461 0.44733 0.0
N2136 N 0.81179 0.82388 0.44998 0.0
N2137 N 0.77522 0.83091 0.43002 0.0
C2138 C 0.79106 0.84486 0.42549 0.0
C2139 C 0.81084 0.84097 0.43624 0.0
C2140 C 0.89138 0.06819 0.18418 0.0
C2141 C 0.87971 0.08714 0.17961 0.0
C2142 C 0.8909 0.05073 0.17029 0.0
C2143 C 0.87864 0.05167 0.15147 0.0
H2144 H 0.90017 0.06652 0.19901 0.0
H2145 H 0.89951 0.03612 0.17476 0.0
S2146 S 0.84588 0.09838 0.13221 0.0
N2147 N 0.85631 0.10637 0.15487 0.0
N2148 N 0.8553 0.07378 0.12866 0.0
C2149 C 0.86777 0.07107 0.14627 0.0
C2150 C 0.86828 0.08875 0.16043 0.0
C2151 C 0.31567 0.62821 0.54703 0.0
C2152 C 0.33729 0.62505 0.55233 0.0
C2153 C 0.29938 0.62546 0.56244 0.0
C2154 C 0.30408 0.6197 0.58385 0.0
H2155 H 0.31128 0.63281 0.53079 0.0
H2156 H 0.28296 0.62796 0.55746 0.0
S2157 S 0.35847 0.60973 0.60584 0.0
N2158 N 0.36272 0.61553 0.58018 0.0
N2159 N 0.33222 0.61089 0.60949 0.0
C2160 C 0.32573 0.61621 0.5893 0.0
C2161 C 0.34231 0.61874 0.57344 0.0
C2162 C 0.1345 0.5701 0.29135 0.0
C2163 C 0.11433 0.57953 0.29601 0.0
C2164 C 0.14157 0.55135 0.30186 0.0
C2165 C 0.12883 0.54126 0.31764 0.0
H2166 H 0.14503 0.57726 0.27947 0.0
H2167 H 0.15749 0.54515 0.29804 0.0
S2168 S 0.07343 0.55773 0.33365 0.0
N2169 N 0.08065 0.57601 0.31565 0.0
N2170 N 0.0941 0.54088 0.33588 0.0
C2171 C 0.10806 0.54974 0.32156 0.0
C2172 C 0.10073 0.56875 0.31053 0.0
C2173 C 0.36291 0.42025 0.83384 0.0
C2174 C 0.3792 0.43517 0.83632 0.0
C2175 C 0.36356 0.40577 0.81679 0.0
C2176 C 0.38066 0.40542 0.80182 0.0
H2177 H 0.34909 0.42033 0.84457 0.0
H2178 H 0.35031 0.39518 0.81503 0.0
S2179 S 0.42808 0.44026 0.8023 0.0
N2180 N 0.41345 0.44791 0.8232 0.0
N2181 N 0.41479 0.42087 0.79131 0.0
C2182 C 0.39743 0.41976 0.80469 0.0
C2183 C 0.39669 0.43454 0.82192 0.0
C2184 C 0.93443 0.82826 0.60301 0.0
C2185 C 0.93811 0.83642 0.62347 0.0
C2186 C 0.91664 0.81574 0.59923 0.0
C2187 C 0.90239 0.81028 0.616 0.0
H2188 H 0.94567 0.83124 0.58997 0.0
H2189 H 0.91457 0.80951 0.58325 0.0
S2190 S 0.90481 0.82783 0.67244 0.0
N2191 N 0.92586 0.83868 0.66058 0.0
N2192 N 0.89278 0.81426 0.6537 0.0
C2193 C 0.90586 0.81827 0.63656 0.0
C2194 C 0.92375 0.83146 0.64028 0.0
C2195 C 0.91629 0.17804 0.38254 0.0
C2196 C 0.91742 0.20025 0.37865 0.0
C2197 C 0.93347 0.16426 0.37689 0.0
C2198 C 0.95211 0.1724 0.36714 0.0
H2199 H 0.90153 0.17109 0.38825 0.0
H2200 H 0.93146 0.14716 0.37864 0.0
S2201 S 0.96531 0.2295 0.35972 0.0
N2202 N 0.94053 0.22987 0.36927 0.0
N2203 N 0.97247 0.204 0.35829 0.0
C2204 C 0.9544 0.19461 0.36585 0.0
C2205 C 0.93713 0.20857 0.37179 0.0
C2206 C 0.54938 0.17398 0.14074 0.0
C2207 C 0.55174 0.15276 0.13378 0.0
C2208 C 0.56676 0.18769 0.14062 0.0
C2209 C 0.58722 0.18083 0.13336 0.0
H2210 H 0.53382 0.18033 0.14568 0.0
H2211 H 0.56379 0.2041 0.14534 0.0
S2212 S 0.60251 0.12592 0.11644 0.0
N2213 N 0.57662 0.12487 0.12165 0.0
N2214 N 0.60933 0.15067 0.12134 0.0
C2215 C 0.59013 0.15926 0.12772 0.0
C2216 C 0.5724 0.14523 0.12796 0.0
C2217 C 0.5609 0.8268 0.89803 0.0
C2218 C 0.56195 0.84312 0.88221 0.0
C2219 C 0.57658 0.81036 0.89908 0.0
C2220 C 0.59399 0.80983 0.88454 0.0
H2221 H 0.54733 0.8261 0.90903 0.0
H2222 H 0.57462 0.79749 0.91075 0.0
S2223 S 0.60535 0.84953 0.84135 0.0
N2224 N 0.58283 0.85837 0.85261 0.0
N2225 N 0.61227 0.82758 0.85489 0.0
C2226 C 0.59608 0.82675 0.86967 0.0
C2227 C 0.58008 0.84343 0.86845 0.0
C2228 C 0.91141 0.16395 0.83504 0.0
C2229 C 0.90862 0.18214 0.84764 0.0
C2230 C 0.92794 0.14906 0.83945 0.0
C2231 C 0.94154 0.15159 0.8571 0.0
H2232 H 0.90042 0.1609 0.8222 0.0
H2233 H 0.92935 0.13495 0.8296 0.0
S2234 S 0.94123 0.19796 0.8937 0.0
N2235 N 0.92158 0.20328 0.87687 0.0
N2236 N 0.9518 0.17475 0.88618 0.0
C2237 C 0.93938 0.17041 0.8691 0.0
C2238 C 0.92302 0.1858 0.86415 0.0
C2239 C 0.58582 0.17298 0.603 0.0
C2240 C 0.58082 0.1921 0.61382 0.0
C2241 C 0.57007 0.15802 0.59902 0.0
C2242 C 0.54864 0.16175 0.60544 0.0
H2243 H 0.60217 0.16919 0.59811 0.0
H2244 H 0.57483 0.1433 0.59114 0.0
S2245 S 0.52709 0.20997 0.63344 0.0
N2246 N 0.55288 0.21433 0.63025 0.0
N2247 N 0.52317 0.18649 0.62263 0.0
C2248 C 0.54333 0.18115 0.61575 0.0
C2249 C 0.55944 0.19624 0.61999 0.0
C2250 C 0.58684 0.81121 0.36597 0.0
C2251 C 0.5792 0.79158 0.35899 0.0
C2252 C 0.57377 0.82975 0.36494 0.0
C2253 C 0.55286 0.82896 0.35699 0.0
H2254 H 0.60196 0.81181 0.37421 0.0
H2255 H 0.57928 0.84425 0.37215 0.0
S2256 S 0.52806 0.78257 0.33171 0.0
N2257 N 0.55153 0.77332 0.34006 0.0
N2258 N 0.52685 0.80804 0.33837 0.0
C2259 C 0.54619 0.81003 0.34769 0.0
C2260 C 0.55951 0.79131 0.34856 0.0
C2261 C 0.90594 0.81456 0.10296 0.0
C2262 C 0.90842 0.79937 0.11972 0.0
C2263 C 0.92063 0.83079 0.09967 0.0
C2264 C 0.93901 0.83147 0.11217 0.0
H2265 H 0.89253 0.81378 0.09218 0.0
H2266 H 0.91797 0.84239 0.0868 0.0
S2267 S 0.95332 0.79522 0.15776 0.0
N2268 N 0.93026 0.78629 0.14931 0.0
N2269 N 0.95905 0.8159 0.14202 0.0
C2270 C 0.94186 0.8163 0.1289 0.0
C2271 C 0.92628 0.80039 0.13294 0.0
C2272 C 0.60946 0.9407 0.82386 0.0
C2273 C 0.62786 0.94044 0.83653 0.0
C2274 C 0.60544 0.92375 0.8102 0.0
C2275 C 0.62015 0.90654 0.80815 0.0
H2276 H 0.59789 0.95385 0.82489 0.0
H2277 H 0.59089 0.92426 0.8009 0.0
S2278 S 0.67134 0.89917 0.83681 0.0
N2279 N 0.66109 0.92194 0.84598 0.0
N2280 N 0.65407 0.89049 0.81926 0.0
C2281 C 0.63889 0.90637 0.82026 0.0
C2282 C 0.64265 0.92332 0.8347 0.0
C2283 C 0.82542 0.87167 0.58857 0.0
C2284 C 0.80913 0.88742 0.58603 0.0
C2285 C 0.84059 0.86776 0.57217 0.0
C2286 C 0.83986 0.87936 0.55261 0.0
H2287 H 0.82574 0.86144 0.60279 0.0
H2288 H 0.85218 0.85477 0.57441 0.0
S2289 S 0.80271 0.92475 0.53952 0.0
N2290 N 0.79488 0.91646 0.56363 0.0
N2291 N 0.82331 0.9091 0.53282 0.0
C2292 C 0.82464 0.89617 0.55055 0.0
C2293 C 0.80927 0.90018 0.56724 0.0
C2294 C 0.87061 0.0765 0.33352 0.0
C2295 C 0.85963 0.05736 0.33134 0.0
C2296 C 0.86982 0.09239 0.31738 0.0
C2297 C 0.85797 0.0896 0.29856 0.0
H2298 H 0.88046 0.07886 0.34744 0.0
H2299 H 0.87926 0.10651 0.3193 0.0
S2300 S 0.82363 0.04364 0.28719 0.0
N2301 N 0.83481 0.03736 0.3104 0.0
N2302 N 0.8329 0.06727 0.28015 0.0
C2303 C 0.84581 0.07106 0.29699 0.0
C2304 C 0.84677 0.05488 0.31337 0.0
C2305 C 0.64899 0.11081 0.0795 0.0
C2306 C 0.65003 0.1048 0.05783 0.0
C2307 C 0.66698 0.10933 0.09262 0.0
C2308 C 0.68687 0.10218 0.08438 0.0
H2309 H 0.63438 0.11762 0.08613 0.0
H2310 H 0.66554 0.11479 0.10903 0.0
S2311 S 0.69822 0.08267 0.02944 0.0
N2312 N 0.67254 0.0896 0.02929 0.0
N2313 N 0.70659 0.08766 0.05387 0.0
C2314 C 0.68815 0.09531 0.06307 0.0
C2315 C 0.66966 0.09634 0.04981 0.0
C2316 C 0.62619 0.08979 0.68039 0.0
C2317 C 0.63348 0.08374 0.70098 0.0
C2318 C 0.62927 0.07627 0.66293 0.0
C2319 C 0.63957 0.05625 0.66553 0.0
H2320 H 0.61698 0.10451 0.67793 0.0
H2321 H 0.6222 0.08085 0.64767 0.0
S2322 S 0.66553 0.03465 0.71454 0.0
N2323 N 0.6546 0.05776 0.72193 0.0
N2324 N 0.65976 0.03216 0.6889 0.0
C2325 C 0.64854 0.05073 0.68536 0.0
C2326 C 0.64571 0.06461 0.70316 0.0
C2327 C 0.67384 0.89328 0.42361 0.0
C2328 C 0.6878 0.87671 0.41679 0.0
C2329 C 0.65795 0.88957 0.43928 0.0
C2330 C 0.65564 0.86918 0.44886 0.0
H2331 H 0.67559 0.90934 0.41718 0.0
H2332 H 0.64782 0.90291 0.44437 0.0
S2333 S 0.68922 0.82079 0.43742 0.0
N2334 N 0.69886 0.83943 0.42115 0.0
N2335 N 0.66902 0.83232 0.45053 0.0
C2336 C 0.66929 0.85239 0.44182 0.0
C2337 C 0.68543 0.8562 0.42585 0.0
C2338 C 0.87273 0.92519 0.17335 0.0
C2339 C 0.85277 0.9295 0.16395 0.0
C2340 C 0.87522 0.90922 0.18907 0.0
C2341 C 0.85773 0.89724 0.19633 0.0
H2342 H 0.88653 0.93449 0.16875 0.0
H2343 H 0.89074 0.90717 0.19647 0.0
S2344 S 0.80291 0.89993 0.17441 0.0
N2345 N 0.81588 0.91858 0.16073 0.0
N2346 N 0.82033 0.88905 0.19137 0.0
C2347 C 0.83794 0.90047 0.18622 0.0
C2348 C 0.83554 0.91644 0.16966 0.0
C2349 C 0.80754 0.09976 0.95086 0.0
C2350 C 0.82877 0.10651 0.94886 0.0
C2351 C 0.7944 0.09907 0.93298 0.0
C2352 C 0.80222 0.10471 0.91249 0.0
H2353 H 0.80052 0.09648 0.96656 0.0
H2354 H 0.77769 0.09532 0.9354 0.0
S2355 S 0.85746 0.11994 0.89789 0.0
N2356 N 0.85779 0.11639 0.92426 0.0
N2357 N 0.83295 0.11452 0.89049 0.0
C2358 C 0.82398 0.10918 0.90981 0.0
C2359 C 0.83737 0.11019 0.92809 0.0
C2360 C 0.84193 0.61818 0.91038 0.0
C2361 C 0.83772 0.61026 0.93127 0.0
C2362 C 0.82633 0.61758 0.89433 0.0
C2363 C 0.80586 0.60964 0.89896 0.0
H2364 H 0.85722 0.62518 0.90655 0.0
H2365 H 0.83003 0.62406 0.87848 0.0
S2366 S 0.78763 0.5855 0.95067 0.0
N2367 N 0.81231 0.59295 0.95527 0.0
N2368 N 0.78284 0.5923 0.92542 0.0
C2369 C 0.80177 0.60115 0.91962 0.0
C2370 C 0.81772 0.6014 0.93573 0.0
C2371 C 0.3368 0.84582 0.06949 0.0
C2372 C 0.33576 0.859 0.05088 0.0
C2373 C 0.32004 0.84596 0.08487 0.0
C2374 C 0.30177 0.85915 0.08195 0.0
H2375 H 0.35061 0.83536 0.07221 0.0
H2376 H 0.32125 0.83559 0.09894 0.0
S2377 S 0.29203 0.89846 0.03793 0.0
N2378 N 0.3153 0.88694 0.03175 0.0
N2379 N 0.2842 0.88687 0.06059 0.0
C2380 C 0.30079 0.87279 0.06398 0.0
C2381 C 0.31768 0.87278 0.04843 0.0
C2382 C 0.85853 0.57244 0.82763 0.0
C2383 C 0.87641 0.56271 0.83755 0.0
C2384 C 0.86115 0.58742 0.8109 0.0
C2385 C 0.88157 0.5937 0.80421 0.0
H2386 H 0.84254 0.56708 0.83149 0.0
H2387 H 0.8473 0.59293 0.80207 0.0
S2388 S 0.93325 0.57525 0.8272 0.0
N2389 N 0.91507 0.56168 0.84091 0.0
N2390 N 0.91987 0.59078 0.81007 0.0
C2391 C 0.89946 0.58549 0.81526 0.0
C2392 C 0.89688 0.56974 0.83187 0.0
C2393 C 0.1872 0.13284 0.53941 0.0
C2394 C 0.16744 0.13569 0.55027 0.0
C2395 C 0.20595 0.12833 0.55061 0.0
C2396 C 0.20586 0.12653 0.57317 0.0
H2397 H 0.18808 0.13236 0.52203 0.0
H2398 H 0.22032 0.12474 0.54127 0.0
S2399 S 0.16042 0.14263 0.60887 0.0
N2400 N 0.15021 0.14342 0.58458 0.0
N2401 N 0.18576 0.1348 0.60598 0.0
C2402 C 0.18702 0.1329 0.5843 0.0
C2403 C 0.16773 0.13754 0.57274 0.0
C2404 C 0.12144 0.90086 0.82358 0.0
C2405 C 0.10922 0.90415 0.80506 0.0
C2406 C 0.12387 0.91734 0.83825 0.0
C2407 C 0.11372 0.93749 0.83523 0.0
H2408 H 0.13023 0.88589 0.82607 0.0
H2409 H 0.1349 0.91471 0.85128 0.0
S2410 S 0.07755 0.95285 0.79044 0.0
N2411 N 0.08553 0.9281 0.78505 0.0
N2412 N 0.0891 0.95887 0.81321 0.0
C2413 C 0.10018 0.94036 0.81745 0.0
C2414 C 0.09815 0.9237 0.80222 0.0
C2415 C 0.66564 0.36224 0.39973 0.0
C2416 C 0.68572 0.36973 0.40583 0.0
C2417 C 0.64888 0.35984 0.41488 0.0
C2418 C 0.65135 0.36561 0.43639 0.0
H2419 H 0.66311 0.35742 0.38334 0.0
H2420 H 0.63409 0.35291 0.40989 0.0
S2421 S 0.69968 0.38882 0.45987 0.0
N2422 N 0.70655 0.38432 0.43459 0.0
N2423 N 0.67469 0.38108 0.46255 0.0
C2424 C 0.6709 0.37428 0.44238 0.0
C2425 C 0.68817 0.37607 0.4272 0.0
C2426 C 0.86683 0.44943 0.68686 0.0
C2427 C 0.86075 0.44738 0.66536 0.0
C2428 C 0.87377 0.4316 0.69892 0.0
C2429 C 0.87429 0.41108 0.69003 0.0
H2430 H 0.86617 0.46491 0.69444 0.0
H2431 H 0.87816 0.43378 0.71551 0.0
S2432 S 0.86051 0.39722 0.63438 0.0
N2433 N 0.85656 0.42341 0.63537 0.0
N2434 N 0.8685 0.3897 0.65858 0.0
C2435 C 0.86838 0.40881 0.66858 0.0
C2436 C 0.86194 0.42706 0.65605 0.0
C2437 C 0.6362 0.55204 0.16665 0.0
C2438 C 0.61996 0.55234 0.15125 0.0
C2439 C 0.63529 0.56617 0.18397 0.0
C2440 C 0.61807 0.58087 0.18633 0.0
H2441 H 0.64913 0.5402 0.16582 0.0
H2442 H 0.64749 0.56484 0.19614 0.0
S2443 S 0.57353 0.59009 0.14844 0.0
N2444 N 0.58779 0.57016 0.13791 0.0
N2445 N 0.58575 0.59639 0.17076 0.0
C2446 C 0.60253 0.58217 0.17029 0.0
C2447 C 0.60359 0.56798 0.15258 0.0
C2448 C 0.57518 0.64887 0.86765 0.0
C2449 C 0.55384 0.65507 0.86346 0.0
C2450 C 0.59086 0.66426 0.87073 0.0
C2451 C 0.58575 0.68633 0.86943 0.0
H2452 H 0.57978 0.63207 0.86849 0.0
H2453 H 0.60708 0.65883 0.87407 0.0
S2454 S 0.53188 0.71062 0.85938 0.0
N2455 N 0.52829 0.68459 0.85871 0.0
N2456 N 0.55759 0.71341 0.86397 0.0
C2457 C 0.56444 0.69261 0.86511 0.0
C2458 C 0.54855 0.67701 0.86223 0.0
C2459 C 0.54321 0.30283 0.12507 0.0
C2460 C 0.54393 0.32323 0.11562 0.0
C2461 C 0.55932 0.28766 0.12097 0.0
C2462 C 0.57703 0.29264 0.10771 0.0
H2463 H 0.53118 0.29922 0.13723 0.0
H2464 H 0.5588 0.27273 0.13 0.0
S2465 S 0.58121 0.34085 0.07249 0.0
N2466 N 0.55978 0.34567 0.08772 0.0
N2467 N 0.59063 0.31697 0.07997 0.0
C2468 C 0.57597 0.31171 0.09536 0.0
C2469 C 0.55924 0.32717 0.09943 0.0
C2470 C 0.90678 0.32738 0.37495 0.0
C2471 C 0.90128 0.31488 0.35732 0.0
C2472 C 0.92455 0.34067 0.3738 0.0
C2473 C 0.93696 0.34214 0.35486 0.0
H2474 H 0.89823 0.32577 0.39015 0.0
H2475 H 0.92927 0.34887 0.38811 0.0
S2476 S 0.92757 0.31504 0.30357 0.0
N2477 N 0.90851 0.30632 0.31993 0.0
N2478 N 0.94158 0.33174 0.31771 0.0
C2479 C 0.93079 0.33087 0.33681 0.0
C2480 C 0.91296 0.31715 0.33802 0.0
C2481 C 0.90928 0.65254 0.6125 0.0
C2482 C 0.93073 0.65415 0.60548 0.0
C2483 C 0.89504 0.67019 0.61126 0.0
C2484 C 0.90189 0.6901 0.60325 0.0
H2485 H 0.90364 0.63783 0.61979 0.0
H2486 H 0.8789 0.66844 0.61754 0.0
S2487 S 0.95545 0.70206 0.58028 0.0
N2488 N 0.95731 0.67678 0.58811 0.0
N2489 N 0.93067 0.70984 0.58614 0.0
C2490 C 0.9228 0.69154 0.59493 0.0
C2491 C 0.93719 0.67358 0.59593 0.0
C2492 C 0.56196 0.33204 0.64769 0.0
C2493 C 0.55643 0.3385 0.62668 0.0
C2494 C 0.57822 0.31647 0.65122 0.0
C2495 C 0.58989 0.30768 0.63387 0.0
H2496 H 0.55313 0.33841 0.66137 0.0
H2497 H 0.58151 0.31108 0.6675 0.0
S2498 S 0.58339 0.32156 0.57619 0.0
N2499 N 0.56482 0.33613 0.58859 0.0
N2500 N 0.59604 0.30788 0.59524 0.0
C2501 C 0.58534 0.31506 0.61298 0.0
C2502 C 0.56842 0.33023 0.60937 0.0
C2503 C 0.92613 0.29004 0.87708 0.0
C2504 C 0.90454 0.29516 0.87283 0.0
C2505 C 0.94121 0.30608 0.87858 0.0
C2506 C 0.93521 0.32769 0.87542 0.0
H2507 H 0.93153 0.2735 0.87874 0.0
H2508 H 0.95783 0.30141 0.88101 0.0
S2509 S 0.88053 0.3494 0.8654 0.0
N2510 N 0.87769 0.32325 0.86698 0.0
N2511 N 0.90615 0.35349 0.86929 0.0
C2512 C 0.91354 0.33304 0.87214 0.0
C2513 C 0.89814 0.31673 0.87099 0.0
C2514 C 0.90259 0.68068 0.12354 0.0
C2515 C 0.91205 0.70074 0.12588 0.0
C2516 C 0.91479 0.66156 0.12598 0.0
C2517 C 0.93671 0.66208 0.13073 0.0
H2518 H 0.88626 0.67976 0.11807 0.0
H2519 H 0.90755 0.64655 0.12216 0.0
S2520 S 0.96724 0.70989 0.14444 0.0
N2521 N 0.94331 0.71946 0.13787 0.0
N2522 N 0.96612 0.68371 0.14194 0.0
C2523 C 0.94549 0.68177 0.13573 0.0
C2524 C 0.93316 0.70109 0.13342 0.0
C2525 C 0.55881 0.66436 0.39071 0.0
C2526 C 0.55741 0.65053 0.37335 0.0
C2527 C 0.57217 0.68189 0.38971 0.0
C2528 C 0.58458 0.68659 0.37118 0.0
H2529 H 0.54894 0.66205 0.40498 0.0
H2530 H 0.57205 0.69232 0.40344 0.0
S2531 S 0.58798 0.65414 0.32182 0.0
N2532 N 0.5708 0.64145 0.33758 0.0
N2533 N 0.59555 0.67501 0.33549 0.0
C2534 C 0.58422 0.67221 0.35405 0.0
C2535 C 0.57074 0.65402 0.3552 0.0
C2536 C 0.87454 0.58411 0.65922 0.0
C2537 C 0.86838 0.58197 0.68103 0.0
C2538 C 0.86967 0.56841 0.64421 0.0
C2539 C 0.85857 0.54994 0.65046 0.0
H2540 H 0.88331 0.59793 0.65369 0.0
H2541 H 0.87472 0.5707 0.62765 0.0
S2542 S 0.8393 0.53647 0.70581 0.0
N2543 N 0.8507 0.55979 0.70807 0.0
N2544 N 0.84177 0.53045 0.68019 0.0
C2545 C 0.85225 0.54775 0.67223 0.0
C2546 C 0.85709 0.56369 0.68741 0.0
C2547 C 0.68998 0.60281 0.92402 0.0
C2548 C 0.68411 0.60343 0.90238 0.0
C2549 C 0.6748 0.60592 0.9403 0.0
C2550 C 0.65311 0.61008 0.93563 0.0
H2551 H 0.70658 0.60038 0.92846 0.0
H2552 H 0.68041 0.60577 0.9567 0.0
S2553 S 0.62935 0.61233 0.88124 0.0
N2554 N 0.65514 0.60751 0.87681 0.0
N2555 N 0.62631 0.6137 0.90762 0.0
C2556 C 0.64682 0.61011 0.91398 0.0
C2557 C 0.6624 0.60664 0.8973 0.0
C2558 C 0.61385 0.43198 0.17259 0.0
C2559 C 0.62822 0.43242 0.15494 0.0
C2560 C 0.61474 0.41549 0.18791 0.0
C2561 C 0.62989 0.39874 0.18613 0.0
H2562 H 0.60165 0.44441 0.17462 0.0
H2563 H 0.60339 0.41579 0.20125 0.0
S2564 S 0.6712 0.39187 0.14346 0.0
N2565 N 0.65835 0.41438 0.13684 0.0
N2566 N 0.6595 0.38302 0.16576 0.0
C2567 C 0.64425 0.3986 0.16865 0.0
C2568 C 0.64357 0.41558 0.15303 0.0
C2569 C 0.84223 0.369 0.4102 0.0
C2570 C 0.84422 0.38389 0.42675 0.0
C2571 C 0.8245 0.36984 0.39666 0.0
C2572 C 0.80843 0.38575 0.39904 0.0
H2573 H 0.85363 0.35575 0.40859 0.0
H2574 H 0.82293 0.3575 0.38478 0.0
S2575 S 0.80814 0.43068 0.43705 0.0
N2576 N 0.83009 0.4166 0.4428 0.0
N2577 N 0.79685 0.41823 0.41707 0.0
C2578 C 0.8111 0.40174 0.41421 0.0
C2579 C 0.82905 0.40082 0.42813 0.0
C2580 C 0.88021 0.41791 0.79675 0.0
C2581 C 0.86282 0.41308 0.78377 0.0
C2582 C 0.87792 0.43206 0.81369 0.0
C2583 C 0.8583 0.44251 0.81772 0.0
H2584 H 0.89605 0.4117 0.79299 0.0
H2585 H 0.89189 0.43576 0.82295 0.0
S2586 S 0.80739 0.43505 0.78956 0.0
N2587 N 0.82484 0.41915 0.77701 0.0
N2588 N 0.8208 0.44676 0.80863 0.0
C2589 C 0.84056 0.43777 0.80534 0.0
C2590 C 0.84278 0.42288 0.78828 0.0
C2591 C 0.80033 0.62846 0.04151 0.0
C2592 C 0.81778 0.61512 0.03535 0.0
C2593 C 0.78936 0.62509 0.06096 0.0
C2594 C 0.79522 0.60805 0.07474 0.0
H2595 H 0.79539 0.64201 0.03155 0.0
H2596 H 0.77624 0.63593 0.06527 0.0
S2597 S 0.8384 0.5675 0.06566 0.0
N2598 N 0.83977 0.58363 0.04443 0.0
N2599 N 0.81833 0.57686 0.08061 0.0
C2600 C 0.81188 0.594 0.06846 0.0
C2601 C 0.82341 0.59767 0.04887 0.0
C2602 C 0.6372 0.55729 0.2839 0.0
C2603 C 0.62724 0.57743 0.28685 0.0
C2604 C 0.64541 0.54555 0.30129 0.0
C2605 C 0.6439 0.55359 0.32219 0.0
H2606 H 0.63737 0.54995 0.26824 0.0
H2607 H 0.65139 0.52937 0.29863 0.0
S2608 S 0.62143 0.60652 0.33811 0.0
N2609 N 0.61813 0.60588 0.31182 0.0
N2610 N 0.63367 0.58371 0.34471 0.0
C2611 C 0.63587 0.57458 0.32509 0.0
C2612 C 0.62743 0.58656 0.30731 0.0
C2613 C 0.65648 0.35907 0.54958 0.0
C2614 C 0.65815 0.37247 0.53143 0.0
C2615 C 0.6691 0.36225 0.5674 0.0
C2616 C 0.6829 0.37948 0.56808 0.0
H2617 H 0.64652 0.34512 0.54939 0.0
H2618 H 0.66902 0.35043 0.58032 0.0
S2619 S 0.69282 0.41935 0.52468 0.0
N2620 N 0.67477 0.40345 0.51477 0.0
N2621 N 0.69769 0.41027 0.54929 0.0
C2622 C 0.68423 0.39355 0.55036 0.0
C2623 C 0.67191 0.38986 0.53175 0.0
C2624 C 0.66615 0.87655 0.58879 0.0
C2625 C 0.68776 0.87874 0.58255 0.0
C2626 C 0.6503 0.8733 0.5735 0.0
C2627 C 0.65549 0.87261 0.55148 0.0
H2628 H 0.66149 0.87694 0.60562 0.0
H2629 H 0.63394 0.87104 0.57893 0.0
S2630 S 0.70931 0.8786 0.52661 0.0
N2631 N 0.7133 0.8806 0.55267 0.0
N2632 N 0.68341 0.87479 0.52405 0.0
C2633 C 0.67691 0.87504 0.54499 0.0
C2634 C 0.69307 0.87811 0.5605 0.0
C2635 C 0.19236 0.64881 0.43148 0.0
C2636 C 0.19185 0.63742 0.41219 0.0
C2637 C 0.17521 0.64808 0.44636 0.0
C2638 C 0.15694 0.63602 0.44243 0.0
H2639 H 0.20626 0.65796 0.4353 0.0
H2640 H 0.17648 0.65656 0.46132 0.0
S2641 S 0.14903 0.60144 0.39577 0.0
N2642 N 0.17225 0.61258 0.3908 0.0
N2643 N 0.14003 0.61161 0.41856 0.0
C2644 C 0.15618 0.62483 0.42316 0.0
C2645 C 0.17365 0.62542 0.4081 0.0
C2646 C 0.62484 0.90109 0.67051 0.0
C2647 C 0.61094 0.90327 0.68837 0.0
C2648 C 0.62607 0.91732 0.65467 0.0
C2649 C 0.61335 0.93622 0.65612 0.0
H2650 H 0.63573 0.88739 0.66941 0.0
H2651 H 0.63794 0.91553 0.64192 0.0
S2652 S 0.57058 0.94695 0.69677 0.0
N2653 N 0.58163 0.92391 0.70456 0.0
N2654 N 0.58367 0.95415 0.67468 0.0
C2655 C 0.59791 0.93749 0.67273 0.0
C2656 C 0.5968 0.9211 0.6889 0.0
C2657 C 0.30515 0.381 0.90668 0.0
C2658 C 0.28953 0.36518 0.9057 0.0
C2659 C 0.32341 0.37779 0.91912 0.0
C2660 C 0.32683 0.35851 0.93046 0.0
H2661 H 0.30258 0.39656 0.89912 0.0
H2662 H 0.33433 0.39085 0.92078 0.0
S2663 S 0.29357 0.31051 0.92967 0.0
N2664 N 0.2804 0.32844 0.91482 0.0
N2665 N 0.31537 0.32234 0.93762 0.0
C2666 C 0.31266 0.34183 0.92795 0.0
C2667 C 0.2938 0.34518 0.91564 0.0
C2668 C 0.36792 0.57005 0.65388 0.0
C2669 C 0.3621 0.54923 0.65986 0.0
C2670 C 0.37136 0.58546 0.66946 0.0
C2671 C 0.36883 0.58055 0.69149 0.0
H2672 H 0.36995 0.5744 0.63708 0.0
H2673 H 0.37545 0.60147 0.66421 0.0
S2674 S 0.35336 0.52835 0.71542 0.0
N2675 N 0.35375 0.52449 0.68925 0.0
N2676 N 0.36012 0.55346 0.71849 0.0
C2677 C 0.36298 0.55978 0.69765 0.0
C2678 C 0.35968 0.54408 0.68184 0.0
C2679 C 0.83158 0.10526 0.05815 0.0
C2680 C 0.83906 0.12475 0.0499 0.0
C2681 C 0.8164 0.10463 0.07495 0.0
C2682 C 0.80742 0.12359 0.08333 0.0
H2683 H 0.83693 0.09047 0.0509 0.0
H2684 H 0.8109 0.08924 0.0807 0.0
S2685 S 0.8207 0.17885 0.06686 0.0
N2686 N 0.83622 0.16356 0.05145 0.0
N2687 N 0.80669 0.16236 0.08221 0.0
C2688 C 0.81444 0.14322 0.07512 0.0
C2689 C 0.8304 0.14383 0.05847 0.0
C2690 C 0.61945 0.08599 0.81533 0.0
C2691 C 0.6112 0.08302 0.79469 0.0
C2692 C 0.62502 0.06841 0.82865 0.0
C2693 C 0.62306 0.04739 0.82144 0.0
H2694 H 0.62199 0.10199 0.82099 0.0
H2695 H 0.63186 0.07123 0.8442 0.0
S2696 S 0.60228 0.03089 0.76897 0.0
N2697 N 0.60085 0.05729 0.76803 0.0
N2698 N 0.61208 0.02445 0.79277 0.0
C2699 C 0.61456 0.0442 0.80105 0.0
C2700 C 0.6084 0.06198 0.78774 0.0
C2701 C 0.85789 0.91806 0.30581 0.0
C2702 C 0.87615 0.90678 0.29823 0.0
C2703 C 0.85951 0.93318 0.32218 0.0
C2704 C 0.87925 0.9368 0.33201 0.0
H2705 H 0.8426 0.91618 0.29815 0.0
H2706 H 0.84535 0.9424 0.32689 0.0
S2707 S 0.93119 0.90988 0.31928 0.0
N2708 N 0.91429 0.8997 0.30228 0.0
N2709 N 0.9169 0.92679 0.33412 0.0
C2710 C 0.89721 0.92457 0.32555 0.0
C2711 C 0.89577 0.9099 0.30835 0.0
C2712 C 0.42859 0.3318 0.14256 0.0
C2713 C 0.44334 0.33581 0.1257 0.0
C2714 C 0.41272 0.3163 0.14071 0.0
C2715 C 0.41121 0.30421 0.12197 0.0
H2716 H 0.42903 0.34103 0.15712 0.0
H2717 H 0.40133 0.31408 0.1538 0.0
S2718 S 0.44713 0.30659 0.0742 0.0
N2719 N 0.45651 0.32465 0.09049 0.0
N2720 N 0.42623 0.29631 0.08679 0.0
C2721 C 0.42618 0.30752 0.10533 0.0
C2722 C 0.44242 0.32307 0.10726 0.0
C2723 C 0.42146 0.65802 0.86366 0.0
C2724 C 0.44256 0.6639 0.86753 0.0
C2725 C 0.40414 0.67036 0.87118 0.0
C2726 C 0.40743 0.68945 0.88215 0.0
H2727 H 0.41834 0.64441 0.8537 0.0
H2728 H 0.38824 0.66605 0.86635 0.0
S2729 S 0.45948 0.70935 0.90017 0.0
N2730 N 0.46587 0.68773 0.88629 0.0
N2731 N 0.43308 0.71174 0.89968 0.0
C2732 C 0.42837 0.69431 0.88805 0.0
C2733 C 0.44607 0.68132 0.88086 0.0
C2734 C 0.06831 0.64813 0.6271 0.0
C2735 C 0.04792 0.65311 0.63551 0.0
C2736 C 0.08458 0.66316 0.62725 0.0
C2737 C 0.08103 0.68361 0.63597 0.0
H2738 H 0.07131 0.63296 0.61938 0.0
H2739 H 0.0998 0.65903 0.61972 0.0
S2740 S 0.03112 0.70281 0.66339 0.0
N2741 N 0.0255 0.6787 0.65498 0.0
N2742 N 0.05613 0.70689 0.65573 0.0
C2743 C 0.06102 0.68815 0.64582 0.0
C2744 C 0.04443 0.67291 0.64543 0.0
C2745 C 0.09068 0.31823 0.39173 0.0
C2746 C 0.08669 0.29835 0.38233 0.0
C2747 C 0.07571 0.33527 0.39037 0.0
C2748 C 0.05614 0.33264 0.38012 0.0
H2749 H 0.1055 0.32073 0.40004 0.0
H2750 H 0.07931 0.3504 0.39759 0.0
S2751 S 0.03858 0.28487 0.35125 0.0
N2752 N 0.06209 0.27783 0.36115 0.0
N2753 N 0.0341 0.30967 0.359 0.0
C2754 C 0.05212 0.31313 0.37034 0.0
C2755 C 0.06733 0.29597 0.37143 0.0
C2756 C 0.4291 0.66397 0.37663 0.0
C2757 C 0.43823 0.65147 0.36017 0.0
C2758 C 0.41196 0.67816 0.37257 0.0
C2759 C 0.40362 0.68061 0.35184 0.0
H2760 H 0.43512 0.66264 0.39285 0.0
H2761 H 0.40544 0.6876 0.38567 0.0
S2762 S 0.42125 0.65128 0.30328 0.0
N2763 N 0.43707 0.64184 0.32245 0.0
N2764 N 0.40513 0.66923 0.31475 0.0
C2765 C 0.41227 0.66807 0.33525 0.0
C2766 C 0.42952 0.65326 0.33946 0.0
C2767 C 0.05011 0.67055 0.12107 0.0
C2768 C 0.05063 0.65965 0.10155 0.0
C2769 C 0.06535 0.68574 0.12551 0.0
C2770 C 0.0816 0.69074 0.11049 0.0
H2771 H 0.03796 0.66704 0.13316 0.0
H2772 H 0.06451 0.6934 0.141 0.0
S2773 S 0.08904 0.66697 0.05643 0.0
N2774 N 0.06807 0.65475 0.06688 0.0
N2775 N 0.09676 0.68381 0.07483 0.0
C2776 C 0.0821 0.68 0.09069 0.0
C2777 C 0.0666 0.6643 0.08632 0.0
C2778 C 0.06509 0.31201 0.89441 0.0
C2779 C 0.07349 0.29831 0.87853 0.0
C2780 C 0.055 0.33138 0.88872 0.0
C2781 C 0.05311 0.3375 0.86706 0.0
H2782 H 0.06535 0.30731 0.91124 0.0
H2783 H 0.04669 0.34046 0.90113 0.0
S2784 S 0.07457 0.30905 0.81961 0.0
N2785 N 0.08055 0.29318 0.84024 0.0
N2786 N 0.06238 0.33029 0.82997 0.0
C2787 C 0.06316 0.32512 0.85125 0.0
C2788 C 0.07301 0.30517 0.85687 0.0
C2789 C 0.42887 0.29917 0.62498 0.0
C2790 C 0.40754 0.30398 0.61946 0.0
C2791 C 0.44478 0.31443 0.62216 0.0
C2792 C 0.43983 0.33485 0.61354 0.0
H2793 H 0.43332 0.28343 0.63121 0.0
H2794 H 0.46103 0.31021 0.62674 0.0
S2795 S 0.38719 0.35392 0.59362 0.0
N2796 N 0.38267 0.32978 0.60348 0.0
N2797 N 0.41264 0.35845 0.59804 0.0
C2798 C 0.41863 0.33975 0.60786 0.0
C2799 C 0.40244 0.32429 0.61086 0.0
C2800 C 0.14877 0.40768 0.31786 0.0
C2801 C 0.1306 0.40638 0.30484 0.0
C2802 C 0.14998 0.42324 0.33384 0.0
C2803 C 0.13281 0.43763 0.33788 0.0
H2804 H 0.16243 0.39699 0.31527 0.0
H2805 H 0.16449 0.42407 0.34306 0.0
S2806 S 0.08091 0.43984 0.3096 0.0
N2807 N 0.09463 0.42026 0.29784 0.0
N2808 N 0.09672 0.44905 0.32819 0.0
C2809 C 0.11424 0.43601 0.32555 0.0
C2810 C 0.11318 0.42051 0.30896 0.0
C2811 C 0.31314 0.36687 0.05472 0.0
C2812 C 0.33102 0.38006 0.05372 0.0
C2813 C 0.29848 0.36772 0.07187 0.0
C2814 C 0.3006 0.38211 0.0888 0.0
H2815 H 0.31016 0.35585 0.04193 0.0
H2816 H 0.28494 0.35724 0.07155 0.0
S2817 S 0.34464 0.42034 0.09437 0.0
N2818 N 0.35051 0.40771 0.07183 0.0
N2819 N 0.32214 0.41003 0.10366 0.0
C2820 C 0.31858 0.39529 0.0884 0.0
C2821 C 0.33393 0.39412 0.07097 0.0
C2822 C 0.34808 0.56667 0.83055 0.0
C2823 C 0.36725 0.55719 0.83795 0.0
C2824 C 0.34844 0.58421 0.81622 0.0
C2825 C 0.36795 0.59307 0.80946 0.0
H2826 H 0.33284 0.55987 0.83505 0.0
H2827 H 0.33345 0.59048 0.8099 0.0
S2828 S 0.42227 0.57562 0.82698 0.0
N2829 N 0.40597 0.5588 0.83916 0.0
N2830 N 0.40675 0.59228 0.81301 0.0
C2831 C 0.3871 0.58463 0.81811 0.0
C2832 C 0.38672 0.56647 0.83214 0.0
C2833 C 0.18399 0.61535 0.56683 0.0
C2834 C 0.1856 0.60202 0.58518 0.0
C2835 C 0.16743 0.61326 0.5523 0.0
C2836 C 0.15171 0.59783 0.55548 0.0
H2837 H 0.19544 0.62779 0.56373 0.0
H2838 H 0.16668 0.6242 0.53862 0.0
S2839 S 0.14829 0.55867 0.60049 0.0
N2840 N 0.16991 0.57239 0.60547 0.0
N2841 N 0.1384 0.56896 0.578 0.0
C2842 C 0.15286 0.58436 0.57362 0.0
C2843 C 0.16995 0.58629 0.58847 0.0
C2844 C 0.14645 0.55793 0.18543 0.0
C2845 C 0.12969 0.5521 0.17221 0.0
C2846 C 0.1425 0.57191 0.20255 0.0
C2847 C 0.12175 0.58041 0.20673 0.0
H2848 H 0.16254 0.55168 0.18254 0.0
H2849 H 0.15579 0.57605 0.21252 0.0
S2850 S 0.07274 0.56944 0.17581 0.0
N2851 N 0.09205 0.55553 0.16374 0.0
N2852 N 0.08431 0.58156 0.19579 0.0
C2853 C 0.10496 0.57454 0.19327 0.0
C2854 C 0.10905 0.56042 0.17602 0.0
C2855 C 0.20125 0.3714 0.9386 0.0
C2856 C 0.19218 0.37804 0.91905 0.0
C2857 C 0.1883 0.36563 0.95615 0.0
C2858 C 0.16584 0.36662 0.95481 0.0
H2859 H 0.21849 0.3706 0.94029 0.0
H2860 H 0.19598 0.36046 0.9709 0.0
S2861 S 0.13446 0.38288 0.90676 0.0
N2862 N 0.15972 0.38511 0.899 0.0
N2863 N 0.13511 0.37458 0.93209 0.0
C2864 C 0.15659 0.37333 0.93525 0.0
C2865 C 0.16986 0.37892 0.91729 0.0
C2866 C 0.35738 0.44516 0.68694 0.0
C2867 C 0.34426 0.43613 0.67148 0.0
C2868 C 0.36483 0.4333 0.70444 0.0
C2869 C 0.35951 0.41177 0.70755 0.0
H2870 H 0.36349 0.46114 0.68478 0.0
H2871 H 0.37594 0.44093 0.7149 0.0
S2872 S 0.31778 0.38393 0.67751 0.0
N2873 N 0.32087 0.40671 0.66404 0.0
N2874 N 0.33493 0.38404 0.69752 0.0
C2875 C 0.34379 0.40345 0.69416 0.0
C2876 C 0.33618 0.41571 0.67596 0.0
C2877 C 0.33775 0.62611 0.43674 0.0
C2878 C 0.33525 0.61227 0.45464 0.0
C2879 C 0.32462 0.62475 0.41898 0.0
C2880 C 0.30919 0.60902 0.41806 0.0
H2881 H 0.34894 0.63906 0.43691 0.0
H2882 H 0.32576 0.63674 0.40631 0.0
S2883 S 0.29811 0.56694 0.45893 0.0
N2884 N 0.31726 0.58107 0.46944 0.0
N2885 N 0.2932 0.57798 0.43514 0.0
C2886 C 0.30755 0.59396 0.43488 0.0
C2887 C 0.32052 0.59568 0.45341 0.0
C2888 C 0.32626 0.11443 0.39793 0.0
C2889 C 0.30513 0.10959 0.40403 0.0
C2890 C 0.34188 0.11768 0.41346 0.0
C2891 C 0.33726 0.11502 0.43547 0.0
H2892 H 0.33062 0.11627 0.38109 0.0
H2893 H 0.35765 0.12253 0.40831 0.0
S2894 S 0.28425 0.10316 0.45986 0.0
N2895 N 0.28014 0.10335 0.43371 0.0
N2896 N 0.30987 0.10824 0.46269 0.0
C2897 C 0.31616 0.11039 0.44177 0.0
C2898 C 0.30007 0.1078 0.42608 0.0
C2899 C 0.81339 0.36455 0.54297 0.0
C2900 C 0.83314 0.35367 0.54588 0.0
C2901 C 0.79655 0.3624 0.55777 0.0
C2902 C 0.79879 0.34949 0.57632 0.0
H2903 H 0.81088 0.37512 0.52922 0.0
H2904 H 0.78186 0.37152 0.55496 0.0
S2905 S 0.84709 0.31764 0.59186 0.0
N2906 N 0.85394 0.32935 0.56887 0.0
N2907 N 0.82221 0.32574 0.59706 0.0
C2908 C 0.81846 0.33867 0.5797 0.0
C2909 C 0.83565 0.34066 0.56442 0.0
C2910 C 0.37296 0.08693 0.32498 0.0
C2911 C 0.3848 0.08489 0.3057 0.0
C2912 C 0.37138 0.06981 0.3396 0.0
C2913 C 0.38156 0.04996 0.33541 0.0
H2914 H 0.36356 0.10133 0.32808 0.0
H2915 H 0.36108 0.07185 0.35362 0.0
S2916 S 0.41766 0.03779 0.28904 0.0
N2917 N 0.40901 0.06258 0.28442 0.0
N2918 N 0.40639 0.0303 0.31203 0.0
C2919 C 0.39486 0.0483 0.31701 0.0
C2920 C 0.39634 0.06576 0.30206 0.0
C2921 C 0.67261 0.63382 0.0742 0.0
C2922 C 0.67272 0.63253 0.05156 0.0
C2923 C 0.69099 0.62818 0.08616 0.0
C2924 C 0.71004 0.62112 0.07585 0.0
H2925 H 0.6579 0.63776 0.08283 0.0
H2926 H 0.68975 0.6279 0.10355 0.0
S2927 S 0.72022 0.61993 0.01692 0.0
N2928 N 0.69482 0.62743 0.01939 0.0
N2929 N 0.72895 0.61688 0.04169 0.0
C2930 C 0.71096 0.62208 0.05324 0.0
C2931 C 0.69242 0.6278 0.04115 0.0
C2932 C 0.60989 0.41828 0.34085 0.0
C2933 C 0.61674 0.43874 0.33466 0.0
C2934 C 0.60779 0.40222 0.32554 0.0
C2935 C 0.61325 0.40591 0.30379 0.0
H2936 H 0.60636 0.41463 0.35759 0.0
H2937 H 0.60272 0.38659 0.33089 0.0
S2938 S 0.63111 0.45723 0.27948 0.0
N2939 N 0.62801 0.46219 0.3053 0.0
N2940 N 0.62451 0.43205 0.27674 0.0
C2941 C 0.61939 0.42659 0.2974 0.0
C2942 C 0.62111 0.44297 0.31282 0.0
C2943 C 0.19172 0.86278 0.92686 0.0
C2944 C 0.18702 0.86939 0.90563 0.0
C2945 C 0.17545 0.86069 0.94258 0.0
C2946 C 0.15394 0.86579 0.9379 0.0
H2947 H 0.20804 0.85876 0.93131 0.0
H2948 H 0.17974 0.85503 0.95852 0.0
S2949 S 0.13307 0.8848 0.88546 0.0
N2950 N 0.15899 0.88113 0.88102 0.0
N2951 N 0.12907 0.87896 0.91109 0.0
C2952 C 0.14919 0.87339 0.91716 0.0
C2953 C 0.16553 0.87469 0.90088 0.0
C2954 C 0.39029 0.93257 0.16307 0.0
C2955 C 0.37107 0.94454 0.16199 0.0
C2956 C 0.39242 0.91526 0.17756 0.0
C2957 C 0.37548 0.90971 0.19157 0.0
H2958 H 0.40352 0.93626 0.1523 0.0
H2959 H 0.40722 0.90587 0.17747 0.0
S2960 S 0.32308 0.93849 0.19712 0.0
N2961 N 0.33544 0.95099 0.17711 0.0
N2962 N 0.33986 0.91927 0.20517 0.0
C2963 C 0.35654 0.9223 0.19128 0.0
C2964 C 0.35423 0.93956 0.17626 0.0
C2965 C 0.10422 0.0643 0.68844 0.0
C2966 C 0.11518 0.08367 0.68568 0.0
C2967 C 0.10636 0.04789 0.67342 0.0
C2968 C 0.11958 0.05029 0.65518 0.0
H2969 H 0.09417 0.06157 0.7025 0.0
H2970 H 0.0984 0.03295 0.67659 0.0
S2971 S 0.14996 0.09796 0.63915 0.0
N2972 N 0.13894 0.10431 0.66251 0.0
N2973 N 0.14232 0.07359 0.63412 0.0
C2974 C 0.12994 0.06966 0.65179 0.0
C2975 C 0.12796 0.0863 0.66709 0.0
C2976 C 0.94705 0.1293 0.28244 0.0
C2977 C 0.95642 0.1104 0.29082 0.0
C2978 C 0.93224 0.1286 0.26577 0.0
C2979 C 0.92651 0.10895 0.25694 0.0
H2980 H 0.94992 0.1445 0.28988 0.0
H2981 H 0.9242 0.14338 0.26087 0.0
S2982 S 0.95084 0.05566 0.27035 0.0
N2983 N 0.96179 0.07213 0.28726 0.0
N2984 N 0.93466 0.07065 0.25532 0.0
C2985 C 0.93777 0.09027 0.26367 0.0
C2986 C 0.9525 0.09101 0.28089 0.0
C2987 C 0.10904 0.7039 0.5274 0.0
C2988 C 0.12366 0.68667 0.53021 0.0
C2989 C 0.10589 0.71924 0.54343 0.0
C2990 C 0.11758 0.71813 0.56261 0.0
H2991 H 0.09911 0.7049 0.51328 0.0
H2992 H 0.09367 0.73161 0.54108 0.0
S2993 S 0.16025 0.67786 0.57612 0.0
N2994 N 0.15153 0.67057 0.55249 0.0
N2995 N 0.14614 0.69962 0.58231 0.0
C2996 C 0.13348 0.70189 0.56479 0.0
C2997 C 0.13636 0.68608 0.54868 0.0
C2998 C 0.53545 0.84452 0.79874 0.0
C2999 C 0.52099 0.86047 0.80598 0.0
C3000 C 0.54963 0.84852 0.78167 0.0
C3001 C 0.5498 0.8686 0.77113 0.0
H3002 H 0.53689 0.8293 0.80723 0.0
H3003 H 0.56142 0.83618 0.77767 0.0
S3004 S 0.51103 0.91361 0.78033 0.0
N3005 N 0.50486 0.89558 0.79896 0.0
N3006 N 0.53132 0.90311 0.76646 0.0
C3007 C 0.53375 0.88384 0.77664 0.0
C3008 C 0.51944 0.87981 0.79426 0.0
C3009 C 0.3756 0.26922 0.02683 0.0
C3010 C 0.366 0.27073 0.04747 0.0
C3011 C 0.36985 0.28355 0.01004 0.0
C3012 C 0.35396 0.29955 0.01319 0.0
H3013 H 0.38816 0.25735 0.0238 0.0
H3014 H 0.3782 0.28243 -0.0053 0.0
S3015 S 0.32405 0.31059 0.06383 0.0
N3016 N 0.3399 0.28994 0.06977 0.0
N3017 N 0.32869 0.31601 0.03819 0.0
C3018 C 0.3437 0.30066 0.03337 0.0
C3019 C 0.34978 0.28647 0.0505 0.0
C3020 C 0.98279 0.87789 0.19474 0.0
C3021 C 0.97427 0.87153 0.17513 0.0
C3022 C 0.9693 0.88185 0.21259 0.0
C3023 C 0.94715 0.87909 0.2112 0.0
H3024 H -0.00011 0.87976 0.19626 0.0
H3025 H 0.97619 0.88678 0.22754 0.0
S3026 S 0.91721 0.86215 0.16371 0.0
N3027 N 0.94246 0.86259 0.15552 0.0
N3028 N 0.91729 0.86955 0.18905 0.0
C3029 C 0.93854 0.87272 0.19173 0.0
C3030 C 0.9521 0.86902 0.17364 0.0
C3031 C 0.3694 0.7048 0.42065 0.0
C3032 C 0.38413 0.72124 0.4175 0.0
C3033 C 0.37017 0.69161 0.43902 0.0
C3034 C 0.38553 0.69459 0.45488 0.0
H3035 H 0.35815 0.70116 0.40822 0.0
H3036 H 0.35944 0.67828 0.44029 0.0
S3037 S 0.42539 0.73728 0.45596 0.0
N3038 N 0.4129 0.74125 0.43295 0.0
N3039 N 0.41422 0.71629 0.46758 0.0
C3040 C 0.39933 0.71179 0.45273 0.0
C3041 C 0.39864 0.7252 0.43398 0.0
C3042 C 0.52647 0.10477 0.69968 0.0
C3043 C 0.53601 0.12138 0.71083 0.0
C3044 C 0.51181 0.10918 0.68331 0.0
C3045 C 0.50631 0.13036 0.67733 0.0
H3046 H 0.53127 0.08824 0.70267 0.0
H3047 H 0.50591 0.09588 0.67437 0.0
S3048 S 0.52276 0.17938 0.70507 0.0
N3049 N 0.53588 0.15966 0.71742 0.0
N3050 N 0.50841 0.16796 0.68661 0.0
C3051 C 0.51384 0.147 0.68999 0.0
C3052 C 0.52873 0.1425 0.70672 0.0
C3053 C 0.10692 0.27905 0.96434 0.0
C3054 C 0.11926 0.29731 0.96228 0.0
C3055 C 0.1132 0.26043 0.95363 0.0
C3056 C 0.13183 0.25984 0.94054 0.0
H3057 H 0.09171 0.27962 0.97294 0.0
H3058 H 0.10228 0.24723 0.95376 0.0
S3059 S 0.17209 0.30231 0.93519 0.0
N3060 N 0.15268 0.31282 0.95021 0.0
N3061 N 0.16465 0.27778 0.92997 0.0
C3062 C 0.14567 0.27719 0.94091 0.0
C3063 C 0.13916 0.29613 0.95166 0.0
C3064 C 0.28453 0.94608 0.12007 0.0
C3065 C 0.28538 0.96165 0.10356 0.0
C3066 C 0.26998 0.92945 0.11936 0.0
C3067 C 0.2558 0.92792 0.1021 0.0
H3068 H 0.29621 0.94585 0.13279 0.0
H3069 H 0.27094 0.91696 0.13161 0.0
S3070 S 0.2488 0.96743 0.05752 0.0
N3071 N 0.26909 0.97635 0.07126 0.0
N3072 N 0.24114 0.94543 0.07017 0.0
C3073 C 0.25519 0.94458 0.08664 0.0
C3074 C 0.27021 0.96134 0.08725 0.0
C3075 C 0.29358 0.0102 0.36817 0.0
C3076 C 0.30572 0.01278 0.34917 0.0
C3077 C 0.27614 0.02389 0.37283 0.0
C3078 C 0.27042 0.04089 0.35879 0.0
H3079 H 0.29816 -0.00189 0.38001 0.0
H3080 H 0.268 0.02191 0.38819 0.0
S3081 S 0.29527 0.05264 0.30544 0.0
N3082 N 0.30936 0.03205 0.31504 0.0
N3083 N 0.27667 0.05789 0.32383 0.0
C3084 C 0.28134 0.04254 0.33889 0.0
C3085 C 0.299 0.02847 0.33408 0.0
C3086 C 0.19157 0.00742 0.59951 0.0
C3087 C 0.19154 -0.00295 0.61971 0.0
C3088 C 0.20355 0.0256 0.59579 0.0
C3089 C 0.21632 0.03375 0.61196 0.0
H3090 H 0.18064 0.0027 0.58717 0.0
H3091 H 0.20178 0.03397 0.58051 0.0
S3092 S 0.22617 0.00886 0.6656 0.0
N3093 N 0.20828 0.99355 0.65463 0.0
N3094 N 0.23148 0.02767 0.64748 0.0
C3095 C 0.21868 0.02184 0.63123 0.0
C3096 C 0.20621 0.00333 0.63508 0.0
C3097 C 0.20998 0.94431 0.88644 0.0
C3098 C 0.22729 0.93923 0.87265 0.0
C3099 C 0.19447 0.95974 0.88063 0.0
C3100 C 0.19571 0.97093 0.86086 0.0
H3101 H 0.2076 0.93537 0.90132 0.0
H3102 H 0.18086 0.96214 0.89133 0.0
S3103 S 0.24029 0.96636 0.82087 0.0
N3104 N 0.24638 0.94827 0.8396 0.0
N3105 N 0.21749 0.97786 0.8288 0.0
C3106 C 0.2139 0.96717 0.84763 0.0
C3107 C 0.22961 0.95115 0.85347 0.0
C3108 C 0.60144 0.18962 0.04023 0.0
C3109 C 0.62016 0.19025 0.02741 0.0
C3110 C 0.59777 0.20412 0.05673 0.0
C3111 C 0.61273 0.21975 0.06124 0.0
H3112 H 0.58985 0.17723 0.03819 0.0
H3113 H 0.58364 0.2022 0.06682 0.0
S3114 S 0.66218 0.23104 0.02985 0.0
N3115 N 0.65229 0.20993 0.01824 0.0
N3116 N 0.6455 0.23706 0.04984 0.0
C3117 C 0.63075 0.22168 0.04762 0.0
C3118 C 0.63438 0.20701 0.03048 0.0
C3119 C 0.03162 0.37529 0.26267 0.0
C3120 C 0.05362 0.37217 0.26649 0.0
C3121 C 0.01644 0.37307 0.27949 0.0
C3122 C 0.02299 0.36854 0.30068 0.0
H3123 H 0.02615 0.37944 0.24666 0.0
H3124 H -0.0004 0.37538 0.27602 0.0
S3125 S 0.07868 0.35868 0.3188 0.0
N3126 N 0.08106 0.36392 0.29283 0.0
N3127 N 0.05279 0.36021 0.32425 0.0
C3128 C 0.04491 0.36529 0.30453 0.0
C3129 C 0.06017 0.36703 0.28748 0.0
C3130 C 0.84621 0.79517 0.52532 0.0
C3131 C 0.86258 0.80291 0.51176 0.0
C3132 C 0.85037 0.77908 0.54059 0.0
C3133 C 0.87104 0.77002 0.54282 0.0
H3134 H 0.83036 0.80257 0.52524 0.0
H3135 H 0.83755 0.77473 0.55161 0.0
S3136 S 0.91779 0.78019 0.50689 0.0
N3137 N 0.89908 0.79737 0.49853 0.0
N3138 N 0.90691 0.76668 0.5271 0.0
C3139 C 0.88692 0.77574 0.52763 0.0
C3140 C 0.88271 0.79239 0.51218 0.0
C3141 C 0.02278 0.63382 0.21142 0.0
C3142 C 0.04486 0.63452 0.20701 0.0
C3143 C 0.00826 0.6305 0.1949 0.0
C3144 C 0.01543 0.62707 0.17366 0.0
H3145 H 0.01668 0.63655 0.22756 0.0
H3146 H 0.99127 0.63115 0.19867 0.0
S3147 S 0.07202 0.62459 0.15447 0.0
N3148 N 0.0734 0.62991 0.18029 0.0
N3149 N 0.04626 0.62261 0.14958 0.0
C3150 C 0.0376 0.62625 0.16941 0.0
C3151 C 0.05229 0.63032 0.18601 0.0
C3152 C 0.46848 0.34133 0.6823 0.0
C3153 C 0.48009 0.35914 0.67499 0.0
C3154 C 0.45131 0.3438 0.69678 0.0
C3155 C 0.44551 0.36405 0.70452 0.0
H3156 H 0.47142 0.3257 0.67545 0.0
H3157 H 0.44162 0.33011 0.70075 0.0
S3158 S 0.47397 0.41457 0.69491 0.0
N3159 N 0.48702 0.39689 0.67984 0.0
N3160 N 0.45449 0.40142 0.70708 0.0
C3161 C 0.45828 0.3815 0.69925 0.0
C3162 C 0.47576 0.37905 0.68451 0.0
C3163 C 0.03876 0.861 0.70541 0.0
C3164 C 0.02798 0.88 0.69897 0.0
C3165 C 0.05567 0.86141 0.71991 0.0
C3166 C 0.06223 0.88082 0.72855 0.0
H3167 H 0.0352 0.84593 0.69805 0.0
H3168 H 0.06447 0.84662 0.72326 0.0
S3169 S 0.03583 0.93415 0.72029 0.0
N3170 N 0.02273 0.91807 0.70464 0.0
N3171 N 0.05412 0.91892 0.73235 0.0
C3172 C 0.05005 0.89954 0.72389 0.0
C3173 C 0.03304 0.89912 0.70894 0.0
C3174 C 0.88781 0.27947 0.44439 0.0
C3175 C 0.87281 0.27627 0.42806 0.0
C3176 C 0.88413 0.29491 0.46031 0.0
C3177 C 0.86517 0.30745 0.4607 0.0
H3178 H 0.9029 0.27058 0.44441 0.0
H3179 H 0.89638 0.29735 0.47211 0.0
S3180 S 0.82053 0.30523 0.42217 0.0
N3181 N 0.83793 0.28678 0.41387 0.0
N3182 N 0.83106 0.31545 0.44377 0.0
C3183 C 0.84965 0.30377 0.44513 0.0
C3184 C 0.85343 0.28824 0.42885 0.0
C3185 C 0.45726 0.11216 0.22491 0.0
C3186 C 0.43657 0.12098 0.2215 0.0
C3187 C 0.47303 0.11266 0.20857 0.0
C3188 C 0.46831 0.12142 0.18821 0.0
H3189 H 0.46107 0.10426 0.24004 0.0
H3190 H 0.48862 0.10535 0.21156 0.0
S3191 S 0.4177 0.14892 0.17184 0.0
N3192 N 0.41325 0.14091 0.19684 0.0
N3193 N 0.44249 0.14104 0.16617 0.0
C3194 C 0.44815 0.13125 0.185 0.0
C3195 C 0.43238 0.13128 0.20167 0.0
C3196 C 0.60599 0.68994 0.9653 0.0
C3197 C 0.6269 0.68759 0.97327 0.0
C3198 C 0.60072 0.70586 0.95002 0.0
C3199 C 0.6162 0.72001 0.94198 0.0
H3200 H 0.5938 0.67871 0.96998 0.0
H3201 H 0.58473 0.70617 0.94353 0.0
S3202 S 0.67192 0.7238 0.96095 0.0
N3203 N 0.6622 0.70321 0.97452 0.0
N3204 N 0.65232 0.73287 0.94552 0.0
C3205 C 0.63662 0.71909 0.95113 0.0
C3206 C 0.64196 0.70298 0.96686 0.0
C3207 C 0.00817 0.13835 0.79488 0.0
C3208 C 0.01251 0.12315 0.81129 0.0
C3209 C 0.02262 0.14141 0.77775 0.0
C3210 C 0.04166 0.1292 0.77656 0.0
H3211 H 0.99414 0.14883 0.79598 0.0
H3212 H 0.01941 0.15401 0.766 0.0
S3213 S 0.06048 0.08709 0.81475 0.0
N3214 N 0.03699 0.0952 0.82449 0.0
N3215 N 0.06414 0.1012 0.79242 0.0
C3216 C 0.04571 0.11323 0.7921 0.0
C3217 C 0.03103 0.11004 0.80943 0.0
C3218 C 0.58897 0.2673 0.55747 0.0
C3219 C 0.60768 0.26451 0.56969 0.0
C3220 C 0.58838 0.28111 0.5396 0.0
C3221 C 0.60656 0.29223 0.533 0.0
H3222 H 0.57421 0.25987 0.56252 0.0
H3223 H 0.57326 0.28404 0.53161 0.0
S3224 S 0.66029 0.28868 0.55748 0.0
N3225 N 0.6455 0.2726 0.57252 0.0
N3226 N 0.64435 0.29828 0.53851 0.0
C3227 C 0.62589 0.28825 0.54378 0.0
C3228 C 0.62648 0.27438 0.56223 0.0
C3229 C 0.44828 0.88046 0.29763 0.0
C3230 C 0.4473 0.86428 0.28237 0.0
C3231 C 0.46481 0.88047 0.31251 0.0
C3232 C 0.48034 0.86379 0.31297 0.0
H3233 H 0.43547 0.89241 0.29892 0.0
H3234 H 0.46411 0.89238 0.32496 0.0
S3235 S 0.48645 0.81985 0.27386 0.0
N3236 N 0.46451 0.83309 0.2664 0.0
N3237 N 0.49548 0.8326 0.2948 0.0
C3238 C 0.48059 0.84873 0.29641 0.0
C3239 C 0.46396 0.84901 0.28102 0.0
C3240 C 0.84705 0.70227 0.03984 0.0
C3241 C 0.8593 0.72043 0.04249 0.0
C3242 C 0.85157 0.68833 0.0233 0.0
C3243 C 0.8686 0.6919 0.00864 0.0
H3244 H 0.83469 0.6979 0.0514 0.0
H3245 H 0.84224 0.67397 0.02292 0.0
S3246 S 0.90139 0.74041 0.00508 0.0
N3247 N 0.8861 0.74389 0.02669 0.0
N3248 N 0.89491 0.71709 -0.00474 0.0
C3249 C 0.87942 0.71124 0.00958 0.0
C3250 C 0.87465 0.7257 0.02658 0.0
C3251 C 0.73072 0.04045 0.87641 0.0
C3252 C 0.7249 0.05961 0.88664 0.0
C3253 C 0.71689 0.02306 0.87705 0.0
C3254 C 0.69733 0.02436 0.88849 0.0
H3255 H 0.74578 0.03906 0.86763 0.0
H3256 H 0.7213 0.00871 0.86834 0.0
S3257 S 0.67498 0.07139 0.91743 0.0
N3258 N 0.6984 0.07915 0.90795 0.0
N3259 N 0.6728 0.04636 0.90985 0.0
C3260 C 0.69169 0.04335 0.89908 0.0
C3261 C 0.70543 0.06106 0.89798 0.0
C3262 C 0.70057 0.9792 0.62142 0.0
C3263 C 0.68513 0.97425 0.6372 0.0
C3264 C 0.71818 0.96535 0.61765 0.0
C3265 C 0.72064 0.9459 0.62924 0.0
H3266 H 0.69878 0.99361 0.61165 0.0
H3267 H 0.72937 0.96948 0.60488 0.0
S3268 S 0.68439 0.92607 0.67271 0.0
N3269 N 0.67351 0.94917 0.66493 0.0
N3270 N 0.70636 0.92306 0.65792 0.0
C3271 C 0.70566 0.94132 0.64575 0.0
C3272 C 0.68791 0.9555 0.64965 0.0
C3273 C 0.77308 0.97291 0.36197 0.0
C3274 C 0.778 0.95103 0.36496 0.0
C3275 C 0.78942 0.988 0.36177 0.0
C3276 C 0.8108 0.98159 0.36548 0.0
H3277 H 0.75676 0.97822 0.35888 0.0
H3278 H 0.78543 0.00464 0.35827 0.0
S3279 S 0.83145 0.92623 0.37517 0.0
N3280 N 0.80546 0.92378 0.37193 0.0
N3281 N 0.83579 0.95209 0.37288 0.0
C3282 C 0.8156 0.95987 0.36946 0.0
C3283 C 0.79925 0.94457 0.36887 0.0
C3284 C 0.79043 0.05492 0.11788 0.0
C3285 C 0.76834 0.05133 0.11786 0.0
C3286 C 0.80528 0.03814 0.12125 0.0
C3287 C 0.79868 0.01706 0.12528 0.0
H3288 H 0.79638 0.0708 0.11485 0.0
H3289 H 0.82211 0.04186 0.12104 0.0
S3290 S 0.74238 -0.00068 0.12735 0.0
N3291 N 0.74036 0.02526 0.12197 0.0
N3292 N 0.76828 0.99362 0.12929 0.0
C3293 C 0.77653 0.01325 0.12556 0.0
C3294 C 0.76137 0.03039 0.12155 0.0
C3295 C 0.36463 0.78541 0.97061 0.0
C3296 C 0.37263 0.80613 0.96727 0.0
C3297 C 0.36668 0.76974 0.9546 0.0
C3298 C 0.37631 0.77454 0.93461 0.0
H3299 H 0.35652 0.78136 0.98558 0.0
H3300 H 0.36025 0.75404 0.95766 0.0
S3301 S 0.40005 0.82592 0.91775 0.0
N3302 N 0.39084 0.83016 0.94233 0.0
N3303 N 0.39453 0.80087 0.91254 0.0
C3304 C 0.38467 0.79492 0.93122 0.0
C3305 C 0.38288 0.81069 0.94748 0.0
C3306 C 0.96338 0.63661 0.69898 0.0
C3307 C 0.96874 0.62074 0.68388 0.0
C3308 C 0.94915 0.63249 0.71603 0.0
C3309 C 0.94023 0.61225 0.71881 0.0
H3310 H 0.96913 0.65272 0.69695 0.0
H3311 H 0.94431 0.64549 0.72648 0.0
S3312 S 0.95126 0.56439 0.68556 0.0
N3313 N 0.96566 0.58335 0.67419 0.0
N3314 N 0.9392 0.57559 0.70645 0.0
C3315 C 0.94688 0.59573 0.705 0.0
C3316 C 0.9611 0.59998 0.68745 0.0
C3317 C 0.13694 0.21395 0.44571 0.0
C3318 C 0.11585 0.21964 0.44 0.0
C3319 C 0.14108 0.19835 0.46156 0.0
C3320 C 0.12429 0.18762 0.47213 0.0
H3321 H 0.15042 0.22067 0.43703 0.0
H3322 H 0.15763 0.1937 0.4644 0.0
S3323 S 0.0663 0.20016 0.46681 0.0
N3324 N 0.07798 0.21611 0.44904 0.0
N3325 N 0.08588 0.18642 0.47856 0.0
C3326 C 0.10318 0.19469 0.46821 0.0
C3327 C 0.09894 0.21084 0.45223 0.0
C3328 C 0.96566 0.35745 0.77458 0.0
C3329 C 0.94418 0.36178 0.78012 0.0
C3330 C 0.98203 0.36343 0.78819 0.0
C3331 C 0.97725 0.37463 0.8072 0.0
H3332 H 0.96971 0.3487 0.76013 0.0
H3333 H -0.00172 0.35818 0.78442 0.0
S3334 S 0.9236 0.39365 0.82605 0.0
N3335 N 0.91899 0.37931 0.80464 0.0
N3336 N 0.94985 0.39357 0.82828 0.0
C3337 C 0.95594 0.38128 0.81129 0.0
C3338 C 0.93931 0.37386 0.79838 0.0
C3339 C 0.51734 0.615 0.30192 0.0
C3340 C 0.51372 0.63395 0.31344 0.0
C3341 C 0.53185 0.6143 0.28451 0.0
C3342 C 0.54342 0.63247 0.2783 0.0
H3343 H 0.50964 0.60038 0.30696 0.0
H3344 H 0.535 0.59912 0.2768 0.0
S3345 S 0.53809 0.68659 0.30155 0.0
N3346 N 0.52153 0.67185 0.31599 0.0
N3347 N 0.54874 0.67038 0.28346 0.0
C3348 C 0.53886 0.65183 0.2887 0.0
C3349 C 0.52401 0.65262 0.30624 0.0
C3350 C 0.43967 0.58942 0.76729 0.0
C3351 C 0.42996 0.60851 0.75949 0.0
C3352 C 0.456 0.58973 0.78241 0.0
C3353 C 0.46348 0.60912 0.79011 0.0
H3354 H 0.43362 0.57401 0.76297 0.0
H3355 H 0.46191 0.57462 0.78902 0.0
S3356 S 0.44714 0.66356 0.77082 0.0
N3357 N 0.43163 0.64734 0.75775 0.0
N3358 N 0.46267 0.64794 0.78589 0.0
C3359 C 0.45572 0.62832 0.78056 0.0
C3360 C 0.43886 0.62801 0.7653 0.0
C3361 C 0.88277 0.21575 0.9636 0.0
C3362 C 0.88664 0.19369 0.96162 0.0
C3363 C 0.87982 0.22866 0.94516 0.0
C3364 C 0.88007 0.21962 0.92455 0.0
H3365 H 0.88131 0.22285 0.97934 0.0
H3366 H 0.87697 0.2457 0.94702 0.0
S3367 S 0.89163 0.16288 0.91133 0.0
N3368 N 0.8927 0.16373 0.93774 0.0
N3369 N 0.88551 0.18753 0.90344 0.0
C3370 C 0.88422 0.19763 0.9226 0.0
C3371 C 0.88804 0.18479 0.94109 0.0
C3372 C 0.62512 0.79673 0.47279 0.0
C3373 C 0.60584 0.79239 0.4839 0.0
C3374 C 0.62948 0.78799 0.45279 0.0
C3375 C 0.61527 0.77382 0.44396 0.0
H3376 H 0.63636 0.80793 0.47889 0.0
H3377 H 0.64371 0.79276 0.44394 0.0
S3378 S 0.5652 0.75367 0.46865 0.0
N3379 N 0.5739 0.77111 0.48598 0.0
N3380 N 0.58296 0.75319 0.44871 0.0
C3381 C 0.59716 0.76749 0.45583 0.0
C3382 C 0.59224 0.77714 0.47584 0.0
C3383 C 0.7735 0.46158 0.60459 0.0
C3384 C 0.79496 0.45427 0.60287 0.0
C3385 C 0.75667 0.44706 0.60471 0.0
C3386 C 0.76104 0.42496 0.60392 0.0
H3387 H 0.76972 0.47854 0.60552 0.0
H3388 H 0.74027 0.45309 0.60546 0.0
S3389 S 0.81429 0.39779 0.59977 0.0
N3390 N 0.81942 0.42347 0.60028 0.0
N3391 N 0.78801 0.39652 0.6015 0.0
C3392 C 0.78236 0.41758 0.60265 0.0
C3393 C 0.7993 0.43218 0.60186 0.0
C3394 C 0.78422 0.54489 0.88443 0.0
C3395 C 0.76628 0.54744 0.8712 0.0
C3396 C 0.80072 0.53026 0.87946 0.0
C3397 C 0.79982 0.51748 0.86111 0.0
H3398 H 0.78622 0.55523 0.89802 0.0
H3399 H 0.81478 0.52987 0.88946 0.0
S3400 S 0.75392 0.51476 0.82407 0.0
N3401 N 0.74698 0.53401 0.84087 0.0
N3402 N 0.77776 0.50582 0.83172 0.0
C3403 C 0.78101 0.51848 0.84886 0.0
C3404 C 0.76432 0.5337 0.85379 0.0
C3405 C 0.69682 0.53251 0.1041 0.0
C3406 C 0.70916 0.53829 0.12162 0.0
C3407 C 0.6825 0.51582 0.10594 0.0
C3408 C 0.67962 0.50479 0.12562 0.0
H3409 H 0.69734 0.54178 0.08924 0.0
H3410 H 0.67234 0.51291 0.09239 0.0
S3411 S 0.71134 0.51146 0.17497 0.0
N3412 N 0.72028 0.52992 0.15805 0.0
N3413 N 0.69299 0.49851 0.16186 0.0
C3414 C 0.6936 0.50897 0.14255 0.0
C3415 C 0.70845 0.52585 0.1405 0.0
C3416 C 0.7033 0.45759 0.34696 0.0
C3417 C 0.69277 0.46976 0.36297 0.0
C3418 C 0.71896 0.44201 0.35218 0.0
C3419 C 0.72492 0.43804 0.37363 0.0
H3420 H 0.6986 0.45919 0.33031 0.0
H3421 H 0.72562 0.43228 0.33935 0.0
S3422 S 0.70544 0.46869 0.42105 0.0
N3423 N 0.69167 0.47898 0.40078 0.0
N3424 N 0.72135 0.44998 0.41062 0.0
C3425 C 0.71598 0.45151 0.38956 0.0
C3426 C 0.69983 0.46726 0.38424 0.0
C3427 C 0.5462 0.38062 0.19517 0.0
C3428 C 0.52471 0.37873 0.20187 0.0
C3429 C 0.56286 0.37866 0.20972 0.0
C3430 C 0.55878 0.37498 0.23166 0.0
H3431 H 0.55029 0.38343 0.17842 0.0
H3432 H 0.5791 0.38038 0.20374 0.0
S3433 S 0.50554 0.3691 0.2578 0.0
N3434 N 0.5002 0.37312 0.23209 0.0
N3435 N 0.53187 0.36991 0.25974 0.0
C3436 C 0.53743 0.37362 0.23886 0.0
C3437 C 0.5203 0.37542 0.22389 0.0
C3438 C 0.11945 0.80171 0.05514 0.0
C3439 C 0.10845 0.79812 0.03609 0.0
C3440 C 0.12087 0.78592 0.07116 0.0
C3441 C 0.11077 0.76629 0.06886 0.0
H3442 H 0.12646 0.81709 0.05795 0.0
H3443 H 0.12861 0.78975 0.08604 0.0
S3444 S 0.0827 0.74808 0.02065 0.0
N3445 N 0.08973 0.77277 0.01445 0.0
N3446 N 0.0915 0.74316 0.0452 0.0
C3447 C 0.10093 0.76199 0.04929 0.0
C3448 C 0.1 0.77793 0.03268 0.0
C3449 C 0.38794 0.22087 0.53817 0.0
C3450 C 0.36691 0.22096 0.54661 0.0
C3451 C 0.39395 0.2073 0.52144 0.0
C3452 C 0.37894 0.194 0.51238 0.0
H3453 H 0.40025 0.23002 0.54562 0.0
H3454 H 0.41061 0.20635 0.51638 0.0
S3455 S 0.32126 0.19031 0.52732 0.0
N3456 N 0.33074 0.20814 0.54373 0.0
N3457 N 0.3417 0.18296 0.51182 0.0
C3458 C 0.35742 0.1953 0.51952 0.0
C3459 C 0.35147 0.20875 0.53681 0.0
C3460 C 0.21355 0.53561 0.3789 0.0
C3461 C 0.19456 0.53641 0.39134 0.0
C3462 C 0.23029 0.5496 0.38282 0.0
C3463 C 0.22877 0.56432 0.39969 0.0
H3464 H 0.21492 0.52518 0.36519 0.0
H3465 H 0.24405 0.5496 0.37201 0.0
S3466 S 0.18355 0.5708 0.43851 0.0
N3467 N 0.17606 0.55181 0.42232 0.0
N3468 N 0.20761 0.57757 0.42995 0.0
C3469 C 0.21059 0.56405 0.41322 0.0
C3470 C 0.19344 0.55022 0.40897 0.0
C3471 C 0.18541 0.46278 0.12915 0.0
C3472 C 0.18974 0.48412 0.1242 0.0
C3473 C 0.20107 0.44683 0.12758 0.0
C3474 C 0.22202 0.45129 0.12069 0.0
H3475 H 0.16967 0.45839 0.13465 0.0
H3476 H 0.1964 0.43075 0.13169 0.0
S3477 S 0.24279 0.50545 0.10905 0.0
N3478 N 0.2171 0.50974 0.1147 0.0
N3479 N 0.24707 0.4793 0.11114 0.0
C3480 C 0.22714 0.47286 0.11677 0.0
C3481 C 0.2109 0.4894 0.11871 0.0
C3482 C 0.28007 0.46957 0.84927 0.0
C3483 C 0.2765 0.45634 0.86725 0.0
C3484 C 0.29756 0.4831 0.8484 0.0
C3485 C 0.31236 0.48336 0.86526 0.0
H3486 H 0.27009 0.46845 0.83526 0.0
H3487 H 0.3003 0.49225 0.83373 0.0
S3488 S 0.3087 0.45253 0.91669 0.0
N3489 N 0.28775 0.44523 0.90295 0.0
N3490 N 0.32093 0.47043 0.90141 0.0
C3491 C 0.30793 0.47128 0.88407 0.0
C3492 C 0.28993 0.45771 0.88499 0.0
C3493 C 0.26326 0.543 0.62988 0.0
C3494 C 0.26341 0.55298 0.60949 0.0
C3495 C 0.27737 0.52591 0.63467 0.0
C3496 C 0.29247 0.51834 0.61937 0.0
H3497 H 0.25276 0.549 0.64254 0.0
H3498 H 0.27719 0.51943 0.65091 0.0
S3499 S 0.29772 0.53739 0.56275 0.0
N3500 N 0.27844 0.55268 0.57316 0.0
N3501 N 0.30519 0.52078 0.58226 0.0
C3502 C 0.29178 0.5272 0.59845 0.0
C3503 C 0.2772 0.54447 0.59349 0.0
C3504 C 0.08844 0.091 0.44753 0.0
C3505 C 0.06924 0.09997 0.44004 0.0
C3506 C 0.0944 0.09358 0.46876 0.0
C3507 C 0.08188 0.1061 0.48305 0.0
H3508 H 0.09904 0.08203 0.43686 0.0
H3509 H 0.10941 0.08616 0.47373 0.0
S3510 S 0.02882 0.13121 0.47148 0.0
N3511 N 0.03634 0.11984 0.44872 0.0
N3512 N 0.04832 0.12602 0.48858 0.0
C3513 C 0.06207 0.11444 0.47598 0.0
C3514 C 0.05559 0.11107 0.45443 0.0
C3515 C 0.12538 0.80113 0.72128 0.0
C3516 C 0.13842 0.81783 0.72792 0.0
C3517 C 0.12861 0.79154 0.70106 0.0
C3518 C 0.14517 0.79812 0.68705 0.0
H3519 H 0.11241 0.79569 0.73156 0.0
H3520 H 0.1182 0.77885 0.69641 0.0
S3521 S 0.18308 0.8416 0.69591 0.0
N3522 N 0.1683 0.84069 0.71805 0.0
N3523 N 0.17409 0.8226 0.68063 0.0
C3524 C 0.15825 0.81462 0.69345 0.0
C3525 C 0.15498 0.82447 0.71373 0.0
C3526 C 0.4277 0.86902 0.9589 0.0
C3527 C 0.42878 0.8833 0.976 0.0
C3528 C 0.43351 0.87531 0.93789 0.0
C3529 C 0.4407 0.8961 0.93328 0.0
H3530 H 0.42068 0.85353 0.96151 0.0
H3531 H 0.43139 0.86409 0.92507 0.0
S3532 S 0.44986 0.93807 0.97358 0.0
N3533 N 0.43985 0.918 0.98771 0.0
N3534 N 0.45137 0.92988 0.94848 0.0
C3535 C 0.44367 0.90982 0.95072 0.0
C3536 C 0.43758 0.90338 0.97203 0.0
C3537 C 0.36256 0.18432 0.21568 0.0
C3538 C 0.35243 0.16527 0.22213 0.0
C3539 C 0.35869 0.19395 0.19535 0.0
C3540 C 0.34425 0.18511 0.18102 0.0
H3541 H 0.37373 0.19171 0.22625 0.0
H3542 H 0.36682 0.20852 0.19094 0.0
S3543 S 0.31316 0.13596 0.19002 0.0
N3544 N 0.32713 0.1382 0.21211 0.0
N3545 N 0.31951 0.1567 0.17473 0.0
C3546 C 0.33375 0.16644 0.18741 0.0
C3547 C 0.33792 0.15643 0.20774 0.0
C3548 C 0.07247 0.89625 0.03812 0.0
C3549 C 0.05349 0.88818 0.04712 0.0
C3550 C 0.08033 0.88917 0.01815 0.0
C3551 C 0.06938 0.8739 0.0065 0.0
H3552 H 0.08103 0.90848 0.04635 0.0
H3553 H 0.09453 0.89639 0.01133 0.0
S3554 S 0.01888 0.84803 0.02302 0.0
N3555 N 0.02412 0.86393 0.04316 0.0
N3556 N 0.03863 0.85097 0.00532 0.0
C3557 C 0.05066 0.86535 0.01555 0.0
C3558 C 0.04279 0.87238 0.03601 0.0
C3559 C 0.34427 0.81664 0.26243 0.0
C3560 C 0.36601 0.81823 0.25649 0.0
C3561 C 0.33808 0.80746 0.28206 0.0
C3562 C 0.35334 0.79952 0.29669 0.0
H3563 H 0.33178 0.82256 0.25183 0.0
H3564 H 0.32113 0.80673 0.2858 0.0
S3565 S 0.41248 0.80025 0.2889 0.0
N3566 N 0.4029 0.8114 0.26671 0.0
N3567 N 0.39139 0.79425 0.30397 0.0
C3568 C 0.37524 0.80138 0.29114 0.0
C3569 C 0.38153 0.81073 0.27099 0.0
C3570 C 0.41908 0.09314 0.54162 0.0
C3571 C 0.43916 0.10024 0.54806 0.0
C3572 C 0.41084 0.09871 0.52141 0.0
C3573 C 0.42262 0.11104 0.50658 0.0
H3574 H 0.40961 0.08323 0.55236 0.0
H3575 H 0.39537 0.09274 0.51708 0.0
S3576 S 0.47553 0.13453 0.51587 0.0
N3577 N 0.47009 0.12138 0.53849 0.0
N3578 N 0.45503 0.13093 0.49991 0.0
C3579 C 0.44259 0.11853 0.51284 0.0
C3580 C 0.45073 0.1134 0.53377 0.0
C3581 C 0.13724 0.15006 0.76444 0.0
C3582 C 0.12124 0.1627 0.75452 0.0
C3583 C 0.14025 0.15101 0.78657 0.0
C3584 C 0.12741 0.16476 0.79904 0.0
H3585 H 0.14732 0.13927 0.75504 0.0
H3586 H 0.15288 0.14132 0.79388 0.0
S3587 S 0.08561 0.2033 0.77997 0.0
N3588 N 0.09404 0.19084 0.75808 0.0
N3589 N 0.09951 0.19257 0.79998 0.0
C3590 C 0.11181 0.17795 0.78918 0.0
C3591 C 0.10888 0.17707 0.76668 0.0
C3592 C 0.47328 0.05768 0.12205 0.0
C3593 C 0.47916 0.07502 0.10885 0.0
C3594 C 0.45278 0.04917 0.12105 0.0
C3595 C 0.43746 0.05742 0.10654 0.0
H3596 H 0.48451 0.05081 0.13349 0.0
H3597 H 0.44898 0.0359 0.13172 0.0
S3598 S 0.44574 0.10161 0.06686 0.0
N3599 N 0.46869 0.09926 0.07964 0.0
N3600 N 0.43008 0.08344 0.07787 0.0
C3601 C 0.44339 0.07442 0.09274 0.0
C3602 C 0.46426 0.08316 0.09385 0.0
C3603 C 0.17498 0.20889 0.3731 0.0
C3604 C 0.1763 0.22716 0.35987 0.0
C3605 C 0.18032 0.18867 0.36506 0.0
C3606 C 0.18702 0.18614 0.34349 0.0
H3607 H 0.16815 0.21003 0.38917 0.0
H3608 H 0.17833 0.17489 0.37561 0.0
S3609 S 0.19392 0.22962 0.30289 0.0
N3610 N 0.18556 0.24195 0.32483 0.0
N3611 N 0.19572 0.20397 0.30951 0.0
C3612 C 0.18954 0.20455 0.33053 0.0
C3613 C 0.18416 0.22509 0.3388 0.0
C3614 C 0.04393 0.9138 0.60445 0.0
C3615 C 0.04676 0.93601 0.60476 0.0
C3616 C 0.02498 0.90491 0.61201 0.0
C3617 C 0.00829 0.91789 0.62023 0.0
H3618 H 0.05622 0.90321 0.59778 0.0
H3619 H 0.02299 0.88788 0.6104 0.0
S3620 S 0.00832 0.97672 0.62621 0.0
N3621 N 0.03182 0.97073 0.61504 0.0
N3622 N -0.00408 0.9538 0.62928 0.0
C3623 C 0.01101 0.94005 0.62112 0.0
C3624 C 0.03035 0.94918 0.61336 0.0
C3625 C 0.33364 0.78596 0.84359 0.0
C3626 C 0.32255 0.76911 0.85378 0.0
C3627 C 0.32375 0.80586 0.83942 0.0
C3628 C 0.30203 0.80944 0.84422 0.0
H3629 H 0.35021 0.78382 0.83866 0.0
H3630 H 0.33306 0.81837 0.83185 0.0
S3631 S 0.26474 0.77035 0.86845 0.0
N3632 N 0.28802 0.75726 0.86743 0.0
N3633 N 0.26908 0.79445 0.85823 0.0
C3634 C 0.29032 0.79263 0.85343 0.0
C3635 C 0.30062 0.77249 0.85846 0.0
C3636 C 0.43626 0.91316 0.39001 0.0
C3637 C 0.43347 0.93542 0.39016 0.0
C3638 C 0.45667 0.90375 0.38967 0.0
C3639 C 0.47511 0.9161 0.38807 0.0
H3640 H 0.42262 0.90285 0.39119 0.0
H3641 H 0.458 0.88655 0.39093 0.0
S3642 S 0.47637 0.97532 0.38666 0.0
N3643 N 0.45062 0.96993 0.38862 0.0
N3644 N 0.48933 0.95194 0.38597 0.0
C3645 C 0.47261 0.93848 0.38727 0.0
C3646 C 0.45167 0.9482 0.38875 0.0
C3647 C 0.334 0.19983 0.63368 0.0
C3648 C 0.32076 0.19138 0.61811 0.0
C3649 C 0.3354 0.2219 0.63595 0.0
C3650 C 0.32403 0.23599 0.62235 0.0
H3651 H 0.34316 0.18932 0.64429 0.0
H3652 H 0.34607 0.22801 0.64784 0.0
S3653 S 0.28697 0.22183 0.57929 0.0
N3654 N 0.29539 0.19858 0.58945 0.0
N3655 N 0.29884 0.24037 0.59317 0.0
C3656 C 0.3103 0.22783 0.60708 0.0
C3657 C 0.30853 0.20534 0.60503 0.0
C3658 C 0.05716 0.06741 0.87653 0.0
C3659 C 0.0628 0.05093 0.89111 0.0
C3660 C 0.03579 0.07388 0.87404 0.0
C3661 C 0.01928 0.06395 0.88562 0.0
H3662 H 0.06936 0.07637 0.86806 0.0
H3663 H 0.03226 0.08791 0.8643 0.0
S3664 S 0.025 0.01724 0.92248 0.0
N3665 N 0.0498 0.02262 0.91495 0.0
N3666 N 0.00944 0.03513 0.91008 0.0
C3667 C 0.02437 0.04629 0.89883 0.0
C3668 C 0.04623 0.03967 0.90156 0.0
C3669 C 0.18859 0.79626 0.12942 0.0
C3670 C 0.18292 0.80943 0.1468 0.0
C3671 C 0.18111 0.77535 0.12836 0.0
C3672 C 0.16746 0.7671 0.14451 0.0
H3673 H 0.19844 0.80234 0.11632 0.0
H3674 H 0.18512 0.76606 0.11426 0.0
S3675 S 0.14893 0.79519 0.1939 0.0
N3676 N 0.16378 0.81271 0.18083 0.0
N3677 N 0.14987 0.77348 0.17917 0.0
C3678 C 0.16269 0.77987 0.16254 0.0
C3679 C 0.17033 0.80106 0.16357 0.0
C3680 C 0.12305 0.4533 0.06872 0.0
C3681 C 0.10671 0.44108 0.07805 0.0
C3682 C 0.1243 0.47513 0.073 0.0
C3683 C 0.10903 0.48521 0.08649 0.0
H3684 H 0.13501 0.44586 0.05828 0.0
H3685 H 0.13757 0.48394 0.06623 0.0
S3686 S 0.06145 0.46003 0.11204 0.0
N3687 N 0.0742 0.44029 0.09959 0.0
N3688 N 0.07561 0.48153 0.10702 0.0
C3689 C 0.09179 0.47317 0.09467 0.0
C3690 C 0.09092 0.45096 0.09068 0.0
C3691 C 0.62366 0.02925 0.91293 0.0
C3692 C 0.61729 0.01015 0.92319 0.0
C3693 C 0.61728 0.04924 0.9209 0.0
C3694 C 0.60403 0.05088 0.93926 0.0
H3695 H 0.63305 0.02881 0.89818 0.0
H3696 H 0.62195 0.06346 0.91201 0.0
S3697 S 0.58496 0.00604 0.97366 0.0
N3698 N 0.59863 0.99433 0.95402 0.0
N3699 N 0.58639 0.03197 0.96873 0.0
C3700 C 0.59844 0.03203 0.95035 0.0
C3701 C 0.60515 0.01164 0.9424 0.0
C3702 C 0.2091 0.36343 0.16345 0.0
C3703 C 0.2283 0.36014 0.17468 0.0
C3704 C 0.18945 0.35657 0.17181 0.0
C3705 C 0.188 0.34622 0.19192 0.0
H3706 H 0.20922 0.37124 0.14787 0.0
H3707 H 0.17528 0.35913 0.16219 0.0
S3708 S 0.23343 0.33281 0.2279 0.0
N3709 N 0.24464 0.34509 0.20704 0.0
N3710 N 0.20755 0.33239 0.22288 0.0
C3711 C 0.20704 0.34249 0.20339 0.0
C3712 C 0.22719 0.3495 0.19482 0.0
C3713 C 0.87628 0.94015 0.42652 0.0
C3714 C 0.89565 0.93483 0.4369 0.0
C3715 C 0.87231 0.96079 0.41805 0.0
C3716 C 0.8875 0.97685 0.41961 0.0
H3717 H 0.86452 0.92805 0.42394 0.0
H3718 H 0.8578 0.96384 0.4091 0.0
S3719 S 0.939 0.97251 0.44822 0.0
N3720 N 0.9289 0.94842 0.4507 0.0
N3721 N 0.92149 0.98697 0.43419 0.0
C3722 C 0.90622 0.97228 0.43113 0.0
C3723 C 0.91025 0.95132 0.43995 0.0
C3724 C 0.78389 0.15965 0.18715 0.0
C3725 C 0.80097 0.14478 0.19003 0.0
C3726 C 0.7648 0.15374 0.1775 0.0
C3727 C 0.76185 0.13264 0.17097 0.0
H3728 H 0.78564 0.17626 0.1913 0.0
H3729 H 0.7526 0.16595 0.17432 0.0
S3730 S 0.80045 0.0871 0.17647 0.0
N3731 N 0.81288 0.10754 0.18667 0.0
N3732 N 0.77674 0.09656 0.16906 0.0
C3733 C 0.77809 0.11731 0.17498 0.0
C3734 C 0.79772 0.12334 0.1844 0.0
C3735 C 0.37077 0.52866 0.54977 0.0
C3736 C 0.38286 0.54468 0.55916 0.0
C3737 C 0.36698 0.50927 0.56061 0.0
C3738 C 0.37528 0.50513 0.58117 0.0
H3739 H 0.3639 0.53115 0.53402 0.0
H3740 H 0.35737 0.49753 0.55287 0.0
S3741 S 0.40874 0.54152 0.61252 0.0
N3742 N 0.40337 0.55495 0.59015 0.0
N3743 N 0.39703 0.51836 0.61012 0.0
C3744 C 0.38795 0.52079 0.59047 0.0
C3745 C 0.3915 0.54061 0.5796 0.0
C3746 C 0.20749 0.63977 0.30246 0.0
C3747 C 0.19157 0.62493 0.30725 0.0
C3748 C 0.22718 0.63847 0.31288 0.0
C3749 C 0.23135 0.6222 0.32814 0.0
H3750 H 0.20458 0.65254 0.29082 0.0
H3751 H 0.23901 0.65046 0.30936 0.0
S3752 S 0.19406 0.5806 0.34727 0.0
N3753 N 0.18062 0.59423 0.3287 0.0
N3754 N 0.21781 0.59158 0.34817 0.0
C3755 C 0.21557 0.6072 0.33289 0.0
C3756 C 0.19554 0.60862 0.32242 0.0
C3757 C 0.2857 0.38594 0.81835 0.0
C3758 C 0.29605 0.36827 0.82822 0.0
C3759 C 0.26388 0.39003 0.82202 0.0
C3760 C 0.25208 0.3764 0.83545 0.0
H3761 H 0.29454 0.39664 0.80783 0.0
H3762 H 0.25623 0.40386 0.8144 0.0
S3763 S 0.2712 0.32628 0.86207 0.0
N3764 N 0.29276 0.33612 0.85027 0.0
N3765 N 0.25142 0.34344 0.85665 0.0
C3766 C 0.26205 0.35818 0.84457 0.0
C3767 C 0.28426 0.35426 0.8412 0.0
C3768 C 0.91051 0.89763 0.51836 0.0
C3769 C 0.91361 0.8782 0.50747 0.0
C3770 C 0.91509 0.89918 0.54014 0.0
C3771 C 0.92261 0.88125 0.55171 0.0
H3772 H 0.90373 0.91158 0.51016 0.0
H3773 H 0.91203 0.91424 0.54814 0.0
S3774 S 0.93696 0.82787 0.53023 0.0
N3775 N 0.92738 0.84147 0.50937 0.0
N3776 N 0.93555 0.84439 0.55065 0.0
C3777 C 0.92703 0.86212 0.54088 0.0
C3778 C 0.92275 0.86061 0.51858 0.0
C3779 C 0.83135 0.17864 0.29452 0.0
C3780 C 0.84619 0.19265 0.30286 0.0
C3781 C 0.83457 0.16944 0.27439 0.0
C3782 C 0.85271 0.17395 0.26149 0.0
H3783 H 0.8174 0.17415 0.30395 0.0
H3784 H 0.82284 0.15823 0.26916 0.0
S3785 S 0.89514 0.21185 0.27503 0.0
N3786 N 0.8789 0.21208 0.29624 0.0
N3787 N 0.88491 0.19499 0.25799 0.0
C3788 C 0.86725 0.1888 0.26922 0.0
C3789 C 0.86405 0.19802 0.29002 0.0
C3790 C 0.57076 0.11847 0.02697 0.0
C3791 C 0.5658 0.1071 0.00854 0.0
C3792 C 0.56514 0.11087 0.04744 0.0
C3793 C 0.55443 0.09145 0.0503 0.0
H3794 H 0.57951 0.13317 0.02557 0.0
H3795 H 0.56952 0.12023 0.06113 0.0
S3796 S 0.53697 0.05607 0.00682 0.0
N3797 N 0.5487 0.07608 -0.00592 0.0
N3798 N 0.53835 0.06138 0.03267 0.0
C3799 C 0.54868 0.08025 0.03186 0.0
C3800 C 0.55424 0.08822 0.01093 0.0
C3801 C 0.64026 0.82139 0.80035 0.0
C3802 C 0.64797 0.80013 0.80202 0.0
C3803 C 0.6339 0.83036 0.78061 0.0
C3804 C 0.63495 0.81853 0.76157 0.0
H3805 H 0.63975 0.83145 0.81433 0.0
H3806 H 0.62851 0.84689 0.78021 0.0
S3807 S 0.65369 0.76188 0.75714 0.0
N3808 N 0.656 0.7672 0.78289 0.0
N3809 N 0.64411 0.78407 0.74574 0.0
C3810 C 0.64228 0.79705 0.76301 0.0
C3811 C 0.64887 0.7879 0.7832 0.0
C3812 C 0.9282 0.11316 0.94305 0.0
C3813 C 0.94484 0.09762 0.94192 0.0
C3814 C 0.91966 0.1198 0.96292 0.0
C3815 C 0.92765 0.11148 0.98247 0.0
H3816 H 0.92105 0.11959 0.92848 0.0
H3817 H 0.90619 0.13099 0.96295 0.0
S3818 S 0.97295 0.0723 0.98822 0.0
N3819 N 0.97016 0.07535 0.96201 0.0
N3820 N 0.9545 0.08813 -0.00069 0.0
C3821 C 0.94515 0.09686 0.98154 0.0
C3822 C 0.9536 0.08984 0.96129 0.0
C3823 C 0.61617 0.16891 0.71437 0.0
C3824 C 0.62565 0.17537 0.7335 0.0
C3825 C 0.62289 0.17708 0.69439 0.0
C3826 C 0.63947 0.19188 0.69276 0.0
H3827 H 0.60396 0.15691 0.71474 0.0
H3828 H 0.61558 0.17112 0.68006 0.0
S3829 S 0.66712 0.2166 0.73812 0.0
N3830 N 0.65067 0.1995 0.74969 0.0
N3831 N 0.66345 0.21458 0.71202 0.0
C3832 C 0.64819 0.19946 0.71179 0.0
C3833 C 0.64119 0.19132 0.73219 0.0
C3834 C 0.55471 0.86628 0.47204 0.0
C3835 C 0.57069 0.8788 0.48082 0.0
C3836 C 0.5463 0.8713 0.45163 0.0
C3837 C 0.55342 0.88917 0.43972 0.0
H3838 H 0.54855 0.85275 0.48107 0.0
H3839 H 0.53385 0.86149 0.44536 0.0
S3840 S 0.59662 0.92538 0.45495 0.0
N3841 N 0.59439 0.90861 0.47559 0.0
N3842 N 0.57856 0.91821 0.43753 0.0
C3843 C 0.5698 0.90134 0.4482 0.0
C3844 C 0.57845 0.8961 0.46872 0.0
C3845 C 0.84683 0.81932 0.20869 0.0
C3846 C 0.86498 0.81728 0.19524 0.0
C3847 C 0.8489 0.82311 0.23057 0.0
C3848 C 0.86921 0.82498 0.23963 0.0
H3849 H 0.8309 0.81814 0.20223 0.0
H3850 H 0.83449 0.82521 0.24027 0.0
S3851 S 0.92172 0.81756 0.212 0.0
N3852 N 0.90393 0.81521 0.19287 0.0
N3853 N 0.90775 0.82227 0.23423 0.0
C3854 C 0.8875 0.82211 0.22658 0.0
C3855 C 0.88541 0.81835 0.20426 0.0
C3856 C 0.52294 0.91157 0.89627 0.0
C3857 C 0.51144 0.91583 0.87734 0.0
C3858 C 0.54461 0.91637 0.89764 0.0
C3859 C 0.55565 0.92512 0.87993 0.0
H3860 H 0.51517 0.90422 0.91011 0.0
H3861 H 0.55289 0.91267 0.91247 0.0
S3862 S 0.53269 0.9401 0.82699 0.0
N3863 N 0.51237 0.93016 0.84085 0.0
N3864 N 0.55344 0.93866 0.84314 0.0
C3865 C 0.5443 0.92974 0.86098 0.0
C3866 C 0.52206 0.9253 0.85976 0.0
C3867 C 0.81859 0.79803 0.62556 0.0
C3868 C 0.80621 0.80012 0.64454 0.0
C3869 C 0.82442 0.77794 0.61765 0.0
C3870 C 0.81788 0.75923 0.62822 0.0
H3871 H 0.82435 0.81199 0.61694 0.0
H3872 H 0.83479 0.77703 0.60361 0.0
S3873 S 0.78481 0.75556 0.678 0.0
N3874 N 0.78705 0.7815 0.67337 0.0
N3875 N 0.79801 0.74363 0.65818 0.0
C3876 C 0.80475 0.76091 0.64663 0.0
C3877 C 0.79894 0.78141 0.6549 0.0
C3878 C 0.94477 0.05352 0.36607 0.0
C3879 C 0.93969 0.05016 0.38804 0.0
C3880 C 0.96464 0.06165 0.35949 0.0
C3881 C 0.98008 0.0667 0.37461 0.0
H3882 H 0.93321 0.05015 0.35385 0.0
H3883 H 0.96791 0.06408 0.34251 0.0
S3884 S 0.97504 0.06127 0.43388 0.0
N3885 N 0.95218 0.05258 0.42482 0.0
N3886 N 0.98921 0.06794 0.41234 0.0
C3887 C 0.97547 0.06305 0.3965 0.0
C3888 C 0.95534 0.05479 0.40324 0.0
C3889 C 0.66565 0.21008 0.1544 0.0
C3890 C 0.67022 0.22176 0.13535 0.0
C3891 C 0.6742 0.18955 0.15807 0.0
C3892 C 0.68767 0.17955 0.14286 0.0
H3893 H 0.655 0.21668 0.16662 0.0
H3894 H 0.66976 0.18124 0.17283 0.0
S3895 S 0.70594 0.20323 0.09092 0.0
N3896 N 0.69006 0.22197 0.10142 0.0
N3897 N 0.7061 0.183 0.10835 0.0
C3898 C 0.69281 0.19099 0.12387 0.0
C3899 C 0.68419 0.2122 0.12016 0.0
C3900 C 0.52157 0.05726 0.59039 0.0
C3901 C 0.51689 0.07238 0.60626 0.0
C3902 C 0.54255 0.04933 0.58731 0.0
C3903 C 0.55948 0.05659 0.59978 0.0
H3904 H 0.50917 0.05234 0.57966 0.0
H3905 H 0.54563 0.03811 0.57448 0.0
S3906 S 0.55475 0.09514 0.64449 0.0
N3907 N 0.53015 0.09323 0.63553 0.0
N3908 N 0.56963 0.07875 0.62967 0.0
C3909 C 0.55462 0.07079 0.61658 0.0
C3910 C 0.53326 0.07863 0.6198 0.0
C3911 C 0.66724 0.78517 0.38901 0.0
C3912 C 0.67388 0.79712 0.37096 0.0
C3913 C 0.66274 0.76347 0.38734 0.0
C3914 C 0.66428 0.75312 0.3675 0.0
H3915 H 0.66539 0.79265 0.40453 0.0
H3916 H 0.65773 0.75477 0.40164 0.0
S3917 S 0.68259 0.77691 0.31566 0.0
N3918 N 0.68326 0.79673 0.33285 0.0
N3919 N 0.67431 0.75597 0.32967 0.0
C3920 C 0.67185 0.7646 0.34949 0.0
C3921 C 0.67669 0.78665 0.35122 0.0
C3922 C 0.93417 0.9149 0.08055 0.0
C3923 C 0.92711 0.93288 0.09203 0.0
C3924 C 0.9554 0.9075 0.08151 0.0
C3925 C 0.97057 0.91763 0.09419 0.0
H3926 H 0.92301 0.9061 0.07112 0.0
H3927 H 0.95969 0.89317 0.07273 0.0
S3928 S 0.96087 0.96794 0.12413 0.0
N3929 N 0.93723 0.96245 0.11427 0.0
N3930 N 0.97745 0.94851 0.11623 0.0
C3931 C 0.96398 0.93649 0.1048 0.0
C3932 C 0.94215 0.94404 0.1038 0.0
C3933 C 0.83382 0.2117 0.84073 0.0
C3934 C 0.8227 0.22865 0.85082 0.0
C3935 C 0.82537 0.19128 0.84012 0.0
C3936 C 0.80509 0.18725 0.84888 0.0
H3937 H 0.84904 0.21432 0.83274 0.0
H3938 H 0.83445 0.17875 0.83201 0.0
S3939 S 0.76829 0.22623 0.87547 0.0
N3940 N 0.78973 0.24011 0.86917 0.0
N3941 N 0.7734 0.20167 0.86705 0.0
C3942 C 0.79339 0.204 0.85858 0.0
C3943 C 0.80225 0.22478 0.8597 0.0
C3944 C 0.86846 0.53317 0.92076 0.0
C3945 C 0.88615 0.54503 0.91371 0.0
C3946 C 0.86677 0.51176 0.91523 0.0
C3947 C 0.88254 0.50214 0.9022 0.0
H3948 H 0.85577 0.54059 0.93033 0.0
H3949 H 0.85261 0.50314 0.92008 0.0
S3950 S 0.9324 0.52616 0.88095 0.0
N3951 N 0.92013 0.54554 0.8944 0.0
N3952 N 0.91689 0.50524 0.88354 0.0
C3953 C 0.90071 0.5136 0.89588 0.0
C3954 C 0.90253 0.53519 0.90176 0.0
C3955 C 0.37317 0.94689 0.04185 0.0
C3956 C 0.38975 0.93564 0.05267 0.0
C3957 C 0.36515 0.96678 0.04934 0.0
C3958 C 0.37304 0.97562 0.06822 0.0
H3959 H 0.36663 0.94048 0.02734 0.0
H3960 H 0.35272 0.9752 0.0404 0.0
S3961 S 0.4153 0.95234 0.1031 0.0
N3962 N 0.41316 0.9349 0.08365 0.0
N3963 N 0.39772 0.97172 0.09769 0.0
C3964 C 0.38916 0.96439 0.07933 0.0
C3965 C 0.39761 0.94453 0.07159 0.0
C3966 C 0.76216 0.65229 0.81127 0.0
C3967 C 0.75702 0.63086 0.81507 0.0
C3968 C 0.78269 0.65781 0.80437 0.0
C3969 C 0.79896 0.64209 0.80151 0.0
H3970 H 0.75056 0.66495 0.81488 0.0
H3971 H 0.78606 0.67463 0.80239 0.0
S3972 S 0.79277 0.58338 0.80838 0.0
N3973 N 0.76895 0.59372 0.81459 0.0
N3974 N 0.80779 0.60389 0.80166 0.0
C3975 C 0.79358 0.62043 0.80429 0.0
C3976 C 0.77252 0.61486 0.81107 0.0
C3977 C 0.0841 0.03285 0.54643 0.0
C3978 C 0.09611 0.05017 0.55346 0.0
C3979 C 0.08909 0.01169 0.55301 0.0
C3980 C 0.10609 0.00713 0.56705 0.0
H3981 H 0.07051 0.03565 0.53607 0.0
H3982 H 0.07903 -0.00105 0.5478 0.0
S3983 S 0.14459 0.04599 0.58727 0.0
N3984 N 0.12737 0.06073 0.57328 0.0
N3985 N 0.13637 0.0212 0.58572 0.0
C3986 C 0.11882 0.02409 0.57329 0.0
C3987 C 0.11394 0.04553 0.56647 0.0
C3988 C 0.22571 0.84247 0.80492 0.0
C3989 C 0.22765 0.86226 0.81492 0.0
C3990 C 0.20599 0.83608 0.79706 0.0
C3991 C 0.18738 0.84908 0.79936 0.0
H3992 H 0.23922 0.8313 0.80427 0.0
H3993 H 0.20516 0.82036 0.79011 0.0
S3994 S 0.18481 0.90339 0.82298 0.0
N3995 N 0.21013 0.8956 0.82524 0.0
N3996 N 0.17284 0.88365 0.811 0.0
C3997 C 0.18952 0.86956 0.8082 0.0
C3998 C 0.20972 0.87613 0.81587 0.0
C3999 C 0.59962 0.45155 0.41172 0.0
C4000 C 0.6122 0.44441 0.42893 0.0
C4001 C 0.60152 0.47227 0.40351 0.0
C4002 C 0.61615 0.48654 0.41216 0.0
H4003 H 0.5888 0.44085 0.40404 0.0
H4004 H 0.59189 0.47682 0.38976 0.0
S4005 S 0.64974 0.4764 0.46004 0.0
N4006 N 0.63766 0.4536 0.45625 0.0
N4007 N 0.64124 0.49286 0.4408 0.0
C4008 C 0.62779 0.47998 0.43032 0.0
C4009 C 0.62589 0.45877 0.43864 0.0
C4010 C 0.767 0.33475 0.65325 0.0
C4011 C 0.75351 0.35214 0.6591 0.0
C4012 C 0.78852 0.33419 0.65866 0.0
C4013 C 0.79697 0.35037 0.67097 0.0
H4014 H 0.7615 0.32245 0.64273 0.0
H4015 H 0.79878 0.32142 0.65245 0.0
S4016 S 0.76653 0.39465 0.69729 0.0
N4017 N 0.74873 0.38281 0.68245 0.0
N4018 N 0.78934 0.38119 0.69354 0.0
C4019 C 0.78299 0.36593 0.67987 0.0
C4020 C 0.76107 0.36685 0.67384 0.0
C4021 C 0.72561 0.59839 0.16395 0.0
C4022 C 0.73761 0.61696 0.16129 0.0
C4023 C 0.70347 0.59968 0.16677 0.0
C4024 C 0.69282 0.61962 0.16729 0.0
H4025 H 0.73345 0.58274 0.16409 0.0
H4026 H 0.69478 0.58504 0.16927 0.0
S4027 S 0.71649 0.67291 0.15887 0.0
N4028 N 0.73706 0.65585 0.15771 0.0
N4029 N 0.69522 0.65824 0.16342 0.0
C4030 C 0.70446 0.63833 0.16415 0.0
C4031 C 0.727 0.63703 0.16113 0.0
C4032 C 0.57131 0.63114 0.972 0.0
C4033 C 0.57722 0.6127 0.98374 0.0
C4034 C 0.56477 0.6297 0.95077 0.0
C4035 C 0.56352 0.60976 0.94069 0.0
H4036 H 0.57319 0.64684 0.97868 0.0
H4037 H 0.56136 0.64448 0.94203 0.0
S4038 S 0.57243 0.55653 0.96675 0.0
N4039 N 0.57813 0.57386 0.98545 0.0
N4040 N 0.56538 0.57098 0.94542 0.0
C4041 C 0.56731 0.59106 0.95306 0.0
C4042 C 0.57422 0.5926 0.97468 0.0
C4043 C 0.64895 0.32592 0.21049 0.0
C4044 C 0.63612 0.31637 0.22672 0.0
C4045 C 0.65214 0.31664 0.19041 0.0
C4046 C 0.64307 0.29711 0.18564 0.0
H4047 H 0.65661 0.34098 0.21311 0.0
H4048 H 0.66205 0.32475 0.17855 0.0
S4049 S 0.60987 0.26404 0.22249 0.0
N4050 N 0.61506 0.28541 0.23667 0.0
N4051 N 0.62173 0.26756 0.1988 0.0
C4052 C 0.63063 0.28689 0.20162 0.0
C4053 C 0.62702 0.29658 0.22219 0.0
C4054 C 0.9367 0.37642 0.44518 0.0
C4055 C 0.93155 0.39662 0.436 0.0
C4056 C 0.93023 0.37121 0.46635 0.0
C4057 C 0.91805 0.38593 0.47854 0.0
H4058 H 0.94576 0.36466 0.43596 0.0
H4059 H 0.93397 0.3554 0.47284 0.0
S4060 S 0.90036 0.44064 0.46156 0.0
N4061 N 0.91382 0.43119 0.44063 0.0
N4062 N 0.90139 0.42145 0.48006 0.0
C4063 C 0.91308 0.40617 0.4695 0.0
C4064 C 0.91988 0.4115 0.44827 0.0
C4065 C 0.85954 0.69594 0.70244 0.0
C4066 C 0.85009 0.68443 0.68597 0.0
C4067 C 0.86266 0.68669 0.72287 0.0
C4068 C 0.85631 0.66567 0.72751 0.0
H4069 H 0.86463 0.71218 0.69953 0.0
H4070 H 0.87003 0.69608 0.73509 0.0
S4071 S 0.8283 0.62997 0.69047 0.0
N4072 N 0.83329 0.65156 0.67588 0.0
N4073 N 0.8382 0.63446 0.71438 0.0
C4074 C 0.84633 0.65425 0.71123 0.0
C4075 C 0.84351 0.66354 0.69041 0.0
C4076 C 0.56868 0.40002 0.53639 0.0
C4077 C 0.55214 0.38963 0.54777 0.0
C4078 C 0.57714 0.39193 0.51707 0.0
C4079 C 0.56952 0.37306 0.50831 0.0
H4080 H 0.57505 0.41474 0.54228 0.0
H4081 H 0.58922 0.40097 0.50847 0.0
S4082 S 0.52704 0.33918 0.53179 0.0
N4083 N 0.52905 0.35882 0.54904 0.0
N4084 N 0.54482 0.34391 0.51247 0.0
C4085 C 0.55349 0.36211 0.51971 0.0
C4086 C 0.54486 0.37029 0.5395 0.0
C4087 C 0.84136 0.3231 0.78425 0.0
C4088 C 0.85365 0.30752 0.7952 0.0
C4089 C 0.84837 0.33154 0.76457 0.0
C4090 C 0.86773 0.32441 0.75514 0.0
H4091 H 0.82615 0.32874 0.7909 0.0
H4092 H 0.83829 0.34331 0.75634 0.0
S4093 S 0.90593 0.28406 0.77745 0.0
N4094 N 0.88645 0.28568 0.79569 0.0
N4095 N 0.8993 0.30118 0.758 0.0
C4096 C 0.88045 0.30914 0.76602 0.0
C4097 C 0.87348 0.30078 0.78633 0.0
C4098 C 0.94243 0.59617 0.00786 0.0
C4099 C 0.92364 0.60885 0.00552 0.0
C4100 C 0.95169 0.59272 0.02804 0.0
C4101 C 0.94282 0.60222 0.04655 0.0
H4102 H 0.94952 0.588 -0.00582 0.0
H4103 H 0.96559 0.58209 0.02926 0.0
S4104 S 0.89529 0.63897 0.04879 0.0
N4105 N 0.89756 0.63237 0.02327 0.0
N4106 N 0.91533 0.6264 0.06103 0.0
C4107 C 0.92497 0.61617 0.04424 0.0
C4108 C 0.91528 0.61935 0.02376 0.0
C4109 C 0.61273 0.67623 0.25818 0.0
C4110 C 0.62131 0.65873 0.24713 0.0
C4111 C 0.6206 0.68138 0.27821 0.0
C4112 C 0.63736 0.66915 0.28772 0.0
H4113 H 0.5999 0.68598 0.2513 0.0
H4114 H 0.61326 0.69495 0.28633 0.0
S4115 S 0.66666 0.6231 0.26339 0.0
N4116 N 0.64855 0.6304 0.24549 0.0
N4117 N 0.66307 0.63955 0.28369 0.0
C4118 C 0.64646 0.65192 0.27636 0.0
C4119 C 0.63854 0.64688 0.25584 0.0
C4120 C 0.94678 0.58475 0.5902 0.0
C4121 C 0.93758 0.56741 0.60102 0.0
C4122 C 0.96838 0.58892 0.59234 0.0
C4123 C 0.98158 0.57636 0.60593 0.0
H4124 H 0.93725 0.59514 0.57979 0.0
H4125 H 0.9747 0.60238 0.58334 0.0
S4126 S 0.96549 0.52789 0.63657 0.0
N4127 N 0.94336 0.53643 0.62461 0.0
N4128 N 0.98425 0.54483 0.62925 0.0
C4129 C 0.97282 0.55842 0.61633 0.0
C4130 C 0.9507 0.55388 0.61379 0.0
C4131 C 0.66324 0.68978 0.84328 0.0
C4132 C 0.68399 0.68287 0.84865 0.0
C4133 C 0.65554 0.71021 0.84882 0.0
C4134 C 0.66822 0.72453 0.86013 0.0
H4135 H 0.65304 0.6795 0.83429 0.0
H4136 H 0.63956 0.7149 0.84379 0.0
S4137 S 0.72352 0.71316 0.87892 0.0
N4138 N 0.71701 0.69122 0.86636 0.0
N4139 N 0.70249 0.72964 0.87722 0.0
C4140 C 0.68893 0.7175 0.86604 0.0
C4141 C 0.69681 0.69666 0.86018 0.0
C4142 C 0.53334 0.45106 0.09308 0.0
C4143 C 0.55289 0.44099 0.09855 0.0
C4144 C 0.51378 0.44254 0.09997 0.0
C4145 C 0.51304 0.42342 0.11228 0.0
H4146 H 0.53314 0.4655 0.08322 0.0
H4147 H 0.49913 0.45064 0.09495 0.0
S4148 S 0.56004 0.39118 0.13113 0.0
N4149 N 0.57044 0.41133 0.11751 0.0
N4150 N 0.53387 0.39518 0.13017 0.0
C4151 C 0.53258 0.41362 0.1184 0.0
C4152 C 0.55245 0.42242 0.11157 0.0
C4153 C 0.79871 0.29716 0.36146 0.0
C4154 C 0.80008 0.30724 0.34108 0.0
C4155 C 0.80863 0.27701 0.36544 0.0
C4156 C 0.8206 0.2665 0.34926 0.0
H4157 H 0.79028 0.30508 0.37454 0.0
H4158 H 0.80782 0.27018 0.38152 0.0
S4159 S 0.82879 0.28581 0.29302 0.0
N4160 N 0.81397 0.30477 0.30442 0.0
N4161 N 0.83249 0.26728 0.31185 0.0
C4162 C 0.82147 0.27613 0.32865 0.0
C4163 C 0.81128 0.29641 0.32457 0.0
C4164 C 0.95295 0.43471 0.86963 0.0
C4165 C 0.93572 0.42407 0.87936 0.0
C4166 C 0.97393 0.42681 0.87178 0.0
C4167 C 0.97835 0.40821 0.88406 0.0
H4168 H 0.95022 0.44961 0.86083 0.0
H4169 H 0.98677 0.43561 0.86414 0.0
S4170 S 0.93853 0.37567 0.91412 0.0
N4171 N 0.92407 0.39441 0.90175 0.0
N4172 N 0.96365 0.38006 0.90704 0.0
C4173 C 0.9611 0.39741 0.8938 0.0
C4174 C 0.9397 0.40518 0.89106 0.0
C4175 C 0.83258 0.6925 0.13023 0.0
C4176 C 0.81733 0.6862 0.11538 0.0
C4177 C 0.83647 0.71409 0.13325 0.0
C4178 C 0.82528 0.72985 0.12141 0.0
H4179 H 0.84135 0.68065 0.13974 0.0
H4180 H 0.84848 0.71847 0.14466 0.0
S4181 S 0.78315 0.72177 0.08139 0.0
N4182 N 0.79057 0.69736 0.0892 0.0
N4183 N 0.79801 0.7382 0.09498 0.0
C4184 C 0.80985 0.72387 0.10673 0.0
C4185 C 0.80597 0.70189 0.10352 0.0
C4186 C 0.55316 0.55048 0.37652 0.0
C4187 C 0.56654 0.56024 0.39132 0.0
C4188 C 0.53124 0.55649 0.37506 0.0
C4189 C 0.52216 0.57252 0.38828 0.0
H4190 H 0.55955 0.53787 0.36636 0.0
H4191 H 0.52146 0.54865 0.36348 0.0
S4192 S 0.55145 0.60355 0.42882 0.0
N4193 N 0.56971 0.58702 0.4186 0.0
N4194 N 0.52909 0.5982 0.41649 0.0
C4195 C 0.53578 0.58238 0.40302 0.0
C4196 C 0.55782 0.5763 0.40434 0.0
C4197 C 0.68556 0.29705 0.62682 0.0
C4198 C 0.68075 0.30971 0.64482 0.0
C4199 C 0.67901 0.27574 0.62607 0.0
C4200 C 0.66719 0.26659 0.64319 0.0
H4201 H 0.69435 0.30369 0.61324 0.0
H4202 H 0.6825 0.26671 0.61168 0.0
S4203 S 0.65055 0.29351 0.69384 0.0
N4204 N 0.66362 0.31184 0.67996 0.0
N4205 N 0.65154 0.27194 0.67891 0.0
C4206 C 0.66284 0.27909 0.66149 0.0
C4207 C 0.6695 0.30064 0.66218 0.0
C4208 C 0.62573 0.97707 0.56747 0.0
C4209 C 0.61108 0.98479 0.58294 0.0
C4210 C 0.62499 0.95604 0.56072 0.0
C4211 C 0.60942 0.94222 0.569 0.0
H4212 H 0.63821 0.9871 0.56094 0.0
H4213 H 0.63672 0.95056 0.54891 0.0
S4214 S 0.56686 0.95474 0.60913 0.0
N4215 N 0.57985 0.97725 0.6057 0.0
N4216 N 0.57887 0.93736 0.59299 0.0
C4217 C 0.59426 0.94977 0.58395 0.0
C4218 C 0.59496 0.97122 0.59089 0.0
C4219 C 0.11337 0.53011 0.40731 0.0
C4220 C 0.11725 0.51214 0.42071 0.0
C4221 C 0.10789 0.55011 0.4159 0.0
C4222 C 0.10544 0.55265 0.43817 0.0
H4223 H 0.11405 0.52861 0.39 0.0
H4224 H 0.10474 0.56346 0.40501 0.0
S4225 S 0.11469 0.51114 0.48032 0.0
N4226 N 0.11923 0.49853 0.4575 0.0
N4227 N 0.10805 0.53605 0.47357 0.0
C4228 C 0.10937 0.53495 0.45179 0.0
C4229 C 0.1154 0.51467 0.44308 0.0
C4230 C 0.72945 0.86313 0.68577 0.0
C4231 C 0.73345 0.85889 0.66394 0.0
C4232 C 0.70981 0.85824 0.69552 0.0
C4233 C 0.69344 0.84897 0.68379 0.0
H4234 H 0.74157 0.87026 0.69545 0.0
H4235 H 0.70744 0.86196 0.71234 0.0
S4236 S 0.69658 0.83283 0.62667 0.0
N4237 N 0.71997 0.84342 0.63127 0.0
N4238 N 0.68292 0.83471 0.64947 0.0
C4239 C 0.69734 0.84434 0.66204 0.0
C4240 C 0.71738 0.84919 0.65214 0.0
C4241 C 0.37546 0.46607 0.93229 0.0
C4242 C 0.39112 0.47523 0.9187 0.0
C4243 C 0.37779 0.44475 0.93994 0.0
C4244 C 0.39601 0.43208 0.93457 0.0
H4245 H 0.36105 0.47514 0.93647 0.0
H4246 H 0.3653 0.43816 0.95013 0.0
S4247 S 0.44106 0.44798 0.89882 0.0
N4248 N 0.42529 0.46947 0.89996 0.0
N4249 N 0.42938 0.42988 0.91425 0.0
C4250 C 0.4117 0.44107 0.92113 0.0
C4251 C 0.40934 0.46251 0.91326 0.0
C4252 C 0.29775 0.62408 0.68669 0.0
C4253 C 0.30287 0.64591 0.68766 0.0
C4254 C 0.27752 0.61771 0.68007 0.0
C4255 C 0.2618 0.63295 0.67406 0.0
H4256 H 0.30976 0.61176 0.69014 0.0
H4257 H 0.27484 0.60083 0.67788 0.0
S4258 S 0.26567 0.69188 0.67664 0.0
N4259 N 0.28937 0.68268 0.6844 0.0
N4260 N 0.25154 0.67056 0.67176 0.0
C4261 C 0.26602 0.6547 0.67664 0.0
C4262 C 0.28653 0.66124 0.68346 0.0
C4263 C 0.89799 0.03573 0.07444 0.0
C4264 C 0.88025 0.04926 0.0705 0.0
C4265 C 0.89527 0.01402 0.07857 0.0
C4266 C 0.87479 0.0052 0.07845 0.0
H4267 H 0.91392 0.04213 0.07523 0.0
H4268 H 0.90913 0.00424 0.08304 0.0
S4269 S 0.82374 0.0334 0.0655 0.0
N4270 N 0.84191 0.05214 0.06441 0.0
N4271 N 0.83688 0.01095 0.07162 0.0
C4272 C 0.85716 0.01819 0.07275 0.0
C4273 C 0.85986 0.04044 0.06906 0.0
C4274 C 0.70602 0.10967 0.80833 0.0
C4275 C 0.69001 0.12481 0.81416 0.0
C4276 C 0.72696 0.11117 0.81576 0.0
C4277 C 0.7325 0.12776 0.82938 0.0
H4278 H 0.7025 0.09674 0.79767 0.0
H4279 H 0.7388 0.0992 0.81089 0.0
S4280 S 0.69666 0.17149 0.84948 0.0
N4281 N 0.68118 0.15675 0.83477 0.0
N4282 N 0.72061 0.15987 0.84814 0.0
C4283 C 0.7167 0.143 0.83535 0.0
C4284 C 0.6954 0.14141 0.82796 0.0
C4285 C 0.7859 0.86487 0.3421 0.0
C4286 C 0.79388 0.87255 0.32237 0.0
C4287 C 0.76414 0.86685 0.34705 0.0
C4288 C 0.75011 0.87766 0.33307 0.0
H4289 H 0.79641 0.85674 0.35345 0.0
H4290 H 0.75812 0.85975 0.36183 0.0
S4291 S 0.76276 0.89899 0.27872 0.0
N4292 N 0.78591 0.88953 0.28782 0.0
N4293 N 0.74493 0.89456 0.29808 0.0
C4294 C 0.75765 0.88486 0.31303 0.0
C4295 C 0.7797 0.88214 0.30754 0.0
C4296 C 0.42533 0.38899 0.01286 0.0
C4297 C 0.41251 0.37168 0.00804 0.0
C4298 C 0.43269 0.39159 0.03374 0.0
C4299 C 0.42704 0.37711 0.05028 0.0
H4300 H 0.42896 0.40096 0.00064 0.0
H4301 H 0.44247 0.4052 0.03702 0.0
S4302 S 0.3935 0.32928 0.04533 0.0
N4303 N 0.39498 0.3397 0.02087 0.0
N4304 N 0.40785 0.34488 0.06025 0.0
C4305 C 0.41457 0.3595 0.04537 0.0
C4306 C 0.40753 0.3567 0.02414 0.0
C4307 C 0.3533 0.6639 0.77752 0.0
C4308 C 0.35757 0.67445 0.7579 0.0
C4309 C 0.35102 0.67492 0.79664 0.0
C4310 C 0.35181 0.69726 0.79692 0.0
H4311 H 0.35109 0.64686 0.77813 0.0
H4312 H 0.34753 0.6658 0.81115 0.0
S4313 S 0.36281 0.73292 0.74995 0.0
N4314 N 0.36336 0.70861 0.73984 0.0
N4315 N 0.35775 0.72989 0.77597 0.0
C4316 C 0.35629 0.70828 0.77747 0.0
C4317 C 0.35946 0.69677 0.7579 0.0
C4318 C 0.06567 0.61699 0.55033 0.0
C4319 C 0.05663 0.59678 0.55389 0.0
C4320 C 0.07262 0.62355 0.52975 0.0
C4321 C 0.07034 0.6104 0.51188 0.0
H4322 H 0.06804 0.62761 0.56362 0.0
H4323 H 0.08034 0.63881 0.52789 0.0
S4324 S 0.04642 0.55673 0.51192 0.0
N4325 N 0.04505 0.56403 0.53729 0.0
N4326 N 0.05738 0.57687 0.49869 0.0
C4327 C 0.06035 0.5907 0.51492 0.0
C4328 C 0.05371 0.58375 0.53591 0.0
C4329 C 0.16216 0.30265 0.28915 0.0
C4330 C 0.14631 0.29762 0.30464 0.0
C4331 C 0.15674 0.31194 0.26927 0.0
C4332 C 0.13527 0.31605 0.26392 0.0
H4333 H 0.17899 0.30051 0.29279 0.0
H4334 H 0.16948 0.31695 0.25844 0.0
S4335 S 0.08752 0.30408 0.29749 0.0
N4336 N 0.10798 0.2961 0.31235 0.0
N4337 N 0.098 0.31322 0.27472 0.0
C4338 C 0.11919 0.30975 0.27845 0.0
C4339 C 0.12466 0.30058 0.29888 0.0
C4340 C 0.40799 0.60135 0.46952 0.0
C4341 C 0.42047 0.61518 0.48133 0.0
C4342 C 0.41551 0.59307 0.44996 0.0
C4343 C 0.43571 0.59853 0.44144 0.0
H4344 H 0.39267 0.59621 0.47587 0.0
H4345 H 0.40544 0.58225 0.4415 0.0
S4346 S 0.4741 0.63483 0.46617 0.0
N4347 N 0.45365 0.63431 0.48331 0.0
N4348 N 0.46772 0.61925 0.44616 0.0
C4349 C 0.44803 0.61293 0.45286 0.0
C4350 C 0.44045 0.6211 0.47295 0.0
C4351 C 0.13971 0.66457 0.19533 0.0
C4352 C 0.13577 0.68599 0.18921 0.0
C4353 C 0.13223 0.65658 0.21509 0.0
C4354 C 0.12105 0.66988 0.22955 0.0
H4355 H 0.14869 0.65391 0.1848 0.0
H4356 H 0.13605 0.64011 0.21947 0.0
S4357 S 0.10614 0.72702 0.22095 0.0
N4358 N 0.11912 0.72019 0.19866 0.0
N4359 N 0.10595 0.7053 0.23647 0.0
C4360 C 0.1167 0.69125 0.22357 0.0
C4361 C 0.12382 0.69928 0.20315 0.0
C4362 C 0.06801 0.36642 0.96936 0.0
C4363 C 0.06402 0.38063 0.98626 0.0
C4364 C 0.06297 0.3721 0.94817 0.0
C4365 C 0.05365 0.39225 0.94317 0.0
H4366 H 0.07577 0.35107 0.97248 0.0
H4367 H 0.06703 0.36085 0.93561 0.0
S4368 S 0.03632 0.43373 0.98223 0.0
N4369 N 0.04759 0.41457 -0.00294 0.0
N4370 N 0.03791 0.42527 0.95727 0.0
C4371 C 0.04792 0.40591 0.96018 0.0
C4372 C 0.05305 0.40007 0.98177 0.0
C4373 C 0.38475 0.32468 0.72614 0.0
C4374 C 0.36785 0.32127 0.7408 0.0
C4375 C 0.38239 0.32103 0.70428 0.0
C4376 C 0.36319 0.31314 0.69643 0.0
H4377 H 0.39972 0.33074 0.73153 0.0
H4378 H 0.39557 0.32485 0.69349 0.0
S4379 S 0.31681 0.29489 0.72929 0.0
N4380 N 0.33313 0.30516 0.74677 0.0
N4381 N 0.32879 0.29761 0.70564 0.0
C4382 C 0.34713 0.30719 0.7113 0.0
C4383 C 0.34948 0.31124 0.73356 0.0
C4384 C 0.03644 0.43988 0.37094 0.0
C4385 C 0.05167 0.43125 0.38536 0.0
C4386 C 0.016 0.43144 0.36952 0.0
C4387 C 0.01002 0.41387 0.38228 0.0
H4388 H 0.04024 0.45338 0.36057 0.0
H4389 H 0.0049 0.43861 0.35813 0.0
S4390 S 0.0433 0.38569 0.42337 0.0
N4391 N 0.05903 0.4042 0.41308 0.0
N4392 N 0.0204 0.38854 0.4106 0.0
C4393 C 0.0249 0.40511 0.39698 0.0
C4394 C 0.04579 0.4137 0.39844 0.0
C4395 C 0.30647 0.29789 0.12556 0.0
C4396 C 0.30495 0.30301 0.14754 0.0
C4397 C 0.31357 0.27753 0.119 0.0
C4398 C 0.31958 0.26181 0.13417 0.0
H4399 H 0.30301 0.30991 0.11329 0.0
H4400 H 0.3156 0.27449 0.10202 0.0
S4401 S 0.31562 0.26564 0.19338 0.0
N4402 N 0.3076 0.28946 0.1844 0.0
N4403 N 0.32155 0.25153 0.17181 0.0
C4404 C 0.31688 0.26615 0.15606 0.0
C4405 C 0.30941 0.2867 0.16282 0.0
C4406 C 0.45827 0.54016 0.88037 0.0
C4407 C 0.44069 0.55273 0.88754 0.0
C4408 C 0.47745 0.54968 0.87354 0.0
C4409 C 0.47956 0.57205 0.87359 0.0
H4410 H 0.45723 0.52289 0.88024 0.0
H4411 H 0.4908 0.53948 0.86848 0.0
S4412 S 0.43898 0.61159 0.89325 0.0
N4413 N 0.42716 0.58836 0.89571 0.0
N4414 N 0.4629 0.6062 0.8828 0.0
C4415 C 0.46204 0.58466 0.88073 0.0
C4416 C 0.44267 0.575 0.88775 0.0
C4417 C 0.16801 0.68487 0.65683 0.0
C4418 C 0.18798 0.67982 0.64743 0.0
C4419 C 0.15784 0.70464 0.65304 0.0
C4420 C 0.1672 0.72038 0.63971 0.0
H4421 H 0.15988 0.67323 0.66691 0.0
H4422 H 0.14226 0.70738 0.6605 0.0
S4423 S 0.22027 0.71542 0.61236 0.0
N4424 N 0.21736 0.69212 0.62486 0.0
N4425 N 0.19831 0.72973 0.61778 0.0
C4426 C 0.18743 0.71565 0.63039 0.0
C4427 C 0.19778 0.69525 0.63419 0.0
C4428 C 0.02709 0.56351 0.1128 0.0
C4429 C 0.01779 0.57657 0.09661 0.0
C4430 C 0.0485 0.5561 0.11098 0.0
C4431 C 0.06113 0.56125 0.09279 0.0
H4432 H 0.01809 0.55966 0.1273 0.0
H4433 H 0.05524 0.54639 0.1239 0.0
S4434 S 0.04468 0.5947 0.04601 0.0
N4435 N 0.02309 0.59377 0.06153 0.0
N4436 N 0.06311 0.58012 0.05856 0.0
C4437 C 0.05193 0.57374 0.07635 0.0
C4438 C 0.03029 0.58125 0.07811 0.0
C4439 C 0.18484 0.25994 0.87109 0.0
C4440 C 0.16371 0.25924 0.86369 0.0
C4441 C 0.19418 0.27958 0.87551 0.0
C4442 C 0.18264 0.29895 0.87239 0.0
H4443 H 0.19413 0.24527 0.87352 0.0
H4444 H 0.21066 0.27962 0.88067 0.0
S4445 S 0.12722 0.30549 0.85281 0.0
N4446 N 0.13206 0.27943 0.85265 0.0
N4447 N 0.14892 0.31609 0.86225 0.0
C4448 C 0.16138 0.29825 0.86552 0.0
C4449 C 0.1521 0.27844 0.86075 0.0
C4450 C 0.46213 0.43044 0.58236 0.0
C4451 C 0.46891 0.4224 0.60239 0.0
C4452 C 0.44073 0.43684 0.57902 0.0
C4453 C 0.42509 0.43483 0.59544 0.0
H4454 H 0.4733 0.43092 0.56887 0.0
H4455 H 0.43628 0.44253 0.56314 0.0
S4456 S 0.43494 0.4151 0.65116 0.0
N4457 N 0.4587 0.41366 0.6392 0.0
N4458 N 0.41832 0.42492 0.63292 0.0
C4459 C 0.43189 0.42749 0.61585 0.0
C4460 C 0.45383 0.42149 0.61933 0.0
C4461 C 0.30255 0.69403 0.32752 0.0
C4462 C 0.29862 0.68154 0.34614 0.0
C4463 C 0.3119 0.71412 0.32874 0.0
C4464 C 0.31714 0.72277 0.34864 0.0
H4465 H 0.29954 0.68778 0.31175 0.0
H4466 H 0.31587 0.72258 0.31393 0.0
S4467 S 0.30749 0.69792 0.40232 0.0
N4468 N 0.29891 0.68022 0.38524 0.0
N4469 N 0.31595 0.71825 0.3875 0.0
C4470 C 0.31177 0.71125 0.36746 0.0
C4471 C 0.30266 0.69055 0.36623 0.0
C4472 C 0.39558 0.01048 0.4155 0.0
C4473 C 0.37479 0.00343 0.41183 0.0
C4474 C 0.39927 0.03188 0.41976 0.0
C4475 C 0.38229 0.04694 0.42005 0.0
H4476 H 0.40926 -0.00038 0.41375 0.0
H4477 H 0.41562 0.03681 0.4217 0.0
S4478 S 0.32455 0.03597 0.41395 0.0
N4479 N 0.33679 0.01247 0.41092 0.0
N4480 N 0.34362 0.05306 0.41858 0.0
C4481 C 0.36121 0.03983 0.41783 0.0
C4482 C 0.35746 0.01789 0.41391 0.0
C4483 C 0.90285 0.45191 0.55754 0.0
C4484 C 0.88821 0.4369 0.5504 0.0
C4485 C 0.896 0.47225 0.56431 0.0
C4486 C 0.87427 0.47854 0.5641 0.0
H4487 H 0.91974 0.44775 0.55851 0.0
H4488 H 0.9078 0.48296 0.57036 0.0
S4489 S 0.82991 0.44689 0.5432 0.0
N4490 N 0.85111 0.43064 0.54146 0.0
N4491 N 0.83849 0.46942 0.55319 0.0
C4492 C 0.85956 0.4643 0.55576 0.0
C4493 C 0.86647 0.44333 0.5492 0.0
C4494 C 0.28217 0.13116 0.28981 0.0
C4495 C 0.29854 0.14062 0.30138 0.0
C4496 C 0.2629 0.1253 0.29993 0.0
C4497 C 0.25918 0.12893 0.32196 0.0
H4498 H 0.28429 0.12822 0.27279 0.0
H4499 H 0.25074 0.11813 0.29034 0.0
S4500 S 0.2966 0.1547 0.35901 0.0
N4501 N 0.30976 0.15361 0.33587 0.0
N4502 N 0.27329 0.14379 0.35469 0.0
C4503 C 0.27547 0.13853 0.33365 0.0
C4504 C 0.29523 0.14403 0.32342 0.0
C4505 C 0.61498 0.524 0.05415 0.0
C4506 C 0.60208 0.51648 0.07132 0.0
C4507 C 0.61224 0.54502 0.04584 0.0
C4508 C 0.5964 0.55903 0.0543 0.0
H4509 H 0.62748 0.51377 0.04735 0.0
H4510 H 0.62248 0.55031 0.0327 0.0
S4511 S 0.55857 0.54784 0.09909 0.0
N4512 N 0.57267 0.52541 0.09628 0.0
N4513 N 0.56799 0.5644 0.08058 0.0
C4514 C 0.58336 0.55178 0.07116 0.0
C4515 C 0.58606 0.53063 0.07967 0.0
C4516 C 0.69392 0.36345 0.30021 0.0
C4517 C 0.68966 0.34156 0.29782 0.0
C4518 C 0.71324 0.37006 0.3089 0.0
C4519 C 0.72883 0.35502 0.31566 0.0
H4520 H 0.68187 0.37558 0.29629 0.0
H4521 H 0.71526 0.38693 0.31184 0.0
S4522 S 0.72723 0.2962 0.31012 0.0
N4523 N 0.70407 0.30507 0.30059 0.0
N4524 N 0.74003 0.31764 0.3174 0.0
C4525 C 0.72553 0.33328 0.31198 0.0
C4526 C 0.70603 0.32651 0.30289 0.0
C4527 C 0.08878 0.96016 0.9079 0.0
C4528 C 0.10278 0.94541 0.91775 0.0
C4529 C 0.09534 0.98077 0.90301 0.0
C4530 C 0.11623 0.98719 0.90747 0.0
H4531 H 0.07271 0.95571 0.90379 0.0
H4532 H 0.08416 0.99159 0.89492 0.0
S4533 S 0.1586 0.95477 0.93434 0.0
N4534 N 0.13808 0.93868 0.93302 0.0
N4535 N 0.15051 0.97777 0.92337 0.0
C4536 C 0.13012 0.97299 0.91828 0.0
C4537 C 0.12338 0.95191 0.92345 0.0
C4538 C 0.27244 0.84255 0.15248 0.0
C4539 C 0.25582 0.85654 0.15954 0.0
C4540 C 0.29326 0.84431 0.15998 0.0
C4541 C 0.29804 0.85986 0.17504 0.0
H4542 H 0.26974 0.83097 0.1401 0.0
H4543 H 0.30579 0.83399 0.15333 0.0
S4544 S 0.25924 0.89624 0.20286 0.0
N4545 N 0.24478 0.88359 0.18532 0.0
N4546 N 0.28395 0.88679 0.19967 0.0
C4547 C 0.28124 0.87253 0.18374 0.0
C4548 C 0.26006 0.87078 0.17603 0.0
C4549 C 0.20418 0.1153 0.65784 0.0
C4550 C 0.19981 0.13197 0.6721 0.0
C4551 C 0.22508 0.10821 0.6537 0.0
C4552 C 0.24252 0.11848 0.66255 0.0
H4553 H 0.19142 0.10782 0.64952 0.0
H4554 H 0.22746 0.09531 0.6426 0.0
S4555 S 0.23931 0.15974 0.7048 0.0
N4556 N 0.21411 0.15584 0.69846 0.0
N4557 N 0.25393 0.14349 0.68952 0.0
C4558 C 0.23833 0.13388 0.67845 0.0
C4559 C 0.21682 0.14053 0.68336 0.0
C4560 C 0.11336 0.08956 0.36109 0.0
C4561 C 0.09653 0.08267 0.34852 0.0
C4562 C 0.13152 0.09831 0.35151 0.0
C4563 C 0.13376 0.09991 0.32908 0.0
H4564 H 0.11205 0.08922 0.37846 0.0
H4565 H 0.14366 0.10461 0.36168 0.0
S4566 S 0.09454 0.08316 0.28906 0.0
N4567 N 0.08308 0.07763 0.31257 0.0
N4568 N 0.11798 0.09344 0.29441 0.0
C4569 C 0.1173 0.09262 0.31623 0.0
C4570 C 0.0985 0.08404 0.32603 0.0
C4571 C 0.14796 0.88257 0.59799 0.0
C4572 C 0.13302 0.88054 0.58144 0.0
C4573 C 0.15698 0.86448 0.60832 0.0
C4574 C 0.15195 0.84376 0.60198 0.0
H4575 H 0.15153 0.89821 0.6041 0.0
H4576 H 0.16717 0.86671 0.62201 0.0
S4577 S 0.11441 0.82996 0.55891 0.0
N4578 N 0.11384 0.85636 0.55903 0.0
N4579 N 0.13175 0.82234 0.57745 0.0
C4580 C 0.13802 0.84159 0.58459 0.0
C4581 C 0.12827 0.85999 0.5746 0.0
C4582 C 0.368 0.91166 0.85532 0.0
C4583 C 0.38679 0.91407 0.84288 0.0
C4584 C 0.34967 0.90313 0.84652 0.0
C4585 C 0.349 0.89718 0.82496 0.0
H4586 H 0.36789 0.91472 0.8724 0.0
H4587 H 0.33618 0.89982 0.85689 0.0
S4588 S 0.39221 0.90414 0.78432 0.0
N4589 N 0.40259 0.91252 0.80689 0.0
N4590 N 0.36768 0.89656 0.79052 0.0
C4591 C 0.36699 0.90089 0.81183 0.0
C4592 C 0.3859 0.90951 0.82076 0.0
C4593 C 0.36211 0.10695 0.09763 0.0
C4594 C 0.35246 0.1002 0.07882 0.0
C4595 C 0.35479 0.12535 0.10804 0.0
C4596 C 0.33789 0.13815 0.09972 0.0
H4597 H 0.37528 0.09771 0.10456 0.0
H4598 H 0.36276 0.12972 0.12262 0.0
S4599 S 0.30812 0.12767 0.04998 0.0
N4600 N 0.32551 0.10741 0.05189 0.0
N4601 N 0.31229 0.14305 0.07083 0.0
C4602 C 0.32855 0.13192 0.08041 0.0
C4603 C 0.33571 0.11266 0.0701 0.0
C4604 C 0.11455 0.89058 0.15332 0.0
C4605 C 0.1344 0.89576 0.14402 0.0
C4606 C 0.09546 0.89995 0.14564 0.0
C4607 C 0.09555 0.91428 0.12789 0.0
H4608 H 0.11367 0.87828 0.16574 0.0
H4609 H 0.08048 0.8944 0.15242 0.0
S4610 S 0.14356 0.93405 0.09884 0.0
N4611 N 0.1532 0.91737 0.11731 0.0
N4612 N 0.1173 0.93435 0.10239 0.0
C4613 C 0.11541 0.92054 0.11937 0.0
C4614 C 0.13486 0.91142 0.12753 0.0
C4615 C 0.37073 0.86459 0.39219 0.0
C4616 C 0.35621 0.87983 0.40089 0.0
C4617 C 0.36346 0.84643 0.38201 0.0
C4618 C 0.34149 0.84266 0.38047 0.0
H4619 H 0.38781 0.86723 0.39207 0.0
H4620 H 0.3751 0.83556 0.37468 0.0
S4621 S 0.297 0.87617 0.40232 0.0
N4622 N 0.31881 0.88899 0.40858 0.0
N4623 N 0.3053 0.85453 0.38943 0.0
C4624 C 0.32681 0.85703 0.38991 0.0
C4625 C 0.33417 0.87567 0.40021 0.0
C4626 C 0.39021 0.0972 0.64683 0.0
C4627 C 0.39304 0.08407 0.62883 0.0
C4628 C 0.36964 0.10312 0.65411 0.0
C4629 C 0.35155 0.09603 0.64347 0.0
H4630 H 0.40383 0.10482 0.65377 0.0
H4631 H 0.36801 0.11501 0.66654 0.0
S4632 S 0.35083 0.05748 0.59891 0.0
N4633 N 0.3765 0.06147 0.60286 0.0
N4634 N 0.33768 0.07207 0.61689 0.0
C4635 C 0.35429 0.08079 0.62724 0.0
C4636 C 0.37517 0.07497 0.61974 0.0
C4637 C 0.15231 0.14753 0.90565 0.0
C4638 C 0.16303 0.15019 0.88579 0.0
C4639 C 0.14457 0.12756 0.91209 0.0
C4640 C 0.14755 0.10972 0.89892 0.0
H4641 H 0.14857 0.16129 0.91551 0.0
H4642 H 0.13535 0.12627 0.92691 0.0
S4643 S 0.17404 0.10852 0.84517 0.0
N4644 N 0.17615 0.13344 0.85302 0.0
N4645 N 0.16187 0.09589 0.8652 0.0
C4646 C 0.15915 0.11197 0.87951 0.0
C4647 C 0.16694 0.13225 0.87294 0.0
C4648 C 0.10074 0.33528 0.10078 0.0
C4649 C 0.0846 0.35143 0.10144 0.0
C4650 C 0.10939 0.32645 0.1197 0.0
C4651 C 0.10193 0.3331 0.13997 0.0
H4652 H 0.10771 0.33031 0.08555 0.0
H4653 H 0.12276 0.31515 0.11844 0.0
S4654 S 0.05892 0.37377 0.15058 0.0
N4655 N 0.06066 0.37276 0.12413 0.0
N4656 N 0.07663 0.35593 0.15961 0.0
C4657 C 0.08474 0.34808 0.14086 0.0
C4658 C 0.07609 0.35727 0.1216 0.0
C4659 C 0.57954 0.15509 0.85579 0.0
C4660 C 0.60058 0.15016 0.84902 0.0
C4661 C 0.57066 0.14466 0.87381 0.0
C4662 C 0.58234 0.12844 0.88464 0.0
H4663 H 0.56999 0.16696 0.84711 0.0
H4664 H 0.55468 0.14921 0.87928 0.0
S4665 S 0.6378 0.10944 0.87254 0.0
N4666 N 0.63288 0.1284 0.85438 0.0
N4667 N 0.61579 0.10796 0.88746 0.0
C4668 C 0.60326 0.12323 0.87774 0.0
C4669 C 0.6125 0.13433 0.86005 0.0
C4670 C 0.91083 0.86668 0.36539 0.0
C4671 C 0.90937 0.85336 0.38363 0.0
C4672 C 0.90386 0.85978 0.34562 0.0
C4673 C 0.89519 0.83945 0.34347 0.0
H4674 H 0.91496 0.88332 0.36691 0.0
H4675 H 0.90322 0.87122 0.33245 0.0
S4676 S 0.89354 0.7966 0.38513 0.0
N4677 N 0.90306 0.81743 0.39756 0.0
N4678 N 0.88979 0.80445 0.35995 0.0
C4679 C 0.89675 0.82483 0.36072 0.0
C4680 C 0.90397 0.83185 0.38102 0.0
C4681 C 0.87502 0.14277 0.10359 0.0
C4682 C 0.89724 0.14294 0.09968 0.0
C4683 C 0.8659 0.15258 0.12165 0.0
C4684 C 0.87866 0.16288 0.1366 0.0
H4685 H 0.86464 0.13411 0.09318 0.0
H4686 H 0.84886 0.1509 0.12448 0.0
S4687 S 0.93716 0.17101 0.13149 0.0
N4688 N 0.93146 0.15637 0.11056 0.0
N4689 N 0.9143 0.17503 0.1447 0.0
C4690 C 0.90073 0.16436 0.13208 0.0
C4691 C 0.91004 0.15425 0.11364 0.0
C4692 C 0.3932 0.66552 0.61679 0.0
C4693 C 0.39633 0.65337 0.6357 0.0
C4694 C 0.40249 0.65907 0.59725 0.0
C4695 C 0.415 0.6401 0.59592 0.0
H4696 H 0.38258 0.67948 0.61687 0.0
H4697 H 0.39855 0.66814 0.58279 0.0
S4698 S 0.42888 0.60306 0.64094 0.0
N4699 N 0.41395 0.6221 0.65209 0.0
N4700 N 0.4311 0.60992 0.61532 0.0
C4701 C 0.41956 0.62864 0.61495 0.0
C4702 C 0.41021 0.63526 0.63487 0.0
C4703 C 0.09076 0.6631 0.36281 0.0
C4704 C 0.1026 0.65004 0.34868 0.0
C4705 C 0.08141 0.65431 0.3815 0.0
C4706 C 0.08354 0.63226 0.38633 0.0
H4707 H 0.08891 0.6801 0.35952 0.0
H4708 H 0.07293 0.66487 0.39251 0.0
S4709 S 0.11496 0.59214 0.355 0.0
N4710 N 0.11735 0.61468 0.34115 0.0
N4711 N 0.09926 0.59795 0.37574 0.0
C4712 C 0.09528 0.61915 0.37205 0.0
C4713 C 0.10503 0.62814 0.35337 0.0
C4714 C 0.36924 0.33785 0.8681 0.0
C4715 C 0.38184 0.33118 0.85054 0.0
C4716 C 0.37866 0.34701 0.88577 0.0
C4717 C 0.40095 0.34926 0.88658 0.0
H4718 H 0.35193 0.33769 0.86742 0.0
H4719 H 0.36837 0.35329 0.89846 0.0
S4720 S 0.44096 0.33051 0.84626 0.0
N4721 N 0.4176 0.32497 0.83583 0.0
N4722 N 0.43557 0.34162 0.86974 0.0
C4723 C 0.41386 0.34098 0.86997 0.0
C4724 C 0.40419 0.33193 0.85176 0.0
C4725 C 0.8578 0.89303 0.63654 0.0
C4726 C 0.85609 0.8903 0.65894 0.0
C4727 C 0.87575 0.90228 0.62711 0.0
C4728 C 0.89251 0.90899 0.63986 0.0
H4729 H 0.84559 0.88706 0.62621 0.0
H4730 H 0.87721 0.9027 0.60972 0.0
S4731 S 0.89454 0.90786 0.69927 0.0
N4732 N 0.87153 0.89677 0.69375 0.0
N4733 N 0.90574 0.91418 0.67586 0.0
C4734 C 0.89053 0.90746 0.66231 0.0
C4735 C 0.87216 0.89803 0.67195 0.0
C4736 C 0.85902 0.14249 0.3985 0.0
C4737 C 0.83988 0.14358 0.38683 0.0
C4738 C 0.86807 0.12282 0.40526 0.0
C4739 C 0.85797 0.10346 0.4013 0.0
H4740 H 0.86791 0.15684 0.40114 0.0
H4741 H 0.88361 0.12271 0.41276 0.0
S4742 S 0.80634 0.09768 0.37346 0.0
N4743 N 0.81041 0.1237 0.37275 0.0
N4744 N 0.82682 0.08674 0.38644 0.0
C4745 C 0.838 0.10442 0.39105 0.0
C4746 C 0.82912 0.12446 0.38353 0.0
C4747 C 0.62253 0.0692 0.13773 0.0
C4748 C 0.60262 0.07675 0.14574 0.0
C4749 C 0.64169 0.07824 0.1441 0.0
C4750 C 0.64162 0.09533 0.15855 0.0
H4751 H 0.62331 0.0573 0.12526 0.0
H4752 H 0.65644 0.07302 0.13622 0.0
S4753 S 0.59434 0.11838 0.18725 0.0
N4754 N 0.58445 0.10002 0.17171 0.0
N4755 N 0.62047 0.1176 0.18278 0.0
C4756 C 0.62211 0.10173 0.16814 0.0
C4757 C 0.6026 0.09218 0.16207 0.0
C4758 C 0.66393 0.88851 0.89993 0.0
C4759 C 0.64634 0.88706 0.91435 0.0
C4760 C 0.67286 0.8703 0.89013 0.0
C4761 C 0.665 0.84994 0.89485 0.0
H4762 H 0.66979 0.90396 0.89477 0.0
H4763 H 0.68513 0.8723 0.87782 0.0
S4764 S 0.62195 0.83687 0.93432 0.0
N4765 N 0.62345 0.86316 0.93502 0.0
N4766 N 0.64053 0.82894 0.91687 0.0
C4767 C 0.64908 0.84797 0.91097 0.0
C4768 C 0.63973 0.86655 0.92073 0.0
C4769 C 0.87593 0.11642 0.84339 0.0
C4770 C 0.85911 0.10377 0.83648 0.0
C4771 C 0.89362 0.10718 0.85381 0.0
C4772 C 0.89551 0.08499 0.85718 0.0
H4773 H 0.87472 0.1337 0.84232 0.0
H4774 H 0.90543 0.11755 0.86033 0.0
S4775 S 0.85761 0.04447 0.83968 0.0
N4776 N 0.84655 0.06756 0.83197 0.0
N4777 N 0.88029 0.05032 0.85133 0.0
C4778 C 0.87971 0.07196 0.84912 0.0
C4779 C 0.86144 0.08134 0.83869 0.0
C4780 C 0.6389 0.12624 0.58005 0.0
C4781 C 0.64455 0.10612 0.58882 0.0
C4782 C 0.64644 0.14502 0.58896 0.0
C4783 C 0.6593 0.14435 0.60741 0.0
H4784 H 0.62787 0.12751 0.56679 0.0
H4785 H 0.64083 0.1602 0.58223 0.0
S4786 S 0.67909 0.09551 0.63609 0.0
N4787 N 0.66472 0.08651 0.61628 0.0
N4788 N 0.67811 0.12183 0.63349 0.0
C4789 C 0.66574 0.12427 0.61579 0.0
C4790 C 0.65853 0.10515 0.60639 0.0
C4791 C 0.62266 0.88922 0.33398 0.0
C4792 C 0.64076 0.89565 0.34504 0.0
C4793 C 0.60212 0.8958 0.34083 0.0
C4794 C 0.59933 0.90894 0.35888 0.0
H4795 H 0.6242 0.8774 0.32146 0.0
H4796 H 0.58844 0.88872 0.33345 0.0
S4797 S 0.64192 0.93407 0.38969 0.0
N4798 N 0.6549 0.91898 0.372 0.0
N4799 N 0.61621 0.93102 0.38512 0.0
C4800 C 0.61739 0.91743 0.3683 0.0
C4801 C 0.63821 0.91086 0.36128 0.0
C4802 C 0.86415 0.86582 0.10253 0.0
C4803 C 0.8496 0.88222 0.09684 0.0
C4804 C 0.85716 0.84543 0.10745 0.0
C4805 C 0.83541 0.84037 0.10646 0.0
H4806 H 0.88088 0.86918 0.10497 0.0
H4807 H 0.86873 0.83409 0.11397 0.0
S4808 S 0.79111 0.87722 0.09002 0.0
N4809 N 0.81265 0.89207 0.0887 0.0
N4810 N 0.79944 0.85302 0.0977 0.0
C4811 C 0.82076 0.85624 0.09935 0.0
C4812 C 0.82794 0.87731 0.09436 0.0
C4813 C 0.90544 0.6441 0.85288 0.0
C4814 C 0.88614 0.6561 0.85418 0.0
C4815 C 0.91607 0.63731 0.87151 0.0
C4816 C 0.90774 0.64244 0.89194 0.0
H4817 H 0.91131 0.63824 0.83754 0.0
H4818 H 0.92969 0.62638 0.86984 0.0
S4819 S 0.86052 0.67784 0.90345 0.0
N4820 N 0.86096 0.67562 0.87703 0.0
N4821 N 0.88149 0.66382 0.91213 0.0
C4822 C 0.88997 0.65671 0.89323 0.0
C4823 C 0.8789 0.66317 0.8743 0.0
C4824 C 0.40816 0.84376 0.10681 0.0
C4825 C 0.39719 0.86283 0.10079 0.0
C4826 C 0.40482 0.83436 0.12724 0.0
C4827 C 0.39076 0.84404 0.14217 0.0
H4828 H 0.41833 0.8354 0.09529 0.0
H4829 H 0.41276 0.81923 0.13114 0.0
S4830 S 0.35872 0.8942 0.13462 0.0
N4831 N 0.37242 0.89141 0.11193 0.0
N4832 N 0.36606 0.8736 0.1499 0.0
C4833 C 0.38042 0.86347 0.13666 0.0
C4834 C 0.38375 0.87297 0.11607 0.0
C4835 C 0.08874 0.12697 0.62465 0.0
C4836 C 0.08011 0.13776 0.60667 0.0
C4837 C 0.09871 0.13823 0.64078 0.0
C4838 C 0.10058 0.16062 0.63945 0.0
H4839 H 0.08942 0.10965 0.62551 0.0
H4840 H 0.10589 0.12915 0.65382 0.0
S4841 S 0.07477 0.19656 0.59897 0.0
N4842 N 0.06966 0.1722 0.59091 0.0
N4843 N 0.08878 0.1934 0.62113 0.0
C4844 C 0.0897 0.17172 0.62294 0.0
C4845 C 0.07932 0.16025 0.6066 0.0
C4846 C 0.08299 0.84064 0.85422 0.0
C4847 C 0.10335 0.83039 0.85435 0.0
C4848 C 0.07342 0.8484 0.87323 0.0
C4849 C 0.08382 0.84601 0.89303 0.0
H4850 H 0.07514 0.84429 0.83915 0.0
H4851 H 0.05863 0.85771 0.87208 0.0
S4852 S 0.13497 0.81618 0.90276 0.0
N4853 N 0.13199 0.81549 0.87645 0.0
N4854 N 0.11369 0.82929 0.91218 0.0
C4855 C 0.103 0.8337 0.89368 0.0
C4856 C 0.11288 0.82613 0.87434 0.0
C4857 C 0.61523 0.3578 0.36241 0.0
C4858 C 0.60754 0.33943 0.35257 0.0
C4859 C 0.60409 0.36747 0.37936 0.0
C4860 C 0.58524 0.35875 0.38771 0.0
H4861 H 0.62981 0.36515 0.35669 0.0
H4862 H 0.6107 0.38151 0.38653 0.0
S4863 S 0.55832 0.31081 0.36839 0.0
N4864 N 0.57948 0.31315 0.35229 0.0
N4865 N 0.55916 0.3308 0.38542 0.0
C4866 C 0.57723 0.34043 0.37831 0.0
C4867 C 0.58827 0.33087 0.36043 0.0
C4868 C 0.90252 0.33345 0.60591 0.0
C4869 C 0.91086 0.35417 0.60391 0.0
C4870 C 0.89661 0.32493 0.62607 0.0
C4871 C 0.89912 0.33685 0.64471 0.0
H4872 H 0.89871 0.32452 0.59175 0.0
H4873 H 0.88824 0.30996 0.6268 0.0
S4874 S 0.92561 0.38899 0.64882 0.0
N4875 N 0.9251 0.38439 0.62277 0.0
N4876 N 0.91461 0.36804 0.66061 0.0
C4877 C 0.91012 0.35615 0.6432 0.0
C4878 C 0.91583 0.36495 0.62277 0.0
C4879 C 0.57523 0.65264 0.11133 0.0
C4880 C 0.58288 0.6355 0.09887 0.0
C4881 C 0.58568 0.65794 0.13021 0.0
C4882 C 0.60409 0.64639 0.13655 0.0
H4883 H 0.56138 0.66209 0.10629 0.0
H4884 H 0.5792 0.67079 0.14001 0.0
S4885 S 0.63171 0.60189 0.10795 0.0
N4886 N 0.61048 0.60795 0.09339 0.0
N4887 N 0.63052 0.61842 0.12835 0.0
C4888 C 0.61219 0.62971 0.12384 0.0
C4889 C 0.60141 0.62407 0.10507 0.0
C4890 C 0.59622 0.60413 0.82801 0.0
C4891 C 0.59562 0.58354 0.83758 0.0
C4892 C 0.61528 0.61221 0.81951 0.0
C4893 C 0.63443 0.59996 0.82009 0.0
H4894 H 0.58233 0.61484 0.82862 0.0
H4895 H 0.61529 0.62879 0.81418 0.0
S4896 S 0.63965 0.54276 0.83678 0.0
N4897 N 0.61452 0.54944 0.84251 0.0
N4898 N 0.65033 0.56441 0.82604 0.0
C4899 C 0.63325 0.57828 0.82657 0.0
C4900 C 0.61384 0.57012 0.83548 0.0
C4901 C 0.63263 0.35038 0.09889 0.0
C4902 C 0.65483 0.34646 0.0994 0.0
C4903 C 0.62413 0.37061 0.09347 0.0
C4904 C 0.63742 0.38777 0.08806 0.0
H4905 H 0.62176 0.33807 0.10422 0.0
H4906 H 0.60698 0.37328 0.09508 0.0
S4907 S 0.6967 0.38539 0.08513 0.0
N4908 N 0.69007 0.36096 0.09281 0.0
N4909 N 0.67396 0.3991 0.08203 0.0
C4910 C 0.65965 0.38373 0.08699 0.0
C4911 C 0.6684 0.36306 0.09294 0.0
C4912 C 0.88475 0.38374 0.35253 0.0
C4913 C 0.88699 0.40579 0.34942 0.0
C4914 C 0.86708 0.37329 0.34478 0.0
C4915 C 0.85067 0.3846 0.3338 0.0
H4916 H 0.89665 0.37454 0.36144 0.0
H4917 H 0.86598 0.35633 0.34828 0.0
S4918 S 0.85017 0.44264 0.32007 0.0
N4919 N 0.87249 0.43865 0.33365 0.0
N4920 N 0.83874 0.41912 0.319 0.0
C4921 C 0.85315 0.40671 0.32995 0.0
C4922 C 0.87139 0.41733 0.33786 0.0
C4923 C 0.84547 0.63847 0.57322 0.0
C4924 C 0.83019 0.63733 0.59009 0.0
C4925 C 0.8537 0.61993 0.56344 0.0
C4926 C 0.8468 0.59967 0.57012 0.0
H4927 H 0.85246 0.6536 0.56868 0.0
H4928 H 0.86677 0.62142 0.55192 0.0
S4929 S 0.8037 0.58829 0.61012 0.0
N4930 N 0.8061 0.61452 0.6106 0.0
N4931 N 0.8212 0.57972 0.59189 0.0
C4932 C 0.82983 0.5985 0.58523 0.0
C4933 C 0.82163 0.61732 0.59534 0.0
C4934 C 0.62104 0.40523 0.65262 0.0
C4935 C 0.63502 0.38857 0.64602 0.0
C4936 C 0.60162 0.40938 0.64187 0.0
C4937 C 0.59601 0.39725 0.624 0.0
H4938 H 0.62488 0.4147 0.6664 0.0
H4939 H 0.5907 0.42162 0.648 0.0
S4940 S 0.62812 0.35237 0.60033 0.0
N4941 N 0.64227 0.36012 0.6208 0.0
N4942 N 0.60709 0.36869 0.59962 0.0
C4943 C 0.61065 0.38125 0.61679 0.0
C4944 C 0.6298 0.37667 0.6281 0.0
C4945 C 0.82212 0.35203 0.89812 0.0
C4946 C 0.82046 0.34826 0.87597 0.0
C4947 C 0.83074 0.37099 0.90547 0.0
C4948 C 0.83765 0.38667 0.89082 0.0
H4949 H 0.8182 0.33959 0.90975 0.0
H4950 H 0.83288 0.37297 0.92257 0.0
S4951 S 0.83781 0.38402 0.83133 0.0
N4952 N 0.82665 0.36165 0.83958 0.0
N4953 N 0.84285 0.39722 0.85336 0.0
C4954 C 0.83521 0.38352 0.86869 0.0
C4955 C 0.82643 0.36432 0.86124 0.0
C4956 C 0.85429 0.59131 0.1227 0.0
C4957 C 0.85124 0.59581 0.14463 0.0
C4958 C 0.87459 0.58657 0.11428 0.0
C4959 C 0.89255 0.58584 0.12751 0.0
H4960 H 0.84129 0.59343 0.11153 0.0
H4961 H 0.87651 0.58533 0.09699 0.0
S4962 S 0.8929 0.59395 0.18634 0.0
N4963 N 0.86752 0.59744 0.17974 0.0
N4964 N 0.90598 0.58811 0.16383 0.0
C4965 C 0.88957 0.58846 0.14974 0.0
C4966 C 0.86882 0.59366 0.15832 0.0
C4967 C 0.66561 0.60892 0.38753 0.0
C4968 C 0.65054 0.60702 0.40456 0.0
C4969 C 0.67085 0.62895 0.37897 0.0
C4970 C 0.66129 0.64758 0.38727 0.0
H4971 H 0.67188 0.59488 0.37937 0.0
H4972 H 0.68075 0.62969 0.36453 0.0
S4973 S 0.62526 0.65175 0.43483 0.0
N4974 N 0.62934 0.62575 0.43177 0.0
N4975 N 0.63926 0.66351 0.41548 0.0
C4976 C 0.64823 0.64612 0.40572 0.0
C4977 C 0.64285 0.62576 0.41446 0.0
C4978 C 0.60028 0.82285 0.61746 0.0
C4979 C 0.59777 0.83323 0.63722 0.0
C4980 C 0.59139 0.83165 0.59867 0.0
C4981 C 0.57988 0.85129 0.59892 0.0
H4982 H 0.61011 0.80839 0.61631 0.0
H4983 H 0.59469 0.82367 0.58361 0.0
S4984 S 0.56819 0.88455 0.64677 0.0
N4985 N 0.58212 0.86375 0.65613 0.0
N4986 N 0.56555 0.88032 0.62085 0.0
C4987 C 0.57609 0.86116 0.61883 0.0
C4988 C 0.58507 0.85214 0.63798 0.0
C4989 C 0.37895 0.41382 0.14848 0.0
C4990 C 0.39358 0.40311 0.13478 0.0
C4991 C 0.35908 0.40473 0.15378 0.0
C4992 C 0.35348 0.3849 0.14525 0.0
H4993 H 0.38272 0.42932 0.15474 0.0
H4994 H 0.34768 0.4137 0.16358 0.0
S4995 S 0.38598 0.35148 0.10792 0.0
N4996 N 0.40081 0.37229 0.11251 0.0
N4997 N 0.36424 0.35502 0.12279 0.0
C4998 C 0.36834 0.37402 0.13206 0.0
C4999 C 0.38817 0.38323 0.12666 0.0
C5000 C 0.35765 0.62249 0.90639 0.0
C5001 C 0.34986 0.60249 0.90065 0.0
C5002 C 0.34859 0.64162 0.89816 0.0
C5003 C 0.33181 0.64148 0.88331 0.0
H5004 H 0.37174 0.62331 0.91627 0.0
H5005 H 0.35599 0.65653 0.90209 0.0
S5006 S 0.30506 0.5934 0.86375 0.0
N5007 N 0.32349 0.58375 0.88028 0.0
N5008 N 0.30712 0.6197 0.86397 0.0
C5009 C 0.32328 0.62165 0.87812 0.0
C5010 C 0.3321 0.60217 0.88704 0.0
C5011 C 0.11569 0.57703 0.65242 0.0
C5012 C 0.10356 0.58157 0.63399 0.0
C5013 C 0.13465 0.58805 0.65618 0.0
C5014 C 0.14148 0.60443 0.64202 0.0
H5015 H 0.1106 0.56484 0.66382 0.0
H5016 H 0.14403 0.58363 0.67013 0.0
S5017 S 0.1134 0.62352 0.59263 0.0
N5018 N 0.09894 0.60367 0.60201 0.0
N5019 N 0.13317 0.62554 0.60965 0.0
C5020 C 0.12863 0.60966 0.62409 0.0
C5021 C 0.11004 0.5979 0.61992 0.0
C5022 C 0.1544 0.37611 0.41339 0.0
C5023 C 0.14047 0.392 0.40504 0.0
C5024 C 0.15711 0.35634 0.40302 0.0
C5025 C 0.14576 0.35192 0.3842 0.0
H5026 H 0.163 0.37888 0.42803 0.0
H5027 H 0.16758 0.34424 0.41018 0.0
S5028 S 0.10682 0.38871 0.35684 0.0
N5029 N 0.1151 0.40225 0.37748 0.0
N5030 N 0.12009 0.36561 0.35786 0.0
C5031 C 0.13203 0.36807 0.37572 0.0
C5032 C 0.12936 0.38796 0.38623 0.0
C5033 C 0.38591 0.5855 0.3472 0.0
C5034 C 0.39332 0.59888 0.36335 0.0
C5035 C 0.36629 0.58999 0.33698 0.0
C5036 C 0.35388 0.6083 0.34215 0.0
H5037 H 0.39536 0.57163 0.3423 0.0
H5038 H 0.36087 0.5792 0.32487 0.0
S5039 S 0.36513 0.64781 0.38406 0.0
N5040 N 0.38543 0.6305 0.38501 0.0
N5041 N 0.34968 0.63935 0.36486 0.0
C5042 C 0.36095 0.62166 0.35831 0.0
C5043 C 0.38037 0.61682 0.36917 0.0
C5044 C 0.14725 0.62338 0.07813 0.0
C5045 C 0.14462 0.60523 0.09143 0.0
C5046 C 0.15059 0.6435 0.08708 0.0
C5047 C 0.15084 0.64593 0.1095 0.0
H5048 H 0.14575 0.62217 0.06088 0.0
H5049 H 0.15112 0.65743 0.07652 0.0
S5050 S 0.14422 0.60364 0.15108 0.0
N5051 N 0.14266 0.5911 0.12804 0.0
N5052 N 0.14857 0.62886 0.14463 0.0
C5053 C 0.14904 0.62783 0.12281 0.0
C5054 C 0.14594 0.60745 0.11382 0.0
C5055 C 0.12014 0.42191 0.85829 0.0
C5056 C 0.10191 0.41194 0.85072 0.0
C5057 C 0.14054 0.41552 0.85122 0.0
C5058 C 0.14333 0.39883 0.83652 0.0
H5059 H 0.11879 0.43335 0.87117 0.0
H5060 H 0.15425 0.42218 0.85895 0.0
S5061 S 0.10065 0.37123 0.80791 0.0
N5062 N 0.08774 0.38754 0.82451 0.0
N5063 N 0.12635 0.37535 0.81146 0.0
C5064 C 0.12526 0.39087 0.82652 0.0
C5065 C 0.10438 0.39746 0.83364 0.0
C5066 C 0.31607 0.35936 0.59167 0.0
C5067 C 0.32274 0.35466 0.61272 0.0
C5068 C 0.32464 0.37665 0.5801 0.0
C5069 C 0.34043 0.38907 0.58923 0.0
H5070 H 0.30479 0.3492 0.58393 0.0
H5071 H 0.31933 0.38001 0.56387 0.0
S5072 S 0.36527 0.38119 0.64253 0.0
N5073 N 0.34727 0.36237 0.64132 0.0
N5074 N 0.36301 0.39512 0.61988 0.0
C5075 C 0.34712 0.38449 0.61024 0.0
C5076 C 0.33842 0.36709 0.62192 0.0
C5077 C 0.38566 0.12689 0.37241 0.0
C5078 C 0.40368 0.13462 0.38268 0.0
C5079 C 0.3758 0.1386 0.35582 0.0
C5080 C 0.38418 0.15798 0.34815 0.0
H5081 H 0.37885 0.11184 0.37754 0.0
H5082 H 0.36157 0.13231 0.34876 0.0
S5083 S 0.43169 0.18467 0.36907 0.0
N5084 N 0.42963 0.16281 0.38421 0.0
N5085 N 0.41188 0.18421 0.35175 0.0
C5086 C 0.40258 0.16564 0.35785 0.0
C5087 C 0.4122 0.15405 0.37542 0.0
loop_
_geom_bond_atom_site_label_1
_geom_bond_atom_site_label_2
_geom_bond_distance
_geom_bond_site_symmetry_2
_ccdc_geom_bond_type
Zn0 O6 1.969 . S
Zn0 O7 1.965 . S
Zn0 O11 2.024 . S
Zn0 O16 1.969 . S
Zn1 O8 1.969 1_655 S
Zn1 O14 1.969 . S
Zn1 O15 1.965 1_655 S
Zn1 O17 2.024 . S
C2 O3 1.229 . S
C2 O11 1.058 . S
O3 C2 1.229 . S
C4 O5 1.229 . S
C4 O17 1.058 . S
O5 C4 1.229 . S
O6 Zn0 1.969 . S
O6 C9 1.267 . S
O7 Zn0 1.965 . S
O7 C18 1.260 . S
O8 Zn1 1.969 1_455 S
O8 C18 1.258 . S
C9 O6 1.267 . S
C9 O10 1.228 . S
O10 C9 1.228 . S
O11 Zn0 2.024 . S
O11 C2 1.058 . S
C12 O13 1.228 . S
C12 O14 1.267 . S
O13 C12 1.228 . S
O14 Zn1 1.969 . S
O14 C12 1.267 . S
O15 Zn1 1.965 1_455 S
O15 C19 1.260 . S
O16 Zn0 1.969 . S
O16 C19 1.258 . S
O17 Zn1 2.024 . S
O17 C4 1.058 . S
C18 O7 1.260 . S
C18 O8 1.258 . S
C19 O15 1.260 . S
C19 O16 1.258 . S
Zn20 O26 1.969 . S
Zn20 O27 1.965 . S
Zn20 O31 2.024 . S
Zn20 O36 1.969 . S
Zn21 O28 1.969 . S
Zn21 O34 1.969 . S
Zn21 O35 1.965 . S
Zn21 O37 2.024 . S
C22 O23 1.229 . S
C22 O31 1.058 . S
O23 C22 1.229 . S
C24 O25 1.229 . S
C24 O37 1.058 . S
O25 C24 1.229 . S
O26 Zn20 1.969 . S
O26 C29 1.267 . S
O27 Zn20 1.965 . S
O27 C38 1.260 . S
O28 Zn21 1.969 . S
O28 C38 1.258 . S
C29 O26 1.267 . S
C29 O30 1.228 . S
O30 C29 1.228 . S
O31 Zn20 2.024 . S
O31 C22 1.058 . S
C32 O33 1.228 . S
C32 O34 1.267 . S
O33 C32 1.228 . S
O34 Zn21 1.969 . S
O34 C32 1.267 . S
O35 Zn21 1.965 . S
O35 C39 1.260 . S
O36 Zn20 1.969 . S
O36 C39 1.258 . S
O37 Zn21 2.024 . S
O37 C24 1.058 . S
C38 O27 1.260 . S
C38 O28 1.258 . S
C39 O35 1.260 . S
C39 O36 1.258 . S
Zn40 O46 1.969 . S
Zn40 O47 1.965 . S
Zn40 O51 2.024 . S
Zn40 O56 1.969 . S
Zn41 O48 1.969 . S
Zn41 O54 1.969 . S
Zn41 O55 1.965 . S
Zn41 O57 2.024 . S
C42 O43 1.229 . S
C42 O51 1.058 . S
O43 C42 1.229 . S
C44 O45 1.229 . S
C44 O57 1.058 . S
O45 C44 1.229 . S
O46 Zn40 1.969 . S
O46 C49 1.267 . S
O47 Zn40 1.965 . S
O47 C58 1.260 . S
O48 Zn41 1.969 . S
O48 C58 1.258 . S
C49 O46 1.267 . S
C49 O50 1.228 . S
O50 C49 1.228 . S
O51 Zn40 2.024 . S
O51 C42 1.058 . S
C52 O53 1.228 . S
C52 O54 1.267 . S
O53 C52 1.228 . S
O54 Zn41 1.969 . S
O54 C52 1.267 . S
O55 Zn41 1.965 . S
O55 C59 1.260 . S
O56 Zn40 1.969 . S
O56 C59 1.258 . S
O57 Zn41 2.024 . S
O57 C44 1.058 . S
C58 O47 1.260 . S
C58 O48 1.258 . S
C59 O55 1.260 . S
C59 O56 1.258 . S
Zn60 O66 1.969 . S
Zn60 O67 1.965 . S
Zn60 O71 2.024 . S
Zn60 O76 1.969 . S
Zn61 O68 1.969 . S
Zn61 O74 1.969 . S
Zn61 O75 1.965 . S
Zn61 O77 2.024 . S
C62 O63 1.229 . S
C62 O71 1.058 . S
O63 C62 1.229 . S
C64 O65 1.229 . S
C64 O77 1.058 . S
O65 C64 1.229 . S
O66 Zn60 1.969 . S
O66 C69 1.267 . S
O67 Zn60 1.965 . S
O67 C78 1.260 . S
O68 Zn61 1.969 . S
O68 C78 1.258 . S
C69 O66 1.267 . S
C69 O70 1.228 . S
O70 C69 1.228 . S
O71 Zn60 2.024 . S
O71 C62 1.058 . S
C72 O73 1.228 . S
C72 O74 1.267 . S
O73 C72 1.228 . S
O74 Zn61 1.969 . S
O74 C72 1.267 . S
O75 Zn61 1.965 . S
O75 C79 1.260 . S
O76 Zn60 1.969 . S
O76 C79 1.258 . S
O77 Zn61 2.024 . S
O77 C64 1.058 . S
C78 O67 1.260 . S
C78 O68 1.258 . S
C79 O75 1.260 . S
C79 O76 1.258 . S
Zn80 O86 1.969 . S
Zn80 O87 1.965 . S
Zn80 O91 2.024 . S
Zn80 O96 1.969 1_655 S
Zn81 O88 1.969 . S
Zn81 O94 1.969 . S
Zn81 O95 1.965 . S
Zn81 O97 2.024 . S
C82 O83 1.229 . S
C82 O91 1.058 . S
O83 C82 1.229 . S
C84 O85 1.229 . S
C84 O97 1.058 . S
O85 C84 1.229 . S
O86 Zn80 1.969 . S
O86 C89 1.267 . S
O87 Zn80 1.965 . S
O87 C98 1.259 . S
O88 Zn81 1.969 . S
O88 C98 1.261 1_455 S
C89 O86 1.267 . S
C89 O90 1.228 . S
O90 C89 1.228 . S
O91 Zn80 2.024 . S
O91 C82 1.058 . S
C92 O93 1.228 . S
C92 O94 1.267 . S
O93 C92 1.228 . S
O94 Zn81 1.969 . S
O94 C92 1.267 . S
O95 Zn81 1.965 . S
O95 C99 1.260 . S
O96 Zn80 1.969 1_455 S
O96 C99 1.258 . S
O97 Zn81 2.024 . S
O97 C84 1.058 . S
C98 O87 1.259 . S
C98 O88 1.261 1_655 S
C99 O95 1.260 . S
C99 O96 1.258 . S
Zn100 O106 1.969 . S
Zn100 O107 1.965 . S
Zn100 O111 2.024 . S
Zn100 O116 1.969 . S
Zn101 O108 1.969 . S
Zn101 O114 1.969 . S
Zn101 O115 1.965 . S
Zn101 O117 2.024 . S
C102 O103 1.229 . S
C102 O111 1.058 . S
O103 C102 1.229 . S
C104 O105 1.229 . S
C104 O117 1.058 . S
O105 C104 1.229 . S
O106 Zn100 1.969 . S
O106 C109 1.267 . S
O107 Zn100 1.965 . S
O107 C118 1.260 . S
O108 Zn101 1.969 . S
O108 C118 1.258 . S
C109 O106 1.267 . S
C109 O110 1.228 . S
O110 C109 1.228 . S
O111 Zn100 2.024 . S
O111 C102 1.058 . S
C112 O113 1.228 . S
C112 O114 1.267 . S
O113 C112 1.228 . S
O114 Zn101 1.969 . S
O114 C112 1.267 . S
O115 Zn101 1.965 . S
O115 C119 1.260 . S
O116 Zn100 1.969 . S
O116 C119 1.258 . S
O117 Zn101 2.024 . S
O117 C104 1.058 . S
C118 O107 1.260 . S
C118 O108 1.258 . S
C119 O115 1.260 . S
C119 O116 1.258 . S
Zn120 O126 1.969 . S
Zn120 O127 1.965 . S
Zn120 O131 2.024 . S
Zn120 O136 1.969 . S
Zn121 O128 1.969 . S
Zn121 O134 1.969 . S
Zn121 O135 1.965 . S
Zn121 O137 2.024 . S
C122 O123 1.229 . S
C122 O131 1.058 . S
O123 C122 1.229 . S
C124 O125 1.229 . S
C124 O137 1.058 . S
O125 C124 1.229 . S
O126 Zn120 1.969 . S
O126 C129 1.267 . S
O127 Zn120 1.965 . S
O127 C138 1.260 . S
O128 Zn121 1.969 . S
O128 C138 1.258 . S
C129 O126 1.267 . S
C129 O130 1.228 . S
O130 C129 1.228 . S
O131 Zn120 2.024 . S
O131 C122 1.058 . S
C132 O133 1.228 . S
C132 O134 1.267 . S
O133 C132 1.228 . S
O134 Zn121 1.969 . S
O134 C132 1.267 . S
O135 Zn121 1.965 . S
O135 C139 1.260 . S
O136 Zn120 1.969 . S
O136 C139 1.258 . S
O137 Zn121 2.024 . S
O137 C124 1.058 . S
C138 O127 1.260 . S
C138 O128 1.258 . S
C139 O135 1.260 . S
C139 O136 1.258 . S
Zn140 O146 1.969 . S
Zn140 O147 1.965 . S
Zn140 O151 2.024 . S
Zn140 O156 1.969 . S
Zn141 O148 1.969 . S
Zn141 O154 1.969 . S
Zn141 O155 1.965 . S
Zn141 O157 2.024 . S
C142 O143 1.229 . S
C142 O151 1.058 . S
O143 C142 1.229 . S
C144 O145 1.229 . S
C144 O157 1.058 . S
O145 C144 1.229 . S
O146 Zn140 1.969 . S
O146 C149 1.267 . S
O147 Zn140 1.965 . S
O147 C158 1.260 . S
O148 Zn141 1.969 . S
O148 C158 1.258 . S
C149 O146 1.267 . S
C149 O150 1.228 . S
O150 C149 1.228 . S
O151 Zn140 2.024 . S
O151 C142 1.058 . S
C152 O153 1.228 . S
C152 O154 1.267 . S
O153 C152 1.228 . S
O154 Zn141 1.969 . S
O154 C152 1.267 . S
O155 Zn141 1.965 . S
O155 C159 1.260 . S
O156 Zn140 1.969 . S
O156 C159 1.258 . S
O157 Zn141 2.024 . S
O157 C144 1.058 . S
C158 O147 1.260 . S
C158 O148 1.258 . S
C159 O155 1.260 . S
C159 O156 1.258 . S
Zn160 O166 1.969 . S
Zn160 O167 1.965 . S
Zn160 O171 2.024 . S
Zn160 O176 1.969 . S
Zn161 O168 1.969 1_565 S
Zn161 O174 1.969 . S
Zn161 O175 1.965 1_565 S
Zn161 O177 2.024 . S
C162 O163 1.229 . S
C162 O171 1.058 . S
O163 C162 1.229 . S
C164 O165 1.229 . S
C164 O177 1.058 . S
O165 C164 1.229 . S
O166 Zn160 1.969 . S
O166 C169 1.267 . S
O167 Zn160 1.965 . S
O167 C178 1.260 . S
O168 Zn161 1.969 1_545 S
O168 C178 1.258 . S
C169 O166 1.267 . S
C169 O170 1.228 . S
O170 C169 1.228 . S
O171 Zn160 2.024 . S
O171 C162 1.058 . S
C172 O173 1.228 . S
C172 O174 1.267 . S
O173 C172 1.228 . S
O174 Zn161 1.969 . S
O174 C172 1.267 . S
O175 Zn161 1.965 1_545 S
O175 C179 1.260 . S
O176 Zn160 1.969 . S
O176 C179 1.258 . S
O177 Zn161 2.024 . S
O177 C164 1.058 . S
C178 O167 1.260 . S
C178 O168 1.258 . S
C179 O175 1.260 . S
C179 O176 1.258 . S
Zn180 O186 1.969 . S
Zn180 O187 1.965 . S
Zn180 O191 2.024 . S
Zn180 O196 1.969 . S
Zn181 O188 1.969 . S
Zn181 O194 1.969 . S
Zn181 O195 1.965 . S
Zn181 O197 2.024 . S
C182 O183 1.229 . S
C182 O191 1.058 . S
O183 C182 1.229 . S
C184 O185 1.229 . S
C184 O197 1.058 . S
O185 C184 1.229 . S
O186 Zn180 1.969 . S
O186 C189 1.267 . S
O187 Zn180 1.965 . S
O187 C198 1.260 . S
O188 Zn181 1.969 . S
O188 C198 1.258 . S
C189 O186 1.267 . S
C189 O190 1.228 . S
O190 C189 1.228 . S
O191 Zn180 2.024 . S
O191 C182 1.058 . S
C192 O193 1.228 . S
C192 O194 1.267 . S
O193 C192 1.228 . S
O194 Zn181 1.969 . S
O194 C192 1.267 . S
O195 Zn181 1.965 . S
O195 C199 1.260 . S
O196 Zn180 1.969 . S
O196 C199 1.258 . S
O197 Zn181 2.024 . S
O197 C184 1.058 . S
C198 O187 1.260 . S
C198 O188 1.258 . S
C199 O195 1.260 . S
C199 O196 1.258 . S
Zn200 O206 1.969 . S
Zn200 O207 1.973 . S
Zn200 O211 2.024 . S
Zn200 O216 1.969 1_545 S
Zn201 O208 1.969 . S
Zn201 O214 1.969 . S
Zn201 O215 1.965 . S
Zn201 O217 2.024 . S
C202 O203 1.229 . S
C202 O211 1.058 . S
O203 C202 1.229 . S
C204 O205 1.229 . S
C204 O217 1.058 . S
O205 C204 1.229 . S
O206 Zn200 1.969 . S
O206 C209 1.267 . S
O207 Zn200 1.973 . S
O207 C218 1.247 1_545 S
O208 Zn201 1.969 . S
O208 C218 1.258 . S
C209 O206 1.267 . S
C209 O210 1.228 . S
O210 C209 1.228 . S
O211 Zn200 2.024 . S
O211 C202 1.058 . S
C212 O213 1.228 . S
C212 O214 1.267 . S
O213 C212 1.228 . S
O214 Zn201 1.969 . S
O214 C212 1.267 . S
O215 Zn201 1.965 . S
O215 C219 1.260 . S
O216 Zn200 1.969 1_565 S
O216 C219 1.258 . S
O217 Zn201 2.024 . S
O217 C204 1.058 . S
C218 O207 1.247 1_565 S
C218 O208 1.258 . S
C219 O215 1.260 . S
C219 O216 1.258 . S
Zn220 O226 1.969 . S
Zn220 O227 1.965 . S
Zn220 O231 2.024 . S
Zn220 O236 1.969 . S
Zn221 O228 1.969 . S
Zn221 O234 1.969 . S
Zn221 O235 1.965 . S
Zn221 O237 2.024 . S
C222 O223 1.229 . S
C222 O231 1.058 . S
O223 C222 1.229 . S
C224 O225 1.229 . S
C224 O237 1.058 . S
O225 C224 1.229 . S
O226 Zn220 1.969 . S
O226 C229 1.267 . S
O227 Zn220 1.965 . S
O227 C238 1.260 . S
O228 Zn221 1.969 . S
O228 C238 1.258 . S
C229 O226 1.267 . S
C229 O230 1.228 . S
O230 C229 1.228 . S
O231 Zn220 2.024 . S
O231 C222 1.058 . S
C232 O233 1.228 . S
C232 O234 1.267 . S
O233 C232 1.228 . S
O234 Zn221 1.969 . S
O234 C232 1.267 . S
O235 Zn221 1.965 . S
O235 C239 1.260 . S
O236 Zn220 1.969 . S
O236 C239 1.258 . S
O237 Zn221 2.024 . S
O237 C224 1.058 . S
C238 O227 1.260 . S
C238 O228 1.258 . S
C239 O235 1.260 . S
C239 O236 1.258 . S
Zn240 O246 1.969 . S
Zn240 O247 1.960 1_545 S
Zn240 O251 2.024 . S
Zn240 O256 1.969 1_545 S
Zn241 O248 1.969 . S
Zn241 O254 1.969 . S
Zn241 O255 1.965 . S
Zn241 O257 2.024 . S
C242 O243 1.229 . S
C242 O251 1.058 . S
O243 C242 1.229 . S
C244 O245 1.229 . S
C244 O257 1.058 . S
O245 C244 1.229 . S
O246 Zn240 1.969 . S
O246 C249 1.267 . S
O247 Zn240 1.960 1_565 S
O247 C258 1.268 . S
O248 Zn241 1.969 . S
O248 C258 1.258 . S
C249 O246 1.267 . S
C249 O250 1.228 . S
O250 C249 1.228 . S
O251 Zn240 2.024 . S
O251 C242 1.058 . S
C252 O253 1.228 . S
C252 O254 1.267 . S
O253 C252 1.228 . S
O254 Zn241 1.969 . S
O254 C252 1.267 . S
O255 Zn241 1.965 . S
O255 C259 1.260 . S
O256 Zn240 1.969 1_565 S
O256 C259 1.258 . S
O257 Zn241 2.024 . S
O257 C244 1.058 . S
C258 O247 1.268 . S
C258 O248 1.258 . S
C259 O255 1.260 . S
C259 O256 1.258 . S
Zn260 O266 1.969 . S
Zn260 O267 1.965 . S
Zn260 O271 2.024 . S
Zn260 O276 1.969 . S
Zn261 O268 1.969 . S
Zn261 O274 1.969 . S
Zn261 O275 1.965 . S
Zn261 O277 2.024 . S
C262 O263 1.229 . S
C262 O271 1.058 . S
O263 C262 1.229 . S
C264 O265 1.229 . S
C264 O277 1.058 . S
O265 C264 1.229 . S
O266 Zn260 1.969 . S
O266 C269 1.267 . S
O267 Zn260 1.965 . S
O267 C278 1.260 . S
O268 Zn261 1.969 . S
O268 C278 1.258 . S
C269 O266 1.267 . S
C269 O270 1.228 . S
O270 C269 1.228 . S
O271 Zn260 2.024 . S
O271 C262 1.058 . S
C272 O273 1.228 . S
C272 O274 1.267 . S
O273 C272 1.228 . S
O274 Zn261 1.969 . S
O274 C272 1.267 . S
O275 Zn261 1.965 . S
O275 C279 1.260 . S
O276 Zn260 1.969 . S
O276 C279 1.258 . S
O277 Zn261 2.024 . S
O277 C264 1.058 . S
C278 O267 1.260 . S
C278 O268 1.258 . S
C279 O275 1.260 . S
C279 O276 1.258 . S
Zn280 O286 1.969 . S
Zn280 O287 1.965 1_565 S
Zn280 O291 2.024 . S
Zn280 O296 1.969 1_565 S
Zn281 O288 1.969 . S
Zn281 O294 1.969 . S
Zn281 O295 1.965 . S
Zn281 O297 2.024 . S
C282 O283 1.229 . S
C282 O291 1.058 . S
O283 C282 1.229 . S
C284 O285 1.229 . S
C284 O297 1.058 . S
O285 C284 1.229 . S
O286 Zn280 1.969 . S
O286 C289 1.267 . S
O287 Zn280 1.965 1_545 S
O287 C298 1.260 . S
O288 Zn281 1.969 . S
O288 C298 1.258 . S
C289 O286 1.267 . S
C289 O290 1.228 . S
O290 C289 1.228 . S
O291 Zn280 2.024 . S
O291 C282 1.058 . S
C292 O293 1.228 . S
C292 O294 1.267 . S
O293 C292 1.228 . S
O294 Zn281 1.969 . S
O294 C292 1.267 . S
O295 Zn281 1.965 . S
O295 C299 1.260 . S
O296 Zn280 1.969 1_545 S
O296 C299 1.258 . S
O297 Zn281 2.024 . S
O297 C284 1.058 . S
C298 O287 1.260 . S
C298 O288 1.258 . S
C299 O295 1.260 . S
C299 O296 1.258 . S
Zn300 O306 1.969 . S
Zn300 O307 1.965 . S
Zn300 O311 2.024 . S
Zn300 O316 1.969 . S
Zn301 O308 1.969 . S
Zn301 O314 1.969 . S
Zn301 O315 1.965 . S
Zn301 O317 2.024 . S
C302 O303 1.229 . S
C302 O311 1.058 . S
O303 C302 1.229 . S
C304 O305 1.229 . S
C304 O317 1.058 . S
O305 C304 1.229 . S
O306 Zn300 1.969 . S
O306 C309 1.267 . S
O307 Zn300 1.965 . S
O307 C318 1.260 . S
O308 Zn301 1.969 . S
O308 C318 1.258 . S
C309 O306 1.267 . S
C309 O310 1.228 . S
O310 C309 1.228 . S
O311 Zn300 2.024 . S
O311 C302 1.058 . S
C312 O313 1.228 . S
C312 O314 1.267 . S
O313 C312 1.228 . S
O314 Zn301 1.969 . S
O314 C312 1.267 . S
O315 Zn301 1.965 . S
O315 C319 1.260 . S
O316 Zn300 1.969 . S
O316 C319 1.258 . S
O317 Zn301 2.024 . S
O317 C304 1.058 . S
C318 O307 1.260 . S
C318 O308 1.258 . S
C319 O315 1.260 . S
C319 O316 1.258 . S
Zn320 O326 1.969 . S
Zn320 O327 1.965 . S
Zn320 O331 2.024 . S
Zn320 O336 1.969 . S
Zn321 O328 1.969 1_556 S
Zn321 O334 1.969 . S
Zn321 O335 1.965 1_556 S
Zn321 O337 2.024 . S
C322 O323 1.229 . S
C322 O331 1.058 . S
O323 C322 1.229 . S
C324 O325 1.229 . S
C324 O337 1.058 . S
O325 C324 1.229 . S
O326 Zn320 1.969 . S
O326 C329 1.267 . S
O327 Zn320 1.965 . S
O327 C338 1.260 . S
O328 Zn321 1.969 1_554 S
O328 C338 1.258 . S
C329 O326 1.267 . S
C329 O330 1.228 . S
O330 C329 1.228 . S
O331 Zn320 2.024 . S
O331 C322 1.058 . S
C332 O333 1.228 . S
C332 O334 1.267 . S
O333 C332 1.228 . S
O334 Zn321 1.969 . S
O334 C332 1.267 . S
O335 Zn321 1.965 1_554 S
O335 C339 1.260 . S
O336 Zn320 1.969 . S
O336 C339 1.258 . S
O337 Zn321 2.024 . S
O337 C324 1.058 . S
C338 O327 1.260 . S
C338 O328 1.258 . S
C339 O335 1.260 . S
C339 O336 1.258 . S
Zn340 O346 1.969 . S
Zn340 O347 1.965 . S
Zn340 O351 2.024 . S
Zn340 O356 1.969 1_554 S
Zn341 O348 1.969 . S
Zn341 O354 1.969 . S
Zn341 O355 1.965 . S
Zn341 O357 2.024 . S
C342 O343 1.229 . S
C342 O351 1.058 . S
O343 C342 1.229 . S
C344 O345 1.229 . S
C344 O357 1.058 . S
O345 C344 1.229 . S
O346 Zn340 1.969 . S
O346 C349 1.267 . S
O347 Zn340 1.965 . S
O347 C358 1.260 1_554 S
O348 Zn341 1.969 . S
O348 C358 1.258 . S
C349 O346 1.267 . S
C349 O350 1.228 . S
O350 C349 1.228 . S
O351 Zn340 2.024 . S
O351 C342 1.058 . S
C352 O353 1.228 . S
C352 O354 1.267 . S
O353 C352 1.228 . S
O354 Zn341 1.969 . S
O354 C352 1.267 . S
O355 Zn341 1.965 . S
O355 C359 1.260 . S
O356 Zn340 1.969 1_556 S
O356 C359 1.258 . S
O357 Zn341 2.024 . S
O357 C344 1.058 . S
C358 O347 1.260 1_556 S
C358 O348 1.258 . S
C359 O355 1.260 . S
C359 O356 1.258 . S
Zn360 O366 1.969 . S
Zn360 O367 1.965 . S
Zn360 O371 2.024 . S
Zn360 O376 1.969 . S
Zn361 O368 1.969 . S
Zn361 O374 1.969 . S
Zn361 O375 1.965 . S
Zn361 O377 2.024 . S
C362 O363 1.229 . S
C362 O371 1.058 . S
O363 C362 1.229 . S
C364 O365 1.229 . S
C364 O377 1.058 . S
O365 C364 1.229 . S
O366 Zn360 1.969 . S
O366 C369 1.267 . S
O367 Zn360 1.965 . S
O367 C378 1.260 . S
O368 Zn361 1.969 . S
O368 C378 1.258 . S
C369 O366 1.267 . S
C369 O370 1.228 . S
O370 C369 1.228 . S
O371 Zn360 2.024 . S
O371 C362 1.058 . S
C372 O373 1.228 . S
C372 O374 1.267 . S
O373 C372 1.228 . S
O374 Zn361 1.969 . S
O374 C372 1.267 . S
O375 Zn361 1.965 . S
O375 C379 1.260 . S
O376 Zn360 1.969 . S
O376 C379 1.258 . S
O377 Zn361 2.024 . S
O377 C364 1.058 . S
C378 O367 1.260 . S
C378 O368 1.258 . S
C379 O375 1.260 . S
C379 O376 1.258 . S
Zn380 O386 1.969 . S
Zn380 O387 1.965 . S
Zn380 O391 2.024 . S
Zn380 O396 1.969 . S
Zn381 O388 1.969 . S
Zn381 O394 1.969 . S
Zn381 O395 1.965 . S
Zn381 O397 2.024 . S
C382 O383 1.229 . S
C382 O391 1.058 . S
O383 C382 1.229 . S
C384 O385 1.229 . S
C384 O397 1.058 . S
O385 C384 1.229 . S
O386 Zn380 1.969 . S
O386 C389 1.267 . S
O387 Zn380 1.965 . S
O387 C398 1.260 . S
O388 Zn381 1.969 . S
O388 C398 1.258 . S
C389 O386 1.267 . S
C389 O390 1.228 . S
O390 C389 1.228 . S
O391 Zn380 2.024 . S
O391 C382 1.058 . S
C392 O393 1.228 . S
C392 O394 1.267 . S
O393 C392 1.228 . S
O394 Zn381 1.969 . S
O394 C392 1.267 . S
O395 Zn381 1.965 . S
O395 C399 1.260 . S
O396 Zn380 1.969 . S
O396 C399 1.258 . S
O397 Zn381 2.024 . S
O397 C384 1.058 . S
C398 O387 1.260 . S
C398 O388 1.258 . S
C399 O395 1.260 . S
C399 O396 1.258 . S
Zn400 O406 1.969 . S
Zn400 O407 1.965 . S
Zn400 O411 2.024 . S
Zn400 O416 1.969 . S
Zn401 O408 1.969 . S
Zn401 O414 1.969 . S
Zn401 O415 1.965 . S
Zn401 O417 2.024 . S
C402 O403 1.229 . S
C402 O411 1.058 . S
O403 C402 1.229 . S
C404 O405 1.229 . S
C404 O417 1.058 . S
O405 C404 1.229 . S
O406 Zn400 1.969 . S
O406 C409 1.267 . S
O407 Zn400 1.965 . S
O407 C418 1.260 . S
O408 Zn401 1.969 . S
O408 C418 1.258 . S
C409 O406 1.267 . S
C409 O410 1.228 . S
O410 C409 1.228 . S
O411 Zn400 2.024 . S
O411 C402 1.058 . S
C412 O413 1.228 . S
C412 O414 1.267 . S
O413 C412 1.228 . S
O414 Zn401 1.969 . S
O414 C412 1.267 . S
O415 Zn401 1.965 . S
O415 C419 1.260 . S
O416 Zn400 1.969 . S
O416 C419 1.258 . S
O417 Zn401 2.024 . S
O417 C404 1.058 . S
C418 O407 1.260 . S
C418 O408 1.258 . S
C419 O415 1.260 . S
C419 O416 1.258 . S
Zn420 O426 1.969 . S
Zn420 O427 1.965 . S
Zn420 O431 2.024 . S
Zn420 O436 1.969 . S
Zn421 O428 1.969 . S
Zn421 O434 1.969 . S
Zn421 O435 1.965 . S
Zn421 O437 2.024 . S
C422 O423 1.229 . S
C422 O431 1.058 . S
O423 C422 1.229 . S
C424 O425 1.229 . S
C424 O437 1.058 . S
O425 C424 1.229 . S
O426 Zn420 1.969 . S
O426 C429 1.267 . S
O427 Zn420 1.965 . S
O427 C438 1.260 . S
O428 Zn421 1.969 . S
O428 C438 1.258 . S
C429 O426 1.267 . S
C429 O430 1.228 . S
O430 C429 1.228 . S
O431 Zn420 2.024 . S
O431 C422 1.058 . S
C432 O433 1.228 . S
C432 O434 1.267 . S
O433 C432 1.228 . S
O434 Zn421 1.969 . S
O434 C432 1.267 . S
O435 Zn421 1.965 . S
O435 C439 1.260 . S
O436 Zn420 1.969 . S
O436 C439 1.258 . S
O437 Zn421 2.024 . S
O437 C424 1.058 . S
C438 O427 1.260 . S
C438 O428 1.258 . S
C439 O435 1.260 . S
C439 O436 1.258 . S
Zn440 O446 1.969 . S
Zn440 O447 1.965 . S
Zn440 O451 2.024 . S
Zn440 O456 1.969 . S
Zn441 O448 1.969 . S
Zn441 O454 1.969 . S
Zn441 O455 1.965 . S
Zn441 O457 2.024 . S
C442 O443 1.229 . S
C442 O451 1.058 . S
O443 C442 1.229 . S
C444 O445 1.229 . S
C444 O457 1.058 . S
O445 C444 1.229 . S
O446 Zn440 1.969 . S
O446 C449 1.267 . S
O447 Zn440 1.965 . S
O447 C458 1.260 . S
O448 Zn441 1.969 . S
O448 C458 1.258 . S
C449 O446 1.267 . S
C449 O450 1.228 . S
O450 C449 1.228 . S
O451 Zn440 2.024 . S
O451 C442 1.058 . S
C452 O453 1.228 . S
C452 O454 1.267 . S
O453 C452 1.228 . S
O454 Zn441 1.969 . S
O454 C452 1.267 . S
O455 Zn441 1.965 . S
O455 C459 1.260 . S
O456 Zn440 1.969 . S
O456 C459 1.258 . S
O457 Zn441 2.024 . S
O457 C444 1.058 . S
C458 O447 1.260 . S
C458 O448 1.258 . S
C459 O455 1.260 . S
C459 O456 1.258 . S
Zn460 O466 1.969 . S
Zn460 O467 1.965 . S
Zn460 O471 2.024 . S
Zn460 O476 1.969 . S
Zn461 O468 1.969 . S
Zn461 O474 1.969 . S
Zn461 O475 1.965 . S
Zn461 O477 2.024 . S
C462 O463 1.229 . S
C462 O471 1.058 . S
O463 C462 1.229 . S
C464 O465 1.229 . S
C464 O477 1.058 . S
O465 C464 1.229 . S
O466 Zn460 1.969 . S
O466 C469 1.267 . S
O467 Zn460 1.965 . S
O467 C478 1.260 . S
O468 Zn461 1.969 . S
O468 C478 1.258 . S
C469 O466 1.267 . S
C469 O470 1.228 . S
O470 C469 1.228 . S
O471 Zn460 2.024 . S
O471 C462 1.058 . S
C472 O473 1.228 . S
C472 O474 1.267 . S
O473 C472 1.228 . S
O474 Zn461 1.969 . S
O474 C472 1.267 . S
O475 Zn461 1.965 . S
O475 C479 1.260 . S
O476 Zn460 1.969 . S
O476 C479 1.258 . S
O477 Zn461 2.024 . S
O477 C464 1.058 . S
C478 O467 1.260 . S
C478 O468 1.258 . S
C479 O475 1.260 . S
C479 O476 1.258 . S
Zn480 O486 1.969 . S
Zn480 O487 1.965 1_455 S
Zn480 O491 2.024 . S
Zn480 O496 1.969 1_455 S
Zn481 O488 1.969 . S
Zn481 O494 1.969 . S
Zn481 O495 1.965 . S
Zn481 O497 2.024 . S
C482 O483 1.229 . S
C482 O491 1.058 . S
O483 C482 1.229 . S
C484 O485 1.229 . S
C484 O497 1.058 . S
O485 C484 1.229 . S
O486 Zn480 1.969 . S
O486 C489 1.267 . S
O487 Zn480 1.965 1_655 S
O487 C498 1.260 . S
O488 Zn481 1.969 . S
O488 C498 1.258 . S
C489 O486 1.267 . S
C489 O490 1.228 . S
O490 C489 1.228 . S
O491 Zn480 2.024 . S
O491 C482 1.058 . S
C492 O493 1.228 . S
C492 O494 1.267 . S
O493 C492 1.228 . S
O494 Zn481 1.969 . S
O494 C492 1.267 . S
O495 Zn481 1.965 . S
O495 C499 1.260 . S
O496 Zn480 1.969 1_655 S
O496 C499 1.258 . S
O497 Zn481 2.024 . S
O497 C484 1.058 . S
C498 O487 1.260 . S
C498 O488 1.258 . S
C499 O495 1.260 . S
C499 O496 1.258 . S
Zn500 O506 1.969 . S
Zn500 O507 1.965 . S
Zn500 O511 2.024 . S
Zn500 O516 1.969 . S
Zn501 O508 1.969 . S
Zn501 O514 1.969 . S
Zn501 O515 1.965 . S
Zn501 O517 2.024 . S
C502 O503 1.229 . S
C502 O511 1.058 . S
O503 C502 1.229 . S
C504 O505 1.229 . S
C504 O517 1.058 . S
O505 C504 1.229 . S
O506 Zn500 1.969 . S
O506 C509 1.267 . S
O507 Zn500 1.965 . S
O507 C518 1.260 . S
O508 Zn501 1.969 . S
O508 C518 1.258 . S
C509 O506 1.267 . S
C509 O510 1.228 . S
O510 C509 1.228 . S
O511 Zn500 2.024 . S
O511 C502 1.058 . S
C512 O513 1.228 . S
C512 O514 1.267 . S
O513 C512 1.228 . S
O514 Zn501 1.969 . S
O514 C512 1.267 . S
O515 Zn501 1.965 . S
O515 C519 1.260 . S
O516 Zn500 1.969 . S
O516 C519 1.258 . S
O517 Zn501 2.024 . S
O517 C504 1.058 . S
C518 O507 1.260 . S
C518 O508 1.258 . S
C519 O515 1.260 . S
C519 O516 1.258 . S
Zn520 O526 1.969 . S
Zn520 O527 1.965 . S
Zn520 O531 2.024 . S
Zn520 O536 1.969 . S
Zn521 O528 1.969 . S
Zn521 O534 1.969 . S
Zn521 O535 1.965 . S
Zn521 O537 2.024 . S
C522 O523 1.229 . S
C522 O531 1.058 . S
O523 C522 1.229 . S
C524 O525 1.229 . S
C524 O537 1.058 . S
O525 C524 1.229 . S
O526 Zn520 1.969 . S
O526 C529 1.267 . S
O527 Zn520 1.965 . S
O527 C538 1.260 . S
O528 Zn521 1.969 . S
O528 C538 1.258 . S
C529 O526 1.267 . S
C529 O530 1.228 . S
O530 C529 1.228 . S
O531 Zn520 2.024 . S
O531 C522 1.058 . S
C532 O533 1.228 . S
C532 O534 1.267 . S
O533 C532 1.228 . S
O534 Zn521 1.969 . S
O534 C532 1.267 . S
O535 Zn521 1.965 . S
O535 C539 1.260 . S
O536 Zn520 1.969 . S
O536 C539 1.258 . S
O537 Zn521 2.024 . S
O537 C524 1.058 . S
C538 O527 1.260 . S
C538 O528 1.258 . S
C539 O535 1.260 . S
C539 O536 1.258 . S
Zn540 O546 1.969 . S
Zn540 O547 1.965 . S
Zn540 O551 2.024 . S
Zn540 O556 1.969 . S
Zn541 O548 1.969 . S
Zn541 O554 1.969 . S
Zn541 O555 1.965 . S
Zn541 O557 2.024 . S
C542 O543 1.229 . S
C542 O551 1.058 . S
O543 C542 1.229 . S
C544 O545 1.229 . S
C544 O557 1.058 . S
O545 C544 1.229 . S
O546 Zn540 1.969 . S
O546 C549 1.267 . S
O547 Zn540 1.965 . S
O547 C558 1.260 . S
O548 Zn541 1.969 . S
O548 C558 1.258 . S
C549 O546 1.267 . S
C549 O550 1.228 . S
O550 C549 1.228 . S
O551 Zn540 2.024 . S
O551 C542 1.058 . S
C552 O553 1.228 . S
C552 O554 1.267 . S
O553 C552 1.228 . S
O554 Zn541 1.969 . S
O554 C552 1.267 . S
O555 Zn541 1.965 . S
O555 C559 1.260 . S
O556 Zn540 1.969 . S
O556 C559 1.258 . S
O557 Zn541 2.024 . S
O557 C544 1.058 . S
C558 O547 1.260 . S
C558 O548 1.258 . S
C559 O555 1.260 . S
C559 O556 1.258 . S
Zn560 O566 1.969 . S
Zn560 O567 1.965 . S
Zn560 O571 2.024 . S
Zn560 O576 1.969 . S
Zn561 O568 1.969 1_455 S
Zn561 O574 1.969 . S
Zn561 O575 1.965 . S
Zn561 O577 2.024 . S
C562 O563 1.229 . S
C562 O571 1.058 . S
O563 C562 1.229 . S
C564 O565 1.229 . S
C564 O577 1.058 . S
O565 C564 1.229 . S
O566 Zn560 1.969 . S
O566 C569 1.267 . S
O567 Zn560 1.965 . S
O567 C578 1.260 . S
O568 Zn561 1.969 1_655 S
O568 C578 1.258 . S
C569 O566 1.267 . S
C569 O570 1.228 . S
O570 C569 1.228 . S
O571 Zn560 2.024 . S
O571 C562 1.058 . S
C572 O573 1.228 . S
C572 O574 1.267 . S
O573 C572 1.228 . S
O574 Zn561 1.969 . S
O574 C572 1.267 . S
O575 Zn561 1.965 . S
O575 C579 1.259 . S
O576 Zn560 1.969 . S
O576 C579 1.261 1_655 S
O577 Zn561 2.024 . S
O577 C564 1.058 . S
C578 O567 1.260 . S
C578 O568 1.258 . S
C579 O575 1.259 . S
C579 O576 1.261 1_455 S
Zn580 O586 1.969 . S
Zn580 O587 1.965 . S
Zn580 O591 2.024 . S
Zn580 O596 1.969 . S
Zn581 O588 1.969 . S
Zn581 O594 1.969 . S
Zn581 O595 1.965 . S
Zn581 O597 2.024 . S
C582 O583 1.229 . S
C582 O591 1.058 . S
O583 C582 1.229 . S
C584 O585 1.229 . S
C584 O597 1.058 . S
O585 C584 1.229 . S
O586 Zn580 1.969 . S
O586 C589 1.267 . S
O587 Zn580 1.965 . S
O587 C598 1.260 . S
O588 Zn581 1.969 . S
O588 C598 1.258 . S
C589 O586 1.267 . S
C589 O590 1.228 . S
O590 C589 1.228 . S
O591 Zn580 2.024 . S
O591 C582 1.058 . S
C592 O593 1.228 . S
C592 O594 1.267 . S
O593 C592 1.228 . S
O594 Zn581 1.969 . S
O594 C592 1.267 . S
O595 Zn581 1.965 . S
O595 C599 1.260 . S
O596 Zn580 1.969 . S
O596 C599 1.258 . S
O597 Zn581 2.024 . S
O597 C584 1.058 . S
C598 O587 1.260 . S
C598 O588 1.258 . S
C599 O595 1.260 . S
C599 O596 1.258 . S
Zn600 O606 1.969 . S
Zn600 O607 1.965 . S
Zn600 O611 2.024 . S
Zn600 O616 1.969 . S
Zn601 O608 1.969 . S
Zn601 O614 1.969 . S
Zn601 O615 1.965 . S
Zn601 O617 2.024 . S
C602 O603 1.229 . S
C602 O611 1.058 . S
O603 C602 1.229 . S
C604 O605 1.229 . S
C604 O617 1.058 . S
O605 C604 1.229 . S
O606 Zn600 1.969 . S
O606 C609 1.267 . S
O607 Zn600 1.965 . S
O607 C618 1.260 . S
O608 Zn601 1.969 . S
O608 C618 1.258 . S
C609 O606 1.267 . S
C609 O610 1.228 . S
O610 C609 1.228 . S
O611 Zn600 2.024 . S
O611 C602 1.058 . S
C612 O613 1.228 . S
C612 O614 1.267 . S
O613 C612 1.228 . S
O614 Zn601 1.969 . S
O614 C612 1.267 . S
O615 Zn601 1.965 . S
O615 C619 1.260 . S
O616 Zn600 1.969 . S
O616 C619 1.258 . S
O617 Zn601 2.024 . S
O617 C604 1.058 . S
C618 O607 1.260 . S
C618 O608 1.258 . S
C619 O615 1.260 . S
C619 O616 1.258 . S
Zn620 O626 1.969 . S
Zn620 O627 1.965 . S
Zn620 O631 2.024 . S
Zn620 O636 1.969 . S
Zn621 O628 1.969 . S
Zn621 O634 1.969 . S
Zn621 O635 1.965 . S
Zn621 O637 2.024 . S
C622 O623 1.229 . S
C622 O631 1.058 . S
O623 C622 1.229 . S
C624 O625 1.229 . S
C624 O637 1.058 . S
O625 C624 1.229 . S
O626 Zn620 1.969 . S
O626 C629 1.267 . S
O627 Zn620 1.965 . S
O627 C638 1.260 . S
O628 Zn621 1.969 . S
O628 C638 1.258 . S
C629 O626 1.267 . S
C629 O630 1.228 . S
O630 C629 1.228 . S
O631 Zn620 2.024 . S
O631 C622 1.058 . S
C632 O633 1.228 . S
C632 O634 1.267 . S
O633 C632 1.228 . S
O634 Zn621 1.969 . S
O634 C632 1.267 . S
O635 Zn621 1.965 . S
O635 C639 1.260 . S
O636 Zn620 1.969 . S
O636 C639 1.258 . S
O637 Zn621 2.024 . S
O637 C624 1.058 . S
C638 O627 1.260 . S
C638 O628 1.258 . S
C639 O635 1.260 . S
C639 O636 1.258 . S
Zn640 O646 1.969 . S
Zn640 O647 1.965 1_545 S
Zn640 O651 2.024 . S
Zn640 O656 1.969 1_545 S
Zn641 O648 1.969 . S
Zn641 O654 1.969 . S
Zn641 O655 1.965 . S
Zn641 O657 2.024 . S
C642 O643 1.229 . S
C642 O651 1.058 . S
O643 C642 1.229 . S
C644 O645 1.229 . S
C644 O657 1.058 . S
O645 C644 1.229 . S
O646 Zn640 1.969 . S
O646 C649 1.267 . S
O647 Zn640 1.965 1_565 S
O647 C658 1.260 . S
O648 Zn641 1.969 . S
O648 C658 1.258 . S
C649 O646 1.267 . S
C649 O650 1.228 . S
O650 C649 1.228 . S
O651 Zn640 2.024 . S
O651 C642 1.058 . S
C652 O653 1.228 . S
C652 O654 1.267 . S
O653 C652 1.228 . S
O654 Zn641 1.969 . S
O654 C652 1.267 . S
O655 Zn641 1.965 . S
O655 C659 1.260 . S
O656 Zn640 1.969 1_565 S
O656 C659 1.258 . S
O657 Zn641 2.024 . S
O657 C644 1.058 . S
C658 O647 1.260 . S
C658 O648 1.258 . S
C659 O655 1.260 . S
C659 O656 1.258 . S
Zn660 O666 1.969 . S
Zn660 O667 1.965 . S
Zn660 O671 2.024 . S
Zn660 O676 1.969 . S
Zn661 O668 1.969 . S
Zn661 O674 1.969 . S
Zn661 O675 1.965 . S
Zn661 O677 2.024 . S
C662 O663 1.229 . S
C662 O671 1.058 . S
O663 C662 1.229 . S
C664 O665 1.229 . S
C664 O677 1.058 . S
O665 C664 1.229 . S
O666 Zn660 1.969 . S
O666 C669 1.267 . S
O667 Zn660 1.965 . S
O667 C678 1.260 . S
O668 Zn661 1.969 . S
O668 C678 1.258 . S
C669 O666 1.267 . S
C669 O670 1.228 . S
O670 C669 1.228 . S
O671 Zn660 2.024 . S
O671 C662 1.058 . S
C672 O673 1.228 . S
C672 O674 1.267 . S
O673 C672 1.228 . S
O674 Zn661 1.969 . S
O674 C672 1.267 . S
O675 Zn661 1.965 . S
O675 C679 1.260 . S
O676 Zn660 1.969 . S
O676 C679 1.258 . S
O677 Zn661 2.024 . S
O677 C664 1.058 . S
C678 O667 1.260 . S
C678 O668 1.258 . S
C679 O675 1.260 . S
C679 O676 1.258 . S
Zn680 O686 1.969 . S
Zn680 O687 1.965 . S
Zn680 O691 2.024 . S
Zn680 O696 1.969 . S
Zn681 O688 1.969 1_565 S
Zn681 O694 1.969 . S
Zn681 O695 1.973 . S
Zn681 O697 2.024 . S
C682 O683 1.229 . S
C682 O691 1.058 . S
O683 C682 1.229 . S
C684 O685 1.229 . S
C684 O697 1.058 . S
O685 C684 1.229 . S
O686 Zn680 1.969 . S
O686 C689 1.267 . S
O687 Zn680 1.965 . S
O687 C698 1.260 . S
O688 Zn681 1.969 1_545 S
O688 C698 1.258 . S
C689 O686 1.267 . S
C689 O690 1.228 . S
O690 C689 1.228 . S
O691 Zn680 2.024 . S
O691 C682 1.058 . S
C692 O693 1.228 . S
C692 O694 1.267 . S
O693 C692 1.228 . S
O694 Zn681 1.969 . S
O694 C692 1.267 . S
O695 Zn681 1.973 . S
O695 C699 1.247 1_565 S
O696 Zn680 1.969 . S
O696 C699 1.258 . S
O697 Zn681 2.024 . S
O697 C684 1.058 . S
C698 O687 1.260 . S
C698 O688 1.258 . S
C699 O695 1.247 1_545 S
C699 O696 1.258 . S
Zn700 O706 1.969 . S
Zn700 O707 1.965 . S
Zn700 O711 2.024 . S
Zn700 O716 1.969 . S
Zn701 O708 1.969 . S
Zn701 O714 1.969 . S
Zn701 O715 1.965 . S
Zn701 O717 2.024 . S
C702 O703 1.229 . S
C702 O711 1.058 . S
O703 C702 1.229 . S
C704 O705 1.229 . S
C704 O717 1.058 . S
O705 C704 1.229 . S
O706 Zn700 1.969 . S
O706 C709 1.267 . S
O707 Zn700 1.965 . S
O707 C718 1.260 . S
O708 Zn701 1.969 . S
O708 C718 1.258 . S
C709 O706 1.267 . S
C709 O710 1.228 . S
O710 C709 1.228 . S
O711 Zn700 2.024 . S
O711 C702 1.058 . S
C712 O713 1.228 . S
C712 O714 1.267 . S
O713 C712 1.228 . S
O714 Zn701 1.969 . S
O714 C712 1.267 . S
O715 Zn701 1.965 . S
O715 C719 1.260 . S
O716 Zn700 1.969 . S
O716 C719 1.258 . S
O717 Zn701 2.024 . S
O717 C704 1.058 . S
C718 O707 1.260 . S
C718 O708 1.258 . S
C719 O715 1.260 . S
C719 O716 1.258 . S
Zn720 O726 1.969 . S
Zn720 O727 1.965 . S
Zn720 O731 2.024 . S
Zn720 O736 1.969 . S
Zn721 O728 1.969 1_565 S
Zn721 O734 1.969 . S
Zn721 O735 1.960 1_565 S
Zn721 O737 2.024 . S
C722 O723 1.229 . S
C722 O731 1.058 . S
O723 C722 1.229 . S
C724 O725 1.229 . S
C724 O737 1.058 . S
O725 C724 1.229 . S
O726 Zn720 1.969 . S
O726 C729 1.267 . S
O727 Zn720 1.965 . S
O727 C738 1.260 . S
O728 Zn721 1.969 1_545 S
O728 C738 1.258 . S
C729 O726 1.267 . S
C729 O730 1.228 . S
O730 C729 1.228 . S
O731 Zn720 2.024 . S
O731 C722 1.058 . S
C732 O733 1.228 . S
C732 O734 1.267 . S
O733 C732 1.228 . S
O734 Zn721 1.969 . S
O734 C732 1.267 . S
O735 Zn721 1.960 1_545 S
O735 C739 1.268 . S
O736 Zn720 1.969 . S
O736 C739 1.258 . S
O737 Zn721 2.024 . S
O737 C724 1.058 . S
C738 O727 1.260 . S
C738 O728 1.258 . S
C739 O735 1.268 . S
C739 O736 1.258 . S
Zn740 O746 1.969 . S
Zn740 O747 1.965 . S
Zn740 O751 2.024 . S
Zn740 O756 1.969 . S
Zn741 O748 1.969 . S
Zn741 O754 1.969 . S
Zn741 O755 1.965 . S
Zn741 O757 2.024 . S
C742 O743 1.229 . S
C742 O751 1.058 . S
O743 C742 1.229 . S
C744 O745 1.229 . S
C744 O757 1.058 . S
O745 C744 1.229 . S
O746 Zn740 1.969 . S
O746 C749 1.267 . S
O747 Zn740 1.965 . S
O747 C758 1.260 . S
O748 Zn741 1.969 . S
O748 C758 1.258 . S
C749 O746 1.267 . S
C749 O750 1.228 . S
O750 C749 1.228 . S
O751 Zn740 2.024 . S
O751 C742 1.058 . S
C752 O753 1.228 . S
C752 O754 1.267 . S
O753 C752 1.228 . S
O754 Zn741 1.969 . S
O754 C752 1.267 . S
O755 Zn741 1.965 . S
O755 C759 1.260 . S
O756 Zn740 1.969 . S
O756 C759 1.258 . S
O757 Zn741 2.024 . S
O757 C744 1.058 . S
C758 O747 1.260 . S
C758 O748 1.258 . S
C759 O755 1.260 . S
C759 O756 1.258 . S
Zn760 O766 1.969 . S
Zn760 O767 1.965 . S
Zn760 O771 2.024 . S
Zn760 O776 1.969 . S
Zn761 O768 1.969 1_545 S
Zn761 O774 1.969 . S
Zn761 O775 1.965 1_545 S
Zn761 O777 2.024 . S
C762 O763 1.229 . S
C762 O771 1.058 . S
O763 C762 1.229 . S
C764 O765 1.229 . S
C764 O777 1.058 . S
O765 C764 1.229 . S
O766 Zn760 1.969 . S
O766 C769 1.267 . S
O767 Zn760 1.965 . S
O767 C778 1.260 . S
O768 Zn761 1.969 1_565 S
O768 C778 1.258 . S
C769 O766 1.267 . S
C769 O770 1.228 . S
O770 C769 1.228 . S
O771 Zn760 2.024 . S
O771 C762 1.058 . S
C772 O773 1.228 . S
C772 O774 1.267 . S
O773 C772 1.228 . S
O774 Zn761 1.969 . S
O774 C772 1.267 . S
O775 Zn761 1.965 1_565 S
O775 C779 1.260 . S
O776 Zn760 1.969 . S
O776 C779 1.258 . S
O777 Zn761 2.024 . S
O777 C764 1.058 . S
C778 O767 1.260 . S
C778 O768 1.258 . S
C779 O775 1.260 . S
C779 O776 1.258 . S
Zn780 O786 1.969 . S
Zn780 O787 1.965 . S
Zn780 O791 2.024 . S
Zn780 O796 1.969 . S
Zn781 O788 1.969 . S
Zn781 O794 1.969 . S
Zn781 O795 1.965 . S
Zn781 O797 2.024 . S
C782 O783 1.229 . S
C782 O791 1.058 . S
O783 C782 1.229 . S
C784 O785 1.229 . S
C784 O797 1.058 . S
O785 C784 1.229 . S
O786 Zn780 1.969 . S
O786 C789 1.267 . S
O787 Zn780 1.965 . S
O787 C798 1.260 . S
O788 Zn781 1.969 . S
O788 C798 1.258 . S
C789 O786 1.267 . S
C789 O790 1.228 . S
O790 C789 1.228 . S
O791 Zn780 2.024 . S
O791 C782 1.058 . S
C792 O793 1.228 . S
C792 O794 1.267 . S
O793 C792 1.228 . S
O794 Zn781 1.969 . S
O794 C792 1.267 . S
O795 Zn781 1.965 . S
O795 C799 1.260 . S
O796 Zn780 1.969 . S
O796 C799 1.258 . S
O797 Zn781 2.024 . S
O797 C784 1.058 . S
C798 O787 1.260 . S
C798 O788 1.258 . S
C799 O795 1.260 . S
C799 O796 1.258 . S
Zn800 O806 1.969 . S
Zn800 O807 1.965 1_554 S
Zn800 O811 2.024 . S
Zn800 O816 1.969 1_554 S
Zn801 O808 1.969 . S
Zn801 O814 1.969 . S
Zn801 O815 1.965 . S
Zn801 O817 2.024 . S
C802 O803 1.229 . S
C802 O811 1.058 . S
O803 C802 1.229 . S
C804 O805 1.229 . S
C804 O817 1.058 . S
O805 C804 1.229 . S
O806 Zn800 1.969 . S
O806 C809 1.267 . S
O807 Zn800 1.965 1_556 S
O807 C818 1.260 . S
O808 Zn801 1.969 . S
O808 C818 1.258 . S
C809 O806 1.267 . S
C809 O810 1.228 . S
O810 C809 1.228 . S
O811 Zn800 2.024 . S
O811 C802 1.058 . S
C812 O813 1.228 . S
C812 O814 1.267 . S
O813 C812 1.228 . S
O814 Zn801 1.969 . S
O814 C812 1.267 . S
O815 Zn801 1.965 . S
O815 C819 1.260 . S
O816 Zn800 1.969 1_556 S
O816 C819 1.258 . S
O817 Zn801 2.024 . S
O817 C804 1.058 . S
C818 O807 1.260 . S
C818 O808 1.258 . S
C819 O815 1.260 . S
C819 O816 1.258 . S
Zn820 O826 1.969 . S
Zn820 O827 1.965 . S
Zn820 O831 2.024 . S
Zn820 O836 1.969 . S
Zn821 O828 1.969 1_556 S
Zn821 O834 1.969 . S
Zn821 O835 1.965 . S
Zn821 O837 2.024 . S
C822 O823 1.229 . S
C822 O831 1.058 . S
O823 C822 1.229 . S
C824 O825 1.229 . S
C824 O837 1.058 . S
O825 C824 1.229 . S
O826 Zn820 1.969 . S
O826 C829 1.267 . S
O827 Zn820 1.965 . S
O827 C838 1.260 . S
O828 Zn821 1.969 1_554 S
O828 C838 1.258 . S
C829 O826 1.267 . S
C829 O830 1.228 . S
O830 C829 1.228 . S
O831 Zn820 2.024 . S
O831 C822 1.058 . S
C832 O833 1.228 . S
C832 O834 1.267 . S
O833 C832 1.228 . S
O834 Zn821 1.969 . S
O834 C832 1.267 . S
O835 Zn821 1.965 . S
O835 C839 1.260 1_556 S
O836 Zn820 1.969 . S
O836 C839 1.258 . S
O837 Zn821 2.024 . S
O837 C824 1.058 . S
C838 O827 1.260 . S
C838 O828 1.258 . S
C839 O835 1.260 1_554 S
C839 O836 1.258 . S
Zn840 O846 1.969 . S
Zn840 O847 1.965 . S
Zn840 O851 2.024 . S
Zn840 O856 1.969 . S
Zn841 O848 1.969 . S
Zn841 O854 1.969 . S
Zn841 O855 1.965 . S
Zn841 O857 2.024 . S
C842 O843 1.229 . S
C842 O851 1.058 . S
O843 C842 1.229 . S
C844 O845 1.229 . S
C844 O857 1.058 . S
O845 C844 1.229 . S
O846 Zn840 1.969 . S
O846 C849 1.267 . S
O847 Zn840 1.965 . S
O847 C858 1.260 . S
O848 Zn841 1.969 . S
O848 C858 1.258 . S
C849 O846 1.267 . S
C849 O850 1.228 . S
O850 C849 1.228 . S
O851 Zn840 2.024 . S
O851 C842 1.058 . S
C852 O853 1.228 . S
C852 O854 1.267 . S
O853 C852 1.228 . S
O854 Zn841 1.969 . S
O854 C852 1.267 . S
O855 Zn841 1.965 . S
O855 C859 1.260 . S
O856 Zn840 1.969 . S
O856 C859 1.258 . S
O857 Zn841 2.024 . S
O857 C844 1.058 . S
C858 O847 1.260 . S
C858 O848 1.258 . S
C859 O855 1.260 . S
C859 O856 1.258 . S
Zn860 O866 1.969 . S
Zn860 O867 1.965 . S
Zn860 O871 2.024 . S
Zn860 O876 1.969 . S
Zn861 O868 1.969 . S
Zn861 O874 1.969 . S
Zn861 O875 1.965 . S
Zn861 O877 2.024 . S
C862 O863 1.229 . S
C862 O871 1.058 . S
O863 C862 1.229 . S
C864 O865 1.229 . S
C864 O877 1.058 . S
O865 C864 1.229 . S
O866 Zn860 1.969 . S
O866 C869 1.267 . S
O867 Zn860 1.965 . S
O867 C878 1.260 . S
O868 Zn861 1.969 . S
O868 C878 1.258 . S
C869 O866 1.267 . S
C869 O870 1.228 . S
O870 C869 1.228 . S
O871 Zn860 2.024 . S
O871 C862 1.058 . S
C872 O873 1.228 . S
C872 O874 1.267 . S
O873 C872 1.228 . S
O874 Zn861 1.969 . S
O874 C872 1.267 . S
O875 Zn861 1.965 . S
O875 C879 1.260 . S
O876 Zn860 1.969 . S
O876 C879 1.258 . S
O877 Zn861 2.024 . S
O877 C864 1.058 . S
C878 O867 1.260 . S
C878 O868 1.258 . S
C879 O875 1.260 . S
C879 O876 1.258 . S
Zn880 O886 1.969 . S
Zn880 O887 1.965 . S
Zn880 O891 2.024 . S
Zn880 O896 1.969 . S
Zn881 O888 1.969 . S
Zn881 O894 1.969 . S
Zn881 O895 1.965 . S
Zn881 O897 2.024 . S
C882 O883 1.229 . S
C882 O891 1.058 . S
O883 C882 1.229 . S
C884 O885 1.229 . S
C884 O897 1.058 . S
O885 C884 1.229 . S
O886 Zn880 1.969 . S
O886 C889 1.267 . S
O887 Zn880 1.965 . S
O887 C898 1.260 . S
O888 Zn881 1.969 . S
O888 C898 1.258 . S
C889 O886 1.267 . S
C889 O890 1.228 . S
O890 C889 1.228 . S
O891 Zn880 2.024 . S
O891 C882 1.058 . S
C892 O893 1.228 . S
C892 O894 1.267 . S
O893 C892 1.228 . S
O894 Zn881 1.969 . S
O894 C892 1.267 . S
O895 Zn881 1.965 . S
O895 C899 1.260 . S
O896 Zn880 1.969 . S
O896 C899 1.258 . S
O897 Zn881 2.024 . S
O897 C884 1.058 . S
C898 O887 1.260 . S
C898 O888 1.258 . S
C899 O895 1.260 . S
C899 O896 1.258 . S
Zn900 O906 1.969 . S
Zn900 O907 1.965 . S
Zn900 O911 2.024 . S
Zn900 O916 1.969 . S
Zn901 O908 1.969 . S
Zn901 O914 1.969 . S
Zn901 O915 1.965 . S
Zn901 O917 2.024 . S
C902 O903 1.229 . S
C902 O911 1.058 . S
O903 C902 1.229 . S
C904 O905 1.229 . S
C904 O917 1.058 . S
O905 C904 1.229 . S
O906 Zn900 1.969 . S
O906 C909 1.267 . S
O907 Zn900 1.965 . S
O907 C918 1.260 . S
O908 Zn901 1.969 . S
O908 C918 1.258 . S
C909 O906 1.267 . S
C909 O910 1.228 . S
O910 C909 1.228 . S
O911 Zn900 2.024 . S
O911 C902 1.058 . S
C912 O913 1.228 . S
C912 O914 1.267 . S
O913 C912 1.228 . S
O914 Zn901 1.969 . S
O914 C912 1.267 . S
O915 Zn901 1.965 . S
O915 C919 1.260 . S
O916 Zn900 1.969 . S
O916 C919 1.258 . S
O917 Zn901 2.024 . S
O917 C904 1.058 . S
C918 O907 1.260 . S
C918 O908 1.258 . S
C919 O915 1.260 . S
C919 O916 1.258 . S
Zn920 O926 1.969 . S
Zn920 O927 1.965 . S
Zn920 O931 2.024 . S
Zn920 O936 1.969 . S
Zn921 O928 1.969 . S
Zn921 O934 1.969 . S
Zn921 O935 1.965 . S
Zn921 O937 2.024 . S
C922 O923 1.229 . S
C922 O931 1.058 . S
O923 C922 1.229 . S
C924 O925 1.229 . S
C924 O937 1.058 . S
O925 C924 1.229 . S
O926 Zn920 1.969 . S
O926 C929 1.267 . S
O927 Zn920 1.965 . S
O927 C938 1.260 . S
O928 Zn921 1.969 . S
O928 C938 1.258 . S
C929 O926 1.267 . S
C929 O930 1.228 . S
O930 C929 1.228 . S
O931 Zn920 2.024 . S
O931 C922 1.058 . S
C932 O933 1.228 . S
C932 O934 1.267 . S
O933 C932 1.228 . S
O934 Zn921 1.969 . S
O934 C932 1.267 . S
O935 Zn921 1.965 . S
O935 C939 1.260 . S
O936 Zn920 1.969 . S
O936 C939 1.258 . S
O937 Zn921 2.024 . S
O937 C924 1.058 . S
C938 O927 1.260 . S
C938 O928 1.258 . S
C939 O935 1.260 . S
C939 O936 1.258 . S
Zn940 O946 1.969 . S
Zn940 O947 1.965 . S
Zn940 O951 2.024 . S
Zn940 O956 1.969 . S
Zn941 O948 1.969 . S
Zn941 O954 1.969 . S
Zn941 O955 1.965 . S
Zn941 O957 2.024 . S
C942 O943 1.229 . S
C942 O951 1.058 . S
O943 C942 1.229 . S
C944 O945 1.229 . S
C944 O957 1.058 . S
O945 C944 1.229 . S
O946 Zn940 1.969 . S
O946 C949 1.267 . S
O947 Zn940 1.965 . S
O947 C958 1.260 . S
O948 Zn941 1.969 . S
O948 C958 1.258 . S
C949 O946 1.267 . S
C949 O950 1.228 . S
O950 C949 1.228 . S
O951 Zn940 2.024 . S
O951 C942 1.058 . S
C952 O953 1.228 . S
C952 O954 1.267 . S
O953 C952 1.228 . S
O954 Zn941 1.969 . S
O954 C952 1.267 . S
O955 Zn941 1.965 . S
O955 C959 1.260 . S
O956 Zn940 1.969 . S
O956 C959 1.258 . S
O957 Zn941 2.024 . S
O957 C944 1.058 . S
C958 O947 1.260 . S
C958 O948 1.258 . S
C959 O955 1.260 . S
C959 O956 1.258 . S
Zn960 O966 1.969 . S
Zn960 O967 1.965 . S
Zn960 O971 2.024 . S
Zn960 O976 1.969 . S
Zn961 O968 1.969 . S
Zn961 O974 1.969 . S
Zn961 O975 1.965 . S
Zn961 O977 2.024 . S
C962 O963 1.229 . S
C962 O971 1.058 . S
O963 C962 1.229 . S
C964 O965 1.229 . S
C964 O977 1.058 . S
O965 C964 1.229 . S
O966 Zn960 1.969 . S
O966 C969 1.267 . S
O967 Zn960 1.965 . S
O967 C978 1.260 . S
O968 Zn961 1.969 . S
O968 C978 1.258 . S
C969 O966 1.267 . S
C969 O970 1.228 . S
O970 C969 1.228 . S
O971 Zn960 2.024 . S
O971 C962 1.058 . S
C972 O973 1.228 . S
C972 O974 1.267 . S
O973 C972 1.228 . S
O974 Zn961 1.969 . S
O974 C972 1.267 . S
O975 Zn961 1.965 . S
O975 C979 1.260 . S
O976 Zn960 1.969 . S
O976 C979 1.258 . S
O977 Zn961 2.024 . S
O977 C964 1.058 . S
C978 O967 1.260 . S
C978 O968 1.258 . S
C979 O975 1.260 . S
C979 O976 1.258 . S
Zn980 O986 1.969 . S
Zn980 O987 1.965 . S
Zn980 O991 2.024 . S
Zn980 O996 1.969 . S
Zn981 O988 1.969 . S
Zn981 O994 1.969 . S
Zn981 O995 1.965 . S
Zn981 O997 2.024 . S
C982 O983 1.229 . S
C982 O991 1.058 . S
O983 C982 1.229 . S
C984 O985 1.229 . S
C984 O997 1.058 . S
O985 C984 1.229 . S
O986 Zn980 1.969 . S
O986 C989 1.267 . S
O987 Zn980 1.965 . S
O987 C998 1.260 . S
O988 Zn981 1.969 . S
O988 C998 1.258 . S
C989 O986 1.267 . S
C989 O990 1.228 . S
O990 C989 1.228 . S
O991 Zn980 2.024 . S
O991 C982 1.058 . S
C992 O993 1.228 . S
C992 O994 1.267 . S
O993 C992 1.228 . S
O994 Zn981 1.969 . S
O994 C992 1.267 . S
O995 Zn981 1.965 . S
O995 C999 1.260 . S
O996 Zn980 1.969 . S
O996 C999 1.258 . S
O997 Zn981 2.024 . S
O997 C984 1.058 . S
C998 O987 1.260 . S
C998 O988 1.258 . S
C999 O995 1.260 . S
C999 O996 1.258 . S
Zn1000 O1006 1.969 . S
Zn1000 O1007 1.965 . S
Zn1000 O1011 2.024 . S
Zn1000 O1016 1.969 1_455 S
Zn1001 O1008 1.969 . S
Zn1001 O1014 1.969 . S
Zn1001 O1015 1.965 . S
Zn1001 O1017 2.024 . S
C1002 O1003 1.229 . S
C1002 O1011 1.058 . S
O1003 C1002 1.229 . S
C1004 O1005 1.229 . S
C1004 O1017 1.058 . S
O1005 C1004 1.229 . S
O1006 Zn1000 1.969 . S
O1006 C1009 1.267 . S
O1007 Zn1000 1.965 . S
O1007 C1018 1.260 1_455 S
O1008 Zn1001 1.969 . S
O1008 C1018 1.258 . S
C1009 O1006 1.267 . S
C1009 O1010 1.228 . S
O1010 C1009 1.228 . S
O1011 Zn1000 2.024 . S
O1011 C1002 1.058 . S
C1012 O1013 1.228 . S
C1012 O1014 1.267 . S
O1013 C1012 1.228 . S
O1014 Zn1001 1.969 . S
O1014 C1012 1.267 . S
O1015 Zn1001 1.965 . S
O1015 C1019 1.260 . S
O1016 Zn1000 1.969 1_655 S
O1016 C1019 1.258 . S
O1017 Zn1001 2.024 . S
O1017 C1004 1.058 . S
C1018 O1007 1.260 1_655 S
C1018 O1008 1.258 . S
C1019 O1015 1.260 . S
C1019 O1016 1.258 . S
Zn1020 O1026 1.969 . S
Zn1020 O1027 1.965 . S
Zn1020 O1031 2.024 . S
Zn1020 O1036 1.969 . S
Zn1021 O1028 1.969 . S
Zn1021 O1034 1.969 . S
Zn1021 O1035 1.965 . S
Zn1021 O1037 2.024 . S
C1022 O1023 1.229 . S
C1022 O1031 1.058 . S
O1023 C1022 1.229 . S
C1024 O1025 1.229 . S
C1024 O1037 1.058 . S
O1025 C1024 1.229 . S
O1026 Zn1020 1.969 . S
O1026 C1029 1.267 . S
O1027 Zn1020 1.965 . S
O1027 C1038 1.260 . S
O1028 Zn1021 1.969 . S
O1028 C1038 1.258 . S
C1029 O1026 1.267 . S
C1029 O1030 1.228 . S
O1030 C1029 1.228 . S
O1031 Zn1020 2.024 . S
O1031 C1022 1.058 . S
C1032 O1033 1.228 . S
C1032 O1034 1.267 . S
O1033 C1032 1.228 . S
O1034 Zn1021 1.969 . S
O1034 C1032 1.267 . S
O1035 Zn1021 1.965 . S
O1035 C1039 1.260 . S
O1036 Zn1020 1.969 . S
O1036 C1039 1.258 . S
O1037 Zn1021 2.024 . S
O1037 C1024 1.058 . S
C1038 O1027 1.260 . S
C1038 O1028 1.258 . S
C1039 O1035 1.260 . S
C1039 O1036 1.258 . S
Zn1040 O1046 1.969 . S
Zn1040 O1047 1.965 . S
Zn1040 O1051 2.024 . S
Zn1040 O1056 1.969 . S
Zn1041 O1048 1.969 . S
Zn1041 O1054 1.969 . S
Zn1041 O1055 1.965 . S
Zn1041 O1057 2.024 . S
C1042 O1043 1.229 . S
C1042 O1051 1.058 . S
O1043 C1042 1.229 . S
C1044 O1045 1.229 . S
C1044 O1057 1.058 . S
O1045 C1044 1.229 . S
O1046 Zn1040 1.969 . S
O1046 C1049 1.267 . S
O1047 Zn1040 1.965 . S
O1047 C1058 1.260 . S
O1048 Zn1041 1.969 . S
O1048 C1058 1.258 . S
C1049 O1046 1.267 . S
C1049 O1050 1.228 . S
O1050 C1049 1.228 . S
O1051 Zn1040 2.024 . S
O1051 C1042 1.058 . S
C1052 O1053 1.228 . S
C1052 O1054 1.267 . S
O1053 C1052 1.228 . S
O1054 Zn1041 1.969 . S
O1054 C1052 1.267 . S
O1055 Zn1041 1.965 . S
O1055 C1059 1.260 . S
O1056 Zn1040 1.969 . S
O1056 C1059 1.258 . S
O1057 Zn1041 2.024 . S
O1057 C1044 1.058 . S
C1058 O1047 1.260 . S
C1058 O1048 1.258 . S
C1059 O1055 1.260 . S
C1059 O1056 1.258 . S
Zn1060 O1066 1.969 . S
Zn1060 O1067 1.965 . S
Zn1060 O1071 2.024 . S
Zn1060 O1076 1.969 . S
Zn1061 O1068 1.969 . S
Zn1061 O1074 1.969 . S
Zn1061 O1075 1.965 . S
Zn1061 O1077 2.024 . S
C1062 O1063 1.229 . S
C1062 O1071 1.058 . S
O1063 C1062 1.229 . S
C1064 O1065 1.229 . S
C1064 O1077 1.058 . S
O1065 C1064 1.229 . S
O1066 Zn1060 1.969 . S
O1066 C1069 1.267 . S
O1067 Zn1060 1.965 . S
O1067 C1078 1.260 . S
O1068 Zn1061 1.969 . S
O1068 C1078 1.258 . S
C1069 O1066 1.267 . S
C1069 O1070 1.228 . S
O1070 C1069 1.228 . S
O1071 Zn1060 2.024 . S
O1071 C1062 1.058 . S
C1072 O1073 1.228 . S
C1072 O1074 1.267 . S
O1073 C1072 1.228 . S
O1074 Zn1061 1.969 . S
O1074 C1072 1.267 . S
O1075 Zn1061 1.965 . S
O1075 C1079 1.260 . S
O1076 Zn1060 1.969 . S
O1076 C1079 1.258 . S
O1077 Zn1061 2.024 . S
O1077 C1064 1.058 . S
C1078 O1067 1.260 . S
C1078 O1068 1.258 . S
C1079 O1075 1.260 . S
C1079 O1076 1.258 . S
Zn1080 O1086 1.969 . S
Zn1080 O1087 1.965 . S
Zn1080 O1091 2.024 . S
Zn1080 O1096 1.969 1_455 S
Zn1081 O1088 1.969 . S
Zn1081 O1094 1.969 . S
Zn1081 O1095 1.965 . S
Zn1081 O1097 2.024 . S
C1082 O1083 1.229 . S
C1082 O1091 1.058 . S
O1083 C1082 1.229 . S
C1084 O1085 1.229 . S
C1084 O1097 1.058 . S
O1085 C1084 1.229 . S
O1086 Zn1080 1.969 . S
O1086 C1089 1.267 . S
O1087 Zn1080 1.965 . S
O1087 C1098 1.260 1_455 S
O1088 Zn1081 1.969 . S
O1088 C1098 1.258 . S
C1089 O1086 1.267 . S
C1089 O1090 1.228 . S
O1090 C1089 1.228 . S
O1091 Zn1080 2.024 . S
O1091 C1082 1.058 . S
C1092 O1093 1.228 . S
C1092 O1094 1.267 . S
O1093 C1092 1.228 . S
O1094 Zn1081 1.969 . S
O1094 C1092 1.267 . S
O1095 Zn1081 1.965 . S
O1095 C1099 1.260 . S
O1096 Zn1080 1.969 1_655 S
O1096 C1099 1.258 . S
O1097 Zn1081 2.024 . S
O1097 C1084 1.058 . S
C1098 O1087 1.260 1_655 S
C1098 O1088 1.258 . S
C1099 O1095 1.260 . S
C1099 O1096 1.258 . S
Zn1100 O1106 1.969 . S
Zn1100 O1107 1.965 . S
Zn1100 O1111 2.024 . S
Zn1100 O1116 1.969 . S
Zn1101 O1108 1.969 . S
Zn1101 O1114 1.969 . S
Zn1101 O1115 1.965 . S
Zn1101 O1117 2.024 . S
C1102 O1103 1.229 . S
C1102 O1111 1.058 . S
O1103 C1102 1.229 . S
C1104 O1105 1.229 . S
C1104 O1117 1.058 . S
O1105 C1104 1.229 . S
O1106 Zn1100 1.969 . S
O1106 C1109 1.267 . S
O1107 Zn1100 1.965 . S
O1107 C1118 1.260 . S
O1108 Zn1101 1.969 . S
O1108 C1118 1.258 . S
C1109 O1106 1.267 . S
C1109 O1110 1.228 . S
O1110 C1109 1.228 . S
O1111 Zn1100 2.024 . S
O1111 C1102 1.058 . S
C1112 O1113 1.228 . S
C1112 O1114 1.267 . S
O1113 C1112 1.228 . S
O1114 Zn1101 1.969 . S
O1114 C1112 1.267 . S
O1115 Zn1101 1.965 . S
O1115 C1119 1.260 . S
O1116 Zn1100 1.969 . S
O1116 C1119 1.258 . S
O1117 Zn1101 2.024 . S
O1117 C1104 1.058 . S
C1118 O1107 1.260 . S
C1118 O1108 1.258 . S
C1119 O1115 1.260 . S
C1119 O1116 1.258 . S
Zn1120 O1126 1.969 . S
Zn1120 O1127 1.965 . S
Zn1120 O1131 2.024 . S
Zn1120 O1136 1.969 . S
Zn1121 O1128 1.969 . S
Zn1121 O1134 1.969 . S
Zn1121 O1135 1.965 . S
Zn1121 O1137 2.024 . S
C1122 O1123 1.229 . S
C1122 O1131 1.058 . S
O1123 C1122 1.229 . S
C1124 O1125 1.229 . S
C1124 O1137 1.058 . S
O1125 C1124 1.229 . S
O1126 Zn1120 1.969 . S
O1126 C1129 1.267 . S
O1127 Zn1120 1.965 . S
O1127 C1138 1.260 . S
O1128 Zn1121 1.969 . S
O1128 C1138 1.258 . S
C1129 O1126 1.267 . S
C1129 O1130 1.228 . S
O1130 C1129 1.228 . S
O1131 Zn1120 2.024 . S
O1131 C1122 1.058 . S
C1132 O1133 1.228 . S
C1132 O1134 1.267 . S
O1133 C1132 1.228 . S
O1134 Zn1121 1.969 . S
O1134 C1132 1.267 . S
O1135 Zn1121 1.965 . S
O1135 C1139 1.260 . S
O1136 Zn1120 1.969 . S
O1136 C1139 1.258 . S
O1137 Zn1121 2.024 . S
O1137 C1124 1.058 . S
C1138 O1127 1.260 . S
C1138 O1128 1.258 . S
C1139 O1135 1.260 . S
C1139 O1136 1.258 . S
Zn1140 O1146 1.969 . S
Zn1140 O1147 1.965 . S
Zn1140 O1151 2.024 . S
Zn1140 O1156 1.969 . S
Zn1141 O1148 1.969 . S
Zn1141 O1154 1.969 . S
Zn1141 O1155 1.965 . S
Zn1141 O1157 2.024 . S
C1142 O1143 1.229 . S
C1142 O1151 1.058 . S
O1143 C1142 1.229 . S
C1144 O1145 1.229 . S
C1144 O1157 1.058 . S
O1145 C1144 1.229 . S
O1146 Zn1140 1.969 . S
O1146 C1149 1.267 . S
O1147 Zn1140 1.965 . S
O1147 C1158 1.260 . S
O1148 Zn1141 1.969 . S
O1148 C1158 1.258 . S
C1149 O1146 1.267 . S
C1149 O1150 1.228 . S
O1150 C1149 1.228 . S
O1151 Zn1140 2.024 . S
O1151 C1142 1.058 . S
C1152 O1153 1.228 . S
C1152 O1154 1.267 . S
O1153 C1152 1.228 . S
O1154 Zn1141 1.969 . S
O1154 C1152 1.267 . S
O1155 Zn1141 1.965 . S
O1155 C1159 1.260 . S
O1156 Zn1140 1.969 . S
O1156 C1159 1.258 . S
O1157 Zn1141 2.024 . S
O1157 C1144 1.058 . S
C1158 O1147 1.260 . S
C1158 O1148 1.258 . S
C1159 O1155 1.260 . S
C1159 O1156 1.258 . S
Zn1160 O1166 1.969 . S
Zn1160 O1167 1.965 . S
Zn1160 O1171 2.024 . S
Zn1160 O1176 1.969 . S
Zn1161 O1168 1.969 . S
Zn1161 O1174 1.969 . S
Zn1161 O1175 1.965 . S
Zn1161 O1177 2.024 . S
C1162 O1163 1.229 . S
C1162 O1171 1.058 . S
O1163 C1162 1.229 . S
C1164 O1165 1.229 . S
C1164 O1177 1.058 . S
O1165 C1164 1.229 . S
O1166 Zn1160 1.969 . S
O1166 C1169 1.267 . S
O1167 Zn1160 1.965 . S
O1167 C1178 1.260 . S
O1168 Zn1161 1.969 . S
O1168 C1178 1.258 . S
C1169 O1166 1.267 . S
C1169 O1170 1.228 . S
O1170 C1169 1.228 . S
O1171 Zn1160 2.024 . S
O1171 C1162 1.058 . S
C1172 O1173 1.228 . S
C1172 O1174 1.267 . S
O1173 C1172 1.228 . S
O1174 Zn1161 1.969 . S
O1174 C1172 1.267 . S
O1175 Zn1161 1.965 . S
O1175 C1179 1.260 . S
O1176 Zn1160 1.969 . S
O1176 C1179 1.258 . S
O1177 Zn1161 2.024 . S
O1177 C1164 1.058 . S
C1178 O1167 1.260 . S
C1178 O1168 1.258 . S
C1179 O1175 1.260 . S
C1179 O1176 1.258 . S
Zn1180 O1186 1.969 . S
Zn1180 O1187 1.965 . S
Zn1180 O1191 2.024 . S
Zn1180 O1196 1.969 . S
Zn1181 O1188 1.969 . S
Zn1181 O1194 1.969 . S
Zn1181 O1195 1.965 . S
Zn1181 O1197 2.024 . S
C1182 O1183 1.229 . S
C1182 O1191 1.058 . S
O1183 C1182 1.229 . S
C1184 O1185 1.229 . S
C1184 O1197 1.058 . S
O1185 C1184 1.229 . S
O1186 Zn1180 1.969 . S
O1186 C1189 1.267 . S
O1187 Zn1180 1.965 . S
O1187 C1198 1.260 . S
O1188 Zn1181 1.969 . S
O1188 C1198 1.258 . S
C1189 O1186 1.267 . S
C1189 O1190 1.228 . S
O1190 C1189 1.228 . S
O1191 Zn1180 2.024 . S
O1191 C1182 1.058 . S
C1192 O1193 1.228 . S
C1192 O1194 1.267 . S
O1193 C1192 1.228 . S
O1194 Zn1181 1.969 . S
O1194 C1192 1.267 . S
O1195 Zn1181 1.965 . S
O1195 C1199 1.260 . S
O1196 Zn1180 1.969 . S
O1196 C1199 1.258 . S
O1197 Zn1181 2.024 . S
O1197 C1184 1.058 . S
C1198 O1187 1.260 . S
C1198 O1188 1.258 . S
C1199 O1195 1.260 . S
C1199 O1196 1.258 . S
Zn1200 O1206 1.969 . S
Zn1200 O1207 1.965 . S
Zn1200 O1211 2.024 . S
Zn1200 O1216 1.969 . S
Zn1201 O1208 1.969 . S
Zn1201 O1214 1.969 . S
Zn1201 O1215 1.965 . S
Zn1201 O1217 2.024 . S
C1202 O1203 1.229 . S
C1202 O1211 1.058 . S
O1203 C1202 1.229 . S
C1204 O1205 1.229 . S
C1204 O1217 1.058 . S
O1205 C1204 1.229 . S
O1206 Zn1200 1.969 . S
O1206 C1209 1.267 . S
O1207 Zn1200 1.965 . S
O1207 C1218 1.260 . S
O1208 Zn1201 1.969 . S
O1208 C1218 1.258 . S
C1209 O1206 1.267 . S
C1209 O1210 1.228 . S
O1210 C1209 1.228 . S
O1211 Zn1200 2.024 . S
O1211 C1202 1.058 . S
C1212 O1213 1.228 . S
C1212 O1214 1.267 . S
O1213 C1212 1.228 . S
O1214 Zn1201 1.969 . S
O1214 C1212 1.267 . S
O1215 Zn1201 1.965 . S
O1215 C1219 1.260 . S
O1216 Zn1200 1.969 . S
O1216 C1219 1.258 . S
O1217 Zn1201 2.024 . S
O1217 C1204 1.058 . S
C1218 O1207 1.260 . S
C1218 O1208 1.258 . S
C1219 O1215 1.260 . S
C1219 O1216 1.258 . S
Zn1220 O1226 1.969 . S
Zn1220 O1227 1.965 . S
Zn1220 O1231 2.024 . S
Zn1220 O1236 1.969 . S
Zn1221 O1228 1.969 . S
Zn1221 O1234 1.969 . S
Zn1221 O1235 1.965 . S
Zn1221 O1237 2.024 . S
C1222 O1223 1.229 . S
C1222 O1231 1.058 . S
O1223 C1222 1.229 . S
C1224 O1225 1.229 . S
C1224 O1237 1.058 . S
O1225 C1224 1.229 . S
O1226 Zn1220 1.969 . S
O1226 C1229 1.267 . S
O1227 Zn1220 1.965 . S
O1227 C1238 1.260 . S
O1228 Zn1221 1.969 . S
O1228 C1238 1.258 . S
C1229 O1226 1.267 . S
C1229 O1230 1.228 . S
O1230 C1229 1.228 . S
O1231 Zn1220 2.024 . S
O1231 C1222 1.058 . S
C1232 O1233 1.228 . S
C1232 O1234 1.267 . S
O1233 C1232 1.228 . S
O1234 Zn1221 1.969 . S
O1234 C1232 1.267 . S
O1235 Zn1221 1.965 . S
O1235 C1239 1.260 . S
O1236 Zn1220 1.969 . S
O1236 C1239 1.258 . S
O1237 Zn1221 2.024 . S
O1237 C1224 1.058 . S
C1238 O1227 1.260 . S
C1238 O1228 1.258 . S
C1239 O1235 1.260 . S
C1239 O1236 1.258 . S
Zn1240 O1246 1.969 . S
Zn1240 O1247 1.965 . S
Zn1240 O1251 2.024 . S
Zn1240 O1256 1.969 . S
Zn1241 O1248 1.969 . S
Zn1241 O1254 1.969 . S
Zn1241 O1255 1.965 . S
Zn1241 O1257 2.024 . S
C1242 O1243 1.229 . S
C1242 O1251 1.058 . S
O1243 C1242 1.229 . S
C1244 O1245 1.229 . S
C1244 O1257 1.058 . S
O1245 C1244 1.229 . S
O1246 Zn1240 1.969 . S
O1246 C1249 1.267 . S
O1247 Zn1240 1.965 . S
O1247 C1258 1.260 . S
O1248 Zn1241 1.969 . S
O1248 C1258 1.258 . S
C1249 O1246 1.267 . S
C1249 O1250 1.228 . S
O1250 C1249 1.228 . S
O1251 Zn1240 2.024 . S
O1251 C1242 1.058 . S
C1252 O1253 1.228 . S
C1252 O1254 1.267 . S
O1253 C1252 1.228 . S
O1254 Zn1241 1.969 . S
O1254 C1252 1.267 . S
O1255 Zn1241 1.965 . S
O1255 C1259 1.260 . S
O1256 Zn1240 1.969 . S
O1256 C1259 1.258 . S
O1257 Zn1241 2.024 . S
O1257 C1244 1.058 . S
C1258 O1247 1.260 . S
C1258 O1248 1.258 . S
C1259 O1255 1.260 . S
C1259 O1256 1.258 . S
Zn1260 O1266 1.969 . S
Zn1260 O1267 1.965 . S
Zn1260 O1271 2.024 . S
Zn1260 O1276 1.969 . S
Zn1261 O1268 1.969 . S
Zn1261 O1274 1.969 . S
Zn1261 O1275 1.965 . S
Zn1261 O1277 2.024 . S
C1262 O1263 1.229 . S
C1262 O1271 1.058 . S
O1263 C1262 1.229 . S
C1264 O1265 1.229 . S
C1264 O1277 1.058 . S
O1265 C1264 1.229 . S
O1266 Zn1260 1.969 . S
O1266 C1269 1.267 . S
O1267 Zn1260 1.965 . S
O1267 C1278 1.260 . S
O1268 Zn1261 1.969 . S
O1268 C1278 1.258 . S
C1269 O1266 1.267 . S
C1269 O1270 1.228 . S
O1270 C1269 1.228 . S
O1271 Zn1260 2.024 . S
O1271 C1262 1.058 . S
C1272 O1273 1.228 . S
C1272 O1274 1.267 . S
O1273 C1272 1.228 . S
O1274 Zn1261 1.969 . S
O1274 C1272 1.267 . S
O1275 Zn1261 1.965 . S
O1275 C1279 1.260 . S
O1276 Zn1260 1.969 . S
O1276 C1279 1.258 . S
O1277 Zn1261 2.024 . S
O1277 C1264 1.058 . S
C1278 O1267 1.260 . S
C1278 O1268 1.258 . S
C1279 O1275 1.260 . S
C1279 O1276 1.258 . S
Zn1280 O1286 1.969 . S
Zn1280 O1287 1.965 . S
Zn1280 O1291 2.024 . S
Zn1280 O1296 1.969 . S
Zn1281 O1288 1.969 . S
Zn1281 O1294 1.969 . S
Zn1281 O1295 1.965 . S
Zn1281 O1297 2.024 . S
C1282 O1283 1.229 . S
C1282 O1291 1.058 . S
O1283 C1282 1.229 . S
C1284 O1285 1.229 . S
C1284 O1297 1.058 . S
O1285 C1284 1.229 . S
O1286 Zn1280 1.969 . S
O1286 C1289 1.267 . S
O1287 Zn1280 1.965 . S
O1287 C1298 1.260 . S
O1288 Zn1281 1.969 . S
O1288 C1298 1.258 . S
C1289 O1286 1.267 . S
C1289 O1290 1.228 . S
O1290 C1289 1.228 . S
O1291 Zn1280 2.024 . S
O1291 C1282 1.058 . S
C1292 O1293 1.228 . S
C1292 O1294 1.267 . S
O1293 C1292 1.228 . S
O1294 Zn1281 1.969 . S
O1294 C1292 1.267 . S
O1295 Zn1281 1.965 . S
O1295 C1299 1.260 . S
O1296 Zn1280 1.969 . S
O1296 C1299 1.258 . S
O1297 Zn1281 2.024 . S
O1297 C1284 1.058 . S
C1298 O1287 1.260 . S
C1298 O1288 1.258 . S
C1299 O1295 1.260 . S
C1299 O1296 1.258 . S
Zn1300 O1306 1.969 . S
Zn1300 O1307 1.965 . S
Zn1300 O1311 2.024 . S
Zn1300 O1316 1.969 . S
Zn1301 O1308 1.969 . S
Zn1301 O1314 1.969 . S
Zn1301 O1315 1.965 . S
Zn1301 O1317 2.024 . S
C1302 O1303 1.229 . S
C1302 O1311 1.058 . S
O1303 C1302 1.229 . S
C1304 O1305 1.229 . S
C1304 O1317 1.058 . S
O1305 C1304 1.229 . S
O1306 Zn1300 1.969 . S
O1306 C1309 1.267 . S
O1307 Zn1300 1.965 . S
O1307 C1318 1.260 . S
O1308 Zn1301 1.969 . S
O1308 C1318 1.258 . S
C1309 O1306 1.267 . S
C1309 O1310 1.228 . S
O1310 C1309 1.228 . S
O1311 Zn1300 2.024 . S
O1311 C1302 1.058 . S
C1312 O1313 1.228 . S
C1312 O1314 1.267 . S
O1313 C1312 1.228 . S
O1314 Zn1301 1.969 . S
O1314 C1312 1.267 . S
O1315 Zn1301 1.965 . S
O1315 C1319 1.260 . S
O1316 Zn1300 1.969 . S
O1316 C1319 1.258 . S
O1317 Zn1301 2.024 . S
O1317 C1304 1.058 . S
C1318 O1307 1.260 . S
C1318 O1308 1.258 . S
C1319 O1315 1.260 . S
C1319 O1316 1.258 . S
Zn1320 O1326 1.969 . S
Zn1320 O1327 1.965 . S
Zn1320 O1331 2.024 . S
Zn1320 O1336 1.969 . S
Zn1321 O1328 1.969 . S
Zn1321 O1334 1.969 . S
Zn1321 O1335 1.965 . S
Zn1321 O1337 2.024 . S
C1322 O1323 1.229 . S
C1322 O1331 1.058 . S
O1323 C1322 1.229 . S
C1324 O1325 1.229 . S
C1324 O1337 1.058 . S
O1325 C1324 1.229 . S
O1326 Zn1320 1.969 . S
O1326 C1329 1.267 . S
O1327 Zn1320 1.965 . S
O1327 C1338 1.260 . S
O1328 Zn1321 1.969 . S
O1328 C1338 1.258 . S
C1329 O1326 1.267 . S
C1329 O1330 1.228 . S
O1330 C1329 1.228 . S
O1331 Zn1320 2.024 . S
O1331 C1322 1.058 . S
C1332 O1333 1.228 . S
C1332 O1334 1.267 . S
O1333 C1332 1.228 . S
O1334 Zn1321 1.969 . S
O1334 C1332 1.267 . S
O1335 Zn1321 1.965 . S
O1335 C1339 1.260 . S
O1336 Zn1320 1.969 . S
O1336 C1339 1.258 . S
O1337 Zn1321 2.024 . S
O1337 C1324 1.058 . S
C1338 O1327 1.260 . S
C1338 O1328 1.258 . S
C1339 O1335 1.260 . S
C1339 O1336 1.258 . S
Zn1340 O1346 1.969 . S
Zn1340 O1347 1.960 1_554 S
Zn1340 O1351 2.024 . S
Zn1340 O1356 1.969 1_554 S
Zn1341 O1348 1.969 . S
Zn1341 O1354 1.969 . S
Zn1341 O1355 1.965 . S
Zn1341 O1357 2.024 . S
C1342 O1343 1.229 . S
C1342 O1351 1.058 . S
O1343 C1342 1.229 . S
C1344 O1345 1.229 . S
C1344 O1357 1.058 . S
O1345 C1344 1.229 . S
O1346 Zn1340 1.969 . S
O1346 C1349 1.267 . S
O1347 Zn1340 1.960 1_556 S
O1347 C1358 1.267 . S
O1348 Zn1341 1.969 . S
O1348 C1358 1.258 . S
C1349 O1346 1.267 . S
C1349 O1350 1.228 . S
O1350 C1349 1.228 . S
O1351 Zn1340 2.024 . S
O1351 C1342 1.058 . S
C1352 O1353 1.228 . S
C1352 O1354 1.267 . S
O1353 C1352 1.228 . S
O1354 Zn1341 1.969 . S
O1354 C1352 1.267 . S
O1355 Zn1341 1.965 . S
O1355 C1359 1.260 . S
O1356 Zn1340 1.969 1_556 S
O1356 C1359 1.258 . S
O1357 Zn1341 2.024 . S
O1357 C1344 1.058 . S
C1358 O1347 1.267 . S
C1358 O1348 1.258 . S
C1359 O1355 1.260 . S
C1359 O1356 1.258 . S
Zn1360 O1366 1.969 . S
Zn1360 O1367 1.965 . S
Zn1360 O1371 2.024 . S
Zn1360 O1376 1.969 . S
Zn1361 O1368 1.969 . S
Zn1361 O1374 1.969 . S
Zn1361 O1375 1.965 . S
Zn1361 O1377 2.024 . S
C1362 O1363 1.229 . S
C1362 O1371 1.058 . S
O1363 C1362 1.229 . S
C1364 O1365 1.229 . S
C1364 O1377 1.058 . S
O1365 C1364 1.229 . S
O1366 Zn1360 1.969 . S
O1366 C1369 1.267 . S
O1367 Zn1360 1.965 . S
O1367 C1378 1.260 . S
O1368 Zn1361 1.969 . S
O1368 C1378 1.258 . S
C1369 O1366 1.267 . S
C1369 O1370 1.228 . S
O1370 C1369 1.228 . S
O1371 Zn1360 2.024 . S
O1371 C1362 1.058 . S
C1372 O1373 1.228 . S
C1372 O1374 1.267 . S
O1373 C1372 1.228 . S
O1374 Zn1361 1.969 . S
O1374 C1372 1.267 . S
O1375 Zn1361 1.965 . S
O1375 C1379 1.260 . S
O1376 Zn1360 1.969 . S
O1376 C1379 1.258 . S
O1377 Zn1361 2.024 . S
O1377 C1364 1.058 . S
C1378 O1367 1.260 . S
C1378 O1368 1.258 . S
C1379 O1375 1.260 . S
C1379 O1376 1.258 . S
Zn1380 O1386 1.969 . S
Zn1380 O1387 1.965 . S
Zn1380 O1391 2.024 . S
Zn1380 O1396 1.969 . S
Zn1381 O1388 1.969 1_556 S
Zn1381 O1394 1.969 . S
Zn1381 O1395 1.965 1_556 S
Zn1381 O1397 2.024 . S
C1382 O1383 1.229 . S
C1382 O1391 1.058 . S
O1383 C1382 1.229 . S
C1384 O1385 1.229 . S
C1384 O1397 1.058 . S
O1385 C1384 1.229 . S
O1386 Zn1380 1.969 . S
O1386 C1389 1.267 . S
O1387 Zn1380 1.965 . S
O1387 C1398 1.260 . S
O1388 Zn1381 1.969 1_554 S
O1388 C1398 1.258 . S
C1389 O1386 1.267 . S
C1389 O1390 1.228 . S
O1390 C1389 1.228 . S
O1391 Zn1380 2.024 . S
O1391 C1382 1.058 . S
C1392 O1393 1.228 . S
C1392 O1394 1.267 . S
O1393 C1392 1.228 . S
O1394 Zn1381 1.969 . S
O1394 C1392 1.267 . S
O1395 Zn1381 1.965 1_554 S
O1395 C1399 1.260 . S
O1396 Zn1380 1.969 . S
O1396 C1399 1.258 . S
O1397 Zn1381 2.024 . S
O1397 C1384 1.058 . S
C1398 O1387 1.260 . S
C1398 O1388 1.258 . S
C1399 O1395 1.260 . S
C1399 O1396 1.258 . S
Zn1400 O1406 1.969 . S
Zn1400 O1407 1.965 . S
Zn1400 O1411 2.024 . S
Zn1400 O1416 1.969 . S
Zn1401 O1408 1.969 . S
Zn1401 O1414 1.969 . S
Zn1401 O1415 1.965 . S
Zn1401 O1417 2.024 . S
C1402 O1403 1.229 . S
C1402 O1411 1.058 . S
O1403 C1402 1.229 . S
C1404 O1405 1.229 . S
C1404 O1417 1.058 . S
O1405 C1404 1.229 . S
O1406 Zn1400 1.969 . S
O1406 C1409 1.267 . S
O1407 Zn1400 1.965 . S
O1407 C1418 1.260 . S
O1408 Zn1401 1.969 . S
O1408 C1418 1.258 . S
C1409 O1406 1.267 . S
C1409 O1410 1.228 . S
O1410 C1409 1.228 . S
O1411 Zn1400 2.024 . S
O1411 C1402 1.058 . S
C1412 O1413 1.228 . S
C1412 O1414 1.267 . S
O1413 C1412 1.228 . S
O1414 Zn1401 1.969 . S
O1414 C1412 1.267 . S
O1415 Zn1401 1.965 . S
O1415 C1419 1.260 . S
O1416 Zn1400 1.969 . S
O1416 C1419 1.258 . S
O1417 Zn1401 2.024 . S
O1417 C1404 1.058 . S
C1418 O1407 1.260 . S
C1418 O1408 1.258 . S
C1419 O1415 1.260 . S
C1419 O1416 1.258 . S
Zn1420 O1426 1.969 . S
Zn1420 O1427 1.965 . S
Zn1420 O1431 2.024 . S
Zn1420 O1436 1.969 . S
Zn1421 O1428 1.969 . S
Zn1421 O1434 1.969 . S
Zn1421 O1435 1.965 . S
Zn1421 O1437 2.024 . S
C1422 O1423 1.229 . S
C1422 O1431 1.058 . S
O1423 C1422 1.229 . S
C1424 O1425 1.229 . S
C1424 O1437 1.058 . S
O1425 C1424 1.229 . S
O1426 Zn1420 1.969 . S
O1426 C1429 1.267 . S
O1427 Zn1420 1.965 . S
O1427 C1438 1.260 . S
O1428 Zn1421 1.969 . S
O1428 C1438 1.258 . S
C1429 O1426 1.267 . S
C1429 O1430 1.228 . S
O1430 C1429 1.228 . S
O1431 Zn1420 2.024 . S
O1431 C1422 1.058 . S
C1432 O1433 1.228 . S
C1432 O1434 1.267 . S
O1433 C1432 1.228 . S
O1434 Zn1421 1.969 . S
O1434 C1432 1.267 . S
O1435 Zn1421 1.965 . S
O1435 C1439 1.260 . S
O1436 Zn1420 1.969 . S
O1436 C1439 1.258 . S
O1437 Zn1421 2.024 . S
O1437 C1424 1.058 . S
C1438 O1427 1.260 . S
C1438 O1428 1.258 . S
C1439 O1435 1.260 . S
C1439 O1436 1.258 . S
Zn1440 O1446 1.969 . S
Zn1440 O1447 1.965 . S
Zn1440 O1451 2.024 . S
Zn1440 O1456 1.969 . S
Zn1441 O1448 1.969 . S
Zn1441 O1454 1.969 . S
Zn1441 O1455 1.965 . S
Zn1441 O1457 2.024 . S
C1442 O1443 1.229 . S
C1442 O1451 1.058 . S
O1443 C1442 1.229 . S
C1444 O1445 1.229 . S
C1444 O1457 1.058 . S
O1445 C1444 1.229 . S
O1446 Zn1440 1.969 . S
O1446 C1449 1.267 . S
O1447 Zn1440 1.965 . S
O1447 C1458 1.260 . S
O1448 Zn1441 1.969 . S
O1448 C1458 1.258 . S
C1449 O1446 1.267 . S
C1449 O1450 1.228 . S
O1450 C1449 1.228 . S
O1451 Zn1440 2.024 . S
O1451 C1442 1.058 . S
C1452 O1453 1.228 . S
C1452 O1454 1.267 . S
O1453 C1452 1.228 . S
O1454 Zn1441 1.969 . S
O1454 C1452 1.267 . S
O1455 Zn1441 1.965 . S
O1455 C1459 1.260 . S
O1456 Zn1440 1.969 . S
O1456 C1459 1.258 . S
O1457 Zn1441 2.024 . S
O1457 C1444 1.058 . S
C1458 O1447 1.260 . S
C1458 O1448 1.258 . S
C1459 O1455 1.260 . S
C1459 O1456 1.258 . S
Zn1460 O1466 1.969 . S
Zn1460 O1467 1.965 . S
Zn1460 O1471 2.024 . S
Zn1460 O1476 1.969 . S
Zn1461 O1468 1.969 . S
Zn1461 O1474 1.969 . S
Zn1461 O1475 1.965 . S
Zn1461 O1477 2.024 . S
C1462 O1463 1.229 . S
C1462 O1471 1.058 . S
O1463 C1462 1.229 . S
C1464 O1465 1.229 . S
C1464 O1477 1.058 . S
O1465 C1464 1.229 . S
O1466 Zn1460 1.969 . S
O1466 C1469 1.267 . S
O1467 Zn1460 1.965 . S
O1467 C1478 1.260 . S
O1468 Zn1461 1.969 . S
O1468 C1478 1.258 . S
C1469 O1466 1.267 . S
C1469 O1470 1.228 . S
O1470 C1469 1.228 . S
O1471 Zn1460 2.024 . S
O1471 C1462 1.058 . S
C1472 O1473 1.228 . S
C1472 O1474 1.267 . S
O1473 C1472 1.228 . S
O1474 Zn1461 1.969 . S
O1474 C1472 1.267 . S
O1475 Zn1461 1.965 . S
O1475 C1479 1.260 . S
O1476 Zn1460 1.969 . S
O1476 C1479 1.258 . S
O1477 Zn1461 2.024 . S
O1477 C1464 1.058 . S
C1478 O1467 1.260 . S
C1478 O1468 1.258 . S
C1479 O1475 1.260 . S
C1479 O1476 1.258 . S
Zn1480 O1486 1.969 . S
Zn1480 O1487 1.965 . S
Zn1480 O1491 2.024 . S
Zn1480 O1496 1.969 . S
Zn1481 O1488 1.969 1_655 S
Zn1481 O1494 1.969 . S
Zn1481 O1495 1.965 . S
Zn1481 O1497 2.024 . S
C1482 O1483 1.229 . S
C1482 O1491 1.058 . S
O1483 C1482 1.229 . S
C1484 O1485 1.229 . S
C1484 O1497 1.058 . S
O1485 C1484 1.229 . S
O1486 Zn1480 1.969 . S
O1486 C1489 1.267 . S
O1487 Zn1480 1.965 . S
O1487 C1498 1.260 . S
O1488 Zn1481 1.969 1_455 S
O1488 C1498 1.258 . S
C1489 O1486 1.267 . S
C1489 O1490 1.228 . S
O1490 C1489 1.228 . S
O1491 Zn1480 2.024 . S
O1491 C1482 1.058 . S
C1492 O1493 1.228 . S
C1492 O1494 1.267 . S
O1493 C1492 1.228 . S
O1494 Zn1481 1.969 . S
O1494 C1492 1.267 . S
O1495 Zn1481 1.965 . S
O1495 C1499 1.260 1_655 S
O1496 Zn1480 1.969 . S
O1496 C1499 1.258 . S
O1497 Zn1481 2.024 . S
O1497 C1484 1.058 . S
C1498 O1487 1.260 . S
C1498 O1488 1.258 . S
C1499 O1495 1.260 1_455 S
C1499 O1496 1.258 . S
Zn1500 O1506 1.969 . S
Zn1500 O1507 1.965 . S
Zn1500 O1511 2.024 . S
Zn1500 O1516 1.969 . S
Zn1501 O1508 1.969 . S
Zn1501 O1514 1.969 . S
Zn1501 O1515 1.965 . S
Zn1501 O1517 2.024 . S
C1502 O1503 1.229 . S
C1502 O1511 1.058 . S
O1503 C1502 1.229 . S
C1504 O1505 1.229 . S
C1504 O1517 1.058 . S
O1505 C1504 1.229 . S
O1506 Zn1500 1.969 . S
O1506 C1509 1.267 . S
O1507 Zn1500 1.965 . S
O1507 C1518 1.260 . S
O1508 Zn1501 1.969 . S
O1508 C1518 1.258 . S
C1509 O1506 1.267 . S
C1509 O1510 1.228 . S
O1510 C1509 1.228 . S
O1511 Zn1500 2.024 . S
O1511 C1502 1.058 . S
C1512 O1513 1.228 . S
C1512 O1514 1.267 . S
O1513 C1512 1.228 . S
O1514 Zn1501 1.969 . S
O1514 C1512 1.267 . S
O1515 Zn1501 1.965 . S
O1515 C1519 1.260 . S
O1516 Zn1500 1.969 . S
O1516 C1519 1.258 . S
O1517 Zn1501 2.024 . S
O1517 C1504 1.058 . S
C1518 O1507 1.260 . S
C1518 O1508 1.258 . S
C1519 O1515 1.260 . S
C1519 O1516 1.258 . S
Zn1520 O1526 1.969 . S
Zn1520 O1527 1.965 . S
Zn1520 O1531 2.024 . S
Zn1520 O1536 1.969 . S
Zn1521 O1528 1.969 . S
Zn1521 O1534 1.969 . S
Zn1521 O1535 1.965 . S
Zn1521 O1537 2.024 . S
C1522 O1523 1.229 . S
C1522 O1531 1.058 . S
O1523 C1522 1.229 . S
C1524 O1525 1.229 . S
C1524 O1537 1.058 . S
O1525 C1524 1.229 . S
O1526 Zn1520 1.969 . S
O1526 C1529 1.267 . S
O1527 Zn1520 1.965 . S
O1527 C1538 1.260 . S
O1528 Zn1521 1.969 . S
O1528 C1538 1.258 . S
C1529 O1526 1.267 . S
C1529 O1530 1.228 . S
O1530 C1529 1.228 . S
O1531 Zn1520 2.024 . S
O1531 C1522 1.058 . S
C1532 O1533 1.228 . S
C1532 O1534 1.267 . S
O1533 C1532 1.228 . S
O1534 Zn1521 1.969 . S
O1534 C1532 1.267 . S
O1535 Zn1521 1.965 . S
O1535 C1539 1.260 . S
O1536 Zn1520 1.969 . S
O1536 C1539 1.258 . S
O1537 Zn1521 2.024 . S
O1537 C1524 1.058 . S
C1538 O1527 1.260 . S
C1538 O1528 1.258 . S
C1539 O1535 1.260 . S
C1539 O1536 1.258 . S
Zn1540 O1546 1.969 . S
Zn1540 O1547 1.965 . S
Zn1540 O1551 2.024 . S
Zn1540 O1556 1.969 . S
Zn1541 O1548 1.969 . S
Zn1541 O1554 1.969 . S
Zn1541 O1555 1.965 . S
Zn1541 O1557 2.024 . S
C1542 O1543 1.229 . S
C1542 O1551 1.058 . S
O1543 C1542 1.229 . S
C1544 O1545 1.229 . S
C1544 O1557 1.058 . S
O1545 C1544 1.229 . S
O1546 Zn1540 1.969 . S
O1546 C1549 1.267 . S
O1547 Zn1540 1.965 . S
O1547 C1558 1.260 . S
O1548 Zn1541 1.969 . S
O1548 C1558 1.258 . S
C1549 O1546 1.267 . S
C1549 O1550 1.228 . S
O1550 C1549 1.228 . S
O1551 Zn1540 2.024 . S
O1551 C1542 1.058 . S
C1552 O1553 1.228 . S
C1552 O1554 1.267 . S
O1553 C1552 1.228 . S
O1554 Zn1541 1.969 . S
O1554 C1552 1.267 . S
O1555 Zn1541 1.965 . S
O1555 C1559 1.260 . S
O1556 Zn1540 1.969 . S
O1556 C1559 1.258 . S
O1557 Zn1541 2.024 . S
O1557 C1544 1.058 . S
C1558 O1547 1.260 . S
C1558 O1548 1.258 . S
C1559 O1555 1.260 . S
C1559 O1556 1.258 . S
Zn1560 O1566 1.969 . S
Zn1560 O1567 1.965 . S
Zn1560 O1571 2.024 . S
Zn1560 O1576 1.969 . S
Zn1561 O1568 1.969 1_655 S
Zn1561 O1574 1.969 . S
Zn1561 O1575 1.965 . S
Zn1561 O1577 2.024 . S
C1562 O1563 1.229 . S
C1562 O1571 1.058 . S
O1563 C1562 1.229 . S
C1564 O1565 1.229 . S
C1564 O1577 1.058 . S
O1565 C1564 1.229 . S
O1566 Zn1560 1.969 . S
O1566 C1569 1.267 . S
O1567 Zn1560 1.965 . S
O1567 C1578 1.260 . S
O1568 Zn1561 1.969 1_455 S
O1568 C1578 1.258 . S
C1569 O1566 1.267 . S
C1569 O1570 1.228 . S
O1570 C1569 1.228 . S
O1571 Zn1560 2.024 . S
O1571 C1562 1.058 . S
C1572 O1573 1.228 . S
C1572 O1574 1.267 . S
O1573 C1572 1.228 . S
O1574 Zn1561 1.969 . S
O1574 C1572 1.267 . S
O1575 Zn1561 1.965 . S
O1575 C1579 1.260 1_655 S
O1576 Zn1560 1.969 . S
O1576 C1579 1.258 . S
O1577 Zn1561 2.024 . S
O1577 C1564 1.058 . S
C1578 O1567 1.260 . S
C1578 O1568 1.258 . S
C1579 O1575 1.260 1_455 S
C1579 O1576 1.258 . S
Zn1580 O1586 1.969 . S
Zn1580 O1587 1.965 . S
Zn1580 O1591 2.024 . S
Zn1580 O1596 1.969 . S
Zn1581 O1588 1.969 . S
Zn1581 O1594 1.969 . S
Zn1581 O1595 1.965 . S
Zn1581 O1597 2.024 . S
C1582 O1583 1.229 . S
C1582 O1591 1.058 . S
O1583 C1582 1.229 . S
C1584 O1585 1.229 . S
C1584 O1597 1.058 . S
O1585 C1584 1.229 . S
O1586 Zn1580 1.969 . S
O1586 C1589 1.267 . S
O1587 Zn1580 1.965 . S
O1587 C1598 1.260 . S
O1588 Zn1581 1.969 . S
O1588 C1598 1.258 . S
C1589 O1586 1.267 . S
C1589 O1590 1.228 . S
O1590 C1589 1.228 . S
O1591 Zn1580 2.024 . S
O1591 C1582 1.058 . S
C1592 O1593 1.228 . S
C1592 O1594 1.267 . S
O1593 C1592 1.228 . S
O1594 Zn1581 1.969 . S
O1594 C1592 1.267 . S
O1595 Zn1581 1.965 . S
O1595 C1599 1.260 . S
O1596 Zn1580 1.969 . S
O1596 C1599 1.258 . S
O1597 Zn1581 2.024 . S
O1597 C1584 1.058 . S
C1598 O1587 1.260 . S
C1598 O1588 1.258 . S
C1599 O1595 1.260 . S
C1599 O1596 1.258 . S
Zn1600 O1606 1.969 . S
Zn1600 O1607 1.965 . S
Zn1600 O1611 2.024 . S
Zn1600 O1616 1.969 . S
Zn1601 O1608 1.969 . S
Zn1601 O1614 1.969 . S
Zn1601 O1615 1.965 . S
Zn1601 O1617 2.024 . S
C1602 O1603 1.229 . S
C1602 O1611 1.058 . S
O1603 C1602 1.229 . S
C1604 O1605 1.229 . S
C1604 O1617 1.058 . S
O1605 C1604 1.229 . S
O1606 Zn1600 1.969 . S
O1606 C1609 1.267 . S
O1607 Zn1600 1.965 . S
O1607 C1618 1.260 . S
O1608 Zn1601 1.969 . S
O1608 C1618 1.258 . S
C1609 O1606 1.267 . S
C1609 O1610 1.228 . S
O1610 C1609 1.228 . S
O1611 Zn1600 2.024 . S
O1611 C1602 1.058 . S
C1612 O1613 1.228 . S
C1612 O1614 1.267 . S
O1613 C1612 1.228 . S
O1614 Zn1601 1.969 . S
O1614 C1612 1.267 . S
O1615 Zn1601 1.965 . S
O1615 C1619 1.260 . S
O1616 Zn1600 1.969 . S
O1616 C1619 1.258 . S
O1617 Zn1601 2.024 . S
O1617 C1604 1.058 . S
C1618 O1607 1.260 . S
C1618 O1608 1.258 . S
C1619 O1615 1.260 . S
C1619 O1616 1.258 . S
Zn1620 O1626 1.969 . S
Zn1620 O1627 1.965 . S
Zn1620 O1631 2.024 . S
Zn1620 O1636 1.969 . S
Zn1621 O1628 1.969 . S
Zn1621 O1634 1.969 . S
Zn1621 O1635 1.965 . S
Zn1621 O1637 2.024 . S
C1622 O1623 1.229 . S
C1622 O1631 1.058 . S
O1623 C1622 1.229 . S
C1624 O1625 1.229 . S
C1624 O1637 1.058 . S
O1625 C1624 1.229 . S
O1626 Zn1620 1.969 . S
O1626 C1629 1.267 . S
O1627 Zn1620 1.965 . S
O1627 C1638 1.260 . S
O1628 Zn1621 1.969 . S
O1628 C1638 1.258 . S
C1629 O1626 1.267 . S
C1629 O1630 1.228 . S
O1630 C1629 1.228 . S
O1631 Zn1620 2.024 . S
O1631 C1622 1.058 . S
C1632 O1633 1.228 . S
C1632 O1634 1.267 . S
O1633 C1632 1.228 . S
O1634 Zn1621 1.969 . S
O1634 C1632 1.267 . S
O1635 Zn1621 1.965 . S
O1635 C1639 1.260 . S
O1636 Zn1620 1.969 . S
O1636 C1639 1.258 . S
O1637 Zn1621 2.024 . S
O1637 C1624 1.058 . S
C1638 O1627 1.260 . S
C1638 O1628 1.258 . S
C1639 O1635 1.260 . S
C1639 O1636 1.258 . S
Zn1640 O1646 1.969 . S
Zn1640 O1647 1.965 . S
Zn1640 O1651 2.024 . S
Zn1640 O1656 1.969 . S
Zn1641 O1648 1.969 . S
Zn1641 O1654 1.969 . S
Zn1641 O1655 1.965 . S
Zn1641 O1657 2.024 . S
C1642 O1643 1.229 . S
C1642 O1651 1.058 . S
O1643 C1642 1.229 . S
C1644 O1645 1.229 . S
C1644 O1657 1.058 . S
O1645 C1644 1.229 . S
O1646 Zn1640 1.969 . S
O1646 C1649 1.267 . S
O1647 Zn1640 1.965 . S
O1647 C1658 1.260 . S
O1648 Zn1641 1.969 . S
O1648 C1658 1.258 . S
C1649 O1646 1.267 . S
C1649 O1650 1.228 . S
O1650 C1649 1.228 . S
O1651 Zn1640 2.024 . S
O1651 C1642 1.058 . S
C1652 O1653 1.228 . S
C1652 O1654 1.267 . S
O1653 C1652 1.228 . S
O1654 Zn1641 1.969 . S
O1654 C1652 1.267 . S
O1655 Zn1641 1.965 . S
O1655 C1659 1.260 . S
O1656 Zn1640 1.969 . S
O1656 C1659 1.258 . S
O1657 Zn1641 2.024 . S
O1657 C1644 1.058 . S
C1658 O1647 1.260 . S
C1658 O1648 1.258 . S
C1659 O1655 1.260 . S
C1659 O1656 1.258 . S
Zn1660 O1666 1.969 . S
Zn1660 O1667 1.965 . S
Zn1660 O1671 2.024 . S
Zn1660 O1676 1.969 . S
Zn1661 O1668 1.969 . S
Zn1661 O1674 1.969 . S
Zn1661 O1675 1.965 . S
Zn1661 O1677 2.024 . S
C1662 O1663 1.229 . S
C1662 O1671 1.058 . S
O1663 C1662 1.229 . S
C1664 O1665 1.229 . S
C1664 O1677 1.058 . S
O1665 C1664 1.229 . S
O1666 Zn1660 1.969 . S
O1666 C1669 1.267 . S
O1667 Zn1660 1.965 . S
O1667 C1678 1.260 . S
O1668 Zn1661 1.969 . S
O1668 C1678 1.258 . S
C1669 O1666 1.267 . S
C1669 O1670 1.228 . S
O1670 C1669 1.228 . S
O1671 Zn1660 2.024 . S
O1671 C1662 1.058 . S
C1672 O1673 1.228 . S
C1672 O1674 1.267 . S
O1673 C1672 1.228 . S
O1674 Zn1661 1.969 . S
O1674 C1672 1.267 . S
O1675 Zn1661 1.965 . S
O1675 C1679 1.260 . S
O1676 Zn1660 1.969 . S
O1676 C1679 1.258 . S
O1677 Zn1661 2.024 . S
O1677 C1664 1.058 . S
C1678 O1667 1.260 . S
C1678 O1668 1.258 . S
C1679 O1675 1.260 . S
C1679 O1676 1.258 . S
Zn1680 O1686 1.969 . S
Zn1680 O1687 1.965 . S
Zn1680 O1691 2.024 . S
Zn1680 O1696 1.969 . S
Zn1681 O1688 1.969 . S
Zn1681 O1694 1.969 . S
Zn1681 O1695 1.965 . S
Zn1681 O1697 2.024 . S
C1682 O1683 1.229 . S
C1682 O1691 1.058 . S
O1683 C1682 1.229 . S
C1684 O1685 1.229 . S
C1684 O1697 1.058 . S
O1685 C1684 1.229 . S
O1686 Zn1680 1.969 . S
O1686 C1689 1.267 . S
O1687 Zn1680 1.965 . S
O1687 C1698 1.260 . S
O1688 Zn1681 1.969 . S
O1688 C1698 1.258 . S
C1689 O1686 1.267 . S
C1689 O1690 1.228 . S
O1690 C1689 1.228 . S
O1691 Zn1680 2.024 . S
O1691 C1682 1.058 . S
C1692 O1693 1.228 . S
C1692 O1694 1.267 . S
O1693 C1692 1.228 . S
O1694 Zn1681 1.969 . S
O1694 C1692 1.267 . S
O1695 Zn1681 1.965 . S
O1695 C1699 1.260 . S
O1696 Zn1680 1.969 . S
O1696 C1699 1.258 . S
O1697 Zn1681 2.024 . S
O1697 C1684 1.058 . S
C1698 O1687 1.260 . S
C1698 O1688 1.258 . S
C1699 O1695 1.260 . S
C1699 O1696 1.258 . S
Zn1700 O1706 1.969 . S
Zn1700 O1707 1.965 . S
Zn1700 O1711 2.024 . S
Zn1700 O1716 1.969 . S
Zn1701 O1708 1.969 . S
Zn1701 O1714 1.969 . S
Zn1701 O1715 1.965 . S
Zn1701 O1717 2.024 . S
C1702 O1703 1.229 . S
C1702 O1711 1.058 . S
O1703 C1702 1.229 . S
C1704 O1705 1.229 . S
C1704 O1717 1.058 . S
O1705 C1704 1.229 . S
O1706 Zn1700 1.969 . S
O1706 C1709 1.267 . S
O1707 Zn1700 1.965 . S
O1707 C1718 1.260 . S
O1708 Zn1701 1.969 . S
O1708 C1718 1.258 . S
C1709 O1706 1.267 . S
C1709 O1710 1.228 . S
O1710 C1709 1.228 . S
O1711 Zn1700 2.024 . S
O1711 C1702 1.058 . S
C1712 O1713 1.228 . S
C1712 O1714 1.267 . S
O1713 C1712 1.228 . S
O1714 Zn1701 1.969 . S
O1714 C1712 1.267 . S
O1715 Zn1701 1.965 . S
O1715 C1719 1.260 . S
O1716 Zn1700 1.969 . S
O1716 C1719 1.258 . S
O1717 Zn1701 2.024 . S
O1717 C1704 1.058 . S
C1718 O1707 1.260 . S
C1718 O1708 1.258 . S
C1719 O1715 1.260 . S
C1719 O1716 1.258 . S
Zn1720 O1726 1.969 . S
Zn1720 O1727 1.965 . S
Zn1720 O1731 2.024 . S
Zn1720 O1736 1.969 . S
Zn1721 O1728 1.969 . S
Zn1721 O1734 1.969 . S
Zn1721 O1735 1.965 . S
Zn1721 O1737 2.024 . S
C1722 O1723 1.229 . S
C1722 O1731 1.058 . S
O1723 C1722 1.229 . S
C1724 O1725 1.229 . S
C1724 O1737 1.058 . S
O1725 C1724 1.229 . S
O1726 Zn1720 1.969 . S
O1726 C1729 1.267 . S
O1727 Zn1720 1.965 . S
O1727 C1738 1.260 . S
O1728 Zn1721 1.969 . S
O1728 C1738 1.258 . S
C1729 O1726 1.267 . S
C1729 O1730 1.228 . S
O1730 C1729 1.228 . S
O1731 Zn1720 2.024 . S
O1731 C1722 1.058 . S
C1732 O1733 1.228 . S
C1732 O1734 1.267 . S
O1733 C1732 1.228 . S
O1734 Zn1721 1.969 . S
O1734 C1732 1.267 . S
O1735 Zn1721 1.965 . S
O1735 C1739 1.260 . S
O1736 Zn1720 1.969 . S
O1736 C1739 1.258 . S
O1737 Zn1721 2.024 . S
O1737 C1724 1.058 . S
C1738 O1727 1.260 . S
C1738 O1728 1.258 . S
C1739 O1735 1.260 . S
C1739 O1736 1.258 . S
Zn1740 O1746 1.969 . S
Zn1740 O1747 1.965 . S
Zn1740 O1751 2.024 . S
Zn1740 O1756 1.969 . S
Zn1741 O1748 1.969 . S
Zn1741 O1754 1.969 . S
Zn1741 O1755 1.965 . S
Zn1741 O1757 2.024 . S
C1742 O1743 1.229 . S
C1742 O1751 1.058 . S
O1743 C1742 1.229 . S
C1744 O1745 1.229 . S
C1744 O1757 1.058 . S
O1745 C1744 1.229 . S
O1746 Zn1740 1.969 . S
O1746 C1749 1.267 . S
O1747 Zn1740 1.965 . S
O1747 C1758 1.260 . S
O1748 Zn1741 1.969 . S
O1748 C1758 1.258 . S
C1749 O1746 1.267 . S
C1749 O1750 1.228 . S
O1750 C1749 1.228 . S
O1751 Zn1740 2.024 . S
O1751 C1742 1.058 . S
C1752 O1753 1.228 . S
C1752 O1754 1.267 . S
O1753 C1752 1.228 . S
O1754 Zn1741 1.969 . S
O1754 C1752 1.267 . S
O1755 Zn1741 1.965 . S
O1755 C1759 1.260 . S
O1756 Zn1740 1.969 . S
O1756 C1759 1.258 . S
O1757 Zn1741 2.024 . S
O1757 C1744 1.058 . S
C1758 O1747 1.260 . S
C1758 O1748 1.258 . S
C1759 O1755 1.260 . S
C1759 O1756 1.258 . S
Zn1760 O1766 1.969 . S
Zn1760 O1767 1.965 . S
Zn1760 O1771 2.024 . S
Zn1760 O1776 1.969 . S
Zn1761 O1768 1.969 . S
Zn1761 O1774 1.969 . S
Zn1761 O1775 1.965 . S
Zn1761 O1777 2.024 . S
C1762 O1763 1.229 . S
C1762 O1771 1.058 . S
O1763 C1762 1.229 . S
C1764 O1765 1.229 . S
C1764 O1777 1.058 . S
O1765 C1764 1.229 . S
O1766 Zn1760 1.969 . S
O1766 C1769 1.267 . S
O1767 Zn1760 1.965 . S
O1767 C1778 1.260 . S
O1768 Zn1761 1.969 . S
O1768 C1778 1.258 . S
C1769 O1766 1.267 . S
C1769 O1770 1.228 . S
O1770 C1769 1.228 . S
O1771 Zn1760 2.024 . S
O1771 C1762 1.058 . S
C1772 O1773 1.228 . S
C1772 O1774 1.267 . S
O1773 C1772 1.228 . S
O1774 Zn1761 1.969 . S
O1774 C1772 1.267 . S
O1775 Zn1761 1.965 . S
O1775 C1779 1.260 . S
O1776 Zn1760 1.969 . S
O1776 C1779 1.258 . S
O1777 Zn1761 2.024 . S
O1777 C1764 1.058 . S
C1778 O1767 1.260 . S
C1778 O1768 1.258 . S
C1779 O1775 1.260 . S
C1779 O1776 1.258 . S
Zn1780 O1786 1.969 . S
Zn1780 O1787 1.965 . S
Zn1780 O1791 2.024 . S
Zn1780 O1796 1.969 . S
Zn1781 O1788 1.969 . S
Zn1781 O1794 1.969 . S
Zn1781 O1795 1.965 . S
Zn1781 O1797 2.024 . S
C1782 O1783 1.229 . S
C1782 O1791 1.058 . S
O1783 C1782 1.229 . S
C1784 O1785 1.229 . S
C1784 O1797 1.058 . S
O1785 C1784 1.229 . S
O1786 Zn1780 1.969 . S
O1786 C1789 1.267 . S
O1787 Zn1780 1.965 . S
O1787 C1798 1.260 . S
O1788 Zn1781 1.969 . S
O1788 C1798 1.258 . S
C1789 O1786 1.267 . S
C1789 O1790 1.228 . S
O1790 C1789 1.228 . S
O1791 Zn1780 2.024 . S
O1791 C1782 1.058 . S
C1792 O1793 1.228 . S
C1792 O1794 1.267 . S
O1793 C1792 1.228 . S
O1794 Zn1781 1.969 . S
O1794 C1792 1.267 . S
O1795 Zn1781 1.965 . S
O1795 C1799 1.260 . S
O1796 Zn1780 1.969 . S
O1796 C1799 1.258 . S
O1797 Zn1781 2.024 . S
O1797 C1784 1.058 . S
C1798 O1787 1.260 . S
C1798 O1788 1.258 . S
C1799 O1795 1.260 . S
C1799 O1796 1.258 . S
Zn1800 O1806 1.969 . S
Zn1800 O1807 1.965 . S
Zn1800 O1811 2.024 . S
Zn1800 O1816 1.969 . S
Zn1801 O1808 1.969 . S
Zn1801 O1814 1.969 . S
Zn1801 O1815 1.965 . S
Zn1801 O1817 2.024 . S
C1802 O1803 1.229 . S
C1802 O1811 1.058 . S
O1803 C1802 1.229 . S
C1804 O1805 1.229 . S
C1804 O1817 1.058 . S
O1805 C1804 1.229 . S
O1806 Zn1800 1.969 . S
O1806 C1809 1.267 . S
O1807 Zn1800 1.965 . S
O1807 C1818 1.260 . S
O1808 Zn1801 1.969 . S
O1808 C1818 1.258 . S
C1809 O1806 1.267 . S
C1809 O1810 1.228 . S
O1810 C1809 1.228 . S
O1811 Zn1800 2.024 . S
O1811 C1802 1.058 . S
C1812 O1813 1.228 . S
C1812 O1814 1.267 . S
O1813 C1812 1.228 . S
O1814 Zn1801 1.969 . S
O1814 C1812 1.267 . S
O1815 Zn1801 1.965 . S
O1815 C1819 1.260 . S
O1816 Zn1800 1.969 . S
O1816 C1819 1.258 . S
O1817 Zn1801 2.024 . S
O1817 C1804 1.058 . S
C1818 O1807 1.260 . S
C1818 O1808 1.258 . S
C1819 O1815 1.260 . S
C1819 O1816 1.258 . S
Zn1820 O1826 1.969 . S
Zn1820 O1827 1.965 . S
Zn1820 O1831 2.024 . S
Zn1820 O1836 1.969 . S
Zn1821 O1828 1.969 1_556 S
Zn1821 O1834 1.969 . S
Zn1821 O1835 1.960 1_556 S
Zn1821 O1837 2.024 . S
C1822 O1823 1.229 . S
C1822 O1831 1.058 . S
O1823 C1822 1.229 . S
C1824 O1825 1.229 . S
C1824 O1837 1.058 . S
O1825 C1824 1.229 . S
O1826 Zn1820 1.969 . S
O1826 C1829 1.267 . S
O1827 Zn1820 1.965 . S
O1827 C1838 1.260 . S
O1828 Zn1821 1.969 1_554 S
O1828 C1838 1.258 . S
C1829 O1826 1.267 . S
C1829 O1830 1.228 . S
O1830 C1829 1.228 . S
O1831 Zn1820 2.024 . S
O1831 C1822 1.058 . S
C1832 O1833 1.228 . S
C1832 O1834 1.267 . S
O1833 C1832 1.228 . S
O1834 Zn1821 1.969 . S
O1834 C1832 1.267 . S
O1835 Zn1821 1.960 1_554 S
O1835 C1839 1.267 . S
O1836 Zn1820 1.969 . S
O1836 C1839 1.258 . S
O1837 Zn1821 2.024 . S
O1837 C1824 1.058 . S
C1838 O1827 1.260 . S
C1838 O1828 1.258 . S
C1839 O1835 1.267 . S
C1839 O1836 1.258 . S
Zn1840 O1846 1.969 . S
Zn1840 O1847 1.965 . S
Zn1840 O1851 2.024 . S
Zn1840 O1856 1.969 . S
Zn1841 O1848 1.969 . S
Zn1841 O1854 1.969 . S
Zn1841 O1855 1.965 . S
Zn1841 O1857 2.024 . S
C1842 O1843 1.229 . S
C1842 O1851 1.058 . S
O1843 C1842 1.229 . S
C1844 O1845 1.229 . S
C1844 O1857 1.058 . S
O1845 C1844 1.229 . S
O1846 Zn1840 1.969 . S
O1846 C1849 1.267 . S
O1847 Zn1840 1.965 . S
O1847 C1858 1.260 . S
O1848 Zn1841 1.969 . S
O1848 C1858 1.258 . S
C1849 O1846 1.267 . S
C1849 O1850 1.228 . S
O1850 C1849 1.228 . S
O1851 Zn1840 2.024 . S
O1851 C1842 1.058 . S
C1852 O1853 1.228 . S
C1852 O1854 1.267 . S
O1853 C1852 1.228 . S
O1854 Zn1841 1.969 . S
O1854 C1852 1.267 . S
O1855 Zn1841 1.965 . S
O1855 C1859 1.260 . S
O1856 Zn1840 1.969 . S
O1856 C1859 1.258 . S
O1857 Zn1841 2.024 . S
O1857 C1844 1.058 . S
C1858 O1847 1.260 . S
C1858 O1848 1.258 . S
C1859 O1855 1.260 . S
C1859 O1856 1.258 . S
Zn1860 O1866 1.969 . S
Zn1860 O1867 1.965 1_554 S
Zn1860 O1871 2.024 . S
Zn1860 O1876 1.969 1_554 S
Zn1861 O1868 1.969 . S
Zn1861 O1874 1.969 . S
Zn1861 O1875 1.965 . S
Zn1861 O1877 2.024 . S
C1862 O1863 1.229 . S
C1862 O1871 1.058 . S
O1863 C1862 1.229 . S
C1864 O1865 1.229 . S
C1864 O1877 1.058 . S
O1865 C1864 1.229 . S
O1866 Zn1860 1.969 . S
O1866 C1869 1.267 . S
O1867 Zn1860 1.965 1_556 S
O1867 C1878 1.260 . S
O1868 Zn1861 1.969 . S
O1868 C1878 1.258 . S
C1869 O1866 1.267 . S
C1869 O1870 1.228 . S
O1870 C1869 1.228 . S
O1871 Zn1860 2.024 . S
O1871 C1862 1.058 . S
C1872 O1873 1.228 . S
C1872 O1874 1.267 . S
O1873 C1872 1.228 . S
O1874 Zn1861 1.969 . S
O1874 C1872 1.267 . S
O1875 Zn1861 1.965 . S
O1875 C1879 1.260 . S
O1876 Zn1860 1.969 1_556 S
O1876 C1879 1.258 . S
O1877 Zn1861 2.024 . S
O1877 C1864 1.058 . S
C1878 O1867 1.260 . S
C1878 O1868 1.258 . S
C1879 O1875 1.260 . S
C1879 O1876 1.258 . S
Zn1880 O1886 1.969 . S
Zn1880 O1887 1.965 . S
Zn1880 O1891 2.024 . S
Zn1880 O1896 1.969 . S
Zn1881 O1888 1.969 . S
Zn1881 O1894 1.969 . S
Zn1881 O1895 1.965 . S
Zn1881 O1897 2.024 . S
C1882 O1883 1.229 . S
C1882 O1891 1.058 . S
O1883 C1882 1.229 . S
C1884 O1885 1.229 . S
C1884 O1897 1.058 . S
O1885 C1884 1.229 . S
O1886 Zn1880 1.969 . S
O1886 C1889 1.267 . S
O1887 Zn1880 1.965 . S
O1887 C1898 1.260 . S
O1888 Zn1881 1.969 . S
O1888 C1898 1.258 . S
C1889 O1886 1.267 . S
C1889 O1890 1.228 . S
O1890 C1889 1.228 . S
O1891 Zn1880 2.024 . S
O1891 C1882 1.058 . S
C1892 O1893 1.228 . S
C1892 O1894 1.267 . S
O1893 C1892 1.228 . S
O1894 Zn1881 1.969 . S
O1894 C1892 1.267 . S
O1895 Zn1881 1.965 . S
O1895 C1899 1.260 . S
O1896 Zn1880 1.969 . S
O1896 C1899 1.258 . S
O1897 Zn1881 2.024 . S
O1897 C1884 1.058 . S
C1898 O1887 1.260 . S
C1898 O1888 1.258 . S
C1899 O1895 1.260 . S
C1899 O1896 1.258 . S
Zn1900 O1906 1.969 . S
Zn1900 O1907 1.965 . S
Zn1900 O1911 2.024 . S
Zn1900 O1916 1.969 . S
Zn1901 O1908 1.969 . S
Zn1901 O1914 1.969 . S
Zn1901 O1915 1.965 . S
Zn1901 O1917 2.024 . S
C1902 O1903 1.229 . S
C1902 O1911 1.058 . S
O1903 C1902 1.229 . S
C1904 O1905 1.229 . S
C1904 O1917 1.058 . S
O1905 C1904 1.229 . S
O1906 Zn1900 1.969 . S
O1906 C1909 1.267 . S
O1907 Zn1900 1.965 . S
O1907 C1918 1.260 . S
O1908 Zn1901 1.969 . S
O1908 C1918 1.258 . S
C1909 O1906 1.267 . S
C1909 O1910 1.228 . S
O1910 C1909 1.228 . S
O1911 Zn1900 2.024 . S
O1911 C1902 1.058 . S
C1912 O1913 1.228 . S
C1912 O1914 1.267 . S
O1913 C1912 1.228 . S
O1914 Zn1901 1.969 . S
O1914 C1912 1.267 . S
O1915 Zn1901 1.965 . S
O1915 C1919 1.260 . S
O1916 Zn1900 1.969 . S
O1916 C1919 1.258 . S
O1917 Zn1901 2.024 . S
O1917 C1904 1.058 . S
C1918 O1907 1.260 . S
C1918 O1908 1.258 . S
C1919 O1915 1.260 . S
C1919 O1916 1.258 . S
C1920 C1921 1.369 . S
C1920 C1922 1.419 . S
C1920 H1924 0.930 . S
C1921 C1920 1.369 . S
C1921 C1930 1.429 . S
C1922 C1920 1.419 . S
C1922 C1923 1.363 . S
C1922 H1925 0.929 . S
C1923 C1922 1.363 . S
C1923 C1929 1.428 . S
H1924 C1920 0.930 . S
H1925 C1922 0.929 . S
S1926 N1927 1.613 . S
S1926 N1928 1.610 . S
N1927 S1926 1.613 . S
N1927 C1930 1.350 . S
N1928 S1926 1.610 . S
N1928 C1929 1.351 . S
C1929 C1923 1.428 . S
C1929 N1928 1.351 . S
C1929 C1930 1.434 . S
C1930 C1921 1.429 . S
C1930 N1927 1.350 . S
C1930 C1929 1.434 . S
C1931 C1932 1.369 . S
C1931 C1933 1.419 . S
C1931 H1935 0.930 . S
C1932 C1931 1.369 . S
C1932 C1941 1.429 . S
C1933 C1931 1.419 . S
C1933 C1934 1.363 . S
C1933 H1936 0.929 . S
C1934 C1933 1.363 . S
C1934 C1940 1.428 . S
H1935 C1931 0.930 . S
H1936 C1933 0.929 . S
S1937 N1938 1.613 . S
S1937 N1939 1.610 . S
N1938 S1937 1.613 . S
N1938 C1941 1.350 . S
N1939 S1937 1.610 . S
N1939 C1940 1.351 . S
C1940 C1934 1.428 . S
C1940 N1939 1.351 . S
C1940 C1941 1.434 . S
C1941 C1932 1.429 . S
C1941 N1938 1.350 . S
C1941 C1940 1.434 . S
C1942 C1943 1.369 . S
C1942 C1944 1.419 . S
C1942 H1946 0.930 . S
C1943 C1942 1.369 . S
C1943 C1952 1.429 . S
C1944 C1942 1.419 . S
C1944 C1945 1.363 . S
C1944 H1947 0.929 . S
C1945 C1944 1.363 . S
C1945 C1951 1.428 . S
H1946 C1942 0.930 . S
H1947 C1944 0.929 . S
S1948 N1949 1.613 . S
S1948 N1950 1.610 . S
N1949 S1948 1.613 . S
N1949 C1952 1.350 . S
N1950 S1948 1.610 . S
N1950 C1951 1.351 . S
C1951 C1945 1.428 . S
C1951 N1950 1.351 . S
C1951 C1952 1.434 . S
C1952 C1943 1.429 . S
C1952 N1949 1.350 . S
C1952 C1951 1.434 . S
C1953 C1954 1.369 . S
C1953 C1955 1.419 . S
C1953 H1957 0.930 . S
C1954 C1953 1.369 . S
C1954 C1963 1.429 . S
C1955 C1953 1.419 . S
C1955 C1956 1.363 . S
C1955 H1958 0.929 . S
C1956 C1955 1.363 . S
C1956 C1962 1.428 . S
H1957 C1953 0.930 . S
H1958 C1955 0.929 . S
S1959 N1960 1.613 . S
S1959 N1961 1.610 . S
N1960 S1959 1.613 . S
N1960 C1963 1.350 . S
N1961 S1959 1.610 . S
N1961 C1962 1.351 . S
C1962 C1956 1.428 . S
C1962 N1961 1.351 . S
C1962 C1963 1.434 . S
C1963 C1954 1.429 . S
C1963 N1960 1.350 . S
C1963 C1962 1.434 . S
C1964 C1965 1.369 . S
C1964 C1966 1.419 . S
C1964 H1968 0.930 . S
C1965 C1964 1.369 . S
C1965 C1974 1.429 . S
C1966 C1964 1.419 . S
C1966 C1967 1.363 . S
C1966 H1969 0.929 . S
C1967 C1966 1.363 . S
C1967 C1973 1.428 . S
H1968 C1964 0.930 . S
H1969 C1966 0.929 . S
S1970 N1971 1.613 . S
S1970 N1972 1.610 . S
N1971 S1970 1.613 . S
N1971 C1974 1.350 . S
N1972 S1970 1.610 . S
N1972 C1973 1.351 . S
C1973 C1967 1.428 . S
C1973 N1972 1.351 . S
C1973 C1974 1.434 . S
C1974 C1965 1.429 . S
C1974 N1971 1.350 . S
C1974 C1973 1.434 . S
C1975 C1976 1.369 . S
C1975 C1977 1.419 . S
C1975 H1979 0.930 . S
C1976 C1975 1.369 . S
C1976 C1985 1.429 . S
C1977 C1975 1.419 . S
C1977 C1978 1.363 . S
C1977 H1980 0.929 . S
C1978 C1977 1.363 . S
C1978 C1984 1.428 . S
H1979 C1975 0.930 . S
H1980 C1977 0.929 . S
S1981 N1982 1.613 . S
S1981 N1983 1.610 . S
N1982 S1981 1.613 . S
N1982 C1985 1.350 . S
N1983 S1981 1.610 . S
N1983 C1984 1.351 . S
C1984 C1978 1.428 . S
C1984 N1983 1.351 . S
C1984 C1985 1.434 . S
C1985 C1976 1.429 . S
C1985 N1982 1.350 . S
C1985 C1984 1.434 . S
C1986 C1987 1.369 . S
C1986 C1988 1.419 . S
C1986 H1990 0.930 . S
C1987 C1986 1.369 . S
C1987 C1996 1.429 . S
C1988 C1986 1.419 . S
C1988 C1989 1.363 . S
C1988 H1991 0.929 . S
C1989 C1988 1.363 . S
C1989 C1995 1.428 . S
H1990 C1986 0.930 . S
H1991 C1988 0.929 . S
S1992 N1993 1.613 . S
S1992 N1994 1.610 . S
N1993 S1992 1.613 . S
N1993 C1996 1.350 . S
N1994 S1992 1.610 . S
N1994 C1995 1.351 . S
C1995 C1989 1.428 . S
C1995 N1994 1.351 . S
C1995 C1996 1.434 . S
C1996 C1987 1.429 . S
C1996 N1993 1.350 . S
C1996 C1995 1.434 . S
C1997 C1998 1.369 . S
C1997 C1999 1.419 . S
C1997 H2001 0.930 . S
C1998 C1997 1.369 . S
C1998 C2007 1.429 . S
C1999 C1997 1.419 . S
C1999 C2000 1.363 . S
C1999 H2002 0.929 . S
C2000 C1999 1.363 . S
C2000 C2006 1.428 . S
H2001 C1997 0.930 . S
H2002 C1999 0.929 . S
S2003 N2004 1.613 . S
S2003 N2005 1.610 . S
N2004 S2003 1.613 . S
N2004 C2007 1.350 . S
N2005 S2003 1.610 . S
N2005 C2006 1.351 . S
C2006 C2000 1.428 . S
C2006 N2005 1.351 . S
C2006 C2007 1.434 . S
C2007 C1998 1.429 . S
C2007 N2004 1.350 . S
C2007 C2006 1.434 . S
C2008 C2009 1.369 . S
C2008 C2010 1.419 . S
C2008 H2012 0.930 . S
C2009 C2008 1.369 . S
C2009 C2018 1.429 . S
C2010 C2008 1.419 . S
C2010 C2011 1.363 . S
C2010 H2013 0.929 . S
C2011 C2010 1.363 . S
C2011 C2017 1.428 . S
H2012 C2008 0.930 . S
H2013 C2010 0.929 . S
S2014 N2015 1.613 . S
S2014 N2016 1.610 . S
N2015 S2014 1.613 . S
N2015 C2018 1.350 . S
N2016 S2014 1.610 . S
N2016 C2017 1.351 . S
C2017 C2011 1.428 . S
C2017 N2016 1.351 . S
C2017 C2018 1.434 . S
C2018 C2009 1.429 . S
C2018 N2015 1.350 . S
C2018 C2017 1.434 . S
C2019 C2020 1.369 . S
C2019 C2021 1.419 . S
C2019 H2023 0.930 . S
C2020 C2019 1.369 . S
C2020 C2029 1.429 . S
C2021 C2019 1.419 . S
C2021 C2022 1.363 . S
C2021 H2024 0.929 . S
C2022 C2021 1.363 . S
C2022 C2028 1.428 . S
H2023 C2019 0.930 . S
H2024 C2021 0.929 . S
S2025 N2026 1.613 . S
S2025 N2027 1.610 . S
N2026 S2025 1.613 . S
N2026 C2029 1.350 . S
N2027 S2025 1.610 . S
N2027 C2028 1.351 . S
C2028 C2022 1.428 . S
C2028 N2027 1.351 . S
C2028 C2029 1.434 . S
C2029 C2020 1.429 . S
C2029 N2026 1.350 . S
C2029 C2028 1.434 . S
C2030 C2031 1.369 . S
C2030 C2032 1.419 . S
C2030 H2034 0.930 . S
C2031 C2030 1.369 . S
C2031 C2040 1.429 . S
C2032 C2030 1.419 . S
C2032 C2033 1.363 . S
C2032 H2035 0.929 . S
C2033 C2032 1.363 . S
C2033 C2039 1.428 . S
H2034 C2030 0.930 . S
H2035 C2032 0.929 . S
S2036 N2037 1.613 . S
S2036 N2038 1.610 . S
N2037 S2036 1.613 . S
N2037 C2040 1.350 . S
N2038 S2036 1.610 . S
N2038 C2039 1.351 . S
C2039 C2033 1.428 . S
C2039 N2038 1.351 . S
C2039 C2040 1.434 . S
C2040 C2031 1.429 . S
C2040 N2037 1.350 . S
C2040 C2039 1.434 . S
C2041 C2042 1.369 . S
C2041 C2043 1.419 . S
C2041 H2045 0.930 . S
C2042 C2041 1.369 . S
C2042 C2051 1.429 . S
C2043 C2041 1.419 . S
C2043 C2044 1.363 . S
C2043 H2046 0.929 . S
C2044 C2043 1.363 . S
C2044 C2050 1.428 . S
H2045 C2041 0.930 . S
H2046 C2043 0.929 . S
S2047 N2048 1.613 . S
S2047 N2049 1.610 . S
N2048 S2047 1.613 . S
N2048 C2051 1.350 . S
N2049 S2047 1.610 . S
N2049 C2050 1.351 . S
C2050 C2044 1.428 . S
C2050 N2049 1.351 . S
C2050 C2051 1.434 . S
C2051 C2042 1.429 . S
C2051 N2048 1.350 . S
C2051 C2050 1.434 . S
C2052 C2053 1.369 . S
C2052 C2054 1.419 . S
C2052 H2056 0.930 . S
C2053 C2052 1.369 . S
C2053 C2062 1.429 . S
C2054 C2052 1.419 . S
C2054 C2055 1.363 . S
C2054 H2057 0.929 . S
C2055 C2054 1.363 . S
C2055 C2061 1.428 . S
H2056 C2052 0.930 . S
H2057 C2054 0.929 . S
S2058 N2059 1.613 . S
S2058 N2060 1.610 . S
N2059 S2058 1.613 . S
N2059 C2062 1.350 . S
N2060 S2058 1.610 . S
N2060 C2061 1.351 . S
C2061 C2055 1.428 . S
C2061 N2060 1.351 . S
C2061 C2062 1.434 . S
C2062 C2053 1.429 . S
C2062 N2059 1.350 . S
C2062 C2061 1.434 . S
C2063 C2064 1.369 . S
C2063 C2065 1.419 . S
C2063 H2067 0.930 . S
C2064 C2063 1.369 . S
C2064 C2073 1.429 . S
C2065 C2063 1.419 . S
C2065 C2066 1.363 . S
C2065 H2068 0.929 . S
C2066 C2065 1.363 . S
C2066 C2072 1.428 . S
H2067 C2063 0.930 . S
H2068 C2065 0.929 . S
S2069 N2070 1.613 . S
S2069 N2071 1.610 . S
N2070 S2069 1.613 . S
N2070 C2073 1.350 . S
N2071 S2069 1.610 . S
N2071 C2072 1.351 . S
C2072 C2066 1.428 . S
C2072 N2071 1.351 . S
C2072 C2073 1.434 . S
C2073 C2064 1.429 . S
C2073 N2070 1.350 . S
C2073 C2072 1.434 . S
C2074 C2075 1.369 . S
C2074 C2076 1.419 . S
C2074 H2078 0.930 . S
C2075 C2074 1.369 . S
C2075 C2084 1.429 . S
C2076 C2074 1.419 . S
C2076 C2077 1.363 . S
C2076 H2079 0.929 . S
C2077 C2076 1.363 . S
C2077 C2083 1.428 . S
H2078 C2074 0.930 . S
H2079 C2076 0.929 . S
S2080 N2081 1.613 . S
S2080 N2082 1.610 . S
N2081 S2080 1.613 . S
N2081 C2084 1.350 . S
N2082 S2080 1.610 . S
N2082 C2083 1.351 . S
C2083 C2077 1.428 . S
C2083 N2082 1.351 . S
C2083 C2084 1.434 . S
C2084 C2075 1.429 . S
C2084 N2081 1.350 . S
C2084 C2083 1.434 . S
C2085 C2086 1.369 . S
C2085 C2087 1.419 . S
C2085 H2089 0.930 . S
C2086 C2085 1.369 . S
C2086 C2095 1.429 . S
C2087 C2085 1.419 . S
C2087 C2088 1.363 . S
C2087 H2090 0.929 . S
C2088 C2087 1.363 . S
C2088 C2094 1.428 . S
H2089 C2085 0.930 . S
H2090 C2087 0.929 . S
S2091 N2092 1.613 . S
S2091 N2093 1.610 . S
N2092 S2091 1.613 . S
N2092 C2095 1.350 . S
N2093 S2091 1.610 . S
N2093 C2094 1.351 . S
C2094 C2088 1.428 . S
C2094 N2093 1.351 . S
C2094 C2095 1.434 . S
C2095 C2086 1.429 . S
C2095 N2092 1.350 . S
C2095 C2094 1.434 . S
C2096 C2097 1.369 . S
C2096 C2098 1.419 . S
C2096 H2100 0.930 . S
C2097 C2096 1.369 . S
C2097 C2106 1.429 . S
C2098 C2096 1.419 . S
C2098 C2099 1.363 . S
C2098 H2101 0.929 . S
C2099 C2098 1.363 . S
C2099 C2105 1.428 . S
H2100 C2096 0.930 . S
H2101 C2098 0.929 . S
S2102 N2103 1.613 . S
S2102 N2104 1.610 . S
N2103 S2102 1.613 . S
N2103 C2106 1.350 . S
N2104 S2102 1.610 . S
N2104 C2105 1.351 . S
C2105 C2099 1.428 . S
C2105 N2104 1.351 . S
C2105 C2106 1.434 . S
C2106 C2097 1.429 . S
C2106 N2103 1.350 . S
C2106 C2105 1.434 . S
C2107 C2108 1.369 . S
C2107 C2109 1.419 . S
C2107 H2111 0.930 . S
C2108 C2107 1.369 . S
C2108 C2117 1.429 . S
C2109 C2107 1.419 . S
C2109 C2110 1.363 . S
C2109 H2112 0.929 . S
C2110 C2109 1.363 . S
C2110 C2116 1.428 . S
H2111 C2107 0.930 . S
H2112 C2109 0.929 . S
S2113 N2114 1.613 . S
S2113 N2115 1.610 . S
N2114 S2113 1.613 . S
N2114 C2117 1.350 . S
N2115 S2113 1.610 . S
N2115 C2116 1.351 . S
C2116 C2110 1.428 . S
C2116 N2115 1.351 . S
C2116 C2117 1.434 . S
C2117 C2108 1.429 . S
C2117 N2114 1.350 . S
C2117 C2116 1.434 . S
C2118 C2119 1.369 . S
C2118 C2120 1.419 . S
C2118 H2122 0.930 . S
C2119 C2118 1.369 . S
C2119 C2128 1.429 . S
C2120 C2118 1.419 . S
C2120 C2121 1.363 . S
C2120 H2123 0.929 . S
C2121 C2120 1.363 . S
C2121 C2127 1.428 . S
H2122 C2118 0.930 . S
H2123 C2120 0.929 . S
S2124 N2125 1.613 . S
S2124 N2126 1.610 . S
N2125 S2124 1.613 . S
N2125 C2128 1.350 . S
N2126 S2124 1.610 . S
N2126 C2127 1.351 . S
C2127 C2121 1.428 . S
C2127 N2126 1.351 . S
C2127 C2128 1.434 . S
C2128 C2119 1.429 . S
C2128 N2125 1.350 . S
C2128 C2127 1.434 . S
C2129 C2130 1.369 . S
C2129 C2131 1.419 . S
C2129 H2133 0.930 . S
C2130 C2129 1.369 . S
C2130 C2139 1.429 . S
C2131 C2129 1.419 . S
C2131 C2132 1.363 . S
C2131 H2134 0.929 . S
C2132 C2131 1.363 . S
C2132 C2138 1.428 . S
H2133 C2129 0.930 . S
H2134 C2131 0.929 . S
S2135 N2136 1.613 . S
S2135 N2137 1.610 . S
N2136 S2135 1.613 . S
N2136 C2139 1.350 . S
N2137 S2135 1.610 . S
N2137 C2138 1.351 . S
C2138 C2132 1.428 . S
C2138 N2137 1.351 . S
C2138 C2139 1.434 . S
C2139 C2130 1.429 . S
C2139 N2136 1.350 . S
C2139 C2138 1.434 . S
C2140 C2141 1.369 . S
C2140 C2142 1.419 . S
C2140 H2144 0.930 . S
C2141 C2140 1.369 . S
C2141 C2150 1.429 . S
C2142 C2140 1.419 . S
C2142 C2143 1.363 . S
C2142 H2145 0.929 . S
C2143 C2142 1.363 . S
C2143 C2149 1.428 . S
H2144 C2140 0.930 . S
H2145 C2142 0.929 . S
S2146 N2147 1.613 . S
S2146 N2148 1.610 . S
N2147 S2146 1.613 . S
N2147 C2150 1.350 . S
N2148 S2146 1.610 . S
N2148 C2149 1.351 . S
C2149 C2143 1.428 . S
C2149 N2148 1.351 . S
C2149 C2150 1.434 . S
C2150 C2141 1.429 . S
C2150 N2147 1.350 . S
C2150 C2149 1.434 . S
C2151 C2152 1.369 . S
C2151 C2153 1.419 . S
C2151 H2155 0.930 . S
C2152 C2151 1.369 . S
C2152 C2161 1.429 . S
C2153 C2151 1.419 . S
C2153 C2154 1.363 . S
C2153 H2156 0.929 . S
C2154 C2153 1.363 . S
C2154 C2160 1.428 . S
H2155 C2151 0.930 . S
H2156 C2153 0.929 . S
S2157 N2158 1.613 . S
S2157 N2159 1.610 . S
N2158 S2157 1.613 . S
N2158 C2161 1.350 . S
N2159 S2157 1.610 . S
N2159 C2160 1.351 . S
C2160 C2154 1.428 . S
C2160 N2159 1.351 . S
C2160 C2161 1.434 . S
C2161 C2152 1.429 . S
C2161 N2158 1.350 . S
C2161 C2160 1.434 . S
C2162 C2163 1.369 . S
C2162 C2164 1.419 . S
C2162 H2166 0.930 . S
C2163 C2162 1.369 . S
C2163 C2172 1.429 . S
C2164 C2162 1.419 . S
C2164 C2165 1.363 . S
C2164 H2167 0.929 . S
C2165 C2164 1.363 . S
C2165 C2171 1.428 . S
H2166 C2162 0.930 . S
H2167 C2164 0.929 . S
S2168 N2169 1.613 . S
S2168 N2170 1.610 . S
N2169 S2168 1.613 . S
N2169 C2172 1.350 . S
N2170 S2168 1.610 . S
N2170 C2171 1.351 . S
C2171 C2165 1.428 . S
C2171 N2170 1.351 . S
C2171 C2172 1.434 . S
C2172 C2163 1.429 . S
C2172 N2169 1.350 . S
C2172 C2171 1.434 . S
C2173 C2174 1.369 . S
C2173 C2175 1.419 . S
C2173 H2177 0.930 . S
C2174 C2173 1.369 . S
C2174 C2183 1.429 . S
C2175 C2173 1.419 . S
C2175 C2176 1.363 . S
C2175 H2178 0.929 . S
C2176 C2175 1.363 . S
C2176 C2182 1.428 . S
H2177 C2173 0.930 . S
H2178 C2175 0.929 . S
S2179 N2180 1.613 . S
S2179 N2181 1.610 . S
N2180 S2179 1.613 . S
N2180 C2183 1.350 . S
N2181 S2179 1.610 . S
N2181 C2182 1.351 . S
C2182 C2176 1.428 . S
C2182 N2181 1.351 . S
C2182 C2183 1.434 . S
C2183 C2174 1.429 . S
C2183 N2180 1.350 . S
C2183 C2182 1.434 . S
C2184 C2185 1.369 . S
C2184 C2186 1.419 . S
C2184 H2188 0.930 . S
C2185 C2184 1.369 . S
C2185 C2194 1.429 . S
C2186 C2184 1.419 . S
C2186 C2187 1.363 . S
C2186 H2189 0.929 . S
C2187 C2186 1.363 . S
C2187 C2193 1.428 . S
H2188 C2184 0.930 . S
H2189 C2186 0.929 . S
S2190 N2191 1.613 . S
S2190 N2192 1.610 . S
N2191 S2190 1.613 . S
N2191 C2194 1.350 . S
N2192 S2190 1.610 . S
N2192 C2193 1.351 . S
C2193 C2187 1.428 . S
C2193 N2192 1.351 . S
C2193 C2194 1.434 . S
C2194 C2185 1.429 . S
C2194 N2191 1.350 . S
C2194 C2193 1.434 . S
C2195 C2196 1.369 . S
C2195 C2197 1.419 . S
C2195 H2199 0.930 . S
C2196 C2195 1.369 . S
C2196 C2205 1.429 . S
C2197 C2195 1.419 . S
C2197 C2198 1.363 . S
C2197 H2200 0.929 . S
C2198 C2197 1.363 . S
C2198 C2204 1.428 . S
H2199 C2195 0.930 . S
H2200 C2197 0.929 . S
S2201 N2202 1.613 . S
S2201 N2203 1.610 . S
N2202 S2201 1.613 . S
N2202 C2205 1.350 . S
N2203 S2201 1.610 . S
N2203 C2204 1.351 . S
C2204 C2198 1.428 . S
C2204 N2203 1.351 . S
C2204 C2205 1.434 . S
C2205 C2196 1.429 . S
C2205 N2202 1.350 . S
C2205 C2204 1.434 . S
C2206 C2207 1.369 . S
C2206 C2208 1.419 . S
C2206 H2210 0.930 . S
C2207 C2206 1.369 . S
C2207 C2216 1.429 . S
C2208 C2206 1.419 . S
C2208 C2209 1.363 . S
C2208 H2211 0.929 . S
C2209 C2208 1.363 . S
C2209 C2215 1.428 . S
H2210 C2206 0.930 . S
H2211 C2208 0.929 . S
S2212 N2213 1.613 . S
S2212 N2214 1.610 . S
N2213 S2212 1.613 . S
N2213 C2216 1.350 . S
N2214 S2212 1.610 . S
N2214 C2215 1.351 . S
C2215 C2209 1.428 . S
C2215 N2214 1.351 . S
C2215 C2216 1.434 . S
C2216 C2207 1.429 . S
C2216 N2213 1.350 . S
C2216 C2215 1.434 . S
C2217 C2218 1.369 . S
C2217 C2219 1.419 . S
C2217 H2221 0.930 . S
C2218 C2217 1.369 . S
C2218 C2227 1.429 . S
C2219 C2217 1.419 . S
C2219 C2220 1.363 . S
C2219 H2222 0.929 . S
C2220 C2219 1.363 . S
C2220 C2226 1.428 . S
H2221 C2217 0.930 . S
H2222 C2219 0.929 . S
S2223 N2224 1.613 . S
S2223 N2225 1.610 . S
N2224 S2223 1.613 . S
N2224 C2227 1.350 . S
N2225 S2223 1.610 . S
N2225 C2226 1.351 . S
C2226 C2220 1.428 . S
C2226 N2225 1.351 . S
C2226 C2227 1.434 . S
C2227 C2218 1.429 . S
C2227 N2224 1.350 . S
C2227 C2226 1.434 . S
C2228 C2229 1.369 . S
C2228 C2230 1.419 . S
C2228 H2232 0.930 . S
C2229 C2228 1.369 . S
C2229 C2238 1.429 . S
C2230 C2228 1.419 . S
C2230 C2231 1.363 . S
C2230 H2233 0.929 . S
C2231 C2230 1.363 . S
C2231 C2237 1.428 . S
H2232 C2228 0.930 . S
H2233 C2230 0.929 . S
S2234 N2235 1.613 . S
S2234 N2236 1.610 . S
N2235 S2234 1.613 . S
N2235 C2238 1.350 . S
N2236 S2234 1.610 . S
N2236 C2237 1.351 . S
C2237 C2231 1.428 . S
C2237 N2236 1.351 . S
C2237 C2238 1.434 . S
C2238 C2229 1.429 . S
C2238 N2235 1.350 . S
C2238 C2237 1.434 . S
C2239 C2240 1.369 . S
C2239 C2241 1.419 . S
C2239 H2243 0.930 . S
C2240 C2239 1.369 . S
C2240 C2249 1.429 . S
C2241 C2239 1.419 . S
C2241 C2242 1.363 . S
C2241 H2244 0.929 . S
C2242 C2241 1.363 . S
C2242 C2248 1.428 . S
H2243 C2239 0.930 . S
H2244 C2241 0.929 . S
S2245 N2246 1.613 . S
S2245 N2247 1.610 . S
N2246 S2245 1.613 . S
N2246 C2249 1.350 . S
N2247 S2245 1.610 . S
N2247 C2248 1.351 . S
C2248 C2242 1.428 . S
C2248 N2247 1.351 . S
C2248 C2249 1.434 . S
C2249 C2240 1.429 . S
C2249 N2246 1.350 . S
C2249 C2248 1.434 . S
C2250 C2251 1.369 . S
C2250 C2252 1.419 . S
C2250 H2254 0.930 . S
C2251 C2250 1.369 . S
C2251 C2260 1.429 . S
C2252 C2250 1.419 . S
C2252 C2253 1.363 . S
C2252 H2255 0.929 . S
C2253 C2252 1.363 . S
C2253 C2259 1.428 . S
H2254 C2250 0.930 . S
H2255 C2252 0.929 . S
S2256 N2257 1.613 . S
S2256 N2258 1.610 . S
N2257 S2256 1.613 . S
N2257 C2260 1.350 . S
N2258 S2256 1.610 . S
N2258 C2259 1.351 . S
C2259 C2253 1.428 . S
C2259 N2258 1.351 . S
C2259 C2260 1.434 . S
C2260 C2251 1.429 . S
C2260 N2257 1.350 . S
C2260 C2259 1.434 . S
C2261 C2262 1.369 . S
C2261 C2263 1.419 . S
C2261 H2265 0.930 . S
C2262 C2261 1.369 . S
C2262 C2271 1.429 . S
C2263 C2261 1.419 . S
C2263 C2264 1.363 . S
C2263 H2266 0.929 . S
C2264 C2263 1.363 . S
C2264 C2270 1.428 . S
H2265 C2261 0.930 . S
H2266 C2263 0.929 . S
S2267 N2268 1.613 . S
S2267 N2269 1.610 . S
N2268 S2267 1.613 . S
N2268 C2271 1.350 . S
N2269 S2267 1.610 . S
N2269 C2270 1.351 . S
C2270 C2264 1.428 . S
C2270 N2269 1.351 . S
C2270 C2271 1.434 . S
C2271 C2262 1.429 . S
C2271 N2268 1.350 . S
C2271 C2270 1.434 . S
C2272 C2273 1.369 . S
C2272 C2274 1.419 . S
C2272 H2276 0.930 . S
C2273 C2272 1.369 . S
C2273 C2282 1.429 . S
C2274 C2272 1.419 . S
C2274 C2275 1.363 . S
C2274 H2277 0.929 . S
C2275 C2274 1.363 . S
C2275 C2281 1.428 . S
H2276 C2272 0.930 . S
H2277 C2274 0.929 . S
S2278 N2279 1.613 . S
S2278 N2280 1.610 . S
N2279 S2278 1.613 . S
N2279 C2282 1.350 . S
N2280 S2278 1.610 . S
N2280 C2281 1.351 . S
C2281 C2275 1.428 . S
C2281 N2280 1.351 . S
C2281 C2282 1.434 . S
C2282 C2273 1.429 . S
C2282 N2279 1.350 . S
C2282 C2281 1.434 . S
C2283 C2284 1.369 . S
C2283 C2285 1.419 . S
C2283 H2287 0.930 . S
C2284 C2283 1.369 . S
C2284 C2293 1.429 . S
C2285 C2283 1.419 . S
C2285 C2286 1.363 . S
C2285 H2288 0.929 . S
C2286 C2285 1.363 . S
C2286 C2292 1.428 . S
H2287 C2283 0.930 . S
H2288 C2285 0.929 . S
S2289 N2290 1.613 . S
S2289 N2291 1.610 . S
N2290 S2289 1.613 . S
N2290 C2293 1.350 . S
N2291 S2289 1.610 . S
N2291 C2292 1.351 . S
C2292 C2286 1.428 . S
C2292 N2291 1.351 . S
C2292 C2293 1.434 . S
C2293 C2284 1.429 . S
C2293 N2290 1.350 . S
C2293 C2292 1.434 . S
C2294 C2295 1.369 . S
C2294 C2296 1.419 . S
C2294 H2298 0.930 . S
C2295 C2294 1.369 . S
C2295 C2304 1.429 . S
C2296 C2294 1.419 . S
C2296 C2297 1.363 . S
C2296 H2299 0.929 . S
C2297 C2296 1.363 . S
C2297 C2303 1.428 . S
H2298 C2294 0.930 . S
H2299 C2296 0.929 . S
S2300 N2301 1.613 . S
S2300 N2302 1.610 . S
N2301 S2300 1.613 . S
N2301 C2304 1.350 . S
N2302 S2300 1.610 . S
N2302 C2303 1.351 . S
C2303 C2297 1.428 . S
C2303 N2302 1.351 . S
C2303 C2304 1.434 . S
C2304 C2295 1.429 . S
C2304 N2301 1.350 . S
C2304 C2303 1.434 . S
C2305 C2306 1.369 . S
C2305 C2307 1.419 . S
C2305 H2309 0.930 . S
C2306 C2305 1.369 . S
C2306 C2315 1.429 . S
C2307 C2305 1.419 . S
C2307 C2308 1.363 . S
C2307 H2310 0.929 . S
C2308 C2307 1.363 . S
C2308 C2314 1.428 . S
H2309 C2305 0.930 . S
H2310 C2307 0.929 . S
S2311 N2312 1.613 . S
S2311 N2313 1.610 . S
N2312 S2311 1.613 . S
N2312 C2315 1.350 . S
N2313 S2311 1.610 . S
N2313 C2314 1.351 . S
C2314 C2308 1.428 . S
C2314 N2313 1.351 . S
C2314 C2315 1.434 . S
C2315 C2306 1.429 . S
C2315 N2312 1.350 . S
C2315 C2314 1.434 . S
C2316 C2317 1.369 . S
C2316 C2318 1.419 . S
C2316 H2320 0.930 . S
C2317 C2316 1.369 . S
C2317 C2326 1.429 . S
C2318 C2316 1.419 . S
C2318 C2319 1.363 . S
C2318 H2321 0.929 . S
C2319 C2318 1.363 . S
C2319 C2325 1.428 . S
H2320 C2316 0.930 . S
H2321 C2318 0.929 . S
S2322 N2323 1.613 . S
S2322 N2324 1.610 . S
N2323 S2322 1.613 . S
N2323 C2326 1.350 . S
N2324 S2322 1.610 . S
N2324 C2325 1.351 . S
C2325 C2319 1.428 . S
C2325 N2324 1.351 . S
C2325 C2326 1.434 . S
C2326 C2317 1.429 . S
C2326 N2323 1.350 . S
C2326 C2325 1.434 . S
C2327 C2328 1.369 . S
C2327 C2329 1.419 . S
C2327 H2331 0.930 . S
C2328 C2327 1.369 . S
C2328 C2337 1.429 . S
C2329 C2327 1.419 . S
C2329 C2330 1.363 . S
C2329 H2332 0.929 . S
C2330 C2329 1.363 . S
C2330 C2336 1.428 . S
H2331 C2327 0.930 . S
H2332 C2329 0.929 . S
S2333 N2334 1.613 . S
S2333 N2335 1.610 . S
N2334 S2333 1.613 . S
N2334 C2337 1.350 . S
N2335 S2333 1.610 . S
N2335 C2336 1.351 . S
C2336 C2330 1.428 . S
C2336 N2335 1.351 . S
C2336 C2337 1.434 . S
C2337 C2328 1.429 . S
C2337 N2334 1.350 . S
C2337 C2336 1.434 . S
C2338 C2339 1.369 . S
C2338 C2340 1.419 . S
C2338 H2342 0.930 . S
C2339 C2338 1.369 . S
C2339 C2348 1.429 . S
C2340 C2338 1.419 . S
C2340 C2341 1.363 . S
C2340 H2343 0.929 . S
C2341 C2340 1.363 . S
C2341 C2347 1.428 . S
H2342 C2338 0.930 . S
H2343 C2340 0.929 . S
S2344 N2345 1.613 . S
S2344 N2346 1.610 . S
N2345 S2344 1.613 . S
N2345 C2348 1.350 . S
N2346 S2344 1.610 . S
N2346 C2347 1.351 . S
C2347 C2341 1.428 . S
C2347 N2346 1.351 . S
C2347 C2348 1.434 . S
C2348 C2339 1.429 . S
C2348 N2345 1.350 . S
C2348 C2347 1.434 . S
C2349 C2350 1.369 . S
C2349 C2351 1.419 . S
C2349 H2353 0.930 . S
C2350 C2349 1.369 . S
C2350 C2359 1.429 . S
C2351 C2349 1.419 . S
C2351 C2352 1.363 . S
C2351 H2354 0.929 . S
C2352 C2351 1.363 . S
C2352 C2358 1.428 . S
H2353 C2349 0.930 . S
H2354 C2351 0.929 . S
S2355 N2356 1.613 . S
S2355 N2357 1.610 . S
N2356 S2355 1.613 . S
N2356 C2359 1.350 . S
N2357 S2355 1.610 . S
N2357 C2358 1.351 . S
C2358 C2352 1.428 . S
C2358 N2357 1.351 . S
C2358 C2359 1.434 . S
C2359 C2350 1.429 . S
C2359 N2356 1.350 . S
C2359 C2358 1.434 . S
C2360 C2361 1.369 . S
C2360 C2362 1.419 . S
C2360 H2364 0.930 . S
C2361 C2360 1.369 . S
C2361 C2370 1.429 . S
C2362 C2360 1.419 . S
C2362 C2363 1.363 . S
C2362 H2365 0.929 . S
C2363 C2362 1.363 . S
C2363 C2369 1.428 . S
H2364 C2360 0.930 . S
H2365 C2362 0.929 . S
S2366 N2367 1.613 . S
S2366 N2368 1.610 . S
N2367 S2366 1.613 . S
N2367 C2370 1.350 . S
N2368 S2366 1.610 . S
N2368 C2369 1.351 . S
C2369 C2363 1.428 . S
C2369 N2368 1.351 . S
C2369 C2370 1.434 . S
C2370 C2361 1.429 . S
C2370 N2367 1.350 . S
C2370 C2369 1.434 . S
C2371 C2372 1.369 . S
C2371 C2373 1.419 . S
C2371 H2375 0.930 . S
C2372 C2371 1.369 . S
C2372 C2381 1.429 . S
C2373 C2371 1.419 . S
C2373 C2374 1.363 . S
C2373 H2376 0.929 . S
C2374 C2373 1.363 . S
C2374 C2380 1.428 . S
H2375 C2371 0.930 . S
H2376 C2373 0.929 . S
S2377 N2378 1.613 . S
S2377 N2379 1.610 . S
N2378 S2377 1.613 . S
N2378 C2381 1.350 . S
N2379 S2377 1.610 . S
N2379 C2380 1.351 . S
C2380 C2374 1.428 . S
C2380 N2379 1.351 . S
C2380 C2381 1.434 . S
C2381 C2372 1.429 . S
C2381 N2378 1.350 . S
C2381 C2380 1.434 . S
C2382 C2383 1.369 . S
C2382 C2384 1.419 . S
C2382 H2386 0.930 . S
C2383 C2382 1.369 . S
C2383 C2392 1.429 . S
C2384 C2382 1.419 . S
C2384 C2385 1.363 . S
C2384 H2387 0.929 . S
C2385 C2384 1.363 . S
C2385 C2391 1.428 . S
H2386 C2382 0.930 . S
H2387 C2384 0.929 . S
S2388 N2389 1.613 . S
S2388 N2390 1.610 . S
N2389 S2388 1.613 . S
N2389 C2392 1.350 . S
N2390 S2388 1.610 . S
N2390 C2391 1.351 . S
C2391 C2385 1.428 . S
C2391 N2390 1.351 . S
C2391 C2392 1.434 . S
C2392 C2383 1.429 . S
C2392 N2389 1.350 . S
C2392 C2391 1.434 . S
C2393 C2394 1.369 . S
C2393 C2395 1.419 . S
C2393 H2397 0.930 . S
C2394 C2393 1.369 . S
C2394 C2403 1.429 . S
C2395 C2393 1.419 . S
C2395 C2396 1.363 . S
C2395 H2398 0.929 . S
C2396 C2395 1.363 . S
C2396 C2402 1.428 . S
H2397 C2393 0.930 . S
H2398 C2395 0.929 . S
S2399 N2400 1.613 . S
S2399 N2401 1.610 . S
N2400 S2399 1.613 . S
N2400 C2403 1.350 . S
N2401 S2399 1.610 . S
N2401 C2402 1.351 . S
C2402 C2396 1.428 . S
C2402 N2401 1.351 . S
C2402 C2403 1.434 . S
C2403 C2394 1.429 . S
C2403 N2400 1.350 . S
C2403 C2402 1.434 . S
C2404 C2405 1.369 . S
C2404 C2406 1.419 . S
C2404 H2408 0.930 . S
C2405 C2404 1.369 . S
C2405 C2414 1.429 . S
C2406 C2404 1.419 . S
C2406 C2407 1.363 . S
C2406 H2409 0.929 . S
C2407 C2406 1.363 . S
C2407 C2413 1.428 . S
H2408 C2404 0.930 . S
H2409 C2406 0.929 . S
S2410 N2411 1.613 . S
S2410 N2412 1.610 . S
N2411 S2410 1.613 . S
N2411 C2414 1.350 . S
N2412 S2410 1.610 . S
N2412 C2413 1.351 . S
C2413 C2407 1.428 . S
C2413 N2412 1.351 . S
C2413 C2414 1.434 . S
C2414 C2405 1.429 . S
C2414 N2411 1.350 . S
C2414 C2413 1.434 . S
C2415 C2416 1.369 . S
C2415 C2417 1.419 . S
C2415 H2419 0.930 . S
C2416 C2415 1.369 . S
C2416 C2425 1.429 . S
C2417 C2415 1.419 . S
C2417 C2418 1.363 . S
C2417 H2420 0.929 . S
C2418 C2417 1.363 . S
C2418 C2424 1.428 . S
H2419 C2415 0.930 . S
H2420 C2417 0.929 . S
S2421 N2422 1.613 . S
S2421 N2423 1.610 . S
N2422 S2421 1.613 . S
N2422 C2425 1.350 . S
N2423 S2421 1.610 . S
N2423 C2424 1.351 . S
C2424 C2418 1.428 . S
C2424 N2423 1.351 . S
C2424 C2425 1.434 . S
C2425 C2416 1.429 . S
C2425 N2422 1.350 . S
C2425 C2424 1.434 . S
C2426 C2427 1.369 . S
C2426 C2428 1.419 . S
C2426 H2430 0.930 . S
C2427 C2426 1.369 . S
C2427 C2436 1.429 . S
C2428 C2426 1.419 . S
C2428 C2429 1.363 . S
C2428 H2431 0.929 . S
C2429 C2428 1.363 . S
C2429 C2435 1.428 . S
H2430 C2426 0.930 . S
H2431 C2428 0.929 . S
S2432 N2433 1.613 . S
S2432 N2434 1.610 . S
N2433 S2432 1.613 . S
N2433 C2436 1.350 . S
N2434 S2432 1.610 . S
N2434 C2435 1.351 . S
C2435 C2429 1.428 . S
C2435 N2434 1.351 . S
C2435 C2436 1.434 . S
C2436 C2427 1.429 . S
C2436 N2433 1.350 . S
C2436 C2435 1.434 . S
C2437 C2438 1.369 . S
C2437 C2439 1.419 . S
C2437 H2441 0.930 . S
C2438 C2437 1.369 . S
C2438 C2447 1.429 . S
C2439 C2437 1.419 . S
C2439 C2440 1.363 . S
C2439 H2442 0.929 . S
C2440 C2439 1.363 . S
C2440 C2446 1.428 . S
H2441 C2437 0.930 . S
H2442 C2439 0.929 . S
S2443 N2444 1.613 . S
S2443 N2445 1.610 . S
N2444 S2443 1.613 . S
N2444 C2447 1.350 . S
N2445 S2443 1.610 . S
N2445 C2446 1.351 . S
C2446 C2440 1.428 . S
C2446 N2445 1.351 . S
C2446 C2447 1.434 . S
C2447 C2438 1.429 . S
C2447 N2444 1.350 . S
C2447 C2446 1.434 . S
C2448 C2449 1.369 . S
C2448 C2450 1.419 . S
C2448 H2452 0.930 . S
C2449 C2448 1.369 . S
C2449 C2458 1.429 . S
C2450 C2448 1.419 . S
C2450 C2451 1.363 . S
C2450 H2453 0.929 . S
C2451 C2450 1.363 . S
C2451 C2457 1.428 . S
H2452 C2448 0.930 . S
H2453 C2450 0.929 . S
S2454 N2455 1.613 . S
S2454 N2456 1.610 . S
N2455 S2454 1.613 . S
N2455 C2458 1.350 . S
N2456 S2454 1.610 . S
N2456 C2457 1.351 . S
C2457 C2451 1.428 . S
C2457 N2456 1.351 . S
C2457 C2458 1.434 . S
C2458 C2449 1.429 . S
C2458 N2455 1.350 . S
C2458 C2457 1.434 . S
C2459 C2460 1.369 . S
C2459 C2461 1.419 . S
C2459 H2463 0.930 . S
C2460 C2459 1.369 . S
C2460 C2469 1.429 . S
C2461 C2459 1.419 . S
C2461 C2462 1.363 . S
C2461 H2464 0.929 . S
C2462 C2461 1.363 . S
C2462 C2468 1.428 . S
H2463 C2459 0.930 . S
H2464 C2461 0.929 . S
S2465 N2466 1.613 . S
S2465 N2467 1.610 . S
N2466 S2465 1.613 . S
N2466 C2469 1.350 . S
N2467 S2465 1.610 . S
N2467 C2468 1.351 . S
C2468 C2462 1.428 . S
C2468 N2467 1.351 . S
C2468 C2469 1.434 . S
C2469 C2460 1.429 . S
C2469 N2466 1.350 . S
C2469 C2468 1.434 . S
C2470 C2471 1.369 . S
C2470 C2472 1.419 . S
C2470 H2474 0.930 . S
C2471 C2470 1.369 . S
C2471 C2480 1.429 . S
C2472 C2470 1.419 . S
C2472 C2473 1.363 . S
C2472 H2475 0.929 . S
C2473 C2472 1.363 . S
C2473 C2479 1.428 . S
H2474 C2470 0.930 . S
H2475 C2472 0.929 . S
S2476 N2477 1.613 . S
S2476 N2478 1.610 . S
N2477 S2476 1.613 . S
N2477 C2480 1.350 . S
N2478 S2476 1.610 . S
N2478 C2479 1.351 . S
C2479 C2473 1.428 . S
C2479 N2478 1.351 . S
C2479 C2480 1.434 . S
C2480 C2471 1.429 . S
C2480 N2477 1.350 . S
C2480 C2479 1.434 . S
C2481 C2482 1.369 . S
C2481 C2483 1.419 . S
C2481 H2485 0.930 . S
C2482 C2481 1.369 . S
C2482 C2491 1.429 . S
C2483 C2481 1.419 . S
C2483 C2484 1.363 . S
C2483 H2486 0.929 . S
C2484 C2483 1.363 . S
C2484 C2490 1.428 . S
H2485 C2481 0.930 . S
H2486 C2483 0.929 . S
S2487 N2488 1.613 . S
S2487 N2489 1.610 . S
N2488 S2487 1.613 . S
N2488 C2491 1.350 . S
N2489 S2487 1.610 . S
N2489 C2490 1.351 . S
C2490 C2484 1.428 . S
C2490 N2489 1.351 . S
C2490 C2491 1.434 . S
C2491 C2482 1.429 . S
C2491 N2488 1.350 . S
C2491 C2490 1.434 . S
C2492 C2493 1.369 . S
C2492 C2494 1.419 . S
C2492 H2496 0.930 . S
C2493 C2492 1.369 . S
C2493 C2502 1.429 . S
C2494 C2492 1.419 . S
C2494 C2495 1.363 . S
C2494 H2497 0.929 . S
C2495 C2494 1.363 . S
C2495 C2501 1.428 . S
H2496 C2492 0.930 . S
H2497 C2494 0.929 . S
S2498 N2499 1.613 . S
S2498 N2500 1.610 . S
N2499 S2498 1.613 . S
N2499 C2502 1.350 . S
N2500 S2498 1.610 . S
N2500 C2501 1.351 . S
C2501 C2495 1.428 . S
C2501 N2500 1.351 . S
C2501 C2502 1.434 . S
C2502 C2493 1.429 . S
C2502 N2499 1.350 . S
C2502 C2501 1.434 . S
C2503 C2504 1.369 . S
C2503 C2505 1.419 . S
C2503 H2507 0.930 . S
C2504 C2503 1.369 . S
C2504 C2513 1.429 . S
C2505 C2503 1.419 . S
C2505 C2506 1.363 . S
C2505 H2508 0.929 . S
C2506 C2505 1.363 . S
C2506 C2512 1.428 . S
H2507 C2503 0.930 . S
H2508 C2505 0.929 . S
S2509 N2510 1.613 . S
S2509 N2511 1.610 . S
N2510 S2509 1.613 . S
N2510 C2513 1.350 . S
N2511 S2509 1.610 . S
N2511 C2512 1.351 . S
C2512 C2506 1.428 . S
C2512 N2511 1.351 . S
C2512 C2513 1.434 . S
C2513 C2504 1.429 . S
C2513 N2510 1.350 . S
C2513 C2512 1.434 . S
C2514 C2515 1.369 . S
C2514 C2516 1.419 . S
C2514 H2518 0.930 . S
C2515 C2514 1.369 . S
C2515 C2524 1.429 . S
C2516 C2514 1.419 . S
C2516 C2517 1.363 . S
C2516 H2519 0.929 . S
C2517 C2516 1.363 . S
C2517 C2523 1.428 . S
H2518 C2514 0.930 . S
H2519 C2516 0.929 . S
S2520 N2521 1.613 . S
S2520 N2522 1.610 . S
N2521 S2520 1.613 . S
N2521 C2524 1.350 . S
N2522 S2520 1.610 . S
N2522 C2523 1.351 . S
C2523 C2517 1.428 . S
C2523 N2522 1.351 . S
C2523 C2524 1.434 . S
C2524 C2515 1.429 . S
C2524 N2521 1.350 . S
C2524 C2523 1.434 . S
C2525 C2526 1.369 . S
C2525 C2527 1.419 . S
C2525 H2529 0.930 . S
C2526 C2525 1.369 . S
C2526 C2535 1.429 . S
C2527 C2525 1.419 . S
C2527 C2528 1.363 . S
C2527 H2530 0.929 . S
C2528 C2527 1.363 . S
C2528 C2534 1.428 . S
H2529 C2525 0.930 . S
H2530 C2527 0.929 . S
S2531 N2532 1.613 . S
S2531 N2533 1.610 . S
N2532 S2531 1.613 . S
N2532 C2535 1.350 . S
N2533 S2531 1.610 . S
N2533 C2534 1.351 . S
C2534 C2528 1.428 . S
C2534 N2533 1.351 . S
C2534 C2535 1.434 . S
C2535 C2526 1.429 . S
C2535 N2532 1.350 . S
C2535 C2534 1.434 . S
C2536 C2537 1.369 . S
C2536 C2538 1.419 . S
C2536 H2540 0.930 . S
C2537 C2536 1.369 . S
C2537 C2546 1.429 . S
C2538 C2536 1.419 . S
C2538 C2539 1.363 . S
C2538 H2541 0.929 . S
C2539 C2538 1.363 . S
C2539 C2545 1.428 . S
H2540 C2536 0.930 . S
H2541 C2538 0.929 . S
S2542 N2543 1.613 . S
S2542 N2544 1.610 . S
N2543 S2542 1.613 . S
N2543 C2546 1.350 . S
N2544 S2542 1.610 . S
N2544 C2545 1.351 . S
C2545 C2539 1.428 . S
C2545 N2544 1.351 . S
C2545 C2546 1.434 . S
C2546 C2537 1.429 . S
C2546 N2543 1.350 . S
C2546 C2545 1.434 . S
C2547 C2548 1.369 . S
C2547 C2549 1.419 . S
C2547 H2551 0.930 . S
C2548 C2547 1.369 . S
C2548 C2557 1.429 . S
C2549 C2547 1.419 . S
C2549 C2550 1.363 . S
C2549 H2552 0.929 . S
C2550 C2549 1.363 . S
C2550 C2556 1.428 . S
H2551 C2547 0.930 . S
H2552 C2549 0.929 . S
S2553 N2554 1.613 . S
S2553 N2555 1.610 . S
N2554 S2553 1.613 . S
N2554 C2557 1.350 . S
N2555 S2553 1.610 . S
N2555 C2556 1.351 . S
C2556 C2550 1.428 . S
C2556 N2555 1.351 . S
C2556 C2557 1.434 . S
C2557 C2548 1.429 . S
C2557 N2554 1.350 . S
C2557 C2556 1.434 . S
C2558 C2559 1.369 . S
C2558 C2560 1.419 . S
C2558 H2562 0.930 . S
C2559 C2558 1.369 . S
C2559 C2568 1.429 . S
C2560 C2558 1.419 . S
C2560 C2561 1.363 . S
C2560 H2563 0.929 . S
C2561 C2560 1.363 . S
C2561 C2567 1.428 . S
H2562 C2558 0.930 . S
H2563 C2560 0.929 . S
S2564 N2565 1.613 . S
S2564 N2566 1.610 . S
N2565 S2564 1.613 . S
N2565 C2568 1.350 . S
N2566 S2564 1.610 . S
N2566 C2567 1.351 . S
C2567 C2561 1.428 . S
C2567 N2566 1.351 . S
C2567 C2568 1.434 . S
C2568 C2559 1.429 . S
C2568 N2565 1.350 . S
C2568 C2567 1.434 . S
C2569 C2570 1.369 . S
C2569 C2571 1.419 . S
C2569 H2573 0.930 . S
C2570 C2569 1.369 . S
C2570 C2579 1.429 . S
C2571 C2569 1.419 . S
C2571 C2572 1.363 . S
C2571 H2574 0.929 . S
C2572 C2571 1.363 . S
C2572 C2578 1.428 . S
H2573 C2569 0.930 . S
H2574 C2571 0.929 . S
S2575 N2576 1.613 . S
S2575 N2577 1.610 . S
N2576 S2575 1.613 . S
N2576 C2579 1.350 . S
N2577 S2575 1.610 . S
N2577 C2578 1.351 . S
C2578 C2572 1.428 . S
C2578 N2577 1.351 . S
C2578 C2579 1.434 . S
C2579 C2570 1.429 . S
C2579 N2576 1.350 . S
C2579 C2578 1.434 . S
C2580 C2581 1.369 . S
C2580 C2582 1.419 . S
C2580 H2584 0.930 . S
C2581 C2580 1.369 . S
C2581 C2590 1.429 . S
C2582 C2580 1.419 . S
C2582 C2583 1.363 . S
C2582 H2585 0.929 . S
C2583 C2582 1.363 . S
C2583 C2589 1.428 . S
H2584 C2580 0.930 . S
H2585 C2582 0.929 . S
S2586 N2587 1.613 . S
S2586 N2588 1.610 . S
N2587 S2586 1.613 . S
N2587 C2590 1.350 . S
N2588 S2586 1.610 . S
N2588 C2589 1.351 . S
C2589 C2583 1.428 . S
C2589 N2588 1.351 . S
C2589 C2590 1.434 . S
C2590 C2581 1.429 . S
C2590 N2587 1.350 . S
C2590 C2589 1.434 . S
C2591 C2592 1.369 . S
C2591 C2593 1.419 . S
C2591 H2595 0.930 . S
C2592 C2591 1.369 . S
C2592 C2601 1.429 . S
C2593 C2591 1.419 . S
C2593 C2594 1.363 . S
C2593 H2596 0.929 . S
C2594 C2593 1.363 . S
C2594 C2600 1.428 . S
H2595 C2591 0.930 . S
H2596 C2593 0.929 . S
S2597 N2598 1.613 . S
S2597 N2599 1.610 . S
N2598 S2597 1.613 . S
N2598 C2601 1.350 . S
N2599 S2597 1.610 . S
N2599 C2600 1.351 . S
C2600 C2594 1.428 . S
C2600 N2599 1.351 . S
C2600 C2601 1.434 . S
C2601 C2592 1.429 . S
C2601 N2598 1.350 . S
C2601 C2600 1.434 . S
C2602 C2603 1.369 . S
C2602 C2604 1.419 . S
C2602 H2606 0.930 . S
C2603 C2602 1.369 . S
C2603 C2612 1.429 . S
C2604 C2602 1.419 . S
C2604 C2605 1.363 . S
C2604 H2607 0.929 . S
C2605 C2604 1.363 . S
C2605 C2611 1.428 . S
H2606 C2602 0.930 . S
H2607 C2604 0.929 . S
S2608 N2609 1.613 . S
S2608 N2610 1.610 . S
N2609 S2608 1.613 . S
N2609 C2612 1.350 . S
N2610 S2608 1.610 . S
N2610 C2611 1.351 . S
C2611 C2605 1.428 . S
C2611 N2610 1.351 . S
C2611 C2612 1.434 . S
C2612 C2603 1.429 . S
C2612 N2609 1.350 . S
C2612 C2611 1.434 . S
C2613 C2614 1.369 . S
C2613 C2615 1.419 . S
C2613 H2617 0.930 . S
C2614 C2613 1.369 . S
C2614 C2623 1.429 . S
C2615 C2613 1.419 . S
C2615 C2616 1.363 . S
C2615 H2618 0.929 . S
C2616 C2615 1.363 . S
C2616 C2622 1.428 . S
H2617 C2613 0.930 . S
H2618 C2615 0.929 . S
S2619 N2620 1.613 . S
S2619 N2621 1.610 . S
N2620 S2619 1.613 . S
N2620 C2623 1.350 . S
N2621 S2619 1.610 . S
N2621 C2622 1.351 . S
C2622 C2616 1.428 . S
C2622 N2621 1.351 . S
C2622 C2623 1.434 . S
C2623 C2614 1.429 . S
C2623 N2620 1.350 . S
C2623 C2622 1.434 . S
C2624 C2625 1.369 . S
C2624 C2626 1.419 . S
C2624 H2628 0.930 . S
C2625 C2624 1.369 . S
C2625 C2634 1.429 . S
C2626 C2624 1.419 . S
C2626 C2627 1.363 . S
C2626 H2629 0.929 . S
C2627 C2626 1.363 . S
C2627 C2633 1.428 . S
H2628 C2624 0.930 . S
H2629 C2626 0.929 . S
S2630 N2631 1.613 . S
S2630 N2632 1.610 . S
N2631 S2630 1.613 . S
N2631 C2634 1.350 . S
N2632 S2630 1.610 . S
N2632 C2633 1.351 . S
C2633 C2627 1.428 . S
C2633 N2632 1.351 . S
C2633 C2634 1.434 . S
C2634 C2625 1.429 . S
C2634 N2631 1.350 . S
C2634 C2633 1.434 . S
C2635 C2636 1.369 . S
C2635 C2637 1.419 . S
C2635 H2639 0.930 . S
C2636 C2635 1.369 . S
C2636 C2645 1.429 . S
C2637 C2635 1.419 . S
C2637 C2638 1.363 . S
C2637 H2640 0.929 . S
C2638 C2637 1.363 . S
C2638 C2644 1.428 . S
H2639 C2635 0.930 . S
H2640 C2637 0.929 . S
S2641 N2642 1.613 . S
S2641 N2643 1.610 . S
N2642 S2641 1.613 . S
N2642 C2645 1.350 . S
N2643 S2641 1.610 . S
N2643 C2644 1.351 . S
C2644 C2638 1.428 . S
C2644 N2643 1.351 . S
C2644 C2645 1.434 . S
C2645 C2636 1.429 . S
C2645 N2642 1.350 . S
C2645 C2644 1.434 . S
C2646 C2647 1.369 . S
C2646 C2648 1.419 . S
C2646 H2650 0.930 . S
C2647 C2646 1.369 . S
C2647 C2656 1.429 . S
C2648 C2646 1.419 . S
C2648 C2649 1.363 . S
C2648 H2651 0.929 . S
C2649 C2648 1.363 . S
C2649 C2655 1.428 . S
H2650 C2646 0.930 . S
H2651 C2648 0.929 . S
S2652 N2653 1.613 . S
S2652 N2654 1.610 . S
N2653 S2652 1.613 . S
N2653 C2656 1.350 . S
N2654 S2652 1.610 . S
N2654 C2655 1.351 . S
C2655 C2649 1.428 . S
C2655 N2654 1.351 . S
C2655 C2656 1.434 . S
C2656 C2647 1.429 . S
C2656 N2653 1.350 . S
C2656 C2655 1.434 . S
C2657 C2658 1.369 . S
C2657 C2659 1.419 . S
C2657 H2661 0.930 . S
C2658 C2657 1.369 . S
C2658 C2667 1.429 . S
C2659 C2657 1.419 . S
C2659 C2660 1.363 . S
C2659 H2662 0.929 . S
C2660 C2659 1.363 . S
C2660 C2666 1.428 . S
H2661 C2657 0.930 . S
H2662 C2659 0.929 . S
S2663 N2664 1.613 . S
S2663 N2665 1.610 . S
N2664 S2663 1.613 . S
N2664 C2667 1.350 . S
N2665 S2663 1.610 . S
N2665 C2666 1.351 . S
C2666 C2660 1.428 . S
C2666 N2665 1.351 . S
C2666 C2667 1.434 . S
C2667 C2658 1.429 . S
C2667 N2664 1.350 . S
C2667 C2666 1.434 . S
C2668 C2669 1.369 . S
C2668 C2670 1.419 . S
C2668 H2672 0.930 . S
C2669 C2668 1.369 . S
C2669 C2678 1.429 . S
C2670 C2668 1.419 . S
C2670 C2671 1.363 . S
C2670 H2673 0.929 . S
C2671 C2670 1.363 . S
C2671 C2677 1.428 . S
H2672 C2668 0.930 . S
H2673 C2670 0.929 . S
S2674 N2675 1.613 . S
S2674 N2676 1.610 . S
N2675 S2674 1.613 . S
N2675 C2678 1.350 . S
N2676 S2674 1.610 . S
N2676 C2677 1.351 . S
C2677 C2671 1.428 . S
C2677 N2676 1.351 . S
C2677 C2678 1.434 . S
C2678 C2669 1.429 . S
C2678 N2675 1.350 . S
C2678 C2677 1.434 . S
C2679 C2680 1.369 . S
C2679 C2681 1.419 . S
C2679 H2683 0.930 . S
C2680 C2679 1.369 . S
C2680 C2689 1.429 . S
C2681 C2679 1.419 . S
C2681 C2682 1.363 . S
C2681 H2684 0.929 . S
C2682 C2681 1.363 . S
C2682 C2688 1.428 . S
H2683 C2679 0.930 . S
H2684 C2681 0.929 . S
S2685 N2686 1.613 . S
S2685 N2687 1.610 . S
N2686 S2685 1.613 . S
N2686 C2689 1.350 . S
N2687 S2685 1.610 . S
N2687 C2688 1.351 . S
C2688 C2682 1.428 . S
C2688 N2687 1.351 . S
C2688 C2689 1.434 . S
C2689 C2680 1.429 . S
C2689 N2686 1.350 . S
C2689 C2688 1.434 . S
C2690 C2691 1.369 . S
C2690 C2692 1.419 . S
C2690 H2694 0.930 . S
C2691 C2690 1.369 . S
C2691 C2700 1.429 . S
C2692 C2690 1.419 . S
C2692 C2693 1.363 . S
C2692 H2695 0.929 . S
C2693 C2692 1.363 . S
C2693 C2699 1.428 . S
H2694 C2690 0.930 . S
H2695 C2692 0.929 . S
S2696 N2697 1.613 . S
S2696 N2698 1.610 . S
N2697 S2696 1.613 . S
N2697 C2700 1.350 . S
N2698 S2696 1.610 . S
N2698 C2699 1.351 . S
C2699 C2693 1.428 . S
C2699 N2698 1.351 . S
C2699 C2700 1.434 . S
C2700 C2691 1.429 . S
C2700 N2697 1.350 . S
C2700 C2699 1.434 . S
C2701 C2702 1.369 . S
C2701 C2703 1.419 . S
C2701 H2705 0.930 . S
C2702 C2701 1.369 . S
C2702 C2711 1.429 . S
C2703 C2701 1.419 . S
C2703 C2704 1.363 . S
C2703 H2706 0.929 . S
C2704 C2703 1.363 . S
C2704 C2710 1.428 . S
H2705 C2701 0.930 . S
H2706 C2703 0.929 . S
S2707 N2708 1.613 . S
S2707 N2709 1.610 . S
N2708 S2707 1.613 . S
N2708 C2711 1.350 . S
N2709 S2707 1.610 . S
N2709 C2710 1.351 . S
C2710 C2704 1.428 . S
C2710 N2709 1.351 . S
C2710 C2711 1.434 . S
C2711 C2702 1.429 . S
C2711 N2708 1.350 . S
C2711 C2710 1.434 . S
C2712 C2713 1.369 . S
C2712 C2714 1.419 . S
C2712 H2716 0.930 . S
C2713 C2712 1.369 . S
C2713 C2722 1.429 . S
C2714 C2712 1.419 . S
C2714 C2715 1.363 . S
C2714 H2717 0.929 . S
C2715 C2714 1.363 . S
C2715 C2721 1.428 . S
H2716 C2712 0.930 . S
H2717 C2714 0.929 . S
S2718 N2719 1.613 . S
S2718 N2720 1.610 . S
N2719 S2718 1.613 . S
N2719 C2722 1.350 . S
N2720 S2718 1.610 . S
N2720 C2721 1.351 . S
C2721 C2715 1.428 . S
C2721 N2720 1.351 . S
C2721 C2722 1.434 . S
C2722 C2713 1.429 . S
C2722 N2719 1.350 . S
C2722 C2721 1.434 . S
C2723 C2724 1.369 . S
C2723 C2725 1.419 . S
C2723 H2727 0.930 . S
C2724 C2723 1.369 . S
C2724 C2733 1.429 . S
C2725 C2723 1.419 . S
C2725 C2726 1.363 . S
C2725 H2728 0.929 . S
C2726 C2725 1.363 . S
C2726 C2732 1.428 . S
H2727 C2723 0.930 . S
H2728 C2725 0.929 . S
S2729 N2730 1.613 . S
S2729 N2731 1.610 . S
N2730 S2729 1.613 . S
N2730 C2733 1.350 . S
N2731 S2729 1.610 . S
N2731 C2732 1.351 . S
C2732 C2726 1.428 . S
C2732 N2731 1.351 . S
C2732 C2733 1.434 . S
C2733 C2724 1.429 . S
C2733 N2730 1.350 . S
C2733 C2732 1.434 . S
C2734 C2735 1.369 . S
C2734 C2736 1.419 . S
C2734 H2738 0.930 . S
C2735 C2734 1.369 . S
C2735 C2744 1.429 . S
C2736 C2734 1.419 . S
C2736 C2737 1.363 . S
C2736 H2739 0.929 . S
C2737 C2736 1.363 . S
C2737 C2743 1.428 . S
H2738 C2734 0.930 . S
H2739 C2736 0.929 . S
S2740 N2741 1.613 . S
S2740 N2742 1.610 . S
N2741 S2740 1.613 . S
N2741 C2744 1.350 . S
N2742 S2740 1.610 . S
N2742 C2743 1.351 . S
C2743 C2737 1.428 . S
C2743 N2742 1.351 . S
C2743 C2744 1.434 . S
C2744 C2735 1.429 . S
C2744 N2741 1.350 . S
C2744 C2743 1.434 . S
C2745 C2746 1.369 . S
C2745 C2747 1.419 . S
C2745 H2749 0.930 . S
C2746 C2745 1.369 . S
C2746 C2755 1.429 . S
C2747 C2745 1.419 . S
C2747 C2748 1.363 . S
C2747 H2750 0.929 . S
C2748 C2747 1.363 . S
C2748 C2754 1.428 . S
H2749 C2745 0.930 . S
H2750 C2747 0.929 . S
S2751 N2752 1.613 . S
S2751 N2753 1.610 . S
N2752 S2751 1.613 . S
N2752 C2755 1.350 . S
N2753 S2751 1.610 . S
N2753 C2754 1.351 . S
C2754 C2748 1.428 . S
C2754 N2753 1.351 . S
C2754 C2755 1.434 . S
C2755 C2746 1.429 . S
C2755 N2752 1.350 . S
C2755 C2754 1.434 . S
C2756 C2757 1.369 . S
C2756 C2758 1.419 . S
C2756 H2760 0.930 . S
C2757 C2756 1.369 . S
C2757 C2766 1.429 . S
C2758 C2756 1.419 . S
C2758 C2759 1.363 . S
C2758 H2761 0.929 . S
C2759 C2758 1.363 . S
C2759 C2765 1.428 . S
H2760 C2756 0.930 . S
H2761 C2758 0.929 . S
S2762 N2763 1.613 . S
S2762 N2764 1.610 . S
N2763 S2762 1.613 . S
N2763 C2766 1.350 . S
N2764 S2762 1.610 . S
N2764 C2765 1.351 . S
C2765 C2759 1.428 . S
C2765 N2764 1.351 . S
C2765 C2766 1.434 . S
C2766 C2757 1.429 . S
C2766 N2763 1.350 . S
C2766 C2765 1.434 . S
C2767 C2768 1.369 . S
C2767 C2769 1.419 . S
C2767 H2771 0.930 . S
C2768 C2767 1.369 . S
C2768 C2777 1.429 . S
C2769 C2767 1.419 . S
C2769 C2770 1.363 . S
C2769 H2772 0.929 . S
C2770 C2769 1.363 . S
C2770 C2776 1.428 . S
H2771 C2767 0.930 . S
H2772 C2769 0.929 . S
S2773 N2774 1.613 . S
S2773 N2775 1.610 . S
N2774 S2773 1.613 . S
N2774 C2777 1.350 . S
N2775 S2773 1.610 . S
N2775 C2776 1.351 . S
C2776 C2770 1.428 . S
C2776 N2775 1.351 . S
C2776 C2777 1.434 . S
C2777 C2768 1.429 . S
C2777 N2774 1.350 . S
C2777 C2776 1.434 . S
C2778 C2779 1.369 . S
C2778 C2780 1.419 . S
C2778 H2782 0.930 . S
C2779 C2778 1.369 . S
C2779 C2788 1.429 . S
C2780 C2778 1.419 . S
C2780 C2781 1.363 . S
C2780 H2783 0.929 . S
C2781 C2780 1.363 . S
C2781 C2787 1.428 . S
H2782 C2778 0.930 . S
H2783 C2780 0.929 . S
S2784 N2785 1.613 . S
S2784 N2786 1.610 . S
N2785 S2784 1.613 . S
N2785 C2788 1.350 . S
N2786 S2784 1.610 . S
N2786 C2787 1.351 . S
C2787 C2781 1.428 . S
C2787 N2786 1.351 . S
C2787 C2788 1.434 . S
C2788 C2779 1.429 . S
C2788 N2785 1.350 . S
C2788 C2787 1.434 . S
C2789 C2790 1.369 . S
C2789 C2791 1.419 . S
C2789 H2793 0.930 . S
C2790 C2789 1.369 . S
C2790 C2799 1.429 . S
C2791 C2789 1.419 . S
C2791 C2792 1.363 . S
C2791 H2794 0.929 . S
C2792 C2791 1.363 . S
C2792 C2798 1.428 . S
H2793 C2789 0.930 . S
H2794 C2791 0.929 . S
S2795 N2796 1.613 . S
S2795 N2797 1.610 . S
N2796 S2795 1.613 . S
N2796 C2799 1.350 . S
N2797 S2795 1.610 . S
N2797 C2798 1.351 . S
C2798 C2792 1.428 . S
C2798 N2797 1.351 . S
C2798 C2799 1.434 . S
C2799 C2790 1.429 . S
C2799 N2796 1.350 . S
C2799 C2798 1.434 . S
C2800 C2801 1.369 . S
C2800 C2802 1.419 . S
C2800 H2804 0.930 . S
C2801 C2800 1.369 . S
C2801 C2810 1.429 . S
C2802 C2800 1.419 . S
C2802 C2803 1.363 . S
C2802 H2805 0.929 . S
C2803 C2802 1.363 . S
C2803 C2809 1.428 . S
H2804 C2800 0.930 . S
H2805 C2802 0.929 . S
S2806 N2807 1.613 . S
S2806 N2808 1.610 . S
N2807 S2806 1.613 . S
N2807 C2810 1.350 . S
N2808 S2806 1.610 . S
N2808 C2809 1.351 . S
C2809 C2803 1.428 . S
C2809 N2808 1.351 . S
C2809 C2810 1.434 . S
C2810 C2801 1.429 . S
C2810 N2807 1.350 . S
C2810 C2809 1.434 . S
C2811 C2812 1.369 . S
C2811 C2813 1.419 . S
C2811 H2815 0.930 . S
C2812 C2811 1.369 . S
C2812 C2821 1.429 . S
C2813 C2811 1.419 . S
C2813 C2814 1.363 . S
C2813 H2816 0.929 . S
C2814 C2813 1.363 . S
C2814 C2820 1.428 . S
H2815 C2811 0.930 . S
H2816 C2813 0.929 . S
S2817 N2818 1.613 . S
S2817 N2819 1.610 . S
N2818 S2817 1.613 . S
N2818 C2821 1.350 . S
N2819 S2817 1.610 . S
N2819 C2820 1.351 . S
C2820 C2814 1.428 . S
C2820 N2819 1.351 . S
C2820 C2821 1.434 . S
C2821 C2812 1.429 . S
C2821 N2818 1.350 . S
C2821 C2820 1.434 . S
C2822 C2823 1.369 . S
C2822 C2824 1.419 . S
C2822 H2826 0.930 . S
C2823 C2822 1.369 . S
C2823 C2832 1.429 . S
C2824 C2822 1.419 . S
C2824 C2825 1.363 . S
C2824 H2827 0.929 . S
C2825 C2824 1.363 . S
C2825 C2831 1.428 . S
H2826 C2822 0.930 . S
H2827 C2824 0.929 . S
S2828 N2829 1.613 . S
S2828 N2830 1.610 . S
N2829 S2828 1.613 . S
N2829 C2832 1.350 . S
N2830 S2828 1.610 . S
N2830 C2831 1.351 . S
C2831 C2825 1.428 . S
C2831 N2830 1.351 . S
C2831 C2832 1.434 . S
C2832 C2823 1.429 . S
C2832 N2829 1.350 . S
C2832 C2831 1.434 . S
C2833 C2834 1.369 . S
C2833 C2835 1.419 . S
C2833 H2837 0.930 . S
C2834 C2833 1.369 . S
C2834 C2843 1.429 . S
C2835 C2833 1.419 . S
C2835 C2836 1.363 . S
C2835 H2838 0.929 . S
C2836 C2835 1.363 . S
C2836 C2842 1.428 . S
H2837 C2833 0.930 . S
H2838 C2835 0.929 . S
S2839 N2840 1.613 . S
S2839 N2841 1.610 . S
N2840 S2839 1.613 . S
N2840 C2843 1.350 . S
N2841 S2839 1.610 . S
N2841 C2842 1.351 . S
C2842 C2836 1.428 . S
C2842 N2841 1.351 . S
C2842 C2843 1.434 . S
C2843 C2834 1.429 . S
C2843 N2840 1.350 . S
C2843 C2842 1.434 . S
C2844 C2845 1.369 . S
C2844 C2846 1.419 . S
C2844 H2848 0.930 . S
C2845 C2844 1.369 . S
C2845 C2854 1.429 . S
C2846 C2844 1.419 . S
C2846 C2847 1.363 . S
C2846 H2849 0.929 . S
C2847 C2846 1.363 . S
C2847 C2853 1.428 . S
H2848 C2844 0.930 . S
H2849 C2846 0.929 . S
S2850 N2851 1.613 . S
S2850 N2852 1.610 . S
N2851 S2850 1.613 . S
N2851 C2854 1.350 . S
N2852 S2850 1.610 . S
N2852 C2853 1.351 . S
C2853 C2847 1.428 . S
C2853 N2852 1.351 . S
C2853 C2854 1.434 . S
C2854 C2845 1.429 . S
C2854 N2851 1.350 . S
C2854 C2853 1.434 . S
C2855 C2856 1.369 . S
C2855 C2857 1.419 . S
C2855 H2859 0.930 . S
C2856 C2855 1.369 . S
C2856 C2865 1.429 . S
C2857 C2855 1.419 . S
C2857 C2858 1.363 . S
C2857 H2860 0.929 . S
C2858 C2857 1.363 . S
C2858 C2864 1.428 . S
H2859 C2855 0.930 . S
H2860 C2857 0.929 . S
S2861 N2862 1.613 . S
S2861 N2863 1.610 . S
N2862 S2861 1.613 . S
N2862 C2865 1.350 . S
N2863 S2861 1.610 . S
N2863 C2864 1.351 . S
C2864 C2858 1.428 . S
C2864 N2863 1.351 . S
C2864 C2865 1.434 . S
C2865 C2856 1.429 . S
C2865 N2862 1.350 . S
C2865 C2864 1.434 . S
C2866 C2867 1.369 . S
C2866 C2868 1.419 . S
C2866 H2870 0.930 . S
C2867 C2866 1.369 . S
C2867 C2876 1.429 . S
C2868 C2866 1.419 . S
C2868 C2869 1.363 . S
C2868 H2871 0.929 . S
C2869 C2868 1.363 . S
C2869 C2875 1.428 . S
H2870 C2866 0.930 . S
H2871 C2868 0.929 . S
S2872 N2873 1.613 . S
S2872 N2874 1.610 . S
N2873 S2872 1.613 . S
N2873 C2876 1.350 . S
N2874 S2872 1.610 . S
N2874 C2875 1.351 . S
C2875 C2869 1.428 . S
C2875 N2874 1.351 . S
C2875 C2876 1.434 . S
C2876 C2867 1.429 . S
C2876 N2873 1.350 . S
C2876 C2875 1.434 . S
C2877 C2878 1.369 . S
C2877 C2879 1.419 . S
C2877 H2881 0.930 . S
C2878 C2877 1.369 . S
C2878 C2887 1.429 . S
C2879 C2877 1.419 . S
C2879 C2880 1.363 . S
C2879 H2882 0.929 . S
C2880 C2879 1.363 . S
C2880 C2886 1.428 . S
H2881 C2877 0.930 . S
H2882 C2879 0.929 . S
S2883 N2884 1.613 . S
S2883 N2885 1.610 . S
N2884 S2883 1.613 . S
N2884 C2887 1.350 . S
N2885 S2883 1.610 . S
N2885 C2886 1.351 . S
C2886 C2880 1.428 . S
C2886 N2885 1.351 . S
C2886 C2887 1.434 . S
C2887 C2878 1.429 . S
C2887 N2884 1.350 . S
C2887 C2886 1.434 . S
C2888 C2889 1.369 . S
C2888 C2890 1.419 . S
C2888 H2892 0.930 . S
C2889 C2888 1.369 . S
C2889 C2898 1.429 . S
C2890 C2888 1.419 . S
C2890 C2891 1.363 . S
C2890 H2893 0.929 . S
C2891 C2890 1.363 . S
C2891 C2897 1.428 . S
H2892 C2888 0.930 . S
H2893 C2890 0.929 . S
S2894 N2895 1.613 . S
S2894 N2896 1.610 . S
N2895 S2894 1.613 . S
N2895 C2898 1.350 . S
N2896 S2894 1.610 . S
N2896 C2897 1.351 . S
C2897 C2891 1.428 . S
C2897 N2896 1.351 . S
C2897 C2898 1.434 . S
C2898 C2889 1.429 . S
C2898 N2895 1.350 . S
C2898 C2897 1.434 . S
C2899 C2900 1.369 . S
C2899 C2901 1.419 . S
C2899 H2903 0.930 . S
C2900 C2899 1.369 . S
C2900 C2909 1.429 . S
C2901 C2899 1.419 . S
C2901 C2902 1.363 . S
C2901 H2904 0.929 . S
C2902 C2901 1.363 . S
C2902 C2908 1.428 . S
H2903 C2899 0.930 . S
H2904 C2901 0.929 . S
S2905 N2906 1.613 . S
S2905 N2907 1.610 . S
N2906 S2905 1.613 . S
N2906 C2909 1.350 . S
N2907 S2905 1.610 . S
N2907 C2908 1.351 . S
C2908 C2902 1.428 . S
C2908 N2907 1.351 . S
C2908 C2909 1.434 . S
C2909 C2900 1.429 . S
C2909 N2906 1.350 . S
C2909 C2908 1.434 . S
C2910 C2911 1.369 . S
C2910 C2912 1.419 . S
C2910 H2914 0.930 . S
C2911 C2910 1.369 . S
C2911 C2920 1.429 . S
C2912 C2910 1.419 . S
C2912 C2913 1.363 . S
C2912 H2915 0.929 . S
C2913 C2912 1.363 . S
C2913 C2919 1.428 . S
H2914 C2910 0.930 . S
H2915 C2912 0.929 . S
S2916 N2917 1.613 . S
S2916 N2918 1.610 . S
N2917 S2916 1.613 . S
N2917 C2920 1.350 . S
N2918 S2916 1.610 . S
N2918 C2919 1.351 . S
C2919 C2913 1.428 . S
C2919 N2918 1.351 . S
C2919 C2920 1.434 . S
C2920 C2911 1.429 . S
C2920 N2917 1.350 . S
C2920 C2919 1.434 . S
C2921 C2922 1.369 . S
C2921 C2923 1.419 . S
C2921 H2925 0.930 . S
C2922 C2921 1.369 . S
C2922 C2931 1.429 . S
C2923 C2921 1.419 . S
C2923 C2924 1.363 . S
C2923 H2926 0.929 . S
C2924 C2923 1.363 . S
C2924 C2930 1.428 . S
H2925 C2921 0.930 . S
H2926 C2923 0.929 . S
S2927 N2928 1.613 . S
S2927 N2929 1.610 . S
N2928 S2927 1.613 . S
N2928 C2931 1.350 . S
N2929 S2927 1.610 . S
N2929 C2930 1.351 . S
C2930 C2924 1.428 . S
C2930 N2929 1.351 . S
C2930 C2931 1.434 . S
C2931 C2922 1.429 . S
C2931 N2928 1.350 . S
C2931 C2930 1.434 . S
C2932 C2933 1.369 . S
C2932 C2934 1.419 . S
C2932 H2936 0.930 . S
C2933 C2932 1.369 . S
C2933 C2942 1.429 . S
C2934 C2932 1.419 . S
C2934 C2935 1.363 . S
C2934 H2937 0.929 . S
C2935 C2934 1.363 . S
C2935 C2941 1.428 . S
H2936 C2932 0.930 . S
H2937 C2934 0.929 . S
S2938 N2939 1.613 . S
S2938 N2940 1.610 . S
N2939 S2938 1.613 . S
N2939 C2942 1.350 . S
N2940 S2938 1.610 . S
N2940 C2941 1.351 . S
C2941 C2935 1.428 . S
C2941 N2940 1.351 . S
C2941 C2942 1.434 . S
C2942 C2933 1.429 . S
C2942 N2939 1.350 . S
C2942 C2941 1.434 . S
C2943 C2944 1.369 . S
C2943 C2945 1.419 . S
C2943 H2947 0.930 . S
C2944 C2943 1.369 . S
C2944 C2953 1.429 . S
C2945 C2943 1.419 . S
C2945 C2946 1.363 . S
C2945 H2948 0.929 . S
C2946 C2945 1.363 . S
C2946 C2952 1.428 . S
H2947 C2943 0.930 . S
H2948 C2945 0.929 . S
S2949 N2950 1.613 . S
S2949 N2951 1.610 . S
N2950 S2949 1.613 . S
N2950 C2953 1.350 . S
N2951 S2949 1.610 . S
N2951 C2952 1.351 . S
C2952 C2946 1.428 . S
C2952 N2951 1.351 . S
C2952 C2953 1.434 . S
C2953 C2944 1.429 . S
C2953 N2950 1.350 . S
C2953 C2952 1.434 . S
C2954 C2955 1.369 . S
C2954 C2956 1.419 . S
C2954 H2958 0.930 . S
C2955 C2954 1.369 . S
C2955 C2964 1.429 . S
C2956 C2954 1.419 . S
C2956 C2957 1.363 . S
C2956 H2959 0.929 . S
C2957 C2956 1.363 . S
C2957 C2963 1.428 . S
H2958 C2954 0.930 . S
H2959 C2956 0.929 . S
S2960 N2961 1.613 . S
S2960 N2962 1.610 . S
N2961 S2960 1.613 . S
N2961 C2964 1.350 . S
N2962 S2960 1.610 . S
N2962 C2963 1.351 . S
C2963 C2957 1.428 . S
C2963 N2962 1.351 . S
C2963 C2964 1.434 . S
C2964 C2955 1.429 . S
C2964 N2961 1.350 . S
C2964 C2963 1.434 . S
C2965 C2966 1.369 . S
C2965 C2967 1.419 . S
C2965 H2969 0.930 . S
C2966 C2965 1.369 . S
C2966 C2975 1.429 . S
C2967 C2965 1.419 . S
C2967 C2968 1.363 . S
C2967 H2970 0.929 . S
C2968 C2967 1.363 . S
C2968 C2974 1.428 . S
H2969 C2965 0.930 . S
H2970 C2967 0.929 . S
S2971 N2972 1.613 . S
S2971 N2973 1.610 . S
N2972 S2971 1.613 . S
N2972 C2975 1.350 . S
N2973 S2971 1.610 . S
N2973 C2974 1.351 . S
C2974 C2968 1.428 . S
C2974 N2973 1.351 . S
C2974 C2975 1.434 . S
C2975 C2966 1.429 . S
C2975 N2972 1.350 . S
C2975 C2974 1.434 . S
C2976 C2977 1.369 . S
C2976 C2978 1.419 . S
C2976 H2980 0.930 . S
C2977 C2976 1.369 . S
C2977 C2986 1.429 . S
C2978 C2976 1.419 . S
C2978 C2979 1.363 . S
C2978 H2981 0.929 . S
C2979 C2978 1.363 . S
C2979 C2985 1.428 . S
H2980 C2976 0.930 . S
H2981 C2978 0.929 . S
S2982 N2983 1.613 . S
S2982 N2984 1.610 . S
N2983 S2982 1.613 . S
N2983 C2986 1.350 . S
N2984 S2982 1.610 . S
N2984 C2985 1.351 . S
C2985 C2979 1.428 . S
C2985 N2984 1.351 . S
C2985 C2986 1.434 . S
C2986 C2977 1.429 . S
C2986 N2983 1.350 . S
C2986 C2985 1.434 . S
C2987 C2988 1.369 . S
C2987 C2989 1.419 . S
C2987 H2991 0.930 . S
C2988 C2987 1.369 . S
C2988 C2997 1.429 . S
C2989 C2987 1.419 . S
C2989 C2990 1.363 . S
C2989 H2992 0.929 . S
C2990 C2989 1.363 . S
C2990 C2996 1.428 . S
H2991 C2987 0.930 . S
H2992 C2989 0.929 . S
S2993 N2994 1.613 . S
S2993 N2995 1.610 . S
N2994 S2993 1.613 . S
N2994 C2997 1.350 . S
N2995 S2993 1.610 . S
N2995 C2996 1.351 . S
C2996 C2990 1.428 . S
C2996 N2995 1.351 . S
C2996 C2997 1.434 . S
C2997 C2988 1.429 . S
C2997 N2994 1.350 . S
C2997 C2996 1.434 . S
C2998 C2999 1.369 . S
C2998 C3000 1.419 . S
C2998 H3002 0.930 . S
C2999 C2998 1.369 . S
C2999 C3008 1.429 . S
C3000 C2998 1.419 . S
C3000 C3001 1.363 . S
C3000 H3003 0.929 . S
C3001 C3000 1.363 . S
C3001 C3007 1.428 . S
H3002 C2998 0.930 . S
H3003 C3000 0.929 . S
S3004 N3005 1.613 . S
S3004 N3006 1.610 . S
N3005 S3004 1.613 . S
N3005 C3008 1.350 . S
N3006 S3004 1.610 . S
N3006 C3007 1.351 . S
C3007 C3001 1.428 . S
C3007 N3006 1.351 . S
C3007 C3008 1.434 . S
C3008 C2999 1.429 . S
C3008 N3005 1.350 . S
C3008 C3007 1.434 . S
C3009 C3010 1.369 . S
C3009 C3011 1.419 . S
C3009 H3013 0.930 . S
C3010 C3009 1.369 . S
C3010 C3019 1.429 . S
C3011 C3009 1.419 . S
C3011 C3012 1.363 . S
C3011 H3014 0.956 . S
C3012 C3011 1.363 . S
C3012 C3018 1.428 . S
H3013 C3009 0.930 . S
H3014 C3011 0.956 . S
S3015 N3016 1.613 . S
S3015 N3017 1.610 . S
N3016 S3015 1.613 . S
N3016 C3019 1.350 . S
N3017 S3015 1.610 . S
N3017 C3018 1.351 . S
C3018 C3012 1.428 . S
C3018 N3017 1.351 . S
C3018 C3019 1.434 . S
C3019 C3010 1.429 . S
C3019 N3016 1.350 . S
C3019 C3018 1.434 . S
C3020 C3021 1.369 . S
C3020 C3022 1.419 . S
C3020 H3024 0.930 . S
C3021 C3020 1.369 . S
C3021 C3030 1.429 . S
C3022 C3020 1.419 . S
C3022 C3023 1.363 . S
C3022 H3025 0.929 . S
C3023 C3022 1.363 . S
C3023 C3029 1.428 . S
H3024 C3020 0.930 . S
H3025 C3022 0.929 . S
S3026 N3027 1.613 . S
S3026 N3028 1.610 . S
N3027 S3026 1.613 . S
N3027 C3030 1.350 . S
N3028 S3026 1.610 . S
N3028 C3029 1.351 . S
C3029 C3023 1.428 . S
C3029 N3028 1.351 . S
C3029 C3030 1.434 . S
C3030 C3021 1.429 . S
C3030 N3027 1.350 . S
C3030 C3029 1.434 . S
C3031 C3032 1.369 . S
C3031 C3033 1.419 . S
C3031 H3035 0.930 . S
C3032 C3031 1.369 . S
C3032 C3041 1.429 . S
C3033 C3031 1.419 . S
C3033 C3034 1.363 . S
C3033 H3036 0.929 . S
C3034 C3033 1.363 . S
C3034 C3040 1.428 . S
H3035 C3031 0.930 . S
H3036 C3033 0.929 . S
S3037 N3038 1.613 . S
S3037 N3039 1.610 . S
N3038 S3037 1.613 . S
N3038 C3041 1.350 . S
N3039 S3037 1.610 . S
N3039 C3040 1.351 . S
C3040 C3034 1.428 . S
C3040 N3039 1.351 . S
C3040 C3041 1.434 . S
C3041 C3032 1.429 . S
C3041 N3038 1.350 . S
C3041 C3040 1.434 . S
C3042 C3043 1.369 . S
C3042 C3044 1.419 . S
C3042 H3046 0.930 . S
C3043 C3042 1.369 . S
C3043 C3052 1.429 . S
C3044 C3042 1.419 . S
C3044 C3045 1.363 . S
C3044 H3047 0.929 . S
C3045 C3044 1.363 . S
C3045 C3051 1.428 . S
H3046 C3042 0.930 . S
H3047 C3044 0.929 . S
S3048 N3049 1.613 . S
S3048 N3050 1.610 . S
N3049 S3048 1.613 . S
N3049 C3052 1.350 . S
N3050 S3048 1.610 . S
N3050 C3051 1.351 . S
C3051 C3045 1.428 . S
C3051 N3050 1.351 . S
C3051 C3052 1.434 . S
C3052 C3043 1.429 . S
C3052 N3049 1.350 . S
C3052 C3051 1.434 . S
C3053 C3054 1.369 . S
C3053 C3055 1.419 . S
C3053 H3057 0.930 . S
C3054 C3053 1.369 . S
C3054 C3063 1.429 . S
C3055 C3053 1.419 . S
C3055 C3056 1.363 . S
C3055 H3058 0.929 . S
C3056 C3055 1.363 . S
C3056 C3062 1.428 . S
H3057 C3053 0.930 . S
H3058 C3055 0.929 . S
S3059 N3060 1.613 . S
S3059 N3061 1.610 . S
N3060 S3059 1.613 . S
N3060 C3063 1.350 . S
N3061 S3059 1.610 . S
N3061 C3062 1.351 . S
C3062 C3056 1.428 . S
C3062 N3061 1.351 . S
C3062 C3063 1.434 . S
C3063 C3054 1.429 . S
C3063 N3060 1.350 . S
C3063 C3062 1.434 . S
C3064 C3065 1.369 . S
C3064 C3066 1.419 . S
C3064 H3068 0.930 . S
C3065 C3064 1.369 . S
C3065 C3074 1.429 . S
C3066 C3064 1.419 . S
C3066 C3067 1.363 . S
C3066 H3069 0.929 . S
C3067 C3066 1.363 . S
C3067 C3073 1.428 . S
H3068 C3064 0.930 . S
H3069 C3066 0.929 . S
S3070 N3071 1.613 . S
S3070 N3072 1.610 . S
N3071 S3070 1.613 . S
N3071 C3074 1.350 . S
N3072 S3070 1.610 . S
N3072 C3073 1.351 . S
C3073 C3067 1.428 . S
C3073 N3072 1.351 . S
C3073 C3074 1.434 . S
C3074 C3065 1.429 . S
C3074 N3071 1.350 . S
C3074 C3073 1.434 . S
C3075 C3076 1.369 . S
C3075 C3077 1.419 . S
C3075 H3079 0.930 . S
C3076 C3075 1.369 . S
C3076 C3085 1.429 . S
C3077 C3075 1.419 . S
C3077 C3078 1.363 . S
C3077 H3080 0.929 . S
C3078 C3077 1.363 . S
C3078 C3084 1.428 . S
H3079 C3075 0.930 . S
H3080 C3077 0.929 . S
S3081 N3082 1.613 . S
S3081 N3083 1.610 . S
N3082 S3081 1.613 . S
N3082 C3085 1.350 . S
N3083 S3081 1.610 . S
N3083 C3084 1.351 . S
C3084 C3078 1.428 . S
C3084 N3083 1.351 . S
C3084 C3085 1.434 . S
C3085 C3076 1.429 . S
C3085 N3082 1.350 . S
C3085 C3084 1.434 . S
C3086 C3087 1.369 . S
C3086 C3088 1.419 . S
C3086 H3090 0.930 . S
C3087 C3086 1.369 . S
C3087 C3096 1.429 . S
C3088 C3086 1.419 . S
C3088 C3089 1.363 . S
C3088 H3091 0.929 . S
C3089 C3088 1.363 . S
C3089 C3095 1.428 . S
H3090 C3086 0.930 . S
H3091 C3088 0.929 . S
S3092 N3093 1.613 . S
S3092 N3094 1.610 . S
N3093 S3092 1.613 . S
N3093 C3096 1.350 . S
N3094 S3092 1.610 . S
N3094 C3095 1.351 . S
C3095 C3089 1.428 . S
C3095 N3094 1.351 . S
C3095 C3096 1.434 . S
C3096 C3087 1.429 . S
C3096 N3093 1.350 . S
C3096 C3095 1.434 . S
C3097 C3098 1.369 . S
C3097 C3099 1.419 . S
C3097 H3101 0.930 . S
C3098 C3097 1.369 . S
C3098 C3107 1.429 . S
C3099 C3097 1.419 . S
C3099 C3100 1.363 . S
C3099 H3102 0.929 . S
C3100 C3099 1.363 . S
C3100 C3106 1.428 . S
H3101 C3097 0.930 . S
H3102 C3099 0.929 . S
S3103 N3104 1.613 . S
S3103 N3105 1.610 . S
N3104 S3103 1.613 . S
N3104 C3107 1.350 . S
N3105 S3103 1.610 . S
N3105 C3106 1.351 . S
C3106 C3100 1.428 . S
C3106 N3105 1.351 . S
C3106 C3107 1.434 . S
C3107 C3098 1.429 . S
C3107 N3104 1.350 . S
C3107 C3106 1.434 . S
C3108 C3109 1.369 . S
C3108 C3110 1.419 . S
C3108 H3112 0.930 . S
C3109 C3108 1.369 . S
C3109 C3118 1.429 . S
C3110 C3108 1.419 . S
C3110 C3111 1.363 . S
C3110 H3113 0.929 . S
C3111 C3110 1.363 . S
C3111 C3117 1.428 . S
H3112 C3108 0.930 . S
H3113 C3110 0.929 . S
S3114 N3115 1.613 . S
S3114 N3116 1.610 . S
N3115 S3114 1.613 . S
N3115 C3118 1.350 . S
N3116 S3114 1.610 . S
N3116 C3117 1.351 . S
C3117 C3111 1.428 . S
C3117 N3116 1.351 . S
C3117 C3118 1.434 . S
C3118 C3109 1.429 . S
C3118 N3115 1.350 . S
C3118 C3117 1.434 . S
C3119 C3120 1.369 . S
C3119 C3121 1.419 . S
C3119 H3123 0.930 . S
C3120 C3119 1.369 . S
C3120 C3129 1.429 . S
C3121 C3119 1.419 . S
C3121 C3122 1.363 . S
C3121 H3124 0.929 . S
C3122 C3121 1.363 . S
C3122 C3128 1.428 . S
H3123 C3119 0.930 . S
H3124 C3121 0.929 . S
S3125 N3126 1.613 . S
S3125 N3127 1.610 . S
N3126 S3125 1.613 . S
N3126 C3129 1.350 . S
N3127 S3125 1.610 . S
N3127 C3128 1.351 . S
C3128 C3122 1.428 . S
C3128 N3127 1.351 . S
C3128 C3129 1.434 . S
C3129 C3120 1.429 . S
C3129 N3126 1.350 . S
C3129 C3128 1.434 . S
C3130 C3131 1.369 . S
C3130 C3132 1.419 . S
C3130 H3134 0.930 . S
C3131 C3130 1.369 . S
C3131 C3140 1.429 . S
C3132 C3130 1.419 . S
C3132 C3133 1.363 . S
C3132 H3135 0.929 . S
C3133 C3132 1.363 . S
C3133 C3139 1.428 . S
H3134 C3130 0.930 . S
H3135 C3132 0.929 . S
S3136 N3137 1.613 . S
S3136 N3138 1.610 . S
N3137 S3136 1.613 . S
N3137 C3140 1.350 . S
N3138 S3136 1.610 . S
N3138 C3139 1.351 . S
C3139 C3133 1.428 . S
C3139 N3138 1.351 . S
C3139 C3140 1.434 . S
C3140 C3131 1.429 . S
C3140 N3137 1.350 . S
C3140 C3139 1.434 . S
C3141 C3142 1.369 . S
C3141 C3143 1.419 . S
C3141 H3145 0.930 . S
C3142 C3141 1.369 . S
C3142 C3151 1.429 . S
C3143 C3141 1.419 . S
C3143 C3144 1.363 . S
C3143 H3146 0.929 . S
C3144 C3143 1.363 . S
C3144 C3150 1.428 . S
H3145 C3141 0.930 . S
H3146 C3143 0.929 . S
S3147 N3148 1.613 . S
S3147 N3149 1.610 . S
N3148 S3147 1.613 . S
N3148 C3151 1.350 . S
N3149 S3147 1.610 . S
N3149 C3150 1.351 . S
C3150 C3144 1.428 . S
C3150 N3149 1.351 . S
C3150 C3151 1.434 . S
C3151 C3142 1.429 . S
C3151 N3148 1.350 . S
C3151 C3150 1.434 . S
C3152 C3153 1.369 . S
C3152 C3154 1.419 . S
C3152 H3156 0.930 . S
C3153 C3152 1.369 . S
C3153 C3162 1.429 . S
C3154 C3152 1.419 . S
C3154 C3155 1.363 . S
C3154 H3157 0.929 . S
C3155 C3154 1.363 . S
C3155 C3161 1.428 . S
H3156 C3152 0.930 . S
H3157 C3154 0.929 . S
S3158 N3159 1.613 . S
S3158 N3160 1.610 . S
N3159 S3158 1.613 . S
N3159 C3162 1.350 . S
N3160 S3158 1.610 . S
N3160 C3161 1.351 . S
C3161 C3155 1.428 . S
C3161 N3160 1.351 . S
C3161 C3162 1.434 . S
C3162 C3153 1.429 . S
C3162 N3159 1.350 . S
C3162 C3161 1.434 . S
C3163 C3164 1.369 . S
C3163 C3165 1.419 . S
C3163 H3167 0.930 . S
C3164 C3163 1.369 . S
C3164 C3173 1.429 . S
C3165 C3163 1.419 . S
C3165 C3166 1.363 . S
C3165 H3168 0.929 . S
C3166 C3165 1.363 . S
C3166 C3172 1.428 . S
H3167 C3163 0.930 . S
H3168 C3165 0.929 . S
S3169 N3170 1.613 . S
S3169 N3171 1.610 . S
N3170 S3169 1.613 . S
N3170 C3173 1.350 . S
N3171 S3169 1.610 . S
N3171 C3172 1.351 . S
C3172 C3166 1.428 . S
C3172 N3171 1.351 . S
C3172 C3173 1.434 . S
C3173 C3164 1.429 . S
C3173 N3170 1.350 . S
C3173 C3172 1.434 . S
C3174 C3175 1.369 . S
C3174 C3176 1.419 . S
C3174 H3178 0.930 . S
C3175 C3174 1.369 . S
C3175 C3184 1.429 . S
C3176 C3174 1.419 . S
C3176 C3177 1.363 . S
C3176 H3179 0.929 . S
C3177 C3176 1.363 . S
C3177 C3183 1.428 . S
H3178 C3174 0.930 . S
H3179 C3176 0.929 . S
S3180 N3181 1.613 . S
S3180 N3182 1.610 . S
N3181 S3180 1.613 . S
N3181 C3184 1.350 . S
N3182 S3180 1.610 . S
N3182 C3183 1.351 . S
C3183 C3177 1.428 . S
C3183 N3182 1.351 . S
C3183 C3184 1.434 . S
C3184 C3175 1.429 . S
C3184 N3181 1.350 . S
C3184 C3183 1.434 . S
C3185 C3186 1.369 . S
C3185 C3187 1.419 . S
C3185 H3189 0.930 . S
C3186 C3185 1.369 . S
C3186 C3195 1.429 . S
C3187 C3185 1.419 . S
C3187 C3188 1.363 . S
C3187 H3190 0.929 . S
C3188 C3187 1.363 . S
C3188 C3194 1.428 . S
H3189 C3185 0.930 . S
H3190 C3187 0.929 . S
S3191 N3192 1.613 . S
S3191 N3193 1.610 . S
N3192 S3191 1.613 . S
N3192 C3195 1.350 . S
N3193 S3191 1.610 . S
N3193 C3194 1.351 . S
C3194 C3188 1.428 . S
C3194 N3193 1.351 . S
C3194 C3195 1.434 . S
C3195 C3186 1.429 . S
C3195 N3192 1.350 . S
C3195 C3194 1.434 . S
C3196 C3197 1.369 . S
C3196 C3198 1.419 . S
C3196 H3200 0.930 . S
C3197 C3196 1.369 . S
C3197 C3206 1.429 . S
C3198 C3196 1.419 . S
C3198 C3199 1.363 . S
C3198 H3201 0.929 . S
C3199 C3198 1.363 . S
C3199 C3205 1.428 . S
H3200 C3196 0.930 . S
H3201 C3198 0.929 . S
S3202 N3203 1.613 . S
S3202 N3204 1.610 . S
N3203 S3202 1.613 . S
N3203 C3206 1.350 . S
N3204 S3202 1.610 . S
N3204 C3205 1.351 . S
C3205 C3199 1.428 . S
C3205 N3204 1.351 . S
C3205 C3206 1.434 . S
C3206 C3197 1.429 . S
C3206 N3203 1.350 . S
C3206 C3205 1.434 . S
C3207 C3208 1.369 . S
C3207 C3209 1.419 . S
C3207 H3211 0.930 . S
C3208 C3207 1.369 . S
C3208 C3217 1.429 . S
C3209 C3207 1.419 . S
C3209 C3210 1.363 . S
C3209 H3212 0.929 . S
C3210 C3209 1.363 . S
C3210 C3216 1.428 . S
H3211 C3207 0.930 . S
H3212 C3209 0.929 . S
S3213 N3214 1.613 . S
S3213 N3215 1.610 . S
N3214 S3213 1.613 . S
N3214 C3217 1.350 . S
N3215 S3213 1.610 . S
N3215 C3216 1.351 . S
C3216 C3210 1.428 . S
C3216 N3215 1.351 . S
C3216 C3217 1.434 . S
C3217 C3208 1.429 . S
C3217 N3214 1.350 . S
C3217 C3216 1.434 . S
C3218 C3219 1.369 . S
C3218 C3220 1.419 . S
C3218 H3222 0.930 . S
C3219 C3218 1.369 . S
C3219 C3228 1.429 . S
C3220 C3218 1.419 . S
C3220 C3221 1.363 . S
C3220 H3223 0.929 . S
C3221 C3220 1.363 . S
C3221 C3227 1.428 . S
H3222 C3218 0.930 . S
H3223 C3220 0.929 . S
S3224 N3225 1.613 . S
S3224 N3226 1.610 . S
N3225 S3224 1.613 . S
N3225 C3228 1.350 . S
N3226 S3224 1.610 . S
N3226 C3227 1.351 . S
C3227 C3221 1.428 . S
C3227 N3226 1.351 . S
C3227 C3228 1.434 . S
C3228 C3219 1.429 . S
C3228 N3225 1.350 . S
C3228 C3227 1.434 . S
C3229 C3230 1.369 . S
C3229 C3231 1.419 . S
C3229 H3233 0.930 . S
C3230 C3229 1.369 . S
C3230 C3239 1.429 . S
C3231 C3229 1.419 . S
C3231 C3232 1.363 . S
C3231 H3234 0.929 . S
C3232 C3231 1.363 . S
C3232 C3238 1.428 . S
H3233 C3229 0.930 . S
H3234 C3231 0.929 . S
S3235 N3236 1.613 . S
S3235 N3237 1.610 . S
N3236 S3235 1.613 . S
N3236 C3239 1.350 . S
N3237 S3235 1.610 . S
N3237 C3238 1.351 . S
C3238 C3232 1.428 . S
C3238 N3237 1.351 . S
C3238 C3239 1.434 . S
C3239 C3230 1.429 . S
C3239 N3236 1.350 . S
C3239 C3238 1.434 . S
C3240 C3241 1.369 . S
C3240 C3242 1.419 . S
C3240 H3244 0.930 . S
C3241 C3240 1.369 . S
C3241 C3250 1.429 . S
C3242 C3240 1.419 . S
C3242 C3243 1.363 . S
C3242 H3245 0.929 . S
C3243 C3242 1.363 . S
C3243 C3249 1.428 . S
H3244 C3240 0.930 . S
H3245 C3242 0.929 . S
S3246 N3247 1.613 . S
S3246 N3248 1.611 . S
N3247 S3246 1.613 . S
N3247 C3250 1.350 . S
N3248 S3246 1.611 . S
N3248 C3249 1.355 . S
C3249 C3243 1.428 . S
C3249 N3248 1.355 . S
C3249 C3250 1.434 . S
C3250 C3241 1.429 . S
C3250 N3247 1.350 . S
C3250 C3249 1.434 . S
C3251 C3252 1.369 . S
C3251 C3253 1.419 . S
C3251 H3255 0.930 . S
C3252 C3251 1.369 . S
C3252 C3261 1.429 . S
C3253 C3251 1.419 . S
C3253 C3254 1.363 . S
C3253 H3256 0.929 . S
C3254 C3253 1.363 . S
C3254 C3260 1.428 . S
H3255 C3251 0.930 . S
H3256 C3253 0.929 . S
S3257 N3258 1.613 . S
S3257 N3259 1.610 . S
N3258 S3257 1.613 . S
N3258 C3261 1.350 . S
N3259 S3257 1.610 . S
N3259 C3260 1.351 . S
C3260 C3254 1.428 . S
C3260 N3259 1.351 . S
C3260 C3261 1.434 . S
C3261 C3252 1.429 . S
C3261 N3258 1.350 . S
C3261 C3260 1.434 . S
C3262 C3263 1.369 . S
C3262 C3264 1.419 . S
C3262 H3266 0.930 1_565 S
C3263 C3262 1.369 . S
C3263 C3272 1.429 . S
C3264 C3262 1.419 . S
C3264 C3265 1.363 . S
C3264 H3267 0.929 . S
C3265 C3264 1.363 . S
C3265 C3271 1.428 . S
H3266 C3262 0.930 1_545 S
H3267 C3264 0.929 . S
S3268 N3269 1.613 . S
S3268 N3270 1.610 . S
N3269 S3268 1.613 . S
N3269 C3272 1.350 . S
N3270 S3268 1.610 . S
N3270 C3271 1.351 . S
C3271 C3265 1.428 . S
C3271 N3270 1.351 . S
C3271 C3272 1.434 . S
C3272 C3263 1.429 . S
C3272 N3269 1.350 . S
C3272 C3271 1.434 . S
C3273 C3274 1.369 . S
C3273 C3275 1.419 . S
C3273 H3277 0.930 . S
C3274 C3273 1.369 . S
C3274 C3283 1.429 . S
C3275 C3273 1.419 . S
C3275 C3276 1.363 . S
C3275 H3278 0.929 1_565 S
C3276 C3275 1.363 . S
C3276 C3282 1.428 . S
H3277 C3273 0.930 . S
H3278 C3275 0.929 1_545 S
S3279 N3280 1.613 . S
S3279 N3281 1.610 . S
N3280 S3279 1.613 . S
N3280 C3283 1.350 . S
N3281 S3279 1.610 . S
N3281 C3282 1.351 . S
C3282 C3276 1.428 . S
C3282 N3281 1.351 . S
C3282 C3283 1.434 . S
C3283 C3274 1.429 . S
C3283 N3280 1.350 . S
C3283 C3282 1.434 . S
C3284 C3285 1.369 . S
C3284 C3286 1.419 . S
C3284 H3288 0.930 . S
C3285 C3284 1.369 . S
C3285 C3294 1.429 . S
C3286 C3284 1.419 . S
C3286 C3287 1.363 . S
C3286 H3289 0.929 . S
C3287 C3286 1.363 . S
C3287 C3293 1.428 . S
H3288 C3284 0.930 . S
H3289 C3286 0.929 . S
S3290 N3291 1.594 1_565 S
S3290 N3292 1.614 . S
N3291 S3290 1.594 1_545 S
N3291 C3294 1.350 . S
N3292 S3290 1.614 . S
N3292 C3293 1.351 1_565 S
C3293 C3287 1.428 . S
C3293 N3292 1.351 1_545 S
C3293 C3294 1.434 . S
C3294 C3285 1.429 . S
C3294 N3291 1.350 . S
C3294 C3293 1.434 . S
C3295 C3296 1.369 . S
C3295 C3297 1.419 . S
C3295 H3299 0.930 . S
C3296 C3295 1.369 . S
C3296 C3305 1.429 . S
C3297 C3295 1.419 . S
C3297 C3298 1.363 . S
C3297 H3300 0.929 . S
C3298 C3297 1.363 . S
C3298 C3304 1.428 . S
H3299 C3295 0.930 . S
H3300 C3297 0.929 . S
S3301 N3302 1.613 . S
S3301 N3303 1.610 . S
N3302 S3301 1.613 . S
N3302 C3305 1.350 . S
N3303 S3301 1.610 . S
N3303 C3304 1.351 . S
C3304 C3298 1.428 . S
C3304 N3303 1.351 . S
C3304 C3305 1.434 . S
C3305 C3296 1.429 . S
C3305 N3302 1.350 . S
C3305 C3304 1.434 . S
C3306 C3307 1.369 . S
C3306 C3308 1.419 . S
C3306 H3310 0.930 . S
C3307 C3306 1.369 . S
C3307 C3316 1.429 . S
C3308 C3306 1.419 . S
C3308 C3309 1.363 . S
C3308 H3311 0.929 . S
C3309 C3308 1.363 . S
C3309 C3315 1.428 . S
H3310 C3306 0.930 . S
H3311 C3308 0.929 . S
S3312 N3313 1.613 . S
S3312 N3314 1.610 . S
N3313 S3312 1.613 . S
N3313 C3316 1.350 . S
N3314 S3312 1.610 . S
N3314 C3315 1.351 . S
C3315 C3309 1.428 . S
C3315 N3314 1.351 . S
C3315 C3316 1.434 . S
C3316 C3307 1.429 . S
C3316 N3313 1.350 . S
C3316 C3315 1.434 . S
C3317 C3318 1.369 . S
C3317 C3319 1.419 . S
C3317 H3321 0.930 . S
C3318 C3317 1.369 . S
C3318 C3327 1.429 . S
C3319 C3317 1.419 . S
C3319 C3320 1.363 . S
C3319 H3322 0.929 . S
C3320 C3319 1.363 . S
C3320 C3326 1.428 . S
H3321 C3317 0.930 . S
H3322 C3319 0.929 . S
S3323 N3324 1.613 . S
S3323 N3325 1.610 . S
N3324 S3323 1.613 . S
N3324 C3327 1.350 . S
N3325 S3323 1.610 . S
N3325 C3326 1.351 . S
C3326 C3320 1.428 . S
C3326 N3325 1.351 . S
C3326 C3327 1.434 . S
C3327 C3318 1.429 . S
C3327 N3324 1.350 . S
C3327 C3326 1.434 . S
C3328 C3329 1.369 . S
C3328 C3330 1.419 . S
C3328 H3332 0.930 . S
C3329 C3328 1.369 . S
C3329 C3338 1.429 . S
C3330 C3328 1.419 . S
C3330 C3331 1.363 . S
C3330 H3333 0.929 . S
C3331 C3330 1.363 . S
C3331 C3337 1.428 . S
H3332 C3328 0.930 . S
H3333 C3330 0.929 . S
S3334 N3335 1.613 . S
S3334 N3336 1.610 . S
N3335 S3334 1.613 . S
N3335 C3338 1.350 . S
N3336 S3334 1.610 . S
N3336 C3337 1.351 . S
C3337 C3331 1.428 . S
C3337 N3336 1.351 . S
C3337 C3338 1.434 . S
C3338 C3329 1.429 . S
C3338 N3335 1.350 . S
C3338 C3337 1.434 . S
C3339 C3340 1.369 . S
C3339 C3341 1.419 . S
C3339 H3343 0.930 . S
C3340 C3339 1.369 . S
C3340 C3349 1.429 . S
C3341 C3339 1.419 . S
C3341 C3342 1.363 . S
C3341 H3344 0.929 . S
C3342 C3341 1.363 . S
C3342 C3348 1.428 . S
H3343 C3339 0.930 . S
H3344 C3341 0.929 . S
S3345 N3346 1.613 . S
S3345 N3347 1.610 . S
N3346 S3345 1.613 . S
N3346 C3349 1.350 . S
N3347 S3345 1.610 . S
N3347 C3348 1.351 . S
C3348 C3342 1.428 . S
C3348 N3347 1.351 . S
C3348 C3349 1.434 . S
C3349 C3340 1.429 . S
C3349 N3346 1.350 . S
C3349 C3348 1.434 . S
C3350 C3351 1.369 . S
C3350 C3352 1.419 . S
C3350 H3354 0.930 . S
C3351 C3350 1.369 . S
C3351 C3360 1.429 . S
C3352 C3350 1.419 . S
C3352 C3353 1.363 . S
C3352 H3355 0.929 . S
C3353 C3352 1.363 . S
C3353 C3359 1.428 . S
H3354 C3350 0.930 . S
H3355 C3352 0.929 . S
S3356 N3357 1.613 . S
S3356 N3358 1.610 . S
N3357 S3356 1.613 . S
N3357 C3360 1.350 . S
N3358 S3356 1.610 . S
N3358 C3359 1.351 . S
C3359 C3353 1.428 . S
C3359 N3358 1.351 . S
C3359 C3360 1.434 . S
C3360 C3351 1.429 . S
C3360 N3357 1.350 . S
C3360 C3359 1.434 . S
C3361 C3362 1.369 . S
C3361 C3363 1.419 . S
C3361 H3365 0.930 . S
C3362 C3361 1.369 . S
C3362 C3371 1.429 . S
C3363 C3361 1.419 . S
C3363 C3364 1.363 . S
C3363 H3366 0.929 . S
C3364 C3363 1.363 . S
C3364 C3370 1.428 . S
H3365 C3361 0.930 . S
H3366 C3363 0.929 . S
S3367 N3368 1.613 . S
S3367 N3369 1.610 . S
N3368 S3367 1.613 . S
N3368 C3371 1.350 . S
N3369 S3367 1.610 . S
N3369 C3370 1.351 . S
C3370 C3364 1.428 . S
C3370 N3369 1.351 . S
C3370 C3371 1.434 . S
C3371 C3362 1.429 . S
C3371 N3368 1.350 . S
C3371 C3370 1.434 . S
C3372 C3373 1.369 . S
C3372 C3374 1.419 . S
C3372 H3376 0.930 . S
C3373 C3372 1.369 . S
C3373 C3382 1.429 . S
C3374 C3372 1.419 . S
C3374 C3375 1.363 . S
C3374 H3377 0.929 . S
C3375 C3374 1.363 . S
C3375 C3381 1.428 . S
H3376 C3372 0.930 . S
H3377 C3374 0.929 . S
S3378 N3379 1.613 . S
S3378 N3380 1.610 . S
N3379 S3378 1.613 . S
N3379 C3382 1.350 . S
N3380 S3378 1.610 . S
N3380 C3381 1.351 . S
C3381 C3375 1.428 . S
C3381 N3380 1.351 . S
C3381 C3382 1.434 . S
C3382 C3373 1.429 . S
C3382 N3379 1.350 . S
C3382 C3381 1.434 . S
C3383 C3384 1.369 . S
C3383 C3385 1.419 . S
C3383 H3387 0.930 . S
C3384 C3383 1.369 . S
C3384 C3393 1.429 . S
C3385 C3383 1.419 . S
C3385 C3386 1.363 . S
C3385 H3388 0.929 . S
C3386 C3385 1.363 . S
C3386 C3392 1.428 . S
H3387 C3383 0.930 . S
H3388 C3385 0.929 . S
S3389 N3390 1.613 . S
S3389 N3391 1.610 . S
N3390 S3389 1.613 . S
N3390 C3393 1.350 . S
N3391 S3389 1.610 . S
N3391 C3392 1.351 . S
C3392 C3386 1.428 . S
C3392 N3391 1.351 . S
C3392 C3393 1.434 . S
C3393 C3384 1.429 . S
C3393 N3390 1.350 . S
C3393 C3392 1.434 . S
C3394 C3395 1.369 . S
C3394 C3396 1.419 . S
C3394 H3398 0.930 . S
C3395 C3394 1.369 . S
C3395 C3404 1.429 . S
C3396 C3394 1.419 . S
C3396 C3397 1.363 . S
C3396 H3399 0.929 . S
C3397 C3396 1.363 . S
C3397 C3403 1.428 . S
H3398 C3394 0.930 . S
H3399 C3396 0.929 . S
S3400 N3401 1.613 . S
S3400 N3402 1.610 . S
N3401 S3400 1.613 . S
N3401 C3404 1.350 . S
N3402 S3400 1.610 . S
N3402 C3403 1.351 . S
C3403 C3397 1.428 . S
C3403 N3402 1.351 . S
C3403 C3404 1.434 . S
C3404 C3395 1.429 . S
C3404 N3401 1.350 . S
C3404 C3403 1.434 . S
C3405 C3406 1.369 . S
C3405 C3407 1.419 . S
C3405 H3409 0.930 . S
C3406 C3405 1.369 . S
C3406 C3415 1.429 . S
C3407 C3405 1.419 . S
C3407 C3408 1.363 . S
C3407 H3410 0.929 . S
C3408 C3407 1.363 . S
C3408 C3414 1.428 . S
H3409 C3405 0.930 . S
H3410 C3407 0.929 . S
S3411 N3412 1.613 . S
S3411 N3413 1.610 . S
N3412 S3411 1.613 . S
N3412 C3415 1.350 . S
N3413 S3411 1.610 . S
N3413 C3414 1.351 . S
C3414 C3408 1.428 . S
C3414 N3413 1.351 . S
C3414 C3415 1.434 . S
C3415 C3406 1.429 . S
C3415 N3412 1.350 . S
C3415 C3414 1.434 . S
C3416 C3417 1.369 . S
C3416 C3418 1.419 . S
C3416 H3420 0.930 . S
C3417 C3416 1.369 . S
C3417 C3426 1.429 . S
C3418 C3416 1.419 . S
C3418 C3419 1.363 . S
C3418 H3421 0.929 . S
C3419 C3418 1.363 . S
C3419 C3425 1.428 . S
H3420 C3416 0.930 . S
H3421 C3418 0.929 . S
S3422 N3423 1.613 . S
S3422 N3424 1.610 . S
N3423 S3422 1.613 . S
N3423 C3426 1.350 . S
N3424 S3422 1.610 . S
N3424 C3425 1.351 . S
C3425 C3419 1.428 . S
C3425 N3424 1.351 . S
C3425 C3426 1.434 . S
C3426 C3417 1.429 . S
C3426 N3423 1.350 . S
C3426 C3425 1.434 . S
C3427 C3428 1.369 . S
C3427 C3429 1.419 . S
C3427 H3431 0.930 . S
C3428 C3427 1.369 . S
C3428 C3437 1.429 . S
C3429 C3427 1.419 . S
C3429 C3430 1.363 . S
C3429 H3432 0.929 . S
C3430 C3429 1.363 . S
C3430 C3436 1.428 . S
H3431 C3427 0.930 . S
H3432 C3429 0.929 . S
S3433 N3434 1.613 . S
S3433 N3435 1.610 . S
N3434 S3433 1.613 . S
N3434 C3437 1.350 . S
N3435 S3433 1.610 . S
N3435 C3436 1.351 . S
C3436 C3430 1.428 . S
C3436 N3435 1.351 . S
C3436 C3437 1.434 . S
C3437 C3428 1.429 . S
C3437 N3434 1.350 . S
C3437 C3436 1.434 . S
C3438 C3439 1.369 . S
C3438 C3440 1.419 . S
C3438 H3442 0.930 . S
C3439 C3438 1.369 . S
C3439 C3448 1.429 . S
C3440 C3438 1.419 . S
C3440 C3441 1.363 . S
C3440 H3443 0.929 . S
C3441 C3440 1.363 . S
C3441 C3447 1.428 . S
H3442 C3438 0.930 . S
H3443 C3440 0.929 . S
S3444 N3445 1.613 . S
S3444 N3446 1.610 . S
N3445 S3444 1.613 . S
N3445 C3448 1.350 . S
N3446 S3444 1.610 . S
N3446 C3447 1.351 . S
C3447 C3441 1.428 . S
C3447 N3446 1.351 . S
C3447 C3448 1.434 . S
C3448 C3439 1.429 . S
C3448 N3445 1.350 . S
C3448 C3447 1.434 . S
C3449 C3450 1.369 . S
C3449 C3451 1.419 . S
C3449 H3453 0.930 . S
C3450 C3449 1.369 . S
C3450 C3459 1.429 . S
C3451 C3449 1.419 . S
C3451 C3452 1.363 . S
C3451 H3454 0.929 . S
C3452 C3451 1.363 . S
C3452 C3458 1.428 . S
H3453 C3449 0.930 . S
H3454 C3451 0.929 . S
S3455 N3456 1.613 . S
S3455 N3457 1.610 . S
N3456 S3455 1.613 . S
N3456 C3459 1.350 . S
N3457 S3455 1.610 . S
N3457 C3458 1.351 . S
C3458 C3452 1.428 . S
C3458 N3457 1.351 . S
C3458 C3459 1.434 . S
C3459 C3450 1.429 . S
C3459 N3456 1.350 . S
C3459 C3458 1.434 . S
C3460 C3461 1.369 . S
C3460 C3462 1.419 . S
C3460 H3464 0.930 . S
C3461 C3460 1.369 . S
C3461 C3470 1.429 . S
C3462 C3460 1.419 . S
C3462 C3463 1.363 . S
C3462 H3465 0.929 . S
C3463 C3462 1.363 . S
C3463 C3469 1.428 . S
H3464 C3460 0.930 . S
H3465 C3462 0.929 . S
S3466 N3467 1.613 . S
S3466 N3468 1.610 . S
N3467 S3466 1.613 . S
N3467 C3470 1.350 . S
N3468 S3466 1.610 . S
N3468 C3469 1.351 . S
C3469 C3463 1.428 . S
C3469 N3468 1.351 . S
C3469 C3470 1.434 . S
C3470 C3461 1.429 . S
C3470 N3467 1.350 . S
C3470 C3469 1.434 . S
C3471 C3472 1.369 . S
C3471 C3473 1.419 . S
C3471 H3475 0.930 . S
C3472 C3471 1.369 . S
C3472 C3481 1.429 . S
C3473 C3471 1.419 . S
C3473 C3474 1.363 . S
C3473 H3476 0.929 . S
C3474 C3473 1.363 . S
C3474 C3480 1.428 . S
H3475 C3471 0.930 . S
H3476 C3473 0.929 . S
S3477 N3478 1.613 . S
S3477 N3479 1.610 . S
N3478 S3477 1.613 . S
N3478 C3481 1.350 . S
N3479 S3477 1.610 . S
N3479 C3480 1.351 . S
C3480 C3474 1.428 . S
C3480 N3479 1.351 . S
C3480 C3481 1.434 . S
C3481 C3472 1.429 . S
C3481 N3478 1.350 . S
C3481 C3480 1.434 . S
C3482 C3483 1.369 . S
C3482 C3484 1.419 . S
C3482 H3486 0.930 . S
C3483 C3482 1.369 . S
C3483 C3492 1.429 . S
C3484 C3482 1.419 . S
C3484 C3485 1.363 . S
C3484 H3487 0.929 . S
C3485 C3484 1.363 . S
C3485 C3491 1.428 . S
H3486 C3482 0.930 . S
H3487 C3484 0.929 . S
S3488 N3489 1.613 . S
S3488 N3490 1.610 . S
N3489 S3488 1.613 . S
N3489 C3492 1.350 . S
N3490 S3488 1.610 . S
N3490 C3491 1.351 . S
C3491 C3485 1.428 . S
C3491 N3490 1.351 . S
C3491 C3492 1.434 . S
C3492 C3483 1.429 . S
C3492 N3489 1.350 . S
C3492 C3491 1.434 . S
C3493 C3494 1.369 . S
C3493 C3495 1.419 . S
C3493 H3497 0.930 . S
C3494 C3493 1.369 . S
C3494 C3503 1.429 . S
C3495 C3493 1.419 . S
C3495 C3496 1.363 . S
C3495 H3498 0.929 . S
C3496 C3495 1.363 . S
C3496 C3502 1.428 . S
H3497 C3493 0.930 . S
H3498 C3495 0.929 . S
S3499 N3500 1.613 . S
S3499 N3501 1.610 . S
N3500 S3499 1.613 . S
N3500 C3503 1.350 . S
N3501 S3499 1.610 . S
N3501 C3502 1.351 . S
C3502 C3496 1.428 . S
C3502 N3501 1.351 . S
C3502 C3503 1.434 . S
C3503 C3494 1.429 . S
C3503 N3500 1.350 . S
C3503 C3502 1.434 . S
C3504 C3505 1.369 . S
C3504 C3506 1.419 . S
C3504 H3508 0.930 . S
C3505 C3504 1.369 . S
C3505 C3514 1.429 . S
C3506 C3504 1.419 . S
C3506 C3507 1.363 . S
C3506 H3509 0.929 . S
C3507 C3506 1.363 . S
C3507 C3513 1.428 . S
H3508 C3504 0.930 . S
H3509 C3506 0.929 . S
S3510 N3511 1.613 . S
S3510 N3512 1.610 . S
N3511 S3510 1.613 . S
N3511 C3514 1.350 . S
N3512 S3510 1.610 . S
N3512 C3513 1.351 . S
C3513 C3507 1.428 . S
C3513 N3512 1.351 . S
C3513 C3514 1.434 . S
C3514 C3505 1.429 . S
C3514 N3511 1.350 . S
C3514 C3513 1.434 . S
C3515 C3516 1.369 . S
C3515 C3517 1.419 . S
C3515 H3519 0.930 . S
C3516 C3515 1.369 . S
C3516 C3525 1.429 . S
C3517 C3515 1.419 . S
C3517 C3518 1.363 . S
C3517 H3520 0.929 . S
C3518 C3517 1.363 . S
C3518 C3524 1.428 . S
H3519 C3515 0.930 . S
H3520 C3517 0.929 . S
S3521 N3522 1.613 . S
S3521 N3523 1.610 . S
N3522 S3521 1.613 . S
N3522 C3525 1.350 . S
N3523 S3521 1.610 . S
N3523 C3524 1.351 . S
C3524 C3518 1.428 . S
C3524 N3523 1.351 . S
C3524 C3525 1.434 . S
C3525 C3516 1.429 . S
C3525 N3522 1.350 . S
C3525 C3524 1.434 . S
C3526 C3527 1.369 . S
C3526 C3528 1.419 . S
C3526 H3530 0.930 . S
C3527 C3526 1.369 . S
C3527 C3536 1.429 . S
C3528 C3526 1.419 . S
C3528 C3529 1.363 . S
C3528 H3531 0.929 . S
C3529 C3528 1.363 . S
C3529 C3535 1.428 . S
H3530 C3526 0.930 . S
H3531 C3528 0.929 . S
S3532 N3533 1.613 . S
S3532 N3534 1.610 . S
N3533 S3532 1.613 . S
N3533 C3536 1.350 . S
N3534 S3532 1.610 . S
N3534 C3535 1.351 . S
C3535 C3529 1.428 . S
C3535 N3534 1.351 . S
C3535 C3536 1.434 . S
C3536 C3527 1.429 . S
C3536 N3533 1.350 . S
C3536 C3535 1.434 . S
C3537 C3538 1.369 . S
C3537 C3539 1.419 . S
C3537 H3541 0.930 . S
C3538 C3537 1.369 . S
C3538 C3547 1.429 . S
C3539 C3537 1.419 . S
C3539 C3540 1.363 . S
C3539 H3542 0.929 . S
C3540 C3539 1.363 . S
C3540 C3546 1.428 . S
H3541 C3537 0.930 . S
H3542 C3539 0.929 . S
S3543 N3544 1.613 . S
S3543 N3545 1.610 . S
N3544 S3543 1.613 . S
N3544 C3547 1.350 . S
N3545 S3543 1.610 . S
N3545 C3546 1.351 . S
C3546 C3540 1.428 . S
C3546 N3545 1.351 . S
C3546 C3547 1.434 . S
C3547 C3538 1.429 . S
C3547 N3544 1.350 . S
C3547 C3546 1.434 . S
C3548 C3549 1.369 . S
C3548 C3550 1.419 . S
C3548 H3552 0.930 . S
C3549 C3548 1.369 . S
C3549 C3558 1.429 . S
C3550 C3548 1.419 . S
C3550 C3551 1.363 . S
C3550 H3553 0.929 . S
C3551 C3550 1.363 . S
C3551 C3557 1.428 . S
H3552 C3548 0.930 . S
H3553 C3550 0.929 . S
S3554 N3555 1.613 . S
S3554 N3556 1.610 1_554 S
N3555 S3554 1.613 . S
N3555 C3558 1.350 . S
N3556 S3554 1.610 1_556 S
N3556 C3557 1.351 1_556 S
C3557 C3551 1.428 . S
C3557 N3556 1.351 1_554 S
C3557 C3558 1.434 . S
C3558 C3549 1.429 . S
C3558 N3555 1.350 . S
C3558 C3557 1.434 . S
C3559 C3560 1.369 . S
C3559 C3561 1.419 . S
C3559 H3563 0.930 . S
C3560 C3559 1.369 . S
C3560 C3569 1.429 . S
C3561 C3559 1.419 . S
C3561 C3562 1.363 . S
C3561 H3564 0.929 . S
C3562 C3561 1.363 . S
C3562 C3568 1.428 . S
H3563 C3559 0.930 . S
H3564 C3561 0.929 . S
S3565 N3566 1.613 . S
S3565 N3567 1.610 . S
N3566 S3565 1.613 . S
N3566 C3569 1.350 . S
N3567 S3565 1.610 . S
N3567 C3568 1.351 . S
C3568 C3562 1.428 . S
C3568 N3567 1.351 . S
C3568 C3569 1.434 . S
C3569 C3560 1.429 . S
C3569 N3566 1.350 . S
C3569 C3568 1.434 . S
C3570 C3571 1.369 . S
C3570 C3572 1.419 . S
C3570 H3574 0.930 . S
C3571 C3570 1.369 . S
C3571 C3580 1.429 . S
C3572 C3570 1.419 . S
C3572 C3573 1.363 . S
C3572 H3575 0.929 . S
C3573 C3572 1.363 . S
C3573 C3579 1.428 . S
H3574 C3570 0.930 . S
H3575 C3572 0.929 . S
S3576 N3577 1.613 . S
S3576 N3578 1.610 . S
N3577 S3576 1.613 . S
N3577 C3580 1.350 . S
N3578 S3576 1.610 . S
N3578 C3579 1.351 . S
C3579 C3573 1.428 . S
C3579 N3578 1.351 . S
C3579 C3580 1.434 . S
C3580 C3571 1.429 . S
C3580 N3577 1.350 . S
C3580 C3579 1.434 . S
C3581 C3582 1.369 . S
C3581 C3583 1.419 . S
C3581 H3585 0.930 . S
C3582 C3581 1.369 . S
C3582 C3591 1.429 . S
C3583 C3581 1.419 . S
C3583 C3584 1.363 . S
C3583 H3586 0.929 . S
C3584 C3583 1.363 . S
C3584 C3590 1.428 . S
H3585 C3581 0.930 . S
H3586 C3583 0.929 . S
S3587 N3588 1.613 . S
S3587 N3589 1.610 . S
N3588 S3587 1.613 . S
N3588 C3591 1.350 . S
N3589 S3587 1.610 . S
N3589 C3590 1.351 . S
C3590 C3584 1.428 . S
C3590 N3589 1.351 . S
C3590 C3591 1.434 . S
C3591 C3582 1.429 . S
C3591 N3588 1.350 . S
C3591 C3590 1.434 . S
C3592 C3593 1.369 . S
C3592 C3594 1.419 . S
C3592 H3596 0.930 . S
C3593 C3592 1.369 . S
C3593 C3602 1.429 . S
C3594 C3592 1.419 . S
C3594 C3595 1.363 . S
C3594 H3597 0.929 . S
C3595 C3594 1.363 . S
C3595 C3601 1.428 . S
H3596 C3592 0.930 . S
H3597 C3594 0.929 . S
S3598 N3599 1.613 . S
S3598 N3600 1.610 . S
N3599 S3598 1.613 . S
N3599 C3602 1.350 . S
N3600 S3598 1.610 . S
N3600 C3601 1.351 . S
C3601 C3595 1.428 . S
C3601 N3600 1.351 . S
C3601 C3602 1.434 . S
C3602 C3593 1.429 . S
C3602 N3599 1.350 . S
C3602 C3601 1.434 . S
C3603 C3604 1.369 . S
C3603 C3605 1.419 . S
C3603 H3607 0.930 . S
C3604 C3603 1.369 . S
C3604 C3613 1.429 . S
C3605 C3603 1.419 . S
C3605 C3606 1.363 . S
C3605 H3608 0.929 . S
C3606 C3605 1.363 . S
C3606 C3612 1.428 . S
H3607 C3603 0.930 . S
H3608 C3605 0.929 . S
S3609 N3610 1.613 . S
S3609 N3611 1.610 . S
N3610 S3609 1.613 . S
N3610 C3613 1.350 . S
N3611 S3609 1.610 . S
N3611 C3612 1.351 . S
C3612 C3606 1.428 . S
C3612 N3611 1.351 . S
C3612 C3613 1.434 . S
C3613 C3604 1.429 . S
C3613 N3610 1.350 . S
C3613 C3612 1.434 . S
C3614 C3615 1.369 . S
C3614 C3616 1.419 . S
C3614 H3618 0.930 . S
C3615 C3614 1.369 . S
C3615 C3624 1.429 . S
C3616 C3614 1.419 . S
C3616 C3617 1.363 . S
C3616 H3619 0.929 . S
C3617 C3616 1.363 . S
C3617 C3623 1.428 . S
H3618 C3614 0.930 . S
H3619 C3616 0.929 . S
S3620 N3621 1.613 . S
S3620 N3622 1.610 1_455 S
N3621 S3620 1.613 . S
N3621 C3624 1.350 . S
N3622 S3620 1.610 1_655 S
N3622 C3623 1.351 1_655 S
C3623 C3617 1.428 . S
C3623 N3622 1.351 1_455 S
C3623 C3624 1.434 . S
C3624 C3615 1.429 . S
C3624 N3621 1.350 . S
C3624 C3623 1.434 . S
C3625 C3626 1.369 . S
C3625 C3627 1.419 . S
C3625 H3629 0.930 . S
C3626 C3625 1.369 . S
C3626 C3635 1.429 . S
C3627 C3625 1.419 . S
C3627 C3628 1.363 . S
C3627 H3630 0.929 . S
C3628 C3627 1.363 . S
C3628 C3634 1.428 . S
H3629 C3625 0.930 . S
H3630 C3627 0.929 . S
S3631 N3632 1.613 . S
S3631 N3633 1.610 . S
N3632 S3631 1.613 . S
N3632 C3635 1.350 . S
N3633 S3631 1.610 . S
N3633 C3634 1.351 . S
C3634 C3628 1.428 . S
C3634 N3633 1.351 . S
C3634 C3635 1.434 . S
C3635 C3626 1.429 . S
C3635 N3632 1.350 . S
C3635 C3634 1.434 . S
C3636 C3637 1.369 . S
C3636 C3638 1.419 . S
C3636 H3640 0.930 . S
C3637 C3636 1.369 . S
C3637 C3646 1.429 . S
C3638 C3636 1.419 . S
C3638 C3639 1.363 . S
C3638 H3641 0.929 . S
C3639 C3638 1.363 . S
C3639 C3645 1.428 . S
H3640 C3636 0.930 . S
H3641 C3638 0.929 . S
S3642 N3643 1.613 . S
S3642 N3644 1.610 . S
N3643 S3642 1.613 . S
N3643 C3646 1.350 . S
N3644 S3642 1.610 . S
N3644 C3645 1.351 . S
C3645 C3639 1.428 . S
C3645 N3644 1.351 . S
C3645 C3646 1.434 . S
C3646 C3637 1.429 . S
C3646 N3643 1.350 . S
C3646 C3645 1.434 . S
C3647 C3648 1.369 . S
C3647 C3649 1.419 . S
C3647 H3651 0.930 . S
C3648 C3647 1.369 . S
C3648 C3657 1.429 . S
C3649 C3647 1.419 . S
C3649 C3650 1.363 . S
C3649 H3652 0.929 . S
C3650 C3649 1.363 . S
C3650 C3656 1.428 . S
H3651 C3647 0.930 . S
H3652 C3649 0.929 . S
S3653 N3654 1.613 . S
S3653 N3655 1.610 . S
N3654 S3653 1.613 . S
N3654 C3657 1.350 . S
N3655 S3653 1.610 . S
N3655 C3656 1.351 . S
C3656 C3650 1.428 . S
C3656 N3655 1.351 . S
C3656 C3657 1.434 . S
C3657 C3648 1.429 . S
C3657 N3654 1.350 . S
C3657 C3656 1.434 . S
C3658 C3659 1.369 . S
C3658 C3660 1.419 . S
C3658 H3662 0.930 . S
C3659 C3658 1.369 . S
C3659 C3668 1.429 . S
C3660 C3658 1.419 . S
C3660 C3661 1.363 . S
C3660 H3663 0.929 . S
C3661 C3660 1.363 . S
C3661 C3667 1.428 . S
H3662 C3658 0.930 . S
H3663 C3660 0.929 . S
S3664 N3665 1.613 . S
S3664 N3666 1.610 . S
N3665 S3664 1.613 . S
N3665 C3668 1.350 . S
N3666 S3664 1.610 . S
N3666 C3667 1.351 . S
C3667 C3661 1.428 . S
C3667 N3666 1.351 . S
C3667 C3668 1.434 . S
C3668 C3659 1.429 . S
C3668 N3665 1.350 . S
C3668 C3667 1.434 . S
C3669 C3670 1.369 . S
C3669 C3671 1.419 . S
C3669 H3673 0.930 . S
C3670 C3669 1.369 . S
C3670 C3679 1.429 . S
C3671 C3669 1.419 . S
C3671 C3672 1.363 . S
C3671 H3674 0.929 . S
C3672 C3671 1.363 . S
C3672 C3678 1.428 . S
H3673 C3669 0.930 . S
H3674 C3671 0.929 . S
S3675 N3676 1.613 . S
S3675 N3677 1.610 . S
N3676 S3675 1.613 . S
N3676 C3679 1.350 . S
N3677 S3675 1.610 . S
N3677 C3678 1.351 . S
C3678 C3672 1.428 . S
C3678 N3677 1.351 . S
C3678 C3679 1.434 . S
C3679 C3670 1.429 . S
C3679 N3676 1.350 . S
C3679 C3678 1.434 . S
C3680 C3681 1.369 . S
C3680 C3682 1.419 . S
C3680 H3684 0.930 . S
C3681 C3680 1.369 . S
C3681 C3690 1.429 . S
C3682 C3680 1.419 . S
C3682 C3683 1.363 . S
C3682 H3685 0.929 . S
C3683 C3682 1.363 . S
C3683 C3689 1.428 . S
H3684 C3680 0.930 . S
H3685 C3682 0.929 . S
S3686 N3687 1.613 . S
S3686 N3688 1.610 . S
N3687 S3686 1.613 . S
N3687 C3690 1.350 . S
N3688 S3686 1.610 . S
N3688 C3689 1.351 . S
C3689 C3683 1.428 . S
C3689 N3688 1.351 . S
C3689 C3690 1.434 . S
C3690 C3681 1.429 . S
C3690 N3687 1.350 . S
C3690 C3689 1.434 . S
C3691 C3692 1.369 . S
C3691 C3693 1.419 . S
C3691 H3695 0.930 . S
C3692 C3691 1.369 . S
C3692 C3701 1.429 . S
C3693 C3691 1.419 . S
C3693 C3694 1.363 . S
C3693 H3696 0.929 . S
C3694 C3693 1.363 . S
C3694 C3700 1.428 . S
H3695 C3691 0.930 . S
H3696 C3693 0.929 . S
S3697 N3698 1.613 1_545 S
S3697 N3699 1.610 . S
N3698 S3697 1.613 1_565 S
N3698 C3701 1.350 1_565 S
N3699 S3697 1.610 . S
N3699 C3700 1.351 . S
C3700 C3694 1.428 . S
C3700 N3699 1.351 . S
C3700 C3701 1.434 . S
C3701 C3692 1.429 . S
C3701 N3698 1.350 1_545 S
C3701 C3700 1.434 . S
C3702 C3703 1.369 . S
C3702 C3704 1.419 . S
C3702 H3706 0.930 . S
C3703 C3702 1.369 . S
C3703 C3712 1.429 . S
C3704 C3702 1.419 . S
C3704 C3705 1.363 . S
C3704 H3707 0.929 . S
C3705 C3704 1.363 . S
C3705 C3711 1.428 . S
H3706 C3702 0.930 . S
H3707 C3704 0.929 . S
S3708 N3709 1.613 . S
S3708 N3710 1.610 . S
N3709 S3708 1.613 . S
N3709 C3712 1.350 . S
N3710 S3708 1.610 . S
N3710 C3711 1.351 . S
C3711 C3705 1.428 . S
C3711 N3710 1.351 . S
C3711 C3712 1.434 . S
C3712 C3703 1.429 . S
C3712 N3709 1.350 . S
C3712 C3711 1.434 . S
C3713 C3714 1.369 . S
C3713 C3715 1.419 . S
C3713 H3717 0.930 . S
C3714 C3713 1.369 . S
C3714 C3723 1.429 . S
C3715 C3713 1.419 . S
C3715 C3716 1.363 . S
C3715 H3718 0.929 . S
C3716 C3715 1.363 . S
C3716 C3722 1.428 . S
H3717 C3713 0.930 . S
H3718 C3715 0.929 . S
S3719 N3720 1.613 . S
S3719 N3721 1.610 . S
N3720 S3719 1.613 . S
N3720 C3723 1.350 . S
N3721 S3719 1.610 . S
N3721 C3722 1.351 . S
C3722 C3716 1.428 . S
C3722 N3721 1.351 . S
C3722 C3723 1.434 . S
C3723 C3714 1.429 . S
C3723 N3720 1.350 . S
C3723 C3722 1.434 . S
C3724 C3725 1.369 . S
C3724 C3726 1.419 . S
C3724 H3728 0.930 . S
C3725 C3724 1.369 . S
C3725 C3734 1.429 . S
C3726 C3724 1.419 . S
C3726 C3727 1.363 . S
C3726 H3729 0.929 . S
C3727 C3726 1.363 . S
C3727 C3733 1.428 . S
H3728 C3724 0.930 . S
H3729 C3726 0.929 . S
S3730 N3731 1.613 . S
S3730 N3732 1.610 . S
N3731 S3730 1.613 . S
N3731 C3734 1.350 . S
N3732 S3730 1.610 . S
N3732 C3733 1.351 . S
C3733 C3727 1.428 . S
C3733 N3732 1.351 . S
C3733 C3734 1.434 . S
C3734 C3725 1.429 . S
C3734 N3731 1.350 . S
C3734 C3733 1.434 . S
C3735 C3736 1.369 . S
C3735 C3737 1.419 . S
C3735 H3739 0.930 . S
C3736 C3735 1.369 . S
C3736 C3745 1.429 . S
C3737 C3735 1.419 . S
C3737 C3738 1.363 . S
C3737 H3740 0.929 . S
C3738 C3737 1.363 . S
C3738 C3744 1.428 . S
H3739 C3735 0.930 . S
H3740 C3737 0.929 . S
S3741 N3742 1.613 . S
S3741 N3743 1.610 . S
N3742 S3741 1.613 . S
N3742 C3745 1.350 . S
N3743 S3741 1.610 . S
N3743 C3744 1.351 . S
C3744 C3738 1.428 . S
C3744 N3743 1.351 . S
C3744 C3745 1.434 . S
C3745 C3736 1.429 . S
C3745 N3742 1.350 . S
C3745 C3744 1.434 . S
C3746 C3747 1.369 . S
C3746 C3748 1.419 . S
C3746 H3750 0.930 . S
C3747 C3746 1.369 . S
C3747 C3756 1.429 . S
C3748 C3746 1.419 . S
C3748 C3749 1.363 . S
C3748 H3751 0.929 . S
C3749 C3748 1.363 . S
C3749 C3755 1.428 . S
H3750 C3746 0.930 . S
H3751 C3748 0.929 . S
S3752 N3753 1.613 . S
S3752 N3754 1.610 . S
N3753 S3752 1.613 . S
N3753 C3756 1.350 . S
N3754 S3752 1.610 . S
N3754 C3755 1.351 . S
C3755 C3749 1.428 . S
C3755 N3754 1.351 . S
C3755 C3756 1.434 . S
C3756 C3747 1.429 . S
C3756 N3753 1.350 . S
C3756 C3755 1.434 . S
C3757 C3758 1.369 . S
C3757 C3759 1.419 . S
C3757 H3761 0.930 . S
C3758 C3757 1.369 . S
C3758 C3767 1.429 . S
C3759 C3757 1.419 . S
C3759 C3760 1.363 . S
C3759 H3762 0.929 . S
C3760 C3759 1.363 . S
C3760 C3766 1.428 . S
H3761 C3757 0.930 . S
H3762 C3759 0.929 . S
S3763 N3764 1.613 . S
S3763 N3765 1.610 . S
N3764 S3763 1.613 . S
N3764 C3767 1.350 . S
N3765 S3763 1.610 . S
N3765 C3766 1.351 . S
C3766 C3760 1.428 . S
C3766 N3765 1.351 . S
C3766 C3767 1.434 . S
C3767 C3758 1.429 . S
C3767 N3764 1.350 . S
C3767 C3766 1.434 . S
C3768 C3769 1.369 . S
C3768 C3770 1.419 . S
C3768 H3772 0.930 . S
C3769 C3768 1.369 . S
C3769 C3778 1.429 . S
C3770 C3768 1.419 . S
C3770 C3771 1.363 . S
C3770 H3773 0.929 . S
C3771 C3770 1.363 . S
C3771 C3777 1.428 . S
H3772 C3768 0.930 . S
H3773 C3770 0.929 . S
S3774 N3775 1.613 . S
S3774 N3776 1.610 . S
N3775 S3774 1.613 . S
N3775 C3778 1.350 . S
N3776 S3774 1.610 . S
N3776 C3777 1.351 . S
C3777 C3771 1.428 . S
C3777 N3776 1.351 . S
C3777 C3778 1.434 . S
C3778 C3769 1.429 . S
C3778 N3775 1.350 . S
C3778 C3777 1.434 . S
C3779 C3780 1.369 . S
C3779 C3781 1.419 . S
C3779 H3783 0.930 . S
C3780 C3779 1.369 . S
C3780 C3789 1.429 . S
C3781 C3779 1.419 . S
C3781 C3782 1.363 . S
C3781 H3784 0.929 . S
C3782 C3781 1.363 . S
C3782 C3788 1.428 . S
H3783 C3779 0.930 . S
H3784 C3781 0.929 . S
S3785 N3786 1.613 . S
S3785 N3787 1.610 . S
N3786 S3785 1.613 . S
N3786 C3789 1.350 . S
N3787 S3785 1.610 . S
N3787 C3788 1.351 . S
C3788 C3782 1.428 . S
C3788 N3787 1.351 . S
C3788 C3789 1.434 . S
C3789 C3780 1.429 . S
C3789 N3786 1.350 . S
C3789 C3788 1.434 . S
C3790 C3791 1.369 . S
C3790 C3792 1.419 . S
C3790 H3794 0.930 . S
C3791 C3790 1.369 . S
C3791 C3800 1.429 . S
C3792 C3790 1.419 . S
C3792 C3793 1.363 . S
C3792 H3795 0.929 . S
C3793 C3792 1.363 . S
C3793 C3799 1.428 . S
H3794 C3790 0.930 . S
H3795 C3792 0.929 . S
S3796 N3797 1.637 . S
S3796 N3798 1.610 . S
N3797 S3796 1.637 . S
N3797 C3800 1.383 . S
N3798 S3796 1.610 . S
N3798 C3799 1.351 . S
C3799 C3793 1.428 . S
C3799 N3798 1.351 . S
C3799 C3800 1.434 . S
C3800 C3791 1.429 . S
C3800 N3797 1.383 . S
C3800 C3799 1.434 . S
C3801 C3802 1.369 . S
C3801 C3803 1.419 . S
C3801 H3805 0.930 . S
C3802 C3801 1.369 . S
C3802 C3811 1.429 . S
C3803 C3801 1.419 . S
C3803 C3804 1.363 . S
C3803 H3806 0.929 . S
C3804 C3803 1.363 . S
C3804 C3810 1.428 . S
H3805 C3801 0.930 . S
H3806 C3803 0.929 . S
S3807 N3808 1.613 . S
S3807 N3809 1.610 . S
N3808 S3807 1.613 . S
N3808 C3811 1.350 . S
N3809 S3807 1.610 . S
N3809 C3810 1.351 . S
C3810 C3804 1.428 . S
C3810 N3809 1.351 . S
C3810 C3811 1.434 . S
C3811 C3802 1.429 . S
C3811 N3808 1.350 . S
C3811 C3810 1.434 . S
C3812 C3813 1.369 . S
C3812 C3814 1.419 . S
C3812 H3816 0.930 . S
C3813 C3812 1.369 . S
C3813 C3822 1.429 . S
C3814 C3812 1.419 . S
C3814 C3815 1.363 . S
C3814 H3817 0.929 . S
C3815 C3814 1.363 . S
C3815 C3821 1.428 . S
H3816 C3812 0.930 . S
H3817 C3814 0.929 . S
S3818 N3819 1.613 . S
S3818 N3820 1.610 1_556 S
N3819 S3818 1.613 . S
N3819 C3822 1.350 . S
N3820 S3818 1.610 1_554 S
N3820 C3821 1.351 1_554 S
C3821 C3815 1.428 . S
C3821 N3820 1.351 1_556 S
C3821 C3822 1.434 . S
C3822 C3813 1.429 . S
C3822 N3819 1.350 . S
C3822 C3821 1.434 . S
C3823 C3824 1.369 . S
C3823 C3825 1.419 . S
C3823 H3827 0.930 . S
C3824 C3823 1.369 . S
C3824 C3833 1.429 . S
C3825 C3823 1.419 . S
C3825 C3826 1.363 . S
C3825 H3828 0.929 . S
C3826 C3825 1.363 . S
C3826 C3832 1.428 . S
H3827 C3823 0.930 . S
H3828 C3825 0.929 . S
S3829 N3830 1.613 . S
S3829 N3831 1.610 . S
N3830 S3829 1.613 . S
N3830 C3833 1.350 . S
N3831 S3829 1.610 . S
N3831 C3832 1.351 . S
C3832 C3826 1.428 . S
C3832 N3831 1.351 . S
C3832 C3833 1.434 . S
C3833 C3824 1.429 . S
C3833 N3830 1.350 . S
C3833 C3832 1.434 . S
C3834 C3835 1.369 . S
C3834 C3836 1.419 . S
C3834 H3838 0.930 . S
C3835 C3834 1.369 . S
C3835 C3844 1.429 . S
C3836 C3834 1.419 . S
C3836 C3837 1.363 . S
C3836 H3839 0.929 . S
C3837 C3836 1.363 . S
C3837 C3843 1.428 . S
H3838 C3834 0.930 . S
H3839 C3836 0.929 . S
S3840 N3841 1.613 . S
S3840 N3842 1.610 . S
N3841 S3840 1.613 . S
N3841 C3844 1.350 . S
N3842 S3840 1.610 . S
N3842 C3843 1.351 . S
C3843 C3837 1.428 . S
C3843 N3842 1.351 . S
C3843 C3844 1.434 . S
C3844 C3835 1.429 . S
C3844 N3841 1.350 . S
C3844 C3843 1.434 . S
C3845 C3846 1.369 . S
C3845 C3847 1.419 . S
C3845 H3849 0.930 . S
C3846 C3845 1.369 . S
C3846 C3855 1.429 . S
C3847 C3845 1.419 . S
C3847 C3848 1.363 . S
C3847 H3850 0.929 . S
C3848 C3847 1.363 . S
C3848 C3854 1.428 . S
H3849 C3845 0.930 . S
H3850 C3847 0.929 . S
S3851 N3852 1.613 . S
S3851 N3853 1.610 . S
N3852 S3851 1.613 . S
N3852 C3855 1.350 . S
N3853 S3851 1.610 . S
N3853 C3854 1.351 . S
C3854 C3848 1.428 . S
C3854 N3853 1.351 . S
C3854 C3855 1.434 . S
C3855 C3846 1.429 . S
C3855 N3852 1.350 . S
C3855 C3854 1.434 . S
C3856 C3857 1.369 . S
C3856 C3858 1.419 . S
C3856 H3860 0.930 . S
C3857 C3856 1.369 . S
C3857 C3866 1.429 . S
C3858 C3856 1.419 . S
C3858 C3859 1.363 . S
C3858 H3861 0.929 . S
C3859 C3858 1.363 . S
C3859 C3865 1.428 . S
H3860 C3856 0.930 . S
H3861 C3858 0.929 . S
S3862 N3863 1.613 . S
S3862 N3864 1.610 . S
N3863 S3862 1.613 . S
N3863 C3866 1.350 . S
N3864 S3862 1.610 . S
N3864 C3865 1.351 . S
C3865 C3859 1.428 . S
C3865 N3864 1.351 . S
C3865 C3866 1.434 . S
C3866 C3857 1.429 . S
C3866 N3863 1.350 . S
C3866 C3865 1.434 . S
C3867 C3868 1.369 . S
C3867 C3869 1.419 . S
C3867 H3871 0.930 . S
C3868 C3867 1.369 . S
C3868 C3877 1.429 . S
C3869 C3867 1.419 . S
C3869 C3870 1.363 . S
C3869 H3872 0.929 . S
C3870 C3869 1.363 . S
C3870 C3876 1.428 . S
H3871 C3867 0.930 . S
H3872 C3869 0.929 . S
S3873 N3874 1.613 . S
S3873 N3875 1.610 . S
N3874 S3873 1.613 . S
N3874 C3877 1.350 . S
N3875 S3873 1.610 . S
N3875 C3876 1.351 . S
C3876 C3870 1.428 . S
C3876 N3875 1.351 . S
C3876 C3877 1.434 . S
C3877 C3868 1.429 . S
C3877 N3874 1.350 . S
C3877 C3876 1.434 . S
C3878 C3879 1.369 . S
C3878 C3880 1.419 . S
C3878 H3882 0.930 . S
C3879 C3878 1.369 . S
C3879 C3888 1.429 . S
C3880 C3878 1.419 . S
C3880 C3881 1.363 . S
C3880 H3883 0.929 . S
C3881 C3880 1.363 . S
C3881 C3887 1.428 . S
H3882 C3878 0.930 . S
H3883 C3880 0.929 . S
S3884 N3885 1.613 . S
S3884 N3886 1.610 . S
N3885 S3884 1.613 . S
N3885 C3888 1.350 . S
N3886 S3884 1.610 . S
N3886 C3887 1.351 . S
C3887 C3881 1.428 . S
C3887 N3886 1.351 . S
C3887 C3888 1.434 . S
C3888 C3879 1.429 . S
C3888 N3885 1.350 . S
C3888 C3887 1.434 . S
C3889 C3890 1.369 . S
C3889 C3891 1.419 . S
C3889 H3893 0.930 . S
C3890 C3889 1.369 . S
C3890 C3899 1.429 . S
C3891 C3889 1.419 . S
C3891 C3892 1.363 . S
C3891 H3894 0.929 . S
C3892 C3891 1.363 . S
C3892 C3898 1.428 . S
H3893 C3889 0.930 . S
H3894 C3891 0.929 . S
S3895 N3896 1.613 . S
S3895 N3897 1.610 . S
N3896 S3895 1.613 . S
N3896 C3899 1.350 . S
N3897 S3895 1.610 . S
N3897 C3898 1.351 . S
C3898 C3892 1.428 . S
C3898 N3897 1.351 . S
C3898 C3899 1.434 . S
C3899 C3890 1.429 . S
C3899 N3896 1.350 . S
C3899 C3898 1.434 . S
C3900 C3901 1.369 . S
C3900 C3902 1.419 . S
C3900 H3904 0.930 . S
C3901 C3900 1.369 . S
C3901 C3910 1.429 . S
C3902 C3900 1.419 . S
C3902 C3903 1.363 . S
C3902 H3905 0.929 . S
C3903 C3902 1.363 . S
C3903 C3909 1.428 . S
H3904 C3900 0.930 . S
H3905 C3902 0.929 . S
S3906 N3907 1.613 . S
S3906 N3908 1.610 . S
N3907 S3906 1.613 . S
N3907 C3910 1.350 . S
N3908 S3906 1.610 . S
N3908 C3909 1.351 . S
C3909 C3903 1.428 . S
C3909 N3908 1.351 . S
C3909 C3910 1.434 . S
C3910 C3901 1.429 . S
C3910 N3907 1.350 . S
C3910 C3909 1.434 . S
C3911 C3912 1.369 . S
C3911 C3913 1.419 . S
C3911 H3915 0.930 . S
C3912 C3911 1.369 . S
C3912 C3921 1.429 . S
C3913 C3911 1.419 . S
C3913 C3914 1.363 . S
C3913 H3916 0.929 . S
C3914 C3913 1.363 . S
C3914 C3920 1.428 . S
H3915 C3911 0.930 . S
H3916 C3913 0.929 . S
S3917 N3918 1.613 . S
S3917 N3919 1.610 . S
N3918 S3917 1.613 . S
N3918 C3921 1.350 . S
N3919 S3917 1.610 . S
N3919 C3920 1.351 . S
C3920 C3914 1.428 . S
C3920 N3919 1.351 . S
C3920 C3921 1.434 . S
C3921 C3912 1.429 . S
C3921 N3918 1.350 . S
C3921 C3920 1.434 . S
C3922 C3923 1.369 . S
C3922 C3924 1.419 . S
C3922 H3926 0.930 . S
C3923 C3922 1.369 . S
C3923 C3932 1.429 . S
C3924 C3922 1.419 . S
C3924 C3925 1.363 . S
C3924 H3927 0.929 . S
C3925 C3924 1.363 . S
C3925 C3931 1.428 . S
H3926 C3922 0.930 . S
H3927 C3924 0.929 . S
S3928 N3929 1.613 . S
S3928 N3930 1.610 . S
N3929 S3928 1.613 . S
N3929 C3932 1.350 . S
N3930 S3928 1.610 . S
N3930 C3931 1.351 . S
C3931 C3925 1.428 . S
C3931 N3930 1.351 . S
C3931 C3932 1.434 . S
C3932 C3923 1.429 . S
C3932 N3929 1.350 . S
C3932 C3931 1.434 . S
C3933 C3934 1.369 . S
C3933 C3935 1.419 . S
C3933 H3937 0.930 . S
C3934 C3933 1.369 . S
C3934 C3943 1.429 . S
C3935 C3933 1.419 . S
C3935 C3936 1.363 . S
C3935 H3938 0.929 . S
C3936 C3935 1.363 . S
C3936 C3942 1.428 . S
H3937 C3933 0.930 . S
H3938 C3935 0.929 . S
S3939 N3940 1.613 . S
S3939 N3941 1.610 . S
N3940 S3939 1.613 . S
N3940 C3943 1.350 . S
N3941 S3939 1.610 . S
N3941 C3942 1.351 . S
C3942 C3936 1.428 . S
C3942 N3941 1.351 . S
C3942 C3943 1.434 . S
C3943 C3934 1.429 . S
C3943 N3940 1.350 . S
C3943 C3942 1.434 . S
C3944 C3945 1.369 . S
C3944 C3946 1.419 . S
C3944 H3948 0.930 . S
C3945 C3944 1.369 . S
C3945 C3954 1.429 . S
C3946 C3944 1.419 . S
C3946 C3947 1.363 . S
C3946 H3949 0.929 . S
C3947 C3946 1.363 . S
C3947 C3953 1.428 . S
H3948 C3944 0.930 . S
H3949 C3946 0.929 . S
S3950 N3951 1.613 . S
S3950 N3952 1.610 . S
N3951 S3950 1.613 . S
N3951 C3954 1.350 . S
N3952 S3950 1.610 . S
N3952 C3953 1.351 . S
C3953 C3947 1.428 . S
C3953 N3952 1.351 . S
C3953 C3954 1.434 . S
C3954 C3945 1.429 . S
C3954 N3951 1.350 . S
C3954 C3953 1.434 . S
C3955 C3956 1.369 . S
C3955 C3957 1.419 . S
C3955 H3959 0.930 . S
C3956 C3955 1.369 . S
C3956 C3965 1.429 . S
C3957 C3955 1.419 . S
C3957 C3958 1.363 . S
C3957 H3960 0.929 . S
C3958 C3957 1.363 . S
C3958 C3964 1.428 . S
H3959 C3955 0.930 . S
H3960 C3957 0.929 . S
S3961 N3962 1.613 . S
S3961 N3963 1.610 . S
N3962 S3961 1.613 . S
N3962 C3965 1.350 . S
N3963 S3961 1.610 . S
N3963 C3964 1.351 . S
C3964 C3958 1.428 . S
C3964 N3963 1.351 . S
C3964 C3965 1.434 . S
C3965 C3956 1.429 . S
C3965 N3962 1.350 . S
C3965 C3964 1.434 . S
C3966 C3967 1.369 . S
C3966 C3968 1.419 . S
C3966 H3970 0.930 . S
C3967 C3966 1.369 . S
C3967 C3976 1.429 . S
C3968 C3966 1.419 . S
C3968 C3969 1.363 . S
C3968 H3971 0.929 . S
C3969 C3968 1.363 . S
C3969 C3975 1.428 . S
H3970 C3966 0.930 . S
H3971 C3968 0.929 . S
S3972 N3973 1.613 . S
S3972 N3974 1.610 . S
N3973 S3972 1.613 . S
N3973 C3976 1.350 . S
N3974 S3972 1.610 . S
N3974 C3975 1.351 . S
C3975 C3969 1.428 . S
C3975 N3974 1.351 . S
C3975 C3976 1.434 . S
C3976 C3967 1.429 . S
C3976 N3973 1.350 . S
C3976 C3975 1.434 . S
C3977 C3978 1.369 . S
C3977 C3979 1.419 . S
C3977 H3981 0.930 . S
C3978 C3977 1.369 . S
C3978 C3987 1.429 . S
C3979 C3977 1.419 . S
C3979 C3980 1.363 . S
C3979 H3982 0.929 . S
C3980 C3979 1.363 . S
C3980 C3986 1.428 . S
H3981 C3977 0.930 . S
H3982 C3979 0.929 . S
S3983 N3984 1.613 . S
S3983 N3985 1.610 . S
N3984 S3983 1.613 . S
N3984 C3987 1.350 . S
N3985 S3983 1.610 . S
N3985 C3986 1.351 . S
C3986 C3980 1.428 . S
C3986 N3985 1.351 . S
C3986 C3987 1.434 . S
C3987 C3978 1.429 . S
C3987 N3984 1.350 . S
C3987 C3986 1.434 . S
C3988 C3989 1.369 . S
C3988 C3990 1.419 . S
C3988 H3992 0.930 . S
C3989 C3988 1.369 . S
C3989 C3998 1.429 . S
C3990 C3988 1.419 . S
C3990 C3991 1.363 . S
C3990 H3993 0.929 . S
C3991 C3990 1.363 . S
C3991 C3997 1.428 . S
H3992 C3988 0.930 . S
H3993 C3990 0.929 . S
S3994 N3995 1.613 . S
S3994 N3996 1.610 . S
N3995 S3994 1.613 . S
N3995 C3998 1.350 . S
N3996 S3994 1.610 . S
N3996 C3997 1.351 . S
C3997 C3991 1.428 . S
C3997 N3996 1.351 . S
C3997 C3998 1.434 . S
C3998 C3989 1.429 . S
C3998 N3995 1.350 . S
C3998 C3997 1.434 . S
C3999 C4000 1.369 . S
C3999 C4001 1.419 . S
C3999 H4003 0.930 . S
C4000 C3999 1.369 . S
C4000 C4009 1.429 . S
C4001 C3999 1.419 . S
C4001 C4002 1.363 . S
C4001 H4004 0.929 . S
C4002 C4001 1.363 . S
C4002 C4008 1.428 . S
H4003 C3999 0.930 . S
H4004 C4001 0.929 . S
S4005 N4006 1.613 . S
S4005 N4007 1.610 . S
N4006 S4005 1.613 . S
N4006 C4009 1.350 . S
N4007 S4005 1.610 . S
N4007 C4008 1.351 . S
C4008 C4002 1.428 . S
C4008 N4007 1.351 . S
C4008 C4009 1.434 . S
C4009 C4000 1.429 . S
C4009 N4006 1.350 . S
C4009 C4008 1.434 . S
C4010 C4011 1.369 . S
C4010 C4012 1.419 . S
C4010 H4014 0.930 . S
C4011 C4010 1.369 . S
C4011 C4020 1.429 . S
C4012 C4010 1.419 . S
C4012 C4013 1.363 . S
C4012 H4015 0.929 . S
C4013 C4012 1.363 . S
C4013 C4019 1.428 . S
H4014 C4010 0.930 . S
H4015 C4012 0.929 . S
S4016 N4017 1.613 . S
S4016 N4018 1.610 . S
N4017 S4016 1.613 . S
N4017 C4020 1.350 . S
N4018 S4016 1.610 . S
N4018 C4019 1.351 . S
C4019 C4013 1.428 . S
C4019 N4018 1.351 . S
C4019 C4020 1.434 . S
C4020 C4011 1.429 . S
C4020 N4017 1.350 . S
C4020 C4019 1.434 . S
C4021 C4022 1.369 . S
C4021 C4023 1.419 . S
C4021 H4025 0.930 . S
C4022 C4021 1.369 . S
C4022 C4031 1.429 . S
C4023 C4021 1.419 . S
C4023 C4024 1.363 . S
C4023 H4026 0.929 . S
C4024 C4023 1.363 . S
C4024 C4030 1.428 . S
H4025 C4021 0.930 . S
H4026 C4023 0.929 . S
S4027 N4028 1.613 . S
S4027 N4029 1.610 . S
N4028 S4027 1.613 . S
N4028 C4031 1.350 . S
N4029 S4027 1.610 . S
N4029 C4030 1.351 . S
C4030 C4024 1.428 . S
C4030 N4029 1.351 . S
C4030 C4031 1.434 . S
C4031 C4022 1.429 . S
C4031 N4028 1.350 . S
C4031 C4030 1.434 . S
C4032 C4033 1.369 . S
C4032 C4034 1.419 . S
C4032 H4036 0.930 . S
C4033 C4032 1.369 . S
C4033 C4042 1.429 . S
C4034 C4032 1.419 . S
C4034 C4035 1.363 . S
C4034 H4037 0.929 . S
C4035 C4034 1.363 . S
C4035 C4041 1.428 . S
H4036 C4032 0.930 . S
H4037 C4034 0.929 . S
S4038 N4039 1.613 . S
S4038 N4040 1.610 . S
N4039 S4038 1.613 . S
N4039 C4042 1.350 . S
N4040 S4038 1.610 . S
N4040 C4041 1.351 . S
C4041 C4035 1.428 . S
C4041 N4040 1.351 . S
C4041 C4042 1.434 . S
C4042 C4033 1.429 . S
C4042 N4039 1.350 . S
C4042 C4041 1.434 . S
C4043 C4044 1.369 . S
C4043 C4045 1.419 . S
C4043 H4047 0.930 . S
C4044 C4043 1.369 . S
C4044 C4053 1.429 . S
C4045 C4043 1.419 . S
C4045 C4046 1.363 . S
C4045 H4048 0.929 . S
C4046 C4045 1.363 . S
C4046 C4052 1.428 . S
H4047 C4043 0.930 . S
H4048 C4045 0.929 . S
S4049 N4050 1.613 . S
S4049 N4051 1.610 . S
N4050 S4049 1.613 . S
N4050 C4053 1.350 . S
N4051 S4049 1.610 . S
N4051 C4052 1.351 . S
C4052 C4046 1.428 . S
C4052 N4051 1.351 . S
C4052 C4053 1.434 . S
C4053 C4044 1.429 . S
C4053 N4050 1.350 . S
C4053 C4052 1.434 . S
C4054 C4055 1.369 . S
C4054 C4056 1.419 . S
C4054 H4058 0.930 . S
C4055 C4054 1.369 . S
C4055 C4064 1.429 . S
C4056 C4054 1.419 . S
C4056 C4057 1.363 . S
C4056 H4059 0.929 . S
C4057 C4056 1.363 . S
C4057 C4063 1.428 . S
H4058 C4054 0.930 . S
H4059 C4056 0.929 . S
S4060 N4061 1.613 . S
S4060 N4062 1.610 . S
N4061 S4060 1.613 . S
N4061 C4064 1.350 . S
N4062 S4060 1.610 . S
N4062 C4063 1.351 . S
C4063 C4057 1.428 . S
C4063 N4062 1.351 . S
C4063 C4064 1.434 . S
C4064 C4055 1.429 . S
C4064 N4061 1.350 . S
C4064 C4063 1.434 . S
C4065 C4066 1.369 . S
C4065 C4067 1.419 . S
C4065 H4069 0.930 . S
C4066 C4065 1.369 . S
C4066 C4075 1.429 . S
C4067 C4065 1.419 . S
C4067 C4068 1.363 . S
C4067 H4070 0.929 . S
C4068 C4067 1.363 . S
C4068 C4074 1.428 . S
H4069 C4065 0.930 . S
H4070 C4067 0.929 . S
S4071 N4072 1.613 . S
S4071 N4073 1.610 . S
N4072 S4071 1.613 . S
N4072 C4075 1.350 . S
N4073 S4071 1.610 . S
N4073 C4074 1.351 . S
C4074 C4068 1.428 . S
C4074 N4073 1.351 . S
C4074 C4075 1.434 . S
C4075 C4066 1.429 . S
C4075 N4072 1.350 . S
C4075 C4074 1.434 . S
C4076 C4077 1.369 . S
C4076 C4078 1.419 . S
C4076 H4080 0.930 . S
C4077 C4076 1.369 . S
C4077 C4086 1.429 . S
C4078 C4076 1.419 . S
C4078 C4079 1.363 . S
C4078 H4081 0.929 . S
C4079 C4078 1.363 . S
C4079 C4085 1.428 . S
H4080 C4076 0.930 . S
H4081 C4078 0.929 . S
S4082 N4083 1.613 . S
S4082 N4084 1.610 . S
N4083 S4082 1.613 . S
N4083 C4086 1.350 . S
N4084 S4082 1.610 . S
N4084 C4085 1.351 . S
C4085 C4079 1.428 . S
C4085 N4084 1.351 . S
C4085 C4086 1.434 . S
C4086 C4077 1.429 . S
C4086 N4083 1.350 . S
C4086 C4085 1.434 . S
C4087 C4088 1.369 . S
C4087 C4089 1.419 . S
C4087 H4091 0.930 . S
C4088 C4087 1.369 . S
C4088 C4097 1.429 . S
C4089 C4087 1.419 . S
C4089 C4090 1.363 . S
C4089 H4092 0.929 . S
C4090 C4089 1.363 . S
C4090 C4096 1.428 . S
H4091 C4087 0.930 . S
H4092 C4089 0.929 . S
S4093 N4094 1.613 . S
S4093 N4095 1.610 . S
N4094 S4093 1.613 . S
N4094 C4097 1.350 . S
N4095 S4093 1.610 . S
N4095 C4096 1.351 . S
C4096 C4090 1.428 . S
C4096 N4095 1.351 . S
C4096 C4097 1.434 . S
C4097 C4088 1.429 . S
C4097 N4094 1.350 . S
C4097 C4096 1.434 . S
C4098 C4099 1.369 . S
C4098 C4100 1.419 . S
C4098 H4102 0.930 1_554 S
C4099 C4098 1.369 . S
C4099 C4108 1.429 . S
C4100 C4098 1.419 . S
C4100 C4101 1.363 . S
C4100 H4103 0.929 . S
C4101 C4100 1.363 . S
C4101 C4107 1.428 . S
H4102 C4098 0.930 1_556 S
H4103 C4100 0.929 . S
S4104 N4105 1.613 . S
S4104 N4106 1.610 . S
N4105 S4104 1.613 . S
N4105 C4108 1.350 . S
N4106 S4104 1.610 . S
N4106 C4107 1.351 . S
C4107 C4101 1.428 . S
C4107 N4106 1.351 . S
C4107 C4108 1.434 . S
C4108 C4099 1.429 . S
C4108 N4105 1.350 . S
C4108 C4107 1.434 . S
C4109 C4110 1.369 . S
C4109 C4111 1.419 . S
C4109 H4113 0.930 . S
C4110 C4109 1.369 . S
C4110 C4119 1.429 . S
C4111 C4109 1.419 . S
C4111 C4112 1.363 . S
C4111 H4114 0.929 . S
C4112 C4111 1.363 . S
C4112 C4118 1.428 . S
H4113 C4109 0.930 . S
H4114 C4111 0.929 . S
S4115 N4116 1.613 . S
S4115 N4117 1.610 . S
N4116 S4115 1.613 . S
N4116 C4119 1.350 . S
N4117 S4115 1.610 . S
N4117 C4118 1.351 . S
C4118 C4112 1.428 . S
C4118 N4117 1.351 . S
C4118 C4119 1.434 . S
C4119 C4110 1.429 . S
C4119 N4116 1.350 . S
C4119 C4118 1.434 . S
C4120 C4121 1.369 . S
C4120 C4122 1.419 . S
C4120 H4124 0.930 . S
C4121 C4120 1.369 . S
C4121 C4130 1.429 . S
C4122 C4120 1.419 . S
C4122 C4123 1.363 . S
C4122 H4125 0.929 . S
C4123 C4122 1.363 . S
C4123 C4129 1.428 . S
H4124 C4120 0.930 . S
H4125 C4122 0.929 . S
S4126 N4127 1.613 . S
S4126 N4128 1.610 . S
N4127 S4126 1.613 . S
N4127 C4130 1.350 . S
N4128 S4126 1.610 . S
N4128 C4129 1.351 . S
C4129 C4123 1.428 . S
C4129 N4128 1.351 . S
C4129 C4130 1.434 . S
C4130 C4121 1.429 . S
C4130 N4127 1.350 . S
C4130 C4129 1.434 . S
C4131 C4132 1.369 . S
C4131 C4133 1.419 . S
C4131 H4135 0.930 . S
C4132 C4131 1.369 . S
C4132 C4141 1.429 . S
C4133 C4131 1.419 . S
C4133 C4134 1.363 . S
C4133 H4136 0.929 . S
C4134 C4133 1.363 . S
C4134 C4140 1.428 . S
H4135 C4131 0.930 . S
H4136 C4133 0.929 . S
S4137 N4138 1.613 . S
S4137 N4139 1.610 . S
N4138 S4137 1.613 . S
N4138 C4141 1.350 . S
N4139 S4137 1.610 . S
N4139 C4140 1.351 . S
C4140 C4134 1.428 . S
C4140 N4139 1.351 . S
C4140 C4141 1.434 . S
C4141 C4132 1.429 . S
C4141 N4138 1.350 . S
C4141 C4140 1.434 . S
C4142 C4143 1.369 . S
C4142 C4144 1.419 . S
C4142 H4146 0.930 . S
C4143 C4142 1.369 . S
C4143 C4152 1.429 . S
C4144 C4142 1.419 . S
C4144 C4145 1.363 . S
C4144 H4147 0.929 . S
C4145 C4144 1.363 . S
C4145 C4151 1.428 . S
H4146 C4142 0.930 . S
H4147 C4144 0.929 . S
S4148 N4149 1.613 . S
S4148 N4150 1.610 . S
N4149 S4148 1.613 . S
N4149 C4152 1.350 . S
N4150 S4148 1.610 . S
N4150 C4151 1.351 . S
C4151 C4145 1.428 . S
C4151 N4150 1.351 . S
C4151 C4152 1.434 . S
C4152 C4143 1.429 . S
C4152 N4149 1.350 . S
C4152 C4151 1.434 . S
C4153 C4154 1.369 . S
C4153 C4155 1.419 . S
C4153 H4157 0.930 . S
C4154 C4153 1.369 . S
C4154 C4163 1.429 . S
C4155 C4153 1.419 . S
C4155 C4156 1.363 . S
C4155 H4158 0.929 . S
C4156 C4155 1.363 . S
C4156 C4162 1.428 . S
H4157 C4153 0.930 . S
H4158 C4155 0.929 . S
S4159 N4160 1.613 . S
S4159 N4161 1.610 . S
N4160 S4159 1.613 . S
N4160 C4163 1.350 . S
N4161 S4159 1.610 . S
N4161 C4162 1.351 . S
C4162 C4156 1.428 . S
C4162 N4161 1.351 . S
C4162 C4163 1.434 . S
C4163 C4154 1.429 . S
C4163 N4160 1.350 . S
C4163 C4162 1.434 . S
C4164 C4165 1.369 . S
C4164 C4166 1.419 . S
C4164 H4168 0.930 . S
C4165 C4164 1.369 . S
C4165 C4174 1.429 . S
C4166 C4164 1.419 . S
C4166 C4167 1.363 . S
C4166 H4169 0.929 . S
C4167 C4166 1.363 . S
C4167 C4173 1.428 . S
H4168 C4164 0.930 . S
H4169 C4166 0.929 . S
S4170 N4171 1.613 . S
S4170 N4172 1.610 . S
N4171 S4170 1.613 . S
N4171 C4174 1.350 . S
N4172 S4170 1.610 . S
N4172 C4173 1.351 . S
C4173 C4167 1.428 . S
C4173 N4172 1.351 . S
C4173 C4174 1.434 . S
C4174 C4165 1.429 . S
C4174 N4171 1.350 . S
C4174 C4173 1.434 . S
C4175 C4176 1.369 . S
C4175 C4177 1.419 . S
C4175 H4179 0.930 . S
C4176 C4175 1.369 . S
C4176 C4185 1.429 . S
C4177 C4175 1.419 . S
C4177 C4178 1.363 . S
C4177 H4180 0.929 . S
C4178 C4177 1.363 . S
C4178 C4184 1.428 . S
H4179 C4175 0.930 . S
H4180 C4177 0.929 . S
S4181 N4182 1.613 . S
S4181 N4183 1.610 . S
N4182 S4181 1.613 . S
N4182 C4185 1.350 . S
N4183 S4181 1.610 . S
N4183 C4184 1.351 . S
C4184 C4178 1.428 . S
C4184 N4183 1.351 . S
C4184 C4185 1.434 . S
C4185 C4176 1.429 . S
C4185 N4182 1.350 . S
C4185 C4184 1.434 . S
C4186 C4187 1.369 . S
C4186 C4188 1.419 . S
C4186 H4190 0.930 . S
C4187 C4186 1.369 . S
C4187 C4196 1.429 . S
C4188 C4186 1.419 . S
C4188 C4189 1.363 . S
C4188 H4191 0.929 . S
C4189 C4188 1.363 . S
C4189 C4195 1.428 . S
H4190 C4186 0.930 . S
H4191 C4188 0.929 . S
S4192 N4193 1.613 . S
S4192 N4194 1.610 . S
N4193 S4192 1.613 . S
N4193 C4196 1.350 . S
N4194 S4192 1.610 . S
N4194 C4195 1.351 . S
C4195 C4189 1.428 . S
C4195 N4194 1.351 . S
C4195 C4196 1.434 . S
C4196 C4187 1.429 . S
C4196 N4193 1.350 . S
C4196 C4195 1.434 . S
C4197 C4198 1.369 . S
C4197 C4199 1.419 . S
C4197 H4201 0.930 . S
C4198 C4197 1.369 . S
C4198 C4207 1.429 . S
C4199 C4197 1.419 . S
C4199 C4200 1.363 . S
C4199 H4202 0.929 . S
C4200 C4199 1.363 . S
C4200 C4206 1.428 . S
H4201 C4197 0.930 . S
H4202 C4199 0.929 . S
S4203 N4204 1.613 . S
S4203 N4205 1.610 . S
N4204 S4203 1.613 . S
N4204 C4207 1.350 . S
N4205 S4203 1.610 . S
N4205 C4206 1.351 . S
C4206 C4200 1.428 . S
C4206 N4205 1.351 . S
C4206 C4207 1.434 . S
C4207 C4198 1.429 . S
C4207 N4204 1.350 . S
C4207 C4206 1.434 . S
C4208 C4209 1.369 . S
C4208 C4210 1.419 . S
C4208 H4212 0.922 1_565 S
C4209 C4208 1.369 . S
C4209 C4218 1.429 . S
C4210 C4208 1.419 . S
C4210 C4211 1.363 . S
C4210 H4213 0.929 . S
C4211 C4210 1.363 . S
C4211 C4217 1.428 . S
H4212 C4208 0.922 1_545 S
H4213 C4210 0.929 . S
S4214 N4215 1.613 . S
S4214 N4216 1.610 . S
N4215 S4214 1.613 . S
N4215 C4218 1.350 . S
N4216 S4214 1.610 . S
N4216 C4217 1.351 . S
C4217 C4211 1.428 . S
C4217 N4216 1.351 . S
C4217 C4218 1.434 . S
C4218 C4209 1.429 . S
C4218 N4215 1.350 . S
C4218 C4217 1.434 . S
C4219 C4220 1.369 . S
C4219 C4221 1.419 . S
C4219 H4223 0.930 . S
C4220 C4219 1.369 . S
C4220 C4229 1.429 . S
C4221 C4219 1.419 . S
C4221 C4222 1.363 . S
C4221 H4224 0.929 . S
C4222 C4221 1.363 . S
C4222 C4228 1.428 . S
H4223 C4219 0.930 . S
H4224 C4221 0.929 . S
S4225 N4226 1.613 . S
S4225 N4227 1.610 . S
N4226 S4225 1.613 . S
N4226 C4229 1.350 . S
N4227 S4225 1.610 . S
N4227 C4228 1.351 . S
C4228 C4222 1.428 . S
C4228 N4227 1.351 . S
C4228 C4229 1.434 . S
C4229 C4220 1.429 . S
C4229 N4226 1.350 . S
C4229 C4228 1.434 . S
C4230 C4231 1.369 . S
C4230 C4232 1.419 . S
C4230 H4234 0.930 . S
C4231 C4230 1.369 . S
C4231 C4240 1.429 . S
C4232 C4230 1.419 . S
C4232 C4233 1.363 . S
C4232 H4235 0.929 . S
C4233 C4232 1.363 . S
C4233 C4239 1.428 . S
H4234 C4230 0.930 . S
H4235 C4232 0.929 . S
S4236 N4237 1.613 . S
S4236 N4238 1.610 . S
N4237 S4236 1.613 . S
N4237 C4240 1.350 . S
N4238 S4236 1.610 . S
N4238 C4239 1.351 . S
C4239 C4233 1.428 . S
C4239 N4238 1.351 . S
C4239 C4240 1.434 . S
C4240 C4231 1.429 . S
C4240 N4237 1.350 . S
C4240 C4239 1.434 . S
C4241 C4242 1.369 . S
C4241 C4243 1.419 . S
C4241 H4245 0.930 . S
C4242 C4241 1.369 . S
C4242 C4251 1.429 . S
C4243 C4241 1.419 . S
C4243 C4244 1.363 . S
C4243 H4246 0.929 . S
C4244 C4243 1.363 . S
C4244 C4250 1.428 . S
H4245 C4241 0.930 . S
H4246 C4243 0.929 . S
S4247 N4248 1.613 . S
S4247 N4249 1.610 . S
N4248 S4247 1.613 . S
N4248 C4251 1.350 . S
N4249 S4247 1.610 . S
N4249 C4250 1.351 . S
C4250 C4244 1.428 . S
C4250 N4249 1.351 . S
C4250 C4251 1.434 . S
C4251 C4242 1.429 . S
C4251 N4248 1.350 . S
C4251 C4250 1.434 . S
C4252 C4253 1.369 . S
C4252 C4254 1.419 . S
C4252 H4256 0.930 . S
C4253 C4252 1.369 . S
C4253 C4262 1.429 . S
C4254 C4252 1.419 . S
C4254 C4255 1.363 . S
C4254 H4257 0.929 . S
C4255 C4254 1.363 . S
C4255 C4261 1.428 . S
H4256 C4252 0.930 . S
H4257 C4254 0.929 . S
S4258 N4259 1.613 . S
S4258 N4260 1.610 . S
N4259 S4258 1.613 . S
N4259 C4262 1.350 . S
N4260 S4258 1.610 . S
N4260 C4261 1.351 . S
C4261 C4255 1.428 . S
C4261 N4260 1.351 . S
C4261 C4262 1.434 . S
C4262 C4253 1.429 . S
C4262 N4259 1.350 . S
C4262 C4261 1.434 . S
C4263 C4264 1.369 . S
C4263 C4265 1.419 . S
C4263 H4267 0.930 . S
C4264 C4263 1.369 . S
C4264 C4273 1.429 . S
C4265 C4263 1.419 . S
C4265 C4266 1.363 . S
C4265 H4268 0.929 . S
C4266 C4265 1.363 . S
C4266 C4272 1.428 . S
H4267 C4263 0.930 . S
H4268 C4265 0.929 . S
S4269 N4270 1.613 . S
S4269 N4271 1.610 . S
N4270 S4269 1.613 . S
N4270 C4273 1.350 . S
N4271 S4269 1.610 . S
N4271 C4272 1.351 . S
C4272 C4266 1.428 . S
C4272 N4271 1.351 . S
C4272 C4273 1.434 . S
C4273 C4264 1.429 . S
C4273 N4270 1.350 . S
C4273 C4272 1.434 . S
C4274 C4275 1.369 . S
C4274 C4276 1.419 . S
C4274 H4278 0.930 . S
C4275 C4274 1.369 . S
C4275 C4284 1.429 . S
C4276 C4274 1.419 . S
C4276 C4277 1.363 . S
C4276 H4279 0.929 . S
C4277 C4276 1.363 . S
C4277 C4283 1.428 . S
H4278 C4274 0.930 . S
H4279 C4276 0.929 . S
S4280 N4281 1.613 . S
S4280 N4282 1.610 . S
N4281 S4280 1.613 . S
N4281 C4284 1.350 . S
N4282 S4280 1.610 . S
N4282 C4283 1.351 . S
C4283 C4277 1.428 . S
C4283 N4282 1.351 . S
C4283 C4284 1.434 . S
C4284 C4275 1.429 . S
C4284 N4281 1.350 . S
C4284 C4283 1.434 . S
C4285 C4286 1.369 . S
C4285 C4287 1.419 . S
C4285 H4289 0.930 . S
C4286 C4285 1.369 . S
C4286 C4295 1.429 . S
C4287 C4285 1.419 . S
C4287 C4288 1.363 . S
C4287 H4290 0.929 . S
C4288 C4287 1.363 . S
C4288 C4294 1.428 . S
H4289 C4285 0.930 . S
H4290 C4287 0.929 . S
S4291 N4292 1.613 . S
S4291 N4293 1.610 . S
N4292 S4291 1.613 . S
N4292 C4295 1.350 . S
N4293 S4291 1.610 . S
N4293 C4294 1.351 . S
C4294 C4288 1.428 . S
C4294 N4293 1.351 . S
C4294 C4295 1.434 . S
C4295 C4286 1.429 . S
C4295 N4292 1.350 . S
C4295 C4294 1.434 . S
C4296 C4297 1.369 . S
C4296 C4298 1.419 . S
C4296 H4300 0.930 1_554 S
C4297 C4296 1.369 . S
C4297 C4306 1.429 . S
C4298 C4296 1.419 . S
C4298 C4299 1.363 . S
C4298 H4301 0.929 . S
C4299 C4298 1.363 . S
C4299 C4305 1.428 . S
H4300 C4296 0.930 1_556 S
H4301 C4298 0.929 . S
S4302 N4303 1.613 . S
S4302 N4304 1.610 . S
N4303 S4302 1.613 . S
N4303 C4306 1.350 . S
N4304 S4302 1.610 . S
N4304 C4305 1.351 . S
C4305 C4299 1.428 . S
C4305 N4304 1.351 . S
C4305 C4306 1.434 . S
C4306 C4297 1.429 . S
C4306 N4303 1.350 . S
C4306 C4305 1.434 . S
C4307 C4308 1.369 . S
C4307 C4309 1.419 . S
C4307 H4311 0.930 . S
C4308 C4307 1.369 . S
C4308 C4317 1.429 . S
C4309 C4307 1.419 . S
C4309 C4310 1.363 . S
C4309 H4312 0.929 . S
C4310 C4309 1.363 . S
C4310 C4316 1.428 . S
H4311 C4307 0.930 . S
H4312 C4309 0.929 . S
S4313 N4314 1.613 . S
S4313 N4315 1.610 . S
N4314 S4313 1.613 . S
N4314 C4317 1.350 . S
N4315 S4313 1.610 . S
N4315 C4316 1.351 . S
C4316 C4310 1.428 . S
C4316 N4315 1.351 . S
C4316 C4317 1.434 . S
C4317 C4308 1.429 . S
C4317 N4314 1.350 . S
C4317 C4316 1.434 . S
C4318 C4319 1.369 . S
C4318 C4320 1.419 . S
C4318 H4322 0.930 . S
C4319 C4318 1.369 . S
C4319 C4328 1.429 . S
C4320 C4318 1.419 . S
C4320 C4321 1.363 . S
C4320 H4323 0.929 . S
C4321 C4320 1.363 . S
C4321 C4327 1.428 . S
H4322 C4318 0.930 . S
H4323 C4320 0.929 . S
S4324 N4325 1.613 . S
S4324 N4326 1.610 . S
N4325 S4324 1.613 . S
N4325 C4328 1.350 . S
N4326 S4324 1.610 . S
N4326 C4327 1.351 . S
C4327 C4321 1.428 . S
C4327 N4326 1.351 . S
C4327 C4328 1.434 . S
C4328 C4319 1.429 . S
C4328 N4325 1.350 . S
C4328 C4327 1.434 . S
C4329 C4330 1.369 . S
C4329 C4331 1.419 . S
C4329 H4333 0.930 . S
C4330 C4329 1.369 . S
C4330 C4339 1.429 . S
C4331 C4329 1.419 . S
C4331 C4332 1.363 . S
C4331 H4334 0.929 . S
C4332 C4331 1.363 . S
C4332 C4338 1.428 . S
H4333 C4329 0.930 . S
H4334 C4331 0.929 . S
S4335 N4336 1.613 . S
S4335 N4337 1.610 . S
N4336 S4335 1.613 . S
N4336 C4339 1.350 . S
N4337 S4335 1.610 . S
N4337 C4338 1.351 . S
C4338 C4332 1.428 . S
C4338 N4337 1.351 . S
C4338 C4339 1.434 . S
C4339 C4330 1.429 . S
C4339 N4336 1.350 . S
C4339 C4338 1.434 . S
C4340 C4341 1.369 . S
C4340 C4342 1.419 . S
C4340 H4344 0.930 . S
C4341 C4340 1.369 . S
C4341 C4350 1.429 . S
C4342 C4340 1.419 . S
C4342 C4343 1.363 . S
C4342 H4345 0.929 . S
C4343 C4342 1.363 . S
C4343 C4349 1.428 . S
H4344 C4340 0.930 . S
H4345 C4342 0.929 . S
S4346 N4347 1.613 . S
S4346 N4348 1.610 . S
N4347 S4346 1.613 . S
N4347 C4350 1.350 . S
N4348 S4346 1.610 . S
N4348 C4349 1.351 . S
C4349 C4343 1.428 . S
C4349 N4348 1.351 . S
C4349 C4350 1.434 . S
C4350 C4341 1.429 . S
C4350 N4347 1.350 . S
C4350 C4349 1.434 . S
C4351 C4352 1.369 . S
C4351 C4353 1.419 . S
C4351 H4355 0.930 . S
C4352 C4351 1.369 . S
C4352 C4361 1.429 . S
C4353 C4351 1.419 . S
C4353 C4354 1.363 . S
C4353 H4356 0.929 . S
C4354 C4353 1.363 . S
C4354 C4360 1.428 . S
H4355 C4351 0.930 . S
H4356 C4353 0.929 . S
S4357 N4358 1.613 . S
S4357 N4359 1.610 . S
N4358 S4357 1.613 . S
N4358 C4361 1.350 . S
N4359 S4357 1.610 . S
N4359 C4360 1.351 . S
C4360 C4354 1.428 . S
C4360 N4359 1.351 . S
C4360 C4361 1.434 . S
C4361 C4352 1.429 . S
C4361 N4358 1.350 . S
C4361 C4360 1.434 . S
C4362 C4363 1.369 . S
C4362 C4364 1.419 . S
C4362 H4366 0.930 . S
C4363 C4362 1.369 . S
C4363 C4372 1.429 . S
C4364 C4362 1.419 . S
C4364 C4365 1.363 . S
C4364 H4367 0.929 . S
C4365 C4364 1.363 . S
C4365 C4371 1.428 . S
H4366 C4362 0.930 . S
H4367 C4364 0.929 . S
S4368 N4369 1.613 1_556 S
S4368 N4370 1.610 . S
N4369 S4368 1.613 1_554 S
N4369 C4372 1.350 1_554 S
N4370 S4368 1.610 . S
N4370 C4371 1.351 . S
C4371 C4365 1.428 . S
C4371 N4370 1.351 . S
C4371 C4372 1.434 . S
C4372 C4363 1.429 . S
C4372 N4369 1.350 1_556 S
C4372 C4371 1.434 . S
C4373 C4374 1.369 . S
C4373 C4375 1.419 . S
C4373 H4377 0.930 . S
C4374 C4373 1.369 . S
C4374 C4383 1.429 . S
C4375 C4373 1.419 . S
C4375 C4376 1.363 . S
C4375 H4378 0.929 . S
C4376 C4375 1.363 . S
C4376 C4382 1.428 . S
H4377 C4373 0.930 . S
H4378 C4375 0.929 . S
S4379 N4380 1.613 . S
S4379 N4381 1.610 . S
N4380 S4379 1.613 . S
N4380 C4383 1.350 . S
N4381 S4379 1.610 . S
N4381 C4382 1.351 . S
C4382 C4376 1.428 . S
C4382 N4381 1.351 . S
C4382 C4383 1.434 . S
C4383 C4374 1.429 . S
C4383 N4380 1.350 . S
C4383 C4382 1.434 . S
C4384 C4385 1.369 . S
C4384 C4386 1.419 . S
C4384 H4388 0.930 . S
C4385 C4384 1.369 . S
C4385 C4394 1.429 . S
C4386 C4384 1.419 . S
C4386 C4387 1.363 . S
C4386 H4389 0.929 . S
C4387 C4386 1.363 . S
C4387 C4393 1.428 . S
H4388 C4384 0.930 . S
H4389 C4386 0.929 . S
S4390 N4391 1.613 . S
S4390 N4392 1.610 . S
N4391 S4390 1.613 . S
N4391 C4394 1.350 . S
N4392 S4390 1.610 . S
N4392 C4393 1.351 . S
C4393 C4387 1.428 . S
C4393 N4392 1.351 . S
C4393 C4394 1.434 . S
C4394 C4385 1.429 . S
C4394 N4391 1.350 . S
C4394 C4393 1.434 . S
C4395 C4396 1.369 . S
C4395 C4397 1.419 . S
C4395 H4399 0.930 . S
C4396 C4395 1.369 . S
C4396 C4405 1.429 . S
C4397 C4395 1.419 . S
C4397 C4398 1.363 . S
C4397 H4400 0.929 . S
C4398 C4397 1.363 . S
C4398 C4404 1.428 . S
H4399 C4395 0.930 . S
H4400 C4397 0.929 . S
S4401 N4402 1.613 . S
S4401 N4403 1.610 . S
N4402 S4401 1.613 . S
N4402 C4405 1.350 . S
N4403 S4401 1.610 . S
N4403 C4404 1.351 . S
C4404 C4398 1.428 . S
C4404 N4403 1.351 . S
C4404 C4405 1.434 . S
C4405 C4396 1.429 . S
C4405 N4402 1.350 . S
C4405 C4404 1.434 . S
C4406 C4407 1.369 . S
C4406 C4408 1.419 . S
C4406 H4410 0.930 . S
C4407 C4406 1.369 . S
C4407 C4416 1.429 . S
C4408 C4406 1.419 . S
C4408 C4409 1.363 . S
C4408 H4411 0.929 . S
C4409 C4408 1.363 . S
C4409 C4415 1.428 . S
H4410 C4406 0.930 . S
H4411 C4408 0.929 . S
S4412 N4413 1.613 . S
S4412 N4414 1.610 . S
N4413 S4412 1.613 . S
N4413 C4416 1.350 . S
N4414 S4412 1.610 . S
N4414 C4415 1.351 . S
C4415 C4409 1.428 . S
C4415 N4414 1.351 . S
C4415 C4416 1.434 . S
C4416 C4407 1.429 . S
C4416 N4413 1.350 . S
C4416 C4415 1.434 . S
C4417 C4418 1.369 . S
C4417 C4419 1.419 . S
C4417 H4421 0.930 . S
C4418 C4417 1.369 . S
C4418 C4427 1.429 . S
C4419 C4417 1.419 . S
C4419 C4420 1.363 . S
C4419 H4422 0.929 . S
C4420 C4419 1.363 . S
C4420 C4426 1.428 . S
H4421 C4417 0.930 . S
H4422 C4419 0.929 . S
S4423 N4424 1.613 . S
S4423 N4425 1.610 . S
N4424 S4423 1.613 . S
N4424 C4427 1.350 . S
N4425 S4423 1.610 . S
N4425 C4426 1.351 . S
C4426 C4420 1.428 . S
C4426 N4425 1.351 . S
C4426 C4427 1.434 . S
C4427 C4418 1.429 . S
C4427 N4424 1.350 . S
C4427 C4426 1.434 . S
C4428 C4429 1.369 . S
C4428 C4430 1.419 . S
C4428 H4432 0.930 . S
C4429 C4428 1.369 . S
C4429 C4438 1.429 . S
C4430 C4428 1.419 . S
C4430 C4431 1.363 . S
C4430 H4433 0.929 . S
C4431 C4430 1.363 . S
C4431 C4437 1.428 . S
H4432 C4428 0.930 . S
H4433 C4430 0.929 . S
S4434 N4435 1.613 . S
S4434 N4436 1.610 . S
N4435 S4434 1.613 . S
N4435 C4438 1.350 . S
N4436 S4434 1.610 . S
N4436 C4437 1.351 . S
C4437 C4431 1.428 . S
C4437 N4436 1.351 . S
C4437 C4438 1.434 . S
C4438 C4429 1.429 . S
C4438 N4435 1.350 . S
C4438 C4437 1.434 . S
C4439 C4440 1.369 . S
C4439 C4441 1.419 . S
C4439 H4443 0.930 . S
C4440 C4439 1.369 . S
C4440 C4449 1.429 . S
C4441 C4439 1.419 . S
C4441 C4442 1.363 . S
C4441 H4444 0.929 . S
C4442 C4441 1.363 . S
C4442 C4448 1.428 . S
H4443 C4439 0.930 . S
H4444 C4441 0.929 . S
S4445 N4446 1.613 . S
S4445 N4447 1.610 . S
N4446 S4445 1.613 . S
N4446 C4449 1.350 . S
N4447 S4445 1.610 . S
N4447 C4448 1.351 . S
C4448 C4442 1.428 . S
C4448 N4447 1.351 . S
C4448 C4449 1.434 . S
C4449 C4440 1.429 . S
C4449 N4446 1.350 . S
C4449 C4448 1.434 . S
C4450 C4451 1.369 . S
C4450 C4452 1.419 . S
C4450 H4454 0.930 . S
C4451 C4450 1.369 . S
C4451 C4460 1.429 . S
C4452 C4450 1.419 . S
C4452 C4453 1.363 . S
C4452 H4455 0.929 . S
C4453 C4452 1.363 . S
C4453 C4459 1.428 . S
H4454 C4450 0.930 . S
H4455 C4452 0.929 . S
S4456 N4457 1.613 . S
S4456 N4458 1.610 . S
N4457 S4456 1.613 . S
N4457 C4460 1.350 . S
N4458 S4456 1.610 . S
N4458 C4459 1.351 . S
C4459 C4453 1.428 . S
C4459 N4458 1.351 . S
C4459 C4460 1.434 . S
C4460 C4451 1.429 . S
C4460 N4457 1.350 . S
C4460 C4459 1.434 . S
C4461 C4462 1.369 . S
C4461 C4463 1.419 . S
C4461 H4465 0.930 . S
C4462 C4461 1.369 . S
C4462 C4471 1.429 . S
C4463 C4461 1.419 . S
C4463 C4464 1.363 . S
C4463 H4466 0.929 . S
C4464 C4463 1.363 . S
C4464 C4470 1.428 . S
H4465 C4461 0.930 . S
H4466 C4463 0.929 . S
S4467 N4468 1.613 . S
S4467 N4469 1.610 . S
N4468 S4467 1.613 . S
N4468 C4471 1.350 . S
N4469 S4467 1.610 . S
N4469 C4470 1.351 . S
C4470 C4464 1.428 . S
C4470 N4469 1.351 . S
C4470 C4471 1.434 . S
C4471 C4462 1.429 . S
C4471 N4468 1.350 . S
C4471 C4470 1.434 . S
C4472 C4473 1.369 . S
C4472 C4474 1.419 . S
C4472 H4476 0.930 . S
C4473 C4472 1.369 . S
C4473 C4482 1.429 . S
C4474 C4472 1.419 . S
C4474 C4475 1.363 . S
C4474 H4477 0.929 . S
C4475 C4474 1.363 . S
C4475 C4481 1.428 . S
H4476 C4472 0.930 . S
H4477 C4474 0.929 . S
S4478 N4479 1.613 . S
S4478 N4480 1.610 . S
N4479 S4478 1.613 . S
N4479 C4482 1.350 . S
N4480 S4478 1.610 . S
N4480 C4481 1.351 . S
C4481 C4475 1.428 . S
C4481 N4480 1.351 . S
C4481 C4482 1.434 . S
C4482 C4473 1.429 . S
C4482 N4479 1.350 . S
C4482 C4481 1.434 . S
C4483 C4484 1.369 . S
C4483 C4485 1.419 . S
C4483 H4487 0.930 . S
C4484 C4483 1.369 . S
C4484 C4493 1.429 . S
C4485 C4483 1.419 . S
C4485 C4486 1.363 . S
C4485 H4488 0.929 . S
C4486 C4485 1.363 . S
C4486 C4492 1.428 . S
H4487 C4483 0.930 . S
H4488 C4485 0.929 . S
S4489 N4490 1.613 . S
S4489 N4491 1.610 . S
N4490 S4489 1.613 . S
N4490 C4493 1.350 . S
N4491 S4489 1.610 . S
N4491 C4492 1.351 . S
C4492 C4486 1.428 . S
C4492 N4491 1.351 . S
C4492 C4493 1.434 . S
C4493 C4484 1.429 . S
C4493 N4490 1.350 . S
C4493 C4492 1.434 . S
C4494 C4495 1.369 . S
C4494 C4496 1.419 . S
C4494 H4498 0.930 . S
C4495 C4494 1.369 . S
C4495 C4504 1.429 . S
C4496 C4494 1.419 . S
C4496 C4497 1.363 . S
C4496 H4499 0.929 . S
C4497 C4496 1.363 . S
C4497 C4503 1.428 . S
H4498 C4494 0.930 . S
H4499 C4496 0.929 . S
S4500 N4501 1.613 . S
S4500 N4502 1.610 . S
N4501 S4500 1.613 . S
N4501 C4504 1.350 . S
N4502 S4500 1.610 . S
N4502 C4503 1.351 . S
C4503 C4497 1.428 . S
C4503 N4502 1.351 . S
C4503 C4504 1.434 . S
C4504 C4495 1.429 . S
C4504 N4501 1.350 . S
C4504 C4503 1.434 . S
C4505 C4506 1.369 . S
C4505 C4507 1.419 . S
C4505 H4509 0.930 . S
C4506 C4505 1.369 . S
C4506 C4515 1.429 . S
C4507 C4505 1.419 . S
C4507 C4508 1.363 . S
C4507 H4510 0.929 . S
C4508 C4507 1.363 . S
C4508 C4514 1.428 . S
H4509 C4505 0.930 . S
H4510 C4507 0.929 . S
S4511 N4512 1.613 . S
S4511 N4513 1.610 . S
N4512 S4511 1.613 . S
N4512 C4515 1.350 . S
N4513 S4511 1.610 . S
N4513 C4514 1.351 . S
C4514 C4508 1.428 . S
C4514 N4513 1.351 . S
C4514 C4515 1.434 . S
C4515 C4506 1.429 . S
C4515 N4512 1.350 . S
C4515 C4514 1.434 . S
C4516 C4517 1.369 . S
C4516 C4518 1.419 . S
C4516 H4520 0.930 . S
C4517 C4516 1.369 . S
C4517 C4526 1.429 . S
C4518 C4516 1.419 . S
C4518 C4519 1.363 . S
C4518 H4521 0.929 . S
C4519 C4518 1.363 . S
C4519 C4525 1.428 . S
H4520 C4516 0.930 . S
H4521 C4518 0.929 . S
S4522 N4523 1.613 . S
S4522 N4524 1.610 . S
N4523 S4522 1.613 . S
N4523 C4526 1.350 . S
N4524 S4522 1.610 . S
N4524 C4525 1.351 . S
C4525 C4519 1.428 . S
C4525 N4524 1.351 . S
C4525 C4526 1.434 . S
C4526 C4517 1.429 . S
C4526 N4523 1.350 . S
C4526 C4525 1.434 . S
C4527 C4528 1.369 . S
C4527 C4529 1.419 . S
C4527 H4531 0.930 . S
C4528 C4527 1.369 . S
C4528 C4537 1.429 . S
C4529 C4527 1.419 . S
C4529 C4530 1.363 . S
C4529 H4532 0.939 . S
C4530 C4529 1.363 . S
C4530 C4536 1.428 . S
H4531 C4527 0.930 . S
H4532 C4529 0.939 . S
S4533 N4534 1.613 . S
S4533 N4535 1.610 . S
N4534 S4533 1.613 . S
N4534 C4537 1.350 . S
N4535 S4533 1.610 . S
N4535 C4536 1.351 . S
C4536 C4530 1.428 . S
C4536 N4535 1.351 . S
C4536 C4537 1.434 . S
C4537 C4528 1.429 . S
C4537 N4534 1.350 . S
C4537 C4536 1.434 . S
C4538 C4539 1.369 . S
C4538 C4540 1.419 . S
C4538 H4542 0.930 . S
C4539 C4538 1.369 . S
C4539 C4548 1.429 . S
C4540 C4538 1.419 . S
C4540 C4541 1.363 . S
C4540 H4543 0.929 . S
C4541 C4540 1.363 . S
C4541 C4547 1.428 . S
H4542 C4538 0.930 . S
H4543 C4540 0.929 . S
S4544 N4545 1.613 . S
S4544 N4546 1.610 . S
N4545 S4544 1.613 . S
N4545 C4548 1.350 . S
N4546 S4544 1.610 . S
N4546 C4547 1.351 . S
C4547 C4541 1.428 . S
C4547 N4546 1.351 . S
C4547 C4548 1.434 . S
C4548 C4539 1.429 . S
C4548 N4545 1.350 . S
C4548 C4547 1.434 . S
C4549 C4550 1.369 . S
C4549 C4551 1.419 . S
C4549 H4553 0.930 . S
C4550 C4549 1.369 . S
C4550 C4559 1.429 . S
C4551 C4549 1.419 . S
C4551 C4552 1.363 . S
C4551 H4554 0.929 . S
C4552 C4551 1.363 . S
C4552 C4558 1.428 . S
H4553 C4549 0.930 . S
H4554 C4551 0.929 . S
S4555 N4556 1.613 . S
S4555 N4557 1.610 . S
N4556 S4555 1.613 . S
N4556 C4559 1.350 . S
N4557 S4555 1.610 . S
N4557 C4558 1.351 . S
C4558 C4552 1.428 . S
C4558 N4557 1.351 . S
C4558 C4559 1.434 . S
C4559 C4550 1.429 . S
C4559 N4556 1.350 . S
C4559 C4558 1.434 . S
C4560 C4561 1.369 . S
C4560 C4562 1.419 . S
C4560 H4564 0.930 . S
C4561 C4560 1.369 . S
C4561 C4570 1.429 . S
C4562 C4560 1.419 . S
C4562 C4563 1.363 . S
C4562 H4565 0.929 . S
C4563 C4562 1.363 . S
C4563 C4569 1.428 . S
H4564 C4560 0.930 . S
H4565 C4562 0.929 . S
S4566 N4567 1.613 . S
S4566 N4568 1.610 . S
N4567 S4566 1.613 . S
N4567 C4570 1.350 . S
N4568 S4566 1.610 . S
N4568 C4569 1.351 . S
C4569 C4563 1.428 . S
C4569 N4568 1.351 . S
C4569 C4570 1.434 . S
C4570 C4561 1.429 . S
C4570 N4567 1.350 . S
C4570 C4569 1.434 . S
C4571 C4572 1.369 . S
C4571 C4573 1.419 . S
C4571 H4575 0.930 . S
C4572 C4571 1.369 . S
C4572 C4581 1.429 . S
C4573 C4571 1.419 . S
C4573 C4574 1.363 . S
C4573 H4576 0.929 . S
C4574 C4573 1.363 . S
C4574 C4580 1.428 . S
H4575 C4571 0.930 . S
H4576 C4573 0.929 . S
S4577 N4578 1.613 . S
S4577 N4579 1.610 . S
N4578 S4577 1.613 . S
N4578 C4581 1.350 . S
N4579 S4577 1.610 . S
N4579 C4580 1.351 . S
C4580 C4574 1.428 . S
C4580 N4579 1.351 . S
C4580 C4581 1.434 . S
C4581 C4572 1.429 . S
C4581 N4578 1.350 . S
C4581 C4580 1.434 . S
C4582 C4583 1.369 . S
C4582 C4584 1.419 . S
C4582 H4586 0.930 . S
C4583 C4582 1.369 . S
C4583 C4592 1.429 . S
C4584 C4582 1.419 . S
C4584 C4585 1.363 . S
C4584 H4587 0.929 . S
C4585 C4584 1.363 . S
C4585 C4591 1.428 . S
H4586 C4582 0.930 . S
H4587 C4584 0.929 . S
S4588 N4589 1.613 . S
S4588 N4590 1.610 . S
N4589 S4588 1.613 . S
N4589 C4592 1.350 . S
N4590 S4588 1.610 . S
N4590 C4591 1.351 . S
C4591 C4585 1.428 . S
C4591 N4590 1.351 . S
C4591 C4592 1.434 . S
C4592 C4583 1.429 . S
C4592 N4589 1.350 . S
C4592 C4591 1.434 . S
C4593 C4594 1.369 . S
C4593 C4595 1.419 . S
C4593 H4597 0.930 . S
C4594 C4593 1.369 . S
C4594 C4603 1.429 . S
C4595 C4593 1.419 . S
C4595 C4596 1.363 . S
C4595 H4598 0.929 . S
C4596 C4595 1.363 . S
C4596 C4602 1.428 . S
H4597 C4593 0.930 . S
H4598 C4595 0.929 . S
S4599 N4600 1.613 . S
S4599 N4601 1.610 . S
N4600 S4599 1.613 . S
N4600 C4603 1.350 . S
N4601 S4599 1.610 . S
N4601 C4602 1.351 . S
C4602 C4596 1.428 . S
C4602 N4601 1.351 . S
C4602 C4603 1.434 . S
C4603 C4594 1.429 . S
C4603 N4600 1.350 . S
C4603 C4602 1.434 . S
C4604 C4605 1.369 . S
C4604 C4606 1.419 . S
C4604 H4608 0.930 . S
C4605 C4604 1.369 . S
C4605 C4614 1.429 . S
C4606 C4604 1.419 . S
C4606 C4607 1.363 . S
C4606 H4609 0.929 . S
C4607 C4606 1.363 . S
C4607 C4613 1.428 . S
H4608 C4604 0.930 . S
H4609 C4606 0.929 . S
S4610 N4611 1.613 . S
S4610 N4612 1.610 . S
N4611 S4610 1.613 . S
N4611 C4614 1.350 . S
N4612 S4610 1.610 . S
N4612 C4613 1.351 . S
C4613 C4607 1.428 . S
C4613 N4612 1.351 . S
C4613 C4614 1.434 . S
C4614 C4605 1.429 . S
C4614 N4611 1.350 . S
C4614 C4613 1.434 . S
C4615 C4616 1.369 . S
C4615 C4617 1.419 . S
C4615 H4619 0.930 . S
C4616 C4615 1.369 . S
C4616 C4625 1.429 . S
C4617 C4615 1.419 . S
C4617 C4618 1.363 . S
C4617 H4620 0.929 . S
C4618 C4617 1.363 . S
C4618 C4624 1.428 . S
H4619 C4615 0.930 . S
H4620 C4617 0.929 . S
S4621 N4622 1.613 . S
S4621 N4623 1.610 . S
N4622 S4621 1.613 . S
N4622 C4625 1.350 . S
N4623 S4621 1.610 . S
N4623 C4624 1.351 . S
C4624 C4618 1.428 . S
C4624 N4623 1.351 . S
C4624 C4625 1.434 . S
C4625 C4616 1.429 . S
C4625 N4622 1.350 . S
C4625 C4624 1.434 . S
C4626 C4627 1.369 . S
C4626 C4628 1.419 . S
C4626 H4630 0.930 . S
C4627 C4626 1.369 . S
C4627 C4636 1.429 . S
C4628 C4626 1.419 . S
C4628 C4629 1.363 . S
C4628 H4631 0.929 . S
C4629 C4628 1.363 . S
C4629 C4635 1.428 . S
H4630 C4626 0.930 . S
H4631 C4628 0.929 . S
S4632 N4633 1.613 . S
S4632 N4634 1.610 . S
N4633 S4632 1.613 . S
N4633 C4636 1.350 . S
N4634 S4632 1.610 . S
N4634 C4635 1.351 . S
C4635 C4629 1.428 . S
C4635 N4634 1.351 . S
C4635 C4636 1.434 . S
C4636 C4627 1.429 . S
C4636 N4633 1.350 . S
C4636 C4635 1.434 . S
C4637 C4638 1.369 . S
C4637 C4639 1.419 . S
C4637 H4641 0.930 . S
C4638 C4637 1.369 . S
C4638 C4647 1.429 . S
C4639 C4637 1.419 . S
C4639 C4640 1.363 . S
C4639 H4642 0.929 . S
C4640 C4639 1.363 . S
C4640 C4646 1.428 . S
H4641 C4637 0.930 . S
H4642 C4639 0.929 . S
S4643 N4644 1.613 . S
S4643 N4645 1.610 . S
N4644 S4643 1.613 . S
N4644 C4647 1.350 . S
N4645 S4643 1.610 . S
N4645 C4646 1.351 . S
C4646 C4640 1.428 . S
C4646 N4645 1.351 . S
C4646 C4647 1.434 . S
C4647 C4638 1.429 . S
C4647 N4644 1.350 . S
C4647 C4646 1.434 . S
C4648 C4649 1.369 . S
C4648 C4650 1.419 . S
C4648 H4652 0.930 . S
C4649 C4648 1.369 . S
C4649 C4658 1.429 . S
C4650 C4648 1.419 . S
C4650 C4651 1.363 . S
C4650 H4653 0.929 . S
C4651 C4650 1.363 . S
C4651 C4657 1.428 . S
H4652 C4648 0.930 . S
H4653 C4650 0.929 . S
S4654 N4655 1.613 . S
S4654 N4656 1.610 . S
N4655 S4654 1.613 . S
N4655 C4658 1.350 . S
N4656 S4654 1.610 . S
N4656 C4657 1.351 . S
C4657 C4651 1.428 . S
C4657 N4656 1.351 . S
C4657 C4658 1.434 . S
C4658 C4649 1.429 . S
C4658 N4655 1.350 . S
C4658 C4657 1.434 . S
C4659 C4660 1.369 . S
C4659 C4661 1.419 . S
C4659 H4663 0.930 . S
C4660 C4659 1.369 . S
C4660 C4669 1.429 . S
C4661 C4659 1.419 . S
C4661 C4662 1.363 . S
C4661 H4664 0.929 . S
C4662 C4661 1.363 . S
C4662 C4668 1.428 . S
H4663 C4659 0.930 . S
H4664 C4661 0.929 . S
S4665 N4666 1.613 . S
S4665 N4667 1.610 . S
N4666 S4665 1.613 . S
N4666 C4669 1.350 . S
N4667 S4665 1.610 . S
N4667 C4668 1.351 . S
C4668 C4662 1.428 . S
C4668 N4667 1.351 . S
C4668 C4669 1.434 . S
C4669 C4660 1.429 . S
C4669 N4666 1.350 . S
C4669 C4668 1.434 . S
C4670 C4671 1.369 . S
C4670 C4672 1.419 . S
C4670 H4674 0.930 . S
C4671 C4670 1.369 . S
C4671 C4680 1.429 . S
C4672 C4670 1.419 . S
C4672 C4673 1.363 . S
C4672 H4675 0.929 . S
C4673 C4672 1.363 . S
C4673 C4679 1.428 . S
H4674 C4670 0.930 . S
H4675 C4672 0.929 . S
S4676 N4677 1.613 . S
S4676 N4678 1.610 . S
N4677 S4676 1.613 . S
N4677 C4680 1.350 . S
N4678 S4676 1.610 . S
N4678 C4679 1.351 . S
C4679 C4673 1.428 . S
C4679 N4678 1.351 . S
C4679 C4680 1.434 . S
C4680 C4671 1.429 . S
C4680 N4677 1.350 . S
C4680 C4679 1.434 . S
C4681 C4682 1.369 . S
C4681 C4683 1.419 . S
C4681 H4685 0.930 . S
C4682 C4681 1.369 . S
C4682 C4691 1.429 . S
C4683 C4681 1.419 . S
C4683 C4684 1.363 . S
C4683 H4686 0.929 . S
C4684 C4683 1.363 . S
C4684 C4690 1.428 . S
H4685 C4681 0.930 . S
H4686 C4683 0.929 . S
S4687 N4688 1.613 . S
S4687 N4689 1.610 . S
N4688 S4687 1.613 . S
N4688 C4691 1.350 . S
N4689 S4687 1.610 . S
N4689 C4690 1.351 . S
C4690 C4684 1.428 . S
C4690 N4689 1.351 . S
C4690 C4691 1.434 . S
C4691 C4682 1.429 . S
C4691 N4688 1.350 . S
C4691 C4690 1.434 . S
C4692 C4693 1.369 . S
C4692 C4694 1.419 . S
C4692 H4696 0.930 . S
C4693 C4692 1.369 . S
C4693 C4702 1.429 . S
C4694 C4692 1.419 . S
C4694 C4695 1.363 . S
C4694 H4697 0.929 . S
C4695 C4694 1.363 . S
C4695 C4701 1.428 . S
H4696 C4692 0.930 . S
H4697 C4694 0.929 . S
S4698 N4699 1.613 . S
S4698 N4700 1.610 . S
N4699 S4698 1.613 . S
N4699 C4702 1.350 . S
N4700 S4698 1.610 . S
N4700 C4701 1.351 . S
C4701 C4695 1.428 . S
C4701 N4700 1.351 . S
C4701 C4702 1.434 . S
C4702 C4693 1.429 . S
C4702 N4699 1.350 . S
C4702 C4701 1.434 . S
C4703 C4704 1.369 . S
C4703 C4705 1.419 . S
C4703 H4707 0.930 . S
C4704 C4703 1.369 . S
C4704 C4713 1.429 . S
C4705 C4703 1.419 . S
C4705 C4706 1.363 . S
C4705 H4708 0.929 . S
C4706 C4705 1.363 . S
C4706 C4712 1.428 . S
H4707 C4703 0.930 . S
H4708 C4705 0.929 . S
S4709 N4710 1.613 . S
S4709 N4711 1.610 . S
N4710 S4709 1.613 . S
N4710 C4713 1.350 . S
N4711 S4709 1.610 . S
N4711 C4712 1.351 . S
C4712 C4706 1.428 . S
C4712 N4711 1.351 . S
C4712 C4713 1.434 . S
C4713 C4704 1.429 . S
C4713 N4710 1.350 . S
C4713 C4712 1.434 . S
C4714 C4715 1.369 . S
C4714 C4716 1.419 . S
C4714 H4718 0.930 . S
C4715 C4714 1.369 . S
C4715 C4724 1.429 . S
C4716 C4714 1.419 . S
C4716 C4717 1.363 . S
C4716 H4719 0.929 . S
C4717 C4716 1.363 . S
C4717 C4723 1.428 . S
H4718 C4714 0.930 . S
H4719 C4716 0.929 . S
S4720 N4721 1.613 . S
S4720 N4722 1.610 . S
N4721 S4720 1.613 . S
N4721 C4724 1.350 . S
N4722 S4720 1.610 . S
N4722 C4723 1.351 . S
C4723 C4717 1.428 . S
C4723 N4722 1.351 . S
C4723 C4724 1.434 . S
C4724 C4715 1.429 . S
C4724 N4721 1.350 . S
C4724 C4723 1.434 . S
C4725 C4726 1.369 . S
C4725 C4727 1.419 . S
C4725 H4729 0.930 . S
C4726 C4725 1.369 . S
C4726 C4735 1.429 . S
C4727 C4725 1.419 . S
C4727 C4728 1.363 . S
C4727 H4730 0.929 . S
C4728 C4727 1.363 . S
C4728 C4734 1.428 . S
H4729 C4725 0.930 . S
H4730 C4727 0.929 . S
S4731 N4732 1.613 . S
S4731 N4733 1.610 . S
N4732 S4731 1.613 . S
N4732 C4735 1.350 . S
N4733 S4731 1.610 . S
N4733 C4734 1.351 . S
C4734 C4728 1.428 . S
C4734 N4733 1.351 . S
C4734 C4735 1.434 . S
C4735 C4726 1.429 . S
C4735 N4732 1.350 . S
C4735 C4734 1.434 . S
C4736 C4737 1.369 . S
C4736 C4738 1.419 . S
C4736 H4740 0.930 . S
C4737 C4736 1.369 . S
C4737 C4746 1.429 . S
C4738 C4736 1.419 . S
C4738 C4739 1.363 . S
C4738 H4741 0.929 . S
C4739 C4738 1.363 . S
C4739 C4745 1.428 . S
H4740 C4736 0.930 . S
H4741 C4738 0.929 . S
S4742 N4743 1.613 . S
S4742 N4744 1.610 . S
N4743 S4742 1.613 . S
N4743 C4746 1.350 . S
N4744 S4742 1.610 . S
N4744 C4745 1.351 . S
C4745 C4739 1.428 . S
C4745 N4744 1.351 . S
C4745 C4746 1.434 . S
C4746 C4737 1.429 . S
C4746 N4743 1.350 . S
C4746 C4745 1.434 . S
C4747 C4748 1.369 . S
C4747 C4749 1.419 . S
C4747 H4751 0.930 . S
C4748 C4747 1.369 . S
C4748 C4757 1.429 . S
C4749 C4747 1.419 . S
C4749 C4750 1.363 . S
C4749 H4752 0.929 . S
C4750 C4749 1.363 . S
C4750 C4756 1.428 . S
H4751 C4747 0.930 . S
H4752 C4749 0.929 . S
S4753 N4754 1.613 . S
S4753 N4755 1.610 . S
N4754 S4753 1.613 . S
N4754 C4757 1.350 . S
N4755 S4753 1.610 . S
N4755 C4756 1.351 . S
C4756 C4750 1.428 . S
C4756 N4755 1.351 . S
C4756 C4757 1.434 . S
C4757 C4748 1.429 . S
C4757 N4754 1.350 . S
C4757 C4756 1.434 . S
C4758 C4759 1.369 . S
C4758 C4760 1.419 . S
C4758 H4762 0.930 . S
C4759 C4758 1.369 . S
C4759 C4768 1.429 . S
C4760 C4758 1.419 . S
C4760 C4761 1.363 . S
C4760 H4763 0.929 . S
C4761 C4760 1.363 . S
C4761 C4767 1.428 . S
H4762 C4758 0.930 . S
H4763 C4760 0.929 . S
S4764 N4765 1.613 . S
S4764 N4766 1.610 . S
N4765 S4764 1.613 . S
N4765 C4768 1.350 . S
N4766 S4764 1.610 . S
N4766 C4767 1.351 . S
C4767 C4761 1.428 . S
C4767 N4766 1.351 . S
C4767 C4768 1.434 . S
C4768 C4759 1.429 . S
C4768 N4765 1.350 . S
C4768 C4767 1.434 . S
C4769 C4770 1.369 . S
C4769 C4771 1.419 . S
C4769 H4773 0.930 . S
C4770 C4769 1.369 . S
C4770 C4779 1.429 . S
C4771 C4769 1.419 . S
C4771 C4772 1.363 . S
C4771 H4774 0.929 . S
C4772 C4771 1.363 . S
C4772 C4778 1.428 . S
H4773 C4769 0.930 . S
H4774 C4771 0.929 . S
S4775 N4776 1.613 . S
S4775 N4777 1.610 . S
N4776 S4775 1.613 . S
N4776 C4779 1.350 . S
N4777 S4775 1.610 . S
N4777 C4778 1.351 . S
C4778 C4772 1.428 . S
C4778 N4777 1.351 . S
C4778 C4779 1.434 . S
C4779 C4770 1.429 . S
C4779 N4776 1.350 . S
C4779 C4778 1.434 . S
C4780 C4781 1.369 . S
C4780 C4782 1.419 . S
C4780 H4784 0.930 . S
C4781 C4780 1.369 . S
C4781 C4790 1.429 . S
C4782 C4780 1.419 . S
C4782 C4783 1.363 . S
C4782 H4785 0.929 . S
C4783 C4782 1.363 . S
C4783 C4789 1.428 . S
H4784 C4780 0.930 . S
H4785 C4782 0.929 . S
S4786 N4787 1.613 . S
S4786 N4788 1.610 . S
N4787 S4786 1.613 . S
N4787 C4790 1.350 . S
N4788 S4786 1.610 . S
N4788 C4789 1.351 . S
C4789 C4783 1.428 . S
C4789 N4788 1.351 . S
C4789 C4790 1.434 . S
C4790 C4781 1.429 . S
C4790 N4787 1.350 . S
C4790 C4789 1.434 . S
C4791 C4792 1.369 . S
C4791 C4793 1.419 . S
C4791 H4795 0.930 . S
C4792 C4791 1.369 . S
C4792 C4801 1.429 . S
C4793 C4791 1.419 . S
C4793 C4794 1.363 . S
C4793 H4796 0.929 . S
C4794 C4793 1.363 . S
C4794 C4800 1.428 . S
H4795 C4791 0.930 . S
H4796 C4793 0.929 . S
S4797 N4798 1.613 . S
S4797 N4799 1.610 . S
N4798 S4797 1.613 . S
N4798 C4801 1.350 . S
N4799 S4797 1.610 . S
N4799 C4800 1.351 . S
C4800 C4794 1.428 . S
C4800 N4799 1.351 . S
C4800 C4801 1.434 . S
C4801 C4792 1.429 . S
C4801 N4798 1.350 . S
C4801 C4800 1.434 . S
C4802 C4803 1.369 . S
C4802 C4804 1.419 . S
C4802 H4806 0.930 . S
C4803 C4802 1.369 . S
C4803 C4812 1.429 . S
C4804 C4802 1.419 . S
C4804 C4805 1.363 . S
C4804 H4807 0.929 . S
C4805 C4804 1.363 . S
C4805 C4811 1.428 . S
H4806 C4802 0.930 . S
H4807 C4804 0.929 . S
S4808 N4809 1.613 . S
S4808 N4810 1.610 . S
N4809 S4808 1.613 . S
N4809 C4812 1.350 . S
N4810 S4808 1.610 . S
N4810 C4811 1.351 . S
C4811 C4805 1.428 . S
C4811 N4810 1.351 . S
C4811 C4812 1.434 . S
C4812 C4803 1.429 . S
C4812 N4809 1.350 . S
C4812 C4811 1.434 . S
C4813 C4814 1.369 . S
C4813 C4815 1.419 . S
C4813 H4817 0.930 . S
C4814 C4813 1.369 . S
C4814 C4823 1.429 . S
C4815 C4813 1.419 . S
C4815 C4816 1.363 . S
C4815 H4818 0.929 . S
C4816 C4815 1.363 . S
C4816 C4822 1.428 . S
H4817 C4813 0.930 . S
H4818 C4815 0.929 . S
S4819 N4820 1.613 . S
S4819 N4821 1.610 . S
N4820 S4819 1.613 . S
N4820 C4823 1.350 . S
N4821 S4819 1.610 . S
N4821 C4822 1.351 . S
C4822 C4816 1.428 . S
C4822 N4821 1.351 . S
C4822 C4823 1.434 . S
C4823 C4814 1.429 . S
C4823 N4820 1.350 . S
C4823 C4822 1.434 . S
C4824 C4825 1.369 . S
C4824 C4826 1.419 . S
C4824 H4828 0.930 . S
C4825 C4824 1.369 . S
C4825 C4834 1.429 . S
C4826 C4824 1.419 . S
C4826 C4827 1.363 . S
C4826 H4829 0.929 . S
C4827 C4826 1.363 . S
C4827 C4833 1.428 . S
H4828 C4824 0.930 . S
H4829 C4826 0.929 . S
S4830 N4831 1.613 . S
S4830 N4832 1.610 . S
N4831 S4830 1.613 . S
N4831 C4834 1.350 . S
N4832 S4830 1.610 . S
N4832 C4833 1.351 . S
C4833 C4827 1.428 . S
C4833 N4832 1.351 . S
C4833 C4834 1.434 . S
C4834 C4825 1.429 . S
C4834 N4831 1.350 . S
C4834 C4833 1.434 . S
C4835 C4836 1.369 . S
C4835 C4837 1.419 . S
C4835 H4839 0.930 . S
C4836 C4835 1.369 . S
C4836 C4845 1.429 . S
C4837 C4835 1.419 . S
C4837 C4838 1.363 . S
C4837 H4840 0.929 . S
C4838 C4837 1.363 . S
C4838 C4844 1.428 . S
H4839 C4835 0.930 . S
H4840 C4837 0.929 . S
S4841 N4842 1.613 . S
S4841 N4843 1.610 . S
N4842 S4841 1.613 . S
N4842 C4845 1.350 . S
N4843 S4841 1.610 . S
N4843 C4844 1.351 . S
C4844 C4838 1.428 . S
C4844 N4843 1.351 . S
C4844 C4845 1.434 . S
C4845 C4836 1.429 . S
C4845 N4842 1.350 . S
C4845 C4844 1.434 . S
C4846 C4847 1.369 . S
C4846 C4848 1.419 . S
C4846 H4850 0.930 . S
C4847 C4846 1.369 . S
C4847 C4856 1.429 . S
C4848 C4846 1.419 . S
C4848 C4849 1.363 . S
C4848 H4851 0.929 . S
C4849 C4848 1.363 . S
C4849 C4855 1.428 . S
H4850 C4846 0.930 . S
H4851 C4848 0.929 . S
S4852 N4853 1.613 . S
S4852 N4854 1.610 . S
N4853 S4852 1.613 . S
N4853 C4856 1.350 . S
N4854 S4852 1.610 . S
N4854 C4855 1.351 . S
C4855 C4849 1.428 . S
C4855 N4854 1.351 . S
C4855 C4856 1.434 . S
C4856 C4847 1.429 . S
C4856 N4853 1.350 . S
C4856 C4855 1.434 . S
C4857 C4858 1.369 . S
C4857 C4859 1.419 . S
C4857 H4861 0.930 . S
C4858 C4857 1.369 . S
C4858 C4867 1.429 . S
C4859 C4857 1.419 . S
C4859 C4860 1.363 . S
C4859 H4862 0.929 . S
C4860 C4859 1.363 . S
C4860 C4866 1.428 . S
H4861 C4857 0.930 . S
H4862 C4859 0.929 . S
S4863 N4864 1.613 . S
S4863 N4865 1.610 . S
N4864 S4863 1.613 . S
N4864 C4867 1.350 . S
N4865 S4863 1.610 . S
N4865 C4866 1.351 . S
C4866 C4860 1.428 . S
C4866 N4865 1.351 . S
C4866 C4867 1.434 . S
C4867 C4858 1.429 . S
C4867 N4864 1.350 . S
C4867 C4866 1.434 . S
C4868 C4869 1.369 . S
C4868 C4870 1.419 . S
C4868 H4872 0.930 . S
C4869 C4868 1.369 . S
C4869 C4878 1.429 . S
C4870 C4868 1.419 . S
C4870 C4871 1.363 . S
C4870 H4873 0.929 . S
C4871 C4870 1.363 . S
C4871 C4877 1.428 . S
H4872 C4868 0.930 . S
H4873 C4870 0.929 . S
S4874 N4875 1.613 . S
S4874 N4876 1.610 . S
N4875 S4874 1.613 . S
N4875 C4878 1.350 . S
N4876 S4874 1.610 . S
N4876 C4877 1.351 . S
C4877 C4871 1.428 . S
C4877 N4876 1.351 . S
C4877 C4878 1.434 . S
C4878 C4869 1.429 . S
C4878 N4875 1.350 . S
C4878 C4877 1.434 . S
C4879 C4880 1.369 . S
C4879 C4881 1.419 . S
C4879 H4883 0.930 . S
C4880 C4879 1.369 . S
C4880 C4889 1.429 . S
C4881 C4879 1.419 . S
C4881 C4882 1.363 . S
C4881 H4884 0.929 . S
C4882 C4881 1.363 . S
C4882 C4888 1.428 . S
H4883 C4879 0.930 . S
H4884 C4881 0.929 . S
S4885 N4886 1.613 . S
S4885 N4887 1.610 . S
N4886 S4885 1.613 . S
N4886 C4889 1.350 . S
N4887 S4885 1.610 . S
N4887 C4888 1.351 . S
C4888 C4882 1.428 . S
C4888 N4887 1.351 . S
C4888 C4889 1.434 . S
C4889 C4880 1.429 . S
C4889 N4886 1.350 . S
C4889 C4888 1.434 . S
C4890 C4891 1.369 . S
C4890 C4892 1.419 . S
C4890 H4894 0.930 . S
C4891 C4890 1.369 . S
C4891 C4900 1.429 . S
C4892 C4890 1.419 . S
C4892 C4893 1.363 . S
C4892 H4895 0.929 . S
C4893 C4892 1.363 . S
C4893 C4899 1.428 . S
H4894 C4890 0.930 . S
H4895 C4892 0.929 . S
S4896 N4897 1.613 . S
S4896 N4898 1.610 . S
N4897 S4896 1.613 . S
N4897 C4900 1.350 . S
N4898 S4896 1.610 . S
N4898 C4899 1.351 . S
C4899 C4893 1.428 . S
C4899 N4898 1.351 . S
C4899 C4900 1.434 . S
C4900 C4891 1.429 . S
C4900 N4897 1.350 . S
C4900 C4899 1.434 . S
C4901 C4902 1.369 . S
C4901 C4903 1.419 . S
C4901 H4905 0.930 . S
C4902 C4901 1.369 . S
C4902 C4911 1.429 . S
C4903 C4901 1.419 . S
C4903 C4904 1.363 . S
C4903 H4906 0.929 . S
C4904 C4903 1.363 . S
C4904 C4910 1.428 . S
H4905 C4901 0.930 . S
H4906 C4903 0.929 . S
S4907 N4908 1.613 . S
S4907 N4909 1.610 . S
N4908 S4907 1.613 . S
N4908 C4911 1.350 . S
N4909 S4907 1.610 . S
N4909 C4910 1.351 . S
C4910 C4904 1.428 . S
C4910 N4909 1.351 . S
C4910 C4911 1.434 . S
C4911 C4902 1.429 . S
C4911 N4908 1.350 . S
C4911 C4910 1.434 . S
C4912 C4913 1.369 . S
C4912 C4914 1.419 . S
C4912 H4916 0.930 . S
C4913 C4912 1.369 . S
C4913 C4922 1.429 . S
C4914 C4912 1.419 . S
C4914 C4915 1.363 . S
C4914 H4917 0.929 . S
C4915 C4914 1.363 . S
C4915 C4921 1.428 . S
H4916 C4912 0.930 . S
H4917 C4914 0.929 . S
S4918 N4919 1.613 . S
S4918 N4920 1.610 . S
N4919 S4918 1.613 . S
N4919 C4922 1.350 . S
N4920 S4918 1.610 . S
N4920 C4921 1.351 . S
C4921 C4915 1.428 . S
C4921 N4920 1.351 . S
C4921 C4922 1.434 . S
C4922 C4913 1.429 . S
C4922 N4919 1.350 . S
C4922 C4921 1.434 . S
C4923 C4924 1.369 . S
C4923 C4925 1.419 . S
C4923 H4927 0.930 . S
C4924 C4923 1.369 . S
C4924 C4933 1.429 . S
C4925 C4923 1.419 . S
C4925 C4926 1.363 . S
C4925 H4928 0.929 . S
C4926 C4925 1.363 . S
C4926 C4932 1.428 . S
H4927 C4923 0.930 . S
H4928 C4925 0.929 . S
S4929 N4930 1.613 . S
S4929 N4931 1.610 . S
N4930 S4929 1.613 . S
N4930 C4933 1.350 . S
N4931 S4929 1.610 . S
N4931 C4932 1.351 . S
C4932 C4926 1.428 . S
C4932 N4931 1.351 . S
C4932 C4933 1.434 . S
C4933 C4924 1.429 . S
C4933 N4930 1.350 . S
C4933 C4932 1.434 . S
C4934 C4935 1.369 . S
C4934 C4936 1.419 . S
C4934 H4938 0.930 . S
C4935 C4934 1.369 . S
C4935 C4944 1.429 . S
C4936 C4934 1.419 . S
C4936 C4937 1.363 . S
C4936 H4939 0.929 . S
C4937 C4936 1.363 . S
C4937 C4943 1.428 . S
H4938 C4934 0.930 . S
H4939 C4936 0.929 . S
S4940 N4941 1.613 . S
S4940 N4942 1.610 . S
N4941 S4940 1.613 . S
N4941 C4944 1.350 . S
N4942 S4940 1.610 . S
N4942 C4943 1.351 . S
C4943 C4937 1.428 . S
C4943 N4942 1.351 . S
C4943 C4944 1.434 . S
C4944 C4935 1.429 . S
C4944 N4941 1.350 . S
C4944 C4943 1.434 . S
C4945 C4946 1.369 . S
C4945 C4947 1.419 . S
C4945 H4949 0.930 . S
C4946 C4945 1.369 . S
C4946 C4955 1.429 . S
C4947 C4945 1.419 . S
C4947 C4948 1.363 . S
C4947 H4950 0.929 . S
C4948 C4947 1.363 . S
C4948 C4954 1.428 . S
H4949 C4945 0.930 . S
H4950 C4947 0.929 . S
S4951 N4952 1.613 . S
S4951 N4953 1.610 . S
N4952 S4951 1.613 . S
N4952 C4955 1.350 . S
N4953 S4951 1.610 . S
N4953 C4954 1.351 . S
C4954 C4948 1.428 . S
C4954 N4953 1.351 . S
C4954 C4955 1.434 . S
C4955 C4946 1.429 . S
C4955 N4952 1.350 . S
C4955 C4954 1.434 . S
C4956 C4957 1.369 . S
C4956 C4958 1.419 . S
C4956 H4960 0.930 . S
C4957 C4956 1.369 . S
C4957 C4966 1.429 . S
C4958 C4956 1.419 . S
C4958 C4959 1.363 . S
C4958 H4961 0.929 . S
C4959 C4958 1.363 . S
C4959 C4965 1.428 . S
H4960 C4956 0.930 . S
H4961 C4958 0.929 . S
S4962 N4963 1.613 . S
S4962 N4964 1.610 . S
N4963 S4962 1.613 . S
N4963 C4966 1.350 . S
N4964 S4962 1.610 . S
N4964 C4965 1.351 . S
C4965 C4959 1.428 . S
C4965 N4964 1.351 . S
C4965 C4966 1.434 . S
C4966 C4957 1.429 . S
C4966 N4963 1.350 . S
C4966 C4965 1.434 . S
C4967 C4968 1.369 . S
C4967 C4969 1.419 . S
C4967 H4971 0.930 . S
C4968 C4967 1.369 . S
C4968 C4977 1.429 . S
C4969 C4967 1.419 . S
C4969 C4970 1.363 . S
C4969 H4972 0.929 . S
C4970 C4969 1.363 . S
C4970 C4976 1.428 . S
H4971 C4967 0.930 . S
H4972 C4969 0.929 . S
S4973 N4974 1.613 . S
S4973 N4975 1.610 . S
N4974 S4973 1.613 . S
N4974 C4977 1.350 . S
N4975 S4973 1.610 . S
N4975 C4976 1.351 . S
C4976 C4970 1.428 . S
C4976 N4975 1.351 . S
C4976 C4977 1.434 . S
C4977 C4968 1.429 . S
C4977 N4974 1.350 . S
C4977 C4976 1.434 . S
C4978 C4979 1.369 . S
C4978 C4980 1.419 . S
C4978 H4982 0.930 . S
C4979 C4978 1.369 . S
C4979 C4988 1.429 . S
C4980 C4978 1.419 . S
C4980 C4981 1.363 . S
C4980 H4983 0.929 . S
C4981 C4980 1.363 . S
C4981 C4987 1.428 . S
H4982 C4978 0.930 . S
H4983 C4980 0.929 . S
S4984 N4985 1.613 . S
S4984 N4986 1.610 . S
N4985 S4984 1.613 . S
N4985 C4988 1.350 . S
N4986 S4984 1.610 . S
N4986 C4987 1.351 . S
C4987 C4981 1.428 . S
C4987 N4986 1.351 . S
C4987 C4988 1.434 . S
C4988 C4979 1.429 . S
C4988 N4985 1.350 . S
C4988 C4987 1.434 . S
C4989 C4990 1.369 . S
C4989 C4991 1.419 . S
C4989 H4993 0.930 . S
C4990 C4989 1.369 . S
C4990 C4999 1.429 . S
C4991 C4989 1.419 . S
C4991 C4992 1.363 . S
C4991 H4994 0.929 . S
C4992 C4991 1.363 . S
C4992 C4998 1.428 . S
H4993 C4989 0.930 . S
H4994 C4991 0.929 . S
S4995 N4996 1.613 . S
S4995 N4997 1.610 . S
N4996 S4995 1.613 . S
N4996 C4999 1.350 . S
N4997 S4995 1.610 . S
N4997 C4998 1.351 . S
C4998 C4992 1.428 . S
C4998 N4997 1.351 . S
C4998 C4999 1.434 . S
C4999 C4990 1.429 . S
C4999 N4996 1.350 . S
C4999 C4998 1.434 . S
C5000 C5001 1.369 . S
C5000 C5002 1.419 . S
C5000 H5004 0.930 . S
C5001 C5000 1.369 . S
C5001 C5010 1.429 . S
C5002 C5000 1.419 . S
C5002 C5003 1.363 . S
C5002 H5005 0.929 . S
C5003 C5002 1.363 . S
C5003 C5009 1.428 . S
H5004 C5000 0.930 . S
H5005 C5002 0.929 . S
S5006 N5007 1.613 . S
S5006 N5008 1.610 . S
N5007 S5006 1.613 . S
N5007 C5010 1.350 . S
N5008 S5006 1.610 . S
N5008 C5009 1.351 . S
C5009 C5003 1.428 . S
C5009 N5008 1.351 . S
C5009 C5010 1.434 . S
C5010 C5001 1.429 . S
C5010 N5007 1.350 . S
C5010 C5009 1.434 . S
C5011 C5012 1.369 . S
C5011 C5013 1.419 . S
C5011 H5015 0.930 . S
C5012 C5011 1.369 . S
C5012 C5021 1.429 . S
C5013 C5011 1.419 . S
C5013 C5014 1.363 . S
C5013 H5016 0.929 . S
C5014 C5013 1.363 . S
C5014 C5020 1.428 . S
H5015 C5011 0.930 . S
H5016 C5013 0.929 . S
S5017 N5018 1.613 . S
S5017 N5019 1.610 . S
N5018 S5017 1.613 . S
N5018 C5021 1.350 . S
N5019 S5017 1.610 . S
N5019 C5020 1.351 . S
C5020 C5014 1.428 . S
C5020 N5019 1.351 . S
C5020 C5021 1.434 . S
C5021 C5012 1.429 . S
C5021 N5018 1.350 . S
C5021 C5020 1.434 . S
C5022 C5023 1.369 . S
C5022 C5024 1.419 . S
C5022 H5026 0.930 . S
C5023 C5022 1.369 . S
C5023 C5032 1.429 . S
C5024 C5022 1.419 . S
C5024 C5025 1.363 . S
C5024 H5027 0.929 . S
C5025 C5024 1.363 . S
C5025 C5031 1.428 . S
H5026 C5022 0.930 . S
H5027 C5024 0.929 . S
S5028 N5029 1.613 . S
S5028 N5030 1.610 . S
N5029 S5028 1.613 . S
N5029 C5032 1.350 . S
N5030 S5028 1.610 . S
N5030 C5031 1.351 . S
C5031 C5025 1.428 . S
C5031 N5030 1.351 . S
C5031 C5032 1.434 . S
C5032 C5023 1.429 . S
C5032 N5029 1.350 . S
C5032 C5031 1.434 . S
C5033 C5034 1.369 . S
C5033 C5035 1.419 . S
C5033 H5037 0.930 . S
C5034 C5033 1.369 . S
C5034 C5043 1.429 . S
C5035 C5033 1.419 . S
C5035 C5036 1.363 . S
C5035 H5038 0.929 . S
C5036 C5035 1.363 . S
C5036 C5042 1.428 . S
H5037 C5033 0.930 . S
H5038 C5035 0.929 . S
S5039 N5040 1.613 . S
S5039 N5041 1.610 . S
N5040 S5039 1.613 . S
N5040 C5043 1.350 . S
N5041 S5039 1.610 . S
N5041 C5042 1.351 . S
C5042 C5036 1.428 . S
C5042 N5041 1.351 . S
C5042 C5043 1.434 . S
C5043 C5034 1.429 . S
C5043 N5040 1.350 . S
C5043 C5042 1.434 . S
C5044 C5045 1.369 . S
C5044 C5046 1.419 . S
C5044 H5048 0.930 . S
C5045 C5044 1.369 . S
C5045 C5054 1.429 . S
C5046 C5044 1.419 . S
C5046 C5047 1.363 . S
C5046 H5049 0.929 . S
C5047 C5046 1.363 . S
C5047 C5053 1.428 . S
H5048 C5044 0.930 . S
H5049 C5046 0.929 . S
S5050 N5051 1.613 . S
S5050 N5052 1.610 . S
N5051 S5050 1.613 . S
N5051 C5054 1.350 . S
N5052 S5050 1.610 . S
N5052 C5053 1.351 . S
C5053 C5047 1.428 . S
C5053 N5052 1.351 . S
C5053 C5054 1.434 . S
C5054 C5045 1.429 . S
C5054 N5051 1.350 . S
C5054 C5053 1.434 . S
C5055 C5056 1.369 . S
C5055 C5057 1.419 . S
C5055 H5059 0.930 . S
C5056 C5055 1.369 . S
C5056 C5065 1.429 . S
C5057 C5055 1.419 . S
C5057 C5058 1.363 . S
C5057 H5060 0.929 . S
C5058 C5057 1.363 . S
C5058 C5064 1.428 . S
H5059 C5055 0.930 . S
H5060 C5057 0.929 . S
S5061 N5062 1.613 . S
S5061 N5063 1.610 . S
N5062 S5061 1.613 . S
N5062 C5065 1.350 . S
N5063 S5061 1.610 . S
N5063 C5064 1.351 . S
C5064 C5058 1.428 . S
C5064 N5063 1.351 . S
C5064 C5065 1.434 . S
C5065 C5056 1.429 . S
C5065 N5062 1.350 . S
C5065 C5064 1.434 . S
C5066 C5067 1.369 . S
C5066 C5068 1.419 . S
C5066 H5070 0.930 . S
C5067 C5066 1.369 . S
C5067 C5076 1.429 . S
C5068 C5066 1.419 . S
C5068 C5069 1.363 . S
C5068 H5071 0.929 . S
C5069 C5068 1.363 . S
C5069 C5075 1.428 . S
H5070 C5066 0.930 . S
H5071 C5068 0.929 . S
S5072 N5073 1.613 . S
S5072 N5074 1.610 . S
N5073 S5072 1.613 . S
N5073 C5076 1.350 . S
N5074 S5072 1.610 . S
N5074 C5075 1.351 . S
C5075 C5069 1.428 . S
C5075 N5074 1.351 . S
C5075 C5076 1.434 . S
C5076 C5067 1.429 . S
C5076 N5073 1.350 . S
C5076 C5075 1.434 . S
C5077 C5078 1.369 . S
C5077 C5079 1.419 . S
C5077 H5081 0.930 . S
C5078 C5077 1.369 . S
C5078 C5087 1.429 . S
C5079 C5077 1.419 . S
C5079 C5080 1.363 . S
C5079 H5082 0.929 . S
C5080 C5079 1.363 . S
C5080 C5086 1.428 . S
H5081 C5077 0.930 . S
H5082 C5079 0.929 . S
S5083 N5084 1.613 . S
S5083 N5085 1.610 . S
N5084 S5083 1.613 . S
N5084 C5087 1.350 . S
N5085 S5083 1.610 . S
N5085 C5086 1.351 . S
C5086 C5080 1.428 . S
C5086 N5085 1.351 . S
C5086 C5087 1.434 . S
C5087 C5078 1.429 . S
C5087 N5084 1.350 . S
C5087 C5086 1.434 . S
C1921 C1512 1.454 . S
C1923 C18 1.510 . S
C1932 C482 1.292 . S
C1934 C39 1.426 . S
C1943 C59 1.319 . S
C1945 C1472 1.264 . S
C1954 C79 1.284 . S
C1956 C532 1.253 . S
C1965 C99 1.226 . S
C1967 C1552 1.154 . S
C1976 C612 1.257 . S
C1978 C119 1.313 . S
C1987 C139 1.215 . S
C1989 C1582 1.101 . S
C1998 C158 1.308 . S
C2000 C572 1.228 . S
C2009 C178 1.455 . S
C2011 C1812 1.402 . S
C2020 C872 1.249 . S
C2022 C199 1.287 . S
C2031 C892 1.303 . S
C2033 C219 1.366 . S
C2042 C832 1.336 . S
C2044 C239 1.389 . S
C2053 C259 1.308 . S
C2055 C1882 1.179 . S
C2064 C278 1.314 . S
C2066 C1762 1.168 . S
C2075 C1902 1.128 . S
C2077 C299 1.219 . S
C2086 C319 1.357 . S
C2088 C1862 1.225 . S
C2097 C338 1.439 . S
C2099 C1632 1.383 . S
C2108 C792 1.163 . S
C2110 C359 1.223 . S
C2119 C1692 1.198 . S
C2121 C379 1.239 . S
C2130 C399 1.224 . S
C2132 C742 1.146 . S
C2141 C419 1.335 . S
C2143 C772 1.296 . S
C2152 C438 1.425 . S
C2154 C1672 1.359 . S
C2163 C458 1.437 . S
C2165 C1602 1.306 . S
C2174 C1652 1.229 . S
C2176 C478 1.313 . S
C2185 C499 1.511 . S
C2187 C1029 1.459 . S
C2196 C518 1.428 . S
C2198 C4 1.286 . S
C2207 C538 1.317 . S
C2209 C989 1.267 . S
C2218 C49 1.245 . S
C2220 C558 1.285 . S
C2229 C1069 1.148 . S
C2231 C578 1.228 . S
C2240 C598 1.320 . S
C2242 C129 1.245 . S
C2251 C1104 1.107 . S
C2253 C618 1.214 . S
C2262 C639 1.311 . S
C2264 C89 1.217 . S
C2273 C659 1.455 . S
C2275 C1329 1.406 . S
C2284 C678 1.287 . S
C2286 C389 1.254 . S
C2295 C698 1.366 . S
C2297 C409 1.304 . S
C2306 C349 1.343 . S
C2308 C718 1.388 . S
C2317 C1404 1.189 . S
C2319 C738 1.305 . S
C2328 C759 1.315 . S
C2330 C1284 1.154 . S
C2339 C778 1.218 . S
C2341 C1424 1.136 . S
C2350 C1384 1.219 . S
C2352 C798 1.358 . S
C2361 C819 1.439 . S
C2363 C1149 1.376 . S
C2372 C838 1.224 . S
C2374 C309 1.163 . S
C2383 C1209 1.206 . S
C2385 C858 1.238 . S
C2394 C878 1.225 . S
C2396 C264 1.144 . S
C2405 C898 1.335 . S
C2407 C289 1.299 . S
C2416 C1189 1.357 . S
C2418 C919 1.426 . S
C2427 C1124 1.301 . S
C2429 C939 1.437 . S
C2438 C1169 1.234 . S
C2440 C959 1.312 . S
C2449 C978 1.511 . S
C2451 C552 1.456 . S
C2460 C1442 1.299 . S
C2462 C999 1.424 . S
C2471 C512 1.268 . S
C2473 C1019 1.319 . S
C2482 C1492 1.248 . S
C2484 C1039 1.285 . S
C2493 C1059 1.229 . S
C2495 C592 1.150 . S
C2504 C1079 1.316 . S
C2506 C1572 1.249 . S
C2515 C622 1.098 . S
C2517 C1099 1.215 . S
C2526 C1532 1.222 . S
C2528 C1118 1.309 . S
C2537 C852 1.401 . S
C2539 C1138 1.455 . S
C2548 C1159 1.286 . S
C2550 C1832 1.254 . S
C2559 C1179 1.363 . S
C2561 C1852 1.307 . S
C2570 C1792 1.342 . S
C2572 C1199 1.387 . S
C2581 C922 1.186 . S
C2583 C1219 1.306 . S
C2592 C802 1.169 . S
C2594 C1238 1.314 . S
C2603 C942 1.134 . S
C2605 C1259 1.219 . S
C2614 C902 1.225 . S
C2616 C1279 1.357 . S
C2625 C672 1.376 . S
C2627 C1298 1.439 . S
C2636 C1752 1.169 . S
C2638 C1319 1.221 . S
C2647 C1339 1.238 . S
C2649 C732 1.205 . S
C2658 C1702 1.147 . S
C2660 C1359 1.224 . S
C2669 C1732 1.294 . S
C2671 C1379 1.335 . S
C2680 C1398 1.426 . S
C2682 C712 1.363 . S
C2691 C1418 1.436 . S
C2693 C642 1.305 . S
C2702 C1438 1.311 . S
C2704 C692 1.234 . S
C2713 C1459 1.510 . S
C2715 C69 1.452 . S
C2724 C964 1.296 . S
C2726 C1478 1.425 . S
C2735 C1498 1.321 . S
C2737 C29 1.264 . S
C2746 C1518 1.286 . S
C2748 C1009 1.246 . S
C2757 C1538 1.221 . S
C2759 C109 1.162 . S
C2768 C1089 1.257 . S
C2770 C1558 1.312 . S
C2779 C144 1.106 . S
C2781 C1578 1.214 . S
C2790 C1599 1.308 . S
C2792 C1049 1.226 . S
C2801 C369 1.398 . S
C2803 C1619 1.453 . S
C2812 C1349 1.258 . S
C2814 C1638 1.285 . S
C2823 C1658 1.367 . S
C2825 C1369 1.300 . S
C2834 C1678 1.386 . S
C2836 C1309 1.345 . S
C2845 C1698 1.308 . S
C2847 C444 1.178 . S
C2856 C1719 1.314 . S
C2858 C324 1.167 . S
C2867 C1738 1.219 . S
C2869 C464 1.134 . S
C2878 C424 1.232 . S
C2880 C1758 1.355 . S
C2889 C189 1.380 . S
C2891 C1779 1.440 . S
C2900 C1798 1.218 . S
C2902 C1269 1.174 . S
C2911 C1818 1.239 . S
C2913 C249 1.201 . S
C2922 C1838 1.226 . S
C2924 C1224 1.136 . S
C2933 C1249 1.298 . S
C2935 C1858 1.335 . S
C2944 C229 1.359 . S
C2946 C1879 1.425 . S
C2955 C164 1.297 . S
C2957 C1899 1.436 . S
C2966 C1919 1.312 . S
C2968 C209 1.230 . S
C2977 C12 1.192 . S
C2979 C402 1.128 . S
C2988 C1302 1.227 . S
C2990 C22 1.258 . S
C2999 C42 1.155 . S
C3001 C1322 1.128 . S
C3010 C62 1.168 . S
C3012 C1342 1.192 . S
C3021 C82 1.038 . S
C3023 C1432 1.084 . S
C3032 C102 1.127 . S
C3034 C432 1.137 . S
C3043 C1412 1.229 . S
C3045 C122 1.176 . S
C3054 C332 1.009 . S
C3056 C152 1.018 . S
C3065 C172 1.130 . S
C3067 C302 1.121 . S
C3076 C242 1.214 . S
C3078 C182 1.169 . S
C3087 C202 1.140 . S
C3089 C272 1.171 . S
C3098 C222 1.187 . S
C3100 C282 1.150 . S
C3109 C342 1.236 . S
C3111 C982 1.267 . S
C3120 C362 1.119 . S
C3122 C1002 1.141 . S
C3131 C382 1.203 . S
C3133 C1022 1.172 . S
C3142 C452 1.220 . S
C3144 C1082 1.169 . S
C3153 C1042 1.054 . S
C3155 C472 1.091 . S
C3164 C489 1.187 . S
C3166 C884 1.124 . S
C3175 C504 1.257 . S
C3177 C1784 1.229 . S
C3186 C1804 1.116 . S
C3188 C524 1.142 . S
C3197 C1824 1.201 . S
C3199 C544 1.177 . S
C3208 C564 1.038 . S
C3210 C1909 1.084 . S
C3219 C584 1.127 . S
C3221 C909 1.133 . S
C3230 C1889 1.228 . S
C3232 C604 1.176 . S
C3241 C629 1.030 . S
C3243 C809 1.022 . S
C3252 C784 1.109 . S
C3254 C649 1.119 . S
C3263 C724 1.214 . S
C3265 C664 1.168 . S
C3274 C749 1.163 . S
C3276 C684 1.134 . S
C3285 C704 1.187 . S
C3287 C764 1.151 . S
C3296 C824 1.227 . S
C3298 C1464 1.257 . S
C3307 C1484 1.144 . S
C3309 C844 1.119 . S
C3318 C1504 1.172 . S
C3320 C864 1.201 . S
C3329 C929 1.223 . S
C3331 C1564 1.172 . S
C3340 C1524 1.042 . S
C3342 C949 1.088 . S
C3351 C1362 1.134 . S
C3353 C972 1.192 . S
C3362 C1392 1.127 . S
C3364 C1062 1.121 . S
C3373 C1292 1.023 . S
C3375 C1112 1.028 . S
C3384 C1132 1.116 . S
C3386 C1262 1.110 . S
C3395 C1142 1.181 . S
C3397 C1202 1.225 . S
C3406 C1232 1.172 . S
C3408 C1162 1.141 . S
C3417 C1242 1.151 . S
C3419 C1182 1.181 . S
C3428 C1449 1.195 . S
C3430 C1844 1.134 . S
C3439 C1869 1.140 . S
C3441 C1544 1.130 . S
C3450 C1589 1.017 . S
C3452 C1769 1.012 . S
C3461 C1609 1.116 . S
C3463 C1744 1.110 . S
C3472 C1684 1.228 . S
C3474 C1624 1.177 . S
C3483 C1709 1.169 . S
C3485 C1644 1.139 . S
C3494 C1664 1.178 . S
C3496 C1724 1.146 . S
C3505 C9 0.999 . S
C3507 C879 0.981 . S
C3516 C899 1.174 . S
C3518 C24 1.154 . S
C3527 C839 1.094 1_556 S
C3529 C44 1.103 . S
C3538 C1819 1.199 . S
C3540 C64 1.239 . S
C3549 C84 1.056 . S
C3551 C1878 1.074 1_554 S
C3560 C1898 1.044 . S
C3562 C104 1.011 . S
C3571 C124 1.171 . S
C3573 C1778 1.203 . S
C3582 C1918 0.919 . S
C3584 C149 0.921 . S
C3593 C539 0.966 . S
C3595 C169 1.000 . S
C3604 C1519 1.247 . S
C3606 C184 1.300 . S
C3615 C204 1.130 . S
C3617 C498 1.152 1_455 S
C3626 C1479 1.079 . S
C3628 C224 1.071 . S
C3637 C244 1.137 . S
C3639 C619 1.165 . S
C3648 C269 1.080 . S
C3650 C1598 1.060 . S
C3659 C284 1.127 . S
C3661 C579 1.125 . S
C3670 C304 0.995 . S
C3672 C1559 1.044 . S
C3681 C329 0.878 . S
C3683 C1699 0.859 . S
C3692 C658 1.251 1_545 S
C3694 C344 1.249 . S
C3703 C1639 1.235 . S
C3705 C364 1.284 . S
C3714 C384 1.189 . S
C3716 C699 1.187 1_565 S
C3725 C404 1.112 . S
C3727 C719 1.091 . S
C3736 C429 1.012 . S
C3738 C1739 0.978 . S
C3747 C449 0.981 . S
C3749 C1759 0.971 . S
C3758 C469 0.974 . S
C3760 C1718 0.966 . S
C3769 C398 0.978 . S
C3771 C492 0.996 . S
C3780 C502 1.164 . S
C3782 C418 1.182 . S
C3791 C358 1.098 1_554 S
C3793 C522 1.105 . S
C3802 C542 1.243 . S
C3804 C1338 1.205 . S
C3813 C562 1.050 . S
C3815 C1399 1.073 1_556 S
C3824 C1419 1.045 . S
C3826 C582 1.011 . S
C3835 C1299 1.203 . S
C3837 C602 1.161 . S
C3846 C632 0.917 . S
C3848 C1439 0.912 . S
C3857 C58 0.973 . S
C3859 C652 1.001 . S
C3868 C662 1.300 . S
C3870 C1038 1.249 . S
C3879 C682 1.121 . S
C3881 C19 1.150 1_655 S
C3890 C998 1.078 . S
C3892 C702 1.071 . S
C3901 C138 1.158 . S
C3903 C722 1.127 . S
C3912 C752 1.075 . S
C3914 C1119 1.065 . S
C3923 C762 1.126 . S
C3925 C98 1.125 . S
C3934 C1078 1.047 . S
C3936 C782 1.008 . S
C3945 C812 0.875 . S
C3947 C1218 0.859 . S
C3956 C822 1.244 . S
C3958 C179 1.247 1_565 S
C3967 C1158 1.234 . S
C3969 C842 1.282 . S
C3978 C862 1.186 . S
C3980 C218 1.182 1_545 S
C3989 C238 1.090 . S
C3991 C882 1.113 . S
C4000 C912 1.017 . S
C4002 C1258 0.989 . S
C4011 C1278 0.979 . S
C4013 C932 0.988 . S
C4022 C1239 0.969 . S
C4024 C952 0.975 . S
C4033 C1839 0.971 1_556 S
C4035 C969 0.997 . S
C4044 C1859 1.183 . S
C4046 C984 1.162 . S
C4055 C1004 1.102 . S
C4057 C1799 1.094 . S
C4066 C1024 1.238 . S
C4068 C859 1.198 . S
C4077 C1044 1.054 . S
C4079 C918 1.073 . S
C4088 C1064 1.011 . S
C4090 C938 1.044 . S
C4099 C818 1.200 1_554 S
C4101 C1084 1.164 . S
C4110 C958 0.910 . S
C4112 C1109 0.915 . S
C4121 C1129 1.003 . S
C4123 C1499 0.976 1_655 S
C4132 C1144 1.303 . S
C4134 C559 1.255 . S
C4143 C1164 1.120 . S
C4145 C1458 1.148 . S
C4154 C1184 1.065 . S
C4156 C519 1.073 . S
C4165 C1204 1.124 . S
C4167 C1579 1.158 1_655 S
C4176 C1229 1.081 . S
C4178 C638 1.063 . S
C4187 C1244 1.117 . S
C4189 C1539 1.119 . S
C4198 C1264 0.995 . S
C4200 C599 1.044 . S
C4209 C739 0.857 1_565 S
C4211 C1289 0.877 . S
C4220 C1618 1.253 . S
C4222 C1304 1.250 . S
C4231 C679 1.230 . S
C4233 C1324 1.281 . S
C4242 C1659 1.180 . S
C4244 C1344 1.183 . S
C4253 C1364 1.117 . S
C4255 C1679 1.092 . S
C4264 C1389 1.012 . S
C4266 C779 0.986 1_545 S
C4275 C1409 0.981 . S
C4277 C799 0.971 . S
C4286 C1429 0.976 . S
C4288 C758 0.969 . S
C4297 C1358 0.970 1_554 S
C4299 C1452 0.995 . S
C4308 C1378 1.183 . S
C4310 C1462 1.163 . S
C4319 C1482 1.102 . S
C4321 C1318 1.094 . S
C4330 C1502 1.243 . S
C4332 C378 1.205 . S
C4341 C439 1.074 . S
C4343 C1522 1.055 . S
C4352 C1542 1.015 . S
C4354 C459 1.045 . S
C4363 C339 1.205 1_556 S
C4365 C1562 1.165 . S
C4374 C479 0.920 . S
C4376 C1592 0.920 . S
C4385 C1612 1.000 . S
C4387 C1018 0.966 1_455 S
C4396 C1622 1.299 . S
C4398 C78 1.247 . S
C4407 C1642 1.120 . S
C4409 C979 1.148 . S
C4418 C1662 1.073 . S
C4420 C38 1.078 . S
C4429 C1098 1.159 1_455 S
C4431 C1682 1.126 . S
C4440 C159 1.058 . S
C4442 C1712 1.076 . S
C4451 C1058 1.120 . S
C4453 C1722 1.123 . S
C4462 C1742 1.007 . S
C4464 C118 1.045 . S
C4473 C258 0.863 1_545 S
C4475 C1772 0.877 . S
C4484 C1782 1.249 . S
C4486 C1139 1.251 . S
C4495 C1802 1.280 . S
C4497 C198 1.230 . S
C4506 C1178 1.179 . S
C4508 C1822 1.184 . S
C4517 C1842 1.114 . S
C4519 C1198 1.089 . S
C4528 C1872 1.013 . S
C4530 C298 0.987 1_565 S
C4539 C318 0.980 . S
C4541 C1892 0.988 . S
C4550 C1912 0.976 . S
C4552 C279 0.969 . S
C4561 C2 1.776 . S
C4563 C192 1.685 . S
C4572 C212 1.529 . S
C4574 C32 1.532 . S
C4583 C52 1.512 . S
C4585 C232 1.507 . S
C4594 C162 1.752 . S
C4596 C72 1.690 . S
C4605 C312 1.529 . S
C4607 C92 1.493 . S
C4616 C252 1.484 . S
C4618 C112 1.521 . S
C4627 C132 1.658 . S
C4629 C262 1.660 . S
C4638 C142 1.669 . S
C4640 C292 1.596 . S
C4649 C322 1.743 . S
C4651 C372 1.639 . S
C4660 C1402 1.741 . S
C4662 C352 1.662 . S
C4671 C392 1.547 . S
C4673 C1422 1.592 . S
C4682 C1382 1.776 . S
C4684 C412 1.735 . S
C4693 C1372 1.727 . S
C4695 C422 1.770 . S
C4704 C442 1.742 . S
C4706 C1312 1.667 . S
C4715 C462 1.593 . S
C4717 C1352 1.547 . S
C4726 C669 1.686 . S
C4728 C484 1.775 . S
C4737 C509 1.544 . S
C4739 C689 1.529 . S
C4748 C529 1.501 . S
C4750 C709 1.504 . S
C4759 C644 1.751 . S
C4761 C549 1.688 . S
C4770 C789 1.532 . S
C4772 C569 1.495 . S
C4781 C729 1.471 . S
C4783 C589 1.517 . S
C4792 C744 1.657 . S
C4794 C609 1.657 . S
C4803 C769 1.602 . S
C4805 C624 1.677 . S
C4814 C849 1.647 . S
C4816 C804 1.742 . S
C4825 C829 1.664 . S
C4827 C1884 1.742 . S
C4836 C869 1.545 . S
C4838 C1904 1.592 . S
C4847 C889 1.735 . S
C4849 C1864 1.768 . S
C4858 C1849 1.735 . S
C4860 C904 1.775 . S
C4869 C1789 1.667 . S
C4871 C924 1.743 . S
C4880 C1829 1.537 . S
C4882 C944 1.582 . S
C4891 C962 1.775 . S
C4893 C1152 1.679 . S
C4902 C992 1.542 . S
C4904 C1172 1.525 . S
C4913 C1012 1.514 . S
C4915 C1192 1.503 . S
C4924 C1032 1.691 . S
C4926 C1122 1.745 . S
C4935 C1272 1.525 . S
C4937 C1052 1.486 . S
C4946 C1072 1.511 . S
C4948 C1212 1.472 . S
C4957 C1222 1.665 . S
C4959 C1092 1.657 . S
C4968 C1252 1.607 . S
C4970 C1102 1.674 . S
C4979 C1332 1.639 . S
C4981 C1282 1.745 . S
C4990 C1444 1.766 . S
C4992 C1629 1.677 . S
C5001 C1649 1.520 . S
C5003 C1469 1.538 . S
C5012 C1489 1.501 . S
C5014 C1669 1.496 . S
C5023 C1604 1.740 . S
C5025 C1509 1.685 . S
C5034 C1529 1.485 . S
C5036 C1749 1.526 . S
C5045 C1689 1.470 . S
C5047 C1549 1.513 . S
C5056 C1569 1.653 . S
C5058 C1704 1.662 . S
C5067 C1584 1.673 . S
C5069 C1729 1.597 . S
C5078 C1764 1.749 . S
C5080 C1809 1.650 . S
