# Generated by pormake.
# Topology wiv, (6)-cn, num edge types: 1
# Building blocks:
#     Node 0, Type 0, BuildingBlock: LEVNOQ01_clean_sbu_1, # of connection points: 6
#     Node 1, Type 0, BuildingBlock: LEVNOQ01_clean_sbu_1, # of connection points: 6
#     Node 2, Type 0, BuildingBlock: LEVNOQ01_clean_sbu_1, # of connection points: 6
#     Node 3, Type 0, BuildingBlock: LEVNOQ01_clean_sbu_1, # of connection points: 6
#     Node 4, Type 0, BuildingBlock: LEVNOQ01_clean_sbu_1, # of connection points: 6
#     Node 5, Type 0, BuildingBlock: LEVNOQ01_clean_sbu_1, # of connection points: 6
#     Node 6, Type 0, BuildingBlock: LEVNOQ01_clean_sbu_1, # of connection points: 6
#     Node 7, Type 0, BuildingBlock: LEVNOQ01_clean_sbu_1, # of connection points: 6
#     Node 8, Type 0, BuildingBlock: LEVNOQ01_clean_sbu_1, # of connection points: 6
#     Node 9, Type 0, BuildingBlock: LEVNOQ01_clean_sbu_1, # of connection points: 6
#     Node 10, Type 0, BuildingBlock: LEVNOQ01_clean_sbu_1, # of connection points: 6
#     Node 11, Type 0, BuildingBlock: LEVNOQ01_clean_sbu_1, # of connection points: 6
#     Node 12, Type 0, BuildingBlock: LEVNOQ01_clean_sbu_1, # of connection points: 6
#     Node 13, Type 0, BuildingBlock: LEVNOQ01_clean_sbu_1, # of connection points: 6
#     Node 14, Type 0, BuildingBlock: LEVNOQ01_clean_sbu_1, # of connection points: 6
#     Node 15, Type 0, BuildingBlock: LEVNOQ01_clean_sbu_1, # of connection points: 6
#     Edge 16, Type (0, 0), BuildingBlock: ZUJKAS_clean_linker_0, # of connection points: 2
#     Edge 17, Type (0, 0), BuildingBlock: ZUJKAS_clean_linker_0, # of connection points: 2
#     Edge 18, Type (0, 0), BuildingBlock: ZUJKAS_clean_linker_0, # of connection points: 2
#     Edge 19, Type (0, 0), BuildingBlock: ZUJKAS_clean_linker_0, # of connection points: 2
#     Edge 20, Type (0, 0), BuildingBlock: ZUJKAS_clean_linker_0, # of connection points: 2
#     Edge 21, Type (0, 0), BuildingBlock: ZUJKAS_clean_linker_0, # of connection points: 2
#     Edge 22, Type (0, 0), BuildingBlock: ZUJKAS_clean_linker_0, # of connection points: 2
#     Edge 23, Type (0, 0), BuildingBlock: ZUJKAS_clean_linker_0, # of connection points: 2
#     Edge 24, Type (0, 0), BuildingBlock: ZUJKAS_clean_linker_0, # of connection points: 2
#     Edge 25, Type (0, 0), BuildingBlock: ZUJKAS_clean_linker_0, # of connection points: 2
#     Edge 26, Type (0, 0), BuildingBlock: ZUJKAS_clean_linker_0, # of connection points: 2
#     Edge 27, Type (0, 0), BuildingBlock: ZUJKAS_clean_linker_0, # of connection points: 2
#     Edge 28, Type (0, 0), BuildingBlock: ZUJKAS_clean_linker_0, # of connection points: 2
#     Edge 29, Type (0, 0), BuildingBlock: ZUJKAS_clean_linker_0, # of connection points: 2
#     Edge 30, Type (0, 0), BuildingBlock: ZUJKAS_clean_linker_0, # of connection points: 2
#     Edge 31, Type (0, 0), BuildingBlock: ZUJKAS_clean_linker_0, # of connection points: 2
#     Edge 32, Type (0, 0), BuildingBlock: ZUJKAS_clean_linker_0, # of connection points: 2
#     Edge 33, Type (0, 0), BuildingBlock: ZUJKAS_clean_linker_0, # of connection points: 2
#     Edge 34, Type (0, 0), BuildingBlock: ZUJKAS_clean_linker_0, # of connection points: 2
#     Edge 35, Type (0, 0), BuildingBlock: ZUJKAS_clean_linker_0, # of connection points: 2
#     Edge 36, Type (0, 0), BuildingBlock: ZUJKAS_clean_linker_0, # of connection points: 2
#     Edge 37, Type (0, 0), BuildingBlock: ZUJKAS_clean_linker_0, # of connection points: 2
#     Edge 38, Type (0, 0), BuildingBlock: ZUJKAS_clean_linker_0, # of connection points: 2
#     Edge 39, Type (0, 0), BuildingBlock: ZUJKAS_clean_linker_0, # of connection points: 2
#     Edge 40, Type (0, 0), BuildingBlock: ZUJKAS_clean_linker_0, # of connection points: 2
#     Edge 41, Type (0, 0), BuildingBlock: ZUJKAS_clean_linker_0, # of connection points: 2
#     Edge 42, Type (0, 0), BuildingBlock: ZUJKAS_clean_linker_0, # of connection points: 2
#     Edge 43, Type (0, 0), BuildingBlock: ZUJKAS_clean_linker_0, # of connection points: 2
#     Edge 44, Type (0, 0), BuildingBlock: ZUJKAS_clean_linker_0, # of connection points: 2
#     Edge 45, Type (0, 0), BuildingBlock: ZUJKAS_clean_linker_0, # of connection points: 2
#     Edge 46, Type (0, 0), BuildingBlock: ZUJKAS_clean_linker_0, # of connection points: 2
#     Edge 47, Type (0, 0), BuildingBlock: ZUJKAS_clean_linker_0, # of connection points: 2
#     Edge 48, Type (0, 0), BuildingBlock: ZUJKAS_clean_linker_0, # of connection points: 2
#     Edge 49, Type (0, 0), BuildingBlock: ZUJKAS_clean_linker_0, # of connection points: 2
#     Edge 50, Type (0, 0), BuildingBlock: ZUJKAS_clean_linker_0, # of connection points: 2
#     Edge 51, Type (0, 0), BuildingBlock: ZUJKAS_clean_linker_0, # of connection points: 2
#     Edge 52, Type (0, 0), BuildingBlock: ZUJKAS_clean_linker_0, # of connection points: 2
#     Edge 53, Type (0, 0), BuildingBlock: ZUJKAS_clean_linker_0, # of connection points: 2
#     Edge 54, Type (0, 0), BuildingBlock: ZUJKAS_clean_linker_0, # of connection points: 2
#     Edge 55, Type (0, 0), BuildingBlock: ZUJKAS_clean_linker_0, # of connection points: 2
#     Edge 56, Type (0, 0), BuildingBlock: ZUJKAS_clean_linker_0, # of connection points: 2
#     Edge 57, Type (0, 0), BuildingBlock: ZUJKAS_clean_linker_0, # of connection points: 2
#     Edge 58, Type (0, 0), BuildingBlock: ZUJKAS_clean_linker_0, # of connection points: 2
#     Edge 59, Type (0, 0), BuildingBlock: ZUJKAS_clean_linker_0, # of connection points: 2
#     Edge 60, Type (0, 0), BuildingBlock: ZUJKAS_clean_linker_0, # of connection points: 2
#     Edge 61, Type (0, 0), BuildingBlock: ZUJKAS_clean_linker_0, # of connection points: 2
#     Edge 62, Type (0, 0), BuildingBlock: ZUJKAS_clean_linker_0, # of connection points: 2
#     Edge 63, Type (0, 0), BuildingBlock: ZUJKAS_clean_linker_0, # of connection points: 2
# Relax obj value: 0.075
# Max RMSD: 0.118
# Mean RMSD: 0.118
data_MOF--net-wiv--node1-LEVNOQ01_clean_sbu_1--edge1-ZUJKAS_clean_linker_0
_symmetry_space_group_name_H-M    P1
_symmetry_Int_Tables_number       1
_symmetry_cell_setting            triclinic
loop_
_symmetry_equiv_pos_as_xyz
'x, y, z'
_cell_length_a     77.556353
_cell_length_b     77.469179
_cell_length_c     19.890472
_cell_angle_alpha  90.020225
_cell_angle_beta   90.007235
_cell_angle_gamma 89.930032
loop_
_atom_site_label
_atom_site_type_symbol
_atom_site_fract_x
_atom_site_fract_y
_atom_site_fract_z
_atom_type_partial_charge
O0 O 0.35516 0.13948 0.26536 0.0
Mg1 Mg 0.37005 0.15294 0.19722 0.0
O2 O 0.36018 0.11623 0.20679 0.0
Mg3 Mg 0.3675 0.12004 0.09775 0.0
O4 O 0.36828 0.14954 0.09365 0.0
O5 O 0.3484 0.16323 0.14757 0.0
O6 O 0.37536 0.12127 -0.00934 0.0
O7 O 0.33767 0.12257 0.06169 0.0
Mg8 Mg 0.34845 0.08451 0.04168 0.0
O9 O 0.36945 0.09064 0.09966 0.0
O10 O 0.3587 0.09921 0.96564 0.0
O11 O 0.3254 0.09741 0.03847 0.0
O12 O 0.34584 0.08341 0.14866 0.0
C13 C 0.40393 0.12999 0.17343 0.0
C14 C 0.35514 0.12334 0.26026 0.0
C15 C 0.35601 0.16061 0.09196 0.0
C16 C 0.36836 0.11201 0.95183 0.0
C17 C 0.32445 0.11359 0.04439 0.0
C18 C 0.3622 0.08246 0.14755 0.0
O19 O 0.39656 0.14307 0.20047 0.0
O20 O 0.39585 0.11985 0.1336 0.0
O21 O 0.14025 0.64097 0.71476 0.0
Mg22 Mg 0.14728 0.61844 0.76713 0.0
O23 O 0.11541 0.63698 0.76406 0.0
Mg24 Mg 0.11909 0.62812 0.87323 0.0
O25 O 0.14765 0.62579 0.86479 0.0
O26 O 0.17108 0.61743 0.8085 0.0
O27 O 0.12049 0.62031 0.9801 0.0
O28 O 0.12571 0.65716 0.91534 0.0
Mg29 Mg 0.09075 0.65286 0.91673 0.0
O30 O 0.08967 0.62801 0.87963 0.0
O31 O 0.10392 0.6428 0.00199 0.0
O32 O 0.10504 0.67399 0.88288 0.0
O33 O 0.08378 0.64908 0.81394 0.0
C34 C 0.12266 0.58926 0.79552 0.0
C35 C 0.12408 0.64266 0.71473 0.0
C36 C 0.16413 0.62457 0.86059 0.0
C37 C 0.11387 0.6302 0.01797 0.0
C38 C 0.1197 0.67247 0.90849 0.0
C39 C 0.08121 0.63342 0.82902 0.0
O40 O 0.13438 0.59483 0.75682 0.0
O41 O 0.11579 0.59889 0.84061 0.0
O42 O 0.6241 0.85863 0.26548 0.0
Mg43 Mg 0.61864 0.84199 0.18805 0.0
O44 O 0.63927 0.87712 0.20526 0.0
Mg45 Mg 0.62812 0.87512 0.09914 0.0
O46 O 0.62756 0.84629 0.0914 0.0
O47 O 0.64379 0.83333 0.16376 0.0
O48 O 0.61863 0.87408 -0.00677 0.0
O49 O 0.65763 0.87279 0.05869 0.0
Mg50 Mg 0.64437 0.9108 0.03545 0.0
O51 O 0.62592 0.90453 0.10569 0.0
O52 O 0.63163 0.89764 0.9604 0.0
O53 O 0.66706 0.89784 0.01966 0.0
O54 O 0.65146 0.91048 0.13995 0.0
C55 C 0.58825 0.8641 0.15627 0.0
C56 C 0.63457 0.87097 0.26118 0.0
C57 C 0.63966 0.83545 0.10232 0.0
C58 C 0.62261 0.88413 0.95149 0.0
C59 C 0.66963 0.88211 0.03283 0.0
C60 C 0.63535 0.91241 0.14835 0.0
O61 O 0.5929 0.84853 0.16555 0.0
O62 O 0.59916 0.87566 0.1383 0.0
O63 O 0.86706 0.37396 0.71286 0.0
Mg64 Mg 0.8466 0.3768 0.78037 0.0
O65 O 0.87656 0.352 0.77074 0.0
Mg66 Mg 0.87535 0.36574 0.87464 0.0
O67 O 0.84725 0.36819 0.87879 0.0
O68 O 0.8363 0.35204 0.80117 0.0
O69 O 0.87512 0.3775 0.97978 0.0
O70 O 0.86951 0.33818 0.92315 0.0
Mg71 Mg 0.9015 0.34585 0.93963 0.0
O72 O 0.90459 0.36419 0.86836 0.0
O73 O 0.88967 0.35612 0.02209 0.0
O74 O 0.89195 0.32307 0.89455 0.0
O75 O 0.92658 0.35117 0.92154 0.0
C76 C 0.86627 0.406 0.81909 0.0
C77 C 0.87586 0.36039 0.71618 0.0
C78 C 0.83649 0.3565 0.86298 0.0
C79 C 0.88045 0.36966 0.02603 0.0
C80 C 0.87655 0.32347 0.91422 0.0
C81 C 0.9209 0.36145 0.87552 0.0
O82 O 0.85051 0.40167 0.81537 0.0
O83 O 0.87801 0.39455 0.83002 0.0
O84 O 0.35241 0.35605 0.96146 0.0
Mg85 Mg 0.37309 0.34557 0.0115 0.0
O86 O 0.35707 0.38007 0.01058 0.0
Mg87 Mg 0.36539 0.37493 0.1195 0.0
O88 O 0.36609 0.34599 0.10945 0.0
O89 O 0.37098 0.32162 0.05359 0.0
O90 O 0.37355 0.37236 0.22843 0.0
O91 O 0.33692 0.36869 0.16008 0.0
Mg92 Mg 0.34259 0.4028 0.1822 0.0
O93 O 0.36514 0.40448 0.1286 0.0
O94 O 0.3536 0.3904 0.26997 0.0
O95 O 0.32146 0.39083 0.13355 0.0
O96 O 0.34548 0.42502 0.12813 0.0
C97 C 0.40385 0.36933 0.04146 0.0
C98 C 0.35174 0.37234 0.96431 0.0
C99 C 0.36601 0.32938 0.10765 0.0
C100 C 0.36574 0.37936 0.27789 0.0
C101 C 0.32206 0.37547 0.15288 0.0
C102 C 0.35896 0.41828 0.10132 0.0
O103 O 0.3975 0.35713 0.00673 0.0
O104 O 0.39476 0.37745 0.08531 0.0
O105 O 0.35378 0.63903 0.01576 0.0
Mg106 Mg 0.34171 0.6246 0.94746 0.0
O107 O 0.37673 0.63492 0.96121 0.0
Mg108 Mg 0.37469 0.62774 0.85032 0.0
O109 O 0.34576 0.6249 0.84333 0.0
O110 O 0.33635 0.64768 0.89141 0.0
O111 O 0.37596 0.62069 0.74325 0.0
O112 O 0.36985 0.65687 0.81066 0.0
Mg113 Mg 0.40625 0.65194 0.81268 0.0
O114 O 0.40403 0.62792 0.85677 0.0
O115 O 0.39495 0.64142 0.71896 0.0
O116 O 0.39163 0.67403 0.82998 0.0
O117 O 0.40976 0.64967 0.91922 0.0
C118 C 0.36623 0.59134 0.9246 0.0
C119 C 0.36989 0.63945 0.00996 0.0
C120 C 0.33565 0.6378 0.8407 0.0
C121 C 0.38438 0.62956 0.70079 0.0
C122 C 0.3763 0.67207 0.81147 0.0
C123 C 0.41131 0.63357 0.90986 0.0
O124 O 0.35352 0.59872 0.95403 0.0
O125 O 0.37584 0.59933 0.88274 0.0
O126 O 0.67025 0.60667 0.12457 0.0
Mg127 Mg 0.64566 0.60136 0.16343 0.0
O128 O 0.65756 0.62912 0.16649 0.0
Mg129 Mg 0.62864 0.62311 0.11829 0.0
O130 O 0.62767 0.59242 0.10099 0.0
O131 O 0.64416 0.57571 0.16787 0.0
O132 O 0.60007 0.62025 0.07483 0.0
O133 O 0.6413 0.62233 0.01445 0.0
Mg134 Mg 0.61333 0.6534 0.0352 0.0
O135 O 0.62613 0.65186 0.12567 0.0
O136 O 0.58888 0.64667 0.06669 0.0
O137 O 0.62079 0.63632 0.96598 0.0
O138 O 0.63165 0.67195 0.05064 0.0
C139 C 0.62596 0.6189 0.27139 0.0
C140 C 0.67155 0.62076 0.1556 0.0
C141 C 0.63317 0.57732 0.11968 0.0
C142 C 0.58709 0.63039 0.06717 0.0
C143 C 0.63328 0.62588 0.96672 0.0
C144 C 0.63517 0.66491 0.10762 0.0
O145 O 0.63978 0.61084 0.25986 0.0
O146 O 0.61624 0.62325 0.22313 0.0
O147 O 0.63724 0.34836 -0.01282 0.0
Mg148 Mg 0.64327 0.3724 0.94997 0.0
O149 O 0.61332 0.36038 0.96375 0.0
Mg150 Mg 0.61875 0.36719 0.85142 0.0
O151 O 0.648 0.36647 0.85281 0.0
O152 O 0.66795 0.37505 0.92844 0.0
O153 O 0.62251 0.37524 0.74417 0.0
O154 O 0.62133 0.33591 0.822 0.0
Mg155 Mg 0.58727 0.34902 0.78575 0.0
O156 O 0.58977 0.37052 0.84484 0.0
O157 O 0.60715 0.35286 0.71201 0.0
O158 O 0.59565 0.32483 0.80107 0.0
O159 O 0.584 0.34623 0.89148 0.0
C160 C 0.62362 0.4047 0.92755 0.0
C161 C 0.62186 0.35188 0.00095 0.0
C162 C 0.66382 0.36884 0.87037 0.0
C163 C 0.61737 0.36512 0.69872 0.0
C164 C 0.61165 0.32277 0.80844 0.0
C165 C 0.5817 0.36244 0.89077 0.0
O166 O 0.6327 0.39712 0.97148 0.0
O167 O 0.61792 0.39645 0.87687 0.0
O168 O 0.85097 0.64138 0.7413 0.0
Mg169 Mg 0.87371 0.64326 0.68548 0.0
O170 O 0.86056 0.61596 0.71442 0.0
Mg171 Mg 0.86748 0.6191 0.59964 0.0
O172 O 0.8659 0.64843 0.59059 0.0
O173 O 0.88114 0.66661 0.65561 0.0
O174 O 0.8737 0.62124 0.4903 0.0
O175 O 0.83686 0.62084 0.57204 0.0
Mg176 Mg 0.85137 0.58373 0.53477 0.0
O177 O 0.87043 0.59001 0.60278 0.0
O178 O 0.86247 0.59692 0.45092 0.0
O179 O 0.82857 0.5969 0.52031 0.0
O180 O 0.84489 0.58488 0.63965 0.0
C181 C 0.905 0.62363 0.67463 0.0
C182 C 0.85298 0.62573 0.75658 0.0
C183 C 0.87136 0.66374 0.60442 0.0
C184 C 0.86984 0.61138 0.44193 0.0
C185 C 0.82524 0.61191 0.54156 0.0
C186 C 0.861 0.58228 0.64566 0.0
O187 O 0.89646 0.63146 0.719 0.0
O188 O 0.89747 0.61885 0.62082 0.0
O189 O 0.63631 0.14475 0.21466 0.0
Mg190 Mg 0.6468 0.12181 0.25512 0.0
O191 O 0.61274 0.13588 0.26229 0.0
Mg192 Mg 0.61963 0.12882 0.36987 0.0
O193 O 0.64815 0.12809 0.35339 0.0
O194 O 0.67135 0.12316 0.29032 0.0
O195 O 0.62448 0.12189 0.48033 0.0
O196 O 0.62456 0.15838 0.40269 0.0
Mg197 Mg 0.59108 0.14962 0.44261 0.0
O198 O 0.5904 0.12984 0.37824 0.0
O199 O 0.60695 0.14184 0.52354 0.0
O200 O 0.59972 0.17019 0.38206 0.0
O201 O 0.56673 0.13995 0.42693 0.0
C202 C 0.6249 0.09009 0.29577 0.0
C203 C 0.62014 0.14346 0.21392 0.0
C204 C 0.66459 0.12799 0.34659 0.0
C205 C 0.61878 0.13059 0.53005 0.0
C206 C 0.61529 0.172 0.39869 0.0
C207 C 0.57381 0.13026 0.38195 0.0
O208 O 0.63525 0.09695 0.25392 0.0
O209 O 0.61762 0.0991 0.34198 0.0
O210 O 0.14334 0.35466 0.74058 0.0
Mg211 Mg 0.11785 0.34712 0.71569 0.0
O212 O 0.13627 0.38066 0.71418 0.0
Mg213 Mg 0.12877 0.37516 0.60375 0.0
O214 O 0.12379 0.3468 0.61756 0.0
O215 O 0.11512 0.32339 0.67146 0.0
O216 O 0.12061 0.37204 0.49441 0.0
O217 O 0.15759 0.36729 0.57039 0.0
Mg218 Mg 0.15286 0.40028 0.53 0.0
O219 O 0.13276 0.40376 0.59172 0.0
O220 O 0.143 0.38582 0.44926 0.0
O221 O 0.17303 0.39029 0.58909 0.0
O222 O 0.1461 0.42566 0.54166 0.0
C223 C 0.09003 0.37414 0.67861 0.0
C224 C 0.14202 0.3702 0.75762 0.0
C225 C 0.12212 0.33035 0.6193 0.0
C226 C 0.1293 0.37694 0.44366 0.0
C227 C 0.17242 0.37446 0.57502 0.0
C228 C 0.13503 0.42011 0.58489 0.0
O229 O 0.09526 0.36276 0.71998 0.0
O230 O 0.0998 0.3802 0.63231 0.0
O231 O 0.35293 0.85449 0.21995 0.0
Mg232 Mg 0.34595 0.87725 0.27187 0.0
O233 O 0.37855 0.86052 0.25955 0.0
Mg234 Mg 0.3751 0.86703 0.37048 0.0
O235 O 0.34657 0.87025 0.36894 0.0
O236 O 0.32288 0.88029 0.32035 0.0
O237 O 0.37086 0.87337 0.48164 0.0
O238 O 0.37032 0.83744 0.39549 0.0
Mg239 Mg 0.40339 0.85516 0.46835 0.0
O240 O 0.40443 0.86336 0.37147 0.0
O241 O 0.39563 0.8751 0.53394 0.0
O242 O 0.39046 0.83109 0.47122 0.0
O243 O 0.42772 0.85539 0.42992 0.0
C244 C 0.3718 0.90582 0.29659 0.0
C245 C 0.36915 0.85404 0.21388 0.0
C246 C 0.33011 0.87189 0.36884 0.0
C247 C 0.37951 0.87742 0.53331 0.0
C248 C 0.37755 0.82676 0.43588 0.0
C249 C 0.42094 0.86105 0.3749 0.0
O250 O 0.36048 0.89937 0.2583 0.0
O251 O 0.37853 0.89694 0.34455 0.0
O252 O 0.87236 0.85824 0.45876 0.0
Mg253 Mg 0.87651 0.84239 0.5392 0.0
O254 O 0.85923 0.87928 0.51462 0.0
Mg255 Mg 0.86642 0.87653 0.6265 0.0
O256 O 0.86784 0.84757 0.63487 0.0
O257 O 0.84903 0.84185 0.55906 0.0
O258 O 0.87332 0.87532 0.73539 0.0
O259 O 0.83631 0.87342 0.65456 0.0
Mg260 Mg 0.85018 0.91082 0.70242 0.0
O261 O 0.86736 0.90557 0.62524 0.0
O262 O 0.86609 0.90045 0.78156 0.0
O263 O 0.82835 0.89603 0.71539 0.0
O264 O 0.84352 0.91825 0.60206 0.0
C265 C 0.90642 0.86728 0.57498 0.0
C266 C 0.86407 0.87224 0.46013 0.0
C267 C 0.85533 0.83814 0.61628 0.0
C268 C 0.87281 0.88546 0.78526 0.0
C269 C 0.82492 0.88166 0.68872 0.0
C270 C 0.85899 0.91519 0.58456 0.0
O271 O 0.90198 0.85214 0.55742 0.0
O272 O 0.89556 0.8782 0.59794 0.0
O273 O 0.85561 0.12961 0.5211 0.0
Mg274 Mg 0.84129 0.11998 0.44273 0.0
O275 O 0.87817 0.13593 0.45812 0.0
Mg276 Mg 0.87563 0.1284 0.3482 0.0
O277 O 0.84666 0.12491 0.3421 0.0
O278 O 0.83585 0.14504 0.40308 0.0
O279 O 0.87489 0.12078 0.23763 0.0
O280 O 0.87092 0.15751 0.3139 0.0
Mg281 Mg 0.9075 0.14624 0.27414 0.0
O282 O 0.90478 0.13148 0.35594 0.0
O283 O 0.89817 0.13249 0.19096 0.0
O284 O 0.896 0.17015 0.29366 0.0
O285 O 0.93033 0.14084 0.31928 0.0
C286 C 0.86842 0.08998 0.41513 0.0
C287 C 0.87067 0.13548 0.51455 0.0
C288 C 0.83635 0.1377 0.34598 0.0
C289 C 0.88429 0.12388 0.18675 0.0
C290 C 0.87981 0.171 0.30027 0.0
C291 C 0.92129 0.13277 0.36373 0.0
O292 O 0.85407 0.09529 0.43864 0.0
O293 O 0.87842 0.09972 0.3807 0.0
O294 O 0.17142 0.11175 0.61531 0.0
Mg295 Mg 0.14865 0.09992 0.65476 0.0
O296 O 0.15567 0.12853 0.67564 0.0
Mg297 Mg 0.12852 0.12174 0.62049 0.0
O298 O 0.1285 0.09192 0.59835 0.0
O299 O 0.15023 0.07489 0.63356 0.0
O300 O 0.09945 0.11918 0.57703 0.0
O301 O 0.14245 0.12313 0.51708 0.0
Mg302 Mg 0.11607 0.15007 0.53593 0.0
O303 O 0.12571 0.14975 0.63334 0.0
O304 O 0.09138 0.1466 0.57231 0.0
O305 O 0.11832 0.12953 0.46794 0.0
O306 O 0.14044 0.16146 0.55277 0.0
C307 C 0.12638 0.11232 0.77145 0.0
C308 C 0.17067 0.12389 0.65711 0.0
C309 C 0.13572 0.07689 0.60293 0.0
C310 C 0.08749 0.13069 0.57275 0.0
C311 C 0.13274 0.12225 0.46615 0.0
C312 C 0.1367 0.16105 0.61535 0.0
O313 O 0.14052 0.10478 0.7574 0.0
O314 O 0.1172 0.11889 0.72508 0.0
O315 O 0.1359 0.8509 0.49399 0.0
Mg316 Mg 0.13727 0.87245 0.43061 0.0
O317 O 0.11091 0.86014 0.46121 0.0
Mg318 Mg 0.11719 0.86625 0.34849 0.0
O319 O 0.14763 0.86556 0.34147 0.0
O320 O 0.16154 0.88001 0.42276 0.0
O321 O 0.1204 0.87173 0.23811 0.0
O322 O 0.12012 0.83628 0.32963 0.0
Mg323 Mg 0.08617 0.8526 0.2549 0.0
O324 O 0.08828 0.86667 0.3423 0.0
O325 O 0.09413 0.87364 0.1948 0.0
O326 O 0.10237 0.83085 0.24492 0.0
O327 O 0.06869 0.84682 0.33185 0.0
C328 C 0.11984 0.90459 0.41892 0.0
C329 C 0.12003 0.85255 0.50517 0.0
C330 C 0.16172 0.87143 0.36749 0.0
C331 C 0.11026 0.87636 0.19135 0.0
C332 C 0.11429 0.82617 0.28428 0.0
C333 C 0.07584 0.85824 0.36911 0.0
O334 O 0.12726 0.89601 0.46409 0.0
O335 O 0.11547 0.89681 0.36494 0.0
H336 H 0.39226 0.92823 0.37174 0.0
H337 H 0.39365 0.95996 0.35901 0.0
H338 H 0.35898 0.95712 0.18993 0.0
H339 H 0.35775 0.92622 0.20042 0.0
H340 H 0.40261 0.97867 0.22799 0.0
H341 H 0.33585 0.99298 0.31626 0.0
H342 H 0.34786 0.97447 0.34609 0.0
H343 H 0.33854 0.97436 0.26347 0.0
C344 C 0.38511 0.93441 0.33163 0.0
C345 C 0.37488 0.92459 0.28754 0.0
C346 C 0.38577 0.95247 0.32481 0.0
C347 C 0.37599 0.96078 0.2747 0.0
C348 C 0.36622 0.95097 0.22997 0.0
H349 H 0.35312 0.05405 0.08017 0.0
H350 H 0.35892 0.0242 0.11136 0.0
C351 C 0.36572 0.93318 0.23598 0.0
C352 C 0.3765 0.97961 0.26462 0.0
H353 H 0.34991 0.01397 0.25502 0.0
C354 C 0.39137 0.98676 0.23567 0.0
C355 C 0.36147 0.98982 0.27216 0.0
C356 C 0.34501 0.9826 0.30149 0.0
C357 C 0.39113 0.00294 0.21222 0.0
C358 C 0.37619 0.01308 0.22026 0.0
C359 C 0.3614 0.00607 0.2501 0.0
C360 C 0.37527 0.03088 0.19559 0.0
C361 C 0.40669 0.00979 0.17532 0.0
C362 C 0.38297 0.04438 0.23196 0.0
C363 C 0.37958 0.06153 0.21453 0.0
C364 C 0.36855 0.06508 0.16057 0.0
C365 C 0.36171 0.05151 0.12201 0.0
C366 C 0.36497 0.03451 0.13962 0.0
H367 H 0.41687 -0.00018 0.16892 0.0
H368 H 0.40279 0.01459 0.12493 0.0
H369 H 0.4122 0.02087 0.2034 0.0
H370 H 0.39086 0.04162 0.27562 0.0
H371 H 0.38483 0.07191 0.24475 0.0
H372 H 0.92465 0.64611 0.74385 0.0
H373 H 0.95556 0.6452 0.76315 0.0
H374 H 0.95937 0.59883 0.64381 0.0
H375 H 0.92802 0.5999 0.62253 0.0
H376 H 0.97099 0.61728 0.8294 0.0
H377 H -0.00118 0.6303 0.57793 0.0
H378 H 0.97903 0.63801 0.60143 0.0
H379 H 0.9821 0.61572 0.58063 0.0
C380 C 0.93201 0.6357 0.72138 0.0
C381 C 0.9239 0.62286 0.68262 0.0
C382 C 0.94969 0.63531 0.73212 0.0
C383 C 0.95967 0.62197 0.70501 0.0
C384 C 0.95182 0.60934 0.66452 0.0
H385 H 0.06836 0.60362 0.77291 0.0
H386 H 0.0376 0.59814 0.74781 0.0
C387 C 0.93398 0.60986 0.65282 0.0
C388 C 0.97792 0.62068 0.72514 0.0
H389 H 0.01778 0.6242 0.66743 0.0
C390 C 0.98155 0.61856 0.79397 0.0
C391 C 0.99152 0.6229 0.67872 0.0
C392 C 0.98815 0.627 0.60556 0.0
C393 C -0.00284 0.61861 0.81788 0.0
C394 C 0.01076 0.62023 0.77112 0.0
C395 C 0.0072 0.62229 0.70232 0.0
C396 C 0.02869 0.62194 0.7934 0.0
C397 C 0.00043 0.61733 0.89282 0.0
C398 C 0.03346 0.63686 0.82812 0.0
C399 C 0.05061 0.63978 0.84303 0.0
C400 C 0.06333 0.62806 0.82187 0.0
C401 C 0.05864 0.61273 0.78946 0.0
C402 C 0.04123 0.60969 0.77504 0.0
H403 H 0.99009 0.61322 0.92086 0.0
H404 H 0.01106 0.6081 0.90336 0.0
H405 H 0.00437 0.63014 0.91254 0.0
H406 H 0.024 0.64657 0.84142 0.0
H407 H 0.05405 0.65165 0.86864 0.0
H408 H 0.60927 0.92329 0.23195 0.0
H409 H 0.60262 0.95352 0.26222 0.0
H410 H 0.64371 0.971 0.13274 0.0
H411 H 0.65002 0.94139 0.10163 0.0
H412 H 0.62757 0.97636 0.32277 0.0
H413 H 0.60471 0.00211 0.07739 0.0
H414 H 0.60355 0.98026 0.09705 0.0
H415 H 0.62391 0.98966 0.0748 0.0
C416 C 0.61664 0.93368 0.20968 0.0
C417 C 0.63029 0.93011 0.16563 0.0
C418 C 0.61287 0.95084 0.22671 0.0
C419 C 0.62254 0.96444 0.19892 0.0
C420 C 0.63584 0.96077 0.15357 0.0
H421 H 0.64619 0.06782 0.23145 0.0
H422 H 0.64401 0.03678 0.22129 0.0
C423 C 0.63959 0.9438 0.13672 0.0
C424 C 0.61995 0.98243 0.22127 0.0
H425 H 0.61166 0.02216 0.16331 0.0
C426 C 0.62374 0.98657 0.28852 0.0
C427 C 0.6155 0.99568 0.17549 0.0
C428 C 0.61167 0.99199 0.10221 0.0
C429 C 0.6234 0.00288 0.31095 0.0
C430 C 0.61893 0.01612 0.26524 0.0
C431 C 0.61471 0.01189 0.19844 0.0
C432 C 0.62098 0.03463 0.28173 0.0
C433 C 0.62923 0.00693 0.3817 0.0
C434 C 0.60886 0.04376 0.32066 0.0
C435 C 0.61002 0.06185 0.32674 0.0
C436 C 0.62319 0.07094 0.29317 0.0
C437 C 0.63558 0.06145 0.25668 0.0
C438 C 0.6345 0.0436 0.25124 0.0
H439 H 0.63313 0.99603 0.4103 0.0
H440 H 0.64055 0.01569 0.38014 0.0
H441 H 0.61878 0.01376 0.4091 0.0
H442 H 0.59827 0.037 0.34439 0.0
H443 H 0.60043 0.06872 0.35597 0.0
H444 H 0.93155 0.34402 0.76738 0.0
H445 H 0.95961 0.34819 0.71357 0.0
H446 H 0.96543 0.39667 0.81841 0.0
H447 H 0.93762 0.39204 0.87456 0.0
H448 H 0.97755 0.37187 0.64024 0.0
H449 H 0.00256 0.36746 0.90026 0.0
H450 H 0.98279 0.35961 0.87736 0.0
H451 H 0.9863 0.38226 0.89025 0.0
C452 C 0.93861 0.35585 0.7767 0.0
C453 C 0.93293 0.36761 0.82547 0.0
C454 C 0.95461 0.35816 0.74646 0.0
C455 C 0.96482 0.37233 0.76467 0.0
C456 C 0.95791 0.38533 0.806 0.0
H457 H 0.06996 0.40158 0.71912 0.0
H458 H 0.03833 0.40122 0.73226 0.0
C459 C 0.942 0.38288 0.83706 0.0
C460 C 0.98319 0.3726 0.74618 0.0
H461 H 0.02227 0.37401 0.81337 0.0
C462 C 0.98766 0.37238 0.67785 0.0
C463 C 0.99625 0.37248 0.79597 0.0
C464 C 0.99218 0.37027 0.87006 0.0
C465 C 0.00362 0.37309 0.65754 0.0
C466 C 0.01665 0.37433 0.7072 0.0
C467 C 0.01216 0.37376 0.77566 0.0
C468 C 0.03514 0.37568 0.68972 0.0
C469 C 0.0078 0.37286 0.58333 0.0
C470 C 0.04365 0.36161 0.66041 0.0
C471 C 0.06152 0.3619 0.65258 0.0
C472 C 0.07121 0.37621 0.67409 0.0
C473 C 0.06269 0.39059 0.70104 0.0
C474 C 0.04471 0.39031 0.70889 0.0
H475 H 0.99743 0.37417 0.55155 0.0
H476 H 0.01688 0.38346 0.5708 0.0
H477 H 0.01417 0.36048 0.57022 0.0
H478 H 0.0366 0.35006 0.64677 0.0
H479 H 0.06792 0.35054 0.63278 0.0
H480 H 0.35853 0.42476 0.97285 0.0
H481 H 0.36329 0.45396 0.92815 0.0
H482 H 0.38432 0.46932 0.11416 0.0
H483 H 0.38124 0.44007 0.15547 0.0
H484 H 0.34633 0.48155 0.9793 0.0
H485 H 0.41652 0.49421 -0.00278 0.0
H486 H 0.40782 0.47262 -0.00556 0.0
H487 H 0.40727 0.48495 0.07122 0.0
C488 C 0.36543 0.4341 -0.00277 0.0
C489 C 0.36981 0.43026 0.06414 0.0
C490 C 0.36768 0.45088 0.97846 0.0
C491 C 0.37419 0.46388 0.01475 0.0
C492 C 0.37985 0.4595 0.07964 0.0
H493 H 0.37254 0.575 0.03748 0.0
H494 H 0.37435 0.5437 0.05716 0.0
C495 C 0.37826 0.44267 0.10316 0.0
C496 C 0.37365 0.4823 -0.0058 0.0
H497 H 0.39821 0.51881 -0.01231 0.0
C498 C 0.35773 0.48963 0.98118 0.0
C499 C 0.38845 0.49292 -0.00201 0.0
C500 C 0.40599 0.48575 0.01577 0.0
C501 C 0.35625 0.50737 0.96696 0.0
C502 C 0.37106 0.51795 0.97154 0.0
C503 C 0.38692 0.51061 -0.01584 0.0
C504 C 0.37037 0.5368 0.95886 0.0
C505 C 0.33882 0.51485 0.94966 0.0
C506 C 0.3682 0.54322 0.89335 0.0
C507 C 0.36763 0.56106 0.88188 0.0
C508 C 0.36892 0.57269 0.93591 0.0
C509 C 0.37146 0.56624 -0.00481 0.0
C510 C 0.37241 0.54842 0.00644 0.0
H511 H 0.32829 0.50524 0.95512 0.0
H512 H 0.33599 0.5261 0.98254 0.0
H513 H 0.33892 0.51953 0.89693 0.0
H514 H 0.36689 0.53444 0.85125 0.0
H515 H 0.36561 0.56577 0.83119 0.0
H516 H 0.56458 0.61067 0.13945 0.0
H517 H 0.53395 0.60604 0.11172 0.0
H518 H 0.54137 0.63215 0.92812 0.0
H519 H 0.57174 0.63633 0.95496 0.0
H520 H 0.51179 0.63387 0.09055 0.0
H521 H 0.51215 0.59255 0.86736 0.0
H522 H 0.53005 0.59304 0.92552 0.0
H523 H 0.52707 0.61018 0.86565 0.0
C524 C 0.55971 0.61472 0.09088 0.0
C525 C 0.57033 0.6237 0.04596 0.0
C526 C 0.54228 0.61222 0.07528 0.0
C527 C 0.5355 0.61854 0.01442 0.0
C528 C 0.5464 0.62673 0.97433 0.0
H529 H 0.4389 0.64094 0.83731 0.0
H530 H 0.46892 0.63791 0.87127 0.0
C531 C 0.56371 0.6292 0.98985 0.0
C532 C 0.51673 0.61855 0.00199 0.0
H533 H 0.48631 0.60741 0.89222 0.0
C534 C 0.5061 0.62776 0.04675 0.0
C535 C 0.50952 0.6111 0.94942 0.0
C536 C 0.52025 0.60106 0.89942 0.0
C537 C 0.48846 0.62996 0.03377 0.0
C538 C 0.48131 0.62225 0.98169 0.0
C539 C 0.49189 0.61305 0.93718 0.0
C540 C 0.46305 0.62422 0.96339 0.0
C541 C 0.47783 0.64134 0.07962 0.0
C542 C 0.44994 0.61709 -0.00266 0.0
C543 C 0.43264 0.61898 0.98427 0.0
C544 C 0.42865 0.62751 0.92417 0.0
C545 C 0.44186 0.63393 0.88306 0.0
C546 C 0.45892 0.63245 0.90282 0.0
H547 H 0.48581 0.6478 0.11857 0.0
H548 H 0.47106 0.65137 0.04965 0.0
H549 H 0.46786 0.63351 0.10542 0.0
H550 H 0.45303 0.61032 0.04345 0.0
H551 H 0.42254 0.61431 0.011 0.0
H552 H 0.60201 0.56649 0.06868 0.0
H553 H 0.5966 0.53839 0.01362 0.0
H554 H 0.65107 0.5271 0.02013 0.0
H555 H 0.65637 0.55447 0.07669 0.0
H556 H 0.61464 0.51886 0.89848 0.0
H557 H 0.62636 0.49153 0.1485 0.0
H558 H 0.61831 0.51321 0.13641 0.0
H559 H 0.64053 0.50833 0.12028 0.0
C560 C 0.61273 0.55799 0.05749 0.0
C561 C 0.62947 0.56211 0.07888 0.0
C562 C 0.60969 0.54213 0.02582 0.0
C563 C 0.62344 0.53068 0.01446 0.0
C564 C 0.64031 0.5357 0.0297 0.0
H565 H 0.64941 0.42718 0.94889 0.0
H566 H 0.64754 0.45856 0.95915 0.0
C567 C 0.64328 0.55121 0.06246 0.0
C568 C 0.62037 0.51262 -0.00436 0.0
H569 H 0.62456 0.47193 0.05814 0.0
C570 C 0.61644 0.50853 0.9346 0.0
C571 C 0.62304 0.49936 0.04337 0.0
C572 C 0.62721 0.50322 0.11631 0.0
C573 C 0.61581 0.49124 0.91321 0.0
C574 C 0.61885 0.47801 0.96075 0.0
C575 C 0.6222 0.48219 0.02216 0.0
C576 C 0.62003 0.45965 0.94183 0.0
C577 C 0.61287 0.48721 0.83978 0.0
C578 C 0.60517 0.44999 0.92733 0.0
C579 C 0.60625 0.432 0.92079 0.0
C580 C 0.62211 0.42359 0.93037 0.0
C581 C 0.63699 0.4334 0.94266 0.0
C582 C 0.63598 0.45128 0.94782 0.0
H583 H 0.6117 0.49906 0.80867 0.0
H584 H 0.62371 0.47929 0.82017 0.0
H585 H 0.60091 0.4795 0.83403 0.0
H586 H 0.59272 0.45626 0.92361 0.0
H587 H 0.59466 0.42462 0.91094 0.0
H588 H 0.42284 0.35965 0.94031 0.0
H589 H 0.45362 0.36138 0.925 0.0
H590 H 0.45858 0.38908 0.1063 0.0
H591 H 0.42716 0.38657 0.12427 0.0
H592 H 0.47246 0.38926 0.90928 0.0
H593 H 0.49599 0.35168 0.12458 0.0
H594 H 0.4744 0.34949 0.09191 0.0
H595 H 0.48008 0.36807 0.14087 0.0
C596 C 0.43033 0.36611 0.97882 0.0
C597 C 0.42246 0.37292 0.0308 0.0
C598 C 0.44802 0.36707 0.96979 0.0
C599 C 0.45848 0.37514 0.01169 0.0
C600 C 0.45078 0.38245 0.06927 0.0
H601 H 0.57054 0.38508 0.98671 0.0
H602 H 0.54018 0.39037 0.01142 0.0
C603 C 0.43283 0.38129 0.07893 0.0
C604 C 0.4772 0.37633 -0.00234 0.0
H605 H 0.51677 0.3623 0.04947 0.0
C606 C 0.48217 0.38357 0.94171 0.0
C607 C 0.48975 0.36841 0.03922 0.0
C608 C 0.4849 0.35883 0.10263 0.0
C609 C 0.49926 0.38282 0.91941 0.0
C610 C 0.51181 0.37539 0.96188 0.0
C611 C 0.50704 0.36844 0.01834 0.0
C612 C 0.52983 0.37356 0.94029 0.0
C613 C 0.50369 0.38959 0.8501 0.0
C614 C 0.53379 0.36253 0.88672 0.0
C615 C 0.55084 0.35977 0.86889 0.0
C616 C 0.56415 0.36773 0.90525 0.0
C617 C 0.56032 0.37903 0.95803 0.0
C618 C 0.54311 0.38194 0.9756 0.0
H619 H 0.49308 0.39747 0.82837 0.0
H620 H 0.51561 0.39751 0.85183 0.0
H621 H 0.50607 0.37859 0.81554 0.0
H622 H 0.52373 0.35566 0.86006 0.0
H623 H 0.55369 0.3509 0.82819 0.0
H624 H 0.89627 0.42467 0.84405 0.0
H625 H 0.90098 0.45563 0.81935 0.0
H626 H 0.85064 0.45849 0.72802 0.0
H627 H 0.8457 0.42841 0.75304 0.0
H628 H 0.89756 0.47455 0.68684 0.0
H629 H 0.84833 0.49586 0.87372 0.0
H630 H 0.85951 0.47545 0.88126 0.0
H631 H 0.8423 0.47799 0.82157 0.0
C632 C 0.88626 0.43199 0.81888 0.0
C633 C 0.87044 0.42417 0.80226 0.0
C634 C 0.88895 0.44959 0.80479 0.0
C635 C 0.87591 0.45938 0.77366 0.0
C636 C 0.86063 0.45131 0.75396 0.0
H637 H 0.84189 0.5537 0.62458 0.0
H638 H 0.8492 0.5241 0.65123 0.0
C639 C 0.85787 0.43402 0.76845 0.0
C640 C 0.87766 0.47811 0.76124 0.0
H641 H 0.8569 0.51614 0.79147 0.0
C642 C 0.88906 0.4838 0.71091 0.0
C643 C 0.86613 0.48997 0.79159 0.0
C644 C 0.85343 0.48459 0.84535 0.0
C645 C 0.88863 0.50097 0.68785 0.0
C646 C 0.87691 0.51262 0.71768 0.0
C647 C 0.866 0.50709 0.76955 0.0
C648 C 0.8743 0.53023 0.69216 0.0
C649 C 0.89971 0.5063 0.62895 0.0
C650 C 0.88623 0.54343 0.70539 0.0
C651 C 0.88207 0.56059 0.69024 0.0
C652 C 0.86585 0.56455 0.66308 0.0
C653 C 0.85428 0.55114 0.64774 0.0
C654 C 0.85851 0.53416 0.6619 0.0
H655 H 0.90744 0.49539 0.60875 0.0
H656 H 0.89146 0.51151 0.58804 0.0
H657 H 0.90862 0.51676 0.64459 0.0
H658 H 0.89844 0.54051 0.72932 0.0
H659 H 0.89126 0.57074 0.70108 0.0
H660 H 0.56146 0.0983 0.34877 0.0
H661 H 0.53412 0.09401 0.28865 0.0
H662 H 0.53356 0.14804 0.23518 0.0
H663 H 0.56122 0.15186 0.29038 0.0
H664 H 0.50731 0.11061 0.34346 0.0
H665 H 0.50995 0.12994 0.07444 0.0
H666 H 0.5291 0.12404 0.12081 0.0
H667 H 0.51972 0.14516 0.1303 0.0
C668 C 0.55598 0.10888 0.32025 0.0
C669 C 0.56312 0.12541 0.32452 0.0
C670 C 0.54029 0.10654 0.28666 0.0
C671 C 0.53163 0.12074 0.25796 0.0
C672 C 0.53999 0.13678 0.25548 0.0
H673 H 0.42867 0.15415 0.19216 0.0
H674 H 0.45932 0.14977 0.21504 0.0
C675 C 0.55583 0.13898 0.28734 0.0
C676 C 0.51289 0.11966 0.24315 0.0
H677 H 0.48215 0.12938 0.12622 0.0
C678 C 0.50183 0.11432 0.29538 0.0
C679 C 0.50571 0.1251 0.18117 0.0
C680 C 0.51675 0.13127 0.12335 0.0
C681 C 0.48383 0.11444 0.28764 0.0
C682 C 0.4767 0.11982 0.22562 0.0
C683 C 0.48771 0.12501 0.17329 0.0
C684 C 0.45786 0.12191 0.21563 0.0
C685 C 0.47254 0.10958 0.3466 0.0
C686 C 0.44687 0.10763 0.20772 0.0
C687 C 0.4293 0.11011 0.19327 0.0
C688 C 0.42247 0.12692 0.1877 0.0
C689 C 0.43352 0.14108 0.19659 0.0
C690 C 0.45103 0.1386 0.20972 0.0
H691 H 0.48012 0.10724 0.39316 0.0
H692 H 0.463 0.11997 0.35657 0.0
H693 H 0.46523 0.09768 0.33436 0.0
H694 H 0.45195 0.09463 0.21144 0.0
H695 H 0.42104 0.09896 0.18704 0.0
H696 H 0.09262 0.57061 0.77868 0.0
H697 H 0.09075 0.53906 0.7616 0.0
H698 H 0.14569 0.53473 0.79159 0.0
H699 H 0.14749 0.56575 0.80983 0.0
H700 H 0.10962 0.52115 0.65764 0.0
H701 H 0.12832 0.49615 0.91038 0.0
H702 H 0.11968 0.51763 0.89902 0.0
H703 H 0.14159 0.51292 0.87621 0.0
C704 C 0.10411 0.56276 0.78351 0.0
C705 C 0.12017 0.57045 0.79586 0.0
C706 C 0.1031 0.54485 0.77333 0.0
C707 C 0.11806 0.53457 0.77638 0.0
C708 C 0.13394 0.5423 0.7907 0.0
H709 H 0.15495 0.43604 0.67306 0.0
H710 H 0.14824 0.4632 0.72858 0.0
C711 C 0.13496 0.56003 0.80068 0.0
C712 C 0.11752 0.51599 0.75957 0.0
H713 H 0.12721 0.47607 0.82113 0.0
C714 C 0.11306 0.5112 0.69362 0.0
C715 C 0.12277 0.50321 0.80616 0.0
C716 C 0.12829 0.50766 0.87703 0.0
C717 C 0.11395 0.49394 0.67256 0.0
C718 C 0.11865 0.48112 0.72 0.0
C719 C 0.12309 0.48592 0.78582 0.0
C720 C 0.12128 0.46301 0.69991 0.0
C721 C 0.11111 0.48974 0.59893 0.0
C722 C 0.108 0.45325 0.6703 0.0
C723 C 0.1119 0.43774 0.63764 0.0
C724 C 0.12903 0.43206 0.63583 0.0
C725 C 0.1417 0.44055 0.67341 0.0
C726 C 0.1379 0.45603 0.70492 0.0
H727 H 0.10977 0.50153 0.56757 0.0
H728 H 0.12205 0.48197 0.57921 0.0
H729 H 0.09919 0.482 0.59286 0.0
H730 H 0.09494 0.4582 0.66846 0.0
H731 H 0.10199 0.43109 0.60932 0.0
H732 H 0.57043 0.89455 0.13048 0.0
H733 H 0.53989 0.90065 0.15672 0.0
H734 H 0.53482 0.84991 0.24342 0.0
H735 H 0.56472 0.84381 0.21865 0.0
H736 H 0.51078 0.87896 0.10956 0.0
H737 H 0.51359 0.88009 0.38977 0.0
H738 H 0.53163 0.88666 0.33816 0.0
H739 H 0.52683 0.86419 0.34939 0.0
C740 C 0.56279 0.88479 0.15555 0.0
C741 C 0.57003 0.86862 0.17172 0.0
C742 C 0.5454 0.88831 0.17069 0.0
C743 C 0.53522 0.87583 0.20326 0.0
C744 C 0.54253 0.85987 0.21986 0.0
H745 H 0.44139 0.8371 0.31865 0.0
H746 H 0.4679 0.8433 0.25694 0.0
C747 C 0.55966 0.85635 0.20469 0.0
C748 C 0.51656 0.87836 0.2156 0.0
H749 H 0.48642 0.87442 0.33958 0.0
C750 C 0.50538 0.87851 0.15984 0.0
C751 C 0.50964 0.87736 0.28143 0.0
C752 C 0.52099 0.87717 0.34328 0.0
C753 C 0.48748 0.87653 0.16805 0.0
C754 C 0.48074 0.87493 0.23355 0.0
C755 C 0.49177 0.87577 0.28943 0.0
C756 C 0.46255 0.87057 0.24641 0.0
C757 C 0.47597 0.87501 0.10715 0.0
C758 C 0.4503 0.88368 0.25631 0.0
C759 C 0.435 0.8801 0.29098 0.0
C760 C 0.43219 0.86349 0.31669 0.0
C761 C 0.44343 0.85002 0.29928 0.0
C762 C 0.45854 0.85354 0.26417 0.0
H763 H 0.48325 0.87623 0.05929 0.0
H764 H 0.4693 0.86232 0.10773 0.0
H765 H 0.46586 0.88516 0.10892 0.0
H766 H 0.45329 0.8969 0.24306 0.0
H767 H 0.42645 0.89063 0.3043 0.0
H768 H 0.86875 0.9406 0.66389 0.0
H769 H 0.87318 0.97044 0.63113 0.0
H770 H 0.873 0.95539 0.42187 0.0
H771 H 0.86686 0.92532 0.45517 0.0
H772 H 0.89692 0.9871 0.56659 0.0
H773 H 0.83578 0.99183 0.42124 0.0
H774 H 0.83969 0.97536 0.4836 0.0
H775 H 0.84892 0.97347 0.40113 0.0
C776 C 0.87013 0.9436 0.61089 0.0
C777 C 0.8676 0.93083 0.56186 0.0
C778 C 0.87245 0.96067 0.59224 0.0
C779 C 0.87291 0.96521 0.52408 0.0
C780 C 0.87202 0.95219 0.47472 0.0
H781 H 0.88008 0.06472 0.33011 0.0
H782 H 0.88337 0.03386 0.35719 0.0
C783 C 0.86898 0.93502 0.49353 0.0
C784 C 0.87416 0.98367 0.50588 0.0
H785 H 0.85385 0.01507 0.41886 0.0
C786 C 0.88762 0.9934 0.53401 0.0
C787 C 0.86163 0.99195 0.46534 0.0
C788 C 0.84557 0.98273 0.44157 0.0
C789 C 0.88889 0.01022 0.52122 0.0
C790 C 0.87695 0.01828 0.47761 0.0
C791 C 0.86332 0.00864 0.45025 0.0
C792 C 0.87757 0.03699 0.46303 0.0
C793 C 0.90334 0.02015 0.55413 0.0
C794 C 0.87345 0.04886 0.51376 0.0
C795 C 0.87141 0.0663 0.49825 0.0
C796 C 0.87354 0.07218 0.43186 0.0
C797 C 0.87855 0.06047 0.38165 0.0
C798 C 0.88035 0.04291 0.39705 0.0
H799 H 0.91275 0.01152 0.57962 0.0
H800 H 0.91025 0.02805 0.51616 0.0
H801 H 0.89794 0.02908 0.59236 0.0
H802 H 0.87097 0.04452 0.56462 0.0
H803 H 0.86755 0.07514 0.53775 0.0
H804 H 0.073 0.09894 0.53919 0.0
H805 H 0.04269 0.09368 0.50647 0.0
H806 H 0.03077 0.14719 0.54375 0.0
H807 H 0.0603 0.15249 0.57687 0.0
H808 H 0.01111 0.10274 0.58991 0.0
H809 H 0.01321 0.13923 0.3482 0.0
H810 H 0.03166 0.12754 0.38032 0.0
H811 H 0.0256 0.14783 0.41678 0.0
C812 C 0.06384 0.1095 0.54085 0.0
C813 C 0.06917 0.12619 0.55992 0.0
C814 C 0.04663 0.10652 0.52161 0.0
C815 C 0.03471 0.12023 0.52058 0.0
C816 C 0.0399 0.13659 0.54211 0.0
H817 H 0.93307 0.15212 0.46557 0.0
H818 H 0.9618 0.1467 0.51164 0.0
C819 C 0.05683 0.13953 0.56157 0.0
C820 C 0.01645 0.11781 0.50133 0.0
H821 H 0.98701 0.13389 0.39561 0.0
C822 C 0.00556 0.10915 0.54653 0.0
C823 C 0.00928 0.12656 0.44529 0.0
C824 C 0.02048 0.13575 0.39442 0.0
C825 C 0.98891 0.10972 0.53907 0.0
C826 C 0.9818 0.11888 0.48456 0.0
C827 C 0.99265 0.12698 0.43767 0.0
C828 C 0.96303 0.1204 0.47538 0.0
C829 C 0.97747 0.10138 0.5911 0.0
C830 C 0.95378 0.10688 0.44538 0.0
C831 C 0.93729 0.10991 0.41984 0.0
C832 C 0.93026 0.12654 0.42314 0.0
C833 C 0.93833 0.13916 0.46286 0.0
C834 C 0.95485 0.13621 0.4879 0.0
H835 H 0.98496 0.0958 0.63347 0.0
H836 H 0.96822 0.11102 0.6114 0.0
H837 H 0.9698 0.09095 0.56724 0.0
H838 H 0.95995 0.09456 0.4359 0.0
H839 H 0.93127 0.10009 0.38893 0.0
H840 H 0.10548 0.92899 0.33363 0.0
H841 H 0.10539 0.96058 0.34952 0.0
H842 H 0.13141 0.95442 0.5396 0.0
H843 H 0.13148 0.92334 0.52501 0.0
H844 H 0.09096 0.97867 0.47236 0.0
H845 H 0.16139 0.9905 0.43818 0.0
H846 H 0.15047 0.97279 0.39695 0.0
H847 H 0.15517 0.97171 0.48518 0.0
C848 C 0.1111 0.9344 0.37879 0.0
C849 C 0.11844 0.92358 0.42793 0.0
C850 C 0.11115 0.9524 0.38758 0.0
C851 C 0.11876 0.95975 0.44502 0.0
C852 C 0.12585 0.949 0.49426 0.0
H853 H 0.13346 0.04752 0.67072 0.0
H854 H 0.12558 0.01944 0.62576 0.0
C855 C 0.12569 0.93117 0.48592 0.0
C856 C 0.11846 0.97856 0.45684 0.0
H857 H 0.14447 0.01216 0.48503 0.0
C858 C 0.10264 0.98634 0.47345 0.0
C859 C 0.13386 0.98831 0.46014 0.0
C860 C 0.15123 0.98051 0.44393 0.0
C861 C 0.1016 0.00262 0.49573 0.0
C862 C 0.11694 0.01223 0.49895 0.0
C863 C 0.1327 0.00468 0.48076 0.0
C864 C 0.11741 0.02943 0.52931 0.0
C865 C 0.08474 0.01019 0.51955 0.0
C866 C 0.11434 0.04431 0.49075 0.0
C867 C 0.11893 0.06049 0.51644 0.0
C868 C 0.12675 0.0615 0.58005 0.0
C869 C 0.12793 0.04681 0.62072 0.0
C870 C 0.12338 0.03084 0.59538 0.0
H871 H 0.07398 0.00078 0.51643 0.0
H872 H 0.08602 0.01459 0.57248 0.0
H873 H 0.08148 0.02168 0.4887 0.0
H874 H 0.10956 0.04326 0.43972 0.0
H875 H 0.11768 0.07184 0.48503 0.0
H876 H 0.06649 0.84905 0.49671 0.0
H877 H 0.03731 0.85451 0.54058 0.0
H878 H 0.02819 0.89072 0.37961 0.0
H879 H 0.05741 0.88595 0.33807 0.0
H880 H 0.0173 0.88548 0.57332 0.0
H881 H 0.99367 0.85094 0.34716 0.0
H882 H 0.01367 0.84722 0.38049 0.0
H883 H 0.00919 0.86649 0.33391 0.0
C884 C 0.05854 0.85888 0.47336 0.0
C885 C 0.06399 0.86709 0.41423 0.0
C886 C 0.04183 0.86171 0.49737 0.0
C887 C 0.03048 0.87242 0.4613 0.0
C888 C 0.03666 0.88207 0.4069 0.0
H889 H 0.92042 0.88934 0.48288 0.0
H890 H 0.95131 0.89242 0.45583 0.0
C891 C 0.05347 0.87966 0.38429 0.0
C892 C 0.01201 0.87309 0.47884 0.0
H893 H 0.97313 0.86296 0.42128 0.0
C894 C 0.00732 0.88057 0.54028 0.0
C895 C -0.00086 0.86653 0.4352 0.0
C896 C 0.00371 0.85722 0.37062 0.0
C897 C 0.99131 0.88197 0.55931 0.0
C898 C 0.97836 0.87563 0.51566 0.0
C899 C 0.98308 0.8681 0.45393 0.0
C900 C 0.95994 0.87545 0.53559 0.0
C901 C 0.98694 0.89049 0.62551 0.0
C902 C 0.95463 0.86505 0.58952 0.0
C903 C 0.93716 0.86331 0.60482 0.0
C904 C 0.92467 0.87201 0.5668 0.0
C905 C 0.92992 0.88285 0.51391 0.0
C906 C 0.94748 0.88449 0.49813 0.0
H907 H -0.0031 0.89709 0.64816 0.0
H908 H 0.97642 0.90005 0.61848 0.0
H909 H 0.98236 0.88062 0.66173 0.0
H910 H 0.96397 0.85766 0.61803 0.0
H911 H 0.93333 0.85462 0.6448 0.0
H912 H 0.33272 0.17973 0.02304 0.0
H913 H 0.33261 0.21129 0.0304 0.0
H914 H 0.38475 0.21007 0.10614 0.0
H915 H 0.38525 0.17891 0.09451 0.0
H916 H 0.3352 0.22619 0.15336 0.0
H917 H 0.38708 0.25161 -0.01156 0.0
H918 H 0.37805 0.23032 0.98374 0.0
H919 H 0.39406 0.23426 0.04139 0.0
C920 C 0.34456 0.18635 0.03605 0.0
C921 C 0.35902 0.17695 0.0574 0.0
C922 C 0.34436 0.20432 0.04207 0.0
C923 C 0.35864 0.21301 0.06918 0.0
C924 C 0.37373 0.20373 0.08366 0.0
H925 H 0.38103 0.31405 0.21608 0.0
H926 H 0.37717 0.28273 0.21705 0.0
C927 C 0.37408 0.18586 0.07593 0.0
C928 C 0.35715 0.23132 0.08957 0.0
H929 H 0.37638 0.27064 0.07382 0.0
C930 C 0.3441 0.23595 0.13551 0.0
C931 C 0.36886 0.24395 0.06651 0.0
C932 C 0.3827 0.23984 0.01533 0.0
C933 C 0.3426 0.25291 0.15958 0.0
C934 C 0.35452 0.26537 0.13768 0.0
C935 C 0.36745 0.26084 0.09131 0.0
C936 C 0.35343 0.28347 0.15991 0.0
C937 C 0.32843 0.25746 0.20865 0.0
C938 C 0.3402 0.29409 0.13538 0.0
C939 C 0.34204 0.31197 0.13828 0.0
C940 C 0.35783 0.31895 0.15922 0.0
C941 C 0.36904 0.30871 0.19742 0.0
C942 C 0.36709 0.29081 0.19625 0.0
H943 H 0.32217 0.2458 0.22999 0.0
H944 H 0.33356 0.26545 0.25048 0.0
H945 H 0.31842 0.26518 0.18241 0.0
H946 H 0.32947 0.28866 0.1077 0.0
H947 H 0.33297 0.31984 0.11026 0.0
H948 H 0.31574 0.65454 0.74884 0.0
H949 H 0.28401 0.65589 0.75487 0.0
H950 H 0.2843 0.61637 0.90765 0.0
H951 H 0.31545 0.61403 0.8983 0.0
H952 H 0.25774 0.62504 0.75287 0.0
H953 H 0.26168 0.66231 -0.01308 0.0
H954 H 0.27857 0.66309 0.93052 0.0
H955 H 0.27612 0.64435 0.9826 0.0
C956 C 0.30886 0.64558 0.78091 0.0
C957 C 0.31787 0.63415 0.82264 0.0
C958 C 0.29093 0.64661 0.78545 0.0
C959 C 0.28219 0.63661 0.83328 0.0
C960 C 0.29104 0.62435 0.87144 0.0
H961 H 0.18112 0.61628 0.97642 0.0
H962 H 0.21239 0.61991 0.96512 0.0
C963 C 0.30876 0.62287 0.86517 0.0
C964 C 0.26373 0.63872 0.84414 0.0
H965 H 0.23445 0.65211 0.96051 0.0
C966 C 0.25252 0.63119 0.79748 0.0
C967 C 0.25731 0.64644 0.90356 0.0
C968 C 0.26896 0.65461 0.95537 0.0
C969 C 0.23478 0.63085 0.80952 0.0
C970 C 0.22844 0.63862 0.86906 0.0
C971 C 0.23961 0.6463 0.91508 0.0
C972 C 0.21018 0.63891 0.88559 0.0
C973 C 0.22312 0.62163 0.76034 0.0
C974 C 0.19919 0.65034 0.85217 0.0
C975 C 0.18155 0.6493 0.86339 0.0
C976 C 0.17513 0.63537 0.90088 0.0
C977 C 0.18606 0.62657 0.94499 0.0
C978 C 0.2038 0.62813 0.93646 0.0
H979 H 0.23047 0.61499 0.71987 0.0
H980 H 0.21515 0.61194 0.78726 0.0
H981 H 0.21419 0.63105 0.73675 0.0
H982 H 0.20413 0.65929 0.81502 0.0
H983 H 0.17307 0.65665 0.83079 0.0
H984 H 0.66548 0.81628 0.04872 0.0
H985 H 0.66496 0.78466 0.04947 0.0
H986 H 0.61059 0.78581 0.09586 0.0
H987 H 0.61081 0.81703 0.08951 0.0
H988 H 0.65766 0.77003 0.16893 0.0
H989 H 0.61212 0.74446 0.98302 0.0
H990 H 0.62145 0.76575 0.97716 0.0
H991 H 0.60361 0.76178 0.02649 0.0
C992 C 0.65324 0.80967 0.05377 0.0
C993 C 0.63819 0.81895 0.06802 0.0
C994 C 0.65298 0.79168 0.05561 0.0
C995 C 0.63774 0.78293 0.07274 0.0
C996 C 0.62236 0.79221 0.08062 0.0
H997 H 0.61729 0.67915 0.20961 0.0
H998 H 0.61748 0.71069 0.20813 0.0
C999 C 0.6225 0.81011 0.07641 0.0
C1000 C 0.63848 0.76467 0.09298 0.0
H1001 H 0.62097 0.72502 0.0643 0.0
C1002 C 0.64974 0.76017 0.14563 0.0
C1003 C 0.62782 0.75198 0.06337 0.0
C1004 C 0.61569 0.75617 0.00601 0.0
C1005 C 0.65083 0.7432 0.169 0.0
C1006 C 0.64035 0.73054 0.13919 0.0
C1007 C 0.62885 0.73498 0.08724 0.0
C1008 C 0.64219 0.71235 0.15799 0.0
C1009 C 0.66317 0.73877 0.2253 0.0
C1010 C 0.65689 0.7032 0.13748 0.0
C1011 C 0.65692 0.68526 0.13993 0.0
C1012 C 0.64177 0.67667 0.15812 0.0
C1013 C 0.62889 0.68571 0.19319 0.0
C1014 C 0.6287 0.70369 0.19038 0.0
H1015 H 0.66811 0.75048 0.25109 0.0
H1016 H 0.65679 0.73033 0.26296 0.0
H1017 H 0.67434 0.73157 0.20451 0.0
H1018 H 0.66755 0.70979 0.11349 0.0
H1019 H 0.66721 0.67835 0.11459 0.0
H1020 H 0.8186 0.33662 0.953 0.0
H1021 H 0.7868 0.33657 0.96008 0.0
H1022 H 0.78484 0.38158 0.83231 0.0
H1023 H 0.81611 0.38219 0.82784 0.0
H1024 H 0.75975 0.36745 0.98161 0.0
H1025 H 0.76354 0.33797 0.72518 0.0
H1026 H 0.78057 0.33526 0.78636 0.0
H1027 H 0.77785 0.35554 0.74414 0.0
C1028 C 0.81127 0.34686 0.92935 0.0
C1029 C 0.81939 0.35923 0.88922 0.0
C1030 C 0.79331 0.34675 0.93276 0.0
C1031 C 0.7839 0.35876 0.89481 0.0
C1032 C 0.79214 0.37216 0.86092 0.0
H1033 H 0.68256 0.38183 0.7673 0.0
H1034 H 0.71393 0.37818 0.77443 0.0
C1035 C 0.80988 0.37255 0.85897 0.0
C1036 C 0.76557 0.35664 0.8845 0.0
H1037 H 0.73631 0.34655 0.76353 0.0
C1038 C 0.75447 0.3626 0.93473 0.0
C1039 C 0.75918 0.35071 0.822 0.0
C1040 C 0.77084 0.34442 0.76619 0.0
C1041 C 0.73675 0.36308 0.92345 0.0
C1042 C 0.73044 0.35708 0.86088 0.0
C1043 C 0.74153 0.35099 0.81116 0.0
C1044 C 0.71227 0.35698 0.84525 0.0
C1045 C 0.72505 0.37057 0.97688 0.0
C1046 C 0.70166 0.34471 0.87542 0.0
C1047 C 0.68401 0.34603 0.86733 0.0
C1048 C 0.67726 0.36042 0.83376 0.0
C1049 C 0.68782 0.37082 0.794 0.0
C1050 C 0.70556 0.36911 0.79998 0.0
H1051 H 0.73242 0.37607 0.0138 0.0
H1052 H 0.71683 0.38085 0.9548 0.0
H1053 H 0.71641 0.36034 -0.00963 0.0
H1054 H 0.70693 0.33491 0.90851 0.0
H1055 H 0.67577 0.33784 0.89772 0.0
H1056 H 0.8471 0.67645 0.6817 0.0
H1057 H 0.84219 0.70737 0.68911 0.0
H1058 H 0.86609 0.71422 0.4948 0.0
H1059 H 0.87224 0.68307 0.48956 0.0
H1060 H 0.88004 0.72716 0.66127 0.0
H1061 H 0.81914 0.74738 0.53334 0.0
H1062 H 0.82062 0.72669 0.57487 0.0
H1063 H 0.83247 0.73041 0.49904 0.0
C1064 C 0.85042 0.68447 0.6389 0.0
C1065 C 0.86048 0.67795 0.58606 0.0
C1066 C 0.84783 0.70203 0.64375 0.0
C1067 C 0.85436 0.71271 0.59352 0.0
C1068 C 0.86141 0.70582 0.53433 0.0
H1069 H 0.86237 0.81491 0.51945 0.0
H1070 H 0.86647 0.78435 0.531 0.0
C1071 C 0.86462 0.68818 0.53068 0.0
C1072 C 0.85605 0.7309 0.60797 0.0
H1073 H 0.83559 0.76901 0.5865 0.0
C1074 C 0.87039 0.73646 0.64534 0.0
C1075 C 0.84327 0.74248 0.58715 0.0
C1076 C 0.82795 0.73657 0.5463 0.0
C1077 C 0.87258 0.75396 0.66026 0.0
C1078 C 0.85983 0.76562 0.63847 0.0
C1079 C 0.84517 0.75978 0.60372 0.0
C1080 C 0.86258 0.78419 0.63871 0.0
C1081 C 0.88872 0.76003 0.69551 0.0
C1082 C 0.8599 0.79419 0.69664 0.0
C1083 C 0.85796 0.8121 0.69055 0.0
C1084 C 0.85808 0.81964 0.62636 0.0
C1085 C 0.86178 0.80947 0.56956 0.0
C1086 C 0.86438 0.792 0.57597 0.0
H1087 H 0.89732 0.74915 0.70971 0.0
H1088 H 0.89594 0.76896 0.66216 0.0
H1089 H 0.88521 0.76733 0.74156 0.0
H1090 H 0.8584 0.78812 0.74534 0.0
H1091 H 0.85557 0.81985 0.73492 0.0
H1092 H 0.81674 0.16087 0.27805 0.0
H1093 H 0.78507 0.16136 0.28385 0.0
H1094 H 0.78538 0.11048 0.37179 0.0
H1095 H 0.81671 0.10957 0.36316 0.0
H1096 H 0.75817 0.13294 0.24081 0.0
H1097 H 0.7636 0.14634 0.51639 0.0
H1098 H 0.78005 0.15321 0.45792 0.0
H1099 H 0.778 0.13082 0.47908 0.0
C1100 C 0.80993 0.14946 0.29487 0.0
C1101 C 0.81903 0.13516 0.31945 0.0
C1102 C 0.79197 0.14988 0.29957 0.0
C1103 C 0.7832 0.13616 0.33012 0.0
C1104 C 0.79212 0.12125 0.34901 0.0
H1105 H 0.68053 0.11282 0.45246 0.0
H1106 H 0.7119 0.11531 0.44461 0.0
C1107 C 0.80994 0.12062 0.34267 0.0
C1108 C 0.76476 0.1375 0.3444 0.0
H1109 H 0.73599 0.14267 0.47219 0.0
C1110 C 0.75321 0.13525 0.29104 0.0
C1111 C 0.75864 0.14022 0.41061 0.0
C1112 C 0.77063 0.14286 0.46958 0.0
C1113 C 0.73541 0.13545 0.30231 0.0
C1114 C 0.72935 0.13835 0.36863 0.0
C1115 C 0.74091 0.14059 0.42173 0.0
C1116 C 0.71103 0.13874 0.38514 0.0
C1117 C 0.72336 0.13188 0.24415 0.0
C1118 C 0.70069 0.15243 0.36319 0.0
C1119 C 0.68292 0.15145 0.37155 0.0
C1120 C 0.67574 0.136 0.39531 0.0
C1121 C 0.68606 0.12444 0.4312 0.0
C1122 C 0.70387 0.12552 0.42438 0.0
H1123 H 0.73041 0.12874 0.19703 0.0
H1124 H 0.71472 0.12094 0.25683 0.0
H1125 H 0.71512 0.14334 0.23467 0.0
H1126 H 0.70621 0.1632 0.33595 0.0
H1127 H 0.67491 0.16089 0.34609 0.0
H1128 H 0.15402 0.32167 0.65162 0.0
H1129 H 0.15945 0.29075 0.65717 0.0
H1130 H 0.12046 0.28224 0.50591 0.0
H1131 H 0.11424 0.3132 0.50392 0.0
H1132 H 0.12528 0.2719 0.69453 0.0
H1133 H 0.16099 0.24655 0.47115 0.0
H1134 H 0.16485 0.26798 0.50389 0.0
H1135 H 0.1453 0.26344 0.4594 0.0
C1136 C 0.14752 0.31332 0.61591 0.0
C1137 C 0.13319 0.31936 0.57963 0.0
C1138 C 0.15033 0.29566 0.62054 0.0
C1139 C 0.1399 0.28442 0.58363 0.0
C1140 C 0.12836 0.29091 0.53552 0.0
H1141 H 0.11076 0.18129 0.58193 0.0
H1142 H 0.11073 0.21257 0.58998 0.0
C1143 C 0.12511 0.30857 0.53303 0.0
C1144 C 0.13913 0.26626 0.60266 0.0
H1145 H 0.14948 0.22613 0.54763 0.0
C1146 C 0.13075 0.26183 0.66314 0.0
C1147 C 0.14601 0.25345 0.56047 0.0
C1148 C 0.15486 0.25797 0.49508 0.0
C1149 C 0.12897 0.24454 0.68211 0.0
C1150 C 0.13605 0.2318 0.64012 0.0
C1151 C 0.14445 0.23623 0.57999 0.0
C1152 C 0.13337 0.21356 0.65339 0.0
C1153 C 0.11909 0.23975 0.74496 0.0
C1154 C 0.14565 0.20405 0.68966 0.0
C1155 C 0.14594 0.1861 0.684 0.0
C1156 C 0.13377 0.17802 0.64287 0.0
C1157 C 0.12023 0.18749 0.61396 0.0
C1158 C 0.12018 0.20526 0.61836 0.0
H1159 H 0.11449 0.25127 0.77296 0.0
H1160 H 0.10779 0.23168 0.73127 0.0
H1161 H 0.12739 0.23186 0.77859 0.0
H1162 H 0.15585 0.21056 0.71692 0.0
H1163 H 0.15638 0.1788 0.70646 0.0
H1164 H 0.31432 0.87179 0.49347 0.0
H1165 H 0.28354 0.86451 0.4925 0.0
H1166 H 0.29083 0.84028 0.29828 0.0
H1167 H 0.32128 0.84329 0.30951 0.0
H1168 H 0.26569 0.88071 0.41205 0.0
H1169 H 0.25284 0.81285 0.34502 0.0
H1170 H 0.27345 0.81929 0.37784 0.0
H1171 H 0.26881 0.82086 0.28874 0.0
C1172 C 0.30939 0.86325 0.45488 0.0
C1173 C 0.31964 0.8587 0.39979 0.0
C1174 C 0.29178 0.8596 0.45285 0.0
C1175 C 0.28465 0.85214 0.39447 0.0
C1176 C 0.29568 0.84535 0.34522 0.0
H1177 H 0.17877 0.87199 0.24509 0.0
H1178 H 0.21038 0.86769 0.23515 0.0
C1179 C 0.31331 0.8471 0.35188 0.0
C1180 C 0.26617 0.85405 0.37892 0.0
H1181 H 0.23225 0.83351 0.3053 0.0
C1182 C 0.25838 0.87027 0.38955 0.0
C1183 C 0.25662 0.84061 0.34813 0.0
C1184 C 0.2634 0.82244 0.34005 0.0
C1185 C 0.24116 0.87311 0.37216 0.0
C1186 C 0.23197 0.85968 0.34042 0.0
C1187 C 0.23981 0.84387 0.32722 0.0
C1188 C 0.21329 0.85987 0.33917 0.0
C1189 C 0.23257 0.88996 0.39105 0.0
C1190 C 0.20496 0.85505 0.39833 0.0
C1191 C 0.18738 0.8567 0.40291 0.0
C1192 C 0.1781 0.86391 0.34944 0.0
C1193 C 0.186 0.86677 0.28703 0.0
C1194 C 0.20386 0.86462 0.2818 0.0
H1195 H 0.24209 0.90003 0.40523 0.0
H1196 H 0.22455 0.89478 0.34876 0.0
H1197 H 0.22387 0.88779 0.43458 0.0
H1198 H 0.21218 0.85083 0.44205 0.0
H1199 H 0.18123 0.85395 0.45073 0.0
H1200 H 0.1779 0.10444 0.76565 0.0
H1201 H 0.2038 0.10513 0.83655 0.0
H1202 H 0.22299 0.14838 0.72257 0.0
H1203 H 0.19697 0.14763 0.65122 0.0
H1204 H 0.23928 0.10176 0.78952 0.0
H1205 H 0.22784 0.16383 0.92351 0.0
H1206 H 0.21048 0.15057 0.89205 0.0
H1207 H 0.22305 0.1633 0.83497 0.0
C1208 C 0.18754 0.11427 0.75653 0.0
C1209 C 0.18543 0.1261 0.70348 0.0
C1210 C 0.20238 0.11458 0.79679 0.0
C1211 C 0.21536 0.12686 0.78535 0.0
C1212 C 0.21308 0.13892 0.73299 0.0
H1213 H 0.31917 0.13995 0.95977 0.0
H1214 H 0.29269 0.14375 0.89247 0.0
C1215 C 0.19824 0.13853 0.69227 0.0
C1216 C 0.23148 0.12667 0.82675 0.0
H1217 H 0.25452 0.15024 0.94152 0.0
C1218 C 0.24261 0.11235 0.8227 0.0
C1219 C 0.23579 0.1404 0.87069 0.0
C1220 C 0.22368 0.15539 0.88137 0.0
C1221 C 0.25799 0.11157 0.8606 0.0
C1222 C 0.26239 0.1255 0.90364 0.0
C1223 C 0.25129 0.13975 0.90764 0.0
C1224 C 0.27784 0.12496 0.9484 0.0
C1225 C 0.26954 0.09596 0.85399 0.0
C1226 C 0.27788 0.11416 -0.00103 0.0
C1227 C 0.2927 0.11243 0.0384 0.0
C1228 C 0.30796 0.12128 0.02183 0.0
C1229 C 0.30753 0.13324 0.97461 0.0
C1230 C 0.29253 0.13511 0.93527 0.0
H1231 H 0.265 0.08689 0.81451 0.0
H1232 H 0.28288 0.1001 0.84178 0.0
H1233 H 0.27003 0.08895 0.90258 0.0
H1234 H 0.26661 0.10652 0.01105 0.0
H1235 H 0.29266 0.10302 0.07875 0.0
H1236 H 0.10099 0.68178 0.00882 0.0
H1237 H 0.10371 0.70734 0.07901 0.0
H1238 H 0.1509 0.7208 0.98318 0.0
H1239 H 0.14766 0.6952 0.90945 0.0
H1240 H 0.12769 0.71673 0.16799 0.0
H1241 H 0.12288 0.76595 0.97076 0.0
H1242 H 0.11454 0.74432 0.96221 0.0
H1243 H 0.13725 0.74814 0.95534 0.0
C1244 C 0.11211 0.69005 0.00173 0.0
C1245 C 0.1242 0.68635 0.95709 0.0
C1246 C 0.1136 0.70475 0.04184 0.0
C1247 C 0.12736 0.71622 0.03327 0.0
C1248 C 0.13996 0.71234 -0.01594 0.0
H1249 H 0.14525 0.8156 0.23305 0.0
H1250 H 0.1502 0.7876 0.17771 0.0
C1251 C 0.13829 0.69757 0.94876 0.0
C1252 C 0.12817 0.73194 0.07724 0.0
H1253 H 0.12691 0.77611 0.07541 0.0
C1254 C 0.12775 0.72971 0.14764 0.0
C1255 C 0.12747 0.74893 0.0509 0.0
C1256 C 0.12538 0.75214 0.9823 0.0
C1257 C 0.12718 0.74385 0.19224 0.0
C1258 C 0.12728 0.76082 0.16597 0.0
C1259 C 0.12746 0.76311 0.09558 0.0
C1260 C 0.12606 0.77637 0.21035 0.0
C1261 C 0.1266 0.7405 0.26718 0.0
C1262 C 0.11133 0.77908 0.25012 0.0
C1263 C 0.10871 0.79487 0.28274 0.0
C1264 C 0.12064 0.80836 0.27571 0.0
C1265 C 0.13605 0.80526 0.24055 0.0
C1266 C 0.13872 0.78937 0.20797 0.0
H1267 H 0.13009 0.72697 0.27964 0.0
H1268 H 0.13546 0.74934 0.29432 0.0
H1269 H 0.11335 0.74284 0.28621 0.0
H1270 H 0.10119 0.7695 0.25191 0.0
H1271 H 0.09656 0.79709 0.3083 0.0
H1272 H 0.6798 0.84898 -0.00716 0.0
H1273 H 0.70714 0.84184 0.94112 0.0
H1274 H 0.72457 0.89413 0.97162 0.0
H1275 H 0.69882 0.90059 0.02782 0.0
H1276 H 0.71826 0.85607 0.82395 0.0
H1277 H 0.76818 0.87215 0.00787 0.0
H1278 H 0.74606 0.86814 0.03136 0.0
H1279 H 0.75254 0.88889 -0.00083 0.0
C1280 C 0.68989 0.85861 -0.01012 0.0
C1281 C 0.68701 0.87541 0.01434 0.0
C1282 C 0.70541 0.85463 0.96209 0.0
C1283 C 0.7182 0.86738 0.95227 0.0
C1284 C 0.71546 0.88378 0.98008 0.0
H1285 H 0.79618 0.90096 0.69431 0.0
H1286 H 0.76946 0.89378 0.75159 0.0
C1287 C 0.70045 0.88754 0.0091 0.0
C1288 C 0.73366 0.86453 0.90811 0.0
H1289 H 0.77692 0.87298 0.89786 0.0
C1290 C 0.73116 0.85927 0.84078 0.0
C1291 C 0.75056 0.86915 0.92915 0.0
C1292 C 0.75451 0.87476 -0.00554 0.0
C1293 C 0.74482 0.85928 0.79369 0.0
C1294 C 0.7615 0.86419 0.81471 0.0
C1295 C 0.76416 0.8689 0.8822 0.0
C1296 C 0.77589 0.86691 0.76617 0.0
C1297 C 0.74132 0.855 0.72084 0.0
C1298 C 0.78808 0.85391 0.75171 0.0
C1299 C 0.80368 0.85803 0.71878 0.0
C1300 C 0.80715 0.87522 0.70054 0.0
C1301 C 0.79402 0.88764 0.70861 0.0
C1302 C 0.77869 0.88358 0.7415 0.0
H1303 H 0.72765 0.85139 0.71194 0.0
H1304 H 0.74451 0.8663 0.68879 0.0
H1305 H 0.74977 0.84419 0.70465 0.0
H1306 H 0.78609 0.8409 0.76997 0.0
H1307 H 0.81352 0.8482 0.71325 0.0
H1308 H 0.87213 0.29081 0.86649 0.0
H1309 H 0.86901 0.26447 0.93454 0.0
H1310 H 0.86695 0.29556 0.10847 0.0
H1311 H 0.86904 0.32172 0.04043 0.0
H1312 H 0.89194 0.25342 0.02435 0.0
H1313 H 0.82821 0.26288 0.14684 0.0
H1314 H 0.83415 0.27379 0.07004 0.0
H1315 H 0.84206 0.28137 0.14976 0.0
C1316 C 0.87025 0.29194 0.9203 0.0
C1317 C 0.87035 0.30824 0.95121 0.0
C1318 C 0.86869 0.27693 0.95925 0.0
C1319 C 0.86752 0.27797 0.02379 0.0
C1320 C 0.86725 0.29434 0.05424 0.0
H1321 H 0.87922 0.20362 0.35153 0.0
H1322 H 0.87659 0.23005 0.28352 0.0
C1323 C 0.8684 0.30932 0.01526 0.0
C1324 C 0.86778 0.26206 0.06612 0.0
H1325 H 0.846 0.24094 0.19107 0.0
C1326 C 0.88181 0.25061 0.06028 0.0
C1327 C 0.85466 0.25843 0.11369 0.0
C1328 C 0.83884 0.26965 0.12028 0.0
C1329 C 0.88307 0.23577 0.10099 0.0
C1330 C 0.86997 0.2323 0.14874 0.0
C1331 C 0.85605 0.24373 0.15476 0.0
C1332 C 0.87006 0.21659 0.19158 0.0
C1333 C 0.89853 0.22405 0.09367 0.0
C1334 C 0.86597 0.20048 0.16364 0.0
C1335 C 0.86661 0.18556 0.20323 0.0
C1336 C 0.87177 0.18644 0.27091 0.0
C1337 C 0.87483 0.20267 0.29993 0.0
C1338 C 0.87372 0.21768 0.26074 0.0
H1339 H 0.90835 0.22941 0.0588 0.0
H1340 H 0.90459 0.22186 0.14353 0.0
H1341 H 0.89431 0.21131 0.07415 0.0
H1342 H 0.86278 0.19939 0.11077 0.0
H1343 H 0.8645 0.17316 0.17947 0.0
H1344 H 0.29068 0.36322 0.11126 0.0
H1345 H 0.26441 0.36065 0.18038 0.0
H1346 H 0.2937 0.37416 0.35706 0.0
H1347 H 0.31975 0.37672 0.2881 0.0
H1348 H 0.25616 0.34047 0.29658 0.0
H1349 H 0.25491 0.4104 0.3591 0.0
H1350 H 0.26599 0.40196 0.28623 0.0
H1351 H 0.27548 0.39999 0.36818 0.0
C1352 C 0.29154 0.36512 0.16513 0.0
C1353 C 0.30735 0.36967 0.19468 0.0
C1354 C 0.27651 0.36385 0.20456 0.0
C1355 C 0.27692 0.36759 0.27395 0.0
C1356 C 0.29289 0.37153 0.30366 0.0
H1357 H 0.20622 0.37469 0.6112 0.0
H1358 H 0.23114 0.3717 0.53599 0.0
C1359 C 0.30789 0.37259 0.26447 0.0
C1360 C 0.26077 0.3674 0.31558 0.0
H1361 H 0.2356 0.39245 0.41853 0.0
C1362 C 0.25159 0.35187 0.32282 0.0
C1363 C 0.25464 0.38231 0.34959 0.0
C1364 C 0.26311 0.39968 0.3402 0.0
C1365 C 0.23696 0.35066 0.36491 0.0
C1366 C 0.2312 0.3654 0.40076 0.0
C1367 C 0.24011 0.38106 0.39209 0.0
C1368 C 0.21613 0.3649 0.44814 0.0
C1369 C 0.2281 0.33345 0.37256 0.0
C1370 C 0.19932 0.36159 0.42473 0.0
C1371 C 0.18509 0.36287 0.46829 0.0
C1372 C 0.18732 0.36774 0.53603 0.0
C1373 C 0.20415 0.37049 0.55986 0.0
C1374 C 0.21838 0.369 0.51656 0.0
H1375 H 0.23571 0.32275 0.35011 0.0
H1376 H 0.22581 0.33058 0.42653 0.0
H1377 H 0.21539 0.33389 0.34704 0.0
H1378 H 0.19711 0.35882 0.37206 0.0
H1379 H 0.17225 0.36131 0.44771 0.0
H1380 H 0.3843 0.67567 0.68162 0.0
H1381 H 0.38185 0.70173 0.61343 0.0
H1382 H 0.35236 0.72613 0.77119 0.0
H1383 H 0.35577 0.70011 0.84146 0.0
H1384 H 0.35591 0.71883 0.56026 0.0
H1385 H 0.38864 0.7626 0.74209 0.0
H1386 H 0.39136 0.73946 0.74391 0.0
H1387 H 0.37209 0.74912 0.77673 0.0
C1388 C 0.37686 0.68643 0.70101 0.0
C1389 C 0.36983 0.68572 0.76612 0.0
C1390 C 0.37566 0.70145 0.66227 0.0
C1391 C 0.36725 0.71617 0.68725 0.0
C1392 C 0.35939 0.71519 0.75124 0.0
H1393 H 0.35096 0.81861 0.51765 0.0
H1394 H 0.34726 0.7908 0.57485 0.0
C1395 C 0.36091 0.70017 0.79081 0.0
C1396 C 0.36677 0.73227 0.64522 0.0
H1397 H 0.37762 0.77512 0.64293 0.0
C1398 C 0.36064 0.73113 0.57856 0.0
C1399 C 0.37332 0.74832 0.66826 0.0
C1400 C 0.38188 0.75005 0.73632 0.0
C1401 C 0.36053 0.7455 0.53503 0.0
C1402 C 0.36646 0.76162 0.55881 0.0
C1403 C 0.37273 0.76282 0.62521 0.0
C1404 C 0.36644 0.77741 0.5155 0.0
C1405 C 0.35388 0.74343 0.46406 0.0
C1406 C 0.37777 0.77894 0.46052 0.0
C1407 C 0.37979 0.79483 0.42747 0.0
C1408 C 0.37042 0.80941 0.44852 0.0
C1409 C 0.35802 0.80748 0.49941 0.0
C1410 C 0.35612 0.79166 0.53287 0.0
H1411 H 0.34781 0.73062 0.45576 0.0
H1412 H 0.3443 0.75367 0.45248 0.0
H1413 H 0.3647 0.74482 0.42797 0.0
H1414 H 0.38596 0.76821 0.44628 0.0
H1415 H 0.38971 0.79609 0.38945 0.0
H1416 H 0.68234 0.65092 0.21858 0.0
H1417 H 0.70817 0.65477 0.28965 0.0
H1418 H 0.72199 0.60153 0.25664 0.0
H1419 H 0.69714 0.5979 0.18392 0.0
H1420 H 0.71804 0.63758 0.40913 0.0
H1421 H 0.76703 0.6238 0.2118 0.0
H1422 H 0.7452 0.62997 0.1911 0.0
H1423 H 0.75001 0.60829 0.21727 0.0
C1424 C 0.69113 0.64019 0.22533 0.0
C1425 C 0.68778 0.62423 0.19399 0.0
C1426 C 0.70584 0.64234 0.2664 0.0
C1427 C 0.7174 0.62856 0.27762 0.0
C1428 C 0.7138 0.6126 0.2472 0.0
H1429 H 0.79682 0.5926 0.5227 0.0
H1430 H 0.77051 0.60053 0.46484 0.0
C1431 C 0.69942 0.61054 0.20541 0.0
C1432 C 0.73301 0.63048 0.32202 0.0
H1433 H 0.77668 0.62376 0.32546 0.0
C1434 C 0.7309 0.63493 0.39042 0.0
C1435 C 0.74989 0.62679 0.29822 0.0
C1436 C 0.75325 0.62207 0.22553 0.0
C1437 C 0.74498 0.63499 0.43581 0.0
C1438 C 0.76171 0.63104 0.41203 0.0
C1439 C 0.76392 0.62719 0.34339 0.0
C1440 C 0.77647 0.62767 0.45877 0.0
C1441 C 0.74189 0.63835 0.50968 0.0
C1442 C 0.78844 0.6405 0.47787 0.0
C1443 C 0.80395 0.63594 0.51117 0.0
C1444 C 0.80758 0.61848 0.5254 0.0
C1445 C 0.7947 0.60613 0.51162 0.0
C1446 C 0.77953 0.61062 0.47839 0.0
H1447 H 0.7282 0.64149 0.52062 0.0
H1448 H 0.74561 0.62678 0.53933 0.0
H1449 H 0.75016 0.64918 0.52691 0.0
H1450 H 0.78628 0.65382 0.4637 0.0
H1451 H 0.81351 0.64579 0.52109 0.0
H1452 H 0.59257 0.19215 0.46551 0.0
H1453 H 0.59784 0.21628 0.5398 0.0
H1454 H 0.65252 0.21156 0.50592 0.0
H1455 H 0.64731 0.1866 0.43066 0.0
H1456 H 0.61828 0.21619 0.65977 0.0
H1457 H 0.64 0.26448 0.47051 0.0
H1458 H 0.62663 0.24624 0.44876 0.0
H1459 H 0.64905 0.24305 0.46622 0.0
C1460 C 0.60579 0.19626 0.47244 0.0
C1461 C 0.61949 0.18754 0.44034 0.0
C1462 C 0.60876 0.2101 0.51577 0.0
C1463 C 0.62552 0.216 0.52816 0.0
C1464 C 0.63941 0.20742 0.49647 0.0
H1465 H 0.64488 0.31194 0.769 0.0
H1466 H 0.65145 0.28507 0.70603 0.0
C1467 C 0.63644 0.19317 0.45344 0.0
C1468 C 0.62796 0.23081 0.57593 0.0
H1469 H 0.63726 0.27403 0.58299 0.0
C1470 C 0.62277 0.22875 0.64327 0.0
C1471 C 0.63335 0.24736 0.55412 0.0
C1472 C 0.63749 0.25062 0.48095 0.0
C1473 C 0.62274 0.24262 0.68919 0.0
C1474 C 0.62808 0.25928 0.66759 0.0
C1475 C 0.63364 0.26128 0.60042 0.0
C1476 C 0.62541 0.27496 0.71116 0.0
C1477 C 0.61659 0.23926 0.76032 0.0
C1478 C 0.60892 0.2781 0.73692 0.0
C1479 C 0.60556 0.2925 0.77642 0.0
C1480 C 0.61812 0.30539 0.78696 0.0
C1481 C 0.63491 0.3023 0.76262 0.0
C1482 C 0.63856 0.28709 0.72544 0.0
H1483 H 0.61834 0.22551 0.77462 0.0
H1484 H 0.62353 0.24746 0.79726 0.0
H1485 H 0.60259 0.24207 0.76401 0.0
H1486 H 0.59829 0.26961 0.72482 0.0
H1487 H 0.59245 0.29411 0.79427 0.0
H1488 H 0.33162 0.10753 0.3416 0.0
H1489 H 0.33538 0.10669 0.46476 0.0
H1490 H 0.38867 0.12154 0.44134 0.0
H1491 H 0.38531 0.12112 0.31956 0.0
H1492 H 0.36451 0.08947 0.54743 0.0
H1493 H 0.36152 0.16132 0.55656 0.0
H1494 H 0.35148 0.14878 0.49068 0.0
H1495 H 0.37437 0.15198 0.4904 0.0
C1496 C 0.34428 0.10961 0.36316 0.0
C1497 C 0.35816 0.11445 0.32264 0.0
C1498 C 0.34632 0.10959 0.43283 0.0
C1499 C 0.36207 0.11489 0.46084 0.0
C1500 C 0.37635 0.11791 0.41986 0.0
H1501 H 0.39598 0.12451 0.88044 0.0
H1502 H 0.39692 0.12754 0.75666 0.0
C1503 C 0.37451 0.11723 0.35076 0.0
C1504 C 0.36399 0.11696 0.53318 0.0
H1505 H 0.36984 0.14695 0.6565 0.0
C1506 C 0.36568 0.10198 0.57152 0.0
C1507 C 0.36558 0.13344 0.56318 0.0
C1508 C 0.36303 0.14986 0.52342 0.0
C1509 C 0.36895 0.10298 0.64026 0.0
C1510 C 0.3705 0.11943 0.67055 0.0
C1511 C 0.36907 0.13446 0.63204 0.0
C1512 C 0.36998 0.12103 0.74346 0.0
C1513 C 0.3702 0.0865 0.68055 0.0
C1514 C 0.35432 0.11757 0.77526 0.0
C1515 C 0.35381 0.11574 0.8442 0.0
C1516 C 0.36897 0.11738 0.88201 0.0
C1517 C 0.38431 0.12281 0.85127 0.0
C1518 C 0.38485 0.12451 0.7813 0.0
H1519 H 0.37189 0.07499 0.64784 0.0
H1520 H 0.38114 0.08718 0.71649 0.0
H1521 H 0.35819 0.08474 0.71013 0.0
H1522 H 0.3427 0.11529 0.74626 0.0
H1523 H 0.3417 0.11221 0.86769 0.0
H1524 H 0.11005 0.61425 0.66474 0.0
H1525 H 0.10954 0.607 0.54541 0.0
H1526 H 0.12035 0.66012 0.49579 0.0
H1527 H 0.12222 0.66717 0.6162 0.0
H1528 H 0.09136 0.62028 0.43218 0.0
H1529 H 0.16171 0.63464 0.41318 0.0
H1530 H 0.15202 0.62685 0.49006 0.0
H1531 H 0.14872 0.64873 0.46384 0.0
C1532 C 0.11164 0.62452 0.62822 0.0
C1533 C 0.1162 0.64125 0.6488 0.0
C1534 C 0.11163 0.62029 0.5603 0.0
C1535 C 0.11563 0.63289 0.51243 0.0
C1536 C 0.11791 0.65013 0.53266 0.0
H1537 H 0.12089 0.65481 0.10944 0.0
H1538 H 0.12345 0.65121 0.23108 0.0
C1539 C 0.11856 0.65426 0.60093 0.0
C1540 C 0.1179 0.62797 0.44149 0.0
H1541 H 0.14681 0.62911 0.31237 0.0
C1542 C 0.10352 0.6219 0.40598 0.0
C1543 C 0.13393 0.62989 0.40834 0.0
C1544 C 0.15005 0.63528 0.44555 0.0
C1545 C 0.10433 0.61918 0.33637 0.0
C1546 C 0.12009 0.62211 0.30244 0.0
C1547 C 0.13479 0.62691 0.33894 0.0
C1548 C 0.12075 0.62341 0.22859 0.0
C1549 C 0.08802 0.61472 0.29873 0.0
C1550 C 0.11918 0.60884 0.18708 0.0
C1551 C 0.11791 0.61087 0.1173 0.0
C1552 C 0.11787 0.6275 0.08915 0.0
C1553 C 0.12051 0.64191 0.1305 0.0
C1554 C 0.12203 0.63986 0.1997 0.0
H1555 H 0.07681 0.61299 0.33287 0.0
H1556 H 0.08494 0.62515 0.26233 0.0
H1557 H 0.0899 0.60264 0.26968 0.0
H1558 H 0.11842 0.59603 0.20876 0.0
H1559 H 0.11604 0.5996 0.08588 0.0
H1560 H 0.65627 0.85446 0.3415 0.0
H1561 H 0.65226 0.85484 0.4626 0.0
H1562 H 0.62255 0.90186 0.44606 0.0
H1563 H 0.6256 0.90069 0.32296 0.0
H1564 H 0.66 0.8777 0.5578 0.0
H1565 H 0.58824 0.87122 0.54516 0.0
H1566 H 0.6016 0.86402 0.47623 0.0
H1567 H 0.59878 0.88663 0.49186 0.0
C1568 C 0.64963 0.86534 0.36412 0.0
C1569 C 0.64115 0.87749 0.32399 0.0
C1570 C 0.64694 0.86531 0.43295 0.0
C1571 C 0.63646 0.87793 0.46265 0.0
C1572 C 0.63003 0.89158 0.42343 0.0
H1573 H 0.61051 0.90358 0.8507 0.0
H1574 H 0.61449 0.89799 0.73116 0.0
C1575 C 0.63235 0.89133 0.35378 0.0
C1576 C 0.63288 0.8765 0.53503 0.0
H1577 H 0.6013 0.86919 0.6507 0.0
C1578 C 0.64717 0.87578 0.57821 0.0
C1579 C 0.61608 0.87375 0.56075 0.0
C1580 C 0.60024 0.87387 0.51642 0.0
C1581 C 0.6452 0.87265 0.64694 0.0
C1582 C 0.62841 0.87049 0.67305 0.0
C1583 C 0.61413 0.87069 0.62973 0.0
C1584 C 0.62499 0.87235 0.74527 0.0
C1585 C 0.66098 0.87247 0.69141 0.0
C1586 C 0.62906 0.85944 0.79217 0.0
C1587 C 0.6265 0.86256 0.86079 0.0
C1588 C 0.62001 0.87863 0.88223 0.0
C1589 C 0.61521 0.89104 0.83486 0.0
C1590 C 0.61767 0.88792 0.76693 0.0
H1591 H 0.67314 0.87335 0.66205 0.0
H1592 H 0.66043 0.8835 0.72698 0.0
H1593 H 0.66131 0.86043 0.72157 0.0
H1594 H 0.63465 0.84731 0.77596 0.0
H1595 H 0.63072 0.85301 0.89707 0.0
H1596 H 0.85235 0.35751 0.08856 0.0
H1597 H 0.84831 0.35669 0.21086 0.0
H1598 H 0.89201 0.39054 0.23571 0.0
H1599 H 0.89595 0.39136 0.11358 0.0
H1600 H 0.87666 0.34262 0.28308 0.0
H1601 H 0.85894 0.40715 0.38419 0.0
H1602 H 0.85312 0.40012 0.30051 0.0
H1603 H 0.87468 0.40722 0.31785 0.0
C1604 C 0.86045 0.3655 0.12025 0.0
C1605 C 0.87432 0.37467 0.09253 0.0
C1606 C 0.85823 0.36492 0.18991 0.0
C1607 C 0.86983 0.3736 0.2323 0.0
C1608 C 0.88272 0.38404 0.2039 0.0
H1609 H 0.90336 0.37054 0.64464 0.0
H1610 H 0.90235 0.37256 0.52174 0.0
C1611 C 0.88496 0.38456 0.13425 0.0
C1612 C 0.87069 0.36923 0.3047 0.0
H1613 H 0.87092 0.38691 0.46194 0.0
C1614 C 0.87515 0.35224 0.32232 0.0
C1615 C 0.86892 0.38186 0.35548 0.0
C1616 C 0.86351 0.4001 0.33894 0.0
C1617 C 0.87843 0.34764 0.38936 0.0
C1618 C 0.87701 0.36032 0.44002 0.0
C1619 C 0.8722 0.37727 0.42269 0.0
C1620 C 0.87998 0.3561 0.51168 0.0
C1621 C 0.8839 0.3294 0.40553 0.0
C1622 C 0.86853 0.34517 0.54589 0.0
C1623 C 0.86942 0.34364 0.61578 0.0
C1624 C 0.8815 0.35335 0.65204 0.0
C1625 C 0.89417 0.36267 0.61729 0.0
C1626 C 0.89333 0.36417 0.5474 0.0
H1627 H 0.88798 0.32222 0.35986 0.0
H1628 H 0.89468 0.32935 0.44229 0.0
H1629 H 0.8729 0.3224 0.42849 0.0
H1630 H 0.85806 0.33893 0.51925 0.0
H1631 H 0.85925 0.33677 0.64183 0.0
H1632 H 0.39677 0.37608 0.34433 0.0
H1633 H 0.40012 0.37199 0.46687 0.0
H1634 H 0.34497 0.36579 0.48509 0.0
H1635 H 0.34185 0.36906 0.36495 0.0
H1636 H 0.38573 0.3955 0.55084 0.0
H1637 H 0.35903 0.33189 0.62164 0.0
H1638 H 0.36714 0.33625 0.53815 0.0
H1639 H 0.34555 0.34245 0.56146 0.0
C1640 C 0.38557 0.37315 0.37476 0.0
C1641 C 0.369 0.37325 0.34631 0.0
C1642 C 0.38745 0.37084 0.44441 0.0
C1643 C 0.37279 0.36843 0.48524 0.0
C1644 C 0.35653 0.36711 0.45501 0.0
H1645 H 0.328 0.38061 0.86734 0.0
H1646 H 0.33526 0.38405 0.74774 0.0
C1647 C 0.35469 0.36933 0.38627 0.0
C1648 C 0.37352 0.37058 0.55919 0.0
H1649 H 0.35549 0.35489 0.70307 0.0
C1650 C 0.37954 0.38643 0.5846 0.0
C1651 C 0.36523 0.35883 0.60302 0.0
C1652 C 0.35903 0.34135 0.57966 0.0
C1653 C 0.37643 0.39132 0.65158 0.0
C1654 C 0.36721 0.37999 0.69387 0.0
C1655 C 0.36216 0.36374 0.66972 0.0
C1656 C 0.36286 0.38429 0.76422 0.0
C1657 C 0.3823 0.40881 0.67587 0.0
C1658 C 0.37595 0.3847 0.8127 0.0
C1659 C 0.37177 0.38337 0.88057 0.0
C1660 C 0.35453 0.3811 0.90039 0.0
C1661 C 0.34132 0.38249 0.8528 0.0
C1662 C 0.3455 0.38432 0.78478 0.0
H1663 H 0.38608 0.41739 0.63362 0.0
H1664 H 0.37197 0.41523 0.70543 0.0
H1665 H 0.39363 0.40718 0.70936 0.0
H1666 H 0.38939 0.3844 0.79793 0.0
H1667 H 0.38215 0.38205 0.91677 0.0
H1668 H 0.37338 0.6087 0.06371 0.0
H1669 H 0.37412 0.60365 0.18406 0.0
H1670 H 0.38892 0.65673 0.21665 0.0
H1671 H 0.38611 0.6623 0.09502 0.0
H1672 H 0.39519 0.60652 0.28759 0.0
H1673 H 0.34342 0.65628 0.31475 0.0
H1674 H 0.34732 0.64546 0.2357 0.0
H1675 H 0.36188 0.66177 0.26522 0.0
C1676 C 0.37739 0.61914 0.09645 0.0
C1677 C 0.37926 0.63595 0.07144 0.0
C1678 C 0.37762 0.61629 0.16518 0.0
C1679 C 0.38059 0.63007 0.20919 0.0
C1680 C 0.3856 0.64621 0.18323 0.0
H1681 H 0.39377 0.65062 0.5983 0.0
H1682 H 0.3873 0.64731 0.47961 0.0
C1683 C 0.38449 0.6493 0.11408 0.0
C1684 C 0.37706 0.62754 0.28135 0.0
H1685 H 0.35248 0.64193 0.41221 0.0
C1686 C 0.38574 0.61416 0.31472 0.0
C1687 C 0.36424 0.63717 0.31575 0.0
C1688 C 0.35356 0.6509 0.28125 0.0
C1689 C 0.38297 0.611 0.38311 0.0
C1690 C 0.37124 0.62153 0.41865 0.0
C1691 C 0.36145 0.63393 0.38421 0.0
C1692 C 0.37303 0.62355 0.49171 0.0
C1693 C 0.39367 0.59746 0.41838 0.0
C1694 C 0.36698 0.61122 0.53755 0.0
C1695 C 0.37076 0.61303 0.60602 0.0
C1696 C 0.3807 0.62712 0.6288 0.0
C1697 C 0.38636 0.6395 0.58241 0.0
C1698 C 0.38249 0.63775 0.51467 0.0
H1699 H 0.40116 0.58941 0.38249 0.0
H1700 H 0.40282 0.60385 0.45337 0.0
H1701 H 0.38525 0.58889 0.44864 0.0
H1702 H 0.35966 0.60017 0.52033 0.0
H1703 H 0.36606 0.60338 0.64086 0.0
H1704 H 0.66249 0.62696 0.89052 0.0
H1705 H 0.66117 0.62562 0.76686 0.0
H1706 H 0.60939 0.60553 0.77863 0.0
H1707 H 0.61098 0.60612 0.90108 0.0
H1708 H 0.64983 0.59742 0.67021 0.0
H1709 H 0.60611 0.65462 0.67961 0.0
H1710 H 0.62193 0.65027 0.74418 0.0
H1711 H 0.6025 0.6378 0.74039 0.0
C1712 C 0.6513 0.62132 0.86641 0.0
C1713 C 0.63673 0.6169 0.90414 0.0
C1714 C 0.65037 0.62097 0.79621 0.0
C1715 C 0.63487 0.61627 0.76456 0.0
C1716 C 0.62123 0.60968 0.80263 0.0
H1717 H 0.59806 0.61184 0.35126 0.0
H1718 H 0.59958 0.61085 0.47525 0.0
C1719 C 0.62231 0.60965 0.87225 0.0
C1720 C 0.63262 0.61847 0.69183 0.0
H1721 H 0.6101 0.64134 0.5743 0.0
C1722 C 0.64124 0.60705 0.64896 0.0
C1723 C 0.62133 0.63112 0.66514 0.0
C1724 C 0.61247 0.64428 0.70937 0.0
C1725 C 0.63867 0.60772 0.57934 0.0
C1726 C 0.62714 0.62014 0.55278 0.0
C1727 C 0.61862 0.63165 0.5956 0.0
C1728 C 0.62495 0.62244 0.48008 0.0
C1729 C 0.64817 0.59513 0.53469 0.0
C1730 C 0.63802 0.63062 0.44374 0.0
C1731 C 0.63687 0.63173 0.3743 0.0
C1732 C 0.62286 0.62429 0.3404 0.0
C1733 C 0.6089 0.6177 0.37691 0.0
C1734 C 0.60995 0.6168 0.44711 0.0
H1735 H 0.65531 0.58523 0.56407 0.0
H1736 H 0.63895 0.58853 0.5006 0.0
H1737 H 0.65754 0.60222 0.50287 0.0
H1738 H 0.64944 0.63544 0.46888 0.0
H1739 H 0.64772 0.63694 0.34655 0.0
H1740 H 0.59275 0.36132 0.60828 0.0
H1741 H 0.59473 0.36375 0.48834 0.0
H1742 H 0.64709 0.38219 0.50542 0.0
H1743 H 0.64546 0.37884 0.62947 0.0
H1744 H 0.60119 0.39218 0.41002 0.0
H1745 H 0.64945 0.3392 0.37729 0.0
H1746 H 0.63647 0.34092 0.4523 0.0
H1747 H 0.65371 0.35587 0.43818 0.0
C1748 C 0.60482 0.3658 0.58705 0.0
C1749 C 0.61916 0.36937 0.62765 0.0
C1750 C 0.60583 0.36734 0.51837 0.0
C1751 C 0.62106 0.37293 0.4883 0.0
C1752 C 0.63531 0.37759 0.52839 0.0
H1753 H 0.64216 0.3721 0.07423 0.0
H1754 H 0.63844 0.3809 0.19019 0.0
C1755 C 0.63435 0.37582 0.59863 0.0
C1756 C 0.62139 0.37303 0.41458 0.0
H1757 H 0.63543 0.34945 0.28102 0.0
C1758 C 0.60889 0.38308 0.38134 0.0
C1759 C 0.63093 0.36056 0.37855 0.0
C1760 C 0.64336 0.3484 0.41301 0.0
C1761 C 0.60557 0.38087 0.3127 0.0
C1762 C 0.61543 0.36874 0.27672 0.0
C1763 C 0.628 0.3588 0.30959 0.0
C1764 C 0.61446 0.36713 0.20355 0.0
C1765 C 0.59162 0.39134 0.27903 0.0
C1766 C 0.60175 0.35696 0.17243 0.0
C1767 C 0.60377 0.35195 0.10519 0.0
C1768 C 0.61874 0.35672 0.07052 0.0
C1769 C 0.6308 0.36773 0.101 0.0
C1770 C 0.62857 0.37304 0.16669 0.0
H1771 H 0.58435 0.39945 0.3154 0.0
H1772 H 0.59746 0.39984 0.24033 0.0
H1773 H 0.58243 0.38264 0.25298 0.0
H1774 H 0.59082 0.35225 0.20092 0.0
H1775 H 0.59412 0.34392 0.08134 0.0
H1776 H 0.87835 0.6406 0.82341 0.0
H1777 H 0.88623 0.63694 0.94049 0.0
H1778 H 0.84444 0.60078 0.96652 0.0
H1779 H 0.83722 0.60349 0.84569 0.0
H1780 H 0.85862 0.64713 0.02198 0.0
H1781 H 0.88457 0.58173 0.08371 0.0
H1782 H 0.88873 0.59162 0.00297 0.0
H1783 H 0.86757 0.5839 0.02251 0.0
C1784 C 0.87111 0.6315 0.8536 0.0
C1785 C 0.85701 0.62253 0.82676 0.0
C1786 C 0.87573 0.62932 0.92015 0.0
C1787 C 0.86593 0.61864 0.96173 0.0
C1788 C 0.85227 0.60892 0.9345 0.0
H1789 H 0.84438 0.60778 0.35295 0.0
H1790 H 0.8443 0.61621 0.23545 0.0
C1791 C 0.84795 0.61069 0.86641 0.0
C1792 C 0.86785 0.62089 0.02857 0.0
H1793 H 0.8805 0.60125 0.17324 0.0
C1794 C 0.86355 0.63716 0.05516 0.0
C1795 C 0.87433 0.60783 0.07087 0.0
C1796 C 0.87914 0.59025 0.04405 0.0
C1797 C 0.86508 0.64058 0.12392 0.0
C1798 C 0.87124 0.62745 0.16636 0.0
C1799 C 0.87609 0.61136 0.13957 0.0
C1800 C 0.86931 0.62845 0.23945 0.0
C1801 C 0.85943 0.65782 0.15148 0.0
C1802 C 0.88298 0.63368 0.28102 0.0
C1803 C 0.88304 0.6289 0.34899 0.0
C1804 C 0.86969 0.61847 0.37392 0.0
C1805 C 0.85526 0.61501 0.33361 0.0
C1806 C 0.85501 0.62012 0.26702 0.0
H1807 H 0.85596 0.66708 0.11102 0.0
H1808 H 0.84805 0.656 0.18463 0.0
H1809 H 0.86989 0.66345 0.18263 0.0
H1810 H 0.89404 0.64028 0.26001 0.0
H1811 H 0.89392 0.6323 0.38048 0.0
H1812 H 0.62528 0.15582 0.61768 0.0
H1813 H 0.62569 0.15285 0.7393 0.0
H1814 H 0.62754 0.09742 0.71957 0.0
H1815 H 0.62672 0.10033 0.59583 0.0
H1816 H 0.59524 0.12677 0.79352 0.0
H1817 H 0.66367 0.12226 0.87886 0.0
H1818 H 0.65799 0.13336 0.80221 0.0
H1819 H 0.65644 0.11033 0.80591 0.0
C1820 C 0.62633 0.14299 0.63911 0.0
C1821 C 0.62553 0.12826 0.59808 0.0
C1822 C 0.6265 0.14134 0.70841 0.0
C1823 C 0.62624 0.12496 0.73764 0.0
C1824 C 0.62754 0.11015 0.69709 0.0
H1825 H 0.61515 0.11258 0.16066 0.0
H1826 H 0.61434 0.10624 0.04065 0.0
C1827 C 0.62727 0.11181 0.62687 0.0
C1828 C 0.62259 0.1239 0.80988 0.0
H1829 H 0.64234 0.12662 0.96234 0.0
C1830 C 0.60544 0.12632 0.83082 0.0
C1831 C 0.63607 0.1239 0.85733 0.0
C1832 C 0.65464 0.12236 0.83552 0.0
C1833 C 0.60149 0.12925 0.89862 0.0
C1834 C 0.615 0.12935 0.94586 0.0
C1835 C 0.63207 0.12637 0.92533 0.0
C1836 C 0.61186 0.13298 0.01103 0.0
C1837 C 0.5831 0.1327 0.91967 0.0
C1838 C 0.6101 0.1501 0.03332 0.0
C1839 C 0.61087 0.1538 0.10196 0.0
C1840 C 0.61298 0.1403 0.1479 0.0
C1841 C 0.61312 0.12311 0.12565 0.0
C1842 C 0.61283 0.11947 0.0574 0.0
H1843 H 0.57393 0.13155 0.877 0.0
H1844 H 0.57927 0.12351 0.95983 0.0
H1845 H 0.58207 0.14591 0.94091 0.0
H1846 H 0.60945 0.16061 -0.00248 0.0
H1847 H 0.61111 0.16711 0.11864 0.0
H1848 H 0.11569 0.34816 0.38019 0.0
H1849 H 0.11396 0.34499 0.25615 0.0
H1850 H 0.12752 0.39869 0.23332 0.0
H1851 H 0.12831 0.40209 0.35409 0.0
H1852 H 0.09499 0.36873 0.15389 0.0
H1853 H 0.16647 0.37024 0.13156 0.0
H1854 H 0.15547 0.36145 0.20406 0.0
H1855 H 0.15764 0.38439 0.19439 0.0
C1856 C 0.11771 0.35928 0.34814 0.0
C1857 C 0.12271 0.3752 0.37554 0.0
C1858 C 0.11704 0.35742 0.27797 0.0
C1859 C 0.12154 0.37146 0.23664 0.0
C1860 C 0.1247 0.38763 0.26479 0.0
H1861 H 0.14303 0.40033 0.83098 0.0
H1862 H 0.13329 0.40399 0.94855 0.0
C1863 C 0.12496 0.38955 0.3336 0.0
C1864 C 0.12258 0.3702 0.16341 0.0
H1865 H 0.15041 0.37877 0.03534 0.0
C1866 C 0.10708 0.37057 0.1274 0.0
C1867 C 0.13844 0.373 0.13011 0.0
C1868 C 0.1555 0.37212 0.16677 0.0
C1869 C 0.10696 0.37427 0.05853 0.0
C1870 C 0.12276 0.37759 0.02563 0.0
C1871 C 0.13829 0.37689 0.06158 0.0
C1872 C 0.12413 0.37768 0.95823 0.0
C1873 C 0.09 0.37475 0.02143 0.0
C1874 C 0.12213 0.36183 0.92602 0.0
C1875 C 0.12842 0.35951 0.86171 0.0
C1876 C 0.1364 0.37318 0.82709 0.0
C1877 C 0.13731 0.38953 0.8574 0.0
C1878 C 0.13145 0.3917 0.92352 0.0
H1879 H 0.0789 0.37616 0.05637 0.0
H1880 H 0.08978 0.38555 -0.01529 0.0
H1881 H 0.08833 0.36253 -0.00692 0.0
H1882 H 0.11686 0.35081 0.95254 0.0
H1883 H 0.12705 0.34682 0.8395 0.0
H1884 H 0.37506 0.82806 0.12363 0.0
H1885 H 0.37891 0.83217 0.00177 0.0
H1886 H 0.37949 0.88741 0.03083 0.0
H1887 H 0.3767 0.88327 0.15158 0.0
H1888 H 0.35185 0.84952 0.94761 0.0
H1889 H 0.41357 0.88214 0.8839 0.0
H1890 H 0.41081 0.86964 0.95987 0.0
H1891 H 0.40235 0.89119 0.95451 0.0
C1892 C 0.37683 0.84095 0.10373 0.0
C1893 C 0.37565 0.85536 0.14574 0.0
C1894 C 0.37901 0.84332 0.03465 0.0
C1895 C 0.37952 0.86009 0.00758 0.0
C1896 C 0.37956 0.87439 0.05066 0.0
H1897 H 0.36951 0.90343 0.61834 0.0
H1898 H 0.36334 0.8995 0.73882 0.0
C1899 C 0.37781 0.87201 0.11949 0.0
C1900 C 0.37624 0.86279 0.94144 0.0
H1901 H 0.39154 0.88257 0.80086 0.0
C1902 C 0.36058 0.85661 0.91521 0.0
C1903 C 0.38752 0.87237 0.90016 0.0
C1904 C 0.40457 0.87912 0.92575 0.0
C1905 C 0.35592 0.85964 0.84823 0.0
C1906 C 0.36716 0.86926 0.807 0.0
C1907 C 0.38279 0.87551 0.83332 0.0
C1908 C 0.36415 0.87157 0.73446 0.0
C1909 C 0.33911 0.85249 0.82208 0.0
C1910 C 0.36538 0.85716 0.69219 0.0
C1911 C 0.36857 0.85942 0.62401 0.0
C1912 C 0.37083 0.87607 0.59784 0.0
C1913 C 0.36782 0.89053 0.63824 0.0
C1914 C 0.36429 0.88826 0.70659 0.0
H1915 H 0.33007 0.84931 0.86359 0.0
H1916 H 0.33277 0.86179 0.78749 0.0
H1917 H 0.34171 0.84045 0.79356 0.0
H1918 H 0.36562 0.84421 0.71275 0.0
H1919 H 0.37094 0.84813 0.59301 0.0
H1920 H 0.89079 0.88493 0.39411 0.0
H1921 H 0.89255 0.88439 0.27165 0.0
H1922 H 0.83732 0.87842 0.25989 0.0
H1923 H 0.83563 0.87815 0.38347 0.0
H1924 H 0.8756 0.85086 0.20514 0.0
H1925 H 0.85651 0.91619 0.11309 0.0
H1926 H 0.8666 0.91301 0.19403 0.0
H1927 H 0.84461 0.90674 0.18173 0.0
C1928 C 0.87894 0.88444 0.36516 0.0
C1929 C 0.86309 0.88142 0.39702 0.0
C1930 C 0.88002 0.88378 0.29563 0.0
C1931 C 0.86513 0.88083 0.2578 0.0
C1932 C 0.84892 0.88041 0.28921 0.0
H1933 H 0.84578 0.87388 0.85233 0.0
H1934 H 0.84489 0.86419 0.969 0.0
C1935 C 0.84789 0.88065 0.35928 0.0
C1936 C 0.8668 0.87686 0.18616 0.0
H1937 H 0.86241 0.89494 0.03182 0.0
C1938 C 0.87269 0.86039 0.16682 0.0
C1939 C 0.86316 0.88947 0.13749 0.0
C1940 C 0.85743 0.90741 0.15709 0.0
C1941 C 0.87481 0.8562 0.0986 0.0
C1942 C 0.87091 0.86883 0.05001 0.0
C1943 C 0.86519 0.88527 0.0698 0.0
C1944 C 0.87248 0.86591 0.98349 0.0
C1945 C 0.88105 0.8385 0.07841 0.0
C1946 C 0.88845 0.86888 0.9522 0.0
C1947 C 0.88897 0.87459 0.88548 0.0
C1948 C 0.87348 0.87738 0.85104 0.0
C1949 C 0.85779 0.87231 0.87965 0.0
C1950 C 0.85729 0.8664 0.94545 0.0
H1951 H 0.88281 0.82985 0.12242 0.0
H1952 H 0.87171 0.83252 0.04308 0.0
H1953 H 0.89353 0.83966 0.05147 0.0
H1954 H 0.90026 0.86858 0.98126 0.0
H1955 H 0.9012 0.87794 0.8627 0.0
H1956 H 0.87835 0.15148 0.11293 0.0
H1957 H 0.8714 0.15244 -0.00578 0.0
H1958 H 0.86542 0.09707 -0.0078 0.0
H1959 H 0.87187 0.09613 0.114 0.0
H1960 H 0.89911 0.12776 0.93807 0.0
H1961 H 0.8312 0.12402 0.84609 0.0
H1962 H 0.83633 0.13412 0.92552 0.0
H1963 H 0.83816 0.1112 0.9171 0.0
C1964 C 0.87489 0.13957 0.08778 0.0
C1965 C 0.87626 0.12365 0.12082 0.0
C1966 C 0.87073 0.14018 0.02034 0.0
C1967 C 0.86825 0.12482 -0.01507 0.0
C1968 C 0.86739 0.10901 0.01947 0.0
H1969 H 0.88231 0.10742 0.5746 0.0
H1970 H 0.88517 0.10503 0.69629 0.0
C1971 C 0.87127 0.10843 0.08825 0.0
C1972 C 0.87183 0.1253 0.91883 0.0
H1973 H 0.85321 0.12832 0.76456 0.0
C1974 C 0.88913 0.12772 0.89985 0.0
C1975 C 0.85865 0.12559 0.87035 0.0
C1976 C 0.83998 0.12363 0.8902 0.0
C1977 C 0.8936 0.13063 0.83282 0.0
C1978 C 0.88047 0.13078 0.78425 0.0
C1979 C 0.86316 0.1282 0.80288 0.0
C1980 C 0.88448 0.13261 0.71286 0.0
C1981 C 0.91218 0.13365 0.81377 0.0
C1982 C 0.88459 0.14899 0.68275 0.0
C1983 C 0.88277 0.15039 0.61315 0.0
C1984 C 0.88103 0.13537 0.57485 0.0
C1985 C 0.88371 0.11912 0.60412 0.0
C1986 C 0.88516 0.11772 0.67333 0.0
H1987 H 0.9209 0.1334 0.85807 0.0
H1988 H 0.91641 0.12362 0.77743 0.0
H1989 H 0.91343 0.14636 0.78837 0.0
H1990 H 0.88426 0.16056 0.71337 0.0
H1991 H 0.88066 0.16296 0.59073 0.0
H1992 H 0.13428 0.14165 0.8367 0.0
H1993 H 0.13377 0.14639 0.95908 0.0
H1994 H 0.1097 0.09669 0.98593 0.0
H1995 H 0.11079 0.09172 0.86397 0.0
H1996 H 0.10637 0.14303 0.0652 0.0
H1997 H 0.15873 0.09372 0.06953 0.0
H1998 H 0.15451 0.10718 -0.00275 0.0
H1999 H 0.14081 0.0891 0.01524 0.0
C2000 C 0.12849 0.13199 0.86897 0.0
C2001 C 0.12259 0.11633 0.84184 0.0
C2002 C 0.12817 0.13472 0.93854 0.0
C2003 C 0.12182 0.12181 0.98136 0.0
C2004 C 0.11471 0.10674 0.9535 0.0
H2005 H 0.12266 0.0946 0.39562 0.0
H2006 H 0.11693 0.09681 0.27471 0.0
C2007 C 0.11531 0.10389 0.88416 0.0
C2008 C 0.12485 0.12265 0.04877 0.0
H2009 H 0.14671 0.10158 0.17286 0.0
C2010 C 0.11529 0.13414 0.08899 0.0
C2011 C 0.13666 0.11115 0.07933 0.0
C2012 C 0.14841 0.09966 0.0384 0.0
C2013 C 0.11682 0.13383 0.15968 0.0
C2014 C 0.12816 0.12171 0.18959 0.0
C2015 C 0.13784 0.11058 0.14929 0.0
C2016 C 0.13121 0.1206 0.26248 0.0
C2017 C 0.10609 0.14594 0.20204 0.0
C2018 C 0.14254 0.13224 0.29344 0.0
C2019 C 0.14646 0.13052 0.36163 0.0
C2020 C 0.13866 0.11744 0.39959 0.0
C2021 C 0.12897 0.10467 0.36688 0.0
C2022 C 0.12511 0.10633 0.29871 0.0
H2023 H 0.09744 0.15416 0.17103 0.0
H2024 H 0.09814 0.13839 0.23799 0.0
H2025 H 0.11466 0.15441 0.23214 0.0
H2026 H 0.14798 0.14287 0.2652 0.0
H2027 H 0.15379 0.14062 0.3862 0.0
H2028 H 0.1096 0.88182 0.56208 0.0
H2029 H 0.11119 0.88858 0.68146 0.0
H2030 H 0.12109 0.83493 0.72569 0.0
H2031 H 0.12105 0.82833 0.60456 0.0
H2032 H 0.09223 0.87454 0.79042 0.0
H2033 H 0.16246 0.85946 0.8124 0.0
H2034 H 0.15309 0.86755 0.73539 0.0
H2035 H 0.14939 0.84567 0.76069 0.0
C2036 C 0.11174 0.87139 0.59738 0.0
C2037 C 0.11514 0.85455 0.575 0.0
C2038 C 0.11283 0.87532 0.66524 0.0
C2039 C 0.11676 0.86232 0.71146 0.0
C2040 C 0.11859 0.84516 0.68986 0.0
H2041 H 0.12129 0.84935 0.1229 0.0
H2042 H 0.12526 0.848 0.00125 0.0
C2043 C 0.11819 0.84132 0.62139 0.0
C2044 C 0.1188 0.86675 0.78252 0.0
H2045 H 0.14758 0.86628 0.91191 0.0
C2046 C 0.10435 0.87298 0.81704 0.0
C2047 C 0.13473 0.86466 0.8161 0.0
C2048 C 0.15088 0.85906 0.77952 0.0
C2049 C 0.10514 0.87641 0.88591 0.0
C2050 C 0.12098 0.87397 0.91979 0.0
C2051 C 0.13557 0.8682 0.88491 0.0
C2052 C 0.12211 0.87553 -0.01319 0.0
C2053 C 0.08881 0.88135 0.92279 0.0
C2054 C 0.11999 0.89161 0.01831 0.0
C2055 C 0.11739 0.89236 0.08758 0.0
C2056 C 0.11742 0.87706 0.1247 0.0
C2057 C 0.12135 0.86125 0.09415 0.0
C2058 C 0.12355 0.86046 0.02514 0.0
H2059 H 0.0775 0.88222 0.88867 0.0
H2060 H 0.08602 0.87165 0.9624 0.0
H2061 H 0.09045 0.89403 0.94787 0.0
H2062 H 0.11918 0.90333 -0.01118 0.0
H2063 H 0.11436 0.90459 0.11129 0.0
loop_
_geom_bond_atom_site_label_1
_geom_bond_atom_site_label_2
_geom_bond_distance
_geom_bond_site_symmetry_2
_ccdc_geom_bond_type
O0 Mg1 1.990 . S
O0 C14 1.253 . S
Mg1 O0 1.990 . S
Mg1 O4 2.180 . S
Mg1 O5 2.117 . S
Mg1 O19 2.030 . S
O2 Mg3 2.072 . S
O2 C14 1.260 . S
Mg3 O2 2.072 . S
Mg3 O4 2.099 . S
Mg3 O6 2.079 . S
Mg3 O7 2.072 . S
Mg3 O9 2.099 . S
Mg3 O20 2.079 . S
O4 Mg1 2.180 . S
O4 Mg3 2.099 . S
O4 C15 1.279 . S
O5 Mg1 2.117 . S
O5 C15 1.250 . S
O6 Mg3 2.079 . S
O6 C16 1.264 1_554 S
O7 Mg3 2.072 . S
O7 C17 1.260 . S
Mg8 O9 2.180 . S
Mg8 O10 2.030 1_554 S
Mg8 O11 1.990 . S
Mg8 O12 2.117 . S
O9 Mg3 2.099 . S
O9 Mg8 2.180 . S
O9 C18 1.279 . S
O10 Mg8 2.030 1_556 S
O10 C16 1.248 . S
O11 Mg8 1.990 . S
O11 C17 1.253 . S
O12 Mg8 2.117 . S
O12 C18 1.250 . S
C13 O19 1.248 . S
C13 O20 1.264 . S
C14 O0 1.253 . S
C14 O2 1.260 . S
C15 O4 1.279 . S
C15 O5 1.250 . S
C16 O6 1.264 1_556 S
C16 O10 1.248 . S
C17 O7 1.260 . S
C17 O11 1.253 . S
C18 O9 1.279 . S
C18 O12 1.250 . S
O19 Mg1 2.030 . S
O19 C13 1.248 . S
O20 Mg3 2.079 . S
O20 C13 1.264 . S
O21 Mg22 1.990 . S
O21 C35 1.253 . S
Mg22 O21 1.990 . S
Mg22 O25 2.180 . S
Mg22 O26 2.117 . S
Mg22 O40 2.030 . S
O23 Mg24 2.072 . S
O23 C35 1.260 . S
Mg24 O23 2.072 . S
Mg24 O25 2.099 . S
Mg24 O27 2.079 . S
Mg24 O28 2.072 . S
Mg24 O30 2.099 . S
Mg24 O41 2.079 . S
O25 Mg22 2.180 . S
O25 Mg24 2.099 . S
O25 C36 1.279 . S
O26 Mg22 2.117 . S
O26 C36 1.250 . S
O27 Mg24 2.079 . S
O27 C37 1.264 1_556 S
O28 Mg24 2.072 . S
O28 C38 1.260 . S
Mg29 O30 2.180 . S
Mg29 O31 2.030 1_556 S
Mg29 O32 1.990 . S
Mg29 O33 2.117 . S
O30 Mg24 2.099 . S
O30 Mg29 2.180 . S
O30 C39 1.279 . S
O31 Mg29 2.030 1_554 S
O31 C37 1.248 . S
O32 Mg29 1.990 . S
O32 C38 1.253 . S
O33 Mg29 2.117 . S
O33 C39 1.250 . S
C34 O40 1.248 . S
C34 O41 1.264 . S
C35 O21 1.253 . S
C35 O23 1.260 . S
C36 O25 1.279 . S
C36 O26 1.250 . S
C37 O27 1.264 1_554 S
C37 O31 1.248 . S
C38 O28 1.260 . S
C38 O32 1.253 . S
C39 O30 1.279 . S
C39 O33 1.250 . S
O40 Mg22 2.030 . S
O40 C34 1.248 . S
O41 Mg24 2.079 . S
O41 C34 1.264 . S
O42 Mg43 1.990 . S
O42 C56 1.253 . S
Mg43 O42 1.990 . S
Mg43 O46 2.180 . S
Mg43 O47 2.117 . S
Mg43 O61 2.030 . S
O44 Mg45 2.072 . S
O44 C56 1.260 . S
Mg45 O44 2.072 . S
Mg45 O46 2.099 . S
Mg45 O48 2.079 . S
Mg45 O49 2.072 . S
Mg45 O51 2.099 . S
Mg45 O62 2.079 . S
O46 Mg43 2.180 . S
O46 Mg45 2.099 . S
O46 C57 1.279 . S
O47 Mg43 2.117 . S
O47 C57 1.250 . S
O48 Mg45 2.079 . S
O48 C58 1.264 1_554 S
O49 Mg45 2.072 . S
O49 C59 1.260 . S
Mg50 O51 2.180 . S
Mg50 O52 2.030 1_554 S
Mg50 O53 1.990 . S
Mg50 O54 2.117 . S
O51 Mg45 2.099 . S
O51 Mg50 2.180 . S
O51 C60 1.279 . S
O52 Mg50 2.030 1_556 S
O52 C58 1.248 . S
O53 Mg50 1.990 . S
O53 C59 1.253 . S
O54 Mg50 2.117 . S
O54 C60 1.250 . S
C55 O61 1.248 . S
C55 O62 1.264 . S
C56 O42 1.253 . S
C56 O44 1.260 . S
C57 O46 1.279 . S
C57 O47 1.250 . S
C58 O48 1.264 1_556 S
C58 O52 1.248 . S
C59 O49 1.260 . S
C59 O53 1.253 . S
C60 O51 1.279 . S
C60 O54 1.250 . S
O61 Mg43 2.030 . S
O61 C55 1.248 . S
O62 Mg45 2.079 . S
O62 C55 1.264 . S
O63 Mg64 1.990 . S
O63 C77 1.253 . S
Mg64 O63 1.990 . S
Mg64 O67 2.180 . S
Mg64 O68 2.117 . S
Mg64 O82 2.030 . S
O65 Mg66 2.072 . S
O65 C77 1.260 . S
Mg66 O65 2.072 . S
Mg66 O67 2.099 . S
Mg66 O69 2.079 . S
Mg66 O70 2.072 . S
Mg66 O72 2.099 . S
Mg66 O83 2.079 . S
O67 Mg64 2.180 . S
O67 Mg66 2.099 . S
O67 C78 1.279 . S
O68 Mg64 2.117 . S
O68 C78 1.250 . S
O69 Mg66 2.079 . S
O69 C79 1.264 1_556 S
O70 Mg66 2.072 . S
O70 C80 1.260 . S
Mg71 O72 2.180 . S
Mg71 O73 2.030 1_556 S
Mg71 O74 1.990 . S
Mg71 O75 2.117 . S
O72 Mg66 2.099 . S
O72 Mg71 2.180 . S
O72 C81 1.279 . S
O73 Mg71 2.030 1_554 S
O73 C79 1.248 . S
O74 Mg71 1.990 . S
O74 C80 1.253 . S
O75 Mg71 2.117 . S
O75 C81 1.250 . S
C76 O82 1.248 . S
C76 O83 1.264 . S
C77 O63 1.253 . S
C77 O65 1.260 . S
C78 O67 1.279 . S
C78 O68 1.250 . S
C79 O69 1.264 1_554 S
C79 O73 1.248 . S
C80 O70 1.260 . S
C80 O74 1.253 . S
C81 O72 1.279 . S
C81 O75 1.250 . S
O82 Mg64 2.030 . S
O82 C76 1.248 . S
O83 Mg66 2.079 . S
O83 C76 1.264 . S
O84 Mg85 1.990 1_556 S
O84 C98 1.253 . S
Mg85 O84 1.990 1_554 S
Mg85 O88 2.180 . S
Mg85 O89 2.117 . S
Mg85 O103 2.030 . S
O86 Mg87 2.072 . S
O86 C98 1.260 1_554 S
Mg87 O86 2.072 . S
Mg87 O88 2.099 . S
Mg87 O90 2.079 . S
Mg87 O91 2.072 . S
Mg87 O93 2.099 . S
Mg87 O104 2.079 . S
O88 Mg85 2.180 . S
O88 Mg87 2.099 . S
O88 C99 1.279 . S
O89 Mg85 2.117 . S
O89 C99 1.250 . S
O90 Mg87 2.079 . S
O90 C100 1.264 . S
O91 Mg87 2.072 . S
O91 C101 1.260 . S
Mg92 O93 2.180 . S
Mg92 O94 2.030 . S
Mg92 O95 1.990 . S
Mg92 O96 2.117 . S
O93 Mg87 2.099 . S
O93 Mg92 2.180 . S
O93 C102 1.279 . S
O94 Mg92 2.030 . S
O94 C100 1.248 . S
O95 Mg92 1.990 . S
O95 C101 1.253 . S
O96 Mg92 2.117 . S
O96 C102 1.250 . S
C97 O103 1.248 . S
C97 O104 1.264 . S
C98 O84 1.253 . S
C98 O86 1.260 1_556 S
C99 O88 1.279 . S
C99 O89 1.250 . S
C100 O90 1.264 . S
C100 O94 1.248 . S
C101 O91 1.260 . S
C101 O95 1.253 . S
C102 O93 1.279 . S
C102 O96 1.250 . S
O103 Mg85 2.030 . S
O103 C97 1.248 . S
O104 Mg87 2.079 . S
O104 C97 1.264 . S
O105 Mg106 1.990 1_554 S
O105 C119 1.253 . S
Mg106 O105 1.990 1_556 S
Mg106 O109 2.180 . S
Mg106 O110 2.117 . S
Mg106 O124 2.030 . S
O107 Mg108 2.072 . S
O107 C119 1.260 1_556 S
Mg108 O107 2.072 . S
Mg108 O109 2.099 . S
Mg108 O111 2.079 . S
Mg108 O112 2.072 . S
Mg108 O114 2.099 . S
Mg108 O125 2.079 . S
O109 Mg106 2.180 . S
O109 Mg108 2.099 . S
O109 C120 1.279 . S
O110 Mg106 2.117 . S
O110 C120 1.250 . S
O111 Mg108 2.079 . S
O111 C121 1.264 . S
O112 Mg108 2.072 . S
O112 C122 1.260 . S
Mg113 O114 2.180 . S
Mg113 O115 2.030 . S
Mg113 O116 1.990 . S
Mg113 O117 2.117 . S
O114 Mg108 2.099 . S
O114 Mg113 2.180 . S
O114 C123 1.279 . S
O115 Mg113 2.030 . S
O115 C121 1.248 . S
O116 Mg113 1.990 . S
O116 C122 1.253 . S
O117 Mg113 2.117 . S
O117 C123 1.250 . S
C118 O124 1.248 . S
C118 O125 1.264 . S
C119 O105 1.253 . S
C119 O107 1.260 1_554 S
C120 O109 1.279 . S
C120 O110 1.250 . S
C121 O111 1.264 . S
C121 O115 1.248 . S
C122 O112 1.260 . S
C122 O116 1.253 . S
C123 O114 1.279 . S
C123 O117 1.250 . S
O124 Mg106 2.030 . S
O124 C118 1.248 . S
O125 Mg108 2.079 . S
O125 C118 1.264 . S
O126 Mg127 1.990 . S
O126 C140 1.253 . S
Mg127 O126 1.990 . S
Mg127 O130 2.180 . S
Mg127 O131 2.117 . S
Mg127 O145 2.030 . S
O128 Mg129 2.072 . S
O128 C140 1.260 . S
Mg129 O128 2.072 . S
Mg129 O130 2.099 . S
Mg129 O132 2.079 . S
Mg129 O133 2.072 . S
Mg129 O135 2.099 . S
Mg129 O146 2.079 . S
O130 Mg127 2.180 . S
O130 Mg129 2.099 . S
O130 C141 1.279 . S
O131 Mg127 2.117 . S
O131 C141 1.250 . S
O132 Mg129 2.079 . S
O132 C142 1.264 . S
O133 Mg129 2.072 . S
O133 C143 1.260 1_554 S
Mg134 O135 2.180 . S
Mg134 O136 2.030 . S
Mg134 O137 1.990 1_554 S
Mg134 O138 2.117 . S
O135 Mg129 2.099 . S
O135 Mg134 2.180 . S
O135 C144 1.279 . S
O136 Mg134 2.030 . S
O136 C142 1.248 . S
O137 Mg134 1.990 1_556 S
O137 C143 1.253 . S
O138 Mg134 2.117 . S
O138 C144 1.250 . S
C139 O145 1.248 . S
C139 O146 1.264 . S
C140 O126 1.253 . S
C140 O128 1.260 . S
C141 O130 1.279 . S
C141 O131 1.250 . S
C142 O132 1.264 . S
C142 O136 1.248 . S
C143 O133 1.260 1_556 S
C143 O137 1.253 . S
C144 O135 1.279 . S
C144 O138 1.250 . S
O145 Mg127 2.030 . S
O145 C139 1.248 . S
O146 Mg129 2.079 . S
O146 C139 1.264 . S
O147 Mg148 1.990 1_554 S
O147 C161 1.253 . S
Mg148 O147 1.990 1_556 S
Mg148 O151 2.180 . S
Mg148 O152 2.117 . S
Mg148 O166 2.030 . S
O149 Mg150 2.072 . S
O149 C161 1.260 1_556 S
Mg150 O149 2.072 . S
Mg150 O151 2.099 . S
Mg150 O153 2.079 . S
Mg150 O154 2.072 . S
Mg150 O156 2.099 . S
Mg150 O167 2.079 . S
O151 Mg148 2.180 . S
O151 Mg150 2.099 . S
O151 C162 1.279 . S
O152 Mg148 2.117 . S
O152 C162 1.250 . S
O153 Mg150 2.079 . S
O153 C163 1.264 . S
O154 Mg150 2.072 . S
O154 C164 1.260 . S
Mg155 O156 2.180 . S
Mg155 O157 2.030 . S
Mg155 O158 1.990 . S
Mg155 O159 2.117 . S
O156 Mg150 2.099 . S
O156 Mg155 2.180 . S
O156 C165 1.279 . S
O157 Mg155 2.030 . S
O157 C163 1.248 . S
O158 Mg155 1.990 . S
O158 C164 1.253 . S
O159 Mg155 2.117 . S
O159 C165 1.250 . S
C160 O166 1.248 . S
C160 O167 1.264 . S
C161 O147 1.253 . S
C161 O149 1.260 1_554 S
C162 O151 1.279 . S
C162 O152 1.250 . S
C163 O153 1.264 . S
C163 O157 1.248 . S
C164 O154 1.260 . S
C164 O158 1.253 . S
C165 O156 1.279 . S
C165 O159 1.250 . S
O166 Mg148 2.030 . S
O166 C160 1.248 . S
O167 Mg150 2.079 . S
O167 C160 1.264 . S
O168 Mg169 1.990 . S
O168 C182 1.253 . S
Mg169 O168 1.990 . S
Mg169 O172 2.180 . S
Mg169 O173 2.117 . S
Mg169 O187 2.030 . S
O170 Mg171 2.072 . S
O170 C182 1.260 . S
Mg171 O170 2.072 . S
Mg171 O172 2.099 . S
Mg171 O174 2.079 . S
Mg171 O175 2.072 . S
Mg171 O177 2.099 . S
Mg171 O188 2.079 . S
O172 Mg169 2.180 . S
O172 Mg171 2.099 . S
O172 C183 1.279 . S
O173 Mg169 2.117 . S
O173 C183 1.250 . S
O174 Mg171 2.079 . S
O174 C184 1.264 . S
O175 Mg171 2.072 . S
O175 C185 1.260 . S
Mg176 O177 2.180 . S
Mg176 O178 2.030 . S
Mg176 O179 1.990 . S
Mg176 O180 2.117 . S
O177 Mg171 2.099 . S
O177 Mg176 2.180 . S
O177 C186 1.279 . S
O178 Mg176 2.030 . S
O178 C184 1.248 . S
O179 Mg176 1.990 . S
O179 C185 1.253 . S
O180 Mg176 2.117 . S
O180 C186 1.250 . S
C181 O187 1.248 . S
C181 O188 1.264 . S
C182 O168 1.253 . S
C182 O170 1.260 . S
C183 O172 1.279 . S
C183 O173 1.250 . S
C184 O174 1.264 . S
C184 O178 1.248 . S
C185 O175 1.260 . S
C185 O179 1.253 . S
C186 O177 1.279 . S
C186 O180 1.250 . S
O187 Mg169 2.030 . S
O187 C181 1.248 . S
O188 Mg171 2.079 . S
O188 C181 1.264 . S
O189 Mg190 1.990 . S
O189 C203 1.253 . S
Mg190 O189 1.990 . S
Mg190 O193 2.180 . S
Mg190 O194 2.117 . S
Mg190 O208 2.030 . S
O191 Mg192 2.072 . S
O191 C203 1.260 . S
Mg192 O191 2.072 . S
Mg192 O193 2.099 . S
Mg192 O195 2.079 . S
Mg192 O196 2.072 . S
Mg192 O198 2.099 . S
Mg192 O209 2.079 . S
O193 Mg190 2.180 . S
O193 Mg192 2.099 . S
O193 C204 1.279 . S
O194 Mg190 2.117 . S
O194 C204 1.250 . S
O195 Mg192 2.079 . S
O195 C205 1.264 . S
O196 Mg192 2.072 . S
O196 C206 1.260 . S
Mg197 O198 2.180 . S
Mg197 O199 2.030 . S
Mg197 O200 1.990 . S
Mg197 O201 2.117 . S
O198 Mg192 2.099 . S
O198 Mg197 2.180 . S
O198 C207 1.279 . S
O199 Mg197 2.030 . S
O199 C205 1.248 . S
O200 Mg197 1.990 . S
O200 C206 1.253 . S
O201 Mg197 2.117 . S
O201 C207 1.250 . S
C202 O208 1.248 . S
C202 O209 1.264 . S
C203 O189 1.253 . S
C203 O191 1.260 . S
C204 O193 1.279 . S
C204 O194 1.250 . S
C205 O195 1.264 . S
C205 O199 1.248 . S
C206 O196 1.260 . S
C206 O200 1.253 . S
C207 O198 1.279 . S
C207 O201 1.250 . S
O208 Mg190 2.030 . S
O208 C202 1.248 . S
O209 Mg192 2.079 . S
O209 C202 1.264 . S
O210 Mg211 1.990 . S
O210 C224 1.253 . S
Mg211 O210 1.990 . S
Mg211 O214 2.180 . S
Mg211 O215 2.117 . S
Mg211 O229 2.030 . S
O212 Mg213 2.072 . S
O212 C224 1.260 . S
Mg213 O212 2.072 . S
Mg213 O214 2.099 . S
Mg213 O216 2.079 . S
Mg213 O217 2.072 . S
Mg213 O219 2.099 . S
Mg213 O230 2.079 . S
O214 Mg211 2.180 . S
O214 Mg213 2.099 . S
O214 C225 1.279 . S
O215 Mg211 2.117 . S
O215 C225 1.250 . S
O216 Mg213 2.079 . S
O216 C226 1.264 . S
O217 Mg213 2.072 . S
O217 C227 1.260 . S
Mg218 O219 2.180 . S
Mg218 O220 2.030 . S
Mg218 O221 1.990 . S
Mg218 O222 2.117 . S
O219 Mg213 2.099 . S
O219 Mg218 2.180 . S
O219 C228 1.279 . S
O220 Mg218 2.030 . S
O220 C226 1.248 . S
O221 Mg218 1.990 . S
O221 C227 1.253 . S
O222 Mg218 2.117 . S
O222 C228 1.250 . S
C223 O229 1.248 . S
C223 O230 1.264 . S
C224 O210 1.253 . S
C224 O212 1.260 . S
C225 O214 1.279 . S
C225 O215 1.250 . S
C226 O216 1.264 . S
C226 O220 1.248 . S
C227 O217 1.260 . S
C227 O221 1.253 . S
C228 O219 1.279 . S
C228 O222 1.250 . S
O229 Mg211 2.030 . S
O229 C223 1.248 . S
O230 Mg213 2.079 . S
O230 C223 1.264 . S
O231 Mg232 1.990 . S
O231 C245 1.253 . S
Mg232 O231 1.990 . S
Mg232 O235 2.180 . S
Mg232 O236 2.117 . S
Mg232 O250 2.030 . S
O233 Mg234 2.072 . S
O233 C245 1.260 . S
Mg234 O233 2.072 . S
Mg234 O235 2.099 . S
Mg234 O237 2.079 . S
Mg234 O238 2.072 . S
Mg234 O240 2.099 . S
Mg234 O251 2.079 . S
O235 Mg232 2.180 . S
O235 Mg234 2.099 . S
O235 C246 1.279 . S
O236 Mg232 2.117 . S
O236 C246 1.250 . S
O237 Mg234 2.079 . S
O237 C247 1.264 . S
O238 Mg234 2.072 . S
O238 C248 1.260 . S
Mg239 O240 2.180 . S
Mg239 O241 2.030 . S
Mg239 O242 1.990 . S
Mg239 O243 2.117 . S
O240 Mg234 2.099 . S
O240 Mg239 2.180 . S
O240 C249 1.279 . S
O241 Mg239 2.030 . S
O241 C247 1.248 . S
O242 Mg239 1.990 . S
O242 C248 1.253 . S
O243 Mg239 2.117 . S
O243 C249 1.250 . S
C244 O250 1.248 . S
C244 O251 1.264 . S
C245 O231 1.253 . S
C245 O233 1.260 . S
C246 O235 1.279 . S
C246 O236 1.250 . S
C247 O237 1.264 . S
C247 O241 1.248 . S
C248 O238 1.260 . S
C248 O242 1.253 . S
C249 O240 1.279 . S
C249 O243 1.250 . S
O250 Mg232 2.030 . S
O250 C244 1.248 . S
O251 Mg234 2.079 . S
O251 C244 1.264 . S
O252 Mg253 1.990 . S
O252 C266 1.253 . S
Mg253 O252 1.990 . S
Mg253 O256 2.180 . S
Mg253 O257 2.117 . S
Mg253 O271 2.030 . S
O254 Mg255 2.072 . S
O254 C266 1.260 . S
Mg255 O254 2.072 . S
Mg255 O256 2.099 . S
Mg255 O258 2.079 . S
Mg255 O259 2.072 . S
Mg255 O261 2.099 . S
Mg255 O272 2.079 . S
O256 Mg253 2.180 . S
O256 Mg255 2.099 . S
O256 C267 1.279 . S
O257 Mg253 2.117 . S
O257 C267 1.250 . S
O258 Mg255 2.079 . S
O258 C268 1.264 . S
O259 Mg255 2.072 . S
O259 C269 1.260 . S
Mg260 O261 2.180 . S
Mg260 O262 2.030 . S
Mg260 O263 1.990 . S
Mg260 O264 2.117 . S
O261 Mg255 2.099 . S
O261 Mg260 2.180 . S
O261 C270 1.279 . S
O262 Mg260 2.030 . S
O262 C268 1.248 . S
O263 Mg260 1.990 . S
O263 C269 1.253 . S
O264 Mg260 2.117 . S
O264 C270 1.250 . S
C265 O271 1.248 . S
C265 O272 1.264 . S
C266 O252 1.253 . S
C266 O254 1.260 . S
C267 O256 1.279 . S
C267 O257 1.250 . S
C268 O258 1.264 . S
C268 O262 1.248 . S
C269 O259 1.260 . S
C269 O263 1.253 . S
C270 O261 1.279 . S
C270 O264 1.250 . S
O271 Mg253 2.030 . S
O271 C265 1.248 . S
O272 Mg255 2.079 . S
O272 C265 1.264 . S
O273 Mg274 1.990 . S
O273 C287 1.253 . S
Mg274 O273 1.990 . S
Mg274 O277 2.180 . S
Mg274 O278 2.117 . S
Mg274 O292 2.030 . S
O275 Mg276 2.072 . S
O275 C287 1.260 . S
Mg276 O275 2.072 . S
Mg276 O277 2.099 . S
Mg276 O279 2.079 . S
Mg276 O280 2.072 . S
Mg276 O282 2.099 . S
Mg276 O293 2.079 . S
O277 Mg274 2.180 . S
O277 Mg276 2.099 . S
O277 C288 1.279 . S
O278 Mg274 2.117 . S
O278 C288 1.250 . S
O279 Mg276 2.079 . S
O279 C289 1.264 . S
O280 Mg276 2.072 . S
O280 C290 1.260 . S
Mg281 O282 2.180 . S
Mg281 O283 2.030 . S
Mg281 O284 1.990 . S
Mg281 O285 2.117 . S
O282 Mg276 2.099 . S
O282 Mg281 2.180 . S
O282 C291 1.279 . S
O283 Mg281 2.030 . S
O283 C289 1.248 . S
O284 Mg281 1.990 . S
O284 C290 1.253 . S
O285 Mg281 2.117 . S
O285 C291 1.250 . S
C286 O292 1.248 . S
C286 O293 1.264 . S
C287 O273 1.253 . S
C287 O275 1.260 . S
C288 O277 1.279 . S
C288 O278 1.250 . S
C289 O279 1.264 . S
C289 O283 1.248 . S
C290 O280 1.260 . S
C290 O284 1.253 . S
C291 O282 1.279 . S
C291 O285 1.250 . S
O292 Mg274 2.030 . S
O292 C286 1.248 . S
O293 Mg276 2.079 . S
O293 C286 1.264 . S
O294 Mg295 1.990 . S
O294 C308 1.253 . S
Mg295 O294 1.990 . S
Mg295 O298 2.180 . S
Mg295 O299 2.117 . S
Mg295 O313 2.030 . S
O296 Mg297 2.072 . S
O296 C308 1.260 . S
Mg297 O296 2.072 . S
Mg297 O298 2.099 . S
Mg297 O300 2.079 . S
Mg297 O301 2.072 . S
Mg297 O303 2.099 . S
Mg297 O314 2.079 . S
O298 Mg295 2.180 . S
O298 Mg297 2.099 . S
O298 C309 1.279 . S
O299 Mg295 2.117 . S
O299 C309 1.250 . S
O300 Mg297 2.079 . S
O300 C310 1.264 . S
O301 Mg297 2.072 . S
O301 C311 1.260 . S
Mg302 O303 2.180 . S
Mg302 O304 2.030 . S
Mg302 O305 1.990 . S
Mg302 O306 2.117 . S
O303 Mg297 2.099 . S
O303 Mg302 2.180 . S
O303 C312 1.279 . S
O304 Mg302 2.030 . S
O304 C310 1.248 . S
O305 Mg302 1.990 . S
O305 C311 1.253 . S
O306 Mg302 2.117 . S
O306 C312 1.250 . S
C307 O313 1.248 . S
C307 O314 1.264 . S
C308 O294 1.253 . S
C308 O296 1.260 . S
C309 O298 1.279 . S
C309 O299 1.250 . S
C310 O300 1.264 . S
C310 O304 1.248 . S
C311 O301 1.260 . S
C311 O305 1.253 . S
C312 O303 1.279 . S
C312 O306 1.250 . S
O313 Mg295 2.030 . S
O313 C307 1.248 . S
O314 Mg297 2.079 . S
O314 C307 1.264 . S
O315 Mg316 1.990 . S
O315 C329 1.253 . S
Mg316 O315 1.990 . S
Mg316 O319 2.180 . S
Mg316 O320 2.117 . S
Mg316 O334 2.030 . S
O317 Mg318 2.072 . S
O317 C329 1.260 . S
Mg318 O317 2.072 . S
Mg318 O319 2.099 . S
Mg318 O321 2.079 . S
Mg318 O322 2.072 . S
Mg318 O324 2.099 . S
Mg318 O335 2.079 . S
O319 Mg316 2.180 . S
O319 Mg318 2.099 . S
O319 C330 1.279 . S
O320 Mg316 2.117 . S
O320 C330 1.250 . S
O321 Mg318 2.079 . S
O321 C331 1.264 . S
O322 Mg318 2.072 . S
O322 C332 1.260 . S
Mg323 O324 2.180 . S
Mg323 O325 2.030 . S
Mg323 O326 1.990 . S
Mg323 O327 2.117 . S
O324 Mg318 2.099 . S
O324 Mg323 2.180 . S
O324 C333 1.279 . S
O325 Mg323 2.030 . S
O325 C331 1.248 . S
O326 Mg323 1.990 . S
O326 C332 1.253 . S
O327 Mg323 2.117 . S
O327 C333 1.250 . S
C328 O334 1.248 . S
C328 O335 1.264 . S
C329 O315 1.253 . S
C329 O317 1.260 . S
C330 O319 1.279 . S
C330 O320 1.250 . S
C331 O321 1.264 . S
C331 O325 1.248 . S
C332 O322 1.260 . S
C332 O326 1.253 . S
C333 O324 1.279 . S
C333 O327 1.250 . S
O334 Mg316 2.030 . S
O334 C328 1.248 . S
O335 Mg318 2.079 . S
O335 C328 1.264 . S
H336 C344 0.929 . S
H337 C346 0.930 . S
H338 C348 0.930 . S
H339 C351 0.929 . S
H340 C354 0.930 . S
H341 C356 0.960 . S
H342 C356 0.960 . S
H343 C356 0.960 . S
C344 H336 0.929 . S
C344 C345 1.377 . S
C344 C346 1.384 . S
C345 C344 1.377 . S
C345 C351 1.390 . S
C346 H337 0.930 . S
C346 C344 1.384 . S
C346 C347 1.372 . S
C347 C346 1.372 . S
C347 C348 1.400 . S
C347 C352 1.490 . S
C348 H338 0.930 . S
C348 C347 1.400 . S
C348 C351 1.386 . S
H349 C365 0.930 . S
H350 C366 0.931 . S
C351 H339 0.929 . S
C351 C345 1.390 . S
C351 C348 1.386 . S
C352 C347 1.490 . S
C352 C354 1.395 . S
C352 C355 1.403 . S
H353 C359 0.930 . S
C354 H340 0.930 . S
C354 C352 1.395 . S
C354 C357 1.403 1_565 S
C355 C352 1.403 . S
C355 C356 1.524 . S
C355 C359 1.400 1_565 S
C356 H341 0.960 . S
C356 H342 0.960 . S
C356 H343 0.960 . S
C356 C355 1.524 . S
C357 C354 1.403 1_545 S
C357 C358 1.392 . S
C357 C361 1.495 . S
C358 C357 1.392 . S
C358 C359 1.385 . S
C358 C360 1.478 . S
C359 H353 0.930 . S
C359 C355 1.400 1_545 S
C359 C358 1.385 . S
C360 C358 1.478 . S
C360 C362 1.381 . S
C360 C366 1.383 . S
C361 C357 1.495 . S
C361 H367 0.959 . S
C361 H368 0.961 . S
C361 H369 0.960 . S
C362 C360 1.381 . S
C362 C363 1.394 . S
C362 H370 0.930 . S
C363 C362 1.394 . S
C363 C364 1.383 . S
C363 H371 0.929 . S
C364 C363 1.383 . S
C364 C365 1.377 . S
C365 H349 0.930 . S
C365 C364 1.377 . S
C365 C366 1.379 . S
C366 H350 0.931 . S
C366 C360 1.383 . S
C366 C365 1.379 . S
H367 C361 0.959 . S
H368 C361 0.961 . S
H369 C361 0.960 . S
H370 C362 0.930 . S
H371 C363 0.929 . S
H372 C380 0.929 . S
H373 C382 0.930 . S
H374 C384 0.930 . S
H375 C387 0.929 . S
H376 C390 0.930 . S
H377 C392 0.960 1_455 S
H378 C392 0.960 . S
H379 C392 0.960 . S
C380 H372 0.929 . S
C380 C381 1.377 . S
C380 C382 1.384 . S
C381 C380 1.377 . S
C381 C387 1.390 . S
C382 H373 0.930 . S
C382 C380 1.384 . S
C382 C383 1.372 . S
C383 C382 1.372 . S
C383 C384 1.400 . S
C383 C388 1.490 . S
C384 H374 0.930 . S
C384 C383 1.400 . S
C384 C387 1.386 . S
H385 C401 0.930 . S
H386 C402 0.931 . S
C387 H375 0.929 . S
C387 C381 1.390 . S
C387 C384 1.386 . S
C388 C383 1.490 . S
C388 C390 1.395 . S
C388 C391 1.403 . S
H389 C395 0.930 . S
C390 H376 0.930 . S
C390 C388 1.395 . S
C390 C393 1.403 1_655 S
C391 C388 1.403 . S
C391 C392 1.524 . S
C391 C395 1.400 1_655 S
C392 H377 0.960 1_655 S
C392 H378 0.960 . S
C392 H379 0.960 . S
C392 C391 1.524 . S
C393 C390 1.403 1_455 S
C393 C394 1.392 . S
C393 C397 1.495 . S
C394 C393 1.392 . S
C394 C395 1.385 . S
C394 C396 1.478 . S
C395 H389 0.930 . S
C395 C391 1.400 1_455 S
C395 C394 1.385 . S
C396 C394 1.478 . S
C396 C398 1.381 . S
C396 C402 1.383 . S
C397 C393 1.495 . S
C397 H403 0.959 1_455 S
C397 H404 0.961 . S
C397 H405 0.960 . S
C398 C396 1.381 . S
C398 C399 1.394 . S
C398 H406 0.930 . S
C399 C398 1.394 . S
C399 C400 1.383 . S
C399 H407 0.929 . S
C400 C399 1.383 . S
C400 C401 1.377 . S
C401 H385 0.930 . S
C401 C400 1.377 . S
C401 C402 1.379 . S
C402 H386 0.931 . S
C402 C396 1.383 . S
C402 C401 1.379 . S
H403 C397 0.959 1_655 S
H404 C397 0.961 . S
H405 C397 0.960 . S
H406 C398 0.930 . S
H407 C399 0.929 . S
H408 C416 0.929 . S
H409 C418 0.930 . S
H410 C420 0.930 . S
H411 C423 0.929 . S
H412 C426 0.930 . S
H413 C428 0.960 1_545 S
H414 C428 0.960 . S
H415 C428 0.960 . S
C416 H408 0.929 . S
C416 C417 1.377 . S
C416 C418 1.384 . S
C417 C416 1.377 . S
C417 C423 1.390 . S
C418 H409 0.930 . S
C418 C416 1.384 . S
C418 C419 1.372 . S
C419 C418 1.372 . S
C419 C420 1.400 . S
C419 C424 1.490 . S
C420 H410 0.930 . S
C420 C419 1.400 . S
C420 C423 1.386 . S
H421 C437 0.930 . S
H422 C438 0.931 . S
C423 H411 0.929 . S
C423 C417 1.390 . S
C423 C420 1.386 . S
C424 C419 1.490 . S
C424 C426 1.395 . S
C424 C427 1.403 . S
H425 C431 0.930 . S
C426 H412 0.930 . S
C426 C424 1.395 . S
C426 C429 1.403 1_565 S
C427 C424 1.403 . S
C427 C428 1.524 . S
C427 C431 1.400 1_565 S
C428 H413 0.960 1_565 S
C428 H414 0.960 . S
C428 H415 0.960 . S
C428 C427 1.524 . S
C429 C426 1.403 1_545 S
C429 C430 1.392 . S
C429 C433 1.495 . S
C430 C429 1.392 . S
C430 C431 1.385 . S
C430 C432 1.478 . S
C431 H425 0.930 . S
C431 C427 1.400 1_545 S
C431 C430 1.385 . S
C432 C430 1.478 . S
C432 C434 1.381 . S
C432 C438 1.383 . S
C433 C429 1.495 . S
C433 H439 0.959 1_545 S
C433 H440 0.961 . S
C433 H441 0.960 . S
C434 C432 1.381 . S
C434 C435 1.394 . S
C434 H442 0.930 . S
C435 C434 1.394 . S
C435 C436 1.383 . S
C435 H443 0.929 . S
C436 C435 1.383 . S
C436 C437 1.377 . S
C437 H421 0.930 . S
C437 C436 1.377 . S
C437 C438 1.379 . S
C438 H422 0.931 . S
C438 C432 1.383 . S
C438 C437 1.379 . S
H439 C433 0.959 1_565 S
H440 C433 0.961 . S
H441 C433 0.960 . S
H442 C434 0.930 . S
H443 C435 0.929 . S
H444 C452 0.929 . S
H445 C454 0.930 . S
H446 C456 0.930 . S
H447 C459 0.929 . S
H448 C462 0.930 . S
H449 C464 0.960 1_455 S
H450 C464 0.960 . S
H451 C464 0.960 . S
C452 H444 0.929 . S
C452 C453 1.377 . S
C452 C454 1.384 . S
C453 C452 1.377 . S
C453 C459 1.390 . S
C454 H445 0.930 . S
C454 C452 1.384 . S
C454 C455 1.372 . S
C455 C454 1.372 . S
C455 C456 1.400 . S
C455 C460 1.490 . S
C456 H446 0.930 . S
C456 C455 1.400 . S
C456 C459 1.386 . S
H457 C473 0.930 . S
H458 C474 0.931 . S
C459 H447 0.929 . S
C459 C453 1.390 . S
C459 C456 1.386 . S
C460 C455 1.490 . S
C460 C462 1.395 . S
C460 C463 1.403 . S
H461 C467 0.930 . S
C462 H448 0.930 . S
C462 C460 1.395 . S
C462 C465 1.403 1_655 S
C463 C460 1.403 . S
C463 C464 1.524 . S
C463 C467 1.400 1_655 S
C464 H449 0.960 1_655 S
C464 H450 0.960 . S
C464 H451 0.960 . S
C464 C463 1.524 . S
C465 C462 1.403 1_455 S
C465 C466 1.392 . S
C465 C469 1.495 . S
C466 C465 1.392 . S
C466 C467 1.385 . S
C466 C468 1.478 . S
C467 H461 0.930 . S
C467 C463 1.400 1_455 S
C467 C466 1.385 . S
C468 C466 1.478 . S
C468 C470 1.381 . S
C468 C474 1.383 . S
C469 C465 1.495 . S
C469 H475 0.959 1_455 S
C469 H476 0.961 . S
C469 H477 0.960 . S
C470 C468 1.381 . S
C470 C471 1.394 . S
C470 H478 0.930 . S
C471 C470 1.394 . S
C471 C472 1.383 . S
C471 H479 0.929 . S
C472 C471 1.383 . S
C472 C473 1.377 . S
C473 H457 0.930 . S
C473 C472 1.377 . S
C473 C474 1.379 . S
C474 H458 0.931 . S
C474 C468 1.383 . S
C474 C473 1.379 . S
H475 C469 0.959 1_655 S
H476 C469 0.961 . S
H477 C469 0.960 . S
H478 C470 0.930 . S
H479 C471 0.929 . S
H480 C488 0.929 1_556 S
H481 C490 0.930 . S
H482 C492 0.930 . S
H483 C495 0.929 . S
H484 C498 0.930 . S
H485 C500 0.960 . S
H486 C500 0.960 . S
H487 C500 0.960 . S
C488 H480 0.929 1_554 S
C488 C489 1.377 . S
C488 C490 1.384 1_554 S
C489 C488 1.377 . S
C489 C495 1.390 . S
C490 H481 0.930 . S
C490 C488 1.384 1_556 S
C490 C491 1.372 1_556 S
C491 C490 1.372 1_554 S
C491 C492 1.400 . S
C491 C496 1.490 . S
C492 H482 0.930 . S
C492 C491 1.400 . S
C492 C495 1.386 . S
H493 C509 0.930 . S
H494 C510 0.931 . S
C495 H483 0.929 . S
C495 C489 1.390 . S
C495 C492 1.386 . S
C496 C491 1.490 . S
C496 C498 1.393 1_554 S
C496 C499 1.403 . S
H497 C503 0.930 . S
C498 H484 0.930 . S
C498 C496 1.393 1_556 S
C498 C501 1.405 . S
C499 C496 1.403 . S
C499 C500 1.524 . S
C499 C503 1.400 . S
C500 H485 0.960 . S
C500 H486 0.960 . S
C500 H487 0.960 . S
C500 C499 1.524 . S
C501 C498 1.405 . S
C501 C502 1.392 . S
C501 C505 1.495 . S
C502 C501 1.392 . S
C502 C503 1.385 1_556 S
C502 C504 1.478 . S
C503 H497 0.930 . S
C503 C499 1.400 . S
C503 C502 1.385 1_554 S
C504 C502 1.478 . S
C504 C506 1.381 . S
C504 C510 1.383 1_556 S
C505 C501 1.495 . S
C505 H511 0.959 . S
C505 H512 0.961 . S
C505 H513 0.960 . S
C506 C504 1.381 . S
C506 C507 1.394 . S
C506 H514 0.930 . S
C507 C506 1.394 . S
C507 C508 1.383 . S
C507 H515 0.929 . S
C508 C507 1.383 . S
C508 C509 1.377 1_556 S
C509 H493 0.930 . S
C509 C508 1.377 1_554 S
C509 C510 1.379 . S
C510 H494 0.931 . S
C510 C504 1.383 1_554 S
C510 C509 1.379 . S
H511 C505 0.959 . S
H512 C505 0.961 . S
H513 C505 0.960 . S
H514 C506 0.930 . S
H515 C507 0.929 . S
H516 C524 0.929 . S
H517 C526 0.930 . S
H518 C528 0.930 . S
H519 C531 0.929 1_556 S
H520 C534 0.930 . S
H521 C536 0.960 . S
H522 C536 0.960 . S
H523 C536 0.960 . S
C524 H516 0.929 . S
C524 C525 1.377 . S
C524 C526 1.384 . S
C525 C524 1.377 . S
C525 C531 1.390 . S
C526 H517 0.930 . S
C526 C524 1.384 . S
C526 C527 1.372 . S
C527 C526 1.372 . S
C527 C528 1.400 1_554 S
C527 C532 1.490 . S
C528 H518 0.930 . S
C528 C527 1.400 1_556 S
C528 C531 1.386 1_556 S
H529 C545 0.930 . S
H530 C546 0.931 . S
C531 H519 0.929 1_554 S
C531 C525 1.390 . S
C531 C528 1.386 1_554 S
C532 C527 1.490 . S
C532 C534 1.395 . S
C532 C535 1.403 1_554 S
H533 C539 0.930 . S
C534 H520 0.930 . S
C534 C532 1.395 . S
C534 C537 1.403 . S
C535 C532 1.403 1_556 S
C535 C536 1.524 . S
C535 C539 1.400 . S
C536 H521 0.960 . S
C536 H522 0.960 . S
C536 H523 0.960 . S
C536 C535 1.524 . S
C537 C534 1.403 . S
C537 C538 1.392 1_554 S
C537 C541 1.495 . S
C538 C537 1.392 1_556 S
C538 C539 1.385 . S
C538 C540 1.478 . S
C539 H533 0.930 . S
C539 C535 1.400 . S
C539 C538 1.385 . S
C540 C538 1.478 . S
C540 C542 1.381 1_556 S
C540 C546 1.383 . S
C541 C537 1.495 . S
C541 H547 0.959 . S
C541 H548 0.961 . S
C541 H549 0.960 . S
C542 C540 1.381 1_554 S
C542 C543 1.394 1_554 S
C542 H550 0.930 . S
C543 C542 1.394 1_556 S
C543 C544 1.383 . S
C543 H551 0.929 1_556 S
C544 C543 1.383 . S
C544 C545 1.377 . S
C545 H529 0.930 . S
C545 C544 1.377 . S
C545 C546 1.379 . S
C546 H530 0.931 . S
C546 C540 1.383 . S
C546 C545 1.379 . S
H547 C541 0.959 . S
H548 C541 0.961 . S
H549 C541 0.960 . S
H550 C542 0.930 . S
H551 C543 0.929 1_554 S
H552 C560 0.929 . S
H553 C562 0.930 . S
H554 C564 0.930 . S
H555 C567 0.929 . S
H556 C570 0.930 . S
H557 C572 0.960 . S
H558 C572 0.960 . S
H559 C572 0.960 . S
C560 H552 0.929 . S
C560 C561 1.377 . S
C560 C562 1.384 . S
C561 C560 1.377 . S
C561 C567 1.390 . S
C562 H553 0.930 . S
C562 C560 1.384 . S
C562 C563 1.372 . S
C563 C562 1.372 . S
C563 C564 1.400 . S
C563 C568 1.490 . S
C564 H554 0.930 . S
C564 C563 1.400 . S
C564 C567 1.386 . S
H565 C581 0.930 . S
H566 C582 0.931 . S
C567 H555 0.929 . S
C567 C561 1.390 . S
C567 C564 1.386 . S
C568 C563 1.490 . S
C568 C570 1.395 1_554 S
C568 C571 1.403 . S
H569 C575 0.930 . S
C570 H556 0.930 . S
C570 C568 1.395 1_556 S
C570 C573 1.403 . S
C571 C568 1.403 . S
C571 C572 1.524 . S
C571 C575 1.400 . S
C572 H557 0.960 . S
C572 H558 0.960 . S
C572 H559 0.960 . S
C572 C571 1.524 . S
C573 C570 1.403 . S
C573 C574 1.392 . S
C573 C577 1.495 . S
C574 C573 1.392 . S
C574 C575 1.385 1_556 S
C574 C576 1.478 . S
C575 H569 0.930 . S
C575 C571 1.400 . S
C575 C574 1.385 1_554 S
C576 C574 1.478 . S
C576 C578 1.381 . S
C576 C582 1.383 . S
C577 C573 1.495 . S
C577 H583 0.959 . S
C577 H584 0.961 . S
C577 H585 0.960 . S
C578 C576 1.381 . S
C578 C579 1.394 . S
C578 H586 0.930 . S
C579 C578 1.394 . S
C579 C580 1.383 . S
C579 H587 0.929 . S
C580 C579 1.383 . S
C580 C581 1.377 . S
C581 H565 0.930 . S
C581 C580 1.377 . S
C581 C582 1.379 . S
C582 H566 0.931 . S
C582 C576 1.383 . S
C582 C581 1.379 . S
H583 C577 0.959 . S
H584 C577 0.961 . S
H585 C577 0.960 . S
H586 C578 0.930 . S
H587 C579 0.929 . S
H588 C596 0.929 1_556 S
H589 C598 0.930 . S
H590 C600 0.930 . S
H591 C603 0.929 . S
H592 C606 0.930 . S
H593 C608 0.960 . S
H594 C608 0.960 . S
H595 C608 0.960 . S
C596 H588 0.929 1_554 S
C596 C597 1.377 . S
C596 C598 1.384 1_554 S
C597 C596 1.377 . S
C597 C603 1.390 . S
C598 H589 0.930 . S
C598 C596 1.384 1_556 S
C598 C599 1.372 1_556 S
C599 C598 1.372 1_554 S
C599 C600 1.400 . S
C599 C604 1.490 . S
C600 H590 0.930 . S
C600 C599 1.400 . S
C600 C603 1.386 . S
H601 C617 0.930 . S
H602 C618 0.931 1_554 S
C603 H591 0.929 . S
C603 C597 1.390 . S
C603 C600 1.386 . S
C604 C599 1.490 . S
C604 C606 1.395 1_554 S
C604 C607 1.403 . S
H605 C611 0.930 . S
C606 H592 0.930 . S
C606 C604 1.395 1_556 S
C606 C609 1.403 . S
C607 C604 1.403 . S
C607 C608 1.524 . S
C607 C611 1.400 . S
C608 H593 0.960 . S
C608 H594 0.960 . S
C608 H595 0.960 . S
C608 C607 1.524 . S
C609 C606 1.403 . S
C609 C610 1.392 . S
C609 C613 1.495 . S
C610 C609 1.392 . S
C610 C611 1.385 1_556 S
C610 C612 1.478 . S
C611 H605 0.930 . S
C611 C607 1.400 . S
C611 C610 1.385 1_554 S
C612 C610 1.478 . S
C612 C614 1.381 . S
C612 C618 1.383 . S
C613 C609 1.495 . S
C613 H619 0.959 . S
C613 H620 0.961 . S
C613 H621 0.960 . S
C614 C612 1.381 . S
C614 C615 1.394 . S
C614 H622 0.930 . S
C615 C614 1.394 . S
C615 C616 1.383 . S
C615 H623 0.929 . S
C616 C615 1.383 . S
C616 C617 1.377 . S
C617 H601 0.930 . S
C617 C616 1.377 . S
C617 C618 1.379 . S
C618 H602 0.931 1_556 S
C618 C612 1.383 . S
C618 C617 1.379 . S
H619 C613 0.959 . S
H620 C613 0.961 . S
H621 C613 0.960 . S
H622 C614 0.930 . S
H623 C615 0.929 . S
H624 C632 0.929 . S
H625 C634 0.930 . S
H626 C636 0.930 . S
H627 C639 0.929 . S
H628 C642 0.930 . S
H629 C644 0.960 . S
H630 C644 0.960 . S
H631 C644 0.960 . S
C632 H624 0.929 . S
C632 C633 1.377 . S
C632 C634 1.384 . S
C633 C632 1.377 . S
C633 C639 1.390 . S
C634 H625 0.930 . S
C634 C632 1.384 . S
C634 C635 1.372 . S
C635 C634 1.372 . S
C635 C636 1.400 . S
C635 C640 1.490 . S
C636 H626 0.930 . S
C636 C635 1.400 . S
C636 C639 1.386 . S
H637 C653 0.930 . S
H638 C654 0.931 . S
C639 H627 0.929 . S
C639 C633 1.390 . S
C639 C636 1.386 . S
C640 C635 1.490 . S
C640 C642 1.395 . S
C640 C643 1.403 . S
H641 C647 0.930 . S
C642 H628 0.930 . S
C642 C640 1.395 . S
C642 C645 1.403 . S
C643 C640 1.403 . S
C643 C644 1.524 . S
C643 C647 1.400 . S
C644 H629 0.960 . S
C644 H630 0.960 . S
C644 H631 0.960 . S
C644 C643 1.524 . S
C645 C642 1.403 . S
C645 C646 1.392 . S
C645 C649 1.495 . S
C646 C645 1.392 . S
C646 C647 1.385 . S
C646 C648 1.478 . S
C647 H641 0.930 . S
C647 C643 1.400 . S
C647 C646 1.385 . S
C648 C646 1.478 . S
C648 C650 1.381 . S
C648 C654 1.383 . S
C649 C645 1.495 . S
C649 H655 0.959 . S
C649 H656 0.961 . S
C649 H657 0.960 . S
C650 C648 1.381 . S
C650 C651 1.394 . S
C650 H658 0.930 . S
C651 C650 1.394 . S
C651 C652 1.383 . S
C651 H659 0.929 . S
C652 C651 1.383 . S
C652 C653 1.377 . S
C653 H637 0.930 . S
C653 C652 1.377 . S
C653 C654 1.379 . S
C654 H638 0.931 . S
C654 C648 1.383 . S
C654 C653 1.379 . S
H655 C649 0.959 . S
H656 C649 0.961 . S
H657 C649 0.960 . S
H658 C650 0.930 . S
H659 C651 0.929 . S
H660 C668 0.929 . S
H661 C670 0.930 . S
H662 C672 0.930 . S
H663 C675 0.929 . S
H664 C678 0.930 . S
H665 C680 0.960 . S
H666 C680 0.960 . S
H667 C680 0.960 . S
C668 H660 0.929 . S
C668 C669 1.377 . S
C668 C670 1.384 . S
C669 C668 1.377 . S
C669 C675 1.390 . S
C670 H661 0.930 . S
C670 C668 1.384 . S
C670 C671 1.372 . S
C671 C670 1.372 . S
C671 C672 1.400 . S
C671 C676 1.490 . S
C672 H662 0.930 . S
C672 C671 1.400 . S
C672 C675 1.386 . S
H673 C689 0.930 . S
H674 C690 0.931 . S
C675 H663 0.929 . S
C675 C669 1.390 . S
C675 C672 1.386 . S
C676 C671 1.490 . S
C676 C678 1.395 . S
C676 C679 1.403 . S
H677 C683 0.930 . S
C678 H664 0.930 . S
C678 C676 1.395 . S
C678 C681 1.403 . S
C679 C676 1.403 . S
C679 C680 1.524 . S
C679 C683 1.400 . S
C680 H665 0.960 . S
C680 H666 0.960 . S
C680 H667 0.960 . S
C680 C679 1.524 . S
C681 C678 1.403 . S
C681 C682 1.392 . S
C681 C685 1.495 . S
C682 C681 1.392 . S
C682 C683 1.385 . S
C682 C684 1.478 . S
C683 H677 0.930 . S
C683 C679 1.400 . S
C683 C682 1.385 . S
C684 C682 1.478 . S
C684 C686 1.381 . S
C684 C690 1.383 . S
C685 C681 1.495 . S
C685 H691 0.959 . S
C685 H692 0.961 . S
C685 H693 0.960 . S
C686 C684 1.381 . S
C686 C687 1.394 . S
C686 H694 0.930 . S
C687 C686 1.394 . S
C687 C688 1.383 . S
C687 H695 0.929 . S
C688 C687 1.383 . S
C688 C689 1.377 . S
C689 H673 0.930 . S
C689 C688 1.377 . S
C689 C690 1.379 . S
C690 H674 0.931 . S
C690 C684 1.383 . S
C690 C689 1.379 . S
H691 C685 0.959 . S
H692 C685 0.961 . S
H693 C685 0.960 . S
H694 C686 0.930 . S
H695 C687 0.929 . S
H696 C704 0.929 . S
H697 C706 0.930 . S
H698 C708 0.930 . S
H699 C711 0.929 . S
H700 C714 0.930 . S
H701 C716 0.960 . S
H702 C716 0.960 . S
H703 C716 0.960 . S
C704 H696 0.929 . S
C704 C705 1.377 . S
C704 C706 1.384 . S
C705 C704 1.377 . S
C705 C711 1.390 . S
C706 H697 0.930 . S
C706 C704 1.384 . S
C706 C707 1.372 . S
C707 C706 1.372 . S
C707 C708 1.400 . S
C707 C712 1.490 . S
C708 H698 0.930 . S
C708 C707 1.400 . S
C708 C711 1.386 . S
H709 C725 0.930 . S
H710 C726 0.931 . S
C711 H699 0.929 . S
C711 C705 1.390 . S
C711 C708 1.386 . S
C712 C707 1.490 . S
C712 C714 1.395 . S
C712 C715 1.403 . S
H713 C719 0.930 . S
C714 H700 0.930 . S
C714 C712 1.395 . S
C714 C717 1.403 . S
C715 C712 1.403 . S
C715 C716 1.524 . S
C715 C719 1.400 . S
C716 H701 0.960 . S
C716 H702 0.960 . S
C716 H703 0.960 . S
C716 C715 1.524 . S
C717 C714 1.403 . S
C717 C718 1.392 . S
C717 C721 1.495 . S
C718 C717 1.392 . S
C718 C719 1.385 . S
C718 C720 1.478 . S
C719 H713 0.930 . S
C719 C715 1.400 . S
C719 C718 1.385 . S
C720 C718 1.478 . S
C720 C722 1.381 . S
C720 C726 1.383 . S
C721 C717 1.495 . S
C721 H727 0.959 . S
C721 H728 0.961 . S
C721 H729 0.960 . S
C722 C720 1.381 . S
C722 C723 1.394 . S
C722 H730 0.930 . S
C723 C722 1.394 . S
C723 C724 1.383 . S
C723 H731 0.929 . S
C724 C723 1.383 . S
C724 C725 1.377 . S
C725 H709 0.930 . S
C725 C724 1.377 . S
C725 C726 1.379 . S
C726 H710 0.931 . S
C726 C720 1.383 . S
C726 C725 1.379 . S
H727 C721 0.959 . S
H728 C721 0.961 . S
H729 C721 0.960 . S
H730 C722 0.930 . S
H731 C723 0.929 . S
H732 C740 0.929 . S
H733 C742 0.930 . S
H734 C744 0.930 . S
H735 C747 0.929 . S
H736 C750 0.930 . S
H737 C752 0.960 . S
H738 C752 0.960 . S
H739 C752 0.960 . S
C740 H732 0.929 . S
C740 C741 1.377 . S
C740 C742 1.384 . S
C741 C740 1.377 . S
C741 C747 1.390 . S
C742 H733 0.930 . S
C742 C740 1.384 . S
C742 C743 1.372 . S
C743 C742 1.372 . S
C743 C744 1.400 . S
C743 C748 1.490 . S
C744 H734 0.930 . S
C744 C743 1.400 . S
C744 C747 1.386 . S
H745 C761 0.930 . S
H746 C762 0.931 . S
C747 H735 0.929 . S
C747 C741 1.390 . S
C747 C744 1.386 . S
C748 C743 1.490 . S
C748 C750 1.395 . S
C748 C751 1.403 . S
H749 C755 0.930 . S
C750 H736 0.930 . S
C750 C748 1.395 . S
C750 C753 1.403 . S
C751 C748 1.403 . S
C751 C752 1.524 . S
C751 C755 1.400 . S
C752 H737 0.960 . S
C752 H738 0.960 . S
C752 H739 0.960 . S
C752 C751 1.524 . S
C753 C750 1.403 . S
C753 C754 1.392 . S
C753 C757 1.495 . S
C754 C753 1.392 . S
C754 C755 1.385 . S
C754 C756 1.478 . S
C755 H749 0.930 . S
C755 C751 1.400 . S
C755 C754 1.385 . S
C756 C754 1.478 . S
C756 C758 1.381 . S
C756 C762 1.383 . S
C757 C753 1.495 . S
C757 H763 0.959 . S
C757 H764 0.961 . S
C757 H765 0.960 . S
C758 C756 1.381 . S
C758 C759 1.394 . S
C758 H766 0.930 . S
C759 C758 1.394 . S
C759 C760 1.383 . S
C759 H767 0.929 . S
C760 C759 1.383 . S
C760 C761 1.377 . S
C761 H745 0.930 . S
C761 C760 1.377 . S
C761 C762 1.379 . S
C762 H746 0.931 . S
C762 C756 1.383 . S
C762 C761 1.379 . S
H763 C757 0.959 . S
H764 C757 0.961 . S
H765 C757 0.960 . S
H766 C758 0.930 . S
H767 C759 0.929 . S
H768 C776 0.929 . S
H769 C778 0.930 . S
H770 C780 0.930 . S
H771 C783 0.929 . S
H772 C786 0.930 . S
H773 C788 0.960 . S
H774 C788 0.960 . S
H775 C788 0.960 . S
C776 H768 0.929 . S
C776 C777 1.377 . S
C776 C778 1.384 . S
C777 C776 1.377 . S
C777 C783 1.390 . S
C778 H769 0.930 . S
C778 C776 1.384 . S
C778 C779 1.372 . S
C779 C778 1.372 . S
C779 C780 1.400 . S
C779 C784 1.490 . S
C780 H770 0.930 . S
C780 C779 1.400 . S
C780 C783 1.386 . S
H781 C797 0.930 . S
H782 C798 0.931 . S
C783 H771 0.929 . S
C783 C777 1.390 . S
C783 C780 1.386 . S
C784 C779 1.490 . S
C784 C786 1.395 . S
C784 C787 1.403 . S
H785 C791 0.930 . S
C786 H772 0.930 . S
C786 C784 1.395 . S
C786 C789 1.403 1_565 S
C787 C784 1.403 . S
C787 C788 1.524 . S
C787 C791 1.400 1_565 S
C788 H773 0.960 . S
C788 H774 0.960 . S
C788 H775 0.960 . S
C788 C787 1.524 . S
C789 C786 1.403 1_545 S
C789 C790 1.392 . S
C789 C793 1.495 . S
C790 C789 1.392 . S
C790 C791 1.385 . S
C790 C792 1.478 . S
C791 H785 0.930 . S
C791 C787 1.400 1_545 S
C791 C790 1.385 . S
C792 C790 1.478 . S
C792 C794 1.381 . S
C792 C798 1.383 . S
C793 C789 1.495 . S
C793 H799 0.959 . S
C793 H800 0.961 . S
C793 H801 0.960 . S
C794 C792 1.381 . S
C794 C795 1.394 . S
C794 H802 0.930 . S
C795 C794 1.394 . S
C795 C796 1.383 . S
C795 H803 0.929 . S
C796 C795 1.383 . S
C796 C797 1.377 . S
C797 H781 0.930 . S
C797 C796 1.377 . S
C797 C798 1.379 . S
C798 H782 0.931 . S
C798 C792 1.383 . S
C798 C797 1.379 . S
H799 C793 0.959 . S
H800 C793 0.961 . S
H801 C793 0.960 . S
H802 C794 0.930 . S
H803 C795 0.929 . S
H804 C812 0.929 . S
H805 C814 0.930 . S
H806 C816 0.930 . S
H807 C819 0.929 . S
H808 C822 0.930 . S
H809 C824 0.960 . S
H810 C824 0.960 . S
H811 C824 0.960 . S
C812 H804 0.929 . S
C812 C813 1.377 . S
C812 C814 1.384 . S
C813 C812 1.377 . S
C813 C819 1.390 . S
C814 H805 0.930 . S
C814 C812 1.384 . S
C814 C815 1.372 . S
C815 C814 1.372 . S
C815 C816 1.400 . S
C815 C820 1.490 . S
C816 H806 0.930 . S
C816 C815 1.400 . S
C816 C819 1.386 . S
H817 C833 0.930 . S
H818 C834 0.931 . S
C819 H807 0.929 . S
C819 C813 1.390 . S
C819 C816 1.386 . S
C820 C815 1.490 . S
C820 C822 1.395 . S
C820 C823 1.403 . S
H821 C827 0.930 . S
C822 H808 0.930 . S
C822 C820 1.395 . S
C822 C825 1.403 1_455 S
C823 C820 1.403 . S
C823 C824 1.524 . S
C823 C827 1.400 1_455 S
C824 H809 0.960 . S
C824 H810 0.960 . S
C824 H811 0.960 . S
C824 C823 1.524 . S
C825 C822 1.403 1_655 S
C825 C826 1.392 . S
C825 C829 1.495 . S
C826 C825 1.392 . S
C826 C827 1.385 . S
C826 C828 1.478 . S
C827 H821 0.930 . S
C827 C823 1.400 1_655 S
C827 C826 1.385 . S
C828 C826 1.478 . S
C828 C830 1.381 . S
C828 C834 1.383 . S
C829 C825 1.495 . S
C829 H835 0.959 . S
C829 H836 0.961 . S
C829 H837 0.960 . S
C830 C828 1.381 . S
C830 C831 1.394 . S
C830 H838 0.930 . S
C831 C830 1.394 . S
C831 C832 1.383 . S
C831 H839 0.929 . S
C832 C831 1.383 . S
C832 C833 1.377 . S
C833 H817 0.930 . S
C833 C832 1.377 . S
C833 C834 1.379 . S
C834 H818 0.931 . S
C834 C828 1.383 . S
C834 C833 1.379 . S
H835 C829 0.959 . S
H836 C829 0.961 . S
H837 C829 0.960 . S
H838 C830 0.930 . S
H839 C831 0.929 . S
H840 C848 0.929 . S
H841 C850 0.930 . S
H842 C852 0.930 . S
H843 C855 0.929 . S
H844 C858 0.930 . S
H845 C860 0.960 . S
H846 C860 0.960 . S
H847 C860 0.960 . S
C848 H840 0.929 . S
C848 C849 1.377 . S
C848 C850 1.384 . S
C849 C848 1.377 . S
C849 C855 1.390 . S
C850 H841 0.930 . S
C850 C848 1.384 . S
C850 C851 1.372 . S
C851 C850 1.372 . S
C851 C852 1.400 . S
C851 C856 1.490 . S
C852 H842 0.930 . S
C852 C851 1.400 . S
C852 C855 1.386 . S
H853 C869 0.930 . S
H854 C870 0.931 . S
C855 H843 0.929 . S
C855 C849 1.390 . S
C855 C852 1.386 . S
C856 C851 1.490 . S
C856 C858 1.395 . S
C856 C859 1.403 . S
H857 C863 0.930 . S
C858 H844 0.930 . S
C858 C856 1.395 . S
C858 C861 1.403 1_565 S
C859 C856 1.403 . S
C859 C860 1.524 . S
C859 C863 1.400 1_565 S
C860 H845 0.960 . S
C860 H846 0.960 . S
C860 H847 0.960 . S
C860 C859 1.524 . S
C861 C858 1.403 1_545 S
C861 C862 1.392 . S
C861 C865 1.495 . S
C862 C861 1.392 . S
C862 C863 1.385 . S
C862 C864 1.478 . S
C863 H857 0.930 . S
C863 C859 1.400 1_545 S
C863 C862 1.385 . S
C864 C862 1.478 . S
C864 C866 1.381 . S
C864 C870 1.383 . S
C865 C861 1.495 . S
C865 H871 0.959 . S
C865 H872 0.961 . S
C865 H873 0.960 . S
C866 C864 1.381 . S
C866 C867 1.394 . S
C866 H874 0.930 . S
C867 C866 1.394 . S
C867 C868 1.383 . S
C867 H875 0.929 . S
C868 C867 1.383 . S
C868 C869 1.377 . S
C869 H853 0.930 . S
C869 C868 1.377 . S
C869 C870 1.379 . S
C870 H854 0.931 . S
C870 C864 1.383 . S
C870 C869 1.379 . S
H871 C865 0.959 . S
H872 C865 0.961 . S
H873 C865 0.960 . S
H874 C866 0.930 . S
H875 C867 0.929 . S
H876 C884 0.929 . S
H877 C886 0.930 . S
H878 C888 0.930 . S
H879 C891 0.929 . S
H880 C894 0.930 . S
H881 C896 0.960 1_655 S
H882 C896 0.960 . S
H883 C896 0.960 . S
C884 H876 0.929 . S
C884 C885 1.377 . S
C884 C886 1.384 . S
C885 C884 1.377 . S
C885 C891 1.390 . S
C886 H877 0.930 . S
C886 C884 1.384 . S
C886 C887 1.372 . S
C887 C886 1.372 . S
C887 C888 1.400 . S
C887 C892 1.490 . S
C888 H878 0.930 . S
C888 C887 1.400 . S
C888 C891 1.386 . S
H889 C905 0.930 . S
H890 C906 0.931 . S
C891 H879 0.929 . S
C891 C885 1.390 . S
C891 C888 1.386 . S
C892 C887 1.490 . S
C892 C894 1.395 . S
C892 C895 1.403 . S
H893 C899 0.930 . S
C894 H880 0.930 . S
C894 C892 1.395 . S
C894 C897 1.403 1_455 S
C895 C892 1.403 . S
C895 C896 1.524 . S
C895 C899 1.400 1_455 S
C896 H881 0.960 1_455 S
C896 H882 0.960 . S
C896 H883 0.960 . S
C896 C895 1.524 . S
C897 C894 1.403 1_655 S
C897 C898 1.392 . S
C897 C901 1.495 . S
C898 C897 1.392 . S
C898 C899 1.385 . S
C898 C900 1.478 . S
C899 H893 0.930 . S
C899 C895 1.400 1_655 S
C899 C898 1.385 . S
C900 C898 1.478 . S
C900 C902 1.381 . S
C900 C906 1.383 . S
C901 C897 1.495 . S
C901 H907 0.959 1_655 S
C901 H908 0.961 . S
C901 H909 0.960 . S
C902 C900 1.381 . S
C902 C903 1.394 . S
C902 H910 0.930 . S
C903 C902 1.394 . S
C903 C904 1.383 . S
C903 H911 0.929 . S
C904 C903 1.383 . S
C904 C905 1.377 . S
C905 H889 0.930 . S
C905 C904 1.377 . S
C905 C906 1.379 . S
C906 H890 0.931 . S
C906 C900 1.383 . S
C906 C905 1.379 . S
H907 C901 0.959 1_455 S
H908 C901 0.961 . S
H909 C901 0.960 . S
H910 C902 0.930 . S
H911 C903 0.929 . S
H912 C920 0.929 . S
H913 C922 0.930 . S
H914 C924 0.930 . S
H915 C927 0.929 . S
H916 C930 0.930 . S
H917 C932 0.960 . S
H918 C932 0.950 1_556 S
H919 C932 0.960 . S
C920 H912 0.929 . S
C920 C921 1.377 . S
C920 C922 1.384 . S
C921 C920 1.377 . S
C921 C927 1.390 . S
C922 H913 0.930 . S
C922 C920 1.384 . S
C922 C923 1.372 . S
C923 C922 1.372 . S
C923 C924 1.400 . S
C923 C928 1.490 . S
C924 H914 0.930 . S
C924 C923 1.400 . S
C924 C927 1.386 . S
H925 C941 0.930 . S
H926 C942 0.931 . S
C927 H915 0.929 . S
C927 C921 1.390 . S
C927 C924 1.386 . S
C928 C923 1.490 . S
C928 C930 1.395 . S
C928 C931 1.403 . S
H929 C935 0.930 . S
C930 H916 0.930 . S
C930 C928 1.395 . S
C930 C933 1.403 . S
C931 C928 1.403 . S
C931 C932 1.524 . S
C931 C935 1.400 . S
C932 H917 0.960 . S
C932 H918 0.950 1_554 S
C932 H919 0.960 . S
C932 C931 1.524 . S
C933 C930 1.403 . S
C933 C934 1.392 . S
C933 C937 1.495 . S
C934 C933 1.392 . S
C934 C935 1.385 . S
C934 C936 1.478 . S
C935 H929 0.930 . S
C935 C931 1.400 . S
C935 C934 1.385 . S
C936 C934 1.478 . S
C936 C938 1.381 . S
C936 C942 1.383 . S
C937 C933 1.495 . S
C937 H943 0.959 . S
C937 H944 0.961 . S
C937 H945 0.960 . S
C938 C936 1.381 . S
C938 C939 1.394 . S
C938 H946 0.930 . S
C939 C938 1.394 . S
C939 C940 1.383 . S
C939 H947 0.929 . S
C940 C939 1.383 . S
C940 C941 1.377 . S
C941 H925 0.930 . S
C941 C940 1.377 . S
C941 C942 1.379 . S
C942 H926 0.931 . S
C942 C936 1.383 . S
C942 C941 1.379 . S
H943 C937 0.959 . S
H944 C937 0.961 . S
H945 C937 0.960 . S
H946 C938 0.930 . S
H947 C939 0.929 . S
H948 C956 0.929 . S
H949 C958 0.930 . S
H950 C960 0.930 . S
H951 C963 0.929 . S
H952 C966 0.930 . S
H953 C968 0.960 1_554 S
H954 C968 0.960 . S
H955 C968 0.960 1_554 S
C956 H948 0.929 . S
C956 C957 1.377 . S
C956 C958 1.384 . S
C957 C956 1.377 . S
C957 C963 1.390 . S
C958 H949 0.930 . S
C958 C956 1.384 . S
C958 C959 1.372 . S
C959 C958 1.372 . S
C959 C960 1.400 . S
C959 C964 1.490 . S
C960 H950 0.930 . S
C960 C959 1.400 . S
C960 C963 1.386 . S
H961 C977 0.930 . S
H962 C978 0.931 . S
C963 H951 0.929 . S
C963 C957 1.390 . S
C963 C960 1.386 . S
C964 C959 1.490 . S
C964 C966 1.395 . S
C964 C967 1.403 . S
H965 C971 0.930 . S
C966 H952 0.930 . S
C966 C964 1.395 . S
C966 C969 1.403 . S
C967 C964 1.403 . S
C967 C968 1.524 . S
C967 C971 1.400 . S
C968 H953 0.960 1_556 S
C968 H954 0.960 . S
C968 H955 0.960 1_556 S
C968 C967 1.524 . S
C969 C966 1.403 . S
C969 C970 1.392 . S
C969 C973 1.495 . S
C970 C969 1.392 . S
C970 C971 1.385 . S
C970 C972 1.478 . S
C971 H965 0.930 . S
C971 C967 1.400 . S
C971 C970 1.385 . S
C972 C970 1.478 . S
C972 C974 1.381 . S
C972 C978 1.383 . S
C973 C969 1.495 . S
C973 H979 0.959 . S
C973 H980 0.961 . S
C973 H981 0.960 . S
C974 C972 1.381 . S
C974 C975 1.394 . S
C974 H982 0.930 . S
C975 C974 1.394 . S
C975 C976 1.383 . S
C975 H983 0.929 . S
C976 C975 1.383 . S
C976 C977 1.377 . S
C977 H961 0.930 . S
C977 C976 1.377 . S
C977 C978 1.379 . S
C978 H962 0.931 . S
C978 C972 1.383 . S
C978 C977 1.379 . S
H979 C973 0.959 . S
H980 C973 0.961 . S
H981 C973 0.960 . S
H982 C974 0.930 . S
H983 C975 0.929 . S
H984 C992 0.929 . S
H985 C994 0.930 . S
H986 C996 0.930 . S
H987 C999 0.929 . S
H988 C1002 0.930 . S
H989 C1004 0.960 . S
H990 C1004 0.960 1_556 S
H991 C1004 0.960 . S
C992 H984 0.929 . S
C992 C993 1.377 . S
C992 C994 1.384 . S
C993 C992 1.377 . S
C993 C999 1.390 . S
C994 H985 0.930 . S
C994 C992 1.384 . S
C994 C995 1.372 . S
C995 C994 1.372 . S
C995 C996 1.400 . S
C995 C1000 1.490 . S
C996 H986 0.930 . S
C996 C995 1.400 . S
C996 C999 1.386 . S
H997 C1013 0.930 . S
H998 C1014 0.931 . S
C999 H987 0.929 . S
C999 C993 1.390 . S
C999 C996 1.386 . S
C1000 C995 1.490 . S
C1000 C1002 1.395 . S
C1000 C1003 1.403 . S
H1001 C1007 0.930 . S
C1002 H988 0.930 . S
C1002 C1000 1.395 . S
C1002 C1005 1.403 . S
C1003 C1000 1.403 . S
C1003 C1004 1.524 . S
C1003 C1007 1.400 . S
C1004 H989 0.960 . S
C1004 H990 0.960 1_554 S
C1004 H991 0.960 . S
C1004 C1003 1.524 . S
C1005 C1002 1.403 . S
C1005 C1006 1.392 . S
C1005 C1009 1.495 . S
C1006 C1005 1.392 . S
C1006 C1007 1.385 . S
C1006 C1008 1.478 . S
C1007 H1001 0.930 . S
C1007 C1003 1.400 . S
C1007 C1006 1.385 . S
C1008 C1006 1.478 . S
C1008 C1010 1.381 . S
C1008 C1014 1.383 . S
C1009 C1005 1.495 . S
C1009 H1015 0.959 . S
C1009 H1016 0.961 . S
C1009 H1017 0.960 . S
C1010 C1008 1.381 . S
C1010 C1011 1.394 . S
C1010 H1018 0.930 . S
C1011 C1010 1.394 . S
C1011 C1012 1.383 . S
C1011 H1019 0.929 . S
C1012 C1011 1.383 . S
C1012 C1013 1.377 . S
C1013 H997 0.930 . S
C1013 C1012 1.377 . S
C1013 C1014 1.379 . S
C1014 H998 0.931 . S
C1014 C1008 1.383 . S
C1014 C1013 1.379 . S
H1015 C1009 0.959 . S
H1016 C1009 0.961 . S
H1017 C1009 0.960 . S
H1018 C1010 0.930 . S
H1019 C1011 0.929 . S
H1020 C1028 0.929 . S
H1021 C1030 0.930 . S
H1022 C1032 0.930 . S
H1023 C1035 0.929 . S
H1024 C1038 0.930 . S
H1025 C1040 0.960 . S
H1026 C1040 0.960 . S
H1027 C1040 0.960 . S
C1028 H1020 0.929 . S
C1028 C1029 1.377 . S
C1028 C1030 1.384 . S
C1029 C1028 1.377 . S
C1029 C1035 1.390 . S
C1030 H1021 0.930 . S
C1030 C1028 1.384 . S
C1030 C1031 1.372 . S
C1031 C1030 1.372 . S
C1031 C1032 1.400 . S
C1031 C1036 1.490 . S
C1032 H1022 0.930 . S
C1032 C1031 1.400 . S
C1032 C1035 1.386 . S
H1033 C1049 0.930 . S
H1034 C1050 0.931 . S
C1035 H1023 0.929 . S
C1035 C1029 1.390 . S
C1035 C1032 1.386 . S
C1036 C1031 1.490 . S
C1036 C1038 1.395 . S
C1036 C1039 1.403 . S
H1037 C1043 0.930 . S
C1038 H1024 0.930 . S
C1038 C1036 1.395 . S
C1038 C1041 1.403 . S
C1039 C1036 1.403 . S
C1039 C1040 1.524 . S
C1039 C1043 1.400 . S
C1040 H1025 0.960 . S
C1040 H1026 0.960 . S
C1040 H1027 0.960 . S
C1040 C1039 1.524 . S
C1041 C1038 1.403 . S
C1041 C1042 1.392 . S
C1041 C1045 1.495 1_556 S
C1042 C1041 1.392 . S
C1042 C1043 1.385 . S
C1042 C1044 1.478 . S
C1043 H1037 0.930 . S
C1043 C1039 1.400 . S
C1043 C1042 1.385 . S
C1044 C1042 1.478 . S
C1044 C1046 1.381 . S
C1044 C1050 1.383 . S
C1045 C1041 1.495 1_554 S
C1045 H1051 0.959 . S
C1045 H1052 0.961 1_554 S
C1045 H1053 0.960 . S
C1046 C1044 1.381 . S
C1046 C1047 1.394 . S
C1046 H1054 0.930 . S
C1047 C1046 1.394 . S
C1047 C1048 1.383 . S
C1047 H1055 0.929 . S
C1048 C1047 1.383 . S
C1048 C1049 1.377 . S
C1049 H1033 0.930 . S
C1049 C1048 1.377 . S
C1049 C1050 1.379 . S
C1050 H1034 0.931 . S
C1050 C1044 1.383 . S
C1050 C1049 1.379 . S
H1051 C1045 0.959 . S
H1052 C1045 0.961 1_556 S
H1053 C1045 0.960 . S
H1054 C1046 0.930 . S
H1055 C1047 0.929 . S
H1056 C1064 0.929 . S
H1057 C1066 0.930 . S
H1058 C1068 0.930 . S
H1059 C1071 0.929 . S
H1060 C1074 0.930 . S
H1061 C1076 0.960 . S
H1062 C1076 0.960 . S
H1063 C1076 0.960 . S
C1064 H1056 0.929 . S
C1064 C1065 1.377 . S
C1064 C1066 1.384 . S
C1065 C1064 1.377 . S
C1065 C1071 1.390 . S
C1066 H1057 0.930 . S
C1066 C1064 1.384 . S
C1066 C1067 1.372 . S
C1067 C1066 1.372 . S
C1067 C1068 1.400 . S
C1067 C1072 1.490 . S
C1068 H1058 0.930 . S
C1068 C1067 1.400 . S
C1068 C1071 1.386 . S
H1069 C1085 0.930 . S
H1070 C1086 0.931 . S
C1071 H1059 0.929 . S
C1071 C1065 1.390 . S
C1071 C1068 1.386 . S
C1072 C1067 1.490 . S
C1072 C1074 1.395 . S
C1072 C1075 1.403 . S
H1073 C1079 0.930 . S
C1074 H1060 0.930 . S
C1074 C1072 1.395 . S
C1074 C1077 1.403 . S
C1075 C1072 1.403 . S
C1075 C1076 1.524 . S
C1075 C1079 1.400 . S
C1076 H1061 0.960 . S
C1076 H1062 0.960 . S
C1076 H1063 0.960 . S
C1076 C1075 1.524 . S
C1077 C1074 1.403 . S
C1077 C1078 1.392 . S
C1077 C1081 1.495 . S
C1078 C1077 1.392 . S
C1078 C1079 1.385 . S
C1078 C1080 1.478 . S
C1079 H1073 0.930 . S
C1079 C1075 1.400 . S
C1079 C1078 1.385 . S
C1080 C1078 1.478 . S
C1080 C1082 1.381 . S
C1080 C1086 1.383 . S
C1081 C1077 1.495 . S
C1081 H1087 0.959 . S
C1081 H1088 0.961 . S
C1081 H1089 0.960 . S
C1082 C1080 1.381 . S
C1082 C1083 1.394 . S
C1082 H1090 0.930 . S
C1083 C1082 1.394 . S
C1083 C1084 1.383 . S
C1083 H1091 0.929 . S
C1084 C1083 1.383 . S
C1084 C1085 1.377 . S
C1085 H1069 0.930 . S
C1085 C1084 1.377 . S
C1085 C1086 1.379 . S
C1086 H1070 0.931 . S
C1086 C1080 1.383 . S
C1086 C1085 1.379 . S
H1087 C1081 0.959 . S
H1088 C1081 0.961 . S
H1089 C1081 0.960 . S
H1090 C1082 0.930 . S
H1091 C1083 0.929 . S
H1092 C1100 0.929 . S
H1093 C1102 0.930 . S
H1094 C1104 0.930 . S
H1095 C1107 0.929 . S
H1096 C1110 0.930 . S
H1097 C1112 0.960 . S
H1098 C1112 0.960 . S
H1099 C1112 0.960 . S
C1100 H1092 0.929 . S
C1100 C1101 1.377 . S
C1100 C1102 1.384 . S
C1101 C1100 1.377 . S
C1101 C1107 1.390 . S
C1102 H1093 0.930 . S
C1102 C1100 1.384 . S
C1102 C1103 1.372 . S
C1103 C1102 1.372 . S
C1103 C1104 1.400 . S
C1103 C1108 1.490 . S
C1104 H1094 0.930 . S
C1104 C1103 1.400 . S
C1104 C1107 1.386 . S
H1105 C1121 0.930 . S
H1106 C1122 0.931 . S
C1107 H1095 0.929 . S
C1107 C1101 1.390 . S
C1107 C1104 1.386 . S
C1108 C1103 1.490 . S
C1108 C1110 1.395 . S
C1108 C1111 1.403 . S
H1109 C1115 0.930 . S
C1110 H1096 0.930 . S
C1110 C1108 1.395 . S
C1110 C1113 1.403 . S
C1111 C1108 1.403 . S
C1111 C1112 1.524 . S
C1111 C1115 1.400 . S
C1112 H1097 0.960 . S
C1112 H1098 0.960 . S
C1112 H1099 0.960 . S
C1112 C1111 1.524 . S
C1113 C1110 1.403 . S
C1113 C1114 1.392 . S
C1113 C1117 1.495 . S
C1114 C1113 1.392 . S
C1114 C1115 1.385 . S
C1114 C1116 1.478 . S
C1115 H1109 0.930 . S
C1115 C1111 1.400 . S
C1115 C1114 1.385 . S
C1116 C1114 1.478 . S
C1116 C1118 1.381 . S
C1116 C1122 1.383 . S
C1117 C1113 1.495 . S
C1117 H1123 0.959 . S
C1117 H1124 0.961 . S
C1117 H1125 0.960 . S
C1118 C1116 1.381 . S
C1118 C1119 1.394 . S
C1118 H1126 0.930 . S
C1119 C1118 1.394 . S
C1119 C1120 1.383 . S
C1119 H1127 0.929 . S
C1120 C1119 1.383 . S
C1120 C1121 1.377 . S
C1121 H1105 0.930 . S
C1121 C1120 1.377 . S
C1121 C1122 1.379 . S
C1122 H1106 0.931 . S
C1122 C1116 1.383 . S
C1122 C1121 1.379 . S
H1123 C1117 0.959 . S
H1124 C1117 0.961 . S
H1125 C1117 0.960 . S
H1126 C1118 0.930 . S
H1127 C1119 0.929 . S
H1128 C1136 0.929 . S
H1129 C1138 0.930 . S
H1130 C1140 0.930 . S
H1131 C1143 0.929 . S
H1132 C1146 0.930 . S
H1133 C1148 0.960 . S
H1134 C1148 0.960 . S
H1135 C1148 0.960 . S
C1136 H1128 0.929 . S
C1136 C1137 1.377 . S
C1136 C1138 1.384 . S
C1137 C1136 1.377 . S
C1137 C1143 1.390 . S
C1138 H1129 0.930 . S
C1138 C1136 1.384 . S
C1138 C1139 1.372 . S
C1139 C1138 1.372 . S
C1139 C1140 1.400 . S
C1139 C1144 1.490 . S
C1140 H1130 0.930 . S
C1140 C1139 1.400 . S
C1140 C1143 1.386 . S
H1141 C1157 0.930 . S
H1142 C1158 0.931 . S
C1143 H1131 0.929 . S
C1143 C1137 1.390 . S
C1143 C1140 1.386 . S
C1144 C1139 1.490 . S
C1144 C1146 1.395 . S
C1144 C1147 1.403 . S
H1145 C1151 0.930 . S
C1146 H1132 0.930 . S
C1146 C1144 1.395 . S
C1146 C1149 1.403 . S
C1147 C1144 1.403 . S
C1147 C1148 1.524 . S
C1147 C1151 1.400 . S
C1148 H1133 0.960 . S
C1148 H1134 0.960 . S
C1148 H1135 0.960 . S
C1148 C1147 1.524 . S
C1149 C1146 1.403 . S
C1149 C1150 1.392 . S
C1149 C1153 1.495 . S
C1150 C1149 1.392 . S
C1150 C1151 1.385 . S
C1150 C1152 1.478 . S
C1151 H1145 0.930 . S
C1151 C1147 1.400 . S
C1151 C1150 1.385 . S
C1152 C1150 1.478 . S
C1152 C1154 1.381 . S
C1152 C1158 1.383 . S
C1153 C1149 1.495 . S
C1153 H1159 0.959 . S
C1153 H1160 0.961 . S
C1153 H1161 0.960 . S
C1154 C1152 1.381 . S
C1154 C1155 1.394 . S
C1154 H1162 0.930 . S
C1155 C1154 1.394 . S
C1155 C1156 1.383 . S
C1155 H1163 0.929 . S
C1156 C1155 1.383 . S
C1156 C1157 1.377 . S
C1157 H1141 0.930 . S
C1157 C1156 1.377 . S
C1157 C1158 1.379 . S
C1158 H1142 0.931 . S
C1158 C1152 1.383 . S
C1158 C1157 1.379 . S
H1159 C1153 0.959 . S
H1160 C1153 0.961 . S
H1161 C1153 0.960 . S
H1162 C1154 0.930 . S
H1163 C1155 0.929 . S
H1164 C1172 0.929 . S
H1165 C1174 0.930 . S
H1166 C1176 0.930 . S
H1167 C1179 0.929 . S
H1168 C1182 0.930 . S
H1169 C1184 0.960 . S
H1170 C1184 0.960 . S
H1171 C1184 0.960 . S
C1172 H1164 0.929 . S
C1172 C1173 1.377 . S
C1172 C1174 1.384 . S
C1173 C1172 1.377 . S
C1173 C1179 1.390 . S
C1174 H1165 0.930 . S
C1174 C1172 1.384 . S
C1174 C1175 1.372 . S
C1175 C1174 1.372 . S
C1175 C1176 1.400 . S
C1175 C1180 1.490 . S
C1176 H1166 0.930 . S
C1176 C1175 1.400 . S
C1176 C1179 1.386 . S
H1177 C1193 0.930 . S
H1178 C1194 0.931 . S
C1179 H1167 0.929 . S
C1179 C1173 1.390 . S
C1179 C1176 1.386 . S
C1180 C1175 1.490 . S
C1180 C1182 1.395 . S
C1180 C1183 1.403 . S
H1181 C1187 0.930 . S
C1182 H1168 0.930 . S
C1182 C1180 1.395 . S
C1182 C1185 1.403 . S
C1183 C1180 1.403 . S
C1183 C1184 1.524 . S
C1183 C1187 1.400 . S
C1184 H1169 0.960 . S
C1184 H1170 0.960 . S
C1184 H1171 0.960 . S
C1184 C1183 1.524 . S
C1185 C1182 1.403 . S
C1185 C1186 1.392 . S
C1185 C1189 1.495 . S
C1186 C1185 1.392 . S
C1186 C1187 1.385 . S
C1186 C1188 1.478 . S
C1187 H1181 0.930 . S
C1187 C1183 1.400 . S
C1187 C1186 1.385 . S
C1188 C1186 1.478 . S
C1188 C1190 1.381 . S
C1188 C1194 1.383 . S
C1189 C1185 1.495 . S
C1189 H1195 0.959 . S
C1189 H1196 0.961 . S
C1189 H1197 0.960 . S
C1190 C1188 1.381 . S
C1190 C1191 1.394 . S
C1190 H1198 0.930 . S
C1191 C1190 1.394 . S
C1191 C1192 1.383 . S
C1191 H1199 0.929 . S
C1192 C1191 1.383 . S
C1192 C1193 1.377 . S
C1193 H1177 0.930 . S
C1193 C1192 1.377 . S
C1193 C1194 1.379 . S
C1194 H1178 0.931 . S
C1194 C1188 1.383 . S
C1194 C1193 1.379 . S
H1195 C1189 0.959 . S
H1196 C1189 0.961 . S
H1197 C1189 0.960 . S
H1198 C1190 0.930 . S
H1199 C1191 0.929 . S
H1200 C1208 0.929 . S
H1201 C1210 0.930 . S
H1202 C1212 0.930 . S
H1203 C1215 0.929 . S
H1204 C1218 0.930 . S
H1205 C1220 0.960 . S
H1206 C1220 0.960 . S
H1207 C1220 0.960 . S
C1208 H1200 0.929 . S
C1208 C1209 1.377 . S
C1208 C1210 1.384 . S
C1209 C1208 1.377 . S
C1209 C1215 1.390 . S
C1210 H1201 0.930 . S
C1210 C1208 1.384 . S
C1210 C1211 1.372 . S
C1211 C1210 1.372 . S
C1211 C1212 1.400 . S
C1211 C1216 1.490 . S
C1212 H1202 0.930 . S
C1212 C1211 1.400 . S
C1212 C1215 1.386 . S
H1213 C1229 0.930 . S
H1214 C1230 0.931 . S
C1215 H1203 0.929 . S
C1215 C1209 1.390 . S
C1215 C1212 1.386 . S
C1216 C1211 1.490 . S
C1216 C1218 1.395 . S
C1216 C1219 1.403 . S
H1217 C1223 0.930 . S
C1218 H1204 0.930 . S
C1218 C1216 1.395 . S
C1218 C1221 1.403 . S
C1219 C1216 1.403 . S
C1219 C1220 1.524 . S
C1219 C1223 1.400 . S
C1220 H1205 0.960 . S
C1220 H1206 0.960 . S
C1220 H1207 0.960 . S
C1220 C1219 1.524 . S
C1221 C1218 1.403 . S
C1221 C1222 1.392 . S
C1221 C1225 1.495 . S
C1222 C1221 1.392 . S
C1222 C1223 1.385 . S
C1222 C1224 1.478 . S
C1223 H1217 0.930 . S
C1223 C1219 1.400 . S
C1223 C1222 1.385 . S
C1224 C1222 1.478 . S
C1224 C1226 1.381 1_556 S
C1224 C1230 1.383 . S
C1225 C1221 1.495 . S
C1225 H1231 0.959 . S
C1225 H1232 0.961 . S
C1225 H1233 0.960 . S
C1226 C1224 1.381 1_554 S
C1226 C1227 1.394 . S
C1226 H1234 0.930 . S
C1227 C1226 1.394 . S
C1227 C1228 1.383 . S
C1227 H1235 0.929 . S
C1228 C1227 1.383 . S
C1228 C1229 1.377 1_554 S
C1229 H1213 0.930 . S
C1229 C1228 1.377 1_556 S
C1229 C1230 1.379 . S
C1230 H1214 0.931 . S
C1230 C1224 1.383 . S
C1230 C1229 1.379 . S
H1231 C1225 0.959 . S
H1232 C1225 0.961 . S
H1233 C1225 0.960 . S
H1234 C1226 0.930 . S
H1235 C1227 0.929 . S
H1236 C1244 0.929 . S
H1237 C1246 0.930 . S
H1238 C1248 0.930 . S
H1239 C1251 0.929 . S
H1240 C1254 0.930 . S
H1241 C1256 0.960 . S
H1242 C1256 0.960 . S
H1243 C1256 0.960 . S
C1244 H1236 0.929 . S
C1244 C1245 1.377 1_554 S
C1244 C1246 1.384 . S
C1245 C1244 1.377 1_556 S
C1245 C1251 1.390 . S
C1246 H1237 0.930 . S
C1246 C1244 1.384 . S
C1246 C1247 1.372 . S
C1247 C1246 1.372 . S
C1247 C1248 1.399 1_554 S
C1247 C1252 1.490 . S
C1248 H1238 0.930 . S
C1248 C1247 1.399 1_556 S
C1248 C1251 1.386 . S
H1249 C1265 0.930 . S
H1250 C1266 0.931 . S
C1251 H1239 0.929 . S
C1251 C1245 1.390 . S
C1251 C1248 1.386 . S
C1252 C1247 1.490 . S
C1252 C1254 1.395 . S
C1252 C1255 1.403 . S
H1253 C1259 0.930 . S
C1254 H1240 0.930 . S
C1254 C1252 1.395 . S
C1254 C1257 1.403 . S
C1255 C1252 1.403 . S
C1255 C1256 1.524 1_554 S
C1255 C1259 1.400 . S
C1256 H1241 0.960 . S
C1256 H1242 0.960 . S
C1256 H1243 0.960 . S
C1256 C1255 1.524 1_556 S
C1257 C1254 1.403 . S
C1257 C1258 1.392 . S
C1257 C1261 1.495 . S
C1258 C1257 1.392 . S
C1258 C1259 1.385 . S
C1258 C1260 1.478 . S
C1259 H1253 0.930 . S
C1259 C1255 1.400 . S
C1259 C1258 1.385 . S
C1260 C1258 1.478 . S
C1260 C1262 1.381 . S
C1260 C1266 1.383 . S
C1261 C1257 1.495 . S
C1261 H1267 0.959 . S
C1261 H1268 0.961 . S
C1261 H1269 0.960 . S
C1262 C1260 1.381 . S
C1262 C1263 1.394 . S
C1262 H1270 0.930 . S
C1263 C1262 1.394 . S
C1263 C1264 1.383 . S
C1263 H1271 0.929 . S
C1264 C1263 1.383 . S
C1264 C1265 1.377 . S
C1265 H1249 0.930 . S
C1265 C1264 1.377 . S
C1265 C1266 1.379 . S
C1266 H1250 0.931 . S
C1266 C1260 1.383 . S
C1266 C1265 1.379 . S
H1267 C1261 0.959 . S
H1268 C1261 0.961 . S
H1269 C1261 0.960 . S
H1270 C1262 0.930 . S
H1271 C1263 0.929 . S
H1272 C1280 0.929 . S
H1273 C1282 0.930 . S
H1274 C1284 0.930 . S
H1275 C1287 0.929 . S
H1276 C1290 0.930 . S
H1277 C1292 0.960 . S
H1278 C1292 0.960 . S
H1279 C1292 0.960 . S
C1280 H1272 0.929 . S
C1280 C1281 1.377 . S
C1280 C1282 1.384 1_554 S
C1281 C1280 1.377 . S
C1281 C1287 1.390 . S
C1282 H1273 0.930 . S
C1282 C1280 1.384 1_556 S
C1282 C1283 1.372 . S
C1283 C1282 1.372 . S
C1283 C1284 1.400 . S
C1283 C1288 1.490 . S
C1284 H1274 0.930 . S
C1284 C1283 1.400 . S
C1284 C1287 1.386 1_556 S
H1285 C1301 0.930 . S
H1286 C1302 0.931 . S
C1287 H1275 0.929 . S
C1287 C1281 1.390 . S
C1287 C1284 1.386 1_554 S
C1288 C1283 1.490 . S
C1288 C1290 1.395 . S
C1288 C1291 1.403 . S
H1289 C1295 0.930 . S
C1290 H1276 0.930 . S
C1290 C1288 1.395 . S
C1290 C1293 1.403 . S
C1291 C1288 1.403 . S
C1291 C1292 1.524 1_556 S
C1291 C1295 1.400 . S
C1292 H1277 0.960 . S
C1292 H1278 0.960 . S
C1292 H1279 0.960 . S
C1292 C1291 1.524 1_554 S
C1293 C1290 1.403 . S
C1293 C1294 1.392 . S
C1293 C1297 1.495 . S
C1294 C1293 1.392 . S
C1294 C1295 1.385 . S
C1294 C1296 1.478 . S
C1295 H1289 0.930 . S
C1295 C1291 1.400 . S
C1295 C1294 1.385 . S
C1296 C1294 1.478 . S
C1296 C1298 1.381 . S
C1296 C1302 1.383 . S
C1297 C1293 1.495 . S
C1297 H1303 0.959 . S
C1297 H1304 0.961 . S
C1297 H1305 0.960 . S
C1298 C1296 1.381 . S
C1298 C1299 1.394 . S
C1298 H1306 0.930 . S
C1299 C1298 1.394 . S
C1299 C1300 1.383 . S
C1299 H1307 0.929 . S
C1300 C1299 1.383 . S
C1300 C1301 1.377 . S
C1301 H1285 0.930 . S
C1301 C1300 1.377 . S
C1301 C1302 1.379 . S
C1302 H1286 0.931 . S
C1302 C1296 1.383 . S
C1302 C1301 1.379 . S
H1303 C1297 0.959 . S
H1304 C1297 0.961 . S
H1305 C1297 0.960 . S
H1306 C1298 0.930 . S
H1307 C1299 0.929 . S
H1308 C1316 0.929 . S
H1309 C1318 0.930 . S
H1310 C1320 0.930 . S
H1311 C1323 0.929 . S
H1312 C1326 0.930 . S
H1313 C1328 0.960 . S
H1314 C1328 0.960 . S
H1315 C1328 0.960 . S
C1316 H1308 0.929 . S
C1316 C1317 1.377 . S
C1316 C1318 1.384 . S
C1317 C1316 1.377 . S
C1317 C1323 1.390 1_556 S
C1318 H1309 0.930 . S
C1318 C1316 1.384 . S
C1318 C1319 1.372 1_556 S
C1319 C1318 1.372 1_554 S
C1319 C1320 1.400 . S
C1319 C1324 1.490 . S
C1320 H1310 0.930 . S
C1320 C1319 1.400 . S
C1320 C1323 1.386 . S
H1321 C1337 0.930 . S
H1322 C1338 0.931 . S
C1323 H1311 0.929 . S
C1323 C1317 1.390 1_554 S
C1323 C1320 1.386 . S
C1324 C1319 1.490 . S
C1324 C1326 1.395 . S
C1324 C1327 1.403 . S
H1325 C1331 0.930 . S
C1326 H1312 0.930 . S
C1326 C1324 1.395 . S
C1326 C1329 1.403 . S
C1327 C1324 1.403 . S
C1327 C1328 1.524 . S
C1327 C1331 1.400 . S
C1328 H1313 0.960 . S
C1328 H1314 0.960 . S
C1328 H1315 0.960 . S
C1328 C1327 1.524 . S
C1329 C1326 1.403 . S
C1329 C1330 1.392 . S
C1329 C1333 1.495 . S
C1330 C1329 1.392 . S
C1330 C1331 1.385 . S
C1330 C1332 1.478 . S
C1331 H1325 0.930 . S
C1331 C1327 1.400 . S
C1331 C1330 1.385 . S
C1332 C1330 1.478 . S
C1332 C1334 1.381 . S
C1332 C1338 1.383 . S
C1333 C1329 1.495 . S
C1333 H1339 0.959 . S
C1333 H1340 0.961 . S
C1333 H1341 0.960 . S
C1334 C1332 1.381 . S
C1334 C1335 1.394 . S
C1334 H1342 0.930 . S
C1335 C1334 1.394 . S
C1335 C1336 1.383 . S
C1335 H1343 0.929 . S
C1336 C1335 1.383 . S
C1336 C1337 1.377 . S
C1337 H1321 0.930 . S
C1337 C1336 1.377 . S
C1337 C1338 1.379 . S
C1338 H1322 0.931 . S
C1338 C1332 1.383 . S
C1338 C1337 1.379 . S
H1339 C1333 0.959 . S
H1340 C1333 0.961 . S
H1341 C1333 0.960 . S
H1342 C1334 0.930 . S
H1343 C1335 0.929 . S
H1344 C1352 0.929 . S
H1345 C1354 0.930 . S
H1346 C1356 0.930 . S
H1347 C1359 0.929 . S
H1348 C1362 0.930 . S
H1349 C1364 0.960 . S
H1350 C1364 0.960 . S
H1351 C1364 0.960 . S
C1352 H1344 0.929 . S
C1352 C1353 1.377 . S
C1352 C1354 1.384 . S
C1353 C1352 1.377 . S
C1353 C1359 1.390 . S
C1354 H1345 0.930 . S
C1354 C1352 1.384 . S
C1354 C1355 1.372 . S
C1355 C1354 1.372 . S
C1355 C1356 1.400 . S
C1355 C1360 1.490 . S
C1356 H1346 0.930 . S
C1356 C1355 1.400 . S
C1356 C1359 1.386 . S
H1357 C1373 0.930 . S
H1358 C1374 0.931 . S
C1359 H1347 0.929 . S
C1359 C1353 1.390 . S
C1359 C1356 1.386 . S
C1360 C1355 1.490 . S
C1360 C1362 1.395 . S
C1360 C1363 1.403 . S
H1361 C1367 0.930 . S
C1362 H1348 0.930 . S
C1362 C1360 1.395 . S
C1362 C1365 1.403 . S
C1363 C1360 1.403 . S
C1363 C1364 1.524 . S
C1363 C1367 1.400 . S
C1364 H1349 0.960 . S
C1364 H1350 0.960 . S
C1364 H1351 0.960 . S
C1364 C1363 1.524 . S
C1365 C1362 1.403 . S
C1365 C1366 1.392 . S
C1365 C1369 1.495 . S
C1366 C1365 1.392 . S
C1366 C1367 1.385 . S
C1366 C1368 1.478 . S
C1367 H1361 0.930 . S
C1367 C1363 1.400 . S
C1367 C1366 1.385 . S
C1368 C1366 1.478 . S
C1368 C1370 1.381 . S
C1368 C1374 1.383 . S
C1369 C1365 1.495 . S
C1369 H1375 0.959 . S
C1369 H1376 0.961 . S
C1369 H1377 0.960 . S
C1370 C1368 1.381 . S
C1370 C1371 1.394 . S
C1370 H1378 0.930 . S
C1371 C1370 1.394 . S
C1371 C1372 1.383 . S
C1371 H1379 0.929 . S
C1372 C1371 1.383 . S
C1372 C1373 1.377 . S
C1373 H1357 0.930 . S
C1373 C1372 1.377 . S
C1373 C1374 1.379 . S
C1374 H1358 0.931 . S
C1374 C1368 1.383 . S
C1374 C1373 1.379 . S
H1375 C1369 0.959 . S
H1376 C1369 0.961 . S
H1377 C1369 0.960 . S
H1378 C1370 0.930 . S
H1379 C1371 0.929 . S
H1380 C1388 0.929 . S
H1381 C1390 0.930 . S
H1382 C1392 0.930 . S
H1383 C1395 0.929 . S
H1384 C1398 0.930 . S
H1385 C1400 0.960 . S
H1386 C1400 0.960 . S
H1387 C1400 0.960 . S
C1388 H1380 0.929 . S
C1388 C1389 1.377 . S
C1388 C1390 1.384 . S
C1389 C1388 1.377 . S
C1389 C1395 1.390 . S
C1390 H1381 0.930 . S
C1390 C1388 1.384 . S
C1390 C1391 1.372 . S
C1391 C1390 1.372 . S
C1391 C1392 1.400 . S
C1391 C1396 1.490 . S
C1392 H1382 0.930 . S
C1392 C1391 1.400 . S
C1392 C1395 1.386 . S
H1393 C1409 0.930 . S
H1394 C1410 0.931 . S
C1395 H1383 0.929 . S
C1395 C1389 1.390 . S
C1395 C1392 1.386 . S
C1396 C1391 1.490 . S
C1396 C1398 1.395 . S
C1396 C1399 1.403 . S
H1397 C1403 0.930 . S
C1398 H1384 0.930 . S
C1398 C1396 1.395 . S
C1398 C1401 1.403 . S
C1399 C1396 1.403 . S
C1399 C1400 1.524 . S
C1399 C1403 1.400 . S
C1400 H1385 0.960 . S
C1400 H1386 0.960 . S
C1400 H1387 0.960 . S
C1400 C1399 1.524 . S
C1401 C1398 1.403 . S
C1401 C1402 1.392 . S
C1401 C1405 1.495 . S
C1402 C1401 1.392 . S
C1402 C1403 1.385 . S
C1402 C1404 1.478 . S
C1403 H1397 0.930 . S
C1403 C1399 1.400 . S
C1403 C1402 1.385 . S
C1404 C1402 1.478 . S
C1404 C1406 1.381 . S
C1404 C1410 1.383 . S
C1405 C1401 1.495 . S
C1405 H1411 0.959 . S
C1405 H1412 0.961 . S
C1405 H1413 0.960 . S
C1406 C1404 1.381 . S
C1406 C1407 1.394 . S
C1406 H1414 0.930 . S
C1407 C1406 1.394 . S
C1407 C1408 1.383 . S
C1407 H1415 0.929 . S
C1408 C1407 1.383 . S
C1408 C1409 1.377 . S
C1409 H1393 0.930 . S
C1409 C1408 1.377 . S
C1409 C1410 1.379 . S
C1410 H1394 0.931 . S
C1410 C1404 1.383 . S
C1410 C1409 1.379 . S
H1411 C1405 0.959 . S
H1412 C1405 0.961 . S
H1413 C1405 0.960 . S
H1414 C1406 0.930 . S
H1415 C1407 0.929 . S
H1416 C1424 0.929 . S
H1417 C1426 0.930 . S
H1418 C1428 0.930 . S
H1419 C1431 0.929 . S
H1420 C1434 0.930 . S
H1421 C1436 0.960 . S
H1422 C1436 0.960 . S
H1423 C1436 0.960 . S
C1424 H1416 0.929 . S
C1424 C1425 1.377 . S
C1424 C1426 1.384 . S
C1425 C1424 1.377 . S
C1425 C1431 1.390 . S
C1426 H1417 0.930 . S
C1426 C1424 1.384 . S
C1426 C1427 1.372 . S
C1427 C1426 1.372 . S
C1427 C1428 1.400 . S
C1427 C1432 1.490 . S
C1428 H1418 0.930 . S
C1428 C1427 1.400 . S
C1428 C1431 1.386 . S
H1429 C1445 0.930 . S
H1430 C1446 0.931 . S
C1431 H1419 0.929 . S
C1431 C1425 1.390 . S
C1431 C1428 1.386 . S
C1432 C1427 1.490 . S
C1432 C1434 1.395 . S
C1432 C1435 1.403 . S
H1433 C1439 0.930 . S
C1434 H1420 0.930 . S
C1434 C1432 1.395 . S
C1434 C1437 1.403 . S
C1435 C1432 1.403 . S
C1435 C1436 1.524 . S
C1435 C1439 1.400 . S
C1436 H1421 0.960 . S
C1436 H1422 0.960 . S
C1436 H1423 0.960 . S
C1436 C1435 1.524 . S
C1437 C1434 1.403 . S
C1437 C1438 1.392 . S
C1437 C1441 1.495 . S
C1438 C1437 1.392 . S
C1438 C1439 1.385 . S
C1438 C1440 1.478 . S
C1439 H1433 0.930 . S
C1439 C1435 1.400 . S
C1439 C1438 1.385 . S
C1440 C1438 1.478 . S
C1440 C1442 1.381 . S
C1440 C1446 1.383 . S
C1441 C1437 1.495 . S
C1441 H1447 0.959 . S
C1441 H1448 0.961 . S
C1441 H1449 0.960 . S
C1442 C1440 1.381 . S
C1442 C1443 1.394 . S
C1442 H1450 0.930 . S
C1443 C1442 1.394 . S
C1443 C1444 1.383 . S
C1443 H1451 0.929 . S
C1444 C1443 1.383 . S
C1444 C1445 1.377 . S
C1445 H1429 0.930 . S
C1445 C1444 1.377 . S
C1445 C1446 1.379 . S
C1446 H1430 0.931 . S
C1446 C1440 1.383 . S
C1446 C1445 1.379 . S
H1447 C1441 0.959 . S
H1448 C1441 0.961 . S
H1449 C1441 0.960 . S
H1450 C1442 0.930 . S
H1451 C1443 0.929 . S
H1452 C1460 0.929 . S
H1453 C1462 0.930 . S
H1454 C1464 0.930 . S
H1455 C1467 0.929 . S
H1456 C1470 0.930 . S
H1457 C1472 0.960 . S
H1458 C1472 0.960 . S
H1459 C1472 0.960 . S
C1460 H1452 0.929 . S
C1460 C1461 1.377 . S
C1460 C1462 1.384 . S
C1461 C1460 1.377 . S
C1461 C1467 1.390 . S
C1462 H1453 0.930 . S
C1462 C1460 1.384 . S
C1462 C1463 1.372 . S
C1463 C1462 1.372 . S
C1463 C1464 1.400 . S
C1463 C1468 1.490 . S
C1464 H1454 0.930 . S
C1464 C1463 1.400 . S
C1464 C1467 1.386 . S
H1465 C1481 0.930 . S
H1466 C1482 0.931 . S
C1467 H1455 0.929 . S
C1467 C1461 1.390 . S
C1467 C1464 1.386 . S
C1468 C1463 1.490 . S
C1468 C1470 1.395 . S
C1468 C1471 1.403 . S
H1469 C1475 0.930 . S
C1470 H1456 0.930 . S
C1470 C1468 1.395 . S
C1470 C1473 1.403 . S
C1471 C1468 1.403 . S
C1471 C1472 1.524 . S
C1471 C1475 1.400 . S
C1472 H1457 0.960 . S
C1472 H1458 0.960 . S
C1472 H1459 0.960 . S
C1472 C1471 1.524 . S
C1473 C1470 1.403 . S
C1473 C1474 1.392 . S
C1473 C1477 1.495 . S
C1474 C1473 1.392 . S
C1474 C1475 1.385 . S
C1474 C1476 1.478 . S
C1475 H1469 0.930 . S
C1475 C1471 1.400 . S
C1475 C1474 1.385 . S
C1476 C1474 1.478 . S
C1476 C1478 1.381 . S
C1476 C1482 1.383 . S
C1477 C1473 1.495 . S
C1477 H1483 0.959 . S
C1477 H1484 0.961 . S
C1477 H1485 0.960 . S
C1478 C1476 1.381 . S
C1478 C1479 1.394 . S
C1478 H1486 0.930 . S
C1479 C1478 1.394 . S
C1479 C1480 1.383 . S
C1479 H1487 0.929 . S
C1480 C1479 1.383 . S
C1480 C1481 1.377 . S
C1481 H1465 0.930 . S
C1481 C1480 1.377 . S
C1481 C1482 1.379 . S
C1482 H1466 0.931 . S
C1482 C1476 1.383 . S
C1482 C1481 1.379 . S
H1483 C1477 0.959 . S
H1484 C1477 0.961 . S
H1485 C1477 0.960 . S
H1486 C1478 0.930 . S
H1487 C1479 0.929 . S
H1488 C1496 0.929 . S
H1489 C1498 0.930 . S
H1490 C1500 0.930 . S
H1491 C1503 0.929 . S
H1492 C1506 0.930 . S
H1493 C1508 0.960 . S
H1494 C1508 0.960 . S
H1495 C1508 0.960 . S
C1496 H1488 0.929 . S
C1496 C1497 1.377 . S
C1496 C1498 1.384 . S
C1497 C1496 1.377 . S
C1497 C1503 1.390 . S
C1498 H1489 0.930 . S
C1498 C1496 1.384 . S
C1498 C1499 1.372 . S
C1499 C1498 1.372 . S
C1499 C1500 1.400 . S
C1499 C1504 1.490 . S
C1500 H1490 0.930 . S
C1500 C1499 1.400 . S
C1500 C1503 1.386 . S
H1501 C1517 0.930 . S
H1502 C1518 0.931 . S
C1503 H1491 0.929 . S
C1503 C1497 1.390 . S
C1503 C1500 1.386 . S
C1504 C1499 1.490 . S
C1504 C1506 1.395 . S
C1504 C1507 1.403 . S
H1505 C1511 0.930 . S
C1506 H1492 0.930 . S
C1506 C1504 1.395 . S
C1506 C1509 1.403 . S
C1507 C1504 1.403 . S
C1507 C1508 1.524 . S
C1507 C1511 1.400 . S
C1508 H1493 0.960 . S
C1508 H1494 0.960 . S
C1508 H1495 0.960 . S
C1508 C1507 1.524 . S
C1509 C1506 1.403 . S
C1509 C1510 1.392 . S
C1509 C1513 1.495 . S
C1510 C1509 1.392 . S
C1510 C1511 1.385 . S
C1510 C1512 1.478 . S
C1511 H1505 0.930 . S
C1511 C1507 1.400 . S
C1511 C1510 1.385 . S
C1512 C1510 1.478 . S
C1512 C1514 1.381 . S
C1512 C1518 1.383 . S
C1513 C1509 1.495 . S
C1513 H1519 0.959 . S
C1513 H1520 0.961 . S
C1513 H1521 0.960 . S
C1514 C1512 1.381 . S
C1514 C1515 1.394 . S
C1514 H1522 0.930 . S
C1515 C1514 1.394 . S
C1515 C1516 1.383 . S
C1515 H1523 0.929 . S
C1516 C1515 1.383 . S
C1516 C1517 1.377 . S
C1517 H1501 0.930 . S
C1517 C1516 1.377 . S
C1517 C1518 1.379 . S
C1518 H1502 0.931 . S
C1518 C1512 1.383 . S
C1518 C1517 1.379 . S
H1519 C1513 0.959 . S
H1520 C1513 0.961 . S
H1521 C1513 0.960 . S
H1522 C1514 0.930 . S
H1523 C1515 0.929 . S
H1524 C1532 0.929 . S
H1525 C1534 0.930 . S
H1526 C1536 0.930 . S
H1527 C1539 0.929 . S
H1528 C1542 0.930 . S
H1529 C1544 0.960 . S
H1530 C1544 0.960 . S
H1531 C1544 0.960 . S
C1532 H1524 0.929 . S
C1532 C1533 1.377 . S
C1532 C1534 1.384 . S
C1533 C1532 1.377 . S
C1533 C1539 1.390 . S
C1534 H1525 0.930 . S
C1534 C1532 1.384 . S
C1534 C1535 1.372 . S
C1535 C1534 1.372 . S
C1535 C1536 1.400 . S
C1535 C1540 1.490 . S
C1536 H1526 0.930 . S
C1536 C1535 1.400 . S
C1536 C1539 1.386 . S
H1537 C1553 0.930 . S
H1538 C1554 0.931 . S
C1539 H1527 0.929 . S
C1539 C1533 1.390 . S
C1539 C1536 1.386 . S
C1540 C1535 1.490 . S
C1540 C1542 1.395 . S
C1540 C1543 1.403 . S
H1541 C1547 0.930 . S
C1542 H1528 0.930 . S
C1542 C1540 1.395 . S
C1542 C1545 1.403 . S
C1543 C1540 1.403 . S
C1543 C1544 1.524 . S
C1543 C1547 1.400 . S
C1544 H1529 0.960 . S
C1544 H1530 0.960 . S
C1544 H1531 0.960 . S
C1544 C1543 1.524 . S
C1545 C1542 1.403 . S
C1545 C1546 1.392 . S
C1545 C1549 1.495 . S
C1546 C1545 1.392 . S
C1546 C1547 1.385 . S
C1546 C1548 1.478 . S
C1547 H1541 0.930 . S
C1547 C1543 1.400 . S
C1547 C1546 1.385 . S
C1548 C1546 1.478 . S
C1548 C1550 1.381 . S
C1548 C1554 1.383 . S
C1549 C1545 1.495 . S
C1549 H1555 0.959 . S
C1549 H1556 0.961 . S
C1549 H1557 0.960 . S
C1550 C1548 1.381 . S
C1550 C1551 1.394 . S
C1550 H1558 0.930 . S
C1551 C1550 1.394 . S
C1551 C1552 1.383 . S
C1551 H1559 0.929 . S
C1552 C1551 1.383 . S
C1552 C1553 1.377 . S
C1553 H1537 0.930 . S
C1553 C1552 1.377 . S
C1553 C1554 1.379 . S
C1554 H1538 0.931 . S
C1554 C1548 1.383 . S
C1554 C1553 1.379 . S
H1555 C1549 0.959 . S
H1556 C1549 0.961 . S
H1557 C1549 0.960 . S
H1558 C1550 0.930 . S
H1559 C1551 0.929 . S
H1560 C1568 0.929 . S
H1561 C1570 0.930 . S
H1562 C1572 0.930 . S
H1563 C1575 0.929 . S
H1564 C1578 0.930 . S
H1565 C1580 0.960 . S
H1566 C1580 0.960 . S
H1567 C1580 0.960 . S
C1568 H1560 0.929 . S
C1568 C1569 1.377 . S
C1568 C1570 1.384 . S
C1569 C1568 1.377 . S
C1569 C1575 1.390 . S
C1570 H1561 0.930 . S
C1570 C1568 1.384 . S
C1570 C1571 1.372 . S
C1571 C1570 1.372 . S
C1571 C1572 1.400 . S
C1571 C1576 1.490 . S
C1572 H1562 0.930 . S
C1572 C1571 1.400 . S
C1572 C1575 1.386 . S
H1573 C1589 0.930 . S
H1574 C1590 0.931 . S
C1575 H1563 0.929 . S
C1575 C1569 1.390 . S
C1575 C1572 1.386 . S
C1576 C1571 1.490 . S
C1576 C1578 1.395 . S
C1576 C1579 1.403 . S
H1577 C1583 0.930 . S
C1578 H1564 0.930 . S
C1578 C1576 1.395 . S
C1578 C1581 1.403 . S
C1579 C1576 1.403 . S
C1579 C1580 1.524 . S
C1579 C1583 1.400 . S
C1580 H1565 0.960 . S
C1580 H1566 0.960 . S
C1580 H1567 0.960 . S
C1580 C1579 1.524 . S
C1581 C1578 1.403 . S
C1581 C1582 1.392 . S
C1581 C1585 1.495 . S
C1582 C1581 1.392 . S
C1582 C1583 1.385 . S
C1582 C1584 1.478 . S
C1583 H1577 0.930 . S
C1583 C1579 1.400 . S
C1583 C1582 1.385 . S
C1584 C1582 1.478 . S
C1584 C1586 1.381 . S
C1584 C1590 1.383 . S
C1585 C1581 1.495 . S
C1585 H1591 0.959 . S
C1585 H1592 0.961 . S
C1585 H1593 0.960 . S
C1586 C1584 1.381 . S
C1586 C1587 1.394 . S
C1586 H1594 0.930 . S
C1587 C1586 1.394 . S
C1587 C1588 1.383 . S
C1587 H1595 0.929 . S
C1588 C1587 1.383 . S
C1588 C1589 1.377 . S
C1589 H1573 0.930 . S
C1589 C1588 1.377 . S
C1589 C1590 1.379 . S
C1590 H1574 0.931 . S
C1590 C1584 1.383 . S
C1590 C1589 1.379 . S
H1591 C1585 0.959 . S
H1592 C1585 0.961 . S
H1593 C1585 0.960 . S
H1594 C1586 0.930 . S
H1595 C1587 0.929 . S
H1596 C1604 0.929 . S
H1597 C1606 0.930 . S
H1598 C1608 0.930 . S
H1599 C1611 0.929 . S
H1600 C1614 0.930 . S
H1601 C1616 0.960 . S
H1602 C1616 0.960 . S
H1603 C1616 0.960 . S
C1604 H1596 0.929 . S
C1604 C1605 1.377 . S
C1604 C1606 1.384 . S
C1605 C1604 1.377 . S
C1605 C1611 1.390 . S
C1606 H1597 0.930 . S
C1606 C1604 1.384 . S
C1606 C1607 1.372 . S
C1607 C1606 1.372 . S
C1607 C1608 1.400 . S
C1607 C1612 1.490 . S
C1608 H1598 0.930 . S
C1608 C1607 1.400 . S
C1608 C1611 1.386 . S
H1609 C1625 0.930 . S
H1610 C1626 0.931 . S
C1611 H1599 0.929 . S
C1611 C1605 1.390 . S
C1611 C1608 1.386 . S
C1612 C1607 1.490 . S
C1612 C1614 1.395 . S
C1612 C1615 1.403 . S
H1613 C1619 0.930 . S
C1614 H1600 0.930 . S
C1614 C1612 1.395 . S
C1614 C1617 1.403 . S
C1615 C1612 1.403 . S
C1615 C1616 1.524 . S
C1615 C1619 1.400 . S
C1616 H1601 0.960 . S
C1616 H1602 0.960 . S
C1616 H1603 0.960 . S
C1616 C1615 1.524 . S
C1617 C1614 1.403 . S
C1617 C1618 1.392 . S
C1617 C1621 1.495 . S
C1618 C1617 1.392 . S
C1618 C1619 1.385 . S
C1618 C1620 1.478 . S
C1619 H1613 0.930 . S
C1619 C1615 1.400 . S
C1619 C1618 1.385 . S
C1620 C1618 1.478 . S
C1620 C1622 1.381 . S
C1620 C1626 1.383 . S
C1621 C1617 1.495 . S
C1621 H1627 0.959 . S
C1621 H1628 0.961 . S
C1621 H1629 0.960 . S
C1622 C1620 1.381 . S
C1622 C1623 1.394 . S
C1622 H1630 0.930 . S
C1623 C1622 1.394 . S
C1623 C1624 1.383 . S
C1623 H1631 0.929 . S
C1624 C1623 1.383 . S
C1624 C1625 1.377 . S
C1625 H1609 0.930 . S
C1625 C1624 1.377 . S
C1625 C1626 1.379 . S
C1626 H1610 0.931 . S
C1626 C1620 1.383 . S
C1626 C1625 1.379 . S
H1627 C1621 0.959 . S
H1628 C1621 0.961 . S
H1629 C1621 0.960 . S
H1630 C1622 0.930 . S
H1631 C1623 0.929 . S
H1632 C1640 0.929 . S
H1633 C1642 0.930 . S
H1634 C1644 0.930 . S
H1635 C1647 0.929 . S
H1636 C1650 0.930 . S
H1637 C1652 0.960 . S
H1638 C1652 0.960 . S
H1639 C1652 0.960 . S
C1640 H1632 0.929 . S
C1640 C1641 1.377 . S
C1640 C1642 1.384 . S
C1641 C1640 1.377 . S
C1641 C1647 1.390 . S
C1642 H1633 0.930 . S
C1642 C1640 1.384 . S
C1642 C1643 1.372 . S
C1643 C1642 1.372 . S
C1643 C1644 1.400 . S
C1643 C1648 1.490 . S
C1644 H1634 0.930 . S
C1644 C1643 1.400 . S
C1644 C1647 1.386 . S
H1645 C1661 0.930 . S
H1646 C1662 0.931 . S
C1647 H1635 0.929 . S
C1647 C1641 1.390 . S
C1647 C1644 1.386 . S
C1648 C1643 1.490 . S
C1648 C1650 1.395 . S
C1648 C1651 1.403 . S
H1649 C1655 0.930 . S
C1650 H1636 0.930 . S
C1650 C1648 1.395 . S
C1650 C1653 1.403 . S
C1651 C1648 1.403 . S
C1651 C1652 1.524 . S
C1651 C1655 1.400 . S
C1652 H1637 0.960 . S
C1652 H1638 0.960 . S
C1652 H1639 0.960 . S
C1652 C1651 1.524 . S
C1653 C1650 1.403 . S
C1653 C1654 1.392 . S
C1653 C1657 1.495 . S
C1654 C1653 1.392 . S
C1654 C1655 1.385 . S
C1654 C1656 1.478 . S
C1655 H1649 0.930 . S
C1655 C1651 1.400 . S
C1655 C1654 1.385 . S
C1656 C1654 1.478 . S
C1656 C1658 1.381 . S
C1656 C1662 1.383 . S
C1657 C1653 1.495 . S
C1657 H1663 0.959 . S
C1657 H1664 0.961 . S
C1657 H1665 0.960 . S
C1658 C1656 1.381 . S
C1658 C1659 1.394 . S
C1658 H1666 0.930 . S
C1659 C1658 1.394 . S
C1659 C1660 1.383 . S
C1659 H1667 0.929 . S
C1660 C1659 1.383 . S
C1660 C1661 1.377 . S
C1661 H1645 0.930 . S
C1661 C1660 1.377 . S
C1661 C1662 1.379 . S
C1662 H1646 0.931 . S
C1662 C1656 1.383 . S
C1662 C1661 1.379 . S
H1663 C1657 0.959 . S
H1664 C1657 0.961 . S
H1665 C1657 0.960 . S
H1666 C1658 0.930 . S
H1667 C1659 0.929 . S
H1668 C1676 0.929 . S
H1669 C1678 0.930 . S
H1670 C1680 0.930 . S
H1671 C1683 0.929 . S
H1672 C1686 0.930 . S
H1673 C1688 0.960 . S
H1674 C1688 0.960 . S
H1675 C1688 0.960 . S
C1676 H1668 0.929 . S
C1676 C1677 1.377 . S
C1676 C1678 1.384 . S
C1677 C1676 1.377 . S
C1677 C1683 1.390 . S
C1678 H1669 0.930 . S
C1678 C1676 1.384 . S
C1678 C1679 1.372 . S
C1679 C1678 1.372 . S
C1679 C1680 1.400 . S
C1679 C1684 1.490 . S
C1680 H1670 0.930 . S
C1680 C1679 1.400 . S
C1680 C1683 1.386 . S
H1681 C1697 0.930 . S
H1682 C1698 0.931 . S
C1683 H1671 0.929 . S
C1683 C1677 1.390 . S
C1683 C1680 1.386 . S
C1684 C1679 1.490 . S
C1684 C1686 1.395 . S
C1684 C1687 1.403 . S
H1685 C1691 0.930 . S
C1686 H1672 0.930 . S
C1686 C1684 1.395 . S
C1686 C1689 1.403 . S
C1687 C1684 1.403 . S
C1687 C1688 1.524 . S
C1687 C1691 1.400 . S
C1688 H1673 0.960 . S
C1688 H1674 0.960 . S
C1688 H1675 0.960 . S
C1688 C1687 1.524 . S
C1689 C1686 1.403 . S
C1689 C1690 1.392 . S
C1689 C1693 1.495 . S
C1690 C1689 1.392 . S
C1690 C1691 1.385 . S
C1690 C1692 1.478 . S
C1691 H1685 0.930 . S
C1691 C1687 1.400 . S
C1691 C1690 1.385 . S
C1692 C1690 1.478 . S
C1692 C1694 1.381 . S
C1692 C1698 1.383 . S
C1693 C1689 1.495 . S
C1693 H1699 0.959 . S
C1693 H1700 0.961 . S
C1693 H1701 0.960 . S
C1694 C1692 1.381 . S
C1694 C1695 1.394 . S
C1694 H1702 0.930 . S
C1695 C1694 1.394 . S
C1695 C1696 1.383 . S
C1695 H1703 0.929 . S
C1696 C1695 1.383 . S
C1696 C1697 1.377 . S
C1697 H1681 0.930 . S
C1697 C1696 1.377 . S
C1697 C1698 1.379 . S
C1698 H1682 0.931 . S
C1698 C1692 1.383 . S
C1698 C1697 1.379 . S
H1699 C1693 0.959 . S
H1700 C1693 0.961 . S
H1701 C1693 0.960 . S
H1702 C1694 0.930 . S
H1703 C1695 0.929 . S
H1704 C1712 0.929 . S
H1705 C1714 0.930 . S
H1706 C1716 0.930 . S
H1707 C1719 0.929 . S
H1708 C1722 0.930 . S
H1709 C1724 0.960 . S
H1710 C1724 0.960 . S
H1711 C1724 0.960 . S
C1712 H1704 0.929 . S
C1712 C1713 1.377 . S
C1712 C1714 1.384 . S
C1713 C1712 1.377 . S
C1713 C1719 1.390 . S
C1714 H1705 0.930 . S
C1714 C1712 1.384 . S
C1714 C1715 1.372 . S
C1715 C1714 1.372 . S
C1715 C1716 1.400 . S
C1715 C1720 1.490 . S
C1716 H1706 0.930 . S
C1716 C1715 1.400 . S
C1716 C1719 1.386 . S
H1717 C1733 0.930 . S
H1718 C1734 0.931 . S
C1719 H1707 0.929 . S
C1719 C1713 1.390 . S
C1719 C1716 1.386 . S
C1720 C1715 1.490 . S
C1720 C1722 1.395 . S
C1720 C1723 1.403 . S
H1721 C1727 0.930 . S
C1722 H1708 0.930 . S
C1722 C1720 1.395 . S
C1722 C1725 1.403 . S
C1723 C1720 1.403 . S
C1723 C1724 1.524 . S
C1723 C1727 1.400 . S
C1724 H1709 0.960 . S
C1724 H1710 0.960 . S
C1724 H1711 0.960 . S
C1724 C1723 1.524 . S
C1725 C1722 1.403 . S
C1725 C1726 1.392 . S
C1725 C1729 1.495 . S
C1726 C1725 1.392 . S
C1726 C1727 1.385 . S
C1726 C1728 1.478 . S
C1727 H1721 0.930 . S
C1727 C1723 1.400 . S
C1727 C1726 1.385 . S
C1728 C1726 1.478 . S
C1728 C1730 1.381 . S
C1728 C1734 1.383 . S
C1729 C1725 1.495 . S
C1729 H1735 0.959 . S
C1729 H1736 0.961 . S
C1729 H1737 0.960 . S
C1730 C1728 1.381 . S
C1730 C1731 1.394 . S
C1730 H1738 0.930 . S
C1731 C1730 1.394 . S
C1731 C1732 1.383 . S
C1731 H1739 0.929 . S
C1732 C1731 1.383 . S
C1732 C1733 1.377 . S
C1733 H1717 0.930 . S
C1733 C1732 1.377 . S
C1733 C1734 1.379 . S
C1734 H1718 0.931 . S
C1734 C1728 1.383 . S
C1734 C1733 1.379 . S
H1735 C1729 0.959 . S
H1736 C1729 0.961 . S
H1737 C1729 0.960 . S
H1738 C1730 0.930 . S
H1739 C1731 0.929 . S
H1740 C1748 0.929 . S
H1741 C1750 0.930 . S
H1742 C1752 0.930 . S
H1743 C1755 0.929 . S
H1744 C1758 0.930 . S
H1745 C1760 0.960 . S
H1746 C1760 0.960 . S
H1747 C1760 0.960 . S
C1748 H1740 0.929 . S
C1748 C1749 1.377 . S
C1748 C1750 1.384 . S
C1749 C1748 1.377 . S
C1749 C1755 1.390 . S
C1750 H1741 0.930 . S
C1750 C1748 1.384 . S
C1750 C1751 1.372 . S
C1751 C1750 1.372 . S
C1751 C1752 1.400 . S
C1751 C1756 1.490 . S
C1752 H1742 0.930 . S
C1752 C1751 1.400 . S
C1752 C1755 1.386 . S
H1753 C1769 0.930 . S
H1754 C1770 0.931 . S
C1755 H1743 0.929 . S
C1755 C1749 1.390 . S
C1755 C1752 1.386 . S
C1756 C1751 1.490 . S
C1756 C1758 1.395 . S
C1756 C1759 1.403 . S
H1757 C1763 0.930 . S
C1758 H1744 0.930 . S
C1758 C1756 1.395 . S
C1758 C1761 1.403 . S
C1759 C1756 1.403 . S
C1759 C1760 1.524 . S
C1759 C1763 1.400 . S
C1760 H1745 0.960 . S
C1760 H1746 0.960 . S
C1760 H1747 0.960 . S
C1760 C1759 1.524 . S
C1761 C1758 1.403 . S
C1761 C1762 1.392 . S
C1761 C1765 1.495 . S
C1762 C1761 1.392 . S
C1762 C1763 1.385 . S
C1762 C1764 1.478 . S
C1763 H1757 0.930 . S
C1763 C1759 1.400 . S
C1763 C1762 1.385 . S
C1764 C1762 1.478 . S
C1764 C1766 1.381 . S
C1764 C1770 1.383 . S
C1765 C1761 1.495 . S
C1765 H1771 0.959 . S
C1765 H1772 0.961 . S
C1765 H1773 0.960 . S
C1766 C1764 1.381 . S
C1766 C1767 1.394 . S
C1766 H1774 0.930 . S
C1767 C1766 1.394 . S
C1767 C1768 1.383 . S
C1767 H1775 0.929 . S
C1768 C1767 1.383 . S
C1768 C1769 1.377 . S
C1769 H1753 0.930 . S
C1769 C1768 1.377 . S
C1769 C1770 1.379 . S
C1770 H1754 0.931 . S
C1770 C1764 1.383 . S
C1770 C1769 1.379 . S
H1771 C1765 0.959 . S
H1772 C1765 0.961 . S
H1773 C1765 0.960 . S
H1774 C1766 0.930 . S
H1775 C1767 0.929 . S
H1776 C1784 0.929 . S
H1777 C1786 0.930 . S
H1778 C1788 0.930 . S
H1779 C1791 0.929 . S
H1780 C1794 0.930 . S
H1781 C1796 0.960 . S
H1782 C1796 0.960 . S
H1783 C1796 0.960 . S
C1784 H1776 0.929 . S
C1784 C1785 1.377 . S
C1784 C1786 1.384 . S
C1785 C1784 1.377 . S
C1785 C1791 1.390 . S
C1786 H1777 0.930 . S
C1786 C1784 1.384 . S
C1786 C1787 1.372 . S
C1787 C1786 1.372 . S
C1787 C1788 1.400 . S
C1787 C1792 1.490 1_556 S
C1788 H1778 0.930 . S
C1788 C1787 1.400 . S
C1788 C1791 1.386 . S
H1789 C1805 0.930 . S
H1790 C1806 0.931 . S
C1791 H1779 0.929 . S
C1791 C1785 1.390 . S
C1791 C1788 1.386 . S
C1792 C1787 1.490 1_554 S
C1792 C1794 1.395 . S
C1792 C1795 1.403 . S
H1793 C1799 0.930 . S
C1794 H1780 0.930 . S
C1794 C1792 1.395 . S
C1794 C1797 1.403 . S
C1795 C1792 1.403 . S
C1795 C1796 1.524 . S
C1795 C1799 1.400 . S
C1796 H1781 0.960 . S
C1796 H1782 0.960 . S
C1796 H1783 0.960 . S
C1796 C1795 1.524 . S
C1797 C1794 1.403 . S
C1797 C1798 1.392 . S
C1797 C1801 1.495 . S
C1798 C1797 1.392 . S
C1798 C1799 1.385 . S
C1798 C1800 1.478 . S
C1799 H1793 0.930 . S
C1799 C1795 1.400 . S
C1799 C1798 1.385 . S
C1800 C1798 1.478 . S
C1800 C1802 1.381 . S
C1800 C1806 1.383 . S
C1801 C1797 1.495 . S
C1801 H1807 0.959 . S
C1801 H1808 0.961 . S
C1801 H1809 0.960 . S
C1802 C1800 1.381 . S
C1802 C1803 1.394 . S
C1802 H1810 0.930 . S
C1803 C1802 1.394 . S
C1803 C1804 1.383 . S
C1803 H1811 0.929 . S
C1804 C1803 1.383 . S
C1804 C1805 1.377 . S
C1805 H1789 0.930 . S
C1805 C1804 1.377 . S
C1805 C1806 1.379 . S
C1806 H1790 0.931 . S
C1806 C1800 1.383 . S
C1806 C1805 1.379 . S
H1807 C1801 0.959 . S
H1808 C1801 0.961 . S
H1809 C1801 0.960 . S
H1810 C1802 0.930 . S
H1811 C1803 0.929 . S
H1812 C1820 0.929 . S
H1813 C1822 0.930 . S
H1814 C1824 0.930 . S
H1815 C1827 0.929 . S
H1816 C1830 0.930 . S
H1817 C1832 0.960 . S
H1818 C1832 0.960 . S
H1819 C1832 0.960 . S
C1820 H1812 0.929 . S
C1820 C1821 1.377 . S
C1820 C1822 1.384 . S
C1821 C1820 1.377 . S
C1821 C1827 1.390 . S
C1822 H1813 0.930 . S
C1822 C1820 1.384 . S
C1822 C1823 1.372 . S
C1823 C1822 1.372 . S
C1823 C1824 1.400 . S
C1823 C1828 1.490 . S
C1824 H1814 0.930 . S
C1824 C1823 1.400 . S
C1824 C1827 1.386 . S
H1825 C1841 0.930 . S
H1826 C1842 0.931 . S
C1827 H1815 0.929 . S
C1827 C1821 1.390 . S
C1827 C1824 1.386 . S
C1828 C1823 1.490 . S
C1828 C1830 1.395 . S
C1828 C1831 1.403 . S
H1829 C1835 0.930 . S
C1830 H1816 0.930 . S
C1830 C1828 1.395 . S
C1830 C1833 1.403 . S
C1831 C1828 1.403 . S
C1831 C1832 1.524 . S
C1831 C1835 1.400 . S
C1832 H1817 0.960 . S
C1832 H1818 0.960 . S
C1832 H1819 0.960 . S
C1832 C1831 1.524 . S
C1833 C1830 1.403 . S
C1833 C1834 1.392 . S
C1833 C1837 1.495 . S
C1834 C1833 1.392 . S
C1834 C1835 1.385 . S
C1834 C1836 1.478 1_556 S
C1835 H1829 0.930 . S
C1835 C1831 1.400 . S
C1835 C1834 1.385 . S
C1836 C1834 1.478 1_554 S
C1836 C1838 1.381 . S
C1836 C1842 1.383 . S
C1837 C1833 1.495 . S
C1837 H1843 0.959 . S
C1837 H1844 0.961 . S
C1837 H1845 0.960 . S
C1838 C1836 1.381 . S
C1838 C1839 1.394 . S
C1838 H1846 0.930 . S
C1839 C1838 1.394 . S
C1839 C1840 1.383 . S
C1839 H1847 0.929 . S
C1840 C1839 1.383 . S
C1840 C1841 1.377 . S
C1841 H1825 0.930 . S
C1841 C1840 1.377 . S
C1841 C1842 1.379 . S
C1842 H1826 0.931 . S
C1842 C1836 1.383 . S
C1842 C1841 1.379 . S
H1843 C1837 0.959 . S
H1844 C1837 0.961 . S
H1845 C1837 0.960 . S
H1846 C1838 0.930 . S
H1847 C1839 0.929 . S
H1848 C1856 0.929 . S
H1849 C1858 0.930 . S
H1850 C1860 0.930 . S
H1851 C1863 0.929 . S
H1852 C1866 0.930 . S
H1853 C1868 0.960 . S
H1854 C1868 0.960 . S
H1855 C1868 0.960 . S
C1856 H1848 0.929 . S
C1856 C1857 1.377 . S
C1856 C1858 1.384 . S
C1857 C1856 1.377 . S
C1857 C1863 1.390 . S
C1858 H1849 0.930 . S
C1858 C1856 1.384 . S
C1858 C1859 1.372 . S
C1859 C1858 1.372 . S
C1859 C1860 1.400 . S
C1859 C1864 1.490 . S
C1860 H1850 0.930 . S
C1860 C1859 1.400 . S
C1860 C1863 1.386 . S
H1861 C1877 0.930 . S
H1862 C1878 0.931 . S
C1863 H1851 0.929 . S
C1863 C1857 1.390 . S
C1863 C1860 1.386 . S
C1864 C1859 1.490 . S
C1864 C1866 1.395 . S
C1864 C1867 1.403 . S
H1865 C1871 0.930 . S
C1866 H1852 0.930 . S
C1866 C1864 1.395 . S
C1866 C1869 1.403 . S
C1867 C1864 1.403 . S
C1867 C1868 1.524 . S
C1867 C1871 1.400 . S
C1868 H1853 0.960 . S
C1868 H1854 0.960 . S
C1868 H1855 0.960 . S
C1868 C1867 1.524 . S
C1869 C1866 1.403 . S
C1869 C1870 1.392 . S
C1869 C1873 1.495 . S
C1870 C1869 1.392 . S
C1870 C1871 1.385 . S
C1870 C1872 1.478 1_554 S
C1871 H1865 0.930 . S
C1871 C1867 1.400 . S
C1871 C1870 1.385 . S
C1872 C1870 1.478 1_556 S
C1872 C1874 1.381 . S
C1872 C1878 1.383 . S
C1873 C1869 1.495 . S
C1873 H1879 0.959 . S
C1873 H1880 0.961 . S
C1873 H1881 0.960 . S
C1874 C1872 1.381 . S
C1874 C1875 1.394 . S
C1874 H1882 0.930 . S
C1875 C1874 1.394 . S
C1875 C1876 1.383 . S
C1875 H1883 0.929 . S
C1876 C1875 1.383 . S
C1876 C1877 1.377 . S
C1877 H1861 0.930 . S
C1877 C1876 1.377 . S
C1877 C1878 1.379 . S
C1878 H1862 0.931 . S
C1878 C1872 1.383 . S
C1878 C1877 1.379 . S
H1879 C1873 0.959 . S
H1880 C1873 0.961 . S
H1881 C1873 0.960 . S
H1882 C1874 0.930 . S
H1883 C1875 0.929 . S
H1884 C1892 0.929 . S
H1885 C1894 0.930 . S
H1886 C1896 0.930 . S
H1887 C1899 0.929 . S
H1888 C1902 0.930 . S
H1889 C1904 0.960 . S
H1890 C1904 0.960 . S
H1891 C1904 0.960 . S
C1892 H1884 0.929 . S
C1892 C1893 1.377 . S
C1892 C1894 1.384 . S
C1893 C1892 1.377 . S
C1893 C1899 1.390 . S
C1894 H1885 0.930 . S
C1894 C1892 1.384 . S
C1894 C1895 1.372 . S
C1895 C1894 1.372 . S
C1895 C1896 1.400 . S
C1895 C1900 1.490 1_554 S
C1896 H1886 0.930 . S
C1896 C1895 1.400 . S
C1896 C1899 1.386 . S
H1897 C1913 0.930 . S
H1898 C1914 0.931 . S
C1899 H1887 0.929 . S
C1899 C1893 1.390 . S
C1899 C1896 1.386 . S
C1900 C1895 1.490 1_556 S
C1900 C1902 1.395 . S
C1900 C1903 1.403 . S
H1901 C1907 0.930 . S
C1902 H1888 0.930 . S
C1902 C1900 1.395 . S
C1902 C1905 1.403 . S
C1903 C1900 1.403 . S
C1903 C1904 1.524 . S
C1903 C1907 1.400 . S
C1904 H1889 0.960 . S
C1904 H1890 0.960 . S
C1904 H1891 0.960 . S
C1904 C1903 1.524 . S
C1905 C1902 1.403 . S
C1905 C1906 1.392 . S
C1905 C1909 1.495 . S
C1906 C1905 1.392 . S
C1906 C1907 1.385 . S
C1906 C1908 1.478 . S
C1907 H1901 0.930 . S
C1907 C1903 1.400 . S
C1907 C1906 1.385 . S
C1908 C1906 1.478 . S
C1908 C1910 1.381 . S
C1908 C1914 1.383 . S
C1909 C1905 1.495 . S
C1909 H1915 0.959 . S
C1909 H1916 0.961 . S
C1909 H1917 0.960 . S
C1910 C1908 1.381 . S
C1910 C1911 1.394 . S
C1910 H1918 0.930 . S
C1911 C1910 1.394 . S
C1911 C1912 1.383 . S
C1911 H1919 0.929 . S
C1912 C1911 1.383 . S
C1912 C1913 1.377 . S
C1913 H1897 0.930 . S
C1913 C1912 1.377 . S
C1913 C1914 1.379 . S
C1914 H1898 0.931 . S
C1914 C1908 1.383 . S
C1914 C1913 1.379 . S
H1915 C1909 0.959 . S
H1916 C1909 0.961 . S
H1917 C1909 0.960 . S
H1918 C1910 0.930 . S
H1919 C1911 0.929 . S
H1920 C1928 0.929 . S
H1921 C1930 0.930 . S
H1922 C1932 0.930 . S
H1923 C1935 0.929 . S
H1924 C1938 0.930 . S
H1925 C1940 0.960 . S
H1926 C1940 0.960 . S
H1927 C1940 0.960 . S
C1928 H1920 0.929 . S
C1928 C1929 1.377 . S
C1928 C1930 1.384 . S
C1929 C1928 1.377 . S
C1929 C1935 1.390 . S
C1930 H1921 0.930 . S
C1930 C1928 1.384 . S
C1930 C1931 1.372 . S
C1931 C1930 1.372 . S
C1931 C1932 1.400 . S
C1931 C1936 1.490 . S
C1932 H1922 0.930 . S
C1932 C1931 1.400 . S
C1932 C1935 1.386 . S
H1933 C1949 0.930 . S
H1934 C1950 0.931 . S
C1935 H1923 0.929 . S
C1935 C1929 1.390 . S
C1935 C1932 1.386 . S
C1936 C1931 1.490 . S
C1936 C1938 1.395 . S
C1936 C1939 1.403 . S
H1937 C1943 0.930 . S
C1938 H1924 0.930 . S
C1938 C1936 1.395 . S
C1938 C1941 1.403 . S
C1939 C1936 1.403 . S
C1939 C1940 1.524 . S
C1939 C1943 1.400 . S
C1940 H1925 0.960 . S
C1940 H1926 0.960 . S
C1940 H1927 0.960 . S
C1940 C1939 1.524 . S
C1941 C1938 1.403 . S
C1941 C1942 1.392 . S
C1941 C1945 1.495 . S
C1942 C1941 1.392 . S
C1942 C1943 1.385 . S
C1942 C1944 1.478 1_554 S
C1943 H1937 0.930 . S
C1943 C1939 1.400 . S
C1943 C1942 1.385 . S
C1944 C1942 1.478 1_556 S
C1944 C1946 1.381 . S
C1944 C1950 1.383 . S
C1945 C1941 1.495 . S
C1945 H1951 0.959 . S
C1945 H1952 0.961 . S
C1945 H1953 0.960 . S
C1946 C1944 1.381 . S
C1946 C1947 1.394 . S
C1946 H1954 0.930 . S
C1947 C1946 1.394 . S
C1947 C1948 1.383 . S
C1947 H1955 0.929 . S
C1948 C1947 1.383 . S
C1948 C1949 1.377 . S
C1949 H1933 0.930 . S
C1949 C1948 1.377 . S
C1949 C1950 1.379 . S
C1950 H1934 0.931 . S
C1950 C1944 1.383 . S
C1950 C1949 1.379 . S
H1951 C1945 0.959 . S
H1952 C1945 0.961 . S
H1953 C1945 0.960 . S
H1954 C1946 0.930 . S
H1955 C1947 0.929 . S
H1956 C1964 0.929 . S
H1957 C1966 0.930 . S
H1958 C1968 0.930 . S
H1959 C1971 0.929 . S
H1960 C1974 0.930 . S
H1961 C1976 0.960 . S
H1962 C1976 0.960 . S
H1963 C1976 0.960 . S
C1964 H1956 0.929 . S
C1964 C1965 1.377 . S
C1964 C1966 1.384 . S
C1965 C1964 1.377 . S
C1965 C1971 1.390 . S
C1966 H1957 0.930 . S
C1966 C1964 1.384 . S
C1966 C1967 1.372 . S
C1967 C1966 1.372 . S
C1967 C1968 1.400 . S
C1967 C1972 1.490 1_554 S
C1968 H1958 0.930 . S
C1968 C1967 1.400 . S
C1968 C1971 1.386 . S
H1969 C1985 0.930 . S
H1970 C1986 0.931 . S
C1971 H1959 0.929 . S
C1971 C1965 1.390 . S
C1971 C1968 1.386 . S
C1972 C1967 1.490 1_556 S
C1972 C1974 1.395 . S
C1972 C1975 1.403 . S
H1973 C1979 0.930 . S
C1974 H1960 0.930 . S
C1974 C1972 1.395 . S
C1974 C1977 1.403 . S
C1975 C1972 1.403 . S
C1975 C1976 1.524 . S
C1975 C1979 1.400 . S
C1976 H1961 0.960 . S
C1976 H1962 0.960 . S
C1976 H1963 0.960 . S
C1976 C1975 1.524 . S
C1977 C1974 1.403 . S
C1977 C1978 1.392 . S
C1977 C1981 1.495 . S
C1978 C1977 1.392 . S
C1978 C1979 1.385 . S
C1978 C1980 1.478 . S
C1979 H1973 0.930 . S
C1979 C1975 1.400 . S
C1979 C1978 1.385 . S
C1980 C1978 1.478 . S
C1980 C1982 1.381 . S
C1980 C1986 1.383 . S
C1981 C1977 1.495 . S
C1981 H1987 0.959 . S
C1981 H1988 0.961 . S
C1981 H1989 0.960 . S
C1982 C1980 1.381 . S
C1982 C1983 1.394 . S
C1982 H1990 0.930 . S
C1983 C1982 1.394 . S
C1983 C1984 1.383 . S
C1983 H1991 0.929 . S
C1984 C1983 1.383 . S
C1984 C1985 1.377 . S
C1985 H1969 0.930 . S
C1985 C1984 1.377 . S
C1985 C1986 1.379 . S
C1986 H1970 0.931 . S
C1986 C1980 1.383 . S
C1986 C1985 1.379 . S
H1987 C1981 0.959 . S
H1988 C1981 0.961 . S
H1989 C1981 0.960 . S
H1990 C1982 0.930 . S
H1991 C1983 0.929 . S
H1992 C2000 0.929 . S
H1993 C2002 0.930 . S
H1994 C2004 0.930 . S
H1995 C2007 0.929 . S
H1996 C2010 0.930 . S
H1997 C2012 0.960 . S
H1998 C2012 0.960 . S
H1999 C2012 0.960 . S
C2000 H1992 0.929 . S
C2000 C2001 1.377 . S
C2000 C2002 1.384 . S
C2001 C2000 1.377 . S
C2001 C2007 1.390 . S
C2002 H1993 0.930 . S
C2002 C2000 1.384 . S
C2002 C2003 1.372 . S
C2003 C2002 1.372 . S
C2003 C2004 1.400 . S
C2003 C2008 1.490 1_556 S
C2004 H1994 0.930 . S
C2004 C2003 1.400 . S
C2004 C2007 1.386 . S
H2005 C2021 0.930 . S
H2006 C2022 0.931 . S
C2007 H1995 0.929 . S
C2007 C2001 1.390 . S
C2007 C2004 1.386 . S
C2008 C2003 1.490 1_554 S
C2008 C2010 1.395 . S
C2008 C2011 1.403 . S
H2009 C2015 0.930 . S
C2010 H1996 0.930 . S
C2010 C2008 1.395 . S
C2010 C2013 1.403 . S
C2011 C2008 1.403 . S
C2011 C2012 1.524 . S
C2011 C2015 1.400 . S
C2012 H1997 0.960 . S
C2012 H1998 0.960 . S
C2012 H1999 0.960 . S
C2012 C2011 1.524 . S
C2013 C2010 1.403 . S
C2013 C2014 1.392 . S
C2013 C2017 1.495 . S
C2014 C2013 1.392 . S
C2014 C2015 1.385 . S
C2014 C2016 1.478 . S
C2015 H2009 0.930 . S
C2015 C2011 1.400 . S
C2015 C2014 1.385 . S
C2016 C2014 1.478 . S
C2016 C2018 1.381 . S
C2016 C2022 1.383 . S
C2017 C2013 1.495 . S
C2017 H2023 0.959 . S
C2017 H2024 0.961 . S
C2017 H2025 0.960 . S
C2018 C2016 1.381 . S
C2018 C2019 1.394 . S
C2018 H2026 0.930 . S
C2019 C2018 1.394 . S
C2019 C2020 1.383 . S
C2019 H2027 0.929 . S
C2020 C2019 1.383 . S
C2020 C2021 1.377 . S
C2021 H2005 0.930 . S
C2021 C2020 1.377 . S
C2021 C2022 1.379 . S
C2022 H2006 0.931 . S
C2022 C2016 1.383 . S
C2022 C2021 1.379 . S
H2023 C2017 0.959 . S
H2024 C2017 0.961 . S
H2025 C2017 0.960 . S
H2026 C2018 0.930 . S
H2027 C2019 0.929 . S
H2028 C2036 0.929 . S
H2029 C2038 0.930 . S
H2030 C2040 0.930 . S
H2031 C2043 0.929 . S
H2032 C2046 0.930 . S
H2033 C2048 0.960 . S
H2034 C2048 0.960 . S
H2035 C2048 0.960 . S
C2036 H2028 0.929 . S
C2036 C2037 1.377 . S
C2036 C2038 1.384 . S
C2037 C2036 1.377 . S
C2037 C2043 1.390 . S
C2038 H2029 0.930 . S
C2038 C2036 1.384 . S
C2038 C2039 1.372 . S
C2039 C2038 1.372 . S
C2039 C2040 1.400 . S
C2039 C2044 1.490 . S
C2040 H2030 0.930 . S
C2040 C2039 1.400 . S
C2040 C2043 1.386 . S
H2041 C2057 0.930 . S
H2042 C2058 0.931 . S
C2043 H2031 0.929 . S
C2043 C2037 1.390 . S
C2043 C2040 1.386 . S
C2044 C2039 1.490 . S
C2044 C2046 1.395 . S
C2044 C2047 1.403 . S
H2045 C2051 0.930 . S
C2046 H2032 0.930 . S
C2046 C2044 1.395 . S
C2046 C2049 1.403 . S
C2047 C2044 1.403 . S
C2047 C2048 1.524 . S
C2047 C2051 1.400 . S
C2048 H2033 0.960 . S
C2048 H2034 0.960 . S
C2048 H2035 0.960 . S
C2048 C2047 1.524 . S
C2049 C2046 1.403 . S
C2049 C2050 1.392 . S
C2049 C2053 1.495 . S
C2050 C2049 1.392 . S
C2050 C2051 1.385 . S
C2050 C2052 1.478 1_556 S
C2051 H2045 0.930 . S
C2051 C2047 1.400 . S
C2051 C2050 1.385 . S
C2052 C2050 1.478 1_554 S
C2052 C2054 1.381 . S
C2052 C2058 1.383 . S
C2053 C2049 1.495 . S
C2053 H2059 0.959 . S
C2053 H2060 0.961 . S
C2053 H2061 0.960 . S
C2054 C2052 1.381 . S
C2054 C2055 1.394 . S
C2054 H2062 0.930 . S
C2055 C2054 1.394 . S
C2055 C2056 1.383 . S
C2055 H2063 0.929 . S
C2056 C2055 1.383 . S
C2056 C2057 1.377 . S
C2057 H2041 0.930 . S
C2057 C2056 1.377 . S
C2057 C2058 1.379 . S
C2058 H2042 0.931 . S
C2058 C2052 1.383 . S
C2058 C2057 1.379 . S
H2059 C2053 0.959 . S
H2060 C2053 0.961 . S
H2061 C2053 0.960 . S
H2062 C2054 0.930 . S
H2063 C2055 0.929 . S
C345 C244 1.485 . S
C364 C18 1.380 . S
C381 C181 1.478 . S
C400 C39 1.339 . S
C417 C60 1.376 . S
C436 C202 1.483 . S
C453 C81 1.363 . S
C472 C223 1.494 . S
C489 C102 1.381 . S
C508 C118 1.456 . S
C525 C142 1.488 . S
C544 C123 1.382 . S
C561 C141 1.371 . S
C580 C160 1.495 . S
C597 C97 1.477 . S
C616 C165 1.352 . S
C633 C76 1.487 . S
C652 C186 1.361 . S
C669 C207 1.380 . S
C688 C13 1.474 . S
C705 C34 1.488 . S
C724 C228 1.340 . S
C741 C55 1.486 . S
C760 C249 1.403 . S
C777 C270 1.362 . S
C796 C286 1.495 . S
C813 C310 1.483 . S
C832 C291 1.413 . S
C849 C328 1.484 . S
C868 C309 1.387 . S
C885 C333 1.366 . S
C904 C265 1.504 . S
C921 C15 1.102 . S
C940 C99 1.150 . S
C957 C120 1.098 . S
C976 C36 1.020 . S
C993 C57 1.102 . S
C1012 C144 1.152 . S
C1029 C78 1.096 . S
C1048 C162 1.020 . S
C1065 C183 1.088 . S
C1084 C267 1.081 . S
C1101 C288 1.093 . S
C1120 C204 1.024 . S
C1137 C225 1.095 . S
C1156 C312 1.113 . S
C1173 C246 1.102 . S
C1192 C330 1.039 . S
C1209 C308 1.787 . S
C1228 C17 1.759 . S
C1245 C38 1.787 . S
C1264 C332 1.802 . S
C1281 C59 1.796 . S
C1300 C269 1.806 . S
C1317 C80 1.796 . S
C1336 C290 1.760 . S
C1353 C101 1.790 . S
C1372 C227 1.808 . S
C1389 C122 1.785 . S
C1408 C248 1.810 . S
C1425 C140 1.796 . S
C1444 C185 1.805 . S
C1461 C206 1.789 . S
C1480 C164 1.794 . S
C1497 C14 1.003 . S
C1516 C16 0.973 . S
C1533 C35 0.995 . S
C1552 C37 0.978 . S
C1569 C56 0.994 . S
C1588 C58 0.969 . S
C1605 C79 1.010 . S
C1624 C77 1.030 . S
C1641 C100 1.011 . S
C1660 C98 1.032 . S
C1677 C119 0.994 . S
C1696 C121 1.003 . S
C1713 C143 0.998 . S
C1732 C139 0.958 . S
C1749 C163 0.994 . S
C1768 C161 1.018 . S
C1785 C182 1.001 . S
C1804 C184 1.019 . S
C1821 C205 1.000 . S
C1840 C203 1.041 . S
C1857 C226 1.005 . S
C1876 C224 0.987 . S
C1893 C245 1.012 . S
C1912 C247 1.018 . S
C1929 C266 1.006 . S
C1948 C268 1.038 . S
C1965 C289 1.000 . S
C1984 C287 1.041 . S
C2001 C307 0.998 . S
C2020 C311 0.962 . S
C2037 C329 0.995 . S
C2056 C331 0.978 . S
