# Generated by pormake.
# Topology gsi, (4)-cn, num edge types: 1
# Building blocks:
#     Node 0, Type 0, BuildingBlock: QUQFOY_clean_sbu_3, # of connection points: 4
#     Node 1, Type 0, BuildingBlock: QUQFOY_clean_sbu_3, # of connection points: 4
#     Node 2, Type 0, BuildingBlock: QUQFOY_clean_sbu_3, # of connection points: 4
#     Node 3, Type 0, BuildingBlock: QUQFOY_clean_sbu_3, # of connection points: 4
#     Node 4, Type 0, BuildingBlock: QUQFOY_clean_sbu_3, # of connection points: 4
#     Node 5, Type 0, BuildingBlock: QUQFOY_clean_sbu_3, # of connection points: 4
#     Node 6, Type 0, BuildingBlock: QUQFOY_clean_sbu_3, # of connection points: 4
#     Node 7, Type 0, BuildingBlock: QUQFOY_clean_sbu_3, # of connection points: 4
#     Node 8, Type 0, BuildingBlock: QUQFOY_clean_sbu_3, # of connection points: 4
#     Node 9, Type 0, BuildingBlock: QUQFOY_clean_sbu_3, # of connection points: 4
#     Node 10, Type 0, BuildingBlock: QUQFOY_clean_sbu_3, # of connection points: 4
#     Node 11, Type 0, BuildingBlock: QUQFOY_clean_sbu_3, # of connection points: 4
#     Node 12, Type 0, BuildingBlock: QUQFOY_clean_sbu_3, # of connection points: 4
#     Node 13, Type 0, BuildingBlock: QUQFOY_clean_sbu_3, # of connection points: 4
#     Node 14, Type 0, BuildingBlock: QUQFOY_clean_sbu_3, # of connection points: 4
#     Node 15, Type 0, BuildingBlock: QUQFOY_clean_sbu_3, # of connection points: 4
#     Edge 16, Type (0, 0), BuildingBlock: TEMPAE_clean_linker_10, # of connection points: 2
#     Edge 17, Type (0, 0), BuildingBlock: TEMPAE_clean_linker_10, # of connection points: 2
#     Edge 18, Type (0, 0), BuildingBlock: TEMPAE_clean_linker_10, # of connection points: 2
#     Edge 19, Type (0, 0), BuildingBlock: TEMPAE_clean_linker_10, # of connection points: 2
#     Edge 20, Type (0, 0), BuildingBlock: TEMPAE_clean_linker_10, # of connection points: 2
#     Edge 21, Type (0, 0), BuildingBlock: TEMPAE_clean_linker_10, # of connection points: 2
#     Edge 22, Type (0, 0), BuildingBlock: TEMPAE_clean_linker_10, # of connection points: 2
#     Edge 23, Type (0, 0), BuildingBlock: TEMPAE_clean_linker_10, # of connection points: 2
#     Edge 24, Type (0, 0), BuildingBlock: TEMPAE_clean_linker_10, # of connection points: 2
#     Edge 25, Type (0, 0), BuildingBlock: TEMPAE_clean_linker_10, # of connection points: 2
#     Edge 26, Type (0, 0), BuildingBlock: TEMPAE_clean_linker_10, # of connection points: 2
#     Edge 27, Type (0, 0), BuildingBlock: TEMPAE_clean_linker_10, # of connection points: 2
#     Edge 28, Type (0, 0), BuildingBlock: TEMPAE_clean_linker_10, # of connection points: 2
#     Edge 29, Type (0, 0), BuildingBlock: TEMPAE_clean_linker_10, # of connection points: 2
#     Edge 30, Type (0, 0), BuildingBlock: TEMPAE_clean_linker_10, # of connection points: 2
#     Edge 31, Type (0, 0), BuildingBlock: TEMPAE_clean_linker_10, # of connection points: 2
#     Edge 32, Type (0, 0), BuildingBlock: TEMPAE_clean_linker_10, # of connection points: 2
#     Edge 33, Type (0, 0), BuildingBlock: TEMPAE_clean_linker_10, # of connection points: 2
#     Edge 34, Type (0, 0), BuildingBlock: TEMPAE_clean_linker_10, # of connection points: 2
#     Edge 35, Type (0, 0), BuildingBlock: TEMPAE_clean_linker_10, # of connection points: 2
#     Edge 36, Type (0, 0), BuildingBlock: TEMPAE_clean_linker_10, # of connection points: 2
#     Edge 37, Type (0, 0), BuildingBlock: TEMPAE_clean_linker_10, # of connection points: 2
#     Edge 38, Type (0, 0), BuildingBlock: TEMPAE_clean_linker_10, # of connection points: 2
#     Edge 39, Type (0, 0), BuildingBlock: TEMPAE_clean_linker_10, # of connection points: 2
#     Edge 40, Type (0, 0), BuildingBlock: TEMPAE_clean_linker_10, # of connection points: 2
#     Edge 41, Type (0, 0), BuildingBlock: TEMPAE_clean_linker_10, # of connection points: 2
#     Edge 42, Type (0, 0), BuildingBlock: TEMPAE_clean_linker_10, # of connection points: 2
#     Edge 43, Type (0, 0), BuildingBlock: TEMPAE_clean_linker_10, # of connection points: 2
#     Edge 44, Type (0, 0), BuildingBlock: TEMPAE_clean_linker_10, # of connection points: 2
#     Edge 45, Type (0, 0), BuildingBlock: TEMPAE_clean_linker_10, # of connection points: 2
#     Edge 46, Type (0, 0), BuildingBlock: TEMPAE_clean_linker_10, # of connection points: 2
#     Edge 47, Type (0, 0), BuildingBlock: TEMPAE_clean_linker_10, # of connection points: 2
# Relax obj value: 0.139
# Max RMSD: 0.122
# Mean RMSD: 0.120
data_MOF--net-gsi--node1-QUQFOY_clean_sbu_3--edge1-TEMPAE_clean_linker_10
_symmetry_space_group_name_H-M    P1
_symmetry_Int_Tables_number       1
_symmetry_cell_setting            triclinic
loop_
_symmetry_equiv_pos_as_xyz
'x, y, z'
_cell_length_a     46.51156
_cell_length_b     37.787509
_cell_length_c     45.991645
_cell_angle_alpha  89.951933
_cell_angle_beta   89.963599
_cell_angle_gamma 90.045092
loop_
_atom_site_label
_atom_site_type_symbol
_atom_site_fract_x
_atom_site_fract_y
_atom_site_fract_z
_atom_type_partial_charge
C0 C 0.08755 0.20127 0.14019 0.0
O1 O 0.09863 0.21216 0.16376 0.0
Cd2 Cd 0.14239 0.19395 0.18525 0.0
O3 O 0.0999 0.17725 0.12521 0.0
Cd4 Cd 0.14588 0.14362 0.13099 0.0
C5 C 0.12804 0.10542 0.19416 0.0
O6 O 0.1751 0.19356 0.14584 0.0
O7 O 0.19293 0.14263 0.15563 0.0
O8 O 0.15351 0.14708 0.07877 0.0
C9 C 0.19643 0.17584 0.15451 0.0
O10 O 0.13559 0.13469 0.20556 0.0
C11 C 0.16393 0.11619 0.07631 0.0
O12 O 0.12642 0.10199 0.16665 0.0
O13 O 0.1636 0.09688 0.09891 0.0
C14 C 0.88951 0.29192 0.13633 0.0
O15 O 0.87755 0.28017 0.15921 0.0
Cd16 Cd 0.83479 0.30086 0.18134 0.0
O17 O 0.87869 0.31798 0.12247 0.0
Cd18 Cd 0.83429 0.35458 0.12861 0.0
C19 C 0.85349 0.3879 0.19314 0.0
O20 O 0.80265 0.30622 0.14178 0.0
O21 O 0.78693 0.35785 0.15262 0.0
O22 O 0.82803 0.35374 0.07624 0.0
C23 C 0.78207 0.32495 0.15087 0.0
O24 O 0.84468 0.35854 0.20349 0.0
C25 C 0.81885 0.38527 0.0743 0.0
O26 O 0.85523 0.3928 0.16578 0.0
O27 O 0.81915 0.40364 0.09739 0.0
C28 C 0.09929 0.7839 0.36651 0.0
O29 O 0.11012 0.77345 0.34268 0.0
Cd30 Cd 0.15169 0.79602 0.31885 0.0
O31 O 0.1111 0.8088 0.38093 0.0
Cd32 Cd 0.15549 0.8453 0.37515 0.0
C33 C 0.13296 0.88418 0.31377 0.0
O34 O 0.18758 0.80085 0.3549 0.0
O35 O 0.20068 0.85476 0.34876 0.0
O36 O 0.16616 0.83769 0.4265 0.0
C37 C 0.20638 0.82224 0.34557 0.0
O38 O 0.14065 0.85555 0.30138 0.0
C39 C 0.17296 0.86977 0.43095 0.0
O40 O 0.13282 0.88696 0.3414 0.0
O41 O 0.16974 0.89109 0.40984 0.0
C42 C 0.89837 0.70146 0.37025 0.0
O43 O 0.88733 0.71254 0.34671 0.0
Cd44 Cd 0.84405 0.6943 0.32394 0.0
O45 O 0.88585 0.67759 0.38529 0.0
Cd46 Cd 0.83932 0.64482 0.38014 0.0
C47 C 0.85789 0.60492 0.3178 0.0
O48 O 0.80954 0.69263 0.36143 0.0
O49 O 0.79359 0.64012 0.35401 0.0
O50 O 0.8279 0.65141 0.43155 0.0
C51 C 0.78941 0.67315 0.3522 0.0
O52 O 0.85123 0.63419 0.30578 0.0
C53 C 0.81983 0.61959 0.4351 0.0
O54 O 0.85879 0.60192 0.3454 0.0
O55 O 0.82319 0.59878 0.4137 0.0
C56 C 0.42137 0.82569 0.62436 0.0
O57 O 0.424 0.8214 0.65158 0.0
Cd58 Cd 0.38854 0.83443 0.68686 0.0
O59 O 0.39896 0.84035 0.61392 0.0
Cd60 Cd 0.35534 0.86757 0.63699 0.0
C61 C 0.38721 0.92382 0.68395 0.0
O62 O 0.34327 0.81572 0.66677 0.0
O63 O 0.31912 0.86309 0.67561 0.0
O64 O 0.33193 0.85315 0.59104 0.0
C65 C 0.32214 0.83014 0.67938 0.0
O66 O 0.39241 0.89652 0.69921 0.0
C67 C 0.31722 0.88134 0.58958 0.0
O68 O 0.37593 0.92093 0.65885 0.0
O69 O 0.32093 0.90383 0.60968 0.0
C70 C 0.87045 0.76482 0.85091 0.0
O71 O 0.85227 0.74049 0.84605 0.0
Cd72 Cd 0.80316 0.75324 0.83572 0.0
O73 O 0.86371 0.79731 0.84804 0.0
Cd74 Cd 0.822 0.8328 0.83133 0.0
C75 C 0.78642 0.81129 0.8916 0.0
O76 O 0.80409 0.7921 0.79499 0.0
O77 O 0.77357 0.83111 0.80962 0.0
O78 O 0.85518 0.86392 0.79959 0.0
C79 C 0.77993 0.8069 0.79168 0.0
O80 O 0.78284 0.7816 0.87896 0.0
C81 C 0.84588 0.8947 0.80522 0.0
O82 O 0.802 0.83528 0.88019 0.0
O83 O 0.82624 0.897 0.82436 0.0
C84 C 0.08219 0.72494 0.85974 0.0
O85 O 0.0986 0.75171 0.85867 0.0
Cd86 Cd 0.14912 0.74571 0.85411 0.0
O87 O 0.09198 0.69385 0.85564 0.0
Cd88 Cd 0.13838 0.66647 0.84058 0.0
C89 C 0.16638 0.68253 0.9058 0.0
O90 O 0.15653 0.71391 0.80977 0.0
O91 O 0.18789 0.67535 0.82354 0.0
O92 O 0.11164 0.63604 0.8027 0.0
C93 C 0.18166 0.70141 0.80739 0.0
O94 O 0.16634 0.71466 0.89743 0.0
C95 C 0.12181 0.60557 0.80791 0.0
O96 O 0.15649 0.65809 0.88965 0.0
O97 O 0.13905 0.60304 0.82923 0.0
C98 C 0.89319 0.20862 0.5979 0.0
O99 O 0.87503 0.23354 0.59607 0.0
Cd100 Cd 0.82859 0.23022 0.61803 0.0
O101 O 0.88651 0.17946 0.61008 0.0
Cd102 Cd 0.84246 0.15406 0.63183 0.0
C103 C 0.7984 0.16771 0.57534 0.0
O104 O 0.83398 0.20316 0.66489 0.0
O105 O 0.79873 0.16657 0.65994 0.0
O106 O 0.87275 0.11967 0.66477 0.0
C107 C 0.81018 0.19155 0.67419 0.0
O108 O 0.79683 0.19914 0.58506 0.0
C109 C 0.85917 0.09085 0.66139 0.0
O110 O 0.81611 0.14575 0.58621 0.0
O111 O 0.83898 0.09095 0.64283 0.0
C112 C 0.09487 0.28755 0.602 0.0
O113 O 0.11375 0.26336 0.60147 0.0
Cd114 Cd 0.15966 0.26986 0.62402 0.0
O115 O 0.10041 0.31755 0.61332 0.0
Cd116 Cd 0.14289 0.34622 0.63543 0.0
C117 C 0.18802 0.33253 0.57983 0.0
O118 O 0.15256 0.29885 0.66982 0.0
O119 O 0.18663 0.33703 0.66437 0.0
O120 O 0.11044 0.38015 0.66645 0.0
C121 C 0.1759 0.31186 0.67902 0.0
O122 O 0.19045 0.30155 0.59035 0.0
C123 C 0.12323 0.40948 0.66283 0.0
O124 O 0.16959 0.35406 0.59004 0.0
O125 O 0.14409 0.40975 0.64502 0.0
C126 C 0.59014 0.20487 0.37602 0.0
O127 O 0.60873 0.22944 0.37676 0.0
Cd128 Cd 0.65368 0.22694 0.352 0.0
O129 O 0.59559 0.17561 0.36338 0.0
Cd130 Cd 0.63827 0.14949 0.33923 0.0
C131 C 0.68562 0.16414 0.39315 0.0
O132 O 0.64468 0.19903 0.30628 0.0
O133 O 0.68023 0.16267 0.30835 0.0
O134 O 0.60726 0.11374 0.30782 0.0
C135 C 0.66806 0.18827 0.29548 0.0
O136 O 0.68696 0.19547 0.38312 0.0
C137 C 0.62103 0.08513 0.31164 0.0
O138 O 0.6672 0.14225 0.38342 0.0
O139 O 0.64167 0.08608 0.32966 0.0
C140 C 0.55158 0.65286 0.60794 0.0
O141 O 0.54724 0.65639 0.63501 0.0
Cd142 Cd 0.58233 0.65115 0.67185 0.0
O143 O 0.57585 0.6422 0.59849 0.0
Cd144 Cd 0.61989 0.62031 0.62457 0.0
C145 C 0.59093 0.56289 0.67298 0.0
O146 O 0.62627 0.67512 0.65242 0.0
O147 O 0.65389 0.6318 0.66422 0.0
O148 O 0.64578 0.63407 0.57958 0.0
C149 C 0.64803 0.66438 0.6663 0.0
O150 O 0.58337 0.59013 0.6872 0.0
C151 C 0.66194 0.60706 0.5804 0.0
O152 O 0.60245 0.56592 0.64798 0.0
O153 O 0.65773 0.58543 0.60105 0.0
C154 C 0.59692 0.27194 0.87409 0.0
O155 O 0.60549 0.2564 0.85121 0.0
Cd156 Cd 0.6436 0.27356 0.81993 0.0
O157 O 0.61014 0.29914 0.88368 0.0
Cd158 Cd 0.65458 0.33243 0.86942 0.0
C159 C 0.62348 0.36016 0.80714 0.0
O160 O 0.68349 0.28381 0.85085 0.0
O161 O 0.69727 0.33616 0.83887 0.0
O162 O 0.67039 0.33397 0.91962 0.0
C163 C 0.70191 0.30317 0.83825 0.0
O164 O 0.6275 0.32894 0.79747 0.0
C165 C 0.67734 0.36648 0.9195 0.0
O166 O 0.62982 0.36822 0.83327 0.0
O167 O 0.67196 0.38388 0.89651 0.0
C168 C 0.39377 0.22452 0.87481 0.0
O169 O 0.38581 0.23917 0.85131 0.0
Cd170 Cd 0.34721 0.22274 0.82064 0.0
O171 O 0.37954 0.19866 0.88547 0.0
Cd172 Cd 0.33384 0.16751 0.87185 0.0
C173 C 0.36408 0.13469 0.81085 0.0
O174 O 0.30695 0.21716 0.852 0.0
O175 O 0.29145 0.16535 0.84071 0.0
O176 O 0.31695 0.16831 0.92188 0.0
C177 C 0.28782 0.19852 0.83982 0.0
O178 O 0.36129 0.16553 0.79998 0.0
C179 C 0.30893 0.13617 0.92222 0.0
O180 O 0.3573 0.12845 0.83721 0.0
O181 O 0.31427 0.11791 0.89971 0.0
C182 C 0.39217 0.29251 0.37627 0.0
O183 O 0.37334 0.26821 0.37686 0.0
Cd184 Cd 0.32809 0.27201 0.35291 0.0
O185 O 0.3869 0.32216 0.36412 0.0
Cd186 Cd 0.34417 0.3494 0.34087 0.0
C187 C 0.29769 0.33459 0.39549 0.0
O188 O 0.33655 0.30078 0.30739 0.0
O189 O 0.30131 0.33741 0.31105 0.0
O190 O 0.37481 0.38521 0.30912 0.0
C191 C 0.313 0.31211 0.29739 0.0
O192 O 0.29584 0.30347 0.38515 0.0
C193 C 0.36132 0.41391 0.31343 0.0
O194 O 0.31615 0.35637 0.38561 0.0
O195 O 0.34109 0.41299 0.33195 0.0
C196 C 0.3928 0.7168 0.09939 0.0
O197 O 0.37827 0.74494 0.09639 0.0
Cd198 Cd 0.33061 0.74958 0.11462 0.0
O199 O 0.382 0.68987 0.11203 0.0
Cd200 Cd 0.33604 0.67244 0.13535 0.0
C201 C 0.29667 0.68548 0.07507 0.0
O202 O 0.33086 0.7266 0.16365 0.0
O203 O 0.2939 0.69199 0.16267 0.0
O204 O 0.36538 0.64052 0.17057 0.0
C205 C 0.3065 0.71835 0.17394 0.0
O206 O 0.30113 0.71818 0.07972 0.0
C207 C 0.35141 0.61176 0.16921 0.0
O208 O 0.30759 0.6619 0.09141 0.0
O209 O 0.33069 0.61071 0.15126 0.0
C210 C 0.60078 0.76414 0.11035 0.0
O211 O 0.61861 0.73877 0.10954 0.0
Cd212 Cd 0.6651 0.74323 0.1314 0.0
O213 O 0.60769 0.79368 0.12172 0.0
Cd214 Cd 0.65063 0.82062 0.14413 0.0
C215 C 0.69426 0.80547 0.08715 0.0
O216 O 0.65879 0.77193 0.17754 0.0
O217 O 0.6936 0.80943 0.17381 0.0
O218 O 0.61779 0.8544 0.17482 0.0
C219 C 0.68217 0.78392 0.18752 0.0
O220 O 0.6959 0.7741 0.09706 0.0
C221 C 0.63073 0.88373 0.17185 0.0
O222 O 0.67705 0.82775 0.0984 0.0
O223 O 0.65219 0.88413 0.15476 0.0
C224 C 0.23071 0.17738 0.19592 0.0
C225 C 0.21939 0.19343 0.17098 0.0
C226 C 0.24828 0.19653 0.21499 0.0
C227 C 0.2552 0.23215 0.20841 0.0
C228 C 0.24557 0.24755 0.18212 0.0
C229 C 0.22735 0.22811 0.16388 0.0
C230 C 0.25774 0.17945 0.2431 0.0
C231 C 0.25327 0.2851 0.17399 0.0
C232 C 0.26825 0.2937 0.27193 0.0
C233 C 0.29828 0.29335 0.27372 0.0
C234 C 0.25397 0.27389 0.25065 0.0
C235 C 0.27023 0.25417 0.23026 0.0
C236 C 0.3006 0.25477 0.23135 0.0
C237 C 0.31429 0.27401 0.2534 0.0
C238 C 0.22149 0.2733 0.25047 0.0
C239 C 0.31857 0.23489 0.20944 0.0
H240 H 0.22432 0.15062 0.20152 0.0
H241 H 0.21865 0.24038 0.14446 0.0
H242 H 0.28127 0.18239 0.24605 0.0
H243 H 0.24715 0.19292 0.26167 0.0
H244 H 0.25224 0.15085 0.24397 0.0
H245 H 0.24741 0.29136 0.15114 0.0
H246 H 0.24178 0.30378 0.1885 0.0
H247 H 0.27665 0.28973 0.1769 0.0
H248 H 0.2559 0.30854 0.28777 0.0
H249 H 0.33757 0.27405 0.25468 0.0
H250 H 0.2137 0.24573 0.25319 0.0
H251 H 0.21332 0.28303 0.22927 0.0
H252 H 0.21211 0.28984 0.26803 0.0
H253 H 0.3147 0.20604 0.2116 0.0
H254 H 0.34194 0.23998 0.2122 0.0
H255 H 0.31225 0.24255 0.18704 0.0
C256 C 0.74858 0.32416 0.19299 0.0
C257 C 0.75874 0.30825 0.16749 0.0
C258 C 0.73109 0.30525 0.21236 0.0
C259 C 0.72309 0.27006 0.20555 0.0
C260 C 0.73138 0.25499 0.17868 0.0
C261 C 0.74951 0.27415 0.16011 0.0
C262 C 0.72306 0.32197 0.24105 0.0
C263 C 0.72251 0.21793 0.1703 0.0
C264 C 0.71193 0.20697 0.26854 0.0
C265 C 0.68202 0.20775 0.27166 0.0
C266 C 0.72555 0.22721 0.24703 0.0
C267 C 0.7087 0.24787 0.22778 0.0
C268 C 0.67841 0.24783 0.23027 0.0
C269 C 0.66542 0.22809 0.25249 0.0
C270 C 0.75799 0.22712 0.24534 0.0
C271 C 0.65979 0.26877 0.2096 0.0
H272 H 0.75592 0.35045 0.19881 0.0
H273 H 0.75731 0.26199 0.14026 0.0
H274 H 0.69966 0.31927 0.24513 0.0
H275 H 0.73439 0.30805 0.25895 0.0
H276 H 0.72885 0.35048 0.24193 0.0
H277 H 0.72713 0.21219 0.14708 0.0
H278 H 0.73434 0.19851 0.18387 0.0
H279 H 0.69922 0.21389 0.17434 0.0
H280 H 0.72476 0.19137 0.28347 0.0
H281 H 0.64221 0.22841 0.2548 0.0
H282 H 0.76631 0.25446 0.24802 0.0
H283 H 0.76506 0.21765 0.22366 0.0
H284 H 0.7679 0.21001 0.26223 0.0
H285 H 0.66436 0.29744 0.21194 0.0
H286 H 0.63649 0.26432 0.21351 0.0
H287 H 0.66484 0.26145 0.1868 0.0
C288 C 0.26452 0.73607 0.20414 0.0
C289 C 0.29417 0.73715 0.19903 0.0
C290 C 0.25264 0.75226 0.22875 0.0
C291 C 0.27101 0.76904 0.24907 0.0
C292 C 0.30098 0.77037 0.24393 0.0
C293 C 0.31219 0.75476 0.2187 0.0
C294 C 0.22046 0.75107 0.23317 0.0
C295 C 0.32123 0.78733 0.26546 0.0
C296 C 0.23433 0.833 0.30028 0.0
C297 C 0.22732 0.81063 0.32357 0.0
C298 C 0.24961 0.82019 0.27624 0.0
C299 C 0.25866 0.78445 0.27594 0.0
C300 C 0.25347 0.76252 0.30037 0.0
C301 C 0.23745 0.77576 0.32377 0.0
C302 C 0.25424 0.84417 0.25037 0.0
C303 C 0.2635 0.72454 0.30114 0.0
H304 H 0.25058 0.7226 0.18883 0.0
H305 H 0.33519 0.75529 0.21487 0.0
H306 H 0.21532 0.73566 0.25304 0.0
H307 H 0.21198 0.77823 0.23639 0.0
H308 H 0.2091 0.73883 0.21447 0.0
H309 H 0.34391 0.78685 0.25788 0.0
H310 H 0.3149 0.81519 0.26946 0.0
H311 H 0.31989 0.77323 0.2866 0.0
H312 H 0.22628 0.85994 0.29996 0.0
H313 H 0.2321 0.75855 0.34185 0.0
H314 H 0.24099 0.83472 0.23188 0.0
H315 H 0.27702 0.84346 0.24327 0.0
H316 H 0.24826 0.87204 0.25511 0.0
H317 H 0.25081 0.70864 0.28545 0.0
H318 H 0.26103 0.71256 0.32307 0.0
H319 H 0.28641 0.72275 0.29454 0.0
C320 C 0.75967 0.66738 0.30758 0.0
C321 C 0.76823 0.68753 0.33163 0.0
C322 C 0.74378 0.68271 0.28499 0.0
C323 C 0.73566 0.71871 0.287 0.0
C324 C 0.74262 0.73848 0.31216 0.0
C325 C 0.75926 0.72276 0.33404 0.0
C326 C 0.73727 0.661 0.25822 0.0
C327 C 0.73354 0.77663 0.31541 0.0
C328 C 0.72566 0.76976 0.21682 0.0
C329 C 0.69585 0.76782 0.21311 0.0
C330 C 0.73891 0.7537 0.24079 0.0
C331 C 0.72175 0.73628 0.26188 0.0
C332 C 0.69155 0.73503 0.25857 0.0
C333 C 0.67897 0.75041 0.23394 0.0
C334 C 0.77128 0.75482 0.24329 0.0
C335 C 0.67256 0.71756 0.28104 0.0
H336 H 0.76685 0.64023 0.30555 0.0
H337 H 0.76585 0.73826 0.35273 0.0
H338 H 0.71398 0.66196 0.25316 0.0
H339 H 0.74887 0.67231 0.23927 0.0
H340 H 0.74377 0.63288 0.26076 0.0
H341 H 0.73763 0.78687 0.33767 0.0
H342 H 0.74555 0.7933 0.29968 0.0
H343 H 0.71032 0.77957 0.31045 0.0
H344 H 0.73869 0.78312 0.20062 0.0
H345 H 0.65584 0.74927 0.23118 0.0
H346 H 0.77995 0.72749 0.24428 0.0
H347 H 0.77762 0.76834 0.2637 0.0
H348 H 0.78149 0.76883 0.22471 0.0
H349 H 0.67775 0.68898 0.28258 0.0
H350 H 0.64935 0.72035 0.27586 0.0
H351 H 0.67662 0.72931 0.30276 0.0
C352 C 0.2986 0.77375 0.69427 0.0
C353 C 0.30297 0.81001 0.69876 0.0
C354 C 0.27937 0.75461 0.71176 0.0
C355 C 0.26494 0.77205 0.73476 0.0
C356 C 0.26997 0.80846 0.73989 0.0
C357 C 0.28863 0.82716 0.72151 0.0
C358 C 0.27393 0.71604 0.70517 0.0
C359 C 0.25553 0.82772 0.76468 0.0
C360 C 0.19422 0.73673 0.7636 0.0
C361 C 0.20314 0.71829 0.78841 0.0
C362 C 0.21426 0.75347 0.74545 0.0
C363 C 0.24378 0.7526 0.75287 0.0
C364 C 0.2529 0.73401 0.77796 0.0
C365 C 0.23245 0.71657 0.79524 0.0
C366 C 0.20382 0.77223 0.71843 0.0
C367 C 0.28412 0.73331 0.78693 0.0
H368 H 0.30959 0.76058 0.67653 0.0
H369 H 0.29223 0.85517 0.72513 0.0
H370 H 0.27876 0.69959 0.72454 0.0
H371 H 0.25087 0.71204 0.69991 0.0
H372 H 0.28708 0.70638 0.68664 0.0
H373 H 0.26323 0.85543 0.76685 0.0
H374 H 0.23193 0.82816 0.76124 0.0
H375 H 0.25955 0.8136 0.78545 0.0
H376 H 0.17155 0.73776 0.75821 0.0
H377 H 0.23929 0.70246 0.81457 0.0
H378 H 0.21556 0.76231 0.69907 0.0
H379 H 0.20829 0.80098 0.72016 0.0
H380 H 0.1804 0.76852 0.71483 0.0
H381 H 0.29748 0.72206 0.76924 0.0
H382 H 0.28767 0.71751 0.80699 0.0
H383 H 0.29182 0.76072 0.7908 0.0
C384 C 0.68071 0.67439 0.70827 0.0
C385 C 0.66489 0.68819 0.685 0.0
C386 C 0.69758 0.6965 0.72575 0.0
C387 C 0.69926 0.73307 0.71922 0.0
C388 C 0.68312 0.74721 0.69587 0.0
C389 C 0.66578 0.72459 0.67922 0.0
C390 C 0.71399 0.6806 0.7509 0.0
C391 C 0.68496 0.7859 0.68786 0.0
C392 C 0.72934 0.79211 0.7785 0.0
C393 C 0.75865 0.79196 0.77151 0.0
C394 C 0.70945 0.77382 0.76118 0.0
C395 C 0.71916 0.75592 0.73599 0.0
C396 C 0.74852 0.75754 0.72798 0.0
C397 C 0.768 0.77513 0.74612 0.0
C398 C 0.67842 0.77201 0.7707 0.0
C399 C 0.75955 0.73958 0.70085 0.0
H400 H 0.6798 0.64627 0.71289 0.0
H401 H 0.65363 0.73519 0.66109 0.0
H402 H 0.73743 0.68272 0.7468 0.0
H403 H 0.70933 0.69542 0.77119 0.0
H404 H 0.70856 0.65228 0.75442 0.0
H405 H 0.6701 0.79297 0.66987 0.0
H406 H 0.67988 0.80263 0.70698 0.0
H407 H 0.70725 0.79241 0.68108 0.0
H408 H 0.72218 0.80497 0.79829 0.0
H409 H 0.79068 0.77534 0.74063 0.0
H410 H 0.67302 0.74441 0.77694 0.0
H411 H 0.66396 0.77948 0.75254 0.0
H412 H 0.67394 0.78957 0.78952 0.0
H413 H 0.7581 0.71045 0.70347 0.0
H414 H 0.78227 0.74662 0.6961 0.0
H415 H 0.74614 0.74692 0.68184 0.0
C416 C 0.73099 0.25264 0.81976 0.0
C417 C 0.72221 0.28794 0.81715 0.0
C418 C 0.74756 0.23663 0.79797 0.0
C419 C 0.75473 0.25622 0.77274 0.0
C420 C 0.74665 0.2922 0.77043 0.0
C421 C 0.73078 0.30778 0.79289 0.0
C422 C 0.75656 0.19849 0.80149 0.0
C423 C 0.75345 0.31372 0.74358 0.0
C424 C 0.81246 0.22493 0.72068 0.0
C425 C 0.79601 0.20755 0.69954 0.0
C426 C 0.79939 0.24009 0.74513 0.0
C427 C 0.76913 0.23861 0.74794 0.0
C428 C 0.75242 0.22119 0.72657 0.0
C429 C 0.76614 0.20539 0.70276 0.0
C430 C 0.8179 0.25768 0.7679 0.0
C431 C 0.72002 0.21981 0.72855 0.0
H432 H 0.72448 0.23738 0.83863 0.0
H433 H 0.72385 0.33504 0.79073 0.0
H434 H 0.74501 0.18182 0.78545 0.0
H435 H 0.77991 0.1956 0.79713 0.0
H436 H 0.75188 0.1882 0.82363 0.0
H437 H 0.74661 0.34177 0.74574 0.0
H438 H 0.77685 0.31309 0.739 0.0
H439 H 0.74237 0.30203 0.7245 0.0
H440 H 0.83563 0.22623 0.71831 0.0
H441 H 0.75344 0.19203 0.68633 0.0
H442 H 0.81343 0.24599 0.78958 0.0
H443 H 0.81265 0.28625 0.76922 0.0
H444 H 0.84122 0.25491 0.76317 0.0
H445 H 0.71339 0.20647 0.74897 0.0
H446 H 0.7102 0.20554 0.70992 0.0
H447 H 0.7112 0.24709 0.72917 0.0
C448 C 0.22071 0.29909 0.70664 0.0
C449 C 0.19079 0.29652 0.70422 0.0
C450 C 0.23517 0.28329 0.72999 0.0
C451 C 0.21915 0.26548 0.75175 0.0
C452 C 0.18883 0.26382 0.74985 0.0
C453 C 0.17501 0.27895 0.72581 0.0
C454 C 0.26761 0.28485 0.73099 0.0
C455 C 0.17105 0.24588 0.77307 0.0
C456 C 0.25844 0.19526 0.79479 0.0
C457 C 0.26754 0.21452 0.81912 0.0
C458 C 0.24223 0.21143 0.77286 0.0
C459 C 0.23432 0.2474 0.77584 0.0
C460 C 0.24219 0.26645 0.8011 0.0
C461 C 0.25912 0.24987 0.82231 0.0
C462 C 0.23473 0.19051 0.74593 0.0
C463 C 0.23338 0.30455 0.80533 0.0
H464 H 0.23287 0.31259 0.68985 0.0
H465 H 0.1518 0.27734 0.72404 0.0
H466 H 0.27479 0.29766 0.75142 0.0
H467 H 0.27654 0.25763 0.73085 0.0
H468 H 0.27681 0.2997 0.71231 0.0
H469 H 0.1476 0.24897 0.76928 0.0
H470 H 0.17615 0.21722 0.77374 0.0
H471 H 0.17639 0.25697 0.79474 0.0
H472 H 0.26514 0.16797 0.79218 0.0
H473 H 0.26607 0.26466 0.84124 0.0
H474 H 0.24505 0.20282 0.72665 0.0
H475 H 0.21118 0.19094 0.74221 0.0
H476 H 0.24185 0.1625 0.7474 0.0
H477 H 0.24438 0.32148 0.78905 0.0
H478 H 0.23883 0.31445 0.82739 0.0
H479 H 0.2099 0.30753 0.80187 0.0
C480 C 0.14212 0.92005 0.26947 0.0
C481 C 0.12707 0.91557 0.29562 0.0
C482 C 0.13939 0.95117 0.25315 0.0
C483 C 0.1204 0.978 0.26273 0.0
C484 C 0.10403 0.97287 0.28838 0.0
C485 C 0.10798 0.94192 0.30488 0.0
C486 C 0.1579 0.95599 0.22642 0.0
C487 C 0.08286 0.00039 0.29871 0.0
C488 C 0.13973 0.07088 0.23862 0.0
C489 C 0.12358 0.07432 0.21307 0.0
C490 C 0.1383 0.03998 0.25542 0.0
C491 C 0.11953 0.01233 0.24696 0.0
C492 C 0.10198 0.01648 0.22203 0.0
C493 C 0.10461 0.04722 0.20503 0.0
C494 C 0.15802 0.03621 0.28133 0.0
C495 C 0.08103 0.98807 0.2129 0.0
H496 H 0.15713 0.89985 0.26242 0.0
H497 H 0.09619 0.93834 0.32501 0.0
H498 H 0.14428 0.9616 0.20719 0.0
H499 H 0.17238 0.97905 0.22946 0.0
H500 H 0.17126 0.93232 0.2217 0.0
H501 H 0.06938 0.99057 0.31697 0.0
H502 H 0.09459 0.0243 0.30611 0.0
H503 H 0.06859 0.00857 0.28059 0.0
H504 H 0.15459 0.0917 0.24475 0.0
H505 H 0.09193 0.05001 0.18539 0.0
H506 H 0.1732 0.01402 0.2776 0.0
H507 H 0.14544 0.02978 0.30113 0.0
H508 H 0.17067 0.06063 0.28552 0.0
H509 H 0.09298 0.96465 0.20485 0.0
H510 H 0.06636 0.99727 0.19541 0.0
H511 H 0.06795 0.97931 0.23178 0.0
C512 C 0.87908 0.44412 0.20573 0.0
C513 C 0.85929 0.41761 0.21312 0.0
C514 C 0.88282 0.47388 0.22362 0.0
C515 C 0.8656 0.4777 0.24883 0.0
C516 C 0.84609 0.45055 0.2567 0.0
C517 C 0.84352 0.42057 0.23897 0.0
C518 C 0.90452 0.50174 0.21506 0.0
C519 C 0.82672 0.45404 0.28292 0.0
C520 C 0.88015 0.54574 0.30792 0.0
C521 C 0.86196 0.57339 0.29933 0.0
C522 C 0.88268 0.51498 0.29093 0.0
C523 C 0.86581 0.51142 0.26546 0.0
C524 C 0.84761 0.53946 0.25665 0.0
C525 C 0.84628 0.5703 0.27345 0.0
C526 C 0.90301 0.4861 0.30045 0.0
C527 C 0.82864 0.53635 0.23012 0.0
H528 H 0.89147 0.4417 0.18586 0.0
H529 H 0.82803 0.40022 0.24461 0.0
H530 H 0.89319 0.52594 0.20768 0.0
H531 H 0.91794 0.50919 0.23404 0.0
H532 H 0.91884 0.49261 0.19723 0.0
H533 H 0.81361 0.42988 0.28673 0.0
H534 H 0.83962 0.45942 0.3027 0.0
H535 H 0.81197 0.47681 0.27983 0.0
H536 H 0.89242 0.54822 0.32784 0.0
H537 H 0.83196 0.59151 0.26693 0.0
H538 H 0.91708 0.47815 0.28209 0.0
H539 H 0.89061 0.46237 0.30712 0.0
H540 H 0.91674 0.49447 0.31898 0.0
H541 H 0.84187 0.53105 0.21054 0.0
H542 H 0.81578 0.56066 0.22621 0.0
H543 H 0.81366 0.51369 0.23278 0.0
C544 C 0.27203 0.09392 0.94101 0.0
C545 C 0.29076 0.1224 0.94601 0.0
C546 C 0.25046 0.08526 0.96119 0.0
C547 C 0.24796 0.10529 0.98704 0.0
C548 C 0.26828 0.13222 0.99316 0.0
C549 C 0.2893 0.14064 0.97244 0.0
C550 C 0.22919 0.05645 0.95385 0.0
C551 C 0.26677 0.15368 0.02082 0.0
C552 C 0.17795 0.12614 0.02472 0.0
C553 C 0.18056 0.10618 0.05024 0.0
C554 C 0.19859 0.12365 0.0026 0.0
C555 C 0.2226 0.10108 0.0064 0.0
C556 C 0.22394 0.0785 0.03091 0.0
C557 C 0.20271 0.08113 0.05251 0.0
C558 C 0.19597 0.14749 0.97637 0.0
C559 C 0.24912 0.05403 0.03573 0.0
H560 H 0.27302 0.0798 0.92052 0.0
H561 H 0.3039 0.16248 0.97646 0.0
H562 H 0.2249 0.03942 0.97303 0.0
H563 H 0.20847 0.06866 0.94737 0.0
H564 H 0.23684 0.03957 0.93566 0.0
H565 H 0.28586 0.17103 0.02363 0.0
H566 H 0.24727 0.17057 0.02046 0.0
H567 H 0.26506 0.13596 0.03999 0.0
H568 H 0.1607 0.14527 0.02276 0.0
H569 H 0.20485 0.0656 0.07223 0.0
H570 H 0.20045 0.13255 0.95612 0.0
H571 H 0.21207 0.1691 0.97791 0.0
H572 H 0.17426 0.15957 0.97468 0.0
H573 H 0.25521 0.04039 0.01529 0.0
H574 H 0.24442 0.03381 0.05264 0.0
H575 H 0.26797 0.06976 0.04293 0.0
C576 C 0.78167 0.42277 0.05039 0.0
C577 C 0.80332 0.39709 0.04805 0.0
C578 C 0.76086 0.42656 0.02851 0.0
C579 C 0.76211 0.40444 0.00374 0.0
C580 C 0.78589 0.38154 -0.00018 0.0
C581 C 0.80614 0.37796 0.02215 0.0
C582 C 0.73604 0.45156 0.03338 0.0
C583 C 0.78845 0.35817 0.97332 0.0
C584 C 0.69575 0.36411 0.97018 0.0
C585 C 0.69455 0.38163 0.94339 0.0
C586 C 0.7164 0.37328 0.99099 0.0
C587 C 0.7366 0.40031 0.98463 0.0
C588 C 0.7341 0.4199 0.95853 0.0
C589 C 0.71292 0.41042 0.9382 0.0
C590 C 0.71788 0.35225 0.0189 0.0
C591 C 0.75511 0.44895 0.95099 0.0
H592 H 0.77944 0.43775 0.07036 0.0
H593 H 0.82308 0.35841 0.02013 0.0
H594 H 0.72985 0.46502 0.01288 0.0
H595 H 0.71711 0.43628 0.04106 0.0
H596 H 0.74123 0.4719 0.05 0.0
H597 H 0.8101 0.34594 0.97153 0.0
H598 H 0.77223 0.33666 0.97461 0.0
H599 H 0.78412 0.37351 0.95323 0.0
H600 H 0.68137 0.34208 0.97436 0.0
H601 H 0.71209 0.42403 0.91746 0.0
H602 H 0.71952 0.37024 0.03788 0.0
H603 H 0.7374 0.33538 0.01874 0.0
H604 H 0.6988 0.33491 0.02189 0.0
H605 H 0.75999 0.46553 0.97025 0.0
H606 H 0.74685 0.46621 0.93331 0.0
H607 H 0.77561 0.43693 0.94358 0.0
C608 C 0.29714 0.86682 0.54086 0.0
C609 C 0.29553 0.88652 0.56657 0.0
C610 C 0.27545 0.86904 0.51982 0.0
C611 C 0.25124 0.89091 0.52494 0.0
C612 C 0.24978 0.91149 0.55059 0.0
C613 C 0.27214 0.90931 0.57102 0.0
C614 C 0.2781 0.84723 0.49243 0.0
C615 C 0.2241 0.93461 0.55699 0.0
C616 C 0.20724 0.90897 0.45731 0.0
C617 C 0.18812 0.88026 0.45778 0.0
C618 C 0.22694 0.9142 0.48001 0.0
C619 C 0.22702 0.89056 0.5039 0.0
C620 C 0.20596 0.86357 0.50569 0.0
C621 C 0.18694 0.85849 0.48242 0.0
C622 C 0.24921 0.94309 0.47716 0.0
C623 C 0.20484 0.8384 0.53118 0.0
H624 H 0.31528 0.84935 0.5373 0.0
H625 H 0.27075 0.92439 0.59102 0.0
H626 H 0.26087 0.82692 0.49189 0.0
H627 H 0.27534 0.86431 0.47299 0.0
H628 H 0.29921 0.83362 0.49085 0.0
H629 H 0.22727 0.95101 0.57677 0.0
H630 H 0.21956 0.95236 0.53833 0.0
H631 H 0.20481 0.91775 0.56022 0.0
H632 H 0.2083 0.92581 0.43825 0.0
H633 H 0.172 0.83645 0.48295 0.0
H634 H 0.27037 0.93105 0.47204 0.0
H635 H 0.25159 0.95776 0.49789 0.0
H636 H 0.24375 0.96219 0.45963 0.0
H637 H 0.22342 0.82004 0.53012 0.0
H638 H 0.18477 0.82243 0.53135 0.0
H639 H 0.2064 0.85313 0.55198 0.0
C640 C 0.70915 0.58044 0.56641 0.0
C641 C 0.68581 0.60242 0.55955 0.0
C642 C 0.73335 0.57868 0.54817 0.0
C643 C 0.7339 0.59889 0.52227 0.0
C644 C 0.70989 0.62004 0.51472 0.0
C645 C 0.68626 0.62182 0.5336 0.0
C646 C 0.7587 0.55627 0.55715 0.0
C647 C 0.70941 0.64148 0.48698 0.0
C648 C 0.80156 0.63139 0.48517 0.0
C649 C 0.8027 0.6092 0.4608 0.0
C650 C 0.78052 0.62657 0.50667 0.0
C651 C 0.75986 0.59931 0.50339 0.0
C652 C 0.76225 0.57523 0.47997 0.0
C653 C 0.78385 0.58028 0.45905 0.0
C654 C 0.77914 0.65225 0.53177 0.0
C655 C 0.74056 0.54597 0.47558 0.0
H656 H 0.70898 0.5656 0.58659 0.0
H657 H 0.66821 0.63871 0.52816 0.0
H658 H 0.76492 0.53811 0.53929 0.0
H659 H 0.77747 0.57358 0.56157 0.0
H660 H 0.75413 0.54035 0.57694 0.0
H661 H 0.68841 0.65479 0.48344 0.0
H662 H 0.72648 0.66199 0.48769 0.0
H663 H 0.71396 0.62419 0.46804 0.0
H664 H 0.81622 0.65363 0.48672 0.0
H665 H 0.78457 0.56306 0.44022 0.0
H666 H 0.77587 0.63792 0.55257 0.0
H667 H 0.76057 0.67029 0.52876 0.0
H668 H 0.79898 0.66852 0.53348 0.0
H669 H 0.73658 0.53156 0.49621 0.0
H670 H 0.74763 0.5267 0.45881 0.0
H671 H 0.71979 0.55762 0.46855 0.0
C672 C 0.92599 0.24408 0.14002 0.0
C673 C 0.91694 0.27572 0.12696 0.0
C674 C 0.95364 0.23083 0.13534 0.0
C675 C 0.97276 0.24961 0.11703 0.0
C676 C 0.96293 0.27973 0.10163 0.0
C677 C 0.93505 0.29259 0.10686 0.0
C678 C 0.96316 0.19848 0.15212 0.0
C679 C 0.9825 0.29988 0.08134 0.0
C680 C 0.04797 0.24472 0.14678 0.0
C681 C 0.05965 0.21641 0.131 0.0
C682 C 0.02033 0.25729 0.141 0.0
C683 C 0.00389 0.24137 0.11869 0.0
C684 C 0.01622 0.2145 0.10123 0.0
C685 C 0.04401 0.20215 0.10769 0.0
C686 C 0.00807 0.28606 0.16017 0.0
C687 C -0.00046 0.19746 0.07685 0.0
H688 H 0.91189 0.23037 0.15506 0.0
H689 H 0.92805 0.31677 0.09635 0.0
H690 H 0.97421 0.17948 0.13757 0.0
H691 H 0.97871 0.20647 0.1692 0.0
H692 H 0.94484 0.18472 0.16277 0.0
H693 H 0.97018 0.31735 0.06644 0.0
H694 H -0.00266 0.31664 0.09427 0.0
H695 H -0.00419 0.28149 0.06822 0.0
H696 H 0.06005 0.25641 0.16448 0.0
H697 H 0.05303 0.18056 0.09514 0.0
H698 H 0.99029 0.27507 0.17353 0.0
H699 H -0.00099 0.30772 0.14673 0.0
H700 H 0.02443 0.2975 0.17504 0.0
H701 H 0.98401 0.17817 0.08605 0.0
H702 H 0.0139 0.18314 0.06155 0.0
H703 H 0.98706 0.21751 0.06454 0.0
C704 C 0.94377 0.69853 0.39989 0.0
C705 C 0.92681 0.71557 0.3789 0.0
C706 C 0.97234 0.70924 0.40482 0.0
C707 C 0.98404 0.73739 0.38823 0.0
C708 C 0.96632 0.7562 0.36859 0.0
C709 C 0.93797 0.74513 0.36426 0.0
C710 C 0.99043 0.68905 0.42639 0.0
C711 C 0.97785 0.78648 0.35051 0.0
C712 C 0.05553 0.78371 0.39861 0.0
C713 C 0.07173 0.76822 0.37623 0.0
C714 C 0.02748 0.77193 0.40467 0.0
C715 C 0.01547 0.74428 0.38783 0.0
C716 C 0.03258 0.72679 0.36685 0.0
C717 C 0.06048 0.73891 0.36138 0.0
C718 C 0.01008 0.7907 0.42766 0.0
C719 C 0.02069 0.69708 0.34845 0.0
H720 H 0.93522 0.67588 0.41151 0.0
H721 H 0.92486 0.75893 0.34841 0.0
H722 H 0.00484 0.67065 0.41454 0.0
H723 H 0.0042 0.7073 0.43916 0.0
H724 H 0.97697 0.67329 0.4416 0.0
H725 H 0.96065 0.80022 0.33813 0.0
H726 H 0.98884 0.80613 0.36453 0.0
H727 H -0.00605 0.77629 0.33479 0.0
H728 H 0.06418 0.8061 0.41045 0.0
H729 H 0.07302 0.72629 0.34444 0.0
H730 H -0.00285 0.77155 0.44048 0.0
H731 H -0.0051 0.8093 0.41705 0.0
H732 H 0.02397 0.80606 0.4427 0.0
H733 H 0.01006 0.67692 0.36231 0.0
H734 H 0.03763 0.68387 0.33535 0.0
H735 H 0.0042 0.70776 0.33338 0.0
C736 C 0.53801 0.69334 0.56759 0.0
C737 C 0.52981 0.66809 0.58837 0.0
C738 C 0.51889 0.72048 0.55957 0.0
C739 C 0.49164 0.72231 0.57322 0.0
C740 C 0.48162 0.69288 0.58944 0.0
C741 C 0.50095 0.66599 0.59682 0.0
C742 C 0.52929 0.74966 0.53985 0.0
C743 C 0.45214 0.69257 0.6032 0.0
C744 C 0.4702 0.80168 0.61672 0.0
C745 C 0.44292 0.80873 0.60532 0.0
C746 C 0.48799 0.77609 0.60421 0.0
C747 C 0.47834 0.75735 0.57932 0.0
C748 C 0.45272 0.76816 0.56524 0.0
C749 C 0.43506 0.79369 0.57859 0.0
C750 C 0.51547 0.76635 0.61985 0.0
C751 C 0.4425 0.75087 0.53759 0.0
H752 H 0.56022 0.69463 0.56046 0.0
H753 H 0.49446 0.64581 0.61228 0.0
H754 H 0.51111 0.76222 0.5281 0.0
H755 H 0.5402 0.77031 0.55295 0.0
H756 H 0.54505 0.73937 0.52379 0.0
H757 H 0.44653 0.66614 0.61217 0.0
H758 H 0.45145 0.71212 0.6212 0.0
H759 H 0.43558 0.70018 0.58707 0.0
H760 H 0.47666 0.81408 0.63696 0.0
H761 H 0.41416 0.79953 0.56933 0.0
H762 H 0.53387 0.76655 0.60454 0.0
H763 H 0.51361 0.73923 0.62896 0.0
H764 H 0.52045 0.78478 0.63797 0.0
H765 H 0.46014 0.73715 0.52589 0.0
H766 H 0.43284 0.77096 0.52291 0.0
H767 H 0.42544 0.73133 0.5428 0.0
C768 C 0.88408 0.06231 0.70351 0.0
C769 C 0.86418 0.0601 0.68065 0.0
C770 C 0.88565 0.0357 0.72478 0.0
C771 C 0.86683 0.00634 0.72312 0.0
C772 C 0.84783 0.00307 0.69922 0.0
C773 C 0.84678 0.02996 0.67824 0.0
C774 C 0.90642 0.03988 0.74976 0.0
C775 C 0.82753 0.97201 0.69656 0.0
C776 C 0.87617 0.92159 0.76612 0.0
C777 C 0.85506 0.92556 0.78771 0.0
C778 C 0.88154 0.9486 0.74588 0.0
C779 C 0.86531 0.98019 0.74722 0.0
C780 C 0.84535 0.98526 0.77012 0.0
C781 C 0.84052 0.95788 0.79016 0.0
C782 C 0.90328 0.94241 0.72204 0.0
C783 C 0.82775 0.01871 0.77238 0.0
H784 H 0.89766 0.08551 0.70548 0.0
H785 H 0.83143 0.02801 0.66059 0.0
H786 H 0.89428 0.04553 0.77 0.0
H787 H 0.91858 0.01502 0.75336 0.0
H788 H 0.92194 0.06178 0.74602 0.0
H789 H 0.8154 0.97231 0.67576 0.0
H790 H 0.83959 0.94676 0.69805 0.0
H791 H 0.81189 0.97246 0.71478 0.0
H792 H 0.88767 0.89676 0.76423 0.0
H793 H 0.82427 0.96119 0.80684 0.0
H794 H 0.91744 0.96583 0.7194 0.0
H795 H 0.89191 0.93835 0.7011 0.0
H796 H 0.91686 0.91881 0.72637 0.0
H797 H 0.84187 0.04233 0.7712 0.0
H798 H 0.81516 0.01989 0.7929 0.0
H799 H 0.81258 0.02018 0.7538 0.0
C800 C 0.13103 0.54361 0.79151 0.0
C801 C 0.11583 0.57538 0.78839 0.0
C802 C 0.12854 0.51658 0.77078 0.0
C803 C 0.11029 0.52142 0.74646 0.0
C804 C 0.09367 0.55262 0.74404 0.0
C805 C 0.09671 0.5793 0.765 0.0
C806 C 0.14656 0.4836 0.77416 0.0
C807 C 0.07372 0.55852 0.71861 0.0
C808 C 0.13367 0.47101 0.67938 0.0
C809 C 0.11654 0.44055 0.68115 0.0
C810 C 0.13096 0.49827 0.69985 0.0
C811 C 0.11051 0.49505 0.72252 0.0
C812 C 0.09193 0.4654 0.72338 0.0
C813 C 0.09521 0.43842 0.70268 0.0
C814 C 0.15108 0.5296 0.69813 0.0
C815 C 0.06963 0.46128 0.747 0.0
H816 H 0.14578 0.54037 0.80956 0.0
H817 H 0.08475 0.60373 0.76255 0.0
H818 H 0.13285 0.45965 0.77248 0.0
H819 H 0.16263 0.4823 0.75634 0.0
H820 H 0.15814 0.48287 0.79527 0.0
H821 H 0.05993 0.58222 0.72164 0.0
H822 H 0.08654 0.56213 0.69847 0.0
H823 H 0.05972 0.53509 0.71529 0.0
H824 H 0.15014 0.4729 0.66276 0.0
H825 H 0.0818 0.415 0.70411 0.0
H826 H 0.1657 0.52947 0.71719 0.0
H827 H 0.13874 0.55469 0.6988 0.0
H828 H 0.16435 0.52933 0.67803 0.0
H829 H 0.08049 0.45628 0.76808 0.0
H830 H 0.05465 0.43901 0.7426 0.0
H831 H 0.05696 0.48597 0.74941 0.0
C832 C 0.73538 0.79492 0.05357 0.0
C833 C 0.71096 0.81472 0.06089 0.0
C834 C 0.74917 0.79963 0.02677 0.0
C835 C 0.73798 0.82434 0.00661 0.0
C836 C 0.71436 0.84591 0.01454 0.0
C837 C 0.70122 0.84101 0.04176 0.0
C838 C 0.77465 0.77656 0.01936 0.0
C839 C 0.70172 0.87238 0.99355 0.0
C840 C 0.78351 0.84255 0.93958 0.0
C841 C 0.77269 0.81721 0.92018 0.0
C842 C 0.77189 0.84608 0.96765 0.0
C843 C 0.74871 0.8241 0.97619 0.0
C844 C 0.73691 0.79964 0.95619 0.0
C845 C 0.74918 0.79631 0.92853 0.0
C846 C 0.78517 0.8722 0.98851 0.0
C847 C 0.71189 0.77607 0.9643 0.0
H848 H 0.74323 0.7749 0.06848 0.0
H849 H 0.68234 0.85639 0.04733 0.0
H850 H 0.76832 0.75698 0.00257 0.0
H851 H 0.79238 0.79276 0.01019 0.0
H852 H 0.78287 0.76196 0.03861 0.0
H853 H 0.68614 0.89039 0.00432 0.0
H854 H 0.7189 0.8885 0.9833 0.0
H855 H 0.69039 0.85807 0.97587 0.0
H856 H 0.80171 0.85875 0.93322 0.0
H857 H 0.74048 0.77701 0.91348 0.0
H858 H 0.7961 0.85766 0.00632 0.0
H859 H 0.76831 0.8889 -0.00137 0.0
H860 H 0.80115 0.88968 0.97769 0.0
H861 H 0.71855 0.75739 0.98165 0.0
H862 H 0.70385 0.76048 0.94551 0.0
H863 H 0.69392 0.79217 0.97303 0.0
C864 C 0.17848 0.6971 0.95698 0.0
C865 C 0.18048 0.6737 0.93351 0.0
C866 C 0.19559 0.69254 0.98174 0.0
C867 C 0.21587 0.66461 0.98252 0.0
C868 C 0.21675 0.63965 0.95959 0.0
C869 C 0.19868 0.64426 0.93542 0.0
C870 C 0.19337 0.71911 0.00615 0.0
C871 C 0.23839 0.60992 0.95936 0.0
C872 C 0.28234 0.69242 0.02364 0.0
C873 C 0.27837 0.6755 0.05039 0.0
C874 C 0.26311 0.68701 0.0007 0.0
C875 C 0.23876 0.66511 0.00502 0.0
C876 C 0.23523 0.64684 0.0317 0.0
C877 C 0.25542 0.65191 0.05406 0.0
C878 C 0.26816 0.70617 0.97229 0.0
C879 C 0.20925 0.6239 0.03733 0.0
H880 H 0.16416 0.71967 0.95556 0.0
H881 H 0.20032 0.62627 0.91713 0.0
H882 H 0.19313 0.70549 0.02753 0.0
H883 H 0.2124 0.73682 0.00572 0.0
H884 H 0.17373 0.73569 0.0043 0.0
H885 H 0.23327 0.58972 0.9426 0.0
H886 H 0.26003 0.6209 0.95463 0.0
H887 H 0.23949 0.5968 0.98091 0.0
H888 H 0.30028 0.71047 0.02087 0.0
H889 H 0.25233 0.6391 0.07494 0.0
H890 H 0.25172 0.72716 0.9695 0.0
H891 H 0.26602 0.68761 0.95374 0.0
H892 H 0.28976 0.71869 0.97134 0.0
H893 H 0.19 0.64097 0.03981 0.0
H894 H 0.21169 0.60776 0.05738 0.0
H895 H 0.20518 0.60596 0.0187 0.0
C896 C 0.6961 0.12864 0.43789 0.0
C897 C 0.70449 0.15448 0.41769 0.0
C898 C 0.71166 0.12368 0.46376 0.0
C899 C 0.73624 0.1448 0.46918 0.0
C900 C 0.74601 0.16886 0.44774 0.0
C901 C 0.7299 0.17357 0.42235 0.0
C902 C 0.7006 0.09776 0.48611 0.0
C903 C 0.7724 0.19147 0.45245 0.0
C904 C 0.75546 0.1773 0.54419 0.0
C905 C 0.78032 0.15774 0.55026 0.0
C906 C 0.73979 0.17152 0.51868 0.0
C907 C 0.74945 0.14584 0.49854 0.0
C908 C 0.77359 0.12457 0.50528 0.0
C909 C 0.78872 0.13065 0.53124 0.0
C910 C 0.71386 0.1944 0.51255 0.0
C911 C 0.78451 0.09698 0.4843 0.0
H912 H 0.67649 0.11375 0.43432 0.0
H913 H 0.73672 0.19316 0.40654 0.0
H914 H 0.71851 0.08215 0.49554 0.0
H915 H 0.69029 0.11252 0.50416 0.0
H916 H 0.6845 0.07928 0.47675 0.0
H917 H 0.77905 0.2056 0.43234 0.0
H918 H 0.76791 0.21144 0.46953 0.0
H919 H 0.79065 0.17503 0.46008 0.0
H920 H 0.74862 0.19788 0.55908 0.0
H921 H 0.80791 0.11542 0.5359 0.0
H922 H 0.69532 0.17782 0.50589 0.0
H923 H 0.71874 0.21268 0.4943 0.0
H924 H 0.70745 0.21044 0.53172 0.0
H925 H 0.76649 0.08094 0.47558 0.0
H926 H 0.8004 0.079 0.49462 0.0
H927 H 0.79501 0.1103 0.46558 0.0
C928 C 0.23085 0.32317 0.54841 0.0
C929 C 0.2058 0.34237 0.55447 0.0
C930 C 0.24615 0.32866 0.52261 0.0
C931 C 0.23595 0.3537 0.50218 0.0
C932 C 0.21166 0.37472 0.50891 0.0
C933 C 0.19689 0.36891 0.53514 0.0
C934 C 0.27224 0.30605 0.51646 0.0
C935 C 0.2002 0.40168 0.48766 0.0
C936 C 0.28798 0.37042 0.44021 0.0
C937 C 0.27938 0.34416 0.4205 0.0
C938 C 0.27292 0.37559 0.46635 0.0
C939 C 0.24868 0.35422 0.4726 0.0
C940 C 0.23871 0.32961 0.45172 0.0
C941 C 0.25429 0.32475 0.42601 0.0
C942 C 0.28414 0.40212 0.48808 0.0
C943 C 0.21266 0.30667 0.45734 0.0
H944 H 0.2381 0.30302 0.56352 0.0
H945 H 0.17757 0.3839 0.53978 0.0
H946 H 0.26729 0.28724 0.49863 0.0
H947 H 0.2905 0.32276 0.50919 0.0
H948 H 0.2791 0.2906 0.53581 0.0
H949 H 0.18428 0.41967 0.49792 0.0
H950 H 0.21795 0.41778 0.4784 0.0
H951 H 0.18957 0.38781 0.46932 0.0
H952 H 0.30733 0.38558 0.43598 0.0
H953 H 0.2473 0.30483 0.4106 0.0
H954 H 0.29487 0.38788 0.50618 0.0
H955 H 0.26627 0.41772 0.49759 0.0
H956 H 0.29994 0.42059 0.47814 0.0
H957 H 0.21765 0.28727 0.47474 0.0
H958 H 0.20586 0.29187 0.43764 0.0
H959 H 0.19435 0.32301 0.46496 0.0
C960 C 0.03783 0.75767 0.84735 0.0
C961 C 0.05108 0.73031 0.86285 0.0
C962 C 0.00795 0.76184 0.84794 0.0
C963 C 0.99112 0.73893 0.8654 0.0
C964 C 0.00457 0.71215 0.88211 0.0
C965 C 0.03447 0.70762 0.8801 0.0
C966 C -0.00565 0.78994 0.82903 0.0
C967 C 0.98739 0.6882 0.90185 0.0
C968 C 0.91613 0.77463 0.87791 0.0
C969 C 0.90039 0.7554 0.85736 0.0
C970 C 0.94543 0.76771 0.88233 0.0
C971 C 0.95936 0.74215 0.8648 0.0
C972 C 0.9433 0.72212 0.84448 0.0
C973 C 0.91381 0.72855 0.84143 0.0
C974 C 0.96164 0.78857 0.90501 0.0
C975 C 0.95756 0.69553 0.82465 0.0
H976 H 0.05078 0.77495 0.83379 0.0
H977 H 0.04491 0.68662 0.89221 0.0
H978 H 0.97899 0.77749 0.81366 0.0
H979 H 0.98199 0.80879 0.84261 0.0
H980 H 0.01052 0.80508 0.81629 0.0
H981 H 0.00139 0.67112 0.91549 0.0
H982 H 0.9734 0.70421 0.91631 0.0
H983 H 0.97314 0.67097 0.8887 0.0
H984 H 0.90554 0.7952 0.89038 0.0
H985 H 0.90155 0.71393 0.82537 0.0
H986 H 0.97611 0.80787 0.89421 0.0
H987 H 0.97526 0.7707 0.91831 0.0
H988 H 0.94694 0.80333 0.91968 0.0
H989 H 0.97301 0.70936 0.81016 0.0
H990 H 0.94178 0.68109 0.81095 0.0
H991 H 0.96994 0.67597 0.83751 0.0
C992 C 0.0421 0.29561 0.60645 0.0
C993 C 0.06536 0.27924 0.59262 0.0
C994 C 0.01399 0.28351 0.60201 0.0
C995 C 0.00906 0.25508 0.58258 0.0
C996 C 0.03222 0.24049 0.56667 0.0
C997 C 0.06026 0.25235 0.57227 0.0
C998 C 0.98991 0.29944 0.61976 0.0
C999 C 0.02761 0.21116 0.54491 0.0
C1000 C 0.94554 0.19903 0.60475 0.0
C1001 C 0.92323 0.21545 0.58941 0.0
C1002 C 0.97399 0.21047 0.60151 0.0
C1003 C 0.98028 0.23824 0.5818 0.0
C1004 C 0.95819 0.25259 0.56426 0.0
C1005 C 0.92975 0.24143 0.56865 0.0
C1006 C -0.00312 0.19483 0.62096 0.0
C1007 C 0.9643 0.28117 0.54216 0.0
H1008 H 0.04601 0.31634 0.62225 0.0
H1009 H 0.07826 0.23994 0.56129 0.0
H1010 H 0.97215 0.30814 0.60538 0.0
H1011 H 0.98106 0.27913 0.63475 0.0
H1012 H -0.00283 0.32247 0.63285 0.0
H1013 H 0.04658 0.2076 0.53051 0.0
H1014 H 0.0237 0.18591 0.55657 0.0
H1015 H 0.00844 0.21659 0.53126 0.0
H1016 H 0.94053 0.17899 0.62087 0.0
H1017 H 0.91251 0.25385 0.5565 0.0
H1018 H 0.00468 0.21535 0.63631 0.0
H1019 H 0.01557 0.186 0.60789 0.0
H1020 H 0.98878 0.17195 0.63377 0.0
H1021 H 0.96758 0.30678 0.55346 0.0
H1022 H 0.94627 0.28434 0.52653 0.0
H1023 H 0.98425 0.27521 0.52987 0.0
C1024 C 0.55604 0.23883 0.40717 0.0
C1025 C 0.56077 0.2126 0.38615 0.0
C1026 C 0.52827 0.25167 0.41257 0.0
C1027 C 0.50504 0.23873 0.39584 0.0
C1028 C 0.50946 0.2105 0.37607 0.0
C1029 C 0.53729 0.19741 0.37179 0.0
C1030 C 0.52415 0.28064 0.43475 0.0
C1031 C 0.48528 0.1962 0.35756 0.0
C1032 C 0.42604 0.25763 0.40699 0.0
C1033 C 0.4215 0.28418 0.38617 0.0
C1034 C 0.45373 0.24452 0.41236 0.0
C1035 C 0.47708 0.25753 0.39578 0.0
C1036 C 0.47284 0.28597 0.37615 0.0
C1037 C 0.44508 0.29933 0.37191 0.0
C1038 C 0.45764 0.21529 0.43438 0.0
C1039 C 0.49715 0.30035 0.35781 0.0
H1040 H 0.57419 0.25029 0.41858 0.0
H1041 H 0.54091 0.17717 0.3555 0.0
H1042 H 0.52211 0.30647 0.42347 0.0
H1043 H 0.50416 0.27632 0.44746 0.0
H1044 H 0.54262 0.2823 0.45 0.0
H1045 H 0.49193 0.17274 0.34467 0.0
H1046 H 0.46669 0.18868 0.37134 0.0
H1047 H 0.47786 0.21707 0.34232 0.0
H1048 H 0.4078 0.2462 0.41831 0.0
H1049 H 0.4416 0.31981 0.35576 0.0
H1050 H 0.47758 0.21936 0.44718 0.0
H1051 H 0.45966 0.18957 0.42295 0.0
H1052 H 0.43909 0.21355 0.44955 0.0
H1053 H 0.51563 0.30784 0.37172 0.0
H1054 H 0.4906 0.32385 0.34489 0.0
H1055 H 0.50471 0.27953 0.3426 0.0
C1056 C 0.56882 0.52161 0.70887 0.0
C1057 C 0.58962 0.5281 0.68745 0.0
C1058 C 0.57046 0.49152 0.72666 0.0
C1059 C 0.59396 0.46807 0.72348 0.0
C1060 C 0.61412 0.47348 0.70079 0.0
C1061 C 0.61146 0.50325 0.68275 0.0
C1062 C 0.54803 0.48602 0.74997 0.0
C1063 C 0.63977 0.44944 0.69702 0.0
C1064 C 0.62185 0.42323 0.79155 0.0
C1065 C 0.61354 0.38803 0.78701 0.0
C1066 C 0.61534 0.44954 0.77111 0.0
C1067 C 0.59946 0.44058 0.7459 0.0
C1068 C 0.58991 0.40537 0.7418 0.0
C1069 C 0.59745 0.37934 0.76223 0.0
C1070 C 0.62637 0.48668 0.77603 0.0
C1071 C 0.57218 0.39511 0.71564 0.0
H1072 H 0.55178 0.5407 0.71236 0.0
H1073 H 0.62769 0.50837 0.66634 0.0
H1074 H 0.54101 0.45796 0.75058 0.0
H1075 H 0.55736 0.4924 0.77153 0.0
H1076 H 0.52888 0.50308 0.74654 0.0
H1077 H 0.65198 0.4554 0.67682 0.0
H1078 H 0.65445 0.4526 0.71586 0.0
H1079 H 0.63292 0.42134 0.69646 0.0
H1080 H 0.6345 0.42998 0.81055 0.0
H1081 H 0.59084 0.35215 0.75877 0.0
H1082 H 0.60818 0.50563 0.77644 0.0
H1083 H 0.64069 0.49455 0.75783 0.0
H1084 H 0.6385 0.48921 0.79673 0.0
H1085 H 0.55343 0.41305 0.71345 0.0
H1086 H 0.5643 0.3674 0.717 0.0
H1087 H 0.58525 0.39795 0.6956 0.0
C1088 C 0.39022 0.11135 0.76735 0.0
C1089 C 0.373 0.10518 0.79189 0.0
C1090 C 0.39688 0.0838 0.74801 0.0
C1091 C 0.38523 0.0497 0.7529 0.0
C1092 C 0.3682 0.04327 0.7779 0.0
C1093 C 0.36265 0.07099 0.79731 0.0
C1094 C 0.41589 0.0913 0.72212 0.0
C1095 C 0.35489 0.00743 0.78361 0.0
C1096 C 0.3707 0.98576 0.69132 0.0
C1097 C 0.39065 0.959 0.69734 0.0
C1098 C 0.36961 0.01648 0.70838 0.0
C1099 C 0.38952 0.02086 0.73139 0.0
C1100 C 0.41131 0.99532 0.73586 0.0
C1101 C 0.41132 0.96434 0.71906 0.0
C1102 C 0.34569 0.04276 0.70327 0.0
C1103 C 0.43353 -0.00037 0.75951 0.0
H1104 H 0.3984 0.13776 0.76324 0.0
H1105 H 0.34913 0.06621 0.81613 0.0
H1106 H 0.43345 0.07149 0.72087 0.0
H1107 H 0.4032 0.08905 0.7018 0.0
H1108 H 0.42553 0.11819 0.72303 0.0
H1109 H 0.34212 0.00689 0.80402 0.0
H1110 H 0.3406 6e-05 0.76526 0.0
H1111 H 0.37189 0.98695 0.78508 0.0
H1112 H 0.35455 0.98155 0.67468 0.0
H1113 H 0.42693 0.94375 0.72358 0.0
H1114 H 0.35435 0.07006 0.70205 0.0
H1115 H 0.33044 0.04187 0.72183 0.0
H1116 H 0.33359 0.03713 0.68297 0.0
H1117 H 0.44221 0.02699 0.75958 0.0
H1118 H 0.45165 0.98075 0.75694 0.0
H1119 H 0.42339 0.99492 0.781 0.0
C1120 C 0.43469 0.21611 0.90998 0.0
C1121 C 0.42161 0.23554 0.88759 0.0
C1122 C 0.46355 0.22234 0.9176 0.0
C1123 C 0.47963 0.24786 0.90193 0.0
C1124 C 0.46563 0.26981 0.88141 0.0
C1125 C 0.43675 0.26364 0.87479 0.0
C1126 C 0.47725 0.19975 0.94081 0.0
C1127 C 0.4818 0.2975 0.86415 0.0
C1128 C 0.55614 0.27991 0.9095 0.0
C1129 C 0.56936 0.26041 0.88724 0.0
C1130 C 0.5274 0.27327 0.91737 0.0
C1131 C 0.51156 0.24727 0.90205 0.0
C1132 C 0.52576 0.22515 0.88181 0.0
C1133 C 0.55455 0.23175 0.87493 0.0
C1134 C 0.51347 0.29598 0.94034 0.0
C1135 C 0.50984 0.1969 0.86501 0.0
H1136 H 0.42299 0.19482 0.92049 0.0
H1137 H 0.42663 0.27947 0.858 0.0
H1138 H 0.48683 0.1759 0.93066 0.0
H1139 H 0.4946 0.21427 0.95231 0.0
H1140 H 0.46105 0.19075 0.95697 0.0
H1141 H 0.46731 0.31386 0.85044 0.0
H1142 H 0.49382 0.31533 0.8789 0.0
H1143 H 0.4977 0.28437 0.84973 0.0
H1144 H 0.56761 0.30159 0.91968 0.0
H1145 H 0.56477 0.21586 0.85826 0.0
H1146 H 0.49679 0.28101 0.95248 0.0
H1147 H 0.50295 0.31902 0.92987 0.0
H1148 H 0.52966 0.30622 0.95597 0.0
H1149 H 0.49777 0.17941 0.88003 0.0
H1150 H 0.52451 0.18027 0.85173 0.0
H1151 H 0.49402 0.20955 0.85023 0.0
C1152 C 0.37929 0.5852 0.21028 0.0
C1153 C 0.35775 0.58194 0.18908 0.0
C1154 C 0.38363 0.55861 0.23115 0.0
C1155 C 0.36602 0.52808 0.23077 0.0
C1156 C 0.34498 0.52406 0.20876 0.0
C1157 C 0.34108 0.55105 0.18819 0.0
C1158 C 0.40635 0.56378 0.2542 0.0
C1159 C 0.32588 0.49174 0.20754 0.0
C1160 C 0.38511 0.44379 0.27125 0.0
C1161 C 0.36636 0.44553 0.29512 0.0
C1162 C 0.38627 0.47127 0.25072 0.0
C1163 C 0.3683 0.50117 0.25425 0.0
C1164 C 0.35067 0.50404 0.27924 0.0
C1165 C 0.3499 0.47616 0.29938 0.0
C1166 C 0.40549 0.46738 0.22445 0.0
C1167 C 0.3314 0.53569 0.28393 0.0
H1168 H 0.3923 0.60899 0.21107 0.0
H1169 H 0.32446 0.54831 0.17183 0.0
H1170 H 0.39593 0.56668 0.27577 0.0
H1171 H 0.42056 0.54025 0.25538 0.0
H1172 H 0.4198 0.58757 0.25007 0.0
H1173 H 0.31165 0.49177 0.18814 0.0
H1174 H 0.33914 0.46736 0.20717 0.0
H1175 H 0.31223 0.49058 0.22732 0.0
H1176 H 0.39794 0.42022 0.26783 0.0
H1177 H 0.33546 0.47778 0.31784 0.0
H1178 H 0.41825 0.49183 0.22095 0.0
H1179 H 0.39208 0.46332 0.20479 0.0
H1180 H 0.42046 0.44463 0.22657 0.0
H1181 H 0.34388 0.56058 0.28176 0.0
H1182 H 0.32092 0.5353 0.30564 0.0
H1183 H 0.31439 0.5361 0.26703 0.0
C1184 C 0.59627 0.05517 0.2701 0.0
C1185 C 0.61563 0.05353 0.29346 0.0
C1186 C 0.59452 0.02753 0.24978 0.0
C1187 C 0.61253 0.99761 0.25298 0.0
C1188 C 0.63084 0.99491 0.27746 0.0
C1189 C 0.63217 0.02291 0.2974 0.0
C1190 C 0.57457 0.03124 0.22408 0.0
C1191 C 0.6502 0.96327 0.2818 0.0
C1192 C 0.6015 0.91222 0.21105 0.0
C1193 C 0.62303 0.91485 0.18975 0.0
C1194 C 0.59686 0.93968 0.23105 0.0
C1195 C 0.61416 0.97044 0.22967 0.0
C1196 C 0.63484 0.97404 0.20724 0.0
C1197 C 0.63903 0.94619 0.18755 0.0
C1198 C 0.57447 0.93498 0.25453 0.0
C1199 C 0.65358 0.00659 0.2049 0.0
H1200 H 0.58337 0.07874 0.26693 0.0
H1201 H 0.64707 0.02137 0.31547 0.0
H1202 H 0.58742 0.03535 0.20402 0.0
H1203 H 0.56182 0.00671 0.221 0.0
H1204 H 0.55958 0.05391 0.22658 0.0
H1205 H 0.66144 0.96393 0.3031 0.0
H1206 H 0.63758 0.9384 0.2804 0.0
H1207 H 0.6666 0.96251 0.26428 0.0
H1208 H 0.58897 0.88811 0.21284 0.0
H1209 H 0.65561 0.94848 0.17108 0.0
H1210 H 0.56066 0.95882 0.25609 0.0
H1211 H 0.58527 0.93162 0.27585 0.0
H1212 H 0.56059 0.91153 0.25059 0.0
H1213 H 0.64014 0.03082 0.20487 0.0
H1214 H 0.66703 0.00647 0.18494 0.0
H1215 H 0.66799 0.00812 0.22408 0.0
C1216 C 0.54864 0.77748 0.11376 0.0
C1217 C 0.57092 0.75817 0.10085 0.0
C1218 C 0.51987 0.76886 0.10845 0.0
C1219 C 0.51326 0.74089 0.08908 0.0
C1220 C 0.53563 0.72291 0.0744 0.0
C1221 C 0.56431 0.73138 0.08084 0.0
C1222 C 0.49663 0.78834 0.12492 0.0
C1223 C 0.52933 0.69388 0.0528 0.0
C1224 C 0.44293 0.69703 0.1083 0.0
C1225 C 0.42359 0.7172 0.09189 0.0
C1226 C 0.47259 0.70286 0.10619 0.0
C1227 C 0.48305 0.72876 0.08658 0.0
C1228 C 0.46377 0.74657 0.06783 0.0
C1229 C 0.43413 0.741 0.07105 0.0
C1230 C 0.49241 0.68367 0.12688 0.0
C1231 C 0.47426 0.7733 0.04584 0.0
H1232 H 0.55368 0.79812 0.12931 0.0
H1233 H 0.58156 0.71666 0.0706 0.0
H1234 H 0.48084 0.79988 0.10956 0.0
H1235 H 0.48482 0.76954 0.13914 0.0
H1236 H 0.50541 0.80996 0.13866 0.0
H1237 H 0.54856 0.687 0.03963 0.0
H1238 H 0.52215 0.66978 0.06452 0.0
H1239 H 0.51169 0.70185 0.03793 0.0
H1240 H 0.43483 0.67862 0.12445 0.0
H1241 H 0.41917 0.75627 0.05803 0.0
H1242 H 0.50115 0.70274 0.14296 0.0
H1243 H 0.51091 0.67215 0.11501 0.0
H1244 H 0.48124 0.66213 0.13886 0.0
H1245 H 0.47989 0.79832 0.05708 0.0
H1246 H 0.4576 0.77924 0.02923 0.0
H1247 H 0.49391 0.76363 0.03469 0.0
loop_
_geom_bond_atom_site_label_1
_geom_bond_atom_site_label_2
_geom_bond_distance
_geom_bond_site_symmetry_2
_ccdc_geom_bond_type
C0 O1 1.306 . S
C0 O3 1.160 . S
O1 C0 1.306 . S
O1 Cd2 2.228 . S
Cd2 O1 2.228 . S
Cd2 O6 2.273 . S
Cd2 O10 2.277 . S
O3 C0 1.160 . S
O3 Cd4 2.203 . S
Cd4 O3 2.203 . S
Cd4 O6 2.411 . S
Cd4 O7 2.333 . S
Cd4 O8 2.352 . S
Cd4 O12 2.277 . S
Cd4 O13 2.356 . S
C5 O10 1.209 . S
C5 O12 1.226 . S
O6 Cd2 2.273 . S
O6 Cd4 2.411 . S
O6 C9 1.320 . S
O7 Cd4 2.333 . S
O7 C9 1.214 . S
O8 Cd4 2.352 . S
O8 C11 1.258 . S
C9 O6 1.320 . S
C9 O7 1.214 . S
O10 Cd2 2.277 . S
O10 C5 1.209 . S
C11 O8 1.258 . S
C11 O13 1.282 . S
O12 Cd4 2.277 . S
O12 C5 1.226 . S
O13 Cd4 2.356 . S
O13 C11 1.282 . S
C14 O15 1.306 . S
C14 O17 1.160 . S
O15 C14 1.306 . S
O15 Cd16 2.228 . S
Cd16 O15 2.228 . S
Cd16 O20 2.273 . S
Cd16 O24 2.277 . S
O17 C14 1.160 . S
O17 Cd18 2.203 . S
Cd18 O17 2.203 . S
Cd18 O20 2.411 . S
Cd18 O21 2.333 . S
Cd18 O22 2.352 . S
Cd18 O26 2.277 . S
Cd18 O27 2.356 . S
C19 O24 1.209 . S
C19 O26 1.226 . S
O20 Cd16 2.273 . S
O20 Cd18 2.411 . S
O20 C23 1.320 . S
O21 Cd18 2.333 . S
O21 C23 1.214 . S
O22 Cd18 2.352 . S
O22 C25 1.258 . S
C23 O20 1.320 . S
C23 O21 1.214 . S
O24 Cd16 2.277 . S
O24 C19 1.209 . S
C25 O22 1.258 . S
C25 O27 1.282 . S
O26 Cd18 2.277 . S
O26 C19 1.226 . S
O27 Cd18 2.356 . S
O27 C25 1.282 . S
C28 O29 1.306 . S
C28 O31 1.160 . S
O29 C28 1.306 . S
O29 Cd30 2.228 . S
Cd30 O29 2.228 . S
Cd30 O34 2.273 . S
Cd30 O38 2.277 . S
O31 C28 1.160 . S
O31 Cd32 2.203 . S
Cd32 O31 2.203 . S
Cd32 O34 2.411 . S
Cd32 O35 2.333 . S
Cd32 O36 2.352 . S
Cd32 O40 2.277 . S
Cd32 O41 2.356 . S
C33 O38 1.209 . S
C33 O40 1.226 . S
O34 Cd30 2.273 . S
O34 Cd32 2.411 . S
O34 C37 1.320 . S
O35 Cd32 2.333 . S
O35 C37 1.214 . S
O36 Cd32 2.352 . S
O36 C39 1.258 . S
C37 O34 1.320 . S
C37 O35 1.214 . S
O38 Cd30 2.277 . S
O38 C33 1.209 . S
C39 O36 1.258 . S
C39 O41 1.282 . S
O40 Cd32 2.277 . S
O40 C33 1.226 . S
O41 Cd32 2.356 . S
O41 C39 1.282 . S
C42 O43 1.306 . S
C42 O45 1.160 . S
O43 C42 1.306 . S
O43 Cd44 2.228 . S
Cd44 O43 2.228 . S
Cd44 O48 2.273 . S
Cd44 O52 2.277 . S
O45 C42 1.160 . S
O45 Cd46 2.203 . S
Cd46 O45 2.203 . S
Cd46 O48 2.411 . S
Cd46 O49 2.333 . S
Cd46 O50 2.352 . S
Cd46 O54 2.277 . S
Cd46 O55 2.356 . S
C47 O52 1.209 . S
C47 O54 1.226 . S
O48 Cd44 2.273 . S
O48 Cd46 2.411 . S
O48 C51 1.320 . S
O49 Cd46 2.333 . S
O49 C51 1.214 . S
O50 Cd46 2.352 . S
O50 C53 1.258 . S
C51 O48 1.320 . S
C51 O49 1.214 . S
O52 Cd44 2.277 . S
O52 C47 1.209 . S
C53 O50 1.258 . S
C53 O55 1.282 . S
O54 Cd46 2.277 . S
O54 C47 1.226 . S
O55 Cd46 2.356 . S
O55 C53 1.282 . S
C56 O57 1.306 . S
C56 O59 1.160 . S
O57 C56 1.306 . S
O57 Cd58 2.228 . S
Cd58 O57 2.228 . S
Cd58 O62 2.273 . S
Cd58 O66 2.277 . S
O59 C56 1.160 . S
O59 Cd60 2.203 . S
Cd60 O59 2.203 . S
Cd60 O62 2.411 . S
Cd60 O63 2.333 . S
Cd60 O64 2.352 . S
Cd60 O68 2.277 . S
Cd60 O69 2.356 . S
C61 O66 1.209 . S
C61 O68 1.226 . S
O62 Cd58 2.273 . S
O62 Cd60 2.411 . S
O62 C65 1.320 . S
O63 Cd60 2.333 . S
O63 C65 1.214 . S
O64 Cd60 2.352 . S
O64 C67 1.258 . S
C65 O62 1.320 . S
C65 O63 1.214 . S
O66 Cd58 2.277 . S
O66 C61 1.209 . S
C67 O64 1.258 . S
C67 O69 1.282 . S
O68 Cd60 2.277 . S
O68 C61 1.226 . S
O69 Cd60 2.356 . S
O69 C67 1.282 . S
C70 O71 1.306 . S
C70 O73 1.160 . S
O71 C70 1.306 . S
O71 Cd72 2.228 . S
Cd72 O71 2.228 . S
Cd72 O76 2.273 . S
Cd72 O80 2.277 . S
O73 C70 1.160 . S
O73 Cd74 2.203 . S
Cd74 O73 2.203 . S
Cd74 O76 2.411 . S
Cd74 O77 2.333 . S
Cd74 O78 2.352 . S
Cd74 O82 2.277 . S
Cd74 O83 2.356 . S
C75 O80 1.209 . S
C75 O82 1.226 . S
O76 Cd72 2.273 . S
O76 Cd74 2.411 . S
O76 C79 1.320 . S
O77 Cd74 2.333 . S
O77 C79 1.214 . S
O78 Cd74 2.352 . S
O78 C81 1.258 . S
C79 O76 1.320 . S
C79 O77 1.214 . S
O80 Cd72 2.277 . S
O80 C75 1.209 . S
C81 O78 1.258 . S
C81 O83 1.282 . S
O82 Cd74 2.277 . S
O82 C75 1.226 . S
O83 Cd74 2.356 . S
O83 C81 1.282 . S
C84 O85 1.306 . S
C84 O87 1.160 . S
O85 C84 1.306 . S
O85 Cd86 2.228 . S
Cd86 O85 2.228 . S
Cd86 O90 2.273 . S
Cd86 O94 2.277 . S
O87 C84 1.160 . S
O87 Cd88 2.203 . S
Cd88 O87 2.203 . S
Cd88 O90 2.411 . S
Cd88 O91 2.333 . S
Cd88 O92 2.352 . S
Cd88 O96 2.277 . S
Cd88 O97 2.356 . S
C89 O94 1.209 . S
C89 O96 1.226 . S
O90 Cd86 2.273 . S
O90 Cd88 2.411 . S
O90 C93 1.320 . S
O91 Cd88 2.333 . S
O91 C93 1.214 . S
O92 Cd88 2.352 . S
O92 C95 1.258 . S
C93 O90 1.320 . S
C93 O91 1.214 . S
O94 Cd86 2.277 . S
O94 C89 1.209 . S
C95 O92 1.258 . S
C95 O97 1.282 . S
O96 Cd88 2.277 . S
O96 C89 1.226 . S
O97 Cd88 2.356 . S
O97 C95 1.282 . S
C98 O99 1.306 . S
C98 O101 1.160 . S
O99 C98 1.306 . S
O99 Cd100 2.228 . S
Cd100 O99 2.228 . S
Cd100 O104 2.273 . S
Cd100 O108 2.277 . S
O101 C98 1.160 . S
O101 Cd102 2.203 . S
Cd102 O101 2.203 . S
Cd102 O104 2.411 . S
Cd102 O105 2.333 . S
Cd102 O106 2.352 . S
Cd102 O110 2.277 . S
Cd102 O111 2.356 . S
C103 O108 1.209 . S
C103 O110 1.226 . S
O104 Cd100 2.273 . S
O104 Cd102 2.411 . S
O104 C107 1.320 . S
O105 Cd102 2.333 . S
O105 C107 1.214 . S
O106 Cd102 2.352 . S
O106 C109 1.258 . S
C107 O104 1.320 . S
C107 O105 1.214 . S
O108 Cd100 2.277 . S
O108 C103 1.209 . S
C109 O106 1.258 . S
C109 O111 1.282 . S
O110 Cd102 2.277 . S
O110 C103 1.226 . S
O111 Cd102 2.356 . S
O111 C109 1.282 . S
C112 O113 1.306 . S
C112 O115 1.160 . S
O113 C112 1.306 . S
O113 Cd114 2.228 . S
Cd114 O113 2.228 . S
Cd114 O118 2.273 . S
Cd114 O122 2.277 . S
O115 C112 1.160 . S
O115 Cd116 2.203 . S
Cd116 O115 2.203 . S
Cd116 O118 2.411 . S
Cd116 O119 2.333 . S
Cd116 O120 2.352 . S
Cd116 O124 2.277 . S
Cd116 O125 2.356 . S
C117 O122 1.209 . S
C117 O124 1.226 . S
O118 Cd114 2.273 . S
O118 Cd116 2.411 . S
O118 C121 1.320 . S
O119 Cd116 2.333 . S
O119 C121 1.214 . S
O120 Cd116 2.352 . S
O120 C123 1.258 . S
C121 O118 1.320 . S
C121 O119 1.214 . S
O122 Cd114 2.277 . S
O122 C117 1.209 . S
C123 O120 1.258 . S
C123 O125 1.282 . S
O124 Cd116 2.277 . S
O124 C117 1.226 . S
O125 Cd116 2.356 . S
O125 C123 1.282 . S
C126 O127 1.306 . S
C126 O129 1.160 . S
O127 C126 1.306 . S
O127 Cd128 2.228 . S
Cd128 O127 2.228 . S
Cd128 O132 2.273 . S
Cd128 O136 2.277 . S
O129 C126 1.160 . S
O129 Cd130 2.203 . S
Cd130 O129 2.203 . S
Cd130 O132 2.411 . S
Cd130 O133 2.333 . S
Cd130 O134 2.352 . S
Cd130 O138 2.277 . S
Cd130 O139 2.356 . S
C131 O136 1.209 . S
C131 O138 1.226 . S
O132 Cd128 2.273 . S
O132 Cd130 2.411 . S
O132 C135 1.320 . S
O133 Cd130 2.333 . S
O133 C135 1.214 . S
O134 Cd130 2.352 . S
O134 C137 1.258 . S
C135 O132 1.320 . S
C135 O133 1.214 . S
O136 Cd128 2.277 . S
O136 C131 1.209 . S
C137 O134 1.258 . S
C137 O139 1.282 . S
O138 Cd130 2.277 . S
O138 C131 1.226 . S
O139 Cd130 2.356 . S
O139 C137 1.282 . S
C140 O141 1.306 . S
C140 O143 1.160 . S
O141 C140 1.306 . S
O141 Cd142 2.228 . S
Cd142 O141 2.228 . S
Cd142 O146 2.273 . S
Cd142 O150 2.277 . S
O143 C140 1.160 . S
O143 Cd144 2.203 . S
Cd144 O143 2.203 . S
Cd144 O146 2.411 . S
Cd144 O147 2.333 . S
Cd144 O148 2.352 . S
Cd144 O152 2.277 . S
Cd144 O153 2.356 . S
C145 O150 1.209 . S
C145 O152 1.226 . S
O146 Cd142 2.273 . S
O146 Cd144 2.411 . S
O146 C149 1.320 . S
O147 Cd144 2.333 . S
O147 C149 1.214 . S
O148 Cd144 2.352 . S
O148 C151 1.258 . S
C149 O146 1.320 . S
C149 O147 1.214 . S
O150 Cd142 2.277 . S
O150 C145 1.209 . S
C151 O148 1.258 . S
C151 O153 1.282 . S
O152 Cd144 2.277 . S
O152 C145 1.226 . S
O153 Cd144 2.356 . S
O153 C151 1.282 . S
C154 O155 1.306 . S
C154 O157 1.160 . S
O155 C154 1.306 . S
O155 Cd156 2.228 . S
Cd156 O155 2.228 . S
Cd156 O160 2.273 . S
Cd156 O164 2.277 . S
O157 C154 1.160 . S
O157 Cd158 2.203 . S
Cd158 O157 2.203 . S
Cd158 O160 2.411 . S
Cd158 O161 2.333 . S
Cd158 O162 2.352 . S
Cd158 O166 2.277 . S
Cd158 O167 2.356 . S
C159 O164 1.209 . S
C159 O166 1.226 . S
O160 Cd156 2.273 . S
O160 Cd158 2.411 . S
O160 C163 1.320 . S
O161 Cd158 2.333 . S
O161 C163 1.214 . S
O162 Cd158 2.352 . S
O162 C165 1.258 . S
C163 O160 1.320 . S
C163 O161 1.214 . S
O164 Cd156 2.277 . S
O164 C159 1.209 . S
C165 O162 1.258 . S
C165 O167 1.282 . S
O166 Cd158 2.277 . S
O166 C159 1.226 . S
O167 Cd158 2.356 . S
O167 C165 1.282 . S
C168 O169 1.306 . S
C168 O171 1.160 . S
O169 C168 1.306 . S
O169 Cd170 2.228 . S
Cd170 O169 2.228 . S
Cd170 O174 2.273 . S
Cd170 O178 2.277 . S
O171 C168 1.160 . S
O171 Cd172 2.203 . S
Cd172 O171 2.203 . S
Cd172 O174 2.411 . S
Cd172 O175 2.333 . S
Cd172 O176 2.352 . S
Cd172 O180 2.277 . S
Cd172 O181 2.356 . S
C173 O178 1.209 . S
C173 O180 1.226 . S
O174 Cd170 2.273 . S
O174 Cd172 2.411 . S
O174 C177 1.320 . S
O175 Cd172 2.333 . S
O175 C177 1.214 . S
O176 Cd172 2.352 . S
O176 C179 1.258 . S
C177 O174 1.320 . S
C177 O175 1.214 . S
O178 Cd170 2.277 . S
O178 C173 1.209 . S
C179 O176 1.258 . S
C179 O181 1.282 . S
O180 Cd172 2.277 . S
O180 C173 1.226 . S
O181 Cd172 2.356 . S
O181 C179 1.282 . S
C182 O183 1.306 . S
C182 O185 1.160 . S
O183 C182 1.306 . S
O183 Cd184 2.228 . S
Cd184 O183 2.228 . S
Cd184 O188 2.273 . S
Cd184 O192 2.277 . S
O185 C182 1.160 . S
O185 Cd186 2.203 . S
Cd186 O185 2.203 . S
Cd186 O188 2.411 . S
Cd186 O189 2.333 . S
Cd186 O190 2.352 . S
Cd186 O194 2.277 . S
Cd186 O195 2.356 . S
C187 O192 1.209 . S
C187 O194 1.226 . S
O188 Cd184 2.273 . S
O188 Cd186 2.411 . S
O188 C191 1.320 . S
O189 Cd186 2.333 . S
O189 C191 1.214 . S
O190 Cd186 2.352 . S
O190 C193 1.258 . S
C191 O188 1.320 . S
C191 O189 1.214 . S
O192 Cd184 2.277 . S
O192 C187 1.209 . S
C193 O190 1.258 . S
C193 O195 1.282 . S
O194 Cd186 2.277 . S
O194 C187 1.226 . S
O195 Cd186 2.356 . S
O195 C193 1.282 . S
C196 O197 1.306 . S
C196 O199 1.160 . S
O197 C196 1.306 . S
O197 Cd198 2.228 . S
Cd198 O197 2.228 . S
Cd198 O202 2.273 . S
Cd198 O206 2.277 . S
O199 C196 1.160 . S
O199 Cd200 2.203 . S
Cd200 O199 2.203 . S
Cd200 O202 2.411 . S
Cd200 O203 2.333 . S
Cd200 O204 2.352 . S
Cd200 O208 2.277 . S
Cd200 O209 2.356 . S
C201 O206 1.209 . S
C201 O208 1.226 . S
O202 Cd198 2.273 . S
O202 Cd200 2.411 . S
O202 C205 1.320 . S
O203 Cd200 2.333 . S
O203 C205 1.214 . S
O204 Cd200 2.352 . S
O204 C207 1.258 . S
C205 O202 1.320 . S
C205 O203 1.214 . S
O206 Cd198 2.277 . S
O206 C201 1.209 . S
C207 O204 1.258 . S
C207 O209 1.282 . S
O208 Cd200 2.277 . S
O208 C201 1.226 . S
O209 Cd200 2.356 . S
O209 C207 1.282 . S
C210 O211 1.306 . S
C210 O213 1.160 . S
O211 C210 1.306 . S
O211 Cd212 2.228 . S
Cd212 O211 2.228 . S
Cd212 O216 2.273 . S
Cd212 O220 2.277 . S
O213 C210 1.160 . S
O213 Cd214 2.203 . S
Cd214 O213 2.203 . S
Cd214 O216 2.411 . S
Cd214 O217 2.333 . S
Cd214 O218 2.352 . S
Cd214 O222 2.277 . S
Cd214 O223 2.356 . S
C215 O220 1.209 . S
C215 O222 1.226 . S
O216 Cd212 2.273 . S
O216 Cd214 2.411 . S
O216 C219 1.320 . S
O217 Cd214 2.333 . S
O217 C219 1.214 . S
O218 Cd214 2.352 . S
O218 C221 1.258 . S
C219 O216 1.320 . S
C219 O217 1.214 . S
O220 Cd212 2.277 . S
O220 C215 1.209 . S
C221 O218 1.258 . S
C221 O223 1.282 . S
O222 Cd214 2.277 . S
O222 C215 1.226 . S
O223 Cd214 2.356 . S
O223 C221 1.282 . S
C224 C225 1.391 . S
C224 C226 1.394 . S
C224 H240 0.931 . S
C225 C224 1.391 . S
C225 C229 1.376 . S
C226 C224 1.394 . S
C226 C227 1.369 . S
C226 C230 1.531 . S
C227 C226 1.369 . S
C227 C228 1.410 . S
C227 C235 1.503 . S
C228 C227 1.410 . S
C228 C229 1.392 . S
C228 C231 1.511 . S
C229 C225 1.376 . S
C229 C228 1.392 . S
C229 H241 0.929 . S
C230 C226 1.531 . S
C230 H242 0.960 . S
C230 H243 0.962 . S
C230 H244 0.960 . S
C231 C228 1.511 . S
C231 H245 0.961 . S
C231 H246 0.961 . S
C231 H247 0.961 . S
C232 C233 1.370 . S
C232 C234 1.363 . S
C232 H248 0.931 . S
C233 C232 1.370 . S
C233 C237 1.408 . S
C234 C232 1.363 . S
C234 C235 1.370 . S
C234 C238 1.524 . S
C235 C227 1.503 . S
C235 C234 1.370 . S
C235 C236 1.403 . S
C236 C235 1.403 . S
C236 C237 1.404 . S
C236 C239 1.539 . S
C237 C233 1.408 . S
C237 C236 1.404 . S
C237 H249 0.930 . S
C238 C234 1.524 . S
C238 H250 0.956 . S
C238 H251 0.961 . S
C238 H252 0.961 . S
C239 C236 1.539 . S
C239 H253 0.958 . S
C239 H254 0.961 . S
C239 H255 0.960 . S
H240 C224 0.931 . S
H241 C229 0.929 . S
H242 C230 0.960 . S
H243 C230 0.962 . S
H244 C230 0.960 . S
H245 C231 0.961 . S
H246 C231 0.961 . S
H247 C231 0.961 . S
H248 C232 0.931 . S
H249 C237 0.930 . S
H250 C238 0.956 . S
H251 C238 0.961 . S
H252 C238 0.961 . S
H253 C239 0.958 . S
H254 C239 0.961 . S
H255 C239 0.960 . S
C256 C257 1.391 . S
C256 C258 1.394 . S
C256 H272 0.931 . S
C257 C256 1.391 . S
C257 C261 1.376 . S
C258 C256 1.394 . S
C258 C259 1.369 . S
C258 C262 1.531 . S
C259 C258 1.369 . S
C259 C260 1.410 . S
C259 C267 1.503 . S
C260 C259 1.410 . S
C260 C261 1.392 . S
C260 C263 1.511 . S
C261 C257 1.376 . S
C261 C260 1.392 . S
C261 H273 0.929 . S
C262 C258 1.531 . S
C262 H274 0.960 . S
C262 H275 0.962 . S
C262 H276 0.960 . S
C263 C260 1.511 . S
C263 H277 0.961 . S
C263 H278 0.961 . S
C263 H279 0.961 . S
C264 C265 1.370 . S
C264 C266 1.363 . S
C264 H280 0.931 . S
C265 C264 1.370 . S
C265 C269 1.408 . S
C266 C264 1.363 . S
C266 C267 1.370 . S
C266 C270 1.524 . S
C267 C259 1.503 . S
C267 C266 1.370 . S
C267 C268 1.403 . S
C268 C267 1.403 . S
C268 C269 1.404 . S
C268 C271 1.539 . S
C269 C265 1.408 . S
C269 C268 1.404 . S
C269 H281 0.930 . S
C270 C266 1.524 . S
C270 H282 0.956 . S
C270 H283 0.961 . S
C270 H284 0.961 . S
C271 C268 1.539 . S
C271 H285 0.958 . S
C271 H286 0.961 . S
C271 H287 0.960 . S
H272 C256 0.931 . S
H273 C261 0.929 . S
H274 C262 0.960 . S
H275 C262 0.962 . S
H276 C262 0.960 . S
H277 C263 0.961 . S
H278 C263 0.961 . S
H279 C263 0.961 . S
H280 C264 0.931 . S
H281 C269 0.930 . S
H282 C270 0.956 . S
H283 C270 0.961 . S
H284 C270 0.961 . S
H285 C271 0.958 . S
H286 C271 0.961 . S
H287 C271 0.960 . S
C288 C289 1.391 . S
C288 C290 1.394 . S
C288 H304 0.931 . S
C289 C288 1.391 . S
C289 C293 1.376 . S
C290 C288 1.394 . S
C290 C291 1.369 . S
C290 C294 1.531 . S
C291 C290 1.369 . S
C291 C292 1.410 . S
C291 C299 1.503 . S
C292 C291 1.410 . S
C292 C293 1.392 . S
C292 C295 1.511 . S
C293 C289 1.376 . S
C293 C292 1.392 . S
C293 H305 0.929 . S
C294 C290 1.531 . S
C294 H306 0.960 . S
C294 H307 0.962 . S
C294 H308 0.960 . S
C295 C292 1.511 . S
C295 H309 0.961 . S
C295 H310 0.961 . S
C295 H311 0.961 . S
C296 C297 1.370 . S
C296 C298 1.363 . S
C296 H312 0.931 . S
C297 C296 1.370 . S
C297 C301 1.408 . S
C298 C296 1.363 . S
C298 C299 1.370 . S
C298 C302 1.524 . S
C299 C291 1.503 . S
C299 C298 1.370 . S
C299 C300 1.403 . S
C300 C299 1.403 . S
C300 C301 1.404 . S
C300 C303 1.539 . S
C301 C297 1.408 . S
C301 C300 1.404 . S
C301 H313 0.930 . S
C302 C298 1.524 . S
C302 H314 0.956 . S
C302 H315 0.961 . S
C302 H316 0.961 . S
C303 C300 1.539 . S
C303 H317 0.958 . S
C303 H318 0.961 . S
C303 H319 0.960 . S
H304 C288 0.931 . S
H305 C293 0.929 . S
H306 C294 0.960 . S
H307 C294 0.962 . S
H308 C294 0.960 . S
H309 C295 0.961 . S
H310 C295 0.961 . S
H311 C295 0.961 . S
H312 C296 0.931 . S
H313 C301 0.930 . S
H314 C302 0.956 . S
H315 C302 0.961 . S
H316 C302 0.961 . S
H317 C303 0.958 . S
H318 C303 0.961 . S
H319 C303 0.960 . S
C320 C321 1.391 . S
C320 C322 1.394 . S
C320 H336 0.931 . S
C321 C320 1.391 . S
C321 C325 1.376 . S
C322 C320 1.394 . S
C322 C323 1.369 . S
C322 C326 1.531 . S
C323 C322 1.369 . S
C323 C324 1.410 . S
C323 C331 1.503 . S
C324 C323 1.410 . S
C324 C325 1.392 . S
C324 C327 1.511 . S
C325 C321 1.376 . S
C325 C324 1.392 . S
C325 H337 0.929 . S
C326 C322 1.531 . S
C326 H338 0.960 . S
C326 H339 0.962 . S
C326 H340 0.960 . S
C327 C324 1.511 . S
C327 H341 0.961 . S
C327 H342 0.961 . S
C327 H343 0.961 . S
C328 C329 1.370 . S
C328 C330 1.363 . S
C328 H344 0.931 . S
C329 C328 1.370 . S
C329 C333 1.408 . S
C330 C328 1.363 . S
C330 C331 1.370 . S
C330 C334 1.524 . S
C331 C323 1.503 . S
C331 C330 1.370 . S
C331 C332 1.403 . S
C332 C331 1.403 . S
C332 C333 1.404 . S
C332 C335 1.539 . S
C333 C329 1.408 . S
C333 C332 1.404 . S
C333 H345 0.930 . S
C334 C330 1.524 . S
C334 H346 0.956 . S
C334 H347 0.961 . S
C334 H348 0.961 . S
C335 C332 1.539 . S
C335 H349 0.958 . S
C335 H350 0.961 . S
C335 H351 0.960 . S
H336 C320 0.931 . S
H337 C325 0.929 . S
H338 C326 0.960 . S
H339 C326 0.962 . S
H340 C326 0.960 . S
H341 C327 0.961 . S
H342 C327 0.961 . S
H343 C327 0.961 . S
H344 C328 0.931 . S
H345 C333 0.930 . S
H346 C334 0.956 . S
H347 C334 0.961 . S
H348 C334 0.961 . S
H349 C335 0.958 . S
H350 C335 0.961 . S
H351 C335 0.960 . S
C352 C353 1.391 . S
C352 C354 1.394 . S
C352 H368 0.931 . S
C353 C352 1.391 . S
C353 C357 1.376 . S
C354 C352 1.394 . S
C354 C355 1.369 . S
C354 C358 1.531 . S
C355 C354 1.369 . S
C355 C356 1.410 . S
C355 C363 1.503 . S
C356 C355 1.410 . S
C356 C357 1.392 . S
C356 C359 1.511 . S
C357 C353 1.376 . S
C357 C356 1.392 . S
C357 H369 0.929 . S
C358 C354 1.531 . S
C358 H370 0.960 . S
C358 H371 0.962 . S
C358 H372 0.960 . S
C359 C356 1.511 . S
C359 H373 0.961 . S
C359 H374 0.961 . S
C359 H375 0.961 . S
C360 C361 1.370 . S
C360 C362 1.363 . S
C360 H376 0.931 . S
C361 C360 1.370 . S
C361 C365 1.408 . S
C362 C360 1.363 . S
C362 C363 1.370 . S
C362 C366 1.524 . S
C363 C355 1.503 . S
C363 C362 1.370 . S
C363 C364 1.403 . S
C364 C363 1.403 . S
C364 C365 1.404 . S
C364 C367 1.539 . S
C365 C361 1.408 . S
C365 C364 1.404 . S
C365 H377 0.930 . S
C366 C362 1.524 . S
C366 H378 0.956 . S
C366 H379 0.961 . S
C366 H380 0.961 . S
C367 C364 1.539 . S
C367 H381 0.958 . S
C367 H382 0.961 . S
C367 H383 0.960 . S
H368 C352 0.931 . S
H369 C357 0.929 . S
H370 C358 0.960 . S
H371 C358 0.962 . S
H372 C358 0.960 . S
H373 C359 0.961 . S
H374 C359 0.961 . S
H375 C359 0.961 . S
H376 C360 0.931 . S
H377 C365 0.930 . S
H378 C366 0.956 . S
H379 C366 0.961 . S
H380 C366 0.961 . S
H381 C367 0.958 . S
H382 C367 0.961 . S
H383 C367 0.960 . S
C384 C385 1.391 . S
C384 C386 1.394 . S
C384 H400 0.931 . S
C385 C384 1.391 . S
C385 C389 1.376 . S
C386 C384 1.394 . S
C386 C387 1.369 . S
C386 C390 1.531 . S
C387 C386 1.369 . S
C387 C388 1.410 . S
C387 C395 1.503 . S
C388 C387 1.410 . S
C388 C389 1.392 . S
C388 C391 1.511 . S
C389 C385 1.376 . S
C389 C388 1.392 . S
C389 H401 0.929 . S
C390 C386 1.531 . S
C390 H402 0.960 . S
C390 H403 0.962 . S
C390 H404 0.960 . S
C391 C388 1.511 . S
C391 H405 0.961 . S
C391 H406 0.961 . S
C391 H407 0.961 . S
C392 C393 1.370 . S
C392 C394 1.363 . S
C392 H408 0.931 . S
C393 C392 1.370 . S
C393 C397 1.408 . S
C394 C392 1.363 . S
C394 C395 1.370 . S
C394 C398 1.524 . S
C395 C387 1.503 . S
C395 C394 1.370 . S
C395 C396 1.403 . S
C396 C395 1.403 . S
C396 C397 1.404 . S
C396 C399 1.539 . S
C397 C393 1.408 . S
C397 C396 1.404 . S
C397 H409 0.930 . S
C398 C394 1.524 . S
C398 H410 0.956 . S
C398 H411 0.961 . S
C398 H412 0.961 . S
C399 C396 1.539 . S
C399 H413 0.958 . S
C399 H414 0.961 . S
C399 H415 0.960 . S
H400 C384 0.931 . S
H401 C389 0.929 . S
H402 C390 0.960 . S
H403 C390 0.962 . S
H404 C390 0.960 . S
H405 C391 0.961 . S
H406 C391 0.961 . S
H407 C391 0.961 . S
H408 C392 0.931 . S
H409 C397 0.930 . S
H410 C398 0.956 . S
H411 C398 0.961 . S
H412 C398 0.961 . S
H413 C399 0.958 . S
H414 C399 0.961 . S
H415 C399 0.960 . S
C416 C417 1.391 . S
C416 C418 1.394 . S
C416 H432 0.931 . S
C417 C416 1.391 . S
C417 C421 1.376 . S
C418 C416 1.394 . S
C418 C419 1.369 . S
C418 C422 1.531 . S
C419 C418 1.369 . S
C419 C420 1.410 . S
C419 C427 1.503 . S
C420 C419 1.410 . S
C420 C421 1.392 . S
C420 C423 1.511 . S
C421 C417 1.376 . S
C421 C420 1.392 . S
C421 H433 0.929 . S
C422 C418 1.531 . S
C422 H434 0.960 . S
C422 H435 0.962 . S
C422 H436 0.960 . S
C423 C420 1.511 . S
C423 H437 0.961 . S
C423 H438 0.961 . S
C423 H439 0.961 . S
C424 C425 1.370 . S
C424 C426 1.363 . S
C424 H440 0.931 . S
C425 C424 1.370 . S
C425 C429 1.408 . S
C426 C424 1.363 . S
C426 C427 1.370 . S
C426 C430 1.524 . S
C427 C419 1.503 . S
C427 C426 1.370 . S
C427 C428 1.403 . S
C428 C427 1.403 . S
C428 C429 1.404 . S
C428 C431 1.539 . S
C429 C425 1.408 . S
C429 C428 1.404 . S
C429 H441 0.930 . S
C430 C426 1.524 . S
C430 H442 0.956 . S
C430 H443 0.961 . S
C430 H444 0.961 . S
C431 C428 1.539 . S
C431 H445 0.958 . S
C431 H446 0.961 . S
C431 H447 0.960 . S
H432 C416 0.931 . S
H433 C421 0.929 . S
H434 C422 0.960 . S
H435 C422 0.962 . S
H436 C422 0.960 . S
H437 C423 0.961 . S
H438 C423 0.961 . S
H439 C423 0.961 . S
H440 C424 0.931 . S
H441 C429 0.930 . S
H442 C430 0.956 . S
H443 C430 0.961 . S
H444 C430 0.961 . S
H445 C431 0.958 . S
H446 C431 0.961 . S
H447 C431 0.960 . S
C448 C449 1.391 . S
C448 C450 1.394 . S
C448 H464 0.931 . S
C449 C448 1.391 . S
C449 C453 1.376 . S
C450 C448 1.394 . S
C450 C451 1.369 . S
C450 C454 1.531 . S
C451 C450 1.369 . S
C451 C452 1.410 . S
C451 C459 1.503 . S
C452 C451 1.410 . S
C452 C453 1.392 . S
C452 C455 1.511 . S
C453 C449 1.376 . S
C453 C452 1.392 . S
C453 H465 0.929 . S
C454 C450 1.531 . S
C454 H466 0.960 . S
C454 H467 0.962 . S
C454 H468 0.960 . S
C455 C452 1.511 . S
C455 H469 0.961 . S
C455 H470 0.961 . S
C455 H471 0.961 . S
C456 C457 1.370 . S
C456 C458 1.363 . S
C456 H472 0.931 . S
C457 C456 1.370 . S
C457 C461 1.408 . S
C458 C456 1.363 . S
C458 C459 1.370 . S
C458 C462 1.524 . S
C459 C451 1.503 . S
C459 C458 1.370 . S
C459 C460 1.403 . S
C460 C459 1.403 . S
C460 C461 1.404 . S
C460 C463 1.539 . S
C461 C457 1.408 . S
C461 C460 1.404 . S
C461 H473 0.930 . S
C462 C458 1.524 . S
C462 H474 0.956 . S
C462 H475 0.961 . S
C462 H476 0.961 . S
C463 C460 1.539 . S
C463 H477 0.958 . S
C463 H478 0.961 . S
C463 H479 0.960 . S
H464 C448 0.931 . S
H465 C453 0.929 . S
H466 C454 0.960 . S
H467 C454 0.962 . S
H468 C454 0.960 . S
H469 C455 0.961 . S
H470 C455 0.961 . S
H471 C455 0.961 . S
H472 C456 0.931 . S
H473 C461 0.930 . S
H474 C462 0.956 . S
H475 C462 0.961 . S
H476 C462 0.961 . S
H477 C463 0.958 . S
H478 C463 0.961 . S
H479 C463 0.960 . S
C480 C481 1.391 . S
C480 C482 1.394 . S
C480 H496 0.931 . S
C481 C480 1.391 . S
C481 C485 1.376 . S
C482 C480 1.394 . S
C482 C483 1.369 . S
C482 C486 1.531 . S
C483 C482 1.369 . S
C483 C484 1.410 . S
C483 C491 1.503 1_565 S
C484 C483 1.410 . S
C484 C485 1.392 . S
C484 C487 1.511 1_565 S
C485 C481 1.376 . S
C485 C484 1.392 . S
C485 H497 0.929 . S
C486 C482 1.531 . S
C486 H498 0.960 . S
C486 H499 0.962 . S
C486 H500 0.960 . S
C487 C484 1.511 1_545 S
C487 H501 0.961 . S
C487 H502 0.961 . S
C487 H503 0.961 . S
C488 C489 1.370 . S
C488 C490 1.363 . S
C488 H504 0.931 . S
C489 C488 1.370 . S
C489 C493 1.408 . S
C490 C488 1.363 . S
C490 C491 1.370 . S
C490 C494 1.524 . S
C491 C483 1.503 1_545 S
C491 C490 1.370 . S
C491 C492 1.403 . S
C492 C491 1.403 . S
C492 C493 1.404 . S
C492 C495 1.539 . S
C493 C489 1.408 . S
C493 C492 1.404 . S
C493 H505 0.930 . S
C494 C490 1.524 . S
C494 H506 0.956 1_545 S
C494 H507 0.961 . S
C494 H508 0.961 . S
C495 C492 1.539 . S
C495 H509 0.958 1_545 S
C495 H510 0.961 . S
C495 H511 0.947 1_545 S
H496 C480 0.931 . S
H497 C485 0.929 . S
H498 C486 0.960 . S
H499 C486 0.962 . S
H500 C486 0.960 . S
H501 C487 0.961 . S
H502 C487 0.961 . S
H503 C487 0.961 . S
H504 C488 0.931 . S
H505 C493 0.930 . S
H506 C494 0.956 1_565 S
H507 C494 0.961 . S
H508 C494 0.961 . S
H509 C495 0.958 1_565 S
H510 C495 0.961 . S
H511 C495 0.947 1_565 S
C512 C513 1.391 . S
C512 C514 1.394 . S
C512 H528 0.931 . S
C513 C512 1.391 . S
C513 C517 1.376 . S
C514 C512 1.394 . S
C514 C515 1.369 . S
C514 C518 1.531 . S
C515 C514 1.369 . S
C515 C516 1.410 . S
C515 C523 1.503 . S
C516 C515 1.410 . S
C516 C517 1.392 . S
C516 C519 1.511 . S
C517 C513 1.376 . S
C517 C516 1.392 . S
C517 H529 0.929 . S
C518 C514 1.531 . S
C518 H530 0.960 . S
C518 H531 0.962 . S
C518 H532 0.960 . S
C519 C516 1.511 . S
C519 H533 0.961 . S
C519 H534 0.961 . S
C519 H535 0.961 . S
C520 C521 1.370 . S
C520 C522 1.363 . S
C520 H536 0.931 . S
C521 C520 1.370 . S
C521 C525 1.408 . S
C522 C520 1.363 . S
C522 C523 1.370 . S
C522 C526 1.524 . S
C523 C515 1.503 . S
C523 C522 1.370 . S
C523 C524 1.403 . S
C524 C523 1.403 . S
C524 C525 1.404 . S
C524 C527 1.539 . S
C525 C521 1.408 . S
C525 C524 1.404 . S
C525 H537 0.930 . S
C526 C522 1.524 . S
C526 H538 0.956 . S
C526 H539 0.961 . S
C526 H540 0.961 . S
C527 C524 1.539 . S
C527 H541 0.958 . S
C527 H542 0.961 . S
C527 H543 0.960 . S
H528 C512 0.931 . S
H529 C517 0.929 . S
H530 C518 0.960 . S
H531 C518 0.962 . S
H532 C518 0.960 . S
H533 C519 0.961 . S
H534 C519 0.961 . S
H535 C519 0.961 . S
H536 C520 0.931 . S
H537 C525 0.930 . S
H538 C526 0.956 . S
H539 C526 0.961 . S
H540 C526 0.961 . S
H541 C527 0.958 . S
H542 C527 0.961 . S
H543 C527 0.960 . S
C544 C545 1.391 . S
C544 C546 1.394 . S
C544 H560 0.931 . S
C545 C544 1.391 . S
C545 C549 1.376 . S
C546 C544 1.394 . S
C546 C547 1.369 . S
C546 C550 1.531 1_556 S
C547 C546 1.369 . S
C547 C548 1.410 . S
C547 C555 1.503 1_556 S
C548 C547 1.410 . S
C548 C549 1.392 . S
C548 C551 1.511 . S
C549 C545 1.376 . S
C549 C548 1.392 . S
C549 H561 0.929 . S
C550 C546 1.531 1_554 S
C550 H562 0.960 . S
C550 H563 0.962 . S
C550 H564 0.960 . S
C551 C548 1.511 . S
C551 H565 0.961 . S
C551 H566 0.961 . S
C551 H567 0.961 . S
C552 C553 1.370 . S
C552 C554 1.363 . S
C552 H568 0.931 . S
C553 C552 1.370 . S
C553 C557 1.408 . S
C554 C552 1.363 . S
C554 C555 1.370 . S
C554 C558 1.524 1_554 S
C555 C547 1.503 1_554 S
C555 C554 1.370 . S
C555 C556 1.403 . S
C556 C555 1.403 . S
C556 C557 1.404 . S
C556 C559 1.539 . S
C557 C553 1.408 . S
C557 C556 1.404 . S
C557 H569 0.930 . S
C558 C554 1.524 1_556 S
C558 H570 0.956 . S
C558 H571 0.961 . S
C558 H572 0.961 . S
C559 C556 1.539 . S
C559 H573 0.958 . S
C559 H574 0.961 . S
C559 H575 0.960 . S
H560 C544 0.931 . S
H561 C549 0.929 . S
H562 C550 0.960 . S
H563 C550 0.962 . S
H564 C550 0.960 . S
H565 C551 0.961 . S
H566 C551 0.961 . S
H567 C551 0.961 . S
H568 C552 0.931 . S
H569 C557 0.930 . S
H570 C558 0.956 . S
H571 C558 0.961 . S
H572 C558 0.961 . S
H573 C559 0.958 . S
H574 C559 0.961 . S
H575 C559 0.960 . S
C576 C577 1.391 . S
C576 C578 1.394 . S
C576 H592 0.931 . S
C577 C576 1.391 . S
C577 C581 1.376 . S
C578 C576 1.394 . S
C578 C579 1.369 . S
C578 C582 1.531 . S
C579 C578 1.369 . S
C579 C580 1.410 . S
C579 C587 1.503 1_554 S
C580 C579 1.410 . S
C580 C581 1.392 . S
C580 C583 1.511 1_554 S
C581 C577 1.376 . S
C581 C580 1.392 . S
C581 H593 0.929 . S
C582 C578 1.531 . S
C582 H594 0.960 . S
C582 H595 0.962 . S
C582 H596 0.960 . S
C583 C580 1.511 1_556 S
C583 H597 0.961 . S
C583 H598 0.961 . S
C583 H599 0.961 . S
C584 C585 1.370 . S
C584 C586 1.363 . S
C584 H600 0.931 . S
C585 C584 1.370 . S
C585 C589 1.408 . S
C586 C584 1.363 . S
C586 C587 1.370 . S
C586 C590 1.524 . S
C587 C579 1.503 1_556 S
C587 C586 1.370 . S
C587 C588 1.403 . S
C588 C587 1.403 . S
C588 C589 1.404 . S
C588 C591 1.539 . S
C589 C585 1.408 . S
C589 C588 1.404 . S
C589 H601 0.930 . S
C590 C586 1.524 . S
C590 H602 0.956 1_556 S
C590 H603 0.961 . S
C590 H604 0.961 . S
C591 C588 1.539 . S
C591 H605 0.958 1_556 S
C591 H606 0.961 . S
C591 H607 0.960 1_556 S
H592 C576 0.931 . S
H593 C581 0.929 . S
H594 C582 0.960 . S
H595 C582 0.962 . S
H596 C582 0.960 . S
H597 C583 0.961 . S
H598 C583 0.961 . S
H599 C583 0.961 . S
H600 C584 0.931 . S
H601 C589 0.930 . S
H602 C590 0.956 1_554 S
H603 C590 0.961 . S
H604 C590 0.961 . S
H605 C591 0.958 1_554 S
H606 C591 0.961 . S
H607 C591 0.960 1_554 S
C608 C609 1.391 . S
C608 C610 1.394 . S
C608 H624 0.931 . S
C609 C608 1.391 . S
C609 C613 1.376 . S
C610 C608 1.394 . S
C610 C611 1.369 . S
C610 C614 1.531 . S
C611 C610 1.369 . S
C611 C612 1.410 . S
C611 C619 1.503 . S
C612 C611 1.410 . S
C612 C613 1.392 . S
C612 C615 1.511 . S
C613 C609 1.376 . S
C613 C612 1.392 . S
C613 H625 0.929 . S
C614 C610 1.531 . S
C614 H626 0.960 . S
C614 H627 0.962 . S
C614 H628 0.960 . S
C615 C612 1.511 . S
C615 H629 0.961 . S
C615 H630 0.961 . S
C615 H631 0.961 . S
C616 C617 1.370 . S
C616 C618 1.363 . S
C616 H632 0.931 . S
C617 C616 1.370 . S
C617 C621 1.408 . S
C618 C616 1.363 . S
C618 C619 1.370 . S
C618 C622 1.524 . S
C619 C611 1.503 . S
C619 C618 1.370 . S
C619 C620 1.403 . S
C620 C619 1.403 . S
C620 C621 1.404 . S
C620 C623 1.539 . S
C621 C617 1.408 . S
C621 C620 1.404 . S
C621 H633 0.930 . S
C622 C618 1.524 . S
C622 H634 0.956 . S
C622 H635 0.961 . S
C622 H636 0.961 . S
C623 C620 1.539 . S
C623 H637 0.958 . S
C623 H638 0.961 . S
C623 H639 0.960 . S
H624 C608 0.931 . S
H625 C613 0.929 . S
H626 C614 0.960 . S
H627 C614 0.962 . S
H628 C614 0.960 . S
H629 C615 0.961 . S
H630 C615 0.961 . S
H631 C615 0.961 . S
H632 C616 0.931 . S
H633 C621 0.930 . S
H634 C622 0.956 . S
H635 C622 0.961 . S
H636 C622 0.961 . S
H637 C623 0.958 . S
H638 C623 0.961 . S
H639 C623 0.960 . S
C640 C641 1.391 . S
C640 C642 1.394 . S
C640 H656 0.931 . S
C641 C640 1.391 . S
C641 C645 1.376 . S
C642 C640 1.394 . S
C642 C643 1.369 . S
C642 C646 1.531 . S
C643 C642 1.369 . S
C643 C644 1.410 . S
C643 C651 1.503 . S
C644 C643 1.410 . S
C644 C645 1.392 . S
C644 C647 1.511 . S
C645 C641 1.376 . S
C645 C644 1.392 . S
C645 H657 0.929 . S
C646 C642 1.531 . S
C646 H658 0.960 . S
C646 H659 0.962 . S
C646 H660 0.960 . S
C647 C644 1.511 . S
C647 H661 0.961 . S
C647 H662 0.961 . S
C647 H663 0.961 . S
C648 C649 1.370 . S
C648 C650 1.363 . S
C648 H664 0.931 . S
C649 C648 1.370 . S
C649 C653 1.408 . S
C650 C648 1.363 . S
C650 C651 1.370 . S
C650 C654 1.524 . S
C651 C643 1.503 . S
C651 C650 1.370 . S
C651 C652 1.403 . S
C652 C651 1.403 . S
C652 C653 1.404 . S
C652 C655 1.539 . S
C653 C649 1.408 . S
C653 C652 1.404 . S
C653 H665 0.930 . S
C654 C650 1.524 . S
C654 H666 0.956 . S
C654 H667 0.961 . S
C654 H668 0.961 . S
C655 C652 1.539 . S
C655 H669 0.958 . S
C655 H670 0.961 . S
C655 H671 0.960 . S
H656 C640 0.931 . S
H657 C645 0.929 . S
H658 C646 0.960 . S
H659 C646 0.962 . S
H660 C646 0.960 . S
H661 C647 0.961 . S
H662 C647 0.961 . S
H663 C647 0.961 . S
H664 C648 0.931 . S
H665 C653 0.930 . S
H666 C654 0.956 . S
H667 C654 0.961 . S
H668 C654 0.961 . S
H669 C655 0.958 . S
H670 C655 0.961 . S
H671 C655 0.960 . S
C672 C673 1.391 . S
C672 C674 1.394 . S
C672 H688 0.931 . S
C673 C672 1.391 . S
C673 C677 1.376 . S
C674 C672 1.394 . S
C674 C675 1.369 . S
C674 C678 1.531 . S
C675 C674 1.369 . S
C675 C676 1.410 . S
C675 C683 1.503 1_655 S
C676 C675 1.410 . S
C676 C677 1.392 . S
C676 C679 1.511 . S
C677 C673 1.376 . S
C677 C676 1.392 . S
C677 H689 0.929 . S
C678 C674 1.531 . S
C678 H690 0.960 . S
C678 H691 0.962 . S
C678 H692 0.960 . S
C679 C676 1.511 . S
C679 H693 0.961 . S
C679 H694 0.961 1_655 S
C679 H695 0.961 . S
C680 C681 1.370 . S
C680 C682 1.363 . S
C680 H696 0.931 . S
C681 C680 1.370 . S
C681 C685 1.408 . S
C682 C680 1.363 . S
C682 C683 1.370 . S
C682 C686 1.524 . S
C683 C675 1.503 1_455 S
C683 C682 1.370 . S
C683 C684 1.403 . S
C684 C683 1.403 . S
C684 C685 1.404 . S
C684 C687 1.539 1_455 S
C685 C681 1.408 . S
C685 C684 1.404 . S
C685 H697 0.930 . S
C686 C682 1.524 . S
C686 H698 0.956 . S
C686 H699 0.961 . S
C686 H700 0.961 . S
C687 C684 1.539 1_655 S
C687 H701 0.958 . S
C687 H702 0.961 . S
C687 H703 0.960 . S
H688 C672 0.931 . S
H689 C677 0.929 . S
H690 C678 0.960 . S
H691 C678 0.962 . S
H692 C678 0.960 . S
H693 C679 0.961 . S
H694 C679 0.961 1_455 S
H695 C679 0.961 . S
H696 C680 0.931 . S
H697 C685 0.930 . S
H698 C686 0.956 . S
H699 C686 0.961 . S
H700 C686 0.961 . S
H701 C687 0.958 . S
H702 C687 0.961 . S
H703 C687 0.960 . S
C704 C705 1.391 . S
C704 C706 1.394 . S
C704 H720 0.931 . S
C705 C704 1.391 . S
C705 C709 1.376 . S
C706 C704 1.394 . S
C706 C707 1.369 . S
C706 C710 1.531 . S
C707 C706 1.369 . S
C707 C708 1.410 . S
C707 C715 1.503 1_655 S
C708 C707 1.410 . S
C708 C709 1.392 . S
C708 C711 1.511 1_655 S
C709 C705 1.376 . S
C709 C708 1.392 . S
C709 H721 0.929 . S
C710 C706 1.531 . S
C710 H722 0.960 . S
C710 H723 0.962 . S
C710 H724 0.960 . S
C711 C708 1.511 1_455 S
C711 H725 0.961 1_455 S
C711 H726 0.961 . S
C711 H727 0.961 . S
C712 C713 1.370 . S
C712 C714 1.363 . S
C712 H728 0.931 . S
C713 C712 1.370 . S
C713 C717 1.408 . S
C714 C712 1.363 . S
C714 C715 1.370 . S
C714 C718 1.524 1_455 S
C715 C707 1.503 1_455 S
C715 C714 1.370 . S
C715 C716 1.403 . S
C716 C715 1.403 . S
C716 C717 1.404 . S
C716 C719 1.539 . S
C717 C713 1.408 . S
C717 C716 1.404 . S
C717 H729 0.930 . S
C718 C714 1.524 1_655 S
C718 H730 0.956 . S
C718 H731 0.961 . S
C718 H732 0.961 . S
C719 C716 1.539 . S
C719 H733 0.958 . S
C719 H734 0.961 . S
C719 H735 0.960 . S
H720 C704 0.931 . S
H721 C709 0.929 . S
H722 C710 0.960 . S
H723 C710 0.962 . S
H724 C710 0.960 . S
H725 C711 0.961 1_655 S
H726 C711 0.961 . S
H727 C711 0.961 . S
H728 C712 0.931 . S
H729 C717 0.930 . S
H730 C718 0.956 . S
H731 C718 0.961 . S
H732 C718 0.961 . S
H733 C719 0.958 . S
H734 C719 0.961 . S
H735 C719 0.960 . S
C736 C737 1.391 . S
C736 C738 1.394 . S
C736 H752 0.931 . S
C737 C736 1.391 . S
C737 C741 1.376 . S
C738 C736 1.394 . S
C738 C739 1.369 . S
C738 C742 1.531 . S
C739 C738 1.369 . S
C739 C740 1.410 . S
C739 C747 1.503 . S
C740 C739 1.410 . S
C740 C741 1.392 . S
C740 C743 1.511 . S
C741 C737 1.376 . S
C741 C740 1.392 . S
C741 H753 0.929 . S
C742 C738 1.531 . S
C742 H754 0.960 . S
C742 H755 0.962 . S
C742 H756 0.960 . S
C743 C740 1.511 . S
C743 H757 0.961 . S
C743 H758 0.961 . S
C743 H759 0.961 . S
C744 C745 1.370 . S
C744 C746 1.363 . S
C744 H760 0.931 . S
C745 C744 1.370 . S
C745 C749 1.408 . S
C746 C744 1.363 . S
C746 C747 1.370 . S
C746 C750 1.524 . S
C747 C739 1.503 . S
C747 C746 1.370 . S
C747 C748 1.403 . S
C748 C747 1.403 . S
C748 C749 1.404 . S
C748 C751 1.539 . S
C749 C745 1.408 . S
C749 C748 1.404 . S
C749 H761 0.930 . S
C750 C746 1.524 . S
C750 H762 0.956 . S
C750 H763 0.961 . S
C750 H764 0.961 . S
C751 C748 1.539 . S
C751 H765 0.958 . S
C751 H766 0.961 . S
C751 H767 0.960 . S
H752 C736 0.931 . S
H753 C741 0.929 . S
H754 C742 0.960 . S
H755 C742 0.962 . S
H756 C742 0.960 . S
H757 C743 0.961 . S
H758 C743 0.961 . S
H759 C743 0.961 . S
H760 C744 0.931 . S
H761 C749 0.930 . S
H762 C750 0.956 . S
H763 C750 0.961 . S
H764 C750 0.961 . S
H765 C751 0.958 . S
H766 C751 0.961 . S
H767 C751 0.960 . S
C768 C769 1.391 . S
C768 C770 1.394 . S
C768 H784 0.931 . S
C769 C768 1.391 . S
C769 C773 1.376 . S
C770 C768 1.394 . S
C770 C771 1.369 . S
C770 C774 1.531 . S
C771 C770 1.369 . S
C771 C772 1.410 . S
C771 C779 1.503 1_545 S
C772 C771 1.410 . S
C772 C773 1.392 . S
C772 C775 1.511 . S
C773 C769 1.376 . S
C773 C772 1.392 . S
C773 H785 0.929 . S
C774 C770 1.531 . S
C774 H786 0.960 . S
C774 H787 0.962 . S
C774 H788 0.960 . S
C775 C772 1.511 . S
C775 H789 0.961 . S
C775 H790 0.961 1_545 S
C775 H791 0.961 . S
C776 C777 1.370 . S
C776 C778 1.363 . S
C776 H792 0.931 . S
C777 C776 1.370 . S
C777 C781 1.408 . S
C778 C776 1.363 . S
C778 C779 1.370 . S
C778 C782 1.524 . S
C779 C771 1.503 1_565 S
C779 C778 1.370 . S
C779 C780 1.403 . S
C780 C779 1.403 . S
C780 C781 1.404 . S
C780 C783 1.539 1_565 S
C781 C777 1.408 . S
C781 C780 1.404 . S
C781 H793 0.930 . S
C782 C778 1.524 . S
C782 H794 0.956 . S
C782 H795 0.961 . S
C782 H796 0.961 . S
C783 C780 1.539 1_545 S
C783 H797 0.958 . S
C783 H798 0.961 . S
C783 H799 0.960 . S
H784 C768 0.931 . S
H785 C773 0.929 . S
H786 C774 0.960 . S
H787 C774 0.962 . S
H788 C774 0.960 . S
H789 C775 0.961 . S
H790 C775 0.961 1_565 S
H791 C775 0.961 . S
H792 C776 0.931 . S
H793 C781 0.930 . S
H794 C782 0.956 . S
H795 C782 0.961 . S
H796 C782 0.961 . S
H797 C783 0.958 . S
H798 C783 0.961 . S
H799 C783 0.960 . S
C800 C801 1.391 . S
C800 C802 1.394 . S
C800 H816 0.931 . S
C801 C800 1.391 . S
C801 C805 1.376 . S
C802 C800 1.394 . S
C802 C803 1.369 . S
C802 C806 1.531 . S
C803 C802 1.369 . S
C803 C804 1.410 . S
C803 C811 1.503 . S
C804 C803 1.410 . S
C804 C805 1.392 . S
C804 C807 1.511 . S
C805 C801 1.376 . S
C805 C804 1.392 . S
C805 H817 0.929 . S
C806 C802 1.531 . S
C806 H818 0.960 . S
C806 H819 0.962 . S
C806 H820 0.960 . S
C807 C804 1.511 . S
C807 H821 0.961 . S
C807 H822 0.961 . S
C807 H823 0.961 . S
C808 C809 1.370 . S
C808 C810 1.363 . S
C808 H824 0.931 . S
C809 C808 1.370 . S
C809 C813 1.408 . S
C810 C808 1.363 . S
C810 C811 1.370 . S
C810 C814 1.524 . S
C811 C803 1.503 . S
C811 C810 1.370 . S
C811 C812 1.403 . S
C812 C811 1.403 . S
C812 C813 1.404 . S
C812 C815 1.539 . S
C813 C809 1.408 . S
C813 C812 1.404 . S
C813 H825 0.930 . S
C814 C810 1.524 . S
C814 H826 0.956 . S
C814 H827 0.961 . S
C814 H828 0.961 . S
C815 C812 1.539 . S
C815 H829 0.958 . S
C815 H830 0.961 . S
C815 H831 0.960 . S
H816 C800 0.931 . S
H817 C805 0.929 . S
H818 C806 0.960 . S
H819 C806 0.962 . S
H820 C806 0.960 . S
H821 C807 0.961 . S
H822 C807 0.961 . S
H823 C807 0.961 . S
H824 C808 0.931 . S
H825 C813 0.930 . S
H826 C814 0.956 . S
H827 C814 0.961 . S
H828 C814 0.961 . S
H829 C815 0.958 . S
H830 C815 0.961 . S
H831 C815 0.960 . S
C832 C833 1.391 . S
C832 C834 1.394 . S
C832 H848 0.931 . S
C833 C832 1.391 . S
C833 C837 1.376 . S
C834 C832 1.394 . S
C834 C835 1.369 . S
C834 C838 1.531 . S
C835 C834 1.369 . S
C835 C836 1.410 . S
C835 C843 1.503 1_554 S
C836 C835 1.410 . S
C836 C837 1.392 . S
C836 C839 1.511 1_554 S
C837 C833 1.376 . S
C837 C836 1.392 . S
C837 H849 0.929 . S
C838 C834 1.531 . S
C838 H850 0.960 . S
C838 H851 0.962 . S
C838 H852 0.960 . S
C839 C836 1.511 1_556 S
C839 H853 0.961 . S
C839 H854 0.961 . S
C839 H855 0.961 . S
C840 C841 1.370 . S
C840 C842 1.363 . S
C840 H856 0.931 . S
C841 C840 1.370 . S
C841 C845 1.408 . S
C842 C840 1.363 . S
C842 C843 1.370 . S
C842 C846 1.524 . S
C843 C835 1.503 1_556 S
C843 C842 1.370 . S
C843 C844 1.403 . S
C844 C843 1.403 . S
C844 C845 1.404 . S
C844 C847 1.539 . S
C845 C841 1.408 . S
C845 C844 1.404 . S
C845 H857 0.930 . S
C846 C842 1.524 . S
C846 H858 0.956 1_556 S
C846 H859 0.961 . S
C846 H860 0.961 . S
C847 C844 1.539 . S
C847 H861 0.958 1_556 S
C847 H862 0.961 . S
C847 H863 0.960 . S
H848 C832 0.931 . S
H849 C837 0.929 . S
H850 C838 0.960 . S
H851 C838 0.962 . S
H852 C838 0.960 . S
H853 C839 0.961 . S
H854 C839 0.961 . S
H855 C839 0.961 . S
H856 C840 0.931 . S
H857 C845 0.930 . S
H858 C846 0.956 1_554 S
H859 C846 0.961 . S
H860 C846 0.961 . S
H861 C847 0.958 1_554 S
H862 C847 0.961 . S
H863 C847 0.960 . S
C864 C865 1.391 . S
C864 C866 1.394 . S
C864 H880 0.931 . S
C865 C864 1.391 . S
C865 C869 1.376 . S
C866 C864 1.394 . S
C866 C867 1.369 . S
C866 C870 1.531 1_556 S
C867 C866 1.369 . S
C867 C868 1.410 . S
C867 C875 1.503 1_556 S
C868 C867 1.410 . S
C868 C869 1.392 . S
C868 C871 1.511 . S
C869 C865 1.376 . S
C869 C868 1.392 . S
C869 H881 0.929 . S
C870 C866 1.531 1_554 S
C870 H882 0.960 . S
C870 H883 0.962 . S
C870 H884 0.960 . S
C871 C868 1.511 . S
C871 H885 0.961 . S
C871 H886 0.961 . S
C871 H887 0.961 . S
C872 C873 1.370 . S
C872 C874 1.363 . S
C872 H888 0.931 . S
C873 C872 1.370 . S
C873 C877 1.408 . S
C874 C872 1.363 . S
C874 C875 1.370 . S
C874 C878 1.524 1_554 S
C875 C867 1.503 1_554 S
C875 C874 1.370 . S
C875 C876 1.403 . S
C876 C875 1.403 . S
C876 C877 1.404 . S
C876 C879 1.539 . S
C877 C873 1.408 . S
C877 C876 1.404 . S
C877 H889 0.930 . S
C878 C874 1.524 1_556 S
C878 H890 0.956 . S
C878 H891 0.961 . S
C878 H892 0.961 . S
C879 C876 1.539 . S
C879 H893 0.958 . S
C879 H894 0.961 . S
C879 H895 0.960 . S
H880 C864 0.931 . S
H881 C869 0.929 . S
H882 C870 0.960 . S
H883 C870 0.962 . S
H884 C870 0.960 . S
H885 C871 0.961 . S
H886 C871 0.961 . S
H887 C871 0.961 . S
H888 C872 0.931 . S
H889 C877 0.930 . S
H890 C878 0.956 . S
H891 C878 0.961 . S
H892 C878 0.961 . S
H893 C879 0.958 . S
H894 C879 0.961 . S
H895 C879 0.960 . S
C896 C897 1.391 . S
C896 C898 1.394 . S
C896 H912 0.931 . S
C897 C896 1.391 . S
C897 C901 1.376 . S
C898 C896 1.394 . S
C898 C899 1.369 . S
C898 C902 1.531 . S
C899 C898 1.369 . S
C899 C900 1.410 . S
C899 C907 1.503 . S
C900 C899 1.410 . S
C900 C901 1.392 . S
C900 C903 1.511 . S
C901 C897 1.376 . S
C901 C900 1.392 . S
C901 H913 0.929 . S
C902 C898 1.531 . S
C902 H914 0.960 . S
C902 H915 0.962 . S
C902 H916 0.960 . S
C903 C900 1.511 . S
C903 H917 0.961 . S
C903 H918 0.961 . S
C903 H919 0.961 . S
C904 C905 1.370 . S
C904 C906 1.363 . S
C904 H920 0.931 . S
C905 C904 1.370 . S
C905 C909 1.408 . S
C906 C904 1.363 . S
C906 C907 1.370 . S
C906 C910 1.524 . S
C907 C899 1.503 . S
C907 C906 1.370 . S
C907 C908 1.403 . S
C908 C907 1.403 . S
C908 C909 1.404 . S
C908 C911 1.539 . S
C909 C905 1.408 . S
C909 C908 1.404 . S
C909 H921 0.930 . S
C910 C906 1.524 . S
C910 H922 0.956 . S
C910 H923 0.961 . S
C910 H924 0.961 . S
C911 C908 1.539 . S
C911 H925 0.958 . S
C911 H926 0.961 . S
C911 H927 0.960 . S
H912 C896 0.931 . S
H913 C901 0.929 . S
H914 C902 0.960 . S
H915 C902 0.962 . S
H916 C902 0.960 . S
H917 C903 0.961 . S
H918 C903 0.961 . S
H919 C903 0.961 . S
H920 C904 0.931 . S
H921 C909 0.930 . S
H922 C910 0.956 . S
H923 C910 0.961 . S
H924 C910 0.961 . S
H925 C911 0.958 . S
H926 C911 0.961 . S
H927 C911 0.960 . S
C928 C929 1.391 . S
C928 C930 1.394 . S
C928 H944 0.931 . S
C929 C928 1.391 . S
C929 C933 1.376 . S
C930 C928 1.394 . S
C930 C931 1.369 . S
C930 C934 1.531 . S
C931 C930 1.369 . S
C931 C932 1.410 . S
C931 C939 1.503 . S
C932 C931 1.410 . S
C932 C933 1.392 . S
C932 C935 1.511 . S
C933 C929 1.376 . S
C933 C932 1.392 . S
C933 H945 0.929 . S
C934 C930 1.531 . S
C934 H946 0.960 . S
C934 H947 0.962 . S
C934 H948 0.960 . S
C935 C932 1.511 . S
C935 H949 0.961 . S
C935 H950 0.961 . S
C935 H951 0.961 . S
C936 C937 1.370 . S
C936 C938 1.363 . S
C936 H952 0.931 . S
C937 C936 1.370 . S
C937 C941 1.408 . S
C938 C936 1.363 . S
C938 C939 1.370 . S
C938 C942 1.524 . S
C939 C931 1.503 . S
C939 C938 1.370 . S
C939 C940 1.403 . S
C940 C939 1.403 . S
C940 C941 1.404 . S
C940 C943 1.539 . S
C941 C937 1.408 . S
C941 C940 1.404 . S
C941 H953 0.930 . S
C942 C938 1.524 . S
C942 H954 0.956 . S
C942 H955 0.961 . S
C942 H956 0.961 . S
C943 C940 1.539 . S
C943 H957 0.958 . S
C943 H958 0.961 . S
C943 H959 0.960 . S
H944 C928 0.931 . S
H945 C933 0.929 . S
H946 C934 0.960 . S
H947 C934 0.962 . S
H948 C934 0.960 . S
H949 C935 0.961 . S
H950 C935 0.961 . S
H951 C935 0.961 . S
H952 C936 0.931 . S
H953 C941 0.930 . S
H954 C942 0.956 . S
H955 C942 0.961 . S
H956 C942 0.961 . S
H957 C943 0.958 . S
H958 C943 0.961 . S
H959 C943 0.960 . S
C960 C961 1.391 . S
C960 C962 1.394 . S
C960 H976 0.931 . S
C961 C960 1.391 . S
C961 C965 1.376 . S
C962 C960 1.394 . S
C962 C963 1.369 . S
C962 C966 1.531 . S
C963 C962 1.369 . S
C963 C964 1.410 . S
C963 C971 1.503 1_455 S
C964 C963 1.410 . S
C964 C965 1.392 . S
C964 C967 1.511 1_455 S
C965 C961 1.376 . S
C965 C964 1.392 . S
C965 H977 0.929 . S
C966 C962 1.531 . S
C966 H978 0.960 . S
C966 H979 0.962 . S
C966 H980 0.960 . S
C967 C964 1.511 1_655 S
C967 H981 0.961 . S
C967 H982 0.961 . S
C967 H983 0.961 . S
C968 C969 1.370 . S
C968 C970 1.363 . S
C968 H984 0.931 . S
C969 C968 1.370 . S
C969 C973 1.408 . S
C970 C968 1.363 . S
C970 C971 1.370 . S
C970 C974 1.524 . S
C971 C963 1.503 1_655 S
C971 C970 1.370 . S
C971 C972 1.403 . S
C972 C971 1.403 . S
C972 C973 1.404 . S
C972 C975 1.539 . S
C973 C969 1.408 . S
C973 C972 1.404 . S
C973 H985 0.930 . S
C974 C970 1.524 . S
C974 H986 0.956 1_655 S
C974 H987 0.961 1_655 S
C974 H988 0.961 . S
C975 C972 1.539 . S
C975 H989 0.958 . S
C975 H990 0.961 . S
C975 H991 0.960 . S
H976 C960 0.931 . S
H977 C965 0.929 . S
H978 C966 0.960 . S
H979 C966 0.962 . S
H980 C966 0.960 . S
H981 C967 0.961 . S
H982 C967 0.961 . S
H983 C967 0.961 . S
H984 C968 0.931 . S
H985 C973 0.930 . S
H986 C974 0.956 1_455 S
H987 C974 0.961 1_455 S
H988 C974 0.961 . S
H989 C975 0.958 . S
H990 C975 0.961 . S
H991 C975 0.960 . S
C992 C993 1.391 . S
C992 C994 1.394 . S
C992 H1008 0.931 . S
C993 C992 1.391 . S
C993 C997 1.376 . S
C994 C992 1.394 . S
C994 C995 1.369 . S
C994 C998 1.531 1_455 S
C995 C994 1.369 . S
C995 C996 1.410 . S
C995 C1003 1.503 1_455 S
C996 C995 1.410 . S
C996 C997 1.392 . S
C996 C999 1.511 . S
C997 C993 1.376 . S
C997 C996 1.392 . S
C997 H1009 0.929 . S
C998 C994 1.531 1_655 S
C998 H1010 0.960 . S
C998 H1011 0.962 . S
C998 H1012 0.960 . S
C999 C996 1.511 . S
C999 H1013 0.961 . S
C999 H1014 0.961 . S
C999 H1015 0.961 . S
C1000 C1001 1.370 . S
C1000 C1002 1.363 . S
C1000 H1016 0.931 . S
C1001 C1000 1.370 . S
C1001 C1005 1.408 . S
C1002 C1000 1.363 . S
C1002 C1003 1.370 . S
C1002 C1006 1.524 . S
C1003 C995 1.503 1_655 S
C1003 C1002 1.370 . S
C1003 C1004 1.403 . S
C1004 C1003 1.403 . S
C1004 C1005 1.404 . S
C1004 C1007 1.539 . S
C1005 C1001 1.408 . S
C1005 C1004 1.404 . S
C1005 H1017 0.930 . S
C1006 C1002 1.524 . S
C1006 H1018 0.956 . S
C1006 H1019 0.961 1_655 S
C1006 H1020 0.961 . S
C1007 C1004 1.539 . S
C1007 H1021 0.958 . S
C1007 H1022 0.961 . S
C1007 H1023 0.960 . S
H1008 C992 0.931 . S
H1009 C997 0.929 . S
H1010 C998 0.960 . S
H1011 C998 0.962 . S
H1012 C998 0.960 . S
H1013 C999 0.961 . S
H1014 C999 0.961 . S
H1015 C999 0.961 . S
H1016 C1000 0.931 . S
H1017 C1005 0.930 . S
H1018 C1006 0.956 . S
H1019 C1006 0.961 1_455 S
H1020 C1006 0.961 . S
H1021 C1007 0.958 . S
H1022 C1007 0.961 . S
H1023 C1007 0.960 . S
C1024 C1025 1.391 . S
C1024 C1026 1.394 . S
C1024 H1040 0.931 . S
C1025 C1024 1.391 . S
C1025 C1029 1.376 . S
C1026 C1024 1.394 . S
C1026 C1027 1.369 . S
C1026 C1030 1.531 . S
C1027 C1026 1.369 . S
C1027 C1028 1.410 . S
C1027 C1035 1.503 . S
C1028 C1027 1.410 . S
C1028 C1029 1.392 . S
C1028 C1031 1.511 . S
C1029 C1025 1.376 . S
C1029 C1028 1.392 . S
C1029 H1041 0.929 . S
C1030 C1026 1.531 . S
C1030 H1042 0.960 . S
C1030 H1043 0.962 . S
C1030 H1044 0.960 . S
C1031 C1028 1.511 . S
C1031 H1045 0.961 . S
C1031 H1046 0.961 . S
C1031 H1047 0.961 . S
C1032 C1033 1.370 . S
C1032 C1034 1.363 . S
C1032 H1048 0.931 . S
C1033 C1032 1.370 . S
C1033 C1037 1.408 . S
C1034 C1032 1.363 . S
C1034 C1035 1.370 . S
C1034 C1038 1.524 . S
C1035 C1027 1.503 . S
C1035 C1034 1.370 . S
C1035 C1036 1.403 . S
C1036 C1035 1.403 . S
C1036 C1037 1.404 . S
C1036 C1039 1.539 . S
C1037 C1033 1.408 . S
C1037 C1036 1.404 . S
C1037 H1049 0.930 . S
C1038 C1034 1.524 . S
C1038 H1050 0.956 . S
C1038 H1051 0.961 . S
C1038 H1052 0.961 . S
C1039 C1036 1.539 . S
C1039 H1053 0.958 . S
C1039 H1054 0.961 . S
C1039 H1055 0.960 . S
H1040 C1024 0.931 . S
H1041 C1029 0.929 . S
H1042 C1030 0.960 . S
H1043 C1030 0.962 . S
H1044 C1030 0.960 . S
H1045 C1031 0.961 . S
H1046 C1031 0.961 . S
H1047 C1031 0.961 . S
H1048 C1032 0.931 . S
H1049 C1037 0.930 . S
H1050 C1038 0.956 . S
H1051 C1038 0.961 . S
H1052 C1038 0.961 . S
H1053 C1039 0.958 . S
H1054 C1039 0.961 . S
H1055 C1039 0.960 . S
C1056 C1057 1.391 . S
C1056 C1058 1.394 . S
C1056 H1072 0.931 . S
C1057 C1056 1.391 . S
C1057 C1061 1.376 . S
C1058 C1056 1.394 . S
C1058 C1059 1.369 . S
C1058 C1062 1.531 . S
C1059 C1058 1.369 . S
C1059 C1060 1.410 . S
C1059 C1067 1.503 . S
C1060 C1059 1.410 . S
C1060 C1061 1.392 . S
C1060 C1063 1.511 . S
C1061 C1057 1.376 . S
C1061 C1060 1.392 . S
C1061 H1073 0.929 . S
C1062 C1058 1.531 . S
C1062 H1074 0.960 . S
C1062 H1075 0.962 . S
C1062 H1076 0.960 . S
C1063 C1060 1.511 . S
C1063 H1077 0.961 . S
C1063 H1078 0.961 . S
C1063 H1079 0.961 . S
C1064 C1065 1.370 . S
C1064 C1066 1.363 . S
C1064 H1080 0.931 . S
C1065 C1064 1.370 . S
C1065 C1069 1.408 . S
C1066 C1064 1.363 . S
C1066 C1067 1.370 . S
C1066 C1070 1.524 . S
C1067 C1059 1.503 . S
C1067 C1066 1.370 . S
C1067 C1068 1.403 . S
C1068 C1067 1.403 . S
C1068 C1069 1.404 . S
C1068 C1071 1.539 . S
C1069 C1065 1.408 . S
C1069 C1068 1.404 . S
C1069 H1081 0.930 . S
C1070 C1066 1.524 . S
C1070 H1082 0.956 . S
C1070 H1083 0.961 . S
C1070 H1084 0.961 . S
C1071 C1068 1.539 . S
C1071 H1085 0.958 . S
C1071 H1086 0.961 . S
C1071 H1087 0.960 . S
H1072 C1056 0.931 . S
H1073 C1061 0.929 . S
H1074 C1062 0.960 . S
H1075 C1062 0.962 . S
H1076 C1062 0.960 . S
H1077 C1063 0.961 . S
H1078 C1063 0.961 . S
H1079 C1063 0.961 . S
H1080 C1064 0.931 . S
H1081 C1069 0.930 . S
H1082 C1070 0.956 . S
H1083 C1070 0.961 . S
H1084 C1070 0.961 . S
H1085 C1071 0.958 . S
H1086 C1071 0.961 . S
H1087 C1071 0.960 . S
C1088 C1089 1.391 . S
C1088 C1090 1.394 . S
C1088 H1104 0.931 . S
C1089 C1088 1.391 . S
C1089 C1093 1.376 . S
C1090 C1088 1.394 . S
C1090 C1091 1.369 . S
C1090 C1094 1.531 . S
C1091 C1090 1.369 . S
C1091 C1092 1.410 . S
C1091 C1099 1.503 1_545 S
C1092 C1091 1.410 . S
C1092 C1093 1.392 . S
C1092 C1095 1.511 . S
C1093 C1089 1.376 . S
C1093 C1092 1.392 . S
C1093 H1105 0.929 . S
C1094 C1090 1.531 . S
C1094 H1106 0.960 1_545 S
C1094 H1107 0.962 . S
C1094 H1108 0.960 . S
C1095 C1092 1.511 . S
C1095 H1109 0.961 . S
C1095 H1110 0.961 1_545 S
C1095 H1111 0.961 1_545 S
C1096 C1097 1.370 . S
C1096 C1098 1.363 . S
C1096 H1112 0.931 . S
C1097 C1096 1.370 . S
C1097 C1101 1.408 . S
C1098 C1096 1.363 . S
C1098 C1099 1.370 . S
C1098 C1102 1.524 1_565 S
C1099 C1091 1.503 1_565 S
C1099 C1098 1.370 . S
C1099 C1100 1.403 . S
C1100 C1099 1.403 . S
C1100 C1101 1.404 . S
C1100 C1103 1.539 . S
C1101 C1097 1.408 . S
C1101 C1100 1.404 . S
C1101 H1113 0.930 . S
C1102 C1098 1.524 1_545 S
C1102 H1114 0.956 . S
C1102 H1115 0.961 . S
C1102 H1116 0.961 . S
C1103 C1100 1.539 . S
C1103 H1117 0.958 . S
C1103 H1118 0.961 . S
C1103 H1119 0.960 . S
H1104 C1088 0.931 . S
H1105 C1093 0.929 . S
H1106 C1094 0.960 1_565 S
H1107 C1094 0.962 . S
H1108 C1094 0.960 . S
H1109 C1095 0.961 . S
H1110 C1095 0.961 1_565 S
H1111 C1095 0.961 1_565 S
H1112 C1096 0.931 . S
H1113 C1101 0.930 . S
H1114 C1102 0.956 . S
H1115 C1102 0.961 . S
H1116 C1102 0.961 . S
H1117 C1103 0.958 . S
H1118 C1103 0.961 . S
H1119 C1103 0.960 . S
C1120 C1121 1.391 . S
C1120 C1122 1.394 . S
C1120 H1136 0.931 . S
C1121 C1120 1.391 . S
C1121 C1125 1.376 . S
C1122 C1120 1.394 . S
C1122 C1123 1.369 . S
C1122 C1126 1.531 . S
C1123 C1122 1.369 . S
C1123 C1124 1.410 . S
C1123 C1131 1.503 . S
C1124 C1123 1.410 . S
C1124 C1125 1.392 . S
C1124 C1127 1.511 . S
C1125 C1121 1.376 . S
C1125 C1124 1.392 . S
C1125 H1137 0.929 . S
C1126 C1122 1.531 . S
C1126 H1138 0.960 . S
C1126 H1139 0.962 . S
C1126 H1140 0.960 . S
C1127 C1124 1.511 . S
C1127 H1141 0.961 . S
C1127 H1142 0.961 . S
C1127 H1143 0.961 . S
C1128 C1129 1.370 . S
C1128 C1130 1.363 . S
C1128 H1144 0.931 . S
C1129 C1128 1.370 . S
C1129 C1133 1.408 . S
C1130 C1128 1.363 . S
C1130 C1131 1.370 . S
C1130 C1134 1.524 . S
C1131 C1123 1.503 . S
C1131 C1130 1.370 . S
C1131 C1132 1.403 . S
C1132 C1131 1.403 . S
C1132 C1133 1.404 . S
C1132 C1135 1.539 . S
C1133 C1129 1.408 . S
C1133 C1132 1.404 . S
C1133 H1145 0.930 . S
C1134 C1130 1.524 . S
C1134 H1146 0.956 . S
C1134 H1147 0.961 . S
C1134 H1148 0.961 . S
C1135 C1132 1.539 . S
C1135 H1149 0.958 . S
C1135 H1150 0.961 . S
C1135 H1151 0.960 . S
H1136 C1120 0.931 . S
H1137 C1125 0.929 . S
H1138 C1126 0.960 . S
H1139 C1126 0.962 . S
H1140 C1126 0.960 . S
H1141 C1127 0.961 . S
H1142 C1127 0.961 . S
H1143 C1127 0.961 . S
H1144 C1128 0.931 . S
H1145 C1133 0.930 . S
H1146 C1134 0.956 . S
H1147 C1134 0.961 . S
H1148 C1134 0.961 . S
H1149 C1135 0.958 . S
H1150 C1135 0.961 . S
H1151 C1135 0.960 . S
C1152 C1153 1.391 . S
C1152 C1154 1.394 . S
C1152 H1168 0.931 . S
C1153 C1152 1.391 . S
C1153 C1157 1.376 . S
C1154 C1152 1.394 . S
C1154 C1155 1.369 . S
C1154 C1158 1.531 . S
C1155 C1154 1.369 . S
C1155 C1156 1.410 . S
C1155 C1163 1.503 . S
C1156 C1155 1.410 . S
C1156 C1157 1.392 . S
C1156 C1159 1.511 . S
C1157 C1153 1.376 . S
C1157 C1156 1.392 . S
C1157 H1169 0.929 . S
C1158 C1154 1.531 . S
C1158 H1170 0.960 . S
C1158 H1171 0.962 . S
C1158 H1172 0.960 . S
C1159 C1156 1.511 . S
C1159 H1173 0.961 . S
C1159 H1174 0.961 . S
C1159 H1175 0.961 . S
C1160 C1161 1.370 . S
C1160 C1162 1.363 . S
C1160 H1176 0.931 . S
C1161 C1160 1.370 . S
C1161 C1165 1.408 . S
C1162 C1160 1.363 . S
C1162 C1163 1.370 . S
C1162 C1166 1.524 . S
C1163 C1155 1.503 . S
C1163 C1162 1.370 . S
C1163 C1164 1.403 . S
C1164 C1163 1.403 . S
C1164 C1165 1.404 . S
C1164 C1167 1.539 . S
C1165 C1161 1.408 . S
C1165 C1164 1.404 . S
C1165 H1177 0.930 . S
C1166 C1162 1.524 . S
C1166 H1178 0.956 . S
C1166 H1179 0.961 . S
C1166 H1180 0.961 . S
C1167 C1164 1.539 . S
C1167 H1181 0.958 . S
C1167 H1182 0.961 . S
C1167 H1183 0.960 . S
H1168 C1152 0.931 . S
H1169 C1157 0.929 . S
H1170 C1158 0.960 . S
H1171 C1158 0.962 . S
H1172 C1158 0.960 . S
H1173 C1159 0.961 . S
H1174 C1159 0.961 . S
H1175 C1159 0.961 . S
H1176 C1160 0.931 . S
H1177 C1165 0.930 . S
H1178 C1166 0.956 . S
H1179 C1166 0.961 . S
H1180 C1166 0.961 . S
H1181 C1167 0.958 . S
H1182 C1167 0.961 . S
H1183 C1167 0.960 . S
C1184 C1185 1.391 . S
C1184 C1186 1.394 . S
C1184 H1200 0.931 . S
C1185 C1184 1.391 . S
C1185 C1189 1.376 . S
C1186 C1184 1.394 . S
C1186 C1187 1.369 . S
C1186 C1190 1.531 1_545 S
C1187 C1186 1.369 . S
C1187 C1188 1.410 . S
C1187 C1195 1.503 1_545 S
C1188 C1187 1.410 . S
C1188 C1189 1.392 . S
C1188 C1191 1.511 . S
C1189 C1185 1.376 . S
C1189 C1188 1.392 . S
C1189 H1201 0.929 . S
C1190 C1186 1.531 1_565 S
C1190 H1202 0.960 . S
C1190 H1203 0.962 . S
C1190 H1204 0.949 1_565 S
C1191 C1188 1.511 . S
C1191 H1205 0.961 . S
C1191 H1206 0.961 . S
C1191 H1207 0.961 . S
C1192 C1193 1.370 . S
C1192 C1194 1.363 . S
C1192 H1208 0.931 . S
C1193 C1192 1.370 . S
C1193 C1197 1.408 . S
C1194 C1192 1.363 . S
C1194 C1195 1.370 . S
C1194 C1198 1.524 . S
C1195 C1187 1.503 1_565 S
C1195 C1194 1.370 . S
C1195 C1196 1.403 . S
C1196 C1195 1.403 . S
C1196 C1197 1.404 . S
C1196 C1199 1.539 1_565 S
C1197 C1193 1.408 . S
C1197 C1196 1.404 . S
C1197 H1209 0.930 . S
C1198 C1194 1.524 . S
C1198 H1210 0.956 . S
C1198 H1211 0.961 . S
C1198 H1212 0.961 . S
C1199 C1196 1.539 1_545 S
C1199 H1213 0.958 . S
C1199 H1214 0.961 . S
C1199 H1215 0.960 . S
H1200 C1184 0.931 . S
H1201 C1189 0.929 . S
H1202 C1190 0.960 . S
H1203 C1190 0.962 . S
H1204 C1190 0.949 1_545 S
H1205 C1191 0.961 . S
H1206 C1191 0.961 . S
H1207 C1191 0.961 . S
H1208 C1192 0.931 . S
H1209 C1197 0.930 . S
H1210 C1198 0.956 . S
H1211 C1198 0.961 . S
H1212 C1198 0.961 . S
H1213 C1199 0.958 . S
H1214 C1199 0.961 . S
H1215 C1199 0.960 . S
C1216 C1217 1.391 . S
C1216 C1218 1.394 . S
C1216 H1232 0.931 . S
C1217 C1216 1.391 . S
C1217 C1221 1.376 . S
C1218 C1216 1.394 . S
C1218 C1219 1.369 . S
C1218 C1222 1.531 . S
C1219 C1218 1.369 . S
C1219 C1220 1.410 . S
C1219 C1227 1.503 . S
C1220 C1219 1.410 . S
C1220 C1221 1.392 . S
C1220 C1223 1.511 . S
C1221 C1217 1.376 . S
C1221 C1220 1.392 . S
C1221 H1233 0.929 . S
C1222 C1218 1.531 . S
C1222 H1234 0.960 . S
C1222 H1235 0.962 . S
C1222 H1236 0.960 . S
C1223 C1220 1.511 . S
C1223 H1237 0.961 . S
C1223 H1238 0.961 . S
C1223 H1239 0.961 . S
C1224 C1225 1.370 . S
C1224 C1226 1.363 . S
C1224 H1240 0.931 . S
C1225 C1224 1.370 . S
C1225 C1229 1.408 . S
C1226 C1224 1.363 . S
C1226 C1227 1.370 . S
C1226 C1230 1.524 . S
C1227 C1219 1.503 . S
C1227 C1226 1.370 . S
C1227 C1228 1.403 . S
C1228 C1227 1.403 . S
C1228 C1229 1.404 . S
C1228 C1231 1.539 . S
C1229 C1225 1.408 . S
C1229 C1228 1.404 . S
C1229 H1241 0.930 . S
C1230 C1226 1.524 . S
C1230 H1242 0.956 . S
C1230 H1243 0.961 . S
C1230 H1244 0.961 . S
C1231 C1228 1.539 . S
C1231 H1245 0.958 . S
C1231 H1246 0.961 . S
C1231 H1247 0.960 . S
H1232 C1216 0.931 . S
H1233 C1221 0.929 . S
H1234 C1222 0.960 . S
H1235 C1222 0.962 . S
H1236 C1222 0.960 . S
H1237 C1223 0.961 . S
H1238 C1223 0.961 . S
H1239 C1223 0.961 . S
H1240 C1224 0.931 . S
H1241 C1229 0.930 . S
H1242 C1230 0.956 . S
H1243 C1230 0.961 . S
H1244 C1230 0.961 . S
H1245 C1231 0.958 . S
H1246 C1231 0.961 . S
H1247 C1231 0.960 . S
C225 C9 1.074 . S
C233 C191 1.047 . S
C257 C23 1.066 . S
C265 C135 1.053 . S
C289 C205 1.030 . S
C297 C37 1.071 . S
C321 C51 1.063 . S
C329 C219 1.055 . S
C353 C65 1.060 . S
C361 C93 1.068 . S
C385 C149 1.069 . S
C393 C79 1.049 . S
C417 C163 1.070 . S
C425 C107 1.059 . S
C449 C121 1.036 . S
C457 C177 1.072 . S
C481 C33 1.651 . S
C489 C5 1.651 . S
C513 C19 1.645 . S
C521 C47 1.644 . S
C545 C179 1.764 . S
C553 C11 1.746 . S
C577 C25 1.732 . S
C585 C165 1.746 . S
C609 C67 1.732 . S
C617 C39 1.757 . S
C641 C151 1.740 . S
C649 C53 1.743 . S
C673 C14 1.401 . S
C681 C0 1.418 . S
C705 C42 1.428 . S
C713 C28 1.408 . S
C737 C140 1.429 . S
C745 C56 1.410 . S
C769 C109 1.570 . S
C777 C81 1.575 . S
C801 C95 1.583 . S
C809 C123 1.581 . S
C833 C215 1.812 . S
C841 C75 1.816 . S
C865 C89 1.819 . S
C873 C201 1.809 . S
C897 C131 1.803 . S
C905 C103 1.815 . S
C929 C117 1.825 . S
C937 C187 1.809 . S
C961 C84 1.471 . S
C969 C70 1.468 . S
C993 C112 1.485 . S
C1001 C98 1.478 . S
C1025 C126 1.459 . S
C1033 C182 1.472 . S
C1057 C145 1.645 . S
C1065 C159 1.644 . S
C1089 C173 1.647 . S
C1097 C61 1.645 . S
C1121 C168 1.407 . S
C1129 C154 1.399 . S
C1153 C207 1.570 . S
C1161 C193 1.575 . S
C1185 C137 1.581 . S
C1193 C221 1.579 . S
C1217 C210 1.491 . S
C1225 C196 1.470 . S
