# Generated by pormake.
# Topology uky, (4)-cn, num edge types: 1
# Building blocks:
#     Node 0, Type 0, BuildingBlock: ESEHIV_clean_sbu_0, # of connection points: 4
#     Node 1, Type 0, BuildingBlock: ESEHIV_clean_sbu_0, # of connection points: 4
#     Node 2, Type 0, BuildingBlock: ESEHIV_clean_sbu_0, # of connection points: 4
#     Node 3, Type 0, BuildingBlock: ESEHIV_clean_sbu_0, # of connection points: 4
#     Node 4, Type 0, BuildingBlock: ESEHIV_clean_sbu_0, # of connection points: 4
#     Node 5, Type 0, BuildingBlock: ESEHIV_clean_sbu_0, # of connection points: 4
#     Node 6, Type 0, BuildingBlock: ESEHIV_clean_sbu_0, # of connection points: 4
#     Node 7, Type 0, BuildingBlock: ESEHIV_clean_sbu_0, # of connection points: 4
#     Node 8, Type 0, BuildingBlock: ESEHIV_clean_sbu_0, # of connection points: 4
#     Node 9, Type 0, BuildingBlock: ESEHIV_clean_sbu_0, # of connection points: 4
#     Node 10, Type 0, BuildingBlock: ESEHIV_clean_sbu_0, # of connection points: 4
#     Node 11, Type 0, BuildingBlock: ESEHIV_clean_sbu_0, # of connection points: 4
#     Node 12, Type 0, BuildingBlock: ESEHIV_clean_sbu_0, # of connection points: 4
#     Node 13, Type 0, BuildingBlock: ESEHIV_clean_sbu_0, # of connection points: 4
#     Node 14, Type 0, BuildingBlock: ESEHIV_clean_sbu_0, # of connection points: 4
#     Node 15, Type 0, BuildingBlock: ESEHIV_clean_sbu_0, # of connection points: 4
#     Node 16, Type 0, BuildingBlock: ESEHIV_clean_sbu_0, # of connection points: 4
#     Node 17, Type 0, BuildingBlock: ESEHIV_clean_sbu_0, # of connection points: 4
#     Node 18, Type 0, BuildingBlock: ESEHIV_clean_sbu_0, # of connection points: 4
#     Node 19, Type 0, BuildingBlock: ESEHIV_clean_sbu_0, # of connection points: 4
#     Node 20, Type 0, BuildingBlock: ESEHIV_clean_sbu_0, # of connection points: 4
#     Node 21, Type 0, BuildingBlock: ESEHIV_clean_sbu_0, # of connection points: 4
#     Node 22, Type 0, BuildingBlock: ESEHIV_clean_sbu_0, # of connection points: 4
#     Node 23, Type 0, BuildingBlock: ESEHIV_clean_sbu_0, # of connection points: 4
#     Node 24, Type 0, BuildingBlock: ESEHIV_clean_sbu_0, # of connection points: 4
#     Node 25, Type 0, BuildingBlock: ESEHIV_clean_sbu_0, # of connection points: 4
#     Node 26, Type 0, BuildingBlock: ESEHIV_clean_sbu_0, # of connection points: 4
#     Node 27, Type 0, BuildingBlock: ESEHIV_clean_sbu_0, # of connection points: 4
#     Node 28, Type 0, BuildingBlock: ESEHIV_clean_sbu_0, # of connection points: 4
#     Node 29, Type 0, BuildingBlock: ESEHIV_clean_sbu_0, # of connection points: 4
#     Node 30, Type 0, BuildingBlock: ESEHIV_clean_sbu_0, # of connection points: 4
#     Node 31, Type 0, BuildingBlock: ESEHIV_clean_sbu_0, # of connection points: 4
#     Node 32, Type 0, BuildingBlock: ESEHIV_clean_sbu_0, # of connection points: 4
#     Node 33, Type 0, BuildingBlock: ESEHIV_clean_sbu_0, # of connection points: 4
#     Node 34, Type 0, BuildingBlock: ESEHIV_clean_sbu_0, # of connection points: 4
#     Node 35, Type 0, BuildingBlock: ESEHIV_clean_sbu_0, # of connection points: 4
#     Node 36, Type 0, BuildingBlock: ESEHIV_clean_sbu_0, # of connection points: 4
#     Node 37, Type 0, BuildingBlock: ESEHIV_clean_sbu_0, # of connection points: 4
#     Node 38, Type 0, BuildingBlock: ESEHIV_clean_sbu_0, # of connection points: 4
#     Node 39, Type 0, BuildingBlock: ESEHIV_clean_sbu_0, # of connection points: 4
#     Node 40, Type 0, BuildingBlock: ESEHIV_clean_sbu_0, # of connection points: 4
#     Node 41, Type 0, BuildingBlock: ESEHIV_clean_sbu_0, # of connection points: 4
#     Node 42, Type 0, BuildingBlock: ESEHIV_clean_sbu_0, # of connection points: 4
#     Node 43, Type 0, BuildingBlock: ESEHIV_clean_sbu_0, # of connection points: 4
#     Node 44, Type 0, BuildingBlock: ESEHIV_clean_sbu_0, # of connection points: 4
#     Node 45, Type 0, BuildingBlock: ESEHIV_clean_sbu_0, # of connection points: 4
#     Node 46, Type 0, BuildingBlock: ESEHIV_clean_sbu_0, # of connection points: 4
#     Node 47, Type 0, BuildingBlock: ESEHIV_clean_sbu_0, # of connection points: 4
#     Edge 48, Type (0, 0), BuildingBlock: KIFKEQ_clean_linker_1, # of connection points: 2
#     Edge 49, Type (0, 0), BuildingBlock: KIFKEQ_clean_linker_1, # of connection points: 2
#     Edge 50, Type (0, 0), BuildingBlock: KIFKEQ_clean_linker_1, # of connection points: 2
#     Edge 51, Type (0, 0), BuildingBlock: KIFKEQ_clean_linker_1, # of connection points: 2
#     Edge 52, Type (0, 0), BuildingBlock: KIFKEQ_clean_linker_1, # of connection points: 2
#     Edge 53, Type (0, 0), BuildingBlock: KIFKEQ_clean_linker_1, # of connection points: 2
#     Edge 54, Type (0, 0), BuildingBlock: KIFKEQ_clean_linker_1, # of connection points: 2
#     Edge 55, Type (0, 0), BuildingBlock: KIFKEQ_clean_linker_1, # of connection points: 2
#     Edge 56, Type (0, 0), BuildingBlock: KIFKEQ_clean_linker_1, # of connection points: 2
#     Edge 57, Type (0, 0), BuildingBlock: KIFKEQ_clean_linker_1, # of connection points: 2
#     Edge 58, Type (0, 0), BuildingBlock: KIFKEQ_clean_linker_1, # of connection points: 2
#     Edge 59, Type (0, 0), BuildingBlock: KIFKEQ_clean_linker_1, # of connection points: 2
#     Edge 60, Type (0, 0), BuildingBlock: KIFKEQ_clean_linker_1, # of connection points: 2
#     Edge 61, Type (0, 0), BuildingBlock: KIFKEQ_clean_linker_1, # of connection points: 2
#     Edge 62, Type (0, 0), BuildingBlock: KIFKEQ_clean_linker_1, # of connection points: 2
#     Edge 63, Type (0, 0), BuildingBlock: KIFKEQ_clean_linker_1, # of connection points: 2
#     Edge 64, Type (0, 0), BuildingBlock: KIFKEQ_clean_linker_1, # of connection points: 2
#     Edge 65, Type (0, 0), BuildingBlock: KIFKEQ_clean_linker_1, # of connection points: 2
#     Edge 66, Type (0, 0), BuildingBlock: KIFKEQ_clean_linker_1, # of connection points: 2
#     Edge 67, Type (0, 0), BuildingBlock: KIFKEQ_clean_linker_1, # of connection points: 2
#     Edge 68, Type (0, 0), BuildingBlock: KIFKEQ_clean_linker_1, # of connection points: 2
#     Edge 69, Type (0, 0), BuildingBlock: KIFKEQ_clean_linker_1, # of connection points: 2
#     Edge 70, Type (0, 0), BuildingBlock: KIFKEQ_clean_linker_1, # of connection points: 2
#     Edge 71, Type (0, 0), BuildingBlock: KIFKEQ_clean_linker_1, # of connection points: 2
#     Edge 72, Type (0, 0), BuildingBlock: KIFKEQ_clean_linker_1, # of connection points: 2
#     Edge 73, Type (0, 0), BuildingBlock: KIFKEQ_clean_linker_1, # of connection points: 2
#     Edge 74, Type (0, 0), BuildingBlock: KIFKEQ_clean_linker_1, # of connection points: 2
#     Edge 75, Type (0, 0), BuildingBlock: KIFKEQ_clean_linker_1, # of connection points: 2
#     Edge 76, Type (0, 0), BuildingBlock: KIFKEQ_clean_linker_1, # of connection points: 2
#     Edge 77, Type (0, 0), BuildingBlock: KIFKEQ_clean_linker_1, # of connection points: 2
#     Edge 78, Type (0, 0), BuildingBlock: KIFKEQ_clean_linker_1, # of connection points: 2
#     Edge 79, Type (0, 0), BuildingBlock: KIFKEQ_clean_linker_1, # of connection points: 2
#     Edge 80, Type (0, 0), BuildingBlock: KIFKEQ_clean_linker_1, # of connection points: 2
#     Edge 81, Type (0, 0), BuildingBlock: KIFKEQ_clean_linker_1, # of connection points: 2
#     Edge 82, Type (0, 0), BuildingBlock: KIFKEQ_clean_linker_1, # of connection points: 2
#     Edge 83, Type (0, 0), BuildingBlock: KIFKEQ_clean_linker_1, # of connection points: 2
#     Edge 84, Type (0, 0), BuildingBlock: KIFKEQ_clean_linker_1, # of connection points: 2
#     Edge 85, Type (0, 0), BuildingBlock: KIFKEQ_clean_linker_1, # of connection points: 2
#     Edge 86, Type (0, 0), BuildingBlock: KIFKEQ_clean_linker_1, # of connection points: 2
#     Edge 87, Type (0, 0), BuildingBlock: KIFKEQ_clean_linker_1, # of connection points: 2
#     Edge 88, Type (0, 0), BuildingBlock: KIFKEQ_clean_linker_1, # of connection points: 2
#     Edge 89, Type (0, 0), BuildingBlock: KIFKEQ_clean_linker_1, # of connection points: 2
#     Edge 90, Type (0, 0), BuildingBlock: KIFKEQ_clean_linker_1, # of connection points: 2
#     Edge 91, Type (0, 0), BuildingBlock: KIFKEQ_clean_linker_1, # of connection points: 2
#     Edge 92, Type (0, 0), BuildingBlock: KIFKEQ_clean_linker_1, # of connection points: 2
#     Edge 93, Type (0, 0), BuildingBlock: KIFKEQ_clean_linker_1, # of connection points: 2
#     Edge 94, Type (0, 0), BuildingBlock: KIFKEQ_clean_linker_1, # of connection points: 2
#     Edge 95, Type (0, 0), BuildingBlock: KIFKEQ_clean_linker_1, # of connection points: 2
#     Edge 96, Type (0, 0), BuildingBlock: KIFKEQ_clean_linker_1, # of connection points: 2
#     Edge 97, Type (0, 0), BuildingBlock: KIFKEQ_clean_linker_1, # of connection points: 2
#     Edge 98, Type (0, 0), BuildingBlock: KIFKEQ_clean_linker_1, # of connection points: 2
#     Edge 99, Type (0, 0), BuildingBlock: KIFKEQ_clean_linker_1, # of connection points: 2
#     Edge 100, Type (0, 0), BuildingBlock: KIFKEQ_clean_linker_1, # of connection points: 2
#     Edge 101, Type (0, 0), BuildingBlock: KIFKEQ_clean_linker_1, # of connection points: 2
#     Edge 102, Type (0, 0), BuildingBlock: KIFKEQ_clean_linker_1, # of connection points: 2
#     Edge 103, Type (0, 0), BuildingBlock: KIFKEQ_clean_linker_1, # of connection points: 2
#     Edge 104, Type (0, 0), BuildingBlock: KIFKEQ_clean_linker_1, # of connection points: 2
#     Edge 105, Type (0, 0), BuildingBlock: KIFKEQ_clean_linker_1, # of connection points: 2
#     Edge 106, Type (0, 0), BuildingBlock: KIFKEQ_clean_linker_1, # of connection points: 2
#     Edge 107, Type (0, 0), BuildingBlock: KIFKEQ_clean_linker_1, # of connection points: 2
#     Edge 108, Type (0, 0), BuildingBlock: KIFKEQ_clean_linker_1, # of connection points: 2
#     Edge 109, Type (0, 0), BuildingBlock: KIFKEQ_clean_linker_1, # of connection points: 2
#     Edge 110, Type (0, 0), BuildingBlock: KIFKEQ_clean_linker_1, # of connection points: 2
#     Edge 111, Type (0, 0), BuildingBlock: KIFKEQ_clean_linker_1, # of connection points: 2
#     Edge 112, Type (0, 0), BuildingBlock: KIFKEQ_clean_linker_1, # of connection points: 2
#     Edge 113, Type (0, 0), BuildingBlock: KIFKEQ_clean_linker_1, # of connection points: 2
#     Edge 114, Type (0, 0), BuildingBlock: KIFKEQ_clean_linker_1, # of connection points: 2
#     Edge 115, Type (0, 0), BuildingBlock: KIFKEQ_clean_linker_1, # of connection points: 2
#     Edge 116, Type (0, 0), BuildingBlock: KIFKEQ_clean_linker_1, # of connection points: 2
#     Edge 117, Type (0, 0), BuildingBlock: KIFKEQ_clean_linker_1, # of connection points: 2
#     Edge 118, Type (0, 0), BuildingBlock: KIFKEQ_clean_linker_1, # of connection points: 2
#     Edge 119, Type (0, 0), BuildingBlock: KIFKEQ_clean_linker_1, # of connection points: 2
#     Edge 120, Type (0, 0), BuildingBlock: KIFKEQ_clean_linker_1, # of connection points: 2
#     Edge 121, Type (0, 0), BuildingBlock: KIFKEQ_clean_linker_1, # of connection points: 2
#     Edge 122, Type (0, 0), BuildingBlock: KIFKEQ_clean_linker_1, # of connection points: 2
#     Edge 123, Type (0, 0), BuildingBlock: KIFKEQ_clean_linker_1, # of connection points: 2
#     Edge 124, Type (0, 0), BuildingBlock: KIFKEQ_clean_linker_1, # of connection points: 2
#     Edge 125, Type (0, 0), BuildingBlock: KIFKEQ_clean_linker_1, # of connection points: 2
#     Edge 126, Type (0, 0), BuildingBlock: KIFKEQ_clean_linker_1, # of connection points: 2
#     Edge 127, Type (0, 0), BuildingBlock: KIFKEQ_clean_linker_1, # of connection points: 2
#     Edge 128, Type (0, 0), BuildingBlock: KIFKEQ_clean_linker_1, # of connection points: 2
#     Edge 129, Type (0, 0), BuildingBlock: KIFKEQ_clean_linker_1, # of connection points: 2
#     Edge 130, Type (0, 0), BuildingBlock: KIFKEQ_clean_linker_1, # of connection points: 2
#     Edge 131, Type (0, 0), BuildingBlock: KIFKEQ_clean_linker_1, # of connection points: 2
#     Edge 132, Type (0, 0), BuildingBlock: KIFKEQ_clean_linker_1, # of connection points: 2
#     Edge 133, Type (0, 0), BuildingBlock: KIFKEQ_clean_linker_1, # of connection points: 2
#     Edge 134, Type (0, 0), BuildingBlock: KIFKEQ_clean_linker_1, # of connection points: 2
#     Edge 135, Type (0, 0), BuildingBlock: KIFKEQ_clean_linker_1, # of connection points: 2
#     Edge 136, Type (0, 0), BuildingBlock: KIFKEQ_clean_linker_1, # of connection points: 2
#     Edge 137, Type (0, 0), BuildingBlock: KIFKEQ_clean_linker_1, # of connection points: 2
#     Edge 138, Type (0, 0), BuildingBlock: KIFKEQ_clean_linker_1, # of connection points: 2
#     Edge 139, Type (0, 0), BuildingBlock: KIFKEQ_clean_linker_1, # of connection points: 2
#     Edge 140, Type (0, 0), BuildingBlock: KIFKEQ_clean_linker_1, # of connection points: 2
#     Edge 141, Type (0, 0), BuildingBlock: KIFKEQ_clean_linker_1, # of connection points: 2
#     Edge 142, Type (0, 0), BuildingBlock: KIFKEQ_clean_linker_1, # of connection points: 2
#     Edge 143, Type (0, 0), BuildingBlock: KIFKEQ_clean_linker_1, # of connection points: 2
# Relax obj value: 0.110
# Max RMSD: 0.294
# Mean RMSD: 0.272
data_MOF--net-uky--node1-ESEHIV_clean_sbu_0--edge1-KIFKEQ_clean_linker_1
_symmetry_space_group_name_H-M    P1
_symmetry_Int_Tables_number       1
_symmetry_cell_setting            triclinic
loop_
_symmetry_equiv_pos_as_xyz
'x, y, z'
_cell_length_a     63.477878
_cell_length_b     74.592314
_cell_length_c     74.646976
_cell_angle_alpha  89.930606
_cell_angle_beta   89.94915
_cell_angle_gamma 89.983249
loop_
_atom_site_label
_atom_site_type_symbol
_atom_site_fract_x
_atom_site_fract_y
_atom_site_fract_z
_atom_type_partial_charge
Cu0 Cu 0.21873 0.24395 0.3937 0.0
N1 N 0.23425 0.25411 0.41224 0.0
N2 N 0.24647 0.25995 0.43963 0.0
C3 C 0.23045 0.25304 0.42996 0.0
C4 C 0.2608 0.26564 0.42754 0.0
C5 C 0.25317 0.26206 0.41064 0.0
O6 O 0.19867 0.22723 0.40443 0.0
C7 C 0.23732 0.23165 0.36101 0.0
O8 O 0.21958 0.23678 0.35354 0.0
H9 H 0.21675 0.24652 0.43566 0.0
H10 H 0.26118 0.26446 0.39807 0.0
N11 N 0.2046 0.2622 0.3814 0.0
N12 N 0.19796 0.28499 0.36267 0.0
C13 C 0.21285 0.27407 0.36969 0.0
C14 C 0.18388 0.26585 0.382 0.0
C15 C 0.17972 0.27985 0.37047 0.0
C16 C 0.18453 0.21865 0.39592 0.0
O17 O 0.18346 0.22024 0.37841 0.0
H18 H 0.22935 0.27431 0.36604 0.0
H19 H 0.17255 0.25871 0.39017 0.0
O20 O 0.23921 0.2325 0.37796 0.0
H21 H 0.27585 0.27167 0.43072 0.0
H22 H 0.16442 0.28581 0.36812 0.0
Cu23 Cu 0.0206 0.98053 0.65775 0.0
N24 N 0.03753 0.99927 0.64927 0.0
N25 N 0.04906 0.02195 0.63225 0.0
C26 C 0.03689 1.0071 0.63297 0.0
C27 C 0.05789 0.02335 0.64862 0.0
C28 C 0.05081 0.00932 0.65905 0.0
O29 O 0.99506 0.97937 0.6433 0.0
C30 C 0.00969 0.99857 0.69038 0.0
O31 O 1.00588 0.01245 0.68003 0.0
H32 H 0.02682 1.00258 0.6222 0.0
H33 H 0.0544 1.00702 0.67303 0.0
N34 N 0.03433 0.95856 0.65492 0.0
N35 N 0.04964 0.93236 0.6614 0.0
C36 C 0.04501 0.94902 0.66732 0.0
C37 C 0.03232 0.9476 0.64071 0.0
C38 C 0.04168 0.93141 0.64469 0.0
C39 C 0.98464 0.99304 0.63818 0.0
O40 O 0.98985 0.00895 0.64426 0.0
H41 H 0.04821 0.9538 0.68073 0.0
H42 H 0.02374 0.95089 0.62863 0.0
O43 O 0.01525 0.98379 0.6833 0.0
H44 H 0.0684 0.03395 0.65287 0.0
H45 H 0.04216 0.91969 0.63616 0.0
Cu46 Cu 0.29292 0.77104 0.89551 0.0
N47 N 0.27744 0.76236 0.91484 0.0
N48 N 0.26541 0.75799 0.9426 0.0
C49 C 0.28147 0.7642 0.93246 0.0
C50 C 0.25084 0.75196 0.93093 0.0
C51 C 0.25834 0.75464 0.91382 0.0
O52 O 0.31313 0.78851 0.90462 0.0
C53 C 0.27459 0.78276 0.8623 0.0
O54 O 0.29282 0.7787 0.85502 0.0
H55 H 0.29542 0.77068 0.93771 0.0
H56 H 0.25018 0.7517 0.90145 0.0
N57 N 0.30676 0.75176 0.88464 0.0
N58 N 0.31381 0.72854 0.86662 0.0
C59 C 0.29948 0.74104 0.8715 0.0
C60 C 0.32621 0.74569 0.88841 0.0
C61 C 0.33064 0.73144 0.8773 0.0
C62 C 0.32969 0.79343 0.89632 0.0
O63 O 0.33322 0.78733 0.88009 0.0
H64 H 0.28412 0.74264 0.86543 0.0
H65 H 0.33646 0.75129 0.89853 0.0
O66 O 0.27232 0.78137 0.87918 0.0
H67 H 0.23574 0.74624 0.93453 0.0
H68 H 0.34507 0.72372 0.87724 0.0
Cu69 Cu 0.48691 0.0319 0.15889 0.0
N70 N 0.47024 0.01261 0.15155 0.0
N71 N 0.45842 0.98951 0.13538 0.0
C72 C 0.46894 1.00525 0.13509 0.0
C73 C 0.45261 0.98705 0.1526 0.0
C74 C 0.45988 1.00132 0.16252 0.0
O75 O 0.51145 0.03339 0.14319 0.0
C76 C 0.50935 0.01993 0.19044 0.0
O77 O 0.52389 0.01388 0.1795 0.0
H78 H 0.47683 0.01066 0.12341 0.0
H79 H 0.45868 1.00292 0.17688 0.0
N80 N 0.47174 0.05327 0.15673 0.0
N81 N 0.45634 0.07946 0.1633 0.0
C82 C 0.46587 0.06462 0.16988 0.0
C83 C 0.46565 0.0611 0.14135 0.0
C84 C 0.45616 0.07724 0.14535 0.0
C85 C 0.52111 0.01958 0.13739 0.0
O86 O 0.51572 1.00368 0.14343 0.0
H87 H 0.46909 0.06227 0.18392 0.0
H88 H 0.46822 0.05556 0.12815 0.0
O89 O 0.49352 0.0283 0.18413 0.0
H90 H 0.44429 0.97547 0.15776 0.0
H91 H 0.44959 0.08659 0.13575 0.0
Cu92 Cu 0.21858 0.77096 0.1222 0.0
N93 N 0.23722 0.76529 0.10375 0.0
N94 N 0.25089 0.76178 0.07643 0.0
C95 C 0.23349 0.76587 0.08601 0.0
C96 C 0.26608 0.75843 0.08861 0.0
C97 C 0.25755 0.7605 0.10546 0.0
O98 O 0.19649 0.78645 0.11256 0.0
C99 C 0.25061 0.79065 0.14084 0.0
O100 O 0.25496 0.79791 0.12523 0.0
H101 H 0.21848 0.76964 0.08024 0.0
H102 H 0.26566 0.75886 0.1181 0.0
N103 N 0.20613 0.74985 0.13035 0.0
N104 N 0.1995 0.72573 0.14724 0.0
C105 C 0.21283 0.73948 0.14399 0.0
C106 C 0.18804 0.74241 0.12468 0.0
C107 C 0.18388 0.72753 0.1351 0.0
C108 C 0.19456 0.80333 0.11454 0.0
O109 O 0.20813 0.81201 0.12457 0.0
H110 H 0.22685 0.74233 0.15173 0.0
H111 H 0.17839 0.74762 0.11393 0.0
O112 O 0.23467 0.78039 0.14229 0.0
H113 H 0.28215 0.75466 0.08553 0.0
H114 H 0.17039 0.71876 0.13384 0.0
Cu115 Cu 0.48669 0.98629 0.35613 0.0
N116 N 0.47261 1.00633 0.36506 0.0
N117 N 0.46363 0.02948 0.38243 0.0
C118 C 0.47423 0.01379 0.38145 0.0
C119 C 0.45497 0.03188 0.36611 0.0
C120 C 0.4605 0.01758 0.35545 0.0
O121 O 0.51141 0.98277 0.37127 0.0
C122 C 0.50518 0.98304 0.32085 0.0
O123 O 0.51325 0.96775 0.32629 0.0
H124 H 0.48372 0.00824 0.39216 0.0
H125 H 0.45654 0.01575 0.34148 0.0
N126 N 0.4682 0.96669 0.35666 0.0
N127 N 0.45021 0.94179 0.34976 0.0
C128 C 0.46615 0.95291 0.34505 0.0
C129 C 0.45311 0.96418 0.36906 0.0
C130 C 0.44207 0.94888 0.3649 0.0
C131 C 0.51333 0.96998 0.38249 0.0
O132 O 0.49899 0.95731 0.38298 0.0
H133 H 0.4758 0.9513 0.33322 0.0
H134 H 0.45034 0.97295 0.38035 0.0
O135 O 0.49411 0.99232 0.3316 0.0
H136 H 0.44552 0.04329 0.36212 0.0
H137 H 0.42913 0.94335 0.37257 0.0
Cu138 Cu 0.29171 0.24679 0.6198 0.0
N139 N 0.27398 0.25324 0.60096 0.0
N140 N 0.26096 0.25726 0.57349 0.0
C141 C 0.27803 0.25262 0.58325 0.0
C142 C 0.2457 0.26102 0.58549 0.0
C143 C 0.25382 0.25864 0.60243 0.0
O144 O 0.3121 0.22919 0.61105 0.0
C145 C 0.25893 0.22697 0.63658 0.0
O146 O 0.2561 0.22017 0.62053 0.0
H147 H 0.29295 0.24838 0.57765 0.0
H148 H 0.24553 0.2604 0.61496 0.0
N149 N 0.30497 0.2675 0.62811 0.0
N150 N 0.31195 0.29154 0.645 0.0
C151 C 0.29996 0.2767 0.64304 0.0
C152 C 0.32059 0.27682 0.62026 0.0
C153 C 0.325 0.29161 0.63068 0.0
C154 C 0.3309 0.2279 0.61688 0.0
O155 O 0.33692 0.2382 0.63019 0.0
H156 H 0.28773 0.27253 0.65225 0.0
H157 H 0.32804 0.2732 0.60774 0.0
O158 O 0.27424 0.23767 0.63917 0.0
H159 H 0.22983 0.26521 0.58223 0.0
H160 H 0.33656 0.30185 0.62768 0.0
Cu161 Cu 0.02081 0.03682 0.85701 0.0
N162 N 0.04129 0.02279 0.86856 0.0
N163 N 0.05593 1.00253 0.88694 0.0
C164 C 0.03782 0.00962 0.8806 0.0
C165 C 0.07145 0.01168 0.87858 0.0
C166 C 0.06238 0.02423 0.86738 0.0
O167 O 0.99566 0.03654 0.87188 0.0
C168 C 0.02901 0.02239 0.82248 0.0
O169 O 0.04845 0.02149 0.8284 0.0
H170 H 0.02231 1.00531 0.8847 0.0
H171 H 0.07058 0.03388 0.85909 0.0
N172 N 0.0294 0.0608 0.85596 0.0
N173 N 0.04225 0.08721 0.84691 0.0
C174 C 0.04207 0.06928 0.84412 0.0
C175 C 0.02157 0.07377 0.86657 0.0
C176 C 0.02939 0.09003 0.86101 0.0
C177 C 0.98421 0.02286 0.87487 0.0
O178 O 0.98822 1.00777 0.86648 0.0
H179 H 0.05025 0.0626 0.83329 0.0
H180 H 0.01043 0.07156 0.87732 0.0
O181 O 0.01464 0.0283 0.83284 0.0
H182 H 0.08816 0.00976 0.88071 0.0
H183 H 0.02575 0.10299 0.86675 0.0
Cu184 Cu 0.39024 0.23257 0.25262 0.0
N185 N 0.38208 0.25171 0.23804 0.0
N186 N 0.36764 0.27785 0.22994 0.0
C187 C 0.37363 0.26727 0.24372 0.0
C188 C 0.37253 0.26854 0.21499 0.0
C189 C 0.38147 0.25243 0.22004 0.0
O190 O 0.37163 0.23339 0.27332 0.0
C191 C 0.4275 0.24934 0.26532 0.0
O192 O 0.41477 0.26274 0.26898 0.0
H193 H 0.37116 0.27044 0.25772 0.0
H194 H 0.38668 0.2418 0.21124 0.0
N195 N 0.3861 0.21095 0.24045 0.0
N196 N 0.39183 0.18474 0.22669 0.0
C197 C 0.40072 0.19955 0.23393 0.0
C198 C 0.3674 0.20319 0.23713 0.0
C199 C 0.37086 0.18704 0.2287 0.0
C200 C 0.36694 0.22009 0.28323 0.0
O201 O 0.37662 0.20471 0.28081 0.0
H202 H 0.41752 0.20188 0.23486 0.0
H203 H 0.3523 0.20884 0.2408 0.0
O204 O 0.41988 0.23498 0.25879 0.0
H205 H 0.36968 0.27299 0.2014 0.0
H206 H 0.35884 0.17777 0.22427 0.0
Cu207 Cu 0.04376 0.14503 0.49392 0.0
N208 N 0.02862 0.16284 0.50577 0.0
N209 N 0.01591 0.18977 0.51304 0.0
C210 C 0.03194 0.18068 0.50535 0.0
C211 C 1.00207 0.17721 0.51854 0.0
C212 C 0.00999 0.1606 0.51409 0.0
O213 O 0.06376 0.15675 0.47783 0.0
C214 C 0.02442 0.11327 0.48051 0.0
O215 O 0.04191 0.1054 0.48566 0.0
H216 H 0.04517 0.18691 0.49862 0.0
H217 H 1.00228 0.14781 0.51602 0.0
N218 N 0.05826 0.13098 0.51064 0.0
N219 N 0.0648 0.11084 0.53215 0.0
C220 C 0.05007 0.12123 0.52419 0.0
C221 C 0.07885 0.12675 0.51013 0.0
C222 C 0.08293 0.11432 0.52335 0.0
C223 C 0.07324 0.14923 0.46481 0.0
O224 O 0.0692 0.13236 0.46117 0.0
H225 H 0.03347 0.12108 0.52753 0.0
H226 H 0.08997 0.1319 0.50041 0.0
O227 O 0.02291 0.13025 0.48168 0.0
H228 H 0.98706 0.1799 0.5249 0.0
H229 H 0.09801 0.10813 0.52612 0.0
Cu230 Cu 0.12244 0.78278 0.75253 0.0
N231 N 0.12875 0.76404 0.73689 0.0
N232 N 0.14166 0.73787 0.72721 0.0
C233 C 0.14188 0.75029 0.74037 0.0
C234 C 0.12783 0.74413 0.71495 0.0
C235 C 0.1199 0.76028 0.72097 0.0
O236 O 0.14225 0.78093 0.7723 0.0
C237 C 0.08587 0.76554 0.76561 0.0
O238 O 0.09868 0.75181 0.7674 0.0
H239 H 0.15077 0.74908 0.75268 0.0
H240 H 0.10813 0.7685 0.71445 0.0
N241 N 0.12618 0.80497 0.74124 0.0
N242 N 0.11956 0.83105 0.72758 0.0
C243 C 0.11203 0.81462 0.73179 0.0
C244 C 0.14322 0.81559 0.74284 0.0
C245 C 0.13914 0.83171 0.73452 0.0
C246 C 0.1449 0.79277 0.78433 0.0
O247 O 0.13246 0.80685 0.78468 0.0
H248 H 0.09625 0.81002 0.72876 0.0
H249 H 0.15738 0.81205 0.75007 0.0
O250 O 0.09324 0.78042 0.76008 0.0
H251 H 0.12364 0.73748 0.70258 0.0
H252 H 0.14963 0.84313 0.7338 0.0
Cu253 Cu 0.46601 0.86919 0.99606 0.0
N254 N 0.4828 0.85125 1.00602 0.0
N255 N 0.49742 0.82455 0.0116 0.0
C256 C 0.48207 0.83349 1.00276 0.0
C257 C 0.50811 0.83721 0.02077 0.0
C258 C 0.49904 0.85364 0.01731 0.0
O259 O 0.44587 0.85821 0.9797 0.0
C260 C 0.50198 0.88432 0.97849 0.0
O261 O 0.50739 0.86768 0.97502 0.0
H262 H 0.47085 0.82736 0.99375 0.0
H263 H 0.50408 0.86648 0.02247 0.0
N264 N 0.45104 0.88064 0.01425 0.0
N265 N 0.44358 0.89958 0.03654 0.0
C266 C 0.45896 0.8916 0.0269 0.0
C267 C 0.42998 0.88164 0.01599 0.0
C268 C 0.42532 0.89333 0.02973 0.0
C269 C 0.44299 0.86192 0.96324 0.0
O270 O 0.45462 0.8743 0.95556 0.0
H271 H 0.47562 0.89433 0.02842 0.0
H272 H 0.41881 0.87481 1.00745 0.0
O273 O 0.48424 0.88746 0.9858 0.0
H274 H 0.52145 0.83478 0.02946 0.0
H275 H 0.40972 0.89712 0.0342 0.0
Cu276 Cu 0.39273 0.78472 0.26172 0.0
N277 N 0.38558 0.76331 0.27344 0.0
N278 N 0.37034 0.73728 0.28097 0.0
C279 C 0.36969 0.75179 0.27006 0.0
C280 C 0.38717 0.73995 0.29169 0.0
C281 C 0.39648 0.75595 0.28702 0.0
O282 O 0.37341 0.78926 0.24184 0.0
C283 C 0.43032 0.7687 0.24869 0.0
O284 O 0.4183 0.7545 0.24688 0.0
H285 H 0.35789 0.75399 0.25986 0.0
H286 H 0.41052 0.76171 0.29286 0.0
N287 N 0.38987 0.80343 0.27819 0.0
N288 N 0.39555 0.82784 0.29496 0.0
C289 C 0.40309 0.81716 0.28176 0.0
C290 C 0.37347 0.80554 0.28938 0.0
C291 C 0.3769 0.82052 0.29971 0.0
C292 C 0.36913 0.77769 0.22985 0.0
O293 O 0.37897 0.76221 0.23001 0.0
H294 H 0.41802 0.81908 0.27501 0.0
H295 H 0.35995 0.79673 0.28997 0.0
O296 O 0.42215 0.7833 0.25421 0.0
H297 H 0.39277 0.73074 0.30184 0.0
H298 H 0.36627 0.82574 0.30977 0.0
Cu299 Cu 0.47031 0.14841 0.52345 0.0
N300 N 0.48665 0.16602 0.51253 0.0
N301 N 0.49996 0.19263 0.50497 0.0
C302 C 0.48318 0.18382 0.51177 0.0
C303 C 0.51443 0.17993 0.50125 0.0
C304 C 0.50613 0.16351 0.50586 0.0
O305 O 0.45119 0.16006 0.54032 0.0
C306 C 0.48796 0.11535 0.53566 0.0
O307 O 0.46999 0.10826 0.5306 0.0
H308 H 0.46917 0.19026 0.51698 0.0
H309 H 0.51403 0.15068 0.50511 0.0
N310 N 0.45553 0.13591 0.50576 0.0
N311 N 0.44894 0.11683 0.48339 0.0
C312 C 0.46394 0.12534 0.49298 0.0
C313 C 0.43452 0.13426 0.50399 0.0
C314 C 0.43041 0.12242 0.49027 0.0
C315 C 0.43664 0.1521 0.54899 0.0
O316 O 0.43443 0.13467 0.5473 0.0
H317 H 0.48072 0.12334 0.49127 0.0
H318 H 0.42299 0.14091 0.51233 0.0
O319 O 0.49029 0.13228 0.53494 0.0
H320 H 0.53004 0.18242 0.49595 0.0
H321 H 0.415 0.11818 0.48574 0.0
Cu322 Cu 0.12144 0.23601 0.75994 0.0
N323 N 0.12931 0.25541 0.77421 0.0
N324 N 0.14405 0.28133 0.78251 0.0
C325 C 0.14425 0.26773 0.77056 0.0
C326 C 0.12842 0.27735 0.79413 0.0
C327 C 0.11938 0.26135 0.78898 0.0
O328 O 0.1393 0.23621 0.73875 0.0
C329 C 0.08511 0.25205 0.74504 0.0
O330 O 0.09879 0.26341 0.73827 0.0
H331 H 0.15437 0.26716 0.7589 0.0
H332 H 0.10603 0.2548 0.79518 0.0
N333 N 0.12532 0.2144 0.77226 0.0
N334 N 0.1186 0.18825 0.78579 0.0
C335 C 0.11049 0.20397 0.77996 0.0
C336 C 0.14339 0.20503 0.77341 0.0
C337 C 0.13928 0.18887 0.78168 0.0
C338 C 0.14209 0.2226 0.72876 0.0
O339 O 0.13132 0.20789 0.73194 0.0
H340 H 0.09397 0.20751 0.78061 0.0
H341 H 0.15836 0.20942 0.76806 0.0
O342 O 0.09179 0.23881 0.75419 0.0
H343 H 0.12369 0.28552 0.80541 0.0
H344 H 0.15057 0.17831 0.78433 0.0
Cu345 Cu 0.04984 0.86945 0.01595 0.0
N346 N 0.03805 0.84982 1.00429 0.0
N347 N 0.02566 0.82233 0.99882 0.0
C348 C 0.03679 0.83277 0.01018 0.0
C349 C 0.01981 0.83325 0.98528 0.0
C350 C 0.02748 0.85018 0.98869 0.0
O351 O 0.06864 0.86036 0.03464 0.0
C352 C 0.02721 0.89985 0.02926 0.0
O353 O 0.04548 0.90811 0.02872 0.0
H354 H 0.04333 0.82828 0.0228 0.0
H355 H 0.02522 0.86203 0.98055 0.0
N356 N 0.0645 0.88316 0.99899 0.0
N357 N 0.0716 0.9034 0.97763 0.0
C358 C 0.05677 0.89648 0.98867 0.0
C359 C 0.08481 0.88142 0.99417 0.0
C360 C 0.08927 0.89392 0.98109 0.0
C361 C 0.0842 0.86896 0.04113 0.0
O362 O 0.08759 0.88554 0.03591 0.0
H363 H 0.04062 0.90108 0.9894 0.0
H364 H 0.09559 0.87165 0.99973 0.0
O365 O 0.0263 0.88329 0.02529 0.0
H366 H 0.01068 0.82929 0.9737 0.0
H367 H 0.10428 0.89564 0.97443 0.0
Cu368 Cu 0.24498 0.41068 0.23211 0.0
N369 N 0.22831 0.40207 0.25096 0.0
N370 N 0.21562 0.38454 0.27284 0.0
C371 C 0.22894 0.38574 0.25872 0.0
C372 C 0.2061 0.40071 0.27377 0.0
C373 C 0.21394 0.41145 0.26029 0.0
O374 O 0.26998 0.39563 0.22976 0.0
C375 C 0.2565 0.44271 0.25099 0.0
O376 O 0.25963 0.43205 0.26475 0.0
H377 H 0.23911 0.37503 0.25419 0.0
H378 H 0.20987 0.4253 0.25774 0.0
N379 N 0.22978 0.40897 0.21076 0.0
N380 N 0.21427 0.41615 0.18479 0.0
C381 C 0.22462 0.42232 0.19938 0.0
C382 C 0.22242 0.39387 0.20321 0.0
C383 C 0.21287 0.39823 0.18721 0.0
C384 C 0.28049 0.38992 0.24313 0.0
O385 O 0.27573 0.3957 0.25925 0.0
H386 H 0.22876 0.43621 0.20161 0.0
H387 H 0.22403 0.3806 0.20892 0.0
O388 O 0.25121 0.43598 0.23598 0.0
H389 H 0.1948 0.40476 0.28385 0.0
H390 H 0.20529 0.38893 0.17816 0.0
Cu391 Cu 0.73554 0.10636 0.78385 0.0
N392 N 0.72003 0.11532 0.76451 0.0
N393 N 0.70981 0.13209 0.74116 0.0
C394 C 0.72553 0.12831 0.75282 0.0
C395 C 0.69386 0.12103 0.74583 0.0
C396 C 0.70019 0.11078 0.76019 0.0
O397 O 0.75831 0.12309 0.78863 0.0
C398 C 0.73215 0.06958 0.77683 0.0
O399 O 0.71229 0.07297 0.78045 0.0
H400 H 0.74069 0.13492 0.75299 0.0
H401 H 0.69075 0.10104 0.76732 0.0
N402 N 0.71774 0.10602 0.80387 0.0
N403 N 0.70009 0.09834 0.82871 0.0
C404 C 0.71558 0.09376 0.81709 0.0
C405 C 0.70337 0.11878 0.80738 0.0
C406 C 0.69249 0.11412 0.82261 0.0
C407 C 0.77444 0.12469 0.77863 0.0
O408 O 0.77679 0.11372 0.76501 0.0
H409 H 0.7248 0.08158 0.81792 0.0
H410 H 0.70091 0.13063 0.79928 0.0
O411 O 0.74547 0.08231 0.77789 0.0
H412 H 0.67841 0.12073 0.73973 0.0
H413 H 0.68001 0.12185 0.82878 0.0
Cu414 Cu 0.14043 0.50435 0.03289 0.0
N415 N 0.12837 0.48853 0.01658 0.0
N416 N 0.11269 0.47906 0.99152 0.0
C417 C 0.12185 0.49299 1.00002 0.0
C418 C 0.11351 0.46528 1.00326 0.0
C419 C 0.12325 0.47117 0.01872 0.0
O420 O 0.12294 0.52572 0.0315 0.0
C421 C 0.18386 0.5163 0.03333 0.0
O422 O 0.17989 0.52348 0.04904 0.0
H423 H 0.1232 0.5064 0.99457 0.0
H424 H 0.12609 0.46345 0.03075 0.0
N425 N 0.13903 0.4945 0.05594 0.0
N426 N 0.14694 0.48191 0.08234 0.0
C427 C 0.15442 0.48745 0.06626 0.0
C428 C 0.1213 0.49317 0.06571 0.0
C429 C 0.1261 0.48549 0.08196 0.0
C430 C 0.11893 0.53653 0.04422 0.0
O431 O 0.12899 0.53488 0.05951 0.0
H432 H 0.17075 0.48662 0.06216 0.0
H433 H 0.10591 0.49753 0.06126 0.0
O434 O 0.16922 0.50826 0.02492 0.0
H435 H 0.10747 0.45193 1.0009 0.0
H436 H 0.115 0.48252 0.09256 0.0
Cu437 Cu 0.77363 0.90828 0.28247 0.0
N438 N 0.79287 0.89675 0.26752 0.0
N439 N 0.80596 0.8786 0.24642 0.0
C440 C 0.78844 0.88431 0.255 0.0
C441 C 0.82199 0.88784 0.25391 0.0
C442 C 0.81386 0.899 0.26693 0.0
O443 O 0.7478 0.89425 0.28096 0.0
C444 C 0.75935 0.94491 0.28112 0.0
O445 O 0.74866 0.94113 0.29573 0.0
H446 H 0.77262 0.87976 0.25212 0.0
H447 H 0.82262 0.90807 0.27541 0.0
N448 N 0.78433 0.90795 0.30585 0.0
N449 N 0.79771 0.91595 0.33242 0.0
C450 C 0.79082 0.92169 0.31623 0.0
C451 C 0.78745 0.89308 0.31569 0.0
C452 C 0.79559 0.89794 0.33205 0.0
C453 C 0.73592 0.89033 0.29414 0.0
O454 O 0.73949 0.89767 0.30983 0.0
H455 H 0.79037 0.93558 0.31204 0.0
H456 H 0.78406 0.87961 0.31119 0.0
O457 O 0.77031 0.9327 0.27369 0.0
H458 H 0.83847 0.88648 0.25046 0.0
H459 H 0.8 0.88885 0.34272 0.0
Cu460 Cu 0.87427 0.00915 0.03385 0.0
N461 N 0.88301 0.02228 0.01383 0.0
N462 N 0.89791 0.02977 0.98773 0.0
C463 C 0.89325 0.01629 0.99917 0.0
C464 C 0.89036 0.04477 0.99551 0.0
C465 C 0.88112 0.0401 0.01156 0.0
O466 O 0.89413 0.98965 0.03771 0.0
C467 C 0.83748 0.9975 0.0155 0.0
O468 O 0.84982 0.99763 1.00137 0.0
H469 H 0.89761 1.00242 0.99711 0.0
H470 H 0.87375 0.04908 0.02105 0.0
N471 N 0.87605 0.02414 0.05383 0.0
N472 N 0.86928 0.03893 0.07927 0.0
C473 C 0.86164 0.02759 0.06668 0.0
C474 C 0.89323 0.03361 0.05835 0.0
C475 C 0.88913 0.04274 0.07396 0.0
C476 C 0.89547 0.97553 0.02823 0.0
O477 O 0.88174 0.97284 0.01536 0.0
H478 H 0.84606 0.0217 0.06694 0.0
H479 H 0.90775 0.03383 0.05076 0.0
O480 O 0.84517 1.00137 0.03077 0.0
H481 H 0.89137 0.05816 0.98994 0.0
H482 H 0.89991 0.0517 0.08072 0.0
Cu483 Cu 0.26692 0.60777 0.73332 0.0
N484 N 0.2869 0.61845 0.74815 0.0
N485 N 0.30081 0.63616 0.76921 0.0
C486 C 0.28318 0.63145 0.76025 0.0
C487 C 0.31622 0.62566 0.76241 0.0
C488 C 0.30758 0.61477 0.74941 0.0
O489 O 0.24154 0.62228 0.73574 0.0
C490 C 0.25184 0.57171 0.73269 0.0
O491 O 0.24167 0.57687 0.71825 0.0
H492 H 0.26771 0.63707 0.76264 0.0
H493 H 0.31575 0.60484 0.74146 0.0
N494 N 0.27642 0.60855 0.70957 0.0
N495 N 0.28971 0.6008 0.68296 0.0
C496 C 0.28664 0.59578 0.70017 0.0
C497 C 0.27334 0.62215 0.69798 0.0
C498 C 0.28133 0.61733 0.68152 0.0
C499 C 0.22744 0.62427 0.72378 0.0
O500 O 0.22824 0.61449 0.70917 0.0
H501 H 0.29123 0.58293 0.70568 0.0
H502 H 0.2655 0.6346 0.70123 0.0
O503 O 0.26303 0.58305 0.74113 0.0
H504 H 0.3326 0.62593 0.7664 0.0
H505 H 0.28112 0.62537 0.66943 0.0
Cu506 Cu 0.13895 0.51118 0.48636 0.0
N507 N 0.13205 0.52656 0.50518 0.0
N508 N 0.11762 0.53674 0.53058 0.0
C509 C 0.11872 0.52303 0.51878 0.0
C510 C 0.13083 0.54937 0.52405 0.0
C511 C 0.13968 0.54305 0.50839 0.0
O512 O 0.11937 0.49118 0.48741 0.0
C513 C 0.17581 0.49831 0.50355 0.0
O514 O 0.16322 0.49624 0.51738 0.0
H515 H 0.11035 0.51046 0.52015 0.0
H516 H 0.15096 0.54994 0.49997 0.0
N517 N 0.1356 0.52311 0.46452 0.0
N518 N 0.14254 0.53642 0.43828 0.0
C519 C 0.15074 0.52926 0.45342 0.0
C520 C 0.11725 0.52653 0.45622 0.0
C521 C 0.12146 0.53471 0.44005 0.0
C522 C 0.11575 0.48054 0.47446 0.0
O523 O 0.12692 0.48195 0.4597 0.0
H524 H 0.16741 0.52815 0.45623 0.0
H525 H 0.1019 0.52312 0.46151 0.0
O526 O 0.16819 0.5039 0.4888 0.0
H527 H 0.13376 0.56234 0.53004 0.0
H528 H 0.10985 0.5392 0.43042 0.0
Cu529 Cu 0.37616 0.5024 0.98456 0.0
N530 N 0.38465 0.48885 1.00442 0.0
N531 N 0.39743 0.48088 0.03117 0.0
C532 C 0.39503 0.49433 0.01919 0.0
C533 C 0.38836 0.46641 0.02359 0.0
C534 C 0.38061 0.47134 1.00709 0.0
O535 O 0.396 0.522 0.98109 0.0
C536 C 0.33299 0.49844 0.99002 0.0
O537 O 0.3382 0.48157 0.98759 0.0
H538 H 0.40034 0.50795 0.02129 0.0
H539 H 0.37248 0.46276 0.99769 0.0
N540 N 0.37785 0.48778 0.96423 0.0
N541 N 0.3709 0.47231 0.93921 0.0
C542 C 0.36337 0.48403 0.95151 0.0
C543 C 0.39507 0.47833 0.9597 0.0
C544 C 0.39087 0.46881 0.94436 0.0
C545 C 0.3972 0.53593 0.99087 0.0
O546 O 0.38356 0.53813 1.00394 0.0
H547 H 0.34757 0.48946 0.95149 0.0
H548 H 0.40966 0.47832 0.96717 0.0
O549 O 0.34729 0.51037 0.9888 0.0
H550 H 0.3876 0.45316 0.02949 0.0
H551 H 0.40181 0.46006 0.93749 0.0
Cu552 Cu 0.71571 0.74496 0.89181 0.0
N553 N 0.72886 0.75588 0.91125 0.0
N554 N 0.74112 0.76157 0.93872 0.0
C555 C 0.72858 0.75097 0.92863 0.0
C556 C 0.74947 0.77361 0.92722 0.0
C557 C 0.74189 0.77006 0.91032 0.0
O558 O 0.69316 0.72938 0.90023 0.0
C559 C 0.73593 0.7305 0.86104 0.0
O560 O 0.71806 0.73432 0.85303 0.0
H561 H 0.71982 0.73958 0.93367 0.0
H562 H 0.74578 0.77717 0.89812 0.0
N563 N 0.70309 0.76268 0.87776 0.0
N564 N 0.69738 0.78378 0.85704 0.0
C565 C 0.71199 0.77376 0.86563 0.0
C566 C 0.68228 0.76596 0.87697 0.0
C567 C 0.6787 0.77894 0.86421 0.0
C568 C 0.6952 0.71419 0.90779 0.0
O569 O 0.71412 0.70737 0.90989 0.0
H570 H 0.72869 0.77395 0.86269 0.0
H571 H 0.6705 0.75911 0.88491 0.0
O572 O 0.73748 0.7329 0.87787 0.0
H573 H 0.76023 0.78429 0.93075 0.0
H574 H 0.6635 0.78434 0.86047 0.0
Cu575 Cu 0.51744 0.48483 0.16495 0.0
N576 N 0.53804 0.5004 0.15641 0.0
N577 N 0.55271 0.52144 0.13915 0.0
C578 C 0.53801 0.50842 0.14024 0.0
C579 C 0.56244 0.52154 0.15521 0.0
C580 C 0.55336 0.5085 0.16584 0.0
O581 O 0.4939 0.48746 0.14848 0.0
C582 C 0.50584 0.48297 0.20239 0.0
O583 O 0.50574 0.46548 0.20051 0.0
H584 H 0.52651 0.50559 0.12992 0.0
H585 H 0.55689 0.50576 0.17975 0.0
N586 N 0.52752 0.46114 0.16436 0.0
N587 N 0.54226 0.43487 0.17162 0.0
C588 C 0.53983 0.45229 0.1762 0.0
C589 C 0.52266 0.449 0.15169 0.0
C590 C 0.53151 0.43279 0.15621 0.0
C591 C 0.4786 0.47658 0.14684 0.0
O592 O 0.47715 0.46279 0.15773 0.0
H593 H 0.5462 0.45828 0.18824 0.0
H594 H 0.51303 0.45169 0.14005 0.0
O595 O 0.50978 0.49293 0.18894 0.0
H596 H 0.57476 0.53075 0.15917 0.0
H597 H 0.5301 0.42038 0.1488 0.0
Cu598 Cu 0.79347 0.27221 0.3942 0.0
N599 N 0.77601 0.26286 0.41196 0.0
N600 N 0.76272 0.2565 0.43888 0.0
C601 C 0.7795 0.26282 0.42974 0.0
C602 C 0.74818 0.25234 0.4264 0.0
C603 C 0.7565 0.25617 0.40977 0.0
O604 O 0.81343 0.28848 0.4055 0.0
C605 C 0.75951 0.29249 0.37993 0.0
O606 O 0.75595 0.29675 0.39673 0.0
H607 H 0.79371 0.26798 0.43588 0.0
H608 H 0.74866 0.2547 0.39699 0.0
N609 N 0.80783 0.25333 0.38337 0.0
N610 N 0.81486 0.23023 0.36526 0.0
C611 C 0.80049 0.24264 0.37026 0.0
C612 C 0.82745 0.24754 0.38687 0.0
C613 C 0.83185 0.2333 0.37571 0.0
C614 C 0.82575 0.29908 0.39721 0.0
O615 O 0.8248 0.30003 0.37965 0.0
H616 H 0.78502 0.24416 0.36437 0.0
H617 H 0.83778 0.25328 0.39685 0.0
O618 O 0.77576 0.28326 0.37606 0.0
H619 H 0.73262 0.24706 0.42913 0.0
H620 H 0.84636 0.22568 0.37551 0.0
Cu621 Cu 0.98939 0.53032 0.66009 0.0
N622 N 0.97195 0.51206 0.65168 0.0
N623 N 0.96034 0.48945 0.63474 0.0
C624 C 0.97305 0.50395 0.63558 0.0
C625 C 0.95082 0.48849 0.65089 0.0
C626 C 0.95799 0.50247 0.6613 0.0
O627 O 0.01398 0.53019 0.64449 0.0
C628 C 1.00458 0.53515 0.69607 0.0
O629 O 0.00936 0.55155 0.69109 0.0
H630 H 0.9838 0.508 0.62507 0.0
H631 H 0.954 0.50505 0.67515 0.0
N632 N 0.97523 0.55236 0.65847 0.0
N633 N 0.95963 0.57847 0.66517 0.0
C634 C 0.96774 0.56298 0.67167 0.0
C635 C 0.97137 0.56127 0.64316 0.0
C636 C 0.96185 0.57736 0.64722 0.0
C637 C 0.02471 0.5439 0.64002 0.0
O638 O 0.02044 0.55947 0.64737 0.0
H639 H 0.96867 0.55963 0.68575 0.0
H640 H 0.97555 0.5565 0.62995 0.0
O641 O 0.9966 0.52437 0.68475 0.0
H642 H 0.93979 0.4782 0.65499 0.0
H643 H 0.95692 0.58743 0.63766 0.0
Cu644 Cu 0.7198 0.27096 0.6184 0.0
N645 N 0.73563 0.26109 0.59992 0.0
N646 N 0.74785 0.25491 0.5726 0.0
C647 C 0.73159 0.26151 0.58222 0.0
C648 C 0.76259 0.2501 0.5847 0.0
C649 C 0.75495 0.25388 0.60155 0.0
O650 O 0.69979 0.28776 0.6079 0.0
C651 C 0.73777 0.28335 0.65131 0.0
O652 O 0.71981 0.27859 0.65865 0.0
H653 H 0.7175 0.26734 0.57647 0.0
H654 H 0.76318 0.25209 0.61412 0.0
N655 N 0.70555 0.25248 0.63016 0.0
N656 N 0.69853 0.22923 0.64821 0.0
C657 C 0.71328 0.24103 0.6425 0.0
C658 C 0.68534 0.24772 0.6278 0.0
C659 C 0.68095 0.23342 0.63888 0.0
C660 C 0.68613 0.2966 0.61671 0.0
O661 O 0.68563 0.29516 0.63425 0.0
H662 H 0.72932 0.24161 0.64735 0.0
H663 H 0.67459 0.25418 0.61859 0.0
O664 O 0.73999 0.28219 0.63442 0.0
H665 H 0.7779 0.24454 0.58154 0.0
H666 H 0.66598 0.22656 0.63975 0.0
Cu667 Cu 0.99439 0.47734 0.857 0.0
N668 N 0.97575 0.49407 0.86685 0.0
N669 N 0.96245 0.51549 0.88455 0.0
C670 C 0.97806 0.50339 0.88219 0.0
C671 C 0.94969 0.51351 0.87022 0.0
C672 C 0.95795 0.50032 0.85934 0.0
O673 O 0.01965 0.47617 0.87179 0.0
C674 C 1.0044 0.49934 0.82692 0.0
O675 O 1.00578 0.51218 0.83888 0.0
H676 H 0.99101 0.50145 0.89138 0.0
H677 H 0.95178 0.49595 0.84657 0.0
N678 N 0.98249 0.45444 0.85795 0.0
N679 N 0.96824 0.42818 0.8502 0.0
C680 C 0.97175 0.44538 0.84525 0.0
C681 C 0.98566 0.44263 0.87132 0.0
C682 C 0.97696 0.42643 0.86657 0.0
C683 C 0.03039 0.48954 0.87714 0.0
O684 O 0.0258 0.50564 0.87118 0.0
H685 H 0.96748 0.45099 0.83238 0.0
H686 H 0.99437 0.44548 0.88343 0.0
O687 O 1.00012 0.48345 0.83203 0.0
H688 H 0.93583 0.52147 0.86743 0.0
H689 H 0.97726 0.41422 0.87441 0.0
Cu690 Cu 0.79551 0.74607 0.1174 0.0
N691 N 0.78109 0.75656 0.09836 0.0
N692 N 0.76809 0.76182 0.07104 0.0
C693 C 0.78141 0.75175 0.08097 0.0
C694 C 0.75915 0.77341 0.08268 0.0
C695 C 0.76721 0.77012 0.09949 0.0
O696 O 0.81544 0.72874 0.10754 0.0
C697 C 0.77663 0.73351 0.14986 0.0
O698 O 0.79503 0.737 0.1571 0.0
H699 H 0.79084 0.74081 0.07582 0.0
H700 H 0.76311 0.77701 0.11176 0.0
N701 N 0.80998 0.76416 0.12961 0.0
N702 N 0.8175 0.78642 0.14865 0.0
C703 C 0.80253 0.77506 0.14255 0.0
C704 C 0.83021 0.76894 0.12724 0.0
C705 C 0.83492 0.7826 0.13897 0.0
C706 C 0.83069 0.72198 0.11633 0.0
O707 O 0.83264 0.72578 0.13343 0.0
H708 H 0.78658 0.77436 0.14762 0.0
H709 H 0.84081 0.76286 0.11765 0.0
O710 O 0.77428 0.73547 0.13304 0.0
H711 H 0.74772 0.78362 0.07928 0.0
H712 H 0.84998 0.78929 0.14013 0.0
Cu713 Cu 0.52313 0.53785 0.36129 0.0
N714 N 0.54119 0.51995 0.3695 0.0
N715 N 0.55365 0.49728 0.38595 0.0
C716 C 0.54004 0.51118 0.38526 0.0
C717 C 0.56379 0.49738 0.37005 0.0
C718 C 0.55608 0.51141 0.35994 0.0
O719 O 0.50066 0.53992 0.37886 0.0
C720 C 0.50707 0.5402 0.32502 0.0
O721 O 0.50593 0.55761 0.32736 0.0
H722 H 0.5287 0.51435 0.39563 0.0
H723 H 0.56043 0.51475 0.34633 0.0
N724 N 0.53745 0.55982 0.36075 0.0
N725 N 0.55327 0.58538 0.35245 0.0
C726 C 0.54587 0.56924 0.34702 0.0
C727 C 0.54001 0.57019 0.3753 0.0
C728 C 0.54971 0.58588 0.37027 0.0
C729 C 0.4849 0.52946 0.37992 0.0
O730 O 0.48229 0.51699 0.36771 0.0
H731 H 0.546 0.56461 0.33329 0.0
H732 H 0.53479 0.56666 0.38864 0.0
O733 O 0.51315 0.53018 0.33782 0.0
H734 H 0.57566 0.48781 0.36591 0.0
H735 H 0.55373 0.59685 0.37911 0.0
Cu736 Cu 0.89105 0.73043 0.75504 0.0
N737 N 0.88362 0.74997 0.74072 0.0
N738 N 0.86973 0.77643 0.73281 0.0
C739 C 0.87281 0.7645 0.74622 0.0
C740 C 0.87904 0.769 0.71831 0.0
C741 C 0.88757 0.75269 0.72323 0.0
O742 O 0.87193 0.73109 0.77541 0.0
C743 C 0.92815 0.74715 0.76789 0.0
O744 O 0.91542 0.76068 0.77102 0.0
H745 H 0.86757 0.76631 0.75989 0.0
H746 H 0.89596 0.74342 0.71468 0.0
N747 N 0.88705 0.70908 0.74237 0.0
N748 N 0.89297 0.68299 0.72842 0.0
C749 C 0.90176 0.6975 0.73631 0.0
C750 C 0.86839 0.70172 0.73811 0.0
C751 C 0.87196 0.68566 0.72954 0.0
C752 C 0.86695 0.71779 0.78524 0.0
O753 O 0.87658 0.70237 0.78296 0.0
H754 H 0.91852 0.69952 0.73802 0.0
H755 H 0.85324 0.7076 0.7412 0.0
O756 O 0.92055 0.73263 0.76171 0.0
H757 H 0.8794 0.77475 0.705 0.0
H758 H 0.85999 0.67672 0.7244 0.0
Cu759 Cu 0.54931 0.64462 1.00111 0.0
N760 N 0.53872 0.66482 0.01279 0.0
N761 N 0.52751 0.6927 0.01828 0.0
C762 C 0.53772 0.68182 1.00669 0.0
C763 C 0.52199 0.68212 0.03219 0.0
C764 C 0.52891 0.66496 0.02876 0.0
O765 O 0.57059 0.65182 0.98373 0.0
C766 C 0.52648 0.61471 0.9879 0.0
O767 O 0.54475 0.6065 0.98905 0.0
H768 H 0.54378 0.68599 0.99379 0.0
H769 H 0.52663 0.65331 0.03718 0.0
N770 N 0.56302 0.62991 0.01766 0.0
N771 N 0.5694 0.60957 0.03895 0.0
C772 C 0.55468 0.61997 0.03099 0.0
C773 C 0.58363 0.62573 0.01728 0.0
C774 C 0.58761 0.61316 0.03035 0.0
C775 C 0.56779 0.65969 0.9688 0.0
O776 O 0.54853 0.66303 0.96329 0.0
H777 H 0.53807 0.61979 0.03428 0.0
H778 H 0.59487 0.63111 1.00779 0.0
O779 O 0.52552 0.63142 0.99128 0.0
H780 H 0.51355 0.68644 0.04403 0.0
H781 H 0.60269 0.60703 0.03325 0.0
Cu782 Cu 0.62298 0.28539 0.25654 0.0
N783 N 0.63318 0.26733 0.24153 0.0
N784 N 0.64878 0.24194 0.23268 0.0
C785 C 0.64115 0.25139 0.24669 0.0
C786 C 0.64546 0.25237 0.21816 0.0
C787 C 0.63579 0.268 0.22366 0.0
O788 O 0.63987 0.28463 0.27824 0.0
C789 C 0.58555 0.26703 0.267 0.0
O790 O 0.5984 0.25376 0.2708 0.0
H791 H 0.64204 0.24711 0.26053 0.0
H792 H 0.63141 0.27925 0.21529 0.0
N793 N 0.6265 0.30781 0.24564 0.0
N794 N 0.61936 0.33418 0.23274 0.0
C795 C 0.61182 0.31784 0.23726 0.0
C796 C 0.64392 0.31807 0.24623 0.0
C797 C 0.63954 0.33438 0.23838 0.0
C798 C 0.64161 0.29768 0.28911 0.0
O799 O 0.63008 0.3121 0.28666 0.0
H800 H 0.59572 0.31354 0.23517 0.0
H801 H 0.6586 0.31413 0.25246 0.0
O802 O 0.59312 0.28173 0.2612 0.0
H803 H 0.64982 0.24899 0.20455 0.0
H804 H 0.65028 0.34557 0.23703 0.0
Cu805 Cu 0.96833 0.36864 0.49543 0.0
N806 N 0.98369 0.35047 0.50653 0.0
N807 N 0.99639 0.32337 0.51319 0.0
C808 C 0.98022 0.33266 0.50596 0.0
C809 C 0.01046 0.33579 0.51857 0.0
C810 C 1.00254 0.3525 0.5145 0.0
O811 O 0.94895 0.35757 0.47845 0.0
C812 C 0.98703 0.40138 0.48357 0.0
O813 O 0.96919 0.40871 0.48866 0.0
H814 H 0.96674 0.3266 0.49947 0.0
H815 H 0.01036 0.36523 0.51646 0.0
N816 N 0.95324 0.3815 0.51268 0.0
N817 N 0.94596 0.40077 0.53475 0.0
C818 C 0.96114 0.39131 0.52627 0.0
C819 C 0.93238 0.38469 0.51272 0.0
C820 C 0.92785 0.39661 0.52627 0.0
C821 C 0.93752 0.36612 0.46733 0.0
O822 O 0.93912 0.38366 0.4664 0.0
H823 H 0.97779 0.39223 0.52926 0.0
H824 H 0.92134 0.3792 0.50316 0.0
O825 O 0.98901 0.3844 0.48421 0.0
H826 H 0.0256 0.33294 0.52462 0.0
H827 H 0.91247 0.40201 0.52948 0.0
Cu828 Cu 0.88847 0.27971 0.76137 0.0
N829 N 0.879 0.26185 0.77693 0.0
N830 N 0.86352 0.23642 0.78599 0.0
C831 C 0.86711 0.24771 0.77213 0.0
C832 C 0.87357 0.24392 0.80009 0.0
C833 C 0.88313 0.25957 0.79444 0.0
O834 O 0.86946 0.27894 0.74102 0.0
C835 C 0.93073 0.28522 0.74885 0.0
O836 O 0.92495 0.30193 0.74625 0.0
H837 H 0.86125 0.24583 0.75867 0.0
H838 H 0.89269 0.2685 0.80243 0.0
N839 N 0.88647 0.30232 0.77217 0.0
N840 N 0.89449 0.32839 0.78524 0.0
C841 C 0.9011 0.31158 0.78146 0.0
C842 C 0.87002 0.31357 0.77036 0.0
C843 C 0.87496 0.32967 0.77829 0.0
C844 C 0.86736 0.29107 0.72916 0.0
O845 O 0.88005 0.30498 0.72927 0.0
H846 H 0.91659 0.30641 0.78466 0.0
H847 H 0.85564 0.31043 0.76326 0.0
O848 O 0.91735 0.27394 0.75472 0.0
H849 H 0.87443 0.23833 0.81345 0.0
H850 H 0.86507 0.34149 0.77876 0.0
Cu851 Cu 0.96788 0.64406 0.01841 0.0
N852 N 0.9818 0.66345 0.00796 0.0
N853 N 0.99487 0.6907 1.00235 0.0
C854 C 0.98098 0.68102 0.01213 0.0
C855 C 1.0046 0.67876 0.99158 0.0
C856 C 0.99651 0.66201 0.99507 0.0
O857 O 0.94622 0.65239 0.03498 0.0
C858 C 0.98795 0.61244 0.03164 0.0
O859 O 0.97008 0.60449 0.02769 0.0
H860 H 0.97093 0.68651 0.02248 0.0
H861 H 1.00127 0.64953 0.9889 0.0
N862 N 0.95467 0.63111 1.00017 0.0
N863 N 0.94845 0.61208 0.97763 0.0
C864 C 0.96292 0.61852 0.98926 0.0
C865 C 0.9344 0.63275 0.99524 0.0
C866 C 0.93051 0.62107 0.98136 0.0
C867 C 0.94981 0.6613 0.04918 0.0
O868 O 0.96938 0.66473 0.05373 0.0
H869 H 0.97921 0.61426 0.9898 0.0
H870 H 0.92321 0.64178 1.0014 0.0
O871 O 0.98949 0.62934 0.02968 0.0
H872 H 0.01673 0.68189 0.98188 0.0
H873 H 0.91551 0.6191 0.97477 0.0
Cu874 Cu 0.62519 0.73503 0.26061 0.0
N875 N 0.63181 0.7539 0.27601 0.0
N876 N 0.64541 0.77967 0.28605 0.0
C877 C 0.64479 0.76774 0.27244 0.0
C878 C 0.63229 0.77298 0.29866 0.0
C879 C 0.62394 0.75709 0.29242 0.0
O880 O 0.64491 0.73624 0.2407 0.0
C881 C 0.58834 0.75245 0.24821 0.0
O882 O 0.60095 0.76633 0.24664 0.0
H883 H 0.65317 0.76923 0.25989 0.0
H884 H 0.61276 0.74855 0.29927 0.0
N885 N 0.62867 0.71318 0.27256 0.0
N886 N 0.62206 0.6869 0.28599 0.0
C887 C 0.61367 0.70174 0.27833 0.0
C888 C 0.64713 0.70541 0.27674 0.0
C889 C 0.64314 0.68924 0.285 0.0
C890 C 0.64862 0.72341 0.22993 0.0
O891 O 0.63749 0.7086 0.23115 0.0
H892 H 0.59697 0.70415 0.27666 0.0
H893 H 0.66244 0.71113 0.2739 0.0
O894 O 0.59594 0.73749 0.25328 0.0
H895 H 0.62902 0.77905 0.31153 0.0
H896 H 0.65489 0.68006 0.29011 0.0
Cu897 Cu 0.5458 0.37054 0.51968 0.0
N898 N 0.53253 0.35276 0.50637 0.0
N899 N 0.52065 0.32578 0.49847 0.0
C900 C 0.53559 0.33493 0.50748 0.0
C901 C 0.50777 0.33828 0.49138 0.0
C902 C 0.5152 0.35494 0.49623 0.0
O903 O 0.56453 0.35882 0.53674 0.0
C904 C 0.52414 0.40122 0.5332 0.0
O905 O 0.54209 0.40963 0.53072 0.0
H906 H 0.54762 0.32877 0.51572 0.0
H907 H 0.50785 0.36773 0.49342 0.0
N908 N 0.56125 0.3854 0.50441 0.0
N909 N 0.56876 0.40612 0.48375 0.0
C910 C 0.55376 0.39533 0.49074 0.0
C911 C 0.58168 0.38992 0.50602 0.0
C912 C 0.58635 0.40274 0.49332 0.0
C913 C 0.57456 0.36659 0.54928 0.0
O914 O 0.57177 0.38383 0.55192 0.0
H915 H 0.53743 0.39526 0.48657 0.0
H916 H 0.59227 0.38463 0.51606 0.0
O917 O 0.52323 0.38438 0.53059 0.0
H918 H 0.49363 0.33553 0.48376 0.0
H919 H 0.60145 0.40921 0.49138 0.0
Cu920 Cu 0.74721 0.90841 0.72651 0.0
N921 N 0.72826 0.89722 0.74203 0.0
N922 N 0.71461 0.87863 0.76255 0.0
C923 C 0.73053 0.88155 0.75083 0.0
C924 C 0.70181 0.89301 0.76082 0.0
C925 C 0.71027 0.9044 0.74821 0.0
O926 O 0.77271 0.89399 0.72548 0.0
C927 C 0.76043 0.94561 0.72815 0.0
O928 O 0.76886 0.94335 0.71224 0.0
H929 H 0.74377 0.87264 0.74887 0.0
H930 H 0.70416 0.91736 0.74426 0.0
N931 N 0.73546 0.90881 0.70356 0.0
N932 N 0.72122 0.91712 0.67739 0.0
C933 C 0.72814 0.92262 0.69365 0.0
C934 C 0.73293 0.89415 0.69334 0.0
C935 C 0.72418 0.89919 0.67726 0.0
C936 C 0.78314 0.88942 0.7393 0.0
O937 O 0.7779 0.89618 0.75493 0.0
H938 H 0.72815 0.93639 0.69819 0.0
H939 H 0.73717 0.8807 0.69738 0.0
O940 O 0.75153 0.93244 0.73593 0.0
H941 H 0.68776 0.89557 0.76864 0.0
H942 H 0.72005 0.89023 0.66644 0.0
Cu943 Cu 0.2388 0.60974 0.2876 0.0
N944 N 0.22071 0.61938 0.27025 0.0
N945 N 0.20869 0.63583 0.24734 0.0
C946 C 0.22577 0.63078 0.25689 0.0
C947 C 0.19224 0.62735 0.25506 0.0
C948 C 0.19968 0.61735 0.26925 0.0
O949 O 0.26265 0.62598 0.28978 0.0
C950 C 0.23342 0.57403 0.27645 0.0
O951 O 0.2136 0.57903 0.27606 0.0
H952 H 0.24162 0.63539 0.25427 0.0
H953 H 0.19034 0.60944 0.27845 0.0
N954 N 0.22486 0.60971 0.30966 0.0
N955 N 0.21022 0.60154 0.3357 0.0
C956 C 0.21938 0.59585 0.32034 0.0
C957 C 0.21888 0.62456 0.31849 0.0
C958 C 0.20987 0.6196 0.33451 0.0
C959 C 0.27673 0.62797 0.2778 0.0
O960 O 0.2765 0.61752 0.26364 0.0
H961 H 0.22243 0.58196 0.31708 0.0
H962 H 0.22106 0.63809 0.3136 0.0
O963 O 0.24735 0.58537 0.28119 0.0
H964 H 0.17592 0.62871 0.25109 0.0
H965 H 0.20339 0.62861 0.34444 0.0
Cu966 Cu 0.63879 1.00484 0.52877 0.0
N967 N 0.62853 0.98855 0.51195 0.0
N968 N 0.61169 0.9776 0.48798 0.0
C969 C 0.61771 0.99251 0.49694 0.0
C970 C 0.61913 0.96378 0.49785 0.0
C971 C 0.62948 0.97057 0.5126 0.0
O972 O 0.61962 0.02516 0.52833 0.0
C973 C 0.68044 0.01926 0.53217 0.0
O974 O 0.6744 0.02419 0.54826 0.0
H975 H 0.61433 1.00611 0.49278 0.0
H976 H 0.63685 0.96295 0.52322 0.0
N977 N 0.63792 0.99419 0.55149 0.0
N978 N 0.64678 0.98153 0.57766 0.0
C979 C 0.65381 0.98794 0.56176 0.0
C980 C 0.62029 0.99146 0.56109 0.0
C981 C 0.62566 0.98371 0.57719 0.0
C982 C 0.61654 0.03582 0.54138 0.0
O983 O 0.62816 0.03431 0.55586 0.0
H984 H 0.67018 0.98832 0.55772 0.0
H985 H 0.6046 0.99494 0.55665 0.0
O986 O 0.66741 0.01132 0.52194 0.0
H987 H 0.61683 0.9497 0.49497 0.0
H988 H 0.61474 0.97977 0.58761 0.0
Cu989 Cu 0.275 0.40959 0.78368 0.0
N990 N 0.29148 0.4017 0.76451 0.0
N991 N 0.30282 0.38554 0.74119 0.0
C992 C 0.28771 0.38752 0.75382 0.0
C993 C 0.31659 0.39902 0.74415 0.0
C994 C 0.30957 0.40893 0.75855 0.0
O995 O 0.25243 0.3922 0.78678 0.0
C996 C 0.26201 0.43979 0.76339 0.0
O997 O 0.26341 0.42849 0.74995 0.0
H998 H 0.27401 0.37901 0.75516 0.0
H999 H 0.31711 0.42057 0.76431 0.0
N1000 N 0.29151 0.40881 0.80437 0.0
N1001 N 0.3067 0.41493 0.8307 0.0
C1002 C 0.29415 0.42114 0.81741 0.0
C1003 C 0.30283 0.39447 0.80951 0.0
C1004 C 0.31219 0.39818 0.82569 0.0
C1005 C 0.23495 0.392 0.77847 0.0
O1006 O 0.23021 0.40522 0.76756 0.0
H1007 H 0.28667 0.43418 0.81734 0.0
H1008 H 0.30401 0.38211 0.80202 0.0
O1009 O 0.26551 0.43413 0.77923 0.0
H1010 H 0.3309 0.40143 0.73664 0.0
H1011 H 0.32242 0.38925 0.83312 0.0
Cu1012 Cu 0.37105 0.51068 0.53626 0.0
N1013 N 0.37825 0.5241 0.51599 0.0
N1014 N 0.39269 0.5319 0.48978 0.0
C1015 C 0.39369 0.52073 0.50403 0.0
C1016 C 0.37609 0.54275 0.49297 0.0
C1017 C 0.36727 0.53793 0.50916 0.0
O1018 O 0.39108 0.49116 0.53924 0.0
C1019 C 0.33379 0.49839 0.51908 0.0
O1020 O 0.34573 0.49812 0.5047 0.0
H1021 H 0.40481 0.50981 0.50534 0.0
H1022 H 0.35335 0.54367 0.51525 0.0
N1023 N 0.37338 0.5247 0.55686 0.0
N1024 N 0.36529 0.53906 0.58219 0.0
C1025 C 0.358 0.53279 0.56638 0.0
C1026 C 0.39088 0.52606 0.56693 0.0
C1027 C 0.38593 0.53485 0.58259 0.0
C1028 C 0.39367 0.47795 0.5287 0.0
O1029 O 0.38137 0.47626 0.51467 0.0
H1030 H 0.34163 0.53313 0.56233 0.0
H1031 H 0.40598 0.52028 0.56346 0.0
O1032 O 0.34193 0.50268 0.53407 0.0
H1033 H 0.37057 0.55325 0.48413 0.0
H1034 H 0.39651 0.53754 0.59363 0.0
Cu1035 Cu 0.77056 0.10898 0.23031 0.0
N1036 N 0.78859 0.11906 0.24747 0.0
N1037 N 0.80126 0.13632 0.2695 0.0
C1038 C 0.78406 0.13155 0.25995 0.0
C1039 C 0.81722 0.12654 0.26264 0.0
C1040 C 0.8094 0.11603 0.24903 0.0
O1041 O 0.74601 0.12448 0.22791 0.0
C1042 C 0.77794 0.07278 0.23843 0.0
O1043 O 0.79733 0.07763 0.23467 0.0
H1044 H 0.76854 0.13716 0.26192 0.0
H1045 H 0.81841 0.10715 0.24054 0.0
N1046 N 0.78474 0.10939 0.20832 0.0
N1047 N 0.80129 0.10196 0.18289 0.0
C1048 C 0.78969 0.09598 0.19692 0.0
C1049 C 0.79324 0.12426 0.20117 0.0
C1050 C 0.80343 0.11976 0.18556 0.0
C1051 C 0.7329 0.12754 0.24046 0.0
O1052 O 0.73458 0.11865 0.2556 0.0
H1053 H 0.78545 0.0821 0.1991 0.0
H1054 H 0.79232 0.13746 0.20712 0.0
O1055 O 0.76332 0.08443 0.23724 0.0
H1056 H 0.83354 0.12731 0.26675 0.0
H1057 H 0.81182 0.12893 0.17686 0.0
Cu1058 Cu 0.64197 1.00693 0.98353 0.0
N1059 N 0.63468 0.01837 1.005 0.0
N1060 N 0.61856 0.02572 0.03068 0.0
C1061 C 0.61754 0.01597 0.01542 0.0
C1062 C 0.63693 0.03479 0.02959 0.0
C1063 C 0.64677 0.03026 0.01378 0.0
O1064 O 0.62336 0.98655 0.97905 0.0
C1065 C 0.67973 0.99378 0.99906 0.0
O1066 O 0.6676 0.99068 0.01299 0.0
H1067 H 0.6047 1.0071 0.01194 0.0
H1068 H 0.66201 0.03488 0.00921 0.0
N1069 N 0.63863 0.02342 0.9649 0.0
N1070 N 0.64418 0.04049 0.94066 0.0
C1071 C 0.65188 0.0273 0.95128 0.0
C1072 C 0.62203 0.0344 0.96279 0.0
C1073 C 0.62538 0.04492 0.9479 0.0
C1074 C 0.61826 0.97528 0.99113 0.0
O1075 O 0.62671 0.9766 1.00712 0.0
H1076 H 0.66698 0.02082 0.94941 0.0
H1077 H 0.60846 0.03475 0.97157 0.0
O1078 O 0.67155 1.00007 0.98479 0.0
H1079 H 0.64329 0.04355 0.03978 0.0
H1080 H 0.61465 0.05494 0.94272 0.0
Cu1081 Cu 0.87091 1.00617 0.48222 0.0
N1082 N 0.8798 0.99192 0.50132 0.0
N1083 N 0.89501 0.98421 0.52726 0.0
C1084 C 0.89044 0.99771 0.51579 0.0
C1085 C 0.8868 0.96935 0.51963 0.0
C1086 C 0.87745 0.97415 0.50362 0.0
O1087 O 0.88921 0.02707 0.48242 0.0
C1088 C 0.83467 0.02201 0.49808 0.0
O1089 O 0.84836 0.03013 0.50847 0.0
H1090 H 0.89459 0.01162 0.51786 0.0
H1091 H 0.86967 0.96532 0.49425 0.0
N1092 N 0.87424 0.99372 0.46068 0.0
N1093 N 0.86732 0.98 0.43468 0.0
C1094 C 0.8591 0.98807 0.44935 0.0
C1095 C 0.8926 0.98903 0.45303 0.0
C1096 C 0.88841 0.9806 0.43701 0.0
C1097 C 0.8942 0.03653 0.46886 0.0
O1098 O 0.88501 0.0335 0.4534 0.0
H1099 H 0.84245 0.99013 0.45168 0.0
H1100 H 0.90797 0.99168 0.45869 0.0
O1101 O 0.84131 0.01181 0.48566 0.0
H1102 H 0.88781 0.9559 0.52499 0.0
H1103 H 0.90002 0.97514 0.4279 0.0
H1104 H 0.22725 0.24726 0.55397 0.0
H1105 H 0.29042 0.26797 0.54967 0.0
H1106 H 0.22386 0.24765 0.52149 0.0
H1107 H 0.28688 0.26936 0.51715 0.0
H1108 H 0.21586 0.26576 0.46404 0.0
H1109 H 0.21946 0.26573 0.49657 0.0
H1110 H 0.2856 0.25277 0.49099 0.0
H1111 H 0.28197 0.25381 0.45854 0.0
C1112 C 0.24032 0.25212 0.54601 0.0
C1113 C 0.25908 0.25758 0.55428 0.0
C1114 C 0.23838 0.25247 0.52736 0.0
C1115 C 0.25504 0.25864 0.51652 0.0
C1116 C 0.27382 0.26419 0.52492 0.0
C1117 C 0.27587 0.2635 0.54357 0.0
C1118 C 0.23112 0.26295 0.46987 0.0
C1119 C 0.24863 0.25987 0.45882 0.0
C1120 C 0.23323 0.2628 0.48852 0.0
C1121 C 0.25285 0.25919 0.49659 0.0
C1122 C 0.27033 0.25599 0.4854 0.0
C1123 C 0.26828 0.25649 0.46677 0.0
H1124 H 0.02329 0.97456 0.71567 0.0
H1125 H 0.99623 0.02741 0.70998 0.0
H1126 H 0.02612 0.9791 0.74796 0.0
H1127 H 0.99918 0.03195 0.74226 0.0
H1128 H 0.99261 0.02832 0.80345 0.0
H1129 H 0.9859 0.02139 0.77192 0.0
H1130 H 0.04808 0.99834 0.76743 0.0
H1131 H 0.05476 1.00517 0.7988 0.0
C1132 C 0.01774 0.98708 0.7213 0.0
C1133 C 0.00962 1.00066 0.71018 0.0
C1134 C 0.01949 0.98971 0.73981 0.0
C1135 C 0.013 1.00593 0.74769 0.0
C1136 C 1.00418 0.01925 0.73665 0.0
C1137 C 1.00259 0.01668 0.71812 0.0
C1138 C 1.00478 0.02165 0.79576 0.0
C1139 C 0.02425 0.01735 0.80366 0.0
C1140 C 1.00097 0.01776 0.77767 0.0
C1141 C 0.01645 0.00931 0.76714 0.0
C1142 C 0.03572 1.00467 0.77519 0.0
C1143 C 0.0396 0.00869 0.79317 0.0
H1144 H 0.2302 0.76495 0.9616 0.0
H1145 H 0.29629 0.75285 0.96694 0.0
H1146 H 0.22674 0.76643 0.99404 0.0
H1147 H 0.29285 0.7534 0.9995 0.0
H1148 H 0.28473 0.77196 0.05699 0.0
H1149 H 0.28831 0.77158 0.02449 0.0
H1150 H 0.22554 0.74943 0.02005 0.0
H1151 H 0.22181 0.75072 0.05252 0.0
C1152 C 0.24393 0.76237 0.96979 0.0
C1153 C 0.2635 0.75874 0.9618 0.0
C1154 C 0.24197 0.76312 0.98842 0.0
C1155 C 0.25947 0.75994 0.99956 0.0
C1156 C 0.27907 0.75626 0.99146 0.0
C1157 C 0.28108 0.75584 0.9728 0.0
C1158 C 0.27176 0.767 0.049 0.0
C1159 C 0.25299 0.76139 0.05723 0.0
C1160 C 0.27381 0.76668 0.03035 0.0
C1161 C 0.25725 0.76043 0.01948 0.0
C1162 C 0.23851 0.75469 0.02784 0.0
C1163 C 0.23635 0.75533 0.04647 0.0
H1164 H 0.52245 0.96469 0.29254 0.0
H1165 H 0.49405 0.01541 0.3066 0.0
H1166 H 0.52463 0.97433 0.26132 0.0
H1167 H 0.49678 0.02521 0.27562 0.0
H1168 H 0.48006 0.02771 0.21616 0.0
H1169 H 0.48041 0.0192 0.24759 0.0
H1170 H 0.54142 0.99448 0.24049 0.0
H1171 H 0.5408 1.0026 0.2088 0.0
C1172 C 0.5169 0.97797 0.28902 0.0
C1173 C 0.50793 0.98921 0.30207 0.0
C1174 C 0.51825 0.98355 0.27112 0.0
C1175 C 0.51075 1.00053 0.26586 0.0
C1176 C 0.50233 0.01192 0.27906 0.0
C1177 C 0.50088 1.00632 0.29689 0.0
C1178 C 0.49364 0.02057 0.22129 0.0
C1179 C 0.51039 0.01583 0.2099 0.0
C1180 C 0.4939 0.01575 0.23939 0.0
C1181 C 0.51096 1.00613 0.24665 0.0
C1182 C 0.52789 1.00165 0.23532 0.0
C1183 C 0.5276 1.00643 0.21717 0.0
H1184 H 0.55452 0.2913 0.25909 0.0
H1185 H 0.56403 0.23716 0.27808 0.0
H1186 H 0.51653 0.28675 0.2599 0.0
H1187 H 0.52598 0.23274 0.27923 0.0
H1188 H 0.45853 0.22506 0.25731 0.0
H1189 H 0.49655 0.22938 0.25887 0.0
H1190 H 0.48696 0.28268 0.27994 0.0
H1191 H 0.44895 0.2785 0.27805 0.0
C1192 C 0.54852 0.27847 0.26361 0.0
C1193 C 0.56238 0.26459 0.26847 0.0
C1194 C 0.52669 0.27589 0.26417 0.0
C1195 C 0.51813 0.25936 0.26961 0.0
C1196 C 0.532 0.24556 0.27474 0.0
C1197 C 0.55385 0.24814 0.27419 0.0
C1198 C 0.46451 0.23766 0.26239 0.0
C1199 C 0.45064 0.25145 0.26748 0.0
C1200 C 0.48635 0.24011 0.26338 0.0
C1201 C 0.49488 0.25641 0.26947 0.0
C1202 C 0.48097 0.27005 0.27492 0.0
C1203 C 0.45914 0.26761 0.27394 0.0
H1204 H 0.03183 0.30508 0.50547 0.0
H1205 H 0.96706 0.29853 0.52138 0.0
H1206 H 0.0365 0.2727 0.50518 0.0
H1207 H 0.9718 0.26608 0.52237 0.0
H1208 H 0.98012 0.20797 0.50621 0.0
H1209 H 0.97535 0.24035 0.50596 0.0
H1210 H 0.04048 0.24711 0.52175 0.0
H1211 H 0.04529 0.21467 0.52072 0.0
C1212 C 0.01868 0.29661 0.5092 0.0
C1213 C 0.9991 0.30423 0.51346 0.0
C1214 C 0.02134 0.27801 0.50917 0.0
C1215 C 1.00458 0.26652 0.51384 0.0
C1216 C 0.98501 0.2743 0.51832 0.0
C1217 C 0.98225 0.29292 0.5179 0.0
C1218 C 0.99334 0.21647 0.50965 0.0
C1219 C 0.01307 0.2089 0.51349 0.0
C1220 C 0.99063 0.23507 0.50964 0.0
C1221 C 0.00748 0.2466 0.51389 0.0
C1222 C 0.02718 0.23886 0.518 0.0
C1223 C 0.02999 0.22025 0.51757 0.0
H1224 H 0.06509 0.73564 0.77746 0.0
H1225 H 0.05445 0.79008 0.75983 0.0
H1226 H 0.02718 0.73108 0.77999 0.0
H1227 H 0.01655 0.78539 0.76195 0.0
H1228 H 0.94949 0.77632 0.78072 0.0
H1229 H 0.98749 0.78078 0.78216 0.0
H1230 H 0.99723 0.7277 0.76057 0.0
H1231 H 0.95926 0.72308 0.75954 0.0
C1232 C 0.05468 0.74667 0.77419 0.0
C1233 C 0.06285 0.76322 0.76839 0.0
C1234 C 0.0329 0.74401 0.77552 0.0
C1235 C 0.01873 0.75782 0.77108 0.0
C1236 C 0.02695 0.77451 0.7657 0.0
C1237 C 0.04873 0.77718 0.7644 0.0
C1238 C 0.95973 0.76553 0.77643 0.0
C1239 C 0.95128 0.74935 0.76997 0.0
C1240 C 0.98155 0.76814 0.77714 0.0
C1241 C 0.9955 0.75466 0.77139 0.0
C1242 C 0.98702 0.73831 0.76533 0.0
C1243 C 0.9652 0.73569 0.76465 0.0
H1244 H 0.53521 0.80824 0.0161 0.0
H1245 H 0.46936 0.79767 1.00631 0.0
H1246 H 0.54227 0.77611 0.01673 0.0
H1247 H 0.47649 0.76548 1.00658 0.0
H1248 H 0.49408 0.71078 0.03179 0.0
H1249 H 0.48675 0.74275 0.02915 0.0
H1250 H 0.54273 0.7494 0.99691 0.0
H1251 H 0.55029 0.71738 0.99987 0.0
C1252 C 0.52223 0.79906 0.01408 0.0
C1253 C 0.50168 0.80554 0.01126 0.0
C1254 C 0.52632 0.78064 0.01424 0.0
C1255 C 0.50994 0.76823 0.01173 0.0
C1256 C 0.48942 0.77469 0.00871 0.0
C1257 C 0.48536 0.79314 0.0084 0.0
C1258 C 0.50489 0.71906 0.02422 0.0
C1259 C 0.52285 0.71153 0.01614 0.0
C1260 C 0.50055 0.73736 0.02253 0.0
C1261 C 0.51415 0.74863 0.01282 0.0
C1262 C 0.53203 0.7411 1.0046 0.0
C1263 C 0.53627 0.72274 1.00617 0.0
H1264 H 0.567 0.78239 0.23712 0.0
H1265 H 0.55732 0.72762 0.2541 0.0
H1266 H 0.52898 0.78667 0.23518 0.0
H1267 H 0.51936 0.73202 0.25262 0.0
H1268 H 0.45211 0.7402 0.23511 0.0
H1269 H 0.49012 0.73645 0.23293 0.0
H1270 H 0.49903 0.78956 0.25468 0.0
H1271 H 0.46094 0.79349 0.25641 0.0
C1272 C 0.55678 0.77123 0.24038 0.0
C1273 C 0.56525 0.75466 0.24579 0.0
C1274 C 0.53494 0.77373 0.23939 0.0
C1275 C 0.52102 0.75973 0.24382 0.0
C1276 C 0.52955 0.74305 0.24886 0.0
C1277 C 0.55137 0.74053 0.2498 0.0
C1278 C 0.46216 0.75116 0.23928 0.0
C1279 C 0.45344 0.76713 0.24601 0.0
C1280 C 0.484 0.74895 0.23814 0.0
C1281 C 0.49774 0.76262 0.24378 0.0
C1282 C 0.48899 0.7788 0.25003 0.0
C1283 C 0.46711 0.78104 0.2511 0.0
H1284 H 0.55032 0.30038 0.49404 0.0
H1285 H 0.48397 0.30823 0.50319 0.0
H1286 H 0.54525 0.26797 0.49444 0.0
H1287 H 0.47879 0.27593 0.50489 0.0
H1288 H 0.47173 0.2168 0.49295 0.0
H1289 H 0.47677 0.24913 0.49004 0.0
H1290 H 0.53934 0.2437 0.51248 0.0
H1291 H 0.53451 0.21139 0.51409 0.0
C1292 C 0.53467 0.29506 0.49629 0.0
C1293 C 0.51754 0.30669 0.49849 0.0
C1294 C 0.53171 0.27648 0.49669 0.0
C1295 C 0.51157 0.2691 0.49981 0.0
C1296 C 0.49445 0.28092 0.50206 0.0
C1297 C 0.49738 0.29948 0.5012 0.0
C1298 C 0.48652 0.22266 0.49716 0.0
C1299 C 0.50277 0.2117 0.50362 0.0
C1300 C 0.48944 0.2412 0.49564 0.0
C1301 C 0.50852 0.24925 0.50101 0.0
C1302 C 0.52463 0.23813 0.50774 0.0
C1303 C 0.52186 0.21958 0.50881 0.0
H1304 H 0.94711 0.25126 0.74884 0.0
H1305 H 0.96486 0.30684 0.74295 0.0
H1306 H 0.9839 0.24241 0.74598 0.0
H1307 H 1.00172 0.29811 0.74076 0.0
H1308 H 0.06534 0.27696 0.724 0.0
H1309 H 0.02791 0.28417 0.72305 0.0
H1310 H 0.01566 0.24291 0.76242 0.0
H1311 H 0.05292 0.2353 0.76283 0.0
C1312 C 0.95887 0.2616 0.74694 0.0
C1313 C 0.95301 0.27977 0.74616 0.0
C1314 C 0.98003 0.25654 0.74542 0.0
C1315 C 0.99593 0.26952 0.74324 0.0
C1316 C 0.98997 0.28767 0.74215 0.0
C1317 C 0.96879 0.29272 0.74351 0.0
C1318 C 0.05462 0.26931 0.73232 0.0
C1319 C 0.06216 0.25558 0.74351 0.0
C1320 C 0.03313 0.27354 0.73188 0.0
C1321 C 0.01865 0.26424 0.74275 0.0
C1322 C 0.0262 0.25023 0.75366 0.0
C1323 C 0.04765 0.2459 0.75397 0.0
H1324 H 0.96728 0.71716 0.01076 0.0
H1325 H 0.03214 0.70723 0.99646 0.0
H1326 H 0.97438 0.74943 0.01144 0.0
H1327 H 0.03916 0.73935 0.99688 0.0
H1328 H 0.04899 0.79697 0.01564 0.0
H1329 H 0.04106 0.76499 0.01816 0.0
H1330 H 0.98324 0.77312 0.98883 0.0
H1331 H 0.991 0.80509 0.98658 0.0
C1332 C 0.98306 0.72186 0.00789 0.0
C1333 C 0.99911 0.70966 1.00344 0.0
C1334 C 0.98709 0.74032 0.00814 0.0
C1335 C 0.00733 0.74693 1.00418 0.0
C1336 C 0.02346 0.73468 1.00013 0.0
C1337 C 0.01937 0.71629 0.99969 0.0
C1338 C 0.03449 0.79195 0.00991 0.0
C1339 C 0.02069 0.80355 1.00082 0.0
C1340 C 0.03002 0.77363 0.01123 0.0
C1341 C 0.01155 0.76653 1.00365 0.0
C1342 C 0.99752 0.7782 0.99492 0.0
C1343 C 1.00209 0.79648 0.99345 0.0
H1344 H 0.24376 0.46848 0.22719 0.0
H1345 H 0.26929 0.46179 0.28042 0.0
H1346 H 0.2404 0.50063 0.23237 0.0
H1347 H 0.26587 0.49402 0.28557 0.0
H1348 H 0.27062 0.55603 0.28262 0.0
H1349 H 0.2787 0.52465 0.27548 0.0
H1350 H 0.21687 0.51855 0.25225 0.0
H1351 H 0.2088 0.54962 0.25935 0.0
C1352 C 0.24891 0.47387 0.23992 0.0
C1353 C 0.25666 0.46249 0.25343 0.0
C1354 C 0.24688 0.4923 0.24292 0.0
C1355 C 0.25272 0.49986 0.25943 0.0
C1356 C 0.26135 0.48863 0.27267 0.0
C1357 C 0.26321 0.47014 0.26973 0.0
C1358 C 0.25884 0.54799 0.27589 0.0
C1359 C 0.23905 0.55533 0.27159 0.0
C1360 C 0.26343 0.53002 0.27188 0.0
C1361 C 0.24845 0.51913 0.26324 0.0
C1362 C 0.22885 0.52661 0.25869 0.0
C1363 C 0.22418 0.54442 0.26289 0.0
H1364 H 0.77016 0.0584 0.76288 0.0
H1365 H 0.70811 0.0394 0.77724 0.0
H1366 H 0.77925 0.02837 0.75199 0.0
H1367 H 0.71705 0.00972 0.76629 0.0
H1368 H 0.74412 0.95451 0.76083 0.0
H1369 H 0.73949 0.98425 0.77355 0.0
H1370 H 0.76941 1.00767 0.72712 0.0
H1371 H 0.77434 0.97774 0.7144 0.0
C1372 C 0.75852 0.04783 0.76381 0.0
C1373 C 0.73841 0.05132 0.77094 0.0
C1374 C 0.76368 0.03066 0.75747 0.0
C1375 C 0.74891 0.01661 0.75832 0.0
C1376 C 0.72893 0.02012 0.76567 0.0
C1377 C 0.72375 0.03722 0.77186 0.0
C1378 C 0.74991 0.96594 0.75335 0.0
C1379 C 0.75945 0.96369 0.73649 0.0
C1380 C 0.74715 0.98304 0.76063 0.0
C1381 C 0.75386 0.99838 0.75127 0.0
C1382 C 0.76417 0.99613 0.73473 0.0
C1383 C 0.76691 0.97897 0.7274 0.0
H1384 H 0.22014 0.52969 0.04839 0.0
H1385 H 0.19675 0.50288 1.00113 0.0
H1386 H 0.25611 0.52715 0.03681 0.0
H1387 H 0.23246 0.50059 0.98957 0.0
H1388 H 0.29884 0.47656 0.98852 0.0
H1389 H 0.26307 0.48274 0.99818 0.0
H1390 H 0.28102 0.5367 0.01244 0.0
H1391 H 0.31727 0.53042 1.00283 0.0
C1392 C 0.22261 0.52346 0.03546 0.0
C1393 C 0.20554 0.51632 0.0258 0.0
C1394 C 0.24322 0.52209 0.02878 0.0
C1395 C 0.24718 0.51351 0.01234 0.0
C1396 C 0.23001 0.507 1.00242 0.0
C1397 C 0.20949 0.50838 0.00904 0.0
C1398 C 0.29523 0.4898 0.9936 0.0
C1399 C 0.31096 0.50299 0.9949 0.0
C1400 C 0.27462 0.49338 0.99905 0.0
C1401 C 0.26913 0.51023 1.00603 0.0
C1402 C 0.28479 0.52354 1.00722 0.0
C1403 C 0.3055 0.51999 1.0016 0.0
H1404 H 0.74048 0.05786 0.24983 0.0
H1405 H 0.80583 0.0451 0.23984 0.0
H1406 H 0.73429 0.02683 0.25938 0.0
H1407 H 0.79976 0.0145 0.24953 0.0
H1408 H 0.77937 0.95687 0.25096 0.0
H1409 H 0.78208 0.98749 0.23994 0.0
H1410 H 0.74346 1.00589 0.28389 0.0
H1411 H 0.74041 0.97508 0.29482 0.0
C1412 C 0.75349 0.04847 0.24964 0.0
C1413 C 0.77364 0.054 0.24403 0.0
C1414 C 0.74998 0.03072 0.2552 0.0
C1415 C 0.76651 0.01811 0.25514 0.0
C1416 C 0.78658 0.02371 0.24947 0.0
C1417 C 0.79009 0.04137 0.24401 0.0
C1418 C 0.77132 0.96739 0.25825 0.0
C1419 C 0.7598 0.96348 0.27387 0.0
C1420 C 0.77297 0.985 0.25197 0.0
C1421 C 0.76318 0.99922 0.26112 0.0
C1422 C 0.75109 0.99527 0.27644 0.0
C1423 C 0.74944 0.9776 0.28275 0.0
H1424 H 0.70184 0.9794 0.02701 0.0
H1425 H 0.71014 1.00378 0.97495 0.0
H1426 H 0.73991 0.97822 0.03086 0.0
H1427 H 0.74822 1.00304 0.979 0.0
H1428 H 0.81657 0.98716 0.98522 0.0
H1429 H 0.7787 0.98417 0.98094 0.0
H1430 H 0.76846 0.99849 0.03634 0.0
H1431 H 0.80638 1.00102 0.04074 0.0
C1432 C 0.71178 0.98445 0.01634 0.0
C1433 C 0.70291 0.99174 1.00069 0.0
C1434 C 0.73364 0.98388 0.01861 0.0
C1435 C 0.7472 0.99065 1.00532 0.0
C1436 C 0.73831 0.99751 0.98945 0.0
C1437 C 0.71644 0.99801 0.98714 0.0
C1438 C 0.80626 0.98952 0.99655 0.0
C1439 C 0.81454 0.99439 0.01332 0.0
C1440 C 0.7845 0.98791 0.99405 0.0
C1441 C 0.77045 0.9912 0.00825 0.0
C1442 C 0.77878 0.99564 0.02515 0.0
C1443 C 0.80055 0.99718 0.02766 0.0
H1444 H 0.25994 0.46757 0.78755 0.0
H1445 H 0.25546 0.45589 0.73101 0.0
H1446 H 0.2556 0.4995 0.7811 0.0
H1447 H 0.25169 0.48764 0.72456 0.0
H1448 H 0.22834 0.5444 0.71858 0.0
H1449 H 0.22868 0.51283 0.72698 0.0
H1450 H 0.27487 0.52405 0.76794 0.0
H1451 H 0.2741 0.55572 0.75984 0.0
C1452 C 0.25794 0.47178 0.77376 0.0
C1453 C 0.25807 0.45912 0.75981 0.0
C1454 C 0.2556 0.49011 0.77004 0.0
C1455 C 0.25333 0.49623 0.75229 0.0
C1456 C 0.25308 0.48348 0.73841 0.0
C1457 C 0.25538 0.46521 0.74212 0.0
C1458 C 0.23847 0.54017 0.72947 0.0
C1459 C 0.25126 0.55263 0.73847 0.0
C1460 C 0.23876 0.52202 0.73423 0.0
C1461 C 0.25191 0.51579 0.74808 0.0
C1462 C 0.26435 0.52834 0.75736 0.0
C1463 C 0.26401 0.54652 0.75263 0.0
H1464 H 0.31204 0.48643 0.48987 0.0
H1465 H 0.30327 0.50413 0.54445 0.0
H1466 H 0.27402 0.48415 0.48619 0.0
H1467 H 0.26521 0.50237 0.54062 0.0
H1468 H 0.19726 0.48555 0.53274 0.0
H1469 H 0.2353 0.48327 0.5367 0.0
H1470 H 0.24465 0.50375 0.4831 0.0
H1471 H 0.2067 0.50552 0.47898 0.0
C1472 C 0.302 0.48977 0.50112 0.0
C1473 C 0.31073 0.49553 0.51743 0.0
C1474 C 0.28016 0.48858 0.49897 0.0
C1475 C 0.26644 0.49323 0.51303 0.0
C1476 C 0.27522 0.49848 0.52953 0.0
C1477 C 0.29709 0.49957 0.53172 0.0
C1478 C 0.20744 0.4894 0.52174 0.0
C1479 C 0.19889 0.49575 0.50555 0.0
C1480 C 0.22928 0.48821 0.52405 0.0
C1481 C 0.24314 0.49339 0.51026 0.0
C1482 C 0.23453 0.49938 0.49394 0.0
C1483 C 0.21271 0.5005 0.4916 0.0
H1484 H 0.73195 0.7703 0.05368 0.0
H1485 H 0.79499 0.75024 0.04528 0.0
H1486 H 0.72549 0.76916 0.02151 0.0
H1487 H 0.78837 0.74871 0.01309 0.0
H1488 H 0.7767 0.77127 0.95619 0.0
H1489 H 0.78308 0.77029 0.98836 0.0
H1490 H 0.72129 0.74752 0.99662 0.0
H1491 H 0.71473 0.74887 0.96437 0.0
C1492 C 0.74443 0.76564 0.04498 0.0
C1493 C 0.76404 0.76047 0.05206 0.0
C1494 C 0.74064 0.76479 0.02655 0.0
C1495 C 0.75641 0.75886 0.01473 0.0
C1496 C 0.77595 0.75349 0.02182 0.0
C1497 C 0.77969 0.75422 0.04028 0.0
C1498 C 0.76443 0.76613 0.96486 0.0
C1499 C 0.74514 0.76026 0.95771 0.0
C1500 C 0.76819 0.76538 0.98329 0.0
C1501 C 0.75269 0.75884 0.99506 0.0
C1502 C 0.73347 0.75277 0.98791 0.0
C1503 C 0.72978 0.7534 0.96943 0.0
H1504 H 0.49516 0.50596 0.3171 0.0
H1505 H 0.51136 0.55645 0.29244 0.0
H1506 H 0.49187 0.49226 0.28766 0.0
H1507 H 0.50952 0.54261 0.26301 0.0
H1508 H 0.49303 0.51703 0.21043 0.0
H1509 H 0.4902 0.53083 0.23989 0.0
H1510 H 0.51137 0.48134 0.26427 0.0
H1511 H 0.51277 0.46737 0.23492 0.0
C1512 C 0.49805 0.51412 0.30533 0.0
C1513 C 0.50351 0.53228 0.30708 0.0
C1514 C 0.49638 0.50622 0.28839 0.0
C1515 C 0.50066 0.51616 0.27273 0.0
C1516 C 0.50573 0.53448 0.27458 0.0
C1517 C 0.50691 0.54246 0.29152 0.0
C1518 C 0.49684 0.50908 0.22215 0.0
C1519 C 0.5031 0.49111 0.22036 0.0
C1520 C 0.49541 0.51704 0.23909 0.0
C1521 C 0.50069 0.50735 0.25468 0.0
C1522 C 0.50673 0.48925 0.25278 0.0
C1523 C 0.50769 0.48121 0.23587 0.0
H1524 H 0.7923 0.24674 0.46286 0.0
H1525 H 0.72782 0.26415 0.45804 0.0
H1526 H 0.7885 0.24524 0.49533 0.0
H1527 H 0.72411 0.26371 0.49053 0.0
H1528 H 0.71751 0.24697 0.5486 0.0
H1529 H 0.72098 0.24621 0.51604 0.0
H1530 H 0.78615 0.26254 0.52088 0.0
H1531 H 0.78273 0.26225 0.55334 0.0
C1532 C 0.77737 0.25041 0.46884 0.0
C1533 C 0.76035 0.25552 0.45801 0.0
C1534 C 0.77517 0.24968 0.48746 0.0
C1535 C 0.756 0.25444 0.49573 0.0
C1536 C 0.73898 0.25958 0.48476 0.0
C1537 C 0.74109 0.25994 0.46612 0.0
C1538 C 0.73253 0.25033 0.54259 0.0
C1539 C 0.74987 0.25456 0.55342 0.0
C1540 C 0.73455 0.25002 0.52393 0.0
C1541 C 0.75388 0.25432 0.51566 0.0
C1542 C 0.77115 0.25872 0.52664 0.0
C1543 C 0.76921 0.25866 0.54527 0.0
H1544 H 0.007 0.50109 0.70946 0.0
H1545 H 0.00694 0.55662 0.7256 0.0
H1546 H 0.00917 0.49188 0.74072 0.0
H1547 H 0.00781 0.54755 0.75689 0.0
H1548 H 0.02463 0.5279 0.81192 0.0
H1549 H 0.02692 0.53591 0.78037 0.0
H1550 H 0.98996 0.48912 0.76683 0.0
H1551 H 0.98888 0.48065 0.79832 0.0
C1552 C 0.00737 0.51134 0.71973 0.0
C1553 C 0.00684 0.52958 0.71505 0.0
C1554 C 0.00842 0.50607 0.73772 0.0
C1555 C 0.00854 0.51891 0.75155 0.0
C1556 C 0.00818 0.53719 0.74676 0.0
C1557 C 0.00755 0.54245 0.72875 0.0
C1558 C 0.01716 0.51926 0.80215 0.0
C1559 C 0.00657 0.50365 0.80762 0.0
C1560 C 0.0183 0.52392 0.78401 0.0
C1561 C 0.00847 0.51331 0.77085 0.0
C1562 C 0.99807 0.49754 0.7764 0.0
C1563 C 0.99732 0.49269 0.79452 0.0
H1564 H 0.81457 0.04515 0.52089 0.0
H1565 H 0.80283 1.00195 0.48375 0.0
H1566 H 0.77714 0.04626 0.52817 0.0
H1567 H 0.76565 1.00252 0.49152 0.0
H1568 H 0.69688 0.01558 0.49847 0.0
H1569 H 0.7336 0.0181 0.4893 0.0
H1570 H 0.75115 0.03009 0.54394 0.0
H1571 H 0.71433 0.0283 0.55289 0.0
C1572 C 0.804 0.03589 0.51427 0.0
C1573 C 0.81173 0.02345 0.50175 0.0
C1574 C 0.78252 0.03643 0.51855 0.0
C1575 C 0.76823 0.02442 0.51054 0.0
C1576 C 0.776 0.01219 0.49778 0.0
C1577 C 0.79742 0.01178 0.49338 0.0
C1578 C 0.70857 0.0189 0.50849 0.0
C1579 C 0.70265 0.0217 0.52642 0.0
C1580 C 0.7297 0.02023 0.50326 0.0
C1581 C 0.74552 0.02418 0.51587 0.0
C1582 C 0.73948 0.02729 0.53376 0.0
C1583 C 0.71832 0.02616 0.53894 0.0
H1584 H 0.2438 0.358 0.28014 0.0
H1585 H 0.18153 0.37715 0.29353 0.0
H1586 H 0.23958 0.33334 0.30129 0.0
H1587 H 0.17766 0.35297 0.31517 0.0
H1588 H 0.16871 0.29749 0.33927 0.0
H1589 H 0.17309 0.32105 0.31704 0.0
H1590 H 0.23793 0.32767 0.33324 0.0
H1591 H 0.23354 0.30399 0.35549 0.0
C1592 C 0.22916 0.35694 0.2875 0.0
C1593 C 0.213 0.36963 0.28506 0.0
C1594 C 0.22685 0.34289 0.29983 0.0
C1595 C 0.20829 0.34115 0.31001 0.0
C1596 C 0.19208 0.35375 0.30744 0.0
C1597 C 0.19439 0.36777 0.29515 0.0
C1598 C 0.18386 0.30404 0.33824 0.0
C1599 C 0.20073 0.29885 0.3493 0.0
C1600 C 0.18638 0.31758 0.32544 0.0
C1601 C 0.20584 0.32636 0.32335 0.0
C1602 C 0.22279 0.32106 0.33429 0.0
C1603 C 0.22027 0.30747 0.34709 0.0
H1604 H 0.97235 0.96258 0.62051 0.0
H1605 H 0.96147 0.01973 0.62253 0.0
H1606 H 0.94958 0.96042 0.5943 0.0
H1607 H 0.93844 0.0175 0.59653 0.0
H1608 H 0.92311 0.00994 0.5369 0.0
H1609 H 0.94285 0.0119 0.56469 0.0
H1610 H 0.91344 0.96316 0.58343 0.0
H1611 H 0.89353 0.9612 0.55557 0.0
C1612 C 0.96486 0.97465 0.61555 0.0
C1613 C 0.96886 0.99135 0.6236 0.0
C1614 C 0.95172 0.97339 0.60053 0.0
C1615 C 0.9423 0.98881 0.59318 0.0
C1616 C 0.94573 1.0054 0.60163 0.0
C1617 C 0.95883 1.00665 0.61665 0.0
C1618 C 0.92058 0.99974 0.54698 0.0
C1619 C 0.90661 0.98542 0.5439 0.0
C1620 C 0.93194 1.00087 0.56298 0.0
C1621 C 0.9297 0.98773 0.57637 0.0
C1622 C 0.91573 0.97341 0.57333 0.0
C1623 C 0.90432 0.97228 0.55732 0.0
H1624 H 0.34543 0.71273 0.84789 0.0
H1625 H 0.27772 0.71401 0.85351 0.0
H1626 H 0.34221 0.69038 0.82435 0.0
H1627 H 0.27449 0.69156 0.82997 0.0
H1628 H 0.27603 0.66538 0.77442 0.0
H1629 H 0.27906 0.6877 0.79806 0.0
H1630 H 0.3328 0.65945 0.81962 0.0
H1631 H 0.32982 0.63719 0.7959 0.0
C1632 C 0.32985 0.70813 0.84426 0.0
C1633 C 0.31184 0.7152 0.85268 0.0
C1634 C 0.328 0.69527 0.83073 0.0
C1635 C 0.30809 0.68911 0.82524 0.0
C1636 C 0.29007 0.69618 0.83365 0.0
C1637 C 0.29192 0.70907 0.84718 0.0
C1638 C 0.28839 0.66383 0.78427 0.0
C1639 C 0.30268 0.64944 0.78321 0.0
C1640 C 0.29012 0.67664 0.79787 0.0
C1641 C 0.30618 0.67541 0.81079 0.0
C1642 C 0.32045 0.66101 0.80974 0.0
C1643 C 0.31874 0.64822 0.79612 0.0
H1644 H 0.61354 0.05137 0.05617 0.0
H1645 H 0.5907 0.99943 0.03953 0.0
H1646 H 0.59097 0.05008 0.0825 0.0
H1647 H 0.5674 0.99855 0.06539 0.0
H1648 H 0.54542 0.99303 0.12296 0.0
H1649 H 0.56896 0.99493 0.09727 0.0
H1650 H 0.55487 0.05137 0.09203 0.0
H1651 H 0.53171 0.04956 0.11806 0.0
C1652 C 0.60368 0.03969 0.05806 0.0
C1653 C 0.60411 0.02546 0.04568 0.0
C1654 C 0.59053 0.03904 0.0731 0.0
C1655 C 0.5774 0.02417 0.07617 0.0
C1656 C 0.57754 0.01009 0.06364 0.0
C1657 C 0.59073 0.01072 0.04862 0.0
C1658 C 0.54746 1.00589 0.11643 0.0
C1659 C 0.53664 0.02114 0.12259 0.0
C1660 C 0.56084 1.00695 0.10157 0.0
C1661 C 0.5637 0.02326 0.09241 0.0
C1662 C 0.55322 0.03861 0.09882 0.0
C1663 C 0.53988 0.03757 0.11374 0.0
H1664 H 0.23522 0.71243 0.16204 0.0
H1665 H 0.16742 0.70893 0.16433 0.0
H1666 H 0.23794 0.69012 0.18584 0.0
H1667 H 0.17 0.68699 0.18837 0.0
H1668 H 0.18119 0.63574 0.21966 0.0
H1669 H 0.17941 0.65703 0.19493 0.0
H1670 H 0.23247 0.68581 0.21698 0.0
H1671 H 0.23448 0.6642 0.24143 0.0
C1672 C 0.22089 0.707 0.16774 0.0
C1673 C 0.20111 0.71244 0.16125 0.0
C1674 C 0.22242 0.69423 0.18143 0.0
C1675 C 0.20419 0.68668 0.1891 0.0
C1676 C 0.18441 0.69219 0.18259 0.0
C1677 C 0.1829 0.70483 0.1688 0.0
C1678 C 0.19243 0.64664 0.21923 0.0
C1679 C 0.20795 0.64827 0.23253 0.0
C1680 C 0.19139 0.65891 0.20507 0.0
C1681 C 0.20573 0.67326 0.20392 0.0
C1682 C 0.22136 0.6748 0.2172 0.0
C1683 C 0.22251 0.66242 0.23128 0.0
H1684 H 0.60842 0.94938 0.46502 0.0
H1685 H 0.58636 1.00351 0.47379 0.0
H1686 H 0.58633 0.94727 0.43846 0.0
H1687 H 0.56459 1.0014 0.44711 0.0
H1688 H 0.54126 0.99713 0.38954 0.0
H1689 H 0.56655 0.99891 0.41412 0.0
H1690 H 0.54838 0.94591 0.43157 0.0
H1691 H 0.52327 0.94403 0.40696 0.0
C1692 C 0.59887 0.96083 0.46139 0.0
C1693 C 0.59922 0.97659 0.47176 0.0
C1694 C 0.58622 0.95961 0.44609 0.0
C1695 C 0.57367 0.97416 0.44065 0.0
C1696 C 0.57429 0.99003 0.45077 0.0
C1697 C 0.58683 0.99122 0.46614 0.0
C1698 C 0.54284 0.98576 0.39848 0.0
C1699 C 0.53018 0.97045 0.39628 0.0
C1700 C 0.55723 0.98685 0.41265 0.0
C1701 C 0.55941 0.9726 0.42488 0.0
C1702 C 0.54724 0.95707 0.42232 0.0
C1703 C 0.53276 0.95603 0.40823 0.0
H1704 H 0.27793 0.29968 0.66557 0.0
H1705 H 0.34311 0.3136 0.65652 0.0
H1706 H 0.27569 0.32232 0.68897 0.0
H1707 H 0.34092 0.3362 0.67997 0.0
H1708 H 0.28559 0.35219 0.74194 0.0
H1709 H 0.28788 0.32921 0.71885 0.0
H1710 H 0.32504 0.36495 0.68601 0.0
H1711 H 0.32282 0.38787 0.70911 0.0
C1712 C 0.29187 0.30741 0.66868 0.0
C1713 C 0.31071 0.30478 0.65909 0.0
C1714 C 0.29058 0.32043 0.68213 0.0
C1715 C 0.30811 0.33114 0.68637 0.0
C1716 C 0.32699 0.32842 0.67686 0.0
C1717 C 0.32826 0.31543 0.6634 0.0
C1718 C 0.2941 0.35522 0.72975 0.0
C1719 C 0.30404 0.37192 0.72745 0.0
C1720 C 0.29542 0.34202 0.71648 0.0
C1721 C 0.30668 0.34518 0.70054 0.0
C1722 C 0.31655 0.36191 0.69823 0.0
C1723 C 0.31526 0.37509 0.7115 0.0
H1724 H 0.92502 0.05401 0.97398 0.0
H1725 H 0.89619 1.00275 0.96361 0.0
H1726 H 0.94436 0.05201 0.94593 0.0
H1727 H 0.9148 1.00093 0.93502 0.0
H1728 H 0.96932 0.99483 0.8948 0.0
H1729 H 0.94767 0.99631 0.92172 0.0
H1730 H 0.94189 0.05371 0.91498 0.0
H1731 H 0.96449 0.05223 0.88868 0.0
C1732 C 0.9226 0.04242 0.96552 0.0
C1733 C 0.9091 0.02855 0.97097 0.0
C1734 C 0.9336 0.04128 0.94934 0.0
C1735 C 0.93111 0.02635 0.93798 0.0
C1736 C 0.91743 0.01251 0.94345 0.0
C1737 C 0.90669 0.01354 0.95982 0.0
C1738 C 0.96319 1.00772 0.89898 0.0
C1739 C 0.96869 0.02342 0.88968 0.0
C1740 C 0.95069 0.00859 0.91442 0.0
C1741 C 0.94312 0.02517 0.92077 0.0
C1742 C 0.94786 0.04075 0.91088 0.0
C1743 C 0.96065 0.03991 0.89565 0.0
H1744 H 0.33893 0.24769 0.28658 0.0
H1745 H 0.3539 0.1955 0.30833 0.0
H1746 H 0.30766 0.24906 0.30546 0.0
H1747 H 0.32248 0.19699 0.32734 0.0
H1748 H 0.27575 0.21854 0.37163 0.0
H1749 H 0.30755 0.21514 0.35339 0.0
H1750 H 0.27307 0.23257 0.3067 0.0
H1751 H 0.24133 0.23593 0.32481 0.0
C1752 C 0.33567 0.23656 0.29549 0.0
C1753 C 0.34894 0.22145 0.29589 0.0
C1754 C 0.31763 0.2373 0.30621 0.0
C1755 C 0.31248 0.22305 0.31775 0.0
C1756 C 0.32606 0.20818 0.3186 0.0
C1757 C 0.34403 0.20733 0.30769 0.0
C1758 C 0.27489 0.22143 0.35743 0.0
C1759 C 0.25598 0.22756 0.34971 0.0
C1760 C 0.2931 0.21945 0.34699 0.0
C1761 C 0.29286 0.22378 0.32866 0.0
C1762 C 0.27382 0.22939 0.32085 0.0
C1763 C 0.25558 0.23117 0.33122 0.0
H1764 H 0.05342 0.05796 0.63471 0.0
H1765 H 0.04824 0.01463 0.59674 0.0
H1766 H 0.05632 0.07943 0.61007 0.0
H1767 H 0.05121 0.03615 0.572 0.0
H1768 H 0.08474 0.07902 0.536 0.0
H1769 H 0.08011 0.05719 0.56014 0.0
H1770 H 0.03314 0.09128 0.5844 0.0
H1771 H 0.03776 0.11314 0.56013 0.0
C1772 C 0.05302 0.05302 0.62109 0.0
C1773 C 0.05072 0.03459 0.61765 0.0
C1774 C 0.05447 0.06533 0.60699 0.0
C1775 C 0.05399 0.05947 0.58911 0.0
C1776 C 0.05173 0.04104 0.58565 0.0
C1777 C 0.04992 0.02875 0.59978 0.0
C1778 C 0.07347 0.08187 0.54651 0.0
C1779 C 0.06169 0.09784 0.54623 0.0
C1780 C 0.07068 0.0693 0.56024 0.0
C1781 C 0.05628 0.07254 0.57416 0.0
C1782 C 0.04445 0.08848 0.57389 0.0
C1783 C 0.04699 0.10093 0.55997 0.0
H1784 H 0.17626 0.76764 0.78422 0.0
H1785 H 0.15544 0.81526 0.81199 0.0
H1786 H 0.20761 0.76655 0.80297 0.0
H1787 H 0.18699 0.8142 0.83072 0.0
H1788 H 0.23495 0.79267 0.87296 0.0
H1789 H 0.20346 0.79555 0.85445 0.0
H1790 H 0.24037 0.78388 0.80727 0.0
H1791 H 0.27185 0.78086 0.82575 0.0
C1792 C 0.1783 0.77785 0.79437 0.0
C1793 C 0.16329 0.79155 0.79657 0.0
C1794 C 0.1964 0.77731 0.80503 0.0
C1795 C 0.19991 0.79038 0.81824 0.0
C1796 C 0.18471 0.80388 0.82072 0.0
C1797 C 0.16664 0.8045 0.80995 0.0
C1798 C 0.23642 0.79091 0.85861 0.0
C1799 C 0.25595 0.78647 0.85086 0.0
C1800 C 0.21835 0.79261 0.848 0.0
C1801 C 0.21935 0.78979 0.8294 0.0
C1802 C 0.23899 0.78586 0.82159 0.0
C1803 C 0.25709 0.78428 0.83218 0.0
H1804 H 0.41821 0.92796 0.04323 0.0
H1805 H 0.47467 0.90126 0.06122 0.0
H1806 H 0.42223 0.95028 0.06699 0.0
H1807 H 0.47865 0.92354 0.08508 0.0
H1808 H 0.46018 0.95338 0.13777 0.0
H1809 H 0.45706 0.93179 0.11332 0.0
H1810 H 0.44899 0.97524 0.07571 0.0
H1811 H 0.45228 0.99692 0.10027 0.0
C1812 C 0.43142 0.92683 0.05232 0.0
C1813 C 0.44608 0.91282 0.05043 0.0
C1814 C 0.43382 0.93969 0.0658 0.0
C1815 C 0.45073 0.93862 0.07788 0.0
C1816 C 0.4654 0.92462 0.07601 0.0
C1817 C 0.4632 0.91195 0.06232 0.0
C1818 C 0.45761 0.95832 0.12431 0.0
C1819 C 0.45634 0.97684 0.12093 0.0
C1820 C 0.45603 0.94597 0.1103 0.0
C1821 C 0.4528 0.95184 0.09263 0.0
C1822 C 0.45138 0.97035 0.08923 0.0
C1823 C 0.45335 0.98274 0.10323 0.0
H1824 H 0.34855 0.75292 0.20954 0.0
H1825 H 0.35032 0.80967 0.22093 0.0
H1826 H 0.31902 0.75769 0.18923 0.0
H1827 H 0.32078 0.81443 0.20029 0.0
H1828 H 0.28498 0.81277 0.14391 0.0
H1829 H 0.31339 0.81082 0.16602 0.0
H1830 H 0.28056 0.7678 0.19279 0.0
H1831 H 0.25213 0.7698 0.17095 0.0
C1832 C 0.34275 0.76644 0.20762 0.0
C1833 C 0.35182 0.78092 0.21687 0.0
C1834 C 0.32571 0.76914 0.19608 0.0
C1835 C 0.3175 0.78641 0.19327 0.0
C1836 C 0.32681 0.80098 0.20219 0.0
C1837 C 0.34368 0.79824 0.21402 0.0
C1838 C 0.28365 0.80311 0.15469 0.0
C1839 C 0.26629 0.79141 0.15559 0.0
C1840 C 0.29991 0.80202 0.16736 0.0
C1841 C 0.2993 0.78902 0.181 0.0
C1842 C 0.28158 0.7778 0.18229 0.0
C1843 C 0.26521 0.77906 0.16983 0.0
H1844 H 0.46395 0.06564 0.38087 0.0
H1845 H 0.4614 0.02104 0.41765 0.0
H1846 H 0.46151 0.08657 0.40599 0.0
H1847 H 0.45871 0.04203 0.44287 0.0
H1848 H 0.42542 0.08734 0.47694 0.0
H1849 H 0.43024 0.06554 0.45278 0.0
H1850 H 0.48424 0.09518 0.43383 0.0
H1851 H 0.47951 0.1169 0.45815 0.0
C1852 C 0.46281 0.06033 0.39434 0.0
C1853 C 0.46276 0.04173 0.39733 0.0
C1854 C 0.46159 0.0723 0.40871 0.0
C1855 C 0.45991 0.06591 0.42635 0.0
C1856 C 0.45991 0.0473 0.42938 0.0
C1857 C 0.46155 0.03532 0.415 0.0
C1858 C 0.43829 0.08918 0.4676 0.0
C1859 C 0.45204 0.10385 0.46935 0.0
C1860 C 0.44116 0.07664 0.4539 0.0
C1861 C 0.4576 0.07869 0.44146 0.0
C1862 C 0.47138 0.09333 0.44321 0.0
C1863 C 0.46876 0.10568 0.45714 0.0
H1864 H 0.16751 0.25061 0.71906 0.0
H1865 H 0.1545 0.1951 0.70685 0.0
H1866 H 0.19594 0.25064 0.69714 0.0
H1867 H 0.18329 0.19502 0.68519 0.0
H1868 H 0.22196 0.2082 0.63435 0.0
H1869 H 0.19362 0.20687 0.65636 0.0
H1870 H 0.23086 0.23859 0.69291 0.0
H1871 H 0.259 0.24028 0.67076 0.0
C1872 C 0.17069 0.23841 0.71169 0.0
C1873 C 0.15868 0.22286 0.71473 0.0
C1874 C 0.18715 0.23837 0.69922 0.0
C1875 C 0.19207 0.22279 0.68948 0.0
C1876 C 0.17985 0.20731 0.69233 0.0
C1877 C 0.16336 0.20734 0.7048 0.0
C1878 C 0.22421 0.21474 0.64715 0.0
C1879 C 0.24275 0.22441 0.65073 0.0
C1880 C 0.20795 0.21394 0.6598 0.0
C1881 C 0.20983 0.22277 0.67637 0.0
C1882 C 0.22867 0.23194 0.68016 0.0
C1883 C 0.24491 0.23276 0.66751 0.0
H1884 H 0.03575 0.9137 0.96059 0.0
H1885 H 0.10197 0.92592 0.96543 0.0
H1886 H 0.03189 0.93767 0.93861 0.0
H1887 H 0.09812 0.94998 0.94363 0.0
H1888 H 0.08857 0.97928 0.89048 0.0
H1889 H 0.09221 0.95527 0.91242 0.0
H1890 H 0.03202 0.96965 0.93535 0.0
H1891 H 0.02833 0.99351 0.9133 0.0
C1892 C 0.04945 0.9216 0.95712 0.0
C1893 C 0.06919 0.9178 0.96479 0.0
C1894 C 0.04724 0.93539 0.9445 0.0
C1895 C 0.0647 0.9458 0.93925 0.0
C1896 C 0.08439 0.94206 0.94704 0.0
C1897 C 0.08661 0.92824 0.9596 0.0
C1898 C 0.07619 0.97741 0.90028 0.0
C1899 C 0.05815 0.98836 0.90006 0.0
C1900 C 0.07827 0.96363 0.9129 0.0
C1901 C 0.06241 0.96046 0.92572 0.0
C1902 C 0.0444 0.97145 0.92552 0.0
C1903 C 0.04228 0.98519 0.91285 0.0
H1904 H 0.29725 0.3768 0.2119 0.0
H1905 H 0.29812 0.36912 0.26924 0.0
H1906 H 0.32017 0.35081 0.2082 0.0
H1907 H 0.32022 0.34279 0.26557 0.0
H1908 H 0.37248 0.30312 0.25558 0.0
H1909 H 0.35359 0.33145 0.25826 0.0
H1910 H 0.31917 0.31928 0.20982 0.0
H1911 H 0.33861 0.29127 0.20696 0.0
C1912 C 0.30239 0.3696 0.22372 0.0
C1913 C 0.29585 0.37507 0.24086 0.0
C1914 C 0.31541 0.35457 0.2216 0.0
C1915 C 0.32203 0.34451 0.23656 0.0
C1916 C 0.3158 0.35028 0.25372 0.0
C1917 C 0.30299 0.3654 0.25584 0.0
C1918 C 0.36089 0.30655 0.24552 0.0
C1919 C 0.35701 0.29492 0.23109 0.0
C1920 C 0.34998 0.32278 0.24705 0.0
C1921 C 0.33468 0.32774 0.23432 0.0
C1922 C 0.33105 0.31616 0.21974 0.0
C1923 C 0.34216 0.30003 0.21811 0.0
H1924 H 0.77078 0.15265 0.80216 0.0
H1925 H 0.81123 0.13152 0.76069 0.0
H1926 H 0.79307 0.1791 0.80443 0.0
H1927 H 0.83394 0.15772 0.76334 0.0
H1928 H 0.85408 0.21607 0.75682 0.0
H1929 H 0.83344 0.18876 0.75597 0.0
H1930 H 0.82648 0.19061 0.81352 0.0
H1931 H 0.84625 0.21855 0.81428 0.0
C1932 C 0.78462 0.15351 0.7937 0.0
C1933 C 0.78913 0.13997 0.78117 0.0
C1934 C 0.79749 0.16867 0.79507 0.0
C1935 C 0.8153 0.17067 0.784 0.0
C1936 C 0.82015 0.15685 0.77185 0.0
C1937 C 0.8072 0.14172 0.77041 0.0
C1938 C 0.84802 0.21085 0.76931 0.0
C1939 C 0.85181 0.21976 0.78561 0.0
C1940 C 0.83639 0.19494 0.76885 0.0
C1941 C 0.82828 0.18736 0.78468 0.0
C1942 C 0.83225 0.19612 0.80102 0.0
C1943 C 0.84383 0.2121 0.80148 0.0
H1944 H 0.9926 0.57614 0.02892 0.0
H1945 H 0.02654 0.62423 0.04326 0.0
H1946 H 0.02479 0.55864 0.03244 0.0
H1947 H 0.0588 0.6066 0.04684 0.0
H1948 H 0.10638 0.5628 0.06774 0.0
H1949 H 0.07472 0.58151 0.06593 0.0
H1950 H 0.05894 0.55722 0.01524 0.0
H1951 H 0.09042 0.53866 0.01692 0.0
C1952 C 0.00685 0.58296 0.03305 0.0
C1953 C 0.00698 0.60161 0.03575 0.0
C1954 C 0.02534 0.57294 0.03492 0.0
C1955 C 0.04438 0.58127 0.03973 0.0
C1956 C 0.04437 0.5998 0.04315 0.0
C1957 C 0.02589 0.60989 0.04107 0.0
C1958 C 0.09626 0.56159 0.05612 0.0
C1959 C 0.10095 0.54918 0.0425 0.0
C1960 C 0.07815 0.57232 0.0551 0.0
C1961 C 0.06422 0.57068 0.04055 0.0
C1962 C 0.06918 0.55858 0.02676 0.0
C1963 C 0.08735 0.54804 0.02767 0.0
H1964 H 0.63614 0.80957 0.30527 0.0
H1965 H 0.68182 0.78736 0.26859 0.0
H1966 H 0.65633 0.83732 0.30665 0.0
H1967 H 0.7021 0.81499 0.27007 0.0
H1968 H 0.72496 0.87194 0.2638 0.0
H1969 H 0.70187 0.84597 0.26142 0.0
H1970 H 0.68884 0.84906 0.31816 0.0
H1971 H 0.71149 0.87532 0.32044 0.0
C1972 C 0.65056 0.81053 0.2976 0.0
C1973 C 0.65732 0.79617 0.28682 0.0
C1974 C 0.66216 0.82648 0.29838 0.0
C1975 C 0.68086 0.82848 0.28845 0.0
C1976 C 0.68758 0.81411 0.27764 0.0
C1977 C 0.67595 0.7982 0.27682 0.0
C1978 C 0.71696 0.86723 0.27574 0.0
C1979 C 0.72015 0.87572 0.29233 0.0
C1980 C 0.70385 0.85222 0.2744 0.0
C1981 C 0.69362 0.84525 0.28963 0.0
C1982 C 0.69628 0.85411 0.30611 0.0
C1983 C 0.70935 0.86917 0.30744 0.0
H1984 H 0.90438 0.94494 0.00942 0.0
H1985 H 0.92784 0.97822 0.05233 0.0
H1986 H 0.93569 0.92614 0.01162 0.0
H1987 H 0.95899 0.95923 0.05472 0.0
H1988 H 0.02296 0.9358 0.03578 0.0
H1989 H 0.99049 0.9532 0.03714 0.0
H1990 H 0.95417 0.9047 0.03052 0.0
H1991 H 0.98665 0.88732 0.02886 0.0
C1992 C 0.91607 0.94813 0.01948 0.0
C1993 C 0.9136 0.96316 0.03063 0.0
C1994 C 0.934 0.93728 0.02081 0.0
C1995 C 0.94993 0.9412 0.03331 0.0
C1996 C 0.94719 0.95596 0.04477 0.0
C1997 C 0.92924 0.96679 0.04347 0.0
C1998 C 0.00806 0.9288 0.03482 0.0
C1999 C 0.00746 0.91016 0.03212 0.0
C2000 C 0.98941 0.93878 0.03567 0.0
C2001 C 0.96968 0.93037 0.03383 0.0
C2002 C 0.96908 0.91165 0.03171 0.0
C2003 C 0.98773 0.90167 0.03088 0.0
H2004 H 0.2008 0.63707 0.69791 0.0
H2005 H 0.22016 0.64601 0.75264 0.0
H2006 H 0.17942 0.66416 0.69893 0.0
H2007 H 0.19824 0.67278 0.75388 0.0
H2008 H 0.17929 0.73074 0.7427 0.0
H2009 H 0.1985 0.70251 0.7424 0.0
H2010 H 0.14894 0.67848 0.71086 0.0
H2011 H 0.12993 0.70691 0.71094 0.0
C2012 C 0.20019 0.64462 0.71029 0.0
C2013 C 0.2123 0.63939 0.72516 0.0
C2014 C 0.18785 0.66017 0.71089 0.0
C2015 C 0.18721 0.67083 0.72643 0.0
C2016 C 0.19869 0.66516 0.74154 0.0
C2017 C 0.21113 0.64969 0.74089 0.0
C2018 C 0.17243 0.7194 0.73581 0.0
C2019 C 0.15307 0.72112 0.72685 0.0
C2020 C 0.18341 0.70315 0.73568 0.0
C2021 C 0.17526 0.68809 0.72669 0.0
C2022 C 0.15587 0.68981 0.71773 0.0
C2023 C 0.14494 0.70613 0.71776 0.0
H2024 H 0.98997 0.43777 0.48674 0.0
H2025 H 0.02636 0.39101 0.47221 0.0
H2026 H 0.02137 0.45633 0.48393 0.0
H2027 H 0.05786 0.4097 0.46942 0.0
H2028 H 0.10466 0.45434 0.45046 0.0
H2029 H 0.07348 0.43505 0.45128 0.0
H2030 H 0.05472 0.45911 0.50139 0.0
H2031 H 0.08572 0.47833 0.50062 0.0
C2032 C 1.0046 0.43146 0.48274 0.0
C2033 C 1.00562 0.41287 0.47978 0.0
C2034 C 0.02265 0.4421 0.48128 0.0
C2035 C 0.04215 0.43445 0.47666 0.0
C2036 C 0.04305 0.41599 0.47296 0.0
C2037 C 0.025 0.40529 0.47459 0.0
C2038 C 0.09395 0.45542 0.46171 0.0
C2039 C 0.0977 0.46792 0.47545 0.0
C2040 C 0.07612 0.44435 0.46219 0.0
C2041 C 0.06154 0.44568 0.47631 0.0
C2042 C 0.06548 0.45796 0.49018 0.0
C2043 C 0.08337 0.46888 0.4898 0.0
H2044 H 0.52296 0.57886 0.98086 0.0
H2045 H 0.48553 0.62648 0.98939 0.0
H2046 H 0.49102 0.56082 0.98008 0.0
H2047 H 0.45349 0.6084 0.98833 0.0
H2048 H 0.40565 0.56645 0.01002 0.0
H2049 H 0.43615 0.58616 1.0073 0.0
H2050 H 0.45929 0.5543 0.9632 0.0
H2051 H 0.429 0.53443 0.96608 0.0
C2052 C 0.5079 0.58554 0.9823 0.0
C2053 C 0.50687 0.60413 0.98526 0.0
C2054 C 0.48954 0.57518 0.98177 0.0
C2055 C 0.46964 0.58312 0.98424 0.0
C2056 C 0.46856 0.6018 0.98664 0.0
C2057 C 0.48694 0.61219 0.9871 0.0
C2058 C 0.41714 0.56371 0.99965 0.0
C2059 C 0.41488 0.54877 0.98835 0.0
C2060 C 0.4346 0.57509 0.99802 0.0
C2061 C 0.45026 0.5718 0.98507 0.0
C2062 C 0.44771 0.5571 0.97348 0.0
C2063 C 0.43024 0.54575 0.97508 0.0
H2064 H 0.7315 0.805 0.85166 0.0
H2065 H 0.67078 0.79115 0.82977 0.0
H2066 H 0.73615 0.82747 0.82813 0.0
H2067 H 0.6755 0.81318 0.80608 0.0
H2068 H 0.67891 0.86776 0.77944 0.0
H2069 H 0.67554 0.84461 0.80207 0.0
H2070 H 0.74178 0.83234 0.79677 0.0
H2071 H 0.74544 0.85626 0.77481 0.0
C2072 C 0.71927 0.80661 0.84169 0.0
C2073 C 0.70068 0.79645 0.8427 0.0
C2074 C 0.72194 0.81945 0.82816 0.0
C2075 C 0.70612 0.82229 0.81523 0.0
C2076 C 0.6878 0.81172 0.81602 0.0
C2077 C 0.68508 0.79904 0.8296 0.0
C2078 C 0.69284 0.86029 0.78315 0.0
C2079 C 0.71247 0.86407 0.77525 0.0
C2080 C 0.69084 0.84678 0.79602 0.0
C2081 C 0.70837 0.83651 0.80128 0.0
C2082 C 0.72797 0.8401 0.79323 0.0
C2083 C 0.73001 0.85371 0.7804 0.0
H2084 H 0.45351 0.45074 0.13215 0.0
H2085 H 0.47169 0.50618 0.12604 0.0
H2086 H 0.43317 0.45253 0.10462 0.0
H2087 H 0.45045 0.50835 0.09897 0.0
H2088 H 0.43183 0.50018 0.0403 0.0
H2089 H 0.45022 0.4998 0.06898 0.0
H2090 H 0.40342 0.46328 0.09008 0.0
H2091 H 0.38579 0.46314 0.06112 0.0
C2092 C 0.45278 0.46344 0.12512 0.0
C2093 C 0.46426 0.47829 0.13126 0.0
C2094 C 0.44101 0.46452 0.10931 0.0
C2095 C 0.44013 0.48059 0.09937 0.0
C2096 C 0.45106 0.49563 0.10595 0.0
C2097 C 0.46311 0.49445 0.1216 0.0
C2098 C 0.42547 0.4922 0.05115 0.0
C2099 C 0.4075 0.48159 0.04845 0.0
C2100 C 0.43593 0.49201 0.06766 0.0
C2101 C 0.42844 0.48144 0.08199 0.0
C2102 C 0.41003 0.47125 0.07934 0.0
C2103 C 0.39982 0.47122 0.06275 0.0
H2104 H 0.84607 0.2141 0.34634 0.0
H2105 H 0.7785 0.21542 0.35302 0.0
H2106 H 0.84235 0.19121 0.32336 0.0
H2107 H 0.77477 0.19248 0.33002 0.0
H2108 H 0.7758 0.16519 0.27467 0.0
H2109 H 0.7788 0.18786 0.29801 0.0
H2110 H 0.83272 0.1601 0.31985 0.0
H2111 H 0.82976 0.1375 0.2965 0.0
C2112 C 0.83042 0.20941 0.34305 0.0
C2113 C 0.8126 0.21664 0.3516 0.0
C2114 C 0.82828 0.19625 0.32985 0.0
C2115 C 0.80826 0.18994 0.32484 0.0
C2116 C 0.79042 0.19719 0.33335 0.0
C2117 C 0.79256 0.21037 0.34656 0.0
C2118 C 0.78816 0.1638 0.28454 0.0
C2119 C 0.8026 0.14952 0.28362 0.0
C2120 C 0.78988 0.17683 0.29795 0.0
C2121 C 0.80606 0.17588 0.31079 0.0
C2122 C 0.82031 0.16146 0.30999 0.0
C2123 C 0.81861 0.14847 0.29659 0.0
H2124 H 0.03696 0.51382 0.62179 0.0
H2125 H 0.04757 0.57097 0.6245 0.0
H2126 H 0.06035 0.51192 0.59599 0.0
H2127 H 0.07061 0.56912 0.59841 0.0
H2128 H 0.12529 0.55674 0.56029 0.0
H2129 H 0.10412 0.55822 0.58751 0.0
H2130 H 0.06019 0.52031 0.56484 0.0
H2131 H 0.08138 0.51878 0.53772 0.0
C2132 C 0.04435 0.52599 0.61695 0.0
C2133 C 0.04031 0.54257 0.62523 0.0
C2134 C 0.05765 0.52491 0.60204 0.0
C2135 C 0.06725 0.54038 0.59497 0.0
C2136 C 0.06366 0.55689 0.60356 0.0
C2137 C 0.05036 0.55797 0.61851 0.0
C2138 C 0.11105 0.54881 0.56105 0.0
C2139 C 0.1051 0.53762 0.54675 0.0
C2140 C 0.09889 0.54965 0.57669 0.0
C2141 C 0.08045 0.53935 0.57844 0.0
C2142 C 0.07451 0.52818 0.56414 0.0
C2143 C 0.08667 0.52731 0.54852 0.0
H2144 H 0.66734 0.21232 0.66668 0.0
H2145 H 0.73503 0.21421 0.66043 0.0
H2146 H 0.67106 0.18857 0.68869 0.0
H2147 H 0.73866 0.19056 0.68279 0.0
H2148 H 0.73471 0.16178 0.73838 0.0
H2149 H 0.73278 0.18518 0.71558 0.0
H2150 H 0.68215 0.15676 0.68954 0.0
H2151 H 0.68422 0.13327 0.71204 0.0
C2152 C 0.68302 0.20764 0.66981 0.0
C2153 C 0.70085 0.21524 0.66155 0.0
C2154 C 0.68514 0.19398 0.68252 0.0
C2155 C 0.70515 0.1876 0.68743 0.0
C2156 C 0.72303 0.1953 0.6794 0.0
C2157 C 0.72091 0.2089 0.66657 0.0
C2158 C 0.72334 0.16035 0.72769 0.0
C2159 C 0.70948 0.14561 0.72724 0.0
C2160 C 0.72224 0.17381 0.71461 0.0
C2161 C 0.70718 0.17292 0.70084 0.0
C2162 C 0.69365 0.15803 0.70017 0.0
C2163 C 0.69483 0.14455 0.71314 0.0
H2164 H 0.08016 0.45855 0.97992 0.0
H2165 H 0.12314 0.50025 0.96336 0.0
H2166 H 0.06236 0.4604 0.95108 0.0
H2167 H 0.10553 0.50199 0.93441 0.0
H2168 H 0.05137 0.51574 0.8955 0.0
H2169 H 0.07275 0.51235 0.92233 0.0
H2170 H 0.06536 0.45484 0.91948 0.0
H2171 H 0.04347 0.45827 0.89288 0.0
C2172 C 0.08603 0.46791 0.97002 0.0
C2173 C 0.10299 0.47933 0.97402 0.0
C2174 C 0.07585 0.46897 0.95343 0.0
C2175 C 0.08244 0.48141 0.94039 0.0
C2176 C 0.09977 0.49249 0.94424 0.0
C2177 C 0.10988 0.49149 0.96085 0.0
C2178 C 0.05451 0.50234 0.90044 0.0
C2179 C 0.0456 0.48729 0.89206 0.0
C2180 C 0.06686 0.50039 0.91583 0.0
C2181 C 0.0707 0.48332 0.92319 0.0
C2182 C 0.06243 0.46821 0.91439 0.0
C2183 C 0.05001 0.47017 0.89903 0.0
H2184 H 0.77862 0.85139 0.23961 0.0
H2185 H 0.8363 0.8758 0.22093 0.0
H2186 H 0.78111 0.82904 0.2159 0.0
H2187 H 0.83877 0.85351 0.19724 0.0
H2188 H 0.84875 0.79967 0.16959 0.0
H2189 H 0.84565 0.82196 0.19319 0.0
H2190 H 0.77868 0.82549 0.18362 0.0
H2191 H 0.78178 0.8031 0.15997 0.0
C2192 C 0.79173 0.85212 0.23037 0.0
C2193 C 0.80729 0.86542 0.23226 0.0
C2194 C 0.79316 0.83928 0.21674 0.0
C2195 C 0.81018 0.83942 0.20466 0.0
C2196 C 0.82564 0.85279 0.20649 0.0
C2197 C 0.82423 0.8656 0.22011 0.0
C2198 C 0.83338 0.80529 0.17236 0.0
C2199 C 0.81554 0.79959 0.16276 0.0
C2200 C 0.8316 0.81811 0.18593 0.0
C2201 C 0.81193 0.82561 0.19029 0.0
C2202 C 0.79404 0.81984 0.18079 0.0
C2203 C 0.79582 0.80699 0.1672 0.0
H2204 H 0.43417 0.52378 0.48787 0.0
H2205 H 0.38064 0.53916 0.45576 0.0
H2206 H 0.45631 0.52338 0.46096 0.0
H2207 H 0.4027 0.53869 0.42886 0.0
H2208 H 0.4458 0.51438 0.38397 0.0
H2209 H 0.42321 0.51502 0.41058 0.0
H2210 H 0.46958 0.54689 0.43829 0.0
H2211 H 0.49204 0.54648 0.41172 0.0
C2212 C 0.42714 0.52699 0.47506 0.0
C2213 C 0.40571 0.53157 0.47393 0.0
C2214 C 0.43981 0.52689 0.45969 0.0
C2215 C 0.43122 0.53103 0.44282 0.0
C2216 C 0.40973 0.53537 0.44167 0.0
C2217 C 0.39715 0.53578 0.45707 0.0
C2218 C 0.45111 0.5216 0.3957 0.0
C2219 C 0.47069 0.53041 0.3957 0.0
C2220 C 0.43816 0.522 0.4109 0.0
C2221 C 0.44468 0.53094 0.42652 0.0
C2222 C 0.46423 0.53976 0.4265 0.0
C2223 C 0.47701 0.53962 0.41123 0.0
H2224 H 0.77461 0.71897 0.87288 0.0
H2225 H 0.74042 0.73266 0.82473 0.0
H2226 H 0.80681 0.71517 0.85516 0.0
H2227 H 0.77254 0.729 0.80719 0.0
H2228 H 0.83838 0.74507 0.78741 0.0
H2229 H 0.80685 0.74664 0.80596 0.0
H2230 H 0.82234 0.69555 0.82973 0.0
H2231 H 0.85401 0.69381 0.81097 0.0
C2232 C 0.77389 0.72097 0.85852 0.0
C2233 C 0.75493 0.72618 0.85025 0.0
C2234 C 0.79233 0.71877 0.84839 0.0
C2235 C 0.79223 0.72198 0.82983 0.0
C2236 C 0.77315 0.72667 0.82151 0.0
C2237 C 0.75471 0.72863 0.83157 0.0
C2238 C 0.83522 0.73419 0.79666 0.0
C2239 C 0.84874 0.71928 0.79766 0.0
C2240 C 0.81704 0.73505 0.8072 0.0
C2241 C 0.81202 0.72114 0.81917 0.0
C2242 C 0.82583 0.70648 0.82063 0.0
C2243 C 0.84393 0.70548 0.80987 0.0
H2244 H 0.56147 0.55682 0.14173 0.0
H2245 H 0.54979 0.51442 0.10378 0.0
H2246 H 0.5648 0.57832 0.11705 0.0
H2247 H 0.55334 0.53587 0.07905 0.0
H2248 H 0.58843 0.57739 0.04222 0.0
H2249 H 0.58413 0.55573 0.0666 0.0
H2250 H 0.53932 0.59096 0.09213 0.0
H2251 H 0.54348 0.61258 0.06755 0.0
C2252 C 0.55983 0.55209 0.1281 0.0
C2253 C 0.55546 0.53395 0.12463 0.0
C2254 C 0.56152 0.5644 0.11402 0.0
C2255 C 0.55928 0.55874 0.09618 0.0
C2256 C 0.5552 0.54056 0.09269 0.0
C2257 C 0.5531 0.52833 0.10679 0.0
C2258 C 0.57768 0.58049 0.05305 0.0
C2259 C 0.56633 0.59667 0.05307 0.0
C2260 C 0.57512 0.56807 0.06691 0.0
C2261 C 0.56145 0.57172 0.08124 0.0
C2262 C 0.55006 0.58789 0.08127 0.0
C2263 C 0.55232 0.60017 0.0672 0.0
H2264 H 0.65178 0.3241 0.31311 0.0
H2265 H 0.66917 0.27054 0.29678 0.0
H2266 H 0.68075 0.32428 0.3346 0.0
H2267 H 0.69782 0.27062 0.31843 0.0
H2268 H 0.76037 0.28292 0.34454 0.0
H2269 H 0.7318 0.28489 0.32286 0.0
H2270 H 0.69248 0.31055 0.36252 0.0
H2271 H 0.72119 0.30888 0.38415 0.0
C2272 C 0.66163 0.31229 0.31421 0.0
C2273 C 0.65814 0.29732 0.30317 0.0
C2274 C 0.67823 0.31239 0.32657 0.0
C2275 C 0.69176 0.29754 0.32814 0.0
C2276 C 0.68799 0.28244 0.31733 0.0
C2277 C 0.6714 0.28233 0.30502 0.0
C2278 C 0.74574 0.2892 0.34859 0.0
C2279 C 0.74308 0.29568 0.36613 0.0
C2280 C 0.72927 0.29017 0.33619 0.0
C2281 C 0.70972 0.29766 0.341 0.0
C2282 C 0.70734 0.30478 0.35833 0.0
C2283 C 0.72382 0.30378 0.37075 0.0
H2284 H 0.95559 0.45352 0.63742 0.0
H2285 H 0.96156 0.4967 0.59926 0.0
H2286 H 0.9529 0.43196 0.61282 0.0
H2287 H 0.95864 0.47514 0.57459 0.0
H2288 H 0.92477 0.4319 0.53904 0.0
H2289 H 0.92895 0.45369 0.56325 0.0
H2290 H 0.97735 0.42063 0.58687 0.0
H2291 H 0.97328 0.39888 0.56248 0.0
C2292 C 0.9562 0.45839 0.62377 0.0
C2293 C 0.95869 0.47679 0.62023 0.0
C2294 C 0.95485 0.44606 0.60971 0.0
C2295 C 0.95557 0.45189 0.59182 0.0
C2296 C 0.95796 0.47029 0.58827 0.0
C2297 C 0.95972 0.4826 0.60234 0.0
C2298 C 0.93625 0.42928 0.54943 0.0
C2299 C 0.94864 0.41366 0.54894 0.0
C2300 C 0.93876 0.44181 0.56318 0.0
C2301 C 0.95345 0.43883 0.57693 0.0
C2302 C 0.96583 0.4232 0.57648 0.0
C2303 C 0.9636 0.41083 0.56251 0.0
H2304 H 0.85728 0.31457 0.70213 0.0
H2305 H 0.83587 0.26616 0.7283 0.0
H2306 H 0.8257 0.31443 0.68335 0.0
H2307 H 0.80455 0.26603 0.70955 0.0
H2308 H 0.74055 0.2814 0.68782 0.0
H2309 H 0.77211 0.28416 0.70621 0.0
H2310 H 0.80881 0.29645 0.65904 0.0
H2311 H 0.77721 0.29382 0.6406 0.0
C2312 C 0.84595 0.30384 0.70379 0.0
C2313 C 0.84912 0.2904 0.71675 0.0
C2314 C 0.82788 0.30376 0.69302 0.0
C2315 C 0.81251 0.29033 0.6951 0.0
C2316 C 0.81589 0.27675 0.70784 0.0
C2317 C 0.83397 0.27675 0.71849 0.0
C2318 C 0.75527 0.28493 0.68137 0.0
C2319 C 0.75634 0.28729 0.66271 0.0
C2320 C 0.7734 0.28637 0.6919 0.0
C2321 C 0.79301 0.2903 0.68405 0.0
C2322 C 0.79393 0.29346 0.6655 0.0
C2323 C 0.77581 0.29191 0.65494 0.0
H2324 H 0.99418 0.53044 0.90382 0.0
H2325 H 0.92664 0.53072 0.89716 0.0
H2326 H 0.99123 0.55378 0.9265 0.0
H2327 H 0.9236 0.55387 0.91999 0.0
H2328 H 0.9272 0.60863 0.9464 0.0
H2329 H 0.93085 0.58495 0.92424 0.0
H2330 H 0.97946 0.56024 0.95638 0.0
H2331 H 0.97594 0.58418 0.97847 0.0
C2332 C 0.97866 0.53529 0.90737 0.0
C2333 C 0.96064 0.52871 0.8986 0.0
C2334 C 0.97696 0.5487 0.9204 0.0
C2335 C 0.95718 0.55584 0.92506 0.0
C2336 C 0.93914 0.549 0.91651 0.0
C2337 C 0.94086 0.53567 0.90343 0.0
C2338 C 0.93859 0.5981 0.9488 0.0
C2339 C 0.95121 0.59829 0.96426 0.0
C2340 C 0.94066 0.58446 0.9361 0.0
C2341 C 0.95534 0.57054 0.93854 0.0
C2342 C 0.96816 0.57083 0.95393 0.0
C2343 C 0.96615 0.58456 0.96661 0.0
H2344 H 0.65923 0.70016 0.2029 0.0
H2345 H 0.67906 0.74927 0.22848 0.0
H2346 H 0.69021 0.70137 0.18339 0.0
H2347 H 0.7099 0.7504 0.20905 0.0
H2348 H 0.77428 0.73553 0.18637 0.0
H2349 H 0.74307 0.73256 0.2052 0.0
H2350 H 0.70556 0.72052 0.15854 0.0
H2351 H 0.73682 0.7235 0.13959 0.0
C2352 C 0.6701 0.71125 0.20431 0.0
C2353 C 0.66665 0.7246 0.21728 0.0
C2354 C 0.68782 0.71195 0.1931 0.0
C2355 C 0.70259 0.72589 0.19478 0.0
C2356 C 0.69898 0.73934 0.2076 0.0
C2357 C 0.68119 0.73876 0.21864 0.0
C2358 C 0.75945 0.73205 0.1801 0.0
C2359 C 0.75808 0.72981 0.16144 0.0
C2360 C 0.74153 0.73049 0.1909 0.0
C2361 C 0.72181 0.72647 0.18334 0.0
C2362 C 0.72054 0.72356 0.16477 0.0
C2363 C 0.73845 0.72532 0.15392 0.0
H2364 H 0.55018 0.50315 0.42155 0.0
H2365 H 0.5615 0.46183 0.38231 0.0
H2366 H 0.5535 0.48092 0.4456 0.0
H2367 H 0.56468 0.4396 0.40629 0.0
H2368 H 0.54397 0.40361 0.45442 0.0
H2369 H 0.53996 0.42594 0.43053 0.0
H2370 H 0.58369 0.4608 0.45776 0.0
H2371 H 0.58778 0.43846 0.48153 0.0
C2372 C 0.5533 0.48931 0.41809 0.0
C2373 C 0.55568 0.48423 0.40009 0.0
C2374 C 0.55531 0.47663 0.43182 0.0
C2375 C 0.55933 0.45855 0.42778 0.0
C2376 C 0.56146 0.45343 0.40977 0.0
C2377 C 0.55983 0.46616 0.39607 0.0
C2378 C 0.55264 0.41607 0.45529 0.0
C2379 C 0.56625 0.41928 0.46977 0.0
C2380 C 0.55046 0.42878 0.4416 0.0
C2381 C 0.56153 0.44508 0.44231 0.0
C2382 C 0.5749 0.44839 0.45692 0.0
C2383 C 0.57737 0.43556 0.47043 0.0
H2384 H 0.80422 0.87301 0.7668 0.0
H2385 H 0.79684 0.8718 0.70928 0.0
H2386 H 0.82656 0.84646 0.76528 0.0
H2387 H 0.81894 0.8451 0.70781 0.0
H2388 H 0.87372 0.80516 0.71052 0.0
H2389 H 0.85466 0.8335 0.71208 0.0
H2390 H 0.8214 0.81466 0.75894 0.0
H2391 H 0.84025 0.78636 0.75734 0.0
C2392 C 0.80752 0.86721 0.7538 0.0
C2393 C 0.79865 0.87454 0.73817 0.0
C2394 C 0.82021 0.85188 0.75295 0.0
C2395 C 0.82441 0.84353 0.73644 0.0
C2396 C 0.81617 0.85125 0.72074 0.0
C2397 C 0.80343 0.86655 0.72159 0.0
C2398 C 0.86226 0.80697 0.7211 0.0
C2399 C 0.85861 0.79336 0.7338 0.0
C2400 C 0.85134 0.82327 0.72201 0.0
C2401 C 0.83654 0.82642 0.73568 0.0
C2402 C 0.83297 0.81285 0.74842 0.0
C2403 C 0.84382 0.79656 0.74749 0.0
H2404 H 0.30594 0.63857 0.25288 0.0
H2405 H 0.28103 0.65232 0.30497 0.0
H2406 H 0.32867 0.66494 0.25377 0.0
H2407 H 0.30349 0.67879 0.30572 0.0
H2408 H 0.36175 0.71481 0.30863 0.0
H2409 H 0.34012 0.68787 0.30801 0.0
H2410 H 0.32578 0.6976 0.25229 0.0
H2411 H 0.34802 0.72427 0.25276 0.0
C2412 C 0.30537 0.64715 0.26456 0.0
C2413 C 0.29165 0.64328 0.27886 0.0
C2414 C 0.31828 0.66237 0.265 0.0
C2415 C 0.31785 0.67407 0.27977 0.0
C2416 C 0.3044 0.67 0.29421 0.0
C2417 C 0.29145 0.65483 0.29375 0.0
C2418 C 0.35412 0.71117 0.2962 0.0
C2419 C 0.35672 0.72174 0.28074 0.0
C2420 C 0.34153 0.69578 0.29589 0.0
C2421 C 0.33122 0.69051 0.28009 0.0
C2422 C 0.33369 0.70114 0.26464 0.0
C2423 C 0.34624 0.71658 0.26497 0.0
H2424 H 0.52747 0.12533 0.5467 0.0
H2425 H 0.49048 0.07893 0.53222 0.0
H2426 H 0.55889 0.10649 0.54872 0.0
H2427 H 0.52184 0.06019 0.5343 0.0
H2428 H 0.58572 0.03831 0.51595 0.0
H2429 H 0.55467 0.0575 0.51617 0.0
H2430 H 0.57499 0.081 0.56607 0.0
H2431 H 0.60622 0.06177 0.56589 0.0
C2432 C 0.52596 0.11109 0.5442 0.0
C2433 C 0.50644 0.10367 0.53922 0.0
C2434 C 0.54397 0.1003 0.54538 0.0
C2435 C 0.5429 0.08189 0.54146 0.0
C2436 C 0.52325 0.07438 0.53711 0.0
C2437 C 0.50522 0.08512 0.53607 0.0
C2438 C 0.5837 0.04763 0.52694 0.0
C2439 C 0.59848 0.04847 0.54093 0.0
C2440 C 0.56578 0.05853 0.52713 0.0
C2441 C 0.56226 0.07064 0.54123 0.0
C2442 C 0.57729 0.07183 0.555 0.0
C2443 C 0.59516 0.06079 0.5549 0.0
H2444 H 0.24445 0.35919 0.79264 0.0
H2445 H 0.19391 0.3887 0.76744 0.0
H2446 H 0.22225 0.33251 0.79371 0.0
H2447 H 0.17164 0.36193 0.76868 0.0
H2448 H 0.13263 0.31474 0.79288 0.0
H2449 H 0.15433 0.34184 0.79231 0.0
H2450 H 0.20622 0.31125 0.77079 0.0
H2451 H 0.18449 0.28415 0.77138 0.0
C2452 C 0.22855 0.36004 0.78745 0.0
C2453 C 0.22095 0.37611 0.77996 0.0
C2454 C 0.2159 0.3447 0.78796 0.0
C2455 C 0.19524 0.3451 0.78123 0.0
C2456 C 0.18746 0.36125 0.77406 0.0
C2457 C 0.20024 0.37655 0.77331 0.0
C2458 C 0.1487 0.31379 0.78814 0.0
C2459 C 0.15688 0.29729 0.78223 0.0
C2460 C 0.16106 0.32933 0.78766 0.0
C2461 C 0.18198 0.32866 0.78152 0.0
C2462 C 0.1902 0.31215 0.77571 0.0
C2463 C 0.17773 0.29667 0.77593 0.0
H2464 H 0.42463 0.48004 0.55411 0.0
H2465 H 0.40348 0.44771 0.50961 0.0
H2466 H 0.45539 0.46075 0.55753 0.0
H2467 H 0.43437 0.42852 0.51298 0.0
H2468 H 0.48349 0.38889 0.53262 0.0
H2469 H 0.45116 0.40658 0.53337 0.0
H2470 H 0.48783 0.45482 0.5403 0.0
H2471 H 0.52016 0.43716 0.5397 0.0
C2472 C 0.42644 0.46875 0.54513 0.0
C2473 C 0.41159 0.46547 0.53153 0.0
C2474 C 0.44415 0.45775 0.54705 0.0
C2475 C 0.44738 0.44313 0.53551 0.0
C2476 C 0.43224 0.43956 0.52222 0.0
C2477 C 0.41459 0.45063 0.52022 0.0
C2478 C 0.48467 0.40324 0.53459 0.0
C2479 C 0.50446 0.41161 0.53604 0.0
C2480 C 0.46613 0.41339 0.53487 0.0
C2481 C 0.46691 0.43213 0.53674 0.0
C2482 C 0.48665 0.4404 0.53896 0.0
C2483 C 0.5052 0.43027 0.53856 0.0
H2484 H 0.64109 0.21442 0.25546 0.0
H2485 H 0.68058 0.23066 0.21131 0.0
H2486 H 0.65931 0.18564 0.25678 0.0
H2487 H 0.69939 0.20228 0.21293 0.0
H2488 H 0.72022 0.14485 0.20998 0.0
H2489 H 0.69821 0.17149 0.20762 0.0
H2490 H 0.69099 0.1721 0.26523 0.0
H2491 H 0.71214 0.14499 0.2674 0.0
C2492 C 0.65379 0.21187 0.24612 0.0
C2493 C 0.65937 0.22481 0.23327 0.0
C2494 C 0.66433 0.19537 0.24689 0.0
C2495 C 0.68094 0.19149 0.23497 0.0
C2496 C 0.68643 0.2045 0.2221 0.0
C2497 C 0.6757 0.22087 0.22119 0.0
C2498 C 0.71369 0.15056 0.22211 0.0
C2499 C 0.71796 0.14278 0.23887 0.0
C2500 C 0.7012 0.16598 0.22079 0.0
C2501 C 0.6929 0.17422 0.23624 0.0
C2502 C 0.69678 0.16611 0.25297 0.0
C2503 C 0.70903 0.15054 0.25425 0.0
H2504 H 0.60374 0.96268 0.95883 0.0
H2505 H 0.59459 0.95771 0.01598 0.0
H2506 H 0.57503 0.94119 0.95379 0.0
H2507 H 0.56583 0.93665 0.01089 0.0
H2508 H 0.50047 0.91738 0.9941 0.0
H2509 H 0.52859 0.93957 0.99583 0.0
H2510 H 0.56776 0.90662 0.96197 0.0
H2511 H 0.53968 0.8841 0.96042 0.0
C2512 C 0.59564 0.957 0.97029 0.0
C2513 C 0.60147 0.96186 0.98781 0.0
C2514 C 0.57927 0.9447 0.96739 0.0
C2515 C 0.56814 0.93738 0.98195 0.0
C2516 C 0.57401 0.94223 0.99942 0.0
C2517 C 0.59059 0.9542 1.00232 0.0
C2518 C 0.51491 0.91494 0.98676 0.0
C2519 C 0.51784 0.89889 0.97717 0.0
C2520 C 0.53106 0.92762 0.98786 0.0
C2521 C 0.55039 0.92473 0.97917 0.0
C2522 C 0.55298 0.90918 0.96878 0.0
C2523 C 0.53692 0.8963 0.96792 0.0
H2524 H 0.98611 0.1246 0.46759 0.0
H2525 H 0.01989 0.07706 0.48406 0.0
H2526 H 0.95402 0.10672 0.46399 0.0
H2527 H 0.98789 0.05938 0.48059 0.0
H2528 H 0.9219 0.04031 0.49655 0.0
H2529 H 0.95323 0.0591 0.49778 0.0
H2530 H 0.93892 0.08029 0.44537 0.0
H2531 H 0.90745 0.06129 0.44398 0.0
C2532 C 0.98678 0.11033 0.47023 0.0
C2533 C 1.00558 0.10229 0.47618 0.0
C2534 C 0.9684 0.10011 0.46814 0.0
C2535 C 0.9684 0.08171 0.47222 0.0
C2536 C 0.98735 0.07359 0.4776 0.0
C2537 C 1.00573 0.08372 0.47946 0.0
C2538 C 0.92526 0.04906 0.48531 0.0
C2539 C 0.91215 0.04924 0.47013 0.0
C2540 C 0.94333 0.05973 0.48598 0.0
C2541 C 0.94864 0.07102 0.47159 0.0
C2542 C 0.93519 0.07172 0.45665 0.0
C2543 C 0.91721 0.06082 0.45586 0.0
H2544 H 0.09474 0.13822 0.43486 0.0
H2545 H 0.08828 0.18309 0.47099 0.0
H2546 H 0.12179 0.15452 0.41818 0.0
H2547 H 0.11515 0.19938 0.45424 0.0
H2548 H 0.1799 0.21517 0.43226 0.0
H2549 H 0.15317 0.19826 0.44856 0.0
H2550 H 0.1262 0.18076 0.39846 0.0
H2551 H 0.15308 0.19756 0.38211 0.0
C2552 C 0.09901 0.15158 0.43922 0.0
C2553 C 0.08931 0.15931 0.45431 0.0
C2554 C 0.11447 0.16096 0.4296 0.0
C2555 C 0.12073 0.17826 0.43489 0.0
C2556 C 0.11094 0.186 0.44993 0.0
C2557 C 0.09541 0.17668 0.45947 0.0
C2558 C 0.16834 0.20767 0.42469 0.0
C2559 C 0.16868 0.20776 0.40584 0.0
C2560 C 0.1529 0.19805 0.43405 0.0
C2561 C 0.13743 0.18819 0.42485 0.0
C2562 C 0.13796 0.18807 0.406 0.0
C2563 C 0.15334 0.19778 0.39661 0.0
H2564 H 0.0367 0.89799 0.66276 0.0
H2565 H 0.08404 0.93423 0.68251 0.0
H2566 H 0.05256 0.87346 0.67953 0.0
H2567 H 0.10111 0.90958 0.69836 0.0
H2568 H 0.11873 0.8658 0.73724 0.0
H2569 H 0.10089 0.89035 0.722 0.0
H2570 H 0.07931 0.85327 0.68138 0.0
H2571 H 0.096 0.82868 0.69762 0.0
C2572 C 0.05074 0.90058 0.67056 0.0
C2573 C 0.05919 0.91795 0.67136 0.0
C2574 C 0.06001 0.88649 0.68011 0.0
C2575 C 0.07835 0.88928 0.69037 0.0
C2576 C 0.0868 0.90678 0.69102 0.0
C2577 C 0.07716 0.92097 0.68183 0.0
C2578 C 0.11004 0.863 0.72508 0.0
C2579 C 0.10869 0.8454 0.71858 0.0
C2580 C 0.09993 0.8771 0.71619 0.0
C2581 C 0.08863 0.87405 0.70023 0.0
C2582 C 0.08738 0.8563 0.69376 0.0
C2583 C 0.09706 0.84213 0.70297 0.0
H2584 H 0.43244 0.86579 0.92773 0.0
H2585 H 0.41564 0.83639 0.97555 0.0
H2586 H 0.40465 0.8503 0.91124 0.0
H2587 H 0.38825 0.82072 0.95904 0.0
H2588 H 0.32744 0.80834 0.9298 0.0
H2589 H 0.35436 0.82555 0.94543 0.0
H2590 H 0.39538 0.82106 0.89946 0.0
H2591 H 0.36825 0.80417 0.88366 0.0
C2592 C 0.42288 0.856 0.93472 0.0
C2593 C 0.4263 0.85239 0.95299 0.0
C2594 C 0.407 0.84704 0.92524 0.0
C2595 C 0.39409 0.83428 0.9338 0.0
C2596 C 0.39759 0.83066 0.95206 0.0
C2597 C 0.41346 0.83958 0.96151 0.0
C2598 C 0.34213 0.81112 0.92296 0.0
C2599 C 0.34565 0.80481 0.90546 0.0
C2600 C 0.35766 0.8209 0.93199 0.0
C2601 C 0.37716 0.82462 0.92379 0.0
C2602 C 0.3805 0.81863 0.90614 0.0
C2603 C 0.36495 0.80885 0.8971 0.0
H2604 H 0.3782 0.15034 0.2261 0.0
H2605 H 0.42922 0.18456 0.20901 0.0
H2606 H 0.39489 0.12486 0.21137 0.0
H2607 H 0.44616 0.15895 0.19445 0.0
H2608 H 0.45382 0.11393 0.15193 0.0
H2609 H 0.43915 0.13943 0.16813 0.0
H2610 H 0.42636 0.10521 0.21354 0.0
H2611 H 0.44075 0.07959 0.19717 0.0
C2612 C 0.39299 0.15243 0.2192 0.0
C2613 C 0.4023 0.16954 0.21865 0.0
C2614 C 0.40268 0.13777 0.21091 0.0
C2615 C 0.42186 0.13985 0.20171 0.0
C2616 C 0.43131 0.15692 0.20131 0.0
C2617 C 0.4217 0.17156 0.20977 0.0
C2618 C 0.44781 0.11181 0.16534 0.0
C2619 C 0.44835 0.09466 0.1732 0.0
C2620 C 0.43962 0.12649 0.17471 0.0
C2621 C 0.43156 0.12437 0.19213 0.0
C2622 C 0.43228 0.10726 0.20008 0.0
C2623 C 0.44068 0.09261 0.19076 0.0
H2624 H 0.16652 0.7899 0.09016 0.0
H2625 H 0.18395 0.83895 0.11701 0.0
H2626 H 0.13957 0.80595 0.07346 0.0
H2627 H 0.15647 0.85497 0.10069 0.0
H2628 H 0.12207 0.88155 0.05339 0.0
H2629 H 0.14797 0.86592 0.07169 0.0
H2630 H 0.10633 0.82024 0.07537 0.0
H2631 H 0.08074 0.83568 0.05654 0.0
C2632 C 0.16447 0.80409 0.09265 0.0
C2633 C 0.17749 0.81311 0.10494 0.0
C2634 C 0.14886 0.81332 0.08313 0.0
C2635 C 0.1457 0.83182 0.08567 0.0
C2636 C 0.15858 0.84079 0.09814 0.0
C2637 C 0.17429 0.83157 0.10761 0.0
C2638 C 0.11836 0.86821 0.05818 0.0
C2639 C 0.09931 0.85987 0.0534 0.0
C2640 C 0.13322 0.85925 0.0688 0.0
C2641 C 0.12939 0.84172 0.07504 0.0
C2642 C 0.11008 0.83357 0.07058 0.0
C2643 C 0.09528 0.84249 0.05986 0.0
H2644 H 0.41081 0.92791 0.35029 0.0
H2645 H 0.47296 0.91938 0.32837 0.0
H2646 H 0.39874 0.90029 0.33656 0.0
H2647 H 0.46081 0.89148 0.31453 0.0
H2648 H 0.42315 0.85086 0.27897 0.0
H2649 H 0.43726 0.87871 0.29149 0.0
H2650 H 0.40375 0.86854 0.34084 0.0
H2651 H 0.38975 0.84096 0.3284 0.0
C2652 C 0.42199 0.92007 0.34265 0.0
C2653 C 0.44296 0.92581 0.34068 0.0
C2654 C 0.41505 0.90417 0.33475 0.0
C2655 C 0.42886 0.89347 0.32463 0.0
C2656 C 0.44972 0.89942 0.32217 0.0
C2657 C 0.45669 0.91542 0.3301 0.0
C2658 C 0.41898 0.8545 0.29254 0.0
C2659 C 0.40505 0.84375 0.30256 0.0
C2660 C 0.42707 0.87047 0.29973 0.0
C2661 C 0.42141 0.87604 0.3171 0.0
C2662 C 0.40803 0.86495 0.32726 0.0
C2663 C 0.39997 0.84908 0.3201 0.0
H2664 H 0.43929 0.18742 0.55876 0.0
H2665 H 0.39961 0.14066 0.56409 0.0
H2666 H 0.41379 0.20498 0.57583 0.0
H2667 H 0.37411 0.15829 0.58117 0.0
H2668 H 0.3233 0.2024 0.59119 0.0
H2669 H 0.34899 0.18361 0.5756 0.0
H2670 H 0.39907 0.20724 0.60673 0.0
H2671 H 0.37347 0.22601 0.62231 0.0
C2672 C 0.42519 0.18085 0.56364 0.0
C2673 C 0.42153 0.16261 0.56004 0.0
C2674 C 0.41061 0.19091 0.5735 0.0
C2675 C 0.39189 0.18305 0.57986 0.0
C2676 C 0.38827 0.16479 0.57633 0.0
C2677 C 0.40297 0.15467 0.56663 0.0
C2678 C 0.33977 0.20352 0.59479 0.0
C2679 C 0.34629 0.21576 0.608 0.0
C2680 C 0.35449 0.19269 0.58591 0.0
C2681 C 0.3761 0.19396 0.58987 0.0
C2682 C 0.38258 0.20606 0.60321 0.0
C2683 C 0.36785 0.21675 0.61222 0.0
H2684 H 0.12516 0.15289 0.78018 0.0
H2685 H 0.08681 0.19025 0.80974 0.0
H2686 H 0.1062 0.12788 0.79369 0.0
H2687 H 0.06851 0.16541 0.82415 0.0
H2688 H 0.02616 0.11895 0.8366 0.0
H2689 H 0.04417 0.14298 0.82074 0.0
H2690 H 0.10089 0.1108 0.81913 0.0
H2691 H 0.08211 0.08638 0.83411 0.0
C2692 C 0.11279 0.15571 0.78977 0.0
C2693 C 0.10741 0.1735 0.7939 0.0
C2694 C 0.10195 0.14136 0.79763 0.0
C2695 C 0.08568 0.14443 0.81011 0.0
C2696 C 0.08052 0.16234 0.81431 0.0
C2697 C 0.09108 0.17666 0.80616 0.0
C2698 C 0.04245 0.11704 0.83272 0.0
C2699 C 0.0528 0.10087 0.83662 0.0
C2700 C 0.05291 0.13089 0.82376 0.0
C2701 C 0.07422 0.12912 0.81878 0.0
C2702 C 0.08445 0.11271 0.82246 0.0
C2703 C 0.07377 0.09869 0.83111 0.0
H2704 H 0.20819 0.40453 0.15073 0.0
H2705 H 0.20234 0.45112 0.18465 0.0
H2706 H 0.19326 0.42136 0.12577 0.0
H2707 H 0.18793 0.46812 0.15953 0.0
H2708 H 0.13764 0.48381 0.11769 0.0
H2709 H 0.15529 0.46846 0.14223 0.0
H2710 H 0.20032 0.44625 0.10495 0.0
H2711 H 0.18223 0.46135 0.08023 0.0
C2712 C 0.20376 0.41837 0.15288 0.0
C2713 C 0.20634 0.42641 0.16979 0.0
C2714 C 0.19543 0.4281 0.13848 0.0
C2715 C 0.18935 0.44609 0.14062 0.0
C2716 C 0.19225 0.45422 0.15745 0.0
C2717 C 0.20069 0.44452 0.17182 0.0
C2718 C 0.15126 0.47562 0.11468 0.0
C2719 C 0.15839 0.4737 0.09694 0.0
C2720 C 0.16155 0.46697 0.12881 0.0
C2721 C 0.17923 0.45608 0.12559 0.0
C2722 C 0.18663 0.4544 0.10788 0.0
C2723 C 0.17639 0.46318 0.09373 0.0
H2724 H 0.72242 0.07585 0.85029 0.0
H2725 H 0.6606 0.09854 0.84225 0.0
H2726 H 0.70994 0.06118 0.87773 0.0
H2727 H 0.64815 0.08394 0.86932 0.0
H2728 H 0.6385 0.07422 0.92822 0.0
H2729 H 0.65285 0.08731 0.90104 0.0
H2730 H 0.68622 0.03807 0.88998 0.0
H2731 H 0.67183 0.02493 0.91748 0.0
C2732 C 0.70614 0.07755 0.85426 0.0
C2733 C 0.69261 0.0886 0.84421 0.0
C2734 C 0.69897 0.06915 0.86998 0.0
C2735 C 0.67811 0.0716 0.87593 0.0
C2736 C 0.66446 0.08214 0.86547 0.0
C2737 C 0.67161 0.09053 0.84988 0.0
C2738 C 0.64878 0.0661 0.91998 0.0
C2739 C 0.65376 0.04842 0.92496 0.0
C2740 C 0.65703 0.07362 0.90434 0.0
C2741 C 0.67047 0.06368 0.89312 0.0
C2742 C 0.676 0.04615 0.89833 0.0
C2743 C 0.66775 0.03861 0.91409 0.0
H2744 H 0.79638 0.9079 0.3678 0.0
H2745 H 0.81799 0.94798 0.3303 0.0
H2746 H 0.81237 0.9245 0.39232 0.0
H2747 H 0.83357 0.96493 0.35498 0.0
H2748 H 0.88139 0.97618 0.40056 0.0
H2749 H 0.86333 0.9617 0.3757 0.0
H2750 H 0.80937 0.95212 0.40966 0.0
H2751 H 0.82772 0.96617 0.4347 0.0
C2752 C 0.8045 0.92029 0.36478 0.0
C2753 C 0.80604 0.9265 0.34702 0.0
C2754 C 0.81347 0.92994 0.37889 0.0
C2755 C 0.8243 0.94605 0.37565 0.0
C2756 C 0.82552 0.95247 0.35793 0.0
C2757 C 0.81642 0.94285 0.34379 0.0
C2758 C 0.86572 0.97093 0.40277 0.0
C2759 C 0.85611 0.97224 0.41972 0.0
C2760 C 0.85524 0.96281 0.38843 0.0
C2761 C 0.83489 0.9557 0.39065 0.0
C2762 C 0.82512 0.95728 0.40751 0.0
C2763 C 0.83557 0.9655 0.42184 0.0
H2764 H 0.83741 0.10934 0.16518 0.0
H2765 H 0.78647 0.07112 0.16807 0.0
H2766 H 0.85293 0.09274 0.14052 0.0
H2767 H 0.80239 0.0541 0.14339 0.0
H2768 H 0.8271 0.04337 0.08449 0.0
H2769 H 0.80994 0.05732 0.11037 0.0
H2770 H 0.87056 0.06397 0.13567 0.0
H2771 H 0.88758 0.05004 0.11007 0.0
C2772 C 0.82946 0.0974 0.16052 0.0
C2773 C 0.81061 0.09163 0.16856 0.0
C2774 C 0.83851 0.08774 0.14648 0.0
C2775 C 0.82897 0.07203 0.14002 0.0
C2776 C 0.81008 0.0662 0.14801 0.0
C2777 C 0.80106 0.07585 0.16223 0.0
C2778 C 0.83671 0.04758 0.09568 0.0
C2779 C 0.85878 0.04583 0.09503 0.0
C2780 C 0.82688 0.05557 0.11052 0.0
C2781 C 0.83891 0.06198 0.12498 0.0
C2782 C 0.86086 0.05956 0.12459 0.0
C2783 C 0.87064 0.05159 0.10985 0.0
H2784 H 0.33717 0.56601 0.5796 0.0
H2785 H 0.36657 0.52993 0.61703 0.0
H2786 H 0.31865 0.58079 0.60416 0.0
H2787 H 0.34701 0.54351 0.64159 0.0
H2788 H 0.32625 0.58247 0.68478 0.0
H2789 H 0.34438 0.56738 0.66025 0.0
H2790 H 0.29248 0.58044 0.62492 0.0
H2791 H 0.27547 0.59662 0.64929 0.0
C2792 C 0.3393 0.56109 0.59313 0.0
C2793 C 0.35333 0.54698 0.59651 0.0
C2794 C 0.3286 0.56942 0.60728 0.0
C2795 C 0.33121 0.56349 0.62512 0.0
C2796 C 0.34489 0.54892 0.62826 0.0
C2797 C 0.356 0.54097 0.61417 0.0
C2798 C 0.31882 0.58198 0.67173 0.0
C2799 C 0.29958 0.59072 0.66884 0.0
C2800 C 0.3291 0.57323 0.65761 0.0
C2801 C 0.32006 0.57258 0.64034 0.0
C2802 C 0.30038 0.58095 0.63775 0.0
C2803 C 0.29045 0.59011 0.65175 0.0
H2804 H 0.19415 0.56782 0.33429 0.0
H2805 H 0.20855 0.61105 0.37065 0.0
H2806 H 0.17921 0.55056 0.35917 0.0
H2807 H 0.19332 0.59407 0.39533 0.0
H2808 H 0.18067 0.55288 0.43894 0.0
H2809 H 0.19884 0.56723 0.41388 0.0
H2810 H 0.14778 0.55247 0.37868 0.0
H2811 H 0.12989 0.53778 0.40361 0.0
C2812 C 0.19429 0.57357 0.3476 0.0
C2813 C 0.20241 0.59087 0.35045 0.0
C2814 C 0.18557 0.56376 0.36182 0.0
C2815 C 0.18501 0.57095 0.37925 0.0
C2816 C 0.19365 0.58805 0.38214 0.0
C2817 C 0.20217 0.59788 0.36793 0.0
C2818 C 0.17346 0.55249 0.42582 0.0
C2819 C 0.15374 0.54427 0.42334 0.0
C2820 C 0.18378 0.56085 0.41148 0.0
C2821 C 0.17473 0.56106 0.39427 0.0
C2822 C 0.15529 0.55244 0.39171 0.0
C2823 C 0.1449 0.5442 0.40606 0.0
H2824 H 0.37901 0.44032 0.92355 0.0
H2825 H 0.33796 0.48639 0.92043 0.0
H2826 H 0.36193 0.4274 0.89761 0.0
H2827 H 0.32015 0.47302 0.89457 0.0
H2828 H 0.31235 0.45073 0.83585 0.0
H2829 H 0.32632 0.46529 0.86276 0.0
H2830 H 0.32901 0.41389 0.88936 0.0
H2831 H 0.31536 0.39948 0.86261 0.0
C2832 C 0.36634 0.44775 0.91733 0.0
C2833 C 0.36001 0.4645 0.92409 0.0
C2834 C 0.3563 0.44019 0.90253 0.0
C2835 C 0.33953 0.44909 0.89401 0.0
C2836 C 0.33309 0.46584 0.90074 0.0
C2837 C 0.34316 0.47343 0.91567 0.0
C2838 C 0.3157 0.44262 0.84754 0.0
C2839 C 0.31308 0.4239 0.84697 0.0
C2840 C 0.32367 0.45095 0.86297 0.0
C2841 C 0.32912 0.44074 0.87816 0.0
C2842 C 0.32554 0.42214 0.87778 0.0
C2843 C 0.31769 0.41385 0.86242 0.0
H2844 H 0.5684 0.67667 0.9361 0.0
H2845 H 0.60936 0.65734 0.97809 0.0
H2846 H 0.59893 0.68841 0.92001 0.0
H2847 H 0.63968 0.66951 0.96236 0.0
H2848 H 0.69302 0.68111 0.92385 0.0
H2849 H 0.6622 0.66664 0.93703 0.0
H2850 H 0.62393 0.71216 0.92204 0.0
H2851 H 0.65452 0.72632 0.90844 0.0
C2852 C 0.58389 0.67489 0.94189 0.0
C2853 C 0.58636 0.66608 0.95842 0.0
C2854 C 0.60143 0.68174 0.93272 0.0
C2855 C 0.62187 0.68001 0.93987 0.0
C2856 C 0.6243 0.6709 0.95625 0.0
C2857 C 0.60682 0.664 0.96537 0.0
C2858 C 0.678 0.68797 0.92325 0.0
C2859 C 0.67632 0.70491 0.91512 0.0
C2860 C 0.66031 0.67971 0.93092 0.0
C2861 C 0.64049 0.68823 0.93072 0.0
C2862 C 0.63879 0.70504 0.92227 0.0
C2863 C 0.65643 0.71324 0.91455 0.0
H2864 H 0.5912 0.3319 0.20579 0.0
H2865 H 0.62203 0.36935 0.24095 0.0
H2866 H 0.57282 0.35653 0.19108 0.0
H2867 H 0.60278 0.39405 0.22718 0.0
H2868 H 0.58015 0.43693 0.18801 0.0
H2869 H 0.59918 0.41256 0.20276 0.0
H2870 H 0.54638 0.37718 0.19301 0.0
H2871 H 0.52832 0.4013 0.17735 0.0
C2872 C 0.59376 0.34544 0.21051 0.0
C2873 C 0.60805 0.34874 0.22444 0.0
C2874 C 0.58313 0.35963 0.20219 0.0
C2875 C 0.58611 0.37749 0.20789 0.0
C2876 C 0.60029 0.38065 0.22205 0.0
C2877 C 0.61127 0.36648 0.23007 0.0
C2878 C 0.57273 0.42391 0.18913 0.0
C2879 C 0.55289 0.42092 0.18145 0.0
C2880 C 0.58354 0.4099 0.19767 0.0
C2881 C 0.57451 0.39265 0.19909 0.0
C2882 C 0.55427 0.38998 0.19182 0.0
C2883 C 0.54376 0.40386 0.18295 0.0
H2884 H 0.85248 0.32508 0.38446 0.0
H2885 H 0.83543 0.29675 0.43285 0.0
H2886 H 0.87967 0.34137 0.40094 0.0
H2887 H 0.86245 0.31309 0.44928 0.0
H2888 H 0.92795 0.33033 0.46802 0.0
H2889 H 0.90105 0.31458 0.45087 0.0
H2890 H 0.8839 0.36415 0.42474 0.0
H2891 H 0.91098 0.37993 0.44179 0.0
C2892 C 0.85445 0.32237 0.39861 0.0
C2893 C 0.84177 0.30956 0.40729 0.0
C2894 C 0.86999 0.33177 0.40808 0.0
C2895 C 0.87334 0.32848 0.42643 0.0
C2896 C 0.86051 0.31578 0.43512 0.0
C2897 C 0.8449 0.3065 0.4257 0.0
C2898 C 0.91853 0.33789 0.45857 0.0
C2899 C 0.92166 0.35643 0.45633 0.0
C2900 C 0.90298 0.32887 0.44882 0.0
C2901 C 0.89021 0.3381 0.43648 0.0
C2902 C 0.89356 0.35659 0.43401 0.0
C2903 C 0.90905 0.36565 0.44386 0.0
H2904 H 0.87821 0.64898 0.72572 0.0
H2905 H 0.9318 0.68231 0.71312 0.0
H2906 H 0.89521 0.62359 0.71112 0.0
H2907 H 0.94906 0.65676 0.69883 0.0
H2908 H 0.95964 0.6135 0.65544 0.0
H2909 H 0.94423 0.63862 0.67163 0.0
H2910 H 0.9252 0.60276 0.71412 0.0
H2911 H 0.94027 0.57748 0.69765 0.0
C2912 C 0.89363 0.6509 0.71985 0.0
C2913 C 0.90355 0.66776 0.7205 0.0
C2914 C 0.9035 0.63626 0.71165 0.0
C2915 C 0.9235 0.63811 0.70377 0.0
C2916 C 0.93357 0.6549 0.70462 0.0
C2917 C 0.92376 0.66952 0.71296 0.0
C2918 C 0.95207 0.61091 0.66818 0.0
C2919 C 0.95108 0.5934 0.67516 0.0
C2920 C 0.94345 0.62538 0.67758 0.0
C2921 C 0.93347 0.62274 0.69419 0.0
C2922 C 0.93262 0.60525 0.70128 0.0
C2923 C 0.94141 0.59077 0.69192 0.0
H2924 H 0.58694 0.33173 0.54486 0.0
H2925 H 0.59802 0.37836 0.57782 0.0
H2926 H 0.61383 0.31534 0.56142 0.0
H2927 H 0.6251 0.36191 0.59433 0.0
H2928 H 0.65653 0.31922 0.63112 0.0
H2929 H 0.62937 0.33625 0.61532 0.0
H2930 H 0.65243 0.31592 0.56484 0.0
H2931 H 0.67945 0.29885 0.58057 0.0
C2932 C 0.59506 0.3385 0.55567 0.0
C2933 C 0.5903 0.35641 0.55997 0.0
C2934 C 0.6106 0.32911 0.56509 0.0
C2935 C 0.62174 0.33734 0.57913 0.0
C2936 C 0.61673 0.35514 0.58367 0.0
C2937 C 0.60125 0.36459 0.57415 0.0
C2938 C 0.65586 0.31843 0.61665 0.0
C2939 C 0.67017 0.30762 0.60714 0.0
C2940 C 0.64034 0.32826 0.60759 0.0
C2941 C 0.63864 0.32738 0.58882 0.0
C2942 C 0.6531 0.31671 0.57932 0.0
C2943 C 0.6687 0.30701 0.58835 0.0
H2944 H 0.89589 0.36312 0.77535 0.0
H2945 H 0.91928 0.32563 0.81449 0.0
H2946 H 0.91479 0.38738 0.79004 0.0
H2947 H 0.93723 0.34996 0.83009 0.0
H2948 H 0.9814 0.39397 0.84725 0.0
H2949 H 0.96469 0.36983 0.83059 0.0
H2950 H 0.91536 0.40637 0.81412 0.0
H2951 H 0.93312 0.43066 0.82996 0.0
C2952 C 0.90496 0.36017 0.78727 0.0
C2953 C 0.90613 0.34255 0.79383 0.0
C2954 C 0.91571 0.3741 0.79583 0.0
C2955 C 0.92756 0.37086 0.81146 0.0
C2956 C 0.9287 0.35309 0.81794 0.0
C2957 C 0.91832 0.33909 0.8091 0.0
C2958 C 0.96702 0.39677 0.83998 0.0
C2959 C 0.9585 0.41414 0.83989 0.0
C2960 C 0.95728 0.38289 0.83051 0.0
C2961 C 0.93844 0.38591 0.82101 0.0
C2962 C 0.93001 0.40343 0.82092 0.0
C2963 C 0.94008 0.41741 0.83007 0.0
H2964 H 0.83334 0.71393 0.08057 0.0
H2965 H 0.86557 0.70594 0.1309 0.0
H2966 H 0.86171 0.69839 0.06498 0.0
H2967 H 0.89372 0.69004 0.11535 0.0
H2968 H 0.9517 0.68277 0.07891 0.0
H2969 H 0.92254 0.69623 0.09536 0.0
H2970 H 0.87828 0.66981 0.06028 0.0
H2971 H 0.90747 0.65668 0.04357 0.0
C2972 C 0.84635 0.70867 0.08836 0.0
C2973 C 0.84716 0.71126 0.10701 0.0
C2974 C 0.86261 0.69966 0.07941 0.0
C2975 C 0.88013 0.69298 0.08886 0.0
C2976 C 0.88068 0.69524 0.10757 0.0
C2977 C 0.86443 0.70426 0.11652 0.0
C2978 C 0.93576 0.67974 0.07475 0.0
C2979 C 0.93199 0.66867 0.05986 0.0
C2980 C 0.91898 0.6874 0.08426 0.0
C2981 C 0.89797 0.68417 0.07917 0.0
C2982 C 0.89422 0.67284 0.06445 0.0
C2983 C 0.91099 0.6652 0.05492 0.0
H2984 H 0.58249 0.68661 0.29995 0.0
H2985 H 0.63652 0.65284 0.29002 0.0
H2986 H 0.5646 0.66157 0.31443 0.0
H2987 H 0.61894 0.628 0.30505 0.0
H2988 H 0.57427 0.58236 0.32078 0.0
H2989 H 0.58976 0.60669 0.30308 0.0
H2990 H 0.56794 0.64507 0.3422 0.0
H2991 H 0.55202 0.62101 0.35943 0.0
C2992 C 0.59052 0.67384 0.30073 0.0
C2993 C 0.61105 0.67186 0.2939 0.0
C2994 C 0.58034 0.6595 0.30921 0.0
C2995 C 0.59037 0.64276 0.31104 0.0
C2996 C 0.61066 0.64063 0.30379 0.0
C2997 C 0.62086 0.65499 0.29535 0.0
C2998 C 0.57261 0.59601 0.32547 0.0
C2999 C 0.56203 0.59966 0.34163 0.0
C3000 C 0.58163 0.60995 0.31542 0.0
C3001 C 0.58013 0.62787 0.32121 0.0
C3002 C 0.56924 0.63149 0.3372 0.0
C3003 C 0.56033 0.61761 0.34725 0.0
H3004 H 0.63582 0.97955 0.6128 0.0
H3005 H 0.68562 0.96617 0.57567 0.0
H3006 H 0.65512 0.96503 0.63686 0.0
H3007 H 0.70543 0.95232 0.59998 0.0
H3008 H 0.72058 0.90912 0.64194 0.0
H3009 H 0.7036 0.92583 0.61808 0.0
H3010 H 0.68551 0.96679 0.65597 0.0
H3011 H 0.70177 0.94956 0.6801 0.0
C3012 C 0.65091 0.97356 0.60973 0.0
C3013 C 0.65898 0.97388 0.59216 0.0
C3014 C 0.66216 0.96544 0.62364 0.0
C3015 C 0.68185 0.95743 0.62042 0.0
C3016 C 0.69019 0.95814 0.60294 0.0
C3017 C 0.6789 0.96626 0.589 0.0
C3018 C 0.71288 0.92161 0.64528 0.0
C3019 C 0.71237 0.92783 0.66307 0.0
C3020 C 0.70337 0.93137 0.63148 0.0
C3021 C 0.69312 0.94768 0.63504 0.0
C3022 C 0.69303 0.95416 0.65275 0.0
C3023 C 0.70256 0.94436 0.6666 0.0
loop_
_geom_bond_atom_site_label_1
_geom_bond_atom_site_label_2
_geom_bond_distance
_geom_bond_site_symmetry_2
_ccdc_geom_bond_type
Cu0 N1 1.999 . S
Cu0 O6 1.974 . S
Cu0 N11 1.985 . S
Cu0 O20 1.959 . S
N1 Cu0 1.999 . S
N1 C3 1.263 . S
N1 C5 1.389 . S
N2 C3 1.358 . S
N2 C4 1.400 . S
C3 N1 1.263 . S
C3 N2 1.358 . S
C3 H9 0.930 . S
C4 N2 1.400 . S
C4 C5 1.351 . S
C4 H21 0.930 . S
C5 N1 1.389 . S
C5 C4 1.351 . S
C5 H10 0.930 . S
O6 Cu0 1.974 . S
O6 C16 1.282 . S
C7 O8 1.261 . S
C7 O20 1.251 . S
O8 C7 1.261 . S
H9 C3 0.930 . S
H10 C5 0.930 . S
N11 Cu0 1.985 . S
N11 C13 1.335 . S
N11 C14 1.390 . S
N12 C13 1.345 . S
N12 C15 1.336 . S
C13 N11 1.335 . S
C13 N12 1.345 . S
C13 H18 0.930 . S
C14 N11 1.390 . S
C14 C15 1.346 . S
C14 H19 0.930 . S
C15 N12 1.336 . S
C15 C14 1.346 . S
C15 H22 0.929 . S
C16 O6 1.282 . S
C16 O17 1.216 . S
O17 C16 1.216 . S
H18 C13 0.930 . S
H19 C14 0.930 . S
O20 Cu0 1.959 . S
O20 C7 1.251 . S
H21 C4 0.930 . S
H22 C15 0.929 . S
Cu23 N24 1.974 1_565 S
Cu23 O29 1.974 . S
Cu23 N34 1.985 . S
Cu23 O43 1.959 . S
N24 Cu23 1.974 1_545 S
N24 C26 1.276 . S
N24 C28 1.406 . S
N25 C26 1.358 . S
N25 C27 1.400 . S
C26 N24 1.276 . S
C26 N25 1.358 . S
C26 H32 0.930 . S
C27 N25 1.400 . S
C27 C28 1.351 . S
C27 H44 0.930 . S
C28 N24 1.406 . S
C28 C27 1.351 . S
C28 H33 0.930 . S
O29 Cu23 1.974 . S
O29 C39 1.282 . S
C30 O31 1.261 . S
C30 O43 1.251 . S
O31 C30 1.261 . S
H32 C26 0.930 . S
H33 C28 0.930 . S
N34 Cu23 1.985 . S
N34 C36 1.335 . S
N34 C37 1.390 . S
N35 C36 1.345 . S
N35 C38 1.336 . S
C36 N34 1.335 . S
C36 N35 1.345 . S
C36 H41 0.930 . S
C37 N34 1.390 . S
C37 C38 1.346 . S
C37 H42 0.930 . S
C38 N35 1.336 . S
C38 C37 1.346 . S
C38 H45 0.929 . S
C39 O29 1.282 . S
C39 O40 1.216 . S
O40 C39 1.216 . S
H41 C36 0.930 . S
H42 C37 0.930 . S
O43 Cu23 1.959 . S
O43 C30 1.251 . S
H44 C27 0.930 . S
H45 C38 0.929 . S
Cu46 N47 1.999 . S
Cu46 O52 1.974 . S
Cu46 N57 1.985 . S
Cu46 O66 1.959 . S
N47 Cu46 1.999 . S
N47 C49 1.263 . S
N47 C51 1.389 . S
N48 C49 1.358 . S
N48 C50 1.400 . S
C49 N47 1.263 . S
C49 N48 1.358 . S
C49 H55 0.930 . S
C50 N48 1.400 . S
C50 C51 1.351 . S
C50 H67 0.930 . S
C51 N47 1.389 . S
C51 C50 1.351 . S
C51 H56 0.930 . S
O52 Cu46 1.974 . S
O52 C62 1.282 . S
C53 O54 1.261 . S
C53 O66 1.251 . S
O54 C53 1.261 . S
H55 C49 0.930 . S
H56 C51 0.930 . S
N57 Cu46 1.985 . S
N57 C59 1.335 . S
N57 C60 1.390 . S
N58 C59 1.345 . S
N58 C61 1.336 . S
C59 N57 1.335 . S
C59 N58 1.345 . S
C59 H64 0.930 . S
C60 N57 1.390 . S
C60 C61 1.346 . S
C60 H65 0.930 . S
C61 N58 1.336 . S
C61 C60 1.346 . S
C61 H68 0.929 . S
C62 O52 1.282 . S
C62 O63 1.216 . S
O63 C62 1.216 . S
H64 C59 0.930 . S
H65 C60 0.930 . S
O66 Cu46 1.959 . S
O66 C53 1.251 . S
H67 C50 0.930 . S
H68 C61 0.929 . S
Cu69 N70 1.938 1_545 S
Cu69 O75 1.974 . S
Cu69 N80 1.985 . S
Cu69 O89 1.959 . S
N70 Cu69 1.938 1_565 S
N70 C72 1.296 . S
N70 C74 1.432 . S
N71 C72 1.358 . S
N71 C73 1.400 . S
C72 N70 1.296 . S
C72 N71 1.358 . S
C72 H78 0.930 . S
C73 N71 1.400 . S
C73 C74 1.351 . S
C73 H90 0.930 . S
C74 N70 1.432 . S
C74 C73 1.351 . S
C74 H79 0.930 . S
O75 Cu69 1.974 . S
O75 C85 1.282 . S
C76 O77 1.261 . S
C76 O89 1.251 . S
O77 C76 1.261 . S
H78 C72 0.930 . S
H79 C74 0.930 . S
N80 Cu69 1.985 . S
N80 C82 1.335 . S
N80 C83 1.390 . S
N81 C82 1.345 . S
N81 C84 1.336 . S
C82 N80 1.335 . S
C82 N81 1.345 . S
C82 H87 0.930 . S
C83 N80 1.390 . S
C83 C84 1.346 . S
C83 H88 0.930 . S
C84 N81 1.336 . S
C84 C83 1.346 . S
C84 H91 0.929 . S
C85 O75 1.282 . S
C85 O86 1.216 . S
O86 C85 1.216 . S
H87 C82 0.930 . S
H88 C83 0.930 . S
O89 Cu69 1.959 . S
O89 C76 1.251 . S
H90 C73 0.930 . S
H91 C84 0.929 . S
Cu92 N93 1.999 . S
Cu92 O98 1.974 . S
Cu92 N103 1.985 . S
Cu92 O112 1.959 . S
N93 Cu92 1.999 . S
N93 C95 1.263 . S
N93 C97 1.389 . S
N94 C95 1.358 . S
N94 C96 1.400 . S
C95 N93 1.263 . S
C95 N94 1.358 . S
C95 H101 0.930 . S
C96 N94 1.400 . S
C96 C97 1.351 . S
C96 H113 0.930 . S
C97 N93 1.389 . S
C97 C96 1.351 . S
C97 H102 0.930 . S
O98 Cu92 1.974 . S
O98 C108 1.282 . S
C99 O100 1.261 . S
C99 O112 1.251 . S
O100 C99 1.261 . S
H101 C95 0.930 . S
H102 C97 0.930 . S
N103 Cu92 1.985 . S
N103 C105 1.335 . S
N103 C106 1.390 . S
N104 C105 1.345 . S
N104 C107 1.336 . S
C105 N103 1.335 . S
C105 N104 1.345 . S
C105 H110 0.930 . S
C106 N103 1.390 . S
C106 C107 1.346 . S
C106 H111 0.930 . S
C107 N104 1.336 . S
C107 C106 1.346 . S
C107 H114 0.929 . S
C108 O98 1.282 . S
C108 O109 1.216 . S
O109 C108 1.216 . S
H110 C105 0.930 . S
H111 C106 0.930 . S
O112 Cu92 1.959 . S
O112 C99 1.251 . S
H113 C96 0.930 . S
H114 C107 0.929 . S
Cu115 N116 1.974 1_565 S
Cu115 O121 1.974 . S
Cu115 N126 1.985 . S
Cu115 O135 1.959 . S
N116 Cu115 1.974 1_545 S
N116 C118 1.276 . S
N116 C120 1.406 . S
N117 C118 1.358 . S
N117 C119 1.400 . S
C118 N116 1.276 . S
C118 N117 1.358 . S
C118 H124 0.930 . S
C119 N117 1.400 . S
C119 C120 1.351 . S
C119 H136 0.930 . S
C120 N116 1.406 . S
C120 C119 1.351 . S
C120 H125 0.930 . S
O121 Cu115 1.974 . S
O121 C131 1.282 . S
C122 O123 1.261 . S
C122 O135 1.251 . S
O123 C122 1.261 . S
H124 C118 0.930 . S
H125 C120 0.930 . S
N126 Cu115 1.985 . S
N126 C128 1.335 . S
N126 C129 1.390 . S
N127 C128 1.345 . S
N127 C130 1.336 . S
C128 N126 1.335 . S
C128 N127 1.345 . S
C128 H133 0.930 . S
C129 N126 1.390 . S
C129 C130 1.346 . S
C129 H134 0.930 . S
C130 N127 1.336 . S
C130 C129 1.346 . S
C130 H137 0.929 . S
C131 O121 1.282 . S
C131 O132 1.216 . S
O132 C131 1.216 . S
H133 C128 0.930 . S
H134 C129 0.930 . S
O135 Cu115 1.959 . S
O135 C122 1.251 . S
H136 C119 0.930 . S
H137 C130 0.929 . S
Cu138 N139 1.999 . S
Cu138 O144 1.974 . S
Cu138 N149 1.985 . S
Cu138 O158 1.959 . S
N139 Cu138 1.999 . S
N139 C141 1.263 . S
N139 C143 1.389 . S
N140 C141 1.358 . S
N140 C142 1.400 . S
C141 N139 1.263 . S
C141 N140 1.358 . S
C141 H147 0.930 . S
C142 N140 1.400 . S
C142 C143 1.351 . S
C142 H159 0.930 . S
C143 N139 1.389 . S
C143 C142 1.351 . S
C143 H148 0.930 . S
O144 Cu138 1.974 . S
O144 C154 1.282 . S
C145 O146 1.261 . S
C145 O158 1.251 . S
O146 C145 1.261 . S
H147 C141 0.930 . S
H148 C143 0.930 . S
N149 Cu138 1.985 . S
N149 C151 1.335 . S
N149 C152 1.390 . S
N150 C151 1.345 . S
N150 C153 1.336 . S
C151 N149 1.335 . S
C151 N150 1.345 . S
C151 H156 0.930 . S
C152 N149 1.390 . S
C152 C153 1.346 . S
C152 H157 0.930 . S
C153 N150 1.336 . S
C153 C152 1.346 . S
C153 H160 0.929 . S
C154 O144 1.282 . S
C154 O155 1.216 . S
O155 C154 1.216 . S
H156 C151 0.930 . S
H157 C152 0.930 . S
O158 Cu138 1.959 . S
O158 C145 1.251 . S
H159 C142 0.930 . S
H160 C153 0.929 . S
Cu161 N162 1.938 1_545 S
Cu161 O167 1.974 . S
Cu161 N172 1.985 . S
Cu161 O181 1.959 . S
N162 Cu161 1.938 1_565 S
N162 C164 1.296 . S
N162 C166 1.432 . S
N163 C164 1.358 . S
N163 C165 1.400 . S
C164 N162 1.296 . S
C164 N163 1.358 . S
C164 H170 0.930 . S
C165 N163 1.400 . S
C165 C166 1.351 . S
C165 H182 0.930 . S
C166 N162 1.432 . S
C166 C165 1.351 . S
C166 H171 0.930 . S
O167 Cu161 1.974 . S
O167 C177 1.282 . S
C168 O169 1.261 . S
C168 O181 1.251 . S
O169 C168 1.261 . S
H170 C164 0.930 . S
H171 C166 0.930 . S
N172 Cu161 1.985 . S
N172 C174 1.335 . S
N172 C175 1.390 . S
N173 C174 1.345 . S
N173 C176 1.336 . S
C174 N172 1.335 . S
C174 N173 1.345 . S
C174 H179 0.930 . S
C175 N172 1.390 . S
C175 C176 1.346 . S
C175 H180 0.930 . S
C176 N173 1.336 . S
C176 C175 1.346 . S
C176 H183 0.929 . S
C177 O167 1.282 . S
C177 O178 1.216 . S
O178 C177 1.216 . S
H179 C174 0.930 . S
H180 C175 0.930 . S
O181 Cu161 1.959 . S
O181 C168 1.251 . S
H182 C165 0.930 . S
H183 C176 0.929 . S
Cu184 N185 1.999 . S
Cu184 O190 1.974 . S
Cu184 N195 1.985 . S
Cu184 O204 1.959 . S
N185 Cu184 1.999 . S
N185 C187 1.263 . S
N185 C189 1.389 . S
N186 C187 1.358 . S
N186 C188 1.400 . S
C187 N185 1.263 . S
C187 N186 1.358 . S
C187 H193 0.930 . S
C188 N186 1.400 . S
C188 C189 1.351 . S
C188 H205 0.930 . S
C189 N185 1.389 . S
C189 C188 1.351 . S
C189 H194 0.930 . S
O190 Cu184 1.974 . S
O190 C200 1.282 . S
C191 O192 1.261 . S
C191 O204 1.251 . S
O192 C191 1.261 . S
H193 C187 0.930 . S
H194 C189 0.930 . S
N195 Cu184 1.985 . S
N195 C197 1.335 . S
N195 C198 1.390 . S
N196 C197 1.345 . S
N196 C199 1.336 . S
C197 N195 1.335 . S
C197 N196 1.345 . S
C197 H202 0.930 . S
C198 N195 1.390 . S
C198 C199 1.346 . S
C198 H203 0.930 . S
C199 N196 1.336 . S
C199 C198 1.346 . S
C199 H206 0.929 . S
C200 O190 1.282 . S
C200 O201 1.216 . S
O201 C200 1.216 . S
H202 C197 0.930 . S
H203 C198 0.930 . S
O204 Cu184 1.959 . S
O204 C191 1.251 . S
H205 C188 0.930 . S
H206 C199 0.929 . S
Cu207 N208 1.999 . S
Cu207 O213 1.974 . S
Cu207 N218 1.985 . S
Cu207 O227 1.959 . S
N208 Cu207 1.999 . S
N208 C210 1.263 . S
N208 C212 1.389 . S
N209 C210 1.358 . S
N209 C211 1.400 1_455 S
C210 N208 1.263 . S
C210 N209 1.358 . S
C210 H216 0.930 . S
C211 N209 1.400 1_655 S
C211 C212 1.351 1_655 S
C211 H228 0.930 . S
C212 N208 1.389 . S
C212 C211 1.351 1_455 S
C212 H217 0.930 1_455 S
O213 Cu207 1.974 . S
O213 C223 1.282 . S
C214 O215 1.261 . S
C214 O227 1.251 . S
O215 C214 1.261 . S
H216 C210 0.930 . S
H217 C212 0.930 1_655 S
N218 Cu207 1.985 . S
N218 C220 1.335 . S
N218 C221 1.390 . S
N219 C220 1.345 . S
N219 C222 1.336 . S
C220 N218 1.335 . S
C220 N219 1.345 . S
C220 H225 0.930 . S
C221 N218 1.390 . S
C221 C222 1.346 . S
C221 H226 0.930 . S
C222 N219 1.336 . S
C222 C221 1.346 . S
C222 H229 0.929 . S
C223 O213 1.282 . S
C223 O224 1.216 . S
O224 C223 1.216 . S
H225 C220 0.930 . S
H226 C221 0.930 . S
O227 Cu207 1.959 . S
O227 C214 1.251 . S
H228 C211 0.930 . S
H229 C222 0.929 . S
Cu230 N231 1.999 . S
Cu230 O236 1.974 . S
Cu230 N241 1.985 . S
Cu230 O250 1.959 . S
N231 Cu230 1.999 . S
N231 C233 1.263 . S
N231 C235 1.389 . S
N232 C233 1.358 . S
N232 C234 1.400 . S
C233 N231 1.263 . S
C233 N232 1.358 . S
C233 H239 0.930 . S
C234 N232 1.400 . S
C234 C235 1.351 . S
C234 H251 0.930 . S
C235 N231 1.389 . S
C235 C234 1.351 . S
C235 H240 0.930 . S
O236 Cu230 1.974 . S
O236 C246 1.282 . S
C237 O238 1.261 . S
C237 O250 1.251 . S
O238 C237 1.261 . S
H239 C233 0.930 . S
H240 C235 0.930 . S
N241 Cu230 1.985 . S
N241 C243 1.335 . S
N241 C244 1.390 . S
N242 C243 1.345 . S
N242 C245 1.336 . S
C243 N241 1.335 . S
C243 N242 1.345 . S
C243 H248 0.930 . S
C244 N241 1.390 . S
C244 C245 1.346 . S
C244 H249 0.930 . S
C245 N242 1.336 . S
C245 C244 1.346 . S
C245 H252 0.929 . S
C246 O236 1.282 . S
C246 O247 1.216 . S
O247 C246 1.216 . S
H248 C243 0.930 . S
H249 C244 0.930 . S
O250 Cu230 1.959 . S
O250 C237 1.251 . S
H251 C234 0.930 . S
H252 C245 0.929 . S
Cu253 N254 1.999 . S
Cu253 O259 1.974 . S
Cu253 N264 1.985 . S
Cu253 O273 1.959 . S
N254 Cu253 1.999 . S
N254 C256 1.263 . S
N254 C258 1.389 . S
N255 C256 1.358 . S
N255 C257 1.400 . S
C256 N254 1.263 . S
C256 N255 1.358 . S
C256 H262 0.930 . S
C257 N255 1.400 . S
C257 C258 1.351 . S
C257 H274 0.930 . S
C258 N254 1.389 . S
C258 C257 1.351 . S
C258 H263 0.930 . S
O259 Cu253 1.974 . S
O259 C269 1.282 . S
C260 O261 1.261 . S
C260 O273 1.251 . S
O261 C260 1.261 . S
H262 C256 0.930 . S
H263 C258 0.930 . S
N264 Cu253 1.985 . S
N264 C266 1.335 1_556 S
N264 C267 1.390 . S
N265 C266 1.345 . S
N265 C268 1.336 1_554 S
C266 N264 1.335 1_554 S
C266 N265 1.345 . S
C266 H271 0.930 . S
C267 N264 1.390 . S
C267 C268 1.346 . S
C267 H272 0.930 . S
C268 N265 1.336 1_556 S
C268 C267 1.346 . S
C268 H275 0.929 . S
C269 O259 1.282 . S
C269 O270 1.216 . S
O270 C269 1.216 . S
H271 C266 0.930 . S
H272 C267 0.930 . S
O273 Cu253 1.959 . S
O273 C260 1.251 . S
H274 C257 0.930 . S
H275 C268 0.929 . S
Cu276 N277 1.999 . S
Cu276 O282 1.974 . S
Cu276 N287 1.985 . S
Cu276 O296 1.959 . S
N277 Cu276 1.999 . S
N277 C279 1.263 . S
N277 C281 1.389 . S
N278 C279 1.358 . S
N278 C280 1.400 . S
C279 N277 1.263 . S
C279 N278 1.358 . S
C279 H285 0.930 . S
C280 N278 1.400 . S
C280 C281 1.351 . S
C280 H297 0.930 . S
C281 N277 1.389 . S
C281 C280 1.351 . S
C281 H286 0.930 . S
O282 Cu276 1.974 . S
O282 C292 1.282 . S
C283 O284 1.261 . S
C283 O296 1.251 . S
O284 C283 1.261 . S
H285 C279 0.930 . S
H286 C281 0.930 . S
N287 Cu276 1.985 . S
N287 C289 1.335 . S
N287 C290 1.390 . S
N288 C289 1.345 . S
N288 C291 1.336 . S
C289 N287 1.335 . S
C289 N288 1.345 . S
C289 H294 0.930 . S
C290 N287 1.390 . S
C290 C291 1.346 . S
C290 H295 0.930 . S
C291 N288 1.336 . S
C291 C290 1.346 . S
C291 H298 0.929 . S
C292 O282 1.282 . S
C292 O293 1.216 . S
O293 C292 1.216 . S
H294 C289 0.930 . S
H295 C290 0.930 . S
O296 Cu276 1.959 . S
O296 C283 1.251 . S
H297 C280 0.930 . S
H298 C291 0.929 . S
Cu299 N300 1.999 . S
Cu299 O305 1.974 . S
Cu299 N310 1.985 . S
Cu299 O319 1.959 . S
N300 Cu299 1.999 . S
N300 C302 1.263 . S
N300 C304 1.389 . S
N301 C302 1.358 . S
N301 C303 1.400 . S
C302 N300 1.263 . S
C302 N301 1.358 . S
C302 H308 0.930 . S
C303 N301 1.400 . S
C303 C304 1.351 . S
C303 H320 0.930 . S
C304 N300 1.389 . S
C304 C303 1.351 . S
C304 H309 0.930 . S
O305 Cu299 1.974 . S
O305 C315 1.282 . S
C306 O307 1.261 . S
C306 O319 1.251 . S
O307 C306 1.261 . S
H308 C302 0.930 . S
H309 C304 0.930 . S
N310 Cu299 1.985 . S
N310 C312 1.335 . S
N310 C313 1.390 . S
N311 C312 1.345 . S
N311 C314 1.336 . S
C312 N310 1.335 . S
C312 N311 1.345 . S
C312 H317 0.930 . S
C313 N310 1.390 . S
C313 C314 1.346 . S
C313 H318 0.930 . S
C314 N311 1.336 . S
C314 C313 1.346 . S
C314 H321 0.929 . S
C315 O305 1.282 . S
C315 O316 1.216 . S
O316 C315 1.216 . S
H317 C312 0.930 . S
H318 C313 0.930 . S
O319 Cu299 1.959 . S
O319 C306 1.251 . S
H320 C303 0.930 . S
H321 C314 0.929 . S
Cu322 N323 1.999 . S
Cu322 O328 1.974 . S
Cu322 N333 1.985 . S
Cu322 O342 1.959 . S
N323 Cu322 1.999 . S
N323 C325 1.263 . S
N323 C327 1.389 . S
N324 C325 1.358 . S
N324 C326 1.400 . S
C325 N323 1.263 . S
C325 N324 1.358 . S
C325 H331 0.930 . S
C326 N324 1.400 . S
C326 C327 1.351 . S
C326 H343 0.930 . S
C327 N323 1.389 . S
C327 C326 1.351 . S
C327 H332 0.930 . S
O328 Cu322 1.974 . S
O328 C338 1.282 . S
C329 O330 1.261 . S
C329 O342 1.251 . S
O330 C329 1.261 . S
H331 C325 0.930 . S
H332 C327 0.930 . S
N333 Cu322 1.985 . S
N333 C335 1.335 . S
N333 C336 1.390 . S
N334 C335 1.345 . S
N334 C337 1.336 . S
C335 N333 1.335 . S
C335 N334 1.345 . S
C335 H340 0.930 . S
C336 N333 1.390 . S
C336 C337 1.346 . S
C336 H341 0.930 . S
C337 N334 1.336 . S
C337 C336 1.346 . S
C337 H344 0.929 . S
C338 O328 1.282 . S
C338 O339 1.216 . S
O339 C338 1.216 . S
H340 C335 0.930 . S
H341 C336 0.930 . S
O342 Cu322 1.959 . S
O342 C329 1.251 . S
H343 C326 0.930 . S
H344 C337 0.929 . S
Cu345 N346 1.999 . S
Cu345 O351 1.974 . S
Cu345 N356 1.985 . S
Cu345 O365 1.959 . S
N346 Cu345 1.999 . S
N346 C348 1.263 . S
N346 C350 1.389 . S
N347 C348 1.358 . S
N347 C349 1.400 1_455 S
C348 N346 1.263 . S
C348 N347 1.358 . S
C348 H354 0.930 . S
C349 N347 1.400 1_655 S
C349 C350 1.351 1_655 S
C349 H366 0.930 . S
C350 N346 1.389 . S
C350 C349 1.351 1_455 S
C350 H355 0.930 1_455 S
O351 Cu345 1.974 . S
O351 C361 1.282 . S
C352 O353 1.261 . S
C352 O365 1.251 . S
O353 C352 1.261 . S
H354 C348 0.930 . S
H355 C350 0.930 1_655 S
N356 Cu345 1.985 . S
N356 C358 1.335 1_554 S
N356 C359 1.390 . S
N357 C358 1.345 . S
N357 C360 1.336 1_556 S
C358 N356 1.335 1_556 S
C358 N357 1.345 . S
C358 H363 0.930 . S
C359 N356 1.390 . S
C359 C360 1.346 . S
C359 H364 0.930 . S
C360 N357 1.336 1_554 S
C360 C359 1.346 . S
C360 H367 0.929 . S
C361 O351 1.282 . S
C361 O362 1.216 . S
O362 C361 1.216 . S
H363 C358 0.930 . S
H364 C359 0.930 . S
O365 Cu345 1.959 . S
O365 C352 1.251 . S
H366 C349 0.930 . S
H367 C360 0.929 . S
Cu368 N369 1.999 . S
Cu368 O374 1.974 . S
Cu368 N379 1.985 . S
Cu368 O388 1.959 . S
N369 Cu368 1.999 . S
N369 C371 1.263 . S
N369 C373 1.389 . S
N370 C371 1.358 . S
N370 C372 1.400 . S
C371 N369 1.263 . S
C371 N370 1.358 . S
C371 H377 0.930 . S
C372 N370 1.400 . S
C372 C373 1.351 . S
C372 H389 0.930 . S
C373 N369 1.389 . S
C373 C372 1.351 . S
C373 H378 0.930 . S
O374 Cu368 1.974 . S
O374 C384 1.282 . S
C375 O376 1.261 . S
C375 O388 1.251 . S
O376 C375 1.261 . S
H377 C371 0.930 . S
H378 C373 0.930 . S
N379 Cu368 1.985 . S
N379 C381 1.335 . S
N379 C382 1.390 . S
N380 C381 1.345 . S
N380 C383 1.336 . S
C381 N379 1.335 . S
C381 N380 1.345 . S
C381 H386 0.930 . S
C382 N379 1.390 . S
C382 C383 1.346 . S
C382 H387 0.930 . S
C383 N380 1.336 . S
C383 C382 1.346 . S
C383 H390 0.929 . S
C384 O374 1.282 . S
C384 O385 1.216 . S
O385 C384 1.216 . S
H386 C381 0.930 . S
H387 C382 0.930 . S
O388 Cu368 1.959 . S
O388 C375 1.251 . S
H389 C372 0.930 . S
H390 C383 0.929 . S
Cu391 N392 1.999 . S
Cu391 O397 1.974 . S
Cu391 N402 1.985 . S
Cu391 O411 1.959 . S
N392 Cu391 1.999 . S
N392 C394 1.263 . S
N392 C396 1.389 . S
N393 C394 1.358 . S
N393 C395 1.400 . S
C394 N392 1.263 . S
C394 N393 1.358 . S
C394 H400 0.930 . S
C395 N393 1.400 . S
C395 C396 1.351 . S
C395 H412 0.930 . S
C396 N392 1.389 . S
C396 C395 1.351 . S
C396 H401 0.930 . S
O397 Cu391 1.974 . S
O397 C407 1.282 . S
C398 O399 1.261 . S
C398 O411 1.251 . S
O399 C398 1.261 . S
H400 C394 0.930 . S
H401 C396 0.930 . S
N402 Cu391 1.985 . S
N402 C404 1.335 . S
N402 C405 1.390 . S
N403 C404 1.345 . S
N403 C406 1.336 . S
C404 N402 1.335 . S
C404 N403 1.345 . S
C404 H409 0.930 . S
C405 N402 1.390 . S
C405 C406 1.346 . S
C405 H410 0.930 . S
C406 N403 1.336 . S
C406 C405 1.346 . S
C406 H413 0.929 . S
C407 O397 1.282 . S
C407 O408 1.216 . S
O408 C407 1.216 . S
H409 C404 0.930 . S
H410 C405 0.930 . S
O411 Cu391 1.959 . S
O411 C398 1.251 . S
H412 C395 0.930 . S
H413 C406 0.929 . S
Cu414 N415 1.999 1_554 S
Cu414 O420 1.974 . S
Cu414 N425 1.985 . S
Cu414 O434 1.959 . S
N415 Cu414 1.999 1_556 S
N415 C417 1.263 . S
N415 C419 1.389 . S
N416 C417 1.358 . S
N416 C418 1.400 . S
C417 N415 1.263 . S
C417 N416 1.358 . S
C417 H423 0.930 . S
C418 N416 1.400 . S
C418 C419 1.351 . S
C418 H435 0.930 . S
C419 N415 1.389 . S
C419 C418 1.351 . S
C419 H424 0.930 . S
O420 Cu414 1.974 . S
O420 C430 1.282 . S
C421 O422 1.261 . S
C421 O434 1.251 . S
O422 C421 1.261 . S
H423 C417 0.930 . S
H424 C419 0.930 . S
N425 Cu414 1.985 . S
N425 C427 1.335 . S
N425 C428 1.390 . S
N426 C427 1.345 . S
N426 C429 1.336 . S
C427 N425 1.335 . S
C427 N426 1.345 . S
C427 H432 0.930 . S
C428 N425 1.390 . S
C428 C429 1.346 . S
C428 H433 0.930 . S
C429 N426 1.336 . S
C429 C428 1.346 . S
C429 H436 0.929 . S
C430 O420 1.282 . S
C430 O431 1.216 . S
O431 C430 1.216 . S
H432 C427 0.930 . S
H433 C428 0.930 . S
O434 Cu414 1.959 . S
O434 C421 1.251 . S
H435 C418 0.930 . S
H436 C429 0.929 . S
Cu437 N438 1.999 . S
Cu437 O443 1.974 . S
Cu437 N448 1.985 . S
Cu437 O457 1.959 . S
N438 Cu437 1.999 . S
N438 C440 1.263 . S
N438 C442 1.389 . S
N439 C440 1.358 . S
N439 C441 1.400 . S
C440 N438 1.263 . S
C440 N439 1.358 . S
C440 H446 0.930 . S
C441 N439 1.400 . S
C441 C442 1.351 . S
C441 H458 0.930 . S
C442 N438 1.389 . S
C442 C441 1.351 . S
C442 H447 0.930 . S
O443 Cu437 1.974 . S
O443 C453 1.282 . S
C444 O445 1.261 . S
C444 O457 1.251 . S
O445 C444 1.261 . S
H446 C440 0.930 . S
H447 C442 0.930 . S
N448 Cu437 1.985 . S
N448 C450 1.335 . S
N448 C451 1.390 . S
N449 C450 1.345 . S
N449 C452 1.336 . S
C450 N448 1.335 . S
C450 N449 1.345 . S
C450 H455 0.930 . S
C451 N448 1.390 . S
C451 C452 1.346 . S
C451 H456 0.930 . S
C452 N449 1.336 . S
C452 C451 1.346 . S
C452 H459 0.929 . S
C453 O443 1.282 . S
C453 O454 1.216 . S
O454 C453 1.216 . S
H455 C450 0.930 . S
H456 C451 0.930 . S
O457 Cu437 1.959 . S
O457 C444 1.251 . S
H458 C441 0.930 . S
H459 C452 0.929 . S
Cu460 N461 1.999 1_554 S
Cu460 O466 1.974 . S
Cu460 N471 1.985 . S
Cu460 O480 1.959 . S
N461 Cu460 1.999 1_556 S
N461 C463 1.263 . S
N461 C465 1.389 . S
N462 C463 1.358 . S
N462 C464 1.400 . S
C463 N461 1.263 . S
C463 N462 1.358 . S
C463 H469 0.928 . S
C464 N462 1.400 . S
C464 C465 1.351 . S
C464 H481 0.930 . S
C465 N461 1.389 . S
C465 C464 1.351 . S
C465 H470 0.930 . S
O466 Cu460 1.974 . S
O466 C476 1.282 1_545 S
C467 O468 1.261 . S
C467 O480 1.251 . S
O468 C467 1.261 . S
H469 C463 0.928 . S
H470 C465 0.930 . S
N471 Cu460 1.985 . S
N471 C473 1.335 . S
N471 C474 1.390 . S
N472 C473 1.345 . S
N472 C475 1.336 . S
C473 N471 1.335 . S
C473 N472 1.345 . S
C473 H478 0.930 . S
C474 N471 1.390 . S
C474 C475 1.346 . S
C474 H479 0.930 1_545 S
C475 N472 1.336 . S
C475 C474 1.346 . S
C475 H482 0.929 . S
C476 O466 1.282 1_565 S
C476 O477 1.216 . S
O477 C476 1.216 . S
H478 C473 0.930 . S
H479 C474 0.930 1_565 S
O480 Cu460 1.959 . S
O480 C467 1.251 . S
H481 C464 0.930 . S
H482 C475 0.929 . S
Cu483 N484 1.999 . S
Cu483 O489 1.974 . S
Cu483 N494 1.985 . S
Cu483 O503 1.959 . S
N484 Cu483 1.999 . S
N484 C486 1.263 . S
N484 C488 1.389 . S
N485 C486 1.358 . S
N485 C487 1.400 . S
C486 N484 1.263 . S
C486 N485 1.358 . S
C486 H492 0.930 . S
C487 N485 1.400 . S
C487 C488 1.351 . S
C487 H504 0.930 . S
C488 N484 1.389 . S
C488 C487 1.351 . S
C488 H493 0.930 . S
O489 Cu483 1.974 . S
O489 C499 1.282 . S
C490 O491 1.261 . S
C490 O503 1.251 . S
O491 C490 1.261 . S
H492 C486 0.930 . S
H493 C488 0.930 . S
N494 Cu483 1.985 . S
N494 C496 1.335 . S
N494 C497 1.390 . S
N495 C496 1.345 . S
N495 C498 1.336 . S
C496 N494 1.335 . S
C496 N495 1.345 . S
C496 H501 0.930 . S
C497 N494 1.390 . S
C497 C498 1.346 . S
C497 H502 0.930 . S
C498 N495 1.336 . S
C498 C497 1.346 . S
C498 H505 0.929 . S
C499 O489 1.282 . S
C499 O500 1.216 . S
O500 C499 1.216 . S
H501 C496 0.930 . S
H502 C497 0.930 . S
O503 Cu483 1.959 . S
O503 C490 1.251 . S
H504 C487 0.930 . S
H505 C498 0.929 . S
Cu506 N507 1.999 . S
Cu506 O512 1.974 . S
Cu506 N517 1.985 . S
Cu506 O526 1.959 . S
N507 Cu506 1.999 . S
N507 C509 1.263 . S
N507 C511 1.389 . S
N508 C509 1.358 . S
N508 C510 1.400 . S
C509 N507 1.263 . S
C509 N508 1.358 . S
C509 H515 0.930 . S
C510 N508 1.400 . S
C510 C511 1.351 . S
C510 H527 0.930 . S
C511 N507 1.389 . S
C511 C510 1.351 . S
C511 H516 0.930 . S
O512 Cu506 1.974 . S
O512 C522 1.282 . S
C513 O514 1.261 . S
C513 O526 1.251 . S
O514 C513 1.261 . S
H515 C509 0.930 . S
H516 C511 0.930 . S
N517 Cu506 1.985 . S
N517 C519 1.335 . S
N517 C520 1.390 . S
N518 C519 1.345 . S
N518 C521 1.336 . S
C519 N517 1.335 . S
C519 N518 1.345 . S
C519 H524 0.930 . S
C520 N517 1.390 . S
C520 C521 1.346 . S
C520 H525 0.930 . S
C521 N518 1.336 . S
C521 C520 1.346 . S
C521 H528 0.929 . S
C522 O512 1.282 . S
C522 O523 1.216 . S
O523 C522 1.216 . S
H524 C519 0.930 . S
H525 C520 0.930 . S
O526 Cu506 1.959 . S
O526 C513 1.251 . S
H527 C510 0.930 . S
H528 C521 0.929 . S
Cu529 N530 1.999 1_556 S
Cu529 O535 1.974 . S
Cu529 N540 1.985 . S
Cu529 O549 1.959 . S
N530 Cu529 1.999 1_554 S
N530 C532 1.263 . S
N530 C534 1.389 . S
N531 C532 1.358 . S
N531 C533 1.400 . S
C532 N530 1.263 . S
C532 N531 1.358 . S
C532 H538 0.930 . S
C533 N531 1.400 . S
C533 C534 1.351 . S
C533 H550 0.930 . S
C534 N530 1.389 . S
C534 C533 1.351 . S
C534 H539 0.930 . S
O535 Cu529 1.974 . S
O535 C545 1.282 . S
C536 O537 1.261 . S
C536 O549 1.251 . S
O537 C536 1.261 . S
H538 C532 0.930 . S
H539 C534 0.930 . S
N540 Cu529 1.985 . S
N540 C542 1.335 . S
N540 C543 1.390 . S
N541 C542 1.345 . S
N541 C544 1.336 . S
C542 N540 1.335 . S
C542 N541 1.345 . S
C542 H547 0.930 . S
C543 N540 1.390 . S
C543 C544 1.346 . S
C543 H548 0.930 . S
C544 N541 1.336 . S
C544 C543 1.346 . S
C544 H551 0.929 . S
C545 O535 1.282 . S
C545 O546 1.216 . S
O546 C545 1.216 . S
H547 C542 0.930 . S
H548 C543 0.930 . S
O549 Cu529 1.959 . S
O549 C536 1.251 . S
H550 C533 0.930 . S
H551 C544 0.929 . S
Cu552 N553 1.999 . S
Cu552 O558 1.974 . S
Cu552 N563 1.985 . S
Cu552 O572 1.959 . S
N553 Cu552 1.999 . S
N553 C555 1.263 . S
N553 C557 1.389 . S
N554 C555 1.358 . S
N554 C556 1.400 . S
C555 N553 1.263 . S
C555 N554 1.358 . S
C555 H561 0.930 . S
C556 N554 1.400 . S
C556 C557 1.351 . S
C556 H573 0.930 . S
C557 N553 1.389 . S
C557 C556 1.351 . S
C557 H562 0.930 . S
O558 Cu552 1.974 . S
O558 C568 1.282 . S
C559 O560 1.261 . S
C559 O572 1.251 . S
O560 C559 1.261 . S
H561 C555 0.930 . S
H562 C557 0.930 . S
N563 Cu552 1.985 . S
N563 C565 1.335 . S
N563 C566 1.390 . S
N564 C565 1.345 . S
N564 C567 1.336 . S
C565 N563 1.335 . S
C565 N564 1.345 . S
C565 H570 0.930 . S
C566 N563 1.390 . S
C566 C567 1.346 . S
C566 H571 0.930 . S
C567 N564 1.336 . S
C567 C566 1.346 . S
C567 H574 0.929 . S
C568 O558 1.282 . S
C568 O569 1.216 . S
O569 C568 1.216 . S
H570 C565 0.930 . S
H571 C566 0.930 . S
O572 Cu552 1.959 . S
O572 C559 1.251 . S
H573 C556 0.930 . S
H574 C567 0.929 . S
Cu575 N576 1.999 . S
Cu575 O581 1.974 . S
Cu575 N586 1.985 . S
Cu575 O595 1.959 . S
N576 Cu575 1.999 . S
N576 C578 1.263 . S
N576 C580 1.389 . S
N577 C578 1.358 . S
N577 C579 1.400 . S
C578 N576 1.263 . S
C578 N577 1.358 . S
C578 H584 0.930 . S
C579 N577 1.400 . S
C579 C580 1.351 . S
C579 H596 0.930 . S
C580 N576 1.389 . S
C580 C579 1.351 . S
C580 H585 0.930 . S
O581 Cu575 1.974 . S
O581 C591 1.282 . S
C582 O583 1.261 . S
C582 O595 1.251 . S
O583 C582 1.261 . S
H584 C578 0.930 . S
H585 C580 0.930 . S
N586 Cu575 1.985 . S
N586 C588 1.335 . S
N586 C589 1.390 . S
N587 C588 1.345 . S
N587 C590 1.336 . S
C588 N586 1.335 . S
C588 N587 1.345 . S
C588 H593 0.930 . S
C589 N586 1.390 . S
C589 C590 1.346 . S
C589 H594 0.930 . S
C590 N587 1.336 . S
C590 C589 1.346 . S
C590 H597 0.929 . S
C591 O581 1.282 . S
C591 O592 1.216 . S
O592 C591 1.216 . S
H593 C588 0.930 . S
H594 C589 0.930 . S
O595 Cu575 1.959 . S
O595 C582 1.251 . S
H596 C579 0.930 . S
H597 C590 0.929 . S
Cu598 N599 1.999 . S
Cu598 O604 1.974 . S
Cu598 N609 1.985 . S
Cu598 O618 1.959 . S
N599 Cu598 1.999 . S
N599 C601 1.263 . S
N599 C603 1.389 . S
N600 C601 1.358 . S
N600 C602 1.400 . S
C601 N599 1.263 . S
C601 N600 1.358 . S
C601 H607 0.930 . S
C602 N600 1.400 . S
C602 C603 1.351 . S
C602 H619 0.930 . S
C603 N599 1.389 . S
C603 C602 1.351 . S
C603 H608 0.930 . S
O604 Cu598 1.974 . S
O604 C614 1.282 . S
C605 O606 1.261 . S
C605 O618 1.251 . S
O606 C605 1.261 . S
H607 C601 0.930 . S
H608 C603 0.930 . S
N609 Cu598 1.985 . S
N609 C611 1.335 . S
N609 C612 1.390 . S
N610 C611 1.345 . S
N610 C613 1.336 . S
C611 N609 1.335 . S
C611 N610 1.345 . S
C611 H616 0.930 . S
C612 N609 1.390 . S
C612 C613 1.346 . S
C612 H617 0.930 . S
C613 N610 1.336 . S
C613 C612 1.346 . S
C613 H620 0.929 . S
C614 O604 1.282 . S
C614 O615 1.216 . S
O615 C614 1.216 . S
H616 C611 0.930 . S
H617 C612 0.930 . S
O618 Cu598 1.959 . S
O618 C605 1.251 . S
H619 C602 0.930 . S
H620 C613 0.929 . S
Cu621 N622 1.999 . S
Cu621 O627 1.974 . S
Cu621 N632 1.985 . S
Cu621 O641 1.959 . S
N622 Cu621 1.999 . S
N622 C624 1.263 . S
N622 C626 1.389 . S
N623 C624 1.358 . S
N623 C625 1.400 . S
C624 N622 1.263 . S
C624 N623 1.358 . S
C624 H630 0.930 . S
C625 N623 1.400 . S
C625 C626 1.351 . S
C625 H642 0.930 . S
C626 N622 1.389 . S
C626 C625 1.351 . S
C626 H631 0.930 . S
O627 Cu621 1.974 . S
O627 C637 1.282 . S
C628 O629 1.261 . S
C628 O641 1.251 . S
O629 C628 1.261 . S
H630 C624 0.930 . S
H631 C626 0.930 . S
N632 Cu621 1.985 . S
N632 C634 1.335 . S
N632 C635 1.390 . S
N633 C634 1.345 . S
N633 C636 1.336 . S
C634 N632 1.335 . S
C634 N633 1.345 . S
C634 H639 0.930 . S
C635 N632 1.390 . S
C635 C636 1.346 . S
C635 H640 0.930 . S
C636 N633 1.336 . S
C636 C635 1.346 . S
C636 H643 0.929 . S
C637 O627 1.282 . S
C637 O638 1.216 . S
O638 C637 1.216 . S
H639 C634 0.930 . S
H640 C635 0.930 . S
O641 Cu621 1.959 . S
O641 C628 1.251 . S
H642 C625 0.930 . S
H643 C636 0.929 . S
Cu644 N645 1.999 . S
Cu644 O650 1.974 . S
Cu644 N655 1.985 . S
Cu644 O664 1.959 . S
N645 Cu644 1.999 . S
N645 C647 1.263 . S
N645 C649 1.389 . S
N646 C647 1.358 . S
N646 C648 1.400 . S
C647 N645 1.263 . S
C647 N646 1.358 . S
C647 H653 0.930 . S
C648 N646 1.400 . S
C648 C649 1.351 . S
C648 H665 0.930 . S
C649 N645 1.389 . S
C649 C648 1.351 . S
C649 H654 0.930 . S
O650 Cu644 1.974 . S
O650 C660 1.282 . S
C651 O652 1.261 . S
C651 O664 1.251 . S
O652 C651 1.261 . S
H653 C647 0.930 . S
H654 C649 0.930 . S
N655 Cu644 1.985 . S
N655 C657 1.335 . S
N655 C658 1.390 . S
N656 C657 1.345 . S
N656 C659 1.336 . S
C657 N655 1.335 . S
C657 N656 1.345 . S
C657 H662 0.930 . S
C658 N655 1.390 . S
C658 C659 1.346 . S
C658 H663 0.930 . S
C659 N656 1.336 . S
C659 C658 1.346 . S
C659 H666 0.929 . S
C660 O650 1.282 . S
C660 O661 1.216 . S
O661 C660 1.216 . S
H662 C657 0.930 . S
H663 C658 0.930 . S
O664 Cu644 1.959 . S
O664 C651 1.251 . S
H665 C648 0.930 . S
H666 C659 0.929 . S
Cu667 N668 1.999 . S
Cu667 O673 1.974 . S
Cu667 N678 1.985 . S
Cu667 O687 1.959 . S
N668 Cu667 1.999 . S
N668 C670 1.263 . S
N668 C672 1.389 . S
N669 C670 1.358 . S
N669 C671 1.400 . S
C670 N668 1.263 . S
C670 N669 1.358 . S
C670 H676 0.930 . S
C671 N669 1.400 . S
C671 C672 1.351 . S
C671 H688 0.930 . S
C672 N668 1.389 . S
C672 C671 1.351 . S
C672 H677 0.930 . S
O673 Cu667 1.974 . S
O673 C683 1.282 . S
C674 O675 1.261 . S
C674 O687 1.251 . S
O675 C674 1.261 . S
H676 C670 0.930 . S
H677 C672 0.930 . S
N678 Cu667 1.985 . S
N678 C680 1.335 . S
N678 C681 1.390 . S
N679 C680 1.345 . S
N679 C682 1.336 . S
C680 N678 1.335 . S
C680 N679 1.345 . S
C680 H685 0.930 . S
C681 N678 1.390 . S
C681 C682 1.346 . S
C681 H686 0.930 . S
C682 N679 1.336 . S
C682 C681 1.346 . S
C682 H689 0.929 . S
C683 O673 1.282 . S
C683 O684 1.216 . S
O684 C683 1.216 . S
H685 C680 0.930 . S
H686 C681 0.930 . S
O687 Cu667 1.959 . S
O687 C674 1.251 . S
H688 C671 0.930 . S
H689 C682 0.929 . S
Cu690 N691 1.999 . S
Cu690 O696 1.974 . S
Cu690 N701 1.985 . S
Cu690 O710 1.959 . S
N691 Cu690 1.999 . S
N691 C693 1.263 . S
N691 C695 1.389 . S
N692 C693 1.358 . S
N692 C694 1.400 . S
C693 N691 1.263 . S
C693 N692 1.358 . S
C693 H699 0.930 . S
C694 N692 1.400 . S
C694 C695 1.351 . S
C694 H711 0.930 . S
C695 N691 1.389 . S
C695 C694 1.351 . S
C695 H700 0.930 . S
O696 Cu690 1.974 . S
O696 C706 1.282 . S
C697 O698 1.261 . S
C697 O710 1.251 . S
O698 C697 1.261 . S
H699 C693 0.930 . S
H700 C695 0.930 . S
N701 Cu690 1.985 . S
N701 C703 1.335 . S
N701 C704 1.390 . S
N702 C703 1.345 . S
N702 C705 1.336 . S
C703 N701 1.335 . S
C703 N702 1.345 . S
C703 H708 0.930 . S
C704 N701 1.390 . S
C704 C705 1.346 . S
C704 H709 0.930 . S
C705 N702 1.336 . S
C705 C704 1.346 . S
C705 H712 0.929 . S
C706 O696 1.282 . S
C706 O707 1.216 . S
O707 C706 1.216 . S
H708 C703 0.930 . S
H709 C704 0.930 . S
O710 Cu690 1.959 . S
O710 C697 1.251 . S
H711 C694 0.930 . S
H712 C705 0.929 . S
Cu713 N714 1.999 . S
Cu713 O719 1.974 . S
Cu713 N724 1.985 . S
Cu713 O733 1.959 . S
N714 Cu713 1.999 . S
N714 C716 1.263 . S
N714 C718 1.389 . S
N715 C716 1.358 . S
N715 C717 1.400 . S
C716 N714 1.263 . S
C716 N715 1.358 . S
C716 H722 0.930 . S
C717 N715 1.400 . S
C717 C718 1.351 . S
C717 H734 0.930 . S
C718 N714 1.389 . S
C718 C717 1.351 . S
C718 H723 0.930 . S
O719 Cu713 1.974 . S
O719 C729 1.282 . S
C720 O721 1.261 . S
C720 O733 1.251 . S
O721 C720 1.261 . S
H722 C716 0.930 . S
H723 C718 0.930 . S
N724 Cu713 1.985 . S
N724 C726 1.335 . S
N724 C727 1.390 . S
N725 C726 1.345 . S
N725 C728 1.336 . S
C726 N724 1.335 . S
C726 N725 1.345 . S
C726 H731 0.930 . S
C727 N724 1.390 . S
C727 C728 1.346 . S
C727 H732 0.930 . S
C728 N725 1.336 . S
C728 C727 1.346 . S
C728 H735 0.929 . S
C729 O719 1.282 . S
C729 O730 1.216 . S
O730 C729 1.216 . S
H731 C726 0.930 . S
H732 C727 0.930 . S
O733 Cu713 1.959 . S
O733 C720 1.251 . S
H734 C717 0.930 . S
H735 C728 0.929 . S
Cu736 N737 1.999 . S
Cu736 O742 1.974 . S
Cu736 N747 1.985 . S
Cu736 O756 1.959 . S
N737 Cu736 1.999 . S
N737 C739 1.263 . S
N737 C741 1.389 . S
N738 C739 1.358 . S
N738 C740 1.400 . S
C739 N737 1.263 . S
C739 N738 1.358 . S
C739 H745 0.930 . S
C740 N738 1.400 . S
C740 C741 1.351 . S
C740 H757 0.930 . S
C741 N737 1.389 . S
C741 C740 1.351 . S
C741 H746 0.930 . S
O742 Cu736 1.974 . S
O742 C752 1.282 . S
C743 O744 1.261 . S
C743 O756 1.251 . S
O744 C743 1.261 . S
H745 C739 0.930 . S
H746 C741 0.930 . S
N747 Cu736 1.985 . S
N747 C749 1.335 . S
N747 C750 1.390 . S
N748 C749 1.345 . S
N748 C751 1.336 . S
C749 N747 1.335 . S
C749 N748 1.345 . S
C749 H754 0.930 . S
C750 N747 1.390 . S
C750 C751 1.346 . S
C750 H755 0.930 . S
C751 N748 1.336 . S
C751 C750 1.346 . S
C751 H758 0.929 . S
C752 O742 1.282 . S
C752 O753 1.216 . S
O753 C752 1.216 . S
H754 C749 0.930 . S
H755 C750 0.930 . S
O756 Cu736 1.959 . S
O756 C743 1.251 . S
H757 C740 0.930 . S
H758 C751 0.929 . S
Cu759 N760 1.999 . S
Cu759 O765 1.974 . S
Cu759 N770 1.985 . S
Cu759 O779 1.959 . S
N760 Cu759 1.999 . S
N760 C762 1.263 . S
N760 C764 1.389 . S
N761 C762 1.358 . S
N761 C763 1.400 . S
C762 N760 1.263 . S
C762 N761 1.358 . S
C762 H768 0.930 . S
C763 N761 1.400 . S
C763 C764 1.351 . S
C763 H780 0.930 . S
C764 N760 1.389 . S
C764 C763 1.351 . S
C764 H769 0.930 . S
O765 Cu759 1.974 . S
O765 C775 1.282 . S
C766 O767 1.261 . S
C766 O779 1.251 . S
O767 C766 1.261 . S
H768 C762 0.930 . S
H769 C764 0.930 . S
N770 Cu759 1.985 . S
N770 C772 1.335 1_556 S
N770 C773 1.390 . S
N771 C772 1.345 . S
N771 C774 1.336 1_554 S
C772 N770 1.335 1_554 S
C772 N771 1.345 . S
C772 H777 0.930 . S
C773 N770 1.390 . S
C773 C774 1.346 . S
C773 H778 0.930 . S
C774 N771 1.336 1_556 S
C774 C773 1.346 . S
C774 H781 0.929 . S
C775 O765 1.282 . S
C775 O776 1.216 . S
O776 C775 1.216 . S
H777 C772 0.930 . S
H778 C773 0.930 . S
O779 Cu759 1.959 . S
O779 C766 1.251 . S
H780 C763 0.930 . S
H781 C774 0.929 . S
Cu782 N783 1.999 . S
Cu782 O788 1.974 . S
Cu782 N793 1.985 . S
Cu782 O802 1.959 . S
N783 Cu782 1.999 . S
N783 C785 1.263 . S
N783 C787 1.389 . S
N784 C785 1.358 . S
N784 C786 1.400 . S
C785 N783 1.263 . S
C785 N784 1.358 . S
C785 H791 0.930 . S
C786 N784 1.400 . S
C786 C787 1.351 . S
C786 H803 0.930 . S
C787 N783 1.389 . S
C787 C786 1.351 . S
C787 H792 0.930 . S
O788 Cu782 1.974 . S
O788 C798 1.282 . S
C789 O790 1.261 . S
C789 O802 1.251 . S
O790 C789 1.261 . S
H791 C785 0.930 . S
H792 C787 0.930 . S
N793 Cu782 1.985 . S
N793 C795 1.335 . S
N793 C796 1.390 . S
N794 C795 1.345 . S
N794 C797 1.336 . S
C795 N793 1.335 . S
C795 N794 1.345 . S
C795 H800 0.930 . S
C796 N793 1.390 . S
C796 C797 1.346 . S
C796 H801 0.930 . S
C797 N794 1.336 . S
C797 C796 1.346 . S
C797 H804 0.929 . S
C798 O788 1.282 . S
C798 O799 1.216 . S
O799 C798 1.216 . S
H800 C795 0.930 . S
H801 C796 0.930 . S
O802 Cu782 1.959 . S
O802 C789 1.251 . S
H803 C786 0.930 . S
H804 C797 0.929 . S
Cu805 N806 1.999 . S
Cu805 O811 1.974 . S
Cu805 N816 1.985 . S
Cu805 O825 1.959 . S
N806 Cu805 1.999 . S
N806 C808 1.263 . S
N806 C810 1.389 . S
N807 C808 1.358 . S
N807 C809 1.400 1_655 S
C808 N806 1.263 . S
C808 N807 1.358 . S
C808 H814 0.930 . S
C809 N807 1.400 1_455 S
C809 C810 1.351 1_455 S
C809 H826 0.930 . S
C810 N806 1.389 . S
C810 C809 1.351 1_655 S
C810 H815 0.930 1_655 S
O811 Cu805 1.974 . S
O811 C821 1.282 . S
C812 O813 1.261 . S
C812 O825 1.251 . S
O813 C812 1.261 . S
H814 C808 0.930 . S
H815 C810 0.930 1_455 S
N816 Cu805 1.985 . S
N816 C818 1.335 . S
N816 C819 1.390 . S
N817 C818 1.345 . S
N817 C820 1.336 . S
C818 N816 1.335 . S
C818 N817 1.345 . S
C818 H823 0.930 . S
C819 N816 1.390 . S
C819 C820 1.346 . S
C819 H824 0.930 . S
C820 N817 1.336 . S
C820 C819 1.346 . S
C820 H827 0.929 . S
C821 O811 1.282 . S
C821 O822 1.216 . S
O822 C821 1.216 . S
H823 C818 0.930 . S
H824 C819 0.930 . S
O825 Cu805 1.959 . S
O825 C812 1.251 . S
H826 C809 0.930 . S
H827 C820 0.929 . S
Cu828 N829 1.999 . S
Cu828 O834 1.974 . S
Cu828 N839 1.985 . S
Cu828 O848 1.959 . S
N829 Cu828 1.999 . S
N829 C831 1.263 . S
N829 C833 1.389 . S
N830 C831 1.358 . S
N830 C832 1.400 . S
C831 N829 1.263 . S
C831 N830 1.358 . S
C831 H837 0.930 . S
C832 N830 1.400 . S
C832 C833 1.351 . S
C832 H849 0.930 . S
C833 N829 1.389 . S
C833 C832 1.351 . S
C833 H838 0.930 . S
O834 Cu828 1.974 . S
O834 C844 1.282 . S
C835 O836 1.261 . S
C835 O848 1.251 . S
O836 C835 1.261 . S
H837 C831 0.930 . S
H838 C833 0.930 . S
N839 Cu828 1.985 . S
N839 C841 1.335 . S
N839 C842 1.390 . S
N840 C841 1.345 . S
N840 C843 1.336 . S
C841 N839 1.335 . S
C841 N840 1.345 . S
C841 H846 0.930 . S
C842 N839 1.390 . S
C842 C843 1.346 . S
C842 H847 0.930 . S
C843 N840 1.336 . S
C843 C842 1.346 . S
C843 H850 0.929 . S
C844 O834 1.282 . S
C844 O845 1.216 . S
O845 C844 1.216 . S
H846 C841 0.930 . S
H847 C842 0.930 . S
O848 Cu828 1.959 . S
O848 C835 1.251 . S
H849 C832 0.930 . S
H850 C843 0.929 . S
Cu851 N852 1.999 . S
Cu851 O857 1.974 . S
Cu851 N862 1.985 . S
Cu851 O871 1.959 . S
N852 Cu851 1.999 . S
N852 C854 1.263 . S
N852 C856 1.389 . S
N853 C854 1.358 . S
N853 C855 1.400 1_655 S
C854 N852 1.263 . S
C854 N853 1.358 . S
C854 H860 0.930 . S
C855 N853 1.400 1_455 S
C855 C856 1.351 1_455 S
C855 H872 0.930 . S
C856 N852 1.389 . S
C856 C855 1.351 1_655 S
C856 H861 0.930 1_655 S
O857 Cu851 1.974 . S
O857 C867 1.282 . S
C858 O859 1.261 . S
C858 O871 1.251 . S
O859 C858 1.261 . S
H860 C854 0.930 . S
H861 C856 0.930 1_455 S
N862 Cu851 1.985 . S
N862 C864 1.335 1_554 S
N862 C865 1.390 . S
N863 C864 1.345 . S
N863 C866 1.336 1_556 S
C864 N862 1.335 1_556 S
C864 N863 1.345 . S
C864 H869 0.930 . S
C865 N862 1.390 . S
C865 C866 1.346 . S
C865 H870 0.930 . S
C866 N863 1.336 1_554 S
C866 C865 1.346 . S
C866 H873 0.929 . S
C867 O857 1.282 . S
C867 O868 1.216 . S
O868 C867 1.216 . S
H869 C864 0.930 . S
H870 C865 0.930 . S
O871 Cu851 1.959 . S
O871 C858 1.251 . S
H872 C855 0.930 . S
H873 C866 0.929 . S
Cu874 N875 1.999 . S
Cu874 O880 1.974 . S
Cu874 N885 1.985 . S
Cu874 O894 1.959 . S
N875 Cu874 1.999 . S
N875 C877 1.263 . S
N875 C879 1.389 . S
N876 C877 1.358 . S
N876 C878 1.400 . S
C877 N875 1.263 . S
C877 N876 1.358 . S
C877 H883 0.930 . S
C878 N876 1.400 . S
C878 C879 1.351 . S
C878 H895 0.930 . S
C879 N875 1.389 . S
C879 C878 1.351 . S
C879 H884 0.930 . S
O880 Cu874 1.974 . S
O880 C890 1.282 . S
C881 O882 1.261 . S
C881 O894 1.251 . S
O882 C881 1.261 . S
H883 C877 0.930 . S
H884 C879 0.930 . S
N885 Cu874 1.985 . S
N885 C887 1.335 . S
N885 C888 1.390 . S
N886 C887 1.345 . S
N886 C889 1.336 . S
C887 N885 1.335 . S
C887 N886 1.345 . S
C887 H892 0.930 . S
C888 N885 1.390 . S
C888 C889 1.346 . S
C888 H893 0.930 . S
C889 N886 1.336 . S
C889 C888 1.346 . S
C889 H896 0.929 . S
C890 O880 1.282 . S
C890 O891 1.216 . S
O891 C890 1.216 . S
H892 C887 0.930 . S
H893 C888 0.930 . S
O894 Cu874 1.959 . S
O894 C881 1.251 . S
H895 C878 0.930 . S
H896 C889 0.929 . S
Cu897 N898 1.999 . S
Cu897 O903 1.974 . S
Cu897 N908 1.985 . S
Cu897 O917 1.959 . S
N898 Cu897 1.999 . S
N898 C900 1.263 . S
N898 C902 1.389 . S
N899 C900 1.358 . S
N899 C901 1.400 . S
C900 N898 1.263 . S
C900 N899 1.358 . S
C900 H906 0.930 . S
C901 N899 1.400 . S
C901 C902 1.351 . S
C901 H918 0.930 . S
C902 N898 1.389 . S
C902 C901 1.351 . S
C902 H907 0.930 . S
O903 Cu897 1.974 . S
O903 C913 1.282 . S
C904 O905 1.261 . S
C904 O917 1.251 . S
O905 C904 1.261 . S
H906 C900 0.930 . S
H907 C902 0.930 . S
N908 Cu897 1.985 . S
N908 C910 1.335 . S
N908 C911 1.390 . S
N909 C910 1.345 . S
N909 C912 1.336 . S
C910 N908 1.335 . S
C910 N909 1.345 . S
C910 H915 0.930 . S
C911 N908 1.390 . S
C911 C912 1.346 . S
C911 H916 0.930 . S
C912 N909 1.336 . S
C912 C911 1.346 . S
C912 H919 0.929 . S
C913 O903 1.282 . S
C913 O914 1.216 . S
O914 C913 1.216 . S
H915 C910 0.930 . S
H916 C911 0.930 . S
O917 Cu897 1.959 . S
O917 C904 1.251 . S
H918 C901 0.930 . S
H919 C912 0.929 . S
Cu920 N921 1.999 . S
Cu920 O926 1.974 . S
Cu920 N931 1.985 . S
Cu920 O940 1.959 . S
N921 Cu920 1.999 . S
N921 C923 1.263 . S
N921 C925 1.389 . S
N922 C923 1.358 . S
N922 C924 1.400 . S
C923 N921 1.263 . S
C923 N922 1.358 . S
C923 H929 0.930 . S
C924 N922 1.400 . S
C924 C925 1.351 . S
C924 H941 0.930 . S
C925 N921 1.389 . S
C925 C924 1.351 . S
C925 H930 0.930 . S
O926 Cu920 1.974 . S
O926 C936 1.282 . S
C927 O928 1.261 . S
C927 O940 1.251 . S
O928 C927 1.261 . S
H929 C923 0.930 . S
H930 C925 0.930 . S
N931 Cu920 1.985 . S
N931 C933 1.335 . S
N931 C934 1.390 . S
N932 C933 1.345 . S
N932 C935 1.336 . S
C933 N931 1.335 . S
C933 N932 1.345 . S
C933 H938 0.930 . S
C934 N931 1.390 . S
C934 C935 1.346 . S
C934 H939 0.930 . S
C935 N932 1.336 . S
C935 C934 1.346 . S
C935 H942 0.929 . S
C936 O926 1.282 . S
C936 O937 1.216 . S
O937 C936 1.216 . S
H938 C933 0.930 . S
H939 C934 0.930 . S
O940 Cu920 1.959 . S
O940 C927 1.251 . S
H941 C924 0.930 . S
H942 C935 0.929 . S
Cu943 N944 1.999 . S
Cu943 O949 1.974 . S
Cu943 N954 1.985 . S
Cu943 O963 1.959 . S
N944 Cu943 1.999 . S
N944 C946 1.263 . S
N944 C948 1.389 . S
N945 C946 1.358 . S
N945 C947 1.400 . S
C946 N944 1.263 . S
C946 N945 1.358 . S
C946 H952 0.930 . S
C947 N945 1.400 . S
C947 C948 1.351 . S
C947 H964 0.930 . S
C948 N944 1.389 . S
C948 C947 1.351 . S
C948 H953 0.930 . S
O949 Cu943 1.974 . S
O949 C959 1.282 . S
C950 O951 1.261 . S
C950 O963 1.251 . S
O951 C950 1.261 . S
H952 C946 0.930 . S
H953 C948 0.930 . S
N954 Cu943 1.985 . S
N954 C956 1.335 . S
N954 C957 1.390 . S
N955 C956 1.345 . S
N955 C958 1.336 . S
C956 N954 1.335 . S
C956 N955 1.345 . S
C956 H961 0.930 . S
C957 N954 1.390 . S
C957 C958 1.346 . S
C957 H962 0.930 . S
C958 N955 1.336 . S
C958 C957 1.346 . S
C958 H965 0.929 . S
C959 O949 1.282 . S
C959 O960 1.216 . S
O960 C959 1.216 . S
H961 C956 0.930 . S
H962 C957 0.930 . S
O963 Cu943 1.959 . S
O963 C950 1.251 . S
H964 C947 0.930 . S
H965 C958 0.929 . S
Cu966 N967 1.999 . S
Cu966 O972 1.974 . S
Cu966 N977 1.985 . S
Cu966 O986 1.959 . S
N967 Cu966 1.999 . S
N967 C969 1.263 . S
N967 C971 1.389 . S
N968 C969 1.358 . S
N968 C970 1.400 . S
C969 N967 1.263 . S
C969 N968 1.358 . S
C969 H975 0.962 . S
C970 N968 1.400 . S
C970 C971 1.351 . S
C970 H987 0.930 . S
C971 N967 1.389 . S
C971 C970 1.351 . S
C971 H976 0.930 . S
O972 Cu966 1.974 . S
O972 C982 1.282 1_565 S
C973 O974 1.261 . S
C973 O986 1.251 . S
O974 C973 1.261 . S
H975 C969 0.962 . S
H976 C971 0.930 . S
N977 Cu966 1.985 . S
N977 C979 1.335 . S
N977 C980 1.390 . S
N978 C979 1.345 . S
N978 C981 1.336 . S
C979 N977 1.335 . S
C979 N978 1.345 . S
C979 H984 0.930 . S
C980 N977 1.390 . S
C980 C981 1.346 . S
C980 H985 0.896 1_565 S
C981 N978 1.336 . S
C981 C980 1.346 . S
C981 H988 0.929 . S
C982 O972 1.282 1_545 S
C982 O983 1.216 . S
O983 C982 1.216 . S
H984 C979 0.930 . S
H985 C980 0.896 1_545 S
O986 Cu966 1.959 . S
O986 C973 1.251 . S
H987 C970 0.930 . S
H988 C981 0.929 . S
Cu989 N990 1.999 . S
Cu989 O995 1.974 . S
Cu989 N1000 1.985 . S
Cu989 O1009 1.959 . S
N990 Cu989 1.999 . S
N990 C992 1.263 . S
N990 C994 1.389 . S
N991 C992 1.358 . S
N991 C993 1.400 . S
C992 N990 1.263 . S
C992 N991 1.358 . S
C992 H998 0.930 . S
C993 N991 1.400 . S
C993 C994 1.351 . S
C993 H1010 0.930 . S
C994 N990 1.389 . S
C994 C993 1.351 . S
C994 H999 0.930 . S
O995 Cu989 1.974 . S
O995 C1005 1.282 . S
C996 O997 1.261 . S
C996 O1009 1.251 . S
O997 C996 1.261 . S
H998 C992 0.930 . S
H999 C994 0.930 . S
N1000 Cu989 1.985 . S
N1000 C1002 1.335 . S
N1000 C1003 1.390 . S
N1001 C1002 1.345 . S
N1001 C1004 1.336 . S
C1002 N1000 1.335 . S
C1002 N1001 1.345 . S
C1002 H1007 0.930 . S
C1003 N1000 1.390 . S
C1003 C1004 1.346 . S
C1003 H1008 0.930 . S
C1004 N1001 1.336 . S
C1004 C1003 1.346 . S
C1004 H1011 0.929 . S
C1005 O995 1.282 . S
C1005 O1006 1.216 . S
O1006 C1005 1.216 . S
H1007 C1002 0.930 . S
H1008 C1003 0.930 . S
O1009 Cu989 1.959 . S
O1009 C996 1.251 . S
H1010 C993 0.930 . S
H1011 C1004 0.929 . S
Cu1012 N1013 1.999 . S
Cu1012 O1018 1.974 . S
Cu1012 N1023 1.985 . S
Cu1012 O1032 1.959 . S
N1013 Cu1012 1.999 . S
N1013 C1015 1.263 . S
N1013 C1017 1.389 . S
N1014 C1015 1.358 . S
N1014 C1016 1.400 . S
C1015 N1013 1.263 . S
C1015 N1014 1.358 . S
C1015 H1021 0.930 . S
C1016 N1014 1.400 . S
C1016 C1017 1.351 . S
C1016 H1033 0.930 . S
C1017 N1013 1.389 . S
C1017 C1016 1.351 . S
C1017 H1022 0.930 . S
O1018 Cu1012 1.974 . S
O1018 C1028 1.282 . S
C1019 O1020 1.261 . S
C1019 O1032 1.251 . S
O1020 C1019 1.261 . S
H1021 C1015 0.930 . S
H1022 C1017 0.930 . S
N1023 Cu1012 1.985 . S
N1023 C1025 1.335 . S
N1023 C1026 1.390 . S
N1024 C1025 1.345 . S
N1024 C1027 1.336 . S
C1025 N1023 1.335 . S
C1025 N1024 1.345 . S
C1025 H1030 0.930 . S
C1026 N1023 1.390 . S
C1026 C1027 1.346 . S
C1026 H1031 0.930 . S
C1027 N1024 1.336 . S
C1027 C1026 1.346 . S
C1027 H1034 0.929 . S
C1028 O1018 1.282 . S
C1028 O1029 1.216 . S
O1029 C1028 1.216 . S
H1030 C1025 0.930 . S
H1031 C1026 0.930 . S
O1032 Cu1012 1.959 . S
O1032 C1019 1.251 . S
H1033 C1016 0.930 . S
H1034 C1027 0.929 . S
Cu1035 N1036 1.999 . S
Cu1035 O1041 1.974 . S
Cu1035 N1046 1.985 . S
Cu1035 O1055 1.959 . S
N1036 Cu1035 1.999 . S
N1036 C1038 1.263 . S
N1036 C1040 1.389 . S
N1037 C1038 1.358 . S
N1037 C1039 1.400 . S
C1038 N1036 1.263 . S
C1038 N1037 1.358 . S
C1038 H1044 0.930 . S
C1039 N1037 1.400 . S
C1039 C1040 1.351 . S
C1039 H1056 0.930 . S
C1040 N1036 1.389 . S
C1040 C1039 1.351 . S
C1040 H1045 0.930 . S
O1041 Cu1035 1.974 . S
O1041 C1051 1.282 . S
C1042 O1043 1.261 . S
C1042 O1055 1.251 . S
O1043 C1042 1.261 . S
H1044 C1038 0.930 . S
H1045 C1040 0.930 . S
N1046 Cu1035 1.985 . S
N1046 C1048 1.335 . S
N1046 C1049 1.390 . S
N1047 C1048 1.345 . S
N1047 C1050 1.336 . S
C1048 N1046 1.335 . S
C1048 N1047 1.345 . S
C1048 H1053 0.930 . S
C1049 N1046 1.390 . S
C1049 C1050 1.346 . S
C1049 H1054 0.930 . S
C1050 N1047 1.336 . S
C1050 C1049 1.346 . S
C1050 H1057 0.929 . S
C1051 O1041 1.282 . S
C1051 O1052 1.216 . S
O1052 C1051 1.216 . S
H1053 C1048 0.930 . S
H1054 C1049 0.930 . S
O1055 Cu1035 1.959 . S
O1055 C1042 1.251 . S
H1056 C1039 0.930 . S
H1057 C1050 0.929 . S
Cu1058 N1059 1.999 1_556 S
Cu1058 O1064 1.974 . S
Cu1058 N1069 1.985 . S
Cu1058 O1078 1.959 . S
N1059 Cu1058 1.999 1_554 S
N1059 C1061 1.263 . S
N1059 C1063 1.389 . S
N1060 C1061 1.358 . S
N1060 C1062 1.400 . S
C1061 N1059 1.263 . S
C1061 N1060 1.358 . S
C1061 H1067 0.928 . S
C1062 N1060 1.400 . S
C1062 C1063 1.351 . S
C1062 H1079 0.930 . S
C1063 N1059 1.389 . S
C1063 C1062 1.351 . S
C1063 H1068 0.930 . S
O1064 Cu1058 1.974 . S
O1064 C1074 1.282 1_545 S
C1065 O1066 1.261 . S
C1065 O1078 1.251 . S
O1066 C1065 1.261 . S
H1067 C1061 0.928 . S
H1068 C1063 0.930 . S
N1069 Cu1058 1.985 . S
N1069 C1071 1.335 . S
N1069 C1072 1.390 . S
N1070 C1071 1.345 . S
N1070 C1073 1.336 . S
C1071 N1069 1.335 . S
C1071 N1070 1.345 . S
C1071 H1076 0.930 . S
C1072 N1069 1.390 . S
C1072 C1073 1.346 . S
C1072 H1077 0.930 1_545 S
C1073 N1070 1.336 . S
C1073 C1072 1.346 . S
C1073 H1080 0.929 . S
C1074 O1064 1.282 1_565 S
C1074 O1075 1.216 . S
O1075 C1074 1.216 . S
H1076 C1071 0.930 . S
H1077 C1072 0.930 1_565 S
O1078 Cu1058 1.959 . S
O1078 C1065 1.251 . S
H1079 C1062 0.930 . S
H1080 C1073 0.929 . S
Cu1081 N1082 1.999 . S
Cu1081 O1087 1.974 . S
Cu1081 N1092 1.985 . S
Cu1081 O1101 1.959 . S
N1082 Cu1081 1.999 . S
N1082 C1084 1.263 . S
N1082 C1086 1.389 . S
N1083 C1084 1.358 . S
N1083 C1085 1.400 . S
C1084 N1082 1.263 . S
C1084 N1083 1.358 . S
C1084 H1090 0.962 . S
C1085 N1083 1.400 . S
C1085 C1086 1.351 . S
C1085 H1102 0.930 . S
C1086 N1082 1.389 . S
C1086 C1085 1.351 . S
C1086 H1091 0.930 . S
O1087 Cu1081 1.974 . S
O1087 C1097 1.282 1_565 S
C1088 O1089 1.261 . S
C1088 O1101 1.251 . S
O1089 C1088 1.261 . S
H1090 C1084 0.962 . S
H1091 C1086 0.930 . S
N1092 Cu1081 1.985 . S
N1092 C1094 1.335 . S
N1092 C1095 1.390 . S
N1093 C1094 1.345 . S
N1093 C1096 1.336 . S
C1094 N1092 1.335 . S
C1094 N1093 1.345 . S
C1094 H1099 0.930 . S
C1095 N1092 1.390 . S
C1095 C1096 1.346 . S
C1095 H1100 0.896 1_565 S
C1096 N1093 1.336 . S
C1096 C1095 1.346 . S
C1096 H1103 0.929 . S
C1097 O1087 1.282 1_545 S
C1097 O1098 1.216 . S
O1098 C1097 1.216 . S
H1099 C1094 0.930 . S
H1100 C1095 0.896 1_545 S
O1101 Cu1081 1.959 . S
O1101 C1088 1.251 . S
H1102 C1085 0.930 . S
H1103 C1096 0.929 . S
H1104 C1112 0.950 . S
H1105 C1117 0.950 . S
H1106 C1114 0.950 . S
H1107 C1116 0.950 . S
H1108 C1118 0.950 . S
H1109 C1120 0.950 . S
H1110 C1122 0.950 . S
H1111 C1123 0.950 . S
C1112 H1104 0.950 . S
C1112 C1113 1.386 . S
C1112 C1114 1.391 . S
C1113 C1112 1.386 . S
C1113 C1117 1.393 . S
C1114 H1106 0.950 . S
C1114 C1112 1.391 . S
C1114 C1115 1.400 . S
C1115 C1114 1.400 . S
C1115 C1116 1.398 . S
C1115 C1121 1.491 . S
C1116 H1107 0.950 . S
C1116 C1115 1.398 . S
C1116 C1117 1.391 . S
C1117 H1105 0.950 . S
C1117 C1113 1.393 . S
C1117 C1116 1.391 . S
C1118 H1108 0.950 . S
C1118 C1119 1.386 . S
C1118 C1120 1.391 . S
C1119 C1118 1.386 . S
C1119 C1123 1.393 . S
C1120 H1109 0.950 . S
C1120 C1118 1.391 . S
C1120 C1121 1.400 . S
C1121 C1115 1.491 . S
C1121 C1120 1.400 . S
C1121 C1122 1.398 . S
C1122 H1110 0.950 . S
C1122 C1121 1.398 . S
C1122 C1123 1.391 . S
C1123 H1111 0.950 . S
C1123 C1119 1.393 . S
C1123 C1122 1.391 . S
H1124 C1132 0.950 . S
H1125 C1137 0.950 . S
H1126 C1134 0.950 . S
H1127 C1136 0.950 1_545 S
H1128 C1138 0.950 . S
H1129 C1140 0.950 . S
H1130 C1142 0.940 1_565 S
H1131 C1143 0.950 . S
C1132 H1124 0.950 . S
C1132 C1133 1.386 . S
C1132 C1134 1.391 . S
C1133 C1132 1.386 . S
C1133 C1137 1.393 . S
C1134 H1126 0.950 . S
C1134 C1132 1.391 . S
C1134 C1135 1.400 . S
C1135 C1134 1.400 . S
C1135 C1136 1.398 . S
C1135 C1141 1.491 1_565 S
C1136 H1127 0.950 1_565 S
C1136 C1135 1.398 . S
C1136 C1137 1.391 . S
C1137 H1125 0.950 . S
C1137 C1133 1.393 . S
C1137 C1136 1.391 . S
C1138 H1128 0.950 . S
C1138 C1139 1.386 . S
C1138 C1140 1.391 . S
C1139 C1138 1.386 . S
C1139 C1143 1.393 . S
C1140 H1129 0.950 . S
C1140 C1138 1.391 . S
C1140 C1141 1.400 . S
C1141 C1135 1.491 1_545 S
C1141 C1140 1.400 . S
C1141 C1142 1.400 . S
C1142 H1130 0.940 1_545 S
C1142 C1141 1.400 . S
C1142 C1143 1.400 . S
C1143 H1131 0.950 . S
C1143 C1139 1.393 . S
C1143 C1142 1.400 . S
H1144 C1152 0.950 . S
H1145 C1157 0.950 . S
H1146 C1154 0.950 . S
H1147 C1156 0.950 . S
H1148 C1158 0.950 . S
H1149 C1160 0.950 . S
H1150 C1162 0.950 . S
H1151 C1163 0.950 . S
C1152 H1144 0.950 . S
C1152 C1153 1.386 . S
C1152 C1154 1.391 . S
C1153 C1152 1.386 . S
C1153 C1157 1.393 . S
C1154 H1146 0.950 . S
C1154 C1152 1.391 . S
C1154 C1155 1.400 . S
C1155 C1154 1.400 . S
C1155 C1156 1.398 . S
C1155 C1161 1.491 1_556 S
C1156 H1147 0.950 . S
C1156 C1155 1.398 . S
C1156 C1157 1.391 . S
C1157 H1145 0.950 . S
C1157 C1153 1.393 . S
C1157 C1156 1.391 . S
C1158 H1148 0.950 . S
C1158 C1159 1.386 . S
C1158 C1160 1.391 . S
C1159 C1158 1.386 . S
C1159 C1163 1.393 . S
C1160 H1149 0.950 . S
C1160 C1158 1.391 . S
C1160 C1161 1.400 . S
C1161 C1155 1.491 1_554 S
C1161 C1160 1.400 . S
C1161 C1162 1.398 . S
C1162 H1150 0.950 . S
C1162 C1161 1.398 . S
C1162 C1163 1.391 . S
C1163 H1151 0.950 . S
C1163 C1159 1.393 . S
C1163 C1162 1.391 . S
H1164 C1172 0.950 . S
H1165 C1177 0.950 . S
H1166 C1174 0.950 . S
H1167 C1176 0.950 . S
H1168 C1178 0.950 . S
H1169 C1180 0.950 . S
H1170 C1182 0.950 . S
H1171 C1183 0.950 . S
C1172 H1164 0.950 . S
C1172 C1173 1.386 . S
C1172 C1174 1.391 . S
C1173 C1172 1.386 . S
C1173 C1177 1.393 . S
C1174 H1166 0.950 . S
C1174 C1172 1.391 . S
C1174 C1175 1.400 . S
C1175 C1174 1.400 . S
C1175 C1176 1.398 . S
C1175 C1181 1.491 1_565 S
C1176 H1167 0.950 . S
C1176 C1175 1.398 . S
C1176 C1177 1.391 . S
C1177 H1165 0.950 . S
C1177 C1173 1.393 . S
C1177 C1176 1.391 . S
C1178 H1168 0.950 . S
C1178 C1179 1.386 . S
C1178 C1180 1.391 . S
C1179 C1178 1.386 . S
C1179 C1183 1.393 . S
C1180 H1169 0.950 . S
C1180 C1178 1.391 . S
C1180 C1181 1.400 . S
C1181 C1175 1.491 1_545 S
C1181 C1180 1.400 . S
C1181 C1182 1.398 . S
C1182 H1170 0.950 . S
C1182 C1181 1.398 . S
C1182 C1183 1.391 . S
C1183 H1171 0.950 . S
C1183 C1179 1.393 . S
C1183 C1182 1.391 . S
H1184 C1192 0.950 . S
H1185 C1197 0.950 . S
H1186 C1194 0.950 . S
H1187 C1196 0.950 . S
H1188 C1198 0.950 . S
H1189 C1200 0.950 . S
H1190 C1202 0.950 . S
H1191 C1203 0.950 . S
C1192 H1184 0.950 . S
C1192 C1193 1.386 . S
C1192 C1194 1.391 . S
C1193 C1192 1.386 . S
C1193 C1197 1.393 . S
C1194 H1186 0.950 . S
C1194 C1192 1.391 . S
C1194 C1195 1.400 . S
C1195 C1194 1.400 . S
C1195 C1196 1.398 . S
C1195 C1201 1.491 . S
C1196 H1187 0.950 . S
C1196 C1195 1.398 . S
C1196 C1197 1.391 . S
C1197 H1185 0.950 . S
C1197 C1193 1.393 . S
C1197 C1196 1.391 . S
C1198 H1188 0.950 . S
C1198 C1199 1.386 . S
C1198 C1200 1.391 . S
C1199 C1198 1.386 . S
C1199 C1203 1.393 . S
C1200 H1189 0.950 . S
C1200 C1198 1.391 . S
C1200 C1201 1.400 . S
C1201 C1195 1.491 . S
C1201 C1200 1.400 . S
C1201 C1202 1.398 . S
C1202 H1190 0.950 . S
C1202 C1201 1.398 . S
C1202 C1203 1.391 . S
C1203 H1191 0.950 . S
C1203 C1199 1.393 . S
C1203 C1202 1.391 . S
H1204 C1212 0.950 . S
H1205 C1217 0.950 . S
H1206 C1214 0.950 . S
H1207 C1216 0.950 . S
H1208 C1218 0.950 . S
H1209 C1220 0.950 . S
H1210 C1222 0.950 . S
H1211 C1223 0.950 . S
C1212 H1204 0.950 . S
C1212 C1213 1.386 1_455 S
C1212 C1214 1.391 . S
C1213 C1212 1.386 1_655 S
C1213 C1217 1.393 . S
C1214 H1206 0.950 . S
C1214 C1212 1.391 . S
C1214 C1215 1.400 1_455 S
C1215 C1214 1.400 1_655 S
C1215 C1216 1.398 . S
C1215 C1221 1.491 1_655 S
C1216 H1207 0.950 . S
C1216 C1215 1.398 . S
C1216 C1217 1.391 . S
C1217 H1205 0.950 . S
C1217 C1213 1.393 . S
C1217 C1216 1.391 . S
C1218 H1208 0.950 . S
C1218 C1219 1.386 1_655 S
C1218 C1220 1.391 . S
C1219 C1218 1.386 1_455 S
C1219 C1223 1.393 . S
C1220 H1209 0.950 . S
C1220 C1218 1.391 . S
C1220 C1221 1.400 1_655 S
C1221 C1215 1.491 1_455 S
C1221 C1220 1.400 1_455 S
C1221 C1222 1.398 . S
C1222 H1210 0.950 . S
C1222 C1221 1.398 . S
C1222 C1223 1.391 . S
C1223 H1211 0.950 . S
C1223 C1219 1.393 . S
C1223 C1222 1.391 . S
H1224 C1232 0.950 . S
H1225 C1237 0.950 . S
H1226 C1234 0.950 . S
H1227 C1236 0.950 . S
H1228 C1238 0.950 . S
H1229 C1240 0.950 . S
H1230 C1242 0.950 . S
H1231 C1243 0.950 . S
C1232 H1224 0.950 . S
C1232 C1233 1.386 . S
C1232 C1234 1.391 . S
C1233 C1232 1.386 . S
C1233 C1237 1.393 . S
C1234 H1226 0.950 . S
C1234 C1232 1.391 . S
C1234 C1235 1.400 . S
C1235 C1234 1.400 . S
C1235 C1236 1.398 . S
C1235 C1241 1.491 1_455 S
C1236 H1227 0.950 . S
C1236 C1235 1.398 . S
C1236 C1237 1.391 . S
C1237 H1225 0.950 . S
C1237 C1233 1.393 . S
C1237 C1236 1.391 . S
C1238 H1228 0.950 . S
C1238 C1239 1.386 . S
C1238 C1240 1.391 . S
C1239 C1238 1.386 . S
C1239 C1243 1.393 . S
C1240 H1229 0.950 . S
C1240 C1238 1.391 . S
C1240 C1241 1.400 . S
C1241 C1235 1.491 1_655 S
C1241 C1240 1.400 . S
C1241 C1242 1.398 . S
C1242 H1230 0.950 . S
C1242 C1241 1.398 . S
C1242 C1243 1.391 . S
C1243 H1231 0.950 . S
C1243 C1239 1.393 . S
C1243 C1242 1.391 . S
H1244 C1252 0.950 . S
H1245 C1257 0.950 . S
H1246 C1254 0.950 . S
H1247 C1256 0.950 . S
H1248 C1258 0.950 . S
H1249 C1260 0.950 . S
H1250 C1262 0.950 . S
H1251 C1263 0.950 . S
C1252 H1244 0.950 . S
C1252 C1253 1.386 . S
C1252 C1254 1.391 . S
C1253 C1252 1.386 . S
C1253 C1257 1.393 . S
C1254 H1246 0.950 . S
C1254 C1252 1.391 . S
C1254 C1255 1.400 . S
C1255 C1254 1.400 . S
C1255 C1256 1.398 . S
C1255 C1261 1.491 . S
C1256 H1247 0.950 . S
C1256 C1255 1.398 . S
C1256 C1257 1.391 . S
C1257 H1245 0.950 . S
C1257 C1253 1.393 . S
C1257 C1256 1.391 . S
C1258 H1248 0.950 . S
C1258 C1259 1.386 . S
C1258 C1260 1.391 . S
C1259 C1258 1.386 . S
C1259 C1263 1.393 . S
C1260 H1249 0.950 . S
C1260 C1258 1.391 . S
C1260 C1261 1.400 . S
C1261 C1255 1.491 . S
C1261 C1260 1.400 . S
C1261 C1262 1.398 . S
C1262 H1250 0.950 . S
C1262 C1261 1.398 . S
C1262 C1263 1.391 . S
C1263 H1251 0.950 . S
C1263 C1259 1.393 . S
C1263 C1262 1.391 . S
H1264 C1272 0.950 . S
H1265 C1277 0.950 . S
H1266 C1274 0.950 . S
H1267 C1276 0.950 . S
H1268 C1278 0.950 . S
H1269 C1280 0.950 . S
H1270 C1282 0.950 . S
H1271 C1283 0.950 . S
C1272 H1264 0.950 . S
C1272 C1273 1.386 . S
C1272 C1274 1.391 . S
C1273 C1272 1.386 . S
C1273 C1277 1.393 . S
C1274 H1266 0.950 . S
C1274 C1272 1.391 . S
C1274 C1275 1.400 . S
C1275 C1274 1.400 . S
C1275 C1276 1.398 . S
C1275 C1281 1.491 . S
C1276 H1267 0.950 . S
C1276 C1275 1.398 . S
C1276 C1277 1.391 . S
C1277 H1265 0.950 . S
C1277 C1273 1.393 . S
C1277 C1276 1.391 . S
C1278 H1268 0.950 . S
C1278 C1279 1.386 . S
C1278 C1280 1.391 . S
C1279 C1278 1.386 . S
C1279 C1283 1.393 . S
C1280 H1269 0.950 . S
C1280 C1278 1.391 . S
C1280 C1281 1.400 . S
C1281 C1275 1.491 . S
C1281 C1280 1.400 . S
C1281 C1282 1.398 . S
C1282 H1270 0.950 . S
C1282 C1281 1.398 . S
C1282 C1283 1.391 . S
C1283 H1271 0.950 . S
C1283 C1279 1.393 . S
C1283 C1282 1.391 . S
H1284 C1292 0.950 . S
H1285 C1297 0.950 . S
H1286 C1294 0.950 . S
H1287 C1296 0.950 . S
H1288 C1298 0.950 . S
H1289 C1300 0.950 . S
H1290 C1302 0.950 . S
H1291 C1303 0.950 . S
C1292 H1284 0.950 . S
C1292 C1293 1.386 . S
C1292 C1294 1.391 . S
C1293 C1292 1.386 . S
C1293 C1297 1.393 . S
C1294 H1286 0.950 . S
C1294 C1292 1.391 . S
C1294 C1295 1.400 . S
C1295 C1294 1.400 . S
C1295 C1296 1.398 . S
C1295 C1301 1.491 . S
C1296 H1287 0.950 . S
C1296 C1295 1.398 . S
C1296 C1297 1.391 . S
C1297 H1285 0.950 . S
C1297 C1293 1.393 . S
C1297 C1296 1.391 . S
C1298 H1288 0.950 . S
C1298 C1299 1.386 . S
C1298 C1300 1.391 . S
C1299 C1298 1.386 . S
C1299 C1303 1.393 . S
C1300 H1289 0.950 . S
C1300 C1298 1.391 . S
C1300 C1301 1.400 . S
C1301 C1295 1.491 . S
C1301 C1300 1.400 . S
C1301 C1302 1.398 . S
C1302 H1290 0.950 . S
C1302 C1301 1.398 . S
C1302 C1303 1.391 . S
C1303 H1291 0.950 . S
C1303 C1299 1.393 . S
C1303 C1302 1.391 . S
H1304 C1312 0.950 . S
H1305 C1317 0.950 . S
H1306 C1314 0.950 . S
H1307 C1316 0.950 . S
H1308 C1318 0.950 . S
H1309 C1320 0.950 . S
H1310 C1322 0.950 . S
H1311 C1323 0.950 . S
C1312 H1304 0.950 . S
C1312 C1313 1.386 . S
C1312 C1314 1.391 . S
C1313 C1312 1.386 . S
C1313 C1317 1.393 . S
C1314 H1306 0.950 . S
C1314 C1312 1.391 . S
C1314 C1315 1.400 . S
C1315 C1314 1.400 . S
C1315 C1316 1.398 . S
C1315 C1321 1.491 1_655 S
C1316 H1307 0.950 . S
C1316 C1315 1.398 . S
C1316 C1317 1.391 . S
C1317 H1305 0.950 . S
C1317 C1313 1.393 . S
C1317 C1316 1.391 . S
C1318 H1308 0.950 . S
C1318 C1319 1.386 . S
C1318 C1320 1.391 . S
C1319 C1318 1.386 . S
C1319 C1323 1.393 . S
C1320 H1309 0.950 . S
C1320 C1318 1.391 . S
C1320 C1321 1.400 . S
C1321 C1315 1.491 1_455 S
C1321 C1320 1.400 . S
C1321 C1322 1.398 . S
C1322 H1310 0.950 . S
C1322 C1321 1.398 . S
C1322 C1323 1.391 . S
C1323 H1311 0.950 . S
C1323 C1319 1.393 . S
C1323 C1322 1.391 . S
H1324 C1332 0.950 . S
H1325 C1337 0.942 1_455 S
H1326 C1334 0.950 . S
H1327 C1336 0.950 . S
H1328 C1338 0.950 . S
H1329 C1340 0.950 . S
H1330 C1342 0.950 . S
H1331 C1343 0.942 1_655 S
C1332 H1324 0.950 . S
C1332 C1333 1.386 . S
C1332 C1334 1.391 . S
C1333 C1332 1.386 . S
C1333 C1337 1.393 . S
C1334 H1326 0.950 . S
C1334 C1332 1.391 . S
C1334 C1335 1.400 . S
C1335 C1334 1.400 . S
C1335 C1336 1.398 1_655 S
C1335 C1341 1.491 1_655 S
C1336 H1327 0.950 . S
C1336 C1335 1.398 1_455 S
C1336 C1337 1.391 1_455 S
C1337 H1325 0.942 1_655 S
C1337 C1333 1.393 . S
C1337 C1336 1.391 1_655 S
C1338 H1328 0.950 . S
C1338 C1339 1.386 . S
C1338 C1340 1.391 . S
C1339 C1338 1.386 . S
C1339 C1343 1.393 . S
C1340 H1329 0.950 . S
C1340 C1338 1.391 . S
C1340 C1341 1.400 . S
C1341 C1335 1.491 1_455 S
C1341 C1340 1.400 . S
C1341 C1342 1.398 1_455 S
C1342 H1330 0.950 . S
C1342 C1341 1.398 1_655 S
C1342 C1343 1.391 1_655 S
C1343 H1331 0.942 1_455 S
C1343 C1339 1.393 . S
C1343 C1342 1.391 1_455 S
H1344 C1352 0.950 . S
H1345 C1357 0.950 . S
H1346 C1354 0.950 . S
H1347 C1356 0.950 . S
H1348 C1358 0.950 . S
H1349 C1360 0.950 . S
H1350 C1362 0.950 . S
H1351 C1363 0.950 . S
C1352 H1344 0.950 . S
C1352 C1353 1.386 . S
C1352 C1354 1.391 . S
C1353 C1352 1.386 . S
C1353 C1357 1.393 . S
C1354 H1346 0.950 . S
C1354 C1352 1.391 . S
C1354 C1355 1.400 . S
C1355 C1354 1.400 . S
C1355 C1356 1.398 . S
C1355 C1361 1.491 . S
C1356 H1347 0.950 . S
C1356 C1355 1.398 . S
C1356 C1357 1.391 . S
C1357 H1345 0.950 . S
C1357 C1353 1.393 . S
C1357 C1356 1.391 . S
C1358 H1348 0.950 . S
C1358 C1359 1.386 . S
C1358 C1360 1.391 . S
C1359 C1358 1.386 . S
C1359 C1363 1.393 . S
C1360 H1349 0.950 . S
C1360 C1358 1.391 . S
C1360 C1361 1.400 . S
C1361 C1355 1.491 . S
C1361 C1360 1.400 . S
C1361 C1362 1.398 . S
C1362 H1350 0.950 . S
C1362 C1361 1.398 . S
C1362 C1363 1.391 . S
C1363 H1351 0.950 . S
C1363 C1359 1.393 . S
C1363 C1362 1.391 . S
H1364 C1372 0.950 . S
H1365 C1377 0.950 . S
H1366 C1374 0.950 . S
H1367 C1376 0.950 . S
H1368 C1378 0.950 . S
H1369 C1380 0.950 . S
H1370 C1382 0.950 . S
H1371 C1383 0.950 . S
C1372 H1364 0.950 . S
C1372 C1373 1.386 . S
C1372 C1374 1.391 . S
C1373 C1372 1.386 . S
C1373 C1377 1.393 . S
C1374 H1366 0.950 . S
C1374 C1372 1.391 . S
C1374 C1375 1.400 . S
C1375 C1374 1.400 . S
C1375 C1376 1.398 . S
C1375 C1381 1.491 1_545 S
C1376 H1367 0.950 . S
C1376 C1375 1.398 . S
C1376 C1377 1.391 . S
C1377 H1365 0.950 . S
C1377 C1373 1.393 . S
C1377 C1376 1.391 . S
C1378 H1368 0.950 . S
C1378 C1379 1.386 . S
C1378 C1380 1.391 . S
C1379 C1378 1.386 . S
C1379 C1383 1.393 . S
C1380 H1369 0.950 . S
C1380 C1378 1.391 . S
C1380 C1381 1.400 . S
C1381 C1375 1.491 1_565 S
C1381 C1380 1.400 . S
C1381 C1382 1.398 . S
C1382 H1370 0.950 . S
C1382 C1381 1.398 . S
C1382 C1383 1.391 . S
C1383 H1371 0.950 . S
C1383 C1379 1.393 . S
C1383 C1382 1.391 . S
H1384 C1392 0.950 . S
H1385 C1397 0.950 . S
H1386 C1394 0.950 . S
H1387 C1396 0.950 . S
H1388 C1398 0.950 . S
H1389 C1400 0.950 . S
H1390 C1402 0.950 . S
H1391 C1403 0.950 . S
C1392 H1384 0.950 . S
C1392 C1393 1.386 1_556 S
C1392 C1394 1.391 . S
C1393 C1392 1.386 1_554 S
C1393 C1397 1.393 . S
C1394 H1386 0.950 . S
C1394 C1392 1.391 . S
C1394 C1395 1.400 1_556 S
C1395 C1394 1.400 1_554 S
C1395 C1396 1.398 . S
C1395 C1401 1.491 1_554 S
C1396 H1387 0.950 . S
C1396 C1395 1.398 . S
C1396 C1397 1.391 . S
C1397 H1385 0.950 . S
C1397 C1393 1.393 . S
C1397 C1396 1.391 . S
C1398 H1388 0.950 . S
C1398 C1399 1.386 1_554 S
C1398 C1400 1.391 . S
C1399 C1398 1.386 1_556 S
C1399 C1403 1.393 . S
C1400 H1389 0.950 . S
C1400 C1398 1.391 . S
C1400 C1401 1.400 1_554 S
C1401 C1395 1.491 1_556 S
C1401 C1400 1.400 1_556 S
C1401 C1402 1.398 . S
C1402 H1390 0.950 . S
C1402 C1401 1.398 . S
C1402 C1403 1.391 . S
C1403 H1391 0.950 . S
C1403 C1399 1.393 . S
C1403 C1402 1.391 . S
H1404 C1412 0.950 . S
H1405 C1417 0.950 . S
H1406 C1414 0.950 . S
H1407 C1416 0.950 . S
H1408 C1418 0.950 . S
H1409 C1420 0.950 . S
H1410 C1422 0.950 . S
H1411 C1423 0.950 . S
C1412 H1404 0.950 . S
C1412 C1413 1.386 . S
C1412 C1414 1.391 . S
C1413 C1412 1.386 . S
C1413 C1417 1.393 . S
C1414 H1406 0.950 . S
C1414 C1412 1.391 . S
C1414 C1415 1.400 . S
C1415 C1414 1.400 . S
C1415 C1416 1.398 . S
C1415 C1421 1.491 1_545 S
C1416 H1407 0.950 . S
C1416 C1415 1.398 . S
C1416 C1417 1.391 . S
C1417 H1405 0.950 . S
C1417 C1413 1.393 . S
C1417 C1416 1.391 . S
C1418 H1408 0.950 . S
C1418 C1419 1.386 . S
C1418 C1420 1.391 . S
C1419 C1418 1.386 . S
C1419 C1423 1.393 . S
C1420 H1409 0.950 . S
C1420 C1418 1.391 . S
C1420 C1421 1.400 . S
C1421 C1415 1.491 1_565 S
C1421 C1420 1.400 . S
C1421 C1422 1.398 . S
C1422 H1410 0.950 . S
C1422 C1421 1.398 . S
C1422 C1423 1.391 . S
C1423 H1411 0.950 . S
C1423 C1419 1.393 . S
C1423 C1422 1.391 . S
H1424 C1432 0.950 . S
H1425 C1437 0.950 . S
H1426 C1434 0.950 . S
H1427 C1436 0.950 . S
H1428 C1438 0.950 . S
H1429 C1440 0.950 . S
H1430 C1442 0.950 . S
H1431 C1443 0.950 . S
C1432 H1424 0.950 . S
C1432 C1433 1.386 1_554 S
C1432 C1434 1.391 . S
C1433 C1432 1.386 1_556 S
C1433 C1437 1.393 . S
C1434 H1426 0.950 . S
C1434 C1432 1.391 . S
C1434 C1435 1.400 1_554 S
C1435 C1434 1.400 1_556 S
C1435 C1436 1.398 . S
C1435 C1441 1.491 1_556 S
C1436 H1427 0.950 . S
C1436 C1435 1.398 . S
C1436 C1437 1.391 . S
C1437 H1425 0.950 . S
C1437 C1433 1.393 . S
C1437 C1436 1.391 . S
C1438 H1428 0.950 . S
C1438 C1439 1.386 1_556 S
C1438 C1440 1.391 . S
C1439 C1438 1.386 1_554 S
C1439 C1443 1.393 . S
C1440 H1429 0.950 . S
C1440 C1438 1.391 . S
C1440 C1441 1.400 1_556 S
C1441 C1435 1.491 1_554 S
C1441 C1440 1.400 1_554 S
C1441 C1442 1.398 . S
C1442 H1430 0.950 . S
C1442 C1441 1.398 . S
C1442 C1443 1.391 . S
C1443 H1431 0.950 . S
C1443 C1439 1.393 . S
C1443 C1442 1.391 . S
H1444 C1452 0.950 . S
H1445 C1457 0.950 . S
H1446 C1454 0.950 . S
H1447 C1456 0.950 . S
H1448 C1458 0.950 . S
H1449 C1460 0.950 . S
H1450 C1462 0.950 . S
H1451 C1463 0.950 . S
C1452 H1444 0.950 . S
C1452 C1453 1.386 . S
C1452 C1454 1.391 . S
C1453 C1452 1.386 . S
C1453 C1457 1.393 . S
C1454 H1446 0.950 . S
C1454 C1452 1.391 . S
C1454 C1455 1.400 . S
C1455 C1454 1.400 . S
C1455 C1456 1.398 . S
C1455 C1461 1.491 . S
C1456 H1447 0.950 . S
C1456 C1455 1.398 . S
C1456 C1457 1.391 . S
C1457 H1445 0.950 . S
C1457 C1453 1.393 . S
C1457 C1456 1.391 . S
C1458 H1448 0.950 . S
C1458 C1459 1.386 . S
C1458 C1460 1.391 . S
C1459 C1458 1.386 . S
C1459 C1463 1.393 . S
C1460 H1449 0.950 . S
C1460 C1458 1.391 . S
C1460 C1461 1.400 . S
C1461 C1455 1.491 . S
C1461 C1460 1.400 . S
C1461 C1462 1.398 . S
C1462 H1450 0.950 . S
C1462 C1461 1.398 . S
C1462 C1463 1.391 . S
C1463 H1451 0.950 . S
C1463 C1459 1.393 . S
C1463 C1462 1.391 . S
H1464 C1472 0.950 . S
H1465 C1477 0.950 . S
H1466 C1474 0.950 . S
H1467 C1476 0.950 . S
H1468 C1478 0.950 . S
H1469 C1480 0.950 . S
H1470 C1482 0.950 . S
H1471 C1483 0.950 . S
C1472 H1464 0.950 . S
C1472 C1473 1.386 . S
C1472 C1474 1.391 . S
C1473 C1472 1.386 . S
C1473 C1477 1.393 . S
C1474 H1466 0.950 . S
C1474 C1472 1.391 . S
C1474 C1475 1.400 . S
C1475 C1474 1.400 . S
C1475 C1476 1.398 . S
C1475 C1481 1.491 . S
C1476 H1467 0.950 . S
C1476 C1475 1.398 . S
C1476 C1477 1.391 . S
C1477 H1465 0.950 . S
C1477 C1473 1.393 . S
C1477 C1476 1.391 . S
C1478 H1468 0.950 . S
C1478 C1479 1.386 . S
C1478 C1480 1.391 . S
C1479 C1478 1.386 . S
C1479 C1483 1.393 . S
C1480 H1469 0.950 . S
C1480 C1478 1.391 . S
C1480 C1481 1.400 . S
C1481 C1475 1.491 . S
C1481 C1480 1.400 . S
C1481 C1482 1.398 . S
C1482 H1470 0.950 . S
C1482 C1481 1.398 . S
C1482 C1483 1.391 . S
C1483 H1471 0.950 . S
C1483 C1479 1.393 . S
C1483 C1482 1.391 . S
H1484 C1492 0.950 . S
H1485 C1497 0.950 . S
H1486 C1494 0.950 . S
H1487 C1496 0.950 . S
H1488 C1498 0.950 . S
H1489 C1500 0.950 . S
H1490 C1502 0.950 . S
H1491 C1503 0.950 . S
C1492 H1484 0.950 . S
C1492 C1493 1.386 . S
C1492 C1494 1.391 . S
C1493 C1492 1.386 . S
C1493 C1497 1.393 . S
C1494 H1486 0.950 . S
C1494 C1492 1.391 . S
C1494 C1495 1.400 . S
C1495 C1494 1.400 . S
C1495 C1496 1.398 . S
C1495 C1501 1.491 1_554 S
C1496 H1487 0.950 . S
C1496 C1495 1.398 . S
C1496 C1497 1.391 . S
C1497 H1485 0.950 . S
C1497 C1493 1.393 . S
C1497 C1496 1.391 . S
C1498 H1488 0.950 . S
C1498 C1499 1.386 . S
C1498 C1500 1.391 . S
C1499 C1498 1.386 . S
C1499 C1503 1.393 . S
C1500 H1489 0.950 . S
C1500 C1498 1.391 . S
C1500 C1501 1.400 . S
C1501 C1495 1.491 1_556 S
C1501 C1500 1.400 . S
C1501 C1502 1.398 . S
C1502 H1490 0.950 . S
C1502 C1501 1.398 . S
C1502 C1503 1.391 . S
C1503 H1491 0.950 . S
C1503 C1499 1.393 . S
C1503 C1502 1.391 . S
H1504 C1512 0.950 . S
H1505 C1517 0.950 . S
H1506 C1514 0.950 . S
H1507 C1516 0.950 . S
H1508 C1518 0.950 . S
H1509 C1520 0.950 . S
H1510 C1522 0.950 . S
H1511 C1523 0.950 . S
C1512 H1504 0.950 . S
C1512 C1513 1.386 . S
C1512 C1514 1.391 . S
C1513 C1512 1.386 . S
C1513 C1517 1.393 . S
C1514 H1506 0.950 . S
C1514 C1512 1.391 . S
C1514 C1515 1.400 . S
C1515 C1514 1.400 . S
C1515 C1516 1.398 . S
C1515 C1521 1.491 . S
C1516 H1507 0.950 . S
C1516 C1515 1.398 . S
C1516 C1517 1.391 . S
C1517 H1505 0.950 . S
C1517 C1513 1.393 . S
C1517 C1516 1.391 . S
C1518 H1508 0.950 . S
C1518 C1519 1.386 . S
C1518 C1520 1.391 . S
C1519 C1518 1.386 . S
C1519 C1523 1.393 . S
C1520 H1509 0.950 . S
C1520 C1518 1.391 . S
C1520 C1521 1.400 . S
C1521 C1515 1.491 . S
C1521 C1520 1.400 . S
C1521 C1522 1.398 . S
C1522 H1510 0.950 . S
C1522 C1521 1.398 . S
C1522 C1523 1.391 . S
C1523 H1511 0.950 . S
C1523 C1519 1.393 . S
C1523 C1522 1.391 . S
H1524 C1532 0.950 . S
H1525 C1537 0.950 . S
H1526 C1534 0.950 . S
H1527 C1536 0.950 . S
H1528 C1538 0.950 . S
H1529 C1540 0.950 . S
H1530 C1542 0.950 . S
H1531 C1543 0.950 . S
C1532 H1524 0.950 . S
C1532 C1533 1.386 . S
C1532 C1534 1.391 . S
C1533 C1532 1.386 . S
C1533 C1537 1.393 . S
C1534 H1526 0.950 . S
C1534 C1532 1.391 . S
C1534 C1535 1.400 . S
C1535 C1534 1.400 . S
C1535 C1536 1.398 . S
C1535 C1541 1.491 . S
C1536 H1527 0.950 . S
C1536 C1535 1.398 . S
C1536 C1537 1.391 . S
C1537 H1525 0.950 . S
C1537 C1533 1.393 . S
C1537 C1536 1.391 . S
C1538 H1528 0.950 . S
C1538 C1539 1.386 . S
C1538 C1540 1.391 . S
C1539 C1538 1.386 . S
C1539 C1543 1.393 . S
C1540 H1529 0.950 . S
C1540 C1538 1.391 . S
C1540 C1541 1.400 . S
C1541 C1535 1.491 . S
C1541 C1540 1.400 . S
C1541 C1542 1.398 . S
C1542 H1530 0.950 . S
C1542 C1541 1.398 . S
C1542 C1543 1.391 . S
C1543 H1531 0.950 . S
C1543 C1539 1.393 . S
C1543 C1542 1.391 . S
H1544 C1552 0.950 . S
H1545 C1557 0.950 . S
H1546 C1554 0.950 . S
H1547 C1556 0.950 . S
H1548 C1558 0.950 . S
H1549 C1560 0.950 . S
H1550 C1562 0.950 . S
H1551 C1563 0.950 . S
C1552 H1544 0.950 . S
C1552 C1553 1.386 . S
C1552 C1554 1.391 . S
C1553 C1552 1.386 . S
C1553 C1557 1.393 . S
C1554 H1546 0.950 . S
C1554 C1552 1.391 . S
C1554 C1555 1.400 . S
C1555 C1554 1.400 . S
C1555 C1556 1.398 . S
C1555 C1561 1.491 . S
C1556 H1547 0.950 . S
C1556 C1555 1.398 . S
C1556 C1557 1.391 . S
C1557 H1545 0.950 . S
C1557 C1553 1.393 . S
C1557 C1556 1.391 . S
C1558 H1548 0.950 . S
C1558 C1559 1.386 . S
C1558 C1560 1.391 . S
C1559 C1558 1.386 . S
C1559 C1563 1.393 . S
C1560 H1549 0.950 . S
C1560 C1558 1.391 . S
C1560 C1561 1.400 . S
C1561 C1555 1.491 . S
C1561 C1560 1.400 . S
C1561 C1562 1.398 . S
C1562 H1550 0.950 . S
C1562 C1561 1.398 . S
C1562 C1563 1.391 . S
C1563 H1551 0.950 . S
C1563 C1559 1.393 . S
C1563 C1562 1.391 . S
H1564 C1572 0.950 . S
H1565 C1577 0.950 . S
H1566 C1574 0.950 . S
H1567 C1576 0.950 . S
H1568 C1578 0.950 . S
H1569 C1580 0.950 . S
H1570 C1582 0.950 . S
H1571 C1583 0.950 . S
C1572 H1564 0.950 . S
C1572 C1573 1.386 . S
C1572 C1574 1.391 . S
C1573 C1572 1.386 . S
C1573 C1577 1.393 . S
C1574 H1566 0.950 . S
C1574 C1572 1.391 . S
C1574 C1575 1.400 . S
C1575 C1574 1.400 . S
C1575 C1576 1.398 . S
C1575 C1581 1.491 . S
C1576 H1567 0.950 . S
C1576 C1575 1.398 . S
C1576 C1577 1.391 . S
C1577 H1565 0.950 . S
C1577 C1573 1.393 . S
C1577 C1576 1.391 . S
C1578 H1568 0.950 . S
C1578 C1579 1.386 . S
C1578 C1580 1.391 . S
C1579 C1578 1.386 . S
C1579 C1583 1.393 . S
C1580 H1569 0.950 . S
C1580 C1578 1.391 . S
C1580 C1581 1.400 . S
C1581 C1575 1.491 . S
C1581 C1580 1.400 . S
C1581 C1582 1.398 . S
C1582 H1570 0.950 . S
C1582 C1581 1.398 . S
C1582 C1583 1.391 . S
C1583 H1571 0.950 . S
C1583 C1579 1.393 . S
C1583 C1582 1.391 . S
H1584 C1592 0.950 . S
H1585 C1597 0.950 . S
H1586 C1594 0.950 . S
H1587 C1596 0.950 . S
H1588 C1598 0.950 . S
H1589 C1600 0.950 . S
H1590 C1602 0.950 . S
H1591 C1603 0.950 . S
C1592 H1584 0.950 . S
C1592 C1593 1.386 . S
C1592 C1594 1.391 . S
C1593 C1592 1.386 . S
C1593 C1597 1.393 . S
C1594 H1586 0.950 . S
C1594 C1592 1.391 . S
C1594 C1595 1.400 . S
C1595 C1594 1.400 . S
C1595 C1596 1.398 . S
C1595 C1601 1.491 . S
C1596 H1587 0.950 . S
C1596 C1595 1.398 . S
C1596 C1597 1.391 . S
C1597 H1585 0.950 . S
C1597 C1593 1.393 . S
C1597 C1596 1.391 . S
C1598 H1588 0.950 . S
C1598 C1599 1.386 . S
C1598 C1600 1.391 . S
C1599 C1598 1.386 . S
C1599 C1603 1.393 . S
C1600 H1589 0.950 . S
C1600 C1598 1.391 . S
C1600 C1601 1.400 . S
C1601 C1595 1.491 . S
C1601 C1600 1.400 . S
C1601 C1602 1.398 . S
C1602 H1590 0.950 . S
C1602 C1601 1.398 . S
C1602 C1603 1.391 . S
C1603 H1591 0.950 . S
C1603 C1599 1.393 . S
C1603 C1602 1.391 . S
H1604 C1612 0.950 . S
H1605 C1617 0.950 1_455 S
H1606 C1614 0.950 . S
H1607 C1616 0.950 1_545 S
H1608 C1618 1.013 . S
H1609 C1620 0.950 1_545 S
H1610 C1622 0.950 . S
H1611 C1623 0.950 . S
C1612 H1604 0.950 . S
C1612 C1613 1.386 1_655 S
C1612 C1614 1.391 . S
C1613 C1612 1.386 1_455 S
C1613 C1617 1.393 1_455 S
C1614 H1606 0.950 . S
C1614 C1612 1.391 . S
C1614 C1615 1.400 . S
C1615 C1614 1.400 . S
C1615 C1616 1.398 . S
C1615 C1621 1.491 . S
C1616 H1607 0.950 1_565 S
C1616 C1615 1.398 . S
C1616 C1617 1.391 . S
C1617 H1605 0.950 1_655 S
C1617 C1613 1.393 1_655 S
C1617 C1616 1.391 . S
C1618 H1608 1.013 . S
C1618 C1619 1.335 1_545 S
C1618 C1620 1.381 1_545 S
C1619 C1618 1.335 1_565 S
C1619 C1623 1.393 . S
C1620 H1609 0.950 1_565 S
C1620 C1618 1.381 1_565 S
C1620 C1621 1.400 . S
C1621 C1615 1.491 . S
C1621 C1620 1.400 . S
C1621 C1622 1.398 . S
C1622 H1610 0.950 . S
C1622 C1621 1.398 . S
C1622 C1623 1.391 . S
C1623 H1611 0.950 . S
C1623 C1619 1.393 . S
C1623 C1622 1.391 . S
H1624 C1632 0.950 . S
H1625 C1637 0.950 . S
H1626 C1634 0.950 . S
H1627 C1636 0.950 . S
H1628 C1638 0.950 . S
H1629 C1640 0.950 . S
H1630 C1642 0.950 . S
H1631 C1643 0.950 . S
C1632 H1624 0.950 . S
C1632 C1633 1.386 . S
C1632 C1634 1.391 . S
C1633 C1632 1.386 . S
C1633 C1637 1.393 . S
C1634 H1626 0.950 . S
C1634 C1632 1.391 . S
C1634 C1635 1.400 . S
C1635 C1634 1.400 . S
C1635 C1636 1.398 . S
C1635 C1641 1.491 . S
C1636 H1627 0.950 . S
C1636 C1635 1.398 . S
C1636 C1637 1.391 . S
C1637 H1625 0.950 . S
C1637 C1633 1.393 . S
C1637 C1636 1.391 . S
C1638 H1628 0.950 . S
C1638 C1639 1.386 . S
C1638 C1640 1.391 . S
C1639 C1638 1.386 . S
C1639 C1643 1.393 . S
C1640 H1629 0.950 . S
C1640 C1638 1.391 . S
C1640 C1641 1.400 . S
C1641 C1635 1.491 . S
C1641 C1640 1.400 . S
C1641 C1642 1.398 . S
C1642 H1630 0.950 . S
C1642 C1641 1.398 . S
C1642 C1643 1.391 . S
C1643 H1631 0.950 . S
C1643 C1639 1.393 . S
C1643 C1642 1.391 . S
H1644 C1652 0.950 . S
H1645 C1657 0.950 . S
H1646 C1654 0.950 . S
H1647 C1656 0.950 1_565 S
H1648 C1658 0.950 . S
H1649 C1660 0.950 1_565 S
H1650 C1662 0.950 . S
H1651 C1663 0.950 . S
C1652 H1644 0.950 . S
C1652 C1653 1.386 . S
C1652 C1654 1.391 . S
C1653 C1652 1.386 . S
C1653 C1657 1.393 1_545 S
C1654 H1646 0.950 . S
C1654 C1652 1.391 . S
C1654 C1655 1.400 . S
C1655 C1654 1.400 . S
C1655 C1656 1.398 . S
C1655 C1661 1.491 . S
C1656 H1647 0.950 1_545 S
C1656 C1655 1.398 . S
C1656 C1657 1.391 1_545 S
C1657 H1645 0.950 . S
C1657 C1653 1.393 1_565 S
C1657 C1656 1.391 1_565 S
C1658 H1648 0.950 . S
C1658 C1659 1.386 . S
C1658 C1660 1.391 . S
C1659 C1658 1.386 . S
C1659 C1663 1.393 . S
C1660 H1649 0.950 1_545 S
C1660 C1658 1.391 . S
C1660 C1661 1.400 . S
C1661 C1655 1.491 . S
C1661 C1660 1.400 . S
C1661 C1662 1.398 . S
C1662 H1650 0.950 . S
C1662 C1661 1.398 . S
C1662 C1663 1.391 . S
C1663 H1651 0.950 . S
C1663 C1659 1.393 . S
C1663 C1662 1.391 . S
H1664 C1672 0.950 . S
H1665 C1677 0.950 . S
H1666 C1674 0.950 . S
H1667 C1676 0.950 . S
H1668 C1678 0.950 . S
H1669 C1680 0.950 . S
H1670 C1682 0.950 . S
H1671 C1683 0.950 . S
C1672 H1664 0.950 . S
C1672 C1673 1.386 . S
C1672 C1674 1.391 . S
C1673 C1672 1.386 . S
C1673 C1677 1.393 . S
C1674 H1666 0.950 . S
C1674 C1672 1.391 . S
C1674 C1675 1.400 . S
C1675 C1674 1.400 . S
C1675 C1676 1.398 . S
C1675 C1681 1.491 . S
C1676 H1667 0.950 . S
C1676 C1675 1.398 . S
C1676 C1677 1.391 . S
C1677 H1665 0.950 . S
C1677 C1673 1.393 . S
C1677 C1676 1.391 . S
C1678 H1668 0.950 . S
C1678 C1679 1.386 . S
C1678 C1680 1.391 . S
C1679 C1678 1.386 . S
C1679 C1683 1.393 . S
C1680 H1669 0.950 . S
C1680 C1678 1.391 . S
C1680 C1681 1.400 . S
C1681 C1675 1.491 . S
C1681 C1680 1.400 . S
C1681 C1682 1.398 . S
C1682 H1670 0.950 . S
C1682 C1681 1.398 . S
C1682 C1683 1.391 . S
C1683 H1671 0.950 . S
C1683 C1679 1.393 . S
C1683 C1682 1.391 . S
H1684 C1692 0.950 . S
H1685 C1697 0.950 . S
H1686 C1694 0.950 . S
H1687 C1696 0.950 . S
H1688 C1698 0.950 . S
H1689 C1700 0.950 . S
H1690 C1702 0.950 . S
H1691 C1703 0.950 . S
C1692 H1684 0.950 . S
C1692 C1693 1.386 . S
C1692 C1694 1.391 . S
C1693 C1692 1.386 . S
C1693 C1697 1.393 . S
C1694 H1686 0.950 . S
C1694 C1692 1.391 . S
C1694 C1695 1.400 . S
C1695 C1694 1.400 . S
C1695 C1696 1.398 . S
C1695 C1701 1.491 . S
C1696 H1687 0.950 . S
C1696 C1695 1.398 . S
C1696 C1697 1.391 . S
C1697 H1685 0.950 . S
C1697 C1693 1.393 . S
C1697 C1696 1.391 . S
C1698 H1688 0.950 . S
C1698 C1699 1.386 . S
C1698 C1700 1.391 . S
C1699 C1698 1.386 . S
C1699 C1703 1.393 . S
C1700 H1689 0.950 . S
C1700 C1698 1.391 . S
C1700 C1701 1.400 . S
C1701 C1695 1.491 . S
C1701 C1700 1.400 . S
C1701 C1702 1.398 . S
C1702 H1690 0.950 . S
C1702 C1701 1.398 . S
C1702 C1703 1.391 . S
C1703 H1691 0.950 . S
C1703 C1699 1.393 . S
C1703 C1702 1.391 . S
H1704 C1712 0.950 . S
H1705 C1717 0.950 . S
H1706 C1714 0.950 . S
H1707 C1716 0.950 . S
H1708 C1718 0.950 . S
H1709 C1720 0.950 . S
H1710 C1722 0.950 . S
H1711 C1723 0.950 . S
C1712 H1704 0.950 . S
C1712 C1713 1.386 . S
C1712 C1714 1.391 . S
C1713 C1712 1.386 . S
C1713 C1717 1.393 . S
C1714 H1706 0.950 . S
C1714 C1712 1.391 . S
C1714 C1715 1.400 . S
C1715 C1714 1.400 . S
C1715 C1716 1.398 . S
C1715 C1721 1.491 . S
C1716 H1707 0.950 . S
C1716 C1715 1.398 . S
C1716 C1717 1.391 . S
C1717 H1705 0.950 . S
C1717 C1713 1.393 . S
C1717 C1716 1.391 . S
C1718 H1708 0.950 . S
C1718 C1719 1.386 . S
C1718 C1720 1.391 . S
C1719 C1718 1.386 . S
C1719 C1723 1.393 . S
C1720 H1709 0.950 . S
C1720 C1718 1.391 . S
C1720 C1721 1.400 . S
C1721 C1715 1.491 . S
C1721 C1720 1.400 . S
C1721 C1722 1.398 . S
C1722 H1710 0.950 . S
C1722 C1721 1.398 . S
C1722 C1723 1.391 . S
C1723 H1711 0.950 . S
C1723 C1719 1.393 . S
C1723 C1722 1.391 . S
H1724 C1732 0.950 . S
H1725 C1737 0.925 1_565 S
H1726 C1734 0.950 . S
H1727 C1736 0.950 1_565 S
H1728 C1738 0.950 . S
H1729 C1740 0.950 . S
H1730 C1742 0.950 . S
H1731 C1743 0.950 1_455 S
C1732 H1724 0.950 . S
C1732 C1733 1.386 . S
C1732 C1734 1.391 . S
C1733 C1732 1.386 . S
C1733 C1737 1.412 . S
C1734 H1726 0.950 . S
C1734 C1732 1.391 . S
C1734 C1735 1.400 . S
C1735 C1734 1.400 . S
C1735 C1736 1.398 . S
C1735 C1741 1.491 . S
C1736 H1727 0.950 1_545 S
C1736 C1735 1.398 . S
C1736 C1737 1.397 . S
C1737 H1725 0.925 1_545 S
C1737 C1733 1.412 . S
C1737 C1736 1.397 . S
C1738 H1728 0.950 . S
C1738 C1739 1.386 1_655 S
C1738 C1740 1.391 . S
C1739 C1738 1.386 1_455 S
C1739 C1743 1.393 1_455 S
C1740 H1729 0.950 . S
C1740 C1738 1.391 . S
C1740 C1741 1.400 . S
C1741 C1735 1.491 . S
C1741 C1740 1.400 . S
C1741 C1742 1.398 . S
C1742 H1730 0.950 . S
C1742 C1741 1.398 . S
C1742 C1743 1.391 . S
C1743 H1731 0.950 1_655 S
C1743 C1739 1.393 1_655 S
C1743 C1742 1.391 . S
H1744 C1752 0.950 . S
H1745 C1757 0.950 . S
H1746 C1754 0.950 . S
H1747 C1756 0.950 . S
H1748 C1758 0.950 . S
H1749 C1760 0.950 . S
H1750 C1762 0.950 . S
H1751 C1763 0.950 . S
C1752 H1744 0.950 . S
C1752 C1753 1.386 . S
C1752 C1754 1.391 . S
C1753 C1752 1.386 . S
C1753 C1757 1.393 . S
C1754 H1746 0.950 . S
C1754 C1752 1.391 . S
C1754 C1755 1.400 . S
C1755 C1754 1.400 . S
C1755 C1756 1.398 . S
C1755 C1761 1.491 . S
C1756 H1747 0.950 . S
C1756 C1755 1.398 . S
C1756 C1757 1.391 . S
C1757 H1745 0.950 . S
C1757 C1753 1.393 . S
C1757 C1756 1.391 . S
C1758 H1748 0.950 . S
C1758 C1759 1.386 . S
C1758 C1760 1.391 . S
C1759 C1758 1.386 . S
C1759 C1763 1.393 . S
C1760 H1749 0.950 . S
C1760 C1758 1.391 . S
C1760 C1761 1.400 . S
C1761 C1755 1.491 . S
C1761 C1760 1.400 . S
C1761 C1762 1.398 . S
C1762 H1750 0.950 . S
C1762 C1761 1.398 . S
C1762 C1763 1.391 . S
C1763 H1751 0.950 . S
C1763 C1759 1.393 . S
C1763 C1762 1.391 . S
H1764 C1772 0.950 . S
H1765 C1777 0.950 . S
H1766 C1774 0.950 . S
H1767 C1776 0.950 . S
H1768 C1778 0.950 . S
H1769 C1780 0.950 . S
H1770 C1782 0.950 . S
H1771 C1783 0.950 . S
C1772 H1764 0.950 . S
C1772 C1773 1.386 . S
C1772 C1774 1.391 . S
C1773 C1772 1.386 . S
C1773 C1777 1.393 . S
C1774 H1766 0.950 . S
C1774 C1772 1.391 . S
C1774 C1775 1.400 . S
C1775 C1774 1.400 . S
C1775 C1776 1.398 . S
C1775 C1781 1.491 . S
C1776 H1767 0.950 . S
C1776 C1775 1.398 . S
C1776 C1777 1.391 . S
C1777 H1765 0.950 . S
C1777 C1773 1.393 . S
C1777 C1776 1.391 . S
C1778 H1768 0.950 . S
C1778 C1779 1.386 . S
C1778 C1780 1.391 . S
C1779 C1778 1.386 . S
C1779 C1783 1.393 . S
C1780 H1769 0.950 . S
C1780 C1778 1.391 . S
C1780 C1781 1.400 . S
C1781 C1775 1.491 . S
C1781 C1780 1.400 . S
C1781 C1782 1.398 . S
C1782 H1770 0.950 . S
C1782 C1781 1.398 . S
C1782 C1783 1.391 . S
C1783 H1771 0.950 . S
C1783 C1779 1.393 . S
C1783 C1782 1.391 . S
H1784 C1792 0.950 . S
H1785 C1797 0.950 . S
H1786 C1794 0.950 . S
H1787 C1796 0.950 . S
H1788 C1798 0.950 . S
H1789 C1800 0.950 . S
H1790 C1802 0.950 . S
H1791 C1803 0.950 . S
C1792 H1784 0.950 . S
C1792 C1793 1.386 . S
C1792 C1794 1.391 . S
C1793 C1792 1.386 . S
C1793 C1797 1.393 . S
C1794 H1786 0.950 . S
C1794 C1792 1.391 . S
C1794 C1795 1.400 . S
C1795 C1794 1.400 . S
C1795 C1796 1.398 . S
C1795 C1801 1.491 . S
C1796 H1787 0.950 . S
C1796 C1795 1.398 . S
C1796 C1797 1.391 . S
C1797 H1785 0.950 . S
C1797 C1793 1.393 . S
C1797 C1796 1.391 . S
C1798 H1788 0.950 . S
C1798 C1799 1.386 . S
C1798 C1800 1.391 . S
C1799 C1798 1.386 . S
C1799 C1803 1.393 . S
C1800 H1789 0.950 . S
C1800 C1798 1.391 . S
C1800 C1801 1.400 . S
C1801 C1795 1.491 . S
C1801 C1800 1.400 . S
C1801 C1802 1.398 . S
C1802 H1790 0.950 . S
C1802 C1801 1.398 . S
C1802 C1803 1.391 . S
C1803 H1791 0.950 . S
C1803 C1799 1.393 . S
C1803 C1802 1.391 . S
H1804 C1812 0.950 . S
H1805 C1817 0.950 . S
H1806 C1814 0.950 . S
H1807 C1816 0.950 . S
H1808 C1818 0.950 . S
H1809 C1820 0.950 . S
H1810 C1822 0.950 . S
H1811 C1823 0.950 . S
C1812 H1804 0.950 . S
C1812 C1813 1.386 . S
C1812 C1814 1.391 . S
C1813 C1812 1.386 . S
C1813 C1817 1.393 . S
C1814 H1806 0.950 . S
C1814 C1812 1.391 . S
C1814 C1815 1.400 . S
C1815 C1814 1.400 . S
C1815 C1816 1.398 . S
C1815 C1821 1.491 . S
C1816 H1807 0.950 . S
C1816 C1815 1.398 . S
C1816 C1817 1.391 . S
C1817 H1805 0.950 . S
C1817 C1813 1.393 . S
C1817 C1816 1.391 . S
C1818 H1808 0.950 . S
C1818 C1819 1.386 . S
C1818 C1820 1.391 . S
C1819 C1818 1.386 . S
C1819 C1823 1.393 . S
C1820 H1809 0.950 . S
C1820 C1818 1.391 . S
C1820 C1821 1.400 . S
C1821 C1815 1.491 . S
C1821 C1820 1.400 . S
C1821 C1822 1.398 . S
C1822 H1810 0.950 . S
C1822 C1821 1.398 . S
C1822 C1823 1.391 . S
C1823 H1811 0.950 . S
C1823 C1819 1.393 . S
C1823 C1822 1.391 . S
H1824 C1832 0.950 . S
H1825 C1837 0.950 . S
H1826 C1834 0.950 . S
H1827 C1836 0.950 . S
H1828 C1838 0.950 . S
H1829 C1840 0.950 . S
H1830 C1842 0.950 . S
H1831 C1843 0.950 . S
C1832 H1824 0.950 . S
C1832 C1833 1.386 . S
C1832 C1834 1.391 . S
C1833 C1832 1.386 . S
C1833 C1837 1.393 . S
C1834 H1826 0.950 . S
C1834 C1832 1.391 . S
C1834 C1835 1.400 . S
C1835 C1834 1.400 . S
C1835 C1836 1.398 . S
C1835 C1841 1.491 . S
C1836 H1827 0.950 . S
C1836 C1835 1.398 . S
C1836 C1837 1.391 . S
C1837 H1825 0.950 . S
C1837 C1833 1.393 . S
C1837 C1836 1.391 . S
C1838 H1828 0.950 . S
C1838 C1839 1.386 . S
C1838 C1840 1.391 . S
C1839 C1838 1.386 . S
C1839 C1843 1.393 . S
C1840 H1829 0.950 . S
C1840 C1838 1.391 . S
C1840 C1841 1.400 . S
C1841 C1835 1.491 . S
C1841 C1840 1.400 . S
C1841 C1842 1.398 . S
C1842 H1830 0.950 . S
C1842 C1841 1.398 . S
C1842 C1843 1.391 . S
C1843 H1831 0.950 . S
C1843 C1839 1.393 . S
C1843 C1842 1.391 . S
H1844 C1852 0.950 . S
H1845 C1857 0.950 . S
H1846 C1854 0.950 . S
H1847 C1856 0.950 . S
H1848 C1858 0.950 . S
H1849 C1860 0.950 . S
H1850 C1862 0.950 . S
H1851 C1863 0.950 . S
C1852 H1844 0.950 . S
C1852 C1853 1.386 . S
C1852 C1854 1.391 . S
C1853 C1852 1.386 . S
C1853 C1857 1.393 . S
C1854 H1846 0.950 . S
C1854 C1852 1.391 . S
C1854 C1855 1.400 . S
C1855 C1854 1.400 . S
C1855 C1856 1.398 . S
C1855 C1861 1.491 . S
C1856 H1847 0.950 . S
C1856 C1855 1.398 . S
C1856 C1857 1.391 . S
C1857 H1845 0.950 . S
C1857 C1853 1.393 . S
C1857 C1856 1.391 . S
C1858 H1848 0.950 . S
C1858 C1859 1.386 . S
C1858 C1860 1.391 . S
C1859 C1858 1.386 . S
C1859 C1863 1.393 . S
C1860 H1849 0.950 . S
C1860 C1858 1.391 . S
C1860 C1861 1.400 . S
C1861 C1855 1.491 . S
C1861 C1860 1.400 . S
C1861 C1862 1.398 . S
C1862 H1850 0.950 . S
C1862 C1861 1.398 . S
C1862 C1863 1.391 . S
C1863 H1851 0.950 . S
C1863 C1859 1.393 . S
C1863 C1862 1.391 . S
H1864 C1872 0.950 . S
H1865 C1877 0.950 . S
H1866 C1874 0.950 . S
H1867 C1876 0.950 . S
H1868 C1878 0.950 . S
H1869 C1880 0.950 . S
H1870 C1882 0.950 . S
H1871 C1883 0.950 . S
C1872 H1864 0.950 . S
C1872 C1873 1.386 . S
C1872 C1874 1.391 . S
C1873 C1872 1.386 . S
C1873 C1877 1.393 . S
C1874 H1866 0.950 . S
C1874 C1872 1.391 . S
C1874 C1875 1.400 . S
C1875 C1874 1.400 . S
C1875 C1876 1.398 . S
C1875 C1881 1.491 . S
C1876 H1867 0.950 . S
C1876 C1875 1.398 . S
C1876 C1877 1.391 . S
C1877 H1865 0.950 . S
C1877 C1873 1.393 . S
C1877 C1876 1.391 . S
C1878 H1868 0.950 . S
C1878 C1879 1.386 . S
C1878 C1880 1.391 . S
C1879 C1878 1.386 . S
C1879 C1883 1.393 . S
C1880 H1869 0.950 . S
C1880 C1878 1.391 . S
C1880 C1881 1.400 . S
C1881 C1875 1.491 . S
C1881 C1880 1.400 . S
C1881 C1882 1.398 . S
C1882 H1870 0.950 . S
C1882 C1881 1.398 . S
C1882 C1883 1.391 . S
C1883 H1871 0.950 . S
C1883 C1879 1.393 . S
C1883 C1882 1.391 . S
H1884 C1892 0.950 . S
H1885 C1897 0.950 . S
H1886 C1894 0.950 . S
H1887 C1896 0.950 . S
H1888 C1898 0.950 . S
H1889 C1900 0.950 . S
H1890 C1902 0.950 . S
H1891 C1903 0.950 . S
C1892 H1884 0.950 . S
C1892 C1893 1.386 . S
C1892 C1894 1.391 . S
C1893 C1892 1.386 . S
C1893 C1897 1.393 . S
C1894 H1886 0.950 . S
C1894 C1892 1.391 . S
C1894 C1895 1.400 . S
C1895 C1894 1.400 . S
C1895 C1896 1.398 . S
C1895 C1901 1.491 . S
C1896 H1887 0.950 . S
C1896 C1895 1.398 . S
C1896 C1897 1.391 . S
C1897 H1885 0.950 . S
C1897 C1893 1.393 . S
C1897 C1896 1.391 . S
C1898 H1888 0.950 . S
C1898 C1899 1.386 . S
C1898 C1900 1.391 . S
C1899 C1898 1.386 . S
C1899 C1903 1.393 . S
C1900 H1889 0.950 . S
C1900 C1898 1.391 . S
C1900 C1901 1.400 . S
C1901 C1895 1.491 . S
C1901 C1900 1.400 . S
C1901 C1902 1.398 . S
C1902 H1890 0.950 . S
C1902 C1901 1.398 . S
C1902 C1903 1.391 . S
C1903 H1891 0.950 . S
C1903 C1899 1.393 . S
C1903 C1902 1.391 . S
H1904 C1912 0.950 . S
H1905 C1917 0.950 . S
H1906 C1914 0.950 . S
H1907 C1916 0.950 . S
H1908 C1918 0.950 . S
H1909 C1920 0.950 . S
H1910 C1922 0.950 . S
H1911 C1923 0.950 . S
C1912 H1904 0.950 . S
C1912 C1913 1.386 . S
C1912 C1914 1.391 . S
C1913 C1912 1.386 . S
C1913 C1917 1.393 . S
C1914 H1906 0.950 . S
C1914 C1912 1.391 . S
C1914 C1915 1.400 . S
C1915 C1914 1.400 . S
C1915 C1916 1.398 . S
C1915 C1921 1.491 . S
C1916 H1907 0.950 . S
C1916 C1915 1.398 . S
C1916 C1917 1.391 . S
C1917 H1905 0.950 . S
C1917 C1913 1.393 . S
C1917 C1916 1.391 . S
C1918 H1908 0.950 . S
C1918 C1919 1.386 . S
C1918 C1920 1.391 . S
C1919 C1918 1.386 . S
C1919 C1923 1.393 . S
C1920 H1909 0.950 . S
C1920 C1918 1.391 . S
C1920 C1921 1.400 . S
C1921 C1915 1.491 . S
C1921 C1920 1.400 . S
C1921 C1922 1.398 . S
C1922 H1910 0.950 . S
C1922 C1921 1.398 . S
C1922 C1923 1.391 . S
C1923 H1911 0.950 . S
C1923 C1919 1.393 . S
C1923 C1922 1.391 . S
H1924 C1932 0.950 . S
H1925 C1937 0.950 . S
H1926 C1934 0.950 . S
H1927 C1936 0.950 . S
H1928 C1938 0.950 . S
H1929 C1940 0.950 . S
H1930 C1942 0.950 . S
H1931 C1943 0.950 . S
C1932 H1924 0.950 . S
C1932 C1933 1.386 . S
C1932 C1934 1.391 . S
C1933 C1932 1.386 . S
C1933 C1937 1.393 . S
C1934 H1926 0.950 . S
C1934 C1932 1.391 . S
C1934 C1935 1.400 . S
C1935 C1934 1.400 . S
C1935 C1936 1.398 . S
C1935 C1941 1.491 . S
C1936 H1927 0.950 . S
C1936 C1935 1.398 . S
C1936 C1937 1.391 . S
C1937 H1925 0.950 . S
C1937 C1933 1.393 . S
C1937 C1936 1.391 . S
C1938 H1928 0.950 . S
C1938 C1939 1.386 . S
C1938 C1940 1.391 . S
C1939 C1938 1.386 . S
C1939 C1943 1.393 . S
C1940 H1929 0.950 . S
C1940 C1938 1.391 . S
C1940 C1941 1.400 . S
C1941 C1935 1.491 . S
C1941 C1940 1.400 . S
C1941 C1942 1.398 . S
C1942 H1930 0.950 . S
C1942 C1941 1.398 . S
C1942 C1943 1.391 . S
C1943 H1931 0.950 . S
C1943 C1939 1.393 . S
C1943 C1942 1.391 . S
H1944 C1952 0.950 1_655 S
H1945 C1957 0.950 . S
H1946 C1954 0.950 . S
H1947 C1956 0.950 . S
H1948 C1958 0.950 . S
H1949 C1960 0.950 . S
H1950 C1962 0.950 . S
H1951 C1963 0.950 . S
C1952 H1944 0.950 1_455 S
C1952 C1953 1.386 . S
C1952 C1954 1.391 . S
C1953 C1952 1.386 . S
C1953 C1957 1.393 . S
C1954 H1946 0.950 . S
C1954 C1952 1.391 . S
C1954 C1955 1.400 . S
C1955 C1954 1.400 . S
C1955 C1956 1.398 . S
C1955 C1961 1.491 . S
C1956 H1947 0.950 . S
C1956 C1955 1.398 . S
C1956 C1957 1.391 . S
C1957 H1945 0.950 . S
C1957 C1953 1.393 . S
C1957 C1956 1.391 . S
C1958 H1948 0.950 . S
C1958 C1959 1.386 . S
C1958 C1960 1.391 . S
C1959 C1958 1.386 . S
C1959 C1963 1.393 . S
C1960 H1949 0.950 . S
C1960 C1958 1.391 . S
C1960 C1961 1.400 . S
C1961 C1955 1.491 . S
C1961 C1960 1.400 . S
C1961 C1962 1.398 . S
C1962 H1950 0.950 . S
C1962 C1961 1.398 . S
C1962 C1963 1.391 . S
C1963 H1951 0.950 . S
C1963 C1959 1.393 . S
C1963 C1962 1.391 . S
H1964 C1972 0.950 . S
H1965 C1977 0.950 . S
H1966 C1974 0.950 . S
H1967 C1976 0.950 . S
H1968 C1978 0.950 . S
H1969 C1980 0.950 . S
H1970 C1982 0.950 . S
H1971 C1983 0.950 . S
C1972 H1964 0.950 . S
C1972 C1973 1.386 . S
C1972 C1974 1.391 . S
C1973 C1972 1.386 . S
C1973 C1977 1.393 . S
C1974 H1966 0.950 . S
C1974 C1972 1.391 . S
C1974 C1975 1.400 . S
C1975 C1974 1.400 . S
C1975 C1976 1.398 . S
C1975 C1981 1.491 . S
C1976 H1967 0.950 . S
C1976 C1975 1.398 . S
C1976 C1977 1.391 . S
C1977 H1965 0.950 . S
C1977 C1973 1.393 . S
C1977 C1976 1.391 . S
C1978 H1968 0.950 . S
C1978 C1979 1.386 . S
C1978 C1980 1.391 . S
C1979 C1978 1.386 . S
C1979 C1983 1.393 . S
C1980 H1969 0.950 . S
C1980 C1978 1.391 . S
C1980 C1981 1.400 . S
C1981 C1975 1.491 . S
C1981 C1980 1.400 . S
C1981 C1982 1.398 . S
C1982 H1970 0.950 . S
C1982 C1981 1.398 . S
C1982 C1983 1.391 . S
C1983 H1971 0.950 . S
C1983 C1979 1.393 . S
C1983 C1982 1.391 . S
H1984 C1992 0.950 . S
H1985 C1997 0.950 . S
H1986 C1994 0.950 . S
H1987 C1996 0.950 . S
H1988 C1998 0.950 1_455 S
H1989 C2000 0.950 . S
H1990 C2002 0.950 . S
H1991 C2003 0.950 . S
C1992 H1984 0.950 . S
C1992 C1993 1.386 . S
C1992 C1994 1.391 . S
C1993 C1992 1.386 . S
C1993 C1997 1.393 . S
C1994 H1986 0.950 . S
C1994 C1992 1.391 . S
C1994 C1995 1.400 . S
C1995 C1994 1.400 . S
C1995 C1996 1.398 . S
C1995 C2001 1.491 . S
C1996 H1987 0.950 . S
C1996 C1995 1.398 . S
C1996 C1997 1.391 . S
C1997 H1985 0.950 . S
C1997 C1993 1.393 . S
C1997 C1996 1.391 . S
C1998 H1988 0.950 1_655 S
C1998 C1999 1.386 . S
C1998 C2000 1.391 . S
C1999 C1998 1.386 . S
C1999 C2003 1.393 . S
C2000 H1989 0.950 . S
C2000 C1998 1.391 . S
C2000 C2001 1.400 . S
C2001 C1995 1.491 . S
C2001 C2000 1.400 . S
C2001 C2002 1.398 . S
C2002 H1990 0.950 . S
C2002 C2001 1.398 . S
C2002 C2003 1.391 . S
C2003 H1991 0.950 . S
C2003 C1999 1.393 . S
C2003 C2002 1.391 . S
H2004 C2012 0.950 . S
H2005 C2017 0.950 . S
H2006 C2014 0.950 . S
H2007 C2016 0.950 . S
H2008 C2018 0.950 . S
H2009 C2020 0.950 . S
H2010 C2022 0.950 . S
H2011 C2023 0.950 . S
C2012 H2004 0.950 . S
C2012 C2013 1.386 . S
C2012 C2014 1.391 . S
C2013 C2012 1.386 . S
C2013 C2017 1.393 . S
C2014 H2006 0.950 . S
C2014 C2012 1.391 . S
C2014 C2015 1.400 . S
C2015 C2014 1.400 . S
C2015 C2016 1.398 . S
C2015 C2021 1.491 . S
C2016 H2007 0.950 . S
C2016 C2015 1.398 . S
C2016 C2017 1.391 . S
C2017 H2005 0.950 . S
C2017 C2013 1.393 . S
C2017 C2016 1.391 . S
C2018 H2008 0.950 . S
C2018 C2019 1.386 . S
C2018 C2020 1.391 . S
C2019 C2018 1.386 . S
C2019 C2023 1.393 . S
C2020 H2009 0.950 . S
C2020 C2018 1.391 . S
C2020 C2021 1.400 . S
C2021 C2015 1.491 . S
C2021 C2020 1.400 . S
C2021 C2022 1.398 . S
C2022 H2010 0.950 . S
C2022 C2021 1.398 . S
C2022 C2023 1.391 . S
C2023 H2011 0.950 . S
C2023 C2019 1.393 . S
C2023 C2022 1.391 . S
H2024 C2032 0.950 1_655 S
H2025 C2037 0.950 . S
H2026 C2034 0.950 . S
H2027 C2036 0.950 . S
H2028 C2038 0.950 . S
H2029 C2040 0.950 . S
H2030 C2042 0.950 . S
H2031 C2043 0.950 . S
C2032 H2024 0.950 1_455 S
C2032 C2033 1.386 . S
C2032 C2034 1.391 . S
C2033 C2032 1.386 . S
C2033 C2037 1.393 . S
C2034 H2026 0.950 . S
C2034 C2032 1.391 . S
C2034 C2035 1.400 . S
C2035 C2034 1.400 . S
C2035 C2036 1.398 . S
C2035 C2041 1.491 . S
C2036 H2027 0.950 . S
C2036 C2035 1.398 . S
C2036 C2037 1.391 . S
C2037 H2025 0.950 . S
C2037 C2033 1.393 . S
C2037 C2036 1.391 . S
C2038 H2028 0.950 . S
C2038 C2039 1.386 . S
C2038 C2040 1.391 . S
C2039 C2038 1.386 . S
C2039 C2043 1.393 . S
C2040 H2029 0.950 . S
C2040 C2038 1.391 . S
C2040 C2041 1.400 . S
C2041 C2035 1.491 . S
C2041 C2040 1.400 . S
C2041 C2042 1.398 . S
C2042 H2030 0.950 . S
C2042 C2041 1.398 . S
C2042 C2043 1.391 . S
C2043 H2031 0.950 . S
C2043 C2039 1.393 . S
C2043 C2042 1.391 . S
H2044 C2052 0.950 . S
H2045 C2057 0.950 1_554 S
H2046 C2054 0.950 . S
H2047 C2056 0.950 1_554 S
H2048 C2058 0.983 . S
H2049 C2060 0.947 1_554 S
H2050 C2062 0.950 . S
H2051 C2063 0.950 . S
C2052 H2044 0.950 . S
C2052 C2053 1.386 . S
C2052 C2054 1.391 . S
C2053 C2052 1.386 . S
C2053 C2057 1.393 . S
C2054 H2046 0.950 . S
C2054 C2052 1.391 . S
C2054 C2055 1.400 . S
C2055 C2054 1.400 . S
C2055 C2056 1.398 . S
C2055 C2061 1.491 . S
C2056 H2047 0.950 1_556 S
C2056 C2055 1.398 . S
C2056 C2057 1.391 . S
C2057 H2045 0.950 1_556 S
C2057 C2053 1.393 . S
C2057 C2056 1.391 . S
C2058 H2048 0.983 . S
C2058 C2059 1.386 . S
C2058 C2060 1.391 . S
C2059 C2058 1.386 . S
C2059 C2063 1.393 . S
C2060 H2049 0.947 1_556 S
C2060 C2058 1.391 . S
C2060 C2061 1.400 . S
C2061 C2055 1.491 . S
C2061 C2060 1.400 . S
C2061 C2062 1.398 . S
C2062 H2050 0.950 . S
C2062 C2061 1.398 . S
C2062 C2063 1.391 . S
C2063 H2051 0.950 . S
C2063 C2059 1.393 . S
C2063 C2062 1.391 . S
H2064 C2072 0.950 . S
H2065 C2077 0.950 . S
H2066 C2074 0.950 . S
H2067 C2076 0.950 . S
H2068 C2078 0.950 . S
H2069 C2080 0.950 . S
H2070 C2082 0.950 . S
H2071 C2083 0.950 . S
C2072 H2064 0.950 . S
C2072 C2073 1.386 . S
C2072 C2074 1.391 . S
C2073 C2072 1.386 . S
C2073 C2077 1.393 . S
C2074 H2066 0.950 . S
C2074 C2072 1.391 . S
C2074 C2075 1.400 . S
C2075 C2074 1.400 . S
C2075 C2076 1.398 . S
C2075 C2081 1.491 . S
C2076 H2067 0.950 . S
C2076 C2075 1.398 . S
C2076 C2077 1.391 . S
C2077 H2065 0.950 . S
C2077 C2073 1.393 . S
C2077 C2076 1.391 . S
C2078 H2068 0.950 . S
C2078 C2079 1.386 . S
C2078 C2080 1.391 . S
C2079 C2078 1.386 . S
C2079 C2083 1.393 . S
C2080 H2069 0.950 . S
C2080 C2078 1.391 . S
C2080 C2081 1.400 . S
C2081 C2075 1.491 . S
C2081 C2080 1.400 . S
C2081 C2082 1.398 . S
C2082 H2070 0.950 . S
C2082 C2081 1.398 . S
C2082 C2083 1.391 . S
C2083 H2071 0.950 . S
C2083 C2079 1.393 . S
C2083 C2082 1.391 . S
H2084 C2092 0.950 . S
H2085 C2097 0.950 . S
H2086 C2094 0.950 . S
H2087 C2096 0.950 . S
H2088 C2098 0.950 . S
H2089 C2100 0.950 . S
H2090 C2102 0.950 . S
H2091 C2103 0.950 . S
C2092 H2084 0.950 . S
C2092 C2093 1.386 . S
C2092 C2094 1.391 . S
C2093 C2092 1.386 . S
C2093 C2097 1.393 . S
C2094 H2086 0.950 . S
C2094 C2092 1.391 . S
C2094 C2095 1.400 . S
C2095 C2094 1.400 . S
C2095 C2096 1.398 . S
C2095 C2101 1.491 . S
C2096 H2087 0.950 . S
C2096 C2095 1.398 . S
C2096 C2097 1.391 . S
C2097 H2085 0.950 . S
C2097 C2093 1.393 . S
C2097 C2096 1.391 . S
C2098 H2088 0.950 . S
C2098 C2099 1.386 . S
C2098 C2100 1.391 . S
C2099 C2098 1.386 . S
C2099 C2103 1.393 . S
C2100 H2089 0.950 . S
C2100 C2098 1.391 . S
C2100 C2101 1.400 . S
C2101 C2095 1.491 . S
C2101 C2100 1.400 . S
C2101 C2102 1.398 . S
C2102 H2090 0.950 . S
C2102 C2101 1.398 . S
C2102 C2103 1.391 . S
C2103 H2091 0.950 . S
C2103 C2099 1.393 . S
C2103 C2102 1.391 . S
H2104 C2112 0.950 . S
H2105 C2117 0.950 . S
H2106 C2114 0.950 . S
H2107 C2116 0.950 . S
H2108 C2118 0.950 . S
H2109 C2120 0.950 . S
H2110 C2122 0.950 . S
H2111 C2123 0.950 . S
C2112 H2104 0.950 . S
C2112 C2113 1.386 . S
C2112 C2114 1.391 . S
C2113 C2112 1.386 . S
C2113 C2117 1.393 . S
C2114 H2106 0.950 . S
C2114 C2112 1.391 . S
C2114 C2115 1.400 . S
C2115 C2114 1.400 . S
C2115 C2116 1.398 . S
C2115 C2121 1.491 . S
C2116 H2107 0.950 . S
C2116 C2115 1.398 . S
C2116 C2117 1.391 . S
C2117 H2105 0.950 . S
C2117 C2113 1.393 . S
C2117 C2116 1.391 . S
C2118 H2108 0.950 . S
C2118 C2119 1.386 . S
C2118 C2120 1.391 . S
C2119 C2118 1.386 . S
C2119 C2123 1.393 . S
C2120 H2109 0.950 . S
C2120 C2118 1.391 . S
C2120 C2121 1.400 . S
C2121 C2115 1.491 . S
C2121 C2120 1.400 . S
C2121 C2122 1.398 . S
C2122 H2110 0.950 . S
C2122 C2121 1.398 . S
C2122 C2123 1.391 . S
C2123 H2111 0.950 . S
C2123 C2119 1.393 . S
C2123 C2122 1.391 . S
H2124 C2132 0.950 . S
H2125 C2137 0.950 . S
H2126 C2134 0.950 . S
H2127 C2136 0.950 . S
H2128 C2138 0.950 . S
H2129 C2140 0.950 . S
H2130 C2142 0.950 . S
H2131 C2143 0.950 . S
C2132 H2124 0.950 . S
C2132 C2133 1.386 . S
C2132 C2134 1.391 1_655 S
C2133 C2132 1.386 . S
C2133 C2137 1.393 1_655 S
C2134 H2126 0.950 . S
C2134 C2132 1.391 1_455 S
C2134 C2135 1.400 . S
C2135 C2134 1.400 . S
C2135 C2136 1.398 . S
C2135 C2141 1.491 . S
C2136 H2127 0.950 . S
C2136 C2135 1.398 . S
C2136 C2137 1.391 . S
C2137 H2125 0.950 . S
C2137 C2133 1.393 1_455 S
C2137 C2136 1.391 . S
C2138 H2128 0.950 . S
C2138 C2139 1.386 . S
C2138 C2140 1.391 . S
C2139 C2138 1.386 . S
C2139 C2143 1.393 . S
C2140 H2129 0.950 . S
C2140 C2138 1.391 . S
C2140 C2141 1.400 . S
C2141 C2135 1.491 . S
C2141 C2140 1.400 . S
C2141 C2142 1.398 . S
C2142 H2130 0.950 . S
C2142 C2141 1.398 . S
C2142 C2143 1.391 . S
C2143 H2131 0.950 . S
C2143 C2139 1.393 . S
C2143 C2142 1.391 . S
H2144 C2152 0.950 . S
H2145 C2157 0.950 . S
H2146 C2154 0.950 . S
H2147 C2156 0.950 . S
H2148 C2158 0.950 . S
H2149 C2160 0.950 . S
H2150 C2162 0.950 . S
H2151 C2163 0.950 . S
C2152 H2144 0.950 . S
C2152 C2153 1.386 . S
C2152 C2154 1.391 . S
C2153 C2152 1.386 . S
C2153 C2157 1.393 . S
C2154 H2146 0.950 . S
C2154 C2152 1.391 . S
C2154 C2155 1.400 . S
C2155 C2154 1.400 . S
C2155 C2156 1.398 . S
C2155 C2161 1.491 . S
C2156 H2147 0.950 . S
C2156 C2155 1.398 . S
C2156 C2157 1.391 . S
C2157 H2145 0.950 . S
C2157 C2153 1.393 . S
C2157 C2156 1.391 . S
C2158 H2148 0.950 . S
C2158 C2159 1.386 . S
C2158 C2160 1.391 . S
C2159 C2158 1.386 . S
C2159 C2163 1.393 . S
C2160 H2149 0.950 . S
C2160 C2158 1.391 . S
C2160 C2161 1.400 . S
C2161 C2155 1.491 . S
C2161 C2160 1.400 . S
C2161 C2162 1.398 . S
C2162 H2150 0.950 . S
C2162 C2161 1.398 . S
C2162 C2163 1.391 . S
C2163 H2151 0.950 . S
C2163 C2159 1.393 . S
C2163 C2162 1.391 . S
H2164 C2172 0.950 . S
H2165 C2177 0.950 . S
H2166 C2174 0.950 . S
H2167 C2176 0.950 . S
H2168 C2178 0.950 . S
H2169 C2180 0.950 . S
H2170 C2182 0.950 . S
H2171 C2183 0.950 1_655 S
C2172 H2164 0.950 . S
C2172 C2173 1.386 . S
C2172 C2174 1.391 . S
C2173 C2172 1.386 . S
C2173 C2177 1.393 . S
C2174 H2166 0.950 . S
C2174 C2172 1.391 . S
C2174 C2175 1.400 . S
C2175 C2174 1.400 . S
C2175 C2176 1.398 . S
C2175 C2181 1.491 . S
C2176 H2167 0.950 . S
C2176 C2175 1.398 . S
C2176 C2177 1.391 . S
C2177 H2165 0.950 . S
C2177 C2173 1.393 . S
C2177 C2176 1.391 . S
C2178 H2168 0.950 . S
C2178 C2179 1.386 1_455 S
C2178 C2180 1.391 . S
C2179 C2178 1.386 1_655 S
C2179 C2183 1.393 1_655 S
C2180 H2169 0.950 . S
C2180 C2178 1.391 . S
C2180 C2181 1.400 . S
C2181 C2175 1.491 . S
C2181 C2180 1.400 . S
C2181 C2182 1.398 . S
C2182 H2170 0.950 . S
C2182 C2181 1.398 . S
C2182 C2183 1.391 . S
C2183 H2171 0.950 1_455 S
C2183 C2179 1.393 1_455 S
C2183 C2182 1.391 . S
H2184 C2192 0.950 . S
H2185 C2197 0.950 . S
H2186 C2194 0.950 . S
H2187 C2196 0.950 . S
H2188 C2198 0.950 . S
H2189 C2200 0.950 . S
H2190 C2202 0.950 . S
H2191 C2203 0.950 . S
C2192 H2184 0.950 . S
C2192 C2193 1.386 . S
C2192 C2194 1.391 . S
C2193 C2192 1.386 . S
C2193 C2197 1.393 . S
C2194 H2186 0.950 . S
C2194 C2192 1.391 . S
C2194 C2195 1.400 . S
C2195 C2194 1.400 . S
C2195 C2196 1.398 . S
C2195 C2201 1.491 . S
C2196 H2187 0.950 . S
C2196 C2195 1.398 . S
C2196 C2197 1.391 . S
C2197 H2185 0.950 . S
C2197 C2193 1.393 . S
C2197 C2196 1.391 . S
C2198 H2188 0.950 . S
C2198 C2199 1.386 . S
C2198 C2200 1.391 . S
C2199 C2198 1.386 . S
C2199 C2203 1.393 . S
C2200 H2189 0.950 . S
C2200 C2198 1.391 . S
C2200 C2201 1.400 . S
C2201 C2195 1.491 . S
C2201 C2200 1.400 . S
C2201 C2202 1.398 . S
C2202 H2190 0.950 . S
C2202 C2201 1.398 . S
C2202 C2203 1.391 . S
C2203 H2191 0.950 . S
C2203 C2199 1.393 . S
C2203 C2202 1.391 . S
H2204 C2212 0.950 . S
H2205 C2217 0.950 . S
H2206 C2214 0.950 . S
H2207 C2216 0.950 . S
H2208 C2218 0.950 . S
H2209 C2220 0.950 . S
H2210 C2222 0.950 . S
H2211 C2223 0.950 . S
C2212 H2204 0.950 . S
C2212 C2213 1.386 . S
C2212 C2214 1.391 . S
C2213 C2212 1.386 . S
C2213 C2217 1.393 . S
C2214 H2206 0.950 . S
C2214 C2212 1.391 . S
C2214 C2215 1.400 . S
C2215 C2214 1.400 . S
C2215 C2216 1.398 . S
C2215 C2221 1.491 . S
C2216 H2207 0.950 . S
C2216 C2215 1.398 . S
C2216 C2217 1.391 . S
C2217 H2205 0.950 . S
C2217 C2213 1.393 . S
C2217 C2216 1.391 . S
C2218 H2208 0.950 . S
C2218 C2219 1.386 . S
C2218 C2220 1.391 . S
C2219 C2218 1.386 . S
C2219 C2223 1.393 . S
C2220 H2209 0.950 . S
C2220 C2218 1.391 . S
C2220 C2221 1.400 . S
C2221 C2215 1.491 . S
C2221 C2220 1.400 . S
C2221 C2222 1.398 . S
C2222 H2210 0.950 . S
C2222 C2221 1.398 . S
C2222 C2223 1.391 . S
C2223 H2211 0.950 . S
C2223 C2219 1.393 . S
C2223 C2222 1.391 . S
H2224 C2232 0.950 . S
H2225 C2237 0.950 . S
H2226 C2234 0.950 . S
H2227 C2236 0.950 . S
H2228 C2238 0.950 . S
H2229 C2240 0.950 . S
H2230 C2242 0.950 . S
H2231 C2243 0.950 . S
C2232 H2224 0.950 . S
C2232 C2233 1.386 . S
C2232 C2234 1.391 . S
C2233 C2232 1.386 . S
C2233 C2237 1.393 . S
C2234 H2226 0.950 . S
C2234 C2232 1.391 . S
C2234 C2235 1.400 . S
C2235 C2234 1.400 . S
C2235 C2236 1.398 . S
C2235 C2241 1.491 . S
C2236 H2227 0.950 . S
C2236 C2235 1.398 . S
C2236 C2237 1.391 . S
C2237 H2225 0.950 . S
C2237 C2233 1.393 . S
C2237 C2236 1.391 . S
C2238 H2228 0.950 . S
C2238 C2239 1.386 . S
C2238 C2240 1.391 . S
C2239 C2238 1.386 . S
C2239 C2243 1.393 . S
C2240 H2229 0.950 . S
C2240 C2238 1.391 . S
C2240 C2241 1.400 . S
C2241 C2235 1.491 . S
C2241 C2240 1.400 . S
C2241 C2242 1.398 . S
C2242 H2230 0.950 . S
C2242 C2241 1.398 . S
C2242 C2243 1.391 . S
C2243 H2231 0.950 . S
C2243 C2239 1.393 . S
C2243 C2242 1.391 . S
H2244 C2252 0.950 . S
H2245 C2257 0.950 . S
H2246 C2254 0.950 . S
H2247 C2256 0.950 . S
H2248 C2258 0.950 . S
H2249 C2260 0.950 . S
H2250 C2262 0.950 . S
H2251 C2263 0.950 . S
C2252 H2244 0.950 . S
C2252 C2253 1.386 . S
C2252 C2254 1.391 . S
C2253 C2252 1.386 . S
C2253 C2257 1.393 . S
C2254 H2246 0.950 . S
C2254 C2252 1.391 . S
C2254 C2255 1.400 . S
C2255 C2254 1.400 . S
C2255 C2256 1.398 . S
C2255 C2261 1.491 . S
C2256 H2247 0.950 . S
C2256 C2255 1.398 . S
C2256 C2257 1.391 . S
C2257 H2245 0.950 . S
C2257 C2253 1.393 . S
C2257 C2256 1.391 . S
C2258 H2248 0.950 . S
C2258 C2259 1.386 . S
C2258 C2260 1.391 . S
C2259 C2258 1.386 . S
C2259 C2263 1.393 . S
C2260 H2249 0.950 . S
C2260 C2258 1.391 . S
C2260 C2261 1.400 . S
C2261 C2255 1.491 . S
C2261 C2260 1.400 . S
C2261 C2262 1.398 . S
C2262 H2250 0.950 . S
C2262 C2261 1.398 . S
C2262 C2263 1.391 . S
C2263 H2251 0.950 . S
C2263 C2259 1.393 . S
C2263 C2262 1.391 . S
H2264 C2272 0.950 . S
H2265 C2277 0.950 . S
H2266 C2274 0.950 . S
H2267 C2276 0.950 . S
H2268 C2278 0.950 . S
H2269 C2280 0.950 . S
H2270 C2282 0.950 . S
H2271 C2283 0.950 . S
C2272 H2264 0.950 . S
C2272 C2273 1.386 . S
C2272 C2274 1.391 . S
C2273 C2272 1.386 . S
C2273 C2277 1.393 . S
C2274 H2266 0.950 . S
C2274 C2272 1.391 . S
C2274 C2275 1.400 . S
C2275 C2274 1.400 . S
C2275 C2276 1.398 . S
C2275 C2281 1.491 . S
C2276 H2267 0.950 . S
C2276 C2275 1.398 . S
C2276 C2277 1.391 . S
C2277 H2265 0.950 . S
C2277 C2273 1.393 . S
C2277 C2276 1.391 . S
C2278 H2268 0.950 . S
C2278 C2279 1.386 . S
C2278 C2280 1.391 . S
C2279 C2278 1.386 . S
C2279 C2283 1.393 . S
C2280 H2269 0.950 . S
C2280 C2278 1.391 . S
C2280 C2281 1.400 . S
C2281 C2275 1.491 . S
C2281 C2280 1.400 . S
C2281 C2282 1.398 . S
C2282 H2270 0.950 . S
C2282 C2281 1.398 . S
C2282 C2283 1.391 . S
C2283 H2271 0.950 . S
C2283 C2279 1.393 . S
C2283 C2282 1.391 . S
H2284 C2292 0.950 . S
H2285 C2297 0.950 . S
H2286 C2294 0.950 . S
H2287 C2296 0.950 . S
H2288 C2298 0.950 . S
H2289 C2300 0.950 . S
H2290 C2302 0.950 . S
H2291 C2303 0.950 . S
C2292 H2284 0.950 . S
C2292 C2293 1.386 . S
C2292 C2294 1.391 . S
C2293 C2292 1.386 . S
C2293 C2297 1.393 . S
C2294 H2286 0.950 . S
C2294 C2292 1.391 . S
C2294 C2295 1.400 . S
C2295 C2294 1.400 . S
C2295 C2296 1.398 . S
C2295 C2301 1.491 . S
C2296 H2287 0.950 . S
C2296 C2295 1.398 . S
C2296 C2297 1.391 . S
C2297 H2285 0.950 . S
C2297 C2293 1.393 . S
C2297 C2296 1.391 . S
C2298 H2288 0.950 . S
C2298 C2299 1.386 . S
C2298 C2300 1.391 . S
C2299 C2298 1.386 . S
C2299 C2303 1.393 . S
C2300 H2289 0.950 . S
C2300 C2298 1.391 . S
C2300 C2301 1.400 . S
C2301 C2295 1.491 . S
C2301 C2300 1.400 . S
C2301 C2302 1.398 . S
C2302 H2290 0.950 . S
C2302 C2301 1.398 . S
C2302 C2303 1.391 . S
C2303 H2291 0.950 . S
C2303 C2299 1.393 . S
C2303 C2302 1.391 . S
H2304 C2312 0.950 . S
H2305 C2317 0.950 . S
H2306 C2314 0.950 . S
H2307 C2316 0.950 . S
H2308 C2318 0.950 . S
H2309 C2320 0.950 . S
H2310 C2322 0.950 . S
H2311 C2323 0.950 . S
C2312 H2304 0.950 . S
C2312 C2313 1.386 . S
C2312 C2314 1.391 . S
C2313 C2312 1.386 . S
C2313 C2317 1.393 . S
C2314 H2306 0.950 . S
C2314 C2312 1.391 . S
C2314 C2315 1.400 . S
C2315 C2314 1.400 . S
C2315 C2316 1.398 . S
C2315 C2321 1.491 . S
C2316 H2307 0.950 . S
C2316 C2315 1.398 . S
C2316 C2317 1.391 . S
C2317 H2305 0.950 . S
C2317 C2313 1.393 . S
C2317 C2316 1.391 . S
C2318 H2308 0.950 . S
C2318 C2319 1.386 . S
C2318 C2320 1.391 . S
C2319 C2318 1.386 . S
C2319 C2323 1.393 . S
C2320 H2309 0.950 . S
C2320 C2318 1.391 . S
C2320 C2321 1.400 . S
C2321 C2315 1.491 . S
C2321 C2320 1.400 . S
C2321 C2322 1.398 . S
C2322 H2310 0.950 . S
C2322 C2321 1.398 . S
C2322 C2323 1.391 . S
C2323 H2311 0.950 . S
C2323 C2319 1.393 . S
C2323 C2322 1.391 . S
H2324 C2332 0.950 . S
H2325 C2337 0.950 . S
H2326 C2334 0.950 . S
H2327 C2336 0.950 . S
H2328 C2338 0.950 . S
H2329 C2340 0.950 . S
H2330 C2342 0.950 . S
H2331 C2343 0.950 . S
C2332 H2324 0.950 . S
C2332 C2333 1.386 . S
C2332 C2334 1.391 . S
C2333 C2332 1.386 . S
C2333 C2337 1.393 . S
C2334 H2326 0.950 . S
C2334 C2332 1.391 . S
C2334 C2335 1.400 . S
C2335 C2334 1.400 . S
C2335 C2336 1.398 . S
C2335 C2341 1.491 . S
C2336 H2327 0.950 . S
C2336 C2335 1.398 . S
C2336 C2337 1.391 . S
C2337 H2325 0.950 . S
C2337 C2333 1.393 . S
C2337 C2336 1.391 . S
C2338 H2328 0.950 . S
C2338 C2339 1.386 . S
C2338 C2340 1.391 . S
C2339 C2338 1.386 . S
C2339 C2343 1.393 . S
C2340 H2329 0.950 . S
C2340 C2338 1.391 . S
C2340 C2341 1.400 . S
C2341 C2335 1.491 . S
C2341 C2340 1.400 . S
C2341 C2342 1.398 . S
C2342 H2330 0.950 . S
C2342 C2341 1.398 . S
C2342 C2343 1.391 . S
C2343 H2331 0.950 . S
C2343 C2339 1.393 . S
C2343 C2342 1.391 . S
H2344 C2352 0.950 . S
H2345 C2357 0.950 . S
H2346 C2354 0.950 . S
H2347 C2356 0.950 . S
H2348 C2358 0.950 . S
H2349 C2360 0.950 . S
H2350 C2362 0.950 . S
H2351 C2363 0.950 . S
C2352 H2344 0.950 . S
C2352 C2353 1.386 . S
C2352 C2354 1.391 . S
C2353 C2352 1.386 . S
C2353 C2357 1.393 . S
C2354 H2346 0.950 . S
C2354 C2352 1.391 . S
C2354 C2355 1.400 . S
C2355 C2354 1.400 . S
C2355 C2356 1.398 . S
C2355 C2361 1.491 . S
C2356 H2347 0.950 . S
C2356 C2355 1.398 . S
C2356 C2357 1.391 . S
C2357 H2345 0.950 . S
C2357 C2353 1.393 . S
C2357 C2356 1.391 . S
C2358 H2348 0.950 . S
C2358 C2359 1.386 . S
C2358 C2360 1.391 . S
C2359 C2358 1.386 . S
C2359 C2363 1.393 . S
C2360 H2349 0.950 . S
C2360 C2358 1.391 . S
C2360 C2361 1.400 . S
C2361 C2355 1.491 . S
C2361 C2360 1.400 . S
C2361 C2362 1.398 . S
C2362 H2350 0.950 . S
C2362 C2361 1.398 . S
C2362 C2363 1.391 . S
C2363 H2351 0.950 . S
C2363 C2359 1.393 . S
C2363 C2362 1.391 . S
H2364 C2372 0.950 . S
H2365 C2377 0.950 . S
H2366 C2374 0.950 . S
H2367 C2376 0.950 . S
H2368 C2378 0.950 . S
H2369 C2380 0.950 . S
H2370 C2382 0.950 . S
H2371 C2383 0.950 . S
C2372 H2364 0.950 . S
C2372 C2373 1.386 . S
C2372 C2374 1.391 . S
C2373 C2372 1.386 . S
C2373 C2377 1.393 . S
C2374 H2366 0.950 . S
C2374 C2372 1.391 . S
C2374 C2375 1.400 . S
C2375 C2374 1.400 . S
C2375 C2376 1.398 . S
C2375 C2381 1.491 . S
C2376 H2367 0.950 . S
C2376 C2375 1.398 . S
C2376 C2377 1.391 . S
C2377 H2365 0.950 . S
C2377 C2373 1.393 . S
C2377 C2376 1.391 . S
C2378 H2368 0.950 . S
C2378 C2379 1.386 . S
C2378 C2380 1.391 . S
C2379 C2378 1.386 . S
C2379 C2383 1.393 . S
C2380 H2369 0.950 . S
C2380 C2378 1.391 . S
C2380 C2381 1.400 . S
C2381 C2375 1.491 . S
C2381 C2380 1.400 . S
C2381 C2382 1.398 . S
C2382 H2370 0.950 . S
C2382 C2381 1.398 . S
C2382 C2383 1.391 . S
C2383 H2371 0.950 . S
C2383 C2379 1.393 . S
C2383 C2382 1.391 . S
H2384 C2392 0.950 . S
H2385 C2397 0.950 . S
H2386 C2394 0.950 . S
H2387 C2396 0.950 . S
H2388 C2398 0.950 . S
H2389 C2400 0.950 . S
H2390 C2402 0.950 . S
H2391 C2403 0.950 . S
C2392 H2384 0.950 . S
C2392 C2393 1.386 . S
C2392 C2394 1.391 . S
C2393 C2392 1.386 . S
C2393 C2397 1.393 . S
C2394 H2386 0.950 . S
C2394 C2392 1.391 . S
C2394 C2395 1.400 . S
C2395 C2394 1.400 . S
C2395 C2396 1.398 . S
C2395 C2401 1.491 . S
C2396 H2387 0.950 . S
C2396 C2395 1.398 . S
C2396 C2397 1.391 . S
C2397 H2385 0.950 . S
C2397 C2393 1.393 . S
C2397 C2396 1.391 . S
C2398 H2388 0.950 . S
C2398 C2399 1.386 . S
C2398 C2400 1.391 . S
C2399 C2398 1.386 . S
C2399 C2403 1.393 . S
C2400 H2389 0.950 . S
C2400 C2398 1.391 . S
C2400 C2401 1.400 . S
C2401 C2395 1.491 . S
C2401 C2400 1.400 . S
C2401 C2402 1.398 . S
C2402 H2390 0.950 . S
C2402 C2401 1.398 . S
C2402 C2403 1.391 . S
C2403 H2391 0.950 . S
C2403 C2399 1.393 . S
C2403 C2402 1.391 . S
H2404 C2412 0.950 . S
H2405 C2417 0.950 . S
H2406 C2414 0.950 . S
H2407 C2416 0.950 . S
H2408 C2418 0.950 . S
H2409 C2420 0.950 . S
H2410 C2422 0.950 . S
H2411 C2423 0.950 . S
C2412 H2404 0.950 . S
C2412 C2413 1.386 . S
C2412 C2414 1.391 . S
C2413 C2412 1.386 . S
C2413 C2417 1.393 . S
C2414 H2406 0.950 . S
C2414 C2412 1.391 . S
C2414 C2415 1.400 . S
C2415 C2414 1.400 . S
C2415 C2416 1.398 . S
C2415 C2421 1.491 . S
C2416 H2407 0.950 . S
C2416 C2415 1.398 . S
C2416 C2417 1.391 . S
C2417 H2405 0.950 . S
C2417 C2413 1.393 . S
C2417 C2416 1.391 . S
C2418 H2408 0.950 . S
C2418 C2419 1.386 . S
C2418 C2420 1.391 . S
C2419 C2418 1.386 . S
C2419 C2423 1.393 . S
C2420 H2409 0.950 . S
C2420 C2418 1.391 . S
C2420 C2421 1.400 . S
C2421 C2415 1.491 . S
C2421 C2420 1.400 . S
C2421 C2422 1.398 . S
C2422 H2410 0.950 . S
C2422 C2421 1.398 . S
C2422 C2423 1.391 . S
C2423 H2411 0.950 . S
C2423 C2419 1.393 . S
C2423 C2422 1.391 . S
H2424 C2432 0.950 . S
H2425 C2437 0.950 . S
H2426 C2434 0.950 . S
H2427 C2436 0.950 . S
H2428 C2438 0.950 . S
H2429 C2440 0.950 . S
H2430 C2442 0.950 . S
H2431 C2443 0.950 . S
C2432 H2424 0.950 . S
C2432 C2433 1.386 . S
C2432 C2434 1.391 . S
C2433 C2432 1.386 . S
C2433 C2437 1.393 . S
C2434 H2426 0.950 . S
C2434 C2432 1.391 . S
C2434 C2435 1.400 . S
C2435 C2434 1.400 . S
C2435 C2436 1.398 . S
C2435 C2441 1.491 . S
C2436 H2427 0.950 . S
C2436 C2435 1.398 . S
C2436 C2437 1.391 . S
C2437 H2425 0.950 . S
C2437 C2433 1.393 . S
C2437 C2436 1.391 . S
C2438 H2428 0.950 . S
C2438 C2439 1.386 . S
C2438 C2440 1.391 . S
C2439 C2438 1.386 . S
C2439 C2443 1.393 . S
C2440 H2429 0.950 . S
C2440 C2438 1.391 . S
C2440 C2441 1.400 . S
C2441 C2435 1.491 . S
C2441 C2440 1.400 . S
C2441 C2442 1.398 . S
C2442 H2430 0.950 . S
C2442 C2441 1.398 . S
C2442 C2443 1.391 . S
C2443 H2431 0.950 . S
C2443 C2439 1.393 . S
C2443 C2442 1.391 . S
H2444 C2452 0.950 . S
H2445 C2457 0.950 . S
H2446 C2454 0.950 . S
H2447 C2456 0.950 . S
H2448 C2458 0.950 . S
H2449 C2460 0.950 . S
H2450 C2462 0.950 . S
H2451 C2463 0.950 . S
C2452 H2444 0.950 . S
C2452 C2453 1.386 . S
C2452 C2454 1.391 . S
C2453 C2452 1.386 . S
C2453 C2457 1.393 . S
C2454 H2446 0.950 . S
C2454 C2452 1.391 . S
C2454 C2455 1.400 . S
C2455 C2454 1.400 . S
C2455 C2456 1.398 . S
C2455 C2461 1.491 . S
C2456 H2447 0.950 . S
C2456 C2455 1.398 . S
C2456 C2457 1.391 . S
C2457 H2445 0.950 . S
C2457 C2453 1.393 . S
C2457 C2456 1.391 . S
C2458 H2448 0.950 . S
C2458 C2459 1.386 . S
C2458 C2460 1.391 . S
C2459 C2458 1.386 . S
C2459 C2463 1.393 . S
C2460 H2449 0.950 . S
C2460 C2458 1.391 . S
C2460 C2461 1.400 . S
C2461 C2455 1.491 . S
C2461 C2460 1.400 . S
C2461 C2462 1.398 . S
C2462 H2450 0.950 . S
C2462 C2461 1.398 . S
C2462 C2463 1.391 . S
C2463 H2451 0.950 . S
C2463 C2459 1.393 . S
C2463 C2462 1.391 . S
H2464 C2472 0.950 . S
H2465 C2477 0.950 . S
H2466 C2474 0.950 . S
H2467 C2476 0.950 . S
H2468 C2478 0.950 . S
H2469 C2480 0.950 . S
H2470 C2482 0.950 . S
H2471 C2483 0.950 . S
C2472 H2464 0.950 . S
C2472 C2473 1.386 . S
C2472 C2474 1.391 . S
C2473 C2472 1.386 . S
C2473 C2477 1.393 . S
C2474 H2466 0.950 . S
C2474 C2472 1.391 . S
C2474 C2475 1.400 . S
C2475 C2474 1.400 . S
C2475 C2476 1.398 . S
C2475 C2481 1.491 . S
C2476 H2467 0.950 . S
C2476 C2475 1.398 . S
C2476 C2477 1.391 . S
C2477 H2465 0.950 . S
C2477 C2473 1.393 . S
C2477 C2476 1.391 . S
C2478 H2468 0.950 . S
C2478 C2479 1.386 . S
C2478 C2480 1.391 . S
C2479 C2478 1.386 . S
C2479 C2483 1.393 . S
C2480 H2469 0.950 . S
C2480 C2478 1.391 . S
C2480 C2481 1.400 . S
C2481 C2475 1.491 . S
C2481 C2480 1.400 . S
C2481 C2482 1.398 . S
C2482 H2470 0.950 . S
C2482 C2481 1.398 . S
C2482 C2483 1.391 . S
C2483 H2471 0.950 . S
C2483 C2479 1.393 . S
C2483 C2482 1.391 . S
H2484 C2492 0.950 . S
H2485 C2497 0.950 . S
H2486 C2494 0.950 . S
H2487 C2496 0.950 . S
H2488 C2498 0.950 . S
H2489 C2500 0.950 . S
H2490 C2502 0.950 . S
H2491 C2503 0.950 . S
C2492 H2484 0.950 . S
C2492 C2493 1.386 . S
C2492 C2494 1.391 . S
C2493 C2492 1.386 . S
C2493 C2497 1.393 . S
C2494 H2486 0.950 . S
C2494 C2492 1.391 . S
C2494 C2495 1.400 . S
C2495 C2494 1.400 . S
C2495 C2496 1.398 . S
C2495 C2501 1.491 . S
C2496 H2487 0.950 . S
C2496 C2495 1.398 . S
C2496 C2497 1.391 . S
C2497 H2485 0.950 . S
C2497 C2493 1.393 . S
C2497 C2496 1.391 . S
C2498 H2488 0.950 . S
C2498 C2499 1.386 . S
C2498 C2500 1.391 . S
C2499 C2498 1.386 . S
C2499 C2503 1.393 . S
C2500 H2489 0.950 . S
C2500 C2498 1.391 . S
C2500 C2501 1.400 . S
C2501 C2495 1.491 . S
C2501 C2500 1.400 . S
C2501 C2502 1.398 . S
C2502 H2490 0.950 . S
C2502 C2501 1.398 . S
C2502 C2503 1.391 . S
C2503 H2491 0.950 . S
C2503 C2499 1.393 . S
C2503 C2502 1.391 . S
H2504 C2512 0.950 . S
H2505 C2517 0.950 1_554 S
H2506 C2514 0.950 . S
H2507 C2516 0.950 1_554 S
H2508 C2518 0.950 1_554 S
H2509 C2520 0.950 1_554 S
H2510 C2522 0.950 . S
H2511 C2523 0.950 . S
C2512 H2504 0.950 . S
C2512 C2513 1.386 . S
C2512 C2514 1.391 . S
C2513 C2512 1.386 . S
C2513 C2517 1.393 . S
C2514 H2506 0.950 . S
C2514 C2512 1.391 . S
C2514 C2515 1.400 . S
C2515 C2514 1.400 . S
C2515 C2516 1.398 . S
C2515 C2521 1.491 . S
C2516 H2507 0.950 1_556 S
C2516 C2515 1.398 . S
C2516 C2517 1.391 . S
C2517 H2505 0.950 1_556 S
C2517 C2513 1.393 . S
C2517 C2516 1.391 . S
C2518 H2508 0.950 1_556 S
C2518 C2519 1.386 . S
C2518 C2520 1.391 . S
C2519 C2518 1.386 . S
C2519 C2523 1.393 . S
C2520 H2509 0.950 1_556 S
C2520 C2518 1.391 . S
C2520 C2521 1.400 . S
C2521 C2515 1.491 . S
C2521 C2520 1.400 . S
C2521 C2522 1.398 . S
C2522 H2510 0.950 . S
C2522 C2521 1.398 . S
C2522 C2523 1.391 . S
C2523 H2511 0.950 . S
C2523 C2519 1.393 . S
C2523 C2522 1.391 . S
H2524 C2532 0.950 . S
H2525 C2537 0.950 1_455 S
H2526 C2534 0.950 . S
H2527 C2536 0.950 . S
H2528 C2538 0.950 . S
H2529 C2540 0.950 . S
H2530 C2542 0.950 . S
H2531 C2543 0.950 . S
C2532 H2524 0.950 . S
C2532 C2533 1.386 . S
C2532 C2534 1.391 . S
C2533 C2532 1.386 . S
C2533 C2537 1.393 . S
C2534 H2526 0.950 . S
C2534 C2532 1.391 . S
C2534 C2535 1.400 . S
C2535 C2534 1.400 . S
C2535 C2536 1.398 . S
C2535 C2541 1.491 . S
C2536 H2527 0.950 . S
C2536 C2535 1.398 . S
C2536 C2537 1.391 . S
C2537 H2525 0.950 1_655 S
C2537 C2533 1.393 . S
C2537 C2536 1.391 . S
C2538 H2528 0.950 . S
C2538 C2539 1.386 . S
C2538 C2540 1.391 . S
C2539 C2538 1.386 . S
C2539 C2543 1.393 . S
C2540 H2529 0.950 . S
C2540 C2538 1.391 . S
C2540 C2541 1.400 . S
C2541 C2535 1.491 . S
C2541 C2540 1.400 . S
C2541 C2542 1.398 . S
C2542 H2530 0.950 . S
C2542 C2541 1.398 . S
C2542 C2543 1.391 . S
C2543 H2531 0.950 . S
C2543 C2539 1.393 . S
C2543 C2542 1.391 . S
H2544 C2552 0.950 . S
H2545 C2557 0.950 . S
H2546 C2554 0.950 . S
H2547 C2556 0.950 . S
H2548 C2558 0.950 . S
H2549 C2560 0.950 . S
H2550 C2562 0.950 . S
H2551 C2563 0.950 . S
C2552 H2544 0.950 . S
C2552 C2553 1.386 . S
C2552 C2554 1.391 . S
C2553 C2552 1.386 . S
C2553 C2557 1.393 . S
C2554 H2546 0.950 . S
C2554 C2552 1.391 . S
C2554 C2555 1.400 . S
C2555 C2554 1.400 . S
C2555 C2556 1.398 . S
C2555 C2561 1.491 . S
C2556 H2547 0.950 . S
C2556 C2555 1.398 . S
C2556 C2557 1.391 . S
C2557 H2545 0.950 . S
C2557 C2553 1.393 . S
C2557 C2556 1.391 . S
C2558 H2548 0.950 . S
C2558 C2559 1.386 . S
C2558 C2560 1.391 . S
C2559 C2558 1.386 . S
C2559 C2563 1.393 . S
C2560 H2549 0.950 . S
C2560 C2558 1.391 . S
C2560 C2561 1.400 . S
C2561 C2555 1.491 . S
C2561 C2560 1.400 . S
C2561 C2562 1.398 . S
C2562 H2550 0.950 . S
C2562 C2561 1.398 . S
C2562 C2563 1.391 . S
C2563 H2551 0.950 . S
C2563 C2559 1.393 . S
C2563 C2562 1.391 . S
H2564 C2572 0.950 . S
H2565 C2577 0.950 . S
H2566 C2574 0.950 . S
H2567 C2576 0.950 . S
H2568 C2578 0.950 . S
H2569 C2580 0.950 . S
H2570 C2582 0.950 . S
H2571 C2583 0.950 . S
C2572 H2564 0.950 . S
C2572 C2573 1.386 . S
C2572 C2574 1.391 . S
C2573 C2572 1.386 . S
C2573 C2577 1.393 . S
C2574 H2566 0.950 . S
C2574 C2572 1.391 . S
C2574 C2575 1.400 . S
C2575 C2574 1.400 . S
C2575 C2576 1.398 . S
C2575 C2581 1.491 . S
C2576 H2567 0.950 . S
C2576 C2575 1.398 . S
C2576 C2577 1.391 . S
C2577 H2565 0.950 . S
C2577 C2573 1.393 . S
C2577 C2576 1.391 . S
C2578 H2568 0.950 . S
C2578 C2579 1.386 . S
C2578 C2580 1.391 . S
C2579 C2578 1.386 . S
C2579 C2583 1.393 . S
C2580 H2569 0.950 . S
C2580 C2578 1.391 . S
C2580 C2581 1.400 . S
C2581 C2575 1.491 . S
C2581 C2580 1.400 . S
C2581 C2582 1.398 . S
C2582 H2570 0.950 . S
C2582 C2581 1.398 . S
C2582 C2583 1.391 . S
C2583 H2571 0.950 . S
C2583 C2579 1.393 . S
C2583 C2582 1.391 . S
H2584 C2592 0.950 . S
H2585 C2597 0.950 . S
H2586 C2594 0.950 . S
H2587 C2596 0.950 . S
H2588 C2598 0.950 . S
H2589 C2600 0.950 . S
H2590 C2602 0.950 . S
H2591 C2603 0.950 . S
C2592 H2584 0.950 . S
C2592 C2593 1.386 . S
C2592 C2594 1.391 . S
C2593 C2592 1.386 . S
C2593 C2597 1.393 . S
C2594 H2586 0.950 . S
C2594 C2592 1.391 . S
C2594 C2595 1.400 . S
C2595 C2594 1.400 . S
C2595 C2596 1.398 . S
C2595 C2601 1.491 . S
C2596 H2587 0.950 . S
C2596 C2595 1.398 . S
C2596 C2597 1.391 . S
C2597 H2585 0.950 . S
C2597 C2593 1.393 . S
C2597 C2596 1.391 . S
C2598 H2588 0.950 . S
C2598 C2599 1.386 . S
C2598 C2600 1.391 . S
C2599 C2598 1.386 . S
C2599 C2603 1.393 . S
C2600 H2589 0.950 . S
C2600 C2598 1.391 . S
C2600 C2601 1.400 . S
C2601 C2595 1.491 . S
C2601 C2600 1.400 . S
C2601 C2602 1.398 . S
C2602 H2590 0.950 . S
C2602 C2601 1.398 . S
C2602 C2603 1.391 . S
C2603 H2591 0.950 . S
C2603 C2599 1.393 . S
C2603 C2602 1.391 . S
H2604 C2612 0.950 . S
H2605 C2617 0.950 . S
H2606 C2614 0.950 . S
H2607 C2616 0.950 . S
H2608 C2618 0.950 . S
H2609 C2620 0.950 . S
H2610 C2622 0.950 . S
H2611 C2623 0.950 . S
C2612 H2604 0.950 . S
C2612 C2613 1.386 . S
C2612 C2614 1.391 . S
C2613 C2612 1.386 . S
C2613 C2617 1.393 . S
C2614 H2606 0.950 . S
C2614 C2612 1.391 . S
C2614 C2615 1.400 . S
C2615 C2614 1.400 . S
C2615 C2616 1.398 . S
C2615 C2621 1.491 . S
C2616 H2607 0.950 . S
C2616 C2615 1.398 . S
C2616 C2617 1.391 . S
C2617 H2605 0.950 . S
C2617 C2613 1.393 . S
C2617 C2616 1.391 . S
C2618 H2608 0.950 . S
C2618 C2619 1.386 . S
C2618 C2620 1.391 . S
C2619 C2618 1.386 . S
C2619 C2623 1.393 . S
C2620 H2609 0.950 . S
C2620 C2618 1.391 . S
C2620 C2621 1.400 . S
C2621 C2615 1.491 . S
C2621 C2620 1.400 . S
C2621 C2622 1.398 . S
C2622 H2610 0.950 . S
C2622 C2621 1.398 . S
C2622 C2623 1.391 . S
C2623 H2611 0.950 . S
C2623 C2619 1.393 . S
C2623 C2622 1.391 . S
H2624 C2632 0.950 . S
H2625 C2637 0.950 . S
H2626 C2634 0.950 . S
H2627 C2636 0.950 . S
H2628 C2638 0.950 . S
H2629 C2640 0.950 . S
H2630 C2642 0.950 . S
H2631 C2643 0.950 . S
C2632 H2624 0.950 . S
C2632 C2633 1.386 . S
C2632 C2634 1.391 . S
C2633 C2632 1.386 . S
C2633 C2637 1.393 . S
C2634 H2626 0.950 . S
C2634 C2632 1.391 . S
C2634 C2635 1.400 . S
C2635 C2634 1.400 . S
C2635 C2636 1.398 . S
C2635 C2641 1.491 . S
C2636 H2627 0.950 . S
C2636 C2635 1.398 . S
C2636 C2637 1.391 . S
C2637 H2625 0.950 . S
C2637 C2633 1.393 . S
C2637 C2636 1.391 . S
C2638 H2628 0.950 . S
C2638 C2639 1.386 . S
C2638 C2640 1.391 . S
C2639 C2638 1.386 . S
C2639 C2643 1.393 . S
C2640 H2629 0.950 . S
C2640 C2638 1.391 . S
C2640 C2641 1.400 . S
C2641 C2635 1.491 . S
C2641 C2640 1.400 . S
C2641 C2642 1.398 . S
C2642 H2630 0.950 . S
C2642 C2641 1.398 . S
C2642 C2643 1.391 . S
C2643 H2631 0.950 . S
C2643 C2639 1.393 . S
C2643 C2642 1.391 . S
H2644 C2652 0.950 . S
H2645 C2657 0.950 . S
H2646 C2654 0.950 . S
H2647 C2656 0.950 . S
H2648 C2658 0.950 . S
H2649 C2660 0.950 . S
H2650 C2662 0.950 . S
H2651 C2663 0.950 . S
C2652 H2644 0.950 . S
C2652 C2653 1.386 . S
C2652 C2654 1.391 . S
C2653 C2652 1.386 . S
C2653 C2657 1.393 . S
C2654 H2646 0.950 . S
C2654 C2652 1.391 . S
C2654 C2655 1.400 . S
C2655 C2654 1.400 . S
C2655 C2656 1.398 . S
C2655 C2661 1.491 . S
C2656 H2647 0.950 . S
C2656 C2655 1.398 . S
C2656 C2657 1.391 . S
C2657 H2645 0.950 . S
C2657 C2653 1.393 . S
C2657 C2656 1.391 . S
C2658 H2648 0.950 . S
C2658 C2659 1.386 . S
C2658 C2660 1.391 . S
C2659 C2658 1.386 . S
C2659 C2663 1.393 . S
C2660 H2649 0.950 . S
C2660 C2658 1.391 . S
C2660 C2661 1.400 . S
C2661 C2655 1.491 . S
C2661 C2660 1.400 . S
C2661 C2662 1.398 . S
C2662 H2650 0.950 . S
C2662 C2661 1.398 . S
C2662 C2663 1.391 . S
C2663 H2651 0.950 . S
C2663 C2659 1.393 . S
C2663 C2662 1.391 . S
H2664 C2672 0.950 . S
H2665 C2677 0.950 . S
H2666 C2674 0.950 . S
H2667 C2676 0.950 . S
H2668 C2678 0.950 . S
H2669 C2680 0.950 . S
H2670 C2682 0.950 . S
H2671 C2683 0.950 . S
C2672 H2664 0.950 . S
C2672 C2673 1.386 . S
C2672 C2674 1.391 . S
C2673 C2672 1.386 . S
C2673 C2677 1.393 . S
C2674 H2666 0.950 . S
C2674 C2672 1.391 . S
C2674 C2675 1.400 . S
C2675 C2674 1.400 . S
C2675 C2676 1.398 . S
C2675 C2681 1.491 . S
C2676 H2667 0.950 . S
C2676 C2675 1.398 . S
C2676 C2677 1.391 . S
C2677 H2665 0.950 . S
C2677 C2673 1.393 . S
C2677 C2676 1.391 . S
C2678 H2668 0.950 . S
C2678 C2679 1.386 . S
C2678 C2680 1.391 . S
C2679 C2678 1.386 . S
C2679 C2683 1.393 . S
C2680 H2669 0.950 . S
C2680 C2678 1.391 . S
C2680 C2681 1.400 . S
C2681 C2675 1.491 . S
C2681 C2680 1.400 . S
C2681 C2682 1.398 . S
C2682 H2670 0.950 . S
C2682 C2681 1.398 . S
C2682 C2683 1.391 . S
C2683 H2671 0.950 . S
C2683 C2679 1.393 . S
C2683 C2682 1.391 . S
H2684 C2692 0.950 . S
H2685 C2697 0.950 . S
H2686 C2694 0.950 . S
H2687 C2696 0.950 . S
H2688 C2698 0.950 . S
H2689 C2700 0.950 . S
H2690 C2702 0.950 . S
H2691 C2703 0.950 . S
C2692 H2684 0.950 . S
C2692 C2693 1.386 . S
C2692 C2694 1.391 . S
C2693 C2692 1.386 . S
C2693 C2697 1.393 . S
C2694 H2686 0.950 . S
C2694 C2692 1.391 . S
C2694 C2695 1.400 . S
C2695 C2694 1.400 . S
C2695 C2696 1.398 . S
C2695 C2701 1.491 . S
C2696 H2687 0.950 . S
C2696 C2695 1.398 . S
C2696 C2697 1.391 . S
C2697 H2685 0.950 . S
C2697 C2693 1.393 . S
C2697 C2696 1.391 . S
C2698 H2688 0.950 . S
C2698 C2699 1.386 . S
C2698 C2700 1.391 . S
C2699 C2698 1.386 . S
C2699 C2703 1.393 . S
C2700 H2689 0.950 . S
C2700 C2698 1.391 . S
C2700 C2701 1.400 . S
C2701 C2695 1.491 . S
C2701 C2700 1.400 . S
C2701 C2702 1.398 . S
C2702 H2690 0.950 . S
C2702 C2701 1.398 . S
C2702 C2703 1.391 . S
C2703 H2691 0.950 . S
C2703 C2699 1.393 . S
C2703 C2702 1.391 . S
H2704 C2712 0.950 . S
H2705 C2717 0.950 . S
H2706 C2714 0.950 . S
H2707 C2716 0.950 . S
H2708 C2718 0.950 . S
H2709 C2720 0.950 . S
H2710 C2722 0.950 . S
H2711 C2723 0.950 . S
C2712 H2704 0.950 . S
C2712 C2713 1.386 . S
C2712 C2714 1.391 . S
C2713 C2712 1.386 . S
C2713 C2717 1.393 . S
C2714 H2706 0.950 . S
C2714 C2712 1.391 . S
C2714 C2715 1.400 . S
C2715 C2714 1.400 . S
C2715 C2716 1.398 . S
C2715 C2721 1.491 . S
C2716 H2707 0.950 . S
C2716 C2715 1.398 . S
C2716 C2717 1.391 . S
C2717 H2705 0.950 . S
C2717 C2713 1.393 . S
C2717 C2716 1.391 . S
C2718 H2708 0.950 . S
C2718 C2719 1.386 . S
C2718 C2720 1.391 . S
C2719 C2718 1.386 . S
C2719 C2723 1.393 . S
C2720 H2709 0.950 . S
C2720 C2718 1.391 . S
C2720 C2721 1.400 . S
C2721 C2715 1.491 . S
C2721 C2720 1.400 . S
C2721 C2722 1.398 . S
C2722 H2710 0.950 . S
C2722 C2721 1.398 . S
C2722 C2723 1.391 . S
C2723 H2711 0.950 . S
C2723 C2719 1.393 . S
C2723 C2722 1.391 . S
H2724 C2732 0.950 . S
H2725 C2737 0.950 . S
H2726 C2734 0.950 . S
H2727 C2736 0.950 . S
H2728 C2738 0.950 . S
H2729 C2740 0.950 . S
H2730 C2742 0.950 . S
H2731 C2743 0.950 . S
C2732 H2724 0.950 . S
C2732 C2733 1.386 . S
C2732 C2734 1.391 . S
C2733 C2732 1.386 . S
C2733 C2737 1.393 . S
C2734 H2726 0.950 . S
C2734 C2732 1.391 . S
C2734 C2735 1.400 . S
C2735 C2734 1.400 . S
C2735 C2736 1.398 . S
C2735 C2741 1.491 . S
C2736 H2727 0.950 . S
C2736 C2735 1.398 . S
C2736 C2737 1.391 . S
C2737 H2725 0.950 . S
C2737 C2733 1.393 . S
C2737 C2736 1.391 . S
C2738 H2728 0.950 . S
C2738 C2739 1.386 . S
C2738 C2740 1.391 . S
C2739 C2738 1.386 . S
C2739 C2743 1.393 . S
C2740 H2729 0.950 . S
C2740 C2738 1.391 . S
C2740 C2741 1.400 . S
C2741 C2735 1.491 . S
C2741 C2740 1.400 . S
C2741 C2742 1.398 . S
C2742 H2730 0.950 . S
C2742 C2741 1.398 . S
C2742 C2743 1.391 . S
C2743 H2731 0.950 . S
C2743 C2739 1.393 . S
C2743 C2742 1.391 . S
H2744 C2752 0.950 . S
H2745 C2757 0.950 . S
H2746 C2754 0.950 . S
H2747 C2756 0.950 . S
H2748 C2758 0.950 . S
H2749 C2760 0.950 . S
H2750 C2762 0.950 . S
H2751 C2763 0.950 . S
C2752 H2744 0.950 . S
C2752 C2753 1.386 . S
C2752 C2754 1.391 . S
C2753 C2752 1.386 . S
C2753 C2757 1.393 . S
C2754 H2746 0.950 . S
C2754 C2752 1.391 . S
C2754 C2755 1.400 . S
C2755 C2754 1.400 . S
C2755 C2756 1.398 . S
C2755 C2761 1.491 . S
C2756 H2747 0.950 . S
C2756 C2755 1.398 . S
C2756 C2757 1.391 . S
C2757 H2745 0.950 . S
C2757 C2753 1.393 . S
C2757 C2756 1.391 . S
C2758 H2748 0.950 . S
C2758 C2759 1.386 . S
C2758 C2760 1.391 . S
C2759 C2758 1.386 . S
C2759 C2763 1.393 . S
C2760 H2749 0.950 . S
C2760 C2758 1.391 . S
C2760 C2761 1.400 . S
C2761 C2755 1.491 . S
C2761 C2760 1.400 . S
C2761 C2762 1.398 . S
C2762 H2750 0.950 . S
C2762 C2761 1.398 . S
C2762 C2763 1.391 . S
C2763 H2751 0.950 . S
C2763 C2759 1.393 . S
C2763 C2762 1.391 . S
H2764 C2772 0.950 . S
H2765 C2777 0.950 . S
H2766 C2774 0.950 . S
H2767 C2776 0.950 . S
H2768 C2778 0.950 . S
H2769 C2780 0.950 . S
H2770 C2782 0.950 . S
H2771 C2783 0.950 . S
C2772 H2764 0.950 . S
C2772 C2773 1.386 . S
C2772 C2774 1.391 . S
C2773 C2772 1.386 . S
C2773 C2777 1.393 . S
C2774 H2766 0.950 . S
C2774 C2772 1.391 . S
C2774 C2775 1.400 . S
C2775 C2774 1.400 . S
C2775 C2776 1.398 . S
C2775 C2781 1.491 . S
C2776 H2767 0.950 . S
C2776 C2775 1.398 . S
C2776 C2777 1.391 . S
C2777 H2765 0.950 . S
C2777 C2773 1.393 . S
C2777 C2776 1.391 . S
C2778 H2768 0.950 . S
C2778 C2779 1.386 . S
C2778 C2780 1.391 . S
C2779 C2778 1.386 . S
C2779 C2783 1.393 . S
C2780 H2769 0.950 . S
C2780 C2778 1.391 . S
C2780 C2781 1.400 . S
C2781 C2775 1.491 . S
C2781 C2780 1.400 . S
C2781 C2782 1.398 . S
C2782 H2770 0.950 . S
C2782 C2781 1.398 . S
C2782 C2783 1.391 . S
C2783 H2771 0.950 . S
C2783 C2779 1.393 . S
C2783 C2782 1.391 . S
H2784 C2792 0.950 . S
H2785 C2797 0.950 . S
H2786 C2794 0.950 . S
H2787 C2796 0.950 . S
H2788 C2798 0.950 . S
H2789 C2800 0.950 . S
H2790 C2802 0.950 . S
H2791 C2803 0.950 . S
C2792 H2784 0.950 . S
C2792 C2793 1.386 . S
C2792 C2794 1.391 . S
C2793 C2792 1.386 . S
C2793 C2797 1.393 . S
C2794 H2786 0.950 . S
C2794 C2792 1.391 . S
C2794 C2795 1.400 . S
C2795 C2794 1.400 . S
C2795 C2796 1.398 . S
C2795 C2801 1.491 . S
C2796 H2787 0.950 . S
C2796 C2795 1.398 . S
C2796 C2797 1.391 . S
C2797 H2785 0.950 . S
C2797 C2793 1.393 . S
C2797 C2796 1.391 . S
C2798 H2788 0.950 . S
C2798 C2799 1.386 . S
C2798 C2800 1.391 . S
C2799 C2798 1.386 . S
C2799 C2803 1.393 . S
C2800 H2789 0.950 . S
C2800 C2798 1.391 . S
C2800 C2801 1.400 . S
C2801 C2795 1.491 . S
C2801 C2800 1.400 . S
C2801 C2802 1.398 . S
C2802 H2790 0.950 . S
C2802 C2801 1.398 . S
C2802 C2803 1.391 . S
C2803 H2791 0.950 . S
C2803 C2799 1.393 . S
C2803 C2802 1.391 . S
H2804 C2812 0.950 . S
H2805 C2817 0.950 . S
H2806 C2814 0.950 . S
H2807 C2816 0.950 . S
H2808 C2818 0.950 . S
H2809 C2820 0.950 . S
H2810 C2822 0.950 . S
H2811 C2823 0.950 . S
C2812 H2804 0.950 . S
C2812 C2813 1.386 . S
C2812 C2814 1.391 . S
C2813 C2812 1.386 . S
C2813 C2817 1.393 . S
C2814 H2806 0.950 . S
C2814 C2812 1.391 . S
C2814 C2815 1.400 . S
C2815 C2814 1.400 . S
C2815 C2816 1.398 . S
C2815 C2821 1.491 . S
C2816 H2807 0.950 . S
C2816 C2815 1.398 . S
C2816 C2817 1.391 . S
C2817 H2805 0.950 . S
C2817 C2813 1.393 . S
C2817 C2816 1.391 . S
C2818 H2808 0.950 . S
C2818 C2819 1.386 . S
C2818 C2820 1.391 . S
C2819 C2818 1.386 . S
C2819 C2823 1.393 . S
C2820 H2809 0.950 . S
C2820 C2818 1.391 . S
C2820 C2821 1.400 . S
C2821 C2815 1.491 . S
C2821 C2820 1.400 . S
C2821 C2822 1.398 . S
C2822 H2810 0.950 . S
C2822 C2821 1.398 . S
C2822 C2823 1.391 . S
C2823 H2811 0.950 . S
C2823 C2819 1.393 . S
C2823 C2822 1.391 . S
H2824 C2832 0.950 . S
H2825 C2837 0.950 . S
H2826 C2834 0.950 . S
H2827 C2836 0.950 . S
H2828 C2838 0.950 . S
H2829 C2840 0.950 . S
H2830 C2842 0.950 . S
H2831 C2843 0.950 . S
C2832 H2824 0.950 . S
C2832 C2833 1.386 . S
C2832 C2834 1.391 . S
C2833 C2832 1.386 . S
C2833 C2837 1.393 . S
C2834 H2826 0.950 . S
C2834 C2832 1.391 . S
C2834 C2835 1.400 . S
C2835 C2834 1.400 . S
C2835 C2836 1.398 . S
C2835 C2841 1.491 . S
C2836 H2827 0.950 . S
C2836 C2835 1.398 . S
C2836 C2837 1.391 . S
C2837 H2825 0.950 . S
C2837 C2833 1.393 . S
C2837 C2836 1.391 . S
C2838 H2828 0.950 . S
C2838 C2839 1.386 . S
C2838 C2840 1.391 . S
C2839 C2838 1.386 . S
C2839 C2843 1.393 . S
C2840 H2829 0.950 . S
C2840 C2838 1.391 . S
C2840 C2841 1.400 . S
C2841 C2835 1.491 . S
C2841 C2840 1.400 . S
C2841 C2842 1.398 . S
C2842 H2830 0.950 . S
C2842 C2841 1.398 . S
C2842 C2843 1.391 . S
C2843 H2831 0.950 . S
C2843 C2839 1.393 . S
C2843 C2842 1.391 . S
H2844 C2852 0.950 . S
H2845 C2857 0.950 . S
H2846 C2854 0.950 . S
H2847 C2856 0.950 . S
H2848 C2858 0.950 . S
H2849 C2860 0.950 . S
H2850 C2862 0.950 . S
H2851 C2863 0.950 . S
C2852 H2844 0.950 . S
C2852 C2853 1.386 . S
C2852 C2854 1.391 . S
C2853 C2852 1.386 . S
C2853 C2857 1.393 . S
C2854 H2846 0.950 . S
C2854 C2852 1.391 . S
C2854 C2855 1.400 . S
C2855 C2854 1.400 . S
C2855 C2856 1.398 . S
C2855 C2861 1.491 . S
C2856 H2847 0.950 . S
C2856 C2855 1.398 . S
C2856 C2857 1.391 . S
C2857 H2845 0.950 . S
C2857 C2853 1.393 . S
C2857 C2856 1.391 . S
C2858 H2848 0.950 . S
C2858 C2859 1.386 . S
C2858 C2860 1.391 . S
C2859 C2858 1.386 . S
C2859 C2863 1.393 . S
C2860 H2849 0.950 . S
C2860 C2858 1.391 . S
C2860 C2861 1.400 . S
C2861 C2855 1.491 . S
C2861 C2860 1.400 . S
C2861 C2862 1.398 . S
C2862 H2850 0.950 . S
C2862 C2861 1.398 . S
C2862 C2863 1.391 . S
C2863 H2851 0.950 . S
C2863 C2859 1.393 . S
C2863 C2862 1.391 . S
H2864 C2872 0.950 . S
H2865 C2877 0.950 . S
H2866 C2874 0.950 . S
H2867 C2876 0.950 . S
H2868 C2878 0.950 . S
H2869 C2880 0.950 . S
H2870 C2882 0.950 . S
H2871 C2883 0.950 . S
C2872 H2864 0.950 . S
C2872 C2873 1.386 . S
C2872 C2874 1.391 . S
C2873 C2872 1.386 . S
C2873 C2877 1.393 . S
C2874 H2866 0.950 . S
C2874 C2872 1.391 . S
C2874 C2875 1.400 . S
C2875 C2874 1.400 . S
C2875 C2876 1.398 . S
C2875 C2881 1.491 . S
C2876 H2867 0.950 . S
C2876 C2875 1.398 . S
C2876 C2877 1.391 . S
C2877 H2865 0.950 . S
C2877 C2873 1.393 . S
C2877 C2876 1.391 . S
C2878 H2868 0.950 . S
C2878 C2879 1.386 . S
C2878 C2880 1.391 . S
C2879 C2878 1.386 . S
C2879 C2883 1.393 . S
C2880 H2869 0.950 . S
C2880 C2878 1.391 . S
C2880 C2881 1.400 . S
C2881 C2875 1.491 . S
C2881 C2880 1.400 . S
C2881 C2882 1.398 . S
C2882 H2870 0.950 . S
C2882 C2881 1.398 . S
C2882 C2883 1.391 . S
C2883 H2871 0.950 . S
C2883 C2879 1.393 . S
C2883 C2882 1.391 . S
H2884 C2892 0.950 . S
H2885 C2897 0.950 . S
H2886 C2894 0.950 . S
H2887 C2896 0.950 . S
H2888 C2898 0.950 . S
H2889 C2900 0.950 . S
H2890 C2902 0.950 . S
H2891 C2903 0.950 . S
C2892 H2884 0.950 . S
C2892 C2893 1.386 . S
C2892 C2894 1.391 . S
C2893 C2892 1.386 . S
C2893 C2897 1.393 . S
C2894 H2886 0.950 . S
C2894 C2892 1.391 . S
C2894 C2895 1.400 . S
C2895 C2894 1.400 . S
C2895 C2896 1.398 . S
C2895 C2901 1.491 . S
C2896 H2887 0.950 . S
C2896 C2895 1.398 . S
C2896 C2897 1.391 . S
C2897 H2885 0.950 . S
C2897 C2893 1.393 . S
C2897 C2896 1.391 . S
C2898 H2888 0.950 . S
C2898 C2899 1.386 . S
C2898 C2900 1.391 . S
C2899 C2898 1.386 . S
C2899 C2903 1.393 . S
C2900 H2889 0.950 . S
C2900 C2898 1.391 . S
C2900 C2901 1.400 . S
C2901 C2895 1.491 . S
C2901 C2900 1.400 . S
C2901 C2902 1.398 . S
C2902 H2890 0.950 . S
C2902 C2901 1.398 . S
C2902 C2903 1.391 . S
C2903 H2891 0.950 . S
C2903 C2899 1.393 . S
C2903 C2902 1.391 . S
H2904 C2912 0.950 . S
H2905 C2917 0.950 . S
H2906 C2914 0.950 . S
H2907 C2916 0.950 . S
H2908 C2918 0.950 . S
H2909 C2920 0.950 . S
H2910 C2922 0.950 . S
H2911 C2923 0.950 . S
C2912 H2904 0.950 . S
C2912 C2913 1.386 . S
C2912 C2914 1.391 . S
C2913 C2912 1.386 . S
C2913 C2917 1.393 . S
C2914 H2906 0.950 . S
C2914 C2912 1.391 . S
C2914 C2915 1.400 . S
C2915 C2914 1.400 . S
C2915 C2916 1.398 . S
C2915 C2921 1.491 . S
C2916 H2907 0.950 . S
C2916 C2915 1.398 . S
C2916 C2917 1.391 . S
C2917 H2905 0.950 . S
C2917 C2913 1.393 . S
C2917 C2916 1.391 . S
C2918 H2908 0.950 . S
C2918 C2919 1.386 . S
C2918 C2920 1.391 . S
C2919 C2918 1.386 . S
C2919 C2923 1.393 . S
C2920 H2909 0.950 . S
C2920 C2918 1.391 . S
C2920 C2921 1.400 . S
C2921 C2915 1.491 . S
C2921 C2920 1.400 . S
C2921 C2922 1.398 . S
C2922 H2910 0.950 . S
C2922 C2921 1.398 . S
C2922 C2923 1.391 . S
C2923 H2911 0.950 . S
C2923 C2919 1.393 . S
C2923 C2922 1.391 . S
H2924 C2932 0.950 . S
H2925 C2937 0.950 . S
H2926 C2934 0.950 . S
H2927 C2936 0.950 . S
H2928 C2938 0.950 . S
H2929 C2940 0.950 . S
H2930 C2942 0.950 . S
H2931 C2943 0.950 . S
C2932 H2924 0.950 . S
C2932 C2933 1.386 . S
C2932 C2934 1.391 . S
C2933 C2932 1.386 . S
C2933 C2937 1.393 . S
C2934 H2926 0.950 . S
C2934 C2932 1.391 . S
C2934 C2935 1.400 . S
C2935 C2934 1.400 . S
C2935 C2936 1.398 . S
C2935 C2941 1.491 . S
C2936 H2927 0.950 . S
C2936 C2935 1.398 . S
C2936 C2937 1.391 . S
C2937 H2925 0.950 . S
C2937 C2933 1.393 . S
C2937 C2936 1.391 . S
C2938 H2928 0.950 . S
C2938 C2939 1.386 . S
C2938 C2940 1.391 . S
C2939 C2938 1.386 . S
C2939 C2943 1.393 . S
C2940 H2929 0.950 . S
C2940 C2938 1.391 . S
C2940 C2941 1.400 . S
C2941 C2935 1.491 . S
C2941 C2940 1.400 . S
C2941 C2942 1.398 . S
C2942 H2930 0.950 . S
C2942 C2941 1.398 . S
C2942 C2943 1.391 . S
C2943 H2931 0.950 . S
C2943 C2939 1.393 . S
C2943 C2942 1.391 . S
H2944 C2952 0.950 . S
H2945 C2957 0.950 . S
H2946 C2954 0.950 . S
H2947 C2956 0.950 . S
H2948 C2958 0.950 . S
H2949 C2960 0.950 . S
H2950 C2962 0.950 . S
H2951 C2963 0.950 . S
C2952 H2944 0.950 . S
C2952 C2953 1.386 . S
C2952 C2954 1.391 . S
C2953 C2952 1.386 . S
C2953 C2957 1.393 . S
C2954 H2946 0.950 . S
C2954 C2952 1.391 . S
C2954 C2955 1.400 . S
C2955 C2954 1.400 . S
C2955 C2956 1.398 . S
C2955 C2961 1.491 . S
C2956 H2947 0.950 . S
C2956 C2955 1.398 . S
C2956 C2957 1.391 . S
C2957 H2945 0.950 . S
C2957 C2953 1.393 . S
C2957 C2956 1.391 . S
C2958 H2948 0.950 . S
C2958 C2959 1.386 . S
C2958 C2960 1.391 . S
C2959 C2958 1.386 . S
C2959 C2963 1.393 . S
C2960 H2949 0.950 . S
C2960 C2958 1.391 . S
C2960 C2961 1.400 . S
C2961 C2955 1.491 . S
C2961 C2960 1.400 . S
C2961 C2962 1.398 . S
C2962 H2950 0.950 . S
C2962 C2961 1.398 . S
C2962 C2963 1.391 . S
C2963 H2951 0.950 . S
C2963 C2959 1.393 . S
C2963 C2962 1.391 . S
H2964 C2972 0.950 . S
H2965 C2977 0.950 . S
H2966 C2974 0.950 . S
H2967 C2976 0.950 . S
H2968 C2978 0.950 . S
H2969 C2980 0.950 . S
H2970 C2982 0.950 . S
H2971 C2983 0.950 . S
C2972 H2964 0.950 . S
C2972 C2973 1.386 . S
C2972 C2974 1.391 . S
C2973 C2972 1.386 . S
C2973 C2977 1.393 . S
C2974 H2966 0.950 . S
C2974 C2972 1.391 . S
C2974 C2975 1.400 . S
C2975 C2974 1.400 . S
C2975 C2976 1.398 . S
C2975 C2981 1.491 . S
C2976 H2967 0.950 . S
C2976 C2975 1.398 . S
C2976 C2977 1.391 . S
C2977 H2965 0.950 . S
C2977 C2973 1.393 . S
C2977 C2976 1.391 . S
C2978 H2968 0.950 . S
C2978 C2979 1.386 . S
C2978 C2980 1.391 . S
C2979 C2978 1.386 . S
C2979 C2983 1.393 . S
C2980 H2969 0.950 . S
C2980 C2978 1.391 . S
C2980 C2981 1.400 . S
C2981 C2975 1.491 . S
C2981 C2980 1.400 . S
C2981 C2982 1.398 . S
C2982 H2970 0.950 . S
C2982 C2981 1.398 . S
C2982 C2983 1.391 . S
C2983 H2971 0.950 . S
C2983 C2979 1.393 . S
C2983 C2982 1.391 . S
H2984 C2992 0.950 . S
H2985 C2997 0.950 . S
H2986 C2994 0.950 . S
H2987 C2996 0.950 . S
H2988 C2998 0.950 . S
H2989 C3000 0.950 . S
H2990 C3002 0.950 . S
H2991 C3003 0.950 . S
C2992 H2984 0.950 . S
C2992 C2993 1.386 . S
C2992 C2994 1.391 . S
C2993 C2992 1.386 . S
C2993 C2997 1.393 . S
C2994 H2986 0.950 . S
C2994 C2992 1.391 . S
C2994 C2995 1.400 . S
C2995 C2994 1.400 . S
C2995 C2996 1.398 . S
C2995 C3001 1.491 . S
C2996 H2987 0.950 . S
C2996 C2995 1.398 . S
C2996 C2997 1.391 . S
C2997 H2985 0.950 . S
C2997 C2993 1.393 . S
C2997 C2996 1.391 . S
C2998 H2988 0.950 . S
C2998 C2999 1.386 . S
C2998 C3000 1.391 . S
C2999 C2998 1.386 . S
C2999 C3003 1.393 . S
C3000 H2989 0.950 . S
C3000 C2998 1.391 . S
C3000 C3001 1.400 . S
C3001 C2995 1.491 . S
C3001 C3000 1.400 . S
C3001 C3002 1.398 . S
C3002 H2990 0.950 . S
C3002 C3001 1.398 . S
C3002 C3003 1.391 . S
C3003 H2991 0.950 . S
C3003 C2999 1.393 . S
C3003 C3002 1.391 . S
H3004 C3012 0.950 . S
H3005 C3017 0.950 . S
H3006 C3014 0.950 . S
H3007 C3016 0.950 . S
H3008 C3018 0.950 . S
H3009 C3020 0.950 . S
H3010 C3022 0.950 . S
H3011 C3023 0.950 . S
C3012 H3004 0.950 . S
C3012 C3013 1.386 . S
C3012 C3014 1.391 . S
C3013 C3012 1.386 . S
C3013 C3017 1.393 . S
C3014 H3006 0.950 . S
C3014 C3012 1.391 . S
C3014 C3015 1.400 . S
C3015 C3014 1.400 . S
C3015 C3016 1.398 . S
C3015 C3021 1.491 . S
C3016 H3007 0.950 . S
C3016 C3015 1.398 . S
C3016 C3017 1.391 . S
C3017 H3005 0.950 . S
C3017 C3013 1.393 . S
C3017 C3016 1.391 . S
C3018 H3008 0.950 . S
C3018 C3019 1.386 . S
C3018 C3020 1.391 . S
C3019 C3018 1.386 . S
C3019 C3023 1.393 . S
C3020 H3009 0.950 . S
C3020 C3018 1.391 . S
C3020 C3021 1.400 . S
C3021 C3015 1.491 . S
C3021 C3020 1.400 . S
C3021 C3022 1.398 . S
C3022 H3010 0.950 . S
C3022 C3021 1.398 . S
C3022 C3023 1.391 . S
C3023 H3011 0.950 . S
C3023 C3019 1.393 . S
C3023 C3022 1.391 . S
C1113 N140 1.584 . S
C1119 N2 1.592 . S
C1133 C30 1.812 . S
C1139 C168 1.812 . S
C1153 N48 1.576 . S
C1159 N94 1.603 . S
C1173 C122 1.814 . S
C1179 C76 1.812 . S
C1193 C789 1.773 . S
C1199 C191 1.760 . S
C1213 N807 1.579 . S
C1219 N209 1.607 . S
C1233 C237 1.759 . S
C1239 C743 1.772 . S
C1253 N255 1.589 . S
C1259 N761 1.601 . S
C1273 C881 1.758 . S
C1279 C283 1.775 . S
C1293 N899 1.601 . S
C1299 N301 1.578 . S
C1313 C835 1.757 . S
C1319 C329 1.775 . S
C1333 N853 1.602 . S
C1339 N347 1.588 . S
C1353 C375 1.812 . S
C1359 C950 1.812 . S
C1373 C398 1.815 . S
C1379 C927 1.811 . S
C1393 C421 1.763 . S
C1399 C536 1.768 . S
C1413 C1042 1.815 . S
C1419 C444 1.812 . S
C1433 C1065 1.759 . S
C1439 C467 1.772 . S
C1453 C996 1.815 . S
C1459 C490 1.810 . S
C1473 C1019 1.759 . S
C1479 C513 1.772 . S
C1493 N692 1.586 . S
C1499 N554 1.603 . S
C1513 C720 1.808 . S
C1519 C582 1.819 . S
C1533 N600 1.607 . S
C1539 N646 1.576 . S
C1553 C628 1.808 . S
C1559 C674 1.818 . S
C1573 C1088 1.760 . S
C1579 C973 1.772 . S
C1593 N370 1.708 . S
C1599 N12 1.762 . S
C1613 C39 1.590 . S
C1619 N1083 1.592 . S
C1633 N58 1.748 . S
C1639 N485 1.684 . S
C1653 N1060 1.598 . S
C1659 C85 1.593 . S
C1673 N104 1.762 . S
C1679 N945 1.707 . S
C1693 N968 1.584 . S
C1699 C131 1.595 . S
C1713 N150 1.760 . S
C1719 N991 1.699 . S
C1733 N462 1.606 . S
C1739 C177 1.598 . S
C1753 C200 1.665 . S
C1759 C7 1.746 . S
C1773 N25 1.684 . S
C1779 N219 1.748 . S
C1793 C246 1.666 . S
C1799 C53 1.747 . S
C1813 N265 1.740 . S
C1819 N71 1.696 . S
C1833 C292 1.679 . S
C1839 C99 1.750 . S
C1853 N117 1.693 . S
C1859 N311 1.757 . S
C1873 C338 1.677 . S
C1879 C145 1.751 . S
C1893 N357 1.762 . S
C1899 N163 1.707 . S
C1913 C384 1.593 . S
C1919 N186 1.598 . S
C1933 C407 1.606 . S
C1939 N830 1.613 . S
C1953 C858 1.746 1_455 S
C1959 C430 1.664 . S
C1973 N876 1.586 . S
C1979 C453 1.600 . S
C1993 C476 1.672 . S
C1999 C352 1.744 1_655 S
C2013 C499 1.592 . S
C2019 N232 1.584 . S
C2033 C812 1.750 1_455 S
C2039 C522 1.673 . S
C2053 C766 1.740 . S
C2059 C545 1.655 . S
C2073 N564 1.761 . S
C2079 N922 1.709 . S
C2093 C591 1.591 . S
C2099 N531 1.585 . S
C2113 N610 1.739 . S
C2119 N1037 1.691 . S
C2133 C637 1.621 . S
C2139 N508 1.614 . S
C2153 N656 1.741 . S
C2159 N393 1.684 . S
C2173 N416 1.604 . S
C2179 C683 1.597 . S
C2193 N439 1.713 . S
C2199 N702 1.758 . S
C2213 N1014 1.607 . S
C2219 C729 1.600 . S
C2233 C559 1.736 . S
C2239 C752 1.659 . S
C2253 N577 1.695 . S
C2259 N771 1.758 . S
C2273 C798 1.656 . S
C2279 C605 1.735 . S
C2293 N623 1.687 . S
C2299 N817 1.752 . S
C2313 C844 1.658 . S
C2319 C651 1.736 . S
C2333 N669 1.699 . S
C2339 N863 1.760 . S
C2353 C890 1.663 . S
C2359 C697 1.739 . S
C2373 N715 1.709 . S
C2379 N909 1.748 . S
C2393 C936 1.621 . S
C2399 N738 1.608 . S
C2413 C959 1.620 . S
C2419 N278 1.606 . S
C2433 C306 1.736 . S
C2439 C982 1.658 . S
C2453 C1005 1.602 . S
C2459 N324 1.609 . S
C2473 C1028 1.653 . S
C2479 C904 1.739 . S
C2493 N784 1.596 . S
C2499 C1051 1.613 . S
C2513 C1074 1.649 . S
C2519 C260 1.734 . S
C2533 C214 1.735 1_655 S
C2539 C1097 1.655 . S
C2553 C223 1.335 . S
C2559 C16 1.323 . S
C2573 N35 1.484 . S
C2579 N242 1.487 . S
C2593 C269 1.336 . S
C2599 C62 1.323 . S
C2613 N196 1.470 . S
C2619 N81 1.480 . S
C2633 C108 1.334 . S
C2639 C361 1.345 . S
C2653 N127 1.496 . S
C2659 N288 1.488 . S
C2673 C315 1.344 . S
C2679 C154 1.322 . S
C2693 N334 1.478 . S
C2699 N173 1.495 . S
C2713 N380 1.496 . S
C2719 N426 1.489 . S
C2733 N403 1.479 . S
C2739 N1070 1.472 . S
C2753 N449 1.479 . S
C2759 N1093 1.477 . S
C2773 N1047 1.495 . S
C2779 N472 1.477 . S
C2793 N1024 1.486 . S
C2799 N495 1.484 . S
C2813 N955 1.496 . S
C2819 N518 1.479 . S
C2833 N541 1.486 . S
C2839 N1001 1.484 . S
C2853 C775 1.347 . S
C2859 C568 1.324 . S
C2873 N794 1.478 . S
C2879 N587 1.479 . S
C2893 C614 1.337 . S
C2899 C821 1.323 . S
C2913 N748 1.484 . S
C2919 N633 1.497 . S
C2933 C913 1.345 . S
C2939 C660 1.335 . S
C2953 N840 1.480 . S
C2959 N679 1.496 . S
C2973 C706 1.347 . S
C2979 C867 1.328 . S
C2993 N886 1.490 . S
C2999 N725 1.492 . S
C3013 N978 1.482 . S
C3019 N932 1.497 . S
