# Generated by pormake.
# Topology uoe, (4)-cn, num edge types: 1
# Building blocks:
#     Node 0, Type 0, BuildingBlock: MUDLON_clean_sbu_0, # of connection points: 4
#     Node 1, Type 0, BuildingBlock: MUDLON_clean_sbu_0, # of connection points: 4
#     Node 2, Type 0, BuildingBlock: MUDLON_clean_sbu_0, # of connection points: 4
#     Node 3, Type 0, BuildingBlock: MUDLON_clean_sbu_0, # of connection points: 4
#     Node 4, Type 0, BuildingBlock: MUDLON_clean_sbu_0, # of connection points: 4
#     Node 5, Type 0, BuildingBlock: MUDLON_clean_sbu_0, # of connection points: 4
#     Node 6, Type 0, BuildingBlock: MUDLON_clean_sbu_0, # of connection points: 4
#     Node 7, Type 0, BuildingBlock: MUDLON_clean_sbu_0, # of connection points: 4
#     Node 8, Type 0, BuildingBlock: MUDLON_clean_sbu_0, # of connection points: 4
#     Node 9, Type 0, BuildingBlock: MUDLON_clean_sbu_0, # of connection points: 4
#     Node 10, Type 0, BuildingBlock: MUDLON_clean_sbu_0, # of connection points: 4
#     Node 11, Type 0, BuildingBlock: MUDLON_clean_sbu_0, # of connection points: 4
#     Node 12, Type 0, BuildingBlock: MUDLON_clean_sbu_0, # of connection points: 4
#     Node 13, Type 0, BuildingBlock: MUDLON_clean_sbu_0, # of connection points: 4
#     Node 14, Type 0, BuildingBlock: MUDLON_clean_sbu_0, # of connection points: 4
#     Node 15, Type 0, BuildingBlock: MUDLON_clean_sbu_0, # of connection points: 4
#     Node 16, Type 0, BuildingBlock: MUDLON_clean_sbu_0, # of connection points: 4
#     Node 17, Type 0, BuildingBlock: MUDLON_clean_sbu_0, # of connection points: 4
#     Node 18, Type 0, BuildingBlock: MUDLON_clean_sbu_0, # of connection points: 4
#     Node 19, Type 0, BuildingBlock: MUDLON_clean_sbu_0, # of connection points: 4
#     Node 20, Type 0, BuildingBlock: MUDLON_clean_sbu_0, # of connection points: 4
#     Node 21, Type 0, BuildingBlock: MUDLON_clean_sbu_0, # of connection points: 4
#     Node 22, Type 0, BuildingBlock: MUDLON_clean_sbu_0, # of connection points: 4
#     Node 23, Type 0, BuildingBlock: MUDLON_clean_sbu_0, # of connection points: 4
#     Node 24, Type 0, BuildingBlock: MUDLON_clean_sbu_0, # of connection points: 4
#     Node 25, Type 0, BuildingBlock: MUDLON_clean_sbu_0, # of connection points: 4
#     Node 26, Type 0, BuildingBlock: MUDLON_clean_sbu_0, # of connection points: 4
#     Node 27, Type 0, BuildingBlock: MUDLON_clean_sbu_0, # of connection points: 4
#     Node 28, Type 0, BuildingBlock: MUDLON_clean_sbu_0, # of connection points: 4
#     Node 29, Type 0, BuildingBlock: MUDLON_clean_sbu_0, # of connection points: 4
#     Node 30, Type 0, BuildingBlock: MUDLON_clean_sbu_0, # of connection points: 4
#     Node 31, Type 0, BuildingBlock: MUDLON_clean_sbu_0, # of connection points: 4
#     Edge 32, Type (0, 0), BuildingBlock: KIFKEQ_clean_linker_1, # of connection points: 2
#     Edge 33, Type (0, 0), BuildingBlock: KIFKEQ_clean_linker_1, # of connection points: 2
#     Edge 34, Type (0, 0), BuildingBlock: KIFKEQ_clean_linker_1, # of connection points: 2
#     Edge 35, Type (0, 0), BuildingBlock: KIFKEQ_clean_linker_1, # of connection points: 2
#     Edge 36, Type (0, 0), BuildingBlock: KIFKEQ_clean_linker_1, # of connection points: 2
#     Edge 37, Type (0, 0), BuildingBlock: KIFKEQ_clean_linker_1, # of connection points: 2
#     Edge 38, Type (0, 0), BuildingBlock: KIFKEQ_clean_linker_1, # of connection points: 2
#     Edge 39, Type (0, 0), BuildingBlock: KIFKEQ_clean_linker_1, # of connection points: 2
#     Edge 40, Type (0, 0), BuildingBlock: KIFKEQ_clean_linker_1, # of connection points: 2
#     Edge 41, Type (0, 0), BuildingBlock: KIFKEQ_clean_linker_1, # of connection points: 2
#     Edge 42, Type (0, 0), BuildingBlock: KIFKEQ_clean_linker_1, # of connection points: 2
#     Edge 43, Type (0, 0), BuildingBlock: KIFKEQ_clean_linker_1, # of connection points: 2
#     Edge 44, Type (0, 0), BuildingBlock: KIFKEQ_clean_linker_1, # of connection points: 2
#     Edge 45, Type (0, 0), BuildingBlock: KIFKEQ_clean_linker_1, # of connection points: 2
#     Edge 46, Type (0, 0), BuildingBlock: KIFKEQ_clean_linker_1, # of connection points: 2
#     Edge 47, Type (0, 0), BuildingBlock: KIFKEQ_clean_linker_1, # of connection points: 2
#     Edge 48, Type (0, 0), BuildingBlock: KIFKEQ_clean_linker_1, # of connection points: 2
#     Edge 49, Type (0, 0), BuildingBlock: KIFKEQ_clean_linker_1, # of connection points: 2
#     Edge 50, Type (0, 0), BuildingBlock: KIFKEQ_clean_linker_1, # of connection points: 2
#     Edge 51, Type (0, 0), BuildingBlock: KIFKEQ_clean_linker_1, # of connection points: 2
#     Edge 52, Type (0, 0), BuildingBlock: KIFKEQ_clean_linker_1, # of connection points: 2
#     Edge 53, Type (0, 0), BuildingBlock: KIFKEQ_clean_linker_1, # of connection points: 2
#     Edge 54, Type (0, 0), BuildingBlock: KIFKEQ_clean_linker_1, # of connection points: 2
#     Edge 55, Type (0, 0), BuildingBlock: KIFKEQ_clean_linker_1, # of connection points: 2
#     Edge 56, Type (0, 0), BuildingBlock: KIFKEQ_clean_linker_1, # of connection points: 2
#     Edge 57, Type (0, 0), BuildingBlock: KIFKEQ_clean_linker_1, # of connection points: 2
#     Edge 58, Type (0, 0), BuildingBlock: KIFKEQ_clean_linker_1, # of connection points: 2
#     Edge 59, Type (0, 0), BuildingBlock: KIFKEQ_clean_linker_1, # of connection points: 2
#     Edge 60, Type (0, 0), BuildingBlock: KIFKEQ_clean_linker_1, # of connection points: 2
#     Edge 61, Type (0, 0), BuildingBlock: KIFKEQ_clean_linker_1, # of connection points: 2
#     Edge 62, Type (0, 0), BuildingBlock: KIFKEQ_clean_linker_1, # of connection points: 2
#     Edge 63, Type (0, 0), BuildingBlock: KIFKEQ_clean_linker_1, # of connection points: 2
#     Edge 64, Type (0, 0), BuildingBlock: KIFKEQ_clean_linker_1, # of connection points: 2
#     Edge 65, Type (0, 0), BuildingBlock: KIFKEQ_clean_linker_1, # of connection points: 2
#     Edge 66, Type (0, 0), BuildingBlock: KIFKEQ_clean_linker_1, # of connection points: 2
#     Edge 67, Type (0, 0), BuildingBlock: KIFKEQ_clean_linker_1, # of connection points: 2
#     Edge 68, Type (0, 0), BuildingBlock: KIFKEQ_clean_linker_1, # of connection points: 2
#     Edge 69, Type (0, 0), BuildingBlock: KIFKEQ_clean_linker_1, # of connection points: 2
#     Edge 70, Type (0, 0), BuildingBlock: KIFKEQ_clean_linker_1, # of connection points: 2
#     Edge 71, Type (0, 0), BuildingBlock: KIFKEQ_clean_linker_1, # of connection points: 2
#     Edge 72, Type (0, 0), BuildingBlock: KIFKEQ_clean_linker_1, # of connection points: 2
#     Edge 73, Type (0, 0), BuildingBlock: KIFKEQ_clean_linker_1, # of connection points: 2
#     Edge 74, Type (0, 0), BuildingBlock: KIFKEQ_clean_linker_1, # of connection points: 2
#     Edge 75, Type (0, 0), BuildingBlock: KIFKEQ_clean_linker_1, # of connection points: 2
#     Edge 76, Type (0, 0), BuildingBlock: KIFKEQ_clean_linker_1, # of connection points: 2
#     Edge 77, Type (0, 0), BuildingBlock: KIFKEQ_clean_linker_1, # of connection points: 2
#     Edge 78, Type (0, 0), BuildingBlock: KIFKEQ_clean_linker_1, # of connection points: 2
#     Edge 79, Type (0, 0), BuildingBlock: KIFKEQ_clean_linker_1, # of connection points: 2
#     Edge 80, Type (0, 0), BuildingBlock: KIFKEQ_clean_linker_1, # of connection points: 2
#     Edge 81, Type (0, 0), BuildingBlock: KIFKEQ_clean_linker_1, # of connection points: 2
#     Edge 82, Type (0, 0), BuildingBlock: KIFKEQ_clean_linker_1, # of connection points: 2
#     Edge 83, Type (0, 0), BuildingBlock: KIFKEQ_clean_linker_1, # of connection points: 2
#     Edge 84, Type (0, 0), BuildingBlock: KIFKEQ_clean_linker_1, # of connection points: 2
#     Edge 85, Type (0, 0), BuildingBlock: KIFKEQ_clean_linker_1, # of connection points: 2
#     Edge 86, Type (0, 0), BuildingBlock: KIFKEQ_clean_linker_1, # of connection points: 2
#     Edge 87, Type (0, 0), BuildingBlock: KIFKEQ_clean_linker_1, # of connection points: 2
#     Edge 88, Type (0, 0), BuildingBlock: KIFKEQ_clean_linker_1, # of connection points: 2
#     Edge 89, Type (0, 0), BuildingBlock: KIFKEQ_clean_linker_1, # of connection points: 2
#     Edge 90, Type (0, 0), BuildingBlock: KIFKEQ_clean_linker_1, # of connection points: 2
#     Edge 91, Type (0, 0), BuildingBlock: KIFKEQ_clean_linker_1, # of connection points: 2
#     Edge 92, Type (0, 0), BuildingBlock: KIFKEQ_clean_linker_1, # of connection points: 2
#     Edge 93, Type (0, 0), BuildingBlock: KIFKEQ_clean_linker_1, # of connection points: 2
#     Edge 94, Type (0, 0), BuildingBlock: KIFKEQ_clean_linker_1, # of connection points: 2
#     Edge 95, Type (0, 0), BuildingBlock: KIFKEQ_clean_linker_1, # of connection points: 2
# Relax obj value: 0.172
# Max RMSD: 0.258
# Mean RMSD: 0.258
data_MOF--net-uoe--node1-MUDLON_clean_sbu_0--edge1-KIFKEQ_clean_linker_1
_symmetry_space_group_name_H-M    P1
_symmetry_Int_Tables_number       1
_symmetry_cell_setting            triclinic
loop_
_symmetry_equiv_pos_as_xyz
'x, y, z'
_cell_length_a     79.187214
_cell_length_b     79.167664
_cell_length_c     29.348118
_cell_angle_alpha  90.010087
_cell_angle_beta   89.971782
_cell_angle_gamma 89.881324
loop_
_atom_site_label
_atom_site_type_symbol
_atom_site_fract_x
_atom_site_fract_y
_atom_site_fract_z
_atom_type_partial_charge
Mg0 Mg 0.0991 0.47046 0.0833 0.0
C1 C 0.09403 0.4866 0.17387 0.0
O2 O 0.07899 0.48029 0.1659 0.0
C3 C 0.10573 0.47424 0.98346 0.0
O4 O 0.0971 0.46008 0.98452 0.0
C5 C 0.107 0.43853 0.13582 0.0
O6 O 0.09511 0.44485 0.16199 0.0
O7 O 0.11028 0.44582 0.09814 0.0
O8 O 0.10537 0.48523 0.14338 0.0
O9 O 0.07168 0.47152 0.07602 0.0
C10 C 0.06616 0.48552 0.06055 0.0
O11 O 0.07713 0.49718 0.04896 0.0
O12 O 0.10939 0.48141 0.02098 0.0
Mg13 Mg 0.78656 0.84879 0.32237 0.0
C14 C 0.76617 0.81708 0.3246 0.0
O15 O 0.75446 0.82866 0.33039 0.0
C16 C 0.82054 0.86649 0.33941 0.0
O17 O 0.8157 0.87592 0.30495 0.0
C18 C 0.76776 0.86207 0.23837 0.0
O19 O 0.75492 0.86138 0.26666 0.0
O20 O 0.78246 0.85848 0.25315 0.0
O21 O 0.78146 0.82175 0.31993 0.0
O22 O 0.76982 0.85824 0.37574 0.0
C23 C 0.77539 0.86877 0.40489 0.0
O24 O 0.78981 0.87636 0.39692 0.0
O25 O 0.81167 0.85374 0.35038 0.0
Mg26 Mg 0.4073 0.53429 0.57712 0.0
C27 C 0.40361 0.52961 0.67479 0.0
O28 O 0.41036 0.54466 0.67009 0.0
C29 C 0.39983 0.52962 0.47755 0.0
O30 O 0.40592 0.54505 0.47768 0.0
C31 C 0.38081 0.55832 0.60281 0.0
O32 O 0.37355 0.5434 0.60343 0.0
O33 O 0.39599 0.55925 0.58863 0.0
O34 O 0.40072 0.52091 0.63918 0.0
O35 O 0.43481 0.5329 0.57447 0.0
C36 C 0.44047 0.51843 0.56303 0.0
O37 O 0.4296 0.5065 0.55276 0.0
O38 O 0.39802 0.52201 0.51542 0.0
Mg39 Mg 0.71724 0.16327 0.81943 0.0
C40 C 0.73466 0.19619 0.79956 0.0
O41 O 0.74367 0.18572 0.77468 0.0
C42 C 0.68563 0.14299 0.83878 0.0
O43 O 0.69295 0.13277 0.8095 0.0
C44 C 0.73408 0.14786 0.73288 0.0
O45 O 0.74591 0.14312 0.76156 0.0
O46 O 0.72101 0.15538 0.74818 0.0
O47 O 0.72223 0.19039 0.82219 0.0
O48 O 0.73252 0.15106 0.87189 0.0
C49 C 0.7423 0.15987 0.89669 0.0
O50 O 0.74564 0.17546 0.88443 0.0
O51 O 0.69216 0.15742 0.84601 0.0
Mg52 Mg 0.09723 0.53775 0.58286 0.0
C53 C 0.11397 0.52547 0.4957 0.0
O54 O 0.12478 0.53748 0.50567 0.0
C55 C 0.10499 0.53434 0.68222 0.0
O56 O 0.09642 0.54858 0.68155 0.0
C57 C 0.10368 0.56948 0.52824 0.0
O58 O 0.09226 0.56217 0.50247 0.0
O59 O 0.10745 0.56269 0.56627 0.0
O60 O 0.10215 0.52213 0.52359 0.0
O61 O 0.06997 0.53635 0.59321 0.0
C62 C 0.06006 0.53346 0.55999 0.0
O63 O 0.06619 0.5334 0.51839 0.0
O64 O 0.10821 0.52703 0.64457 0.0
Mg65 Mg 0.72327 0.84985 0.81692 0.0
C66 C 0.73933 0.81665 0.8326 0.0
O67 O 0.75133 0.8275 0.84236 0.0
C68 C 0.70014 0.87186 0.76358 0.0
O69 O 0.7151 0.87839 0.75594 0.0
C70 C 0.7437 0.86351 0.89961 0.0
O71 O 0.75622 0.86426 0.87028 0.0
O72 O 0.72914 0.85904 0.88576 0.0
O73 O 0.72489 0.82233 0.821 0.0
O74 O 0.74071 0.85624 0.76193 0.0
C75 C 0.73811 0.84703 0.72704 0.0
O76 O 0.72722 0.8346 0.73042 0.0
O77 O 0.69891 0.85949 0.79126 0.0
Mg78 Mg 0.41089 0.46881 0.07336 0.0
C79 C 0.39233 0.48192 0.9904 0.0
O80 O 0.38318 0.46838 0.99782 0.0
C81 C 0.406 0.47044 0.17499 0.0
O82 O 0.41762 0.45862 0.17209 0.0
C83 C 0.38977 0.43677 0.05932 0.0
O84 O 0.38051 0.44349 0.09181 0.0
O85 O 0.40355 0.4439 0.04823 0.0
O86 O 0.40387 0.48581 0.01864 0.0
O87 O 0.43812 0.47196 0.07836 0.0
C88 C 0.44312 0.4865 0.09098 0.0
O89 O 0.43175 0.49795 0.10165 0.0
O90 O 0.39996 0.47659 0.13838 0.0
Mg91 Mg 0.78338 0.15935 0.31397 0.0
C92 C 0.76683 0.19296 0.30627 0.0
O93 O 0.75502 0.18256 0.29226 0.0
C94 C 0.80844 0.13615 0.27573 0.0
O95 O 0.79387 0.12843 0.27128 0.0
C96 C 0.75951 0.15099 0.39436 0.0
O97 O 0.74809 0.15775 0.36746 0.0
O98 O 0.77453 0.14914 0.37958 0.0
O99 O 0.78107 0.18686 0.31813 0.0
O100 O 0.77103 0.15266 0.24995 0.0
C101 C 0.75679 0.14811 0.23434 0.0
O102 O 0.74382 0.14639 0.26186 0.0
O103 O 0.80888 0.1501 0.29743 0.0
Mg104 Mg 0.90948 0.53391 0.05508 0.0
C105 C 0.94198 0.51625 0.0567 0.0
O106 O 0.93063 0.50416 0.05563 0.0
C107 C 0.88471 0.56252 0.04746 0.0
O108 O 0.87608 0.5517 0.07214 0.0
C109 C 0.90983 0.52828 0.15428 0.0
O110 O 0.92233 0.53882 0.14686 0.0
O111 O 0.90068 0.52392 0.1206 0.0
O112 O 0.93691 0.53153 0.05692 0.0
O113 O 0.903 0.51924 0.99486 0.0
C114 C 0.88989 0.52203 0.97093 0.0
O115 O 0.87805 0.53202 0.98695 0.0
O116 O 0.90012 0.55922 0.03883 0.0
Mg117 Mg 0.22019 0.15829 0.82335 0.0
C118 C 0.23218 0.13857 0.74128 0.0
O119 O 0.21792 0.13064 0.74898 0.0
C120 C 0.23901 0.14472 0.90769 0.0
O121 O 0.25168 0.144 0.87884 0.0
C122 C 0.18689 0.13927 0.80714 0.0
O123 O 0.19203 0.13033 0.84221 0.0
O124 O 0.19531 0.15224 0.79542 0.0
O125 O 0.2374 0.14924 0.77052 0.0
O126 O 0.22445 0.18548 0.82429 0.0
C127 C 0.23978 0.19024 0.82601 0.0
O128 O 0.25169 0.17867 0.82778 0.0
O129 O 0.22453 0.14925 0.89319 0.0
Mg130 Mg 0.59808 0.47249 0.57043 0.0
C131 C 0.56509 0.48902 0.56866 0.0
O132 O 0.57616 0.50134 0.56638 0.0
C133 C 0.60649 0.44068 0.51793 0.0
O134 O 0.59482 0.44717 0.4913 0.0
C135 C 0.61089 0.47524 0.6688 0.0
O136 O 0.61129 0.45868 0.66573 0.0
O137 O 0.60661 0.48386 0.63408 0.0
O138 O 0.57054 0.47389 0.5712 0.0
O139 O 0.60503 0.48814 0.51287 0.0
C140 C 0.61756 0.48492 0.48716 0.0
O141 O 0.62791 0.47256 0.49797 0.0
O142 O 0.60949 0.44785 0.55595 0.0
Mg143 Mg 0.28497 0.84562 0.31563 0.0
C144 C 0.27438 0.8681 0.23766 0.0
O145 O 0.28787 0.87629 0.25128 0.0
C146 C 0.2673 0.85961 0.40221 0.0
O147 O 0.25443 0.86148 0.37443 0.0
C148 C 0.31919 0.86311 0.30065 0.0
O149 O 0.31444 0.872 0.33625 0.0
O150 O 0.31018 0.85065 0.28815 0.0
O151 O 0.26881 0.85606 0.2622 0.0
O152 O 0.27946 0.81864 0.31537 0.0
C153 C 0.26399 0.81429 0.31568 0.0
O154 O 0.25236 0.82616 0.3164 0.0
O155 O 0.28131 0.8543 0.38627 0.0
Mg156 Mg 0.90859 0.47297 0.56729 0.0
C157 C 0.94407 0.48227 0.60346 0.0
O158 O 0.93664 0.48172 0.64347 0.0
C159 C 0.88753 0.44209 0.58485 0.0
O160 O 0.87709 0.45097 0.55958 0.0
C161 C 0.91005 0.47493 0.4664 0.0
O162 O 0.92372 0.46637 0.47706 0.0
O163 O 0.89995 0.47908 0.49829 0.0
O164 O 0.93568 0.4784 0.56798 0.0
O165 O 0.8965 0.48798 0.62 0.0
C166 C 0.90233 0.50184 0.63505 0.0
O167 O 0.91488 0.50911 0.61339 0.0
O168 O 0.90252 0.44747 0.59042 0.0
Mg169 Mg 0.28465 0.15723 0.32886 0.0
C170 C 0.27016 0.16009 0.41935 0.0
O171 O 0.28113 0.17245 0.41584 0.0
C172 C 0.26367 0.14433 0.24643 0.0
O173 O 0.25113 0.14452 0.27574 0.0
C174 C 0.30807 0.13546 0.38215 0.0
O175 O 0.29316 0.12899 0.3908 0.0
O176 O 0.30914 0.14765 0.35388 0.0
O177 O 0.26741 0.15092 0.38446 0.0
O178 O 0.28308 0.18474 0.32448 0.0
C179 C 0.26822 0.19047 0.3181 0.0
O180 O 0.25575 0.17966 0.31387 0.0
O181 O 0.27848 0.14798 0.26021 0.0
Mg182 Mg 0.59929 0.53571 0.07475 0.0
C183 C 0.56685 0.51843 0.08435 0.0
O184 O 0.57823 0.50651 0.09009 0.0
C185 C 0.6256 0.56117 0.08833 0.0
O186 O 0.63391 0.54735 0.07745 0.0
C187 C 0.61205 0.5318 0.97698 0.0
O188 O 0.61255 0.54837 0.97931 0.0
O189 O 0.60775 0.52345 0.01214 0.0
O190 O 0.57189 0.53343 0.07678 0.0
O191 O 0.60802 0.52281 0.13568 0.0
C192 C 0.60619 0.53173 0.17143 0.0
O193 O 0.59932 0.54678 0.16764 0.0
O194 O 0.60957 0.56101 0.08519 0.0
Mg195 Mg 0.22297 0.8491 0.82597 0.0
C196 C 0.25032 0.86158 0.90107 0.0
O197 O 0.26278 0.86194 0.87155 0.0
C198 C 0.24576 0.85901 0.74299 0.0
O199 O 0.25835 0.85541 0.77046 0.0
C200 C 0.19795 0.87365 0.85646 0.0
O201 O 0.21237 0.8818 0.8542 0.0
O202 O 0.19756 0.85841 0.84244 0.0
O203 O 0.23561 0.85729 0.88828 0.0
O204 O 0.22563 0.82159 0.82449 0.0
C205 C 0.24065 0.81595 0.82806 0.0
O206 O 0.25303 0.8268 0.8332 0.0
O207 O 0.23069 0.85839 0.75822 0.0
Mg208 Mg 0.59983 0.9745 0.56957 0.0
C209 C 0.59983 0.98278 0.66601 0.0
O210 O 0.5908 0.96893 0.66293 0.0
C211 C 0.60537 0.97977 0.46923 0.0
O212 O 0.59878 0.96455 0.46935 0.0
C213 C 0.60875 0.93816 0.60418 0.0
O214 O 0.5929 0.93723 0.61709 0.0
O215 O 0.61371 0.95096 0.58154 0.0
O216 O 0.60575 0.98921 0.62968 0.0
O217 O 0.57227 0.97438 0.56803 0.0
C218 C 0.56625 0.98885 0.55794 0.0
O219 O 0.57684 1.00112 0.5485 0.0
O220 O 0.60808 0.98704 0.5072 0.0
Mg221 Mg 0.28982 0.34663 0.82553 0.0
C222 C 0.27289 0.31349 0.80664 0.0
O223 O 0.26384 0.32379 0.78137 0.0
C224 C 0.32031 0.36804 0.84417 0.0
O225 O 0.31181 0.37807 0.81684 0.0
C226 C 0.27313 0.36192 0.73853 0.0
O227 O 0.26146 0.36725 0.76698 0.0
O228 O 0.28596 0.3541 0.75414 0.0
O229 O 0.28521 0.31948 0.8293 0.0
O230 O 0.2745 0.35894 0.87772 0.0
C231 C 0.26453 0.35027 0.90234 0.0
O232 O 0.26101 0.33472 0.89005 0.0
O233 O 0.31488 0.35312 0.85075 0.0
Mg234 Mg 0.90904 0.03436 0.07835 0.0
C235 C 0.90807 0.02534 0.17387 0.0
O236 O 0.91717 0.03916 0.17151 0.0
C237 C 0.91054 0.02766 0.97895 0.0
O238 O 0.92236 0.03906 0.98525 0.0
C239 C 0.90023 0.07058 0.11515 0.0
O240 O 0.91608 0.07151 0.12807 0.0
O241 O 0.89533 0.0579 0.09192 0.0
O242 O 0.9024 0.01905 0.13704 0.0
O243 O 0.93666 0.03408 0.07878 0.0
C244 C 0.94238 0.0194 0.06964 0.0
O245 O 0.93153 0.00725 0.06134 0.0
O246 O 0.90164 0.02318 0.01301 0.0
Mg247 Mg 0.21597 0.6573 0.32183 0.0
C248 C 0.23102 0.69088 0.30096 0.0
O249 O 0.24201 0.6803 0.28333 0.0
C250 C 0.18688 0.64998 0.38516 0.0
O251 O 0.19649 0.65925 0.41169 0.0
C252 C 0.23648 0.64459 0.23831 0.0
O253 O 0.24917 0.64448 0.26714 0.0
O254 O 0.22179 0.64839 0.25275 0.0
O255 O 0.21775 0.68493 0.31952 0.0
O256 O 0.23269 0.64846 0.37617 0.0
C257 C 0.23696 0.65937 0.40587 0.0
O258 O 0.23293 0.67525 0.39891 0.0
O259 O 0.19128 0.64788 0.34376 0.0
Mg260 Mg 0.59427 0.04462 0.06919 0.0
C261 C 0.5995 0.03792 0.97281 0.0
O262 O 0.59183 0.05264 0.97407 0.0
C263 C 0.59983 0.04145 0.17003 0.0
O264 O 0.58916 0.05418 0.1686 0.0
C265 C 0.61697 0.07475 0.05583 0.0
O266 O 0.62726 0.0647 0.07824 0.0
O267 O 0.60159 0.07042 0.05142 0.0
O268 O 0.6027 0.03045 0.01022 0.0
O269 O 0.56716 0.03988 0.07193 0.0
C270 C 0.56316 0.02492 0.08356 0.0
O271 O 0.57529 0.01426 0.09413 0.0
O272 O 0.60507 0.03519 0.13267 0.0
Mg273 Mg 0.22473 0.34908 0.31975 0.0
C274 C 0.24171 0.31567 0.30988 0.0
O275 O 0.2534 0.32622 0.29593 0.0
C276 C 0.1992 0.37336 0.2926 0.0
O277 O 0.21356 0.38164 0.29417 0.0
C278 C 0.24868 0.35741 0.39996 0.0
O279 O 0.2601 0.35051 0.3733 0.0
O280 O 0.23368 0.35928 0.38509 0.0
O281 O 0.22747 0.32161 0.32233 0.0
O282 O 0.23604 0.35699 0.25544 0.0
C283 C 0.25039 0.36121 0.23982 0.0
O284 O 0.26358 0.36171 0.26692 0.0
O285 O 0.19907 0.35807 0.30618 0.0
Mg286 Mg 0.91257 0.96258 0.57588 0.0
C287 C 0.90692 0.96993 0.48037 0.0
O288 O 0.91449 0.95515 0.48126 0.0
C289 C 0.91296 0.96755 0.67586 0.0
O290 O 0.92607 0.95774 0.66831 0.0
C291 C 0.88876 0.93376 0.56005 0.0
O292 O 0.87869 0.94462 0.58034 0.0
O293 O 0.90445 0.93709 0.55775 0.0
O294 O 0.90386 0.97732 0.51803 0.0
O295 O 0.93985 0.96635 0.57585 0.0
C296 C 0.94444 0.98122 0.58673 0.0
O297 O 0.93273 0.99238 0.59705 0.0
O298 O 0.90355 0.97145 0.64229 0.0
Mg299 Mg 0.2816 0.65649 0.81506 0.0
C300 C 0.26734 0.69111 0.79981 0.0
O301 O 0.25603 0.68146 0.78003 0.0
C302 C 0.31305 0.64934 0.75878 0.0
O303 O 0.30605 0.66095 0.73292 0.0
C304 C 0.26094 0.65451 0.90173 0.0
O305 O 0.25303 0.66676 0.88033 0.0
O306 O 0.27319 0.64715 0.88172 0.0
O307 O 0.28033 0.68418 0.81745 0.0
O308 O 0.26563 0.64913 0.758 0.0
C309 C 0.26943 0.63712 0.731 0.0
O310 O 0.28184 0.62685 0.74181 0.0
O311 O 0.30633 0.64601 0.7972 0.0
Mg312 Mg 0.40829 0.03282 0.57395 0.0
C313 C 0.44145 0.01716 0.57036 0.0
O314 O 0.43047 0.00477 0.56794 0.0
C315 C 0.39984 0.06924 0.53968 0.0
O316 O 0.4155 0.06964 0.52498 0.0
C317 C 0.40274 0.02758 0.67436 0.0
O318 O 0.40899 0.04295 0.67426 0.0
O319 O 0.40033 0.0202 0.63641 0.0
O320 O 0.43586 0.03223 0.57374 0.0
O321 O 0.40132 0.01851 0.51388 0.0
C322 C 0.40737 0.02461 0.47729 0.0
O323 O 0.41713 0.03796 0.47992 0.0
O324 O 0.39488 0.05672 0.56341 0.0
Mg325 Mg 0.7185 0.66015 0.32179 0.0
C326 C 0.72618 0.65557 0.22734 0.0
O327 O 0.71192 0.66403 0.23017 0.0
C328 C 0.73982 0.647 0.40439 0.0
O329 O 0.75198 0.64498 0.37439 0.0
C330 C 0.69443 0.63374 0.29837 0.0
O331 O 0.70801 0.62577 0.31262 0.0
O332 O 0.69399 0.64975 0.30224 0.0
O333 O 0.73382 0.65175 0.26418 0.0
O334 O 0.72043 0.6876 0.32039 0.0
C335 C 0.735 0.69311 0.33096 0.0
O336 O 0.74678 0.68215 0.34204 0.0
O337 O 0.72541 0.65215 0.391 0.0
Mg338 Mg 0.09964 0.97197 0.0703 0.0
C339 C 0.06689 0.98941 0.06688 0.0
O340 O 0.0781 1.00162 0.06635 0.0
C341 C 0.10687 0.94024 0.0152 0.0
O342 O 0.09523 0.94709 0.98916 0.0
C343 C 0.09713 0.97687 0.17037 0.0
O344 O 0.08423 0.96704 0.16108 0.0
O345 O 0.10705 0.98093 0.13803 0.0
O346 O 0.07214 0.97419 0.06813 0.0
O347 O 0.10798 0.98851 0.01571 0.0
C348 C 0.12009 0.98467 0.98911 0.0
O349 O 0.1294 0.97134 0.99816 0.0
O350 O 0.11022 0.94716 0.05334 0.0
Mg351 Mg 0.7887 0.35102 0.81635 0.0
C352 C 0.77684 0.37079 0.73409 0.0
O353 O 0.79145 0.3782 0.7407 0.0
C354 C 0.76986 0.36433 0.9011 0.0
O355 O 0.75723 0.36536 0.87222 0.0
C356 C 0.82176 0.3704 0.80126 0.0
O357 O 0.81606 0.3794 0.83563 0.0
O358 O 0.81372 0.35721 0.78938 0.0
O359 O 0.77149 0.36037 0.76384 0.0
O360 O 0.78434 0.32382 0.81644 0.0
C361 C 0.76897 0.31917 0.81821 0.0
O362 O 0.75715 0.33083 0.82038 0.0
O363 O 0.7843 0.35971 0.8865 0.0
Mg364 Mg 0.41136 0.96273 0.07534 0.0
C365 C 0.44228 0.98309 0.07886 0.0
O366 O 0.42995 0.99412 0.08311 0.0
C367 C 0.38808 0.9333 0.08792 0.0
O368 O 0.37801 0.94418 0.06773 0.0
C369 C 0.40651 0.96611 0.97434 0.0
O370 O 0.41683 0.9531 0.97621 0.0
O371 O 0.40123 0.97252 0.01148 0.0
O372 O 0.43849 0.96754 0.07447 0.0
O373 O 0.40235 0.97663 0.1342 0.0
C374 C 0.40492 0.96899 0.1717 0.0
O375 O 0.41218 0.95406 0.17077 0.0
O376 O 0.40369 0.93688 0.0914 0.0
Mg377 Mg 0.78583 0.65904 0.82656 0.0
C378 C 0.77294 0.64038 0.91092 0.0
O379 O 0.78705 0.6319 0.90545 0.0
C380 C 0.76504 0.64749 0.74293 0.0
O381 O 0.75246 0.6479 0.7721 0.0
C382 C 0.81471 0.63495 0.83896 0.0
O383 O 0.80481 0.62645 0.81131 0.0
O384 O 0.81072 0.65011 0.84869 0.0
O385 O 0.76856 0.65108 0.88071 0.0
O386 O 0.78317 0.6865 0.82635 0.0
C387 C 0.76803 0.69187 0.82958 0.0
O388 O 0.75577 0.68077 0.8326 0.0
O389 O 0.7799 0.65071 0.757 0.0
Mg390 Mg 0.09848 0.03744 0.58031 0.0
C391 C 0.06705 0.01747 0.58898 0.0
O392 O 0.07895 0.00596 0.59273 0.0
C393 C 0.12115 0.06741 0.59187 0.0
O394 O 0.13163 0.05653 0.57325 0.0
C395 C 0.09627 0.03168 0.48112 0.0
O396 O 0.08285 0.04083 0.49058 0.0
O397 O 0.10655 0.02834 0.51324 0.0
O398 O 0.07137 0.03284 0.58392 0.0
O399 O 0.1092 0.02411 0.63849 0.0
C400 C 0.10711 0.03235 0.67534 0.0
O401 O 0.09895 0.0468 0.67375 0.0
O402 O 0.10557 0.06359 0.5944 0.0
Mg403 Mg 0.72335 0.35138 0.32202 0.0
C404 C 0.73561 0.35046 0.41454 0.0
O405 O 0.72429 0.33841 0.41095 0.0
C406 C 0.74489 0.36378 0.23982 0.0
O407 O 0.75734 0.36358 0.26936 0.0
C408 C 0.69937 0.3756 0.36227 0.0
O409 O 0.71397 0.38347 0.36245 0.0
O410 O 0.69863 0.36102 0.34395 0.0
O411 O 0.73934 0.35891 0.37902 0.0
O412 O 0.72541 0.32386 0.32007 0.0
C413 C 0.74041 0.31821 0.316 0.0
O414 O 0.75287 0.32908 0.31287 0.0
O415 O 0.73002 0.36025 0.25336 0.0
H416 H 0.96919 0.53744 0.06652 0.0
H417 H 0.95602 0.48495 0.04822 0.0
H418 H 0.99907 0.52971 0.06792 0.0
H419 H 0.98574 0.47731 0.04826 0.0
H420 H 0.03983 0.46729 0.09637 0.0
H421 H 0.00991 0.47488 0.09652 0.0
H422 H 0.02124 0.51992 0.01921 0.0
H423 H 0.05106 0.51258 0.02021 0.0
C424 C 0.97266 0.52428 0.06256 0.0
C425 C 0.9602 0.51183 0.05728 0.0
C426 C 0.9898 0.51984 0.06311 0.0
C427 C 0.99487 0.50286 0.05817 0.0
C428 C 0.98235 0.49045 0.05289 0.0
C429 C 0.96527 0.49488 0.05256 0.0
C430 C 0.03589 0.47875 0.07922 0.0
C431 C 0.04784 0.48933 0.05837 0.0
C432 C 0.01873 0.48311 0.07918 0.0
C433 C 0.01312 0.49809 0.05807 0.0
C434 C 0.02509 0.50848 0.0366 0.0
C435 C 0.04221 0.50418 0.03685 0.0
H436 H 0.73523 0.80331 0.34179 0.0
H437 H 0.78646 0.78977 0.30648 0.0
H438 H 0.72747 0.77359 0.34301 0.0
H439 H 0.77859 0.76 0.30635 0.0
H440 H 0.76386 0.70825 0.36031 0.0
H441 H 0.77113 0.73801 0.35807 0.0
H442 H 0.72294 0.74927 0.2959 0.0
H443 H 0.71544 0.71936 0.29938 0.0
C444 C 0.74483 0.79399 0.33394 0.0
C445 C 0.7615 0.79894 0.32421 0.0
C446 C 0.74034 0.77692 0.33434 0.0
C447 C 0.75238 0.76433 0.32483 0.0
C448 C 0.76903 0.76931 0.31458 0.0
C449 C 0.77354 0.7864 0.3144 0.0
C450 C 0.75477 0.71705 0.34619 0.0
C451 C 0.73905 0.7114 0.33 0.0
C452 C 0.75901 0.73415 0.34459 0.0
C453 C 0.7477 0.7461 0.3265 0.0
C454 C 0.73191 0.74046 0.3105 0.0
C455 C 0.72762 0.7233 0.31233 0.0
H456 H 0.46656 0.5378 0.59573 0.0
H457 H 0.4559 0.49007 0.53056 0.0
H458 H 0.4965 0.53042 0.59855 0.0
H459 H 0.48576 0.48293 0.53204 0.0
H460 H 0.53817 0.46765 0.58218 0.0
H461 H 0.50815 0.47492 0.58185 0.0
H462 H 0.52072 0.52683 0.55166 0.0
H463 H 0.55053 0.51969 0.55344 0.0
C464 C 0.47062 0.52582 0.58161 0.0
C465 C 0.45882 0.51454 0.56298 0.0
C466 C 0.48781 0.52158 0.58307 0.0
C467 C 0.49362 0.50602 0.56564 0.0
C468 C 0.48177 0.49486 0.54659 0.0
C469 C 0.46462 0.49905 0.5454 0.0
C470 C 0.53449 0.4806 0.57554 0.0
C471 C 0.54677 0.49306 0.56793 0.0
C472 C 0.51727 0.48478 0.5751 0.0
C473 C 0.51194 0.50151 0.56678 0.0
C474 C 0.52428 0.5139 0.55902 0.0
C475 C 0.54144 0.50975 0.55972 0.0
H476 H 0.76013 0.21223 0.75421 0.0
H477 H 0.7204 0.22101 0.8524 0.0
H478 H 0.76854 0.24171 0.75976 0.0
H479 H 0.72907 0.25049 0.8587 0.0
H480 H 0.73722 0.30587 0.81932 0.0
H481 H 0.72904 0.27632 0.81528 0.0
H482 H 0.78162 0.26172 0.81103 0.0
H483 H 0.78984 0.29143 0.81407 0.0
C484 C 0.7532 0.22044 0.77712 0.0
C485 C 0.73954 0.21424 0.80276 0.0
C486 C 0.75813 0.23734 0.78056 0.0
C487 C 0.74953 0.24851 0.80977 0.0
C488 C 0.73585 0.24231 0.83543 0.0
C489 C 0.73091 0.22538 0.83195 0.0
C490 C 0.74708 0.29638 0.8176 0.0
C491 C 0.7642 0.30105 0.81693 0.0
C492 C 0.74237 0.27939 0.81558 0.0
C493 C 0.75465 0.26659 0.81288 0.0
C494 C 0.77181 0.27125 0.8125 0.0
C495 C 0.77653 0.28828 0.8145 0.0
H496 H 0.03433 0.5311 0.4984 0.0
H497 H 0.04615 0.52249 0.64012 0.0
H498 H 0.00635 0.51916 0.51002 0.0
H499 H 0.01848 0.50981 0.65144 0.0
H500 H 0.96193 0.50035 0.66648 0.0
H501 H 0.98927 0.5139 0.65683 0.0
H502 H 0.99288 0.4932 0.5208 0.0
H503 H 0.96519 0.48034 0.52988 0.0
C504 C 0.03093 0.52668 0.5321 0.0
C505 C 0.04248 0.52776 0.56829 0.0
C506 C 0.01492 0.51964 0.53872 0.0
C507 C 0.01011 0.51324 0.58158 0.0
C508 C 0.02157 0.51473 0.61806 0.0
C509 C 0.0375 0.52199 0.61156 0.0
C510 C 0.96862 0.49861 0.63462 0.0
C511 C 0.96136 0.48926 0.59894 0.0
C512 C 0.98437 0.50636 0.62908 0.0
C513 C 0.99337 0.50481 0.58788 0.0
C514 C 0.98622 0.49508 0.55263 0.0
C515 C 0.97039 0.48752 0.55798 0.0
H516 H 0.78937 0.71867 0.81484 0.0
H517 H 0.73743 0.70655 0.84545 0.0
H518 H 0.78222 0.74869 0.81475 0.0
H519 H 0.7304 0.73643 0.84677 0.0
H520 H 0.71969 0.79057 0.80109 0.0
H521 H 0.72681 0.76055 0.79918 0.0
H522 H 0.7745 0.77123 0.86455 0.0
H523 H 0.76761 0.80116 0.86517 0.0
C524 C 0.77646 0.7224 0.82181 0.0
C525 C 0.76399 0.71019 0.83008 0.0
C526 C 0.77235 0.73963 0.82201 0.0
C527 C 0.75569 0.74505 0.83074 0.0
C528 C 0.74328 0.73278 0.83914 0.0
C529 C 0.74736 0.7156 0.83869 0.0
C530 C 0.73166 0.78648 0.81517 0.0
C531 C 0.74307 0.79828 0.83322 0.0
C532 C 0.73574 0.76925 0.81424 0.0
C533 C 0.75129 0.7634 0.83158 0.0
C534 C 0.76257 0.77524 0.85009 0.0
C535 C 0.75854 0.79243 0.85077 0.0
H536 H 0.55297 0.48804 0.10619 0.0
H537 H 0.5395 0.53889 0.06681 0.0
H538 H 0.5233 0.4804 0.10883 0.0
H539 H 0.50965 0.53109 0.06831 0.0
H540 H 0.45746 0.51581 0.1208 0.0
H541 H 0.48717 0.52365 0.1198 0.0
H542 H 0.49968 0.47537 0.0598 0.0
H543 H 0.46996 0.46735 0.06191 0.0
C544 C 0.54367 0.4976 0.09787 0.0
C545 C 0.54864 0.5141 0.08623 0.0
C546 C 0.52662 0.49316 0.09909 0.0
C547 C 0.51404 0.50508 0.08856 0.0
C548 C 0.51899 0.52163 0.07714 0.0
C549 C 0.5361 0.5261 0.07605 0.0
C550 C 0.46655 0.50683 0.10754 0.0
C551 C 0.46132 0.49093 0.09149 0.0
C552 C 0.48359 0.51139 0.10664 0.0
C553 C 0.49586 0.50019 0.08957 0.0
C554 C 0.49062 0.48424 0.07374 0.0
C555 C 0.47356 0.47965 0.07478 0.0
H556 H 0.71853 0.29184 0.33039 0.0
H557 H 0.77074 0.30293 0.30016 0.0
H558 H 0.72506 0.26167 0.33009 0.0
H559 H 0.77716 0.2729 0.29855 0.0
H560 H 0.7867 0.21828 0.34135 0.0
H561 H 0.78012 0.24841 0.34561 0.0
H562 H 0.73232 0.23931 0.27907 0.0
H563 H 0.73868 0.20931 0.27603 0.0
C564 C 0.73137 0.28785 0.32343 0.0
C565 C 0.74409 0.29982 0.31528 0.0
C566 C 0.73512 0.27054 0.32305 0.0
C567 C 0.75167 0.26479 0.3143 0.0
C568 C 0.76435 0.27681 0.30617 0.0
C569 C 0.76062 0.29408 0.30675 0.0
C570 C 0.7748 0.22274 0.32768 0.0
C571 C 0.76323 0.21136 0.3084 0.0
C572 C 0.77103 0.24003 0.32992 0.0
C573 C 0.75565 0.24635 0.31276 0.0
C574 C 0.74415 0.23492 0.29338 0.0
C575 C 0.74787 0.21768 0.29133 0.0
H576 H 0.28736 0.28893 0.8599 0.0
H577 H 0.24764 0.2971 0.76141 0.0
H578 H 0.279 0.25937 0.86654 0.0
H579 H 0.23953 0.26754 0.76733 0.0
H580 H 0.21867 0.21778 0.82209 0.0
H581 H 0.22661 0.24756 0.81902 0.0
H582 H 0.27932 0.23345 0.82323 0.0
H583 H 0.27141 0.20382 0.8273 0.0
C584 C 0.27691 0.28441 0.83948 0.0
C585 C 0.26819 0.2954 0.8101 0.0
C586 C 0.27215 0.26744 0.84315 0.0
C587 C 0.25856 0.26105 0.81751 0.0
C588 C 0.24988 0.27207 0.78811 0.0
C589 C 0.25462 0.28901 0.78447 0.0
C590 C 0.23194 0.22105 0.82253 0.0
C591 C 0.24439 0.20839 0.82492 0.0
C592 C 0.23651 0.23812 0.8205 0.0
C593 C 0.25362 0.24293 0.82082 0.0
C594 C 0.26603 0.23025 0.82356 0.0
C595 C 0.26147 0.21322 0.8256 0.0
H596 H 0.23206 0.80135 0.3114 0.0
H597 H 0.2845 0.78633 0.31733 0.0
H598 H 0.22367 0.77181 0.3075 0.0
H599 H 0.27608 0.75673 0.31459 0.0
H600 H 0.25689 0.70697 0.25809 0.0
H601 H 0.26454 0.73663 0.26208 0.0
H602 H 0.22211 0.74604 0.35124 0.0
H603 H 0.21419 0.71625 0.34634 0.0
C604 C 0.24182 0.79174 0.31217 0.0
C605 C 0.25898 0.79624 0.31449 0.0
C606 C 0.23698 0.77477 0.31022 0.0
C607 C 0.24917 0.76184 0.31061 0.0
C608 C 0.26634 0.76635 0.31345 0.0
C609 C 0.27118 0.78333 0.3153 0.0
C610 C 0.24912 0.71534 0.27843 0.0
C611 C 0.23492 0.7092 0.30195 0.0
C612 C 0.2536 0.73237 0.28101 0.0
C613 C 0.24406 0.74375 0.30733 0.0
C614 C 0.22968 0.73767 0.33032 0.0
C615 C 0.22514 0.72059 0.32762 0.0
H616 H 0.29002 0.21678 0.3342 0.0
H617 H 0.2382 0.20583 0.29914 0.0
H618 H 0.28353 0.24698 0.33375 0.0
H619 H 0.23184 0.23586 0.29756 0.0
H620 H 0.22175 0.29009 0.34296 0.0
H621 H 0.22843 0.25997 0.34625 0.0
H622 H 0.27667 0.26963 0.28258 0.0
H623 H 0.2702 0.29964 0.2804 0.0
C624 C 0.27729 0.22081 0.3261 0.0
C625 C 0.26465 0.20887 0.31673 0.0
C626 C 0.27356 0.23812 0.32567 0.0
C627 C 0.25713 0.2439 0.31572 0.0
C628 C 0.24455 0.23192 0.30615 0.0
C629 C 0.24825 0.21465 0.30672 0.0
C630 C 0.23377 0.28577 0.32969 0.0
C631 C 0.24542 0.2973 0.31143 0.0
C632 C 0.23759 0.26849 0.33137 0.0
C633 C 0.25312 0.26232 0.31471 0.0
C634 C 0.26472 0.2739 0.29642 0.0
C635 C 0.26093 0.29114 0.29486 0.0
H636 H 0.24282 0.70935 0.75712 0.0
H637 H 0.28446 0.71461 0.85103 0.0
H638 H 0.23648 0.73924 0.76474 0.0
H639 H 0.2778 0.7446 0.85976 0.0
H640 H 0.27168 0.80092 0.82745 0.0
H641 H 0.27838 0.77105 0.82067 0.0
H642 H 0.22511 0.75936 0.81694 0.0
H643 H 0.21841 0.78941 0.82236 0.0
C644 C 0.25062 0.71689 0.77956 0.0
C645 C 0.26417 0.70955 0.80348 0.0
C646 C 0.24687 0.73405 0.78423 0.0
C647 C 0.2565 0.74439 0.81317 0.0
C648 C 0.27019 0.73709 0.83679 0.0
C649 C 0.27401 0.71988 0.8319 0.0
C650 C 0.26136 0.792 0.82526 0.0
C651 C 0.24448 0.7976 0.82531 0.0
C652 C 0.26522 0.77481 0.82167 0.0
C653 C 0.25232 0.76271 0.81822 0.0
C654 C 0.23541 0.76831 0.8188 0.0
C655 C 0.23154 0.78555 0.82218 0.0
H656 H 0.4561 0.98666 0.55362 0.0
H657 H 0.46832 0.03866 0.58338 0.0
H658 H 0.48593 0.9797 0.5503 0.0
H659 H 0.49838 0.03155 0.58147 0.0
H660 H 0.55029 0.01706 0.52685 0.0
H661 H 0.52041 0.0239 0.53011 0.0
H662 H 0.51055 0.97604 0.59567 0.0
H663 H 0.54057 0.96897 0.59108 0.0
C664 C 0.46517 0.99662 0.5598 0.0
C665 C 0.45979 0.01325 0.56874 0.0
C666 C 0.48234 0.99257 0.55821 0.0
C667 C 0.49465 0.00501 0.56577 0.0
C668 C 0.48927 0.02167 0.57486 0.0
C669 C 0.47203 0.02575 0.57619 0.0
C670 C 0.54176 0.00793 0.54185 0.0
C671 C 0.54784 0.99243 0.55868 0.0
C672 C 0.52459 0.01195 0.54408 0.0
C673 C 0.51299 1.00062 0.56345 0.0
C674 C 0.51906 0.98502 0.58001 0.0
C675 C 0.53628 0.98095 0.57752 0.0
H676 H 0.95749 0.99106 0.03671 0.0
H677 H 0.96881 0.03898 0.09994 0.0
H678 H 0.9873 0.98395 0.03576 0.0
H679 H 0.99882 0.0316 0.10046 0.0
H680 H 0.05253 0.02025 0.05233 0.0
H681 H 0.02275 0.02771 0.05268 0.0
H682 H 0.01 0.9759 0.08353 0.0
H683 H 0.0399 0.96833 0.08161 0.0
C684 C 0.96636 1.00007 0.05071 0.0
C685 C 0.96074 0.0156 0.06848 0.0
C686 C 0.98351 0.99591 0.05048 0.0
C687 C 0.99556 0.00709 0.06836 0.0
C688 C 0.98995 0.02272 0.0859 0.0
C689 C 0.97273 0.02696 0.08579 0.0
C690 C 0.04339 0.01041 0.05912 0.0
C691 C 0.04862 0.99366 0.06682 0.0
C692 C 0.02626 0.01474 0.05968 0.0
C693 C 0.01387 1.00246 0.06826 0.0
C694 C 0.01913 0.98568 0.0761 0.0
C695 C 0.03629 0.98132 0.0752 0.0
H696 H 0.55096 0.99479 0.11415 0.0
H697 H 0.53503 0.04176 0.05268 0.0
H698 H 0.522 0.98467 0.11288 0.0
H699 H 0.50602 0.03143 0.05016 0.0
H700 H 0.45363 0.01489 0.09647 0.0
H701 H 0.48256 0.02497 0.09795 0.0
H702 H 0.5003 0.97499 0.06271 0.0
H703 H 0.47121 0.96475 0.06257 0.0
C704 C 0.54127 1.00296 0.10018 0.0
C705 C 0.54534 0.01912 0.08358 0.0
C706 C 0.52464 0.99708 0.09912 0.0
C707 C 0.5116 0.00716 0.08123 0.0
C708 C 0.51567 0.02338 0.06474 0.0
C709 C 0.53233 0.0293 0.06602 0.0
C710 C 0.46368 0.006 0.08901 0.0
C711 C 0.46007 0.98898 0.07942 0.0
C712 C 0.48031 0.01185 0.08955 0.0
C713 C 0.49384 1.00085 0.08028 0.0
C714 C 0.49024 0.98379 0.07061 0.0
C715 C 0.47355 0.97791 0.07029 0.0
H716 H 0.05423 0.98625 0.60737 0.0
H717 H 0.03911 0.03696 0.57116 0.0
H718 H 0.02483 0.97743 0.60719 0.0
H719 H 0.00964 0.02801 0.56964 0.0
H720 H 0.95771 0.01084 0.61745 0.0
H721 H 0.98712 0.01951 0.6185 0.0
H722 H 1.00154 0.97191 0.55759 0.0
H723 H 0.97202 0.96301 0.55781 0.0
C724 C 0.04462 0.99552 0.59917 0.0
C725 C 0.04904 0.01234 0.58937 0.0
C726 C 0.02774 0.99041 0.59872 0.0
C727 C 0.01479 1.00196 0.58826 0.0
C728 C 0.01923 0.0188 0.57848 0.0
C729 C 0.03614 0.02394 0.57916 0.0
C730 C 0.96714 1.00218 0.60431 0.0
C731 C 0.96249 0.98621 0.58753 0.0
C732 C 0.98404 0.00722 0.60461 0.0
C733 C 0.99677 0.99648 0.58794 0.0
C734 C 0.99212 0.98045 0.57125 0.0
C735 C 0.97518 0.97536 0.57117 0.0
H736 H 0.11941 0.50559 0.96834 0.0
H737 H 0.09998 0.46179 0.89813 0.0
H738 H 0.12243 0.52021 0.89547 0.0
H739 H 0.10271 0.47645 0.82569 0.0
H740 H 0.09998 0.54696 0.76777 0.0
H741 H 0.10303 0.53229 0.84013 0.0
H742 H 0.12196 0.48826 0.76959 0.0
H743 H 0.11862 0.50288 0.69683 0.0
C744 C 0.11595 0.49901 0.93737 0.0
C745 C 0.10935 0.48255 0.93916 0.0
C746 C 0.11759 0.50743 0.89562 0.0
C747 C 0.11272 0.49956 0.85467 0.0
C748 C 0.10676 0.48285 0.8564 0.0
C749 C 0.10508 0.47447 0.89808 0.0
C750 C 0.10499 0.53422 0.76763 0.0
C751 C 0.10892 0.52606 0.72638 0.0
C752 C 0.10685 0.52583 0.80926 0.0
C753 C 0.11265 0.50904 0.81076 0.0
C754 C 0.11723 0.5011 0.76963 0.0
C755 C 0.11542 0.50952 0.72792 0.0
H756 H 0.72222 0.85735 0.97088 0.0
H757 H 0.77259 0.87496 0.94089 0.0
H758 H 0.72832 0.85869 0.05197 0.0
H759 H 0.77855 0.87691 0.02225 0.0
H760 H 0.78989 0.85756 0.16736 0.0
H761 H 0.784 0.85957 0.08608 0.0
H762 H 0.73306 0.87588 0.11602 0.0
H763 H 0.73881 0.87324 0.19722 0.0
C764 C 0.73453 0.8618 0.98158 0.0
C765 C 0.74692 0.86599 0.94918 0.0
C766 C 0.73802 0.86266 0.02831 0.0
C767 C 0.75398 0.86787 0.0441 0.0
C768 C 0.76622 0.87254 0.01161 0.0
C769 C 0.76275 0.87155 0.96482 0.0
C770 C 0.77748 0.86174 0.15661 0.0
C771 C 0.7648 0.86513 0.18895 0.0
C772 C 0.7741 0.86297 0.10983 0.0
C773 C 0.75798 0.86778 0.09405 0.0
C774 C 0.74551 0.87178 0.12659 0.0
C775 C 0.74885 0.8704 0.17332 0.0
H776 H 0.41588 0.45942 0.25907 0.0
H777 H 0.38645 0.49834 0.19301 0.0
H778 H 0.41164 0.47328 0.33226 0.0
H779 H 0.38201 0.51212 0.26657 0.0
H780 H 0.40111 0.54288 0.39172 0.0
H781 H 0.39991 0.52785 0.31945 0.0
H782 H 0.39118 0.48104 0.3912 0.0
H783 H 0.3926 0.49609 0.46381 0.0
C784 C 0.40828 0.4708 0.26022 0.0
C785 C 0.40162 0.47782 0.22003 0.0
C786 C 0.40576 0.4787 0.30233 0.0
C787 C 0.39655 0.49387 0.30535 0.0
C788 C 0.38935 0.50057 0.26538 0.0
C789 C 0.39181 0.49261 0.22324 0.0
C790 C 0.39873 0.52941 0.39216 0.0
C791 C 0.39707 0.52069 0.43366 0.0
C792 C 0.39794 0.52079 0.35061 0.0
C793 C 0.39553 0.5032 0.34944 0.0
C794 C 0.39326 0.49456 0.39089 0.0
C795 C 0.39397 0.5032 0.43252 0.0
H796 H 0.75825 0.1292 0.68852 0.0
H797 H 0.71613 0.16263 0.66367 0.0
H798 H 0.76374 0.12769 0.60687 0.0
H799 H 0.722 0.16178 0.58238 0.0
H800 H 0.72826 0.14927 0.43403 0.0
H801 H 0.72146 0.14643 0.5146 0.0
H802 H 0.7747 0.14333 0.54613 0.0
H803 H 0.78137 0.14542 0.46535 0.0
C804 C 0.75014 0.13623 0.66563 0.0
C805 C 0.73674 0.14603 0.68282 0.0
C806 C 0.75337 0.13548 0.61866 0.0
C807 C 0.74342 0.14468 0.58749 0.0
C808 C 0.72982 0.15426 0.60483 0.0
C809 C 0.72648 0.15484 0.65172 0.0
C810 C 0.73851 0.14777 0.45812 0.0
C811 C 0.75537 0.14762 0.44307 0.0
C812 C 0.73462 0.14629 0.50456 0.0
C813 C 0.7475 0.14483 0.53748 0.0
C814 C 0.76436 0.1442 0.52214 0.0
C815 C 0.76823 0.14548 0.47561 0.0
H816 H 0.88363 0.50873 0.18733 0.0
H817 H 0.93163 0.53042 0.22542 0.0
H818 H 0.88181 0.4951 0.26263 0.0
H819 H 0.92987 0.51673 0.29931 0.0
H820 H 0.93215 0.47193 0.39588 0.0
H821 H 0.93033 0.48451 0.32049 0.0
H822 H 0.88117 0.50476 0.35281 0.0
H823 H 0.883 0.49227 0.42941 0.0
C824 C 0.89371 0.51066 0.21168 0.0
C825 C 0.9078 0.52062 0.20021 0.0
C826 C 0.89264 0.50291 0.25473 0.0
C827 C 0.90578 0.50476 0.28657 0.0
C828 C 0.91964 0.51494 0.27528 0.0
C829 C 0.92059 0.52284 0.23288 0.0
C830 C 0.92083 0.4789 0.38707 0.0
C831 C 0.90778 0.4812 0.419 0.0
C832 C 0.91984 0.48614 0.3438 0.0
C833 C 0.90568 0.49571 0.33095 0.0
C834 C 0.89221 0.4974 0.36187 0.0
C835 C 0.8933 0.49031 0.4057 0.0
H836 H 0.26747 0.13236 0.94905 0.0
H837 H 0.21748 0.15124 0.9789 0.0
H838 H 0.27331 0.13009 0.03031 0.0
H839 H 0.22349 0.14957 0.06015 0.0
H840 H 0.23416 0.13434 0.20575 0.0
H841 H 0.22801 0.13228 0.12455 0.0
H842 H 0.27918 0.14734 0.09373 0.0
H843 H 0.28544 0.14879 0.17477 0.0
C844 C 0.25769 0.13599 0.97295 0.0
C845 C 0.24201 0.14203 0.95728 0.0
C846 C 0.26109 0.13482 0.01971 0.0
C847 C 0.24896 0.13978 0.05223 0.0
C848 C 0.23311 0.14541 0.03644 0.0
C849 C 0.22967 0.14646 0.98965 0.0
C850 C 0.24415 0.13703 0.18163 0.0
C851 C 0.2603 0.14175 0.19696 0.0
C852 C 0.24058 0.13598 0.13492 0.0
C853 C 0.25303 0.13975 0.10215 0.0
C854 C 0.26929 0.14409 0.11763 0.0
C855 C 0.27289 0.14502 0.16432 0.0
H856 H 0.62392 0.5453 0.89733 0.0
H857 H 0.60604 0.49864 0.9562 0.0
H858 H 0.62609 0.53162 0.82314 0.0
H859 H 0.60761 0.48512 0.88185 0.0
H860 H 0.62233 0.46111 0.74826 0.0
H861 H 0.62508 0.47458 0.82261 0.0
H862 H 0.60797 0.52181 0.76473 0.0
H863 H 0.60581 0.50849 0.69032 0.0
C864 C 0.6205 0.5321 0.89449 0.0
C865 C 0.61474 0.5231 0.93273 0.0
C866 C 0.62163 0.52427 0.85181 0.0
C867 C 0.61689 0.50726 0.84617 0.0
C868 C 0.61159 0.49815 0.8848 0.0
C869 C 0.61059 0.50595 0.92753 0.0
C870 C 0.61933 0.47442 0.75133 0.0
C871 C 0.6138 0.48369 0.7133 0.0
C872 C 0.62079 0.48213 0.7941 0.0
C873 C 0.61665 0.4993 0.79999 0.0
C874 C 0.61152 0.50865 0.76159 0.0
C875 C 0.61018 0.50097 0.71881 0.0
H876 H 0.22285 0.85908 0.67291 0.0
H877 H 0.27604 0.86494 0.70063 0.0
H878 H 0.22847 0.86061 0.59153 0.0
H879 H 0.28166 0.86723 0.61924 0.0
H880 H 0.28837 0.8496 0.47135 0.0
H881 H 0.28327 0.85096 0.55303 0.0
H882 H 0.23602 0.87684 0.52841 0.0
H883 H 0.24084 0.87477 0.44661 0.0
C884 C 0.23573 0.86102 0.66169 0.0
C885 C 0.24899 0.86181 0.69349 0.0
C886 C 0.23898 0.86199 0.61478 0.0
C887 C 0.25558 0.86397 0.59821 0.0
C888 C 0.26876 0.86534 0.63027 0.0
C889 C 0.26552 0.86418 0.67717 0.0
C890 C 0.27695 0.85571 0.48336 0.0
C891 C 0.26499 0.862 0.45223 0.0
C892 C 0.27403 0.85659 0.53045 0.0
C893 C 0.25915 0.86395 0.5479 0.0
C894 C 0.24746 0.87074 0.51662 0.0
C895 C 0.25029 0.86968 0.46952 0.0
H896 H 0.61739 0.01204 0.18513 0.0
H897 H 0.5915 0.05249 0.25532 0.0
H898 H 0.62153 0.99745 0.25764 0.0
H899 H 0.59542 0.03783 0.32745 0.0
H900 H 0.61439 0.01289 0.45626 0.0
H901 H 0.61589 0.02829 0.38423 0.0
H902 H 0.60318 0.98266 0.31134 0.0
H903 H 0.60192 0.96725 0.38302 0.0
C904 C 0.61275 0.01792 0.21603 0.0
C905 C 0.60402 0.0334 0.21432 0.0
C906 C 0.61503 0.0095 0.25757 0.0
C907 C 0.60872 0.01641 0.29839 0.0
C908 C 0.6006 0.03221 0.29682 0.0
C909 C 0.59826 0.04058 0.25532 0.0
C910 C 0.61214 0.0061 0.42481 0.0
C911 C 0.60794 0.98885 0.42549 0.0
C912 C 0.6129 0.01495 0.38353 0.0
C913 C 0.60957 0.00675 0.34196 0.0
C914 C 0.606 0.98936 0.3426 0.0
C915 C 0.60517 0.98053 0.38382 0.0
H916 H 0.27986 0.3589 0.44008 0.0
H917 H 0.2267 0.36367 0.47024 0.0
H918 H 0.28644 0.36212 0.52068 0.0
H919 H 0.23316 0.36614 0.55103 0.0
H920 H 0.24944 0.38084 0.69311 0.0
H921 H 0.24424 0.38204 0.61128 0.0
H922 H 0.28534 0.34698 0.58887 0.0
H923 H 0.29092 0.3464 0.67027 0.0
C924 C 0.26956 0.36069 0.46392 0.0
C925 C 0.25274 0.36098 0.44856 0.0
C926 C 0.27332 0.36238 0.51036 0.0
C927 C 0.26036 0.36421 0.54293 0.0
C928 C 0.24355 0.36498 0.52727 0.0
C929 C 0.23981 0.36349 0.48074 0.0
C930 C 0.25747 0.37353 0.67063 0.0
C931 C 0.27061 0.36352 0.68841 0.0
C932 C 0.25441 0.3741 0.62358 0.0
C933 C 0.26428 0.36454 0.59297 0.0
C934 C 0.2776 0.35477 0.6109 0.0
C935 C 0.28077 0.35434 0.65785 0.0
H936 H 0.88504 0.00697 0.94751 0.0
H937 H 0.93272 0.02914 0.90843 0.0
H938 H 0.88393 0.99207 0.87395 0.0
H939 H 0.93167 0.01415 0.83616 0.0
H940 H 0.93496 0.96683 0.74688 0.0
H941 H 0.93277 0.98133 0.81971 0.0
H942 H 0.88362 1.00037 0.78243 0.0
H943 H 0.88585 0.98597 0.70833 0.0
C944 C 0.89521 0.00873 0.92328 0.0
C945 C 0.90899 0.01921 0.93394 0.0
C946 C 0.89452 1.00027 0.88121 0.0
C947 C 0.90777 1.0019 0.8496 0.0
C948 C 0.92136 0.01257 0.86005 0.0
C949 C 0.92191 0.0212 0.90148 0.0
C950 C 0.92358 0.97396 0.75408 0.0
C951 C 0.91061 0.9753 0.72154 0.0
C952 C 0.92238 0.98231 0.79584 0.0
C953 C 0.90808 0.99203 0.80655 0.0
C954 C 0.89476 0.9929 0.77498 0.0
C955 C 0.89607 0.98472 0.73261 0.0
H956 H 0.23563 0.6683 0.95282 0.0
H957 H 0.27616 0.63179 0.9598 0.0
H958 H 0.22947 0.66371 0.0329 0.0
H959 H 0.26971 0.62688 0.04024 0.0
H960 H 0.26684 0.64092 0.19437 0.0
H961 H 0.27215 0.64132 0.11255 0.0
H962 H 0.21847 0.64416 0.08746 0.0
H963 H 0.21319 0.64418 0.16926 0.0
C964 C 0.24311 0.65911 0.97128 0.0
C965 C 0.25644 0.65047 0.94974 0.0
C966 C 0.23949 0.65638 0.01733 0.0
C967 C 0.24906 0.6449 0.04329 0.0
C968 C 0.26218 0.63596 0.02151 0.0
C969 C 0.26582 0.63869 0.97528 0.0
C970 C 0.25615 0.64143 0.17143 0.0
C971 C 0.23959 0.64267 0.18855 0.0
C972 C 0.25919 0.64158 0.12437 0.0
C973 C 0.24576 0.64294 0.09319 0.0
C974 C 0.22916 0.64344 0.11037 0.0
C975 C 0.22612 0.64333 0.15738 0.0
H976 H 0.41524 0.95495 0.88946 0.0
H977 H 0.38941 0.99573 0.95839 0.0
H978 H 0.41188 0.96959 0.81711 0.0
H979 H 0.38582 0.0103 0.88563 0.0
H980 H 0.39366 0.99449 0.68743 0.0
H981 H 0.39183 0.97919 0.75955 0.0
H982 H 0.40444 0.02488 0.83235 0.0
H983 H 0.40601 0.04018 0.76057 0.0
C984 C 0.40862 0.96694 0.88913 0.0
C985 C 0.40271 0.97421 0.92985 0.0
C986 C 0.4066 0.97529 0.8475 0.0
C987 C 0.39864 0.99117 0.8455 0.0
C988 C 0.3922 0.99819 0.88603 0.0
C989 C 0.39417 0.98979 0.92771 0.0
C990 C 0.39584 1.00131 0.71886 0.0
C991 C 0.40008 0.01855 0.71814 0.0
C992 C 0.39488 0.99252 0.7602 0.0
C993 C 0.39807 1.00077 0.8018 0.0
C994 C 0.40172 0.01814 0.80108 0.0
C995 C 0.40274 0.02691 0.7598 0.0
H996 H 0.76847 0.63465 0.44534 0.0
H997 H 0.71897 0.65463 0.476 0.0
H998 H 0.77459 0.63271 0.52664 0.0
H999 H 0.72524 0.65327 0.55698 0.0
H1000 H 0.73547 0.63789 0.70212 0.0
H1001 H 0.7294 0.63573 0.62095 0.0
H1002 H 0.78082 0.65 0.59027 0.0
H1003 H 0.787 0.65155 0.67144 0.0
C1004 C 0.75887 0.6386 0.46939 0.0
C1005 C 0.74322 0.64481 0.45396 0.0
C1006 C 0.76242 0.63761 0.51614 0.0
C1007 C 0.75047 0.6429 0.54877 0.0
C1008 C 0.73471 0.64882 0.53319 0.0
C1009 C 0.73112 0.6497 0.48653 0.0
C1010 C 0.74553 0.6404 0.67807 0.0
C1011 C 0.76172 0.64495 0.69346 0.0
C1012 C 0.74202 0.63929 0.63136 0.0
C1013 C 0.75455 0.64283 0.59865 0.0
C1014 C 0.77086 0.64696 0.61418 0.0
C1015 C 0.77441 0.64794 0.6609 0.0
H1016 H 0.07349 0.03255 0.41194 0.0
H1017 H 0.12337 0.01407 0.44525 0.0
H1018 H 0.07528 0.01911 0.33769 0.0
H1019 H 0.12517 1.00064 0.36979 0.0
H1020 H 0.12327 0.9959 0.20551 0.0
H1021 H 0.12465 0.00923 0.28112 0.0
H1022 H 0.07626 0.98769 0.31509 0.0
H1023 H 0.07489 0.97434 0.24063 0.0
C1024 C 0.08493 0.02574 0.40335 0.0
C1025 C 0.09825 0.02432 0.4348 0.0
C1026 C 0.0859 0.01797 0.36076 0.0
C1027 C 0.1003 0.00871 0.3481 0.0
C1028 C 0.11393 0.00773 0.3787 0.0
C1029 C 0.11287 0.01536 0.42187 0.0
C1030 C 0.11302 0.9939 0.22933 0.0
C1031 C 0.09892 0.98412 0.21684 0.0
C1032 C 0.11385 1.00148 0.2726 0.0
C1033 C 0.10048 0.99961 0.30377 0.0
C1034 C 0.08665 0.98951 0.29158 0.0
C1035 C 0.08592 0.9818 0.24887 0.0
H1036 H 0.72319 0.35964 0.16793 0.0
H1037 H 0.77459 0.37349 0.1995 0.0
H1038 H 0.72955 0.36127 0.08697 0.0
H1039 H 0.78085 0.37572 0.11837 0.0
H1040 H 0.79127 0.35725 0.97212 0.0
H1041 H 0.78523 0.35863 0.05342 0.0
H1042 H 0.73563 0.37876 0.02415 0.0
H1043 H 0.74149 0.37678 0.94283 0.0
C1044 C 0.7358 0.36331 0.15763 0.0
C1045 C 0.74838 0.36636 0.19041 0.0
C1046 C 0.73945 0.36434 0.11099 0.0
C1047 C 0.75577 0.36859 0.09568 0.0
C1048 C 0.76822 0.37211 0.1286 0.0
C1049 C 0.7646 0.37096 0.17527 0.0
C1050 C 0.77912 0.36211 0.98302 0.0
C1051 C 0.76684 0.36681 0.95078 0.0
C1052 C 0.77566 0.36299 0.02983 0.0
C1053 C 0.75987 0.36872 0.04577 0.0
C1054 C 0.74781 0.37394 0.01341 0.0
C1055 C 0.75122 0.37294 0.96662 0.0
H1056 H 0.09441 0.49947 0.46527 0.0
H1057 H 0.13244 0.53497 0.42112 0.0
H1058 H 0.09082 0.48999 0.38702 0.0
H1059 H 0.12852 0.52576 0.34251 0.0
H1060 H 0.12512 0.49444 0.20937 0.0
H1061 H 0.13155 0.50271 0.28776 0.0
H1062 H 0.07829 0.50222 0.31976 0.0
H1063 H 0.07193 0.49365 0.24221 0.0
C1064 C 0.10212 0.50515 0.43892 0.0
C1065 C 0.11361 0.51807 0.44941 0.0
C1066 C 0.09995 0.49982 0.39398 0.0
C1067 C 0.10915 0.50735 0.35838 0.0
C1068 C 0.12127 0.51967 0.36912 0.0
C1069 C 0.12349 0.52496 0.41421 0.0
C1070 C 0.1148 0.49624 0.23311 0.0
C1071 C 0.09802 0.4933 0.21966 0.0
C1072 C 0.11848 0.50098 0.278 0.0
C1073 C 0.10545 0.50287 0.31022 0.0
C1074 C 0.08866 0.50044 0.29618 0.0
C1075 C 0.085 0.49568 0.25153 0.0
H1076 H 0.7397 0.82664 0.65307 0.0
H1077 H 0.75158 0.87719 0.69787 0.0
H1078 H 0.74762 0.83402 0.57575 0.0
H1079 H 0.75921 0.88481 0.61957 0.0
H1080 H 0.78841 0.88402 0.48076 0.0
H1081 H 0.77964 0.87991 0.5595 0.0
H1082 H 0.73704 0.85047 0.51354 0.0
H1083 H 0.7461 0.85413 0.43483 0.0
C1084 C 0.74407 0.83936 0.64638 0.0
C1085 C 0.74499 0.85133 0.6816 0.0
C1086 C 0.74843 0.84366 0.60185 0.0
C1087 C 0.75371 0.86013 0.59111 0.0
C1088 C 0.75519 0.87201 0.62663 0.0
C1089 C 0.75089 0.86765 0.6715 0.0
C1090 C 0.77699 0.87692 0.48734 0.0
C1091 C 0.76807 0.86922 0.45143 0.0
C1092 C 0.77195 0.87458 0.53261 0.0
C1093 C 0.75784 0.86456 0.54301 0.0
C1094 C 0.74826 0.85787 0.50686 0.0
C1095 C 0.75335 0.86011 0.46164 0.0
H1096 H 0.39491 0.4974 0.70017 0.0
H1097 H 0.40308 0.54758 0.75365 0.0
H1098 H 0.39016 0.48697 0.77751 0.0
H1099 H 0.39787 0.53732 0.83036 0.0
H1100 H 0.41158 0.5083 0.96068 0.0
H1101 H 0.41256 0.52019 0.88446 0.0
H1102 H 0.37155 0.48766 0.84324 0.0
H1103 H 0.37086 0.47539 0.91949 0.0
C1104 C 0.39549 0.50622 0.72835 0.0
C1105 C 0.39958 0.52325 0.72087 0.0
C1106 C 0.39266 0.50029 0.77263 0.0
C1107 C 0.39376 0.51129 0.81021 0.0
C1108 C 0.39726 0.52843 0.80235 0.0
C1109 C 0.4002 0.53432 0.75828 0.0
C1110 C 0.4026 0.50382 0.93561 0.0
C1111 C 0.39121 0.49082 0.94615 0.0
C1112 C 0.40312 0.5107 0.89184 0.0
C1113 C 0.39219 0.50481 0.85758 0.0
C1114 C 0.38033 0.49228 0.86862 0.0
C1115 C 0.37983 0.48536 0.91245 0.0
H1116 H 0.72772 0.14462 0.18346 0.0
H1117 H 0.78207 0.1469 0.17152 0.0
H1118 H 0.72539 0.1445 0.10019 0.0
H1119 H 0.77972 0.14662 0.08903 0.0
H1120 H 0.766 0.17327 0.95322 0.0
H1121 H 0.7698 0.16772 0.03411 0.0
H1122 H 0.73183 0.12871 0.02804 0.0
H1123 H 0.72795 0.13433 0.94669 0.0
C1124 C 0.73915 0.14484 0.16319 0.0
C1125 C 0.75505 0.14604 0.18424 0.0
C1126 C 0.73783 0.1447 0.11548 0.0
C1127 C 0.75238 0.14575 0.08797 0.0
C1128 C 0.76826 0.14611 0.10917 0.0
C1129 C 0.76958 0.14624 0.15658 0.0
C1130 C 0.75869 0.16327 0.96886 0.0
C1131 C 0.74668 0.15426 0.94345 0.0
C1132 C 0.76088 0.16006 0.01529 0.0
C1133 C 0.75104 0.14783 0.03765 0.0
C1134 C 0.73947 0.13833 0.01191 0.0
C1135 C 0.7374 0.14143 0.9652 0.0
H1136 H 0.92011 0.52274 0.6912 0.0
H1137 H 0.87489 0.49233 0.68562 0.0
H1138 H 0.91576 0.52704 0.7727 0.0
H1139 H 0.87051 0.49683 0.7673 0.0
H1140 H 0.86385 0.52478 0.9098 0.0
H1141 H 0.86529 0.52095 0.82705 0.0
H1142 H 0.91734 0.50536 0.83881 0.0
H1143 H 0.91596 0.50893 0.92117 0.0
C1144 C 0.90904 0.51729 0.70708 0.0
C1145 C 0.89789 0.50712 0.68196 0.0
C1146 C 0.90665 0.51962 0.75384 0.0
C1147 C 0.89295 0.51205 0.77632 0.0
C1148 C 0.8812 0.50277 0.75077 0.0
C1149 C 0.88371 0.50022 0.70407 0.0
C1150 C 0.87552 0.52026 0.8948 0.0
C1151 C 0.88981 0.51722 0.92212 0.0
C1152 C 0.87633 0.51812 0.84747 0.0
C1153 C 0.89151 0.51316 0.82659 0.0
C1154 C 0.90557 0.50949 0.85402 0.0
C1155 C 0.90471 0.51139 0.90126 0.0
H1156 H 0.26132 0.15367 0.7119 0.0
H1157 H 0.21964 0.12309 0.66519 0.0
H1158 H 0.27063 0.15733 0.63339 0.0
H1159 H 0.2286 0.12723 0.58667 0.0
H1160 H 0.25674 0.12997 0.44888 0.0
H1161 H 0.24902 0.12249 0.52717 0.0
H1162 H 0.26048 0.17338 0.57042 0.0
H1163 H 0.26854 0.18061 0.49309 0.0
C1164 C 0.25426 0.14755 0.68497 0.0
C1165 C 0.23965 0.13823 0.6949 0.0
C1166 C 0.25949 0.14979 0.63984 0.0
C1167 C 0.25015 0.1429 0.6035 0.0
C1168 C 0.23613 0.13271 0.61367 0.0
C1169 C 0.23097 0.13036 0.65884 0.0
C1170 C 0.25739 0.13957 0.47512 0.0
C1171 C 0.26328 0.15586 0.46485 0.0
C1172 C 0.25303 0.13528 0.52002 0.0
C1173 C 0.25442 0.14724 0.5554 0.0
C1174 C 0.25973 0.16368 0.54447 0.0
C1175 C 0.26417 0.1679 0.49992 0.0
H1176 H 0.61445 0.49932 0.19648 0.0
H1177 H 0.60893 0.54997 0.24938 0.0
H1178 H 0.61964 0.4889 0.27373 0.0
H1179 H 0.61445 0.53968 0.32592 0.0
H1180 H 0.59879 0.51135 0.4558 0.0
H1181 H 0.59836 0.52297 0.37927 0.0
H1182 H 0.6388 0.48927 0.33992 0.0
H1183 H 0.63903 0.47733 0.41673 0.0
C1184 C 0.6146 0.50824 0.22445 0.0
C1185 C 0.61103 0.5254 0.21696 0.0
C1186 C 0.61766 0.5023 0.26865 0.0
C1187 C 0.61727 0.51345 0.30602 0.0
C1188 C 0.61449 0.53072 0.29803 0.0
C1189 C 0.61136 0.53661 0.25408 0.0
C1190 C 0.60775 0.50654 0.43108 0.0
C1191 C 0.6189 0.49337 0.44236 0.0
C1192 C 0.60756 0.51327 0.38718 0.0
C1193 C 0.61853 0.50702 0.35344 0.0
C1194 C 0.63006 0.49421 0.36504 0.0
C1195 C 0.63029 0.48748 0.40914 0.0
H1196 H 0.2267 0.86306 0.96876 0.0
H1197 H 0.28034 0.86797 0.94508 0.0
H1198 H 0.23117 0.86684 0.05003 0.0
H1199 H 0.28482 0.87154 0.02695 0.0
H1200 H 0.28626 0.89 0.17314 0.0
H1201 H 0.27983 0.89029 0.09193 0.0
H1202 H 0.24319 0.85066 0.11226 0.0
H1203 H 0.24943 0.85052 0.19356 0.0
C1204 C 0.23948 0.86499 0.98082 0.0
C1205 C 0.2532 0.86508 0.95024 0.0
C1206 C 0.24202 0.86709 0.02759 0.0
C1207 C 0.25835 0.86937 0.04518 0.0
C1208 C 0.27205 0.86996 0.01454 0.0
C1209 C 0.2695 0.86783 0.96759 0.0
C1210 C 0.27661 0.88155 0.16049 0.0
C1211 C 0.2684 0.87019 0.18999 0.0
C1212 C 0.27305 0.88161 0.11378 0.0
C1213 C 0.26114 0.87037 0.09539 0.0
C1214 C 0.25235 0.85958 0.12523 0.0
C1215 C 0.25594 0.85948 0.17194 0.0
H1216 H 0.59051 0.97033 0.74858 0.0
H1217 H 0.61572 0.01271 0.68558 0.0
H1218 H 0.59357 0.98353 0.82276 0.0
H1219 H 0.61904 0.02586 0.76049 0.0
H1220 H 0.59674 0.05234 0.8891 0.0
H1221 H 0.59965 0.0388 0.81526 0.0
H1222 H 0.61376 0.99209 0.88135 0.0
H1223 H 0.61052 0.00563 0.95578 0.0
C1224 C 0.59686 0.98241 0.75059 0.0
C1225 C 0.60272 0.99057 0.7111 0.0
C1226 C 0.59877 0.98989 0.79328 0.0
C1227 C 0.60656 0.00573 0.79755 0.0
C1228 C 0.61284 0.01371 0.7582 0.0
C1229 C 0.61097 0.00618 0.71536 0.0
C1230 C 0.60062 0.03921 0.88799 0.0
C1231 C 0.60318 0.02998 0.92832 0.0
C1232 C 0.60244 0.0315 0.84556 0.0
C1233 C 0.60685 0.01435 0.84244 0.0
C1234 C 0.61013 0.00528 0.88273 0.0
C1235 C 0.60835 0.01304 0.92531 0.0
H1236 H 0.27944 0.36439 0.18872 0.0
H1237 H 0.22502 0.36371 0.1775 0.0
H1238 H 0.28165 0.36488 0.10547 0.0
H1239 H 0.22728 0.3643 0.09495 0.0
H1240 H 0.2405 0.33729 0.95869 0.0
H1241 H 0.23674 0.34289 0.03962 0.0
H1242 H 0.27542 0.3812 0.03378 0.0
H1243 H 0.27924 0.37556 0.95241 0.0
C1244 C 0.26797 0.36463 0.16863 0.0
C1245 C 0.25208 0.36376 0.18986 0.0
C1246 C 0.26923 0.36497 0.12093 0.0
C1247 C 0.25462 0.36442 0.09359 0.0
C1248 C 0.23876 0.36443 0.11497 0.0
C1249 C 0.2375 0.36413 0.1624 0.0
C1250 C 0.24797 0.34715 0.97438 0.0
C1251 C 0.26017 0.35595 0.94906 0.0
C1252 C 0.2458 0.35039 0.02082 0.0
C1253 C 0.25586 0.36243 0.04324 0.0
C1254 C 0.2676 0.37173 0.01757 0.0
C1255 C 0.26965 0.36862 0.97086 0.0
H1256 H 0.90933 0.95552 0.39658 0.0
H1257 H 0.89627 1.0024 0.46349 0.0
H1258 H 0.90666 0.96912 0.32282 0.0
H1259 H 0.89323 0.01601 0.38908 0.0
H1260 H 0.91693 0.03763 0.25691 0.0
H1261 H 0.91338 0.02444 0.33084 0.0
H1262 H 0.88797 0.9823 0.26741 0.0
H1263 H 0.89184 0.99546 0.19265 0.0
C1264 C 0.90565 0.9687 0.39554 0.0
C1265 C 0.90324 0.97796 0.43595 0.0
C1266 C 0.90395 0.97646 0.35312 0.0
C1267 C 0.89983 0.99367 0.35001 0.0
C1268 C 0.89665 1.00276 0.39039 0.0
C1269 C 0.89831 0.99497 0.43298 0.0
C1270 C 0.91049 0.02559 0.25858 0.0
C1271 C 0.90482 0.0175 0.21878 0.0
C1272 C 0.90829 0.01811 0.30116 0.0
C1273 C 0.90037 1.00233 0.30511 0.0
C1274 C 0.89427 0.99441 0.26543 0.0
C1275 C 0.89644 1.00195 0.22265 0.0
H1276 H 0.24511 0.65789 0.69595 0.0
H1277 H 0.27855 0.61686 0.65913 0.0
H1278 H 0.23765 0.66161 0.61617 0.0
H1279 H 0.27108 0.62074 0.57893 0.0
H1280 H 0.24036 0.6273 0.44145 0.0
H1281 H 0.24719 0.61987 0.52052 0.0
H1282 H 0.25479 0.67262 0.55146 0.0
H1283 H 0.24804 0.68003 0.47332 0.0
C1284 C 0.25068 0.64948 0.67098 0.0
C1285 C 0.26258 0.6372 0.68397 0.0
C1286 C 0.24649 0.6517 0.62518 0.0
C1287 C 0.25405 0.64169 0.59122 0.0
C1288 C 0.26509 0.62866 0.60435 0.0
C1289 C 0.26935 0.62646 0.65031 0.0
C1290 C 0.24376 0.63726 0.46502 0.0
C1291 C 0.24351 0.65427 0.45115 0.0
C1292 C 0.24761 0.633 0.51027 0.0
C1293 C 0.25115 0.6457 0.54238 0.0
C1294 C 0.25167 0.66259 0.52782 0.0
C1295 C 0.24793 0.66681 0.48284 0.0
H1296 H 0.40665 0.95452 0.25557 0.0
H1297 H 0.39509 1.00168 0.18816 0.0
H1298 H 0.40426 0.96832 0.32921 0.0
H1299 H 0.39234 0.01548 0.26235 0.0
H1300 H 0.38994 0.99547 0.45865 0.0
H1301 H 0.38571 0.98233 0.38407 0.0
H1302 H 0.41299 0.02323 0.32042 0.0
H1303 H 0.41694 0.03643 0.39427 0.0
C1304 C 0.40334 0.9678 0.25649 0.0
C1305 C 0.40128 0.97708 0.21602 0.0
C1306 C 0.40181 0.97567 0.2988 0.0
C1307 C 0.39822 0.99301 0.30164 0.0
C1308 C 0.39535 1.00213 0.2612 0.0
C1309 C 0.39684 0.99423 0.21875 0.0
C1310 C 0.39488 1.0017 0.42864 0.0
C1311 C 0.4039 0.0169 0.4324 0.0
C1312 C 0.39249 0.99417 0.38598 0.0
C1313 C 0.39902 1.00174 0.34634 0.0
C1314 C 0.40758 0.01719 0.35013 0.0
C1315 C 0.41 0.02467 0.39263 0.0
H1316 H 0.75829 0.64553 0.20273 0.0
H1317 H 0.70836 0.65456 0.14869 0.0
H1318 H 0.76866 0.64004 0.12541 0.0
H1319 H 0.71847 0.64863 0.07235 0.0
H1320 H 0.74685 0.66034 0.94022 0.0
H1321 H 0.73546 0.66236 0.01695 0.0
H1322 H 0.76784 0.62137 0.06006 0.0
H1323 H 0.77958 0.61964 0.98334 0.0
C1324 C 0.74951 0.64612 0.17449 0.0
C1325 C 0.73259 0.65072 0.18175 0.0
C1326 C 0.7554 0.6429 0.1302 0.0
C1327 C 0.74444 0.64409 0.09246 0.0
C1328 C 0.72738 0.648 0.1003 0.0
C1329 C 0.72157 0.65134 0.14424 0.0
C1330 C 0.75137 0.65157 0.96582 0.0
C1331 C 0.76417 0.63986 0.95556 0.0
C1332 C 0.74481 0.6527 0.00994 0.0
C1333 C 0.75079 0.64208 0.04492 0.0
C1334 C 0.76315 0.62994 0.03422 0.0
C1335 C 0.76975 0.62884 0.99007 0.0
H1336 H 0.14084 0.97644 0.91763 0.0
H1337 H 0.10257 0.01225 0.95939 0.0
H1338 H 0.14064 0.98855 0.84105 0.0
H1339 H 0.10213 0.02404 0.88307 0.0
H1340 H 0.11179 0.05046 0.75258 0.0
H1341 H 0.11807 0.04001 0.82853 0.0
H1342 H 0.12132 0.98914 0.77577 0.0
H1343 H 0.11543 0.99976 0.699 0.0
C1344 C 0.13256 0.98703 0.91069 0.0
C1345 C 0.12169 0.99336 0.94464 0.0
C1346 C 0.13234 0.99386 0.86669 0.0
C1347 C 0.12132 0.00721 0.85583 0.0
C1348 C 0.11094 0.01392 0.89032 0.0
C1349 C 0.11114 0.00709 0.93415 0.0
C1350 C 0.114 0.03705 0.75703 0.0
C1351 C 0.11288 0.02588 0.71995 0.0
C1352 C 0.11755 0.03106 0.80065 0.0
C1353 C 0.11992 0.01371 0.80842 0.0
C1354 C 0.11964 1.0026 0.77092 0.0
C1355 C 0.11621 0.00865 0.72699 0.0
H1356 H 0.74655 0.35736 0.70734 0.0
H1357 H 0.78944 0.38532 0.65678 0.0
H1358 H 0.73613 0.35423 0.62969 0.0
H1359 H 0.77941 0.38162 0.57914 0.0
H1360 H 0.75075 0.37992 0.44291 0.0
H1361 H 0.75913 0.38731 0.52076 0.0
H1362 H 0.74423 0.3376 0.56633 0.0
H1363 H 0.73546 0.33055 0.48956 0.0
C1364 C 0.75365 0.36301 0.67974 0.0
C1365 C 0.76891 0.37144 0.68833 0.0
C1366 C 0.74778 0.36106 0.63509 0.0
C1367 C 0.75712 0.36734 0.59788 0.0
C1368 C 0.77184 0.37666 0.60678 0.0
C1369 C 0.77763 0.37874 0.65147 0.0
C1370 C 0.74942 0.37058 0.46962 0.0
C1371 C 0.7424 0.35468 0.46013 0.0
C1372 C 0.75418 0.3748 0.51426 0.0
C1373 C 0.75211 0.36316 0.55016 0.0
C1374 C 0.74554 0.3471 0.54004 0.0
C1375 C 0.74069 0.34297 0.49577 0.0
H1376 H 0.13673 0.42714 0.09908 0.0
H1377 H 0.10361 0.42026 0.21463 0.0
H1378 H 0.15796 0.40941 0.13582 0.0
H1379 H 0.12494 0.40251 0.2513 0.0
H1380 H 0.16631 0.36177 0.28703 0.0
H1381 H 0.14266 0.37503 0.24593 0.0
H1382 H 0.17535 0.41594 0.20552 0.0
H1383 H 0.19864 0.40301 0.24627 0.0
C1384 C 0.13382 0.4216 0.13189 0.0
C1385 C 0.11852 0.42532 0.1541 0.0
C1386 C 0.14603 0.4115 0.15305 0.0
C1387 C 0.1432 0.40477 0.19675 0.0
C1388 C 0.12747 0.4075 0.21763 0.0
C1389 C 0.11528 0.41773 0.19662 0.0
C1390 C 0.16837 0.37362 0.2695 0.0
C1391 C 0.18438 0.38132 0.27006 0.0
C1392 C 0.15486 0.3812 0.24599 0.0
C1393 C 0.15723 0.39641 0.22197 0.0
C1394 C 0.17319 0.40407 0.22292 0.0
C1395 C 0.18652 0.39669 0.24676 0.0
H1396 H 0.8579 0.91902 0.57017 0.0
H1397 H 0.9026 0.91787 0.48588 0.0
H1398 H 0.84373 0.89996 0.51719 0.0
H1399 H 0.88829 0.89893 0.4325 0.0
H1400 H 0.84453 0.89063 0.32331 0.0
H1401 H 0.86319 0.90399 0.37896 0.0
H1402 H 0.84472 0.87034 0.48328 0.0
H1403 H 0.82618 0.85686 0.42771 0.0
C1404 C 0.86481 0.91443 0.54079 0.0
C1405 C 0.88137 0.91996 0.53228 0.0
C1406 C 0.85671 0.90347 0.51048 0.0
C1407 C 0.86487 0.89801 0.47053 0.0
C1408 C 0.88166 0.90301 0.46286 0.0
C1409 C 0.88988 0.91375 0.49364 0.0
C1410 C 0.8447 0.88584 0.35787 0.0
C1411 C 0.83381 0.87271 0.371 0.0
C1412 C 0.85544 0.89346 0.38973 0.0
C1413 C 0.85535 0.88828 0.43557 0.0
C1414 C 0.84498 0.87468 0.44828 0.0
C1415 C 0.83444 0.86689 0.4163 0.0
H1416 H 0.3906 0.59182 0.6055 0.0
H1417 H 0.35117 0.55785 0.64942 0.0
H1418 H 0.37631 0.61515 0.64537 0.0
H1419 H 0.33721 0.58087 0.68901 0.0
H1420 H 0.32542 0.61995 0.79504 0.0
H1421 H 0.3433 0.59902 0.75759 0.0
H1422 H 0.34812 0.63168 0.64062 0.0
H1423 H 0.33017 0.65271 0.67802 0.0
C1424 C 0.3789 0.58934 0.6234 0.0
C1425 C 0.37205 0.57295 0.62417 0.0
C1426 C 0.37074 0.60268 0.64621 0.0
C1427 C 0.35575 0.59979 0.67084 0.0
C1428 C 0.34889 0.58346 0.67108 0.0
C1429 C 0.35685 0.57027 0.64794 0.0
C1430 C 0.33052 0.62285 0.76171 0.0
C1431 C 0.3262 0.63798 0.73943 0.0
C1432 C 0.34069 0.61079 0.74011 0.0
C1433 C 0.34694 0.61361 0.69589 0.0
C1434 C 0.34353 0.62916 0.67471 0.0
C1435 C 0.33319 0.64118 0.69615 0.0
H1436 H 0.66437 0.1165 0.82303 0.0
H1437 H 0.67675 0.15428 0.92372 0.0
H1438 H 0.64532 0.10294 0.87736 0.0
H1439 H 0.65789 0.1405 0.97829 0.0
H1440 H 0.64647 0.09177 0.06954 0.0
H1441 H 0.66054 0.1111 0.01692 0.0
H1442 H 0.61812 0.10786 0.92514 0.0
H1443 H 0.60386 0.08875 0.97815 0.0
C1444 C 0.66279 0.12209 0.85647 0.0
C1445 C 0.67209 0.13646 0.86902 0.0
C1446 C 0.65184 0.11435 0.88754 0.0
C1447 C 0.65017 0.12062 0.93214 0.0
C1448 C 0.65898 0.13535 0.9442 0.0
C1449 C 0.66969 0.14329 0.91283 0.0
C1450 C 0.63997 0.0955 0.03866 0.0
C1451 C 0.62405 0.08871 0.02806 0.0
C1452 C 0.64801 0.1066 1.00857 0.0
C1453 C 0.64047 0.11092 0.96679 0.0
C1454 C 0.62426 0.10468 0.95699 0.0
C1455 C 0.61606 0.09384 0.98752 0.0
H1456 H 0.16693 0.6261 0.34395 0.0
H1457 H 0.17444 0.65199 0.47189 0.0
H1458 H 0.14562 0.60823 0.3796 0.0
H1459 H 0.1529 0.63442 0.50724 0.0
H1460 H 0.13128 0.58483 0.56659 0.0
H1461 H 0.14992 0.6056 0.5317 0.0
H1462 H 0.11783 0.60708 0.41276 0.0
H1463 H 0.0994 0.58603 0.44724 0.0
C1464 C 0.16384 0.62818 0.37947 0.0
C1465 C 0.17249 0.64044 0.40504 0.0
C1466 C 0.15156 0.61797 0.39995 0.0
C1467 C 0.14758 0.61977 0.4465 0.0
C1468 C 0.15582 0.63244 0.47158 0.0
C1469 C 0.16811 0.64263 0.45115 0.0
C1470 C 0.12807 0.58974 0.53325 0.0
C1471 C 0.11386 0.58368 0.50972 0.0
C1472 C 0.13874 0.60172 0.51323 0.0
C1473 C 0.13547 0.60799 0.46918 0.0
C1474 C 0.12092 0.60235 0.44636 0.0
C1475 C 0.11026 0.59035 0.46635 0.0
H1476 H 0.60329 0.90881 0.6523 0.0
H1477 H 0.64306 0.94032 0.5986 0.0
H1478 H 0.62443 0.89059 0.68816 0.0
H1479 H 0.66396 0.9228 0.63575 0.0
H1480 H 0.70056 0.88381 0.6776 0.0
H1481 H 0.67789 0.8972 0.63537 0.0
H1482 H 0.6441 0.88926 0.74916 0.0
H1483 H 0.66687 0.87484 0.79051 0.0
C1484 C 0.61653 0.9118 0.64787 0.0
C1485 C 0.62144 0.92601 0.62231 0.0
C1486 C 0.62867 0.90144 0.66885 0.0
C1487 C 0.64601 0.90511 0.66505 0.0
C1488 C 0.65082 0.91921 0.63883 0.0
C1489 C 0.63876 0.9294 0.61754 0.0
C1490 C 0.68823 0.88478 0.69347 0.0
C1491 C 0.68553 0.87847 0.73757 0.0
C1492 C 0.67521 0.8926 0.66935 0.0
C1493 C 0.65915 0.89476 0.68903 0.0
C1494 C 0.65624 0.8878 0.73263 0.0
C1495 C 0.66928 0.87959 0.75652 0.0
H1496 H 0.33234 0.35582 0.92534 0.0
H1497 H 0.33871 0.39659 0.82912 0.0
H1498 H 0.35145 0.37006 0.9784 0.0
H1499 H 0.35788 0.41068 0.8819 0.0
H1500 H 0.40049 0.42687 0.9747 0.0
H1501 H 0.38615 0.40792 0.92174 0.0
H1502 H 0.34835 0.39739 0.02378 0.0
H1503 H 0.3626 0.41643 0.07679 0.0
C1504 C 0.3381 0.36762 0.91506 0.0
C1505 C 0.33397 0.3751 0.87302 0.0
C1506 C 0.34894 0.37582 0.94561 0.0
C1507 C 0.35611 0.39152 0.93442 0.0
C1508 C 0.35267 0.39854 0.8914 0.0
C1509 C 0.34164 0.39048 0.8612 0.0
C1510 C 0.38931 0.42028 0.98623 0.0
C1511 C 0.38265 0.42325 0.02999 0.0
C1512 C 0.38105 0.4095 0.95573 0.0
C1513 C 0.36608 0.40124 0.96848 0.0
C1514 C 0.35993 0.40347 0.01305 0.0
C1515 C 0.36806 0.41444 0.04337 0.0
H1516 H 0.84191 0.13417 0.30169 0.0
H1517 H 0.80787 0.1234 0.19087 0.0
H1518 H 0.8648 0.11983 0.26035 0.0
H1519 H 0.8306 0.11019 0.14848 0.0
H1520 H 0.86597 0.06776 0.11163 0.0
H1521 H 0.84501 0.08501 0.14936 0.0
H1522 H 0.88426 0.11814 0.19901 0.0
H1523 H 0.9055 0.10013 0.16266 0.0
C1524 C 0.83945 0.12904 0.26814 0.0
C1525 C 0.8231 0.12961 0.24979 0.0
C1526 C 0.85255 0.12088 0.24425 0.0
C1527 C 0.84957 0.11346 0.20122 0.0
C1528 C 0.83336 0.11512 0.18207 0.0
C1529 C 0.8203 0.12284 0.20625 0.0
C1530 C 0.87019 0.07882 0.13009 0.0
C1531 C 0.88747 0.08254 0.13389 0.0
C1532 C 0.85808 0.08886 0.15171 0.0
C1533 C 0.86279 0.10317 0.17725 0.0
C1534 C 0.88009 0.10714 0.18021 0.0
C1535 C 0.89229 0.09691 0.15896 0.0
H1536 H 0.85069 0.56696 0.04027 0.0
H1537 H 0.8981 0.58806 0.99484 0.0
H1538 H 0.83554 0.58566 0.98857 0.0
H1539 H 0.88266 0.60717 0.94355 0.0
H1540 H 0.83829 0.64803 0.89839 0.0
H1541 H 0.85662 0.63214 0.95075 0.0
H1542 H 0.83799 0.58537 0.89501 0.0
H1543 H 0.82009 0.60098 0.84228 0.0
C1544 C 0.8579 0.57581 0.02 0.0
C1545 C 0.87565 0.57591 0.02159 0.0
C1546 C 0.84918 0.58647 0.99021 0.0
C1547 C 0.85795 0.59772 0.96187 0.0
C1548 C 0.87563 0.59859 0.96512 0.0
C1549 C 0.88443 0.58766 0.99446 0.0
C1550 C 0.83836 0.63436 0.89672 0.0
C1551 C 0.82765 0.6258 0.86619 0.0
C1552 C 0.84884 0.62531 0.92668 0.0
C1553 C 0.84853 0.60756 0.92714 0.0
C1554 C 0.83833 0.59905 0.89557 0.0
C1555 C 0.82814 0.60804 0.86521 0.0
H1556 H 0.15151 0.08303 0.58054 0.0
H1557 H 0.10665 0.08385 0.66423 0.0
H1558 H 0.165 0.10317 0.63193 0.0
H1559 H 0.12028 0.10386 0.71604 0.0
H1560 H 0.16365 0.11457 0.8249 0.0
H1561 H 0.14548 0.10007 0.77017 0.0
H1562 H 0.16305 0.13315 0.66343 0.0
H1563 H 0.18109 0.14779 0.71809 0.0
C1564 C 0.14441 0.08778 0.6094 0.0
C1565 C 0.12802 0.08184 0.61826 0.0
C1566 C 0.15212 0.09934 0.6388 0.0
C1567 C 0.14373 0.10503 0.67818 0.0
C1568 C 0.12709 0.09962 0.68611 0.0
C1569 C 0.11924 0.08827 0.65621 0.0
C1570 C 0.16337 0.11899 0.78998 0.0
C1571 C 0.17387 0.13231 0.77593 0.0
C1572 C 0.15292 0.11071 0.75865 0.0
C1573 C 0.15291 0.11541 0.71243 0.0
C1574 C 0.16287 0.12918 0.69875 0.0
C1575 C 0.17312 0.13763 0.7302 0.0
H1576 H 0.66604 0.36525 0.36328 0.0
H1577 H 0.69956 0.4036 0.41575 0.0
H1578 H 0.64239 0.37851 0.40423 0.0
H1579 H 0.6762 0.41665 0.45609 0.0
H1580 H 0.63564 0.42867 0.55663 0.0
H1581 H 0.65713 0.41095 0.52092 0.0
H1582 H 0.62575 0.40574 0.40155 0.0
H1583 H 0.60415 0.42337 0.43733 0.0
C1584 C 0.66837 0.37646 0.38347 0.0
C1585 C 0.6847 0.38337 0.38607 0.0
C1586 C 0.65484 0.38406 0.40686 0.0
C1587 C 0.65744 0.39855 0.43382 0.0
C1588 C 0.67378 0.40534 0.43638 0.0
C1589 C 0.68718 0.39791 0.41277 0.0
C1590 C 0.63315 0.4235 0.52314 0.0
C1591 C 0.61821 0.42761 0.49973 0.0
C1592 C 0.64553 0.41343 0.50252 0.0
C1593 C 0.64326 0.40712 0.4581 0.0
C1594 C 0.62788 0.41034 0.43582 0.0
C1595 C 0.61552 0.42051 0.45634 0.0
H1596 H 0.35741 0.91842 0.07537 0.0
H1597 H 0.40163 0.91665 0.16127 0.0
H1598 H 0.34308 0.89869 0.12616 0.0
H1599 H 0.38718 0.89698 0.21243 0.0
H1600 H 0.34324 0.8869 0.31956 0.0
H1601 H 0.36206 0.90099 0.26564 0.0
H1602 H 0.34371 0.86894 0.15757 0.0
H1603 H 0.32497 0.85476 0.21141 0.0
C1604 C 0.3642 0.91356 0.10461 0.0
C1605 C 0.38066 0.91912 0.11424 0.0
C1606 C 0.356 0.90221 0.13368 0.0
C1607 C 0.36396 0.89634 0.17348 0.0
C1608 C 0.38068 0.90137 0.1822 0.0
C1609 C 0.389 0.91253 0.15267 0.0
C1610 C 0.34347 0.88262 0.28451 0.0
C1611 C 0.33255 0.86973 0.26986 0.0
C1612 C 0.3543 0.89066 0.25363 0.0
C1613 C 0.3543 0.88615 0.20726 0.0
C1614 C 0.34391 0.87279 0.193 0.0
C1615 C 0.33325 0.86458 0.22398 0.0
H1616 H 0.8295 0.36089 0.71392 0.0
H1617 H 0.84356 0.39637 0.81905 0.0
H1618 H 0.84777 0.3756 0.65992 0.0
H1619 H 0.86187 0.41101 0.765 0.0
H1620 H 0.90123 0.42838 0.66238 0.0
H1621 H 0.88782 0.40849 0.71495 0.0
H1622 H 0.8452 0.40435 0.62402 0.0
H1623 H 0.85849 0.42425 0.57173 0.0
C1624 C 0.83676 0.3716 0.72584 0.0
C1625 C 0.83499 0.3775 0.77085 0.0
C1626 C 0.84714 0.38009 0.69475 0.0
C1627 C 0.85619 0.39453 0.70806 0.0
C1628 C 0.85518 0.39985 0.75373 0.0
C1629 C 0.84462 0.39149 0.78468 0.0
C1630 C 0.88916 0.42295 0.65315 0.0
C1631 C 0.8809 0.42795 0.61289 0.0
C1632 C 0.88143 0.41166 0.68345 0.0
C1633 C 0.86541 0.40491 0.67379 0.0
C1634 C 0.8576 0.40921 0.63234 0.0
C1635 C 0.8652 0.42067 0.60242 0.0
H1636 H 0.40536 0.09806 0.48932 0.0
H1637 H 0.36558 0.06799 0.54867 0.0
H1638 H 0.38421 0.11637 0.45392 0.0
H1639 H 0.34463 0.08558 0.51198 0.0
H1640 H 0.30828 0.1246 0.46916 0.0
H1641 H 0.33114 0.11137 0.51104 0.0
H1642 H 0.36398 0.11745 0.39441 0.0
H1643 H 0.34105 0.13174 0.35338 0.0
C1644 C 0.39212 0.09542 0.49512 0.0
C1645 C 0.38721 0.08156 0.52207 0.0
C1646 C 0.37996 0.10583 0.4744 0.0
C1647 C 0.3626 0.10256 0.47986 0.0
C1648 C 0.35779 0.08885 0.50757 0.0
C1649 C 0.36988 0.07862 0.52859 0.0
C1650 C 0.32044 0.12327 0.45261 0.0
C1651 C 0.32284 0.12901 0.40782 0.0
C1652 C 0.33357 0.11554 0.47653 0.0
C1653 C 0.34941 0.11288 0.45597 0.0
C1654 C 0.35203 0.1193 0.41162 0.0
C1655 C 0.33889 0.12743 0.38792 0.0
H1656 H 0.61209 0.58775 0.13725 0.0
H1657 H 0.65951 0.56533 0.09626 0.0
H1658 H 0.62731 0.60674 0.18903 0.0
H1659 H 0.67451 0.58413 0.14763 0.0
H1660 H 0.69221 0.59977 0.28721 0.0
H1661 H 0.67465 0.58429 0.23389 0.0
H1662 H 0.6503 0.63069 0.19304 0.0
H1663 H 0.66811 0.64644 0.24682 0.0
C1664 C 0.62574 0.58711 0.13848 0.0
C1665 C 0.63457 0.57488 0.11293 0.0
C1666 C 0.63443 0.59796 0.1682 0.0
C1667 C 0.65206 0.59667 0.17304 0.0
C1668 C 0.66089 0.58517 0.14538 0.0
C1669 C 0.65228 0.57445 0.1157 0.0
C1670 C 0.68302 0.60674 0.26735 0.0
C1671 C 0.6817 0.6244 0.27108 0.0
C1672 C 0.67301 0.59785 0.23652 0.0
C1673 C 0.66134 0.60631 0.20863 0.0
C1674 C 0.65925 0.62385 0.21401 0.0
C1675 C 0.66942 0.63284 0.24486 0.0
H1676 H 0.19817 0.90286 0.90484 0.0
H1677 H 0.16472 0.86294 0.8613 0.0
H1678 H 0.17514 0.91625 0.94568 0.0
H1679 H 0.14134 0.87668 0.9025 0.0
H1680 H 0.1034 0.92268 0.93516 0.0
H1681 H 0.12443 0.90466 0.89803 0.0
H1682 H 0.15724 0.91006 0.01445 0.0
H1683 H 0.13632 0.92803 0.05162 0.0
C1684 C 0.18586 0.89692 0.90379 0.0
C1685 C 0.18333 0.88179 0.87962 0.0
C1686 C 0.17267 0.90457 0.92767 0.0
C1687 C 0.15646 0.89744 0.92782 0.0
C1688 C 0.15372 0.88245 0.90306 0.0
C1689 C 0.16709 0.87459 0.87951 0.0
C1690 C 0.11496 0.91976 0.95326 0.0
C1691 C 0.11821 0.92697 0.99625 0.0
C1692 C 0.12698 0.90938 0.93198 0.0
C1693 C 0.14258 0.90611 0.95304 0.0
C1694 C 0.14543 0.91254 0.99706 0.0
C1695 C 0.13338 0.92278 0.01849 0.0
loop_
_geom_bond_atom_site_label_1
_geom_bond_atom_site_label_2
_geom_bond_distance
_geom_bond_site_symmetry_2
_ccdc_geom_bond_type
Mg0 O7 2.141 . S
Mg0 O8 2.048 . S
Mg0 O9 2.048 . S
Mg0 O12 2.141 . S
C1 O2 1.313 . S
C1 O8 1.195 . S
O2 C1 1.313 . S
C3 O4 1.245 . S
C3 O12 1.289 1_556 S
O4 C3 1.245 . S
C5 O6 1.245 . S
C5 O7 1.289 . S
O6 C5 1.245 . S
O7 Mg0 2.141 . S
O7 C5 1.289 . S
O8 Mg0 2.048 . S
O8 C1 1.195 . S
O9 Mg0 2.048 . S
O9 C10 1.195 . S
C10 O9 1.195 . S
C10 O11 1.313 . S
O11 C10 1.313 . S
O12 Mg0 2.141 . S
O12 C3 1.289 1_554 S
Mg13 O20 2.141 . S
Mg13 O21 2.048 . S
Mg13 O22 2.048 . S
Mg13 O25 2.141 . S
C14 O15 1.313 . S
C14 O21 1.195 . S
O15 C14 1.313 . S
C16 O17 1.245 . S
C16 O25 1.289 . S
O17 C16 1.245 . S
C18 O19 1.245 . S
C18 O20 1.289 . S
O19 C18 1.245 . S
O20 Mg13 2.141 . S
O20 C18 1.289 . S
O21 Mg13 2.048 . S
O21 C14 1.195 . S
O22 Mg13 2.048 . S
O22 C23 1.195 . S
C23 O22 1.195 . S
C23 O24 1.313 . S
O24 C23 1.313 . S
O25 Mg13 2.141 . S
O25 C16 1.289 . S
Mg26 O33 2.141 . S
Mg26 O34 2.048 . S
Mg26 O35 2.048 . S
Mg26 O38 2.141 . S
C27 O28 1.313 . S
C27 O34 1.195 . S
O28 C27 1.313 . S
C29 O30 1.245 . S
C29 O38 1.289 . S
O30 C29 1.245 . S
C31 O32 1.245 . S
C31 O33 1.289 . S
O32 C31 1.245 . S
O33 Mg26 2.141 . S
O33 C31 1.289 . S
O34 Mg26 2.048 . S
O34 C27 1.195 . S
O35 Mg26 2.048 . S
O35 C36 1.195 . S
C36 O35 1.195 . S
C36 O37 1.313 . S
O37 C36 1.313 . S
O38 Mg26 2.141 . S
O38 C29 1.289 . S
Mg39 O46 2.141 . S
Mg39 O47 2.048 . S
Mg39 O48 2.048 . S
Mg39 O51 2.141 . S
C40 O41 1.313 . S
C40 O47 1.195 . S
O41 C40 1.313 . S
C42 O43 1.245 . S
C42 O51 1.289 . S
O43 C42 1.245 . S
C44 O45 1.245 . S
C44 O46 1.289 . S
O45 C44 1.245 . S
O46 Mg39 2.141 . S
O46 C44 1.289 . S
O47 Mg39 2.048 . S
O47 C40 1.195 . S
O48 Mg39 2.048 . S
O48 C49 1.195 . S
C49 O48 1.195 . S
C49 O50 1.313 . S
O50 C49 1.313 . S
O51 Mg39 2.141 . S
O51 C42 1.289 . S
Mg52 O59 2.141 . S
Mg52 O60 2.048 . S
Mg52 O61 2.048 . S
Mg52 O64 2.141 . S
C53 O54 1.313 . S
C53 O60 1.195 . S
O54 C53 1.313 . S
C55 O56 1.245 . S
C55 O64 1.289 . S
O56 C55 1.245 . S
C57 O58 1.245 . S
C57 O59 1.289 . S
O58 C57 1.245 . S
O59 Mg52 2.141 . S
O59 C57 1.289 . S
O60 Mg52 2.048 . S
O60 C53 1.195 . S
O61 Mg52 2.048 . S
O61 C62 1.195 . S
C62 O61 1.195 . S
C62 O63 1.313 . S
O63 C62 1.313 . S
O64 Mg52 2.141 . S
O64 C55 1.289 . S
Mg65 O72 2.141 . S
Mg65 O73 2.048 . S
Mg65 O74 2.048 . S
Mg65 O77 2.141 . S
C66 O67 1.313 . S
C66 O73 1.195 . S
O67 C66 1.313 . S
C68 O69 1.245 . S
C68 O77 1.289 . S
O69 C68 1.245 . S
C70 O71 1.245 . S
C70 O72 1.289 . S
O71 C70 1.245 . S
O72 Mg65 2.141 . S
O72 C70 1.289 . S
O73 Mg65 2.048 . S
O73 C66 1.195 . S
O74 Mg65 2.048 . S
O74 C75 1.195 . S
C75 O74 1.195 . S
C75 O76 1.313 . S
O76 C75 1.313 . S
O77 Mg65 2.141 . S
O77 C68 1.289 . S
Mg78 O85 2.141 . S
Mg78 O86 2.048 1_554 S
Mg78 O87 2.048 . S
Mg78 O90 2.141 . S
C79 O80 1.313 . S
C79 O86 1.195 . S
O80 C79 1.313 . S
C81 O82 1.245 . S
C81 O90 1.289 . S
O82 C81 1.245 . S
C83 O84 1.245 . S
C83 O85 1.289 . S
O84 C83 1.245 . S
O85 Mg78 2.141 . S
O85 C83 1.289 . S
O86 Mg78 2.048 1_556 S
O86 C79 1.195 . S
O87 Mg78 2.048 . S
O87 C88 1.195 . S
C88 O87 1.195 . S
C88 O89 1.313 . S
O89 C88 1.313 . S
O90 Mg78 2.141 . S
O90 C81 1.289 . S
Mg91 O98 2.141 . S
Mg91 O99 2.048 . S
Mg91 O100 2.048 . S
Mg91 O103 2.141 . S
C92 O93 1.313 . S
C92 O99 1.195 . S
O93 C92 1.313 . S
C94 O95 1.245 . S
C94 O103 1.289 . S
O95 C94 1.245 . S
C96 O97 1.245 . S
C96 O98 1.289 . S
O97 C96 1.245 . S
O98 Mg91 2.141 . S
O98 C96 1.289 . S
O99 Mg91 2.048 . S
O99 C92 1.195 . S
O100 Mg91 2.048 . S
O100 C101 1.195 . S
C101 O100 1.195 . S
C101 O102 1.313 . S
O102 C101 1.313 . S
O103 Mg91 2.141 . S
O103 C94 1.289 . S
Mg104 O111 2.141 . S
Mg104 O112 2.048 . S
Mg104 O113 2.048 1_554 S
Mg104 O116 2.141 . S
C105 O106 1.313 . S
C105 O112 1.195 . S
O106 C105 1.313 . S
C107 O108 1.245 . S
C107 O116 1.289 . S
O108 C107 1.245 . S
C109 O110 1.245 . S
C109 O111 1.289 . S
O110 C109 1.245 . S
O111 Mg104 2.141 . S
O111 C109 1.289 . S
O112 Mg104 2.048 . S
O112 C105 1.195 . S
O113 Mg104 2.048 1_556 S
O113 C114 1.195 . S
C114 O113 1.195 . S
C114 O115 1.313 . S
O115 C114 1.313 . S
O116 Mg104 2.141 . S
O116 C107 1.289 . S
Mg117 O124 2.141 . S
Mg117 O125 2.048 . S
Mg117 O126 2.048 . S
Mg117 O129 2.141 . S
C118 O119 1.313 . S
C118 O125 1.195 . S
O119 C118 1.313 . S
C120 O121 1.245 . S
C120 O129 1.289 . S
O121 C120 1.245 . S
C122 O123 1.245 . S
C122 O124 1.289 . S
O123 C122 1.245 . S
O124 Mg117 2.141 . S
O124 C122 1.289 . S
O125 Mg117 2.048 . S
O125 C118 1.195 . S
O126 Mg117 2.048 . S
O126 C127 1.195 . S
C127 O126 1.195 . S
C127 O128 1.313 . S
O128 C127 1.313 . S
O129 Mg117 2.141 . S
O129 C120 1.289 . S
Mg130 O137 2.141 . S
Mg130 O138 2.048 . S
Mg130 O139 2.048 . S
Mg130 O142 2.141 . S
C131 O132 1.313 . S
C131 O138 1.195 . S
O132 C131 1.313 . S
C133 O134 1.245 . S
C133 O142 1.289 . S
O134 C133 1.245 . S
C135 O136 1.245 . S
C135 O137 1.289 . S
O136 C135 1.245 . S
O137 Mg130 2.141 . S
O137 C135 1.289 . S
O138 Mg130 2.048 . S
O138 C131 1.195 . S
O139 Mg130 2.048 . S
O139 C140 1.195 . S
C140 O139 1.195 . S
C140 O141 1.313 . S
O141 C140 1.313 . S
O142 Mg130 2.141 . S
O142 C133 1.289 . S
Mg143 O150 2.141 . S
Mg143 O151 2.048 . S
Mg143 O152 2.048 . S
Mg143 O155 2.141 . S
C144 O145 1.313 . S
C144 O151 1.195 . S
O145 C144 1.313 . S
C146 O147 1.245 . S
C146 O155 1.289 . S
O147 C146 1.245 . S
C148 O149 1.245 . S
C148 O150 1.289 . S
O149 C148 1.245 . S
O150 Mg143 2.141 . S
O150 C148 1.289 . S
O151 Mg143 2.048 . S
O151 C144 1.195 . S
O152 Mg143 2.048 . S
O152 C153 1.195 . S
C153 O152 1.195 . S
C153 O154 1.313 . S
O154 C153 1.313 . S
O155 Mg143 2.141 . S
O155 C146 1.289 . S
Mg156 O163 2.141 . S
Mg156 O164 2.048 . S
Mg156 O165 2.048 . S
Mg156 O168 2.141 . S
C157 O158 1.313 . S
C157 O164 1.195 . S
O158 C157 1.313 . S
C159 O160 1.245 . S
C159 O168 1.289 . S
O160 C159 1.245 . S
C161 O162 1.245 . S
C161 O163 1.289 . S
O162 C161 1.245 . S
O163 Mg156 2.141 . S
O163 C161 1.289 . S
O164 Mg156 2.048 . S
O164 C157 1.195 . S
O165 Mg156 2.048 . S
O165 C166 1.195 . S
C166 O165 1.195 . S
C166 O167 1.313 . S
O167 C166 1.313 . S
O168 Mg156 2.141 . S
O168 C159 1.289 . S
Mg169 O176 2.141 . S
Mg169 O177 2.048 . S
Mg169 O178 2.048 . S
Mg169 O181 2.141 . S
C170 O171 1.313 . S
C170 O177 1.195 . S
O171 C170 1.313 . S
C172 O173 1.245 . S
C172 O181 1.289 . S
O173 C172 1.245 . S
C174 O175 1.245 . S
C174 O176 1.289 . S
O175 C174 1.245 . S
O176 Mg169 2.141 . S
O176 C174 1.289 . S
O177 Mg169 2.048 . S
O177 C170 1.195 . S
O178 Mg169 2.048 . S
O178 C179 1.195 . S
C179 O178 1.195 . S
C179 O180 1.313 . S
O180 C179 1.313 . S
O181 Mg169 2.141 . S
O181 C172 1.289 . S
Mg182 O189 2.141 . S
Mg182 O190 2.048 . S
Mg182 O191 2.048 . S
Mg182 O194 2.141 . S
C183 O184 1.313 . S
C183 O190 1.195 . S
O184 C183 1.313 . S
C185 O186 1.245 . S
C185 O194 1.289 . S
O186 C185 1.245 . S
C187 O188 1.245 . S
C187 O189 1.289 1_556 S
O188 C187 1.245 . S
O189 Mg182 2.141 . S
O189 C187 1.289 1_554 S
O190 Mg182 2.048 . S
O190 C183 1.195 . S
O191 Mg182 2.048 . S
O191 C192 1.195 . S
C192 O191 1.195 . S
C192 O193 1.313 . S
O193 C192 1.313 . S
O194 Mg182 2.141 . S
O194 C185 1.289 . S
Mg195 O202 2.141 . S
Mg195 O203 2.048 . S
Mg195 O204 2.048 . S
Mg195 O207 2.141 . S
C196 O197 1.313 . S
C196 O203 1.195 . S
O197 C196 1.313 . S
C198 O199 1.245 . S
C198 O207 1.289 . S
O199 C198 1.245 . S
C200 O201 1.245 . S
C200 O202 1.289 . S
O201 C200 1.245 . S
O202 Mg195 2.141 . S
O202 C200 1.289 . S
O203 Mg195 2.048 . S
O203 C196 1.195 . S
O204 Mg195 2.048 . S
O204 C205 1.195 . S
C205 O204 1.195 . S
C205 O206 1.313 . S
O206 C205 1.313 . S
O207 Mg195 2.141 . S
O207 C198 1.289 . S
Mg208 O215 2.141 . S
Mg208 O216 2.048 . S
Mg208 O217 2.048 1_565 S
Mg208 O220 2.141 . S
C209 O210 1.313 . S
C209 O216 1.195 . S
O210 C209 1.313 . S
C211 O212 1.245 . S
C211 O220 1.289 . S
O212 C211 1.245 . S
C213 O214 1.245 . S
C213 O215 1.289 . S
O214 C213 1.245 . S
O215 Mg208 2.141 . S
O215 C213 1.289 . S
O216 Mg208 2.048 . S
O216 C209 1.195 . S
O217 Mg208 2.048 1_545 S
O217 C218 1.195 . S
C218 O217 1.195 . S
C218 O219 1.313 1_545 S
O219 C218 1.313 1_565 S
O220 Mg208 2.141 . S
O220 C211 1.289 . S
Mg221 O228 2.141 . S
Mg221 O229 2.048 . S
Mg221 O230 2.048 . S
Mg221 O233 2.141 . S
C222 O223 1.313 . S
C222 O229 1.195 . S
O223 C222 1.313 . S
C224 O225 1.245 . S
C224 O233 1.289 . S
O225 C224 1.245 . S
C226 O227 1.245 . S
C226 O228 1.289 . S
O227 C226 1.245 . S
O228 Mg221 2.141 . S
O228 C226 1.289 . S
O229 Mg221 2.048 . S
O229 C222 1.195 . S
O230 Mg221 2.048 . S
O230 C231 1.195 . S
C231 O230 1.195 . S
C231 O232 1.313 . S
O232 C231 1.313 . S
O233 Mg221 2.141 . S
O233 C224 1.289 . S
Mg234 O241 2.141 . S
Mg234 O242 2.048 . S
Mg234 O243 2.048 1_545 S
Mg234 O246 2.141 . S
C235 O236 1.313 . S
C235 O242 1.195 . S
O236 C235 1.313 . S
C237 O238 1.245 . S
C237 O246 1.289 1_556 S
O238 C237 1.245 . S
C239 O240 1.245 . S
C239 O241 1.289 . S
O240 C239 1.245 . S
O241 Mg234 2.141 . S
O241 C239 1.289 . S
O242 Mg234 2.048 . S
O242 C235 1.195 . S
O243 Mg234 2.048 1_565 S
O243 C244 1.195 . S
C244 O243 1.195 . S
C244 O245 1.313 1_565 S
O245 C244 1.313 1_545 S
O246 Mg234 2.141 . S
O246 C237 1.289 1_554 S
Mg247 O254 2.141 . S
Mg247 O255 2.048 . S
Mg247 O256 2.048 . S
Mg247 O259 2.141 . S
C248 O249 1.313 . S
C248 O255 1.195 . S
O249 C248 1.313 . S
C250 O251 1.245 . S
C250 O259 1.289 . S
O251 C250 1.245 . S
C252 O253 1.245 . S
C252 O254 1.289 . S
O253 C252 1.245 . S
O254 Mg247 2.141 . S
O254 C252 1.289 . S
O255 Mg247 2.048 . S
O255 C248 1.195 . S
O256 Mg247 2.048 . S
O256 C257 1.195 . S
C257 O256 1.195 . S
C257 O258 1.313 . S
O258 C257 1.313 . S
O259 Mg247 2.141 . S
O259 C250 1.289 . S
Mg260 O267 2.141 . S
Mg260 O268 2.048 1_554 S
Mg260 O269 2.048 1_545 S
Mg260 O272 2.141 . S
C261 O262 1.313 . S
C261 O268 1.195 . S
O262 C261 1.313 . S
C263 O264 1.245 . S
C263 O272 1.289 . S
O264 C263 1.245 . S
C265 O266 1.245 . S
C265 O267 1.289 . S
O266 C265 1.245 . S
O267 Mg260 2.141 . S
O267 C265 1.289 . S
O268 Mg260 2.048 1_556 S
O268 C261 1.195 . S
O269 Mg260 2.048 1_565 S
O269 C270 1.195 . S
C270 O269 1.195 . S
C270 O271 1.313 1_565 S
O271 C270 1.313 1_545 S
O272 Mg260 2.141 . S
O272 C263 1.289 . S
Mg273 O280 2.141 . S
Mg273 O281 2.048 . S
Mg273 O282 2.048 . S
Mg273 O285 2.141 . S
C274 O275 1.313 . S
C274 O281 1.195 . S
O275 C274 1.313 . S
C276 O277 1.245 . S
C276 O285 1.289 . S
O277 C276 1.245 . S
C278 O279 1.245 . S
C278 O280 1.289 . S
O279 C278 1.245 . S
O280 Mg273 2.141 . S
O280 C278 1.289 . S
O281 Mg273 2.048 . S
O281 C274 1.195 . S
O282 Mg273 2.048 . S
O282 C283 1.195 . S
C283 O282 1.195 . S
C283 O284 1.313 . S
O284 C283 1.313 . S
O285 Mg273 2.141 . S
O285 C276 1.289 . S
Mg286 O293 2.141 . S
Mg286 O294 2.048 . S
Mg286 O295 2.048 1_565 S
Mg286 O298 2.141 . S
C287 O288 1.313 . S
C287 O294 1.195 . S
O288 C287 1.313 . S
C289 O290 1.245 . S
C289 O298 1.289 . S
O290 C289 1.245 . S
C291 O292 1.245 . S
C291 O293 1.289 . S
O292 C291 1.245 . S
O293 Mg286 2.141 . S
O293 C291 1.289 . S
O294 Mg286 2.048 . S
O294 C287 1.195 . S
O295 Mg286 2.048 1_545 S
O295 C296 1.195 . S
C296 O295 1.195 . S
C296 O297 1.313 1_545 S
O297 C296 1.313 1_565 S
O298 Mg286 2.141 . S
O298 C289 1.289 . S
Mg299 O306 2.141 . S
Mg299 O307 2.048 . S
Mg299 O308 2.048 . S
Mg299 O311 2.141 . S
C300 O301 1.313 . S
C300 O307 1.195 . S
O301 C300 1.313 . S
C302 O303 1.245 . S
C302 O311 1.289 . S
O303 C302 1.245 . S
C304 O305 1.245 . S
C304 O306 1.289 . S
O305 C304 1.245 . S
O306 Mg299 2.141 . S
O306 C304 1.289 . S
O307 Mg299 2.048 . S
O307 C300 1.195 . S
O308 Mg299 2.048 . S
O308 C309 1.195 . S
C309 O308 1.195 . S
C309 O310 1.313 . S
O310 C309 1.313 . S
O311 Mg299 2.141 . S
O311 C302 1.289 . S
Mg312 O319 2.141 . S
Mg312 O320 2.048 1_545 S
Mg312 O321 2.048 . S
Mg312 O324 2.141 . S
C313 O314 1.313 1_565 S
C313 O320 1.195 . S
O314 C313 1.313 1_545 S
C315 O316 1.245 . S
C315 O324 1.289 . S
O316 C315 1.245 . S
C317 O318 1.245 . S
C317 O319 1.289 . S
O318 C317 1.245 . S
O319 Mg312 2.141 . S
O319 C317 1.289 . S
O320 Mg312 2.048 1_565 S
O320 C313 1.195 . S
O321 Mg312 2.048 . S
O321 C322 1.195 . S
C322 O321 1.195 . S
C322 O323 1.313 . S
O323 C322 1.313 . S
O324 Mg312 2.141 . S
O324 C315 1.289 . S
Mg325 O332 2.141 . S
Mg325 O333 2.048 . S
Mg325 O334 2.048 . S
Mg325 O337 2.141 . S
C326 O327 1.313 . S
C326 O333 1.195 . S
O327 C326 1.313 . S
C328 O329 1.245 . S
C328 O337 1.289 . S
O329 C328 1.245 . S
C330 O331 1.245 . S
C330 O332 1.289 . S
O331 C330 1.245 . S
O332 Mg325 2.141 . S
O332 C330 1.289 . S
O333 Mg325 2.048 . S
O333 C326 1.195 . S
O334 Mg325 2.048 . S
O334 C335 1.195 . S
C335 O334 1.195 . S
C335 O336 1.313 . S
O336 C335 1.313 . S
O337 Mg325 2.141 . S
O337 C328 1.289 . S
Mg338 O345 2.141 . S
Mg338 O346 2.048 1_565 S
Mg338 O347 2.048 1_554 S
Mg338 O350 2.141 . S
C339 O340 1.313 1_545 S
C339 O346 1.195 . S
O340 C339 1.313 1_565 S
C341 O342 1.245 . S
C341 O350 1.289 . S
O342 C341 1.245 . S
C343 O344 1.245 . S
C343 O345 1.289 . S
O344 C343 1.245 . S
O345 Mg338 2.141 . S
O345 C343 1.289 . S
O346 Mg338 2.048 1_545 S
O346 C339 1.195 . S
O347 Mg338 2.048 1_556 S
O347 C348 1.195 . S
C348 O347 1.195 . S
C348 O349 1.313 . S
O349 C348 1.313 . S
O350 Mg338 2.141 . S
O350 C341 1.289 . S
Mg351 O358 2.141 . S
Mg351 O359 2.048 . S
Mg351 O360 2.048 . S
Mg351 O363 2.141 . S
C352 O353 1.313 . S
C352 O359 1.195 . S
O353 C352 1.313 . S
C354 O355 1.245 . S
C354 O363 1.289 . S
O355 C354 1.245 . S
C356 O357 1.245 . S
C356 O358 1.289 . S
O357 C356 1.245 . S
O358 Mg351 2.141 . S
O358 C356 1.289 . S
O359 Mg351 2.048 . S
O359 C352 1.195 . S
O360 Mg351 2.048 . S
O360 C361 1.195 . S
C361 O360 1.195 . S
C361 O362 1.313 . S
O362 C361 1.313 . S
O363 Mg351 2.141 . S
O363 C354 1.289 . S
Mg364 O371 2.141 . S
Mg364 O372 2.048 1_565 S
Mg364 O373 2.048 . S
Mg364 O376 2.141 . S
C365 O366 1.313 1_545 S
C365 O372 1.195 . S
O366 C365 1.313 1_565 S
C367 O368 1.245 . S
C367 O376 1.289 . S
O368 C367 1.245 . S
C369 O370 1.245 . S
C369 O371 1.289 1_556 S
O370 C369 1.245 . S
O371 Mg364 2.141 . S
O371 C369 1.289 1_554 S
O372 Mg364 2.048 1_545 S
O372 C365 1.195 . S
O373 Mg364 2.048 . S
O373 C374 1.195 . S
C374 O373 1.195 . S
C374 O375 1.313 . S
O375 C374 1.313 . S
O376 Mg364 2.141 . S
O376 C367 1.289 . S
Mg377 O384 2.141 . S
Mg377 O385 2.048 . S
Mg377 O386 2.048 . S
Mg377 O389 2.141 . S
C378 O379 1.313 . S
C378 O385 1.195 . S
O379 C378 1.313 . S
C380 O381 1.245 . S
C380 O389 1.289 . S
O381 C380 1.245 . S
C382 O383 1.245 . S
C382 O384 1.289 . S
O383 C382 1.245 . S
O384 Mg377 2.141 . S
O384 C382 1.289 . S
O385 Mg377 2.048 . S
O385 C378 1.195 . S
O386 Mg377 2.048 . S
O386 C387 1.195 . S
C387 O386 1.195 . S
C387 O388 1.313 . S
O388 C387 1.313 . S
O389 Mg377 2.141 . S
O389 C380 1.289 . S
Mg390 O397 2.141 . S
Mg390 O398 2.048 1_545 S
Mg390 O399 2.048 . S
Mg390 O402 2.141 . S
C391 O392 1.313 1_565 S
C391 O398 1.195 . S
O392 C391 1.313 1_545 S
C393 O394 1.245 . S
C393 O402 1.289 . S
O394 C393 1.245 . S
C395 O396 1.245 . S
C395 O397 1.289 . S
O396 C395 1.245 . S
O397 Mg390 2.141 . S
O397 C395 1.289 . S
O398 Mg390 2.048 1_565 S
O398 C391 1.195 . S
O399 Mg390 2.048 . S
O399 C400 1.195 . S
C400 O399 1.195 . S
C400 O401 1.313 . S
O401 C400 1.313 . S
O402 Mg390 2.141 . S
O402 C393 1.289 . S
Mg403 O410 2.141 . S
Mg403 O411 2.048 . S
Mg403 O412 2.048 . S
Mg403 O415 2.141 . S
C404 O405 1.313 . S
C404 O411 1.195 . S
O405 C404 1.313 . S
C406 O407 1.245 . S
C406 O415 1.289 . S
O407 C406 1.245 . S
C408 O409 1.245 . S
C408 O410 1.289 . S
O409 C408 1.245 . S
O410 Mg403 2.141 . S
O410 C408 1.289 . S
O411 Mg403 2.048 . S
O411 C404 1.195 . S
O412 Mg403 2.048 . S
O412 C413 1.195 . S
C413 O412 1.195 . S
C413 O414 1.313 . S
O414 C413 1.313 . S
O415 Mg403 2.141 . S
O415 C406 1.289 . S
H416 C424 0.950 . S
H417 C429 0.950 1_556 S
H418 C426 0.950 . S
H419 C428 0.950 1_556 S
H420 C430 0.950 . S
H421 C432 0.928 1_556 S
H422 C434 0.950 . S
H423 C435 0.950 . S
C424 H416 0.950 . S
C424 C425 1.386 . S
C424 C426 1.391 . S
C425 C424 1.386 . S
C425 C429 1.393 . S
C426 H418 0.950 . S
C426 C424 1.391 . S
C426 C427 1.400 . S
C427 C426 1.400 . S
C427 C428 1.398 . S
C427 C433 1.491 1_655 S
C428 H419 0.950 1_554 S
C428 C427 1.398 . S
C428 C429 1.391 . S
C429 H417 0.950 1_554 S
C429 C425 1.393 . S
C429 C428 1.391 . S
C430 H420 0.950 . S
C430 C431 1.386 . S
C430 C432 1.391 . S
C431 C430 1.386 . S
C431 C435 1.393 . S
C432 H421 0.928 1_554 S
C432 C430 1.391 . S
C432 C433 1.400 . S
C433 C427 1.491 1_455 S
C433 C432 1.400 . S
C433 C434 1.398 . S
C434 H422 0.950 . S
C434 C433 1.398 . S
C434 C435 1.391 . S
C435 H423 0.950 . S
C435 C431 1.393 . S
C435 C434 1.391 . S
H436 C444 0.950 . S
H437 C449 0.950 . S
H438 C446 0.950 . S
H439 C448 0.950 . S
H440 C450 0.950 . S
H441 C452 0.950 . S
H442 C454 0.950 . S
H443 C455 0.950 . S
C444 H436 0.950 . S
C444 C445 1.386 . S
C444 C446 1.391 . S
C445 C444 1.386 . S
C445 C449 1.393 . S
C446 H438 0.950 . S
C446 C444 1.391 . S
C446 C447 1.400 . S
C447 C446 1.400 . S
C447 C448 1.398 . S
C447 C453 1.491 . S
C448 H439 0.950 . S
C448 C447 1.398 . S
C448 C449 1.391 . S
C449 H437 0.950 . S
C449 C445 1.393 . S
C449 C448 1.391 . S
C450 H440 0.950 . S
C450 C451 1.386 . S
C450 C452 1.391 . S
C451 C450 1.386 . S
C451 C455 1.393 . S
C452 H441 0.950 . S
C452 C450 1.391 . S
C452 C453 1.400 . S
C453 C447 1.491 . S
C453 C452 1.400 . S
C453 C454 1.398 . S
C454 H442 0.950 . S
C454 C453 1.398 . S
C454 C455 1.391 . S
C455 H443 0.950 . S
C455 C451 1.393 . S
C455 C454 1.391 . S
H456 C464 0.950 . S
H457 C469 0.950 . S
H458 C466 0.950 . S
H459 C468 0.950 . S
H460 C470 0.950 . S
H461 C472 0.950 . S
H462 C474 0.950 . S
H463 C475 0.950 . S
C464 H456 0.950 . S
C464 C465 1.386 . S
C464 C466 1.391 . S
C465 C464 1.386 . S
C465 C469 1.393 . S
C466 H458 0.950 . S
C466 C464 1.391 . S
C466 C467 1.400 . S
C467 C466 1.400 . S
C467 C468 1.398 . S
C467 C473 1.491 . S
C468 H459 0.950 . S
C468 C467 1.398 . S
C468 C469 1.391 . S
C469 H457 0.950 . S
C469 C465 1.393 . S
C469 C468 1.391 . S
C470 H460 0.950 . S
C470 C471 1.386 . S
C470 C472 1.391 . S
C471 C470 1.386 . S
C471 C475 1.393 . S
C472 H461 0.950 . S
C472 C470 1.391 . S
C472 C473 1.400 . S
C473 C467 1.491 . S
C473 C472 1.400 . S
C473 C474 1.398 . S
C474 H462 0.950 . S
C474 C473 1.398 . S
C474 C475 1.391 . S
C475 H463 0.950 . S
C475 C471 1.393 . S
C475 C474 1.391 . S
H476 C484 0.950 . S
H477 C489 0.950 . S
H478 C486 0.950 . S
H479 C488 0.950 . S
H480 C490 0.950 . S
H481 C492 0.950 . S
H482 C494 0.950 . S
H483 C495 0.950 . S
C484 H476 0.950 . S
C484 C485 1.386 . S
C484 C486 1.391 . S
C485 C484 1.386 . S
C485 C489 1.393 . S
C486 H478 0.950 . S
C486 C484 1.391 . S
C486 C487 1.400 . S
C487 C486 1.400 . S
C487 C488 1.398 . S
C487 C493 1.491 . S
C488 H479 0.950 . S
C488 C487 1.398 . S
C488 C489 1.391 . S
C489 H477 0.950 . S
C489 C485 1.393 . S
C489 C488 1.391 . S
C490 H480 0.950 . S
C490 C491 1.386 . S
C490 C492 1.391 . S
C491 C490 1.386 . S
C491 C495 1.393 . S
C492 H481 0.950 . S
C492 C490 1.391 . S
C492 C493 1.400 . S
C493 C487 1.491 . S
C493 C492 1.400 . S
C493 C494 1.398 . S
C494 H482 0.950 . S
C494 C493 1.398 . S
C494 C495 1.391 . S
C495 H483 0.950 . S
C495 C491 1.393 . S
C495 C494 1.391 . S
H496 C504 0.950 . S
H497 C509 0.950 . S
H498 C506 0.950 . S
H499 C508 0.950 . S
H500 C510 0.950 . S
H501 C512 0.950 . S
H502 C514 0.950 . S
H503 C515 0.950 . S
C504 H496 0.950 . S
C504 C505 1.386 . S
C504 C506 1.391 . S
C505 C504 1.386 . S
C505 C509 1.393 . S
C506 H498 0.950 . S
C506 C504 1.391 . S
C506 C507 1.400 . S
C507 C506 1.400 . S
C507 C508 1.398 . S
C507 C513 1.491 1_455 S
C508 H499 0.950 . S
C508 C507 1.398 . S
C508 C509 1.391 . S
C509 H497 0.950 . S
C509 C505 1.393 . S
C509 C508 1.391 . S
C510 H500 0.950 . S
C510 C511 1.386 . S
C510 C512 1.391 . S
C511 C510 1.386 . S
C511 C515 1.393 . S
C512 H501 0.950 . S
C512 C510 1.391 . S
C512 C513 1.400 . S
C513 C507 1.491 1_655 S
C513 C512 1.400 . S
C513 C514 1.398 . S
C514 H502 0.950 . S
C514 C513 1.398 . S
C514 C515 1.391 . S
C515 H503 0.950 . S
C515 C511 1.393 . S
C515 C514 1.391 . S
H516 C524 0.950 . S
H517 C529 0.950 . S
H518 C526 0.950 . S
H519 C528 0.950 . S
H520 C530 0.950 . S
H521 C532 0.950 . S
H522 C534 0.950 . S
H523 C535 0.950 . S
C524 H516 0.950 . S
C524 C525 1.386 . S
C524 C526 1.391 . S
C525 C524 1.386 . S
C525 C529 1.393 . S
C526 H518 0.950 . S
C526 C524 1.391 . S
C526 C527 1.400 . S
C527 C526 1.400 . S
C527 C528 1.398 . S
C527 C533 1.491 . S
C528 H519 0.950 . S
C528 C527 1.398 . S
C528 C529 1.391 . S
C529 H517 0.950 . S
C529 C525 1.393 . S
C529 C528 1.391 . S
C530 H520 0.950 . S
C530 C531 1.386 . S
C530 C532 1.391 . S
C531 C530 1.386 . S
C531 C535 1.393 . S
C532 H521 0.950 . S
C532 C530 1.391 . S
C532 C533 1.400 . S
C533 C527 1.491 . S
C533 C532 1.400 . S
C533 C534 1.398 . S
C534 H522 0.950 . S
C534 C533 1.398 . S
C534 C535 1.391 . S
C535 H523 0.950 . S
C535 C531 1.393 . S
C535 C534 1.391 . S
H536 C544 0.950 . S
H537 C549 0.950 . S
H538 C546 0.950 . S
H539 C548 0.950 . S
H540 C550 0.950 . S
H541 C552 0.950 . S
H542 C554 0.950 . S
H543 C555 0.950 . S
C544 H536 0.950 . S
C544 C545 1.386 . S
C544 C546 1.391 . S
C545 C544 1.386 . S
C545 C549 1.393 . S
C546 H538 0.950 . S
C546 C544 1.391 . S
C546 C547 1.400 . S
C547 C546 1.400 . S
C547 C548 1.398 . S
C547 C553 1.491 . S
C548 H539 0.950 . S
C548 C547 1.398 . S
C548 C549 1.391 . S
C549 H537 0.950 . S
C549 C545 1.393 . S
C549 C548 1.391 . S
C550 H540 0.950 . S
C550 C551 1.386 . S
C550 C552 1.391 . S
C551 C550 1.386 . S
C551 C555 1.393 . S
C552 H541 0.950 . S
C552 C550 1.391 . S
C552 C553 1.400 . S
C553 C547 1.491 . S
C553 C552 1.400 . S
C553 C554 1.398 . S
C554 H542 0.950 . S
C554 C553 1.398 . S
C554 C555 1.391 . S
C555 H543 0.950 . S
C555 C551 1.393 . S
C555 C554 1.391 . S
H556 C564 0.950 . S
H557 C569 0.950 . S
H558 C566 0.950 . S
H559 C568 0.950 . S
H560 C570 0.950 . S
H561 C572 0.950 . S
H562 C574 0.950 . S
H563 C575 0.950 . S
C564 H556 0.950 . S
C564 C565 1.386 . S
C564 C566 1.391 . S
C565 C564 1.386 . S
C565 C569 1.393 . S
C566 H558 0.950 . S
C566 C564 1.391 . S
C566 C567 1.400 . S
C567 C566 1.400 . S
C567 C568 1.398 . S
C567 C573 1.491 . S
C568 H559 0.950 . S
C568 C567 1.398 . S
C568 C569 1.391 . S
C569 H557 0.950 . S
C569 C565 1.393 . S
C569 C568 1.391 . S
C570 H560 0.950 . S
C570 C571 1.386 . S
C570 C572 1.391 . S
C571 C570 1.386 . S
C571 C575 1.393 . S
C572 H561 0.950 . S
C572 C570 1.391 . S
C572 C573 1.400 . S
C573 C567 1.491 . S
C573 C572 1.400 . S
C573 C574 1.398 . S
C574 H562 0.950 . S
C574 C573 1.398 . S
C574 C575 1.391 . S
C575 H563 0.950 . S
C575 C571 1.393 . S
C575 C574 1.391 . S
H576 C584 0.950 . S
H577 C589 0.950 . S
H578 C586 0.950 . S
H579 C588 0.950 . S
H580 C590 0.950 . S
H581 C592 0.950 . S
H582 C594 0.950 . S
H583 C595 0.950 . S
C584 H576 0.950 . S
C584 C585 1.386 . S
C584 C586 1.391 . S
C585 C584 1.386 . S
C585 C589 1.393 . S
C586 H578 0.950 . S
C586 C584 1.391 . S
C586 C587 1.400 . S
C587 C586 1.400 . S
C587 C588 1.398 . S
C587 C593 1.491 . S
C588 H579 0.950 . S
C588 C587 1.398 . S
C588 C589 1.391 . S
C589 H577 0.950 . S
C589 C585 1.393 . S
C589 C588 1.391 . S
C590 H580 0.950 . S
C590 C591 1.386 . S
C590 C592 1.391 . S
C591 C590 1.386 . S
C591 C595 1.393 . S
C592 H581 0.950 . S
C592 C590 1.391 . S
C592 C593 1.400 . S
C593 C587 1.491 . S
C593 C592 1.400 . S
C593 C594 1.398 . S
C594 H582 0.950 . S
C594 C593 1.398 . S
C594 C595 1.391 . S
C595 H583 0.950 . S
C595 C591 1.393 . S
C595 C594 1.391 . S
H596 C604 0.950 . S
H597 C609 0.950 . S
H598 C606 0.950 . S
H599 C608 0.950 . S
H600 C610 0.950 . S
H601 C612 0.950 . S
H602 C614 0.950 . S
H603 C615 0.950 . S
C604 H596 0.950 . S
C604 C605 1.386 . S
C604 C606 1.391 . S
C605 C604 1.386 . S
C605 C609 1.393 . S
C606 H598 0.950 . S
C606 C604 1.391 . S
C606 C607 1.400 . S
C607 C606 1.400 . S
C607 C608 1.398 . S
C607 C613 1.491 . S
C608 H599 0.950 . S
C608 C607 1.398 . S
C608 C609 1.391 . S
C609 H597 0.950 . S
C609 C605 1.393 . S
C609 C608 1.391 . S
C610 H600 0.950 . S
C610 C611 1.386 . S
C610 C612 1.391 . S
C611 C610 1.386 . S
C611 C615 1.393 . S
C612 H601 0.950 . S
C612 C610 1.391 . S
C612 C613 1.400 . S
C613 C607 1.491 . S
C613 C612 1.400 . S
C613 C614 1.398 . S
C614 H602 0.950 . S
C614 C613 1.398 . S
C614 C615 1.391 . S
C615 H603 0.950 . S
C615 C611 1.393 . S
C615 C614 1.391 . S
H616 C624 0.950 . S
H617 C629 0.950 . S
H618 C626 0.950 . S
H619 C628 0.950 . S
H620 C630 0.950 . S
H621 C632 0.950 . S
H622 C634 0.950 . S
H623 C635 0.950 . S
C624 H616 0.950 . S
C624 C625 1.386 . S
C624 C626 1.391 . S
C625 C624 1.386 . S
C625 C629 1.393 . S
C626 H618 0.950 . S
C626 C624 1.391 . S
C626 C627 1.400 . S
C627 C626 1.400 . S
C627 C628 1.398 . S
C627 C633 1.491 . S
C628 H619 0.950 . S
C628 C627 1.398 . S
C628 C629 1.391 . S
C629 H617 0.950 . S
C629 C625 1.393 . S
C629 C628 1.391 . S
C630 H620 0.950 . S
C630 C631 1.386 . S
C630 C632 1.391 . S
C631 C630 1.386 . S
C631 C635 1.393 . S
C632 H621 0.950 . S
C632 C630 1.391 . S
C632 C633 1.400 . S
C633 C627 1.491 . S
C633 C632 1.400 . S
C633 C634 1.398 . S
C634 H622 0.950 . S
C634 C633 1.398 . S
C634 C635 1.391 . S
C635 H623 0.950 . S
C635 C631 1.393 . S
C635 C634 1.391 . S
H636 C644 0.950 . S
H637 C649 0.950 . S
H638 C646 0.950 . S
H639 C648 0.950 . S
H640 C650 0.950 . S
H641 C652 0.950 . S
H642 C654 0.950 . S
H643 C655 0.950 . S
C644 H636 0.950 . S
C644 C645 1.386 . S
C644 C646 1.391 . S
C645 C644 1.386 . S
C645 C649 1.393 . S
C646 H638 0.950 . S
C646 C644 1.391 . S
C646 C647 1.400 . S
C647 C646 1.400 . S
C647 C648 1.398 . S
C647 C653 1.491 . S
C648 H639 0.950 . S
C648 C647 1.398 . S
C648 C649 1.391 . S
C649 H637 0.950 . S
C649 C645 1.393 . S
C649 C648 1.391 . S
C650 H640 0.950 . S
C650 C651 1.386 . S
C650 C652 1.391 . S
C651 C650 1.386 . S
C651 C655 1.393 . S
C652 H641 0.950 . S
C652 C650 1.391 . S
C652 C653 1.400 . S
C653 C647 1.491 . S
C653 C652 1.400 . S
C653 C654 1.398 . S
C654 H642 0.950 . S
C654 C653 1.398 . S
C654 C655 1.391 . S
C655 H643 0.950 . S
C655 C651 1.393 . S
C655 C654 1.391 . S
H656 C664 0.950 . S
H657 C669 0.950 . S
H658 C666 0.950 . S
H659 C668 0.950 . S
H660 C670 0.950 . S
H661 C672 0.950 . S
H662 C674 0.950 . S
H663 C675 0.950 . S
C664 H656 0.950 . S
C664 C665 1.386 1_545 S
C664 C666 1.391 . S
C665 C664 1.386 1_565 S
C665 C669 1.393 . S
C666 H658 0.950 . S
C666 C664 1.391 . S
C666 C667 1.378 1_545 S
C667 C666 1.378 1_565 S
C667 C668 1.428 . S
C667 C673 1.484 1_565 S
C668 H659 0.950 . S
C668 C667 1.428 . S
C668 C669 1.391 . S
C669 H657 0.950 . S
C669 C665 1.393 . S
C669 C668 1.391 . S
C670 H660 0.950 . S
C670 C671 1.386 1_565 S
C670 C672 1.391 . S
C671 C670 1.386 1_545 S
C671 C675 1.393 . S
C672 H661 0.950 . S
C672 C670 1.391 . S
C672 C673 1.378 1_565 S
C673 C667 1.484 1_545 S
C673 C672 1.378 1_545 S
C673 C674 1.428 . S
C674 H662 0.950 . S
C674 C673 1.428 . S
C674 C675 1.391 . S
C675 H663 0.950 . S
C675 C671 1.393 . S
C675 C674 1.391 . S
H676 C684 0.943 1_545 S
H677 C689 0.950 . S
H678 C686 0.950 . S
H679 C688 0.948 . S
H680 C690 0.943 1_566 S
H681 C692 0.950 1_556 S
H682 C694 0.950 . S
H683 C695 0.950 . S
C684 H676 0.943 1_565 S
C684 C685 1.400 . S
C684 C686 1.386 1_565 S
C685 C684 1.400 . S
C685 C689 1.393 . S
C686 H678 0.950 . S
C686 C684 1.386 1_545 S
C686 C687 1.400 1_545 S
C687 C686 1.400 1_565 S
C687 C688 1.398 . S
C687 C693 1.491 1_665 S
C688 H679 0.948 . S
C688 C687 1.398 . S
C688 C689 1.391 . S
C689 H677 0.950 . S
C689 C685 1.393 . S
C689 C688 1.391 . S
C690 H680 0.943 1_544 S
C690 C691 1.400 . S
C690 C692 1.386 1_545 S
C691 C690 1.400 . S
C691 C695 1.393 . S
C692 H681 0.950 1_554 S
C692 C690 1.386 1_565 S
C692 C693 1.400 1_565 S
C693 C687 1.491 1_445 S
C693 C692 1.400 1_545 S
C693 C694 1.398 . S
C694 H682 0.950 . S
C694 C693 1.398 . S
C694 C695 1.391 . S
C695 H683 0.950 . S
C695 C691 1.393 . S
C695 C694 1.391 . S
H696 C704 0.950 . S
H697 C709 0.950 . S
H698 C706 0.950 . S
H699 C708 0.950 . S
H700 C710 0.950 . S
H701 C712 0.950 . S
H702 C714 0.950 . S
H703 C715 0.950 . S
C704 H696 0.950 . S
C704 C705 1.386 1_545 S
C704 C706 1.391 . S
C705 C704 1.386 1_565 S
C705 C709 1.393 . S
C706 H698 0.950 . S
C706 C704 1.391 . S
C706 C707 1.400 1_545 S
C707 C706 1.400 1_565 S
C707 C708 1.398 . S
C707 C713 1.491 1_565 S
C708 H699 0.950 . S
C708 C707 1.398 . S
C708 C709 1.391 . S
C709 H697 0.950 . S
C709 C705 1.393 . S
C709 C708 1.391 . S
C710 H700 0.950 . S
C710 C711 1.386 1_565 S
C710 C712 1.391 . S
C711 C710 1.386 1_545 S
C711 C715 1.393 . S
C712 H701 0.950 . S
C712 C710 1.391 . S
C712 C713 1.400 1_565 S
C713 C707 1.491 1_545 S
C713 C712 1.400 1_545 S
C713 C714 1.398 . S
C714 H702 0.950 . S
C714 C713 1.398 . S
C714 C715 1.391 . S
C715 H703 0.950 . S
C715 C711 1.393 . S
C715 C714 1.391 . S
H716 C724 0.950 . S
H717 C729 0.950 . S
H718 C726 0.950 . S
H719 C728 0.950 . S
H720 C730 0.950 . S
H721 C732 0.950 . S
H722 C734 0.950 . S
H723 C735 0.950 . S
C724 H716 0.950 . S
C724 C725 1.386 . S
C724 C726 1.391 . S
C725 C724 1.386 . S
C725 C729 1.393 1_565 S
C726 H718 0.950 . S
C726 C724 1.391 . S
C726 C727 1.444 . S
C727 C726 1.444 . S
C727 C728 1.362 1_565 S
C727 C733 1.484 1_465 S
C728 H719 0.950 . S
C728 C727 1.362 1_545 S
C728 C729 1.391 . S
C729 H717 0.950 . S
C729 C725 1.393 1_545 S
C729 C728 1.391 . S
C730 H720 0.950 . S
C730 C731 1.386 . S
C730 C732 1.391 . S
C731 C730 1.386 . S
C731 C735 1.393 1_545 S
C732 H721 0.950 . S
C732 C730 1.391 . S
C732 C733 1.444 . S
C733 C727 1.484 1_645 S
C733 C732 1.444 . S
C733 C734 1.362 1_545 S
C734 H722 0.950 . S
C734 C733 1.362 1_565 S
C734 C735 1.391 . S
C735 H723 0.950 . S
C735 C731 1.393 1_565 S
C735 C734 1.391 . S
H736 C744 0.950 . S
H737 C749 0.950 . S
H738 C746 0.950 . S
H739 C748 0.950 . S
H740 C750 0.950 . S
H741 C752 0.950 . S
H742 C754 0.950 . S
H743 C755 0.950 . S
C744 H736 0.950 . S
C744 C745 1.386 . S
C744 C746 1.391 . S
C745 C744 1.386 . S
C745 C749 1.393 . S
C746 H738 0.950 . S
C746 C744 1.391 . S
C746 C747 1.400 . S
C747 C746 1.400 . S
C747 C748 1.398 . S
C747 C753 1.491 . S
C748 H739 0.950 . S
C748 C747 1.398 . S
C748 C749 1.391 . S
C749 H737 0.950 . S
C749 C745 1.393 . S
C749 C748 1.391 . S
C750 H740 0.950 . S
C750 C751 1.386 . S
C750 C752 1.391 . S
C751 C750 1.386 . S
C751 C755 1.393 . S
C752 H741 0.950 . S
C752 C750 1.391 . S
C752 C753 1.400 . S
C753 C747 1.491 . S
C753 C752 1.400 . S
C753 C754 1.398 . S
C754 H742 0.950 . S
C754 C753 1.398 . S
C754 C755 1.391 . S
C755 H743 0.950 . S
C755 C751 1.393 . S
C755 C754 1.391 . S
H756 C764 0.950 . S
H757 C769 0.950 . S
H758 C766 0.950 . S
H759 C768 0.950 . S
H760 C770 0.950 . S
H761 C772 0.950 . S
H762 C774 0.950 . S
H763 C775 0.950 . S
C764 H756 0.950 . S
C764 C765 1.386 . S
C764 C766 1.391 1_556 S
C765 C764 1.386 . S
C765 C769 1.393 . S
C766 H758 0.950 . S
C766 C764 1.391 1_554 S
C766 C767 1.400 . S
C767 C766 1.400 . S
C767 C768 1.398 . S
C767 C773 1.491 . S
C768 H759 0.950 . S
C768 C767 1.398 . S
C768 C769 1.391 1_554 S
C769 H757 0.950 . S
C769 C765 1.393 . S
C769 C768 1.391 1_556 S
C770 H760 0.950 . S
C770 C771 1.386 . S
C770 C772 1.391 . S
C771 C770 1.386 . S
C771 C775 1.393 . S
C772 H761 0.950 . S
C772 C770 1.391 . S
C772 C773 1.400 . S
C773 C767 1.491 . S
C773 C772 1.400 . S
C773 C774 1.398 . S
C774 H762 0.950 . S
C774 C773 1.398 . S
C774 C775 1.391 . S
C775 H763 0.950 . S
C775 C771 1.393 . S
C775 C774 1.391 . S
H776 C784 0.950 . S
H777 C789 0.950 . S
H778 C786 0.950 . S
H779 C788 0.950 . S
H780 C790 0.950 . S
H781 C792 0.950 . S
H782 C794 0.950 . S
H783 C795 0.950 . S
C784 H776 0.950 . S
C784 C785 1.386 . S
C784 C786 1.391 . S
C785 C784 1.386 . S
C785 C789 1.393 . S
C786 H778 0.950 . S
C786 C784 1.391 . S
C786 C787 1.400 . S
C787 C786 1.400 . S
C787 C788 1.398 . S
C787 C793 1.491 . S
C788 H779 0.950 . S
C788 C787 1.398 . S
C788 C789 1.391 . S
C789 H777 0.950 . S
C789 C785 1.393 . S
C789 C788 1.391 . S
C790 H780 0.950 . S
C790 C791 1.386 . S
C790 C792 1.391 . S
C791 C790 1.386 . S
C791 C795 1.393 . S
C792 H781 0.950 . S
C792 C790 1.391 . S
C792 C793 1.400 . S
C793 C787 1.491 . S
C793 C792 1.400 . S
C793 C794 1.398 . S
C794 H782 0.950 . S
C794 C793 1.398 . S
C794 C795 1.391 . S
C795 H783 0.950 . S
C795 C791 1.393 . S
C795 C794 1.391 . S
H796 C804 0.950 . S
H797 C809 0.950 . S
H798 C806 0.950 . S
H799 C808 0.950 . S
H800 C810 0.950 . S
H801 C812 0.950 . S
H802 C814 0.950 . S
H803 C815 0.950 . S
C804 H796 0.950 . S
C804 C805 1.386 . S
C804 C806 1.391 . S
C805 C804 1.386 . S
C805 C809 1.393 . S
C806 H798 0.950 . S
C806 C804 1.391 . S
C806 C807 1.400 . S
C807 C806 1.400 . S
C807 C808 1.398 . S
C807 C813 1.491 . S
C808 H799 0.950 . S
C808 C807 1.398 . S
C808 C809 1.391 . S
C809 H797 0.950 . S
C809 C805 1.393 . S
C809 C808 1.391 . S
C810 H800 0.950 . S
C810 C811 1.386 . S
C810 C812 1.391 . S
C811 C810 1.386 . S
C811 C815 1.393 . S
C812 H801 0.950 . S
C812 C810 1.391 . S
C812 C813 1.400 . S
C813 C807 1.491 . S
C813 C812 1.400 . S
C813 C814 1.398 . S
C814 H802 0.950 . S
C814 C813 1.398 . S
C814 C815 1.391 . S
C815 H803 0.950 . S
C815 C811 1.393 . S
C815 C814 1.391 . S
H816 C824 0.950 . S
H817 C829 0.950 . S
H818 C826 0.950 . S
H819 C828 0.950 . S
H820 C830 0.950 . S
H821 C832 0.950 . S
H822 C834 0.950 . S
H823 C835 0.950 . S
C824 H816 0.950 . S
C824 C825 1.386 . S
C824 C826 1.391 . S
C825 C824 1.386 . S
C825 C829 1.393 . S
C826 H818 0.950 . S
C826 C824 1.391 . S
C826 C827 1.400 . S
C827 C826 1.400 . S
C827 C828 1.398 . S
C827 C833 1.491 . S
C828 H819 0.950 . S
C828 C827 1.398 . S
C828 C829 1.391 . S
C829 H817 0.950 . S
C829 C825 1.393 . S
C829 C828 1.391 . S
C830 H820 0.950 . S
C830 C831 1.386 . S
C830 C832 1.391 . S
C831 C830 1.386 . S
C831 C835 1.393 . S
C832 H821 0.950 . S
C832 C830 1.391 . S
C832 C833 1.400 . S
C833 C827 1.491 . S
C833 C832 1.400 . S
C833 C834 1.398 . S
C834 H822 0.950 . S
C834 C833 1.398 . S
C834 C835 1.391 . S
C835 H823 0.950 . S
C835 C831 1.393 . S
C835 C834 1.391 . S
H836 C844 0.950 . S
H837 C849 0.950 . S
H838 C846 0.950 . S
H839 C848 0.950 . S
H840 C850 0.950 . S
H841 C852 0.950 . S
H842 C854 0.950 . S
H843 C855 0.950 . S
C844 H836 0.950 . S
C844 C845 1.386 . S
C844 C846 1.391 1_556 S
C845 C844 1.386 . S
C845 C849 1.393 . S
C846 H838 0.950 . S
C846 C844 1.391 1_554 S
C846 C847 1.400 . S
C847 C846 1.400 . S
C847 C848 1.398 . S
C847 C853 1.491 . S
C848 H839 0.950 . S
C848 C847 1.398 . S
C848 C849 1.391 1_554 S
C849 H837 0.950 . S
C849 C845 1.393 . S
C849 C848 1.391 1_556 S
C850 H840 0.950 . S
C850 C851 1.386 . S
C850 C852 1.391 . S
C851 C850 1.386 . S
C851 C855 1.393 . S
C852 H841 0.950 . S
C852 C850 1.391 . S
C852 C853 1.400 . S
C853 C847 1.491 . S
C853 C852 1.400 . S
C853 C854 1.398 . S
C854 H842 0.950 . S
C854 C853 1.398 . S
C854 C855 1.391 . S
C855 H843 0.950 . S
C855 C851 1.393 . S
C855 C854 1.391 . S
H856 C864 0.950 . S
H857 C869 0.950 . S
H858 C866 0.950 . S
H859 C868 0.950 . S
H860 C870 0.950 . S
H861 C872 0.950 . S
H862 C874 0.950 . S
H863 C875 0.950 . S
C864 H856 0.950 . S
C864 C865 1.386 . S
C864 C866 1.391 . S
C865 C864 1.386 . S
C865 C869 1.393 . S
C866 H858 0.950 . S
C866 C864 1.391 . S
C866 C867 1.400 . S
C867 C866 1.400 . S
C867 C868 1.398 . S
C867 C873 1.491 . S
C868 H859 0.950 . S
C868 C867 1.398 . S
C868 C869 1.391 . S
C869 H857 0.950 . S
C869 C865 1.393 . S
C869 C868 1.391 . S
C870 H860 0.950 . S
C870 C871 1.386 . S
C870 C872 1.391 . S
C871 C870 1.386 . S
C871 C875 1.393 . S
C872 H861 0.950 . S
C872 C870 1.391 . S
C872 C873 1.400 . S
C873 C867 1.491 . S
C873 C872 1.400 . S
C873 C874 1.398 . S
C874 H862 0.950 . S
C874 C873 1.398 . S
C874 C875 1.391 . S
C875 H863 0.950 . S
C875 C871 1.393 . S
C875 C874 1.391 . S
H876 C884 0.950 . S
H877 C889 0.950 . S
H878 C886 0.950 . S
H879 C888 0.950 . S
H880 C890 0.950 . S
H881 C892 0.950 . S
H882 C894 0.950 . S
H883 C895 0.950 . S
C884 H876 0.950 . S
C884 C885 1.386 . S
C884 C886 1.391 . S
C885 C884 1.386 . S
C885 C889 1.393 . S
C886 H878 0.950 . S
C886 C884 1.391 . S
C886 C887 1.400 . S
C887 C886 1.400 . S
C887 C888 1.398 . S
C887 C893 1.491 . S
C888 H879 0.950 . S
C888 C887 1.398 . S
C888 C889 1.391 . S
C889 H877 0.950 . S
C889 C885 1.393 . S
C889 C888 1.391 . S
C890 H880 0.950 . S
C890 C891 1.386 . S
C890 C892 1.391 . S
C891 C890 1.386 . S
C891 C895 1.393 . S
C892 H881 0.950 . S
C892 C890 1.391 . S
C892 C893 1.400 . S
C893 C887 1.491 . S
C893 C892 1.400 . S
C893 C894 1.398 . S
C894 H882 0.950 . S
C894 C893 1.398 . S
C894 C895 1.391 . S
C895 H883 0.950 . S
C895 C891 1.393 . S
C895 C894 1.391 . S
H896 C904 0.929 1_565 S
H897 C909 0.950 . S
H898 C906 0.950 . S
H899 C908 0.950 . S
H900 C910 0.929 1_545 S
H901 C912 0.950 . S
H902 C914 0.950 . S
H903 C915 0.950 . S
C904 H896 0.929 1_545 S
C904 C905 1.424 . S
C904 C906 1.377 1_545 S
C905 C904 1.424 . S
C905 C909 1.393 . S
C906 H898 0.950 . S
C906 C904 1.377 1_565 S
C906 C907 1.400 1_565 S
C907 C906 1.400 1_545 S
C907 C908 1.398 . S
C907 C913 1.491 1_545 S
C908 H899 0.950 . S
C908 C907 1.398 . S
C908 C909 1.391 . S
C909 H897 0.950 . S
C909 C905 1.393 . S
C909 C908 1.391 . S
C910 H900 0.929 1_565 S
C910 C911 1.424 . S
C910 C912 1.377 1_565 S
C911 C910 1.424 . S
C911 C915 1.393 . S
C912 H901 0.950 . S
C912 C910 1.377 1_545 S
C912 C913 1.400 1_545 S
C913 C907 1.491 1_565 S
C913 C912 1.400 1_565 S
C913 C914 1.398 . S
C914 H902 0.950 . S
C914 C913 1.398 . S
C914 C915 1.391 . S
C915 H903 0.950 . S
C915 C911 1.393 . S
C915 C914 1.391 . S
H916 C924 0.950 . S
H917 C929 0.950 . S
H918 C926 0.950 . S
H919 C928 0.950 . S
H920 C930 0.950 . S
H921 C932 0.950 . S
H922 C934 0.950 . S
H923 C935 0.950 . S
C924 H916 0.950 . S
C924 C925 1.386 . S
C924 C926 1.391 . S
C925 C924 1.386 . S
C925 C929 1.393 . S
C926 H918 0.950 . S
C926 C924 1.391 . S
C926 C927 1.400 . S
C927 C926 1.400 . S
C927 C928 1.398 . S
C927 C933 1.491 . S
C928 H919 0.950 . S
C928 C927 1.398 . S
C928 C929 1.391 . S
C929 H917 0.950 . S
C929 C925 1.393 . S
C929 C928 1.391 . S
C930 H920 0.950 . S
C930 C931 1.386 . S
C930 C932 1.391 . S
C931 C930 1.386 . S
C931 C935 1.393 . S
C932 H921 0.950 . S
C932 C930 1.391 . S
C932 C933 1.400 . S
C933 C927 1.491 . S
C933 C932 1.400 . S
C933 C934 1.398 . S
C934 H922 0.950 . S
C934 C933 1.398 . S
C934 C935 1.391 . S
C935 H923 0.950 . S
C935 C931 1.393 . S
C935 C934 1.391 . S
H936 C944 0.950 . S
H937 C949 0.950 . S
H938 C946 0.950 . S
H939 C948 0.950 1_565 S
H940 C950 0.950 . S
H941 C952 0.950 . S
H942 C954 0.950 1_545 S
H943 C955 0.950 . S
C944 H936 0.950 . S
C944 C945 1.386 . S
C944 C946 1.391 . S
C945 C944 1.386 . S
C945 C949 1.393 . S
C946 H938 0.950 . S
C946 C944 1.391 . S
C946 C947 1.400 . S
C947 C946 1.400 . S
C947 C948 1.398 . S
C947 C953 1.491 1_545 S
C948 H939 0.950 1_545 S
C948 C947 1.398 . S
C948 C949 1.391 . S
C949 H937 0.950 . S
C949 C945 1.393 . S
C949 C948 1.391 . S
C950 H940 0.950 . S
C950 C951 1.386 . S
C950 C952 1.391 . S
C951 C950 1.386 . S
C951 C955 1.393 . S
C952 H941 0.950 . S
C952 C950 1.391 . S
C952 C953 1.400 . S
C953 C947 1.491 1_565 S
C953 C952 1.400 . S
C953 C954 1.398 . S
C954 H942 0.950 1_565 S
C954 C953 1.398 . S
C954 C955 1.391 . S
C955 H943 0.950 . S
C955 C951 1.393 . S
C955 C954 1.391 . S
H956 C964 0.950 . S
H957 C969 0.950 . S
H958 C966 0.950 . S
H959 C968 0.950 . S
H960 C970 0.950 . S
H961 C972 0.950 . S
H962 C974 0.950 . S
H963 C975 0.950 . S
C964 H956 0.950 . S
C964 C965 1.386 . S
C964 C966 1.391 1_556 S
C965 C964 1.386 . S
C965 C969 1.393 . S
C966 H958 0.950 . S
C966 C964 1.391 1_554 S
C966 C967 1.400 . S
C967 C966 1.400 . S
C967 C968 1.398 . S
C967 C973 1.491 . S
C968 H959 0.950 . S
C968 C967 1.398 . S
C968 C969 1.391 1_554 S
C969 H957 0.950 . S
C969 C965 1.393 . S
C969 C968 1.391 1_556 S
C970 H960 0.950 . S
C970 C971 1.386 . S
C970 C972 1.391 . S
C971 C970 1.386 . S
C971 C975 1.393 . S
C972 H961 0.950 . S
C972 C970 1.391 . S
C972 C973 1.400 . S
C973 C967 1.491 . S
C973 C972 1.400 . S
C973 C974 1.398 . S
C974 H962 0.950 . S
C974 C973 1.398 . S
C974 C975 1.391 . S
C975 H963 0.950 . S
C975 C971 1.393 . S
C975 C974 1.391 . S
H976 C984 0.950 . S
H977 C989 0.950 . S
H978 C986 0.950 1_545 S
H979 C988 0.950 . S
H980 C990 0.950 . S
H981 C992 0.950 1_565 S
H982 C994 0.950 . S
H983 C995 0.950 . S
C984 H976 0.950 . S
C984 C985 1.386 . S
C984 C986 1.391 . S
C985 C984 1.386 . S
C985 C989 1.393 . S
C986 H978 0.950 1_565 S
C986 C984 1.391 . S
C986 C987 1.400 . S
C987 C986 1.400 . S
C987 C988 1.398 . S
C987 C993 1.491 1_565 S
C988 H979 0.950 . S
C988 C987 1.398 . S
C988 C989 1.391 . S
C989 H977 0.950 . S
C989 C985 1.393 . S
C989 C988 1.391 . S
C990 H980 0.950 . S
C990 C991 1.386 . S
C990 C992 1.391 . S
C991 C990 1.386 . S
C991 C995 1.393 . S
C992 H981 0.950 1_545 S
C992 C990 1.391 . S
C992 C993 1.400 . S
C993 C987 1.491 1_545 S
C993 C992 1.400 . S
C993 C994 1.398 . S
C994 H982 0.950 . S
C994 C993 1.398 . S
C994 C995 1.391 . S
C995 H983 0.950 . S
C995 C991 1.393 . S
C995 C994 1.391 . S
H996 C1004 0.950 . S
H997 C1009 0.950 . S
H998 C1006 0.950 . S
H999 C1008 0.950 . S
H1000 C1010 0.950 . S
H1001 C1012 0.950 . S
H1002 C1014 0.950 . S
H1003 C1015 0.950 . S
C1004 H996 0.950 . S
C1004 C1005 1.386 . S
C1004 C1006 1.391 . S
C1005 C1004 1.386 . S
C1005 C1009 1.393 . S
C1006 H998 0.950 . S
C1006 C1004 1.391 . S
C1006 C1007 1.400 . S
C1007 C1006 1.400 . S
C1007 C1008 1.398 . S
C1007 C1013 1.491 . S
C1008 H999 0.950 . S
C1008 C1007 1.398 . S
C1008 C1009 1.391 . S
C1009 H997 0.950 . S
C1009 C1005 1.393 . S
C1009 C1008 1.391 . S
C1010 H1000 0.950 . S
C1010 C1011 1.386 . S
C1010 C1012 1.391 . S
C1011 C1010 1.386 . S
C1011 C1015 1.393 . S
C1012 H1001 0.950 . S
C1012 C1010 1.391 . S
C1012 C1013 1.400 . S
C1013 C1007 1.491 . S
C1013 C1012 1.400 . S
C1013 C1014 1.398 . S
C1014 H1002 0.950 . S
C1014 C1013 1.398 . S
C1014 C1015 1.391 . S
C1015 H1003 0.950 . S
C1015 C1011 1.393 . S
C1015 C1014 1.391 . S
H1016 C1024 0.950 . S
H1017 C1029 0.950 . S
H1018 C1026 0.950 1_565 S
H1019 C1028 0.950 . S
H1020 C1030 0.950 . S
H1021 C1032 0.950 1_545 S
H1022 C1034 0.950 . S
H1023 C1035 0.950 . S
C1024 H1016 0.950 . S
C1024 C1025 1.386 . S
C1024 C1026 1.391 . S
C1025 C1024 1.386 . S
C1025 C1029 1.393 . S
C1026 H1018 0.950 1_545 S
C1026 C1024 1.391 . S
C1026 C1027 1.400 . S
C1027 C1026 1.400 . S
C1027 C1028 1.398 . S
C1027 C1033 1.491 1_545 S
C1028 H1019 0.950 . S
C1028 C1027 1.398 . S
C1028 C1029 1.391 . S
C1029 H1017 0.950 . S
C1029 C1025 1.393 . S
C1029 C1028 1.391 . S
C1030 H1020 0.950 . S
C1030 C1031 1.386 . S
C1030 C1032 1.391 . S
C1031 C1030 1.386 . S
C1031 C1035 1.393 . S
C1032 H1021 0.950 1_565 S
C1032 C1030 1.391 . S
C1032 C1033 1.400 . S
C1033 C1027 1.491 1_565 S
C1033 C1032 1.400 . S
C1033 C1034 1.398 . S
C1034 H1022 0.950 . S
C1034 C1033 1.398 . S
C1034 C1035 1.391 . S
C1035 H1023 0.950 . S
C1035 C1031 1.393 . S
C1035 C1034 1.391 . S
H1036 C1044 0.950 . S
H1037 C1049 0.950 . S
H1038 C1046 0.950 . S
H1039 C1048 0.950 . S
H1040 C1050 0.950 . S
H1041 C1052 0.950 . S
H1042 C1054 0.950 . S
H1043 C1055 0.950 . S
C1044 H1036 0.950 . S
C1044 C1045 1.386 . S
C1044 C1046 1.391 . S
C1045 C1044 1.386 . S
C1045 C1049 1.393 . S
C1046 H1038 0.950 . S
C1046 C1044 1.391 . S
C1046 C1047 1.400 . S
C1047 C1046 1.400 . S
C1047 C1048 1.398 . S
C1047 C1053 1.491 . S
C1048 H1039 0.950 . S
C1048 C1047 1.398 . S
C1048 C1049 1.391 . S
C1049 H1037 0.950 . S
C1049 C1045 1.393 . S
C1049 C1048 1.391 . S
C1050 H1040 0.950 . S
C1050 C1051 1.386 . S
C1050 C1052 1.391 1_556 S
C1051 C1050 1.386 . S
C1051 C1055 1.393 . S
C1052 H1041 0.950 . S
C1052 C1050 1.391 1_554 S
C1052 C1053 1.400 . S
C1053 C1047 1.491 . S
C1053 C1052 1.400 . S
C1053 C1054 1.398 . S
C1054 H1042 0.950 . S
C1054 C1053 1.398 . S
C1054 C1055 1.391 1_554 S
C1055 H1043 0.950 . S
C1055 C1051 1.393 . S
C1055 C1054 1.391 1_556 S
H1056 C1064 0.950 . S
H1057 C1069 0.950 . S
H1058 C1066 0.950 . S
H1059 C1068 0.950 . S
H1060 C1070 0.950 . S
H1061 C1072 0.950 . S
H1062 C1074 0.950 . S
H1063 C1075 0.950 . S
C1064 H1056 0.950 . S
C1064 C1065 1.386 . S
C1064 C1066 1.391 . S
C1065 C1064 1.386 . S
C1065 C1069 1.393 . S
C1066 H1058 0.950 . S
C1066 C1064 1.391 . S
C1066 C1067 1.400 . S
C1067 C1066 1.400 . S
C1067 C1068 1.398 . S
C1067 C1073 1.491 . S
C1068 H1059 0.950 . S
C1068 C1067 1.398 . S
C1068 C1069 1.391 . S
C1069 H1057 0.950 . S
C1069 C1065 1.393 . S
C1069 C1068 1.391 . S
C1070 H1060 0.950 . S
C1070 C1071 1.386 . S
C1070 C1072 1.391 . S
C1071 C1070 1.386 . S
C1071 C1075 1.393 . S
C1072 H1061 0.950 . S
C1072 C1070 1.391 . S
C1072 C1073 1.400 . S
C1073 C1067 1.491 . S
C1073 C1072 1.400 . S
C1073 C1074 1.398 . S
C1074 H1062 0.950 . S
C1074 C1073 1.398 . S
C1074 C1075 1.391 . S
C1075 H1063 0.950 . S
C1075 C1071 1.393 . S
C1075 C1074 1.391 . S
H1076 C1084 0.950 . S
H1077 C1089 0.950 . S
H1078 C1086 0.950 . S
H1079 C1088 0.950 . S
H1080 C1090 0.950 . S
H1081 C1092 0.950 . S
H1082 C1094 0.950 . S
H1083 C1095 0.950 . S
C1084 H1076 0.950 . S
C1084 C1085 1.386 . S
C1084 C1086 1.391 . S
C1085 C1084 1.386 . S
C1085 C1089 1.393 . S
C1086 H1078 0.950 . S
C1086 C1084 1.391 . S
C1086 C1087 1.400 . S
C1087 C1086 1.400 . S
C1087 C1088 1.398 . S
C1087 C1093 1.491 . S
C1088 H1079 0.950 . S
C1088 C1087 1.398 . S
C1088 C1089 1.391 . S
C1089 H1077 0.950 . S
C1089 C1085 1.393 . S
C1089 C1088 1.391 . S
C1090 H1080 0.950 . S
C1090 C1091 1.386 . S
C1090 C1092 1.391 . S
C1091 C1090 1.386 . S
C1091 C1095 1.393 . S
C1092 H1081 0.950 . S
C1092 C1090 1.391 . S
C1092 C1093 1.400 . S
C1093 C1087 1.491 . S
C1093 C1092 1.400 . S
C1093 C1094 1.398 . S
C1094 H1082 0.950 . S
C1094 C1093 1.398 . S
C1094 C1095 1.391 . S
C1095 H1083 0.950 . S
C1095 C1091 1.393 . S
C1095 C1094 1.391 . S
H1096 C1104 0.950 . S
H1097 C1109 0.950 . S
H1098 C1106 0.950 . S
H1099 C1108 0.950 . S
H1100 C1110 0.950 . S
H1101 C1112 0.950 . S
H1102 C1114 0.950 . S
H1103 C1115 0.950 . S
C1104 H1096 0.950 . S
C1104 C1105 1.386 . S
C1104 C1106 1.391 . S
C1105 C1104 1.386 . S
C1105 C1109 1.393 . S
C1106 H1098 0.950 . S
C1106 C1104 1.391 . S
C1106 C1107 1.400 . S
C1107 C1106 1.400 . S
C1107 C1108 1.398 . S
C1107 C1113 1.491 . S
C1108 H1099 0.950 . S
C1108 C1107 1.398 . S
C1108 C1109 1.391 . S
C1109 H1097 0.950 . S
C1109 C1105 1.393 . S
C1109 C1108 1.391 . S
C1110 H1100 0.950 . S
C1110 C1111 1.386 . S
C1110 C1112 1.391 . S
C1111 C1110 1.386 . S
C1111 C1115 1.393 . S
C1112 H1101 0.950 . S
C1112 C1110 1.391 . S
C1112 C1113 1.400 . S
C1113 C1107 1.491 . S
C1113 C1112 1.400 . S
C1113 C1114 1.398 . S
C1114 H1102 0.950 . S
C1114 C1113 1.398 . S
C1114 C1115 1.391 . S
C1115 H1103 0.950 . S
C1115 C1111 1.393 . S
C1115 C1114 1.391 . S
H1116 C1124 0.950 . S
H1117 C1129 0.950 . S
H1118 C1126 0.950 . S
H1119 C1128 0.950 . S
H1120 C1130 0.950 . S
H1121 C1132 0.950 . S
H1122 C1134 0.950 . S
H1123 C1135 0.950 . S
C1124 H1116 0.950 . S
C1124 C1125 1.386 . S
C1124 C1126 1.391 . S
C1125 C1124 1.386 . S
C1125 C1129 1.393 . S
C1126 H1118 0.950 . S
C1126 C1124 1.391 . S
C1126 C1127 1.400 . S
C1127 C1126 1.400 . S
C1127 C1128 1.398 . S
C1127 C1133 1.491 . S
C1128 H1119 0.950 . S
C1128 C1127 1.398 . S
C1128 C1129 1.391 . S
C1129 H1117 0.950 . S
C1129 C1125 1.393 . S
C1129 C1128 1.391 . S
C1130 H1120 0.950 . S
C1130 C1131 1.386 . S
C1130 C1132 1.391 1_556 S
C1131 C1130 1.386 . S
C1131 C1135 1.393 . S
C1132 H1121 0.950 . S
C1132 C1130 1.391 1_554 S
C1132 C1133 1.400 . S
C1133 C1127 1.491 . S
C1133 C1132 1.400 . S
C1133 C1134 1.398 . S
C1134 H1122 0.950 . S
C1134 C1133 1.398 . S
C1134 C1135 1.391 1_554 S
C1135 H1123 0.950 . S
C1135 C1131 1.393 . S
C1135 C1134 1.391 1_556 S
H1136 C1144 0.950 . S
H1137 C1149 0.950 . S
H1138 C1146 0.950 . S
H1139 C1148 0.950 . S
H1140 C1150 0.950 . S
H1141 C1152 0.950 . S
H1142 C1154 0.950 . S
H1143 C1155 0.950 . S
C1144 H1136 0.950 . S
C1144 C1145 1.386 . S
C1144 C1146 1.391 . S
C1145 C1144 1.386 . S
C1145 C1149 1.393 . S
C1146 H1138 0.950 . S
C1146 C1144 1.391 . S
C1146 C1147 1.400 . S
C1147 C1146 1.400 . S
C1147 C1148 1.398 . S
C1147 C1153 1.491 . S
C1148 H1139 0.950 . S
C1148 C1147 1.398 . S
C1148 C1149 1.391 . S
C1149 H1137 0.950 . S
C1149 C1145 1.393 . S
C1149 C1148 1.391 . S
C1150 H1140 0.950 . S
C1150 C1151 1.386 . S
C1150 C1152 1.391 . S
C1151 C1150 1.386 . S
C1151 C1155 1.393 . S
C1152 H1141 0.950 . S
C1152 C1150 1.391 . S
C1152 C1153 1.400 . S
C1153 C1147 1.491 . S
C1153 C1152 1.400 . S
C1153 C1154 1.398 . S
C1154 H1142 0.950 . S
C1154 C1153 1.398 . S
C1154 C1155 1.391 . S
C1155 H1143 0.950 . S
C1155 C1151 1.393 . S
C1155 C1154 1.391 . S
H1156 C1164 0.950 . S
H1157 C1169 0.950 . S
H1158 C1166 0.950 . S
H1159 C1168 0.950 . S
H1160 C1170 0.950 . S
H1161 C1172 0.950 . S
H1162 C1174 0.950 . S
H1163 C1175 0.950 . S
C1164 H1156 0.950 . S
C1164 C1165 1.386 . S
C1164 C1166 1.391 . S
C1165 C1164 1.386 . S
C1165 C1169 1.393 . S
C1166 H1158 0.950 . S
C1166 C1164 1.391 . S
C1166 C1167 1.400 . S
C1167 C1166 1.400 . S
C1167 C1168 1.398 . S
C1167 C1173 1.491 . S
C1168 H1159 0.950 . S
C1168 C1167 1.398 . S
C1168 C1169 1.391 . S
C1169 H1157 0.950 . S
C1169 C1165 1.393 . S
C1169 C1168 1.391 . S
C1170 H1160 0.950 . S
C1170 C1171 1.386 . S
C1170 C1172 1.391 . S
C1171 C1170 1.386 . S
C1171 C1175 1.393 . S
C1172 H1161 0.950 . S
C1172 C1170 1.391 . S
C1172 C1173 1.400 . S
C1173 C1167 1.491 . S
C1173 C1172 1.400 . S
C1173 C1174 1.398 . S
C1174 H1162 0.950 . S
C1174 C1173 1.398 . S
C1174 C1175 1.391 . S
C1175 H1163 0.950 . S
C1175 C1171 1.393 . S
C1175 C1174 1.391 . S
H1176 C1184 0.950 . S
H1177 C1189 0.950 . S
H1178 C1186 0.950 . S
H1179 C1188 0.950 . S
H1180 C1190 0.950 . S
H1181 C1192 0.950 . S
H1182 C1194 0.950 . S
H1183 C1195 0.950 . S
C1184 H1176 0.950 . S
C1184 C1185 1.386 . S
C1184 C1186 1.391 . S
C1185 C1184 1.386 . S
C1185 C1189 1.393 . S
C1186 H1178 0.950 . S
C1186 C1184 1.391 . S
C1186 C1187 1.400 . S
C1187 C1186 1.400 . S
C1187 C1188 1.398 . S
C1187 C1193 1.491 . S
C1188 H1179 0.950 . S
C1188 C1187 1.398 . S
C1188 C1189 1.391 . S
C1189 H1177 0.950 . S
C1189 C1185 1.393 . S
C1189 C1188 1.391 . S
C1190 H1180 0.950 . S
C1190 C1191 1.386 . S
C1190 C1192 1.391 . S
C1191 C1190 1.386 . S
C1191 C1195 1.393 . S
C1192 H1181 0.950 . S
C1192 C1190 1.391 . S
C1192 C1193 1.400 . S
C1193 C1187 1.491 . S
C1193 C1192 1.400 . S
C1193 C1194 1.398 . S
C1194 H1182 0.950 . S
C1194 C1193 1.398 . S
C1194 C1195 1.391 . S
C1195 H1183 0.950 . S
C1195 C1191 1.393 . S
C1195 C1194 1.391 . S
H1196 C1204 0.950 . S
H1197 C1209 0.950 . S
H1198 C1206 0.950 . S
H1199 C1208 0.950 . S
H1200 C1210 0.950 . S
H1201 C1212 0.950 . S
H1202 C1214 0.950 . S
H1203 C1215 0.950 . S
C1204 H1196 0.950 . S
C1204 C1205 1.386 . S
C1204 C1206 1.391 1_556 S
C1205 C1204 1.386 . S
C1205 C1209 1.393 . S
C1206 H1198 0.950 . S
C1206 C1204 1.391 1_554 S
C1206 C1207 1.400 . S
C1207 C1206 1.400 . S
C1207 C1208 1.398 . S
C1207 C1213 1.491 . S
C1208 H1199 0.950 . S
C1208 C1207 1.398 . S
C1208 C1209 1.391 1_554 S
C1209 H1197 0.950 . S
C1209 C1205 1.393 . S
C1209 C1208 1.391 1_556 S
C1210 H1200 0.950 . S
C1210 C1211 1.386 . S
C1210 C1212 1.391 . S
C1211 C1210 1.386 . S
C1211 C1215 1.393 . S
C1212 H1201 0.950 . S
C1212 C1210 1.391 . S
C1212 C1213 1.400 . S
C1213 C1207 1.491 . S
C1213 C1212 1.400 . S
C1213 C1214 1.398 . S
C1214 H1202 0.950 . S
C1214 C1213 1.398 . S
C1214 C1215 1.391 . S
C1215 H1203 0.950 . S
C1215 C1211 1.393 . S
C1215 C1214 1.391 . S
H1216 C1224 0.950 . S
H1217 C1229 0.950 . S
H1218 C1226 0.950 . S
H1219 C1228 0.950 . S
H1220 C1230 0.950 . S
H1221 C1232 0.950 . S
H1222 C1234 0.950 . S
H1223 C1235 0.950 . S
C1224 H1216 0.950 . S
C1224 C1225 1.386 . S
C1224 C1226 1.391 . S
C1225 C1224 1.386 . S
C1225 C1229 1.393 1_565 S
C1226 H1218 0.950 . S
C1226 C1224 1.391 . S
C1226 C1227 1.400 . S
C1227 C1226 1.400 . S
C1227 C1228 1.398 1_565 S
C1227 C1233 1.491 1_565 S
C1228 H1219 0.950 . S
C1228 C1227 1.398 1_545 S
C1228 C1229 1.391 . S
C1229 H1217 0.950 . S
C1229 C1225 1.393 1_545 S
C1229 C1228 1.391 . S
C1230 H1220 0.950 . S
C1230 C1231 1.386 . S
C1230 C1232 1.391 . S
C1231 C1230 1.386 . S
C1231 C1235 1.393 1_545 S
C1232 H1221 0.950 . S
C1232 C1230 1.391 . S
C1232 C1233 1.400 . S
C1233 C1227 1.491 1_545 S
C1233 C1232 1.400 . S
C1233 C1234 1.398 1_545 S
C1234 H1222 0.950 . S
C1234 C1233 1.398 1_565 S
C1234 C1235 1.391 . S
C1235 H1223 0.950 . S
C1235 C1231 1.393 1_565 S
C1235 C1234 1.391 . S
H1236 C1244 0.950 . S
H1237 C1249 0.950 . S
H1238 C1246 0.950 . S
H1239 C1248 0.950 . S
H1240 C1250 0.950 . S
H1241 C1252 0.950 . S
H1242 C1254 0.950 . S
H1243 C1255 0.950 . S
C1244 H1236 0.950 . S
C1244 C1245 1.386 . S
C1244 C1246 1.391 . S
C1245 C1244 1.386 . S
C1245 C1249 1.393 . S
C1246 H1238 0.950 . S
C1246 C1244 1.391 . S
C1246 C1247 1.400 . S
C1247 C1246 1.400 . S
C1247 C1248 1.398 . S
C1247 C1253 1.491 . S
C1248 H1239 0.950 . S
C1248 C1247 1.398 . S
C1248 C1249 1.391 . S
C1249 H1237 0.950 . S
C1249 C1245 1.393 . S
C1249 C1248 1.391 . S
C1250 H1240 0.950 . S
C1250 C1251 1.386 . S
C1250 C1252 1.391 1_556 S
C1251 C1250 1.386 . S
C1251 C1255 1.393 . S
C1252 H1241 0.950 . S
C1252 C1250 1.391 1_554 S
C1252 C1253 1.400 . S
C1253 C1247 1.491 . S
C1253 C1252 1.400 . S
C1253 C1254 1.398 . S
C1254 H1242 0.950 . S
C1254 C1253 1.398 . S
C1254 C1255 1.391 1_554 S
C1255 H1243 0.950 . S
C1255 C1251 1.393 . S
C1255 C1254 1.391 1_556 S
H1256 C1264 0.950 . S
H1257 C1269 0.950 . S
H1258 C1266 0.950 . S
H1259 C1268 0.950 . S
H1260 C1270 0.950 . S
H1261 C1272 0.950 . S
H1262 C1274 0.950 . S
H1263 C1275 0.950 . S
C1264 H1256 0.950 . S
C1264 C1265 1.386 . S
C1264 C1266 1.391 . S
C1265 C1264 1.386 . S
C1265 C1269 1.393 1_565 S
C1266 H1258 0.950 . S
C1266 C1264 1.391 . S
C1266 C1267 1.400 . S
C1267 C1266 1.400 . S
C1267 C1268 1.398 1_565 S
C1267 C1273 1.491 1_565 S
C1268 H1259 0.950 . S
C1268 C1267 1.398 1_545 S
C1268 C1269 1.391 . S
C1269 H1257 0.950 . S
C1269 C1265 1.393 1_545 S
C1269 C1268 1.391 . S
C1270 H1260 0.950 . S
C1270 C1271 1.386 . S
C1270 C1272 1.391 . S
C1271 C1270 1.386 . S
C1271 C1275 1.393 1_545 S
C1272 H1261 0.950 . S
C1272 C1270 1.391 . S
C1272 C1273 1.400 . S
C1273 C1267 1.491 1_545 S
C1273 C1272 1.400 . S
C1273 C1274 1.398 1_545 S
C1274 H1262 0.950 . S
C1274 C1273 1.398 1_565 S
C1274 C1275 1.391 . S
C1275 H1263 0.950 . S
C1275 C1271 1.393 1_565 S
C1275 C1274 1.391 . S
H1276 C1284 0.950 . S
H1277 C1289 0.950 . S
H1278 C1286 0.950 . S
H1279 C1288 0.950 . S
H1280 C1290 0.950 . S
H1281 C1292 0.950 . S
H1282 C1294 0.950 . S
H1283 C1295 0.950 . S
C1284 H1276 0.950 . S
C1284 C1285 1.386 . S
C1284 C1286 1.391 . S
C1285 C1284 1.386 . S
C1285 C1289 1.393 . S
C1286 H1278 0.950 . S
C1286 C1284 1.391 . S
C1286 C1287 1.400 . S
C1287 C1286 1.400 . S
C1287 C1288 1.398 . S
C1287 C1293 1.491 . S
C1288 H1279 0.950 . S
C1288 C1287 1.398 . S
C1288 C1289 1.391 . S
C1289 H1277 0.950 . S
C1289 C1285 1.393 . S
C1289 C1288 1.391 . S
C1290 H1280 0.950 . S
C1290 C1291 1.386 . S
C1290 C1292 1.391 . S
C1291 C1290 1.386 . S
C1291 C1295 1.393 . S
C1292 H1281 0.950 . S
C1292 C1290 1.391 . S
C1292 C1293 1.400 . S
C1293 C1287 1.491 . S
C1293 C1292 1.400 . S
C1293 C1294 1.398 . S
C1294 H1282 0.950 . S
C1294 C1293 1.398 . S
C1294 C1295 1.391 . S
C1295 H1283 0.950 . S
C1295 C1291 1.393 . S
C1295 C1294 1.391 . S
H1296 C1304 0.950 . S
H1297 C1309 0.950 . S
H1298 C1306 0.956 . S
H1299 C1308 0.950 . S
H1300 C1310 0.950 . S
H1301 C1312 0.956 . S
H1302 C1314 0.950 . S
H1303 C1315 0.950 . S
C1304 H1296 0.950 . S
C1304 C1305 1.386 . S
C1304 C1306 1.391 . S
C1305 C1304 1.386 . S
C1305 C1309 1.393 . S
C1306 H1298 0.956 . S
C1306 C1304 1.391 . S
C1306 C1307 1.400 . S
C1307 C1306 1.400 . S
C1307 C1308 1.398 . S
C1307 C1313 1.491 1_565 S
C1308 H1299 0.950 . S
C1308 C1307 1.398 . S
C1308 C1309 1.391 . S
C1309 H1297 0.950 . S
C1309 C1305 1.393 . S
C1309 C1308 1.391 . S
C1310 H1300 0.950 . S
C1310 C1311 1.386 . S
C1310 C1312 1.391 . S
C1311 C1310 1.386 . S
C1311 C1315 1.393 . S
C1312 H1301 0.956 . S
C1312 C1310 1.391 . S
C1312 C1313 1.400 . S
C1313 C1307 1.491 1_545 S
C1313 C1312 1.400 . S
C1313 C1314 1.398 . S
C1314 H1302 0.950 . S
C1314 C1313 1.398 . S
C1314 C1315 1.391 . S
C1315 H1303 0.950 . S
C1315 C1311 1.393 . S
C1315 C1314 1.391 . S
H1316 C1324 0.950 . S
H1317 C1329 0.950 . S
H1318 C1326 0.950 . S
H1319 C1328 0.950 . S
H1320 C1330 0.950 . S
H1321 C1332 0.950 . S
H1322 C1334 0.950 . S
H1323 C1335 0.950 . S
C1324 H1316 0.950 . S
C1324 C1325 1.386 . S
C1324 C1326 1.391 . S
C1325 C1324 1.386 . S
C1325 C1329 1.393 . S
C1326 H1318 0.950 . S
C1326 C1324 1.391 . S
C1326 C1327 1.400 . S
C1327 C1326 1.400 . S
C1327 C1328 1.398 . S
C1327 C1333 1.491 . S
C1328 H1319 0.950 . S
C1328 C1327 1.398 . S
C1328 C1329 1.391 . S
C1329 H1317 0.950 . S
C1329 C1325 1.393 . S
C1329 C1328 1.391 . S
C1330 H1320 0.950 . S
C1330 C1331 1.386 . S
C1330 C1332 1.391 1_556 S
C1331 C1330 1.386 . S
C1331 C1335 1.393 . S
C1332 H1321 0.950 . S
C1332 C1330 1.391 1_554 S
C1332 C1333 1.400 . S
C1333 C1327 1.491 . S
C1333 C1332 1.400 . S
C1333 C1334 1.398 . S
C1334 H1322 0.950 . S
C1334 C1333 1.398 . S
C1334 C1335 1.391 1_554 S
C1335 H1323 0.950 . S
C1335 C1331 1.393 . S
C1335 C1334 1.391 1_556 S
H1336 C1344 0.950 . S
H1337 C1349 0.950 . S
H1338 C1346 0.950 . S
H1339 C1348 0.950 . S
H1340 C1350 0.950 . S
H1341 C1352 0.950 . S
H1342 C1354 0.950 . S
H1343 C1355 0.950 . S
C1344 H1336 0.950 . S
C1344 C1345 1.386 . S
C1344 C1346 1.391 . S
C1345 C1344 1.386 . S
C1345 C1349 1.393 1_565 S
C1346 H1338 0.950 . S
C1346 C1344 1.391 . S
C1346 C1347 1.400 . S
C1347 C1346 1.400 . S
C1347 C1348 1.398 1_565 S
C1347 C1353 1.491 1_565 S
C1348 H1339 0.950 . S
C1348 C1347 1.398 1_545 S
C1348 C1349 1.391 . S
C1349 H1337 0.950 . S
C1349 C1345 1.393 1_545 S
C1349 C1348 1.391 . S
C1350 H1340 0.950 . S
C1350 C1351 1.386 . S
C1350 C1352 1.391 . S
C1351 C1350 1.386 . S
C1351 C1355 1.393 1_545 S
C1352 H1341 0.950 . S
C1352 C1350 1.391 . S
C1352 C1353 1.400 . S
C1353 C1347 1.491 1_545 S
C1353 C1352 1.400 . S
C1353 C1354 1.398 1_545 S
C1354 H1342 0.950 . S
C1354 C1353 1.398 1_565 S
C1354 C1355 1.391 . S
C1355 H1343 0.950 . S
C1355 C1351 1.393 1_565 S
C1355 C1354 1.391 . S
H1356 C1364 0.950 . S
H1357 C1369 0.950 . S
H1358 C1366 0.950 . S
H1359 C1368 0.950 . S
H1360 C1370 0.950 . S
H1361 C1372 0.950 . S
H1362 C1374 0.950 . S
H1363 C1375 0.950 . S
C1364 H1356 0.950 . S
C1364 C1365 1.386 . S
C1364 C1366 1.391 . S
C1365 C1364 1.386 . S
C1365 C1369 1.393 . S
C1366 H1358 0.950 . S
C1366 C1364 1.391 . S
C1366 C1367 1.400 . S
C1367 C1366 1.400 . S
C1367 C1368 1.398 . S
C1367 C1373 1.491 . S
C1368 H1359 0.950 . S
C1368 C1367 1.398 . S
C1368 C1369 1.391 . S
C1369 H1357 0.950 . S
C1369 C1365 1.393 . S
C1369 C1368 1.391 . S
C1370 H1360 0.950 . S
C1370 C1371 1.386 . S
C1370 C1372 1.391 . S
C1371 C1370 1.386 . S
C1371 C1375 1.393 . S
C1372 H1361 0.950 . S
C1372 C1370 1.391 . S
C1372 C1373 1.400 . S
C1373 C1367 1.491 . S
C1373 C1372 1.400 . S
C1373 C1374 1.398 . S
C1374 H1362 0.950 . S
C1374 C1373 1.398 . S
C1374 C1375 1.391 . S
C1375 H1363 0.950 . S
C1375 C1371 1.393 . S
C1375 C1374 1.391 . S
H1376 C1384 0.950 . S
H1377 C1389 0.950 . S
H1378 C1386 0.950 . S
H1379 C1388 0.950 . S
H1380 C1390 0.950 . S
H1381 C1392 0.950 . S
H1382 C1394 0.950 . S
H1383 C1395 0.950 . S
C1384 H1376 0.950 . S
C1384 C1385 1.386 . S
C1384 C1386 1.391 . S
C1385 C1384 1.386 . S
C1385 C1389 1.393 . S
C1386 H1378 0.950 . S
C1386 C1384 1.391 . S
C1386 C1387 1.400 . S
C1387 C1386 1.400 . S
C1387 C1388 1.398 . S
C1387 C1393 1.491 . S
C1388 H1379 0.950 . S
C1388 C1387 1.398 . S
C1388 C1389 1.391 . S
C1389 H1377 0.950 . S
C1389 C1385 1.393 . S
C1389 C1388 1.391 . S
C1390 H1380 0.950 . S
C1390 C1391 1.386 . S
C1390 C1392 1.391 . S
C1391 C1390 1.386 . S
C1391 C1395 1.393 . S
C1392 H1381 0.950 . S
C1392 C1390 1.391 . S
C1392 C1393 1.400 . S
C1393 C1387 1.491 . S
C1393 C1392 1.400 . S
C1393 C1394 1.398 . S
C1394 H1382 0.950 . S
C1394 C1393 1.398 . S
C1394 C1395 1.391 . S
C1395 H1383 0.950 . S
C1395 C1391 1.393 . S
C1395 C1394 1.391 . S
H1396 C1404 0.950 . S
H1397 C1409 0.950 . S
H1398 C1406 0.950 . S
H1399 C1408 0.950 . S
H1400 C1410 0.950 . S
H1401 C1412 0.950 . S
H1402 C1414 0.950 . S
H1403 C1415 0.950 . S
C1404 H1396 0.950 . S
C1404 C1405 1.386 . S
C1404 C1406 1.391 . S
C1405 C1404 1.386 . S
C1405 C1409 1.393 . S
C1406 H1398 0.950 . S
C1406 C1404 1.391 . S
C1406 C1407 1.400 . S
C1407 C1406 1.400 . S
C1407 C1408 1.398 . S
C1407 C1413 1.491 . S
C1408 H1399 0.950 . S
C1408 C1407 1.398 . S
C1408 C1409 1.391 . S
C1409 H1397 0.950 . S
C1409 C1405 1.393 . S
C1409 C1408 1.391 . S
C1410 H1400 0.950 . S
C1410 C1411 1.386 . S
C1410 C1412 1.391 . S
C1411 C1410 1.386 . S
C1411 C1415 1.393 . S
C1412 H1401 0.950 . S
C1412 C1410 1.391 . S
C1412 C1413 1.400 . S
C1413 C1407 1.491 . S
C1413 C1412 1.400 . S
C1413 C1414 1.398 . S
C1414 H1402 0.950 . S
C1414 C1413 1.398 . S
C1414 C1415 1.391 . S
C1415 H1403 0.950 . S
C1415 C1411 1.393 . S
C1415 C1414 1.391 . S
H1416 C1424 0.950 . S
H1417 C1429 0.950 . S
H1418 C1426 0.950 . S
H1419 C1428 0.950 . S
H1420 C1430 0.950 . S
H1421 C1432 0.950 . S
H1422 C1434 0.950 . S
H1423 C1435 0.950 . S
C1424 H1416 0.950 . S
C1424 C1425 1.386 . S
C1424 C1426 1.391 . S
C1425 C1424 1.386 . S
C1425 C1429 1.393 . S
C1426 H1418 0.950 . S
C1426 C1424 1.391 . S
C1426 C1427 1.400 . S
C1427 C1426 1.400 . S
C1427 C1428 1.398 . S
C1427 C1433 1.491 . S
C1428 H1419 0.950 . S
C1428 C1427 1.398 . S
C1428 C1429 1.391 . S
C1429 H1417 0.950 . S
C1429 C1425 1.393 . S
C1429 C1428 1.391 . S
C1430 H1420 0.950 . S
C1430 C1431 1.386 . S
C1430 C1432 1.391 . S
C1431 C1430 1.386 . S
C1431 C1435 1.393 . S
C1432 H1421 0.950 . S
C1432 C1430 1.391 . S
C1432 C1433 1.400 . S
C1433 C1427 1.491 . S
C1433 C1432 1.400 . S
C1433 C1434 1.398 . S
C1434 H1422 0.950 . S
C1434 C1433 1.398 . S
C1434 C1435 1.391 . S
C1435 H1423 0.950 . S
C1435 C1431 1.393 . S
C1435 C1434 1.391 . S
H1436 C1444 0.950 . S
H1437 C1449 0.950 . S
H1438 C1446 0.950 . S
H1439 C1448 0.950 . S
H1440 C1450 0.951 . S
H1441 C1452 0.950 . S
H1442 C1454 0.950 . S
H1443 C1455 0.950 . S
C1444 H1436 0.950 . S
C1444 C1445 1.386 . S
C1444 C1446 1.391 . S
C1445 C1444 1.386 . S
C1445 C1449 1.393 . S
C1446 H1438 0.950 . S
C1446 C1444 1.391 . S
C1446 C1447 1.400 . S
C1447 C1446 1.400 . S
C1447 C1448 1.398 . S
C1447 C1453 1.491 . S
C1448 H1439 0.950 . S
C1448 C1447 1.398 . S
C1448 C1449 1.391 . S
C1449 H1437 0.950 . S
C1449 C1445 1.393 . S
C1449 C1448 1.391 . S
C1450 H1440 0.951 . S
C1450 C1451 1.385 1_554 S
C1450 C1452 1.390 1_554 S
C1451 C1450 1.385 1_556 S
C1451 C1455 1.393 . S
C1452 H1441 0.950 . S
C1452 C1450 1.390 1_556 S
C1452 C1453 1.400 . S
C1453 C1447 1.491 . S
C1453 C1452 1.400 . S
C1453 C1454 1.398 . S
C1454 H1442 0.950 . S
C1454 C1453 1.398 . S
C1454 C1455 1.391 . S
C1455 H1443 0.950 . S
C1455 C1451 1.393 . S
C1455 C1454 1.391 . S
H1456 C1464 0.950 . S
H1457 C1469 0.950 . S
H1458 C1466 0.950 . S
H1459 C1468 0.950 . S
H1460 C1470 0.950 . S
H1461 C1472 0.950 . S
H1462 C1474 0.950 . S
H1463 C1475 0.950 . S
C1464 H1456 0.950 . S
C1464 C1465 1.386 . S
C1464 C1466 1.391 . S
C1465 C1464 1.386 . S
C1465 C1469 1.393 . S
C1466 H1458 0.950 . S
C1466 C1464 1.391 . S
C1466 C1467 1.400 . S
C1467 C1466 1.400 . S
C1467 C1468 1.398 . S
C1467 C1473 1.491 . S
C1468 H1459 0.950 . S
C1468 C1467 1.398 . S
C1468 C1469 1.391 . S
C1469 H1457 0.950 . S
C1469 C1465 1.393 . S
C1469 C1468 1.391 . S
C1470 H1460 0.950 . S
C1470 C1471 1.386 . S
C1470 C1472 1.391 . S
C1471 C1470 1.386 . S
C1471 C1475 1.393 . S
C1472 H1461 0.950 . S
C1472 C1470 1.391 . S
C1472 C1473 1.400 . S
C1473 C1467 1.491 . S
C1473 C1472 1.400 . S
C1473 C1474 1.398 . S
C1474 H1462 0.950 . S
C1474 C1473 1.398 . S
C1474 C1475 1.391 . S
C1475 H1463 0.950 . S
C1475 C1471 1.393 . S
C1475 C1474 1.391 . S
H1476 C1484 0.950 . S
H1477 C1489 0.950 . S
H1478 C1486 0.950 . S
H1479 C1488 0.950 . S
H1480 C1490 0.950 . S
H1481 C1492 0.950 . S
H1482 C1494 0.950 . S
H1483 C1495 0.950 . S
C1484 H1476 0.950 . S
C1484 C1485 1.386 . S
C1484 C1486 1.391 . S
C1485 C1484 1.386 . S
C1485 C1489 1.393 . S
C1486 H1478 0.950 . S
C1486 C1484 1.391 . S
C1486 C1487 1.400 . S
C1487 C1486 1.400 . S
C1487 C1488 1.398 . S
C1487 C1493 1.491 . S
C1488 H1479 0.950 . S
C1488 C1487 1.398 . S
C1488 C1489 1.391 . S
C1489 H1477 0.950 . S
C1489 C1485 1.393 . S
C1489 C1488 1.391 . S
C1490 H1480 0.950 . S
C1490 C1491 1.386 . S
C1490 C1492 1.391 . S
C1491 C1490 1.386 . S
C1491 C1495 1.393 . S
C1492 H1481 0.950 . S
C1492 C1490 1.391 . S
C1492 C1493 1.400 . S
C1493 C1487 1.491 . S
C1493 C1492 1.400 . S
C1493 C1494 1.398 . S
C1494 H1482 0.950 . S
C1494 C1493 1.398 . S
C1494 C1495 1.391 . S
C1495 H1483 0.950 . S
C1495 C1491 1.393 . S
C1495 C1494 1.391 . S
H1496 C1504 0.950 . S
H1497 C1509 0.950 . S
H1498 C1506 0.950 . S
H1499 C1508 0.950 . S
H1500 C1510 0.950 . S
H1501 C1512 0.950 . S
H1502 C1514 0.950 1_554 S
H1503 C1515 0.950 . S
C1504 H1496 0.950 . S
C1504 C1505 1.386 . S
C1504 C1506 1.391 . S
C1505 C1504 1.386 . S
C1505 C1509 1.393 . S
C1506 H1498 0.950 . S
C1506 C1504 1.391 . S
C1506 C1507 1.400 . S
C1507 C1506 1.400 . S
C1507 C1508 1.398 . S
C1507 C1513 1.491 . S
C1508 H1499 0.950 . S
C1508 C1507 1.398 . S
C1508 C1509 1.391 . S
C1509 H1497 0.950 . S
C1509 C1505 1.393 . S
C1509 C1508 1.391 . S
C1510 H1500 0.950 . S
C1510 C1511 1.386 . S
C1510 C1512 1.391 . S
C1511 C1510 1.386 . S
C1511 C1515 1.393 1_556 S
C1512 H1501 0.950 . S
C1512 C1510 1.391 . S
C1512 C1513 1.400 . S
C1513 C1507 1.491 . S
C1513 C1512 1.400 . S
C1513 C1514 1.398 . S
C1514 H1502 0.950 1_556 S
C1514 C1513 1.398 . S
C1514 C1515 1.391 1_556 S
C1515 H1503 0.950 . S
C1515 C1511 1.393 1_554 S
C1515 C1514 1.391 1_554 S
H1516 C1524 0.950 . S
H1517 C1529 0.950 . S
H1518 C1526 0.950 . S
H1519 C1528 0.950 . S
H1520 C1530 0.950 . S
H1521 C1532 0.950 . S
H1522 C1534 0.950 . S
H1523 C1535 0.950 . S
C1524 H1516 0.950 . S
C1524 C1525 1.386 . S
C1524 C1526 1.391 . S
C1525 C1524 1.386 . S
C1525 C1529 1.393 . S
C1526 H1518 0.950 . S
C1526 C1524 1.391 . S
C1526 C1527 1.400 . S
C1527 C1526 1.400 . S
C1527 C1528 1.398 . S
C1527 C1533 1.491 . S
C1528 H1519 0.950 . S
C1528 C1527 1.398 . S
C1528 C1529 1.391 . S
C1529 H1517 0.950 . S
C1529 C1525 1.393 . S
C1529 C1528 1.391 . S
C1530 H1520 0.950 . S
C1530 C1531 1.386 . S
C1530 C1532 1.391 . S
C1531 C1530 1.386 . S
C1531 C1535 1.393 . S
C1532 H1521 0.950 . S
C1532 C1530 1.391 . S
C1532 C1533 1.400 . S
C1533 C1527 1.491 . S
C1533 C1532 1.400 . S
C1533 C1534 1.398 . S
C1534 H1522 0.950 . S
C1534 C1533 1.398 . S
C1534 C1535 1.391 . S
C1535 H1523 0.950 . S
C1535 C1531 1.393 . S
C1535 C1534 1.391 . S
H1536 C1544 0.950 . S
H1537 C1549 0.950 . S
H1538 C1546 0.950 1_554 S
H1539 C1548 0.950 . S
H1540 C1550 0.950 . S
H1541 C1552 0.950 . S
H1542 C1554 0.950 . S
H1543 C1555 0.950 . S
C1544 H1536 0.950 . S
C1544 C1545 1.386 1_554 S
C1544 C1546 1.391 1_554 S
C1545 C1544 1.386 1_556 S
C1545 C1549 1.393 . S
C1546 H1538 0.950 1_556 S
C1546 C1544 1.391 1_556 S
C1546 C1547 1.400 . S
C1547 C1546 1.400 . S
C1547 C1548 1.398 . S
C1547 C1553 1.491 . S
C1548 H1539 0.950 . S
C1548 C1547 1.398 . S
C1548 C1549 1.391 . S
C1549 H1537 0.950 . S
C1549 C1545 1.393 . S
C1549 C1548 1.391 . S
C1550 H1540 0.950 . S
C1550 C1551 1.386 . S
C1550 C1552 1.391 . S
C1551 C1550 1.386 . S
C1551 C1555 1.393 . S
C1552 H1541 0.950 . S
C1552 C1550 1.391 . S
C1552 C1553 1.400 . S
C1553 C1547 1.491 . S
C1553 C1552 1.400 . S
C1553 C1554 1.398 . S
C1554 H1542 0.950 . S
C1554 C1553 1.398 . S
C1554 C1555 1.391 . S
C1555 H1543 0.950 . S
C1555 C1551 1.393 . S
C1555 C1554 1.391 . S
H1556 C1564 0.950 . S
H1557 C1569 0.950 . S
H1558 C1566 0.950 . S
H1559 C1568 0.950 . S
H1560 C1570 0.950 . S
H1561 C1572 0.950 . S
H1562 C1574 0.950 . S
H1563 C1575 0.950 . S
C1564 H1556 0.950 . S
C1564 C1565 1.386 . S
C1564 C1566 1.391 . S
C1565 C1564 1.386 . S
C1565 C1569 1.393 . S
C1566 H1558 0.950 . S
C1566 C1564 1.391 . S
C1566 C1567 1.400 . S
C1567 C1566 1.400 . S
C1567 C1568 1.398 . S
C1567 C1573 1.491 . S
C1568 H1559 0.950 . S
C1568 C1567 1.398 . S
C1568 C1569 1.391 . S
C1569 H1557 0.950 . S
C1569 C1565 1.393 . S
C1569 C1568 1.391 . S
C1570 H1560 0.950 . S
C1570 C1571 1.386 . S
C1570 C1572 1.391 . S
C1571 C1570 1.386 . S
C1571 C1575 1.393 . S
C1572 H1561 0.950 . S
C1572 C1570 1.391 . S
C1572 C1573 1.400 . S
C1573 C1567 1.491 . S
C1573 C1572 1.400 . S
C1573 C1574 1.398 . S
C1574 H1562 0.950 . S
C1574 C1573 1.398 . S
C1574 C1575 1.391 . S
C1575 H1563 0.950 . S
C1575 C1571 1.393 . S
C1575 C1574 1.391 . S
H1576 C1584 0.950 . S
H1577 C1589 0.950 . S
H1578 C1586 0.950 . S
H1579 C1588 0.950 . S
H1580 C1590 0.950 . S
H1581 C1592 0.950 . S
H1582 C1594 0.950 . S
H1583 C1595 0.950 . S
C1584 H1576 0.950 . S
C1584 C1585 1.386 . S
C1584 C1586 1.391 . S
C1585 C1584 1.386 . S
C1585 C1589 1.393 . S
C1586 H1578 0.950 . S
C1586 C1584 1.391 . S
C1586 C1587 1.400 . S
C1587 C1586 1.400 . S
C1587 C1588 1.398 . S
C1587 C1593 1.491 . S
C1588 H1579 0.950 . S
C1588 C1587 1.398 . S
C1588 C1589 1.391 . S
C1589 H1577 0.950 . S
C1589 C1585 1.393 . S
C1589 C1588 1.391 . S
C1590 H1580 0.950 . S
C1590 C1591 1.386 . S
C1590 C1592 1.391 . S
C1591 C1590 1.386 . S
C1591 C1595 1.393 . S
C1592 H1581 0.950 . S
C1592 C1590 1.391 . S
C1592 C1593 1.400 . S
C1593 C1587 1.491 . S
C1593 C1592 1.400 . S
C1593 C1594 1.398 . S
C1594 H1582 0.950 . S
C1594 C1593 1.398 . S
C1594 C1595 1.391 . S
C1595 H1583 0.950 . S
C1595 C1591 1.393 . S
C1595 C1594 1.391 . S
H1596 C1604 0.950 . S
H1597 C1609 0.950 . S
H1598 C1606 0.950 . S
H1599 C1608 0.950 . S
H1600 C1610 0.950 . S
H1601 C1612 0.950 . S
H1602 C1614 0.950 . S
H1603 C1615 0.950 . S
C1604 H1596 0.950 . S
C1604 C1605 1.386 . S
C1604 C1606 1.391 . S
C1605 C1604 1.386 . S
C1605 C1609 1.393 . S
C1606 H1598 0.950 . S
C1606 C1604 1.391 . S
C1606 C1607 1.400 . S
C1607 C1606 1.400 . S
C1607 C1608 1.398 . S
C1607 C1613 1.491 . S
C1608 H1599 0.950 . S
C1608 C1607 1.398 . S
C1608 C1609 1.391 . S
C1609 H1597 0.950 . S
C1609 C1605 1.393 . S
C1609 C1608 1.391 . S
C1610 H1600 0.950 . S
C1610 C1611 1.386 . S
C1610 C1612 1.391 . S
C1611 C1610 1.386 . S
C1611 C1615 1.393 . S
C1612 H1601 0.950 . S
C1612 C1610 1.391 . S
C1612 C1613 1.400 . S
C1613 C1607 1.491 . S
C1613 C1612 1.400 . S
C1613 C1614 1.398 . S
C1614 H1602 0.950 . S
C1614 C1613 1.398 . S
C1614 C1615 1.391 . S
C1615 H1603 0.950 . S
C1615 C1611 1.393 . S
C1615 C1614 1.391 . S
H1616 C1624 0.950 . S
H1617 C1629 0.950 . S
H1618 C1626 0.950 . S
H1619 C1628 0.950 . S
H1620 C1630 0.950 . S
H1621 C1632 0.950 . S
H1622 C1634 0.950 . S
H1623 C1635 0.950 . S
C1624 H1616 0.950 . S
C1624 C1625 1.386 . S
C1624 C1626 1.391 . S
C1625 C1624 1.386 . S
C1625 C1629 1.393 . S
C1626 H1618 0.950 . S
C1626 C1624 1.391 . S
C1626 C1627 1.400 . S
C1627 C1626 1.400 . S
C1627 C1628 1.398 . S
C1627 C1633 1.491 . S
C1628 H1619 0.950 . S
C1628 C1627 1.398 . S
C1628 C1629 1.391 . S
C1629 H1617 0.950 . S
C1629 C1625 1.393 . S
C1629 C1628 1.391 . S
C1630 H1620 0.950 . S
C1630 C1631 1.386 . S
C1630 C1632 1.391 . S
C1631 C1630 1.386 . S
C1631 C1635 1.393 . S
C1632 H1621 0.950 . S
C1632 C1630 1.391 . S
C1632 C1633 1.400 . S
C1633 C1627 1.491 . S
C1633 C1632 1.400 . S
C1633 C1634 1.398 . S
C1634 H1622 0.950 . S
C1634 C1633 1.398 . S
C1634 C1635 1.391 . S
C1635 H1623 0.950 . S
C1635 C1631 1.393 . S
C1635 C1634 1.391 . S
H1636 C1644 0.950 . S
H1637 C1649 0.950 . S
H1638 C1646 0.950 . S
H1639 C1648 0.950 . S
H1640 C1650 0.950 . S
H1641 C1652 0.950 . S
H1642 C1654 0.950 . S
H1643 C1655 0.950 . S
C1644 H1636 0.950 . S
C1644 C1645 1.386 . S
C1644 C1646 1.391 . S
C1645 C1644 1.386 . S
C1645 C1649 1.393 . S
C1646 H1638 0.950 . S
C1646 C1644 1.391 . S
C1646 C1647 1.400 . S
C1647 C1646 1.400 . S
C1647 C1648 1.398 . S
C1647 C1653 1.491 . S
C1648 H1639 0.950 . S
C1648 C1647 1.398 . S
C1648 C1649 1.391 . S
C1649 H1637 0.950 . S
C1649 C1645 1.393 . S
C1649 C1648 1.391 . S
C1650 H1640 0.950 . S
C1650 C1651 1.386 . S
C1650 C1652 1.391 . S
C1651 C1650 1.386 . S
C1651 C1655 1.393 . S
C1652 H1641 0.950 . S
C1652 C1650 1.391 . S
C1652 C1653 1.400 . S
C1653 C1647 1.491 . S
C1653 C1652 1.400 . S
C1653 C1654 1.398 . S
C1654 H1642 0.950 . S
C1654 C1653 1.398 . S
C1654 C1655 1.391 . S
C1655 H1643 0.950 . S
C1655 C1651 1.393 . S
C1655 C1654 1.391 . S
H1656 C1664 0.950 . S
H1657 C1669 0.950 . S
H1658 C1666 0.950 . S
H1659 C1668 0.950 . S
H1660 C1670 0.950 . S
H1661 C1672 0.950 . S
H1662 C1674 0.950 . S
H1663 C1675 0.950 . S
C1664 H1656 0.950 . S
C1664 C1665 1.386 . S
C1664 C1666 1.391 . S
C1665 C1664 1.386 . S
C1665 C1669 1.393 . S
C1666 H1658 0.950 . S
C1666 C1664 1.391 . S
C1666 C1667 1.400 . S
C1667 C1666 1.400 . S
C1667 C1668 1.398 . S
C1667 C1673 1.491 . S
C1668 H1659 0.950 . S
C1668 C1667 1.398 . S
C1668 C1669 1.391 . S
C1669 H1657 0.950 . S
C1669 C1665 1.393 . S
C1669 C1668 1.391 . S
C1670 H1660 0.950 . S
C1670 C1671 1.386 . S
C1670 C1672 1.391 . S
C1671 C1670 1.386 . S
C1671 C1675 1.393 . S
C1672 H1661 0.950 . S
C1672 C1670 1.391 . S
C1672 C1673 1.400 . S
C1673 C1667 1.491 . S
C1673 C1672 1.400 . S
C1673 C1674 1.398 . S
C1674 H1662 0.950 . S
C1674 C1673 1.398 . S
C1674 C1675 1.391 . S
C1675 H1663 0.950 . S
C1675 C1671 1.393 . S
C1675 C1674 1.391 . S
H1676 C1684 0.950 . S
H1677 C1689 0.950 . S
H1678 C1686 0.950 . S
H1679 C1688 0.950 . S
H1680 C1690 0.950 . S
H1681 C1692 0.950 . S
H1682 C1694 0.950 . S
H1683 C1695 0.955 . S
C1684 H1676 0.950 . S
C1684 C1685 1.386 . S
C1684 C1686 1.391 . S
C1685 C1684 1.386 . S
C1685 C1689 1.393 . S
C1686 H1678 0.950 . S
C1686 C1684 1.391 . S
C1686 C1687 1.400 . S
C1687 C1686 1.400 . S
C1687 C1688 1.398 . S
C1687 C1693 1.491 . S
C1688 H1679 0.950 . S
C1688 C1687 1.398 . S
C1688 C1689 1.391 . S
C1689 H1677 0.950 . S
C1689 C1685 1.393 . S
C1689 C1688 1.391 . S
C1690 H1680 0.950 . S
C1690 C1691 1.398 . S
C1690 C1692 1.391 . S
C1691 C1690 1.398 . S
C1691 C1695 1.392 1_556 S
C1692 H1681 0.950 . S
C1692 C1690 1.391 . S
C1692 C1693 1.400 . S
C1693 C1687 1.491 . S
C1693 C1692 1.400 . S
C1693 C1694 1.398 . S
C1694 H1682 0.950 . S
C1694 C1693 1.398 . S
C1694 C1695 1.386 1_556 S
C1695 H1683 0.955 . S
C1695 C1691 1.392 1_554 S
C1695 C1694 1.386 1_554 S
C425 C105 1.962 . S
C431 C10 1.962 . S
C445 C14 2.042 . S
C451 C335 2.042 . S
C465 C36 1.937 . S
C471 C131 1.937 . S
C485 C40 2.050 . S
C491 C361 2.050 . S
C505 C62 1.955 . S
C511 C157 1.955 . S
C525 C387 2.050 . S
C531 C66 2.050 . S
C545 C183 1.946 . S
C551 C88 1.946 . S
C565 C413 2.046 . S
C571 C92 2.046 . S
C585 C222 2.041 . S
C591 C127 2.041 . S
C605 C153 2.037 . S
C611 C248 2.037 . S
C625 C179 2.047 . S
C631 C274 2.047 . S
C645 C300 2.050 . S
C651 C205 2.050 . S
C665 C313 1.941 . S
C671 C218 1.941 . S
C685 C244 1.961 . S
C691 C339 1.961 . S
C705 C270 1.955 . S
C711 C365 1.955 . S
C725 C391 1.938 . S
C731 C296 1.938 . S
C745 C3 1.762 . S
C751 C55 1.760 . S
C765 C70 1.701 . S
C771 C18 1.699 . S
C785 C81 1.756 . S
C791 C29 1.760 . S
C805 C44 1.717 . S
C811 C96 1.717 . S
C825 C109 1.757 . S
C831 C161 1.757 . S
C845 C120 1.716 . S
C851 C172 1.714 . S
C865 C187 1.759 . S
C871 C135 1.756 . S
C885 C198 1.702 . S
C891 C146 1.704 . S
C905 C263 1.762 . S
C911 C211 1.759 . S
C925 C278 1.700 . S
C931 C226 1.702 . S
C945 C237 1.760 . S
C951 C289 1.762 . S
C965 C304 1.697 . S
C971 C252 1.698 . S
C985 C369 1.761 . S
C991 C317 1.761 . S
C1005 C328 1.707 . S
C1011 C380 1.704 . S
C1025 C395 1.761 . S
C1031 C343 1.761 . S
C1045 C406 1.706 . S
C1051 C354 1.708 . S
C1065 C53 0.503 . S
C1071 C1 0.507 . S
C1085 C75 0.543 . S
C1091 C23 0.530 . S
C1105 C27 0.502 . S
C1111 C79 0.508 . S
C1125 C101 0.537 . S
C1131 C49 0.522 . S
C1145 C166 0.507 . S
C1151 C114 0.504 . S
C1165 C118 0.510 . S
C1171 C170 0.502 . S
C1185 C192 0.508 . S
C1191 C140 0.502 . S
C1205 C196 0.501 . S
C1211 C144 0.505 . S
C1225 C209 0.507 . S
C1231 C261 0.503 . S
C1245 C283 0.537 . S
C1251 C231 0.522 . S
C1265 C287 0.507 . S
C1271 C235 0.502 . S
C1285 C309 0.520 . S
C1291 C257 0.535 . S
C1305 C374 0.506 . S
C1311 C322 0.505 . S
C1325 C326 0.547 . S
C1331 C378 0.543 . S
C1345 C348 0.502 . S
C1351 C400 0.508 . S
C1365 C352 0.508 . S
C1371 C404 0.501 . S
C1385 C5 2.038 . S
C1391 C276 2.101 . S
C1405 C291 2.045 . S
C1411 C16 2.105 . S
C1425 C31 2.045 . S
C1431 C302 2.105 . S
C1445 C42 2.102 . S
C1451 C265 2.027 1_556 S
C1465 C250 2.113 . S
C1471 C57 2.037 . S
C1485 C213 2.044 . S
C1491 C68 2.111 . S
C1505 C224 2.109 . S
C1511 C83 2.046 1_556 S
C1525 C94 2.113 . S
C1531 C239 2.040 . S
C1545 C107 2.025 1_556 S
C1551 C382 2.108 . S
C1565 C393 2.024 . S
C1571 C122 2.106 . S
C1585 C408 2.102 . S
C1591 C133 2.040 . S
C1605 C367 2.025 . S
C1611 C148 2.104 . S
C1625 C356 2.108 . S
C1631 C159 2.025 . S
C1645 C315 2.032 . S
C1651 C174 2.100 . S
C1665 C185 2.045 . S
C1671 C330 2.105 . S
C1685 C200 2.113 . S
C1691 C341 2.028 1_556 S
