# Generated by pormake.
# Topology fcr, (5)-cn, num edge types: 1
# Building blocks:
#     Node 0, Type 0, BuildingBlock: BEQFEK_clean_sbu_0, # of connection points: 5
#     Node 1, Type 0, BuildingBlock: BEQFEK_clean_sbu_0, # of connection points: 5
#     Node 2, Type 0, BuildingBlock: BEQFEK_clean_sbu_0, # of connection points: 5
#     Node 3, Type 0, BuildingBlock: BEQFEK_clean_sbu_0, # of connection points: 5
#     Node 4, Type 0, BuildingBlock: BEQFEK_clean_sbu_0, # of connection points: 5
#     Node 5, Type 0, BuildingBlock: BEQFEK_clean_sbu_0, # of connection points: 5
#     Node 6, Type 0, BuildingBlock: BEQFEK_clean_sbu_0, # of connection points: 5
#     Node 7, Type 0, BuildingBlock: BEQFEK_clean_sbu_0, # of connection points: 5
#     Node 8, Type 0, BuildingBlock: BEQFEK_clean_sbu_0, # of connection points: 5
#     Node 9, Type 0, BuildingBlock: BEQFEK_clean_sbu_0, # of connection points: 5
#     Node 10, Type 0, BuildingBlock: BEQFEK_clean_sbu_0, # of connection points: 5
#     Node 11, Type 0, BuildingBlock: BEQFEK_clean_sbu_0, # of connection points: 5
#     Node 12, Type 0, BuildingBlock: BEQFEK_clean_sbu_0, # of connection points: 5
#     Node 13, Type 0, BuildingBlock: BEQFEK_clean_sbu_0, # of connection points: 5
#     Node 14, Type 0, BuildingBlock: BEQFEK_clean_sbu_0, # of connection points: 5
#     Node 15, Type 0, BuildingBlock: BEQFEK_clean_sbu_0, # of connection points: 5
#     Node 16, Type 0, BuildingBlock: BEQFEK_clean_sbu_0, # of connection points: 5
#     Node 17, Type 0, BuildingBlock: BEQFEK_clean_sbu_0, # of connection points: 5
#     Node 18, Type 0, BuildingBlock: BEQFEK_clean_sbu_0, # of connection points: 5
#     Node 19, Type 0, BuildingBlock: BEQFEK_clean_sbu_0, # of connection points: 5
#     Node 20, Type 0, BuildingBlock: BEQFEK_clean_sbu_0, # of connection points: 5
#     Node 21, Type 0, BuildingBlock: BEQFEK_clean_sbu_0, # of connection points: 5
#     Node 22, Type 0, BuildingBlock: BEQFEK_clean_sbu_0, # of connection points: 5
#     Node 23, Type 0, BuildingBlock: BEQFEK_clean_sbu_0, # of connection points: 5
#     Node 24, Type 0, BuildingBlock: BEQFEK_clean_sbu_0, # of connection points: 5
#     Node 25, Type 0, BuildingBlock: BEQFEK_clean_sbu_0, # of connection points: 5
#     Node 26, Type 0, BuildingBlock: BEQFEK_clean_sbu_0, # of connection points: 5
#     Node 27, Type 0, BuildingBlock: BEQFEK_clean_sbu_0, # of connection points: 5
#     Node 28, Type 0, BuildingBlock: BEQFEK_clean_sbu_0, # of connection points: 5
#     Node 29, Type 0, BuildingBlock: BEQFEK_clean_sbu_0, # of connection points: 5
#     Node 30, Type 0, BuildingBlock: BEQFEK_clean_sbu_0, # of connection points: 5
#     Node 31, Type 0, BuildingBlock: BEQFEK_clean_sbu_0, # of connection points: 5
#     Node 32, Type 0, BuildingBlock: BEQFEK_clean_sbu_0, # of connection points: 5
#     Node 33, Type 0, BuildingBlock: BEQFEK_clean_sbu_0, # of connection points: 5
#     Node 34, Type 0, BuildingBlock: BEQFEK_clean_sbu_0, # of connection points: 5
#     Node 35, Type 0, BuildingBlock: BEQFEK_clean_sbu_0, # of connection points: 5
#     Node 36, Type 0, BuildingBlock: BEQFEK_clean_sbu_0, # of connection points: 5
#     Node 37, Type 0, BuildingBlock: BEQFEK_clean_sbu_0, # of connection points: 5
#     Node 38, Type 0, BuildingBlock: BEQFEK_clean_sbu_0, # of connection points: 5
#     Node 39, Type 0, BuildingBlock: BEQFEK_clean_sbu_0, # of connection points: 5
#     Node 40, Type 0, BuildingBlock: BEQFEK_clean_sbu_0, # of connection points: 5
#     Node 41, Type 0, BuildingBlock: BEQFEK_clean_sbu_0, # of connection points: 5
#     Node 42, Type 0, BuildingBlock: BEQFEK_clean_sbu_0, # of connection points: 5
#     Node 43, Type 0, BuildingBlock: BEQFEK_clean_sbu_0, # of connection points: 5
#     Node 44, Type 0, BuildingBlock: BEQFEK_clean_sbu_0, # of connection points: 5
#     Node 45, Type 0, BuildingBlock: BEQFEK_clean_sbu_0, # of connection points: 5
#     Node 46, Type 0, BuildingBlock: BEQFEK_clean_sbu_0, # of connection points: 5
#     Node 47, Type 0, BuildingBlock: BEQFEK_clean_sbu_0, # of connection points: 5
#     Edge 48, Type (0, 0), None
#     Edge 49, Type (0, 0), None
#     Edge 50, Type (0, 0), None
#     Edge 51, Type (0, 0), None
#     Edge 52, Type (0, 0), None
#     Edge 53, Type (0, 0), None
#     Edge 54, Type (0, 0), None
#     Edge 55, Type (0, 0), None
#     Edge 56, Type (0, 0), None
#     Edge 57, Type (0, 0), None
#     Edge 58, Type (0, 0), None
#     Edge 59, Type (0, 0), None
#     Edge 60, Type (0, 0), None
#     Edge 61, Type (0, 0), None
#     Edge 62, Type (0, 0), None
#     Edge 63, Type (0, 0), None
#     Edge 64, Type (0, 0), None
#     Edge 65, Type (0, 0), None
#     Edge 66, Type (0, 0), None
#     Edge 67, Type (0, 0), None
#     Edge 68, Type (0, 0), None
#     Edge 69, Type (0, 0), None
#     Edge 70, Type (0, 0), None
#     Edge 71, Type (0, 0), None
#     Edge 72, Type (0, 0), None
#     Edge 73, Type (0, 0), None
#     Edge 74, Type (0, 0), None
#     Edge 75, Type (0, 0), None
#     Edge 76, Type (0, 0), None
#     Edge 77, Type (0, 0), None
#     Edge 78, Type (0, 0), None
#     Edge 79, Type (0, 0), None
#     Edge 80, Type (0, 0), None
#     Edge 81, Type (0, 0), None
#     Edge 82, Type (0, 0), None
#     Edge 83, Type (0, 0), None
#     Edge 84, Type (0, 0), None
#     Edge 85, Type (0, 0), None
#     Edge 86, Type (0, 0), None
#     Edge 87, Type (0, 0), None
#     Edge 88, Type (0, 0), None
#     Edge 89, Type (0, 0), None
#     Edge 90, Type (0, 0), None
#     Edge 91, Type (0, 0), None
#     Edge 92, Type (0, 0), None
#     Edge 93, Type (0, 0), None
#     Edge 94, Type (0, 0), None
#     Edge 95, Type (0, 0), None
#     Edge 96, Type (0, 0), None
#     Edge 97, Type (0, 0), None
#     Edge 98, Type (0, 0), None
#     Edge 99, Type (0, 0), None
#     Edge 100, Type (0, 0), None
#     Edge 101, Type (0, 0), None
#     Edge 102, Type (0, 0), None
#     Edge 103, Type (0, 0), None
#     Edge 104, Type (0, 0), None
#     Edge 105, Type (0, 0), None
#     Edge 106, Type (0, 0), None
#     Edge 107, Type (0, 0), None
#     Edge 108, Type (0, 0), None
#     Edge 109, Type (0, 0), None
#     Edge 110, Type (0, 0), None
#     Edge 111, Type (0, 0), None
#     Edge 112, Type (0, 0), None
#     Edge 113, Type (0, 0), None
#     Edge 114, Type (0, 0), None
#     Edge 115, Type (0, 0), None
#     Edge 116, Type (0, 0), None
#     Edge 117, Type (0, 0), None
#     Edge 118, Type (0, 0), None
#     Edge 119, Type (0, 0), None
#     Edge 120, Type (0, 0), None
#     Edge 121, Type (0, 0), None
#     Edge 122, Type (0, 0), None
#     Edge 123, Type (0, 0), None
#     Edge 124, Type (0, 0), None
#     Edge 125, Type (0, 0), None
#     Edge 126, Type (0, 0), None
#     Edge 127, Type (0, 0), None
#     Edge 128, Type (0, 0), None
#     Edge 129, Type (0, 0), None
#     Edge 130, Type (0, 0), None
#     Edge 131, Type (0, 0), None
#     Edge 132, Type (0, 0), None
#     Edge 133, Type (0, 0), None
#     Edge 134, Type (0, 0), None
#     Edge 135, Type (0, 0), None
#     Edge 136, Type (0, 0), None
#     Edge 137, Type (0, 0), None
#     Edge 138, Type (0, 0), None
#     Edge 139, Type (0, 0), None
#     Edge 140, Type (0, 0), None
#     Edge 141, Type (0, 0), None
#     Edge 142, Type (0, 0), None
#     Edge 143, Type (0, 0), None
#     Edge 144, Type (0, 0), None
#     Edge 145, Type (0, 0), None
#     Edge 146, Type (0, 0), None
#     Edge 147, Type (0, 0), None
#     Edge 148, Type (0, 0), None
#     Edge 149, Type (0, 0), None
#     Edge 150, Type (0, 0), None
#     Edge 151, Type (0, 0), None
#     Edge 152, Type (0, 0), None
#     Edge 153, Type (0, 0), None
#     Edge 154, Type (0, 0), None
#     Edge 155, Type (0, 0), None
#     Edge 156, Type (0, 0), None
#     Edge 157, Type (0, 0), None
#     Edge 158, Type (0, 0), None
#     Edge 159, Type (0, 0), None
#     Edge 160, Type (0, 0), None
#     Edge 161, Type (0, 0), None
#     Edge 162, Type (0, 0), None
#     Edge 163, Type (0, 0), None
#     Edge 164, Type (0, 0), None
#     Edge 165, Type (0, 0), None
#     Edge 166, Type (0, 0), None
#     Edge 167, Type (0, 0), None
# Relax obj value: 0.332
# Max RMSD: 0.168
# Mean RMSD: 0.168
data_MOF--net-fcr--node1-BEQFEK_clean_sbu_0--edge1-none
_symmetry_space_group_name_H-M    P1
_symmetry_Int_Tables_number       1
_symmetry_cell_setting            triclinic
loop_
_symmetry_equiv_pos_as_xyz
'x, y, z'
_cell_length_a     32.47615
_cell_length_b     32.343908
_cell_length_c     32.691992
_cell_angle_alpha  89.919016
_cell_angle_beta   90.076798
_cell_angle_gamma 90.039358
loop_
_atom_site_label
_atom_site_type_symbol
_atom_site_fract_x
_atom_site_fract_y
_atom_site_fract_z
_atom_type_partial_charge
Co0 Co 0.14243 0.29588 0.28528 0.0
Co1 Co 0.11312 0.37528 0.24564 0.0
C2 C 0.16305 0.38011 0.32324 0.0
O3 O 0.16541 0.34068 0.32211 0.0
O4 O 0.13975 0.39923 0.29787 0.0
C5 C 0.16153 0.22496 0.32492 0.0
O6 O 0.13552 0.23948 0.35203 0.0
C7 C 0.1315 0.45285 0.19733 0.0
C8 C 0.10004 0.4383 0.13949 0.0
C9 C 0.12962 0.46453 0.15591 0.0
N10 N 0.10596 0.42005 0.20405 0.0
N11 N 0.0866 0.41261 0.16923 0.0
C12 C 0.16069 0.46926 0.2288 0.0
H13 H 0.17464 0.44339 0.24611 0.0
H14 H 0.18564 0.48802 0.21512 0.0
H15 H 0.14319 0.4887 0.25062 0.0
C16 C 0.15277 0.28451 0.1973 0.0
N17 N 0.15095 0.30786 0.2309 0.0
N18 N 0.15628 0.34646 0.221 0.0
C19 C 0.16686 0.34843 0.18131 0.0
C20 C 0.16527 0.30886 0.1649 0.0
C21 C 0.13043 0.24432 0.19324 0.0
H22 H 0.10183 0.24953 0.17532 0.0
H23 H 0.12152 0.23232 0.22371 0.0
H24 H 0.14886 0.22153 0.17602 0.0
O25 O 0.08686 0.27643 0.29005 0.0
O26 O 0.06242 0.3277 0.25188 0.0
H27 H 0.17695 0.39617 0.1368 0.0
H28 H 0.22297 0.37208 0.15348 0.0
C29 C 0.19252 0.38308 0.16405 0.0
H30 H 0.19859 0.40706 0.18726 0.0
H31 H 0.06705 0.38739 0.16462 0.0
O32 O 0.17273 0.24683 0.29493 0.0
C33 C 0.05818 0.29083 0.26834 0.0
Co34 Co 0.54658 0.66955 1.02072 0.0
Co35 Co 0.62663 0.69702 0.0587 0.0
C36 C 0.62785 0.64128 0.98334 0.0
O37 O 0.58861 0.64172 0.98454 0.0
O38 O 0.64823 0.66486 1.0075 0.0
C39 C 0.47767 0.65547 0.97837 0.0
O40 O 0.49576 0.68011 0.95198 0.0
C41 C 0.70367 0.67559 0.1043 0.0
C42 C 0.69874 0.71499 0.15882 0.0
C43 C 0.7197 0.68081 0.14377 0.0
N44 N 0.67345 0.70387 0.09739 0.0
N45 N 0.67164 0.72786 0.13006 0.0
C46 C 0.7131 0.64089 0.0757 0.0
H47 H 0.68435 0.62854 0.06226 0.0
H48 H 0.72945 0.61512 0.09097 0.0
H49 H 0.7326 0.65321 0.05073 0.0
C50 C 0.53154 0.65607 0.10747 0.0
N51 N 0.55676 0.66087 0.07557 0.0
N52 N 0.59485 0.6584 0.0878 0.0
C53 C 0.59495 0.64701 0.12746 0.0
C54 C 0.55463 0.64426 0.14095 0.0
C55 C 0.49156 0.67873 0.11052 0.0
H56 H 0.49611 0.70664 0.12974 0.0
H57 H 0.4812 0.68915 0.07991 0.0
H58 H 0.46781 0.65981 0.12589 0.0
O59 O 0.52981 0.72607 1.01491 0.0
O60 O 0.58231 0.75053 0.05096 0.0
H61 H 0.6456 0.65116 0.16885 0.0
H62 H 0.62147 0.60234 0.16988 0.0
C63 C 0.63097 0.62771 0.14909 0.0
H64 H 0.65307 0.6147 0.12699 0.0
H65 H 0.64944 0.7508 0.13429 0.0
O66 O 0.49661 0.64274 1.00968 0.0
C67 C 0.54545 0.75528 0.03499 0.0
Co68 Co 0.93376 0.26973 0.27982 0.0
Co69 Co 0.95872 0.18666 0.24596 0.0
C70 C 0.90356 0.18794 0.31979 0.0
O71 O 0.90275 0.22742 0.31591 0.0
O72 O 0.9286 0.16676 0.29801 0.0
C73 C 0.93028 0.35608 0.28106 0.0
O74 O 0.96928 0.3557 0.2708 0.0
C75 C 0.93694 0.10835 0.19959 0.0
C76 C 0.96299 0.12397 0.13952 0.0
C77 C 0.93539 0.09716 0.15816 0.0
N78 N 0.96245 0.14146 0.20455 0.0
N79 N 0.97856 0.14956 0.16827 0.0
C80 C 0.9117 0.09018 0.23317 0.0
H81 H 0.902 0.11486 0.25404 0.0
H82 H 0.88381 0.07436 0.22163 0.0
H83 H 0.93077 0.0678 0.2506 0.0
C84 C 0.90858 0.27992 0.19481 0.0
N85 N 0.92817 0.25808 0.22382 0.0
N86 N 0.91981 0.21894 0.21953 0.0
C87 C 0.89105 0.21443 0.19034 0.0
C88 C 0.88433 0.25257 0.17303 0.0
C89 C 0.92796 0.31718 0.17577 0.0
H90 H 0.95254 0.30675 0.15459 0.0
H91 H 0.94288 0.3367 0.19919 0.0
H92 H 0.90561 0.33501 0.15736 0.0
O93 O 0.99021 0.28073 0.29148 0.0
O94 O 1.01239 0.23051 0.25121 0.0
H95 H 0.88074 0.15995 0.15507 0.0
H96 H 0.83479 0.18317 0.17327 0.0
C97 C 0.86707 0.17592 0.18166 0.0
H98 H 0.8665 0.15569 0.20883 0.0
H99 H 0.99724 0.17512 0.16227 0.0
O100 O 0.91003 0.32296 0.28698 0.0
C101 C 1.01803 0.26649 0.26882 0.0
Co102 Co 0.51562 0.88072 1.01807 0.0
Co103 Co 0.436 0.85054 0.05533 0.0
C104 C 0.43194 0.90145 0.97811 0.0
O105 O 0.47124 0.90359 0.97994 0.0
O106 O 0.41257 0.87793 1.00307 0.0
C107 C 0.58554 0.90274 0.97887 0.0
O108 O 0.57267 0.87582 0.95168 0.0
C109 C 0.35748 0.86803 0.10018 0.0
C110 C 0.37096 0.83924 0.15967 0.0
C111 C 0.34488 0.86779 0.14126 0.0
N112 N 0.39074 0.84288 0.09552 0.0
N113 N 0.39759 0.82502 0.13128 0.0
C114 C 0.34099 0.89474 0.06664 0.0
H115 H 0.36634 0.91271 0.05267 0.0
H116 H 0.31702 0.91647 0.07713 0.0
H117 H 0.32769 0.87441 0.04277 0.0
C118 C 0.52619 0.89973 0.10461 0.0
N119 N 0.50314 0.89049 0.07203 0.0
N120 N 0.46437 0.89362 0.08127 0.0
C121 C 0.46127 0.90959 0.11913 0.0
C122 C 0.50057 0.91404 0.13515 0.0
C123 C 0.56746 0.88059 0.11169 0.0
H124 H 0.56355 0.85323 0.13186 0.0
H125 H 0.58079 0.86971 0.08245 0.0
H126 H 0.5885 0.90188 0.12779 0.0
O127 O 0.53653 0.82513 1.01482 0.0
O128 O 0.48353 0.79955 0.0495 0.0
H129 H 0.41114 0.9156 0.16109 0.0
H130 H 0.43202 0.96362 0.1457 0.0
C131 C 0.42404 0.93232 0.13449 0.0
H132 H 0.40095 0.93638 0.11008 0.0
H133 H 0.42296 0.80622 0.13742 0.0
O134 O 0.56328 0.91246 1.00887 0.0
C135 C 0.52103 0.79566 0.03482 0.0
Co136 Co 0.12896 0.77194 0.28133 0.0
Co137 Co 0.1079 0.69365 0.33013 0.0
C138 C 0.15293 0.68767 0.24782 0.0
O139 O 0.15226 0.727 0.24569 0.0
O140 O 0.13382 0.66946 0.27693 0.0
C141 C 0.13181 0.85004 0.2427 0.0
O142 O 0.09384 0.84396 0.23032 0.0
C143 C 0.13868 0.61931 0.37599 0.0
C144 C 0.098 0.61734 0.4297 0.0
C145 C 0.13426 0.60057 0.41443 0.0
N146 N 0.10773 0.6471 0.37005 0.0
N147 N 0.08306 0.64472 0.40211 0.0
C148 C 0.17454 0.61466 0.34762 0.0
H149 H 0.1828 0.64503 0.33416 0.0
H150 H 0.20178 0.60165 0.36355 0.0
H151 H 0.16572 0.5936 0.32232 0.0
C152 C 0.15376 0.79603 0.36287 0.0
N153 N 0.14543 0.76671 0.33522 0.0
N154 N 0.14623 0.73039 0.35288 0.0
C155 C 0.15903 0.73563 0.39171 0.0
C156 C 0.16526 0.77724 0.39887 0.0
C157 C 0.1345 0.838 0.36151 0.0
H158 H 0.10621 0.83761 0.38056 0.0
H159 H 0.12522 0.84653 0.33009 0.0
H160 H 0.15521 0.86149 0.37505 0.0
O161 O 0.07235 0.78504 0.28342 0.0
O162 O 0.0538 0.73574 0.32694 0.0
H163 H 0.14356 0.68838 0.43457 0.0
H164 H 0.19066 0.71363 0.44608 0.0
C165 C 0.17143 0.7018 0.42056 0.0
H166 H 0.18916 0.67786 0.40415 0.0
H167 H 0.05763 0.66388 0.40659 0.0
O168 O 0.1517 0.82218 0.26162 0.0
C169 C 0.04733 0.77172 0.30961 0.0
Co170 Co 1.00769 0.67387 1.0081 0.0
Co171 Co 0.92895 0.69945 0.9646 0.0
C172 C 0.92673 0.6487 0.04414 0.0
O173 O 0.96577 0.64856 0.04428 0.0
O174 O 0.90759 0.67017 1.01736 0.0
C175 C 0.07998 0.66303 0.04998 0.0
O176 O 0.07006 0.69716 0.06927 0.0
C177 C 0.8554 0.66524 0.9224 0.0
C178 C 0.84266 0.70923 0.8727 0.0
C179 C 0.83207 0.66998 0.88667 0.0
N180 N 0.87974 0.69906 0.92809 0.0
N181 N 0.871 0.72559 0.89851 0.0
C182 C 0.85861 0.62669 0.94767 0.0
H183 H 0.89089 0.62173 0.95755 0.0
H184 H 0.84805 0.59911 0.93052 0.0
H185 H 0.83925 0.63018 0.97539 0.0
C186 C 0.02935 0.65582 0.92535 0.0
N187 N 1.00054 0.66169 0.95386 0.0
N188 N 0.96428 0.6634 0.93672 0.0
C189 C 0.96902 0.65379 0.89691 0.0
C190 C 1.01006 0.64596 0.88911 0.0
C191 C 0.06875 0.67991 0.92616 0.0
H192 H 0.06442 0.70897 0.90854 0.0
H193 H 0.07722 0.68875 0.95779 0.0
H194 H 0.09398 0.66279 0.91103 0.0
O195 O 1.02265 0.73022 1.01014 0.0
O196 O 0.97175 0.75362 0.97086 0.0
H197 H 0.92107 0.6778 0.85905 0.0
H198 H 0.94738 0.6349 0.83717 0.0
C199 C 0.93528 0.64768 0.86629 0.0
H200 H 0.91203 0.62592 0.87846 0.0
H201 H 0.88637 0.75362 0.89419 0.0
O202 O 0.05623 0.64732 1.02366 0.0
C203 C 1.0084 0.75815 0.98741 0.0
Co204 Co 0.92343 0.79427 0.28598 0.0
Co205 Co 0.94784 0.87303 0.33314 0.0
C206 C 0.90111 0.87794 0.25206 0.0
O207 O 0.9004 0.83867 0.25012 0.0
O208 O 0.92147 0.89577 0.28042 0.0
C209 C 0.92041 0.71902 0.24387 0.0
O210 O 0.95639 0.72899 0.22852 0.0
C211 C 0.91568 0.94828 0.37547 0.0
C212 C 0.95788 0.95602 0.42751 0.0
C213 C 0.92046 0.9701 0.41212 0.0
N214 N 0.94772 0.92153 0.37059 0.0
N215 N 0.97327 0.92738 0.40156 0.0
C216 C 0.87846 0.94889 0.34841 0.0
H217 H 0.87122 0.9172 0.33769 0.0
H218 H 0.85129 0.96173 0.36449 0.0
H219 H 0.88502 0.9684 0.32126 0.0
C220 C 0.8961 0.77238 0.36714 0.0
N221 N 0.90751 0.80098 0.33988 0.0
N222 N 0.90969 0.83714 0.35765 0.0
C223 C 0.89484 0.83302 0.39587 0.0
C224 C 0.88453 0.79225 0.40254 0.0
C225 C 0.91657 0.73098 0.36818 0.0
H226 H 0.9434 0.73244 0.38923 0.0
H227 H 0.92842 0.72254 0.3376 0.0
H228 H 0.89573 0.70699 0.3805 0.0
O229 O 0.97995 0.78074 0.2876 0.0
O230 O 1.00201 0.83125 0.32802 0.0
H231 H 0.91879 0.87937 0.43576 0.0
H232 H 0.87308 0.85528 0.45435 0.0
C233 C 0.88859 0.86689 0.42635 0.0
H234 H 0.86927 0.89155 0.41289 0.0
H235 H 0.99973 0.90979 0.40661 0.0
O236 O 0.90067 0.74383 0.26659 0.0
C237 C 1.00712 0.7949 0.31108 0.0
Co238 Co 0.03539 0.88006 1.01834 0.0
Co239 Co 0.1122 0.85706 0.96805 0.0
C240 C 0.12081 0.89995 0.05082 0.0
O241 O 0.08169 0.90112 0.0537 0.0
O242 O 0.13749 0.88042 1.02124 0.0
C243 C 0.95967 0.88489 0.06019 0.0
O244 O 0.96692 0.84751 0.07406 0.0
C245 C 0.18739 0.88845 0.92418 0.0
C246 C 0.18967 0.84953 0.8692 0.0
C247 C 0.20683 0.88506 0.88608 0.0
N248 N 0.15901 0.85762 0.92847 0.0
N249 N 0.16158 0.83399 0.89563 0.0
C250 C 0.19208 0.92346 0.95372 0.0
H251 H 0.16161 0.93244 0.96611 0.0
H252 H 0.2067 0.95073 0.93912 0.0
H253 H 0.21165 0.91315 0.9796 0.0
C254 C 1.01177 0.90781 0.93754 0.0
N255 N 0.04088 0.89761 0.9647 0.0
N256 N 0.07688 0.89753 0.94678 0.0
C257 C 0.07186 0.91203 0.90848 0.0
C258 C 0.03065 0.91988 0.90181 0.0
C259 C 0.96992 0.88854 0.93812 0.0
H260 H 0.97004 0.86109 0.91775 0.0
H261 H 0.9618 0.8777 0.96918 0.0
H262 H 0.94651 0.91002 0.9257 0.0
O263 O 1.02009 0.82357 1.01501 0.0
O264 O 0.06833 0.80383 0.97106 0.0
H265 H 0.11805 0.89518 0.86529 0.0
H266 H 0.09428 0.94334 0.85417 0.0
C267 C 0.10568 0.92351 0.87949 0.0
H268 H 0.13026 0.94044 0.89585 0.0
H269 H 0.14219 0.80893 0.88984 0.0
O270 O 0.9862 0.90426 0.03908 0.0
C271 C 0.03247 0.79814 0.9887 0.0
Co272 Co 0.25942 0.12155 0.28746 0.0
Co273 Co 0.23844 0.08354 0.36809 0.0
C274 C 0.31101 0.13754 0.36735 0.0
O275 O 0.30104 0.14411 0.32995 0.0
O276 O 0.29223 0.10951 0.38774 0.0
C277 C 0.29459 0.14952 0.22035 0.0
O278 O 0.3205 0.12028 0.23105 0.0
C279 C 0.1944 0.10181 0.44666 0.0
C280 C 0.1316 0.08864 0.42545 0.0
C281 C 0.15283 0.11134 0.45459 0.0
N282 N 0.19732 0.07708 0.41301 0.0
N283 N 0.1591 0.06852 0.40173 0.0
C284 C 0.23062 0.11521 0.47156 0.0
H285 H 0.25992 0.10821 0.45587 0.0
H286 H 0.22866 0.14864 0.47867 0.0
H287 H 0.23036 0.09783 0.5008 0.0
C288 C 0.18232 0.15709 0.29385 0.0
N289 N 0.20607 0.12583 0.30591 0.0
N290 N 0.21097 0.128 0.34532 0.0
C291 C 0.19478 0.16365 0.35921 0.0
C292 C 0.17535 0.18256 0.32687 0.0
C293 C 0.16785 0.16265 0.25108 0.0
H294 H 0.17776 0.13639 0.23162 0.0
H295 H 0.18051 0.19186 0.23925 0.0
H296 H 0.13376 0.16488 0.25079 0.0
O297 O 0.26514 0.06783 0.26307 0.0
O298 O 0.24344 0.03511 0.31872 0.0
H299 H 0.18288 0.18458 0.42015 0.0
H300 H 0.21511 0.21818 0.39112 0.0
C301 C 0.20817 0.18517 0.39748 0.0
H302 H 0.23632 0.17064 0.40994 0.0
H303 H 0.15165 0.05309 0.37471 0.0
O304 O 0.26389 0.15749 0.24247 0.0
C305 C 0.25329 0.03488 0.27974 0.0
Co306 Co 0.37681 0.55489 1.00595 0.0
Co307 Co 0.34037 0.57943 0.92534 0.0
C308 C 0.39365 0.50597 0.92556 0.0
O309 O 0.39943 0.5147 0.96323 0.0
O310 O 0.36665 0.52592 0.90503 0.0
C311 C 0.40619 0.51455 0.0686 0.0
O312 O 0.37847 0.48857 0.05462 0.0
C313 C 0.36099 0.62285 0.84579 0.0
C314 C 0.34856 0.6866 0.86506 0.0
C315 C 0.37083 0.66428 0.83647 0.0
N316 N 0.33632 0.62103 0.87962 0.0
N317 N 0.32834 0.65983 0.88975 0.0
C318 C 0.37429 0.58583 0.82185 0.0
H319 H 0.36072 0.55709 0.83443 0.0
H320 H 0.4083 0.58355 0.82137 0.0
H321 H 0.36401 0.58957 0.78968 0.0
C322 C 0.40861 0.63385 1.0043 0.0
N323 N 0.37933 0.60931 0.98965 0.0
N324 N 0.38331 0.60669 0.95021 0.0
C325 C 0.41875 0.62486 0.93876 0.0
C326 C 0.43542 0.6431 0.97298 0.0
C327 C 0.41183 0.64551 0.04814 0.0
H328 H 0.38473 0.63421 0.06557 0.0
H329 H 0.44014 0.63194 0.06074 0.0
H330 H 0.41404 0.67964 0.05074 0.0
O331 O 0.32433 0.54738 0.0301 0.0
O332 O 0.29212 0.57344 0.9758 0.0
H333 H 0.44062 0.64003 0.87887 0.0
H334 H 0.47508 0.60859 0.9079 0.0
C335 C 0.44208 0.61401 0.90085 0.0
H336 H 0.42939 0.58542 0.88727 0.0
H337 H 0.31298 0.66824 0.91648 0.0
O338 O 0.41267 0.54824 0.05028 0.0
C339 C 0.29202 0.56175 1.0145 0.0
Co340 Co 0.78873 0.4258 0.28153 0.0
Co341 Co 0.83119 0.45567 0.36156 0.0
C342 C 0.75262 0.40049 0.36231 0.0
O343 O 0.7523 0.40001 0.32343 0.0
O344 O 0.77908 0.4229 0.38105 0.0
C345 C 0.76707 0.41951 0.19734 0.0
O346 O 0.77034 0.45974 0.19371 0.0
C347 C 0.87473 0.4197 0.43405 0.0
C348 C 0.92041 0.46652 0.45159 0.0
C349 C 0.90925 0.42566 0.45917 0.0
N350 N 0.8671 0.45454 0.4117 0.0
N351 N 0.89421 0.48268 0.42346 0.0
C352 C 0.85282 0.3795 0.42751 0.0
H353 H 0.843 0.3765 0.39517 0.0
H354 H 0.8727 0.35288 0.43573 0.0
H355 H 0.82495 0.37871 0.44709 0.0
C356 C 0.87152 0.39897 0.26525 0.0
N357 N 0.84368 0.41433 0.29094 0.0
N358 N 0.86172 0.42284 0.32579 0.0
C359 C 0.90158 0.41124 0.32297 0.0
C360 C 0.90839 0.39436 0.28505 0.0
C361 C 0.86384 0.39013 0.22154 0.0
H362 H 0.847 0.41636 0.20781 0.0
H363 H 0.84552 0.3613 0.21934 0.0
H364 H 0.89321 0.38721 0.20485 0.0
O365 O 0.78583 0.48296 0.26845 0.0
O366 O 0.82292 0.50934 0.3195 0.0
H367 H 0.93426 0.4491 0.3657 0.0
H368 H 0.96542 0.41083 0.34123 0.0
C369 C 0.93452 0.41695 0.35443 0.0
H370 H 0.92985 0.39477 0.37978 0.0
H371 H 0.89674 0.51202 0.41033 0.0
O372 O 0.77323 0.40099 0.23106 0.0
C373 C 0.80659 0.51238 0.28284 0.0
Co374 Co 0.68247 1.01331 1.01271 0.0
Co375 Co 0.71937 0.9889 0.93161 0.0
C376 C 0.66634 0.06291 0.93163 0.0
O377 O 0.66056 0.05435 0.96948 0.0
O378 O 0.69311 0.04261 0.91112 0.0
C379 C 0.65493 0.04847 0.0807 0.0
O380 O 0.68471 0.07421 0.07122 0.0
C381 C 0.70114 0.9413 0.85431 0.0
C382 C 0.7158 0.87932 0.87751 0.0
C383 C 0.69273 0.89904 0.8476 0.0
N384 N 0.72566 0.94597 0.88793 0.0
N385 N 0.73513 0.9082 0.9004 0.0
C386 C 0.68604 0.97659 0.8289 0.0
H387 H 0.68967 1.00633 0.8451 0.0
H388 H 0.65344 0.97193 0.81993 0.0
H389 H 0.70501 0.97811 0.80078 0.0
C390 C 0.65005 0.93316 1.00855 0.0
N391 N 0.67829 0.95959 0.99498 0.0
N392 N 0.67558 0.962 0.95542 0.0
C393 C 0.64223 0.94098 0.94251 0.0
C394 C 0.6259 0.92112 0.97596 0.0
C395 C 0.64586 0.92101 0.05216 0.0
H396 H 0.67127 0.93426 0.07074 0.0
H397 H 0.61593 0.93214 0.06331 0.0
H398 H 0.64632 0.8868 0.05463 0.0
O399 O 0.73594 1.01914 0.0365 0.0
O400 O 0.76752 0.99461 0.98137 0.0
H401 H 0.62008 0.92446 0.88293 0.0
H402 H 0.58574 0.95608 0.91148 0.0
C403 C 0.61875 0.95092 0.90431 0.0
H404 H 0.63084 0.97948 0.89004 0.0
H405 H 0.75073 0.90199 0.92764 0.0
O406 O 0.6467 1.01837 0.05765 0.0
C407 C 0.76821 1.00567 1.02007 0.0
Co408 Co 0.27434 0.91191 0.24724 0.0
Co409 Co 0.23629 0.9432 0.16804 0.0
C410 C 0.31441 0.89421 0.16418 0.0
O411 O 0.31219 0.88993 0.20302 0.0
O412 O 0.28974 0.91877 0.14557 0.0
C413 C 0.3131 0.89207 0.31744 0.0
O414 O 0.33988 0.9184 0.30236 0.0
C415 C 0.18795 0.92502 0.09104 0.0
C416 C 0.12872 0.9531 0.10805 0.0
C417 C 0.14584 0.92516 0.08076 0.0
N418 N 0.19443 0.95012 0.12395 0.0
N419 N 0.15871 0.96747 0.13286 0.0
C420 C 0.22064 0.89823 0.07269 0.0
H421 H 0.24027 0.88479 0.097 0.0
H422 H 0.20739 0.87291 0.05404 0.0
H423 H 0.24066 0.91761 0.05296 0.0
C424 C 0.18543 0.90117 0.25317 0.0
N425 N 0.22032 0.90448 0.23226 0.0
N426 N 0.21287 0.89773 0.19379 0.0
C427 C 0.17388 0.88409 0.18971 0.0
C428 C 0.1556 0.88467 0.22803 0.0
C429 C 0.1821 0.90851 0.29772 0.0
H430 H 0.20419 0.93282 0.30729 0.0
H431 H 0.18968 0.87918 0.31284 0.0
H432 H 0.15019 0.91744 0.30606 0.0
O433 O 0.27825 0.96733 0.26756 0.0
O434 O 0.24011 0.99244 0.21683 0.0
H435 H 0.13224 0.86464 0.14245 0.0
H436 H 0.15643 0.82304 0.16923 0.0
C437 C 0.16164 0.85443 0.15647 0.0
H438 H 0.18598 0.85162 0.13309 0.0
H439 H 0.15384 0.98592 0.15858 0.0
O440 O 0.28259 0.8806 0.29621 0.0
C441 C 0.25612 0.99603 0.25359 0.0
Co442 Co 0.17115 0.53061 0.04551 0.0
Co443 Co 0.20024 0.57688 0.12515 0.0
C444 C 0.15489 0.49471 0.13106 0.0
O445 O 0.15137 0.49386 0.09205 0.0
O446 O 0.1769 0.52257 0.14833 0.0
C447 C 0.16115 0.51868 0.95946 0.0
O448 O 0.19774 0.53544 0.95581 0.0
C449 C 0.18069 0.62275 0.20489 0.0
C450 C 0.20426 0.68439 0.18872 0.0
C451 C 0.17883 0.66463 0.21674 0.0
N452 N 0.20394 0.61906 0.17021 0.0
N453 N 0.21874 0.65621 0.16195 0.0
C454 C 0.15747 0.58759 0.22389 0.0
H455 H 0.14296 0.56826 0.19998 0.0
H456 H 0.13342 0.59853 0.24528 0.0
H457 H 0.17948 0.56776 0.24093 0.0
C458 C 0.13379 0.61099 0.03494 0.0
N459 N 0.1557 0.58478 0.05736 0.0
N460 N 0.15667 0.59815 0.0951 0.0
C461 C 0.13146 0.63115 0.09856 0.0
C462 C 0.11665 0.64014 0.06013 0.0
C463 C 0.12872 0.60748 0.9903 0.0
H464 H 0.15855 0.59856 0.97682 0.0
H465 H 0.10474 0.58392 0.98417 0.0
H466 H 0.11989 0.63743 0.97688 0.0
O467 O 0.22772 0.53168 0.0295 0.0
O468 O 0.24969 0.57521 0.07726 0.0
H469 H 0.1298 0.6742 0.14801 0.0
H470 H 0.08033 0.65522 0.13358 0.0
C471 C 0.11303 0.64632 0.13768 0.0
H472 H 0.11362 0.62173 0.16101 0.0
H473 H 0.23574 0.66317 0.13576 0.0
O474 O 0.14438 0.51365 0.99437 0.0
C475 C 0.25382 0.55793 0.04118 0.0
Co476 Co 0.78864 0.63636 0.25109 0.0
Co477 Co 0.82615 0.6029 0.17137 0.0
C478 C 0.74895 0.65427 0.16809 0.0
O479 O 0.75093 0.65901 0.20681 0.0
O480 O 0.77355 0.62945 0.15021 0.0
C481 C 0.74977 0.65271 0.32328 0.0
O482 O 0.72792 0.6205 0.31209 0.0
C483 C 0.8649 0.62095 0.09011 0.0
C484 C 0.92582 0.59276 0.09923 0.0
C485 C 0.90521 0.62112 0.07465 0.0
N486 N 0.863 0.59577 0.12358 0.0
N487 N 0.89947 0.57817 0.12769 0.0
C488 C 0.82986 0.64746 0.07599 0.0
H489 H 0.82034 0.66885 0.10065 0.0
H490 H 0.83768 0.66564 0.04837 0.0
H491 H 0.80324 0.62721 0.06901 0.0
C492 C 0.87234 0.66256 0.25958 0.0
N493 N 0.84308 0.64494 0.23745 0.0
N494 N 0.85407 0.64479 0.19914 0.0
C495 C 0.88868 0.66776 0.19521 0.0
C496 C 0.90068 0.68023 0.23388 0.0
C497 C 0.87284 0.66255 0.30468 0.0
H498 H 0.85271 0.6375 0.31642 0.0
H499 H 0.86182 0.69304 0.31455 0.0
H500 H 0.90472 0.65775 0.31596 0.0
O501 O 0.78595 0.58097 0.271 0.0
O502 O 0.82108 0.55344 0.21949 0.0
H503 H 0.92958 0.66436 0.14436 0.0
H504 H 0.91904 0.71587 0.16035 0.0
C505 C 0.90504 0.68494 0.15593 0.0
H506 H 0.88014 0.68827 0.13324 0.0
H507 H 0.90769 0.55945 0.15241 0.0
O508 O 0.77721 0.66727 0.29982 0.0
C509 C 0.80645 0.55131 0.25691 0.0
Co510 Co 0.89089 1.02499 0.05352 0.0
Co511 Co 0.85862 0.98881 0.13246 0.0
C512 C 0.90872 0.06657 0.13558 0.0
O513 O 0.9128 0.06381 0.09685 0.0
O514 O 0.88417 0.04216 0.15442 0.0
C515 C 0.91199 0.06544 0.98597 0.0
O516 O 0.88567 0.0918 1.00167 0.0
C517 C 0.8749 0.94369 0.21073 0.0
C518 C 0.84757 0.88343 0.19517 0.0
C519 C 0.87508 0.90181 0.22212 0.0
N520 N 0.85019 0.94884 0.17741 0.0
N521 N 0.83316 0.91263 0.16938 0.0
C522 C 0.90111 0.97742 0.22831 0.0
H523 H 0.91748 0.99405 0.20361 0.0
H524 H 0.92404 0.96565 0.2505 0.0
H525 H 0.88083 1.0 0.24392 0.0
C526 C 0.90698 0.93706 0.0471 0.0
N527 N 0.89872 0.97087 0.06845 0.0
N528 N 0.90299 0.96291 0.10715 0.0
C529 C 0.91936 0.92479 0.11154 0.0
C530 C 0.92365 0.90782 0.07285 0.0
C531 C 0.90248 0.9342 1.00222 0.0
H532 H 0.87767 0.95524 0.99167 0.0
H533 H 0.93213 0.94355 0.98907 0.0
H534 H 0.89548 0.90194 0.99298 0.0
O535 O 0.83626 1.02862 0.0318 0.0
O536 O 0.80977 0.99294 0.08355 0.0
H537 H 0.93296 0.8839 0.16136 0.0
H538 H 0.97742 0.90567 0.13776 0.0
C539 C 0.94545 0.91258 0.14752 0.0
H540 H 0.94722 0.93763 0.17033 0.0
H541 H 0.81515 0.90678 0.14355 0.0
O542 O 0.92277 0.03379 1.00592 0.0
C543 C 0.80692 1.00783 0.04625 0.0
Co544 Co 0.2842 0.28086 0.12741 0.0
Co545 Co 0.3656 0.23849 0.10034 0.0
C546 C 0.36905 0.31997 0.14541 0.0
O547 O 0.32971 0.31899 0.1473 0.0
O548 O 0.3885 0.2928 0.12446 0.0
C549 C 0.1985 0.29448 0.13946 0.0
O550 O 0.19165 0.27996 0.10263 0.0
C551 C 0.44344 0.18859 0.11943 0.0
C552 C 0.42209 0.12736 0.09925 0.0
C553 C 0.45215 0.14608 0.12303 0.0
N554 N 0.40856 0.19405 0.09673 0.0
N555 N 0.39711 0.15698 0.08397 0.0
C556 C 0.46617 0.223 0.14004 0.0
H557 H 0.44584 0.24985 0.14451 0.0
H558 H 0.47856 0.21319 0.17012 0.0
H559 H 0.49216 0.23275 0.12028 0.0
C560 C 0.27511 0.20131 0.16628 0.0
N561 N 0.29616 0.22735 0.1427 0.0
N562 N 0.335 0.21713 0.14321 0.0
C563 C 0.34083 0.18682 0.17084 0.0
C564 C 0.30275 0.17548 0.18542 0.0
C565 C 0.22972 0.20204 0.17069 0.0
H566 H 0.21548 0.21143 0.14132 0.0
H567 H 0.22182 0.22483 0.19466 0.0
H568 H 0.21792 0.17101 0.17899 0.0
O569 O 0.26823 0.28079 0.07182 0.0
O570 O 0.31983 0.24196 0.04944 0.0
H571 H 0.39357 0.14881 0.18201 0.0
H572 H 0.37595 0.17627 0.22593 0.0
C573 C 0.38068 0.17867 0.1924 0.0
H574 H 0.40228 0.20449 0.1874 0.0
H575 H 0.36985 0.15137 0.06799 0.0
O576 O 0.23452 0.29625 0.15458 0.0
C577 C 0.28302 0.25782 0.04462 0.0
Co578 Co 0.28782 0.79152 0.42753 0.0
Co579 Co 0.36915 0.82637 0.45897 0.0
C580 C 0.37135 0.75083 0.40714 0.0
O581 O 0.33242 0.75513 0.40246 0.0
O582 O 0.39088 0.77314 0.4331 0.0
C583 C 0.20272 0.79022 0.41845 0.0
O584 O 0.20185 0.81092 0.45291 0.0
C585 C 0.44834 0.87279 0.44023 0.0
C586 C 0.42567 0.9358 0.45124 0.0
C587 C 0.45668 0.91454 0.43118 0.0
N588 N 0.41283 0.86983 0.46229 0.0
N589 N 0.40059 0.90812 0.46958 0.0
C590 C 0.47393 0.83655 0.42775 0.0
H591 H 0.46062 0.80723 0.43922 0.0
H592 H 0.47699 0.83551 0.39401 0.0
H593 H 0.50529 0.84025 0.44074 0.0
C594 C 0.28482 0.86601 0.38466 0.0
N595 N 0.3004 0.84665 0.41723 0.0
N596 N 0.34044 0.84983 0.41589 0.0
C597 C 0.35175 0.86691 0.37998 0.0
C598 C 0.31655 0.8781 0.3595 0.0
C599 C 0.24034 0.87351 0.37851 0.0
H600 H 0.22399 0.87323 0.40823 0.0
H601 H 0.22828 0.84874 0.35853 0.0
H602 H 0.23588 0.9041 0.364 0.0
O603 O 0.27288 0.78402 0.48344 0.0
O604 O 0.32369 0.82118 0.50974 0.0
H605 H 0.41122 0.89027 0.36425 0.0
H606 H 0.39002 0.85564 0.32728 0.0
C607 C 0.39303 0.86156 0.36058 0.0
H608 H 0.40899 0.83486 0.3745 0.0
H609 H 0.37255 0.91543 0.48333 0.0
O610 O 0.23647 0.77975 0.40174 0.0
C611 C 0.28717 0.80437 0.51289 0.0
Co612 Co 1.02599 0.51929 0.87408 0.0
Co613 Co 0.06627 0.43645 0.85061 0.0
C614 C 0.98849 0.43708 0.9029 0.0
O615 O 0.98972 0.47668 0.90291 0.0
O616 O 1.01342 0.41661 0.88029 0.0
C617 C 1.01986 0.60635 0.87153 0.0
O618 O 0.03602 0.60406 0.83489 0.0
C619 C 0.11213 0.35797 0.87353 0.0
C620 C 0.17042 0.36799 0.84084 0.0
C621 C 0.153 0.34408 0.8716 0.0
N622 N 0.1066 0.38993 0.84685 0.0
N623 N 0.14162 0.3946 0.82675 0.0
C624 C 0.08058 0.34444 0.90391 0.0
H625 H 0.06171 0.37106 0.91343 0.0
H626 H 0.09481 0.33076 0.93158 0.0
H627 H 0.06029 0.32107 0.88939 0.0
C628 C 0.10981 0.53301 0.90399 0.0
N629 N 0.08176 0.50925 0.88543 0.0
N630 N 0.09293 0.47054 0.88849 0.0
C631 C 0.12616 0.46829 0.91323 0.0
C632 C 0.13802 0.50781 0.9232 0.0
C633 C 0.1123 0.57856 0.89888 0.0
H634 H 0.10651 0.58671 0.86646 0.0
H635 H 0.0881 0.59277 0.91773 0.0
H636 H 0.14307 0.59053 0.90759 0.0
O637 O 1.018 0.5274 0.81709 0.0
O638 O 0.0603 0.4781 0.79632 0.0
H639 H 0.16613 0.4163 0.91033 0.0
H640 H 0.16086 0.43654 0.96044 0.0
C641 C 0.14374 0.4299 0.93181 0.0
H642 H 0.11888 0.40794 0.93926 0.0
H643 H 0.14712 0.41845 0.80593 0.0
O644 O 1.01344 0.57417 0.89323 0.0
C645 C 0.04139 0.51326 0.78998 0.0
Co646 Co 0.75849 0.77732 0.42116 0.0
Co647 Co 0.67649 0.73577 0.44764 0.0
C648 C 0.67555 0.81503 0.39762 0.0
O649 O 0.71491 0.81403 0.39597 0.0
O650 O 0.65585 0.78943 0.42035 0.0
C651 C 0.8452 0.78265 0.42058 0.0
O652 O 0.84352 0.76417 0.45626 0.0
C653 C 0.59646 0.69033 0.42917 0.0
C654 C 0.61349 0.62847 0.45143 0.0
C655 C 0.58498 0.6485 0.42673 0.0
N656 N 0.63138 0.69403 0.45208 0.0
N657 N 0.64023 0.65674 0.46615 0.0
C658 C 0.57706 0.72559 0.40684 0.0
H659 H 0.60133 0.74491 0.39306 0.0
H660 H 0.55574 0.71526 0.38248 0.0
H661 H 0.55996 0.74496 0.42904 0.0
C662 C 0.76795 0.6984 0.38269 0.0
N663 N 0.7468 0.72234 0.40814 0.0
N664 N 0.70801 0.71162 0.40683 0.0
C665 C 0.70276 0.68304 0.3772 0.0
C666 C 0.74092 0.67393 0.36129 0.0
C667 C 0.81329 0.6966 0.3819 0.0
H668 H 0.82555 0.70145 0.41312 0.0
H669 H 0.82432 0.72143 0.36144 0.0
H670 H 0.82356 0.66579 0.37163 0.0
O671 O 0.7687 0.78289 0.4778 0.0
O672 O 0.72063 0.73963 0.49944 0.0
H673 H 0.65061 0.64301 0.37372 0.0
H674 H 0.6656 0.66415 0.32545 0.0
C675 C 0.66244 0.67116 0.35846 0.0
H676 H 0.64042 0.69685 0.36104 0.0
H677 H 0.66689 0.64981 0.48264 0.0
O678 O 0.8127 0.79077 0.40014 0.0
C679 C 0.75611 0.75804 0.5045 0.0
Co680 Co 0.51617 0.54447 0.37718 0.0
Co681 Co 0.47253 0.62482 0.35242 0.0
C682 C 0.55361 0.62622 0.40076 0.0
O683 O 0.55408 0.58688 0.40089 0.0
O684 O 0.52593 0.6454 0.38042 0.0
C685 C 0.55491 0.4682 0.37764 0.0
O686 O 0.57171 0.47973 0.34296 0.0
C687 C 0.43069 0.7004 0.38375 0.0
C688 C 0.37912 0.70889 0.34091 0.0
C689 C 0.39388 0.72226 0.3786 0.0
N690 N 0.43617 0.67415 0.35169 0.0
N691 N 0.40553 0.68045 0.32575 0.0
C692 C 0.45698 0.70017 0.42142 0.0
H693 H 0.46793 0.66841 0.42804 0.0
H694 H 0.44001 0.71205 0.44835 0.0
H695 H 0.48419 0.72018 0.41613 0.0
C696 C 0.43454 0.52563 0.40593 0.0
N697 N 0.46227 0.55304 0.39265 0.0
N698 N 0.44543 0.58962 0.38968 0.0
C699 C 0.40753 0.58722 0.40625 0.0
C700 C 0.40019 0.54712 0.41841 0.0
C701 C 0.43054 0.48462 0.38518 0.0
H702 H 0.40868 0.48765 0.35919 0.0
H703 H 0.4604 0.47465 0.37228 0.0
H704 H 0.41749 0.461 0.40588 0.0
O705 O 0.51477 0.53154 0.32111 0.0
O706 O 0.47817 0.58423 0.29763 0.0
H707 H 0.36918 0.63428 0.38092 0.0
H708 H 0.34847 0.61072 0.4258 0.0
C709 C 0.37736 0.62173 0.41125 0.0
H710 H 0.39068 0.64609 0.43092 0.0
H711 H 0.40086 0.66314 0.29923 0.0
O712 O 0.53315 0.49288 0.39859 0.0
C713 C 0.49379 0.54719 0.29295 0.0
Co714 Co 0.25816 0.7793 0.63507 0.0
Co715 Co 0.17994 0.82417 0.60677 0.0
C716 C 0.17334 0.74388 0.65412 0.0
O717 O 0.21251 0.74334 0.65727 0.0
O718 O 0.15581 0.77106 0.63165 0.0
C719 C 0.32937 0.73502 0.65067 0.0
O720 O 0.31521 0.71003 0.62234 0.0
C721 C 0.10234 0.87024 0.62832 0.0
C722 C 0.10974 0.92722 0.59223 0.0
C723 C 0.08699 0.91064 0.6243 0.0
N724 N 0.13386 0.86447 0.60141 0.0
N725 N 0.13703 0.89857 0.57931 0.0
C726 C 0.0909 0.8395 0.66069 0.0
H727 H 0.11905 0.82638 0.67485 0.0
H728 H 0.07144 0.85345 0.68481 0.0
H729 H 0.0738 0.81365 0.64623 0.0
C730 C 0.27517 0.86586 0.64961 0.0
N731 N 0.24874 0.83439 0.64633 0.0
N732 N 0.21112 0.8484 0.64844 0.0
C733 C 0.21277 0.88879 0.65807 0.0
C734 C 0.25367 0.90097 0.66012 0.0
C735 C 0.31563 0.86651 0.62792 0.0
H736 H 0.31218 0.88433 0.59906 0.0
H737 H 0.32532 0.83477 0.61978 0.0
H738 H 0.33937 0.88257 0.64626 0.0
O739 O 0.27553 0.77775 0.57903 0.0
O740 O 0.22607 0.8196 0.55649 0.0
H741 H 0.16473 0.93377 0.65472 0.0
H742 H 0.18797 0.93119 0.70353 0.0
C743 C 0.17773 0.91198 0.67737 0.0
H744 H 0.15389 0.89049 0.68876 0.0
H745 H 0.16016 0.90371 0.55776 0.0
O746 O 0.30781 0.76496 0.66332 0.0
C747 C 0.26227 0.80228 0.55201 0.0
Co748 Co 1.02144 0.54194 0.66647 0.0
Co749 Co 0.06214 0.62133 0.69549 0.0
C750 C 0.98294 0.62613 0.64703 0.0
O751 O 0.98384 0.58674 0.64448 0.0
O752 O 1.00914 0.64487 0.66964 0.0
C753 C 0.9803 0.47112 0.64552 0.0
O754 O 0.95324 0.4839 0.67247 0.0
C755 C 0.10816 0.69971 0.6762 0.0
C756 C 0.16537 0.68991 0.71098 0.0
C757 C 0.14882 0.71398 0.6798 0.0
N758 N 0.10209 0.66747 0.70241 0.0
N759 N 0.13639 0.66285 0.72374 0.0
C760 C 0.07728 0.71311 0.64487 0.0
H761 H 0.06132 0.68592 0.63178 0.0
H762 H 0.0916 0.73092 0.61967 0.0
H763 H 0.05402 0.73286 0.66009 0.0
C764 C 0.10852 0.52854 0.65237 0.0
N765 N 0.07598 0.55339 0.65646 0.0
N766 N 0.08772 0.59179 0.6535 0.0
C767 C 0.1277 0.59238 0.64274 0.0
C768 C 0.14207 0.55202 0.64112 0.0
C769 C 0.11119 0.48708 0.67241 0.0
H770 H 0.12932 0.4901 0.70107 0.0
H771 H 0.08014 0.47564 0.68066 0.0
H772 H 0.1278 0.46476 0.65291 0.0
O773 O 1.01878 0.52237 0.72189 0.0
O774 O 0.05696 0.57416 0.74563 0.0
H775 H 0.1715 0.64176 0.64179 0.0
H776 H 0.16431 0.61879 0.59336 0.0
C777 C 0.14781 0.62834 0.62143 0.0
H778 H 0.12479 0.6517 0.61228 0.0
H779 H 0.1414 0.63877 0.74444 0.0
O780 O 1.01062 0.49348 0.63584 0.0
C781 C 0.0412 0.53701 0.74991 0.0
Co782 Co 1.02498 1.02093 0.67127 0.0
Co783 Co 0.97571 0.94319 0.69518 0.0
C784 C 0.05747 0.93533 0.65019 0.0
O785 O 0.0596 0.97467 0.64852 0.0
O786 O 0.02878 0.91805 0.6708 0.0
C787 C 0.06382 0.09901 0.66612 0.0
O788 O 0.07747 0.09293 0.70343 0.0
C789 C 0.92938 0.86772 0.66749 0.0
C790 C 0.87378 0.86964 0.7058 0.0
C791 C 0.88996 0.85037 0.6714 0.0
N792 N 0.93497 0.89712 0.69681 0.0
N793 N 0.90173 0.89707 0.72011 0.0
C794 C 0.95926 0.86018 0.63345 0.0
H795 H 0.97214 0.88996 0.62251 0.0
H796 H 0.94468 0.8438 0.60744 0.0
H797 H 0.98517 0.84123 0.64524 0.0
C798 C 0.94174 0.04408 0.649 0.0
N799 N 0.97026 1.01522 0.65648 0.0
N800 N 0.95319 0.9786 0.65552 0.0
C801 C 0.91391 0.98314 0.64312 0.0
C802 C 0.90567 1.02475 0.63787 0.0
C803 C 0.94281 0.08581 0.66856 0.0
H804 H 0.92399 0.08487 0.69688 0.0
H805 H 0.97455 0.09436 0.67749 0.0
H806 H 0.92869 0.10941 0.64842 0.0
O807 O 1.02439 0.03481 0.72755 0.0
O808 O 0.98033 0.98637 0.74773 0.0
H809 H 0.86956 0.936 0.65495 0.0
H810 H 0.86294 0.95987 0.60662 0.0
C811 C 0.88655 0.94879 0.62859 0.0
H812 H 0.90492 0.92449 0.61343 0.0
H813 H 0.89675 0.91789 0.74395 0.0
O814 O 0.04417 0.07112 0.64699 0.0
C815 C 0.99862 1.02203 0.75332 0.0
Co816 Co 0.63749 0.79431 0.78035 0.0
Co817 Co 0.60945 0.87545 0.74239 0.0
C818 C 0.66391 0.877 0.8182 0.0
O819 O 0.66449 0.83749 0.81712 0.0
O820 O 0.64004 0.89681 0.79392 0.0
C821 C 0.65208 0.7208 0.81826 0.0
O822 O 0.6257 0.73541 0.84495 0.0
C823 C 0.62949 0.95365 0.69725 0.0
C824 C 0.58945 0.94826 0.64324 0.0
C825 C 0.62325 0.9699 0.65812 0.0
N826 N 0.60206 0.92263 0.70427 0.0
N827 N 0.57764 0.92057 0.67193 0.0
C828 C 0.66454 0.96397 0.72505 0.0
H829 H 0.67511 0.93613 0.7416 0.0
H830 H 0.69109 0.97701 0.70815 0.0
H831 H 0.65372 0.98734 0.74731 0.0
C832 C 0.64934 0.78118 0.69329 0.0
N833 N 0.64607 0.80601 0.72572 0.0
N834 N 0.64861 0.84442 0.71391 0.0
C835 C 0.6583 0.84498 0.67388 0.0
C836 C 0.66018 0.80463 0.65974 0.0
C837 C 0.62683 0.74098 0.69046 0.0
H838 H 0.59791 0.74586 0.67296 0.0
H839 H 0.61832 0.72969 0.7213 0.0
H840 H 0.64493 0.71779 0.67338 0.0
O841 O 0.58058 0.77736 0.78461 0.0
O842 O 0.5573 0.83053 0.7482 0.0
H843 H 0.6549 0.89623 0.6328 0.0
H844 H 0.70336 0.87169 0.63209 0.0
C845 C 0.67799 0.88118 0.65268 0.0
H846 H 0.69091 0.90313 0.67512 0.0
H847 H 0.55515 0.89787 0.66784 0.0
O848 O 0.66515 0.74326 0.78942 0.0
C849 C 0.55213 0.79346 0.76369 0.0
Co850 Co 0.05218 0.16544 0.52788 0.0
Co851 Co 0.13423 0.19864 0.55712 0.0
C852 C 0.13267 0.14061 0.48471 0.0
O853 O 0.09367 0.13839 0.48954 0.0
O854 O 0.15353 0.16679 0.50562 0.0
C855 C 0.98232 0.14352 0.49272 0.0
O856 O 0.99857 0.167 0.46418 0.0
C857 C 0.21336 0.18343 0.60096 0.0
C858 C 0.20107 0.21594 0.65869 0.0
C859 C 0.22629 0.18586 0.64181 0.0
N860 N 0.18084 0.20917 0.59484 0.0
N861 N 0.17475 0.22928 0.6295 0.0
C862 C 0.22813 0.15334 0.56968 0.0
H863 H 0.20167 0.14028 0.55308 0.0
H864 H 0.24527 0.12723 0.58325 0.0
H865 H 0.24815 0.16983 0.54756 0.0
C866 C 0.04812 0.15233 0.61536 0.0
N867 N 0.0686 0.16207 0.58162 0.0
N868 N 0.1078 0.15832 0.58831 0.0
C869 C 0.11351 0.14089 0.62549 0.0
C870 C 0.07514 0.13559 0.64327 0.0
C871 C 1.00285 0.15439 0.61887 0.0
H872 H 0.9908 0.17878 0.59821 0.0
H873 H 0.99097 0.12389 0.60995 0.0
H874 H 0.99377 0.16105 0.6509 0.0
O875 O 0.03208 0.22061 0.51974 0.0
O876 O 0.08633 0.24892 0.55026 0.0
H877 H 0.16694 0.13071 0.66253 0.0
H878 H 0.14171 0.08441 0.64752 0.0
C879 C 0.15064 0.1157 0.63677 0.0
H880 H 0.17112 0.11136 0.6103 0.0
H881 H 0.14972 0.24884 0.63468 0.0
O882 O 1.00283 0.13437 0.52423 0.0
C883 C 0.04838 0.25157 0.5365 0.0
Co884 Co 0.4257 0.76426 0.75913 0.0
Co885 Co 0.46101 0.68213 0.73797 0.0
C886 C 0.40064 0.68311 0.80586 0.0
O887 O 0.39863 0.72201 0.79854 0.0
O888 O 0.42751 0.66122 0.78719 0.0
C889 C 0.39833 0.83091 0.79468 0.0
O890 O 0.42381 0.81639 0.82241 0.0
C891 C 0.44887 0.60385 0.6918 0.0
C892 C 0.46592 0.62722 0.63106 0.0
C893 C 0.44278 0.59662 0.64986 0.0
N894 N 0.47215 0.63836 0.69721 0.0
N895 N 0.4833 0.65095 0.66033 0.0
C896 C 0.43313 0.57814 0.72622 0.0
H897 H 0.43764 0.59405 0.75568 0.0
H898 H 0.40028 0.57012 0.72153 0.0
H899 H 0.45147 0.54934 0.72746 0.0
C900 C 0.39591 0.76211 0.67923 0.0
N901 N 0.42387 0.74735 0.70523 0.0
N902 N 0.42068 0.70734 0.70653 0.0
C903 C 0.38703 0.69548 0.68534 0.0
C904 C 0.37071 0.73017 0.66689 0.0
C905 C 0.39294 0.80638 0.66771 0.0
H906 H 0.41936 0.8241 0.68025 0.0
H907 H 0.36376 0.81849 0.67975 0.0
H908 H 0.39247 0.80923 0.63389 0.0
O909 O 0.47968 0.78697 0.76906 0.0
O910 O 0.51076 0.72957 0.7488 0.0
H911 H 0.36823 0.6355 0.66514 0.0
H912 H 0.33095 0.66152 0.69573 0.0
C913 C 0.36444 0.65573 0.69216 0.0
H914 H 0.37577 0.64022 0.72016 0.0
H915 H 0.49835 0.67892 0.65477 0.0
O916 O 0.39186 0.81102 0.76225 0.0
C917 C 0.51239 0.76862 0.7596 0.0
Co918 Co 1.01386 0.37751 0.53477 0.0
Co919 Co 0.93319 0.33842 0.55676 0.0
C920 C 0.93173 0.39587 0.48712 0.0
O921 O 0.96962 0.40264 0.49603 0.0
O922 O 0.91243 0.36644 0.50488 0.0
C923 C 0.08144 0.40801 0.50075 0.0
O924 O 0.06972 0.38164 0.47253 0.0
C925 C 0.85471 0.35406 0.60237 0.0
C926 C 0.87698 0.33774 0.66374 0.0
C927 C 0.8472 0.36126 0.64418 0.0
N928 N 0.88871 0.32977 0.59781 0.0
N929 N 0.90063 0.31927 0.63513 0.0
C930 C 0.8295 0.36981 0.56742 0.0
H931 H 0.8459 0.36653 0.53807 0.0
H932 H 0.82061 0.4025 0.57237 0.0
H933 H 0.80114 0.35088 0.5654 0.0
C934 C 1.00974 0.4063 0.61532 0.0
N935 N 0.99638 0.37846 0.58849 0.0
N936 N 0.9566 0.38139 0.58563 0.0
C937 C 0.94354 0.41464 0.60672 0.0
C938 C 0.97703 0.43067 0.62705 0.0
C939 C 0.05313 0.40911 0.62927 0.0
H940 H 0.07167 0.38332 0.61661 0.0
H941 H 0.06552 0.43903 0.61916 0.0
H942 H 0.05418 0.40815 0.66319 0.0
O943 O 0.03823 0.32362 0.52575 0.0
O944 O 0.98319 0.29078 0.54975 0.0
H945 H 0.8833 0.4355 0.6235 0.0
H946 H 0.91175 0.4714 0.59334 0.0
C947 C 0.90488 0.43802 0.59743 0.0
H948 H 0.89068 0.42653 0.56885 0.0
H949 H 0.92805 0.30367 0.64137 0.0
O950 O 0.05954 0.41363 0.53203 0.0
C951 C 1.02196 0.29057 0.5383 0.0
Co952 Co 0.63036 0.27144 0.78463 0.0
Co953 Co 0.60809 0.1923 0.83276 0.0
C954 C 0.65318 0.18776 0.75039 0.0
O955 O 0.65319 0.22705 0.74857 0.0
O956 O 0.63387 0.16957 0.77929 0.0
C957 C 0.63328 0.34877 0.74468 0.0
O958 O 0.59564 0.3419 0.7317 0.0
C959 C 0.64258 0.11716 0.87521 0.0
C960 C 0.60044 0.10707 0.92675 0.0
C961 C 0.63813 0.094 0.91126 0.0
N962 N 0.61007 0.1435 0.87074 0.0
N963 N 0.58465 0.1363 0.90151 0.0
C964 C 0.67961 0.1176 0.848 0.0
H965 H 0.68539 0.14933 0.83647 0.0
H966 H 0.70738 0.10634 0.86436 0.0
H967 H 0.6738 0.09714 0.8214 0.0
C968 C 0.65512 0.29473 0.86611 0.0
N969 N 0.64654 0.26546 0.8385 0.0
N970 N 0.64557 0.22929 0.85651 0.0
C971 C 0.65752 0.23453 0.8956 0.0
C972 C 0.6653 0.27588 0.90249 0.0
C973 C 0.63619 0.33688 0.86441 0.0
H974 H 0.6078 0.33685 0.8833 0.0
H975 H 0.62715 0.34536 0.83291 0.0
H976 H 0.65698 0.36032 0.87787 0.0
O977 O 0.57402 0.28468 0.7869 0.0
O978 O 0.5538 0.23457 0.82894 0.0
H979 H 0.63546 0.18743 0.93583 0.0
H980 H 0.68051 0.21294 0.95407 0.0
C981 C 0.66516 0.20086 0.92616 0.0
H982 H 0.68505 0.17676 0.91262 0.0
H983 H 0.55772 0.15306 0.90675 0.0
O984 O 0.65305 0.32165 0.76477 0.0
C985 C 0.54814 0.27098 0.81203 0.0
Co986 Co 0.51913 0.17575 0.51259 0.0
Co987 Co 0.43961 0.19806 0.46535 0.0
C988 C 0.43739 0.14957 0.54675 0.0
O989 O 0.47649 0.15022 0.54845 0.0
O990 O 0.41881 0.16974 0.5186 0.0
C991 C 0.59642 0.17698 0.55172 0.0
O992 O 0.58715 0.21392 0.56543 0.0
C993 C 0.36567 0.16156 0.42293 0.0
C994 C 0.35203 0.20561 0.37357 0.0
C995 C 0.34139 0.16644 0.38774 0.0
N996 N 0.39036 0.19531 0.42816 0.0
N997 N 0.38101 0.22182 0.39874 0.0
C998 C 0.36876 0.12318 0.44837 0.0
H999 H 0.40066 0.11908 0.45976 0.0
H1000 H 0.35954 0.09547 0.43061 0.0
H1001 H 0.34791 0.12609 0.47507 0.0
C1002 C 0.54205 0.15242 0.4305 0.0
N1003 N 0.513 0.16064 0.4583 0.0
N1004 N 0.47706 0.16254 0.44018 0.0
C1005 C 0.48233 0.15187 0.40079 0.0
C1006 C 0.52315 0.14254 0.39409 0.0
C1007 C 0.58351 0.17259 0.43172 0.0
H1008 H 0.58295 0.20051 0.41189 0.0
H1009 H 0.59157 0.18281 0.46296 0.0
H1010 H 0.60736 0.15184 0.41902 0.0
O1011 O 0.53016 0.23269 0.51171 0.0
O1012 O 0.48091 0.253 0.46901 0.0
H1013 H 0.43573 0.17788 0.36243 0.0
H1014 H 0.46177 0.13492 0.34013 0.0
C1015 C 0.44922 0.1473 0.36923 0.0
H1016 H 0.42526 0.12575 0.38036 0.0
H1017 H 0.39612 0.24997 0.39429 0.0
O1018 O 0.57055 0.15552 0.53171 0.0
C1019 C 0.51697 0.25859 0.48629 0.0
Co1020 Co 0.42534 0.29495 0.78496 0.0
Co1021 Co 0.44939 0.3744 0.83053 0.0
C1022 C 0.40469 0.37751 0.74809 0.0
O1023 O 0.4036 0.33823 0.74718 0.0
O1024 O 0.42452 0.39587 0.7765 0.0
C1025 C 0.42347 0.22078 0.74275 0.0
O1026 O 0.45821 0.23292 0.72614 0.0
C1027 C 0.4171 0.45127 0.87003 0.0
C1028 C 0.45891 0.46106 0.92204 0.0
C1029 C 0.42175 0.47476 0.9057 0.0
N1030 N 0.44897 0.42408 0.8666 0.0
N1031 N 0.47424 0.43107 0.89756 0.0
C1032 C 0.3803 0.45117 0.8424 0.0
H1033 H 0.37359 0.41932 0.83183 0.0
H1034 H 0.35273 0.46376 0.85796 0.0
H1035 H 0.38703 0.47059 0.81523 0.0
C1036 C 0.39779 0.27512 0.86649 0.0
N1037 N 0.40829 0.30312 0.83827 0.0
N1038 N 0.41012 0.33978 0.85503 0.0
C1039 C 0.39571 0.33655 0.89348 0.0
C1040 C 0.38625 0.29579 0.90147 0.0
C1041 C 0.41884 0.23401 0.86831 0.0
H1042 H 0.44561 0.23623 0.88937 0.0
H1043 H 0.43084 0.22515 0.8379 0.0
H1044 H 0.39836 0.20991 0.88096 0.0
O1045 O 0.48143 0.28036 0.78839 0.0
O1046 O 0.50315 0.33156 0.82799 0.0
H1047 H 0.41867 0.38429 0.93238 0.0
H1048 H 0.37268 0.3606 0.9508 0.0
C1049 C 0.38871 0.37137 0.92276 0.0
H1050 H 0.36965 0.39556 0.90813 0.0
H1051 H 0.50057 0.41359 0.90357 0.0
O1052 O 0.40309 0.24438 0.76614 0.0
C1053 C 0.50811 0.29459 0.81231 0.0
Co1054 Co 0.54708 0.3816 0.50546 0.0
Co1055 Co 0.62813 0.35059 0.46692 0.0
C1056 C 0.6303 0.39784 0.5461 0.0
O1057 O 0.59125 0.40145 0.54409 0.0
O1058 O 0.64942 0.3754 0.52021 0.0
C1059 C 0.47524 0.39811 0.54547 0.0
O1060 O 0.48488 0.36411 0.56521 0.0
C1061 C 0.70906 0.37035 0.42525 0.0
C1062 C 0.69583 0.34586 0.36391 0.0
C1063 C 0.72227 0.37267 0.38427 0.0
N1064 N 0.67509 0.34553 0.42783 0.0
N1065 N 0.66859 0.33018 0.39095 0.0
C1066 C 0.72616 0.3941 0.46075 0.0
H1067 H 0.70158 0.41237 0.47563 0.0
H1068 H 0.7515 0.41505 0.45162 0.0
H1069 H 0.73792 0.37182 0.48378 0.0
C1070 C 0.53862 0.40993 0.42295 0.0
N1071 N 0.56085 0.39226 0.45205 0.0
N1072 N 0.59959 0.39346 0.44197 0.0
C1073 C 0.60379 0.41717 0.40823 0.0
C1074 C 0.5648 0.42884 0.39578 0.0
C1075 C 0.49313 0.411 0.42294 0.0
H1076 H 0.48073 0.38577 0.44238 0.0
H1077 H 0.48397 0.4413 0.43505 0.0
H1078 H 0.48132 0.40766 0.39126 0.0
O1079 O 0.52709 0.32694 0.50594 0.0
O1080 O 0.57959 0.30079 0.47088 0.0
H1081 H 0.65556 0.42272 0.36835 0.0
H1082 H 0.63729 0.47099 0.38702 0.0
C1083 C 0.64285 0.43831 0.39566 0.0
H1084 H 0.66522 0.43854 0.421 0.0
H1085 H 0.643 0.31228 0.38324 0.0
O1086 O 0.49912 0.41275 0.51851 0.0
C1087 C 0.54169 0.29808 0.48484 0.0
Co1088 Co 0.75512 0.62081 0.78475 0.0
Co1089 Co 0.73315 0.58341 0.866 0.0
C1090 C 0.80335 0.64021 0.86547 0.0
O1091 O 0.79439 0.64607 0.82774 0.0
O1092 O 0.78521 0.61163 0.88553 0.0
C1093 C 0.79141 0.64864 0.71752 0.0
O1094 O 0.81773 0.61999 0.72877 0.0
C1095 C 0.68989 0.60221 0.94547 0.0
C1096 C 0.62706 0.58875 0.92469 0.0
C1097 C 0.64834 0.61168 0.95364 0.0
N1098 N 0.69268 0.57731 0.91182 0.0
N1099 N 0.65441 0.56851 0.90093 0.0
C1100 C 0.72611 0.61646 0.9699 0.0
H1101 H 0.75542 0.6093 0.95433 0.0
H1102 H 0.72387 0.65002 0.97641 0.0
H1103 H 0.72598 0.59971 0.9995 0.0
C1104 C 0.67617 0.6533 0.78863 0.0
N1105 N 0.70107 0.62342 0.80184 0.0
N1106 N 0.70414 0.62597 0.84142 0.0
C1107 C 0.68576 0.66091 0.85435 0.0
C1108 C 0.66664 0.67864 0.82113 0.0
C1109 C 0.66424 0.65859 0.74512 0.0
H1110 H 0.67575 0.6325 0.72631 0.0
H1111 H 0.67728 0.68796 0.73418 0.0
H1112 H 0.6302 0.66033 0.74274 0.0
O1113 O 0.76375 0.56668 0.76215 0.0
O1114 O 0.74126 0.53405 0.81764 0.0
H1115 H 0.67133 0.68333 0.91425 0.0
H1116 H 0.70406 0.71662 0.88547 0.0
C1117 C 0.69741 0.68369 0.89248 0.0
H1118 H 0.72536 0.67007 0.90629 0.0
H1119 H 0.6468 0.55292 0.87405 0.0
O1120 O 0.76 0.65585 0.73896 0.0
C1121 C 0.75259 0.53356 0.77902 0.0
Co1122 Co 0.87273 0.04129 0.51691 0.0
Co1123 Co 0.8421 0.07717 0.43523 0.0
C1124 C 0.89211 0.99967 0.43389 0.0
O1125 O 0.89664 1.00414 0.47255 0.0
O1126 O 0.86684 1.02272 0.41409 0.0
C1127 C 0.88425 0.03845 0.60176 0.0
O1128 O 0.84883 0.05771 0.60445 0.0
C1129 C 0.86478 0.12562 0.35801 0.0
C1130 C 0.8539 0.18845 0.38096 0.0
C1131 C 0.87474 0.16749 0.35037 0.0
N1132 N 0.84144 0.12237 0.39258 0.0
N1133 N 0.8344 0.16063 0.40504 0.0
C1134 C 0.87758 0.08936 0.33284 0.0
H1135 H 0.87145 0.05994 0.34892 0.0
H1136 H 0.91065 0.09155 0.32474 0.0
H1137 H 0.85908 0.08926 0.30433 0.0
C1138 C 0.91463 0.11654 0.51981 0.0
N1139 N 0.88297 0.09611 0.50367 0.0
N1140 N 0.88562 0.09845 0.46396 0.0
C1141 C 0.92167 0.11587 0.4534 0.0
C1142 C 0.94065 0.12848 0.48872 0.0
C1143 C 0.919 0.12457 0.5641 0.0
H1144 H 0.88855 0.12347 0.57932 0.0
H1145 H 0.93901 0.10019 0.57683 0.0
H1146 H 0.93267 0.1555 0.56892 0.0
O1147 O 0.81673 0.03546 0.53222 0.0
O1148 O 0.79156 0.07378 0.48167 0.0
H1149 H 0.9415 0.13816 0.39499 0.0
H1150 H 0.97588 0.10192 0.41805 0.0
C1151 C 0.94286 0.10938 0.41331 0.0
H1152 H 0.92864 0.08322 0.3968 0.0
H1153 H 0.81978 0.16777 0.43253 0.0
O1154 O 0.90004 1.02934 0.56739 0.0
C1155 C 0.78801 0.05729 0.51817 0.0
Co1156 Co 0.2765 0.93269 0.78072 0.0
Co1157 Co 0.31809 0.95849 0.86217 0.0
C1158 C 0.23699 0.91297 0.86429 0.0
O1159 O 0.23908 0.9103 0.82529 0.0
O1160 O 0.2629 0.93539 0.88402 0.0
C1161 C 0.26757 0.92383 0.69524 0.0
O1162 O 0.28547 0.95996 0.69119 0.0
C1163 C 0.3676 0.93536 0.93916 0.0
C1164 C 0.4295 0.95098 0.91687 0.0
C1165 C 0.40975 0.92842 0.94716 0.0
N1166 N 0.36318 0.95872 0.90459 0.0
N1167 N 0.40079 0.96861 0.89253 0.0
C1168 C 0.33232 0.9182 0.96306 0.0
H1169 H 0.30322 0.92046 0.9457 0.0
H1170 H 0.33824 0.88552 0.97146 0.0
H1171 H 0.32886 0.93652 0.99146 0.0
C1172 C 0.35437 0.89124 0.77318 0.0
N1173 N 0.32991 0.91746 0.79289 0.0
N1174 N 0.33719 0.91472 0.83201 0.0
C1175 C 0.36334 0.8834 0.83919 0.0
C1176 C 0.37558 0.86838 0.80187 0.0
C1177 C 0.35627 0.88788 0.72807 0.0
H1178 H 0.35006 0.9184 0.714 0.0
H1179 H 0.33248 0.86547 0.71826 0.0
H1180 H 0.38723 0.87758 0.71831 0.0
O1181 O 0.27575 0.98932 0.76637 0.0
O1182 O 0.3182 1.00939 0.81572 0.0
H1183 H 0.39557 0.86553 0.89358 0.0
H1184 H 0.36311 0.82616 0.87298 0.0
C1185 C 0.3655 0.85991 0.87859 0.0
H1186 H 0.33949 0.86851 0.89854 0.0
H1187 H 0.40712 0.98426 0.86533 0.0
O1188 O 0.2618 0.90732 0.7301 0.0
C1189 C 0.30168 1.01491 0.77951 0.0
Co1190 Co 0.17957 0.53121 0.52179 0.0
Co1191 Co 0.21126 0.49324 0.44116 0.0
C1192 C 0.16182 0.57123 0.43759 0.0
O1193 O 0.15721 0.5683 0.47639 0.0
O1194 O 0.18649 0.54693 0.41879 0.0
C1195 C 0.16653 0.53876 0.60686 0.0
O1196 O 0.20302 0.52224 0.61223 0.0
C1197 C 0.19462 0.44499 0.36259 0.0
C1198 C 0.21085 0.38311 0.38536 0.0
C1199 C 0.18905 0.40265 0.35442 0.0
N1200 N 0.21637 0.44973 0.39805 0.0
N1201 N 0.22687 0.41219 0.41032 0.0
C1202 C 0.17803 0.48 0.33759 0.0
H1203 H 0.18061 0.50969 0.35403 0.0
H1204 H 0.14551 0.47419 0.32891 0.0
H1205 H 0.19634 0.48238 0.3091 0.0
C1206 C 0.14012 0.45227 0.52633 0.0
N1207 N 0.16781 0.47686 0.50869 0.0
N1208 N 0.16765 0.47014 0.46937 0.0
C1209 C 0.13658 0.4443 0.45997 0.0
C1210 C 0.11901 0.43154 0.49607 0.0
C1211 C 0.13398 0.4495 0.57109 0.0
H1212 H 0.16329 0.45625 0.5871 0.0
H1213 H 0.1104 0.47252 0.57988 0.0
H1214 H 0.12396 0.41794 0.57965 0.0
O1215 O 0.23555 0.5353 0.53832 0.0
O1216 O 0.26082 0.49708 0.48801 0.0
H1217 H 0.12326 0.41255 0.40414 0.0
H1218 H 0.08203 0.44387 0.42241 0.0
C1219 C 0.116 0.44235 0.41907 0.0
H1220 H 0.12544 0.46898 0.40011 0.0
H1221 H 0.24136 0.40607 0.43817 0.0
O1222 O 0.15128 0.54404 0.57139 0.0
C1223 C 0.26414 0.51317 0.52458 0.0
Co1224 Co 0.77586 0.41041 0.74794 0.0
Co1225 Co 0.73934 0.44025 0.66817 0.0
C1226 C 0.81679 0.38899 0.66602 0.0
O1227 O 0.81432 0.38639 0.70498 0.0
O1228 O 0.79281 0.41358 0.64653 0.0
C1229 C 0.81337 0.39181 0.81866 0.0
O1230 O 0.84009 0.41823 0.80362 0.0
C1231 C 0.69404 0.42165 0.59059 0.0
C1232 C 0.63501 0.45256 0.60252 0.0
C1233 C 0.65306 0.42317 0.57736 0.0
N1234 N 0.69929 0.4475 0.62298 0.0
N1235 N 0.66376 0.46644 0.62905 0.0
C1236 C 0.72635 0.3925 0.57583 0.0
H1237 H 0.74357 0.37976 0.60211 0.0
H1238 H 0.71331 0.36633 0.55832 0.0
H1239 H 0.74799 0.40983 0.55599 0.0
C1240 C 0.68724 0.39963 0.75439 0.0
N1241 N 0.72183 0.40282 0.73299 0.0
N1242 N 0.71381 0.39627 0.69458 0.0
C1243 C 0.67455 0.38317 0.691 0.0
C1244 C 0.65696 0.38338 0.72967 0.0
C1245 C 0.68442 0.40718 0.79896 0.0
H1246 H 0.70729 0.43083 0.80836 0.0
H1247 H 0.69104 0.37767 0.81419 0.0
H1248 H 0.65285 0.41712 0.80744 0.0
O1249 O 0.77943 0.46628 0.76788 0.0
O1250 O 0.74203 0.4903 0.71617 0.0
H1251 H 0.63316 0.36831 0.64202 0.0
H1252 H 0.65181 0.32424 0.66919 0.0
C1253 C 0.66075 0.35503 0.65709 0.0
H1254 H 0.68559 0.34993 0.63464 0.0
H1255 H 0.65795 0.48595 0.65381 0.0
O1256 O 0.78322 0.37985 0.79726 0.0
C1257 C 0.7571 0.49452 0.75324 0.0
Co1258 Co 0.66513 0.03833 0.54994 0.0
Co1259 Co 0.69759 0.07811 0.62877 0.0
C1260 C 0.64889 0.99973 0.63383 0.0
O1261 O 0.64374 1.00134 0.59512 0.0
O1262 O 0.67341 1.02493 0.65161 0.0
C1263 C 0.64329 0.9971 0.48061 0.0
O1264 O 0.67131 0.97122 0.49416 0.0
C1265 C 0.67988 0.12284 0.70745 0.0
C1266 C 0.70584 0.1839 0.69263 0.0
C1267 C 0.679 0.16456 0.71962 0.0
N1268 N 0.7043 0.1188 0.67378 0.0
N1269 N 0.72045 0.15551 0.66617 0.0
C1270 C 0.65463 0.08817 0.72465 0.0
H1271 H 0.63548 0.07413 0.70028 0.0
H1272 H 0.63442 0.09843 0.74991 0.0
H1273 H 0.67566 0.06371 0.73609 0.0
C1274 C 0.65003 0.12593 0.54069 0.0
N1275 N 0.65765 0.09281 0.56338 0.0
N1276 N 0.65344 0.10227 0.60178 0.0
C1277 C 0.63757 0.14066 0.60457 0.0
C1278 C 0.63326 0.15608 0.56518 0.0
C1279 C 0.65402 0.12692 0.49562 0.0
H1280 H 0.67798 0.10472 0.48557 0.0
H1281 H 0.62394 0.11812 0.48304 0.0
H1282 H 0.66172 0.15862 0.48501 0.0
O1283 O 0.7202 0.03471 0.52994 0.0
O1284 O 0.74611 0.07329 0.58012 0.0
H1285 H 0.62547 0.18353 0.65299 0.0
H1286 H 0.5802 0.16184 0.6307 0.0
C1287 C 0.61219 0.15468 0.64032 0.0
H1288 H 0.61028 0.13049 0.66406 0.0
H1289 H 0.73818 0.16219 0.64039 0.0
O1290 O 0.63302 1.02808 0.50183 0.0
C1291 C 0.74893 0.05716 0.54337 0.0
Co1292 Co 0.2938 0.13964 0.74932 0.0
Co1293 Co 0.33048 0.10507 0.66967 0.0
C1294 C 0.25576 0.15924 0.66572 0.0
O1295 O 0.25772 0.1636 0.70448 0.0
O1296 O 0.27958 0.13374 0.64775 0.0
C1297 C 0.25148 0.16115 0.8173 0.0
O1298 O 0.22654 0.13271 0.80288 0.0
C1299 C 0.37343 0.12126 0.58954 0.0
C1300 C 0.43458 0.09625 0.60441 0.0
C1301 C 0.41485 0.12269 0.57722 0.0
N1302 N 0.36982 0.09719 0.62369 0.0
N1303 N 0.40662 0.08147 0.63122 0.0
C1304 C 0.33854 0.14535 0.5714 0.0
H1305 H 0.32466 0.16583 0.59468 0.0
H1306 H 0.34817 0.16435 0.54494 0.0
H1307 H 0.31457 0.12324 0.56118 0.0
C1308 C 0.37846 0.16194 0.75868 0.0
N1309 N 0.34897 0.14431 0.73682 0.0
N1310 N 0.35876 0.14571 0.69828 0.0
C1311 C 0.39242 0.16981 0.69386 0.0
C1312 C 0.40535 0.18135 0.73253 0.0
C1313 C 0.37921 0.16232 0.80387 0.0
H1314 H 0.35957 0.13706 0.81604 0.0
H1315 H 0.36768 0.19261 0.81372 0.0
H1316 H 0.41126 0.15839 0.815 0.0
O1317 O 0.28682 0.08479 0.76861 0.0
O1318 O 0.32134 0.05566 0.71739 0.0
H1319 H 0.43257 0.1746 0.64239 0.0
H1320 H 0.41387 0.22314 0.66006 0.0
C1321 C 0.40511 0.19043 0.65483 0.0
H1322 H 0.37964 0.19026 0.63252 0.0
H1323 H 0.41368 0.06417 0.65726 0.0
O1324 O 0.28315 0.17161 0.7973 0.0
C1325 C 0.30567 0.05404 0.75443 0.0
Co1326 Co 0.38725 0.53237 0.54502 0.0
Co1327 Co 0.36156 0.489 0.62616 0.0
C1328 C 0.41507 0.56679 0.62741 0.0
O1329 O 0.41575 0.56705 0.58823 0.0
O1330 O 0.39168 0.5414 0.64669 0.0
C1331 C 0.38345 0.53945 0.45862 0.0
O1332 O 0.34661 0.52329 0.46215 0.0
C1333 C 0.38009 0.44245 0.70479 0.0
C1334 C 0.35248 0.38226 0.68975 0.0
C1335 C 0.37966 0.40083 0.7169 0.0
N1336 N 0.35627 0.44736 0.67081 0.0
N1337 N 0.33905 0.41115 0.66308 0.0
C1338 C 0.40632 0.47593 0.72225 0.0
H1339 H 0.4216 0.49281 0.69712 0.0
H1340 H 0.43011 0.46402 0.74346 0.0
H1341 H 0.38625 0.49795 0.73888 0.0
C1342 C 0.42028 0.45042 0.53203 0.0
N1343 N 0.39892 0.47652 0.55513 0.0
N1344 N 0.40035 0.46378 0.59311 0.0
C1345 C 0.42625 0.43127 0.59581 0.0
C1346 C 0.43941 0.42202 0.55685 0.0
C1347 C 0.41984 0.45091 0.48692 0.0
H1348 H 0.38851 0.45852 0.47602 0.0
H1349 H 0.44195 0.47466 0.47642 0.0
H1350 H 0.4277 0.42 0.47485 0.0
O1351 O 0.32972 0.54018 0.53792 0.0
O1352 O 0.30915 0.49392 0.58336 0.0
H1353 H 0.42609 0.38837 0.64551 0.0
H1354 H 0.47653 0.40383 0.62992 0.0
C1355 C 0.44461 0.41489 0.63456 0.0
H1356 H 0.44598 0.43945 0.6578 0.0
H1357 H 0.32101 0.40518 0.6373 0.0
O1358 O 0.40622 0.54587 0.48987 0.0
C1359 C 0.30356 0.51388 0.5491 0.0
Co1360 Co 0.78166 0.78185 0.62669 0.0
Co1361 Co 0.86281 0.73959 0.599 0.0
C1362 C 0.86653 0.82039 0.64478 0.0
O1363 O 0.82731 0.81895 0.64839 0.0
O1364 O 0.88531 0.79424 0.62206 0.0
C1365 C 0.69539 0.79182 0.63618 0.0
O1366 O 0.69091 0.7757 0.59966 0.0
C1367 C 0.9418 0.69148 0.6184 0.0
C1368 C 0.92205 0.62997 0.59746 0.0
C1369 C 0.95157 0.64919 0.62154 0.0
N1370 N 0.90681 0.69626 0.59562 0.0
N1371 N 0.89635 0.65907 0.58244 0.0
C1372 C 0.96388 0.72619 0.63929 0.0
H1373 H 0.94325 0.75279 0.64422 0.0
H1374 H 0.97672 0.71614 0.66912 0.0
H1375 H 0.98963 0.73651 0.61949 0.0
C1376 C 0.7724 0.70116 0.66396 0.0
N1377 N 0.79351 0.72792 0.6412 0.0
N1378 N 0.83246 0.71805 0.64208 0.0
C1379 C 0.83818 0.68717 0.66911 0.0
C1380 C 0.79999 0.67522 0.68304 0.0
C1381 C 0.72691 0.70072 0.66708 0.0
H1382 H 0.71327 0.70949 0.63728 0.0
H1383 H 0.71776 0.72339 0.69071 0.0
H1384 H 0.71567 0.66941 0.67506 0.0
O1385 O 0.76685 0.78311 0.57061 0.0
O1386 O 0.81664 0.74188 0.54864 0.0
H1387 H 0.89086 0.64881 0.67932 0.0
H1388 H 0.87329 0.67524 0.72392 0.0
C1389 C 0.87802 0.67842 0.69046 0.0
H1390 H 0.89971 0.70429 0.68601 0.0
H1391 H 0.86932 0.65292 0.56626 0.0
O1392 O 0.73071 0.79658 0.65247 0.0
C1393 C 0.7802 0.75856 0.544 0.0
Co1394 Co 0.78893 0.28842 0.92837 0.0
Co1395 Co 0.87191 0.32419 0.95737 0.0
C1396 C 0.87173 0.24747 0.90519 0.0
O1397 O 0.83243 0.25067 0.90379 0.0
O1398 O 0.89289 0.27128 0.92863 0.0
C1399 C 0.70342 0.28721 0.92184 0.0
O1400 O 0.70357 0.308 0.95626 0.0
C1401 C 0.94995 0.37358 0.93876 0.0
C1402 C 0.92541 0.4358 0.94997 0.0
C1403 C 0.95727 0.41567 0.93007 0.0
N1404 N 0.91433 0.36935 0.96041 0.0
N1405 N 0.90095 0.40723 0.96784 0.0
C1406 C 0.97615 0.33802 0.92611 0.0
H1407 H 0.9602 0.30846 0.93203 0.0
H1408 H 0.98476 0.34066 0.89339 0.0
H1409 H 1.0046 0.33833 0.94482 0.0
C1410 C 0.78594 0.36333 0.88519 0.0
N1411 N 0.80216 0.34325 0.91697 0.0
N1412 N 0.84209 0.3474 0.91545 0.0
C1413 C 0.85283 0.36592 0.88012 0.0
C1414 C 0.81727 0.37712 0.86034 0.0
C1415 C 0.7413 0.36991 0.87954 0.0
H1416 H 0.72532 0.36872 0.90942 0.0
H1417 H 0.72954 0.34525 0.85921 0.0
H1418 H 0.73605 0.40073 0.86583 0.0
O1419 O 0.7753 0.28191 0.98434 0.0
O1420 O 0.82725 0.31841 1.00926 0.0
H1421 H 0.91115 0.3914 0.8632 0.0
H1422 H 0.89073 0.35554 0.827 0.0
C1423 C 0.89408 0.36192 0.86019 0.0
H1424 H 0.91144 0.33604 0.87399 0.0
H1425 H 0.87262 0.41362 0.98145 0.0
O1426 O 0.73666 0.27677 0.9041 0.0
C1427 C 0.79055 0.3021 1.01336 0.0
Co1428 Co 0.52894 1.0166 0.37705 0.0
Co1429 Co 0.56369 0.93342 0.34955 0.0
C1430 C 0.48819 0.93475 0.40362 0.0
O1431 O 0.49144 0.97426 0.40462 0.0
O1432 O 0.51131 0.91346 0.37976 0.0
C1433 C 0.53164 0.10237 0.3775 0.0
O1434 O 0.55181 0.09862 0.34298 0.0
C1435 C 0.61144 0.85477 0.36584 0.0
C1436 C 0.67315 0.87764 0.34998 0.0
C1437 C 0.6535 0.84649 0.37162 0.0
N1438 N 0.60685 0.89032 0.34408 0.0
N1439 N 0.64424 0.90276 0.3338 0.0
C1440 C 0.57625 0.82992 0.3816 0.0
H1441 H 0.54737 0.84746 0.37868 0.0
H1442 H 0.58149 0.82058 0.41385 0.0
H1443 H 0.57313 0.80187 0.36246 0.0
C1444 C 0.60678 1.02129 0.41671 0.0
N1445 N 0.58398 1.00344 0.38772 0.0
N1446 N 0.58914 0.96353 0.39014 0.0
C1447 C 0.61181 0.95439 0.42352 0.0
C1448 C 0.62412 0.99106 0.44089 0.0
C1449 C 0.61395 0.0663 0.41937 0.0
H1450 H 0.61219 0.08047 0.38859 0.0
H1451 H 0.59001 0.07954 0.43947 0.0
H1452 H 0.64508 0.07226 0.43175 0.0
O1453 O 0.52 1.02791 0.32069 0.0
O1454 O 0.55872 0.97702 0.29749 0.0
H1455 H 0.64169 0.8973 0.43766 0.0
H1456 H 0.61039 0.91692 0.47808 0.0
C1457 C 0.61232 0.91323 0.44439 0.0
H1458 H 0.58569 0.89447 0.43437 0.0
H1459 H 0.65035 0.93091 0.31938 0.0
O1460 O 0.51978 0.07093 0.3979 0.0
C1461 C 0.54171 1.01323 0.29257 0.0
Co1462 Co 0.26097 0.27897 0.92168 0.0
Co1463 Co 0.18026 0.23561 0.94788 0.0
C1464 C 0.17662 0.31466 0.89866 0.0
O1465 O 0.21599 0.31449 0.89632 0.0
O1466 O 0.15792 0.28872 0.9218 0.0
C1467 C 0.34733 0.28587 0.92018 0.0
O1468 O 0.34637 0.26593 0.95512 0.0
C1469 C 0.10098 0.18927 0.9297 0.0
C1470 C 0.1221 0.12615 0.94326 0.0
C1471 C 0.09123 0.14757 0.92297 0.0
N1472 N 0.13711 0.19205 0.9507 0.0
N1473 N 0.14857 0.15383 0.9595 0.0
C1474 C 0.07659 0.22558 0.91533 0.0
H1475 H 0.08952 0.25467 0.92749 0.0
H1476 H 0.07565 0.2265 0.88143 0.0
H1477 H 0.04457 0.2223 0.92651 0.0
C1478 C 0.27095 0.20268 0.87962 0.0
N1479 N 0.2507 0.224 0.9079 0.0
N1480 N 0.21176 0.21414 0.90603 0.0
C1481 C 0.20534 0.18944 0.87347 0.0
C1482 C 0.24307 0.18118 0.85611 0.0
C1483 C 0.31622 0.20035 0.87788 0.0
H1484 H 0.3293 0.20508 0.90877 0.0
H1485 H 0.32717 0.22477 0.85682 0.0
H1486 H 0.32565 0.1693 0.86748 0.0
O1487 O 0.27153 0.28336 0.97868 0.0
O1488 O 0.2242 0.2389 0.99947 0.0
H1489 H 0.15239 0.15158 0.86347 0.0
H1490 H 0.16702 0.1819 0.82 0.0
C1491 C 0.16441 0.18211 0.85383 0.0
H1492 H 0.14287 0.20707 0.86227 0.0
H1493 H 0.17661 0.14637 0.97327 0.0
O1494 O 0.31448 0.29404 0.90036 0.0
C1495 C 0.25938 0.25767 1.00488 0.0
Co1496 Co 1.01658 0.04427 0.87635 0.0
Co1497 Co 0.97978 0.1279 0.84894 0.0
C1498 C 0.05827 0.12743 0.89746 0.0
O1499 O 0.05502 0.088 0.89928 0.0
O1500 O 0.03358 0.14866 0.87506 0.0
C1501 C 1.01855 0.95812 0.88282 0.0
O1502 O 0.99774 0.95807 0.84841 0.0
C1503 C 0.93311 0.20723 0.86883 0.0
C1504 C 0.87038 0.18393 0.8587 0.0
C1505 C 0.89169 0.21539 0.87821 0.0
N1506 N 0.93599 0.17134 0.84716 0.0
N1507 N 0.89784 0.15871 0.8404 0.0
C1508 C 0.9691 0.2333 0.88059 0.0
H1509 H 0.9979 0.22041 0.8678 0.0
H1510 H 0.97113 0.23572 0.91436 0.0
H1511 H 0.96453 0.26499 0.86838 0.0
C1512 C 0.94199 0.04036 0.91959 0.0
N1513 N 0.96248 0.05781 0.88888 0.0
N1514 N 0.9579 0.0978 0.8913 0.0
C1515 C 0.93844 0.1074 0.92632 0.0
C1516 C 0.92739 0.07097 0.94488 0.0
C1517 C 0.93576 0.99529 0.92362 0.0
H1518 H 0.9368 0.98039 0.89317 0.0
H1519 H 0.96065 0.98299 0.94324 0.0
H1520 H 0.90524 0.98915 0.93728 0.0
O1521 O 1.02073 0.03095 0.82046 0.0
O1522 O 0.9823 0.08262 0.79761 0.0
H1523 H 0.91118 0.16502 0.94314 0.0
H1524 H 0.94615 0.1448 0.98032 0.0
C1525 C 0.94079 0.14853 0.94698 0.0
H1526 H 0.96661 0.1667 0.93424 0.0
H1527 H 0.89053 0.13042 0.82688 0.0
O1528 O 0.02891 0.99162 0.90044 0.0
C1529 C 0.9981 0.0457 0.79299 0.0
Co1530 Co 0.76366 0.27412 0.13462 0.0
Co1531 Co 0.68431 0.31943 0.1096 0.0
C1532 C 0.67769 0.2381 0.15299 0.0
O1533 O 0.71701 0.23786 0.15563 0.0
O1534 O 0.65951 0.26549 0.1312 0.0
C1535 C 0.84903 0.26352 0.1484 0.0
O1536 O 0.85407 0.27895 0.11163 0.0
C1537 C 0.6081 0.3693 0.13235 0.0
C1538 C 0.62459 0.42952 0.10563 0.0
C1539 C 0.5974 0.41147 0.13311 0.0
N1540 N 0.64108 0.36357 0.10712 0.0
N1541 N 0.64979 0.39995 0.09077 0.0
C1542 C 0.58992 0.33585 0.1584 0.0
H1543 H 0.61425 0.31446 0.16905 0.0
H1544 H 0.57366 0.34863 0.18533 0.0
H1545 H 0.56767 0.31788 0.13974 0.0
C1546 C 0.7754 0.36304 0.14935 0.0
N1547 N 0.75254 0.32886 0.14667 0.0
N1548 N 0.71427 0.33833 0.15413 0.0
C1549 C 0.71245 0.37761 0.16715 0.0
C1550 C 0.75148 0.39468 0.16449 0.0
C1551 C 0.8186 0.36652 0.1345 0.0
H1552 H 0.82016 0.35617 0.10221 0.0
H1553 H 0.83806 0.34567 0.15264 0.0
H1554 H 0.83017 0.39874 0.13666 0.0
O1555 O 0.7795 0.27277 0.07836 0.0
O1556 O 0.73105 0.31728 0.05919 0.0
H1557 H 0.66668 0.42179 0.18536 0.0
H1558 H 0.69301 0.39814 0.22712 0.0
C1559 C 0.6798 0.39217 0.19639 0.0
H1560 H 0.65549 0.3686 0.20036 0.0
H1561 H 0.67525 0.40538 0.07207 0.0
O1562 O 0.81341 0.25918 0.16381 0.0
C1563 C 0.76676 0.29939 0.05311 0.0
Co1564 Co 0.52068 0.03703 0.16869 0.0
Co1565 Co 0.5621 0.11927 0.19733 0.0
C1566 C 0.48303 0.12277 0.14887 0.0
O1567 O 0.48367 0.08319 0.14659 0.0
O1568 O 0.50917 0.14184 0.1714 0.0
C1569 C 0.51177 0.95009 0.15875 0.0
O1570 O 0.5277 0.94615 0.19543 0.0
C1571 C 0.61152 0.19797 0.18017 0.0
C1572 C 0.67201 0.17675 0.20208 0.0
C1573 C 0.65385 0.20691 0.17787 0.0
N1574 N 0.60567 0.16277 0.20251 0.0
N1575 N 0.64225 0.15144 0.21636 0.0
C1576 C 0.57776 0.22061 0.1585 0.0
H1577 H 0.5526 0.19919 0.15059 0.0
H1578 H 0.58891 0.23571 0.13016 0.0
H1579 H 0.56524 0.2447 0.17915 0.0
C1580 C 0.60188 1.02866 0.13302 0.0
N1581 N 0.57475 0.04952 0.15543 0.0
N1582 N 0.58476 0.08861 0.15526 0.0
C1583 C 0.61604 0.09469 0.12896 0.0
C1584 C 0.6282 0.05655 0.11496 0.0
C1585 C 0.60259 0.98309 0.12951 0.0
H1586 H 0.59383 0.96923 0.15921 0.0
H1587 H 0.58018 0.97382 0.10566 0.0
H1588 H 0.6339 0.97215 0.12171 0.0
O1589 O 0.51874 1.02203 0.22506 0.0
O1590 O 0.55734 0.07374 0.24803 0.0
H1591 H 0.6542 0.14772 0.11914 0.0
H1592 H 0.62839 0.12996 0.07429 0.0
C1593 C 0.62484 0.13473 0.10771 0.0
H1594 H 0.59899 0.15641 0.11175 0.0
H1595 H 0.64753 0.124 0.23237 0.0
O1596 O 0.50687 0.98542 0.14219 0.0
C1597 C 0.5411 0.037 0.25276 0.0
Co1598 Co 0.52873 0.52194 0.17297 0.0
Co1599 Co 0.4818 0.44094 0.19656 0.0
C1600 C 0.56598 0.43538 0.15764 0.0
O1601 O 0.56657 0.47495 0.15526 0.0
O1602 O 0.5371 0.41697 0.17721 0.0
C1603 C 0.54163 0.60872 0.1644 0.0
O1604 O 0.52188 0.61339 0.19905 0.0
C1605 C 0.43322 0.36205 0.17509 0.0
C1606 C 0.37125 0.38324 0.19215 0.0
C1607 C 0.39119 0.3526 0.17014 0.0
N1608 N 0.43729 0.39783 0.19692 0.0
N1609 N 0.39976 0.40924 0.2077 0.0
C1610 C 0.46847 0.33874 0.15678 0.0
H1611 H 0.49596 0.35859 0.15396 0.0
H1612 H 0.46022 0.32642 0.12622 0.0
H1613 H 0.47625 0.31233 0.17704 0.0
C1614 C 0.4543 0.53215 0.1262 0.0
N1615 N 0.47675 0.51065 0.15277 0.0
N1616 N 0.46533 0.47193 0.15173 0.0
C1617 C 0.43819 0.46666 0.12103 0.0
C1618 C 0.43009 0.50497 0.1046 0.0
C1619 C 0.45417 0.57784 0.12389 0.0
H1620 H 0.46167 0.59085 0.15424 0.0
H1621 H 0.47737 0.5876 0.10101 0.0
H1622 H 0.42321 0.58926 0.11525 0.0
O1623 O 0.5233 0.53737 0.22867 0.0
O1624 O 0.4807 0.48718 0.24707 0.0
H1625 H 0.39782 0.41515 0.1126 0.0
H1626 H 0.42618 0.42915 0.06777 0.0
C1627 C 0.42811 0.42612 0.10151 0.0
H1628 H 0.45267 0.40352 0.10809 0.0
H1629 H 0.39322 0.43684 0.22284 0.0
O1630 O 0.54726 0.57316 0.14862 0.0
C1631 C 0.49656 0.52392 0.25305 0.0
loop_
_geom_bond_atom_site_label_1
_geom_bond_atom_site_label_2
_geom_bond_distance
_geom_bond_site_symmetry_2
_ccdc_geom_bond_type
Co0 O3 1.970 . S
Co0 N17 1.989 . S
Co0 O25 1.967 . S
Co0 O32 1.920 . S
Co1 O4 1.966 . S
Co1 N10 2.022 . S
Co1 N18 1.993 . S
Co1 O26 1.941 . S
C2 O3 1.258 . S
C2 O4 1.263 . S
O3 Co0 1.970 . S
O3 C2 1.258 . S
O4 Co1 1.966 . S
O4 C2 1.263 . S
C5 O6 1.235 . S
C5 O32 1.289 . S
O6 C5 1.235 . S
C7 C9 1.400 . S
C7 N10 1.351 . S
C7 C12 1.501 . S
C8 C9 1.387 . S
C8 N11 1.341 . S
C9 C7 1.400 . S
C9 C8 1.387 . S
N10 Co1 2.022 . S
N10 C7 1.351 . S
N10 N11 1.365 . S
N11 C8 1.341 . S
N11 N10 1.365 . S
N11 H31 0.862 . S
C12 C7 1.501 . S
C12 H13 0.961 . S
C12 H14 0.961 . S
C12 H15 0.960 . S
H13 C12 0.961 . S
H14 C12 0.961 . S
H15 C12 0.960 . S
C16 N17 1.342 . S
C16 C20 1.401 . S
C16 C21 1.499 . S
N17 Co0 1.989 . S
N17 C16 1.342 . S
N17 N18 1.388 . S
N18 Co1 1.993 . S
N18 N17 1.388 . S
N18 C19 1.346 . S
C19 N18 1.346 . S
C19 C20 1.396 . S
C19 C29 1.510 . S
C20 C16 1.401 . S
C20 C19 1.396 . S
C21 C16 1.499 . S
C21 H22 0.959 . S
C21 H23 0.960 . S
C21 H24 0.961 . S
H22 C21 0.959 . S
H23 C21 0.960 . S
H24 C21 0.961 . S
O25 Co0 1.967 . S
O25 C33 1.258 . S
O26 Co1 1.941 . S
O26 C33 1.266 . S
H27 C29 0.959 . S
H28 C29 0.961 . S
C29 C19 1.510 . S
C29 H27 0.959 . S
C29 H28 0.961 . S
C29 H30 0.960 . S
H30 C29 0.960 . S
H31 N11 0.862 . S
O32 Co0 1.920 . S
O32 C5 1.289 . S
C33 O25 1.258 . S
C33 O26 1.266 . S
Co34 O37 1.970 1_554 S
Co34 N51 1.989 . S
Co34 O59 1.967 . S
Co34 O66 1.920 1_554 S
Co35 O38 1.966 . S
Co35 N44 2.022 . S
Co35 N52 1.993 . S
Co35 O60 1.941 . S
C36 O37 1.258 . S
C36 O38 1.263 1_556 S
O37 Co34 1.970 1_556 S
O37 C36 1.258 . S
O38 Co35 1.966 . S
O38 C36 1.263 1_554 S
C39 O40 1.235 . S
C39 O66 1.289 . S
O40 C39 1.235 . S
C41 C43 1.400 . S
C41 N44 1.351 . S
C41 C46 1.501 . S
C42 C43 1.387 . S
C42 N45 1.341 . S
C43 C41 1.400 . S
C43 C42 1.387 . S
N44 Co35 2.022 . S
N44 C41 1.351 . S
N44 N45 1.365 . S
N45 C42 1.341 . S
N45 N44 1.365 . S
N45 H65 0.862 . S
C46 C41 1.501 . S
C46 H47 0.961 . S
C46 H48 0.961 . S
C46 H49 0.960 . S
H47 C46 0.961 . S
H48 C46 0.961 . S
H49 C46 0.960 . S
C50 N51 1.342 . S
C50 C54 1.401 . S
C50 C55 1.499 . S
N51 Co34 1.989 . S
N51 C50 1.342 . S
N51 N52 1.388 . S
N52 Co35 1.993 . S
N52 N51 1.388 . S
N52 C53 1.346 . S
C53 N52 1.346 . S
C53 C54 1.396 . S
C53 C63 1.510 . S
C54 C50 1.401 . S
C54 C53 1.396 . S
C55 C50 1.499 . S
C55 H56 0.959 . S
C55 H57 0.960 . S
C55 H58 0.961 . S
H56 C55 0.959 . S
H57 C55 0.960 . S
H58 C55 0.961 . S
O59 Co34 1.967 . S
O59 C67 1.258 . S
O60 Co35 1.941 . S
O60 C67 1.266 . S
H61 C63 0.959 . S
H62 C63 0.961 . S
C63 C53 1.510 . S
C63 H61 0.959 . S
C63 H62 0.961 . S
C63 H64 0.960 . S
H64 C63 0.960 . S
H65 N45 0.862 . S
O66 Co34 1.920 1_556 S
O66 C39 1.289 . S
C67 O59 1.258 . S
C67 O60 1.266 . S
Co68 O71 1.970 . S
Co68 N85 1.989 . S
Co68 O93 1.967 . S
Co68 O100 1.920 . S
Co69 O72 1.966 . S
Co69 N78 2.022 . S
Co69 N86 1.993 . S
Co69 O94 1.941 . S
C70 O71 1.258 . S
C70 O72 1.263 . S
O71 Co68 1.970 . S
O71 C70 1.258 . S
O72 Co69 1.966 . S
O72 C70 1.263 . S
C73 O74 1.235 . S
C73 O100 1.289 . S
O74 C73 1.235 . S
C75 C77 1.400 . S
C75 N78 1.351 . S
C75 C80 1.501 . S
C76 C77 1.387 . S
C76 N79 1.341 . S
C77 C75 1.400 . S
C77 C76 1.387 . S
N78 Co69 2.022 . S
N78 C75 1.351 . S
N78 N79 1.365 . S
N79 C76 1.341 . S
N79 N78 1.365 . S
N79 H99 0.862 . S
C80 C75 1.501 . S
C80 H81 0.961 . S
C80 H82 0.961 . S
C80 H83 0.960 . S
H81 C80 0.961 . S
H82 C80 0.961 . S
H83 C80 0.960 . S
C84 N85 1.342 . S
C84 C88 1.401 . S
C84 C89 1.499 . S
N85 Co68 1.989 . S
N85 C84 1.342 . S
N85 N86 1.388 . S
N86 Co69 1.993 . S
N86 N85 1.388 . S
N86 C87 1.346 . S
C87 N86 1.346 . S
C87 C88 1.396 . S
C87 C97 1.510 . S
C88 C84 1.401 . S
C88 C87 1.396 . S
C89 C84 1.499 . S
C89 H90 0.959 . S
C89 H91 0.960 . S
C89 H92 0.961 . S
H90 C89 0.959 . S
H91 C89 0.960 . S
H92 C89 0.961 . S
O93 Co68 1.967 . S
O93 C101 1.258 . S
O94 Co69 1.941 . S
O94 C101 1.266 . S
H95 C97 0.959 . S
H96 C97 0.961 . S
C97 C87 1.510 . S
C97 H95 0.959 . S
C97 H96 0.961 . S
C97 H98 0.960 . S
H98 C97 0.960 . S
H99 N79 0.862 . S
O100 Co68 1.920 . S
O100 C73 1.289 . S
C101 O93 1.258 . S
C101 O94 1.266 . S
Co102 O105 1.970 1_554 S
Co102 N119 1.989 . S
Co102 O127 1.967 . S
Co102 O134 1.920 1_554 S
Co103 O106 1.966 . S
Co103 N112 2.022 . S
Co103 N120 1.993 . S
Co103 O128 1.941 . S
C104 O105 1.258 . S
C104 O106 1.263 1_556 S
O105 Co102 1.970 1_556 S
O105 C104 1.258 . S
O106 Co103 1.966 . S
O106 C104 1.263 1_554 S
C107 O108 1.235 . S
C107 O134 1.289 . S
O108 C107 1.235 . S
C109 C111 1.400 . S
C109 N112 1.351 . S
C109 C114 1.501 . S
C110 C111 1.387 . S
C110 N113 1.341 . S
C111 C109 1.400 . S
C111 C110 1.387 . S
N112 Co103 2.022 . S
N112 C109 1.351 . S
N112 N113 1.365 . S
N113 C110 1.341 . S
N113 N112 1.365 . S
N113 H133 0.862 . S
C114 C109 1.501 . S
C114 H115 0.961 . S
C114 H116 0.961 . S
C114 H117 0.960 . S
H115 C114 0.961 . S
H116 C114 0.961 . S
H117 C114 0.960 . S
C118 N119 1.342 . S
C118 C122 1.401 . S
C118 C123 1.499 . S
N119 Co102 1.989 . S
N119 C118 1.342 . S
N119 N120 1.388 . S
N120 Co103 1.993 . S
N120 N119 1.388 . S
N120 C121 1.346 . S
C121 N120 1.346 . S
C121 C122 1.396 . S
C121 C131 1.510 . S
C122 C118 1.401 . S
C122 C121 1.396 . S
C123 C118 1.499 . S
C123 H124 0.959 . S
C123 H125 0.960 . S
C123 H126 0.961 . S
H124 C123 0.959 . S
H125 C123 0.960 . S
H126 C123 0.961 . S
O127 Co102 1.967 . S
O127 C135 1.258 . S
O128 Co103 1.941 . S
O128 C135 1.266 . S
H129 C131 0.959 . S
H130 C131 0.961 . S
C131 C121 1.510 . S
C131 H129 0.959 . S
C131 H130 0.961 . S
C131 H132 0.960 . S
H132 C131 0.960 . S
H133 N113 0.862 . S
O134 Co102 1.920 1_556 S
O134 C107 1.289 . S
C135 O127 1.258 . S
C135 O128 1.266 . S
Co136 O139 1.970 . S
Co136 N153 1.989 . S
Co136 O161 1.967 . S
Co136 O168 1.920 . S
Co137 O140 1.966 . S
Co137 N146 2.022 . S
Co137 N154 1.993 . S
Co137 O162 1.941 . S
C138 O139 1.258 . S
C138 O140 1.263 . S
O139 Co136 1.970 . S
O139 C138 1.258 . S
O140 Co137 1.966 . S
O140 C138 1.263 . S
C141 O142 1.235 . S
C141 O168 1.289 . S
O142 C141 1.235 . S
C143 C145 1.400 . S
C143 N146 1.351 . S
C143 C148 1.501 . S
C144 C145 1.387 . S
C144 N147 1.341 . S
C145 C143 1.400 . S
C145 C144 1.387 . S
N146 Co137 2.022 . S
N146 C143 1.351 . S
N146 N147 1.365 . S
N147 C144 1.341 . S
N147 N146 1.365 . S
N147 H167 0.862 . S
C148 C143 1.501 . S
C148 H149 0.961 . S
C148 H150 0.961 . S
C148 H151 0.960 . S
H149 C148 0.961 . S
H150 C148 0.961 . S
H151 C148 0.960 . S
C152 N153 1.342 . S
C152 C156 1.401 . S
C152 C157 1.499 . S
N153 Co136 1.989 . S
N153 C152 1.342 . S
N153 N154 1.388 . S
N154 Co137 1.993 . S
N154 N153 1.388 . S
N154 C155 1.346 . S
C155 N154 1.346 . S
C155 C156 1.396 . S
C155 C165 1.510 . S
C156 C152 1.401 . S
C156 C155 1.396 . S
C157 C152 1.499 . S
C157 H158 0.959 . S
C157 H159 0.960 . S
C157 H160 0.961 . S
H158 C157 0.959 . S
H159 C157 0.960 . S
H160 C157 0.961 . S
O161 Co136 1.967 . S
O161 C169 1.258 . S
O162 Co137 1.941 . S
O162 C169 1.266 . S
H163 C165 0.959 . S
H164 C165 0.961 . S
C165 C155 1.510 . S
C165 H163 0.959 . S
C165 H164 0.961 . S
C165 H166 0.960 . S
H166 C165 0.960 . S
H167 N147 0.862 . S
O168 Co136 1.920 . S
O168 C141 1.289 . S
C169 O161 1.258 . S
C169 O162 1.266 . S
Co170 O173 1.970 1_556 S
Co170 N187 1.989 . S
Co170 O195 1.967 . S
Co170 O202 1.920 1_656 S
Co171 O174 1.966 . S
Co171 N180 2.022 . S
Co171 N188 1.993 . S
Co171 O196 1.941 . S
C172 O173 1.258 . S
C172 O174 1.263 1_554 S
O173 Co170 1.970 1_554 S
O173 C172 1.258 . S
O174 Co171 1.966 . S
O174 C172 1.263 1_556 S
C175 O176 1.235 . S
C175 O202 1.289 . S
O176 C175 1.235 . S
C177 C179 1.400 . S
C177 N180 1.351 . S
C177 C182 1.501 . S
C178 C179 1.387 . S
C178 N181 1.341 . S
C179 C177 1.400 . S
C179 C178 1.387 . S
N180 Co171 2.022 . S
N180 C177 1.351 . S
N180 N181 1.365 . S
N181 C178 1.341 . S
N181 N180 1.365 . S
N181 H201 0.862 . S
C182 C177 1.501 . S
C182 H183 0.961 . S
C182 H184 0.961 . S
C182 H185 0.960 . S
H183 C182 0.961 . S
H184 C182 0.961 . S
H185 C182 0.960 . S
C186 N187 1.331 1_455 S
C186 C190 1.392 1_455 S
C186 C191 1.517 . S
N187 Co170 1.989 . S
N187 C186 1.331 1_655 S
N187 N188 1.388 . S
N188 Co171 1.993 . S
N188 N187 1.388 . S
N188 C189 1.346 . S
C189 N188 1.346 . S
C189 C190 1.396 . S
C189 C199 1.510 . S
C190 C186 1.392 1_655 S
C190 C189 1.396 . S
C191 C186 1.517 . S
C191 H192 0.959 . S
C191 H193 0.960 . S
C191 H194 0.961 . S
H192 C191 0.959 . S
H193 C191 0.960 . S
H194 C191 0.961 . S
O195 Co170 1.967 . S
O195 C203 1.258 . S
O196 Co171 1.941 . S
O196 C203 1.266 . S
H197 C199 0.959 . S
H198 C199 0.961 . S
C199 C189 1.510 . S
C199 H197 0.959 . S
C199 H198 0.961 . S
C199 H200 0.960 . S
H200 C199 0.960 . S
H201 N181 0.862 . S
O202 Co170 1.920 1_454 S
O202 C175 1.289 . S
C203 O195 1.258 . S
C203 O196 1.266 . S
Co204 O207 1.970 . S
Co204 N221 1.989 . S
Co204 O229 1.967 . S
Co204 O236 1.920 . S
Co205 O208 1.966 . S
Co205 N214 2.022 . S
Co205 N222 1.993 . S
Co205 O230 1.941 . S
C206 O207 1.258 . S
C206 O208 1.263 . S
O207 Co204 1.970 . S
O207 C206 1.258 . S
O208 Co205 1.966 . S
O208 C206 1.263 . S
C209 O210 1.235 . S
C209 O236 1.289 . S
O210 C209 1.235 . S
C211 C213 1.400 . S
C211 N214 1.351 . S
C211 C216 1.501 . S
C212 C213 1.387 . S
C212 N215 1.341 . S
C213 C211 1.400 . S
C213 C212 1.387 . S
N214 Co205 2.022 . S
N214 C211 1.351 . S
N214 N215 1.365 . S
N215 C212 1.341 . S
N215 N214 1.365 . S
N215 H235 0.862 . S
C216 C211 1.501 . S
C216 H217 0.961 . S
C216 H218 0.961 . S
C216 H219 0.960 . S
H217 C216 0.961 . S
H218 C216 0.961 . S
H219 C216 0.960 . S
C220 N221 1.342 . S
C220 C224 1.401 . S
C220 C225 1.499 . S
N221 Co204 1.989 . S
N221 C220 1.342 . S
N221 N222 1.388 . S
N222 Co205 1.993 . S
N222 N221 1.388 . S
N222 C223 1.346 . S
C223 N222 1.346 . S
C223 C224 1.396 . S
C223 C233 1.510 . S
C224 C220 1.401 . S
C224 C223 1.396 . S
C225 C220 1.499 . S
C225 H226 0.959 . S
C225 H227 0.960 . S
C225 H228 0.961 . S
H226 C225 0.959 . S
H227 C225 0.960 . S
H228 C225 0.961 . S
O229 Co204 1.967 . S
O229 C237 1.258 . S
O230 Co205 1.941 . S
O230 C237 1.266 . S
H231 C233 0.959 . S
H232 C233 0.961 . S
C233 C223 1.510 . S
C233 H231 0.959 . S
C233 H232 0.961 . S
C233 H234 0.960 . S
H234 C233 0.960 . S
H235 N215 0.862 . S
O236 Co204 1.920 . S
O236 C209 1.289 . S
C237 O229 1.258 . S
C237 O230 1.266 . S
Co238 O241 1.970 1_556 S
Co238 N255 1.989 . S
Co238 O263 1.967 . S
Co238 O270 1.920 1_456 S
Co239 O242 1.966 . S
Co239 N248 2.022 . S
Co239 N256 1.993 . S
Co239 O264 1.941 . S
C240 O241 1.258 . S
C240 O242 1.263 1_554 S
O241 Co238 1.970 1_554 S
O241 C240 1.258 . S
O242 Co239 1.966 . S
O242 C240 1.263 1_556 S
C243 O244 1.235 . S
C243 O270 1.289 . S
O244 C243 1.235 . S
C245 C247 1.400 . S
C245 N248 1.351 . S
C245 C250 1.501 . S
C246 C247 1.387 . S
C246 N249 1.341 . S
C247 C245 1.400 . S
C247 C246 1.387 . S
N248 Co239 2.022 . S
N248 C245 1.351 . S
N248 N249 1.365 . S
N249 C246 1.341 . S
N249 N248 1.365 . S
N249 H269 0.862 . S
C250 C245 1.501 . S
C250 H251 0.961 . S
C250 H252 0.961 . S
C250 H253 0.960 . S
H251 C250 0.961 . S
H252 C250 0.961 . S
H253 C250 0.960 . S
C254 N255 1.331 1_655 S
C254 C258 1.392 1_655 S
C254 C259 1.517 . S
N255 Co238 1.989 . S
N255 C254 1.331 1_455 S
N255 N256 1.388 . S
N256 Co239 1.993 . S
N256 N255 1.388 . S
N256 C257 1.346 . S
C257 N256 1.346 . S
C257 C258 1.396 . S
C257 C267 1.510 . S
C258 C254 1.392 1_455 S
C258 C257 1.396 . S
C259 C254 1.517 . S
C259 H260 0.959 . S
C259 H261 0.960 . S
C259 H262 0.961 . S
H260 C259 0.959 . S
H261 C259 0.960 . S
H262 C259 0.961 . S
O263 Co238 1.967 . S
O263 C271 1.258 . S
O264 Co239 1.941 . S
O264 C271 1.266 . S
H265 C267 0.959 . S
H266 C267 0.961 . S
C267 C257 1.510 . S
C267 H265 0.959 . S
C267 H266 0.961 . S
C267 H268 0.960 . S
H268 C267 0.960 . S
H269 N249 0.862 . S
O270 Co238 1.920 1_654 S
O270 C243 1.289 . S
C271 O263 1.258 . S
C271 O264 1.266 . S
Co272 O275 1.970 . S
Co272 N289 1.989 . S
Co272 O297 1.967 . S
Co272 O304 1.920 . S
Co273 O276 1.966 . S
Co273 N282 2.022 . S
Co273 N290 1.993 . S
Co273 O298 1.941 . S
C274 O275 1.258 . S
C274 O276 1.263 . S
O275 Co272 1.970 . S
O275 C274 1.258 . S
O276 Co273 1.966 . S
O276 C274 1.263 . S
C277 O278 1.235 . S
C277 O304 1.289 . S
O278 C277 1.235 . S
C279 C281 1.400 . S
C279 N282 1.351 . S
C279 C284 1.501 . S
C280 C281 1.387 . S
C280 N283 1.341 . S
C281 C279 1.400 . S
C281 C280 1.387 . S
N282 Co273 2.022 . S
N282 C279 1.351 . S
N282 N283 1.365 . S
N283 C280 1.341 . S
N283 N282 1.365 . S
N283 H303 0.862 . S
C284 C279 1.501 . S
C284 H285 0.961 . S
C284 H286 0.961 . S
C284 H287 0.960 . S
H285 C284 0.961 . S
H286 C284 0.961 . S
H287 C284 0.960 . S
C288 N289 1.342 . S
C288 C292 1.401 . S
C288 C293 1.499 . S
N289 Co272 1.989 . S
N289 C288 1.342 . S
N289 N290 1.388 . S
N290 Co273 1.993 . S
N290 N289 1.388 . S
N290 C291 1.346 . S
C291 N290 1.346 . S
C291 C292 1.396 . S
C291 C301 1.510 . S
C292 C288 1.401 . S
C292 C291 1.396 . S
C293 C288 1.499 . S
C293 H294 0.959 . S
C293 H295 0.960 . S
C293 H296 0.961 . S
H294 C293 0.959 . S
H295 C293 0.960 . S
H296 C293 0.961 . S
O297 Co272 1.967 . S
O297 C305 1.258 . S
O298 Co273 1.941 . S
O298 C305 1.266 . S
H299 C301 0.959 . S
H300 C301 0.961 . S
C301 C291 1.510 . S
C301 H299 0.959 . S
C301 H300 0.961 . S
C301 H302 0.960 . S
H302 C301 0.960 . S
H303 N283 0.862 . S
O304 Co272 1.920 . S
O304 C277 1.289 . S
C305 O297 1.258 . S
C305 O298 1.266 . S
Co306 O309 1.970 . S
Co306 N323 1.989 . S
Co306 O331 1.967 . S
Co306 O338 1.920 1_556 S
Co307 O310 1.966 . S
Co307 N316 2.022 . S
Co307 N324 1.993 . S
Co307 O332 1.941 . S
C308 O309 1.258 . S
C308 O310 1.263 . S
O309 Co306 1.970 . S
O309 C308 1.258 . S
O310 Co307 1.966 . S
O310 C308 1.263 . S
C311 O312 1.235 . S
C311 O338 1.289 . S
O312 C311 1.235 . S
C313 C315 1.400 . S
C313 N316 1.351 . S
C313 C318 1.501 . S
C314 C315 1.387 . S
C314 N317 1.341 . S
C315 C313 1.400 . S
C315 C314 1.387 . S
N316 Co307 2.022 . S
N316 C313 1.351 . S
N316 N317 1.365 . S
N317 C314 1.341 . S
N317 N316 1.365 . S
N317 H337 0.862 . S
C318 C313 1.501 . S
C318 H319 0.961 . S
C318 H320 0.961 . S
C318 H321 0.960 . S
H319 C318 0.961 . S
H320 C318 0.961 . S
H321 C318 0.960 . S
C322 N323 1.331 1_554 S
C322 C326 1.392 1_554 S
C322 C327 1.517 . S
N323 Co306 1.989 . S
N323 C322 1.331 1_556 S
N323 N324 1.388 . S
N324 Co307 1.993 . S
N324 N323 1.388 . S
N324 C325 1.346 . S
C325 N324 1.346 . S
C325 C326 1.396 . S
C325 C335 1.510 . S
C326 C322 1.392 1_556 S
C326 C325 1.396 . S
C327 C322 1.517 . S
C327 H328 0.959 . S
C327 H329 0.960 . S
C327 H330 0.961 . S
H328 C327 0.959 . S
H329 C327 0.960 . S
H330 C327 0.961 . S
O331 Co306 1.967 . S
O331 C339 1.258 . S
O332 Co307 1.941 . S
O332 C339 1.266 . S
H333 C335 0.959 . S
H334 C335 0.961 . S
C335 C325 1.510 . S
C335 H333 0.959 . S
C335 H334 0.961 . S
C335 H336 0.960 . S
H336 C335 0.960 . S
H337 N317 0.862 . S
O338 Co306 1.920 1_554 S
O338 C311 1.289 . S
C339 O331 1.258 . S
C339 O332 1.266 . S
Co340 O343 1.970 . S
Co340 N357 1.989 . S
Co340 O365 1.967 . S
Co340 O372 1.920 . S
Co341 O344 1.966 . S
Co341 N350 2.022 . S
Co341 N358 1.993 . S
Co341 O366 1.941 . S
C342 O343 1.258 . S
C342 O344 1.263 . S
O343 Co340 1.970 . S
O343 C342 1.258 . S
O344 Co341 1.966 . S
O344 C342 1.263 . S
C345 O346 1.235 . S
C345 O372 1.289 . S
O346 C345 1.235 . S
C347 C349 1.400 . S
C347 N350 1.351 . S
C347 C352 1.501 . S
C348 C349 1.387 . S
C348 N351 1.341 . S
C349 C347 1.400 . S
C349 C348 1.387 . S
N350 Co341 2.022 . S
N350 C347 1.351 . S
N350 N351 1.365 . S
N351 C348 1.341 . S
N351 N350 1.365 . S
N351 H371 0.862 . S
C352 C347 1.501 . S
C352 H353 0.961 . S
C352 H354 0.961 . S
C352 H355 0.960 . S
H353 C352 0.961 . S
H354 C352 0.961 . S
H355 C352 0.960 . S
C356 N357 1.342 . S
C356 C360 1.401 . S
C356 C361 1.499 . S
N357 Co340 1.989 . S
N357 C356 1.342 . S
N357 N358 1.388 . S
N358 Co341 1.993 . S
N358 N357 1.388 . S
N358 C359 1.346 . S
C359 N358 1.346 . S
C359 C360 1.396 . S
C359 C369 1.510 . S
C360 C356 1.401 . S
C360 C359 1.396 . S
C361 C356 1.499 . S
C361 H362 0.959 . S
C361 H363 0.960 . S
C361 H364 0.961 . S
H362 C361 0.959 . S
H363 C361 0.960 . S
H364 C361 0.961 . S
O365 Co340 1.967 . S
O365 C373 1.258 . S
O366 Co341 1.941 . S
O366 C373 1.266 . S
H367 C369 0.959 . S
H368 C369 0.961 . S
C369 C359 1.510 . S
C369 H367 0.959 . S
C369 H368 0.961 . S
C369 H370 0.960 . S
H370 C369 0.960 . S
H371 N351 0.862 . S
O372 Co340 1.920 . S
O372 C345 1.289 . S
C373 O365 1.258 . S
C373 O366 1.266 . S
Co374 O377 1.970 1_565 S
Co374 N391 1.989 . S
Co374 O399 1.967 . S
Co374 O406 1.920 1_566 S
Co375 O378 1.966 . S
Co375 N384 2.022 . S
Co375 N392 1.993 . S
Co375 O400 1.941 . S
C376 O377 1.258 . S
C376 O378 1.263 1_545 S
O377 Co374 1.970 1_545 S
O377 C376 1.258 . S
O378 Co375 1.966 . S
O378 C376 1.263 1_565 S
C379 O380 1.235 . S
C379 O406 1.289 . S
O380 C379 1.235 . S
C381 C383 1.400 . S
C381 N384 1.351 . S
C381 C386 1.501 . S
C382 C383 1.387 . S
C382 N385 1.341 . S
C383 C381 1.400 . S
C383 C382 1.387 . S
N384 Co375 2.022 . S
N384 C381 1.351 . S
N384 N385 1.365 . S
N385 C382 1.341 . S
N385 N384 1.365 . S
N385 H405 0.862 . S
C386 C381 1.501 . S
C386 H387 0.961 . S
C386 H388 0.961 . S
C386 H389 0.960 . S
H387 C386 0.961 . S
H388 C386 0.961 . S
H389 C386 0.960 . S
C390 N391 1.331 1_554 S
C390 C394 1.392 1_554 S
C390 C395 1.517 . S
N391 Co374 1.989 . S
N391 C390 1.331 1_556 S
N391 N392 1.388 . S
N392 Co375 1.993 . S
N392 N391 1.388 . S
N392 C393 1.346 . S
C393 N392 1.346 . S
C393 C394 1.396 . S
C393 C403 1.510 . S
C394 C390 1.392 1_556 S
C394 C393 1.396 . S
C395 C390 1.517 . S
C395 H396 0.959 . S
C395 H397 0.960 . S
C395 H398 0.961 . S
H396 C395 0.959 . S
H397 C395 0.960 . S
H398 C395 0.961 . S
O399 Co374 1.967 . S
O399 C407 1.258 . S
O400 Co375 1.941 . S
O400 C407 1.266 . S
H401 C403 0.959 . S
H402 C403 0.961 . S
C403 C393 1.510 . S
C403 H401 0.959 . S
C403 H402 0.961 . S
C403 H404 0.960 . S
H404 C403 0.960 . S
H405 N385 0.862 . S
O406 Co374 1.920 1_544 S
O406 C379 1.289 . S
C407 O399 1.258 . S
C407 O400 1.266 . S
Co408 O411 1.970 . S
Co408 N425 1.989 . S
Co408 O433 1.967 . S
Co408 O440 1.920 . S
Co409 O412 1.966 . S
Co409 N418 2.022 . S
Co409 N426 1.993 . S
Co409 O434 1.941 . S
C410 O411 1.258 . S
C410 O412 1.263 . S
O411 Co408 1.970 . S
O411 C410 1.258 . S
O412 Co409 1.966 . S
O412 C410 1.263 . S
C413 O414 1.235 . S
C413 O440 1.289 . S
O414 C413 1.235 . S
C415 C417 1.400 . S
C415 N418 1.351 . S
C415 C420 1.501 . S
C416 C417 1.387 . S
C416 N419 1.341 . S
C417 C415 1.400 . S
C417 C416 1.387 . S
N418 Co409 2.022 . S
N418 C415 1.351 . S
N418 N419 1.365 . S
N419 C416 1.341 . S
N419 N418 1.365 . S
N419 H439 0.862 . S
C420 C415 1.501 . S
C420 H421 0.961 . S
C420 H422 0.961 . S
C420 H423 0.960 . S
H421 C420 0.961 . S
H422 C420 0.961 . S
H423 C420 0.960 . S
C424 N425 1.342 . S
C424 C428 1.401 . S
C424 C429 1.499 . S
N425 Co408 1.989 . S
N425 C424 1.342 . S
N425 N426 1.388 . S
N426 Co409 1.993 . S
N426 N425 1.388 . S
N426 C427 1.346 . S
C427 N426 1.346 . S
C427 C428 1.396 . S
C427 C437 1.510 . S
C428 C424 1.401 . S
C428 C427 1.396 . S
C429 C424 1.499 . S
C429 H430 0.959 . S
C429 H431 0.960 . S
C429 H432 0.961 . S
H430 C429 0.959 . S
H431 C429 0.960 . S
H432 C429 0.961 . S
O433 Co408 1.967 . S
O433 C441 1.258 . S
O434 Co409 1.941 . S
O434 C441 1.266 . S
H435 C437 0.959 . S
H436 C437 0.961 . S
C437 C427 1.510 . S
C437 H435 0.959 . S
C437 H436 0.961 . S
C437 H438 0.960 . S
H438 C437 0.960 . S
H439 N419 0.862 . S
O440 Co408 1.920 . S
O440 C413 1.289 . S
C441 O433 1.258 . S
C441 O434 1.266 . S
Co442 O445 1.970 . S
Co442 N459 1.989 . S
Co442 O467 1.967 . S
Co442 O474 1.920 1_554 S
Co443 O446 1.966 . S
Co443 N452 2.022 . S
Co443 N460 1.993 . S
Co443 O468 1.941 . S
C444 O445 1.258 . S
C444 O446 1.263 . S
O445 Co442 1.970 . S
O445 C444 1.258 . S
O446 Co443 1.966 . S
O446 C444 1.263 . S
C447 O448 1.235 . S
C447 O474 1.289 . S
O448 C447 1.235 . S
C449 C451 1.400 . S
C449 N452 1.351 . S
C449 C454 1.501 . S
C450 C451 1.387 . S
C450 N453 1.341 . S
C451 C449 1.400 . S
C451 C450 1.387 . S
N452 Co443 2.022 . S
N452 C449 1.351 . S
N452 N453 1.365 . S
N453 C450 1.341 . S
N453 N452 1.365 . S
N453 H473 0.862 . S
C454 C449 1.501 . S
C454 H455 0.961 . S
C454 H456 0.961 . S
C454 H457 0.960 . S
H455 C454 0.961 . S
H456 C454 0.961 . S
H457 C454 0.960 . S
C458 N459 1.331 1_556 S
C458 C462 1.392 1_556 S
C458 C463 1.517 . S
N459 Co442 1.989 . S
N459 C458 1.331 1_554 S
N459 N460 1.388 . S
N460 Co443 1.993 . S
N460 N459 1.388 . S
N460 C461 1.346 . S
C461 N460 1.346 . S
C461 C462 1.396 . S
C461 C471 1.510 . S
C462 C458 1.392 1_554 S
C462 C461 1.396 . S
C463 C458 1.517 . S
C463 H464 0.959 . S
C463 H465 0.960 . S
C463 H466 0.961 . S
H464 C463 0.959 . S
H465 C463 0.960 . S
H466 C463 0.961 . S
O467 Co442 1.967 . S
O467 C475 1.258 . S
O468 Co443 1.941 . S
O468 C475 1.266 . S
H469 C471 0.959 . S
H470 C471 0.961 . S
C471 C461 1.510 . S
C471 H469 0.959 . S
C471 H470 0.961 . S
C471 H472 0.960 . S
H472 C471 0.960 . S
H473 N453 0.862 . S
O474 Co442 1.920 1_556 S
O474 C447 1.289 . S
C475 O467 1.258 . S
C475 O468 1.266 . S
Co476 O479 1.970 . S
Co476 N493 1.989 . S
Co476 O501 1.967 . S
Co476 O508 1.920 . S
Co477 O480 1.966 . S
Co477 N486 2.022 . S
Co477 N494 1.993 . S
Co477 O502 1.941 . S
C478 O479 1.258 . S
C478 O480 1.263 . S
O479 Co476 1.970 . S
O479 C478 1.258 . S
O480 Co477 1.966 . S
O480 C478 1.263 . S
C481 O482 1.235 . S
C481 O508 1.289 . S
O482 C481 1.235 . S
C483 C485 1.400 . S
C483 N486 1.351 . S
C483 C488 1.501 . S
C484 C485 1.387 . S
C484 N487 1.341 . S
C485 C483 1.400 . S
C485 C484 1.387 . S
N486 Co477 2.022 . S
N486 C483 1.351 . S
N486 N487 1.365 . S
N487 C484 1.341 . S
N487 N486 1.365 . S
N487 H507 0.862 . S
C488 C483 1.501 . S
C488 H489 0.961 . S
C488 H490 0.961 . S
C488 H491 0.960 . S
H489 C488 0.961 . S
H490 C488 0.961 . S
H491 C488 0.960 . S
C492 N493 1.342 . S
C492 C496 1.401 . S
C492 C497 1.499 . S
N493 Co476 1.989 . S
N493 C492 1.342 . S
N493 N494 1.388 . S
N494 Co477 1.993 . S
N494 N493 1.388 . S
N494 C495 1.346 . S
C495 N494 1.346 . S
C495 C496 1.396 . S
C495 C505 1.510 . S
C496 C492 1.401 . S
C496 C495 1.396 . S
C497 C492 1.499 . S
C497 H498 0.959 . S
C497 H499 0.960 . S
C497 H500 0.961 . S
H498 C497 0.959 . S
H499 C497 0.960 . S
H500 C497 0.961 . S
O501 Co476 1.967 . S
O501 C509 1.258 . S
O502 Co477 1.941 . S
O502 C509 1.266 . S
H503 C505 0.959 . S
H504 C505 0.961 . S
C505 C495 1.510 . S
C505 H503 0.959 . S
C505 H504 0.961 . S
C505 H506 0.960 . S
H506 C505 0.960 . S
H507 N487 0.862 . S
O508 Co476 1.920 . S
O508 C481 1.289 . S
C509 O501 1.258 . S
C509 O502 1.266 . S
Co510 O513 1.970 1_565 S
Co510 N527 1.989 . S
Co510 O535 1.967 . S
Co510 O542 1.920 1_564 S
Co511 O514 1.966 . S
Co511 N520 2.022 . S
Co511 N528 1.993 . S
Co511 O536 1.941 . S
C512 O513 1.258 . S
C512 O514 1.263 1_545 S
O513 Co510 1.970 1_545 S
O513 C512 1.258 . S
O514 Co511 1.966 . S
O514 C512 1.263 1_565 S
C515 O516 1.235 . S
C515 O542 1.289 . S
O516 C515 1.235 . S
C517 C519 1.400 . S
C517 N520 1.351 . S
C517 C522 1.501 . S
C518 C519 1.387 . S
C518 N521 1.341 . S
C519 C517 1.400 . S
C519 C518 1.387 . S
N520 Co511 2.022 . S
N520 C517 1.351 . S
N520 N521 1.365 . S
N521 C518 1.341 . S
N521 N520 1.365 . S
N521 H541 0.862 . S
C522 C517 1.501 . S
C522 H523 0.961 . S
C522 H524 0.961 . S
C522 H525 0.960 . S
H523 C522 0.961 . S
H524 C522 0.961 . S
H525 C522 0.960 . S
C526 N527 1.331 1_556 S
C526 C530 1.392 1_556 S
C526 C531 1.517 . S
N527 Co510 1.989 . S
N527 C526 1.331 1_554 S
N527 N528 1.388 . S
N528 Co511 1.993 . S
N528 N527 1.388 . S
N528 C529 1.346 . S
C529 N528 1.346 . S
C529 C530 1.396 . S
C529 C539 1.510 . S
C530 C526 1.392 1_554 S
C530 C529 1.396 . S
C531 C526 1.517 . S
C531 H532 0.959 . S
C531 H533 0.960 . S
C531 H534 0.961 . S
H532 C531 0.959 . S
H533 C531 0.960 . S
H534 C531 0.961 . S
O535 Co510 1.967 . S
O535 C543 1.258 . S
O536 Co511 1.941 . S
O536 C543 1.266 . S
H537 C539 0.959 . S
H538 C539 0.961 . S
C539 C529 1.510 . S
C539 H537 0.959 . S
C539 H538 0.961 . S
C539 H540 0.960 . S
H540 C539 0.960 . S
H541 N521 0.862 . S
O542 Co510 1.920 1_546 S
O542 C515 1.289 . S
C543 O535 1.258 . S
C543 O536 1.266 . S
Co544 O547 1.970 . S
Co544 N561 1.989 . S
Co544 O569 1.967 . S
Co544 O576 1.920 . S
Co545 O548 1.966 . S
Co545 N554 2.022 . S
Co545 N562 1.993 . S
Co545 O570 1.941 . S
C546 O547 1.258 . S
C546 O548 1.263 . S
O547 Co544 1.970 . S
O547 C546 1.258 . S
O548 Co545 1.966 . S
O548 C546 1.263 . S
C549 O550 1.235 . S
C549 O576 1.289 . S
O550 C549 1.235 . S
C551 C553 1.400 . S
C551 N554 1.351 . S
C551 C556 1.501 . S
C552 C553 1.387 . S
C552 N555 1.341 . S
C553 C551 1.400 . S
C553 C552 1.387 . S
N554 Co545 2.022 . S
N554 C551 1.351 . S
N554 N555 1.365 . S
N555 C552 1.341 . S
N555 N554 1.365 . S
N555 H575 0.862 . S
C556 C551 1.501 . S
C556 H557 0.961 . S
C556 H558 0.961 . S
C556 H559 0.960 . S
H557 C556 0.961 . S
H558 C556 0.961 . S
H559 C556 0.960 . S
C560 N561 1.342 . S
C560 C564 1.401 . S
C560 C565 1.499 . S
N561 Co544 1.989 . S
N561 C560 1.342 . S
N561 N562 1.388 . S
N562 Co545 1.993 . S
N562 N561 1.388 . S
N562 C563 1.346 . S
C563 N562 1.346 . S
C563 C564 1.396 . S
C563 C573 1.510 . S
C564 C560 1.401 . S
C564 C563 1.396 . S
C565 C560 1.499 . S
C565 H566 0.959 . S
C565 H567 0.960 . S
C565 H568 0.961 . S
H566 C565 0.959 . S
H567 C565 0.960 . S
H568 C565 0.961 . S
O569 Co544 1.967 . S
O569 C577 1.258 . S
O570 Co545 1.941 . S
O570 C577 1.266 . S
H571 C573 0.959 . S
H572 C573 0.961 . S
C573 C563 1.510 . S
C573 H571 0.959 . S
C573 H572 0.961 . S
C573 H574 0.960 . S
H574 C573 0.960 . S
H575 N555 0.862 . S
O576 Co544 1.920 . S
O576 C549 1.289 . S
C577 O569 1.258 . S
C577 O570 1.266 . S
Co578 O581 1.970 . S
Co578 N595 1.989 . S
Co578 O603 1.967 . S
Co578 O610 1.920 . S
Co579 O582 1.966 . S
Co579 N588 2.022 . S
Co579 N596 1.993 . S
Co579 O604 1.941 . S
C580 O581 1.258 . S
C580 O582 1.263 . S
O581 Co578 1.970 . S
O581 C580 1.258 . S
O582 Co579 1.966 . S
O582 C580 1.263 . S
C583 O584 1.235 . S
C583 O610 1.289 . S
O584 C583 1.235 . S
C585 C587 1.400 . S
C585 N588 1.351 . S
C585 C590 1.501 . S
C586 C587 1.387 . S
C586 N589 1.341 . S
C587 C585 1.400 . S
C587 C586 1.387 . S
N588 Co579 2.022 . S
N588 C585 1.351 . S
N588 N589 1.365 . S
N589 C586 1.341 . S
N589 N588 1.365 . S
N589 H609 0.862 . S
C590 C585 1.501 . S
C590 H591 0.961 . S
C590 H592 0.961 . S
C590 H593 0.960 . S
H591 C590 0.961 . S
H592 C590 0.961 . S
H593 C590 0.960 . S
C594 N595 1.342 . S
C594 C598 1.401 . S
C594 C599 1.499 . S
N595 Co578 1.989 . S
N595 C594 1.342 . S
N595 N596 1.388 . S
N596 Co579 1.993 . S
N596 N595 1.388 . S
N596 C597 1.346 . S
C597 N596 1.346 . S
C597 C598 1.396 . S
C597 C607 1.510 . S
C598 C594 1.401 . S
C598 C597 1.396 . S
C599 C594 1.499 . S
C599 H600 0.959 . S
C599 H601 0.960 . S
C599 H602 0.961 . S
H600 C599 0.959 . S
H601 C599 0.960 . S
H602 C599 0.961 . S
O603 Co578 1.967 . S
O603 C611 1.258 . S
O604 Co579 1.941 . S
O604 C611 1.266 . S
H605 C607 0.959 . S
H606 C607 0.961 . S
C607 C597 1.510 . S
C607 H605 0.959 . S
C607 H606 0.961 . S
C607 H608 0.960 . S
H608 C607 0.960 . S
H609 N589 0.862 . S
O610 Co578 1.920 . S
O610 C583 1.289 . S
C611 O603 1.258 . S
C611 O604 1.266 . S
Co612 O615 1.970 1_455 S
Co612 N629 1.989 . S
Co612 O637 1.967 . S
Co612 O644 1.920 1_455 S
Co613 O616 1.966 . S
Co613 N622 2.022 . S
Co613 N630 1.993 . S
Co613 O638 1.941 . S
C614 O615 1.258 . S
C614 O616 1.263 1_655 S
O615 Co612 1.970 1_655 S
O615 C614 1.258 . S
O616 Co613 1.966 . S
O616 C614 1.263 1_455 S
C617 O618 1.235 . S
C617 O644 1.289 . S
O618 C617 1.235 . S
C619 C621 1.400 . S
C619 N622 1.351 . S
C619 C624 1.501 . S
C620 C621 1.387 . S
C620 N623 1.341 . S
C621 C619 1.400 . S
C621 C620 1.387 . S
N622 Co613 2.022 . S
N622 C619 1.351 . S
N622 N623 1.365 . S
N623 C620 1.341 . S
N623 N622 1.365 . S
N623 H643 0.862 . S
C624 C619 1.501 . S
C624 H625 0.961 . S
C624 H626 0.961 . S
C624 H627 0.960 . S
H625 C624 0.961 . S
H626 C624 0.961 . S
H627 C624 0.960 . S
C628 N629 1.342 . S
C628 C632 1.401 . S
C628 C633 1.499 . S
N629 Co612 1.989 . S
N629 C628 1.342 . S
N629 N630 1.388 . S
N630 Co613 1.993 . S
N630 N629 1.388 . S
N630 C631 1.346 . S
C631 N630 1.346 . S
C631 C632 1.396 . S
C631 C641 1.510 . S
C632 C628 1.401 . S
C632 C631 1.396 . S
C633 C628 1.499 . S
C633 H634 0.959 . S
C633 H635 0.960 . S
C633 H636 0.961 . S
H634 C633 0.959 . S
H635 C633 0.960 . S
H636 C633 0.961 . S
O637 Co612 1.967 . S
O637 C645 1.258 . S
O638 Co613 1.941 . S
O638 C645 1.266 . S
H639 C641 0.959 . S
H640 C641 0.961 . S
C641 C631 1.510 . S
C641 H639 0.959 . S
C641 H640 0.961 . S
C641 H642 0.960 . S
H642 C641 0.960 . S
H643 N623 0.862 . S
O644 Co612 1.920 1_655 S
O644 C617 1.289 . S
C645 O637 1.258 . S
C645 O638 1.266 . S
Co646 O649 1.970 . S
Co646 N663 1.989 . S
Co646 O671 1.967 . S
Co646 O678 1.920 . S
Co647 O650 1.966 . S
Co647 N656 2.022 . S
Co647 N664 1.993 . S
Co647 O672 1.941 . S
C648 O649 1.258 . S
C648 O650 1.263 . S
O649 Co646 1.970 . S
O649 C648 1.258 . S
O650 Co647 1.966 . S
O650 C648 1.263 . S
C651 O652 1.235 . S
C651 O678 1.289 . S
O652 C651 1.235 . S
C653 C655 1.400 . S
C653 N656 1.351 . S
C653 C658 1.501 . S
C654 C655 1.387 . S
C654 N657 1.341 . S
C655 C653 1.400 . S
C655 C654 1.387 . S
N656 Co647 2.022 . S
N656 C653 1.351 . S
N656 N657 1.365 . S
N657 C654 1.341 . S
N657 N656 1.365 . S
N657 H677 0.862 . S
C658 C653 1.501 . S
C658 H659 0.961 . S
C658 H660 0.961 . S
C658 H661 0.960 . S
H659 C658 0.961 . S
H660 C658 0.961 . S
H661 C658 0.960 . S
C662 N663 1.342 . S
C662 C666 1.401 . S
C662 C667 1.499 . S
N663 Co646 1.989 . S
N663 C662 1.342 . S
N663 N664 1.388 . S
N664 Co647 1.993 . S
N664 N663 1.388 . S
N664 C665 1.346 . S
C665 N664 1.346 . S
C665 C666 1.396 . S
C665 C675 1.510 . S
C666 C662 1.401 . S
C666 C665 1.396 . S
C667 C662 1.499 . S
C667 H668 0.959 . S
C667 H669 0.960 . S
C667 H670 0.961 . S
H668 C667 0.959 . S
H669 C667 0.960 . S
H670 C667 0.961 . S
O671 Co646 1.967 . S
O671 C679 1.258 . S
O672 Co647 1.941 . S
O672 C679 1.266 . S
H673 C675 0.959 . S
H674 C675 0.961 . S
C675 C665 1.510 . S
C675 H673 0.959 . S
C675 H674 0.961 . S
C675 H676 0.960 . S
H676 C675 0.960 . S
H677 N657 0.862 . S
O678 Co646 1.920 . S
O678 C651 1.289 . S
C679 O671 1.258 . S
C679 O672 1.266 . S
Co680 O683 1.970 . S
Co680 N697 1.989 . S
Co680 O705 1.967 . S
Co680 O712 1.920 . S
Co681 O684 1.966 . S
Co681 N690 2.022 . S
Co681 N698 1.993 . S
Co681 O706 1.941 . S
C682 O683 1.258 . S
C682 O684 1.263 . S
O683 Co680 1.970 . S
O683 C682 1.258 . S
O684 Co681 1.966 . S
O684 C682 1.263 . S
C685 O686 1.235 . S
C685 O712 1.289 . S
O686 C685 1.235 . S
C687 C689 1.400 . S
C687 N690 1.351 . S
C687 C692 1.501 . S
C688 C689 1.387 . S
C688 N691 1.341 . S
C689 C687 1.400 . S
C689 C688 1.387 . S
N690 Co681 2.022 . S
N690 C687 1.351 . S
N690 N691 1.365 . S
N691 C688 1.341 . S
N691 N690 1.365 . S
N691 H711 0.862 . S
C692 C687 1.501 . S
C692 H693 0.961 . S
C692 H694 0.961 . S
C692 H695 0.960 . S
H693 C692 0.961 . S
H694 C692 0.961 . S
H695 C692 0.960 . S
C696 N697 1.342 . S
C696 C700 1.401 . S
C696 C701 1.499 . S
N697 Co680 1.989 . S
N697 C696 1.342 . S
N697 N698 1.388 . S
N698 Co681 1.993 . S
N698 N697 1.388 . S
N698 C699 1.346 . S
C699 N698 1.346 . S
C699 C700 1.396 . S
C699 C709 1.510 . S
C700 C696 1.401 . S
C700 C699 1.396 . S
C701 C696 1.499 . S
C701 H702 0.959 . S
C701 H703 0.960 . S
C701 H704 0.961 . S
H702 C701 0.959 . S
H703 C701 0.960 . S
H704 C701 0.961 . S
O705 Co680 1.967 . S
O705 C713 1.258 . S
O706 Co681 1.941 . S
O706 C713 1.266 . S
H707 C709 0.959 . S
H708 C709 0.961 . S
C709 C699 1.510 . S
C709 H707 0.959 . S
C709 H708 0.961 . S
C709 H710 0.960 . S
H710 C709 0.960 . S
H711 N691 0.862 . S
O712 Co680 1.920 . S
O712 C685 1.289 . S
C713 O705 1.258 . S
C713 O706 1.266 . S
Co714 O717 1.970 . S
Co714 N731 1.989 . S
Co714 O739 1.967 . S
Co714 O746 1.920 . S
Co715 O718 1.966 . S
Co715 N724 2.022 . S
Co715 N732 1.993 . S
Co715 O740 1.941 . S
C716 O717 1.258 . S
C716 O718 1.263 . S
O717 Co714 1.970 . S
O717 C716 1.258 . S
O718 Co715 1.966 . S
O718 C716 1.263 . S
C719 O720 1.235 . S
C719 O746 1.289 . S
O720 C719 1.235 . S
C721 C723 1.400 . S
C721 N724 1.351 . S
C721 C726 1.501 . S
C722 C723 1.387 . S
C722 N725 1.341 . S
C723 C721 1.400 . S
C723 C722 1.387 . S
N724 Co715 2.022 . S
N724 C721 1.351 . S
N724 N725 1.365 . S
N725 C722 1.341 . S
N725 N724 1.365 . S
N725 H745 0.862 . S
C726 C721 1.501 . S
C726 H727 0.961 . S
C726 H728 0.961 . S
C726 H729 0.960 . S
H727 C726 0.961 . S
H728 C726 0.961 . S
H729 C726 0.960 . S
C730 N731 1.342 . S
C730 C734 1.401 . S
C730 C735 1.499 . S
N731 Co714 1.989 . S
N731 C730 1.342 . S
N731 N732 1.388 . S
N732 Co715 1.993 . S
N732 N731 1.388 . S
N732 C733 1.346 . S
C733 N732 1.346 . S
C733 C734 1.396 . S
C733 C743 1.510 . S
C734 C730 1.401 . S
C734 C733 1.396 . S
C735 C730 1.499 . S
C735 H736 0.959 . S
C735 H737 0.960 . S
C735 H738 0.961 . S
H736 C735 0.959 . S
H737 C735 0.960 . S
H738 C735 0.961 . S
O739 Co714 1.967 . S
O739 C747 1.258 . S
O740 Co715 1.941 . S
O740 C747 1.266 . S
H741 C743 0.959 . S
H742 C743 0.961 . S
C743 C733 1.510 . S
C743 H741 0.959 . S
C743 H742 0.961 . S
C743 H744 0.960 . S
H744 C743 0.960 . S
H745 N725 0.862 . S
O746 Co714 1.920 . S
O746 C719 1.289 . S
C747 O739 1.258 . S
C747 O740 1.266 . S
Co748 O751 1.970 1_455 S
Co748 N765 1.989 . S
Co748 O773 1.967 . S
Co748 O780 1.920 1_455 S
Co749 O752 1.966 . S
Co749 N758 2.022 . S
Co749 N766 1.993 . S
Co749 O774 1.941 . S
C750 O751 1.258 . S
C750 O752 1.263 1_655 S
O751 Co748 1.970 1_655 S
O751 C750 1.258 . S
O752 Co749 1.966 . S
O752 C750 1.263 1_455 S
C753 O754 1.235 . S
C753 O780 1.289 . S
O754 C753 1.235 . S
C755 C757 1.400 . S
C755 N758 1.351 . S
C755 C760 1.501 . S
C756 C757 1.387 . S
C756 N759 1.341 . S
C757 C755 1.400 . S
C757 C756 1.387 . S
N758 Co749 2.022 . S
N758 C755 1.351 . S
N758 N759 1.365 . S
N759 C756 1.341 . S
N759 N758 1.365 . S
N759 H779 0.862 . S
C760 C755 1.501 . S
C760 H761 0.961 . S
C760 H762 0.961 . S
C760 H763 0.960 . S
H761 C760 0.961 . S
H762 C760 0.961 . S
H763 C760 0.960 . S
C764 N765 1.342 . S
C764 C768 1.401 . S
C764 C769 1.499 . S
N765 Co748 1.989 . S
N765 C764 1.342 . S
N765 N766 1.388 . S
N766 Co749 1.993 . S
N766 N765 1.388 . S
N766 C767 1.346 . S
C767 N766 1.346 . S
C767 C768 1.396 . S
C767 C777 1.510 . S
C768 C764 1.401 . S
C768 C767 1.396 . S
C769 C764 1.499 . S
C769 H770 0.959 . S
C769 H771 0.960 . S
C769 H772 0.961 . S
H770 C769 0.959 . S
H771 C769 0.960 . S
H772 C769 0.961 . S
O773 Co748 1.967 . S
O773 C781 1.258 . S
O774 Co749 1.941 . S
O774 C781 1.266 . S
H775 C777 0.959 . S
H776 C777 0.961 . S
C777 C767 1.510 . S
C777 H775 0.959 . S
C777 H776 0.961 . S
C777 H778 0.960 . S
H778 C777 0.960 . S
H779 N759 0.862 . S
O780 Co748 1.920 1_655 S
O780 C753 1.289 . S
C781 O773 1.258 . S
C781 O774 1.266 . S
Co782 O785 1.970 1_655 S
Co782 N799 1.989 . S
Co782 O807 1.967 . S
Co782 O814 1.920 1_665 S
Co783 O786 1.966 . S
Co783 N792 2.022 . S
Co783 N800 1.993 . S
Co783 O808 1.941 . S
C784 O785 1.258 . S
C784 O786 1.263 1_455 S
O785 Co782 1.970 1_455 S
O785 C784 1.258 . S
O786 Co783 1.966 . S
O786 C784 1.263 1_655 S
C787 O788 1.235 . S
C787 O814 1.289 . S
O788 C787 1.235 . S
C789 C791 1.400 . S
C789 N792 1.351 . S
C789 C794 1.501 . S
C790 C791 1.387 . S
C790 N793 1.341 . S
C791 C789 1.400 . S
C791 C790 1.387 . S
N792 Co783 2.022 . S
N792 C789 1.351 . S
N792 N793 1.365 . S
N793 C790 1.341 . S
N793 N792 1.365 . S
N793 H813 0.862 . S
C794 C789 1.501 . S
C794 H795 0.961 . S
C794 H796 0.961 . S
C794 H797 0.960 . S
H795 C794 0.961 . S
H796 C794 0.961 . S
H797 C794 0.960 . S
C798 N799 1.331 1_545 S
C798 C802 1.392 1_545 S
C798 C803 1.517 . S
N799 Co782 1.989 . S
N799 C798 1.331 1_565 S
N799 N800 1.388 . S
N800 Co783 1.993 . S
N800 N799 1.388 . S
N800 C801 1.346 . S
C801 N800 1.346 . S
C801 C802 1.396 . S
C801 C811 1.510 . S
C802 C798 1.392 1_565 S
C802 C801 1.396 . S
C803 C798 1.517 . S
C803 H804 0.959 . S
C803 H805 0.960 . S
C803 H806 0.961 . S
H804 C803 0.959 . S
H805 C803 0.960 . S
H806 C803 0.961 . S
O807 Co782 1.967 . S
O807 C815 1.258 . S
O808 Co783 1.941 . S
O808 C815 1.266 . S
H809 C811 0.959 . S
H810 C811 0.961 . S
C811 C801 1.510 . S
C811 H809 0.959 . S
C811 H810 0.961 . S
C811 H812 0.960 . S
H812 C811 0.960 . S
H813 N793 0.862 . S
O814 Co782 1.920 1_445 S
O814 C787 1.289 . S
C815 O807 1.258 . S
C815 O808 1.266 . S
Co816 O819 1.970 . S
Co816 N833 1.989 . S
Co816 O841 1.967 . S
Co816 O848 1.920 . S
Co817 O820 1.966 . S
Co817 N826 2.022 . S
Co817 N834 1.993 . S
Co817 O842 1.941 . S
C818 O819 1.258 . S
C818 O820 1.263 . S
O819 Co816 1.970 . S
O819 C818 1.258 . S
O820 Co817 1.966 . S
O820 C818 1.263 . S
C821 O822 1.235 . S
C821 O848 1.289 . S
O822 C821 1.235 . S
C823 C825 1.400 . S
C823 N826 1.351 . S
C823 C828 1.501 . S
C824 C825 1.387 . S
C824 N827 1.341 . S
C825 C823 1.400 . S
C825 C824 1.387 . S
N826 Co817 2.022 . S
N826 C823 1.351 . S
N826 N827 1.365 . S
N827 C824 1.341 . S
N827 N826 1.365 . S
N827 H847 0.862 . S
C828 C823 1.501 . S
C828 H829 0.961 . S
C828 H830 0.961 . S
C828 H831 0.960 . S
H829 C828 0.961 . S
H830 C828 0.961 . S
H831 C828 0.960 . S
C832 N833 1.342 . S
C832 C836 1.401 . S
C832 C837 1.499 . S
N833 Co816 1.989 . S
N833 C832 1.342 . S
N833 N834 1.388 . S
N834 Co817 1.993 . S
N834 N833 1.388 . S
N834 C835 1.346 . S
C835 N834 1.346 . S
C835 C836 1.396 . S
C835 C845 1.510 . S
C836 C832 1.401 . S
C836 C835 1.396 . S
C837 C832 1.499 . S
C837 H838 0.959 . S
C837 H839 0.960 . S
C837 H840 0.961 . S
H838 C837 0.959 . S
H839 C837 0.960 . S
H840 C837 0.961 . S
O841 Co816 1.967 . S
O841 C849 1.258 . S
O842 Co817 1.941 . S
O842 C849 1.266 . S
H843 C845 0.959 . S
H844 C845 0.961 . S
C845 C835 1.510 . S
C845 H843 0.959 . S
C845 H844 0.961 . S
C845 H846 0.960 . S
H846 C845 0.960 . S
H847 N827 0.862 . S
O848 Co816 1.920 . S
O848 C821 1.289 . S
C849 O841 1.258 . S
C849 O842 1.266 . S
Co850 O853 1.970 . S
Co850 N867 1.989 . S
Co850 O875 1.967 . S
Co850 O882 1.920 1_455 S
Co851 O854 1.966 . S
Co851 N860 2.022 . S
Co851 N868 1.993 . S
Co851 O876 1.941 . S
C852 O853 1.258 . S
C852 O854 1.263 . S
O853 Co850 1.970 . S
O853 C852 1.258 . S
O854 Co851 1.966 . S
O854 C852 1.263 . S
C855 O856 1.235 . S
C855 O882 1.289 . S
O856 C855 1.235 . S
C857 C859 1.400 . S
C857 N860 1.351 . S
C857 C862 1.501 . S
C858 C859 1.387 . S
C858 N861 1.341 . S
C859 C857 1.400 . S
C859 C858 1.387 . S
N860 Co851 2.022 . S
N860 C857 1.351 . S
N860 N861 1.365 . S
N861 C858 1.341 . S
N861 N860 1.365 . S
N861 H881 0.862 . S
C862 C857 1.501 . S
C862 H863 0.961 . S
C862 H864 0.961 . S
C862 H865 0.960 . S
H863 C862 0.961 . S
H864 C862 0.961 . S
H865 C862 0.960 . S
C866 N867 1.331 1_655 S
C866 C870 1.392 1_655 S
C866 C871 1.517 . S
N867 Co850 1.989 . S
N867 C866 1.331 1_455 S
N867 N868 1.388 . S
N868 Co851 1.993 . S
N868 N867 1.388 . S
N868 C869 1.346 . S
C869 N868 1.346 . S
C869 C870 1.396 . S
C869 C879 1.510 . S
C870 C866 1.392 1_455 S
C870 C869 1.396 . S
C871 C866 1.517 . S
C871 H872 0.959 . S
C871 H873 0.960 . S
C871 H874 0.961 . S
H872 C871 0.959 . S
H873 C871 0.960 . S
H874 C871 0.961 . S
O875 Co850 1.967 . S
O875 C883 1.258 . S
O876 Co851 1.941 . S
O876 C883 1.266 . S
H877 C879 0.959 . S
H878 C879 0.961 . S
C879 C869 1.510 . S
C879 H877 0.959 . S
C879 H878 0.961 . S
C879 H880 0.960 . S
H880 C879 0.960 . S
H881 N861 0.862 . S
O882 Co850 1.920 1_655 S
O882 C855 1.289 . S
C883 O875 1.258 . S
C883 O876 1.266 . S
Co884 O887 1.970 . S
Co884 N901 1.989 . S
Co884 O909 1.967 . S
Co884 O916 1.920 . S
Co885 O888 1.966 . S
Co885 N894 2.022 . S
Co885 N902 1.993 . S
Co885 O910 1.941 . S
C886 O887 1.258 . S
C886 O888 1.263 . S
O887 Co884 1.970 . S
O887 C886 1.258 . S
O888 Co885 1.966 . S
O888 C886 1.263 . S
C889 O890 1.235 . S
C889 O916 1.289 . S
O890 C889 1.235 . S
C891 C893 1.400 . S
C891 N894 1.351 . S
C891 C896 1.501 . S
C892 C893 1.387 . S
C892 N895 1.341 . S
C893 C891 1.400 . S
C893 C892 1.387 . S
N894 Co885 2.022 . S
N894 C891 1.351 . S
N894 N895 1.365 . S
N895 C892 1.341 . S
N895 N894 1.365 . S
N895 H915 0.862 . S
C896 C891 1.501 . S
C896 H897 0.961 . S
C896 H898 0.961 . S
C896 H899 0.960 . S
H897 C896 0.961 . S
H898 C896 0.961 . S
H899 C896 0.960 . S
C900 N901 1.342 . S
C900 C904 1.401 . S
C900 C905 1.499 . S
N901 Co884 1.989 . S
N901 C900 1.342 . S
N901 N902 1.388 . S
N902 Co885 1.993 . S
N902 N901 1.388 . S
N902 C903 1.346 . S
C903 N902 1.346 . S
C903 C904 1.396 . S
C903 C913 1.510 . S
C904 C900 1.401 . S
C904 C903 1.396 . S
C905 C900 1.499 . S
C905 H906 0.959 . S
C905 H907 0.960 . S
C905 H908 0.961 . S
H906 C905 0.959 . S
H907 C905 0.960 . S
H908 C905 0.961 . S
O909 Co884 1.967 . S
O909 C917 1.258 . S
O910 Co885 1.941 . S
O910 C917 1.266 . S
H911 C913 0.959 . S
H912 C913 0.961 . S
C913 C903 1.510 . S
C913 H911 0.959 . S
C913 H912 0.961 . S
C913 H914 0.960 . S
H914 C913 0.960 . S
H915 N895 0.862 . S
O916 Co884 1.920 . S
O916 C889 1.289 . S
C917 O909 1.258 . S
C917 O910 1.266 . S
Co918 O921 1.970 . S
Co918 N935 1.989 . S
Co918 O943 1.967 . S
Co918 O950 1.920 1_655 S
Co919 O922 1.966 . S
Co919 N928 2.022 . S
Co919 N936 1.993 . S
Co919 O944 1.941 . S
C920 O921 1.258 . S
C920 O922 1.263 . S
O921 Co918 1.970 . S
O921 C920 1.258 . S
O922 Co919 1.966 . S
O922 C920 1.263 . S
C923 O924 1.235 . S
C923 O950 1.289 . S
O924 C923 1.235 . S
C925 C927 1.400 . S
C925 N928 1.351 . S
C925 C930 1.501 . S
C926 C927 1.387 . S
C926 N929 1.341 . S
C927 C925 1.400 . S
C927 C926 1.387 . S
N928 Co919 2.022 . S
N928 C925 1.351 . S
N928 N929 1.365 . S
N929 C926 1.341 . S
N929 N928 1.365 . S
N929 H949 0.862 . S
C930 C925 1.501 . S
C930 H931 0.961 . S
C930 H932 0.961 . S
C930 H933 0.960 . S
H931 C930 0.961 . S
H932 C930 0.961 . S
H933 C930 0.960 . S
C934 N935 1.331 1_455 S
C934 C938 1.392 1_455 S
C934 C939 1.517 . S
N935 Co918 1.989 . S
N935 C934 1.331 1_655 S
N935 N936 1.388 . S
N936 Co919 1.993 . S
N936 N935 1.388 . S
N936 C937 1.346 . S
C937 N936 1.346 . S
C937 C938 1.396 . S
C937 C947 1.510 . S
C938 C934 1.392 1_655 S
C938 C937 1.396 . S
C939 C934 1.517 . S
C939 H940 0.959 . S
C939 H941 0.960 . S
C939 H942 0.961 . S
H940 C939 0.959 . S
H941 C939 0.960 . S
H942 C939 0.961 . S
O943 Co918 1.967 . S
O943 C951 1.258 . S
O944 Co919 1.941 . S
O944 C951 1.266 . S
H945 C947 0.959 . S
H946 C947 0.961 . S
C947 C937 1.510 . S
C947 H945 0.959 . S
C947 H946 0.961 . S
C947 H948 0.960 . S
H948 C947 0.960 . S
H949 N929 0.862 . S
O950 Co918 1.920 1_455 S
O950 C923 1.289 . S
C951 O943 1.258 . S
C951 O944 1.266 . S
Co952 O955 1.970 . S
Co952 N969 1.989 . S
Co952 O977 1.967 . S
Co952 O984 1.920 . S
Co953 O956 1.966 . S
Co953 N962 2.022 . S
Co953 N970 1.993 . S
Co953 O978 1.941 . S
C954 O955 1.258 . S
C954 O956 1.263 . S
O955 Co952 1.970 . S
O955 C954 1.258 . S
O956 Co953 1.966 . S
O956 C954 1.263 . S
C957 O958 1.235 . S
C957 O984 1.289 . S
O958 C957 1.235 . S
C959 C961 1.400 . S
C959 N962 1.351 . S
C959 C964 1.501 . S
C960 C961 1.387 . S
C960 N963 1.341 . S
C961 C959 1.400 . S
C961 C960 1.387 . S
N962 Co953 2.022 . S
N962 C959 1.351 . S
N962 N963 1.365 . S
N963 C960 1.341 . S
N963 N962 1.365 . S
N963 H983 0.862 . S
C964 C959 1.501 . S
C964 H965 0.961 . S
C964 H966 0.961 . S
C964 H967 0.960 . S
H965 C964 0.961 . S
H966 C964 0.961 . S
H967 C964 0.960 . S
C968 N969 1.342 . S
C968 C972 1.401 . S
C968 C973 1.499 . S
N969 Co952 1.989 . S
N969 C968 1.342 . S
N969 N970 1.388 . S
N970 Co953 1.993 . S
N970 N969 1.388 . S
N970 C971 1.346 . S
C971 N970 1.346 . S
C971 C972 1.396 . S
C971 C981 1.510 . S
C972 C968 1.401 . S
C972 C971 1.396 . S
C973 C968 1.499 . S
C973 H974 0.959 . S
C973 H975 0.960 . S
C973 H976 0.961 . S
H974 C973 0.959 . S
H975 C973 0.960 . S
H976 C973 0.961 . S
O977 Co952 1.967 . S
O977 C985 1.258 . S
O978 Co953 1.941 . S
O978 C985 1.266 . S
H979 C981 0.959 . S
H980 C981 0.961 . S
C981 C971 1.510 . S
C981 H979 0.959 . S
C981 H980 0.961 . S
C981 H982 0.960 . S
H982 C981 0.960 . S
H983 N963 0.862 . S
O984 Co952 1.920 . S
O984 C957 1.289 . S
C985 O977 1.258 . S
C985 O978 1.266 . S
Co986 O989 1.970 . S
Co986 N1003 1.989 . S
Co986 O1011 1.967 . S
Co986 O1018 1.920 . S
Co987 O990 1.966 . S
Co987 N996 2.022 . S
Co987 N1004 1.993 . S
Co987 O1012 1.941 . S
C988 O989 1.258 . S
C988 O990 1.263 . S
O989 Co986 1.970 . S
O989 C988 1.258 . S
O990 Co987 1.966 . S
O990 C988 1.263 . S
C991 O992 1.235 . S
C991 O1018 1.289 . S
O992 C991 1.235 . S
C993 C995 1.400 . S
C993 N996 1.351 . S
C993 C998 1.501 . S
C994 C995 1.387 . S
C994 N997 1.341 . S
C995 C993 1.400 . S
C995 C994 1.387 . S
N996 Co987 2.022 . S
N996 C993 1.351 . S
N996 N997 1.365 . S
N997 C994 1.341 . S
N997 N996 1.365 . S
N997 H1017 0.862 . S
C998 C993 1.501 . S
C998 H999 0.961 . S
C998 H1000 0.961 . S
C998 H1001 0.960 . S
H999 C998 0.961 . S
H1000 C998 0.961 . S
H1001 C998 0.960 . S
C1002 N1003 1.342 . S
C1002 C1006 1.401 . S
C1002 C1007 1.499 . S
N1003 Co986 1.989 . S
N1003 C1002 1.342 . S
N1003 N1004 1.388 . S
N1004 Co987 1.993 . S
N1004 N1003 1.388 . S
N1004 C1005 1.346 . S
C1005 N1004 1.346 . S
C1005 C1006 1.396 . S
C1005 C1015 1.510 . S
C1006 C1002 1.401 . S
C1006 C1005 1.396 . S
C1007 C1002 1.499 . S
C1007 H1008 0.959 . S
C1007 H1009 0.960 . S
C1007 H1010 0.961 . S
H1008 C1007 0.959 . S
H1009 C1007 0.960 . S
H1010 C1007 0.961 . S
O1011 Co986 1.967 . S
O1011 C1019 1.258 . S
O1012 Co987 1.941 . S
O1012 C1019 1.266 . S
H1013 C1015 0.959 . S
H1014 C1015 0.961 . S
C1015 C1005 1.510 . S
C1015 H1013 0.959 . S
C1015 H1014 0.961 . S
C1015 H1016 0.960 . S
H1016 C1015 0.960 . S
H1017 N997 0.862 . S
O1018 Co986 1.920 . S
O1018 C991 1.289 . S
C1019 O1011 1.258 . S
C1019 O1012 1.266 . S
Co1020 O1023 1.970 . S
Co1020 N1037 1.989 . S
Co1020 O1045 1.967 . S
Co1020 O1052 1.920 . S
Co1021 O1024 1.966 . S
Co1021 N1030 2.022 . S
Co1021 N1038 1.993 . S
Co1021 O1046 1.941 . S
C1022 O1023 1.258 . S
C1022 O1024 1.263 . S
O1023 Co1020 1.970 . S
O1023 C1022 1.258 . S
O1024 Co1021 1.966 . S
O1024 C1022 1.263 . S
C1025 O1026 1.235 . S
C1025 O1052 1.289 . S
O1026 C1025 1.235 . S
C1027 C1029 1.400 . S
C1027 N1030 1.351 . S
C1027 C1032 1.501 . S
C1028 C1029 1.387 . S
C1028 N1031 1.341 . S
C1029 C1027 1.400 . S
C1029 C1028 1.387 . S
N1030 Co1021 2.022 . S
N1030 C1027 1.351 . S
N1030 N1031 1.365 . S
N1031 C1028 1.341 . S
N1031 N1030 1.365 . S
N1031 H1051 0.862 . S
C1032 C1027 1.501 . S
C1032 H1033 0.961 . S
C1032 H1034 0.961 . S
C1032 H1035 0.960 . S
H1033 C1032 0.961 . S
H1034 C1032 0.961 . S
H1035 C1032 0.960 . S
C1036 N1037 1.342 . S
C1036 C1040 1.401 . S
C1036 C1041 1.499 . S
N1037 Co1020 1.989 . S
N1037 C1036 1.342 . S
N1037 N1038 1.388 . S
N1038 Co1021 1.993 . S
N1038 N1037 1.388 . S
N1038 C1039 1.346 . S
C1039 N1038 1.346 . S
C1039 C1040 1.396 . S
C1039 C1049 1.510 . S
C1040 C1036 1.401 . S
C1040 C1039 1.396 . S
C1041 C1036 1.499 . S
C1041 H1042 0.959 . S
C1041 H1043 0.960 . S
C1041 H1044 0.961 . S
H1042 C1041 0.959 . S
H1043 C1041 0.960 . S
H1044 C1041 0.961 . S
O1045 Co1020 1.967 . S
O1045 C1053 1.258 . S
O1046 Co1021 1.941 . S
O1046 C1053 1.266 . S
H1047 C1049 0.959 . S
H1048 C1049 0.961 . S
C1049 C1039 1.510 . S
C1049 H1047 0.959 . S
C1049 H1048 0.961 . S
C1049 H1050 0.960 . S
H1050 C1049 0.960 . S
H1051 N1031 0.862 . S
O1052 Co1020 1.920 . S
O1052 C1025 1.289 . S
C1053 O1045 1.258 . S
C1053 O1046 1.266 . S
Co1054 O1057 1.970 . S
Co1054 N1071 1.989 . S
Co1054 O1079 1.967 . S
Co1054 O1086 1.920 . S
Co1055 O1058 1.966 . S
Co1055 N1064 2.022 . S
Co1055 N1072 1.993 . S
Co1055 O1080 1.941 . S
C1056 O1057 1.258 . S
C1056 O1058 1.263 . S
O1057 Co1054 1.970 . S
O1057 C1056 1.258 . S
O1058 Co1055 1.966 . S
O1058 C1056 1.263 . S
C1059 O1060 1.235 . S
C1059 O1086 1.289 . S
O1060 C1059 1.235 . S
C1061 C1063 1.400 . S
C1061 N1064 1.351 . S
C1061 C1066 1.501 . S
C1062 C1063 1.387 . S
C1062 N1065 1.341 . S
C1063 C1061 1.400 . S
C1063 C1062 1.387 . S
N1064 Co1055 2.022 . S
N1064 C1061 1.351 . S
N1064 N1065 1.365 . S
N1065 C1062 1.341 . S
N1065 N1064 1.365 . S
N1065 H1085 0.862 . S
C1066 C1061 1.501 . S
C1066 H1067 0.961 . S
C1066 H1068 0.961 . S
C1066 H1069 0.960 . S
H1067 C1066 0.961 . S
H1068 C1066 0.961 . S
H1069 C1066 0.960 . S
C1070 N1071 1.342 . S
C1070 C1074 1.401 . S
C1070 C1075 1.499 . S
N1071 Co1054 1.989 . S
N1071 C1070 1.342 . S
N1071 N1072 1.388 . S
N1072 Co1055 1.993 . S
N1072 N1071 1.388 . S
N1072 C1073 1.346 . S
C1073 N1072 1.346 . S
C1073 C1074 1.396 . S
C1073 C1083 1.510 . S
C1074 C1070 1.401 . S
C1074 C1073 1.396 . S
C1075 C1070 1.499 . S
C1075 H1076 0.959 . S
C1075 H1077 0.960 . S
C1075 H1078 0.961 . S
H1076 C1075 0.959 . S
H1077 C1075 0.960 . S
H1078 C1075 0.961 . S
O1079 Co1054 1.967 . S
O1079 C1087 1.258 . S
O1080 Co1055 1.941 . S
O1080 C1087 1.266 . S
H1081 C1083 0.959 . S
H1082 C1083 0.961 . S
C1083 C1073 1.510 . S
C1083 H1081 0.959 . S
C1083 H1082 0.961 . S
C1083 H1084 0.960 . S
H1084 C1083 0.960 . S
H1085 N1065 0.862 . S
O1086 Co1054 1.920 . S
O1086 C1059 1.289 . S
C1087 O1079 1.258 . S
C1087 O1080 1.266 . S
Co1088 O1091 1.970 . S
Co1088 N1105 1.989 . S
Co1088 O1113 1.967 . S
Co1088 O1120 1.920 . S
Co1089 O1092 1.966 . S
Co1089 N1098 2.022 . S
Co1089 N1106 1.993 . S
Co1089 O1114 1.941 . S
C1090 O1091 1.258 . S
C1090 O1092 1.263 . S
O1091 Co1088 1.970 . S
O1091 C1090 1.258 . S
O1092 Co1089 1.966 . S
O1092 C1090 1.263 . S
C1093 O1094 1.235 . S
C1093 O1120 1.289 . S
O1094 C1093 1.235 . S
C1095 C1097 1.400 . S
C1095 N1098 1.351 . S
C1095 C1100 1.501 . S
C1096 C1097 1.387 . S
C1096 N1099 1.341 . S
C1097 C1095 1.400 . S
C1097 C1096 1.387 . S
N1098 Co1089 2.022 . S
N1098 C1095 1.351 . S
N1098 N1099 1.365 . S
N1099 C1096 1.341 . S
N1099 N1098 1.365 . S
N1099 H1119 0.862 . S
C1100 C1095 1.501 . S
C1100 H1101 0.961 . S
C1100 H1102 0.961 . S
C1100 H1103 0.960 . S
H1101 C1100 0.961 . S
H1102 C1100 0.961 . S
H1103 C1100 0.960 . S
C1104 N1105 1.342 . S
C1104 C1108 1.401 . S
C1104 C1109 1.499 . S
N1105 Co1088 1.989 . S
N1105 C1104 1.342 . S
N1105 N1106 1.388 . S
N1106 Co1089 1.993 . S
N1106 N1105 1.388 . S
N1106 C1107 1.346 . S
C1107 N1106 1.346 . S
C1107 C1108 1.396 . S
C1107 C1117 1.510 . S
C1108 C1104 1.401 . S
C1108 C1107 1.396 . S
C1109 C1104 1.499 . S
C1109 H1110 0.959 . S
C1109 H1111 0.960 . S
C1109 H1112 0.961 . S
H1110 C1109 0.959 . S
H1111 C1109 0.960 . S
H1112 C1109 0.961 . S
O1113 Co1088 1.967 . S
O1113 C1121 1.258 . S
O1114 Co1089 1.941 . S
O1114 C1121 1.266 . S
H1115 C1117 0.959 . S
H1116 C1117 0.961 . S
C1117 C1107 1.510 . S
C1117 H1115 0.959 . S
C1117 H1116 0.961 . S
C1117 H1118 0.960 . S
H1118 C1117 0.960 . S
H1119 N1099 0.862 . S
O1120 Co1088 1.920 . S
O1120 C1093 1.289 . S
C1121 O1113 1.258 . S
C1121 O1114 1.266 . S
Co1122 O1125 1.970 1_545 S
Co1122 N1139 1.989 . S
Co1122 O1147 1.967 . S
Co1122 O1154 1.920 1_545 S
Co1123 O1126 1.966 . S
Co1123 N1132 2.022 . S
Co1123 N1140 1.993 . S
Co1123 O1148 1.941 . S
C1124 O1125 1.258 . S
C1124 O1126 1.263 1_565 S
O1125 Co1122 1.970 1_565 S
O1125 C1124 1.258 . S
O1126 Co1123 1.966 . S
O1126 C1124 1.263 1_545 S
C1127 O1128 1.235 . S
C1127 O1154 1.289 . S
O1128 C1127 1.235 . S
C1129 C1131 1.400 . S
C1129 N1132 1.351 . S
C1129 C1134 1.501 . S
C1130 C1131 1.387 . S
C1130 N1133 1.341 . S
C1131 C1129 1.400 . S
C1131 C1130 1.387 . S
N1132 Co1123 2.022 . S
N1132 C1129 1.351 . S
N1132 N1133 1.365 . S
N1133 C1130 1.341 . S
N1133 N1132 1.365 . S
N1133 H1153 0.862 . S
C1134 C1129 1.501 . S
C1134 H1135 0.961 . S
C1134 H1136 0.961 . S
C1134 H1137 0.960 . S
H1135 C1134 0.961 . S
H1136 C1134 0.961 . S
H1137 C1134 0.960 . S
C1138 N1139 1.342 . S
C1138 C1142 1.401 . S
C1138 C1143 1.499 . S
N1139 Co1122 1.989 . S
N1139 C1138 1.342 . S
N1139 N1140 1.388 . S
N1140 Co1123 1.993 . S
N1140 N1139 1.388 . S
N1140 C1141 1.346 . S
C1141 N1140 1.346 . S
C1141 C1142 1.396 . S
C1141 C1151 1.510 . S
C1142 C1138 1.401 . S
C1142 C1141 1.396 . S
C1143 C1138 1.499 . S
C1143 H1144 0.959 . S
C1143 H1145 0.960 . S
C1143 H1146 0.961 . S
H1144 C1143 0.959 . S
H1145 C1143 0.960 . S
H1146 C1143 0.961 . S
O1147 Co1122 1.967 . S
O1147 C1155 1.258 . S
O1148 Co1123 1.941 . S
O1148 C1155 1.266 . S
H1149 C1151 0.959 . S
H1150 C1151 0.961 . S
C1151 C1141 1.510 . S
C1151 H1149 0.959 . S
C1151 H1150 0.961 . S
C1151 H1152 0.960 . S
H1152 C1151 0.960 . S
H1153 N1133 0.862 . S
O1154 Co1122 1.920 1_565 S
O1154 C1127 1.289 . S
C1155 O1147 1.258 . S
C1155 O1148 1.266 . S
Co1156 O1159 1.970 . S
Co1156 N1173 1.989 . S
Co1156 O1181 1.967 . S
Co1156 O1188 1.920 . S
Co1157 O1160 1.966 . S
Co1157 N1166 2.022 . S
Co1157 N1174 1.993 . S
Co1157 O1182 1.941 . S
C1158 O1159 1.258 . S
C1158 O1160 1.263 . S
O1159 Co1156 1.970 . S
O1159 C1158 1.258 . S
O1160 Co1157 1.966 . S
O1160 C1158 1.263 . S
C1161 O1162 1.235 . S
C1161 O1188 1.289 . S
O1162 C1161 1.235 . S
C1163 C1165 1.400 . S
C1163 N1166 1.351 . S
C1163 C1168 1.501 . S
C1164 C1165 1.387 . S
C1164 N1167 1.341 . S
C1165 C1163 1.400 . S
C1165 C1164 1.387 . S
N1166 Co1157 2.022 . S
N1166 C1163 1.351 . S
N1166 N1167 1.365 . S
N1167 C1164 1.341 . S
N1167 N1166 1.365 . S
N1167 H1187 0.862 . S
C1168 C1163 1.501 . S
C1168 H1169 0.961 . S
C1168 H1170 0.961 . S
C1168 H1171 0.960 . S
H1169 C1168 0.961 . S
H1170 C1168 0.961 . S
H1171 C1168 0.960 . S
C1172 N1173 1.342 . S
C1172 C1176 1.401 . S
C1172 C1177 1.499 . S
N1173 Co1156 1.989 . S
N1173 C1172 1.342 . S
N1173 N1174 1.388 . S
N1174 Co1157 1.993 . S
N1174 N1173 1.388 . S
N1174 C1175 1.346 . S
C1175 N1174 1.346 . S
C1175 C1176 1.396 . S
C1175 C1185 1.510 . S
C1176 C1172 1.401 . S
C1176 C1175 1.396 . S
C1177 C1172 1.499 . S
C1177 H1178 0.959 . S
C1177 H1179 0.960 . S
C1177 H1180 0.961 . S
H1178 C1177 0.959 . S
H1179 C1177 0.960 . S
H1180 C1177 0.961 . S
O1181 Co1156 1.967 . S
O1181 C1189 1.258 . S
O1182 Co1157 1.941 . S
O1182 C1189 1.266 . S
H1183 C1185 0.959 . S
H1184 C1185 0.961 . S
C1185 C1175 1.510 . S
C1185 H1183 0.959 . S
C1185 H1184 0.961 . S
C1185 H1186 0.960 . S
H1186 C1185 0.960 . S
H1187 N1167 0.862 . S
O1188 Co1156 1.920 . S
O1188 C1161 1.289 . S
C1189 O1181 1.258 . S
C1189 O1182 1.266 . S
Co1190 O1193 1.970 . S
Co1190 N1207 1.989 . S
Co1190 O1215 1.967 . S
Co1190 O1222 1.920 . S
Co1191 O1194 1.966 . S
Co1191 N1200 2.022 . S
Co1191 N1208 1.993 . S
Co1191 O1216 1.941 . S
C1192 O1193 1.258 . S
C1192 O1194 1.263 . S
O1193 Co1190 1.970 . S
O1193 C1192 1.258 . S
O1194 Co1191 1.966 . S
O1194 C1192 1.263 . S
C1195 O1196 1.235 . S
C1195 O1222 1.289 . S
O1196 C1195 1.235 . S
C1197 C1199 1.400 . S
C1197 N1200 1.351 . S
C1197 C1202 1.501 . S
C1198 C1199 1.387 . S
C1198 N1201 1.341 . S
C1199 C1197 1.400 . S
C1199 C1198 1.387 . S
N1200 Co1191 2.022 . S
N1200 C1197 1.351 . S
N1200 N1201 1.365 . S
N1201 C1198 1.341 . S
N1201 N1200 1.365 . S
N1201 H1221 0.862 . S
C1202 C1197 1.501 . S
C1202 H1203 0.961 . S
C1202 H1204 0.961 . S
C1202 H1205 0.960 . S
H1203 C1202 0.961 . S
H1204 C1202 0.961 . S
H1205 C1202 0.960 . S
C1206 N1207 1.342 . S
C1206 C1210 1.401 . S
C1206 C1211 1.499 . S
N1207 Co1190 1.989 . S
N1207 C1206 1.342 . S
N1207 N1208 1.388 . S
N1208 Co1191 1.993 . S
N1208 N1207 1.388 . S
N1208 C1209 1.346 . S
C1209 N1208 1.346 . S
C1209 C1210 1.396 . S
C1209 C1219 1.510 . S
C1210 C1206 1.401 . S
C1210 C1209 1.396 . S
C1211 C1206 1.499 . S
C1211 H1212 0.959 . S
C1211 H1213 0.960 . S
C1211 H1214 0.961 . S
H1212 C1211 0.959 . S
H1213 C1211 0.960 . S
H1214 C1211 0.961 . S
O1215 Co1190 1.967 . S
O1215 C1223 1.258 . S
O1216 Co1191 1.941 . S
O1216 C1223 1.266 . S
H1217 C1219 0.959 . S
H1218 C1219 0.961 . S
C1219 C1209 1.510 . S
C1219 H1217 0.959 . S
C1219 H1218 0.961 . S
C1219 H1220 0.960 . S
H1220 C1219 0.960 . S
H1221 N1201 0.862 . S
O1222 Co1190 1.920 . S
O1222 C1195 1.289 . S
C1223 O1215 1.258 . S
C1223 O1216 1.266 . S
Co1224 O1227 1.970 . S
Co1224 N1241 1.989 . S
Co1224 O1249 1.967 . S
Co1224 O1256 1.920 . S
Co1225 O1228 1.966 . S
Co1225 N1234 2.022 . S
Co1225 N1242 1.993 . S
Co1225 O1250 1.941 . S
C1226 O1227 1.258 . S
C1226 O1228 1.263 . S
O1227 Co1224 1.970 . S
O1227 C1226 1.258 . S
O1228 Co1225 1.966 . S
O1228 C1226 1.263 . S
C1229 O1230 1.235 . S
C1229 O1256 1.289 . S
O1230 C1229 1.235 . S
C1231 C1233 1.400 . S
C1231 N1234 1.351 . S
C1231 C1236 1.501 . S
C1232 C1233 1.387 . S
C1232 N1235 1.341 . S
C1233 C1231 1.400 . S
C1233 C1232 1.387 . S
N1234 Co1225 2.022 . S
N1234 C1231 1.351 . S
N1234 N1235 1.365 . S
N1235 C1232 1.341 . S
N1235 N1234 1.365 . S
N1235 H1255 0.862 . S
C1236 C1231 1.501 . S
C1236 H1237 0.961 . S
C1236 H1238 0.961 . S
C1236 H1239 0.960 . S
H1237 C1236 0.961 . S
H1238 C1236 0.961 . S
H1239 C1236 0.960 . S
C1240 N1241 1.342 . S
C1240 C1244 1.401 . S
C1240 C1245 1.499 . S
N1241 Co1224 1.989 . S
N1241 C1240 1.342 . S
N1241 N1242 1.388 . S
N1242 Co1225 1.993 . S
N1242 N1241 1.388 . S
N1242 C1243 1.346 . S
C1243 N1242 1.346 . S
C1243 C1244 1.396 . S
C1243 C1253 1.510 . S
C1244 C1240 1.401 . S
C1244 C1243 1.396 . S
C1245 C1240 1.499 . S
C1245 H1246 0.959 . S
C1245 H1247 0.960 . S
C1245 H1248 0.961 . S
H1246 C1245 0.959 . S
H1247 C1245 0.960 . S
H1248 C1245 0.961 . S
O1249 Co1224 1.967 . S
O1249 C1257 1.258 . S
O1250 Co1225 1.941 . S
O1250 C1257 1.266 . S
H1251 C1253 0.959 . S
H1252 C1253 0.961 . S
C1253 C1243 1.510 . S
C1253 H1251 0.959 . S
C1253 H1252 0.961 . S
C1253 H1254 0.960 . S
H1254 C1253 0.960 . S
H1255 N1235 0.862 . S
O1256 Co1224 1.920 . S
O1256 C1229 1.289 . S
C1257 O1249 1.258 . S
C1257 O1250 1.266 . S
Co1258 O1261 1.970 1_545 S
Co1258 N1275 1.989 . S
Co1258 O1283 1.967 . S
Co1258 O1290 1.920 1_545 S
Co1259 O1262 1.966 . S
Co1259 N1268 2.022 . S
Co1259 N1276 1.993 . S
Co1259 O1284 1.941 . S
C1260 O1261 1.258 . S
C1260 O1262 1.263 1_565 S
O1261 Co1258 1.970 1_565 S
O1261 C1260 1.258 . S
O1262 Co1259 1.966 . S
O1262 C1260 1.263 1_545 S
C1263 O1264 1.235 . S
C1263 O1290 1.289 . S
O1264 C1263 1.235 . S
C1265 C1267 1.400 . S
C1265 N1268 1.351 . S
C1265 C1270 1.501 . S
C1266 C1267 1.387 . S
C1266 N1269 1.341 . S
C1267 C1265 1.400 . S
C1267 C1266 1.387 . S
N1268 Co1259 2.022 . S
N1268 C1265 1.351 . S
N1268 N1269 1.365 . S
N1269 C1266 1.341 . S
N1269 N1268 1.365 . S
N1269 H1289 0.862 . S
C1270 C1265 1.501 . S
C1270 H1271 0.961 . S
C1270 H1272 0.961 . S
C1270 H1273 0.960 . S
H1271 C1270 0.961 . S
H1272 C1270 0.961 . S
H1273 C1270 0.960 . S
C1274 N1275 1.342 . S
C1274 C1278 1.401 . S
C1274 C1279 1.499 . S
N1275 Co1258 1.989 . S
N1275 C1274 1.342 . S
N1275 N1276 1.388 . S
N1276 Co1259 1.993 . S
N1276 N1275 1.388 . S
N1276 C1277 1.346 . S
C1277 N1276 1.346 . S
C1277 C1278 1.396 . S
C1277 C1287 1.510 . S
C1278 C1274 1.401 . S
C1278 C1277 1.396 . S
C1279 C1274 1.499 . S
C1279 H1280 0.959 . S
C1279 H1281 0.960 . S
C1279 H1282 0.961 . S
H1280 C1279 0.959 . S
H1281 C1279 0.960 . S
H1282 C1279 0.961 . S
O1283 Co1258 1.967 . S
O1283 C1291 1.258 . S
O1284 Co1259 1.941 . S
O1284 C1291 1.266 . S
H1285 C1287 0.959 . S
H1286 C1287 0.961 . S
C1287 C1277 1.510 . S
C1287 H1285 0.959 . S
C1287 H1286 0.961 . S
C1287 H1288 0.960 . S
H1288 C1287 0.960 . S
H1289 N1269 0.862 . S
O1290 Co1258 1.920 1_565 S
O1290 C1263 1.289 . S
C1291 O1283 1.258 . S
C1291 O1284 1.266 . S
Co1292 O1295 1.970 . S
Co1292 N1309 1.989 . S
Co1292 O1317 1.967 . S
Co1292 O1324 1.920 . S
Co1293 O1296 1.966 . S
Co1293 N1302 2.022 . S
Co1293 N1310 1.993 . S
Co1293 O1318 1.941 . S
C1294 O1295 1.258 . S
C1294 O1296 1.263 . S
O1295 Co1292 1.970 . S
O1295 C1294 1.258 . S
O1296 Co1293 1.966 . S
O1296 C1294 1.263 . S
C1297 O1298 1.235 . S
C1297 O1324 1.289 . S
O1298 C1297 1.235 . S
C1299 C1301 1.400 . S
C1299 N1302 1.351 . S
C1299 C1304 1.501 . S
C1300 C1301 1.387 . S
C1300 N1303 1.341 . S
C1301 C1299 1.400 . S
C1301 C1300 1.387 . S
N1302 Co1293 2.022 . S
N1302 C1299 1.351 . S
N1302 N1303 1.365 . S
N1303 C1300 1.341 . S
N1303 N1302 1.365 . S
N1303 H1323 0.862 . S
C1304 C1299 1.501 . S
C1304 H1305 0.961 . S
C1304 H1306 0.961 . S
C1304 H1307 0.960 . S
H1305 C1304 0.961 . S
H1306 C1304 0.961 . S
H1307 C1304 0.960 . S
C1308 N1309 1.342 . S
C1308 C1312 1.401 . S
C1308 C1313 1.499 . S
N1309 Co1292 1.989 . S
N1309 C1308 1.342 . S
N1309 N1310 1.388 . S
N1310 Co1293 1.993 . S
N1310 N1309 1.388 . S
N1310 C1311 1.346 . S
C1311 N1310 1.346 . S
C1311 C1312 1.396 . S
C1311 C1321 1.510 . S
C1312 C1308 1.401 . S
C1312 C1311 1.396 . S
C1313 C1308 1.499 . S
C1313 H1314 0.959 . S
C1313 H1315 0.960 . S
C1313 H1316 0.961 . S
H1314 C1313 0.959 . S
H1315 C1313 0.960 . S
H1316 C1313 0.961 . S
O1317 Co1292 1.967 . S
O1317 C1325 1.258 . S
O1318 Co1293 1.941 . S
O1318 C1325 1.266 . S
H1319 C1321 0.959 . S
H1320 C1321 0.961 . S
C1321 C1311 1.510 . S
C1321 H1319 0.959 . S
C1321 H1320 0.961 . S
C1321 H1322 0.960 . S
H1322 C1321 0.960 . S
H1323 N1303 0.862 . S
O1324 Co1292 1.920 . S
O1324 C1297 1.289 . S
C1325 O1317 1.258 . S
C1325 O1318 1.266 . S
Co1326 O1329 1.970 . S
Co1326 N1343 1.989 . S
Co1326 O1351 1.967 . S
Co1326 O1358 1.920 . S
Co1327 O1330 1.966 . S
Co1327 N1336 2.022 . S
Co1327 N1344 1.993 . S
Co1327 O1352 1.941 . S
C1328 O1329 1.258 . S
C1328 O1330 1.263 . S
O1329 Co1326 1.970 . S
O1329 C1328 1.258 . S
O1330 Co1327 1.966 . S
O1330 C1328 1.263 . S
C1331 O1332 1.235 . S
C1331 O1358 1.289 . S
O1332 C1331 1.235 . S
C1333 C1335 1.400 . S
C1333 N1336 1.351 . S
C1333 C1338 1.501 . S
C1334 C1335 1.387 . S
C1334 N1337 1.341 . S
C1335 C1333 1.400 . S
C1335 C1334 1.387 . S
N1336 Co1327 2.022 . S
N1336 C1333 1.351 . S
N1336 N1337 1.365 . S
N1337 C1334 1.341 . S
N1337 N1336 1.365 . S
N1337 H1357 0.862 . S
C1338 C1333 1.501 . S
C1338 H1339 0.961 . S
C1338 H1340 0.961 . S
C1338 H1341 0.960 . S
H1339 C1338 0.961 . S
H1340 C1338 0.961 . S
H1341 C1338 0.960 . S
C1342 N1343 1.342 . S
C1342 C1346 1.401 . S
C1342 C1347 1.499 . S
N1343 Co1326 1.989 . S
N1343 C1342 1.342 . S
N1343 N1344 1.388 . S
N1344 Co1327 1.993 . S
N1344 N1343 1.388 . S
N1344 C1345 1.346 . S
C1345 N1344 1.346 . S
C1345 C1346 1.396 . S
C1345 C1355 1.510 . S
C1346 C1342 1.401 . S
C1346 C1345 1.396 . S
C1347 C1342 1.499 . S
C1347 H1348 0.959 . S
C1347 H1349 0.960 . S
C1347 H1350 0.961 . S
H1348 C1347 0.959 . S
H1349 C1347 0.960 . S
H1350 C1347 0.961 . S
O1351 Co1326 1.967 . S
O1351 C1359 1.258 . S
O1352 Co1327 1.941 . S
O1352 C1359 1.266 . S
H1353 C1355 0.959 . S
H1354 C1355 0.961 . S
C1355 C1345 1.510 . S
C1355 H1353 0.959 . S
C1355 H1354 0.961 . S
C1355 H1356 0.960 . S
H1356 C1355 0.960 . S
H1357 N1337 0.862 . S
O1358 Co1326 1.920 . S
O1358 C1331 1.289 . S
C1359 O1351 1.258 . S
C1359 O1352 1.266 . S
Co1360 O1363 1.970 . S
Co1360 N1377 1.989 . S
Co1360 O1385 1.967 . S
Co1360 O1392 1.920 . S
Co1361 O1364 1.966 . S
Co1361 N1370 2.022 . S
Co1361 N1378 1.993 . S
Co1361 O1386 1.941 . S
C1362 O1363 1.258 . S
C1362 O1364 1.263 . S
O1363 Co1360 1.970 . S
O1363 C1362 1.258 . S
O1364 Co1361 1.966 . S
O1364 C1362 1.263 . S
C1365 O1366 1.235 . S
C1365 O1392 1.289 . S
O1366 C1365 1.235 . S
C1367 C1369 1.400 . S
C1367 N1370 1.351 . S
C1367 C1372 1.501 . S
C1368 C1369 1.387 . S
C1368 N1371 1.341 . S
C1369 C1367 1.400 . S
C1369 C1368 1.387 . S
N1370 Co1361 2.022 . S
N1370 C1367 1.351 . S
N1370 N1371 1.365 . S
N1371 C1368 1.341 . S
N1371 N1370 1.365 . S
N1371 H1391 0.862 . S
C1372 C1367 1.501 . S
C1372 H1373 0.961 . S
C1372 H1374 0.961 . S
C1372 H1375 0.960 . S
H1373 C1372 0.961 . S
H1374 C1372 0.961 . S
H1375 C1372 0.960 . S
C1376 N1377 1.342 . S
C1376 C1380 1.401 . S
C1376 C1381 1.499 . S
N1377 Co1360 1.989 . S
N1377 C1376 1.342 . S
N1377 N1378 1.388 . S
N1378 Co1361 1.993 . S
N1378 N1377 1.388 . S
N1378 C1379 1.346 . S
C1379 N1378 1.346 . S
C1379 C1380 1.396 . S
C1379 C1389 1.510 . S
C1380 C1376 1.401 . S
C1380 C1379 1.396 . S
C1381 C1376 1.499 . S
C1381 H1382 0.959 . S
C1381 H1383 0.960 . S
C1381 H1384 0.961 . S
H1382 C1381 0.959 . S
H1383 C1381 0.960 . S
H1384 C1381 0.961 . S
O1385 Co1360 1.967 . S
O1385 C1393 1.258 . S
O1386 Co1361 1.941 . S
O1386 C1393 1.266 . S
H1387 C1389 0.959 . S
H1388 C1389 0.961 . S
C1389 C1379 1.510 . S
C1389 H1387 0.959 . S
C1389 H1388 0.961 . S
C1389 H1390 0.960 . S
H1390 C1389 0.960 . S
H1391 N1371 0.862 . S
O1392 Co1360 1.920 . S
O1392 C1365 1.289 . S
C1393 O1385 1.258 . S
C1393 O1386 1.266 . S
Co1394 O1397 1.970 . S
Co1394 N1411 1.989 . S
Co1394 O1419 1.967 . S
Co1394 O1426 1.920 . S
Co1395 O1398 1.966 . S
Co1395 N1404 2.022 . S
Co1395 N1412 1.993 . S
Co1395 O1420 1.941 . S
C1396 O1397 1.258 . S
C1396 O1398 1.263 . S
O1397 Co1394 1.970 . S
O1397 C1396 1.258 . S
O1398 Co1395 1.966 . S
O1398 C1396 1.263 . S
C1399 O1400 1.235 . S
C1399 O1426 1.289 . S
O1400 C1399 1.235 . S
C1401 C1403 1.400 . S
C1401 N1404 1.351 . S
C1401 C1406 1.501 . S
C1402 C1403 1.387 . S
C1402 N1405 1.341 . S
C1403 C1401 1.400 . S
C1403 C1402 1.387 . S
N1404 Co1395 2.022 . S
N1404 C1401 1.351 . S
N1404 N1405 1.365 . S
N1405 C1402 1.341 . S
N1405 N1404 1.365 . S
N1405 H1425 0.862 . S
C1406 C1401 1.501 . S
C1406 H1407 0.961 . S
C1406 H1408 0.961 . S
C1406 H1409 0.960 . S
H1407 C1406 0.961 . S
H1408 C1406 0.961 . S
H1409 C1406 0.960 . S
C1410 N1411 1.342 . S
C1410 C1414 1.401 . S
C1410 C1415 1.499 . S
N1411 Co1394 1.989 . S
N1411 C1410 1.342 . S
N1411 N1412 1.388 . S
N1412 Co1395 1.993 . S
N1412 N1411 1.388 . S
N1412 C1413 1.346 . S
C1413 N1412 1.346 . S
C1413 C1414 1.396 . S
C1413 C1423 1.510 . S
C1414 C1410 1.401 . S
C1414 C1413 1.396 . S
C1415 C1410 1.499 . S
C1415 H1416 0.959 . S
C1415 H1417 0.960 . S
C1415 H1418 0.961 . S
H1416 C1415 0.959 . S
H1417 C1415 0.960 . S
H1418 C1415 0.961 . S
O1419 Co1394 1.967 . S
O1419 C1427 1.258 . S
O1420 Co1395 1.941 . S
O1420 C1427 1.266 . S
H1421 C1423 0.959 . S
H1422 C1423 0.961 . S
C1423 C1413 1.510 . S
C1423 H1421 0.959 . S
C1423 H1422 0.961 . S
C1423 H1424 0.960 . S
H1424 C1423 0.960 . S
H1425 N1405 0.862 . S
O1426 Co1394 1.920 . S
O1426 C1399 1.289 . S
C1427 O1419 1.258 . S
C1427 O1420 1.266 . S
Co1428 O1431 1.970 . S
Co1428 N1445 1.989 . S
Co1428 O1453 1.967 . S
Co1428 O1460 1.920 1_565 S
Co1429 O1432 1.966 . S
Co1429 N1438 2.022 . S
Co1429 N1446 1.993 . S
Co1429 O1454 1.941 . S
C1430 O1431 1.258 . S
C1430 O1432 1.263 . S
O1431 Co1428 1.970 . S
O1431 C1430 1.258 . S
O1432 Co1429 1.966 . S
O1432 C1430 1.263 . S
C1433 O1434 1.235 . S
C1433 O1460 1.289 . S
O1434 C1433 1.235 . S
C1435 C1437 1.400 . S
C1435 N1438 1.351 . S
C1435 C1440 1.501 . S
C1436 C1437 1.387 . S
C1436 N1439 1.341 . S
C1437 C1435 1.400 . S
C1437 C1436 1.387 . S
N1438 Co1429 2.022 . S
N1438 C1435 1.351 . S
N1438 N1439 1.365 . S
N1439 C1436 1.341 . S
N1439 N1438 1.365 . S
N1439 H1459 0.862 . S
C1440 C1435 1.501 . S
C1440 H1441 0.961 . S
C1440 H1442 0.961 . S
C1440 H1443 0.960 . S
H1441 C1440 0.961 . S
H1442 C1440 0.961 . S
H1443 C1440 0.960 . S
C1444 N1445 1.331 1_545 S
C1444 C1448 1.392 1_545 S
C1444 C1449 1.517 . S
N1445 Co1428 1.989 . S
N1445 C1444 1.331 1_565 S
N1445 N1446 1.388 . S
N1446 Co1429 1.993 . S
N1446 N1445 1.388 . S
N1446 C1447 1.346 . S
C1447 N1446 1.346 . S
C1447 C1448 1.396 . S
C1447 C1457 1.510 . S
C1448 C1444 1.392 1_565 S
C1448 C1447 1.396 . S
C1449 C1444 1.517 . S
C1449 H1450 0.959 . S
C1449 H1451 0.960 . S
C1449 H1452 0.961 . S
H1450 C1449 0.959 . S
H1451 C1449 0.960 . S
H1452 C1449 0.961 . S
O1453 Co1428 1.967 . S
O1453 C1461 1.258 . S
O1454 Co1429 1.941 . S
O1454 C1461 1.266 . S
H1455 C1457 0.959 . S
H1456 C1457 0.961 . S
C1457 C1447 1.510 . S
C1457 H1455 0.959 . S
C1457 H1456 0.961 . S
C1457 H1458 0.960 . S
H1458 C1457 0.960 . S
H1459 N1439 0.862 . S
O1460 Co1428 1.920 1_545 S
O1460 C1433 1.289 . S
C1461 O1453 1.258 . S
C1461 O1454 1.266 . S
Co1462 O1465 1.970 . S
Co1462 N1479 1.989 . S
Co1462 O1487 1.967 . S
Co1462 O1494 1.920 . S
Co1463 O1466 1.966 . S
Co1463 N1472 2.022 . S
Co1463 N1480 1.993 . S
Co1463 O1488 1.941 . S
C1464 O1465 1.258 . S
C1464 O1466 1.263 . S
O1465 Co1462 1.970 . S
O1465 C1464 1.258 . S
O1466 Co1463 1.966 . S
O1466 C1464 1.263 . S
C1467 O1468 1.235 . S
C1467 O1494 1.289 . S
O1468 C1467 1.235 . S
C1469 C1471 1.400 . S
C1469 N1472 1.351 . S
C1469 C1474 1.501 . S
C1470 C1471 1.387 . S
C1470 N1473 1.341 . S
C1471 C1469 1.400 . S
C1471 C1470 1.387 . S
N1472 Co1463 2.022 . S
N1472 C1469 1.351 . S
N1472 N1473 1.365 . S
N1473 C1470 1.341 . S
N1473 N1472 1.365 . S
N1473 H1493 0.862 . S
C1474 C1469 1.501 . S
C1474 H1475 0.961 . S
C1474 H1476 0.961 . S
C1474 H1477 0.960 . S
H1475 C1474 0.961 . S
H1476 C1474 0.961 . S
H1477 C1474 0.960 . S
C1478 N1479 1.342 . S
C1478 C1482 1.401 . S
C1478 C1483 1.499 . S
N1479 Co1462 1.989 . S
N1479 C1478 1.342 . S
N1479 N1480 1.388 . S
N1480 Co1463 1.993 . S
N1480 N1479 1.388 . S
N1480 C1481 1.346 . S
C1481 N1480 1.346 . S
C1481 C1482 1.396 . S
C1481 C1491 1.510 . S
C1482 C1478 1.401 . S
C1482 C1481 1.396 . S
C1483 C1478 1.499 . S
C1483 H1484 0.959 . S
C1483 H1485 0.960 . S
C1483 H1486 0.961 . S
H1484 C1483 0.959 . S
H1485 C1483 0.960 . S
H1486 C1483 0.961 . S
O1487 Co1462 1.967 . S
O1487 C1495 1.258 . S
O1488 Co1463 1.941 . S
O1488 C1495 1.266 . S
H1489 C1491 0.959 . S
H1490 C1491 0.961 . S
C1491 C1481 1.510 . S
C1491 H1489 0.959 . S
C1491 H1490 0.961 . S
C1491 H1492 0.960 . S
H1492 C1491 0.960 . S
H1493 N1473 0.862 . S
O1494 Co1462 1.920 . S
O1494 C1467 1.289 . S
C1495 O1487 1.258 . S
C1495 O1488 1.266 . S
Co1496 O1499 1.970 1_655 S
Co1496 N1513 1.989 . S
Co1496 O1521 1.967 . S
Co1496 O1528 1.920 1_645 S
Co1497 O1500 1.966 . S
Co1497 N1506 2.022 . S
Co1497 N1514 1.993 . S
Co1497 O1522 1.941 . S
C1498 O1499 1.258 . S
C1498 O1500 1.263 1_455 S
O1499 Co1496 1.970 1_455 S
O1499 C1498 1.258 . S
O1500 Co1497 1.966 . S
O1500 C1498 1.263 1_655 S
C1501 O1502 1.235 . S
C1501 O1528 1.289 . S
O1502 C1501 1.235 . S
C1503 C1505 1.400 . S
C1503 N1506 1.351 . S
C1503 C1508 1.501 . S
C1504 C1505 1.387 . S
C1504 N1507 1.341 . S
C1505 C1503 1.400 . S
C1505 C1504 1.387 . S
N1506 Co1497 2.022 . S
N1506 C1503 1.351 . S
N1506 N1507 1.365 . S
N1507 C1504 1.341 . S
N1507 N1506 1.365 . S
N1507 H1527 0.862 . S
C1508 C1503 1.501 . S
C1508 H1509 0.961 . S
C1508 H1510 0.961 . S
C1508 H1511 0.960 . S
H1509 C1508 0.961 . S
H1510 C1508 0.961 . S
H1511 C1508 0.960 . S
C1512 N1513 1.331 1_565 S
C1512 C1516 1.392 1_565 S
C1512 C1517 1.517 . S
N1513 Co1496 1.989 . S
N1513 C1512 1.331 1_545 S
N1513 N1514 1.388 . S
N1514 Co1497 1.993 . S
N1514 N1513 1.388 . S
N1514 C1515 1.346 . S
C1515 N1514 1.346 . S
C1515 C1516 1.396 . S
C1515 C1525 1.510 . S
C1516 C1512 1.392 1_545 S
C1516 C1515 1.396 . S
C1517 C1512 1.517 . S
C1517 H1518 0.959 . S
C1517 H1519 0.960 . S
C1517 H1520 0.961 . S
H1518 C1517 0.959 . S
H1519 C1517 0.960 . S
H1520 C1517 0.961 . S
O1521 Co1496 1.967 . S
O1521 C1529 1.258 . S
O1522 Co1497 1.941 . S
O1522 C1529 1.266 . S
H1523 C1525 0.959 . S
H1524 C1525 0.961 . S
C1525 C1515 1.510 . S
C1525 H1523 0.959 . S
C1525 H1524 0.961 . S
C1525 H1526 0.960 . S
H1526 C1525 0.960 . S
H1527 N1507 0.862 . S
O1528 Co1496 1.920 1_465 S
O1528 C1501 1.289 . S
C1529 O1521 1.258 . S
C1529 O1522 1.266 . S
Co1530 O1533 1.970 . S
Co1530 N1547 1.989 . S
Co1530 O1555 1.967 . S
Co1530 O1562 1.920 . S
Co1531 O1534 1.966 . S
Co1531 N1540 2.022 . S
Co1531 N1548 1.993 . S
Co1531 O1556 1.941 . S
C1532 O1533 1.258 . S
C1532 O1534 1.263 . S
O1533 Co1530 1.970 . S
O1533 C1532 1.258 . S
O1534 Co1531 1.966 . S
O1534 C1532 1.263 . S
C1535 O1536 1.235 . S
C1535 O1562 1.289 . S
O1536 C1535 1.235 . S
C1537 C1539 1.400 . S
C1537 N1540 1.351 . S
C1537 C1542 1.501 . S
C1538 C1539 1.387 . S
C1538 N1541 1.341 . S
C1539 C1537 1.400 . S
C1539 C1538 1.387 . S
N1540 Co1531 2.022 . S
N1540 C1537 1.351 . S
N1540 N1541 1.365 . S
N1541 C1538 1.341 . S
N1541 N1540 1.365 . S
N1541 H1561 0.862 . S
C1542 C1537 1.501 . S
C1542 H1543 0.961 . S
C1542 H1544 0.961 . S
C1542 H1545 0.960 . S
H1543 C1542 0.961 . S
H1544 C1542 0.961 . S
H1545 C1542 0.960 . S
C1546 N1547 1.342 . S
C1546 C1550 1.401 . S
C1546 C1551 1.499 . S
N1547 Co1530 1.989 . S
N1547 C1546 1.342 . S
N1547 N1548 1.388 . S
N1548 Co1531 1.993 . S
N1548 N1547 1.388 . S
N1548 C1549 1.346 . S
C1549 N1548 1.346 . S
C1549 C1550 1.396 . S
C1549 C1559 1.510 . S
C1550 C1546 1.401 . S
C1550 C1549 1.396 . S
C1551 C1546 1.499 . S
C1551 H1552 0.959 . S
C1551 H1553 0.960 . S
C1551 H1554 0.961 . S
H1552 C1551 0.959 . S
H1553 C1551 0.960 . S
H1554 C1551 0.961 . S
O1555 Co1530 1.967 . S
O1555 C1563 1.258 . S
O1556 Co1531 1.941 . S
O1556 C1563 1.266 . S
H1557 C1559 0.959 . S
H1558 C1559 0.961 . S
C1559 C1549 1.510 . S
C1559 H1557 0.959 . S
C1559 H1558 0.961 . S
C1559 H1560 0.960 . S
H1560 C1559 0.960 . S
H1561 N1541 0.862 . S
O1562 Co1530 1.920 . S
O1562 C1535 1.289 . S
C1563 O1555 1.258 . S
C1563 O1556 1.266 . S
Co1564 O1567 1.970 . S
Co1564 N1581 1.989 . S
Co1564 O1589 1.967 . S
Co1564 O1596 1.920 1_545 S
Co1565 O1568 1.966 . S
Co1565 N1574 2.022 . S
Co1565 N1582 1.993 . S
Co1565 O1590 1.941 . S
C1566 O1567 1.258 . S
C1566 O1568 1.263 . S
O1567 Co1564 1.970 . S
O1567 C1566 1.258 . S
O1568 Co1565 1.966 . S
O1568 C1566 1.263 . S
C1569 O1570 1.235 . S
C1569 O1596 1.289 . S
O1570 C1569 1.235 . S
C1571 C1573 1.400 . S
C1571 N1574 1.351 . S
C1571 C1576 1.501 . S
C1572 C1573 1.387 . S
C1572 N1575 1.341 . S
C1573 C1571 1.400 . S
C1573 C1572 1.387 . S
N1574 Co1565 2.022 . S
N1574 C1571 1.351 . S
N1574 N1575 1.365 . S
N1575 C1572 1.341 . S
N1575 N1574 1.365 . S
N1575 H1595 0.862 . S
C1576 C1571 1.501 . S
C1576 H1577 0.961 . S
C1576 H1578 0.961 . S
C1576 H1579 0.960 . S
H1577 C1576 0.961 . S
H1578 C1576 0.961 . S
H1579 C1576 0.960 . S
C1580 N1581 1.331 1_565 S
C1580 C1584 1.392 1_565 S
C1580 C1585 1.517 . S
N1581 Co1564 1.989 . S
N1581 C1580 1.331 1_545 S
N1581 N1582 1.388 . S
N1582 Co1565 1.993 . S
N1582 N1581 1.388 . S
N1582 C1583 1.346 . S
C1583 N1582 1.346 . S
C1583 C1584 1.396 . S
C1583 C1593 1.510 . S
C1584 C1580 1.392 1_545 S
C1584 C1583 1.396 . S
C1585 C1580 1.517 . S
C1585 H1586 0.959 . S
C1585 H1587 0.960 . S
C1585 H1588 0.961 . S
H1586 C1585 0.959 . S
H1587 C1585 0.960 . S
H1588 C1585 0.961 . S
O1589 Co1564 1.967 . S
O1589 C1597 1.258 . S
O1590 Co1565 1.941 . S
O1590 C1597 1.266 . S
H1591 C1593 0.959 . S
H1592 C1593 0.961 . S
C1593 C1583 1.510 . S
C1593 H1591 0.959 . S
C1593 H1592 0.961 . S
C1593 H1594 0.960 . S
H1594 C1593 0.960 . S
H1595 N1575 0.862 . S
O1596 Co1564 1.920 1_565 S
O1596 C1569 1.289 . S
C1597 O1589 1.258 . S
C1597 O1590 1.266 . S
Co1598 O1601 1.970 . S
Co1598 N1615 1.989 . S
Co1598 O1623 1.967 . S
Co1598 O1630 1.920 . S
Co1599 O1602 1.966 . S
Co1599 N1608 2.022 . S
Co1599 N1616 1.993 . S
Co1599 O1624 1.941 . S
C1600 O1601 1.258 . S
C1600 O1602 1.263 . S
O1601 Co1598 1.970 . S
O1601 C1600 1.258 . S
O1602 Co1599 1.966 . S
O1602 C1600 1.263 . S
C1603 O1604 1.235 . S
C1603 O1630 1.289 . S
O1604 C1603 1.235 . S
C1605 C1607 1.400 . S
C1605 N1608 1.351 . S
C1605 C1610 1.501 . S
C1606 C1607 1.387 . S
C1606 N1609 1.341 . S
C1607 C1605 1.400 . S
C1607 C1606 1.387 . S
N1608 Co1599 2.022 . S
N1608 C1605 1.351 . S
N1608 N1609 1.365 . S
N1609 C1606 1.341 . S
N1609 N1608 1.365 . S
N1609 H1629 0.862 . S
C1610 C1605 1.501 . S
C1610 H1611 0.961 . S
C1610 H1612 0.961 . S
C1610 H1613 0.960 . S
H1611 C1610 0.961 . S
H1612 C1610 0.961 . S
H1613 C1610 0.960 . S
C1614 N1615 1.342 . S
C1614 C1618 1.401 . S
C1614 C1619 1.499 . S
N1615 Co1598 1.989 . S
N1615 C1614 1.342 . S
N1615 N1616 1.388 . S
N1616 Co1599 1.993 . S
N1616 N1615 1.388 . S
N1616 C1617 1.346 . S
C1617 N1616 1.346 . S
C1617 C1618 1.396 . S
C1617 C1627 1.510 . S
C1618 C1614 1.401 . S
C1618 C1617 1.396 . S
C1619 C1614 1.499 . S
C1619 H1620 0.959 . S
C1619 H1621 0.960 . S
C1619 H1622 0.961 . S
H1620 C1619 0.959 . S
H1621 C1619 0.960 . S
H1622 C1619 0.961 . S
O1623 Co1598 1.967 . S
O1623 C1631 1.258 . S
O1624 Co1599 1.941 . S
O1624 C1631 1.266 . S
H1625 C1627 0.959 . S
H1626 C1627 0.961 . S
C1627 C1617 1.510 . S
C1627 H1625 0.959 . S
C1627 H1626 0.961 . S
C1627 H1628 0.960 . S
H1628 C1627 0.960 . S
H1629 N1609 0.862 . S
O1630 Co1598 1.920 . S
O1630 C1603 1.289 . S
C1631 O1623 1.258 . S
C1631 O1624 1.266 . S
C292 C5 1.306 . S
C326 C39 1.306 . S
C73 C360 1.306 . S
C107 C394 1.306 . S
C141 C428 1.306 . S
C462 C175 1.306 . S
C496 C209 1.306 . S
C243 C530 1.306 . S
C277 C564 1.306 . S
C311 C1618 1.306 . S
C345 C1550 1.306 . S
C379 C1584 1.306 . S
C598 C413 1.306 . S
C632 C447 1.306 . S
C481 C666 1.306 . S
C515 C1516 1.306 . S
C549 C20 1.306 . S
C156 C583 1.306 . S
C617 C190 1.306 . S
C224 C651 1.306 . S
C685 C1074 1.306 . S
C719 C904 1.306 . S
C753 C938 1.306 . S
C787 C870 1.306 . S
C1108 C821 1.306 . S
C1142 C855 1.306 . S
C1176 C889 1.306 . S
C923 C1210 1.306 . S
C1244 C957 1.306 . S
C1278 C991 1.306 . S
C1025 C1312 1.306 . S
C1059 C1346 1.306 . S
C1093 C1380 1.306 . S
C802 C1127 1.306 . S
C734 C1161 1.306 . S
C1195 C768 1.306 . S
C1229 C1414 1.306 . S
C1263 C1448 1.306 . S
C1482 C1297 1.306 . S
C1331 C700 1.306 . S
C836 C1365 1.306 . S
C1399 C972 1.306 . S
C1433 C1006 1.306 . S
C1040 C1467 1.306 . S
C1501 C258 1.306 . S
C1535 C88 1.306 . S
C122 C1569 1.306 . S
C54 C1603 1.306 . S
C33 C101 2.693 1_455 S
C67 C135 2.693 . S
C237 C169 2.693 1_655 S
C203 C271 2.693 1_655 S
C441 C305 2.693 1_565 S
C339 C475 2.693 1_556 S
C509 C373 2.693 . S
C543 C407 2.693 1_554 S
C1495 C577 2.693 1_556 S
C611 C747 2.693 . S
C645 C781 2.693 . S
C679 C1393 2.693 . S
C1631 C713 2.693 . S
C1529 C815 2.693 1_545 S
C917 C849 2.693 . S
C951 C883 2.693 1_655 S
C1053 C985 2.693 . S
C1087 C1019 2.693 . S
C1121 C1257 2.693 . S
C1291 C1155 2.693 . S
C1189 C1325 2.693 1_565 S
C1359 C1223 2.693 . S
C1563 C1427 2.693 1_554 S
C1461 C1597 2.693 1_565 S
C444 C9 2.611 . S
C478 C43 2.611 . S
C77 C512 2.611 . S
C111 C410 2.611 . S
C145 C1192 2.611 . S
C1090 C179 2.611 . S
C1124 C213 2.611 . S
C247 C1158 2.611 . S
C281 C852 2.611 . S
C886 C315 2.611 . S
C920 C349 2.611 . S
C383 C818 2.611 . S
C417 C240 2.611 . S
C451 C138 2.611 . S
C172 C485 2.611 . S
C519 C206 2.611 . S
C1566 C553 2.611 . S
C587 C1430 2.611 . S
C1464 C621 2.611 . S
C655 C682 2.611 . S
C580 C689 2.611 . S
C723 C784 2.611 . S
C757 C716 2.611 . S
C1362 C791 2.611 . S
C1260 C825 2.611 . S
C1294 C859 2.611 . S
C893 C1328 2.611 . S
C927 C1226 2.611 . S
C376 C961 2.611 . S
C995 C274 2.611 . S
C1029 C308 2.611 . S
C1063 C342 2.611 . S
C1097 C36 2.611 . S
C1131 C70 2.611 . S
C1165 C104 2.611 . S
C1199 C2 2.611 . S
C1056 C1233 2.611 . S
C954 C1267 2.611 . S
C1301 C988 2.611 . S
C1335 C1022 2.611 . S
C750 C1369 2.611 . S
C1403 C614 2.611 . S
C648 C1437 2.611 . S
C1471 C1498 2.611 . S
C1396 C1505 2.611 . S
C1600 C1539 2.611 . S
C1532 C1573 2.611 . S
C1607 C546 2.611 . S
