# Generated by pormake.
# Topology lcy-a, (4)-cn, num edge types: 1
# Building blocks:
#     Node 0, Type 0, BuildingBlock: QUQFOY_clean_sbu_1, # of connection points: 4
#     Node 1, Type 0, BuildingBlock: QUQFOY_clean_sbu_1, # of connection points: 4
#     Node 2, Type 0, BuildingBlock: QUQFOY_clean_sbu_1, # of connection points: 4
#     Node 3, Type 0, BuildingBlock: QUQFOY_clean_sbu_1, # of connection points: 4
#     Node 4, Type 0, BuildingBlock: QUQFOY_clean_sbu_1, # of connection points: 4
#     Node 5, Type 0, BuildingBlock: QUQFOY_clean_sbu_1, # of connection points: 4
#     Node 6, Type 0, BuildingBlock: QUQFOY_clean_sbu_1, # of connection points: 4
#     Node 7, Type 0, BuildingBlock: QUQFOY_clean_sbu_1, # of connection points: 4
#     Node 8, Type 0, BuildingBlock: QUQFOY_clean_sbu_1, # of connection points: 4
#     Node 9, Type 0, BuildingBlock: QUQFOY_clean_sbu_1, # of connection points: 4
#     Node 10, Type 0, BuildingBlock: QUQFOY_clean_sbu_1, # of connection points: 4
#     Node 11, Type 0, BuildingBlock: QUQFOY_clean_sbu_1, # of connection points: 4
#     Node 12, Type 0, BuildingBlock: QUQFOY_clean_sbu_1, # of connection points: 4
#     Node 13, Type 0, BuildingBlock: QUQFOY_clean_sbu_1, # of connection points: 4
#     Node 14, Type 0, BuildingBlock: QUQFOY_clean_sbu_1, # of connection points: 4
#     Node 15, Type 0, BuildingBlock: QUQFOY_clean_sbu_1, # of connection points: 4
#     Node 16, Type 0, BuildingBlock: QUQFOY_clean_sbu_1, # of connection points: 4
#     Node 17, Type 0, BuildingBlock: QUQFOY_clean_sbu_1, # of connection points: 4
#     Node 18, Type 0, BuildingBlock: QUQFOY_clean_sbu_1, # of connection points: 4
#     Node 19, Type 0, BuildingBlock: QUQFOY_clean_sbu_1, # of connection points: 4
#     Node 20, Type 0, BuildingBlock: QUQFOY_clean_sbu_1, # of connection points: 4
#     Node 21, Type 0, BuildingBlock: QUQFOY_clean_sbu_1, # of connection points: 4
#     Node 22, Type 0, BuildingBlock: QUQFOY_clean_sbu_1, # of connection points: 4
#     Node 23, Type 0, BuildingBlock: QUQFOY_clean_sbu_1, # of connection points: 4
#     Edge 24, Type (0, 0), BuildingBlock: ZUJKAS_clean_linker_0, # of connection points: 2
#     Edge 25, Type (0, 0), BuildingBlock: ZUJKAS_clean_linker_0, # of connection points: 2
#     Edge 26, Type (0, 0), BuildingBlock: ZUJKAS_clean_linker_0, # of connection points: 2
#     Edge 27, Type (0, 0), BuildingBlock: ZUJKAS_clean_linker_0, # of connection points: 2
#     Edge 28, Type (0, 0), BuildingBlock: ZUJKAS_clean_linker_0, # of connection points: 2
#     Edge 29, Type (0, 0), BuildingBlock: ZUJKAS_clean_linker_0, # of connection points: 2
#     Edge 30, Type (0, 0), BuildingBlock: ZUJKAS_clean_linker_0, # of connection points: 2
#     Edge 31, Type (0, 0), BuildingBlock: ZUJKAS_clean_linker_0, # of connection points: 2
#     Edge 32, Type (0, 0), BuildingBlock: ZUJKAS_clean_linker_0, # of connection points: 2
#     Edge 33, Type (0, 0), BuildingBlock: ZUJKAS_clean_linker_0, # of connection points: 2
#     Edge 34, Type (0, 0), BuildingBlock: ZUJKAS_clean_linker_0, # of connection points: 2
#     Edge 35, Type (0, 0), BuildingBlock: ZUJKAS_clean_linker_0, # of connection points: 2
#     Edge 36, Type (0, 0), BuildingBlock: ZUJKAS_clean_linker_0, # of connection points: 2
#     Edge 37, Type (0, 0), BuildingBlock: ZUJKAS_clean_linker_0, # of connection points: 2
#     Edge 38, Type (0, 0), BuildingBlock: ZUJKAS_clean_linker_0, # of connection points: 2
#     Edge 39, Type (0, 0), BuildingBlock: ZUJKAS_clean_linker_0, # of connection points: 2
#     Edge 40, Type (0, 0), BuildingBlock: ZUJKAS_clean_linker_0, # of connection points: 2
#     Edge 41, Type (0, 0), BuildingBlock: ZUJKAS_clean_linker_0, # of connection points: 2
#     Edge 42, Type (0, 0), BuildingBlock: ZUJKAS_clean_linker_0, # of connection points: 2
#     Edge 43, Type (0, 0), BuildingBlock: ZUJKAS_clean_linker_0, # of connection points: 2
#     Edge 44, Type (0, 0), BuildingBlock: ZUJKAS_clean_linker_0, # of connection points: 2
#     Edge 45, Type (0, 0), BuildingBlock: ZUJKAS_clean_linker_0, # of connection points: 2
#     Edge 46, Type (0, 0), BuildingBlock: ZUJKAS_clean_linker_0, # of connection points: 2
#     Edge 47, Type (0, 0), BuildingBlock: ZUJKAS_clean_linker_0, # of connection points: 2
#     Edge 48, Type (0, 0), BuildingBlock: ZUJKAS_clean_linker_0, # of connection points: 2
#     Edge 49, Type (0, 0), BuildingBlock: ZUJKAS_clean_linker_0, # of connection points: 2
#     Edge 50, Type (0, 0), BuildingBlock: ZUJKAS_clean_linker_0, # of connection points: 2
#     Edge 51, Type (0, 0), BuildingBlock: ZUJKAS_clean_linker_0, # of connection points: 2
#     Edge 52, Type (0, 0), BuildingBlock: ZUJKAS_clean_linker_0, # of connection points: 2
#     Edge 53, Type (0, 0), BuildingBlock: ZUJKAS_clean_linker_0, # of connection points: 2
#     Edge 54, Type (0, 0), BuildingBlock: ZUJKAS_clean_linker_0, # of connection points: 2
#     Edge 55, Type (0, 0), BuildingBlock: ZUJKAS_clean_linker_0, # of connection points: 2
#     Edge 56, Type (0, 0), BuildingBlock: ZUJKAS_clean_linker_0, # of connection points: 2
#     Edge 57, Type (0, 0), BuildingBlock: ZUJKAS_clean_linker_0, # of connection points: 2
#     Edge 58, Type (0, 0), BuildingBlock: ZUJKAS_clean_linker_0, # of connection points: 2
#     Edge 59, Type (0, 0), BuildingBlock: ZUJKAS_clean_linker_0, # of connection points: 2
#     Edge 60, Type (0, 0), BuildingBlock: ZUJKAS_clean_linker_0, # of connection points: 2
#     Edge 61, Type (0, 0), BuildingBlock: ZUJKAS_clean_linker_0, # of connection points: 2
#     Edge 62, Type (0, 0), BuildingBlock: ZUJKAS_clean_linker_0, # of connection points: 2
#     Edge 63, Type (0, 0), BuildingBlock: ZUJKAS_clean_linker_0, # of connection points: 2
#     Edge 64, Type (0, 0), BuildingBlock: ZUJKAS_clean_linker_0, # of connection points: 2
#     Edge 65, Type (0, 0), BuildingBlock: ZUJKAS_clean_linker_0, # of connection points: 2
#     Edge 66, Type (0, 0), BuildingBlock: ZUJKAS_clean_linker_0, # of connection points: 2
#     Edge 67, Type (0, 0), BuildingBlock: ZUJKAS_clean_linker_0, # of connection points: 2
#     Edge 68, Type (0, 0), BuildingBlock: ZUJKAS_clean_linker_0, # of connection points: 2
#     Edge 69, Type (0, 0), BuildingBlock: ZUJKAS_clean_linker_0, # of connection points: 2
#     Edge 70, Type (0, 0), BuildingBlock: ZUJKAS_clean_linker_0, # of connection points: 2
#     Edge 71, Type (0, 0), BuildingBlock: ZUJKAS_clean_linker_0, # of connection points: 2
# Relax obj value: 0.387
# Max RMSD: 0.175
# Mean RMSD: 0.175
data_MOF--net-lcy-a--node1-QUQFOY_clean_sbu_1--edge1-ZUJKAS_clean_linker_0
_symmetry_space_group_name_H-M    P1
_symmetry_Int_Tables_number       1
_symmetry_cell_setting            triclinic
loop_
_symmetry_equiv_pos_as_xyz
'x, y, z'
_cell_length_a     76.0434
_cell_length_b     76.026612
_cell_length_c     76.025454
_cell_angle_alpha  90.001797
_cell_angle_beta   89.985817
_cell_angle_gamma 89.992949
loop_
_atom_site_label
_atom_site_type_symbol
_atom_site_fract_x
_atom_site_fract_y
_atom_site_fract_z
_atom_type_partial_charge
O0 O 0.20508 0.2657 0.38464 0.0
Cd1 Cd 0.18407 0.28224 0.38846 0.0
Cd2 Cd 0.20808 0.30559 0.39914 0.0
O3 O 0.22479 0.28453 0.39452 0.0
O4 O 0.16343 0.2683 0.39616 0.0
O5 O 0.17739 0.2874 0.41327 0.0
C6 C 0.16526 0.27563 0.41139 0.0
C7 C 0.21523 0.32375 0.42289 0.0
C8 C 0.22092 0.26946 0.38835 0.0
C9 C 0.18602 0.31395 0.36661 0.0
O10 O 0.19772 0.31855 0.37762 0.0
O11 O 0.17814 0.29933 0.36833 0.0
O12 O 0.22384 0.32432 0.40835 0.0
O13 O 0.2025 0.31263 0.42425 0.0
O14 O 0.98714 0.95414 0.63235 0.0
Cd15 Cd 0.96725 0.93678 0.63823 0.0
Cd16 Cd 0.94991 0.96475 0.65043 0.0
O17 O 0.97446 0.9759 0.6467 0.0
O18 O 0.97723 0.9138 0.64564 0.0
O19 O 0.96361 0.93226 0.66373 0.0
C20 C 0.97228 0.91783 0.66141 0.0
C21 C 0.93384 0.97411 0.675 0.0
C22 C 0.98752 0.96978 0.6382 0.0
C23 C 0.93557 0.94601 0.61812 0.0
O24 O 0.93492 0.95915 0.62845 0.0
O25 O 0.94728 0.93427 0.62015 0.0
O26 O 0.93667 0.98431 0.66179 0.0
O27 O 0.94032 0.95845 0.67446 0.0
O28 O 0.29382 0.73384 0.88334 0.0
Cd29 Cd 0.31395 0.71632 0.8875 0.0
Cd30 Cd 0.28912 0.69455 0.89986 0.0
O31 O 0.27379 0.71659 0.89523 0.0
O32 O 0.33538 0.72911 0.89497 0.0
O33 O 0.32014 0.71132 0.91244 0.0
C34 C 0.33299 0.72226 0.91036 0.0
C35 C 0.28066 0.67719 0.9239 0.0
C36 C 0.27804 0.7311 0.88806 0.0
C37 C 0.30984 0.6839 0.86706 0.0
O38 O 0.29807 0.68044 0.87843 0.0
O39 O 0.31862 0.69807 0.86807 0.0
O40 O 0.27163 0.67774 0.90961 0.0
O41 O 0.29466 0.68672 0.92477 0.0
O42 O 0.51414 0.04324 0.13509 0.0
Cd43 Cd 0.53118 0.06371 0.13973 0.0
Cd44 Cd 0.55345 0.03927 0.1518 0.0
O45 O 0.53134 0.02386 0.14806 0.0
O46 O 0.51792 0.0848 0.14743 0.0
O47 O 0.53588 0.06966 0.16479 0.0
C48 C 0.52476 0.08237 0.16282 0.0
C49 C 0.57136 0.03112 0.17556 0.0
C50 C 0.51695 0.02768 0.14045 0.0
C51 C 0.56339 0.06001 0.11882 0.0
O52 O 0.56695 0.04789 0.12979 0.0
O53 O 0.54943 0.06903 0.12051 0.0
O54 O 0.57036 0.02182 0.16146 0.0
O55 O 0.56203 0.04526 0.17636 0.0
O56 O 0.70553 0.23445 0.61684 0.0
Cd57 Cd 0.68468 0.21779 0.61259 0.0
Cd58 Cd 0.70875 0.19465 0.60128 0.0
O59 O 0.7249 0.21622 0.60527 0.0
O60 O 0.66383 0.23133 0.60467 0.0
O61 O 0.67857 0.21273 0.58764 0.0
C62 C 0.66608 0.22412 0.58943 0.0
C63 C 0.71606 0.17656 0.57741 0.0
C64 C 0.7212 0.23101 0.61219 0.0
C65 C 0.68724 0.18578 0.63404 0.0
O66 O 0.69922 0.18158 0.62315 0.0
O67 O 0.67886 0.20011 0.63221 0.0
O68 O 0.72523 0.17675 0.59162 0.0
O69 O 0.70259 0.18682 0.57655 0.0
O70 O 0.01116 0.45484 0.86415 0.0
Cd71 Cd 0.03065 0.43676 0.85926 0.0
Cd72 Cd 0.04948 0.46415 0.84763 0.0
O73 O 0.02558 0.4766 0.85155 0.0
O74 O 0.0201 0.41422 0.85139 0.0
O75 O 0.03586 0.43172 0.83411 0.0
C76 C 0.02642 0.4177 0.83598 0.0
C77 C 0.06633 0.47381 0.82366 0.0
C78 C 0.01185 0.47075 0.8591 0.0
C79 C 0.06217 0.44439 0.88021 0.0
O80 O 0.06399 0.45714 0.86954 0.0
O81 O 0.04957 0.43358 0.87833 0.0
O82 O 0.06413 0.48333 0.83748 0.0
O83 O 0.0587 0.45866 0.82322 0.0
O84 O 0.79312 0.76288 0.1182 0.0
Cd85 Cd 0.80947 0.78309 0.11041 0.0
Cd86 Cd 0.78088 0.79549 0.09547 0.0
O87 O 0.77355 0.7694 0.09784 0.0
O88 O 0.83323 0.77426 0.10386 0.0
O89 O 0.81369 0.78446 0.0847 0.0
C90 C 0.82879 0.77728 0.08771 0.0
C91 C 0.77182 0.81097 0.07041 0.0
C92 C 0.77939 0.75898 0.10953 0.0
C93 C 0.79525 0.81368 0.12801 0.0
O94 O 0.78209 0.81055 0.11817 0.0
O95 O 0.80951 0.80526 0.12585 0.0
O96 O 0.76085 0.80617 0.08238 0.0
O97 O 0.7881 0.80665 0.07242 0.0
O98 O 0.48501 0.53987 0.36192 0.0
Cd99 Cd 0.46492 0.55686 0.35558 0.0
Cd100 Cd 0.44879 0.52863 0.34273 0.0
O101 O 0.47324 0.51768 0.34745 0.0
O102 O 0.47461 0.5804 0.34968 0.0
O103 O 0.46244 0.56241 0.33014 0.0
C104 C 0.4705 0.57698 0.33354 0.0
C105 C 0.43395 0.52044 0.31702 0.0
C106 C 0.48586 0.52414 0.35632 0.0
C107 C 0.43284 0.54638 0.37467 0.0
O108 O 0.43288 0.53331 0.36424 0.0
O109 O 0.44424 0.55849 0.37299 0.0
O110 O 0.43623 0.50959 0.32982 0.0
O111 O 0.44037 0.53605 0.31861 0.0
O112 O 0.38694 0.20742 0.26943 0.0
Cd113 Cd 0.39189 0.18807 0.28767 0.0
Cd114 Cd 0.40554 0.21358 0.30757 0.0
O115 O 0.40155 0.22739 0.28449 0.0
O116 O 0.39831 0.16594 0.27546 0.0
O117 O 0.41701 0.1817 0.29144 0.0
C118 C 0.41411 0.1684 0.28123 0.0
C119 C 0.43009 0.22257 0.32394 0.0
C120 C 0.39306 0.22289 0.2708 0.0
C121 C 0.37238 0.19486 0.32026 0.0
O122 O 0.38371 0.20697 0.32239 0.0
O123 O 0.37342 0.1846 0.30712 0.0
O124 O 0.41624 0.23216 0.3225 0.0
O125 O 0.43014 0.20756 0.31602 0.0
O126 O 0.04497 0.13343 0.51649 0.0
Cd127 Cd 0.0649 0.13775 0.53425 0.0
Cd128 Cd 0.03947 0.14845 0.55595 0.0
O129 O 0.02445 0.14471 0.53357 0.0
O130 O 0.08628 0.14528 0.52136 0.0
O131 O 0.07105 0.16276 0.53912 0.0
C132 C 0.08386 0.1607 0.52813 0.0
C133 C 0.03178 0.17242 0.57373 0.0
C134 C 0.02908 0.13793 0.51899 0.0
C135 C 0.0606 0.11583 0.5658 0.0
O136 O 0.04811 0.1264 0.56927 0.0
O137 O 0.07 0.11812 0.55218 0.0
O138 O 0.02226 0.15845 0.57294 0.0
O139 O 0.04584 0.17296 0.56424 0.0
O140 O 0.11398 0.79298 0.76435 0.0
Cd141 Cd 0.10823 0.8109 0.78381 0.0
Cd142 Cd 0.09572 0.78366 0.80203 0.0
O143 O 0.10034 0.77146 0.77815 0.0
O144 O 0.10144 0.83383 0.77335 0.0
O145 O 0.08279 0.81607 0.78719 0.0
C146 C 0.08557 0.83033 0.77835 0.0
C147 C 0.07087 0.77407 0.81752 0.0
C148 C 0.10857 0.77718 0.76476 0.0
C149 C 0.12783 0.80279 0.81622 0.0
O150 O 0.11715 0.78999 0.8175 0.0
O151 O 0.12632 0.81378 0.80372 0.0
O152 O 0.08461 0.76437 0.81574 0.0
O153 O 0.07108 0.78946 0.81038 0.0
O154 O 0.45549 0.86325 0.01235 0.0
Cd155 Cd 0.43708 0.85812 0.03148 0.0
Cd156 Cd 0.46368 0.844 0.04987 0.0
O157 O 0.47638 0.84879 0.02627 0.0
O158 O 0.41441 0.85124 0.02053 0.0
O159 O 0.43145 0.83294 0.03562 0.0
C160 C 0.41755 0.8355 0.02619 0.0
C161 C 0.47266 0.81868 0.06499 0.0
C162 C 0.47111 0.85738 0.01292 0.0
C163 C 0.44537 0.87671 0.06429 0.0
O164 O 0.45751 0.86528 0.06565 0.0
O165 O 0.43469 0.8762 0.05145 0.0
O166 O 0.4827 0.83221 0.06345 0.0
O167 O 0.45729 0.81938 0.05788 0.0
O168 O 0.88756 0.29289 0.73551 0.0
Cd169 Cd 0.89167 0.31243 0.7173 0.0
Cd170 Cd 0.90468 0.28701 0.69654 0.0
O171 O 0.89983 0.27244 0.71902 0.0
O172 O 0.89901 0.33451 0.72913 0.0
O173 O 0.91659 0.3185 0.71214 0.0
C174 C 0.91443 0.33187 0.72243 0.0
C175 C 0.92903 0.27811 0.67982 0.0
C176 C 0.89243 0.27706 0.7333 0.0
C177 C 0.87172 0.30673 0.68474 0.0
O178 O 0.88335 0.29509 0.68179 0.0
O179 O 0.8724 0.316 0.69862 0.0
O180 O 0.91485 0.26895 0.68059 0.0
O181 O 0.92963 0.29251 0.68878 0.0
O182 O 0.95407 0.63235 0.98612 0.0
Cd183 Cd 0.93503 0.63738 0.96757 0.0
Cd184 Cd 0.96136 0.64875 0.94738 0.0
O185 O 0.97504 0.64497 0.97059 0.0
O186 O 0.91291 0.64467 0.97928 0.0
O187 O 0.92969 0.66271 0.96355 0.0
C188 C 0.91608 0.66033 0.97346 0.0
C189 C 0.97002 0.67249 0.92975 0.0
C190 C 0.9699 0.63746 0.98463 0.0
C191 C 0.94088 0.61634 0.9357 0.0
O192 O 0.9537 0.6268 0.93333 0.0
O193 O 0.93064 0.61845 0.94872 0.0
O194 O 0.97961 0.65865 0.93149 0.0
O195 O 0.95543 0.67314 0.93838 0.0
O196 O 0.61551 0.7068 0.23523 0.0
Cd197 Cd 0.61015 0.68787 0.21654 0.0
Cd198 Cd 0.59613 0.71396 0.19795 0.0
O199 O 0.59851 0.7262 0.22204 0.0
O200 O 0.60345 0.66527 0.22782 0.0
O201 O 0.58478 0.68249 0.21337 0.0
C202 C 0.58755 0.66858 0.22274 0.0
C203 C 0.57133 0.72166 0.18136 0.0
C204 C 0.60796 0.72171 0.23508 0.0
C205 C 0.62959 0.69673 0.18447 0.0
O206 O 0.61884 0.70953 0.18367 0.0
O207 O 0.62782 0.68498 0.19621 0.0
O208 O 0.58401 0.73254 0.18404 0.0
O209 O 0.57262 0.70616 0.18811 0.0
O210 O 0.54612 0.36776 0.48834 0.0
Cd211 Cd 0.56601 0.36322 0.47059 0.0
Cd212 Cd 0.54071 0.35082 0.44923 0.0
O213 O 0.52614 0.35462 0.47194 0.0
O214 O 0.5876 0.35507 0.4828 0.0
O215 O 0.57135 0.33814 0.4654 0.0
C216 C 0.58459 0.3398 0.47592 0.0
C217 C 0.53243 0.32691 0.43157 0.0
C218 C 0.53049 0.36229 0.48616 0.0
C219 C 0.56119 0.38371 0.43828 0.0
O220 O 0.549 0.37266 0.43527 0.0
O221 O 0.5706 0.38231 0.452 0.0
O222 O 0.52297 0.34089 0.43275 0.0
O223 O 0.54671 0.32626 0.44069 0.0
O224 O 0.26039 0.38187 0.20349 0.0
Cd225 Cd 0.27972 0.38712 0.18534 0.0
Cd226 Cd 0.29749 0.40217 0.21198 0.0
O227 O 0.27356 0.39741 0.22413 0.0
O228 O 0.2697 0.39372 0.16211 0.0
O229 O 0.2833 0.41243 0.17999 0.0
C230 C 0.27474 0.4096 0.16558 0.0
C231 C 0.31263 0.42761 0.22063 0.0
C232 C 0.26053 0.3883 0.21892 0.0
C233 C 0.31269 0.36929 0.19469 0.0
O234 O 0.31362 0.38093 0.20666 0.0
O235 O 0.30008 0.36941 0.18374 0.0
O236 O 0.31059 0.41444 0.23106 0.0
O237 O 0.30582 0.42656 0.20514 0.0
O238 O 0.76283 0.11569 0.79337 0.0
Cd239 Cd 0.78281 0.10918 0.81042 0.0
Cd240 Cd 0.79992 0.09754 0.78207 0.0
O241 O 0.77567 0.1027 0.77086 0.0
O242 O 0.77295 0.10234 0.8336 0.0
O243 O 0.7858 0.0836 0.81522 0.0
C244 C 0.77752 0.08641 0.82981 0.0
C245 C 0.81485 0.07246 0.77222 0.0
C246 C 0.76259 0.11086 0.77738 0.0
C247 C 0.81514 0.12877 0.80173 0.0
O248 O 0.81582 0.11865 0.78843 0.0
O249 O 0.80307 0.12689 0.81313 0.0
O250 O 0.81282 0.08607 0.76237 0.0
O251 O 0.8082 0.07291 0.78783 0.0
O252 O 0.13197 0.51769 0.04319 0.0
Cd253 Cd 0.13827 0.53571 0.06233 0.0
Cd254 Cd 0.14939 0.55597 0.03598 0.0
O255 O 0.14409 0.53325 0.02194 0.0
O256 O 0.14567 0.52325 0.08402 0.0
O257 O 0.16385 0.53864 0.06709 0.0
C258 C 0.16146 0.52849 0.08052 0.0
C259 C 0.174 0.57229 0.02718 0.0
C260 C 0.13638 0.51935 0.02715 0.0
C261 C 0.11812 0.5684 0.05765 0.0
O262 O 0.1283 0.57077 0.0446 0.0
O263 O 0.12011 0.55509 0.06754 0.0
O264 O 0.15985 0.57173 0.01791 0.0
O265 O 0.17437 0.56333 0.04158 0.0
O266 O 0.73312 0.88335 0.29592 0.0
Cd267 Cd 0.71529 0.88988 0.31513 0.0
Cd268 Cd 0.69646 0.90488 0.28933 0.0
O269 O 0.72034 0.90095 0.27672 0.0
O270 O 0.72711 0.89719 0.33724 0.0
O271 O 0.7126 0.91548 0.31963 0.0
C272 C 0.72219 0.91304 0.33345 0.0
C273 C 0.68084 0.92966 0.27965 0.0
C274 C 0.73296 0.89086 0.28101 0.0
C275 C 0.68213 0.87206 0.30787 0.0
O276 O 0.68096 0.88325 0.29547 0.0
O277 O 0.69484 0.87273 0.31866 0.0
O278 O 0.68273 0.9159 0.27 0.0
O279 O 0.68779 0.92947 0.29512 0.0
O280 O 0.36415 0.4821 0.54315 0.0
Cd281 Cd 0.36028 0.46575 0.56429 0.0
Cd282 Cd 0.3485 0.44222 0.54081 0.0
O283 O 0.35356 0.46308 0.52401 0.0
O284 O 0.35278 0.47974 0.58496 0.0
O285 O 0.33544 0.46081 0.57102 0.0
C286 C 0.33748 0.47254 0.58317 0.0
C287 C 0.32485 0.42437 0.53243 0.0
C288 C 0.36009 0.4781 0.52746 0.0
C289 C 0.38111 0.43336 0.56259 0.0
O290 O 0.36963 0.42878 0.55133 0.0
O291 O 0.38012 0.44828 0.57003 0.0
O292 O 0.33971 0.4239 0.52439 0.0
O293 O 0.32317 0.43513 0.54544 0.0
O294 O 0.23465 0.61618 0.70332 0.0
Cd295 Cd 0.21593 0.61069 0.68461 0.0
Cd296 Cd 0.19637 0.59832 0.71109 0.0
O297 O 0.22003 0.60208 0.72398 0.0
O298 O 0.2275 0.60302 0.66253 0.0
O299 O 0.21161 0.58536 0.67954 0.0
C300 C 0.22154 0.58744 0.66589 0.0
C301 C 0.17984 0.57429 0.72116 0.0
C302 C 0.23367 0.61033 0.71893 0.0
C303 C 0.18385 0.63101 0.69137 0.0
O304 O 0.18187 0.62029 0.70407 0.0
O305 O 0.19666 0.62923 0.68079 0.0
O306 O 0.18189 0.58828 0.73044 0.0
O307 O 0.18715 0.57383 0.70585 0.0
O308 O 0.63276 0.98722 0.95683 0.0
Cd309 Cd 0.63875 0.96802 0.93871 0.0
Cd310 Cd 0.64999 0.94925 0.96608 0.0
O311 O 0.64555 0.973 0.9786 0.0
O312 O 0.64604 0.97901 0.91619 0.0
O313 O 0.66424 0.96449 0.93383 0.0
C314 C 0.6618 0.97375 0.91978 0.0
C315 C 0.67438 0.9329 0.97543 0.0
C316 C 0.63767 0.98656 0.97278 0.0
C317 C 0.61826 0.93593 0.94575 0.0
O318 O 0.62839 0.93438 0.95896 0.0
O319 O 0.62047 0.94844 0.93489 0.0
O320 O 0.66069 0.93489 0.98517 0.0
O321 O 0.67443 0.94043 0.96022 0.0
O322 O 0.86436 0.01882 0.45643 0.0
Cd323 Cd 0.85907 0.03764 0.43773 0.0
Cd324 Cd 0.84704 0.05704 0.4644 0.0
O325 O 0.85152 0.03373 0.47773 0.0
O326 O 0.8524 0.02628 0.41521 0.0
O327 O 0.83374 0.04115 0.43211 0.0
C328 C 0.83656 0.03164 0.4183 0.0
C329 C 0.82244 0.07347 0.47301 0.0
C330 C 0.85931 0.01994 0.47232 0.0
C331 C 0.87932 0.0699 0.44449 0.0
O332 O 0.86861 0.07188 0.45718 0.0
O333 O 0.87763 0.05698 0.43403 0.0
O334 O 0.83629 0.07237 0.48267 0.0
O335 O 0.82233 0.06494 0.45834 0.0
H336 H 0.08054 0.19527 0.53783 0.0
H337 H 0.09488 0.22069 0.52412 0.0
H338 H 0.12471 0.18586 0.49072 0.0
H339 H 0.11079 0.16049 0.5045 0.0
H340 H 0.14416 0.21448 0.50274 0.0
H341 H 0.07979 0.23513 0.47445 0.0
H342 H 0.08105 0.23354 0.498 0.0
H343 H 0.08283 0.21402 0.48483 0.0
C344 C 0.0904 0.19303 0.52779 0.0
C345 C 0.09438 0.17588 0.52208 0.0
C346 C 0.09849 0.20757 0.51992 0.0
C347 C 0.11057 0.20514 0.50617 0.0
C348 C 0.11535 0.18801 0.50126 0.0
H349 H 0.1395 0.25074 0.41151 0.0
H350 H 0.12556 0.23731 0.43705 0.0
C351 C 0.10735 0.17352 0.50913 0.0
C352 C 0.11734 0.22017 0.49581 0.0
H353 H 0.10488 0.24994 0.46458 0.0
C354 C 0.1356 0.22251 0.49463 0.0
C355 C 0.10606 0.23049 0.48518 0.0
C356 C 0.08634 0.22818 0.48551 0.0
C357 C 0.14296 0.23421 0.48241 0.0
C358 C 0.1317 0.24405 0.47132 0.0
C359 C 0.11342 0.24243 0.47319 0.0
C360 C 0.1386 0.254 0.45607 0.0
C361 C 0.16272 0.23505 0.48064 0.0
C362 C 0.1501 0.26827 0.45827 0.0
C363 C 0.15819 0.27595 0.44363 0.0
C364 C 0.15481 0.26952 0.4266 0.0
C365 C 0.14247 0.25595 0.42444 0.0
C366 C 0.13445 0.24827 0.43903 0.0
H367 H 0.1694 0.22452 0.48826 0.0
H368 H 0.16668 0.23387 0.46663 0.0
H369 H 0.16747 0.24793 0.4856 0.0
H370 H 0.15321 0.27309 0.4713 0.0
H371 H 0.16757 0.28648 0.44572 0.0
H372 H 0.97324 0.92763 0.69593 0.0
H373 H 0.98905 0.91278 0.71969 0.0
H374 H 0.00035 0.86928 0.68506 0.0
H375 H 0.9851 0.88431 0.66107 0.0
H376 H 0.98859 0.8808 0.73716 0.0
H377 H 0.04891 0.88819 0.69683 0.0
H378 H 0.02842 0.89865 0.69109 0.0
H379 H 0.03203 0.87582 0.68594 0.0
C380 C 0.97878 0.91473 0.69347 0.0
C381 C 0.97824 0.90726 0.67656 0.0
C382 C 0.9878 0.90627 0.70707 0.0
C383 C 0.99626 0.89017 0.70397 0.0
C384 C 0.9943 0.88193 0.68757 0.0
H385 H 0.05114 0.82093 0.77509 0.0
H386 H 0.02822 0.83709 0.75946 0.0
C387 C 0.98552 0.89049 0.6739 0.0
C388 C 0.00857 0.8829 0.71719 0.0
H389 H 0.05143 0.87104 0.72266 0.0
C390 C 0.00236 0.87871 0.73407 0.0
C391 C 0.02662 0.88067 0.71327 0.0
C392 C 0.03446 0.88623 0.69587 0.0
C393 C 0.01367 0.87184 0.747 0.0
C394 C 0.03153 0.86876 0.74273 0.0
C395 C 0.03774 0.87333 0.72596 0.0
C396 C 0.04411 0.86032 0.75503 0.0
C397 C 0.00642 0.86822 0.76511 0.0
C398 C 0.06067 0.868 0.75792 0.0
C399 C 0.07393 0.8586 0.76643 0.0
C400 C 0.0708 0.84143 0.77244 0.0
C401 C 0.05388 0.83421 0.7707 0.0
C402 C 0.0407 0.8435 0.76186 0.0
H403 H 0.99484 0.87667 0.76797 0.0
H404 H 0.00205 0.85432 0.76582 0.0
H405 H 0.0165 0.87044 0.77544 0.0
H406 H 0.06361 0.88097 0.75279 0.0
H407 H 0.08684 0.86451 0.76768 0.0
H408 H 0.33046 0.71158 0.94471 0.0
H409 H 0.34524 0.72463 0.97021 0.0
H410 H 0.3738 0.75952 0.93577 0.0
H411 H 0.35948 0.74636 0.91031 0.0
H412 H 0.39417 0.74685 0.96304 0.0
H413 H 0.3303 0.77331 0.98734 0.0
H414 H 0.33179 0.74985 0.98487 0.0
H415 H 0.33262 0.76373 0.96577 0.0
C416 C 0.34012 0.72183 0.94257 0.0
C417 C 0.34366 0.72809 0.92551 0.0
C418 C 0.34846 0.72934 0.95716 0.0
C419 C 0.36032 0.74328 0.95489 0.0
C420 C 0.36462 0.74882 0.93781 0.0
H421 H 0.3897 0.83628 0.00365 0.0
H422 H 0.3751 0.81119 0.99007 0.0
C423 C 0.35639 0.74129 0.92326 0.0
C424 C 0.3675 0.75312 0.97008 0.0
H425 H 0.35581 0.78276 0.00172 0.0
C426 C 0.38582 0.75447 0.97175 0.0
C427 C 0.3565 0.7631 0.9813 0.0
C428 C 0.33671 0.76259 0.97975 0.0
C429 C 0.39348 0.7663 0.98364 0.0
C430 C 0.38247 0.77675 0.99444 0.0
C431 C 0.36417 0.77465 0.99348 0.0
C432 C 0.38957 0.7916 0.00483 0.0
C433 C 0.41323 0.76838 0.98366 0.0
C434 C 0.40203 0.78893 0.01817 0.0
C435 C 0.41054 0.8033 0.02589 0.0
C436 C 0.40655 0.82054 0.02047 0.0
C437 C 0.39314 0.82317 0.00805 0.0
C438 C 0.38476 0.80883 0.00028 0.0
H439 H 0.4195 0.76156 0.97235 0.0
H440 H 0.41693 0.7825 0.98318 0.0
H441 H 0.41868 0.76269 0.99594 0.0
H442 H 0.40564 0.77573 0.02215 0.0
H443 H 0.4207 0.80085 0.03556 0.0
H444 H 0.5354 0.07969 0.19717 0.0
H445 H 0.52252 0.09456 0.22271 0.0
H446 H 0.48755 0.12319 0.18843 0.0
H447 H 0.50051 0.10875 0.16291 0.0
H448 H 0.50089 0.14365 0.21551 0.0
H449 H 0.47373 0.0803 0.24038 0.0
H450 H 0.49717 0.08138 0.23757 0.0
H451 H 0.48305 0.08241 0.21867 0.0
C452 C 0.52515 0.08936 0.19506 0.0
C453 C 0.51883 0.09291 0.17803 0.0
C454 C 0.51774 0.09775 0.20968 0.0
C455 C 0.50386 0.1097 0.20747 0.0
C456 C 0.49821 0.11395 0.19042 0.0
H457 H 0.41229 0.14097 0.25825 0.0
H458 H 0.43674 0.12606 0.24385 0.0
C459 C 0.50562 0.10565 0.17584 0.0
C460 C 0.49428 0.11711 0.22272 0.0
H461 H 0.46502 0.10601 0.25494 0.0
C462 C 0.49327 0.13545 0.22437 0.0
C463 C 0.4843 0.10631 0.23414 0.0
C464 C 0.48444 0.08651 0.23262 0.0
C465 C 0.48183 0.14335 0.2365 0.0
C466 C 0.47141 0.13256 0.24753 0.0
C467 C 0.47312 0.11421 0.24653 0.0
C468 C 0.45696 0.13996 0.25828 0.0
C469 C 0.48014 0.16314 0.23657 0.0
C470 C 0.46022 0.15224 0.27167 0.0
C471 C 0.44621 0.16092 0.27987 0.0
C472 C 0.42876 0.15732 0.27488 0.0
C473 C 0.42557 0.14414 0.26233 0.0
C474 C 0.43954 0.13556 0.2541 0.0
H475 H 0.48686 0.16929 0.22514 0.0
H476 H 0.46609 0.16712 0.23637 0.0
H477 H 0.48616 0.16847 0.24875 0.0
H478 H 0.47357 0.15554 0.27534 0.0
H479 H 0.44909 0.17092 0.2896 0.0
H480 H 0.63866 0.2472 0.58928 0.0
H481 H 0.62424 0.26007 0.56375 0.0
H482 H 0.65528 0.22732 0.52935 0.0
H483 H 0.67004 0.21446 0.55495 0.0
H484 H 0.65729 0.26184 0.52058 0.0
H485 H 0.58759 0.24362 0.52892 0.0
H486 H 0.59622 0.25268 0.54889 0.0
H487 H 0.60511 0.23241 0.54041 0.0
C488 C 0.64219 0.24244 0.57632 0.0
C489 C 0.65554 0.22986 0.57414 0.0
C490 C 0.63382 0.24972 0.56172 0.0
C491 C 0.63851 0.24448 0.54465 0.0
C492 C 0.65137 0.23144 0.54242 0.0
H493 H 0.57966 0.30544 0.46636 0.0
H494 H 0.59433 0.27955 0.47868 0.0
C495 C 0.65977 0.2241 0.55706 0.0
C496 C 0.63142 0.25422 0.52936 0.0
H497 H 0.59314 0.27095 0.51311 0.0
C498 C 0.64325 0.2635 0.51864 0.0
C499 C 0.61314 0.25613 0.52656 0.0
C500 C 0.59981 0.2455 0.5367 0.0
C501 C 0.63727 0.27578 0.50624 0.0
C502 C 0.61902 0.27905 0.5048 0.0
C503 C 0.60716 0.26865 0.51441 0.0
C504 C 0.61205 0.29449 0.49519 0.0
C505 C 0.65058 0.28555 0.49524 0.0
C506 C 0.61732 0.31145 0.5002 0.0
C507 C 0.609 0.32623 0.49321 0.0
C508 C 0.59511 0.32432 0.48118 0.0
C509 C 0.59033 0.30734 0.47559 0.0
C510 C 0.59868 0.29253 0.48262 0.0
H511 H 0.66252 0.27742 0.49302 0.0
H512 H 0.64503 0.2894 0.48229 0.0
H513 H 0.6547 0.29763 0.50231 0.0
H514 H 0.6273 0.31329 0.5102 0.0
H515 H 0.61296 0.33911 0.49782 0.0
H516 H 0.91411 0.36015 0.74445 0.0
H517 H 0.93939 0.37538 0.75683 0.0
H518 H 0.97427 0.34388 0.72504 0.0
H519 H 0.94893 0.32825 0.71275 0.0
H520 H 0.98337 0.34296 0.75909 0.0
H521 H 0.97348 0.41215 0.7399 0.0
H522 H 0.95375 0.40348 0.74943 0.0
H523 H 0.96205 0.39428 0.7292 0.0
C524 C 0.92712 0.3567 0.73977 0.0
C525 C 0.92952 0.34294 0.72767 0.0
C526 C 0.94158 0.36554 0.74678 0.0
C527 C 0.95873 0.36095 0.74168 0.0
C528 C 0.96115 0.34771 0.72905 0.0
H529 H 0.03549 0.42284 0.80149 0.0
H530 H 0.02353 0.40752 0.77581 0.0
C531 C 0.94665 0.33882 0.72204 0.0
C532 C 0.97392 0.36853 0.75123 0.0
H533 H 0.9894 0.40738 0.76737 0.0
C534 C 0.98499 0.35706 0.76056 0.0
C535 C 0.97633 0.38689 0.75289 0.0
C536 C 0.96587 0.39988 0.74214 0.0
C537 C 0.99737 0.36348 0.77264 0.0
C538 C 0.9984 0.38179 0.77571 0.0
C539 C 0.98842 0.3933 0.76525 0.0
C540 C 0.00795 0.38917 0.791 0.0
C541 C 0.0088 0.35053 0.7824 0.0
C542 C 0.00339 0.38376 0.80805 0.0
C543 C 0.01021 0.39242 0.82271 0.0
C544 C 0.02158 0.40682 0.82061 0.0
C545 C 0.02676 0.41177 0.80355 0.0
C546 C 0.01993 0.40305 0.78885 0.0
H547 H 0.01137 0.33866 0.77426 0.0
H548 H 0.02157 0.35647 0.78622 0.0
H549 H 0.00188 0.34617 0.79449 0.0
H550 H 0.99382 0.37339 0.81006 0.0
H551 H 0.00591 0.38831 0.83566 0.0
H552 H 0.81923 0.77352 0.05336 0.0
H553 H 0.83501 0.75719 0.03064 0.0
H554 H 0.87897 0.75047 0.06585 0.0
H555 H 0.86298 0.76622 0.08892 0.0
H556 H 0.8664 0.75851 0.01305 0.0
H557 H 0.86358 0.70031 0.05703 0.0
H558 H 0.85196 0.7204 0.06181 0.0
H559 H 0.8751 0.7186 0.06646 0.0
C560 C 0.83239 0.76885 0.05618 0.0
C561 C 0.83975 0.77083 0.07304 0.0
C562 C 0.8414 0.75954 0.04316 0.0
C563 C 0.85794 0.75221 0.04673 0.0
C564 C 0.86599 0.7556 0.06301 0.0
H565 H 0.92568 0.69485 0.97483 0.0
H566 H 0.91054 0.71842 0.9906 0.0
C567 C 0.85688 0.76467 0.07614 0.0
C568 C 0.86589 0.73963 0.03416 0.0
H569 H 0.87939 0.69703 0.03056 0.0
C570 C 0.86925 0.74505 0.01682 0.0
C571 C 0.86917 0.72196 0.03902 0.0
C572 C 0.86461 0.71489 0.05703 0.0
C573 C 0.87604 0.7333 0.00426 0.0
C574 C 0.87991 0.71581 0.00934 0.0
C575 C 0.87644 0.71044 0.02666 0.0
C576 C 0.88772 0.70269 0.99719 0.0
C577 C 0.87862 0.73963 0.98563 0.0
C578 C 0.8799 0.68604 0.99549 0.0
C579 C 0.88872 0.67245 0.98687 0.0
C580 C 0.90543 0.67534 0.97958 0.0
C581 C 0.91274 0.69231 0.98021 0.0
C582 C 0.90404 0.70583 0.98914 0.0
H583 H 0.86999 0.75104 0.98263 0.0
H584 H 0.89245 0.74394 0.98391 0.0
H585 H 0.87587 0.72901 0.97599 0.0
H586 H 0.8673 0.68332 0.00157 0.0
H587 H 0.88276 0.65952 0.9865 0.0
H588 H 0.55275 0.67729 0.22315 0.0
H589 H 0.52924 0.66208 0.239 0.0
H590 H 0.56518 0.62023 0.25226 0.0
H591 H 0.58892 0.63568 0.23701 0.0
H592 H 0.51298 0.62996 0.23859 0.0
H593 H 0.55106 0.63879 0.3001 0.0
H594 H 0.55725 0.6492 0.27972 0.0
H595 H 0.56292 0.62657 0.28378 0.0
C596 C 0.55557 0.66469 0.22919 0.0
C597 C 0.57274 0.6578 0.22913 0.0
C598 C 0.54212 0.65603 0.23823 0.0
C599 C 0.54561 0.64029 0.24721 0.0
C600 C 0.56236 0.63263 0.24584 0.0
H601 H 0.47527 0.56835 0.2991 0.0
H602 H 0.49109 0.58541 0.277 0.0
C603 C 0.57587 0.64142 0.23705 0.0
C604 C 0.53226 0.63267 0.25917 0.0
H605 H 0.5259 0.62048 0.30182 0.0
C606 C 0.51572 0.62795 0.25244 0.0
C607 C 0.53569 0.63055 0.27733 0.0
C608 C 0.55261 0.63672 0.28571 0.0
C609 C 0.5027 0.62063 0.26335 0.0
C610 C 0.50654 0.61758 0.28131 0.0
C611 C 0.52294 0.62273 0.28805 0.0
C612 C 0.49423 0.60848 0.29343 0.0
C613 C 0.48495 0.61648 0.25554 0.0
C614 C 0.49059 0.61575 0.31003 0.0
C615 C 0.48196 0.60583 0.32285 0.0
C616 C 0.4766 0.58854 0.31921 0.0
C617 C 0.47914 0.58171 0.30222 0.0
C618 C 0.48808 0.59151 0.28951 0.0
H619 H 0.48209 0.62504 0.24404 0.0
H620 H 0.48488 0.60265 0.25087 0.0
H621 H 0.47426 0.61813 0.26536 0.0
H622 H 0.49518 0.62882 0.31336 0.0
H623 H 0.48011 0.61145 0.33581 0.0
H624 H 0.26411 0.40825 0.13135 0.0
H625 H 0.2502 0.43183 0.11449 0.0
H626 H 0.25768 0.46741 0.1581 0.0
H627 H 0.27236 0.44417 0.17459 0.0
H628 H 0.22061 0.44523 0.12343 0.0
H629 H 0.26775 0.50025 0.11876 0.0
H630 H 0.2744 0.47841 0.12529 0.0
H631 H 0.2651 0.49339 0.14115 0.0
C632 C 0.26325 0.42125 0.13711 0.0
C633 C 0.26923 0.42437 0.15429 0.0
C634 C 0.2553 0.43472 0.12748 0.0
C635 C 0.25295 0.45147 0.13496 0.0
C636 C 0.25971 0.4548 0.15182 0.0
H637 H 0.16105 0.51362 0.11313 0.0
H638 H 0.1847 0.49679 0.12694 0.0
C639 C 0.26799 0.44142 0.16131 0.0
C640 C 0.24125 0.46446 0.12629 0.0
H641 H 0.23702 0.50783 0.11522 0.0
C642 C 0.22435 0.45885 0.12142 0.0
C643 C 0.24608 0.48224 0.12353 0.0
C644 C 0.2644 0.48886 0.12729 0.0
C645 C 0.21204 0.47052 0.1143 0.0
C646 C 0.21647 0.48851 0.11262 0.0
C647 C 0.23353 0.4941 0.11692 0.0
C648 C 0.2035 0.50149 0.10608 0.0
C649 C 0.19446 0.46334 0.10847 0.0
C650 C 0.2067 0.51079 0.09046 0.0
C651 C 0.19332 0.52074 0.08273 0.0
C652 C 0.17652 0.52137 0.09045 0.0
C653 C 0.1738 0.51316 0.10677 0.0
C654 C 0.18726 0.50347 0.11462 0.0
H655 H 0.19512 0.44898 0.10581 0.0
H656 H 0.18465 0.46544 0.11907 0.0
H657 H 0.18973 0.47006 0.0964 0.0
H658 H 0.21921 0.50955 0.08375 0.0
H659 H 0.1958 0.52698 0.07016 0.0
H660 H 0.6965 0.97438 0.92904 0.0
H661 H 0.72015 0.99013 0.9139 0.0
H662 H 0.68482 0.00233 0.87124 0.0
H663 H 0.66097 0.98714 0.88654 0.0
H664 H 0.73686 0.9897 0.88126 0.0
H665 H 0.69773 0.05054 0.89059 0.0
H666 H 0.69201 0.03001 0.90099 0.0
H667 H 0.6862 0.03397 0.87838 0.0
C668 C 0.69386 0.98012 0.91626 0.0
C669 C 0.67682 0.97984 0.9091 0.0
C670 C 0.7074 0.9891 0.90764 0.0
C671 C 0.70408 0.99777 0.89169 0.0
C672 C 0.6875 0.9961 0.88377 0.0
H673 H 0.77332 0.05209 0.82034 0.0
H674 H 0.75803 0.02929 0.837 0.0
C675 C 0.67392 0.98737 0.89249 0.0
C676 C 0.7173 0.00997 0.88423 0.0
H677 H 0.72298 0.05284 0.87251 0.0
C678 C 0.73392 0.00354 0.8794 0.0
C679 C 0.71357 0.0281 0.88229 0.0
C680 C 0.69649 0.03612 0.8885 0.0
C681 C 0.74675 0.01471 0.87215 0.0
C682 C 0.74264 0.03266 0.86935 0.0
C683 C 0.72615 0.03909 0.87459 0.0
C684 C 0.75478 0.04511 0.86048 0.0
C685 C 0.7646 0.00723 0.86779 0.0
C686 C 0.7582 0.06159 0.86812 0.0
C687 C 0.76652 0.07478 0.85845 0.0
C688 C 0.77179 0.07167 0.84103 0.0
C689 C 0.76951 0.05481 0.8338 0.0
C690 C 0.76087 0.0417 0.84337 0.0
H691 H 0.76761 0.99555 0.87605 0.0
H692 H 0.76471 0.00292 0.85385 0.0
H693 H 0.77515 0.01714 0.86967 0.0
H694 H 0.75365 0.06453 0.8813 0.0
H695 H 0.7682 0.08763 0.86437 0.0
H696 H 0.72315 0.94748 0.32344 0.0
H697 H 0.73956 0.97125 0.33761 0.0
H698 H 0.75254 0.93666 0.38067 0.0
H699 H 0.73674 0.91265 0.36625 0.0
H700 H 0.73981 0.98876 0.36901 0.0
H701 H 0.80043 0.94904 0.3612 0.0
H702 H 0.77984 0.94286 0.35125 0.0
H703 H 0.784 0.93806 0.37407 0.0
C704 C 0.72925 0.94502 0.33608 0.0
C705 C 0.72896 0.92813 0.34361 0.0
C706 C 0.73861 0.95862 0.34415 0.0
C707 C 0.74767 0.95556 0.35993 0.0
C708 C 0.74607 0.93914 0.36823 0.0
H709 H 0.80219 0.0283 0.42777 0.0
H710 H 0.7794 0.01213 0.41196 0.0
C711 C 0.73696 0.92546 0.36003 0.0
C712 C 0.75996 0.96896 0.36691 0.0
H713 H 0.80286 0.97495 0.37832 0.0
C714 C 0.75363 0.98583 0.37098 0.0
C715 C 0.77807 0.96524 0.36899 0.0
C716 C 0.78604 0.94789 0.36347 0.0
C717 C 0.76488 0.99894 0.37758 0.0
C718 C 0.7828 0.99487 0.38057 0.0
C719 C 0.78913 0.9781 0.37611 0.0
C720 C 0.79533 0.00737 0.3888 0.0
C721 C 0.75749 0.01703 0.38101 0.0
C722 C 0.81186 0.01023 0.38106 0.0
C723 C 0.82506 0.01903 0.39029 0.0
C724 C 0.82186 0.0254 0.40732 0.0
C725 C 0.80495 0.02366 0.41458 0.0
C726 C 0.79186 0.01451 0.40549 0.0
H727 H 0.74589 0.0197 0.37252 0.0
H728 H 0.75308 0.01785 0.3949 0.0
H729 H 0.76748 0.02742 0.37868 0.0
H730 H 0.81485 0.00488 0.36819 0.0
H731 H 0.83796 0.02026 0.38437 0.0
H732 H 0.21262 0.55277 0.67026 0.0
H733 H 0.22616 0.52733 0.65582 0.0
H734 H 0.25764 0.56215 0.62396 0.0
H735 H 0.24395 0.58754 0.63793 0.0
H736 H 0.2458 0.5331 0.60556 0.0
H737 H 0.27635 0.51391 0.66934 0.0
H738 H 0.25274 0.51491 0.66883 0.0
H739 H 0.26538 0.53472 0.66635 0.0
C740 C 0.22219 0.555 0.65994 0.0
C741 C 0.22739 0.57217 0.65539 0.0
C742 C 0.22998 0.54045 0.65179 0.0
C743 C 0.24317 0.54287 0.63911 0.0
C744 C 0.24754 0.55999 0.63378 0.0
H745 H 0.33764 0.49772 0.60865 0.0
H746 H 0.31229 0.51115 0.6229 0.0
C747 C 0.23972 0.5745 0.64182 0.0
C748 C 0.25357 0.5279 0.63225 0.0
H749 H 0.28551 0.4987 0.64422 0.0
C750 C 0.25426 0.52531 0.614 0.0
C751 C 0.26466 0.51788 0.64336 0.0
C752 C 0.26492 0.5205 0.66305 0.0
C753 C 0.26644 0.51367 0.60644 0.0
C754 C 0.27796 0.50413 0.61751 0.0
C755 C 0.27658 0.50598 0.63582 0.0
C756 C 0.29313 0.49425 0.61034 0.0
C757 C 0.26767 0.51261 0.58664 0.0
C758 C 0.29082 0.47988 0.59899 0.0
C759 C 0.30535 0.4722 0.59069 0.0
C760 C 0.32239 0.47873 0.59375 0.0
C761 C 0.3247 0.49243 0.60593 0.0
C762 C 0.31021 0.50011 0.61413 0.0
H763 H 0.25981 0.52303 0.58006 0.0
H764 H 0.28155 0.51382 0.58228 0.0
H765 H 0.26265 0.49966 0.58218 0.0
H766 H 0.27776 0.47495 0.59617 0.0
H767 H 0.30316 0.46158 0.58146 0.0
H768 H 0.32745 0.39231 0.51733 0.0
H769 H 0.30422 0.37567 0.50273 0.0
H770 H 0.26624 0.41495 0.51805 0.0
H771 H 0.2895 0.43138 0.53344 0.0
H772 H 0.25228 0.38068 0.51805 0.0
H773 H 0.28739 0.39507 0.45592 0.0
H774 H 0.30113 0.38376 0.47138 0.0
H775 H 0.29312 0.40548 0.47644 0.0
C776 C 0.31409 0.39724 0.51787 0.0
C777 C 0.31026 0.41324 0.52624 0.0
C778 C 0.30085 0.38776 0.50949 0.0
C779 C 0.28364 0.39435 0.50888 0.0
C780 C 0.2795 0.40972 0.51827 0.0
H781 H 0.22165 0.35853 0.42069 0.0
H782 H 0.23436 0.37748 0.44329 0.0
C783 C 0.29275 0.41909 0.52702 0.0
C784 C 0.27059 0.38597 0.49709 0.0
H785 H 0.26514 0.37314 0.45454 0.0
C786 C 0.25492 0.37916 0.50411 0.0
C787 C 0.27387 0.38442 0.47885 0.0
C788 C 0.28969 0.39274 0.47017 0.0
C789 C 0.24275 0.37021 0.49341 0.0
C790 C 0.24665 0.36765 0.47536 0.0
C791 C 0.2621 0.37497 0.46836 0.0
C792 C 0.23536 0.35718 0.46329 0.0
C793 C 0.22583 0.3638 0.50153 0.0
C794 C 0.23094 0.33963 0.46717 0.0
C795 C 0.2231 0.32895 0.45436 0.0
C796 C 0.22016 0.33553 0.43738 0.0
C797 C 0.22389 0.3532 0.43372 0.0
C798 C 0.23116 0.364 0.44662 0.0
H799 H 0.22208 0.37195 0.51307 0.0
H800 H 0.21486 0.364 0.49189 0.0
H801 H 0.22766 0.3501 0.50621 0.0
H802 H 0.23444 0.33387 0.4797 0.0
H803 H 0.22049 0.31526 0.45735 0.0
H804 H 0.92576 0.00786 0.68336 0.0
H805 H 0.90579 0.0182 0.70623 0.0
H806 H 0.89685 0.96476 0.72296 0.0
H807 H 0.91715 0.95421 0.70007 0.0
H808 H 0.8655 0.98635 0.71465 0.0
H809 H 0.91107 0.01898 0.76121 0.0
H810 H 0.91543 0.02402 0.73853 0.0
H811 H 0.91802 0.00183 0.74627 0.0
C812 C 0.91976 0.99829 0.69204 0.0
C813 C 0.92299 0.98023 0.68992 0.0
C814 C 0.90843 0.00424 0.70517 0.0
C815 C 0.90002 0.99225 0.71637 0.0
C816 C 0.90338 0.9742 0.71452 0.0
H817 H 0.82942 0.04568 0.79155 0.0
H818 H 0.84876 0.02213 0.78069 0.0
C819 C 0.91496 0.96822 0.70148 0.0
C820 C 0.88661 0.99881 0.72883 0.0
H821 H 0.88105 0.02923 0.76132 0.0
C822 C 0.86886 0.99536 0.72519 0.0
C823 C 0.89106 0.01041 0.74265 0.0
C824 C 0.90994 0.01393 0.74755 0.0
C825 C 0.85543 0.00438 0.73407 0.0
C826 C 0.85994 0.01717 0.74679 0.0
C827 C 0.87763 0.0195 0.75147 0.0
C828 C 0.8469 0.02999 0.7534 0.0
C829 C 0.83655 0.00081 0.72918 0.0
C830 C 0.83952 0.04212 0.74165 0.0
C831 C 0.82872 0.0556 0.74778 0.0
C832 C 0.82502 0.05719 0.76582 0.0
C833 C 0.83199 0.04471 0.77757 0.0
C834 C 0.84302 0.03129 0.77141 0.0
H835 H 0.83496 0.98745 0.72348 0.0
H836 H 0.82778 0.00209 0.7408 0.0
H837 H 0.83228 0.01052 0.71915 0.0
H838 H 0.84261 0.04152 0.72775 0.0
H839 H 0.82354 0.065 0.7384 0.0
H840 H 0.25514 0.65231 0.92312 0.0
H841 H 0.24428 0.63442 0.94735 0.0
H842 H 0.28189 0.65838 0.98236 0.0
H843 H 0.29304 0.67651 0.95793 0.0
H844 H 0.26502 0.61052 0.97149 0.0
H845 H 0.23029 0.66667 0.00357 0.0
H846 H 0.23632 0.6676 0.98062 0.0
H847 H 0.25303 0.66882 0.99719 0.0
C848 C 0.26121 0.65378 0.93593 0.0
C849 C 0.27487 0.66592 0.93865 0.0
C850 C 0.25503 0.64347 0.94973 0.0
C851 C 0.26227 0.64513 0.96659 0.0
C852 C 0.27614 0.65698 0.9694 0.0
H853 H 0.2073 0.57383 0.04129 0.0
H854 H 0.23219 0.59161 0.03065 0.0
C855 C 0.28247 0.66728 0.95547 0.0
C856 C 0.25434 0.63491 0.98109 0.0
H857 H 0.22172 0.63815 0.01172 0.0
C858 C 0.25598 0.61653 0.98075 0.0
C859 C 0.24252 0.64287 0.99302 0.0
C860 C 0.2403 0.66258 0.99374 0.0
C861 C 0.24512 0.60582 0.99115 0.0
C862 C 0.23234 0.61377 0.00205 0.0
C863 C 0.23163 0.63216 0.00338 0.0
C864 C 0.21758 0.60345 0.00931 0.0
C865 C 0.24628 0.5861 0.98935 0.0
C866 C 0.20125 0.60436 0.00085 0.0
C867 C 0.18717 0.59425 0.00675 0.0
C868 C 0.1891 0.58306 0.02133 0.0
C869 C 0.20544 0.58232 0.03001 0.0
C870 C 0.21964 0.59244 0.02398 0.0
H871 H 0.25701 0.58198 0.98032 0.0
H872 H 0.24862 0.58009 0.00244 0.0
H873 H 0.23363 0.58086 0.98428 0.0
H874 H 0.19947 0.61276 0.98947 0.0
H875 H 0.17477 0.5952 -0.00019 0.0
H876 H 0.5938 0.00338 0.17566 0.0
H877 H 0.61309 0.99367 0.19927 0.0
H878 H 0.59492 0.03621 0.23209 0.0
H879 H 0.57534 0.04618 0.20828 0.0
H880 H 0.6403 0.01632 0.21744 0.0
H881 H 0.58832 0.98798 0.26082 0.0
H882 H 0.58448 0.99079 0.23755 0.0
H883 H 0.58573 0.00969 0.25157 0.0
C884 C 0.59383 0.01073 0.18786 0.0
C885 C 0.58301 0.02554 0.19011 0.0
C886 C 0.60491 0.00517 0.20133 0.0
C887 C 0.60537 0.01421 0.21738 0.0
C888 C 0.59465 0.02904 0.21978 0.0
H889 H 0.66863 0.95843 0.29796 0.0
H890 H 0.65134 0.98316 0.28613 0.0
C891 C 0.58353 0.03471 0.20619 0.0
C892 C 0.6172 0.00765 0.23133 0.0
H893 H 0.61754 0.97928 0.2661 0.0
C894 C 0.63538 0.00866 0.22842 0.0
C895 C 0.61071 0.99776 0.24566 0.0
C896 C 0.59125 0.99638 0.24922 0.0
C897 C 0.64718 0.99888 0.23866 0.0
C898 C 0.64056 0.98768 0.25193 0.0
C899 C 0.62253 0.98789 0.25588 0.0
C900 C 0.65153 0.97348 0.25938 0.0
C901 C 0.66655 -0.00026 0.2345 0.0
C902 C 0.6571 0.95987 0.24827 0.0
C903 C 0.66672 0.94579 0.25494 0.0
C904 C 0.67102 0.94501 0.27289 0.0
C905 C 0.66556 0.95874 0.28406 0.0
C906 C 0.65571 0.97283 0.27735 0.0
H907 H 0.67005 0.0124 0.22809 0.0
H908 H 0.67459 0.99814 0.24658 0.0
H909 H 0.66995 0.98894 0.22528 0.0
H910 H 0.65376 0.96001 0.23442 0.0
H911 H 0.67072 0.93546 0.24597 0.0
H912 H 0.70579 0.17849 0.54281 0.0
H913 H 0.7165 0.16026 0.51828 0.0
H914 H 0.74848 0.13049 0.55443 0.0
H915 H 0.73808 0.14855 0.57876 0.0
H916 H 0.75335 0.15719 0.50932 0.0
H917 H 0.72389 0.09236 0.5241 0.0
H918 H 0.71491 0.11276 0.53243 0.0
H919 H 0.73334 0.10253 0.54321 0.0
C920 C 0.71491 0.16788 0.5455 0.0
C921 C 0.72116 0.16497 0.56267 0.0
C922 C 0.72098 0.1575 0.53151 0.0
C923 C 0.73304 0.14387 0.53462 0.0
C924 C 0.7389 0.14071 0.55181 0.0
H925 H 0.8223 0.09794 0.49894 0.0
H926 H 0.79767 0.11564 0.50924 0.0
C927 C 0.73305 0.15116 0.56568 0.0
C928 C 0.74115 0.13395 0.51998 0.0
H929 H 0.75159 0.09195 0.50813 0.0
C930 C 0.75257 0.14296 0.50864 0.0
C931 C 0.73997 0.11542 0.51899 0.0
C932 C 0.72722 0.1052 0.53023 0.0
C933 C 0.76411 0.13376 0.49756 0.0
C934 C 0.7642 0.11518 0.49795 0.0
C935 C 0.75159 0.10622 0.50799 0.0
C936 C 0.77903 0.10503 0.49055 0.0
C937 C 0.77687 0.14395 0.48631 0.0
C938 C 0.77662 0.09304 0.47673 0.0
C939 C 0.79079 0.08289 0.47069 0.0
C940 C 0.80741 0.0844 0.47869 0.0
C941 C 0.80967 0.09643 0.49253 0.0
C942 C 0.79564 0.10665 0.49836 0.0
H943 H 0.77192 0.15741 0.48348 0.0
H944 H 0.78956 0.14521 0.49342 0.0
H945 H 0.77939 0.13705 0.47368 0.0
H946 H 0.76381 0.0915 0.47069 0.0
H947 H 0.78868 0.07368 0.46004 0.0
H948 H 0.16815 0.57008 0.75459 0.0
H949 H 0.15035 0.54627 0.76642 0.0
H950 H 0.14981 0.52099 0.71566 0.0
H951 H 0.16792 0.54497 0.70356 0.0
H952 H 0.11539 0.52568 0.73369 0.0
H953 H 0.16568 0.49433 0.77599 0.0
H954 H 0.16533 0.51787 0.77794 0.0
H955 H 0.17128 0.50793 0.7573 0.0
C956 C 0.16438 0.55944 0.7459 0.0
C957 C 0.16945 0.55941 0.72812 0.0
C958 C 0.15428 0.54578 0.75273 0.0
C959 C 0.149 0.53178 0.74197 0.0
C960 C 0.15393 0.53163 0.72418 0.0
H961 H 0.07487 0.45682 0.79284 0.0
H962 H 0.09489 0.46735 0.76965 0.0
C963 C 0.16425 0.5453 0.71732 0.0
C964 C 0.13757 0.51798 0.74952 0.0
H965 H 0.13535 0.49057 0.78496 0.0
C966 C 0.11981 0.51751 0.74452 0.0
C967 C 0.14343 0.50734 0.7636 0.0
C968 C 0.16252 0.50673 0.76893 0.0
C969 C 0.10747 0.50786 0.75432 0.0
C970 C 0.11313 0.49851 0.76933 0.0
C971 C 0.13109 0.49782 0.77344 0.0
C972 C 0.1005 0.49206 0.78256 0.0
C973 C 0.08827 0.50877 0.74949 0.0
C974 C 0.09707 0.50254 0.7973 0.0
C975 C 0.08575 0.49666 0.81044 0.0
C976 C 0.07764 0.48009 0.80914 0.0
C977 C 0.08092 0.46964 0.7942 0.0
C978 C 0.09231 0.4756 0.78097 0.0
H979 H 0.0861 0.5156 0.73675 0.0
H980 H 0.08271 0.49529 0.74865 0.0
H981 H 0.08096 0.5159 0.75994 0.0
H982 H 0.10331 0.51529 0.7987 0.0
H983 H 0.08352 0.50506 0.82173 0.0
H984 H 0.70249 0.92057 0.95629 0.0
H985 H 0.72556 0.90027 0.96645 0.0
H986 H 0.70252 0.90009 0.01828 0.0
H987 H 0.67961 0.92017 0.00836 0.0
H988 H 0.74139 0.90406 0.01614 0.0
H989 H 0.71369 0.8471 0.97909 0.0
H990 H 0.71779 0.86749 0.96771 0.0
H991 H 0.7006 0.86635 0.9838 0.0
C992 C 0.70248 0.91632 0.96989 0.0
C993 C 0.68918 0.92186 0.98151 0.0
C994 C 0.71561 0.90471 0.97563 0.0
C995 C 0.71562 0.89865 0.99307 0.0
C996 C 0.70271 0.90465 0.00478 0.0
H997 H 0.73813 0.81824 0.06097 0.0
H998 H 0.72807 0.83888 0.0386 0.0
C999 C 0.68959 0.91608 0.99905 0.0
C1000 C 0.72841 0.8854 0.99931 0.0
H1001 H 0.73472 0.84099 0.00081 0.0
C1002 C 0.74035 0.89031 0.01248 0.0
C1003 C 0.72685 0.86751 0.99451 0.0
C1004 C 0.71404 0.86164 0.98055 0.0
C1005 C 0.75 0.87763 0.0218 0.0
C1006 C 0.74764 0.85963 0.01772 0.0
C1007 C 0.73653 0.85482 0.0038 0.0
C1008 C 0.75419 0.8457 0.02961 0.0
C1009 C 0.76161 0.88344 0.03681 0.0
C1010 C 0.77223 0.84238 0.03165 0.0
C1011 C 0.77806 0.83051 0.04448 0.0
C1012 C 0.7659 0.8219 0.05546 0.0
C1013 C 0.74784 0.82474 0.05282 0.0
C1014 C 0.74205 0.83648 0.03999 0.0
H1015 H 0.7607 0.89782 0.03928 0.0
H1016 H 0.75796 0.87635 0.04905 0.0
H1017 H 0.7755 0.88018 0.03374 0.0
H1018 H 0.78177 0.84928 0.02364 0.0
H1019 H 0.79206 0.82854 0.04619 0.0
H1020 H 0.32093 0.43687 0.25406 0.0
H1021 H 0.34089 0.46005 0.26359 0.0
H1022 H 0.34859 0.47597 0.20969 0.0
H1023 H 0.32833 0.4527 0.19996 0.0
H1024 H 0.38017 0.46844 0.22939 0.0
H1025 H 0.33659 0.51439 0.26518 0.0
H1026 H 0.33244 0.49183 0.27077 0.0
H1027 H 0.32855 0.49931 0.24865 0.0
C1028 C 0.32661 0.44548 0.24422 0.0
C1029 C 0.32311 0.44296 0.22626 0.0
C1030 C 0.33792 0.4588 0.24971 0.0
C1031 C 0.34603 0.46985 0.23736 0.0
C1032 C 0.34229 0.46768 0.21941 0.0
H1033 H 0.41874 0.5417 0.29215 0.0
H1034 H 0.39879 0.53262 0.26839 0.0
C1035 C 0.33072 0.45442 0.2139 0.0
C1036 C 0.35976 0.48222 0.24342 0.0
H1037 H 0.367 0.5134 0.27483 0.0
C1038 C 0.3773 0.47865 0.23894 0.0
C1039 C 0.35599 0.49566 0.25569 0.0
C1040 C 0.33734 0.50066 0.26023 0.0
C1041 C 0.39121 0.48704 0.24769 0.0
C1042 C 0.38741 0.49916 0.26127 0.0
C1043 C 0.36989 0.50396 0.26453 0.0
C1044 C 0.40101 0.50481 0.27398 0.0
C1045 C 0.40986 0.4822 0.24298 0.0
C1046 C 0.40883 0.49217 0.2849 0.0
C1047 C 0.41998 0.49729 0.29851 0.0
C1048 C 0.4236 0.51516 0.30145 0.0
C1049 C 0.41625 0.52782 0.29013 0.0
C1050 C 0.40487 0.52267 0.27658 0.0
H1051 H 0.41079 0.47753 0.22917 0.0
H1052 H 0.41887 0.49356 0.24477 0.0
H1053 H 0.41434 0.47138 0.25169 0.0
H1054 H 0.40575 0.47835 0.28334 0.0
H1055 H 0.42545 0.48723 0.307 0.0
H1056 H 0.54638 0.29358 0.42908 0.0
H1057 H 0.53656 0.26973 0.40948 0.0
H1058 H 0.49654 0.30381 0.3882 0.0
H1059 H 0.50605 0.32743 0.40758 0.0
H1060 H 0.50001 0.25561 0.40751 0.0
H1061 H 0.52327 0.2836 0.34447 0.0
H1062 H 0.53257 0.28976 0.36549 0.0
H1063 H 0.5123 0.29948 0.35809 0.0
C1064 C 0.53555 0.29596 0.42014 0.0
C1065 C 0.52699 0.31238 0.41985 0.0
C1066 C 0.52999 0.28236 0.40899 0.0
C1067 C 0.51604 0.28516 0.39724 0.0
C1068 C 0.50754 0.30151 0.39697 0.0
H1069 H 0.43337 0.25426 0.33996 0.0
H1070 H 0.45802 0.26525 0.35713 0.0
C1071 C 0.51294 0.31497 0.40815 0.0
C1072 C 0.5094 0.27101 0.38568 0.0
H1073 H 0.49795 0.26424 0.34285 0.0
C1074 C 0.50006 0.25704 0.39332 0.0
C1075 C 0.50958 0.27291 0.36719 0.0
C1076 C 0.52013 0.28716 0.3583 0.0
C1077 C 0.48944 0.246 0.38299 0.0
C1078 C 0.48828 0.24907 0.36471 0.0
C1079 C 0.49888 0.26197 0.35691 0.0
C1080 C 0.47371 0.24171 0.35424 0.0
C1081 C 0.47831 0.23215 0.39178 0.0
C1082 C 0.47446 0.22479 0.34692 0.0
C1083 C 0.46029 0.2184 0.33697 0.0
C1084 C 0.44526 0.22889 0.33431 0.0
C1085 C 0.4447 0.24581 0.34174 0.0
C1086 C 0.45879 0.25215 0.35155 0.0
H1087 H 0.48172 0.23046 0.40588 0.0
H1088 H 0.46423 0.23589 0.39079 0.0
H1089 H 0.47996 0.21935 0.38494 0.0
H1090 H 0.48595 0.2166 0.34888 0.0
H1091 H 0.46109 0.20531 0.3314 0.0
H1092 H 0.00589 0.17239 0.59829 0.0
H1093 H 0.99595 0.1968 0.61649 0.0
H1094 H 0.03545 0.23042 0.59356 0.0
H1095 H 0.04566 0.20582 0.57513 0.0
H1096 H 0.0176 0.2195 0.64103 0.0
H1097 H 0.98505 0.25425 0.58517 0.0
H1098 H 0.98994 0.23105 0.5839 0.0
H1099 H 0.00746 0.24678 0.58308 0.0
C1100 C 0.01257 0.18492 0.59712 0.0
C1101 C 0.02649 0.18721 0.58519 0.0
C1102 C 0.00691 0.19883 0.6076 0.0
C1103 C 0.01496 0.21536 0.60632 0.0
C1104 C 0.02908 0.21772 0.59467 0.0
H1105 H 0.96269 0.29142 0.67832 0.0
H1106 H 0.98729 0.28023 0.66043 0.0
C1107 C 0.03487 0.20369 0.5842 0.0
C1108 C 0.00764 0.23004 0.61673 0.0
H1109 H 0.97669 0.26238 0.61377 0.0
C1110 C 0.00911 0.22932 0.63511 0.0
C1111 C 0.99654 0.24271 0.60888 0.0
C1112 C 0.99452 0.24387 0.58918 0.0
C1113 C 0.99872 0.24011 0.64591 0.0
C1114 C 0.9866 0.25178 0.63805 0.0
C1115 C 0.98611 0.25345 0.61969 0.0
C1116 C 0.97205 0.25946 0.64837 0.0
C1117 C -0.00039 0.23792 0.66561 0.0
C1118 C 0.95548 0.25151 0.64735 0.0
C1119 C 0.94158 0.25771 0.65752 0.0
C1120 C 0.94393 0.27209 0.66888 0.0
C1121 C 0.96051 0.2803 0.66969 0.0
C1122 C 0.97453 0.27396 0.65952 0.0
H1123 H 0.01001 0.22849 0.66967 0.0
H1124 H 0.00226 0.25083 0.67189 0.0
H1125 H 0.98675 0.23314 0.67061 0.0
H1126 H 0.95337 0.24026 0.63884 0.0
H1127 H 0.92899 0.25113 0.65651 0.0
H1128 H 0.95531 0.70532 0.92545 0.0
H1129 H 0.96498 0.7285 0.90497 0.0
H1130 H 0.00671 0.69478 0.88661 0.0
H1131 H 0.99739 0.67184 0.90688 0.0
H1132 H 0.00243 0.74324 0.90268 0.0
H1133 H 0.97849 0.71174 0.84151 0.0
H1134 H 0.96914 0.70713 0.8629 0.0
H1135 H 0.98935 0.6968 0.85626 0.0
C1136 C 0.96653 0.70289 0.91702 0.0
C1137 C 0.97558 0.68676 0.91777 0.0
C1138 C 0.972 0.71611 0.90536 0.0
C1139 C 0.98638 0.71318 0.89416 0.0
C1140 C 0.99543 0.69715 0.89499 0.0
H1141 H 0.066 0.74112 0.8303 0.0
H1142 H 0.04163 0.7302 0.84794 0.0
C1143 C 0.99012 0.6841 0.90667 0.0
C1144 C 0.99269 0.72679 0.88182 0.0
H1145 H 0.00321 0.73147 0.83849 0.0
C1146 C 0.00213 0.74113 0.88857 0.0
C1147 C 0.99219 0.72394 0.86347 0.0
C1148 C 0.9816 0.70915 0.85556 0.0
C1149 C 0.01252 0.75167 0.87751 0.0
C1150 C 0.0133 0.74774 0.85935 0.0
C1151 C 0.00261 0.7344 0.85244 0.0
C1152 C 0.02744 0.75485 0.84808 0.0
C1153 C 0.0238 0.76593 0.88544 0.0
C1154 C 0.02741 0.77235 0.84219 0.0
C1155 C 0.0414 0.77868 0.83197 0.0
C1156 C 0.05558 0.76758 0.82764 0.0
C1157 C 0.05534 0.75004 0.83344 0.0
C1158 C 0.0414 0.74375 0.84349 0.0
H1159 H 0.02187 0.76714 0.89988 0.0
H1160 H 0.03789 0.76313 0.8828 0.0
H1161 H 0.02061 0.77874 0.87922 0.0
H1162 H 0.01666 0.78106 0.84555 0.0
H1163 H 0.04124 0.79226 0.82768 0.0
H1164 H 0.56133 0.7549 0.17321 0.0
H1165 H 0.53757 0.76409 0.15377 0.0
H1166 H 0.52315 0.70989 0.14533 0.0
H1167 H 0.54698 0.70049 0.16512 0.0
H1168 H 0.5295 0.73149 0.11381 0.0
H1169 H 0.48295 0.76278 0.16024 0.0
H1170 H 0.50544 0.76884 0.16418 0.0
H1171 H 0.49874 0.74632 0.16698 0.0
C1172 C 0.55299 0.74491 0.16742 0.0
C1173 C 0.55604 0.72697 0.17064 0.0
C1174 C 0.53934 0.75019 0.15642 0.0
C1175 C 0.52849 0.73767 0.14833 0.0
C1176 C 0.53129 0.71973 0.15165 0.0
H1177 H 0.45278 0.79191 0.07889 0.0
H1178 H 0.46317 0.76772 0.09772 0.0
C1179 C 0.54487 0.71441 0.16291 0.0
C1180 C 0.51546 0.74366 0.13521 0.0
H1181 H 0.48254 0.77371 0.13031 0.0
C1182 C 0.51886 0.7403 0.11739 0.0
C1183 C 0.5015 0.75498 0.13992 0.0
C1184 C 0.4968 0.75833 0.1589 0.0
C1185 C 0.50971 0.74932 0.10414 0.0
C1186 C 0.49698 0.762 0.10892 0.0
C1187 C 0.49241 0.76407 0.12668 0.0
C1188 C 0.49057 0.77521 0.09618 0.0
C1189 C 0.51443 0.74598 0.08517 0.0
C1190 C 0.50254 0.78737 0.08921 0.0
C1191 C 0.49667 0.80121 0.07874 0.0
C1192 C 0.4787 0.80315 0.07496 0.0
C1193 C 0.46672 0.79067 0.08154 0.0
C1194 C 0.47261 0.77688 0.09226 0.0
H1195 H 0.51998 0.73258 0.08337 0.0
H1196 H 0.50278 0.7475 0.0765 0.0
H1197 H 0.52454 0.75563 0.08098 0.0
H1198 H 0.51641 0.78649 0.09236 0.0
H1199 H 0.50623 0.81058 0.07385 0.0
H1200 H 0.17341 0.30314 0.33464 0.0
H1201 H 0.17832 0.31794 0.30642 0.0
H1202 H 0.19933 0.36302 0.33357 0.0
H1203 H 0.19465 0.34837 0.36177 0.0
H1204 H 0.17398 0.36283 0.29414 0.0
H1205 H 0.2384 0.32862 0.30263 0.0
H1206 H 0.21816 0.31888 0.31031 0.0
H1207 H 0.22729 0.3374 0.32165 0.0
C1208 C 0.17842 0.31648 0.33465 0.0
C1209 C 0.18391 0.3245 0.3504 0.0
C1210 C 0.18118 0.32491 0.31851 0.0
C1211 C 0.18923 0.34149 0.31801 0.0
C1212 C 0.19303 0.35024 0.33377 0.0
H1213 H 0.25636 0.40078 0.25232 0.0
H1214 H 0.23597 0.39013 0.2747 0.0
C1215 C 0.19042 0.3418 0.34985 0.0
C1216 C 0.19701 0.34809 0.3015 0.0
H1217 H 0.23595 0.34858 0.27925 0.0
C1218 C 0.18743 0.35958 0.29068 0.0
C1219 C 0.21456 0.3438 0.29718 0.0
C1220 C 0.22531 0.33147 0.30845 0.0
C1221 C 0.19527 0.36725 0.27576 0.0
C1222 C 0.21298 0.36332 0.2718 0.0
C1223 C 0.22234 0.35152 0.2824 0.0
C1224 C 0.22264 0.37197 0.25737 0.0
C1225 C 0.1849 0.3799 0.26458 0.0
C1226 C 0.22158 0.36548 0.24014 0.0
C1227 C 0.23331 0.37148 0.22727 0.0
C1228 C 0.24632 0.38395 0.23153 0.0
C1229 C 0.24661 0.39109 0.2486 0.0
C1230 C 0.23492 0.38509 0.2614 0.0
H1231 H 0.17129 0.38179 0.26954 0.0
H1232 H 0.19167 0.39284 0.26423 0.0
H1233 H 0.18428 0.37492 0.25086 0.0
H1234 H 0.21229 0.35518 0.2369 0.0
H1235 H 0.23271 0.36572 0.21425 0.0
H1236 H 0.87773 0.98948 0.46629 0.0
H1237 H 0.88695 0.96762 0.48808 0.0
H1238 H 0.85968 0.99651 0.52859 0.0
H1239 H 0.8502 0.01814 0.507 0.0
H1240 H 0.90791 0.97524 0.51547 0.0
H1241 H 0.8464 0.94675 0.54118 0.0
H1242 H 0.84726 0.95874 0.52068 0.0
H1243 H 0.84531 0.9703 0.54129 0.0
C1244 C 0.8734 0.99097 0.47977 0.0
C1245 C 0.86331 0.00562 0.48491 0.0
C1246 C 0.87865 0.97845 0.49219 0.0
C1247 C 0.87377 0.98027 0.50991 0.0
C1248 C 0.86321 0.99455 0.51493 0.0
H1249 H 0.90718 0.96695 0.61177 0.0
H1250 H 0.8912 0.97013 0.58417 0.0
C1251 C 0.85795 0.00704 0.50256 0.0
C1252 C 0.88157 0.96882 0.52363 0.0
H1253 H 0.8713 0.94696 0.56149 0.0
C1254 C 0.89995 0.96859 0.52527 0.0
C1255 C 0.87116 0.9601 0.53636 0.0
C1256 C 0.85144 0.95882 0.53467 0.0
C1257 C 0.90812 0.96124 0.54008 0.0
C1258 C 0.89761 0.95371 0.55346 0.0
C1259 C 0.87931 0.95281 0.55123 0.0
C1260 C 0.90516 0.94924 0.57082 0.0
C1261 C 0.92783 0.9628 0.54192 0.0
C1262 C 0.91781 0.93592 0.57268 0.0
C1263 C 0.92705 0.93408 0.58849 0.0
C1264 C 0.92376 0.94557 0.60264 0.0
C1265 C 0.91018 0.95802 0.60108 0.0
C1266 C 0.90097 0.95981 0.58533 0.0
H1267 H 0.93375 0.97104 0.5314 0.0
H1268 H 0.9313 0.96859 0.55487 0.0
H1269 H 0.93383 0.94952 0.5412 0.0
H1270 H 0.92106 0.92748 0.56166 0.0
H1271 H 0.93736 0.92429 0.5893 0.0
H1272 H 0.23849 0.59522 0.75106 0.0
H1273 H 0.25835 0.60493 0.77433 0.0
H1274 H 0.28015 0.64418 0.73971 0.0
H1275 H 0.26042 0.6344 0.71613 0.0
H1276 H 0.3054 0.62602 0.76484 0.0
H1277 H 0.24533 0.65457 0.79523 0.0
H1278 H 0.24365 0.63168 0.78961 0.0
H1279 H 0.24616 0.64779 0.77249 0.0
C1280 C 0.24773 0.6057 0.74825 0.0
C1281 C 0.24767 0.61425 0.73185 0.0
C1282 C 0.2591 0.61118 0.76154 0.0
C1283 C 0.2705 0.62539 0.75876 0.0
C1284 C 0.27141 0.63317 0.74206 0.0
H1285 H 0.3232 0.69224 0.83462 0.0
H1286 H 0.31751 0.67633 0.80716 0.0
C1287 C 0.26009 0.62761 0.72865 0.0
C1288 C 0.27961 0.63345 0.77391 0.0
H1289 H 0.2712 0.65483 0.8124 0.0
C1290 C 0.29801 0.63241 0.77523 0.0
C1291 C 0.26987 0.64194 0.78728 0.0
C1292 C 0.25018 0.64425 0.78608 0.0
C1293 C 0.30685 0.63918 0.79003 0.0
C1294 C 0.29698 0.64711 0.80362 0.0
C1295 C 0.27868 0.6485 0.80202 0.0
C1296 C 0.30501 0.65415 0.81985 0.0
C1297 C 0.32655 0.63747 0.79133 0.0
C1298 C 0.30046 0.6466 0.83604 0.0
C1299 C 0.30354 0.65567 0.85167 0.0
C1300 C 0.31119 0.67249 0.85137 0.0
C1301 C 0.3173 0.67928 0.83527 0.0
C1302 C 0.31411 0.6702 0.81957 0.0
H1303 H 0.33206 0.62907 0.78072 0.0
H1304 H 0.33261 0.65072 0.79039 0.0
H1305 H 0.33026 0.63183 0.80429 0.0
H1306 H 0.29336 0.63424 0.83648 0.0
H1307 H 0.29883 0.65001 0.86387 0.0
H1308 H 0.59556 0.04536 0.11289 0.0
H1309 H 0.61077 0.04292 0.08487 0.0
H1310 H 0.57175 0.07612 0.06051 0.0
H1311 H 0.55618 0.07843 0.08862 0.0
H1312 H 0.57463 0.04464 0.04454 0.0
H1313 H 0.64123 0.07202 0.05269 0.0
H1314 H 0.63603 0.05745 0.07048 0.0
H1315 H 0.62342 0.07731 0.06752 0.0
C1316 C 0.59043 0.05256 0.10171 0.0
C1317 C 0.57453 0.06192 0.10296 0.0
C1318 C 0.59928 0.05129 0.08569 0.0
C1319 C 0.59251 0.05948 0.0706 0.0
C1320 C 0.57727 0.06981 0.07203 0.0
H1321 H 0.61921 0.01685 0.96584 0.0
H1322 H 0.60914 0.03885 0.98715 0.0
C1323 C 0.5684 0.07112 0.08812 0.0
C1324 C 0.59968 0.05464 0.05311 0.0
H1325 H 0.63841 0.04809 0.03137 0.0
C1326 C 0.58848 0.04585 0.04137 0.0
C1327 C 0.61776 0.05622 0.04902 0.0
C1328 C 0.63024 0.06644 0.06055 0.0
C1329 C 0.5951 0.03728 0.02643 0.0
C1330 C 0.61338 0.0378 0.02301 0.0
C1331 C 0.62441 0.04764 0.03408 0.0
C1332 C 0.62146 0.0263 0.00952 0.0
C1333 C 0.58266 0.02661 0.01521 0.0
C1334 C 0.63233 0.01243 0.01494 0.0
C1335 C 0.63816 -8e-05 0.00285 0.0
C1336 C 0.63323 0.00104 0.98505 0.0
C1337 C 0.62311 0.01551 0.97947 0.0
C1338 C 0.61731 0.02807 0.99162 0.0
H1339 H 0.56941 0.0254 0.02125 0.0
H1340 H 0.58113 0.03307 0.00221 0.0
H1341 H 0.58799 0.0132 0.01297 0.0
H1342 H 0.6357 0.01084 0.0287 0.0
H1343 H 0.64604 0.98905 0.0076 0.0
H1344 H 0.70006 0.15288 0.64011 0.0
H1345 H 0.7023 0.138 0.66831 0.0
H1346 H 0.67178 0.17914 0.69271 0.0
H1347 H 0.66969 0.19437 0.6644 0.0
H1348 H 0.70339 0.1751 0.70789 0.0
H1349 H 0.67294 0.10964 0.70199 0.0
H1350 H 0.68714 0.11371 0.68363 0.0
H1351 H 0.66801 0.12733 0.6869 0.0
C1352 C 0.69337 0.15855 0.65134 0.0
C1353 C 0.68489 0.17493 0.65004 0.0
C1354 C 0.69451 0.1499 0.66747 0.0
C1355 C 0.68707 0.15735 0.68263 0.0
C1356 C 0.67751 0.17309 0.68115 0.0
H1357 H 0.7333 0.1303 0.78577 0.0
H1358 H 0.71053 0.14092 0.76556 0.0
C1359 C 0.67632 0.18177 0.66495 0.0
C1360 C 0.69208 0.15033 0.70012 0.0
H1361 H 0.69799 0.11169 0.72219 0.0
C1362 C 0.70174 0.16135 0.71134 0.0
C1363 C 0.68993 0.1324 0.70459 0.0
C1364 C 0.67877 0.12016 0.69369 0.0
C1365 C 0.71065 0.15462 0.72602 0.0
C1366 C 0.7096 0.13641 0.72972 0.0
C1367 C 0.69886 0.12563 0.71927 0.0
C1368 C 0.7215 0.12806 0.74267 0.0
C1369 C 0.72224 0.16679 0.73661 0.0
C1370 C 0.73472 0.11672 0.73661 0.0
C1371 C 0.74766 0.11059 0.74808 0.0
C1372 C 0.74763 0.11567 0.76586 0.0
C1373 C 0.73379 0.12627 0.77212 0.0
C1374 C 0.7208 0.13239 0.7606 0.0
H1375 H 0.72356 0.17997 0.73042 0.0
H1376 H 0.7165 0.16859 0.74991 0.0
H1377 H 0.73558 0.16105 0.7382 0.0
H1378 H 0.73548 0.11321 0.72282 0.0
H1379 H 0.75802 0.10234 0.74282 0.0
H1380 H 0.14308 0.5192 0.99187 0.0
H1381 H 0.13307 0.49789 0.97011 0.0
H1382 H 0.10956 0.46662 0.01118 0.0
H1383 H 0.1193 0.48809 0.03315 0.0
H1384 H 0.1382 0.46105 0.96599 0.0
H1385 H 0.0681 0.47852 0.97861 0.0
H1386 H 0.08602 0.49167 0.98688 0.0
H1387 H 0.08078 0.47104 0.9971 0.0
C1388 C 0.13591 0.50774 0.99635 0.0
C1389 C 0.13178 0.50549 0.01425 0.0
C1390 C 0.13026 0.49553 0.98388 0.0
C1391 C 0.12039 0.48082 0.98901 0.0
C1392 C 0.11694 0.47805 0.00693 0.0
H1393 H 0.05734 0.4251 0.91034 0.0
H1394 H 0.0733 0.42848 0.93813 0.0
C1395 C 0.12256 0.49031 0.01946 0.0
C1396 C 0.11274 0.46929 0.97532 0.0
H1397 H 0.07396 0.46015 0.95473 0.0
C1398 C 0.12413 0.46057 0.96368 0.0
C1399 C 0.09438 0.46858 0.97242 0.0
C1400 C 0.08155 0.47801 0.9843 0.0
C1401 C 0.11767 0.45189 0.94872 0.0
C1402 C 0.09942 0.45222 0.9452 0.0
C1403 C 0.08796 0.4599 0.95746 0.0
C1404 C 0.09212 0.44718 0.92784 0.0
C1405 C 0.13051 0.4429 0.93656 0.0
C1406 C 0.09766 0.45626 0.91276 0.0
C1407 C 0.08857 0.45441 0.89694 0.0
C1408 C 0.07367 0.44352 0.89589 0.0
C1409 C 0.06879 0.43357 0.91071 0.0
C1410 C 0.07788 0.43549 0.9266 0.0
H1411 H 0.14222 0.43813 0.94389 0.0
H1412 H 0.12433 0.4316 0.92966 0.0
H1413 H 0.13514 0.45247 0.92656 0.0
H1414 H 0.10835 0.46565 0.91347 0.0
H1415 H 0.09272 0.46223 0.88577 0.0
H1416 H 0.74733 0.85895 0.27416 0.0
H1417 H 0.76503 0.85088 0.24868 0.0
H1418 H 0.7673 0.90543 0.23291 0.0
H1419 H 0.7483 0.91324 0.25769 0.0
H1420 H 0.7587 0.88872 0.20678 0.0
H1421 H 0.81394 0.85097 0.23362 0.0
H1422 H 0.7942 0.84123 0.24189 0.0
H1423 H 0.79965 0.86364 0.24771 0.0
C1424 C 0.75199 0.86924 0.26547 0.0
C1425 C 0.74648 0.88668 0.26781 0.0
C1426 C 0.7623 0.86466 0.25096 0.0
C1427 C 0.76787 0.87755 0.2389 0.0
C1428 C 0.76322 0.8952 0.24195 0.0
H1429 H 0.8212 0.82933 0.14773 0.0
H1430 H 0.8173 0.84839 0.17351 0.0
C1431 C 0.75241 0.89968 0.25612 0.0
C1432 C 0.7762 0.87227 0.22197 0.0
H1433 H 0.80411 0.84204 0.204 0.0
C1434 C 0.76897 0.87885 0.20627 0.0
C1435 C 0.78998 0.85976 0.22098 0.0
C1436 C 0.79999 0.85371 0.237 0.0
C1437 C 0.77412 0.8723 0.18983 0.0
C1438 C 0.78615 0.85812 0.18904 0.0
C1439 C 0.79449 0.85256 0.20457 0.0
C1440 C 0.78884 0.84782 0.17265 0.0
C1441 C 0.76632 0.88052 0.17353 0.0
C1442 C 0.7742 0.8411 0.16364 0.0
C1443 C 0.77638 0.83059 0.14879 0.0
C1444 C 0.79329 0.82607 0.14288 0.0
C1445 C 0.80801 0.83266 0.15194 0.0
C1446 C 0.80579 0.84351 0.16667 0.0
H1447 H 0.76391 0.89479 0.17557 0.0
H1448 H 0.77503 0.87889 0.16192 0.0
H1449 H 0.75343 0.87431 0.17069 0.0
H1450 H 0.76099 0.84359 0.16834 0.0
H1451 H 0.76476 0.8255 0.14232 0.0
H1452 H 0.37564 0.51059 0.52948 0.0
H1453 H 0.38369 0.52996 0.50505 0.0
H1454 H 0.36107 0.49314 0.46832 0.0
H1455 H 0.35278 0.47386 0.49253 0.0
H1456 H 0.40632 0.52065 0.47896 0.0
H1457 H 0.34265 0.53959 0.44959 0.0
H1458 H 0.34441 0.53053 0.4715 0.0
H1459 H 0.34424 0.51624 0.4526 0.0
C1460 C 0.3721 0.50675 0.51622 0.0
C1461 C 0.36362 0.49063 0.51296 0.0
C1462 C 0.37669 0.51787 0.50229 0.0
C1463 C 0.37273 0.51314 0.4849 0.0
C1464 C 0.36385 0.49729 0.48166 0.0
H1465 H 0.40635 0.52316 0.38147 0.0
H1466 H 0.39033 0.51953 0.40899 0.0
C1467 C 0.35928 0.48618 0.49554 0.0
C1468 C 0.37965 0.52356 0.46995 0.0
H1469 H 0.36797 0.54089 0.43021 0.0
C1470 C 0.39793 0.52549 0.46848 0.0
C1471 C 0.36866 0.52988 0.45634 0.0
C1472 C 0.34888 0.52912 0.45766 0.0
C1473 C 0.40562 0.53236 0.45318 0.0
C1474 C 0.39466 0.53772 0.43912 0.0
C1475 C 0.37632 0.53674 0.44101 0.0
C1476 C 0.40209 0.54212 0.42168 0.0
C1477 C 0.42542 0.53268 0.45173 0.0
C1478 C 0.41345 0.55649 0.41944 0.0
C1479 C 0.42274 0.55858 0.40368 0.0
C1480 C 0.42076 0.54632 0.38995 0.0
C1481 C 0.40835 0.53273 0.39183 0.0
C1482 C 0.39911 0.53067 0.40754 0.0
H1483 H 0.43189 0.52545 0.46266 0.0
H1484 H 0.42974 0.5268 0.43908 0.0
H1485 H 0.43006 0.54651 0.45208 0.0
H1486 H 0.41569 0.56564 0.43012 0.0
H1487 H 0.4321 0.56927 0.40262 0.0
H1488 H 0.25618 0.27307 0.3945 0.0
H1489 H 0.27968 0.25277 0.38627 0.0
H1490 H 0.24134 0.21619 0.3661 0.0
H1491 H 0.21767 0.23648 0.37414 0.0
H1492 H 0.28599 0.21586 0.39484 0.0
H1493 H 0.27357 0.22789 0.32358 0.0
H1494 H 0.26469 0.24198 0.34048 0.0
H1495 H 0.25524 0.22069 0.33667 0.0
C1496 C 0.25269 0.26066 0.38845 0.0
C1497 C 0.23504 0.25651 0.38479 0.0
C1498 C 0.26614 0.24904 0.38383 0.0
C1499 C 0.26223 0.2331 0.37542 0.0
C1500 C 0.24462 0.22854 0.3724 0.0
H1501 H 0.34222 0.17539 0.31639 0.0
H1502 H 0.31445 0.17964 0.33212 0.0
C1503 C 0.23113 0.24016 0.37702 0.0
C1504 C 0.27673 0.22196 0.36878 0.0
H1505 H 0.29793 0.21067 0.33091 0.0
C1506 C 0.2885 0.21448 0.38086 0.0
C1507 C 0.27985 0.22007 0.35054 0.0
C1508 C 0.26778 0.22814 0.33699 0.0
C1509 C 0.30372 0.20569 0.37516 0.0
C1510 C 0.30738 0.20472 0.35694 0.0
C1511 C 0.29509 0.21137 0.34487 0.0
C1512 C 0.32477 0.19916 0.35008 0.0
C1513 C 0.31585 0.19781 0.38873 0.0
C1514 C 0.33991 0.20833 0.35528 0.0
C1515 C 0.35577 0.20591 0.34638 0.0
C1516 C 0.35677 0.19441 0.33192 0.0
C1517 C 0.3419 0.18435 0.32746 0.0
C1518 C 0.326 0.18678 0.33642 0.0
H1519 H 0.30842 0.19364 0.40061 0.0
H1520 H 0.32309 0.18629 0.38341 0.0
H1521 H 0.32555 0.20788 0.3929 0.0
H1522 H 0.33924 0.21824 0.36549 0.0
H1523 H 0.36696 0.21384 0.35021 0.0
H1524 H 0.01597 0.96291 0.61705 0.0
H1525 H 0.03861 0.98375 0.60752 0.0
H1526 H 0.01539 0.02391 0.64018 0.0
H1527 H 0.993 0.00325 0.64994 0.0
H1528 H 0.03072 0.01316 0.58935 0.0
H1529 H 0.06705 0.03231 0.64909 0.0
H1530 H 0.05372 0.01266 0.64806 0.0
H1531 H 0.0438 0.03369 0.65268 0.0
C1532 C 0.01593 0.97606 0.62252 0.0
C1533 C 0.00259 0.98145 0.63416 0.0
C1534 C 0.0289 0.98794 0.61708 0.0
C1535 C 0.02886 0.00532 0.62333 0.0
C1536 C 0.016 0.01046 0.63552 0.0
H1537 H 0.04451 0.10841 0.59696 0.0
H1538 H 0.04235 0.07984 0.61125 0.0
C1539 C 0.00305 0.99865 0.64094 0.0
C1540 C 0.04041 0.01884 0.61533 0.0
H1541 H 0.06559 0.05448 0.62584 0.0
C1542 C 0.0388 0.02191 0.59721 0.0
C1543 C 0.05097 0.03019 0.62561 0.0
C1544 C 0.05413 0.02692 0.64491 0.0
C1545 C 0.04611 0.03691 0.58937 0.0
C1546 C 0.05557 0.04899 0.59992 0.0
C1547 C 0.0583 0.04523 0.61779 0.0
C1548 C 0.0601 0.06673 0.59326 0.0
C1549 C 0.04242 0.04043 0.57016 0.0
C1550 C 0.07148 0.06904 0.57891 0.0
C1551 C 0.07268 0.08543 0.57059 0.0
C1552 C 0.06252 0.09971 0.57656 0.0
C1553 C 0.05234 0.09765 0.59187 0.0
C1554 C 0.05115 0.08132 0.60013 0.0
H1555 H 0.0328 0.03097 0.56454 0.0
H1556 H 0.03723 0.05396 0.56835 0.0
H1557 H 0.05483 0.03931 0.56256 0.0
H1558 H 0.07873 0.05798 0.57361 0.0
H1559 H 0.08076 0.08661 0.55891 0.0
H1560 H 0.24285 0.7287 0.89487 0.0
H1561 H 0.21977 0.74912 0.88598 0.0
H1562 H 0.25875 0.78416 0.86433 0.0
H1563 H 0.28203 0.76362 0.8729 0.0
H1564 H 0.21308 0.78517 0.89288 0.0
H1565 H 0.22732 0.77237 0.8221 0.0
H1566 H 0.2364 0.75894 0.83941 0.0
H1567 H 0.24523 0.78045 0.83522 0.0
C1568 C 0.24659 0.74081 0.88836 0.0
C1569 C 0.26429 0.7444 0.88437 0.0
C1570 C 0.23336 0.75251 0.88336 0.0
C1571 C 0.23754 0.76801 0.87428 0.0
C1572 C 0.25524 0.77211 0.87107 0.0
H1573 H 0.15724 0.8235 0.81334 0.0
H1574 H 0.18478 0.82022 0.82968 0.0
C1575 C 0.26852 0.76037 0.87601 0.0
C1576 C 0.22316 0.77901 0.86713 0.0
H1577 H 0.20256 0.78929 0.82863 0.0
C1578 C 0.2109 0.78634 0.87883 0.0
C1579 C 0.22042 0.7806 0.84879 0.0
C1580 C 0.23293 0.7726 0.83559 0.0
C1581 C 0.19555 0.79456 0.87267 0.0
C1582 C 0.19231 0.79518 0.85437 0.0
C1583 C 0.20509 0.78883 0.84267 0.0
C1584 C 0.17489 0.79997 0.84706 0.0
C1585 C 0.18276 0.80209 0.88583 0.0
C1586 C 0.16009 0.78999 0.85169 0.0
C1587 C 0.14439 0.79179 0.84239 0.0
C1588 C 0.1432 0.80353 0.82814 0.0
C1589 C 0.1577 0.81434 0.82423 0.0
C1590 C 0.17346 0.81248 0.83355 0.0
H1591 H 0.18964 0.80641 0.89797 0.0
H1592 H 0.17544 0.81344 0.88026 0.0
H1593 H 0.17315 0.79178 0.88961 0.0
H1594 H 0.16097 0.77997 0.86179 0.0
H1595 H 0.13347 0.78329 0.84578 0.0
H1596 H 0.51679 0.99432 0.15363 0.0
H1597 H 0.49864 0.96966 0.14399 0.0
H1598 H 0.47022 0.00396 0.10892 0.0
H1599 H 0.48823 0.02889 0.11862 0.0
H1600 H 0.44924 0.97557 0.12774 0.0
H1601 H 0.50891 0.95275 0.09215 0.0
H1602 H 0.51215 0.95741 0.11509 0.0
H1603 H 0.50657 0.97494 0.10026 0.0
C1604 C 0.50649 0.99673 0.14409 0.0
C1605 C 0.50415 0.01351 0.13667 0.0
C1606 C 0.4961 0.98263 0.13865 0.0
C1607 C 0.48329 0.98501 0.12562 0.0
C1608 C 0.48007 0.00192 0.11901 0.0
H1609 H 0.42905 0.90864 0.06022 0.0
H1610 H 0.43508 0.93546 0.07702 0.0
C1611 C 0.49042 0.01611 0.12453 0.0
C1612 C 0.47492 0.96948 0.11747 0.0
H1613 H 0.48475 0.93329 0.09292 0.0
C1614 C 0.45691 0.96632 0.12006 0.0
C1615 C 0.485 0.95763 0.1073 0.0
C1616 C 0.50419 0.96086 0.10336 0.0
C1617 C 0.44885 0.95114 0.11317 0.0
C1618 C 0.45911 0.93906 0.10347 0.0
C1619 C 0.47699 0.9425 0.10058 0.0
C1620 C 0.4519 0.92261 0.09603 0.0
C1621 C 0.42961 0.94786 0.11662 0.0
C1622 C 0.45895 0.90646 0.10148 0.0
C1623 C 0.45568 0.8912 0.09186 0.0
C1624 C 0.44532 0.89181 0.07656 0.0
C1625 C 0.43707 0.90773 0.07195 0.0
C1626 C 0.44044 0.92307 0.08158 0.0
H1627 H 0.42425 0.95689 0.12679 0.0
H1628 H 0.42211 0.94986 0.10427 0.0
H1629 H 0.42749 0.93406 0.12093 0.0
H1630 H 0.46786 0.90587 0.11258 0.0
H1631 H 0.46209 0.87912 0.09586 0.0
H1632 H 0.71953 0.26146 0.63148 0.0
H1633 H 0.74412 0.28023 0.64039 0.0
H1634 H 0.77968 0.2482 0.60994 0.0
H1635 H 0.75532 0.22925 0.60119 0.0
H1636 H 0.78878 0.2514 0.64505 0.0
H1637 H 0.77538 0.31709 0.61586 0.0
H1638 H 0.75744 0.30739 0.62783 0.0
H1639 H 0.76506 0.29721 0.60792 0.0
C1640 C 0.73253 0.25861 0.62641 0.0
C1641 C 0.73549 0.24375 0.61576 0.0
C1642 C 0.74654 0.26943 0.63141 0.0
C1643 C 0.76368 0.26568 0.6257 0.0
C1644 C 0.76652 0.25135 0.61444 0.0
H1645 H 0.86914 0.29471 0.65111 0.0
H1646 H 0.84202 0.28813 0.63525 0.0
C1647 C 0.75258 0.2405 0.6095 0.0
C1648 C 0.77897 0.27516 0.63316 0.0
H1649 H 0.79911 0.31527 0.63622 0.0
C1650 C 0.79105 0.26535 0.64304 0.0
C1651 C 0.78177 0.29339 0.63069 0.0
C1652 C 0.76932 0.30442 0.61989 0.0
C1653 C 0.80592 0.27322 0.65047 0.0
C1654 C 0.80891 0.29136 0.64777 0.0
C1655 C 0.79674 0.30133 0.63815 0.0
C1656 C 0.82495 0.29974 0.6548 0.0
C1657 C 0.81837 0.26206 0.6612 0.0
C1658 C 0.82428 0.30933 0.67054 0.0
C1659 C 0.83981 0.3132 0.67966 0.0
C1660 C 0.85612 0.30733 0.67316 0.0
C1661 C 0.85677 0.29923 0.65655 0.0
C1662 C 0.8413 0.29551 0.64742 0.0
H1663 H 0.81255 0.24911 0.66466 0.0
H1664 H 0.83055 0.25968 0.65352 0.0
H1665 H 0.82212 0.26895 0.67353 0.0
H1666 H 0.81173 0.31264 0.67643 0.0
H1667 H 0.83889 0.31946 0.69242 0.0
H1668 H 0.98204 0.46414 0.87835 0.0
H1669 H 0.95997 0.48552 0.88802 0.0
H1670 H 0.98674 0.52627 0.85902 0.0
H1671 H 0.00861 0.50509 0.84914 0.0
H1672 H 0.96837 0.51344 0.9083 0.0
H1673 H 0.93597 0.53764 0.84811 0.0
H1674 H 0.94828 0.51731 0.84864 0.0
H1675 H 0.95942 0.53803 0.84573 0.0
C1676 C 0.983 0.47757 0.8737 0.0
C1677 C 0.99717 0.48293 0.86307 0.0
C1678 C 0.97035 0.48975 0.87921 0.0
C1679 C 0.97155 0.50744 0.87404 0.0
C1680 C 0.98526 0.51262 0.86282 0.0
H1681 H 0.95876 0.60961 0.90539 0.0
H1682 H 0.96074 0.58168 0.88985 0.0
C1683 C 0.99789 0.5005 0.85733 0.0
C1684 C 0.96024 0.52102 0.88226 0.0
H1685 H 0.93717 0.55831 0.87268 0.0
C1686 C 0.96108 0.52298 0.90059 0.0
C1687 C 0.95071 0.53341 0.87218 0.0
C1688 C 0.94838 0.53137 0.85259 0.0
C1689 C 0.95402 0.53784 0.90895 0.0
C1690 C 0.94564 0.55091 0.89868 0.0
C1691 C 0.94365 0.5483 0.88051 0.0
C1692 C 0.94153 0.56843 0.90613 0.0
C1693 C 0.95687 0.54009 0.92848 0.0
C1694 C 0.92947 0.57047 0.91996 0.0
C1695 C 0.92836 0.58648 0.929 0.0
C1696 C 0.9393 0.60065 0.92428 0.0
C1697 C 0.95031 0.59891 0.90952 0.0
C1698 C 0.9514 0.58296 0.90054 0.0
H1699 H 0.96577 0.5299 0.934 0.0
H1700 H 0.96255 0.55324 0.93133 0.0
H1701 H 0.94406 0.53914 0.93539 0.0
H1702 H 0.92152 0.55946 0.92427 0.0
H1703 H 0.91964 0.58743 0.94023 0.0
H1704 H 0.64233 0.72405 0.16536 0.0
H1705 H 0.66926 0.72522 0.14836 0.0
H1706 H 0.67893 0.67035 0.15927 0.0
H1707 H 0.65214 0.66933 0.17729 0.0
H1708 H 0.70768 0.68712 0.16359 0.0
H1709 H 0.68163 0.71013 0.10055 0.0
H1710 H 0.67384 0.72503 0.117 0.0
H1711 H 0.66729 0.70218 0.11771 0.0
C1712 C 0.64998 0.7121 0.16394 0.0
C1713 C 0.64503 0.69656 0.17262 0.0
C1714 C 0.66536 0.71275 0.15403 0.0
C1715 C 0.67594 0.69775 0.15204 0.0
C1716 C 0.6709 0.68206 0.16044 0.0
H1717 H 0.76239 0.73602 0.08791 0.0
H1718 H 0.74016 0.71435 0.09647 0.0
C1719 C 0.65559 0.68149 0.1707 0.0
C1720 C 0.69297 0.69924 0.14255 0.0
H1721 H 0.7113 0.72101 0.10802 0.0
C1722 C 0.70849 0.69411 0.15118 0.0
C1723 C 0.69422 0.70762 0.12599 0.0
C1724 C 0.67829 0.71131 0.11473 0.0
C1725 C 0.7251 0.6988 0.14457 0.0
C1726 C 0.72616 0.70965 0.12945 0.0
C1727 C 0.71071 0.71314 0.1199 0.0
C1728 C 0.74248 0.71932 0.12447 0.0
C1729 C 0.74121 0.69226 0.1541 0.0
C1730 C 0.75186 0.72882 0.13729 0.0
C1731 C 0.76506 0.74062 0.13241 0.0
C1732 C 0.76863 0.74371 0.11459 0.0
C1733 C 0.75984 0.73379 0.10176 0.0
C1734 C 0.74709 0.72148 0.10667 0.0
H1735 H 0.73905 0.67867 0.15904 0.0
H1736 H 0.75303 0.69227 0.14552 0.0
H1737 H 0.74371 0.70071 0.16574 0.0
H1738 H 0.74825 0.72807 0.15103 0.0
H1739 H 0.77146 0.74836 0.14253 0.0
H1740 H 0.49061 0.48945 0.34835 0.0
H1741 H 0.51281 0.4696 0.36013 0.0
H1742 H 0.53752 0.51289 0.38718 0.0
H1743 H 0.51503 0.53293 0.37574 0.0
H1744 H 0.54973 0.46791 0.35958 0.0
H1745 H 0.52368 0.47972 0.42713 0.0
H1746 H 0.51225 0.48722 0.40776 0.0
H1747 H 0.53151 0.49862 0.4153 0.0
C1748 C 0.50086 0.49486 0.35663 0.0
C1749 C 0.50085 0.51274 0.36135 0.0
C1750 C 0.51361 0.48347 0.36329 0.0
C1751 C 0.52662 0.48972 0.37477 0.0
C1752 C 0.52738 0.50776 0.3786 0.0
H1753 H 0.57871 0.41458 0.44477 0.0
H1754 H 0.57616 0.44203 0.42807 0.0
C1755 C 0.51455 0.51919 0.372 0.0
C1756 C 0.53817 0.47691 0.38384 0.0
H1757 H 0.544 0.45706 0.42365 0.0
C1758 C 0.54877 0.46573 0.37365 0.0
C1759 C 0.53696 0.47415 0.40221 0.0
C1760 C 0.52542 0.48544 0.41379 0.0
C1761 C 0.55745 0.45129 0.38121 0.0
C1762 C 0.55525 0.44785 0.39935 0.0
C1763 C 0.54569 0.45975 0.40974 0.0
C1764 C 0.56021 0.43079 0.40736 0.0
C1765 C 0.56841 0.43953 0.3696 0.0
C1766 C 0.55245 0.41529 0.40104 0.0
C1767 C 0.5538 0.39967 0.41055 0.0
C1768 C 0.56288 0.39923 0.42666 0.0
C1769 C 0.57165 0.41448 0.4324 0.0
C1770 C 0.5702 0.43018 0.42288 0.0
H1771 H 0.5741 0.44703 0.35842 0.0
H1772 H 0.57926 0.43324 0.37708 0.0
H1773 H 0.55993 0.42904 0.36404 0.0
H1774 H 0.54434 0.4155 0.38933 0.0
H1775 H 0.54695 0.38815 0.40572 0.0
H1776 H 0.37053 0.22024 0.24272 0.0
H1777 H 0.36057 0.24418 0.22359 0.0
H1778 H 0.39658 0.27973 0.24917 0.0
H1779 H 0.40651 0.25605 0.26838 0.0
H1780 H 0.36001 0.28875 0.25084 0.0
H1781 H 0.3818 0.2743 0.18245 0.0
H1782 H 0.37202 0.25652 0.19466 0.0
H1783 H 0.3928 0.2653 0.20152 0.0
C1784 C 0.37664 0.23305 0.24398 0.0
C1785 C 0.38914 0.2363 0.25724 0.0
C1786 C 0.37101 0.24668 0.23296 0.0
C1787 C 0.37793 0.26367 0.23493 0.0
C1788 C 0.39115 0.26666 0.24741 0.0
H1789 H 0.34527 0.36872 0.2095 0.0
H1790 H 0.36283 0.3427 0.21635 0.0
C1791 C 0.39675 0.25312 0.25843 0.0
C1792 C 0.36958 0.27885 0.22611 0.0
H1793 H 0.36262 0.29865 0.18637 0.0
C1794 C 0.36066 0.29096 0.23676 0.0
C1795 C 0.37025 0.28148 0.20772 0.0
C1796 C 0.37981 0.26881 0.19585 0.0
C1797 C 0.35237 0.30571 0.22955 0.0
C1798 C 0.35341 0.30868 0.21121 0.0
C1799 C 0.36207 0.29641 0.20045 0.0
C1800 C 0.34531 0.32448 0.2033 0.0
C1801 C 0.34231 0.31785 0.24165 0.0
C1802 C 0.33031 0.32292 0.19268 0.0
C1803 C 0.32033 0.33783 0.18854 0.0
C1804 C 0.32519 0.35442 0.19515 0.0
C1805 C 0.34107 0.35608 0.20445 0.0
C1806 C 0.35112 0.34124 0.20837 0.0
H1807 H 0.33913 0.31143 0.25439 0.0
H1808 H 0.35043 0.32964 0.24447 0.0
H1809 H 0.32986 0.32228 0.23545 0.0
H1810 H 0.32567 0.31008 0.1886 0.0
H1811 H 0.30817 0.33616 0.18132 0.0
H1812 H 0.8447 0.13434 0.78221 0.0
H1813 H 0.8616 0.16144 0.77995 0.0
H1814 H 0.83016 0.18476 0.82101 0.0
H1815 H 0.81299 0.1576 0.8233 0.0
H1816 H 0.82999 0.20359 0.7902 0.0
H1817 H 0.8985 0.18787 0.80833 0.0
H1818 H 0.88965 0.17199 0.7933 0.0
H1819 H 0.88012 0.17429 0.81487 0.0
C1820 C 0.84163 0.14505 0.79109 0.0
C1821 C 0.82739 0.14386 0.80282 0.0
C1822 C 0.85144 0.16051 0.78989 0.0
C1823 C 0.84727 0.17506 0.80045 0.0
C1824 C 0.83368 0.17362 0.81286 0.0
H1825 H 0.87683 0.28178 0.76554 0.0
H1826 H 0.86735 0.25887 0.78613 0.0
C1827 C 0.82389 0.15808 0.81414 0.0
C1828 C 0.85523 0.19237 0.79638 0.0
H1829 H 0.89461 0.21206 0.78776 0.0
C1830 C 0.8441 0.20569 0.79011 0.0
C1831 C 0.87362 0.19502 0.79627 0.0
C1832 C 0.88614 0.18158 0.80373 0.0
C1833 C 0.85091 0.22098 0.78235 0.0
C1834 C 0.86936 0.22313 0.78122 0.0
C1835 C 0.88047 0.21034 0.78858 0.0
C1836 C 0.87725 0.2373 0.77043 0.0
C1837 C 0.8383 0.23403 0.77427 0.0
C1838 C 0.88669 0.2328 0.75523 0.0
C1839 C 0.89224 0.2458 0.74355 0.0
C1840 C 0.88843 0.26361 0.74681 0.0
C1841 C 0.8798 0.26817 0.76254 0.0
C1842 C 0.87432 0.25511 0.7743 0.0
H1843 H 0.82465 0.22885 0.77363 0.0
H1844 H 0.83813 0.2462 0.78232 0.0
H1845 H 0.84254 0.2376 0.76076 0.0
H1846 H 0.88912 0.21912 0.75202 0.0
H1847 H 0.89896 0.2418 0.73164 0.0
H1848 H 0.00484 0.64569 0.9851 0.0
H1849 H 0.0267 0.63701 0.00687 0.0
H1850 H 0.98619 0.61272 0.03827 0.0
H1851 H 0.96412 0.6211 0.01632 0.0
H1852 H 0.03057 0.64277 0.0436 0.0
H1853 H 0.01995 0.57209 0.02711 0.0
H1854 H 0.01117 0.58957 0.01371 0.0
H1855 H 0.00113 0.58436 0.03444 0.0
C1856 C 0.00049 0.63864 0.99669 0.0
C1857 C 0.98275 0.63385 0.99883 0.0
C1858 C 0.01301 0.63377 0.00918 0.0
C1859 C 0.00809 0.62403 0.02404 0.0
C1860 C 0.99028 0.62001 0.02673 0.0
H1861 H 0.08896 0.56306 0.07823 0.0
H1862 H 0.06088 0.57867 0.07609 0.0
C1863 C 0.9777 0.62484 0.01419 0.0
C1864 C 0.02196 0.61695 0.03573 0.0
H1865 H 0.04378 0.57891 0.04511 0.0
C1866 C 0.0333 0.62878 0.04424 0.0
C1867 C 0.0254 0.59869 0.03664 0.0
C1868 C 0.01388 0.58538 0.02743 0.0
C1869 C 0.04852 0.62288 0.05286 0.0
C1870 C 0.05261 0.60474 0.05268 0.0
C1871 C 0.04061 0.59282 0.04526 0.0
C1872 C 0.07028 0.598 0.05743 0.0
C1873 C 0.06035 0.63618 0.06159 0.0
C1874 C 0.08501 0.60402 0.04809 0.0
C1875 C 0.10101 0.59515 0.04926 0.0
C1876 C 0.10258 0.57996 0.05969 0.0
C1877 C 0.08819 0.57471 0.07007 0.0
C1878 C 0.07212 0.58361 0.06886 0.0
H1879 H 0.05265 0.64759 0.06652 0.0
H1880 H 0.06774 0.6303 0.07273 0.0
H1881 H 0.06993 0.64123 0.0518 0.0
H1882 H 0.08384 0.61484 0.03889 0.0
H1883 H 0.11185 0.59959 0.04114 0.0
H1884 H 0.68742 0.83978 0.32286 0.0
H1885 H 0.67098 0.81285 0.31644 0.0
H1886 H 0.63313 0.84293 0.28682 0.0
H1887 H 0.64971 0.86982 0.29274 0.0
H1888 H 0.63542 0.79966 0.31873 0.0
H1889 H 0.65767 0.81142 0.25014 0.0
H1890 H 0.66627 0.82359 0.26858 0.0
H1891 H 0.64527 0.82929 0.25932 0.0
C1892 C 0.67532 0.84074 0.31539 0.0
C1893 C 0.67003 0.85685 0.30799 0.0
C1894 C 0.66595 0.82533 0.31175 0.0
C1895 C 0.6511 0.82589 0.30083 0.0
C1896 C 0.64477 0.84222 0.295 0.0
H1897 H 0.59107 0.75286 0.24036 0.0
H1898 H 0.60018 0.77686 0.25957 0.0
C1899 C 0.65424 0.85756 0.29841 0.0
C1900 C 0.64375 0.80945 0.29348 0.0
H1901 H 0.63793 0.78785 0.25458 0.0
C1902 C 0.63596 0.79702 0.30473 0.0
C1903 C 0.64482 0.80592 0.27523 0.0
C1904 C 0.65411 0.81815 0.26262 0.0
C1905 C 0.62868 0.78137 0.29803 0.0
C1906 C 0.62929 0.77822 0.27974 0.0
C1907 C 0.63735 0.79048 0.2686 0.0
C1908 C 0.62157 0.76244 0.27149 0.0
C1909 C 0.62012 0.76843 0.31035 0.0
C1910 C 0.63034 0.74622 0.27223 0.0
C1911 C 0.62522 0.73242 0.26117 0.0
C1912 C 0.61137 0.73476 0.24912 0.0
C1913 C 0.60191 0.75066 0.24934 0.0
C1914 C 0.60701 0.76438 0.26038 0.0
H1915 H 0.6192 0.77358 0.32399 0.0
H1916 H 0.60671 0.76513 0.3056 0.0
H1917 H 0.62788 0.75606 0.31054 0.0
H1918 H 0.64177 0.7446 0.28058 0.0
H1919 H 0.63276 0.72033 0.26132 0.0
H1920 H 0.41394 0.44366 0.57319 0.0
H1921 H 0.44141 0.42796 0.5671 0.0
H1922 H 0.4119 0.38286 0.54957 0.0
H1923 H 0.38443 0.39844 0.55541 0.0
H1924 H 0.45656 0.38913 0.57327 0.0
H1925 H 0.43694 0.40895 0.50552 0.0
H1926 H 0.42808 0.41943 0.5249 0.0
H1927 H 0.42046 0.39802 0.51851 0.0
C1928 C 0.41329 0.43014 0.56873 0.0
C1929 C 0.39705 0.42238 0.56446 0.0
C1930 C 0.42901 0.4212 0.56527 0.0
C1931 C 0.4286 0.40438 0.55771 0.0
C1932 C 0.41242 0.39587 0.55536 0.0
H1933 H 0.4974 0.34857 0.4879 0.0
H1934 H 0.47372 0.35714 0.50777 0.0
C1935 C 0.39675 0.40482 0.55866 0.0
C1936 C 0.44443 0.39724 0.54902 0.0
H1937 H 0.46213 0.39133 0.50825 0.0
C1938 C 0.45787 0.38958 0.55907 0.0
C1939 C 0.44606 0.39803 0.53051 0.0
C1940 C 0.43222 0.40665 0.51916 0.0
C1941 C 0.47281 0.38225 0.55093 0.0
C1942 C 0.47428 0.38285 0.53238 0.0
C1943 C 0.46089 0.39074 0.52245 0.0
C1944 C 0.4895 0.37554 0.52267 0.0
C1945 C 0.48669 0.3736 0.56215 0.0
C1946 C 0.50636 0.38277 0.52471 0.0
C1947 C 0.52 0.37785 0.51336 0.0
C1948 C 0.5169 0.36579 0.49967 0.0
C1949 C 0.5002 0.358 0.49821 0.0
C1950 C 0.48665 0.36283 0.5096 0.0
H1951 H 0.48166 0.37042 0.5755 0.0
H1952 H 0.49154 0.36134 0.55588 0.0
H1953 H 0.498 0.3827 0.56362 0.0
H1954 H 0.50875 0.39286 0.53448 0.0
H1955 H 0.5327 0.38411 0.51482 0.0
H1956 H 0.18781 0.66024 0.67051 0.0
H1957 H 0.17213 0.68825 0.6734 0.0
H1958 H 0.13872 0.66549 0.71318 0.0
H1959 H 0.15406 0.63751 0.71026 0.0
H1960 H 0.12117 0.68968 0.68984 0.0
H1961 H 0.18309 0.71659 0.71855 0.0
H1962 H 0.18419 0.70758 0.69671 0.0
H1963 H 0.17997 0.69333 0.71507 0.0
C1964 C 0.17685 0.66107 0.67956 0.0
C1965 C 0.17238 0.64672 0.69038 0.0
C1966 C 0.16796 0.67711 0.68124 0.0
C1967 C 0.15451 0.679 0.69374 0.0
C1968 C 0.14912 0.66432 0.70351 0.0
H1969 H 0.09808 0.74306 0.76124 0.0
H1970 H 0.10787 0.72174 0.7395 0.0
C1971 C 0.15797 0.64833 0.70186 0.0
C1972 C 0.14731 0.6965 0.69833 0.0
H1973 H 0.15771 0.73351 0.72146 0.0
C1974 C 0.1292 0.69946 0.69644 0.0
C1975 C 0.15784 0.70926 0.70685 0.0
C1976 C 0.17734 0.70661 0.70956 0.0
C1977 C 0.12118 0.71445 0.70364 0.0
C1978 C 0.13152 0.72656 0.71328 0.0
C1979 C 0.1498 0.7242 0.71409 0.0
C1980 C 0.12357 0.74028 0.72463 0.0
C1981 C 0.10165 0.71692 0.70128 0.0
C1982 C 0.12922 0.75784 0.72363 0.0
C1983 C 0.12377 0.7701 0.73624 0.0
C1984 C 0.11272 0.76495 0.75017 0.0
C1985 C 0.10659 0.7475 0.75072 0.0
C1986 C 0.11203 0.7353 0.73814 0.0
H1987 H 0.09709 0.71093 0.68876 0.0
H1988 H 0.09461 0.71024 0.71219 0.0
H1989 H 0.09798 0.73106 0.70136 0.0
H1990 H 0.13828 0.76191 0.71341 0.0
H1991 H 0.12873 0.78343 0.73543 0.0
H1992 H 0.46555 0.87744 0.98341 0.0
H1993 H 0.48765 0.88737 0.96219 0.0
H1994 H 0.52731 0.85736 0.98948 0.0
H1995 H 0.5054 0.84713 0.0104 0.0
H1996 H 0.5151 0.90723 0.97132 0.0
H1997 H 0.54059 0.84741 0.93931 0.0
H1998 H 0.52 0.84765 0.95117 0.0
H1999 H 0.5405 0.84476 0.96273 0.0
C2000 C 0.4789 0.87262 0.98464 0.0
C2001 C 0.48372 0.86158 0.99868 0.0
C2002 C 0.4915 0.87829 0.97248 0.0
C2003 C 0.50909 0.87291 0.97407 0.0
C2004 C 0.51375 0.86132 0.98766 0.0
H2005 H 0.61143 0.90631 0.96477 0.0
H2006 H 0.58372 0.8903 0.96643 0.0
C2007 C 0.5012 0.85563 -0.00024 0.0
C2008 C 0.52309 0.88125 0.96335 0.0
H2009 H 0.56126 0.87197 0.9416 0.0
C2010 C 0.52493 0.89959 0.96435 0.0
C2011 C 0.53588 0.87127 0.95423 0.0
C2012 C 0.53402 0.8517 0.95164 0.0
C2013 C 0.53995 0.90805 0.95782 0.0
C2014 C 0.55337 0.89789 0.94987 0.0
C2015 C 0.55098 0.87971 0.94777 0.0
C2016 C 0.57086 0.90555 0.94616 0.0
C2017 C 0.54197 0.9276 0.96069 0.0
C2018 C 0.57302 0.91897 0.93367 0.0
C2019 C 0.58889 0.92824 0.93271 0.0
C2020 C 0.60279 0.92421 0.94426 0.0
C2021 C 0.60094 0.90989 0.95582 0.0
C2022 C 0.58513 0.90065 0.95674 0.0
H2023 H 0.53136 0.9331 0.96911 0.0
H2024 H 0.55484 0.93054 0.96693 0.0
H2025 H 0.54156 0.93446 0.94781 0.0
H2026 H 0.56219 0.92278 0.92524 0.0
H2027 H 0.58993 0.93913 0.92358 0.0
H2028 H 0.88533 0.10012 0.46279 0.0
H2029 H 0.91322 0.11534 0.46622 0.0
H2030 H 0.93692 0.08111 0.42768 0.0
H2031 H 0.90895 0.0655 0.42435 0.0
H2032 H 0.95391 0.0803 0.4587 0.0
H2033 H 0.94397 0.14968 0.44012 0.0
H2034 H 0.92683 0.14242 0.45458 0.0
H2035 H 0.92915 0.13243 0.4332 0.0
C2036 C 0.89631 0.09609 0.45466 0.0
C2037 C 0.89496 0.08145 0.44345 0.0
C2038 C 0.91226 0.10496 0.45651 0.0
C2039 C 0.92715 0.09949 0.44708 0.0
C2040 C 0.92555 0.08562 0.43499 0.0
H2041 H 0.0338 0.1228 0.48655 0.0
H2042 H 0.01102 0.11473 0.46526 0.0
C2043 C 0.90955 0.07672 0.4331 0.0
C2044 C 0.94469 0.10628 0.45219 0.0
H2045 H 0.96634 0.14422 0.46252 0.0
C2046 C 0.95689 0.09425 0.45908 0.0
C2047 C 0.94852 0.12447 0.45271 0.0
C2048 C 0.93647 0.13795 0.44457 0.0
C2049 C 0.97212 0.09998 0.46774 0.0
C2050 C 0.97536 0.11823 0.46928 0.0
C2051 C 0.96376 0.13024 0.4614 0.0
C2052 C 0.98951 0.12503 0.48078 0.0
C2053 C 0.98396 0.08649 0.47626 0.0
C2054 C 0.985 0.13407 0.49621 0.0
C2055 C 0.99794 0.13874 0.50836 0.0
C2056 C 0.01567 0.13448 0.50529 0.0
C2057 C 0.02025 0.12614 0.4894 0.0
C2058 C 0.00727 0.12149 0.47723 0.0
H2059 H 0.97805 0.07313 0.47622 0.0
H2060 H 0.9966 0.08588 0.46898 0.0
H2061 H 0.98689 0.09024 0.49007 0.0
H2062 H 0.97136 0.13693 0.49918 0.0
H2063 H 0.99394 0.14526 0.52038 0.0
loop_
_geom_bond_atom_site_label_1
_geom_bond_atom_site_label_2
_geom_bond_distance
_geom_bond_site_symmetry_2
_ccdc_geom_bond_type
O0 Cd1 2.223 . S
O0 C8 1.315 . S
Cd1 O0 2.223 . S
Cd1 O4 2.297 . S
Cd1 O5 2.439 . S
Cd1 O11 2.240 . S
Cd2 O3 2.240 . S
Cd2 O10 2.223 . S
Cd2 O12 2.297 . S
Cd2 O13 2.439 . S
O3 Cd2 2.240 . S
O3 C8 1.279 . S
O4 Cd1 2.297 . S
O4 C6 1.247 . S
O5 Cd1 2.439 . S
O5 C6 1.208 . S
C6 O4 1.247 . S
C6 O5 1.208 . S
C7 O12 1.247 . S
C7 O13 1.208 . S
C8 O0 1.315 . S
C8 O3 1.279 . S
C9 O10 1.315 . S
C9 O11 1.279 . S
O10 Cd2 2.223 . S
O10 C9 1.315 . S
O11 Cd1 2.240 . S
O11 C9 1.279 . S
O12 Cd2 2.297 . S
O12 C7 1.247 . S
O13 Cd2 2.439 . S
O13 C7 1.208 . S
O14 Cd15 2.223 . S
O14 C22 1.315 . S
Cd15 O14 2.223 . S
Cd15 O18 2.297 . S
Cd15 O19 2.439 . S
Cd15 O25 2.240 . S
Cd16 O17 2.240 . S
Cd16 O24 2.223 . S
Cd16 O26 2.297 . S
Cd16 O27 2.439 . S
O17 Cd16 2.240 . S
O17 C22 1.279 . S
O18 Cd15 2.297 . S
O18 C20 1.247 . S
O19 Cd15 2.439 . S
O19 C20 1.208 . S
C20 O18 1.247 . S
C20 O19 1.208 . S
C21 O26 1.247 . S
C21 O27 1.208 . S
C22 O14 1.315 . S
C22 O17 1.279 . S
C23 O24 1.315 . S
C23 O25 1.279 . S
O24 Cd16 2.223 . S
O24 C23 1.315 . S
O25 Cd15 2.240 . S
O25 C23 1.279 . S
O26 Cd16 2.297 . S
O26 C21 1.247 . S
O27 Cd16 2.439 . S
O27 C21 1.208 . S
O28 Cd29 2.223 . S
O28 C36 1.315 . S
Cd29 O28 2.223 . S
Cd29 O32 2.297 . S
Cd29 O33 2.439 . S
Cd29 O39 2.240 . S
Cd30 O31 2.240 . S
Cd30 O38 2.223 . S
Cd30 O40 2.297 . S
Cd30 O41 2.439 . S
O31 Cd30 2.240 . S
O31 C36 1.279 . S
O32 Cd29 2.297 . S
O32 C34 1.247 . S
O33 Cd29 2.439 . S
O33 C34 1.208 . S
C34 O32 1.247 . S
C34 O33 1.208 . S
C35 O40 1.247 . S
C35 O41 1.208 . S
C36 O28 1.315 . S
C36 O31 1.279 . S
C37 O38 1.315 . S
C37 O39 1.279 . S
O38 Cd30 2.223 . S
O38 C37 1.315 . S
O39 Cd29 2.240 . S
O39 C37 1.279 . S
O40 Cd30 2.297 . S
O40 C35 1.247 . S
O41 Cd30 2.439 . S
O41 C35 1.208 . S
O42 Cd43 2.223 . S
O42 C50 1.315 . S
Cd43 O42 2.223 . S
Cd43 O46 2.297 . S
Cd43 O47 2.439 . S
Cd43 O53 2.240 . S
Cd44 O45 2.240 . S
Cd44 O52 2.223 . S
Cd44 O54 2.297 . S
Cd44 O55 2.439 . S
O45 Cd44 2.240 . S
O45 C50 1.279 . S
O46 Cd43 2.297 . S
O46 C48 1.247 . S
O47 Cd43 2.439 . S
O47 C48 1.208 . S
C48 O46 1.247 . S
C48 O47 1.208 . S
C49 O54 1.247 . S
C49 O55 1.208 . S
C50 O42 1.315 . S
C50 O45 1.279 . S
C51 O52 1.315 . S
C51 O53 1.279 . S
O52 Cd44 2.223 . S
O52 C51 1.315 . S
O53 Cd43 2.240 . S
O53 C51 1.279 . S
O54 Cd44 2.297 . S
O54 C49 1.247 . S
O55 Cd44 2.439 . S
O55 C49 1.208 . S
O56 Cd57 2.223 . S
O56 C64 1.315 . S
Cd57 O56 2.223 . S
Cd57 O60 2.297 . S
Cd57 O61 2.439 . S
Cd57 O67 2.240 . S
Cd58 O59 2.240 . S
Cd58 O66 2.223 . S
Cd58 O68 2.297 . S
Cd58 O69 2.439 . S
O59 Cd58 2.240 . S
O59 C64 1.279 . S
O60 Cd57 2.297 . S
O60 C62 1.247 . S
O61 Cd57 2.439 . S
O61 C62 1.208 . S
C62 O60 1.247 . S
C62 O61 1.208 . S
C63 O68 1.247 . S
C63 O69 1.208 . S
C64 O56 1.315 . S
C64 O59 1.279 . S
C65 O66 1.315 . S
C65 O67 1.279 . S
O66 Cd58 2.223 . S
O66 C65 1.315 . S
O67 Cd57 2.240 . S
O67 C65 1.279 . S
O68 Cd58 2.297 . S
O68 C63 1.247 . S
O69 Cd58 2.439 . S
O69 C63 1.208 . S
O70 Cd71 2.223 . S
O70 C78 1.315 . S
Cd71 O70 2.223 . S
Cd71 O74 2.297 . S
Cd71 O75 2.439 . S
Cd71 O81 2.240 . S
Cd72 O73 2.240 . S
Cd72 O80 2.223 . S
Cd72 O82 2.297 . S
Cd72 O83 2.439 . S
O73 Cd72 2.240 . S
O73 C78 1.279 . S
O74 Cd71 2.297 . S
O74 C76 1.247 . S
O75 Cd71 2.439 . S
O75 C76 1.208 . S
C76 O74 1.247 . S
C76 O75 1.208 . S
C77 O82 1.247 . S
C77 O83 1.208 . S
C78 O70 1.315 . S
C78 O73 1.279 . S
C79 O80 1.315 . S
C79 O81 1.279 . S
O80 Cd72 2.223 . S
O80 C79 1.315 . S
O81 Cd71 2.240 . S
O81 C79 1.279 . S
O82 Cd72 2.297 . S
O82 C77 1.247 . S
O83 Cd72 2.439 . S
O83 C77 1.208 . S
O84 Cd85 2.223 . S
O84 C92 1.315 . S
Cd85 O84 2.223 . S
Cd85 O88 2.297 . S
Cd85 O89 2.439 . S
Cd85 O95 2.240 . S
Cd86 O87 2.240 . S
Cd86 O94 2.223 . S
Cd86 O96 2.297 . S
Cd86 O97 2.439 . S
O87 Cd86 2.240 . S
O87 C92 1.279 . S
O88 Cd85 2.297 . S
O88 C90 1.247 . S
O89 Cd85 2.439 . S
O89 C90 1.208 . S
C90 O88 1.247 . S
C90 O89 1.208 . S
C91 O96 1.247 . S
C91 O97 1.208 . S
C92 O84 1.315 . S
C92 O87 1.279 . S
C93 O94 1.315 . S
C93 O95 1.279 . S
O94 Cd86 2.223 . S
O94 C93 1.315 . S
O95 Cd85 2.240 . S
O95 C93 1.279 . S
O96 Cd86 2.297 . S
O96 C91 1.247 . S
O97 Cd86 2.439 . S
O97 C91 1.208 . S
O98 Cd99 2.223 . S
O98 C106 1.315 . S
Cd99 O98 2.223 . S
Cd99 O102 2.297 . S
Cd99 O103 2.439 . S
Cd99 O109 2.240 . S
Cd100 O101 2.240 . S
Cd100 O108 2.223 . S
Cd100 O110 2.297 . S
Cd100 O111 2.439 . S
O101 Cd100 2.240 . S
O101 C106 1.279 . S
O102 Cd99 2.297 . S
O102 C104 1.247 . S
O103 Cd99 2.439 . S
O103 C104 1.208 . S
C104 O102 1.247 . S
C104 O103 1.208 . S
C105 O110 1.247 . S
C105 O111 1.208 . S
C106 O98 1.315 . S
C106 O101 1.279 . S
C107 O108 1.315 . S
C107 O109 1.279 . S
O108 Cd100 2.223 . S
O108 C107 1.315 . S
O109 Cd99 2.240 . S
O109 C107 1.279 . S
O110 Cd100 2.297 . S
O110 C105 1.247 . S
O111 Cd100 2.439 . S
O111 C105 1.208 . S
O112 Cd113 2.223 . S
O112 C120 1.315 . S
Cd113 O112 2.223 . S
Cd113 O116 2.297 . S
Cd113 O117 2.439 . S
Cd113 O123 2.240 . S
Cd114 O115 2.240 . S
Cd114 O122 2.223 . S
Cd114 O124 2.297 . S
Cd114 O125 2.439 . S
O115 Cd114 2.240 . S
O115 C120 1.279 . S
O116 Cd113 2.297 . S
O116 C118 1.247 . S
O117 Cd113 2.439 . S
O117 C118 1.208 . S
C118 O116 1.247 . S
C118 O117 1.208 . S
C119 O124 1.247 . S
C119 O125 1.208 . S
C120 O112 1.315 . S
C120 O115 1.279 . S
C121 O122 1.315 . S
C121 O123 1.279 . S
O122 Cd114 2.223 . S
O122 C121 1.315 . S
O123 Cd113 2.240 . S
O123 C121 1.279 . S
O124 Cd114 2.297 . S
O124 C119 1.247 . S
O125 Cd114 2.439 . S
O125 C119 1.208 . S
O126 Cd127 2.223 . S
O126 C134 1.315 . S
Cd127 O126 2.223 . S
Cd127 O130 2.297 . S
Cd127 O131 2.439 . S
Cd127 O137 2.240 . S
Cd128 O129 2.240 . S
Cd128 O136 2.223 . S
Cd128 O138 2.297 . S
Cd128 O139 2.439 . S
O129 Cd128 2.240 . S
O129 C134 1.279 . S
O130 Cd127 2.297 . S
O130 C132 1.247 . S
O131 Cd127 2.439 . S
O131 C132 1.208 . S
C132 O130 1.247 . S
C132 O131 1.208 . S
C133 O138 1.247 . S
C133 O139 1.208 . S
C134 O126 1.315 . S
C134 O129 1.279 . S
C135 O136 1.315 . S
C135 O137 1.279 . S
O136 Cd128 2.223 . S
O136 C135 1.315 . S
O137 Cd127 2.240 . S
O137 C135 1.279 . S
O138 Cd128 2.297 . S
O138 C133 1.247 . S
O139 Cd128 2.439 . S
O139 C133 1.208 . S
O140 Cd141 2.223 . S
O140 C148 1.315 . S
Cd141 O140 2.223 . S
Cd141 O144 2.297 . S
Cd141 O145 2.439 . S
Cd141 O151 2.240 . S
Cd142 O143 2.240 . S
Cd142 O150 2.223 . S
Cd142 O152 2.297 . S
Cd142 O153 2.439 . S
O143 Cd142 2.240 . S
O143 C148 1.279 . S
O144 Cd141 2.297 . S
O144 C146 1.247 . S
O145 Cd141 2.439 . S
O145 C146 1.208 . S
C146 O144 1.247 . S
C146 O145 1.208 . S
C147 O152 1.247 . S
C147 O153 1.208 . S
C148 O140 1.315 . S
C148 O143 1.279 . S
C149 O150 1.315 . S
C149 O151 1.279 . S
O150 Cd142 2.223 . S
O150 C149 1.315 . S
O151 Cd141 2.240 . S
O151 C149 1.279 . S
O152 Cd142 2.297 . S
O152 C147 1.247 . S
O153 Cd142 2.439 . S
O153 C147 1.208 . S
O154 Cd155 2.223 . S
O154 C162 1.315 . S
Cd155 O154 2.223 . S
Cd155 O158 2.297 . S
Cd155 O159 2.439 . S
Cd155 O165 2.240 . S
Cd156 O157 2.240 . S
Cd156 O164 2.223 . S
Cd156 O166 2.297 . S
Cd156 O167 2.439 . S
O157 Cd156 2.240 . S
O157 C162 1.279 . S
O158 Cd155 2.297 . S
O158 C160 1.247 . S
O159 Cd155 2.439 . S
O159 C160 1.208 . S
C160 O158 1.247 . S
C160 O159 1.208 . S
C161 O166 1.247 . S
C161 O167 1.208 . S
C162 O154 1.315 . S
C162 O157 1.279 . S
C163 O164 1.315 . S
C163 O165 1.279 . S
O164 Cd156 2.223 . S
O164 C163 1.315 . S
O165 Cd155 2.240 . S
O165 C163 1.279 . S
O166 Cd156 2.297 . S
O166 C161 1.247 . S
O167 Cd156 2.439 . S
O167 C161 1.208 . S
O168 Cd169 2.223 . S
O168 C176 1.315 . S
Cd169 O168 2.223 . S
Cd169 O172 2.297 . S
Cd169 O173 2.439 . S
Cd169 O179 2.240 . S
Cd170 O171 2.240 . S
Cd170 O178 2.223 . S
Cd170 O180 2.297 . S
Cd170 O181 2.439 . S
O171 Cd170 2.240 . S
O171 C176 1.279 . S
O172 Cd169 2.297 . S
O172 C174 1.247 . S
O173 Cd169 2.439 . S
O173 C174 1.208 . S
C174 O172 1.247 . S
C174 O173 1.208 . S
C175 O180 1.247 . S
C175 O181 1.208 . S
C176 O168 1.315 . S
C176 O171 1.279 . S
C177 O178 1.315 . S
C177 O179 1.279 . S
O178 Cd170 2.223 . S
O178 C177 1.315 . S
O179 Cd169 2.240 . S
O179 C177 1.279 . S
O180 Cd170 2.297 . S
O180 C175 1.247 . S
O181 Cd170 2.439 . S
O181 C175 1.208 . S
O182 Cd183 2.223 . S
O182 C190 1.315 . S
Cd183 O182 2.223 . S
Cd183 O186 2.297 . S
Cd183 O187 2.439 . S
Cd183 O193 2.240 . S
Cd184 O185 2.240 . S
Cd184 O192 2.223 . S
Cd184 O194 2.297 . S
Cd184 O195 2.439 . S
O185 Cd184 2.240 . S
O185 C190 1.279 . S
O186 Cd183 2.297 . S
O186 C188 1.247 . S
O187 Cd183 2.439 . S
O187 C188 1.208 . S
C188 O186 1.247 . S
C188 O187 1.208 . S
C189 O194 1.247 . S
C189 O195 1.208 . S
C190 O182 1.315 . S
C190 O185 1.279 . S
C191 O192 1.315 . S
C191 O193 1.279 . S
O192 Cd184 2.223 . S
O192 C191 1.315 . S
O193 Cd183 2.240 . S
O193 C191 1.279 . S
O194 Cd184 2.297 . S
O194 C189 1.247 . S
O195 Cd184 2.439 . S
O195 C189 1.208 . S
O196 Cd197 2.223 . S
O196 C204 1.315 . S
Cd197 O196 2.223 . S
Cd197 O200 2.297 . S
Cd197 O201 2.439 . S
Cd197 O207 2.240 . S
Cd198 O199 2.240 . S
Cd198 O206 2.223 . S
Cd198 O208 2.297 . S
Cd198 O209 2.439 . S
O199 Cd198 2.240 . S
O199 C204 1.279 . S
O200 Cd197 2.297 . S
O200 C202 1.247 . S
O201 Cd197 2.439 . S
O201 C202 1.208 . S
C202 O200 1.247 . S
C202 O201 1.208 . S
C203 O208 1.247 . S
C203 O209 1.208 . S
C204 O196 1.315 . S
C204 O199 1.279 . S
C205 O206 1.315 . S
C205 O207 1.279 . S
O206 Cd198 2.223 . S
O206 C205 1.315 . S
O207 Cd197 2.240 . S
O207 C205 1.279 . S
O208 Cd198 2.297 . S
O208 C203 1.247 . S
O209 Cd198 2.439 . S
O209 C203 1.208 . S
O210 Cd211 2.223 . S
O210 C218 1.315 . S
Cd211 O210 2.223 . S
Cd211 O214 2.297 . S
Cd211 O215 2.439 . S
Cd211 O221 2.240 . S
Cd212 O213 2.240 . S
Cd212 O220 2.223 . S
Cd212 O222 2.297 . S
Cd212 O223 2.439 . S
O213 Cd212 2.240 . S
O213 C218 1.279 . S
O214 Cd211 2.297 . S
O214 C216 1.247 . S
O215 Cd211 2.439 . S
O215 C216 1.208 . S
C216 O214 1.247 . S
C216 O215 1.208 . S
C217 O222 1.247 . S
C217 O223 1.208 . S
C218 O210 1.315 . S
C218 O213 1.279 . S
C219 O220 1.315 . S
C219 O221 1.279 . S
O220 Cd212 2.223 . S
O220 C219 1.315 . S
O221 Cd211 2.240 . S
O221 C219 1.279 . S
O222 Cd212 2.297 . S
O222 C217 1.247 . S
O223 Cd212 2.439 . S
O223 C217 1.208 . S
O224 Cd225 2.223 . S
O224 C232 1.315 . S
Cd225 O224 2.223 . S
Cd225 O228 2.297 . S
Cd225 O229 2.439 . S
Cd225 O235 2.240 . S
Cd226 O227 2.240 . S
Cd226 O234 2.223 . S
Cd226 O236 2.297 . S
Cd226 O237 2.439 . S
O227 Cd226 2.240 . S
O227 C232 1.279 . S
O228 Cd225 2.297 . S
O228 C230 1.247 . S
O229 Cd225 2.439 . S
O229 C230 1.208 . S
C230 O228 1.247 . S
C230 O229 1.208 . S
C231 O236 1.247 . S
C231 O237 1.208 . S
C232 O224 1.315 . S
C232 O227 1.279 . S
C233 O234 1.315 . S
C233 O235 1.279 . S
O234 Cd226 2.223 . S
O234 C233 1.315 . S
O235 Cd225 2.240 . S
O235 C233 1.279 . S
O236 Cd226 2.297 . S
O236 C231 1.247 . S
O237 Cd226 2.439 . S
O237 C231 1.208 . S
O238 Cd239 2.223 . S
O238 C246 1.315 . S
Cd239 O238 2.223 . S
Cd239 O242 2.297 . S
Cd239 O243 2.439 . S
Cd239 O249 2.240 . S
Cd240 O241 2.240 . S
Cd240 O248 2.223 . S
Cd240 O250 2.297 . S
Cd240 O251 2.439 . S
O241 Cd240 2.240 . S
O241 C246 1.279 . S
O242 Cd239 2.297 . S
O242 C244 1.247 . S
O243 Cd239 2.439 . S
O243 C244 1.208 . S
C244 O242 1.247 . S
C244 O243 1.208 . S
C245 O250 1.247 . S
C245 O251 1.208 . S
C246 O238 1.315 . S
C246 O241 1.279 . S
C247 O248 1.315 . S
C247 O249 1.279 . S
O248 Cd240 2.223 . S
O248 C247 1.315 . S
O249 Cd239 2.240 . S
O249 C247 1.279 . S
O250 Cd240 2.297 . S
O250 C245 1.247 . S
O251 Cd240 2.439 . S
O251 C245 1.208 . S
O252 Cd253 2.223 . S
O252 C260 1.315 . S
Cd253 O252 2.223 . S
Cd253 O256 2.297 . S
Cd253 O257 2.439 . S
Cd253 O263 2.240 . S
Cd254 O255 2.240 . S
Cd254 O262 2.223 . S
Cd254 O264 2.297 . S
Cd254 O265 2.439 . S
O255 Cd254 2.240 . S
O255 C260 1.279 . S
O256 Cd253 2.297 . S
O256 C258 1.247 . S
O257 Cd253 2.439 . S
O257 C258 1.208 . S
C258 O256 1.247 . S
C258 O257 1.208 . S
C259 O264 1.247 . S
C259 O265 1.208 . S
C260 O252 1.315 . S
C260 O255 1.279 . S
C261 O262 1.315 . S
C261 O263 1.279 . S
O262 Cd254 2.223 . S
O262 C261 1.315 . S
O263 Cd253 2.240 . S
O263 C261 1.279 . S
O264 Cd254 2.297 . S
O264 C259 1.247 . S
O265 Cd254 2.439 . S
O265 C259 1.208 . S
O266 Cd267 2.223 . S
O266 C274 1.315 . S
Cd267 O266 2.223 . S
Cd267 O270 2.297 . S
Cd267 O271 2.439 . S
Cd267 O277 2.240 . S
Cd268 O269 2.240 . S
Cd268 O276 2.223 . S
Cd268 O278 2.297 . S
Cd268 O279 2.439 . S
O269 Cd268 2.240 . S
O269 C274 1.279 . S
O270 Cd267 2.297 . S
O270 C272 1.247 . S
O271 Cd267 2.439 . S
O271 C272 1.208 . S
C272 O270 1.247 . S
C272 O271 1.208 . S
C273 O278 1.247 . S
C273 O279 1.208 . S
C274 O266 1.315 . S
C274 O269 1.279 . S
C275 O276 1.315 . S
C275 O277 1.279 . S
O276 Cd268 2.223 . S
O276 C275 1.315 . S
O277 Cd267 2.240 . S
O277 C275 1.279 . S
O278 Cd268 2.297 . S
O278 C273 1.247 . S
O279 Cd268 2.439 . S
O279 C273 1.208 . S
O280 Cd281 2.223 . S
O280 C288 1.315 . S
Cd281 O280 2.223 . S
Cd281 O284 2.297 . S
Cd281 O285 2.439 . S
Cd281 O291 2.240 . S
Cd282 O283 2.240 . S
Cd282 O290 2.223 . S
Cd282 O292 2.297 . S
Cd282 O293 2.439 . S
O283 Cd282 2.240 . S
O283 C288 1.279 . S
O284 Cd281 2.297 . S
O284 C286 1.247 . S
O285 Cd281 2.439 . S
O285 C286 1.208 . S
C286 O284 1.247 . S
C286 O285 1.208 . S
C287 O292 1.247 . S
C287 O293 1.208 . S
C288 O280 1.315 . S
C288 O283 1.279 . S
C289 O290 1.315 . S
C289 O291 1.279 . S
O290 Cd282 2.223 . S
O290 C289 1.315 . S
O291 Cd281 2.240 . S
O291 C289 1.279 . S
O292 Cd282 2.297 . S
O292 C287 1.247 . S
O293 Cd282 2.439 . S
O293 C287 1.208 . S
O294 Cd295 2.223 . S
O294 C302 1.315 . S
Cd295 O294 2.223 . S
Cd295 O298 2.297 . S
Cd295 O299 2.439 . S
Cd295 O305 2.240 . S
Cd296 O297 2.240 . S
Cd296 O304 2.223 . S
Cd296 O306 2.297 . S
Cd296 O307 2.439 . S
O297 Cd296 2.240 . S
O297 C302 1.279 . S
O298 Cd295 2.297 . S
O298 C300 1.247 . S
O299 Cd295 2.439 . S
O299 C300 1.208 . S
C300 O298 1.247 . S
C300 O299 1.208 . S
C301 O306 1.247 . S
C301 O307 1.208 . S
C302 O294 1.315 . S
C302 O297 1.279 . S
C303 O304 1.315 . S
C303 O305 1.279 . S
O304 Cd296 2.223 . S
O304 C303 1.315 . S
O305 Cd295 2.240 . S
O305 C303 1.279 . S
O306 Cd296 2.297 . S
O306 C301 1.247 . S
O307 Cd296 2.439 . S
O307 C301 1.208 . S
O308 Cd309 2.223 . S
O308 C316 1.315 . S
Cd309 O308 2.223 . S
Cd309 O312 2.297 . S
Cd309 O313 2.439 . S
Cd309 O319 2.240 . S
Cd310 O311 2.240 . S
Cd310 O318 2.223 . S
Cd310 O320 2.297 . S
Cd310 O321 2.439 . S
O311 Cd310 2.240 . S
O311 C316 1.279 . S
O312 Cd309 2.297 . S
O312 C314 1.247 . S
O313 Cd309 2.439 . S
O313 C314 1.208 . S
C314 O312 1.247 . S
C314 O313 1.208 . S
C315 O320 1.247 . S
C315 O321 1.208 . S
C316 O308 1.315 . S
C316 O311 1.279 . S
C317 O318 1.315 . S
C317 O319 1.279 . S
O318 Cd310 2.223 . S
O318 C317 1.315 . S
O319 Cd309 2.240 . S
O319 C317 1.279 . S
O320 Cd310 2.297 . S
O320 C315 1.247 . S
O321 Cd310 2.439 . S
O321 C315 1.208 . S
O322 Cd323 2.223 . S
O322 C330 1.315 . S
Cd323 O322 2.223 . S
Cd323 O326 2.297 . S
Cd323 O327 2.439 . S
Cd323 O333 2.240 . S
Cd324 O325 2.240 . S
Cd324 O332 2.223 . S
Cd324 O334 2.297 . S
Cd324 O335 2.439 . S
O325 Cd324 2.240 . S
O325 C330 1.279 . S
O326 Cd323 2.297 . S
O326 C328 1.247 . S
O327 Cd323 2.439 . S
O327 C328 1.208 . S
C328 O326 1.247 . S
C328 O327 1.208 . S
C329 O334 1.247 . S
C329 O335 1.208 . S
C330 O322 1.315 . S
C330 O325 1.279 . S
C331 O332 1.315 . S
C331 O333 1.279 . S
O332 Cd324 2.223 . S
O332 C331 1.315 . S
O333 Cd323 2.240 . S
O333 C331 1.279 . S
O334 Cd324 2.297 . S
O334 C329 1.247 . S
O335 Cd324 2.439 . S
O335 C329 1.208 . S
H336 C344 0.929 . S
H337 C346 0.930 . S
H338 C348 0.930 . S
H339 C351 0.929 . S
H340 C354 0.930 . S
H341 C356 0.960 . S
H342 C356 0.960 . S
H343 C356 0.960 . S
C344 H336 0.929 . S
C344 C345 1.377 . S
C344 C346 1.384 . S
C345 C344 1.377 . S
C345 C351 1.390 . S
C346 H337 0.930 . S
C346 C344 1.384 . S
C346 C347 1.372 . S
C347 C346 1.372 . S
C347 C348 1.400 . S
C347 C352 1.490 . S
C348 H338 0.930 . S
C348 C347 1.400 . S
C348 C351 1.386 . S
H349 C365 0.930 . S
H350 C366 0.931 . S
C351 H339 0.929 . S
C351 C345 1.390 . S
C351 C348 1.386 . S
C352 C347 1.490 . S
C352 C354 1.395 . S
C352 C355 1.403 . S
H353 C359 0.930 . S
C354 H340 0.930 . S
C354 C352 1.395 . S
C354 C357 1.403 . S
C355 C352 1.403 . S
C355 C356 1.524 . S
C355 C359 1.400 . S
C356 H341 0.960 . S
C356 H342 0.960 . S
C356 H343 0.960 . S
C356 C355 1.524 . S
C357 C354 1.403 . S
C357 C358 1.392 . S
C357 C361 1.495 . S
C358 C357 1.392 . S
C358 C359 1.385 . S
C358 C360 1.478 . S
C359 H353 0.930 . S
C359 C355 1.400 . S
C359 C358 1.385 . S
C360 C358 1.478 . S
C360 C362 1.381 . S
C360 C366 1.383 . S
C361 C357 1.495 . S
C361 H367 0.959 . S
C361 H368 0.961 . S
C361 H369 0.960 . S
C362 C360 1.381 . S
C362 C363 1.394 . S
C362 H370 0.930 . S
C363 C362 1.394 . S
C363 C364 1.383 . S
C363 H371 0.929 . S
C364 C363 1.383 . S
C364 C365 1.377 . S
C365 H349 0.930 . S
C365 C364 1.377 . S
C365 C366 1.379 . S
C366 H350 0.931 . S
C366 C360 1.383 . S
C366 C365 1.379 . S
H367 C361 0.959 . S
H368 C361 0.961 . S
H369 C361 0.960 . S
H370 C362 0.930 . S
H371 C363 0.929 . S
H372 C380 0.929 . S
H373 C382 0.930 . S
H374 C384 0.930 . S
H375 C387 0.921 1_655 S
H376 C390 0.930 . S
H377 C392 0.960 . S
H378 C392 0.960 . S
H379 C392 0.960 . S
C380 H372 0.929 . S
C380 C381 1.377 . S
C380 C382 1.384 1_655 S
C381 C380 1.377 . S
C381 C387 1.361 1_655 S
C382 H373 0.930 . S
C382 C380 1.384 1_455 S
C382 C383 1.372 . S
C383 C382 1.372 . S
C383 C384 1.400 . S
C383 C388 1.490 . S
C384 H374 0.930 . S
C384 C383 1.400 . S
C384 C387 1.426 . S
H385 C401 0.930 . S
H386 C402 0.931 . S
C387 H375 0.921 1_455 S
C387 C381 1.361 1_455 S
C387 C384 1.426 . S
C388 C383 1.490 . S
C388 C390 1.395 . S
C388 C391 1.403 . S
H389 C395 0.930 . S
C390 H376 0.930 . S
C390 C388 1.395 . S
C390 C393 1.403 . S
C391 C388 1.403 . S
C391 C392 1.524 . S
C391 C395 1.400 . S
C392 H377 0.960 . S
C392 H378 0.960 . S
C392 H379 0.960 . S
C392 C391 1.524 . S
C393 C390 1.403 . S
C393 C394 1.392 . S
C393 C397 1.495 . S
C394 C393 1.392 . S
C394 C395 1.385 . S
C394 C396 1.478 . S
C395 H389 0.930 . S
C395 C391 1.400 . S
C395 C394 1.385 . S
C396 C394 1.478 . S
C396 C398 1.381 . S
C396 C402 1.383 . S
C397 C393 1.495 . S
C397 H403 0.959 . S
C397 H404 0.961 . S
C397 H405 0.960 . S
C398 C396 1.381 . S
C398 C399 1.394 . S
C398 H406 0.930 . S
C399 C398 1.394 . S
C399 C400 1.383 . S
C399 H407 0.929 . S
C400 C399 1.383 . S
C400 C401 1.377 . S
C401 H385 0.930 . S
C401 C400 1.377 . S
C401 C402 1.379 . S
C402 H386 0.931 . S
C402 C396 1.383 . S
C402 C401 1.379 . S
H403 C397 0.959 . S
H404 C397 0.961 . S
H405 C397 0.960 . S
H406 C398 0.930 . S
H407 C399 0.929 . S
H408 C416 0.929 . S
H409 C418 0.930 . S
H410 C420 0.930 . S
H411 C423 0.929 . S
H412 C426 0.930 . S
H413 C428 0.960 . S
H414 C428 0.960 . S
H415 C428 0.960 . S
C416 H408 0.929 . S
C416 C417 1.377 . S
C416 C418 1.384 . S
C417 C416 1.377 . S
C417 C423 1.390 . S
C418 H409 0.930 . S
C418 C416 1.384 . S
C418 C419 1.372 . S
C419 C418 1.372 . S
C419 C420 1.400 . S
C419 C424 1.490 . S
C420 H410 0.930 . S
C420 C419 1.400 . S
C420 C423 1.386 . S
H421 C437 0.930 . S
H422 C438 0.931 . S
C423 H411 0.929 . S
C423 C417 1.390 . S
C423 C420 1.386 . S
C424 C419 1.490 . S
C424 C426 1.395 . S
C424 C427 1.403 . S
H425 C431 0.930 . S
C426 H412 0.930 . S
C426 C424 1.395 . S
C426 C429 1.403 . S
C427 C424 1.403 . S
C427 C428 1.524 . S
C427 C431 1.400 . S
C428 H413 0.960 . S
C428 H414 0.960 . S
C428 H415 0.960 . S
C428 C427 1.524 . S
C429 C426 1.403 . S
C429 C430 1.392 . S
C429 C433 1.495 . S
C430 C429 1.392 . S
C430 C431 1.385 . S
C430 C432 1.478 . S
C431 H425 0.930 . S
C431 C427 1.400 . S
C431 C430 1.385 . S
C432 C430 1.478 . S
C432 C434 1.381 1_556 S
C432 C438 1.383 . S
C433 C429 1.495 . S
C433 H439 0.959 . S
C433 H440 0.961 . S
C433 H441 0.960 1_556 S
C434 C432 1.381 1_554 S
C434 C435 1.394 . S
C434 H442 0.930 . S
C435 C434 1.394 . S
C435 C436 1.383 . S
C435 H443 0.929 . S
C436 C435 1.383 . S
C436 C437 1.377 1_554 S
C437 H421 0.930 . S
C437 C436 1.377 1_556 S
C437 C438 1.379 . S
C438 H422 0.931 . S
C438 C432 1.383 . S
C438 C437 1.379 . S
H439 C433 0.959 . S
H440 C433 0.961 . S
H441 C433 0.960 1_554 S
H442 C434 0.930 . S
H443 C435 0.929 . S
H444 C452 0.929 . S
H445 C454 0.930 . S
H446 C456 0.930 . S
H447 C459 0.929 . S
H448 C462 0.930 . S
H449 C464 0.960 . S
H450 C464 0.960 . S
H451 C464 0.960 . S
C452 H444 0.929 . S
C452 C453 1.377 . S
C452 C454 1.384 . S
C453 C452 1.377 . S
C453 C459 1.390 . S
C454 H445 0.930 . S
C454 C452 1.384 . S
C454 C455 1.372 . S
C455 C454 1.372 . S
C455 C456 1.400 . S
C455 C460 1.490 . S
C456 H446 0.930 . S
C456 C455 1.400 . S
C456 C459 1.386 . S
H457 C473 0.930 . S
H458 C474 0.931 . S
C459 H447 0.929 . S
C459 C453 1.390 . S
C459 C456 1.386 . S
C460 C455 1.490 . S
C460 C462 1.395 . S
C460 C463 1.403 . S
H461 C467 0.930 . S
C462 H448 0.930 . S
C462 C460 1.395 . S
C462 C465 1.403 . S
C463 C460 1.403 . S
C463 C464 1.524 . S
C463 C467 1.400 . S
C464 H449 0.960 . S
C464 H450 0.960 . S
C464 H451 0.960 . S
C464 C463 1.524 . S
C465 C462 1.403 . S
C465 C466 1.392 . S
C465 C469 1.495 . S
C466 C465 1.392 . S
C466 C467 1.385 . S
C466 C468 1.478 . S
C467 H461 0.930 . S
C467 C463 1.400 . S
C467 C466 1.385 . S
C468 C466 1.478 . S
C468 C470 1.381 . S
C468 C474 1.383 . S
C469 C465 1.495 . S
C469 H475 0.959 . S
C469 H476 0.961 . S
C469 H477 0.960 . S
C470 C468 1.381 . S
C470 C471 1.394 . S
C470 H478 0.930 . S
C471 C470 1.394 . S
C471 C472 1.383 . S
C471 H479 0.929 . S
C472 C471 1.383 . S
C472 C473 1.377 . S
C473 H457 0.930 . S
C473 C472 1.377 . S
C473 C474 1.379 . S
C474 H458 0.931 . S
C474 C468 1.383 . S
C474 C473 1.379 . S
H475 C469 0.959 . S
H476 C469 0.961 . S
H477 C469 0.960 . S
H478 C470 0.930 . S
H479 C471 0.929 . S
H480 C488 0.929 . S
H481 C490 0.930 . S
H482 C492 0.930 . S
H483 C495 0.929 . S
H484 C498 0.930 . S
H485 C500 0.960 . S
H486 C500 0.960 . S
H487 C500 0.960 . S
C488 H480 0.929 . S
C488 C489 1.377 . S
C488 C490 1.384 . S
C489 C488 1.377 . S
C489 C495 1.390 . S
C490 H481 0.930 . S
C490 C488 1.384 . S
C490 C491 1.372 . S
C491 C490 1.372 . S
C491 C492 1.400 . S
C491 C496 1.490 . S
C492 H482 0.930 . S
C492 C491 1.400 . S
C492 C495 1.386 . S
H493 C509 0.930 . S
H494 C510 0.931 . S
C495 H483 0.929 . S
C495 C489 1.390 . S
C495 C492 1.386 . S
C496 C491 1.490 . S
C496 C498 1.395 . S
C496 C499 1.403 . S
H497 C503 0.930 . S
C498 H484 0.930 . S
C498 C496 1.395 . S
C498 C501 1.403 . S
C499 C496 1.403 . S
C499 C500 1.524 . S
C499 C503 1.400 . S
C500 H485 0.960 . S
C500 H486 0.960 . S
C500 H487 0.960 . S
C500 C499 1.524 . S
C501 C498 1.403 . S
C501 C502 1.392 . S
C501 C505 1.495 . S
C502 C501 1.392 . S
C502 C503 1.385 . S
C502 C504 1.478 . S
C503 H497 0.930 . S
C503 C499 1.400 . S
C503 C502 1.385 . S
C504 C502 1.478 . S
C504 C506 1.381 . S
C504 C510 1.383 . S
C505 C501 1.495 . S
C505 H511 0.959 . S
C505 H512 0.961 . S
C505 H513 0.960 . S
C506 C504 1.381 . S
C506 C507 1.394 . S
C506 H514 0.930 . S
C507 C506 1.394 . S
C507 C508 1.383 . S
C507 H515 0.929 . S
C508 C507 1.383 . S
C508 C509 1.377 . S
C509 H493 0.930 . S
C509 C508 1.377 . S
C509 C510 1.379 . S
C510 H494 0.931 . S
C510 C504 1.383 . S
C510 C509 1.379 . S
H511 C505 0.959 . S
H512 C505 0.961 . S
H513 C505 0.960 . S
H514 C506 0.930 . S
H515 C507 0.929 . S
H516 C524 0.929 . S
H517 C526 0.930 . S
H518 C528 0.930 . S
H519 C531 0.929 . S
H520 C534 0.930 . S
H521 C536 0.960 . S
H522 C536 0.960 . S
H523 C536 0.960 . S
C524 H516 0.929 . S
C524 C525 1.377 . S
C524 C526 1.384 . S
C525 C524 1.377 . S
C525 C531 1.390 . S
C526 H517 0.930 . S
C526 C524 1.384 . S
C526 C527 1.372 . S
C527 C526 1.372 . S
C527 C528 1.400 . S
C527 C532 1.490 . S
C528 H518 0.930 . S
C528 C527 1.400 . S
C528 C531 1.386 . S
H529 C545 0.930 . S
H530 C546 0.931 . S
C531 H519 0.929 . S
C531 C525 1.390 . S
C531 C528 1.386 . S
C532 C527 1.490 . S
C532 C534 1.395 . S
C532 C535 1.403 . S
H533 C539 0.930 . S
C534 H520 0.930 . S
C534 C532 1.395 . S
C534 C537 1.403 . S
C535 C532 1.403 . S
C535 C536 1.524 . S
C535 C539 1.400 . S
C536 H521 0.960 . S
C536 H522 0.960 . S
C536 H523 0.960 . S
C536 C535 1.524 . S
C537 C534 1.403 . S
C537 C538 1.392 . S
C537 C541 1.495 . S
C538 C537 1.392 . S
C538 C539 1.385 . S
C538 C540 1.478 . S
C539 H533 0.930 . S
C539 C535 1.400 . S
C539 C538 1.385 . S
C540 C538 1.478 . S
C540 C542 1.381 . S
C540 C546 1.383 1_655 S
C541 C537 1.495 . S
C541 H547 0.959 . S
C541 H548 0.961 . S
C541 H549 0.960 . S
C542 C540 1.381 . S
C542 C543 1.394 . S
C542 H550 0.930 . S
C543 C542 1.394 . S
C543 C544 1.383 1_655 S
C543 H551 0.929 . S
C544 C543 1.383 1_455 S
C544 C545 1.377 . S
C545 H529 0.930 . S
C545 C544 1.377 . S
C545 C546 1.379 . S
C546 H530 0.931 . S
C546 C540 1.383 1_455 S
C546 C545 1.379 . S
H547 C541 0.959 . S
H548 C541 0.961 . S
H549 C541 0.960 . S
H550 C542 0.930 . S
H551 C543 0.929 . S
H552 C560 0.929 . S
H553 C562 0.930 . S
H554 C564 0.930 . S
H555 C567 0.929 . S
H556 C570 0.930 . S
H557 C572 0.960 . S
H558 C572 0.960 . S
H559 C572 0.960 . S
C560 H552 0.929 . S
C560 C561 1.377 . S
C560 C562 1.384 . S
C561 C560 1.377 . S
C561 C567 1.390 . S
C562 H553 0.930 . S
C562 C560 1.384 . S
C562 C563 1.372 . S
C563 C562 1.372 . S
C563 C564 1.400 . S
C563 C568 1.490 . S
C564 H554 0.930 . S
C564 C563 1.400 . S
C564 C567 1.386 . S
H565 C581 0.930 . S
H566 C582 0.931 . S
C567 H555 0.929 . S
C567 C561 1.390 . S
C567 C564 1.386 . S
C568 C563 1.490 . S
C568 C570 1.395 . S
C568 C571 1.403 . S
H569 C575 0.930 . S
C570 H556 0.930 . S
C570 C568 1.395 . S
C570 C573 1.403 . S
C571 C568 1.403 . S
C571 C572 1.524 . S
C571 C575 1.400 . S
C572 H557 0.960 . S
C572 H558 0.960 . S
C572 H559 0.960 . S
C572 C571 1.524 . S
C573 C570 1.403 . S
C573 C574 1.392 . S
C573 C577 1.495 . S
C574 C573 1.392 . S
C574 C575 1.385 . S
C574 C576 1.478 . S
C575 H569 0.930 . S
C575 C571 1.400 . S
C575 C574 1.385 . S
C576 C574 1.478 . S
C576 C578 1.381 . S
C576 C582 1.383 . S
C577 C573 1.495 . S
C577 H583 0.959 . S
C577 H584 0.961 1_554 S
C577 H585 0.960 . S
C578 C576 1.381 . S
C578 C579 1.407 . S
C578 H586 0.930 . S
C579 C578 1.407 . S
C579 C580 1.373 1_554 S
C579 H587 0.925 1_554 S
C580 C579 1.373 1_556 S
C580 C581 1.377 . S
C581 H565 0.930 . S
C581 C580 1.377 . S
C581 C582 1.379 1_556 S
C582 H566 0.931 . S
C582 C576 1.383 . S
C582 C581 1.379 1_554 S
H583 C577 0.959 . S
H584 C577 0.961 1_556 S
H585 C577 0.960 . S
H586 C578 0.930 . S
H587 C579 0.925 1_556 S
H588 C596 0.929 . S
H589 C598 0.930 . S
H590 C600 0.930 . S
H591 C603 0.929 . S
H592 C606 0.930 . S
H593 C608 0.960 . S
H594 C608 0.960 . S
H595 C608 0.960 . S
C596 H588 0.929 . S
C596 C597 1.377 . S
C596 C598 1.384 . S
C597 C596 1.377 . S
C597 C603 1.390 . S
C598 H589 0.930 . S
C598 C596 1.384 . S
C598 C599 1.372 . S
C599 C598 1.372 . S
C599 C600 1.400 . S
C599 C604 1.490 . S
C600 H590 0.930 . S
C600 C599 1.400 . S
C600 C603 1.386 . S
H601 C617 0.930 . S
H602 C618 0.931 . S
C603 H591 0.929 . S
C603 C597 1.390 . S
C603 C600 1.386 . S
C604 C599 1.490 . S
C604 C606 1.395 . S
C604 C607 1.403 . S
H605 C611 0.930 . S
C606 H592 0.930 . S
C606 C604 1.395 . S
C606 C609 1.403 . S
C607 C604 1.403 . S
C607 C608 1.524 . S
C607 C611 1.400 . S
C608 H593 0.960 . S
C608 H594 0.960 . S
C608 H595 0.960 . S
C608 C607 1.524 . S
C609 C606 1.403 . S
C609 C610 1.392 . S
C609 C613 1.495 . S
C610 C609 1.392 . S
C610 C611 1.385 . S
C610 C612 1.478 . S
C611 H605 0.930 . S
C611 C607 1.400 . S
C611 C610 1.385 . S
C612 C610 1.478 . S
C612 C614 1.381 . S
C612 C618 1.383 . S
C613 C609 1.495 . S
C613 H619 0.959 . S
C613 H620 0.961 . S
C613 H621 0.960 . S
C614 C612 1.381 . S
C614 C615 1.394 . S
C614 H622 0.930 . S
C615 C614 1.394 . S
C615 C616 1.383 . S
C615 H623 0.929 . S
C616 C615 1.383 . S
C616 C617 1.377 . S
C617 H601 0.930 . S
C617 C616 1.377 . S
C617 C618 1.379 . S
C618 H602 0.931 . S
C618 C612 1.383 . S
C618 C617 1.379 . S
H619 C613 0.959 . S
H620 C613 0.961 . S
H621 C613 0.960 . S
H622 C614 0.930 . S
H623 C615 0.929 . S
H624 C632 0.929 . S
H625 C634 0.930 . S
H626 C636 0.930 . S
H627 C639 0.929 . S
H628 C642 0.930 . S
H629 C644 0.960 . S
H630 C644 0.960 . S
H631 C644 0.960 . S
C632 H624 0.929 . S
C632 C633 1.377 . S
C632 C634 1.384 . S
C633 C632 1.377 . S
C633 C639 1.390 . S
C634 H625 0.930 . S
C634 C632 1.384 . S
C634 C635 1.372 . S
C635 C634 1.372 . S
C635 C636 1.400 . S
C635 C640 1.490 . S
C636 H626 0.930 . S
C636 C635 1.400 . S
C636 C639 1.386 . S
H637 C653 0.930 . S
H638 C654 0.931 . S
C639 H627 0.929 . S
C639 C633 1.390 . S
C639 C636 1.386 . S
C640 C635 1.490 . S
C640 C642 1.395 . S
C640 C643 1.403 . S
H641 C647 0.930 . S
C642 H628 0.930 . S
C642 C640 1.395 . S
C642 C645 1.403 . S
C643 C640 1.403 . S
C643 C644 1.524 . S
C643 C647 1.400 . S
C644 H629 0.960 . S
C644 H630 0.960 . S
C644 H631 0.960 . S
C644 C643 1.524 . S
C645 C642 1.403 . S
C645 C646 1.392 . S
C645 C649 1.495 . S
C646 C645 1.392 . S
C646 C647 1.385 . S
C646 C648 1.478 . S
C647 H641 0.930 . S
C647 C643 1.400 . S
C647 C646 1.385 . S
C648 C646 1.478 . S
C648 C650 1.381 . S
C648 C654 1.383 . S
C649 C645 1.495 . S
C649 H655 0.959 . S
C649 H656 0.961 . S
C649 H657 0.960 . S
C650 C648 1.381 . S
C650 C651 1.394 . S
C650 H658 0.930 . S
C651 C650 1.394 . S
C651 C652 1.383 . S
C651 H659 0.929 . S
C652 C651 1.383 . S
C652 C653 1.377 . S
C653 H637 0.930 . S
C653 C652 1.377 . S
C653 C654 1.379 . S
C654 H638 0.931 . S
C654 C648 1.383 . S
C654 C653 1.379 . S
H655 C649 0.959 . S
H656 C649 0.961 . S
H657 C649 0.960 . S
H658 C650 0.930 . S
H659 C651 0.929 . S
H660 C668 0.929 . S
H661 C670 0.930 . S
H662 C672 0.936 . S
H663 C675 0.929 . S
H664 C678 0.930 . S
H665 C680 0.960 . S
H666 C680 0.960 . S
H667 C680 0.960 . S
C668 H660 0.929 . S
C668 C669 1.377 1_545 S
C668 C670 1.384 . S
C669 C668 1.377 1_565 S
C669 C675 1.390 . S
C670 H661 0.930 . S
C670 C668 1.384 . S
C670 C671 1.372 . S
C671 C670 1.372 . S
C671 C672 1.400 . S
C671 C676 1.490 . S
C672 H662 0.936 . S
C672 C671 1.400 . S
C672 C675 1.386 1_545 S
H673 C689 0.930 . S
H674 C690 0.931 . S
C675 H663 0.929 . S
C675 C669 1.390 . S
C675 C672 1.386 1_565 S
C676 C671 1.490 . S
C676 C678 1.395 . S
C676 C679 1.403 . S
H677 C683 0.930 . S
C678 H664 0.930 . S
C678 C676 1.395 . S
C678 C681 1.403 . S
C679 C676 1.403 . S
C679 C680 1.524 . S
C679 C683 1.400 . S
C680 H665 0.960 . S
C680 H666 0.960 . S
C680 H667 0.960 . S
C680 C679 1.524 . S
C681 C678 1.403 . S
C681 C682 1.392 . S
C681 C685 1.495 . S
C682 C681 1.392 . S
C682 C683 1.385 . S
C682 C684 1.478 . S
C683 H677 0.930 . S
C683 C679 1.400 . S
C683 C682 1.385 . S
C684 C682 1.478 . S
C684 C686 1.381 . S
C684 C690 1.383 . S
C685 C681 1.495 . S
C685 H691 0.959 . S
C685 H692 0.961 . S
C685 H693 0.960 . S
C686 C684 1.381 . S
C686 C687 1.394 . S
C686 H694 0.930 . S
C687 C686 1.394 . S
C687 C688 1.383 . S
C687 H695 0.929 . S
C688 C687 1.383 . S
C688 C689 1.377 . S
C689 H673 0.930 . S
C689 C688 1.377 . S
C689 C690 1.379 . S
C690 H674 0.931 . S
C690 C684 1.383 . S
C690 C689 1.379 . S
H691 C685 0.959 . S
H692 C685 0.961 . S
H693 C685 0.960 . S
H694 C686 0.930 . S
H695 C687 0.929 . S
H696 C704 0.929 . S
H697 C706 0.930 . S
H698 C708 0.930 . S
H699 C711 0.929 . S
H700 C714 0.930 . S
H701 C716 0.960 . S
H702 C716 0.960 . S
H703 C716 0.960 . S
C704 H696 0.929 . S
C704 C705 1.377 . S
C704 C706 1.384 . S
C705 C704 1.377 . S
C705 C711 1.390 . S
C706 H697 0.930 . S
C706 C704 1.384 . S
C706 C707 1.372 . S
C707 C706 1.372 . S
C707 C708 1.400 . S
C707 C712 1.490 . S
C708 H698 0.930 . S
C708 C707 1.400 . S
C708 C711 1.386 . S
H709 C725 0.930 . S
H710 C726 0.931 . S
C711 H699 0.929 . S
C711 C705 1.390 . S
C711 C708 1.386 . S
C712 C707 1.490 . S
C712 C714 1.395 . S
C712 C715 1.403 . S
H713 C719 0.930 . S
C714 H700 0.930 . S
C714 C712 1.395 . S
C714 C717 1.403 . S
C715 C712 1.403 . S
C715 C716 1.524 . S
C715 C719 1.400 . S
C716 H701 0.960 . S
C716 H702 0.960 . S
C716 H703 0.960 . S
C716 C715 1.524 . S
C717 C714 1.403 . S
C717 C718 1.392 . S
C717 C721 1.495 . S
C718 C717 1.392 . S
C718 C719 1.385 . S
C718 C720 1.478 . S
C719 H713 0.930 . S
C719 C715 1.400 . S
C719 C718 1.385 . S
C720 C718 1.478 . S
C720 C722 1.381 1_565 S
C720 C726 1.383 . S
C721 C717 1.495 . S
C721 H727 0.959 . S
C721 H728 0.970 . S
C721 H729 0.960 1_565 S
C722 C720 1.381 1_545 S
C722 C723 1.394 . S
C722 H730 0.930 . S
C723 C722 1.394 . S
C723 C724 1.383 . S
C723 H731 0.929 . S
C724 C723 1.383 . S
C724 C725 1.377 1_545 S
C725 H709 0.930 . S
C725 C724 1.377 1_565 S
C725 C726 1.379 . S
C726 H710 0.931 . S
C726 C720 1.383 . S
C726 C725 1.379 . S
H727 C721 0.959 . S
H728 C721 0.970 . S
H729 C721 0.960 1_545 S
H730 C722 0.930 . S
H731 C723 0.929 . S
H732 C740 0.929 . S
H733 C742 0.930 . S
H734 C744 0.930 . S
H735 C747 0.929 . S
H736 C750 0.930 . S
H737 C752 0.960 . S
H738 C752 0.960 . S
H739 C752 0.960 . S
C740 H732 0.929 . S
C740 C741 1.377 . S
C740 C742 1.384 . S
C741 C740 1.377 . S
C741 C747 1.390 . S
C742 H733 0.930 . S
C742 C740 1.384 . S
C742 C743 1.372 . S
C743 C742 1.372 . S
C743 C744 1.400 . S
C743 C748 1.490 . S
C744 H734 0.930 . S
C744 C743 1.400 . S
C744 C747 1.386 . S
H745 C761 0.930 . S
H746 C762 0.931 . S
C747 H735 0.929 . S
C747 C741 1.390 . S
C747 C744 1.386 . S
C748 C743 1.490 . S
C748 C750 1.395 . S
C748 C751 1.403 . S
H749 C755 0.930 . S
C750 H736 0.930 . S
C750 C748 1.395 . S
C750 C753 1.403 . S
C751 C748 1.403 . S
C751 C752 1.524 . S
C751 C755 1.400 . S
C752 H737 0.960 . S
C752 H738 0.960 . S
C752 H739 0.960 . S
C752 C751 1.524 . S
C753 C750 1.403 . S
C753 C754 1.392 . S
C753 C757 1.495 . S
C754 C753 1.392 . S
C754 C755 1.385 . S
C754 C756 1.478 . S
C755 H749 0.930 . S
C755 C751 1.400 . S
C755 C754 1.385 . S
C756 C754 1.478 . S
C756 C758 1.381 . S
C756 C762 1.383 . S
C757 C753 1.495 . S
C757 H763 0.959 . S
C757 H764 0.961 . S
C757 H765 0.960 . S
C758 C756 1.381 . S
C758 C759 1.394 . S
C758 H766 0.930 . S
C759 C758 1.394 . S
C759 C760 1.383 . S
C759 H767 0.929 . S
C760 C759 1.383 . S
C760 C761 1.377 . S
C761 H745 0.930 . S
C761 C760 1.377 . S
C761 C762 1.379 . S
C762 H746 0.931 . S
C762 C756 1.383 . S
C762 C761 1.379 . S
H763 C757 0.959 . S
H764 C757 0.961 . S
H765 C757 0.960 . S
H766 C758 0.930 . S
H767 C759 0.929 . S
H768 C776 0.929 . S
H769 C778 0.930 . S
H770 C780 0.930 . S
H771 C783 0.929 . S
H772 C786 0.930 . S
H773 C788 0.960 . S
H774 C788 0.960 . S
H775 C788 0.960 . S
C776 H768 0.929 . S
C776 C777 1.377 . S
C776 C778 1.384 . S
C777 C776 1.377 . S
C777 C783 1.390 . S
C778 H769 0.930 . S
C778 C776 1.384 . S
C778 C779 1.372 . S
C779 C778 1.372 . S
C779 C780 1.400 . S
C779 C784 1.490 . S
C780 H770 0.930 . S
C780 C779 1.400 . S
C780 C783 1.386 . S
H781 C797 0.930 . S
H782 C798 0.931 . S
C783 H771 0.929 . S
C783 C777 1.390 . S
C783 C780 1.386 . S
C784 C779 1.490 . S
C784 C786 1.395 . S
C784 C787 1.403 . S
H785 C791 0.930 . S
C786 H772 0.930 . S
C786 C784 1.395 . S
C786 C789 1.403 . S
C787 C784 1.403 . S
C787 C788 1.524 . S
C787 C791 1.400 . S
C788 H773 0.960 . S
C788 H774 0.960 . S
C788 H775 0.960 . S
C788 C787 1.524 . S
C789 C786 1.403 . S
C789 C790 1.392 . S
C789 C793 1.495 . S
C790 C789 1.392 . S
C790 C791 1.385 . S
C790 C792 1.478 . S
C791 H785 0.930 . S
C791 C787 1.400 . S
C791 C790 1.385 . S
C792 C790 1.478 . S
C792 C794 1.381 . S
C792 C798 1.383 . S
C793 C789 1.495 . S
C793 H799 0.959 . S
C793 H800 0.961 . S
C793 H801 0.960 . S
C794 C792 1.381 . S
C794 C795 1.394 . S
C794 H802 0.930 . S
C795 C794 1.394 . S
C795 C796 1.383 . S
C795 H803 0.929 . S
C796 C795 1.383 . S
C796 C797 1.377 . S
C797 H781 0.930 . S
C797 C796 1.377 . S
C797 C798 1.379 . S
C798 H782 0.931 . S
C798 C792 1.383 . S
C798 C797 1.379 . S
H799 C793 0.959 . S
H800 C793 0.961 . S
H801 C793 0.960 . S
H802 C794 0.930 . S
H803 C795 0.929 . S
H804 C812 0.929 . S
H805 C814 0.985 . S
H806 C816 0.930 . S
H807 C819 0.929 . S
H808 C822 0.930 . S
H809 C824 0.960 . S
H810 C824 0.960 . S
H811 C824 0.960 . S
C812 H804 0.929 . S
C812 C813 1.377 . S
C812 C814 1.343 1_565 S
C813 C812 1.377 . S
C813 C819 1.390 . S
C814 H805 0.985 . S
C814 C812 1.343 1_545 S
C814 C815 1.361 1_545 S
C815 C814 1.361 1_565 S
C815 C816 1.400 . S
C815 C820 1.490 1_565 S
C816 H806 0.930 . S
C816 C815 1.400 . S
C816 C819 1.386 . S
H817 C833 0.930 . S
H818 C834 0.931 . S
C819 H807 0.929 . S
C819 C813 1.390 . S
C819 C816 1.386 . S
C820 C815 1.490 1_545 S
C820 C822 1.395 . S
C820 C823 1.403 . S
H821 C827 0.930 . S
C822 H808 0.930 . S
C822 C820 1.395 . S
C822 C825 1.403 . S
C823 C820 1.403 . S
C823 C824 1.524 1_545 S
C823 C827 1.400 . S
C824 H809 0.960 . S
C824 H810 0.960 . S
C824 H811 0.960 . S
C824 C823 1.524 1_565 S
C825 C822 1.403 . S
C825 C826 1.392 . S
C825 C829 1.495 . S
C826 C825 1.392 . S
C826 C827 1.385 . S
C826 C828 1.478 . S
C827 H821 0.930 . S
C827 C823 1.400 . S
C827 C826 1.385 . S
C828 C826 1.478 . S
C828 C830 1.381 . S
C828 C834 1.383 . S
C829 C825 1.495 . S
C829 H835 0.959 . S
C829 H836 0.961 . S
C829 H837 0.960 . S
C830 C828 1.381 . S
C830 C831 1.394 . S
C830 H838 0.930 . S
C831 C830 1.394 . S
C831 C832 1.383 . S
C831 H839 0.929 . S
C832 C831 1.383 . S
C832 C833 1.377 . S
C833 H817 0.930 . S
C833 C832 1.377 . S
C833 C834 1.379 . S
C834 H818 0.931 . S
C834 C828 1.383 . S
C834 C833 1.379 . S
H835 C829 0.959 . S
H836 C829 0.961 . S
H837 C829 0.960 . S
H838 C830 0.930 . S
H839 C831 0.929 . S
H840 C848 0.929 . S
H841 C850 0.930 . S
H842 C852 0.930 . S
H843 C855 0.929 . S
H844 C858 0.930 . S
H845 C860 0.960 . S
H846 C860 0.960 . S
H847 C860 0.960 . S
C848 H840 0.929 . S
C848 C849 1.377 . S
C848 C850 1.384 . S
C849 C848 1.377 . S
C849 C855 1.390 . S
C850 H841 0.930 . S
C850 C848 1.384 . S
C850 C851 1.372 . S
C851 C850 1.372 . S
C851 C852 1.400 . S
C851 C856 1.490 . S
C852 H842 0.930 . S
C852 C851 1.400 . S
C852 C855 1.386 . S
H853 C869 0.930 . S
H854 C870 0.931 . S
C855 H843 0.929 . S
C855 C849 1.390 . S
C855 C852 1.386 . S
C856 C851 1.490 . S
C856 C858 1.395 . S
C856 C859 1.403 . S
H857 C863 0.930 . S
C858 H844 0.930 . S
C858 C856 1.395 . S
C858 C861 1.403 . S
C859 C856 1.403 . S
C859 C860 1.524 . S
C859 C863 1.400 . S
C860 H845 0.960 . S
C860 H846 0.960 . S
C860 H847 0.960 . S
C860 C859 1.524 . S
C861 C858 1.403 . S
C861 C862 1.392 . S
C861 C865 1.495 1_556 S
C862 C861 1.392 . S
C862 C863 1.385 . S
C862 C864 1.478 1_556 S
C863 H857 0.930 . S
C863 C859 1.400 . S
C863 C862 1.385 . S
C864 C862 1.478 1_554 S
C864 C866 1.381 . S
C864 C870 1.383 . S
C865 C861 1.495 1_554 S
C865 H871 0.959 . S
C865 H872 0.961 . S
C865 H873 0.960 . S
C866 C864 1.381 . S
C866 C867 1.394 . S
C866 H874 0.930 1_554 S
C867 C866 1.394 . S
C867 C868 1.383 . S
C867 H875 0.929 . S
C868 C867 1.383 . S
C868 C869 1.377 . S
C869 H853 0.930 . S
C869 C868 1.377 . S
C869 C870 1.379 . S
C870 H854 0.931 . S
C870 C864 1.383 . S
C870 C869 1.379 . S
H871 C865 0.959 . S
H872 C865 0.961 . S
H873 C865 0.960 . S
H874 C866 0.930 1_556 S
H875 C867 0.929 . S
H876 C884 0.929 . S
H877 C886 0.930 . S
H878 C888 0.930 . S
H879 C891 0.929 . S
H880 C894 0.930 . S
H881 C896 0.955 1_565 S
H882 C896 0.954 1_565 S
H883 C896 0.960 . S
C884 H876 0.929 . S
C884 C885 1.377 . S
C884 C886 1.384 1_545 S
C885 C884 1.377 . S
C885 C891 1.390 . S
C886 H877 0.930 . S
C886 C884 1.384 1_565 S
C886 C887 1.372 1_565 S
C887 C886 1.372 1_545 S
C887 C888 1.400 . S
C887 C892 1.490 1_545 S
C888 H878 0.930 . S
C888 C887 1.400 . S
C888 C891 1.386 . S
H889 C905 0.930 . S
H890 C906 0.931 . S
C891 H879 0.929 . S
C891 C885 1.390 . S
C891 C888 1.386 . S
C892 C887 1.490 1_565 S
C892 C894 1.395 . S
C892 C895 1.403 . S
H893 C899 0.930 . S
C894 H880 0.930 . S
C894 C892 1.395 . S
C894 C897 1.403 . S
C895 C892 1.403 . S
C895 C896 1.524 1_565 S
C895 C899 1.400 . S
C896 H881 0.955 1_545 S
C896 H882 0.954 1_545 S
C896 H883 0.960 . S
C896 C895 1.524 1_545 S
C897 C894 1.403 . S
C897 C898 1.392 . S
C897 C901 1.495 . S
C898 C897 1.392 . S
C898 C899 1.385 . S
C898 C900 1.478 . S
C899 H893 0.930 . S
C899 C895 1.400 . S
C899 C898 1.385 . S
C900 C898 1.478 . S
C900 C902 1.381 . S
C900 C906 1.383 . S
C901 C897 1.495 . S
C901 H907 0.959 . S
C901 H908 0.961 . S
C901 H909 0.960 . S
C902 C900 1.381 . S
C902 C903 1.394 . S
C902 H910 0.930 . S
C903 C902 1.394 . S
C903 C904 1.383 . S
C903 H911 0.929 . S
C904 C903 1.383 . S
C904 C905 1.377 . S
C905 H889 0.930 . S
C905 C904 1.377 . S
C905 C906 1.379 . S
C906 H890 0.931 . S
C906 C900 1.383 . S
C906 C905 1.379 . S
H907 C901 0.959 . S
H908 C901 0.961 . S
H909 C901 0.960 . S
H910 C902 0.930 . S
H911 C903 0.929 . S
H912 C920 0.929 . S
H913 C922 0.930 . S
H914 C924 0.930 . S
H915 C927 0.929 . S
H916 C930 0.930 . S
H917 C932 0.960 . S
H918 C932 0.960 . S
H919 C932 0.960 . S
C920 H912 0.929 . S
C920 C921 1.377 . S
C920 C922 1.384 . S
C921 C920 1.377 . S
C921 C927 1.390 . S
C922 H913 0.930 . S
C922 C920 1.384 . S
C922 C923 1.372 . S
C923 C922 1.372 . S
C923 C924 1.400 . S
C923 C928 1.490 . S
C924 H914 0.930 . S
C924 C923 1.400 . S
C924 C927 1.386 . S
H925 C941 0.930 . S
H926 C942 0.931 . S
C927 H915 0.929 . S
C927 C921 1.390 . S
C927 C924 1.386 . S
C928 C923 1.490 . S
C928 C930 1.395 . S
C928 C931 1.403 . S
H929 C935 0.930 . S
C930 H916 0.930 . S
C930 C928 1.395 . S
C930 C933 1.403 . S
C931 C928 1.403 . S
C931 C932 1.524 . S
C931 C935 1.400 . S
C932 H917 0.960 . S
C932 H918 0.960 . S
C932 H919 0.960 . S
C932 C931 1.524 . S
C933 C930 1.403 . S
C933 C934 1.392 . S
C933 C937 1.495 . S
C934 C933 1.392 . S
C934 C935 1.385 . S
C934 C936 1.478 . S
C935 H929 0.930 . S
C935 C931 1.400 . S
C935 C934 1.385 . S
C936 C934 1.478 . S
C936 C938 1.381 . S
C936 C942 1.383 . S
C937 C933 1.495 . S
C937 H943 0.959 . S
C937 H944 0.961 . S
C937 H945 0.960 . S
C938 C936 1.381 . S
C938 C939 1.394 . S
C938 H946 0.930 . S
C939 C938 1.394 . S
C939 C940 1.383 . S
C939 H947 0.929 . S
C940 C939 1.383 . S
C940 C941 1.377 . S
C941 H925 0.930 . S
C941 C940 1.377 . S
C941 C942 1.379 . S
C942 H926 0.931 . S
C942 C936 1.383 . S
C942 C941 1.379 . S
H943 C937 0.959 . S
H944 C937 0.961 . S
H945 C937 0.960 . S
H946 C938 0.930 . S
H947 C939 0.929 . S
H948 C956 0.929 . S
H949 C958 0.930 . S
H950 C960 0.930 . S
H951 C963 0.929 . S
H952 C966 0.930 . S
H953 C968 0.960 . S
H954 C968 0.960 . S
H955 C968 0.960 . S
C956 H948 0.929 . S
C956 C957 1.377 . S
C956 C958 1.384 . S
C957 C956 1.377 . S
C957 C963 1.390 . S
C958 H949 0.930 . S
C958 C956 1.384 . S
C958 C959 1.372 . S
C959 C958 1.372 . S
C959 C960 1.400 . S
C959 C964 1.490 . S
C960 H950 0.930 . S
C960 C959 1.400 . S
C960 C963 1.386 . S
H961 C977 0.930 . S
H962 C978 0.931 . S
C963 H951 0.929 . S
C963 C957 1.390 . S
C963 C960 1.386 . S
C964 C959 1.490 . S
C964 C966 1.395 . S
C964 C967 1.403 . S
H965 C971 0.930 . S
C966 H952 0.930 . S
C966 C964 1.395 . S
C966 C969 1.403 . S
C967 C964 1.403 . S
C967 C968 1.524 . S
C967 C971 1.400 . S
C968 H953 0.960 . S
C968 H954 0.960 . S
C968 H955 0.960 . S
C968 C967 1.524 . S
C969 C966 1.403 . S
C969 C970 1.392 . S
C969 C973 1.495 . S
C970 C969 1.392 . S
C970 C971 1.385 . S
C970 C972 1.478 . S
C971 H965 0.930 . S
C971 C967 1.400 . S
C971 C970 1.385 . S
C972 C970 1.478 . S
C972 C974 1.381 . S
C972 C978 1.383 . S
C973 C969 1.495 . S
C973 H979 0.959 . S
C973 H980 0.961 . S
C973 H981 0.960 . S
C974 C972 1.381 . S
C974 C975 1.394 . S
C974 H982 0.930 . S
C975 C974 1.394 . S
C975 C976 1.383 . S
C975 H983 0.929 . S
C976 C975 1.383 . S
C976 C977 1.377 . S
C977 H961 0.930 . S
C977 C976 1.377 . S
C977 C978 1.379 . S
C978 H962 0.931 . S
C978 C972 1.383 . S
C978 C977 1.379 . S
H979 C973 0.959 . S
H980 C973 0.961 . S
H981 C973 0.960 . S
H982 C974 0.930 . S
H983 C975 0.929 . S
H984 C992 0.929 . S
H985 C994 0.930 . S
H986 C996 0.914 1_554 S
H987 C999 0.929 . S
H988 C1002 0.930 . S
H989 C1004 0.960 . S
H990 C1004 0.960 . S
H991 C1004 0.960 . S
C992 H984 0.929 . S
C992 C993 1.377 . S
C992 C994 1.384 . S
C993 C992 1.377 . S
C993 C999 1.390 . S
C994 H985 0.930 . S
C994 C992 1.384 . S
C994 C995 1.372 . S
C995 C994 1.372 . S
C995 C996 1.400 . S
C995 C1000 1.490 1_556 S
C996 H986 0.914 1_556 S
C996 C995 1.400 . S
C996 C999 1.386 . S
H997 C1013 0.930 . S
H998 C1014 0.931 . S
C999 H987 0.929 . S
C999 C993 1.390 . S
C999 C996 1.386 . S
C1000 C995 1.490 1_554 S
C1000 C1002 1.395 . S
C1000 C1003 1.403 . S
H1001 C1007 0.930 . S
C1002 H988 0.930 . S
C1002 C1000 1.395 . S
C1002 C1005 1.403 . S
C1003 C1000 1.403 . S
C1003 C1004 1.524 1_554 S
C1003 C1007 1.400 . S
C1004 H989 0.960 . S
C1004 H990 0.960 . S
C1004 H991 0.960 . S
C1004 C1003 1.524 1_556 S
C1005 C1002 1.403 . S
C1005 C1006 1.392 . S
C1005 C1009 1.495 . S
C1006 C1005 1.392 . S
C1006 C1007 1.385 . S
C1006 C1008 1.478 . S
C1007 H1001 0.930 . S
C1007 C1003 1.400 . S
C1007 C1006 1.385 . S
C1008 C1006 1.478 . S
C1008 C1010 1.381 . S
C1008 C1014 1.383 . S
C1009 C1005 1.495 . S
C1009 H1015 0.959 . S
C1009 H1016 0.961 . S
C1009 H1017 0.960 . S
C1010 C1008 1.381 . S
C1010 C1011 1.394 . S
C1010 H1018 0.930 . S
C1011 C1010 1.394 . S
C1011 C1012 1.383 . S
C1011 H1019 0.929 . S
C1012 C1011 1.383 . S
C1012 C1013 1.377 . S
C1013 H997 0.930 . S
C1013 C1012 1.377 . S
C1013 C1014 1.379 . S
C1014 H998 0.931 . S
C1014 C1008 1.383 . S
C1014 C1013 1.379 . S
H1015 C1009 0.959 . S
H1016 C1009 0.961 . S
H1017 C1009 0.960 . S
H1018 C1010 0.930 . S
H1019 C1011 0.929 . S
H1020 C1028 0.929 . S
H1021 C1030 0.930 . S
H1022 C1032 0.930 . S
H1023 C1035 0.929 . S
H1024 C1038 0.930 . S
H1025 C1040 0.960 . S
H1026 C1040 0.960 . S
H1027 C1040 0.960 . S
C1028 H1020 0.929 . S
C1028 C1029 1.377 . S
C1028 C1030 1.384 . S
C1029 C1028 1.377 . S
C1029 C1035 1.390 . S
C1030 H1021 0.930 . S
C1030 C1028 1.384 . S
C1030 C1031 1.372 . S
C1031 C1030 1.372 . S
C1031 C1032 1.400 . S
C1031 C1036 1.490 . S
C1032 H1022 0.930 . S
C1032 C1031 1.400 . S
C1032 C1035 1.386 . S
H1033 C1049 0.930 . S
H1034 C1050 0.931 . S
C1035 H1023 0.929 . S
C1035 C1029 1.390 . S
C1035 C1032 1.386 . S
C1036 C1031 1.490 . S
C1036 C1038 1.395 . S
C1036 C1039 1.403 . S
H1037 C1043 0.930 . S
C1038 H1024 0.930 . S
C1038 C1036 1.395 . S
C1038 C1041 1.403 . S
C1039 C1036 1.403 . S
C1039 C1040 1.524 . S
C1039 C1043 1.400 . S
C1040 H1025 0.960 . S
C1040 H1026 0.960 . S
C1040 H1027 0.960 . S
C1040 C1039 1.524 . S
C1041 C1038 1.403 . S
C1041 C1042 1.392 . S
C1041 C1045 1.495 . S
C1042 C1041 1.392 . S
C1042 C1043 1.385 . S
C1042 C1044 1.478 . S
C1043 H1037 0.930 . S
C1043 C1039 1.400 . S
C1043 C1042 1.385 . S
C1044 C1042 1.478 . S
C1044 C1046 1.381 . S
C1044 C1050 1.383 . S
C1045 C1041 1.495 . S
C1045 H1051 0.959 . S
C1045 H1052 0.961 . S
C1045 H1053 0.960 . S
C1046 C1044 1.381 . S
C1046 C1047 1.394 . S
C1046 H1054 0.930 . S
C1047 C1046 1.394 . S
C1047 C1048 1.383 . S
C1047 H1055 0.929 . S
C1048 C1047 1.383 . S
C1048 C1049 1.377 . S
C1049 H1033 0.930 . S
C1049 C1048 1.377 . S
C1049 C1050 1.379 . S
C1050 H1034 0.931 . S
C1050 C1044 1.383 . S
C1050 C1049 1.379 . S
H1051 C1045 0.959 . S
H1052 C1045 0.961 . S
H1053 C1045 0.960 . S
H1054 C1046 0.930 . S
H1055 C1047 0.929 . S
H1056 C1064 0.929 . S
H1057 C1066 0.930 . S
H1058 C1068 0.930 . S
H1059 C1071 0.929 . S
H1060 C1074 0.930 . S
H1061 C1076 0.960 . S
H1062 C1076 0.960 . S
H1063 C1076 0.960 . S
C1064 H1056 0.929 . S
C1064 C1065 1.377 . S
C1064 C1066 1.384 . S
C1065 C1064 1.377 . S
C1065 C1071 1.390 . S
C1066 H1057 0.930 . S
C1066 C1064 1.384 . S
C1066 C1067 1.372 . S
C1067 C1066 1.372 . S
C1067 C1068 1.400 . S
C1067 C1072 1.490 . S
C1068 H1058 0.930 . S
C1068 C1067 1.400 . S
C1068 C1071 1.386 . S
H1069 C1085 0.930 . S
H1070 C1086 0.931 . S
C1071 H1059 0.929 . S
C1071 C1065 1.390 . S
C1071 C1068 1.386 . S
C1072 C1067 1.490 . S
C1072 C1074 1.395 . S
C1072 C1075 1.403 . S
H1073 C1079 0.930 . S
C1074 H1060 0.930 . S
C1074 C1072 1.395 . S
C1074 C1077 1.403 . S
C1075 C1072 1.403 . S
C1075 C1076 1.524 . S
C1075 C1079 1.400 . S
C1076 H1061 0.960 . S
C1076 H1062 0.960 . S
C1076 H1063 0.960 . S
C1076 C1075 1.524 . S
C1077 C1074 1.403 . S
C1077 C1078 1.392 . S
C1077 C1081 1.495 . S
C1078 C1077 1.392 . S
C1078 C1079 1.385 . S
C1078 C1080 1.478 . S
C1079 H1073 0.930 . S
C1079 C1075 1.400 . S
C1079 C1078 1.385 . S
C1080 C1078 1.478 . S
C1080 C1082 1.381 . S
C1080 C1086 1.383 . S
C1081 C1077 1.495 . S
C1081 H1087 0.959 . S
C1081 H1088 0.961 . S
C1081 H1089 0.960 . S
C1082 C1080 1.381 . S
C1082 C1083 1.394 . S
C1082 H1090 0.930 . S
C1083 C1082 1.394 . S
C1083 C1084 1.383 . S
C1083 H1091 0.929 . S
C1084 C1083 1.383 . S
C1084 C1085 1.377 . S
C1085 H1069 0.930 . S
C1085 C1084 1.377 . S
C1085 C1086 1.379 . S
C1086 H1070 0.931 . S
C1086 C1080 1.383 . S
C1086 C1085 1.379 . S
H1087 C1081 0.959 . S
H1088 C1081 0.961 . S
H1089 C1081 0.960 . S
H1090 C1082 0.930 . S
H1091 C1083 0.929 . S
H1092 C1100 0.929 . S
H1093 C1102 0.930 1_655 S
H1094 C1104 0.930 . S
H1095 C1107 0.929 . S
H1096 C1110 0.930 1_455 S
H1097 C1112 0.960 . S
H1098 C1112 0.960 . S
H1099 C1112 0.960 . S
C1100 H1092 0.929 . S
C1100 C1101 1.377 . S
C1100 C1102 1.384 . S
C1101 C1100 1.377 . S
C1101 C1107 1.390 . S
C1102 H1093 0.930 1_455 S
C1102 C1100 1.384 . S
C1102 C1103 1.372 . S
C1103 C1102 1.372 . S
C1103 C1104 1.400 . S
C1103 C1108 1.490 1_455 S
C1104 H1094 0.930 . S
C1104 C1103 1.400 . S
C1104 C1107 1.386 . S
H1105 C1121 0.930 . S
H1106 C1122 0.931 . S
C1107 H1095 0.929 . S
C1107 C1101 1.390 . S
C1107 C1104 1.386 . S
C1108 C1103 1.490 1_655 S
C1108 C1110 1.395 . S
C1108 C1111 1.403 . S
H1109 C1115 0.930 . S
C1110 H1096 0.930 1_655 S
C1110 C1108 1.395 . S
C1110 C1113 1.403 . S
C1111 C1108 1.403 . S
C1111 C1112 1.524 . S
C1111 C1115 1.400 . S
C1112 H1097 0.960 . S
C1112 H1098 0.960 . S
C1112 H1099 0.960 . S
C1112 C1111 1.524 . S
C1113 C1110 1.403 . S
C1113 C1114 1.392 . S
C1113 C1117 1.495 . S
C1114 C1113 1.392 . S
C1114 C1115 1.385 . S
C1114 C1116 1.478 . S
C1115 H1109 0.930 . S
C1115 C1111 1.400 . S
C1115 C1114 1.385 . S
C1116 C1114 1.478 . S
C1116 C1118 1.381 . S
C1116 C1122 1.383 . S
C1117 C1113 1.495 . S
C1117 H1123 0.959 . S
C1117 H1124 0.961 . S
C1117 H1125 0.960 . S
C1118 C1116 1.381 . S
C1118 C1119 1.394 . S
C1118 H1126 0.930 . S
C1119 C1118 1.394 . S
C1119 C1120 1.383 . S
C1119 H1127 0.929 . S
C1120 C1119 1.383 . S
C1120 C1121 1.377 . S
C1121 H1105 0.930 . S
C1121 C1120 1.377 . S
C1121 C1122 1.379 . S
C1122 H1106 0.931 . S
C1122 C1116 1.383 . S
C1122 C1121 1.379 . S
H1123 C1117 0.959 . S
H1124 C1117 0.961 . S
H1125 C1117 0.960 . S
H1126 C1118 0.930 . S
H1127 C1119 0.929 . S
H1128 C1136 0.929 . S
H1129 C1138 0.930 . S
H1130 C1140 0.883 1_455 S
H1131 C1143 0.929 . S
H1132 C1146 0.930 . S
H1133 C1148 0.960 . S
H1134 C1148 0.960 1_655 S
H1135 C1148 0.960 . S
C1136 H1128 0.929 . S
C1136 C1137 1.377 . S
C1136 C1138 1.384 . S
C1137 C1136 1.377 . S
C1137 C1143 1.390 . S
C1138 H1129 0.930 . S
C1138 C1136 1.384 . S
C1138 C1139 1.372 . S
C1139 C1138 1.372 . S
C1139 C1140 1.410 . S
C1139 C1144 1.490 1_655 S
C1140 H1130 0.883 1_655 S
C1140 C1139 1.410 . S
C1140 C1143 1.424 . S
H1141 C1157 0.930 . S
H1142 C1158 0.931 . S
C1143 H1131 0.929 . S
C1143 C1137 1.390 . S
C1143 C1140 1.424 . S
C1144 C1139 1.490 1_455 S
C1144 C1146 1.395 . S
C1144 C1147 1.403 . S
H1145 C1151 0.930 . S
C1146 H1132 0.930 . S
C1146 C1144 1.395 . S
C1146 C1149 1.403 . S
C1147 C1144 1.403 . S
C1147 C1148 1.524 . S
C1147 C1151 1.400 . S
C1148 H1133 0.960 . S
C1148 H1134 0.960 1_455 S
C1148 H1135 0.960 . S
C1148 C1147 1.524 . S
C1149 C1146 1.403 . S
C1149 C1150 1.392 . S
C1149 C1153 1.495 . S
C1150 C1149 1.392 . S
C1150 C1151 1.385 . S
C1150 C1152 1.478 . S
C1151 H1145 0.930 . S
C1151 C1147 1.400 . S
C1151 C1150 1.385 . S
C1152 C1150 1.478 . S
C1152 C1154 1.381 . S
C1152 C1158 1.383 . S
C1153 C1149 1.495 . S
C1153 H1159 0.959 . S
C1153 H1160 0.961 . S
C1153 H1161 0.960 . S
C1154 C1152 1.381 . S
C1154 C1155 1.394 . S
C1154 H1162 0.930 . S
C1155 C1154 1.394 . S
C1155 C1156 1.383 . S
C1155 H1163 0.929 . S
C1156 C1155 1.383 . S
C1156 C1157 1.377 . S
C1157 H1141 0.930 . S
C1157 C1156 1.377 . S
C1157 C1158 1.379 . S
C1158 H1142 0.931 . S
C1158 C1152 1.383 . S
C1158 C1157 1.379 . S
H1159 C1153 0.959 . S
H1160 C1153 0.961 . S
H1161 C1153 0.960 . S
H1162 C1154 0.930 . S
H1163 C1155 0.929 . S
H1164 C1172 0.929 . S
H1165 C1174 0.930 . S
H1166 C1176 0.930 . S
H1167 C1179 0.929 . S
H1168 C1182 0.930 . S
H1169 C1184 0.960 . S
H1170 C1184 0.960 . S
H1171 C1184 0.960 . S
C1172 H1164 0.929 . S
C1172 C1173 1.377 . S
C1172 C1174 1.384 . S
C1173 C1172 1.377 . S
C1173 C1179 1.390 . S
C1174 H1165 0.930 . S
C1174 C1172 1.384 . S
C1174 C1175 1.372 . S
C1175 C1174 1.372 . S
C1175 C1176 1.400 . S
C1175 C1180 1.490 . S
C1176 H1166 0.930 . S
C1176 C1175 1.400 . S
C1176 C1179 1.386 . S
H1177 C1193 0.930 . S
H1178 C1194 0.931 . S
C1179 H1167 0.929 . S
C1179 C1173 1.390 . S
C1179 C1176 1.386 . S
C1180 C1175 1.490 . S
C1180 C1182 1.395 . S
C1180 C1183 1.403 . S
H1181 C1187 0.930 . S
C1182 H1168 0.930 . S
C1182 C1180 1.395 . S
C1182 C1185 1.403 . S
C1183 C1180 1.403 . S
C1183 C1184 1.524 . S
C1183 C1187 1.400 . S
C1184 H1169 0.960 . S
C1184 H1170 0.960 . S
C1184 H1171 0.960 . S
C1184 C1183 1.524 . S
C1185 C1182 1.403 . S
C1185 C1186 1.392 . S
C1185 C1189 1.495 . S
C1186 C1185 1.392 . S
C1186 C1187 1.385 . S
C1186 C1188 1.478 . S
C1187 H1181 0.930 . S
C1187 C1183 1.400 . S
C1187 C1186 1.385 . S
C1188 C1186 1.478 . S
C1188 C1190 1.381 . S
C1188 C1194 1.383 . S
C1189 C1185 1.495 . S
C1189 H1195 0.959 . S
C1189 H1196 0.961 . S
C1189 H1197 0.960 . S
C1190 C1188 1.381 . S
C1190 C1191 1.394 . S
C1190 H1198 0.930 . S
C1191 C1190 1.394 . S
C1191 C1192 1.383 . S
C1191 H1199 0.929 . S
C1192 C1191 1.383 . S
C1192 C1193 1.377 . S
C1193 H1177 0.930 . S
C1193 C1192 1.377 . S
C1193 C1194 1.379 . S
C1194 H1178 0.931 . S
C1194 C1188 1.383 . S
C1194 C1193 1.379 . S
H1195 C1189 0.959 . S
H1196 C1189 0.961 . S
H1197 C1189 0.960 . S
H1198 C1190 0.930 . S
H1199 C1191 0.929 . S
H1200 C1208 0.929 . S
H1201 C1210 0.930 . S
H1202 C1212 0.930 . S
H1203 C1215 0.929 . S
H1204 C1218 0.930 . S
H1205 C1220 0.960 . S
H1206 C1220 0.960 . S
H1207 C1220 0.960 . S
C1208 H1200 0.929 . S
C1208 C1209 1.377 . S
C1208 C1210 1.384 . S
C1209 C1208 1.377 . S
C1209 C1215 1.390 . S
C1210 H1201 0.930 . S
C1210 C1208 1.384 . S
C1210 C1211 1.372 . S
C1211 C1210 1.372 . S
C1211 C1212 1.400 . S
C1211 C1216 1.490 . S
C1212 H1202 0.930 . S
C1212 C1211 1.400 . S
C1212 C1215 1.386 . S
H1213 C1229 0.930 . S
H1214 C1230 0.931 . S
C1215 H1203 0.929 . S
C1215 C1209 1.390 . S
C1215 C1212 1.386 . S
C1216 C1211 1.490 . S
C1216 C1218 1.395 . S
C1216 C1219 1.403 . S
H1217 C1223 0.930 . S
C1218 H1204 0.930 . S
C1218 C1216 1.395 . S
C1218 C1221 1.403 . S
C1219 C1216 1.403 . S
C1219 C1220 1.524 . S
C1219 C1223 1.400 . S
C1220 H1205 0.960 . S
C1220 H1206 0.960 . S
C1220 H1207 0.960 . S
C1220 C1219 1.524 . S
C1221 C1218 1.403 . S
C1221 C1222 1.392 . S
C1221 C1225 1.495 . S
C1222 C1221 1.392 . S
C1222 C1223 1.385 . S
C1222 C1224 1.478 . S
C1223 H1217 0.930 . S
C1223 C1219 1.400 . S
C1223 C1222 1.385 . S
C1224 C1222 1.478 . S
C1224 C1226 1.381 . S
C1224 C1230 1.383 . S
C1225 C1221 1.495 . S
C1225 H1231 0.959 . S
C1225 H1232 0.961 . S
C1225 H1233 0.960 . S
C1226 C1224 1.381 . S
C1226 C1227 1.394 . S
C1226 H1234 0.930 . S
C1227 C1226 1.394 . S
C1227 C1228 1.383 . S
C1227 H1235 0.929 . S
C1228 C1227 1.383 . S
C1228 C1229 1.377 . S
C1229 H1213 0.930 . S
C1229 C1228 1.377 . S
C1229 C1230 1.379 . S
C1230 H1214 0.931 . S
C1230 C1224 1.383 . S
C1230 C1229 1.379 . S
H1231 C1225 0.959 . S
H1232 C1225 0.961 . S
H1233 C1225 0.960 . S
H1234 C1226 0.930 . S
H1235 C1227 0.929 . S
H1236 C1244 0.929 . S
H1237 C1246 0.930 . S
H1238 C1248 0.930 . S
H1239 C1251 0.929 . S
H1240 C1254 0.930 . S
H1241 C1256 0.960 . S
H1242 C1256 0.960 . S
H1243 C1256 0.960 . S
C1244 H1236 0.929 . S
C1244 C1245 1.377 1_565 S
C1244 C1246 1.384 . S
C1245 C1244 1.377 1_545 S
C1245 C1251 1.390 . S
C1246 H1237 0.930 . S
C1246 C1244 1.384 . S
C1246 C1247 1.372 . S
C1247 C1246 1.372 . S
C1247 C1248 1.400 1_565 S
C1247 C1252 1.490 . S
C1248 H1238 0.930 . S
C1248 C1247 1.400 1_545 S
C1248 C1251 1.386 . S
H1249 C1265 0.930 . S
H1250 C1266 0.931 . S
C1251 H1239 0.929 . S
C1251 C1245 1.390 . S
C1251 C1248 1.386 . S
C1252 C1247 1.490 . S
C1252 C1254 1.395 . S
C1252 C1255 1.403 . S
H1253 C1259 0.930 . S
C1254 H1240 0.930 . S
C1254 C1252 1.395 . S
C1254 C1257 1.403 . S
C1255 C1252 1.403 . S
C1255 C1256 1.524 . S
C1255 C1259 1.400 . S
C1256 H1241 0.960 . S
C1256 H1242 0.960 . S
C1256 H1243 0.960 . S
C1256 C1255 1.524 . S
C1257 C1254 1.403 . S
C1257 C1258 1.392 . S
C1257 C1261 1.495 . S
C1258 C1257 1.392 . S
C1258 C1259 1.385 . S
C1258 C1260 1.478 . S
C1259 H1253 0.930 . S
C1259 C1255 1.400 . S
C1259 C1258 1.385 . S
C1260 C1258 1.478 . S
C1260 C1262 1.381 . S
C1260 C1266 1.383 . S
C1261 C1257 1.495 . S
C1261 H1267 0.959 . S
C1261 H1268 0.961 . S
C1261 H1269 0.960 . S
C1262 C1260 1.381 . S
C1262 C1263 1.394 . S
C1262 H1270 0.930 . S
C1263 C1262 1.394 . S
C1263 C1264 1.383 . S
C1263 H1271 0.929 . S
C1264 C1263 1.383 . S
C1264 C1265 1.377 . S
C1265 H1249 0.930 . S
C1265 C1264 1.377 . S
C1265 C1266 1.379 . S
C1266 H1250 0.931 . S
C1266 C1260 1.383 . S
C1266 C1265 1.379 . S
H1267 C1261 0.959 . S
H1268 C1261 0.961 . S
H1269 C1261 0.960 . S
H1270 C1262 0.930 . S
H1271 C1263 0.929 . S
H1272 C1280 0.929 . S
H1273 C1282 0.930 . S
H1274 C1284 0.930 . S
H1275 C1287 0.929 . S
H1276 C1290 0.930 . S
H1277 C1292 0.960 . S
H1278 C1292 0.960 . S
H1279 C1292 0.960 . S
C1280 H1272 0.929 . S
C1280 C1281 1.377 . S
C1280 C1282 1.384 . S
C1281 C1280 1.377 . S
C1281 C1287 1.390 . S
C1282 H1273 0.930 . S
C1282 C1280 1.384 . S
C1282 C1283 1.372 . S
C1283 C1282 1.372 . S
C1283 C1284 1.400 . S
C1283 C1288 1.490 . S
C1284 H1274 0.930 . S
C1284 C1283 1.400 . S
C1284 C1287 1.386 . S
H1285 C1301 0.930 . S
H1286 C1302 0.931 . S
C1287 H1275 0.929 . S
C1287 C1281 1.390 . S
C1287 C1284 1.386 . S
C1288 C1283 1.490 . S
C1288 C1290 1.395 . S
C1288 C1291 1.403 . S
H1289 C1295 0.930 . S
C1290 H1276 0.930 . S
C1290 C1288 1.395 . S
C1290 C1293 1.403 . S
C1291 C1288 1.403 . S
C1291 C1292 1.524 . S
C1291 C1295 1.400 . S
C1292 H1277 0.960 . S
C1292 H1278 0.960 . S
C1292 H1279 0.960 . S
C1292 C1291 1.524 . S
C1293 C1290 1.403 . S
C1293 C1294 1.392 . S
C1293 C1297 1.495 . S
C1294 C1293 1.392 . S
C1294 C1295 1.385 . S
C1294 C1296 1.478 . S
C1295 H1289 0.930 . S
C1295 C1291 1.400 . S
C1295 C1294 1.385 . S
C1296 C1294 1.478 . S
C1296 C1298 1.381 . S
C1296 C1302 1.383 . S
C1297 C1293 1.495 . S
C1297 H1303 0.959 . S
C1297 H1304 0.961 . S
C1297 H1305 0.960 . S
C1298 C1296 1.381 . S
C1298 C1299 1.394 . S
C1298 H1306 0.930 . S
C1299 C1298 1.394 . S
C1299 C1300 1.383 . S
C1299 H1307 0.929 . S
C1300 C1299 1.383 . S
C1300 C1301 1.377 . S
C1301 H1285 0.930 . S
C1301 C1300 1.377 . S
C1301 C1302 1.379 . S
C1302 H1286 0.931 . S
C1302 C1296 1.383 . S
C1302 C1301 1.379 . S
H1303 C1297 0.959 . S
H1304 C1297 0.961 . S
H1305 C1297 0.960 . S
H1306 C1298 0.930 . S
H1307 C1299 0.929 . S
H1308 C1316 0.929 . S
H1309 C1318 0.930 . S
H1310 C1320 0.930 . S
H1311 C1323 0.929 . S
H1312 C1326 0.930 . S
H1313 C1328 0.960 . S
H1314 C1328 0.960 . S
H1315 C1328 0.960 . S
C1316 H1308 0.929 . S
C1316 C1317 1.377 . S
C1316 C1318 1.384 . S
C1317 C1316 1.377 . S
C1317 C1323 1.390 . S
C1318 H1309 0.930 . S
C1318 C1316 1.384 . S
C1318 C1319 1.372 . S
C1319 C1318 1.372 . S
C1319 C1320 1.400 . S
C1319 C1324 1.490 . S
C1320 H1310 0.930 . S
C1320 C1319 1.400 . S
C1320 C1323 1.386 . S
H1321 C1337 0.930 . S
H1322 C1338 0.931 . S
C1323 H1311 0.929 . S
C1323 C1317 1.390 . S
C1323 C1320 1.386 . S
C1324 C1319 1.490 . S
C1324 C1326 1.395 . S
C1324 C1327 1.403 . S
H1325 C1331 0.930 . S
C1326 H1312 0.930 . S
C1326 C1324 1.395 . S
C1326 C1329 1.403 . S
C1327 C1324 1.403 . S
C1327 C1328 1.524 . S
C1327 C1331 1.400 . S
C1328 H1313 0.960 . S
C1328 H1314 0.960 . S
C1328 H1315 0.960 . S
C1328 C1327 1.524 . S
C1329 C1326 1.403 . S
C1329 C1330 1.392 . S
C1329 C1333 1.498 1_545 S
C1330 C1329 1.392 . S
C1330 C1331 1.385 . S
C1330 C1332 1.478 . S
C1331 H1325 0.930 . S
C1331 C1327 1.400 . S
C1331 C1330 1.385 . S
C1332 C1330 1.478 . S
C1332 C1334 1.381 1_544 S
C1332 C1338 1.383 1_554 S
C1333 C1329 1.498 1_565 S
C1333 H1339 0.957 1_565 S
C1333 H1340 0.965 1_565 S
C1333 H1341 0.952 . S
C1334 C1332 1.381 1_566 S
C1334 C1335 1.394 . S
C1334 H1342 0.930 1_556 S
C1335 C1334 1.394 . S
C1335 C1336 1.383 . S
C1335 H1343 0.929 . S
C1336 C1335 1.383 . S
C1336 C1337 1.377 1_565 S
C1337 H1321 0.930 . S
C1337 C1336 1.377 1_545 S
C1337 C1338 1.379 . S
C1338 H1322 0.931 . S
C1338 C1332 1.383 1_556 S
C1338 C1337 1.379 . S
H1339 C1333 0.957 1_545 S
H1340 C1333 0.965 1_545 S
H1341 C1333 0.952 . S
H1342 C1334 0.930 1_554 S
H1343 C1335 0.929 . S
H1344 C1352 0.929 . S
H1345 C1354 0.930 . S
H1346 C1356 0.930 . S
H1347 C1359 0.929 . S
H1348 C1362 0.930 . S
H1349 C1364 0.960 . S
H1350 C1364 0.960 . S
H1351 C1364 0.960 . S
C1352 H1344 0.929 . S
C1352 C1353 1.377 . S
C1352 C1354 1.384 . S
C1353 C1352 1.377 . S
C1353 C1359 1.390 . S
C1354 H1345 0.930 . S
C1354 C1352 1.384 . S
C1354 C1355 1.372 . S
C1355 C1354 1.372 . S
C1355 C1356 1.400 . S
C1355 C1360 1.490 . S
C1356 H1346 0.930 . S
C1356 C1355 1.400 . S
C1356 C1359 1.386 . S
H1357 C1373 0.930 . S
H1358 C1374 0.931 . S
C1359 H1347 0.929 . S
C1359 C1353 1.390 . S
C1359 C1356 1.386 . S
C1360 C1355 1.490 . S
C1360 C1362 1.395 . S
C1360 C1363 1.403 . S
H1361 C1367 0.930 . S
C1362 H1348 0.930 . S
C1362 C1360 1.395 . S
C1362 C1365 1.403 . S
C1363 C1360 1.403 . S
C1363 C1364 1.524 . S
C1363 C1367 1.400 . S
C1364 H1349 0.960 . S
C1364 H1350 0.960 . S
C1364 H1351 0.960 . S
C1364 C1363 1.524 . S
C1365 C1362 1.403 . S
C1365 C1366 1.392 . S
C1365 C1369 1.495 . S
C1366 C1365 1.392 . S
C1366 C1367 1.385 . S
C1366 C1368 1.478 . S
C1367 H1361 0.930 . S
C1367 C1363 1.400 . S
C1367 C1366 1.385 . S
C1368 C1366 1.478 . S
C1368 C1370 1.381 . S
C1368 C1374 1.383 . S
C1369 C1365 1.495 . S
C1369 H1375 0.959 . S
C1369 H1376 0.961 . S
C1369 H1377 0.960 . S
C1370 C1368 1.381 . S
C1370 C1371 1.394 . S
C1370 H1378 0.930 . S
C1371 C1370 1.394 . S
C1371 C1372 1.383 . S
C1371 H1379 0.929 . S
C1372 C1371 1.383 . S
C1372 C1373 1.377 . S
C1373 H1357 0.930 . S
C1373 C1372 1.377 . S
C1373 C1374 1.379 . S
C1374 H1358 0.931 . S
C1374 C1368 1.383 . S
C1374 C1373 1.379 . S
H1375 C1369 0.959 . S
H1376 C1369 0.961 . S
H1377 C1369 0.960 . S
H1378 C1370 0.930 . S
H1379 C1371 0.929 . S
H1380 C1388 0.929 . S
H1381 C1390 0.981 . S
H1382 C1392 0.930 . S
H1383 C1395 0.929 . S
H1384 C1398 0.930 . S
H1385 C1400 0.960 . S
H1386 C1400 0.960 . S
H1387 C1400 0.960 1_554 S
C1388 H1380 0.929 . S
C1388 C1389 1.377 . S
C1388 C1390 1.330 1_554 S
C1389 C1388 1.377 . S
C1389 C1395 1.390 . S
C1390 H1381 0.981 . S
C1390 C1388 1.330 1_556 S
C1390 C1391 1.378 . S
C1391 C1390 1.378 . S
C1391 C1392 1.400 1_556 S
C1391 C1396 1.490 . S
C1392 H1382 0.930 . S
C1392 C1391 1.400 1_554 S
C1392 C1395 1.386 . S
H1393 C1409 0.930 . S
H1394 C1410 0.931 . S
C1395 H1383 0.929 . S
C1395 C1389 1.390 . S
C1395 C1392 1.386 . S
C1396 C1391 1.490 . S
C1396 C1398 1.395 . S
C1396 C1399 1.403 . S
H1397 C1403 0.930 . S
C1398 H1384 0.930 . S
C1398 C1396 1.395 . S
C1398 C1401 1.403 . S
C1399 C1396 1.403 . S
C1399 C1400 1.524 . S
C1399 C1403 1.400 . S
C1400 H1385 0.960 . S
C1400 H1386 0.960 . S
C1400 H1387 0.960 1_556 S
C1400 C1399 1.524 . S
C1401 C1398 1.403 . S
C1401 C1402 1.392 . S
C1401 C1405 1.495 . S
C1402 C1401 1.392 . S
C1402 C1403 1.385 . S
C1402 C1404 1.478 . S
C1403 H1397 0.930 . S
C1403 C1399 1.400 . S
C1403 C1402 1.385 . S
C1404 C1402 1.478 . S
C1404 C1406 1.381 . S
C1404 C1410 1.383 . S
C1405 C1401 1.495 . S
C1405 H1411 0.959 . S
C1405 H1412 0.961 . S
C1405 H1413 0.960 . S
C1406 C1404 1.381 . S
C1406 C1407 1.394 . S
C1406 H1414 0.930 . S
C1407 C1406 1.394 . S
C1407 C1408 1.383 . S
C1407 H1415 0.929 . S
C1408 C1407 1.383 . S
C1408 C1409 1.377 . S
C1409 H1393 0.930 . S
C1409 C1408 1.377 . S
C1409 C1410 1.379 . S
C1410 H1394 0.931 . S
C1410 C1404 1.383 . S
C1410 C1409 1.379 . S
H1411 C1405 0.959 . S
H1412 C1405 0.961 . S
H1413 C1405 0.960 . S
H1414 C1406 0.930 . S
H1415 C1407 0.929 . S
H1416 C1424 0.929 . S
H1417 C1426 0.930 . S
H1418 C1428 0.930 . S
H1419 C1431 0.929 . S
H1420 C1434 0.930 . S
H1421 C1436 0.960 . S
H1422 C1436 0.960 . S
H1423 C1436 0.960 . S
C1424 H1416 0.929 . S
C1424 C1425 1.377 . S
C1424 C1426 1.384 . S
C1425 C1424 1.377 . S
C1425 C1431 1.390 . S
C1426 H1417 0.930 . S
C1426 C1424 1.384 . S
C1426 C1427 1.372 . S
C1427 C1426 1.372 . S
C1427 C1428 1.400 . S
C1427 C1432 1.490 . S
C1428 H1418 0.930 . S
C1428 C1427 1.400 . S
C1428 C1431 1.386 . S
H1429 C1445 0.930 . S
H1430 C1446 0.931 . S
C1431 H1419 0.929 . S
C1431 C1425 1.390 . S
C1431 C1428 1.386 . S
C1432 C1427 1.490 . S
C1432 C1434 1.395 . S
C1432 C1435 1.403 . S
H1433 C1439 0.930 . S
C1434 H1420 0.930 . S
C1434 C1432 1.395 . S
C1434 C1437 1.403 . S
C1435 C1432 1.403 . S
C1435 C1436 1.524 . S
C1435 C1439 1.400 . S
C1436 H1421 0.960 . S
C1436 H1422 0.960 . S
C1436 H1423 0.960 . S
C1436 C1435 1.524 . S
C1437 C1434 1.403 . S
C1437 C1438 1.392 . S
C1437 C1441 1.495 . S
C1438 C1437 1.392 . S
C1438 C1439 1.385 . S
C1438 C1440 1.478 . S
C1439 H1433 0.930 . S
C1439 C1435 1.400 . S
C1439 C1438 1.385 . S
C1440 C1438 1.478 . S
C1440 C1442 1.381 . S
C1440 C1446 1.383 . S
C1441 C1437 1.495 . S
C1441 H1447 0.959 . S
C1441 H1448 0.961 . S
C1441 H1449 0.960 . S
C1442 C1440 1.381 . S
C1442 C1443 1.394 . S
C1442 H1450 0.930 . S
C1443 C1442 1.394 . S
C1443 C1444 1.383 . S
C1443 H1451 0.929 . S
C1444 C1443 1.383 . S
C1444 C1445 1.377 . S
C1445 H1429 0.930 . S
C1445 C1444 1.377 . S
C1445 C1446 1.379 . S
C1446 H1430 0.931 . S
C1446 C1440 1.383 . S
C1446 C1445 1.379 . S
H1447 C1441 0.959 . S
H1448 C1441 0.961 . S
H1449 C1441 0.960 . S
H1450 C1442 0.930 . S
H1451 C1443 0.929 . S
H1452 C1460 0.929 . S
H1453 C1462 0.930 . S
H1454 C1464 0.930 . S
H1455 C1467 0.929 . S
H1456 C1470 0.930 . S
H1457 C1472 0.960 . S
H1458 C1472 0.960 . S
H1459 C1472 0.960 . S
C1460 H1452 0.929 . S
C1460 C1461 1.377 . S
C1460 C1462 1.384 . S
C1461 C1460 1.377 . S
C1461 C1467 1.390 . S
C1462 H1453 0.930 . S
C1462 C1460 1.384 . S
C1462 C1463 1.372 . S
C1463 C1462 1.372 . S
C1463 C1464 1.400 . S
C1463 C1468 1.490 . S
C1464 H1454 0.930 . S
C1464 C1463 1.400 . S
C1464 C1467 1.386 . S
H1465 C1481 0.930 . S
H1466 C1482 0.931 . S
C1467 H1455 0.929 . S
C1467 C1461 1.390 . S
C1467 C1464 1.386 . S
C1468 C1463 1.490 . S
C1468 C1470 1.395 . S
C1468 C1471 1.403 . S
H1469 C1475 0.930 . S
C1470 H1456 0.930 . S
C1470 C1468 1.395 . S
C1470 C1473 1.403 . S
C1471 C1468 1.403 . S
C1471 C1472 1.524 . S
C1471 C1475 1.400 . S
C1472 H1457 0.960 . S
C1472 H1458 0.960 . S
C1472 H1459 0.960 . S
C1472 C1471 1.524 . S
C1473 C1470 1.403 . S
C1473 C1474 1.392 . S
C1473 C1477 1.495 . S
C1474 C1473 1.392 . S
C1474 C1475 1.385 . S
C1474 C1476 1.478 . S
C1475 H1469 0.930 . S
C1475 C1471 1.400 . S
C1475 C1474 1.385 . S
C1476 C1474 1.478 . S
C1476 C1478 1.381 . S
C1476 C1482 1.383 . S
C1477 C1473 1.495 . S
C1477 H1483 0.959 . S
C1477 H1484 0.961 . S
C1477 H1485 0.960 . S
C1478 C1476 1.381 . S
C1478 C1479 1.394 . S
C1478 H1486 0.930 . S
C1479 C1478 1.394 . S
C1479 C1480 1.383 . S
C1479 H1487 0.929 . S
C1480 C1479 1.383 . S
C1480 C1481 1.377 . S
C1481 H1465 0.930 . S
C1481 C1480 1.377 . S
C1481 C1482 1.379 . S
C1482 H1466 0.931 . S
C1482 C1476 1.383 . S
C1482 C1481 1.379 . S
H1483 C1477 0.959 . S
H1484 C1477 0.961 . S
H1485 C1477 0.960 . S
H1486 C1478 0.930 . S
H1487 C1479 0.929 . S
H1488 C1496 0.929 . S
H1489 C1498 0.930 . S
H1490 C1500 0.930 . S
H1491 C1503 0.929 . S
H1492 C1506 0.930 . S
H1493 C1508 0.960 . S
H1494 C1508 0.960 . S
H1495 C1508 0.960 . S
C1496 H1488 0.929 . S
C1496 C1497 1.377 . S
C1496 C1498 1.384 . S
C1497 C1496 1.377 . S
C1497 C1503 1.390 . S
C1498 H1489 0.930 . S
C1498 C1496 1.384 . S
C1498 C1499 1.372 . S
C1499 C1498 1.372 . S
C1499 C1500 1.400 . S
C1499 C1504 1.490 . S
C1500 H1490 0.930 . S
C1500 C1499 1.400 . S
C1500 C1503 1.386 . S
H1501 C1517 0.930 . S
H1502 C1518 0.931 . S
C1503 H1491 0.929 . S
C1503 C1497 1.390 . S
C1503 C1500 1.386 . S
C1504 C1499 1.490 . S
C1504 C1506 1.395 . S
C1504 C1507 1.403 . S
H1505 C1511 0.930 . S
C1506 H1492 0.930 . S
C1506 C1504 1.395 . S
C1506 C1509 1.403 . S
C1507 C1504 1.403 . S
C1507 C1508 1.524 . S
C1507 C1511 1.400 . S
C1508 H1493 0.960 . S
C1508 H1494 0.960 . S
C1508 H1495 0.960 . S
C1508 C1507 1.524 . S
C1509 C1506 1.403 . S
C1509 C1510 1.392 . S
C1509 C1513 1.495 . S
C1510 C1509 1.392 . S
C1510 C1511 1.385 . S
C1510 C1512 1.478 . S
C1511 H1505 0.930 . S
C1511 C1507 1.400 . S
C1511 C1510 1.385 . S
C1512 C1510 1.478 . S
C1512 C1514 1.381 . S
C1512 C1518 1.383 . S
C1513 C1509 1.495 . S
C1513 H1519 0.959 . S
C1513 H1520 0.961 . S
C1513 H1521 0.960 . S
C1514 C1512 1.381 . S
C1514 C1515 1.394 . S
C1514 H1522 0.930 . S
C1515 C1514 1.394 . S
C1515 C1516 1.383 . S
C1515 H1523 0.929 . S
C1516 C1515 1.383 . S
C1516 C1517 1.377 . S
C1517 H1501 0.930 . S
C1517 C1516 1.377 . S
C1517 C1518 1.379 . S
C1518 H1502 0.931 . S
C1518 C1512 1.383 . S
C1518 C1517 1.379 . S
H1519 C1513 0.959 . S
H1520 C1513 0.961 . S
H1521 C1513 0.960 . S
H1522 C1514 0.930 . S
H1523 C1515 0.929 . S
H1524 C1532 0.929 . S
H1525 C1534 0.930 . S
H1526 C1536 0.930 . S
H1527 C1539 0.929 . S
H1528 C1542 0.930 . S
H1529 C1544 0.960 . S
H1530 C1544 0.960 . S
H1531 C1544 0.960 . S
C1532 H1524 0.929 . S
C1532 C1533 1.377 1_455 S
C1532 C1534 1.384 . S
C1533 C1532 1.377 1_655 S
C1533 C1539 1.390 . S
C1534 H1525 0.930 . S
C1534 C1532 1.384 . S
C1534 C1535 1.372 1_565 S
C1535 C1534 1.372 1_545 S
C1535 C1536 1.400 1_455 S
C1535 C1540 1.490 . S
C1536 H1526 0.930 . S
C1536 C1535 1.400 1_655 S
C1536 C1539 1.386 1_545 S
H1537 C1553 0.930 . S
H1538 C1554 0.931 . S
C1539 H1527 0.929 . S
C1539 C1533 1.390 . S
C1539 C1536 1.386 1_565 S
C1540 C1535 1.490 . S
C1540 C1542 1.395 . S
C1540 C1543 1.403 . S
H1541 C1547 0.930 . S
C1542 H1528 0.930 . S
C1542 C1540 1.395 . S
C1542 C1545 1.403 . S
C1543 C1540 1.403 . S
C1543 C1544 1.524 . S
C1543 C1547 1.400 . S
C1544 H1529 0.960 . S
C1544 H1530 0.960 . S
C1544 H1531 0.960 . S
C1544 C1543 1.524 . S
C1545 C1542 1.403 . S
C1545 C1546 1.392 . S
C1545 C1549 1.495 . S
C1546 C1545 1.392 . S
C1546 C1547 1.385 . S
C1546 C1548 1.478 . S
C1547 H1541 0.930 . S
C1547 C1543 1.400 . S
C1547 C1546 1.385 . S
C1548 C1546 1.478 . S
C1548 C1550 1.381 . S
C1548 C1554 1.383 . S
C1549 C1545 1.495 . S
C1549 H1555 0.959 . S
C1549 H1556 0.961 . S
C1549 H1557 0.960 . S
C1550 C1548 1.381 . S
C1550 C1551 1.394 . S
C1550 H1558 0.930 . S
C1551 C1550 1.394 . S
C1551 C1552 1.383 . S
C1551 H1559 0.929 . S
C1552 C1551 1.383 . S
C1552 C1553 1.377 . S
C1553 H1537 0.930 . S
C1553 C1552 1.377 . S
C1553 C1554 1.379 . S
C1554 H1538 0.931 . S
C1554 C1548 1.383 . S
C1554 C1553 1.379 . S
H1555 C1549 0.959 . S
H1556 C1549 0.961 . S
H1557 C1549 0.960 . S
H1558 C1550 0.930 . S
H1559 C1551 0.929 . S
H1560 C1568 0.929 . S
H1561 C1570 0.930 . S
H1562 C1572 0.930 . S
H1563 C1575 0.929 . S
H1564 C1578 0.930 . S
H1565 C1580 0.960 . S
H1566 C1580 0.960 . S
H1567 C1580 0.960 . S
C1568 H1560 0.929 . S
C1568 C1569 1.377 . S
C1568 C1570 1.384 . S
C1569 C1568 1.377 . S
C1569 C1575 1.390 . S
C1570 H1561 0.930 . S
C1570 C1568 1.384 . S
C1570 C1571 1.372 . S
C1571 C1570 1.372 . S
C1571 C1572 1.400 . S
C1571 C1576 1.490 . S
C1572 H1562 0.930 . S
C1572 C1571 1.400 . S
C1572 C1575 1.386 . S
H1573 C1589 0.930 . S
H1574 C1590 0.931 . S
C1575 H1563 0.929 . S
C1575 C1569 1.390 . S
C1575 C1572 1.386 . S
C1576 C1571 1.490 . S
C1576 C1578 1.395 . S
C1576 C1579 1.403 . S
H1577 C1583 0.930 . S
C1578 H1564 0.930 . S
C1578 C1576 1.395 . S
C1578 C1581 1.403 . S
C1579 C1576 1.403 . S
C1579 C1580 1.524 . S
C1579 C1583 1.400 . S
C1580 H1565 0.960 . S
C1580 H1566 0.960 . S
C1580 H1567 0.960 . S
C1580 C1579 1.524 . S
C1581 C1578 1.403 . S
C1581 C1582 1.392 . S
C1581 C1585 1.495 . S
C1582 C1581 1.392 . S
C1582 C1583 1.385 . S
C1582 C1584 1.478 . S
C1583 H1577 0.930 . S
C1583 C1579 1.400 . S
C1583 C1582 1.385 . S
C1584 C1582 1.478 . S
C1584 C1586 1.381 . S
C1584 C1590 1.383 . S
C1585 C1581 1.495 . S
C1585 H1591 0.959 . S
C1585 H1592 0.961 . S
C1585 H1593 0.960 . S
C1586 C1584 1.381 . S
C1586 C1587 1.394 . S
C1586 H1594 0.930 . S
C1587 C1586 1.394 . S
C1587 C1588 1.383 . S
C1587 H1595 0.929 . S
C1588 C1587 1.383 . S
C1588 C1589 1.377 . S
C1589 H1573 0.930 . S
C1589 C1588 1.377 . S
C1589 C1590 1.379 . S
C1590 H1574 0.931 . S
C1590 C1584 1.383 . S
C1590 C1589 1.379 . S
H1591 C1585 0.959 . S
H1592 C1585 0.961 . S
H1593 C1585 0.960 . S
H1594 C1586 0.930 . S
H1595 C1587 0.929 . S
H1596 C1604 0.929 . S
H1597 C1606 0.930 1_565 S
H1598 C1608 0.930 . S
H1599 C1611 0.929 . S
H1600 C1614 0.930 . S
H1601 C1616 0.960 . S
H1602 C1616 0.960 . S
H1603 C1616 0.960 . S
C1604 H1596 0.929 . S
C1604 C1605 1.377 . S
C1604 C1606 1.384 . S
C1605 C1604 1.377 . S
C1605 C1611 1.390 . S
C1606 H1597 0.930 1_545 S
C1606 C1604 1.384 . S
C1606 C1607 1.372 1_545 S
C1607 C1606 1.372 1_565 S
C1607 C1608 1.400 1_565 S
C1607 C1612 1.490 . S
C1608 H1598 0.930 . S
C1608 C1607 1.400 1_545 S
C1608 C1611 1.386 . S
H1609 C1625 0.930 . S
H1610 C1626 0.931 . S
C1611 H1599 0.929 . S
C1611 C1605 1.390 . S
C1611 C1608 1.386 . S
C1612 C1607 1.490 . S
C1612 C1614 1.395 . S
C1612 C1615 1.403 . S
H1613 C1619 0.930 . S
C1614 H1600 0.930 . S
C1614 C1612 1.395 . S
C1614 C1617 1.403 . S
C1615 C1612 1.403 . S
C1615 C1616 1.524 . S
C1615 C1619 1.400 . S
C1616 H1601 0.960 . S
C1616 H1602 0.960 . S
C1616 H1603 0.960 . S
C1616 C1615 1.524 . S
C1617 C1614 1.403 . S
C1617 C1618 1.392 . S
C1617 C1621 1.495 . S
C1618 C1617 1.392 . S
C1618 C1619 1.385 . S
C1618 C1620 1.478 . S
C1619 H1613 0.930 . S
C1619 C1615 1.400 . S
C1619 C1618 1.385 . S
C1620 C1618 1.478 . S
C1620 C1622 1.381 . S
C1620 C1626 1.383 . S
C1621 C1617 1.495 . S
C1621 H1627 0.959 . S
C1621 H1628 0.961 . S
C1621 H1629 0.960 . S
C1622 C1620 1.381 . S
C1622 C1623 1.394 . S
C1622 H1630 0.930 . S
C1623 C1622 1.394 . S
C1623 C1624 1.383 . S
C1623 H1631 0.929 . S
C1624 C1623 1.383 . S
C1624 C1625 1.377 . S
C1625 H1609 0.930 . S
C1625 C1624 1.377 . S
C1625 C1626 1.379 . S
C1626 H1610 0.931 . S
C1626 C1620 1.383 . S
C1626 C1625 1.379 . S
H1627 C1621 0.959 . S
H1628 C1621 0.961 . S
H1629 C1621 0.960 . S
H1630 C1622 0.930 . S
H1631 C1623 0.929 . S
H1632 C1640 0.929 . S
H1633 C1642 0.930 . S
H1634 C1644 0.930 . S
H1635 C1647 0.929 . S
H1636 C1650 0.930 . S
H1637 C1652 0.960 . S
H1638 C1652 0.960 . S
H1639 C1652 0.960 . S
C1640 H1632 0.929 . S
C1640 C1641 1.377 . S
C1640 C1642 1.384 . S
C1641 C1640 1.377 . S
C1641 C1647 1.390 . S
C1642 H1633 0.930 . S
C1642 C1640 1.384 . S
C1642 C1643 1.372 . S
C1643 C1642 1.372 . S
C1643 C1644 1.400 . S
C1643 C1648 1.490 . S
C1644 H1634 0.930 . S
C1644 C1643 1.400 . S
C1644 C1647 1.386 . S
H1645 C1661 0.930 . S
H1646 C1662 0.931 . S
C1647 H1635 0.929 . S
C1647 C1641 1.390 . S
C1647 C1644 1.386 . S
C1648 C1643 1.490 . S
C1648 C1650 1.395 . S
C1648 C1651 1.403 . S
H1649 C1655 0.930 . S
C1650 H1636 0.930 . S
C1650 C1648 1.395 . S
C1650 C1653 1.403 . S
C1651 C1648 1.403 . S
C1651 C1652 1.524 . S
C1651 C1655 1.400 . S
C1652 H1637 0.960 . S
C1652 H1638 0.960 . S
C1652 H1639 0.960 . S
C1652 C1651 1.524 . S
C1653 C1650 1.403 . S
C1653 C1654 1.392 . S
C1653 C1657 1.495 . S
C1654 C1653 1.392 . S
C1654 C1655 1.385 . S
C1654 C1656 1.478 . S
C1655 H1649 0.930 . S
C1655 C1651 1.400 . S
C1655 C1654 1.385 . S
C1656 C1654 1.478 . S
C1656 C1658 1.381 . S
C1656 C1662 1.383 . S
C1657 C1653 1.495 . S
C1657 H1663 0.959 . S
C1657 H1664 0.961 . S
C1657 H1665 0.960 . S
C1658 C1656 1.381 . S
C1658 C1659 1.394 . S
C1658 H1666 0.930 . S
C1659 C1658 1.394 . S
C1659 C1660 1.383 . S
C1659 H1667 0.929 . S
C1660 C1659 1.383 . S
C1660 C1661 1.377 . S
C1661 H1645 0.930 . S
C1661 C1660 1.377 . S
C1661 C1662 1.379 . S
C1662 H1646 0.931 . S
C1662 C1656 1.383 . S
C1662 C1661 1.379 . S
H1663 C1657 0.959 . S
H1664 C1657 0.961 . S
H1665 C1657 0.960 . S
H1666 C1658 0.930 . S
H1667 C1659 0.929 . S
H1668 C1676 0.929 . S
H1669 C1678 0.934 . S
H1670 C1680 0.931 . S
H1671 C1683 0.929 . S
H1672 C1686 0.930 1_455 S
H1673 C1688 0.960 . S
H1674 C1688 0.960 . S
H1675 C1688 0.960 . S
C1676 H1668 0.929 . S
C1676 C1677 1.377 . S
C1676 C1678 1.378 1_455 S
C1677 C1676 1.377 . S
C1677 C1683 1.390 . S
C1678 H1669 0.934 . S
C1678 C1676 1.378 1_655 S
C1678 C1679 1.374 . S
C1679 C1678 1.374 . S
C1679 C1680 1.400 1_655 S
C1679 C1684 1.490 . S
C1680 H1670 0.931 . S
C1680 C1679 1.400 1_455 S
C1680 C1683 1.386 . S
H1681 C1697 0.930 . S
H1682 C1698 0.931 . S
C1683 H1671 0.929 . S
C1683 C1677 1.390 . S
C1683 C1680 1.386 . S
C1684 C1679 1.490 . S
C1684 C1686 1.395 . S
C1684 C1687 1.403 . S
H1685 C1691 0.930 . S
C1686 H1672 0.930 1_655 S
C1686 C1684 1.395 . S
C1686 C1689 1.403 . S
C1687 C1684 1.403 . S
C1687 C1688 1.524 . S
C1687 C1691 1.400 . S
C1688 H1673 0.960 . S
C1688 H1674 0.960 . S
C1688 H1675 0.960 . S
C1688 C1687 1.524 . S
C1689 C1686 1.403 . S
C1689 C1690 1.392 . S
C1689 C1693 1.495 1_655 S
C1690 C1689 1.392 . S
C1690 C1691 1.385 . S
C1690 C1692 1.478 . S
C1691 H1685 0.930 . S
C1691 C1687 1.400 . S
C1691 C1690 1.385 . S
C1692 C1690 1.478 . S
C1692 C1694 1.381 . S
C1692 C1698 1.383 . S
C1693 C1689 1.495 1_455 S
C1693 H1699 0.959 . S
C1693 H1700 0.961 . S
C1693 H1701 0.960 1_455 S
C1694 C1692 1.381 . S
C1694 C1695 1.394 . S
C1694 H1702 0.930 . S
C1695 C1694 1.394 . S
C1695 C1696 1.383 . S
C1695 H1703 0.929 . S
C1696 C1695 1.383 . S
C1696 C1697 1.377 . S
C1697 H1681 0.930 . S
C1697 C1696 1.377 . S
C1697 C1698 1.379 . S
C1698 H1682 0.931 . S
C1698 C1692 1.383 . S
C1698 C1697 1.379 . S
H1699 C1693 0.959 . S
H1700 C1693 0.961 . S
H1701 C1693 0.960 1_655 S
H1702 C1694 0.930 . S
H1703 C1695 0.929 . S
H1704 C1712 0.929 . S
H1705 C1714 0.930 . S
H1706 C1716 0.930 . S
H1707 C1719 0.929 . S
H1708 C1722 0.930 . S
H1709 C1724 0.960 . S
H1710 C1724 0.960 . S
H1711 C1724 0.960 . S
C1712 H1704 0.929 . S
C1712 C1713 1.377 . S
C1712 C1714 1.384 . S
C1713 C1712 1.377 . S
C1713 C1719 1.390 . S
C1714 H1705 0.930 . S
C1714 C1712 1.384 . S
C1714 C1715 1.372 . S
C1715 C1714 1.372 . S
C1715 C1716 1.400 . S
C1715 C1720 1.490 . S
C1716 H1706 0.930 . S
C1716 C1715 1.400 . S
C1716 C1719 1.386 . S
H1717 C1733 0.930 . S
H1718 C1734 0.931 . S
C1719 H1707 0.929 . S
C1719 C1713 1.390 . S
C1719 C1716 1.386 . S
C1720 C1715 1.490 . S
C1720 C1722 1.395 . S
C1720 C1723 1.403 . S
H1721 C1727 0.930 . S
C1722 H1708 0.930 . S
C1722 C1720 1.395 . S
C1722 C1725 1.403 . S
C1723 C1720 1.403 . S
C1723 C1724 1.524 . S
C1723 C1727 1.400 . S
C1724 H1709 0.960 . S
C1724 H1710 0.960 . S
C1724 H1711 0.960 . S
C1724 C1723 1.524 . S
C1725 C1722 1.403 . S
C1725 C1726 1.392 . S
C1725 C1729 1.495 . S
C1726 C1725 1.392 . S
C1726 C1727 1.385 . S
C1726 C1728 1.478 . S
C1727 H1721 0.930 . S
C1727 C1723 1.400 . S
C1727 C1726 1.385 . S
C1728 C1726 1.478 . S
C1728 C1730 1.381 . S
C1728 C1734 1.383 . S
C1729 C1725 1.495 . S
C1729 H1735 0.959 . S
C1729 H1736 0.961 . S
C1729 H1737 0.960 . S
C1730 C1728 1.381 . S
C1730 C1731 1.394 . S
C1730 H1738 0.930 . S
C1731 C1730 1.394 . S
C1731 C1732 1.383 . S
C1731 H1739 0.929 . S
C1732 C1731 1.383 . S
C1732 C1733 1.377 . S
C1733 H1717 0.930 . S
C1733 C1732 1.377 . S
C1733 C1734 1.379 . S
C1734 H1718 0.931 . S
C1734 C1728 1.383 . S
C1734 C1733 1.379 . S
H1735 C1729 0.959 . S
H1736 C1729 0.961 . S
H1737 C1729 0.960 . S
H1738 C1730 0.930 . S
H1739 C1731 0.929 . S
H1740 C1748 0.929 . S
H1741 C1750 0.930 . S
H1742 C1752 0.930 . S
H1743 C1755 0.929 . S
H1744 C1758 0.930 . S
H1745 C1760 0.960 . S
H1746 C1760 0.960 . S
H1747 C1760 0.960 . S
C1748 H1740 0.929 . S
C1748 C1749 1.377 . S
C1748 C1750 1.384 . S
C1749 C1748 1.377 . S
C1749 C1755 1.390 . S
C1750 H1741 0.930 . S
C1750 C1748 1.384 . S
C1750 C1751 1.372 . S
C1751 C1750 1.372 . S
C1751 C1752 1.400 . S
C1751 C1756 1.490 . S
C1752 H1742 0.930 . S
C1752 C1751 1.400 . S
C1752 C1755 1.386 . S
H1753 C1769 0.930 . S
H1754 C1770 0.931 . S
C1755 H1743 0.929 . S
C1755 C1749 1.390 . S
C1755 C1752 1.386 . S
C1756 C1751 1.490 . S
C1756 C1758 1.395 . S
C1756 C1759 1.403 . S
H1757 C1763 0.930 . S
C1758 H1744 0.930 . S
C1758 C1756 1.395 . S
C1758 C1761 1.403 . S
C1759 C1756 1.403 . S
C1759 C1760 1.524 . S
C1759 C1763 1.400 . S
C1760 H1745 0.960 . S
C1760 H1746 0.960 . S
C1760 H1747 0.960 . S
C1760 C1759 1.524 . S
C1761 C1758 1.403 . S
C1761 C1762 1.392 . S
C1761 C1765 1.495 . S
C1762 C1761 1.392 . S
C1762 C1763 1.385 . S
C1762 C1764 1.478 . S
C1763 H1757 0.930 . S
C1763 C1759 1.400 . S
C1763 C1762 1.385 . S
C1764 C1762 1.478 . S
C1764 C1766 1.381 . S
C1764 C1770 1.383 . S
C1765 C1761 1.495 . S
C1765 H1771 0.959 . S
C1765 H1772 0.961 . S
C1765 H1773 0.960 . S
C1766 C1764 1.381 . S
C1766 C1767 1.394 . S
C1766 H1774 0.930 . S
C1767 C1766 1.394 . S
C1767 C1768 1.383 . S
C1767 H1775 0.929 . S
C1768 C1767 1.383 . S
C1768 C1769 1.377 . S
C1769 H1753 0.930 . S
C1769 C1768 1.377 . S
C1769 C1770 1.379 . S
C1770 H1754 0.931 . S
C1770 C1764 1.383 . S
C1770 C1769 1.379 . S
H1771 C1765 0.959 . S
H1772 C1765 0.961 . S
H1773 C1765 0.960 . S
H1774 C1766 0.930 . S
H1775 C1767 0.929 . S
H1776 C1784 0.929 . S
H1777 C1786 0.930 . S
H1778 C1788 0.930 . S
H1779 C1791 0.929 . S
H1780 C1794 0.930 . S
H1781 C1796 0.960 . S
H1782 C1796 0.960 . S
H1783 C1796 0.960 . S
C1784 H1776 0.929 . S
C1784 C1785 1.377 . S
C1784 C1786 1.384 . S
C1785 C1784 1.377 . S
C1785 C1791 1.390 . S
C1786 H1777 0.930 . S
C1786 C1784 1.384 . S
C1786 C1787 1.372 . S
C1787 C1786 1.372 . S
C1787 C1788 1.400 . S
C1787 C1792 1.490 . S
C1788 H1778 0.930 . S
C1788 C1787 1.400 . S
C1788 C1791 1.386 . S
H1789 C1805 0.930 . S
H1790 C1806 0.931 . S
C1791 H1779 0.929 . S
C1791 C1785 1.390 . S
C1791 C1788 1.386 . S
C1792 C1787 1.490 . S
C1792 C1794 1.395 . S
C1792 C1795 1.403 . S
H1793 C1799 0.930 . S
C1794 H1780 0.930 . S
C1794 C1792 1.395 . S
C1794 C1797 1.403 . S
C1795 C1792 1.403 . S
C1795 C1796 1.524 . S
C1795 C1799 1.400 . S
C1796 H1781 0.960 . S
C1796 H1782 0.960 . S
C1796 H1783 0.960 . S
C1796 C1795 1.524 . S
C1797 C1794 1.403 . S
C1797 C1798 1.392 . S
C1797 C1801 1.495 . S
C1798 C1797 1.392 . S
C1798 C1799 1.385 . S
C1798 C1800 1.478 . S
C1799 H1793 0.930 . S
C1799 C1795 1.400 . S
C1799 C1798 1.385 . S
C1800 C1798 1.478 . S
C1800 C1802 1.381 . S
C1800 C1806 1.383 . S
C1801 C1797 1.495 . S
C1801 H1807 0.959 . S
C1801 H1808 0.961 . S
C1801 H1809 0.960 . S
C1802 C1800 1.381 . S
C1802 C1803 1.394 . S
C1802 H1810 0.930 . S
C1803 C1802 1.394 . S
C1803 C1804 1.383 . S
C1803 H1811 0.929 . S
C1804 C1803 1.383 . S
C1804 C1805 1.377 . S
C1805 H1789 0.930 . S
C1805 C1804 1.377 . S
C1805 C1806 1.379 . S
C1806 H1790 0.931 . S
C1806 C1800 1.383 . S
C1806 C1805 1.379 . S
H1807 C1801 0.959 . S
H1808 C1801 0.961 . S
H1809 C1801 0.960 . S
H1810 C1802 0.930 . S
H1811 C1803 0.929 . S
H1812 C1820 0.929 . S
H1813 C1822 0.930 . S
H1814 C1824 0.930 . S
H1815 C1827 0.929 . S
H1816 C1830 0.930 . S
H1817 C1832 0.960 . S
H1818 C1832 0.960 . S
H1819 C1832 0.960 . S
C1820 H1812 0.929 . S
C1820 C1821 1.377 . S
C1820 C1822 1.384 . S
C1821 C1820 1.377 . S
C1821 C1827 1.390 . S
C1822 H1813 0.930 . S
C1822 C1820 1.384 . S
C1822 C1823 1.372 . S
C1823 C1822 1.372 . S
C1823 C1824 1.400 . S
C1823 C1828 1.490 . S
C1824 H1814 0.930 . S
C1824 C1823 1.400 . S
C1824 C1827 1.386 . S
H1825 C1841 0.930 . S
H1826 C1842 0.931 . S
C1827 H1815 0.929 . S
C1827 C1821 1.390 . S
C1827 C1824 1.386 . S
C1828 C1823 1.490 . S
C1828 C1830 1.395 . S
C1828 C1831 1.403 . S
H1829 C1835 0.930 . S
C1830 H1816 0.930 . S
C1830 C1828 1.395 . S
C1830 C1833 1.403 . S
C1831 C1828 1.403 . S
C1831 C1832 1.524 . S
C1831 C1835 1.400 . S
C1832 H1817 0.960 . S
C1832 H1818 0.960 . S
C1832 H1819 0.960 . S
C1832 C1831 1.524 . S
C1833 C1830 1.403 . S
C1833 C1834 1.392 . S
C1833 C1837 1.495 . S
C1834 C1833 1.392 . S
C1834 C1835 1.385 . S
C1834 C1836 1.478 . S
C1835 H1829 0.930 . S
C1835 C1831 1.400 . S
C1835 C1834 1.385 . S
C1836 C1834 1.478 . S
C1836 C1838 1.381 . S
C1836 C1842 1.383 . S
C1837 C1833 1.495 . S
C1837 H1843 0.959 . S
C1837 H1844 0.961 . S
C1837 H1845 0.960 . S
C1838 C1836 1.381 . S
C1838 C1839 1.394 . S
C1838 H1846 0.930 . S
C1839 C1838 1.394 . S
C1839 C1840 1.383 . S
C1839 H1847 0.929 . S
C1840 C1839 1.383 . S
C1840 C1841 1.377 . S
C1841 H1825 0.930 . S
C1841 C1840 1.377 . S
C1841 C1842 1.379 . S
C1842 H1826 0.931 . S
C1842 C1836 1.383 . S
C1842 C1841 1.379 . S
H1843 C1837 0.959 . S
H1844 C1837 0.961 . S
H1845 C1837 0.960 . S
H1846 C1838 0.930 . S
H1847 C1839 0.929 . S
H1848 C1856 0.929 . S
H1849 C1858 0.930 . S
H1850 C1860 0.930 . S
H1851 C1863 0.929 . S
H1852 C1866 0.930 . S
H1853 C1868 0.960 . S
H1854 C1868 0.914 1_556 S
H1855 C1868 0.960 1_655 S
C1856 H1848 0.929 . S
C1856 C1857 1.377 . S
C1856 C1858 1.384 1_655 S
C1857 C1856 1.377 . S
C1857 C1863 1.390 1_556 S
C1858 H1849 0.930 . S
C1858 C1856 1.384 1_455 S
C1858 C1859 1.372 1_556 S
C1859 C1858 1.372 1_554 S
C1859 C1860 1.400 1_455 S
C1859 C1864 1.490 . S
C1860 H1850 0.930 . S
C1860 C1859 1.400 1_655 S
C1860 C1863 1.386 . S
H1861 C1877 0.930 . S
H1862 C1878 0.931 . S
C1863 H1851 0.929 . S
C1863 C1857 1.390 1_554 S
C1863 C1860 1.386 . S
C1864 C1859 1.490 . S
C1864 C1866 1.395 . S
C1864 C1867 1.403 . S
H1865 C1871 0.930 . S
C1866 H1852 0.930 . S
C1866 C1864 1.395 . S
C1866 C1869 1.403 . S
C1867 C1864 1.403 . S
C1867 C1868 1.524 . S
C1867 C1871 1.400 . S
C1868 H1853 0.960 . S
C1868 H1854 0.914 1_554 S
C1868 H1855 0.960 1_455 S
C1868 C1867 1.524 . S
C1869 C1866 1.403 . S
C1869 C1870 1.392 . S
C1869 C1873 1.495 . S
C1870 C1869 1.392 . S
C1870 C1871 1.385 . S
C1870 C1872 1.478 . S
C1871 H1865 0.930 . S
C1871 C1867 1.400 . S
C1871 C1870 1.385 . S
C1872 C1870 1.478 . S
C1872 C1874 1.381 . S
C1872 C1878 1.383 . S
C1873 C1869 1.495 . S
C1873 H1879 0.959 . S
C1873 H1880 0.961 . S
C1873 H1881 0.960 . S
C1874 C1872 1.381 . S
C1874 C1875 1.394 . S
C1874 H1882 0.930 . S
C1875 C1874 1.394 . S
C1875 C1876 1.383 . S
C1875 H1883 0.929 . S
C1876 C1875 1.383 . S
C1876 C1877 1.377 . S
C1877 H1861 0.930 . S
C1877 C1876 1.377 . S
C1877 C1878 1.379 . S
C1878 H1862 0.931 . S
C1878 C1872 1.383 . S
C1878 C1877 1.379 . S
H1879 C1873 0.959 . S
H1880 C1873 0.961 . S
H1881 C1873 0.960 . S
H1882 C1874 0.930 . S
H1883 C1875 0.929 . S
H1884 C1892 0.929 . S
H1885 C1894 0.930 . S
H1886 C1896 0.930 . S
H1887 C1899 0.929 . S
H1888 C1902 0.930 . S
H1889 C1904 0.960 . S
H1890 C1904 0.960 . S
H1891 C1904 0.960 . S
C1892 H1884 0.929 . S
C1892 C1893 1.377 . S
C1892 C1894 1.384 . S
C1893 C1892 1.377 . S
C1893 C1899 1.390 . S
C1894 H1885 0.930 . S
C1894 C1892 1.384 . S
C1894 C1895 1.372 . S
C1895 C1894 1.372 . S
C1895 C1896 1.400 . S
C1895 C1900 1.490 . S
C1896 H1886 0.930 . S
C1896 C1895 1.400 . S
C1896 C1899 1.386 . S
H1897 C1913 0.930 . S
H1898 C1914 0.931 . S
C1899 H1887 0.929 . S
C1899 C1893 1.390 . S
C1899 C1896 1.386 . S
C1900 C1895 1.490 . S
C1900 C1902 1.395 . S
C1900 C1903 1.403 . S
H1901 C1907 0.930 . S
C1902 H1888 0.930 . S
C1902 C1900 1.395 . S
C1902 C1905 1.403 . S
C1903 C1900 1.403 . S
C1903 C1904 1.524 . S
C1903 C1907 1.400 . S
C1904 H1889 0.960 . S
C1904 H1890 0.960 . S
C1904 H1891 0.960 . S
C1904 C1903 1.524 . S
C1905 C1902 1.403 . S
C1905 C1906 1.392 . S
C1905 C1909 1.495 . S
C1906 C1905 1.392 . S
C1906 C1907 1.385 . S
C1906 C1908 1.478 . S
C1907 H1901 0.930 . S
C1907 C1903 1.400 . S
C1907 C1906 1.385 . S
C1908 C1906 1.478 . S
C1908 C1910 1.381 . S
C1908 C1914 1.383 . S
C1909 C1905 1.495 . S
C1909 H1915 0.959 . S
C1909 H1916 0.961 . S
C1909 H1917 0.960 . S
C1910 C1908 1.381 . S
C1910 C1911 1.394 . S
C1910 H1918 0.930 . S
C1911 C1910 1.394 . S
C1911 C1912 1.383 . S
C1911 H1919 0.929 . S
C1912 C1911 1.383 . S
C1912 C1913 1.377 . S
C1913 H1897 0.930 . S
C1913 C1912 1.377 . S
C1913 C1914 1.379 . S
C1914 H1898 0.931 . S
C1914 C1908 1.383 . S
C1914 C1913 1.379 . S
H1915 C1909 0.959 . S
H1916 C1909 0.961 . S
H1917 C1909 0.960 . S
H1918 C1910 0.930 . S
H1919 C1911 0.929 . S
H1920 C1928 0.929 . S
H1921 C1930 0.930 . S
H1922 C1932 0.930 . S
H1923 C1935 0.929 . S
H1924 C1938 0.930 . S
H1925 C1940 0.960 . S
H1926 C1940 0.960 . S
H1927 C1940 0.960 . S
C1928 H1920 0.929 . S
C1928 C1929 1.377 . S
C1928 C1930 1.384 . S
C1929 C1928 1.377 . S
C1929 C1935 1.390 . S
C1930 H1921 0.930 . S
C1930 C1928 1.384 . S
C1930 C1931 1.372 . S
C1931 C1930 1.372 . S
C1931 C1932 1.400 . S
C1931 C1936 1.490 . S
C1932 H1922 0.930 . S
C1932 C1931 1.400 . S
C1932 C1935 1.386 . S
H1933 C1949 0.930 . S
H1934 C1950 0.931 . S
C1935 H1923 0.929 . S
C1935 C1929 1.390 . S
C1935 C1932 1.386 . S
C1936 C1931 1.490 . S
C1936 C1938 1.395 . S
C1936 C1939 1.403 . S
H1937 C1943 0.930 . S
C1938 H1924 0.930 . S
C1938 C1936 1.395 . S
C1938 C1941 1.403 . S
C1939 C1936 1.403 . S
C1939 C1940 1.524 . S
C1939 C1943 1.400 . S
C1940 H1925 0.960 . S
C1940 H1926 0.960 . S
C1940 H1927 0.960 . S
C1940 C1939 1.524 . S
C1941 C1938 1.403 . S
C1941 C1942 1.392 . S
C1941 C1945 1.495 . S
C1942 C1941 1.392 . S
C1942 C1943 1.385 . S
C1942 C1944 1.478 . S
C1943 H1937 0.930 . S
C1943 C1939 1.400 . S
C1943 C1942 1.385 . S
C1944 C1942 1.478 . S
C1944 C1946 1.381 . S
C1944 C1950 1.383 . S
C1945 C1941 1.495 . S
C1945 H1951 0.959 . S
C1945 H1952 0.961 . S
C1945 H1953 0.960 . S
C1946 C1944 1.381 . S
C1946 C1947 1.394 . S
C1946 H1954 0.930 . S
C1947 C1946 1.394 . S
C1947 C1948 1.383 . S
C1947 H1955 0.929 . S
C1948 C1947 1.383 . S
C1948 C1949 1.377 . S
C1949 H1933 0.930 . S
C1949 C1948 1.377 . S
C1949 C1950 1.379 . S
C1950 H1934 0.931 . S
C1950 C1944 1.383 . S
C1950 C1949 1.379 . S
H1951 C1945 0.959 . S
H1952 C1945 0.961 . S
H1953 C1945 0.960 . S
H1954 C1946 0.930 . S
H1955 C1947 0.929 . S
H1956 C1964 0.929 . S
H1957 C1966 0.930 . S
H1958 C1968 0.930 . S
H1959 C1971 0.929 . S
H1960 C1974 0.930 . S
H1961 C1976 0.960 . S
H1962 C1976 0.960 . S
H1963 C1976 0.960 . S
C1964 H1956 0.929 . S
C1964 C1965 1.377 . S
C1964 C1966 1.384 . S
C1965 C1964 1.377 . S
C1965 C1971 1.390 . S
C1966 H1957 0.930 . S
C1966 C1964 1.384 . S
C1966 C1967 1.372 . S
C1967 C1966 1.372 . S
C1967 C1968 1.400 . S
C1967 C1972 1.490 . S
C1968 H1958 0.930 . S
C1968 C1967 1.400 . S
C1968 C1971 1.386 . S
H1969 C1985 0.930 . S
H1970 C1986 0.931 . S
C1971 H1959 0.929 . S
C1971 C1965 1.390 . S
C1971 C1968 1.386 . S
C1972 C1967 1.490 . S
C1972 C1974 1.395 . S
C1972 C1975 1.403 . S
H1973 C1979 0.930 . S
C1974 H1960 0.930 . S
C1974 C1972 1.395 . S
C1974 C1977 1.403 . S
C1975 C1972 1.403 . S
C1975 C1976 1.524 . S
C1975 C1979 1.400 . S
C1976 H1961 0.960 . S
C1976 H1962 0.960 . S
C1976 H1963 0.960 . S
C1976 C1975 1.524 . S
C1977 C1974 1.403 . S
C1977 C1978 1.392 . S
C1977 C1981 1.495 . S
C1978 C1977 1.392 . S
C1978 C1979 1.385 . S
C1978 C1980 1.478 . S
C1979 H1973 0.930 . S
C1979 C1975 1.400 . S
C1979 C1978 1.385 . S
C1980 C1978 1.478 . S
C1980 C1982 1.381 . S
C1980 C1986 1.383 . S
C1981 C1977 1.495 . S
C1981 H1987 0.959 . S
C1981 H1988 0.961 . S
C1981 H1989 0.960 . S
C1982 C1980 1.381 . S
C1982 C1983 1.394 . S
C1982 H1990 0.930 . S
C1983 C1982 1.394 . S
C1983 C1984 1.383 . S
C1983 H1991 0.929 . S
C1984 C1983 1.383 . S
C1984 C1985 1.377 . S
C1985 H1969 0.930 . S
C1985 C1984 1.377 . S
C1985 C1986 1.379 . S
C1986 H1970 0.931 . S
C1986 C1980 1.383 . S
C1986 C1985 1.379 . S
H1987 C1981 0.959 . S
H1988 C1981 0.961 . S
H1989 C1981 0.960 . S
H1990 C1982 0.930 . S
H1991 C1983 0.929 . S
H1992 C2000 0.929 . S
H1993 C2002 0.930 . S
H1994 C2004 0.930 . S
H1995 C2007 0.929 . S
H1996 C2010 0.930 . S
H1997 C2012 0.960 . S
H1998 C2012 0.960 . S
H1999 C2012 0.960 . S
C2000 H1992 0.929 . S
C2000 C2001 1.377 1_556 S
C2000 C2002 1.384 . S
C2001 C2000 1.377 1_554 S
C2001 C2007 1.390 . S
C2002 H1993 0.930 . S
C2002 C2000 1.384 . S
C2002 C2003 1.372 . S
C2003 C2002 1.372 . S
C2003 C2004 1.400 1_556 S
C2003 C2008 1.490 . S
C2004 H1994 0.930 . S
C2004 C2003 1.400 1_554 S
C2004 C2007 1.386 . S
H2005 C2021 0.930 . S
H2006 C2022 0.931 . S
C2007 H1995 0.929 . S
C2007 C2001 1.390 . S
C2007 C2004 1.386 . S
C2008 C2003 1.490 . S
C2008 C2010 1.395 . S
C2008 C2011 1.403 . S
H2009 C2015 0.930 . S
C2010 H1996 0.930 . S
C2010 C2008 1.395 . S
C2010 C2013 1.403 . S
C2011 C2008 1.403 . S
C2011 C2012 1.524 1_556 S
C2011 C2015 1.400 . S
C2012 H1997 0.960 . S
C2012 H1998 0.960 . S
C2012 H1999 0.960 . S
C2012 C2011 1.524 1_554 S
C2013 C2010 1.403 . S
C2013 C2014 1.392 . S
C2013 C2017 1.495 . S
C2014 C2013 1.392 . S
C2014 C2015 1.385 . S
C2014 C2016 1.478 . S
C2015 H2009 0.930 . S
C2015 C2011 1.400 . S
C2015 C2014 1.385 . S
C2016 C2014 1.478 . S
C2016 C2018 1.381 . S
C2016 C2022 1.383 . S
C2017 C2013 1.495 . S
C2017 H2023 0.959 . S
C2017 H2024 0.961 . S
C2017 H2025 0.960 . S
C2018 C2016 1.381 . S
C2018 C2019 1.394 . S
C2018 H2026 0.930 . S
C2019 C2018 1.394 . S
C2019 C2020 1.383 . S
C2019 H2027 0.929 . S
C2020 C2019 1.383 . S
C2020 C2021 1.377 . S
C2021 H2005 0.930 . S
C2021 C2020 1.377 . S
C2021 C2022 1.379 . S
C2022 H2006 0.931 . S
C2022 C2016 1.383 . S
C2022 C2021 1.379 . S
H2023 C2017 0.959 . S
H2024 C2017 0.961 . S
H2025 C2017 0.960 . S
H2026 C2018 0.930 . S
H2027 C2019 0.929 . S
H2028 C2036 0.929 . S
H2029 C2038 0.930 . S
H2030 C2040 0.930 . S
H2031 C2043 0.929 . S
H2032 C2046 0.930 . S
H2033 C2048 0.960 . S
H2034 C2048 0.960 . S
H2035 C2048 0.960 . S
C2036 H2028 0.929 . S
C2036 C2037 1.377 . S
C2036 C2038 1.384 . S
C2037 C2036 1.377 . S
C2037 C2043 1.390 . S
C2038 H2029 0.930 . S
C2038 C2036 1.384 . S
C2038 C2039 1.372 . S
C2039 C2038 1.372 . S
C2039 C2040 1.400 . S
C2039 C2044 1.490 . S
C2040 H2030 0.930 . S
C2040 C2039 1.400 . S
C2040 C2043 1.386 . S
H2041 C2057 0.930 . S
H2042 C2058 0.931 . S
C2043 H2031 0.929 . S
C2043 C2037 1.390 . S
C2043 C2040 1.386 . S
C2044 C2039 1.490 . S
C2044 C2046 1.395 . S
C2044 C2047 1.403 . S
H2045 C2051 0.930 . S
C2046 H2032 0.930 . S
C2046 C2044 1.395 . S
C2046 C2049 1.403 . S
C2047 C2044 1.403 . S
C2047 C2048 1.524 . S
C2047 C2051 1.400 . S
C2048 H2033 0.960 . S
C2048 H2034 0.960 . S
C2048 H2035 0.960 . S
C2048 C2047 1.524 . S
C2049 C2046 1.403 . S
C2049 C2050 1.392 . S
C2049 C2053 1.495 . S
C2050 C2049 1.392 . S
C2050 C2051 1.385 . S
C2050 C2052 1.524 . S
C2051 H2045 0.930 . S
C2051 C2047 1.400 . S
C2051 C2050 1.385 . S
C2052 C2050 1.524 . S
C2052 C2054 1.372 1_655 S
C2052 C2058 1.347 1_655 S
C2053 C2049 1.495 . S
C2053 H2059 0.959 . S
C2053 H2060 0.964 1_655 S
C2053 H2061 0.960 . S
C2054 C2052 1.372 1_455 S
C2054 C2055 1.394 . S
C2054 H2062 0.930 1_455 S
C2055 C2054 1.394 . S
C2055 C2056 1.383 . S
C2055 H2063 0.929 . S
C2056 C2055 1.383 . S
C2056 C2057 1.377 . S
C2057 H2041 0.930 . S
C2057 C2056 1.377 . S
C2057 C2058 1.379 . S
C2058 H2042 0.931 . S
C2058 C2052 1.347 1_455 S
C2058 C2057 1.379 . S
H2059 C2053 0.959 . S
H2060 C2053 0.964 1_455 S
H2061 C2053 0.960 . S
H2062 C2054 0.930 1_655 S
H2063 C2055 0.929 . S
C345 C132 1.109 . S
C364 C6 1.115 . S
C381 C20 1.109 . S
C400 C146 1.116 . S
C417 C34 1.109 . S
C436 C160 1.116 . S
C453 C48 1.111 . S
C472 C118 1.106 . S
C489 C62 1.107 . S
C508 C216 1.111 . S
C525 C174 1.109 . S
C544 C76 1.102 . S
C561 C90 1.107 . S
C580 C188 1.113 . S
C597 C202 1.108 . S
C616 C104 1.116 . S
C633 C230 1.111 . S
C652 C258 1.098 . S
C669 C314 1.107 . S
C688 C244 1.115 . S
C705 C272 1.109 . S
C724 C328 1.117 . S
C741 C300 1.110 . S
C760 C286 1.112 . S
C777 C287 1.870 . S
C796 C7 1.882 . S
C813 C21 1.869 . S
C832 C245 1.842 . S
C849 C35 1.869 . S
C868 C259 1.877 . S
C885 C49 1.866 . S
C904 C273 1.838 . S
C921 C63 1.872 . S
C940 C329 1.854 . S
C957 C301 1.869 . S
C976 C77 1.879 . S
C993 C315 1.876 . S
C1012 C91 1.875 . S
C1029 C231 1.865 . S
C1048 C105 1.852 . S
C1065 C217 1.876 . S
C1084 C119 1.897 . S
C1101 C133 1.866 . S
C1120 C175 1.856 . S
C1137 C189 1.877 . S
C1156 C147 1.888 . S
C1173 C203 1.865 . S
C1192 C161 1.841 . S
C1209 C9 0.977 . S
C1228 C232 1.026 . S
C1245 C330 1.021 . S
C1264 C23 0.956 . S
C1281 C302 1.016 . S
C1300 C37 1.025 . S
C1317 C51 0.972 . S
C1336 C316 1.021 . S
C1353 C65 0.976 . S
C1372 C246 1.015 . S
C1389 C260 1.017 . S
C1408 C79 0.974 . S
C1425 C274 1.020 . S
C1444 C93 0.940 . S
C1461 C288 1.019 . S
C1480 C107 0.986 . S
C1497 C8 1.015 . S
C1516 C121 1.019 . S
C1533 C22 1.020 . S
C1552 C135 0.966 . S
C1569 C36 1.018 . S
C1588 C149 0.959 . S
C1605 C50 1.016 . S
C1624 C163 1.025 . S
C1641 C64 1.021 . S
C1660 C177 0.929 . S
C1677 C78 1.021 . S
C1696 C191 0.934 . S
C1713 C205 0.969 . S
C1732 C92 1.029 . S
C1749 C106 1.018 . S
C1768 C219 0.956 . S
C1785 C120 1.021 . S
C1804 C233 0.931 . S
C1821 C247 0.973 . S
C1840 C176 1.020 . S
C1857 C190 1.017 . S
C1876 C261 0.983 . S
C1893 C275 0.969 . S
C1912 C204 1.030 . S
C1929 C289 0.969 . S
C1948 C218 1.029 . S
C1965 C303 0.987 . S
C1984 C148 1.009 . S
C2001 C162 1.018 . S
C2020 C317 1.001 . S
C2037 C331 0.971 . S
C2056 C134 1.023 . S
