# Generated by pormake.
# Topology yfy, (5)-cn, num edge types: 1
# Building blocks:
#     Node 0, Type 0, BuildingBlock: XOMCOT_clean_sbu_1, # of connection points: 5
#     Node 1, Type 0, BuildingBlock: XOMCOT_clean_sbu_1, # of connection points: 5
#     Node 2, Type 0, BuildingBlock: XOMCOT_clean_sbu_1, # of connection points: 5
#     Node 3, Type 0, BuildingBlock: XOMCOT_clean_sbu_1, # of connection points: 5
#     Node 4, Type 0, BuildingBlock: XOMCOT_clean_sbu_1, # of connection points: 5
#     Node 5, Type 0, BuildingBlock: XOMCOT_clean_sbu_1, # of connection points: 5
#     Node 6, Type 0, BuildingBlock: XOMCOT_clean_sbu_1, # of connection points: 5
#     Node 7, Type 0, BuildingBlock: XOMCOT_clean_sbu_1, # of connection points: 5
#     Node 8, Type 0, BuildingBlock: XOMCOT_clean_sbu_1, # of connection points: 5
#     Node 9, Type 0, BuildingBlock: XOMCOT_clean_sbu_1, # of connection points: 5
#     Node 10, Type 0, BuildingBlock: XOMCOT_clean_sbu_1, # of connection points: 5
#     Node 11, Type 0, BuildingBlock: XOMCOT_clean_sbu_1, # of connection points: 5
#     Node 12, Type 0, BuildingBlock: XOMCOT_clean_sbu_1, # of connection points: 5
#     Node 13, Type 0, BuildingBlock: XOMCOT_clean_sbu_1, # of connection points: 5
#     Node 14, Type 0, BuildingBlock: XOMCOT_clean_sbu_1, # of connection points: 5
#     Node 15, Type 0, BuildingBlock: XOMCOT_clean_sbu_1, # of connection points: 5
#     Edge 16, Type (0, 0), BuildingBlock: ZUJKAS_clean_linker_0, # of connection points: 2
#     Edge 17, Type (0, 0), BuildingBlock: ZUJKAS_clean_linker_0, # of connection points: 2
#     Edge 18, Type (0, 0), BuildingBlock: ZUJKAS_clean_linker_0, # of connection points: 2
#     Edge 19, Type (0, 0), BuildingBlock: ZUJKAS_clean_linker_0, # of connection points: 2
#     Edge 20, Type (0, 0), BuildingBlock: ZUJKAS_clean_linker_0, # of connection points: 2
#     Edge 21, Type (0, 0), BuildingBlock: ZUJKAS_clean_linker_0, # of connection points: 2
#     Edge 22, Type (0, 0), BuildingBlock: ZUJKAS_clean_linker_0, # of connection points: 2
#     Edge 23, Type (0, 0), BuildingBlock: ZUJKAS_clean_linker_0, # of connection points: 2
#     Edge 24, Type (0, 0), BuildingBlock: ZUJKAS_clean_linker_0, # of connection points: 2
#     Edge 25, Type (0, 0), BuildingBlock: ZUJKAS_clean_linker_0, # of connection points: 2
#     Edge 26, Type (0, 0), BuildingBlock: ZUJKAS_clean_linker_0, # of connection points: 2
#     Edge 27, Type (0, 0), BuildingBlock: ZUJKAS_clean_linker_0, # of connection points: 2
#     Edge 28, Type (0, 0), BuildingBlock: ZUJKAS_clean_linker_0, # of connection points: 2
#     Edge 29, Type (0, 0), BuildingBlock: ZUJKAS_clean_linker_0, # of connection points: 2
#     Edge 30, Type (0, 0), BuildingBlock: ZUJKAS_clean_linker_0, # of connection points: 2
#     Edge 31, Type (0, 0), BuildingBlock: ZUJKAS_clean_linker_0, # of connection points: 2
#     Edge 32, Type (0, 0), BuildingBlock: ZUJKAS_clean_linker_0, # of connection points: 2
#     Edge 33, Type (0, 0), BuildingBlock: ZUJKAS_clean_linker_0, # of connection points: 2
#     Edge 34, Type (0, 0), BuildingBlock: ZUJKAS_clean_linker_0, # of connection points: 2
#     Edge 35, Type (0, 0), BuildingBlock: ZUJKAS_clean_linker_0, # of connection points: 2
#     Edge 36, Type (0, 0), BuildingBlock: ZUJKAS_clean_linker_0, # of connection points: 2
#     Edge 37, Type (0, 0), BuildingBlock: ZUJKAS_clean_linker_0, # of connection points: 2
#     Edge 38, Type (0, 0), BuildingBlock: ZUJKAS_clean_linker_0, # of connection points: 2
#     Edge 39, Type (0, 0), BuildingBlock: ZUJKAS_clean_linker_0, # of connection points: 2
#     Edge 40, Type (0, 0), BuildingBlock: ZUJKAS_clean_linker_0, # of connection points: 2
#     Edge 41, Type (0, 0), BuildingBlock: ZUJKAS_clean_linker_0, # of connection points: 2
#     Edge 42, Type (0, 0), BuildingBlock: ZUJKAS_clean_linker_0, # of connection points: 2
#     Edge 43, Type (0, 0), BuildingBlock: ZUJKAS_clean_linker_0, # of connection points: 2
#     Edge 44, Type (0, 0), BuildingBlock: ZUJKAS_clean_linker_0, # of connection points: 2
#     Edge 45, Type (0, 0), BuildingBlock: ZUJKAS_clean_linker_0, # of connection points: 2
#     Edge 46, Type (0, 0), BuildingBlock: ZUJKAS_clean_linker_0, # of connection points: 2
#     Edge 47, Type (0, 0), BuildingBlock: ZUJKAS_clean_linker_0, # of connection points: 2
#     Edge 48, Type (0, 0), BuildingBlock: ZUJKAS_clean_linker_0, # of connection points: 2
#     Edge 49, Type (0, 0), BuildingBlock: ZUJKAS_clean_linker_0, # of connection points: 2
#     Edge 50, Type (0, 0), BuildingBlock: ZUJKAS_clean_linker_0, # of connection points: 2
#     Edge 51, Type (0, 0), BuildingBlock: ZUJKAS_clean_linker_0, # of connection points: 2
#     Edge 52, Type (0, 0), BuildingBlock: ZUJKAS_clean_linker_0, # of connection points: 2
#     Edge 53, Type (0, 0), BuildingBlock: ZUJKAS_clean_linker_0, # of connection points: 2
#     Edge 54, Type (0, 0), BuildingBlock: ZUJKAS_clean_linker_0, # of connection points: 2
#     Edge 55, Type (0, 0), BuildingBlock: ZUJKAS_clean_linker_0, # of connection points: 2
# Relax obj value: 0.167
# Max RMSD: 0.199
# Mean RMSD: 0.199
data_MOF--net-yfy--node1-XOMCOT_clean_sbu_1--edge1-ZUJKAS_clean_linker_0
_symmetry_space_group_name_H-M    P1
_symmetry_Int_Tables_number       1
_symmetry_cell_setting            triclinic
loop_
_symmetry_equiv_pos_as_xyz
'x, y, z'
_cell_length_a     55.309675
_cell_length_b     55.308903
_cell_length_c     62.718359
_cell_angle_alpha  89.992498
_cell_angle_beta   89.988767
_cell_angle_gamma 89.75472
loop_
_atom_site_label
_atom_site_type_symbol
_atom_site_fract_x
_atom_site_fract_y
_atom_site_fract_z
_atom_type_partial_charge
C0 C 0.99414 0.29659 0.33298 0.0
C1 C 0.97534 0.28038 0.33307 0.0
N2 N 0.97912 0.26412 0.3174 0.0
N3 N 1.00982 0.2905 0.31743 0.0
C4 C 1.00007 0.2708 0.30803 0.0
H5 H 0.99657 0.31157 0.34384 0.0
Co6 Co 0.03913 0.30598 0.31245 0.0
C7 C 0.06339 0.27409 0.2814 0.0
O8 O 0.06425 0.29201 0.26768 0.0
N9 N 0.06911 0.32147 0.30736 0.0
C10 C 0.10893 0.32669 0.30553 0.0
C11 C 0.09081 0.31196 0.31274 0.0
C12 C 0.07466 0.34217 0.29688 0.0
N13 N 0.09883 0.34568 0.29541 0.0
O14 O 0.02593 0.31861 0.28636 0.0
H15 H 0.09339 0.29495 0.32095 0.0
H16 H 0.06138 0.35403 0.28974 0.0
O17 O 0.05238 0.27705 0.29909 0.0
C18 C 0.01541 0.33837 0.29152 0.0
O19 O 0.01745 0.34616 0.31122 0.0
N20 N 0.04999 0.29555 0.33917 0.0
C21 C 0.05821 0.28462 0.38198 0.0
C22 C 0.05455 0.26612 0.367 0.0
C23 C 0.05035 0.27198 0.34562 0.0
C24 C 0.05386 0.31372 0.35339 0.0
C25 C 0.05823 0.30867 0.37482 0.0
H26 H 0.0461 0.25768 0.33454 0.0
H27 H 0.0526 0.33233 0.34817 0.0
H28 H 1.00852 0.26106 0.29503 0.0
H29 H 0.96009 0.28054 0.34389 0.0
H30 H 0.12812 0.32351 0.30751 0.0
H31 H 0.05432 0.24733 0.37184 0.0
H32 H 0.06039 0.32356 0.38585 0.0
C33 C 0.79558 0.98668 0.32487 0.0
C34 C 0.81476 0.97097 0.32315 0.0
N35 N 0.83401 0.98328 0.31577 0.0
N36 N 0.80253 1.00886 0.31861 0.0
C37 C 0.82607 1.00629 0.31305 0.0
H38 H 0.77767 0.9823 0.33056 0.0
Co39 Co 0.78139 0.03504 0.31985 0.0
C40 C 0.80812 0.07871 0.30709 0.0
O41 O 0.79561 0.09066 0.32144 0.0
N42 N 0.75866 0.06121 0.32102 0.0
C43 C 0.73052 0.08785 0.33103 0.0
C44 C 0.74662 0.0706 0.33791 0.0
C45 C 0.74928 0.07325 0.30402 0.0
N46 N 0.7321 0.08949 0.30969 0.0
O47 O 0.76688 0.0242 0.29376 0.0
H48 H 0.74883 0.06539 0.35432 0.0
H49 H 0.75464 0.06977 0.28771 0.0
O50 O 0.80496 0.0559 0.30468 0.0
C51 C 0.74693 0.01409 0.29871 0.0
O52 O 0.73991 0.01457 0.31873 0.0
N53 N 0.79424 0.0426 0.34666 0.0
C54 C 0.80984 0.04315 0.38908 0.0
C55 C 0.82478 0.05182 0.37264 0.0
C56 C 0.81676 0.05107 0.35145 0.0
C57 C 0.78015 0.033 0.36226 0.0
C58 C 0.78714 0.03383 0.38353 0.0
H59 H 0.82919 0.05614 0.33904 0.0
H60 H 0.76318 0.0246 0.35807 0.0
H61 H 0.83734 0.02104 0.30771 0.0
H62 H 0.81449 0.9519 0.32699 0.0
H63 H 0.71857 0.09843 0.34107 0.0
H64 H 0.84284 0.05827 0.37595 0.0
H65 H 0.77474 0.02705 0.39543 0.0
C66 C 0.11277 0.82545 0.34366 0.0
C67 C 0.13231 0.8406 0.34312 0.0
N68 N 0.13443 0.8495 0.32323 0.0
N69 N 0.102 0.82513 0.32435 0.0
C70 C 0.11641 0.83907 0.31195 0.0
H71 H 0.10668 0.81552 0.35748 0.0
Co72 Co 0.07382 0.80727 0.3177 0.0
C73 C 0.05894 0.85838 0.30254 0.0
O74 O 0.07803 0.86966 0.30985 0.0
N75 N 0.04604 0.78919 0.31118 0.0
C76 C 1.00728 0.77913 0.30879 0.0
C77 C 0.02322 0.79652 0.31536 0.0
C78 C 0.04346 0.76718 0.30196 0.0
N79 N 0.01996 0.76061 0.30037 0.0
O80 O 0.08839 0.79745 0.29123 0.0
H81 H 0.01842 0.81351 0.32279 0.0
H82 H 0.05847 0.75608 0.29672 0.0
O83 O 0.05713 0.83543 0.30476 0.0
C84 C 0.10346 0.78094 0.29658 0.0
O85 O 0.10507 0.77485 0.31679 0.0
N86 N 0.06097 0.81434 0.34473 0.0
C87 C 0.05245 0.81879 0.38837 0.0
C88 C 0.05226 0.83926 0.37513 0.0
C89 C 0.05664 0.83666 0.35327 0.0
C90 C 0.05986 0.79419 0.35718 0.0
C91 C 0.05542 0.79597 0.37897 0.0
H92 H 0.05818 0.85273 0.34376 0.0
H93 H 0.06375 0.77667 0.3503 0.0
H94 H 0.11295 0.84256 0.29524 0.0
H95 H 0.14392 0.84498 0.35645 0.0
H96 H 0.98777 0.7803 0.30978 0.0
H97 H 0.05029 0.85724 0.38176 0.0
H98 H 0.05529 0.77964 0.3885 0.0
C99 C 0.2901 0.11238 0.33854 0.0
C100 C 0.26816 0.1235 0.33564 0.0
N101 N 0.25973 0.11743 0.31627 0.0
N102 N 0.29553 0.0989 0.32124 0.0
C103 C 0.27675 0.10264 0.30771 0.0
H104 H 0.30159 0.11447 0.35233 0.0
Co105 Co 0.32432 0.08088 0.31845 0.0
C106 C 0.30921 0.03276 0.30287 0.0
O107 O 0.32612 0.02316 0.31495 0.0
N108 N 0.35409 0.06354 0.31542 0.0
C109 C 0.39111 0.04859 0.32069 0.0
C110 C 0.37254 0.06171 0.32948 0.0
C111 C 0.36263 0.05208 0.29775 0.0
N112 N 0.3849 0.04234 0.30072 0.0
O113 O 0.33249 0.09849 0.29319 0.0
H114 H 0.37317 0.06954 0.34515 0.0
H115 H 0.35258 0.05078 0.283 0.0
O116 O 0.30649 0.0558 0.30239 0.0
C117 C 0.34135 0.11846 0.29966 0.0
O118 O 0.34143 0.12288 0.32025 0.0
N119 N 0.31734 0.06593 0.34483 0.0
C120 C 0.30677 0.05436 0.38722 0.0
C121 C 0.2929 0.04482 0.37051 0.0
C122 C 0.2982 0.05118 0.3494 0.0
C123 C 0.33011 0.07614 0.36103 0.0
C124 C 0.32556 0.07025 0.38219 0.0
H125 H 0.28597 0.04536 0.33708 0.0
H126 H 0.34283 0.09039 0.35759 0.0
H127 H 0.27559 0.09475 0.29195 0.0
H128 H 0.25941 0.13577 0.34668 0.0
H129 H 0.40778 0.04367 0.32865 0.0
H130 H 0.27767 0.03313 0.37374 0.0
H131 H 0.33582 0.0792 0.39458 0.0
C132 C 0.99868 0.80677 0.66556 0.0
C133 C 0.98066 0.82398 0.66631 0.0
N134 N 0.98537 0.83916 0.68259 0.0
N135 N 0.0148 0.81118 0.68116 0.0
C136 C 1.00608 0.83087 0.69145 0.0
H137 H 1.00031 0.7923 0.65404 0.0
Co138 Co 0.04346 0.79393 0.68518 0.0
C139 C 0.06986 0.82314 0.71666 0.0
O140 O 0.07001 0.80473 0.7299 0.0
N141 N 0.07277 0.7766 0.68928 0.0
C142 C 0.11225 0.7687 0.68995 0.0
C143 C 0.09482 0.78492 0.68371 0.0
C144 C 0.07742 0.75513 0.69893 0.0
N145 N 0.10136 0.74995 0.69966 0.0
O146 O 0.03022 0.78097 0.71103 0.0
H147 H 0.09813 0.80207 0.67597 0.0
H148 H 0.0637 0.74383 0.70596 0.0
O149 O 0.05832 0.82151 0.69911 0.0
C150 C 0.01908 0.76199 0.70493 0.0
O151 O 0.02085 0.7556 0.68479 0.0
N152 N 0.05426 0.80478 0.65867 0.0
C153 C 0.06178 0.81657 0.61601 0.0
C154 C 0.05915 0.8348 0.63143 0.0
C155 C 0.05532 0.82851 0.65276 0.0
C156 C 0.05715 0.78687 0.644 0.0
C157 C 0.06119 0.79235 0.62263 0.0
H158 H 0.05181 0.84264 0.66424 0.0
H159 H 0.05531 0.76819 0.64881 0.0
H160 H 0.01517 0.83949 0.70468 0.0
H161 H 0.96537 0.82533 0.6556 0.0
H162 H 0.13151 0.77072 0.68755 0.0
H163 H 0.05934 0.85371 0.62695 0.0
H164 H 0.06252 0.77769 0.61124 0.0
C165 C 0.29253 0.99708 0.66265 0.0
C166 C 0.2778 0.9775 0.66583 0.0
N167 N 0.27009 0.97775 0.68621 0.0
N168 N 0.29382 1.01018 0.68076 0.0
C169 C 0.28072 0.99736 0.69506 0.0
H170 H 0.30142 1.00162 0.64784 0.0
Co171 Co 0.31171 0.03892 0.68421 0.0
C172 C 0.26182 0.05584 0.70128 0.0
O173 O 0.24973 0.03602 0.69719 0.0
N174 N 0.32991 0.06768 0.68769 0.0
C175 C 0.33944 0.10673 0.68622 0.0
C176 C 0.32279 0.08961 0.68049 0.0
C177 C 0.351 0.07213 0.69801 0.0
N178 N 0.35721 0.09578 0.69728 0.0
O179 O 0.32333 0.02675 0.71105 0.0
H180 H 0.30617 0.09313 0.67194 0.0
H181 H 0.36162 0.05847 0.70605 0.0
O182 O 0.28445 0.05687 0.69711 0.0
C183 C 0.34196 0.01441 0.70565 0.0
O184 O 0.34855 0.01447 0.68551 0.0
N185 N 0.30266 0.04889 0.6567 0.0
C186 C 0.29465 0.05357 0.61303 0.0
C187 C 0.27533 0.05514 0.62746 0.0
C188 C 0.27969 0.05256 0.64932 0.0
C189 C 0.32172 0.0485 0.64295 0.0
C190 C 0.31815 0.05089 0.62108 0.0
H191 H 0.26444 0.05202 0.65992 0.0
H192 H 0.33974 0.04513 0.64897 0.0
H193 H 0.2786 1.00266 0.71156 0.0
H194 H 0.27247 0.96464 0.65373 0.0
H195 H 0.33807 0.12594 0.68314 0.0
H196 H 0.25689 0.05692 0.62184 0.0
H197 H 0.33361 0.04988 0.6105 0.0
C198 C 0.12014 0.31345 0.66346 0.0
C199 C 0.13814 0.29628 0.66477 0.0
N200 N 0.13044 0.27811 0.67738 0.0
N201 N 0.10109 0.30631 0.6752 0.0
C202 C 0.10791 0.28475 0.68358 0.0
H203 H 0.12074 0.32998 0.65427 0.0
Co204 Co 0.07202 0.32357 0.67713 0.0
C205 C 0.04363 0.29698 0.70874 0.0
O206 O 0.04212 0.31674 0.72028 0.0
N207 N 0.04223 0.34091 0.67902 0.0
C208 C 1.00249 0.3477 0.67808 0.0
C209 C 0.02072 0.33204 0.67249 0.0
C210 C 0.03641 0.36226 0.68846 0.0
N211 N 1.01232 0.3667 0.68822 0.0
O212 O 0.08375 0.33834 0.70284 0.0
H213 H 0.01824 0.31469 0.66488 0.0
H214 H 0.0493 0.37385 0.69633 0.0
O215 O 0.05662 0.29691 0.69193 0.0
C216 C 0.09454 0.35743 0.69648 0.0
O217 O 0.09299 0.36315 0.67618 0.0
N218 N 0.06295 0.31104 0.65075 0.0
C219 C 0.05887 0.2971 0.60823 0.0
C220 C 0.05791 0.27979 0.62461 0.0
C221 C 0.06021 0.28714 0.64589 0.0
C222 C 0.06307 0.3281 0.63512 0.0
C223 C 0.06088 0.32156 0.61379 0.0
H224 H 0.06101 0.27357 0.65826 0.0
H225 H 0.06581 0.34688 0.63925 0.0
H226 H 0.09633 0.27379 0.69351 0.0
H227 H 0.15557 0.29721 0.65698 0.0
H228 H 0.98339 0.34506 0.67521 0.0
H229 H 0.05665 0.2607 0.62096 0.0
H230 H 0.0614 0.33553 0.60169 0.0
C231 C 0.81948 0.11612 0.66296 0.0
C232 C 0.83367 0.13641 0.66449 0.0
N233 N 0.84381 0.13678 0.684 0.0
N234 N 0.82096 0.10339 0.68127 0.0
C235 C 0.83522 0.11697 0.69405 0.0
H236 H 0.809 0.11078 0.6492 0.0
Co237 Co 0.80434 0.0744 0.68712 0.0
C238 C 0.85567 0.06016 0.70289 0.0
O239 O 0.86755 0.07915 0.69612 0.0
N240 N 0.78754 0.04559 0.69322 0.0
C241 C 0.78042 1.00626 0.69654 0.0
C242 C 0.79655 0.02325 0.68959 0.0
C243 C 0.76569 0.04163 0.70238 0.0
N244 N 0.761 0.01773 0.70474 0.0
O245 O 0.79347 0.08818 0.71355 0.0
H246 H 0.81393 0.0195 0.68236 0.0
H247 H 0.75372 0.05593 0.70767 0.0
O248 O 0.83278 0.05877 0.7002 0.0
C249 C 0.77615 0.10219 0.70799 0.0
O250 O 0.7697 0.10272 0.68782 0.0
N251 N 0.8128 0.06231 0.66001 0.0
C252 C 0.8197 0.05253 0.61663 0.0
C253 C 0.83939 0.05785 0.62997 0.0
C254 C 0.83558 0.0625 0.65162 0.0
C255 C 0.79354 0.05664 0.64745 0.0
C256 C 0.79663 0.05108 0.62595 0.0
H257 H 0.85074 0.06809 0.66108 0.0
H258 H 0.77545 0.0572 0.654 0.0
H259 H 0.83948 0.11223 0.71037 0.0
H260 H 0.83699 0.14938 0.65191 0.0
H261 H 0.78282 0.98687 0.69545 0.0
H262 H 0.85748 0.05979 0.62367 0.0
H263 H 0.78084 0.04644 0.61666 0.0
C264 C 0.48883 0.80265 0.82865 0.0
C265 C 0.47081 0.78557 0.82833 0.0
N266 N 0.47652 0.76866 0.81365 0.0
N267 N 0.5059 0.79659 0.81429 0.0
C268 C 0.49784 0.77592 0.80526 0.0
H269 H 0.48966 0.81833 0.83893 0.0
Co270 Co 0.53456 0.81356 0.80978 0.0
C271 C 0.561 0.78216 0.77949 0.0
O272 O 0.56184 0.79988 0.76556 0.0
N273 N 0.56379 0.83053 0.80516 0.0
C274 C 0.60333 0.83757 0.80386 0.0
C275 C 0.5858 0.82196 0.81073 0.0
C276 C 0.56852 0.85162 0.79495 0.0
N277 N 0.59253 0.85621 0.7938 0.0
O278 O 0.5215 0.82525 0.78332 0.0
H279 H 0.58902 0.80498 0.81884 0.0
H280 H 0.55481 0.86297 0.78777 0.0
O281 O 0.54952 0.78517 0.79694 0.0
C282 C 0.50908 0.84392 0.78837 0.0
O283 O 0.50953 0.85146 0.80822 0.0
N284 N 0.54524 0.80396 0.83676 0.0
C285 C 0.55403 0.79392 0.87964 0.0
C286 C 0.55119 0.77509 0.86485 0.0
C287 C 0.54668 0.7805 0.84342 0.0
C288 C 0.5481 0.82246 0.85083 0.0
C289 C 0.55275 0.81786 0.8723 0.0
H290 H 0.54319 0.76588 0.83246 0.0
H291 H 0.54598 0.84093 0.84545 0.0
H292 H 0.50773 0.766 0.7932 0.0
H293 H 0.45475 0.78567 0.83818 0.0
H294 H 0.62262 0.83521 0.80596 0.0
H295 H 0.55192 0.75636 0.86986 0.0
H296 H 0.55422 0.83297 0.88319 0.0
C297 C 0.3181 0.4867 0.83915 0.0
C298 C 0.33591 0.46943 0.83737 0.0
N299 N 0.35011 0.47508 0.82061 0.0
N300 N 0.3209 0.50324 0.8236 0.0
C301 C 0.34046 0.49564 0.81246 0.0
H302 H 0.30406 0.48733 0.85115 0.0
Co303 Co 0.30139 0.53064 0.82022 0.0
C304 C 0.32795 0.55989 0.78884 0.0
O305 O 0.30899 0.55989 0.77623 0.0
N306 N 0.28189 0.55852 0.81679 0.0
C307 C 0.27071 0.5972 0.81685 0.0
C308 C 0.28839 0.58106 0.8227 0.0
C309 C 0.26013 0.56153 0.80719 0.0
N310 N 0.25293 0.58495 0.80703 0.0
O311 O 0.28862 0.5171 0.79431 0.0
H312 H 0.30535 0.58566 0.83023 0.0
H313 H 0.2499 0.54695 0.80015 0.0
O314 O 0.32752 0.54754 0.80601 0.0
C315 C 0.27276 0.50198 0.80066 0.0
O316 O 0.26847 0.50035 0.82122 0.0
N317 N 0.31201 0.54186 0.84666 0.0
C318 C 0.32374 0.5525 0.88878 0.0
C319 C 0.34192 0.55049 0.87326 0.0
C320 C 0.33566 0.54513 0.85217 0.0
C321 C 0.29419 0.54357 0.86156 0.0
C322 C 0.29961 0.5492 0.88265 0.0
H323 H 0.34982 0.5426 0.84052 0.0
H324 H 0.27566 0.53999 0.85709 0.0
H325 H 0.34777 0.50529 0.79893 0.0
H326 H 0.33808 0.45383 0.8476 0.0
H327 H 0.27143 0.61662 0.81885 0.0
H328 H 0.36078 0.55266 0.87745 0.0
H329 H 0.28509 0.55 0.89423 0.0
C330 C 0.6262 0.30534 0.83286 0.0
C331 C 0.64432 0.32225 0.83202 0.0
N332 N 0.63734 0.3403 0.81888 0.0
N333 N 0.6078 0.31252 0.8203 0.0
C334 C 0.61513 0.33382 0.81189 0.0
H335 H 0.62624 0.28898 0.84231 0.0
Co336 Co 0.57873 0.29574 0.81759 0.0
C337 C 0.55205 0.32255 0.78468 0.0
O338 O 0.55072 0.3028 0.7731 0.0
N339 N 0.54892 0.27884 0.81485 0.0
C340 C 0.50929 0.27178 0.81592 0.0
C341 C 0.52724 0.28778 0.82108 0.0
C342 C 0.54343 0.25734 0.80562 0.0
N343 N 0.51944 0.25263 0.80613 0.0
O344 O 0.59149 0.2803 0.79255 0.0
H345 H 0.52446 0.30529 0.82837 0.0
H346 H 0.55655 0.24541 0.79835 0.0
O347 O 0.56427 0.32232 0.80191 0.0
C348 C 0.60171 0.26106 0.79945 0.0
O349 O 0.59931 0.25566 0.81975 0.0
N350 N 0.56845 0.3091 0.8434 0.0
C351 C 0.55897 0.32471 0.88481 0.0
C352 C 0.56165 0.34147 0.86817 0.0
C353 C 0.56647 0.33327 0.8475 0.0
C354 C 0.56598 0.29261 0.85935 0.0
C355 C 0.56097 0.29999 0.88013 0.0
H356 H 0.56948 0.34636 0.83503 0.0
H357 H 0.56846 0.27358 0.85595 0.0
H358 H 0.60411 0.34475 0.80137 0.0
H359 H 0.66134 0.32125 0.84048 0.0
H360 H 0.4901 0.27451 0.81839 0.0
H361 H 0.56039 0.36072 0.87117 0.0
H362 H 0.55961 0.28646 0.89256 0.0
C363 C 0.78404 0.61751 0.84023 0.0
C364 C 0.76257 0.62931 0.83677 0.0
N365 N 0.75384 0.62231 0.81775 0.0
N366 N 0.78886 0.60269 0.82366 0.0
C367 C 0.77021 0.60629 0.80996 0.0
H368 H 0.79562 0.62 0.85391 0.0
Co369 Co 0.81679 0.58325 0.82202 0.0
C370 C 0.80011 0.53492 0.80865 0.0
O371 O 0.81663 0.52576 0.82139 0.0
N372 N 0.84573 0.56437 0.82009 0.0
C373 C 0.8806 0.54543 0.82674 0.0
C374 C 0.86279 0.55992 0.83508 0.0
C375 C 0.85444 0.55304 0.80242 0.0
N376 N 0.8753 0.54091 0.80622 0.0
O377 O 0.82613 0.59902 0.79609 0.0
H378 H 0.86294 0.56668 0.85114 0.0
H379 H 0.84514 0.55298 0.78723 0.0
O380 O 0.79813 0.55797 0.80685 0.0
C381 C 0.83594 0.61889 0.80168 0.0
O382 O 0.8359 0.62465 0.82201 0.0
N383 N 0.80875 0.57018 0.84893 0.0
C384 C 0.79835 0.55987 0.89157 0.0
C385 C 0.7839 0.5505 0.87516 0.0
C386 C 0.78911 0.55629 0.8539 0.0
C387 C 0.82181 0.58063 0.86482 0.0
C388 C 0.81733 0.57535 0.88612 0.0
H389 H 0.77666 0.55046 0.84175 0.0
H390 H 0.8353 0.59401 0.86091 0.0
H391 H 0.76865 0.59739 0.79465 0.0
H392 H 0.75431 0.6426 0.84717 0.0
H393 H 0.89641 0.53886 0.83514 0.0
H394 H 0.7685 0.53916 0.87871 0.0
H395 H 0.82809 0.58414 0.89827 0.0
C396 C 0.48789 0.31719 0.16361 0.0
C397 C 0.46888 0.3331 0.16581 0.0
N398 N 0.47477 0.34969 0.18066 0.0
N399 N 0.50577 0.32362 0.177 0.0
C400 C 0.49729 0.3435 0.1872 0.0
H401 H 0.48875 0.30193 0.15285 0.0
Co402 Co 0.53499 0.30686 0.17966 0.0
C403 C 0.56223 0.33554 0.2106 0.0
O404 O 0.56268 0.31679 0.22346 0.0
N405 N 0.56489 0.28998 0.18241 0.0
C406 C 0.60452 0.28262 0.1815 0.0
C407 C 0.58652 0.29859 0.17594 0.0
C408 C 0.57039 0.26866 0.19198 0.0
N409 N 0.59439 0.26378 0.19167 0.0
O410 O 0.52327 0.29321 0.2058 0.0
H411 H 0.5892 0.31587 0.16824 0.0
H412 H 0.55721 0.25698 0.19933 0.0
O413 O 0.55005 0.33443 0.19336 0.0
C414 C 0.51254 0.27397 0.19976 0.0
O415 O 0.51378 0.26797 0.1795 0.0
N416 N 0.5442 0.31817 0.15288 0.0
C417 C 0.54963 0.32996 0.10998 0.0
C418 C 0.54834 0.3482 0.12553 0.0
C419 C 0.5454 0.3419 0.147 0.0
C420 C 0.54603 0.30028 0.13808 0.0
C421 C 0.54901 0.30575 0.11659 0.0
H422 H 0.5428 0.35603 0.15868 0.0
H423 H 0.54436 0.2816 0.14295 0.0
H424 H 0.50729 0.35309 0.19934 0.0
H425 H 0.45217 0.33272 0.15683 0.0
H426 H 0.6237 0.28521 0.17902 0.0
H427 H 0.54837 0.36711 0.12105 0.0
H428 H 0.55022 0.29109 0.10518 0.0
C429 C 0.81054 0.48782 0.17357 0.0
C430 C 0.79309 0.4702 0.17454 0.0
N431 N 0.77489 0.47823 0.18701 0.0
N432 N 0.80343 0.50693 0.18533 0.0
C433 C 0.78172 0.50051 0.19346 0.0
H434 H 0.82719 0.48699 0.16454 0.0
Co435 Co 0.82061 0.53573 0.18742 0.0
C436 C 0.79127 0.56578 0.21646 0.0
O437 O 0.80992 0.56797 0.22927 0.0
N438 N 0.83793 0.5653 0.18946 0.0
C439 C 0.84552 0.60471 0.18698 0.0
C440 C 0.82991 0.58657 0.18148 0.0
C441 C 0.85863 0.57118 0.19983 0.0
N442 N 0.86358 0.59511 0.19866 0.0
O443 O 0.83329 0.52474 0.21426 0.0
H444 H 0.81325 0.58898 0.1727 0.0
H445 H 0.86941 0.55848 0.20886 0.0
O446 O 0.7929 0.55206 0.20016 0.0
C447 C 0.8528 0.51342 0.20962 0.0
O448 O 0.86058 0.51404 0.18983 0.0
N449 N 0.80998 0.544 0.16015 0.0
C450 C 0.79834 0.54796 0.11709 0.0
C451 C 0.78017 0.54886 0.13269 0.0
C452 C 0.78636 0.54656 0.15422 0.0
C453 C 0.82789 0.54365 0.14526 0.0
C454 C 0.8225 0.54575 0.12365 0.0
H455 H 0.7721 0.54565 0.16593 0.0
H456 H 0.84643 0.54094 0.15022 0.0
H457 H 0.77074 0.51223 0.20335 0.0
H458 H 0.79379 0.45284 0.16661 0.0
H459 H 0.8435 0.6236 0.18283 0.0
H460 H 0.76128 0.55014 0.12825 0.0
H461 H 0.83709 0.54517 0.11214 0.0
C462 C 0.61777 0.79652 0.16005 0.0
C463 C 0.63585 0.77944 0.16127 0.0
N464 N 0.6304 0.76375 0.17701 0.0
N465 N 0.60088 0.79173 0.1749 0.0
C466 C 0.60912 0.77175 0.18511 0.0
H467 H 0.61687 0.81144 0.14893 0.0
Co468 Co 0.57246 0.80973 0.17881 0.0
C469 C 0.54447 0.77913 0.20788 0.0
O470 O 0.54314 0.79715 0.22148 0.0
N471 N 0.54365 0.82774 0.1827 0.0
C472 C 0.50451 0.83712 0.18261 0.0
C473 C 0.52142 0.82 0.17712 0.0
C474 C 0.53972 0.84979 0.19153 0.0
N475 N 0.51595 0.85596 0.19169 0.0
O476 O 0.58442 0.82037 0.20587 0.0
H477 H 0.51765 0.80271 0.16982 0.0
H478 H 0.55398 0.86111 0.1977 0.0
O479 O 0.55656 0.78164 0.19072 0.0
C480 C 0.59887 0.83759 0.2015 0.0
O481 O 0.6012 0.84442 0.18154 0.0
N482 N 0.56268 0.80128 0.1514 0.0
C483 C 0.55732 0.79366 0.10777 0.0
C484 C 0.55704 0.77407 0.12204 0.0
C485 C 0.55994 0.77827 0.14392 0.0
C486 C 0.56217 0.8205 0.13786 0.0
C487 C 0.55928 0.81713 0.11604 0.0
H488 H 0.56129 0.76302 0.15463 0.0
H489 H 0.56498 0.83853 0.14402 0.0
H490 H 0.59948 0.763 0.19796 0.0
H491 H 0.65188 0.7788 0.15139 0.0
H492 H 0.48517 0.83542 0.18057 0.0
H493 H 0.55586 0.75566 0.11628 0.0
H494 H 0.55926 0.83278 0.10566 0.0
C495 C 0.29721 0.62988 0.18619 0.0
C496 C 0.31588 0.64564 0.18987 0.0
N497 N 0.33653 0.63277 0.19156 0.0
N498 N 0.30593 0.60711 0.18569 0.0
C499 C 0.33003 0.60943 0.18881 0.0
H500 H 0.27842 0.63474 0.184 0.0
Co501 Co 0.28664 0.5799 0.18193 0.0
C502 C 0.3144 0.54986 0.21441 0.0
O503 O 0.29922 0.55247 0.23036 0.0
N504 N 0.26682 0.55257 0.17829 0.0
C505 C 0.24152 0.52568 0.16439 0.0
C506 C 0.25696 0.54448 0.15996 0.0
C507 C 0.25689 0.53855 0.19362 0.0
N508 N 0.24136 0.52206 0.18563 0.0
O509 O 0.26921 0.58868 0.20741 0.0
H510 H 0.26003 0.55233 0.14441 0.0
H511 H 0.26036 0.54093 0.21043 0.0
O512 O 0.31023 0.56017 0.19663 0.0
C513 C 0.24872 0.59742 0.20188 0.0
O514 O 0.2426 0.59644 0.18164 0.0
N515 N 0.30214 0.57344 0.15609 0.0
C516 C 0.32027 0.56757 0.11492 0.0
C517 C 0.32476 0.55006 0.13069 0.0
C518 C 0.31542 0.55329 0.15125 0.0
C519 C 0.29757 0.59052 0.14099 0.0
C520 C 0.30655 0.58803 0.12038 0.0
H521 H 0.31824 0.53926 0.16298 0.0
H522 H 0.28637 0.60597 0.1449 0.0
H523 H 0.34249 0.59431 0.18937 0.0
H524 H 0.31439 0.66512 0.19094 0.0
H525 H 0.2304 0.51622 0.15293 0.0
H526 H 0.33512 0.53391 0.12713 0.0
H527 H 0.302 0.60166 0.10863 0.0
H528 H 0.032 0.25205 0.40533 0.0
H529 H 0.03234 0.24639 0.44404 0.0
H530 H 0.08826 0.30006 0.44987 0.0
H531 H 0.08856 0.30532 0.41115 0.0
H532 H 0.09525 0.25861 0.47606 0.0
H533 H 1.00265 0.29742 0.48424 0.0
H534 H 1.00575 0.27217 0.46639 0.0
H535 H 0.02012 0.30032 0.46007 0.0
C536 C 0.04473 0.26229 0.41479 0.0
C537 C 0.06016 0.27927 0.40515 0.0
C538 C 0.04469 0.25923 0.43694 0.0
C539 C 0.06002 0.27312 0.44983 0.0
C540 C 0.07617 0.28928 0.4402 0.0
H541 H 0.08867 0.31417 0.57722 0.0
H542 H 0.08858 0.30432 0.53934 0.0
C543 C 0.07622 0.29237 0.41809 0.0
C544 C 0.05867 0.27172 0.4734 0.0
H545 H 0.0226 0.28615 0.51579 0.0
C546 C 0.0793 0.2644 0.48476 0.0
C547 C 0.03778 0.27919 0.48471 0.0
C548 C 0.01533 0.2879 0.47332 0.0
C549 C 0.07979 0.26488 0.50714 0.0
C550 C 0.05925 0.27329 0.51841 0.0
C551 C 0.03829 0.27967 0.50709 0.0
C552 C 0.05993 0.27793 0.54168 0.0
C553 C 0.1024 0.25665 0.51851 0.0
C554 C 0.04354 0.26666 0.55557 0.0
C555 C 0.04341 0.27244 0.57733 0.0
C556 C 0.0594 0.28988 0.58542 0.0
C557 C 0.0759 0.30091 0.57144 0.0
C558 C 0.0761 0.29506 0.54982 0.0
H559 H 0.11307 0.24384 0.50858 0.0
H560 H 0.11393 0.27257 0.52184 0.0
H561 H 0.09801 0.24778 0.53391 0.0
H562 H 0.03076 0.25355 0.54954 0.0
H563 H 0.03042 0.26375 0.58771 0.0
H564 H 0.7873 0.06509 0.58524 0.0
H565 H 0.79211 0.06208 0.54702 0.0
H566 H 0.86498 0.03564 0.55542 0.0
H567 H 0.85943 0.03596 0.59396 0.0
H568 H 0.81962 0.08485 0.52171 0.0
H569 H 0.84256 0.98756 0.5136 0.0
H570 H 0.83243 1.00043 0.53843 0.0
H571 H 0.86341 1.00374 0.5301 0.0
C572 C 0.80412 0.05776 0.57919 0.0
C573 C 0.8228 0.05037 0.59302 0.0
C574 C 0.80699 0.05648 0.55714 0.0
C575 C 0.8288 0.04833 0.54819 0.0
C576 C 0.84772 0.04138 0.56184 0.0
H577 H 0.83884 0.0762 0.40981 0.0
H578 H 0.84894 0.07739 0.4477 0.0
C579 C 0.84463 0.04201 0.58399 0.0
C580 C 0.83153 0.04787 0.52459 0.0
H581 H 0.84421 1.01111 0.48228 0.0
C582 C 0.82498 0.0687 0.51309 0.0
C583 C 0.83854 0.0268 0.51331 0.0
C584 C 0.84441 1.00331 0.52447 0.0
C585 C 0.82403 0.06875 0.49074 0.0
C586 C 0.83118 0.04773 0.47942 0.0
C587 C 0.83886 0.02726 0.49092 0.0
C588 C 0.82821 0.04558 0.45592 0.0
C589 C 0.81395 0.09087 0.47969 0.0
C590 C 0.81475 0.02633 0.4476 0.0
C591 C 0.80984 0.025 0.42584 0.0
C592 C 0.81773 0.04324 0.41183 0.0
C593 C 0.83228 0.06189 0.42003 0.0
C594 C 0.83775 0.06283 0.44182 0.0
H595 H 0.80347 0.10253 0.49081 0.0
H596 H 0.82907 0.1018 0.4733 0.0
H597 H 0.80193 0.08577 0.46626 0.0
H598 H 0.80742 1.01257 0.45803 0.0
H599 H 0.79946 1.00978 0.42013 0.0
H600 H 0.09072 0.79579 0.58575 0.0
H601 H 0.08806 0.8008 0.54708 0.0
H602 H 0.0325 0.85493 0.55527 0.0
H603 H 0.03488 0.84989 0.594 0.0
H604 H 0.04378 0.79206 0.52482 0.0
H605 H 0.07882 0.88481 0.51022 0.0
H606 H 0.08561 0.8681 0.53426 0.0
H607 H 0.05636 0.88167 0.53078 0.0
C608 C 0.07816 0.80899 0.57934 0.0
C609 C 0.06294 0.82236 0.59293 0.0
C610 C 0.07671 0.81188 0.55727 0.0
C611 C 0.06017 0.8283 0.54836 0.0
C612 C 0.04567 0.84245 0.56186 0.0
H613 H 0.02413 0.84905 0.41286 0.0
H614 H 0.02399 0.85259 0.45193 0.0
C615 C 0.04709 0.83957 0.58399 0.0
C616 C 0.05658 0.82878 0.52499 0.0
H617 H 0.0637 0.86352 0.48043 0.0
C618 C 0.04808 0.80771 0.51512 0.0
C619 C 0.06187 0.84933 0.51246 0.0
C620 C 0.07133 0.87227 0.52236 0.0
C621 C 0.04514 0.80646 0.49296 0.0
C622 C 0.05129 0.82668 0.48032 0.0
C623 C 0.05904 0.84806 0.49021 0.0
C624 C 0.05148 0.8252 0.45677 0.0
C625 C 0.03556 0.78344 0.48326 0.0
C626 C 0.06727 0.80898 0.44666 0.0
C627 C 0.06743 0.80695 0.42452 0.0
C628 C 0.05182 0.82116 0.41196 0.0
C629 C 0.03634 0.83783 0.4221 0.0
C630 C 0.03621 0.83985 0.44437 0.0
H631 H 0.0253 0.77259 0.49508 0.0
H632 H 0.02362 0.78737 0.46944 0.0
H633 H 0.05096 0.77226 0.47756 0.0
H634 H 0.07961 0.79792 0.45593 0.0
H635 H 0.08009 0.79446 0.41723 0.0
H636 H 0.26495 0.08277 0.58907 0.0
H637 H 0.25905 0.08159 0.55023 0.0
H638 H 0.30889 0.02162 0.54578 0.0
H639 H 0.31457 0.02245 0.58434 0.0
H640 H 0.29611 0.08738 0.51961 0.0
H641 H 0.25073 0.99896 0.51018 0.0
H642 H 0.25199 0.01479 0.53536 0.0
H643 H 0.27749 0.99729 0.52632 0.0
C644 C 0.27439 0.06917 0.57979 0.0
C645 C 0.29036 0.05283 0.58969 0.0
C646 C 0.27103 0.06853 0.55766 0.0
C647 C 0.28325 0.05127 0.54521 0.0
C648 C 0.29893 0.03478 0.55513 0.0
H649 H 0.33796 0.04541 0.41996 0.0
H650 H 0.32874 0.04459 0.45807 0.0
C651 C 0.30241 0.03551 0.57714 0.0
C652 C 0.28134 0.0515 0.52168 0.0
H653 H 0.27001 0.01514 0.47882 0.0
C654 C 0.28998 0.07178 0.51068 0.0
C655 C 0.27317 0.03117 0.51007 0.0
C656 C 0.26259 1.0094 0.52107 0.0
C657 C 0.29198 0.0717 0.48839 0.0
C658 C 0.28528 0.05079 0.47691 0.0
C659 C 0.27535 0.03103 0.48776 0.0
C660 C 0.29015 0.04874 0.45384 0.0
C661 C 0.30195 0.0937 0.47726 0.0
C662 C 0.27135 0.05051 0.43892 0.0
C663 C 0.27657 0.05111 0.41708 0.0
C664 C 0.30067 0.04988 0.40993 0.0
C665 C 0.31927 0.04677 0.42498 0.0
C666 C 0.31404 0.04625 0.44673 0.0
H667 H 0.30159 0.10992 0.48771 0.0
H668 H 0.32098 0.09013 0.47257 0.0
H669 H 0.29151 0.09766 0.46253 0.0
H670 H 0.25279 0.05239 0.4442 0.0
H671 H 0.26187 0.05375 0.4059 0.0
H672 H 0.58379 0.81639 0.90819 0.0
H673 H 0.58425 0.81171 0.94696 0.0
H674 H 0.53025 0.75594 0.94241 0.0
H675 H 0.52953 0.76063 0.9036 0.0
H676 H 0.54283 0.81933 0.97248 0.0
H677 H 0.5807 0.72689 0.98387 0.0
H678 H 0.58435 0.74361 0.95933 0.0
H679 H 0.556 0.72947 0.96535 0.0
C680 C 0.57217 0.80297 0.91542 0.0
C681 C 0.55657 0.78894 0.90282 0.0
C682 C 0.57252 0.80025 0.93755 0.0
C683 C 0.55742 0.78337 0.94752 0.0
C684 C 0.54238 0.76876 0.93499 0.0
H685 H 0.52926 0.76246 0.08431 0.0
H686 H 0.52813 0.75833 0.04527 0.0
C687 C 0.54202 0.77146 0.91281 0.0
C688 C 0.55597 0.78266 0.9711 0.0
H689 H 0.56696 0.74734 0.01477 0.0
C690 C 0.54809 0.80358 0.98172 0.0
C691 C 0.56256 0.76198 0.98307 0.0
C692 C 0.57156 0.73922 0.97241 0.0
C693 C 0.5469 0.80452 0.00402 0.0
C694 C 0.55417 0.78412 0.01604 0.0
C695 C 0.56143 0.76294 0.00546 0.0
C696 C 0.55572 0.78518 0.03958 0.0
C697 C 0.53787 0.82737 0.01455 0.0
C698 C 0.57202 0.80113 0.0492 0.0
C699 C 0.57272 0.80349 0.07131 0.0
C700 C 0.55714 0.7899 0.08432 0.0
C701 C 0.54143 0.7732 0.0747 0.0
C702 C 0.54074 0.77085 0.05245 0.0
H703 H 0.527 0.83863 0.0034 0.0
H704 H 0.52667 0.82318 0.02877 0.0
H705 H 0.55357 0.83826 0.01985 0.0
H706 H 0.58409 0.81196 0.03955 0.0
H707 H 0.5855 0.81603 0.07823 0.0
H708 H 0.3021 0.58385 0.9164 0.0
H709 H 0.30779 0.58624 0.95501 0.0
H710 H 0.36358 0.53165 0.95137 0.0
H711 H 0.35814 0.5294 0.91265 0.0
H712 H 0.29971 0.54828 0.9817 0.0
H713 H 0.39374 0.58134 0.99133 0.0
H714 H 0.37743 0.58371 0.96647 0.0
H715 H 0.39075 0.55539 0.97432 0.0
C716 C 0.31584 0.57265 0.92381 0.0
C717 C 0.32964 0.55641 0.91156 0.0
C718 C 0.3191 0.57405 0.94583 0.0
C719 C 0.33619 0.55923 0.95605 0.0
C720 C 0.35063 0.5436 0.94378 0.0
H721 H 0.31969 0.52578 0.09142 0.0
H722 H 0.32698 0.52158 0.05312 0.0
C723 C 0.34749 0.54231 0.92167 0.0
C724 C 0.33713 0.55861 0.97966 0.0
H725 H 0.37365 0.56823 0.02273 0.0
C726 C 0.31589 0.55262 0.99067 0.0
C727 C 0.35824 0.56435 0.9913 0.0
C728 C 0.3813 0.57177 0.9803 0.0
C729 C 0.31505 0.55248 0.01299 0.0
C730 C 0.33623 0.55789 0.02467 0.0
C731 C 0.35755 0.56376 0.0137 0.0
C732 C 0.3359 0.55924 0.04826 0.0
C733 C 0.29123 0.54734 0.02384 0.0
C734 C 0.33989 0.58147 0.05838 0.0
C735 C 0.3361 0.58385 0.08029 0.0
C736 C 0.3282 0.56403 0.09249 0.0
C737 C 0.3258 0.54139 0.08252 0.0
C738 C 0.32972 0.53901 0.0606 0.0
H739 H 0.27572 0.54905 0.01268 0.0
H740 H 0.29144 0.52858 0.03011 0.0
H741 H 0.28822 0.55985 0.03744 0.0
H742 H 0.34486 0.59726 0.04918 0.0
H743 H 0.3386 0.60142 0.08757 0.0
H744 H 0.52797 0.30618 0.91443 0.0
H745 H 0.52582 0.31595 0.95237 0.0
H746 H 0.58007 0.3709 0.94393 0.0
H747 H 0.58269 0.36086 0.90591 0.0
H748 H 0.59042 0.33827 0.97659 0.0
H749 H 0.49705 0.37339 0.98474 0.0
H750 H 0.49833 0.34507 0.97082 0.0
H751 H 0.51231 0.37134 0.95932 0.0
C752 C 0.53926 0.32053 0.9206 0.0
C753 C 0.55553 0.33272 0.9072 0.0
C754 C 0.53783 0.32626 0.94224 0.0
C755 C 0.55255 0.34438 0.9509 0.0
C756 C 0.56839 0.35702 0.93749 0.0
H757 H 0.57603 0.36495 0.08937 0.0
H758 H 0.57731 0.37308 0.05086 0.0
C759 C 0.56976 0.35136 0.91578 0.0
C760 C 0.55287 0.34835 0.97427 0.0
H761 H 0.51594 0.3588 0.0169 0.0
C762 C 0.57429 0.34326 0.98543 0.0
C763 C 0.53181 0.35488 0.9857 0.0
C764 C 0.50864 0.36172 0.97452 0.0
C765 C 0.5748 0.343 0.00782 0.0
C766 C 0.5534 0.34837 0.01926 0.0
C767 C 0.53231 0.35464 0.00807 0.0
C768 C 0.55183 0.34498 0.04265 0.0
C769 C 0.59781 0.33556 0.01902 0.0
C770 C 0.53659 0.32703 0.05078 0.0
C771 C 0.53571 0.32249 0.07262 0.0
C772 C 0.55007 0.33582 0.08687 0.0
C773 C 0.56481 0.35436 0.07878 0.0
C774 C 0.56569 0.35889 0.05681 0.0
H775 H 0.61147 0.32809 0.00779 0.0
H776 H 0.60578 0.35154 0.02702 0.0
H777 H 0.594 0.32176 0.03143 0.0
H778 H 0.52564 0.31619 0.04014 0.0
H779 H 0.52374 0.30847 0.07836 0.0
H780 H 0.76623 0.57731 0.09594 0.0
H781 H 0.75773 0.57797 0.0575 0.0
H782 H 0.80846 0.51952 0.04804 0.0
H783 H 0.81672 0.51851 0.08625 0.0
H784 H 0.79243 0.5866 0.02569 0.0
H785 H 0.74916 0.49751 0.01387 0.0
H786 H 0.75158 0.51168 0.03974 0.0
H787 H 0.77693 0.49556 0.0286 0.0
C788 C 0.77527 0.56439 0.08567 0.0
C789 C 0.79225 0.54797 0.09406 0.0
C790 C 0.77043 0.5648 0.06376 0.0
C791 C 0.78219 0.54854 0.05 0.0
C792 C 0.79883 0.53189 0.05842 0.0
H793 H 0.83076 0.55018 0.92317 0.0
H794 H 0.82301 0.5476 0.96145 0.0
C795 C 0.80377 0.53157 0.08022 0.0
C796 C 0.77889 0.55016 0.02662 0.0
H797 H 0.76631 0.51614 0.98256 0.0
C798 C 0.78625 0.57138 0.01628 0.0
C799 C 0.77068 0.53032 0.01439 0.0
C800 C 0.76141 0.50756 0.02472 0.0
C801 C 0.78701 0.57274 0.99397 0.0
C802 C 0.78032 0.55236 0.98178 0.0
C803 C 0.77162 0.53164 0.99203 0.0
C804 C 0.78428 0.55178 0.95851 0.0
C805 C 0.79577 0.59566 0.98352 0.0
C806 C 0.76491 0.55428 0.94425 0.0
C807 C 0.76929 0.55593 0.9223 0.0
C808 C 0.7931 0.55504 0.9144 0.0
C809 C 0.81227 0.55135 0.92878 0.0
C810 C 0.80789 0.54979 0.95062 0.0
H811 H 0.79568 0.61118 0.99476 0.0
H812 H 0.81455 0.59289 0.97776 0.0
H813 H 0.78434 0.60026 0.96952 0.0
H814 H 0.74656 0.5558 0.95014 0.0
H815 H 0.75417 0.55895 0.91165 0.0
H816 H 0.07045 0.23629 0.30902 0.0
H817 H 0.10209 0.20555 0.30767 0.0
H818 H 0.12492 0.23222 0.24632 0.0
H819 H 0.09368 0.26367 0.24785 0.0
H820 H 0.11428 0.16864 0.28087 0.0
H821 H 0.18646 0.23836 0.28062 0.0
H822 H 0.15517 0.24577 0.28546 0.0
H823 H 0.1656 0.24017 0.25875 0.0
C824 C 0.08198 0.23557 0.29511 0.0
C825 C 0.07967 0.25279 0.27871 0.0
C826 C 0.10011 0.21787 0.29435 0.0
C827 C 0.11634 0.21689 0.27715 0.0
C828 C 0.11308 0.233 0.26005 0.0
H829 H 0.25265 0.13258 0.27555 0.0
H830 H 0.21676 0.15417 0.26189 0.0
C831 C 0.09502 0.25086 0.26087 0.0
C832 C 0.13726 0.19981 0.27788 0.0
H833 H 0.19898 0.19777 0.28111 0.0
C834 C 0.1328 0.17501 0.28069 0.0
C835 C 0.1615 0.20804 0.27765 0.0
C836 C 0.16758 0.23454 0.27564 0.0
C837 C 0.15181 0.1584 0.28382 0.0
C838 C 0.17593 0.16678 0.28432 0.0
C839 C 0.18048 0.19136 0.28059 0.0
C840 C 0.19639 0.15105 0.29122 0.0
C841 C 0.1459 0.13204 0.28695 0.0
C842 C 0.19675 0.14195 0.31209 0.0
C843 C 0.21714 0.12987 0.31986 0.0
C844 C 0.23766 0.12652 0.30695 0.0
C845 C 0.23697 0.13468 0.28573 0.0
C846 C 0.21657 0.1471 0.27799 0.0
H847 H 0.12813 0.12742 0.2798 0.0
H848 H 0.16004 0.12024 0.27983 0.0
H849 H 0.14494 0.1281 0.30428 0.0
H850 H 0.18163 0.14511 0.32273 0.0
H851 H 0.21719 0.12373 0.33626 0.0
H852 H 0.80483 0.1182 0.28212 0.0
H853 H 0.83697 0.1474 0.27538 0.0
H854 H 0.88834 0.09959 0.30577 0.0
H855 H 0.85642 0.06972 0.31112 0.0
H856 H 0.85636 0.16963 0.30613 0.0
H857 H 0.93156 0.12717 0.26181 0.0
H858 H 0.90198 0.1136 0.26325 0.0
H859 H 0.9235 0.10926 0.28451 0.0
C860 C 0.82327 0.11344 0.2863 0.0
C861 C 0.82825 0.09166 0.2969 0.0
C862 C 0.84162 0.13024 0.28266 0.0
C863 C 0.86523 0.12589 0.29009 0.0
C864 C 0.87053 0.10331 0.2994 0.0
H865 H 0.95311 0.23748 0.34521 0.0
H866 H 0.92648 0.20366 0.33703 0.0
C867 C 0.85222 0.08619 0.30252 0.0
C868 C 0.88281 0.14628 0.29132 0.0
H869 H 0.94184 0.16215 0.28318 0.0
C870 C 0.87493 0.16799 0.30075 0.0
C871 C 0.9071 0.14447 0.28426 0.0
C872 C 0.91644 0.12244 0.27269 0.0
C873 C 0.89061 0.18754 0.30382 0.0
C874 C 0.91524 0.18517 0.29806 0.0
C875 C 0.92306 0.16384 0.28795 0.0
C876 C 0.93306 0.20449 0.30301 0.0
C877 C 0.88047 0.21063 0.31314 0.0
C878 C 0.94658 0.21556 0.28677 0.0
C879 C 0.96211 0.23484 0.29149 0.0
C880 C 0.96429 0.24342 0.31252 0.0
C881 C 0.95137 0.23171 0.32879 0.0
C882 C 0.93613 0.21235 0.32412 0.0
H883 H 0.86072 0.21227 0.31018 0.0
H884 H 0.88327 0.21057 0.33065 0.0
H885 H 0.88953 0.22678 0.30637 0.0
H886 H 0.94465 0.20971 0.27038 0.0
H887 H 0.97184 0.24349 0.27862 0.0
H888 H 0.85521 0.94639 0.33713 0.0
H889 H 0.89487 0.92848 0.33049 0.0
H890 H 0.9074 0.97998 0.28014 0.0
H891 H 0.86726 0.99795 0.28656 0.0
H892 H 0.9185 0.92885 0.27001 0.0
H893 H 0.96101 0.96019 0.34514 0.0
H894 H 0.93224 0.94576 0.34867 0.0
H895 H 0.93393 0.97386 0.33437 0.0
C896 C 0.86629 0.9539 0.32457 0.0
C897 C 0.85799 0.97357 0.31232 0.0
C898 C 0.88906 0.94373 0.32091 0.0
C899 C 0.90415 0.95298 0.30493 0.0
C900 C 0.89604 0.97262 0.2926 0.0
H901 H 0.05515 0.90762 0.30022 0.0
H902 H 0.0183 0.93178 0.29734 0.0
C903 C 0.87321 0.98296 0.29638 0.0
C904 C 0.92825 0.94177 0.30121 0.0
H905 H 0.98167 0.9291 0.32614 0.0
C906 C 0.93246 0.92911 0.28215 0.0
C907 C 0.9465 0.94231 0.31698 0.0
C908 C 0.94337 0.95644 0.33738 0.0
C909 C 0.95415 0.91622 0.2788 0.0
C910 C 0.97193 0.91581 0.29503 0.0
C911 C 0.96801 0.92924 0.31374 0.0
C912 C 0.99452 0.90117 0.29341 0.0
C913 C 0.95781 0.90315 0.25794 0.0
C914 C 0.99357 0.87586 0.29158 0.0
C915 C 0.01472 0.8619 0.29313 0.0
C916 C 0.03721 0.87296 0.29682 0.0
C917 C 0.03819 0.89839 0.29751 0.0
C918 C 0.01709 0.9123 0.29591 0.0
H919 H 0.94621 0.91085 0.24515 0.0
H920 H 0.97699 0.90397 0.25275 0.0
H921 H 0.95286 0.88386 0.25998 0.0
H922 H 0.97636 0.86679 0.28997 0.0
H923 H 0.01325 0.84242 0.29236 0.0
H924 H 0.26033 0.0408 0.30059 0.0
H925 H 0.2292 1.0095 0.29722 0.0
H926 H 0.28439 0.95646 0.28342 0.0
H927 H 0.31551 0.98739 0.28754 0.0
H928 H 0.21371 0.9733 0.26812 0.0
H929 H 0.25659 0.93371 0.34022 0.0
H930 H 0.26447 0.96319 0.33021 0.0
H931 H 0.2767 0.93641 0.31791 0.0
C932 C 0.26572 0.02262 0.29615 0.0
C933 C 0.29033 0.01641 0.29459 0.0
C934 C 0.24793 1.00473 0.2943 0.0
C935 C 0.25454 0.98051 0.29064 0.0
C936 C 0.27892 0.97491 0.28677 0.0
H937 H 0.15442 0.85636 0.28403 0.0
H938 H 0.18307 0.88829 0.27383 0.0
C939 C 0.29667 0.99262 0.28899 0.0
C940 C 0.23664 0.96077 0.29358 0.0
H941 H 0.22445 0.91194 0.32507 0.0
C942 C 0.21603 0.95981 0.28051 0.0
C943 C 0.2395 0.94341 0.31001 0.0
C944 C 0.26036 0.94428 0.32554 0.0
C945 C 0.19826 0.9419 0.28342 0.0
C946 C 0.20142 0.92431 0.29962 0.0
C947 C 0.22211 0.92527 0.31254 0.0
C948 C 0.18287 0.90575 0.30474 0.0
C949 C 0.17594 0.94241 0.26962 0.0
C950 C 0.17341 0.90474 0.32548 0.0
C951 C 0.15747 0.88644 0.33135 0.0
C952 C 0.15047 0.86862 0.31663 0.0
C953 C 0.15943 0.86989 0.29567 0.0
C954 C 0.17568 0.8882 0.28981 0.0
H955 H 0.17366 0.96008 0.26142 0.0
H956 H 0.17746 0.92814 0.25725 0.0
H957 H 0.1595 0.93875 0.27924 0.0
H958 H 0.17856 0.91807 0.33727 0.0
H959 H 0.15051 0.88633 0.34747 0.0
H960 H 0.23973 0.98773 0.71934 0.0
H961 H 0.20608 0.96291 0.73191 0.0
H962 H 0.22421 0.90834 0.68542 0.0
H963 H 0.2584 0.93236 0.67354 0.0
H964 H 0.16698 0.94982 0.71048 0.0
H965 H 0.21381 0.86671 0.73655 0.0
H966 H 0.22985 0.89439 0.73116 0.0
H967 H 0.2221 0.87412 0.70973 0.0
C968 C 0.237 0.97016 0.71218 0.0
C969 C 0.25187 0.96214 0.69535 0.0
C970 C 0.21758 0.95605 0.71928 0.0
C971 C 0.21269 0.93356 0.70982 0.0
C972 C 0.22784 0.92532 0.69337 0.0
H973 H 0.07983 0.86014 0.68904 0.0
H974 H 0.11319 0.88852 0.69073 0.0
C975 C 0.24727 0.9393 0.68636 0.0
C976 C 0.19079 0.91948 0.71586 0.0
H977 H 0.17156 0.86234 0.72742 0.0
C978 C 0.16803 0.93078 0.71454 0.0
C979 C 0.192 0.89473 0.7216 0.0
C980 C 0.2158 0.88188 0.72508 0.0
C981 C 0.14652 0.91775 0.71763 0.0
C982 C 0.14771 0.89255 0.72158 0.0
C983 C 0.1705 0.88156 0.72408 0.0
C984 C 0.12578 0.87693 0.72179 0.0
C985 C 0.12276 0.93119 0.71653 0.0
C986 C 0.12163 0.86064 0.7386 0.0
C987 C 0.10263 0.84398 0.73752 0.0
C988 C 0.08738 0.84322 0.71957 0.0
C989 C 0.09102 0.86021 0.70318 0.0
C990 C 0.1101 0.87667 0.70419 0.0
H991 H 0.12494 0.95038 0.72138 0.0
H992 H 0.11611 0.93109 0.69984 0.0
H993 H 0.10888 0.92274 0.72688 0.0
H994 H 0.13351 0.86038 0.75233 0.0
H995 H 0.10045 0.83115 0.75041 0.0
H996 H 0.12379 0.24827 0.7115 0.0
H997 H 0.14536 0.21048 0.71918 0.0
H998 H 0.18816 0.21981 0.66235 0.0
H999 H 0.16629 0.257 0.65421 0.0
H1000 H 0.17004 0.17396 0.66597 0.0
H1001 H 0.21439 0.20147 0.74156 0.0
H1002 H 0.18211 0.20527 0.74112 0.0
H1003 H 0.20063 0.22299 0.72358 0.0
C1004 C 0.13772 0.24227 0.70059 0.0
C1005 C 0.1433 0.2559 0.68227 0.0
C1006 C 0.15026 0.22076 0.70514 0.0
C1007 C 0.16869 0.21246 0.69153 0.0
C1008 C 0.17417 0.22592 0.6732 0.0
H1009 H 0.27946 0.1021 0.70533 0.0
H1010 H 0.25619 0.13984 0.70479 0.0
C1011 C 0.1617 0.24736 0.66865 0.0
C1012 C 0.18175 0.18931 0.69574 0.0
H1013 H 0.21924 0.16054 0.73108 0.0
C1014 C 0.18073 0.17102 0.68025 0.0
C1015 C 0.19595 0.18556 0.71425 0.0
C1016 C 0.19859 0.2049 0.73103 0.0
C1017 C 0.19344 0.14914 0.68272 0.0
C1018 C 0.20727 0.14518 0.7014 0.0
C1019 C 0.20842 0.16348 0.71689 0.0
C1020 C 0.22126 0.1224 0.70461 0.0
C1021 C 0.19244 0.1307 0.66501 0.0
C1022 C 0.2094 0.10005 0.70563 0.0
C1023 C 0.22264 0.07842 0.70585 0.0
C1024 C 0.24809 0.07866 0.70512 0.0
C1025 C 0.25993 0.10115 0.70562 0.0
C1026 C 0.24663 0.1228 0.70536 0.0
H1027 H 0.18583 0.13873 0.64984 0.0
H1028 H 0.21054 0.12255 0.66216 0.0
H1029 H 0.17987 0.116 0.66959 0.0
H1030 H 0.18983 0.0993 0.70553 0.0
H1031 H 0.21284 0.06151 0.70569 0.0
H1032 H 0.88186 0.12618 0.70967 0.0
H1033 H 0.91623 0.15229 0.71776 0.0
H1034 H 0.88258 0.21042 0.68259 0.0
H1035 H 0.84851 0.18408 0.674 0.0
H1036 H 0.92764 0.20488 0.67043 0.0
H1037 H 0.92631 0.20681 0.75869 0.0
H1038 H 0.92767 0.17666 0.74823 0.0
H1039 H 0.90145 0.1952 0.7432 0.0
C1040 C 0.88154 0.14468 0.70406 0.0
C1041 C 0.86245 0.15306 0.69117 0.0
C1042 C 0.90121 0.15965 0.70875 0.0
C1043 C 0.90198 0.1835 0.70101 0.0
C1044 C 0.88249 0.19211 0.68875 0.0
H1045 H 1.00221 0.29821 0.7326 0.0
H1046 H 0.96895 0.26929 0.73178 0.0
C1047 C 0.86301 0.17706 0.68383 0.0
C1048 C 0.92377 0.19888 0.70419 0.0
H1049 H 0.96177 0.22227 0.74189 0.0
C1050 C 0.93501 0.20873 0.68609 0.0
C1051 C 0.93337 0.20413 0.72461 0.0
C1052 C 0.92144 0.19535 0.7448 0.0
C1053 C 0.95545 0.22357 0.68777 0.0
C1054 C 0.96557 0.22814 0.70812 0.0
C1055 C 0.95428 0.21845 0.72627 0.0
C1056 C 0.98709 0.24397 0.71083 0.0
C1057 C 0.96553 0.2348 0.66772 0.0
C1058 C 1.00886 0.23889 0.70014 0.0
C1059 C 0.02788 0.25552 0.70043 0.0
C1060 C 0.02568 0.27738 0.71173 0.0
C1061 C 1.00457 0.28155 0.72374 0.0
C1062 C 0.98546 0.26504 0.72325 0.0
H1063 H 0.95202 0.23495 0.6546 0.0
H1064 H 0.97149 0.25366 0.67061 0.0
H1065 H 0.98137 0.22409 0.66225 0.0
H1066 H 1.01086 0.22242 0.69097 0.0
H1067 H 0.04399 0.25161 0.69121 0.0
H1068 H 0.97906 0.85807 0.72213 0.0
H1069 H 0.95541 0.8942 0.73157 0.0
H1070 H 0.93861 0.90544 0.66513 0.0
H1071 H 0.96151 0.86915 0.65581 0.0
H1072 H 0.95989 0.9402 0.72212 0.0
H1073 H 0.87243 0.90994 0.68972 0.0
H1074 H 0.89785 0.88968 0.69261 0.0
H1075 H 0.89522 0.90885 0.66945 0.0
C1076 C 0.97022 0.86825 0.7096 0.0
C1077 C 0.97186 0.86059 0.68827 0.0
C1078 C 0.95667 0.88886 0.71499 0.0
C1079 C 0.94463 0.90227 0.69914 0.0
C1080 C 0.94691 0.89497 0.67777 0.0
H1081 H 0.90363 0.0511 0.69623 0.0
H1082 H 0.92462 1.01255 0.69908 0.0
C1083 C 0.96011 0.87425 0.67243 0.0
C1084 C 0.93039 0.92435 0.70466 0.0
H1085 H 0.87672 0.95293 0.69471 0.0
C1086 C 0.94157 0.94284 0.71638 0.0
C1087 C 0.90621 0.92768 0.69775 0.0
C1088 C 0.89216 0.90784 0.68691 0.0
C1089 C 0.92975 0.96496 0.72036 0.0
C1090 C 0.90638 0.96906 0.71178 0.0
C1091 C 0.89475 0.95008 0.70105 0.0
C1092 C 0.89423 0.99319 0.71247 0.0
C1093 C 0.9425 0.98359 0.73379 0.0
C1094 C 0.86991 0.99539 0.7188 0.0
C1095 C 0.85761 0.01747 0.71674 0.0
C1096 C 0.8694 0.03788 0.70839 0.0
C1097 C 0.89401 0.03589 0.70296 0.0
C1098 C 0.90616 0.01377 0.70472 0.0
H1099 H 0.95478 0.97483 0.74553 0.0
H1100 H 0.95376 0.99517 0.72333 0.0
H1101 H 0.92948 0.99526 0.74256 0.0
H1102 H 0.86022 0.97981 0.72477 0.0
H1103 H 0.83868 0.01837 0.7211 0.0
H1104 H 0.56724 0.74441 0.80728 0.0
H1105 H 0.59844 0.71323 0.80639 0.0
H1106 H 0.62285 0.73959 0.74541 0.0
H1107 H 0.59207 0.77154 0.74652 0.0
H1108 H 0.61019 0.67622 0.78003 0.0
H1109 H 0.68407 0.74412 0.78008 0.0
H1110 H 0.6529 0.75236 0.78451 0.0
H1111 H 0.66359 0.74626 0.75796 0.0
C1112 C 0.57907 0.74358 0.79357 0.0
C1113 C 0.57731 0.76084 0.77714 0.0
C1114 C 0.59694 0.72562 0.79306 0.0
C1115 C 0.61345 0.72436 0.77609 0.0
C1116 C 0.61079 0.74057 0.75898 0.0
H1117 H 0.74743 0.63616 0.77661 0.0
H1118 H 0.71226 0.65837 0.76222 0.0
C1119 C 0.593 0.75872 0.75955 0.0
C1120 C 0.63396 0.70679 0.77706 0.0
H1121 H 0.69557 0.70325 0.78096 0.0
C1122 C 0.62886 0.68213 0.77999 0.0
C1123 C 0.6584 0.71442 0.77702 0.0
C1124 C 0.66517 0.74073 0.77491 0.0
C1125 C 0.64741 0.6651 0.78348 0.0
C1126 C 0.67171 0.67289 0.78417 0.0
C1127 C 0.67693 0.6973 0.78028 0.0
C1128 C 0.69164 0.65677 0.79152 0.0
C1129 C 0.64082 0.63894 0.78683 0.0
C1130 C 0.69159 0.64831 0.8126 0.0
C1131 C 0.71159 0.63592 0.82078 0.0
C1132 C 0.73207 0.63157 0.80806 0.0
C1133 C 0.73175 0.63904 0.78664 0.0
C1134 C 0.71176 0.6518 0.77849 0.0
H1135 H 0.62294 0.63468 0.77971 0.0
H1136 H 0.65468 0.62672 0.77981 0.0
H1137 H 0.63978 0.63521 0.80419 0.0
H1138 H 0.6765 0.65225 0.82307 0.0
H1139 H 0.7114 0.63035 0.83733 0.0
H1140 H 0.44563 0.74458 0.83963 0.0
H1141 H 0.42275 0.70818 0.83139 0.0
H1142 H 0.4539 0.70655 0.76839 0.0
H1143 H 0.47691 0.74316 0.77651 0.0
H1144 H 0.38874 0.70111 0.80014 0.0
H1145 H 0.46591 0.63762 0.78957 0.0
H1146 H 0.46927 0.667 0.80171 0.0
H1147 H 0.46699 0.66428 0.77323 0.0
C1148 C 0.44758 0.73664 0.82396 0.0
C1149 C 0.46316 0.74693 0.80874 0.0
C1150 C 0.43454 0.7157 0.81931 0.0
C1151 C 0.43679 0.70442 0.79936 0.0
C1152 C 0.45224 0.71461 0.78405 0.0
H1153 H 0.32996 0.59645 0.75929 0.0
H1154 H 0.35759 0.6309 0.75906 0.0
C1155 C 0.46537 0.73559 0.78872 0.0
C1156 C 0.42235 0.68241 0.7946 0.0
H1157 H 0.42685 0.62221 0.78266 0.0
C1158 C 0.39707 0.68388 0.7962 0.0
C1159 C 0.43325 0.65988 0.78967 0.0
C1160 C 0.46035 0.65691 0.7886 0.0
C1161 C 0.3824 0.66348 0.79324 0.0
C1162 C 0.39325 0.64099 0.78809 0.0
C1163 C 0.41853 0.63951 0.78634 0.0
C1164 C 0.37867 0.61854 0.78603 0.0
C1165 C 0.35545 0.66603 0.79645 0.0
C1166 C 0.38218 0.59945 0.80045 0.0
C1167 C 0.36659 0.57959 0.80048 0.0
C1168 C 0.34711 0.57841 0.78607 0.0
C1169 C 0.34464 0.5968 0.7707 0.0
C1170 C 0.36031 0.61664 0.77066 0.0
H1171 H 0.35068 0.68298 0.80501 0.0
H1172 H 0.34637 0.66643 0.78069 0.0
H1173 H 0.34819 0.65049 0.80561 0.0
H1174 H 0.39635 0.6004 0.81235 0.0
H1175 H 0.36926 0.56567 0.81238 0.0
H1176 H 0.51431 0.32427 0.75636 0.0
H1177 H 0.48115 0.35366 0.75569 0.0
H1178 H 0.51636 0.39502 0.80491 0.0
H1179 H 0.54979 0.36616 0.80528 0.0
H1180 H 0.45188 0.36116 0.78929 0.0
H1181 H 0.49265 0.44841 0.76621 0.0
H1182 H 0.50783 0.41983 0.76198 0.0
H1183 H 0.50877 0.43428 0.7877 0.0
C1184 C 0.51538 0.34 0.7666 0.0
C1185 C 0.53466 0.3427 0.78103 0.0
C1186 C 0.49633 0.35676 0.76625 0.0
C1187 C 0.49625 0.37666 0.78017 0.0
C1188 C 0.51614 0.3801 0.79373 0.0
H1189 H 0.37871 0.4453 0.84411 0.0
H1190 H 0.41341 0.42187 0.8319 0.0
C1191 C 0.5352 0.3634 0.79406 0.0
C1192 C 0.47423 0.39203 0.78247 0.0
H1193 H 0.45454 0.45067 0.78494 0.0
C1194 C 0.45242 0.38071 0.78799 0.0
C1195 C 0.47478 0.41754 0.78064 0.0
C1196 C 0.49722 0.43071 0.77359 0.0
C1197 C 0.43152 0.39419 0.79265 0.0
C1198 C 0.43249 0.41974 0.79211 0.0
C1199 C 0.45392 0.43108 0.78561 0.0
C1200 C 0.41177 0.4348 0.79939 0.0
C1201 C 0.40862 0.38096 0.79839 0.0
C1202 C 0.39965 0.45043 0.78531 0.0
C1203 C 0.37955 0.46386 0.79224 0.0
C1204 C 0.37131 0.462 0.81344 0.0
C1205 C 0.38404 0.4468 0.82757 0.0
C1206 C 0.404 0.43341 0.82063 0.0
H1207 H 0.40888 0.36205 0.79239 0.0
H1208 H 0.40681 0.38032 0.816 0.0
H1209 H 0.39248 0.39035 0.79181 0.0
H1210 H 0.40544 0.45186 0.76886 0.0
H1211 H 0.3702 0.47526 0.78088 0.0
H1212 H 0.7528 0.54563 0.7983 0.0
H1213 H 0.71995 0.51636 0.79317 0.0
H1214 H 0.77141 0.45775 0.79734 0.0
H1215 H 0.80408 0.48667 0.80204 0.0
H1216 H 0.73557 0.44893 0.76753 0.0
H1217 H 0.69671 0.47834 0.84526 0.0
H1218 H 0.6994 0.50123 0.82507 0.0
H1219 H 0.72616 0.48792 0.83638 0.0
C1220 C 0.75715 0.52654 0.7975 0.0
C1221 C 0.78101 0.51844 0.80079 0.0
C1222 C 0.73834 0.50981 0.79481 0.0
C1223 C 0.74314 0.48481 0.79536 0.0
C1224 C 0.7672 0.4769 0.79699 0.0
H1225 H 0.67213 0.36129 0.84309 0.0
H1226 H 0.69513 0.39755 0.83497 0.0
C1227 C 0.78588 0.49349 0.79972 0.0
C1228 C 0.72341 0.46659 0.79617 0.0
H1229 H 0.67939 0.44448 0.82902 0.0
C1230 C 0.72299 0.44814 0.78077 0.0
C1231 C 0.70721 0.46541 0.81363 0.0
C1232 C 0.70737 0.48413 0.83115 0.0
C1233 C 0.70747 0.42815 0.78275 0.0
C1234 C 0.69168 0.42673 0.80047 0.0
C1235 C 0.69144 0.44564 0.81541 0.0
C1236 C 0.67709 0.40474 0.80503 0.0
C1237 C 0.70907 0.4081 0.76649 0.0
C1238 C 0.65905 0.39669 0.79098 0.0
C1239 C 0.64592 0.37564 0.79549 0.0
C1240 C 0.65051 0.36225 0.8142 0.0
C1241 C 0.66834 0.37071 0.82834 0.0
C1242 C 0.68141 0.39165 0.82382 0.0
H1243 H 0.72531 0.40979 0.75619 0.0
H1244 H 0.70958 0.39017 0.77447 0.0
H1245 H 0.69284 0.4087 0.75611 0.0
H1246 H 0.65509 0.40669 0.77655 0.0
H1247 H 0.63242 0.3697 0.78419 0.0
H1248 H 0.57004 0.3745 0.18448 0.0
H1249 H 0.60492 0.40136 0.18454 0.0
H1250 H 0.63079 0.36796 0.24235 0.0
H1251 H 0.59619 0.34055 0.24216 0.0
H1252 H 0.62508 0.43457 0.21264 0.0
H1253 H 0.68596 0.3556 0.2004 0.0
H1254 H 0.65354 0.35342 0.1982 0.0
H1255 H 0.66766 0.3541 0.22401 0.0
C1256 C 0.58291 0.37303 0.1974 0.0
C1257 C 0.58045 0.35502 0.21311 0.0
C1258 C 0.60288 0.38848 0.19742 0.0
C1259 C 0.62079 0.38629 0.21315 0.0
C1260 C 0.61749 0.36959 0.22975 0.0
H1261 H 0.74611 0.48372 0.22189 0.0
H1262 H 0.70837 0.46236 0.22955 0.0
C1263 C 0.59756 0.35404 0.22971 0.0
C1264 C 0.6436 0.4003 0.21123 0.0
H1265 H 0.70442 0.39374 0.20339 0.0
C1266 C 0.64247 0.42568 0.21075 0.0
C1267 C 0.66623 0.38866 0.2084 0.0
C1268 C 0.66852 0.36146 0.20757 0.0
C1269 C 0.66332 0.4397 0.20745 0.0
C1270 C 0.68598 0.42803 0.20488 0.0
C1271 C 0.68709 0.40268 0.20551 0.0
C1272 C 0.7086 0.44158 0.20031 0.0
C1273 C 0.66078 0.46682 0.20599 0.0
C1274 C 0.72157 0.43673 0.18154 0.0
C1275 C 0.74318 0.44878 0.1772 0.0
C1276 C 0.75242 0.46597 0.19155 0.0
C1277 C 0.73938 0.47085 0.21035 0.0
C1278 C 0.71775 0.45868 0.21474 0.0
H1279 H 0.64173 0.47245 0.20319 0.0
H1280 H 0.66684 0.47505 0.2212 0.0
H1281 H 0.67218 0.47415 0.19295 0.0
H1282 H 0.71489 0.42364 0.17015 0.0
H1283 H 0.75248 0.44479 0.16243 0.0
H1284 H 0.74952 0.5666 0.19283 0.0
H1285 H 0.72008 0.59952 0.19025 0.0
H1286 H 0.75678 0.63763 0.2406 0.0
H1287 H 0.78673 0.60504 0.24293 0.0
H1288 H 0.68816 0.62263 0.21842 0.0
H1289 H 0.76003 0.68504 0.19057 0.0
H1290 H 0.76465 0.65282 0.19252 0.0
H1291 H 0.76563 0.67132 0.21606 0.0
C1292 C 0.75127 0.58185 0.2035 0.0
C1293 C 0.77083 0.58331 0.2178 0.0
C1294 C 0.73432 0.60065 0.20206 0.0
C1295 C 0.73652 0.62133 0.21488 0.0
C1296 C 0.75502 0.6221 0.23021 0.0
H1297 H 0.63105 0.74159 0.21584 0.0
H1298 H 0.65583 0.70674 0.22647 0.0
C1299 C 0.77203 0.60332 0.23163 0.0
C1300 C 0.72044 0.6426 0.21116 0.0
H1301 H 0.72093 0.70147 0.19455 0.0
C1302 C 0.69531 0.63993 0.21333 0.0
C1303 C 0.72975 0.66508 0.2042 0.0
C1304 C 0.75645 0.6688 0.20049 0.0
C1305 C 0.67926 0.65907 0.20868 0.0
C1306 C 0.68863 0.6816 0.20192 0.0
C1307 C 0.71376 0.68427 0.19989 0.0
C1308 C 0.67276 0.70224 0.1956 0.0
C1309 C 0.65242 0.65478 0.21035 0.0
C1310 C 0.67418 0.71154 0.17482 0.0
C1311 C 0.66013 0.73144 0.16874 0.0
C1312 C 0.64433 0.7427 0.18331 0.0
C1313 C 0.64276 0.73324 0.20412 0.0
C1314 C 0.65692 0.71327 0.21022 0.0
H1315 H 0.64807 0.63521 0.21107 0.0
H1316 H 0.64548 0.66342 0.22512 0.0
H1317 H 0.64274 0.66293 0.19659 0.0
H1318 H 0.68621 0.70333 0.16323 0.0
H1319 H 0.66157 0.73788 0.15251 0.0
H1320 H 0.50632 0.77401 0.23524 0.0
H1321 H 0.47539 0.74273 0.23458 0.0
H1322 H 0.51415 0.70542 0.18469 0.0
H1323 H 0.54493 0.73704 0.1849 0.0
H1324 H 0.46831 0.71187 0.17399 0.0
H1325 H 0.47048 0.67465 0.25569 0.0
H1326 H 0.46722 0.7069 0.25604 0.0
H1327 H 0.49436 0.69345 0.24534 0.0
C1328 C 0.5086 0.75887 0.22447 0.0
C1329 C 0.52808 0.75811 0.21006 0.0
C1330 C 0.49091 0.74087 0.22419 0.0
C1331 C 0.49252 0.72148 0.20977 0.0
C1332 C 0.51252 0.72014 0.19601 0.0
H1333 H 0.37946 0.61504 0.17729 0.0
H1334 H 0.4195 0.63347 0.18199 0.0
C1335 C 0.53012 0.73824 0.19616 0.0
C1336 C 0.47211 0.70419 0.20751 0.0
H1337 H 0.43357 0.66822 0.23584 0.0
C1338 C 0.46103 0.70194 0.18744 0.0
C1339 C 0.46255 0.69119 0.22504 0.0
C1340 C 0.47445 0.69146 0.24667 0.0
C1341 C 0.44006 0.68807 0.18466 0.0
C1342 C 0.42992 0.67602 0.20238 0.0
C1343 C 0.44137 0.67755 0.22229 0.0
C1344 C 0.40632 0.66352 0.20083 0.0
C1345 C 0.42819 0.68728 0.16301 0.0
C1346 C 0.38584 0.67403 0.21025 0.0
C1347 C 0.36308 0.66364 0.20753 0.0
C1348 C 0.36033 0.64238 0.19548 0.0
C1349 C 0.38103 0.63135 0.1867 0.0
C1350 C 0.40385 0.64191 0.18928 0.0
H1351 H 0.43675 0.69989 0.15151 0.0
H1352 H 0.42955 0.66868 0.15648 0.0
H1353 H 0.40869 0.6919 0.16438 0.0
H1354 H 0.38739 0.69066 0.21927 0.0
H1355 H 0.34757 0.67235 0.21478 0.0
H1356 H 0.42586 0.3524 0.18127 0.0
H1357 H 0.40096 0.38755 0.1901 0.0
H1358 H 0.4651 0.42846 0.20441 0.0
H1359 H 0.49024 0.39317 0.19561 0.0
H1360 H 0.42744 0.43647 0.23379 0.0
H1361 H 0.39466 0.44592 0.15067 0.0
H1362 H 0.38934 0.41652 0.16179 0.0
H1363 H 0.41985 0.42668 0.15769 0.0
C1364 C 0.43472 0.36887 0.18621 0.0
C1365 C 0.4601 0.37001 0.18743 0.0
C1366 C 0.42044 0.38898 0.19129 0.0
C1367 C 0.43114 0.41084 0.1975 0.0
C1368 C 0.45642 0.41183 0.19955 0.0
H1369 H 0.35439 0.54775 0.18907 0.0
H1370 H 0.38441 0.5154 0.18695 0.0
C1371 C 0.47078 0.39162 0.19456 0.0
C1372 C 0.41592 0.43274 0.20117 0.0
H1373 H 0.37474 0.46974 0.17683 0.0
C1374 C 0.41599 0.44385 0.22132 0.0
C1375 C 0.40125 0.44261 0.18482 0.0
C1376 C 0.40138 0.43249 0.16247 0.0
C1377 C 0.40137 0.4642 0.22568 0.0
C1378 C 0.386 0.47347 0.20954 0.0
C1379 C 0.38634 0.4626 0.18929 0.0
C1380 C 0.36949 0.49453 0.21297 0.0
C1381 C 0.40283 0.4758 0.2474 0.0
C1382 C 0.35129 0.49397 0.22863 0.0
C1383 C 0.3341 0.51267 0.23 0.0
C1384 C 0.33458 0.53208 0.21551 0.0
C1385 C 0.35336 0.533 0.2004 0.0
C1386 C 0.37058 0.51448 0.19915 0.0
H1387 H 0.42005 0.47118 0.25559 0.0
H1388 H 0.40128 0.49578 0.24626 0.0
H1389 H 0.38774 0.4691 0.25742 0.0
H1390 H 0.3497 0.47859 0.23921 0.0
H1391 H 0.31975 0.51128 0.24168 0.0
H1392 H 0.22338 0.47935 0.1717 0.0
H1393 H 0.19696 0.45174 0.19116 0.0
H1394 H 0.19832 0.49931 0.2456 0.0
H1395 H 0.22476 0.52702 0.22624 0.0
H1396 H 0.20526 0.45236 0.25693 0.0
H1397 H 0.12542 0.45953 0.20402 0.0
H1398 H 0.15245 0.45118 0.18995 0.0
H1399 H 0.15043 0.48033 0.20258 0.0
C1400 C 0.21789 0.48407 0.18773 0.0
C1401 C 0.22618 0.50548 0.19734 0.0
C1402 C 0.20269 0.46829 0.19883 0.0
C1403 C 0.19523 0.47366 0.21971 0.0
C1404 C 0.20372 0.49484 0.22946 0.0
H1405 H 0.08292 0.39152 0.28758 0.0
H1406 H 0.10545 0.42407 0.26997 0.0
C1407 C 0.21899 0.5106 0.2184 0.0
C1408 C 0.17931 0.45673 0.23162 0.0
H1409 H 0.12538 0.42686 0.22906 0.0
C1410 C 0.18771 0.44695 0.25091 0.0
C1411 C 0.1562 0.44997 0.224 0.0
C1412 C 0.14545 0.46098 0.20411 0.0
C1413 C 0.17407 0.42996 0.26236 0.0
C1414 C 0.15158 0.42216 0.25411 0.0
C1415 C 0.14274 0.43262 0.23525 0.0
C1416 C 0.13754 0.40247 0.26439 0.0
C1417 C 0.18387 0.42054 0.28324 0.0
C1418 C 0.14784 0.3794 0.26663 0.0
C1419 C 0.13505 0.36084 0.27659 0.0
C1420 C 0.11153 0.36483 0.28448 0.0
C1421 C 0.10094 0.3878 0.28168 0.0
C1422 C 0.11383 0.40644 0.27169 0.0
H1423 H 0.1971 0.43326 0.29035 0.0
H1424 H 0.1691 0.41742 0.2949 0.0
H1425 H 0.19331 0.40309 0.28041 0.0
H1426 H 0.16582 0.37569 0.26058 0.0
H1427 H 0.14358 0.34327 0.2779 0.0
H1428 H 0.74507 0.10871 0.27146 0.0
H1429 H 0.72136 0.13709 0.24964 0.0
H1430 H 0.66307 0.13362 0.29517 0.0
H1431 H 0.68652 0.10546 0.3169 0.0
H1432 H 0.67526 0.13332 0.2307 0.0
H1433 H 0.67646 0.20602 0.29155 0.0
H1434 H 0.69617 0.17998 0.2929 0.0
H1435 H 0.66522 0.17778 0.30147 0.0
C1436 C 0.72713 0.11386 0.2767 0.0
C1437 C 0.71784 0.10508 0.29609 0.0
C1438 C 0.71364 0.13013 0.26427 0.0
C1439 C 0.69065 0.1379 0.27102 0.0
C1440 C 0.68102 0.12843 0.28993 0.0
H1441 H 0.58033 0.2379 0.22635 0.0
H1442 H 0.60326 0.20597 0.24443 0.0
C1443 C 0.69448 0.11232 0.30236 0.0
C1444 C 0.67667 0.15605 0.25852 0.0
H1445 H 0.64972 0.21161 0.26229 0.0
C1446 C 0.6698 0.15051 0.23753 0.0
C1447 C 0.66957 0.1785 0.26745 0.0
C1448 C 0.67741 0.18608 0.2895 0.0
C1449 C 0.65549 0.16655 0.22545 0.0
C1450 C 0.64813 0.18883 0.23452 0.0
C1451 C 0.65519 0.19443 0.25542 0.0
C1452 C 0.63348 0.20688 0.22254 0.0
C1453 C 0.64789 0.15928 0.20327 0.0
C1454 C 0.64279 0.21796 0.20419 0.0
C1455 C 0.6297 0.23618 0.1938 0.0
C1456 C 0.60702 0.24379 0.20157 0.0
C1457 C 0.59755 0.23232 0.21976 0.0
C1458 C 0.61071 0.21416 0.2302 0.0
H1459 H 0.64977 0.13949 0.2007 0.0
H1460 H 0.62885 0.16464 0.20014 0.0
H1461 H 0.65954 0.16861 0.19147 0.0
H1462 H 0.66047 0.21294 0.19818 0.0
H1463 H 0.63745 0.24445 0.17975 0.0
H1464 H 0.90808 0.57802 0.20998 0.0
H1465 H 0.94097 0.601 0.22663 0.0
H1466 H 0.89594 0.66482 0.22706 0.0
H1467 H 0.86322 0.64217 0.21073 0.0
H1468 H 0.94253 0.67301 0.21115 0.0
H1469 H 0.94483 0.6246 0.28895 0.0
H1470 H 0.94769 0.60637 0.26532 0.0
H1471 H 0.91979 0.62192 0.27065 0.0
C1472 C 0.90513 0.59688 0.21381 0.0
C1473 C 0.88298 0.60822 0.20886 0.0
C1474 C 0.92395 0.61 0.22332 0.0
C1475 C 0.92089 0.63463 0.22818 0.0
C1476 C 0.8988 0.64588 0.22334 0.0
H1477 H 0.97824 0.73876 0.31158 0.0
H1478 H 0.95826 0.70552 0.29327 0.0
C1479 C 0.88009 0.63287 0.21388 0.0
C1480 C 0.94047 0.64912 0.23815 0.0
H1481 H 0.97097 0.65768 0.28492 0.0
C1482 C 0.94905 0.66948 0.22716 0.0
C1483 C 0.94883 0.64453 0.25909 0.0
C1484 C 0.93977 0.62329 0.27184 0.0
C1485 C 0.96498 0.68591 0.23681 0.0
C1486 C 0.9729 0.68167 0.25795 0.0
C1487 C 0.96504 0.6608 0.26866 0.0
C1488 C 0.98673 0.70016 0.27007 0.0
C1489 C 0.9721 0.70838 0.22472 0.0
C1490 C 1.00978 0.70785 0.26353 0.0
C1491 C 0.02124 0.72712 0.27395 0.0
C1492 C 1.00981 0.73902 0.29107 0.0
C1493 C 0.98731 0.73039 0.29818 0.0
C1494 C 0.97594 0.71121 0.28782 0.0
H1495 H 0.96107 0.711 0.21009 0.0
H1496 H 0.9701 0.72467 0.23494 0.0
H1497 H 0.99135 0.70692 0.21989 0.0
H1498 H 0.01864 0.69932 0.25008 0.0
H1499 H 0.03856 0.7333 0.2681 0.0
H1500 H 0.3678 1.01269 0.26953 0.0
H1501 H 0.39125 0.98317 0.2487 0.0
H1502 H 0.45665 1.00683 0.27946 0.0
H1503 H 0.4336 0.03658 0.2999 0.0
H1504 H 0.43596 0.99023 0.22109 0.0
H1505 H 0.45027 0.93199 0.29233 0.0
H1506 H 0.42637 0.9543 0.29091 0.0
H1507 H 0.45698 0.96358 0.29551 0.0
C1508 C 0.38722 1.01195 0.27156 0.0
C1509 C 0.39873 0.02686 0.28661 0.0
C1510 C 0.40058 0.99497 0.25973 0.0
C1511 C 0.42563 0.99255 0.26281 0.0
C1512 C 0.43729 1.00811 0.2771 0.0
H1513 H 0.53338 0.88578 0.22269 0.0
H1514 H 0.51262 0.9205 0.23879 0.0
C1515 C 0.42402 0.02507 0.28883 0.0
C1516 C 0.43962 0.97324 0.25177 0.0
H1517 H 0.47061 0.92065 0.26081 0.0
C1518 C 0.44349 0.97496 0.22972 0.0
C1519 C 0.4496 0.95347 0.26311 0.0
C1520 C 0.44553 0.95049 0.28676 0.0
C1521 C 0.45735 0.95755 0.21873 0.0
C1522 C 0.46711 0.93755 0.23003 0.0
C1523 C 0.46326 0.93596 0.25213 0.0
C1524 C 0.48054 0.91757 0.21921 0.0
C1525 C 0.46185 0.9611 0.19521 0.0
C1526 C 0.46953 0.90433 0.20281 0.0
C1527 C 0.48144 0.88467 0.19346 0.0
C1528 C 0.50458 0.87743 0.20044 0.0
C1529 C 0.51574 0.8909 0.21672 0.0
C1530 C 0.50379 0.91069 0.22605 0.0
H1531 H 0.46018 0.98043 0.19061 0.0
H1532 H 0.48009 0.9545 0.19056 0.0
H1533 H 0.44817 0.95082 0.18603 0.0
H1534 H 0.45143 0.90885 0.19753 0.0
H1535 H 0.47233 0.87503 0.18081 0.0
H1536 H 0.22899 0.62525 0.81931 0.0
H1537 H 0.19733 0.64652 0.79974 0.0
H1538 H 0.19738 0.59028 0.75211 0.0
H1539 H 0.2297 0.5691 0.7715 0.0
H1540 H 0.20166 0.63526 0.73471 0.0
H1541 H 0.12558 0.63568 0.79174 0.0
H1542 H 0.15289 0.64617 0.80398 0.0
H1543 H 0.15115 0.61549 0.79447 0.0
C1544 C 0.22211 0.61725 0.80479 0.0
C1545 C 0.23199 0.59556 0.7969 0.0
C1546 C 0.20376 0.6293 0.79373 0.0
C1547 C 0.19468 0.61987 0.77459 0.0
C1548 C 0.20395 0.59779 0.76696 0.0
H1549 H 0.0823 0.70548 0.70781 0.0
H1550 H 0.10295 0.67095 0.72447 0.0
C1551 C 0.22233 0.58564 0.7781 0.0
C1552 C 0.17748 0.63449 0.76164 0.0
H1553 H 0.12526 0.66753 0.76516 0.0
C1554 C 0.18472 0.64192 0.74122 0.0
C1555 C 0.1552 0.64298 0.76994 0.0
C1556 C 0.14562 0.63445 0.79115 0.0
C1557 C 0.17109 0.65878 0.7295 0.0
C1558 C 0.14984 0.66875 0.73856 0.0
C1559 C 0.14174 0.66014 0.75835 0.0
C1560 C 0.13701 0.68947 0.72851 0.0
C1561 C 0.17987 0.66618 0.70769 0.0
C1562 C 0.14911 0.71145 0.72569 0.0
C1563 C 0.13739 0.73119 0.71637 0.0
C1564 C 0.11317 0.72949 0.70964 0.0
C1565 C 0.10089 0.70752 0.71285 0.0
C1566 C 0.11269 0.68771 0.72228 0.0
H1567 H 0.19155 0.65199 0.70045 0.0
H1568 H 0.16449 0.66992 0.69678 0.0
H1569 H 0.19077 0.6829 0.70913 0.0
H1570 H 0.16767 0.71344 0.73091 0.0
H1571 H 0.14731 0.74789 0.71473 0.0
H1572 H 0.3801 0.08274 0.73398 0.0
H1573 H 0.411 0.10605 0.75305 0.0
H1574 H 0.41096 0.15898 0.70259 0.0
H1575 H 0.3802 0.1359 0.68357 0.0
H1576 H 0.45815 0.12375 0.74212 0.0
H1577 H 0.39244 0.19819 0.75589 0.0
H1578 H 0.38335 0.16862 0.74685 0.0
H1579 H 0.39585 0.19004 0.72834 0.0
C1580 C 0.38697 0.09913 0.7268 0.0
C1581 C 0.37739 0.10767 0.70741 0.0
C1582 C 0.40458 0.11247 0.73774 0.0
C1583 C 0.41291 0.13452 0.72946 0.0
C1584 C 0.40439 0.14231 0.70953 0.0
H1585 H 0.53131 0.2276 0.77031 0.0
H1586 H 0.50678 0.1968 0.75246 0.0
C1587 C 0.38678 0.12911 0.69868 0.0
C1588 C 0.42945 0.15015 0.74203 0.0
H1589 H 0.43329 0.20614 0.76467 0.0
C1590 C 0.45273 0.14173 0.74716 0.0
C1591 C 0.42223 0.17348 0.74886 0.0
C1592 C 0.39704 0.18309 0.74491 0.0
C1593 C 0.46915 0.15625 0.75854 0.0
C1594 C 0.46219 0.17992 0.76469 0.0
C1595 C 0.43875 0.18809 0.75986 0.0
C1596 C 0.47857 0.19662 0.77642 0.0
C1597 C 0.49363 0.14597 0.76416 0.0
C1598 C 0.47095 0.20687 0.79578 0.0
C1599 C 0.4848 0.2246 0.80583 0.0
C1600 C 0.50664 0.23253 0.7968 0.0
C1601 C 0.51474 0.22167 0.7778 0.0
C1602 C 0.50073 0.204 0.76762 0.0
H1603 H 0.49366 0.12589 0.7637 0.0
H1604 H 0.50714 0.15244 0.75241 0.0
H1605 H 0.49942 0.15194 0.78027 0.0
H1606 H 0.45397 0.2015 0.80292 0.0
H1607 H 0.47822 0.2324 0.82057 0.0
H1608 H 0.96771 0.36505 0.70585 0.0
H1609 H 0.94544 0.39806 0.72261 0.0
H1610 H 1.00492 0.44629 0.71033 0.0
H1611 H 0.02759 0.41292 0.69379 0.0
H1612 H 0.9886 0.4526 0.74947 0.0
H1613 H 0.90971 0.45303 0.69562 0.0
H1614 H 0.91426 0.42361 0.70694 0.0
H1615 H 0.93694 0.43628 0.68963 0.0
C1616 C 0.97596 0.38274 0.70642 0.0
C1617 C 0.99934 0.3864 0.69823 0.0
C1618 C 0.96313 0.40169 0.71595 0.0
C1619 C 0.97314 0.42493 0.71723 0.0
C1620 C 0.99666 0.4286 0.70935 0.0
H1621 H 0.88115 0.54536 0.76331 0.0
H1622 H 0.90603 0.51934 0.74012 0.0
C1623 C 1.00965 0.40952 0.69997 0.0
C1624 C 0.95943 0.44492 0.72778 0.0
H1625 H 0.90391 0.47231 0.72977 0.0
C1626 C 0.9702 0.45711 0.74494 0.0
C1627 C 0.93557 0.45133 0.72168 0.0
C1628 C 0.92357 0.44055 0.7023 0.0
C1629 C 0.95741 0.47455 0.75678 0.0
C1630 C 0.93289 0.4795 0.75176 0.0
C1631 C 0.92253 0.46826 0.73391 0.0
C1632 C 0.91745 0.49528 0.76548 0.0
C1633 C 0.97039 0.48749 0.77458 0.0
C1634 C 0.91497 0.49007 0.78727 0.0
C1635 C 0.90099 0.50492 0.80044 0.0
C1636 C 0.88875 0.52517 0.79213 0.0
C1637 C 0.89039 0.52991 0.77015 0.0
C1638 C 0.90466 0.5151 0.75694 0.0
H1639 H 0.99018 0.48816 0.7716 0.0
H1640 H 0.96356 0.50626 0.77658 0.0
H1641 H 0.96755 0.47753 0.78972 0.0
H1642 H 0.92384 0.47442 0.79415 0.0
H1643 H 0.8996 0.50041 0.81719 0.0
H1644 H 0.57629 0.90232 0.78794 0.0
H1645 H 0.59827 0.93568 0.77069 0.0
H1646 H 0.65825 0.88767 0.75833 0.0
H1647 H 0.63648 0.85454 0.77501 0.0
H1648 H 0.64498 0.95459 0.78229 0.0
H1649 H 0.6453 0.91879 0.69996 0.0
H1650 H 0.62459 0.90811 0.72012 0.0
H1651 H 0.65509 0.89668 0.71907 0.0
C1652 C 0.59403 0.89888 0.78129 0.0
C1653 C 0.60466 0.87578 0.78296 0.0
C1654 C 0.60661 0.91796 0.77155 0.0
C1655 C 0.6298 0.9141 0.76299 0.0
C1656 C 0.64026 0.89102 0.76451 0.0
H1657 H 0.75967 0.97386 0.72384 0.0
H1658 H 0.72432 0.95275 0.73736 0.0
C1659 C 0.62785 0.87212 0.7743 0.0
C1660 C 0.64387 0.93406 0.75314 0.0
H1661 H 0.67671 0.9474 0.70855 0.0
C1662 C 0.65143 0.95342 0.76599 0.0
C1663 C 0.65221 0.93258 0.73184 0.0
C1664 C 0.64368 0.91304 0.71688 0.0
C1665 C 0.66846 0.97029 0.75854 0.0
C1666 C 0.67805 0.96772 0.73778 0.0
C1667 C 0.66938 0.94927 0.72451 0.0
C1668 C 0.69928 0.98179 0.73051 0.0
C1669 C 0.67731 0.98991 0.77323 0.0
C1670 C 0.69694 1.00533 0.72233 0.0
C1671 C 0.71727 0.01753 0.71432 0.0
C1672 C 0.74017 1.00626 0.71429 0.0
C1673 C 0.74233 0.98293 0.7231 0.0
C1674 C 0.72214 0.97085 0.73101 0.0
H1675 H 0.66761 0.98993 0.78875 0.0
H1676 H 0.69694 0.98741 0.77624 0.0
H1677 H 0.67487 1.00783 0.76553 0.0
H1678 H 0.67938 0.01404 0.72177 0.0
H1679 H 0.71493 0.0354 0.7076 0.0
H1680 H 0.99004 0.7769 0.73811 0.0
H1681 H 0.95845 0.75265 0.75567 0.0
H1682 H 0.98123 0.69001 0.71985 0.0
H1683 H 1.01253 0.71387 0.70257 0.0
H1684 H 0.92088 0.72939 0.73269 0.0
H1685 H 0.97335 0.66265 0.77984 0.0
H1686 H 0.98632 0.6905 0.77022 0.0
H1687 H 0.98326 0.66497 0.75267 0.0
C1688 C 0.98874 0.75778 0.73459 0.0
C1689 C 1.00374 0.74722 0.71908 0.0
C1690 C 0.9706 0.744 0.74444 0.0
C1691 C 0.96759 0.71945 0.73917 0.0
C1692 C 0.98341 0.70875 0.72446 0.0
H1693 H 0.86431 0.60486 0.76786 0.0
H1694 H 0.89504 0.62986 0.75004 0.0
C1695 C 1.00126 0.72246 0.71454 0.0
C1696 C 0.94673 0.70536 0.74732 0.0
H1697 H 0.93194 0.65319 0.77333 0.0
C1698 C 0.92327 0.71286 0.74178 0.0
C1699 C 0.94988 0.6836 0.75889 0.0
C1700 C 0.97455 0.67503 0.76593 0.0
C1701 C 0.90292 0.69899 0.74717 0.0
C1702 C 0.90608 0.67719 0.75867 0.0
C1703 C 0.92954 0.66973 0.76426 0.0
C1704 C 0.88528 0.66284 0.76661 0.0
C1705 C 0.87824 0.70755 0.74015 0.0
C1706 C 0.86928 0.6732 0.78137 0.0
C1707 C 0.85187 0.65904 0.79145 0.0
C1708 C 0.85002 0.63422 0.78698 0.0
C1709 C 0.86506 0.62404 0.7713 0.0
C1710 C 0.88274 0.63825 0.7613 0.0
H1711 H 0.87942 0.7201 0.72636 0.0
H1712 H 0.86653 0.69208 0.73571 0.0
H1713 H 0.86945 0.71741 0.75349 0.0
H1714 H 0.87111 0.69196 0.78602 0.0
H1715 H 0.84062 0.6673 0.80361 0.0
H1716 H 0.39017 0.01663 0.71004 0.0
H1717 H 0.41649 0.98602 0.72599 0.0
H1718 H 0.35397 0.94798 0.74941 0.0
H1719 H 0.3274 0.97891 0.73331 0.0
H1720 H 0.42234 0.96634 0.76772 0.0
H1721 H 0.38838 0.89885 0.70921 0.0
H1722 H 0.38259 0.93083 0.70641 0.0
H1723 H 0.36616 0.91352 0.72575 0.0
C1724 C 0.38207 1.00218 0.71923 0.0
C1725 C 0.35681 1.00023 0.72067 0.0
C1726 C 0.39711 0.98461 0.72821 0.0
C1727 C 0.38722 0.96446 0.73853 0.0
C1728 C 0.36198 0.96323 0.74125 0.0
H1729 H 0.46171 0.83443 0.78313 0.0
H1730 H 0.43123 0.86301 0.76981 0.0
C1731 C 0.34683 0.98107 0.73238 0.0
C1732 C 0.40352 0.94426 0.74496 0.0
H1733 H 0.41984 0.88635 0.73198 0.0
C1734 C 0.42169 0.94879 0.76002 0.0
C1735 C 0.40274 0.92139 0.73482 0.0
C1736 C 0.38407 0.91575 0.71802 0.0
C1737 C 0.4391 0.93116 0.76521 0.0
C1738 C 0.43879 0.90852 0.75461 0.0
C1739 C 0.42027 0.90377 0.7399 0.0
C1740 C 0.45725 0.88946 0.75905 0.0
C1741 C 0.45749 0.93688 0.78224 0.0
C1742 C 0.48203 0.89411 0.75626 0.0
C1743 C 0.49944 0.8777 0.76375 0.0
C1744 C 0.49232 0.85615 0.77369 0.0
C1745 C 0.46761 0.85063 0.77494 0.0
C1746 C 0.4502 0.86708 0.76756 0.0
H1747 H 0.45133 0.95191 0.79269 0.0
H1748 H 0.46128 0.92081 0.79234 0.0
H1749 H 0.47464 0.94251 0.77456 0.0
H1750 H 0.48792 0.91103 0.74933 0.0
H1751 H 0.51837 0.88262 0.76314 0.0
H1752 H 0.105 0.40456 0.69066 0.0
H1753 H 0.13588 0.42833 0.70853 0.0
H1754 H 0.15002 0.36902 0.75147 0.0
H1755 H 0.11908 0.34471 0.73318 0.0
H1756 H 0.14274 0.44381 0.7494 0.0
H1757 H 0.21636 0.38113 0.72467 0.0
H1758 H 0.18615 0.37924 0.71397 0.0
H1759 H 0.19266 0.3675 0.74007 0.0
C1760 C 0.11444 0.39661 0.70409 0.0
C1761 C 0.10977 0.37267 0.71041 0.0
C1762 C 0.13212 0.41026 0.7143 0.0
C1763 C 0.14568 0.40032 0.73101 0.0
C1764 C 0.14012 0.37688 0.73827 0.0
H1765 H 0.26107 0.45565 0.80788 0.0
H1766 H 0.23147 0.4312 0.78889 0.0
C1767 C 0.12225 0.36312 0.72803 0.0
C1768 C 0.1661 0.41444 0.74004 0.0
H1769 H 0.22757 0.4146 0.74588 0.0
C1770 C 0.16129 0.43743 0.74861 0.0
C1771 C 0.19035 0.40624 0.73876 0.0
C1772 C 0.19683 0.38229 0.72871 0.0
C1773 C 0.17997 0.45222 0.7563 0.0
C1774 C 0.20418 0.44396 0.75512 0.0
C1775 C 0.20902 0.42099 0.74656 0.0
C1776 C 0.2244 0.45796 0.76453 0.0
C1777 C 0.17362 0.47631 0.76616 0.0
C1778 C 0.23105 0.48083 0.75661 0.0
C1779 C 0.24832 0.49485 0.76739 0.0
C1780 C 0.25889 0.48616 0.78625 0.0
C1781 C 0.25313 0.46279 0.79338 0.0
C1782 C 0.2362 0.44879 0.78256 0.0
H1783 H 0.15391 0.47813 0.76924 0.0
H1784 H 0.18346 0.47883 0.78143 0.0
H1785 H 0.17911 0.49103 0.75518 0.0
H1786 H 0.22232 0.48812 0.74254 0.0
H1787 H 0.25229 0.51291 0.76173 0.0
H1788 H 0.60732 0.21293 0.80398 0.0
H1789 H 0.63815 0.18719 0.78783 0.0
H1790 H 0.66206 0.24697 0.74914 0.0
H1791 H 0.63101 0.27312 0.76556 0.0
H1792 H 0.64896 0.17406 0.74572 0.0
H1793 H 0.72312 0.22682 0.78313 0.0
H1794 H 0.69189 0.23036 0.79094 0.0
H1795 H 0.70251 0.24364 0.76657 0.0
C1796 C 0.61886 0.22054 0.79175 0.0
C1797 C 0.61687 0.24506 0.78608 0.0
C1798 C 0.63649 0.20579 0.78255 0.0
C1799 C 0.65274 0.21525 0.76762 0.0
C1800 C 0.64996 0.23941 0.76094 0.0
H1801 H 0.77497 0.15039 0.70381 0.0
H1802 H 0.74607 0.1782 0.72038 0.0
C1803 C 0.63205 0.25424 0.77008 0.0
C1804 C 0.67306 0.19983 0.76002 0.0
H1805 H 0.7345 0.19311 0.76232 0.0
C1806 C 0.66767 0.17824 0.7493 0.0
C1807 C 0.69744 0.20521 0.7649 0.0
C1808 C 0.70422 0.22765 0.77716 0.0
C1809 C 0.68599 0.16203 0.7431 0.0
C1810 C 0.71036 0.16728 0.74815 0.0
C1811 C 0.71579 0.18898 0.75871 0.0
C1812 C 0.73051 0.15125 0.7412 0.0
C1813 C 0.67915 0.13966 0.73075 0.0
C1814 C 0.73227 0.12713 0.74824 0.0
C1815 C 0.74908 0.11123 0.73893 0.0
C1816 C 0.76427 0.11936 0.72254 0.0
C1817 C 0.7636 0.14384 0.71663 0.0
C1818 C 0.74702 0.15969 0.72599 0.0
H1819 H 0.6605 0.14089 0.72426 0.0
H1820 H 0.69188 0.13654 0.71733 0.0
H1821 H 0.68006 0.12372 0.74147 0.0
H1822 H 0.71989 0.12034 0.76018 0.0
H1823 H 0.74896 0.0923 0.7434 0.0
H1824 H 0.9711 0.32655 0.27618 0.0
H1825 H 0.94077 0.35528 0.26279 0.0
H1826 H 0.99449 0.41163 0.26242 0.0
H1827 H 0.0244 0.38312 0.27657 0.0
H1828 H 0.95599 0.42535 0.28437 0.0
H1829 H 0.92452 0.38754 0.20737 0.0
H1830 H 0.92248 0.36658 0.22911 0.0
H1831 H 0.95165 0.37696 0.2204 0.0
C1832 C 0.97661 0.34479 0.27225 0.0
C1833 C 1.00018 0.35253 0.27684 0.0
C1834 C 0.95924 0.36129 0.26472 0.0
C1835 C 0.96528 0.3857 0.26142 0.0
C1836 C 0.98931 0.39295 0.26479 0.0
H1837 H 0.90004 0.51715 0.21926 0.0
H1838 H 0.92556 0.48576 0.23524 0.0
C1839 C 1.00651 0.37659 0.27259 0.0
C1840 C 0.94633 0.40427 0.25675 0.0
H1841 H 0.90187 0.42041 0.22153 0.0
C1842 C 0.94422 0.42421 0.27058 0.0
C1843 C 0.93068 0.40279 0.23892 0.0
C1844 C 0.93254 0.38244 0.22298 0.0
C1845 C 0.92727 0.44277 0.26692 0.0
C1846 C 0.91195 0.44145 0.24896 0.0
C1847 C 0.91352 0.42127 0.23542 0.0
C1848 C 0.89588 0.46189 0.24277 0.0
C1849 C 0.92596 0.46379 0.2822 0.0
C1850 C 0.8706 0.45925 0.2423 0.0
C1851 C 0.85591 0.47752 0.23358 0.0
C1852 C 0.86638 0.49843 0.22493 0.0
C1853 C 0.89153 0.50145 0.22631 0.0
C1854 C 0.90611 0.48345 0.23529 0.0
H1855 H 0.93471 0.45949 0.2977 0.0
H1856 H 0.93542 0.47951 0.27511 0.0
H1857 H 0.90688 0.46915 0.28515 0.0
H1858 H 0.86237 0.44267 0.24784 0.0
H1859 H 0.83664 0.47447 0.23208 0.0
H1860 H 0.64715 0.8346 0.20403 0.0
H1861 H 0.67388 0.86326 0.222 0.0
H1862 H 0.61184 0.89816 0.25039 0.0
H1863 H 0.5851 0.86903 0.23267 0.0
H1864 H 0.67141 0.91151 0.21274 0.0
H1865 H 0.65986 0.89737 0.29969 0.0
H1866 H 0.65093 0.87509 0.28022 0.0
H1867 H 0.63191 0.90085 0.28545 0.0
C1868 C 0.63938 0.84772 0.21492 0.0
C1869 C 0.61422 0.84937 0.21744 0.0
C1870 C 0.65461 0.86423 0.22497 0.0
C1871 C 0.64491 0.88284 0.23759 0.0
C1872 C 0.61978 0.88367 0.24109 0.0
H1873 H 0.69842 1.01232 0.29636 0.0
H1874 H 0.67418 0.9812 0.27904 0.0
C1875 C 0.60451 0.86697 0.2311 0.0
C1876 C 0.66077 0.90281 0.24489 0.0
H1877 H 0.67956 0.93356 0.28898 0.0
C1878 C 0.67336 0.91623 0.22944 0.0
C1879 C 0.66324 0.90899 0.26663 0.0
C1880 C 0.65096 0.8947 0.284 0.0
C1881 C 0.68785 0.93603 0.23509 0.0
C1882 C 0.6901 0.94238 0.25682 0.0
C1883 C 0.67775 0.92876 0.27229 0.0
C1884 C 0.70464 0.96337 0.26405 0.0
C1885 C 0.70003 0.95039 0.21772 0.0
C1886 C 0.72978 0.96436 0.26062 0.0
C1887 C 0.74367 0.98253 0.27024 0.0
C1888 C 0.73259 0.99964 0.28362 0.0
C1889 C 0.70735 0.99939 0.28599 0.0
C1890 C 0.69352 0.98151 0.27625 0.0
H1891 H 0.69167 0.94707 0.20188 0.0
H1892 H 0.69919 0.97007 0.22117 0.0
H1893 H 0.71934 0.94499 0.21676 0.0
H1894 H 0.73883 0.95034 0.25156 0.0
H1895 H 0.76317 0.98204 0.26858 0.0
H1896 H 0.09052 0.75278 0.26262 0.0
H1897 H 0.1164 0.72177 0.24588 0.0
H1898 H 0.1777 0.74833 0.28116 0.0
H1899 H 0.15189 0.77879 0.29809 0.0
H1900 H 0.16125 0.72123 0.22263 0.0
H1901 H 0.17048 0.67839 0.3023 0.0
H1902 H 0.14841 0.70169 0.29678 0.0
H1903 H 0.17948 0.70952 0.30139 0.0
C1904 C 0.1097 0.75253 0.26608 0.0
C1905 C 0.11935 0.76823 0.28143 0.0
C1906 C 0.12442 0.73468 0.25674 0.0
C1907 C 0.14884 0.73236 0.26272 0.0
C1908 C 0.15882 0.74943 0.27668 0.0
H1909 H 0.26334 0.62743 0.23431 0.0
H1910 H 0.23896 0.66 0.25045 0.0
C1911 C 0.14415 0.76702 0.28611 0.0
C1912 C 0.16353 0.71123 0.2557 0.0
H1913 H 0.19415 0.66167 0.27442 0.0
C1914 C 0.16837 0.70817 0.23392 0.0
C1915 C 0.17286 0.69419 0.2705 0.0
C1916 C 0.1674 0.69591 0.29403 0.0
C1917 C 0.1826 0.68875 0.22657 0.0
C1918 C 0.19185 0.67168 0.24136 0.0
C1919 C 0.18711 0.67479 0.26314 0.0
C1920 C 0.20586 0.65013 0.23429 0.0
C1921 C 0.18794 0.6869 0.20303 0.0
C1922 C 0.19501 0.63304 0.2209 0.0
C1923 C 0.20878 0.61452 0.21183 0.0
C1924 C 0.23365 0.6125 0.21614 0.0
C1925 C 0.24415 0.62838 0.23093 0.0
C1926 C 0.2303 0.64712 0.23996 0.0
H1927 H 0.18506 0.70443 0.19474 0.0
H1928 H 0.20686 0.68085 0.20024 0.0
H1929 H 0.17566 0.67341 0.19574 0.0
H1930 H 0.17606 0.63464 0.21673 0.0
H1931 H 0.20021 0.60247 0.20052 0.0
H1932 H 0.36866 0.10851 0.26405 0.0
H1933 H 0.39749 0.13626 0.24694 0.0
H1934 H 0.37215 0.19434 0.28712 0.0
H1935 H 0.34382 0.16683 0.30434 0.0
H1936 H 0.39346 0.18235 0.22609 0.0
H1937 H 0.44428 0.1889 0.3022 0.0
H1938 H 0.42159 0.16614 0.29756 0.0
H1939 H 0.41278 0.1965 0.30434 0.0
C1940 C 0.36882 0.12736 0.26875 0.0
C1941 C 0.35416 0.13553 0.28557 0.0
C1942 C 0.38541 0.14313 0.25913 0.0
C1943 C 0.38741 0.16718 0.26622 0.0
C1944 C 0.37137 0.17572 0.28181 0.0
H1945 H 0.48424 0.28711 0.23404 0.0
H1946 H 0.4538 0.2614 0.25163 0.0
C1947 C 0.35504 0.16003 0.29149 0.0
C1948 C 0.40695 0.18313 0.25824 0.0
H1949 H 0.45664 0.21499 0.27429 0.0
C1950 C 0.40731 0.18941 0.2366 0.0
C1951 C 0.42498 0.19243 0.27203 0.0
C1952 C 0.42611 0.18551 0.29529 0.0
C1953 C 0.42504 0.20499 0.2284 0.0
C1954 C 0.44313 0.21417 0.24216 0.0
C1955 C 0.44269 0.20803 0.26383 0.0
C1956 C 0.46331 0.22911 0.23394 0.0
C1957 C 0.42412 0.21171 0.20509 0.0
C1958 C 0.47944 0.21914 0.21912 0.0
C1959 C 0.49666 0.23363 0.20922 0.0
C1960 C 0.49832 0.25837 0.2141 0.0
C1961 C 0.48344 0.26805 0.23015 0.0
C1962 C 0.46597 0.25345 0.24002 0.0
H1963 H 0.40592 0.20854 0.19815 0.0
H1964 H 0.42897 0.23099 0.20271 0.0
H1965 H 0.43732 0.20043 0.19617 0.0
H1966 H 0.4781 0.20029 0.21459 0.0
H1967 H 0.50806 0.22565 0.19703 0.0
loop_
_geom_bond_atom_site_label_1
_geom_bond_atom_site_label_2
_geom_bond_distance
_geom_bond_site_symmetry_2
_ccdc_geom_bond_type
C0 C1 1.351 . S
C0 N3 1.368 . S
C0 H5 0.931 . S
C1 C0 1.351 . S
C1 N2 1.373 . S
C1 H29 0.930 . S
N2 C1 1.373 . S
N2 C4 1.340 . S
N3 C0 1.368 . S
N3 C4 1.321 . S
N3 Co6 2.135 1_655 S
C4 N2 1.340 . S
C4 N3 1.321 . S
C4 H28 0.930 1_655 S
H5 C0 0.931 . S
Co6 N3 2.135 1_455 S
Co6 N9 2.121 . S
Co6 O14 2.055 . S
Co6 O17 2.039 . S
Co6 N20 2.140 . S
C7 O8 1.227 . S
C7 O17 1.265 . S
O8 C7 1.227 . S
N9 Co6 2.121 . S
N9 C11 1.375 . S
N9 C12 1.313 . S
C10 C11 1.338 . S
C10 N13 1.377 . S
C10 H30 0.930 . S
C11 N9 1.375 . S
C11 C10 1.338 . S
C11 H15 0.931 . S
C12 N9 1.313 . S
C12 N13 1.344 . S
C12 H16 0.930 . S
N13 C10 1.377 . S
N13 C12 1.344 . S
O14 Co6 2.055 . S
O14 C18 1.253 1_455 S
H15 C11 0.931 . S
H16 C12 0.930 . S
O17 Co6 2.039 . S
O17 C7 1.265 . S
C18 O14 1.253 1_655 S
C18 O19 1.227 . S
O19 C18 1.227 . S
N20 Co6 2.140 . S
N20 C23 1.346 . S
N20 C24 1.345 . S
C21 C22 1.387 . S
C21 C25 1.391 . S
C22 C21 1.387 . S
C22 C23 1.369 . S
C22 H31 0.929 . S
C23 N20 1.346 . S
C23 C22 1.369 . S
C23 H26 0.928 . S
C24 N20 1.345 . S
C24 C25 1.371 . S
C24 H27 0.931 . S
C25 C21 1.391 . S
C25 C24 1.371 . S
C25 H32 0.930 . S
H26 C23 0.928 . S
H27 C24 0.931 . S
H28 C4 0.930 1_455 S
H29 C1 0.930 . S
H30 C10 0.930 . S
H31 C22 0.929 . S
H32 C25 0.930 . S
C33 C34 1.351 . S
C33 N36 1.368 . S
C33 H38 0.931 . S
C34 C33 1.351 . S
C34 N35 1.373 . S
C34 H62 0.930 . S
N35 C34 1.373 . S
N35 C37 1.340 . S
N36 C33 1.368 . S
N36 C37 1.321 . S
N36 Co39 2.135 1_565 S
C37 N35 1.340 . S
C37 N36 1.321 . S
C37 H61 0.930 1_565 S
H38 C33 0.931 . S
Co39 N36 2.135 1_545 S
Co39 N42 2.121 . S
Co39 O47 2.055 . S
Co39 O50 2.039 . S
Co39 N53 2.140 . S
C40 O41 1.227 . S
C40 O50 1.265 . S
O41 C40 1.227 . S
N42 Co39 2.121 . S
N42 C44 1.375 . S
N42 C45 1.313 . S
C43 C44 1.338 . S
C43 N46 1.377 . S
C43 H63 0.930 . S
C44 N42 1.375 . S
C44 C43 1.338 . S
C44 H48 0.931 . S
C45 N42 1.313 . S
C45 N46 1.344 . S
C45 H49 0.930 . S
N46 C43 1.377 . S
N46 C45 1.344 . S
O47 Co39 2.055 . S
O47 C51 1.253 1_545 S
H48 C44 0.931 . S
H49 C45 0.930 . S
O50 Co39 2.039 . S
O50 C40 1.265 . S
C51 O47 1.253 1_565 S
C51 O52 1.227 . S
O52 C51 1.227 . S
N53 Co39 2.140 . S
N53 C56 1.346 . S
N53 C57 1.345 . S
C54 C55 1.387 . S
C54 C58 1.391 . S
C55 C54 1.387 . S
C55 C56 1.369 . S
C55 H64 0.929 . S
C56 N53 1.346 . S
C56 C55 1.369 . S
C56 H59 0.928 . S
C57 N53 1.345 . S
C57 C58 1.371 . S
C57 H60 0.931 . S
C58 C54 1.391 . S
C58 C57 1.371 . S
C58 H65 0.930 . S
H59 C56 0.928 . S
H60 C57 0.931 . S
H61 C37 0.930 1_545 S
H62 C34 0.930 . S
H63 C43 0.930 . S
H64 C55 0.929 . S
H65 C58 0.930 . S
C66 C67 1.351 . S
C66 N69 1.368 . S
C66 H71 0.931 . S
C67 C66 1.351 . S
C67 N68 1.373 . S
C67 H95 0.930 . S
N68 C67 1.373 . S
N68 C70 1.340 . S
N69 C66 1.368 . S
N69 C70 1.321 . S
N69 Co72 2.135 . S
C70 N68 1.340 . S
C70 N69 1.321 . S
C70 H94 0.930 . S
H71 C66 0.931 . S
Co72 N69 2.135 . S
Co72 N75 2.121 . S
Co72 O80 2.055 . S
Co72 O83 2.039 . S
Co72 N86 2.140 . S
C73 O74 1.227 . S
C73 O83 1.265 . S
O74 C73 1.227 . S
N75 Co72 2.121 . S
N75 C77 1.375 . S
N75 C78 1.313 . S
C76 C77 1.338 1_655 S
C76 N79 1.377 1_655 S
C76 H96 0.930 . S
C77 N75 1.375 . S
C77 C76 1.338 1_455 S
C77 H81 0.931 . S
C78 N75 1.313 . S
C78 N79 1.344 . S
C78 H82 0.930 . S
N79 C76 1.377 1_455 S
N79 C78 1.344 . S
O80 Co72 2.055 . S
O80 C84 1.253 . S
H81 C77 0.931 . S
H82 C78 0.930 . S
O83 Co72 2.039 . S
O83 C73 1.265 . S
C84 O80 1.253 . S
C84 O85 1.227 . S
O85 C84 1.227 . S
N86 Co72 2.140 . S
N86 C89 1.346 . S
N86 C90 1.345 . S
C87 C88 1.387 . S
C87 C91 1.391 . S
C88 C87 1.387 . S
C88 C89 1.369 . S
C88 H97 0.929 . S
C89 N86 1.346 . S
C89 C88 1.369 . S
C89 H92 0.928 . S
C90 N86 1.345 . S
C90 C91 1.371 . S
C90 H93 0.931 . S
C91 C87 1.391 . S
C91 C90 1.371 . S
C91 H98 0.930 . S
H92 C89 0.928 . S
H93 C90 0.931 . S
H94 C70 0.930 . S
H95 C67 0.930 . S
H96 C76 0.930 . S
H97 C88 0.929 . S
H98 C91 0.930 . S
C99 C100 1.351 . S
C99 N102 1.368 . S
C99 H104 0.931 . S
C100 C99 1.351 . S
C100 N101 1.373 . S
C100 H128 0.930 . S
N101 C100 1.373 . S
N101 C103 1.340 . S
N102 C99 1.368 . S
N102 C103 1.321 . S
N102 Co105 2.135 . S
C103 N101 1.340 . S
C103 N102 1.321 . S
C103 H127 0.930 . S
H104 C99 0.931 . S
Co105 N102 2.135 . S
Co105 N108 2.121 . S
Co105 O113 2.055 . S
Co105 O116 2.039 . S
Co105 N119 2.140 . S
C106 O107 1.227 . S
C106 O116 1.265 . S
O107 C106 1.227 . S
N108 Co105 2.121 . S
N108 C110 1.375 . S
N108 C111 1.313 . S
C109 C110 1.338 1_565 S
C109 N112 1.377 1_565 S
C109 H129 0.930 . S
C110 N108 1.375 . S
C110 C109 1.338 1_545 S
C110 H114 0.931 . S
C111 N108 1.313 . S
C111 N112 1.344 . S
C111 H115 0.930 . S
N112 C109 1.377 1_545 S
N112 C111 1.344 . S
O113 Co105 2.055 . S
O113 C117 1.253 . S
H114 C110 0.931 . S
H115 C111 0.930 . S
O116 Co105 2.039 . S
O116 C106 1.265 . S
C117 O113 1.253 . S
C117 O118 1.227 . S
O118 C117 1.227 . S
N119 Co105 2.140 . S
N119 C122 1.346 . S
N119 C123 1.345 . S
C120 C121 1.387 . S
C120 C124 1.391 . S
C121 C120 1.387 . S
C121 C122 1.369 . S
C121 H130 0.929 . S
C122 N119 1.346 . S
C122 C121 1.369 . S
C122 H125 0.928 . S
C123 N119 1.345 . S
C123 C124 1.371 . S
C123 H126 0.931 . S
C124 C120 1.391 . S
C124 C123 1.371 . S
C124 H131 0.930 . S
H125 C122 0.928 . S
H126 C123 0.931 . S
H127 C103 0.930 . S
H128 C100 0.930 . S
H129 C109 0.930 . S
H130 C121 0.929 . S
H131 C124 0.930 . S
C132 C133 1.351 . S
C132 N135 1.368 . S
C132 H137 0.931 . S
C133 C132 1.351 . S
C133 N134 1.373 . S
C133 H161 0.930 . S
N134 C133 1.373 . S
N134 C136 1.340 . S
N135 C132 1.368 . S
N135 C136 1.321 . S
N135 Co138 2.135 1_655 S
C136 N134 1.340 . S
C136 N135 1.321 . S
C136 H160 0.930 1_655 S
H137 C132 0.931 . S
Co138 N135 2.135 1_455 S
Co138 N141 2.121 . S
Co138 O146 2.055 . S
Co138 O149 2.039 . S
Co138 N152 2.140 . S
C139 O140 1.227 . S
C139 O149 1.265 . S
O140 C139 1.227 . S
N141 Co138 2.121 . S
N141 C143 1.375 . S
N141 C144 1.313 . S
C142 C143 1.338 . S
C142 N145 1.377 . S
C142 H162 0.930 . S
C143 N141 1.375 . S
C143 C142 1.338 . S
C143 H147 0.931 . S
C144 N141 1.313 . S
C144 N145 1.344 . S
C144 H148 0.930 . S
N145 C142 1.377 . S
N145 C144 1.344 . S
O146 Co138 2.055 . S
O146 C150 1.253 1_455 S
H147 C143 0.931 . S
H148 C144 0.930 . S
O149 Co138 2.039 . S
O149 C139 1.265 . S
C150 O146 1.253 1_655 S
C150 O151 1.227 . S
O151 C150 1.227 . S
N152 Co138 2.140 . S
N152 C155 1.346 . S
N152 C156 1.345 . S
C153 C154 1.387 . S
C153 C157 1.391 . S
C154 C153 1.387 . S
C154 C155 1.369 . S
C154 H163 0.929 . S
C155 N152 1.346 . S
C155 C154 1.369 . S
C155 H158 0.928 . S
C156 N152 1.345 . S
C156 C157 1.371 . S
C156 H159 0.931 . S
C157 C153 1.391 . S
C157 C156 1.371 . S
C157 H164 0.930 . S
H158 C155 0.928 . S
H159 C156 0.931 . S
H160 C136 0.930 1_455 S
H161 C133 0.930 . S
H162 C142 0.930 . S
H163 C154 0.929 . S
H164 C157 0.930 . S
C165 C166 1.351 . S
C165 N168 1.368 . S
C165 H170 0.931 . S
C166 C165 1.351 . S
C166 N167 1.373 . S
C166 H194 0.930 . S
N167 C166 1.373 . S
N167 C169 1.340 . S
N168 C165 1.368 . S
N168 C169 1.321 . S
N168 Co171 2.135 1_565 S
C169 N167 1.340 . S
C169 N168 1.321 . S
C169 H193 0.930 1_565 S
H170 C165 0.931 . S
Co171 N168 2.135 1_545 S
Co171 N174 2.121 . S
Co171 O179 2.055 . S
Co171 O182 2.039 . S
Co171 N185 2.140 . S
C172 O173 1.227 . S
C172 O182 1.265 . S
O173 C172 1.227 . S
N174 Co171 2.121 . S
N174 C176 1.375 . S
N174 C177 1.313 . S
C175 C176 1.338 . S
C175 N178 1.377 . S
C175 H195 0.930 . S
C176 N174 1.375 . S
C176 C175 1.338 . S
C176 H180 0.931 . S
C177 N174 1.313 . S
C177 N178 1.344 . S
C177 H181 0.930 . S
N178 C175 1.377 . S
N178 C177 1.344 . S
O179 Co171 2.055 . S
O179 C183 1.253 1_545 S
H180 C176 0.931 . S
H181 C177 0.930 . S
O182 Co171 2.039 . S
O182 C172 1.265 . S
C183 O179 1.253 1_565 S
C183 O184 1.227 . S
O184 C183 1.227 . S
N185 Co171 2.140 . S
N185 C188 1.346 . S
N185 C189 1.345 . S
C186 C187 1.387 . S
C186 C190 1.391 . S
C187 C186 1.387 . S
C187 C188 1.369 . S
C187 H196 0.929 . S
C188 N185 1.346 . S
C188 C187 1.369 . S
C188 H191 0.928 . S
C189 N185 1.345 . S
C189 C190 1.371 . S
C189 H192 0.931 . S
C190 C186 1.391 . S
C190 C189 1.371 . S
C190 H197 0.930 . S
H191 C188 0.928 . S
H192 C189 0.931 . S
H193 C169 0.930 1_545 S
H194 C166 0.930 . S
H195 C175 0.930 . S
H196 C187 0.929 . S
H197 C190 0.930 . S
C198 C199 1.351 . S
C198 N201 1.368 . S
C198 H203 0.931 . S
C199 C198 1.351 . S
C199 N200 1.373 . S
C199 H227 0.930 . S
N200 C199 1.373 . S
N200 C202 1.340 . S
N201 C198 1.368 . S
N201 C202 1.321 . S
N201 Co204 2.135 . S
C202 N200 1.340 . S
C202 N201 1.321 . S
C202 H226 0.930 . S
H203 C198 0.931 . S
Co204 N201 2.135 . S
Co204 N207 2.121 . S
Co204 O212 2.055 . S
Co204 O215 2.039 . S
Co204 N218 2.140 . S
C205 O206 1.227 . S
C205 O215 1.265 . S
O206 C205 1.227 . S
N207 Co204 2.121 . S
N207 C209 1.375 . S
N207 C210 1.313 . S
C208 C209 1.338 1_655 S
C208 N211 1.377 1_655 S
C208 H228 0.930 . S
C209 N207 1.375 . S
C209 C208 1.338 1_455 S
C209 H213 0.931 . S
C210 N207 1.313 . S
C210 N211 1.344 . S
C210 H214 0.930 . S
N211 C208 1.377 1_455 S
N211 C210 1.344 . S
O212 Co204 2.055 . S
O212 C216 1.253 . S
H213 C209 0.931 . S
H214 C210 0.930 . S
O215 Co204 2.039 . S
O215 C205 1.265 . S
C216 O212 1.253 . S
C216 O217 1.227 . S
O217 C216 1.227 . S
N218 Co204 2.140 . S
N218 C221 1.346 . S
N218 C222 1.345 . S
C219 C220 1.387 . S
C219 C223 1.391 . S
C220 C219 1.387 . S
C220 C221 1.369 . S
C220 H229 0.929 . S
C221 N218 1.346 . S
C221 C220 1.369 . S
C221 H224 0.928 . S
C222 N218 1.345 . S
C222 C223 1.371 . S
C222 H225 0.931 . S
C223 C219 1.391 . S
C223 C222 1.371 . S
C223 H230 0.930 . S
H224 C221 0.928 . S
H225 C222 0.931 . S
H226 C202 0.930 . S
H227 C199 0.930 . S
H228 C208 0.930 . S
H229 C220 0.929 . S
H230 C223 0.930 . S
C231 C232 1.351 . S
C231 N234 1.368 . S
C231 H236 0.931 . S
C232 C231 1.351 . S
C232 N233 1.373 . S
C232 H260 0.930 . S
N233 C232 1.373 . S
N233 C235 1.340 . S
N234 C231 1.368 . S
N234 C235 1.321 . S
N234 Co237 2.135 . S
C235 N233 1.340 . S
C235 N234 1.321 . S
C235 H259 0.930 . S
H236 C231 0.931 . S
Co237 N234 2.135 . S
Co237 N240 2.121 . S
Co237 O245 2.055 . S
Co237 O248 2.039 . S
Co237 N251 2.140 . S
C238 O239 1.227 . S
C238 O248 1.265 . S
O239 C238 1.227 . S
N240 Co237 2.121 . S
N240 C242 1.375 . S
N240 C243 1.313 . S
C241 C242 1.338 1_565 S
C241 N244 1.377 1_565 S
C241 H261 0.930 . S
C242 N240 1.375 . S
C242 C241 1.338 1_545 S
C242 H246 0.931 . S
C243 N240 1.313 . S
C243 N244 1.344 . S
C243 H247 0.930 . S
N244 C241 1.377 1_545 S
N244 C243 1.344 . S
O245 Co237 2.055 . S
O245 C249 1.253 . S
H246 C242 0.931 . S
H247 C243 0.930 . S
O248 Co237 2.039 . S
O248 C238 1.265 . S
C249 O245 1.253 . S
C249 O250 1.227 . S
O250 C249 1.227 . S
N251 Co237 2.140 . S
N251 C254 1.346 . S
N251 C255 1.345 . S
C252 C253 1.387 . S
C252 C256 1.391 . S
C253 C252 1.387 . S
C253 C254 1.369 . S
C253 H262 0.929 . S
C254 N251 1.346 . S
C254 C253 1.369 . S
C254 H257 0.928 . S
C255 N251 1.345 . S
C255 C256 1.371 . S
C255 H258 0.931 . S
C256 C252 1.391 . S
C256 C255 1.371 . S
C256 H263 0.930 . S
H257 C254 0.928 . S
H258 C255 0.931 . S
H259 C235 0.930 . S
H260 C232 0.930 . S
H261 C241 0.930 . S
H262 C253 0.929 . S
H263 C256 0.930 . S
C264 C265 1.351 . S
C264 N267 1.368 . S
C264 H269 0.931 . S
C265 C264 1.351 . S
C265 N266 1.373 . S
C265 H293 0.930 . S
N266 C265 1.373 . S
N266 C268 1.340 . S
N267 C264 1.368 . S
N267 C268 1.321 . S
N267 Co270 2.135 . S
C268 N266 1.340 . S
C268 N267 1.321 . S
C268 H292 0.930 . S
H269 C264 0.931 . S
Co270 N267 2.135 . S
Co270 N273 2.121 . S
Co270 O278 2.055 . S
Co270 O281 2.039 . S
Co270 N284 2.140 . S
C271 O272 1.227 . S
C271 O281 1.265 . S
O272 C271 1.227 . S
N273 Co270 2.121 . S
N273 C275 1.375 . S
N273 C276 1.313 . S
C274 C275 1.338 . S
C274 N277 1.377 . S
C274 H294 0.930 . S
C275 N273 1.375 . S
C275 C274 1.338 . S
C275 H279 0.931 . S
C276 N273 1.313 . S
C276 N277 1.344 . S
C276 H280 0.930 . S
N277 C274 1.377 . S
N277 C276 1.344 . S
O278 Co270 2.055 . S
O278 C282 1.253 . S
H279 C275 0.931 . S
H280 C276 0.930 . S
O281 Co270 2.039 . S
O281 C271 1.265 . S
C282 O278 1.253 . S
C282 O283 1.227 . S
O283 C282 1.227 . S
N284 Co270 2.140 . S
N284 C287 1.346 . S
N284 C288 1.345 . S
C285 C286 1.387 . S
C285 C289 1.391 . S
C286 C285 1.387 . S
C286 C287 1.369 . S
C286 H295 0.929 . S
C287 N284 1.346 . S
C287 C286 1.369 . S
C287 H290 0.928 . S
C288 N284 1.345 . S
C288 C289 1.371 . S
C288 H291 0.931 . S
C289 C285 1.391 . S
C289 C288 1.371 . S
C289 H296 0.930 . S
H290 C287 0.928 . S
H291 C288 0.931 . S
H292 C268 0.930 . S
H293 C265 0.930 . S
H294 C274 0.930 . S
H295 C286 0.929 . S
H296 C289 0.930 . S
C297 C298 1.351 . S
C297 N300 1.368 . S
C297 H302 0.931 . S
C298 C297 1.351 . S
C298 N299 1.373 . S
C298 H326 0.930 . S
N299 C298 1.373 . S
N299 C301 1.340 . S
N300 C297 1.368 . S
N300 C301 1.321 . S
N300 Co303 2.135 . S
C301 N299 1.340 . S
C301 N300 1.321 . S
C301 H325 0.930 . S
H302 C297 0.931 . S
Co303 N300 2.135 . S
Co303 N306 2.121 . S
Co303 O311 2.055 . S
Co303 O314 2.039 . S
Co303 N317 2.140 . S
C304 O305 1.227 . S
C304 O314 1.265 . S
O305 C304 1.227 . S
N306 Co303 2.121 . S
N306 C308 1.375 . S
N306 C309 1.313 . S
C307 C308 1.338 . S
C307 N310 1.377 . S
C307 H327 0.930 . S
C308 N306 1.375 . S
C308 C307 1.338 . S
C308 H312 0.931 . S
C309 N306 1.313 . S
C309 N310 1.344 . S
C309 H313 0.930 . S
N310 C307 1.377 . S
N310 C309 1.344 . S
O311 Co303 2.055 . S
O311 C315 1.253 . S
H312 C308 0.931 . S
H313 C309 0.930 . S
O314 Co303 2.039 . S
O314 C304 1.265 . S
C315 O311 1.253 . S
C315 O316 1.227 . S
O316 C315 1.227 . S
N317 Co303 2.140 . S
N317 C320 1.346 . S
N317 C321 1.345 . S
C318 C319 1.387 . S
C318 C322 1.391 . S
C319 C318 1.387 . S
C319 C320 1.369 . S
C319 H328 0.929 . S
C320 N317 1.346 . S
C320 C319 1.369 . S
C320 H323 0.928 . S
C321 N317 1.345 . S
C321 C322 1.371 . S
C321 H324 0.931 . S
C322 C318 1.391 . S
C322 C321 1.371 . S
C322 H329 0.930 . S
H323 C320 0.928 . S
H324 C321 0.931 . S
H325 C301 0.930 . S
H326 C298 0.930 . S
H327 C307 0.930 . S
H328 C319 0.929 . S
H329 C322 0.930 . S
C330 C331 1.351 . S
C330 N333 1.368 . S
C330 H335 0.931 . S
C331 C330 1.351 . S
C331 N332 1.373 . S
C331 H359 0.930 . S
N332 C331 1.373 . S
N332 C334 1.340 . S
N333 C330 1.368 . S
N333 C334 1.321 . S
N333 Co336 2.135 . S
C334 N332 1.340 . S
C334 N333 1.321 . S
C334 H358 0.930 . S
H335 C330 0.931 . S
Co336 N333 2.135 . S
Co336 N339 2.121 . S
Co336 O344 2.055 . S
Co336 O347 2.039 . S
Co336 N350 2.140 . S
C337 O338 1.227 . S
C337 O347 1.265 . S
O338 C337 1.227 . S
N339 Co336 2.121 . S
N339 C341 1.375 . S
N339 C342 1.313 . S
C340 C341 1.338 . S
C340 N343 1.377 . S
C340 H360 0.930 . S
C341 N339 1.375 . S
C341 C340 1.338 . S
C341 H345 0.931 . S
C342 N339 1.313 . S
C342 N343 1.344 . S
C342 H346 0.930 . S
N343 C340 1.377 . S
N343 C342 1.344 . S
O344 Co336 2.055 . S
O344 C348 1.253 . S
H345 C341 0.931 . S
H346 C342 0.930 . S
O347 Co336 2.039 . S
O347 C337 1.265 . S
C348 O344 1.253 . S
C348 O349 1.227 . S
O349 C348 1.227 . S
N350 Co336 2.140 . S
N350 C353 1.346 . S
N350 C354 1.345 . S
C351 C352 1.387 . S
C351 C355 1.391 . S
C352 C351 1.387 . S
C352 C353 1.369 . S
C352 H361 0.929 . S
C353 N350 1.346 . S
C353 C352 1.369 . S
C353 H356 0.928 . S
C354 N350 1.345 . S
C354 C355 1.371 . S
C354 H357 0.931 . S
C355 C351 1.391 . S
C355 C354 1.371 . S
C355 H362 0.930 . S
H356 C353 0.928 . S
H357 C354 0.931 . S
H358 C334 0.930 . S
H359 C331 0.930 . S
H360 C340 0.930 . S
H361 C352 0.929 . S
H362 C355 0.930 . S
C363 C364 1.351 . S
C363 N366 1.368 . S
C363 H368 0.931 . S
C364 C363 1.351 . S
C364 N365 1.373 . S
C364 H392 0.930 . S
N365 C364 1.373 . S
N365 C367 1.340 . S
N366 C363 1.368 . S
N366 C367 1.321 . S
N366 Co369 2.135 . S
C367 N365 1.340 . S
C367 N366 1.321 . S
C367 H391 0.930 . S
H368 C363 0.931 . S
Co369 N366 2.135 . S
Co369 N372 2.121 . S
Co369 O377 2.055 . S
Co369 O380 2.039 . S
Co369 N383 2.140 . S
C370 O371 1.227 . S
C370 O380 1.265 . S
O371 C370 1.227 . S
N372 Co369 2.121 . S
N372 C374 1.375 . S
N372 C375 1.313 . S
C373 C374 1.338 . S
C373 N376 1.377 . S
C373 H393 0.930 . S
C374 N372 1.375 . S
C374 C373 1.338 . S
C374 H378 0.931 . S
C375 N372 1.313 . S
C375 N376 1.344 . S
C375 H379 0.930 . S
N376 C373 1.377 . S
N376 C375 1.344 . S
O377 Co369 2.055 . S
O377 C381 1.253 . S
H378 C374 0.931 . S
H379 C375 0.930 . S
O380 Co369 2.039 . S
O380 C370 1.265 . S
C381 O377 1.253 . S
C381 O382 1.227 . S
O382 C381 1.227 . S
N383 Co369 2.140 . S
N383 C386 1.346 . S
N383 C387 1.345 . S
C384 C385 1.387 . S
C384 C388 1.391 . S
C385 C384 1.387 . S
C385 C386 1.369 . S
C385 H394 0.929 . S
C386 N383 1.346 . S
C386 C385 1.369 . S
C386 H389 0.928 . S
C387 N383 1.345 . S
C387 C388 1.371 . S
C387 H390 0.931 . S
C388 C384 1.391 . S
C388 C387 1.371 . S
C388 H395 0.930 . S
H389 C386 0.928 . S
H390 C387 0.931 . S
H391 C367 0.930 . S
H392 C364 0.930 . S
H393 C373 0.930 . S
H394 C385 0.929 . S
H395 C388 0.930 . S
C396 C397 1.351 . S
C396 N399 1.368 . S
C396 H401 0.931 . S
C397 C396 1.351 . S
C397 N398 1.373 . S
C397 H425 0.930 . S
N398 C397 1.373 . S
N398 C400 1.340 . S
N399 C396 1.368 . S
N399 C400 1.321 . S
N399 Co402 2.135 . S
C400 N398 1.340 . S
C400 N399 1.321 . S
C400 H424 0.930 . S
H401 C396 0.931 . S
Co402 N399 2.135 . S
Co402 N405 2.121 . S
Co402 O410 2.055 . S
Co402 O413 2.039 . S
Co402 N416 2.140 . S
C403 O404 1.227 . S
C403 O413 1.265 . S
O404 C403 1.227 . S
N405 Co402 2.121 . S
N405 C407 1.375 . S
N405 C408 1.313 . S
C406 C407 1.338 . S
C406 N409 1.377 . S
C406 H426 0.930 . S
C407 N405 1.375 . S
C407 C406 1.338 . S
C407 H411 0.931 . S
C408 N405 1.313 . S
C408 N409 1.344 . S
C408 H412 0.930 . S
N409 C406 1.377 . S
N409 C408 1.344 . S
O410 Co402 2.055 . S
O410 C414 1.253 . S
H411 C407 0.931 . S
H412 C408 0.930 . S
O413 Co402 2.039 . S
O413 C403 1.265 . S
C414 O410 1.253 . S
C414 O415 1.227 . S
O415 C414 1.227 . S
N416 Co402 2.140 . S
N416 C419 1.346 . S
N416 C420 1.345 . S
C417 C418 1.387 . S
C417 C421 1.391 . S
C418 C417 1.387 . S
C418 C419 1.369 . S
C418 H427 0.929 . S
C419 N416 1.346 . S
C419 C418 1.369 . S
C419 H422 0.928 . S
C420 N416 1.345 . S
C420 C421 1.371 . S
C420 H423 0.931 . S
C421 C417 1.391 . S
C421 C420 1.371 . S
C421 H428 0.930 . S
H422 C419 0.928 . S
H423 C420 0.931 . S
H424 C400 0.930 . S
H425 C397 0.930 . S
H426 C406 0.930 . S
H427 C418 0.929 . S
H428 C421 0.930 . S
C429 C430 1.351 . S
C429 N432 1.368 . S
C429 H434 0.931 . S
C430 C429 1.351 . S
C430 N431 1.373 . S
C430 H458 0.930 . S
N431 C430 1.373 . S
N431 C433 1.340 . S
N432 C429 1.368 . S
N432 C433 1.321 . S
N432 Co435 2.135 . S
C433 N431 1.340 . S
C433 N432 1.321 . S
C433 H457 0.930 . S
H434 C429 0.931 . S
Co435 N432 2.135 . S
Co435 N438 2.121 . S
Co435 O443 2.055 . S
Co435 O446 2.039 . S
Co435 N449 2.140 . S
C436 O437 1.227 . S
C436 O446 1.265 . S
O437 C436 1.227 . S
N438 Co435 2.121 . S
N438 C440 1.375 . S
N438 C441 1.313 . S
C439 C440 1.338 . S
C439 N442 1.377 . S
C439 H459 0.930 . S
C440 N438 1.375 . S
C440 C439 1.338 . S
C440 H444 0.931 . S
C441 N438 1.313 . S
C441 N442 1.344 . S
C441 H445 0.930 . S
N442 C439 1.377 . S
N442 C441 1.344 . S
O443 Co435 2.055 . S
O443 C447 1.253 . S
H444 C440 0.931 . S
H445 C441 0.930 . S
O446 Co435 2.039 . S
O446 C436 1.265 . S
C447 O443 1.253 . S
C447 O448 1.227 . S
O448 C447 1.227 . S
N449 Co435 2.140 . S
N449 C452 1.346 . S
N449 C453 1.345 . S
C450 C451 1.387 . S
C450 C454 1.391 . S
C451 C450 1.387 . S
C451 C452 1.369 . S
C451 H460 0.929 . S
C452 N449 1.346 . S
C452 C451 1.369 . S
C452 H455 0.928 . S
C453 N449 1.345 . S
C453 C454 1.371 . S
C453 H456 0.931 . S
C454 C450 1.391 . S
C454 C453 1.371 . S
C454 H461 0.930 . S
H455 C452 0.928 . S
H456 C453 0.931 . S
H457 C433 0.930 . S
H458 C430 0.930 . S
H459 C439 0.930 . S
H460 C451 0.929 . S
H461 C454 0.930 . S
C462 C463 1.351 . S
C462 N465 1.368 . S
C462 H467 0.931 . S
C463 C462 1.351 . S
C463 N464 1.373 . S
C463 H491 0.930 . S
N464 C463 1.373 . S
N464 C466 1.340 . S
N465 C462 1.368 . S
N465 C466 1.321 . S
N465 Co468 2.135 . S
C466 N464 1.340 . S
C466 N465 1.321 . S
C466 H490 0.930 . S
H467 C462 0.931 . S
Co468 N465 2.135 . S
Co468 N471 2.121 . S
Co468 O476 2.055 . S
Co468 O479 2.039 . S
Co468 N482 2.140 . S
C469 O470 1.227 . S
C469 O479 1.265 . S
O470 C469 1.227 . S
N471 Co468 2.121 . S
N471 C473 1.375 . S
N471 C474 1.313 . S
C472 C473 1.338 . S
C472 N475 1.377 . S
C472 H492 0.930 . S
C473 N471 1.375 . S
C473 C472 1.338 . S
C473 H477 0.931 . S
C474 N471 1.313 . S
C474 N475 1.344 . S
C474 H478 0.930 . S
N475 C472 1.377 . S
N475 C474 1.344 . S
O476 Co468 2.055 . S
O476 C480 1.253 . S
H477 C473 0.931 . S
H478 C474 0.930 . S
O479 Co468 2.039 . S
O479 C469 1.265 . S
C480 O476 1.253 . S
C480 O481 1.227 . S
O481 C480 1.227 . S
N482 Co468 2.140 . S
N482 C485 1.346 . S
N482 C486 1.345 . S
C483 C484 1.387 . S
C483 C487 1.391 . S
C484 C483 1.387 . S
C484 C485 1.369 . S
C484 H493 0.929 . S
C485 N482 1.346 . S
C485 C484 1.369 . S
C485 H488 0.928 . S
C486 N482 1.345 . S
C486 C487 1.371 . S
C486 H489 0.931 . S
C487 C483 1.391 . S
C487 C486 1.371 . S
C487 H494 0.930 . S
H488 C485 0.928 . S
H489 C486 0.931 . S
H490 C466 0.930 . S
H491 C463 0.930 . S
H492 C472 0.930 . S
H493 C484 0.929 . S
H494 C487 0.930 . S
C495 C496 1.351 . S
C495 N498 1.368 . S
C495 H500 0.931 . S
C496 C495 1.351 . S
C496 N497 1.373 . S
C496 H524 0.930 . S
N497 C496 1.373 . S
N497 C499 1.340 . S
N498 C495 1.368 . S
N498 C499 1.321 . S
N498 Co501 2.135 . S
C499 N497 1.340 . S
C499 N498 1.321 . S
C499 H523 0.930 . S
H500 C495 0.931 . S
Co501 N498 2.135 . S
Co501 N504 2.121 . S
Co501 O509 2.055 . S
Co501 O512 2.039 . S
Co501 N515 2.140 . S
C502 O503 1.227 . S
C502 O512 1.265 . S
O503 C502 1.227 . S
N504 Co501 2.121 . S
N504 C506 1.375 . S
N504 C507 1.313 . S
C505 C506 1.338 . S
C505 N508 1.377 . S
C505 H525 0.930 . S
C506 N504 1.375 . S
C506 C505 1.338 . S
C506 H510 0.931 . S
C507 N504 1.313 . S
C507 N508 1.344 . S
C507 H511 0.930 . S
N508 C505 1.377 . S
N508 C507 1.344 . S
O509 Co501 2.055 . S
O509 C513 1.253 . S
H510 C506 0.931 . S
H511 C507 0.930 . S
O512 Co501 2.039 . S
O512 C502 1.265 . S
C513 O509 1.253 . S
C513 O514 1.227 . S
O514 C513 1.227 . S
N515 Co501 2.140 . S
N515 C518 1.346 . S
N515 C519 1.345 . S
C516 C517 1.387 . S
C516 C520 1.391 . S
C517 C516 1.387 . S
C517 C518 1.369 . S
C517 H526 0.929 . S
C518 N515 1.346 . S
C518 C517 1.369 . S
C518 H521 0.928 . S
C519 N515 1.345 . S
C519 C520 1.371 . S
C519 H522 0.931 . S
C520 C516 1.391 . S
C520 C519 1.371 . S
C520 H527 0.930 . S
H521 C518 0.928 . S
H522 C519 0.931 . S
H523 C499 0.930 . S
H524 C496 0.930 . S
H525 C505 0.930 . S
H526 C517 0.929 . S
H527 C520 0.930 . S
H528 C536 0.929 . S
H529 C538 0.930 . S
H530 C540 0.930 . S
H531 C543 0.929 . S
H532 C546 0.930 . S
H533 C548 0.960 . S
H534 C548 0.960 . S
H535 C548 0.960 . S
C536 H528 0.929 . S
C536 C537 1.377 . S
C536 C538 1.384 . S
C537 C536 1.377 . S
C537 C543 1.390 . S
C538 H529 0.930 . S
C538 C536 1.384 . S
C538 C539 1.372 . S
C539 C538 1.372 . S
C539 C540 1.400 . S
C539 C544 1.490 . S
C540 H530 0.930 . S
C540 C539 1.400 . S
C540 C543 1.386 . S
H541 C557 0.930 . S
H542 C558 0.931 . S
C543 H531 0.929 . S
C543 C537 1.390 . S
C543 C540 1.386 . S
C544 C539 1.490 . S
C544 C546 1.395 . S
C544 C547 1.403 . S
H545 C551 0.930 . S
C546 H532 0.930 . S
C546 C544 1.395 . S
C546 C549 1.403 . S
C547 C544 1.403 . S
C547 C548 1.524 . S
C547 C551 1.400 . S
C548 H533 0.960 . S
C548 H534 0.960 . S
C548 H535 0.960 . S
C548 C547 1.524 . S
C549 C546 1.403 . S
C549 C550 1.392 . S
C549 C553 1.495 . S
C550 C549 1.392 . S
C550 C551 1.385 . S
C550 C552 1.478 . S
C551 H545 0.930 . S
C551 C547 1.400 . S
C551 C550 1.385 . S
C552 C550 1.478 . S
C552 C554 1.381 . S
C552 C558 1.383 . S
C553 C549 1.495 . S
C553 H559 0.959 . S
C553 H560 0.961 . S
C553 H561 0.960 . S
C554 C552 1.381 . S
C554 C555 1.394 . S
C554 H562 0.930 . S
C555 C554 1.394 . S
C555 C556 1.383 . S
C555 H563 0.929 . S
C556 C555 1.383 . S
C556 C557 1.377 . S
C557 H541 0.930 . S
C557 C556 1.377 . S
C557 C558 1.379 . S
C558 H542 0.931 . S
C558 C552 1.383 . S
C558 C557 1.379 . S
H559 C553 0.959 . S
H560 C553 0.961 . S
H561 C553 0.960 . S
H562 C554 0.930 . S
H563 C555 0.929 . S
H564 C572 0.929 . S
H565 C574 0.930 . S
H566 C576 0.930 . S
H567 C579 0.929 . S
H568 C582 0.930 . S
H569 C584 0.946 1_565 S
H570 C584 0.960 . S
H571 C584 0.960 . S
C572 H564 0.929 . S
C572 C573 1.377 . S
C572 C574 1.384 . S
C573 C572 1.377 . S
C573 C579 1.390 . S
C574 H565 0.930 . S
C574 C572 1.384 . S
C574 C575 1.372 . S
C575 C574 1.372 . S
C575 C576 1.400 . S
C575 C580 1.490 . S
C576 H566 0.930 . S
C576 C575 1.400 . S
C576 C579 1.386 . S
H577 C593 0.930 . S
H578 C594 0.931 . S
C579 H567 0.929 . S
C579 C573 1.390 . S
C579 C576 1.386 . S
C580 C575 1.490 . S
C580 C582 1.395 . S
C580 C583 1.403 . S
H581 C587 0.930 . S
C582 H568 0.930 . S
C582 C580 1.395 . S
C582 C585 1.403 . S
C583 C580 1.403 . S
C583 C584 1.524 . S
C583 C587 1.400 . S
C584 H569 0.946 1_545 S
C584 H570 0.960 . S
C584 H571 0.960 . S
C584 C583 1.524 . S
C585 C582 1.403 . S
C585 C586 1.392 . S
C585 C589 1.495 . S
C586 C585 1.392 . S
C586 C587 1.385 . S
C586 C588 1.478 . S
C587 H581 0.930 . S
C587 C583 1.400 . S
C587 C586 1.385 . S
C588 C586 1.478 . S
C588 C590 1.381 . S
C588 C594 1.383 . S
C589 C585 1.495 . S
C589 H595 0.959 . S
C589 H596 0.961 . S
C589 H597 0.960 . S
C590 C588 1.381 . S
C590 C591 1.394 . S
C590 H598 0.930 . S
C591 C590 1.394 . S
C591 C592 1.383 . S
C591 H599 0.929 . S
C592 C591 1.383 . S
C592 C593 1.377 . S
C593 H577 0.930 . S
C593 C592 1.377 . S
C593 C594 1.379 . S
C594 H578 0.931 . S
C594 C588 1.383 . S
C594 C593 1.379 . S
H595 C589 0.959 . S
H596 C589 0.961 . S
H597 C589 0.960 . S
H598 C590 0.930 . S
H599 C591 0.929 . S
H600 C608 0.929 . S
H601 C610 0.930 . S
H602 C612 0.930 . S
H603 C615 0.929 . S
H604 C618 0.930 . S
H605 C620 0.960 . S
H606 C620 0.960 . S
H607 C620 0.960 . S
C608 H600 0.929 . S
C608 C609 1.377 . S
C608 C610 1.384 . S
C609 C608 1.377 . S
C609 C615 1.390 . S
C610 H601 0.930 . S
C610 C608 1.384 . S
C610 C611 1.372 . S
C611 C610 1.372 . S
C611 C612 1.400 . S
C611 C616 1.490 . S
C612 H602 0.930 . S
C612 C611 1.400 . S
C612 C615 1.386 . S
H613 C629 0.930 . S
H614 C630 0.931 . S
C615 H603 0.929 . S
C615 C609 1.390 . S
C615 C612 1.386 . S
C616 C611 1.490 . S
C616 C618 1.395 . S
C616 C619 1.403 . S
H617 C623 0.930 . S
C618 H604 0.930 . S
C618 C616 1.395 . S
C618 C621 1.403 . S
C619 C616 1.403 . S
C619 C620 1.524 . S
C619 C623 1.400 . S
C620 H605 0.960 . S
C620 H606 0.960 . S
C620 H607 0.960 . S
C620 C619 1.524 . S
C621 C618 1.403 . S
C621 C622 1.392 . S
C621 C625 1.495 . S
C622 C621 1.392 . S
C622 C623 1.385 . S
C622 C624 1.478 . S
C623 H617 0.930 . S
C623 C619 1.400 . S
C623 C622 1.385 . S
C624 C622 1.478 . S
C624 C626 1.381 . S
C624 C630 1.383 . S
C625 C621 1.495 . S
C625 H631 0.959 . S
C625 H632 0.961 . S
C625 H633 0.960 . S
C626 C624 1.381 . S
C626 C627 1.394 . S
C626 H634 0.930 . S
C627 C626 1.394 . S
C627 C628 1.383 . S
C627 H635 0.929 . S
C628 C627 1.383 . S
C628 C629 1.377 . S
C629 H613 0.930 . S
C629 C628 1.377 . S
C629 C630 1.379 . S
C630 H614 0.931 . S
C630 C624 1.383 . S
C630 C629 1.379 . S
H631 C625 0.959 . S
H632 C625 0.961 . S
H633 C625 0.960 . S
H634 C626 0.930 . S
H635 C627 0.929 . S
H636 C644 0.929 . S
H637 C646 0.930 . S
H638 C648 0.930 . S
H639 C651 0.929 . S
H640 C654 0.930 . S
H641 C656 0.960 . S
H642 C656 0.960 . S
H643 C656 0.960 . S
C644 H636 0.929 . S
C644 C645 1.377 . S
C644 C646 1.384 . S
C645 C644 1.377 . S
C645 C651 1.390 . S
C646 H637 0.930 . S
C646 C644 1.384 . S
C646 C647 1.372 . S
C647 C646 1.372 . S
C647 C648 1.400 . S
C647 C652 1.490 . S
C648 H638 0.930 . S
C648 C647 1.400 . S
C648 C651 1.386 . S
H649 C665 0.930 . S
H650 C666 0.931 . S
C651 H639 0.929 . S
C651 C645 1.390 . S
C651 C648 1.386 . S
C652 C647 1.490 . S
C652 C654 1.395 . S
C652 C655 1.403 . S
H653 C659 0.930 . S
C654 H640 0.930 . S
C654 C652 1.395 . S
C654 C657 1.403 . S
C655 C652 1.403 . S
C655 C656 1.524 1_545 S
C655 C659 1.400 . S
C656 H641 0.960 . S
C656 H642 0.960 . S
C656 H643 0.960 . S
C656 C655 1.524 1_565 S
C657 C654 1.403 . S
C657 C658 1.392 . S
C657 C661 1.495 . S
C658 C657 1.392 . S
C658 C659 1.385 . S
C658 C660 1.478 . S
C659 H653 0.930 . S
C659 C655 1.400 . S
C659 C658 1.385 . S
C660 C658 1.478 . S
C660 C662 1.381 . S
C660 C666 1.383 . S
C661 C657 1.495 . S
C661 H667 0.959 . S
C661 H668 0.961 . S
C661 H669 0.960 . S
C662 C660 1.381 . S
C662 C663 1.394 . S
C662 H670 0.930 . S
C663 C662 1.394 . S
C663 C664 1.383 . S
C663 H671 0.929 . S
C664 C663 1.383 . S
C664 C665 1.377 . S
C665 H649 0.930 . S
C665 C664 1.377 . S
C665 C666 1.379 . S
C666 H650 0.931 . S
C666 C660 1.383 . S
C666 C665 1.379 . S
H667 C661 0.959 . S
H668 C661 0.961 . S
H669 C661 0.960 . S
H670 C662 0.930 . S
H671 C663 0.929 . S
H672 C680 0.929 . S
H673 C682 0.930 . S
H674 C684 0.930 . S
H675 C687 0.929 . S
H676 C690 0.930 . S
H677 C692 0.960 . S
H678 C692 0.960 . S
H679 C692 0.960 . S
C680 H672 0.929 . S
C680 C681 1.377 . S
C680 C682 1.384 . S
C681 C680 1.377 . S
C681 C687 1.390 . S
C682 H673 0.930 . S
C682 C680 1.384 . S
C682 C683 1.372 . S
C683 C682 1.372 . S
C683 C684 1.400 . S
C683 C688 1.490 . S
C684 H674 0.930 . S
C684 C683 1.400 . S
C684 C687 1.386 . S
H685 C701 0.930 . S
H686 C702 0.931 . S
C687 H675 0.929 . S
C687 C681 1.390 . S
C687 C684 1.386 . S
C688 C683 1.490 . S
C688 C690 1.395 . S
C688 C691 1.403 . S
H689 C695 0.930 . S
C690 H676 0.930 . S
C690 C688 1.395 . S
C690 C693 1.403 1_556 S
C691 C688 1.403 . S
C691 C692 1.524 . S
C691 C695 1.400 1_556 S
C692 H677 0.960 . S
C692 H678 0.960 . S
C692 H679 0.960 . S
C692 C691 1.524 . S
C693 C690 1.403 1_554 S
C693 C694 1.392 . S
C693 C697 1.495 . S
C694 C693 1.392 . S
C694 C695 1.385 . S
C694 C696 1.478 . S
C695 H689 0.930 . S
C695 C691 1.400 1_554 S
C695 C694 1.385 . S
C696 C694 1.478 . S
C696 C698 1.381 . S
C696 C702 1.383 . S
C697 C693 1.495 . S
C697 H703 0.959 . S
C697 H704 0.961 . S
C697 H705 0.960 . S
C698 C696 1.381 . S
C698 C699 1.394 . S
C698 H706 0.930 . S
C699 C698 1.394 . S
C699 C700 1.383 . S
C699 H707 0.929 . S
C700 C699 1.383 . S
C700 C701 1.377 . S
C701 H685 0.930 . S
C701 C700 1.377 . S
C701 C702 1.379 . S
C702 H686 0.931 . S
C702 C696 1.383 . S
C702 C701 1.379 . S
H703 C697 0.959 . S
H704 C697 0.961 . S
H705 C697 0.960 . S
H706 C698 0.930 . S
H707 C699 0.929 . S
H708 C716 0.929 . S
H709 C718 0.930 . S
H710 C720 0.930 . S
H711 C723 0.929 . S
H712 C726 0.930 . S
H713 C728 0.960 . S
H714 C728 0.960 . S
H715 C728 0.960 . S
C716 H708 0.929 . S
C716 C717 1.377 . S
C716 C718 1.384 . S
C717 C716 1.377 . S
C717 C723 1.390 . S
C718 H709 0.930 . S
C718 C716 1.384 . S
C718 C719 1.372 . S
C719 C718 1.372 . S
C719 C720 1.400 . S
C719 C724 1.490 . S
C720 H710 0.930 . S
C720 C719 1.400 . S
C720 C723 1.386 . S
H721 C737 0.930 . S
H722 C738 0.931 . S
C723 H711 0.929 . S
C723 C717 1.390 . S
C723 C720 1.386 . S
C724 C719 1.490 . S
C724 C726 1.395 . S
C724 C727 1.403 . S
H725 C731 0.930 . S
C726 H712 0.930 . S
C726 C724 1.395 . S
C726 C729 1.403 1_556 S
C727 C724 1.403 . S
C727 C728 1.524 . S
C727 C731 1.400 1_556 S
C728 H713 0.960 . S
C728 H714 0.960 . S
C728 H715 0.960 . S
C728 C727 1.524 . S
C729 C726 1.403 1_554 S
C729 C730 1.392 . S
C729 C733 1.495 . S
C730 C729 1.392 . S
C730 C731 1.385 . S
C730 C732 1.478 . S
C731 H725 0.930 . S
C731 C727 1.400 1_554 S
C731 C730 1.385 . S
C732 C730 1.478 . S
C732 C734 1.381 . S
C732 C738 1.383 . S
C733 C729 1.495 . S
C733 H739 0.959 . S
C733 H740 0.961 . S
C733 H741 0.960 . S
C734 C732 1.381 . S
C734 C735 1.394 . S
C734 H742 0.930 . S
C735 C734 1.394 . S
C735 C736 1.383 . S
C735 H743 0.929 . S
C736 C735 1.383 . S
C736 C737 1.377 . S
C737 H721 0.930 . S
C737 C736 1.377 . S
C737 C738 1.379 . S
C738 H722 0.931 . S
C738 C732 1.383 . S
C738 C737 1.379 . S
H739 C733 0.959 . S
H740 C733 0.961 . S
H741 C733 0.960 . S
H742 C734 0.930 . S
H743 C735 0.929 . S
H744 C752 0.929 . S
H745 C754 0.930 . S
H746 C756 0.930 . S
H747 C759 0.929 . S
H748 C762 0.930 . S
H749 C764 0.960 . S
H750 C764 0.960 . S
H751 C764 0.960 . S
C752 H744 0.929 . S
C752 C753 1.377 . S
C752 C754 1.384 . S
C753 C752 1.377 . S
C753 C759 1.390 . S
C754 H745 0.930 . S
C754 C752 1.384 . S
C754 C755 1.372 . S
C755 C754 1.372 . S
C755 C756 1.400 . S
C755 C760 1.490 . S
C756 H746 0.930 . S
C756 C755 1.400 . S
C756 C759 1.386 . S
H757 C773 0.930 . S
H758 C774 0.931 . S
C759 H747 0.929 . S
C759 C753 1.390 . S
C759 C756 1.386 . S
C760 C755 1.490 . S
C760 C762 1.395 . S
C760 C763 1.403 . S
H761 C767 0.930 . S
C762 H748 0.930 . S
C762 C760 1.395 . S
C762 C765 1.403 1_556 S
C763 C760 1.403 . S
C763 C764 1.524 . S
C763 C767 1.400 1_556 S
C764 H749 0.960 . S
C764 H750 0.960 . S
C764 H751 0.960 . S
C764 C763 1.524 . S
C765 C762 1.403 1_554 S
C765 C766 1.392 . S
C765 C769 1.495 . S
C766 C765 1.392 . S
C766 C767 1.385 . S
C766 C768 1.478 . S
C767 H761 0.930 . S
C767 C763 1.400 1_554 S
C767 C766 1.385 . S
C768 C766 1.478 . S
C768 C770 1.381 . S
C768 C774 1.383 . S
C769 C765 1.495 . S
C769 H775 0.959 . S
C769 H776 0.961 . S
C769 H777 0.960 . S
C770 C768 1.381 . S
C770 C771 1.394 . S
C770 H778 0.930 . S
C771 C770 1.394 . S
C771 C772 1.383 . S
C771 H779 0.929 . S
C772 C771 1.383 . S
C772 C773 1.377 . S
C773 H757 0.930 . S
C773 C772 1.377 . S
C773 C774 1.379 . S
C774 H758 0.931 . S
C774 C768 1.383 . S
C774 C773 1.379 . S
H775 C769 0.959 . S
H776 C769 0.961 . S
H777 C769 0.960 . S
H778 C770 0.930 . S
H779 C771 0.929 . S
H780 C788 0.929 . S
H781 C790 0.930 . S
H782 C792 0.930 . S
H783 C795 0.929 . S
H784 C798 0.930 . S
H785 C800 0.960 . S
H786 C800 0.960 . S
H787 C800 0.960 . S
C788 H780 0.929 . S
C788 C789 1.377 . S
C788 C790 1.384 . S
C789 C788 1.377 . S
C789 C795 1.390 . S
C790 H781 0.930 . S
C790 C788 1.384 . S
C790 C791 1.372 . S
C791 C790 1.372 . S
C791 C792 1.400 . S
C791 C796 1.490 . S
C792 H782 0.930 . S
C792 C791 1.400 . S
C792 C795 1.386 . S
H793 C809 0.930 . S
H794 C810 0.931 . S
C795 H783 0.929 . S
C795 C789 1.390 . S
C795 C792 1.386 . S
C796 C791 1.490 . S
C796 C798 1.395 . S
C796 C799 1.403 . S
H797 C803 0.930 . S
C798 H784 0.930 . S
C798 C796 1.395 . S
C798 C801 1.403 1_554 S
C799 C796 1.403 . S
C799 C800 1.524 . S
C799 C803 1.400 1_554 S
C800 H785 0.960 . S
C800 H786 0.960 . S
C800 H787 0.960 . S
C800 C799 1.524 . S
C801 C798 1.403 1_556 S
C801 C802 1.392 . S
C801 C805 1.495 . S
C802 C801 1.392 . S
C802 C803 1.385 . S
C802 C804 1.478 . S
C803 H797 0.930 . S
C803 C799 1.400 1_556 S
C803 C802 1.385 . S
C804 C802 1.478 . S
C804 C806 1.381 . S
C804 C810 1.383 . S
C805 C801 1.495 . S
C805 H811 0.959 . S
C805 H812 0.961 . S
C805 H813 0.960 . S
C806 C804 1.381 . S
C806 C807 1.394 . S
C806 H814 0.930 . S
C807 C806 1.394 . S
C807 C808 1.383 . S
C807 H815 0.929 . S
C808 C807 1.383 . S
C808 C809 1.377 . S
C809 H793 0.930 . S
C809 C808 1.377 . S
C809 C810 1.379 . S
C810 H794 0.931 . S
C810 C804 1.383 . S
C810 C809 1.379 . S
H811 C805 0.959 . S
H812 C805 0.961 . S
H813 C805 0.960 . S
H814 C806 0.930 . S
H815 C807 0.929 . S
H816 C824 0.929 . S
H817 C826 0.930 . S
H818 C828 0.930 . S
H819 C831 0.929 . S
H820 C834 0.930 . S
H821 C836 0.960 . S
H822 C836 0.960 . S
H823 C836 0.960 . S
C824 H816 0.929 . S
C824 C825 1.377 . S
C824 C826 1.384 . S
C825 C824 1.377 . S
C825 C831 1.390 . S
C826 H817 0.930 . S
C826 C824 1.384 . S
C826 C827 1.372 . S
C827 C826 1.372 . S
C827 C828 1.400 . S
C827 C832 1.490 . S
C828 H818 0.930 . S
C828 C827 1.400 . S
C828 C831 1.386 . S
H829 C845 0.930 . S
H830 C846 0.931 . S
C831 H819 0.929 . S
C831 C825 1.390 . S
C831 C828 1.386 . S
C832 C827 1.490 . S
C832 C834 1.395 . S
C832 C835 1.403 . S
H833 C839 0.930 . S
C834 H820 0.930 . S
C834 C832 1.395 . S
C834 C837 1.403 . S
C835 C832 1.403 . S
C835 C836 1.524 . S
C835 C839 1.400 . S
C836 H821 0.960 . S
C836 H822 0.960 . S
C836 H823 0.960 . S
C836 C835 1.524 . S
C837 C834 1.403 . S
C837 C838 1.392 . S
C837 C841 1.495 . S
C838 C837 1.392 . S
C838 C839 1.385 . S
C838 C840 1.478 . S
C839 H833 0.930 . S
C839 C835 1.400 . S
C839 C838 1.385 . S
C840 C838 1.478 . S
C840 C842 1.381 . S
C840 C846 1.383 . S
C841 C837 1.495 . S
C841 H847 0.959 . S
C841 H848 0.961 . S
C841 H849 0.960 . S
C842 C840 1.381 . S
C842 C843 1.394 . S
C842 H850 0.930 . S
C843 C842 1.394 . S
C843 C844 1.383 . S
C843 H851 0.929 . S
C844 C843 1.383 . S
C844 C845 1.377 . S
C845 H829 0.930 . S
C845 C844 1.377 . S
C845 C846 1.379 . S
C846 H830 0.931 . S
C846 C840 1.383 . S
C846 C845 1.379 . S
H847 C841 0.959 . S
H848 C841 0.961 . S
H849 C841 0.960 . S
H850 C842 0.930 . S
H851 C843 0.929 . S
H852 C860 0.929 . S
H853 C862 0.930 . S
H854 C864 0.930 . S
H855 C867 0.929 . S
H856 C870 0.930 . S
H857 C872 0.960 . S
H858 C872 0.960 . S
H859 C872 0.960 . S
C860 H852 0.929 . S
C860 C861 1.377 . S
C860 C862 1.384 . S
C861 C860 1.377 . S
C861 C867 1.390 . S
C862 H853 0.930 . S
C862 C860 1.384 . S
C862 C863 1.372 . S
C863 C862 1.372 . S
C863 C864 1.400 . S
C863 C868 1.490 . S
C864 H854 0.930 . S
C864 C863 1.400 . S
C864 C867 1.386 . S
H865 C881 0.930 . S
H866 C882 0.931 . S
C867 H855 0.929 . S
C867 C861 1.390 . S
C867 C864 1.386 . S
C868 C863 1.490 . S
C868 C870 1.395 . S
C868 C871 1.403 . S
H869 C875 0.930 . S
C870 H856 0.930 . S
C870 C868 1.395 . S
C870 C873 1.403 . S
C871 C868 1.403 . S
C871 C872 1.524 . S
C871 C875 1.400 . S
C872 H857 0.960 . S
C872 H858 0.960 . S
C872 H859 0.960 . S
C872 C871 1.524 . S
C873 C870 1.403 . S
C873 C874 1.392 . S
C873 C877 1.495 . S
C874 C873 1.392 . S
C874 C875 1.385 . S
C874 C876 1.478 . S
C875 H869 0.930 . S
C875 C871 1.400 . S
C875 C874 1.385 . S
C876 C874 1.478 . S
C876 C878 1.381 . S
C876 C882 1.383 . S
C877 C873 1.495 . S
C877 H883 0.959 . S
C877 H884 0.961 . S
C877 H885 0.960 . S
C878 C876 1.381 . S
C878 C879 1.394 . S
C878 H886 0.930 . S
C879 C878 1.394 . S
C879 C880 1.383 . S
C879 H887 0.929 . S
C880 C879 1.383 . S
C880 C881 1.377 . S
C881 H865 0.930 . S
C881 C880 1.377 . S
C881 C882 1.379 . S
C882 H866 0.931 . S
C882 C876 1.383 . S
C882 C881 1.379 . S
H883 C877 0.959 . S
H884 C877 0.961 . S
H885 C877 0.960 . S
H886 C878 0.930 . S
H887 C879 0.929 . S
H888 C896 0.929 . S
H889 C898 0.930 . S
H890 C900 0.930 . S
H891 C903 0.929 . S
H892 C906 0.930 . S
H893 C908 0.960 . S
H894 C908 0.960 . S
H895 C908 0.960 . S
C896 H888 0.929 . S
C896 C897 1.377 . S
C896 C898 1.384 . S
C897 C896 1.377 . S
C897 C903 1.390 . S
C898 H889 0.930 . S
C898 C896 1.384 . S
C898 C899 1.372 . S
C899 C898 1.372 . S
C899 C900 1.400 . S
C899 C904 1.490 . S
C900 H890 0.930 . S
C900 C899 1.400 . S
C900 C903 1.386 . S
H901 C917 0.930 . S
H902 C918 0.931 . S
C903 H891 0.929 . S
C903 C897 1.390 . S
C903 C900 1.386 . S
C904 C899 1.490 . S
C904 C906 1.395 . S
C904 C907 1.403 . S
H905 C911 0.930 . S
C906 H892 0.930 . S
C906 C904 1.395 . S
C906 C909 1.403 . S
C907 C904 1.403 . S
C907 C908 1.524 . S
C907 C911 1.400 . S
C908 H893 0.960 . S
C908 H894 0.960 . S
C908 H895 0.960 . S
C908 C907 1.524 . S
C909 C906 1.403 . S
C909 C910 1.392 . S
C909 C913 1.495 . S
C910 C909 1.392 . S
C910 C911 1.385 . S
C910 C912 1.478 . S
C911 H905 0.930 . S
C911 C907 1.400 . S
C911 C910 1.385 . S
C912 C910 1.478 . S
C912 C914 1.381 . S
C912 C918 1.383 . S
C913 C909 1.495 . S
C913 H919 0.959 . S
C913 H920 0.961 . S
C913 H921 0.960 . S
C914 C912 1.381 . S
C914 C915 1.394 . S
C914 H922 0.930 . S
C915 C914 1.394 . S
C915 C916 1.383 1_655 S
C915 H923 0.929 . S
C916 C915 1.383 1_455 S
C916 C917 1.377 . S
C917 H901 0.930 . S
C917 C916 1.377 . S
C917 C918 1.379 1_455 S
C918 H902 0.931 . S
C918 C912 1.383 . S
C918 C917 1.379 1_655 S
H919 C913 0.959 . S
H920 C913 0.961 . S
H921 C913 0.960 . S
H922 C914 0.930 . S
H923 C915 0.929 . S
H924 C932 0.929 . S
H925 C934 0.930 . S
H926 C936 0.930 . S
H927 C939 0.929 . S
H928 C942 0.930 . S
H929 C944 0.960 . S
H930 C944 0.960 . S
H931 C944 0.960 . S
C932 H924 0.929 . S
C932 C933 1.377 . S
C932 C934 1.384 1_545 S
C933 C932 1.377 . S
C933 C939 1.390 1_545 S
C934 H925 0.930 . S
C934 C932 1.384 1_565 S
C934 C935 1.372 . S
C935 C934 1.372 . S
C935 C936 1.400 . S
C935 C940 1.490 . S
C936 H926 0.930 . S
C936 C935 1.400 . S
C936 C939 1.386 . S
H937 C953 0.930 . S
H938 C954 0.931 . S
C939 H927 0.929 . S
C939 C933 1.390 1_565 S
C939 C936 1.386 . S
C940 C935 1.490 . S
C940 C942 1.395 . S
C940 C943 1.403 . S
H941 C947 0.930 . S
C942 H928 0.930 . S
C942 C940 1.395 . S
C942 C945 1.403 . S
C943 C940 1.403 . S
C943 C944 1.524 . S
C943 C947 1.400 . S
C944 H929 0.960 . S
C944 H930 0.960 . S
C944 H931 0.960 . S
C944 C943 1.524 . S
C945 C942 1.403 . S
C945 C946 1.392 . S
C945 C949 1.495 . S
C946 C945 1.392 . S
C946 C947 1.385 . S
C946 C948 1.478 . S
C947 H941 0.930 . S
C947 C943 1.400 . S
C947 C946 1.385 . S
C948 C946 1.478 . S
C948 C950 1.381 . S
C948 C954 1.383 . S
C949 C945 1.495 . S
C949 H955 0.959 . S
C949 H956 0.961 . S
C949 H957 0.960 . S
C950 C948 1.381 . S
C950 C951 1.394 . S
C950 H958 0.930 . S
C951 C950 1.394 . S
C951 C952 1.383 . S
C951 H959 0.929 . S
C952 C951 1.383 . S
C952 C953 1.377 . S
C953 H937 0.930 . S
C953 C952 1.377 . S
C953 C954 1.379 . S
C954 H938 0.931 . S
C954 C948 1.383 . S
C954 C953 1.379 . S
H955 C949 0.959 . S
H956 C949 0.961 . S
H957 C949 0.960 . S
H958 C950 0.930 . S
H959 C951 0.929 . S
H960 C968 0.929 . S
H961 C970 0.930 . S
H962 C972 0.930 . S
H963 C975 0.929 . S
H964 C978 0.930 . S
H965 C980 0.960 . S
H966 C980 0.960 . S
H967 C980 0.960 . S
C968 H960 0.929 . S
C968 C969 1.377 . S
C968 C970 1.384 . S
C969 C968 1.377 . S
C969 C975 1.390 . S
C970 H961 0.930 . S
C970 C968 1.384 . S
C970 C971 1.372 . S
C971 C970 1.372 . S
C971 C972 1.400 . S
C971 C976 1.490 . S
C972 H962 0.930 . S
C972 C971 1.400 . S
C972 C975 1.386 . S
H973 C989 0.930 . S
H974 C990 0.931 . S
C975 H963 0.929 . S
C975 C969 1.390 . S
C975 C972 1.386 . S
C976 C971 1.490 . S
C976 C978 1.395 . S
C976 C979 1.403 . S
H977 C983 0.930 . S
C978 H964 0.930 . S
C978 C976 1.395 . S
C978 C981 1.403 . S
C979 C976 1.403 . S
C979 C980 1.524 . S
C979 C983 1.400 . S
C980 H965 0.960 . S
C980 H966 0.960 . S
C980 H967 0.960 . S
C980 C979 1.524 . S
C981 C978 1.403 . S
C981 C982 1.392 . S
C981 C985 1.495 . S
C982 C981 1.392 . S
C982 C983 1.385 . S
C982 C984 1.478 . S
C983 H977 0.930 . S
C983 C979 1.400 . S
C983 C982 1.385 . S
C984 C982 1.478 . S
C984 C986 1.381 . S
C984 C990 1.383 . S
C985 C981 1.495 . S
C985 H991 0.959 . S
C985 H992 0.961 . S
C985 H993 0.960 . S
C986 C984 1.381 . S
C986 C987 1.394 . S
C986 H994 0.930 . S
C987 C986 1.394 . S
C987 C988 1.383 . S
C987 H995 0.929 . S
C988 C987 1.383 . S
C988 C989 1.377 . S
C989 H973 0.930 . S
C989 C988 1.377 . S
C989 C990 1.379 . S
C990 H974 0.931 . S
C990 C984 1.383 . S
C990 C989 1.379 . S
H991 C985 0.959 . S
H992 C985 0.961 . S
H993 C985 0.960 . S
H994 C986 0.930 . S
H995 C987 0.929 . S
H996 C1004 0.929 . S
H997 C1006 0.930 . S
H998 C1008 0.930 . S
H999 C1011 0.929 . S
H1000 C1014 0.930 . S
H1001 C1016 0.960 . S
H1002 C1016 0.960 . S
H1003 C1016 0.960 . S
C1004 H996 0.929 . S
C1004 C1005 1.377 . S
C1004 C1006 1.384 . S
C1005 C1004 1.377 . S
C1005 C1011 1.390 . S
C1006 H997 0.930 . S
C1006 C1004 1.384 . S
C1006 C1007 1.372 . S
C1007 C1006 1.372 . S
C1007 C1008 1.400 . S
C1007 C1012 1.490 . S
C1008 H998 0.930 . S
C1008 C1007 1.400 . S
C1008 C1011 1.386 . S
H1009 C1025 0.930 . S
H1010 C1026 0.931 . S
C1011 H999 0.929 . S
C1011 C1005 1.390 . S
C1011 C1008 1.386 . S
C1012 C1007 1.490 . S
C1012 C1014 1.395 . S
C1012 C1015 1.403 . S
H1013 C1019 0.930 . S
C1014 H1000 0.930 . S
C1014 C1012 1.395 . S
C1014 C1017 1.403 . S
C1015 C1012 1.403 . S
C1015 C1016 1.524 . S
C1015 C1019 1.400 . S
C1016 H1001 0.960 . S
C1016 H1002 0.960 . S
C1016 H1003 0.960 . S
C1016 C1015 1.524 . S
C1017 C1014 1.403 . S
C1017 C1018 1.392 . S
C1017 C1021 1.495 . S
C1018 C1017 1.392 . S
C1018 C1019 1.385 . S
C1018 C1020 1.478 . S
C1019 H1013 0.930 . S
C1019 C1015 1.400 . S
C1019 C1018 1.385 . S
C1020 C1018 1.478 . S
C1020 C1022 1.381 . S
C1020 C1026 1.383 . S
C1021 C1017 1.495 . S
C1021 H1027 0.959 . S
C1021 H1028 0.961 . S
C1021 H1029 0.960 . S
C1022 C1020 1.381 . S
C1022 C1023 1.394 . S
C1022 H1030 0.930 . S
C1023 C1022 1.394 . S
C1023 C1024 1.383 . S
C1023 H1031 0.929 . S
C1024 C1023 1.383 . S
C1024 C1025 1.377 . S
C1025 H1009 0.930 . S
C1025 C1024 1.377 . S
C1025 C1026 1.379 . S
C1026 H1010 0.931 . S
C1026 C1020 1.383 . S
C1026 C1025 1.379 . S
H1027 C1021 0.959 . S
H1028 C1021 0.961 . S
H1029 C1021 0.960 . S
H1030 C1022 0.930 . S
H1031 C1023 0.929 . S
H1032 C1040 0.929 . S
H1033 C1042 0.930 . S
H1034 C1044 0.930 . S
H1035 C1047 0.929 . S
H1036 C1050 0.930 . S
H1037 C1052 0.960 . S
H1038 C1052 0.960 . S
H1039 C1052 0.960 . S
C1040 H1032 0.929 . S
C1040 C1041 1.377 . S
C1040 C1042 1.384 . S
C1041 C1040 1.377 . S
C1041 C1047 1.390 . S
C1042 H1033 0.930 . S
C1042 C1040 1.384 . S
C1042 C1043 1.372 . S
C1043 C1042 1.372 . S
C1043 C1044 1.400 . S
C1043 C1048 1.490 . S
C1044 H1034 0.930 . S
C1044 C1043 1.400 . S
C1044 C1047 1.386 . S
H1045 C1061 0.930 . S
H1046 C1062 0.931 . S
C1047 H1035 0.929 . S
C1047 C1041 1.390 . S
C1047 C1044 1.386 . S
C1048 C1043 1.490 . S
C1048 C1050 1.395 . S
C1048 C1051 1.403 . S
H1049 C1055 0.930 . S
C1050 H1036 0.930 . S
C1050 C1048 1.395 . S
C1050 C1053 1.403 . S
C1051 C1048 1.403 . S
C1051 C1052 1.524 . S
C1051 C1055 1.400 . S
C1052 H1037 0.960 . S
C1052 H1038 0.960 . S
C1052 H1039 0.960 . S
C1052 C1051 1.524 . S
C1053 C1050 1.403 . S
C1053 C1054 1.392 . S
C1053 C1057 1.495 . S
C1054 C1053 1.392 . S
C1054 C1055 1.385 . S
C1054 C1056 1.478 . S
C1055 H1049 0.930 . S
C1055 C1051 1.400 . S
C1055 C1054 1.385 . S
C1056 C1054 1.478 . S
C1056 C1058 1.381 . S
C1056 C1062 1.383 . S
C1057 C1053 1.495 . S
C1057 H1063 0.959 . S
C1057 H1064 0.961 . S
C1057 H1065 0.960 . S
C1058 C1056 1.381 . S
C1058 C1059 1.394 1_655 S
C1058 H1066 0.930 . S
C1059 C1058 1.394 1_455 S
C1059 C1060 1.383 . S
C1059 H1067 0.929 . S
C1060 C1059 1.383 . S
C1060 C1061 1.377 1_455 S
C1061 H1045 0.930 . S
C1061 C1060 1.377 1_655 S
C1061 C1062 1.379 . S
C1062 H1046 0.931 . S
C1062 C1056 1.383 . S
C1062 C1061 1.379 . S
H1063 C1057 0.959 . S
H1064 C1057 0.961 . S
H1065 C1057 0.960 . S
H1066 C1058 0.930 . S
H1067 C1059 0.929 . S
H1068 C1076 0.929 . S
H1069 C1078 0.930 . S
H1070 C1080 0.930 . S
H1071 C1083 0.929 . S
H1072 C1086 0.930 . S
H1073 C1088 0.960 . S
H1074 C1088 0.960 . S
H1075 C1088 0.960 . S
C1076 H1068 0.929 . S
C1076 C1077 1.377 . S
C1076 C1078 1.384 . S
C1077 C1076 1.377 . S
C1077 C1083 1.390 . S
C1078 H1069 0.930 . S
C1078 C1076 1.384 . S
C1078 C1079 1.372 . S
C1079 C1078 1.372 . S
C1079 C1080 1.400 . S
C1079 C1084 1.490 . S
C1080 H1070 0.930 . S
C1080 C1079 1.400 . S
C1080 C1083 1.386 . S
H1081 C1097 0.930 . S
H1082 C1098 0.931 . S
C1083 H1071 0.929 . S
C1083 C1077 1.390 . S
C1083 C1080 1.386 . S
C1084 C1079 1.490 . S
C1084 C1086 1.395 . S
C1084 C1087 1.403 . S
H1085 C1091 0.930 . S
C1086 H1072 0.930 . S
C1086 C1084 1.395 . S
C1086 C1089 1.403 . S
C1087 C1084 1.403 . S
C1087 C1088 1.524 . S
C1087 C1091 1.400 . S
C1088 H1073 0.960 . S
C1088 H1074 0.960 . S
C1088 H1075 0.960 . S
C1088 C1087 1.524 . S
C1089 C1086 1.403 . S
C1089 C1090 1.392 . S
C1089 C1093 1.495 . S
C1090 C1089 1.392 . S
C1090 C1091 1.385 . S
C1090 C1092 1.478 . S
C1091 H1085 0.930 . S
C1091 C1087 1.400 . S
C1091 C1090 1.385 . S
C1092 C1090 1.478 . S
C1092 C1094 1.381 . S
C1092 C1098 1.383 . S
C1093 C1089 1.495 . S
C1093 H1099 0.959 . S
C1093 H1100 0.961 . S
C1093 H1101 0.960 . S
C1094 C1092 1.381 . S
C1094 C1095 1.394 1_565 S
C1094 H1102 0.930 . S
C1095 C1094 1.394 1_545 S
C1095 C1096 1.383 . S
C1095 H1103 0.929 . S
C1096 C1095 1.383 . S
C1096 C1097 1.377 . S
C1097 H1081 0.930 . S
C1097 C1096 1.377 . S
C1097 C1098 1.379 1_545 S
C1098 H1082 0.931 . S
C1098 C1092 1.383 . S
C1098 C1097 1.379 1_565 S
H1099 C1093 0.959 . S
H1100 C1093 0.961 . S
H1101 C1093 0.960 . S
H1102 C1094 0.930 . S
H1103 C1095 0.929 . S
H1104 C1112 0.929 . S
H1105 C1114 0.930 . S
H1106 C1116 0.930 . S
H1107 C1119 0.929 . S
H1108 C1122 0.930 . S
H1109 C1124 0.960 . S
H1110 C1124 0.960 . S
H1111 C1124 0.960 . S
C1112 H1104 0.929 . S
C1112 C1113 1.377 . S
C1112 C1114 1.384 . S
C1113 C1112 1.377 . S
C1113 C1119 1.390 . S
C1114 H1105 0.930 . S
C1114 C1112 1.384 . S
C1114 C1115 1.372 . S
C1115 C1114 1.372 . S
C1115 C1116 1.400 . S
C1115 C1120 1.490 . S
C1116 H1106 0.930 . S
C1116 C1115 1.400 . S
C1116 C1119 1.386 . S
H1117 C1133 0.930 . S
H1118 C1134 0.931 . S
C1119 H1107 0.929 . S
C1119 C1113 1.390 . S
C1119 C1116 1.386 . S
C1120 C1115 1.490 . S
C1120 C1122 1.395 . S
C1120 C1123 1.403 . S
H1121 C1127 0.930 . S
C1122 H1108 0.930 . S
C1122 C1120 1.395 . S
C1122 C1125 1.403 . S
C1123 C1120 1.403 . S
C1123 C1124 1.524 . S
C1123 C1127 1.400 . S
C1124 H1109 0.960 . S
C1124 H1110 0.960 . S
C1124 H1111 0.960 . S
C1124 C1123 1.524 . S
C1125 C1122 1.403 . S
C1125 C1126 1.392 . S
C1125 C1129 1.495 . S
C1126 C1125 1.392 . S
C1126 C1127 1.385 . S
C1126 C1128 1.478 . S
C1127 H1121 0.930 . S
C1127 C1123 1.400 . S
C1127 C1126 1.385 . S
C1128 C1126 1.478 . S
C1128 C1130 1.381 . S
C1128 C1134 1.383 . S
C1129 C1125 1.495 . S
C1129 H1135 0.959 . S
C1129 H1136 0.961 . S
C1129 H1137 0.960 . S
C1130 C1128 1.381 . S
C1130 C1131 1.394 . S
C1130 H1138 0.930 . S
C1131 C1130 1.394 . S
C1131 C1132 1.383 . S
C1131 H1139 0.929 . S
C1132 C1131 1.383 . S
C1132 C1133 1.377 . S
C1133 H1117 0.930 . S
C1133 C1132 1.377 . S
C1133 C1134 1.379 . S
C1134 H1118 0.931 . S
C1134 C1128 1.383 . S
C1134 C1133 1.379 . S
H1135 C1129 0.959 . S
H1136 C1129 0.961 . S
H1137 C1129 0.960 . S
H1138 C1130 0.930 . S
H1139 C1131 0.929 . S
H1140 C1148 0.929 . S
H1141 C1150 0.930 . S
H1142 C1152 0.930 . S
H1143 C1155 0.929 . S
H1144 C1158 0.930 . S
H1145 C1160 0.960 . S
H1146 C1160 0.960 . S
H1147 C1160 0.960 . S
C1148 H1140 0.929 . S
C1148 C1149 1.377 . S
C1148 C1150 1.384 . S
C1149 C1148 1.377 . S
C1149 C1155 1.390 . S
C1150 H1141 0.930 . S
C1150 C1148 1.384 . S
C1150 C1151 1.372 . S
C1151 C1150 1.372 . S
C1151 C1152 1.400 . S
C1151 C1156 1.490 . S
C1152 H1142 0.930 . S
C1152 C1151 1.400 . S
C1152 C1155 1.386 . S
H1153 C1169 0.930 . S
H1154 C1170 0.931 . S
C1155 H1143 0.929 . S
C1155 C1149 1.390 . S
C1155 C1152 1.386 . S
C1156 C1151 1.490 . S
C1156 C1158 1.395 . S
C1156 C1159 1.403 . S
H1157 C1163 0.930 . S
C1158 H1144 0.930 . S
C1158 C1156 1.395 . S
C1158 C1161 1.403 . S
C1159 C1156 1.403 . S
C1159 C1160 1.524 . S
C1159 C1163 1.400 . S
C1160 H1145 0.960 . S
C1160 H1146 0.960 . S
C1160 H1147 0.960 . S
C1160 C1159 1.524 . S
C1161 C1158 1.403 . S
C1161 C1162 1.392 . S
C1161 C1165 1.495 . S
C1162 C1161 1.392 . S
C1162 C1163 1.385 . S
C1162 C1164 1.478 . S
C1163 H1157 0.930 . S
C1163 C1159 1.400 . S
C1163 C1162 1.385 . S
C1164 C1162 1.478 . S
C1164 C1166 1.381 . S
C1164 C1170 1.383 . S
C1165 C1161 1.495 . S
C1165 H1171 0.959 . S
C1165 H1172 0.961 . S
C1165 H1173 0.960 . S
C1166 C1164 1.381 . S
C1166 C1167 1.394 . S
C1166 H1174 0.930 . S
C1167 C1166 1.394 . S
C1167 C1168 1.383 . S
C1167 H1175 0.929 . S
C1168 C1167 1.383 . S
C1168 C1169 1.377 . S
C1169 H1153 0.930 . S
C1169 C1168 1.377 . S
C1169 C1170 1.379 . S
C1170 H1154 0.931 . S
C1170 C1164 1.383 . S
C1170 C1169 1.379 . S
H1171 C1165 0.959 . S
H1172 C1165 0.961 . S
H1173 C1165 0.960 . S
H1174 C1166 0.930 . S
H1175 C1167 0.929 . S
H1176 C1184 0.929 . S
H1177 C1186 0.930 . S
H1178 C1188 0.930 . S
H1179 C1191 0.929 . S
H1180 C1194 0.930 . S
H1181 C1196 0.960 . S
H1182 C1196 0.960 . S
H1183 C1196 0.960 . S
C1184 H1176 0.929 . S
C1184 C1185 1.377 . S
C1184 C1186 1.384 . S
C1185 C1184 1.377 . S
C1185 C1191 1.390 . S
C1186 H1177 0.930 . S
C1186 C1184 1.384 . S
C1186 C1187 1.372 . S
C1187 C1186 1.372 . S
C1187 C1188 1.400 . S
C1187 C1192 1.490 . S
C1188 H1178 0.930 . S
C1188 C1187 1.400 . S
C1188 C1191 1.386 . S
H1189 C1205 0.930 . S
H1190 C1206 0.931 . S
C1191 H1179 0.929 . S
C1191 C1185 1.390 . S
C1191 C1188 1.386 . S
C1192 C1187 1.490 . S
C1192 C1194 1.395 . S
C1192 C1195 1.403 . S
H1193 C1199 0.930 . S
C1194 H1180 0.930 . S
C1194 C1192 1.395 . S
C1194 C1197 1.403 . S
C1195 C1192 1.403 . S
C1195 C1196 1.524 . S
C1195 C1199 1.400 . S
C1196 H1181 0.960 . S
C1196 H1182 0.960 . S
C1196 H1183 0.960 . S
C1196 C1195 1.524 . S
C1197 C1194 1.403 . S
C1197 C1198 1.392 . S
C1197 C1201 1.495 . S
C1198 C1197 1.392 . S
C1198 C1199 1.385 . S
C1198 C1200 1.478 . S
C1199 H1193 0.930 . S
C1199 C1195 1.400 . S
C1199 C1198 1.385 . S
C1200 C1198 1.478 . S
C1200 C1202 1.381 . S
C1200 C1206 1.383 . S
C1201 C1197 1.495 . S
C1201 H1207 0.959 . S
C1201 H1208 0.961 . S
C1201 H1209 0.960 . S
C1202 C1200 1.381 . S
C1202 C1203 1.394 . S
C1202 H1210 0.930 . S
C1203 C1202 1.394 . S
C1203 C1204 1.383 . S
C1203 H1211 0.929 . S
C1204 C1203 1.383 . S
C1204 C1205 1.377 . S
C1205 H1189 0.930 . S
C1205 C1204 1.377 . S
C1205 C1206 1.379 . S
C1206 H1190 0.931 . S
C1206 C1200 1.383 . S
C1206 C1205 1.379 . S
H1207 C1201 0.959 . S
H1208 C1201 0.961 . S
H1209 C1201 0.960 . S
H1210 C1202 0.930 . S
H1211 C1203 0.929 . S
H1212 C1220 0.929 . S
H1213 C1222 0.930 . S
H1214 C1224 0.930 . S
H1215 C1227 0.929 . S
H1216 C1230 0.930 . S
H1217 C1232 0.960 . S
H1218 C1232 0.960 . S
H1219 C1232 0.960 . S
C1220 H1212 0.929 . S
C1220 C1221 1.377 . S
C1220 C1222 1.384 . S
C1221 C1220 1.377 . S
C1221 C1227 1.390 . S
C1222 H1213 0.930 . S
C1222 C1220 1.384 . S
C1222 C1223 1.372 . S
C1223 C1222 1.372 . S
C1223 C1224 1.400 . S
C1223 C1228 1.490 . S
C1224 H1214 0.930 . S
C1224 C1223 1.400 . S
C1224 C1227 1.386 . S
H1225 C1241 0.930 . S
H1226 C1242 0.931 . S
C1227 H1215 0.929 . S
C1227 C1221 1.390 . S
C1227 C1224 1.386 . S
C1228 C1223 1.490 . S
C1228 C1230 1.395 . S
C1228 C1231 1.403 . S
H1229 C1235 0.930 . S
C1230 H1216 0.930 . S
C1230 C1228 1.395 . S
C1230 C1233 1.403 . S
C1231 C1228 1.403 . S
C1231 C1232 1.524 . S
C1231 C1235 1.400 . S
C1232 H1217 0.960 . S
C1232 H1218 0.960 . S
C1232 H1219 0.960 . S
C1232 C1231 1.524 . S
C1233 C1230 1.403 . S
C1233 C1234 1.392 . S
C1233 C1237 1.495 . S
C1234 C1233 1.392 . S
C1234 C1235 1.385 . S
C1234 C1236 1.478 . S
C1235 H1229 0.930 . S
C1235 C1231 1.400 . S
C1235 C1234 1.385 . S
C1236 C1234 1.478 . S
C1236 C1238 1.381 . S
C1236 C1242 1.383 . S
C1237 C1233 1.495 . S
C1237 H1243 0.959 . S
C1237 H1244 0.961 . S
C1237 H1245 0.960 . S
C1238 C1236 1.381 . S
C1238 C1239 1.394 . S
C1238 H1246 0.930 . S
C1239 C1238 1.394 . S
C1239 C1240 1.383 . S
C1239 H1247 0.929 . S
C1240 C1239 1.383 . S
C1240 C1241 1.377 . S
C1241 H1225 0.930 . S
C1241 C1240 1.377 . S
C1241 C1242 1.379 . S
C1242 H1226 0.931 . S
C1242 C1236 1.383 . S
C1242 C1241 1.379 . S
H1243 C1237 0.959 . S
H1244 C1237 0.961 . S
H1245 C1237 0.960 . S
H1246 C1238 0.930 . S
H1247 C1239 0.929 . S
H1248 C1256 0.929 . S
H1249 C1258 0.930 . S
H1250 C1260 0.930 . S
H1251 C1263 0.929 . S
H1252 C1266 0.930 . S
H1253 C1268 0.960 . S
H1254 C1268 0.960 . S
H1255 C1268 0.960 . S
C1256 H1248 0.929 . S
C1256 C1257 1.377 . S
C1256 C1258 1.384 . S
C1257 C1256 1.377 . S
C1257 C1263 1.390 . S
C1258 H1249 0.930 . S
C1258 C1256 1.384 . S
C1258 C1259 1.372 . S
C1259 C1258 1.372 . S
C1259 C1260 1.400 . S
C1259 C1264 1.490 . S
C1260 H1250 0.930 . S
C1260 C1259 1.400 . S
C1260 C1263 1.386 . S
H1261 C1277 0.930 . S
H1262 C1278 0.931 . S
C1263 H1251 0.929 . S
C1263 C1257 1.390 . S
C1263 C1260 1.386 . S
C1264 C1259 1.490 . S
C1264 C1266 1.395 . S
C1264 C1267 1.403 . S
H1265 C1271 0.930 . S
C1266 H1252 0.930 . S
C1266 C1264 1.395 . S
C1266 C1269 1.403 . S
C1267 C1264 1.403 . S
C1267 C1268 1.524 . S
C1267 C1271 1.400 . S
C1268 H1253 0.960 . S
C1268 H1254 0.960 . S
C1268 H1255 0.960 . S
C1268 C1267 1.524 . S
C1269 C1266 1.403 . S
C1269 C1270 1.392 . S
C1269 C1273 1.495 . S
C1270 C1269 1.392 . S
C1270 C1271 1.385 . S
C1270 C1272 1.478 . S
C1271 H1265 0.930 . S
C1271 C1267 1.400 . S
C1271 C1270 1.385 . S
C1272 C1270 1.478 . S
C1272 C1274 1.381 . S
C1272 C1278 1.383 . S
C1273 C1269 1.495 . S
C1273 H1279 0.959 . S
C1273 H1280 0.961 . S
C1273 H1281 0.960 . S
C1274 C1272 1.381 . S
C1274 C1275 1.394 . S
C1274 H1282 0.930 . S
C1275 C1274 1.394 . S
C1275 C1276 1.383 . S
C1275 H1283 0.929 . S
C1276 C1275 1.383 . S
C1276 C1277 1.377 . S
C1277 H1261 0.930 . S
C1277 C1276 1.377 . S
C1277 C1278 1.379 . S
C1278 H1262 0.931 . S
C1278 C1272 1.383 . S
C1278 C1277 1.379 . S
H1279 C1273 0.959 . S
H1280 C1273 0.961 . S
H1281 C1273 0.960 . S
H1282 C1274 0.930 . S
H1283 C1275 0.929 . S
H1284 C1292 0.929 . S
H1285 C1294 0.930 . S
H1286 C1296 0.930 . S
H1287 C1299 0.929 . S
H1288 C1302 0.930 . S
H1289 C1304 0.960 . S
H1290 C1304 0.960 . S
H1291 C1304 0.960 . S
C1292 H1284 0.929 . S
C1292 C1293 1.377 . S
C1292 C1294 1.384 . S
C1293 C1292 1.377 . S
C1293 C1299 1.390 . S
C1294 H1285 0.930 . S
C1294 C1292 1.384 . S
C1294 C1295 1.372 . S
C1295 C1294 1.372 . S
C1295 C1296 1.400 . S
C1295 C1300 1.490 . S
C1296 H1286 0.930 . S
C1296 C1295 1.400 . S
C1296 C1299 1.386 . S
H1297 C1313 0.930 . S
H1298 C1314 0.931 . S
C1299 H1287 0.929 . S
C1299 C1293 1.390 . S
C1299 C1296 1.386 . S
C1300 C1295 1.490 . S
C1300 C1302 1.395 . S
C1300 C1303 1.403 . S
H1301 C1307 0.930 . S
C1302 H1288 0.930 . S
C1302 C1300 1.395 . S
C1302 C1305 1.403 . S
C1303 C1300 1.403 . S
C1303 C1304 1.524 . S
C1303 C1307 1.400 . S
C1304 H1289 0.960 . S
C1304 H1290 0.960 . S
C1304 H1291 0.960 . S
C1304 C1303 1.524 . S
C1305 C1302 1.403 . S
C1305 C1306 1.392 . S
C1305 C1309 1.495 . S
C1306 C1305 1.392 . S
C1306 C1307 1.385 . S
C1306 C1308 1.478 . S
C1307 H1301 0.930 . S
C1307 C1303 1.400 . S
C1307 C1306 1.385 . S
C1308 C1306 1.478 . S
C1308 C1310 1.381 . S
C1308 C1314 1.383 . S
C1309 C1305 1.495 . S
C1309 H1315 0.959 . S
C1309 H1316 0.961 . S
C1309 H1317 0.960 . S
C1310 C1308 1.381 . S
C1310 C1311 1.394 . S
C1310 H1318 0.930 . S
C1311 C1310 1.394 . S
C1311 C1312 1.383 . S
C1311 H1319 0.929 . S
C1312 C1311 1.383 . S
C1312 C1313 1.377 . S
C1313 H1297 0.930 . S
C1313 C1312 1.377 . S
C1313 C1314 1.379 . S
C1314 H1298 0.931 . S
C1314 C1308 1.383 . S
C1314 C1313 1.379 . S
H1315 C1309 0.959 . S
H1316 C1309 0.961 . S
H1317 C1309 0.960 . S
H1318 C1310 0.930 . S
H1319 C1311 0.929 . S
H1320 C1328 0.929 . S
H1321 C1330 0.930 . S
H1322 C1332 0.930 . S
H1323 C1335 0.929 . S
H1324 C1338 0.930 . S
H1325 C1340 0.960 . S
H1326 C1340 0.960 . S
H1327 C1340 0.960 . S
C1328 H1320 0.929 . S
C1328 C1329 1.377 . S
C1328 C1330 1.384 . S
C1329 C1328 1.377 . S
C1329 C1335 1.390 . S
C1330 H1321 0.930 . S
C1330 C1328 1.384 . S
C1330 C1331 1.372 . S
C1331 C1330 1.372 . S
C1331 C1332 1.400 . S
C1331 C1336 1.490 . S
C1332 H1322 0.930 . S
C1332 C1331 1.400 . S
C1332 C1335 1.386 . S
H1333 C1349 0.930 . S
H1334 C1350 0.931 . S
C1335 H1323 0.929 . S
C1335 C1329 1.390 . S
C1335 C1332 1.386 . S
C1336 C1331 1.490 . S
C1336 C1338 1.395 . S
C1336 C1339 1.403 . S
H1337 C1343 0.930 . S
C1338 H1324 0.930 . S
C1338 C1336 1.395 . S
C1338 C1341 1.403 . S
C1339 C1336 1.403 . S
C1339 C1340 1.524 . S
C1339 C1343 1.400 . S
C1340 H1325 0.960 . S
C1340 H1326 0.960 . S
C1340 H1327 0.960 . S
C1340 C1339 1.524 . S
C1341 C1338 1.403 . S
C1341 C1342 1.392 . S
C1341 C1345 1.495 . S
C1342 C1341 1.392 . S
C1342 C1343 1.385 . S
C1342 C1344 1.478 . S
C1343 H1337 0.930 . S
C1343 C1339 1.400 . S
C1343 C1342 1.385 . S
C1344 C1342 1.478 . S
C1344 C1346 1.381 . S
C1344 C1350 1.383 . S
C1345 C1341 1.495 . S
C1345 H1351 0.959 . S
C1345 H1352 0.961 . S
C1345 H1353 0.960 . S
C1346 C1344 1.381 . S
C1346 C1347 1.394 . S
C1346 H1354 0.930 . S
C1347 C1346 1.394 . S
C1347 C1348 1.383 . S
C1347 H1355 0.929 . S
C1348 C1347 1.383 . S
C1348 C1349 1.377 . S
C1349 H1333 0.930 . S
C1349 C1348 1.377 . S
C1349 C1350 1.379 . S
C1350 H1334 0.931 . S
C1350 C1344 1.383 . S
C1350 C1349 1.379 . S
H1351 C1345 0.959 . S
H1352 C1345 0.961 . S
H1353 C1345 0.960 . S
H1354 C1346 0.930 . S
H1355 C1347 0.929 . S
H1356 C1364 0.929 . S
H1357 C1366 0.930 . S
H1358 C1368 0.930 . S
H1359 C1371 0.929 . S
H1360 C1374 0.930 . S
H1361 C1376 0.960 . S
H1362 C1376 0.960 . S
H1363 C1376 0.960 . S
C1364 H1356 0.929 . S
C1364 C1365 1.377 . S
C1364 C1366 1.384 . S
C1365 C1364 1.377 . S
C1365 C1371 1.390 . S
C1366 H1357 0.930 . S
C1366 C1364 1.384 . S
C1366 C1367 1.372 . S
C1367 C1366 1.372 . S
C1367 C1368 1.400 . S
C1367 C1372 1.490 . S
C1368 H1358 0.930 . S
C1368 C1367 1.400 . S
C1368 C1371 1.386 . S
H1369 C1385 0.930 . S
H1370 C1386 0.931 . S
C1371 H1359 0.929 . S
C1371 C1365 1.390 . S
C1371 C1368 1.386 . S
C1372 C1367 1.490 . S
C1372 C1374 1.395 . S
C1372 C1375 1.403 . S
H1373 C1379 0.930 . S
C1374 H1360 0.930 . S
C1374 C1372 1.395 . S
C1374 C1377 1.403 . S
C1375 C1372 1.403 . S
C1375 C1376 1.524 . S
C1375 C1379 1.400 . S
C1376 H1361 0.960 . S
C1376 H1362 0.960 . S
C1376 H1363 0.960 . S
C1376 C1375 1.524 . S
C1377 C1374 1.403 . S
C1377 C1378 1.392 . S
C1377 C1381 1.495 . S
C1378 C1377 1.392 . S
C1378 C1379 1.385 . S
C1378 C1380 1.478 . S
C1379 H1373 0.930 . S
C1379 C1375 1.400 . S
C1379 C1378 1.385 . S
C1380 C1378 1.478 . S
C1380 C1382 1.381 . S
C1380 C1386 1.383 . S
C1381 C1377 1.495 . S
C1381 H1387 0.959 . S
C1381 H1388 0.961 . S
C1381 H1389 0.960 . S
C1382 C1380 1.381 . S
C1382 C1383 1.394 . S
C1382 H1390 0.930 . S
C1383 C1382 1.394 . S
C1383 C1384 1.383 . S
C1383 H1391 0.929 . S
C1384 C1383 1.383 . S
C1384 C1385 1.377 . S
C1385 H1369 0.930 . S
C1385 C1384 1.377 . S
C1385 C1386 1.379 . S
C1386 H1370 0.931 . S
C1386 C1380 1.383 . S
C1386 C1385 1.379 . S
H1387 C1381 0.959 . S
H1388 C1381 0.961 . S
H1389 C1381 0.960 . S
H1390 C1382 0.930 . S
H1391 C1383 0.929 . S
H1392 C1400 0.929 . S
H1393 C1402 0.930 . S
H1394 C1404 0.930 . S
H1395 C1407 0.929 . S
H1396 C1410 0.930 . S
H1397 C1412 0.960 . S
H1398 C1412 0.960 . S
H1399 C1412 0.960 . S
C1400 H1392 0.929 . S
C1400 C1401 1.377 . S
C1400 C1402 1.384 . S
C1401 C1400 1.377 . S
C1401 C1407 1.390 . S
C1402 H1393 0.930 . S
C1402 C1400 1.384 . S
C1402 C1403 1.372 . S
C1403 C1402 1.372 . S
C1403 C1404 1.400 . S
C1403 C1408 1.490 . S
C1404 H1394 0.930 . S
C1404 C1403 1.400 . S
C1404 C1407 1.386 . S
H1405 C1421 0.930 . S
H1406 C1422 0.931 . S
C1407 H1395 0.929 . S
C1407 C1401 1.390 . S
C1407 C1404 1.386 . S
C1408 C1403 1.490 . S
C1408 C1410 1.395 . S
C1408 C1411 1.403 . S
H1409 C1415 0.930 . S
C1410 H1396 0.930 . S
C1410 C1408 1.395 . S
C1410 C1413 1.403 . S
C1411 C1408 1.403 . S
C1411 C1412 1.524 . S
C1411 C1415 1.400 . S
C1412 H1397 0.960 . S
C1412 H1398 0.960 . S
C1412 H1399 0.960 . S
C1412 C1411 1.524 . S
C1413 C1410 1.403 . S
C1413 C1414 1.392 . S
C1413 C1417 1.495 . S
C1414 C1413 1.392 . S
C1414 C1415 1.385 . S
C1414 C1416 1.478 . S
C1415 H1409 0.930 . S
C1415 C1411 1.400 . S
C1415 C1414 1.385 . S
C1416 C1414 1.478 . S
C1416 C1418 1.381 . S
C1416 C1422 1.383 . S
C1417 C1413 1.495 . S
C1417 H1423 0.959 . S
C1417 H1424 0.961 . S
C1417 H1425 0.960 . S
C1418 C1416 1.381 . S
C1418 C1419 1.394 . S
C1418 H1426 0.930 . S
C1419 C1418 1.394 . S
C1419 C1420 1.383 . S
C1419 H1427 0.929 . S
C1420 C1419 1.383 . S
C1420 C1421 1.377 . S
C1421 H1405 0.930 . S
C1421 C1420 1.377 . S
C1421 C1422 1.379 . S
C1422 H1406 0.931 . S
C1422 C1416 1.383 . S
C1422 C1421 1.379 . S
H1423 C1417 0.959 . S
H1424 C1417 0.961 . S
H1425 C1417 0.960 . S
H1426 C1418 0.930 . S
H1427 C1419 0.929 . S
H1428 C1436 0.929 . S
H1429 C1438 0.930 . S
H1430 C1440 0.930 . S
H1431 C1443 0.929 . S
H1432 C1446 0.930 . S
H1433 C1448 0.960 . S
H1434 C1448 0.960 . S
H1435 C1448 0.960 . S
C1436 H1428 0.929 . S
C1436 C1437 1.377 . S
C1436 C1438 1.384 . S
C1437 C1436 1.377 . S
C1437 C1443 1.390 . S
C1438 H1429 0.930 . S
C1438 C1436 1.384 . S
C1438 C1439 1.372 . S
C1439 C1438 1.372 . S
C1439 C1440 1.400 . S
C1439 C1444 1.490 . S
C1440 H1430 0.930 . S
C1440 C1439 1.400 . S
C1440 C1443 1.386 . S
H1441 C1457 0.930 . S
H1442 C1458 0.931 . S
C1443 H1431 0.929 . S
C1443 C1437 1.390 . S
C1443 C1440 1.386 . S
C1444 C1439 1.490 . S
C1444 C1446 1.395 . S
C1444 C1447 1.403 . S
H1445 C1451 0.930 . S
C1446 H1432 0.930 . S
C1446 C1444 1.395 . S
C1446 C1449 1.403 . S
C1447 C1444 1.403 . S
C1447 C1448 1.524 . S
C1447 C1451 1.400 . S
C1448 H1433 0.960 . S
C1448 H1434 0.960 . S
C1448 H1435 0.960 . S
C1448 C1447 1.524 . S
C1449 C1446 1.403 . S
C1449 C1450 1.392 . S
C1449 C1453 1.495 . S
C1450 C1449 1.392 . S
C1450 C1451 1.385 . S
C1450 C1452 1.478 . S
C1451 H1445 0.930 . S
C1451 C1447 1.400 . S
C1451 C1450 1.385 . S
C1452 C1450 1.478 . S
C1452 C1454 1.381 . S
C1452 C1458 1.383 . S
C1453 C1449 1.495 . S
C1453 H1459 0.959 . S
C1453 H1460 0.961 . S
C1453 H1461 0.960 . S
C1454 C1452 1.381 . S
C1454 C1455 1.394 . S
C1454 H1462 0.930 . S
C1455 C1454 1.394 . S
C1455 C1456 1.383 . S
C1455 H1463 0.929 . S
C1456 C1455 1.383 . S
C1456 C1457 1.377 . S
C1457 H1441 0.930 . S
C1457 C1456 1.377 . S
C1457 C1458 1.379 . S
C1458 H1442 0.931 . S
C1458 C1452 1.383 . S
C1458 C1457 1.379 . S
H1459 C1453 0.959 . S
H1460 C1453 0.961 . S
H1461 C1453 0.960 . S
H1462 C1454 0.930 . S
H1463 C1455 0.929 . S
H1464 C1472 0.929 . S
H1465 C1474 0.930 . S
H1466 C1476 0.930 . S
H1467 C1479 0.929 . S
H1468 C1482 0.930 . S
H1469 C1484 0.960 . S
H1470 C1484 0.960 . S
H1471 C1484 0.960 . S
C1472 H1464 0.929 . S
C1472 C1473 1.377 . S
C1472 C1474 1.384 . S
C1473 C1472 1.377 . S
C1473 C1479 1.390 . S
C1474 H1465 0.930 . S
C1474 C1472 1.384 . S
C1474 C1475 1.372 . S
C1475 C1474 1.372 . S
C1475 C1476 1.400 . S
C1475 C1480 1.490 . S
C1476 H1466 0.930 . S
C1476 C1475 1.400 . S
C1476 C1479 1.386 . S
H1477 C1493 0.930 . S
H1478 C1494 0.931 . S
C1479 H1467 0.929 . S
C1479 C1473 1.390 . S
C1479 C1476 1.386 . S
C1480 C1475 1.490 . S
C1480 C1482 1.395 . S
C1480 C1483 1.403 . S
H1481 C1487 0.930 . S
C1482 H1468 0.930 . S
C1482 C1480 1.395 . S
C1482 C1485 1.403 . S
C1483 C1480 1.403 . S
C1483 C1484 1.524 . S
C1483 C1487 1.400 . S
C1484 H1469 0.960 . S
C1484 H1470 0.960 . S
C1484 H1471 0.960 . S
C1484 C1483 1.524 . S
C1485 C1482 1.403 . S
C1485 C1486 1.392 . S
C1485 C1489 1.495 . S
C1486 C1485 1.392 . S
C1486 C1487 1.385 . S
C1486 C1488 1.478 . S
C1487 H1481 0.930 . S
C1487 C1483 1.400 . S
C1487 C1486 1.385 . S
C1488 C1486 1.478 . S
C1488 C1490 1.381 . S
C1488 C1494 1.383 . S
C1489 C1485 1.495 . S
C1489 H1495 0.959 . S
C1489 H1496 0.961 . S
C1489 H1497 0.960 . S
C1490 C1488 1.381 . S
C1490 C1491 1.394 1_655 S
C1490 H1498 0.930 1_655 S
C1491 C1490 1.394 1_455 S
C1491 C1492 1.383 . S
C1491 H1499 0.929 . S
C1492 C1491 1.383 . S
C1492 C1493 1.377 1_455 S
C1493 H1477 0.930 . S
C1493 C1492 1.377 1_655 S
C1493 C1494 1.379 . S
C1494 H1478 0.931 . S
C1494 C1488 1.383 . S
C1494 C1493 1.379 . S
H1495 C1489 0.959 . S
H1496 C1489 0.961 . S
H1497 C1489 0.960 . S
H1498 C1490 0.930 1_455 S
H1499 C1491 0.929 . S
H1500 C1508 0.929 . S
H1501 C1510 0.930 . S
H1502 C1512 0.930 . S
H1503 C1515 0.929 . S
H1504 C1518 0.930 . S
H1505 C1520 0.960 . S
H1506 C1520 0.960 . S
H1507 C1520 0.960 . S
C1508 H1500 0.929 . S
C1508 C1509 1.359 1_565 S
C1508 C1510 1.384 . S
C1509 C1508 1.359 1_545 S
C1509 C1515 1.391 . S
C1510 H1501 0.930 . S
C1510 C1508 1.384 . S
C1510 C1511 1.372 . S
C1511 C1510 1.372 . S
C1511 C1512 1.400 . S
C1511 C1516 1.490 . S
C1512 H1502 0.930 . S
C1512 C1511 1.400 . S
C1512 C1515 1.386 1_565 S
H1513 C1529 0.930 . S
H1514 C1530 0.931 . S
C1515 H1503 0.929 . S
C1515 C1509 1.391 . S
C1515 C1512 1.386 1_545 S
C1516 C1511 1.490 . S
C1516 C1518 1.395 . S
C1516 C1519 1.403 . S
H1517 C1523 0.930 . S
C1518 H1504 0.930 . S
C1518 C1516 1.395 . S
C1518 C1521 1.403 . S
C1519 C1516 1.403 . S
C1519 C1520 1.524 . S
C1519 C1523 1.400 . S
C1520 H1505 0.960 . S
C1520 H1506 0.960 . S
C1520 H1507 0.960 . S
C1520 C1519 1.524 . S
C1521 C1518 1.403 . S
C1521 C1522 1.392 . S
C1521 C1525 1.495 . S
C1522 C1521 1.392 . S
C1522 C1523 1.385 . S
C1522 C1524 1.478 . S
C1523 H1517 0.930 . S
C1523 C1519 1.400 . S
C1523 C1522 1.385 . S
C1524 C1522 1.478 . S
C1524 C1526 1.381 . S
C1524 C1530 1.383 . S
C1525 C1521 1.495 . S
C1525 H1531 0.959 . S
C1525 H1532 0.961 . S
C1525 H1533 0.960 . S
C1526 C1524 1.381 . S
C1526 C1527 1.394 . S
C1526 H1534 0.930 . S
C1527 C1526 1.394 . S
C1527 C1528 1.383 . S
C1527 H1535 0.929 . S
C1528 C1527 1.383 . S
C1528 C1529 1.377 . S
C1529 H1513 0.930 . S
C1529 C1528 1.377 . S
C1529 C1530 1.379 . S
C1530 H1514 0.931 . S
C1530 C1524 1.383 . S
C1530 C1529 1.379 . S
H1531 C1525 0.959 . S
H1532 C1525 0.961 . S
H1533 C1525 0.960 . S
H1534 C1526 0.930 . S
H1535 C1527 0.929 . S
H1536 C1544 0.929 . S
H1537 C1546 0.930 . S
H1538 C1548 0.930 . S
H1539 C1551 0.929 . S
H1540 C1554 0.930 . S
H1541 C1556 0.960 . S
H1542 C1556 0.960 . S
H1543 C1556 0.960 . S
C1544 H1536 0.929 . S
C1544 C1545 1.377 . S
C1544 C1546 1.384 . S
C1545 C1544 1.377 . S
C1545 C1551 1.390 . S
C1546 H1537 0.930 . S
C1546 C1544 1.384 . S
C1546 C1547 1.372 . S
C1547 C1546 1.372 . S
C1547 C1548 1.400 . S
C1547 C1552 1.490 . S
C1548 H1538 0.930 . S
C1548 C1547 1.400 . S
C1548 C1551 1.386 . S
H1549 C1565 0.930 . S
H1550 C1566 0.931 . S
C1551 H1539 0.929 . S
C1551 C1545 1.390 . S
C1551 C1548 1.386 . S
C1552 C1547 1.490 . S
C1552 C1554 1.395 . S
C1552 C1555 1.403 . S
H1553 C1559 0.930 . S
C1554 H1540 0.930 . S
C1554 C1552 1.395 . S
C1554 C1557 1.403 . S
C1555 C1552 1.403 . S
C1555 C1556 1.524 . S
C1555 C1559 1.400 . S
C1556 H1541 0.960 . S
C1556 H1542 0.960 . S
C1556 H1543 0.960 . S
C1556 C1555 1.524 . S
C1557 C1554 1.403 . S
C1557 C1558 1.392 . S
C1557 C1561 1.495 . S
C1558 C1557 1.392 . S
C1558 C1559 1.385 . S
C1558 C1560 1.478 . S
C1559 H1553 0.930 . S
C1559 C1555 1.400 . S
C1559 C1558 1.385 . S
C1560 C1558 1.478 . S
C1560 C1562 1.381 . S
C1560 C1566 1.383 . S
C1561 C1557 1.495 . S
C1561 H1567 0.959 . S
C1561 H1568 0.961 . S
C1561 H1569 0.960 . S
C1562 C1560 1.381 . S
C1562 C1563 1.394 . S
C1562 H1570 0.930 . S
C1563 C1562 1.394 . S
C1563 C1564 1.383 . S
C1563 H1571 0.929 . S
C1564 C1563 1.383 . S
C1564 C1565 1.377 . S
C1565 H1549 0.930 . S
C1565 C1564 1.377 . S
C1565 C1566 1.379 . S
C1566 H1550 0.931 . S
C1566 C1560 1.383 . S
C1566 C1565 1.379 . S
H1567 C1561 0.959 . S
H1568 C1561 0.961 . S
H1569 C1561 0.960 . S
H1570 C1562 0.930 . S
H1571 C1563 0.929 . S
H1572 C1580 0.929 . S
H1573 C1582 0.930 . S
H1574 C1584 0.930 . S
H1575 C1587 0.929 . S
H1576 C1590 0.930 . S
H1577 C1592 0.960 . S
H1578 C1592 0.960 . S
H1579 C1592 0.960 . S
C1580 H1572 0.929 . S
C1580 C1581 1.377 . S
C1580 C1582 1.384 . S
C1581 C1580 1.377 . S
C1581 C1587 1.390 . S
C1582 H1573 0.930 . S
C1582 C1580 1.384 . S
C1582 C1583 1.372 . S
C1583 C1582 1.372 . S
C1583 C1584 1.400 . S
C1583 C1588 1.490 . S
C1584 H1574 0.930 . S
C1584 C1583 1.400 . S
C1584 C1587 1.386 . S
H1585 C1601 0.930 . S
H1586 C1602 0.931 . S
C1587 H1575 0.929 . S
C1587 C1581 1.390 . S
C1587 C1584 1.386 . S
C1588 C1583 1.490 . S
C1588 C1590 1.395 . S
C1588 C1591 1.403 . S
H1589 C1595 0.930 . S
C1590 H1576 0.930 . S
C1590 C1588 1.395 . S
C1590 C1593 1.403 . S
C1591 C1588 1.403 . S
C1591 C1592 1.524 . S
C1591 C1595 1.400 . S
C1592 H1577 0.960 . S
C1592 H1578 0.960 . S
C1592 H1579 0.960 . S
C1592 C1591 1.524 . S
C1593 C1590 1.403 . S
C1593 C1594 1.392 . S
C1593 C1597 1.495 . S
C1594 C1593 1.392 . S
C1594 C1595 1.385 . S
C1594 C1596 1.478 . S
C1595 H1589 0.930 . S
C1595 C1591 1.400 . S
C1595 C1594 1.385 . S
C1596 C1594 1.478 . S
C1596 C1598 1.381 . S
C1596 C1602 1.383 . S
C1597 C1593 1.495 . S
C1597 H1603 0.959 . S
C1597 H1604 0.961 . S
C1597 H1605 0.960 . S
C1598 C1596 1.381 . S
C1598 C1599 1.394 . S
C1598 H1606 0.930 . S
C1599 C1598 1.394 . S
C1599 C1600 1.383 . S
C1599 H1607 0.929 . S
C1600 C1599 1.383 . S
C1600 C1601 1.377 . S
C1601 H1585 0.930 . S
C1601 C1600 1.377 . S
C1601 C1602 1.379 . S
C1602 H1586 0.931 . S
C1602 C1596 1.383 . S
C1602 C1601 1.379 . S
H1603 C1597 0.959 . S
H1604 C1597 0.961 . S
H1605 C1597 0.960 . S
H1606 C1598 0.930 . S
H1607 C1599 0.929 . S
H1608 C1616 0.929 . S
H1609 C1618 0.930 . S
H1610 C1620 0.930 . S
H1611 C1623 0.929 . S
H1612 C1626 0.930 . S
H1613 C1628 0.960 . S
H1614 C1628 0.960 . S
H1615 C1628 0.960 . S
C1616 H1608 0.929 . S
C1616 C1617 1.350 1_655 S
C1616 C1618 1.384 . S
C1617 C1616 1.350 1_455 S
C1617 C1623 1.399 . S
C1618 H1609 0.930 . S
C1618 C1616 1.384 . S
C1618 C1619 1.372 . S
C1619 C1618 1.372 . S
C1619 C1620 1.400 . S
C1619 C1624 1.490 . S
C1620 H1610 0.930 . S
C1620 C1619 1.400 . S
C1620 C1623 1.386 1_655 S
H1621 C1637 0.930 . S
H1622 C1638 0.931 . S
C1623 H1611 0.929 . S
C1623 C1617 1.399 . S
C1623 C1620 1.386 1_455 S
C1624 C1619 1.490 . S
C1624 C1626 1.395 . S
C1624 C1627 1.403 . S
H1625 C1631 0.930 . S
C1626 H1612 0.930 . S
C1626 C1624 1.395 . S
C1626 C1629 1.403 . S
C1627 C1624 1.403 . S
C1627 C1628 1.524 . S
C1627 C1631 1.400 . S
C1628 H1613 0.960 . S
C1628 H1614 0.960 . S
C1628 H1615 0.960 . S
C1628 C1627 1.524 . S
C1629 C1626 1.403 . S
C1629 C1630 1.392 . S
C1629 C1633 1.495 . S
C1630 C1629 1.392 . S
C1630 C1631 1.385 . S
C1630 C1632 1.478 . S
C1631 H1625 0.930 . S
C1631 C1627 1.400 . S
C1631 C1630 1.385 . S
C1632 C1630 1.478 . S
C1632 C1634 1.381 . S
C1632 C1638 1.383 . S
C1633 C1629 1.495 . S
C1633 H1639 0.959 . S
C1633 H1640 0.961 . S
C1633 H1641 0.960 . S
C1634 C1632 1.381 . S
C1634 C1635 1.394 . S
C1634 H1642 0.930 . S
C1635 C1634 1.394 . S
C1635 C1636 1.383 . S
C1635 H1643 0.929 . S
C1636 C1635 1.383 . S
C1636 C1637 1.377 . S
C1637 H1621 0.930 . S
C1637 C1636 1.377 . S
C1637 C1638 1.379 . S
C1638 H1622 0.931 . S
C1638 C1632 1.383 . S
C1638 C1637 1.379 . S
H1639 C1633 0.959 . S
H1640 C1633 0.961 . S
H1641 C1633 0.960 . S
H1642 C1634 0.930 . S
H1643 C1635 0.929 . S
H1644 C1652 0.929 . S
H1645 C1654 0.930 . S
H1646 C1656 0.930 . S
H1647 C1659 0.929 . S
H1648 C1662 0.930 . S
H1649 C1664 0.960 . S
H1650 C1664 0.960 . S
H1651 C1664 0.960 . S
C1652 H1644 0.929 . S
C1652 C1653 1.377 . S
C1652 C1654 1.384 . S
C1653 C1652 1.377 . S
C1653 C1659 1.390 . S
C1654 H1645 0.930 . S
C1654 C1652 1.384 . S
C1654 C1655 1.372 . S
C1655 C1654 1.372 . S
C1655 C1656 1.400 . S
C1655 C1660 1.490 . S
C1656 H1646 0.930 . S
C1656 C1655 1.400 . S
C1656 C1659 1.386 . S
H1657 C1673 0.930 . S
H1658 C1674 0.931 . S
C1659 H1647 0.929 . S
C1659 C1653 1.390 . S
C1659 C1656 1.386 . S
C1660 C1655 1.490 . S
C1660 C1662 1.395 . S
C1660 C1663 1.403 . S
H1661 C1667 0.930 . S
C1662 H1648 0.930 . S
C1662 C1660 1.395 . S
C1662 C1665 1.403 . S
C1663 C1660 1.403 . S
C1663 C1664 1.524 . S
C1663 C1667 1.400 . S
C1664 H1649 0.960 . S
C1664 H1650 0.960 . S
C1664 H1651 0.960 . S
C1664 C1663 1.524 . S
C1665 C1662 1.403 . S
C1665 C1666 1.392 . S
C1665 C1669 1.495 . S
C1666 C1665 1.392 . S
C1666 C1667 1.385 . S
C1666 C1668 1.478 . S
C1667 H1661 0.930 . S
C1667 C1663 1.400 . S
C1667 C1666 1.385 . S
C1668 C1666 1.478 . S
C1668 C1670 1.381 . S
C1668 C1674 1.383 . S
C1669 C1665 1.495 . S
C1669 H1675 0.959 . S
C1669 H1676 0.961 . S
C1669 H1677 0.960 . S
C1670 C1668 1.381 . S
C1670 C1671 1.394 1_565 S
C1670 H1678 0.930 1_565 S
C1671 C1670 1.394 1_545 S
C1671 C1672 1.383 . S
C1671 H1679 0.929 . S
C1672 C1671 1.383 . S
C1672 C1673 1.377 1_545 S
C1673 H1657 0.930 . S
C1673 C1672 1.377 1_565 S
C1673 C1674 1.379 . S
C1674 H1658 0.931 . S
C1674 C1668 1.383 . S
C1674 C1673 1.379 . S
H1675 C1669 0.959 . S
H1676 C1669 0.961 . S
H1677 C1669 0.960 . S
H1678 C1670 0.930 1_545 S
H1679 C1671 0.929 . S
H1680 C1688 0.929 . S
H1681 C1690 0.930 . S
H1682 C1692 0.930 . S
H1683 C1695 0.929 1_455 S
H1684 C1698 0.930 . S
H1685 C1700 0.960 . S
H1686 C1700 0.960 . S
H1687 C1700 0.960 . S
C1688 H1680 0.929 . S
C1688 C1689 1.377 . S
C1688 C1690 1.384 . S
C1689 C1688 1.377 . S
C1689 C1695 1.390 . S
C1690 H1681 0.930 . S
C1690 C1688 1.384 . S
C1690 C1691 1.372 . S
C1691 C1690 1.372 . S
C1691 C1692 1.400 . S
C1691 C1696 1.490 . S
C1692 H1682 0.930 . S
C1692 C1691 1.400 . S
C1692 C1695 1.386 . S
H1693 C1709 0.930 . S
H1694 C1710 0.931 . S
C1695 H1683 0.929 1_655 S
C1695 C1689 1.390 . S
C1695 C1692 1.386 . S
C1696 C1691 1.490 . S
C1696 C1698 1.395 . S
C1696 C1699 1.403 . S
H1697 C1703 0.930 . S
C1698 H1684 0.930 . S
C1698 C1696 1.395 . S
C1698 C1701 1.403 . S
C1699 C1696 1.403 . S
C1699 C1700 1.524 . S
C1699 C1703 1.400 . S
C1700 H1685 0.960 . S
C1700 H1686 0.960 . S
C1700 H1687 0.960 . S
C1700 C1699 1.524 . S
C1701 C1698 1.403 . S
C1701 C1702 1.392 . S
C1701 C1705 1.495 . S
C1702 C1701 1.392 . S
C1702 C1703 1.385 . S
C1702 C1704 1.478 . S
C1703 H1697 0.930 . S
C1703 C1699 1.400 . S
C1703 C1702 1.385 . S
C1704 C1702 1.478 . S
C1704 C1706 1.381 . S
C1704 C1710 1.383 . S
C1705 C1701 1.495 . S
C1705 H1711 0.959 . S
C1705 H1712 0.961 . S
C1705 H1713 0.960 . S
C1706 C1704 1.381 . S
C1706 C1707 1.394 . S
C1706 H1714 0.930 . S
C1707 C1706 1.394 . S
C1707 C1708 1.383 . S
C1707 H1715 0.929 . S
C1708 C1707 1.383 . S
C1708 C1709 1.377 . S
C1709 H1693 0.930 . S
C1709 C1708 1.377 . S
C1709 C1710 1.379 . S
C1710 H1694 0.931 . S
C1710 C1704 1.383 . S
C1710 C1709 1.379 . S
H1711 C1705 0.959 . S
H1712 C1705 0.961 . S
H1713 C1705 0.960 . S
H1714 C1706 0.930 . S
H1715 C1707 0.929 . S
H1716 C1724 0.929 . S
H1717 C1726 0.930 . S
H1718 C1728 0.930 . S
H1719 C1731 0.929 . S
H1720 C1734 0.930 . S
H1721 C1736 0.960 . S
H1722 C1736 0.960 . S
H1723 C1736 0.960 . S
C1724 H1716 0.929 . S
C1724 C1725 1.377 . S
C1724 C1726 1.384 . S
C1725 C1724 1.377 . S
C1725 C1731 1.390 . S
C1726 H1717 0.930 . S
C1726 C1724 1.384 . S
C1726 C1727 1.372 . S
C1727 C1726 1.372 . S
C1727 C1728 1.400 . S
C1727 C1732 1.490 . S
C1728 H1718 0.930 . S
C1728 C1727 1.400 . S
C1728 C1731 1.386 . S
H1729 C1745 0.930 . S
H1730 C1746 0.931 . S
C1731 H1719 0.929 . S
C1731 C1725 1.390 . S
C1731 C1728 1.386 . S
C1732 C1727 1.490 . S
C1732 C1734 1.395 . S
C1732 C1735 1.403 . S
H1733 C1739 0.930 . S
C1734 H1720 0.930 . S
C1734 C1732 1.395 . S
C1734 C1737 1.403 . S
C1735 C1732 1.403 . S
C1735 C1736 1.524 . S
C1735 C1739 1.400 . S
C1736 H1721 0.960 . S
C1736 H1722 0.960 . S
C1736 H1723 0.960 . S
C1736 C1735 1.524 . S
C1737 C1734 1.403 . S
C1737 C1738 1.392 . S
C1737 C1741 1.495 . S
C1738 C1737 1.392 . S
C1738 C1739 1.385 . S
C1738 C1740 1.478 . S
C1739 H1733 0.930 . S
C1739 C1735 1.400 . S
C1739 C1738 1.385 . S
C1740 C1738 1.478 . S
C1740 C1742 1.381 . S
C1740 C1746 1.383 . S
C1741 C1737 1.495 . S
C1741 H1747 0.959 . S
C1741 H1748 0.961 . S
C1741 H1749 0.960 . S
C1742 C1740 1.381 . S
C1742 C1743 1.394 . S
C1742 H1750 0.930 . S
C1743 C1742 1.394 . S
C1743 C1744 1.383 . S
C1743 H1751 0.929 . S
C1744 C1743 1.383 . S
C1744 C1745 1.377 . S
C1745 H1729 0.930 . S
C1745 C1744 1.377 . S
C1745 C1746 1.379 . S
C1746 H1730 0.931 . S
C1746 C1740 1.383 . S
C1746 C1745 1.379 . S
H1747 C1741 0.959 . S
H1748 C1741 0.961 . S
H1749 C1741 0.960 . S
H1750 C1742 0.930 . S
H1751 C1743 0.929 . S
H1752 C1760 0.929 . S
H1753 C1762 0.930 . S
H1754 C1764 0.930 . S
H1755 C1767 0.929 . S
H1756 C1770 0.930 . S
H1757 C1772 0.960 . S
H1758 C1772 0.960 . S
H1759 C1772 0.960 . S
C1760 H1752 0.929 . S
C1760 C1761 1.377 . S
C1760 C1762 1.384 . S
C1761 C1760 1.377 . S
C1761 C1767 1.390 . S
C1762 H1753 0.930 . S
C1762 C1760 1.384 . S
C1762 C1763 1.372 . S
C1763 C1762 1.372 . S
C1763 C1764 1.400 . S
C1763 C1768 1.490 . S
C1764 H1754 0.930 . S
C1764 C1763 1.400 . S
C1764 C1767 1.386 . S
H1765 C1781 0.930 . S
H1766 C1782 0.931 . S
C1767 H1755 0.929 . S
C1767 C1761 1.390 . S
C1767 C1764 1.386 . S
C1768 C1763 1.490 . S
C1768 C1770 1.395 . S
C1768 C1771 1.403 . S
H1769 C1775 0.930 . S
C1770 H1756 0.930 . S
C1770 C1768 1.395 . S
C1770 C1773 1.403 . S
C1771 C1768 1.403 . S
C1771 C1772 1.524 . S
C1771 C1775 1.400 . S
C1772 H1757 0.960 . S
C1772 H1758 0.960 . S
C1772 H1759 0.960 . S
C1772 C1771 1.524 . S
C1773 C1770 1.403 . S
C1773 C1774 1.392 . S
C1773 C1777 1.495 . S
C1774 C1773 1.392 . S
C1774 C1775 1.385 . S
C1774 C1776 1.478 . S
C1775 H1769 0.930 . S
C1775 C1771 1.400 . S
C1775 C1774 1.385 . S
C1776 C1774 1.478 . S
C1776 C1778 1.381 . S
C1776 C1782 1.383 . S
C1777 C1773 1.495 . S
C1777 H1783 0.959 . S
C1777 H1784 0.961 . S
C1777 H1785 0.960 . S
C1778 C1776 1.381 . S
C1778 C1779 1.394 . S
C1778 H1786 0.930 . S
C1779 C1778 1.394 . S
C1779 C1780 1.383 . S
C1779 H1787 0.929 . S
C1780 C1779 1.383 . S
C1780 C1781 1.377 . S
C1781 H1765 0.930 . S
C1781 C1780 1.377 . S
C1781 C1782 1.379 . S
C1782 H1766 0.931 . S
C1782 C1776 1.383 . S
C1782 C1781 1.379 . S
H1783 C1777 0.959 . S
H1784 C1777 0.961 . S
H1785 C1777 0.960 . S
H1786 C1778 0.930 . S
H1787 C1779 0.929 . S
H1788 C1796 0.929 . S
H1789 C1798 0.930 . S
H1790 C1800 0.930 . S
H1791 C1803 0.929 . S
H1792 C1806 0.930 . S
H1793 C1808 0.960 . S
H1794 C1808 0.960 . S
H1795 C1808 0.960 . S
C1796 H1788 0.929 . S
C1796 C1797 1.377 . S
C1796 C1798 1.384 . S
C1797 C1796 1.377 . S
C1797 C1803 1.390 . S
C1798 H1789 0.930 . S
C1798 C1796 1.384 . S
C1798 C1799 1.372 . S
C1799 C1798 1.372 . S
C1799 C1800 1.400 . S
C1799 C1804 1.490 . S
C1800 H1790 0.930 . S
C1800 C1799 1.400 . S
C1800 C1803 1.386 . S
H1801 C1817 0.930 . S
H1802 C1818 0.931 . S
C1803 H1791 0.929 . S
C1803 C1797 1.390 . S
C1803 C1800 1.386 . S
C1804 C1799 1.490 . S
C1804 C1806 1.395 . S
C1804 C1807 1.403 . S
H1805 C1811 0.930 . S
C1806 H1792 0.930 . S
C1806 C1804 1.395 . S
C1806 C1809 1.403 . S
C1807 C1804 1.403 . S
C1807 C1808 1.524 . S
C1807 C1811 1.400 . S
C1808 H1793 0.960 . S
C1808 H1794 0.960 . S
C1808 H1795 0.960 . S
C1808 C1807 1.524 . S
C1809 C1806 1.403 . S
C1809 C1810 1.392 . S
C1809 C1813 1.495 . S
C1810 C1809 1.392 . S
C1810 C1811 1.385 . S
C1810 C1812 1.478 . S
C1811 H1805 0.930 . S
C1811 C1807 1.400 . S
C1811 C1810 1.385 . S
C1812 C1810 1.478 . S
C1812 C1814 1.381 . S
C1812 C1818 1.383 . S
C1813 C1809 1.495 . S
C1813 H1819 0.959 . S
C1813 H1820 0.961 . S
C1813 H1821 0.960 . S
C1814 C1812 1.381 . S
C1814 C1815 1.394 . S
C1814 H1822 0.930 . S
C1815 C1814 1.394 . S
C1815 C1816 1.383 . S
C1815 H1823 0.929 . S
C1816 C1815 1.383 . S
C1816 C1817 1.377 . S
C1817 H1801 0.930 . S
C1817 C1816 1.377 . S
C1817 C1818 1.379 . S
C1818 H1802 0.931 . S
C1818 C1812 1.383 . S
C1818 C1817 1.379 . S
H1819 C1813 0.959 . S
H1820 C1813 0.961 . S
H1821 C1813 0.960 . S
H1822 C1814 0.930 . S
H1823 C1815 0.929 . S
H1824 C1832 0.929 . S
H1825 C1834 0.930 . S
H1826 C1836 0.930 . S
H1827 C1839 0.929 . S
H1828 C1842 0.930 . S
H1829 C1844 0.960 . S
H1830 C1844 0.960 . S
H1831 C1844 0.960 . S
C1832 H1824 0.929 . S
C1832 C1833 1.377 . S
C1832 C1834 1.384 . S
C1833 C1832 1.377 . S
C1833 C1839 1.390 . S
C1834 H1825 0.930 . S
C1834 C1832 1.384 . S
C1834 C1835 1.372 . S
C1835 C1834 1.372 . S
C1835 C1836 1.400 . S
C1835 C1840 1.490 . S
C1836 H1826 0.930 . S
C1836 C1835 1.400 . S
C1836 C1839 1.386 . S
H1837 C1853 0.930 . S
H1838 C1854 0.931 . S
C1839 H1827 0.929 . S
C1839 C1833 1.390 . S
C1839 C1836 1.386 . S
C1840 C1835 1.490 . S
C1840 C1842 1.395 . S
C1840 C1843 1.403 . S
H1841 C1847 0.930 . S
C1842 H1828 0.930 . S
C1842 C1840 1.395 . S
C1842 C1845 1.403 . S
C1843 C1840 1.403 . S
C1843 C1844 1.524 . S
C1843 C1847 1.400 . S
C1844 H1829 0.960 . S
C1844 H1830 0.960 . S
C1844 H1831 0.960 . S
C1844 C1843 1.524 . S
C1845 C1842 1.403 . S
C1845 C1846 1.392 . S
C1845 C1849 1.495 . S
C1846 C1845 1.392 . S
C1846 C1847 1.385 . S
C1846 C1848 1.478 . S
C1847 H1841 0.930 . S
C1847 C1843 1.400 . S
C1847 C1846 1.385 . S
C1848 C1846 1.478 . S
C1848 C1850 1.381 . S
C1848 C1854 1.383 . S
C1849 C1845 1.495 . S
C1849 H1855 0.959 . S
C1849 H1856 0.961 . S
C1849 H1857 0.960 . S
C1850 C1848 1.381 . S
C1850 C1851 1.394 . S
C1850 H1858 0.930 . S
C1851 C1850 1.394 . S
C1851 C1852 1.383 . S
C1851 H1859 0.929 . S
C1852 C1851 1.383 . S
C1852 C1853 1.377 . S
C1853 H1837 0.930 . S
C1853 C1852 1.377 . S
C1853 C1854 1.379 . S
C1854 H1838 0.931 . S
C1854 C1848 1.383 . S
C1854 C1853 1.379 . S
H1855 C1849 0.959 . S
H1856 C1849 0.961 . S
H1857 C1849 0.960 . S
H1858 C1850 0.930 . S
H1859 C1851 0.929 . S
H1860 C1868 0.929 . S
H1861 C1870 0.930 . S
H1862 C1872 0.930 . S
H1863 C1875 0.929 . S
H1864 C1878 0.930 . S
H1865 C1880 0.960 . S
H1866 C1880 0.960 . S
H1867 C1880 0.960 . S
C1868 H1860 0.929 . S
C1868 C1869 1.377 . S
C1868 C1870 1.384 . S
C1869 C1868 1.377 . S
C1869 C1875 1.390 . S
C1870 H1861 0.930 . S
C1870 C1868 1.384 . S
C1870 C1871 1.372 . S
C1871 C1870 1.372 . S
C1871 C1872 1.400 . S
C1871 C1876 1.490 . S
C1872 H1862 0.930 . S
C1872 C1871 1.400 . S
C1872 C1875 1.386 . S
H1873 C1889 0.930 . S
H1874 C1890 0.931 . S
C1875 H1863 0.929 . S
C1875 C1869 1.390 . S
C1875 C1872 1.386 . S
C1876 C1871 1.490 . S
C1876 C1878 1.395 . S
C1876 C1879 1.403 . S
H1877 C1883 0.930 . S
C1878 H1864 0.930 . S
C1878 C1876 1.395 . S
C1878 C1881 1.403 . S
C1879 C1876 1.403 . S
C1879 C1880 1.524 . S
C1879 C1883 1.400 . S
C1880 H1865 0.960 . S
C1880 H1866 0.960 . S
C1880 H1867 0.960 . S
C1880 C1879 1.524 . S
C1881 C1878 1.403 . S
C1881 C1882 1.392 . S
C1881 C1885 1.495 . S
C1882 C1881 1.392 . S
C1882 C1883 1.385 . S
C1882 C1884 1.478 . S
C1883 H1877 0.930 . S
C1883 C1879 1.400 . S
C1883 C1882 1.385 . S
C1884 C1882 1.478 . S
C1884 C1886 1.381 . S
C1884 C1890 1.383 . S
C1885 C1881 1.495 . S
C1885 H1891 0.959 . S
C1885 H1892 0.961 . S
C1885 H1893 0.960 . S
C1886 C1884 1.381 . S
C1886 C1887 1.394 . S
C1886 H1894 0.930 . S
C1887 C1886 1.394 . S
C1887 C1888 1.383 . S
C1887 H1895 0.929 . S
C1888 C1887 1.383 . S
C1888 C1889 1.377 . S
C1889 H1873 0.930 . S
C1889 C1888 1.377 . S
C1889 C1890 1.379 . S
C1890 H1874 0.931 . S
C1890 C1884 1.383 . S
C1890 C1889 1.379 . S
H1891 C1885 0.959 . S
H1892 C1885 0.961 . S
H1893 C1885 0.960 . S
H1894 C1886 0.930 . S
H1895 C1887 0.929 . S
H1896 C1904 0.929 . S
H1897 C1906 0.930 . S
H1898 C1908 0.930 . S
H1899 C1911 0.929 . S
H1900 C1914 0.930 . S
H1901 C1916 0.960 . S
H1902 C1916 0.960 . S
H1903 C1916 0.960 . S
C1904 H1896 0.929 . S
C1904 C1905 1.377 . S
C1904 C1906 1.384 . S
C1905 C1904 1.377 . S
C1905 C1911 1.390 . S
C1906 H1897 0.930 . S
C1906 C1904 1.384 . S
C1906 C1907 1.372 . S
C1907 C1906 1.372 . S
C1907 C1908 1.400 . S
C1907 C1912 1.490 . S
C1908 H1898 0.930 . S
C1908 C1907 1.400 . S
C1908 C1911 1.386 . S
H1909 C1925 0.930 . S
H1910 C1926 0.931 . S
C1911 H1899 0.929 . S
C1911 C1905 1.390 . S
C1911 C1908 1.386 . S
C1912 C1907 1.490 . S
C1912 C1914 1.395 . S
C1912 C1915 1.403 . S
H1913 C1919 0.930 . S
C1914 H1900 0.930 . S
C1914 C1912 1.395 . S
C1914 C1917 1.403 . S
C1915 C1912 1.403 . S
C1915 C1916 1.524 . S
C1915 C1919 1.400 . S
C1916 H1901 0.960 . S
C1916 H1902 0.960 . S
C1916 H1903 0.960 . S
C1916 C1915 1.524 . S
C1917 C1914 1.403 . S
C1917 C1918 1.392 . S
C1917 C1921 1.495 . S
C1918 C1917 1.392 . S
C1918 C1919 1.385 . S
C1918 C1920 1.478 . S
C1919 H1913 0.930 . S
C1919 C1915 1.400 . S
C1919 C1918 1.385 . S
C1920 C1918 1.478 . S
C1920 C1922 1.381 . S
C1920 C1926 1.383 . S
C1921 C1917 1.495 . S
C1921 H1927 0.959 . S
C1921 H1928 0.961 . S
C1921 H1929 0.960 . S
C1922 C1920 1.381 . S
C1922 C1923 1.394 . S
C1922 H1930 0.930 . S
C1923 C1922 1.394 . S
C1923 C1924 1.383 . S
C1923 H1931 0.929 . S
C1924 C1923 1.383 . S
C1924 C1925 1.377 . S
C1925 H1909 0.930 . S
C1925 C1924 1.377 . S
C1925 C1926 1.379 . S
C1926 H1910 0.931 . S
C1926 C1920 1.383 . S
C1926 C1925 1.379 . S
H1927 C1921 0.959 . S
H1928 C1921 0.961 . S
H1929 C1921 0.960 . S
H1930 C1922 0.930 . S
H1931 C1923 0.929 . S
H1932 C1940 0.929 . S
H1933 C1942 0.930 . S
H1934 C1944 0.930 . S
H1935 C1947 0.929 . S
H1936 C1950 0.930 . S
H1937 C1952 0.960 . S
H1938 C1952 0.960 . S
H1939 C1952 0.960 . S
C1940 H1932 0.929 . S
C1940 C1941 1.377 . S
C1940 C1942 1.384 . S
C1941 C1940 1.377 . S
C1941 C1947 1.390 . S
C1942 H1933 0.930 . S
C1942 C1940 1.384 . S
C1942 C1943 1.372 . S
C1943 C1942 1.372 . S
C1943 C1944 1.400 . S
C1943 C1948 1.490 . S
C1944 H1934 0.930 . S
C1944 C1943 1.400 . S
C1944 C1947 1.386 . S
H1945 C1961 0.930 . S
H1946 C1962 0.931 . S
C1947 H1935 0.929 . S
C1947 C1941 1.390 . S
C1947 C1944 1.386 . S
C1948 C1943 1.490 . S
C1948 C1950 1.395 . S
C1948 C1951 1.403 . S
H1949 C1955 0.930 . S
C1950 H1936 0.930 . S
C1950 C1948 1.395 . S
C1950 C1953 1.403 . S
C1951 C1948 1.403 . S
C1951 C1952 1.524 . S
C1951 C1955 1.400 . S
C1952 H1937 0.960 . S
C1952 H1938 0.960 . S
C1952 H1939 0.960 . S
C1952 C1951 1.524 . S
C1953 C1950 1.403 . S
C1953 C1954 1.392 . S
C1953 C1957 1.495 . S
C1954 C1953 1.392 . S
C1954 C1955 1.385 . S
C1954 C1956 1.478 . S
C1955 H1949 0.930 . S
C1955 C1951 1.400 . S
C1955 C1954 1.385 . S
C1956 C1954 1.478 . S
C1956 C1958 1.381 . S
C1956 C1962 1.383 . S
C1957 C1953 1.495 . S
C1957 H1963 0.959 . S
C1957 H1964 0.961 . S
C1957 H1965 0.960 . S
C1958 C1956 1.381 . S
C1958 C1959 1.394 . S
C1958 H1966 0.930 . S
C1959 C1958 1.394 . S
C1959 C1960 1.383 . S
C1959 H1967 0.929 . S
C1960 C1959 1.383 . S
C1960 C1961 1.377 . S
C1961 H1945 0.930 . S
C1961 C1960 1.377 . S
C1961 C1962 1.379 . S
C1962 H1946 0.931 . S
C1962 C1956 1.383 . S
C1962 C1961 1.379 . S
H1963 C1957 0.959 . S
H1964 C1957 0.961 . S
H1965 C1957 0.960 . S
H1966 C1958 0.930 . S
H1967 C1959 0.929 . S
C537 C21 1.435 . S
C556 C219 1.425 . S
C573 C252 1.433 . S
C592 C54 1.429 . S
C609 C153 1.432 . S
C628 C87 1.435 . S
C645 C186 1.432 . S
C664 C120 1.438 . S
C681 C285 1.431 . S
C700 C483 1.440 . S
C717 C318 1.431 . S
C736 C516 1.440 . S
C753 C351 1.433 . S
C772 C417 1.429 . S
C789 C450 1.432 . S
C808 C384 1.440 . S
C825 C7 1.365 . S
C844 N101 1.386 . S
C861 C40 1.372 . S
C880 N2 1.336 . S
C897 N35 1.363 . S
C916 C73 1.375 . S
C933 C106 1.361 . S
C952 N68 1.373 . S
C969 N167 1.352 . S
C988 C139 1.370 . S
C1005 N200 1.355 . S
C1024 C172 1.352 . S
C1041 N233 1.356 . S
C1060 C205 1.347 . S
C1077 N134 1.352 . S
C1096 C238 1.373 . S
C1113 C271 1.364 . S
C1132 N365 1.386 . S
C1149 N266 1.365 . S
C1168 C304 1.359 . S
C1185 C337 1.372 . S
C1204 N299 1.333 . S
C1221 C370 1.366 . S
C1240 N332 1.331 . S
C1257 C403 1.364 . S
C1276 N431 1.386 . S
C1293 C436 1.366 . S
C1312 N464 1.385 . S
C1329 C469 1.373 . S
C1348 N497 1.340 . S
C1365 N398 1.358 . S
C1384 C502 1.391 . S
C1401 N508 1.255 . S
C1420 N13 1.236 . S
C1437 N46 1.247 . S
C1456 N409 1.281 . S
C1473 N442 1.260 . S
C1492 N79 1.230 . S
C1509 N112 1.261 . S
C1528 N475 1.265 . S
C1545 N310 1.257 . S
C1564 N145 1.229 . S
C1581 N178 1.249 . S
C1600 N343 1.281 . S
C1617 N211 1.265 . S
C1636 N376 1.248 . S
C1653 N277 1.257 . S
C1672 N244 1.249 . S
C1689 C150 1.340 . S
C1708 C381 1.353 . S
C1725 C183 1.336 . S
C1744 C282 1.337 . S
C1761 C216 1.334 . S
C1780 C315 1.326 . S
C1797 C348 1.335 . S
C1816 C249 1.317 . S
C1833 C18 1.337 . S
C1852 C447 1.340 . S
C1869 C480 1.340 . S
C1888 C51 1.352 . S
C1905 C84 1.334 . S
C1924 C513 1.326 . S
C1941 C117 1.337 . S
C1960 C414 1.320 . S
