# Generated by pormake.
# Topology qtz-e, (6)-cn, num edge types: 1
# Building blocks:
#     Node 0, Type 0, BuildingBlock: BETFAJ_clean_sbu_0, # of connection points: 6
#     Node 1, Type 0, BuildingBlock: BETFAJ_clean_sbu_0, # of connection points: 6
#     Node 2, Type 0, BuildingBlock: BETFAJ_clean_sbu_0, # of connection points: 6
#     Node 3, Type 0, BuildingBlock: BETFAJ_clean_sbu_0, # of connection points: 6
#     Node 4, Type 0, BuildingBlock: BETFAJ_clean_sbu_0, # of connection points: 6
#     Node 5, Type 0, BuildingBlock: BETFAJ_clean_sbu_0, # of connection points: 6
#     Edge 6, Type (0, 0), BuildingBlock: KIFKEQ_clean_linker_1, # of connection points: 2
#     Edge 7, Type (0, 0), BuildingBlock: KIFKEQ_clean_linker_1, # of connection points: 2
#     Edge 8, Type (0, 0), BuildingBlock: KIFKEQ_clean_linker_1, # of connection points: 2
#     Edge 9, Type (0, 0), BuildingBlock: KIFKEQ_clean_linker_1, # of connection points: 2
#     Edge 10, Type (0, 0), BuildingBlock: KIFKEQ_clean_linker_1, # of connection points: 2
#     Edge 11, Type (0, 0), BuildingBlock: KIFKEQ_clean_linker_1, # of connection points: 2
#     Edge 12, Type (0, 0), BuildingBlock: KIFKEQ_clean_linker_1, # of connection points: 2
#     Edge 13, Type (0, 0), BuildingBlock: KIFKEQ_clean_linker_1, # of connection points: 2
#     Edge 14, Type (0, 0), BuildingBlock: KIFKEQ_clean_linker_1, # of connection points: 2
#     Edge 15, Type (0, 0), BuildingBlock: KIFKEQ_clean_linker_1, # of connection points: 2
#     Edge 16, Type (0, 0), BuildingBlock: KIFKEQ_clean_linker_1, # of connection points: 2
#     Edge 17, Type (0, 0), BuildingBlock: KIFKEQ_clean_linker_1, # of connection points: 2
#     Edge 18, Type (0, 0), BuildingBlock: KIFKEQ_clean_linker_1, # of connection points: 2
#     Edge 19, Type (0, 0), BuildingBlock: KIFKEQ_clean_linker_1, # of connection points: 2
#     Edge 20, Type (0, 0), BuildingBlock: KIFKEQ_clean_linker_1, # of connection points: 2
#     Edge 21, Type (0, 0), BuildingBlock: KIFKEQ_clean_linker_1, # of connection points: 2
#     Edge 22, Type (0, 0), BuildingBlock: KIFKEQ_clean_linker_1, # of connection points: 2
#     Edge 23, Type (0, 0), BuildingBlock: KIFKEQ_clean_linker_1, # of connection points: 2
# Relax obj value: 0.105
# Max RMSD: 0.183
# Mean RMSD: 0.183
data_MOF--net-qtz-e--node1-BETFAJ_clean_sbu_0--edge1-KIFKEQ_clean_linker_1
_symmetry_space_group_name_H-M    P1
_symmetry_Int_Tables_number       1
_symmetry_cell_setting            triclinic
loop_
_symmetry_equiv_pos_as_xyz
'x, y, z'
_cell_length_a     26.469828
_cell_length_b     26.413975
_cell_length_c     52.305822
_cell_angle_alpha  90.037172
_cell_angle_beta   89.856604
_cell_angle_gamma 118.94783
loop_
_atom_site_label
_atom_site_type_symbol
_atom_site_fract_x
_atom_site_fract_y
_atom_site_fract_z
_atom_type_partial_charge
Sm0 Sm 0.19587 0.45013 0.06643 0.0
Sm1 Sm 0.14157 0.32569 0.04756 0.0
C2 C 0.22333 0.55615 0.0808 0.0
C3 C 0.22923 0.58443 0.10595 0.0
C4 C 0.18573 0.59638 0.11449 0.0
C5 C 0.18755 0.61778 0.13911 0.0
C6 C 0.23329 0.62835 0.15576 0.0
C7 C 0.27793 0.61836 0.14685 0.0
C8 C 0.2759 0.59656 0.12226 0.0
C9 C 0.25585 0.39408 0.08117 0.0
C10 C 0.11654 0.3445 0.10562 0.0
C11 C 0.11437 0.22772 1.02327 0.0
C12 C 0.13526 0.21415 0.99934 0.0
C13 C 0.19321 0.24701 0.99178 0.0
C14 C 0.21116 0.23889 0.96767 0.0
C15 C 0.17158 0.19787 0.95048 0.0
C16 C 0.11394 0.16367 0.95846 0.0
C17 C 0.09596 0.17191 0.98262 0.0
C18 C 0.07454 0.37935 0.04573 0.0
C19 C 0.22717 0.43044 1.00815 0.0
O20 O 0.17072 0.51719 0.07455 0.0
O21 O 0.26218 0.54088 0.07463 0.0
O22 O 0.23314 0.39003 0.05952 0.0
O23 O 0.24449 0.42655 0.09608 0.0
O24 O 0.12948 0.39723 0.09796 0.0
O25 O 0.12646 0.30979 0.09073 0.0
O26 O 0.15022 0.24648 0.04264 0.0
O27 O 0.08634 0.25662 1.02024 0.0
O28 O 0.1259 0.39947 0.03898 0.0
O29 O 0.05496 0.32745 0.05488 0.0
O30 O 0.19773 0.37447 1.01303 0.0
O31 O 0.23191 0.46954 1.0252 0.0
H32 H 0.14928 0.58763 0.10234 0.0
H33 H 0.15206 0.62428 0.14534 0.0
H34 H 0.31441 0.62706 0.15893 0.0
H35 H 0.31039 0.58824 0.11626 0.0
H36 H 0.22438 0.28022 1.0042 0.0
H37 H 0.25606 0.26541 0.96236 0.0
H38 H 0.08222 0.13202 0.94569 0.0
H39 H 0.05092 0.14647 0.98795 0.0
Sm40 Sm 0.70675 0.21299 0.39913 0.0
Sm41 Sm 0.79106 0.17108 0.38236 0.0
C42 C 0.61801 0.21946 0.41862 0.0
C43 C 0.59934 0.22131 0.44514 0.0
C44 C 0.56908 0.17019 0.45944 0.0
C45 C 0.55642 0.17257 0.48519 0.0
C46 C 0.57365 0.22607 0.49723 0.0
C47 C 0.60213 0.27704 0.4827 0.0
C48 C 0.61464 0.27466 0.4569 0.0
C49 C 0.81908 0.29343 0.40582 0.0
C50 C 0.74323 0.13741 0.43966 0.0
C51 C 0.87466 0.16078 0.35906 0.0
C52 C 0.90339 0.1805 0.33384 0.0
C53 C 0.92166 0.23708 0.32509 0.0
C54 C 0.94454 0.25391 0.30045 0.0
C55 C 0.94997 0.21469 0.28395 0.0
C56 C 0.93268 0.15837 0.29296 0.0
C57 C 0.90952 0.14148 0.3176 0.0
C58 C 0.67542 0.09734 0.37464 0.0
C59 C 0.75672 0.2471 0.34265 0.0
O60 O 0.61489 0.17068 0.41112 0.0
O61 O 0.66533 0.26492 0.41093 0.0
O62 O 0.79934 0.24012 0.41028 0.0
O63 O 0.77884 0.30603 0.40016 0.0
O64 O 0.70643 0.1557 0.43302 0.0
O65 O 0.78571 0.14372 0.42431 0.0
O66 O 0.88437 0.20076 0.37614 0.0
O67 O 0.82056 0.12045 0.35848 0.0
O68 O 0.70275 0.15024 0.37004 0.0
O69 O 0.70934 0.07953 0.38425 0.0
O70 O 0.79779 0.23652 0.35107 0.0
O71 O 0.7098 0.23265 0.35639 0.0
H72 H 0.55603 0.12827 0.45093 0.0
H73 H 0.53321 0.13239 0.49568 0.0
H74 H 0.61621 0.31896 0.4914 0.0
H75 H 0.63764 0.3148 0.44635 0.0
H76 H 0.91749 0.26823 0.33713 0.0
H77 H 0.95809 0.29782 0.29435 0.0
H78 H 0.93568 0.12682 0.28073 0.0
H79 H 0.89543 0.09752 0.32381 0.0
Sm80 Sm 0.48892 0.68606 0.7289 0.0
Sm81 Sm 0.59945 0.79559 0.71574 0.0
C82 C 0.41448 0.58305 0.74693 0.0
C83 C 0.39619 0.56099 0.77327 0.0
C84 C 0.43616 0.56301 0.79148 0.0
C85 C 0.41973 0.5486 0.81704 0.0
C86 C 0.36282 0.53126 0.82492 0.0
C87 C 0.32244 0.52735 0.80648 0.0
C88 C 0.33898 0.54207 0.78097 0.0
C89 C 0.47962 0.78297 0.73618 0.0
C90 C 0.59371 0.75095 0.77282 0.0
C91 C 0.67682 0.8935 0.69396 0.0
C92 C 0.6836 0.91898 0.66799 0.0
C93 C 0.63926 0.92591 0.65656 0.0
C94 C 0.64563 0.94804 0.63169 0.0
C95 C 0.69648 0.96379 0.61752 0.0
C96 C 0.74078 0.95684 0.62909 0.0
C97 C 0.73442 0.93484 0.65398 0.0
C98 C 0.59628 0.6919 0.70474 0.0
C99 C 0.49363 0.73832 0.67381 0.0
O100 O 0.46735 0.59678 0.74023 0.0
O101 O 0.39912 0.6206 0.73898 0.0
O102 O 0.52439 0.77939 0.74183 0.0
O103 O 0.43762 0.73395 0.72851 0.0
O104 O 0.54776 0.70367 0.76453 0.0
O105 O 0.62031 0.79747 0.75828 0.0
O106 O 0.63418 0.88952 0.70811 0.0
O107 O 0.6835 0.84774 0.69571 0.0
O108 O 0.55826 0.7056 0.70037 0.0
O109 O 0.63914 0.73309 0.71697 0.0
O110 O 0.53469 0.7863 0.68406 0.0
O111 O 0.47396 0.68819 0.68576 0.0
H112 H 0.48051 0.57687 0.78614 0.0
H113 H 0.45165 0.55114 0.83065 0.0
H114 H 0.27836 0.51454 0.81191 0.0
H115 H 0.30733 0.5402 0.76735 0.0
H116 H 0.59946 0.91409 0.66678 0.0
H117 H 0.61079 0.95337 0.62371 0.0
H118 H 0.78019 0.96749 0.61877 0.0
H119 H 0.76914 0.92963 0.66223 0.0
Sm120 Sm 0.76679 0.52011 0.06855 0.0
Sm121 Sm 0.78621 0.63877 0.05243 0.0
C122 C 0.76874 0.42498 0.08204 0.0
C123 C 0.77185 0.40452 0.10785 0.0
C124 C 0.79576 0.4447 0.12782 0.0
C125 C 0.79645 0.42631 0.1527 0.0
C126 C 0.77288 0.36714 0.15825 0.0
C127 C 0.74894 0.32675 0.13821 0.0
C128 C 0.7485 0.34538 0.11315 0.0
C129 C 0.67983 0.54285 0.08398 0.0
C130 C 0.82203 0.62614 0.10934 0.0
C131 C 0.78309 0.72697 0.02973 0.0
C132 C 0.75936 0.73338 1.00506 0.0
C133 C 0.7085 0.68786 0.99495 0.0
C134 C 0.69025 0.69171 0.97024 0.0
C135 C 0.72247 0.74114 0.95503 0.0
C136 C 0.77256 0.78729 0.96554 0.0
C137 C 0.79083 0.78333 0.99024 0.0
C138 C 0.87952 0.6201 0.04872 0.0
C139 C 0.7294 0.53072 1.01079 0.0
O140 O 0.81498 0.47212 0.07468 0.0
O141 O 0.72071 0.42564 0.07671 0.0
O142 O 0.70516 0.55558 0.06262 0.0
O143 O 0.70345 0.52047 0.0985 0.0
O144 O 0.82527 0.58155 0.09975 0.0
O145 O 0.7982 0.65183 0.09612 0.0
O146 O 0.74617 0.69544 0.0475 0.0
O147 O 0.82675 0.71705 0.02781 0.0
O148 O 0.82894 0.58678 0.04187 0.0
O149 O 0.88347 0.66631 0.05937 0.0
O150 O 0.74427 0.58493 1.01636 0.0
O151 O 0.73499 0.49613 0.02738 0.0
H152 H 0.81322 0.49047 0.12427 0.0
H153 H 0.81421 0.45848 0.16771 0.0
H154 H 0.73069 0.28087 0.14191 0.0
H155 H 0.72945 0.31371 0.09802 0.0
H156 H 0.68358 0.64859 1.00586 0.0
H157 H 0.65107 0.65562 0.96299 0.0
H158 H 0.79884 0.82575 0.95436 0.0
H159 H 0.83054 0.81873 0.99752 0.0
Sm160 Sm 0.26308 0.78021 0.39547 0.0
Sm161 Sm 0.1502 0.77913 0.38416 0.0
C162 C 0.36577 0.8048 0.41321 0.0
C163 C 0.3815 0.79801 0.43934 0.0
C164 C 0.33801 0.77359 0.45795 0.0
C165 C 0.35131 0.76602 0.48289 0.0
C166 C 0.40841 0.78199 0.48974 0.0
C167 C 0.45211 0.80678 0.47101 0.0
C168 C 0.4387 0.81481 0.44595 0.0
C169 C 0.16903 0.67382 0.40178 0.0
C170 C 0.19639 0.81489 0.44131 0.0
C171 C 0.04844 0.75758 0.36574 0.0
C172 C 0.02195 0.7446 0.34001 0.0
C173 C 0.02809 0.70577 0.32361 0.0
C174 C 0.00665 0.69709 0.29865 0.0
C175 C -0.02164 0.72688 0.28948 0.0
C176 C 0.97108 0.76474 0.30615 0.0
C177 C -0.00716 0.77362 0.33113 0.0
C178 C 0.24908 0.88263 0.377 0.0
C179 C 0.21764 0.74639 0.33849 0.0
O180 O 0.34924 0.84382 0.41044 0.0
O181 O 0.33175 0.75627 0.40156 0.0
O182 O 0.17087 0.72069 0.4085 0.0
O183 O 0.21825 0.68208 0.39306 0.0
O184 O 0.24467 0.8184 0.43216 0.0
O185 O 0.14899 0.7939 0.42734 0.0
O186 O 0.05775 0.718 0.37642 0.0
O187 O 0.09128 0.80991 0.369 0.0
O188 O 0.24032 0.83379 0.3701 0.0
O189 O 0.20477 0.87914 0.38923 0.0
O190 O 0.16771 0.73798 0.34802 0.0
O191 O 0.26545 0.7721 0.35209 0.0
H192 H 0.29352 0.76018 0.45314 0.0
H193 H 0.31676 0.74803 0.49687 0.0
H194 H 0.49646 0.81917 0.47561 0.0
H195 H 0.47273 0.83366 0.43176 0.0
H196 H 0.05012 0.68258 0.32995 0.0
H197 H 0.01221 0.66689 0.28652 0.0
H198 H 0.9499 0.78868 0.29968 0.0
H199 H -0.0122 0.80396 0.34339 0.0
Sm200 Sm 0.44526 0.24243 0.73924 0.0
Sm201 Sm 0.33155 0.15158 0.71468 0.0
C202 C 0.54095 0.33307 0.75524 0.0
C203 C 0.56053 0.35839 0.78062 0.0
C204 C 0.52011 0.34818 0.80006 0.0
C205 C 0.53853 0.36795 0.82481 0.0
C206 C 0.59774 0.3981 0.83057 0.0
C207 C 0.63815 0.40922 0.81089 0.0
C208 C 0.6196 0.38935 0.78608 0.0
C209 C 0.42163 0.13039 0.74604 0.0
C210 C 0.33229 0.18504 0.77596 0.0
C211 C 0.24143 0.06309 0.6933 0.0
C212 C 0.23344 0.03693 0.66754 0.0
C213 C 0.19357 0.97841 0.66357 0.0
C214 C 0.18754 0.95329 0.63931 0.0
C215 C 0.22135 -0.01379 0.61844 0.0
C216 C 0.26104 0.04506 0.6226 0.0
C217 C 0.26719 0.06996 0.64683 0.0
C218 C 0.36132 0.26658 0.70846 0.0
C219 C 0.44434 0.20821 0.6791 0.0
O220 O 0.49708 0.33683 0.74593 0.0
O221 O 0.53647 0.28199 0.75199 0.0
O222 O 0.41357 0.15087 0.72563 0.0
O223 O 0.4442 0.16986 0.76358 0.0
O224 O 0.38405 0.22983 0.77221 0.0
O225 O 0.30489 0.14607 0.75774 0.0
O226 O 0.27734 0.05667 0.7084 0.0
O227 O 0.24786 0.11544 0.69417 0.0
O228 O 0.36391 0.24224 0.72853 0.0
O229 O 0.34139 0.22922 0.68996 0.0
O230 O 0.39653 0.15998 0.68411 0.0
O231 O 0.46725 0.25058 0.69599 0.0
H232 H 0.47426 0.32416 0.79619 0.0
H233 H 0.50639 0.35948 0.83946 0.0
H234 H 0.68404 0.43186 0.81482 0.0
H235 H 0.65128 0.39707 0.7713 0.0
H236 H 0.16747 0.95195 0.6793 0.0
H237 H 0.15716 0.90773 0.63707 0.0
H238 H 0.28728 0.07225 0.60708 0.0
H239 H 0.29855 0.11518 0.64939 0.0
H240 H 0.13549 0.71545 0.30125 0.0
H241 H 0.30643 0.73917 0.31508 0.0
H242 H 0.1404 0.68796 0.25718 0.0
H243 H 0.31153 0.71218 0.27089 0.0
H244 H 0.26745 0.59541 0.19927 0.0
H245 H 0.26473 0.62482 0.24319 0.0
H246 H 0.19485 0.73332 0.21717 0.0
H247 H 0.19867 0.70502 0.17312 0.0
C248 C 0.17401 0.71459 0.29495 0.0
C249 C 0.22041 0.72924 0.31175 0.0
C250 C 0.17703 0.69933 0.26961 0.0
C251 C 0.22639 0.69793 0.26054 0.0
C252 C 0.27271 0.71234 0.27737 0.0
C253 C 0.26987 0.72809 0.30265 0.0
C254 C 0.25239 0.62629 0.20279 0.0
C255 C 0.23334 0.64783 0.18254 0.0
C256 C 0.25066 0.64297 0.22802 0.0
C257 C 0.22942 0.68125 0.23366 0.0
C258 C 0.21066 0.70309 0.21347 0.0
C259 C 0.2128 0.68677 0.18821 0.0
H260 H 0.52248 0.30775 0.65487 0.0
H261 H 0.42627 0.12194 0.64601 0.0
H262 H 0.56097 0.31637 0.61141 0.0
H263 H 0.46446 0.13067 0.603 0.0
H264 H 0.58345 0.16157 0.53579 0.0
H265 H 0.55938 0.16108 0.58083 0.0
H266 H 0.51611 0.29654 0.56665 0.0
H267 H 0.53901 0.29638 0.5214 0.0
C268 C 0.51018 0.26884 0.6438 0.0
C269 C 0.47143 0.21421 0.65381 0.0
C270 C 0.53186 0.2738 0.61894 0.0
C271 C 0.51577 0.22415 0.60393 0.0
C272 C 0.47817 0.16959 0.61425 0.0
C273 C 0.45604 0.16469 0.63884 0.0
C274 C 0.56849 0.19105 0.54221 0.0
C275 C 0.56237 0.22845 0.52491 0.0
C276 C 0.55509 0.19099 0.56802 0.0
C277 C 0.53571 0.22862 0.57716 0.0
C278 C 0.53158 0.26753 0.56013 0.0
C279 C 0.54461 0.26733 0.53423 0.0
H280 H 0.22576 0.36038 0.96963 0.0
H281 H 0.28664 0.54041 0.98765 0.0
H282 H 0.26146 0.38646 0.92635 0.0
H283 H 0.32194 0.56655 0.94363 0.0
H284 H 0.4231 0.59032 0.86749 0.0
H285 H 0.39414 0.56826 0.91233 0.0
H286 H 0.23394 0.42123 0.88881 0.0
H287 H 0.26344 0.44222 0.84424 0.0
C288 C 0.247 0.40568 0.96446 0.0
C289 C 0.25299 0.44824 0.98224 0.0
C290 C 0.26715 0.42056 0.93946 0.0
C291 C 0.2939 0.47846 0.93139 0.0
C292 C 0.30166 0.5215 0.94929 0.0
C293 C 0.28128 0.50652 0.97447 0.0
C294 C 0.38193 0.55297 0.87194 0.0
C295 C 0.34563 0.51791 0.85226 0.0
C296 C 0.36509 0.54076 0.89761 0.0
C297 C 0.3118 0.49294 0.90418 0.0
C298 C 0.27559 0.45803 0.88446 0.0
C299 C 0.29224 0.47036 0.85887 0.0
H300 H 0.67419 0.25807 0.31549 0.0
H301 H 0.84874 0.28605 0.31006 0.0
H302 H 0.67898 0.28723 0.2709 0.0
H303 H 0.85294 0.31346 0.26544 0.0
H304 H 0.85945 0.41489 0.19353 0.0
H305 H 0.85591 0.38904 0.23845 0.0
H306 H 0.68152 0.24995 0.22845 0.0
H307 H 0.68438 0.27724 0.18366 0.0
C308 C 0.71368 0.27068 0.30485 0.0
C309 C 0.76102 0.26945 0.31633 0.0
C310 C 0.7162 0.2868 0.27922 0.0
C311 C 0.76614 0.30214 0.26453 0.0
C312 C 0.81394 0.30227 0.27622 0.0
C313 C 0.81141 0.28619 0.30181 0.0
C314 C 0.82027 0.37891 0.20095 0.0
C315 C 0.7721 0.34824 0.18506 0.0
C316 C 0.81842 0.36378 0.22664 0.0
C317 C 0.76833 0.31761 0.23708 0.0
C318 C 0.72047 0.28629 0.22109 0.0
C319 C 0.72237 0.30138 0.19534 0.0
H320 H 0.44092 0.65046 0.63907 0.0
H321 H 0.50552 0.83389 0.64915 0.0
H322 H 0.42163 0.65937 0.5941 0.0
H323 H 0.48522 0.84271 0.60463 0.0
H324 H 0.50216 0.85363 0.51884 0.0
H325 H 0.52124 0.84025 0.56314 0.0
H326 H 0.36192 0.67788 0.56572 0.0
H327 H 0.34467 0.68955 0.52103 0.0
C328 C 0.45003 0.69243 0.63179 0.0
C329 C 0.47502 0.74149 0.64757 0.0
C330 C 0.43907 0.69762 0.60603 0.0
C331 C 0.45253 0.75193 0.59564 0.0
C332 C 0.47566 0.8005 0.61177 0.0
C333 C 0.48688 0.79535 0.63738 0.0
C334 C 0.47172 0.8146 0.52871 0.0
C335 C 0.42169 0.77288 0.51639 0.0
C336 C 0.48221 0.80729 0.55425 0.0
C337 C 0.44275 0.75826 0.56812 0.0
C338 C 0.3934 0.71597 0.55562 0.0
C339 C 0.38314 0.72308 0.53005 0.0
H340 H 0.71596 0.59105 0.97157 0.0
H341 H 0.69481 0.42274 0.99096 0.0
H342 H 0.68322 0.55798 0.92842 0.0
H343 H 0.66342 0.39009 0.94731 0.0
H344 H 0.55272 0.33668 0.87452 0.0
H345 H 0.58299 0.36793 0.91834 0.0
H346 H 0.71814 0.53188 0.89036 0.0
H347 H 0.68645 0.50144 0.84659 0.0
C348 C 0.70422 0.54692 0.96668 0.0
C349 C 0.70789 0.5095 0.98478 0.0
C350 C 0.68596 0.52816 0.94182 0.0
C351 C 0.67112 0.47158 0.93441 0.0
C352 C 0.67411 0.43382 0.95254 0.0
C353 C 0.69233 0.45261 0.9775 0.0
C354 C 0.58855 0.37961 0.87776 0.0
C355 C 0.61704 0.41677 0.85713 0.0
C356 C 0.6063 0.39721 0.90283 0.0
C357 C 0.65288 0.45235 0.90779 0.0
C358 C 0.68164 0.48935 0.88715 0.0
C359 C 0.66392 0.47173 0.86208 0.0
H360 H 0.31831 0.41013 0.1246 0.0
H361 H 0.32119 0.38457 0.04317 0.0
H362 H 0.42089 0.43935 0.12695 0.0
H363 H 0.42364 0.41655 0.04513 0.0
H364 H 0.60544 0.45383 0.0554 0.0
H365 H 0.50057 0.40383 0.05728 0.0
H366 H 0.50759 0.5228 0.11593 0.0
H367 H 0.61333 0.57036 0.11493 0.0
C368 C 0.34069 0.40962 0.10731 0.0
C369 C 0.31203 0.3957 0.08368 0.0
C370 C 0.39963 0.42724 0.10856 0.0
C371 C 0.43111 0.43184 0.08616 0.0
C372 C 0.4011 0.41337 0.06285 0.0
C373 C 0.34209 0.39494 0.06168 0.0
C374 C 0.58426 0.46922 0.06861 0.0
C375 C 0.61682 0.51636 0.08472 0.0
C376 C 0.5242 0.44068 0.0697 0.0
C377 C 0.49524 0.45933 0.08662 0.0
C378 C 0.52827 0.50654 0.10293 0.0
C379 C 0.58869 0.53443 0.10217 0.0
H380 H 0.17219 0.57302 0.40003 0.0
H381 H 0.059 0.64409 0.41625 0.0
H382 H 0.09308 0.47582 0.40717 0.0
H383 H -0.02125 0.54649 0.42223 0.0
H384 H 0.84671 0.37114 0.4437 0.0
H385 H 0.93715 0.46171 0.44787 0.0
H386 H 0.00869 0.41042 0.38485 0.0
H387 H 0.91896 0.31895 0.38175 0.0
C388 C 0.13021 0.56773 0.40513 0.0
C389 C 0.12134 0.61583 0.4074 0.0
C390 C 0.08488 0.51202 0.40914 0.0
C391 C 0.0295 0.50321 0.41515 0.0
C392 C 0.02108 0.55169 0.41804 0.0
C393 C 0.06677 0.60758 0.41437 0.0
C394 C 0.88284 0.37868 0.43149 0.0
C395 C 0.87682 0.33852 0.41261 0.0
C396 C 0.9342 0.43069 0.43359 0.0
C397 C -0.02024 0.44385 0.41638 0.0
C398 C -0.02525 0.40155 0.3986 0.0
C399 C 0.92356 0.34906 0.39681 0.0
H400 H 0.46624 0.09313 0.78396 0.0
H401 H 0.38833 0.04847 0.70905 0.0
H402 H 0.48199 0.00918 0.78284 0.0
H403 H 0.40442 0.96515 0.70787 0.0
H404 H 0.38309 0.78933 0.7266 0.0
H405 H 0.36777 0.87222 0.73076 0.0
H406 H 0.54284 0.97559 0.75751 0.0
H407 H 0.55824 0.89121 0.75361 0.0
C408 C 0.45207 0.06508 0.76738 0.0
C409 C 0.42596 0.07703 0.74659 0.0
C410 C 0.46163 0.01753 0.76665 0.0
C411 C 0.44468 -0.01903 0.74524 0.0
C412 C 0.41752 -0.00758 0.72471 0.0
C413 C 0.40827 0.04001 0.72537 0.0
C414 C 0.41842 0.8296 0.73348 0.0
C415 C 0.47197 0.83402 0.73974 0.0
C416 C 0.40962 0.87713 0.73573 0.0
C417 C 0.45419 0.93032 0.74425 0.0
C418 C 0.50766 0.93479 0.75102 0.0
C419 C 0.51658 0.88685 0.7487 0.0
H420 H 0.61202 0.62254 0.73911 0.0
H421 H 0.54727 0.62572 0.66389 0.0
H422 H 0.5599 0.51632 0.73824 0.0
H423 H 0.49499 0.52068 0.66299 0.0
H424 H 0.4212 0.32494 0.66581 0.0
H425 H 0.493 0.42771 0.66316 0.0
H426 H 0.45523 0.45133 0.74134 0.0
H427 H 0.38476 0.34879 0.744 0.0
C428 C 0.58884 0.60048 0.72199 0.0
C429 C 0.5837 0.63181 0.70151 0.0
C430 C 0.55819 0.53986 0.72162 0.0
C431 C 0.52249 0.51017 0.7007 0.0
C432 C 0.52217 0.54199 0.6793 0.0
C433 C 0.55227 0.60218 0.67978 0.0
C434 C 0.42773 0.3525 0.6822 0.0
C435 C 0.39736 0.32937 0.70504 0.0
C436 C 0.46918 0.41108 0.68082 0.0
C437 C 0.48063 0.44741 0.70222 0.0
C438 C 0.44871 0.42425 0.72476 0.0
C439 C 0.40759 0.36586 0.72615 0.0
H440 H 0.10374 0.47471 1.01795 0.0
H441 H -0.01441 0.3683 0.07695 0.0
H442 H 0.06549 0.54168 1.02077 0.0
H443 H 0.94686 0.43641 0.07979 0.0
H444 H 0.9386 0.61081 0.08975 0.0
H445 H -0.0122 0.55193 0.09091 0.0
H446 H 0.96192 0.52345 1.00958 0.0
H447 H 0.91178 0.58021 1.00865 0.0
C448 C 0.06929 0.46558 0.03149 0.0
C449 C 0.047 0.41606 0.04703 0.0
C450 C 0.04775 0.5041 0.03317 0.0
C451 C 0.00367 0.49428 0.05058 0.0
C452 C -0.01856 0.44506 0.06642 0.0
C453 C 0.0028 0.40582 0.06454 0.0
C454 C 0.94523 0.59333 0.07211 0.0
C455 C 0.92261 0.60057 0.04901 0.0
C456 C 0.97236 0.55905 0.07283 0.0
C457 C -0.02189 0.53305 0.05035 0.0
C458 C 0.95819 0.54325 0.02713 0.0
C459 C 0.93013 0.57613 0.02653 0.0
H460 H 0.31275 0.94314 0.41812 0.0
H461 H 0.31724 0.92588 0.33627 0.0
H462 H 0.41893 -0.00096 0.41877 0.0
H463 H 0.42213 -0.01796 0.33671 0.0
H464 H 0.6014 0.00605 0.40493 0.0
H465 H 0.49569 0.96465 0.40726 0.0
H466 H 0.50343 0.08175 0.34788 0.0
H467 H 0.60759 0.12217 0.34539 0.0
C468 C 0.3364 0.95379 0.40023 0.0
C469 C 0.3075 0.93146 0.37707 0.0
C470 C 0.39684 -0.01541 0.40063 0.0
C471 C 0.42837 -0.00589 0.37782 0.0
C472 C 0.39881 0.97547 0.35454 0.0
C473 C 0.33891 0.94394 0.35422 0.0
C474 C 0.58007 0.02205 0.39221 0.0
C475 C 0.61212 0.06656 0.37476 0.0
C476 C 0.52009 -0.00068 0.39385 0.0
C477 C 0.49185 0.02062 0.37789 0.0
C478 C 0.52419 0.06469 0.36037 0.0
C479 C 0.58365 0.08746 0.35886 0.0
H480 H 0.21905 0.11393 0.79131 0.0
H481 H 0.38449 0.2468 0.81862 0.0
H482 H 0.17594 0.11427 0.83298 0.0
H483 H 0.34214 0.24659 0.85958 0.0
H484 H 0.24264 0.2853 0.91853 0.0
H485 H 0.2768 0.27839 0.87621 0.0
H486 H 0.1765 0.09209 0.87961 0.0
H487 H 0.14189 0.09909 0.92228 0.0
C488 C 0.24626 0.14281 0.80615 0.0
C489 C 0.3051 0.18084 0.80139 0.0
C490 C 0.22163 0.14295 0.83002 0.0
C491 C 0.25538 0.1812 0.84951 0.0
C492 C 0.31443 0.21766 0.84487 0.0
C493 C 0.33883 0.21753 0.82125 0.0
C494 C 0.22809 0.24278 0.91041 0.0
C495 C 0.19024 0.19276 0.92407 0.0
C496 C 0.24762 0.23877 0.88606 0.0
C497 C 0.23009 0.1846 0.87459 0.0
C498 C 0.19068 0.13448 0.88782 0.0
C499 C 0.17096 0.13852 0.9123 0.0
H500 H 0.92722 0.28021 0.24999 0.0
H501 H 0.02477 0.18909 0.25766 0.0
H502 H 0.96546 0.31005 0.20692 0.0
H503 H 0.0634 0.21924 0.21463 0.0
H504 H 0.08041 0.23811 0.1277 0.0
H505 H 0.03854 0.20563 0.17009 0.0
H506 H 0.05285 0.37309 0.18462 0.0
H507 H 0.09338 0.40507 0.14209 0.0
C508 C 0.95726 0.26695 0.24259 0.0
C509 C 0.97302 0.23238 0.25742 0.0
C510 C -0.02074 0.28411 0.21783 0.0
C511 C 0.01779 0.2673 0.20718 0.0
C512 C 0.03322 0.23236 0.22197 0.0
C513 C 0.01109 0.21509 0.24671 0.0
C514 C 0.07449 0.26799 0.1399 0.0
C515 C 0.09034 0.32426 0.13138 0.0
C516 C 0.05076 0.24945 0.16432 0.0
C517 C 0.04227 0.28667 0.18093 0.0
C518 C 0.05789 0.34285 0.17232 0.0
C519 C 0.08154 0.36136 0.1479 0.0
H520 H 0.79464 0.04889 0.5945 0.0
H521 H 0.61402 0.9327 0.57987 0.0
H522 H 0.80569 0.08789 0.55141 0.0
H523 H 0.62504 0.97262 0.53691 0.0
H524 H 0.65441 0.10664 0.47379 0.0
H525 H 0.64325 0.06345 0.51598 0.0
H526 H 0.80433 0.06166 0.50598 0.0
H527 H 0.81587 0.10537 0.46369 0.0
C528 C 0.75732 0.03113 0.58208 0.0
C529 C 0.70335 -0.01251 0.5909 0.0
C530 C 0.76372 0.05367 0.5573 0.0
C531 C 0.71629 0.03356 0.54062 0.0
C532 C 0.66237 -0.01021 0.54934 0.0
C533 C 0.65603 0.96697 0.57407 0.0
C534 C 0.68754 0.09702 0.48048 0.0
C535 C 0.7362 0.10974 0.46523 0.0
C536 C 0.68088 0.07183 0.50469 0.0
C537 C 0.72284 0.05898 0.51446 0.0
C538 C 0.77143 0.07149 0.49919 0.0
C539 C 0.7779 0.09631 0.47485 0.0
H540 H 0.68935 0.83632 0.79726 0.0
H541 H 0.54432 0.6658 0.80885 0.0
H542 H 0.72193 0.83485 0.84086 0.0
H543 H 0.57607 0.66467 0.8522 0.0
H544 H 0.67957 0.65435 0.91929 0.0
H545 H 0.6507 0.65797 0.87548 0.0
H546 H 0.69708 0.8376 0.8855 0.0
H547 H 0.72608 0.83396 0.92945 0.0
C548 C 0.66433 0.79856 0.80904 0.0
C549 C 0.61432 0.75101 0.79934 0.0
C550 C 0.68285 0.79783 0.83413 0.0
C551 C 0.65187 0.7495 0.85013 0.0
C552 C 0.60176 0.70221 0.84039 0.0
C553 C 0.58333 0.70297 0.81543 0.0
C554 C 0.68309 0.69452 0.9123 0.0
C555 C 0.70484 0.74373 0.9281 0.0
C556 C 0.66657 0.69664 0.88708 0.0
C557 C 0.67124 0.74804 0.87685 0.0
C558 C 0.69353 0.79746 0.89255 0.0
C559 C 0.71009 0.79534 0.91782 0.0
H560 H 0.87612 0.71624 0.27139 0.0
H561 H 0.03358 0.72004 0.24644 0.0
H562 H 0.84033 0.69784 0.22743 0.0
H563 H -0.0019 0.70201 0.20269 0.0
H564 H 0.88695 0.59198 0.13712 0.0
H565 H 0.9248 0.62065 0.17982 0.0
H566 H 0.85333 0.73686 0.18341 0.0
H567 H 0.81367 0.7068 0.14024 0.0
C568 C 0.9034 0.71389 0.2565 0.0
C569 C 0.95742 0.71884 0.26254 0.0
C570 C 0.88293 0.70347 0.23128 0.0
C571 C 0.91603 0.69784 0.21152 0.0
C572 C 0.97086 0.70481 0.21749 0.0
C573 C -0.0088 0.71507 0.24262 0.0
C574 C 0.87906 0.6237 0.14685 0.0
C575 C 0.84695 0.64692 0.13515 0.0
C576 C 0.90139 0.64058 0.17138 0.0
C577 C 0.89255 0.6814 0.18508 0.0
C578 C 0.86064 0.70503 0.17344 0.0
C579 C 0.83824 0.68812 0.14866 0.0
H580 H 0.12339 0.90277 0.5945 0.0
H581 H 0.30732 0.00853 0.58342 0.0
H582 H 0.11563 0.85869 0.5527 0.0
H583 H 0.29905 0.96717 0.5412 0.0
H584 H 0.28026 0.8445 0.47752 0.0
H585 H 0.2842 0.88265 0.5201 0.0
H586 H 0.11911 0.87461 0.50774 0.0
H587 H 0.11428 0.83418 0.46518 0.0
C588 C 0.16225 0.91672 0.58323 0.0
C589 C 0.21603 0.95941 0.59258 0.0
C590 C 0.15765 0.89189 0.55901 0.0
C591 C 0.20667 0.90906 0.54336 0.0
C592 C 0.26033 0.95194 0.5527 0.0
C593 C 0.26497 0.97647 0.57691 0.0
C594 C 0.24455 0.85053 0.48383 0.0
C595 C 0.19697 0.83629 0.46776 0.0
C596 C 0.24704 0.87299 0.50832 0.0
C597 C 0.20232 0.88256 0.5175 0.0
C598 C 0.1542 0.86743 0.50156 0.0
C599 C 0.15149 0.84443 0.47704 0.0
loop_
_geom_bond_atom_site_label_1
_geom_bond_atom_site_label_2
_geom_bond_distance
_geom_bond_site_symmetry_2
_ccdc_geom_bond_type
Sm0 C2 2.846 . S
Sm0 O20 2.543 . S
Sm0 O21 2.450 . S
Sm0 O22 2.681 . S
Sm0 O23 2.464 . S
Sm0 O24 2.396 . S
Sm0 O28 2.386 . S
Sm0 O31 2.408 . S
Sm1 C11 2.846 1_554 S
Sm1 O22 2.386 . S
Sm1 O25 2.408 . S
Sm1 O26 2.543 1_554 S
Sm1 O27 2.450 1_554 S
Sm1 O28 2.681 . S
Sm1 O29 2.464 . S
Sm1 O30 2.396 1_554 S
C2 Sm0 2.846 . S
C2 C3 1.506 . S
C2 O20 1.261 . S
C2 O21 1.242 . S
C3 C2 1.506 . S
C3 C4 1.358 . S
C3 C8 1.382 . S
C4 C3 1.358 . S
C4 C5 1.385 . S
C4 H32 0.930 . S
C5 C4 1.385 . S
C5 C6 1.395 . S
C5 H33 0.929 . S
C6 C5 1.395 . S
C6 C7 1.335 . S
C7 C6 1.335 . S
C7 C8 1.398 . S
C7 H34 0.930 . S
C8 C3 1.382 . S
C8 C7 1.398 . S
C8 H35 0.929 . S
C9 O22 1.271 . S
C9 O23 1.251 . S
C10 O24 1.252 . S
C10 O25 1.272 . S
C11 Sm1 2.846 1_556 S
C11 C12 1.506 . S
C11 O26 1.261 . S
C11 O27 1.242 . S
C12 C11 1.506 . S
C12 C13 1.358 . S
C12 C17 1.382 . S
C13 C12 1.358 . S
C13 C14 1.385 . S
C13 H36 0.930 . S
C14 C13 1.385 . S
C14 C15 1.395 . S
C14 H37 0.929 . S
C15 C14 1.395 . S
C15 C16 1.335 . S
C16 C15 1.335 . S
C16 C17 1.398 . S
C16 H38 0.930 . S
C17 C12 1.382 . S
C17 C16 1.398 . S
C17 H39 0.929 . S
C18 O28 1.271 . S
C18 O29 1.251 . S
C19 O30 1.252 . S
C19 O31 1.272 1_556 S
O20 Sm0 2.543 . S
O20 C2 1.261 . S
O21 Sm0 2.450 . S
O21 C2 1.242 . S
O22 Sm0 2.681 . S
O22 Sm1 2.386 . S
O22 C9 1.271 . S
O23 Sm0 2.464 . S
O23 C9 1.251 . S
O24 Sm0 2.396 . S
O24 C10 1.252 . S
O25 Sm1 2.408 . S
O25 C10 1.272 . S
O26 Sm1 2.543 1_556 S
O26 C11 1.261 . S
O27 Sm1 2.450 1_556 S
O27 C11 1.242 . S
O28 Sm0 2.386 . S
O28 Sm1 2.681 . S
O28 C18 1.271 . S
O29 Sm1 2.464 . S
O29 C18 1.251 . S
O30 Sm1 2.396 1_556 S
O30 C19 1.252 . S
O31 Sm0 2.408 . S
O31 C19 1.272 1_554 S
H32 C4 0.930 . S
H33 C5 0.929 . S
H34 C7 0.930 . S
H35 C8 0.929 . S
H36 C13 0.930 . S
H37 C14 0.929 . S
H38 C16 0.930 . S
H39 C17 0.929 . S
Sm40 C42 2.846 . S
Sm40 O60 2.543 . S
Sm40 O61 2.450 . S
Sm40 O62 2.681 . S
Sm40 O63 2.464 . S
Sm40 O64 2.396 . S
Sm40 O68 2.386 . S
Sm40 O71 2.408 . S
Sm41 C51 2.846 . S
Sm41 O62 2.386 . S
Sm41 O65 2.408 . S
Sm41 O66 2.543 . S
Sm41 O67 2.450 . S
Sm41 O68 2.681 . S
Sm41 O69 2.464 . S
Sm41 O70 2.396 . S
C42 Sm40 2.846 . S
C42 C43 1.506 . S
C42 O60 1.261 . S
C42 O61 1.242 . S
C43 C42 1.506 . S
C43 C44 1.358 . S
C43 C48 1.382 . S
C44 C43 1.358 . S
C44 C45 1.385 . S
C44 H72 0.930 . S
C45 C44 1.385 . S
C45 C46 1.395 . S
C45 H73 0.929 . S
C46 C45 1.395 . S
C46 C47 1.335 . S
C47 C46 1.335 . S
C47 C48 1.398 . S
C47 H74 0.930 . S
C48 C43 1.382 . S
C48 C47 1.398 . S
C48 H75 0.929 . S
C49 O62 1.271 . S
C49 O63 1.251 . S
C50 O64 1.252 . S
C50 O65 1.272 . S
C51 Sm41 2.846 . S
C51 C52 1.506 . S
C51 O66 1.261 . S
C51 O67 1.242 . S
C52 C51 1.506 . S
C52 C53 1.358 . S
C52 C57 1.382 . S
C53 C52 1.358 . S
C53 C54 1.385 . S
C53 H76 0.930 . S
C54 C53 1.385 . S
C54 C55 1.395 . S
C54 H77 0.929 1_655 S
C55 C54 1.395 . S
C55 C56 1.335 . S
C56 C55 1.335 . S
C56 C57 1.398 . S
C56 H78 0.930 . S
C57 C52 1.382 . S
C57 C56 1.398 . S
C57 H79 0.929 . S
C58 O68 1.271 . S
C58 O69 1.251 . S
C59 O70 1.252 . S
C59 O71 1.272 . S
O60 Sm40 2.543 . S
O60 C42 1.261 . S
O61 Sm40 2.450 . S
O61 C42 1.242 . S
O62 Sm40 2.681 . S
O62 Sm41 2.386 . S
O62 C49 1.271 . S
O63 Sm40 2.464 . S
O63 C49 1.251 . S
O64 Sm40 2.396 . S
O64 C50 1.252 . S
O65 Sm41 2.408 . S
O65 C50 1.272 . S
O66 Sm41 2.543 . S
O66 C51 1.261 . S
O67 Sm41 2.450 . S
O67 C51 1.242 . S
O68 Sm40 2.386 . S
O68 Sm41 2.681 . S
O68 C58 1.271 . S
O69 Sm41 2.464 . S
O69 C58 1.251 . S
O70 Sm41 2.396 . S
O70 C59 1.252 . S
O71 Sm40 2.408 . S
O71 C59 1.272 . S
H72 C44 0.930 . S
H73 C45 0.929 . S
H74 C47 0.930 . S
H75 C48 0.929 . S
H76 C53 0.930 . S
H77 C54 0.929 1_455 S
H78 C56 0.930 . S
H79 C57 0.929 . S
Sm80 C82 2.846 . S
Sm80 O100 2.543 . S
Sm80 O101 2.450 . S
Sm80 O102 2.681 . S
Sm80 O103 2.464 . S
Sm80 O104 2.396 . S
Sm80 O108 2.386 . S
Sm80 O111 2.408 . S
Sm81 C91 2.846 . S
Sm81 O102 2.386 . S
Sm81 O105 2.408 . S
Sm81 O106 2.543 . S
Sm81 O107 2.450 . S
Sm81 O108 2.681 . S
Sm81 O109 2.464 . S
Sm81 O110 2.396 . S
C82 Sm80 2.846 . S
C82 C83 1.506 . S
C82 O100 1.261 . S
C82 O101 1.242 . S
C83 C82 1.506 . S
C83 C84 1.358 . S
C83 C88 1.382 . S
C84 C83 1.358 . S
C84 C85 1.385 . S
C84 H112 0.930 . S
C85 C84 1.385 . S
C85 C86 1.395 . S
C85 H113 0.929 . S
C86 C85 1.395 . S
C86 C87 1.335 . S
C87 C86 1.335 . S
C87 C88 1.398 . S
C87 H114 0.930 . S
C88 C83 1.382 . S
C88 C87 1.398 . S
C88 H115 0.929 . S
C89 O102 1.271 . S
C89 O103 1.251 . S
C90 O104 1.252 . S
C90 O105 1.272 . S
C91 Sm81 2.846 . S
C91 C92 1.506 . S
C91 O106 1.261 . S
C91 O107 1.242 . S
C92 C91 1.506 . S
C92 C93 1.358 . S
C92 C97 1.382 . S
C93 C92 1.358 . S
C93 C94 1.385 . S
C93 H116 0.930 . S
C94 C93 1.385 . S
C94 C95 1.395 . S
C94 H117 0.929 1_565 S
C95 C94 1.395 . S
C95 C96 1.335 . S
C96 C95 1.335 . S
C96 C97 1.398 . S
C96 H118 0.930 . S
C97 C92 1.382 . S
C97 C96 1.398 . S
C97 H119 0.929 . S
C98 O108 1.271 . S
C98 O109 1.251 . S
C99 O110 1.252 . S
C99 O111 1.272 . S
O100 Sm80 2.543 . S
O100 C82 1.261 . S
O101 Sm80 2.450 . S
O101 C82 1.242 . S
O102 Sm80 2.681 . S
O102 Sm81 2.386 . S
O102 C89 1.271 . S
O103 Sm80 2.464 . S
O103 C89 1.251 . S
O104 Sm80 2.396 . S
O104 C90 1.252 . S
O105 Sm81 2.408 . S
O105 C90 1.272 . S
O106 Sm81 2.543 . S
O106 C91 1.261 . S
O107 Sm81 2.450 . S
O107 C91 1.242 . S
O108 Sm80 2.386 . S
O108 Sm81 2.681 . S
O108 C98 1.271 . S
O109 Sm81 2.464 . S
O109 C98 1.251 . S
O110 Sm81 2.396 . S
O110 C99 1.252 . S
O111 Sm80 2.408 . S
O111 C99 1.272 . S
H112 C84 0.930 . S
H113 C85 0.929 . S
H114 C87 0.930 . S
H115 C88 0.929 . S
H116 C93 0.930 . S
H117 C94 0.929 1_545 S
H118 C96 0.930 . S
H119 C97 0.929 . S
Sm120 C122 2.846 . S
Sm120 O140 2.543 . S
Sm120 O141 2.450 . S
Sm120 O142 2.681 . S
Sm120 O143 2.464 . S
Sm120 O144 2.396 . S
Sm120 O148 2.386 . S
Sm120 O151 2.408 . S
Sm121 C131 2.846 1_554 S
Sm121 O142 2.386 . S
Sm121 O145 2.408 . S
Sm121 O146 2.543 1_554 S
Sm121 O147 2.450 1_554 S
Sm121 O148 2.681 . S
Sm121 O149 2.464 . S
Sm121 O150 2.396 1_554 S
C122 Sm120 2.846 . S
C122 C123 1.506 . S
C122 O140 1.261 . S
C122 O141 1.242 . S
C123 C122 1.506 . S
C123 C124 1.358 . S
C123 C128 1.382 . S
C124 C123 1.358 . S
C124 C125 1.385 . S
C124 H152 0.930 . S
C125 C124 1.385 . S
C125 C126 1.395 . S
C125 H153 0.929 . S
C126 C125 1.395 . S
C126 C127 1.335 . S
C127 C126 1.335 . S
C127 C128 1.398 . S
C127 H154 0.930 . S
C128 C123 1.382 . S
C128 C127 1.398 . S
C128 H155 0.929 . S
C129 O142 1.271 . S
C129 O143 1.251 . S
C130 O144 1.252 . S
C130 O145 1.272 . S
C131 Sm121 2.846 1_556 S
C131 C132 1.506 . S
C131 O146 1.261 . S
C131 O147 1.242 . S
C132 C131 1.506 . S
C132 C133 1.358 . S
C132 C137 1.382 . S
C133 C132 1.358 . S
C133 C134 1.385 . S
C133 H156 0.930 . S
C134 C133 1.385 . S
C134 C135 1.395 . S
C134 H157 0.929 . S
C135 C134 1.395 . S
C135 C136 1.335 . S
C136 C135 1.335 . S
C136 C137 1.398 . S
C136 H158 0.930 . S
C137 C132 1.382 . S
C137 C136 1.398 . S
C137 H159 0.929 . S
C138 O148 1.271 . S
C138 O149 1.251 . S
C139 O150 1.252 . S
C139 O151 1.272 1_556 S
O140 Sm120 2.543 . S
O140 C122 1.261 . S
O141 Sm120 2.450 . S
O141 C122 1.242 . S
O142 Sm120 2.681 . S
O142 Sm121 2.386 . S
O142 C129 1.271 . S
O143 Sm120 2.464 . S
O143 C129 1.251 . S
O144 Sm120 2.396 . S
O144 C130 1.252 . S
O145 Sm121 2.408 . S
O145 C130 1.272 . S
O146 Sm121 2.543 1_556 S
O146 C131 1.261 . S
O147 Sm121 2.450 1_556 S
O147 C131 1.242 . S
O148 Sm120 2.386 . S
O148 Sm121 2.681 . S
O148 C138 1.271 . S
O149 Sm121 2.464 . S
O149 C138 1.251 . S
O150 Sm121 2.396 1_556 S
O150 C139 1.252 . S
O151 Sm120 2.408 . S
O151 C139 1.272 1_554 S
H152 C124 0.930 . S
H153 C125 0.929 . S
H154 C127 0.930 . S
H155 C128 0.929 . S
H156 C133 0.930 . S
H157 C134 0.929 . S
H158 C136 0.930 . S
H159 C137 0.929 . S
Sm160 C162 2.846 . S
Sm160 O180 2.543 . S
Sm160 O181 2.450 . S
Sm160 O182 2.681 . S
Sm160 O183 2.464 . S
Sm160 O184 2.396 . S
Sm160 O188 2.386 . S
Sm160 O191 2.408 . S
Sm161 C171 2.846 . S
Sm161 O182 2.386 . S
Sm161 O185 2.408 . S
Sm161 O186 2.543 . S
Sm161 O187 2.450 . S
Sm161 O188 2.681 . S
Sm161 O189 2.464 . S
Sm161 O190 2.396 . S
C162 Sm160 2.846 . S
C162 C163 1.506 . S
C162 O180 1.261 . S
C162 O181 1.242 . S
C163 C162 1.506 . S
C163 C164 1.358 . S
C163 C168 1.382 . S
C164 C163 1.358 . S
C164 C165 1.385 . S
C164 H192 0.930 . S
C165 C164 1.385 . S
C165 C166 1.395 . S
C165 H193 0.929 . S
C166 C165 1.395 . S
C166 C167 1.335 . S
C167 C166 1.335 . S
C167 C168 1.398 . S
C167 H194 0.930 . S
C168 C163 1.382 . S
C168 C167 1.398 . S
C168 H195 0.929 . S
C169 O182 1.271 . S
C169 O183 1.251 . S
C170 O184 1.252 . S
C170 O185 1.272 . S
C171 Sm161 2.846 . S
C171 C172 1.506 . S
C171 O186 1.261 . S
C171 O187 1.242 . S
C172 C171 1.506 . S
C172 C173 1.358 . S
C172 C177 1.382 . S
C173 C172 1.358 . S
C173 C174 1.385 . S
C173 H196 0.930 . S
C174 C173 1.385 . S
C174 C175 1.395 . S
C174 H197 0.929 1_455 S
C175 C174 1.395 . S
C175 C176 1.335 . S
C176 C175 1.335 . S
C176 C177 1.398 . S
C176 H198 0.930 . S
C177 C172 1.382 . S
C177 C176 1.398 . S
C177 H199 0.929 . S
C178 O188 1.271 . S
C178 O189 1.251 . S
C179 O190 1.252 . S
C179 O191 1.272 . S
O180 Sm160 2.543 . S
O180 C162 1.261 . S
O181 Sm160 2.450 . S
O181 C162 1.242 . S
O182 Sm160 2.681 . S
O182 Sm161 2.386 . S
O182 C169 1.271 . S
O183 Sm160 2.464 . S
O183 C169 1.251 . S
O184 Sm160 2.396 . S
O184 C170 1.252 . S
O185 Sm161 2.408 . S
O185 C170 1.272 . S
O186 Sm161 2.543 . S
O186 C171 1.261 . S
O187 Sm161 2.450 . S
O187 C171 1.242 . S
O188 Sm160 2.386 . S
O188 Sm161 2.681 . S
O188 C178 1.271 . S
O189 Sm161 2.464 . S
O189 C178 1.251 . S
O190 Sm161 2.396 . S
O190 C179 1.252 . S
O191 Sm160 2.408 . S
O191 C179 1.272 . S
H192 C164 0.930 . S
H193 C165 0.929 . S
H194 C167 0.930 . S
H195 C168 0.929 . S
H196 C173 0.930 . S
H197 C174 0.929 1_655 S
H198 C176 0.930 . S
H199 C177 0.929 . S
Sm200 C202 2.846 . S
Sm200 O220 2.543 . S
Sm200 O221 2.450 . S
Sm200 O222 2.681 . S
Sm200 O223 2.464 . S
Sm200 O224 2.396 . S
Sm200 O228 2.386 . S
Sm200 O231 2.408 . S
Sm201 C211 2.846 . S
Sm201 O222 2.386 . S
Sm201 O225 2.408 . S
Sm201 O226 2.543 . S
Sm201 O227 2.450 . S
Sm201 O228 2.681 . S
Sm201 O229 2.464 . S
Sm201 O230 2.396 . S
C202 Sm200 2.846 . S
C202 C203 1.506 . S
C202 O220 1.261 . S
C202 O221 1.242 . S
C203 C202 1.506 . S
C203 C204 1.358 . S
C203 C208 1.382 . S
C204 C203 1.358 . S
C204 C205 1.385 . S
C204 H232 0.930 . S
C205 C204 1.385 . S
C205 C206 1.395 . S
C205 H233 0.929 . S
C206 C205 1.395 . S
C206 C207 1.335 . S
C207 C206 1.335 . S
C207 C208 1.398 . S
C207 H234 0.930 . S
C208 C203 1.382 . S
C208 C207 1.398 . S
C208 H235 0.929 . S
C209 O222 1.271 . S
C209 O223 1.251 . S
C210 O224 1.252 . S
C210 O225 1.272 . S
C211 Sm201 2.846 . S
C211 C212 1.506 . S
C211 O226 1.261 . S
C211 O227 1.242 . S
C212 C211 1.506 . S
C212 C213 1.358 . S
C212 C217 1.382 . S
C213 C212 1.358 . S
C213 C214 1.385 . S
C213 H236 0.930 . S
C214 C213 1.385 . S
C214 C215 1.395 . S
C214 H237 0.929 1_545 S
C215 C214 1.395 . S
C215 C216 1.335 . S
C216 C215 1.335 . S
C216 C217 1.398 . S
C216 H238 0.930 . S
C217 C212 1.382 . S
C217 C216 1.398 . S
C217 H239 0.929 . S
C218 O228 1.271 . S
C218 O229 1.251 . S
C219 O230 1.252 . S
C219 O231 1.272 . S
O220 Sm200 2.543 . S
O220 C202 1.261 . S
O221 Sm200 2.450 . S
O221 C202 1.242 . S
O222 Sm200 2.681 . S
O222 Sm201 2.386 . S
O222 C209 1.271 . S
O223 Sm200 2.464 . S
O223 C209 1.251 . S
O224 Sm200 2.396 . S
O224 C210 1.252 . S
O225 Sm201 2.408 . S
O225 C210 1.272 . S
O226 Sm201 2.543 . S
O226 C211 1.261 . S
O227 Sm201 2.450 . S
O227 C211 1.242 . S
O228 Sm200 2.386 . S
O228 Sm201 2.681 . S
O228 C218 1.271 . S
O229 Sm201 2.464 . S
O229 C218 1.251 . S
O230 Sm201 2.396 . S
O230 C219 1.252 . S
O231 Sm200 2.408 . S
O231 C219 1.272 . S
H232 C204 0.930 . S
H233 C205 0.929 . S
H234 C207 0.930 . S
H235 C208 0.929 . S
H236 C213 0.930 . S
H237 C214 0.929 1_565 S
H238 C216 0.930 . S
H239 C217 0.929 . S
H240 C248 0.950 . S
H241 C253 0.950 . S
H242 C250 0.950 . S
H243 C252 0.950 . S
H244 C254 0.950 . S
H245 C256 0.950 . S
H246 C258 0.950 . S
H247 C259 0.950 . S
C248 H240 0.950 . S
C248 C249 1.386 . S
C248 C250 1.391 . S
C249 C248 1.386 . S
C249 C253 1.393 . S
C250 H242 0.950 . S
C250 C248 1.391 . S
C250 C251 1.400 . S
C251 C250 1.400 . S
C251 C252 1.398 . S
C251 C257 1.491 . S
C252 H243 0.950 . S
C252 C251 1.398 . S
C252 C253 1.391 . S
C253 H241 0.950 . S
C253 C249 1.393 . S
C253 C252 1.391 . S
C254 H244 0.950 . S
C254 C255 1.386 . S
C254 C256 1.391 . S
C255 C254 1.386 . S
C255 C259 1.393 . S
C256 H245 0.950 . S
C256 C254 1.391 . S
C256 C257 1.400 . S
C257 C251 1.491 . S
C257 C256 1.400 . S
C257 C258 1.398 . S
C258 H246 0.950 . S
C258 C257 1.398 . S
C258 C259 1.391 . S
C259 H247 0.950 . S
C259 C255 1.393 . S
C259 C258 1.391 . S
H260 C268 0.950 . S
H261 C273 0.950 . S
H262 C270 0.950 . S
H263 C272 0.950 . S
H264 C274 0.950 . S
H265 C276 0.950 . S
H266 C278 0.950 . S
H267 C279 0.950 . S
C268 H260 0.950 . S
C268 C269 1.386 . S
C268 C270 1.391 . S
C269 C268 1.386 . S
C269 C273 1.393 . S
C270 H262 0.950 . S
C270 C268 1.391 . S
C270 C271 1.400 . S
C271 C270 1.400 . S
C271 C272 1.398 . S
C271 C277 1.491 . S
C272 H263 0.950 . S
C272 C271 1.398 . S
C272 C273 1.391 . S
C273 H261 0.950 . S
C273 C269 1.393 . S
C273 C272 1.391 . S
C274 H264 0.950 . S
C274 C275 1.386 . S
C274 C276 1.391 . S
C275 C274 1.386 . S
C275 C279 1.393 . S
C276 H265 0.950 . S
C276 C274 1.391 . S
C276 C277 1.400 . S
C277 C271 1.491 . S
C277 C276 1.400 . S
C277 C278 1.398 . S
C278 H266 0.950 . S
C278 C277 1.398 . S
C278 C279 1.391 . S
C279 H267 0.950 . S
C279 C275 1.393 . S
C279 C278 1.391 . S
H280 C288 0.950 . S
H281 C293 0.950 . S
H282 C290 0.950 . S
H283 C292 0.950 . S
H284 C294 0.950 . S
H285 C296 0.950 . S
H286 C298 0.950 . S
H287 C299 0.950 . S
C288 H280 0.950 . S
C288 C289 1.386 . S
C288 C290 1.391 . S
C289 C288 1.386 . S
C289 C293 1.393 . S
C290 H282 0.950 . S
C290 C288 1.391 . S
C290 C291 1.400 . S
C291 C290 1.400 . S
C291 C292 1.398 . S
C291 C297 1.491 . S
C292 H283 0.950 . S
C292 C291 1.398 . S
C292 C293 1.391 . S
C293 H281 0.950 . S
C293 C289 1.393 . S
C293 C292 1.391 . S
C294 H284 0.950 . S
C294 C295 1.386 . S
C294 C296 1.391 . S
C295 C294 1.386 . S
C295 C299 1.393 . S
C296 H285 0.950 . S
C296 C294 1.391 . S
C296 C297 1.400 . S
C297 C291 1.491 . S
C297 C296 1.400 . S
C297 C298 1.398 . S
C298 H286 0.950 . S
C298 C297 1.398 . S
C298 C299 1.391 . S
C299 H287 0.950 . S
C299 C295 1.393 . S
C299 C298 1.391 . S
H300 C308 0.950 . S
H301 C313 0.950 . S
H302 C310 0.950 . S
H303 C312 0.950 . S
H304 C314 0.950 . S
H305 C316 0.950 . S
H306 C318 0.950 . S
H307 C319 0.950 . S
C308 H300 0.950 . S
C308 C309 1.386 . S
C308 C310 1.391 . S
C309 C308 1.386 . S
C309 C313 1.393 . S
C310 H302 0.950 . S
C310 C308 1.391 . S
C310 C311 1.400 . S
C311 C310 1.400 . S
C311 C312 1.398 . S
C311 C317 1.491 . S
C312 H303 0.950 . S
C312 C311 1.398 . S
C312 C313 1.391 . S
C313 H301 0.950 . S
C313 C309 1.393 . S
C313 C312 1.391 . S
C314 H304 0.950 . S
C314 C315 1.386 . S
C314 C316 1.391 . S
C315 C314 1.386 . S
C315 C319 1.393 . S
C316 H305 0.950 . S
C316 C314 1.391 . S
C316 C317 1.400 . S
C317 C311 1.491 . S
C317 C316 1.400 . S
C317 C318 1.398 . S
C318 H306 0.950 . S
C318 C317 1.398 . S
C318 C319 1.391 . S
C319 H307 0.950 . S
C319 C315 1.393 . S
C319 C318 1.391 . S
H320 C328 0.950 . S
H321 C333 0.950 . S
H322 C330 0.950 . S
H323 C332 0.950 . S
H324 C334 0.950 . S
H325 C336 0.950 . S
H326 C338 0.950 . S
H327 C339 0.950 . S
C328 H320 0.950 . S
C328 C329 1.386 . S
C328 C330 1.391 . S
C329 C328 1.386 . S
C329 C333 1.393 . S
C330 H322 0.950 . S
C330 C328 1.391 . S
C330 C331 1.400 . S
C331 C330 1.400 . S
C331 C332 1.398 . S
C331 C337 1.491 . S
C332 H323 0.950 . S
C332 C331 1.398 . S
C332 C333 1.391 . S
C333 H321 0.950 . S
C333 C329 1.393 . S
C333 C332 1.391 . S
C334 H324 0.950 . S
C334 C335 1.386 . S
C334 C336 1.391 . S
C335 C334 1.386 . S
C335 C339 1.393 . S
C336 H325 0.950 . S
C336 C334 1.391 . S
C336 C337 1.400 . S
C337 C331 1.491 . S
C337 C336 1.400 . S
C337 C338 1.398 . S
C338 H326 0.950 . S
C338 C337 1.398 . S
C338 C339 1.391 . S
C339 H327 0.950 . S
C339 C335 1.393 . S
C339 C338 1.391 . S
H340 C348 0.950 . S
H341 C353 0.950 . S
H342 C350 0.950 . S
H343 C352 0.950 . S
H344 C354 0.950 . S
H345 C356 0.950 . S
H346 C358 0.950 . S
H347 C359 0.950 . S
C348 H340 0.950 . S
C348 C349 1.386 . S
C348 C350 1.391 . S
C349 C348 1.386 . S
C349 C353 1.393 . S
C350 H342 0.950 . S
C350 C348 1.391 . S
C350 C351 1.400 . S
C351 C350 1.400 . S
C351 C352 1.398 . S
C351 C357 1.491 . S
C352 H343 0.950 . S
C352 C351 1.398 . S
C352 C353 1.391 . S
C353 H341 0.950 . S
C353 C349 1.393 . S
C353 C352 1.391 . S
C354 H344 0.950 . S
C354 C355 1.386 . S
C354 C356 1.391 . S
C355 C354 1.386 . S
C355 C359 1.393 . S
C356 H345 0.950 . S
C356 C354 1.391 . S
C356 C357 1.400 . S
C357 C351 1.491 . S
C357 C356 1.400 . S
C357 C358 1.398 . S
C358 H346 0.950 . S
C358 C357 1.398 . S
C358 C359 1.391 . S
C359 H347 0.950 . S
C359 C355 1.393 . S
C359 C358 1.391 . S
H360 C368 0.950 . S
H361 C373 0.950 . S
H362 C370 0.950 . S
H363 C372 0.950 . S
H364 C374 0.950 . S
H365 C376 0.950 . S
H366 C378 0.950 . S
H367 C379 0.950 . S
C368 H360 0.950 . S
C368 C369 1.386 . S
C368 C370 1.391 . S
C369 C368 1.386 . S
C369 C373 1.393 . S
C370 H362 0.950 . S
C370 C368 1.391 . S
C370 C371 1.400 . S
C371 C370 1.400 . S
C371 C372 1.398 . S
C371 C377 1.491 . S
C372 H363 0.950 . S
C372 C371 1.398 . S
C372 C373 1.391 . S
C373 H361 0.950 . S
C373 C369 1.393 . S
C373 C372 1.391 . S
C374 H364 0.950 . S
C374 C375 1.386 . S
C374 C376 1.391 . S
C375 C374 1.386 . S
C375 C379 1.393 . S
C376 H365 0.950 . S
C376 C374 1.391 . S
C376 C377 1.400 . S
C377 C371 1.491 . S
C377 C376 1.400 . S
C377 C378 1.398 . S
C378 H366 0.950 . S
C378 C377 1.398 . S
C378 C379 1.391 . S
C379 H367 0.950 . S
C379 C375 1.393 . S
C379 C378 1.391 . S
H380 C388 0.950 . S
H381 C393 0.950 . S
H382 C390 0.950 . S
H383 C392 0.950 . S
H384 C394 0.950 . S
H385 C396 0.950 . S
H386 C398 0.950 . S
H387 C399 0.950 . S
C388 H380 0.950 . S
C388 C389 1.386 . S
C388 C390 1.391 . S
C389 C388 1.386 . S
C389 C393 1.393 . S
C390 H382 0.950 . S
C390 C388 1.391 . S
C390 C391 1.400 . S
C391 C390 1.400 . S
C391 C392 1.398 . S
C391 C397 1.491 1_455 S
C392 H383 0.950 . S
C392 C391 1.398 . S
C392 C393 1.391 . S
C393 H381 0.950 . S
C393 C389 1.393 . S
C393 C392 1.391 . S
C394 H384 0.950 . S
C394 C395 1.386 . S
C394 C396 1.391 . S
C395 C394 1.386 . S
C395 C399 1.393 . S
C396 H385 0.950 . S
C396 C394 1.391 . S
C396 C397 1.400 . S
C397 C391 1.491 1_655 S
C397 C396 1.400 . S
C397 C398 1.398 . S
C398 H386 0.950 . S
C398 C397 1.398 . S
C398 C399 1.391 . S
C399 H387 0.950 . S
C399 C395 1.393 . S
C399 C398 1.391 . S
H400 C408 0.950 . S
H401 C413 0.950 . S
H402 C410 0.950 . S
H403 C412 0.950 . S
H404 C414 0.950 . S
H405 C416 0.950 . S
H406 C418 0.950 . S
H407 C419 0.950 . S
C408 H400 0.950 . S
C408 C409 1.386 . S
C408 C410 1.391 1_545 S
C409 C408 1.386 . S
C409 C413 1.393 . S
C410 H402 0.950 . S
C410 C408 1.391 1_565 S
C410 C411 1.400 1_565 S
C411 C410 1.400 1_545 S
C411 C412 1.398 . S
C411 C417 1.491 1_545 S
C412 H403 0.950 . S
C412 C411 1.398 . S
C412 C413 1.391 . S
C413 H401 0.950 . S
C413 C409 1.393 . S
C413 C412 1.391 . S
C414 H404 0.950 . S
C414 C415 1.386 . S
C414 C416 1.391 1_565 S
C415 C414 1.386 . S
C415 C419 1.393 . S
C416 H405 0.950 . S
C416 C414 1.391 1_545 S
C416 C417 1.400 1_545 S
C417 C411 1.491 1_565 S
C417 C416 1.400 1_565 S
C417 C418 1.398 . S
C418 H406 0.950 . S
C418 C417 1.398 . S
C418 C419 1.391 . S
C419 H407 0.950 . S
C419 C415 1.393 . S
C419 C418 1.391 . S
H420 C428 0.950 . S
H421 C433 0.950 . S
H422 C430 0.950 . S
H423 C432 0.950 . S
H424 C434 0.950 . S
H425 C436 0.950 . S
H426 C438 0.950 . S
H427 C439 0.950 . S
C428 H420 0.950 . S
C428 C429 1.386 . S
C428 C430 1.391 . S
C429 C428 1.386 . S
C429 C433 1.393 . S
C430 H422 0.950 . S
C430 C428 1.391 . S
C430 C431 1.400 . S
C431 C430 1.400 . S
C431 C432 1.398 . S
C431 C437 1.491 . S
C432 H423 0.950 . S
C432 C431 1.398 . S
C432 C433 1.391 . S
C433 H421 0.950 . S
C433 C429 1.393 . S
C433 C432 1.391 . S
C434 H424 0.950 . S
C434 C435 1.386 . S
C434 C436 1.391 . S
C435 C434 1.386 . S
C435 C439 1.393 . S
C436 H425 0.950 . S
C436 C434 1.391 . S
C436 C437 1.400 . S
C437 C431 1.491 . S
C437 C436 1.400 . S
C437 C438 1.398 . S
C438 H426 0.950 . S
C438 C437 1.398 . S
C438 C439 1.391 . S
C439 H427 0.950 . S
C439 C435 1.393 . S
C439 C438 1.391 . S
H440 C448 0.950 1_556 S
H441 C453 0.950 . S
H442 C450 0.950 1_556 S
H443 C452 0.950 . S
H444 C454 0.950 . S
H445 C456 0.950 . S
H446 C458 0.950 1_556 S
H447 C459 0.950 1_556 S
C448 H440 0.950 1_554 S
C448 C449 1.386 . S
C448 C450 1.391 . S
C449 C448 1.386 . S
C449 C453 1.393 . S
C450 H442 0.950 1_554 S
C450 C448 1.391 . S
C450 C451 1.400 . S
C451 C450 1.400 . S
C451 C452 1.398 1_455 S
C451 C457 1.491 1_455 S
C452 H443 0.950 . S
C452 C451 1.398 1_655 S
C452 C453 1.391 1_655 S
C453 H441 0.950 . S
C453 C449 1.393 . S
C453 C452 1.391 1_455 S
C454 H444 0.950 . S
C454 C455 1.386 . S
C454 C456 1.391 . S
C455 C454 1.386 . S
C455 C459 1.393 . S
C456 H445 0.950 . S
C456 C454 1.391 . S
C456 C457 1.400 . S
C457 C451 1.491 1_655 S
C457 C456 1.400 . S
C457 C458 1.398 1_655 S
C458 H446 0.950 1_554 S
C458 C457 1.398 1_455 S
C458 C459 1.391 1_455 S
C459 H447 0.950 1_554 S
C459 C455 1.393 . S
C459 C458 1.391 1_655 S
H460 C468 0.950 1_545 S
H461 C473 0.950 . S
H462 C470 0.950 . S
H463 C472 0.950 . S
H464 C474 0.950 1_565 S
H465 C476 0.950 . S
H466 C478 0.950 . S
H467 C479 0.950 . S
C468 H460 0.950 1_565 S
C468 C469 1.386 . S
C468 C470 1.391 1_565 S
C469 C468 1.386 . S
C469 C473 1.393 . S
C470 H462 0.950 . S
C470 C468 1.391 1_545 S
C470 C471 1.400 1_545 S
C471 C470 1.400 1_565 S
C471 C472 1.398 . S
C471 C477 1.491 1_565 S
C472 H463 0.950 . S
C472 C471 1.398 . S
C472 C473 1.391 . S
C473 H461 0.950 . S
C473 C469 1.393 . S
C473 C472 1.391 . S
C474 H464 0.950 1_545 S
C474 C475 1.386 . S
C474 C476 1.391 1_545 S
C475 C474 1.386 . S
C475 C479 1.393 . S
C476 H465 0.950 . S
C476 C474 1.391 1_565 S
C476 C477 1.400 1_565 S
C477 C471 1.491 1_545 S
C477 C476 1.400 1_545 S
C477 C478 1.398 . S
C478 H466 0.950 . S
C478 C477 1.398 . S
C478 C479 1.391 . S
C479 H467 0.950 . S
C479 C475 1.393 . S
C479 C478 1.391 . S
H480 C488 0.950 . S
H481 C493 0.950 . S
H482 C490 0.950 . S
H483 C492 0.950 . S
H484 C494 0.950 . S
H485 C496 0.950 . S
H486 C498 0.950 . S
H487 C499 0.950 . S
C488 H480 0.950 . S
C488 C489 1.386 . S
C488 C490 1.391 . S
C489 C488 1.386 . S
C489 C493 1.393 . S
C490 H482 0.950 . S
C490 C488 1.391 . S
C490 C491 1.400 . S
C491 C490 1.400 . S
C491 C492 1.398 . S
C491 C497 1.491 . S
C492 H483 0.950 . S
C492 C491 1.398 . S
C492 C493 1.391 . S
C493 H481 0.950 . S
C493 C489 1.393 . S
C493 C492 1.391 . S
C494 H484 0.950 . S
C494 C495 1.386 . S
C494 C496 1.391 . S
C495 C494 1.386 . S
C495 C499 1.393 . S
C496 H485 0.950 . S
C496 C494 1.391 . S
C496 C497 1.400 . S
C497 C491 1.491 . S
C497 C496 1.400 . S
C497 C498 1.398 . S
C498 H486 0.950 . S
C498 C497 1.398 . S
C498 C499 1.391 . S
C499 H487 0.950 . S
C499 C495 1.393 . S
C499 C498 1.391 . S
H500 C508 0.950 . S
H501 C513 0.950 . S
H502 C510 0.950 . S
H503 C512 0.950 . S
H504 C514 0.950 . S
H505 C516 0.950 . S
H506 C518 0.950 . S
H507 C519 0.950 . S
C508 H500 0.950 . S
C508 C509 1.386 . S
C508 C510 1.391 1_655 S
C509 C508 1.386 . S
C509 C513 1.393 1_655 S
C510 H502 0.950 . S
C510 C508 1.391 1_455 S
C510 C511 1.400 . S
C511 C510 1.400 . S
C511 C512 1.398 . S
C511 C517 1.491 . S
C512 H503 0.950 . S
C512 C511 1.398 . S
C512 C513 1.391 . S
C513 H501 0.950 . S
C513 C509 1.393 1_455 S
C513 C512 1.391 . S
C514 H504 0.950 . S
C514 C515 1.386 . S
C514 C516 1.391 . S
C515 C514 1.386 . S
C515 C519 1.393 . S
C516 H505 0.950 . S
C516 C514 1.391 . S
C516 C517 1.400 . S
C517 C511 1.491 . S
C517 C516 1.400 . S
C517 C518 1.398 . S
C518 H506 0.950 . S
C518 C517 1.398 . S
C518 C519 1.391 . S
C519 H507 0.950 . S
C519 C515 1.393 . S
C519 C518 1.391 . S
H520 C528 0.950 . S
H521 C533 0.950 . S
H522 C530 0.950 . S
H523 C532 0.950 . S
H524 C534 0.950 . S
H525 C536 0.950 . S
H526 C538 0.950 . S
H527 C539 0.950 . S
C528 H520 0.950 . S
C528 C529 1.386 1_545 S
C528 C530 1.391 . S
C529 C528 1.386 1_565 S
C529 C533 1.393 . S
C530 H522 0.950 . S
C530 C528 1.391 . S
C530 C531 1.400 . S
C531 C530 1.400 . S
C531 C532 1.398 . S
C531 C537 1.491 . S
C532 H523 0.950 . S
C532 C531 1.398 . S
C532 C533 1.391 1_545 S
C533 H521 0.950 . S
C533 C529 1.393 . S
C533 C532 1.391 1_565 S
C534 H524 0.950 . S
C534 C535 1.386 . S
C534 C536 1.391 . S
C535 C534 1.386 . S
C535 C539 1.393 . S
C536 H525 0.950 . S
C536 C534 1.391 . S
C536 C537 1.400 . S
C537 C531 1.491 . S
C537 C536 1.400 . S
C537 C538 1.398 . S
C538 H526 0.950 . S
C538 C537 1.398 . S
C538 C539 1.391 . S
C539 H527 0.950 . S
C539 C535 1.393 . S
C539 C538 1.391 . S
H540 C548 0.950 . S
H541 C553 0.950 . S
H542 C550 0.950 . S
H543 C552 0.950 . S
H544 C554 0.950 . S
H545 C556 0.950 . S
H546 C558 0.950 . S
H547 C559 0.950 . S
C548 H540 0.950 . S
C548 C549 1.386 . S
C548 C550 1.391 . S
C549 C548 1.386 . S
C549 C553 1.393 . S
C550 H542 0.950 . S
C550 C548 1.391 . S
C550 C551 1.400 . S
C551 C550 1.400 . S
C551 C552 1.398 . S
C551 C557 1.491 . S
C552 H543 0.950 . S
C552 C551 1.398 . S
C552 C553 1.391 . S
C553 H541 0.950 . S
C553 C549 1.393 . S
C553 C552 1.391 . S
C554 H544 0.950 . S
C554 C555 1.386 . S
C554 C556 1.391 . S
C555 C554 1.386 . S
C555 C559 1.393 . S
C556 H545 0.950 . S
C556 C554 1.391 . S
C556 C557 1.400 . S
C557 C551 1.491 . S
C557 C556 1.400 . S
C557 C558 1.398 . S
C558 H546 0.950 . S
C558 C557 1.398 . S
C558 C559 1.391 . S
C559 H547 0.950 . S
C559 C555 1.393 . S
C559 C558 1.391 . S
H560 C568 0.950 . S
H561 C573 0.950 . S
H562 C570 0.950 1_455 S
H563 C572 0.950 . S
H564 C574 0.950 . S
H565 C576 0.950 . S
H566 C578 0.950 . S
H567 C579 0.950 . S
C568 H560 0.950 . S
C568 C569 1.386 . S
C568 C570 1.391 1_455 S
C569 C568 1.386 . S
C569 C573 1.393 1_455 S
C570 H562 0.950 1_655 S
C570 C568 1.391 1_655 S
C570 C571 1.400 . S
C571 C570 1.400 . S
C571 C572 1.398 . S
C571 C577 1.491 . S
C572 H563 0.950 . S
C572 C571 1.398 . S
C572 C573 1.391 . S
C573 H561 0.950 . S
C573 C569 1.393 1_655 S
C573 C572 1.391 . S
C574 H564 0.950 . S
C574 C575 1.386 . S
C574 C576 1.391 . S
C575 C574 1.386 . S
C575 C579 1.393 . S
C576 H565 0.950 . S
C576 C574 1.391 . S
C576 C577 1.400 . S
C577 C571 1.491 . S
C577 C576 1.400 . S
C577 C578 1.398 . S
C578 H566 0.950 . S
C578 C577 1.398 . S
C578 C579 1.391 . S
C579 H567 0.950 . S
C579 C575 1.393 . S
C579 C578 1.391 . S
H580 C588 0.950 . S
H581 C593 0.950 . S
H582 C590 0.950 . S
H583 C592 0.950 . S
H584 C594 0.950 . S
H585 C596 0.950 . S
H586 C598 0.950 . S
H587 C599 0.950 . S
C588 H580 0.950 . S
C588 C589 1.386 1_565 S
C588 C590 1.391 . S
C589 C588 1.386 1_545 S
C589 C593 1.393 . S
C590 H582 0.950 . S
C590 C588 1.391 . S
C590 C591 1.400 . S
C591 C590 1.400 . S
C591 C592 1.398 1_565 S
C591 C597 1.491 . S
C592 H583 0.950 . S
C592 C591 1.398 1_545 S
C592 C593 1.391 . S
C593 H581 0.950 . S
C593 C589 1.393 . S
C593 C592 1.391 . S
C594 H584 0.950 . S
C594 C595 1.386 . S
C594 C596 1.391 . S
C595 C594 1.386 . S
C595 C599 1.393 . S
C596 H585 0.950 . S
C596 C594 1.391 . S
C596 C597 1.400 . S
C597 C591 1.491 . S
C597 C596 1.400 . S
C597 C598 1.398 . S
C598 H586 0.950 . S
C598 C597 1.398 . S
C598 C599 1.391 . S
C599 H587 0.950 . S
C599 C595 1.393 . S
C599 C598 1.391 . S
C249 C179 1.168 . S
C255 C6 1.181 . S
C269 C219 1.180 . S
C275 C46 1.183 . S
C289 C19 1.173 . S
C295 C86 1.183 . S
C309 C59 1.181 . S
C315 C126 1.181 . S
C329 C99 1.178 . S
C335 C166 1.181 . S
C349 C139 1.174 . S
C355 C206 1.183 . S
C369 C9 0.905 . S
C375 C129 0.899 . S
C389 C169 0.852 . S
C395 C49 0.854 . S
C409 C209 0.911 . S
C415 C89 0.905 . S
C429 C98 0.984 . S
C435 C218 0.982 . S
C449 C18 0.990 . S
C455 C138 0.994 . S
C469 C178 0.993 . S
C475 C58 0.987 . S
C489 C210 1.295 . S
C495 C15 1.272 . S
C509 C55 1.275 . S
C515 C10 1.301 . S
C529 C95 1.277 . S
C535 C50 1.296 . S
C549 C90 1.295 . S
C555 C135 1.271 . S
C569 C175 1.268 . S
C575 C130 1.295 . S
C589 C215 1.285 . S
C595 C170 1.299 . S
