# Generated by pormake.
# Topology unb, (4)-cn, num edge types: 1
# Building blocks:
#     Node 0, Type 0, BuildingBlock: CEKHIL_clean_sbu_0, # of connection points: 4
#     Node 1, Type 0, BuildingBlock: CEKHIL_clean_sbu_0, # of connection points: 4
#     Node 2, Type 0, BuildingBlock: CEKHIL_clean_sbu_0, # of connection points: 4
#     Node 3, Type 0, BuildingBlock: CEKHIL_clean_sbu_0, # of connection points: 4
#     Node 4, Type 0, BuildingBlock: CEKHIL_clean_sbu_0, # of connection points: 4
#     Node 5, Type 0, BuildingBlock: CEKHIL_clean_sbu_0, # of connection points: 4
#     Node 6, Type 0, BuildingBlock: CEKHIL_clean_sbu_0, # of connection points: 4
#     Node 7, Type 0, BuildingBlock: CEKHIL_clean_sbu_0, # of connection points: 4
#     Node 8, Type 0, BuildingBlock: CEKHIL_clean_sbu_0, # of connection points: 4
#     Node 9, Type 0, BuildingBlock: CEKHIL_clean_sbu_0, # of connection points: 4
#     Node 10, Type 0, BuildingBlock: CEKHIL_clean_sbu_0, # of connection points: 4
#     Node 11, Type 0, BuildingBlock: CEKHIL_clean_sbu_0, # of connection points: 4
#     Node 12, Type 0, BuildingBlock: CEKHIL_clean_sbu_0, # of connection points: 4
#     Node 13, Type 0, BuildingBlock: CEKHIL_clean_sbu_0, # of connection points: 4
#     Node 14, Type 0, BuildingBlock: CEKHIL_clean_sbu_0, # of connection points: 4
#     Node 15, Type 0, BuildingBlock: CEKHIL_clean_sbu_0, # of connection points: 4
#     Node 16, Type 0, BuildingBlock: CEKHIL_clean_sbu_0, # of connection points: 4
#     Node 17, Type 0, BuildingBlock: CEKHIL_clean_sbu_0, # of connection points: 4
#     Edge 18, Type (0, 0), BuildingBlock: AJUNOK_clean_linker_0, # of connection points: 2
#     Edge 19, Type (0, 0), BuildingBlock: AJUNOK_clean_linker_0, # of connection points: 2
#     Edge 20, Type (0, 0), BuildingBlock: AJUNOK_clean_linker_0, # of connection points: 2
#     Edge 21, Type (0, 0), BuildingBlock: AJUNOK_clean_linker_0, # of connection points: 2
#     Edge 22, Type (0, 0), BuildingBlock: AJUNOK_clean_linker_0, # of connection points: 2
#     Edge 23, Type (0, 0), BuildingBlock: AJUNOK_clean_linker_0, # of connection points: 2
#     Edge 24, Type (0, 0), BuildingBlock: AJUNOK_clean_linker_0, # of connection points: 2
#     Edge 25, Type (0, 0), BuildingBlock: AJUNOK_clean_linker_0, # of connection points: 2
#     Edge 26, Type (0, 0), BuildingBlock: AJUNOK_clean_linker_0, # of connection points: 2
#     Edge 27, Type (0, 0), BuildingBlock: AJUNOK_clean_linker_0, # of connection points: 2
#     Edge 28, Type (0, 0), BuildingBlock: AJUNOK_clean_linker_0, # of connection points: 2
#     Edge 29, Type (0, 0), BuildingBlock: AJUNOK_clean_linker_0, # of connection points: 2
#     Edge 30, Type (0, 0), BuildingBlock: AJUNOK_clean_linker_0, # of connection points: 2
#     Edge 31, Type (0, 0), BuildingBlock: AJUNOK_clean_linker_0, # of connection points: 2
#     Edge 32, Type (0, 0), BuildingBlock: AJUNOK_clean_linker_0, # of connection points: 2
#     Edge 33, Type (0, 0), BuildingBlock: AJUNOK_clean_linker_0, # of connection points: 2
#     Edge 34, Type (0, 0), BuildingBlock: AJUNOK_clean_linker_0, # of connection points: 2
#     Edge 35, Type (0, 0), BuildingBlock: AJUNOK_clean_linker_0, # of connection points: 2
#     Edge 36, Type (0, 0), BuildingBlock: AJUNOK_clean_linker_0, # of connection points: 2
#     Edge 37, Type (0, 0), BuildingBlock: AJUNOK_clean_linker_0, # of connection points: 2
#     Edge 38, Type (0, 0), BuildingBlock: AJUNOK_clean_linker_0, # of connection points: 2
#     Edge 39, Type (0, 0), BuildingBlock: AJUNOK_clean_linker_0, # of connection points: 2
#     Edge 40, Type (0, 0), BuildingBlock: AJUNOK_clean_linker_0, # of connection points: 2
#     Edge 41, Type (0, 0), BuildingBlock: AJUNOK_clean_linker_0, # of connection points: 2
#     Edge 42, Type (0, 0), BuildingBlock: AJUNOK_clean_linker_0, # of connection points: 2
#     Edge 43, Type (0, 0), BuildingBlock: AJUNOK_clean_linker_0, # of connection points: 2
#     Edge 44, Type (0, 0), BuildingBlock: AJUNOK_clean_linker_0, # of connection points: 2
#     Edge 45, Type (0, 0), BuildingBlock: AJUNOK_clean_linker_0, # of connection points: 2
#     Edge 46, Type (0, 0), BuildingBlock: AJUNOK_clean_linker_0, # of connection points: 2
#     Edge 47, Type (0, 0), BuildingBlock: AJUNOK_clean_linker_0, # of connection points: 2
#     Edge 48, Type (0, 0), BuildingBlock: AJUNOK_clean_linker_0, # of connection points: 2
#     Edge 49, Type (0, 0), BuildingBlock: AJUNOK_clean_linker_0, # of connection points: 2
#     Edge 50, Type (0, 0), BuildingBlock: AJUNOK_clean_linker_0, # of connection points: 2
#     Edge 51, Type (0, 0), BuildingBlock: AJUNOK_clean_linker_0, # of connection points: 2
#     Edge 52, Type (0, 0), BuildingBlock: AJUNOK_clean_linker_0, # of connection points: 2
#     Edge 53, Type (0, 0), BuildingBlock: AJUNOK_clean_linker_0, # of connection points: 2
# Relax obj value: 0.111
# Max RMSD: 0.093
# Mean RMSD: 0.093
data_MOF--net-unb--node1-CEKHIL_clean_sbu_0--edge1-AJUNOK_clean_linker_0
_symmetry_space_group_name_H-M    P1
_symmetry_Int_Tables_number       1
_symmetry_cell_setting            triclinic
loop_
_symmetry_equiv_pos_as_xyz
'x, y, z'
_cell_length_a     44.957554
_cell_length_b     44.891191
_cell_length_c     18.595489
_cell_angle_alpha  89.966659
_cell_angle_beta   90.092207
_cell_angle_gamma 120.10899
loop_
_atom_site_label
_atom_site_type_symbol
_atom_site_fract_x
_atom_site_fract_y
_atom_site_fract_z
_atom_type_partial_charge
Co0 Co 0.16802 0.29179 0.10036 0.0
O1 O 0.12454 0.29173 0.10247 0.0
O2 O 0.13029 0.24842 0.06488 0.0
C3 C 0.18787 0.31787 0.21049 0.0
O4 O 0.20671 0.28023 0.08448 0.0
Co5 Co 0.23979 0.35831 0.10598 0.0
O6 O 0.2586 0.32808 0.08037 0.0
C7 C 0.19128 0.34421 0.98749 0.0
C8 C 0.11041 0.26146 0.07241 0.0
C9 C 0.23945 0.29565 0.07224 0.0
O10 O 0.17598 0.31199 1.00241 0.0
O11 O 0.21395 0.36718 0.02888 0.0
O12 O 0.16682 0.28465 0.20644 0.0
O13 O 0.19495 0.33332 0.14981 0.0
Co14 Co 0.77888 0.89055 0.09795 0.0
O15 O 0.78035 0.84767 0.10076 0.0
O16 O 0.82331 0.89783 0.06694 0.0
C17 C 0.75003 0.88261 0.2056 0.0
O18 O 0.78946 0.94069 0.0817 0.0
Co19 Co 0.71089 0.89304 0.09651 0.0
O20 O 0.74043 0.94186 0.0679 0.0
C21 C 0.7291 0.86122 0.97994 0.0
C22 C 0.81114 0.86494 0.07356 0.0
C23 C 0.77306 0.95638 0.06328 0.0
O24 O 0.7609 0.87871 0.99805 0.0
O25 O 0.70492 0.85925 0.01955 0.0
O26 O 0.78338 0.89569 0.20508 0.0
O27 O 0.73627 0.87444 0.14331 0.0
Co28 Co 0.17938 0.90294 0.09523 0.0
O29 O 0.2219 0.94746 0.1005 0.0
O30 O 0.17186 0.94015 0.06562 0.0
C31 C 0.18651 0.88097 0.20208 0.0
O32 O 0.12969 0.86297 0.07702 0.0
Co33 Co 0.17853 0.83328 0.08957 0.0
O34 O 0.12949 0.81325 0.06202 0.0
C35 C 0.2101 0.88498 0.97585 0.0
C36 C 0.20466 0.96102 0.07338 0.0
C37 C 0.11443 0.83086 0.05828 0.0
O38 O 0.19196 0.89833 0.99514 0.0
O39 O 0.21217 0.86213 0.01314 0.0
O40 O 0.17325 0.90107 0.20185 0.0
O41 O 0.19564 0.87636 0.13993 0.0
Co42 Co 0.30401 0.15551 0.90768 0.0
O43 O 0.30297 0.11136 0.90702 0.0
O44 O 0.26048 0.11862 0.94331 0.0
C45 C 0.33014 0.17468 0.79747 0.0
O46 O 0.29291 0.19458 0.92234 0.0
Co47 Co 0.37052 0.2271 0.90137 0.0
O48 O 0.34076 0.24639 0.92743 0.0
C49 C 0.35643 0.17887 0.02033 0.0
C50 C 0.27267 0.098 0.93654 0.0
C51 C 0.30834 0.22731 0.93501 0.0
O52 O 0.32421 0.16376 0.00569 0.0
O53 O 0.37935 0.20132 0.97865 0.0
O54 O 0.29692 0.1539 0.80154 0.0
O55 O 0.3456 0.18193 0.8582 0.0
Co56 Co 0.91527 0.16438 0.91146 0.0
O57 O 0.95833 0.20835 0.90972 0.0
O58 O 0.95383 0.15913 0.94221 0.0
C59 C 0.89404 0.17207 0.80424 0.0
O60 O 0.87687 0.11349 0.92529 0.0
Co61 Co 0.84324 0.15855 0.9128 0.0
O62 O 0.82462 0.1086 0.92834 0.0
C63 C 0.89302 0.19135 0.03021 0.0
C64 C 0.97321 0.19233 0.93649 0.0
C65 C 0.84389 0.09542 0.93423 0.0
O66 O 0.9083 0.17489 0.0117 0.0
O67 O 0.86956 0.1918 0.99199 0.0
O68 O 0.91531 0.16021 0.8045 0.0
O69 O 0.88758 0.17923 0.86672 0.0
Co70 Co 0.90655 0.76557 0.91076 0.0
O71 O 0.86319 0.76601 0.91099 0.0
O72 O 0.91328 0.80978 0.94258 0.0
C73 C 0.89769 0.73667 0.80302 0.0
O74 O 0.95712 0.77713 0.92313 0.0
Co75 Co 0.91132 0.69874 0.90964 0.0
O76 O 0.96133 0.72936 0.9253 0.0
C77 C 0.87924 0.71571 0.0282 0.0
C78 C 0.88026 0.79697 0.93774 0.0
C79 C 0.97488 0.76189 0.93149 0.0
O80 O 0.89623 0.74764 0.01073 0.0
O81 O 0.87818 0.69189 0.98857 0.0
O82 O 0.91013 0.76998 0.80367 0.0
O83 O 0.89067 0.7229 0.8654 0.0
Co84 Co 0.83417 0.62366 0.43269 0.0
O85 O 0.78978 0.62187 0.43589 0.0
O86 O 0.79729 0.57965 0.39828 0.0
C87 C 0.8542 0.65026 0.54247 0.0
O88 O 0.87382 0.61353 0.41551 0.0
Co89 Co 0.90472 0.69172 0.43643 0.0
O90 O 0.92445 0.6627 0.40735 0.0
C91 C 0.85558 0.67554 0.3184 0.0
C92 C 0.77645 0.5915 0.40644 0.0
C93 C 0.90626 0.63014 0.39991 0.0
O94 O 0.8409 0.64344 0.33447 0.0
O95 O 0.87819 0.69917 0.35869 0.0
O96 O 0.83392 0.61689 0.5388 0.0
O97 O 0.86036 0.66554 0.48169 0.0
Co98 Co 0.44533 0.22511 0.42997 0.0
O99 O 0.44632 0.18204 0.43146 0.0
O100 O 0.48982 0.23226 0.39956 0.0
C101 C 0.41613 0.21657 0.53698 0.0
O102 O 0.45602 0.27544 0.41626 0.0
Co103 Co 0.37746 0.2278 0.42751 0.0
O104 O 0.4074 0.27787 0.41014 0.0
C105 C 0.39634 0.19665 0.31062 0.0
C106 C 0.47726 0.19923 0.40509 0.0
C107 C 0.44002 0.29233 0.40554 0.0
O108 O 0.42801 0.2142 0.32955 0.0
O109 O 0.37183 0.19493 0.34865 0.0
O110 O 0.44945 0.22942 0.53695 0.0
O111 O 0.4025 0.20878 0.47445 0.0
Co112 Co 0.84341 0.23411 0.43383 0.0
O113 O 0.88646 0.27841 0.43464 0.0
O114 O 0.83653 0.27092 0.39864 0.0
C115 C 0.85066 0.21492 0.54379 0.0
O116 O 0.79322 0.19482 0.41934 0.0
Co117 Co 0.83858 0.16266 0.43982 0.0
O118 O 0.78923 0.14302 0.41545 0.0
C119 C 0.87204 0.2108 0.32029 0.0
C120 C 0.86936 0.29169 0.40547 0.0
C121 C 0.77582 0.162 0.40768 0.0
O122 O 0.85519 0.22606 0.33556 0.0
O123 O 0.87267 0.18836 0.36175 0.0
O124 O 0.83808 0.23556 0.53997 0.0
O125 O 0.85885 0.20783 0.48297 0.0
Co126 Co 0.96963 0.48718 0.24631 0.0
O127 O 0.96883 0.4432 0.24461 0.0
O128 O 0.92513 0.44949 0.27602 0.0
C129 C 0.99902 0.5082 0.13965 0.0
O130 O 0.95862 0.52649 0.26011 0.0
Co131 Co 1.03707 0.55834 0.24938 0.0
O132 O 1.00687 0.57813 0.26559 0.0
C133 C 1.01831 0.50806 0.3662 0.0
C134 C 0.93778 0.42917 0.27044 0.0
C135 C 0.97428 0.55946 0.27035 0.0
O136 O 0.98667 0.49349 0.34691 0.0
O137 O 0.04278 0.53126 0.32858 0.0
O138 O 0.96572 0.48751 0.1394 0.0
O139 O 1.01257 0.51414 0.2023 0.0
Co140 Co 0.58149 0.49773 0.24561 0.0
O141 O 0.62613 0.54021 0.2414 0.0
O142 O 0.6182 0.49029 0.27917 0.0
C143 C 0.56103 0.50418 0.13628 0.0
O144 O 0.54145 0.44802 0.26353 0.0
Co145 Co 0.51163 0.4962 0.24421 0.0
O146 O 0.49115 0.44697 0.27107 0.0
C147 C 0.56171 0.52909 0.36079 0.0
C148 C 0.63927 0.52302 0.27068 0.0
C149 C 0.50893 0.43223 0.27829 0.0
O150 O 0.57566 0.51115 0.34411 0.0
O151 O 0.53891 0.53025 0.32154 0.0
O152 O 0.58103 0.49085 0.13961 0.0
O153 O 0.55548 0.51374 0.19714 0.0
Co154 Co 0.57045 0.0976 0.24476 0.0
O155 O 0.52765 0.09907 0.24212 0.0
O156 O 0.57785 0.14214 0.27561 0.0
C157 C 0.5626 0.06866 0.13741 0.0
O158 O 0.62046 0.10827 0.26037 0.0
Co159 Co 0.57379 0.03013 0.24716 0.0
O160 O 0.62321 0.05992 0.2708 0.0
C161 C 0.54112 0.04803 0.36257 0.0
C162 C 0.54499 0.12995 0.26925 0.0
C163 C 0.63726 0.09257 0.27518 0.0
O164 O 0.55877 0.07986 0.3447 0.0
O165 O 0.53976 1.02386 0.32367 0.0
O166 O 0.57548 0.10204 0.1379 0.0
O167 O 0.55443 0.0548 0.19967 0.0
Co168 Co 0.49941 0.95665 0.76635 0.0
O169 O 0.45575 0.95611 0.77179 0.0
O170 O 0.46149 0.91314 0.73191 0.0
C171 C 0.52044 0.9828 0.87617 0.0
O172 O 0.53839 0.94568 0.74688 0.0
Co173 Co 0.57043 1.02421 0.76869 0.0
O174 O 0.58924 0.99462 0.73783 0.0
C175 C 0.52047 1.00886 0.65275 0.0
C176 C 0.4415 0.92595 0.74128 0.0
C177 C 0.57072 0.9621 0.73021 0.0
O178 O 0.50576 0.97673 0.66851 0.0
O179 O 0.54363 0.0323 0.6925 0.0
O180 O 0.49968 0.94953 0.87225 0.0
O181 O 0.52648 0.99825 0.8156 0.0
Co182 Co 0.11092 0.55808 0.76906 0.0
O183 O 0.11087 0.51452 0.77056 0.0
O184 O 0.15411 0.5638 0.73323 0.0
C185 C 0.08506 0.55168 0.87934 0.0
O186 O 0.12268 0.60851 0.7537 0.0
Co187 Co 0.04479 0.56373 0.77545 0.0
O188 O 0.07516 0.61295 0.75041 0.0
C189 C 0.05829 0.52919 0.65652 0.0
C190 C 0.14106 0.53079 0.74042 0.0
C191 C 0.1075 0.62608 0.74203 0.0
O192 O 0.09052 0.54604 0.67118 0.0
O193 O 1.03554 0.52898 0.69816 0.0
O194 O 0.1182 0.56378 0.87519 0.0
O195 O 0.06955 0.54347 0.81868 0.0
Co196 Co 0.51157 0.56855 0.76653 0.0
O197 O 0.55506 0.61215 0.77055 0.0
O198 O 0.50597 0.60673 0.73435 0.0
C199 C 0.51806 0.54698 0.87485 0.0
O200 O 0.46121 0.52972 0.74882 0.0
Co201 Co 0.50738 0.49717 0.7656 0.0
O202 O 0.45881 0.47878 0.73663 0.0
C203 C 0.54158 0.54794 0.65097 0.0
C204 C 0.53896 0.62657 0.74179 0.0
C205 C 0.44496 0.49746 0.73102 0.0
O206 O 0.5239 0.5622 0.66738 0.0
O207 O 0.54248 0.52514 0.69078 0.0
O208 O 0.50581 0.56795 0.87345 0.0
O209 O 0.5263 0.54114 0.81297 0.0
Co210 Co 0.63684 0.8212 0.5754 0.0
O211 O 0.63747 0.77796 0.57453 0.0
O212 O 0.5936 0.78302 0.61012 0.0
C213 C 0.66344 0.84098 0.46565 0.0
O214 O 0.62437 0.85952 0.58949 0.0
Co215 Co 0.70249 0.89366 0.57028 0.0
O216 O 0.67133 0.91218 0.58811 0.0
C217 C 0.68866 0.84549 0.68968 0.0
C218 C 0.60706 0.76345 0.60368 0.0
C219 C 0.63906 0.89261 0.59678 0.0
O220 O 0.65652 0.82959 0.67394 0.0
O221 O 0.71155 0.86892 0.64957 0.0
O222 O 0.63032 0.8196 0.46908 0.0
O223 O 0.67856 0.84853 0.52678 0.0
Co224 Co 0.2475 0.83101 0.57436 0.0
O225 O 0.29115 0.87449 0.57196 0.0
O226 O 0.28499 0.8253 0.61031 0.0
C227 C 0.22761 0.83682 0.46389 0.0
O228 O 0.2087 0.78071 0.59082 0.0
Co229 Co 0.17599 0.82585 0.5689 0.0
O230 O 0.15705 0.77688 0.5963 0.0
C231 C 0.22506 0.86123 0.68594 0.0
C232 C 0.30503 0.85827 0.60258 0.0
C233 C 0.17606 0.76351 0.60407 0.0
O234 O 0.23973 0.84369 0.67197 0.0
O235 O 0.20236 0.86136 0.6445 0.0
O236 O 0.2486 0.82469 0.46842 0.0
O237 O 0.22068 0.8455 0.52433 0.0
Co238 Co 0.23772 0.43311 0.57796 0.0
O239 O 0.1939 0.43227 0.57581 0.0
O240 O 0.24311 0.47709 0.60833 0.0
C241 C 0.23008 0.40403 0.47104 0.0
O242 O 0.28842 0.4454 0.59212 0.0
Co243 Co 0.24271 0.36635 0.58076 0.0
O244 O 0.29266 0.39761 0.59634 0.0
C245 C 0.21041 0.3841 0.69732 0.0
C246 C 0.20996 0.46323 0.60261 0.0
C247 C 0.30615 0.43019 0.60162 0.0
O248 O 0.22719 0.41582 0.67834 0.0
O249 O 0.2096 0.35986 0.65965 0.0
O250 O 0.24199 0.43725 0.47104 0.0
O251 O 0.22269 0.39041 0.53357 0.0
C252 C 0.22912 0.39609 0.33602 0.0
C253 C 0.22165 0.38172 0.40528 0.0
C254 C 0.21897 0.37509 0.27417 0.0
C255 C 0.20056 0.33864 0.27837 0.0
H256 H 0.24242 0.42379 0.32934 0.0
H257 H 0.22503 0.38777 0.22232 0.0
S258 S 0.1757 0.28774 0.44677 0.0
N259 N 0.19563 0.32818 0.47416 0.0
N260 N 0.17647 0.28932 0.35807 0.0
C261 C 0.1936 0.32391 0.34717 0.0
C262 C 0.20414 0.34524 0.41035 0.0
C263 C 0.72082 0.87236 0.40252 0.0
C264 C 0.68443 0.85346 0.39799 0.0
C265 C 0.74193 0.88235 0.34083 0.0
C266 C 0.72772 0.87421 0.2714 0.0
H267 H 0.73337 0.87895 0.45455 0.0
H268 H 0.76959 0.8961 0.34778 0.0
S269 S 0.63387 0.8266 0.22909 0.0
N270 N 0.63533 0.8281 0.31776 0.0
N271 N 0.67428 0.84686 0.20214 0.0
C272 C 0.69126 0.85611 0.26606 0.0
C273 C 0.66986 0.84578 0.32902 0.0
C274 C 0.19594 0.86199 0.39922 0.0
C275 C 0.21498 0.84467 0.39563 0.0
C276 C 0.18605 0.87288 0.33705 0.0
C277 C 0.19446 0.86678 0.26802 0.0
H278 H 0.18921 0.86806 0.45089 0.0
H279 H 0.17226 0.88675 0.34334 0.0
S280 S 0.2422 0.82063 0.22799 0.0
N281 N 0.24055 0.82081 0.31665 0.0
N282 N 0.22193 0.84062 0.19999 0.0
C283 C 0.21255 0.84845 0.26352 0.0
C284 C 0.22279 0.83759 0.32703 0.0
C285 C 0.40821 0.21606 0.67198 0.0
C286 C 0.39384 0.20804 0.6027 0.0
C287 C 0.38725 0.206 0.7338 0.0
C288 C 0.35086 0.18717 0.72956 0.0
H289 H 0.43587 0.22976 0.67872 0.0
H290 H 0.39993 0.21251 0.78568 0.0
S291 S 0.29996 0.16063 0.56106 0.0
N292 N 0.34033 0.1809 0.53376 0.0
N293 N 0.30158 0.16198 0.64975 0.0
C294 C 0.33612 0.1796 0.66072 0.0
C295 C 0.3574 0.19001 0.59758 0.0
C296 C 0.87703 0.18409 0.60726 0.0
C297 C 0.8588 0.20222 0.61154 0.0
C298 C 0.8877 0.17373 0.66908 0.0
C299 C 0.88041 0.18071 0.73838 0.0
H300 H 0.88392 0.17838 0.55538 0.0
H301 H 0.90223 0.16064 0.66237 0.0
S302 S 0.83186 0.22588 0.78001 0.0
N303 N 0.83306 0.22559 0.69131 0.0
N304 N 0.85239 0.20605 0.80731 0.0
C305 C 0.8613 0.198 0.74348 0.0
C306 C 0.85071 0.20874 0.68035 0.0
C307 C 0.89584 0.7287 0.66769 0.0
C308 C 0.88883 0.71439 0.73702 0.0
C309 C 0.8854 0.70764 0.60586 0.0
C310 C 0.86719 0.67118 0.61016 0.0
H311 H 0.90902 0.75639 0.66097 0.0
H312 H 0.89111 0.72026 0.55395 0.0
S313 S 0.84335 0.6204 0.77868 0.0
N314 N 0.86329 0.66085 0.80594 0.0
N315 N 0.84368 0.62194 0.68999 0.0
C316 C 0.86065 0.65652 0.67899 0.0
C317 C 0.87143 0.67789 0.74211 0.0
C318 C 1.00704 0.51546 0.00472 0.0
C319 C 1.02138 0.5219 0.07402 0.0
C320 C 1.02801 0.52621 0.94295 0.0
C321 C 0.06439 0.54369 0.94724 0.0
H322 H 0.97937 0.50152 0.99794 0.0
H323 H 1.01533 0.51996 0.89105 0.0
S324 S 0.11523 0.56831 0.11581 0.0
N325 N 0.07485 0.54834 0.14307 0.0
N326 N 0.11365 0.56786 0.02711 0.0
C327 C 0.07912 0.55098 0.01609 0.0
C328 C 0.05782 0.54028 0.07921 0.0
C329 C 0.53039 0.53083 0.07257 0.0
C330 C 0.54785 0.51192 0.06864 0.0
C331 C 0.51996 0.54131 0.01048 0.0
C332 C 0.52624 0.5332 0.94128 0.0
H333 H 0.52536 0.53843 0.12434 0.0
H334 H 0.50751 0.55647 0.01687 0.0
S335 S 0.56923 0.4824 0.90076 0.0
N336 N 0.5696 0.48446 0.98938 0.0
N337 N 0.55001 0.50347 0.87307 0.0
C338 C 0.54274 0.51332 0.93667 0.0
C339 C 0.55351 0.50288 1.0 0.0
C340 C 0.562 0.06094 1.00218 0.0
C341 C 0.55436 0.04648 0.07138 0.0
C342 C 0.5519 0.04001 0.94015 0.0
C343 C 0.53342 1.00355 0.9441 0.0
H344 H 0.57534 0.08865 0.99568 0.0
H345 H 0.55802 0.05275 0.88836 0.0
S346 S 0.50823 0.95241 0.1122 0.0
N347 N 0.52817 0.99281 0.13984 0.0
N348 N 0.50917 0.95413 0.02352 0.0
C349 C 0.52637 0.98874 0.01283 0.0
C350 C 0.53681 1.00998 0.07616 0.0
C351 C 0.20722 0.39019 0.89657 0.0
C352 C 0.18692 0.35526 0.91574 0.0
C353 C 0.21191 0.40018 0.82473 0.0
C354 C 0.1964 0.37553 0.77018 0.0
H355 H 0.22194 0.40967 0.93654 0.0
H356 H 0.23026 0.42679 0.81206 0.0
S357 S 0.13113 0.2833 0.79332 0.0
N358 N 0.14397 0.29772 0.87574 0.0
N359 N 0.15302 0.31671 0.73987 0.0
C360 C 0.17188 0.3416 0.78897 0.0
C361 C 0.16701 0.33138 0.86225 0.0
C362 C 0.67469 0.82543 0.81563 0.0
C363 C 0.69933 0.84024 0.76095 0.0
C364 C 0.68477 0.829 0.88734 0.0
C365 C 0.71979 0.84761 0.90644 0.0
H366 H 0.64747 0.81356 0.80384 0.0
H367 H 0.66486 0.81958 0.92799 0.0
S368 S 0.79389 0.88008 0.78158 0.0
N369 N 0.75983 0.86575 0.72891 0.0
N370 N 0.77891 0.87279 0.86456 0.0
C371 C 0.74455 0.85762 0.85185 0.0
C372 C 0.73425 0.85394 0.77862 0.0
C373 C 0.20615 0.898 0.84847 0.0
C374 C 0.22338 0.89061 0.9023 0.0
C375 C 0.20956 0.89163 0.77661 0.0
C376 C 0.23033 0.87775 0.7567 0.0
H377 H 0.18735 0.90544 0.86205 0.0
H378 H 0.1935 0.89487 0.73757 0.0
S379 S 0.29049 0.86674 0.87558 0.0
N380 N 0.26884 0.87799 0.9301 0.0
N381 N 0.27559 0.8662 0.79411 0.0
C382 C 0.25196 0.87578 0.80883 0.0
C383 C 0.24836 0.88218 0.88216 0.0
C384 C 0.41249 0.19922 0.18303 0.0
C385 C 0.38796 0.183 0.23738 0.0
C386 C 0.40245 0.19498 0.11122 0.0
C387 C 0.36761 0.17441 0.09185 0.0
H388 H 0.43898 0.21779 0.19598 0.0
H389 H 0.42181 0.21021 0.07155 0.0
S390 S 0.29613 0.11692 0.21312 0.0
N391 N 0.32945 0.13873 0.26686 0.0
N392 N 0.31039 0.13057 0.13103 0.0
C393 C 0.34392 0.15386 0.14489 0.0
C394 C 0.35418 0.15825 0.21815 0.0
C395 C 0.90779 0.19058 0.15788 0.0
C396 C 0.89818 0.20549 0.103 0.0
C397 C 0.90238 0.19531 0.22959 0.0
C398 C 0.88718 0.21506 0.24835 0.0
H399 H 0.91656 0.17265 0.14557 0.0
H400 H 0.90762 0.18108 0.26984 0.0
S401 S 0.86928 0.26917 0.12488 0.0
N402 N 0.88148 0.24777 0.07191 0.0
N403 N 0.87125 0.25681 0.20751 0.0
C404 C 0.88258 0.23436 0.1945 0.0
C405 C 0.88807 0.22948 0.12134 0.0
C406 C 0.84619 0.67071 0.11905 0.0
C407 C 0.86391 0.70581 0.10018 0.0
C408 C 0.83994 0.66063 0.19073 0.0
C409 C 0.85124 0.68537 0.24562 0.0
H410 H 0.83944 0.65084 0.07889 0.0
H411 H 0.82908 0.63353 0.20299 0.0
S412 S 0.8871 0.77942 0.22296 0.0
N413 N 0.8842 0.76459 0.14052 0.0
N414 N 0.87225 0.74548 0.27614 0.0
C415 C 0.86389 0.72005 0.22699 0.0
C416 C 0.87028 0.73036 0.15378 0.0
C417 C 1.00213 0.4942 0.49374 0.0
C418 C 1.02661 0.50258 0.43933 0.0
C419 C 1.01217 0.49968 0.56558 0.0
C420 C 0.04697 0.5137 0.58489 0.0
H421 H 0.97571 0.48647 0.48086 0.0
H422 H 0.99288 0.49553 0.60535 0.0
S423 S 0.11819 0.52773 0.46317 0.0
N424 N 0.08494 0.51664 0.40953 0.0
N425 N 0.104 0.52687 0.5454 0.0
C426 C 0.07056 0.51689 0.53168 0.0
C427 C 0.0603 0.51138 0.45839 0.0
C428 C 0.57368 0.53514 0.55964 0.0
C429 C 0.55697 0.55336 0.57903 0.0
C430 C 0.57877 0.53047 0.48772 0.0
C431 C 0.56733 0.54393 0.43318 0.0
H432 H 0.58027 0.52184 0.59966 0.0
H433 H 0.58874 0.51354 0.47518 0.0
S434 S 0.53466 0.60455 0.45667 0.0
N435 N 0.53811 0.59298 0.53913 0.0
N436 N 0.54778 0.58415 0.40305 0.0
C437 C 0.55599 0.56692 0.45206 0.0
C438 C 0.55082 0.57173 0.5255 0.0
C439 C 0.50228 0.99388 0.5261 0.0
C440 C 0.5153 1.01882 0.58069 0.0
C441 C 0.50756 1.00369 0.45419 0.0
C442 C 0.52602 0.0387 0.43484 0.0
H443 H 0.49081 0.96673 0.5385 0.0
H444 H 0.49963 0.98362 0.41403 0.0
S445 S 0.55333 0.11314 0.55757 0.0
N446 N 0.53846 0.0793 0.61107 0.0
N447 N 0.54859 0.09789 0.47502 0.0
C448 C 0.53392 0.06361 0.48853 0.0
C449 C 0.52853 0.05358 0.56197 0.0
C450 C 0.291 0.29437 0.02256 0.0
C451 C 0.25572 0.27625 0.04035 0.0
C452 C 0.307 0.27856 0.98687 0.0
C453 C 0.28887 0.2435 0.96687 0.0
H454 H 0.30672 0.32143 0.03561 0.0
H455 H 0.33422 0.29424 0.97564 0.0
S456 S 0.19582 0.18371 1.00046 0.0
N457 N 0.20294 0.22072 0.03437 0.0
N458 N 0.2331 0.19091 0.9684 0.0
C459 C 0.25351 0.22481 0.98435 0.0
C460 C 0.23703 0.2411 0.02071 0.0
C461 C 0.84481 0.04691 0.00408 0.0
C462 C 0.8272 0.05861 0.95961 0.0
C463 C 0.82756 1.01405 0.03747 0.0
C464 C 0.79186 0.99154 0.02845 0.0
H465 H 0.87189 0.06373 0.0153 0.0
H466 H 0.84219 1.00656 0.07178 0.0
S467 S 0.73487 1.00787 0.90915 0.0
N468 N 0.77267 0.04331 0.90305 0.0
N469 N 0.74055 0.98255 0.9649 0.0
C470 C 0.77444 1.00254 0.98154 0.0
C471 C 0.79196 0.03566 0.94751 0.0
C472 C 1.02402 0.81189 0.999 0.0
C473 C 1.01172 0.78179 0.95672 0.0
C474 C 0.05696 0.82769 0.03186 0.0
C475 C 0.07903 0.81395 0.0245 0.0
H476 H 1.00765 0.82275 0.00878 0.0
H477 H 0.06491 0.8505 0.06429 0.0
S478 S 0.06088 0.738 0.91182 0.0
N479 N 1.02586 0.74089 0.9044 0.0
N480 N 0.08677 0.76986 0.96537 0.0
C481 C 0.06737 0.78458 0.98004 0.0
C482 C 1.03413 0.76876 0.94651 0.0
C483 C 0.82768 0.79651 0.98863 0.0
C484 C 0.86284 0.81504 0.96993 0.0
C485 C 0.81151 0.81243 0.02425 0.0
C486 C 0.8296 0.84774 0.04224 0.0
H487 H 0.81254 0.76927 0.97664 0.0
H488 H 0.78438 0.79697 0.0366 0.0
S489 S 0.92212 0.90807 0.00543 0.0
N490 N 0.91518 0.87089 0.973 0.0
N491 N 0.88492 0.90065 0.03826 0.0
C492 C 0.86473 0.86655 0.02366 0.0
C493 C 0.88125 0.85029 0.98812 0.0
C494 C 0.25704 1.01365 0.02327 0.0
C495 C 0.22194 0.99678 0.04245 0.0
C496 C 0.27295 0.0457 0.98719 0.0
C497 C 0.25463 0.0626 0.96932 0.0
H498 H 0.27228 1.00169 0.03485 0.0
H499 H 0.30001 0.05753 0.97416 0.0
S500 S 0.16231 0.02995 0.00857 0.0
N501 N 0.16951 0.99987 0.04083 0.0
N502 N 0.19929 0.05987 0.97478 0.0
C503 C 0.21963 0.04617 0.98893 0.0
C504 C 0.20337 1.01342 0.02488 0.0
C505 C 1.02576 0.19278 0.98694 0.0
C506 C 1.00887 0.21099 0.96797 0.0
C507 C 0.05815 0.20911 0.02134 0.0
C508 C 0.07497 0.24431 0.04001 0.0
H509 H 1.01386 0.16554 0.97512 0.0
H510 H 0.07005 0.19387 0.03371 0.0
S511 S 0.04215 0.304 1.00251 0.0
N512 N 1.01198 0.26665 0.97032 0.0
N513 N 0.07218 0.29696 0.03562 0.0
C514 C 0.05836 0.26284 0.02157 0.0
C515 C 1.02562 0.24634 0.98544 0.0
C516 C 0.90846 0.57559 0.37 0.0
C517 C 0.92294 0.61167 0.36536 0.0
C518 C 0.92408 0.55848 0.33647 0.0
C519 C 0.95473 0.57662 0.29617 0.0
H520 H 0.8852 0.56045 0.40084 0.0
H521 H 0.91261 0.53097 0.34419 0.0
S522 S 1.00057 0.67058 0.25842 0.0
N523 N 0.96833 0.66425 0.31076 0.0
N524 N 0.99697 0.63241 0.24847 0.0
C525 C 0.96851 0.61241 0.28859 0.0
C526 C 0.95288 0.62978 0.32284 0.0
C527 C 0.50731 0.37605 0.31174 0.0
C528 C 0.49163 0.39659 0.31137 0.0
C529 C 0.49143 0.3431 0.34475 0.0
C530 C 0.45924 0.32921 0.3796 0.0
H531 H 0.53189 0.38526 0.28554 0.0
H532 H 0.50411 0.32805 0.34117 0.0
S533 S 0.40886 0.37374 0.40144 0.0
N534 N 0.44273 0.40092 0.35423 0.0
N535 N 0.4137 0.34019 0.41595 0.0
C536 C 0.44399 0.35005 0.38181 0.0
C537 C 0.45988 0.38326 0.34793 0.0
C538 C 0.69038 0.0941 0.32431 0.0
C539 C 0.67328 0.11216 0.30561 0.0
C540 C 0.72255 0.11022 0.35889 0.0
C541 C 0.73987 0.14554 0.37686 0.0
H542 H 0.67871 0.06685 0.31282 0.0
H543 H 0.73402 0.09457 0.37096 0.0
S544 S 0.70687 0.20526 0.3404 0.0
N545 N 0.67649 0.1679 0.30863 0.0
N546 N 0.73709 0.19827 0.3726 0.0
C547 C 0.72325 0.16415 0.3585 0.0
C548 C 0.69015 0.14756 0.32322 0.0
C549 C 0.49268 0.13038 0.31878 0.0
C550 C 0.52793 0.14846 0.30091 0.0
C551 C 0.47685 0.14659 0.3545 0.0
C552 C 0.49539 0.18179 0.37339 0.0
H553 H 0.47721 0.10323 0.3062 0.0
H554 H 0.44964 0.13146 0.36627 0.0
S555 S 0.58836 0.241 0.33899 0.0
N556 N 0.58089 0.20377 0.30574 0.0
N557 N 0.55123 0.23412 0.37114 0.0
C558 C 0.53061 0.20018 0.35558 0.0
C559 C 0.5468 0.18361 0.31996 0.0
C560 C 0.92195 0.34466 0.35666 0.0
C561 C 0.88658 0.32724 0.37335 0.0
C562 C 0.938 0.37686 0.32121 0.0
C563 C 0.91952 0.3934 0.30147 0.0
H564 H 0.93738 0.3331 0.37012 0.0
H565 H 0.96531 0.38918 0.31042 0.0
S566 S 0.82625 0.35891 0.33245 0.0
N567 N 0.83357 0.32919 0.36636 0.0
N568 N 0.86361 0.38947 0.30142 0.0
C569 C 0.88416 0.37628 0.31796 0.0
C570 C 0.86777 0.34337 0.35331 0.0
C571 C 0.69194 0.57556 0.32052 0.0
C572 C 0.6749 0.54029 0.30223 0.0
C573 C 0.72404 0.59159 0.35634 0.0
C574 C 0.74086 0.57323 0.37472 0.0
H575 H 0.68012 0.59087 0.30828 0.0
H576 H 0.73603 0.61879 0.36855 0.0
S577 S 0.70755 0.48037 0.33863 0.0
N578 N 0.67757 0.48757 0.30588 0.0
N579 N 0.73773 0.51761 0.37127 0.0
C580 C 0.72418 0.53802 0.35631 0.0
C581 C 0.69135 0.52162 0.32072 0.0
C582 C 0.58966 0.891 0.66781 0.0
C583 C 0.61896 0.90905 0.62351 0.0
C584 C 0.57392 0.90786 0.70198 0.0
C585 C 0.58697 0.9436 0.69404 0.0
H586 H 0.57947 0.86385 0.67821 0.0
H587 H 0.55184 0.8929 0.73615 0.0
S588 S 0.66013 1.00177 0.57567 0.0
N589 N 0.65798 0.96413 0.56826 0.0
N590 N 0.62911 0.99549 0.6317 0.0
C591 C 0.61536 0.96148 0.64733 0.0
C592 C 0.63109 0.94437 0.61244 0.0
C593 C 0.12525 0.71165 0.65942 0.0
C594 C 0.15984 0.72789 0.63667 0.0
C595 C 0.10943 0.6798 0.69525 0.0
C596 C 0.12707 0.6619 0.71043 0.0
H597 H 0.10994 0.72376 0.65022 0.0
H598 H 0.08273 0.66899 0.71044 0.0
S599 S 0.21828 0.69258 0.66296 0.0
N600 N 0.21149 0.72331 0.63297 0.0
N601 N 0.18165 0.66322 0.69921 0.0
C602 C 0.16178 0.67771 0.68823 0.0
C603 C 0.17808 0.71053 0.65174 0.0
C604 C 0.38789 0.49518 0.70411 0.0
C605 C 0.40994 0.48148 0.69581 0.0
C606 C 0.35506 0.47975 0.67067 0.0
C607 C 0.34297 0.45014 0.62687 0.0
H608 H 0.39569 0.51753 0.73796 0.0
H609 H 0.33858 0.49039 0.68138 0.0
S610 S 0.39248 0.40717 0.57842 0.0
N611 N 0.4181 0.43834 0.63361 0.0
N612 N 0.35743 0.41006 0.57165 0.0
C613 C 0.36549 0.43736 0.61541 0.0
C614 C 0.39856 0.45277 0.6495 0.0
C615 C 0.2095 0.51527 0.65354 0.0
C616 C 0.19134 0.48011 0.63449 0.0
C617 C 0.19323 0.53119 0.68844 0.0
C618 C 0.15815 0.5126 0.70756 0.0
H619 H 0.23664 0.53076 0.64139 0.0
H620 H 0.20842 0.55839 0.70083 0.0
S621 S 0.09867 0.41981 0.67027 0.0
N622 N 0.13588 0.42725 0.63739 0.0
N623 N 0.10568 0.45688 0.70362 0.0
C624 C 0.13968 0.47739 0.68909 0.0
C625 C 0.15611 0.46129 0.65246 0.0
C626 C 0.53914 0.67904 0.69141 0.0
C627 C 0.55741 0.66212 0.70961 0.0
C628 C 0.55519 0.71131 0.65642 0.0
C629 C 0.59015 0.72799 0.63631 0.0
H630 H 0.51209 0.66727 0.70443 0.0
H631 H 0.53993 0.72325 0.64487 0.0
S632 S 0.64963 0.69454 0.66975 0.0
N633 N 0.61268 0.66471 0.70392 0.0
N634 N 0.6425 0.72469 0.63752 0.0
C635 C 0.60867 0.71121 0.65354 0.0
C636 C 0.59245 0.67859 0.69029 0.0
C637 C 0.3575 0.85834 0.65188 0.0
C638 C 0.34029 0.87653 0.63572 0.0
C639 C 0.3897 0.87426 0.68704 0.0
C640 C 0.40592 0.90895 0.70945 0.0
H641 H 0.34608 0.83149 0.63684 0.0
H642 H 0.40198 0.85914 0.69671 0.0
S643 S 0.37118 0.96785 0.68306 0.0
N644 N 0.34183 0.93123 0.64654 0.0
N645 N 0.40166 0.96083 0.71339 0.0
C646 C 0.38871 0.9273 0.69469 0.0
C647 C 0.35619 0.91124 0.6577 0.0
loop_
_geom_bond_atom_site_label_1
_geom_bond_atom_site_label_2
_geom_bond_distance
_geom_bond_site_symmetry_2
_ccdc_geom_bond_type
Co0 O1 2.216 . S
Co0 O2 2.091 . S
Co0 O4 2.004 . S
Co0 O10 2.021 1_554 S
Co0 O12 2.137 . S
Co0 O13 2.244 . S
O1 Co0 2.216 . S
O1 C8 1.247 . S
O2 Co0 2.091 . S
O2 C8 1.261 . S
C3 O12 1.247 . S
C3 O13 1.272 . S
O4 Co0 2.004 . S
O4 C9 1.259 . S
Co5 O6 2.061 . S
Co5 O11 2.052 1_554 S
Co5 O13 2.135 . S
O6 Co5 2.061 . S
O6 C9 1.235 . S
C7 O10 1.238 . S
C7 O11 1.241 . S
C8 O1 1.247 . S
C8 O2 1.261 . S
C9 O4 1.259 . S
C9 O6 1.235 . S
O10 Co0 2.021 1_556 S
O10 C7 1.238 . S
O11 Co5 2.052 1_556 S
O11 C7 1.241 . S
O12 Co0 2.137 . S
O12 C3 1.247 . S
O13 Co0 2.244 . S
O13 C3 1.272 . S
O13 Co5 2.135 . S
Co14 O15 2.216 . S
Co14 O16 2.091 . S
Co14 O18 2.004 . S
Co14 O24 2.021 1_554 S
Co14 O26 2.137 . S
Co14 O27 2.244 . S
O15 Co14 2.216 . S
O15 C22 1.247 . S
O16 Co14 2.091 . S
O16 C22 1.261 . S
C17 O26 1.247 . S
C17 O27 1.272 . S
O18 Co14 2.004 . S
O18 C23 1.259 . S
Co19 O20 2.061 . S
Co19 O25 2.052 1_554 S
Co19 O27 2.135 . S
O20 Co19 2.061 . S
O20 C23 1.235 . S
C21 O24 1.238 . S
C21 O25 1.241 . S
C22 O15 1.247 . S
C22 O16 1.261 . S
C23 O18 1.259 . S
C23 O20 1.235 . S
O24 Co14 2.021 1_556 S
O24 C21 1.238 . S
O25 Co19 2.052 1_556 S
O25 C21 1.241 . S
O26 Co14 2.137 . S
O26 C17 1.247 . S
O27 Co14 2.244 . S
O27 C17 1.272 . S
O27 Co19 2.135 . S
Co28 O29 2.216 . S
Co28 O30 2.091 . S
Co28 O32 2.004 . S
Co28 O38 2.021 1_554 S
Co28 O40 2.137 . S
Co28 O41 2.244 . S
O29 Co28 2.216 . S
O29 C36 1.247 . S
O30 Co28 2.091 . S
O30 C36 1.261 . S
C31 O40 1.247 . S
C31 O41 1.272 . S
O32 Co28 2.004 . S
O32 C37 1.259 . S
Co33 O34 2.061 . S
Co33 O39 2.052 1_554 S
Co33 O41 2.135 . S
O34 Co33 2.061 . S
O34 C37 1.235 . S
C35 O38 1.238 . S
C35 O39 1.241 . S
C36 O29 1.247 . S
C36 O30 1.261 . S
C37 O32 1.259 . S
C37 O34 1.235 . S
O38 Co28 2.021 1_556 S
O38 C35 1.238 . S
O39 Co33 2.052 1_556 S
O39 C35 1.241 . S
O40 Co28 2.137 . S
O40 C31 1.247 . S
O41 Co28 2.244 . S
O41 C31 1.272 . S
O41 Co33 2.135 . S
Co42 O43 2.216 . S
Co42 O44 2.091 . S
Co42 O46 2.004 . S
Co42 O52 2.021 1_556 S
Co42 O54 2.137 . S
Co42 O55 2.244 . S
O43 Co42 2.216 . S
O43 C50 1.247 . S
O44 Co42 2.091 . S
O44 C50 1.261 . S
C45 O54 1.247 . S
C45 O55 1.272 . S
O46 Co42 2.004 . S
O46 C51 1.259 . S
Co47 O48 2.061 . S
Co47 O53 2.052 1_556 S
Co47 O55 2.135 . S
O48 Co47 2.061 . S
O48 C51 1.235 . S
C49 O52 1.238 . S
C49 O53 1.241 . S
C50 O43 1.247 . S
C50 O44 1.261 . S
C51 O46 1.259 . S
C51 O48 1.235 . S
O52 Co42 2.021 1_554 S
O52 C49 1.238 . S
O53 Co47 2.052 1_554 S
O53 C49 1.241 . S
O54 Co42 2.137 . S
O54 C45 1.247 . S
O55 Co42 2.244 . S
O55 C45 1.272 . S
O55 Co47 2.135 . S
Co56 O57 2.216 . S
Co56 O58 2.091 . S
Co56 O60 2.004 . S
Co56 O66 2.021 1_556 S
Co56 O68 2.137 . S
Co56 O69 2.244 . S
O57 Co56 2.216 . S
O57 C64 1.247 . S
O58 Co56 2.091 . S
O58 C64 1.261 . S
C59 O68 1.247 . S
C59 O69 1.272 . S
O60 Co56 2.004 . S
O60 C65 1.259 . S
Co61 O62 2.061 . S
Co61 O67 2.052 1_556 S
Co61 O69 2.135 . S
O62 Co61 2.061 . S
O62 C65 1.235 . S
C63 O66 1.238 . S
C63 O67 1.241 . S
C64 O57 1.247 . S
C64 O58 1.261 . S
C65 O60 1.259 . S
C65 O62 1.235 . S
O66 Co56 2.021 1_554 S
O66 C63 1.238 . S
O67 Co61 2.052 1_554 S
O67 C63 1.241 . S
O68 Co56 2.137 . S
O68 C59 1.247 . S
O69 Co56 2.244 . S
O69 C59 1.272 . S
O69 Co61 2.135 . S
Co70 O71 2.216 . S
Co70 O72 2.091 . S
Co70 O74 2.004 . S
Co70 O80 2.021 1_556 S
Co70 O82 2.137 . S
Co70 O83 2.244 . S
O71 Co70 2.216 . S
O71 C78 1.247 . S
O72 Co70 2.091 . S
O72 C78 1.261 . S
C73 O82 1.247 . S
C73 O83 1.272 . S
O74 Co70 2.004 . S
O74 C79 1.259 . S
Co75 O76 2.061 . S
Co75 O81 2.052 1_556 S
Co75 O83 2.135 . S
O76 Co75 2.061 . S
O76 C79 1.235 . S
C77 O80 1.238 . S
C77 O81 1.241 . S
C78 O71 1.247 . S
C78 O72 1.261 . S
C79 O74 1.259 . S
C79 O76 1.235 . S
O80 Co70 2.021 1_554 S
O80 C77 1.238 . S
O81 Co75 2.052 1_554 S
O81 C77 1.241 . S
O82 Co70 2.137 . S
O82 C73 1.247 . S
O83 Co70 2.244 . S
O83 C73 1.272 . S
O83 Co75 2.135 . S
Co84 O85 2.216 . S
Co84 O86 2.091 . S
Co84 O88 2.004 . S
Co84 O94 2.021 . S
Co84 O96 2.137 . S
Co84 O97 2.244 . S
O85 Co84 2.216 . S
O85 C92 1.247 . S
O86 Co84 2.091 . S
O86 C92 1.261 . S
C87 O96 1.247 . S
C87 O97 1.272 . S
O88 Co84 2.004 . S
O88 C93 1.259 . S
Co89 O90 2.061 . S
Co89 O95 2.052 . S
Co89 O97 2.135 . S
O90 Co89 2.061 . S
O90 C93 1.235 . S
C91 O94 1.238 . S
C91 O95 1.241 . S
C92 O85 1.247 . S
C92 O86 1.261 . S
C93 O88 1.259 . S
C93 O90 1.235 . S
O94 Co84 2.021 . S
O94 C91 1.238 . S
O95 Co89 2.052 . S
O95 C91 1.241 . S
O96 Co84 2.137 . S
O96 C87 1.247 . S
O97 Co84 2.244 . S
O97 C87 1.272 . S
O97 Co89 2.135 . S
Co98 O99 2.216 . S
Co98 O100 2.091 . S
Co98 O102 2.004 . S
Co98 O108 2.021 . S
Co98 O110 2.137 . S
Co98 O111 2.244 . S
O99 Co98 2.216 . S
O99 C106 1.247 . S
O100 Co98 2.091 . S
O100 C106 1.261 . S
C101 O110 1.247 . S
C101 O111 1.272 . S
O102 Co98 2.004 . S
O102 C107 1.259 . S
Co103 O104 2.061 . S
Co103 O109 2.052 . S
Co103 O111 2.135 . S
O104 Co103 2.061 . S
O104 C107 1.235 . S
C105 O108 1.238 . S
C105 O109 1.241 . S
C106 O99 1.247 . S
C106 O100 1.261 . S
C107 O102 1.259 . S
C107 O104 1.235 . S
O108 Co98 2.021 . S
O108 C105 1.238 . S
O109 Co103 2.052 . S
O109 C105 1.241 . S
O110 Co98 2.137 . S
O110 C101 1.247 . S
O111 Co98 2.244 . S
O111 C101 1.272 . S
O111 Co103 2.135 . S
Co112 O113 2.216 . S
Co112 O114 2.091 . S
Co112 O116 2.004 . S
Co112 O122 2.021 . S
Co112 O124 2.137 . S
Co112 O125 2.244 . S
O113 Co112 2.216 . S
O113 C120 1.247 . S
O114 Co112 2.091 . S
O114 C120 1.261 . S
C115 O124 1.247 . S
C115 O125 1.272 . S
O116 Co112 2.004 . S
O116 C121 1.259 . S
Co117 O118 2.061 . S
Co117 O123 2.052 . S
Co117 O125 2.135 . S
O118 Co117 2.061 . S
O118 C121 1.235 . S
C119 O122 1.238 . S
C119 O123 1.241 . S
C120 O113 1.247 . S
C120 O114 1.261 . S
C121 O116 1.259 . S
C121 O118 1.235 . S
O122 Co112 2.021 . S
O122 C119 1.238 . S
O123 Co117 2.052 . S
O123 C119 1.241 . S
O124 Co112 2.137 . S
O124 C115 1.247 . S
O125 Co112 2.244 . S
O125 C115 1.272 . S
O125 Co117 2.135 . S
Co126 O127 2.216 . S
Co126 O128 2.091 . S
Co126 O130 2.004 . S
Co126 O136 2.021 . S
Co126 O138 2.137 . S
Co126 O139 2.244 . S
O127 Co126 2.216 . S
O127 C134 1.247 . S
O128 Co126 2.091 . S
O128 C134 1.261 . S
C129 O138 1.247 . S
C129 O139 1.272 . S
O130 Co126 2.004 . S
O130 C135 1.259 . S
Co131 O132 2.061 1_455 S
Co131 O137 2.052 . S
Co131 O139 2.135 1_455 S
O132 Co131 2.061 1_655 S
O132 C135 1.235 . S
C133 O136 1.238 . S
C133 O137 1.241 1_655 S
C134 O127 1.247 . S
C134 O128 1.261 . S
C135 O130 1.259 . S
C135 O132 1.235 . S
O136 Co126 2.021 . S
O136 C133 1.238 . S
O137 Co131 2.052 . S
O137 C133 1.241 1_455 S
O138 Co126 2.137 . S
O138 C129 1.247 . S
O139 Co126 2.244 . S
O139 C129 1.272 . S
O139 Co131 2.135 1_655 S
Co140 O141 2.216 . S
Co140 O142 2.091 . S
Co140 O144 2.004 . S
Co140 O150 2.021 . S
Co140 O152 2.137 . S
Co140 O153 2.244 . S
O141 Co140 2.216 . S
O141 C148 1.247 . S
O142 Co140 2.091 . S
O142 C148 1.261 . S
C143 O152 1.247 . S
C143 O153 1.272 . S
O144 Co140 2.004 . S
O144 C149 1.259 . S
Co145 O146 2.061 . S
Co145 O151 2.052 . S
Co145 O153 2.135 . S
O146 Co145 2.061 . S
O146 C149 1.235 . S
C147 O150 1.238 . S
C147 O151 1.241 . S
C148 O141 1.247 . S
C148 O142 1.261 . S
C149 O144 1.259 . S
C149 O146 1.235 . S
O150 Co140 2.021 . S
O150 C147 1.238 . S
O151 Co145 2.052 . S
O151 C147 1.241 . S
O152 Co140 2.137 . S
O152 C143 1.247 . S
O153 Co140 2.244 . S
O153 C143 1.272 . S
O153 Co145 2.135 . S
Co154 O155 2.216 . S
Co154 O156 2.091 . S
Co154 O158 2.004 . S
Co154 O164 2.021 . S
Co154 O166 2.137 . S
Co154 O167 2.244 . S
O155 Co154 2.216 . S
O155 C162 1.247 . S
O156 Co154 2.091 . S
O156 C162 1.261 . S
C157 O166 1.247 . S
C157 O167 1.272 . S
O158 Co154 2.004 . S
O158 C163 1.259 . S
Co159 O160 2.040 1_565 S
Co159 O165 2.043 . S
Co159 O167 2.108 1_565 S
O160 Co159 2.040 1_545 S
O160 C163 1.235 . S
C161 O164 1.238 . S
C161 O165 1.241 1_545 S
C162 O155 1.247 . S
C162 O156 1.261 . S
C163 O158 1.259 . S
C163 O160 1.235 . S
O164 Co154 2.021 . S
O164 C161 1.238 . S
O165 Co159 2.043 . S
O165 C161 1.241 1_565 S
O166 Co154 2.137 . S
O166 C157 1.247 . S
O167 Co154 2.244 . S
O167 C157 1.272 . S
O167 Co159 2.108 1_545 S
Co168 O169 2.216 . S
Co168 O170 2.091 . S
Co168 O172 2.004 . S
Co168 O178 2.021 . S
Co168 O180 2.137 . S
Co168 O181 2.244 . S
O169 Co168 2.216 . S
O169 C176 1.247 . S
O170 Co168 2.091 . S
O170 C176 1.261 . S
C171 O180 1.247 . S
C171 O181 1.272 . S
O172 Co168 2.004 . S
O172 C177 1.259 . S
Co173 O174 2.061 1_545 S
Co173 O179 2.052 . S
Co173 O181 2.135 1_545 S
O174 Co173 2.061 1_565 S
O174 C177 1.235 . S
C175 O178 1.238 . S
C175 O179 1.241 1_565 S
C176 O169 1.247 . S
C176 O170 1.261 . S
C177 O172 1.259 . S
C177 O174 1.235 . S
O178 Co168 2.021 . S
O178 C175 1.238 . S
O179 Co173 2.052 . S
O179 C175 1.241 1_545 S
O180 Co168 2.137 . S
O180 C171 1.247 . S
O181 Co168 2.244 . S
O181 C171 1.272 . S
O181 Co173 2.135 1_565 S
Co182 O183 2.216 . S
Co182 O184 2.091 . S
Co182 O186 2.004 . S
Co182 O192 2.021 . S
Co182 O194 2.137 . S
Co182 O195 2.244 . S
O183 Co182 2.216 . S
O183 C190 1.247 . S
O184 Co182 2.091 . S
O184 C190 1.261 . S
C185 O194 1.247 . S
C185 O195 1.272 . S
O186 Co182 2.004 . S
O186 C191 1.259 . S
Co187 O188 2.040 1_655 S
Co187 O193 2.043 . S
Co187 O195 2.108 1_655 S
O188 Co187 2.040 1_455 S
O188 C191 1.235 . S
C189 O192 1.238 . S
C189 O193 1.241 1_455 S
C190 O183 1.247 . S
C190 O184 1.261 . S
C191 O186 1.259 . S
C191 O188 1.235 . S
O192 Co182 2.021 . S
O192 C189 1.238 . S
O193 Co187 2.043 . S
O193 C189 1.241 1_655 S
O194 Co182 2.137 . S
O194 C185 1.247 . S
O195 Co182 2.244 . S
O195 C185 1.272 . S
O195 Co187 2.108 1_455 S
Co196 O197 2.216 . S
Co196 O198 2.091 . S
Co196 O200 2.004 . S
Co196 O206 2.021 . S
Co196 O208 2.137 . S
Co196 O209 2.244 . S
O197 Co196 2.216 . S
O197 C204 1.247 . S
O198 Co196 2.091 . S
O198 C204 1.261 . S
C199 O208 1.247 . S
C199 O209 1.272 . S
O200 Co196 2.004 . S
O200 C205 1.259 . S
Co201 O202 2.061 . S
Co201 O207 2.052 . S
Co201 O209 2.135 . S
O202 Co201 2.061 . S
O202 C205 1.235 . S
C203 O206 1.238 . S
C203 O207 1.241 . S
C204 O197 1.247 . S
C204 O198 1.261 . S
C205 O200 1.259 . S
C205 O202 1.235 . S
O206 Co196 2.021 . S
O206 C203 1.238 . S
O207 Co201 2.052 . S
O207 C203 1.241 . S
O208 Co196 2.137 . S
O208 C199 1.247 . S
O209 Co196 2.244 . S
O209 C199 1.272 . S
O209 Co201 2.135 . S
Co210 O211 2.216 . S
Co210 O212 2.091 . S
Co210 O214 2.004 . S
Co210 O220 2.021 . S
Co210 O222 2.137 . S
Co210 O223 2.244 . S
O211 Co210 2.216 . S
O211 C218 1.247 . S
O212 Co210 2.091 . S
O212 C218 1.261 . S
C213 O222 1.247 . S
C213 O223 1.272 . S
O214 Co210 2.004 . S
O214 C219 1.259 . S
Co215 O216 2.061 . S
Co215 O221 2.052 . S
Co215 O223 2.135 . S
O216 Co215 2.061 . S
O216 C219 1.235 . S
C217 O220 1.238 . S
C217 O221 1.241 . S
C218 O211 1.247 . S
C218 O212 1.261 . S
C219 O214 1.259 . S
C219 O216 1.235 . S
O220 Co210 2.021 . S
O220 C217 1.238 . S
O221 Co215 2.052 . S
O221 C217 1.241 . S
O222 Co210 2.137 . S
O222 C213 1.247 . S
O223 Co210 2.244 . S
O223 C213 1.272 . S
O223 Co215 2.135 . S
Co224 O225 2.216 . S
Co224 O226 2.091 . S
Co224 O228 2.004 . S
Co224 O234 2.021 . S
Co224 O236 2.137 . S
Co224 O237 2.244 . S
O225 Co224 2.216 . S
O225 C232 1.247 . S
O226 Co224 2.091 . S
O226 C232 1.261 . S
C227 O236 1.247 . S
C227 O237 1.272 . S
O228 Co224 2.004 . S
O228 C233 1.259 . S
Co229 O230 2.061 . S
Co229 O235 2.052 . S
Co229 O237 2.135 . S
O230 Co229 2.061 . S
O230 C233 1.235 . S
C231 O234 1.238 . S
C231 O235 1.241 . S
C232 O225 1.247 . S
C232 O226 1.261 . S
C233 O228 1.259 . S
C233 O230 1.235 . S
O234 Co224 2.021 . S
O234 C231 1.238 . S
O235 Co229 2.052 . S
O235 C231 1.241 . S
O236 Co224 2.137 . S
O236 C227 1.247 . S
O237 Co224 2.244 . S
O237 C227 1.272 . S
O237 Co229 2.135 . S
Co238 O239 2.216 . S
Co238 O240 2.091 . S
Co238 O242 2.004 . S
Co238 O248 2.021 . S
Co238 O250 2.137 . S
Co238 O251 2.244 . S
O239 Co238 2.216 . S
O239 C246 1.247 . S
O240 Co238 2.091 . S
O240 C246 1.261 . S
C241 O250 1.247 . S
C241 O251 1.272 . S
O242 Co238 2.004 . S
O242 C247 1.259 . S
Co243 O244 2.061 . S
Co243 O249 2.052 . S
Co243 O251 2.135 . S
O244 Co243 2.061 . S
O244 C247 1.235 . S
C245 O248 1.238 . S
C245 O249 1.241 . S
C246 O239 1.247 . S
C246 O240 1.261 . S
C247 O242 1.259 . S
C247 O244 1.235 . S
O248 Co238 2.021 . S
O248 C245 1.238 . S
O249 Co243 2.052 . S
O249 C245 1.241 . S
O250 Co238 2.137 . S
O250 C241 1.247 . S
O251 Co238 2.244 . S
O251 C241 1.272 . S
O251 Co243 2.135 . S
C252 C253 1.369 . S
C252 C254 1.419 . S
C252 H256 0.930 . S
C253 C252 1.369 . S
C253 C262 1.429 . S
C254 C252 1.419 . S
C254 C255 1.363 . S
C254 H257 0.929 . S
C255 C254 1.363 . S
C255 C261 1.428 . S
H256 C252 0.930 . S
H257 C254 0.929 . S
S258 N259 1.613 . S
S258 N260 1.610 . S
N259 S258 1.613 . S
N259 C262 1.350 . S
N260 S258 1.610 . S
N260 C261 1.351 . S
C261 C255 1.428 . S
C261 N260 1.351 . S
C261 C262 1.434 . S
C262 C253 1.429 . S
C262 N259 1.350 . S
C262 C261 1.434 . S
C263 C264 1.369 . S
C263 C265 1.419 . S
C263 H267 0.930 . S
C264 C263 1.369 . S
C264 C273 1.429 . S
C265 C263 1.419 . S
C265 C266 1.363 . S
C265 H268 0.929 . S
C266 C265 1.363 . S
C266 C272 1.428 . S
H267 C263 0.930 . S
H268 C265 0.929 . S
S269 N270 1.613 . S
S269 N271 1.610 . S
N270 S269 1.613 . S
N270 C273 1.350 . S
N271 S269 1.610 . S
N271 C272 1.351 . S
C272 C266 1.428 . S
C272 N271 1.351 . S
C272 C273 1.434 . S
C273 C264 1.429 . S
C273 N270 1.350 . S
C273 C272 1.434 . S
C274 C275 1.369 . S
C274 C276 1.419 . S
C274 H278 0.930 . S
C275 C274 1.369 . S
C275 C284 1.429 . S
C276 C274 1.419 . S
C276 C277 1.363 . S
C276 H279 0.929 . S
C277 C276 1.363 . S
C277 C283 1.428 . S
H278 C274 0.930 . S
H279 C276 0.929 . S
S280 N281 1.613 . S
S280 N282 1.610 . S
N281 S280 1.613 . S
N281 C284 1.350 . S
N282 S280 1.610 . S
N282 C283 1.351 . S
C283 C277 1.428 . S
C283 N282 1.351 . S
C283 C284 1.434 . S
C284 C275 1.429 . S
C284 N281 1.350 . S
C284 C283 1.434 . S
C285 C286 1.369 . S
C285 C287 1.419 . S
C285 H289 0.930 . S
C286 C285 1.369 . S
C286 C295 1.429 . S
C287 C285 1.419 . S
C287 C288 1.363 . S
C287 H290 0.929 . S
C288 C287 1.363 . S
C288 C294 1.428 . S
H289 C285 0.930 . S
H290 C287 0.929 . S
S291 N292 1.613 . S
S291 N293 1.610 . S
N292 S291 1.613 . S
N292 C295 1.350 . S
N293 S291 1.610 . S
N293 C294 1.351 . S
C294 C288 1.428 . S
C294 N293 1.351 . S
C294 C295 1.434 . S
C295 C286 1.429 . S
C295 N292 1.350 . S
C295 C294 1.434 . S
C296 C297 1.369 . S
C296 C298 1.419 . S
C296 H300 0.930 . S
C297 C296 1.369 . S
C297 C306 1.429 . S
C298 C296 1.419 . S
C298 C299 1.363 . S
C298 H301 0.929 . S
C299 C298 1.363 . S
C299 C305 1.428 . S
H300 C296 0.930 . S
H301 C298 0.929 . S
S302 N303 1.613 . S
S302 N304 1.610 . S
N303 S302 1.613 . S
N303 C306 1.350 . S
N304 S302 1.610 . S
N304 C305 1.351 . S
C305 C299 1.428 . S
C305 N304 1.351 . S
C305 C306 1.434 . S
C306 C297 1.429 . S
C306 N303 1.350 . S
C306 C305 1.434 . S
C307 C308 1.369 . S
C307 C309 1.419 . S
C307 H311 0.930 . S
C308 C307 1.369 . S
C308 C317 1.429 . S
C309 C307 1.419 . S
C309 C310 1.363 . S
C309 H312 0.929 . S
C310 C309 1.363 . S
C310 C316 1.428 . S
H311 C307 0.930 . S
H312 C309 0.929 . S
S313 N314 1.613 . S
S313 N315 1.610 . S
N314 S313 1.613 . S
N314 C317 1.350 . S
N315 S313 1.610 . S
N315 C316 1.351 . S
C316 C310 1.428 . S
C316 N315 1.351 . S
C316 C317 1.434 . S
C317 C308 1.429 . S
C317 N314 1.350 . S
C317 C316 1.434 . S
C318 C319 1.369 . S
C318 C320 1.419 1_554 S
C318 H322 0.930 . S
C319 C318 1.369 . S
C319 C328 1.429 1_655 S
C320 C318 1.419 1_556 S
C320 C321 1.363 1_655 S
C320 H323 0.929 . S
C321 C320 1.363 1_455 S
C321 C327 1.428 . S
H322 C318 0.930 . S
H323 C320 0.929 . S
S324 N325 1.613 . S
S324 N326 1.610 1_554 S
N325 S324 1.613 . S
N325 C328 1.350 . S
N326 S324 1.610 1_556 S
N326 C327 1.351 . S
C327 C321 1.428 . S
C327 N326 1.351 . S
C327 C328 1.434 1_556 S
C328 C319 1.429 1_455 S
C328 N325 1.350 . S
C328 C327 1.434 1_554 S
C329 C330 1.369 . S
C329 C331 1.419 1_554 S
C329 H333 0.930 . S
C330 C329 1.369 . S
C330 C339 1.429 . S
C331 C329 1.419 1_556 S
C331 C332 1.363 . S
C331 H334 0.929 . S
C332 C331 1.363 . S
C332 C338 1.428 . S
H333 C329 0.930 . S
H334 C331 0.929 . S
S335 N336 1.613 1_556 S
S335 N337 1.610 . S
N336 S335 1.613 1_554 S
N336 C339 1.350 . S
N337 S335 1.610 . S
N337 C338 1.351 . S
C338 C332 1.428 . S
C338 N337 1.351 . S
C338 C339 1.434 1_556 S
C339 C330 1.429 . S
C339 N336 1.350 . S
C339 C338 1.434 1_554 S
C340 C341 1.369 . S
C340 C342 1.419 1_554 S
C340 H344 0.930 . S
C341 C340 1.369 . S
C341 C350 1.429 1_545 S
C342 C340 1.419 1_556 S
C342 C343 1.363 1_545 S
C342 H345 0.929 . S
C343 C342 1.363 1_565 S
C343 C349 1.428 . S
H344 C340 0.930 . S
H345 C342 0.929 . S
S346 N347 1.613 . S
S346 N348 1.610 1_554 S
N347 S346 1.613 . S
N347 C350 1.350 . S
N348 S346 1.610 1_556 S
N348 C349 1.351 . S
C349 C343 1.428 . S
C349 N348 1.351 . S
C349 C350 1.434 1_556 S
C350 C341 1.429 1_565 S
C350 N347 1.350 . S
C350 C349 1.434 1_554 S
C351 C352 1.369 . S
C351 C353 1.419 . S
C351 H355 0.930 . S
C352 C351 1.369 . S
C352 C361 1.429 . S
C353 C351 1.419 . S
C353 C354 1.363 . S
C353 H356 0.929 . S
C354 C353 1.363 . S
C354 C360 1.428 . S
H355 C351 0.930 . S
H356 C353 0.929 . S
S357 N358 1.613 . S
S357 N359 1.610 . S
N358 S357 1.613 . S
N358 C361 1.350 . S
N359 S357 1.610 . S
N359 C360 1.351 . S
C360 C354 1.428 . S
C360 N359 1.351 . S
C360 C361 1.434 . S
C361 C352 1.429 . S
C361 N358 1.350 . S
C361 C360 1.434 . S
C362 C363 1.369 . S
C362 C364 1.419 . S
C362 H366 0.930 . S
C363 C362 1.369 . S
C363 C372 1.429 . S
C364 C362 1.419 . S
C364 C365 1.363 . S
C364 H367 0.929 . S
C365 C364 1.363 . S
C365 C371 1.428 . S
H366 C362 0.930 . S
H367 C364 0.929 . S
S368 N369 1.613 . S
S368 N370 1.610 . S
N369 S368 1.613 . S
N369 C372 1.350 . S
N370 S368 1.610 . S
N370 C371 1.351 . S
C371 C365 1.428 . S
C371 N370 1.351 . S
C371 C372 1.434 . S
C372 C363 1.429 . S
C372 N369 1.350 . S
C372 C371 1.434 . S
C373 C374 1.369 . S
C373 C375 1.419 . S
C373 H377 0.930 . S
C374 C373 1.369 . S
C374 C383 1.429 . S
C375 C373 1.419 . S
C375 C376 1.363 . S
C375 H378 0.929 . S
C376 C375 1.363 . S
C376 C382 1.428 . S
H377 C373 0.930 . S
H378 C375 0.929 . S
S379 N380 1.613 . S
S379 N381 1.610 . S
N380 S379 1.613 . S
N380 C383 1.350 . S
N381 S379 1.610 . S
N381 C382 1.351 . S
C382 C376 1.428 . S
C382 N381 1.351 . S
C382 C383 1.434 . S
C383 C374 1.429 . S
C383 N380 1.350 . S
C383 C382 1.434 . S
C384 C385 1.369 . S
C384 C386 1.419 . S
C384 H388 0.930 . S
C385 C384 1.369 . S
C385 C394 1.429 . S
C386 C384 1.419 . S
C386 C387 1.363 . S
C386 H389 0.929 . S
C387 C386 1.363 . S
C387 C393 1.428 . S
H388 C384 0.930 . S
H389 C386 0.929 . S
S390 N391 1.613 . S
S390 N392 1.610 . S
N391 S390 1.613 . S
N391 C394 1.350 . S
N392 S390 1.610 . S
N392 C393 1.351 . S
C393 C387 1.428 . S
C393 N392 1.351 . S
C393 C394 1.434 . S
C394 C385 1.429 . S
C394 N391 1.350 . S
C394 C393 1.434 . S
C395 C396 1.369 . S
C395 C397 1.419 . S
C395 H399 0.930 . S
C396 C395 1.369 . S
C396 C405 1.429 . S
C397 C395 1.419 . S
C397 C398 1.363 . S
C397 H400 0.929 . S
C398 C397 1.363 . S
C398 C404 1.428 . S
H399 C395 0.930 . S
H400 C397 0.929 . S
S401 N402 1.613 . S
S401 N403 1.610 . S
N402 S401 1.613 . S
N402 C405 1.350 . S
N403 S401 1.610 . S
N403 C404 1.351 . S
C404 C398 1.428 . S
C404 N403 1.351 . S
C404 C405 1.434 . S
C405 C396 1.429 . S
C405 N402 1.350 . S
C405 C404 1.434 . S
C406 C407 1.369 . S
C406 C408 1.419 . S
C406 H410 0.930 . S
C407 C406 1.369 . S
C407 C416 1.429 . S
C408 C406 1.419 . S
C408 C409 1.363 . S
C408 H411 0.929 . S
C409 C408 1.363 . S
C409 C415 1.428 . S
H410 C406 0.930 . S
H411 C408 0.929 . S
S412 N413 1.613 . S
S412 N414 1.610 . S
N413 S412 1.613 . S
N413 C416 1.350 . S
N414 S412 1.610 . S
N414 C415 1.351 . S
C415 C409 1.428 . S
C415 N414 1.351 . S
C415 C416 1.434 . S
C416 C407 1.429 . S
C416 N413 1.350 . S
C416 C415 1.434 . S
C417 C418 1.369 . S
C417 C419 1.412 1_655 S
C417 H421 0.930 . S
C418 C417 1.369 . S
C418 C427 1.429 1_655 S
C419 C417 1.412 1_455 S
C419 C420 1.361 . S
C419 H422 0.937 . S
C420 C419 1.361 . S
C420 C426 1.428 . S
H421 C417 0.930 . S
H422 C419 0.937 . S
S423 N424 1.613 . S
S423 N425 1.610 . S
N424 S423 1.613 . S
N424 C427 1.350 . S
N425 S423 1.610 . S
N425 C426 1.351 . S
C426 C420 1.428 . S
C426 N425 1.351 . S
C426 C427 1.434 . S
C427 C418 1.429 1_455 S
C427 N424 1.350 . S
C427 C426 1.434 . S
C428 C429 1.369 . S
C428 C430 1.419 . S
C428 H432 0.930 . S
C429 C428 1.369 . S
C429 C438 1.429 . S
C430 C428 1.419 . S
C430 C431 1.363 . S
C430 H433 0.929 . S
C431 C430 1.363 . S
C431 C437 1.428 . S
H432 C428 0.930 . S
H433 C430 0.929 . S
S434 N435 1.613 . S
S434 N436 1.610 . S
N435 S434 1.613 . S
N435 C438 1.350 . S
N436 S434 1.610 . S
N436 C437 1.351 . S
C437 C431 1.428 . S
C437 N436 1.351 . S
C437 C438 1.434 . S
C438 C429 1.429 . S
C438 N435 1.350 . S
C438 C437 1.434 . S
C439 C440 1.369 . S
C439 C441 1.419 . S
C439 H443 0.930 . S
C440 C439 1.369 . S
C440 C449 1.429 1_565 S
C441 C439 1.419 . S
C441 C442 1.363 1_565 S
C441 H444 0.929 . S
C442 C441 1.363 1_545 S
C442 C448 1.428 . S
H443 C439 0.930 . S
H444 C441 0.929 . S
S445 N446 1.613 . S
S445 N447 1.610 . S
N446 S445 1.613 . S
N446 C449 1.350 . S
N447 S445 1.610 . S
N447 C448 1.351 . S
C448 C442 1.428 . S
C448 N447 1.351 . S
C448 C449 1.434 . S
C449 C440 1.429 1_545 S
C449 N446 1.350 . S
C449 C448 1.434 . S
C450 C451 1.369 . S
C450 C452 1.419 . S
C450 H454 0.930 . S
C451 C450 1.369 . S
C451 C460 1.429 1_554 S
C452 C450 1.419 . S
C452 C453 1.363 1_554 S
C452 H455 0.929 . S
C453 C452 1.363 1_556 S
C453 C459 1.428 . S
H454 C450 0.930 . S
H455 C452 0.929 . S
S456 N457 1.613 . S
S456 N458 1.610 . S
N457 S456 1.613 . S
N457 C460 1.350 . S
N458 S456 1.610 . S
N458 C459 1.351 . S
C459 C453 1.428 . S
C459 N458 1.351 . S
C459 C460 1.434 . S
C460 C451 1.429 1_556 S
C460 N457 1.350 . S
C460 C459 1.434 . S
C461 C462 1.369 1_554 S
C461 C463 1.419 1_545 S
C461 H465 0.930 . S
C462 C461 1.369 1_556 S
C462 C471 1.429 . S
C463 C461 1.419 1_565 S
C463 C464 1.363 . S
C463 H466 0.929 . S
C464 C463 1.363 . S
C464 C470 1.428 1_554 S
H465 C461 0.930 . S
H466 C463 0.929 . S
S467 N468 1.613 1_565 S
S467 N469 1.610 . S
N468 S467 1.613 1_545 S
N468 C471 1.350 . S
N469 S467 1.610 . S
N469 C470 1.351 . S
C470 C464 1.428 1_556 S
C470 N469 1.351 . S
C470 C471 1.434 1_565 S
C471 C462 1.429 . S
C471 N468 1.350 . S
C471 C470 1.434 1_545 S
C472 C473 1.369 1_554 S
C472 C474 1.419 1_655 S
C472 H476 0.930 . S
C473 C472 1.369 1_556 S
C473 C482 1.429 . S
C474 C472 1.419 1_455 S
C474 C475 1.363 . S
C474 H477 0.929 . S
C475 C474 1.363 . S
C475 C481 1.428 1_554 S
H476 C472 0.930 . S
H477 C474 0.929 . S
S478 N479 1.613 1_455 S
S478 N480 1.610 . S
N479 S478 1.613 1_655 S
N479 C482 1.350 . S
N480 S478 1.610 . S
N480 C481 1.351 . S
C481 C475 1.428 1_556 S
C481 N480 1.351 . S
C481 C482 1.434 1_455 S
C482 C473 1.429 . S
C482 N479 1.350 . S
C482 C481 1.434 1_655 S
C483 C484 1.369 . S
C483 C485 1.419 . S
C483 H487 0.930 . S
C484 C483 1.369 . S
C484 C493 1.429 1_556 S
C485 C483 1.419 . S
C485 C486 1.363 1_556 S
C485 H488 0.929 . S
C486 C485 1.363 1_554 S
C486 C492 1.428 . S
H487 C483 0.930 . S
H488 C485 0.929 . S
S489 N490 1.613 . S
S489 N491 1.610 . S
N490 S489 1.613 . S
N490 C493 1.350 . S
N491 S489 1.610 . S
N491 C492 1.351 . S
C492 C486 1.428 . S
C492 N491 1.351 . S
C492 C493 1.434 . S
C493 C484 1.429 1_554 S
C493 N490 1.350 . S
C493 C492 1.434 . S
C494 C495 1.369 1_556 S
C494 C496 1.419 1_565 S
C494 H498 0.930 . S
C495 C494 1.369 1_554 S
C495 C504 1.429 . S
C496 C494 1.419 1_545 S
C496 C497 1.363 . S
C496 H499 0.929 . S
C497 C496 1.363 . S
C497 C503 1.428 1_556 S
H498 C494 0.930 . S
H499 C496 0.929 . S
S500 N501 1.613 1_545 S
S500 N502 1.610 . S
N501 S500 1.613 1_565 S
N501 C504 1.350 . S
N502 S500 1.610 . S
N502 C503 1.351 . S
C503 C497 1.428 1_554 S
C503 N502 1.351 . S
C503 C504 1.434 1_545 S
C504 C495 1.429 . S
C504 N501 1.350 . S
C504 C503 1.434 1_565 S
C505 C506 1.369 1_554 S
C505 C507 1.419 1_655 S
C505 H509 0.930 . S
C506 C505 1.369 1_556 S
C506 C515 1.429 . S
C507 C505 1.419 1_455 S
C507 C508 1.363 . S
C507 H510 0.929 . S
C508 C507 1.363 . S
C508 C514 1.428 1_554 S
H509 C505 0.930 . S
H510 C507 0.929 . S
S511 N512 1.613 1_455 S
S511 N513 1.610 . S
N512 S511 1.613 1_655 S
N512 C515 1.350 . S
N513 S511 1.610 . S
N513 C514 1.351 . S
C514 C508 1.428 1_556 S
C514 N513 1.351 . S
C514 C515 1.434 1_455 S
C515 C506 1.429 . S
C515 N512 1.350 . S
C515 C514 1.434 1_655 S
C516 C517 1.369 . S
C516 C518 1.419 . S
C516 H520 0.930 . S
C517 C516 1.369 . S
C517 C526 1.429 . S
C518 C516 1.419 . S
C518 C519 1.363 . S
C518 H521 0.929 . S
C519 C518 1.363 . S
C519 C525 1.428 . S
H520 C516 0.930 . S
H521 C518 0.929 . S
S522 N523 1.613 . S
S522 N524 1.610 . S
N523 S522 1.613 . S
N523 C526 1.350 . S
N524 S522 1.610 . S
N524 C525 1.351 . S
C525 C519 1.428 . S
C525 N524 1.351 . S
C525 C526 1.434 . S
C526 C517 1.429 . S
C526 N523 1.350 . S
C526 C525 1.434 . S
C527 C528 1.369 . S
C527 C529 1.419 . S
C527 H531 0.930 . S
C528 C527 1.369 . S
C528 C537 1.429 . S
C529 C527 1.419 . S
C529 C530 1.363 . S
C529 H532 0.929 . S
C530 C529 1.363 . S
C530 C536 1.428 . S
H531 C527 0.930 . S
H532 C529 0.929 . S
S533 N534 1.613 . S
S533 N535 1.610 . S
N534 S533 1.613 . S
N534 C537 1.350 . S
N535 S533 1.610 . S
N535 C536 1.351 . S
C536 C530 1.428 . S
C536 N535 1.351 . S
C536 C537 1.434 . S
C537 C528 1.429 . S
C537 N534 1.350 . S
C537 C536 1.434 . S
C538 C539 1.369 . S
C538 C540 1.419 . S
C538 H542 0.930 . S
C539 C538 1.369 . S
C539 C548 1.429 . S
C540 C538 1.419 . S
C540 C541 1.363 . S
C540 H543 0.929 . S
C541 C540 1.363 . S
C541 C547 1.428 . S
H542 C538 0.930 . S
H543 C540 0.929 . S
S544 N545 1.613 . S
S544 N546 1.610 . S
N545 S544 1.613 . S
N545 C548 1.350 . S
N546 S544 1.610 . S
N546 C547 1.351 . S
C547 C541 1.428 . S
C547 N546 1.351 . S
C547 C548 1.434 . S
C548 C539 1.429 . S
C548 N545 1.350 . S
C548 C547 1.434 . S
C549 C550 1.369 . S
C549 C551 1.419 . S
C549 H553 0.930 . S
C550 C549 1.369 . S
C550 C559 1.429 . S
C551 C549 1.419 . S
C551 C552 1.363 . S
C551 H554 0.929 . S
C552 C551 1.363 . S
C552 C558 1.428 . S
H553 C549 0.930 . S
H554 C551 0.929 . S
S555 N556 1.613 . S
S555 N557 1.610 . S
N556 S555 1.613 . S
N556 C559 1.350 . S
N557 S555 1.610 . S
N557 C558 1.351 . S
C558 C552 1.428 . S
C558 N557 1.351 . S
C558 C559 1.434 . S
C559 C550 1.429 . S
C559 N556 1.350 . S
C559 C558 1.434 . S
C560 C561 1.369 . S
C560 C562 1.419 . S
C560 H564 0.930 . S
C561 C560 1.369 . S
C561 C570 1.429 . S
C562 C560 1.419 . S
C562 C563 1.363 . S
C562 H565 0.929 . S
C563 C562 1.363 . S
C563 C569 1.428 . S
H564 C560 0.930 . S
H565 C562 0.929 . S
S566 N567 1.613 . S
S566 N568 1.610 . S
N567 S566 1.613 . S
N567 C570 1.350 . S
N568 S566 1.610 . S
N568 C569 1.351 . S
C569 C563 1.428 . S
C569 N568 1.351 . S
C569 C570 1.434 . S
C570 C561 1.429 . S
C570 N567 1.350 . S
C570 C569 1.434 . S
C571 C572 1.369 . S
C571 C573 1.419 . S
C571 H575 0.930 . S
C572 C571 1.369 . S
C572 C581 1.429 . S
C573 C571 1.419 . S
C573 C574 1.363 . S
C573 H576 0.929 . S
C574 C573 1.363 . S
C574 C580 1.428 . S
H575 C571 0.930 . S
H576 C573 0.929 . S
S577 N578 1.613 . S
S577 N579 1.610 . S
N578 S577 1.613 . S
N578 C581 1.350 . S
N579 S577 1.610 . S
N579 C580 1.351 . S
C580 C574 1.428 . S
C580 N579 1.351 . S
C580 C581 1.434 . S
C581 C572 1.429 . S
C581 N578 1.350 . S
C581 C580 1.434 . S
C582 C583 1.369 . S
C582 C584 1.419 . S
C582 H586 0.930 . S
C583 C582 1.369 . S
C583 C592 1.429 . S
C584 C582 1.419 . S
C584 C585 1.363 . S
C584 H587 0.929 . S
C585 C584 1.363 . S
C585 C591 1.428 . S
H586 C582 0.930 . S
H587 C584 0.929 . S
S588 N589 1.613 . S
S588 N590 1.610 . S
N589 S588 1.613 . S
N589 C592 1.350 . S
N590 S588 1.610 . S
N590 C591 1.351 . S
C591 C585 1.428 . S
C591 N590 1.351 . S
C591 C592 1.434 . S
C592 C583 1.429 . S
C592 N589 1.350 . S
C592 C591 1.434 . S
C593 C594 1.369 . S
C593 C595 1.419 . S
C593 H597 0.930 . S
C594 C593 1.369 . S
C594 C603 1.429 . S
C595 C593 1.419 . S
C595 C596 1.363 . S
C595 H598 0.929 . S
C596 C595 1.363 . S
C596 C602 1.428 . S
H597 C593 0.930 . S
H598 C595 0.929 . S
S599 N600 1.613 . S
S599 N601 1.610 . S
N600 S599 1.613 . S
N600 C603 1.350 . S
N601 S599 1.610 . S
N601 C602 1.351 . S
C602 C596 1.428 . S
C602 N601 1.351 . S
C602 C603 1.434 . S
C603 C594 1.429 . S
C603 N600 1.350 . S
C603 C602 1.434 . S
C604 C605 1.369 . S
C604 C606 1.419 . S
C604 H608 0.930 . S
C605 C604 1.369 . S
C605 C614 1.429 . S
C606 C604 1.419 . S
C606 C607 1.363 . S
C606 H609 0.929 . S
C607 C606 1.363 . S
C607 C613 1.428 . S
H608 C604 0.930 . S
H609 C606 0.929 . S
S610 N611 1.613 . S
S610 N612 1.610 . S
N611 S610 1.613 . S
N611 C614 1.350 . S
N612 S610 1.610 . S
N612 C613 1.351 . S
C613 C607 1.428 . S
C613 N612 1.351 . S
C613 C614 1.434 . S
C614 C605 1.429 . S
C614 N611 1.350 . S
C614 C613 1.434 . S
C615 C616 1.369 . S
C615 C617 1.419 . S
C615 H619 0.930 . S
C616 C615 1.369 . S
C616 C625 1.429 . S
C617 C615 1.419 . S
C617 C618 1.363 . S
C617 H620 0.929 . S
C618 C617 1.363 . S
C618 C624 1.428 . S
H619 C615 0.930 . S
H620 C617 0.929 . S
S621 N622 1.613 . S
S621 N623 1.610 . S
N622 S621 1.613 . S
N622 C625 1.350 . S
N623 S621 1.610 . S
N623 C624 1.351 . S
C624 C618 1.428 . S
C624 N623 1.351 . S
C624 C625 1.434 . S
C625 C616 1.429 . S
C625 N622 1.350 . S
C625 C624 1.434 . S
C626 C627 1.369 . S
C626 C628 1.419 . S
C626 H630 0.930 . S
C627 C626 1.369 . S
C627 C636 1.429 . S
C628 C626 1.419 . S
C628 C629 1.363 . S
C628 H631 0.929 . S
C629 C628 1.363 . S
C629 C635 1.428 . S
H630 C626 0.930 . S
H631 C628 0.929 . S
S632 N633 1.613 . S
S632 N634 1.610 . S
N633 S632 1.613 . S
N633 C636 1.350 . S
N634 S632 1.610 . S
N634 C635 1.351 . S
C635 C629 1.428 . S
C635 N634 1.351 . S
C635 C636 1.434 . S
C636 C627 1.429 . S
C636 N633 1.350 . S
C636 C635 1.434 . S
C637 C638 1.369 . S
C637 C639 1.419 . S
C637 H641 0.930 . S
C638 C637 1.369 . S
C638 C647 1.429 . S
C639 C637 1.419 . S
C639 C640 1.363 . S
C639 H642 0.929 . S
C640 C639 1.363 . S
C640 C646 1.428 . S
H641 C637 0.930 . S
H642 C639 0.929 . S
S643 N644 1.613 . S
S643 N645 1.610 . S
N644 S643 1.613 . S
N644 C647 1.350 . S
N645 S643 1.610 . S
N645 C646 1.351 . S
C646 C640 1.428 . S
C646 N645 1.351 . S
C646 C647 1.434 . S
C647 C638 1.429 . S
C647 N644 1.350 . S
C647 C646 1.434 . S
C253 C241 1.762 . S
C255 C3 1.762 . S
C264 C213 1.762 . S
C266 C17 1.762 . S
C275 C227 1.762 . S
C277 C31 1.762 . S
C286 C101 1.762 . S
C288 C45 1.762 . S
C297 C115 1.762 . S
C299 C59 1.762 . S
C308 C73 1.762 . S
C310 C87 1.762 . S
C319 C129 1.762 . S
C321 C185 1.762 . S
C330 C143 1.762 . S
C332 C199 1.762 . S
C341 C157 1.762 . S
C343 C171 1.762 . S
C352 C7 0.708 . S
C354 C245 0.708 . S
C363 C217 0.705 . S
C365 C21 0.705 . S
C374 C35 0.712 . S
C376 C231 0.711 . S
C385 C105 0.713 . S
C387 C49 0.712 . S
C396 C63 0.713 . S
C398 C119 0.712 . S
C407 C77 0.703 . S
C409 C91 0.704 . S
C418 C133 0.704 . S
C420 C189 0.705 . S
C429 C203 0.705 . S
C431 C147 0.706 . S
C440 C175 0.710 . S
C442 C161 0.710 . S
C451 C9 1.704 . S
C453 C51 1.705 . S
C462 C65 1.703 . S
C464 C23 1.702 . S
C473 C79 1.704 . S
C475 C37 1.702 . S
C484 C78 1.681 . S
C486 C22 1.684 . S
C495 C36 1.683 . S
C497 C50 1.681 . S
C506 C64 1.685 . S
C508 C8 1.682 . S
C517 C93 1.702 . S
C519 C135 1.705 . S
C528 C149 1.702 . S
C530 C107 1.705 . S
C539 C163 1.702 . S
C541 C121 1.705 . S
C550 C162 1.681 . S
C552 C106 1.683 . S
C561 C120 1.681 . S
C563 C134 1.683 . S
C572 C148 1.681 . S
C574 C92 1.683 . S
C583 C219 1.705 . S
C585 C177 1.702 . S
C594 C233 1.706 . S
C596 C191 1.703 . S
C605 C205 1.702 . S
C607 C247 1.705 . S
C616 C246 1.683 . S
C618 C190 1.684 . S
C627 C204 1.684 . S
C629 C218 1.682 . S
C638 C232 1.684 . S
C640 C176 1.684 . S
