# Generated by pormake.
# Topology whz, (6)-cn, num edge types: 1
# Building blocks:
#     Node 0, Type 0, BuildingBlock: IZENUY_clean_sbu_0, # of connection points: 6
#     Node 1, Type 0, BuildingBlock: IZENUY_clean_sbu_0, # of connection points: 6
#     Node 2, Type 0, BuildingBlock: IZENUY_clean_sbu_0, # of connection points: 6
#     Node 3, Type 0, BuildingBlock: IZENUY_clean_sbu_0, # of connection points: 6
#     Node 4, Type 0, BuildingBlock: IZENUY_clean_sbu_0, # of connection points: 6
#     Node 5, Type 0, BuildingBlock: IZENUY_clean_sbu_0, # of connection points: 6
#     Node 6, Type 0, BuildingBlock: IZENUY_clean_sbu_0, # of connection points: 6
#     Node 7, Type 0, BuildingBlock: IZENUY_clean_sbu_0, # of connection points: 6
#     Node 8, Type 0, BuildingBlock: IZENUY_clean_sbu_0, # of connection points: 6
#     Node 9, Type 0, BuildingBlock: IZENUY_clean_sbu_0, # of connection points: 6
#     Node 10, Type 0, BuildingBlock: IZENUY_clean_sbu_0, # of connection points: 6
#     Node 11, Type 0, BuildingBlock: IZENUY_clean_sbu_0, # of connection points: 6
#     Node 12, Type 0, BuildingBlock: IZENUY_clean_sbu_0, # of connection points: 6
#     Node 13, Type 0, BuildingBlock: IZENUY_clean_sbu_0, # of connection points: 6
#     Node 14, Type 0, BuildingBlock: IZENUY_clean_sbu_0, # of connection points: 6
#     Node 15, Type 0, BuildingBlock: IZENUY_clean_sbu_0, # of connection points: 6
#     Edge 16, Type (0, 0), BuildingBlock: OJICUG_clean_linker_0, # of connection points: 2
#     Edge 17, Type (0, 0), BuildingBlock: OJICUG_clean_linker_0, # of connection points: 2
#     Edge 18, Type (0, 0), BuildingBlock: OJICUG_clean_linker_0, # of connection points: 2
#     Edge 19, Type (0, 0), BuildingBlock: OJICUG_clean_linker_0, # of connection points: 2
#     Edge 20, Type (0, 0), BuildingBlock: OJICUG_clean_linker_0, # of connection points: 2
#     Edge 21, Type (0, 0), BuildingBlock: OJICUG_clean_linker_0, # of connection points: 2
#     Edge 22, Type (0, 0), BuildingBlock: OJICUG_clean_linker_0, # of connection points: 2
#     Edge 23, Type (0, 0), BuildingBlock: OJICUG_clean_linker_0, # of connection points: 2
#     Edge 24, Type (0, 0), BuildingBlock: OJICUG_clean_linker_0, # of connection points: 2
#     Edge 25, Type (0, 0), BuildingBlock: OJICUG_clean_linker_0, # of connection points: 2
#     Edge 26, Type (0, 0), BuildingBlock: OJICUG_clean_linker_0, # of connection points: 2
#     Edge 27, Type (0, 0), BuildingBlock: OJICUG_clean_linker_0, # of connection points: 2
#     Edge 28, Type (0, 0), BuildingBlock: OJICUG_clean_linker_0, # of connection points: 2
#     Edge 29, Type (0, 0), BuildingBlock: OJICUG_clean_linker_0, # of connection points: 2
#     Edge 30, Type (0, 0), BuildingBlock: OJICUG_clean_linker_0, # of connection points: 2
#     Edge 31, Type (0, 0), BuildingBlock: OJICUG_clean_linker_0, # of connection points: 2
#     Edge 32, Type (0, 0), BuildingBlock: OJICUG_clean_linker_0, # of connection points: 2
#     Edge 33, Type (0, 0), BuildingBlock: OJICUG_clean_linker_0, # of connection points: 2
#     Edge 34, Type (0, 0), BuildingBlock: OJICUG_clean_linker_0, # of connection points: 2
#     Edge 35, Type (0, 0), BuildingBlock: OJICUG_clean_linker_0, # of connection points: 2
#     Edge 36, Type (0, 0), BuildingBlock: OJICUG_clean_linker_0, # of connection points: 2
#     Edge 37, Type (0, 0), BuildingBlock: OJICUG_clean_linker_0, # of connection points: 2
#     Edge 38, Type (0, 0), BuildingBlock: OJICUG_clean_linker_0, # of connection points: 2
#     Edge 39, Type (0, 0), BuildingBlock: OJICUG_clean_linker_0, # of connection points: 2
#     Edge 40, Type (0, 0), BuildingBlock: OJICUG_clean_linker_0, # of connection points: 2
#     Edge 41, Type (0, 0), BuildingBlock: OJICUG_clean_linker_0, # of connection points: 2
#     Edge 42, Type (0, 0), BuildingBlock: OJICUG_clean_linker_0, # of connection points: 2
#     Edge 43, Type (0, 0), BuildingBlock: OJICUG_clean_linker_0, # of connection points: 2
#     Edge 44, Type (0, 0), BuildingBlock: OJICUG_clean_linker_0, # of connection points: 2
#     Edge 45, Type (0, 0), BuildingBlock: OJICUG_clean_linker_0, # of connection points: 2
#     Edge 46, Type (0, 0), BuildingBlock: OJICUG_clean_linker_0, # of connection points: 2
#     Edge 47, Type (0, 0), BuildingBlock: OJICUG_clean_linker_0, # of connection points: 2
#     Edge 48, Type (0, 0), BuildingBlock: OJICUG_clean_linker_0, # of connection points: 2
#     Edge 49, Type (0, 0), BuildingBlock: OJICUG_clean_linker_0, # of connection points: 2
#     Edge 50, Type (0, 0), BuildingBlock: OJICUG_clean_linker_0, # of connection points: 2
#     Edge 51, Type (0, 0), BuildingBlock: OJICUG_clean_linker_0, # of connection points: 2
#     Edge 52, Type (0, 0), BuildingBlock: OJICUG_clean_linker_0, # of connection points: 2
#     Edge 53, Type (0, 0), BuildingBlock: OJICUG_clean_linker_0, # of connection points: 2
#     Edge 54, Type (0, 0), BuildingBlock: OJICUG_clean_linker_0, # of connection points: 2
#     Edge 55, Type (0, 0), BuildingBlock: OJICUG_clean_linker_0, # of connection points: 2
#     Edge 56, Type (0, 0), BuildingBlock: OJICUG_clean_linker_0, # of connection points: 2
#     Edge 57, Type (0, 0), BuildingBlock: OJICUG_clean_linker_0, # of connection points: 2
#     Edge 58, Type (0, 0), BuildingBlock: OJICUG_clean_linker_0, # of connection points: 2
#     Edge 59, Type (0, 0), BuildingBlock: OJICUG_clean_linker_0, # of connection points: 2
#     Edge 60, Type (0, 0), BuildingBlock: OJICUG_clean_linker_0, # of connection points: 2
#     Edge 61, Type (0, 0), BuildingBlock: OJICUG_clean_linker_0, # of connection points: 2
#     Edge 62, Type (0, 0), BuildingBlock: OJICUG_clean_linker_0, # of connection points: 2
#     Edge 63, Type (0, 0), BuildingBlock: OJICUG_clean_linker_0, # of connection points: 2
# Relax obj value: 0.408
# Max RMSD: 0.253
# Mean RMSD: 0.253
data_MOF--net-whz--node1-IZENUY_clean_sbu_0--edge1-OJICUG_clean_linker_0
_symmetry_space_group_name_H-M    P1
_symmetry_Int_Tables_number       1
_symmetry_cell_setting            triclinic
loop_
_symmetry_equiv_pos_as_xyz
'x, y, z'
_cell_length_a     25.248429
_cell_length_b     25.250295
_cell_length_c     37.013146
_cell_angle_alpha  89.994827
_cell_angle_beta   90.002909
_cell_angle_gamma 89.998961
loop_
_atom_site_label
_atom_site_type_symbol
_atom_site_fract_x
_atom_site_fract_y
_atom_site_fract_z
_atom_type_partial_charge
Fe0 Fe 0.36343 0.22793 0.16257 0.0
Fe1 Fe 0.25058 0.21313 0.13641 0.0
O2 O 0.3172 0.19268 0.13592 0.0
Fe3 Fe 0.338 0.13695 0.11041 0.0
O4 O 0.3629 0.10399 0.15131 0.0
O5 O 0.40777 0.17127 0.171 0.0
O6 O 0.32961 0.20976 0.20333 0.0
C7 C 0.28317 0.22495 0.20962 0.0
C8 C 0.41707 0.21723 0.09956 0.0
O9 O 0.2523 0.2369 0.18373 0.0
C10 C 0.26461 0.17861 0.06277 0.0
O11 O 0.32858 0.29189 0.16001 0.0
O12 O 0.26811 0.27793 0.11881 0.0
O13 O 0.40351 0.16822 0.09857 0.0
O14 O 0.39795 0.24776 0.12291 0.0
C15 C 0.24079 0.10542 0.14253 0.0
O16 O 0.23605 0.19202 0.08953 0.0
O17 O 0.31207 0.16374 0.06777 0.0
C18 C 0.29572 0.30975 0.13722 0.0
O19 O 0.23018 0.15073 0.1546 0.0
O20 O 0.27624 0.09866 0.11847 0.0
C21 C 0.39379 0.12347 0.17452 0.0
Fe22 Fe 0.55048 0.61334 0.41256 0.0
Fe23 Fe 0.5653 0.50051 0.38641 0.0
O24 O 0.58574 0.56712 0.38591 0.0
Fe25 Fe 0.64148 0.58792 0.36041 0.0
O26 O 0.67443 0.61282 0.40131 0.0
O27 O 0.60713 0.65769 0.42098 0.0
O28 O 0.56864 0.57953 0.45332 0.0
C29 C 0.55346 0.53309 0.45961 0.0
C30 C 0.56119 0.66699 0.34954 0.0
O31 O 0.54152 0.50222 0.43373 0.0
C32 C 0.59983 0.51454 0.31276 0.0
O33 O 0.48652 0.57848 0.40999 0.0
O34 O 0.5005 0.51802 0.3688 0.0
O35 O 0.6102 0.65343 0.34856 0.0
O36 O 0.53065 0.64785 0.37289 0.0
C37 C 0.67301 0.49072 0.39253 0.0
O38 O 0.58643 0.48598 0.33953 0.0
O39 O 0.6147 0.562 0.31777 0.0
C40 C 0.46867 0.54563 0.3872 0.0
O41 O 0.62771 0.48011 0.40461 0.0
O42 O 0.67978 0.52617 0.36847 0.0
C43 C 0.65493 0.64371 0.42451 0.0
Fe44 Fe 0.27788 0.8153 0.63642 0.0
Fe45 Fe 0.19045 0.89147 0.61041 0.0
O46 O 0.21126 0.83573 0.63592 0.0
Fe47 Fe 0.16504 0.80048 0.66258 0.0
O48 O 0.19886 0.81865 0.70334 0.0
O49 O 0.27617 0.79152 0.68374 0.0
O50 O 0.29827 0.8777 0.65461 0.0
C51 C 0.28765 0.923 0.64253 0.0
C52 C 0.23275 0.71867 0.63723 0.0
O53 O 0.25221 0.92976 0.61847 0.0
C54 C 0.11138 0.81118 0.59956 0.0
O55 O 0.2924 0.83642 0.58954 0.0
O56 O 0.21638 0.86468 0.56777 0.0
O57 O 0.1999 0.73652 0.66001 0.0
O58 O 0.26036 0.7505 0.61882 0.0
C59 C 0.13467 0.90493 0.67452 0.0
O60 O 0.12494 0.86019 0.59857 0.0
O61 O 0.13051 0.78065 0.62292 0.0
C62 C 0.26383 0.84981 0.56277 0.0
O63 O 0.16555 0.92442 0.6513 0.0
O64 O 0.12069 0.85713 0.671 0.0
C65 C 0.2453 0.80346 0.70962 0.0
Fe66 Fe 0.97799 0.41502 0.91257 0.0
Fe67 Fe 0.96317 0.52785 0.88641 0.0
O68 O 0.94273 0.46124 0.88592 0.0
Fe69 Fe 0.88699 0.44044 0.86041 0.0
O70 O 0.85404 0.41554 0.9013 0.0
O71 O 0.92133 0.37067 0.921 0.0
O72 O 0.95983 0.44883 0.95333 0.0
C73 C 0.97501 0.49526 0.95961 0.0
C74 C 0.96728 0.36138 0.84955 0.0
O75 O 0.98696 0.52614 0.93373 0.0
C76 C 0.92864 0.51383 0.81276 0.0
O77 O 0.04195 0.44987 0.91 0.0
O78 O 0.02797 0.51033 0.8688 0.0
O79 O 0.91826 0.37493 0.84857 0.0
O80 O 0.99782 0.3805 0.87291 0.0
C81 C 0.85546 0.53764 0.89252 0.0
O82 O 0.94205 0.54239 0.83953 0.0
O83 O 0.91377 0.46637 0.81777 0.0
C84 C 0.0598 0.48272 0.88721 0.0
O85 O 0.90077 0.54825 0.9046 0.0
O86 O 0.84869 0.5022 0.86847 0.0
C87 C 0.87353 0.38466 0.92451 0.0
Fe88 Fe 0.66508 0.80046 0.89973 0.0
Fe89 Fe 0.77792 0.81528 0.92588 0.0
O90 O 0.7113 0.83571 0.92638 0.0
Fe91 Fe 0.6905 0.89144 0.95189 0.0
O92 O 0.66559 0.9244 0.91099 0.0
O93 O 0.62072 0.85711 0.89131 0.0
O94 O 0.69889 0.81863 0.85897 0.0
C95 C 0.74532 0.80345 0.85268 0.0
C96 C 0.61144 0.81115 0.96275 0.0
O97 O 0.77621 0.7915 0.87856 0.0
C98 C 0.7639 0.84979 0.99953 0.0
O99 O 0.69994 0.7365 0.90229 0.0
O100 O 0.76041 0.75047 0.94348 0.0
O101 O 0.62499 0.86016 0.96373 0.0
O102 O 0.63057 0.78062 0.93939 0.0
C103 C 0.7877 0.92298 0.91977 0.0
O104 O 0.79246 0.83639 0.97276 0.0
O105 O 0.71644 0.86465 0.99452 0.0
C106 C 0.7328 0.71865 0.92508 0.0
O107 O 0.79831 0.87768 0.90769 0.0
O108 O 0.75226 0.92974 0.94382 0.0
C109 C 0.6347 0.90491 0.88779 0.0
Fe110 Fe 0.38695 0.44044 0.70189 0.0
Fe111 Fe 0.47794 0.41502 0.64973 0.0
O112 O 0.44269 0.46124 0.67638 0.0
Fe113 Fe 0.46312 0.52785 0.67588 0.0
O114 O 0.40071 0.54825 0.65768 0.0
O115 O 0.34865 0.50219 0.69382 0.0
O116 O 0.35399 0.41553 0.66099 0.0
C117 C 0.37349 0.38465 0.63779 0.0
C118 C 0.42861 0.51383 0.74952 0.0
O119 O 0.42129 0.37067 0.64132 0.0
C120 C 0.55975 0.48273 0.67508 0.0
O121 O 0.41823 0.37493 0.71374 0.0
O122 O 0.49778 0.38051 0.6894 0.0
O123 O 0.442 0.54239 0.72275 0.0
O124 O 0.41374 0.46637 0.74452 0.0
C125 C 0.47495 0.49526 0.60268 0.0
O126 O 0.54191 0.44988 0.6523 0.0
O127 O 0.52793 0.51034 0.69348 0.0
C128 C 0.46724 0.36138 0.71275 0.0
O129 O 0.45977 0.44883 0.60897 0.0
O130 O 0.4869 0.52614 0.62856 0.0
C131 C 0.35541 0.53764 0.66976 0.0
Fe132 Fe 0.83798 0.13689 0.45189 0.0
Fe133 Fe 0.86339 0.22788 0.39973 0.0
O134 O 0.81717 0.19263 0.42638 0.0
Fe135 Fe 0.75055 0.21305 0.42588 0.0
O136 O 0.73016 0.15065 0.40769 0.0
O137 O 0.77622 0.09859 0.44383 0.0
O138 O 0.86288 0.10394 0.411 0.0
C139 C 0.89377 0.12343 0.38779 0.0
C140 C 0.76458 0.17854 0.49952 0.0
O141 O 0.90775 0.17123 0.39131 0.0
C142 C 0.79567 0.30968 0.42507 0.0
O143 O 0.90349 0.16817 0.46373 0.0
O144 O 0.89791 0.24772 0.43939 0.0
O145 O 0.73602 0.19194 0.47275 0.0
O146 O 0.81204 0.16368 0.49452 0.0
C147 C 0.78314 0.22489 0.35267 0.0
O148 O 0.82853 0.29184 0.40229 0.0
O149 O 0.76806 0.27786 0.44348 0.0
C150 C 0.91704 0.21718 0.46275 0.0
O151 O 0.82958 0.20971 0.35897 0.0
O152 O 0.75226 0.23683 0.37856 0.0
C153 C 0.74078 0.10535 0.41977 0.0
Fe154 Fe 0.06535 0.50053 0.17588 0.0
Fe155 Fe 0.14152 0.58794 0.20189 0.0
O156 O 0.08578 0.56714 0.17638 0.0
Fe157 Fe 0.05053 0.61336 0.14972 0.0
O158 O 0.0687 0.57955 0.10896 0.0
O159 O 0.04157 0.50224 0.12856 0.0
O160 O 0.12776 0.48014 0.15769 0.0
C161 C 0.17307 0.49076 0.16977 0.0
C162 C 0.96872 0.54565 0.17507 0.0
O163 O 0.17982 0.52619 0.19383 0.0
C164 C 0.06122 0.667 0.21274 0.0
O165 O 0.08647 0.48599 0.22276 0.0
O166 O 0.11473 0.56201 0.24452 0.0
O167 O 0.98657 0.57851 0.15229 0.0
O168 O 1.00055 0.51804 0.19348 0.0
C169 C 0.15499 0.64373 0.13778 0.0
O170 O 0.11024 0.65345 0.21373 0.0
O171 O 0.03069 0.64788 0.18938 0.0
C172 C 0.09986 0.51455 0.24953 0.0
O173 O 0.17448 0.61285 0.161 0.0
O174 O 0.10718 0.65772 0.1413 0.0
C175 C 0.05352 0.53312 0.10267 0.0
Fe176 Fe 0.86338 0.72793 0.66256 0.0
Fe177 Fe 0.75054 0.7131 0.63641 0.0
O178 O 0.81716 0.69267 0.63591 0.0
Fe179 Fe 0.83796 0.63694 0.61041 0.0
O180 O 0.86287 0.60399 0.6513 0.0
O181 O 0.90774 0.67128 0.67099 0.0
O182 O 0.82957 0.70976 0.70333 0.0
C183 C 0.78314 0.72494 0.70962 0.0
C184 C 0.91703 0.71723 0.59955 0.0
O185 O 0.75226 0.73688 0.68373 0.0
C186 C 0.76457 0.67859 0.56277 0.0
O187 O 0.82852 0.79188 0.66 0.0
O188 O 0.76805 0.77791 0.6188 0.0
O189 O 0.90348 0.66822 0.59857 0.0
O190 O 0.8979 0.74776 0.6229 0.0
C191 C 0.74076 0.6054 0.64253 0.0
O192 O 0.736 0.69199 0.58953 0.0
O193 O 0.81203 0.66373 0.56777 0.0
C194 C 0.79566 0.80973 0.63721 0.0
O195 O 0.73015 0.6507 0.65461 0.0
O196 O 0.77621 0.59864 0.61847 0.0
C197 C 0.89376 0.62348 0.67451 0.0
Fe198 Fe 0.06535 1.00053 0.88642 0.0
Fe199 Fe 0.14151 0.08795 0.86041 0.0
O200 O 0.08578 0.06715 0.88592 0.0
Fe201 Fe 0.05052 0.11336 0.91257 0.0
O202 O 0.06869 0.07956 0.95333 0.0
O203 O 0.04157 1.00224 0.93374 0.0
O204 O 0.12776 0.98014 0.90462 0.0
C205 C 0.17306 0.99075 0.89253 0.0
C206 C 0.96871 0.04565 0.88722 0.0
O207 O 0.17982 0.0262 0.86848 0.0
C208 C 0.06121 0.16701 0.84955 0.0
O209 O 0.08646 0.986 0.83955 0.0
O210 O 0.11473 0.06202 0.81777 0.0
O211 O 0.98656 0.07851 0.91 0.0
O212 O 1.00054 0.01805 0.86881 0.0
C213 C 0.15497 0.14374 0.92451 0.0
O214 O 0.11023 0.15346 0.84857 0.0
O215 O 0.03068 0.14788 0.8729 0.0
C216 C 0.09986 0.01456 0.81277 0.0
O217 O 0.17447 0.11286 0.90131 0.0
O218 O 0.10717 0.15772 0.92099 0.0
C219 C 0.05351 0.03312 0.95962 0.0
Fe220 Fe 0.66507 0.30047 0.16257 0.0
Fe221 Fe 0.77791 0.31529 0.13641 0.0
O222 O 0.7113 0.33572 0.13592 0.0
Fe223 Fe 0.69049 0.39146 0.11041 0.0
O224 O 0.66559 0.42441 0.1513 0.0
O225 O 0.62072 0.35712 0.17099 0.0
O226 O 0.69889 0.31863 0.20333 0.0
C227 C 0.74532 0.30344 0.20962 0.0
C228 C 0.61143 0.31118 0.09954 0.0
O229 O 0.7762 0.2915 0.18373 0.0
C230 C 0.76388 0.34981 0.06277 0.0
O231 O 0.69993 0.23651 0.16 0.0
O232 O 0.7604 0.25049 0.11881 0.0
O233 O 0.62498 0.36019 0.09856 0.0
O234 O 0.63056 0.28064 0.1229 0.0
C235 C 0.7877 0.42299 0.14253 0.0
O236 O 0.79245 0.33641 0.08954 0.0
O237 O 0.71643 0.36468 0.06777 0.0
C238 C 0.73279 0.21866 0.13722 0.0
O239 O 0.79831 0.37769 0.15461 0.0
O240 O 0.75225 0.42976 0.11847 0.0
C241 C 0.6347 0.40492 0.17451 0.0
Fe242 Fe 0.47794 0.91499 0.41258 0.0
Fe243 Fe 0.46312 0.02783 0.38642 0.0
O244 O 0.44269 0.96122 0.38592 0.0
Fe245 Fe 0.38695 0.94042 0.36041 0.0
O246 O 0.35399 0.91551 0.4013 0.0
O247 O 0.42128 0.87065 0.421 0.0
O248 O 0.45977 0.94881 0.45334 0.0
C249 C 0.47496 0.99524 0.45962 0.0
C250 C 0.46724 0.86135 0.34956 0.0
O251 O 0.4869 0.02611 0.43374 0.0
C252 C 0.42861 1.0138 0.31277 0.0
O253 O 0.5419 0.94984 0.41001 0.0
O254 O 0.52793 1.01031 0.36882 0.0
O255 O 0.41822 0.87491 0.34857 0.0
O256 O 0.49777 0.88048 0.37292 0.0
C257 C 0.35541 0.03761 0.39253 0.0
O258 O 0.44201 0.04237 0.33954 0.0
O259 O 0.41374 0.96635 0.31777 0.0
C260 C 0.55975 0.9827 0.38722 0.0
O261 O 0.40072 0.04822 0.40461 0.0
O262 O 0.34865 1.00217 0.36847 0.0
C263 C 0.37348 0.88463 0.42452 0.0
Fe264 Fe 0.16505 0.30043 0.39973 0.0
Fe265 Fe 0.27788 0.31524 0.42589 0.0
O266 O 0.21127 0.33568 0.42638 0.0
Fe267 Fe 0.19047 0.39142 0.45189 0.0
O268 O 0.16557 0.42437 0.41099 0.0
O269 O 0.1207 0.35709 0.3913 0.0
O270 O 0.19887 0.3186 0.35897 0.0
C271 C 0.2453 0.30341 0.35268 0.0
C272 C 0.1114 0.31114 0.46274 0.0
O273 O 0.27618 0.29146 0.37857 0.0
C274 C 0.26385 0.34976 0.49953 0.0
O275 O 0.1999 0.23647 0.4023 0.0
O276 O 0.26036 0.25044 0.4435 0.0
O277 O 0.12495 0.36015 0.46373 0.0
O278 O 0.13052 0.2806 0.43939 0.0
C279 C 0.28768 0.42294 0.41977 0.0
O280 O 0.29242 0.33635 0.47277 0.0
O281 O 0.21639 0.36463 0.49453 0.0
C282 C 0.23275 0.21862 0.42509 0.0
O283 O 0.29829 0.37764 0.4077 0.0
O284 O 0.25223 0.42971 0.44383 0.0
C285 C 0.13468 0.40489 0.38778 0.0
Fe286 Fe 0.96316 0.02786 0.17589 0.0
Fe287 Fe 0.88699 0.94044 0.20189 0.0
O288 O 0.94273 0.96124 0.17638 0.0
Fe289 Fe 0.97799 0.91503 0.14974 0.0
O290 O 0.95982 0.94884 0.10897 0.0
O291 O 0.98695 0.02615 0.12857 0.0
O292 O 0.90076 0.04825 0.15769 0.0
C293 C 0.85545 0.03764 0.16977 0.0
C294 C 0.0598 0.98274 0.17509 0.0
O295 O 0.84869 1.00219 0.19382 0.0
C296 C 0.96728 0.86137 0.21275 0.0
O297 O 0.94204 0.04238 0.22276 0.0
O298 O 0.91377 0.96636 0.24453 0.0
O299 O 0.04195 0.94988 0.15231 0.0
O300 O 0.02797 1.01034 0.1935 0.0
C301 C 0.87354 0.88465 0.13778 0.0
O302 O 0.91827 0.87492 0.21373 0.0
O303 O 0.99782 0.88051 0.1894 0.0
C304 C 0.92863 1.01382 0.24953 0.0
O305 O 0.85404 0.91554 0.16099 0.0
O306 O 0.92134 0.87067 0.14131 0.0
C307 C 0.975 0.99527 0.10269 0.0
Fe308 Fe 0.33801 0.63692 0.95189 0.0
Fe309 Fe 0.36342 0.72792 0.89972 0.0
O310 O 0.3172 0.69266 0.92638 0.0
Fe311 Fe 0.25059 0.7131 0.92588 0.0
O312 O 0.23019 0.6507 0.90769 0.0
O313 O 0.27625 0.59863 0.94383 0.0
O314 O 0.36291 0.60397 0.91099 0.0
C315 C 0.39379 0.62346 0.88778 0.0
C316 C 0.26463 0.67858 0.99953 0.0
O317 O 0.40777 0.67126 0.8913 0.0
C318 C 0.29571 0.80972 0.92508 0.0
O319 O 0.40353 0.6682 0.96373 0.0
O320 O 0.39795 0.74774 0.93938 0.0
O321 O 0.23606 0.69198 0.97276 0.0
O322 O 0.31209 0.66371 0.99453 0.0
C323 C 0.28316 0.72493 0.85268 0.0
O324 O 0.32857 0.79187 0.90229 0.0
O325 O 0.26811 0.7779 0.94349 0.0
C326 C 0.41708 0.71721 0.96274 0.0
O327 O 0.3296 0.70975 0.85897 0.0
O328 O 0.25229 0.73688 0.87856 0.0
C329 C 0.24081 0.60539 0.91977 0.0
Fe330 Fe 0.55047 0.11337 0.64973 0.0
Fe331 Fe 0.56528 1.00053 0.67589 0.0
O332 O 0.58573 0.06714 0.67638 0.0
Fe333 Fe 0.64147 0.08794 0.70189 0.0
O334 O 0.67442 0.11284 0.66099 0.0
O335 O 0.60713 0.15771 0.6413 0.0
O336 O 0.56863 0.07955 0.60897 0.0
C337 C 0.55344 0.03312 0.60269 0.0
C338 C 0.56119 0.16701 0.71274 0.0
O339 O 0.54149 1.00225 0.62857 0.0
C340 C 0.59981 0.01456 0.74953 0.0
O341 O 0.48651 0.07852 0.6523 0.0
O342 O 0.50048 0.01806 0.6935 0.0
O343 O 0.6102 0.15345 0.71373 0.0
O344 O 0.53065 0.14789 0.68939 0.0
C345 C 0.67299 0.99074 0.66977 0.0
O346 O 0.58641 0.986 0.72277 0.0
O347 O 0.61469 0.06201 0.74453 0.0
C348 C 0.46866 0.04567 0.67509 0.0
O349 O 0.62768 0.98013 0.6577 0.0
O350 O 0.67976 0.02618 0.69383 0.0
C351 C 0.65493 0.14372 0.63778 0.0
C352 C 0.30428 0.22703 0.27525 0.0
C353 C 0.27134 0.24268 0.24651 0.0
H354 H 0.32265 0.23494 0.33133 0.0
C355 C 0.23116 0.27991 0.25273 0.0
H356 H 0.33577 0.19848 0.27115 0.0
C357 C 0.2242 0.30133 0.28706 0.0
C358 C 0.25713 0.28568 0.31579 0.0
H359 H 0.20583 0.29342 0.23098 0.0
H360 H 0.19271 0.32988 0.29115 0.0
C361 C 0.29732 0.24845 0.30957 0.0
C362 C 0.47705 0.47415 0.53705 0.0
C363 C 0.4927 0.50708 0.56578 0.0
H364 H 0.48496 0.45577 0.48097 0.0
C365 C 0.52994 0.54725 0.55956 0.0
H366 H 0.44849 0.44267 0.54115 0.0
C367 C 0.55137 0.5542 0.52523 0.0
C368 C 0.53572 0.52127 0.49651 0.0
H369 H 0.54345 0.57258 0.58131 0.0
H370 H 0.57992 0.58568 0.52114 0.0
C371 C 0.49848 0.4811 0.50273 0.0
C372 C 0.2242 0.80136 0.77525 0.0
C373 C 0.25713 0.78572 0.74652 0.0
H374 H 0.20583 0.79344 0.83133 0.0
C375 C 0.2973 0.74847 0.75273 0.0
H376 H 0.19272 0.82992 0.77116 0.0
C377 C 0.30426 0.72704 0.78705 0.0
C378 C 0.27133 0.74268 0.81579 0.0
H379 H 0.32263 0.73496 0.73098 0.0
H380 H 0.33574 0.69848 0.79115 0.0
C381 C 0.23115 0.77993 0.80957 0.0
C382 C 0.02999 0.54727 1.00272 0.0
C383 C 0.99276 0.50709 0.99651 0.0
H384 H 0.07997 0.58572 0.04114 0.0
C385 C 0.97712 0.47416 1.02524 0.0
H386 H 0.0435 0.5726 0.98097 0.0
C387 C 0.99854 0.48112 0.05956 0.0
C388 C 0.03578 0.5213 0.06578 0.0
H389 H 0.94857 0.44267 1.02115 0.0
H390 H 0.98504 0.45579 0.08132 0.0
C391 C 0.05142 0.55423 0.03705 0.0
C392 C 0.7242 0.80135 0.78705 0.0
C393 C 0.75714 0.78571 0.81578 0.0
H394 H 0.70581 0.79343 0.73097 0.0
C395 C 0.79732 0.74846 0.80956 0.0
H396 H 0.69272 0.82991 0.79114 0.0
C397 C 0.80426 0.72704 0.77524 0.0
C398 C 0.77132 0.74268 0.74651 0.0
H399 H 0.82265 0.73496 0.83132 0.0
H400 H 0.83574 0.69848 0.77115 0.0
C401 C 0.73114 0.77992 0.75273 0.0
C402 C 0.72421 0.30134 0.27524 0.0
C403 C 0.75714 0.28569 0.24651 0.0
H404 H 0.70583 0.29341 0.33132 0.0
C405 C 0.79731 0.24844 0.25273 0.0
H406 H 0.69273 0.3299 0.27115 0.0
C407 C 0.80425 0.227 0.28705 0.0
C408 C 0.77132 0.24264 0.31578 0.0
H409 H 0.82264 0.23493 0.23097 0.0
H410 H 0.83573 0.19844 0.29114 0.0
C411 C 0.73115 0.2799 0.30956 0.0
C412 C 0.97711 0.97417 0.03706 0.0
C413 C 0.99275 1.0071 0.06579 0.0
H414 H 0.98502 0.95579 0.98098 0.0
C415 C 0.02999 0.04728 0.05957 0.0
H416 H 0.94855 0.94268 0.04116 0.0
C417 C 0.05141 0.05423 1.02525 0.0
C418 C 0.03577 0.0213 0.99652 0.0
H419 H 0.04349 0.07261 0.08133 0.0
H420 H 0.07997 0.08572 1.02115 0.0
C421 C 0.99853 0.98112 1.00274 0.0
C422 C 0.47705 0.97414 0.52525 0.0
C423 C 0.49269 1.00707 0.49652 0.0
H424 H 0.48497 0.95577 0.58133 0.0
C425 C 0.52992 0.04725 0.50274 0.0
H426 H 0.44851 0.94265 0.52116 0.0
C427 C 0.55134 0.05422 0.53706 0.0
C428 C 0.5357 0.02129 0.56579 0.0
H429 H 0.54343 0.07258 0.48098 0.0
H430 H 0.57989 0.08571 0.54115 0.0
C431 C 0.49847 0.9811 0.55957 0.0
C432 C 0.23843 0.14114 0.9634 0.0
C433 C 0.1859 0.1587 0.95797 0.0
H434 H 0.30451 0.13384 0.99987 0.0
C435 C 0.16131 0.18592 0.98668 0.0
H436 H 0.25884 0.11965 0.94225 0.0
C437 C 0.18743 0.1937 1.01991 0.0
C438 C 0.23935 0.1748 1.02579 0.0
H439 H 0.1209 0.19978 0.98399 0.0
H440 H 0.1662 0.21362 0.04139 0.0
C441 C 0.26476 0.14924 0.99665 0.0
C442 C 0.58474 0.43737 0.26991 0.0
C443 C 0.60365 0.48928 0.27579 0.0
H444 H 0.57867 0.37085 0.23399 0.0
C445 C 0.62922 0.51469 0.24665 0.0
H446 H 0.56483 0.41613 0.2914 0.0
C447 C 0.63731 0.48836 0.21339 0.0
C448 C 0.61975 0.43584 0.20797 0.0
H449 H 0.64461 0.55444 0.24987 0.0
H450 H 0.6588 0.50877 0.19224 0.0
C451 C 0.59252 0.41125 0.23668 0.0
C452 C 0.34101 0.8347 0.51992 0.0
C453 C 0.2891 0.85362 0.52579 0.0
H454 H 0.40753 0.82859 0.48401 0.0
C455 C 0.26369 0.87918 0.49665 0.0
H456 H 0.36224 0.81478 0.54141 0.0
C457 C 0.29002 0.88726 0.46339 0.0
C458 C 0.34255 0.86969 0.45797 0.0
H459 H 0.22394 0.89458 0.49987 0.0
H460 H 0.26962 0.90875 0.44224 0.0
C461 C 0.36714 0.84246 0.48669 0.0
C462 C 0.89116 0.54002 0.71339 0.0
C463 C 0.90872 0.59254 0.70797 0.0
H464 H 0.88386 0.47394 0.74987 0.0
C465 C 0.93595 0.61714 0.73668 0.0
H466 H 0.86966 0.51962 0.69224 0.0
C467 C 0.94373 0.59101 0.76991 0.0
C468 C 0.92482 0.53909 0.77579 0.0
H469 H 0.94981 0.65753 0.73399 0.0
H470 H 0.96365 0.61223 0.79139 0.0
C471 C 0.89926 0.51369 0.74665 0.0
C472 C 0.86721 0.84249 0.07561 0.0
C473 C 0.84261 0.8697 0.10433 0.0
H474 H 0.86233 0.8148 1.02089 0.0
C475 C 0.79008 0.88725 0.0989 0.0
H476 H 0.90762 0.82864 0.0783 0.0
C477 C 0.76375 0.87915 0.06564 0.0
C478 C 0.78917 0.85361 0.0365 0.0
H479 H 0.76967 0.90873 0.12005 0.0
H480 H 0.72399 0.89454 0.06242 0.0
C481 C 0.84109 0.83471 0.04238 0.0
C482 C 0.39117 0.54002 0.8489 0.0
C483 C 0.40873 0.59254 0.85432 0.0
H484 H 0.38385 0.47394 0.81243 0.0
C485 C 0.43594 0.61713 0.8256 0.0
H486 H 0.36968 0.51961 0.87006 0.0
C487 C 0.44371 0.59101 0.79237 0.0
C488 C 0.4248 0.53909 0.7865 0.0
H489 H 0.44981 0.65753 0.82829 0.0
H490 H 0.46362 0.61224 0.77088 0.0
C491 C 0.39925 0.51369 0.81565 0.0
C492 C 0.6874 0.19365 0.54237 0.0
C493 C 0.73932 0.17473 0.5365 0.0
H494 H 0.62087 0.19975 0.57829 0.0
C495 C 0.76472 0.14918 0.56565 0.0
H496 H 0.66617 0.21356 0.52088 0.0
C497 C 0.73839 0.1411 0.5989 0.0
C498 C 0.68587 0.15866 0.60432 0.0
H499 H 0.80447 0.13378 0.56243 0.0
H500 H 0.75879 0.11961 0.62006 0.0
C501 C 0.66127 0.18588 0.5756 0.0
C502 C 0.13731 0.48835 0.3489 0.0
C503 C 0.11974 0.43583 0.35432 0.0
H504 H 0.14462 0.55443 0.31243 0.0
C505 C 0.09252 0.41124 0.32561 0.0
H506 H 0.1588 0.50874 0.37006 0.0
C507 C 0.08475 0.43737 0.29238 0.0
C508 C 0.10367 0.48928 0.2865 0.0
H509 H 0.07865 0.37084 0.32829 0.0
H510 H 0.06484 0.41615 0.27089 0.0
C511 C 0.12922 0.51468 0.31565 0.0
C512 C 0.68738 0.69367 0.51991 0.0
C513 C 0.7393 0.67477 0.52579 0.0
H514 H 0.62085 0.69974 0.48399 0.0
C515 C 0.76472 0.64921 0.49665 0.0
H516 H 0.66614 0.71358 0.54139 0.0
C517 C 0.73839 0.64112 0.46339 0.0
C518 C 0.68586 0.65866 0.45797 0.0
H519 H 0.80447 0.63383 0.49987 0.0
H520 H 0.7588 0.61963 0.44225 0.0
C521 C 0.66126 0.68589 0.48668 0.0
C522 C 0.12922 0.01471 0.74665 0.0
C523 C 0.10367 0.9893 0.7758 0.0
H524 H 0.15878 1.00878 0.69224 0.0
C525 C 0.08475 0.93739 0.76992 0.0
H526 H 0.14461 0.05446 0.74987 0.0
C527 C 0.09252 0.91127 0.73669 0.0
C528 C 0.11973 0.93586 0.70797 0.0
H529 H 0.06484 0.91616 0.79141 0.0
H530 H 0.07865 0.87087 0.73401 0.0
C531 C 0.1373 0.98838 0.7134 0.0
C532 C 0.84106 0.33471 1.01992 0.0
C533 C 0.78915 0.35363 1.02579 0.0
H534 H 0.90759 0.32862 0.98401 0.0
C535 C 0.76374 0.37918 0.99665 0.0
H536 H 0.8623 0.3148 0.04141 0.0
C537 C 0.79007 0.38727 0.96339 0.0
C538 C 0.8426 0.36971 0.95797 0.0
H539 H 0.72399 0.39458 0.99986 0.0
H540 H 0.76967 0.40876 0.94224 0.0
C541 C 0.86719 0.34248 0.98669 0.0
C542 C 0.43596 0.11712 0.23669 0.0
C543 C 0.40873 0.09253 0.20797 0.0
H544 H 0.46364 0.11221 0.29141 0.0
C545 C 0.39116 0.04001 0.21339 0.0
H546 H 0.44983 0.15751 0.234 0.0
C547 C 0.39925 1.01367 0.24665 0.0
C548 C 0.4248 0.03907 0.27579 0.0
H549 H 0.36967 0.01962 0.19224 0.0
H550 H 0.38384 0.97393 0.24987 0.0
C551 C 0.44373 0.09098 0.26992 0.0
C552 C 0.36716 0.34246 0.57563 0.0
C553 C 0.34256 0.36969 0.60434 0.0
H554 H 0.36227 0.31476 0.52091 0.0
C555 C 0.29003 0.38724 0.5989 0.0
H556 H 0.40756 0.3286 0.57832 0.0
C557 C 0.2637 0.37914 0.56565 0.0
C558 C 0.28912 0.35358 0.53651 0.0
H559 H 0.26962 0.40874 0.62005 0.0
H560 H 0.22395 0.39454 0.56242 0.0
C561 C 0.34103 0.33467 0.5424 0.0
C562 C 0.89925 1.01366 0.31565 0.0
C563 C 0.92481 0.03908 0.28651 0.0
H564 H 0.86967 0.01958 0.37005 0.0
C565 C 0.94372 0.09099 0.29239 0.0
H566 H 0.88386 0.97392 0.31243 0.0
C567 C 0.93595 0.11711 0.32562 0.0
C568 C 0.90872 0.09251 0.35433 0.0
H569 H 0.96364 0.11222 0.2709 0.0
H570 H 0.94981 0.15751 0.32831 0.0
C571 C 0.89116 0.03999 0.3489 0.0
C572 C 0.16133 0.68591 0.07561 0.0
C573 C 0.18592 0.65868 0.10433 0.0
H574 H 0.16622 0.7136 1.02089 0.0
C575 C 0.23844 0.64112 0.09891 0.0
H576 H 0.12093 0.69978 0.0783 0.0
C577 C 0.26477 0.6492 0.06565 0.0
C578 C 0.23937 0.67476 0.03651 0.0
H579 H 0.25885 0.61962 0.12006 0.0
H580 H 0.30452 0.6338 0.06243 0.0
C581 C 0.18745 0.69369 0.04239 0.0
C582 C 0.58472 0.93738 0.79239 0.0
C583 C 0.60364 0.9893 0.78651 0.0
H584 H 0.57864 0.87086 0.82831 0.0
C585 C 0.62921 0.0147 0.81565 0.0
H586 H 0.5648 0.91616 0.77091 0.0
C587 C 0.6373 0.98836 0.84891 0.0
C588 C 0.61974 0.93584 0.85433 0.0
H589 H 0.6446 0.05444 0.81243 0.0
H590 H 0.6588 1.00876 0.87005 0.0
C591 C 0.5925 0.91126 0.82562 0.0
C592 C 0.46851 0.29464 0.07721 0.0
C593 C 0.46446 0.23897 0.08097 0.0
H594 H 0.51957 0.36252 0.08013 0.0
C595 C 0.51052 0.20861 0.07765 0.0
H596 H 0.43335 0.31915 0.07889 0.0
C597 C 0.55998 0.23378 0.0772 0.0
C598 C 0.56403 0.28945 0.08096 0.0
H599 H 0.50891 0.16589 0.08012 0.0
H600 H 0.59513 0.20925 0.07888 0.0
C601 C 0.51798 0.31981 0.07765 0.0
C602 C 0.48378 0.71845 0.3272 0.0
C603 C 0.53946 0.7144 0.33097 0.0
H604 H 0.41589 0.76951 0.33012 0.0
C605 C 0.56982 0.76045 0.32766 0.0
H606 H 0.45927 0.6833 0.32887 0.0
C607 C 0.54465 0.80991 0.32722 0.0
C608 C 0.48898 0.81396 0.33098 0.0
H609 H 0.61254 0.75883 0.33014 0.0
H610 H 0.56918 0.84505 0.32891 0.0
C611 C 0.45862 0.76792 0.32765 0.0
C612 C 0.96847 0.79463 0.5772 0.0
C613 C 0.96442 0.73896 0.58097 0.0
H614 H 0.01953 0.86252 0.58012 0.0
C615 C 1.01048 0.70861 0.57766 0.0
H616 H 0.93331 0.81914 0.57887 0.0
C617 C 0.05995 0.73378 0.57721 0.0
C618 C 0.06399 0.78945 0.58098 0.0
H619 H 1.00887 0.66589 0.58013 0.0
H620 H 0.09509 0.70925 0.5789 0.0
C621 C 0.01794 0.8198 0.57765 0.0
C622 C 0.95864 0.26794 0.82766 0.0
C623 C 0.98902 0.31398 0.83098 0.0
H624 H 0.95926 0.18334 0.82889 0.0
C625 C 0.04469 0.30992 0.82721 0.0
H626 H 0.91592 0.26957 0.83013 0.0
C627 C 0.06985 0.26045 0.82765 0.0
C628 C 0.03947 0.21441 0.83097 0.0
H629 H 0.06922 0.34506 0.82889 0.0
H630 H 0.11257 0.25884 0.83012 0.0
C631 C 0.9838 0.21847 0.8272 0.0
C632 C 0.518 0.81978 0.98464 0.0
C633 C 0.56405 0.78941 0.98132 0.0
H634 H 0.43339 0.81915 0.9834 0.0
C635 C 0.55999 0.73374 0.9851 0.0
H636 H 0.51962 0.86249 0.98217 0.0
C637 C 0.51052 0.70858 0.98465 0.0
C638 C 0.46447 0.73895 0.98132 0.0
H639 H 0.59514 0.70922 0.98342 0.0
H640 H 0.50891 0.66586 0.98218 0.0
C641 C 0.46853 0.79462 0.98509 0.0
C642 C 0.54465 0.30992 0.73509 0.0
C643 C 0.48898 0.31397 0.73133 0.0
H644 H 0.61254 0.25886 0.73217 0.0
C645 C 0.45862 0.26792 0.73465 0.0
H646 H 0.56917 0.34507 0.73342 0.0
C647 C 0.48378 0.21846 0.73509 0.0
C648 C 0.53946 0.21441 0.73132 0.0
H649 H 0.4159 0.26954 0.73217 0.0
H650 H 0.45925 0.18332 0.7334 0.0
C651 C 0.56982 0.26045 0.73465 0.0
C652 C 0.05995 0.23373 0.48509 0.0
C653 C 0.064 0.2894 0.48132 0.0
H654 H 1.0089 0.16585 0.48218 0.0
C655 C 0.01794 0.31976 0.48464 0.0
H656 H 0.09511 0.20922 0.48342 0.0
C657 C 0.96848 0.29459 0.48509 0.0
C658 C 0.96443 0.23892 0.48133 0.0
H659 H 0.01955 0.36248 0.48216 0.0
H660 H 0.93333 0.31911 0.4834 0.0
C661 C 1.01049 0.20856 0.48465 0.0
C662 C 0.06985 0.76044 0.23464 0.0
C663 C 0.03948 0.7144 0.23131 0.0
H664 H 0.06923 0.84504 0.23342 0.0
C665 C 0.9838 0.71846 0.23508 0.0
H666 H 0.11257 0.75881 0.23217 0.0
C667 C 0.95865 0.76793 0.23464 0.0
C668 C 0.98902 0.81397 0.23133 0.0
H669 H 0.95928 0.68331 0.23339 0.0
H670 H 0.91593 0.76954 0.23216 0.0
C671 C 0.04469 0.8099 0.2351 0.0
C672 C 0.28507 0.39246 0.17403 0.0
C673 C 0.27674 0.36485 0.14134 0.0
H674 H 0.25841 0.45501 0.20896 0.0
C675 C 0.24228 0.38643 0.11559 0.0
H676 H 0.31153 0.37689 0.19447 0.0
C677 C 0.21239 0.43119 0.12387 0.0
C678 C 0.21608 0.45509 0.15815 0.0
H679 H 0.23555 0.36657 0.09005 0.0
H680 H 0.18341 0.4448 0.10436 0.0
C681 C 0.25478 0.43731 0.18242 0.0
C682 C 0.3411 0.50467 0.4324 0.0
C683 C 0.32335 0.46595 0.40814 0.0
H684 H 0.40149 0.56143 0.44445 0.0
C685 C 0.34726 0.46226 0.37387 0.0
H686 H 0.32337 0.5083 0.45894 0.0
C687 C 0.39201 0.49216 0.36558 0.0
C688 C 0.41357 0.52663 0.39133 0.0
H689 H 0.33366 0.43326 0.35437 0.0
H690 H 0.41188 0.48543 0.34004 0.0
C691 C 0.38594 0.53497 0.424 0.0
C692 C 0.2862 0.642 0.61559 0.0
C693 C 0.25174 0.66357 0.64135 0.0
H694 H 0.34507 0.58364 0.60436 0.0
C695 C 0.24341 0.63594 0.67403 0.0
H696 H 0.29292 0.66188 0.59005 0.0
C697 C 0.2737 0.59108 0.68241 0.0
C698 C 0.3124 0.57332 0.65814 0.0
H699 H 0.21695 0.65149 0.69447 0.0
H700 H 0.27007 0.57336 0.70895 0.0
C701 C 0.31608 0.59724 0.62387 0.0
C702 C 0.14253 0.49338 0.92401 0.0
C703 C 0.11491 0.50171 0.89133 0.0
H704 H 0.20509 0.52003 0.95895 0.0
C705 C 0.13647 0.53619 0.86558 0.0
H706 H 0.12697 0.46691 0.94445 0.0
C707 C 0.18123 0.56608 0.87387 0.0
C708 C 0.20514 0.56238 0.90814 0.0
H709 H 0.1166 0.54292 0.84004 0.0
H710 H 0.19483 0.59507 0.85436 0.0
C711 C 0.18738 0.52367 0.93241 0.0
C712 C 0.78626 0.64198 0.94671 0.0
C713 C 0.75179 0.66355 0.92096 0.0
H714 H 0.84514 0.58362 0.95793 0.0
C715 C 0.74345 0.63592 0.88828 0.0
H716 H 0.79299 0.66185 0.97224 0.0
C717 C 0.77374 0.59108 0.87988 0.0
C718 C 0.81245 0.57332 0.90415 0.0
H719 H 0.71698 0.65148 0.86783 0.0
H720 H 0.7701 0.57336 0.85334 0.0
C721 C 0.81615 0.59722 0.93842 0.0
C722 C 0.68733 0.52369 0.62989 0.0
C723 C 0.70509 0.56239 0.65416 0.0
H724 H 0.62693 0.46694 0.61783 0.0
C725 C 0.68118 0.56608 0.68843 0.0
H726 H 0.70505 0.52006 0.60335 0.0
C727 C 0.63642 0.53618 0.69671 0.0
C728 C 0.61486 0.50172 0.67096 0.0
H729 H 0.69478 0.59506 0.70794 0.0
H730 H 0.61655 0.54291 0.72225 0.0
C731 C 0.64249 0.49339 0.63828 0.0
C732 C 0.74221 0.38635 0.4467 0.0
C733 C 0.77668 0.36479 0.42095 0.0
H734 H 0.68334 0.44471 0.45793 0.0
C735 C 0.78501 0.39242 0.38827 0.0
H736 H 0.73549 0.36647 0.47224 0.0
C737 C 0.75473 0.43728 0.37988 0.0
C738 C 0.71602 0.45503 0.40415 0.0
H739 H 0.81148 0.37687 0.36783 0.0
H740 H 0.75836 0.455 0.35334 0.0
C741 C 0.71233 0.43112 0.43842 0.0
C742 C 0.84113 0.5047 0.12988 0.0
C743 C 0.82338 0.46599 0.15415 0.0
H744 H 0.90153 0.56146 0.11783 0.0
C745 C 0.84729 0.4623 0.18842 0.0
H746 H 0.8234 0.50833 0.10334 0.0
C747 C 0.89205 0.4922 0.19671 0.0
C748 C 0.91361 0.52666 0.17095 0.0
H749 H 0.83369 0.43332 0.20793 0.0
H750 H 0.91193 0.48546 0.22224 0.0
C751 C 0.88598 0.535 0.13828 0.0
C752 C 0.74218 0.8864 0.61559 0.0
C753 C 0.77667 0.86483 0.64134 0.0
H754 H 0.6833 0.94475 0.60437 0.0
C755 C 0.78501 0.89246 0.67401 0.0
H756 H 0.73545 0.86652 0.59005 0.0
C757 C 0.75472 0.93731 0.68241 0.0
C758 C 0.716 0.95506 0.65814 0.0
H759 H 0.81149 0.8769 0.69445 0.0
H760 H 0.75836 0.95502 0.70895 0.0
C761 C 0.7123 0.93115 0.62388 0.0
C762 C 0.84113 1.00469 0.93241 0.0
C763 C 0.82337 0.96599 0.90814 0.0
H764 H 0.90153 0.06145 0.94446 0.0
C765 C 0.84728 0.96231 0.87387 0.0
H766 H 0.82341 1.00832 0.95895 0.0
C767 C 0.89204 0.9922 0.86559 0.0
C768 C 0.91361 0.02666 0.89134 0.0
H769 H 0.83368 0.93332 0.85436 0.0
H770 H 0.91191 0.98548 0.84005 0.0
C771 C 0.88598 0.03499 0.92402 0.0
C772 C 0.77373 0.09108 0.18241 0.0
C773 C 0.81244 0.07332 0.15814 0.0
H774 H 0.71698 0.15148 0.19446 0.0
C775 C 0.81613 0.09723 0.12387 0.0
H776 H 0.77011 0.07335 0.20895 0.0
C777 C 0.78624 0.14199 0.11559 0.0
C778 C 0.75177 0.16356 0.14134 0.0
H779 H 0.84512 0.08363 0.10436 0.0
H780 H 0.79297 0.16187 0.09005 0.0
C781 C 0.74344 0.13592 0.17401 0.0
C782 C 0.64249 0.99335 0.42403 0.0
C783 C 0.61486 1.00168 0.39134 0.0
H784 H 0.70505 0.02001 0.45896 0.0
C785 C 0.63643 0.03614 0.36559 0.0
H786 H 0.62692 0.96689 0.44447 0.0
C787 C 0.6812 0.06603 0.37387 0.0
C788 C 0.70511 0.06234 0.40814 0.0
H789 H 0.61656 0.04287 0.34005 0.0
H790 H 0.6948 0.09501 0.35436 0.0
C791 C 0.68734 0.02364 0.43242 0.0
C792 C 0.2434 0.1359 0.38828 0.0
C793 C 0.25174 0.16352 0.42096 0.0
H794 H 0.27006 0.07335 0.35334 0.0
C795 C 0.28621 0.14194 0.44671 0.0
H796 H 0.21694 0.15147 0.36784 0.0
C797 C 0.31609 0.09718 0.43843 0.0
C798 C 0.3124 0.07328 0.40415 0.0
H799 H 0.29294 0.1618 0.47225 0.0
H800 H 0.34508 0.08357 0.45794 0.0
C801 C 0.27369 0.09105 0.37989 0.0
C802 C 0.13646 0.03621 0.19672 0.0
C803 C 0.1149 1.00173 0.17097 0.0
H804 H 0.1948 0.0951 0.20793 0.0
C805 C 0.14253 0.9934 0.13829 0.0
H806 H 0.11658 0.04294 0.22225 0.0
C807 C 0.18737 0.0237 0.1299 0.0
C808 C 0.20512 0.06242 0.15416 0.0
H809 H 0.12698 0.96693 0.11785 0.0
H810 H 0.20509 0.02006 0.10336 0.0
C811 C 0.18121 0.0661 0.18843 0.0
C812 C 0.21238 0.93116 0.93843 0.0
C813 C 0.21607 0.95508 0.90416 0.0
H814 H 0.23554 0.86652 0.97225 0.0
C815 C 0.25477 0.93731 0.87989 0.0
H816 H 0.1834 0.94477 0.95794 0.0
C817 C 0.28506 0.89246 0.88828 0.0
C818 C 0.27673 0.86483 0.92096 0.0
H819 H 0.2584 0.95503 0.85335 0.0
H820 H 0.31151 0.8769 0.86783 0.0
C821 C 0.24227 0.8864 0.94671 0.0
C822 C 0.34723 0.96232 0.68843 0.0
C823 C 0.32332 0.96602 0.65416 0.0
H824 H 0.41185 0.98548 0.72226 0.0
C825 C 0.34108 1.00473 0.62989 0.0
H826 H 0.33362 0.93333 0.70794 0.0
C827 C 0.38593 0.03502 0.63829 0.0
C828 C 0.41355 0.02669 0.67097 0.0
H829 H 0.32336 1.00836 0.60335 0.0
H830 H 0.40148 0.06148 0.61784 0.0
C831 C 0.39198 0.99222 0.69672 0.0
loop_
_geom_bond_atom_site_label_1
_geom_bond_atom_site_label_2
_geom_bond_distance
_geom_bond_site_symmetry_2
_ccdc_geom_bond_type
Fe0 O2 1.918 . S
Fe0 O5 1.997 . S
Fe0 O6 2.002 . S
Fe0 O11 1.976 . S
Fe0 O14 1.996 . S
Fe1 O2 1.918 . S
Fe1 O9 1.997 . S
Fe1 O12 1.996 . S
Fe1 O16 1.976 . S
Fe1 O19 2.002 . S
O2 Fe0 1.918 . S
O2 Fe1 1.918 . S
O2 Fe3 1.918 . S
Fe3 O2 1.918 . S
Fe3 O4 2.002 . S
Fe3 O13 1.976 . S
Fe3 O17 1.996 . S
Fe3 O20 1.997 . S
O4 Fe3 2.002 . S
O4 C21 1.295 . S
O5 Fe0 1.997 . S
O5 C21 1.235 . S
O6 Fe0 2.002 . S
O6 C7 1.295 . S
C7 O6 1.295 . S
C7 O9 1.235 . S
C8 O13 1.287 . S
C8 O14 1.255 . S
O9 Fe1 1.997 . S
O9 C7 1.235 . S
C10 O16 1.287 . S
C10 O17 1.255 . S
O11 Fe0 1.976 . S
O11 C18 1.287 . S
O12 Fe1 1.996 . S
O12 C18 1.255 . S
O13 Fe3 1.976 . S
O13 C8 1.287 . S
O14 Fe0 1.996 . S
O14 C8 1.255 . S
C15 O19 1.295 . S
C15 O20 1.235 . S
O16 Fe1 1.976 . S
O16 C10 1.287 . S
O17 Fe3 1.996 . S
O17 C10 1.255 . S
C18 O11 1.287 . S
C18 O12 1.255 . S
O19 Fe1 2.002 . S
O19 C15 1.295 . S
O20 Fe3 1.997 . S
O20 C15 1.235 . S
C21 O4 1.295 . S
C21 O5 1.235 . S
Fe22 O24 1.918 . S
Fe22 O27 1.997 . S
Fe22 O28 2.002 . S
Fe22 O33 1.976 . S
Fe22 O36 1.996 . S
Fe23 O24 1.918 . S
Fe23 O31 1.997 . S
Fe23 O34 1.996 . S
Fe23 O38 1.976 . S
Fe23 O41 2.002 . S
O24 Fe22 1.918 . S
O24 Fe23 1.918 . S
O24 Fe25 1.918 . S
Fe25 O24 1.918 . S
Fe25 O26 2.002 . S
Fe25 O35 1.976 . S
Fe25 O39 1.996 . S
Fe25 O42 1.997 . S
O26 Fe25 2.002 . S
O26 C43 1.295 . S
O27 Fe22 1.997 . S
O27 C43 1.235 . S
O28 Fe22 2.002 . S
O28 C29 1.295 . S
C29 O28 1.295 . S
C29 O31 1.235 . S
C30 O35 1.287 . S
C30 O36 1.255 . S
O31 Fe23 1.997 . S
O31 C29 1.235 . S
C32 O38 1.287 . S
C32 O39 1.255 . S
O33 Fe22 1.976 . S
O33 C40 1.287 . S
O34 Fe23 1.996 . S
O34 C40 1.255 . S
O35 Fe25 1.976 . S
O35 C30 1.287 . S
O36 Fe22 1.996 . S
O36 C30 1.255 . S
C37 O41 1.295 . S
C37 O42 1.235 . S
O38 Fe23 1.976 . S
O38 C32 1.287 . S
O39 Fe25 1.996 . S
O39 C32 1.255 . S
C40 O33 1.287 . S
C40 O34 1.255 . S
O41 Fe23 2.002 . S
O41 C37 1.295 . S
O42 Fe25 1.997 . S
O42 C37 1.235 . S
C43 O26 1.295 . S
C43 O27 1.235 . S
Fe44 O46 1.918 . S
Fe44 O49 1.997 . S
Fe44 O50 2.002 . S
Fe44 O55 1.976 . S
Fe44 O58 1.996 . S
Fe45 O46 1.918 . S
Fe45 O53 1.997 . S
Fe45 O56 1.996 . S
Fe45 O60 1.976 . S
Fe45 O63 2.002 . S
O46 Fe44 1.918 . S
O46 Fe45 1.918 . S
O46 Fe47 1.918 . S
Fe47 O46 1.918 . S
Fe47 O48 2.002 . S
Fe47 O57 1.976 . S
Fe47 O61 1.996 . S
Fe47 O64 1.997 . S
O48 Fe47 2.002 . S
O48 C65 1.295 . S
O49 Fe44 1.997 . S
O49 C65 1.235 . S
O50 Fe44 2.002 . S
O50 C51 1.295 . S
C51 O50 1.295 . S
C51 O53 1.235 . S
C52 O57 1.287 . S
C52 O58 1.255 . S
O53 Fe45 1.997 . S
O53 C51 1.235 . S
C54 O60 1.287 . S
C54 O61 1.255 . S
O55 Fe44 1.976 . S
O55 C62 1.287 . S
O56 Fe45 1.996 . S
O56 C62 1.255 . S
O57 Fe47 1.976 . S
O57 C52 1.287 . S
O58 Fe44 1.996 . S
O58 C52 1.255 . S
C59 O63 1.295 . S
C59 O64 1.235 . S
O60 Fe45 1.976 . S
O60 C54 1.287 . S
O61 Fe47 1.996 . S
O61 C54 1.255 . S
C62 O55 1.287 . S
C62 O56 1.255 . S
O63 Fe45 2.002 . S
O63 C59 1.295 . S
O64 Fe47 1.997 . S
O64 C59 1.235 . S
C65 O48 1.295 . S
C65 O49 1.235 . S
Fe66 O68 1.918 . S
Fe66 O71 1.997 . S
Fe66 O72 2.002 . S
Fe66 O77 1.976 1_655 S
Fe66 O80 1.996 . S
Fe67 O68 1.918 . S
Fe67 O75 1.997 . S
Fe67 O78 1.996 1_655 S
Fe67 O82 1.976 . S
Fe67 O85 2.002 . S
O68 Fe66 1.918 . S
O68 Fe67 1.918 . S
O68 Fe69 1.918 . S
Fe69 O68 1.918 . S
Fe69 O70 2.002 . S
Fe69 O79 1.976 . S
Fe69 O83 1.996 . S
Fe69 O86 1.997 . S
O70 Fe69 2.002 . S
O70 C87 1.295 . S
O71 Fe66 1.997 . S
O71 C87 1.235 . S
O72 Fe66 2.002 . S
O72 C73 1.295 . S
C73 O72 1.295 . S
C73 O75 1.235 . S
C74 O79 1.287 . S
C74 O80 1.255 . S
O75 Fe67 1.997 . S
O75 C73 1.235 . S
C76 O82 1.287 . S
C76 O83 1.255 . S
O77 Fe66 1.976 1_455 S
O77 C84 1.287 . S
O78 Fe67 1.996 1_455 S
O78 C84 1.255 . S
O79 Fe69 1.976 . S
O79 C74 1.287 . S
O80 Fe66 1.996 . S
O80 C74 1.255 . S
C81 O85 1.295 . S
C81 O86 1.235 . S
O82 Fe67 1.976 . S
O82 C76 1.287 . S
O83 Fe69 1.996 . S
O83 C76 1.255 . S
C84 O77 1.287 . S
C84 O78 1.255 . S
O85 Fe67 2.002 . S
O85 C81 1.295 . S
O86 Fe69 1.997 . S
O86 C81 1.235 . S
C87 O70 1.295 . S
C87 O71 1.235 . S
Fe88 O90 1.918 . S
Fe88 O93 1.997 . S
Fe88 O94 2.002 . S
Fe88 O99 1.976 . S
Fe88 O102 1.996 . S
Fe89 O90 1.918 . S
Fe89 O97 1.997 . S
Fe89 O100 1.996 . S
Fe89 O104 1.976 . S
Fe89 O107 2.002 . S
O90 Fe88 1.918 . S
O90 Fe89 1.918 . S
O90 Fe91 1.918 . S
Fe91 O90 1.918 . S
Fe91 O92 2.002 . S
Fe91 O101 1.976 . S
Fe91 O105 1.996 . S
Fe91 O108 1.997 . S
O92 Fe91 2.002 . S
O92 C109 1.295 . S
O93 Fe88 1.997 . S
O93 C109 1.235 . S
O94 Fe88 2.002 . S
O94 C95 1.295 . S
C95 O94 1.295 . S
C95 O97 1.235 . S
C96 O101 1.287 . S
C96 O102 1.255 . S
O97 Fe89 1.997 . S
O97 C95 1.235 . S
C98 O104 1.287 . S
C98 O105 1.255 . S
O99 Fe88 1.976 . S
O99 C106 1.287 . S
O100 Fe89 1.996 . S
O100 C106 1.255 . S
O101 Fe91 1.976 . S
O101 C96 1.287 . S
O102 Fe88 1.996 . S
O102 C96 1.255 . S
C103 O107 1.295 . S
C103 O108 1.235 . S
O104 Fe89 1.976 . S
O104 C98 1.287 . S
O105 Fe91 1.996 . S
O105 C98 1.255 . S
C106 O99 1.287 . S
C106 O100 1.255 . S
O107 Fe89 2.002 . S
O107 C103 1.295 . S
O108 Fe91 1.997 . S
O108 C103 1.235 . S
C109 O92 1.295 . S
C109 O93 1.235 . S
Fe110 O112 1.918 . S
Fe110 O115 1.997 . S
Fe110 O116 2.002 . S
Fe110 O121 1.976 . S
Fe110 O124 1.996 . S
Fe111 O112 1.918 . S
Fe111 O119 1.997 . S
Fe111 O122 1.996 . S
Fe111 O126 1.976 . S
Fe111 O129 2.002 . S
O112 Fe110 1.918 . S
O112 Fe111 1.918 . S
O112 Fe113 1.918 . S
Fe113 O112 1.918 . S
Fe113 O114 2.002 . S
Fe113 O123 1.976 . S
Fe113 O127 1.996 . S
Fe113 O130 1.997 . S
O114 Fe113 2.002 . S
O114 C131 1.295 . S
O115 Fe110 1.997 . S
O115 C131 1.235 . S
O116 Fe110 2.002 . S
O116 C117 1.295 . S
C117 O116 1.295 . S
C117 O119 1.235 . S
C118 O123 1.287 . S
C118 O124 1.255 . S
O119 Fe111 1.997 . S
O119 C117 1.235 . S
C120 O126 1.287 . S
C120 O127 1.255 . S
O121 Fe110 1.976 . S
O121 C128 1.287 . S
O122 Fe111 1.996 . S
O122 C128 1.255 . S
O123 Fe113 1.976 . S
O123 C118 1.287 . S
O124 Fe110 1.996 . S
O124 C118 1.255 . S
C125 O129 1.295 . S
C125 O130 1.235 . S
O126 Fe111 1.976 . S
O126 C120 1.287 . S
O127 Fe113 1.996 . S
O127 C120 1.255 . S
C128 O121 1.287 . S
C128 O122 1.255 . S
O129 Fe111 2.002 . S
O129 C125 1.295 . S
O130 Fe113 1.997 . S
O130 C125 1.235 . S
C131 O114 1.295 . S
C131 O115 1.235 . S
Fe132 O134 1.918 . S
Fe132 O137 1.997 . S
Fe132 O138 2.002 . S
Fe132 O143 1.976 . S
Fe132 O146 1.996 . S
Fe133 O134 1.918 . S
Fe133 O141 1.997 . S
Fe133 O144 1.996 . S
Fe133 O148 1.976 . S
Fe133 O151 2.002 . S
O134 Fe132 1.918 . S
O134 Fe133 1.918 . S
O134 Fe135 1.918 . S
Fe135 O134 1.918 . S
Fe135 O136 2.002 . S
Fe135 O145 1.976 . S
Fe135 O149 1.996 . S
Fe135 O152 1.997 . S
O136 Fe135 2.002 . S
O136 C153 1.295 . S
O137 Fe132 1.997 . S
O137 C153 1.235 . S
O138 Fe132 2.002 . S
O138 C139 1.295 . S
C139 O138 1.295 . S
C139 O141 1.235 . S
C140 O145 1.287 . S
C140 O146 1.255 . S
O141 Fe133 1.997 . S
O141 C139 1.235 . S
C142 O148 1.287 . S
C142 O149 1.255 . S
O143 Fe132 1.976 . S
O143 C150 1.287 . S
O144 Fe133 1.996 . S
O144 C150 1.255 . S
O145 Fe135 1.976 . S
O145 C140 1.287 . S
O146 Fe132 1.996 . S
O146 C140 1.255 . S
C147 O151 1.295 . S
C147 O152 1.235 . S
O148 Fe133 1.976 . S
O148 C142 1.287 . S
O149 Fe135 1.996 . S
O149 C142 1.255 . S
C150 O143 1.287 . S
C150 O144 1.255 . S
O151 Fe133 2.002 . S
O151 C147 1.295 . S
O152 Fe135 1.997 . S
O152 C147 1.235 . S
C153 O136 1.295 . S
C153 O137 1.235 . S
Fe154 O156 1.918 . S
Fe154 O159 1.997 . S
Fe154 O160 2.002 . S
Fe154 O165 1.976 . S
Fe154 O168 1.996 1_455 S
Fe155 O156 1.918 . S
Fe155 O163 1.997 . S
Fe155 O166 1.996 . S
Fe155 O170 1.976 . S
Fe155 O173 2.002 . S
O156 Fe154 1.918 . S
O156 Fe155 1.918 . S
O156 Fe157 1.918 . S
Fe157 O156 1.918 . S
Fe157 O158 2.002 . S
Fe157 O167 1.976 1_455 S
Fe157 O171 1.996 . S
Fe157 O174 1.997 . S
O158 Fe157 2.002 . S
O158 C175 1.295 . S
O159 Fe154 1.997 . S
O159 C175 1.235 . S
O160 Fe154 2.002 . S
O160 C161 1.295 . S
C161 O160 1.295 . S
C161 O163 1.235 . S
C162 O167 1.287 . S
C162 O168 1.255 . S
O163 Fe155 1.997 . S
O163 C161 1.235 . S
C164 O170 1.287 . S
C164 O171 1.255 . S
O165 Fe154 1.976 . S
O165 C172 1.287 . S
O166 Fe155 1.996 . S
O166 C172 1.255 . S
O167 Fe157 1.976 1_655 S
O167 C162 1.287 . S
O168 Fe154 1.996 1_655 S
O168 C162 1.255 . S
C169 O173 1.295 . S
C169 O174 1.235 . S
O170 Fe155 1.976 . S
O170 C164 1.287 . S
O171 Fe157 1.996 . S
O171 C164 1.255 . S
C172 O165 1.287 . S
C172 O166 1.255 . S
O173 Fe155 2.002 . S
O173 C169 1.295 . S
O174 Fe157 1.997 . S
O174 C169 1.235 . S
C175 O158 1.295 . S
C175 O159 1.235 . S
Fe176 O178 1.918 . S
Fe176 O181 1.997 . S
Fe176 O182 2.002 . S
Fe176 O187 1.976 . S
Fe176 O190 1.996 . S
Fe177 O178 1.918 . S
Fe177 O185 1.997 . S
Fe177 O188 1.996 . S
Fe177 O192 1.976 . S
Fe177 O195 2.002 . S
O178 Fe176 1.918 . S
O178 Fe177 1.918 . S
O178 Fe179 1.918 . S
Fe179 O178 1.918 . S
Fe179 O180 2.002 . S
Fe179 O189 1.976 . S
Fe179 O193 1.996 . S
Fe179 O196 1.997 . S
O180 Fe179 2.002 . S
O180 C197 1.295 . S
O181 Fe176 1.997 . S
O181 C197 1.235 . S
O182 Fe176 2.002 . S
O182 C183 1.295 . S
C183 O182 1.295 . S
C183 O185 1.235 . S
C184 O189 1.287 . S
C184 O190 1.255 . S
O185 Fe177 1.997 . S
O185 C183 1.235 . S
C186 O192 1.287 . S
C186 O193 1.255 . S
O187 Fe176 1.976 . S
O187 C194 1.287 . S
O188 Fe177 1.996 . S
O188 C194 1.255 . S
O189 Fe179 1.976 . S
O189 C184 1.287 . S
O190 Fe176 1.996 . S
O190 C184 1.255 . S
C191 O195 1.295 . S
C191 O196 1.235 . S
O192 Fe177 1.976 . S
O192 C186 1.287 . S
O193 Fe179 1.996 . S
O193 C186 1.255 . S
C194 O187 1.287 . S
C194 O188 1.255 . S
O195 Fe177 2.002 . S
O195 C191 1.295 . S
O196 Fe179 1.997 . S
O196 C191 1.235 . S
C197 O180 1.295 . S
C197 O181 1.235 . S
Fe198 O200 1.918 1_565 S
Fe198 O203 1.997 . S
Fe198 O204 2.002 . S
Fe198 O209 1.976 . S
Fe198 O212 1.996 1_465 S
Fe199 O200 1.918 . S
Fe199 O207 1.997 . S
Fe199 O210 1.996 . S
Fe199 O214 1.976 . S
Fe199 O217 2.002 . S
O200 Fe198 1.918 1_545 S
O200 Fe199 1.918 . S
O200 Fe201 1.918 . S
Fe201 O200 1.918 . S
Fe201 O202 2.002 . S
Fe201 O211 1.976 1_455 S
Fe201 O215 1.996 . S
Fe201 O218 1.997 . S
O202 Fe201 2.002 . S
O202 C219 1.295 . S
O203 Fe198 1.997 . S
O203 C219 1.235 1_565 S
O204 Fe198 2.002 . S
O204 C205 1.295 . S
C205 O204 1.295 . S
C205 O207 1.235 1_565 S
C206 O211 1.287 . S
C206 O212 1.255 . S
O207 Fe199 1.997 . S
O207 C205 1.235 1_545 S
C208 O214 1.287 . S
C208 O215 1.255 . S
O209 Fe198 1.976 . S
O209 C216 1.287 1_565 S
O210 Fe199 1.996 . S
O210 C216 1.255 . S
O211 Fe201 1.976 1_655 S
O211 C206 1.287 . S
O212 Fe198 1.996 1_645 S
O212 C206 1.255 . S
C213 O217 1.295 . S
C213 O218 1.235 . S
O214 Fe199 1.976 . S
O214 C208 1.287 . S
O215 Fe201 1.996 . S
O215 C208 1.255 . S
C216 O209 1.287 1_545 S
C216 O210 1.255 . S
O217 Fe199 2.002 . S
O217 C213 1.295 . S
O218 Fe201 1.997 . S
O218 C213 1.235 . S
C219 O202 1.295 . S
C219 O203 1.235 1_545 S
Fe220 O222 1.918 . S
Fe220 O225 1.997 . S
Fe220 O226 2.002 . S
Fe220 O231 1.976 . S
Fe220 O234 1.996 . S
Fe221 O222 1.918 . S
Fe221 O229 1.997 . S
Fe221 O232 1.996 . S
Fe221 O236 1.976 . S
Fe221 O239 2.002 . S
O222 Fe220 1.918 . S
O222 Fe221 1.918 . S
O222 Fe223 1.918 . S
Fe223 O222 1.918 . S
Fe223 O224 2.002 . S
Fe223 O233 1.976 . S
Fe223 O237 1.996 . S
Fe223 O240 1.997 . S
O224 Fe223 2.002 . S
O224 C241 1.295 . S
O225 Fe220 1.997 . S
O225 C241 1.235 . S
O226 Fe220 2.002 . S
O226 C227 1.295 . S
C227 O226 1.295 . S
C227 O229 1.235 . S
C228 O233 1.287 . S
C228 O234 1.255 . S
O229 Fe221 1.997 . S
O229 C227 1.235 . S
C230 O236 1.287 . S
C230 O237 1.255 . S
O231 Fe220 1.976 . S
O231 C238 1.287 . S
O232 Fe221 1.996 . S
O232 C238 1.255 . S
O233 Fe223 1.976 . S
O233 C228 1.287 . S
O234 Fe220 1.996 . S
O234 C228 1.255 . S
C235 O239 1.295 . S
C235 O240 1.235 . S
O236 Fe221 1.976 . S
O236 C230 1.287 . S
O237 Fe223 1.996 . S
O237 C230 1.255 . S
C238 O231 1.287 . S
C238 O232 1.255 . S
O239 Fe221 2.002 . S
O239 C235 1.295 . S
O240 Fe223 1.997 . S
O240 C235 1.235 . S
C241 O224 1.295 . S
C241 O225 1.235 . S
Fe242 O244 1.918 . S
Fe242 O247 1.997 . S
Fe242 O248 2.002 . S
Fe242 O253 1.976 . S
Fe242 O256 1.996 . S
Fe243 O244 1.918 1_545 S
Fe243 O251 1.997 . S
Fe243 O254 1.996 1_545 S
Fe243 O258 1.976 . S
Fe243 O261 2.002 . S
O244 Fe242 1.918 . S
O244 Fe243 1.918 1_565 S
O244 Fe245 1.918 . S
Fe245 O244 1.918 . S
Fe245 O246 2.002 . S
Fe245 O255 1.976 . S
Fe245 O259 1.996 . S
Fe245 O262 1.997 . S
O246 Fe245 2.002 . S
O246 C263 1.295 . S
O247 Fe242 1.997 . S
O247 C263 1.235 . S
O248 Fe242 2.002 . S
O248 C249 1.295 . S
C249 O248 1.295 . S
C249 O251 1.235 1_565 S
C250 O255 1.287 . S
C250 O256 1.255 . S
O251 Fe243 1.997 . S
O251 C249 1.235 1_545 S
C252 O258 1.287 1_565 S
C252 O259 1.255 . S
O253 Fe242 1.976 . S
O253 C260 1.287 . S
O254 Fe243 1.996 1_565 S
O254 C260 1.255 . S
O255 Fe245 1.976 . S
O255 C250 1.287 . S
O256 Fe242 1.996 . S
O256 C250 1.255 . S
C257 O261 1.295 . S
C257 O262 1.235 1_545 S
O258 Fe243 1.976 . S
O258 C252 1.287 1_545 S
O259 Fe245 1.996 . S
O259 C252 1.255 . S
C260 O253 1.287 . S
C260 O254 1.255 . S
O261 Fe243 2.002 . S
O261 C257 1.295 . S
O262 Fe245 1.997 . S
O262 C257 1.235 1_565 S
C263 O246 1.295 . S
C263 O247 1.235 . S
Fe264 O266 1.918 . S
Fe264 O269 1.997 . S
Fe264 O270 2.002 . S
Fe264 O275 1.976 . S
Fe264 O278 1.996 . S
Fe265 O266 1.918 . S
Fe265 O273 1.997 . S
Fe265 O276 1.996 . S
Fe265 O280 1.976 . S
Fe265 O283 2.002 . S
O266 Fe264 1.918 . S
O266 Fe265 1.918 . S
O266 Fe267 1.918 . S
Fe267 O266 1.918 . S
Fe267 O268 2.002 . S
Fe267 O277 1.976 . S
Fe267 O281 1.996 . S
Fe267 O284 1.997 . S
O268 Fe267 2.002 . S
O268 C285 1.295 . S
O269 Fe264 1.997 . S
O269 C285 1.235 . S
O270 Fe264 2.002 . S
O270 C271 1.295 . S
C271 O270 1.295 . S
C271 O273 1.235 . S
C272 O277 1.287 . S
C272 O278 1.255 . S
O273 Fe265 1.997 . S
O273 C271 1.235 . S
C274 O280 1.287 . S
C274 O281 1.255 . S
O275 Fe264 1.976 . S
O275 C282 1.287 . S
O276 Fe265 1.996 . S
O276 C282 1.255 . S
O277 Fe267 1.976 . S
O277 C272 1.287 . S
O278 Fe264 1.996 . S
O278 C272 1.255 . S
C279 O283 1.295 . S
C279 O284 1.235 . S
O280 Fe265 1.976 . S
O280 C274 1.287 . S
O281 Fe267 1.996 . S
O281 C274 1.255 . S
C282 O275 1.287 . S
C282 O276 1.255 . S
O283 Fe265 2.002 . S
O283 C279 1.295 . S
O284 Fe267 1.997 . S
O284 C279 1.235 . S
C285 O268 1.295 . S
C285 O269 1.235 . S
Fe286 O288 1.918 1_545 S
Fe286 O291 1.997 . S
Fe286 O292 2.002 . S
Fe286 O297 1.976 . S
Fe286 O300 1.996 1_645 S
Fe287 O288 1.918 . S
Fe287 O295 1.997 . S
Fe287 O298 1.996 . S
Fe287 O302 1.976 . S
Fe287 O305 2.002 . S
O288 Fe286 1.918 1_565 S
O288 Fe287 1.918 . S
O288 Fe289 1.918 . S
Fe289 O288 1.918 . S
Fe289 O290 2.002 . S
Fe289 O299 1.976 1_655 S
Fe289 O303 1.996 . S
Fe289 O306 1.997 . S
O290 Fe289 2.002 . S
O290 C307 1.295 . S
O291 Fe286 1.997 . S
O291 C307 1.235 1_545 S
O292 Fe286 2.002 . S
O292 C293 1.295 . S
C293 O292 1.295 . S
C293 O295 1.235 1_545 S
C294 O299 1.287 . S
C294 O300 1.255 . S
O295 Fe287 1.997 . S
O295 C293 1.235 1_565 S
C296 O302 1.287 . S
C296 O303 1.255 . S
O297 Fe286 1.976 . S
O297 C304 1.287 1_545 S
O298 Fe287 1.996 . S
O298 C304 1.255 . S
O299 Fe289 1.976 1_455 S
O299 C294 1.287 . S
O300 Fe286 1.996 1_465 S
O300 C294 1.255 . S
C301 O305 1.295 . S
C301 O306 1.235 . S
O302 Fe287 1.976 . S
O302 C296 1.287 . S
O303 Fe289 1.996 . S
O303 C296 1.255 . S
C304 O297 1.287 1_565 S
C304 O298 1.255 . S
O305 Fe287 2.002 . S
O305 C301 1.295 . S
O306 Fe289 1.997 . S
O306 C301 1.235 . S
C307 O290 1.295 . S
C307 O291 1.235 1_565 S
Fe308 O310 1.918 . S
Fe308 O313 1.997 . S
Fe308 O314 2.002 . S
Fe308 O319 1.976 . S
Fe308 O322 1.996 . S
Fe309 O310 1.918 . S
Fe309 O317 1.997 . S
Fe309 O320 1.996 . S
Fe309 O324 1.976 . S
Fe309 O327 2.002 . S
O310 Fe308 1.918 . S
O310 Fe309 1.918 . S
O310 Fe311 1.918 . S
Fe311 O310 1.918 . S
Fe311 O312 2.002 . S
Fe311 O321 1.976 . S
Fe311 O325 1.996 . S
Fe311 O328 1.997 . S
O312 Fe311 2.002 . S
O312 C329 1.295 . S
O313 Fe308 1.997 . S
O313 C329 1.235 . S
O314 Fe308 2.002 . S
O314 C315 1.295 . S
C315 O314 1.295 . S
C315 O317 1.235 . S
C316 O321 1.287 . S
C316 O322 1.255 . S
O317 Fe309 1.997 . S
O317 C315 1.235 . S
C318 O324 1.287 . S
C318 O325 1.255 . S
O319 Fe308 1.976 . S
O319 C326 1.287 . S
O320 Fe309 1.996 . S
O320 C326 1.255 . S
O321 Fe311 1.976 . S
O321 C316 1.287 . S
O322 Fe308 1.996 . S
O322 C316 1.255 . S
C323 O327 1.295 . S
C323 O328 1.235 . S
O324 Fe309 1.976 . S
O324 C318 1.287 . S
O325 Fe311 1.996 . S
O325 C318 1.255 . S
C326 O319 1.287 . S
C326 O320 1.255 . S
O327 Fe309 2.002 . S
O327 C323 1.295 . S
O328 Fe311 1.997 . S
O328 C323 1.235 . S
C329 O312 1.295 . S
C329 O313 1.235 . S
Fe330 O332 1.918 . S
Fe330 O335 1.997 . S
Fe330 O336 2.002 . S
Fe330 O341 1.976 . S
Fe330 O344 1.996 . S
Fe331 O332 1.918 1_565 S
Fe331 O339 1.997 . S
Fe331 O342 1.996 1_565 S
Fe331 O346 1.976 . S
Fe331 O349 2.002 . S
O332 Fe330 1.918 . S
O332 Fe331 1.918 1_545 S
O332 Fe333 1.918 . S
Fe333 O332 1.918 . S
Fe333 O334 2.002 . S
Fe333 O343 1.976 . S
Fe333 O347 1.996 . S
Fe333 O350 1.997 . S
O334 Fe333 2.002 . S
O334 C351 1.295 . S
O335 Fe330 1.997 . S
O335 C351 1.235 . S
O336 Fe330 2.002 . S
O336 C337 1.295 . S
C337 O336 1.295 . S
C337 O339 1.235 1_545 S
C338 O343 1.287 . S
C338 O344 1.255 . S
O339 Fe331 1.997 . S
O339 C337 1.235 1_565 S
C340 O346 1.287 1_545 S
C340 O347 1.255 . S
O341 Fe330 1.976 . S
O341 C348 1.287 . S
O342 Fe331 1.996 1_545 S
O342 C348 1.255 . S
O343 Fe333 1.976 . S
O343 C338 1.287 . S
O344 Fe330 1.996 . S
O344 C338 1.255 . S
C345 O349 1.295 . S
C345 O350 1.235 1_565 S
O346 Fe331 1.976 . S
O346 C340 1.287 1_565 S
O347 Fe333 1.996 . S
O347 C340 1.255 . S
C348 O341 1.287 . S
C348 O342 1.255 . S
O349 Fe331 2.002 . S
O349 C345 1.295 . S
O350 Fe333 1.997 . S
O350 C345 1.235 1_545 S
C351 O334 1.295 . S
C351 O335 1.235 . S
C352 C353 1.387 . S
C352 H356 0.950 . S
C352 C361 1.390 . S
C353 C352 1.387 . S
C353 C355 1.387 . S
H354 C361 0.950 . S
C355 C353 1.387 . S
C355 C357 1.390 . S
C355 H359 0.950 . S
H356 C352 0.950 . S
C357 C355 1.390 . S
C357 C358 1.387 . S
C357 H360 0.950 . S
C358 C357 1.387 . S
C358 C361 1.387 . S
H359 C355 0.950 . S
H360 C357 0.950 . S
C361 C352 1.390 . S
C361 H354 0.950 . S
C361 C358 1.387 . S
C362 C363 1.387 . S
C362 H366 0.950 . S
C362 C371 1.390 . S
C363 C362 1.387 . S
C363 C365 1.387 . S
H364 C371 0.950 . S
C365 C363 1.387 . S
C365 C367 1.390 . S
C365 H369 0.950 . S
H366 C362 0.950 . S
C367 C365 1.390 . S
C367 C368 1.387 . S
C367 H370 0.950 . S
C368 C367 1.387 . S
C368 C371 1.387 . S
H369 C365 0.950 . S
H370 C367 0.950 . S
C371 C362 1.390 . S
C371 H364 0.950 . S
C371 C368 1.387 . S
C372 C373 1.387 . S
C372 H376 0.950 . S
C372 C381 1.390 . S
C373 C372 1.387 . S
C373 C375 1.387 . S
H374 C381 0.950 . S
C375 C373 1.387 . S
C375 C377 1.390 . S
C375 H379 0.950 . S
H376 C372 0.950 . S
C377 C375 1.390 . S
C377 C378 1.387 . S
C377 H380 0.950 . S
C378 C377 1.387 . S
C378 C381 1.387 . S
H379 C375 0.950 . S
H380 C377 0.950 . S
C381 C372 1.390 . S
C381 H374 0.950 . S
C381 C378 1.387 . S
C382 C383 1.387 . S
C382 H386 0.950 . S
C382 C391 1.390 1_656 S
C383 C382 1.387 . S
C383 C385 1.387 . S
H384 C391 0.950 . S
C385 C383 1.387 . S
C385 C387 1.390 1_656 S
C385 H389 0.950 . S
H386 C382 0.950 . S
C387 C385 1.390 1_454 S
C387 C388 1.387 . S
C387 H390 0.950 . S
C388 C387 1.387 . S
C388 C391 1.387 . S
H389 C385 0.950 . S
H390 C387 0.950 . S
C391 C382 1.390 1_454 S
C391 H384 0.950 . S
C391 C388 1.387 . S
C392 C393 1.387 . S
C392 H396 0.950 . S
C392 C401 1.390 . S
C393 C392 1.387 . S
C393 C395 1.387 . S
H394 C401 0.950 . S
C395 C393 1.387 . S
C395 C397 1.390 . S
C395 H399 0.950 . S
H396 C392 0.950 . S
C397 C395 1.390 . S
C397 C398 1.387 . S
C397 H400 0.950 . S
C398 C397 1.387 . S
C398 C401 1.387 . S
H399 C395 0.950 . S
H400 C397 0.950 . S
C401 C392 1.390 . S
C401 H394 0.950 . S
C401 C398 1.387 . S
C402 C403 1.387 . S
C402 H406 0.950 . S
C402 C411 1.390 . S
C403 C402 1.387 . S
C403 C405 1.387 . S
H404 C411 0.950 . S
C405 C403 1.387 . S
C405 C407 1.390 . S
C405 H409 0.950 . S
H406 C402 0.950 . S
C407 C405 1.390 . S
C407 C408 1.387 . S
C407 H410 0.950 . S
C408 C407 1.387 . S
C408 C411 1.387 . S
H409 C405 0.950 . S
H410 C407 0.950 . S
C411 C402 1.390 . S
C411 H404 0.950 . S
C411 C408 1.387 . S
C412 C413 1.387 1_565 S
C412 H416 0.950 . S
C412 C421 1.390 1_654 S
C413 C412 1.387 1_545 S
C413 C415 1.387 . S
H414 C421 0.950 . S
C415 C413 1.387 . S
C415 C417 1.390 1_654 S
C415 H419 0.950 . S
H416 C412 0.950 . S
C417 C415 1.390 1_456 S
C417 C418 1.387 1_545 S
C417 H420 0.950 . S
C418 C417 1.387 1_565 S
C418 C421 1.387 . S
H419 C415 0.950 . S
H420 C417 0.950 . S
C421 C412 1.390 1_456 S
C421 H414 0.950 . S
C421 C418 1.387 . S
C422 C423 1.387 1_565 S
C422 H426 0.950 . S
C422 C431 1.390 . S
C423 C422 1.387 1_545 S
C423 C425 1.387 . S
H424 C431 0.950 . S
C425 C423 1.387 . S
C425 C427 1.390 . S
C425 H429 0.950 . S
H426 C422 0.950 . S
C427 C425 1.390 . S
C427 C428 1.387 1_545 S
C427 H430 0.950 . S
C428 C427 1.387 1_565 S
C428 C431 1.387 . S
H429 C425 0.950 . S
H430 C427 0.950 . S
C431 C422 1.390 . S
C431 H424 0.950 . S
C431 C428 1.387 . S
C432 C433 1.387 . S
C432 H436 0.950 . S
C432 C441 1.390 . S
C433 C432 1.387 . S
C433 C435 1.387 . S
H434 C441 0.950 1_554 S
C435 C433 1.387 . S
C435 C437 1.390 . S
C435 H439 0.950 . S
H436 C432 0.950 . S
C437 C435 1.390 . S
C437 C438 1.387 1_556 S
C437 H440 0.950 1_556 S
C438 C437 1.387 1_554 S
C438 C441 1.387 1_554 S
H439 C435 0.950 . S
H440 C437 0.950 1_554 S
C441 C432 1.390 . S
C441 H434 0.950 1_556 S
C441 C438 1.387 1_556 S
C442 C443 1.387 . S
C442 H446 0.950 . S
C442 C451 1.390 . S
C443 C442 1.387 . S
C443 C445 1.387 . S
H444 C451 0.950 . S
C445 C443 1.387 . S
C445 C447 1.390 . S
C445 H449 0.950 . S
H446 C442 0.950 . S
C447 C445 1.390 . S
C447 C448 1.387 . S
C447 H450 0.950 . S
C448 C447 1.387 . S
C448 C451 1.387 . S
H449 C445 0.950 . S
H450 C447 0.950 . S
C451 C442 1.390 . S
C451 H444 0.950 . S
C451 C448 1.387 . S
C452 C453 1.387 . S
C452 H456 0.950 . S
C452 C461 1.390 . S
C453 C452 1.387 . S
C453 C455 1.387 . S
H454 C461 0.950 . S
C455 C453 1.387 . S
C455 C457 1.390 . S
C455 H459 0.950 . S
H456 C452 0.950 . S
C457 C455 1.390 . S
C457 C458 1.387 . S
C457 H460 0.950 . S
C458 C457 1.387 . S
C458 C461 1.387 . S
H459 C455 0.950 . S
H460 C457 0.950 . S
C461 C452 1.390 . S
C461 H454 0.950 . S
C461 C458 1.387 . S
C462 C463 1.387 . S
C462 H466 0.950 . S
C462 C471 1.390 . S
C463 C462 1.387 . S
C463 C465 1.387 . S
H464 C471 0.950 . S
C465 C463 1.387 . S
C465 C467 1.390 . S
C465 H469 0.950 . S
H466 C462 0.950 . S
C467 C465 1.390 . S
C467 C468 1.387 . S
C467 H470 0.950 . S
C468 C467 1.387 . S
C468 C471 1.387 . S
H469 C465 0.950 . S
H470 C467 0.950 . S
C471 C462 1.390 . S
C471 H464 0.950 . S
C471 C468 1.387 . S
C472 C473 1.387 . S
C472 H476 0.950 . S
C472 C481 1.390 . S
C473 C472 1.387 . S
C473 C475 1.387 . S
H474 C481 0.950 1_556 S
C475 C473 1.387 . S
C475 C477 1.390 . S
C475 H479 0.950 . S
H476 C472 0.950 . S
C477 C475 1.390 . S
C477 C478 1.387 1_554 S
C477 H480 0.950 1_554 S
C478 C477 1.387 1_556 S
C478 C481 1.387 1_556 S
H479 C475 0.950 . S
H480 C477 0.950 1_556 S
C481 C472 1.390 . S
C481 H474 0.950 1_554 S
C481 C478 1.387 1_554 S
C482 C483 1.387 . S
C482 H486 0.950 . S
C482 C491 1.390 . S
C483 C482 1.387 . S
C483 C485 1.387 . S
H484 C491 0.950 . S
C485 C483 1.387 . S
C485 C487 1.390 . S
C485 H489 0.950 . S
H486 C482 0.950 . S
C487 C485 1.390 . S
C487 C488 1.387 . S
C487 H490 0.950 . S
C488 C487 1.387 . S
C488 C491 1.387 . S
H489 C485 0.950 . S
H490 C487 0.950 . S
C491 C482 1.390 . S
C491 H484 0.950 . S
C491 C488 1.387 . S
C492 C493 1.387 . S
C492 H496 0.950 . S
C492 C501 1.390 . S
C493 C492 1.387 . S
C493 C495 1.387 . S
H494 C501 0.950 . S
C495 C493 1.387 . S
C495 C497 1.390 . S
C495 H499 0.950 . S
H496 C492 0.950 . S
C497 C495 1.390 . S
C497 C498 1.387 . S
C497 H500 0.950 . S
C498 C497 1.387 . S
C498 C501 1.387 . S
H499 C495 0.950 . S
H500 C497 0.950 . S
C501 C492 1.390 . S
C501 H494 0.950 . S
C501 C498 1.387 . S
C502 C503 1.387 . S
C502 H506 0.950 . S
C502 C511 1.390 . S
C503 C502 1.387 . S
C503 C505 1.387 . S
H504 C511 0.950 . S
C505 C503 1.387 . S
C505 C507 1.390 . S
C505 H509 0.950 . S
H506 C502 0.950 . S
C507 C505 1.390 . S
C507 C508 1.387 . S
C507 H510 0.950 . S
C508 C507 1.387 . S
C508 C511 1.387 . S
H509 C505 0.950 . S
H510 C507 0.950 . S
C511 C502 1.390 . S
C511 H504 0.950 . S
C511 C508 1.387 . S
C512 C513 1.387 . S
C512 H516 0.950 . S
C512 C521 1.390 . S
C513 C512 1.387 . S
C513 C515 1.387 . S
H514 C521 0.950 . S
C515 C513 1.387 . S
C515 C517 1.390 . S
C515 H519 0.950 . S
H516 C512 0.950 . S
C517 C515 1.390 . S
C517 C518 1.387 . S
C517 H520 0.950 . S
C518 C517 1.387 . S
C518 C521 1.387 . S
H519 C515 0.950 . S
H520 C517 0.950 . S
C521 C512 1.390 . S
C521 H514 0.950 . S
C521 C518 1.387 . S
C522 C523 1.387 . S
C522 H526 0.950 . S
C522 C531 1.390 . S
C523 C522 1.387 . S
C523 C525 1.387 . S
H524 C531 0.950 . S
C525 C523 1.387 . S
C525 C527 1.390 . S
C525 H529 0.950 . S
H526 C522 0.950 . S
C527 C525 1.390 . S
C527 C528 1.387 . S
C527 H530 0.950 . S
C528 C527 1.387 . S
C528 C531 1.387 . S
H529 C525 0.950 . S
H530 C527 0.950 . S
C531 C522 1.390 . S
C531 H524 0.950 . S
C531 C528 1.387 . S
C532 C533 1.387 1_556 S
C532 H536 0.950 1_556 S
C532 C541 1.390 . S
C533 C532 1.387 1_554 S
C533 C535 1.387 1_554 S
H534 C541 0.950 . S
C535 C533 1.387 1_556 S
C535 C537 1.390 . S
C535 H539 0.950 1_556 S
H536 C532 0.950 1_554 S
C537 C535 1.390 . S
C537 C538 1.387 . S
C537 H540 0.950 . S
C538 C537 1.387 . S
C538 C541 1.387 . S
H539 C535 0.950 1_554 S
H540 C537 0.950 . S
C541 C532 1.390 . S
C541 H534 0.950 . S
C541 C538 1.387 . S
C542 C543 1.387 . S
C542 H546 0.950 . S
C542 C551 1.390 . S
C543 C542 1.387 . S
C543 C545 1.387 . S
H544 C551 0.950 . S
C545 C543 1.387 . S
C545 C547 1.390 1_545 S
C545 H549 0.950 . S
H546 C542 0.950 . S
C547 C545 1.390 1_565 S
C547 C548 1.387 1_565 S
C547 H550 0.950 . S
C548 C547 1.387 1_545 S
C548 C551 1.387 . S
H549 C545 0.950 . S
H550 C547 0.950 . S
C551 C542 1.390 . S
C551 H544 0.950 . S
C551 C548 1.387 . S
C552 C553 1.387 . S
C552 H556 0.950 . S
C552 C561 1.390 . S
C553 C552 1.387 . S
C553 C555 1.387 . S
H554 C561 0.950 . S
C555 C553 1.387 . S
C555 C557 1.390 . S
C555 H559 0.950 . S
H556 C552 0.950 . S
C557 C555 1.390 . S
C557 C558 1.387 . S
C557 H560 0.950 . S
C558 C557 1.387 . S
C558 C561 1.387 . S
H559 C555 0.950 . S
H560 C557 0.950 . S
C561 C552 1.390 . S
C561 H554 0.950 . S
C561 C558 1.387 . S
C562 C563 1.387 . S
C562 H566 0.950 . S
C562 C571 1.390 . S
C563 C562 1.387 . S
C563 C565 1.387 . S
H564 C571 0.950 . S
C565 C563 1.387 . S
C565 C567 1.390 . S
C565 H569 0.950 . S
H566 C562 0.950 . S
C567 C565 1.390 . S
C567 C568 1.387 . S
C567 H570 0.950 . S
C568 C567 1.387 . S
C568 C571 1.387 . S
H569 C565 0.950 . S
H570 C567 0.950 . S
C571 C562 1.390 . S
C571 H564 0.950 . S
C571 C568 1.387 . S
C572 C573 1.387 . S
C572 H576 0.950 . S
C572 C581 1.390 . S
C573 C572 1.387 . S
C573 C575 1.387 . S
H574 C581 0.950 1_556 S
C575 C573 1.387 . S
C575 C577 1.390 . S
C575 H579 0.950 . S
H576 C572 0.950 . S
C577 C575 1.390 . S
C577 C578 1.387 1_554 S
C577 H580 0.950 1_554 S
C578 C577 1.387 1_556 S
C578 C581 1.387 1_556 S
H579 C575 0.950 . S
H580 C577 0.950 1_556 S
C581 C572 1.390 . S
C581 H574 0.950 1_554 S
C581 C578 1.387 1_554 S
C582 C583 1.387 . S
C582 H586 0.950 . S
C582 C591 1.390 . S
C583 C582 1.387 . S
C583 C585 1.387 . S
H584 C591 0.950 . S
C585 C583 1.387 . S
C585 C587 1.390 . S
C585 H589 0.950 . S
H586 C582 0.950 . S
C587 C585 1.390 . S
C587 C588 1.387 . S
C587 H590 0.950 . S
C588 C587 1.387 . S
C588 C591 1.387 . S
H589 C585 0.950 . S
H590 C587 0.950 . S
C591 C582 1.390 . S
C591 H584 0.950 . S
C591 C588 1.387 . S
C592 C593 1.387 . S
C592 H596 0.950 . S
C592 C601 1.390 . S
C593 C592 1.387 . S
C593 C595 1.387 . S
H594 C601 0.950 . S
C595 C593 1.387 . S
C595 C597 1.390 . S
C595 H599 0.950 . S
H596 C592 0.950 . S
C597 C595 1.390 . S
C597 C598 1.387 . S
C597 H600 0.950 . S
C598 C597 1.387 . S
C598 C601 1.387 . S
H599 C595 0.950 . S
H600 C597 0.950 . S
C601 C592 1.390 . S
C601 H594 0.950 . S
C601 C598 1.387 . S
C602 C603 1.387 . S
C602 H606 0.950 . S
C602 C611 1.390 . S
C603 C602 1.387 . S
C603 C605 1.387 . S
H604 C611 0.950 . S
C605 C603 1.387 . S
C605 C607 1.390 . S
C605 H609 0.950 . S
H606 C602 0.950 . S
C607 C605 1.390 . S
C607 C608 1.387 . S
C607 H610 0.950 . S
C608 C607 1.387 . S
C608 C611 1.387 . S
H609 C605 0.950 . S
H610 C607 0.950 . S
C611 C602 1.390 . S
C611 H604 0.950 . S
C611 C608 1.387 . S
C612 C613 1.387 . S
C612 H616 0.950 . S
C612 C621 1.390 1_655 S
C613 C612 1.387 . S
C613 C615 1.387 . S
H614 C621 0.950 . S
C615 C613 1.387 . S
C615 C617 1.390 1_655 S
C615 H619 0.950 . S
H616 C612 0.950 . S
C617 C615 1.390 1_455 S
C617 C618 1.387 . S
C617 H620 0.950 . S
C618 C617 1.387 . S
C618 C621 1.387 . S
H619 C615 0.950 . S
H620 C617 0.950 . S
C621 C612 1.390 1_455 S
C621 H614 0.950 . S
C621 C618 1.387 . S
C622 C623 1.387 . S
C622 H626 0.950 . S
C622 C631 1.390 1_655 S
C623 C622 1.387 . S
C623 C625 1.387 . S
H624 C631 0.950 . S
C625 C623 1.387 . S
C625 C627 1.390 1_655 S
C625 H629 0.950 . S
H626 C622 0.950 . S
C627 C625 1.390 1_455 S
C627 C628 1.387 . S
C627 H630 0.950 . S
C628 C627 1.387 . S
C628 C631 1.387 . S
H629 C625 0.950 . S
H630 C627 0.950 . S
C631 C622 1.390 1_455 S
C631 H624 0.950 . S
C631 C628 1.387 . S
C632 C633 1.387 . S
C632 H636 0.950 . S
C632 C641 1.390 . S
C633 C632 1.387 . S
C633 C635 1.387 . S
H634 C641 0.950 . S
C635 C633 1.387 . S
C635 C637 1.390 . S
C635 H639 0.950 . S
H636 C632 0.950 . S
C637 C635 1.390 . S
C637 C638 1.387 . S
C637 H640 0.950 . S
C638 C637 1.387 . S
C638 C641 1.387 . S
H639 C635 0.950 . S
H640 C637 0.950 . S
C641 C632 1.390 . S
C641 H634 0.950 . S
C641 C638 1.387 . S
C642 C643 1.387 . S
C642 H646 0.950 . S
C642 C651 1.390 . S
C643 C642 1.387 . S
C643 C645 1.387 . S
H644 C651 0.950 . S
C645 C643 1.387 . S
C645 C647 1.390 . S
C645 H649 0.950 . S
H646 C642 0.950 . S
C647 C645 1.390 . S
C647 C648 1.387 . S
C647 H650 0.950 . S
C648 C647 1.387 . S
C648 C651 1.387 . S
H649 C645 0.950 . S
H650 C647 0.950 . S
C651 C642 1.390 . S
C651 H644 0.950 . S
C651 C648 1.387 . S
C652 C653 1.387 . S
C652 H656 0.950 . S
C652 C661 1.390 1_455 S
C653 C652 1.387 . S
C653 C655 1.387 . S
H654 C661 0.950 . S
C655 C653 1.387 . S
C655 C657 1.390 1_455 S
C655 H659 0.950 . S
H656 C652 0.950 . S
C657 C655 1.390 1_655 S
C657 C658 1.387 . S
C657 H660 0.950 . S
C658 C657 1.387 . S
C658 C661 1.387 . S
H659 C655 0.950 . S
H660 C657 0.950 . S
C661 C652 1.390 1_655 S
C661 H654 0.950 . S
C661 C658 1.387 . S
C662 C663 1.387 . S
C662 H666 0.950 . S
C662 C671 1.390 1_455 S
C663 C662 1.387 . S
C663 C665 1.387 . S
H664 C671 0.950 . S
C665 C663 1.387 . S
C665 C667 1.390 1_455 S
C665 H669 0.950 . S
H666 C662 0.950 . S
C667 C665 1.390 1_655 S
C667 C668 1.387 . S
C667 H670 0.950 . S
C668 C667 1.387 . S
C668 C671 1.387 . S
H669 C665 0.950 . S
H670 C667 0.950 . S
C671 C662 1.390 1_655 S
C671 H664 0.950 . S
C671 C668 1.387 . S
C672 C673 1.387 . S
C672 H676 0.950 . S
C672 C681 1.390 . S
C673 C672 1.387 . S
C673 C675 1.387 . S
H674 C681 0.950 . S
C675 C673 1.387 . S
C675 C677 1.390 . S
C675 H679 0.950 . S
H676 C672 0.950 . S
C677 C675 1.390 . S
C677 C678 1.387 . S
C677 H680 0.950 . S
C678 C677 1.387 . S
C678 C681 1.387 . S
H679 C675 0.950 . S
H680 C677 0.950 . S
C681 C672 1.390 . S
C681 H674 0.950 . S
C681 C678 1.387 . S
C682 C683 1.387 . S
C682 H686 0.950 . S
C682 C691 1.390 . S
C683 C682 1.387 . S
C683 C685 1.387 . S
H684 C691 0.950 . S
C685 C683 1.387 . S
C685 C687 1.390 . S
C685 H689 0.950 . S
H686 C682 0.950 . S
C687 C685 1.390 . S
C687 C688 1.387 . S
C687 H690 0.950 . S
C688 C687 1.387 . S
C688 C691 1.387 . S
H689 C685 0.950 . S
H690 C687 0.950 . S
C691 C682 1.390 . S
C691 H684 0.950 . S
C691 C688 1.387 . S
C692 C693 1.387 . S
C692 H696 0.950 . S
C692 C701 1.390 . S
C693 C692 1.387 . S
C693 C695 1.387 . S
H694 C701 0.950 . S
C695 C693 1.387 . S
C695 C697 1.390 . S
C695 H699 0.950 . S
H696 C692 0.950 . S
C697 C695 1.390 . S
C697 C698 1.387 . S
C697 H700 0.950 . S
C698 C697 1.387 . S
C698 C701 1.387 . S
H699 C695 0.950 . S
H700 C697 0.950 . S
C701 C692 1.390 . S
C701 H694 0.950 . S
C701 C698 1.387 . S
C702 C703 1.387 . S
C702 H706 0.950 . S
C702 C711 1.390 . S
C703 C702 1.387 . S
C703 C705 1.387 . S
H704 C711 0.950 . S
C705 C703 1.387 . S
C705 C707 1.390 . S
C705 H709 0.950 . S
H706 C702 0.950 . S
C707 C705 1.390 . S
C707 C708 1.387 . S
C707 H710 0.950 . S
C708 C707 1.387 . S
C708 C711 1.387 . S
H709 C705 0.950 . S
H710 C707 0.950 . S
C711 C702 1.390 . S
C711 H704 0.950 . S
C711 C708 1.387 . S
C712 C713 1.387 . S
C712 H716 0.950 . S
C712 C721 1.390 . S
C713 C712 1.387 . S
C713 C715 1.387 . S
H714 C721 0.950 . S
C715 C713 1.387 . S
C715 C717 1.390 . S
C715 H719 0.950 . S
H716 C712 0.950 . S
C717 C715 1.390 . S
C717 C718 1.387 . S
C717 H720 0.950 . S
C718 C717 1.387 . S
C718 C721 1.387 . S
H719 C715 0.950 . S
H720 C717 0.950 . S
C721 C712 1.390 . S
C721 H714 0.950 . S
C721 C718 1.387 . S
C722 C723 1.387 . S
C722 H726 0.950 . S
C722 C731 1.390 . S
C723 C722 1.387 . S
C723 C725 1.387 . S
H724 C731 0.950 . S
C725 C723 1.387 . S
C725 C727 1.390 . S
C725 H729 0.950 . S
H726 C722 0.950 . S
C727 C725 1.390 . S
C727 C728 1.387 . S
C727 H730 0.950 . S
C728 C727 1.387 . S
C728 C731 1.387 . S
H729 C725 0.950 . S
H730 C727 0.950 . S
C731 C722 1.390 . S
C731 H724 0.950 . S
C731 C728 1.387 . S
C732 C733 1.387 . S
C732 H736 0.950 . S
C732 C741 1.390 . S
C733 C732 1.387 . S
C733 C735 1.387 . S
H734 C741 0.950 . S
C735 C733 1.387 . S
C735 C737 1.390 . S
C735 H739 0.950 . S
H736 C732 0.950 . S
C737 C735 1.390 . S
C737 C738 1.387 . S
C737 H740 0.950 . S
C738 C737 1.387 . S
C738 C741 1.387 . S
H739 C735 0.950 . S
H740 C737 0.950 . S
C741 C732 1.390 . S
C741 H734 0.950 . S
C741 C738 1.387 . S
C742 C743 1.387 . S
C742 H746 0.950 . S
C742 C751 1.390 . S
C743 C742 1.387 . S
C743 C745 1.387 . S
H744 C751 0.950 . S
C745 C743 1.387 . S
C745 C747 1.390 . S
C745 H749 0.950 . S
H746 C742 0.950 . S
C747 C745 1.390 . S
C747 C748 1.387 . S
C747 H750 0.950 . S
C748 C747 1.387 . S
C748 C751 1.387 . S
H749 C745 0.950 . S
H750 C747 0.950 . S
C751 C742 1.390 . S
C751 H744 0.950 . S
C751 C748 1.387 . S
C752 C753 1.387 . S
C752 H756 0.950 . S
C752 C761 1.390 . S
C753 C752 1.387 . S
C753 C755 1.387 . S
H754 C761 0.950 . S
C755 C753 1.387 . S
C755 C757 1.390 . S
C755 H759 0.950 . S
H756 C752 0.950 . S
C757 C755 1.390 . S
C757 C758 1.387 . S
C757 H760 0.950 . S
C758 C757 1.387 . S
C758 C761 1.387 . S
H759 C755 0.950 . S
H760 C757 0.950 . S
C761 C752 1.390 . S
C761 H754 0.950 . S
C761 C758 1.387 . S
C762 C763 1.387 . S
C762 H766 0.950 . S
C762 C771 1.390 1_565 S
C763 C762 1.387 . S
C763 C765 1.387 . S
H764 C771 0.950 . S
C765 C763 1.387 . S
C765 C767 1.390 . S
C765 H769 0.950 . S
H766 C762 0.950 . S
C767 C765 1.390 . S
C767 C768 1.387 1_565 S
C767 H770 0.950 1_565 S
C768 C767 1.387 1_545 S
C768 C771 1.387 . S
H769 C765 0.950 . S
H770 C767 0.950 1_545 S
C771 C762 1.390 1_545 S
C771 H764 0.950 . S
C771 C768 1.387 . S
C772 C773 1.387 . S
C772 H776 0.950 . S
C772 C781 1.390 . S
C773 C772 1.387 . S
C773 C775 1.387 . S
H774 C781 0.950 . S
C775 C773 1.387 . S
C775 C777 1.390 . S
C775 H779 0.950 . S
H776 C772 0.950 . S
C777 C775 1.390 . S
C777 C778 1.387 . S
C777 H780 0.950 . S
C778 C777 1.387 . S
C778 C781 1.387 . S
H779 C775 0.950 . S
H780 C777 0.950 . S
C781 C772 1.390 . S
C781 H774 0.950 . S
C781 C778 1.387 . S
C782 C783 1.387 . S
C782 H786 0.950 . S
C782 C791 1.390 1_565 S
C783 C782 1.387 . S
C783 C785 1.387 1_565 S
H784 C791 0.950 . S
C785 C783 1.387 1_545 S
C785 C787 1.390 . S
C785 H789 0.951 . S
H786 C782 0.950 . S
C787 C785 1.390 . S
C787 C788 1.387 . S
C787 H790 0.950 . S
C788 C787 1.387 . S
C788 C791 1.387 . S
H789 C785 0.951 . S
H790 C787 0.950 . S
C791 C782 1.390 1_545 S
C791 H784 0.950 . S
C791 C788 1.387 . S
C792 C793 1.387 . S
C792 H796 0.950 . S
C792 C801 1.390 . S
C793 C792 1.387 . S
C793 C795 1.387 . S
H794 C801 0.950 . S
C795 C793 1.387 . S
C795 C797 1.390 . S
C795 H799 0.950 . S
H796 C792 0.950 . S
C797 C795 1.390 . S
C797 C798 1.387 . S
C797 H800 0.950 . S
C798 C797 1.387 . S
C798 C801 1.387 . S
H799 C795 0.950 . S
H800 C797 0.950 . S
C801 C792 1.390 . S
C801 H794 0.950 . S
C801 C798 1.387 . S
C802 C803 1.387 . S
C802 H806 0.950 . S
C802 C811 1.390 1_565 S
C803 C802 1.387 . S
C803 C805 1.387 . S
H804 C811 0.950 . S
C805 C803 1.387 . S
C805 C807 1.390 1_565 S
C805 H809 0.950 . S
H806 C802 0.950 . S
C807 C805 1.390 1_545 S
C807 C808 1.387 . S
C807 H810 0.950 . S
C808 C807 1.387 . S
C808 C811 1.387 . S
H809 C805 0.950 . S
H810 C807 0.950 . S
C811 C802 1.390 1_545 S
C811 H804 0.950 . S
C811 C808 1.387 . S
C812 C813 1.387 . S
C812 H816 0.950 . S
C812 C821 1.390 . S
C813 C812 1.387 . S
C813 C815 1.387 . S
H814 C821 0.950 . S
C815 C813 1.387 . S
C815 C817 1.390 . S
C815 H819 0.950 . S
H816 C812 0.950 . S
C817 C815 1.390 . S
C817 C818 1.387 . S
C817 H820 0.950 . S
C818 C817 1.387 . S
C818 C821 1.387 . S
H819 C815 0.950 . S
H820 C817 0.950 . S
C821 C812 1.390 . S
C821 H814 0.950 . S
C821 C818 1.387 . S
C822 C823 1.387 . S
C822 H826 0.950 . S
C822 C831 1.390 . S
C823 C822 1.387 . S
C823 C825 1.387 . S
H824 C831 0.950 . S
C825 C823 1.387 . S
C825 C827 1.390 1_565 S
C825 H829 0.950 . S
H826 C822 0.950 . S
C827 C825 1.390 1_545 S
C827 C828 1.387 . S
C827 H830 0.950 . S
C828 C827 1.387 . S
C828 C831 1.387 1_545 S
H829 C825 0.950 . S
H830 C827 0.950 . S
C831 C822 1.390 . S
C831 H824 0.950 . S
C831 C828 1.387 1_565 S
C353 C7 1.223 . S
C358 C271 1.223 . S
C363 C125 1.220 . S
C368 C29 1.220 . S
C373 C65 1.223 . S
C378 C323 1.223 . S
C383 C73 1.220 . S
C388 C175 1.220 . S
C393 C95 1.220 . S
C398 C183 1.220 . S
C403 C227 1.223 . S
C408 C147 1.223 . S
C413 C307 1.220 1_545 S
C418 C219 1.220 1_565 S
C423 C249 1.222 1_545 S
C428 C337 1.222 1_565 S
C433 C213 1.634 . S
C438 C10 1.618 . S
C443 C32 1.615 . S
C448 C241 1.634 . S
C453 C62 1.616 . S
C458 C263 1.634 . S
C463 C197 1.634 . S
C468 C76 1.618 . S
C473 C301 1.635 . S
C478 C98 1.618 . S
C483 C315 1.634 . S
C488 C118 1.615 . S
C493 C140 1.618 . S
C498 C351 1.635 . S
C503 C285 1.634 . S
C508 C172 1.616 . S
C513 C186 1.616 . S
C518 C43 1.634 . S
C523 C216 1.618 1_565 S
C528 C59 1.634 . S
C533 C230 1.616 . S
C538 C87 1.634 . S
C543 C21 1.635 . S
C548 C252 1.616 1_545 S
C553 C117 1.635 . S
C558 C274 1.618 . S
C563 C304 1.615 1_545 S
C568 C139 1.634 . S
C573 C169 1.635 . S
C578 C316 1.618 . S
C583 C340 1.618 1_565 S
C588 C109 1.635 . S
C593 C8 1.137 . S
C598 C228 1.137 . S
C603 C30 1.142 . S
C608 C250 1.142 . S
C613 C184 1.142 . S
C618 C54 1.142 . S
C623 C74 1.137 . S
C628 C208 1.137 . S
C633 C96 1.142 . S
C638 C326 1.142 . S
C643 C128 1.142 . S
C648 C338 1.142 . S
C653 C272 1.142 . S
C658 C150 1.142 . S
C663 C164 1.142 . S
C668 C296 1.142 . S
C673 C18 1.561 . S
C678 C161 1.619 . S
C683 C279 1.619 . S
C688 C40 1.560 . S
C693 C52 1.563 . S
C698 C131 1.617 . S
C703 C84 1.560 . S
C708 C329 1.619 . S
C713 C106 1.561 . S
C718 C81 1.619 . S
C723 C191 1.617 . S
C728 C120 1.564 . S
C733 C142 1.561 . S
C738 C37 1.619 . S
C743 C235 1.617 . S
C748 C162 1.564 . S
C753 C194 1.563 . S
C758 C345 1.617 . S
C763 C103 1.619 . S
C768 C206 1.560 . S
C773 C293 1.619 . S
C778 C238 1.561 . S
C783 C260 1.560 . S
C788 C153 1.619 . S
C793 C282 1.563 . S
C798 C257 1.617 . S
C803 C294 1.561 . S
C808 C15 1.619 . S
C813 C205 1.619 . S
C818 C318 1.561 . S
C823 C51 1.619 . S
C828 C348 1.560 . S
