# Generated by pormake.
# Topology crb, (4)-cn, num edge types: 1
# Building blocks:
#     Node 0, Type 0, BuildingBlock: QUQFOY_clean_sbu_1, # of connection points: 4
#     Node 1, Type 0, BuildingBlock: QUQFOY_clean_sbu_1, # of connection points: 4
#     Node 2, Type 0, BuildingBlock: QUQFOY_clean_sbu_1, # of connection points: 4
#     Node 3, Type 0, BuildingBlock: QUQFOY_clean_sbu_1, # of connection points: 4
#     Node 4, Type 0, BuildingBlock: QUQFOY_clean_sbu_1, # of connection points: 4
#     Node 5, Type 0, BuildingBlock: QUQFOY_clean_sbu_1, # of connection points: 4
#     Node 6, Type 0, BuildingBlock: QUQFOY_clean_sbu_1, # of connection points: 4
#     Node 7, Type 0, BuildingBlock: QUQFOY_clean_sbu_1, # of connection points: 4
#     Edge 8, Type (0, 0), BuildingBlock: TEMPAE_clean_linker_10, # of connection points: 2
#     Edge 9, Type (0, 0), BuildingBlock: TEMPAE_clean_linker_10, # of connection points: 2
#     Edge 10, Type (0, 0), BuildingBlock: TEMPAE_clean_linker_10, # of connection points: 2
#     Edge 11, Type (0, 0), BuildingBlock: TEMPAE_clean_linker_10, # of connection points: 2
#     Edge 12, Type (0, 0), BuildingBlock: TEMPAE_clean_linker_10, # of connection points: 2
#     Edge 13, Type (0, 0), BuildingBlock: TEMPAE_clean_linker_10, # of connection points: 2
#     Edge 14, Type (0, 0), BuildingBlock: TEMPAE_clean_linker_10, # of connection points: 2
#     Edge 15, Type (0, 0), BuildingBlock: TEMPAE_clean_linker_10, # of connection points: 2
#     Edge 16, Type (0, 0), BuildingBlock: TEMPAE_clean_linker_10, # of connection points: 2
#     Edge 17, Type (0, 0), BuildingBlock: TEMPAE_clean_linker_10, # of connection points: 2
#     Edge 18, Type (0, 0), BuildingBlock: TEMPAE_clean_linker_10, # of connection points: 2
#     Edge 19, Type (0, 0), BuildingBlock: TEMPAE_clean_linker_10, # of connection points: 2
#     Edge 20, Type (0, 0), BuildingBlock: TEMPAE_clean_linker_10, # of connection points: 2
#     Edge 21, Type (0, 0), BuildingBlock: TEMPAE_clean_linker_10, # of connection points: 2
#     Edge 22, Type (0, 0), BuildingBlock: TEMPAE_clean_linker_10, # of connection points: 2
#     Edge 23, Type (0, 0), BuildingBlock: TEMPAE_clean_linker_10, # of connection points: 2
# Relax obj value: 0.153
# Max RMSD: 0.215
# Mean RMSD: 0.215
data_MOF--net-crb--node1-QUQFOY_clean_sbu_1--edge1-TEMPAE_clean_linker_10
_symmetry_space_group_name_H-M    P1
_symmetry_Int_Tables_number       1
_symmetry_cell_setting            triclinic
loop_
_symmetry_equiv_pos_as_xyz
'x, y, z'
_cell_length_a     40.945044
_cell_length_b     51.557813
_cell_length_c     23.686445
_cell_angle_alpha  90.003699
_cell_angle_beta   89.883825
_cell_angle_gamma 89.984522
loop_
_atom_site_label
_atom_site_type_symbol
_atom_site_fract_x
_atom_site_fract_y
_atom_site_fract_z
_atom_type_partial_charge
O0 O 0.28736 0.3144 0.03019 0.0
Cd1 Cd 0.30901 0.32778 0.10267 0.0
Cd2 Cd 0.30908 0.37265 0.02962 0.0
O3 O 0.28741 0.348 0.9725 0.0
O4 O 0.30771 0.29451 0.1447 0.0
O5 O 0.28292 0.32997 0.17519 0.0
C6 C 0.28948 0.30567 0.18157 0.0
C7 C 0.28827 0.41406 0.04484 0.0
C8 C 0.28075 0.3244 0.98264 0.0
C9 C 0.37356 0.35347 0.07534 0.0
O10 O 0.35848 0.36915 0.04329 0.0
O11 O 0.35813 0.33625 0.10292 0.0
O12 O 0.30449 0.40842 -0.00022 0.0
O13 O 0.28251 0.3957 0.08066 0.0
O14 O 0.69826 0.30442 0.13855 0.0
Cd15 Cd 0.68174 0.32362 0.06798 0.0
Cd16 Cd 0.68403 0.36439 0.1481 0.0
O17 O 0.7044 0.33652 0.19935 0.0
O18 O 0.67877 0.29436 0.01384 0.0
O19 O 0.71298 0.32701 0.00203 0.0
C20 C 0.70149 0.30513 0.98462 0.0
C21 C 0.70713 0.40534 0.13749 0.0
C22 C 0.70682 0.31262 0.18686 0.0
C23 C 0.61901 0.35141 0.09799 0.0
O24 O 0.6343 0.36351 0.13637 0.0
O25 O 0.63407 0.33614 0.06494 0.0
O26 O 0.69173 0.39889 0.18292 0.0
O27 O 0.71105 0.38789 0.09885 0.0
O28 O 0.69969 0.69362 0.04245 0.0
Cd29 Cd 0.68369 0.67438 0.11337 0.0
Cd30 Cd 0.68584 0.63351 0.03215 0.0
O31 O 0.70553 0.66178 0.98086 0.0
O32 O 0.67971 0.70396 0.16652 0.0
O33 O 0.7148 0.67202 0.17952 0.0
C34 C 0.70259 0.6938 0.1962 0.0
C35 C 0.7091 0.59254 0.04093 0.0
C36 C 0.70791 0.68564 0.99374 0.0
C37 C 0.62119 0.64587 0.08482 0.0
O38 O 0.63624 0.63396 0.04575 0.0
O39 O 0.63635 0.66126 0.11734 0.0
O40 O 0.69344 0.59927 -0.00393 0.0
O41 O 0.71332 0.60977 0.0799 0.0
O42 O 0.29996 0.70078 0.15068 0.0
Cd43 Cd 0.31537 0.68064 0.08048 0.0
Cd44 Cd 0.31115 0.64031 0.16096 0.0
O45 O 0.29214 0.66901 0.21176 0.0
O46 O 0.31913 0.70925 0.02488 0.0
O47 O 0.28362 0.67731 0.01557 0.0
C48 C 0.29581 0.69873 -0.0032 0.0
C49 C 0.28641 0.59998 0.15135 0.0
C50 C 0.29094 0.69295 0.19908 0.0
C51 C 0.37663 0.6508 0.10973 0.0
O52 O 0.36082 0.63936 0.14855 0.0
O53 O 0.36234 0.66658 0.07691 0.0
O54 O 0.30178 0.60631 0.19677 0.0
O55 O 0.28328 0.61732 0.1123 0.0
O56 O 0.79739 0.80615 0.54222 0.0
Cd57 Cd 0.813 0.82561 0.61303 0.0
Cd58 Cd 0.80937 0.86655 0.53259 0.0
O59 O 0.7906 0.83804 0.48109 0.0
O60 O 0.81742 0.79622 0.66651 0.0
O61 O 0.7817 0.82778 0.67911 0.0
C62 C 0.79425 0.80618 0.69603 0.0
C63 C 0.78469 0.90696 0.54189 0.0
C64 C 0.78888 0.81411 0.4937 0.0
C65 C 0.87451 0.85549 0.5844 0.0
O66 O 0.85897 0.86725 0.54581 0.0
O67 O 0.85998 0.83958 0.61668 0.0
O68 O 0.80059 0.90066 0.49688 0.0
O69 O 0.78105 0.88957 0.58073 0.0
O70 O 0.19726 0.8095 0.65116 0.0
Cd71 Cd 0.1815 0.82938 0.58098 0.0
Cd72 Cd 0.18387 0.86968 0.66225 0.0
O73 O 0.20319 0.84114 0.71313 0.0
O74 O 0.1783 0.80059 0.52575 0.0
O75 O 0.21311 0.83296 0.51564 0.0
C76 C 0.20129 0.81136 0.49721 0.0
C77 C 0.20802 0.91028 0.65317 0.0
C78 C 0.20547 0.8173 0.69996 0.0
C79 C 0.1191 0.85796 0.60995 0.0
O80 O 0.13426 0.86977 0.6489 0.0
O81 O 0.13413 0.84247 0.57735 0.0
O82 O 0.19213 0.90385 0.69811 0.0
O83 O 0.21189 0.89296 0.61426 0.0
O84 O 0.18823 0.19847 0.52748 0.0
Cd85 Cd 0.17666 0.18158 0.60336 0.0
Cd86 Cd 0.18779 0.13741 0.53653 0.0
O87 O 0.21029 0.16454 0.48515 0.0
O88 O 0.17038 0.21271 0.65135 0.0
O89 O 0.2092 0.18386 0.667 0.0
C90 C 0.19498 0.2053 0.68085 0.0
C91 C 0.21104 0.09666 0.55052 0.0
C92 C 0.20431 0.18871 0.4869 0.0
C93 C 0.11973 0.14759 0.57938 0.0
O94 O 0.13724 0.13653 0.54215 0.0
O95 O 0.13215 0.16429 0.61221 0.0
O96 O 0.19742 0.10284 0.50341 0.0
O97 O 0.21328 0.11429 0.5891 0.0
O98 O 0.79969 0.194 0.63846 0.0
Cd99 Cd 0.81459 0.1742 0.56748 0.0
Cd100 Cd 0.81076 0.1334 0.64828 0.0
O101 O 0.79271 0.16225 0.69989 0.0
O102 O 0.81893 0.20335 0.51335 0.0
O103 O 0.78277 0.17201 0.50244 0.0
C104 C 0.79542 0.19345 0.48473 0.0
C105 C 0.78542 0.09322 0.64026 0.0
C106 C 0.79127 0.18618 0.68719 0.0
C107 C 0.87572 0.14354 0.59442 0.0
O108 O 0.86025 0.13206 0.63357 0.0
O109 O 0.86128 0.15965 0.56256 0.0
O110 O 0.80167 0.09952 0.68477 0.0
O111 O 0.78179 0.11052 0.60125 0.0
C112 C 0.25518 0.4475 0.09668 0.0
C113 C 0.27949 0.44129 0.05714 0.0
C114 C 0.24932 0.47344 0.11216 0.0
C115 C 0.26907 0.49337 0.08908 0.0
C116 C 0.2929 0.48718 0.0478 0.0
C117 C 0.29743 0.4613 0.03175 0.0
C118 C 0.22285 0.47939 0.15465 0.0
C119 C 0.31506 0.5077 0.023 0.0
C120 C 0.25535 0.56603 0.0977 0.0
C121 C 0.27656 0.57273 0.14176 0.0
C122 C 0.25029 0.5399 0.08306 0.0
C123 C 0.26772 0.52023 0.11192 0.0
C124 C 0.28772 0.52688 0.15842 0.0
C125 C 0.29148 0.553 0.17326 0.0
C126 C 0.22773 0.53349 0.03474 0.0
C127 C 0.30732 0.50663 0.18967 0.0
H128 H 0.24105 0.43209 0.11601 0.0
H129 H 0.31635 0.4566 0.00133 0.0
H130 H 0.23405 0.48408 0.19599 0.0
H131 H 0.20846 0.49655 0.1412 0.0
H132 H 0.20601 0.46272 0.16063 0.0
H133 H 0.3317 0.49976 0.99018 0.0
H134 H 0.30039 0.52349 0.00391 0.0
H135 H 0.33009 0.51645 0.05698 0.0
H136 H 0.24349 0.5812 0.0736 0.0
H137 H 0.30793 0.55802 0.20735 0.0
H138 H 0.21261 0.51625 0.04493 0.0
H139 H 0.24237 0.52877 -0.00334 0.0
H140 H 0.21134 0.54998 0.02435 0.0
H141 H 0.29135 0.49051 0.20368 0.0
H142 H 0.31993 0.51476 0.2272 0.0
H143 H 0.32601 0.49829 0.1609 0.0
C144 C 0.42664 0.3374 0.11398 0.0
C145 C 0.40955 0.35506 0.08 0.0
C146 C 0.46079 0.33813 0.11745 0.0
C147 C 0.47826 0.35699 0.08622 0.0
C148 C 0.46121 0.37516 0.05262 0.0
C149 C 0.42703 0.37397 0.04987 0.0
C150 C 0.47821 0.31844 0.15377 0.0
C151 C 0.4791 0.39556 0.01885 0.0
C152 C 0.56568 0.36986 0.13095 0.0
C153 C 0.58316 0.35423 0.09295 0.0
C154 C 0.5315 0.37141 0.12854 0.0
C155 C 0.51448 0.35698 0.08717 0.0
C156 C 0.532 0.34168 0.04784 0.0
C157 C 0.56612 0.3405 0.05119 0.0
C158 C 0.51355 0.38798 0.17104 0.0
C159 C 0.51465 0.32607 0.00302 0.0
H160 H 0.41337 0.32276 0.13753 0.0
H161 H 0.41405 0.38776 0.02365 0.0
H162 H 0.49429 0.30618 0.12706 0.0
H163 H 0.49401 0.32842 0.18493 0.0
H164 H 0.46096 0.30561 0.17688 0.0
H165 H 0.46214 0.40894 -0.00331 0.0
H166 H 0.49513 0.40713 0.04692 0.0
H167 H 0.49503 0.3861 0.98699 0.0
H168 H 0.57863 0.38059 0.16326 0.0
H169 H 0.5794 0.32844 0.0215 0.0
H170 H 0.49785 0.37555 0.19801 0.0
H171 H 0.49729 0.4019 0.14907 0.0
H172 H 0.53047 0.39903 0.19867 0.0
H173 H 0.49874 0.31133 0.02326 0.0
H174 H 0.53194 0.316 0.97422 0.0
H175 H 0.49868 0.33888 0.97749 0.0
C176 C 0.70007 0.45236 0.15704 0.0
C177 C 0.71656 0.43267 0.12779 0.0
C178 C 0.70444 0.4785 0.14278 0.0
C179 C 0.72668 0.48522 0.09933 0.0
C180 C 0.74528 0.46556 0.07253 0.0
C181 C 0.73955 0.4394 0.08634 0.0
C182 C 0.68351 0.49872 0.17159 0.0
C183 C 0.77016 0.47204 0.02763 0.0
C184 C 0.70178 0.54568 0.01989 0.0
C185 C 0.71827 0.56509 0.0499 0.0
C186 C 0.70555 0.51945 0.03386 0.0
C187 C 0.72715 0.51235 0.07783 0.0
C188 C 0.74586 0.53171 0.10527 0.0
C189 C 0.74075 0.55796 0.09169 0.0
C190 C 0.68453 0.49957 0.00431 0.0
C191 C 0.7701 0.52481 0.15076 0.0
H192 H 0.68217 0.44728 0.18897 0.0
H193 H 0.75258 0.42424 0.06399 0.0
H194 H 0.69898 0.51433 0.18941 0.0
H195 H 0.66696 0.5078 0.14022 0.0
H196 H 0.66841 0.4904 0.20615 0.0
H197 H 0.78668 0.45542 0.01878 0.0
H198 H 0.75747 0.47728 0.98791 0.0
H199 H 0.78508 0.48899 0.04053 0.0
H200 H 0.68428 0.55105 0.98764 0.0
H201 H 0.75379 0.5729 0.11465 0.0
H202 H 0.66727 0.49081 0.03509 0.0
H203 H 0.69983 0.48368 0.98713 0.0
H204 H 0.67017 0.50812 0.96917 0.0
H205 H 0.75686 0.51982 0.19018 0.0
H206 H 0.78696 0.54115 0.15998 0.0
H207 H 0.7847 0.5076 0.13826 0.0
C208 C 0.42837 0.62836 0.13789 0.0
C209 C 0.4122 0.64653 0.10382 0.0
C210 C 0.46239 0.62538 0.13491 0.0
C211 C 0.48058 0.64107 0.09728 0.0
C212 C 0.46432 0.65888 0.06162 0.0
C213 C 0.43033 0.66134 0.0652 0.0
C214 C 0.47896 0.60602 0.17318 0.0
C215 C 0.48295 0.67601 0.02104 0.0
C216 C 0.56832 0.6582 0.13011 0.0
C217 C 0.58543 0.64286 0.09107 0.0
C218 C 0.53422 0.65717 0.1337 0.0
C219 C 0.51678 0.64028 0.09763 0.0
C220 C 0.53389 0.624 0.05964 0.0
C221 C 0.56807 0.62554 0.05667 0.0
C222 C 0.51677 0.67489 0.17469 0.0
C223 C 0.51605 0.60557 0.02094 0.0
H224 H 0.41453 0.6167 0.16756 0.0
H225 H 0.41806 0.67537 0.03857 0.0
H226 H 0.49535 0.59321 0.14834 0.0
H227 H 0.49434 0.61642 0.20433 0.0
H228 H 0.46113 0.59378 0.19648 0.0
H229 H 0.4665 0.68789 0.99421 0.0
H230 H 0.49916 0.68926 0.045 0.0
H231 H 0.49873 0.66405 0.9932 0.0
H232 H 0.5815 0.67158 0.15703 0.0
H233 H 0.58111 0.61349 0.02665 0.0
H234 H 0.50017 0.66351 0.20221 0.0
H235 H 0.50153 0.68896 0.15103 0.0
H236 H 0.534 0.68588 0.20183 0.0
H237 H 0.49874 0.59341 0.04546 0.0
H238 H 0.53302 0.59265 -0.00254 0.0
H239 H 0.50147 0.61678 0.98995 0.0
C240 C 0.75174 0.94078 0.59282 0.0
C241 C 0.77472 0.93419 0.55126 0.0
C242 C 0.74593 0.96689 0.60696 0.0
C243 C 0.7645 0.98664 0.58042 0.0
C244 C 0.78657 0.98007 0.53659 0.0
C245 C 0.79098 0.95398 0.52196 0.0
C246 C 0.72115 0.97321 0.65213 0.0
C247 C 0.80746 1.00037 0.50799 0.0
C248 C 0.75213 0.05948 0.59002 0.0
C249 C 0.77508 0.06604 0.63149 0.0
C250 C 0.74615 0.03337 0.57616 0.0
C251 C 0.76449 0.01359 0.60291 0.0
C252 C 0.78645 0.02013 0.64678 0.0
C253 C 0.79104 0.04622 0.66111 0.0
C254 C 0.72148 0.02709 0.53095 0.0
C255 C 0.80709 0.99977 0.67563 0.0
H256 H 0.73886 0.92554 0.6152 0.0
H257 H 0.80884 0.94902 0.48989 0.0
H258 H 0.73391 0.97764 0.69224 0.0
H259 H 0.70669 0.99059 0.64032 0.0
H260 H 0.70419 0.95676 0.65979 0.0
H261 H 0.82235 0.99219 0.473 0.0
H262 H 0.79199 0.01613 0.49078 0.0
H263 H 0.82421 0.00922 0.53935 0.0
H264 H 0.73946 0.07474 0.56741 0.0
H265 H 0.80886 0.05115 0.69315 0.0
H266 H 0.70687 0.0098 0.54284 0.0
H267 H 0.73435 0.02255 0.49092 0.0
H268 H 0.70466 0.04361 0.52312 0.0
H269 H 0.79147 0.98404 0.69263 0.0
H270 H 0.82177 0.00792 0.71081 0.0
H271 H 0.82402 0.9909 0.64447 0.0
C272 C 0.06619 0.8787 0.63833 0.0
C273 C 0.08338 0.86127 0.60379 0.0
C274 C 0.03204 0.8806 0.6353 0.0
C275 C 0.01479 0.86458 0.59711 0.0
C276 C 0.03207 0.84757 0.56094 0.0
C277 C 0.06615 0.84617 0.5646 0.0
C278 C 0.01437 0.89913 0.67414 0.0
C279 C 0.01448 0.83012 0.51974 0.0
C280 C 0.92789 0.84439 0.62909 0.0
C281 C 0.91012 0.85946 0.59057 0.0
C282 C 0.96191 0.84648 0.6328 0.0
C283 C 0.97857 0.86418 0.59736 0.0
C284 C 0.96076 0.88015 0.55984 0.0
C285 C 0.92669 0.87754 0.55675 0.0
C286 C 0.98012 0.82906 0.67325 0.0
C287 C 0.97776 0.8994 0.5218 0.0
H288 H 0.07932 0.89056 0.66847 0.0
H289 H 0.0792 0.83272 0.53758 0.0
H290 H -0.00262 0.91155 0.64967 0.0
H291 H -0.00053 0.88802 0.70493 0.0
H292 H 0.03147 0.9118 0.69786 0.0
H293 H 0.03161 0.81899 0.49255 0.0
H294 H -0.00109 0.81617 0.54321 0.0
H295 H -0.00184 0.84174 0.49227 0.0
H296 H 0.91532 0.83042 0.65555 0.0
H297 H 0.91313 0.88939 0.52714 0.0
H298 H -0.00397 0.84078 0.70122 0.0
H299 H -0.00382 0.81567 0.64918 0.0
H300 H 0.96339 0.81732 0.69995 0.0
H301 H 0.99429 0.91197 0.54679 0.0
H302 H 0.96021 0.91189 0.4986 0.0
H303 H 0.99305 0.88889 0.49056 0.0
C304 C 0.20415 0.04957 0.5321 0.0
C305 C 0.22001 0.06937 0.56191 0.0
C306 C 0.20781 0.02353 0.54762 0.0
C307 C 0.22876 0.01699 0.59293 0.0
C308 C 0.24681 0.03673 0.62041 0.0
C309 C 0.24172 0.06282 0.60532 0.0
C310 C 0.18742 0.00324 0.51804 0.0
C311 C 0.27041 0.03042 0.66729 0.0
C312 C 0.20096 0.95731 0.6724 0.0
C313 C 0.21784 0.93756 0.64403 0.0
C314 C 0.2055 0.98341 0.65797 0.0
C315 C 0.22833 0.99002 0.61535 0.0
C316 C 0.24739 0.9703 0.58974 0.0
C317 C 0.24146 0.94419 0.60359 0.0
C318 C 0.18403 0.00368 0.68541 0.0
C319 C 0.27292 0.97667 0.54587 0.0
H320 H 0.18721 0.05452 0.49867 0.0
H321 H 0.25425 0.07807 0.62814 0.0
H322 H 0.20317 0.98744 0.50171 0.0
H323 H 0.17003 0.99445 0.54854 0.0
H324 H 0.17325 0.01142 0.48226 0.0
H325 H 0.28695 0.04695 0.67656 0.0
H326 H 0.25664 0.02568 0.7063 0.0
H327 H 0.28538 0.0132 0.65618 0.0
H328 H 0.18258 0.9523 0.70354 0.0
H329 H 0.25479 0.92897 0.58194 0.0
H330 H 0.16775 0.01241 0.65317 0.0
H331 H 0.1991 0.01952 0.70324 0.0
H332 H 0.16863 0.99548 0.71971 0.0
H333 H 0.26083 0.98145 0.50533 0.0
H334 H 0.28981 0.96014 0.53849 0.0
H335 H 0.28739 0.99386 0.55884 0.0
C336 C 0.92772 0.12099 0.6209 0.0
C337 C 0.91124 0.13925 0.58747 0.0
C338 C 0.96183 0.11854 0.61813 0.0
C339 C 0.97977 0.13488 0.58145 0.0
C340 C 0.96316 0.15246 0.54575 0.0
C341 C 0.92909 0.15437 0.54905 0.0
C342 C 0.97874 0.09934 0.6563 0.0
C343 C 0.98147 0.1703 0.5062 0.0
C344 C 0.06492 0.15623 0.62133 0.0
C345 C 0.08428 0.14226 0.58299 0.0
C346 C 0.03096 0.15328 0.62244 0.0
C347 C 0.01593 0.13578 0.58457 0.0
C348 C 0.03534 0.12075 0.54741 0.0
C349 C 0.06936 0.12424 0.54689 0.0
C350 C 0.01108 0.16972 0.66265 0.0
C351 C 0.02009 0.10167 0.50695 0.0
H352 H 0.91409 0.10904 0.65029 0.0
H353 H 0.91659 0.16841 0.52277 0.0
H354 H -0.00306 0.08784 0.63219 0.0
H355 H 0.99214 0.10993 0.6898 0.0
H356 H 0.96122 0.08583 0.67678 0.0
H357 H 0.96483 0.18133 0.47805 0.0
H358 H -0.00394 0.18434 0.53112 0.0
H359 H -0.00123 0.15905 0.47968 0.0
H360 H 0.07618 0.1701 0.64964 0.0
H361 H 0.08417 0.11323 0.51741 0.0
H362 H 0.99488 0.15728 0.68867 0.0
H363 H 0.99521 0.18311 0.63832 0.0
H364 H 0.02665 0.18144 0.69131 0.0
H365 H 0.00282 0.08875 0.52962 0.0
H366 H 0.03868 0.08955 0.48518 0.0
H367 H 0.00587 0.11232 0.47456 0.0
C368 C 0.19673 0.22663 0.42364 0.0
C369 C 0.21626 0.20599 0.442 0.0
C370 C 0.20782 0.24372 0.3818 0.0
C371 C 0.23965 0.24059 0.35944 0.0
C372 C 0.25972 0.22004 0.37874 0.0
C373 C 0.24751 0.20264 0.41914 0.0
C374 C 0.18527 0.26479 0.36077 0.0
C375 C 0.29414 0.21655 0.357 0.0
C376 C 0.26027 0.26661 0.21433 0.0
C377 C 0.2752 0.29026 0.2274 0.0
C378 C 0.24771 0.25065 0.25692 0.0
C379 C 0.25142 0.2581 0.31403 0.0
C380 C 0.26659 0.28204 0.32746 0.0
C381 C 0.2778 0.29816 0.28367 0.0
C382 C 0.2306 0.22578 0.24076 0.0
C383 C 0.27185 0.2902 0.38797 0.0
H384 H 0.17248 0.2291 0.44134 0.0
H385 H 0.2627 0.18684 0.43404 0.0
H386 H 0.19646 0.28411 0.36764 0.0
H387 H 0.18144 0.26257 0.31465 0.0
H388 H 0.1611 0.26437 0.38217 0.0
H389 H 0.30728 0.2007 0.37915 0.0
H390 H 0.29369 0.21207 0.31122 0.0
H391 H 0.30812 0.23483 0.36229 0.0
H392 H 0.25821 0.26071 0.17052 0.0
H393 H 0.28971 0.31639 0.29342 0.0
H394 H 0.20602 0.22504 0.26052 0.0
H395 H 0.24458 0.20888 0.2567 0.0
H396 H 0.22783 0.22374 0.19432 0.0
H397 H 0.24812 0.29138 0.41047 0.0
H398 H 0.28429 0.30929 0.39123 0.0
H399 H 0.28685 0.27543 0.41007 0.0
C400 C 0.72018 0.30013 0.28622 0.0
C401 C 0.71942 0.29386 0.22869 0.0
C402 C 0.73155 0.28221 0.32619 0.0
C403 C 0.74292 0.25764 0.30797 0.0
C404 C 0.74227 0.25121 0.24996 0.0
C405 C 0.73029 0.26933 0.21104 0.0
C406 C 0.73157 0.28962 0.38788 0.0
C407 C 0.75477 0.22539 0.22889 0.0
C408 C 0.80271 0.22525 0.40704 0.0
C409 C 0.78267 0.20736 0.4351 0.0
C410 C 0.79032 0.24103 0.36402 0.0
C411 C 0.75691 0.23919 0.34951 0.0
C412 C 0.73675 0.22058 0.37645 0.0
C413 C 0.75001 0.20465 0.41872 0.0
C414 C 0.81277 0.26022 0.33537 0.0
C415 C 0.70093 0.2183 0.36239 0.0
H416 H 0.71156 0.31897 0.30013 0.0
H417 H 0.7299 0.26439 0.16656 0.0
H418 H 0.71798 0.27495 0.41287 0.0
H419 H 0.75699 0.28998 0.40397 0.0
H420 H 0.72036 0.30895 0.39535 0.0
H421 H 0.75185 0.22318 0.18252 0.0
H422 H 0.78104 0.22333 0.23942 0.0
H423 H 0.74163 0.20932 0.25019 0.0
H424 H 0.82808 0.22722 0.41938 0.0
H425 H 0.73445 0.19093 0.44068 0.0
H426 H 0.80497 0.28028 0.34568 0.0
H427 H 0.81134 0.25803 0.28884 0.0
H428 H 0.83861 0.2578 0.34855 0.0
H429 H 0.6882 0.23653 0.37413 0.0
H430 H 0.68904 0.20191 0.38489 0.0
H431 H 0.69763 0.21556 0.31631 0.0
C432 C 0.77653 0.80113 0.39425 0.0
C433 C 0.77697 0.79507 0.4519 0.0
C434 C 0.76561 0.78299 0.35437 0.0
C435 C 0.75433 0.75843 0.37279 0.0
C436 C 0.75474 0.75219 0.43091 0.0
C437 C 0.7663 0.77052 0.46974 0.0
C438 C 0.76588 0.79019 0.29257 0.0
C439 C 0.74231 0.7264 0.4522 0.0
C440 C 0.69497 0.72574 0.27348 0.0
C441 C 0.71512 0.70777 0.2459 0.0
C442 C 0.70718 0.74162 0.31646 0.0
C443 C 0.74053 0.73984 0.33137 0.0
C444 C 0.7608 0.72114 0.30492 0.0
C445 C 0.74772 0.70507 0.26272 0.0
C446 C 0.6846 0.76088 0.34462 0.0
C447 C 0.79658 0.71892 0.31938 0.0
H448 H 0.78501 0.81998 0.3802 0.0
H449 H 0.76645 0.76575 0.51431 0.0
H450 H 0.77953 0.7754 0.26797 0.0
H451 H 0.74053 0.79054 0.27615 0.0
H452 H 0.77716 0.80947 0.28494 0.0
H453 H 0.7452 0.72429 0.4986 0.0
H454 H 0.71606 0.72429 0.44163 0.0
H455 H 0.75551 0.71029 0.43109 0.0
H456 H 0.66966 0.72769 0.26077 0.0
H457 H 0.76336 0.6913 0.24109 0.0
H458 H 0.69238 0.78092 0.33409 0.0
H459 H 0.68588 0.75883 0.39119 0.0
H460 H 0.6588 0.75839 0.33124 0.0
H461 H 0.80933 0.7371 0.30739 0.0
H462 H 0.80855 0.70243 0.29731 0.0
H463 H 0.79974 0.71638 0.36554 0.0
C464 C 0.19465 0.78069 0.41736 0.0
C465 C 0.21444 0.79821 0.44685 0.0
C466 C 0.20747 0.76532 0.37394 0.0
C467 C 0.24107 0.76716 0.36053 0.0
C468 C 0.26095 0.78553 0.38873 0.0
C469 C 0.24726 0.80109 0.43135 0.0
C470 C 0.1853 0.74642 0.34392 0.0
C471 C 0.29696 0.7878 0.37589 0.0
C472 C 0.27755 0.7059 0.29821 0.0
C473 C 0.27894 0.71211 0.24067 0.0
C474 C 0.26625 0.72401 0.3379 0.0
C475 C 0.25556 0.74871 0.3194 0.0
C476 C 0.25705 0.75514 0.26143 0.0
C477 C 0.26896 0.73682 0.22278 0.0
C478 C 0.26538 0.71658 0.39957 0.0
C479 C 0.24529 0.78111 0.24005 0.0
H480 H 0.16916 0.77862 0.42903 0.0
H481 H 0.26261 0.81453 0.45443 0.0
H482 H 0.1876 0.74873 0.29751 0.0
H483 H 0.19263 0.72627 0.35432 0.0
H484 H 0.15926 0.74903 0.35592 0.0
H485 H 0.30849 0.80428 0.39857 0.0
H486 H 0.30952 0.76963 0.38842 0.0
H487 H 0.30095 0.79038 0.3299 0.0
H488 H 0.28551 0.68692 0.31232 0.0
H489 H 0.26986 0.74172 0.1783 0.0
H490 H 0.23973 0.71621 0.41473 0.0
H491 H 0.2786 0.73124 0.42509 0.0
H492 H 0.27647 0.69725 0.40738 0.0
H493 H 0.21881 0.78326 0.24893 0.0
H494 H 0.24932 0.78347 0.19394 0.0
H495 H 0.25802 0.79705 0.26245 0.0
C496 C 0.22811 0.77362 0.72334 0.0
C497 C 0.21772 0.79821 0.74142 0.0
C498 C 0.24016 0.75532 0.76183 0.0
C499 C 0.24141 0.76166 0.81986 0.0
C500 C 0.23036 0.78625 0.83855 0.0
C501 C 0.21889 0.80433 0.79902 0.0
C502 C 0.25225 0.72947 0.74025 0.0
C503 C 0.23101 0.79357 0.90028 0.0
C504 C 0.24988 0.70905 0.9312 0.0
C505 C 0.28266 0.71201 0.94667 0.0
C506 C 0.23615 0.72468 0.88881 0.0
C507 C 0.25595 0.74322 0.86085 0.0
C508 C 0.28951 0.74517 0.87425 0.0
C509 C 0.30237 0.72972 0.9174 0.0
C510 C 0.2002 0.72224 0.87592 0.0
C511 C 0.31159 0.76428 0.84448 0.0
H512 H 0.22739 0.76878 0.67882 0.0
H513 H 0.21063 0.8232 0.8133 0.0
H514 H 0.27872 0.72746 0.74927 0.0
H515 H 0.23956 0.71342 0.7624 0.0
H516 H 0.24845 0.72719 0.69408 0.0
H517 H 0.21977 0.81285 0.90825 0.0
H518 H 0.21781 0.77881 0.92565 0.0
H519 H 0.25661 0.79402 0.9155 0.0
H520 H 0.23458 0.69548 0.95408 0.0
H521 H 0.32783 0.73186 0.92902 0.0
H522 H 0.19636 0.7197 0.82991 0.0
H523 H 0.18745 0.74034 0.88855 0.0
H524 H 0.18873 0.70568 0.89848 0.0
H525 H 0.30949 0.76203 0.79805 0.0
H526 H 0.33761 0.76181 0.85656 0.0
H527 H 0.30401 0.78436 0.85503 0.0
C528 C 0.25145 0.28419 0.95402 0.0
C529 C 0.2663 0.30769 0.93865 0.0
C530 C 0.23937 0.26713 0.9131 0.0
C531 C 0.24258 0.27358 0.85535 0.0
C532 C 0.25725 0.29737 0.83945 0.0
C533 C 0.26874 0.31428 0.88141 0.0
C534 C 0.22332 0.24215 0.93168 0.0
C535 C 0.26127 0.30475 0.77814 0.0
C536 C 0.23859 0.21872 0.74861 0.0
C537 C 0.20683 0.22162 0.72767 0.0
C538 C 0.25066 0.2356 0.79014 0.0
C539 C 0.23024 0.25549 0.81161 0.0
C540 C 0.1979 0.25806 0.79158 0.0
C541 C 0.18667 0.2412 0.74954 0.0
C542 C 0.28538 0.23245 0.81034 0.0
C543 C 0.17522 0.27871 0.81428 0.0
H544 H 0.2493 0.27905 -0.00174 0.0
H545 H 0.28039 0.33233 0.86934 0.0
H546 H 0.19814 0.24105 0.91464 0.0
H547 H 0.23702 0.22533 0.91456 0.0
H548 H 0.22214 0.24032 0.97837 0.0
H549 H 0.27341 0.32386 0.77285 0.0
H550 H 0.27599 0.2898 0.75594 0.0
H551 H 0.23707 0.30548 0.75724 0.0
H552 H 0.25428 0.2037 0.73152 0.0
H553 H 0.16201 0.24342 0.73369 0.0
H554 H 0.2857 0.2291 0.8566 0.0
H555 H 0.29932 0.25052 0.80215 0.0
H556 H 0.2981 0.21605 0.78925 0.0
H557 H 0.17278 0.27673 0.86075 0.0
H558 H 0.1505 0.27766 0.79519 0.0
H559 H 0.18555 0.29822 0.80581 0.0
C560 C 0.69517 0.27367 0.90613 0.0
C561 C 0.71472 0.29167 0.93469 0.0
C562 C 0.7081 0.25814 0.86307 0.0
C563 C 0.7416 0.2603 0.84911 0.0
C564 C 0.76125 0.27908 0.87648 0.0
C565 C 0.74744 0.2948 0.91872 0.0
C566 C 0.68615 0.23879 0.83392 0.0
C567 C 0.79715 0.28171 0.86306 0.0
C568 C 0.77871 0.19927 0.78662 0.0
C569 C 0.77949 0.20534 0.72899 0.0
C570 C 0.76746 0.21737 0.8264 0.0
C571 C 0.75618 0.24191 0.80791 0.0
C572 C 0.75711 0.24822 0.74983 0.0
C573 C 0.769 0.22993 0.71111 0.0
C574 C 0.76721 0.21009 0.88816 0.0
C575 C 0.74473 0.274 0.72844 0.0
H576 H 0.66976 0.27139 0.91817 0.0
H577 H 0.76262 0.3086 0.94111 0.0
H578 H 0.68802 0.24098 0.78743 0.0
H579 H 0.69405 0.21878 0.84445 0.0
H580 H 0.66015 0.24105 0.8465 0.0
H581 H 0.80853 0.29834 0.88541 0.0
H582 H 0.81009 0.26368 0.87553 0.0
H583 H 0.80084 0.28424 0.81699 0.0
H584 H 0.78706 0.1804 0.80072 0.0
H585 H 0.76942 0.23473 0.66655 0.0
H586 H 0.74169 0.2094 0.90391 0.0
H587 H 0.78029 0.225 0.91322 0.0
H588 H 0.77879 0.19094 0.89595 0.0
H589 H 0.71827 0.27585 0.73783 0.0
H590 H 0.7484 0.27631 0.68223 0.0
H591 H 0.75731 0.29014 0.75042 0.0
C592 C 0.72066 0.69858 0.89428 0.0
C593 C 0.72007 0.70464 0.95194 0.0
C594 C 0.73163 0.71673 0.8544 0.0
C595 C 0.74277 0.74132 0.8728 0.0
C596 C 0.74225 0.74755 0.93093 0.0
C597 C 0.73068 0.7292 0.96977 0.0
C598 C 0.73152 0.70953 0.79259 0.0
C599 C 0.7545 0.77339 0.9522 0.0
C600 C 0.80203 0.7743 0.77334 0.0
C601 C 0.78177 0.79216 0.74579 0.0
C602 C 0.78989 0.75836 0.81636 0.0
C603 C 0.7565 0.75998 0.83135 0.0
C604 C 0.73612 0.77858 0.80496 0.0
C605 C 0.74914 0.79469 0.7627 0.0
C606 C 0.81257 0.73921 0.84445 0.0
C607 C 0.70031 0.78064 0.81954 0.0
H608 H 0.71223 0.67973 0.88022 0.0
H609 H 0.73041 0.73399 0.01433 0.0
H610 H 0.71774 0.72423 0.76805 0.0
H611 H 0.75689 0.70936 0.77609 0.0
H612 H 0.72045 0.69018 0.78499 0.0
H613 H 0.7516 0.77547 -0.00138 0.0
H614 H 0.78073 0.77564 0.94143 0.0
H615 H 0.74117 0.78945 0.93123 0.0
H616 H 0.82738 0.77248 0.76058 0.0
H617 H 0.73341 0.80839 0.74112 0.0
H618 H 0.80494 0.71914 0.83397 0.0
H619 H 0.81122 0.74127 0.89102 0.0
H620 H 0.83837 0.74182 0.83096 0.0
H621 H 0.6877 0.76241 0.80759 0.0
H622 H 0.68825 0.79708 0.79754 0.0
H623 H 0.69708 0.78316 0.86572 0.0
loop_
_geom_bond_atom_site_label_1
_geom_bond_atom_site_label_2
_geom_bond_distance
_geom_bond_site_symmetry_2
_ccdc_geom_bond_type
O0 Cd1 2.223 . S
O0 C8 1.315 . S
Cd1 O0 2.223 . S
Cd1 O4 2.297 . S
Cd1 O5 2.439 . S
Cd1 O11 2.240 . S
Cd2 O3 2.240 . S
Cd2 O10 2.223 . S
Cd2 O12 2.297 . S
Cd2 O13 2.439 . S
O3 Cd2 2.240 . S
O3 C8 1.279 . S
O4 Cd1 2.297 . S
O4 C6 1.247 . S
O5 Cd1 2.439 . S
O5 C6 1.208 . S
C6 O4 1.247 . S
C6 O5 1.208 . S
C7 O12 1.247 . S
C7 O13 1.208 . S
C8 O0 1.315 . S
C8 O3 1.279 . S
C9 O10 1.315 . S
C9 O11 1.279 . S
O10 Cd2 2.223 . S
O10 C9 1.315 . S
O11 Cd1 2.240 . S
O11 C9 1.279 . S
O12 Cd2 2.297 . S
O12 C7 1.247 . S
O13 Cd2 2.439 . S
O13 C7 1.208 . S
O14 Cd15 2.223 . S
O14 C22 1.315 . S
Cd15 O14 2.223 . S
Cd15 O18 2.297 1_554 S
Cd15 O19 2.439 1_554 S
Cd15 O25 2.240 . S
Cd16 O17 2.240 . S
Cd16 O24 2.223 . S
Cd16 O26 2.297 . S
Cd16 O27 2.439 . S
O17 Cd16 2.240 . S
O17 C22 1.279 . S
O18 Cd15 2.297 1_556 S
O18 C20 1.247 . S
O19 Cd15 2.439 1_556 S
O19 C20 1.208 . S
C20 O18 1.247 . S
C20 O19 1.208 . S
C21 O26 1.247 . S
C21 O27 1.208 . S
C22 O14 1.315 . S
C22 O17 1.279 . S
C23 O24 1.315 . S
C23 O25 1.279 . S
O24 Cd16 2.223 . S
O24 C23 1.315 . S
O25 Cd15 2.240 . S
O25 C23 1.279 . S
O26 Cd16 2.297 . S
O26 C21 1.247 . S
O27 Cd16 2.439 . S
O27 C21 1.208 . S
O28 Cd29 2.223 . S
O28 C36 1.315 . S
Cd29 O28 2.223 . S
Cd29 O32 2.297 . S
Cd29 O33 2.439 . S
Cd29 O39 2.240 . S
Cd30 O31 2.240 . S
Cd30 O38 2.223 . S
Cd30 O40 2.297 . S
Cd30 O41 2.439 . S
O31 Cd30 2.240 . S
O31 C36 1.279 . S
O32 Cd29 2.297 . S
O32 C34 1.247 . S
O33 Cd29 2.439 . S
O33 C34 1.208 . S
C34 O32 1.247 . S
C34 O33 1.208 . S
C35 O40 1.247 . S
C35 O41 1.208 . S
C36 O28 1.315 . S
C36 O31 1.279 . S
C37 O38 1.315 . S
C37 O39 1.279 . S
O38 Cd30 2.223 . S
O38 C37 1.315 . S
O39 Cd29 2.240 . S
O39 C37 1.279 . S
O40 Cd30 2.297 . S
O40 C35 1.247 . S
O41 Cd30 2.439 . S
O41 C35 1.208 . S
O42 Cd43 2.223 . S
O42 C50 1.315 . S
Cd43 O42 2.223 . S
Cd43 O46 2.297 1_554 S
Cd43 O47 2.439 1_554 S
Cd43 O53 2.240 . S
Cd44 O45 2.240 . S
Cd44 O52 2.223 . S
Cd44 O54 2.297 . S
Cd44 O55 2.439 . S
O45 Cd44 2.240 . S
O45 C50 1.279 . S
O46 Cd43 2.297 1_556 S
O46 C48 1.247 . S
O47 Cd43 2.439 1_556 S
O47 C48 1.208 . S
C48 O46 1.247 . S
C48 O47 1.208 . S
C49 O54 1.247 . S
C49 O55 1.208 . S
C50 O42 1.315 . S
C50 O45 1.279 . S
C51 O52 1.315 . S
C51 O53 1.279 . S
O52 Cd44 2.223 . S
O52 C51 1.315 . S
O53 Cd43 2.240 . S
O53 C51 1.279 . S
O54 Cd44 2.297 . S
O54 C49 1.247 . S
O55 Cd44 2.439 . S
O55 C49 1.208 . S
O56 Cd57 2.223 . S
O56 C64 1.315 . S
Cd57 O56 2.223 . S
Cd57 O60 2.297 . S
Cd57 O61 2.439 . S
Cd57 O67 2.240 . S
Cd58 O59 2.240 . S
Cd58 O66 2.223 . S
Cd58 O68 2.297 . S
Cd58 O69 2.439 . S
O59 Cd58 2.240 . S
O59 C64 1.279 . S
O60 Cd57 2.297 . S
O60 C62 1.247 . S
O61 Cd57 2.439 . S
O61 C62 1.208 . S
C62 O60 1.247 . S
C62 O61 1.208 . S
C63 O68 1.247 . S
C63 O69 1.208 . S
C64 O56 1.315 . S
C64 O59 1.279 . S
C65 O66 1.315 . S
C65 O67 1.279 . S
O66 Cd58 2.223 . S
O66 C65 1.315 . S
O67 Cd57 2.240 . S
O67 C65 1.279 . S
O68 Cd58 2.297 . S
O68 C63 1.247 . S
O69 Cd58 2.439 . S
O69 C63 1.208 . S
O70 Cd71 2.223 . S
O70 C78 1.315 . S
Cd71 O70 2.223 . S
Cd71 O74 2.297 . S
Cd71 O75 2.439 . S
Cd71 O81 2.240 . S
Cd72 O73 2.240 . S
Cd72 O80 2.223 . S
Cd72 O82 2.297 . S
Cd72 O83 2.439 . S
O73 Cd72 2.240 . S
O73 C78 1.279 . S
O74 Cd71 2.297 . S
O74 C76 1.247 . S
O75 Cd71 2.439 . S
O75 C76 1.208 . S
C76 O74 1.247 . S
C76 O75 1.208 . S
C77 O82 1.247 . S
C77 O83 1.208 . S
C78 O70 1.315 . S
C78 O73 1.279 . S
C79 O80 1.315 . S
C79 O81 1.279 . S
O80 Cd72 2.223 . S
O80 C79 1.315 . S
O81 Cd71 2.240 . S
O81 C79 1.279 . S
O82 Cd72 2.297 . S
O82 C77 1.247 . S
O83 Cd72 2.439 . S
O83 C77 1.208 . S
O84 Cd85 2.223 . S
O84 C92 1.315 . S
Cd85 O84 2.223 . S
Cd85 O88 2.297 . S
Cd85 O89 2.439 . S
Cd85 O95 2.240 . S
Cd86 O87 2.240 . S
Cd86 O94 2.223 . S
Cd86 O96 2.297 . S
Cd86 O97 2.439 . S
O87 Cd86 2.240 . S
O87 C92 1.279 . S
O88 Cd85 2.297 . S
O88 C90 1.247 . S
O89 Cd85 2.439 . S
O89 C90 1.208 . S
C90 O88 1.247 . S
C90 O89 1.208 . S
C91 O96 1.247 . S
C91 O97 1.208 . S
C92 O84 1.315 . S
C92 O87 1.279 . S
C93 O94 1.315 . S
C93 O95 1.279 . S
O94 Cd86 2.223 . S
O94 C93 1.315 . S
O95 Cd85 2.240 . S
O95 C93 1.279 . S
O96 Cd86 2.297 . S
O96 C91 1.247 . S
O97 Cd86 2.439 . S
O97 C91 1.208 . S
O98 Cd99 2.223 . S
O98 C106 1.315 . S
Cd99 O98 2.223 . S
Cd99 O102 2.297 . S
Cd99 O103 2.439 . S
Cd99 O109 2.240 . S
Cd100 O101 2.240 . S
Cd100 O108 2.223 . S
Cd100 O110 2.297 . S
Cd100 O111 2.439 . S
O101 Cd100 2.240 . S
O101 C106 1.279 . S
O102 Cd99 2.297 . S
O102 C104 1.247 . S
O103 Cd99 2.439 . S
O103 C104 1.208 . S
C104 O102 1.247 . S
C104 O103 1.208 . S
C105 O110 1.247 . S
C105 O111 1.208 . S
C106 O98 1.315 . S
C106 O101 1.279 . S
C107 O108 1.315 . S
C107 O109 1.279 . S
O108 Cd100 2.223 . S
O108 C107 1.315 . S
O109 Cd99 2.240 . S
O109 C107 1.279 . S
O110 Cd100 2.297 . S
O110 C105 1.247 . S
O111 Cd100 2.439 . S
O111 C105 1.208 . S
C112 C113 1.391 . S
C112 C114 1.394 . S
C112 H128 0.931 . S
C113 C112 1.391 . S
C113 C117 1.376 . S
C114 C112 1.394 . S
C114 C115 1.369 . S
C114 C118 1.531 . S
C115 C114 1.369 . S
C115 C116 1.410 . S
C115 C123 1.503 . S
C116 C115 1.410 . S
C116 C117 1.392 . S
C116 C119 1.511 . S
C117 C113 1.376 . S
C117 C116 1.392 . S
C117 H129 0.929 . S
C118 C114 1.531 . S
C118 H130 0.960 . S
C118 H131 0.962 . S
C118 H132 0.960 . S
C119 C116 1.511 . S
C119 H133 0.961 1_554 S
C119 H134 0.961 1_554 S
C119 H135 0.961 1_554 S
C120 C121 1.370 . S
C120 C122 1.363 . S
C120 H136 0.931 . S
C121 C120 1.370 . S
C121 C125 1.408 . S
C122 C120 1.363 . S
C122 C123 1.370 . S
C122 C126 1.524 . S
C123 C115 1.503 . S
C123 C122 1.370 . S
C123 C124 1.403 . S
C124 C123 1.403 . S
C124 C125 1.404 . S
C124 C127 1.539 . S
C125 C121 1.408 . S
C125 C124 1.404 . S
C125 H137 0.930 . S
C126 C122 1.524 . S
C126 H138 0.956 . S
C126 H139 0.961 . S
C126 H140 0.961 . S
C127 C124 1.539 . S
C127 H141 0.958 . S
C127 H142 0.961 . S
C127 H143 0.960 . S
H128 C112 0.931 . S
H129 C117 0.929 . S
H130 C118 0.960 . S
H131 C118 0.962 . S
H132 C118 0.960 . S
H133 C119 0.961 1_556 S
H134 C119 0.961 1_556 S
H135 C119 0.961 1_556 S
H136 C120 0.931 . S
H137 C125 0.930 . S
H138 C126 0.956 . S
H139 C126 0.961 . S
H140 C126 0.961 . S
H141 C127 0.958 . S
H142 C127 0.961 . S
H143 C127 0.960 . S
C144 C145 1.391 . S
C144 C146 1.394 . S
C144 H160 0.931 . S
C145 C144 1.391 . S
C145 C149 1.376 . S
C146 C144 1.394 . S
C146 C147 1.369 . S
C146 C150 1.531 . S
C147 C146 1.369 . S
C147 C148 1.410 . S
C147 C155 1.503 . S
C148 C147 1.410 . S
C148 C149 1.392 . S
C148 C151 1.511 . S
C149 C145 1.376 . S
C149 C148 1.392 . S
C149 H161 0.929 . S
C150 C146 1.531 . S
C150 H162 0.960 . S
C150 H163 0.962 . S
C150 H164 0.960 . S
C151 C148 1.511 . S
C151 H165 0.961 . S
C151 H166 0.961 . S
C151 H167 0.961 . S
C152 C153 1.370 . S
C152 C154 1.363 . S
C152 H168 0.931 . S
C153 C152 1.370 . S
C153 C157 1.408 . S
C154 C152 1.363 . S
C154 C155 1.370 . S
C154 C158 1.524 . S
C155 C147 1.503 . S
C155 C154 1.370 . S
C155 C156 1.403 . S
C156 C155 1.403 . S
C156 C157 1.404 . S
C156 C159 1.539 1_554 S
C157 C153 1.408 . S
C157 C156 1.404 . S
C157 H169 0.930 . S
C158 C154 1.524 . S
C158 H170 0.956 . S
C158 H171 0.961 . S
C158 H172 0.961 . S
C159 C156 1.539 1_556 S
C159 H173 0.958 . S
C159 H174 0.961 . S
C159 H175 0.960 . S
H160 C144 0.931 . S
H161 C149 0.929 . S
H162 C150 0.960 . S
H163 C150 0.962 . S
H164 C150 0.960 . S
H165 C151 0.961 . S
H166 C151 0.961 . S
H167 C151 0.961 . S
H168 C152 0.931 . S
H169 C157 0.930 . S
H170 C158 0.956 . S
H171 C158 0.961 . S
H172 C158 0.961 . S
H173 C159 0.958 . S
H174 C159 0.961 . S
H175 C159 0.960 . S
C176 C177 1.391 . S
C176 C178 1.394 . S
C176 H192 0.931 . S
C177 C176 1.391 . S
C177 C181 1.376 . S
C178 C176 1.394 . S
C178 C179 1.369 . S
C178 C182 1.531 . S
C179 C178 1.369 . S
C179 C180 1.410 . S
C179 C187 1.503 . S
C180 C179 1.410 . S
C180 C181 1.392 . S
C180 C183 1.511 . S
C181 C177 1.376 . S
C181 C180 1.392 . S
C181 H193 0.929 . S
C182 C178 1.531 . S
C182 H194 0.960 . S
C182 H195 0.962 . S
C182 H196 0.960 . S
C183 C180 1.511 . S
C183 H197 0.961 . S
C183 H198 0.961 . S
C183 H199 0.961 . S
C184 C185 1.370 . S
C184 C186 1.363 . S
C184 H200 0.931 . S
C185 C184 1.370 . S
C185 C189 1.408 . S
C186 C184 1.363 . S
C186 C187 1.370 . S
C186 C190 1.524 . S
C187 C179 1.503 . S
C187 C186 1.370 . S
C187 C188 1.403 . S
C188 C187 1.403 . S
C188 C189 1.404 . S
C188 C191 1.539 . S
C189 C185 1.408 . S
C189 C188 1.404 . S
C189 H201 0.930 . S
C190 C186 1.524 . S
C190 H202 0.955 . S
C190 H203 0.961 . S
C190 H204 0.961 1_554 S
C191 C188 1.539 . S
C191 H205 0.958 . S
C191 H206 0.961 . S
C191 H207 0.960 . S
H192 C176 0.931 . S
H193 C181 0.929 . S
H194 C182 0.960 . S
H195 C182 0.962 . S
H196 C182 0.960 . S
H197 C183 0.961 . S
H198 C183 0.961 . S
H199 C183 0.961 . S
H200 C184 0.931 . S
H201 C189 0.930 . S
H202 C190 0.955 . S
H203 C190 0.961 . S
H204 C190 0.961 1_556 S
H205 C191 0.958 . S
H206 C191 0.961 . S
H207 C191 0.960 . S
C208 C209 1.391 . S
C208 C210 1.394 . S
C208 H224 0.931 . S
C209 C208 1.391 . S
C209 C213 1.376 . S
C210 C208 1.394 . S
C210 C211 1.369 . S
C210 C214 1.531 . S
C211 C210 1.369 . S
C211 C212 1.410 . S
C211 C219 1.503 . S
C212 C211 1.410 . S
C212 C213 1.392 . S
C212 C215 1.511 . S
C213 C209 1.376 . S
C213 C212 1.392 . S
C213 H225 0.929 . S
C214 C210 1.531 . S
C214 H226 0.960 . S
C214 H227 0.962 . S
C214 H228 0.960 . S
C215 C212 1.511 . S
C215 H229 0.961 1_554 S
C215 H230 0.961 . S
C215 H231 0.961 . S
C216 C217 1.370 . S
C216 C218 1.363 . S
C216 H232 0.931 . S
C217 C216 1.370 . S
C217 C221 1.408 . S
C218 C216 1.363 . S
C218 C219 1.370 . S
C218 C222 1.524 . S
C219 C211 1.503 . S
C219 C218 1.370 . S
C219 C220 1.403 . S
C220 C219 1.403 . S
C220 C221 1.404 . S
C220 C223 1.539 . S
C221 C217 1.408 . S
C221 C220 1.404 . S
C221 H233 0.930 . S
C222 C218 1.524 . S
C222 H234 0.956 . S
C222 H235 0.961 . S
C222 H236 0.961 . S
C223 C220 1.539 . S
C223 H237 0.958 . S
C223 H238 0.961 . S
C223 H239 0.960 . S
H224 C208 0.931 . S
H225 C213 0.929 . S
H226 C214 0.960 . S
H227 C214 0.962 . S
H228 C214 0.960 . S
H229 C215 0.961 1_556 S
H230 C215 0.961 . S
H231 C215 0.961 . S
H232 C216 0.931 . S
H233 C221 0.930 . S
H234 C222 0.956 . S
H235 C222 0.961 . S
H236 C222 0.961 . S
H237 C223 0.958 . S
H238 C223 0.961 . S
H239 C223 0.960 . S
C240 C241 1.391 . S
C240 C242 1.394 . S
C240 H256 0.931 . S
C241 C240 1.391 . S
C241 C245 1.376 . S
C242 C240 1.394 . S
C242 C243 1.369 . S
C242 C246 1.531 . S
C243 C242 1.369 . S
C243 C244 1.410 . S
C243 C251 1.503 1_565 S
C244 C243 1.410 . S
C244 C245 1.392 . S
C244 C247 1.511 . S
C245 C241 1.376 . S
C245 C244 1.392 . S
C245 H257 0.929 . S
C246 C242 1.531 . S
C246 H258 0.960 1_565 S
C246 H259 0.962 . S
C246 H260 0.960 . S
C247 C244 1.511 . S
C247 H261 0.961 . S
C247 H262 0.961 1_565 S
C247 H263 0.961 . S
C248 C249 1.370 . S
C248 C250 1.363 . S
C248 H264 0.931 . S
C249 C248 1.370 . S
C249 C253 1.408 . S
C250 C248 1.363 . S
C250 C251 1.370 . S
C250 C254 1.524 1_545 S
C251 C243 1.503 1_545 S
C251 C250 1.370 . S
C251 C252 1.403 . S
C252 C251 1.403 . S
C252 C253 1.404 . S
C252 C255 1.539 . S
C253 C249 1.408 . S
C253 C252 1.404 . S
C253 H265 0.930 . S
C254 C250 1.524 1_565 S
C254 H266 0.956 . S
C254 H267 0.961 . S
C254 H268 0.961 1_565 S
C255 C252 1.539 . S
C255 H269 0.958 . S
C255 H270 0.961 . S
C255 H271 0.960 . S
H256 C240 0.931 . S
H257 C245 0.929 . S
H258 C246 0.960 1_545 S
H259 C246 0.962 . S
H260 C246 0.960 . S
H261 C247 0.961 . S
H262 C247 0.961 1_545 S
H263 C247 0.961 . S
H264 C248 0.931 . S
H265 C253 0.930 . S
H266 C254 0.956 . S
H267 C254 0.961 . S
H268 C254 0.961 1_545 S
H269 C255 0.958 . S
H270 C255 0.961 . S
H271 C255 0.960 . S
C272 C273 1.391 . S
C272 C274 1.394 . S
C272 H288 0.931 . S
C273 C272 1.391 . S
C273 C277 1.376 . S
C274 C272 1.394 . S
C274 C275 1.369 . S
C274 C278 1.531 . S
C275 C274 1.369 . S
C275 C276 1.410 . S
C275 C283 1.503 1_455 S
C276 C275 1.410 . S
C276 C277 1.392 . S
C276 C279 1.511 . S
C277 C273 1.376 . S
C277 C276 1.392 . S
C277 H289 0.929 . S
C278 C274 1.531 . S
C278 H290 0.960 1_455 S
C278 H291 0.962 . S
C278 H292 0.960 . S
C279 C276 1.511 . S
C279 H293 0.961 . S
C279 H294 0.961 1_455 S
C279 H295 0.961 . S
C280 C281 1.370 . S
C280 C282 1.363 . S
C280 H296 0.931 . S
C281 C280 1.370 . S
C281 C285 1.408 . S
C282 C280 1.363 . S
C282 C283 1.370 . S
C282 C286 1.524 . S
C283 C275 1.503 1_655 S
C283 C282 1.370 . S
C283 C284 1.403 . S
C284 C283 1.403 . S
C284 C285 1.404 . S
C284 C287 1.539 . S
C285 C281 1.408 . S
C285 C284 1.404 . S
C285 H297 0.930 . S
C286 C282 1.524 . S
C286 H298 0.956 . S
C286 H299 0.961 1_655 S
C286 H300 0.961 . S
C287 C284 1.539 . S
C287 H301 0.958 . S
C287 H302 0.961 . S
C287 H303 0.974 . S
H288 C272 0.931 . S
H289 C277 0.929 . S
H290 C278 0.960 1_655 S
H291 C278 0.962 . S
H292 C278 0.960 . S
H293 C279 0.961 . S
H294 C279 0.961 1_655 S
H295 C279 0.961 . S
H296 C280 0.931 . S
H297 C285 0.930 . S
H298 C286 0.956 . S
H299 C286 0.961 1_455 S
H300 C286 0.961 . S
H301 C287 0.958 . S
H302 C287 0.961 . S
H303 C287 0.974 . S
C304 C305 1.391 . S
C304 C306 1.394 . S
C304 H320 0.931 . S
C305 C304 1.391 . S
C305 C309 1.376 . S
C306 C304 1.394 . S
C306 C307 1.369 . S
C306 C310 1.531 . S
C307 C306 1.369 . S
C307 C308 1.410 . S
C307 C315 1.503 1_545 S
C308 C307 1.410 . S
C308 C309 1.392 . S
C308 C311 1.527 . S
C309 C305 1.376 . S
C309 C308 1.392 . S
C309 H321 0.929 . S
C310 C306 1.531 . S
C310 H322 0.960 . S
C310 H323 0.962 . S
C310 H324 0.960 . S
C311 C308 1.527 . S
C311 H325 0.967 . S
C311 H326 0.941 1_545 S
C311 H327 0.958 1_545 S
C312 C313 1.370 . S
C312 C314 1.363 . S
C312 H328 0.931 . S
C313 C312 1.370 . S
C313 C317 1.408 . S
C314 C312 1.363 . S
C314 C315 1.370 . S
C314 C318 1.524 . S
C315 C307 1.503 1_565 S
C315 C314 1.370 . S
C315 C316 1.403 . S
C316 C315 1.403 . S
C316 C317 1.404 . S
C316 C319 1.539 . S
C317 C313 1.408 . S
C317 C316 1.404 . S
C317 H329 0.930 . S
C318 C314 1.524 . S
C318 H330 0.979 . S
C318 H331 0.961 . S
C318 H332 0.961 . S
C319 C316 1.539 . S
C319 H333 0.958 . S
C319 H334 0.961 . S
C319 H335 0.960 1_565 S
H320 C304 0.931 . S
H321 C309 0.929 . S
H322 C310 0.960 . S
H323 C310 0.962 . S
H324 C310 0.960 . S
H325 C311 0.967 . S
H326 C311 0.941 1_565 S
H327 C311 0.958 1_565 S
H328 C312 0.931 . S
H329 C317 0.930 . S
H330 C318 0.979 . S
H331 C318 0.961 . S
H332 C318 0.961 . S
H333 C319 0.958 . S
H334 C319 0.961 . S
H335 C319 0.960 1_545 S
C336 C337 1.391 . S
C336 C338 1.394 . S
C336 H352 0.931 . S
C337 C336 1.391 . S
C337 C341 1.376 . S
C338 C336 1.394 . S
C338 C339 1.369 . S
C338 C342 1.531 . S
C339 C338 1.369 . S
C339 C340 1.410 . S
C339 C347 1.503 1_655 S
C340 C339 1.410 . S
C340 C341 1.392 . S
C340 C343 1.511 . S
C341 C337 1.376 . S
C341 C340 1.392 . S
C341 H353 0.929 . S
C342 C338 1.531 . S
C342 H354 0.960 1_655 S
C342 H355 0.962 . S
C342 H356 0.960 . S
C343 C340 1.511 . S
C343 H357 0.961 . S
C343 H358 0.961 1_655 S
C343 H359 0.961 . S
C344 C345 1.370 . S
C344 C346 1.363 . S
C344 H360 0.931 . S
C345 C344 1.370 . S
C345 C349 1.408 . S
C346 C344 1.363 . S
C346 C347 1.370 . S
C346 C350 1.524 . S
C347 C339 1.503 1_455 S
C347 C346 1.370 . S
C347 C348 1.403 . S
C348 C347 1.403 . S
C348 C349 1.404 . S
C348 C351 1.539 . S
C349 C345 1.408 . S
C349 C348 1.404 . S
C349 H361 0.930 . S
C350 C346 1.524 . S
C350 H362 0.956 . S
C350 H363 0.961 1_455 S
C350 H364 0.961 . S
C351 C348 1.539 . S
C351 H365 0.958 . S
C351 H366 0.961 . S
C351 H367 0.961 1_455 S
H352 C336 0.931 . S
H353 C341 0.929 . S
H354 C342 0.960 1_455 S
H355 C342 0.962 . S
H356 C342 0.960 . S
H357 C343 0.961 . S
H358 C343 0.961 1_455 S
H359 C343 0.961 . S
H360 C344 0.931 . S
H361 C349 0.930 . S
H362 C350 0.956 . S
H363 C350 0.961 1_655 S
H364 C350 0.961 . S
H365 C351 0.958 . S
H366 C351 0.961 . S
H367 C351 0.961 1_655 S
C368 C369 1.391 . S
C368 C370 1.394 . S
C368 H384 0.931 . S
C369 C368 1.391 . S
C369 C373 1.376 . S
C370 C368 1.394 . S
C370 C371 1.369 . S
C370 C374 1.531 . S
C371 C370 1.369 . S
C371 C372 1.410 . S
C371 C379 1.503 . S
C372 C371 1.410 . S
C372 C373 1.392 . S
C372 C375 1.511 . S
C373 C369 1.376 . S
C373 C372 1.392 . S
C373 H385 0.929 . S
C374 C370 1.531 . S
C374 H386 0.960 . S
C374 H387 0.962 . S
C374 H388 0.960 . S
C375 C372 1.511 . S
C375 H389 0.961 . S
C375 H390 0.961 . S
C375 H391 0.961 . S
C376 C377 1.370 . S
C376 C378 1.363 . S
C376 H392 0.931 . S
C377 C376 1.370 . S
C377 C381 1.408 . S
C378 C376 1.363 . S
C378 C379 1.370 . S
C378 C382 1.524 . S
C379 C371 1.503 . S
C379 C378 1.370 . S
C379 C380 1.403 . S
C380 C379 1.403 . S
C380 C381 1.404 . S
C380 C383 1.539 . S
C381 C377 1.408 . S
C381 C380 1.404 . S
C381 H393 0.930 . S
C382 C378 1.524 . S
C382 H394 0.956 . S
C382 H395 0.961 . S
C382 H396 0.961 . S
C383 C380 1.539 . S
C383 H397 0.958 . S
C383 H398 0.961 . S
C383 H399 0.960 . S
H384 C368 0.931 . S
H385 C373 0.929 . S
H386 C374 0.960 . S
H387 C374 0.962 . S
H388 C374 0.960 . S
H389 C375 0.961 . S
H390 C375 0.961 . S
H391 C375 0.961 . S
H392 C376 0.931 . S
H393 C381 0.930 . S
H394 C382 0.956 . S
H395 C382 0.961 . S
H396 C382 0.961 . S
H397 C383 0.958 . S
H398 C383 0.961 . S
H399 C383 0.960 . S
C400 C401 1.391 . S
C400 C402 1.394 . S
C400 H416 0.931 . S
C401 C400 1.391 . S
C401 C405 1.376 . S
C402 C400 1.394 . S
C402 C403 1.369 . S
C402 C406 1.531 . S
C403 C402 1.369 . S
C403 C404 1.410 . S
C403 C411 1.503 . S
C404 C403 1.410 . S
C404 C405 1.392 . S
C404 C407 1.511 . S
C405 C401 1.376 . S
C405 C404 1.392 . S
C405 H417 0.929 . S
C406 C402 1.531 . S
C406 H418 0.960 . S
C406 H419 0.962 . S
C406 H420 0.960 . S
C407 C404 1.511 . S
C407 H421 0.961 . S
C407 H422 0.961 . S
C407 H423 0.961 . S
C408 C409 1.370 . S
C408 C410 1.363 . S
C408 H424 0.931 . S
C409 C408 1.370 . S
C409 C413 1.408 . S
C410 C408 1.363 . S
C410 C411 1.370 . S
C410 C414 1.524 . S
C411 C403 1.503 . S
C411 C410 1.370 . S
C411 C412 1.403 . S
C412 C411 1.403 . S
C412 C413 1.404 . S
C412 C415 1.539 . S
C413 C409 1.408 . S
C413 C412 1.404 . S
C413 H425 0.930 . S
C414 C410 1.524 . S
C414 H426 0.956 . S
C414 H427 0.961 . S
C414 H428 0.961 . S
C415 C412 1.539 . S
C415 H429 0.958 . S
C415 H430 0.961 . S
C415 H431 0.960 . S
H416 C400 0.931 . S
H417 C405 0.929 . S
H418 C406 0.960 . S
H419 C406 0.962 . S
H420 C406 0.960 . S
H421 C407 0.961 . S
H422 C407 0.961 . S
H423 C407 0.961 . S
H424 C408 0.931 . S
H425 C413 0.930 . S
H426 C414 0.956 . S
H427 C414 0.961 . S
H428 C414 0.961 . S
H429 C415 0.958 . S
H430 C415 0.961 . S
H431 C415 0.960 . S
C432 C433 1.391 . S
C432 C434 1.394 . S
C432 H448 0.931 . S
C433 C432 1.391 . S
C433 C437 1.376 . S
C434 C432 1.394 . S
C434 C435 1.369 . S
C434 C438 1.531 . S
C435 C434 1.369 . S
C435 C436 1.410 . S
C435 C443 1.503 . S
C436 C435 1.410 . S
C436 C437 1.392 . S
C436 C439 1.511 . S
C437 C433 1.376 . S
C437 C436 1.392 . S
C437 H449 0.929 . S
C438 C434 1.531 . S
C438 H450 0.960 . S
C438 H451 0.962 . S
C438 H452 0.960 . S
C439 C436 1.511 . S
C439 H453 0.961 . S
C439 H454 0.961 . S
C439 H455 0.961 . S
C440 C441 1.370 . S
C440 C442 1.363 . S
C440 H456 0.931 . S
C441 C440 1.370 . S
C441 C445 1.408 . S
C442 C440 1.363 . S
C442 C443 1.370 . S
C442 C446 1.524 . S
C443 C435 1.503 . S
C443 C442 1.370 . S
C443 C444 1.403 . S
C444 C443 1.403 . S
C444 C445 1.404 . S
C444 C447 1.539 . S
C445 C441 1.408 . S
C445 C444 1.404 . S
C445 H457 0.930 . S
C446 C442 1.524 . S
C446 H458 0.956 . S
C446 H459 0.961 . S
C446 H460 0.961 . S
C447 C444 1.539 . S
C447 H461 0.958 . S
C447 H462 0.961 . S
C447 H463 0.960 . S
H448 C432 0.931 . S
H449 C437 0.929 . S
H450 C438 0.960 . S
H451 C438 0.962 . S
H452 C438 0.960 . S
H453 C439 0.961 . S
H454 C439 0.961 . S
H455 C439 0.961 . S
H456 C440 0.931 . S
H457 C445 0.930 . S
H458 C446 0.956 . S
H459 C446 0.961 . S
H460 C446 0.961 . S
H461 C447 0.958 . S
H462 C447 0.961 . S
H463 C447 0.960 . S
C464 C465 1.391 . S
C464 C466 1.394 . S
C464 H480 0.931 . S
C465 C464 1.391 . S
C465 C469 1.376 . S
C466 C464 1.394 . S
C466 C467 1.369 . S
C466 C470 1.531 . S
C467 C466 1.369 . S
C467 C468 1.410 . S
C467 C475 1.503 . S
C468 C467 1.410 . S
C468 C469 1.392 . S
C468 C471 1.511 . S
C469 C465 1.376 . S
C469 C468 1.392 . S
C469 H481 0.929 . S
C470 C466 1.531 . S
C470 H482 0.960 . S
C470 H483 0.962 . S
C470 H484 0.960 . S
C471 C468 1.511 . S
C471 H485 0.961 . S
C471 H486 0.961 . S
C471 H487 0.961 . S
C472 C473 1.370 . S
C472 C474 1.363 . S
C472 H488 0.931 . S
C473 C472 1.370 . S
C473 C477 1.408 . S
C474 C472 1.363 . S
C474 C475 1.370 . S
C474 C478 1.524 . S
C475 C467 1.503 . S
C475 C474 1.370 . S
C475 C476 1.403 . S
C476 C475 1.403 . S
C476 C477 1.404 . S
C476 C479 1.539 . S
C477 C473 1.408 . S
C477 C476 1.404 . S
C477 H489 0.930 . S
C478 C474 1.524 . S
C478 H490 0.956 . S
C478 H491 0.961 . S
C478 H492 0.961 . S
C479 C476 1.539 . S
C479 H493 0.958 . S
C479 H494 0.961 . S
C479 H495 0.960 . S
H480 C464 0.931 . S
H481 C469 0.929 . S
H482 C470 0.960 . S
H483 C470 0.962 . S
H484 C470 0.960 . S
H485 C471 0.961 . S
H486 C471 0.961 . S
H487 C471 0.961 . S
H488 C472 0.931 . S
H489 C477 0.930 . S
H490 C478 0.956 . S
H491 C478 0.961 . S
H492 C478 0.961 . S
H493 C479 0.958 . S
H494 C479 0.961 . S
H495 C479 0.960 . S
C496 C497 1.391 . S
C496 C498 1.394 . S
C496 H512 0.931 . S
C497 C496 1.391 . S
C497 C501 1.376 . S
C498 C496 1.394 . S
C498 C499 1.369 . S
C498 C502 1.531 . S
C499 C498 1.369 . S
C499 C500 1.410 . S
C499 C507 1.503 . S
C500 C499 1.410 . S
C500 C501 1.392 . S
C500 C503 1.511 . S
C501 C497 1.376 . S
C501 C500 1.392 . S
C501 H513 0.929 . S
C502 C498 1.531 . S
C502 H514 0.960 . S
C502 H515 0.962 . S
C502 H516 0.960 . S
C503 C500 1.511 . S
C503 H517 0.961 . S
C503 H518 0.961 . S
C503 H519 0.961 . S
C504 C505 1.370 . S
C504 C506 1.363 . S
C504 H520 0.931 . S
C505 C504 1.370 . S
C505 C509 1.408 . S
C506 C504 1.363 . S
C506 C507 1.370 . S
C506 C510 1.524 . S
C507 C499 1.503 . S
C507 C506 1.370 . S
C507 C508 1.403 . S
C508 C507 1.403 . S
C508 C509 1.404 . S
C508 C511 1.539 . S
C509 C505 1.408 . S
C509 C508 1.404 . S
C509 H521 0.930 . S
C510 C506 1.524 . S
C510 H522 0.956 . S
C510 H523 0.961 . S
C510 H524 0.961 . S
C511 C508 1.539 . S
C511 H525 0.958 . S
C511 H526 0.961 . S
C511 H527 0.960 . S
H512 C496 0.931 . S
H513 C501 0.929 . S
H514 C502 0.960 . S
H515 C502 0.962 . S
H516 C502 0.960 . S
H517 C503 0.961 . S
H518 C503 0.961 . S
H519 C503 0.961 . S
H520 C504 0.931 . S
H521 C509 0.930 . S
H522 C510 0.956 . S
H523 C510 0.961 . S
H524 C510 0.961 . S
H525 C511 0.958 . S
H526 C511 0.961 . S
H527 C511 0.960 . S
C528 C529 1.391 . S
C528 C530 1.394 1_554 S
C528 H544 0.931 . S
C529 C528 1.391 . S
C529 C533 1.376 1_554 S
C530 C528 1.394 1_556 S
C530 C531 1.369 . S
C530 C534 1.531 . S
C531 C530 1.369 . S
C531 C532 1.410 . S
C531 C539 1.503 . S
C532 C531 1.410 . S
C532 C533 1.392 . S
C532 C535 1.511 . S
C533 C529 1.376 1_556 S
C533 C532 1.392 . S
C533 H545 0.929 . S
C534 C530 1.531 . S
C534 H546 0.960 . S
C534 H547 0.962 . S
C534 H548 0.960 . S
C535 C532 1.511 . S
C535 H549 0.961 . S
C535 H550 0.961 . S
C535 H551 0.961 . S
C536 C537 1.370 . S
C536 C538 1.363 . S
C536 H552 0.931 . S
C537 C536 1.370 . S
C537 C541 1.408 . S
C538 C536 1.363 . S
C538 C539 1.370 . S
C538 C542 1.524 . S
C539 C531 1.503 . S
C539 C538 1.370 . S
C539 C540 1.403 . S
C540 C539 1.403 . S
C540 C541 1.404 . S
C540 C543 1.539 . S
C541 C537 1.408 . S
C541 C540 1.404 . S
C541 H553 0.930 . S
C542 C538 1.524 . S
C542 H554 0.956 . S
C542 H555 0.961 . S
C542 H556 0.961 . S
C543 C540 1.539 . S
C543 H557 0.958 . S
C543 H558 0.961 . S
C543 H559 0.960 . S
H544 C528 0.931 . S
H545 C533 0.929 . S
H546 C534 0.960 . S
H547 C534 0.962 . S
H548 C534 0.960 . S
H549 C535 0.961 . S
H550 C535 0.961 . S
H551 C535 0.961 . S
H552 C536 0.931 . S
H553 C541 0.930 . S
H554 C542 0.956 . S
H555 C542 0.961 . S
H556 C542 0.961 . S
H557 C543 0.958 . S
H558 C543 0.961 . S
H559 C543 0.960 . S
C560 C561 1.391 . S
C560 C562 1.394 . S
C560 H576 0.931 . S
C561 C560 1.391 . S
C561 C565 1.376 . S
C562 C560 1.394 . S
C562 C563 1.369 . S
C562 C566 1.531 . S
C563 C562 1.369 . S
C563 C564 1.410 . S
C563 C571 1.503 . S
C564 C563 1.410 . S
C564 C565 1.392 . S
C564 C567 1.511 . S
C565 C561 1.376 . S
C565 C564 1.392 . S
C565 H577 0.929 . S
C566 C562 1.531 . S
C566 H578 0.960 . S
C566 H579 0.962 . S
C566 H580 0.960 . S
C567 C564 1.511 . S
C567 H581 0.961 . S
C567 H582 0.961 . S
C567 H583 0.961 . S
C568 C569 1.370 . S
C568 C570 1.363 . S
C568 H584 0.931 . S
C569 C568 1.370 . S
C569 C573 1.408 . S
C570 C568 1.363 . S
C570 C571 1.370 . S
C570 C574 1.524 . S
C571 C563 1.503 . S
C571 C570 1.370 . S
C571 C572 1.403 . S
C572 C571 1.403 . S
C572 C573 1.404 . S
C572 C575 1.539 . S
C573 C569 1.408 . S
C573 C572 1.404 . S
C573 H585 0.930 . S
C574 C570 1.524 . S
C574 H586 0.956 . S
C574 H587 0.961 . S
C574 H588 0.961 . S
C575 C572 1.539 . S
C575 H589 0.958 . S
C575 H590 0.961 . S
C575 H591 0.960 . S
H576 C560 0.931 . S
H577 C565 0.929 . S
H578 C566 0.960 . S
H579 C566 0.962 . S
H580 C566 0.960 . S
H581 C567 0.961 . S
H582 C567 0.961 . S
H583 C567 0.961 . S
H584 C568 0.931 . S
H585 C573 0.930 . S
H586 C574 0.956 . S
H587 C574 0.961 . S
H588 C574 0.961 . S
H589 C575 0.958 . S
H590 C575 0.961 . S
H591 C575 0.960 . S
C592 C593 1.391 1_556 S
C592 C594 1.394 . S
C592 H608 0.931 1_556 S
C593 C592 1.391 1_554 S
C593 C597 1.376 1_554 S
C594 C592 1.394 . S
C594 C595 1.369 . S
C594 C598 1.531 . S
C595 C594 1.369 . S
C595 C596 1.410 . S
C595 C603 1.503 . S
C596 C595 1.410 . S
C596 C597 1.392 . S
C596 C599 1.511 . S
C597 C593 1.376 1_556 S
C597 C596 1.392 . S
C597 H609 0.929 1_556 S
C598 C594 1.531 . S
C598 H610 0.960 . S
C598 H611 0.962 . S
C598 H612 0.960 . S
C599 C596 1.511 . S
C599 H613 0.961 . S
C599 H614 0.961 . S
C599 H615 0.961 . S
C600 C601 1.370 . S
C600 C602 1.363 . S
C600 H616 0.931 . S
C601 C600 1.370 . S
C601 C605 1.408 . S
C602 C600 1.363 . S
C602 C603 1.370 . S
C602 C606 1.524 . S
C603 C595 1.503 . S
C603 C602 1.370 . S
C603 C604 1.403 . S
C604 C603 1.403 . S
C604 C605 1.404 . S
C604 C607 1.539 . S
C605 C601 1.408 . S
C605 C604 1.404 . S
C605 H617 0.930 . S
C606 C602 1.524 . S
C606 H618 0.956 . S
C606 H619 0.961 . S
C606 H620 0.961 . S
C607 C604 1.539 . S
C607 H621 0.958 . S
C607 H622 0.961 . S
C607 H623 0.960 . S
H608 C592 0.931 1_554 S
H609 C597 0.929 1_554 S
H610 C598 0.960 . S
H611 C598 0.962 . S
H612 C598 0.960 . S
H613 C599 0.961 . S
H614 C599 0.961 . S
H615 C599 0.961 . S
H616 C600 0.931 . S
H617 C605 0.930 . S
H618 C606 0.956 . S
H619 C606 0.961 . S
H620 C606 0.961 . S
H621 C607 0.958 . S
H622 C607 0.961 . S
H623 C607 0.960 . S
C113 C7 1.501 . S
C121 C49 1.506 . S
C145 C9 1.595 . S
C153 C23 1.591 . S
C177 C21 1.460 . S
C185 C35 1.521 . S
C209 C51 1.581 . S
C217 C37 1.589 . S
C241 C63 1.540 . S
C249 C105 1.488 . S
C273 C79 1.577 . S
C281 C65 1.589 . S
C305 C91 1.490 . S
C313 C77 1.507 . S
C337 C107 1.575 . S
C345 C93 1.590 . S
C369 C92 1.531 . S
C377 C6 1.482 . S
C401 C22 1.546 . S
C409 C104 1.497 . S
C433 C64 1.544 . S
C441 C34 1.497 . S
C465 C76 1.507 . S
C473 C50 1.545 . S
C497 C78 1.536 . S
C505 C48 1.472 . S
C529 C8 1.559 . S
C537 C90 1.476 . S
C561 C20 1.512 . S
C569 C106 1.546 . S
C593 C36 1.559 . S
C601 C62 1.484 . S
