# Generated by pormake.
# Topology oof, (8)-cn, num edge types: 1
# Building blocks:
#     Node 0, Type 0, BuildingBlock: TAGTUT_clean_sbu_1, # of connection points: 8
#     Node 1, Type 0, BuildingBlock: TAGTUT_clean_sbu_1, # of connection points: 8
#     Node 2, Type 0, BuildingBlock: TAGTUT_clean_sbu_1, # of connection points: 8
#     Node 3, Type 0, BuildingBlock: TAGTUT_clean_sbu_1, # of connection points: 8
#     Edge 4, Type (0, 0), BuildingBlock: MIFKUJ_clean_linker_0, # of connection points: 2
#     Edge 5, Type (0, 0), BuildingBlock: MIFKUJ_clean_linker_0, # of connection points: 2
#     Edge 6, Type (0, 0), BuildingBlock: MIFKUJ_clean_linker_0, # of connection points: 2
#     Edge 7, Type (0, 0), BuildingBlock: MIFKUJ_clean_linker_0, # of connection points: 2
#     Edge 8, Type (0, 0), BuildingBlock: MIFKUJ_clean_linker_0, # of connection points: 2
#     Edge 9, Type (0, 0), BuildingBlock: MIFKUJ_clean_linker_0, # of connection points: 2
#     Edge 10, Type (0, 0), BuildingBlock: MIFKUJ_clean_linker_0, # of connection points: 2
#     Edge 11, Type (0, 0), BuildingBlock: MIFKUJ_clean_linker_0, # of connection points: 2
#     Edge 12, Type (0, 0), BuildingBlock: MIFKUJ_clean_linker_0, # of connection points: 2
#     Edge 13, Type (0, 0), BuildingBlock: MIFKUJ_clean_linker_0, # of connection points: 2
#     Edge 14, Type (0, 0), BuildingBlock: MIFKUJ_clean_linker_0, # of connection points: 2
#     Edge 15, Type (0, 0), BuildingBlock: MIFKUJ_clean_linker_0, # of connection points: 2
#     Edge 16, Type (0, 0), BuildingBlock: MIFKUJ_clean_linker_0, # of connection points: 2
#     Edge 17, Type (0, 0), BuildingBlock: MIFKUJ_clean_linker_0, # of connection points: 2
#     Edge 18, Type (0, 0), BuildingBlock: MIFKUJ_clean_linker_0, # of connection points: 2
#     Edge 19, Type (0, 0), BuildingBlock: MIFKUJ_clean_linker_0, # of connection points: 2
# Relax obj value: 0.054
# Max RMSD: 0.156
# Mean RMSD: 0.156
data_MOF--net-oof--node1-TAGTUT_clean_sbu_1--edge1-MIFKUJ_clean_linker_0
_symmetry_space_group_name_H-M    P1
_symmetry_Int_Tables_number       1
_symmetry_cell_setting            triclinic
loop_
_symmetry_equiv_pos_as_xyz
'x, y, z'
_cell_length_a     19.212023
_cell_length_b     69.905778
_cell_length_c     23.891466
_cell_angle_alpha  92.042381
_cell_angle_beta   101.8642
_cell_angle_gamma 102.47412
loop_
_atom_site_label
_atom_site_type_symbol
_atom_site_fract_x
_atom_site_fract_y
_atom_site_fract_z
_atom_type_partial_charge
C0 C 0.02284 0.11944 0.42578 0.0
C1 C 0.05119 0.08082 0.29776 0.0
C2 C 0.17246 0.15452 0.22276 0.0
Mg3 Mg 0.93971 0.10505 0.30135 0.0
O4 O 0.00414 0.12791 0.29026 0.0
Mg5 Mg 0.11072 0.13096 0.32082 0.0
Mg6 Mg 0.00521 0.13559 0.212 0.0
O7 O 0.00422 0.14378 0.13301 0.0
Mg8 Mg 0.05464 0.16958 0.12848 0.0
Mg9 Mg 0.89562 0.13767 0.1019 0.0
C10 C 0.82943 0.12113 0.21017 0.0
C11 C 0.94687 0.09616 0.12182 0.0
O12 O 0.08102 0.12626 0.40775 0.0
O13 O 0.96217 0.11082 0.39229 0.0
O14 O 0.10133 0.09675 0.31129 0.0
O15 O 0.98415 0.08121 0.2811 0.0
O16 O 0.83856 0.10951 0.25001 0.0
O17 O 0.88333 0.13174 0.19376 0.0
C18 C 0.07742 0.17426 0.30299 0.0
O19 O 0.03147 0.16786 0.25519 0.0
O20 O 0.11264 0.16319 0.33283 0.0
O21 O 0.92613 0.14527 0.01638 0.0
O22 O 0.03733 0.16621 0.03704 0.0
O23 O 0.88535 0.16959 0.11399 0.0
C24 C 0.98124 0.15604 0.00119 0.0
O25 O 0.99228 0.1907 0.14512 0.0
O26 O 0.15534 0.16728 0.18795 0.0
C27 C 0.92272 0.18706 0.13002 0.0
O28 O 0.12633 0.13895 0.22968 0.0
O29 O 0.98572 0.10381 0.171 0.0
O30 O 0.90823 0.10589 0.08913 0.0
C31 C 0.02318 0.8601 0.97651 0.0
C32 C 0.08999 0.82884 0.85171 0.0
C33 C 0.19301 0.89883 0.78196 0.0
Mg34 Mg 0.95725 0.8469 0.84819 0.0
O35 O 0.01153 0.87225 0.84406 0.0
Mg36 Mg 0.11854 0.87831 0.88055 0.0
Mg37 Mg 0.01654 0.88142 0.76695 0.0
O38 O 0.02346 0.8904 0.69027 0.0
Mg39 Mg 0.08549 0.91459 0.68674 0.0
Mg40 Mg 0.91736 0.88741 0.65598 0.0
C41 C 0.84631 0.86272 0.75009 0.0
C42 C 0.95226 0.84408 0.67082 0.0
O43 O 0.08132 0.86988 0.96314 0.0
O44 O 0.96676 0.85083 0.93922 0.0
O45 O 0.12858 0.84625 0.86738 0.0
O46 O 0.02049 0.82554 0.83591 0.0
O47 O 0.85999 0.84984 0.78559 0.0
O48 O 0.89524 0.87779 0.74411 0.0
C49 C 0.0673 0.91982 0.86108 0.0
O50 O 0.03181 0.9126 0.81058 0.0
O51 O 0.10454 0.90991 0.89434 0.0
O52 O 0.95383 0.89507 0.57261 0.0
O53 O 0.07139 0.91201 0.59542 0.0
O54 O 0.92157 0.92108 0.66898 0.0
C55 C 0.01297 0.90381 0.5586 0.0
O56 O 0.03526 0.93688 0.70989 0.0
O57 O 0.18396 0.91102 0.74373 0.0
C58 C 0.96942 0.93711 0.68737 0.0
O59 O 0.13948 0.88589 0.79162 0.0
O60 O 0.99359 0.84972 0.72099 0.0
O61 O 0.91959 0.85559 0.64066 0.0
C62 C 0.55423 0.61927 0.44278 0.0
C63 C 0.58396 0.58495 0.31251 0.0
C64 C 0.67379 0.65749 0.22662 0.0
Mg65 Mg 0.46464 0.60433 0.3187 0.0
O66 O 0.51573 0.6292 0.30693 0.0
Mg67 Mg 0.62481 0.63509 0.3328 0.0
Mg68 Mg 0.50866 0.63594 0.22606 0.0
O69 O 0.49999 0.64307 0.14549 0.0
Mg70 Mg 0.54479 0.66877 0.13438 0.0
Mg71 Mg 0.39101 0.63501 0.11814 0.0
C72 C 0.33862 0.61618 0.2295 0.0
C73 C 0.45472 0.59551 0.13927 0.0
O74 O 0.60526 0.62981 0.42264 0.0
O75 O 0.49631 0.6083 0.41088 0.0
O76 O 0.62876 0.60169 0.32779 0.0
O77 O 0.51799 0.584 0.2878 0.0
O78 O 0.35718 0.60549 0.27007 0.0
O79 O 0.38589 0.62904 0.21186 0.0
C80 C 0.57234 0.67596 0.31205 0.0
O81 O 0.52599 0.66825 0.2656 0.0
O82 O 0.61408 0.66638 0.34199 0.0
O83 O 0.41292 0.64167 0.02884 0.0
O84 O 0.5212 0.66363 0.0426 0.0
O85 O 0.37435 0.66664 0.12865 0.0
C86 C 0.46473 0.65241 0.0097 0.0
O87 O 0.47993 0.68882 0.15281 0.0
O88 O 0.65136 0.66893 0.18931 0.0
C89 C 0.41022 0.68445 0.14141 0.0
O90 O 0.63082 0.64223 0.2393 0.0
O91 O 0.49596 0.60402 0.18685 0.0
O92 O 0.41095 0.60419 0.10759 0.0
C93 C 0.50476 0.3582 0.97679 0.0
C94 C 0.57068 0.32726 0.84855 0.0
C95 C 0.68204 0.39769 0.78632 0.0
Mg96 Mg 0.44014 0.34631 0.84756 0.0
O97 O 0.49743 0.37149 0.84541 0.0
Mg98 Mg 0.60401 0.37642 0.8826 0.0
Mg99 Mg 0.50498 0.38156 0.76953 0.0
O100 O 0.51405 0.39126 0.69388 0.0
Mg101 Mg 0.57991 0.41464 0.68869 0.0
Mg102 Mg 0.40886 0.38859 0.65775 0.0
C103 C 0.33376 0.36374 0.74948 0.0
C104 C 0.43984 0.34485 0.6707 0.0
O105 O 0.56457 0.36738 0.96447 0.0
O106 O 0.4479 0.34979 0.93858 0.0
O107 O 0.61071 0.34442 0.86524 0.0
O108 O 0.50113 0.32436 0.83429 0.0
O109 O 0.34523 0.35045 0.78415 0.0
O110 O 0.38398 0.37873 0.74514 0.0
C111 C 0.55907 0.41877 0.86805 0.0
O112 O 0.52344 0.41255 0.81669 0.0
O113 O 0.59379 0.40795 0.89969 0.0
O114 O 0.44717 0.3963 0.57468 0.0
O115 O 0.56727 0.41092 0.59727 0.0
O116 O 0.41547 0.42218 0.67315 0.0
C117 C 0.50754 0.40382 0.56047 0.0
O118 O 0.53156 0.4382 0.70639 0.0
O119 O 0.67563 0.4101 0.74827 0.0
C120 C 0.46425 0.43822 0.68894 0.0
O121 O 0.62701 0.38505 0.79486 0.0
O122 O 0.48049 0.35017 0.72122 0.0
O123 O 0.40855 0.35664 0.64073 0.0
H124 H 0.06202 0.18349 0.94781 0.0
H125 H 0.07215 0.18109 0.84735 0.0
H126 H 0.91404 0.1256 0.81755 0.0
H127 H 0.90258 0.12791 0.91727 0.0
H128 H 0.06369 0.12798 0.79026 0.0
H129 H 0.85011 0.15751 0.76158 0.0
H130 H 0.78848 0.18365 0.78194 0.0
H131 H 0.95563 0.2268 0.73252 0.0
H132 H 0.01833 0.20089 0.71193 0.0
H133 H 0.90526 0.11543 0.47501 0.0
H134 H 0.90461 0.12713 0.5721 0.0
H135 H 0.13921 0.14726 0.60893 0.0
H136 H 0.14094 0.13559 0.51172 0.0
H137 H 0.96327 0.16609 0.63429 0.0
H138 H 0.19083 0.1315 0.74778 0.0
H139 H 0.25946 0.10761 0.72261 0.0
H140 H 0.06867 0.07589 0.60098 0.0
H141 H -0.00208 0.09873 0.62823 0.0
C142 C 0.02891 0.1709 0.91961 0.0
C143 C 0.98202 0.15579 0.94013 0.0
C144 C 0.03468 0.1696 0.86257 0.0
C145 C 0.99416 0.15313 0.82609 0.0
C146 C 0.9457 0.13836 0.84581 0.0
C147 C 0.93907 0.13976 0.90248 0.0
C148 C 0.00492 0.15062 0.7679 0.0
C149 C 0.04218 0.13634 0.75611 0.0
C150 C 0.97752 0.16183 0.72432 0.0
C151 C 0.93923 0.17732 0.73579 0.0
C152 C 0.87396 0.1726 0.75545 0.0
C153 C 0.83879 0.18736 0.76696 0.0
C154 C 0.86835 0.20689 0.75891 0.0
C155 C 0.93287 0.21167 0.73888 0.0
C156 C 0.96813 0.19695 0.72713 0.0
C157 C 0.95686 0.1222 0.50377 0.0
C158 C 0.02326 0.12442 0.48597 0.0
C159 C 0.95613 0.1292 0.55871 0.0
C160 C 0.02171 0.13822 0.59671 0.0
C161 C 0.08815 0.14047 0.57946 0.0
C162 C 0.08899 0.13357 0.52436 0.0
C163 C 0.02065 0.14315 0.65639 0.0
C164 C 0.98566 0.15792 0.66859 0.0
C165 C 0.05029 0.13241 0.70052 0.0
C166 C 0.0895 0.11706 0.68929 0.0
C167 C 0.16324 0.1192 0.71649 0.0
C168 C 0.20247 0.10579 0.70197 0.0
C169 C 0.1686 0.09028 0.66004 0.0
C170 C 0.09496 0.08787 0.63353 0.0
C171 C 0.05509 0.10093 0.64888 0.0
H172 H 0.1993 0.08008 0.64826 0.0
H173 H 0.84114 0.2183 0.76801 0.0
H174 H 0.13152 0.90289 0.51456 0.0
H175 H 0.13219 0.89489 0.41448 0.0
H176 H 0.90156 0.89328 0.36617 0.0
H177 H 0.89995 0.90053 0.46675 0.0
H178 H 0.93477 0.86122 0.32279 0.0
H179 H 0.03596 0.93101 0.34695 0.0
H180 H 0.12582 0.96022 0.39737 0.0
H181 H 0.29784 0.9398 0.34212 0.0
H182 H 0.21023 0.90955 0.29562 0.0
H183 H 0.90252 0.8574 0.02117 0.0
H184 H 0.90034 0.86409 0.1217 0.0
H185 H 0.13434 0.87086 0.16874 0.0
H186 H 0.13711 0.86508 0.06796 0.0
H187 H 0.09849 0.90068 0.21269 0.0
H188 H 0.0126 0.83085 0.20302 0.0
H189 H 0.93409 0.79838 0.16445 0.0
H190 H 0.74612 0.81745 0.19486 0.0
H191 H 0.82336 0.85015 0.23289 0.0
C192 C 0.08132 0.90121 0.48241 0.0
C193 C 0.01567 0.90232 0.49798 0.0
C194 C 0.08173 0.89658 0.42544 0.0
C195 C 0.01697 0.89361 0.38324 0.0
C196 C 0.95191 0.89547 0.39842 0.0
C197 C 0.95117 0.89971 0.45557 0.0
C198 C 0.01643 0.88781 0.32347 0.0
C199 C 0.96975 0.86996 0.29827 0.0
C200 C 0.06425 0.89901 0.29282 0.0
C201 C 0.11626 0.91781 0.3181 0.0
C202 C 0.09299 0.93259 0.34594 0.0
C203 C 0.14366 0.94934 0.37404 0.0
C204 C 0.21731 0.952 0.37236 0.0
C205 C 0.24069 0.93776 0.34325 0.0
C206 C 0.19062 0.92069 0.3165 0.0
C207 C 0.9532 0.85994 0.05317 0.0
C208 C 0.02004 0.86086 0.03716 0.0
C209 C 0.95191 0.86372 0.1105 0.0
C210 C 0.01721 0.86793 0.1525 0.0
C211 C 0.08349 0.86779 0.13678 0.0
C212 C 0.08497 0.86443 0.07942 0.0
C213 C 0.01727 0.87396 0.21213 0.0
C214 C 0.06351 0.89193 0.23718 0.0
C215 C 0.97033 0.86269 0.24319 0.0
C216 C 0.92371 0.84302 0.22031 0.0
C217 C 0.95444 0.82818 0.20106 0.0
C218 C 0.91017 0.80972 0.17937 0.0
C219 C 0.83514 0.80587 0.17708 0.0
C220 C 0.80423 0.82046 0.1966 0.0
C221 C 0.84824 0.83896 0.21827 0.0
H222 H 0.80096 0.79156 0.16029 0.0
H223 H 0.2563 0.96508 0.3938 0.0
H224 H 0.54274 0.67764 0.94869 0.0
H225 H 0.55418 0.67161 0.85008 0.0
H226 H 0.39551 0.61647 0.83297 0.0
H227 H 0.38361 0.62235 0.93166 0.0
H228 H 0.52617 0.61303 0.80446 0.0
H229 H 0.34706 0.65133 0.75831 0.0
H230 H 0.29168 0.67965 0.76768 0.0
H231 H 0.47949 0.71825 0.72979 0.0
H232 H 0.53613 0.69014 0.72025 0.0
H233 H 0.49141 0.59235 0.50592 0.0
H234 H 0.47678 0.59781 0.60415 0.0
H235 H 0.61738 0.65581 0.61806 0.0
H236 H 0.62824 0.65065 0.51871 0.0
H237 H 0.4929 0.65728 0.64812 0.0
H238 H 0.67405 0.6186 0.69861 0.0
H239 H 0.72526 0.58975 0.68469 0.0
H240 H 0.52943 0.55147 0.7105 0.0
H241 H 0.47742 0.5801 0.72541 0.0
C242 C 0.50945 0.66438 0.92366 0.0
C243 C 0.46285 0.65037 0.94794 0.0
C244 C 0.51587 0.66099 0.86738 0.0
C245 C 0.47589 0.64357 0.83473 0.0
C246 C 0.42689 0.62996 0.85788 0.0
C247 C 0.41991 0.63342 0.91403 0.0
C248 C 0.48938 0.63901 0.77792 0.0
C249 C 0.51801 0.62253 0.76992 0.0
C250 C 0.48009 0.6517 0.73371 0.0
C251 C 0.44613 0.66865 0.73908 0.0
C252 C 0.3768 0.66588 0.75237 0.0
C253 C 0.34512 0.68188 0.75761 0.0
C254 C 0.38223 0.70075 0.74969 0.0
C255 C 0.45088 0.70363 0.73605 0.0
C256 C 0.4827 0.68766 0.73053 0.0
C257 C 0.51889 0.60616 0.53032 0.0
C258 C 0.55893 0.62118 0.50477 0.0
C259 C 0.51159 0.60922 0.58645 0.0
C260 C 0.54595 0.62725 0.61823 0.0
C261 C 0.59015 0.64184 0.59398 0.0
C262 C 0.59679 0.63881 0.53753 0.0
C263 C 0.53068 0.63143 0.6748 0.0
C264 C 0.50146 0.64782 0.68273 0.0
C265 C 0.5393 0.61864 0.71889 0.0
C266 C 0.57189 0.60148 0.71307 0.0
C267 C 0.64211 0.60402 0.70163 0.0
C268 C 0.6713 0.58771 0.6937 0.0
C269 C 0.63072 0.56878 0.69701 0.0
C270 C 0.56105 0.56614 0.7086 0.0
C271 C 0.53184 0.58241 0.71708 0.0
H272 H 0.65316 0.55615 0.69047 0.0
H273 H 0.35767 0.71313 0.75393 0.0
H274 H 0.38387 0.35823 0.01921 0.0
H275 H 0.38049 0.36536 0.1196 0.0
H276 H 0.61097 0.36738 0.17046 0.0
H277 H 0.61522 0.36069 0.07011 0.0
H278 H 0.51494 0.34685 0.24366 0.0
H279 H 0.57585 0.40766 0.15313 0.0
H280 H 0.55396 0.43008 0.07733 0.0
H281 H 0.34836 0.43231 0.11835 0.0
H282 H 0.36838 0.40958 0.19366 0.0
H283 H 0.62032 0.39877 0.51375 0.0
H284 H 0.61635 0.39132 0.41223 0.0
H285 H 0.39341 0.39752 0.36848 0.0
H286 H 0.39712 0.40508 0.47012 0.0
H287 H 0.47868 0.41334 0.29054 0.0
H288 H 0.41306 0.35378 0.37907 0.0
H289 H 0.42708 0.33056 0.45359 0.0
H290 H 0.6312 0.32505 0.41559 0.0
H291 H 0.61875 0.34846 0.34123 0.0
C292 C 0.43339 0.35975 0.05197 0.0
C293 C 0.49992 0.35904 0.03721 0.0
C294 C 0.43141 0.36389 0.10902 0.0
C295 C 0.49564 0.36703 0.15176 0.0
C296 C 0.56106 0.36501 0.13767 0.0
C297 C 0.5634 0.36126 0.08056 0.0
C298 C 0.49604 0.37395 0.21052 0.0
C299 C 0.5077 0.36142 0.25415 0.0
C300 C 0.48466 0.3928 0.22328 0.0
C301 C 0.47312 0.40668 0.17848 0.0
C302 C 0.52561 0.41276 0.14559 0.0
C303 C 0.51362 0.42555 0.10278 0.0
C304 C 0.44963 0.43252 0.09284 0.0
C305 C 0.39777 0.42683 0.12597 0.0
C306 C 0.40941 0.41399 0.1687 0.0
C307 C 0.57113 0.399 0.48235 0.0
C308 C 0.50891 0.40239 0.49943 0.0
C309 C 0.56879 0.39465 0.4246 0.0
C310 C 0.50427 0.39365 0.38342 0.0
C311 C 0.44351 0.3982 0.39995 0.0
C312 C 0.44561 0.4024 0.45779 0.0
C313 C 0.49856 0.38632 0.32387 0.0
C314 C 0.48574 0.39874 0.28007 0.0
C315 C 0.50788 0.36727 0.31076 0.0
C316 C 0.51535 0.35303 0.35501 0.0
C317 C 0.46122 0.34773 0.38691 0.0
C318 C 0.46881 0.33451 0.42907 0.0
C319 C 0.53013 0.32638 0.43947 0.0
C320 C 0.58379 0.33139 0.40755 0.0
C321 C 0.57645 0.34461 0.36533 0.0
H322 H 0.53603 0.31617 0.47218 0.0
H323 H 0.44016 0.44231 0.05947 0.0
H324 H 0.69613 0.09797 0.21088 0.0
H325 H 0.58966 0.11032 0.22214 0.0
H326 H 0.69892 0.16863 0.19269 0.0
H327 H 0.80434 0.15642 0.18109 0.0
H328 H 0.60926 0.13746 0.31273 0.0
H329 H 0.56481 0.19583 0.15498 0.0
H330 H 0.57917 0.2036 0.05751 0.0
H331 H 0.54802 0.14222 0.00755 0.0
H332 H 0.5314 0.13402 0.1042 0.0
H333 H 0.27523 0.18905 0.24317 0.0
H334 H 0.40699 0.19211 0.26682 0.0
H335 H 0.37228 0.13042 0.29533 0.0
H336 H 0.24133 0.12743 0.27334 0.0
H337 H 0.4486 0.17322 0.18972 0.0
H338 H 0.51759 0.11687 0.35865 0.0
H339 H 0.50368 0.11056 0.457 0.0
H340 H 0.48699 0.1701 0.48811 0.0
H341 H 0.50197 0.17691 0.39027 0.0
C342 C 0.69592 0.11321 0.20424 0.0
C343 C 0.75834 0.12624 0.19511 0.0
C344 C 0.63562 0.12028 0.21122 0.0
C345 C 0.6374 0.14041 0.20916 0.0
C346 C 0.69651 0.15303 0.19409 0.0
C347 C 0.75648 0.14594 0.18665 0.0
C348 C 0.58194 0.14847 0.2298 0.0
C349 C 0.57334 0.14512 0.28585 0.0
C350 C 0.53958 0.15975 0.19601 0.0
C351 C 0.54799 0.16435 0.13719 0.0
C352 C 0.56075 0.18398 0.12314 0.0
C353 C 0.5692 0.18846 0.06801 0.0
C354 C 0.5651 0.17343 0.0265 0.0
C355 C 0.55169 0.15386 0.03987 0.0
C356 C 0.54268 0.14928 0.09482 0.0
C357 C 0.29597 0.17634 0.25665 0.0
C358 C 0.24855 0.1578 0.25418 0.0
C359 C 0.37118 0.17817 0.27062 0.0
C360 C 0.39927 0.16145 0.28171 0.0
C361 C 0.35196 0.14359 0.28725 0.0
C362 C 0.27683 0.1418 0.27396 0.0
C363 C 0.47186 0.16097 0.27151 0.0
C364 C 0.48512 0.16596 0.21754 0.0
C365 C 0.51891 0.15137 0.30747 0.0
C366 C 0.51084 0.1474 0.36684 0.0
C367 C 0.51162 0.1287 0.38654 0.0
C368 C 0.50335 0.12501 0.44222 0.0
C369 C 0.4944 0.13991 0.47876 0.0
C370 C 0.49378 0.15855 0.45972 0.0
C371 C 0.50204 0.16232 0.4041 0.0
H372 H 0.48796 0.13702 0.52183 0.0
H373 H 0.57198 0.17693 0.98393 0.0
H374 H 0.72841 0.83292 0.75016 0.0
H375 H 0.60658 0.83781 0.7473 0.0
H376 H 0.66693 0.8951 0.68616 0.0
H377 H 0.78997 0.89058 0.69036 0.0
H378 H 0.64569 0.89652 0.79544 0.0
H379 H 0.5155 0.86224 0.6137 0.0
H380 H 0.47867 0.83441 0.53938 0.0
H381 H 0.38887 0.79654 0.65701 0.0
H382 H 0.42554 0.82412 0.7322 0.0
H383 H 0.31783 0.92627 0.78398 0.0
H384 H 0.43604 0.91884 0.78725 0.0
H385 H 0.35764 0.86127 0.84085 0.0
H386 H 0.2381 0.86841 0.83574 0.0
H387 H 0.38874 0.85877 0.73871 0.0
H388 H 0.51231 0.89324 0.91895 0.0
H389 H 0.55295 0.92045 0.99522 0.0
H390 H 0.6597 0.95745 0.88377 0.0
H391 H 0.61857 0.93061 0.80641 0.0
C392 C 0.71509 0.84626 0.73392 0.0
C393 C 0.76953 0.86184 0.72353 0.0
C394 C 0.64506 0.84896 0.73183 0.0
C395 C 0.62888 0.86705 0.71813 0.0
C396 C 0.67929 0.88116 0.69772 0.0
C397 C 0.74957 0.87854 0.70017 0.0
C398 C 0.56942 0.87295 0.73923 0.0
C399 C 0.58902 0.8886 0.78216 0.0
C400 C 0.49692 0.86178 0.72415 0.0
C401 C 0.47367 0.84523 0.6787 0.0
C402 C 0.48813 0.84796 0.6238 0.0
C403 C 0.46708 0.83224 0.58146 0.0
C404 C 0.43154 0.81372 0.59348 0.0
C405 C 0.41645 0.8109 0.64776 0.0
C406 C 0.43711 0.82659 0.6902 0.0
C407 C 0.32651 0.91231 0.79872 0.0
C408 C 0.26811 0.89761 0.80742 0.0
C409 C 0.39448 0.90813 0.80104 0.0
C410 C 0.40489 0.88934 0.8131 0.0
C411 C 0.35005 0.87577 0.83071 0.0
C412 C 0.2818 0.87992 0.82804 0.0
C413 C 0.46462 0.88265 0.79438 0.0
C414 C 0.4453 0.86676 0.75209 0.0
C415 C 0.53759 0.89357 0.81027 0.0
C416 C 0.5618 0.90989 0.85662 0.0
C417 C 0.54379 0.90723 0.91043 0.0
C418 C 0.56705 0.9226 0.95394 0.0
C419 C 0.60874 0.94069 0.94432 0.0
C420 C 0.62731 0.94345 0.89116 0.0
C421 C 0.60409 0.92815 0.84748 0.0
H422 H 0.62677 0.95254 0.97809 0.0
H423 H 0.41567 0.80154 0.56075 0.0
H424 H 0.78254 0.68448 0.19661 0.0
H425 H 0.90682 0.68069 0.20438 0.0
H426 H 0.87047 0.63494 0.31851 0.0
H427 H 0.745 0.63791 0.30906 0.0
H428 H 0.03641 0.67578 0.2727 0.0
H429 H 0.88814 0.59412 0.25417 0.0
H430 H 0.7622 0.5737 0.22847 0.0
H431 H 0.69566 0.61675 0.11852 0.0
H432 H 0.82131 0.63724 0.14286 0.0
H433 H 0.22407 0.59429 0.26685 0.0
H434 H 0.10634 0.60254 0.26044 0.0
H435 H 0.15762 0.64535 0.14065 0.0
H436 H 0.27608 0.6374 0.14732 0.0
H437 H 0.98439 0.60746 0.18297 0.0
H438 H 0.12602 0.68821 0.19328 0.0
H439 H 0.25102 0.70899 0.21001 0.0
H440 H 0.32993 0.66879 0.32514 0.0
H441 H 0.20514 0.64802 0.3101 0.0
C442 C 0.80153 0.67406 0.22505 0.0
C443 C 0.75289 0.66071 0.24972 0.0
C444 C 0.873 0.67209 0.22987 0.0
C445 C 0.89609 0.65697 0.25998 0.0
C446 C 0.85232 0.64634 0.29382 0.0
C447 C 0.78042 0.64802 0.28815 0.0
C448 C 0.95462 0.64901 0.24388 0.0
C449 C 0.02522 0.66091 0.25293 0.0
C450 C 0.93909 0.62973 0.21678 0.0
C451 C 0.86386 0.61726 0.20075 0.0
C452 C 0.84666 0.59915 0.22429 0.0
C453 C 0.77537 0.58759 0.21 0.0
C454 C 0.72105 0.59395 0.17195 0.0
C455 C 0.73781 0.61186 0.14802 0.0
C456 C 0.80902 0.62345 0.16205 0.0
C457 C 0.20959 0.605 0.23762 0.0
C458 C 0.2607 0.61587 0.20958 0.0
C459 C 0.14207 0.60963 0.23387 0.0
C460 C 0.12512 0.62503 0.20179 0.0
C461 C 0.1711 0.63375 0.16677 0.0
C462 C 0.23885 0.6292 0.17074 0.0
C463 C 0.06663 0.63401 0.21318 0.0
C464 C -0.00429 0.62234 0.2028 0.0
C465 C 0.08183 0.65358 0.23809 0.0
C466 C 0.15639 0.66649 0.25013 0.0
C467 C 0.16996 0.68391 0.22256 0.0
C468 C 0.24077 0.69567 0.2317 0.0
C469 C 0.29844 0.69016 0.26837 0.0
C470 C 0.28526 0.67301 0.2966 0.0
C471 C 0.21447 0.66127 0.2879 0.0
H472 H 0.35331 0.6992 0.275 0.0
H473 H 0.6661 0.58496 0.16078 0.0
H474 H 0.80907 0.4254 0.79993 0.0
H475 H 0.92666 0.41762 0.79964 0.0
H476 H 0.83936 0.3575 0.82861 0.0
H477 H 0.72184 0.36513 0.82926 0.0
H478 H 0.00015 0.37198 0.86583 0.0
H479 H 0.79741 0.3653 0.70038 0.0
H480 H 0.6996 0.37819 0.64087 0.0
H481 H 0.85919 0.42704 0.60667 0.0
H482 H 0.95786 0.4146 0.66689 0.0
H483 H 0.21758 0.33225 0.73151 0.0
H484 H 0.09219 0.33501 0.72625 0.0
H485 H 0.15281 0.39646 0.69875 0.0
H486 H 0.27812 0.39387 0.70349 0.0
H487 H -0.00101 0.37844 0.65887 0.0
H488 H 0.1985 0.38728 0.82969 0.0
H489 H 0.29841 0.37586 0.89169 0.0
H490 H 0.1461 0.32378 0.91666 0.0
H491 H 0.04552 0.33478 0.85397 0.0
C492 C 0.81599 0.41078 0.8092 0.0
C493 C 0.75588 0.39566 0.81234 0.0
C494 C 0.88318 0.40638 0.80919 0.0
C495 C 0.89005 0.38687 0.81198 0.0
C496 C 0.83426 0.37259 0.8257 0.0
C497 C 0.76705 0.37701 0.82606 0.0
C498 C 0.94521 0.38058 0.78615 0.0
C499 C -0.00048 0.37313 0.82056 0.0
C500 C 0.94367 0.38213 0.72693 0.0
C501 C 0.88488 0.38911 0.68846 0.0
C502 C 0.81158 0.37882 0.68029 0.0
C503 C 0.75601 0.38605 0.64648 0.0
C504 C 0.77319 0.40345 0.62014 0.0
C505 C 0.846 0.41358 0.62718 0.0
C506 C 0.90177 0.40644 0.6611 0.0
C507 C 0.20349 0.34612 0.72159 0.0
C508 C 0.25791 0.3631 0.7209 0.0
C509 C 0.13175 0.34762 0.71824 0.0
C510 C 0.11473 0.36609 0.71446 0.0
C511 C 0.16572 0.38215 0.70259 0.0
C512 C 0.23748 0.38065 0.70562 0.0
C513 C 0.05429 0.36993 0.7386 0.0
C514 C -0.00102 0.37699 0.70393 0.0
C515 C 0.05494 0.36805 0.79761 0.0
C516 C 0.11477 0.36174 0.83679 0.0
C517 C 0.18645 0.37336 0.84826 0.0
C518 C 0.24317 0.36697 0.88349 0.0
C519 C 0.22863 0.34908 0.90798 0.0
C520 C 0.15729 0.33761 0.89756 0.0
C521 C 0.10042 0.34392 0.8622 0.0
H522 H 0.2726 0.34412 0.93509 0.0
H523 H 0.73013 0.40909 0.59428 0.0
H524 H 0.3456 0.31369 0.69776 0.0
H525 H 0.28356 0.28406 0.63391 0.0
H526 H 0.42825 0.30126 0.51912 0.0
H527 H 0.48799 0.3313 0.58189 0.0
H528 H 0.29523 0.29414 0.46124 0.0
H529 H 0.42706 0.2593 0.59837 0.0
H530 H 0.47209 0.24904 0.69425 0.0
H531 H 0.25168 0.22473 0.70809 0.0
H532 H 0.20521 0.23512 0.61266 0.0
H533 H 0.17392 0.20474 0.27513 0.0
H534 H 0.23634 0.23461 0.33799 0.0
H535 H 0.0875 0.21903 0.45057 0.0
H536 H 0.02651 0.18898 0.38825 0.0
H537 H 0.2231 0.2253 0.50923 0.0
H538 H 0.09206 0.26005 0.37064 0.0
H539 H 0.04849 0.2704 0.27462 0.0
H540 H 0.26972 0.29491 0.26322 0.0
H541 H 0.31475 0.2844 0.35877 0.0
C542 C 0.36624 0.31062 0.66027 0.0
C543 C 0.42277 0.32444 0.64543 0.0
C544 C 0.33038 0.29375 0.62342 0.0
C545 C 0.35105 0.29034 0.57138 0.0
C546 C 0.41097 0.30357 0.55871 0.0
C547 C 0.446 0.32054 0.59508 0.0
C548 C 0.30605 0.27421 0.52765 0.0
C549 C 0.28052 0.27901 0.47158 0.0
C550 C 0.28479 0.25455 0.54125 0.0
C551 C 0.31263 0.24816 0.59854 0.0
C552 C 0.38815 0.2519 0.62203 0.0
C553 C 0.41394 0.24604 0.67628 0.0
C554 C 0.36478 0.23628 0.7073 0.0
C555 C 0.2897 0.23231 0.68405 0.0
C556 C 0.26361 0.23817 0.62986 0.0
C557 C 0.15238 0.20827 0.31172 0.0
C558 C 0.09416 0.19491 0.32606 0.0
C559 C 0.18851 0.22524 0.34805 0.0
C560 C 0.16683 0.22914 0.3993 0.0
C561 C 0.10543 0.21639 0.41146 0.0
C562 C 0.06971 0.19939 0.37533 0.0
C563 C 0.21224 0.24524 0.44288 0.0
C564 C 0.23787 0.24042 0.49891 0.0
C565 C 0.23384 0.26487 0.42918 0.0
C566 C 0.20682 0.27122 0.37166 0.0
C567 C 0.13148 0.26747 0.34745 0.0
C568 C 0.10651 0.2734 0.29312 0.0
C569 C 0.15631 0.28325 0.26276 0.0
C570 C 0.2312 0.28724 0.28673 0.0
C571 C 0.25648 0.2813 0.34098 0.0
H572 H 0.13685 0.28783 0.22072 0.0
H573 H 0.38486 0.23176 0.7493 0.0
H574 H 0.50468 0.28833 0.85169 0.0
H575 H 0.56368 0.26342 0.89775 0.0
H576 H 0.7744 0.30311 0.91772 0.0
H577 H 0.71651 0.32795 0.8715 0.0
H578 H 0.68115 0.24451 0.88643 0.0
H579 H 0.85755 0.30484 0.06074 0.0
H580 H 0.85357 0.33739 0.10175 0.0
H581 H 0.61908 0.32203 0.05659 0.0
H582 H 0.62169 0.28931 0.01627 0.0
H583 H 0.98372 0.22627 0.1262 0.0
H584 H 0.9214 0.25032 0.07856 0.0
H585 H 0.71457 0.20872 0.05621 0.0
H586 H 0.77562 0.1847 0.10401 0.0
H587 H 0.80369 0.26793 0.08883 0.0
H588 H 0.62712 0.20713 0.91868 0.0
H589 H 0.63091 0.17431 0.8794 0.0
H590 H 0.86539 0.19057 0.91702 0.0
H591 H 0.8629 0.22352 0.95603 0.0
C592 C 0.56375 0.29153 0.86395 0.0
C593 C 0.60565 0.31032 0.85879 0.0
C594 C 0.59738 0.27727 0.89052 0.0
C595 C 0.67321 0.28162 0.91243 0.0
C596 C 0.71566 0.29958 0.90201 0.0
C597 C 0.68232 0.31376 0.87533 0.0
C598 C 0.70726 0.26855 0.95169 0.0
C599 C 0.70715 0.24954 0.9308 0.0
C600 C 0.74205 0.2752 0.0095 0.0
C601 C 0.73993 0.29471 0.0349 0.0
C602 C 0.80518 0.30838 0.05981 0.0
C603 C 0.80314 0.32687 0.08292 0.0
C604 C 0.73613 0.33181 0.0816 0.0
C605 C 0.67097 0.31823 0.0574 0.0
C606 C 0.67271 0.29972 0.03437 0.0
C607 C 0.92469 0.22245 0.11299 0.0
C608 C 0.88494 0.2034 0.11814 0.0
C609 C 0.88917 0.23621 0.08548 0.0
C610 C 0.81356 0.2311 0.06261 0.0
C611 C 0.77305 0.21282 0.07271 0.0
C612 C 0.80824 0.19913 0.10031 0.0
C613 C 0.77791 0.24394 0.02352 0.0
C614 C 0.77767 0.26291 0.04446 0.0
C615 C 0.74276 0.23724 0.96581 0.0
C616 C 0.74473 0.21771 0.94061 0.0
C617 C 0.67942 0.20373 0.91821 0.0
C618 C 0.68137 0.18509 0.89615 0.0
C619 C 0.74835 0.18034 0.89596 0.0
C620 C 0.81356 0.19424 0.91749 0.0
C621 C 0.81189 0.21289 0.93961 0.0
H622 H 0.74976 0.1659 0.87891 0.0
H623 H 0.7347 0.34613 0.09945 0.0
H624 H 0.64405 0.70876 0.27281 0.0
H625 H 0.70583 0.73923 0.3334 0.0
H626 H 0.59164 0.71869 0.46526 0.0
H627 H 0.52958 0.68845 0.40451 0.0
H628 H 0.6223 0.75921 0.46728 0.0
H629 H 0.74835 0.70665 0.46218 0.0
H630 H 0.79528 0.6825 0.41156 0.0
H631 H 0.9341 0.72937 0.34765 0.0
H632 H 0.8868 0.7538 0.39694 0.0
H633 H 0.87383 0.81169 0.70769 0.0
H634 H 0.80605 0.78188 0.64585 0.0
H635 H 0.91889 0.80175 0.51266 0.0
H636 H 0.98611 0.83142 0.57425 0.0
H637 H 0.88825 0.76146 0.51166 0.0
H638 H 0.76378 0.81406 0.51786 0.0
H639 H 0.71379 0.83822 0.56544 0.0
H640 H 0.57037 0.79145 0.62564 0.0
H641 H 0.62081 0.76697 0.57958 0.0
C642 C 0.62898 0.71133 0.31324 0.0
C643 C 0.58143 0.69646 0.3338 0.0
C644 C 0.6651 0.72859 0.34827 0.0
C645 C 0.65466 0.73102 0.40448 0.0
C646 C 0.60079 0.71714 0.42224 0.0
C647 C 0.56481 0.69993 0.38728 0.0
C648 C 0.7069 0.74611 0.4475 0.0
C649 C 0.68032 0.75961 0.47733 0.0
C650 C 0.7828 0.74668 0.46053 0.0
C651 C 0.8136 0.73205 0.43287 0.0
C652 C 0.78872 0.71181 0.43719 0.0
C653 C 0.8153 0.69807 0.40867 0.0
C654 C 0.86756 0.7044 0.37635 0.0
C655 C 0.89355 0.72449 0.37267 0.0
C656 C 0.86689 0.73829 0.40088 0.0
C657 C 0.88683 0.80912 0.66643 0.0
C658 C 0.93594 0.82363 0.64596 0.0
C659 C 0.84732 0.79226 0.63074 0.0
C660 C 0.85636 0.78977 0.57413 0.0
C661 C 0.91083 0.80334 0.55601 0.0
C662 C 0.94974 0.82021 0.59141 0.0
C663 C 0.80372 0.77461 0.53152 0.0
C664 C 0.83024 0.76107 0.50176 0.0
C665 C 0.72775 0.774 0.51861 0.0
C666 C 0.69673 0.78868 0.54584 0.0
C667 C 0.72206 0.80891 0.54167 0.0
C668 C 0.69364 0.82267 0.56834 0.0
C669 C 0.63909 0.81636 0.59861 0.0
C670 C 0.61277 0.79629 0.60227 0.0
C671 C 0.64132 0.78247 0.57595 0.0
H672 H 0.61709 0.82703 0.61907 0.0
H673 H 0.88802 0.69374 0.35426 0.0
H674 H 0.26424 0.68047 0.09686 0.0
H675 H 0.20721 0.70513 0.04855 0.0
H676 H 0.40745 0.74911 0.10661 0.0
H677 H 0.46583 0.72445 0.15463 0.0
H678 H 0.27581 0.76319 0.10316 0.0
H679 H 0.38806 0.7284 0.98425 0.0
H680 H 0.41318 0.69859 0.942 0.0
H681 H 0.18699 0.67913 0.85795 0.0
H682 H 0.16021 0.70868 0.90067 0.0
H683 H 0.23468 0.8306 0.89544 0.0
H684 H 0.28611 0.80518 0.94446 0.0
H685 H 0.07874 0.76374 0.89052 0.0
H686 H 0.02574 0.78926 0.84201 0.0
H687 H 0.21196 0.74803 0.89158 0.0
H688 H 0.10313 0.78463 0.01134 0.0
H689 H 0.08307 0.81457 0.0572 0.0
H690 H 0.31024 0.8313 0.14047 0.0
H691 H 0.33197 0.80167 0.09421 0.0
C692 C 0.29592 0.69548 0.10083 0.0
C693 C 0.37034 0.70035 0.12871 0.0
C694 C 0.2631 0.70955 0.0729 0.0
C695 C 0.30367 0.7288 0.07283 0.0
C696 C 0.37543 0.73426 0.10572 0.0
C697 C 0.40867 0.72013 0.13328 0.0
C698 C 0.27382 0.74252 0.03366 0.0
C699 C 0.26244 0.75997 0.05693 0.0
C700 C 0.25589 0.7382 0.97328 0.0
C701 C 0.27194 0.72064 0.94628 0.0
C702 C 0.34353 0.71769 0.95715 0.0
C703 C 0.3581 0.70085 0.9331 0.0
C704 C 0.30165 0.68692 0.8976 0.0
C705 C 0.23061 0.6899 0.88568 0.0
C706 C 0.21569 0.7067 0.90978 0.0
C707 C 0.20013 0.81598 0.89251 0.0
C708 C 0.12548 0.81213 0.86544 0.0
C709 C 0.22977 0.80147 0.92086 0.0
C710 C 0.18585 0.78272 0.92208 0.0
C711 C 0.11339 0.77819 0.89037 0.0
C712 C 0.08328 0.7928 0.86246 0.0
C713 C 0.21368 0.76869 0.96114 0.0
C714 C 0.22493 0.7512 0.93781 0.0
C715 C 0.23222 0.77307 0.02149 0.0
C716 C 0.21933 0.79102 0.04879 0.0
C717 C 0.14899 0.79481 0.03886 0.0
C718 C 0.13728 0.8117 0.06504 0.0
C719 C 0.19537 0.82482 0.10167 0.0
C720 C 0.26532 0.82113 0.11204 0.0
C721 C 0.27736 0.80429 0.08585 0.0
H722 H 0.1862 0.83781 0.12228 0.0
H723 H 0.31302 0.67385 0.87923 0.0
H724 H 0.86557 0.07412 0.02346 0.0
H725 H 0.88407 0.04385 0.98076 0.0
H726 H 0.05942 0.04318 0.12542 0.0
H727 H 0.04152 0.07358 0.16846 0.0
H728 H 0.09973 0.03801 0.02431 0.0
H729 H 0.89735 0.00991 0.10624 0.0
H730 H 0.77395 1.00541 0.1257 0.0
H731 H 0.67902 0.99134 0.94598 0.0
H732 H 0.80192 0.99597 0.9253 0.0
H733 H 0.1451 0.94165 0.96069 0.0
H734 H 0.12345 0.97148 0.0035 0.0
H735 H 0.94931 0.97171 0.8575 0.0
H736 H 0.97033 0.94174 0.81439 0.0
H737 H 0.90756 0.97705 0.95847 0.0
H738 H 0.10792 1.00543 0.87572 0.0
H739 H 0.23058 1.00957 0.85502 0.0
H740 H 0.32814 0.02316 0.0345 0.0
H741 H 0.20592 0.01883 0.0564 0.0
C742 C 0.90745 0.06743 0.04675 0.0
C743 C 0.95204 0.0764 0.09955 0.0
C744 C 0.91786 0.05004 0.02221 0.0
C745 C 0.9731 0.04114 0.04978 0.0
C746 C 0.01652 0.04976 0.10318 0.0
C747 C 0.00586 0.06711 0.12796 0.0
C748 C 0.98796 0.02349 0.02142 0.0
C749 C 0.05794 0.02458 0.01077 0.0
C750 C 0.93298 1.00612 0.00195 0.0
C751 C 0.85896 1.00352 0.01416 0.0
C752 C 0.85021 1.00605 0.07078 0.0
C753 C 0.78033 1.00342 0.08205 0.0
C754 C 0.71869 0.99813 0.03708 0.0
C755 C 0.72682 0.99544 0.98075 0.0
C756 C 0.79658 0.99805 0.96924 0.0
C757 C 0.10275 0.94814 0.9372 0.0
C758 C 0.05967 0.93923 0.88386 0.0
C759 C 0.09048 0.96527 0.96179 0.0
C760 C 0.03481 0.97394 0.93378 0.0
C761 C 0.99252 0.96531 0.88006 0.0
C762 C 0.00506 0.94823 0.85521 0.0
C763 C 0.01932 0.99158 0.9616 0.0
C764 C 0.94928 0.9905 0.97206 0.0
C765 C 0.0741 1.00899 0.9807 0.0
C766 C 0.14771 0.01161 0.96776 0.0
C767 C 0.15549 1.00913 0.91085 0.0
C768 C 0.22495 0.01155 0.89888 0.0
C769 C 0.28711 0.01657 0.94344 0.0
C770 C 0.27993 0.01924 5e-05 0.0
C771 C 0.21058 0.01683 0.01226 0.0
H772 H 0.34085 0.01844 0.93408 0.0
H773 H 0.66463 0.99607 0.0459 0.0
H774 H 0.16458 0.07645 0.38339 0.0
H775 H 0.15533 0.05095 0.45043 0.0
H776 H 0.95393 0.01894 0.33963 0.0
H777 H 0.96468 0.04379 0.27141 0.0
H778 H 0.05313 0.0449 0.5089 0.0
H779 H 0.91056 0.97022 0.3726 0.0
H780 H 0.91113 0.95359 0.2801 0.0
H781 H 0.12589 0.98845 0.28477 0.0
H782 H 0.12804 1.00477 0.37835 0.0
H783 H 0.86076 0.94172 0.59749 0.0
H784 H 0.87625 0.96685 0.52981 0.0
H785 H 0.07588 0.99786 0.6448 0.0
H786 H 0.0579 0.97385 0.71397 0.0
H787 H 0.98281 0.97222 0.47486 0.0
H788 H 0.13215 0.03824 0.62671 0.0
H789 H 0.12792 0.05305 0.72108 0.0
H790 H 0.89377 0.03502 0.68019 0.0
H791 H 0.89693 0.01956 0.58642 0.0
C792 C 0.12043 0.06347 0.37166 0.0
C793 C 0.06471 0.06238 0.32226 0.0
C794 C 0.11443 0.04904 0.41075 0.0
C795 C 0.05317 0.03316 0.40092 0.0
C796 C 0.00196 0.03094 0.34849 0.0
C797 C 0.00841 0.04519 0.30914 0.0
C798 C 0.03865 0.02015 0.44745 0.0
C799 C 0.03889 0.029 0.50141 0.0
C800 C 0.01803 0.99935 0.43774 0.0
C801 C 0.01895 0.98897 0.38243 0.0
C802 C 0.95826 0.97425 0.35427 0.0
C803 C 0.95809 0.96487 0.30155 0.0
C804 C 0.01824 0.97008 0.27634 0.0
C805 C 0.079 0.98457 0.30405 0.0
C806 C 0.0798 0.99385 0.35708 0.0
C807 C 0.90568 0.95449 0.60993 0.0
C808 C 0.95878 0.95552 0.66102 0.0
C809 C 0.91526 0.9687 0.57051 0.0
C810 C 0.9777 0.98425 0.58154 0.0
C811 C 0.02642 0.98636 0.63518 0.0
C812 C 0.01604 0.97246 0.67501 0.0
C813 C -0.00407 0.99703 0.53533 0.0
C814 C -0.00318 0.98813 0.48179 0.0
C815 C 0.01728 0.01773 0.54499 0.0
C816 C 0.01478 0.02791 0.59965 0.0
C817 C 0.07983 0.03757 0.63783 0.0
C818 C 0.07764 0.04588 0.69139 0.0
C819 C 0.01061 0.04507 0.70649 0.0
C820 C 0.94564 0.03571 0.66836 0.0
C821 C 0.9476 0.02704 0.61522 0.0
H822 H 0.00904 0.05165 0.74777 0.0
H823 H 0.01796 0.9628 0.23552 0.0
H824 H 0.37785 0.57409 0.03924 0.0
H825 H 0.397 0.54399 -0.00313 0.0
H826 H 0.56722 0.5424 0.14456 0.0
H827 H 0.5478 0.57257 0.18777 0.0
H828 H 0.51587 0.53845 0.96405 0.0
H829 H 0.57759 0.49346 0.15918 0.0
H830 H 0.54599 0.48882 0.25358 0.0
H831 H 0.34403 0.50596 0.19235 0.0
H832 H 0.37387 0.51044 0.09741 0.0
H833 H 0.63345 0.43713 0.97312 0.0
H834 H 0.6191 0.4671 0.02018 0.0
H835 H 0.45895 0.47385 0.87112 0.0
H836 H 0.47441 0.44407 0.82305 0.0
H837 H 0.51049 0.47564 0.0548 0.0
H838 H 0.44994 0.51946 0.85735 0.0
H839 H 0.4866 0.5249 0.76512 0.0
H840 H 0.69264 0.51094 0.8342 0.0
H841 H 0.65668 0.50515 0.92665 0.0
C842 C 0.41883 0.56728 0.06333 0.0
C843 C 0.46145 0.57591 0.11713 0.0
C844 C 0.42992 0.55004 0.03874 0.0
C845 C 0.48357 0.54085 0.06728 0.0
C846 C 0.52491 0.54906 0.12178 0.0
C847 C 0.51375 0.56636 0.14652 0.0
C848 C 0.49786 0.52323 0.03847 0.0
C849 C 0.51358 0.52462 0.98364 0.0
C850 C 0.49737 0.50533 0.06456 0.0
C851 C 0.47849 0.50253 0.12138 0.0
C852 C 0.52637 0.4962 0.16582 0.0
C853 C 0.50875 0.49359 0.21942 0.0
C854 C 0.44315 0.49715 0.22898 0.0
C855 C 0.39496 0.50329 0.18495 0.0
C856 C 0.41226 0.50589 0.13126 0.0
C857 C 0.5959 0.44512 0.9498 0.0
C858 C 0.55534 0.43814 0.89397 0.0
C859 C 0.58745 0.46225 0.97708 0.0
C860 C 0.53833 0.47294 0.94935 0.0
C861 C 0.49836 0.46617 0.89326 0.0
C862 C 0.50712 0.44906 0.86573 0.0
C863 C 0.52726 0.49074 0.97991 0.0
C864 C 0.51248 0.48942 0.03512 0.0
C865 C 0.52905 0.50877 0.95444 0.0
C866 C 0.55053 0.51184 0.89875 0.0
C867 C 0.50308 0.51758 0.85282 0.0
C868 C 0.52374 0.52071 0.80051 0.0
C869 C 0.59224 0.51846 0.79397 0.0
C870 C 0.63969 0.51273 0.83939 0.0
C871 C 0.61904 0.50941 0.89164 0.0
H872 H 0.60869 0.52121 0.7538 0.0
H873 H 0.42952 0.49508 0.27044 0.0
H874 H 0.36442 0.44133 0.59286 0.0
H875 H 0.38191 0.46774 0.52964 0.0
H876 H 0.55055 0.50299 0.66334 0.0
H877 H 0.53563 0.47628 0.72689 0.0
H878 H 0.41302 0.51738 0.55746 0.0
H879 H 0.64003 0.49096 0.61444 0.0
H880 H 0.69958 0.463 0.62693 0.0
H881 H 0.59554 0.43977 0.45388 0.0
H882 H 0.53277 0.46706 0.44146 0.0
H883 H 0.64105 0.58834 0.4268 0.0
H884 H 0.60944 0.56371 0.49267 0.0
H885 H 0.51321 0.52019 0.34982 0.0
H886 H 0.54025 0.54525 0.28278 0.0
H887 H 0.60596 0.50846 0.45567 0.0
H888 H 0.40799 0.53685 0.38713 0.0
H889 H 0.33103 0.56054 0.36379 0.0
H890 H 0.35212 0.57561 0.54313 0.0
H891 H 0.4348 0.55329 0.56784 0.0
C892 C 0.40288 0.45502 0.61016 0.0
C893 C 0.44947 0.45655 0.66485 0.0
C894 C 0.41341 0.47002 0.57347 0.0
C895 C 0.46904 0.48698 0.5915 0.0
C896 C 0.50822 0.48979 0.64867 0.0
C897 C 0.49893 0.47463 0.6851 0.0
C898 C 0.49169 0.50055 0.54901 0.0
C899 C 0.4563 0.51586 0.53597 0.0
C900 C 0.54507 0.4976 0.51881 0.0
C901 C 0.58049 0.4808 0.5275 0.0
C902 C 0.62838 0.47961 0.57963 0.0
C903 C 0.6629 0.4639 0.58664 0.0
C904 C 0.65101 0.44952 0.54139 0.0
C905 C 0.60422 0.45077 0.48916 0.0
C906 C 0.56888 0.46629 0.48221 0.0
C907 C 0.61563 0.57337 0.40918 0.0
C908 C 0.59361 0.56873 0.34935 0.0
C909 C 0.59645 0.55939 0.44703 0.0
C910 C 0.55727 0.54031 0.42597 0.0
C911 C 0.5425 0.53497 0.36671 0.0
C912 C 0.55911 0.54918 0.32854 0.0
C913 C 0.53015 0.52623 0.46593 0.0
C914 C 0.56384 0.51051 0.47788 0.0
C915 C 0.47401 0.5287 0.49425 0.0
C916 C 0.42984 0.54364 0.47937 0.0
C917 C 0.39911 0.54576 0.42175 0.0
C918 C 0.35398 0.55893 0.40823 0.0
C919 C 0.33703 0.56967 0.45193 0.0
C920 C 0.36545 0.56732 0.50928 0.0
C921 C 0.41239 0.5546 0.52305 0.0
H922 H 0.30154 0.57972 0.44136 0.0
H923 H 0.6784 0.4375 0.54668 0.0
loop_
_geom_bond_atom_site_label_1
_geom_bond_atom_site_label_2
_geom_bond_distance
_geom_bond_site_symmetry_2
_ccdc_geom_bond_type
C0 O12 1.241 . S
C0 O13 1.280 1_455 S
C1 O14 1.277 . S
C1 O15 1.245 1_455 S
C2 O26 1.247 . S
C2 O28 1.289 . S
Mg3 O4 1.926 1_655 S
Mg3 O13 1.984 . S
Mg3 O15 1.988 . S
Mg3 O16 2.061 . S
O4 Mg3 1.926 1_455 S
O4 Mg5 1.986 . S
O4 Mg6 1.917 . S
Mg5 O4 1.986 . S
Mg5 O12 2.042 . S
Mg5 O14 2.041 . S
Mg5 O20 2.038 . S
Mg5 O28 2.238 . S
Mg6 O4 1.917 . S
Mg6 O7 1.917 . S
Mg6 O17 2.106 1_455 S
Mg6 O19 2.079 . S
Mg6 O28 2.106 . S
Mg6 O29 2.079 1_455 S
O7 Mg6 1.917 . S
O7 Mg8 1.926 . S
O7 Mg9 1.986 1_455 S
Mg8 O7 1.926 . S
Mg8 O22 1.984 . S
Mg8 O25 1.988 . S
Mg8 O26 2.061 . S
Mg9 O7 1.986 1_655 S
Mg9 O17 2.238 . S
Mg9 O21 2.042 . S
Mg9 O23 2.041 . S
Mg9 O30 2.038 . S
C10 O16 1.247 . S
C10 O17 1.289 . S
C11 O29 1.245 . S
C11 O30 1.274 . S
O12 C0 1.241 . S
O12 Mg5 2.042 . S
O13 C0 1.280 1_655 S
O13 Mg3 1.984 . S
O14 C1 1.277 . S
O14 Mg5 2.041 . S
O15 C1 1.245 1_655 S
O15 Mg3 1.988 . S
O16 Mg3 2.061 . S
O16 C10 1.247 . S
O17 Mg6 2.106 1_655 S
O17 Mg9 2.238 . S
O17 C10 1.289 . S
C18 O19 1.245 . S
C18 O20 1.274 . S
O19 Mg6 2.079 . S
O19 C18 1.245 . S
O20 Mg5 2.038 . S
O20 C18 1.274 . S
O21 Mg9 2.042 . S
O21 C24 1.241 1_655 S
O22 Mg8 1.984 . S
O22 C24 1.280 . S
O23 Mg9 2.041 . S
O23 C27 1.277 . S
C24 O21 1.241 1_455 S
C24 O22 1.280 . S
O25 Mg8 1.988 . S
O25 C27 1.245 1_455 S
O26 C2 1.247 . S
O26 Mg8 2.061 . S
C27 O23 1.277 . S
C27 O25 1.245 1_655 S
O28 C2 1.289 . S
O28 Mg5 2.238 . S
O28 Mg6 2.106 . S
O29 Mg6 2.079 1_655 S
O29 C11 1.245 . S
O30 Mg9 2.038 . S
O30 C11 1.274 . S
C31 O43 1.241 . S
C31 O44 1.280 1_455 S
C32 O45 1.277 . S
C32 O46 1.245 1_455 S
C33 O57 1.247 . S
C33 O59 1.289 . S
Mg34 O35 1.926 1_655 S
Mg34 O44 1.984 . S
Mg34 O46 1.988 . S
Mg34 O47 2.061 . S
O35 Mg34 1.926 1_455 S
O35 Mg36 1.986 . S
O35 Mg37 1.917 . S
Mg36 O35 1.986 . S
Mg36 O43 2.042 . S
Mg36 O45 2.041 . S
Mg36 O51 2.038 . S
Mg36 O59 2.238 . S
Mg37 O35 1.917 . S
Mg37 O38 1.917 . S
Mg37 O48 2.106 1_455 S
Mg37 O50 2.079 . S
Mg37 O59 2.106 . S
Mg37 O60 2.079 1_455 S
O38 Mg37 1.917 . S
O38 Mg39 1.926 . S
O38 Mg40 1.986 1_455 S
Mg39 O38 1.926 . S
Mg39 O53 1.984 . S
Mg39 O56 1.988 . S
Mg39 O57 2.061 . S
Mg40 O38 1.986 1_655 S
Mg40 O48 2.238 . S
Mg40 O52 2.042 . S
Mg40 O54 2.041 . S
Mg40 O61 2.038 . S
C41 O47 1.247 . S
C41 O48 1.289 . S
C42 O60 1.245 . S
C42 O61 1.274 . S
O43 C31 1.241 . S
O43 Mg36 2.042 . S
O44 C31 1.280 1_655 S
O44 Mg34 1.984 . S
O45 C32 1.277 . S
O45 Mg36 2.041 . S
O46 C32 1.245 1_655 S
O46 Mg34 1.988 . S
O47 Mg34 2.061 . S
O47 C41 1.247 . S
O48 Mg37 2.106 1_655 S
O48 Mg40 2.238 . S
O48 C41 1.289 . S
C49 O50 1.245 . S
C49 O51 1.274 . S
O50 Mg37 2.079 . S
O50 C49 1.245 . S
O51 Mg36 2.038 . S
O51 C49 1.274 . S
O52 Mg40 2.042 . S
O52 C55 1.241 1_655 S
O53 Mg39 1.984 . S
O53 C55 1.280 . S
O54 Mg40 2.041 . S
O54 C58 1.277 . S
C55 O52 1.241 1_455 S
C55 O53 1.280 . S
O56 Mg39 1.988 . S
O56 C58 1.245 1_455 S
O57 C33 1.247 . S
O57 Mg39 2.061 . S
C58 O54 1.277 . S
C58 O56 1.245 1_655 S
O59 C33 1.289 . S
O59 Mg36 2.238 . S
O59 Mg37 2.106 . S
O60 Mg37 2.079 1_655 S
O60 C42 1.245 . S
O61 Mg40 2.038 . S
O61 C42 1.274 . S
C62 O74 1.241 . S
C62 O75 1.280 . S
C63 O76 1.277 . S
C63 O77 1.245 . S
C64 O88 1.247 . S
C64 O90 1.289 . S
Mg65 O66 1.926 . S
Mg65 O75 1.984 . S
Mg65 O77 1.988 . S
Mg65 O78 2.061 . S
O66 Mg65 1.926 . S
O66 Mg67 1.986 . S
O66 Mg68 1.917 . S
Mg67 O66 1.986 . S
Mg67 O74 2.042 . S
Mg67 O76 2.041 . S
Mg67 O82 2.038 . S
Mg67 O90 2.238 . S
Mg68 O66 1.917 . S
Mg68 O69 1.917 . S
Mg68 O79 2.106 . S
Mg68 O81 2.079 . S
Mg68 O90 2.106 . S
Mg68 O91 2.079 . S
O69 Mg68 1.917 . S
O69 Mg70 1.926 . S
O69 Mg71 1.986 . S
Mg70 O69 1.926 . S
Mg70 O84 1.984 . S
Mg70 O87 1.988 . S
Mg70 O88 2.061 . S
Mg71 O69 1.986 . S
Mg71 O79 2.238 . S
Mg71 O83 2.042 . S
Mg71 O85 2.041 . S
Mg71 O92 2.038 . S
C72 O78 1.247 . S
C72 O79 1.289 . S
C73 O91 1.245 . S
C73 O92 1.274 . S
O74 C62 1.241 . S
O74 Mg67 2.042 . S
O75 C62 1.280 . S
O75 Mg65 1.984 . S
O76 C63 1.277 . S
O76 Mg67 2.041 . S
O77 C63 1.245 . S
O77 Mg65 1.988 . S
O78 Mg65 2.061 . S
O78 C72 1.247 . S
O79 Mg68 2.106 . S
O79 Mg71 2.238 . S
O79 C72 1.289 . S
C80 O81 1.245 . S
C80 O82 1.274 . S
O81 Mg68 2.079 . S
O81 C80 1.245 . S
O82 Mg67 2.038 . S
O82 C80 1.274 . S
O83 Mg71 2.042 . S
O83 C86 1.241 . S
O84 Mg70 1.984 . S
O84 C86 1.280 . S
O85 Mg71 2.041 . S
O85 C89 1.277 . S
C86 O83 1.241 . S
C86 O84 1.280 . S
O87 Mg70 1.988 . S
O87 C89 1.245 . S
O88 C64 1.247 . S
O88 Mg70 2.061 . S
C89 O85 1.277 . S
C89 O87 1.245 . S
O90 C64 1.289 . S
O90 Mg67 2.238 . S
O90 Mg68 2.106 . S
O91 Mg68 2.079 . S
O91 C73 1.245 . S
O92 Mg71 2.038 . S
O92 C73 1.274 . S
C93 O105 1.241 . S
C93 O106 1.280 . S
C94 O107 1.277 . S
C94 O108 1.245 . S
C95 O119 1.247 . S
C95 O121 1.289 . S
Mg96 O97 1.926 . S
Mg96 O106 1.984 . S
Mg96 O108 1.988 . S
Mg96 O109 2.061 . S
O97 Mg96 1.926 . S
O97 Mg98 1.986 . S
O97 Mg99 1.917 . S
Mg98 O97 1.986 . S
Mg98 O105 2.042 . S
Mg98 O107 2.041 . S
Mg98 O113 2.038 . S
Mg98 O121 2.238 . S
Mg99 O97 1.917 . S
Mg99 O100 1.917 . S
Mg99 O110 2.106 . S
Mg99 O112 2.079 . S
Mg99 O121 2.106 . S
Mg99 O122 2.079 . S
O100 Mg99 1.917 . S
O100 Mg101 1.926 . S
O100 Mg102 1.986 . S
Mg101 O100 1.926 . S
Mg101 O115 1.984 . S
Mg101 O118 1.988 . S
Mg101 O119 2.061 . S
Mg102 O100 1.986 . S
Mg102 O110 2.238 . S
Mg102 O114 2.042 . S
Mg102 O116 2.041 . S
Mg102 O123 2.038 . S
C103 O109 1.247 . S
C103 O110 1.289 . S
C104 O122 1.245 . S
C104 O123 1.274 . S
O105 C93 1.241 . S
O105 Mg98 2.042 . S
O106 C93 1.280 . S
O106 Mg96 1.984 . S
O107 C94 1.277 . S
O107 Mg98 2.041 . S
O108 C94 1.245 . S
O108 Mg96 1.988 . S
O109 Mg96 2.061 . S
O109 C103 1.247 . S
O110 Mg99 2.106 . S
O110 Mg102 2.238 . S
O110 C103 1.289 . S
C111 O112 1.245 . S
C111 O113 1.274 . S
O112 Mg99 2.079 . S
O112 C111 1.245 . S
O113 Mg98 2.038 . S
O113 C111 1.274 . S
O114 Mg102 2.042 . S
O114 C117 1.241 . S
O115 Mg101 1.984 . S
O115 C117 1.280 . S
O116 Mg102 2.041 . S
O116 C120 1.277 . S
C117 O114 1.241 . S
C117 O115 1.280 . S
O118 Mg101 1.988 . S
O118 C120 1.245 . S
O119 C95 1.247 . S
O119 Mg101 2.061 . S
C120 O116 1.277 . S
C120 O118 1.245 . S
O121 C95 1.289 . S
O121 Mg98 2.238 . S
O121 Mg99 2.106 . S
O122 Mg99 2.079 . S
O122 C104 1.245 . S
O123 Mg102 2.038 . S
O123 C104 1.274 . S
H124 C142 0.951 . S
H125 C144 0.951 . S
H126 C146 0.950 . S
H127 C147 0.950 . S
H128 C149 0.950 . S
H129 C152 0.950 . S
H130 C153 0.950 . S
H131 C155 0.950 . S
H132 C156 0.950 . S
H133 C157 0.951 . S
H134 C159 0.951 . S
H135 C161 0.950 . S
H136 C162 0.950 . S
H137 C164 0.950 . S
H138 C167 0.950 . S
H139 C168 0.950 . S
H140 C170 0.950 . S
H141 C171 0.950 . S
C142 H124 0.951 . S
C142 C143 1.366 . S
C142 C144 1.388 . S
C143 C142 1.366 . S
C143 C147 1.385 1_455 S
C144 H125 0.951 . S
C144 C142 1.388 . S
C144 C145 1.366 . S
C145 C144 1.366 . S
C145 C146 1.414 1_455 S
C145 C148 1.499 . S
C146 H126 0.950 . S
C146 C145 1.414 1_655 S
C146 C147 1.374 . S
C147 H127 0.950 . S
C147 C143 1.385 1_655 S
C147 C146 1.374 . S
C148 C145 1.499 . S
C148 C149 1.373 . S
C148 C150 1.389 . S
C149 H128 0.950 . S
C149 C148 1.373 . S
C149 C165 1.377 . S
C150 C148 1.389 . S
C150 C151 1.524 1_455 S
C150 C164 1.377 . S
C151 C150 1.524 1_655 S
C151 C152 1.397 . S
C151 C156 1.363 1_655 S
C152 H129 0.950 . S
C152 C151 1.397 . S
C152 C153 1.334 . S
C153 H130 0.950 . S
C153 C152 1.334 . S
C153 C154 1.287 . S
C154 C153 1.287 . S
C154 C155 1.524 1_655 S
C154 H173 0.913 . S
C155 H131 0.950 . S
C155 C154 1.524 1_455 S
C155 C156 1.415 . S
C156 H132 0.950 . S
C156 C151 1.363 1_455 S
C156 C155 1.415 . S
C157 H133 0.951 . S
C157 C158 1.366 1_655 S
C157 C159 1.388 . S
C158 C157 1.366 1_455 S
C158 C162 1.385 . S
C159 H134 0.951 . S
C159 C157 1.388 . S
C159 C160 1.366 1_655 S
C160 C159 1.366 1_455 S
C160 C161 1.414 . S
C160 C163 1.499 . S
C161 H135 0.950 . S
C161 C160 1.414 . S
C161 C162 1.374 . S
C162 H136 0.950 . S
C162 C158 1.385 . S
C162 C161 1.374 . S
C163 C160 1.499 . S
C163 C164 1.373 . S
C163 C165 1.389 . S
C164 H137 0.950 . S
C164 C150 1.377 . S
C164 C163 1.373 . S
C165 C149 1.377 . S
C165 C163 1.389 . S
C165 C166 1.524 . S
C166 C165 1.524 . S
C166 C167 1.397 . S
C166 C171 1.363 1_455 S
C167 H138 0.950 . S
C167 C166 1.397 . S
C167 C168 1.334 . S
C168 H139 0.950 . S
C168 C167 1.334 . S
C168 C169 1.287 . S
C169 C168 1.287 . S
C169 C170 1.524 1_455 S
C169 H172 0.999 . S
C170 H140 0.950 . S
C170 C169 1.524 1_655 S
C170 C171 1.415 . S
C171 H141 0.950 . S
C171 C166 1.363 1_655 S
C171 C170 1.415 . S
H172 C169 0.999 . S
H173 C154 0.913 . S
H174 C192 0.951 . S
H175 C194 0.951 . S
H176 C196 0.950 . S
H177 C197 0.950 . S
H178 C199 0.950 . S
H179 C202 0.950 . S
H180 C203 0.950 . S
H181 C205 0.950 . S
H182 C206 0.950 . S
H183 C207 0.951 . S
H184 C209 0.951 . S
H185 C211 0.950 . S
H186 C212 0.950 . S
H187 C214 0.950 . S
H188 C217 0.950 . S
H189 C218 0.950 . S
H190 C220 0.950 . S
H191 C221 0.950 . S
C192 H174 0.951 . S
C192 C193 1.366 . S
C192 C194 1.388 . S
C193 C192 1.366 . S
C193 C197 1.385 1_455 S
C194 H175 0.951 . S
C194 C192 1.388 . S
C194 C195 1.366 . S
C195 C194 1.366 . S
C195 C196 1.414 1_455 S
C195 C198 1.499 . S
C196 H176 0.950 . S
C196 C195 1.414 1_655 S
C196 C197 1.374 . S
C197 H177 0.950 . S
C197 C193 1.385 1_655 S
C197 C196 1.374 . S
C198 C195 1.499 . S
C198 C199 1.373 1_455 S
C198 C200 1.389 . S
C199 H178 0.950 . S
C199 C198 1.373 1_655 S
C199 C215 1.377 . S
C200 C198 1.389 . S
C200 C201 1.524 . S
C200 C214 1.377 . S
C201 C200 1.524 . S
C201 C202 1.397 . S
C201 C206 1.363 . S
C202 H179 0.950 . S
C202 C201 1.397 . S
C202 C203 1.334 . S
C203 H180 0.950 . S
C203 C202 1.334 . S
C203 C204 1.287 . S
C204 C203 1.287 . S
C204 C205 1.524 . S
C204 H223 0.913 . S
C205 H181 0.950 . S
C205 C204 1.524 . S
C205 C206 1.415 . S
C206 H182 0.950 . S
C206 C201 1.363 . S
C206 C205 1.415 . S
C207 H183 0.951 . S
C207 C208 1.366 1_655 S
C207 C209 1.388 . S
C208 C207 1.366 1_455 S
C208 C212 1.385 . S
C209 H184 0.951 . S
C209 C207 1.388 . S
C209 C210 1.366 1_655 S
C210 C209 1.366 1_455 S
C210 C211 1.414 . S
C210 C213 1.499 . S
C211 H185 0.950 . S
C211 C210 1.414 . S
C211 C212 1.374 . S
C212 H186 0.950 . S
C212 C208 1.385 . S
C212 C211 1.374 . S
C213 C210 1.499 . S
C213 C214 1.373 . S
C213 C215 1.389 1_455 S
C214 H187 0.950 . S
C214 C200 1.377 . S
C214 C213 1.373 . S
C215 C199 1.377 . S
C215 C213 1.389 1_655 S
C215 C216 1.524 . S
C216 C215 1.524 . S
C216 C217 1.397 . S
C216 C221 1.363 . S
C217 H188 0.950 . S
C217 C216 1.397 . S
C217 C218 1.334 . S
C218 H189 0.950 . S
C218 C217 1.334 . S
C218 C219 1.287 . S
C219 C218 1.287 . S
C219 C220 1.524 . S
C219 H222 0.999 . S
C220 H190 0.950 . S
C220 C219 1.524 . S
C220 C221 1.415 . S
C221 H191 0.950 . S
C221 C216 1.363 . S
C221 C220 1.415 . S
H222 C219 0.999 . S
H223 C204 0.913 . S
H224 C242 0.951 . S
H225 C244 0.951 . S
H226 C246 0.950 . S
H227 C247 0.950 . S
H228 C249 0.950 . S
H229 C252 0.950 . S
H230 C253 0.950 . S
H231 C255 0.950 . S
H232 C256 0.950 . S
H233 C257 0.951 . S
H234 C259 0.951 . S
H235 C261 0.950 . S
H236 C262 0.950 . S
H237 C264 0.950 . S
H238 C267 0.950 . S
H239 C268 0.950 . S
H240 C270 0.950 . S
H241 C271 0.950 . S
C242 H224 0.951 . S
C242 C243 1.366 . S
C242 C244 1.388 . S
C243 C242 1.366 . S
C243 C247 1.385 . S
C244 H225 0.951 . S
C244 C242 1.388 . S
C244 C245 1.366 . S
C245 C244 1.366 . S
C245 C246 1.414 . S
C245 C248 1.499 . S
C246 H226 0.950 . S
C246 C245 1.414 . S
C246 C247 1.374 . S
C247 H227 0.950 . S
C247 C243 1.385 . S
C247 C246 1.374 . S
C248 C245 1.499 . S
C248 C249 1.373 . S
C248 C250 1.389 . S
C249 H228 0.950 . S
C249 C248 1.373 . S
C249 C265 1.377 . S
C250 C248 1.389 . S
C250 C251 1.524 . S
C250 C264 1.377 . S
C251 C250 1.524 . S
C251 C252 1.397 . S
C251 C256 1.363 . S
C252 H229 0.950 . S
C252 C251 1.397 . S
C252 C253 1.334 . S
C253 H230 0.950 . S
C253 C252 1.334 . S
C253 C254 1.287 . S
C254 C253 1.287 . S
C254 C255 1.524 . S
C254 H273 0.913 . S
C255 H231 0.950 . S
C255 C254 1.524 . S
C255 C256 1.415 . S
C256 H232 0.950 . S
C256 C251 1.363 . S
C256 C255 1.415 . S
C257 H233 0.951 . S
C257 C258 1.366 . S
C257 C259 1.388 . S
C258 C257 1.366 . S
C258 C262 1.385 . S
C259 H234 0.951 . S
C259 C257 1.388 . S
C259 C260 1.366 . S
C260 C259 1.366 . S
C260 C261 1.414 . S
C260 C263 1.499 . S
C261 H235 0.950 . S
C261 C260 1.414 . S
C261 C262 1.374 . S
C262 H236 0.950 . S
C262 C258 1.385 . S
C262 C261 1.374 . S
C263 C260 1.499 . S
C263 C264 1.373 . S
C263 C265 1.389 . S
C264 H237 0.950 . S
C264 C250 1.377 . S
C264 C263 1.373 . S
C265 C249 1.377 . S
C265 C263 1.389 . S
C265 C266 1.524 . S
C266 C265 1.524 . S
C266 C267 1.397 . S
C266 C271 1.363 . S
C267 H238 0.950 . S
C267 C266 1.397 . S
C267 C268 1.334 . S
C268 H239 0.950 . S
C268 C267 1.334 . S
C268 C269 1.287 . S
C269 C268 1.287 . S
C269 C270 1.524 . S
C269 H272 0.999 . S
C270 H240 0.950 . S
C270 C269 1.524 . S
C270 C271 1.415 . S
C271 H241 0.950 . S
C271 C266 1.363 . S
C271 C270 1.415 . S
H272 C269 0.999 . S
H273 C254 0.913 . S
H274 C292 0.951 . S
H275 C294 0.951 . S
H276 C296 0.950 . S
H277 C297 0.950 . S
H278 C299 0.950 . S
H279 C302 0.950 . S
H280 C303 0.950 . S
H281 C305 0.950 . S
H282 C306 0.950 . S
H283 C307 0.951 . S
H284 C309 0.951 . S
H285 C311 0.950 . S
H286 C312 0.950 . S
H287 C314 0.950 . S
H288 C317 0.950 . S
H289 C318 0.950 . S
H290 C320 0.950 . S
H291 C321 0.950 . S
C292 H274 0.951 . S
C292 C293 1.366 . S
C292 C294 1.388 . S
C293 C292 1.366 . S
C293 C297 1.385 . S
C294 H275 0.951 . S
C294 C292 1.388 . S
C294 C295 1.366 . S
C295 C294 1.366 . S
C295 C296 1.414 . S
C295 C298 1.499 . S
C296 H276 0.950 . S
C296 C295 1.414 . S
C296 C297 1.374 . S
C297 H277 0.950 . S
C297 C293 1.385 . S
C297 C296 1.374 . S
C298 C295 1.499 . S
C298 C299 1.373 . S
C298 C300 1.389 . S
C299 H278 0.950 . S
C299 C298 1.373 . S
C299 C315 1.377 . S
C300 C298 1.389 . S
C300 C301 1.524 . S
C300 C314 1.377 . S
C301 C300 1.524 . S
C301 C302 1.397 . S
C301 C306 1.363 . S
C302 H279 0.950 . S
C302 C301 1.397 . S
C302 C303 1.334 . S
C303 H280 0.950 . S
C303 C302 1.334 . S
C303 C304 1.287 . S
C304 C303 1.287 . S
C304 C305 1.524 . S
C304 H323 0.913 . S
C305 H281 0.950 . S
C305 C304 1.524 . S
C305 C306 1.415 . S
C306 H282 0.950 . S
C306 C301 1.363 . S
C306 C305 1.415 . S
C307 H283 0.951 . S
C307 C308 1.366 . S
C307 C309 1.388 . S
C308 C307 1.366 . S
C308 C312 1.385 . S
C309 H284 0.951 . S
C309 C307 1.388 . S
C309 C310 1.366 . S
C310 C309 1.366 . S
C310 C311 1.414 . S
C310 C313 1.499 . S
C311 H285 0.950 . S
C311 C310 1.414 . S
C311 C312 1.374 . S
C312 H286 0.950 . S
C312 C308 1.385 . S
C312 C311 1.374 . S
C313 C310 1.499 . S
C313 C314 1.373 . S
C313 C315 1.389 . S
C314 H287 0.950 . S
C314 C300 1.377 . S
C314 C313 1.373 . S
C315 C299 1.377 . S
C315 C313 1.389 . S
C315 C316 1.524 . S
C316 C315 1.524 . S
C316 C317 1.397 . S
C316 C321 1.363 . S
C317 H288 0.950 . S
C317 C316 1.397 . S
C317 C318 1.334 . S
C318 H289 0.950 . S
C318 C317 1.334 . S
C318 C319 1.287 . S
C319 C318 1.287 . S
C319 C320 1.524 . S
C319 H322 0.999 . S
C320 H290 0.950 . S
C320 C319 1.524 . S
C320 C321 1.415 . S
C321 H291 0.950 . S
C321 C316 1.363 . S
C321 C320 1.415 . S
H322 C319 0.999 . S
H323 C304 0.913 . S
H324 C342 0.951 . S
H325 C344 0.951 . S
H326 C346 0.950 . S
H327 C347 0.950 . S
H328 C349 0.950 . S
H329 C352 0.950 . S
H330 C353 0.950 . S
H331 C355 0.950 . S
H332 C356 0.950 . S
H333 C357 0.951 . S
H334 C359 0.951 . S
H335 C361 0.950 . S
H336 C362 0.950 . S
H337 C364 0.950 . S
H338 C367 0.950 . S
H339 C368 0.950 . S
H340 C370 0.950 . S
H341 C371 0.950 . S
C342 H324 0.951 . S
C342 C343 1.366 . S
C342 C344 1.388 . S
C343 C342 1.366 . S
C343 C347 1.385 . S
C344 H325 0.951 . S
C344 C342 1.388 . S
C344 C345 1.366 . S
C345 C344 1.366 . S
C345 C346 1.414 . S
C345 C348 1.499 . S
C346 H326 0.950 . S
C346 C345 1.414 . S
C346 C347 1.374 . S
C347 H327 0.950 . S
C347 C343 1.385 . S
C347 C346 1.374 . S
C348 C345 1.499 . S
C348 C349 1.373 . S
C348 C350 1.389 . S
C349 H328 0.950 . S
C349 C348 1.373 . S
C349 C365 1.377 . S
C350 C348 1.389 . S
C350 C351 1.524 . S
C350 C364 1.377 . S
C351 C350 1.524 . S
C351 C352 1.397 . S
C351 C356 1.363 . S
C352 H329 0.950 . S
C352 C351 1.397 . S
C352 C353 1.334 . S
C353 H330 0.950 . S
C353 C352 1.334 . S
C353 C354 1.287 . S
C354 C353 1.287 . S
C354 C355 1.524 . S
C354 H373 0.913 . S
C355 H331 0.950 . S
C355 C354 1.524 . S
C355 C356 1.415 . S
C356 H332 0.950 . S
C356 C351 1.363 . S
C356 C355 1.415 . S
C357 H333 0.951 . S
C357 C358 1.366 . S
C357 C359 1.388 . S
C358 C357 1.366 . S
C358 C362 1.385 . S
C359 H334 0.951 . S
C359 C357 1.388 . S
C359 C360 1.366 . S
C360 C359 1.366 . S
C360 C361 1.414 . S
C360 C363 1.499 . S
C361 H335 0.950 . S
C361 C360 1.414 . S
C361 C362 1.374 . S
C362 H336 0.950 . S
C362 C358 1.385 . S
C362 C361 1.374 . S
C363 C360 1.499 . S
C363 C364 1.373 . S
C363 C365 1.389 . S
C364 H337 0.950 . S
C364 C350 1.377 . S
C364 C363 1.373 . S
C365 C349 1.377 . S
C365 C363 1.389 . S
C365 C366 1.524 . S
C366 C365 1.524 . S
C366 C367 1.397 . S
C366 C371 1.363 . S
C367 H338 0.950 . S
C367 C366 1.397 . S
C367 C368 1.334 . S
C368 H339 0.950 . S
C368 C367 1.334 . S
C368 C369 1.287 . S
C369 C368 1.287 . S
C369 C370 1.524 . S
C369 H372 0.999 . S
C370 H340 0.950 . S
C370 C369 1.524 . S
C370 C371 1.415 . S
C371 H341 0.950 . S
C371 C366 1.363 . S
C371 C370 1.415 . S
H372 C369 0.999 . S
H373 C354 0.913 . S
H374 C392 0.951 . S
H375 C394 0.951 . S
H376 C396 0.950 . S
H377 C397 0.950 . S
H378 C399 0.950 . S
H379 C402 0.950 . S
H380 C403 0.950 . S
H381 C405 0.950 . S
H382 C406 0.950 . S
H383 C407 0.951 . S
H384 C409 0.951 . S
H385 C411 0.950 . S
H386 C412 0.950 . S
H387 C414 0.950 . S
H388 C417 0.950 . S
H389 C418 0.950 . S
H390 C420 0.950 . S
H391 C421 0.950 . S
C392 H374 0.951 . S
C392 C393 1.366 . S
C392 C394 1.388 . S
C393 C392 1.366 . S
C393 C397 1.385 . S
C394 H375 0.951 . S
C394 C392 1.388 . S
C394 C395 1.366 . S
C395 C394 1.366 . S
C395 C396 1.414 . S
C395 C398 1.499 . S
C396 H376 0.950 . S
C396 C395 1.414 . S
C396 C397 1.374 . S
C397 H377 0.950 . S
C397 C393 1.385 . S
C397 C396 1.374 . S
C398 C395 1.499 . S
C398 C399 1.373 . S
C398 C400 1.389 . S
C399 H378 0.950 . S
C399 C398 1.373 . S
C399 C415 1.377 . S
C400 C398 1.389 . S
C400 C401 1.524 . S
C400 C414 1.377 . S
C401 C400 1.524 . S
C401 C402 1.397 . S
C401 C406 1.363 . S
C402 H379 0.950 . S
C402 C401 1.397 . S
C402 C403 1.334 . S
C403 H380 0.950 . S
C403 C402 1.334 . S
C403 C404 1.287 . S
C404 C403 1.287 . S
C404 C405 1.524 . S
C404 H423 0.913 . S
C405 H381 0.950 . S
C405 C404 1.524 . S
C405 C406 1.415 . S
C406 H382 0.950 . S
C406 C401 1.363 . S
C406 C405 1.415 . S
C407 H383 0.951 . S
C407 C408 1.366 . S
C407 C409 1.388 . S
C408 C407 1.366 . S
C408 C412 1.385 . S
C409 H384 0.951 . S
C409 C407 1.388 . S
C409 C410 1.366 . S
C410 C409 1.366 . S
C410 C411 1.414 . S
C410 C413 1.499 . S
C411 H385 0.950 . S
C411 C410 1.414 . S
C411 C412 1.374 . S
C412 H386 0.950 . S
C412 C408 1.385 . S
C412 C411 1.374 . S
C413 C410 1.499 . S
C413 C414 1.373 . S
C413 C415 1.389 . S
C414 H387 0.950 . S
C414 C400 1.377 . S
C414 C413 1.373 . S
C415 C399 1.377 . S
C415 C413 1.389 . S
C415 C416 1.524 . S
C416 C415 1.524 . S
C416 C417 1.397 . S
C416 C421 1.363 . S
C417 H388 0.950 . S
C417 C416 1.397 . S
C417 C418 1.334 . S
C418 H389 0.950 . S
C418 C417 1.334 . S
C418 C419 1.287 . S
C419 C418 1.287 . S
C419 C420 1.524 . S
C419 H422 0.999 . S
C420 H390 0.950 . S
C420 C419 1.524 . S
C420 C421 1.415 . S
C421 H391 0.950 . S
C421 C416 1.363 . S
C421 C420 1.415 . S
H422 C419 0.999 . S
H423 C404 0.913 . S
H424 C442 0.951 . S
H425 C444 0.951 . S
H426 C446 0.950 . S
H427 C447 0.950 . S
H428 C449 0.950 . S
H429 C452 0.950 . S
H430 C453 0.950 . S
H431 C455 0.950 . S
H432 C456 0.950 . S
H433 C457 0.951 . S
H434 C459 0.951 . S
H435 C461 0.950 . S
H436 C462 0.950 . S
H437 C464 0.950 . S
H438 C467 0.950 . S
H439 C468 0.950 . S
H440 C470 0.950 . S
H441 C471 0.950 . S
C442 H424 0.951 . S
C442 C443 1.366 . S
C442 C444 1.388 . S
C443 C442 1.366 . S
C443 C447 1.385 . S
C444 H425 0.951 . S
C444 C442 1.388 . S
C444 C445 1.366 . S
C445 C444 1.366 . S
C445 C446 1.414 . S
C445 C448 1.499 . S
C446 H426 0.950 . S
C446 C445 1.414 . S
C446 C447 1.374 . S
C447 H427 0.950 . S
C447 C443 1.385 . S
C447 C446 1.374 . S
C448 C445 1.499 . S
C448 C449 1.373 . S
C448 C450 1.389 . S
C449 H428 0.950 . S
C449 C448 1.373 . S
C449 C465 1.377 1_655 S
C450 C448 1.389 . S
C450 C451 1.524 . S
C450 C464 1.377 1_655 S
C451 C450 1.524 . S
C451 C452 1.397 . S
C451 C456 1.363 . S
C452 H429 0.950 . S
C452 C451 1.397 . S
C452 C453 1.334 . S
C453 H430 0.950 . S
C453 C452 1.334 . S
C453 C454 1.287 . S
C454 C453 1.287 . S
C454 C455 1.524 . S
C454 H473 0.913 . S
C455 H431 0.950 . S
C455 C454 1.524 . S
C455 C456 1.415 . S
C456 H432 0.950 . S
C456 C451 1.363 . S
C456 C455 1.415 . S
C457 H433 0.951 . S
C457 C458 1.366 . S
C457 C459 1.388 . S
C458 C457 1.366 . S
C458 C462 1.385 . S
C459 H434 0.951 . S
C459 C457 1.388 . S
C459 C460 1.366 . S
C460 C459 1.366 . S
C460 C461 1.414 . S
C460 C463 1.499 . S
C461 H435 0.950 . S
C461 C460 1.414 . S
C461 C462 1.374 . S
C462 H436 0.950 . S
C462 C458 1.385 . S
C462 C461 1.374 . S
C463 C460 1.499 . S
C463 C464 1.373 . S
C463 C465 1.389 . S
C464 H437 0.950 . S
C464 C450 1.377 1_455 S
C464 C463 1.373 . S
C465 C449 1.377 1_455 S
C465 C463 1.389 . S
C465 C466 1.524 . S
C466 C465 1.524 . S
C466 C467 1.397 . S
C466 C471 1.363 . S
C467 H438 0.950 . S
C467 C466 1.397 . S
C467 C468 1.334 . S
C468 H439 0.950 . S
C468 C467 1.334 . S
C468 C469 1.287 . S
C469 C468 1.287 . S
C469 C470 1.524 . S
C469 H472 0.999 . S
C470 H440 0.950 . S
C470 C469 1.524 . S
C470 C471 1.415 . S
C471 H441 0.950 . S
C471 C466 1.363 . S
C471 C470 1.415 . S
H472 C469 0.999 . S
H473 C454 0.913 . S
H474 C492 0.951 . S
H475 C494 0.951 . S
H476 C496 0.950 . S
H477 C497 0.950 . S
H478 C499 0.950 . S
H479 C502 0.950 . S
H480 C503 0.950 . S
H481 C505 0.950 1_455 S
H482 C506 0.950 . S
H483 C507 0.951 . S
H484 C509 0.951 . S
H485 C511 0.950 . S
H486 C512 0.950 . S
H487 C514 0.950 . S
H488 C517 0.950 . S
H489 C518 0.950 . S
H490 C520 0.950 . S
H491 C521 0.950 1_655 S
C492 H474 0.951 . S
C492 C493 1.366 . S
C492 C494 1.388 . S
C493 C492 1.366 . S
C493 C497 1.385 . S
C494 H475 0.951 . S
C494 C492 1.388 . S
C494 C495 1.366 . S
C495 C494 1.366 . S
C495 C496 1.414 . S
C495 C498 1.499 . S
C496 H476 0.950 . S
C496 C495 1.414 . S
C496 C497 1.374 . S
C497 H477 0.950 . S
C497 C493 1.385 . S
C497 C496 1.374 . S
C498 C495 1.499 . S
C498 C499 1.373 . S
C498 C500 1.389 . S
C499 H478 0.950 . S
C499 C498 1.373 . S
C499 C515 1.377 1_655 S
C500 C498 1.389 . S
C500 C501 1.524 . S
C500 C514 1.377 1_655 S
C501 C500 1.524 . S
C501 C502 1.397 . S
C501 C506 1.363 1_655 S
C502 H479 0.950 . S
C502 C501 1.397 . S
C502 C503 1.334 . S
C503 H480 0.950 . S
C503 C502 1.334 . S
C503 C504 1.287 . S
C504 C503 1.287 . S
C504 C505 1.524 . S
C504 H523 0.913 . S
C505 H481 0.950 1_655 S
C505 C504 1.524 . S
C505 C506 1.415 1_655 S
C506 H482 0.950 . S
C506 C501 1.363 1_455 S
C506 C505 1.415 1_455 S
C507 H483 0.951 . S
C507 C508 1.366 . S
C507 C509 1.388 . S
C508 C507 1.366 . S
C508 C512 1.385 . S
C509 H484 0.951 . S
C509 C507 1.388 . S
C509 C510 1.366 . S
C510 C509 1.366 . S
C510 C511 1.414 . S
C510 C513 1.499 . S
C511 H485 0.950 . S
C511 C510 1.414 . S
C511 C512 1.374 . S
C512 H486 0.950 . S
C512 C508 1.385 . S
C512 C511 1.374 . S
C513 C510 1.499 . S
C513 C514 1.373 . S
C513 C515 1.389 . S
C514 H487 0.950 . S
C514 C500 1.377 1_455 S
C514 C513 1.373 . S
C515 C499 1.377 1_455 S
C515 C513 1.389 . S
C515 C516 1.524 . S
C516 C515 1.524 . S
C516 C517 1.397 . S
C516 C521 1.363 . S
C517 H488 0.950 . S
C517 C516 1.397 . S
C517 C518 1.334 . S
C518 H489 0.950 . S
C518 C517 1.334 . S
C518 C519 1.287 . S
C519 C518 1.287 . S
C519 C520 1.524 . S
C519 H522 0.999 . S
C520 H490 0.950 . S
C520 C519 1.524 . S
C520 C521 1.415 . S
C521 H491 0.950 1_455 S
C521 C516 1.363 . S
C521 C520 1.415 . S
H522 C519 0.999 . S
H523 C504 0.913 . S
H524 C542 0.951 . S
H525 C544 0.951 . S
H526 C546 0.950 . S
H527 C547 0.950 . S
H528 C549 0.950 . S
H529 C552 0.950 . S
H530 C553 0.950 . S
H531 C555 0.950 . S
H532 C556 0.950 . S
H533 C557 0.951 . S
H534 C559 0.951 . S
H535 C561 0.950 . S
H536 C562 0.950 . S
H537 C564 0.950 . S
H538 C567 0.950 . S
H539 C568 0.950 . S
H540 C570 0.950 . S
H541 C571 0.950 . S
C542 H524 0.951 . S
C542 C543 1.366 . S
C542 C544 1.388 . S
C543 C542 1.366 . S
C543 C547 1.385 . S
C544 H525 0.951 . S
C544 C542 1.388 . S
C544 C545 1.366 . S
C545 C544 1.366 . S
C545 C546 1.414 . S
C545 C548 1.499 . S
C546 H526 0.950 . S
C546 C545 1.414 . S
C546 C547 1.374 . S
C547 H527 0.950 . S
C547 C543 1.385 . S
C547 C546 1.374 . S
C548 C545 1.499 . S
C548 C549 1.373 . S
C548 C550 1.389 . S
C549 H528 0.950 . S
C549 C548 1.373 . S
C549 C565 1.377 . S
C550 C548 1.389 . S
C550 C551 1.524 . S
C550 C564 1.377 . S
C551 C550 1.524 . S
C551 C552 1.397 . S
C551 C556 1.363 . S
C552 H529 0.950 . S
C552 C551 1.397 . S
C552 C553 1.334 . S
C553 H530 0.950 . S
C553 C552 1.334 . S
C553 C554 1.287 . S
C554 C553 1.287 . S
C554 C555 1.524 . S
C554 H573 0.913 . S
C555 H531 0.950 . S
C555 C554 1.524 . S
C555 C556 1.415 . S
C556 H532 0.950 . S
C556 C551 1.363 . S
C556 C555 1.415 . S
C557 H533 0.951 . S
C557 C558 1.366 . S
C557 C559 1.388 . S
C558 C557 1.366 . S
C558 C562 1.385 . S
C559 H534 0.951 . S
C559 C557 1.388 . S
C559 C560 1.366 . S
C560 C559 1.366 . S
C560 C561 1.414 . S
C560 C563 1.499 . S
C561 H535 0.950 . S
C561 C560 1.414 . S
C561 C562 1.374 . S
C562 H536 0.950 . S
C562 C558 1.385 . S
C562 C561 1.374 . S
C563 C560 1.499 . S
C563 C564 1.373 . S
C563 C565 1.389 . S
C564 H537 0.950 . S
C564 C550 1.377 . S
C564 C563 1.373 . S
C565 C549 1.377 . S
C565 C563 1.389 . S
C565 C566 1.524 . S
C566 C565 1.524 . S
C566 C567 1.397 . S
C566 C571 1.363 . S
C567 H538 0.950 . S
C567 C566 1.397 . S
C567 C568 1.334 . S
C568 H539 0.950 . S
C568 C567 1.334 . S
C568 C569 1.287 . S
C569 C568 1.287 . S
C569 C570 1.524 . S
C569 H572 0.999 . S
C570 H540 0.950 . S
C570 C569 1.524 . S
C570 C571 1.415 . S
C571 H541 0.950 . S
C571 C566 1.363 . S
C571 C570 1.415 . S
H572 C569 0.999 . S
H573 C554 0.913 . S
H574 C592 0.951 . S
H575 C594 0.951 1_554 S
H576 C596 0.950 . S
H577 C597 0.950 . S
H578 C599 0.950 . S
H579 C602 0.950 . S
H580 C603 0.950 . S
H581 C605 0.950 . S
H582 C606 0.950 . S
H583 C607 0.951 . S
H584 C609 0.951 1_556 S
H585 C611 0.950 . S
H586 C612 0.950 . S
H587 C614 0.950 . S
H588 C617 0.950 . S
H589 C618 0.950 . S
H590 C620 0.950 . S
H591 C621 0.950 . S
C592 H574 0.951 . S
C592 C593 1.366 . S
C592 C594 1.388 . S
C593 C592 1.366 . S
C593 C597 1.385 . S
C594 H575 0.951 1_556 S
C594 C592 1.388 . S
C594 C595 1.366 . S
C595 C594 1.366 . S
C595 C596 1.414 . S
C595 C598 1.499 . S
C596 H576 0.950 . S
C596 C595 1.414 . S
C596 C597 1.374 . S
C597 H577 0.950 . S
C597 C593 1.385 . S
C597 C596 1.374 . S
C598 C595 1.499 . S
C598 C599 1.373 . S
C598 C600 1.389 1_556 S
C599 H578 0.950 . S
C599 C598 1.373 . S
C599 C615 1.377 . S
C600 C598 1.389 1_554 S
C600 C601 1.524 . S
C600 C614 1.377 . S
C601 C600 1.524 . S
C601 C602 1.397 . S
C601 C606 1.363 . S
C602 H579 0.950 . S
C602 C601 1.397 . S
C602 C603 1.334 . S
C603 H580 0.950 . S
C603 C602 1.334 . S
C603 C604 1.287 . S
C604 C603 1.287 . S
C604 C605 1.524 . S
C604 H623 0.913 . S
C605 H581 0.950 . S
C605 C604 1.524 . S
C605 C606 1.415 . S
C606 H582 0.950 . S
C606 C601 1.363 . S
C606 C605 1.415 . S
C607 H583 0.951 . S
C607 C608 1.366 . S
C607 C609 1.388 . S
C608 C607 1.366 . S
C608 C612 1.385 . S
C609 H584 0.951 1_554 S
C609 C607 1.388 . S
C609 C610 1.366 . S
C610 C609 1.366 . S
C610 C611 1.414 . S
C610 C613 1.499 . S
C611 H585 0.950 . S
C611 C610 1.414 . S
C611 C612 1.374 . S
C612 H586 0.950 . S
C612 C608 1.385 . S
C612 C611 1.374 . S
C613 C610 1.499 . S
C613 C614 1.373 . S
C613 C615 1.389 1_554 S
C614 H587 0.950 . S
C614 C600 1.377 . S
C614 C613 1.373 . S
C615 C599 1.377 . S
C615 C613 1.389 1_556 S
C615 C616 1.524 . S
C616 C615 1.524 . S
C616 C617 1.397 . S
C616 C621 1.363 . S
C617 H588 0.950 . S
C617 C616 1.397 . S
C617 C618 1.334 . S
C618 H589 0.950 . S
C618 C617 1.334 . S
C618 C619 1.287 . S
C619 C618 1.287 . S
C619 C620 1.524 . S
C619 H622 0.999 . S
C620 H590 0.950 . S
C620 C619 1.524 . S
C620 C621 1.415 . S
C621 H591 0.950 . S
C621 C616 1.363 . S
C621 C620 1.415 . S
H622 C619 0.999 . S
H623 C604 0.913 . S
H624 C642 0.951 . S
H625 C644 0.951 . S
H626 C646 0.950 . S
H627 C647 0.950 . S
H628 C649 0.950 . S
H629 C652 0.950 . S
H630 C653 0.950 . S
H631 C655 0.950 . S
H632 C656 0.950 . S
H633 C657 0.951 . S
H634 C659 0.951 . S
H635 C661 0.950 . S
H636 C662 0.950 1_455 S
H637 C664 0.950 . S
H638 C667 0.950 . S
H639 C668 0.950 . S
H640 C670 0.950 . S
H641 C671 0.950 . S
C642 H624 0.951 . S
C642 C643 1.366 . S
C642 C644 1.388 . S
C643 C642 1.366 . S
C643 C647 1.385 . S
C644 H625 0.951 . S
C644 C642 1.388 . S
C644 C645 1.366 . S
C645 C644 1.366 . S
C645 C646 1.414 . S
C645 C648 1.499 . S
C646 H626 0.950 . S
C646 C645 1.414 . S
C646 C647 1.374 . S
C647 H627 0.950 . S
C647 C643 1.385 . S
C647 C646 1.374 . S
C648 C645 1.499 . S
C648 C649 1.373 . S
C648 C650 1.389 . S
C649 H628 0.950 . S
C649 C648 1.373 . S
C649 C665 1.377 . S
C650 C648 1.389 . S
C650 C651 1.524 . S
C650 C664 1.377 . S
C651 C650 1.524 . S
C651 C652 1.397 . S
C651 C656 1.363 . S
C652 H629 0.950 . S
C652 C651 1.397 . S
C652 C653 1.334 . S
C653 H630 0.950 . S
C653 C652 1.334 . S
C653 C654 1.287 . S
C654 C653 1.287 . S
C654 C655 1.524 . S
C654 H673 0.913 . S
C655 H631 0.950 . S
C655 C654 1.524 . S
C655 C656 1.415 . S
C656 H632 0.950 . S
C656 C651 1.363 . S
C656 C655 1.415 . S
C657 H633 0.951 . S
C657 C658 1.366 . S
C657 C659 1.388 . S
C658 C657 1.366 . S
C658 C662 1.385 . S
C659 H634 0.951 . S
C659 C657 1.388 . S
C659 C660 1.366 . S
C660 C659 1.366 . S
C660 C661 1.414 . S
C660 C663 1.499 . S
C661 H635 0.950 . S
C661 C660 1.414 . S
C661 C662 1.374 . S
C662 H636 0.950 1_655 S
C662 C658 1.385 . S
C662 C661 1.374 . S
C663 C660 1.499 . S
C663 C664 1.373 . S
C663 C665 1.389 . S
C664 H637 0.950 . S
C664 C650 1.377 . S
C664 C663 1.373 . S
C665 C649 1.377 . S
C665 C663 1.389 . S
C665 C666 1.524 . S
C666 C665 1.524 . S
C666 C667 1.397 . S
C666 C671 1.363 . S
C667 H638 0.950 . S
C667 C666 1.397 . S
C667 C668 1.334 . S
C668 H639 0.950 . S
C668 C667 1.334 . S
C668 C669 1.287 . S
C669 C668 1.287 . S
C669 C670 1.524 . S
C669 H672 0.999 . S
C670 H640 0.950 . S
C670 C669 1.524 . S
C670 C671 1.415 . S
C671 H641 0.950 . S
C671 C666 1.363 . S
C671 C670 1.415 . S
H672 C669 0.999 . S
H673 C654 0.913 . S
H674 C692 0.951 . S
H675 C694 0.951 1_556 S
H676 C696 0.950 . S
H677 C697 0.950 . S
H678 C699 0.950 . S
H679 C702 0.950 . S
H680 C703 0.950 . S
H681 C705 0.950 . S
H682 C706 0.950 . S
H683 C707 0.951 . S
H684 C709 0.951 1_554 S
H685 C711 0.950 . S
H686 C712 0.950 . S
H687 C714 0.950 . S
H688 C717 0.950 . S
H689 C718 0.950 1_655 S
H690 C720 0.950 . S
H691 C721 0.950 . S
C692 H674 0.951 . S
C692 C693 1.366 . S
C692 C694 1.388 . S
C693 C692 1.366 . S
C693 C697 1.385 . S
C694 H675 0.951 1_554 S
C694 C692 1.388 . S
C694 C695 1.366 . S
C695 C694 1.366 . S
C695 C696 1.414 . S
C695 C698 1.499 . S
C696 H676 0.950 . S
C696 C695 1.414 . S
C696 C697 1.374 . S
C697 H677 0.950 . S
C697 C693 1.385 . S
C697 C696 1.374 . S
C698 C695 1.499 . S
C698 C699 1.373 . S
C698 C700 1.389 1_554 S
C699 H678 0.950 . S
C699 C698 1.373 . S
C699 C715 1.377 . S
C700 C698 1.389 1_556 S
C700 C701 1.524 . S
C700 C714 1.377 . S
C701 C700 1.524 . S
C701 C702 1.397 . S
C701 C706 1.363 . S
C702 H679 0.950 . S
C702 C701 1.397 . S
C702 C703 1.334 . S
C703 H680 0.950 . S
C703 C702 1.334 . S
C703 C704 1.287 . S
C704 C703 1.287 . S
C704 C705 1.524 . S
C704 H723 0.913 . S
C705 H681 0.950 . S
C705 C704 1.524 . S
C705 C706 1.415 . S
C706 H682 0.950 . S
C706 C701 1.363 . S
C706 C705 1.415 . S
C707 H683 0.951 . S
C707 C708 1.366 . S
C707 C709 1.388 . S
C708 C707 1.366 . S
C708 C712 1.385 . S
C709 H684 0.951 1_556 S
C709 C707 1.388 . S
C709 C710 1.366 . S
C710 C709 1.366 . S
C710 C711 1.414 . S
C710 C713 1.499 . S
C711 H685 0.950 . S
C711 C710 1.414 . S
C711 C712 1.374 . S
C712 H686 0.950 . S
C712 C708 1.385 . S
C712 C711 1.374 . S
C713 C710 1.499 . S
C713 C714 1.373 . S
C713 C715 1.389 1_556 S
C714 H687 0.950 . S
C714 C700 1.377 . S
C714 C713 1.373 . S
C715 C699 1.377 . S
C715 C713 1.389 1_554 S
C715 C716 1.524 . S
C716 C715 1.524 . S
C716 C717 1.397 . S
C716 C721 1.363 . S
C717 H688 0.950 . S
C717 C716 1.397 . S
C717 C718 1.334 . S
C718 H689 0.950 1_455 S
C718 C717 1.334 . S
C718 C719 1.287 . S
C719 C718 1.287 . S
C719 C720 1.524 . S
C719 H722 0.999 . S
C720 H690 0.950 . S
C720 C719 1.524 . S
C720 C721 1.415 . S
C721 H691 0.950 . S
C721 C716 1.363 . S
C721 C720 1.415 . S
H722 C719 0.999 . S
H723 C704 0.913 . S
H724 C742 0.951 . S
H725 C744 0.951 . S
H726 C746 0.950 . S
H727 C747 0.950 . S
H728 C749 0.950 . S
H729 C752 0.954 1_545 S
H730 C753 0.950 . S
H731 C755 0.950 . S
H732 C756 0.950 . S
H733 C757 0.951 . S
H734 C759 0.951 . S
H735 C761 0.950 . S
H736 C762 0.950 1_655 S
H737 C764 0.950 . S
H738 C767 0.954 1_565 S
H739 C768 0.950 . S
H740 C770 0.950 . S
H741 C771 0.950 . S
C742 H724 0.951 . S
C742 C743 1.366 . S
C742 C744 1.388 . S
C743 C742 1.366 . S
C743 C747 1.385 1_655 S
C744 H725 0.951 . S
C744 C742 1.388 . S
C744 C745 1.366 . S
C745 C744 1.366 . S
C745 C746 1.414 1_655 S
C745 C748 1.499 1_655 S
C746 H726 0.950 . S
C746 C745 1.414 1_455 S
C746 C747 1.374 . S
C747 H727 0.950 . S
C747 C743 1.385 1_455 S
C747 C746 1.374 . S
C748 C745 1.499 1_455 S
C748 C749 1.373 . S
C748 C750 1.393 1_455 S
C749 H728 0.950 . S
C749 C748 1.373 . S
C749 C765 1.371 1_544 S
C750 C748 1.393 1_655 S
C750 C751 1.525 1_545 S
C750 C764 1.371 1_544 S
C751 C750 1.525 1_565 S
C751 C752 1.399 . S
C751 C756 1.363 1_554 S
C752 H729 0.954 1_565 S
C752 C751 1.399 . S
C752 C753 1.331 . S
C753 H730 0.950 . S
C753 C752 1.331 . S
C753 C754 1.287 . S
C754 C753 1.287 . S
C754 C755 1.524 1_554 S
C754 H773 0.913 . S
C755 H731 0.950 . S
C755 C754 1.524 1_556 S
C755 C756 1.415 . S
C756 H732 0.950 . S
C756 C751 1.363 1_556 S
C756 C755 1.415 . S
C757 H733 0.951 . S
C757 C758 1.366 . S
C757 C759 1.388 . S
C758 C757 1.366 . S
C758 C762 1.385 . S
C759 H734 0.951 . S
C759 C757 1.388 . S
C759 C760 1.366 . S
C760 C759 1.366 . S
C760 C761 1.414 1_455 S
C760 C763 1.499 . S
C761 H735 0.950 . S
C761 C760 1.414 1_655 S
C761 C762 1.374 1_655 S
C762 H736 0.950 1_455 S
C762 C758 1.385 . S
C762 C761 1.374 1_455 S
C763 C760 1.499 . S
C763 C764 1.373 1_455 S
C763 C765 1.393 . S
C764 H737 0.950 . S
C764 C750 1.371 1_566 S
C764 C763 1.373 1_655 S
C765 C749 1.371 1_566 S
C765 C763 1.393 . S
C765 C766 1.525 1_565 S
C766 C765 1.525 1_545 S
C766 C767 1.399 . S
C766 C771 1.363 1_556 S
C767 H738 0.954 1_545 S
C767 C766 1.399 . S
C767 C768 1.331 . S
C768 H739 0.950 . S
C768 C767 1.331 . S
C768 C769 1.287 . S
C769 C768 1.287 . S
C769 C770 1.524 1_556 S
C769 H772 0.999 . S
C770 H740 0.950 . S
C770 C769 1.524 1_554 S
C770 C771 1.415 . S
C771 H741 0.950 . S
C771 C766 1.363 1_554 S
C771 C770 1.415 . S
H772 C769 0.999 . S
H773 C754 0.913 . S
H774 C792 0.951 . S
H775 C794 0.951 . S
H776 C796 0.950 . S
H777 C797 0.950 1_655 S
H778 C799 0.950 . S
H779 C802 0.950 1_545 S
H780 C803 0.950 . S
H781 C805 0.950 . S
H782 C806 0.950 . S
H783 C807 0.951 . S
H784 C809 0.951 . S
H785 C811 0.950 . S
H786 C812 0.950 . S
H787 C814 0.950 . S
H788 C817 0.950 1_565 S
H789 C818 0.950 . S
H790 C820 0.950 . S
H791 C821 0.950 . S
C792 H774 0.951 . S
C792 C793 1.366 . S
C792 C794 1.388 . S
C793 C792 1.366 . S
C793 C797 1.385 . S
C794 H775 0.951 . S
C794 C792 1.388 . S
C794 C795 1.366 . S
C795 C794 1.366 . S
C795 C796 1.414 1_455 S
C795 C798 1.499 . S
C796 H776 0.950 . S
C796 C795 1.414 1_655 S
C796 C797 1.374 1_655 S
C797 H777 0.950 1_455 S
C797 C793 1.385 . S
C797 C796 1.374 1_455 S
C798 C795 1.499 . S
C798 C799 1.373 . S
C798 C800 1.389 1_545 S
C799 H778 0.950 . S
C799 C798 1.373 . S
C799 C815 1.377 . S
C800 C798 1.389 1_565 S
C800 C801 1.524 . S
C800 C814 1.377 . S
C801 C800 1.524 . S
C801 C802 1.397 1_455 S
C801 C806 1.363 . S
C802 H779 0.950 1_565 S
C802 C801 1.397 1_655 S
C802 C803 1.334 . S
C803 H780 0.950 . S
C803 C802 1.334 . S
C803 C804 1.287 . S
C804 C803 1.287 . S
C804 C805 1.524 1_655 S
C804 H823 0.913 . S
C805 H781 0.950 . S
C805 C804 1.524 1_455 S
C805 C806 1.415 . S
C806 H782 0.950 . S
C806 C801 1.363 . S
C806 C805 1.415 . S
C807 H783 0.951 . S
C807 C808 1.366 . S
C807 C809 1.388 . S
C808 C807 1.366 . S
C808 C812 1.385 1_655 S
C809 H784 0.951 . S
C809 C807 1.388 . S
C809 C810 1.366 . S
C810 C809 1.366 . S
C810 C811 1.414 1_655 S
C810 C813 1.499 1_655 S
C811 H785 0.950 . S
C811 C810 1.414 1_455 S
C811 C812 1.374 . S
C812 H786 0.950 . S
C812 C808 1.385 1_455 S
C812 C811 1.374 . S
C813 C810 1.499 1_455 S
C813 C814 1.373 . S
C813 C815 1.389 1_565 S
C814 H787 0.950 . S
C814 C800 1.377 . S
C814 C813 1.373 . S
C815 C799 1.377 . S
C815 C813 1.389 1_545 S
C815 C816 1.524 . S
C816 C815 1.524 . S
C816 C817 1.397 . S
C816 C821 1.363 1_455 S
C817 H788 0.950 1_545 S
C817 C816 1.397 . S
C817 C818 1.334 . S
C818 H789 0.950 . S
C818 C817 1.334 . S
C818 C819 1.287 . S
C819 C818 1.287 . S
C819 C820 1.524 1_455 S
C819 H822 0.999 . S
C820 H790 0.950 . S
C820 C819 1.524 1_655 S
C820 C821 1.415 . S
C821 H791 0.950 . S
C821 C816 1.363 1_655 S
C821 C820 1.415 . S
H822 C819 0.999 . S
H823 C804 0.913 . S
H824 C842 0.951 . S
H825 C844 0.951 . S
H826 C846 0.950 . S
H827 C847 0.950 . S
H828 C849 0.950 . S
H829 C852 0.950 . S
H830 C853 0.950 . S
H831 C855 0.950 . S
H832 C856 0.950 . S
H833 C857 0.951 . S
H834 C859 0.951 . S
H835 C861 0.950 . S
H836 C862 0.950 . S
H837 C864 0.950 . S
H838 C867 0.950 . S
H839 C868 0.950 . S
H840 C870 0.950 . S
H841 C871 0.950 . S
C842 H824 0.951 . S
C842 C843 1.366 . S
C842 C844 1.388 . S
C843 C842 1.366 . S
C843 C847 1.385 . S
C844 H825 0.951 . S
C844 C842 1.388 . S
C844 C845 1.366 . S
C845 C844 1.366 . S
C845 C846 1.414 . S
C845 C848 1.499 . S
C846 H826 0.950 . S
C846 C845 1.414 . S
C846 C847 1.374 . S
C847 H827 0.950 . S
C847 C843 1.385 . S
C847 C846 1.374 . S
C848 C845 1.499 . S
C848 C849 1.373 1_554 S
C848 C850 1.389 . S
C849 H828 0.950 . S
C849 C848 1.373 1_556 S
C849 C865 1.377 . S
C850 C848 1.389 . S
C850 C851 1.524 . S
C850 C864 1.377 . S
C851 C850 1.524 . S
C851 C852 1.397 . S
C851 C856 1.363 . S
C852 H829 0.950 . S
C852 C851 1.397 . S
C852 C853 1.334 . S
C853 H830 0.950 . S
C853 C852 1.334 . S
C853 C854 1.287 . S
C854 C853 1.287 . S
C854 C855 1.524 . S
C854 H873 0.913 . S
C855 H831 0.950 . S
C855 C854 1.524 . S
C855 C856 1.415 . S
C856 H832 0.950 . S
C856 C851 1.363 . S
C856 C855 1.415 . S
C857 H833 0.951 . S
C857 C858 1.366 . S
C857 C859 1.388 . S
C858 C857 1.366 . S
C858 C862 1.385 . S
C859 H834 0.951 . S
C859 C857 1.388 . S
C859 C860 1.366 . S
C860 C859 1.366 . S
C860 C861 1.414 . S
C860 C863 1.499 . S
C861 H835 0.950 . S
C861 C860 1.414 . S
C861 C862 1.374 . S
C862 H836 0.950 . S
C862 C858 1.385 . S
C862 C861 1.374 . S
C863 C860 1.499 . S
C863 C864 1.373 1_556 S
C863 C865 1.389 . S
C864 H837 0.950 . S
C864 C850 1.377 . S
C864 C863 1.373 1_554 S
C865 C849 1.377 . S
C865 C863 1.389 . S
C865 C866 1.524 . S
C866 C865 1.524 . S
C866 C867 1.397 . S
C866 C871 1.363 . S
C867 H838 0.950 . S
C867 C866 1.397 . S
C867 C868 1.334 . S
C868 H839 0.950 . S
C868 C867 1.334 . S
C868 C869 1.287 . S
C869 C868 1.287 . S
C869 C870 1.524 . S
C869 H872 0.999 . S
C870 H840 0.950 . S
C870 C869 1.524 . S
C870 C871 1.415 . S
C871 H841 0.950 . S
C871 C866 1.363 . S
C871 C870 1.415 . S
H872 C869 0.999 . S
H873 C854 0.913 . S
H874 C892 0.951 . S
H875 C894 0.951 . S
H876 C896 0.950 . S
H877 C897 0.950 . S
H878 C899 0.950 . S
H879 C902 0.950 . S
H880 C903 0.950 . S
H881 C905 0.950 . S
H882 C906 0.950 . S
H883 C907 0.951 . S
H884 C909 0.951 . S
H885 C911 0.950 . S
H886 C912 0.950 . S
H887 C914 0.950 . S
H888 C917 0.950 . S
H889 C918 0.950 . S
H890 C920 0.950 . S
H891 C921 0.950 . S
C892 H874 0.951 . S
C892 C893 1.366 . S
C892 C894 1.388 . S
C893 C892 1.366 . S
C893 C897 1.385 . S
C894 H875 0.951 . S
C894 C892 1.388 . S
C894 C895 1.366 . S
C895 C894 1.366 . S
C895 C896 1.414 . S
C895 C898 1.499 . S
C896 H876 0.950 . S
C896 C895 1.414 . S
C896 C897 1.374 . S
C897 H877 0.950 . S
C897 C893 1.385 . S
C897 C896 1.374 . S
C898 C895 1.499 . S
C898 C899 1.373 . S
C898 C900 1.389 . S
C899 H878 0.950 . S
C899 C898 1.373 . S
C899 C915 1.377 . S
C900 C898 1.389 . S
C900 C901 1.524 . S
C900 C914 1.377 . S
C901 C900 1.524 . S
C901 C902 1.397 . S
C901 C906 1.363 . S
C902 H879 0.950 . S
C902 C901 1.397 . S
C902 C903 1.334 . S
C903 H880 0.950 . S
C903 C902 1.334 . S
C903 C904 1.287 . S
C904 C903 1.287 . S
C904 C905 1.524 . S
C904 H923 0.913 . S
C905 H881 0.950 . S
C905 C904 1.524 . S
C905 C906 1.415 . S
C906 H882 0.950 . S
C906 C901 1.363 . S
C906 C905 1.415 . S
C907 H883 0.951 . S
C907 C908 1.366 . S
C907 C909 1.388 . S
C908 C907 1.366 . S
C908 C912 1.385 . S
C909 H884 0.951 . S
C909 C907 1.388 . S
C909 C910 1.366 . S
C910 C909 1.366 . S
C910 C911 1.414 . S
C910 C913 1.499 . S
C911 H885 0.950 . S
C911 C910 1.414 . S
C911 C912 1.374 . S
C912 H886 0.950 . S
C912 C908 1.385 . S
C912 C911 1.374 . S
C913 C910 1.499 . S
C913 C914 1.373 . S
C913 C915 1.389 . S
C914 H887 0.950 . S
C914 C900 1.377 . S
C914 C913 1.373 . S
C915 C899 1.377 . S
C915 C913 1.389 . S
C915 C916 1.524 . S
C916 C915 1.524 . S
C916 C917 1.397 . S
C916 C921 1.363 . S
C917 H888 0.950 . S
C917 C916 1.397 . S
C917 C918 1.334 . S
C918 H889 0.950 . S
C918 C917 1.334 . S
C918 C919 1.287 . S
C919 C918 1.287 . S
C919 C920 1.524 . S
C919 H922 0.999 . S
C920 H890 0.950 . S
C920 C919 1.524 . S
C920 C921 1.415 . S
C921 H891 0.950 . S
C921 C916 1.363 . S
C921 C920 1.415 . S
H922 C919 0.999 . S
H923 C904 0.913 . S
C143 C24 1.304 1_556 S
C158 C0 1.304 . S
C193 C55 1.303 . S
C208 C31 1.303 1_554 S
C243 C86 1.303 1_556 S
C258 C62 1.303 . S
C293 C93 1.302 1_554 S
C308 C117 1.302 . S
C343 C10 0.809 . S
C358 C2 0.809 . S
C393 C41 0.810 . S
C408 C33 0.810 . S
C443 C64 0.809 . S
C458 C72 0.809 . S
C493 C95 0.810 . S
C508 C103 0.810 . S
C543 C104 1.613 . S
C558 C18 1.613 . S
C593 C94 2.137 . S
C608 C27 2.137 . S
C643 C80 1.614 . S
C658 C42 1.614 . S
C693 C89 2.137 . S
C708 C32 2.137 . S
C743 C11 2.099 . S
C758 C49 2.099 . S
C793 C1 1.259 . S
C808 C58 1.259 . S
C843 C73 2.099 . S
C858 C111 2.099 . S
C893 C120 1.260 . S
C908 C63 1.260 . S
