# Generated by pormake.
# Topology ilc, (8)-cn, num edge types: 1
# Building blocks:
#     Node 0, Type 0, BuildingBlock: LIZSOE_clean_sbu_0, # of connection points: 8
#     Node 1, Type 0, BuildingBlock: LIZSOE_clean_sbu_0, # of connection points: 8
#     Node 2, Type 0, BuildingBlock: LIZSOE_clean_sbu_0, # of connection points: 8
#     Edge 3, Type (0, 0), BuildingBlock: UVAHIK_clean_linker_0, # of connection points: 2
#     Edge 4, Type (0, 0), BuildingBlock: UVAHIK_clean_linker_0, # of connection points: 2
#     Edge 5, Type (0, 0), BuildingBlock: UVAHIK_clean_linker_0, # of connection points: 2
#     Edge 6, Type (0, 0), BuildingBlock: UVAHIK_clean_linker_0, # of connection points: 2
#     Edge 7, Type (0, 0), BuildingBlock: UVAHIK_clean_linker_0, # of connection points: 2
#     Edge 8, Type (0, 0), BuildingBlock: UVAHIK_clean_linker_0, # of connection points: 2
#     Edge 9, Type (0, 0), BuildingBlock: UVAHIK_clean_linker_0, # of connection points: 2
#     Edge 10, Type (0, 0), BuildingBlock: UVAHIK_clean_linker_0, # of connection points: 2
#     Edge 11, Type (0, 0), BuildingBlock: UVAHIK_clean_linker_0, # of connection points: 2
#     Edge 12, Type (0, 0), BuildingBlock: UVAHIK_clean_linker_0, # of connection points: 2
#     Edge 13, Type (0, 0), BuildingBlock: UVAHIK_clean_linker_0, # of connection points: 2
#     Edge 14, Type (0, 0), BuildingBlock: UVAHIK_clean_linker_0, # of connection points: 2
# Relax obj value: 0.294
# Max RMSD: 0.157
# Mean RMSD: 0.157
data_MOF--net-ilc--node1-LIZSOE_clean_sbu_0--edge1-UVAHIK_clean_linker_0
_symmetry_space_group_name_H-M    P1
_symmetry_Int_Tables_number       1
_symmetry_cell_setting            triclinic
loop_
_symmetry_equiv_pos_as_xyz
'x, y, z'
_cell_length_a     26.160361
_cell_length_b     26.567752
_cell_length_c     20.194996
_cell_angle_alpha  89.902475
_cell_angle_beta   91.861583
_cell_angle_gamma 120.37445
loop_
_atom_site_label
_atom_site_type_symbol
_atom_site_fract_x
_atom_site_fract_y
_atom_site_fract_z
_atom_type_partial_charge
Co0 Co 0.13958 0.06211 0.9403 0.0
N1 N 0.15954 0.04669 0.85614 0.0
C2 C 0.14644 0.06397 0.79847 0.0
N3 N 0.18092 1.00651 0.77117 0.0
C4 C 0.18295 1.01354 0.83772 0.0
C5 C 0.15888 0.03913 0.74664 0.0
Co6 Co 0.95656 0.9726 0.17347 0.0
N7 N 0.93508 0.93676 0.25737 0.0
N8 N 0.91208 0.87491 0.34246 0.0
C9 C 0.93273 0.92925 0.36682 0.0
C10 C 0.94603 0.96664 0.3149 0.0
C11 C 0.91174 0.88024 0.27582 0.0
Co12 Co 0.04858 0.03715 0.05696 0.0
C13 C 0.92014 0.95796 0.12266 0.0
H14 H 0.96425 1.01311 0.31923 0.0
O15 O 0.12957 0.08225 1.01695 0.0
O16 O 0.08565 1.00129 0.1155 0.0
O17 O 1.00985 0.96525 0.99722 0.0
O18 O 1.02292 0.07666 0.98732 0.0
O19 O 0.08097 0.08057 0.90282 0.0
O20 O 1.01376 0.9509 0.1808 0.0
O21 O 0.96774 1.00287 0.09678 0.0
O22 O 1.01468 0.04943 0.21132 0.0
O23 O 0.08272 0.98284 0.93507 0.0
O24 O 0.18454 0.04018 0.98846 0.0
O25 O 0.07552 0.1017 0.12767 0.0
O26 O 0.91258 0.90594 0.12483 0.0
C27 C 1.03151 0.94858 0.95333 0.0
C28 C 0.88213 0.82867 0.22882 0.0
H29 H 0.9151 0.82875 0.1956 0.0
H30 H 0.85973 0.78679 0.25539 0.0
H31 H 0.84711 0.8307 0.19865 0.0
C32 C 0.06394 0.9649 0.16134 0.0
C33 C 1.0389 0.08698 0.92591 0.0
H34 H 0.12674 0.09109 0.79396 0.0
H35 H 0.24879 1.02915 0.91376 0.0
H36 H 0.23498 0.97183 0.85778 0.0
H37 H 0.18076 0.95963 0.91859 0.0
C38 C 0.21324 0.99193 0.88453 0.0
C39 C 0.17669 0.0845 0.99002 0.0
C40 C 0.05827 0.09703 0.18854 0.0
H41 H 0.1478 0.04104 0.69492 0.0
H42 H 0.94197 0.94196 0.4187 0.0
Co43 Co 0.71365 0.37932 0.27007 0.0
N44 N 0.64703 0.35697 0.21289 0.0
C45 C 0.59191 0.31476 0.22875 0.0
N46 N 0.58184 0.34424 0.13049 0.0
C47 C 0.6392 0.3747 0.15258 0.0
C48 C 0.5519 0.30651 0.17804 0.0
Co49 Co 0.7091 0.35382 0.5187 0.0
N50 N 0.77332 0.37709 0.5802 0.0
N51 N 0.82895 0.42556 0.67128 0.0
C52 C 0.86264 0.44566 0.61775 0.0
C53 C 0.82866 0.41621 0.56246 0.0
C54 C 0.77613 0.38119 0.64724 0.0
Co55 Co 0.71099 0.36576 0.39254 0.0
C56 C 0.62168 0.31685 0.52343 0.0
H57 H 0.84102 0.42897 0.51196 0.0
O58 O 0.77924 0.40083 0.32194 0.0
O59 O 0.76428 0.33648 0.43578 0.0
O60 O 0.66356 0.28353 0.34698 0.0
O61 O 0.65763 0.39573 0.35006 0.0
O62 O 0.72319 0.4532 0.28344 0.0
O63 O 0.70226 0.28093 0.50785 0.0
O64 O 0.6437 0.33152 0.46334 0.0
O65 O 0.71505 0.42556 0.53247 0.0
O66 O 0.7069 0.30833 0.25279 0.0
O67 O 0.76489 0.40783 0.21071 0.0
O68 O 0.75827 0.44763 0.43766 0.0
O69 O 0.65537 0.32468 0.57465 0.0
C70 C 0.67559 0.26887 0.29163 0.0
C71 C 0.72399 0.34643 0.69001 0.0
H72 H 0.69674 0.30112 0.67039 0.0
H73 H 0.73877 0.34393 0.7413 0.0
H74 H 0.6967 0.36755 0.69169 0.0
C75 C 0.74619 0.29271 0.47426 0.0
C76 C 0.67864 0.44184 0.3151 0.0
H77 H 0.58116 0.29174 0.27497 0.0
H78 H 0.71722 0.45999 0.14998 0.0
H79 H 0.67045 0.43993 0.07585 0.0
H80 H 0.71509 0.40714 0.09257 0.0
C81 C 0.68807 0.42338 0.11553 0.0
C82 C 0.7998 0.41645 0.26138 0.0
C83 C 0.74616 0.46377 0.49188 0.0
H84 H 0.50478 0.27532 0.17601 0.0
H85 H 0.90492 0.48596 0.61696 0.0
Co86 Co 0.39186 0.69335 0.59685 0.0
N87 N 0.3269 0.65111 0.53673 0.0
C88 C 0.27116 0.62889 0.55752 0.0
N89 N 0.26482 0.63661 0.44921 0.0
C90 C 0.32116 0.65308 0.46999 0.0
C91 C 0.23331 0.61985 0.50442 0.0
Co92 Co 0.38414 0.70021 0.84748 0.0
N93 N 0.4484 0.732 0.9093 0.0
N94 N 0.50969 0.78235 0.99585 0.0
C95 C 0.54194 0.79443 0.94153 0.0
C96 C 0.50456 0.76326 0.889 0.0
C97 C 0.45315 0.74347 0.97523 0.0
Co98 Co 0.38902 0.7028 0.72183 0.0
C99 C 0.29691 0.65767 0.85029 0.0
H100 H 0.51678 0.76816 0.83779 0.0
O101 O 0.45708 0.73733 0.65146 0.0
O102 O 0.44018 0.67211 0.76857 0.0
O103 O 0.33838 0.6195 0.67996 0.0
O104 O 0.33924 0.73459 0.67552 0.0
O105 O 0.38432 0.75805 0.58215 0.0
O106 O 0.38211 0.62965 0.84942 0.0
O107 O 0.32 0.66907 0.7907 0.0
O108 O 0.38429 0.77001 0.84963 0.0
O109 O 0.40096 0.62848 0.60778 0.0
O110 O 0.44502 0.71793 0.54026 0.0
O111 O 0.43864 0.78583 0.76475 0.0
O112 O 0.33003 0.67354 0.9034 0.0
C113 C 0.3576 0.59511 0.64123 0.0
C114 C 0.40072 0.72324 1.01849 0.0
H115 H 0.37205 0.67515 1.01402 0.0
H116 H 0.4141 0.73424 0.07147 0.0
H117 H 0.37478 0.744 1.0026 0.0
C118 C 0.42288 0.63435 0.81479 0.0
C119 C 0.35135 0.76331 0.62159 0.0
H120 H 0.25988 0.62728 0.60877 0.0
H121 H 0.39693 0.7285 0.43194 0.0
H122 H 0.35863 0.66967 0.37239 0.0
H123 H 0.40344 0.66382 0.43702 0.0
C124 C 0.37291 0.68035 0.42519 0.0
C125 C 0.47877 0.74452 0.5912 0.0
C126 C 0.4222 0.80599 0.81202 0.0
H127 H 0.18844 0.61149 0.50772 0.0
H128 H 0.58763 0.82908 0.93827 0.0
C129 C 0.15434 0.90339 0.76084 0.0
C130 C 0.18072 0.95988 0.73465 0.0
C131 C 0.13432 0.85484 0.71916 0.0
C132 C 0.10217 0.81472 0.53827 0.0
H133 H 0.9421 0.74316 0.59686 0.0
C134 C 0.93735 0.79734 0.355 0.0
C135 C 0.91148 0.82842 0.37998 0.0
C136 C 0.95609 0.76814 0.39762 0.0
C137 C 0.98619 0.76054 0.57967 0.0
H138 H 0.21554 1.01021 0.64637 0.0
H139 H 0.17733 0.92633 0.57281 0.0
H140 H 1.02264 0.78183 0.67785 0.0
H141 H 0.87627 0.84502 0.4672 0.0
H142 H 0.91284 0.79877 0.54238 0.0
H143 H 0.06602 0.79999 0.43999 0.0
C144 C 0.1727 0.91853 0.62547 0.0
C145 C 1.03312 0.78291 0.62633 0.0
C146 C 0.19422 0.96711 0.66753 0.0
C147 C 0.89738 0.82266 0.44692 0.0
C148 C 0.91794 0.79519 0.48996 0.0
C149 C 0.05521 0.79208 0.49159 0.0
C150 C 0.13761 0.86183 0.65029 0.0
C151 C 0.09189 0.81523 0.60576 0.0
C152 C 0.95239 0.77229 0.46635 0.0
C153 C 0.99673 0.76955 0.51195 0.0
H154 H 0.14303 0.89566 0.81219 0.0
H155 H 0.10965 0.81183 0.7402 0.0
H156 H 0.1466 0.83877 0.52119 0.0
H157 H 0.94909 0.80038 0.30387 0.0
H158 H 0.97994 0.74857 0.3773 0.0
C159 C 0.82373 0.44815 0.78808 0.0
C160 C 0.83036 0.46446 0.72151 0.0
C161 C 0.79492 0.46705 0.82991 0.0
C162 C 0.66446 0.45832 0.79905 0.0
H163 H 0.6686 0.50172 0.9827 0.0
C164 C 0.54176 0.39037 0.05796 0.0
C165 C 0.55897 0.34872 0.06705 0.0
C166 C 0.54834 0.41676 0.99661 0.0
C167 C 0.66636 0.49108 0.93052 0.0
H168 H 0.82183 0.5198 0.64992 0.0
H169 H 0.77159 0.5527 0.72233 0.0
H170 H 0.76078 0.54368 0.92352 0.0
H171 H 0.58366 0.29241 1.01838 0.0
H172 H 0.59358 0.33683 0.91057 0.0
H173 H 0.57187 0.39801 0.8095 0.0
C174 C 0.78887 0.52624 0.74233 0.0
C175 C 0.71925 0.51486 0.8971 0.0
C176 C 0.81797 0.50782 0.70115 0.0
C177 C 0.57066 0.32494 1.01192 0.0
C178 C 0.57597 0.35031 0.95027 0.0
C179 C 0.61194 0.43296 0.83321 0.0
C180 C 0.77291 0.50219 0.80491 0.0
C181 C 0.71882 0.49583 0.83254 0.0
C182 C 0.57164 0.4008 0.94457 0.0
C183 C 0.61346 0.446 0.90062 0.0
H184 H 0.83299 0.41472 0.80477 0.0
H185 H 0.78255 0.44765 0.87827 0.0
H186 H 0.66347 0.44303 0.74903 0.0
H187 H 0.53086 0.40762 0.09987 0.0
H188 H 0.54335 0.45461 0.99251 0.0
C189 C 0.5279 0.80921 0.11366 0.0
C190 C 0.52308 0.82383 1.04813 0.0
C191 C 0.50995 0.83167 0.16464 0.0
C192 C 0.37998 0.83445 0.15865 0.0
H193 H 0.39994 0.83617 0.34939 0.0
C194 C 0.26146 0.72206 0.41418 0.0
C195 C 0.25349 0.66727 0.39777 0.0
C196 C 0.28069 0.76561 0.36727 0.0
C197 C 0.39342 0.83722 0.29624 0.0
H198 H 0.50543 0.87836 0.98501 0.0
H199 H 0.47432 0.9182 0.07306 0.0
H200 H 0.487 0.88689 0.28248 0.0
H201 H 0.2479 0.6108 0.31782 0.0
H202 H 0.27999 0.68662 0.23418 0.0
H203 H 0.28704 0.77802 0.17204 0.0
C204 C 0.49258 0.8907 0.0859 0.0
C205 C 0.44342 0.86631 0.25817 0.0
C206 C 0.51085 0.86852 1.03551 0.0
C207 C 0.25377 0.6529 0.3312 0.0
C208 C 0.27223 0.69644 0.28362 0.0
C209 C 0.3301 0.80442 0.19667 0.0
C210 C 0.48625 0.86779 0.14945 0.0
C211 C 0.43721 0.86167 0.18903 0.0
C212 C 0.29089 0.75429 0.30307 0.0
C213 C 0.33695 0.80246 0.26539 0.0
H214 H 0.53691 0.77438 0.12406 0.0
H215 H 0.50558 0.81328 0.21348 0.0
H216 H 0.37387 0.82979 0.10522 0.0
H217 H 0.26213 0.73361 0.4654 0.0
H218 H 0.29562 0.80991 0.38318 0.0
C219 C 0.26037 0.77093 0.59424 0.0
C220 C 0.32234 0.79609 0.59688 0.0
C221 C 0.23314 0.79312 0.55112 0.0
C222 C 0.26029 0.91808 0.44169 0.0
H223 H 0.13316 0.79829 0.33117 0.0
C224 C 0.16041 0.97613 0.20985 0.0
C225 C 0.09838 0.94301 0.20018 0.0
C226 C 0.18992 0.95923 0.2568 0.0
C227 C 0.16824 0.83257 0.36169 0.0
H228 H 0.40416 0.86685 0.56036 0.0
H229 H 0.35733 0.90604 0.48745 0.0
H230 H 0.17632 0.77053 0.42256 0.0
H231 H 1.01973 0.86478 0.23019 0.0
H232 H 0.07003 0.83573 0.31111 0.0
H233 H 0.25112 0.98015 0.38185 0.0
C234 C 0.32938 0.86923 0.51789 0.0
C235 C 0.19313 0.81648 0.41437 0.0
C236 C 0.35633 0.84676 0.56005 0.0
C237 C 0.06737 0.89145 0.2364 0.0
C238 C 0.09654 0.87455 0.28283 0.0
C239 C 0.23488 0.93422 0.38934 0.0
C240 C 0.26735 0.84125 0.51028 0.0
C241 C 0.23948 0.85891 0.45543 0.0
C242 C 0.15823 0.90856 0.29492 0.0
C243 C 0.18813 0.89172 0.34857 0.0
H244 H 0.23283 0.7312 0.62071 0.0
H245 H 0.18523 0.77046 0.547 0.0
H246 H 0.29567 0.95207 0.47225 0.0
H247 H 0.18578 1.0164 0.18342 0.0
H248 H 0.23754 0.98633 0.26376 0.0
C249 C 0.35119 0.5087 0.58426 0.0
C250 C 0.32158 0.5335 0.6156 0.0
C251 C 0.3206 0.45956 0.5424 0.0
C252 C 0.17038 0.33832 0.48542 0.0
H253 H 0.25429 0.34362 0.32824 0.0
C254 C 0.08199 0.13935 0.30484 0.0
C255 C 0.08936 0.14819 0.23611 0.0
C256 C 0.10853 0.18611 0.35052 0.0
C257 C 0.22974 0.34142 0.37135 0.0
H258 H 0.23493 0.52224 0.63108 0.0
H259 H 0.18114 0.43638 0.55744 0.0
H260 H 0.30125 0.42226 0.41053 0.0
H261 H 0.13257 0.21466 0.16246 0.0
H262 H 0.17905 0.29665 0.24219 0.0
H263 H 0.09834 0.25794 0.44536 0.0
C264 C 0.22852 0.45526 0.56528 0.0
C265 C 0.25717 0.38639 0.41945 0.0
C266 C 0.25936 0.50453 0.60797 0.0
C267 C 0.1256 0.20581 0.21477 0.0
C268 C 0.15242 0.25294 0.26077 0.0
C269 C 0.14293 0.29323 0.43727 0.0
C270 C 0.25908 0.43337 0.52975 0.0
C271 C 0.22833 0.38542 0.47777 0.0
C272 C 0.14392 0.24388 0.32953 0.0
C273 C 0.17231 0.29368 0.37958 0.0
H274 H 0.39903 0.52946 0.58918 0.0
H275 H 0.34579 0.44319 0.51828 0.0
H276 H 0.14645 0.33557 0.52929 0.0
H277 H 0.05612 0.09587 0.32399 0.0
H278 H 0.10197 0.1766 0.40273 0.0
C279 C 0.55157 0.83989 0.54503 0.0
C280 C 0.54093 0.78757 0.57466 0.0
C281 C 0.59651 0.86842 0.49901 0.0
C282 C 0.68236 0.83226 0.38152 0.0
H283 H 0.75571 0.99575 0.33725 0.0
C284 C 0.81105 0.91005 0.14224 0.0
C285 C 0.86707 0.96148 0.14627 0.0
C286 C 0.76966 0.89627 0.19169 0.0
C287 C 0.73595 0.94999 0.34882 0.0
H288 H 0.57177 0.72605 0.58065 0.0
H289 H 0.65259 0.77746 0.50482 0.0
H290 H 0.69584 0.9598 0.43537 0.0
H291 H 0.91704 0.04413 0.19915 0.0
H292 H 0.84574 1.02012 0.28582 0.0
H293 H 0.72366 0.82245 0.29678 0.0
C294 C 0.6252 0.79605 0.51536 0.0
C295 C 0.70089 0.92904 0.40526 0.0
C296 C 0.57978 0.76724 0.56081 0.0
C297 C 0.87548 1.00333 0.19487 0.0
C298 C 0.83429 0.98918 0.24535 0.0
C299 C 0.71743 0.85314 0.32558 0.0
C300 C 0.63251 0.84555 0.48089 0.0
C301 C 0.67315 0.86959 0.42267 0.0
C302 C 0.78246 0.93359 0.247 0.0
C303 C 0.74448 0.91227 0.30746 0.0
H304 H 0.52104 0.85554 0.55214 0.0
H305 H 0.59963 0.90586 0.47394 0.0
H306 H 0.66148 0.78612 0.39148 0.0
H307 H 0.8019 0.87699 0.10494 0.0
H308 H 0.72904 0.85437 0.18844 0.0
C309 C 0.75511 0.21123 0.5237 0.0
C310 C 0.7836 0.26825 0.49879 0.0
C311 C 0.7859 0.19154 0.56393 0.0
C312 C 0.91271 0.24608 0.68391 0.0
H313 H 0.88262 0.0876 0.67409 0.0
C314 C 0.982 0.13928 0.8976 0.0
C315 C 1.00785 0.1066 0.87777 0.0
C316 C 0.95632 0.15993 0.85026 0.0
C317 C 0.89181 0.13211 0.67764 0.0
H318 H 0.86836 0.34819 0.49423 0.0
H319 H 0.92233 0.31408 0.56559 0.0
H320 H 0.83916 0.12187 0.58946 0.0
H321 H 1.02445 0.06837 0.79225 0.0
H322 H 0.97987 0.10356 0.71091 0.0
H323 H 0.96495 0.25594 0.7727 0.0
C324 C 0.87571 0.28462 0.55386 0.0
C325 C 0.86657 0.15173 0.62907 0.0
C326 C 0.84495 0.30399 0.51218 0.0
C327 C 1.00588 0.09404 0.80964 0.0
C328 C 0.97968 0.11386 0.76274 0.0
C329 C 0.93741 0.22616 0.7331 0.0
C330 C 0.8462 0.22851 0.58164 0.0
C331 C 0.87651 0.209 0.63136 0.0
C332 C 0.95479 0.14747 0.78201 0.0
C333 C 0.92739 0.16882 0.7307 0.0
H334 H 0.70781 0.18268 0.515 0.0
H335 H 0.7614 0.14824 0.5843 0.0
H336 H 0.92085 0.2902 0.68793 0.0
H337 H 0.9827 0.14991 0.94949 0.0
H338 H 0.93713 0.18521 0.86718 0.0
C339 C 0.83599 0.56147 0.52169 0.0
C340 C 0.77405 0.52547 0.51572 0.0
C341 C 0.86179 0.60986 0.56588 0.0
C342 C 0.83323 0.70743 0.67294 0.0
H343 H 0.95462 0.70854 0.78917 0.0
C344 C 0.93416 0.86601 0.90359 0.0
C345 C 0.99589 0.89241 0.91482 0.0
C346 C 0.90382 0.81953 0.85716 0.0
C347 C 0.92114 0.70944 0.75709 0.0
H348 H 0.69093 0.51513 0.54692 0.0
H349 H 0.73547 0.60016 0.62112 0.0
H350 H 0.91127 0.63787 0.69787 0.0
H351 H 0.07304 0.88823 0.88809 0.0
H352 H 1.02127 0.80862 0.80806 0.0
H353 H 0.84427 0.78011 0.73111 0.0
C354 C 0.76442 0.59111 0.59273 0.0
C355 C 0.89612 0.66859 0.7045 0.0
C356 C 0.73881 0.54236 0.54977 0.0
C357 C 1.02566 0.86927 0.88063 0.0
C358 C 0.99563 0.82305 0.83473 0.0
C359 C 0.85872 0.74876 0.7253 0.0
C360 C 0.82616 0.62367 0.60441 0.0
C361 C 0.85219 0.66724 0.66107 0.0
C362 C 0.93431 0.79787 0.8211 0.0
C363 C 0.90364 0.75095 0.76795 0.0
H364 H 0.86439 0.54905 0.49741 0.0
H365 H 0.90954 0.63414 0.57296 0.0
H366 H 0.79971 0.70797 0.64056 0.0
H367 H 0.90973 0.88291 0.92843 0.0
H368 H 0.85652 0.80103 0.84899 0.0
C369 C 0.5476 0.33809 0.569 0.0
C370 C 0.55918 0.29698 0.5396 0.0
C371 C 0.50255 0.32121 0.61501 0.0
C372 C 0.41768 0.19904 0.73278 0.0
H373 H 0.34116 0.28681 0.77519 0.0
C374 C 0.28582 0.14564 0.97035 0.0
C375 C 0.22955 0.14075 0.96572 0.0
C376 C 0.32756 0.17352 0.92127 0.0
C377 C 0.3618 0.26145 0.76415 0.0
H378 H 0.52987 0.20509 0.53419 0.0
H379 H 0.44882 0.17481 0.60994 0.0
H380 H 0.40211 0.31181 0.67788 0.0
H381 H 0.17905 0.17242 0.91135 0.0
H382 H 0.25094 0.22014 0.82536 0.0
H383 H 0.37626 0.14754 0.81728 0.0
C384 C 0.47557 0.22073 0.5992 0.0
C385 C 0.39749 0.27621 0.70817 0.0
C386 C 0.52111 0.23783 0.55376 0.0
C387 C 0.22089 0.17363 0.91634 0.0
C388 C 0.26243 0.20091 0.86623 0.0
C389 C 0.38201 0.18424 0.7883 0.0
C390 C 0.4673 0.26239 0.63336 0.0
C391 C 0.42632 0.24532 0.69136 0.0
C392 C 0.31486 0.19792 0.86555 0.0
C393 C 0.35369 0.21536 0.80569 0.0
H394 H 0.57753 0.38426 0.56174 0.0
H395 H 0.49872 0.35515 0.63988 0.0
H396 H 0.43941 0.17443 0.72331 0.0
H397 H 0.29509 0.12201 1.00808 0.0
H398 H 0.36849 0.17269 0.92522 0.0
C399 C 0.58407 0.43645 0.27092 0.0
C400 C 0.64472 0.46946 0.2889 0.0
C401 C 0.55896 0.45731 0.22312 0.0
C402 C 0.61089 0.55968 0.07916 0.0
H403 H 0.44589 0.51597 0.05925 0.0
C404 C 0.51744 0.64466 0.86517 0.0
C405 C 0.45764 0.6089 0.84451 0.0
C406 C 0.54237 0.6275 0.9173 0.0
C407 C 0.49209 0.52806 0.06333 0.0
H408 H 0.72431 0.55327 0.27709 0.0
H409 H 0.68102 0.58947 0.19575 0.0
H410 H 0.48108 0.4903 0.15962 0.0
H411 H 0.37944 0.52448 0.85789 0.0
H412 H 0.42334 0.49329 0.94487 0.0
H413 H 0.62182 0.59724 0.98273 0.0
C414 C 0.65289 0.54667 0.2159 0.0
C415 C 0.51239 0.51337 0.12149 0.0
C416 C 0.67754 0.52625 0.26383 0.0
C417 C 0.42572 0.55312 0.87224 0.0
C418 C 0.45058 0.53577 0.92352 0.0
C419 C 0.59066 0.57461 1.02115 0.0
C420 C 0.59419 0.51121 0.19152 0.0
C421 C 0.57218 0.52883 0.13057 0.0
C422 C 0.50826 0.57382 0.94949 0.0
C423 C 0.53073 0.55863 1.01185 0.0
H424 H 0.55732 0.39263 0.28913 0.0
H425 H 0.51305 0.42899 0.20749 0.0
H426 H 0.6569 0.57108 0.08264 0.0
H427 H 0.5434 0.68796 0.84536 0.0
H428 H 0.5871 0.65809 0.93515 0.0
C429 C 0.51572 0.90264 0.84058 0.0
C430 C 0.4535 0.86827 0.83549 0.0
C431 C 0.54357 0.95267 0.88263 0.0
C432 C 0.51224 0.04699 0.9969 0.0
H433 H 0.63839 0.05088 0.10654 0.0
C434 C 0.58573 0.1772 0.24711 0.0
C435 C 0.64693 0.20864 0.26284 0.0
C436 C 0.56267 0.13472 0.19557 0.0
C437 C 0.60372 0.05134 0.0763 0.0
H438 H 0.37229 0.86248 0.86654 0.0
H439 H 0.41964 0.94745 0.93916 0.0
H440 H 0.60422 0.99136 1.00587 0.0
H441 H 0.73098 0.21724 0.23912 0.0
H442 H 0.69161 0.14377 0.15135 0.0
H443 H 0.51218 0.10751 0.06688 0.0
C444 C 0.44778 0.93736 0.91073 0.0
C445 C 0.58418 1.01709 1.01774 0.0
C446 C 0.42031 0.88804 0.86883 0.0
C447 C 0.68341 0.19292 0.22954 0.0
C448 C 0.66062 0.15081 0.1783 0.0
C449 C 0.53228 0.08183 1.055 0.0
C450 C 0.50981 0.96917 0.92098 0.0
C451 C 0.53713 1.01319 0.9776 0.0
C452 C 0.6002 0.12259 0.15826 0.0
C453 C 0.57789 0.08412 0.09645 0.0
H454 H 0.54272 0.88833 0.81659 0.0
H455 H 0.59145 0.97623 0.88821 0.0
H456 H 0.4768 0.04648 0.96714 0.0
H457 H 0.55638 0.18877 0.27059 0.0
H458 H 0.51564 0.11315 0.18328 0.0
C459 C 0.20781 0.6598 0.88405 0.0
C460 C 0.23243 0.62664 0.86223 0.0
C461 C 0.15937 0.6358 0.92597 0.0
C462 C 1.04262 0.49674 1.00155 0.0
H463 H 0.05971 0.59994 0.14683 0.0
C464 C 0.88512 0.40893 0.22255 0.0
C465 C 0.86342 0.4442 0.24582 0.0
C466 C 0.93346 0.43151 0.18038 0.0
C467 C 0.05363 0.57043 0.10648 0.0
H468 H 0.22373 0.54138 0.86618 0.0
H469 H 0.13828 0.49873 0.93708 0.0
H470 H 0.13011 0.63644 0.05831 0.0
H471 H 0.87654 0.53125 0.24362 0.0
H472 H 0.96112 0.57111 0.172 0.0
H473 H 0.96594 0.43079 1.04953 0.0
C474 C 0.15581 0.54331 0.92142 0.0
C475 C 0.09415 0.59157 1.05516 0.0
C476 C 0.20443 0.5675 0.87962 0.0
C477 C 0.89362 0.50348 0.22897 0.0
C478 C 0.94189 0.52614 0.18688 0.0
C479 C 1.00195 0.47561 1.0528 0.0
C480 C 0.1342 0.57785 0.94783 0.0
C481 C 0.08933 0.5552 1.00159 0.0
C482 C 0.96119 0.48999 0.15956 0.0
C483 C 1.00661 0.51206 0.10627 0.0
H484 H 0.22954 0.70601 0.87374 0.0
H485 H 0.14357 0.6637 0.94389 0.0
H486 H 1.03679 0.46729 0.96122 0.0
H487 H 0.86158 0.36261 0.23244 0.0
H488 H 0.94734 0.40227 0.16177 0.0
loop_
_geom_bond_atom_site_label_1
_geom_bond_atom_site_label_2
_geom_bond_distance
_geom_bond_site_symmetry_2
_ccdc_geom_bond_type
Co0 N1 2.034 1_455 S
Co0 O15 2.262 . S
Co0 O19 1.958 1_455 S
Co0 O23 1.950 1_445 S
Co0 O24 2.057 . S
N1 Co0 2.034 1_655 S
N1 C2 1.366 . S
N1 C4 1.332 1_645 S
C2 N1 1.366 . S
C2 C5 1.377 . S
C2 H34 0.931 . S
N3 C4 1.346 1_655 S
N3 C5 1.337 1_565 S
C4 N1 1.332 1_465 S
C4 N3 1.346 1_455 S
C4 C38 1.361 . S
C5 C2 1.377 . S
C5 N3 1.337 1_545 S
C5 H41 0.930 . S
Co6 N7 2.034 1_655 S
Co6 O20 1.950 1_645 S
Co6 O21 2.262 1_545 S
Co6 O22 1.958 1_655 S
Co6 O26 2.057 1_545 S
N7 Co6 2.034 1_455 S
N7 C10 1.366 . S
N7 C11 1.332 1_445 S
N8 C9 1.337 1_565 S
N8 C11 1.346 1_455 S
C9 N8 1.337 1_545 S
C9 C10 1.377 . S
C9 H42 0.930 . S
C10 N7 1.366 . S
C10 C9 1.377 . S
C10 H14 0.931 . S
C11 N7 1.332 1_665 S
C11 N8 1.346 1_655 S
C11 C28 1.361 . S
Co12 O15 2.097 1_554 S
Co12 O16 2.065 1_545 S
Co12 O17 2.065 1_444 S
Co12 O18 2.042 1_454 S
Co12 O21 2.097 1_445 S
Co12 O25 2.042 . S
C13 O21 1.253 . S
C13 O26 1.263 . S
H14 C10 0.931 . S
O15 Co0 2.262 . S
O15 Co12 2.097 1_556 S
O15 C39 1.253 . S
O16 Co12 2.065 1_565 S
O16 C32 1.221 . S
O17 Co12 2.065 1_666 S
O17 C27 1.221 . S
O18 Co12 2.042 1_656 S
O18 C33 1.237 . S
O19 Co0 1.958 1_655 S
O19 C33 1.278 . S
O20 Co6 1.950 1_465 S
O20 C32 1.277 . S
O21 Co6 2.262 1_565 S
O21 Co12 2.097 1_665 S
O21 C13 1.253 . S
O22 Co6 1.958 1_455 S
O22 C40 1.278 . S
O23 Co0 1.950 1_665 S
O23 C27 1.277 . S
O24 Co0 2.057 . S
O24 C39 1.263 . S
O25 Co12 2.042 . S
O25 C40 1.237 . S
O26 Co6 2.057 1_565 S
O26 C13 1.263 . S
C27 O17 1.221 . S
C27 O23 1.277 . S
C28 C11 1.361 . S
C28 H29 0.960 . S
C28 H30 0.961 . S
C28 H31 0.961 . S
H29 C28 0.960 . S
H30 C28 0.961 . S
H31 C28 0.961 . S
C32 O16 1.221 . S
C32 O20 1.277 . S
C33 O18 1.237 . S
C33 O19 1.278 . S
H34 C2 0.931 . S
H35 C38 0.961 . S
H36 C38 0.961 . S
H37 C38 0.960 . S
C38 C4 1.361 . S
C38 H35 0.961 . S
C38 H36 0.961 . S
C38 H37 0.960 . S
C39 O15 1.253 . S
C39 O24 1.263 . S
C40 O22 1.278 . S
C40 O25 1.237 . S
H41 C5 0.930 . S
H42 C9 0.930 . S
Co43 N44 2.034 . S
Co43 O58 2.262 . S
Co43 O62 1.958 . S
Co43 O66 1.950 . S
Co43 O67 2.057 . S
N44 Co43 2.034 . S
N44 C45 1.366 . S
N44 C47 1.332 . S
C45 N44 1.366 . S
C45 C48 1.377 1_554 S
C45 H77 0.931 . S
N46 C47 1.346 1_556 S
N46 C48 1.337 . S
C47 N44 1.332 . S
C47 N46 1.346 1_554 S
C47 C81 1.361 . S
C48 C45 1.377 1_556 S
C48 N46 1.337 . S
C48 H84 0.930 . S
Co49 N50 2.034 . S
Co49 O63 1.950 . S
Co49 O64 2.262 . S
Co49 O65 1.958 . S
Co49 O69 2.057 . S
N50 Co49 2.034 . S
N50 C53 1.366 . S
N50 C54 1.332 . S
N51 C52 1.337 . S
N51 C54 1.346 . S
C52 N51 1.337 . S
C52 C53 1.377 . S
C52 H85 0.930 . S
C53 N50 1.366 . S
C53 C52 1.377 . S
C53 H57 0.931 . S
C54 N50 1.332 . S
C54 N51 1.346 . S
C54 C71 1.361 . S
Co55 O58 2.097 . S
Co55 O59 2.065 . S
Co55 O60 2.065 . S
Co55 O61 2.042 . S
Co55 O64 2.097 . S
Co55 O68 2.042 . S
C56 O64 1.253 . S
C56 O69 1.263 . S
H57 C53 0.931 . S
O58 Co43 2.262 . S
O58 Co55 2.097 . S
O58 C82 1.253 . S
O59 Co55 2.065 . S
O59 C75 1.221 . S
O60 Co55 2.065 . S
O60 C70 1.221 . S
O61 Co55 2.042 . S
O61 C76 1.237 . S
O62 Co43 1.958 . S
O62 C76 1.278 . S
O63 Co49 1.950 . S
O63 C75 1.277 . S
O64 Co49 2.262 . S
O64 Co55 2.097 . S
O64 C56 1.253 . S
O65 Co49 1.958 . S
O65 C83 1.278 . S
O66 Co43 1.950 . S
O66 C70 1.277 . S
O67 Co43 2.057 . S
O67 C82 1.263 . S
O68 Co55 2.042 . S
O68 C83 1.237 . S
O69 Co49 2.057 . S
O69 C56 1.263 . S
C70 O60 1.221 . S
C70 O66 1.277 . S
C71 C54 1.361 . S
C71 H72 0.960 . S
C71 H73 0.961 . S
C71 H74 0.961 . S
H72 C71 0.960 . S
H73 C71 0.961 . S
H74 C71 0.961 . S
C75 O59 1.221 . S
C75 O63 1.277 . S
C76 O61 1.237 . S
C76 O62 1.278 . S
H77 C45 0.931 . S
H78 C81 0.961 . S
H79 C81 0.961 . S
H80 C81 0.960 . S
C81 C47 1.361 . S
C81 H78 0.961 . S
C81 H79 0.961 . S
C81 H80 0.960 . S
C82 O58 1.253 . S
C82 O67 1.263 . S
C83 O65 1.278 . S
C83 O68 1.237 . S
H84 C48 0.930 . S
H85 C52 0.930 . S
Co86 N87 2.034 . S
Co86 O101 2.262 . S
Co86 O105 1.958 . S
Co86 O109 1.950 . S
Co86 O110 2.057 . S
N87 Co86 2.034 . S
N87 C88 1.366 . S
N87 C90 1.332 . S
C88 N87 1.366 . S
C88 C91 1.377 . S
C88 H120 0.931 . S
N89 C90 1.346 . S
N89 C91 1.337 . S
C90 N87 1.332 . S
C90 N89 1.346 . S
C90 C124 1.361 . S
C91 C88 1.377 . S
C91 N89 1.337 . S
C91 H127 0.930 . S
Co92 N93 2.034 . S
Co92 O106 1.950 . S
Co92 O107 2.262 . S
Co92 O108 1.958 . S
Co92 O112 2.057 . S
N93 Co92 2.034 . S
N93 C96 1.366 . S
N93 C97 1.332 . S
N94 C95 1.337 . S
N94 C97 1.346 1_554 S
C95 N94 1.337 . S
C95 C96 1.377 1_554 S
C95 H128 0.930 . S
C96 N93 1.366 . S
C96 C95 1.377 1_556 S
C96 H100 0.931 . S
C97 N93 1.332 . S
C97 N94 1.346 1_556 S
C97 C114 1.361 . S
Co98 O101 2.097 . S
Co98 O102 2.065 . S
Co98 O103 2.065 . S
Co98 O104 2.042 . S
Co98 O107 2.097 . S
Co98 O111 2.042 . S
C99 O107 1.253 . S
C99 O112 1.263 . S
H100 C96 0.931 . S
O101 Co86 2.262 . S
O101 Co98 2.097 . S
O101 C125 1.253 . S
O102 Co98 2.065 . S
O102 C118 1.221 . S
O103 Co98 2.065 . S
O103 C113 1.221 . S
O104 Co98 2.042 . S
O104 C119 1.237 . S
O105 Co86 1.958 . S
O105 C119 1.278 . S
O106 Co92 1.950 . S
O106 C118 1.277 . S
O107 Co92 2.262 . S
O107 Co98 2.097 . S
O107 C99 1.253 . S
O108 Co92 1.958 . S
O108 C126 1.278 . S
O109 Co86 1.950 . S
O109 C113 1.277 . S
O110 Co86 2.057 . S
O110 C125 1.263 . S
O111 Co98 2.042 . S
O111 C126 1.237 . S
O112 Co92 2.057 . S
O112 C99 1.263 . S
C113 O103 1.221 . S
C113 O109 1.277 . S
C114 C97 1.361 . S
C114 H115 0.960 . S
C114 H116 0.961 . S
C114 H117 0.961 . S
H115 C114 0.960 . S
H116 C114 0.961 . S
H117 C114 0.961 . S
C118 O102 1.221 . S
C118 O106 1.277 . S
C119 O104 1.237 . S
C119 O105 1.278 . S
H120 C88 0.931 . S
H121 C124 0.961 . S
H122 C124 0.961 . S
H123 C124 0.960 . S
C124 C90 1.361 . S
C124 H121 0.961 . S
C124 H122 0.961 . S
C124 H123 0.960 . S
C125 O101 1.253 . S
C125 O110 1.263 . S
C126 O108 1.278 . S
C126 O111 1.237 . S
H127 C91 0.930 . S
H128 C95 0.930 . S
C129 C130 1.349 1_655 S
C129 C131 1.327 . S
C129 H154 0.950 . S
C130 C129 1.349 1_455 S
C130 C146 1.349 1_565 S
C131 C129 1.327 . S
C131 C150 1.429 1_655 S
C131 H155 0.950 . S
C132 C149 1.574 . S
C132 C151 1.368 1_545 S
C132 H156 0.949 . S
H133 C137 0.949 . S
C134 C135 1.349 1_445 S
C134 C136 1.327 . S
C134 H157 0.950 . S
C135 C134 1.349 1_665 S
C135 C147 1.349 . S
C136 C134 1.327 . S
C136 C152 1.429 1_445 S
C136 H158 0.950 . S
C137 H133 0.949 . S
C137 C145 1.574 . S
C137 C153 1.368 . S
H138 C146 0.950 . S
H139 C144 0.950 . S
H140 C145 0.949 . S
H141 C147 0.950 . S
H142 C148 0.950 . S
H143 C149 0.949 . S
C144 H139 0.950 . S
C144 C146 1.327 . S
C144 C150 1.429 1_545 S
C145 C137 1.574 . S
C145 H140 0.949 . S
C145 C151 1.368 1_655 S
C146 C130 1.349 1_545 S
C146 H138 0.950 . S
C146 C144 1.327 . S
C147 C135 1.349 . S
C147 H141 0.950 . S
C147 C148 1.327 . S
C148 H142 0.950 . S
C148 C147 1.327 . S
C148 C152 1.429 . S
C149 C132 1.574 . S
C149 H143 0.949 . S
C149 C153 1.368 1_445 S
C150 C131 1.429 1_455 S
C150 C144 1.429 1_565 S
C150 C151 1.523 . S
C151 C132 1.368 1_565 S
C151 C145 1.368 1_455 S
C151 C150 1.523 . S
C152 C136 1.429 1_665 S
C152 C148 1.429 . S
C152 C153 1.523 . S
C153 C137 1.368 . S
C153 C149 1.368 1_665 S
C153 C152 1.523 . S
H154 C129 0.950 . S
H155 C131 0.950 . S
H156 C132 0.949 . S
H157 C134 0.950 . S
H158 C136 0.950 . S
C159 C160 1.349 . S
C159 C161 1.327 . S
C159 H184 0.950 . S
C160 C159 1.349 . S
C160 C176 1.349 . S
C161 C159 1.327 . S
C161 C180 1.429 . S
C161 H185 0.950 . S
C162 C179 1.574 . S
C162 C181 1.368 . S
C162 H186 0.949 . S
H163 C167 0.949 . S
C164 C165 1.349 . S
C164 C166 1.327 1_554 S
C164 H187 0.950 . S
C165 C164 1.349 . S
C165 C177 1.349 . S
C166 C164 1.327 1_556 S
C166 C182 1.429 . S
C166 H188 0.950 . S
C167 H163 0.949 . S
C167 C175 1.574 . S
C167 C183 1.368 . S
H168 C176 0.950 . S
H169 C174 0.950 . S
H170 C175 0.949 . S
H171 C177 0.950 . S
H172 C178 0.950 . S
H173 C179 0.949 . S
C174 H169 0.950 . S
C174 C176 1.327 . S
C174 C180 1.429 . S
C175 C167 1.574 . S
C175 H170 0.949 . S
C175 C181 1.368 . S
C176 C160 1.349 . S
C176 H168 0.950 . S
C176 C174 1.327 . S
C177 C165 1.349 . S
C177 H171 0.950 . S
C177 C178 1.327 1_554 S
C178 H172 0.950 . S
C178 C177 1.327 1_556 S
C178 C182 1.429 . S
C179 C162 1.574 . S
C179 H173 0.949 . S
C179 C183 1.368 . S
C180 C161 1.429 . S
C180 C174 1.429 . S
C180 C181 1.523 . S
C181 C162 1.368 . S
C181 C175 1.368 . S
C181 C180 1.523 . S
C182 C166 1.429 . S
C182 C178 1.429 . S
C182 C183 1.523 . S
C183 C167 1.368 . S
C183 C179 1.368 . S
C183 C182 1.523 . S
H184 C159 0.950 . S
H185 C161 0.950 . S
H186 C162 0.949 . S
H187 C164 0.950 . S
H188 C166 0.950 . S
C189 C190 1.349 . S
C189 C191 1.327 1_556 S
C189 H214 0.950 . S
C190 C189 1.349 . S
C190 C206 1.349 . S
C191 C189 1.327 1_554 S
C191 C210 1.429 . S
C191 H215 0.950 . S
C192 C209 1.574 . S
C192 C211 1.368 . S
C192 H216 0.949 . S
H193 C197 0.949 . S
C194 C195 1.349 . S
C194 C196 1.327 . S
C194 H217 0.950 . S
C195 C194 1.349 . S
C195 C207 1.349 . S
C196 C194 1.327 . S
C196 C212 1.429 . S
C196 H218 0.950 . S
C197 H193 0.949 . S
C197 C205 1.574 . S
C197 C213 1.368 . S
H198 C206 0.950 . S
H199 C204 0.950 . S
H200 C205 0.949 . S
H201 C207 0.950 . S
H202 C208 0.950 . S
H203 C209 0.949 . S
C204 H199 0.950 . S
C204 C206 1.327 1_554 S
C204 C210 1.429 . S
C205 C197 1.574 . S
C205 H200 0.949 . S
C205 C211 1.368 . S
C206 C190 1.349 . S
C206 H198 0.950 . S
C206 C204 1.327 1_556 S
C207 C195 1.349 . S
C207 H201 0.950 . S
C207 C208 1.327 . S
C208 H202 0.950 . S
C208 C207 1.327 . S
C208 C212 1.429 . S
C209 C192 1.574 . S
C209 H203 0.949 . S
C209 C213 1.368 . S
C210 C191 1.429 . S
C210 C204 1.429 . S
C210 C211 1.523 . S
C211 C192 1.368 . S
C211 C205 1.368 . S
C211 C210 1.523 . S
C212 C196 1.429 . S
C212 C208 1.429 . S
C212 C213 1.523 . S
C213 C197 1.368 . S
C213 C209 1.368 . S
C213 C212 1.523 . S
H214 C189 0.950 . S
H215 C191 0.950 . S
H216 C192 0.949 . S
H217 C194 0.950 . S
H218 C196 0.950 . S
C219 C220 1.349 . S
C219 C221 1.327 . S
C219 H244 0.950 . S
C220 C219 1.349 . S
C220 C236 1.349 . S
C221 C219 1.327 . S
C221 C240 1.429 . S
C221 H245 0.950 . S
C222 C239 1.574 . S
C222 C241 1.368 . S
C222 H246 0.949 . S
H223 C227 0.949 . S
C224 C225 1.349 . S
C224 C226 1.327 . S
C224 H247 0.950 . S
C225 C224 1.349 . S
C225 C237 1.349 . S
C226 C224 1.327 . S
C226 C242 1.429 . S
C226 H248 0.950 . S
C227 H223 0.949 . S
C227 C235 1.574 . S
C227 C243 1.368 . S
H228 C236 0.950 . S
H229 C234 0.950 . S
H230 C235 0.949 . S
H231 C237 0.950 . S
H232 C238 0.950 . S
H233 C239 0.949 . S
C234 H229 0.950 . S
C234 C236 1.327 . S
C234 C240 1.429 . S
C235 C227 1.574 . S
C235 H230 0.949 . S
C235 C241 1.368 . S
C236 C220 1.349 . S
C236 H228 0.950 . S
C236 C234 1.327 . S
C237 C225 1.349 . S
C237 H231 0.950 . S
C237 C238 1.327 . S
C238 H232 0.950 . S
C238 C237 1.327 . S
C238 C242 1.429 . S
C239 C222 1.574 . S
C239 H233 0.949 . S
C239 C243 1.368 . S
C240 C221 1.429 . S
C240 C234 1.429 . S
C240 C241 1.523 . S
C241 C222 1.368 . S
C241 C235 1.368 . S
C241 C240 1.523 . S
C242 C226 1.429 . S
C242 C238 1.429 . S
C242 C243 1.523 . S
C243 C227 1.368 . S
C243 C239 1.368 . S
C243 C242 1.523 . S
H244 C219 0.950 . S
H245 C221 0.950 . S
H246 C222 0.949 . S
H247 C224 0.950 . S
H248 C226 0.950 . S
C249 C250 1.349 . S
C249 C251 1.327 . S
C249 H274 0.950 . S
C250 C249 1.349 . S
C250 C266 1.349 . S
C251 C249 1.327 . S
C251 C270 1.429 . S
C251 H275 0.950 . S
C252 C269 1.574 . S
C252 C271 1.368 . S
C252 H276 0.949 . S
H253 C257 0.949 . S
C254 C255 1.349 . S
C254 C256 1.327 . S
C254 H277 0.950 . S
C255 C254 1.349 . S
C255 C267 1.349 . S
C256 C254 1.327 . S
C256 C272 1.429 . S
C256 H278 0.950 . S
C257 H253 0.949 . S
C257 C265 1.574 . S
C257 C273 1.368 . S
H258 C266 0.950 . S
H259 C264 0.950 . S
H260 C265 0.949 . S
H261 C267 0.950 . S
H262 C268 0.950 . S
H263 C269 0.949 . S
C264 H259 0.950 . S
C264 C266 1.327 . S
C264 C270 1.429 . S
C265 C257 1.574 . S
C265 H260 0.949 . S
C265 C271 1.368 . S
C266 C250 1.349 . S
C266 H258 0.950 . S
C266 C264 1.327 . S
C267 C255 1.349 . S
C267 H261 0.950 . S
C267 C268 1.327 . S
C268 H262 0.950 . S
C268 C267 1.327 . S
C268 C272 1.429 . S
C269 C252 1.574 . S
C269 H263 0.949 . S
C269 C273 1.368 . S
C270 C251 1.429 . S
C270 C264 1.429 . S
C270 C271 1.523 . S
C271 C252 1.368 . S
C271 C265 1.368 . S
C271 C270 1.523 . S
C272 C256 1.429 . S
C272 C268 1.429 . S
C272 C273 1.523 . S
C273 C257 1.368 . S
C273 C269 1.368 . S
C273 C272 1.523 . S
H274 C249 0.950 . S
H275 C251 0.950 . S
H276 C252 0.949 . S
H277 C254 0.950 . S
H278 C256 0.950 . S
C279 C280 1.349 . S
C279 C281 1.327 . S
C279 H304 0.950 . S
C280 C279 1.349 . S
C280 C296 1.349 . S
C281 C279 1.327 . S
C281 C300 1.429 . S
C281 H305 0.950 . S
C282 C299 1.574 . S
C282 C301 1.368 . S
C282 H306 0.949 . S
H283 C287 0.949 . S
C284 C285 1.349 . S
C284 C286 1.327 . S
C284 H307 0.950 . S
C285 C284 1.349 . S
C285 C297 1.349 . S
C286 C284 1.327 . S
C286 C302 1.429 . S
C286 H308 0.950 . S
C287 H283 0.949 . S
C287 C295 1.574 . S
C287 C303 1.368 . S
H288 C296 0.950 . S
H289 C294 0.950 . S
H290 C295 0.949 . S
H291 C297 0.950 . S
H292 C298 0.950 . S
H293 C299 0.949 . S
C294 H289 0.950 . S
C294 C296 1.327 . S
C294 C300 1.429 . S
C295 C287 1.574 . S
C295 H290 0.949 . S
C295 C301 1.368 . S
C296 C280 1.349 . S
C296 H288 0.950 . S
C296 C294 1.327 . S
C297 C285 1.349 . S
C297 H291 0.950 . S
C297 C298 1.327 . S
C298 H292 0.950 . S
C298 C297 1.327 . S
C298 C302 1.429 . S
C299 C282 1.574 . S
C299 H293 0.949 . S
C299 C303 1.368 . S
C300 C281 1.429 . S
C300 C294 1.429 . S
C300 C301 1.523 . S
C301 C282 1.368 . S
C301 C295 1.368 . S
C301 C300 1.523 . S
C302 C286 1.429 . S
C302 C298 1.429 . S
C302 C303 1.523 . S
C303 C287 1.368 . S
C303 C299 1.368 . S
C303 C302 1.523 . S
H304 C279 0.950 . S
H305 C281 0.950 . S
H306 C282 0.949 . S
H307 C284 0.950 . S
H308 C286 0.950 . S
C309 C310 1.349 . S
C309 C311 1.327 . S
C309 H334 0.950 . S
C310 C309 1.349 . S
C310 C326 1.349 . S
C311 C309 1.327 . S
C311 C330 1.429 . S
C311 H335 0.950 . S
C312 C329 1.574 . S
C312 C331 1.368 . S
C312 H336 0.949 . S
H313 C317 0.949 . S
C314 C315 1.349 . S
C314 C316 1.327 . S
C314 H337 0.950 . S
C315 C314 1.349 . S
C315 C327 1.349 . S
C316 C314 1.327 . S
C316 C332 1.429 . S
C316 H338 0.950 . S
C317 H313 0.949 . S
C317 C325 1.574 . S
C317 C333 1.368 . S
H318 C326 0.950 . S
H319 C324 0.950 . S
H320 C325 0.949 . S
H321 C327 0.950 . S
H322 C328 0.950 . S
H323 C329 0.949 . S
C324 H319 0.950 . S
C324 C326 1.327 . S
C324 C330 1.429 . S
C325 C317 1.574 . S
C325 H320 0.949 . S
C325 C331 1.368 . S
C326 C310 1.349 . S
C326 H318 0.950 . S
C326 C324 1.327 . S
C327 C315 1.349 . S
C327 H321 0.950 . S
C327 C328 1.327 . S
C328 H322 0.950 . S
C328 C327 1.327 . S
C328 C332 1.429 . S
C329 C312 1.574 . S
C329 H323 0.949 . S
C329 C333 1.368 . S
C330 C311 1.429 . S
C330 C324 1.429 . S
C330 C331 1.523 . S
C331 C312 1.368 . S
C331 C325 1.368 . S
C331 C330 1.523 . S
C332 C316 1.429 . S
C332 C328 1.429 . S
C332 C333 1.523 . S
C333 C317 1.368 . S
C333 C329 1.368 . S
C333 C332 1.523 . S
H334 C309 0.950 . S
H335 C311 0.950 . S
H336 C312 0.949 . S
H337 C314 0.950 . S
H338 C316 0.950 . S
C339 C340 1.349 . S
C339 C341 1.327 . S
C339 H364 0.950 . S
C340 C339 1.349 . S
C340 C356 1.349 . S
C341 C339 1.327 . S
C341 C360 1.429 . S
C341 H365 0.950 . S
C342 C359 1.574 . S
C342 C361 1.368 . S
C342 H366 0.949 . S
H343 C347 0.949 . S
C344 C345 1.349 . S
C344 C346 1.327 . S
C344 H367 0.950 . S
C345 C344 1.349 . S
C345 C357 1.349 . S
C346 C344 1.327 . S
C346 C362 1.429 . S
C346 H368 0.950 . S
C347 H343 0.949 . S
C347 C355 1.574 . S
C347 C363 1.368 . S
H348 C356 0.950 . S
H349 C354 0.950 . S
H350 C355 0.949 . S
H351 C357 0.950 . S
H352 C358 0.950 . S
H353 C359 0.949 . S
C354 H349 0.950 . S
C354 C356 1.327 . S
C354 C360 1.429 . S
C355 C347 1.574 . S
C355 H350 0.949 . S
C355 C361 1.368 . S
C356 C340 1.349 . S
C356 H348 0.950 . S
C356 C354 1.327 . S
C357 C345 1.349 . S
C357 H351 0.950 . S
C357 C358 1.327 . S
C358 H352 0.950 . S
C358 C357 1.327 . S
C358 C362 1.429 . S
C359 C342 1.574 . S
C359 H353 0.949 . S
C359 C363 1.368 . S
C360 C341 1.429 . S
C360 C354 1.429 . S
C360 C361 1.523 . S
C361 C342 1.368 . S
C361 C355 1.368 . S
C361 C360 1.523 . S
C362 C346 1.429 . S
C362 C358 1.429 . S
C362 C363 1.523 . S
C363 C347 1.368 . S
C363 C359 1.368 . S
C363 C362 1.523 . S
H364 C339 0.950 . S
H365 C341 0.950 . S
H366 C342 0.949 . S
H367 C344 0.950 . S
H368 C346 0.950 . S
C369 C370 1.349 . S
C369 C371 1.327 . S
C369 H394 0.950 . S
C370 C369 1.349 . S
C370 C386 1.349 . S
C371 C369 1.327 . S
C371 C390 1.429 . S
C371 H395 0.950 . S
C372 C389 1.574 . S
C372 C391 1.368 . S
C372 H396 0.949 . S
H373 C377 0.949 . S
C374 C375 1.349 . S
C374 C376 1.327 . S
C374 H397 0.950 . S
C375 C374 1.349 . S
C375 C387 1.349 . S
C376 C374 1.327 . S
C376 C392 1.429 . S
C376 H398 0.950 . S
C377 H373 0.949 . S
C377 C385 1.574 . S
C377 C393 1.368 . S
H378 C386 0.950 . S
H379 C384 0.950 . S
H380 C385 0.949 . S
H381 C387 0.950 . S
H382 C388 0.950 . S
H383 C389 0.949 . S
C384 H379 0.950 . S
C384 C386 1.327 . S
C384 C390 1.429 . S
C385 C377 1.574 . S
C385 H380 0.949 . S
C385 C391 1.368 . S
C386 C370 1.349 . S
C386 H378 0.950 . S
C386 C384 1.327 . S
C387 C375 1.349 . S
C387 H381 0.950 . S
C387 C388 1.327 . S
C388 H382 0.950 . S
C388 C387 1.327 . S
C388 C392 1.429 . S
C389 C372 1.574 . S
C389 H383 0.949 . S
C389 C393 1.368 . S
C390 C371 1.429 . S
C390 C384 1.429 . S
C390 C391 1.523 . S
C391 C372 1.368 . S
C391 C385 1.368 . S
C391 C390 1.523 . S
C392 C376 1.429 . S
C392 C388 1.429 . S
C392 C393 1.523 . S
C393 C377 1.368 . S
C393 C389 1.368 . S
C393 C392 1.523 . S
H394 C369 0.950 . S
H395 C371 0.950 . S
H396 C372 0.949 . S
H397 C374 0.950 . S
H398 C376 0.950 . S
C399 C400 1.349 . S
C399 C401 1.327 . S
C399 H424 0.950 . S
C400 C399 1.349 . S
C400 C416 1.349 . S
C401 C399 1.327 . S
C401 C420 1.429 . S
C401 H425 0.950 . S
C402 C419 1.574 1_554 S
C402 C421 1.368 . S
C402 H426 0.949 . S
H403 C407 0.949 . S
C404 C405 1.349 . S
C404 C406 1.327 . S
C404 H427 0.950 . S
C405 C404 1.349 . S
C405 C417 1.349 . S
C406 C404 1.327 . S
C406 C422 1.429 . S
C406 H428 0.950 . S
C407 H403 0.949 . S
C407 C415 1.574 1_556 S
C407 C423 1.368 . S
H408 C416 0.950 . S
H409 C414 0.950 . S
H410 C415 0.949 . S
H411 C417 0.950 . S
H412 C418 0.950 . S
H413 C419 0.949 . S
C414 H409 0.950 . S
C414 C416 1.327 . S
C414 C420 1.429 . S
C415 C407 1.574 1_554 S
C415 H410 0.949 . S
C415 C421 1.368 . S
C416 C400 1.349 . S
C416 H408 0.950 . S
C416 C414 1.327 . S
C417 C405 1.349 . S
C417 H411 0.950 . S
C417 C418 1.327 . S
C418 H412 0.950 . S
C418 C417 1.327 . S
C418 C422 1.429 . S
C419 C402 1.574 1_556 S
C419 H413 0.949 . S
C419 C423 1.368 . S
C420 C401 1.429 . S
C420 C414 1.429 . S
C420 C421 1.523 . S
C421 C402 1.368 . S
C421 C415 1.368 . S
C421 C420 1.523 . S
C422 C406 1.429 . S
C422 C418 1.429 . S
C422 C423 1.523 . S
C423 C407 1.368 . S
C423 C419 1.368 . S
C423 C422 1.523 . S
H424 C399 0.950 . S
H425 C401 0.950 . S
H426 C402 0.949 . S
H427 C404 0.950 . S
H428 C406 0.950 . S
C429 C430 1.349 . S
C429 C431 1.327 . S
C429 H454 0.950 . S
C430 C429 1.349 . S
C430 C446 1.349 . S
C431 C429 1.327 . S
C431 C450 1.429 . S
C431 H455 0.950 . S
C432 C449 1.574 . S
C432 C451 1.368 1_545 S
C432 H456 0.949 . S
H433 C437 0.949 . S
C434 C435 1.349 . S
C434 C436 1.327 . S
C434 H457 0.950 . S
C435 C434 1.349 . S
C435 C447 1.349 . S
C436 C434 1.327 . S
C436 C452 1.429 . S
C436 H458 0.950 . S
C437 H433 0.949 . S
C437 C445 1.574 . S
C437 C453 1.368 1_565 S
H438 C446 0.950 . S
H439 C444 0.950 . S
H440 C445 0.949 . S
H441 C447 0.950 . S
H442 C448 0.950 . S
H443 C449 0.949 . S
C444 H439 0.950 . S
C444 C446 1.327 . S
C444 C450 1.429 . S
C445 C437 1.574 . S
C445 H440 0.949 . S
C445 C451 1.368 1_554 S
C446 C430 1.349 . S
C446 H438 0.950 . S
C446 C444 1.327 . S
C447 C435 1.349 . S
C447 H441 0.950 . S
C447 C448 1.327 . S
C448 H442 0.950 . S
C448 C447 1.327 . S
C448 C452 1.429 . S
C449 C432 1.574 . S
C449 H443 0.949 . S
C449 C453 1.368 1_556 S
C450 C431 1.429 . S
C450 C444 1.429 . S
C450 C451 1.523 . S
C451 C432 1.368 1_565 S
C451 C445 1.368 1_556 S
C451 C450 1.523 . S
C452 C436 1.429 . S
C452 C448 1.429 . S
C452 C453 1.523 . S
C453 C437 1.368 1_545 S
C453 C449 1.368 1_554 S
C453 C452 1.523 . S
H454 C429 0.950 . S
H455 C431 0.950 . S
H456 C432 0.949 . S
H457 C434 0.950 . S
H458 C436 0.950 . S
C459 C460 1.349 . S
C459 C461 1.327 . S
C459 H484 0.950 . S
C460 C459 1.349 . S
C460 C476 1.349 . S
C461 C459 1.327 . S
C461 C480 1.429 . S
C461 H485 0.950 . S
C462 C479 1.574 . S
C462 C481 1.368 1_655 S
C462 H486 0.949 . S
H463 C467 0.949 . S
C464 C465 1.349 . S
C464 C466 1.327 . S
C464 H487 0.950 . S
C465 C464 1.349 . S
C465 C477 1.349 . S
C466 C464 1.327 . S
C466 C482 1.429 . S
C466 H488 0.950 . S
C467 H463 0.949 . S
C467 C475 1.574 . S
C467 C483 1.368 1_455 S
H468 C476 0.950 . S
H469 C474 0.950 . S
H470 C475 0.949 . S
H471 C477 0.950 . S
H472 C478 0.950 . S
H473 C479 0.949 . S
C474 H469 0.950 . S
C474 C476 1.327 . S
C474 C480 1.429 . S
C475 C467 1.574 . S
C475 H470 0.949 . S
C475 C481 1.368 1_554 S
C476 C460 1.349 . S
C476 H468 0.950 . S
C476 C474 1.327 . S
C477 C465 1.349 . S
C477 H471 0.950 . S
C477 C478 1.327 . S
C478 H472 0.950 . S
C478 C477 1.327 . S
C478 C482 1.429 . S
C479 C462 1.574 . S
C479 H473 0.949 . S
C479 C483 1.368 1_556 S
C480 C461 1.429 . S
C480 C474 1.429 . S
C480 C481 1.523 . S
C481 C462 1.368 1_455 S
C481 C475 1.368 1_556 S
C481 C480 1.523 . S
C482 C466 1.429 . S
C482 C478 1.429 . S
C482 C483 1.523 . S
C483 C467 1.368 1_655 S
C483 C479 1.368 1_554 S
C483 C482 1.523 . S
H484 C459 0.950 . S
H485 C461 0.950 . S
H486 C462 0.949 . S
H487 C464 0.950 . S
H488 C466 0.950 . S
C130 N3 2.135 1_455 S
C135 N8 2.135 1_655 S
C160 N51 2.135 . S
C165 N46 2.135 1_554 S
C190 N94 2.135 1_556 S
C195 N89 2.135 . S
C220 C119 2.291 . S
C225 C32 2.294 . S
C250 C113 2.295 . S
C255 C40 2.288 . S
C280 C125 2.240 . S
C285 C13 2.241 . S
C310 C75 2.295 . S
C315 C33 2.293 . S
C340 C83 2.291 . S
C345 C27 2.298 . S
C370 C56 2.240 . S
C375 C39 2.239 . S
C400 C76 2.291 . S
C405 C118 2.295 . S
C430 C126 2.291 . S
C435 C70 2.295 . S
C460 C99 2.240 . S
C465 C82 2.240 . S
