# Generated by pormake.
# Topology uov, (4)-cn, num edge types: 1
# Building blocks:
#     Node 0, Type 0, BuildingBlock: KUFVIS_clean_sbu_0, # of connection points: 4
#     Node 1, Type 0, BuildingBlock: KUFVIS_clean_sbu_0, # of connection points: 4
#     Node 2, Type 0, BuildingBlock: KUFVIS_clean_sbu_0, # of connection points: 4
#     Node 3, Type 0, BuildingBlock: KUFVIS_clean_sbu_0, # of connection points: 4
#     Node 4, Type 0, BuildingBlock: KUFVIS_clean_sbu_0, # of connection points: 4
#     Node 5, Type 0, BuildingBlock: KUFVIS_clean_sbu_0, # of connection points: 4
#     Node 6, Type 0, BuildingBlock: KUFVIS_clean_sbu_0, # of connection points: 4
#     Node 7, Type 0, BuildingBlock: KUFVIS_clean_sbu_0, # of connection points: 4
#     Edge 8, Type (0, 0), BuildingBlock: TEMPAE_clean_linker_10, # of connection points: 2
#     Edge 9, Type (0, 0), BuildingBlock: TEMPAE_clean_linker_10, # of connection points: 2
#     Edge 10, Type (0, 0), BuildingBlock: TEMPAE_clean_linker_10, # of connection points: 2
#     Edge 11, Type (0, 0), BuildingBlock: TEMPAE_clean_linker_10, # of connection points: 2
#     Edge 12, Type (0, 0), BuildingBlock: TEMPAE_clean_linker_10, # of connection points: 2
#     Edge 13, Type (0, 0), BuildingBlock: TEMPAE_clean_linker_10, # of connection points: 2
#     Edge 14, Type (0, 0), BuildingBlock: TEMPAE_clean_linker_10, # of connection points: 2
#     Edge 15, Type (0, 0), BuildingBlock: TEMPAE_clean_linker_10, # of connection points: 2
#     Edge 16, Type (0, 0), BuildingBlock: TEMPAE_clean_linker_10, # of connection points: 2
#     Edge 17, Type (0, 0), BuildingBlock: TEMPAE_clean_linker_10, # of connection points: 2
#     Edge 18, Type (0, 0), BuildingBlock: TEMPAE_clean_linker_10, # of connection points: 2
#     Edge 19, Type (0, 0), BuildingBlock: TEMPAE_clean_linker_10, # of connection points: 2
#     Edge 20, Type (0, 0), BuildingBlock: TEMPAE_clean_linker_10, # of connection points: 2
#     Edge 21, Type (0, 0), BuildingBlock: TEMPAE_clean_linker_10, # of connection points: 2
#     Edge 22, Type (0, 0), BuildingBlock: TEMPAE_clean_linker_10, # of connection points: 2
#     Edge 23, Type (0, 0), BuildingBlock: TEMPAE_clean_linker_10, # of connection points: 2
# Relax obj value: 0.168
# Max RMSD: 0.184
# Mean RMSD: 0.181
data_MOF--net-uov--node1-KUFVIS_clean_sbu_0--edge1-TEMPAE_clean_linker_10
_symmetry_space_group_name_H-M    P1
_symmetry_Int_Tables_number       1
_symmetry_cell_setting            triclinic
loop_
_symmetry_equiv_pos_as_xyz
'x, y, z'
_cell_length_a     29.501409
_cell_length_b     30.440663
_cell_length_c     43.005914
_cell_angle_alpha  90.001372
_cell_angle_beta   89.993077
_cell_angle_gamma 91.521199
loop_
_atom_site_label
_atom_site_type_symbol
_atom_site_fract_x
_atom_site_fract_y
_atom_site_fract_z
_atom_type_partial_charge
Mn0 Mn 0.05673 0.2588 0.59585 0.0
Mn1 Mn 0.9675 0.25227 0.64471 0.0
C2 C 0.98391 0.25549 0.57657 0.0
C3 C 0.11047 0.22134 0.56679 0.0
C4 C 0.0198 0.33742 0.63108 0.0
O5 O 0.08567 0.24156 0.63678 0.0
O6 O 0.02322 0.23375 0.66662 0.0
C7 C 0.963 0.15565 0.65288 0.0
N8 N 0.94287 0.19354 0.64429 0.0
C9 C 0.8738 0.15426 0.63076 0.0
C10 C 0.89369 0.11487 0.63965 0.0
C11 C 0.93852 0.11558 0.6507 0.0
C12 C 0.89981 0.19322 0.63353 0.0
H13 H 0.99752 0.15597 0.66123 0.0
C14 C 0.06608 0.23118 0.66231 0.0
O15 O 0.11716 0.2625 0.5741 0.0
O16 O 0.07376 0.20239 0.57715 0.0
N17 N 0.91138 0.26842 0.62608 0.0
C18 C 0.898 0.3089 0.61682 0.0
C19 C 0.85443 0.31362 0.60432 0.0
C20 C 0.82494 0.27681 0.60172 0.0
C21 C 0.83929 0.2356 0.61172 0.0
C22 C 0.88305 0.2329 0.62405 0.0
H23 H 0.9205 0.33732 0.61871 0.0
O24 O 0.01701 0.27042 0.55943 0.0
O25 O 0.9947 0.24227 0.6042 0.0
O26 O 0.0479 0.32179 0.61157 0.0
O27 O 0.98996 0.31386 0.64543 0.0
C28 C 0.81206 0.19702 0.60959 0.0
C29 C 0.8294 0.15632 0.61888 0.0
H30 H 0.87499 0.08386 0.63787 0.0
H31 H 0.95419 0.08528 0.65745 0.0
H32 H 0.84364 0.34553 0.59662 0.0
H33 H 0.79148 0.28052 0.59186 0.0
H34 H 0.77784 0.19823 0.60059 0.0
H35 H 0.80839 0.12677 0.6166 0.0
Mn36 Mn 0.25282 0.94382 0.40046 0.0
Mn37 Mn 0.29561 0.84207 0.39997 0.0
C38 C 0.21892 0.88881 0.42977 0.0
C39 C 0.25276 0.01432 0.42197 0.0
C40 C 0.23741 0.87784 0.34786 0.0
O41 O 0.3147 0.95347 0.38081 0.0
O42 O 0.34297 0.88583 0.38661 0.0
C43 C 0.36159 0.85435 0.45134 0.0
N44 N 0.32629 0.83134 0.43824 0.0
C45 C 0.32506 0.7791 0.48023 0.0
C46 C 0.36214 0.80161 0.49377 0.0
C47 C 0.38023 0.83962 0.47938 0.0
C48 C 0.30788 0.79539 0.45229 0.0
H49 H 0.37508 0.88392 0.4406 0.0
C50 C 0.34675 0.92635 0.37871 0.0
O51 O 0.23692 0.00673 0.39421 0.0
O52 O 0.27025 0.98149 0.4364 0.0
N53 N 0.25403 0.7962 0.41277 0.0
C54 C 0.21602 0.78047 0.39808 0.0
C55 C 0.19239 0.74376 0.41033 0.0
C56 C 0.20839 0.72325 0.43729 0.0
C57 C 0.24761 0.73995 0.45198 0.0
C58 C 0.26977 0.77659 0.43868 0.0
H59 H 0.20371 0.79588 0.37724 0.0
O60 O 0.19705 0.92385 0.42281 0.0
O61 O 0.26067 0.88753 0.42027 0.0
O62 O 0.22924 0.91489 0.36035 0.0
O63 O 0.26327 0.8496 0.36017 0.0
C64 C 0.26535 0.72196 0.47946 0.0
C65 C 0.30388 0.74166 0.49367 0.0
H66 H 0.37652 0.79042 0.51545 0.0
H67 H 0.4084 0.85759 0.48993 0.0
H68 H 0.16204 0.73116 0.39894 0.0
H69 H 0.19022 0.69478 0.44654 0.0
H70 H 0.24926 0.69333 0.49011 0.0
H71 H 0.31658 0.72812 0.51517 0.0
Mn72 Mn 0.93998 0.74349 0.59861 0.0
Mn73 Mn 0.02913 0.75103 0.64749 0.0
C74 C 0.01269 0.74803 0.57932 0.0
C75 C 0.88561 0.78028 0.56968 0.0
C76 C 0.97878 0.66507 0.63315 0.0
O77 O 0.91064 0.7597 0.63959 0.0
O78 O 0.97286 0.76771 0.66959 0.0
C79 C 0.03091 0.84752 0.6565 0.0
N80 N 0.05212 0.81036 0.64758 0.0
C81 C 0.12 0.85171 0.6342 0.0
C82 C 0.09898 0.89037 0.64344 0.0
C83 C 0.05421 0.88826 0.65459 0.0
C84 C 0.09514 0.81204 0.63673 0.0
H85 H 0.99642 0.84613 0.66492 0.0
C86 C 0.92995 0.76968 0.66527 0.0
O87 O 0.87963 0.73897 0.57681 0.0
O88 O 0.92193 0.79975 0.5802 0.0
N89 N 0.08581 0.73669 0.62882 0.0
C90 C 0.10048 0.69672 0.61945 0.0
C91 C 0.14423 0.69337 0.60695 0.0
C92 C 0.17257 0.73101 0.60447 0.0
C93 C 0.15693 0.77168 0.61462 0.0
C94 C 0.11308 0.773 0.62699 0.0
H95 H 0.07886 0.66767 0.62123 0.0
O96 O 0.97977 0.73282 0.56213 0.0
O97 O 0.00178 0.76099 0.60701 0.0
O98 O 0.95003 0.68054 0.61401 0.0
O99 O 0.00832 0.68892 0.64756 0.0
C100 C 0.18296 0.81103 0.61263 0.0
C101 C 0.16442 0.85107 0.62221 0.0
H102 H 0.11677 0.92189 0.64186 0.0
H103 H 0.03768 0.91798 0.66161 0.0
H104 H 0.15603 0.66187 0.59914 0.0
H105 H 0.20617 0.72835 0.59461 0.0
H106 H 0.2172 0.81092 0.60356 0.0
H107 H 0.18453 0.88121 0.62008 0.0
Mn108 Mn 0.74392 0.05468 0.40042 0.0
Mn109 Mn 0.70046 0.15614 0.39885 0.0
C110 C 0.77755 0.11052 0.42909 0.0
C111 C 0.74427 0.98463 0.42262 0.0
C112 C 0.75886 0.11958 0.34712 0.0
O113 O 0.68212 0.04428 0.38082 0.0
O114 O 0.65332 0.11179 0.38609 0.0
C115 C 0.6348 0.14465 0.45049 0.0
N116 N 0.66986 0.16759 0.43704 0.0
C117 C 0.67093 0.22083 0.4784 0.0
C118 C 0.63406 0.1984 0.49229 0.0
C119 C 0.61617 0.15993 0.4784 0.0
C120 C 0.68808 0.20399 0.45062 0.0
H121 H 0.62149 0.11474 0.44014 0.0
C122 C 0.64984 0.07111 0.37855 0.0
O123 O 0.76016 0.99174 0.39482 0.0
O124 O 0.72664 0.01767 0.43673 0.0
N125 N 0.74179 0.20256 0.41102 0.0
C126 C 0.77964 0.21817 0.39608 0.0
C127 C 0.8031 0.2553 0.40786 0.0
C128 C 0.78708 0.27633 0.4346 0.0
C129 C 0.74801 0.25975 0.44955 0.0
C130 C 0.72601 0.22269 0.43672 0.0
H131 H 0.79198 0.20234 0.37541 0.0
O132 O 0.79958 0.07541 0.42257 0.0
O133 O 0.73577 0.11136 0.41959 0.0
O134 O 0.76739 0.0829 0.36002 0.0
O135 O 0.73271 0.14785 0.35909 0.0
C136 C 0.73029 0.27827 0.47686 0.0
C137 C 0.69192 0.25869 0.49137 0.0
H138 H 0.61971 0.21 0.51387 0.0
H139 H 0.58819 0.14203 0.48922 0.0
H140 H 0.83334 0.2678 0.39627 0.0
H141 H 0.80513 0.3051 0.4435 0.0
H142 H 0.74627 0.30721 0.48717 0.0
H143 H 0.67924 0.27264 0.51274 0.0
Mn144 Mn 0.95386 0.25329 0.09775 0.0
Mn145 Mn 0.0446 0.25078 0.14523 0.0
C146 C 0.02569 0.25275 0.07708 0.0
C147 C 0.89744 0.21636 0.06979 0.0
C148 C 0.99224 0.33333 0.1327 0.0
O149 O 0.92636 0.23452 0.13892 0.0
O150 O 0.98924 0.23049 0.16849 0.0
C151 C 0.04846 0.15456 0.15445 0.0
N152 N 0.06859 0.19304 0.14495 0.0
C153 C 0.13637 0.15613 0.13 0.0
C154 C 0.11648 0.11616 0.13985 0.0
C155 C 0.07232 0.11539 0.1521 0.0
C156 C 0.11114 0.19419 0.13323 0.0
H157 H 0.01439 0.15372 0.16365 0.0
C158 C 0.94626 0.22577 0.16442 0.0
O159 O 0.89306 0.25722 0.07775 0.0
O160 O 0.93378 0.19697 0.07873 0.0
N161 N 0.1001 0.26878 0.12529 0.0
C162 C 0.11313 0.30942 0.11476 0.0
C163 C 0.15573 0.31542 0.10059 0.0
C164 C 0.18453 0.27968 0.09747 0.0
C165 C 0.17053 0.23826 0.10869 0.0
C166 C 0.12785 0.23431 0.12284 0.0
H167 H 0.09099 0.33694 0.11684 0.0
O168 O 0.99208 0.26695 0.06081 0.0
O169 O 0.01601 0.23873 0.10495 0.0
O170 O 0.96383 0.31594 0.1137 0.0
O171 O 0.02311 0.31174 0.14627 0.0
C172 C 0.19683 0.20053 0.10574 0.0
C173 C 0.17978 0.1595 0.11639 0.0
H174 H 0.13459 0.08581 0.13778 0.0
H175 H 0.05663 0.08462 0.15956 0.0
H176 H 0.16621 0.34747 0.09189 0.0
H177 H 0.21714 0.28434 0.0862 0.0
H178 H 0.22999 0.2026 0.09495 0.0
H179 H 0.20003 0.13061 0.11354 0.0
Mn180 Mn 0.24855 0.05241 0.89643 0.0
Mn181 Mn 0.23516 0.96404 0.84974 0.0
C182 C 0.24072 0.98338 0.91786 0.0
C183 C 0.2175 0.10968 0.92407 0.0
C184 C 0.32596 0.01001 0.86137 0.0
O185 O 0.23223 0.07951 0.85509 0.0
O186 O 0.22043 0.01845 0.82633 0.0
C187 C 0.1357 0.96637 0.84101 0.0
N188 N 0.17306 0.9445 0.85027 0.0
C189 C 0.12771 0.88053 0.86398 0.0
C190 C 0.08879 0.90226 0.8544 0.0
C191 C 0.09281 0.9454 0.84292 0.0
C192 C 0.16957 0.903 0.86138 0.0
H193 H 0.13858 -0.00041 0.83229 0.0
C194 C 0.22086 0.06034 0.82981 0.0
O195 O 0.25984 0.11129 0.91575 0.0
O196 O 0.19326 0.0756 0.91562 0.0
N197 N 0.24746 0.90932 0.86957 0.0
C198 C 0.28785 0.89408 0.87978 0.0
C199 C 0.2894 0.85205 0.89313 0.0
C200 C 0.24954 0.82599 0.89559 0.0
C201 C 0.20845 0.84223 0.88469 0.0
C202 C 0.209 0.88432 0.87152 0.0
H203 H 0.31857 0.914 0.87803 0.0
O204 O 0.25892 0.01555 0.93366 0.0
O205 O 0.22661 0.99282 0.89001 0.0
O206 O 0.31147 0.03884 0.88016 0.0
O207 O 0.30026 0.981 0.84834 0.0
C208 C 0.16685 0.81863 0.88686 0.0
C209 C 0.1265 0.83778 0.87657 0.0
H210 H 0.05562 0.8863 0.85601 0.0
H211 H 0.0629 0.96247 0.83564 0.0
H212 H 0.32122 0.83979 0.90157 0.0
H213 H 0.25084 0.79369 0.90606 0.0
H214 H 0.16541 0.78589 0.89673 0.0
H215 H 0.09463 0.81956 0.87883 0.0
Mn216 Mn 0.04192 0.74393 0.09851 0.0
Mn217 Mn 0.95166 0.74563 0.14645 0.0
C218 C 0.96986 0.74438 0.07821 0.0
C219 C 0.09775 0.78127 0.07026 0.0
C220 C 0.0043 0.66344 0.1333 0.0
O221 O 0.0698 0.76249 0.13962 0.0
O222 O 0.00718 0.76595 0.16951 0.0
C223 C 0.94739 0.84172 0.15619 0.0
N224 N 0.92737 0.80323 0.14659 0.0
C225 C 0.8592 0.83994 0.13224 0.0
C226 C 0.87898 0.8799 0.14219 0.0
C227 C 0.92328 0.88078 0.15419 0.0
C228 C 0.88468 0.80198 0.13511 0.0
H229 H 0.98157 0.84264 0.1652 0.0
C230 C 0.05011 0.7709 0.16526 0.0
O231 O 0.10247 0.74042 0.07809 0.0
O232 O 0.06149 0.80046 0.07957 0.0
N233 N 0.89604 0.72755 0.1267 0.0
C234 C 0.88314 0.68697 0.116 0.0
C235 C 0.84043 0.68089 0.10202 0.0
C236 C 0.81138 0.7165 0.09927 0.0
C237 C 0.82526 0.75787 0.11065 0.0
C238 C 0.86808 0.7619 0.12459 0.0
H239 H 0.90547 0.65955 0.1178 0.0
O240 O 0.00334 0.7304 0.06173 0.0
O241 O 0.97978 0.75818 0.1061 0.0
O242 O 0.03245 0.6811 0.11424 0.0
O243 O 0.97346 0.68477 0.14711 0.0
C244 C 0.7987 0.79548 0.10807 0.0
C245 C 0.81565 0.83648 0.11886 0.0
H246 H 0.86068 0.91017 0.14039 0.0
H247 H 0.93889 0.91154 0.16174 0.0
H248 H 0.83003 0.6489 0.09318 0.0
H249 H 0.77867 0.7118 0.08814 0.0
H250 H 0.76542 0.79334 0.09747 0.0
H251 H 0.7952 0.86528 0.11629 0.0
Mn252 Mn 0.74216 0.94423 0.89929 0.0
Mn253 Mn 0.7533 0.03212 0.85196 0.0
C254 C 0.74948 0.01363 0.92024 0.0
C255 C 0.77468 0.8877 0.92688 0.0
C256 C 0.6636 0.9844 0.86431 0.0
O257 O 0.75817 0.91699 0.85785 0.0
O258 O 0.76979 0.97796 0.82892 0.0
C259 C 0.85285 0.0329 0.84309 0.0
N260 N 0.81476 0.05361 0.85233 0.0
C261 C 0.85799 0.11902 0.86577 0.0
C262 C 0.89763 0.09849 0.8562 0.0
C263 C 0.89504 0.05521 0.84487 0.0
C264 C 0.81687 0.09525 0.86327 0.0
H265 H 0.85105 -0.00043 0.83447 0.0
C266 C 0.76976 0.93611 0.83257 0.0
O267 O 0.73217 0.88544 0.91898 0.0
O268 O 0.79824 0.92203 0.91804 0.0
N269 N 0.73919 0.08651 0.8716 0.0
C270 C 0.69833 0.10043 0.88195 0.0
C271 C 0.69542 0.14239 0.89526 0.0
C272 C 0.73441 0.16969 0.89758 0.0
C273 C 0.77601 0.15477 0.88657 0.0
C274 C 0.77683 0.1127 0.87344 0.0
H275 H 0.66828 0.07954 0.88032 0.0
O276 O 0.73209 0.98146 0.93645 0.0
O277 O 0.76299 0.00397 0.89229 0.0
O278 O 0.67866 0.95668 0.88368 0.0
O279 O 0.68872 0.01319 0.85055 0.0
C280 C 0.81683 0.17967 0.88863 0.0
C281 C 0.8578 0.1618 0.87828 0.0
H282 H 0.93029 0.11549 0.85774 0.0
H283 H 0.92552 0.03906 0.8376 0.0
H284 H 0.66322 0.15361 0.90379 0.0
H285 H 0.73207 0.20192 0.90804 0.0
H286 H 0.81718 0.21244 0.89845 0.0
H287 H 0.88908 0.181 0.88046 0.0
C288 C 0.9551 0.58792 0.61835 0.0
C289 C 0.98158 0.61666 0.6368 0.0
C290 C 0.96177 0.54239 0.61895 0.0
C291 C 0.99575 0.52519 0.63841 0.0
C292 C 0.02156 0.55378 0.6578 0.0
C293 C 0.0141 0.59905 0.65684 0.0
C294 C 0.93329 0.51278 0.59812 0.0
C295 C 0.05797 0.53669 0.67896 0.0
C296 C 0.98791 0.40342 0.65705 0.0
C297 C 0.01803 0.38579 0.63531 0.0
C298 C 0.98094 0.44874 0.65867 0.0
C299 C 0.00474 0.47733 0.63814 0.0
C300 C 0.03646 0.46012 0.61694 0.0
C301 C 0.04276 0.41454 0.61578 0.0
C302 C 0.94703 0.46585 0.68172 0.0
C303 C 0.06275 0.48972 0.59484 0.0
H304 H 0.92996 0.60103 0.60276 0.0
H305 H 0.0348 0.62077 0.67129 0.0
H306 H 0.95537 0.4964 0.58102 0.0
H307 H 0.91616 0.48657 0.61208 0.0
H308 H 0.90712 0.53104 0.58526 0.0
H309 H 0.07387 0.56306 0.69348 0.0
H310 H 0.04357 0.51084 0.69453 0.0
H311 H 0.08482 0.5214 0.66486 0.0
H312 H 0.96867 0.38168 0.67238 0.0
H313 H 0.066 0.4014 0.59886 0.0
H314 H 0.91868 0.48113 0.6691 0.0
H315 H 0.96314 0.49172 0.6965 0.0
H316 H 0.93281 0.4395 0.69702 0.0
H317 H 0.03897 0.50604 0.57883 0.0
H318 H 0.08758 0.47147 0.58075 0.0
H319 H 0.0812 0.51599 0.60795 0.0
C320 C 0.60027 0.01876 0.34834 0.0
C321 C 0.60478 0.05338 0.36969 0.0
C322 C 0.55779 0.99846 0.34272 0.0
C323 C 0.51978 0.01167 0.36013 0.0
C324 C 0.52396 0.04778 0.38078 0.0
C325 C 0.56623 0.06893 0.38464 0.0
C326 C 0.55407 0.96177 0.31918 0.0
C327 C 0.48464 0.06209 0.40056 0.0
C328 C 0.39663 0.97821 0.34832 0.0
C329 C 0.39193 0.94361 0.36966 0.0
C330 C 0.43923 0.99826 0.34267 0.0
C331 C 0.47717 0.98479 0.36004 0.0
C332 C 0.47283 0.9486 0.3806 0.0
C333 C 0.43042 0.92772 0.3845 0.0
C334 C 0.44315 0.03502 0.3192 0.0
C335 C 0.51208 0.934 0.40031 0.0
H336 H 0.63003 0.00723 0.33635 0.0
H337 H 0.56954 0.09594 0.40092 0.0
H338 H 0.55371 0.92964 0.33133 0.0
H339 H 0.52207 0.9637 0.30573 0.0
H340 H 0.58313 0.96265 0.30273 0.0
H341 H 0.49358 0.09105 0.41526 0.0
H342 H 0.45545 0.07045 0.38568 0.0
H343 H 0.47337 0.03467 0.41598 0.0
H344 H 0.36694 0.98999 0.33639 0.0
H345 H 0.42696 0.90069 0.40077 0.0
H346 H 0.47499 0.03276 0.30561 0.0
H347 H 0.44405 0.0671 0.33142 0.0
H348 H 0.41395 0.03455 0.30288 0.0
H349 H 0.54131 0.92583 0.38541 0.0
H350 H 0.50308 0.90485 0.41482 0.0
H351 H 0.52331 0.96122 0.41593 0.0
C352 C 0.96253 0.40744 0.11984 0.0
C353 C 0.9914 0.38153 0.13765 0.0
C354 C 0.96452 0.4534 0.12193 0.0
C355 C 0.9959 0.47403 0.14249 0.0
C356 C 0.02383 0.44815 0.16148 0.0
C357 C 0.02137 0.40221 0.15877 0.0
C358 C 0.93422 0.47994 0.10122 0.0
C359 C 0.05736 0.46904 0.18391 0.0
C360 C 0.0339 0.58949 0.11981 0.0
C361 C 0.00542 0.61521 0.13807 0.0
C362 C 0.03205 0.54352 0.12173 0.0
C363 C 0.00123 0.52268 0.14258 0.0
C364 C 0.97374 0.54836 0.16202 0.0
C365 C 0.97603 0.59432 0.15946 0.0
C366 C 0.06186 0.51719 0.10054 0.0
C367 C 0.94082 0.52724 0.18478 0.0
H368 H 0.93919 0.39194 0.10348 0.0
H369 H 0.04369 0.38257 0.17277 0.0
H370 H 0.91459 0.50327 0.11534 0.0
H371 H 0.95527 0.49969 0.08471 0.0
H372 H 0.91008 0.45888 0.08766 0.0
H373 H 0.07378 0.44435 0.1989 0.0
H374 H 0.08415 0.48733 0.17078 0.0
H375 H 0.04025 0.49309 0.199 0.0
H376 H 0.05677 0.60517 0.10322 0.0
H377 H 0.95403 0.61381 0.17382 0.0
H378 H 0.04042 0.49762 0.08416 0.0
H379 H 0.08182 0.49371 0.11431 0.0
H380 H 0.08568 0.53839 0.08683 0.0
H381 H 0.91369 0.50906 0.17189 0.0
H382 H 0.92479 0.55178 0.2001 0.0
H383 H 0.95833 0.50306 0.19951 0.0
C384 C 0.40494 0.03897 0.87052 0.0
C385 C 0.37548 0.00838 0.85599 0.0
C386 C 0.45203 0.03514 0.86848 0.0
C387 C 0.47015 -2e-05 0.85139 0.0
C388 C 0.44082 0.97023 0.83542 0.0
C389 C 0.39377 0.97472 0.83795 0.0
C390 C 0.48233 0.06755 0.88584 0.0
C391 C 0.45905 0.93257 0.81675 0.0
C392 C 0.59614 0.00976 0.83455 0.0
C393 C 0.61409 0.98504 0.85897 0.0
C394 C 0.54914 0.01349 0.83094 0.0
C395 C 0.51957 0.99249 0.85251 0.0
C396 C 0.53738 0.96644 0.87662 0.0
C397 C 0.5844 0.96282 0.87944 0.0
C398 C 0.53121 0.04099 0.80469 0.0
C399 C 0.50684 0.94383 0.90023 0.0
H400 H 0.39127 0.0653 0.88433 0.0
H401 H 0.37138 0.951 0.82649 0.0
H402 H 0.50041 0.05031 0.90469 0.0
H403 H 0.50843 0.08196 0.87002 0.0
H404 H 0.46303 0.09467 0.89633 0.0
H405 H 0.43212 0.91525 0.80305 0.0
H406 H 0.486 0.94458 0.80063 0.0
H407 H 0.47458 0.90853 0.83265 0.0
H408 H 0.61883 0.02676 0.81847 0.0
H409 H 0.59789 0.94374 0.89843 0.0
H410 H 0.51521 0.07065 0.81429 0.0
H411 H 0.50466 0.02226 0.79161 0.0
H412 H 0.55837 0.05169 0.78824 0.0
H413 H 0.52596 0.92306 0.91663 0.0
H414 H 0.48087 0.92286 0.88833 0.0
H415 H 0.48862 0.9688 0.91385 0.0
C416 C 0.26702 0.06419 0.46717 0.0
C417 C 0.24549 0.0562 0.43856 0.0
C418 C 0.25289 0.09787 0.48693 0.0
C419 C 0.21598 0.12384 0.47801 0.0
C420 C 0.19709 0.11864 0.44788 0.0
C421 C 0.21223 0.08494 0.42842 0.0
C422 C 0.27461 0.10274 0.51857 0.0
C423 C 0.1578 0.14571 0.43737 0.0
C424 C 0.13232 0.15179 0.54131 0.0
C425 C 0.14092 0.19685 0.54598 0.0
C426 C 0.15696 0.12792 0.51959 0.0
C427 C 0.19152 0.14943 0.50202 0.0
C428 C 0.20155 0.19464 0.50724 0.0
C429 C 0.17599 0.21795 0.52918 0.0
C430 C 0.14517 0.07969 0.51501 0.0
C431 C 0.23842 0.21854 0.48916 0.0
H432 H 0.29324 0.04247 0.47498 0.0
H433 H 0.19558 0.0791 0.40628 0.0
H434 H 0.2795 0.13791 0.5248 0.0
H435 H 0.25201 0.08735 0.53634 0.0
H436 H 0.30791 0.0866 0.51962 0.0
H437 H 0.15206 0.14303 0.4119 0.0
H438 H 0.12649 0.13406 0.44947 0.0
H439 H 0.16355 0.18081 0.44346 0.0
H440 H 0.10548 0.13508 0.55427 0.0
H441 H 0.18273 0.25278 0.53262 0.0
H442 H 0.17545 0.0597 0.51926 0.0
H443 H 0.13427 0.07373 0.49064 0.0
H444 H 0.11759 0.06789 0.53075 0.0
H445 H 0.27036 0.20014 0.49013 0.0
H446 H 0.24509 0.25235 0.49808 0.0
H447 H 0.22843 0.22069 0.46436 0.0
C448 C 0.2206 0.84692 0.47926 0.0
C449 C 0.19843 0.85712 0.45154 0.0
C450 C 0.19812 0.82263 0.5026 0.0
C451 C 0.15197 0.81017 0.49842 0.0
C452 C 0.13001 0.81937 0.46993 0.0
C453 C 0.1536 0.84287 0.44685 0.0
C454 C 0.22298 0.81305 0.53235 0.0
C455 C 0.08067 0.80709 0.46459 0.0
C456 C 0.07919 0.73222 0.54638 0.0
C457 C 0.0551 0.76192 0.56431 0.0
C458 C 0.11466 0.74704 0.52707 0.0
C459 C 0.12445 0.79269 0.52472 0.0
C460 C 0.1017 0.82246 0.5442 0.0
C461 C 0.06709 0.80662 0.56375 0.0
C462 C 0.1396 0.71423 0.50778 0.0
C463 C 0.11102 0.87141 0.5425 0.0
H464 H 0.25484 0.85947 0.48323 0.0
H465 H 0.13648 0.85159 0.42549 0.0
H466 H 0.21527 0.83869 0.5497 0.0
H467 H 0.21228 0.78064 0.54208 0.0
H468 H 0.26027 0.81367 0.52879 0.0
H469 H 0.06941 0.81491 0.44061 0.0
H470 H 0.0746 0.77147 0.46872 0.0
H471 H 0.05928 0.82511 0.48128 0.0
H472 H 0.0694 0.69763 0.54683 0.0
H473 H 0.04751 0.82953 0.57721 0.0
H474 H 0.17642 0.7224 0.50783 0.0
H475 H 0.12751 0.7156 0.4834 0.0
H476 H 0.13422 0.68014 0.51651 0.0
H477 H 0.1479 0.87884 0.54433 0.0
H478 H 0.09341 0.88945 0.56123 0.0
H479 H 0.09945 0.88397 0.51969 0.0
C480 C 0.72927 0.93517 0.46795 0.0
C481 C 0.75153 0.94306 0.43958 0.0
C482 C 0.74315 0.9018 0.48807 0.0
C483 C 0.78058 0.87612 0.47979 0.0
C484 C 0.80031 0.88121 0.4499 0.0
C485 C 0.78536 0.91454 0.43004 0.0
C486 C 0.72049 0.89694 0.5194 0.0
C487 C 0.84023 0.85449 0.44008 0.0
C488 C 0.86292 0.84953 0.54419 0.0
C489 C 0.85498 0.80436 0.54875 0.0
C490 C 0.83841 0.87302 0.52219 0.0
C491 C 0.80462 0.851 0.50425 0.0
C492 C 0.79511 0.80568 0.50944 0.0
C493 C 0.82057 0.78276 0.53164 0.0
C494 C 0.84964 0.92136 0.51765 0.0
C495 C 0.759 0.78124 0.49101 0.0
H496 H 0.70261 0.95672 0.47529 0.0
H497 H 0.80258 0.92032 0.40809 0.0
H498 H 0.71583 0.86178 0.52571 0.0
H499 H 0.74234 0.91272 0.53743 0.0
H500 H 0.68696 0.91271 0.51988 0.0
H501 H 0.84682 0.85711 0.4147 0.0
H502 H 0.871 0.86646 0.45265 0.0
H503 H 0.83461 0.81937 0.44617 0.0
H504 H 0.88923 0.86663 0.55741 0.0
H505 H 0.81433 0.74784 0.535 0.0
H506 H 0.81896 0.94096 0.52145 0.0
H507 H 0.86115 0.92737 0.49341 0.0
H508 H 0.87662 0.9336 0.53372 0.0
H509 H 0.72694 0.79948 0.49122 0.0
H510 H 0.7522 0.74759 0.50018 0.0
H511 H 0.76992 0.7786 0.46642 0.0
C512 C 0.84267 0.15747 0.44517 0.0
C513 C 0.798 0.14299 0.45028 0.0
C514 C 0.86626 0.1819 0.46777 0.0
C515 C 0.8445 0.19179 0.49621 0.0
C516 C 0.79848 0.1791 0.50077 0.0
C517 C 0.776 0.1539 0.47793 0.0
C518 C 0.91547 0.19436 0.46204 0.0
C519 C 0.77382 0.1894 0.53047 0.0
C520 C 0.92971 0.19665 0.56128 0.0
C521 C 0.94161 0.24137 0.5615 0.0
C522 C 0.8951 0.18042 0.54191 0.0
C523 C 0.87221 0.20983 0.52223 0.0
C524 C 0.88194 0.25553 0.52418 0.0
C525 C 0.91743 0.27074 0.54336 0.0
C526 C 0.8859 0.13142 0.54062 0.0
C527 C 0.85685 0.28797 0.50467 0.0
H528 H 0.85966 0.14822 0.42387 0.0
H529 H 0.74189 0.14121 0.48223 0.0
H530 H 0.92139 0.23008 0.46582 0.0
H531 H 0.93716 0.17675 0.47876 0.0
H532 H 0.92648 0.18616 0.43807 0.0
H533 H 0.7365 0.1883 0.5271 0.0
H534 H 0.78196 0.16439 0.54819 0.0
H535 H 0.7843 0.2222 0.53963 0.0
H536 H 0.94934 0.17398 0.57491 0.0
H537 H 0.92713 0.30536 0.54354 0.0
H538 H 0.89718 0.11853 0.51783 0.0
H539 H 0.84907 0.12392 0.54275 0.0
H540 H 0.90381 0.11369 0.55936 0.0
H541 H 0.86222 0.32221 0.5131 0.0
H542 H 0.82005 0.27975 0.50485 0.0
H543 H 0.86884 0.2862 0.48027 0.0
C544 C 0.73393 0.07375 0.95736 0.0
C545 C 0.76364 0.05409 0.9365 0.0
C546 C 0.74958 0.10643 0.97803 0.0
C547 C 0.79605 0.11922 0.97786 0.0
C548 C 0.8255 0.10128 0.95547 0.0
C549 C 0.80912 0.06815 0.93551 0.0
C550 C 0.71718 0.12493 0.00147 0.0
C551 C 0.875 0.11498 0.95397 0.0
C552 C 0.84382 0.21545 0.02494 0.0
C553 C 0.86477 0.19324 0.04933 0.0
C554 C 0.81949 0.19208 0.0019 0.0
C555 C 0.81553 0.1457 0.00386 0.0
C556 C 0.83394 0.12364 0.02978 0.0
C557 C 0.85889 0.14766 0.05196 0.0
C558 C 0.80126 0.21692 0.97447 0.0
C559 C 0.82938 0.07432 0.03326 0.0
H560 H 0.69889 0.06216 0.95839 0.0
H561 H 0.83241 0.0517 0.92019 0.0
H562 H 0.72549 0.11237 0.02496 0.0
H563 H 0.72071 0.16129 0.00227 0.0
H564 H 0.68133 0.11567 0.99614 0.0
H565 H 0.89217 0.10121 0.93329 0.0
H566 H 0.87862 0.15134 0.95326 0.0
H567 H 0.89266 0.10355 0.97514 0.0
H568 H 0.84883 0.25074 0.02275 0.0
H569 H 0.87491 0.13059 0.07099 0.0
H570 H 0.76976 0.20123 0.96511 0.0
H571 H 0.82708 0.21734 0.95572 0.0
H572 H 0.79437 0.25153 0.98069 0.0
H573 H 0.7935 0.0633 0.03026 0.0
H574 H 0.84141 0.06292 0.0563 0.0
H575 H 0.84953 0.05816 0.01494 0.0
C576 C 0.15127 0.14976 0.94339 0.0
C577 C 0.1979 0.14284 0.94461 0.0
C578 C 0.13 0.17479 0.96612 0.0
C579 C 0.15595 0.1925 0.99108 0.0
C580 C 0.20357 0.18786 0.99143 0.0
C581 C 0.22415 0.16323 0.96792 0.0
C582 C 0.07922 0.17975 0.96448 0.0
C583 C 0.23244 0.20573 0.01773 0.0
C584 C 0.08739 0.27015 0.03947 0.0
C585 C 0.06709 0.24076 0.06062 0.0
C586 C 0.12005 0.25589 0.01829 0.0
C587 C 0.13184 0.21112 0.01814 0.0
C588 C 0.11373 0.18218 0.04102 0.0
C589 C 0.08082 0.19719 0.06159 0.0
C590 C 0.13909 0.28778 0.99451 0.0
C591 C 0.12631 0.13446 0.04215 0.0
H592 H 0.13109 0.13424 0.92517 0.0
H593 H 0.26024 0.15757 0.96899 0.0
H594 H 0.06272 0.16058 0.98351 0.0
H595 H 0.07037 0.21466 0.96767 0.0
H596 H 0.06489 0.168 0.94199 0.0
H597 H 0.26814 0.21147 0.01024 0.0
H598 H 0.21922 0.23685 0.02709 0.0
H599 H 0.23228 0.18133 0.03689 0.0
H600 H 0.07609 0.30373 0.03853 0.0
H601 H 0.06389 0.17414 0.07723 0.0
H602 H 0.12331 0.28072 0.97157 0.0
H603 H 0.1762 0.28397 0.99194 0.0
H604 H 0.13241 0.32241 0.00082 0.0
H605 H 0.11212 0.11702 0.02154 0.0
H606 H 0.11323 0.11773 0.06342 0.0
H607 H 0.1637 0.13157 0.04142 0.0
C608 C 0.15015 0.78231 0.02473 0.0
C609 C 0.12974 0.80451 0.04936 0.0
C610 C 0.17357 0.80572 0.00128 0.0
C611 C 0.17718 0.85213 0.00305 0.0
C612 C 0.15935 0.87422 0.02915 0.0
C613 C 0.13528 0.85015 0.05176 0.0
C614 C 0.19132 0.78095 0.97365 0.0
C615 C 0.1636 0.92358 0.03242 0.0
C616 C 0.25727 0.92382 0.95515 0.0
C617 C 0.22697 0.94311 0.93452 0.0
C618 C 0.24226 0.89145 0.97626 0.0
C619 C 0.19583 0.87851 0.97673 0.0
C620 C 0.16572 0.89614 0.95462 0.0
C621 C 0.1815 0.92902 0.93423 0.0
C622 C 0.27531 0.87358 -0.00048 0.0
C623 C 0.1162 0.88237 0.95386 0.0
H624 H 0.14538 0.74698 0.02272 0.0
H625 H 0.11966 0.86722 0.07096 0.0
H626 H 0.16633 0.7827 0.95447 0.0
H627 H 0.22386 0.79556 0.96516 0.0
H628 H 0.19624 0.74576 0.97922 0.0
H629 H 0.15217 0.93504 0.05559 0.0
H630 H 0.1993 0.93486 0.02888 0.0
H631 H 0.14278 0.93946 0.01435 0.0
H632 H 0.29231 0.9355 0.95568 0.0
H633 H 0.15777 0.94524 0.91912 0.0
H634 H 0.27174 0.83727 0.00098 0.0
H635 H 0.26778 0.88696 0.02291 0.0
H636 H 0.31101 0.88256 0.99354 0.0
H637 H 0.1126 0.846 0.95338 0.0
H638 H 0.09843 0.8959 0.93334 0.0
H639 H 0.09913 0.894 0.9752 0.0
C640 C 0.8419 0.84876 0.94581 0.0
C641 C 0.79516 0.85495 0.94732 0.0
C642 C 0.86383 0.82379 0.96829 0.0
C643 C 0.83843 0.80541 0.99328 0.0
C644 C 0.79074 0.80944 0.99396 0.0
C645 C 0.76951 0.834 0.9707 0.0
C646 C 0.91466 0.81947 0.96629 0.0
C647 C 0.76245 0.79093 0.02034 0.0
C648 C 0.90801 0.72737 0.04065 0.0
C649 C 0.9283 0.75649 0.06199 0.0
C650 C 0.87515 0.74183 0.01969 0.0
C651 C 0.8631 0.78652 0.01999 0.0
C652 C 0.88124 0.81516 0.04303 0.0
C653 C 0.91439 0.79998 0.06335 0.0
C654 C 0.85614 0.71026 0.99569 0.0
C655 C 0.86836 0.86278 0.04465 0.0
H656 H 0.86163 0.8647 0.92754 0.0
H657 H 0.73332 0.8391 0.972 0.0
H658 H 0.93116 0.83853 0.98536 0.0
H659 H 0.92398 0.78463 0.96914 0.0
H660 H 0.92856 0.83174 0.9438 0.0
H661 H 0.72668 0.78493 0.01308 0.0
H662 H 0.77614 0.75983 0.02938 0.0
H663 H 0.76264 0.81506 0.03967 0.0
H664 H 0.91946 0.69385 0.03939 0.0
H665 H 0.93133 0.82285 0.07911 0.0
H666 H 0.87148 0.71803 0.97271 0.0
H667 H 0.81894 0.71371 0.99345 0.0
H668 H 0.86333 0.67559 0.00154 0.0
H669 H 0.88217 0.88065 0.02409 0.0
H670 H 0.88161 0.87925 0.06596 0.0
H671 H 0.83094 0.86543 0.04418 0.0
C672 C 0.07236 0.19804 0.71533 0.0
C673 C 0.09345 0.21194 0.68762 0.0
C674 C 0.09636 0.17559 0.73821 0.0
C675 C 0.14271 0.1669 0.73342 0.0
C676 C 0.16475 0.18218 0.70611 0.0
C677 C 0.13985 0.20449 0.68349 0.0
C678 C 0.07163 0.15987 0.76708 0.0
C679 C 0.21424 0.17373 0.70033 0.0
C680 C 0.20729 0.13386 0.80566 0.0
C681 C 0.20492 0.08778 0.80368 0.0
C682 C 0.18879 0.16015 0.78232 0.0
C683 C 0.1672 0.13993 0.75646 0.0
C684 C 0.16609 0.09357 0.75374 0.0
C685 C 0.18504 0.06807 0.77733 0.0
C686 C 0.19088 0.20951 0.78591 0.0
C687 C 0.14326 0.07078 0.7265 0.0
H688 H 0.03661 0.20364 0.7189 0.0
H689 H 0.15656 0.21508 0.66222 0.0
H690 H 0.07116 0.12342 0.76794 0.0
H691 H 0.08958 0.17196 0.7882 0.0
H692 H 0.03609 0.171 0.7679 0.0
H693 H 0.22719 0.19061 0.67909 0.0
H694 H 0.23495 0.1849 0.7205 0.0
H695 H 0.21912 0.13791 0.69768 0.0
H696 H 0.22283 0.14951 0.82578 0.0
H697 H 0.183 0.03256 0.77548 0.0
H698 H 0.15619 0.22178 0.78949 0.0
H699 H 0.20449 0.22518 0.76444 0.0
H700 H 0.21232 0.2202 0.8059 0.0
H701 H 0.10639 0.0771 0.72689 0.0
H702 H 0.14787 0.03468 0.72682 0.0
H703 H 0.15691 0.08413 0.70429 0.0
C704 C 0.12231 0.80521 0.18562 0.0
C705 C 0.07827 0.78842 0.19125 0.0
C706 C 0.14927 0.82231 0.20987 0.0
C707 C 0.13203 0.82214 0.24057 0.0
C708 C 0.08757 0.80548 0.24643 0.0
C709 C 0.06112 0.78908 0.22168 0.0
C710 C 0.19633 0.84024 0.20268 0.0
C711 C 0.06822 0.80428 0.27894 0.0
C712 C 0.21508 0.82165 0.30784 0.0
C713 C 0.21324 0.86505 0.31881 0.0
C714 C 0.18921 0.80749 0.28223 0.0
C715 C 0.16119 0.83754 0.26682 0.0
C716 C 0.16021 0.88174 0.27702 0.0
C717 C 0.18607 0.89494 0.303 0.0
C718 C 0.19094 0.75998 0.27222 0.0
C719 C 0.13118 0.91485 0.26084 0.0
H720 H 0.13572 0.80534 0.16215 0.0
H721 H 0.02718 0.77619 0.22627 0.0
H722 H 0.20028 0.87446 0.21134 0.0
H723 H 0.22191 0.82042 0.21482 0.0
H724 H 0.20386 0.83995 0.17737 0.0
H725 H 0.03276 0.79108 0.2795 0.0
H726 H 0.08933 0.78349 0.29405 0.0
H727 H 0.06896 0.83779 0.28908 0.0
H728 H 0.23584 0.79814 0.31978 0.0
H729 H 0.18448 0.92855 0.31116 0.0
H730 H 0.20096 0.75791 0.24742 0.0
H731 H 0.15677 0.74416 0.2744 0.0
H732 H 0.21517 0.74099 0.28631 0.0
H733 H 0.13911 0.91577 0.23563 0.0
H734 H 0.13612 0.94847 0.27053 0.0
H735 H 0.09488 0.90495 0.26317 0.0
C736 C 0.85533 0.79346 0.68688 0.0
C737 C 0.90208 0.78773 0.69078 0.0
C738 C 0.82975 0.81474 0.70965 0.0
C739 C 0.85145 0.83076 0.73688 0.0
C740 C 0.89818 0.82369 0.74148 0.0
C741 C 0.92286 0.80221 0.71845 0.0
C742 C 0.77989 0.82143 0.70407 0.0
C743 C 0.92256 0.84028 0.77024 0.0
C744 C 0.80588 0.92867 0.78017 0.0
C745 C 0.78663 0.90875 0.80667 0.0
C746 C 0.82573 0.90349 0.75678 0.0
C747 C 0.82621 0.8572 0.75984 0.0
C748 C 0.80532 0.83669 0.78587 0.0
C749 C 0.78587 0.8627 0.80901 0.0
C750 C 0.84776 0.92658 0.72937 0.0
C751 C 0.80492 0.7874 0.7898 0.0
H752 H 0.83883 0.78234 0.66567 0.0
H753 H 0.95888 0.79794 0.72185 0.0
H754 H 0.75976 0.80988 0.72442 0.0
H755 H 0.7737 0.85699 0.70118 0.0
H756 H 0.76732 0.80383 0.683 0.0
H757 H 0.95843 0.83011 0.77103 0.0
H758 H 0.922 0.8767 0.77095 0.0
H759 H 0.90503 0.8279 0.79145 0.0
H760 H 0.80668 0.96416 0.77804 0.0
H761 H 0.77088 0.84687 0.82926 0.0
H762 H 0.83436 0.91265 0.70727 0.0
H763 H 0.88483 0.92129 0.72969 0.0
H764 H 0.84211 0.96252 0.72951 0.0
H765 H 0.79178 0.77101 0.76847 0.0
H766 H 0.78391 0.77632 0.80991 0.0
H767 H 0.84006 0.7763 0.7934 0.0
C768 C 0.81063 0.10208 0.30256 0.0
C769 C 0.78305 0.132 0.31799 0.0
C770 C 0.83659 0.11504 0.27656 0.0
C771 C 0.83533 0.15905 0.266 0.0
C772 C 0.80689 0.18912 0.28102 0.0
C773 C 0.7809 0.17518 0.30662 0.0
C774 C 0.86604 0.08191 0.26078 0.0
C775 C 0.80485 0.23643 0.27061 0.0
C776 C 0.93526 0.20784 0.22087 0.0
C777 C 0.91824 0.20807 0.19041 0.0
C778 C 0.90884 0.19142 0.24563 0.0
C779 C 0.86457 0.17427 0.23974 0.0
C780 C 0.84753 0.17358 0.209 0.0
C781 C 0.87442 0.19074 0.18474 0.0
C782 C 0.92796 0.1932 0.27819 0.0
C783 C 0.8007 0.15508 0.20176 0.0
H784 H 0.81246 0.06864 0.31103 0.0
H785 H 0.75981 0.19871 0.31827 0.0
H786 H 0.85838 0.08057 0.23554 0.0
H787 H 0.90225 0.09209 0.26322 0.0
H788 H 0.86125 0.04841 0.2707 0.0
H789 H 0.78037 0.25547 0.28446 0.0
H790 H 0.83889 0.25254 0.27277 0.0
H791 H 0.79497 0.23803 0.24576 0.0
H792 H 0.96903 0.22115 0.22547 0.0
H793 H 0.86114 0.19026 0.16124 0.0
H794 H 0.92738 0.15984 0.28857 0.0
H795 H 0.90659 0.21406 0.29308 0.0
H796 H 0.96333 0.20664 0.27877 0.0
H797 H 0.79699 0.121 0.21073 0.0
H798 H 0.79342 0.15482 0.17641 0.0
H799 H 0.77481 0.17489 0.21359 0.0
loop_
_geom_bond_atom_site_label_1
_geom_bond_atom_site_label_2
_geom_bond_distance
_geom_bond_site_symmetry_2
_ccdc_geom_bond_type
Mn0 O5 2.095 . S
Mn0 O15 2.162 . S
Mn0 O16 2.297 . S
Mn0 O24 2.385 . S
Mn0 O25 2.209 . S
Mn0 O26 2.094 . S
Mn1 O6 2.121 . S
Mn1 N8 2.257 1_455 S
Mn1 N17 2.282 1_455 S
Mn1 O25 2.215 . S
Mn1 O27 2.117 . S
C2 O24 1.234 . S
C2 O25 1.283 . S
C3 O15 1.281 . S
C3 O16 1.236 . S
C4 O26 1.240 . S
C4 O27 1.264 . S
O5 Mn0 2.095 . S
O5 C14 1.250 . S
O6 Mn1 2.121 . S
O6 C14 1.258 . S
C7 N8 1.326 . S
C7 C11 1.460 . S
C7 H13 0.929 . S
N8 Mn1 2.257 1_655 S
N8 C7 1.326 . S
N8 C12 1.362 . S
C9 C10 1.258 . S
C9 C12 1.431 . S
C9 C29 1.449 . S
C10 C9 1.258 . S
C10 C11 1.477 . S
C10 H30 0.931 . S
C11 C7 1.460 . S
C11 C10 1.477 . S
C11 H31 0.930 . S
C12 N8 1.362 . S
C12 C9 1.431 . S
C12 C22 1.476 . S
H13 C7 0.929 . S
C14 O5 1.250 . S
C14 O6 1.258 . S
O15 Mn0 2.162 . S
O15 C3 1.281 . S
O16 Mn0 2.297 . S
O16 C3 1.236 . S
N17 Mn1 2.282 1_655 S
N17 C18 1.328 . S
N17 C22 1.318 . S
C18 N17 1.328 . S
C18 C19 1.457 . S
C18 H23 0.929 . S
C19 C18 1.457 . S
C19 C20 1.291 . S
C19 H32 0.931 . S
C20 C19 1.291 . S
C20 C21 1.373 . S
C20 H33 0.929 . S
C21 C20 1.373 . S
C21 C22 1.396 . S
C21 C28 1.403 . S
C22 C12 1.476 . S
C22 N17 1.318 . S
C22 C21 1.396 . S
H23 C18 0.929 . S
O24 Mn0 2.385 . S
O24 C2 1.234 . S
O25 Mn0 2.209 . S
O25 Mn1 2.215 . S
O25 C2 1.283 . S
O26 Mn0 2.094 . S
O26 C4 1.240 . S
O27 Mn1 2.117 . S
O27 C4 1.264 . S
C28 C21 1.403 . S
C28 C29 1.399 . S
C28 H34 0.929 . S
C29 C9 1.449 . S
C29 C28 1.399 . S
C29 H35 0.930 . S
H30 C10 0.931 . S
H31 C11 0.930 . S
H32 C19 0.931 . S
H33 C20 0.929 . S
H34 C28 0.929 . S
H35 C29 0.930 . S
Mn36 O41 2.095 . S
Mn36 O51 2.162 . S
Mn36 O52 2.297 . S
Mn36 O60 2.385 . S
Mn36 O61 2.209 . S
Mn36 O62 2.094 . S
Mn37 O42 2.121 . S
Mn37 N44 2.257 . S
Mn37 N53 2.282 . S
Mn37 O61 2.215 . S
Mn37 O63 2.117 . S
C38 O60 1.234 . S
C38 O61 1.283 . S
C39 O51 1.281 . S
C39 O52 1.236 . S
C40 O62 1.240 . S
C40 O63 1.264 . S
O41 Mn36 2.095 . S
O41 C50 1.250 . S
O42 Mn37 2.121 . S
O42 C50 1.258 . S
C43 N44 1.326 . S
C43 C47 1.460 . S
C43 H49 0.929 . S
N44 Mn37 2.257 . S
N44 C43 1.326 . S
N44 C48 1.362 . S
C45 C46 1.258 . S
C45 C48 1.431 . S
C45 C65 1.449 . S
C46 C45 1.258 . S
C46 C47 1.477 . S
C46 H66 0.931 . S
C47 C43 1.460 . S
C47 C46 1.477 . S
C47 H67 0.930 . S
C48 N44 1.362 . S
C48 C45 1.431 . S
C48 C58 1.476 . S
H49 C43 0.929 . S
C50 O41 1.250 . S
C50 O42 1.258 . S
O51 Mn36 2.162 . S
O51 C39 1.281 . S
O52 Mn36 2.297 . S
O52 C39 1.236 . S
N53 Mn37 2.282 . S
N53 C54 1.328 . S
N53 C58 1.318 . S
C54 N53 1.328 . S
C54 C55 1.457 . S
C54 H59 0.929 . S
C55 C54 1.457 . S
C55 C56 1.291 . S
C55 H68 0.931 . S
C56 C55 1.291 . S
C56 C57 1.373 . S
C56 H69 0.929 . S
C57 C56 1.373 . S
C57 C58 1.396 . S
C57 C64 1.403 . S
C58 C48 1.476 . S
C58 N53 1.318 . S
C58 C57 1.396 . S
H59 C54 0.929 . S
O60 Mn36 2.385 . S
O60 C38 1.234 . S
O61 Mn36 2.209 . S
O61 Mn37 2.215 . S
O61 C38 1.283 . S
O62 Mn36 2.094 . S
O62 C40 1.240 . S
O63 Mn37 2.117 . S
O63 C40 1.264 . S
C64 C57 1.403 . S
C64 C65 1.399 . S
C64 H70 0.929 . S
C65 C45 1.449 . S
C65 C64 1.399 . S
C65 H71 0.930 . S
H66 C46 0.931 . S
H67 C47 0.930 . S
H68 C55 0.931 . S
H69 C56 0.929 . S
H70 C64 0.929 . S
H71 C65 0.930 . S
Mn72 O77 2.095 . S
Mn72 O87 2.162 . S
Mn72 O88 2.297 . S
Mn72 O96 2.385 . S
Mn72 O97 2.209 . S
Mn72 O98 2.094 . S
Mn73 O78 2.121 . S
Mn73 N80 2.257 1_655 S
Mn73 N89 2.282 1_655 S
Mn73 O97 2.215 . S
Mn73 O99 2.117 . S
C74 O96 1.234 . S
C74 O97 1.283 . S
C75 O87 1.281 . S
C75 O88 1.236 . S
C76 O98 1.240 . S
C76 O99 1.264 . S
O77 Mn72 2.095 . S
O77 C86 1.250 . S
O78 Mn73 2.121 . S
O78 C86 1.258 . S
C79 N80 1.326 . S
C79 C83 1.460 . S
C79 H85 0.929 . S
N80 Mn73 2.257 1_455 S
N80 C79 1.326 . S
N80 C84 1.362 . S
C81 C82 1.258 . S
C81 C84 1.431 . S
C81 C101 1.449 . S
C82 C81 1.258 . S
C82 C83 1.477 . S
C82 H102 0.931 . S
C83 C79 1.460 . S
C83 C82 1.477 . S
C83 H103 0.930 . S
C84 N80 1.362 . S
C84 C81 1.431 . S
C84 C94 1.476 . S
H85 C79 0.929 . S
C86 O77 1.250 . S
C86 O78 1.258 . S
O87 Mn72 2.162 . S
O87 C75 1.281 . S
O88 Mn72 2.297 . S
O88 C75 1.236 . S
N89 Mn73 2.282 1_455 S
N89 C90 1.328 . S
N89 C94 1.318 . S
C90 N89 1.328 . S
C90 C91 1.457 . S
C90 H95 0.929 . S
C91 C90 1.457 . S
C91 C92 1.291 . S
C91 H104 0.931 . S
C92 C91 1.291 . S
C92 C93 1.373 . S
C92 H105 0.929 . S
C93 C92 1.373 . S
C93 C94 1.396 . S
C93 C100 1.403 . S
C94 C84 1.476 . S
C94 N89 1.318 . S
C94 C93 1.396 . S
H95 C90 0.929 . S
O96 Mn72 2.385 . S
O96 C74 1.234 . S
O97 Mn72 2.209 . S
O97 Mn73 2.215 . S
O97 C74 1.283 . S
O98 Mn72 2.094 . S
O98 C76 1.240 . S
O99 Mn73 2.117 . S
O99 C76 1.264 . S
C100 C93 1.403 . S
C100 C101 1.399 . S
C100 H106 0.929 . S
C101 C81 1.449 . S
C101 C100 1.399 . S
C101 H107 0.930 . S
H102 C82 0.931 . S
H103 C83 0.930 . S
H104 C91 0.931 . S
H105 C92 0.929 . S
H106 C100 0.929 . S
H107 C101 0.930 . S
Mn108 O113 2.095 . S
Mn108 O123 2.162 . S
Mn108 O124 2.297 . S
Mn108 O132 2.385 . S
Mn108 O133 2.209 . S
Mn108 O134 2.094 . S
Mn109 O114 2.121 . S
Mn109 N116 2.257 . S
Mn109 N125 2.282 . S
Mn109 O133 2.215 . S
Mn109 O135 2.117 . S
C110 O132 1.234 . S
C110 O133 1.283 . S
C111 O123 1.281 . S
C111 O124 1.236 . S
C112 O134 1.240 . S
C112 O135 1.264 . S
O113 Mn108 2.095 . S
O113 C122 1.250 . S
O114 Mn109 2.121 . S
O114 C122 1.258 . S
C115 N116 1.326 . S
C115 C119 1.460 . S
C115 H121 0.929 . S
N116 Mn109 2.257 . S
N116 C115 1.326 . S
N116 C120 1.362 . S
C117 C118 1.258 . S
C117 C120 1.431 . S
C117 C137 1.449 . S
C118 C117 1.258 . S
C118 C119 1.477 . S
C118 H138 0.931 . S
C119 C115 1.460 . S
C119 C118 1.477 . S
C119 H139 0.930 . S
C120 N116 1.362 . S
C120 C117 1.431 . S
C120 C130 1.476 . S
H121 C115 0.929 . S
C122 O113 1.250 . S
C122 O114 1.258 . S
O123 Mn108 2.162 . S
O123 C111 1.281 . S
O124 Mn108 2.297 . S
O124 C111 1.236 . S
N125 Mn109 2.282 . S
N125 C126 1.328 . S
N125 C130 1.318 . S
C126 N125 1.328 . S
C126 C127 1.457 . S
C126 H131 0.929 . S
C127 C126 1.457 . S
C127 C128 1.291 . S
C127 H140 0.931 . S
C128 C127 1.291 . S
C128 C129 1.373 . S
C128 H141 0.929 . S
C129 C128 1.373 . S
C129 C130 1.396 . S
C129 C136 1.403 . S
C130 C120 1.476 . S
C130 N125 1.318 . S
C130 C129 1.396 . S
H131 C126 0.929 . S
O132 Mn108 2.385 . S
O132 C110 1.234 . S
O133 Mn108 2.209 . S
O133 Mn109 2.215 . S
O133 C110 1.283 . S
O134 Mn108 2.094 . S
O134 C112 1.240 . S
O135 Mn109 2.117 . S
O135 C112 1.264 . S
C136 C129 1.403 . S
C136 C137 1.399 . S
C136 H142 0.929 . S
C137 C117 1.449 . S
C137 C136 1.399 . S
C137 H143 0.930 . S
H138 C118 0.931 . S
H139 C119 0.930 . S
H140 C127 0.931 . S
H141 C128 0.929 . S
H142 C136 0.929 . S
H143 C137 0.930 . S
Mn144 O149 2.095 . S
Mn144 O159 2.162 . S
Mn144 O160 2.297 . S
Mn144 O168 2.385 . S
Mn144 O169 2.209 . S
Mn144 O170 2.094 . S
Mn145 O150 2.121 . S
Mn145 N152 2.257 1_655 S
Mn145 N161 2.282 1_655 S
Mn145 O169 2.215 . S
Mn145 O171 2.117 . S
C146 O168 1.234 . S
C146 O169 1.283 . S
C147 O159 1.281 . S
C147 O160 1.236 . S
C148 O170 1.240 . S
C148 O171 1.264 . S
O149 Mn144 2.095 . S
O149 C158 1.250 . S
O150 Mn145 2.121 . S
O150 C158 1.258 . S
C151 N152 1.326 . S
C151 C155 1.460 . S
C151 H157 0.918 1_455 S
N152 Mn145 2.257 1_455 S
N152 C151 1.326 . S
N152 C156 1.362 . S
C153 C154 1.258 . S
C153 C156 1.431 . S
C153 C173 1.449 . S
C154 C153 1.258 . S
C154 C155 1.477 . S
C154 H174 0.931 . S
C155 C151 1.460 . S
C155 C154 1.477 . S
C155 H175 0.930 . S
C156 N152 1.362 . S
C156 C153 1.431 . S
C156 C166 1.476 . S
H157 C151 0.918 1_655 S
C158 O149 1.250 . S
C158 O150 1.258 . S
O159 Mn144 2.162 . S
O159 C147 1.281 . S
O160 Mn144 2.297 . S
O160 C147 1.236 . S
N161 Mn145 2.282 1_455 S
N161 C162 1.328 . S
N161 C166 1.318 . S
C162 N161 1.328 . S
C162 C163 1.457 . S
C162 H167 0.929 . S
C163 C162 1.457 . S
C163 C164 1.291 . S
C163 H176 0.931 . S
C164 C163 1.291 . S
C164 C165 1.373 . S
C164 H177 0.929 . S
C165 C164 1.373 . S
C165 C166 1.396 . S
C165 C172 1.403 . S
C166 C156 1.476 . S
C166 N161 1.318 . S
C166 C165 1.396 . S
H167 C162 0.929 . S
O168 Mn144 2.385 . S
O168 C146 1.234 . S
O169 Mn144 2.209 . S
O169 Mn145 2.215 . S
O169 C146 1.283 . S
O170 Mn144 2.094 . S
O170 C148 1.240 . S
O171 Mn145 2.117 . S
O171 C148 1.264 . S
C172 C165 1.403 . S
C172 C173 1.399 . S
C172 H178 0.929 . S
C173 C153 1.449 . S
C173 C172 1.399 . S
C173 H179 0.930 . S
H174 C154 0.931 . S
H175 C155 0.930 . S
H176 C163 0.931 . S
H177 C164 0.929 . S
H178 C172 0.929 . S
H179 C173 0.930 . S
Mn180 O185 2.095 . S
Mn180 O195 2.162 . S
Mn180 O196 2.297 . S
Mn180 O204 2.385 . S
Mn180 O205 2.209 . S
Mn180 O206 2.094 . S
Mn181 O186 2.121 . S
Mn181 N188 2.257 1_545 S
Mn181 N197 2.282 1_545 S
Mn181 O205 2.215 . S
Mn181 O207 2.117 . S
C182 O204 1.234 . S
C182 O205 1.283 . S
C183 O195 1.281 . S
C183 O196 1.236 . S
C184 O206 1.240 . S
C184 O207 1.264 . S
O185 Mn180 2.095 . S
O185 C194 1.250 . S
O186 Mn181 2.121 . S
O186 C194 1.258 . S
C187 N188 1.326 . S
C187 C191 1.460 . S
C187 H193 0.929 1_565 S
N188 Mn181 2.257 1_565 S
N188 C187 1.326 . S
N188 C192 1.362 . S
C189 C190 1.258 . S
C189 C192 1.431 . S
C189 C209 1.449 . S
C190 C189 1.258 . S
C190 C191 1.477 . S
C190 H210 0.931 . S
C191 C187 1.460 . S
C191 C190 1.477 . S
C191 H211 0.930 . S
C192 N188 1.362 . S
C192 C189 1.431 . S
C192 C202 1.476 . S
H193 C187 0.929 1_545 S
C194 O185 1.250 . S
C194 O186 1.258 . S
O195 Mn180 2.162 . S
O195 C183 1.281 . S
O196 Mn180 2.297 . S
O196 C183 1.236 . S
N197 Mn181 2.282 1_565 S
N197 C198 1.328 . S
N197 C202 1.318 . S
C198 N197 1.328 . S
C198 C199 1.457 . S
C198 H203 0.929 . S
C199 C198 1.457 . S
C199 C200 1.291 . S
C199 H212 0.931 . S
C200 C199 1.291 . S
C200 C201 1.373 . S
C200 H213 0.929 . S
C201 C200 1.373 . S
C201 C202 1.396 . S
C201 C208 1.403 . S
C202 C192 1.476 . S
C202 N197 1.318 . S
C202 C201 1.396 . S
H203 C198 0.929 . S
O204 Mn180 2.385 . S
O204 C182 1.234 . S
O205 Mn180 2.209 . S
O205 Mn181 2.215 . S
O205 C182 1.283 . S
O206 Mn180 2.094 . S
O206 C184 1.240 . S
O207 Mn181 2.117 . S
O207 C184 1.264 . S
C208 C201 1.403 . S
C208 C209 1.399 . S
C208 H214 0.929 . S
C209 C189 1.449 . S
C209 C208 1.399 . S
C209 H215 0.930 . S
H210 C190 0.931 . S
H211 C191 0.930 . S
H212 C199 0.931 . S
H213 C200 0.929 . S
H214 C208 0.929 . S
H215 C209 0.930 . S
Mn216 O221 2.095 . S
Mn216 O231 2.162 . S
Mn216 O232 2.297 . S
Mn216 O240 2.385 . S
Mn216 O241 2.209 . S
Mn216 O242 2.094 . S
Mn217 O222 2.121 . S
Mn217 N224 2.257 1_455 S
Mn217 N233 2.282 1_455 S
Mn217 O241 2.215 . S
Mn217 O243 2.117 . S
C218 O240 1.234 . S
C218 O241 1.283 . S
C219 O231 1.281 . S
C219 O232 1.236 . S
C220 O242 1.240 . S
C220 O243 1.264 . S
O221 Mn216 2.095 . S
O221 C230 1.250 . S
O222 Mn217 2.121 . S
O222 C230 1.258 . S
C223 N224 1.326 . S
C223 C227 1.460 . S
C223 H229 0.918 1_655 S
N224 Mn217 2.257 1_655 S
N224 C223 1.326 . S
N224 C228 1.362 . S
C225 C226 1.258 . S
C225 C228 1.431 . S
C225 C245 1.449 . S
C226 C225 1.258 . S
C226 C227 1.477 . S
C226 H246 0.931 . S
C227 C223 1.460 . S
C227 C226 1.477 . S
C227 H247 0.930 . S
C228 N224 1.362 . S
C228 C225 1.431 . S
C228 C238 1.476 . S
H229 C223 0.918 1_455 S
C230 O221 1.250 . S
C230 O222 1.258 . S
O231 Mn216 2.162 . S
O231 C219 1.281 . S
O232 Mn216 2.297 . S
O232 C219 1.236 . S
N233 Mn217 2.282 1_655 S
N233 C234 1.328 . S
N233 C238 1.318 . S
C234 N233 1.328 . S
C234 C235 1.457 . S
C234 H239 0.929 . S
C235 C234 1.457 . S
C235 C236 1.291 . S
C235 H248 0.931 . S
C236 C235 1.291 . S
C236 C237 1.373 . S
C236 H249 0.929 . S
C237 C236 1.373 . S
C237 C238 1.396 . S
C237 C244 1.403 . S
C238 C228 1.476 . S
C238 N233 1.318 . S
C238 C237 1.396 . S
H239 C234 0.929 . S
O240 Mn216 2.385 . S
O240 C218 1.234 . S
O241 Mn216 2.209 . S
O241 Mn217 2.215 . S
O241 C218 1.283 . S
O242 Mn216 2.094 . S
O242 C220 1.240 . S
O243 Mn217 2.117 . S
O243 C220 1.264 . S
C244 C237 1.403 . S
C244 C245 1.399 . S
C244 H250 0.929 . S
C245 C225 1.449 . S
C245 C244 1.399 . S
C245 H251 0.930 . S
H246 C226 0.931 . S
H247 C227 0.930 . S
H248 C235 0.931 . S
H249 C236 0.929 . S
H250 C244 0.929 . S
H251 C245 0.930 . S
Mn252 O257 2.095 . S
Mn252 O267 2.162 . S
Mn252 O268 2.297 . S
Mn252 O276 2.385 . S
Mn252 O277 2.209 . S
Mn252 O278 2.094 . S
Mn253 O258 2.121 . S
Mn253 N260 2.257 1_565 S
Mn253 N269 2.282 1_565 S
Mn253 O277 2.215 . S
Mn253 O279 2.117 . S
C254 O276 1.234 . S
C254 O277 1.283 . S
C255 O267 1.281 . S
C255 O268 1.236 . S
C256 O278 1.240 . S
C256 O279 1.264 . S
O257 Mn252 2.095 . S
O257 C266 1.250 . S
O258 Mn253 2.121 . S
O258 C266 1.258 . S
C259 N260 1.326 . S
C259 C263 1.460 . S
C259 H265 0.929 1_545 S
N260 Mn253 2.257 1_545 S
N260 C259 1.326 . S
N260 C264 1.362 . S
C261 C262 1.258 . S
C261 C264 1.431 . S
C261 C281 1.449 . S
C262 C261 1.258 . S
C262 C263 1.477 . S
C262 H282 0.931 . S
C263 C259 1.460 . S
C263 C262 1.477 . S
C263 H283 0.930 . S
C264 N260 1.362 . S
C264 C261 1.431 . S
C264 C274 1.476 . S
H265 C259 0.929 1_565 S
C266 O257 1.250 . S
C266 O258 1.258 . S
O267 Mn252 2.162 . S
O267 C255 1.281 . S
O268 Mn252 2.297 . S
O268 C255 1.236 . S
N269 Mn253 2.282 1_545 S
N269 C270 1.328 . S
N269 C274 1.318 . S
C270 N269 1.328 . S
C270 C271 1.457 . S
C270 H275 0.929 . S
C271 C270 1.457 . S
C271 C272 1.291 . S
C271 H284 0.931 . S
C272 C271 1.291 . S
C272 C273 1.373 . S
C272 H285 0.929 . S
C273 C272 1.373 . S
C273 C274 1.396 . S
C273 C280 1.403 . S
C274 C264 1.476 . S
C274 N269 1.318 . S
C274 C273 1.396 . S
H275 C270 0.929 . S
O276 Mn252 2.385 . S
O276 C254 1.234 . S
O277 Mn252 2.209 . S
O277 Mn253 2.215 . S
O277 C254 1.283 . S
O278 Mn252 2.094 . S
O278 C256 1.240 . S
O279 Mn253 2.117 . S
O279 C256 1.264 . S
C280 C273 1.403 . S
C280 C281 1.399 . S
C280 H286 0.929 . S
C281 C261 1.449 . S
C281 C280 1.399 . S
C281 H287 0.930 . S
H282 C262 0.931 . S
H283 C263 0.930 . S
H284 C271 0.931 . S
H285 C272 0.929 . S
H286 C280 0.929 . S
H287 C281 0.930 . S
C288 C289 1.391 . S
C288 C290 1.394 . S
C288 H304 0.931 . S
C289 C288 1.391 . S
C289 C293 1.376 . S
C290 C288 1.394 . S
C290 C291 1.369 . S
C290 C294 1.531 . S
C291 C290 1.369 . S
C291 C292 1.410 . S
C291 C299 1.503 1_655 S
C292 C291 1.410 . S
C292 C293 1.392 . S
C292 C295 1.511 1_655 S
C293 C289 1.376 . S
C293 C292 1.392 . S
C293 H305 0.929 . S
C294 C290 1.531 . S
C294 H306 0.960 . S
C294 H307 0.962 . S
C294 H308 0.960 . S
C295 C292 1.511 1_455 S
C295 H309 0.961 . S
C295 H310 0.961 . S
C295 H311 0.961 . S
C296 C297 1.370 . S
C296 C298 1.363 . S
C296 H312 0.931 . S
C297 C296 1.370 . S
C297 C301 1.408 . S
C298 C296 1.363 . S
C298 C299 1.370 . S
C298 C302 1.524 . S
C299 C291 1.503 1_455 S
C299 C298 1.370 . S
C299 C300 1.403 1_455 S
C300 C299 1.403 1_655 S
C300 C301 1.404 1_655 S
C300 C303 1.539 . S
C301 C297 1.408 . S
C301 C300 1.404 1_455 S
C301 H313 0.930 . S
C302 C298 1.524 . S
C302 H314 0.956 . S
C302 H315 0.961 . S
C302 H316 0.961 . S
C303 C300 1.539 . S
C303 H317 0.958 . S
C303 H318 0.961 . S
C303 H319 0.960 . S
H304 C288 0.931 . S
H305 C293 0.929 . S
H306 C294 0.960 . S
H307 C294 0.962 . S
H308 C294 0.960 . S
H309 C295 0.961 . S
H310 C295 0.961 . S
H311 C295 0.961 . S
H312 C296 0.931 . S
H313 C301 0.930 . S
H314 C302 0.956 . S
H315 C302 0.961 . S
H316 C302 0.961 . S
H317 C303 0.958 . S
H318 C303 0.961 . S
H319 C303 0.960 . S
C320 C321 1.391 . S
C320 C322 1.394 . S
C320 H336 0.931 . S
C321 C320 1.391 . S
C321 C325 1.376 . S
C322 C320 1.394 . S
C322 C323 1.369 . S
C322 C326 1.531 1_545 S
C323 C322 1.369 . S
C323 C324 1.410 . S
C323 C331 1.503 1_545 S
C324 C323 1.410 . S
C324 C325 1.392 . S
C324 C327 1.511 . S
C325 C321 1.376 . S
C325 C324 1.392 . S
C325 H337 0.929 . S
C326 C322 1.531 1_565 S
C326 H338 0.960 . S
C326 H339 0.962 . S
C326 H340 0.960 . S
C327 C324 1.511 . S
C327 H341 0.961 . S
C327 H342 0.961 . S
C327 H343 0.961 . S
C328 C329 1.370 . S
C328 C330 1.363 . S
C328 H344 0.931 . S
C329 C328 1.370 . S
C329 C333 1.408 . S
C330 C328 1.363 . S
C330 C331 1.370 . S
C330 C334 1.524 1_565 S
C331 C323 1.503 1_565 S
C331 C330 1.370 . S
C331 C332 1.403 . S
C332 C331 1.403 . S
C332 C333 1.404 . S
C332 C335 1.539 . S
C333 C329 1.408 . S
C333 C332 1.404 . S
C333 H345 0.930 . S
C334 C330 1.524 1_545 S
C334 H346 0.956 . S
C334 H347 0.961 . S
C334 H348 0.961 . S
C335 C332 1.539 . S
C335 H349 0.958 . S
C335 H350 0.961 . S
C335 H351 0.960 . S
H336 C320 0.931 . S
H337 C325 0.929 . S
H338 C326 0.960 . S
H339 C326 0.962 . S
H340 C326 0.960 . S
H341 C327 0.961 . S
H342 C327 0.961 . S
H343 C327 0.961 . S
H344 C328 0.931 . S
H345 C333 0.930 . S
H346 C334 0.956 . S
H347 C334 0.961 . S
H348 C334 0.961 . S
H349 C335 0.958 . S
H350 C335 0.961 . S
H351 C335 0.960 . S
C352 C353 1.391 . S
C352 C354 1.394 . S
C352 H368 0.931 . S
C353 C352 1.391 . S
C353 C357 1.376 . S
C354 C352 1.394 . S
C354 C355 1.369 . S
C354 C358 1.531 . S
C355 C354 1.369 . S
C355 C356 1.410 . S
C355 C363 1.503 1_655 S
C356 C355 1.410 . S
C356 C357 1.392 . S
C356 C359 1.511 1_655 S
C357 C353 1.376 . S
C357 C356 1.392 . S
C357 H369 0.929 . S
C358 C354 1.531 . S
C358 H370 0.960 . S
C358 H371 0.962 . S
C358 H372 0.960 . S
C359 C356 1.511 1_455 S
C359 H373 0.961 . S
C359 H374 0.961 . S
C359 H375 0.961 . S
C360 C361 1.370 . S
C360 C362 1.363 . S
C360 H376 0.931 . S
C361 C360 1.370 . S
C361 C365 1.408 . S
C362 C360 1.363 . S
C362 C363 1.370 . S
C362 C366 1.524 . S
C363 C355 1.503 1_455 S
C363 C362 1.370 . S
C363 C364 1.407 . S
C364 C363 1.407 . S
C364 C365 1.415 . S
C364 C367 1.525 1_455 S
C365 C361 1.408 . S
C365 C364 1.415 . S
C365 H377 0.930 . S
C366 C362 1.524 . S
C366 H378 0.956 . S
C366 H379 0.961 . S
C366 H380 0.961 . S
C367 C364 1.525 1_655 S
C367 H381 0.958 . S
C367 H382 0.961 . S
C367 H383 0.960 . S
H368 C352 0.931 . S
H369 C357 0.929 . S
H370 C358 0.960 . S
H371 C358 0.962 . S
H372 C358 0.960 . S
H373 C359 0.961 . S
H374 C359 0.961 . S
H375 C359 0.961 . S
H376 C360 0.931 . S
H377 C365 0.930 . S
H378 C366 0.956 . S
H379 C366 0.961 . S
H380 C366 0.961 . S
H381 C367 0.958 . S
H382 C367 0.961 . S
H383 C367 0.960 . S
C384 C385 1.391 . S
C384 C386 1.394 . S
C384 H400 0.931 . S
C385 C384 1.391 . S
C385 C389 1.376 . S
C386 C384 1.394 . S
C386 C387 1.369 . S
C386 C390 1.531 . S
C387 C386 1.369 . S
C387 C388 1.410 . S
C387 C395 1.503 1_545 S
C388 C387 1.410 . S
C388 C389 1.392 . S
C388 C391 1.511 1_545 S
C389 C385 1.376 . S
C389 C388 1.392 . S
C389 H401 0.929 . S
C390 C386 1.531 . S
C390 H402 0.960 . S
C390 H403 0.962 . S
C390 H404 0.960 . S
C391 C388 1.511 1_565 S
C391 H405 0.961 . S
C391 H406 0.961 . S
C391 H407 0.961 . S
C392 C393 1.370 . S
C392 C394 1.363 . S
C392 H408 0.931 . S
C393 C392 1.370 . S
C393 C397 1.408 . S
C394 C392 1.363 . S
C394 C395 1.370 . S
C394 C398 1.524 . S
C395 C387 1.503 1_565 S
C395 C394 1.370 . S
C395 C396 1.403 . S
C396 C395 1.403 . S
C396 C397 1.404 . S
C396 C399 1.539 1_565 S
C397 C393 1.408 . S
C397 C396 1.404 . S
C397 H409 0.930 . S
C398 C394 1.524 . S
C398 H410 0.956 . S
C398 H411 0.961 . S
C398 H412 0.961 . S
C399 C396 1.539 1_545 S
C399 H413 0.958 . S
C399 H414 0.949 1_545 S
C399 H415 0.960 . S
H400 C384 0.931 . S
H401 C389 0.929 . S
H402 C390 0.960 . S
H403 C390 0.962 . S
H404 C390 0.960 . S
H405 C391 0.961 . S
H406 C391 0.961 . S
H407 C391 0.961 . S
H408 C392 0.931 . S
H409 C397 0.930 . S
H410 C398 0.956 . S
H411 C398 0.961 . S
H412 C398 0.961 . S
H413 C399 0.958 . S
H414 C399 0.949 1_565 S
H415 C399 0.960 . S
C416 C417 1.391 . S
C416 C418 1.394 . S
C416 H432 0.931 1_545 S
C417 C416 1.391 . S
C417 C421 1.376 . S
C418 C416 1.394 . S
C418 C419 1.369 . S
C418 C422 1.531 . S
C419 C418 1.369 . S
C419 C420 1.410 . S
C419 C427 1.503 . S
C420 C419 1.410 . S
C420 C421 1.392 . S
C420 C423 1.511 . S
C421 C417 1.376 . S
C421 C420 1.392 . S
C421 H433 0.929 . S
C422 C418 1.531 . S
C422 H434 0.960 . S
C422 H435 0.962 . S
C422 H436 0.960 . S
C423 C420 1.511 . S
C423 H437 0.961 . S
C423 H438 0.961 . S
C423 H439 0.961 . S
C424 C425 1.370 . S
C424 C426 1.363 . S
C424 H440 0.931 . S
C425 C424 1.370 . S
C425 C429 1.408 . S
C426 C424 1.363 . S
C426 C427 1.370 . S
C426 C430 1.524 . S
C427 C419 1.503 . S
C427 C426 1.370 . S
C427 C428 1.403 . S
C428 C427 1.403 . S
C428 C429 1.404 . S
C428 C431 1.539 . S
C429 C425 1.408 . S
C429 C428 1.404 . S
C429 H441 0.930 . S
C430 C426 1.524 . S
C430 H442 0.956 . S
C430 H443 0.961 . S
C430 H444 0.961 . S
C431 C428 1.539 . S
C431 H445 0.958 . S
C431 H446 0.961 . S
C431 H447 0.960 . S
H432 C416 0.931 1_565 S
H433 C421 0.929 . S
H434 C422 0.960 . S
H435 C422 0.962 . S
H436 C422 0.960 . S
H437 C423 0.961 . S
H438 C423 0.961 . S
H439 C423 0.961 . S
H440 C424 0.931 . S
H441 C429 0.930 . S
H442 C430 0.956 . S
H443 C430 0.961 . S
H444 C430 0.961 . S
H445 C431 0.958 . S
H446 C431 0.961 . S
H447 C431 0.960 . S
C448 C449 1.391 . S
C448 C450 1.394 . S
C448 H464 0.931 . S
C449 C448 1.391 . S
C449 C453 1.376 . S
C450 C448 1.394 . S
C450 C451 1.369 . S
C450 C454 1.531 . S
C451 C450 1.369 . S
C451 C452 1.410 . S
C451 C459 1.503 . S
C452 C451 1.410 . S
C452 C453 1.392 . S
C452 C455 1.511 . S
C453 C449 1.376 . S
C453 C452 1.392 . S
C453 H465 0.929 . S
C454 C450 1.531 . S
C454 H466 0.960 . S
C454 H467 0.962 . S
C454 H468 0.960 . S
C455 C452 1.511 . S
C455 H469 0.961 . S
C455 H470 0.961 . S
C455 H471 0.961 . S
C456 C457 1.370 . S
C456 C458 1.363 . S
C456 H472 0.931 . S
C457 C456 1.370 . S
C457 C461 1.408 . S
C458 C456 1.363 . S
C458 C459 1.370 . S
C458 C462 1.524 . S
C459 C451 1.503 . S
C459 C458 1.370 . S
C459 C460 1.403 . S
C460 C459 1.403 . S
C460 C461 1.404 . S
C460 C463 1.539 . S
C461 C457 1.408 . S
C461 C460 1.404 . S
C461 H473 0.930 . S
C462 C458 1.524 . S
C462 H474 0.956 . S
C462 H475 0.961 . S
C462 H476 0.961 . S
C463 C460 1.539 . S
C463 H477 0.958 . S
C463 H478 0.961 . S
C463 H479 0.960 . S
H464 C448 0.931 . S
H465 C453 0.929 . S
H466 C454 0.960 . S
H467 C454 0.962 . S
H468 C454 0.960 . S
H469 C455 0.961 . S
H470 C455 0.961 . S
H471 C455 0.961 . S
H472 C456 0.931 . S
H473 C461 0.930 . S
H474 C462 0.956 . S
H475 C462 0.961 . S
H476 C462 0.961 . S
H477 C463 0.958 . S
H478 C463 0.961 . S
H479 C463 0.960 . S
C480 C481 1.391 . S
C480 C482 1.394 . S
C480 H496 0.931 1_565 S
C481 C480 1.391 . S
C481 C485 1.376 . S
C482 C480 1.394 . S
C482 C483 1.369 . S
C482 C486 1.531 . S
C483 C482 1.369 . S
C483 C484 1.410 . S
C483 C491 1.503 . S
C484 C483 1.410 . S
C484 C485 1.392 . S
C484 C487 1.511 . S
C485 C481 1.376 . S
C485 C484 1.392 . S
C485 H497 0.929 . S
C486 C482 1.531 . S
C486 H498 0.960 . S
C486 H499 0.962 . S
C486 H500 0.960 . S
C487 C484 1.511 . S
C487 H501 0.961 . S
C487 H502 0.961 . S
C487 H503 0.961 . S
C488 C489 1.370 . S
C488 C490 1.363 . S
C488 H504 0.931 . S
C489 C488 1.370 . S
C489 C493 1.408 . S
C490 C488 1.363 . S
C490 C491 1.370 . S
C490 C494 1.524 . S
C491 C483 1.503 . S
C491 C490 1.370 . S
C491 C492 1.403 . S
C492 C491 1.403 . S
C492 C493 1.404 . S
C492 C495 1.539 . S
C493 C489 1.408 . S
C493 C492 1.404 . S
C493 H505 0.930 . S
C494 C490 1.524 . S
C494 H506 0.956 . S
C494 H507 0.961 . S
C494 H508 0.961 . S
C495 C492 1.539 . S
C495 H509 0.958 . S
C495 H510 0.961 . S
C495 H511 0.960 . S
H496 C480 0.931 1_545 S
H497 C485 0.929 . S
H498 C486 0.960 . S
H499 C486 0.962 . S
H500 C486 0.960 . S
H501 C487 0.961 . S
H502 C487 0.961 . S
H503 C487 0.961 . S
H504 C488 0.931 . S
H505 C493 0.930 . S
H506 C494 0.956 . S
H507 C494 0.961 . S
H508 C494 0.961 . S
H509 C495 0.958 . S
H510 C495 0.961 . S
H511 C495 0.960 . S
C512 C513 1.391 . S
C512 C514 1.394 . S
C512 H528 0.931 . S
C513 C512 1.391 . S
C513 C517 1.376 . S
C514 C512 1.394 . S
C514 C515 1.369 . S
C514 C518 1.531 . S
C515 C514 1.369 . S
C515 C516 1.410 . S
C515 C523 1.503 . S
C516 C515 1.410 . S
C516 C517 1.392 . S
C516 C519 1.511 . S
C517 C513 1.376 . S
C517 C516 1.392 . S
C517 H529 0.929 . S
C518 C514 1.531 . S
C518 H530 0.960 . S
C518 H531 0.962 . S
C518 H532 0.960 . S
C519 C516 1.511 . S
C519 H533 0.961 . S
C519 H534 0.961 . S
C519 H535 0.961 . S
C520 C521 1.370 . S
C520 C522 1.363 . S
C520 H536 0.931 1_655 S
C521 C520 1.370 . S
C521 C525 1.408 . S
C522 C520 1.363 . S
C522 C523 1.370 . S
C522 C526 1.524 . S
C523 C515 1.503 . S
C523 C522 1.370 . S
C523 C524 1.403 . S
C524 C523 1.403 . S
C524 C525 1.404 . S
C524 C527 1.539 . S
C525 C521 1.408 . S
C525 C524 1.404 . S
C525 H537 0.930 . S
C526 C522 1.524 . S
C526 H538 0.956 . S
C526 H539 0.961 . S
C526 H540 0.961 . S
C527 C524 1.539 . S
C527 H541 0.958 . S
C527 H542 0.961 . S
C527 H543 0.960 . S
H528 C512 0.931 . S
H529 C517 0.929 . S
H530 C518 0.960 . S
H531 C518 0.962 . S
H532 C518 0.960 . S
H533 C519 0.961 . S
H534 C519 0.961 . S
H535 C519 0.961 . S
H536 C520 0.931 1_455 S
H537 C525 0.930 . S
H538 C526 0.956 . S
H539 C526 0.961 . S
H540 C526 0.961 . S
H541 C527 0.958 . S
H542 C527 0.961 . S
H543 C527 0.960 . S
C544 C545 1.391 1_545 S
C544 C546 1.394 . S
C544 H560 0.931 . S
C545 C544 1.391 1_565 S
C545 C549 1.376 1_565 S
C546 C544 1.394 . S
C546 C547 1.369 . S
C546 C550 1.531 . S
C547 C546 1.369 . S
C547 C548 1.410 . S
C547 C555 1.503 1_556 S
C548 C547 1.410 . S
C548 C549 1.392 . S
C548 C551 1.511 . S
C549 C545 1.376 1_545 S
C549 C548 1.392 . S
C549 H561 0.929 1_545 S
C550 C546 1.531 . S
C550 H562 0.960 . S
C550 H563 0.962 . S
C550 H564 0.960 . S
C551 C548 1.511 . S
C551 H565 0.961 . S
C551 H566 0.961 1_556 S
C551 H567 0.961 1_556 S
C552 C553 1.370 . S
C552 C554 1.363 1_554 S
C552 H568 0.931 1_554 S
C553 C552 1.370 . S
C553 C557 1.408 . S
C554 C552 1.363 1_556 S
C554 C555 1.370 1_556 S
C554 C558 1.524 . S
C555 C547 1.503 1_554 S
C555 C554 1.370 1_554 S
C555 C556 1.403 . S
C556 C555 1.403 . S
C556 C557 1.404 . S
C556 C559 1.539 . S
C557 C553 1.408 . S
C557 C556 1.404 . S
C557 H569 0.930 . S
C558 C554 1.524 . S
C558 H570 0.956 . S
C558 H571 0.961 . S
C558 H572 0.961 . S
C559 C556 1.539 . S
C559 H573 0.958 . S
C559 H574 0.961 . S
C559 H575 0.960 . S
H560 C544 0.931 . S
H561 C549 0.929 1_565 S
H562 C550 0.960 . S
H563 C550 0.962 . S
H564 C550 0.960 . S
H565 C551 0.961 . S
H566 C551 0.961 1_554 S
H567 C551 0.961 1_554 S
H568 C552 0.931 1_556 S
H569 C557 0.930 . S
H570 C558 0.956 . S
H571 C558 0.961 . S
H572 C558 0.961 . S
H573 C559 0.958 . S
H574 C559 0.961 . S
H575 C559 0.960 . S
C576 C577 1.391 . S
C576 C578 1.394 . S
C576 H592 0.931 . S
C577 C576 1.391 . S
C577 C581 1.376 . S
C578 C576 1.394 . S
C578 C579 1.369 . S
C578 C582 1.531 . S
C579 C578 1.369 . S
C579 C580 1.410 1_556 S
C579 C587 1.503 1_556 S
C580 C579 1.410 1_554 S
C580 C581 1.392 1_554 S
C580 C583 1.511 . S
C581 C577 1.376 . S
C581 C580 1.392 1_556 S
C581 H593 0.929 . S
C582 C578 1.531 . S
C582 H594 0.960 . S
C582 H595 0.962 . S
C582 H596 0.960 . S
C583 C580 1.511 . S
C583 H597 0.961 . S
C583 H598 0.961 . S
C583 H599 0.961 . S
C584 C585 1.370 . S
C584 C586 1.363 . S
C584 H600 0.931 . S
C585 C584 1.370 . S
C585 C589 1.408 . S
C586 C584 1.363 . S
C586 C587 1.370 . S
C586 C590 1.524 1_554 S
C587 C579 1.503 1_554 S
C587 C586 1.370 . S
C587 C588 1.403 . S
C588 C587 1.403 . S
C588 C589 1.404 . S
C588 C591 1.539 . S
C589 C585 1.408 . S
C589 C588 1.404 . S
C589 H601 0.930 . S
C590 C586 1.524 1_556 S
C590 H602 0.956 . S
C590 H603 0.961 . S
C590 H604 0.961 . S
C591 C588 1.539 . S
C591 H605 0.958 . S
C591 H606 0.961 . S
C591 H607 0.960 . S
H592 C576 0.931 . S
H593 C581 0.929 . S
H594 C582 0.960 . S
H595 C582 0.962 . S
H596 C582 0.960 . S
H597 C583 0.961 . S
H598 C583 0.961 . S
H599 C583 0.961 . S
H600 C584 0.931 . S
H601 C589 0.930 . S
H602 C590 0.956 . S
H603 C590 0.961 . S
H604 C590 0.961 . S
H605 C591 0.958 . S
H606 C591 0.961 . S
H607 C591 0.960 . S
C608 C609 1.391 . S
C608 C610 1.394 1_554 S
C608 H624 0.931 . S
C609 C608 1.391 . S
C609 C613 1.376 . S
C610 C608 1.394 1_556 S
C610 C611 1.369 . S
C610 C614 1.531 . S
C611 C610 1.369 . S
C611 C612 1.410 1_556 S
C611 C619 1.503 . S
C612 C611 1.410 1_554 S
C612 C613 1.392 . S
C612 C615 1.511 . S
C613 C609 1.376 . S
C613 C612 1.392 . S
C613 H625 0.929 . S
C614 C610 1.531 . S
C614 H626 0.960 . S
C614 H627 0.962 . S
C614 H628 0.960 . S
C615 C612 1.511 . S
C615 H629 0.961 . S
C615 H630 0.961 . S
C615 H631 0.961 . S
C616 C617 1.372 . S
C616 C618 1.363 . S
C616 H632 0.931 1_565 S
C617 C616 1.372 . S
C617 C621 1.414 . S
C618 C616 1.363 . S
C618 C619 1.370 . S
C618 C622 1.524 1_556 S
C619 C611 1.503 . S
C619 C618 1.370 . S
C619 C620 1.403 . S
C620 C619 1.403 . S
C620 C621 1.404 . S
C620 C623 1.539 . S
C621 C617 1.414 . S
C621 C620 1.404 . S
C621 H633 0.930 . S
C622 C618 1.524 1_554 S
C622 H634 0.956 . S
C622 H635 0.961 . S
C622 H636 0.961 . S
C623 C620 1.539 . S
C623 H637 0.958 . S
C623 H638 0.961 . S
C623 H639 0.960 . S
H624 C608 0.931 . S
H625 C613 0.929 . S
H626 C614 0.960 . S
H627 C614 0.962 . S
H628 C614 0.960 . S
H629 C615 0.961 . S
H630 C615 0.961 . S
H631 C615 0.961 . S
H632 C616 0.931 1_545 S
H633 C621 0.930 . S
H634 C622 0.956 . S
H635 C622 0.961 . S
H636 C622 0.961 . S
H637 C623 0.958 . S
H638 C623 0.961 . S
H639 C623 0.960 . S
C640 C641 1.391 . S
C640 C642 1.394 . S
C640 H656 0.931 . S
C641 C640 1.391 . S
C641 C645 1.376 . S
C642 C640 1.394 . S
C642 C643 1.366 . S
C642 C646 1.531 . S
C643 C642 1.366 . S
C643 C644 1.410 1_556 S
C643 C651 1.505 1_556 S
C644 C643 1.410 1_554 S
C644 C645 1.392 1_554 S
C644 C647 1.511 . S
C645 C641 1.376 . S
C645 C644 1.392 1_556 S
C645 H657 0.929 . S
C646 C642 1.531 . S
C646 H658 0.960 . S
C646 H659 0.962 . S
C646 H660 0.960 . S
C647 C644 1.511 . S
C647 H661 0.961 . S
C647 H662 0.961 . S
C647 H663 0.961 . S
C648 C649 1.370 . S
C648 C650 1.363 . S
C648 H664 0.931 . S
C649 C648 1.370 . S
C649 C653 1.408 . S
C650 C648 1.363 . S
C650 C651 1.370 . S
C650 C654 1.524 1_554 S
C651 C643 1.505 1_554 S
C651 C650 1.370 . S
C651 C652 1.403 . S
C652 C651 1.403 . S
C652 C653 1.404 . S
C652 C655 1.539 . S
C653 C649 1.408 . S
C653 C652 1.404 . S
C653 H665 0.930 . S
C654 C650 1.524 1_556 S
C654 H666 0.956 . S
C654 H667 0.961 . S
C654 H668 0.961 . S
C655 C652 1.539 . S
C655 H669 0.958 . S
C655 H670 0.961 . S
C655 H671 0.960 . S
H656 C640 0.931 . S
H657 C645 0.929 . S
H658 C646 0.960 . S
H659 C646 0.962 . S
H660 C646 0.960 . S
H661 C647 0.961 . S
H662 C647 0.961 . S
H663 C647 0.961 . S
H664 C648 0.931 . S
H665 C653 0.930 . S
H666 C654 0.956 . S
H667 C654 0.961 . S
H668 C654 0.961 . S
H669 C655 0.958 . S
H670 C655 0.961 . S
H671 C655 0.960 . S
C672 C673 1.391 . S
C672 C674 1.394 . S
C672 H688 0.931 . S
C673 C672 1.391 . S
C673 C677 1.376 . S
C674 C672 1.394 . S
C674 C675 1.369 . S
C674 C678 1.531 . S
C675 C674 1.369 . S
C675 C676 1.410 . S
C675 C683 1.503 . S
C676 C675 1.410 . S
C676 C677 1.392 . S
C676 C679 1.511 . S
C677 C673 1.376 . S
C677 C676 1.392 . S
C677 H689 0.929 . S
C678 C674 1.531 . S
C678 H690 0.960 . S
C678 H691 0.962 . S
C678 H692 0.960 . S
C679 C676 1.511 . S
C679 H693 0.961 . S
C679 H694 0.961 . S
C679 H695 0.961 . S
C680 C681 1.370 . S
C680 C682 1.363 . S
C680 H696 0.931 . S
C681 C680 1.370 . S
C681 C685 1.408 . S
C682 C680 1.363 . S
C682 C683 1.370 . S
C682 C686 1.524 . S
C683 C675 1.503 . S
C683 C682 1.370 . S
C683 C684 1.403 . S
C684 C683 1.403 . S
C684 C685 1.404 . S
C684 C687 1.539 . S
C685 C681 1.408 . S
C685 C684 1.404 . S
C685 H697 0.930 . S
C686 C682 1.524 . S
C686 H698 0.956 . S
C686 H699 0.961 . S
C686 H700 0.961 . S
C687 C684 1.539 . S
C687 H701 0.958 . S
C687 H702 0.961 . S
C687 H703 0.960 . S
H688 C672 0.931 . S
H689 C677 0.929 . S
H690 C678 0.960 . S
H691 C678 0.962 . S
H692 C678 0.960 . S
H693 C679 0.961 . S
H694 C679 0.961 . S
H695 C679 0.961 . S
H696 C680 0.931 . S
H697 C685 0.930 . S
H698 C686 0.956 . S
H699 C686 0.961 . S
H700 C686 0.961 . S
H701 C687 0.958 . S
H702 C687 0.961 . S
H703 C687 0.960 . S
C704 C705 1.391 . S
C704 C706 1.394 . S
C704 H720 0.931 . S
C705 C704 1.391 . S
C705 C709 1.376 . S
C706 C704 1.394 . S
C706 C707 1.369 . S
C706 C710 1.531 . S
C707 C706 1.369 . S
C707 C708 1.410 . S
C707 C715 1.503 . S
C708 C707 1.410 . S
C708 C709 1.392 . S
C708 C711 1.511 . S
C709 C705 1.376 . S
C709 C708 1.392 . S
C709 H721 0.929 . S
C710 C706 1.531 . S
C710 H722 0.960 . S
C710 H723 0.962 . S
C710 H724 0.960 . S
C711 C708 1.511 . S
C711 H725 0.961 . S
C711 H726 0.961 . S
C711 H727 0.961 . S
C712 C713 1.370 . S
C712 C714 1.363 . S
C712 H728 0.931 . S
C713 C712 1.370 . S
C713 C717 1.408 . S
C714 C712 1.363 . S
C714 C715 1.370 . S
C714 C718 1.524 . S
C715 C707 1.503 . S
C715 C714 1.370 . S
C715 C716 1.403 . S
C716 C715 1.403 . S
C716 C717 1.404 . S
C716 C719 1.539 . S
C717 C713 1.408 . S
C717 C716 1.404 . S
C717 H729 0.930 . S
C718 C714 1.524 . S
C718 H730 0.956 . S
C718 H731 0.961 . S
C718 H732 0.961 . S
C719 C716 1.539 . S
C719 H733 0.958 . S
C719 H734 0.961 . S
C719 H735 0.960 . S
H720 C704 0.931 . S
H721 C709 0.929 . S
H722 C710 0.960 . S
H723 C710 0.962 . S
H724 C710 0.960 . S
H725 C711 0.961 . S
H726 C711 0.961 . S
H727 C711 0.961 . S
H728 C712 0.931 . S
H729 C717 0.930 . S
H730 C718 0.956 . S
H731 C718 0.961 . S
H732 C718 0.961 . S
H733 C719 0.958 . S
H734 C719 0.961 . S
H735 C719 0.960 . S
C736 C737 1.391 . S
C736 C738 1.394 . S
C736 H752 0.931 . S
C737 C736 1.391 . S
C737 C741 1.376 . S
C738 C736 1.394 . S
C738 C739 1.369 . S
C738 C742 1.531 . S
C739 C738 1.369 . S
C739 C740 1.410 . S
C739 C747 1.503 . S
C740 C739 1.410 . S
C740 C741 1.392 . S
C740 C743 1.511 . S
C741 C737 1.376 . S
C741 C740 1.392 . S
C741 H753 0.929 . S
C742 C738 1.531 . S
C742 H754 0.960 . S
C742 H755 0.962 . S
C742 H756 0.960 . S
C743 C740 1.511 . S
C743 H757 0.961 . S
C743 H758 0.961 . S
C743 H759 0.961 . S
C744 C745 1.370 . S
C744 C746 1.363 . S
C744 H760 0.931 . S
C745 C744 1.370 . S
C745 C749 1.408 . S
C746 C744 1.363 . S
C746 C747 1.370 . S
C746 C750 1.524 . S
C747 C739 1.503 . S
C747 C746 1.370 . S
C747 C748 1.403 . S
C748 C747 1.403 . S
C748 C749 1.404 . S
C748 C751 1.539 . S
C749 C745 1.408 . S
C749 C748 1.404 . S
C749 H761 0.930 . S
C750 C746 1.524 . S
C750 H762 0.956 . S
C750 H763 0.961 . S
C750 H764 0.961 . S
C751 C748 1.539 . S
C751 H765 0.958 . S
C751 H766 0.961 . S
C751 H767 0.960 . S
H752 C736 0.931 . S
H753 C741 0.929 . S
H754 C742 0.960 . S
H755 C742 0.962 . S
H756 C742 0.960 . S
H757 C743 0.961 . S
H758 C743 0.961 . S
H759 C743 0.961 . S
H760 C744 0.931 . S
H761 C749 0.930 . S
H762 C750 0.956 . S
H763 C750 0.961 . S
H764 C750 0.961 . S
H765 C751 0.958 . S
H766 C751 0.961 . S
H767 C751 0.960 . S
C768 C769 1.391 . S
C768 C770 1.394 . S
C768 H784 0.931 . S
C769 C768 1.391 . S
C769 C773 1.376 . S
C770 C768 1.394 . S
C770 C771 1.369 . S
C770 C774 1.531 . S
C771 C770 1.369 . S
C771 C772 1.410 . S
C771 C779 1.503 . S
C772 C771 1.410 . S
C772 C773 1.392 . S
C772 C775 1.511 . S
C773 C769 1.376 . S
C773 C772 1.392 . S
C773 H785 0.929 . S
C774 C770 1.531 . S
C774 H786 0.960 . S
C774 H787 0.962 . S
C774 H788 0.960 . S
C775 C772 1.511 . S
C775 H789 0.961 . S
C775 H790 0.961 . S
C775 H791 0.961 . S
C776 C777 1.370 . S
C776 C778 1.363 . S
C776 H792 0.931 . S
C777 C776 1.370 . S
C777 C781 1.408 . S
C778 C776 1.363 . S
C778 C779 1.370 . S
C778 C782 1.524 . S
C779 C771 1.503 . S
C779 C778 1.370 . S
C779 C780 1.403 . S
C780 C779 1.403 . S
C780 C781 1.404 . S
C780 C783 1.539 . S
C781 C777 1.408 . S
C781 C780 1.404 . S
C781 H793 0.930 . S
C782 C778 1.524 . S
C782 H794 0.956 . S
C782 H795 0.961 . S
C782 H796 0.961 . S
C783 C780 1.539 . S
C783 H797 0.958 . S
C783 H798 0.961 . S
C783 H799 0.960 . S
H784 C768 0.931 . S
H785 C773 0.929 . S
H786 C774 0.960 . S
H787 C774 0.962 . S
H788 C774 0.960 . S
H789 C775 0.961 . S
H790 C775 0.961 . S
H791 C775 0.961 . S
H792 C776 0.931 . S
H793 C781 0.930 . S
H794 C782 0.956 . S
H795 C782 0.961 . S
H796 C782 0.961 . S
H797 C783 0.958 . S
H798 C783 0.961 . S
H799 C783 0.960 . S
C289 C76 1.418 . S
C297 C4 1.385 . S
C321 C122 1.533 . S
C329 C50 1.537 . S
C353 C148 1.424 . S
C361 C220 1.394 . S
C385 C184 1.443 . S
C393 C256 1.422 . S
C417 C39 0.965 1_545 S
C425 C3 0.973 . S
C449 C38 1.058 . S
C457 C74 1.143 1_455 S
C481 C111 0.965 1_565 S
C489 C75 0.969 . S
C513 C110 1.149 . S
C521 C2 1.145 1_655 S
C545 C254 1.042 . S
C553 C147 1.077 . S
C577 C183 0.992 . S
C585 C146 1.031 1_455 S
C609 C219 1.059 . S
C617 C182 1.084 1_565 S
C641 C255 0.998 . S
C649 C218 1.033 1_655 S
C673 C14 1.689 . S
C681 C194 1.675 . S
C705 C230 1.671 . S
C713 C40 1.672 . S
C737 C86 1.668 . S
C745 C266 1.686 . S
C769 C112 1.677 . S
C777 C158 1.671 . S
