# Generated by pormake.
# Topology cbo, (4)-cn, num edge types: 1
# Building blocks:
#     Node 0, Type 0, BuildingBlock: CEKHIL_clean_sbu_0, # of connection points: 4
#     Node 1, Type 0, BuildingBlock: CEKHIL_clean_sbu_0, # of connection points: 4
#     Node 2, Type 0, BuildingBlock: CEKHIL_clean_sbu_0, # of connection points: 4
#     Node 3, Type 0, BuildingBlock: CEKHIL_clean_sbu_0, # of connection points: 4
#     Node 4, Type 0, BuildingBlock: CEKHIL_clean_sbu_0, # of connection points: 4
#     Node 5, Type 0, BuildingBlock: CEKHIL_clean_sbu_0, # of connection points: 4
#     Node 6, Type 0, BuildingBlock: CEKHIL_clean_sbu_0, # of connection points: 4
#     Node 7, Type 0, BuildingBlock: CEKHIL_clean_sbu_0, # of connection points: 4
#     Node 8, Type 0, BuildingBlock: CEKHIL_clean_sbu_0, # of connection points: 4
#     Node 9, Type 0, BuildingBlock: CEKHIL_clean_sbu_0, # of connection points: 4
#     Node 10, Type 0, BuildingBlock: CEKHIL_clean_sbu_0, # of connection points: 4
#     Node 11, Type 0, BuildingBlock: CEKHIL_clean_sbu_0, # of connection points: 4
#     Node 12, Type 0, BuildingBlock: CEKHIL_clean_sbu_0, # of connection points: 4
#     Node 13, Type 0, BuildingBlock: CEKHIL_clean_sbu_0, # of connection points: 4
#     Node 14, Type 0, BuildingBlock: CEKHIL_clean_sbu_0, # of connection points: 4
#     Node 15, Type 0, BuildingBlock: CEKHIL_clean_sbu_0, # of connection points: 4
#     Node 16, Type 0, BuildingBlock: CEKHIL_clean_sbu_0, # of connection points: 4
#     Node 17, Type 0, BuildingBlock: CEKHIL_clean_sbu_0, # of connection points: 4
#     Node 18, Type 0, BuildingBlock: CEKHIL_clean_sbu_0, # of connection points: 4
#     Node 19, Type 0, BuildingBlock: CEKHIL_clean_sbu_0, # of connection points: 4
#     Node 20, Type 0, BuildingBlock: CEKHIL_clean_sbu_0, # of connection points: 4
#     Node 21, Type 0, BuildingBlock: CEKHIL_clean_sbu_0, # of connection points: 4
#     Node 22, Type 0, BuildingBlock: CEKHIL_clean_sbu_0, # of connection points: 4
#     Node 23, Type 0, BuildingBlock: CEKHIL_clean_sbu_0, # of connection points: 4
#     Edge 24, Type (0, 0), BuildingBlock: ZUJKAS_clean_linker_0, # of connection points: 2
#     Edge 25, Type (0, 0), BuildingBlock: ZUJKAS_clean_linker_0, # of connection points: 2
#     Edge 26, Type (0, 0), BuildingBlock: ZUJKAS_clean_linker_0, # of connection points: 2
#     Edge 27, Type (0, 0), BuildingBlock: ZUJKAS_clean_linker_0, # of connection points: 2
#     Edge 28, Type (0, 0), BuildingBlock: ZUJKAS_clean_linker_0, # of connection points: 2
#     Edge 29, Type (0, 0), BuildingBlock: ZUJKAS_clean_linker_0, # of connection points: 2
#     Edge 30, Type (0, 0), BuildingBlock: ZUJKAS_clean_linker_0, # of connection points: 2
#     Edge 31, Type (0, 0), BuildingBlock: ZUJKAS_clean_linker_0, # of connection points: 2
#     Edge 32, Type (0, 0), BuildingBlock: ZUJKAS_clean_linker_0, # of connection points: 2
#     Edge 33, Type (0, 0), BuildingBlock: ZUJKAS_clean_linker_0, # of connection points: 2
#     Edge 34, Type (0, 0), BuildingBlock: ZUJKAS_clean_linker_0, # of connection points: 2
#     Edge 35, Type (0, 0), BuildingBlock: ZUJKAS_clean_linker_0, # of connection points: 2
#     Edge 36, Type (0, 0), BuildingBlock: ZUJKAS_clean_linker_0, # of connection points: 2
#     Edge 37, Type (0, 0), BuildingBlock: ZUJKAS_clean_linker_0, # of connection points: 2
#     Edge 38, Type (0, 0), BuildingBlock: ZUJKAS_clean_linker_0, # of connection points: 2
#     Edge 39, Type (0, 0), BuildingBlock: ZUJKAS_clean_linker_0, # of connection points: 2
#     Edge 40, Type (0, 0), BuildingBlock: ZUJKAS_clean_linker_0, # of connection points: 2
#     Edge 41, Type (0, 0), BuildingBlock: ZUJKAS_clean_linker_0, # of connection points: 2
#     Edge 42, Type (0, 0), BuildingBlock: ZUJKAS_clean_linker_0, # of connection points: 2
#     Edge 43, Type (0, 0), BuildingBlock: ZUJKAS_clean_linker_0, # of connection points: 2
#     Edge 44, Type (0, 0), BuildingBlock: ZUJKAS_clean_linker_0, # of connection points: 2
#     Edge 45, Type (0, 0), BuildingBlock: ZUJKAS_clean_linker_0, # of connection points: 2
#     Edge 46, Type (0, 0), BuildingBlock: ZUJKAS_clean_linker_0, # of connection points: 2
#     Edge 47, Type (0, 0), BuildingBlock: ZUJKAS_clean_linker_0, # of connection points: 2
#     Edge 48, Type (0, 0), BuildingBlock: ZUJKAS_clean_linker_0, # of connection points: 2
#     Edge 49, Type (0, 0), BuildingBlock: ZUJKAS_clean_linker_0, # of connection points: 2
#     Edge 50, Type (0, 0), BuildingBlock: ZUJKAS_clean_linker_0, # of connection points: 2
#     Edge 51, Type (0, 0), BuildingBlock: ZUJKAS_clean_linker_0, # of connection points: 2
#     Edge 52, Type (0, 0), BuildingBlock: ZUJKAS_clean_linker_0, # of connection points: 2
#     Edge 53, Type (0, 0), BuildingBlock: ZUJKAS_clean_linker_0, # of connection points: 2
#     Edge 54, Type (0, 0), BuildingBlock: ZUJKAS_clean_linker_0, # of connection points: 2
#     Edge 55, Type (0, 0), BuildingBlock: ZUJKAS_clean_linker_0, # of connection points: 2
#     Edge 56, Type (0, 0), BuildingBlock: ZUJKAS_clean_linker_0, # of connection points: 2
#     Edge 57, Type (0, 0), BuildingBlock: ZUJKAS_clean_linker_0, # of connection points: 2
#     Edge 58, Type (0, 0), BuildingBlock: ZUJKAS_clean_linker_0, # of connection points: 2
#     Edge 59, Type (0, 0), BuildingBlock: ZUJKAS_clean_linker_0, # of connection points: 2
#     Edge 60, Type (0, 0), BuildingBlock: ZUJKAS_clean_linker_0, # of connection points: 2
#     Edge 61, Type (0, 0), BuildingBlock: ZUJKAS_clean_linker_0, # of connection points: 2
#     Edge 62, Type (0, 0), BuildingBlock: ZUJKAS_clean_linker_0, # of connection points: 2
#     Edge 63, Type (0, 0), BuildingBlock: ZUJKAS_clean_linker_0, # of connection points: 2
#     Edge 64, Type (0, 0), BuildingBlock: ZUJKAS_clean_linker_0, # of connection points: 2
#     Edge 65, Type (0, 0), BuildingBlock: ZUJKAS_clean_linker_0, # of connection points: 2
#     Edge 66, Type (0, 0), BuildingBlock: ZUJKAS_clean_linker_0, # of connection points: 2
#     Edge 67, Type (0, 0), BuildingBlock: ZUJKAS_clean_linker_0, # of connection points: 2
#     Edge 68, Type (0, 0), BuildingBlock: ZUJKAS_clean_linker_0, # of connection points: 2
#     Edge 69, Type (0, 0), BuildingBlock: ZUJKAS_clean_linker_0, # of connection points: 2
#     Edge 70, Type (0, 0), BuildingBlock: ZUJKAS_clean_linker_0, # of connection points: 2
#     Edge 71, Type (0, 0), BuildingBlock: ZUJKAS_clean_linker_0, # of connection points: 2
# Relax obj value: 0.197
# Max RMSD: 0.201
# Mean RMSD: 0.196
data_MOF--net-cbo--node1-CEKHIL_clean_sbu_0--edge1-ZUJKAS_clean_linker_0
_symmetry_space_group_name_H-M    P1
_symmetry_Int_Tables_number       1
_symmetry_cell_setting            triclinic
loop_
_symmetry_equiv_pos_as_xyz
'x, y, z'
_cell_length_a     67.315176
_cell_length_b     66.712068
_cell_length_c     65.993936
_cell_angle_alpha  90.023889
_cell_angle_beta   89.979489
_cell_angle_gamma 89.991063
loop_
_atom_site_label
_atom_site_type_symbol
_atom_site_fract_x
_atom_site_fract_y
_atom_site_fract_z
_atom_type_partial_charge
Co0 Co 0.09763 0.18487 0.32069 0.0
O1 O 0.06968 0.18664 0.3259 0.0
O2 O 0.08632 0.15823 0.32214 0.0
C3 C 0.09878 0.20801 0.29594 0.0
O4 O 0.1263 0.1774 0.31413 0.0
Co5 Co 0.12504 0.22165 0.3283 0.0
O6 O 0.14372 0.20605 0.31119 0.0
C7 C 0.11154 0.19722 0.36295 0.0
C8 C 0.06938 0.16721 0.32497 0.0
C9 C 0.14198 0.18716 0.30886 0.0
O10 O 0.10345 0.18463 0.35068 0.0
O11 O 0.11963 0.2136 0.35707 0.0
O12 O 0.09307 0.18983 0.292 0.0
O13 O 0.1013 0.21211 0.31491 0.0
Co14 Co 0.40216 0.80862 0.81993 0.0
O15 O 0.43027 0.80666 0.82406 0.0
O16 O 0.41351 0.8352 0.82265 0.0
C17 C 0.40018 0.78693 0.79394 0.0
O18 O 0.37323 0.81623 0.8149 0.0
Co19 Co 0.37542 0.77117 0.82658 0.0
O20 O 0.35591 0.78757 0.8113 0.0
C21 C 0.38978 0.79394 0.86196 0.0
C22 C 0.43052 0.8261 0.8245 0.0
C23 C 0.35739 0.80658 0.80988 0.0
O24 O 0.39737 0.80718 0.85007 0.0
O25 O 0.38167 0.77777 0.85555 0.0
O26 O 0.40565 0.80534 0.79082 0.0
O27 O 0.39847 0.78173 0.81272 0.0
Co28 Co 0.59672 0.30368 0.67155 0.0
O29 O 0.56894 0.30184 0.66535 0.0
O30 O 0.58561 0.33028 0.66871 0.0
C31 C 0.59695 0.28137 0.69708 0.0
O32 O 0.62516 0.31135 0.67894 0.0
Co33 Co 0.62447 0.26671 0.6664 0.0
O34 O 0.64229 0.2828 0.68394 0.0
C35 C 0.61263 0.29007 0.6304 0.0
C36 C 0.56874 0.32129 0.66551 0.0
C37 C 0.64052 0.30176 0.68542 0.0
O38 O 0.60359 0.30283 0.64179 0.0
O39 O 0.62084 0.27411 0.63721 0.0
O40 O 0.59112 0.29967 0.70021 0.0
O41 O 0.60014 0.27665 0.67836 0.0
Co42 Co 0.8996 0.69035 0.17054 0.0
O43 O 0.92755 0.69228 0.16536 0.0
O44 O 0.91112 0.66376 0.16915 0.0
C45 C 0.8982 0.71363 0.19513 0.0
O46 O 0.87094 0.68278 0.17719 0.0
Co47 Co 0.87216 0.72701 0.16234 0.0
O48 O 0.85296 0.7112 0.17851 0.0
C49 C 0.88572 0.70221 0.12808 0.0
C50 C 0.92798 0.67286 0.16623 0.0
C51 C 0.85487 0.69242 0.18152 0.0
O52 O 0.89394 0.68987 0.14051 0.0
O53 O 0.87742 0.71856 0.13371 0.0
O54 O 0.90407 0.69553 0.1992 0.0
O55 O 0.89575 0.7176 0.17612 0.0
Co56 Co 0.33183 0.10018 0.18088 0.0
O57 O 0.33425 0.07153 0.18169 0.0
O58 O 0.33366 0.08975 0.15361 0.0
C59 C 0.30648 0.10274 0.20291 0.0
O60 O 0.32843 0.12975 0.17404 0.0
Co61 Co 0.33997 0.12585 0.21908 0.0
O62 O 0.32686 0.14727 0.20309 0.0
C63 C 0.37374 0.10934 0.1961 0.0
C64 C 0.33447 0.07215 0.16203 0.0
C65 C 0.32493 0.14604 0.18392 0.0
O66 O 0.36163 0.10299 0.18245 0.0
O67 O 0.36798 0.11772 0.21254 0.0
O68 O 0.30325 0.0982 0.18407 0.0
O69 O 0.32496 0.10342 0.20833 0.0
Co70 Co 0.16662 0.89362 0.68519 0.0
O71 O 0.16451 0.92232 0.68595 0.0
O72 O 0.16526 0.90402 0.65792 0.0
C73 C 0.19165 0.89083 0.70756 0.0
O74 O 0.16987 0.86404 0.67831 0.0
Co75 Co 0.15771 0.8679 0.72308 0.0
O76 O 0.17062 0.84627 0.7072 0.0
C77 C 0.12438 0.88482 0.69977 0.0
C78 C 0.16458 0.92166 0.66628 0.0
C79 C 0.17295 0.84763 0.68808 0.0
O80 O 0.13676 0.89113 0.68634 0.0
O81 O 0.12985 0.8763 0.71623 0.0
O82 O 0.19516 0.89532 0.68876 0.0
O83 O 0.1731 0.89029 0.71276 0.0
Co84 Co 0.83135 0.39278 0.81065 0.0
O85 O 0.83302 0.42148 0.80967 0.0
O86 O 0.83335 0.40336 0.83782 0.0
C87 C 0.80569 0.3894 0.78913 0.0
O88 O 0.82869 0.36318 0.81771 0.0
Co89 Co 0.83956 0.36708 0.77251 0.0
O90 O 0.82699 0.34553 0.78877 0.0
C91 C 0.87329 0.38438 0.79491 0.0
C92 C 0.8335 0.42096 0.82933 0.0
C93 C 0.82527 0.34682 0.80796 0.0
O94 O 0.86118 0.39065 0.80861 0.0
O95 O 0.86751 0.37571 0.77862 0.0
O96 O 0.8027 0.39406 0.80799 0.0
O97 O 0.82408 0.38918 0.78334 0.0
Co98 Co 0.66609 0.59852 0.30874 0.0
O99 O 0.66397 0.56988 0.30687 0.0
O100 O 0.66394 0.58716 0.33556 0.0
C101 C 0.69162 0.60225 0.28709 0.0
O102 O 0.66924 0.62788 0.31668 0.0
Co103 Co 0.65757 0.62523 0.27134 0.0
O104 O 0.66893 0.64679 0.28845 0.0
C105 C 0.62404 0.60745 0.29351 0.0
C106 C 0.66336 0.56983 0.32654 0.0
C107 C 0.67147 0.64476 0.30747 0.0
O108 O 0.63625 0.60109 0.30705 0.0
O109 O 0.62969 0.61627 0.27727 0.0
O110 O 0.69472 0.59684 0.30572 0.0
O111 O 0.67318 0.60292 0.28153 0.0
Co112 Co 0.1989 0.33556 0.09803 0.0
O113 O 0.20053 0.34442 0.07035 0.0
O114 O 0.17259 0.3375 0.08671 0.0
C115 C 0.22267 0.3119 0.0966 0.0
O116 O 0.19126 0.32523 0.12594 0.0
Co117 Co 0.23422 0.3411 0.12769 0.0
O118 O 0.21846 0.32324 0.14557 0.0
C119 C 0.20937 0.37586 0.11714 0.0
C120 C 0.18128 0.34298 0.07001 0.0
C121 C 0.2001 0.31984 0.14234 0.0
O122 O 0.19743 0.36416 0.1076 0.0
O123 O 0.22574 0.36985 0.12494 0.0
O124 O 0.20491 0.30824 0.08987 0.0
O125 O 0.2261 0.33033 0.10166 0.0
Co126 Co 0.69816 0.15956 0.89774 0.0
O127 O 0.69934 0.15121 0.92563 0.0
O128 O 0.67167 0.15731 0.90849 0.0
C129 C 0.72166 0.18347 0.89904 0.0
O130 O 0.69085 0.16936 0.8696 0.0
Co131 Co 0.73389 0.15399 0.8686 0.0
O132 O 0.71827 0.17162 0.85033 0.0
C133 C 0.70926 0.11912 0.87926 0.0
C134 C 0.68005 0.15215 0.92544 0.0
C135 C 0.69982 0.17479 0.8533 0.0
O136 O 0.69715 0.13082 0.88859 0.0
O137 O 0.72564 0.12518 0.87152 0.0
O138 O 0.70378 0.18711 0.9055 0.0
O139 O 0.72532 0.16498 0.89442 0.0
Co140 Co 0.79624 0.83476 0.39537 0.0
O141 O 0.79468 0.84204 0.42355 0.0
O142 O 0.82257 0.8361 0.4067 0.0
C143 C 0.77243 0.81109 0.39545 0.0
O144 O 0.80392 0.82604 0.36691 0.0
Co145 Co 0.76104 0.84185 0.36592 0.0
O146 O 0.7768 0.82497 0.34711 0.0
C147 C 0.78592 0.87601 0.37835 0.0
C148 C 0.81395 0.84068 0.4237 0.0
C149 C 0.79517 0.8215 0.3502 0.0
O150 O 0.79769 0.86387 0.38754 0.0
O151 O 0.76973 0.87038 0.3699 0.0
O152 O 0.7902 0.80701 0.40193 0.0
O153 O 0.76904 0.82977 0.39141 0.0
Co154 Co 0.29794 0.65885 0.59697 0.0
O155 O 0.29589 0.65055 0.56913 0.0
O156 O 0.32411 0.65655 0.58536 0.0
C157 C 0.27466 0.68302 0.59629 0.0
O158 O 0.30611 0.66849 0.625 0.0
Co159 Co 0.26299 0.65399 0.6272 0.0
O160 O 0.27853 0.67346 0.64355 0.0
C161 C 0.28701 0.61868 0.61605 0.0
C162 C 0.31517 0.65153 0.56866 0.0
C163 C 0.29712 0.6756 0.64064 0.0
O164 O 0.29879 0.63004 0.6059 0.0
O165 O 0.27123 0.62512 0.62475 0.0
O166 O 0.29243 0.68647 0.58946 0.0
O167 O 0.27092 0.66457 0.60102 0.0
Co168 Co 0.8973 0.81833 0.66426 0.0
O169 O 0.92536 0.81718 0.65942 0.0
O170 O 0.90851 0.84512 0.66512 0.0
C171 C 0.8959 0.79325 0.68698 0.0
O172 O 0.86837 0.82483 0.67095 0.0
Co173 Co 0.87116 0.78162 0.65242 0.0
O174 O 0.85043 0.7965 0.66761 0.0
C175 C 0.88708 0.80791 0.62066 0.0
C176 C 0.92554 0.83648 0.66172 0.0
C177 C 0.85209 0.81482 0.67292 0.0
O178 O 0.89222 0.82079 0.6342 0.0
O179 O 0.88038 0.79048 0.62498 0.0
O180 O 0.90127 0.81111 0.6926 0.0
O181 O 0.89393 0.79071 0.66769 0.0
Co182 Co 0.60097 0.17783 0.1638 0.0
O183 O 0.57312 0.17912 0.15778 0.0
O184 O 0.58946 0.15126 0.16515 0.0
C185 C 0.6017 0.20375 0.18558 0.0
O186 O 0.62946 0.17101 0.17196 0.0
Co187 Co 0.62863 0.21333 0.15211 0.0
O188 O 0.64803 0.19895 0.16937 0.0
C189 C 0.61411 0.18596 0.1204 0.0
C190 C 0.57267 0.15991 0.16076 0.0
C191 C 0.64575 0.18078 0.17486 0.0
O192 O 0.60712 0.17418 0.1341 0.0
O193 O 0.62175 0.20307 0.12445 0.0
O194 O 0.5959 0.18616 0.1916 0.0
O195 O 0.60471 0.20554 0.16633 0.0
Co196 Co 0.39752 0.67404 0.32746 0.0
O197 O 0.42557 0.67466 0.33227 0.0
O198 O 0.40814 0.64696 0.3273 0.0
C199 C 0.39684 0.69846 0.30405 0.0
O200 O 0.36843 0.66808 0.32102 0.0
Co201 Co 0.37228 0.71163 0.33812 0.0
O202 O 0.35195 0.69744 0.32173 0.0
C203 C 0.38633 0.68522 0.37079 0.0
C204 C 0.42536 0.65531 0.33046 0.0
C205 C 0.35283 0.67879 0.31758 0.0
O206 O 0.39232 0.67242 0.35754 0.0
O207 O 0.37956 0.70255 0.36611 0.0
O208 O 0.40158 0.68027 0.29895 0.0
O209 O 0.39498 0.7017 0.32325 0.0
Co210 Co 0.10183 0.31976 0.82792 0.0
O211 O 0.07382 0.31795 0.83299 0.0
O212 O 0.08999 0.34625 0.82708 0.0
C213 C 0.10362 0.29461 0.80527 0.0
O214 O 0.13049 0.32704 0.82098 0.0
Co215 Co 0.12915 0.28392 0.83959 0.0
O216 O 0.14966 0.29961 0.82497 0.0
C217 C 0.11272 0.30981 0.87146 0.0
C218 C 0.07319 0.33724 0.83062 0.0
C219 C 0.14723 0.31776 0.81943 0.0
O220 O 0.10708 0.32249 0.85793 0.0
O221 O 0.1199 0.29257 0.86711 0.0
O222 O 0.09778 0.31232 0.79967 0.0
O223 O 0.1059 0.2922 0.82455 0.0
Co224 Co 0.66297 0.87177 0.83545 0.0
O225 O 0.63738 0.87407 0.84801 0.0
O226 O 0.64357 0.88065 0.81568 0.0
C227 C 0.67101 0.84139 0.84791 0.0
O228 O 0.6876 0.8704 0.81732 0.0
Co229 Co 0.7005 0.87002 0.86299 0.0
O230 O 0.71397 0.86351 0.83712 0.0
C231 C 0.67988 0.90844 0.85707 0.0
C232 C 0.63079 0.87968 0.83045 0.0
C233 C 0.70612 0.86601 0.81971 0.0
O234 O 0.66903 0.90038 0.84323 0.0
O235 O 0.69214 0.89844 0.86791 0.0
O236 O 0.65959 0.84288 0.83212 0.0
O237 O 0.67504 0.8581 0.85691 0.0
Co238 Co 0.83779 0.12086 0.33129 0.0
O239 O 0.86428 0.11926 0.34174 0.0
O240 O 0.85557 0.11111 0.31035 0.0
C241 C 0.83051 0.15172 0.34293 0.0
O242 O 0.8118 0.12128 0.31537 0.0
Co243 Co 0.80279 0.12371 0.36201 0.0
O244 O 0.78696 0.12846 0.3371 0.0
C245 C 0.82375 0.0855 0.35662 0.0
C246 C 0.86943 0.11277 0.32399 0.0
C247 C 0.79345 0.12541 0.31919 0.0
O248 O 0.83259 0.09265 0.34092 0.0
O249 O 0.81282 0.09611 0.36832 0.0
O250 O 0.84052 0.14959 0.32623 0.0
O251 O 0.82751 0.13547 0.35308 0.0
Co252 Co 0.16064 0.62323 0.15907 0.0
O253 O 0.13547 0.62053 0.14573 0.0
O254 O 0.14075 0.61435 0.17831 0.0
C255 C 0.16858 0.6536 0.14649 0.0
O256 O 0.18462 0.62502 0.17801 0.0
Co257 Co 0.19923 0.62555 0.13316 0.0
O258 O 0.21092 0.63447 0.15921 0.0
C259 C 0.17916 0.58666 0.13873 0.0
C260 C 0.12839 0.61513 0.16317 0.0
C261 C 0.2027 0.63117 0.1763 0.0
O262 O 0.16733 0.59466 0.15175 0.0
O263 O 0.19191 0.59676 0.12856 0.0
O264 O 0.15676 0.65211 0.16199 0.0
O265 O 0.17321 0.63685 0.13788 0.0
Co266 Co 0.3369 0.37142 0.65852 0.0
O267 O 0.3624 0.37286 0.64567 0.0
O268 O 0.35669 0.38018 0.67795 0.0
C269 C 0.32808 0.34106 0.64664 0.0
O270 O 0.31251 0.371 0.6769 0.0
Co271 Co 0.29904 0.36995 0.63149 0.0
O272 O 0.28544 0.36516 0.65773 0.0
C273 C 0.321 0.40776 0.63589 0.0
C274 C 0.36929 0.37863 0.66306 0.0
C275 C 0.29376 0.36755 0.67492 0.0
O276 O 0.33136 0.40002 0.65029 0.0
O277 O 0.30876 0.39765 0.62512 0.0
O278 O 0.33953 0.3425 0.66242 0.0
O279 O 0.32439 0.35768 0.63738 0.0
Co280 Co 0.83764 0.65249 0.88052 0.0
O281 O 0.85056 0.62691 0.88146 0.0
O282 O 0.81934 0.63243 0.89054 0.0
C283 C 0.84791 0.66122 0.8493 0.0
O284 O 0.81917 0.67668 0.88058 0.0
Co285 Co 0.86297 0.69138 0.87735 0.0
O286 O 0.83683 0.70378 0.87123 0.0
C287 C 0.86128 0.66929 0.91588 0.0
C288 C 0.83386 0.61976 0.8881 0.0
C289 C 0.82033 0.69519 0.87511 0.0
O290 O 0.84698 0.65848 0.90894 0.0
O291 O 0.87089 0.68191 0.90504 0.0
O292 O 0.83269 0.64943 0.85149 0.0
O293 O 0.85749 0.66537 0.86571 0.0
Co294 Co 0.33743 0.83936 0.1107 0.0
O295 O 0.35084 0.86464 0.10904 0.0
O296 O 0.31936 0.85964 0.10065 0.0
C297 C 0.3482 0.83136 0.14187 0.0
O298 O 0.31833 0.81566 0.11149 0.0
Co299 Co 0.36134 0.79978 0.11464 0.0
O300 O 0.3351 0.78861 0.12239 0.0
C301 C 0.35906 0.82018 0.07504 0.0
C302 C 0.33415 0.87206 0.10269 0.0
C303 C 0.31887 0.79751 0.11811 0.0
O304 O 0.3462 0.83258 0.08224 0.0
O305 O 0.36785 0.80699 0.08591 0.0
O306 O 0.33293 0.84307 0.13969 0.0
O307 O 0.35739 0.82644 0.12545 0.0
Co308 Co 0.15957 0.15255 0.61215 0.0
O309 O 0.14654 0.12705 0.6106 0.0
O310 O 0.178 0.13248 0.60238 0.0
C311 C 0.14862 0.16091 0.64323 0.0
O312 O 0.17823 0.17664 0.61283 0.0
Co313 Co 0.13484 0.19175 0.61535 0.0
O314 O 0.16067 0.20296 0.6244 0.0
C315 C 0.13808 0.17101 0.576 0.0
C316 C 0.16338 0.11986 0.60436 0.0
C317 C 0.17715 0.19456 0.62004 0.0
O318 O 0.15097 0.1589 0.58359 0.0
O319 O 0.12894 0.18426 0.58652 0.0
O320 O 0.16384 0.14909 0.6412 0.0
O321 O 0.13943 0.16542 0.62667 0.0
Co322 Co 0.66088 0.33837 0.3813 0.0
O323 O 0.64734 0.3634 0.38493 0.0
O324 O 0.67934 0.35838 0.39113 0.0
C325 C 0.64871 0.33145 0.35031 0.0
O326 O 0.67994 0.31476 0.37858 0.0
Co327 Co 0.63656 0.29892 0.37696 0.0
O328 O 0.66249 0.2881 0.36763 0.0
C329 C 0.64005 0.31859 0.41683 0.0
C330 C 0.66431 0.37065 0.39063 0.0
C331 C 0.67893 0.29681 0.37146 0.0
O332 O 0.65358 0.33032 0.40981 0.0
O333 O 0.63025 0.30631 0.40574 0.0
O334 O 0.66377 0.34347 0.35228 0.0
O335 O 0.64042 0.32585 0.36701 0.0
H336 H 0.16097 0.3085 0.14104 0.0
H337 H 0.14208 0.29091 0.16719 0.0
H338 H 0.1938 0.29008 0.20572 0.0
H339 H 0.21292 0.30738 0.17963 0.0
H340 H 0.17519 0.25328 0.20277 0.0
H341 H 0.12093 0.31342 0.2208 0.0
H342 H 0.12228 0.307 0.1944 0.0
H343 H 0.14345 0.31803 0.20669 0.0
C344 C 0.16833 0.30468 0.1551 0.0
C345 C 0.18847 0.30943 0.15823 0.0
C346 C 0.15746 0.29474 0.17008 0.0
C347 C 0.16648 0.2895 0.18848 0.0
C348 C 0.18655 0.29412 0.19164 0.0
H349 H 0.11456 0.24552 0.30003 0.0
H350 H 0.13007 0.26588 0.2735 0.0
C351 C 0.19745 0.30401 0.17669 0.0
C352 C 0.15524 0.27848 0.20419 0.0
H353 H 0.11495 0.28145 0.23551 0.0
C354 C 0.16203 0.25944 0.20995 0.0
C355 C 0.13823 0.28669 0.21368 0.0
C356 C 0.13085 0.30749 0.20875 0.0
C357 C 0.15212 0.24824 0.2248 0.0
C358 C 0.13478 0.2562 0.23384 0.0
C359 C 0.12812 0.27535 0.22832 0.0
C360 C 0.12368 0.24489 0.24938 0.0
C361 C 0.16046 0.22813 0.23095 0.0
C362 C 0.11445 0.22672 0.24439 0.0
C363 C 0.10561 0.21507 0.25946 0.0
C364 C 0.10584 0.22148 0.27975 0.0
C365 C 0.11425 0.24017 0.28454 0.0
C366 C 0.12309 0.25181 0.26943 0.0
H367 H 0.17611 0.22624 0.22597 0.0
H368 H 0.15975 0.22616 0.24765 0.0
H369 H 0.15149 0.21605 0.22387 0.0
H370 H 0.11452 0.22131 0.22891 0.0
H371 H 0.09914 0.20079 0.25529 0.0
H372 H 0.39025 0.79867 0.75576 0.0
H373 H 0.37408 0.7786 0.72958 0.0
H374 H 0.3772 0.72652 0.76821 0.0
H375 H 0.39262 0.74679 0.79485 0.0
H376 H 0.38438 0.74663 0.70833 0.0
H377 H 0.31897 0.728 0.75578 0.0
H378 H 0.33727 0.74621 0.76343 0.0
H379 H 0.34194 0.71984 0.76679 0.0
C380 C 0.38761 0.78291 0.75863 0.0
C381 C 0.39253 0.77429 0.77738 0.0
C382 C 0.37836 0.77146 0.74366 0.0
C383 C 0.37402 0.75117 0.7471 0.0
C384 C 0.37985 0.74229 0.76546 0.0
H385 H 0.33632 0.67073 0.64992 0.0
H386 H 0.35544 0.68855 0.67579 0.0
C387 C 0.38882 0.75383 0.78058 0.0
C388 C 0.36307 0.73952 0.73159 0.0
H389 H 0.32132 0.71149 0.72406 0.0
C390 C 0.37057 0.73896 0.71175 0.0
C391 C 0.34485 0.72986 0.73599 0.0
C392 C 0.33516 0.73115 0.75659 0.0
C393 C 0.36039 0.72899 0.69617 0.0
C394 C 0.34257 0.71867 0.70075 0.0
C395 C 0.33508 0.71924 0.7206 0.0
C396 C 0.33108 0.70766 0.68513 0.0
C397 C 0.36853 0.73023 0.67489 0.0
C398 C 0.31084 0.71193 0.68228 0.0
C399 C 0.29977 0.70139 0.66792 0.0
C400 C 0.30881 0.68654 0.65596 0.0
C401 C 0.32905 0.68227 0.65878 0.0
C402 C 0.34002 0.69254 0.67345 0.0
H403 H 0.37836 0.74347 0.67295 0.0
H404 H 0.37751 0.71665 0.6717 0.0
H405 H 0.3564 0.73113 0.66353 0.0
H406 H 0.3036 0.72351 0.69113 0.0
H407 H 0.28421 0.70507 0.66597 0.0
H408 H 0.59731 0.29032 0.73742 0.0
H409 H 0.61293 0.27099 0.76459 0.0
H410 H 0.62826 0.22455 0.72187 0.0
H411 H 0.61247 0.24366 0.69463 0.0
H412 H 0.61402 0.2103 0.76003 0.0
H413 H 0.67429 0.26674 0.76766 0.0
H414 H 0.64954 0.27662 0.76985 0.0
H415 H 0.65768 0.26609 0.7462 0.0
C416 C 0.60376 0.27586 0.73386 0.0
C417 C 0.60387 0.26858 0.71387 0.0
C418 C 0.61276 0.26491 0.74936 0.0
C419 C 0.62205 0.24657 0.7451 0.0
C420 C 0.62127 0.23876 0.72539 0.0
H421 H 0.71268 0.18719 0.81595 0.0
H422 H 0.69334 0.20393 0.78961 0.0
C423 C 0.61226 0.2497 0.70987 0.0
C424 C 0.63337 0.23596 0.76096 0.0
H425 H 0.67396 0.24031 0.79159 0.0
C426 C 0.62712 0.21682 0.76698 0.0
C427 C 0.65064 0.24443 0.76965 0.0
C428 C 0.6586 0.26452 0.76293 0.0
C429 C 0.63756 0.20598 0.78175 0.0
C430 C 0.65449 0.21472 0.79089 0.0
C431 C 0.66087 0.23376 0.78466 0.0
C432 C 0.66597 0.20427 0.8068 0.0
C433 C 0.63063 0.18514 0.78714 0.0
C434 C 0.65701 0.19914 0.82527 0.0
C435 C 0.66799 0.18951 0.84035 0.0
C436 C 0.68819 0.18498 0.83728 0.0
C437 C 0.69715 0.19038 0.81881 0.0
C438 C 0.68614 0.19996 0.80373 0.0
H439 H 0.62088 0.17873 0.77521 0.0
H440 H 0.64345 0.17491 0.78948 0.0
H441 H 0.62199 0.18576 0.80145 0.0
H442 H 0.64157 0.20276 0.8281 0.0
H443 H 0.66063 0.18574 0.85443 0.0
H444 H 0.89821 0.70681 0.23582 0.0
H445 H 0.88244 0.72719 0.26208 0.0
H446 H 0.86577 0.77103 0.21719 0.0
H447 H 0.88168 0.7508 0.19077 0.0
H448 H 0.8806 0.7871 0.25546 0.0
H449 H 0.82056 0.73059 0.26448 0.0
H450 H 0.84539 0.72091 0.26658 0.0
H451 H 0.83698 0.73097 0.24284 0.0
C452 C 0.89142 0.72091 0.23155 0.0
C453 C 0.89097 0.72712 0.21122 0.0
C454 C 0.88237 0.73247 0.24656 0.0
C455 C 0.8727 0.75038 0.24145 0.0
C456 C 0.8731 0.75716 0.22135 0.0
H457 H 0.78235 0.81013 0.31255 0.0
H458 H 0.80164 0.79408 0.28575 0.0
C459 C 0.88215 0.74559 0.20631 0.0
C460 C 0.86127 0.76145 0.25692 0.0
H461 H 0.82094 0.75745 0.28793 0.0
C462 C 0.86754 0.78069 0.26257 0.0
C463 C 0.84408 0.75308 0.26585 0.0
C464 C 0.83619 0.73283 0.25955 0.0
C465 C 0.85721 0.7917 0.27733 0.0
C466 C 0.84039 0.78305 0.28675 0.0
C467 C 0.83395 0.76395 0.28079 0.0
C468 C 0.8291 0.79356 0.30276 0.0
C469 C 0.86419 0.81257 0.28251 0.0
C470 C 0.83815 0.79844 0.32125 0.0
C471 C 0.82719 0.80764 0.33663 0.0
C472 C 0.80691 0.812 0.33383 0.0
C473 C 0.79792 0.80703 0.31525 0.0
C474 C 0.80891 0.79786 0.29989 0.0
H475 H 0.87393 0.81885 0.2705 0.0
H476 H 0.85139 0.82284 0.28479 0.0
H477 H 0.87283 0.81208 0.29682 0.0
H478 H 0.85363 0.79485 0.3239 0.0
H479 H 0.83458 0.81116 0.35077 0.0
H480 H 0.30755 0.10786 0.24408 0.0
H481 H 0.28002 0.11806 0.2662 0.0
H482 H 0.24145 0.12224 0.21415 0.0
H483 H 0.2685 0.11135 0.19225 0.0
H484 H 0.25983 0.1515 0.26745 0.0
H485 H 0.20674 0.09073 0.25112 0.0
H486 H 0.23242 0.08945 0.24339 0.0
H487 H 0.21441 0.10243 0.22799 0.0
C488 C 0.29311 0.11073 0.23745 0.0
C489 C 0.29009 0.10863 0.2165 0.0
C490 C 0.27741 0.11654 0.25008 0.0
C491 C 0.25851 0.12043 0.24191 0.0
C492 C 0.25565 0.11862 0.22093 0.0
H493 H 0.16999 0.20182 0.28318 0.0
H494 H 0.19858 0.18428 0.26906 0.0
C495 C 0.2712 0.11256 0.20839 0.0
C496 C 0.24204 0.12766 0.25495 0.0
H497 H 0.19244 0.12164 0.26381 0.0
C498 C 0.24518 0.14476 0.26693 0.0
C499 C 0.223 0.11862 0.25471 0.0
C500 C 0.21902 0.09916 0.24378 0.0
C501 C 0.22956 0.15372 0.2777 0.0
C502 C 0.21013 0.14578 0.27586 0.0
C503 C 0.20723 0.128 0.26488 0.0
C504 C 0.19252 0.15621 0.28435 0.0
C505 C 0.23411 0.17164 0.29087 0.0
C506 C 0.17896 0.14599 0.29682 0.0
C507 C 0.16225 0.15588 0.30453 0.0
C508 C 0.15897 0.1762 0.30004 0.0
C509 C 0.17234 0.18626 0.28724 0.0
C510 C 0.1888 0.17629 0.27928 0.0
H511 H 0.24967 0.17119 0.29645 0.0
H512 H 0.23237 0.18554 0.28181 0.0
H513 H 0.22399 0.17245 0.30414 0.0
H514 H 0.18141 0.13042 0.30074 0.0
H515 H 0.15216 0.14777 0.31434 0.0
H516 H 0.34747 0.84587 0.8169 0.0
H517 H 0.31769 0.86357 0.80508 0.0
H518 H 0.29894 0.81039 0.77313 0.0
H519 H 0.32805 0.79252 0.78547 0.0
H520 H 0.3054 0.87318 0.76898 0.0
H521 H 0.24881 0.82339 0.80214 0.0
H522 H 0.27469 0.82174 0.80904 0.0
H523 H 0.26551 0.80901 0.78681 0.0
C524 C 0.3369 0.83797 0.80745 0.0
C525 C 0.33995 0.81775 0.80232 0.0
C526 C 0.31988 0.84806 0.80075 0.0
C527 C 0.30575 0.83814 0.7887 0.0
C528 C 0.30917 0.81814 0.78307 0.0
H529 H 0.22985 0.8826 0.69746 0.0
H530 H 0.25675 0.87219 0.71971 0.0
C531 C 0.32594 0.80798 0.79 0.0
C532 C 0.28795 0.84882 0.78097 0.0
H533 H 0.2382 0.84294 0.77303 0.0
C534 C 0.29065 0.86675 0.77019 0.0
C535 C 0.26856 0.84084 0.78301 0.0
C536 C 0.26421 0.82282 0.7961 0.0
C537 C 0.27474 0.87612 0.76025 0.0
C538 C 0.25578 0.86692 0.76049 0.0
C539 C 0.2528 0.84979 0.77244 0.0
C540 C 0.23933 0.87388 0.74727 0.0
C541 C 0.27853 0.89569 0.74945 0.0
C542 C 0.22027 0.87749 0.75518 0.0
C543 C 0.20464 0.88303 0.74233 0.0
C544 C 0.2079 0.88511 0.72141 0.0
C545 C 0.22694 0.8814 0.71356 0.0
C546 C 0.24241 0.87563 0.72631 0.0
H547 H 0.29062 0.90425 0.75695 0.0
H548 H 0.28335 0.89256 0.73369 0.0
H549 H 0.265 0.9052 0.749 0.0
H550 H 0.21748 0.876 0.77127 0.0
H551 H 0.19008 0.88573 0.74876 0.0
H552 H 0.76831 0.37981 0.80099 0.0
H553 H 0.74115 0.36733 0.78016 0.0
H554 H 0.77813 0.37183 0.72692 0.0
H555 H 0.80582 0.38364 0.74799 0.0
H556 H 0.72109 0.38357 0.74983 0.0
H557 H 0.75945 0.31489 0.72264 0.0
H558 H 0.76951 0.33046 0.74246 0.0
H559 H 0.77194 0.33781 0.71635 0.0
C560 C 0.77071 0.37815 0.78485 0.0
C561 C 0.78921 0.3826 0.77611 0.0
C562 C 0.75513 0.37104 0.77294 0.0
C563 C 0.75765 0.36838 0.75201 0.0
C564 C 0.77599 0.37331 0.74311 0.0
H565 H 0.65143 0.3408 0.67877 0.0
H566 H 0.68015 0.35839 0.69313 0.0
C567 C 0.79174 0.38017 0.75512 0.0
C568 C 0.74096 0.36027 0.73984 0.0
H569 H 0.72716 0.3207 0.71023 0.0
C570 C 0.72242 0.36986 0.74108 0.0
C571 C 0.7427 0.34229 0.72859 0.0
C572 C 0.7619 0.33063 0.72753 0.0
C573 C 0.70543 0.36168 0.73193 0.0
C574 C 0.70719 0.34375 0.72062 0.0
C575 C 0.72586 0.33449 0.71885 0.0
C576 C 0.6897 0.33345 0.71174 0.0
C577 C 0.68566 0.37183 0.73533 0.0
C578 C 0.68578 0.31347 0.71706 0.0
C579 C 0.66971 0.30331 0.70857 0.0
C580 C 0.65708 0.31298 0.69472 0.0
C581 C 0.66082 0.33306 0.68957 0.0
C582 C 0.67716 0.34314 0.69782 0.0
H583 H 0.68608 0.38216 0.74853 0.0
H584 H 0.68179 0.3808 0.72174 0.0
H585 H 0.6737 0.36065 0.73787 0.0
H586 H 0.69518 0.3057 0.72782 0.0
H587 H 0.66712 0.28788 0.71296 0.0
H588 H 0.85184 0.65228 0.19075 0.0
H589 H 0.82369 0.63516 0.20675 0.0
H590 H 0.79119 0.69083 0.20848 0.0
H591 H 0.81908 0.70807 0.19285 0.0
H592 H 0.79178 0.67099 0.24519 0.0
H593 H 0.76916 0.62013 0.18261 0.0
H594 H 0.79495 0.61883 0.18955 0.0
H595 H 0.78521 0.64148 0.17871 0.0
C596 C 0.83865 0.66085 0.1944 0.0
C597 C 0.83777 0.68156 0.19046 0.0
C598 C 0.82253 0.65101 0.20342 0.0
C599 C 0.80528 0.6617 0.20855 0.0
C600 C 0.80434 0.68229 0.20454 0.0
H601 H 0.68948 0.62012 0.24972 0.0
H602 H 0.71715 0.63397 0.22991 0.0
C603 C 0.82035 0.69211 0.19557 0.0
C604 C 0.78852 0.65185 0.21912 0.0
H605 H 0.75289 0.61572 0.21424 0.0
C606 C 0.78328 0.6589 0.23842 0.0
C607 C 0.7773 0.63629 0.21011 0.0
C608 C 0.78177 0.6288 0.18903 0.0
C609 C 0.76722 0.6507 0.24908 0.0
C610 C 0.75635 0.63475 0.24034 0.0
C611 C 0.76139 0.62784 0.22092 0.0
C612 C 0.7398 0.62506 0.25136 0.0
C613 C 0.76184 0.65939 0.26949 0.0
C614 C 0.74349 0.61506 0.26964 0.0
C615 C 0.7278 0.60727 0.28096 0.0
C616 C 0.70812 0.60918 0.27412 0.0
C617 C 0.70449 0.61848 0.25538 0.0
C618 C 0.72025 0.62637 0.24406 0.0
H619 H 0.76825 0.67459 0.27166 0.0
H620 H 0.74547 0.66033 0.27136 0.0
H621 H 0.76778 0.64954 0.2816 0.0
H622 H 0.75851 0.61359 0.27534 0.0
H623 H 0.73109 0.60001 0.29525 0.0
H624 H 0.314 0.18232 0.19969 0.0
H625 H 0.29955 0.21078 0.18178 0.0
H626 H 0.3049 0.17906 0.12514 0.0
H627 H 0.31944 0.15033 0.14288 0.0
H628 H 0.31663 0.22315 0.12596 0.0
H629 H 0.24173 0.20542 0.15676 0.0
H630 H 0.26157 0.2065 0.17498 0.0
H631 H 0.26159 0.18723 0.15598 0.0
C632 C 0.31232 0.18137 0.18339 0.0
C633 C 0.31775 0.16391 0.17276 0.0
C634 C 0.30404 0.19768 0.17321 0.0
C635 C 0.30105 0.19689 0.15222 0.0
C636 C 0.30712 0.17988 0.14138 0.0
H637 H 0.21836 0.27243 0.08729 0.0
H638 H 0.23907 0.2445 0.09849 0.0
C639 C 0.31536 0.16348 0.15157 0.0
C640 C 0.29047 0.21337 0.1419 0.0
H641 H 0.24512 0.23593 0.13893 0.0
C642 C 0.30098 0.22596 0.12866 0.0
C643 C 0.27004 0.21676 0.14537 0.0
C644 C 0.25795 0.20321 0.15891 0.0
C645 C 0.29158 0.24222 0.1191 0.0
C646 C 0.27126 0.24595 0.12306 0.0
C647 C 0.26073 0.23307 0.13599 0.0
C648 C 0.26044 0.26313 0.11412 0.0
C649 C 0.30338 0.25515 0.10473 0.0
C650 C 0.26578 0.28291 0.11895 0.0
C651 C 0.25397 0.29895 0.11252 0.0
C652 C 0.23655 0.29541 0.10134 0.0
C653 C 0.23166 0.27564 0.09595 0.0
C654 C 0.24347 0.25966 0.10232 0.0
H655 H 0.31706 0.24745 0.09942 0.0
H656 H 0.29431 0.2594 0.09135 0.0
H657 H 0.30788 0.26911 0.11264 0.0
H658 H 0.27862 0.28589 0.12836 0.0
H659 H 0.25809 0.31402 0.11694 0.0
H660 H 0.81794 0.34341 0.84876 0.0
H661 H 0.80351 0.31473 0.86656 0.0
H662 H 0.80228 0.28122 0.81071 0.0
H663 H 0.8165 0.30972 0.79273 0.0
H664 H 0.76586 0.28266 0.83098 0.0
H665 H 0.82696 0.2597 0.8826 0.0
H666 H 0.8207 0.28589 0.88331 0.0
H667 H 0.83102 0.27529 0.8606 0.0
C668 C 0.81487 0.32985 0.84029 0.0
C669 C 0.81834 0.32893 0.81927 0.0
C670 C 0.80672 0.31343 0.85053 0.0
C671 C 0.80201 0.29581 0.83997 0.0
C672 C 0.8059 0.29467 0.81913 0.0
H673 H 0.75826 0.18058 0.88122 0.0
H674 H 0.7787 0.20812 0.86821 0.0
C675 C 0.81404 0.31102 0.80889 0.0
C676 C 0.79148 0.27916 0.85017 0.0
H677 H 0.79556 0.24415 0.88771 0.0
C678 C 0.77237 0.27422 0.84336 0.0
C679 C 0.8001 0.2681 0.8662 0.0
C680 C 0.82089 0.27234 0.87355 0.0
C681 C 0.76151 0.25862 0.85227 0.0
C682 C 0.76991 0.24788 0.86862 0.0
C683 C 0.78913 0.2526 0.8753 0.0
C684 C 0.75888 0.23148 0.87862 0.0
C685 C 0.74123 0.25357 0.84394 0.0
C686 C 0.74134 0.2356 0.8893 0.0
C687 C 0.72964 0.21995 0.89669 0.0
C688 C 0.73533 0.19992 0.89356 0.0
C689 C 0.75345 0.19586 0.88377 0.0
C690 C 0.76515 0.21156 0.87638 0.0
H691 H 0.73878 0.26025 0.82872 0.0
H692 H 0.73921 0.23708 0.84284 0.0
H693 H 0.72967 0.25952 0.85432 0.0
H694 H 0.73641 0.25093 0.89138 0.0
H695 H 0.71583 0.22356 0.90429 0.0
H696 H 0.73832 0.8141 0.3731 0.0
H697 H 0.71747 0.7865 0.36084 0.0
H698 H 0.75398 0.74416 0.39315 0.0
H699 H 0.77507 0.77155 0.40524 0.0
H700 H 0.73797 0.75078 0.33837 0.0
H701 H 0.69196 0.73078 0.40554 0.0
H702 H 0.70141 0.75585 0.40155 0.0
H703 H 0.71791 0.73626 0.4094 0.0
C704 C 0.74173 0.79895 0.37784 0.0
C705 C 0.75839 0.79496 0.39002 0.0
C706 C 0.72981 0.78324 0.37084 0.0
C707 C 0.73417 0.76339 0.37623 0.0
C708 C 0.75031 0.75943 0.38902 0.0
H709 H 0.69063 0.64555 0.34408 0.0
H710 H 0.70479 0.67486 0.36117 0.0
C711 C 0.76236 0.77508 0.39583 0.0
C712 C 0.72316 0.74662 0.36693 0.0
H713 H 0.68969 0.70952 0.37696 0.0
C714 C 0.72727 0.74183 0.3467 0.0
C715 C 0.70954 0.73489 0.37804 0.0
C716 C 0.70477 0.73964 0.39984 0.0
C717 C 0.71833 0.72529 0.33728 0.0
C718 C 0.70438 0.71366 0.34825 0.0
C719 C 0.70026 0.71852 0.36854 0.0
C720 C 0.69426 0.6962 0.33893 0.0
C721 C 0.72447 0.72007 0.3159 0.0
C722 C 0.68308 0.69856 0.32116 0.0
C723 C 0.67522 0.68187 0.31125 0.0
C724 C 0.67803 0.6625 0.31915 0.0
C725 C 0.68823 0.66027 0.3376 0.0
C726 C 0.69633 0.67699 0.34738 0.0
H727 H 0.73912 0.72668 0.31197 0.0
H728 H 0.72532 0.70359 0.31374 0.0
H729 H 0.71335 0.72616 0.30514 0.0
H730 H 0.68078 0.7133 0.3147 0.0
H731 H 0.66717 0.68413 0.29722 0.0
H732 H 0.18347 0.84496 0.64798 0.0
H733 H 0.19776 0.81606 0.63045 0.0
H734 H 0.19289 0.78098 0.68509 0.0
H735 H 0.17885 0.80977 0.70284 0.0
H736 H 0.23027 0.77984 0.66802 0.0
H737 H 0.1725 0.76388 0.61019 0.0
H738 H 0.18087 0.78944 0.61063 0.0
H739 H 0.16784 0.7794 0.63212 0.0
C740 C 0.18518 0.83103 0.65622 0.0
C741 C 0.18003 0.82974 0.67686 0.0
C742 C 0.19325 0.81449 0.64613 0.0
C743 C 0.19617 0.79632 0.65642 0.0
C744 C 0.19068 0.79485 0.67686 0.0
H745 H 0.23753 0.68047 0.61296 0.0
H746 H 0.21745 0.70807 0.62655 0.0
C747 C 0.18266 0.81136 0.68698 0.0
C748 C 0.20632 0.77929 0.64639 0.0
H749 H 0.20337 0.74672 0.60653 0.0
C750 C 0.22434 0.77255 0.65463 0.0
C751 C 0.19846 0.76973 0.62901 0.0
C752 C 0.17876 0.77582 0.62003 0.0
C753 C 0.2349 0.75671 0.64576 0.0
C754 C 0.22734 0.74754 0.62807 0.0
C755 C 0.20916 0.75398 0.62 0.0
C756 C 0.23829 0.7312 0.61791 0.0
C757 C 0.25404 0.74978 0.65542 0.0
C758 C 0.25632 0.73524 0.6081 0.0
C759 C 0.26776 0.71958 0.6003 0.0
C760 C 0.26136 0.69962 0.60223 0.0
C761 C 0.24286 0.6957 0.6113 0.0
C762 C 0.23137 0.71141 0.61904 0.0
H763 H 0.25588 0.7558 0.671 0.0
H764 H 0.25462 0.73315 0.65606 0.0
H765 H 0.26678 0.75496 0.64612 0.0
H766 H 0.26179 0.75048 0.60698 0.0
H767 H 0.28191 0.7231 0.59335 0.0
H768 H 0.87979 0.68473 0.8409 0.0
H769 H 0.88604 0.70401 0.81009 0.0
H770 H 0.83235 0.68056 0.78348 0.0
H771 H 0.82592 0.66115 0.8144 0.0
H772 H 0.88911 0.6901 0.76807 0.0
H773 H 0.82684 0.74338 0.78225 0.0
H774 H 0.83684 0.72754 0.80194 0.0
H775 H 0.8212 0.71701 0.78269 0.0
C776 C 0.86937 0.68354 0.82845 0.0
C777 C 0.85232 0.67152 0.83006 0.0
C778 C 0.87299 0.69453 0.81087 0.0
C779 C 0.85957 0.6938 0.79466 0.0
C780 C 0.84277 0.68142 0.79596 0.0
H781 H 0.8841 0.7548 0.67926 0.0
H782 H 0.87418 0.72929 0.70402 0.0
C783 C 0.83918 0.6703 0.81355 0.0
C784 C 0.86302 0.70664 0.77679 0.0
H785 H 0.84716 0.74964 0.75396 0.0
C786 C 0.87983 0.70298 0.76477 0.0
C787 C 0.85092 0.72348 0.77275 0.0
C788 C 0.83298 0.72828 0.7856 0.0
C789 C 0.88512 0.71603 0.74901 0.0
C790 C 0.87322 0.73307 0.74521 0.0
C791 C 0.85616 0.73648 0.75693 0.0
C792 C 0.87902 0.74831 0.73011 0.0
C793 C 0.90383 0.71202 0.73708 0.0
C794 C 0.8848 0.76744 0.73664 0.0
C795 C 0.8905 0.78198 0.72261 0.0
C796 C 0.89036 0.77766 0.70178 0.0
C797 C 0.88444 0.75851 0.69524 0.0
C798 C 0.8788 0.74393 0.70933 0.0
H799 H 0.91296 0.69992 0.74395 0.0
H800 H 0.89982 0.70742 0.72145 0.0
H801 H 0.91298 0.72582 0.73601 0.0
H802 H 0.88502 0.77107 0.75265 0.0
H803 H 0.8949 0.79663 0.72809 0.0
H804 H 0.61763 0.2406 0.17743 0.0
H805 H 0.62624 0.26691 0.20193 0.0
H806 H 0.60485 0.22975 0.25068 0.0
H807 H 0.59628 0.20338 0.22644 0.0
H808 H 0.59224 0.27821 0.24314 0.0
H809 H 0.67141 0.25508 0.25195 0.0
H810 H 0.65922 0.25416 0.22758 0.0
H811 H 0.65252 0.23653 0.24686 0.0
C812 C 0.6147 0.23808 0.19336 0.0
C813 C 0.60631 0.21994 0.20005 0.0
C814 C 0.61962 0.25309 0.20727 0.0
C815 C 0.61616 0.25013 0.22799 0.0
C816 C 0.60759 0.23219 0.23469 0.0
H817 H 0.6186 0.30531 0.34291 0.0
H818 H 0.61079 0.2885 0.31108 0.0
C819 C 0.60273 0.21718 0.22084 0.0
C820 C 0.62165 0.26558 0.24292 0.0
H821 H 0.65921 0.27951 0.27454 0.0
C822 C 0.60694 0.27875 0.24985 0.0
C823 C 0.64087 0.26624 0.25139 0.0
C824 C 0.65704 0.25231 0.24415 0.0
C825 C 0.6108 0.29221 0.2657 0.0
C826 C 0.62973 0.29209 0.27503 0.0
C827 C 0.64471 0.27953 0.26739 0.0
C828 C 0.63375 0.30348 0.29382 0.0
C829 C 0.59452 0.30623 0.27248 0.0
C830 C 0.64949 0.31724 0.29476 0.0
C831 C 0.6541 0.3268 0.31303 0.0
C832 C 0.64313 0.32257 0.33065 0.0
C833 C 0.62726 0.30895 0.32957 0.0
C834 C 0.62267 0.29944 0.31135 0.0
H835 H 0.58377 0.30916 0.26006 0.0
H836 H 0.58624 0.29925 0.28519 0.0
H837 H 0.60067 0.32076 0.27779 0.0
H838 H 0.65833 0.32041 0.28141 0.0
H839 H 0.66647 0.33718 0.31344 0.0
H840 H 0.38315 0.69203 0.26595 0.0
H841 H 0.37453 0.71713 0.24051 0.0
H842 H 0.39103 0.76427 0.28206 0.0
H843 H 0.39853 0.73909 0.30804 0.0
H844 H 0.35919 0.77481 0.2626 0.0
H845 H 0.41283 0.74646 0.20611 0.0
H846 H 0.39553 0.72725 0.21299 0.0
H847 H 0.4123 0.73726 0.23176 0.0
C848 C 0.385 0.70776 0.26961 0.0
C849 C 0.39178 0.71369 0.28879 0.0
C850 C 0.38018 0.72209 0.25503 0.0
C851 C 0.38273 0.74259 0.25912 0.0
C852 C 0.38912 0.74854 0.27848 0.0
H853 H 0.38492 0.82394 0.15654 0.0
H854 H 0.39357 0.80527 0.18716 0.0
C855 C 0.39346 0.73418 0.29327 0.0
C856 C 0.37863 0.75775 0.2432 0.0
H857 H 0.3879 0.76881 0.19369 0.0
C858 C 0.36565 0.77366 0.24759 0.0
C859 C 0.38739 0.75654 0.22373 0.0
C860 C 0.40295 0.74108 0.21846 0.0
C861 C 0.36079 0.78809 0.23289 0.0
C862 C 0.3685 0.78606 0.21302 0.0
C863 C 0.3818 0.77036 0.20882 0.0
C864 C 0.36307 0.79978 0.19617 0.0
C865 C 0.34778 0.80549 0.23902 0.0
C866 C 0.34306 0.80338 0.19121 0.0
C867 C 0.33816 0.81469 0.17408 0.0
C868 C 0.35318 0.8219 0.16128 0.0
C869 C 0.37312 0.81851 0.16627 0.0
C870 C 0.37804 0.8078 0.18371 0.0
H871 H 0.3492 0.80874 0.25547 0.0
H872 H 0.35155 0.81928 0.23043 0.0
H873 H 0.33202 0.80162 0.23606 0.0
H874 H 0.33121 0.79683 0.20009 0.0
H875 H 0.32266 0.81684 0.17024 0.0
H876 H 0.11637 0.18391 0.65183 0.0
H877 H 0.11029 0.20357 0.68251 0.0
H878 H 0.16472 0.1813 0.70855 0.0
H879 H 0.17091 0.16143 0.67788 0.0
H880 H 0.10989 0.1893 0.7266 0.0
H881 H 0.16767 0.24562 0.70596 0.0
H882 H 0.15642 0.22938 0.6873 0.0
H883 H 0.17413 0.21943 0.7049 0.0
C884 C 0.12694 0.18302 0.66417 0.0
C885 C 0.14414 0.17121 0.66246 0.0
C886 C 0.12343 0.19421 0.68166 0.0
C887 C 0.13713 0.19391 0.69764 0.0
C888 C 0.15405 0.18172 0.69627 0.0
H889 H 0.11742 0.25681 0.81292 0.0
H890 H 0.12663 0.23113 0.78803 0.0
C891 C 0.15751 0.17037 0.67881 0.0
C892 C 0.13402 0.20719 0.71522 0.0
H893 H 0.1488 0.2519 0.73527 0.0
C894 C 0.11852 0.20287 0.72872 0.0
C895 C 0.14525 0.22491 0.71767 0.0
C896 C 0.16177 0.2303 0.7032 0.0
C897 C 0.11366 0.21611 0.7445 0.0
C898 C 0.1247 0.234 0.74677 0.0
C899 C 0.14046 0.2381 0.73348 0.0
C900 C 0.11928 0.24933 0.76197 0.0
C901 C 0.09632 0.21127 0.75813 0.0
C902 C 0.11239 0.2681 0.75548 0.0
C903 C 0.10717 0.28276 0.7696 0.0
C904 C 0.10885 0.27892 0.79045 0.0
C905 C 0.11587 0.26014 0.79693 0.0
C906 C 0.12108 0.24545 0.78277 0.0
H907 H 0.08726 0.19866 0.75217 0.0
H908 H 0.10194 0.20698 0.77333 0.0
H909 H 0.0866 0.22459 0.76001 0.0
H910 H 0.11095 0.27136 0.73947 0.0
H911 H 0.10187 0.29711 0.76415 0.0
H912 H 0.74634 0.86153 0.81958 0.0
H913 H 0.76817 0.85619 0.7908 0.0
H914 H 0.71815 0.85975 0.75018 0.0
H915 H 0.69588 0.86535 0.77917 0.0
H916 H 0.76448 0.82358 0.76402 0.0
H917 H 0.76107 0.89696 0.72401 0.0
H918 H 0.75373 0.89409 0.75019 0.0
H919 H 0.7378 0.88523 0.73035 0.0
C920 C 0.73985 0.86134 0.80458 0.0
C921 C 0.71925 0.86377 0.80176 0.0
C922 C 0.75243 0.85832 0.7881 0.0
C923 C 0.74482 0.8577 0.76837 0.0
C924 C 0.72435 0.86048 0.7653 0.0
H925 H 0.81357 0.80214 0.67208 0.0
H926 H 0.78603 0.81412 0.69284 0.0
C927 C 0.71165 0.86356 0.78189 0.0
C928 C 0.75841 0.85269 0.75144 0.0
H929 H 0.78135 0.87182 0.70946 0.0
C930 C 0.76805 0.83406 0.752 0.0
C931 C 0.76315 0.8665 0.73592 0.0
C932 C 0.75354 0.8869 0.73501 0.0
C933 C 0.78254 0.82894 0.73766 0.0
C934 C 0.78729 0.8427 0.7221 0.0
C935 C 0.77755 0.8613 0.72136 0.0
C936 C 0.80283 0.83796 0.70694 0.0
C937 C 0.79309 0.80906 0.73966 0.0
C938 C 0.82113 0.84805 0.70728 0.0
C939 C 0.83698 0.84128 0.69533 0.0
C940 C 0.83472 0.82427 0.68293 0.0
C941 C 0.81593 0.81509 0.68167 0.0
C942 C 0.80013 0.82193 0.6935 0.0
H943 H 0.7907 0.80214 0.75478 0.0
H944 H 0.78735 0.79855 0.72801 0.0
H945 H 0.80932 0.81085 0.73718 0.0
H946 H 0.82346 0.86049 0.71757 0.0
H947 H 0.85123 0.8487 0.69662 0.0
H948 H 0.64535 0.1455 0.19648 0.0
H949 H 0.67184 0.13242 0.21833 0.0
H950 H 0.71007 0.18098 0.20008 0.0
H951 H 0.68388 0.19422 0.17839 0.0
H952 H 0.715 0.12248 0.21085 0.0
H953 H 0.7017 0.18663 0.26297 0.0
H954 H 0.68402 0.17922 0.24383 0.0
H955 H 0.70579 0.19318 0.23688 0.0
C956 C 0.65951 0.15321 0.19685 0.0
C957 C 0.66237 0.17108 0.1859 0.0
C958 C 0.67462 0.14569 0.20931 0.0
C959 C 0.69277 0.15591 0.21096 0.0
C960 C 0.69607 0.17303 0.19915 0.0
H961 H 0.80105 0.12754 0.27821 0.0
H962 H 0.77688 0.13306 0.25095 0.0
C963 C 0.68103 0.18058 0.18679 0.0
C964 C 0.70762 0.14989 0.22632 0.0
H965 H 0.72905 0.16576 0.27031 0.0
C966 C 0.7181 0.13186 0.2239 0.0
C967 C 0.71144 0.16214 0.24337 0.0
C968 C 0.70007 0.1813 0.2471 0.0
C969 C 0.73254 0.12586 0.23807 0.0
C970 C 0.73662 0.13834 0.2549 0.0
C971 C 0.72598 0.15628 0.25733 0.0
C972 C 0.75125 0.13294 0.27078 0.0
C973 C 0.74305 0.10611 0.23515 0.0
C974 C 0.74487 0.1311 0.29091 0.0
C975 C 0.75858 0.12817 0.30645 0.0
C976 C 0.77905 0.12703 0.30225 0.0
C977 C 0.7854 0.12828 0.28197 0.0
C978 C 0.7716 0.13132 0.26636 0.0
H979 H 0.73519 0.09634 0.22413 0.0
H980 H 0.75825 0.10893 0.22929 0.0
H981 H 0.74444 0.09799 0.24977 0.0
H982 H 0.72924 0.13233 0.29465 0.0
H983 H 0.75308 0.12712 0.32184 0.0
H984 H 0.34588 0.63884 0.30942 0.0
H985 H 0.31769 0.62453 0.29081 0.0
H986 H 0.29245 0.68359 0.28418 0.0
H987 H 0.31993 0.69784 0.30312 0.0
H988 H 0.26398 0.656 0.29205 0.0
H989 H 0.31357 0.62947 0.23002 0.0
H990 H 0.31847 0.6193 0.2547 0.0
H991 H 0.32235 0.64555 0.25005 0.0
C992 C 0.33422 0.64873 0.30415 0.0
C993 C 0.33531 0.66952 0.30763 0.0
C994 C 0.31816 0.64054 0.29344 0.0
C995 C 0.30312 0.65304 0.28579 0.0
C996 C 0.30385 0.67364 0.28992 0.0
H997 H 0.23527 0.6548 0.18007 0.0
H998 H 0.25782 0.65735 0.20875 0.0
C999 C 0.31969 0.68178 0.30073 0.0
C1000 C 0.28718 0.64529 0.27235 0.0
H1001 H 0.27936 0.62648 0.22492 0.0
C1002 C 0.26728 0.64926 0.27748 0.0
C1003 C 0.29155 0.63657 0.25331 0.0
C1004 C 0.31262 0.63257 0.24653 0.0
C1005 C 0.25177 0.6458 0.26365 0.0
C1006 C 0.25627 0.63777 0.24437 0.0
C1007 C 0.27599 0.63268 0.23973 0.0
C1008 C 0.24138 0.63681 0.22781 0.0
C1009 C 0.23091 0.6519 0.26933 0.0
C1010 C 0.22434 0.62471 0.22911 0.0
C1011 C 0.21118 0.62338 0.21267 0.0
C1012 C 0.21509 0.63391 0.19463 0.0
C1013 C 0.23192 0.64633 0.19365 0.0
C1014 C 0.24486 0.64779 0.21004 0.0
H1015 H 0.23053 0.66108 0.28337 0.0
H1016 H 0.22391 0.66058 0.25688 0.0
H1017 H 0.22183 0.63826 0.27192 0.0
H1018 H 0.2215 0.61589 0.24257 0.0
H1019 H 0.1984 0.61359 0.21381 0.0
H1020 H 0.30527 0.36239 0.7146 0.0
H1021 H 0.28356 0.35791 0.74422 0.0
H1022 H 0.23202 0.36528 0.70624 0.0
H1023 H 0.25335 0.36962 0.67669 0.0
H1024 H 0.23628 0.38784 0.74999 0.0
H1025 H 0.24383 0.30468 0.74536 0.0
H1026 H 0.26535 0.32052 0.74236 0.0
H1027 H 0.24664 0.32012 0.72308 0.0
C1028 C 0.28932 0.36327 0.7126 0.0
C1029 C 0.28106 0.3662 0.69324 0.0
C1030 C 0.27698 0.36074 0.72952 0.0
C1031 C 0.25626 0.36132 0.72731 0.0
C1032 C 0.248 0.36487 0.70819 0.0
H1033 H 0.14647 0.34769 0.7911 0.0
H1034 H 0.17456 0.36038 0.77138 0.0
C1035 C 0.26025 0.36722 0.69131 0.0
C1036 C 0.24293 0.35676 0.74449 0.0
H1037 H 0.22027 0.3175 0.76802 0.0
C1038 C 0.23293 0.3725 0.75422 0.0
C1039 C 0.23871 0.33676 0.7499 0.0
C1040 C 0.2491 0.31943 0.7397 0.0
C1041 C 0.21844 0.36867 0.76908 0.0
C1042 C 0.21347 0.34857 0.7738 0.0
C1043 C 0.22402 0.33291 0.76444 0.0
C1044 C 0.1968 0.34319 0.78755 0.0
C1045 C 0.20867 0.3862 0.77954 0.0
C1046 C 0.19984 0.32925 0.80317 0.0
C1047 C 0.18377 0.32166 0.81412 0.0
C1048 C 0.1643 0.32798 0.80981 0.0
C1049 C 0.16133 0.3427 0.7949 0.0
C1050 C 0.17741 0.35006 0.7837 0.0
H1051 H 0.21861 0.39949 0.77973 0.0
H1052 H 0.19502 0.3904 0.77114 0.0
H1053 H 0.20451 0.38246 0.79538 0.0
H1054 H 0.21463 0.3237 0.80643 0.0
H1055 H 0.18655 0.31041 0.82561 0.0
H1056 H 0.78177 0.68336 0.88229 0.0
H1057 H 0.75148 0.70334 0.87783 0.0
H1058 H 0.78683 0.75387 0.85895 0.0
H1059 H 0.81698 0.73421 0.86311 0.0
H1060 H 0.74057 0.74002 0.89634 0.0
H1061 H 0.74614 0.74787 0.81309 0.0
H1062 H 0.76007 0.72934 0.82709 0.0
H1063 H 0.76873 0.75483 0.82568 0.0
C1064 C 0.78309 0.69872 0.87715 0.0
C1065 C 0.80185 0.70712 0.87298 0.0
C1066 C 0.76577 0.71009 0.87462 0.0
C1067 C 0.76693 0.72994 0.86771 0.0
C1068 C 0.78559 0.73843 0.86387 0.0
H1069 H 0.69878 0.83544 0.87737 0.0
H1070 H 0.71877 0.80546 0.88303 0.0
C1071 C 0.80285 0.72716 0.8664 0.0
C1072 C 0.74882 0.74221 0.86488 0.0
H1073 H 0.72579 0.77217 0.83027 0.0
C1074 C 0.73708 0.7468 0.88184 0.0
C1075 C 0.74405 0.7507 0.84587 0.0
C1076 C 0.75529 0.74527 0.82685 0.0
C1077 C 0.72147 0.76071 0.88052 0.0
C1078 C 0.71782 0.77049 0.86186 0.0
C1079 C 0.72873 0.76487 0.84464 0.0
C1080 C 0.70397 0.78768 0.86008 0.0
C1081 C 0.70927 0.76503 0.89919 0.0
C1082 C 0.6891 0.78777 0.84518 0.0
C1083 C 0.67782 0.80502 0.84172 0.0
C1084 C 0.68129 0.82252 0.85305 0.0
C1085 C 0.69572 0.82219 0.86842 0.0
C1086 C 0.70704 0.80497 0.87181 0.0
H1087 H 0.70906 0.75192 0.90958 0.0
H1088 H 0.71599 0.77779 0.90752 0.0
H1089 H 0.69374 0.76902 0.89523 0.0
H1090 H 0.68658 0.77464 0.83586 0.0
H1091 H 0.66679 0.80483 0.82977 0.0
H1092 H 0.16349 0.69032 0.16415 0.0
H1093 H 0.18302 0.72072 0.15811 0.0
H1094 H 0.21662 0.68974 0.11206 0.0
H1095 H 0.1969 0.6596 0.11763 0.0
H1096 H 0.22184 0.72416 0.16452 0.0
H1097 H 0.20701 0.74255 0.08445 0.0
H1098 H 0.19159 0.72544 0.09867 0.0
H1099 H 0.21423 0.71682 0.08697 0.0
C1100 C 0.17477 0.69014 0.15245 0.0
C1101 C 0.17872 0.67257 0.1414 0.0
C1102 C 0.18591 0.70751 0.14902 0.0
C1103 C 0.2011 0.70762 0.13443 0.0
C1104 C 0.20464 0.69022 0.12301 0.0
H1105 H 0.31423 0.75958 0.13288 0.0
H1106 H 0.28351 0.74099 0.13763 0.0
C1107 C 0.19347 0.67291 0.12635 0.0
C1108 C 0.21476 0.72497 0.13267 0.0
H1109 H 0.23853 0.7544 0.09798 0.0
C1110 C 0.22518 0.73107 0.15003 0.0
C1111 C 0.2189 0.73429 0.11387 0.0
C1112 C 0.20715 0.72957 0.095 0.0
C1113 C 0.24057 0.74516 0.14883 0.0
C1114 C 0.24596 0.75302 0.1297 0.0
C1115 C 0.23461 0.74807 0.11259 0.0
C1116 C 0.2644 0.76481 0.12693 0.0
C1117 C 0.25126 0.75111 0.168 0.0
C1118 C 0.26391 0.78423 0.11877 0.0
C1119 C 0.28157 0.79496 0.11587 0.0
C1120 C 0.30002 0.78633 0.12091 0.0
C1121 C 0.30035 0.76677 0.12887 0.0
C1122 C 0.28276 0.75614 0.13177 0.0
H1123 H 0.24154 0.74933 0.18149 0.0
H1124 H 0.26438 0.74125 0.17011 0.0
H1125 H 0.25647 0.76689 0.16728 0.0
H1126 H 0.24987 0.7911 0.11476 0.0
H1127 H 0.28076 0.80996 0.10967 0.0
H1128 H 0.32078 0.30915 0.6714 0.0
H1129 H 0.29882 0.28077 0.66454 0.0
H1130 H 0.28938 0.30254 0.60371 0.0
H1131 H 0.31056 0.33145 0.61087 0.0
H1132 H 0.25572 0.29585 0.62085 0.0
H1133 H 0.30254 0.22916 0.63441 0.0
H1134 H 0.30269 0.24562 0.65587 0.0
H1135 H 0.31288 0.25402 0.63209 0.0
C1136 C 0.31433 0.30763 0.65644 0.0
C1137 C 0.31729 0.32249 0.64167 0.0
C1138 C 0.3019 0.2913 0.65247 0.0
C1139 C 0.29263 0.2893 0.6335 0.0
C1140 C 0.29637 0.30371 0.61845 0.0
H1141 H 0.2132 0.18971 0.60114 0.0
H1142 H 0.24231 0.21177 0.60376 0.0
C1143 C 0.30847 0.32022 0.62254 0.0
C1144 C 0.27722 0.27372 0.63013 0.0
H1145 H 0.26705 0.22378 0.63524 0.0
C1146 C 0.25835 0.28006 0.62374 0.0
C1147 C 0.28061 0.25306 0.63366 0.0
C1148 C 0.30085 0.24505 0.63917 0.0
C1149 C 0.24266 0.2665 0.62138 0.0
C1150 C 0.24567 0.24607 0.62621 0.0
C1151 C 0.26469 0.23952 0.63188 0.0
C1152 C 0.229 0.23157 0.62592 0.0
C1153 C 0.22299 0.27425 0.61366 0.0
C1154 C 0.21222 0.23501 0.63803 0.0
C1155 C 0.19558 0.22267 0.63638 0.0
C1156 C 0.19552 0.2064 0.62285 0.0
C1157 C 0.21279 0.20222 0.61161 0.0
C1158 C 0.22941 0.21477 0.6131 0.0
H1159 H 0.22487 0.28831 0.60483 0.0
H1160 H 0.21547 0.26301 0.60391 0.0
H1161 H 0.21317 0.27763 0.62673 0.0
H1162 H 0.21181 0.24754 0.64847 0.0
H1163 H 0.18267 0.22604 0.64558 0.0
H1164 H 0.68402 0.26416 0.34725 0.0
H1165 H 0.71347 0.24313 0.34408 0.0
H1166 H 0.74515 0.28175 0.38533 0.0
H1167 H 0.71573 0.30331 0.38824 0.0
H1168 H 0.76864 0.26864 0.35314 0.0
H1169 H 0.72954 0.20499 0.38918 0.0
H1170 H 0.71649 0.21428 0.36744 0.0
H1171 H 0.71966 0.23012 0.38931 0.0
C1172 C 0.69726 0.26828 0.35561 0.0
C1173 C 0.69744 0.28523 0.36828 0.0
C1174 C 0.71407 0.2562 0.35381 0.0
C1175 C 0.7313 0.26059 0.36488 0.0
C1176 C 0.73191 0.27802 0.3768 0.0
H1177 H 0.81546 0.16274 0.37949 0.0
H1178 H 0.79443 0.19172 0.38689 0.0
C1179 C 0.7151 0.2903 0.37845 0.0
C1180 C 0.74827 0.24644 0.3645 0.0
H1181 H 0.75965 0.19719 0.37177 0.0
C1182 C 0.76681 0.25306 0.35742 0.0
C1183 C 0.74596 0.22624 0.37055 0.0
C1184 C 0.7269 0.21853 0.37975 0.0
C1185 C 0.78288 0.23974 0.35539 0.0
C1186 C 0.78013 0.21921 0.36013 0.0
C1187 C 0.76179 0.21286 0.36796 0.0
C1188 C 0.79558 0.20374 0.35643 0.0
C1189 C 0.80261 0.24783 0.34829 0.0
C1190 C 0.80362 0.20106 0.33696 0.0
C1191 C 0.81596 0.1847 0.33282 0.0
C1192 C 0.82004 0.17048 0.34795 0.0
C1193 C 0.8125 0.17347 0.36755 0.0
C1194 C 0.80049 0.19002 0.37178 0.0
H1195 H 0.80428 0.26393 0.35228 0.0
H1196 H 0.81521 0.23936 0.35498 0.0
H1197 H 0.80347 0.24659 0.33155 0.0
H1198 H 0.79962 0.21104 0.3247 0.0
H1199 H 0.8214 0.18262 0.31752 0.0
H1200 H 0.11371 0.19543 0.55384 0.0
H1201 H 0.10808 0.19494 0.51742 0.0
H1202 H 0.14715 0.14405 0.51148 0.0
H1203 H 0.1532 0.14455 0.54804 0.0
H1204 H 0.15562 0.1736 0.48432 0.0
H1205 H 0.07508 0.15731 0.48282 0.0
H1206 H 0.08082 0.17818 0.49893 0.0
H1207 H 0.09011 0.15364 0.50517 0.0
C1208 C 0.121 0.18397 0.5449 0.0
C1209 C 0.13392 0.17001 0.55395 0.0
C1210 C 0.11761 0.18363 0.52405 0.0
C1211 C 0.12689 0.16923 0.51179 0.0
C1212 C 0.13971 0.15518 0.52071 0.0
H1213 H 0.09943 0.16255 0.38176 0.0
H1214 H 0.10342 0.15361 0.41751 0.0
C1215 C 0.14315 0.15552 0.54162 0.0
C1216 C 0.12424 0.16987 0.48952 0.0
H1217 H 0.08884 0.17193 0.45253 0.0
C1218 C 0.14105 0.17295 0.47734 0.0
C1219 C 0.10526 0.16868 0.48037 0.0
C1220 C 0.08682 0.16406 0.49249 0.0
C1221 C 0.13928 0.17591 0.45638 0.0
C1222 C 0.12017 0.17619 0.44747 0.0
C1223 C 0.10345 0.17204 0.45946 0.0
C1224 C 0.11722 0.18168 0.42595 0.0
C1225 C 0.1579 0.17891 0.444 0.0
C1226 C 0.12315 0.20062 0.41902 0.0
C1227 C 0.12091 0.20579 0.39867 0.0
C1228 C 0.11253 0.19216 0.38481 0.0
C1229 C 0.10599 0.1734 0.39197 0.0
C1230 C 0.10828 0.16824 0.41238 0.0
H1231 H 0.17109 0.17233 0.45162 0.0
H1232 H 0.15641 0.17207 0.42873 0.0
H1233 H 0.16063 0.1952 0.4421 0.0
H1234 H 0.12962 0.2114 0.42936 0.0
H1235 H 0.12597 0.22043 0.3938 0.0
H1236 H 0.3446 0.84605 0.04612 0.0
H1237 H 0.35109 0.8453 0.0096 0.0
H1238 H 0.38978 0.79441 0.01765 0.0
H1239 H 0.38374 0.79517 0.054 0.0
H1240 H 0.40527 0.82314 0.99151 0.0
H1241 H 0.32751 0.80303 0.97146 0.0
H1242 H 0.33041 0.82556 0.9861 0.0
H1243 H 0.33674 0.80177 -0.00291 0.0
C1244 C 0.35455 0.83474 0.04014 0.0
C1245 C 0.36352 0.82057 0.05304 0.0
C1246 C 0.35818 0.8343 0.01926 0.0
C1247 C 0.37069 0.81962 0.01093 0.0
C1248 C 0.38004 0.80584 0.02379 0.0
H1249 H 0.37741 0.76891 0.89227 0.0
H1250 H 0.37384 0.77666 0.92819 0.0
C1251 C 0.3765 0.80628 0.0446 0.0
C1252 C 0.3738 0.81808 0.98877 0.0
H1253 H 0.35013 0.80673 0.94451 0.0
C1254 C 0.39322 0.81971 0.98117 0.0
C1255 C 0.35804 0.81338 0.97542 0.0
C1256 C 0.33701 0.81065 0.98287 0.0
C1257 C 0.39737 0.81643 0.96058 0.0
C1258 C 0.38162 0.81169 0.94726 0.0
C1259 C 0.36216 0.81043 0.9548 0.0
C1260 C 0.38503 0.80694 0.92562 0.0
C1261 C 0.41864 0.81732 0.95342 0.0
C1262 C 0.3927 0.82137 0.91229 0.0
C1263 C 0.39489 0.81696 0.89168 0.0
C1264 C 0.38925 0.79809 0.88403 0.0
C1265 C 0.38189 0.78359 0.89757 0.0
C1266 C 0.37978 0.788 0.91813 0.0
H1267 H 0.42931 0.81673 0.96624 0.0
H1268 H 0.42194 0.80476 0.94289 0.0
H1269 H 0.42109 0.83158 0.94514 0.0
H1270 H 0.39656 0.83619 0.91772 0.0
H1271 H 0.4005 0.82853 0.88169 0.0
H1272 H 0.60633 0.30599 0.43577 0.0
H1273 H 0.59995 0.30422 0.4721 0.0
H1274 H 0.65811 0.32872 0.48405 0.0
H1275 H 0.66431 0.33125 0.4476 0.0
H1276 H 0.61875 0.28214 0.49862 0.0
H1277 H 0.62516 0.36152 0.52225 0.0
H1278 H 0.62349 0.35415 0.49599 0.0
H1279 H 0.64687 0.35283 0.50916 0.0
C1280 C 0.61769 0.31124 0.44611 0.0
C1281 C 0.63584 0.31873 0.43882 0.0
C1282 C 0.61401 0.31023 0.46689 0.0
C1283 C 0.62844 0.31654 0.48083 0.0
C1284 C 0.64653 0.32425 0.4736 0.0
H1285 H 0.63771 0.27248 0.6032 0.0
H1286 H 0.64092 0.27952 0.56715 0.0
C1287 C 0.65011 0.32556 0.45276 0.0
C1288 C 0.62506 0.31354 0.50284 0.0
H1289 H 0.62559 0.33706 0.5488 0.0
C1290 C 0.62008 0.29421 0.50955 0.0
C1291 C 0.62655 0.32932 0.51709 0.0
C1292 C 0.63061 0.35066 0.51075 0.0
C1293 C 0.61689 0.29014 0.53012 0.0
C1294 C 0.61937 0.30568 0.54448 0.0
C1295 C 0.62392 0.32512 0.53778 0.0
C1296 C 0.61765 0.30191 0.56654 0.0
C1297 C 0.61065 0.26924 0.53618 0.0
C1298 C 0.60399 0.31269 0.57836 0.0
C1299 C 0.60229 0.3089 0.59914 0.0
C1300 C 0.61421 0.29421 0.60842 0.0
C1301 C 0.62805 0.28366 0.59652 0.0
C1302 C 0.62988 0.28761 0.57586 0.0
H1303 H 0.60341 0.26121 0.5234 0.0
H1304 H 0.62398 0.26052 0.54064 0.0
H1305 H 0.6002 0.26955 0.5492 0.0
H1306 H 0.5945 0.3239 0.57147 0.0
H1307 H 0.59153 0.31734 0.60788 0.0
H1308 H 0.90728 0.67337 0.10809 0.0
H1309 H 0.90605 0.66509 0.07193 0.0
H1310 H 0.86113 0.71033 0.06293 0.0
H1311 H 0.86261 0.71905 0.09872 0.0
H1312 H 0.87567 0.65163 0.04817 0.0
H1313 H 0.90152 0.72543 0.02051 0.0
H1314 H 0.90325 0.71821 0.04679 0.0
H1315 H 0.88024 0.72771 0.03669 0.0
C1316 C 0.89723 0.68163 0.09838 0.0
C1317 C 0.88522 0.69705 0.10626 0.0
C1318 C 0.89652 0.67685 0.07774 0.0
C1319 C 0.88378 0.68737 0.06468 0.0
C1320 C 0.87147 0.70241 0.07262 0.0
H1321 H 0.83753 0.65669 0.94703 0.0
H1322 H 0.84462 0.65875 0.9833 0.0
C1323 C 0.8723 0.70733 0.09313 0.0
C1324 C 0.88308 0.68259 0.04278 0.0
H1325 H 0.8859 0.70417 0.99607 0.0
C1326 C 0.87814 0.66303 0.03673 0.0
C1327 C 0.88664 0.69739 0.02788 0.0
C1328 C 0.89342 0.71829 0.03328 0.0
C1329 C 0.87594 0.65807 0.01616 0.0
C1330 C 0.87831 0.67321 0.00134 0.0
C1331 C 0.8839 0.69258 0.00741 0.0
C1332 C 0.87471 0.66966 0.97946 0.0
C1333 C 0.87125 0.63666 0.01056 0.0
C1334 C 0.88916 0.67524 0.9652 0.0
C1335 C 0.88498 0.67451 0.94452 0.0
C1336 C 0.8663 0.66802 0.93764 0.0
C1337 C 0.85211 0.66161 0.95187 0.0
C1338 C 0.8562 0.66265 0.97262 0.0
H1339 H 0.87643 0.62607 0.02242 0.0
H1340 H 0.85492 0.6349 0.00913 0.0
H1341 H 0.87821 0.63244 0.9959 0.0
H1342 H 0.90353 0.6807 0.97012 0.0
H1343 H 0.89627 0.6794 0.93392 0.0
H1344 H 0.39269 0.08791 0.16628 0.0
H1345 H 0.42823 0.08765 0.15845 0.0
H1346 H 0.43908 0.12783 0.20846 0.0
H1347 H 0.40387 0.1277 0.21675 0.0
H1348 H 0.45012 0.1178 0.14652 0.0
H1349 H 0.4832 0.08886 0.21698 0.0
H1350 H 0.45694 0.0869 0.2118 0.0
H1351 H 0.46711 0.10948 0.22271 0.0
C1352 C 0.40269 0.09644 0.17582 0.0
C1353 C 0.39539 0.10782 0.19217 0.0
C1354 C 0.42301 0.09624 0.17132 0.0
C1355 C 0.43642 0.10742 0.18308 0.0
C1356 C 0.42918 0.11857 0.19955 0.0
H1357 H 0.53608 0.17522 0.15302 0.0
H1358 H 0.50417 0.15843 0.15582 0.0
C1359 C 0.40894 0.11862 0.20417 0.0
C1360 C 0.45762 0.10917 0.17706 0.0
H1361 H 0.50449 0.11063 0.1967 0.0
C1362 C 0.46205 0.11579 0.15738 0.0
C1363 C 0.47333 0.10609 0.19098 0.0
C1364 C 0.46989 0.09721 0.2117 0.0
C1365 C 0.4815 0.12091 0.15177 0.0
C1366 C 0.49683 0.11992 0.16641 0.0
C1367 C 0.49269 0.11177 0.18556 0.0
C1368 C 0.51653 0.12931 0.16297 0.0
C1369 C 0.4853 0.12777 0.13034 0.0
C1370 C 0.53422 0.11865 0.16643 0.0
C1371 C 0.55264 0.12836 0.16509 0.0
C1372 C 0.55361 0.14889 0.16039 0.0
C1373 C 0.53589 0.15936 0.15654 0.0
C1374 C 0.51758 0.14972 0.15796 0.0
H1375 H 0.47482 0.1205 0.1196 0.0
H1376 H 0.4829 0.14419 0.12936 0.0
H1377 H 0.50074 0.12439 0.12546 0.0
H1378 H 0.53374 0.10293 0.17051 0.0
H1379 H 0.56604 0.11992 0.16821 0.0
H1380 H 0.9321 0.87645 0.6697 0.0
H1381 H 0.96442 0.89337 0.6726 0.0
H1382 H 0.99407 0.83802 0.65746 0.0
H1383 H 0.96219 0.82132 0.65411 0.0
H1384 H 0.99358 0.88516 0.69901 0.0
H1385 H 0.02379 0.87641 0.62199 0.0
H1386 H 0.99779 0.87263 0.62758 0.0
H1387 H 0.01545 0.8526 0.63121 0.0
C1388 C 0.94553 0.86805 0.6666 0.0
C1389 C 0.94459 0.84757 0.66164 0.0
C1390 C 0.96397 0.87771 0.66829 0.0
C1391 C 0.98168 0.86707 0.66488 0.0
C1392 C 0.98065 0.84673 0.65958 0.0
H1393 H 0.09378 0.86654 0.71977 0.0
H1394 H 0.05866 0.867 0.71111 0.0
C1395 C 0.96234 0.83713 0.65786 0.0
C1396 C 0.0014 0.87633 0.66861 0.0
H1397 H 0.04832 0.87824 0.64916 0.0
C1398 C 0.00546 0.88409 0.68795 0.0
C1399 C 0.01685 0.87544 0.65409 0.0
C1400 C 0.01316 0.86903 0.6325 0.0
C1401 C 0.02486 0.88942 0.69365 0.0
C1402 C 0.04067 0.88637 0.67982 0.0
C1403 C 0.03632 0.8802 0.65996 0.0
C1404 C 0.06185 0.88771 0.68606 0.0
C1405 C 0.02821 0.89788 0.71457 0.0
C1406 C 0.07555 0.89884 0.6746 0.0
C1407 C 0.09582 0.8983 0.6793 0.0
C1408 C 0.10279 0.88662 0.69558 0.0
C1409 C 0.08896 0.87585 0.70727 0.0
C1410 C 0.06878 0.87624 0.70243 0.0
H1411 H 0.01497 0.90635 0.71986 0.0
H1412 H 0.03067 0.88538 0.72537 0.0
H1413 H 0.04131 0.90798 0.71499 0.0
H1414 H 0.0706 0.90769 0.6618 0.0
H1415 H 0.10604 0.90682 0.67 0.0
H1416 H 0.06591 0.37712 0.82305 0.0
H1417 H 0.03331 0.3935 0.82034 0.0
H1418 H 0.00462 0.33748 0.83479 0.0
H1419 H 0.0368 0.3213 0.83795 0.0
H1420 H 0.00418 0.38498 0.79382 0.0
H1421 H 0.97456 0.37511 0.87098 0.0
H1422 H 0.00057 0.3718 0.86518 0.0
H1423 H 0.98321 0.35156 0.86135 0.0
C1424 C 0.05263 0.36844 0.82602 0.0
C1425 C 0.05393 0.34793 0.83076 0.0
C1426 C 0.03404 0.3778 0.82444 0.0
C1427 C 0.01651 0.36681 0.82773 0.0
C1428 C 0.01789 0.34643 0.83276 0.0
H1429 H 0.90358 0.36636 0.77413 0.0
H1430 H 0.93884 0.36678 0.78222 0.0
C1431 C 0.03636 0.33714 0.83439 0.0
C1432 C 0.99665 0.37583 0.82419 0.0
H1433 H 0.9499 0.37736 0.84407 0.0
C1434 C 0.99239 0.38374 0.80496 0.0
C1435 C 0.98133 0.37469 0.83882 0.0
C1436 C 0.98523 0.36804 0.8603 0.0
C1437 C 0.97293 0.38905 0.79949 0.0
C1438 C 0.95726 0.38586 0.81345 0.0
C1439 C 0.9618 0.37946 0.83318 0.0
C1440 C 0.93603 0.38732 0.80748 0.0
C1441 C 0.96936 0.39767 0.77868 0.0
C1442 C 0.92252 0.39842 0.8192 0.0
C1443 C 0.90218 0.39792 0.81483 0.0
C1444 C 0.89495 0.3863 0.79862 0.0
C1445 C 0.90859 0.37561 0.78661 0.0
C1446 C 0.92886 0.37598 0.79112 0.0
H1447 H 0.98256 0.40614 0.77329 0.0
H1448 H 0.96671 0.38526 0.76782 0.0
H1449 H 0.95628 0.40781 0.77851 0.0
H1450 H 0.92767 0.40717 0.83199 0.0
H1451 H 0.89211 0.40637 0.82437 0.0
H1452 H 0.43147 0.61534 0.32196 0.0
H1453 H 0.46365 0.59808 0.31908 0.0
H1454 H 0.49373 0.65276 0.3357 0.0
H1455 H 0.46203 0.66976 0.33901 0.0
H1456 H 0.49319 0.60669 0.29304 0.0
H1457 H 0.52276 0.61325 0.3705 0.0
H1458 H 0.49684 0.61735 0.3648 0.0
H1459 H 0.51464 0.63735 0.36188 0.0
C1460 C 0.44496 0.6235 0.32542 0.0
C1461 C 0.44421 0.6439 0.33074 0.0
C1462 C 0.46332 0.61365 0.32373 0.0
C1463 C 0.48112 0.62402 0.32753 0.0
C1464 C 0.48024 0.64425 0.33325 0.0
H1465 H 0.59354 0.626 0.27358 0.0
H1466 H 0.55832 0.62512 0.28186 0.0
C1467 C 0.46204 0.65403 0.33496 0.0
C1468 C 0.50079 0.61467 0.32373 0.0
H1469 H 0.54755 0.61219 0.34346 0.0
C1470 C 0.50499 0.60743 0.30421 0.0
C1471 C 0.51612 0.61513 0.33838 0.0
C1472 C 0.51227 0.62098 0.36012 0.0
C1473 C 0.52443 0.60225 0.29851 0.0
C1474 C 0.54014 0.60492 0.31252 0.0
C1475 C 0.53563 0.61053 0.33252 0.0
C1476 C 0.56137 0.60379 0.3064 0.0
C1477 C 0.52793 0.59436 0.27738 0.0
C1478 C 0.57502 0.59245 0.3177 0.0
C1479 C 0.59533 0.59323 0.31324 0.0
C1480 C 0.60241 0.60537 0.29736 0.0
C1481 C 0.58864 0.61634 0.28578 0.0
C1482 C 0.5684 0.6157 0.29039 0.0
H1483 H 0.51475 0.58601 0.27178 0.0
H1484 H 0.53043 0.60716 0.26694 0.0
H1485 H 0.54107 0.58432 0.27675 0.0
H1486 H 0.56999 0.58326 0.33022 0.0
H1487 H 0.60551 0.58454 0.32243 0.0
H1488 H 0.23129 0.40625 0.13391 0.0
H1489 H 0.22166 0.44127 0.13809 0.0
H1490 H 0.16488 0.42887 0.11056 0.0
H1491 H 0.17447 0.39385 0.10592 0.0
H1492 H 0.1819 0.46234 0.09517 0.0
H1493 H 0.18344 0.4653 0.17895 0.0
H1494 H 0.20635 0.45614 0.16858 0.0
H1495 H 0.18384 0.44199 0.16506 0.0
C1496 C 0.21671 0.4109 0.12879 0.0
C1497 C 0.20365 0.39718 0.11962 0.0
C1498 C 0.21118 0.43092 0.13135 0.0
C1499 C 0.1924 0.43756 0.12502 0.0
C1500 C 0.17938 0.42399 0.11571 0.0
H1501 H 0.15378 0.55942 0.1562 0.0
H1502 H 0.15403 0.52294 0.15218 0.0
C1503 C 0.18492 0.40398 0.11305 0.0
C1504 C 0.1868 0.45891 0.12725 0.0
H1505 H 0.18409 0.497 0.16167 0.0
C1506 C 0.18213 0.46988 0.10974 0.0
C1507 C 0.18668 0.46862 0.14631 0.0
C1508 C 0.19013 0.45735 0.16581 0.0
C1509 C 0.17834 0.49052 0.11066 0.0
C1510 C 0.17969 0.5005 0.12953 0.0
C1511 C 0.18333 0.48936 0.14717 0.0
C1512 C 0.17866 0.52261 0.13111 0.0
C1513 C 0.17308 0.50147 0.0914 0.0
C1514 C 0.1925 0.53446 0.1207 0.0
C1515 C 0.19239 0.55525 0.12289 0.0
C1516 C 0.17856 0.56464 0.13576 0.0
C1517 C 0.16463 0.55271 0.14616 0.0
C1518 C 0.16474 0.53186 0.14389 0.0
H1519 H 0.16632 0.49118 0.08008 0.0
H1520 H 0.16257 0.51396 0.09437 0.0
H1521 H 0.18679 0.50779 0.08461 0.0
H1522 H 0.2037 0.5276 0.11116 0.0
H1523 H 0.20342 0.56389 0.11475 0.0
H1524 H 0.70205 0.93127 0.88298 0.0
H1525 H 0.70194 0.96755 0.88655 0.0
H1526 H 0.65538 0.97204 0.84191 0.0
H1527 H 0.65556 0.93555 0.8379 0.0
H1528 H 0.68592 -0.00219 0.83446 0.0
H1529 H 0.66278 0.00438 0.91454 0.0
H1530 H 0.68346 0.98767 0.91169 0.0
H1531 H 0.65997 0.98147 0.90025 0.0
C1532 C 0.69159 0.93987 0.87404 0.0
C1533 C 0.67881 0.93042 0.86013 0.0
C1534 C 0.69147 0.96065 0.87623 0.0
C1535 C 0.67842 0.97246 0.86477 0.0
C1536 C 0.66547 0.96315 0.85101 0.0
H1537 H 0.67381 0.10139 0.88894 0.0
H1538 H 0.66427 0.06641 0.88409 0.0
C1539 C 0.6656 0.9423 0.84875 0.0
C1540 C 0.67941 0.99458 0.86626 0.0
H1541 H 0.67977 0.03295 0.90044 0.0
C1542 C 0.68429 0.00556 0.84882 0.0
C1543 C 0.67693 0.0047 0.88492 0.0
C1544 C 0.67028 0.99396 0.90386 0.0
C1545 C 0.68776 0.02627 0.84976 0.0
C1546 C 0.68678 0.03611 0.86873 0.0
C1547 C 0.68087 0.02532 0.88596 0.0
C1548 C 0.69245 0.05742 0.87119 0.0
C1549 C 0.69253 0.03736 0.83044 0.0
C1550 C 0.71158 0.0639 0.86584 0.0
C1551 C 0.71709 0.08391 0.8685 0.0
C1552 C 0.70363 0.09779 0.87683 0.0
C1553 C 0.68457 0.09114 0.88249 0.0
C1554 C 0.67905 0.07114 0.8797 0.0
H1555 H 0.6865 0.02943 0.81697 0.0
H1556 H 0.68644 0.05283 0.83072 0.0
H1557 H 0.70889 0.0383 0.82864 0.0
H1558 H 0.72235 0.05343 0.85977 0.0
H1559 H 0.73193 0.08845 0.86412 0.0
H1560 H 0.81684 0.06622 0.39237 0.0
H1561 H 0.81482 0.03013 0.39806 0.0
H1562 H 0.83032 0.01947 0.33553 0.0
H1563 H 0.83304 0.05557 0.32989 0.0
H1564 H 0.7886 0.00659 0.38059 0.0
H1565 H 0.86375 0.97775 0.36298 0.0
H1566 H 0.85882 0.00408 0.36684 0.0
H1567 H 0.85377 0.99253 0.34271 0.0
C1568 C 0.82019 0.05619 0.37992 0.0
C1569 C 0.82499 0.06374 0.36065 0.0
C1570 C 0.81905 0.03557 0.3832 0.0
C1571 C 0.82255 0.02207 0.36728 0.0
C1572 C 0.82801 0.02955 0.34818 0.0
H1573 H 0.76861 0.9055 0.35556 0.0
H1574 H 0.7782 0.9407 0.35341 0.0
C1575 C 0.82944 0.05021 0.34495 0.0
C1576 C 0.81833 0.00045 0.37013 0.0
H1577 H 0.83742 0.95345 0.36372 0.0
C1578 C 0.79938 0.99499 0.3771 0.0
C1579 C 0.83243 0.98532 0.36575 0.0
C1580 C 0.85339 0.99021 0.35936 0.0
C1581 C 0.79397 0.97485 0.37941 0.0
C1582 C 0.8077 0.95972 0.37404 0.0
C1583 C 0.82684 0.96511 0.36756 0.0
C1584 C 0.80234 0.93822 0.37492 0.0
C1585 C 0.77364 0.97001 0.38775 0.0
C1586 C 0.81312 0.92503 0.38727 0.0
C1587 C 0.80779 0.90482 0.38841 0.0
C1588 C 0.79158 0.89744 0.37718 0.0
C1589 C 0.781 0.91069 0.36461 0.0
C1590 C 0.78643 0.93085 0.36339 0.0
H1591 H 0.76743 0.98276 0.39655 0.0
H1592 H 0.76336 0.96688 0.375 0.0
H1593 H 0.77412 0.9566 0.39769 0.0
H1594 H 0.82551 0.93042 0.39621 0.0
H1595 H 0.81631 0.89503 0.3982 0.0
H1596 H 0.31049 0.42815 0.60175 0.0
H1597 H 0.30835 0.46439 0.59732 0.0
H1598 H 0.33065 0.47313 0.65797 0.0
H1599 H 0.33345 0.43683 0.66228 0.0
H1600 H 0.28464 0.48812 0.61846 0.0
H1601 H 0.36215 0.51457 0.62749 0.0
H1602 H 0.35605 0.48849 0.62364 0.0
H1603 H 0.35386 0.49957 0.64841 0.0
C1604 C 0.31528 0.43779 0.61403 0.0
C1605 C 0.32206 0.42963 0.6324 0.0
C1606 C 0.31406 0.4585 0.61147 0.0
C1607 C 0.31945 0.4715 0.62725 0.0
C1608 C 0.32682 0.46343 0.64541 0.0
H1609 H 0.27079 0.591 0.64183 0.0
H1610 H 0.2792 0.55551 0.64474 0.0
C1611 C 0.32832 0.44266 0.64789 0.0
C1612 C 0.31552 0.49328 0.62531 0.0
H1613 H 0.33676 0.53961 0.62899 0.0
C1614 C 0.29609 0.49937 0.62062 0.0
C1615 C 0.33048 0.50793 0.62798 0.0
C1616 C 0.35184 0.50233 0.63196 0.0
C1617 C 0.29114 0.51967 0.61871 0.0
C1618 C 0.3059 0.53435 0.62217 0.0
C1619 C 0.32541 0.52831 0.62658 0.0
C1620 C 0.30139 0.55605 0.621 0.0
C1621 C 0.27021 0.52515 0.61263 0.0
C1622 C 0.31154 0.56827 0.60715 0.0
C1623 C 0.30694 0.58863 0.6056 0.0
C1624 C 0.29205 0.59714 0.61787 0.0
C1625 C 0.28214 0.58489 0.63196 0.0
C1626 C 0.28688 0.56458 0.63361 0.0
H1627 H 0.26256 0.51247 0.60498 0.0
H1628 H 0.26154 0.52903 0.62639 0.0
H1629 H 0.27008 0.53828 0.6023 0.0
H1630 H 0.32285 0.56198 0.59733 0.0
H1631 H 0.3149 0.59762 0.59461 0.0
H1632 H 0.85302 0.83158 0.43014 0.0
H1633 H 0.87019 0.8299 0.46281 0.0
H1634 H 0.81795 0.85289 0.49269 0.0
H1635 H 0.80054 0.85422 0.46021 0.0
H1636 H 0.87837 0.85732 0.49555 0.0
H1637 H 0.82608 0.79643 0.51674 0.0
H1638 H 0.82831 0.80561 0.49114 0.0
H1639 H 0.81418 0.81945 0.50957 0.0
C1640 C 0.8453 0.83659 0.44363 0.0
C1641 C 0.82532 0.84269 0.4427 0.0
C1642 C 0.85515 0.83568 0.46225 0.0
C1643 C 0.84519 0.84094 0.48014 0.0
C1644 C 0.82576 0.84845 0.47905 0.0
H1645 H 0.8845 0.84579 0.60489 0.0
H1646 H 0.87775 0.85465 0.56956 0.0
C1647 C 0.81584 0.8492 0.46049 0.0
C1648 C 0.85426 0.83659 0.50006 0.0
H1649 H 0.84779 0.80793 0.54227 0.0
C1650 C 0.87178 0.84651 0.50581 0.0
C1651 C 0.8458 0.82216 0.51317 0.0
C1652 C 0.82767 0.81014 0.50732 0.0
C1653 C 0.88082 0.84265 0.52462 0.0
C1654 C 0.87192 0.82871 0.53798 0.0
C1655 C 0.85458 0.81864 0.53203 0.0
C1656 C 0.87994 0.82421 0.55838 0.0
C1657 C 0.89991 0.85325 0.5299 0.0
C1658 C 0.88375 0.80423 0.56377 0.0
C1659 C 0.88723 0.79911 0.58393 0.0
C1660 C 0.8871 0.81389 0.5991 0.0
C1661 C 0.88476 0.83409 0.59351 0.0
C1662 C 0.88101 0.83919 0.57329 0.0
H1663 H 0.90763 0.85886 0.51614 0.0
H1664 H 0.89651 0.86633 0.5397 0.0
H1665 H 0.91013 0.84318 0.53831 0.0
H1666 H 0.88303 0.79245 0.55249 0.0
H1667 H 0.88921 0.78344 0.58774 0.0
H1668 H 0.69388 0.14701 0.96383 0.0
H1669 H 0.67454 0.14553 0.99496 0.0
H1670 H 0.62024 0.14769 0.96028 0.0
H1671 H 0.63963 0.14985 0.92895 0.0
H1672 H 0.61932 0.17462 0.98865 0.0
H1673 H 0.64315 0.10426 0.02448 0.0
H1674 H 0.66475 0.11841 0.0177 0.0
H1675 H 0.64815 0.10961 -0.00185 0.0
C1676 C 0.67782 0.14679 0.96277 0.0
C1677 C 0.66827 0.14866 0.94397 0.0
C1678 C 0.66675 0.14571 0.98061 0.0
C1679 C 0.64589 0.1461 0.97999 0.0
C1680 C 0.6363 0.1472 0.96113 0.0
H1681 H 0.59882 0.15107 0.10448 0.0
H1682 H 0.60092 0.13951 0.06927 0.0
C1683 C 0.6474 0.14847 0.94325 0.0
C1684 C 0.63448 0.14807 -0.00089 0.0
H1685 H 0.6338 0.13138 0.04794 0.0
C1686 C 0.62208 0.16483 0.00146 0.0
C1687 C 0.63752 0.13507 0.01577 0.0
C1688 C 0.64894 0.11571 0.01378 0.0
C1689 C 0.61425 0.16998 0.02045 0.0
C1690 C 0.61946 0.1584 0.03758 0.0
C1691 C 0.63019 0.14055 0.03489 0.0
C1692 C 0.61631 0.1659 0.05847 0.0
C1693 C 0.60109 0.18822 0.02204 0.0
C1694 C 0.62434 0.18449 0.06406 0.0
C1695 C 0.62314 0.19115 0.08403 0.0
C1696 C 0.61412 0.17922 0.09899 0.0
C1697 C 0.60588 0.16064 0.09335 0.0
C1698 C 0.60703 0.15401 0.07324 0.0
H1699 H 0.59239 0.19039 0.0079 0.0
H1700 H 0.59063 0.18704 0.035 0.0
H1701 H 0.61047 0.20173 0.02417 0.0
H1702 H 0.63211 0.19366 0.05308 0.0
H1703 H 0.62976 0.20548 0.08776 0.0
H1704 H 0.38737 0.64716 0.38643 0.0
H1705 H 0.37946 0.63718 0.42123 0.0
H1706 H 0.37539 0.69935 0.43861 0.0
H1707 H 0.3829 0.70949 0.40391 0.0
H1708 H 0.39462 0.64599 0.46126 0.0
H1709 H 0.31907 0.67648 0.4478 0.0
H1710 H 0.33667 0.67246 0.42758 0.0
H1711 H 0.33857 0.69431 0.44344 0.0
C1712 C 0.38518 0.65872 0.39775 0.0
C1713 C 0.38536 0.67912 0.39233 0.0
C1714 C 0.38068 0.65298 0.41762 0.0
C1715 C 0.37643 0.66755 0.43231 0.0
C1716 C 0.37824 0.6879 0.42734 0.0
H1717 H 0.35329 0.6627 0.5603 0.0
H1718 H 0.36945 0.66304 0.52715 0.0
C1719 C 0.38254 0.69365 0.4075 0.0
C1720 C 0.36813 0.66168 0.45219 0.0
H1721 H 0.32685 0.66728 0.48153 0.0
C1722 C 0.37977 0.65049 0.46572 0.0
C1723 C 0.34858 0.66719 0.45772 0.0
C1724 C 0.3349 0.6781 0.44332 0.0
C1725 C 0.37255 0.64527 0.48502 0.0
C1726 C 0.35335 0.65172 0.49091 0.0
C1727 C 0.34158 0.66239 0.47707 0.0
C1728 C 0.34518 0.6484 0.5115 0.0
C1729 C 0.38546 0.6328 0.49879 0.0
C1730 C 0.32617 0.64001 0.51381 0.0
C1731 C 0.31674 0.64021 0.53265 0.0
C1732 C 0.32621 0.64867 0.54956 0.0
C1733 C 0.34568 0.65599 0.54753 0.0
C1734 C 0.35501 0.65604 0.5286 0.0
H1735 H 0.3963 0.62374 0.48999 0.0
H1736 H 0.39401 0.64289 0.50892 0.0
H1737 H 0.37641 0.62258 0.50832 0.0
H1738 H 0.31829 0.63406 0.50082 0.0
H1739 H 0.30177 0.63435 0.5338 0.0
H1740 H 0.14275 0.33254 0.06236 0.0
H1741 H 0.12643 0.33129 0.02922 0.0
H1742 H 0.17799 0.3583 0.00167 0.0
H1743 H 0.19457 0.35918 0.03462 0.0
H1744 H 0.11745 0.359 -0.00299 0.0
H1745 H 0.17417 0.3022 0.97582 0.0
H1746 H 0.17068 0.31055 0.00157 0.0
H1747 H 0.18429 0.32579 0.98389 0.0
C1748 C 0.15045 0.33857 0.04931 0.0
C1749 C 0.17007 0.34561 0.05098 0.0
C1750 C 0.14109 0.33789 0.03041 0.0
C1751 C 0.15117 0.34436 0.013 0.0
C1752 C 0.17011 0.35292 0.01492 0.0
H1753 H 0.11339 0.34782 0.88723 0.0
H1754 H 0.11958 0.35711 0.92257 0.0
C1755 C 0.17956 0.35341 0.03374 0.0
C1756 C 0.14296 0.33999 0.99268 0.0
H1757 H 0.15217 0.31258 0.95012 0.0
C1758 C 0.12497 0.34885 0.9867 0.0
C1759 C 0.15266 0.32644 0.97949 0.0
C1760 C 0.17141 0.31553 0.98553 0.0
C1761 C 0.11658 0.34472 0.96762 0.0
C1762 C 0.12662 0.3316 0.95425 0.0
C1763 C 0.1445 0.32266 0.96039 0.0
C1764 C 0.11913 0.32661 0.93376 0.0
C1765 C 0.09695 0.35411 0.9621 0.0
C1766 C 0.11652 0.30644 0.92837 0.0
C1767 C 0.11334 0.30109 0.90821 0.0
C1768 C 0.1126 0.31582 0.89302 0.0
C1769 C 0.11383 0.33614 0.89861 0.0
C1770 C 0.11726 0.34148 0.91883 0.0
H1771 H 0.08873 0.35929 0.97573 0.0
H1772 H 0.09965 0.36731 0.95225 0.0
H1773 H 0.08746 0.34338 0.95361 0.0
H1774 H 0.11788 0.29473 0.93966 0.0
H1775 H 0.11223 0.28532 0.90442 0.0
H1776 H 0.60781 0.87018 0.7978 0.0
H1777 H 0.57147 0.86983 0.7967 0.0
H1778 H 0.56947 0.89804 0.85557 0.0
H1779 H 0.60572 0.8972 0.85715 0.0
H1780 H 0.54883 0.86657 0.85681 0.0
H1781 H 0.52587 0.90606 0.78734 0.0
H1782 H 0.54371 0.8871 0.78118 0.0
H1783 H 0.55084 0.90783 0.79716 0.0
C1784 C 0.59956 0.8768 0.81021 0.0
C1785 C 0.60945 0.88358 0.82761 0.0
C1786 C 0.57876 0.87676 0.80953 0.0
C1787 C 0.5676 0.88407 0.826 0.0
C1788 C 0.57767 0.89226 0.8427 0.0
H1789 H 0.43695 0.86686 0.82404 0.0
H1790 H 0.46918 0.8842 0.82584 0.0
C1791 C 0.59838 0.8918 0.8436 0.0
C1792 C 0.54586 0.88023 0.8273 0.0
H1793 H 0.5027 0.88082 0.80006 0.0
C1794 C 0.53872 0.87016 0.84454 0.0
C1795 C 0.53243 0.88506 0.81152 0.0
C1796 C 0.53861 0.89731 0.79339 0.0
C1797 C 0.51896 0.86377 0.84589 0.0
C1798 C 0.50606 0.86694 0.82932 0.0
C1799 C 0.51272 0.87811 0.81262 0.0
C1800 C 0.48644 0.85694 0.82831 0.0
C1801 C 0.51222 0.85322 0.86492 0.0
C1802 C 0.48555 0.83596 0.82888 0.0
C1803 C 0.46734 0.82611 0.82796 0.0
C1804 C 0.44956 0.83702 0.82625 0.0
C1805 C 0.45041 0.85807 0.8255 0.0
C1806 C 0.46877 0.86798 0.82644 0.0
H1807 H 0.52116 0.85797 0.87824 0.0
H1808 H 0.4963 0.85622 0.86814 0.0
H1809 H 0.51424 0.83682 0.86302 0.0
H1810 H 0.49903 0.82713 0.82987 0.0
H1811 H 0.46726 0.80988 0.82841 0.0
H1812 H 0.8942 0.0896 0.34604 0.0
H1813 H 0.93055 0.08949 0.34441 0.0
H1814 H 0.92834 0.12835 0.2922 0.0
H1815 H 0.8919 0.12739 0.29309 0.0
H1816 H 0.96087 0.10389 0.291 0.0
H1817 H 0.9544 0.13999 0.36667 0.0
H1818 H 0.94485 0.11493 0.3657 0.0
H1819 H 0.93303 0.13447 0.35126 0.0
C1820 C 0.90154 0.09751 0.3338 0.0
C1821 C 0.89044 0.10863 0.31977 0.0
C1822 C 0.92226 0.09758 0.33298 0.0
C1823 C 0.93214 0.10949 0.31864 0.0
C1824 C 0.92102 0.11918 0.3035 0.0
H1825 H 0.03264 0.18309 0.33015 0.0
H1826 H 0.0008 0.16596 0.32877 0.0
C1827 C 0.90023 0.11862 0.30397 0.0
C1828 C 0.95358 0.1141 0.32104 0.0
H1829 H 0.98639 0.13659 0.3533 0.0
C1830 C 0.96654 0.11086 0.30467 0.0
C1831 C 0.96088 0.12343 0.33885 0.0
C1832 C 0.94757 0.1286 0.35655 0.0
C1833 C 0.98646 0.11721 0.30543 0.0
C1834 C 0.99361 0.12667 0.32319 0.0
C1835 C 0.98086 0.12919 0.33978 0.0
C1836 C 0.01336 0.13644 0.32411 0.0
C1837 C -0.00063 0.11471 0.28692 0.0
C1838 C 0.03109 0.12548 0.32224 0.0
C1839 C 0.04948 0.13533 0.32297 0.0
C1840 C 0.05033 0.15623 0.3257 0.0
C1841 C 0.03254 0.16699 0.32803 0.0
C1842 C 0.01429 0.15721 0.32722 0.0
H1843 H 0.99061 0.11033 0.27335 0.0
H1844 H 0.00745 0.12882 0.28353 0.0
H1845 H 0.01056 0.10284 0.28981 0.0
H1846 H 0.0307 0.10938 0.32023 0.0
H1847 H 0.06295 0.12665 0.32116 0.0
H1848 H 0.10326 0.5981 0.1361 0.0
H1849 H 0.06693 0.59911 0.13679 0.0
H1850 H 0.06879 0.62738 0.19558 0.0
H1851 H 0.10516 0.62526 0.19543 0.0
H1852 H 0.03611 0.60398 0.19184 0.0
H1853 H 0.04369 0.65288 0.12411 0.0
H1854 H 0.0529 0.62793 0.1204 0.0
H1855 H 0.06486 0.64431 0.13834 0.0
C1856 C 0.09585 0.60402 0.1494 0.0
C1857 C 0.1069 0.61186 0.1656 0.0
C1858 C 0.07512 0.60471 0.14972 0.0
C1859 C 0.06517 0.61398 0.1659 0.0
C1860 C 0.07616 0.62032 0.18285 0.0
H1861 H 0.96481 0.68918 0.16467 0.0
H1862 H 0.99664 0.67201 0.16426 0.0
C1863 C 0.09692 0.61911 0.18277 0.0
C1864 C 0.0438 0.61925 0.16419 0.0
H1865 H 0.01147 0.64722 0.13613 0.0
C1866 C 0.03064 0.61331 0.17959 0.0
C1867 C 0.03676 0.63162 0.14829 0.0
C1868 C 0.05029 0.63973 0.13195 0.0
C1869 C 0.01078 0.61987 0.17981 0.0
C1870 C 0.00385 0.63231 0.16395 0.0
C1871 C 0.01681 0.63758 0.14819 0.0
C1872 C 0.98408 0.64213 0.16447 0.0
C1873 C 0.9977 0.61428 0.1975 0.0
C1874 C 0.96633 0.63105 0.16459 0.0
C1875 C 0.94793 0.64093 0.165 0.0
C1876 C 0.94709 0.662 0.16503 0.0
C1877 C 0.9649 0.67295 0.16459 0.0
C1878 C 0.98315 0.66314 0.16437 0.0
H1879 H 0.0064 0.60797 0.2103 0.0
H1880 H 0.98932 0.62754 0.20303 0.0
H1881 H 0.98679 0.60282 0.19256 0.0
H1882 H 0.96669 0.61483 0.16425 0.0
H1883 H 0.93443 0.6321 0.16528 0.0
H1884 H 0.39262 0.36805 0.69507 0.0
H1885 H 0.42896 0.36677 0.69539 0.0
H1886 H 0.43047 0.3961 0.63708 0.0
H1887 H 0.39418 0.39614 0.63624 0.0
H1888 H 0.45038 0.3643 0.63469 0.0
H1889 H 0.47554 0.40161 0.70461 0.0
H1890 H 0.45742 0.38292 0.71072 0.0
H1891 H 0.45042 0.40415 0.69538 0.0
C1892 C 0.40079 0.37472 0.68264 0.0
C1893 C 0.39073 0.38208 0.66559 0.0
C1894 C 0.42158 0.37414 0.68287 0.0
C1895 C 0.43259 0.38149 0.66632 0.0
C1896 C 0.42239 0.39027 0.65001 0.0
H1897 H 0.56265 0.36201 0.66721 0.0
H1898 H 0.53066 0.37971 0.66567 0.0
C1899 C 0.40167 0.39033 0.64954 0.0
C1900 C 0.4542 0.37716 0.66448 0.0
H1901 H 0.49786 0.37614 0.69085 0.0
C1902 C 0.46079 0.36735 0.64685 0.0
C1903 C 0.46803 0.3813 0.6801 0.0
C1904 C 0.46249 0.39329 0.69864 0.0
C1905 C 0.48039 0.36058 0.64491 0.0
C1906 C 0.49366 0.36304 0.6613 0.0
C1907 C 0.48754 0.37394 0.67842 0.0
C1908 C 0.51318 0.35278 0.66163 0.0
C1909 C 0.48655 0.35051 0.62541 0.0
C1910 C 0.51392 0.33183 0.65999 0.0
C1911 C 0.53204 0.32177 0.66072 0.0
C1912 C 0.54986 0.33241 0.66336 0.0
C1913 C 0.54917 0.35342 0.66502 0.0
C1914 C 0.53093 0.36354 0.66423 0.0
H1915 H 0.47758 0.35601 0.61242 0.0
H1916 H 0.50251 0.35311 0.62205 0.0
H1917 H 0.48403 0.33413 0.62673 0.0
H1918 H 0.50038 0.32318 0.65846 0.0
H1919 H 0.532 0.30557 0.65957 0.0
H1920 H 0.80004 0.59918 0.89865 0.0
H1921 H 0.7957 0.56265 0.89935 0.0
H1922 H 0.85767 0.555 0.88446 0.0
H1923 H 0.86218 0.59107 0.88431 0.0
H1924 H 0.79956 0.53944 0.86772 0.0
H1925 H 0.85172 0.5113 0.92502 0.0
H1926 H 0.8444 0.53734 0.92401 0.0
H1927 H 0.86475 0.52825 0.90872 0.0
C1928 C 0.81281 0.58965 0.89606 0.0
C1929 C 0.83142 0.59799 0.89132 0.0
C1930 C 0.81033 0.5688 0.89648 0.0
C1931 C 0.82643 0.55602 0.8923 0.0
C1932 C 0.84514 0.56443 0.88837 0.0
H1933 H 0.83792 0.45898 0.81539 0.0
H1934 H 0.83355 0.49013 0.83414 0.0
C1935 C 0.84764 0.58515 0.88803 0.0
C1936 C 0.82342 0.53425 0.88889 0.0
H1937 H 0.84673 0.48925 0.89533 0.0
C1938 C 0.80951 0.52838 0.87421 0.0
C1939 C 0.83602 0.51962 0.89763 0.0
C1940 C 0.84987 0.52448 0.9149 0.0
C1941 C 0.80922 0.50876 0.86663 0.0
C1942 C 0.82356 0.49485 0.87353 0.0
C1943 C 0.83611 0.50011 0.88964 0.0
C1944 C 0.82704 0.47569 0.86276 0.0
C1945 C 0.79403 0.50336 0.85073 0.0
C1946 C 0.82587 0.45723 0.87288 0.0
C1947 C 0.82866 0.4393 0.8622 0.0
C1948 C 0.8327 0.43965 0.84128 0.0
C1949 C 0.83462 0.4582 0.83144 0.0
C1950 C 0.83195 0.47602 0.8421 0.0
H1951 H 0.78035 0.51253 0.85244 0.0
H1952 H 0.80027 0.50647 0.83549 0.0
H1953 H 0.78993 0.48726 0.85153 0.0
H1954 H 0.82237 0.45669 0.88889 0.0
H1955 H 0.8271 0.4252 0.87018 0.0
H1956 H 0.36277 0.90038 0.10691 0.0
H1957 H 0.35846 0.93652 0.10803 0.0
H1958 H 0.29657 0.92976 0.09252 0.0
H1959 H 0.30064 0.89318 0.09205 0.0
H1960 H 0.34611 0.96621 0.08281 0.0
H1961 H 0.2934 0.95673 0.14728 0.0
H1962 H 0.30745 0.93602 0.13717 0.0
H1963 H 0.28627 0.94551 0.12364 0.0
C1964 C 0.34826 0.90652 0.10348 0.0
C1965 C 0.33194 0.8939 0.09978 0.0
C1966 C 0.34585 0.92724 0.10401 0.0
C1967 C 0.32711 0.93584 0.10077 0.0
C1968 C 0.31106 0.9234 0.09552 0.0
H1969 H 0.32508 0.06737 0.12187 0.0
H1970 H 0.32118 0.03558 0.10351 0.0
C1971 C 0.31343 0.90253 0.09515 0.0
C1972 C 0.32443 0.95748 0.10512 0.0
H1973 H 0.30465 0.98904 0.14048 0.0
C1974 C 0.33677 0.97133 0.09517 0.0
C1975 C 0.31229 0.96406 0.12133 0.0
C1976 C 0.29918 0.94985 0.13311 0.0
C1977 C 0.33828 0.99128 0.10185 0.0
C1978 C 0.32683 -0.00245 0.11865 0.0
C1979 C 0.31347 0.98409 0.12765 0.0
C1980 C 0.33013 0.01706 0.12884 0.0
C1981 C 0.35304 0.00507 0.09176 0.0
C1982 C 0.33645 0.01716 0.14909 0.0
C1983 C 0.33846 0.03515 0.1596 0.0
C1984 C 0.33429 0.05347 0.15005 0.0
C1985 C 0.32855 0.05346 0.12955 0.0
C1986 C 0.32635 0.03534 0.11904 0.0
H1987 H 0.36304 -0.00308 0.08121 0.0
H1988 H 0.34491 0.01664 0.08298 0.0
H1989 H 0.36224 0.01287 0.10329 0.0
H1990 H 0.33954 0.00322 0.15691 0.0
H1991 H 0.34296 0.03467 0.17535 0.0
H1992 H 0.17201 0.92571 0.62562 0.0
H1993 H 0.17648 0.95713 0.60675 0.0
H1994 H 0.16304 0.99079 0.66086 0.0
H1995 H 0.15895 0.95971 0.67978 0.0
H1996 H 0.15162 0.989 0.59926 0.0
H1997 H 0.21616 0.01426 0.64394 0.0
H1998 H 0.20707 0.98881 0.64491 0.0
H1999 H 0.1958 0.00804 0.66028 0.0
C2000 C 0.16991 0.93984 0.63342 0.0
C2001 C 0.16532 0.94028 0.65422 0.0
C2002 C 0.17254 0.95773 0.62266 0.0
C2003 C 0.17064 0.97626 0.63256 0.0
C2004 C 0.16519 0.97666 0.65308 0.0
H2005 H 0.13493 0.0912 0.60735 0.0
H2006 H 0.13955 0.05513 0.60808 0.0
C2007 C 0.16269 0.95887 0.66384 0.0
C2008 C 0.174 0.99537 0.62169 0.0
H2009 H 0.19711 0.04045 0.6274 0.0
C2010 C 0.16187 0.00013 0.60509 0.0
C2011 C 0.18786 0.00966 0.62881 0.0
C2012 C 0.20262 0.00483 0.64532 0.0
C2013 C 0.16194 0.01948 0.59671 0.0
C2014 C 0.17407 0.03447 0.60552 0.0
C2015 C 0.18753 0.02911 0.62082 0.0
C2016 C 0.17104 0.05611 0.60139 0.0
C2017 C 0.14858 0.02376 0.57889 0.0
C2018 C 0.18723 0.06886 0.59748 0.0
C2019 C 0.18467 0.0897 0.59739 0.0
C2020 C 0.1659 0.09807 0.60134 0.0
C2021 C 0.1496 0.08524 0.60425 0.0
C2022 C 0.15217 0.06452 0.60442 0.0
H2023 H 0.14716 0.01033 0.56904 0.0
H2024 H 0.13349 0.02756 0.58448 0.0
H2025 H 0.15422 0.03644 0.56963 0.0
H2026 H 0.20197 0.06271 0.59528 0.0
H2027 H 0.19751 0.09921 0.5951 0.0
H2028 H 0.6963 0.39424 0.38224 0.0
H2029 H 0.69628 0.43082 0.3799 0.0
H2030 H 0.63705 0.4324 0.40496 0.0
H2031 H 0.63668 0.39581 0.40623 0.0
H2032 H 0.63729 0.45026 0.37071 0.0
H2033 H 0.70107 0.47988 0.41379 0.0
H2034 H 0.70906 0.46062 0.39671 0.0
H2035 H 0.69222 0.45453 0.41705 0.0
C2036 C 0.68357 0.40248 0.38787 0.0
C2037 C 0.66643 0.3923 0.39425 0.0
C2038 C 0.6836 0.42342 0.38665 0.0
C2039 C 0.66668 0.43446 0.39235 0.0
C2040 C 0.65024 0.42425 0.40042 0.0
H2041 H 0.66172 0.56452 0.36774 0.0
H2042 H 0.66135 0.53256 0.38622 0.0
C2043 C 0.65004 0.40335 0.40117 0.0
C2044 C 0.66475 0.4559 0.3866 0.0
H2045 H 0.68916 0.50079 0.38607 0.0
C2046 C 0.64846 0.46136 0.37449 0.0
C2047 C 0.67917 0.47054 0.39159 0.0
C2048 C 0.69623 0.46612 0.40569 0.0
C2049 C 0.6467 0.48067 0.36642 0.0
C2050 C 0.66192 0.4948 0.37005 0.0
C2051 C 0.67766 0.4898 0.38305 0.0
C2052 C 0.66236 0.5142 0.35921 0.0
C2053 C 0.62868 0.48563 0.35376 0.0
C2054 C 0.66329 0.51439 0.33798 0.0
C2055 C 0.66337 0.53249 0.32745 0.0
C2056 C 0.66274 0.5508 0.33795 0.0
C2057 C 0.66209 0.55063 0.35925 0.0
C2058 C 0.66195 0.53243 0.36982 0.0
H2059 H 0.61585 0.47594 0.35779 0.0
H2060 H 0.62424 0.50155 0.35566 0.0
H2061 H 0.63219 0.48302 0.33754 0.0
H2062 H 0.66403 0.50049 0.32953 0.0
H2063 H 0.66408 0.53209 0.31106 0.0
loop_
_geom_bond_atom_site_label_1
_geom_bond_atom_site_label_2
_geom_bond_distance
_geom_bond_site_symmetry_2
_ccdc_geom_bond_type
Co0 O1 2.216 . S
Co0 O2 2.091 . S
Co0 O4 2.004 . S
Co0 O10 2.021 . S
Co0 O12 2.137 . S
Co0 O13 2.244 . S
O1 Co0 2.216 . S
O1 C8 1.247 . S
O2 Co0 2.091 . S
O2 C8 1.261 . S
C3 O12 1.247 . S
C3 O13 1.272 . S
O4 Co0 2.004 . S
O4 C9 1.259 . S
Co5 O6 2.061 . S
Co5 O11 2.052 . S
Co5 O13 2.135 . S
O6 Co5 2.061 . S
O6 C9 1.235 . S
C7 O10 1.238 . S
C7 O11 1.241 . S
C8 O1 1.247 . S
C8 O2 1.261 . S
C9 O4 1.259 . S
C9 O6 1.235 . S
O10 Co0 2.021 . S
O10 C7 1.238 . S
O11 Co5 2.052 . S
O11 C7 1.241 . S
O12 Co0 2.137 . S
O12 C3 1.247 . S
O13 Co0 2.244 . S
O13 C3 1.272 . S
O13 Co5 2.135 . S
Co14 O15 2.216 . S
Co14 O16 2.091 . S
Co14 O18 2.004 . S
Co14 O24 2.021 . S
Co14 O26 2.137 . S
Co14 O27 2.244 . S
O15 Co14 2.216 . S
O15 C22 1.247 . S
O16 Co14 2.091 . S
O16 C22 1.261 . S
C17 O26 1.247 . S
C17 O27 1.272 . S
O18 Co14 2.004 . S
O18 C23 1.259 . S
Co19 O20 2.061 . S
Co19 O25 2.052 . S
Co19 O27 2.135 . S
O20 Co19 2.061 . S
O20 C23 1.235 . S
C21 O24 1.238 . S
C21 O25 1.241 . S
C22 O15 1.247 . S
C22 O16 1.261 . S
C23 O18 1.259 . S
C23 O20 1.235 . S
O24 Co14 2.021 . S
O24 C21 1.238 . S
O25 Co19 2.052 . S
O25 C21 1.241 . S
O26 Co14 2.137 . S
O26 C17 1.247 . S
O27 Co14 2.244 . S
O27 C17 1.272 . S
O27 Co19 2.135 . S
Co28 O29 2.216 . S
Co28 O30 2.091 . S
Co28 O32 2.004 . S
Co28 O38 2.021 . S
Co28 O40 2.137 . S
Co28 O41 2.244 . S
O29 Co28 2.216 . S
O29 C36 1.247 . S
O30 Co28 2.091 . S
O30 C36 1.261 . S
C31 O40 1.247 . S
C31 O41 1.272 . S
O32 Co28 2.004 . S
O32 C37 1.259 . S
Co33 O34 2.061 . S
Co33 O39 2.052 . S
Co33 O41 2.135 . S
O34 Co33 2.061 . S
O34 C37 1.235 . S
C35 O38 1.238 . S
C35 O39 1.241 . S
C36 O29 1.247 . S
C36 O30 1.261 . S
C37 O32 1.259 . S
C37 O34 1.235 . S
O38 Co28 2.021 . S
O38 C35 1.238 . S
O39 Co33 2.052 . S
O39 C35 1.241 . S
O40 Co28 2.137 . S
O40 C31 1.247 . S
O41 Co28 2.244 . S
O41 C31 1.272 . S
O41 Co33 2.135 . S
Co42 O43 2.216 . S
Co42 O44 2.091 . S
Co42 O46 2.004 . S
Co42 O52 2.021 . S
Co42 O54 2.137 . S
Co42 O55 2.244 . S
O43 Co42 2.216 . S
O43 C50 1.247 . S
O44 Co42 2.091 . S
O44 C50 1.261 . S
C45 O54 1.247 . S
C45 O55 1.272 . S
O46 Co42 2.004 . S
O46 C51 1.259 . S
Co47 O48 2.061 . S
Co47 O53 2.052 . S
Co47 O55 2.135 . S
O48 Co47 2.061 . S
O48 C51 1.235 . S
C49 O52 1.238 . S
C49 O53 1.241 . S
C50 O43 1.247 . S
C50 O44 1.261 . S
C51 O46 1.259 . S
C51 O48 1.235 . S
O52 Co42 2.021 . S
O52 C49 1.238 . S
O53 Co47 2.052 . S
O53 C49 1.241 . S
O54 Co42 2.137 . S
O54 C45 1.247 . S
O55 Co42 2.244 . S
O55 C45 1.272 . S
O55 Co47 2.135 . S
Co56 O57 2.216 . S
Co56 O58 2.091 . S
Co56 O60 2.004 . S
Co56 O66 2.021 . S
Co56 O68 2.137 . S
Co56 O69 2.244 . S
O57 Co56 2.216 . S
O57 C64 1.247 . S
O58 Co56 2.091 . S
O58 C64 1.261 . S
C59 O68 1.247 . S
C59 O69 1.272 . S
O60 Co56 2.004 . S
O60 C65 1.259 . S
Co61 O62 2.061 . S
Co61 O67 2.052 . S
Co61 O69 2.135 . S
O62 Co61 2.061 . S
O62 C65 1.235 . S
C63 O66 1.238 . S
C63 O67 1.241 . S
C64 O57 1.247 . S
C64 O58 1.261 . S
C65 O60 1.259 . S
C65 O62 1.235 . S
O66 Co56 2.021 . S
O66 C63 1.238 . S
O67 Co61 2.052 . S
O67 C63 1.241 . S
O68 Co56 2.137 . S
O68 C59 1.247 . S
O69 Co56 2.244 . S
O69 C59 1.272 . S
O69 Co61 2.135 . S
Co70 O71 2.216 . S
Co70 O72 2.091 . S
Co70 O74 2.004 . S
Co70 O80 2.021 . S
Co70 O82 2.137 . S
Co70 O83 2.244 . S
O71 Co70 2.216 . S
O71 C78 1.247 . S
O72 Co70 2.091 . S
O72 C78 1.261 . S
C73 O82 1.247 . S
C73 O83 1.272 . S
O74 Co70 2.004 . S
O74 C79 1.259 . S
Co75 O76 2.061 . S
Co75 O81 2.052 . S
Co75 O83 2.135 . S
O76 Co75 2.061 . S
O76 C79 1.235 . S
C77 O80 1.238 . S
C77 O81 1.241 . S
C78 O71 1.247 . S
C78 O72 1.261 . S
C79 O74 1.259 . S
C79 O76 1.235 . S
O80 Co70 2.021 . S
O80 C77 1.238 . S
O81 Co75 2.052 . S
O81 C77 1.241 . S
O82 Co70 2.137 . S
O82 C73 1.247 . S
O83 Co70 2.244 . S
O83 C73 1.272 . S
O83 Co75 2.135 . S
Co84 O85 2.216 . S
Co84 O86 2.091 . S
Co84 O88 2.004 . S
Co84 O94 2.021 . S
Co84 O96 2.137 . S
Co84 O97 2.244 . S
O85 Co84 2.216 . S
O85 C92 1.247 . S
O86 Co84 2.091 . S
O86 C92 1.261 . S
C87 O96 1.247 . S
C87 O97 1.272 . S
O88 Co84 2.004 . S
O88 C93 1.259 . S
Co89 O90 2.061 . S
Co89 O95 2.052 . S
Co89 O97 2.135 . S
O90 Co89 2.061 . S
O90 C93 1.235 . S
C91 O94 1.238 . S
C91 O95 1.241 . S
C92 O85 1.247 . S
C92 O86 1.261 . S
C93 O88 1.259 . S
C93 O90 1.235 . S
O94 Co84 2.021 . S
O94 C91 1.238 . S
O95 Co89 2.052 . S
O95 C91 1.241 . S
O96 Co84 2.137 . S
O96 C87 1.247 . S
O97 Co84 2.244 . S
O97 C87 1.272 . S
O97 Co89 2.135 . S
Co98 O99 2.216 . S
Co98 O100 2.091 . S
Co98 O102 2.004 . S
Co98 O108 2.021 . S
Co98 O110 2.137 . S
Co98 O111 2.244 . S
O99 Co98 2.216 . S
O99 C106 1.247 . S
O100 Co98 2.091 . S
O100 C106 1.261 . S
C101 O110 1.247 . S
C101 O111 1.272 . S
O102 Co98 2.004 . S
O102 C107 1.259 . S
Co103 O104 2.061 . S
Co103 O109 2.052 . S
Co103 O111 2.135 . S
O104 Co103 2.061 . S
O104 C107 1.235 . S
C105 O108 1.238 . S
C105 O109 1.241 . S
C106 O99 1.247 . S
C106 O100 1.261 . S
C107 O102 1.259 . S
C107 O104 1.235 . S
O108 Co98 2.021 . S
O108 C105 1.238 . S
O109 Co103 2.052 . S
O109 C105 1.241 . S
O110 Co98 2.137 . S
O110 C101 1.247 . S
O111 Co98 2.244 . S
O111 C101 1.272 . S
O111 Co103 2.135 . S
Co112 O113 2.216 . S
Co112 O114 2.091 . S
Co112 O116 2.004 . S
Co112 O122 2.021 . S
Co112 O124 2.137 . S
Co112 O125 2.244 . S
O113 Co112 2.216 . S
O113 C120 1.247 . S
O114 Co112 2.091 . S
O114 C120 1.261 . S
C115 O124 1.247 . S
C115 O125 1.272 . S
O116 Co112 2.004 . S
O116 C121 1.259 . S
Co117 O118 2.061 . S
Co117 O123 2.052 . S
Co117 O125 2.135 . S
O118 Co117 2.061 . S
O118 C121 1.235 . S
C119 O122 1.238 . S
C119 O123 1.241 . S
C120 O113 1.247 . S
C120 O114 1.261 . S
C121 O116 1.259 . S
C121 O118 1.235 . S
O122 Co112 2.021 . S
O122 C119 1.238 . S
O123 Co117 2.052 . S
O123 C119 1.241 . S
O124 Co112 2.137 . S
O124 C115 1.247 . S
O125 Co112 2.244 . S
O125 C115 1.272 . S
O125 Co117 2.135 . S
Co126 O127 2.216 . S
Co126 O128 2.091 . S
Co126 O130 2.004 . S
Co126 O136 2.021 . S
Co126 O138 2.137 . S
Co126 O139 2.244 . S
O127 Co126 2.216 . S
O127 C134 1.247 . S
O128 Co126 2.091 . S
O128 C134 1.261 . S
C129 O138 1.247 . S
C129 O139 1.272 . S
O130 Co126 2.004 . S
O130 C135 1.259 . S
Co131 O132 2.061 . S
Co131 O137 2.052 . S
Co131 O139 2.135 . S
O132 Co131 2.061 . S
O132 C135 1.235 . S
C133 O136 1.238 . S
C133 O137 1.241 . S
C134 O127 1.247 . S
C134 O128 1.261 . S
C135 O130 1.259 . S
C135 O132 1.235 . S
O136 Co126 2.021 . S
O136 C133 1.238 . S
O137 Co131 2.052 . S
O137 C133 1.241 . S
O138 Co126 2.137 . S
O138 C129 1.247 . S
O139 Co126 2.244 . S
O139 C129 1.272 . S
O139 Co131 2.135 . S
Co140 O141 2.216 . S
Co140 O142 2.091 . S
Co140 O144 2.004 . S
Co140 O150 2.021 . S
Co140 O152 2.137 . S
Co140 O153 2.244 . S
O141 Co140 2.216 . S
O141 C148 1.247 . S
O142 Co140 2.091 . S
O142 C148 1.261 . S
C143 O152 1.247 . S
C143 O153 1.272 . S
O144 Co140 2.004 . S
O144 C149 1.259 . S
Co145 O146 2.061 . S
Co145 O151 2.052 . S
Co145 O153 2.135 . S
O146 Co145 2.061 . S
O146 C149 1.235 . S
C147 O150 1.238 . S
C147 O151 1.241 . S
C148 O141 1.247 . S
C148 O142 1.261 . S
C149 O144 1.259 . S
C149 O146 1.235 . S
O150 Co140 2.021 . S
O150 C147 1.238 . S
O151 Co145 2.052 . S
O151 C147 1.241 . S
O152 Co140 2.137 . S
O152 C143 1.247 . S
O153 Co140 2.244 . S
O153 C143 1.272 . S
O153 Co145 2.135 . S
Co154 O155 2.216 . S
Co154 O156 2.091 . S
Co154 O158 2.004 . S
Co154 O164 2.021 . S
Co154 O166 2.137 . S
Co154 O167 2.244 . S
O155 Co154 2.216 . S
O155 C162 1.247 . S
O156 Co154 2.091 . S
O156 C162 1.261 . S
C157 O166 1.247 . S
C157 O167 1.272 . S
O158 Co154 2.004 . S
O158 C163 1.259 . S
Co159 O160 2.061 . S
Co159 O165 2.052 . S
Co159 O167 2.135 . S
O160 Co159 2.061 . S
O160 C163 1.235 . S
C161 O164 1.238 . S
C161 O165 1.241 . S
C162 O155 1.247 . S
C162 O156 1.261 . S
C163 O158 1.259 . S
C163 O160 1.235 . S
O164 Co154 2.021 . S
O164 C161 1.238 . S
O165 Co159 2.052 . S
O165 C161 1.241 . S
O166 Co154 2.137 . S
O166 C157 1.247 . S
O167 Co154 2.244 . S
O167 C157 1.272 . S
O167 Co159 2.135 . S
Co168 O169 2.216 . S
Co168 O170 2.091 . S
Co168 O172 2.004 . S
Co168 O178 2.021 . S
Co168 O180 2.137 . S
Co168 O181 2.244 . S
O169 Co168 2.216 . S
O169 C176 1.247 . S
O170 Co168 2.091 . S
O170 C176 1.261 . S
C171 O180 1.247 . S
C171 O181 1.272 . S
O172 Co168 2.004 . S
O172 C177 1.259 . S
Co173 O174 2.061 . S
Co173 O179 2.052 . S
Co173 O181 2.135 . S
O174 Co173 2.061 . S
O174 C177 1.235 . S
C175 O178 1.238 . S
C175 O179 1.241 . S
C176 O169 1.247 . S
C176 O170 1.261 . S
C177 O172 1.259 . S
C177 O174 1.235 . S
O178 Co168 2.021 . S
O178 C175 1.238 . S
O179 Co173 2.052 . S
O179 C175 1.241 . S
O180 Co168 2.137 . S
O180 C171 1.247 . S
O181 Co168 2.244 . S
O181 C171 1.272 . S
O181 Co173 2.135 . S
Co182 O183 2.216 . S
Co182 O184 2.091 . S
Co182 O186 2.004 . S
Co182 O192 2.021 . S
Co182 O194 2.137 . S
Co182 O195 2.244 . S
O183 Co182 2.216 . S
O183 C190 1.247 . S
O184 Co182 2.091 . S
O184 C190 1.261 . S
C185 O194 1.247 . S
C185 O195 1.272 . S
O186 Co182 2.004 . S
O186 C191 1.259 . S
Co187 O188 2.061 . S
Co187 O193 2.052 . S
Co187 O195 2.135 . S
O188 Co187 2.061 . S
O188 C191 1.235 . S
C189 O192 1.238 . S
C189 O193 1.241 . S
C190 O183 1.247 . S
C190 O184 1.261 . S
C191 O186 1.259 . S
C191 O188 1.235 . S
O192 Co182 2.021 . S
O192 C189 1.238 . S
O193 Co187 2.052 . S
O193 C189 1.241 . S
O194 Co182 2.137 . S
O194 C185 1.247 . S
O195 Co182 2.244 . S
O195 C185 1.272 . S
O195 Co187 2.135 . S
Co196 O197 2.216 . S
Co196 O198 2.091 . S
Co196 O200 2.004 . S
Co196 O206 2.021 . S
Co196 O208 2.137 . S
Co196 O209 2.244 . S
O197 Co196 2.216 . S
O197 C204 1.247 . S
O198 Co196 2.091 . S
O198 C204 1.261 . S
C199 O208 1.247 . S
C199 O209 1.272 . S
O200 Co196 2.004 . S
O200 C205 1.259 . S
Co201 O202 2.061 . S
Co201 O207 2.052 . S
Co201 O209 2.135 . S
O202 Co201 2.061 . S
O202 C205 1.235 . S
C203 O206 1.238 . S
C203 O207 1.241 . S
C204 O197 1.247 . S
C204 O198 1.261 . S
C205 O200 1.259 . S
C205 O202 1.235 . S
O206 Co196 2.021 . S
O206 C203 1.238 . S
O207 Co201 2.052 . S
O207 C203 1.241 . S
O208 Co196 2.137 . S
O208 C199 1.247 . S
O209 Co196 2.244 . S
O209 C199 1.272 . S
O209 Co201 2.135 . S
Co210 O211 2.216 . S
Co210 O212 2.091 . S
Co210 O214 2.004 . S
Co210 O220 2.021 . S
Co210 O222 2.137 . S
Co210 O223 2.244 . S
O211 Co210 2.216 . S
O211 C218 1.247 . S
O212 Co210 2.091 . S
O212 C218 1.261 . S
C213 O222 1.247 . S
C213 O223 1.272 . S
O214 Co210 2.004 . S
O214 C219 1.259 . S
Co215 O216 2.061 . S
Co215 O221 2.052 . S
Co215 O223 2.135 . S
O216 Co215 2.061 . S
O216 C219 1.235 . S
C217 O220 1.238 . S
C217 O221 1.241 . S
C218 O211 1.247 . S
C218 O212 1.261 . S
C219 O214 1.259 . S
C219 O216 1.235 . S
O220 Co210 2.021 . S
O220 C217 1.238 . S
O221 Co215 2.052 . S
O221 C217 1.241 . S
O222 Co210 2.137 . S
O222 C213 1.247 . S
O223 Co210 2.244 . S
O223 C213 1.272 . S
O223 Co215 2.135 . S
Co224 O225 2.216 . S
Co224 O226 2.091 . S
Co224 O228 2.004 . S
Co224 O234 2.021 . S
Co224 O236 2.137 . S
Co224 O237 2.244 . S
O225 Co224 2.216 . S
O225 C232 1.247 . S
O226 Co224 2.091 . S
O226 C232 1.261 . S
C227 O236 1.247 . S
C227 O237 1.272 . S
O228 Co224 2.004 . S
O228 C233 1.259 . S
Co229 O230 2.061 . S
Co229 O235 2.052 . S
Co229 O237 2.135 . S
O230 Co229 2.061 . S
O230 C233 1.235 . S
C231 O234 1.238 . S
C231 O235 1.241 . S
C232 O225 1.247 . S
C232 O226 1.261 . S
C233 O228 1.259 . S
C233 O230 1.235 . S
O234 Co224 2.021 . S
O234 C231 1.238 . S
O235 Co229 2.052 . S
O235 C231 1.241 . S
O236 Co224 2.137 . S
O236 C227 1.247 . S
O237 Co224 2.244 . S
O237 C227 1.272 . S
O237 Co229 2.135 . S
Co238 O239 2.216 . S
Co238 O240 2.091 . S
Co238 O242 2.004 . S
Co238 O248 2.021 . S
Co238 O250 2.137 . S
Co238 O251 2.244 . S
O239 Co238 2.216 . S
O239 C246 1.247 . S
O240 Co238 2.091 . S
O240 C246 1.261 . S
C241 O250 1.247 . S
C241 O251 1.272 . S
O242 Co238 2.004 . S
O242 C247 1.259 . S
Co243 O244 2.061 . S
Co243 O249 2.052 . S
Co243 O251 2.135 . S
O244 Co243 2.061 . S
O244 C247 1.235 . S
C245 O248 1.238 . S
C245 O249 1.241 . S
C246 O239 1.247 . S
C246 O240 1.261 . S
C247 O242 1.259 . S
C247 O244 1.235 . S
O248 Co238 2.021 . S
O248 C245 1.238 . S
O249 Co243 2.052 . S
O249 C245 1.241 . S
O250 Co238 2.137 . S
O250 C241 1.247 . S
O251 Co238 2.244 . S
O251 C241 1.272 . S
O251 Co243 2.135 . S
Co252 O253 2.216 . S
Co252 O254 2.091 . S
Co252 O256 2.004 . S
Co252 O262 2.021 . S
Co252 O264 2.137 . S
Co252 O265 2.244 . S
O253 Co252 2.216 . S
O253 C260 1.247 . S
O254 Co252 2.091 . S
O254 C260 1.261 . S
C255 O264 1.247 . S
C255 O265 1.272 . S
O256 Co252 2.004 . S
O256 C261 1.259 . S
Co257 O258 2.061 . S
Co257 O263 2.052 . S
Co257 O265 2.135 . S
O258 Co257 2.061 . S
O258 C261 1.235 . S
C259 O262 1.238 . S
C259 O263 1.241 . S
C260 O253 1.247 . S
C260 O254 1.261 . S
C261 O256 1.259 . S
C261 O258 1.235 . S
O262 Co252 2.021 . S
O262 C259 1.238 . S
O263 Co257 2.052 . S
O263 C259 1.241 . S
O264 Co252 2.137 . S
O264 C255 1.247 . S
O265 Co252 2.244 . S
O265 C255 1.272 . S
O265 Co257 2.135 . S
Co266 O267 2.216 . S
Co266 O268 2.091 . S
Co266 O270 2.004 . S
Co266 O276 2.021 . S
Co266 O278 2.137 . S
Co266 O279 2.244 . S
O267 Co266 2.216 . S
O267 C274 1.247 . S
O268 Co266 2.091 . S
O268 C274 1.261 . S
C269 O278 1.247 . S
C269 O279 1.272 . S
O270 Co266 2.004 . S
O270 C275 1.259 . S
Co271 O272 2.061 . S
Co271 O277 2.052 . S
Co271 O279 2.135 . S
O272 Co271 2.061 . S
O272 C275 1.235 . S
C273 O276 1.238 . S
C273 O277 1.241 . S
C274 O267 1.247 . S
C274 O268 1.261 . S
C275 O270 1.259 . S
C275 O272 1.235 . S
O276 Co266 2.021 . S
O276 C273 1.238 . S
O277 Co271 2.052 . S
O277 C273 1.241 . S
O278 Co266 2.137 . S
O278 C269 1.247 . S
O279 Co266 2.244 . S
O279 C269 1.272 . S
O279 Co271 2.135 . S
Co280 O281 2.216 . S
Co280 O282 2.091 . S
Co280 O284 2.004 . S
Co280 O290 2.021 . S
Co280 O292 2.137 . S
Co280 O293 2.244 . S
O281 Co280 2.216 . S
O281 C288 1.247 . S
O282 Co280 2.091 . S
O282 C288 1.261 . S
C283 O292 1.247 . S
C283 O293 1.272 . S
O284 Co280 2.004 . S
O284 C289 1.259 . S
Co285 O286 2.061 . S
Co285 O291 2.052 . S
Co285 O293 2.135 . S
O286 Co285 2.061 . S
O286 C289 1.235 . S
C287 O290 1.238 . S
C287 O291 1.241 . S
C288 O281 1.247 . S
C288 O282 1.261 . S
C289 O284 1.259 . S
C289 O286 1.235 . S
O290 Co280 2.021 . S
O290 C287 1.238 . S
O291 Co285 2.052 . S
O291 C287 1.241 . S
O292 Co280 2.137 . S
O292 C283 1.247 . S
O293 Co280 2.244 . S
O293 C283 1.272 . S
O293 Co285 2.135 . S
Co294 O295 2.216 . S
Co294 O296 2.091 . S
Co294 O298 2.004 . S
Co294 O304 2.021 . S
Co294 O306 2.137 . S
Co294 O307 2.244 . S
O295 Co294 2.216 . S
O295 C302 1.247 . S
O296 Co294 2.091 . S
O296 C302 1.261 . S
C297 O306 1.247 . S
C297 O307 1.272 . S
O298 Co294 2.004 . S
O298 C303 1.259 . S
Co299 O300 2.061 . S
Co299 O305 2.052 . S
Co299 O307 2.135 . S
O300 Co299 2.061 . S
O300 C303 1.235 . S
C301 O304 1.238 . S
C301 O305 1.241 . S
C302 O295 1.247 . S
C302 O296 1.261 . S
C303 O298 1.259 . S
C303 O300 1.235 . S
O304 Co294 2.021 . S
O304 C301 1.238 . S
O305 Co299 2.052 . S
O305 C301 1.241 . S
O306 Co294 2.137 . S
O306 C297 1.247 . S
O307 Co294 2.244 . S
O307 C297 1.272 . S
O307 Co299 2.135 . S
Co308 O309 2.216 . S
Co308 O310 2.091 . S
Co308 O312 2.004 . S
Co308 O318 2.021 . S
Co308 O320 2.137 . S
Co308 O321 2.244 . S
O309 Co308 2.216 . S
O309 C316 1.247 . S
O310 Co308 2.091 . S
O310 C316 1.261 . S
C311 O320 1.247 . S
C311 O321 1.272 . S
O312 Co308 2.004 . S
O312 C317 1.259 . S
Co313 O314 2.061 . S
Co313 O319 2.052 . S
Co313 O321 2.135 . S
O314 Co313 2.061 . S
O314 C317 1.235 . S
C315 O318 1.238 . S
C315 O319 1.241 . S
C316 O309 1.247 . S
C316 O310 1.261 . S
C317 O312 1.259 . S
C317 O314 1.235 . S
O318 Co308 2.021 . S
O318 C315 1.238 . S
O319 Co313 2.052 . S
O319 C315 1.241 . S
O320 Co308 2.137 . S
O320 C311 1.247 . S
O321 Co308 2.244 . S
O321 C311 1.272 . S
O321 Co313 2.135 . S
Co322 O323 2.216 . S
Co322 O324 2.091 . S
Co322 O326 2.004 . S
Co322 O332 2.021 . S
Co322 O334 2.137 . S
Co322 O335 2.244 . S
O323 Co322 2.216 . S
O323 C330 1.247 . S
O324 Co322 2.091 . S
O324 C330 1.261 . S
C325 O334 1.247 . S
C325 O335 1.272 . S
O326 Co322 2.004 . S
O326 C331 1.259 . S
Co327 O328 2.061 . S
Co327 O333 2.052 . S
Co327 O335 2.135 . S
O328 Co327 2.061 . S
O328 C331 1.235 . S
C329 O332 1.238 . S
C329 O333 1.241 . S
C330 O323 1.247 . S
C330 O324 1.261 . S
C331 O326 1.259 . S
C331 O328 1.235 . S
O332 Co322 2.021 . S
O332 C329 1.238 . S
O333 Co327 2.052 . S
O333 C329 1.241 . S
O334 Co322 2.137 . S
O334 C325 1.247 . S
O335 Co322 2.244 . S
O335 C325 1.272 . S
O335 Co327 2.135 . S
H336 C344 0.929 . S
H337 C346 0.930 . S
H338 C348 0.930 . S
H339 C351 0.929 . S
H340 C354 0.930 . S
H341 C356 0.960 . S
H342 C356 0.960 . S
H343 C356 0.960 . S
C344 H336 0.929 . S
C344 C345 1.377 . S
C344 C346 1.384 . S
C345 C344 1.377 . S
C345 C351 1.390 . S
C346 H337 0.930 . S
C346 C344 1.384 . S
C346 C347 1.372 . S
C347 C346 1.372 . S
C347 C348 1.400 . S
C347 C352 1.490 . S
C348 H338 0.930 . S
C348 C347 1.400 . S
C348 C351 1.386 . S
H349 C365 0.930 . S
H350 C366 0.931 . S
C351 H339 0.929 . S
C351 C345 1.390 . S
C351 C348 1.386 . S
C352 C347 1.490 . S
C352 C354 1.395 . S
C352 C355 1.403 . S
H353 C359 0.930 . S
C354 H340 0.930 . S
C354 C352 1.395 . S
C354 C357 1.403 . S
C355 C352 1.403 . S
C355 C356 1.524 . S
C355 C359 1.400 . S
C356 H341 0.960 . S
C356 H342 0.960 . S
C356 H343 0.960 . S
C356 C355 1.524 . S
C357 C354 1.403 . S
C357 C358 1.392 . S
C357 C361 1.495 . S
C358 C357 1.392 . S
C358 C359 1.385 . S
C358 C360 1.478 . S
C359 H353 0.930 . S
C359 C355 1.400 . S
C359 C358 1.385 . S
C360 C358 1.478 . S
C360 C362 1.381 . S
C360 C366 1.383 . S
C361 C357 1.495 . S
C361 H367 0.959 . S
C361 H368 0.961 . S
C361 H369 0.960 . S
C362 C360 1.381 . S
C362 C363 1.394 . S
C362 H370 0.930 . S
C363 C362 1.394 . S
C363 C364 1.383 . S
C363 H371 0.929 . S
C364 C363 1.383 . S
C364 C365 1.377 . S
C365 H349 0.930 . S
C365 C364 1.377 . S
C365 C366 1.379 . S
C366 H350 0.931 . S
C366 C360 1.383 . S
C366 C365 1.379 . S
H367 C361 0.959 . S
H368 C361 0.961 . S
H369 C361 0.960 . S
H370 C362 0.930 . S
H371 C363 0.929 . S
H372 C380 0.929 . S
H373 C382 0.930 . S
H374 C384 0.930 . S
H375 C387 0.929 . S
H376 C390 0.930 . S
H377 C392 0.960 . S
H378 C392 0.960 . S
H379 C392 0.960 . S
C380 H372 0.929 . S
C380 C381 1.377 . S
C380 C382 1.384 . S
C381 C380 1.377 . S
C381 C387 1.390 . S
C382 H373 0.930 . S
C382 C380 1.384 . S
C382 C383 1.372 . S
C383 C382 1.372 . S
C383 C384 1.400 . S
C383 C388 1.490 . S
C384 H374 0.930 . S
C384 C383 1.400 . S
C384 C387 1.386 . S
H385 C401 0.930 . S
H386 C402 0.931 . S
C387 H375 0.929 . S
C387 C381 1.390 . S
C387 C384 1.386 . S
C388 C383 1.490 . S
C388 C390 1.395 . S
C388 C391 1.403 . S
H389 C395 0.930 . S
C390 H376 0.930 . S
C390 C388 1.395 . S
C390 C393 1.403 . S
C391 C388 1.403 . S
C391 C392 1.524 . S
C391 C395 1.400 . S
C392 H377 0.960 . S
C392 H378 0.960 . S
C392 H379 0.960 . S
C392 C391 1.524 . S
C393 C390 1.403 . S
C393 C394 1.392 . S
C393 C397 1.495 . S
C394 C393 1.392 . S
C394 C395 1.385 . S
C394 C396 1.478 . S
C395 H389 0.930 . S
C395 C391 1.400 . S
C395 C394 1.385 . S
C396 C394 1.478 . S
C396 C398 1.381 . S
C396 C402 1.383 . S
C397 C393 1.495 . S
C397 H403 0.959 . S
C397 H404 0.961 . S
C397 H405 0.960 . S
C398 C396 1.381 . S
C398 C399 1.394 . S
C398 H406 0.930 . S
C399 C398 1.394 . S
C399 C400 1.383 . S
C399 H407 0.929 . S
C400 C399 1.383 . S
C400 C401 1.377 . S
C401 H385 0.930 . S
C401 C400 1.377 . S
C401 C402 1.379 . S
C402 H386 0.931 . S
C402 C396 1.383 . S
C402 C401 1.379 . S
H403 C397 0.959 . S
H404 C397 0.961 . S
H405 C397 0.960 . S
H406 C398 0.930 . S
H407 C399 0.929 . S
H408 C416 0.929 . S
H409 C418 0.930 . S
H410 C420 0.930 . S
H411 C423 0.929 . S
H412 C426 0.930 . S
H413 C428 0.960 . S
H414 C428 0.960 . S
H415 C428 0.960 . S
C416 H408 0.929 . S
C416 C417 1.377 . S
C416 C418 1.384 . S
C417 C416 1.377 . S
C417 C423 1.390 . S
C418 H409 0.930 . S
C418 C416 1.384 . S
C418 C419 1.372 . S
C419 C418 1.372 . S
C419 C420 1.400 . S
C419 C424 1.490 . S
C420 H410 0.930 . S
C420 C419 1.400 . S
C420 C423 1.386 . S
H421 C437 0.930 . S
H422 C438 0.931 . S
C423 H411 0.929 . S
C423 C417 1.390 . S
C423 C420 1.386 . S
C424 C419 1.490 . S
C424 C426 1.395 . S
C424 C427 1.403 . S
H425 C431 0.930 . S
C426 H412 0.930 . S
C426 C424 1.395 . S
C426 C429 1.403 . S
C427 C424 1.403 . S
C427 C428 1.524 . S
C427 C431 1.400 . S
C428 H413 0.960 . S
C428 H414 0.960 . S
C428 H415 0.960 . S
C428 C427 1.524 . S
C429 C426 1.403 . S
C429 C430 1.392 . S
C429 C433 1.495 . S
C430 C429 1.392 . S
C430 C431 1.385 . S
C430 C432 1.478 . S
C431 H425 0.930 . S
C431 C427 1.400 . S
C431 C430 1.385 . S
C432 C430 1.478 . S
C432 C434 1.381 . S
C432 C438 1.383 . S
C433 C429 1.495 . S
C433 H439 0.959 . S
C433 H440 0.961 . S
C433 H441 0.960 . S
C434 C432 1.381 . S
C434 C435 1.394 . S
C434 H442 0.930 . S
C435 C434 1.394 . S
C435 C436 1.383 . S
C435 H443 0.929 . S
C436 C435 1.383 . S
C436 C437 1.377 . S
C437 H421 0.930 . S
C437 C436 1.377 . S
C437 C438 1.379 . S
C438 H422 0.931 . S
C438 C432 1.383 . S
C438 C437 1.379 . S
H439 C433 0.959 . S
H440 C433 0.961 . S
H441 C433 0.960 . S
H442 C434 0.930 . S
H443 C435 0.929 . S
H444 C452 0.929 . S
H445 C454 0.930 . S
H446 C456 0.930 . S
H447 C459 0.929 . S
H448 C462 0.930 . S
H449 C464 0.960 . S
H450 C464 0.960 . S
H451 C464 0.960 . S
C452 H444 0.929 . S
C452 C453 1.377 . S
C452 C454 1.384 . S
C453 C452 1.377 . S
C453 C459 1.390 . S
C454 H445 0.930 . S
C454 C452 1.384 . S
C454 C455 1.372 . S
C455 C454 1.372 . S
C455 C456 1.400 . S
C455 C460 1.490 . S
C456 H446 0.930 . S
C456 C455 1.400 . S
C456 C459 1.386 . S
H457 C473 0.930 . S
H458 C474 0.931 . S
C459 H447 0.929 . S
C459 C453 1.390 . S
C459 C456 1.386 . S
C460 C455 1.490 . S
C460 C462 1.395 . S
C460 C463 1.403 . S
H461 C467 0.930 . S
C462 H448 0.930 . S
C462 C460 1.395 . S
C462 C465 1.403 . S
C463 C460 1.403 . S
C463 C464 1.524 . S
C463 C467 1.400 . S
C464 H449 0.960 . S
C464 H450 0.960 . S
C464 H451 0.960 . S
C464 C463 1.524 . S
C465 C462 1.403 . S
C465 C466 1.392 . S
C465 C469 1.495 . S
C466 C465 1.392 . S
C466 C467 1.385 . S
C466 C468 1.478 . S
C467 H461 0.930 . S
C467 C463 1.400 . S
C467 C466 1.385 . S
C468 C466 1.478 . S
C468 C470 1.381 . S
C468 C474 1.383 . S
C469 C465 1.495 . S
C469 H475 0.959 . S
C469 H476 0.961 . S
C469 H477 0.960 . S
C470 C468 1.381 . S
C470 C471 1.394 . S
C470 H478 0.930 . S
C471 C470 1.394 . S
C471 C472 1.383 . S
C471 H479 0.929 . S
C472 C471 1.383 . S
C472 C473 1.377 . S
C473 H457 0.930 . S
C473 C472 1.377 . S
C473 C474 1.379 . S
C474 H458 0.931 . S
C474 C468 1.383 . S
C474 C473 1.379 . S
H475 C469 0.959 . S
H476 C469 0.961 . S
H477 C469 0.960 . S
H478 C470 0.930 . S
H479 C471 0.929 . S
H480 C488 0.929 . S
H481 C490 0.930 . S
H482 C492 0.930 . S
H483 C495 0.929 . S
H484 C498 0.930 . S
H485 C500 0.960 . S
H486 C500 0.960 . S
H487 C500 0.960 . S
C488 H480 0.929 . S
C488 C489 1.377 . S
C488 C490 1.384 . S
C489 C488 1.377 . S
C489 C495 1.390 . S
C490 H481 0.930 . S
C490 C488 1.384 . S
C490 C491 1.372 . S
C491 C490 1.372 . S
C491 C492 1.400 . S
C491 C496 1.490 . S
C492 H482 0.930 . S
C492 C491 1.400 . S
C492 C495 1.386 . S
H493 C509 0.930 . S
H494 C510 0.931 . S
C495 H483 0.929 . S
C495 C489 1.390 . S
C495 C492 1.386 . S
C496 C491 1.490 . S
C496 C498 1.395 . S
C496 C499 1.403 . S
H497 C503 0.930 . S
C498 H484 0.930 . S
C498 C496 1.395 . S
C498 C501 1.403 . S
C499 C496 1.403 . S
C499 C500 1.524 . S
C499 C503 1.400 . S
C500 H485 0.960 . S
C500 H486 0.960 . S
C500 H487 0.960 . S
C500 C499 1.524 . S
C501 C498 1.403 . S
C501 C502 1.392 . S
C501 C505 1.495 . S
C502 C501 1.392 . S
C502 C503 1.385 . S
C502 C504 1.478 . S
C503 H497 0.930 . S
C503 C499 1.400 . S
C503 C502 1.385 . S
C504 C502 1.478 . S
C504 C506 1.381 . S
C504 C510 1.383 . S
C505 C501 1.495 . S
C505 H511 0.959 . S
C505 H512 0.961 . S
C505 H513 0.960 . S
C506 C504 1.381 . S
C506 C507 1.394 . S
C506 H514 0.930 . S
C507 C506 1.394 . S
C507 C508 1.383 . S
C507 H515 0.929 . S
C508 C507 1.383 . S
C508 C509 1.377 . S
C509 H493 0.930 . S
C509 C508 1.377 . S
C509 C510 1.379 . S
C510 H494 0.931 . S
C510 C504 1.383 . S
C510 C509 1.379 . S
H511 C505 0.959 . S
H512 C505 0.961 . S
H513 C505 0.960 . S
H514 C506 0.930 . S
H515 C507 0.929 . S
H516 C524 0.929 . S
H517 C526 0.930 . S
H518 C528 0.930 . S
H519 C531 0.929 . S
H520 C534 0.930 . S
H521 C536 0.960 . S
H522 C536 0.960 . S
H523 C536 0.960 . S
C524 H516 0.929 . S
C524 C525 1.377 . S
C524 C526 1.384 . S
C525 C524 1.377 . S
C525 C531 1.390 . S
C526 H517 0.930 . S
C526 C524 1.384 . S
C526 C527 1.372 . S
C527 C526 1.372 . S
C527 C528 1.400 . S
C527 C532 1.490 . S
C528 H518 0.930 . S
C528 C527 1.400 . S
C528 C531 1.386 . S
H529 C545 0.930 . S
H530 C546 0.931 . S
C531 H519 0.929 . S
C531 C525 1.390 . S
C531 C528 1.386 . S
C532 C527 1.490 . S
C532 C534 1.395 . S
C532 C535 1.403 . S
H533 C539 0.930 . S
C534 H520 0.930 . S
C534 C532 1.395 . S
C534 C537 1.403 . S
C535 C532 1.403 . S
C535 C536 1.524 . S
C535 C539 1.400 . S
C536 H521 0.960 . S
C536 H522 0.960 . S
C536 H523 0.960 . S
C536 C535 1.524 . S
C537 C534 1.403 . S
C537 C538 1.392 . S
C537 C541 1.495 . S
C538 C537 1.392 . S
C538 C539 1.385 . S
C538 C540 1.478 . S
C539 H533 0.930 . S
C539 C535 1.400 . S
C539 C538 1.385 . S
C540 C538 1.478 . S
C540 C542 1.381 . S
C540 C546 1.383 . S
C541 C537 1.495 . S
C541 H547 0.959 . S
C541 H548 0.961 . S
C541 H549 0.960 . S
C542 C540 1.381 . S
C542 C543 1.394 . S
C542 H550 0.930 . S
C543 C542 1.394 . S
C543 C544 1.383 . S
C543 H551 0.929 . S
C544 C543 1.383 . S
C544 C545 1.377 . S
C545 H529 0.930 . S
C545 C544 1.377 . S
C545 C546 1.379 . S
C546 H530 0.931 . S
C546 C540 1.383 . S
C546 C545 1.379 . S
H547 C541 0.959 . S
H548 C541 0.961 . S
H549 C541 0.960 . S
H550 C542 0.930 . S
H551 C543 0.929 . S
H552 C560 0.929 . S
H553 C562 0.930 . S
H554 C564 0.930 . S
H555 C567 0.929 . S
H556 C570 0.930 . S
H557 C572 0.960 . S
H558 C572 0.960 . S
H559 C572 0.960 . S
C560 H552 0.929 . S
C560 C561 1.377 . S
C560 C562 1.384 . S
C561 C560 1.377 . S
C561 C567 1.390 . S
C562 H553 0.930 . S
C562 C560 1.384 . S
C562 C563 1.372 . S
C563 C562 1.372 . S
C563 C564 1.400 . S
C563 C568 1.490 . S
C564 H554 0.930 . S
C564 C563 1.400 . S
C564 C567 1.386 . S
H565 C581 0.930 . S
H566 C582 0.931 . S
C567 H555 0.929 . S
C567 C561 1.390 . S
C567 C564 1.386 . S
C568 C563 1.490 . S
C568 C570 1.395 . S
C568 C571 1.403 . S
H569 C575 0.930 . S
C570 H556 0.930 . S
C570 C568 1.395 . S
C570 C573 1.403 . S
C571 C568 1.403 . S
C571 C572 1.524 . S
C571 C575 1.400 . S
C572 H557 0.960 . S
C572 H558 0.960 . S
C572 H559 0.960 . S
C572 C571 1.524 . S
C573 C570 1.403 . S
C573 C574 1.392 . S
C573 C577 1.495 . S
C574 C573 1.392 . S
C574 C575 1.385 . S
C574 C576 1.478 . S
C575 H569 0.930 . S
C575 C571 1.400 . S
C575 C574 1.385 . S
C576 C574 1.478 . S
C576 C578 1.381 . S
C576 C582 1.383 . S
C577 C573 1.495 . S
C577 H583 0.959 . S
C577 H584 0.961 . S
C577 H585 0.960 . S
C578 C576 1.381 . S
C578 C579 1.394 . S
C578 H586 0.930 . S
C579 C578 1.394 . S
C579 C580 1.383 . S
C579 H587 0.929 . S
C580 C579 1.383 . S
C580 C581 1.377 . S
C581 H565 0.930 . S
C581 C580 1.377 . S
C581 C582 1.379 . S
C582 H566 0.931 . S
C582 C576 1.383 . S
C582 C581 1.379 . S
H583 C577 0.959 . S
H584 C577 0.961 . S
H585 C577 0.960 . S
H586 C578 0.930 . S
H587 C579 0.929 . S
H588 C596 0.929 . S
H589 C598 0.930 . S
H590 C600 0.930 . S
H591 C603 0.929 . S
H592 C606 0.930 . S
H593 C608 0.960 . S
H594 C608 0.960 . S
H595 C608 0.960 . S
C596 H588 0.929 . S
C596 C597 1.377 . S
C596 C598 1.384 . S
C597 C596 1.377 . S
C597 C603 1.390 . S
C598 H589 0.930 . S
C598 C596 1.384 . S
C598 C599 1.372 . S
C599 C598 1.372 . S
C599 C600 1.400 . S
C599 C604 1.490 . S
C600 H590 0.930 . S
C600 C599 1.400 . S
C600 C603 1.386 . S
H601 C617 0.930 . S
H602 C618 0.931 . S
C603 H591 0.929 . S
C603 C597 1.390 . S
C603 C600 1.386 . S
C604 C599 1.490 . S
C604 C606 1.395 . S
C604 C607 1.403 . S
H605 C611 0.930 . S
C606 H592 0.930 . S
C606 C604 1.395 . S
C606 C609 1.403 . S
C607 C604 1.403 . S
C607 C608 1.524 . S
C607 C611 1.400 . S
C608 H593 0.960 . S
C608 H594 0.960 . S
C608 H595 0.960 . S
C608 C607 1.524 . S
C609 C606 1.403 . S
C609 C610 1.392 . S
C609 C613 1.495 . S
C610 C609 1.392 . S
C610 C611 1.385 . S
C610 C612 1.478 . S
C611 H605 0.930 . S
C611 C607 1.400 . S
C611 C610 1.385 . S
C612 C610 1.478 . S
C612 C614 1.381 . S
C612 C618 1.383 . S
C613 C609 1.495 . S
C613 H619 0.959 . S
C613 H620 0.961 . S
C613 H621 0.960 . S
C614 C612 1.381 . S
C614 C615 1.394 . S
C614 H622 0.930 . S
C615 C614 1.394 . S
C615 C616 1.383 . S
C615 H623 0.929 . S
C616 C615 1.383 . S
C616 C617 1.377 . S
C617 H601 0.930 . S
C617 C616 1.377 . S
C617 C618 1.379 . S
C618 H602 0.931 . S
C618 C612 1.383 . S
C618 C617 1.379 . S
H619 C613 0.959 . S
H620 C613 0.961 . S
H621 C613 0.960 . S
H622 C614 0.930 . S
H623 C615 0.929 . S
H624 C632 0.929 . S
H625 C634 0.930 . S
H626 C636 0.930 . S
H627 C639 0.929 . S
H628 C642 0.930 . S
H629 C644 0.960 . S
H630 C644 0.960 . S
H631 C644 0.960 . S
C632 H624 0.929 . S
C632 C633 1.377 . S
C632 C634 1.384 . S
C633 C632 1.377 . S
C633 C639 1.390 . S
C634 H625 0.930 . S
C634 C632 1.384 . S
C634 C635 1.372 . S
C635 C634 1.372 . S
C635 C636 1.400 . S
C635 C640 1.490 . S
C636 H626 0.930 . S
C636 C635 1.400 . S
C636 C639 1.386 . S
H637 C653 0.930 . S
H638 C654 0.931 . S
C639 H627 0.929 . S
C639 C633 1.390 . S
C639 C636 1.386 . S
C640 C635 1.490 . S
C640 C642 1.395 . S
C640 C643 1.403 . S
H641 C647 0.930 . S
C642 H628 0.930 . S
C642 C640 1.395 . S
C642 C645 1.403 . S
C643 C640 1.403 . S
C643 C644 1.524 . S
C643 C647 1.400 . S
C644 H629 0.960 . S
C644 H630 0.960 . S
C644 H631 0.960 . S
C644 C643 1.524 . S
C645 C642 1.403 . S
C645 C646 1.392 . S
C645 C649 1.495 . S
C646 C645 1.392 . S
C646 C647 1.385 . S
C646 C648 1.478 . S
C647 H641 0.930 . S
C647 C643 1.400 . S
C647 C646 1.385 . S
C648 C646 1.478 . S
C648 C650 1.381 . S
C648 C654 1.383 . S
C649 C645 1.495 . S
C649 H655 0.959 . S
C649 H656 0.961 . S
C649 H657 0.960 . S
C650 C648 1.381 . S
C650 C651 1.394 . S
C650 H658 0.930 . S
C651 C650 1.394 . S
C651 C652 1.383 . S
C651 H659 0.929 . S
C652 C651 1.383 . S
C652 C653 1.377 . S
C653 H637 0.930 . S
C653 C652 1.377 . S
C653 C654 1.379 . S
C654 H638 0.931 . S
C654 C648 1.383 . S
C654 C653 1.379 . S
H655 C649 0.959 . S
H656 C649 0.961 . S
H657 C649 0.960 . S
H658 C650 0.930 . S
H659 C651 0.929 . S
H660 C668 0.929 . S
H661 C670 0.930 . S
H662 C672 0.930 . S
H663 C675 0.929 . S
H664 C678 0.930 . S
H665 C680 0.960 . S
H666 C680 0.960 . S
H667 C680 0.960 . S
C668 H660 0.929 . S
C668 C669 1.377 . S
C668 C670 1.384 . S
C669 C668 1.377 . S
C669 C675 1.390 . S
C670 H661 0.930 . S
C670 C668 1.384 . S
C670 C671 1.372 . S
C671 C670 1.372 . S
C671 C672 1.400 . S
C671 C676 1.490 . S
C672 H662 0.930 . S
C672 C671 1.400 . S
C672 C675 1.386 . S
H673 C689 0.930 . S
H674 C690 0.931 . S
C675 H663 0.929 . S
C675 C669 1.390 . S
C675 C672 1.386 . S
C676 C671 1.490 . S
C676 C678 1.395 . S
C676 C679 1.403 . S
H677 C683 0.930 . S
C678 H664 0.930 . S
C678 C676 1.395 . S
C678 C681 1.403 . S
C679 C676 1.403 . S
C679 C680 1.524 . S
C679 C683 1.400 . S
C680 H665 0.960 . S
C680 H666 0.960 . S
C680 H667 0.960 . S
C680 C679 1.524 . S
C681 C678 1.403 . S
C681 C682 1.392 . S
C681 C685 1.495 . S
C682 C681 1.392 . S
C682 C683 1.385 . S
C682 C684 1.478 . S
C683 H677 0.930 . S
C683 C679 1.400 . S
C683 C682 1.385 . S
C684 C682 1.478 . S
C684 C686 1.381 . S
C684 C690 1.383 . S
C685 C681 1.495 . S
C685 H691 0.959 . S
C685 H692 0.961 . S
C685 H693 0.960 . S
C686 C684 1.381 . S
C686 C687 1.394 . S
C686 H694 0.930 . S
C687 C686 1.394 . S
C687 C688 1.383 . S
C687 H695 0.929 . S
C688 C687 1.383 . S
C688 C689 1.377 . S
C689 H673 0.930 . S
C689 C688 1.377 . S
C689 C690 1.379 . S
C690 H674 0.931 . S
C690 C684 1.383 . S
C690 C689 1.379 . S
H691 C685 0.959 . S
H692 C685 0.961 . S
H693 C685 0.960 . S
H694 C686 0.930 . S
H695 C687 0.929 . S
H696 C704 0.929 . S
H697 C706 0.930 . S
H698 C708 0.930 . S
H699 C711 0.929 . S
H700 C714 0.930 . S
H701 C716 0.960 . S
H702 C716 0.960 . S
H703 C716 0.960 . S
C704 H696 0.929 . S
C704 C705 1.377 . S
C704 C706 1.384 . S
C705 C704 1.377 . S
C705 C711 1.390 . S
C706 H697 0.930 . S
C706 C704 1.384 . S
C706 C707 1.372 . S
C707 C706 1.372 . S
C707 C708 1.400 . S
C707 C712 1.490 . S
C708 H698 0.930 . S
C708 C707 1.400 . S
C708 C711 1.386 . S
H709 C725 0.930 . S
H710 C726 0.931 . S
C711 H699 0.929 . S
C711 C705 1.390 . S
C711 C708 1.386 . S
C712 C707 1.490 . S
C712 C714 1.395 . S
C712 C715 1.403 . S
H713 C719 0.930 . S
C714 H700 0.930 . S
C714 C712 1.395 . S
C714 C717 1.403 . S
C715 C712 1.403 . S
C715 C716 1.524 . S
C715 C719 1.400 . S
C716 H701 0.960 . S
C716 H702 0.960 . S
C716 H703 0.960 . S
C716 C715 1.524 . S
C717 C714 1.403 . S
C717 C718 1.392 . S
C717 C721 1.495 . S
C718 C717 1.392 . S
C718 C719 1.385 . S
C718 C720 1.478 . S
C719 H713 0.930 . S
C719 C715 1.400 . S
C719 C718 1.385 . S
C720 C718 1.478 . S
C720 C722 1.381 . S
C720 C726 1.383 . S
C721 C717 1.495 . S
C721 H727 0.959 . S
C721 H728 0.961 . S
C721 H729 0.960 . S
C722 C720 1.381 . S
C722 C723 1.394 . S
C722 H730 0.930 . S
C723 C722 1.394 . S
C723 C724 1.383 . S
C723 H731 0.929 . S
C724 C723 1.383 . S
C724 C725 1.377 . S
C725 H709 0.930 . S
C725 C724 1.377 . S
C725 C726 1.379 . S
C726 H710 0.931 . S
C726 C720 1.383 . S
C726 C725 1.379 . S
H727 C721 0.959 . S
H728 C721 0.961 . S
H729 C721 0.960 . S
H730 C722 0.930 . S
H731 C723 0.929 . S
H732 C740 0.929 . S
H733 C742 0.930 . S
H734 C744 0.930 . S
H735 C747 0.929 . S
H736 C750 0.930 . S
H737 C752 0.960 . S
H738 C752 0.960 . S
H739 C752 0.960 . S
C740 H732 0.929 . S
C740 C741 1.377 . S
C740 C742 1.384 . S
C741 C740 1.377 . S
C741 C747 1.390 . S
C742 H733 0.930 . S
C742 C740 1.384 . S
C742 C743 1.372 . S
C743 C742 1.372 . S
C743 C744 1.400 . S
C743 C748 1.490 . S
C744 H734 0.930 . S
C744 C743 1.400 . S
C744 C747 1.386 . S
H745 C761 0.930 . S
H746 C762 0.931 . S
C747 H735 0.929 . S
C747 C741 1.390 . S
C747 C744 1.386 . S
C748 C743 1.490 . S
C748 C750 1.395 . S
C748 C751 1.403 . S
H749 C755 0.930 . S
C750 H736 0.930 . S
C750 C748 1.395 . S
C750 C753 1.403 . S
C751 C748 1.403 . S
C751 C752 1.524 . S
C751 C755 1.400 . S
C752 H737 0.960 . S
C752 H738 0.960 . S
C752 H739 0.960 . S
C752 C751 1.524 . S
C753 C750 1.403 . S
C753 C754 1.392 . S
C753 C757 1.495 . S
C754 C753 1.392 . S
C754 C755 1.385 . S
C754 C756 1.478 . S
C755 H749 0.930 . S
C755 C751 1.400 . S
C755 C754 1.385 . S
C756 C754 1.478 . S
C756 C758 1.381 . S
C756 C762 1.383 . S
C757 C753 1.495 . S
C757 H763 0.959 . S
C757 H764 0.961 . S
C757 H765 0.960 . S
C758 C756 1.381 . S
C758 C759 1.394 . S
C758 H766 0.930 . S
C759 C758 1.394 . S
C759 C760 1.383 . S
C759 H767 0.929 . S
C760 C759 1.383 . S
C760 C761 1.377 . S
C761 H745 0.930 . S
C761 C760 1.377 . S
C761 C762 1.379 . S
C762 H746 0.931 . S
C762 C756 1.383 . S
C762 C761 1.379 . S
H763 C757 0.959 . S
H764 C757 0.961 . S
H765 C757 0.960 . S
H766 C758 0.930 . S
H767 C759 0.929 . S
H768 C776 0.929 . S
H769 C778 0.930 . S
H770 C780 0.930 . S
H771 C783 0.929 . S
H772 C786 0.930 . S
H773 C788 0.960 . S
H774 C788 0.960 . S
H775 C788 0.960 . S
C776 H768 0.929 . S
C776 C777 1.377 . S
C776 C778 1.384 . S
C777 C776 1.377 . S
C777 C783 1.390 . S
C778 H769 0.930 . S
C778 C776 1.384 . S
C778 C779 1.372 . S
C779 C778 1.372 . S
C779 C780 1.400 . S
C779 C784 1.490 . S
C780 H770 0.930 . S
C780 C779 1.400 . S
C780 C783 1.386 . S
H781 C797 0.930 . S
H782 C798 0.931 . S
C783 H771 0.929 . S
C783 C777 1.390 . S
C783 C780 1.386 . S
C784 C779 1.490 . S
C784 C786 1.395 . S
C784 C787 1.403 . S
H785 C791 0.930 . S
C786 H772 0.930 . S
C786 C784 1.395 . S
C786 C789 1.403 . S
C787 C784 1.403 . S
C787 C788 1.524 . S
C787 C791 1.400 . S
C788 H773 0.960 . S
C788 H774 0.960 . S
C788 H775 0.960 . S
C788 C787 1.524 . S
C789 C786 1.403 . S
C789 C790 1.392 . S
C789 C793 1.495 . S
C790 C789 1.392 . S
C790 C791 1.385 . S
C790 C792 1.478 . S
C791 H785 0.930 . S
C791 C787 1.400 . S
C791 C790 1.385 . S
C792 C790 1.478 . S
C792 C794 1.381 . S
C792 C798 1.383 . S
C793 C789 1.495 . S
C793 H799 0.959 . S
C793 H800 0.961 . S
C793 H801 0.960 . S
C794 C792 1.381 . S
C794 C795 1.394 . S
C794 H802 0.930 . S
C795 C794 1.394 . S
C795 C796 1.383 . S
C795 H803 0.929 . S
C796 C795 1.383 . S
C796 C797 1.377 . S
C797 H781 0.930 . S
C797 C796 1.377 . S
C797 C798 1.379 . S
C798 H782 0.931 . S
C798 C792 1.383 . S
C798 C797 1.379 . S
H799 C793 0.959 . S
H800 C793 0.961 . S
H801 C793 0.960 . S
H802 C794 0.930 . S
H803 C795 0.929 . S
H804 C812 0.929 . S
H805 C814 0.930 . S
H806 C816 0.930 . S
H807 C819 0.929 . S
H808 C822 0.930 . S
H809 C824 0.960 . S
H810 C824 0.960 . S
H811 C824 0.960 . S
C812 H804 0.929 . S
C812 C813 1.377 . S
C812 C814 1.384 . S
C813 C812 1.377 . S
C813 C819 1.390 . S
C814 H805 0.930 . S
C814 C812 1.384 . S
C814 C815 1.372 . S
C815 C814 1.372 . S
C815 C816 1.400 . S
C815 C820 1.490 . S
C816 H806 0.930 . S
C816 C815 1.400 . S
C816 C819 1.386 . S
H817 C833 0.930 . S
H818 C834 0.931 . S
C819 H807 0.929 . S
C819 C813 1.390 . S
C819 C816 1.386 . S
C820 C815 1.490 . S
C820 C822 1.395 . S
C820 C823 1.403 . S
H821 C827 0.930 . S
C822 H808 0.930 . S
C822 C820 1.395 . S
C822 C825 1.403 . S
C823 C820 1.403 . S
C823 C824 1.524 . S
C823 C827 1.400 . S
C824 H809 0.960 . S
C824 H810 0.960 . S
C824 H811 0.960 . S
C824 C823 1.524 . S
C825 C822 1.403 . S
C825 C826 1.392 . S
C825 C829 1.495 . S
C826 C825 1.392 . S
C826 C827 1.385 . S
C826 C828 1.478 . S
C827 H821 0.930 . S
C827 C823 1.400 . S
C827 C826 1.385 . S
C828 C826 1.478 . S
C828 C830 1.381 . S
C828 C834 1.383 . S
C829 C825 1.495 . S
C829 H835 0.959 . S
C829 H836 0.961 . S
C829 H837 0.960 . S
C830 C828 1.381 . S
C830 C831 1.394 . S
C830 H838 0.930 . S
C831 C830 1.394 . S
C831 C832 1.383 . S
C831 H839 0.929 . S
C832 C831 1.383 . S
C832 C833 1.377 . S
C833 H817 0.930 . S
C833 C832 1.377 . S
C833 C834 1.379 . S
C834 H818 0.931 . S
C834 C828 1.383 . S
C834 C833 1.379 . S
H835 C829 0.959 . S
H836 C829 0.961 . S
H837 C829 0.960 . S
H838 C830 0.930 . S
H839 C831 0.929 . S
H840 C848 0.929 . S
H841 C850 0.930 . S
H842 C852 0.930 . S
H843 C855 0.929 . S
H844 C858 0.930 . S
H845 C860 0.960 . S
H846 C860 0.960 . S
H847 C860 0.960 . S
C848 H840 0.929 . S
C848 C849 1.377 . S
C848 C850 1.384 . S
C849 C848 1.377 . S
C849 C855 1.390 . S
C850 H841 0.930 . S
C850 C848 1.384 . S
C850 C851 1.372 . S
C851 C850 1.372 . S
C851 C852 1.400 . S
C851 C856 1.490 . S
C852 H842 0.930 . S
C852 C851 1.400 . S
C852 C855 1.386 . S
H853 C869 0.930 . S
H854 C870 0.931 . S
C855 H843 0.929 . S
C855 C849 1.390 . S
C855 C852 1.386 . S
C856 C851 1.490 . S
C856 C858 1.395 . S
C856 C859 1.403 . S
H857 C863 0.930 . S
C858 H844 0.930 . S
C858 C856 1.395 . S
C858 C861 1.403 . S
C859 C856 1.403 . S
C859 C860 1.524 . S
C859 C863 1.400 . S
C860 H845 0.960 . S
C860 H846 0.960 . S
C860 H847 0.960 . S
C860 C859 1.524 . S
C861 C858 1.403 . S
C861 C862 1.392 . S
C861 C865 1.495 . S
C862 C861 1.392 . S
C862 C863 1.385 . S
C862 C864 1.478 . S
C863 H857 0.930 . S
C863 C859 1.400 . S
C863 C862 1.385 . S
C864 C862 1.478 . S
C864 C866 1.381 . S
C864 C870 1.383 . S
C865 C861 1.495 . S
C865 H871 0.959 . S
C865 H872 0.961 . S
C865 H873 0.960 . S
C866 C864 1.381 . S
C866 C867 1.394 . S
C866 H874 0.930 . S
C867 C866 1.394 . S
C867 C868 1.383 . S
C867 H875 0.929 . S
C868 C867 1.383 . S
C868 C869 1.377 . S
C869 H853 0.930 . S
C869 C868 1.377 . S
C869 C870 1.379 . S
C870 H854 0.931 . S
C870 C864 1.383 . S
C870 C869 1.379 . S
H871 C865 0.959 . S
H872 C865 0.961 . S
H873 C865 0.960 . S
H874 C866 0.930 . S
H875 C867 0.929 . S
H876 C884 0.929 . S
H877 C886 0.930 . S
H878 C888 0.930 . S
H879 C891 0.929 . S
H880 C894 0.930 . S
H881 C896 0.960 . S
H882 C896 0.960 . S
H883 C896 0.960 . S
C884 H876 0.929 . S
C884 C885 1.377 . S
C884 C886 1.384 . S
C885 C884 1.377 . S
C885 C891 1.390 . S
C886 H877 0.930 . S
C886 C884 1.384 . S
C886 C887 1.372 . S
C887 C886 1.372 . S
C887 C888 1.400 . S
C887 C892 1.490 . S
C888 H878 0.930 . S
C888 C887 1.400 . S
C888 C891 1.386 . S
H889 C905 0.930 . S
H890 C906 0.931 . S
C891 H879 0.929 . S
C891 C885 1.390 . S
C891 C888 1.386 . S
C892 C887 1.490 . S
C892 C894 1.395 . S
C892 C895 1.403 . S
H893 C899 0.930 . S
C894 H880 0.930 . S
C894 C892 1.395 . S
C894 C897 1.403 . S
C895 C892 1.403 . S
C895 C896 1.524 . S
C895 C899 1.400 . S
C896 H881 0.960 . S
C896 H882 0.960 . S
C896 H883 0.960 . S
C896 C895 1.524 . S
C897 C894 1.403 . S
C897 C898 1.392 . S
C897 C901 1.495 . S
C898 C897 1.392 . S
C898 C899 1.385 . S
C898 C900 1.478 . S
C899 H893 0.930 . S
C899 C895 1.400 . S
C899 C898 1.385 . S
C900 C898 1.478 . S
C900 C902 1.381 . S
C900 C906 1.383 . S
C901 C897 1.495 . S
C901 H907 0.959 . S
C901 H908 0.961 . S
C901 H909 0.960 . S
C902 C900 1.381 . S
C902 C903 1.394 . S
C902 H910 0.930 . S
C903 C902 1.394 . S
C903 C904 1.383 . S
C903 H911 0.929 . S
C904 C903 1.383 . S
C904 C905 1.377 . S
C905 H889 0.930 . S
C905 C904 1.377 . S
C905 C906 1.379 . S
C906 H890 0.931 . S
C906 C900 1.383 . S
C906 C905 1.379 . S
H907 C901 0.959 . S
H908 C901 0.961 . S
H909 C901 0.960 . S
H910 C902 0.930 . S
H911 C903 0.929 . S
H912 C920 0.929 . S
H913 C922 0.930 . S
H914 C924 0.930 . S
H915 C927 0.929 . S
H916 C930 0.930 . S
H917 C932 0.960 . S
H918 C932 0.960 . S
H919 C932 0.960 . S
C920 H912 0.929 . S
C920 C921 1.377 . S
C920 C922 1.384 . S
C921 C920 1.377 . S
C921 C927 1.390 . S
C922 H913 0.930 . S
C922 C920 1.384 . S
C922 C923 1.372 . S
C923 C922 1.372 . S
C923 C924 1.400 . S
C923 C928 1.490 . S
C924 H914 0.930 . S
C924 C923 1.400 . S
C924 C927 1.386 . S
H925 C941 0.930 . S
H926 C942 0.931 . S
C927 H915 0.929 . S
C927 C921 1.390 . S
C927 C924 1.386 . S
C928 C923 1.490 . S
C928 C930 1.395 . S
C928 C931 1.403 . S
H929 C935 0.930 . S
C930 H916 0.930 . S
C930 C928 1.395 . S
C930 C933 1.403 . S
C931 C928 1.403 . S
C931 C932 1.524 . S
C931 C935 1.400 . S
C932 H917 0.960 . S
C932 H918 0.960 . S
C932 H919 0.960 . S
C932 C931 1.524 . S
C933 C930 1.403 . S
C933 C934 1.392 . S
C933 C937 1.495 . S
C934 C933 1.392 . S
C934 C935 1.385 . S
C934 C936 1.478 . S
C935 H929 0.930 . S
C935 C931 1.400 . S
C935 C934 1.385 . S
C936 C934 1.478 . S
C936 C938 1.381 . S
C936 C942 1.383 . S
C937 C933 1.495 . S
C937 H943 0.959 . S
C937 H944 0.961 . S
C937 H945 0.960 . S
C938 C936 1.381 . S
C938 C939 1.394 . S
C938 H946 0.930 . S
C939 C938 1.394 . S
C939 C940 1.383 . S
C939 H947 0.929 . S
C940 C939 1.383 . S
C940 C941 1.377 . S
C941 H925 0.930 . S
C941 C940 1.377 . S
C941 C942 1.379 . S
C942 H926 0.931 . S
C942 C936 1.383 . S
C942 C941 1.379 . S
H943 C937 0.959 . S
H944 C937 0.961 . S
H945 C937 0.960 . S
H946 C938 0.930 . S
H947 C939 0.929 . S
H948 C956 0.929 . S
H949 C958 0.930 . S
H950 C960 0.930 . S
H951 C963 0.929 . S
H952 C966 0.930 . S
H953 C968 0.960 . S
H954 C968 0.960 . S
H955 C968 0.960 . S
C956 H948 0.929 . S
C956 C957 1.377 . S
C956 C958 1.384 . S
C957 C956 1.377 . S
C957 C963 1.390 . S
C958 H949 0.930 . S
C958 C956 1.384 . S
C958 C959 1.372 . S
C959 C958 1.372 . S
C959 C960 1.400 . S
C959 C964 1.490 . S
C960 H950 0.930 . S
C960 C959 1.400 . S
C960 C963 1.386 . S
H961 C977 0.930 . S
H962 C978 0.931 . S
C963 H951 0.929 . S
C963 C957 1.390 . S
C963 C960 1.386 . S
C964 C959 1.490 . S
C964 C966 1.395 . S
C964 C967 1.403 . S
H965 C971 0.930 . S
C966 H952 0.930 . S
C966 C964 1.395 . S
C966 C969 1.403 . S
C967 C964 1.403 . S
C967 C968 1.524 . S
C967 C971 1.400 . S
C968 H953 0.960 . S
C968 H954 0.960 . S
C968 H955 0.960 . S
C968 C967 1.524 . S
C969 C966 1.403 . S
C969 C970 1.392 . S
C969 C973 1.495 . S
C970 C969 1.392 . S
C970 C971 1.385 . S
C970 C972 1.478 . S
C971 H965 0.930 . S
C971 C967 1.400 . S
C971 C970 1.385 . S
C972 C970 1.478 . S
C972 C974 1.381 . S
C972 C978 1.383 . S
C973 C969 1.495 . S
C973 H979 0.959 . S
C973 H980 0.961 . S
C973 H981 0.960 . S
C974 C972 1.381 . S
C974 C975 1.394 . S
C974 H982 0.930 . S
C975 C974 1.394 . S
C975 C976 1.383 . S
C975 H983 0.929 . S
C976 C975 1.383 . S
C976 C977 1.377 . S
C977 H961 0.930 . S
C977 C976 1.377 . S
C977 C978 1.379 . S
C978 H962 0.931 . S
C978 C972 1.383 . S
C978 C977 1.379 . S
H979 C973 0.959 . S
H980 C973 0.961 . S
H981 C973 0.960 . S
H982 C974 0.930 . S
H983 C975 0.929 . S
H984 C992 0.929 . S
H985 C994 0.930 . S
H986 C996 0.930 . S
H987 C999 0.929 . S
H988 C1002 0.930 . S
H989 C1004 0.960 . S
H990 C1004 0.960 . S
H991 C1004 0.960 . S
C992 H984 0.929 . S
C992 C993 1.377 . S
C992 C994 1.384 . S
C993 C992 1.377 . S
C993 C999 1.390 . S
C994 H985 0.930 . S
C994 C992 1.384 . S
C994 C995 1.372 . S
C995 C994 1.372 . S
C995 C996 1.400 . S
C995 C1000 1.490 . S
C996 H986 0.930 . S
C996 C995 1.400 . S
C996 C999 1.386 . S
H997 C1013 0.930 . S
H998 C1014 0.931 . S
C999 H987 0.929 . S
C999 C993 1.390 . S
C999 C996 1.386 . S
C1000 C995 1.490 . S
C1000 C1002 1.395 . S
C1000 C1003 1.403 . S
H1001 C1007 0.930 . S
C1002 H988 0.930 . S
C1002 C1000 1.395 . S
C1002 C1005 1.403 . S
C1003 C1000 1.403 . S
C1003 C1004 1.524 . S
C1003 C1007 1.400 . S
C1004 H989 0.960 . S
C1004 H990 0.960 . S
C1004 H991 0.960 . S
C1004 C1003 1.524 . S
C1005 C1002 1.403 . S
C1005 C1006 1.392 . S
C1005 C1009 1.495 . S
C1006 C1005 1.392 . S
C1006 C1007 1.385 . S
C1006 C1008 1.478 . S
C1007 H1001 0.930 . S
C1007 C1003 1.400 . S
C1007 C1006 1.385 . S
C1008 C1006 1.478 . S
C1008 C1010 1.381 . S
C1008 C1014 1.383 . S
C1009 C1005 1.495 . S
C1009 H1015 0.959 . S
C1009 H1016 0.961 . S
C1009 H1017 0.960 . S
C1010 C1008 1.381 . S
C1010 C1011 1.394 . S
C1010 H1018 0.930 . S
C1011 C1010 1.394 . S
C1011 C1012 1.383 . S
C1011 H1019 0.929 . S
C1012 C1011 1.383 . S
C1012 C1013 1.377 . S
C1013 H997 0.930 . S
C1013 C1012 1.377 . S
C1013 C1014 1.379 . S
C1014 H998 0.931 . S
C1014 C1008 1.383 . S
C1014 C1013 1.379 . S
H1015 C1009 0.959 . S
H1016 C1009 0.961 . S
H1017 C1009 0.960 . S
H1018 C1010 0.930 . S
H1019 C1011 0.929 . S
H1020 C1028 0.929 . S
H1021 C1030 0.930 . S
H1022 C1032 0.930 . S
H1023 C1035 0.929 . S
H1024 C1038 0.930 . S
H1025 C1040 0.960 . S
H1026 C1040 0.960 . S
H1027 C1040 0.960 . S
C1028 H1020 0.929 . S
C1028 C1029 1.377 . S
C1028 C1030 1.384 . S
C1029 C1028 1.377 . S
C1029 C1035 1.390 . S
C1030 H1021 0.930 . S
C1030 C1028 1.384 . S
C1030 C1031 1.372 . S
C1031 C1030 1.372 . S
C1031 C1032 1.400 . S
C1031 C1036 1.490 . S
C1032 H1022 0.930 . S
C1032 C1031 1.400 . S
C1032 C1035 1.386 . S
H1033 C1049 0.930 . S
H1034 C1050 0.931 . S
C1035 H1023 0.929 . S
C1035 C1029 1.390 . S
C1035 C1032 1.386 . S
C1036 C1031 1.490 . S
C1036 C1038 1.395 . S
C1036 C1039 1.403 . S
H1037 C1043 0.930 . S
C1038 H1024 0.930 . S
C1038 C1036 1.395 . S
C1038 C1041 1.403 . S
C1039 C1036 1.403 . S
C1039 C1040 1.524 . S
C1039 C1043 1.400 . S
C1040 H1025 0.960 . S
C1040 H1026 0.960 . S
C1040 H1027 0.960 . S
C1040 C1039 1.524 . S
C1041 C1038 1.403 . S
C1041 C1042 1.392 . S
C1041 C1045 1.495 . S
C1042 C1041 1.392 . S
C1042 C1043 1.385 . S
C1042 C1044 1.478 . S
C1043 H1037 0.930 . S
C1043 C1039 1.400 . S
C1043 C1042 1.385 . S
C1044 C1042 1.478 . S
C1044 C1046 1.381 . S
C1044 C1050 1.383 . S
C1045 C1041 1.495 . S
C1045 H1051 0.959 . S
C1045 H1052 0.961 . S
C1045 H1053 0.960 . S
C1046 C1044 1.381 . S
C1046 C1047 1.394 . S
C1046 H1054 0.930 . S
C1047 C1046 1.394 . S
C1047 C1048 1.383 . S
C1047 H1055 0.929 . S
C1048 C1047 1.383 . S
C1048 C1049 1.377 . S
C1049 H1033 0.930 . S
C1049 C1048 1.377 . S
C1049 C1050 1.379 . S
C1050 H1034 0.931 . S
C1050 C1044 1.383 . S
C1050 C1049 1.379 . S
H1051 C1045 0.959 . S
H1052 C1045 0.961 . S
H1053 C1045 0.960 . S
H1054 C1046 0.930 . S
H1055 C1047 0.929 . S
H1056 C1064 0.929 . S
H1057 C1066 0.930 . S
H1058 C1068 0.930 . S
H1059 C1071 0.929 . S
H1060 C1074 0.930 . S
H1061 C1076 0.960 . S
H1062 C1076 0.960 . S
H1063 C1076 0.960 . S
C1064 H1056 0.929 . S
C1064 C1065 1.377 . S
C1064 C1066 1.384 . S
C1065 C1064 1.377 . S
C1065 C1071 1.390 . S
C1066 H1057 0.930 . S
C1066 C1064 1.384 . S
C1066 C1067 1.372 . S
C1067 C1066 1.372 . S
C1067 C1068 1.400 . S
C1067 C1072 1.490 . S
C1068 H1058 0.930 . S
C1068 C1067 1.400 . S
C1068 C1071 1.386 . S
H1069 C1085 0.930 . S
H1070 C1086 0.931 . S
C1071 H1059 0.929 . S
C1071 C1065 1.390 . S
C1071 C1068 1.386 . S
C1072 C1067 1.490 . S
C1072 C1074 1.395 . S
C1072 C1075 1.403 . S
H1073 C1079 0.930 . S
C1074 H1060 0.930 . S
C1074 C1072 1.395 . S
C1074 C1077 1.403 . S
C1075 C1072 1.403 . S
C1075 C1076 1.524 . S
C1075 C1079 1.400 . S
C1076 H1061 0.960 . S
C1076 H1062 0.960 . S
C1076 H1063 0.960 . S
C1076 C1075 1.524 . S
C1077 C1074 1.403 . S
C1077 C1078 1.392 . S
C1077 C1081 1.495 . S
C1078 C1077 1.392 . S
C1078 C1079 1.385 . S
C1078 C1080 1.478 . S
C1079 H1073 0.930 . S
C1079 C1075 1.400 . S
C1079 C1078 1.385 . S
C1080 C1078 1.478 . S
C1080 C1082 1.381 . S
C1080 C1086 1.383 . S
C1081 C1077 1.495 . S
C1081 H1087 0.959 . S
C1081 H1088 0.961 . S
C1081 H1089 0.960 . S
C1082 C1080 1.381 . S
C1082 C1083 1.394 . S
C1082 H1090 0.930 . S
C1083 C1082 1.394 . S
C1083 C1084 1.383 . S
C1083 H1091 0.929 . S
C1084 C1083 1.383 . S
C1084 C1085 1.377 . S
C1085 H1069 0.930 . S
C1085 C1084 1.377 . S
C1085 C1086 1.379 . S
C1086 H1070 0.931 . S
C1086 C1080 1.383 . S
C1086 C1085 1.379 . S
H1087 C1081 0.959 . S
H1088 C1081 0.961 . S
H1089 C1081 0.960 . S
H1090 C1082 0.930 . S
H1091 C1083 0.929 . S
H1092 C1100 0.929 . S
H1093 C1102 0.930 . S
H1094 C1104 0.930 . S
H1095 C1107 0.929 . S
H1096 C1110 0.930 . S
H1097 C1112 0.960 . S
H1098 C1112 0.960 . S
H1099 C1112 0.960 . S
C1100 H1092 0.929 . S
C1100 C1101 1.377 . S
C1100 C1102 1.384 . S
C1101 C1100 1.377 . S
C1101 C1107 1.390 . S
C1102 H1093 0.930 . S
C1102 C1100 1.384 . S
C1102 C1103 1.372 . S
C1103 C1102 1.372 . S
C1103 C1104 1.400 . S
C1103 C1108 1.490 . S
C1104 H1094 0.930 . S
C1104 C1103 1.400 . S
C1104 C1107 1.386 . S
H1105 C1121 0.930 . S
H1106 C1122 0.931 . S
C1107 H1095 0.929 . S
C1107 C1101 1.390 . S
C1107 C1104 1.386 . S
C1108 C1103 1.490 . S
C1108 C1110 1.395 . S
C1108 C1111 1.403 . S
H1109 C1115 0.930 . S
C1110 H1096 0.930 . S
C1110 C1108 1.395 . S
C1110 C1113 1.403 . S
C1111 C1108 1.403 . S
C1111 C1112 1.524 . S
C1111 C1115 1.400 . S
C1112 H1097 0.960 . S
C1112 H1098 0.960 . S
C1112 H1099 0.960 . S
C1112 C1111 1.524 . S
C1113 C1110 1.403 . S
C1113 C1114 1.392 . S
C1113 C1117 1.495 . S
C1114 C1113 1.392 . S
C1114 C1115 1.385 . S
C1114 C1116 1.478 . S
C1115 H1109 0.930 . S
C1115 C1111 1.400 . S
C1115 C1114 1.385 . S
C1116 C1114 1.478 . S
C1116 C1118 1.381 . S
C1116 C1122 1.383 . S
C1117 C1113 1.495 . S
C1117 H1123 0.959 . S
C1117 H1124 0.961 . S
C1117 H1125 0.960 . S
C1118 C1116 1.381 . S
C1118 C1119 1.394 . S
C1118 H1126 0.930 . S
C1119 C1118 1.394 . S
C1119 C1120 1.383 . S
C1119 H1127 0.929 . S
C1120 C1119 1.383 . S
C1120 C1121 1.377 . S
C1121 H1105 0.930 . S
C1121 C1120 1.377 . S
C1121 C1122 1.379 . S
C1122 H1106 0.931 . S
C1122 C1116 1.383 . S
C1122 C1121 1.379 . S
H1123 C1117 0.959 . S
H1124 C1117 0.961 . S
H1125 C1117 0.960 . S
H1126 C1118 0.930 . S
H1127 C1119 0.929 . S
H1128 C1136 0.929 . S
H1129 C1138 0.930 . S
H1130 C1140 0.930 . S
H1131 C1143 0.929 . S
H1132 C1146 0.930 . S
H1133 C1148 0.960 . S
H1134 C1148 0.960 . S
H1135 C1148 0.960 . S
C1136 H1128 0.929 . S
C1136 C1137 1.377 . S
C1136 C1138 1.384 . S
C1137 C1136 1.377 . S
C1137 C1143 1.390 . S
C1138 H1129 0.930 . S
C1138 C1136 1.384 . S
C1138 C1139 1.372 . S
C1139 C1138 1.372 . S
C1139 C1140 1.400 . S
C1139 C1144 1.490 . S
C1140 H1130 0.930 . S
C1140 C1139 1.400 . S
C1140 C1143 1.386 . S
H1141 C1157 0.930 . S
H1142 C1158 0.931 . S
C1143 H1131 0.929 . S
C1143 C1137 1.390 . S
C1143 C1140 1.386 . S
C1144 C1139 1.490 . S
C1144 C1146 1.395 . S
C1144 C1147 1.403 . S
H1145 C1151 0.930 . S
C1146 H1132 0.930 . S
C1146 C1144 1.395 . S
C1146 C1149 1.403 . S
C1147 C1144 1.403 . S
C1147 C1148 1.524 . S
C1147 C1151 1.400 . S
C1148 H1133 0.960 . S
C1148 H1134 0.960 . S
C1148 H1135 0.960 . S
C1148 C1147 1.524 . S
C1149 C1146 1.403 . S
C1149 C1150 1.392 . S
C1149 C1153 1.495 . S
C1150 C1149 1.392 . S
C1150 C1151 1.385 . S
C1150 C1152 1.478 . S
C1151 H1145 0.930 . S
C1151 C1147 1.400 . S
C1151 C1150 1.385 . S
C1152 C1150 1.478 . S
C1152 C1154 1.381 . S
C1152 C1158 1.383 . S
C1153 C1149 1.495 . S
C1153 H1159 0.959 . S
C1153 H1160 0.961 . S
C1153 H1161 0.960 . S
C1154 C1152 1.381 . S
C1154 C1155 1.394 . S
C1154 H1162 0.930 . S
C1155 C1154 1.394 . S
C1155 C1156 1.383 . S
C1155 H1163 0.929 . S
C1156 C1155 1.383 . S
C1156 C1157 1.377 . S
C1157 H1141 0.930 . S
C1157 C1156 1.377 . S
C1157 C1158 1.379 . S
C1158 H1142 0.931 . S
C1158 C1152 1.383 . S
C1158 C1157 1.379 . S
H1159 C1153 0.959 . S
H1160 C1153 0.961 . S
H1161 C1153 0.960 . S
H1162 C1154 0.930 . S
H1163 C1155 0.929 . S
H1164 C1172 0.929 . S
H1165 C1174 0.930 . S
H1166 C1176 0.930 . S
H1167 C1179 0.929 . S
H1168 C1182 0.930 . S
H1169 C1184 0.960 . S
H1170 C1184 0.960 . S
H1171 C1184 0.960 . S
C1172 H1164 0.929 . S
C1172 C1173 1.377 . S
C1172 C1174 1.384 . S
C1173 C1172 1.377 . S
C1173 C1179 1.390 . S
C1174 H1165 0.930 . S
C1174 C1172 1.384 . S
C1174 C1175 1.372 . S
C1175 C1174 1.372 . S
C1175 C1176 1.400 . S
C1175 C1180 1.490 . S
C1176 H1166 0.930 . S
C1176 C1175 1.400 . S
C1176 C1179 1.386 . S
H1177 C1193 0.930 . S
H1178 C1194 0.931 . S
C1179 H1167 0.929 . S
C1179 C1173 1.390 . S
C1179 C1176 1.386 . S
C1180 C1175 1.490 . S
C1180 C1182 1.395 . S
C1180 C1183 1.403 . S
H1181 C1187 0.930 . S
C1182 H1168 0.930 . S
C1182 C1180 1.395 . S
C1182 C1185 1.403 . S
C1183 C1180 1.403 . S
C1183 C1184 1.524 . S
C1183 C1187 1.400 . S
C1184 H1169 0.960 . S
C1184 H1170 0.960 . S
C1184 H1171 0.960 . S
C1184 C1183 1.524 . S
C1185 C1182 1.403 . S
C1185 C1186 1.392 . S
C1185 C1189 1.495 . S
C1186 C1185 1.392 . S
C1186 C1187 1.385 . S
C1186 C1188 1.478 . S
C1187 H1181 0.930 . S
C1187 C1183 1.400 . S
C1187 C1186 1.385 . S
C1188 C1186 1.478 . S
C1188 C1190 1.381 . S
C1188 C1194 1.383 . S
C1189 C1185 1.495 . S
C1189 H1195 0.959 . S
C1189 H1196 0.961 . S
C1189 H1197 0.960 . S
C1190 C1188 1.381 . S
C1190 C1191 1.394 . S
C1190 H1198 0.930 . S
C1191 C1190 1.394 . S
C1191 C1192 1.383 . S
C1191 H1199 0.929 . S
C1192 C1191 1.383 . S
C1192 C1193 1.377 . S
C1193 H1177 0.930 . S
C1193 C1192 1.377 . S
C1193 C1194 1.379 . S
C1194 H1178 0.931 . S
C1194 C1188 1.383 . S
C1194 C1193 1.379 . S
H1195 C1189 0.959 . S
H1196 C1189 0.961 . S
H1197 C1189 0.960 . S
H1198 C1190 0.930 . S
H1199 C1191 0.929 . S
H1200 C1208 0.929 . S
H1201 C1210 0.930 . S
H1202 C1212 0.930 . S
H1203 C1215 0.929 . S
H1204 C1218 0.930 . S
H1205 C1220 0.960 . S
H1206 C1220 0.960 . S
H1207 C1220 0.960 . S
C1208 H1200 0.929 . S
C1208 C1209 1.377 . S
C1208 C1210 1.384 . S
C1209 C1208 1.377 . S
C1209 C1215 1.390 . S
C1210 H1201 0.930 . S
C1210 C1208 1.384 . S
C1210 C1211 1.372 . S
C1211 C1210 1.372 . S
C1211 C1212 1.400 . S
C1211 C1216 1.490 . S
C1212 H1202 0.930 . S
C1212 C1211 1.400 . S
C1212 C1215 1.386 . S
H1213 C1229 0.930 . S
H1214 C1230 0.931 . S
C1215 H1203 0.929 . S
C1215 C1209 1.390 . S
C1215 C1212 1.386 . S
C1216 C1211 1.490 . S
C1216 C1218 1.395 . S
C1216 C1219 1.403 . S
H1217 C1223 0.930 . S
C1218 H1204 0.930 . S
C1218 C1216 1.395 . S
C1218 C1221 1.403 . S
C1219 C1216 1.403 . S
C1219 C1220 1.524 . S
C1219 C1223 1.400 . S
C1220 H1205 0.960 . S
C1220 H1206 0.960 . S
C1220 H1207 0.960 . S
C1220 C1219 1.524 . S
C1221 C1218 1.403 . S
C1221 C1222 1.392 . S
C1221 C1225 1.495 . S
C1222 C1221 1.392 . S
C1222 C1223 1.385 . S
C1222 C1224 1.478 . S
C1223 H1217 0.930 . S
C1223 C1219 1.400 . S
C1223 C1222 1.385 . S
C1224 C1222 1.478 . S
C1224 C1226 1.381 . S
C1224 C1230 1.383 . S
C1225 C1221 1.495 . S
C1225 H1231 0.959 . S
C1225 H1232 0.961 . S
C1225 H1233 0.960 . S
C1226 C1224 1.381 . S
C1226 C1227 1.394 . S
C1226 H1234 0.930 . S
C1227 C1226 1.394 . S
C1227 C1228 1.383 . S
C1227 H1235 0.929 . S
C1228 C1227 1.383 . S
C1228 C1229 1.377 . S
C1229 H1213 0.930 . S
C1229 C1228 1.377 . S
C1229 C1230 1.379 . S
C1230 H1214 0.931 . S
C1230 C1224 1.383 . S
C1230 C1229 1.379 . S
H1231 C1225 0.959 . S
H1232 C1225 0.961 . S
H1233 C1225 0.960 . S
H1234 C1226 0.930 . S
H1235 C1227 0.929 . S
H1236 C1244 0.929 . S
H1237 C1246 0.930 . S
H1238 C1248 0.930 . S
H1239 C1251 0.929 . S
H1240 C1254 0.901 1_554 S
H1241 C1256 0.960 . S
H1242 C1256 0.960 . S
H1243 C1256 0.960 . S
C1244 H1236 0.929 . S
C1244 C1245 1.377 . S
C1244 C1246 1.384 . S
C1245 C1244 1.377 . S
C1245 C1251 1.390 . S
C1246 H1237 0.930 . S
C1246 C1244 1.384 . S
C1246 C1247 1.372 . S
C1247 C1246 1.372 . S
C1247 C1248 1.400 . S
C1247 C1252 1.490 1_554 S
C1248 H1238 0.930 . S
C1248 C1247 1.400 . S
C1248 C1251 1.386 . S
H1249 C1265 0.930 . S
H1250 C1266 0.931 . S
C1251 H1239 0.929 . S
C1251 C1245 1.390 . S
C1251 C1248 1.386 . S
C1252 C1247 1.490 1_556 S
C1252 C1254 1.395 . S
C1252 C1255 1.403 . S
H1253 C1259 0.930 . S
C1254 H1240 0.901 1_556 S
C1254 C1252 1.395 . S
C1254 C1257 1.403 . S
C1255 C1252 1.403 . S
C1255 C1256 1.524 . S
C1255 C1259 1.400 . S
C1256 H1241 0.960 . S
C1256 H1242 0.960 . S
C1256 H1243 0.960 . S
C1256 C1255 1.524 . S
C1257 C1254 1.403 . S
C1257 C1258 1.392 . S
C1257 C1261 1.495 . S
C1258 C1257 1.392 . S
C1258 C1259 1.385 . S
C1258 C1260 1.478 . S
C1259 H1253 0.930 . S
C1259 C1255 1.400 . S
C1259 C1258 1.385 . S
C1260 C1258 1.478 . S
C1260 C1262 1.381 . S
C1260 C1266 1.383 . S
C1261 C1257 1.495 . S
C1261 H1267 0.959 . S
C1261 H1268 0.961 . S
C1261 H1269 0.960 . S
C1262 C1260 1.381 . S
C1262 C1263 1.394 . S
C1262 H1270 0.930 . S
C1263 C1262 1.394 . S
C1263 C1264 1.383 . S
C1263 H1271 0.929 . S
C1264 C1263 1.383 . S
C1264 C1265 1.377 . S
C1265 H1249 0.930 . S
C1265 C1264 1.377 . S
C1265 C1266 1.379 . S
C1266 H1250 0.931 . S
C1266 C1260 1.383 . S
C1266 C1265 1.379 . S
H1267 C1261 0.959 . S
H1268 C1261 0.961 . S
H1269 C1261 0.960 . S
H1270 C1262 0.930 . S
H1271 C1263 0.929 . S
H1272 C1280 0.929 . S
H1273 C1282 0.930 . S
H1274 C1284 0.930 . S
H1275 C1287 0.929 . S
H1276 C1290 0.930 . S
H1277 C1292 0.960 . S
H1278 C1292 0.960 . S
H1279 C1292 0.960 . S
C1280 H1272 0.929 . S
C1280 C1281 1.377 . S
C1280 C1282 1.384 . S
C1281 C1280 1.377 . S
C1281 C1287 1.390 . S
C1282 H1273 0.930 . S
C1282 C1280 1.384 . S
C1282 C1283 1.372 . S
C1283 C1282 1.372 . S
C1283 C1284 1.400 . S
C1283 C1288 1.490 . S
C1284 H1274 0.930 . S
C1284 C1283 1.400 . S
C1284 C1287 1.386 . S
H1285 C1301 0.930 . S
H1286 C1302 0.931 . S
C1287 H1275 0.929 . S
C1287 C1281 1.390 . S
C1287 C1284 1.386 . S
C1288 C1283 1.490 . S
C1288 C1290 1.395 . S
C1288 C1291 1.403 . S
H1289 C1295 0.930 . S
C1290 H1276 0.930 . S
C1290 C1288 1.395 . S
C1290 C1293 1.403 . S
C1291 C1288 1.403 . S
C1291 C1292 1.524 . S
C1291 C1295 1.400 . S
C1292 H1277 0.960 . S
C1292 H1278 0.960 . S
C1292 H1279 0.960 . S
C1292 C1291 1.524 . S
C1293 C1290 1.403 . S
C1293 C1294 1.392 . S
C1293 C1297 1.495 . S
C1294 C1293 1.392 . S
C1294 C1295 1.385 . S
C1294 C1296 1.478 . S
C1295 H1289 0.930 . S
C1295 C1291 1.400 . S
C1295 C1294 1.385 . S
C1296 C1294 1.478 . S
C1296 C1298 1.381 . S
C1296 C1302 1.383 . S
C1297 C1293 1.495 . S
C1297 H1303 0.959 . S
C1297 H1304 0.961 . S
C1297 H1305 0.960 . S
C1298 C1296 1.381 . S
C1298 C1299 1.394 . S
C1298 H1306 0.930 . S
C1299 C1298 1.394 . S
C1299 C1300 1.383 . S
C1299 H1307 0.929 . S
C1300 C1299 1.383 . S
C1300 C1301 1.377 . S
C1301 H1285 0.930 . S
C1301 C1300 1.377 . S
C1301 C1302 1.379 . S
C1302 H1286 0.931 . S
C1302 C1296 1.383 . S
C1302 C1301 1.379 . S
H1303 C1297 0.959 . S
H1304 C1297 0.961 . S
H1305 C1297 0.960 . S
H1306 C1298 0.930 . S
H1307 C1299 0.929 . S
H1308 C1316 0.929 . S
H1309 C1318 0.930 . S
H1310 C1320 0.930 . S
H1311 C1323 0.929 . S
H1312 C1326 0.930 . S
H1313 C1328 0.960 . S
H1314 C1328 0.960 . S
H1315 C1328 0.960 . S
C1316 H1308 0.929 . S
C1316 C1317 1.377 . S
C1316 C1318 1.384 . S
C1317 C1316 1.377 . S
C1317 C1323 1.390 . S
C1318 H1309 0.930 . S
C1318 C1316 1.384 . S
C1318 C1319 1.372 . S
C1319 C1318 1.372 . S
C1319 C1320 1.400 . S
C1319 C1324 1.490 . S
C1320 H1310 0.930 . S
C1320 C1319 1.400 . S
C1320 C1323 1.386 . S
H1321 C1337 0.930 . S
H1322 C1338 0.931 . S
C1323 H1311 0.929 . S
C1323 C1317 1.390 . S
C1323 C1320 1.386 . S
C1324 C1319 1.490 . S
C1324 C1326 1.395 . S
C1324 C1327 1.403 . S
H1325 C1331 0.930 . S
C1326 H1312 0.930 . S
C1326 C1324 1.395 . S
C1326 C1329 1.403 . S
C1327 C1324 1.403 . S
C1327 C1328 1.524 . S
C1327 C1331 1.400 . S
C1328 H1313 0.960 . S
C1328 H1314 0.960 . S
C1328 H1315 0.960 . S
C1328 C1327 1.524 . S
C1329 C1326 1.403 . S
C1329 C1330 1.392 . S
C1329 C1333 1.495 . S
C1330 C1329 1.392 . S
C1330 C1331 1.385 . S
C1330 C1332 1.478 1_554 S
C1331 H1325 0.930 . S
C1331 C1327 1.400 . S
C1331 C1330 1.385 . S
C1332 C1330 1.478 1_556 S
C1332 C1334 1.381 . S
C1332 C1338 1.383 . S
C1333 C1329 1.495 . S
C1333 H1339 0.959 . S
C1333 H1340 0.961 1_554 S
C1333 H1341 0.960 1_554 S
C1334 C1332 1.381 . S
C1334 C1335 1.394 . S
C1334 H1342 0.930 . S
C1335 C1334 1.394 . S
C1335 C1336 1.383 . S
C1335 H1343 0.929 . S
C1336 C1335 1.383 . S
C1336 C1337 1.377 . S
C1337 H1321 0.930 . S
C1337 C1336 1.377 . S
C1337 C1338 1.379 . S
C1338 H1322 0.931 . S
C1338 C1332 1.383 . S
C1338 C1337 1.379 . S
H1339 C1333 0.959 . S
H1340 C1333 0.961 1_556 S
H1341 C1333 0.960 1_556 S
H1342 C1334 0.930 . S
H1343 C1335 0.929 . S
H1344 C1352 0.929 . S
H1345 C1354 0.930 . S
H1346 C1356 0.930 . S
H1347 C1359 0.929 . S
H1348 C1362 0.930 . S
H1349 C1364 0.960 . S
H1350 C1364 0.960 . S
H1351 C1364 0.960 . S
C1352 H1344 0.929 . S
C1352 C1353 1.377 . S
C1352 C1354 1.384 . S
C1353 C1352 1.377 . S
C1353 C1359 1.390 . S
C1354 H1345 0.930 . S
C1354 C1352 1.384 . S
C1354 C1355 1.372 . S
C1355 C1354 1.372 . S
C1355 C1356 1.400 . S
C1355 C1360 1.490 . S
C1356 H1346 0.930 . S
C1356 C1355 1.400 . S
C1356 C1359 1.386 . S
H1357 C1373 0.930 . S
H1358 C1374 0.931 . S
C1359 H1347 0.929 . S
C1359 C1353 1.390 . S
C1359 C1356 1.386 . S
C1360 C1355 1.490 . S
C1360 C1362 1.395 . S
C1360 C1363 1.403 . S
H1361 C1367 0.930 . S
C1362 H1348 0.930 . S
C1362 C1360 1.395 . S
C1362 C1365 1.403 . S
C1363 C1360 1.403 . S
C1363 C1364 1.524 . S
C1363 C1367 1.400 . S
C1364 H1349 0.960 . S
C1364 H1350 0.960 . S
C1364 H1351 0.960 . S
C1364 C1363 1.524 . S
C1365 C1362 1.403 . S
C1365 C1366 1.392 . S
C1365 C1369 1.495 . S
C1366 C1365 1.392 . S
C1366 C1367 1.385 . S
C1366 C1368 1.478 . S
C1367 H1361 0.930 . S
C1367 C1363 1.400 . S
C1367 C1366 1.385 . S
C1368 C1366 1.478 . S
C1368 C1370 1.381 . S
C1368 C1374 1.383 . S
C1369 C1365 1.495 . S
C1369 H1375 0.959 . S
C1369 H1376 0.961 . S
C1369 H1377 0.960 . S
C1370 C1368 1.381 . S
C1370 C1371 1.394 . S
C1370 H1378 0.930 . S
C1371 C1370 1.394 . S
C1371 C1372 1.383 . S
C1371 H1379 0.929 . S
C1372 C1371 1.383 . S
C1372 C1373 1.377 . S
C1373 H1357 0.930 . S
C1373 C1372 1.377 . S
C1373 C1374 1.379 . S
C1374 H1358 0.931 . S
C1374 C1368 1.383 . S
C1374 C1373 1.379 . S
H1375 C1369 0.959 . S
H1376 C1369 0.961 . S
H1377 C1369 0.960 . S
H1378 C1370 0.930 . S
H1379 C1371 0.929 . S
H1380 C1388 0.929 . S
H1381 C1390 0.930 . S
H1382 C1392 0.930 . S
H1383 C1395 0.929 . S
H1384 C1398 0.930 . S
H1385 C1400 0.960 . S
H1386 C1400 0.960 . S
H1387 C1400 0.960 . S
C1388 H1380 0.929 . S
C1388 C1389 1.377 . S
C1388 C1390 1.384 . S
C1389 C1388 1.377 . S
C1389 C1395 1.390 . S
C1390 H1381 0.930 . S
C1390 C1388 1.384 . S
C1390 C1391 1.372 . S
C1391 C1390 1.372 . S
C1391 C1392 1.400 . S
C1391 C1396 1.490 1_655 S
C1392 H1382 0.930 . S
C1392 C1391 1.400 . S
C1392 C1395 1.386 . S
H1393 C1409 0.930 . S
H1394 C1410 0.931 . S
C1395 H1383 0.929 . S
C1395 C1389 1.390 . S
C1395 C1392 1.386 . S
C1396 C1391 1.490 1_455 S
C1396 C1398 1.395 . S
C1396 C1399 1.403 . S
H1397 C1403 0.930 . S
C1398 H1384 0.930 . S
C1398 C1396 1.395 . S
C1398 C1401 1.403 . S
C1399 C1396 1.403 . S
C1399 C1400 1.524 . S
C1399 C1403 1.400 . S
C1400 H1385 0.960 . S
C1400 H1386 0.960 . S
C1400 H1387 0.960 . S
C1400 C1399 1.524 . S
C1401 C1398 1.403 . S
C1401 C1402 1.392 . S
C1401 C1405 1.495 . S
C1402 C1401 1.392 . S
C1402 C1403 1.385 . S
C1402 C1404 1.478 . S
C1403 H1397 0.930 . S
C1403 C1399 1.400 . S
C1403 C1402 1.385 . S
C1404 C1402 1.478 . S
C1404 C1406 1.381 . S
C1404 C1410 1.383 . S
C1405 C1401 1.495 . S
C1405 H1411 0.959 . S
C1405 H1412 0.961 . S
C1405 H1413 0.960 . S
C1406 C1404 1.381 . S
C1406 C1407 1.394 . S
C1406 H1414 0.930 . S
C1407 C1406 1.394 . S
C1407 C1408 1.383 . S
C1407 H1415 0.929 . S
C1408 C1407 1.383 . S
C1408 C1409 1.377 . S
C1409 H1393 0.930 . S
C1409 C1408 1.377 . S
C1409 C1410 1.379 . S
C1410 H1394 0.931 . S
C1410 C1404 1.383 . S
C1410 C1409 1.379 . S
H1411 C1405 0.959 . S
H1412 C1405 0.961 . S
H1413 C1405 0.960 . S
H1414 C1406 0.930 . S
H1415 C1407 0.929 . S
H1416 C1424 0.929 . S
H1417 C1426 0.930 . S
H1418 C1428 0.930 . S
H1419 C1431 0.929 . S
H1420 C1434 0.930 . S
H1421 C1436 0.960 . S
H1422 C1436 0.960 . S
H1423 C1436 0.960 . S
C1424 H1416 0.929 . S
C1424 C1425 1.377 . S
C1424 C1426 1.384 . S
C1425 C1424 1.377 . S
C1425 C1431 1.390 . S
C1426 H1417 0.930 . S
C1426 C1424 1.384 . S
C1426 C1427 1.372 . S
C1427 C1426 1.372 . S
C1427 C1428 1.400 . S
C1427 C1432 1.490 1_455 S
C1428 H1418 0.930 . S
C1428 C1427 1.400 . S
C1428 C1431 1.386 . S
H1429 C1445 0.930 . S
H1430 C1446 0.931 . S
C1431 H1419 0.929 . S
C1431 C1425 1.390 . S
C1431 C1428 1.386 . S
C1432 C1427 1.490 1_655 S
C1432 C1434 1.395 . S
C1432 C1435 1.403 . S
H1433 C1439 0.930 . S
C1434 H1420 0.930 . S
C1434 C1432 1.395 . S
C1434 C1437 1.403 . S
C1435 C1432 1.403 . S
C1435 C1436 1.524 . S
C1435 C1439 1.400 . S
C1436 H1421 0.960 . S
C1436 H1422 0.960 . S
C1436 H1423 0.960 . S
C1436 C1435 1.524 . S
C1437 C1434 1.403 . S
C1437 C1438 1.392 . S
C1437 C1441 1.495 . S
C1438 C1437 1.392 . S
C1438 C1439 1.385 . S
C1438 C1440 1.478 . S
C1439 H1433 0.930 . S
C1439 C1435 1.400 . S
C1439 C1438 1.385 . S
C1440 C1438 1.478 . S
C1440 C1442 1.381 . S
C1440 C1446 1.383 . S
C1441 C1437 1.495 . S
C1441 H1447 0.959 . S
C1441 H1448 0.961 . S
C1441 H1449 0.960 . S
C1442 C1440 1.381 . S
C1442 C1443 1.394 . S
C1442 H1450 0.930 . S
C1443 C1442 1.394 . S
C1443 C1444 1.383 . S
C1443 H1451 0.929 . S
C1444 C1443 1.383 . S
C1444 C1445 1.377 . S
C1445 H1429 0.930 . S
C1445 C1444 1.377 . S
C1445 C1446 1.379 . S
C1446 H1430 0.931 . S
C1446 C1440 1.383 . S
C1446 C1445 1.379 . S
H1447 C1441 0.959 . S
H1448 C1441 0.961 . S
H1449 C1441 0.960 . S
H1450 C1442 0.930 . S
H1451 C1443 0.929 . S
H1452 C1460 0.929 . S
H1453 C1462 0.930 . S
H1454 C1464 0.930 . S
H1455 C1467 0.929 . S
H1456 C1470 0.930 . S
H1457 C1472 0.960 . S
H1458 C1472 0.960 . S
H1459 C1472 0.960 . S
C1460 H1452 0.929 . S
C1460 C1461 1.377 . S
C1460 C1462 1.384 . S
C1461 C1460 1.377 . S
C1461 C1467 1.390 . S
C1462 H1453 0.930 . S
C1462 C1460 1.384 . S
C1462 C1463 1.372 . S
C1463 C1462 1.372 . S
C1463 C1464 1.400 . S
C1463 C1468 1.490 . S
C1464 H1454 0.930 . S
C1464 C1463 1.400 . S
C1464 C1467 1.386 . S
H1465 C1481 0.930 . S
H1466 C1482 0.931 . S
C1467 H1455 0.929 . S
C1467 C1461 1.390 . S
C1467 C1464 1.386 . S
C1468 C1463 1.490 . S
C1468 C1470 1.395 . S
C1468 C1471 1.403 . S
H1469 C1475 0.930 . S
C1470 H1456 0.930 . S
C1470 C1468 1.395 . S
C1470 C1473 1.403 . S
C1471 C1468 1.403 . S
C1471 C1472 1.524 . S
C1471 C1475 1.400 . S
C1472 H1457 0.960 . S
C1472 H1458 0.960 . S
C1472 H1459 0.960 . S
C1472 C1471 1.524 . S
C1473 C1470 1.403 . S
C1473 C1474 1.392 . S
C1473 C1477 1.495 . S
C1474 C1473 1.392 . S
C1474 C1475 1.385 . S
C1474 C1476 1.478 . S
C1475 H1469 0.930 . S
C1475 C1471 1.400 . S
C1475 C1474 1.385 . S
C1476 C1474 1.478 . S
C1476 C1478 1.381 . S
C1476 C1482 1.383 . S
C1477 C1473 1.495 . S
C1477 H1483 0.959 . S
C1477 H1484 0.961 . S
C1477 H1485 0.960 . S
C1478 C1476 1.381 . S
C1478 C1479 1.394 . S
C1478 H1486 0.930 . S
C1479 C1478 1.394 . S
C1479 C1480 1.383 . S
C1479 H1487 0.929 . S
C1480 C1479 1.383 . S
C1480 C1481 1.377 . S
C1481 H1465 0.930 . S
C1481 C1480 1.377 . S
C1481 C1482 1.379 . S
C1482 H1466 0.931 . S
C1482 C1476 1.383 . S
C1482 C1481 1.379 . S
H1483 C1477 0.959 . S
H1484 C1477 0.961 . S
H1485 C1477 0.960 . S
H1486 C1478 0.930 . S
H1487 C1479 0.929 . S
H1488 C1496 0.929 . S
H1489 C1498 0.930 . S
H1490 C1500 0.930 . S
H1491 C1503 0.929 . S
H1492 C1506 0.930 . S
H1493 C1508 0.960 . S
H1494 C1508 0.960 . S
H1495 C1508 0.960 . S
C1496 H1488 0.929 . S
C1496 C1497 1.377 . S
C1496 C1498 1.384 . S
C1497 C1496 1.377 . S
C1497 C1503 1.390 . S
C1498 H1489 0.930 . S
C1498 C1496 1.384 . S
C1498 C1499 1.372 . S
C1499 C1498 1.372 . S
C1499 C1500 1.400 . S
C1499 C1504 1.490 . S
C1500 H1490 0.930 . S
C1500 C1499 1.400 . S
C1500 C1503 1.386 . S
H1501 C1517 0.930 . S
H1502 C1518 0.931 . S
C1503 H1491 0.929 . S
C1503 C1497 1.390 . S
C1503 C1500 1.386 . S
C1504 C1499 1.490 . S
C1504 C1506 1.395 . S
C1504 C1507 1.403 . S
H1505 C1511 0.930 . S
C1506 H1492 0.930 . S
C1506 C1504 1.395 . S
C1506 C1509 1.403 . S
C1507 C1504 1.403 . S
C1507 C1508 1.524 . S
C1507 C1511 1.400 . S
C1508 H1493 0.960 . S
C1508 H1494 0.960 . S
C1508 H1495 0.960 . S
C1508 C1507 1.524 . S
C1509 C1506 1.403 . S
C1509 C1510 1.392 . S
C1509 C1513 1.495 . S
C1510 C1509 1.392 . S
C1510 C1511 1.385 . S
C1510 C1512 1.478 . S
C1511 H1505 0.930 . S
C1511 C1507 1.400 . S
C1511 C1510 1.385 . S
C1512 C1510 1.478 . S
C1512 C1514 1.381 . S
C1512 C1518 1.383 . S
C1513 C1509 1.495 . S
C1513 H1519 0.959 . S
C1513 H1520 0.961 . S
C1513 H1521 0.960 . S
C1514 C1512 1.381 . S
C1514 C1515 1.394 . S
C1514 H1522 0.930 . S
C1515 C1514 1.394 . S
C1515 C1516 1.383 . S
C1515 H1523 0.929 . S
C1516 C1515 1.383 . S
C1516 C1517 1.377 . S
C1517 H1501 0.930 . S
C1517 C1516 1.377 . S
C1517 C1518 1.379 . S
C1518 H1502 0.931 . S
C1518 C1512 1.383 . S
C1518 C1517 1.379 . S
H1519 C1513 0.959 . S
H1520 C1513 0.961 . S
H1521 C1513 0.960 . S
H1522 C1514 0.930 . S
H1523 C1515 0.929 . S
H1524 C1532 0.929 . S
H1525 C1534 0.930 . S
H1526 C1536 0.930 . S
H1527 C1539 0.929 . S
H1528 C1542 0.930 . S
H1529 C1544 0.980 . S
H1530 C1544 0.938 1_565 S
H1531 C1544 0.946 1_565 S
C1532 H1524 0.929 . S
C1532 C1533 1.377 . S
C1532 C1534 1.384 . S
C1533 C1532 1.377 . S
C1533 C1539 1.390 . S
C1534 H1525 0.930 . S
C1534 C1532 1.384 . S
C1534 C1535 1.372 . S
C1535 C1534 1.372 . S
C1535 C1536 1.400 . S
C1535 C1540 1.490 1_565 S
C1536 H1526 0.930 . S
C1536 C1535 1.400 . S
C1536 C1539 1.386 . S
H1537 C1553 0.930 . S
H1538 C1554 0.931 . S
C1539 H1527 0.929 . S
C1539 C1533 1.390 . S
C1539 C1536 1.386 . S
C1540 C1535 1.490 1_545 S
C1540 C1542 1.395 . S
C1540 C1543 1.403 . S
H1541 C1547 0.930 . S
C1542 H1528 0.930 . S
C1542 C1540 1.395 . S
C1542 C1545 1.403 . S
C1543 C1540 1.403 . S
C1543 C1544 1.542 . S
C1543 C1547 1.400 . S
C1544 H1529 0.980 . S
C1544 H1530 0.938 1_545 S
C1544 H1531 0.946 1_545 S
C1544 C1543 1.542 . S
C1545 C1542 1.403 . S
C1545 C1546 1.392 . S
C1545 C1549 1.495 . S
C1546 C1545 1.392 . S
C1546 C1547 1.385 . S
C1546 C1548 1.478 . S
C1547 H1541 0.930 . S
C1547 C1543 1.400 . S
C1547 C1546 1.385 . S
C1548 C1546 1.478 . S
C1548 C1550 1.381 . S
C1548 C1554 1.383 . S
C1549 C1545 1.495 . S
C1549 H1555 0.959 . S
C1549 H1556 0.961 . S
C1549 H1557 0.960 . S
C1550 C1548 1.381 . S
C1550 C1551 1.394 . S
C1550 H1558 0.930 . S
C1551 C1550 1.394 . S
C1551 C1552 1.383 . S
C1551 H1559 0.929 . S
C1552 C1551 1.383 . S
C1552 C1553 1.377 . S
C1553 H1537 0.930 . S
C1553 C1552 1.377 . S
C1553 C1554 1.379 . S
C1554 H1538 0.931 . S
C1554 C1548 1.383 . S
C1554 C1553 1.379 . S
H1555 C1549 0.959 . S
H1556 C1549 0.961 . S
H1557 C1549 0.960 . S
H1558 C1550 0.930 . S
H1559 C1551 0.929 . S
H1560 C1568 0.929 . S
H1561 C1570 0.930 . S
H1562 C1572 0.930 . S
H1563 C1575 0.929 . S
H1564 C1578 0.930 1_545 S
H1565 C1580 0.960 . S
H1566 C1580 0.960 . S
H1567 C1580 0.960 . S
C1568 H1560 0.929 . S
C1568 C1569 1.377 . S
C1568 C1570 1.384 . S
C1569 C1568 1.377 . S
C1569 C1575 1.390 . S
C1570 H1561 0.930 . S
C1570 C1568 1.384 . S
C1570 C1571 1.372 . S
C1571 C1570 1.372 . S
C1571 C1572 1.400 . S
C1571 C1576 1.490 1_545 S
C1572 H1562 0.930 . S
C1572 C1571 1.400 . S
C1572 C1575 1.386 . S
H1573 C1589 0.930 . S
H1574 C1590 0.931 . S
C1575 H1563 0.929 . S
C1575 C1569 1.390 . S
C1575 C1572 1.386 . S
C1576 C1571 1.490 1_565 S
C1576 C1578 1.395 . S
C1576 C1579 1.403 . S
H1577 C1583 0.930 . S
C1578 H1564 0.930 1_565 S
C1578 C1576 1.395 . S
C1578 C1581 1.403 . S
C1579 C1576 1.403 . S
C1579 C1580 1.524 . S
C1579 C1583 1.400 . S
C1580 H1565 0.960 . S
C1580 H1566 0.960 . S
C1580 H1567 0.960 . S
C1580 C1579 1.524 . S
C1581 C1578 1.403 . S
C1581 C1582 1.392 . S
C1581 C1585 1.495 . S
C1582 C1581 1.392 . S
C1582 C1583 1.385 . S
C1582 C1584 1.478 . S
C1583 H1577 0.930 . S
C1583 C1579 1.400 . S
C1583 C1582 1.385 . S
C1584 C1582 1.478 . S
C1584 C1586 1.381 . S
C1584 C1590 1.383 . S
C1585 C1581 1.495 . S
C1585 H1591 0.959 . S
C1585 H1592 0.961 . S
C1585 H1593 0.960 . S
C1586 C1584 1.381 . S
C1586 C1587 1.394 . S
C1586 H1594 0.930 . S
C1587 C1586 1.394 . S
C1587 C1588 1.383 . S
C1587 H1595 0.929 . S
C1588 C1587 1.383 . S
C1588 C1589 1.377 . S
C1589 H1573 0.930 . S
C1589 C1588 1.377 . S
C1589 C1590 1.379 . S
C1590 H1574 0.931 . S
C1590 C1584 1.383 . S
C1590 C1589 1.379 . S
H1591 C1585 0.959 . S
H1592 C1585 0.961 . S
H1593 C1585 0.960 . S
H1594 C1586 0.930 . S
H1595 C1587 0.929 . S
H1596 C1604 0.929 . S
H1597 C1606 0.930 . S
H1598 C1608 0.930 . S
H1599 C1611 0.929 . S
H1600 C1614 0.930 . S
H1601 C1616 0.960 . S
H1602 C1616 0.960 . S
H1603 C1616 0.960 . S
C1604 H1596 0.929 . S
C1604 C1605 1.377 . S
C1604 C1606 1.384 . S
C1605 C1604 1.377 . S
C1605 C1611 1.390 . S
C1606 H1597 0.930 . S
C1606 C1604 1.384 . S
C1606 C1607 1.372 . S
C1607 C1606 1.372 . S
C1607 C1608 1.400 . S
C1607 C1612 1.490 . S
C1608 H1598 0.930 . S
C1608 C1607 1.400 . S
C1608 C1611 1.386 . S
H1609 C1625 0.930 . S
H1610 C1626 0.931 . S
C1611 H1599 0.929 . S
C1611 C1605 1.390 . S
C1611 C1608 1.386 . S
C1612 C1607 1.490 . S
C1612 C1614 1.395 . S
C1612 C1615 1.403 . S
H1613 C1619 0.930 . S
C1614 H1600 0.930 . S
C1614 C1612 1.395 . S
C1614 C1617 1.403 . S
C1615 C1612 1.403 . S
C1615 C1616 1.524 . S
C1615 C1619 1.400 . S
C1616 H1601 0.960 . S
C1616 H1602 0.960 . S
C1616 H1603 0.960 . S
C1616 C1615 1.524 . S
C1617 C1614 1.403 . S
C1617 C1618 1.392 . S
C1617 C1621 1.495 . S
C1618 C1617 1.392 . S
C1618 C1619 1.385 . S
C1618 C1620 1.478 . S
C1619 H1613 0.930 . S
C1619 C1615 1.400 . S
C1619 C1618 1.385 . S
C1620 C1618 1.478 . S
C1620 C1622 1.381 . S
C1620 C1626 1.383 . S
C1621 C1617 1.495 . S
C1621 H1627 0.959 . S
C1621 H1628 0.961 . S
C1621 H1629 0.960 . S
C1622 C1620 1.381 . S
C1622 C1623 1.394 . S
C1622 H1630 0.930 . S
C1623 C1622 1.394 . S
C1623 C1624 1.383 . S
C1623 H1631 0.929 . S
C1624 C1623 1.383 . S
C1624 C1625 1.377 . S
C1625 H1609 0.930 . S
C1625 C1624 1.377 . S
C1625 C1626 1.379 . S
C1626 H1610 0.931 . S
C1626 C1620 1.383 . S
C1626 C1625 1.379 . S
H1627 C1621 0.959 . S
H1628 C1621 0.961 . S
H1629 C1621 0.960 . S
H1630 C1622 0.930 . S
H1631 C1623 0.929 . S
H1632 C1640 0.929 . S
H1633 C1642 0.930 . S
H1634 C1644 0.930 . S
H1635 C1647 0.929 . S
H1636 C1650 0.930 . S
H1637 C1652 0.960 . S
H1638 C1652 0.960 . S
H1639 C1652 0.960 . S
C1640 H1632 0.929 . S
C1640 C1641 1.377 . S
C1640 C1642 1.384 . S
C1641 C1640 1.377 . S
C1641 C1647 1.390 . S
C1642 H1633 0.930 . S
C1642 C1640 1.384 . S
C1642 C1643 1.372 . S
C1643 C1642 1.372 . S
C1643 C1644 1.400 . S
C1643 C1648 1.490 . S
C1644 H1634 0.930 . S
C1644 C1643 1.400 . S
C1644 C1647 1.386 . S
H1645 C1661 0.930 . S
H1646 C1662 0.931 . S
C1647 H1635 0.929 . S
C1647 C1641 1.390 . S
C1647 C1644 1.386 . S
C1648 C1643 1.490 . S
C1648 C1650 1.395 . S
C1648 C1651 1.403 . S
H1649 C1655 0.930 . S
C1650 H1636 0.930 . S
C1650 C1648 1.395 . S
C1650 C1653 1.403 . S
C1651 C1648 1.403 . S
C1651 C1652 1.524 . S
C1651 C1655 1.400 . S
C1652 H1637 0.960 . S
C1652 H1638 0.960 . S
C1652 H1639 0.960 . S
C1652 C1651 1.524 . S
C1653 C1650 1.403 . S
C1653 C1654 1.392 . S
C1653 C1657 1.495 . S
C1654 C1653 1.392 . S
C1654 C1655 1.385 . S
C1654 C1656 1.478 . S
C1655 H1649 0.930 . S
C1655 C1651 1.400 . S
C1655 C1654 1.385 . S
C1656 C1654 1.478 . S
C1656 C1658 1.381 . S
C1656 C1662 1.383 . S
C1657 C1653 1.495 . S
C1657 H1663 0.959 . S
C1657 H1664 0.961 . S
C1657 H1665 0.960 . S
C1658 C1656 1.381 . S
C1658 C1659 1.394 . S
C1658 H1666 0.930 . S
C1659 C1658 1.394 . S
C1659 C1660 1.383 . S
C1659 H1667 0.929 . S
C1660 C1659 1.383 . S
C1660 C1661 1.377 . S
C1661 H1645 0.930 . S
C1661 C1660 1.377 . S
C1661 C1662 1.379 . S
C1662 H1646 0.931 . S
C1662 C1656 1.383 . S
C1662 C1661 1.379 . S
H1663 C1657 0.959 . S
H1664 C1657 0.961 . S
H1665 C1657 0.960 . S
H1666 C1658 0.930 . S
H1667 C1659 0.929 . S
H1668 C1676 0.929 . S
H1669 C1678 0.930 . S
H1670 C1680 0.930 . S
H1671 C1683 0.929 . S
H1672 C1686 0.930 . S
H1673 C1688 0.960 . S
H1674 C1688 0.960 . S
H1675 C1688 0.960 . S
C1676 H1668 0.929 . S
C1676 C1677 1.377 . S
C1676 C1678 1.384 . S
C1677 C1676 1.377 . S
C1677 C1683 1.390 . S
C1678 H1669 0.930 . S
C1678 C1676 1.384 . S
C1678 C1679 1.372 . S
C1679 C1678 1.372 . S
C1679 C1680 1.400 . S
C1679 C1684 1.490 1_556 S
C1680 H1670 0.930 . S
C1680 C1679 1.400 . S
C1680 C1683 1.386 . S
H1681 C1697 0.930 . S
H1682 C1698 0.931 . S
C1683 H1671 0.929 . S
C1683 C1677 1.390 . S
C1683 C1680 1.386 . S
C1684 C1679 1.490 1_554 S
C1684 C1686 1.395 . S
C1684 C1687 1.403 . S
H1685 C1691 0.930 . S
C1686 H1672 0.930 . S
C1686 C1684 1.395 . S
C1686 C1689 1.403 . S
C1687 C1684 1.403 . S
C1687 C1688 1.524 . S
C1687 C1691 1.400 . S
C1688 H1673 0.960 . S
C1688 H1674 0.960 . S
C1688 H1675 0.960 . S
C1688 C1687 1.524 . S
C1689 C1686 1.403 . S
C1689 C1690 1.392 . S
C1689 C1693 1.495 . S
C1690 C1689 1.392 . S
C1690 C1691 1.385 . S
C1690 C1692 1.478 . S
C1691 H1685 0.930 . S
C1691 C1687 1.400 . S
C1691 C1690 1.385 . S
C1692 C1690 1.478 . S
C1692 C1694 1.381 . S
C1692 C1698 1.383 . S
C1693 C1689 1.495 . S
C1693 H1699 0.959 . S
C1693 H1700 0.961 . S
C1693 H1701 0.960 . S
C1694 C1692 1.381 . S
C1694 C1695 1.394 . S
C1694 H1702 0.930 . S
C1695 C1694 1.394 . S
C1695 C1696 1.383 . S
C1695 H1703 0.929 . S
C1696 C1695 1.383 . S
C1696 C1697 1.377 . S
C1697 H1681 0.930 . S
C1697 C1696 1.377 . S
C1697 C1698 1.379 . S
C1698 H1682 0.931 . S
C1698 C1692 1.383 . S
C1698 C1697 1.379 . S
H1699 C1693 0.959 . S
H1700 C1693 0.961 . S
H1701 C1693 0.960 . S
H1702 C1694 0.930 . S
H1703 C1695 0.929 . S
H1704 C1712 0.929 . S
H1705 C1714 0.930 . S
H1706 C1716 0.930 . S
H1707 C1719 0.929 . S
H1708 C1722 0.930 . S
H1709 C1724 0.960 . S
H1710 C1724 0.960 . S
H1711 C1724 0.960 . S
C1712 H1704 0.929 . S
C1712 C1713 1.377 . S
C1712 C1714 1.384 . S
C1713 C1712 1.377 . S
C1713 C1719 1.390 . S
C1714 H1705 0.930 . S
C1714 C1712 1.384 . S
C1714 C1715 1.372 . S
C1715 C1714 1.372 . S
C1715 C1716 1.400 . S
C1715 C1720 1.490 . S
C1716 H1706 0.930 . S
C1716 C1715 1.400 . S
C1716 C1719 1.386 . S
H1717 C1733 0.930 . S
H1718 C1734 0.931 . S
C1719 H1707 0.929 . S
C1719 C1713 1.390 . S
C1719 C1716 1.386 . S
C1720 C1715 1.490 . S
C1720 C1722 1.395 . S
C1720 C1723 1.403 . S
H1721 C1727 0.930 . S
C1722 H1708 0.930 . S
C1722 C1720 1.395 . S
C1722 C1725 1.403 . S
C1723 C1720 1.403 . S
C1723 C1724 1.524 . S
C1723 C1727 1.400 . S
C1724 H1709 0.960 . S
C1724 H1710 0.960 . S
C1724 H1711 0.960 . S
C1724 C1723 1.524 . S
C1725 C1722 1.403 . S
C1725 C1726 1.392 . S
C1725 C1729 1.495 . S
C1726 C1725 1.392 . S
C1726 C1727 1.385 . S
C1726 C1728 1.478 . S
C1727 H1721 0.930 . S
C1727 C1723 1.400 . S
C1727 C1726 1.385 . S
C1728 C1726 1.478 . S
C1728 C1730 1.381 . S
C1728 C1734 1.383 . S
C1729 C1725 1.495 . S
C1729 H1735 0.959 . S
C1729 H1736 0.961 . S
C1729 H1737 0.960 . S
C1730 C1728 1.381 . S
C1730 C1731 1.394 . S
C1730 H1738 0.930 . S
C1731 C1730 1.394 . S
C1731 C1732 1.383 . S
C1731 H1739 0.929 . S
C1732 C1731 1.383 . S
C1732 C1733 1.377 . S
C1733 H1717 0.930 . S
C1733 C1732 1.377 . S
C1733 C1734 1.379 . S
C1734 H1718 0.931 . S
C1734 C1728 1.383 . S
C1734 C1733 1.379 . S
H1735 C1729 0.959 . S
H1736 C1729 0.961 . S
H1737 C1729 0.960 . S
H1738 C1730 0.930 . S
H1739 C1731 0.929 . S
H1740 C1748 0.929 . S
H1741 C1750 0.930 . S
H1742 C1752 0.930 . S
H1743 C1755 0.929 . S
H1744 C1758 0.930 . S
H1745 C1760 0.960 . S
H1746 C1760 0.960 . S
H1747 C1760 0.960 . S
C1748 H1740 0.929 . S
C1748 C1749 1.377 . S
C1748 C1750 1.384 . S
C1749 C1748 1.377 . S
C1749 C1755 1.390 . S
C1750 H1741 0.930 . S
C1750 C1748 1.384 . S
C1750 C1751 1.372 . S
C1751 C1750 1.372 . S
C1751 C1752 1.400 . S
C1751 C1756 1.490 1_554 S
C1752 H1742 0.930 . S
C1752 C1751 1.400 . S
C1752 C1755 1.386 . S
H1753 C1769 0.930 . S
H1754 C1770 0.931 . S
C1755 H1743 0.929 . S
C1755 C1749 1.390 . S
C1755 C1752 1.386 . S
C1756 C1751 1.490 1_556 S
C1756 C1758 1.395 . S
C1756 C1759 1.403 . S
H1757 C1763 0.930 . S
C1758 H1744 0.930 . S
C1758 C1756 1.395 . S
C1758 C1761 1.403 . S
C1759 C1756 1.403 . S
C1759 C1760 1.524 . S
C1759 C1763 1.400 . S
C1760 H1745 0.960 . S
C1760 H1746 0.960 . S
C1760 H1747 0.960 . S
C1760 C1759 1.524 . S
C1761 C1758 1.403 . S
C1761 C1762 1.392 . S
C1761 C1765 1.495 . S
C1762 C1761 1.392 . S
C1762 C1763 1.385 . S
C1762 C1764 1.478 . S
C1763 H1757 0.930 . S
C1763 C1759 1.400 . S
C1763 C1762 1.385 . S
C1764 C1762 1.478 . S
C1764 C1766 1.381 . S
C1764 C1770 1.383 . S
C1765 C1761 1.495 . S
C1765 H1771 0.959 . S
C1765 H1772 0.961 . S
C1765 H1773 0.960 . S
C1766 C1764 1.381 . S
C1766 C1767 1.394 . S
C1766 H1774 0.930 . S
C1767 C1766 1.394 . S
C1767 C1768 1.383 . S
C1767 H1775 0.929 . S
C1768 C1767 1.383 . S
C1768 C1769 1.377 . S
C1769 H1753 0.930 . S
C1769 C1768 1.377 . S
C1769 C1770 1.379 . S
C1770 H1754 0.931 . S
C1770 C1764 1.383 . S
C1770 C1769 1.379 . S
H1771 C1765 0.959 . S
H1772 C1765 0.961 . S
H1773 C1765 0.960 . S
H1774 C1766 0.930 . S
H1775 C1767 0.929 . S
H1776 C1784 0.929 . S
H1777 C1786 0.930 . S
H1778 C1788 0.930 . S
H1779 C1791 0.929 . S
H1780 C1794 0.930 . S
H1781 C1796 0.960 . S
H1782 C1796 0.960 . S
H1783 C1796 0.960 . S
C1784 H1776 0.929 . S
C1784 C1785 1.377 . S
C1784 C1786 1.384 . S
C1785 C1784 1.377 . S
C1785 C1791 1.390 . S
C1786 H1777 0.930 . S
C1786 C1784 1.384 . S
C1786 C1787 1.372 . S
C1787 C1786 1.372 . S
C1787 C1788 1.400 . S
C1787 C1792 1.490 . S
C1788 H1778 0.930 . S
C1788 C1787 1.400 . S
C1788 C1791 1.386 . S
H1789 C1805 0.930 . S
H1790 C1806 0.931 . S
C1791 H1779 0.929 . S
C1791 C1785 1.390 . S
C1791 C1788 1.386 . S
C1792 C1787 1.490 . S
C1792 C1794 1.395 . S
C1792 C1795 1.403 . S
H1793 C1799 0.930 . S
C1794 H1780 0.930 . S
C1794 C1792 1.395 . S
C1794 C1797 1.403 . S
C1795 C1792 1.403 . S
C1795 C1796 1.524 . S
C1795 C1799 1.400 . S
C1796 H1781 0.960 . S
C1796 H1782 0.960 . S
C1796 H1783 0.960 . S
C1796 C1795 1.524 . S
C1797 C1794 1.403 . S
C1797 C1798 1.392 . S
C1797 C1801 1.495 . S
C1798 C1797 1.392 . S
C1798 C1799 1.385 . S
C1798 C1800 1.478 . S
C1799 H1793 0.930 . S
C1799 C1795 1.400 . S
C1799 C1798 1.385 . S
C1800 C1798 1.478 . S
C1800 C1802 1.381 . S
C1800 C1806 1.383 . S
C1801 C1797 1.495 . S
C1801 H1807 0.959 . S
C1801 H1808 0.961 . S
C1801 H1809 0.960 . S
C1802 C1800 1.381 . S
C1802 C1803 1.394 . S
C1802 H1810 0.930 . S
C1803 C1802 1.394 . S
C1803 C1804 1.383 . S
C1803 H1811 0.929 . S
C1804 C1803 1.383 . S
C1804 C1805 1.377 . S
C1805 H1789 0.930 . S
C1805 C1804 1.377 . S
C1805 C1806 1.379 . S
C1806 H1790 0.931 . S
C1806 C1800 1.383 . S
C1806 C1805 1.379 . S
H1807 C1801 0.959 . S
H1808 C1801 0.961 . S
H1809 C1801 0.960 . S
H1810 C1802 0.930 . S
H1811 C1803 0.929 . S
H1812 C1820 0.929 . S
H1813 C1822 0.930 . S
H1814 C1824 0.930 . S
H1815 C1827 0.929 . S
H1816 C1830 0.930 . S
H1817 C1832 0.960 . S
H1818 C1832 0.960 . S
H1819 C1832 0.960 . S
C1820 H1812 0.929 . S
C1820 C1821 1.377 . S
C1820 C1822 1.384 . S
C1821 C1820 1.377 . S
C1821 C1827 1.390 . S
C1822 H1813 0.930 . S
C1822 C1820 1.384 . S
C1822 C1823 1.372 . S
C1823 C1822 1.372 . S
C1823 C1824 1.400 . S
C1823 C1828 1.490 . S
C1824 H1814 0.930 . S
C1824 C1823 1.400 . S
C1824 C1827 1.386 . S
H1825 C1841 0.930 . S
H1826 C1842 0.931 . S
C1827 H1815 0.929 . S
C1827 C1821 1.390 . S
C1827 C1824 1.386 . S
C1828 C1823 1.490 . S
C1828 C1830 1.395 . S
C1828 C1831 1.403 . S
H1829 C1835 0.930 . S
C1830 H1816 0.930 . S
C1830 C1828 1.395 . S
C1830 C1833 1.403 . S
C1831 C1828 1.403 . S
C1831 C1832 1.524 . S
C1831 C1835 1.400 . S
C1832 H1817 0.960 . S
C1832 H1818 0.960 . S
C1832 H1819 0.960 . S
C1832 C1831 1.524 . S
C1833 C1830 1.403 . S
C1833 C1834 1.392 . S
C1833 C1837 1.495 1_655 S
C1834 C1833 1.392 . S
C1834 C1835 1.385 . S
C1834 C1836 1.478 1_655 S
C1835 H1829 0.930 . S
C1835 C1831 1.400 . S
C1835 C1834 1.385 . S
C1836 C1834 1.478 1_455 S
C1836 C1838 1.381 . S
C1836 C1842 1.383 . S
C1837 C1833 1.495 1_455 S
C1837 H1843 0.959 1_455 S
C1837 H1844 0.961 . S
C1837 H1845 0.960 . S
C1838 C1836 1.381 . S
C1838 C1839 1.394 . S
C1838 H1846 0.930 . S
C1839 C1838 1.394 . S
C1839 C1840 1.383 . S
C1839 H1847 0.929 . S
C1840 C1839 1.383 . S
C1840 C1841 1.377 . S
C1841 H1825 0.930 . S
C1841 C1840 1.377 . S
C1841 C1842 1.379 . S
C1842 H1826 0.931 . S
C1842 C1836 1.383 . S
C1842 C1841 1.379 . S
H1843 C1837 0.959 1_655 S
H1844 C1837 0.961 . S
H1845 C1837 0.960 . S
H1846 C1838 0.930 . S
H1847 C1839 0.929 . S
H1848 C1856 0.929 . S
H1849 C1858 0.930 . S
H1850 C1860 0.930 . S
H1851 C1863 0.929 . S
H1852 C1866 0.930 . S
H1853 C1868 0.960 . S
H1854 C1868 0.960 . S
H1855 C1868 0.960 . S
C1856 H1848 0.929 . S
C1856 C1857 1.377 . S
C1856 C1858 1.384 . S
C1857 C1856 1.377 . S
C1857 C1863 1.390 . S
C1858 H1849 0.930 . S
C1858 C1856 1.384 . S
C1858 C1859 1.372 . S
C1859 C1858 1.372 . S
C1859 C1860 1.400 . S
C1859 C1864 1.490 . S
C1860 H1850 0.930 . S
C1860 C1859 1.400 . S
C1860 C1863 1.386 . S
H1861 C1877 0.930 . S
H1862 C1878 0.931 . S
C1863 H1851 0.929 . S
C1863 C1857 1.390 . S
C1863 C1860 1.386 . S
C1864 C1859 1.490 . S
C1864 C1866 1.395 . S
C1864 C1867 1.403 . S
H1865 C1871 0.930 . S
C1866 H1852 0.930 . S
C1866 C1864 1.395 . S
C1866 C1869 1.403 . S
C1867 C1864 1.403 . S
C1867 C1868 1.524 . S
C1867 C1871 1.400 . S
C1868 H1853 0.960 . S
C1868 H1854 0.960 . S
C1868 H1855 0.960 . S
C1868 C1867 1.524 . S
C1869 C1866 1.403 . S
C1869 C1870 1.392 . S
C1869 C1873 1.495 1_455 S
C1870 C1869 1.392 . S
C1870 C1871 1.385 . S
C1870 C1872 1.478 1_455 S
C1871 H1865 0.930 . S
C1871 C1867 1.400 . S
C1871 C1870 1.385 . S
C1872 C1870 1.478 1_655 S
C1872 C1874 1.381 . S
C1872 C1878 1.383 . S
C1873 C1869 1.495 1_655 S
C1873 H1879 0.959 1_655 S
C1873 H1880 0.961 . S
C1873 H1881 0.960 . S
C1874 C1872 1.381 . S
C1874 C1875 1.394 . S
C1874 H1882 0.930 . S
C1875 C1874 1.394 . S
C1875 C1876 1.383 . S
C1875 H1883 0.929 . S
C1876 C1875 1.383 . S
C1876 C1877 1.377 . S
C1877 H1861 0.930 . S
C1877 C1876 1.377 . S
C1877 C1878 1.379 . S
C1878 H1862 0.931 . S
C1878 C1872 1.383 . S
C1878 C1877 1.379 . S
H1879 C1873 0.959 1_455 S
H1880 C1873 0.961 . S
H1881 C1873 0.960 . S
H1882 C1874 0.930 . S
H1883 C1875 0.929 . S
H1884 C1892 0.929 . S
H1885 C1894 0.930 . S
H1886 C1896 0.930 . S
H1887 C1899 0.929 . S
H1888 C1902 0.930 . S
H1889 C1904 0.960 . S
H1890 C1904 0.960 . S
H1891 C1904 0.960 . S
C1892 H1884 0.929 . S
C1892 C1893 1.377 . S
C1892 C1894 1.384 . S
C1893 C1892 1.377 . S
C1893 C1899 1.390 . S
C1894 H1885 0.930 . S
C1894 C1892 1.384 . S
C1894 C1895 1.372 . S
C1895 C1894 1.372 . S
C1895 C1896 1.400 . S
C1895 C1900 1.490 . S
C1896 H1886 0.930 . S
C1896 C1895 1.400 . S
C1896 C1899 1.386 . S
H1897 C1913 0.930 . S
H1898 C1914 0.931 . S
C1899 H1887 0.929 . S
C1899 C1893 1.390 . S
C1899 C1896 1.386 . S
C1900 C1895 1.490 . S
C1900 C1902 1.395 . S
C1900 C1903 1.403 . S
H1901 C1907 0.930 . S
C1902 H1888 0.930 . S
C1902 C1900 1.395 . S
C1902 C1905 1.403 . S
C1903 C1900 1.403 . S
C1903 C1904 1.524 . S
C1903 C1907 1.400 . S
C1904 H1889 0.960 . S
C1904 H1890 0.960 . S
C1904 H1891 0.960 . S
C1904 C1903 1.524 . S
C1905 C1902 1.403 . S
C1905 C1906 1.392 . S
C1905 C1909 1.495 . S
C1906 C1905 1.392 . S
C1906 C1907 1.385 . S
C1906 C1908 1.478 . S
C1907 H1901 0.930 . S
C1907 C1903 1.400 . S
C1907 C1906 1.385 . S
C1908 C1906 1.478 . S
C1908 C1910 1.381 . S
C1908 C1914 1.383 . S
C1909 C1905 1.495 . S
C1909 H1915 0.959 . S
C1909 H1916 0.961 . S
C1909 H1917 0.960 . S
C1910 C1908 1.381 . S
C1910 C1911 1.394 . S
C1910 H1918 0.930 . S
C1911 C1910 1.394 . S
C1911 C1912 1.383 . S
C1911 H1919 0.929 . S
C1912 C1911 1.383 . S
C1912 C1913 1.377 . S
C1913 H1897 0.930 . S
C1913 C1912 1.377 . S
C1913 C1914 1.379 . S
C1914 H1898 0.931 . S
C1914 C1908 1.383 . S
C1914 C1913 1.379 . S
H1915 C1909 0.959 . S
H1916 C1909 0.961 . S
H1917 C1909 0.960 . S
H1918 C1910 0.930 . S
H1919 C1911 0.929 . S
H1920 C1928 0.929 . S
H1921 C1930 0.930 . S
H1922 C1932 0.930 . S
H1923 C1935 0.929 . S
H1924 C1938 0.930 . S
H1925 C1940 0.960 . S
H1926 C1940 0.960 . S
H1927 C1940 0.960 . S
C1928 H1920 0.929 . S
C1928 C1929 1.377 . S
C1928 C1930 1.384 . S
C1929 C1928 1.377 . S
C1929 C1935 1.390 . S
C1930 H1921 0.930 . S
C1930 C1928 1.384 . S
C1930 C1931 1.372 . S
C1931 C1930 1.372 . S
C1931 C1932 1.400 . S
C1931 C1936 1.490 . S
C1932 H1922 0.930 . S
C1932 C1931 1.400 . S
C1932 C1935 1.386 . S
H1933 C1949 0.930 . S
H1934 C1950 0.931 . S
C1935 H1923 0.929 . S
C1935 C1929 1.390 . S
C1935 C1932 1.386 . S
C1936 C1931 1.490 . S
C1936 C1938 1.395 . S
C1936 C1939 1.403 . S
H1937 C1943 0.930 . S
C1938 H1924 0.930 . S
C1938 C1936 1.395 . S
C1938 C1941 1.403 . S
C1939 C1936 1.403 . S
C1939 C1940 1.524 . S
C1939 C1943 1.400 . S
C1940 H1925 0.960 . S
C1940 H1926 0.960 . S
C1940 H1927 0.960 . S
C1940 C1939 1.524 . S
C1941 C1938 1.403 . S
C1941 C1942 1.392 . S
C1941 C1945 1.495 . S
C1942 C1941 1.392 . S
C1942 C1943 1.385 . S
C1942 C1944 1.478 . S
C1943 H1937 0.930 . S
C1943 C1939 1.400 . S
C1943 C1942 1.385 . S
C1944 C1942 1.478 . S
C1944 C1946 1.381 . S
C1944 C1950 1.383 . S
C1945 C1941 1.495 . S
C1945 H1951 0.959 . S
C1945 H1952 0.961 . S
C1945 H1953 0.960 . S
C1946 C1944 1.381 . S
C1946 C1947 1.394 . S
C1946 H1954 0.930 . S
C1947 C1946 1.394 . S
C1947 C1948 1.383 . S
C1947 H1955 0.929 . S
C1948 C1947 1.383 . S
C1948 C1949 1.377 . S
C1949 H1933 0.930 . S
C1949 C1948 1.377 . S
C1949 C1950 1.379 . S
C1950 H1934 0.931 . S
C1950 C1944 1.383 . S
C1950 C1949 1.379 . S
H1951 C1945 0.959 . S
H1952 C1945 0.961 . S
H1953 C1945 0.960 . S
H1954 C1946 0.930 . S
H1955 C1947 0.929 . S
H1956 C1964 0.929 . S
H1957 C1966 0.930 . S
H1958 C1968 0.930 . S
H1959 C1971 0.929 . S
H1960 C1974 0.930 . S
H1961 C1976 0.960 . S
H1962 C1976 0.960 . S
H1963 C1976 0.960 . S
C1964 H1956 0.929 . S
C1964 C1965 1.377 . S
C1964 C1966 1.384 . S
C1965 C1964 1.377 . S
C1965 C1971 1.390 . S
C1966 H1957 0.930 . S
C1966 C1964 1.384 . S
C1966 C1967 1.372 . S
C1967 C1966 1.372 . S
C1967 C1968 1.400 . S
C1967 C1972 1.490 . S
C1968 H1958 0.930 . S
C1968 C1967 1.400 . S
C1968 C1971 1.386 . S
H1969 C1985 0.930 . S
H1970 C1986 0.931 . S
C1971 H1959 0.929 . S
C1971 C1965 1.390 . S
C1971 C1968 1.386 . S
C1972 C1967 1.490 . S
C1972 C1974 1.395 . S
C1972 C1975 1.403 . S
H1973 C1979 0.930 . S
C1974 H1960 0.930 . S
C1974 C1972 1.395 . S
C1974 C1977 1.403 . S
C1975 C1972 1.403 . S
C1975 C1976 1.524 . S
C1975 C1979 1.400 . S
C1976 H1961 0.960 . S
C1976 H1962 0.960 . S
C1976 H1963 0.960 . S
C1976 C1975 1.524 . S
C1977 C1974 1.403 . S
C1977 C1978 1.392 . S
C1977 C1981 1.495 . S
C1978 C1977 1.392 . S
C1978 C1979 1.385 . S
C1978 C1980 1.478 1_565 S
C1979 H1973 0.930 . S
C1979 C1975 1.400 . S
C1979 C1978 1.385 . S
C1980 C1978 1.478 1_545 S
C1980 C1982 1.381 . S
C1980 C1986 1.383 . S
C1981 C1977 1.495 . S
C1981 H1987 0.959 . S
C1981 H1988 0.961 1_565 S
C1981 H1989 0.960 1_565 S
C1982 C1980 1.381 . S
C1982 C1983 1.394 . S
C1982 H1990 0.930 . S
C1983 C1982 1.394 . S
C1983 C1984 1.383 . S
C1983 H1991 0.929 . S
C1984 C1983 1.383 . S
C1984 C1985 1.377 . S
C1985 H1969 0.930 . S
C1985 C1984 1.377 . S
C1985 C1986 1.379 . S
C1986 H1970 0.931 . S
C1986 C1980 1.383 . S
C1986 C1985 1.379 . S
H1987 C1981 0.959 . S
H1988 C1981 0.961 1_545 S
H1989 C1981 0.960 1_545 S
H1990 C1982 0.930 . S
H1991 C1983 0.929 . S
H1992 C2000 0.929 . S
H1993 C2002 0.930 . S
H1994 C2004 0.930 . S
H1995 C2007 0.929 . S
H1996 C2010 0.930 . S
H1997 C2012 0.960 . S
H1998 C2012 0.961 . S
H1999 C2012 0.960 . S
C2000 H1992 0.929 . S
C2000 C2001 1.377 . S
C2000 C2002 1.384 . S
C2001 C2000 1.377 . S
C2001 C2007 1.390 . S
C2002 H1993 0.930 . S
C2002 C2000 1.384 . S
C2002 C2003 1.372 . S
C2003 C2002 1.372 . S
C2003 C2004 1.400 . S
C2003 C2008 1.490 1_565 S
C2004 H1994 0.930 . S
C2004 C2003 1.400 . S
C2004 C2007 1.386 . S
H2005 C2021 0.930 . S
H2006 C2022 0.931 . S
C2007 H1995 0.929 . S
C2007 C2001 1.390 . S
C2007 C2004 1.386 . S
C2008 C2003 1.490 1_545 S
C2008 C2010 1.395 . S
C2008 C2011 1.403 . S
H2009 C2015 0.930 . S
C2010 H1996 0.930 . S
C2010 C2008 1.395 . S
C2010 C2013 1.403 . S
C2011 C2008 1.403 . S
C2011 C2012 1.524 . S
C2011 C2015 1.400 . S
C2012 H1997 0.960 . S
C2012 H1998 0.961 . S
C2012 H1999 0.960 . S
C2012 C2011 1.524 . S
C2013 C2010 1.403 . S
C2013 C2014 1.392 . S
C2013 C2017 1.495 . S
C2014 C2013 1.392 . S
C2014 C2015 1.385 . S
C2014 C2016 1.478 . S
C2015 H2009 0.930 . S
C2015 C2011 1.400 . S
C2015 C2014 1.385 . S
C2016 C2014 1.478 . S
C2016 C2018 1.381 . S
C2016 C2022 1.383 . S
C2017 C2013 1.495 . S
C2017 H2023 0.959 . S
C2017 H2024 0.961 . S
C2017 H2025 0.960 . S
C2018 C2016 1.381 . S
C2018 C2019 1.394 . S
C2018 H2026 0.930 . S
C2019 C2018 1.394 . S
C2019 C2020 1.383 . S
C2019 H2027 0.929 . S
C2020 C2019 1.383 . S
C2020 C2021 1.377 . S
C2021 H2005 0.930 . S
C2021 C2020 1.377 . S
C2021 C2022 1.379 . S
C2022 H2006 0.931 . S
C2022 C2016 1.383 . S
C2022 C2021 1.379 . S
H2023 C2017 0.959 . S
H2024 C2017 0.961 . S
H2025 C2017 0.960 . S
H2026 C2018 0.930 . S
H2027 C2019 0.929 . S
H2028 C2036 0.929 . S
H2029 C2038 0.930 . S
H2030 C2040 0.930 . S
H2031 C2043 0.929 . S
H2032 C2046 0.930 . S
H2033 C2048 0.960 . S
H2034 C2048 0.960 . S
H2035 C2048 0.960 . S
C2036 H2028 0.929 . S
C2036 C2037 1.377 . S
C2036 C2038 1.384 . S
C2037 C2036 1.377 . S
C2037 C2043 1.390 . S
C2038 H2029 0.930 . S
C2038 C2036 1.384 . S
C2038 C2039 1.372 . S
C2039 C2038 1.372 . S
C2039 C2040 1.400 . S
C2039 C2044 1.490 . S
C2040 H2030 0.930 . S
C2040 C2039 1.400 . S
C2040 C2043 1.386 . S
H2041 C2057 0.930 . S
H2042 C2058 0.931 . S
C2043 H2031 0.929 . S
C2043 C2037 1.390 . S
C2043 C2040 1.386 . S
C2044 C2039 1.490 . S
C2044 C2046 1.395 . S
C2044 C2047 1.403 . S
H2045 C2051 0.930 . S
C2046 H2032 0.930 . S
C2046 C2044 1.395 . S
C2046 C2049 1.403 . S
C2047 C2044 1.403 . S
C2047 C2048 1.524 . S
C2047 C2051 1.400 . S
C2048 H2033 0.960 . S
C2048 H2034 0.960 . S
C2048 H2035 0.960 . S
C2048 C2047 1.524 . S
C2049 C2046 1.403 . S
C2049 C2050 1.392 . S
C2049 C2053 1.495 . S
C2050 C2049 1.392 . S
C2050 C2051 1.385 . S
C2050 C2052 1.478 . S
C2051 H2045 0.930 . S
C2051 C2047 1.400 . S
C2051 C2050 1.385 . S
C2052 C2050 1.478 . S
C2052 C2054 1.381 . S
C2052 C2058 1.383 . S
C2053 C2049 1.495 . S
C2053 H2059 0.959 . S
C2053 H2060 0.961 . S
C2053 H2061 0.960 . S
C2054 C2052 1.381 . S
C2054 C2055 1.394 . S
C2054 H2062 0.930 . S
C2055 C2054 1.394 . S
C2055 C2056 1.383 . S
C2055 H2063 0.929 . S
C2056 C2055 1.383 . S
C2056 C2057 1.377 . S
C2057 H2041 0.930 . S
C2057 C2056 1.377 . S
C2057 C2058 1.379 . S
C2058 H2042 0.931 . S
C2058 C2052 1.383 . S
C2058 C2057 1.379 . S
H2059 C2053 0.959 . S
H2060 C2053 0.961 . S
H2061 C2053 0.960 . S
H2062 C2054 0.930 . S
H2063 C2055 0.929 . S
C345 C121 0.893 . S
C364 C3 0.859 . S
C381 C17 0.887 . S
C400 C163 0.912 . S
C417 C31 0.885 . S
C436 C135 0.920 . S
C453 C45 0.886 . S
C472 C149 0.912 . S
C489 C59 0.863 . S
C508 C9 0.845 . S
C525 C23 0.856 . S
C544 C73 0.859 . S
C561 C87 0.862 . S
C580 C37 0.855 . S
C597 C51 0.865 . S
C616 C101 0.827 . S
C633 C65 0.870 . S
C652 C115 0.916 . S
C669 C93 0.886 . S
C688 C129 0.857 . S
C705 C143 0.893 . S
C724 C107 0.834 . S
C741 C79 0.881 . S
C760 C157 0.877 . S
C777 C283 0.867 . S
C796 C171 0.890 . S
C813 C185 0.870 . S
C832 C325 0.897 . S
C849 C199 0.859 . S
C868 C297 0.843 . S
C885 C311 0.873 . S
C904 C213 0.899 . S
C921 C233 0.843 . S
C940 C177 0.806 . S
C957 C191 0.848 . S
C976 C247 0.880 . S
C993 C205 0.858 . S
C1012 C261 0.887 . S
C1029 C275 0.851 . S
C1048 C219 0.893 . S
C1065 C289 0.853 . S
C1084 C227 0.885 . S
C1101 C255 0.861 . S
C1120 C303 0.860 . S
C1137 C269 0.848 . S
C1156 C317 0.800 . S
C1173 C331 0.835 . S
C1192 C241 0.838 . S
C1209 C315 1.315 . S
C1228 C7 1.311 . S
C1245 C301 1.325 . S
C1264 C21 1.346 . S
C1281 C329 1.322 . S
C1300 C35 1.320 . S
C1317 C49 1.329 . S
C1336 C287 1.335 . S
C1353 C63 1.328 . S
C1372 C190 1.351 . S
C1389 C176 1.346 . S
C1408 C77 1.312 . S
C1425 C218 1.347 . S
C1444 C91 1.319 . S
C1461 C204 1.347 . S
C1480 C105 1.327 . S
C1497 C119 1.342 . S
C1516 C259 1.329 . S
C1533 C231 1.331 . S
C1552 C133 1.321 . S
C1569 C245 1.339 . S
C1588 C147 1.357 . S
C1605 C273 1.337 . S
C1624 C161 1.341 . S
C1641 C148 1.404 . S
C1660 C175 1.396 . S
C1677 C134 1.405 . S
C1696 C189 1.385 . S
C1713 C203 1.376 . S
C1732 C162 1.410 . S
C1749 C120 1.404 . S
C1768 C217 1.394 . S
C1785 C232 1.424 . S
C1804 C22 1.424 . S
C1821 C246 1.424 . S
C1840 C8 1.409 . S
C1857 C260 1.422 . S
C1876 C50 1.414 . S
C1893 C274 1.423 . S
C1912 C36 1.425 . S
C1929 C288 1.392 . S
C1948 C92 1.376 . S
C1965 C302 1.389 . S
C1984 C64 1.390 . S
C2001 C78 1.387 . S
C2020 C316 1.391 . S
C2037 C330 1.391 . S
C2056 C106 1.386 . S
