# Generated by pormake.
# Topology cbo, (4)-cn, num edge types: 1
# Building blocks:
#     Node 0, Type 0, BuildingBlock: QUQFOY_clean_sbu_1, # of connection points: 4
#     Node 1, Type 0, BuildingBlock: QUQFOY_clean_sbu_1, # of connection points: 4
#     Node 2, Type 0, BuildingBlock: QUQFOY_clean_sbu_1, # of connection points: 4
#     Node 3, Type 0, BuildingBlock: QUQFOY_clean_sbu_1, # of connection points: 4
#     Node 4, Type 0, BuildingBlock: QUQFOY_clean_sbu_1, # of connection points: 4
#     Node 5, Type 0, BuildingBlock: QUQFOY_clean_sbu_1, # of connection points: 4
#     Node 6, Type 0, BuildingBlock: QUQFOY_clean_sbu_1, # of connection points: 4
#     Node 7, Type 0, BuildingBlock: QUQFOY_clean_sbu_1, # of connection points: 4
#     Node 8, Type 0, BuildingBlock: QUQFOY_clean_sbu_1, # of connection points: 4
#     Node 9, Type 0, BuildingBlock: QUQFOY_clean_sbu_1, # of connection points: 4
#     Node 10, Type 0, BuildingBlock: QUQFOY_clean_sbu_1, # of connection points: 4
#     Node 11, Type 0, BuildingBlock: QUQFOY_clean_sbu_1, # of connection points: 4
#     Node 12, Type 0, BuildingBlock: QUQFOY_clean_sbu_1, # of connection points: 4
#     Node 13, Type 0, BuildingBlock: QUQFOY_clean_sbu_1, # of connection points: 4
#     Node 14, Type 0, BuildingBlock: QUQFOY_clean_sbu_1, # of connection points: 4
#     Node 15, Type 0, BuildingBlock: QUQFOY_clean_sbu_1, # of connection points: 4
#     Node 16, Type 0, BuildingBlock: QUQFOY_clean_sbu_1, # of connection points: 4
#     Node 17, Type 0, BuildingBlock: QUQFOY_clean_sbu_1, # of connection points: 4
#     Node 18, Type 0, BuildingBlock: QUQFOY_clean_sbu_1, # of connection points: 4
#     Node 19, Type 0, BuildingBlock: QUQFOY_clean_sbu_1, # of connection points: 4
#     Node 20, Type 0, BuildingBlock: QUQFOY_clean_sbu_1, # of connection points: 4
#     Node 21, Type 0, BuildingBlock: QUQFOY_clean_sbu_1, # of connection points: 4
#     Node 22, Type 0, BuildingBlock: QUQFOY_clean_sbu_1, # of connection points: 4
#     Node 23, Type 0, BuildingBlock: QUQFOY_clean_sbu_1, # of connection points: 4
#     Edge 24, Type (0, 0), BuildingBlock: XIVTED_clean_linker_0, # of connection points: 2
#     Edge 25, Type (0, 0), BuildingBlock: XIVTED_clean_linker_0, # of connection points: 2
#     Edge 26, Type (0, 0), BuildingBlock: XIVTED_clean_linker_0, # of connection points: 2
#     Edge 27, Type (0, 0), BuildingBlock: XIVTED_clean_linker_0, # of connection points: 2
#     Edge 28, Type (0, 0), BuildingBlock: XIVTED_clean_linker_0, # of connection points: 2
#     Edge 29, Type (0, 0), BuildingBlock: XIVTED_clean_linker_0, # of connection points: 2
#     Edge 30, Type (0, 0), BuildingBlock: XIVTED_clean_linker_0, # of connection points: 2
#     Edge 31, Type (0, 0), BuildingBlock: XIVTED_clean_linker_0, # of connection points: 2
#     Edge 32, Type (0, 0), BuildingBlock: XIVTED_clean_linker_0, # of connection points: 2
#     Edge 33, Type (0, 0), BuildingBlock: XIVTED_clean_linker_0, # of connection points: 2
#     Edge 34, Type (0, 0), BuildingBlock: XIVTED_clean_linker_0, # of connection points: 2
#     Edge 35, Type (0, 0), BuildingBlock: XIVTED_clean_linker_0, # of connection points: 2
#     Edge 36, Type (0, 0), BuildingBlock: XIVTED_clean_linker_0, # of connection points: 2
#     Edge 37, Type (0, 0), BuildingBlock: XIVTED_clean_linker_0, # of connection points: 2
#     Edge 38, Type (0, 0), BuildingBlock: XIVTED_clean_linker_0, # of connection points: 2
#     Edge 39, Type (0, 0), BuildingBlock: XIVTED_clean_linker_0, # of connection points: 2
#     Edge 40, Type (0, 0), BuildingBlock: XIVTED_clean_linker_0, # of connection points: 2
#     Edge 41, Type (0, 0), BuildingBlock: XIVTED_clean_linker_0, # of connection points: 2
#     Edge 42, Type (0, 0), BuildingBlock: XIVTED_clean_linker_0, # of connection points: 2
#     Edge 43, Type (0, 0), BuildingBlock: XIVTED_clean_linker_0, # of connection points: 2
#     Edge 44, Type (0, 0), BuildingBlock: XIVTED_clean_linker_0, # of connection points: 2
#     Edge 45, Type (0, 0), BuildingBlock: XIVTED_clean_linker_0, # of connection points: 2
#     Edge 46, Type (0, 0), BuildingBlock: XIVTED_clean_linker_0, # of connection points: 2
#     Edge 47, Type (0, 0), BuildingBlock: XIVTED_clean_linker_0, # of connection points: 2
#     Edge 48, Type (0, 0), BuildingBlock: XIVTED_clean_linker_0, # of connection points: 2
#     Edge 49, Type (0, 0), BuildingBlock: XIVTED_clean_linker_0, # of connection points: 2
#     Edge 50, Type (0, 0), BuildingBlock: XIVTED_clean_linker_0, # of connection points: 2
#     Edge 51, Type (0, 0), BuildingBlock: XIVTED_clean_linker_0, # of connection points: 2
#     Edge 52, Type (0, 0), BuildingBlock: XIVTED_clean_linker_0, # of connection points: 2
#     Edge 53, Type (0, 0), BuildingBlock: XIVTED_clean_linker_0, # of connection points: 2
#     Edge 54, Type (0, 0), BuildingBlock: XIVTED_clean_linker_0, # of connection points: 2
#     Edge 55, Type (0, 0), BuildingBlock: XIVTED_clean_linker_0, # of connection points: 2
#     Edge 56, Type (0, 0), BuildingBlock: XIVTED_clean_linker_0, # of connection points: 2
#     Edge 57, Type (0, 0), BuildingBlock: XIVTED_clean_linker_0, # of connection points: 2
#     Edge 58, Type (0, 0), BuildingBlock: XIVTED_clean_linker_0, # of connection points: 2
#     Edge 59, Type (0, 0), BuildingBlock: XIVTED_clean_linker_0, # of connection points: 2
#     Edge 60, Type (0, 0), BuildingBlock: XIVTED_clean_linker_0, # of connection points: 2
#     Edge 61, Type (0, 0), BuildingBlock: XIVTED_clean_linker_0, # of connection points: 2
#     Edge 62, Type (0, 0), BuildingBlock: XIVTED_clean_linker_0, # of connection points: 2
#     Edge 63, Type (0, 0), BuildingBlock: XIVTED_clean_linker_0, # of connection points: 2
#     Edge 64, Type (0, 0), BuildingBlock: XIVTED_clean_linker_0, # of connection points: 2
#     Edge 65, Type (0, 0), BuildingBlock: XIVTED_clean_linker_0, # of connection points: 2
#     Edge 66, Type (0, 0), BuildingBlock: XIVTED_clean_linker_0, # of connection points: 2
#     Edge 67, Type (0, 0), BuildingBlock: XIVTED_clean_linker_0, # of connection points: 2
#     Edge 68, Type (0, 0), BuildingBlock: XIVTED_clean_linker_0, # of connection points: 2
#     Edge 69, Type (0, 0), BuildingBlock: XIVTED_clean_linker_0, # of connection points: 2
#     Edge 70, Type (0, 0), BuildingBlock: XIVTED_clean_linker_0, # of connection points: 2
#     Edge 71, Type (0, 0), BuildingBlock: XIVTED_clean_linker_0, # of connection points: 2
# Relax obj value: 0.095
# Max RMSD: 0.124
# Mean RMSD: 0.124
data_MOF--net-cbo--node1-QUQFOY_clean_sbu_1--edge1-XIVTED_clean_linker_0
_symmetry_space_group_name_H-M    P1
_symmetry_Int_Tables_number       1
_symmetry_cell_setting            triclinic
loop_
_symmetry_equiv_pos_as_xyz
'x, y, z'
_cell_length_a     54.204427
_cell_length_b     54.173771
_cell_length_c     54.17625
_cell_angle_alpha  90.033581
_cell_angle_beta   90.008681
_cell_angle_gamma 89.982342
loop_
_atom_site_label
_atom_site_type_symbol
_atom_site_fract_x
_atom_site_fract_y
_atom_site_fract_z
_atom_type_partial_charge
O0 O 0.09423 0.17769 0.29014 0.0
Cd1 Cd 0.09777 0.14671 0.31191 0.0
Cd2 Cd 0.12238 0.1778 0.3404 0.0
O3 O 0.10997 0.20459 0.31619 0.0
O4 O 0.07226 0.12422 0.29814 0.0
O5 O 0.07074 0.13905 0.33616 0.0
C6 C 0.06051 0.12643 0.3187 0.0
C7 C 0.11562 0.1812 0.38269 0.0
C8 C 0.09967 0.19981 0.29566 0.0
C9 C 0.15164 0.13699 0.31715 0.0
O10 O 0.1524 0.15726 0.32899 0.0
O11 O 0.13104 0.12826 0.31002 0.0
O12 O 0.13159 0.19491 0.37158 0.0
O13 O 0.10302 0.16572 0.36964 0.0
O14 O 0.40383 0.81592 0.7868 0.0
Cd15 Cd 0.40178 0.84882 0.8058 0.0
Cd16 Cd 0.37549 0.82157 0.8366 0.0
O17 O 0.38544 0.79235 0.81426 0.0
O18 O 0.42859 0.8688 0.79064 0.0
O19 O 0.42873 0.85729 0.82981 0.0
C20 C 0.43981 0.86792 0.81159 0.0
C21 C 0.38384 0.82067 0.87861 0.0
C22 C 0.3965 0.79477 0.79375 0.0
C23 C 0.34848 0.86209 0.81063 0.0
O24 O 0.34664 0.84316 0.82438 0.0
O25 O 0.36943 0.86866 0.80233 0.0
O26 O 0.36648 0.80737 0.86918 0.0
O27 O 0.39673 0.83445 0.86406 0.0
O28 O 0.59413 0.32685 0.71586 0.0
Cd29 Cd 0.59727 0.35829 0.69473 0.0
Cd30 Cd 0.62153 0.32831 0.66494 0.0
O31 O 0.60972 0.30095 0.68872 0.0
O32 O 0.57084 0.38022 0.70768 0.0
O33 O 0.571 0.36539 0.6696 0.0
C34 C 0.5599 0.37779 0.68668 0.0
C35 C 0.61486 0.32454 0.6227 0.0
C36 C 0.5997 0.30497 0.70954 0.0
C37 C 0.65087 0.36866 0.689 0.0
O38 O 0.6515 0.34892 0.6763 0.0
O39 O 0.63039 0.37692 0.69697 0.0
O40 O 0.63109 0.31121 0.6339 0.0
O41 O 0.60206 0.33996 0.6356 0.0
O42 O 0.90498 0.68185 0.21758 0.0
Cd43 Cd 0.90404 0.65038 0.19631 0.0
Cd44 Cd 0.878 0.6788 0.16596 0.0
O45 O 0.88897 0.70672 0.18964 0.0
O46 O 0.93307 0.62975 0.20592 0.0
O47 O 0.9293 0.64826 0.16965 0.0
C48 C 0.94245 0.63534 0.18475 0.0
C49 C 0.88382 0.68183 0.12346 0.0
C50 C 0.89867 0.7034 0.21075 0.0
C51 C 0.8511 0.63703 0.19038 0.0
O52 O 0.84933 0.65684 0.17792 0.0
O53 O 0.87206 0.6297 0.19802 0.0
O54 O 0.86733 0.69491 0.1346 0.0
O55 O 0.89741 0.66733 0.13657 0.0
O56 O 0.28852 0.09676 0.19225 0.0
Cd57 Cd 0.3076 0.09954 0.15941 0.0
Cd58 Cd 0.33763 0.12639 0.18707 0.0
O59 O 0.31537 0.11577 0.21608 0.0
O60 O 0.29246 0.07314 0.13883 0.0
O61 O 0.33166 0.07277 0.15008 0.0
C62 C 0.31344 0.06196 0.13916 0.0
C63 C 0.37993 0.11954 0.18831 0.0
C64 C 0.29513 0.10426 0.21347 0.0
C65 C 0.31101 0.15325 0.14693 0.0
O66 O 0.32471 0.15523 0.16588 0.0
O67 O 0.30333 0.13214 0.14006 0.0
O68 O 0.36973 0.13643 0.20165 0.0
O69 O 0.36598 0.10618 0.17431 0.0
O70 O 0.21337 0.9029 0.68343 0.0
Cd71 Cd 0.19369 0.90054 0.65095 0.0
Cd72 Cd 0.16351 0.87435 0.67894 0.0
O73 O 0.18637 0.88464 0.70761 0.0
O74 O 0.20913 0.92655 0.63024 0.0
O75 O 0.17017 0.92795 0.64227 0.0
C76 C 0.18849 0.93833 0.63111 0.0
C77 C 0.12137 0.88162 0.68142 0.0
C78 C 0.20682 0.8957 0.70474 0.0
C79 C 0.18884 0.84709 0.63818 0.0
O80 O 0.17541 0.84535 0.65734 0.0
O81 O 0.19695 0.86803 0.63134 0.0
O82 O 0.13178 0.86454 0.69433 0.0
O83 O 0.13502 0.8949 0.66709 0.0
O84 O 0.78845 0.40413 0.81482 0.0
Cd85 Cd 0.80844 0.40051 0.84702 0.0
Cd86 Cd 0.83806 0.3754 0.81732 0.0
O87 O 0.81518 0.38727 0.7893 0.0
O88 O 0.79303 0.42581 0.86877 0.0
O89 O 0.83185 0.42784 0.85644 0.0
C90 C 0.81353 0.43782 0.86799 0.0
C91 C 0.88031 0.38236 0.81578 0.0
C92 C 0.79474 0.3981 0.79305 0.0
C93 C 0.81297 0.34639 0.85696 0.0
O94 O 0.8258 0.3455 0.83733 0.0
O95 O 0.8055 0.36707 0.86526 0.0
O96 O 0.86991 0.36613 0.80179 0.0
O97 O 0.86655 0.39508 0.83054 0.0
O98 O 0.71523 0.59568 0.31693 0.0
Cd99 Cd 0.69492 0.59858 0.34897 0.0
Cd100 Cd 0.66534 0.62443 0.31994 0.0
O101 O 0.68871 0.61352 0.29188 0.0
O102 O 0.70958 0.57257 0.37029 0.0
O103 O 0.67089 0.57156 0.35736 0.0
C104 C 0.68882 0.56104 0.36902 0.0
C105 C 0.62313 0.61756 0.31717 0.0
C106 C 0.70911 0.60249 0.29536 0.0
C107 C 0.68996 0.65223 0.36081 0.0
O108 O 0.67701 0.6537 0.3413 0.0
O109 O 0.69784 0.63138 0.3682 0.0
O110 O 0.63384 0.6342 0.30396 0.0
O111 O 0.63652 0.60438 0.33184 0.0
O112 O 0.18041 0.28517 0.10217 0.0
Cd113 Cd 0.14743 0.30411 0.10209 0.0
Cd114 Cd 0.17254 0.3348 0.13123 0.0
O115 O 0.20237 0.31243 0.123 0.0
O116 O 0.12921 0.2941 0.07165 0.0
O117 O 0.14421 0.33166 0.07775 0.0
C118 C 0.13324 0.31609 0.06342 0.0
C119 C 0.17512 0.37761 0.12814 0.0
C120 C 0.20088 0.29209 0.11133 0.0
C121 C 0.12989 0.30698 0.1539 0.0
O122 O 0.1482 0.32126 0.15712 0.0
O123 O 0.12495 0.2988 0.13245 0.0
O124 O 0.1849 0.36594 0.14643 0.0
O125 O 0.16447 0.36489 0.11104 0.0
O126 O 0.6855 0.21238 0.90068 0.0
Cd127 Cd 0.65119 0.19591 0.90048 0.0
Cd128 Cd 0.67458 0.16531 0.87013 0.0
O129 O 0.7058 0.18594 0.87736 0.0
O130 O 0.63453 0.21176 0.92908 0.0
O131 O 0.64233 0.17174 0.92735 0.0
C132 C 0.63401 0.19044 0.93959 0.0
C133 C 0.67424 0.12271 0.87491 0.0
C134 C 0.7054 0.20549 0.89036 0.0
C135 C 0.63297 0.19516 0.84864 0.0
O136 O 0.65042 0.18001 0.8447 0.0
O137 O 0.62904 0.20322 0.87033 0.0
O138 O 0.68434 0.13295 0.85595 0.0
O139 O 0.66486 0.13677 0.89175 0.0
O140 O 0.81631 0.78728 0.40646 0.0
Cd141 Cd 0.84886 0.80686 0.40445 0.0
Cd142 Cd 0.82144 0.83665 0.3771 0.0
O143 O 0.79263 0.81371 0.38672 0.0
O144 O 0.869 0.79163 0.43106 0.0
O145 O 0.85726 0.83071 0.43172 0.0
C146 C 0.8681 0.81245 0.44254 0.0
C147 C 0.81862 0.87883 0.38424 0.0
C148 C 0.79523 0.79354 0.39837 0.0
C149 C 0.86278 0.81091 0.35116 0.0
O150 O 0.84378 0.82449 0.34879 0.0
O151 O 0.86906 0.803 0.37235 0.0
O152 O 0.80623 0.86836 0.3668 0.0
O153 O 0.83265 0.86523 0.3979 0.0
O154 O 0.31829 0.71396 0.59618 0.0
Cd155 Cd 0.35079 0.69431 0.59879 0.0
Cd156 Cd 0.32254 0.66393 0.62443 0.0
O157 O 0.294 0.68695 0.61431 0.0
O158 O 0.37178 0.70969 0.57292 0.0
O159 O 0.35967 0.67074 0.57152 0.0
C160 C 0.37095 0.68901 0.56119 0.0
C161 C 0.32079 0.62213 0.61536 0.0
C162 C 0.29694 0.70741 0.60327 0.0
C163 C 0.36302 0.68874 0.65238 0.0
O164 O 0.34383 0.67531 0.65383 0.0
O165 O 0.37001 0.69711 0.6316 0.0
O166 O 0.30748 0.63158 0.63271 0.0
O167 O 0.33512 0.63655 0.60292 0.0
O168 O 0.90347 0.8146 0.71614 0.0
Cd169 Cd 0.90171 0.84764 0.69735 0.0
Cd170 Cd 0.87414 0.82134 0.66684 0.0
O171 O 0.88345 0.79184 0.68909 0.0
O172 O 0.92867 0.86729 0.71261 0.0
O173 O 0.92863 0.85632 0.67329 0.0
C174 C 0.93976 0.86681 0.69158 0.0
C175 C 0.88124 0.81963 0.6246 0.0
C176 C 0.89511 0.79378 0.70934 0.0
C177 C 0.84864 0.86228 0.69365 0.0
O178 O 0.84608 0.84373 0.67948 0.0
O179 O 0.86987 0.86802 0.70185 0.0
O180 O 0.86373 0.80707 0.63471 0.0
O181 O 0.89503 0.83314 0.63859 0.0
O182 O 0.59853 0.18367 0.21434 0.0
Cd183 Cd 0.60053 0.15116 0.19462 0.0
Cd184 Cd 0.62746 0.17889 0.1647 0.0
O185 O 0.61717 0.20768 0.18745 0.0
O186 O 0.57399 0.13097 0.20986 0.0
O187 O 0.57314 0.14296 0.17086 0.0
C188 C 0.56237 0.13209 0.18914 0.0
C189 C 0.62146 0.18193 0.12234 0.0
C190 C 0.60596 0.20492 0.20784 0.0
C191 C 0.65383 0.13776 0.1905 0.0
O192 O 0.65595 0.15695 0.17716 0.0
O193 O 0.63271 0.13105 0.19823 0.0
O194 O 0.63845 0.1944 0.1334 0.0
O195 O 0.60754 0.1677 0.13545 0.0
O196 O 0.40707 0.68929 0.28781 0.0
Cd197 Cd 0.40408 0.65679 0.30742 0.0
Cd198 Cd 0.37776 0.68518 0.33717 0.0
O199 O 0.3884 0.71371 0.31438 0.0
O200 O 0.43007 0.63574 0.29228 0.0
O201 O 0.43103 0.64765 0.33131 0.0
C202 C 0.44153 0.63638 0.31311 0.0
C203 C 0.38525 0.68707 0.37929 0.0
C204 C 0.39982 0.71068 0.29414 0.0
C205 C 0.35033 0.64479 0.31162 0.0
O206 O 0.34863 0.66402 0.32497 0.0
O207 O 0.3713 0.63764 0.30383 0.0
O208 O 0.36831 0.70037 0.36915 0.0
O209 O 0.39826 0.67271 0.36538 0.0
O210 O 0.10117 0.31436 0.79139 0.0
Cd211 Cd 0.1016 0.34871 0.80785 0.0
Cd212 Cd 0.13234 0.32484 0.83811 0.0
O213 O 0.12508 0.29382 0.81709 0.0
O214 O 0.07389 0.36564 0.79081 0.0
O215 O 0.07398 0.3584 0.83092 0.0
C216 C 0.06261 0.36671 0.81169 0.0
C217 C 0.12717 0.32505 0.88067 0.0
C218 C 0.1117 0.29441 0.79782 0.0
C219 C 0.15368 0.36661 0.80852 0.0
O220 O 0.15772 0.34909 0.82356 0.0
O221 O 0.13196 0.37058 0.80062 0.0
O222 O 0.14625 0.315 0.87057 0.0
O223 O 0.11046 0.33446 0.86649 0.0
O224 O 0.71613 0.90385 0.82473 0.0
Cd225 Cd 0.69423 0.90191 0.8557 0.0
Cd226 Cd 0.66437 0.87681 0.82586 0.0
O227 O 0.68872 0.88844 0.79891 0.0
O228 O 0.7029 0.93063 0.8772 0.0
O229 O 0.66717 0.92675 0.85768 0.0
C230 C 0.68177 0.93988 0.87119 0.0
C231 C 0.62203 0.88255 0.82108 0.0
C232 C 0.70973 0.8981 0.8029 0.0
C233 C 0.6879 0.84858 0.86736 0.0
O234 O 0.67569 0.8475 0.84734 0.0
O235 O 0.69559 0.86927 0.87542 0.0
O236 O 0.63379 0.86631 0.80824 0.0
O237 O 0.63442 0.89586 0.83646 0.0
O238 O 0.78663 0.09662 0.32007 0.0
Cd239 Cd 0.80579 0.09892 0.35285 0.0
Cd240 Cd 0.83675 0.12468 0.32532 0.0
O241 O 0.81425 0.1145 0.29628 0.0
O242 O 0.79081 0.07233 0.37328 0.0
O243 O 0.82985 0.072 0.3614 0.0
C244 C 0.81174 0.06106 0.37234 0.0
C245 C 0.87876 0.11631 0.32427 0.0
C246 C 0.79362 0.10367 0.29884 0.0
C247 C 0.81088 0.15239 0.36549 0.0
O248 O 0.82471 0.15389 0.34659 0.0
O249 O 0.80243 0.13156 0.3723 0.0
O250 O 0.86925 0.13351 0.31082 0.0
O251 O 0.86429 0.10358 0.33827 0.0
O252 O 0.21756 0.59978 0.18256 0.0
Cd253 Cd 0.19847 0.59944 0.14967 0.0
Cd254 Cd 0.16796 0.62858 0.17485 0.0
O255 O 0.19029 0.62042 0.20469 0.0
O256 O 0.209 0.56923 0.13139 0.0
O257 O 0.1714 0.57457 0.14656 0.0
C258 C 0.18721 0.56058 0.13548 0.0
C259 C 0.12525 0.6248 0.17704 0.0
C260 C 0.21067 0.60886 0.20309 0.0
C261 C 0.19536 0.65118 0.13197 0.0
O262 O 0.18141 0.65452 0.15052 0.0
O263 O 0.20333 0.62968 0.12695 0.0
O264 O 0.13652 0.64325 0.187 0.0
O265 O 0.13833 0.60793 0.16645 0.0
O266 O 0.28492 0.40586 0.67528 0.0
Cd267 Cd 0.30578 0.4031 0.6436 0.0
Cd268 Cd 0.33602 0.37892 0.67315 0.0
O269 O 0.3123 0.39013 0.7008 0.0
O270 O 0.2917 0.42901 0.62178 0.0
O271 O 0.32999 0.43006 0.63593 0.0
C272 C 0.31241 0.44055 0.62372 0.0
C273 C 0.37799 0.38706 0.67634 0.0
C274 C 0.29142 0.40009 0.69705 0.0
C275 C 0.31234 0.34958 0.63271 0.0
O276 O 0.3251 0.34886 0.65239 0.0
O277 O 0.30405 0.37006 0.62477 0.0
O278 O 0.36759 0.37035 0.68972 0.0
O279 O 0.36445 0.39943 0.66112 0.0
O280 O 0.81351 0.71143 0.90621 0.0
Cd281 Cd 0.84591 0.6917 0.90359 0.0
Cd282 Cd 0.81733 0.66196 0.87717 0.0
O283 O 0.78879 0.68485 0.88798 0.0
O284 O 0.86661 0.70758 0.92941 0.0
O285 O 0.85496 0.66852 0.93119 0.0
C286 C 0.86592 0.68706 0.9414 0.0
C287 C 0.8161 0.61972 0.8846 0.0
C288 C 0.79204 0.70519 0.89921 0.0
C289 C 0.85809 0.68725 0.84991 0.0
O290 O 0.83864 0.67425 0.84813 0.0
O291 O 0.86533 0.69485 0.87093 0.0
O292 O 0.80252 0.62972 0.86778 0.0
O293 O 0.83021 0.63385 0.89764 0.0
O294 O 0.32318 0.78754 0.09493 0.0
Cd295 Cd 0.35437 0.80905 0.09795 0.0
Cd296 Cd 0.32398 0.83811 0.12266 0.0
O297 O 0.29682 0.81415 0.11062 0.0
O298 O 0.37643 0.79504 0.07223 0.0
O299 O 0.36191 0.83318 0.07079 0.0
C300 C 0.37429 0.8156 0.06047 0.0
C301 C 0.32027 0.88044 0.11657 0.0
C302 C 0.3012 0.79345 0.10049 0.0
C303 C 0.36487 0.81464 0.15159 0.0
O304 O 0.34476 0.82671 0.15249 0.0
O305 O 0.37323 0.80719 0.13095 0.0
O306 O 0.30686 0.86901 0.13256 0.0
O307 O 0.33563 0.86768 0.10352 0.0
O308 O 0.18754 0.21237 0.59801 0.0
Cd309 Cd 0.15508 0.19289 0.60181 0.0
Cd310 Cd 0.18441 0.16232 0.62611 0.0
O311 O 0.21265 0.18492 0.61431 0.0
O312 O 0.13333 0.20777 0.57616 0.0
O313 O 0.14568 0.16888 0.57507 0.0
C314 C 0.13413 0.18694 0.56466 0.0
C315 C 0.18524 0.12023 0.61807 0.0
C316 C 0.20921 0.20557 0.60377 0.0
C317 C 0.14559 0.18778 0.65597 0.0
O318 O 0.16484 0.17438 0.65641 0.0
O319 O 0.13731 0.19589 0.63553 0.0
O320 O 0.19955 0.12997 0.63441 0.0
O321 O 0.17052 0.13452 0.60594 0.0
O322 O 0.68298 0.28758 0.40628 0.0
Cd323 Cd 0.65065 0.30742 0.40329 0.0
Cd324 Cd 0.67909 0.33707 0.37696 0.0
O325 O 0.70751 0.31413 0.38779 0.0
O326 O 0.62968 0.2933 0.42991 0.0
O327 O 0.64228 0.33213 0.42971 0.0
C328 C 0.63087 0.31441 0.44083 0.0
C329 C 0.68112 0.37929 0.38411 0.0
C330 C 0.70439 0.29385 0.39913 0.0
C331 C 0.63852 0.3115 0.34962 0.0
O332 O 0.65776 0.32482 0.34793 0.0
O333 O 0.63136 0.30373 0.37059 0.0
O334 O 0.6944 0.36894 0.36727 0.0
O335 O 0.66675 0.36553 0.39724 0.0
H336 H 0.13448 0.3216 0.20209 0.0
H337 H 0.07566 0.19657 0.25133 0.0
H338 H 0.09622 0.26915 0.15586 0.0
H339 H 0.1159 0.24784 0.29718 0.0
H340 H 0.07588 0.22682 0.21802 0.0
H341 H 0.12046 0.29913 0.23847 0.0
C342 C 0.12273 0.30562 0.19956 0.0
C343 C 0.11692 0.29699 0.1758 0.0
C344 C 0.08437 0.23161 0.23546 0.0
C345 C 0.10105 0.27097 0.2175 0.0
C346 C 0.08426 0.21433 0.25454 0.0
C347 C 0.09617 0.21948 0.27699 0.0
C348 C 0.09663 0.25421 0.23873 0.0
C349 C 0.10673 0.24294 0.28012 0.0
C350 C 0.11478 0.29275 0.2204 0.0
C351 C 0.1014 0.27635 0.17376 0.0
N352 N 0.10703 0.25929 0.26108 0.0
N353 N 0.09436 0.2638 0.19432 0.0
H354 H 0.37475 0.74913 0.79738 0.0
H355 H 0.40375 0.7184 0.65659 0.0
H356 H 0.4228 0.79228 0.75075 0.0
H357 H 0.34989 0.67932 0.70038 0.0
H358 H 0.41814 0.73928 0.69379 0.0
H359 H 0.37264 0.71758 0.76512 0.0
C360 C 0.38522 0.75178 0.78057 0.0
C361 C 0.39859 0.77362 0.77658 0.0
C362 C 0.40342 0.72586 0.69534 0.0
C363 C 0.39614 0.73767 0.73957 0.0
C364 C 0.39522 0.71386 0.67408 0.0
C365 C 0.37522 0.69745 0.67524 0.0
C366 C 0.39145 0.72156 0.71793 0.0
C367 C 0.36512 0.6921 0.69852 0.0
C368 C 0.38396 0.73379 0.76212 0.0
C369 C 0.41191 0.77595 0.75448 0.0
N370 N 0.37307 0.70443 0.71888 0.0
N371 N 0.41009 0.75838 0.7367 0.0
H372 H 0.61461 0.25671 0.70508 0.0
H373 H 0.59811 0.23194 0.849 0.0
H374 H 0.57844 0.30692 0.75535 0.0
H375 H 0.6378 0.18351 0.79966 0.0
H376 H 0.58313 0.25511 0.81338 0.0
H377 H 0.61575 0.22565 0.73775 0.0
C378 C 0.60655 0.26109 0.72284 0.0
C379 C 0.59682 0.28464 0.72759 0.0
C380 C 0.59481 0.23918 0.81032 0.0
C381 C 0.59824 0.24921 0.76513 0.0
C382 C 0.60331 0.22586 0.83068 0.0
C383 C 0.61965 0.20602 0.82738 0.0
C384 C 0.60279 0.23269 0.7865 0.0
C385 C 0.62555 0.19891 0.80314 0.0
C386 C 0.60725 0.24334 0.74152 0.0
C387 C 0.58648 0.28916 0.75093 0.0
N388 N 0.61745 0.21246 0.78367 0.0
N389 N 0.58775 0.27174 0.76891 0.0
H390 H 0.87929 0.75004 0.20647 0.0
H391 H 0.90225 0.77934 0.34887 0.0
H392 H 0.92178 0.70395 0.25566 0.0
H393 H 0.85207 0.82045 0.30257 0.0
H394 H 0.91719 0.75747 0.31245 0.0
H395 H 0.87668 0.78136 0.2389 0.0
C396 C 0.88843 0.74666 0.22393 0.0
C397 C 0.9004 0.72413 0.22849 0.0
C398 C 0.90316 0.77154 0.3102 0.0
C399 C 0.89739 0.75986 0.2657 0.0
C400 C 0.89467 0.78411 0.33101 0.0
C401 C 0.87551 0.80144 0.32889 0.0
C402 C 0.89238 0.77621 0.28709 0.0
C403 C 0.86662 0.80699 0.30517 0.0
C404 C 0.88687 0.76453 0.24246 0.0
C405 C 0.91202 0.72087 0.25143 0.0
N406 N 0.87485 0.79415 0.28525 0.0
N407 N 0.90998 0.73839 0.26925 0.0
H408 H 0.29786 0.12655 0.25894 0.0
H409 H 0.15724 0.09543 0.28877 0.0
H410 H 0.25243 0.07742 0.21566 0.0
H411 H 0.19915 0.15209 0.326 0.0
H412 H 0.19496 0.08148 0.26852 0.0
H413 H 0.26507 0.12883 0.28986 0.0
C414 C 0.2812 0.11586 0.25614 0.0
C415 C 0.27772 0.10213 0.23443 0.0
C416 C 0.19597 0.09673 0.2814 0.0
C417 C 0.24008 0.10479 0.26968 0.0
C418 C 0.17443 0.10469 0.29305 0.0
C419 C 0.1749 0.1253 0.30876 0.0
C420 C 0.21816 0.10952 0.2854 0.0
C421 C 0.19781 0.13635 0.31376 0.0
C422 C 0.26245 0.11725 0.27378 0.0
C423 C 0.25579 0.08856 0.2319 0.0
N424 N 0.21845 0.12856 0.30183 0.0
N425 N 0.2377 0.09049 0.24914 0.0
H426 H 0.345 0.90183 0.7795 0.0
H427 H 0.20334 0.87516 0.75096 0.0
H428 H 0.30029 0.85033 0.82068 0.0
H429 H 0.25046 0.92103 0.70599 0.0
H430 H 0.23591 0.87315 0.78213 0.0
H431 H 0.308 0.91633 0.75837 0.0
C432 C 0.32736 0.89385 0.78444 0.0
C433 C 0.32586 0.87446 0.80155 0.0
C434 C 0.23896 0.88396 0.7656 0.0
C435 C 0.28341 0.89082 0.77717 0.0
C436 C 0.22034 0.88517 0.74781 0.0
C437 C 0.22434 0.8979 0.7256 0.0
C438 C 0.26172 0.89554 0.76113 0.0
C439 C 0.2467 0.91065 0.72264 0.0
C440 C 0.30622 0.90211 0.77229 0.0
C441 C 0.30241 0.86507 0.80737 0.0
N442 N 0.26464 0.90888 0.74004 0.0
N443 N 0.28216 0.87306 0.79491 0.0
H444 H 0.75274 0.42605 0.79286 0.0
H445 H 0.6982 0.3553 0.67695 0.0
H446 H 0.79571 0.37713 0.74691 0.0
H447 H 0.65698 0.40771 0.72065 0.0
H448 H 0.73599 0.3686 0.69755 0.0
H449 H 0.7198 0.42517 0.76223 0.0
C450 C 0.75541 0.4154 0.77614 0.0
C451 C 0.77685 0.40129 0.77266 0.0
C452 C 0.71874 0.37749 0.70234 0.0
C453 C 0.73899 0.39995 0.73758 0.0
C454 C 0.69712 0.36992 0.69055 0.0
C455 C 0.67426 0.38004 0.69741 0.0
C456 C 0.71749 0.39516 0.72128 0.0
C457 C 0.67411 0.39911 0.71497 0.0
C458 C 0.73656 0.41491 0.75862 0.0
C459 C 0.7794 0.38811 0.75048 0.0
N460 N 0.69531 0.40575 0.72658 0.0
N461 N 0.7605 0.38741 0.73398 0.0
H462 H 0.80318 0.64758 0.17802 0.0
H463 H 0.75204 0.57592 0.29499 0.0
H464 H 0.84702 0.59834 0.22278 0.0
H465 H 0.70738 0.62349 0.24927 0.0
H466 H 0.78481 0.57783 0.26423 0.0
H467 H 0.76614 0.63288 0.19895 0.0
C468 C 0.80501 0.63334 0.19193 0.0
C469 C 0.82835 0.62455 0.19898 0.0
C470 C 0.76771 0.58757 0.26072 0.0
C471 C 0.78595 0.60784 0.22324 0.0
C472 C 0.74896 0.58649 0.2783 0.0
C473 C 0.72707 0.59994 0.27493 0.0
C474 C 0.76472 0.60242 0.23969 0.0
C475 C 0.72404 0.61304 0.25278 0.0
C476 C 0.78381 0.62498 0.20392 0.0
C477 C 0.82948 0.60591 0.21694 0.0
N478 N 0.74282 0.61429 0.23619 0.0
N479 N 0.80864 0.59849 0.22873 0.0
H480 H 0.28065 0.15636 0.10657 0.0
H481 H 0.24535 0.29624 0.13537 0.0
H482 H 0.31861 0.20155 0.16015 0.0
H483 H 0.20516 0.24906 0.08525 0.0
H484 H 0.2774 0.26461 0.13855 0.0
H485 H 0.25838 0.1928 0.09235 0.0
C486 C 0.28463 0.17401 0.11508 0.0
C487 C 0.30122 0.17577 0.13491 0.0
C488 C 0.26173 0.26134 0.12659 0.0
C489 C 0.27549 0.21759 0.11889 0.0
C490 C 0.24344 0.27942 0.12472 0.0
C491 C 0.2223 0.27513 0.11036 0.0
C492 C 0.25885 0.23881 0.11403 0.0
C493 C 0.22093 0.25304 0.09686 0.0
C494 C 0.27183 0.19484 0.10699 0.0
C495 C 0.30577 0.19923 0.14502 0.0
N496 N 0.23878 0.23561 0.09926 0.0
N497 N 0.29269 0.21914 0.13716 0.0
H498 H 0.78474 0.34078 0.89859 0.0
H499 H 0.74821 0.20289 0.86322 0.0
H500 H 0.8203 0.29896 0.84079 0.0
H501 H 0.7121 0.24595 0.91974 0.0
H502 H 0.78012 0.23469 0.8602 0.0
H503 H 0.76369 0.30332 0.91203 0.0
C504 C 0.78846 0.32365 0.88896 0.0
C505 C 0.80398 0.32316 0.86823 0.0
C506 C 0.76541 0.23698 0.87353 0.0
C507 C 0.77964 0.28018 0.88334 0.0
C508 C 0.74722 0.21878 0.87532 0.0
C509 C 0.72719 0.22195 0.89144 0.0
C510 C 0.76351 0.25851 0.88793 0.0
C511 C 0.72696 0.24289 0.90674 0.0
C512 C 0.77637 0.30224 0.89662 0.0
C513 C 0.80825 0.30032 0.85667 0.0
N514 N 0.74463 0.26049 0.90438 0.0
N515 N 0.79584 0.27984 0.86413 0.0
H516 H 0.79287 0.7511 0.42562 0.0
H517 H 0.67893 0.70019 0.34884 0.0
H518 H 0.75038 0.7955 0.3749 0.0
H519 H 0.72107 0.65652 0.40049 0.0
H520 H 0.69968 0.73722 0.36394 0.0
H521 H 0.76188 0.71865 0.42251 0.0
C522 C 0.77683 0.7542 0.41409 0.0
C523 C 0.77446 0.7759 0.40014 0.0
C524 C 0.70411 0.71959 0.37225 0.0
C525 C 0.73898 0.73861 0.39627 0.0
C526 C 0.69222 0.6984 0.36366 0.0
C527 C 0.6986 0.6751 0.37306 0.0
C528 C 0.72263 0.71746 0.39026 0.0
C529 C 0.71579 0.67402 0.39242 0.0
C530 C 0.75911 0.73562 0.41232 0.0
C531 C 0.75311 0.77897 0.38579 0.0
N532 N 0.72747 0.69484 0.4001 0.0
N533 N 0.7364 0.76036 0.3839 0.0
H534 H 0.17786 0.79893 0.64935 0.0
H535 H 0.29528 0.75028 0.57666 0.0
H536 H 0.22091 0.84346 0.59924 0.0
H537 H 0.25119 0.70464 0.6248 0.0
H538 H 0.26372 0.78228 0.57877 0.0
H539 H 0.19956 0.76226 0.63464 0.0
C540 C 0.19154 0.80097 0.63492 0.0
C541 C 0.19791 0.82442 0.62589 0.0
C542 C 0.26074 0.76513 0.5886 0.0
C543 C 0.22303 0.7825 0.60917 0.0
C544 C 0.27879 0.74683 0.58741 0.0
C545 C 0.2761 0.72491 0.60094 0.0
C546 C 0.23994 0.76166 0.60366 0.0
C547 C 0.25417 0.72136 0.61427 0.0
C548 C 0.20397 0.78 0.62656 0.0
C549 C 0.21562 0.82584 0.60703 0.0
N550 N 0.23712 0.73972 0.61563 0.0
N551 N 0.22783 0.80524 0.5996 0.0
H552 H 0.89904 0.71674 0.84643 0.0
H553 H 0.87222 0.74871 0.70543 0.0
H554 H 0.84512 0.67876 0.80168 0.0
H555 H 0.92096 0.79054 0.75261 0.0
H556 H 0.86892 0.71726 0.73762 0.0
H557 H 0.91404 0.73781 0.80959 0.0
C558 C 0.89061 0.71249 0.82881 0.0
C559 C 0.87045 0.69629 0.82727 0.0
C560 C 0.88064 0.73314 0.74076 0.0
C561 C 0.8874 0.72061 0.78499 0.0
C562 C 0.88259 0.75109 0.72235 0.0
C563 C 0.89653 0.77254 0.72649 0.0
C564 C 0.89269 0.73669 0.76346 0.0
C565 C 0.90968 0.77451 0.74874 0.0
C566 C 0.89915 0.7246 0.80775 0.0
C567 C 0.86048 0.69136 0.80384 0.0
N568 N 0.90718 0.757 0.76649 0.0
N569 N 0.86879 0.70376 0.78369 0.0
H570 H 0.62688 0.25097 0.20448 0.0
H571 H 0.59873 0.28048 0.34582 0.0
H572 H 0.58039 0.20638 0.25135 0.0
H573 H 0.65105 0.32105 0.3015 0.0
H574 H 0.58467 0.25908 0.30876 0.0
H575 H 0.6288 0.28223 0.23701 0.0
C576 C 0.61672 0.24793 0.22142 0.0
C577 C 0.60382 0.2258 0.22536 0.0
C578 C 0.59899 0.27293 0.30707 0.0
C579 C 0.60608 0.26144 0.2627 0.0
C580 C 0.60698 0.28523 0.32825 0.0
C581 C 0.62646 0.30225 0.32689 0.0
C582 C 0.61061 0.27757 0.28437 0.0
C583 C 0.63623 0.3078 0.30352 0.0
C584 C 0.61788 0.26576 0.24002 0.0
C585 C 0.5909 0.22297 0.24764 0.0
N586 N 0.62847 0.29522 0.28325 0.0
N587 N 0.59261 0.24041 0.26556 0.0
H588 H 0.42749 0.71238 0.25196 0.0
H589 H 0.35153 0.82571 0.19918 0.0
H590 H 0.37721 0.75598 0.29578 0.0
H591 H 0.40512 0.78447 0.15698 0.0
H592 H 0.36614 0.80541 0.23665 0.0
H593 H 0.42511 0.74324 0.21931 0.0
C594 C 0.41623 0.72864 0.25489 0.0
C595 C 0.40217 0.73136 0.27647 0.0
C596 C 0.37499 0.8011 0.21926 0.0
C597 C 0.3991 0.76668 0.23896 0.0
C598 C 0.36667 0.81272 0.19782 0.0
C599 C 0.37677 0.80643 0.17479 0.0
C600 C 0.3934 0.78292 0.21764 0.0
C601 C 0.39652 0.78966 0.17425 0.0
C602 C 0.41488 0.74629 0.23621 0.0
C603 C 0.38817 0.75298 0.27935 0.0
N604 N 0.4039 0.77819 0.19529 0.0
N605 N 0.38664 0.7696 0.26061 0.0
H606 H 0.16133 0.17815 0.70314 0.0
H607 H 0.08041 0.28745 0.75891 0.0
H608 H 0.10538 0.21785 0.6626 0.0
H609 H 0.1403 0.25245 0.79808 0.0
H610 H 0.08352 0.25605 0.72685 0.0
H611 H 0.14812 0.19899 0.74088 0.0
C612 C 0.14598 0.19091 0.7022 0.0
C613 C 0.13474 0.19656 0.67951 0.0
C614 C 0.09578 0.255 0.74261 0.0
C615 C 0.11965 0.22062 0.72272 0.0
C616 C 0.094 0.27293 0.76098 0.0
C617 C 0.11042 0.27286 0.78103 0.0
C618 C 0.11426 0.2369 0.74412 0.0
C619 C 0.12741 0.25337 0.78284 0.0
C620 C 0.13849 0.20286 0.72379 0.0
C621 C 0.11482 0.21312 0.67956 0.0
N622 N 0.12915 0.23639 0.7644 0.0
N623 N 0.10814 0.22479 0.70075 0.0
H624 H 0.75435 0.92173 0.80356 0.0
H625 H 0.80007 0.85377 0.68214 0.0
H626 H 0.70642 0.87952 0.75589 0.0
H627 H 0.84667 0.89955 0.72781 0.0
H628 H 0.76409 0.86885 0.70465 0.0
H629 H 0.78658 0.91961 0.77223 0.0
C630 C 0.75047 0.91228 0.78636 0.0
C631 C 0.72778 0.90041 0.78254 0.0
C632 C 0.78214 0.87591 0.70949 0.0
C633 C 0.76476 0.89769 0.74663 0.0
C634 C 0.80273 0.86734 0.69659 0.0
C635 C 0.82652 0.87502 0.7034 0.0
C636 C 0.78537 0.89214 0.72947 0.0
C637 C 0.82875 0.89282 0.72213 0.0
C638 C 0.76891 0.9111 0.76844 0.0
C639 C 0.72372 0.88873 0.75975 0.0
N640 N 0.80849 0.90045 0.73476 0.0
N641 N 0.74218 0.88732 0.74282 0.0
H642 H 0.65671 0.09788 0.22153 0.0
H643 H 0.79795 0.12422 0.25269 0.0
H644 H 0.70222 0.14949 0.18136 0.0
H645 H 0.74986 0.0786 0.29686 0.0
H646 H 0.76591 0.12639 0.22098 0.0
H647 H 0.69331 0.08333 0.24335 0.0
C648 C 0.67445 0.10587 0.21695 0.0
C649 C 0.67628 0.1253 0.19992 0.0
C650 C 0.76252 0.1156 0.23745 0.0
C651 C 0.71826 0.10889 0.22509 0.0
C652 C 0.78084 0.1143 0.25555 0.0
C653 C 0.77642 0.10158 0.2777 0.0
C654 C 0.73964 0.10412 0.24153 0.0
C655 C 0.75395 0.08896 0.28028 0.0
C656 C 0.69535 0.09759 0.22949 0.0
C657 C 0.69984 0.13471 0.19459 0.0
N658 N 0.73631 0.09081 0.26258 0.0
N659 N 0.71984 0.12669 0.20742 0.0
H660 H 0.34666 0.60384 0.28209 0.0
H661 H 0.20683 0.63315 0.24748 0.0
H662 H 0.30223 0.65844 0.3195 0.0
H663 H 0.25352 0.58255 0.20732 0.0
H664 H 0.23861 0.63635 0.27938 0.0
H665 H 0.30993 0.58948 0.26041 0.0
C666 C 0.32911 0.61256 0.28608 0.0
C667 C 0.32765 0.63271 0.30231 0.0
C668 C 0.24174 0.62428 0.26375 0.0
C669 C 0.28551 0.61653 0.27726 0.0
C670 C 0.22356 0.62239 0.24555 0.0
C671 C 0.22769 0.6079 0.22445 0.0
C672 C 0.26417 0.61159 0.26082 0.0
C673 C 0.24968 0.59427 0.22305 0.0
C674 C 0.30813 0.60437 0.27362 0.0
C675 C 0.30432 0.64306 0.30692 0.0
N676 N 0.26719 0.59669 0.24081 0.0
N677 N 0.28425 0.63511 0.29415 0.0
H678 H 0.29644 0.38492 0.74515 0.0
H679 H 0.15298 0.4018 0.77209 0.0
H680 H 0.24553 0.42121 0.69574 0.0
H681 H 0.20279 0.36145 0.81944 0.0
H682 H 0.18831 0.41673 0.7485 0.0
H683 H 0.2642 0.38368 0.77664 0.0
C684 C 0.27862 0.39297 0.74103 0.0
C685 C 0.27357 0.40278 0.71758 0.0
C686 C 0.19154 0.40492 0.76429 0.0
C687 C 0.23652 0.40128 0.75352 0.0
C688 C 0.17135 0.39644 0.77785 0.0
C689 C 0.17485 0.37993 0.7975 0.0
C690 C 0.2154 0.39674 0.77034 0.0
C691 C 0.19915 0.37383 0.8042 0.0
C692 C 0.26019 0.39222 0.75902 0.0
C693 C 0.25018 0.41312 0.71341 0.0
N694 N 0.21845 0.38192 0.79041 0.0
N695 N 0.23244 0.41181 0.73107 0.0
H696 H 0.7909 0.74706 0.92737 0.0
H697 H 0.67565 0.80105 0.85491 0.0
H698 H 0.74652 0.70426 0.8769 0.0
H699 H 0.71956 0.84304 0.9065 0.0
H700 H 0.69624 0.76344 0.86868 0.0
H701 H 0.76023 0.77992 0.92589 0.0
C702 C 0.77451 0.7444 0.91624 0.0
C703 C 0.77151 0.72302 0.90189 0.0
C704 C 0.70109 0.78081 0.87729 0.0
C705 C 0.73636 0.76082 0.89989 0.0
C706 C 0.68929 0.80234 0.86947 0.0
C707 C 0.69621 0.82536 0.87921 0.0
C708 C 0.72008 0.7823 0.89486 0.0
C709 C 0.71382 0.82579 0.89821 0.0
C710 C 0.75697 0.76322 0.9154 0.0
C711 C 0.74973 0.72051 0.88808 0.0
N712 N 0.72543 0.80464 0.90511 0.0
N713 N 0.73318 0.73937 0.8871 0.0
H714 H 0.23116 0.65248 0.09611 0.0
H715 H 0.25303 0.79652 0.116 0.0
H716 H 0.18247 0.69971 0.13798 0.0
H717 H 0.30386 0.74821 0.07811 0.0
H718 H 0.22268 0.76316 0.11663 0.0
H719 H 0.25319 0.68901 0.08158 0.0
C720 C 0.22476 0.67053 0.10186 0.0
C721 C 0.20522 0.67296 0.1187 0.0
C722 C 0.24035 0.75997 0.10786 0.0
C723 C 0.23061 0.71487 0.10239 0.0
C724 C 0.25769 0.77905 0.10746 0.0
C725 C 0.28122 0.77504 0.0974 0.0
C726 C 0.2466 0.73671 0.0982 0.0
C727 C 0.28611 0.75205 0.08643 0.0
C728 C 0.23743 0.69141 0.09364 0.0
C729 C 0.19768 0.69689 0.12534 0.0
N730 N 0.26909 0.73368 0.08741 0.0
N731 N 0.21062 0.71687 0.11748 0.0
H732 H 0.28294 0.34384 0.59194 0.0
H733 H 0.25579 0.20281 0.62352 0.0
H734 H 0.32272 0.30208 0.64694 0.0
H735 H 0.20977 0.24845 0.57719 0.0
H736 H 0.2867 0.23571 0.62432 0.0
H737 H 0.26279 0.30592 0.57842 0.0
C738 C 0.2878 0.32664 0.6009 0.0
C739 C 0.30417 0.32627 0.62098 0.0
C740 C 0.27 0.23834 0.61366 0.0
C741 C 0.28092 0.28278 0.60571 0.0
C742 C 0.25238 0.21953 0.61312 0.0
C743 C 0.22994 0.22307 0.60066 0.0
C744 C 0.26516 0.26078 0.6016 0.0
C745 C 0.22661 0.24508 0.5874 0.0
C746 C 0.27621 0.30498 0.5932 0.0
C747 C 0.30994 0.30334 0.63163 0.0
N748 N 0.24386 0.2632 0.58848 0.0
N749 N 0.29802 0.28257 0.62414 0.0
H750 H 0.7056 0.25132 0.42629 0.0
H751 H 0.82259 0.20036 0.35422 0.0
H752 H 0.75014 0.29575 0.37745 0.0
H753 H 0.77823 0.15665 0.40391 0.0
H754 H 0.80127 0.2374 0.36852 0.0
H755 H 0.73665 0.21881 0.42437 0.0
C756 C 0.72209 0.2544 0.41543 0.0
C757 C 0.72504 0.27614 0.40165 0.0
C758 C 0.79647 0.21976 0.37659 0.0
C759 C 0.76061 0.23878 0.39913 0.0
C760 C 0.80869 0.19856 0.36847 0.0
C761 C 0.80187 0.17525 0.37752 0.0
C762 C 0.77719 0.21763 0.39378 0.0
C763 C 0.78388 0.17416 0.39613 0.0
C764 C 0.73984 0.2358 0.41434 0.0
C765 C 0.74696 0.2792 0.38817 0.0
N766 N 0.77191 0.19498 0.40335 0.0
N767 N 0.76371 0.26056 0.38692 0.0
H768 H 0.12928 0.14523 0.5361 0.0
H769 H 0.12529 0.22053 0.41238 0.0
H770 H 0.11798 0.2241 0.53482 0.0
H771 H 0.10006 0.14505 0.41449 0.0
H772 H 0.12445 0.22168 0.45746 0.0
H773 H 0.11976 0.14373 0.49182 0.0
C774 C 0.12442 0.16215 0.52663 0.0
C775 C 0.12461 0.18485 0.53914 0.0
C776 C 0.1188 0.20495 0.44808 0.0
C777 C 0.11422 0.1833 0.48859 0.0
C778 C 0.11938 0.20426 0.42237 0.0
C779 C 0.1128 0.18265 0.40975 0.0
C780 C 0.11219 0.18368 0.46132 0.0
C781 C 0.1052 0.1621 0.42358 0.0
C782 C 0.11898 0.16127 0.50139 0.0
C783 C 0.11815 0.2062 0.52594 0.0
N784 N 0.10548 0.16297 0.4487 0.0
N785 N 0.11364 0.20495 0.50132 0.0
H786 H 0.39262 0.77888 0.03141 0.0
H787 H 0.40129 0.85812 0.90778 0.0
H788 H 0.37573 0.85679 0.03079 0.0
H789 H 0.37604 0.78266 0.91031 0.0
H790 H 0.40448 0.858 0.95315 0.0
H791 H 0.40009 0.78057 0.98703 0.0
C792 C 0.39095 0.79647 0.02206 0.0
C793 C 0.3832 0.81768 0.03478 0.0
C794 C 0.39853 0.84145 0.94363 0.0
C795 C 0.39183 0.81964 0.98402 0.0
C796 C 0.3968 0.84145 0.91787 0.0
C797 C 0.38822 0.82041 0.90544 0.0
C798 C 0.39227 0.82005 0.95679 0.0
C799 C 0.38251 0.79932 0.91926 0.0
C800 C 0.39511 0.79735 0.99672 0.0
C801 C 0.38143 0.83996 0.02164 0.0
N802 N 0.38469 0.79965 0.94421 0.0
N803 N 0.38555 0.84035 0.99685 0.0
H804 H 0.62698 0.35686 0.46842 0.0
H805 H 0.62438 0.28466 0.59378 0.0
H806 H 0.61471 0.27819 0.47173 0.0
H807 H 0.5989 0.36003 0.59036 0.0
H808 H 0.62291 0.28252 0.54877 0.0
H809 H 0.61808 0.35954 0.51278 0.0
C810 C 0.62204 0.34024 0.47836 0.0
C811 C 0.6218 0.31724 0.46641 0.0
C812 C 0.61735 0.29944 0.55785 0.0
C813 C 0.61209 0.32014 0.51699 0.0
C814 C 0.6183 0.30071 0.58351 0.0
C815 C 0.61182 0.32257 0.59572 0.0
C816 C 0.61048 0.32039 0.54425 0.0
C817 C 0.60397 0.34281 0.58157 0.0
C818 C 0.61694 0.3418 0.50362 0.0
C819 C 0.61524 0.2963 0.48018 0.0
N820 N 0.6039 0.34138 0.55648 0.0
N821 N 0.61106 0.29819 0.5048 0.0
H822 H 0.90168 0.64605 0.09258 0.0
H823 H 0.88029 0.72543 0.97057 0.0
H824 H 0.87121 0.71964 0.09282 0.0
H825 H 0.87167 0.64619 0.97097 0.0
H826 H 0.88898 0.7243 0.01476 0.0
H827 H 0.90198 0.64688 0.04719 0.0
C828 C 0.8954 0.66248 0.08308 0.0
C829 C 0.88626 0.68277 0.09637 0.0
C830 C 0.88549 0.70715 0.00508 0.0
C831 C 0.88692 0.68391 0.04485 0.0
C832 C 0.88066 0.70772 0.97984 0.0
C833 C 0.87499 0.68587 0.9671 0.0
C834 C 0.88501 0.68456 0.01765 0.0
C835 C 0.87575 0.66348 0.98013 0.0
C836 C 0.89548 0.66287 0.05728 0.0
C837 C 0.87821 0.70355 0.08324 0.0
N838 N 0.88055 0.66339 0.0048 0.0
N839 N 0.87878 0.70361 0.05818 0.0
H840 H 0.41111 0.12954 0.22625 0.0
H841 H 0.53268 0.12902 0.148 0.0
H842 H 0.41004 0.10254 0.15134 0.0
H843 H 0.53289 0.11645 0.2267 0.0
H844 H 0.48804 0.12116 0.1475 0.0
H845 H 0.45612 0.12738 0.22597 0.0
C846 C 0.42039 0.123 0.20979 0.0
C847 C 0.40692 0.11625 0.18878 0.0
C848 C 0.49803 0.11973 0.16475 0.0
C849 C 0.45838 0.11413 0.18817 0.0
C850 C 0.52345 0.12423 0.16507 0.0
C851 C 0.53649 0.12361 0.18746 0.0
C852 C 0.48563 0.11511 0.18703 0.0
C853 C 0.52361 0.11728 0.20903 0.0
C854 C 0.44605 0.12166 0.20967 0.0
C855 C 0.41983 0.10782 0.16794 0.0
N856 N 0.49885 0.1137 0.20834 0.0
N857 N 0.44495 0.10737 0.16799 0.0
H858 H 0.96996 0.8824 0.72864 0.0
H859 H 0.0903 0.89907 0.64548 0.0
H860 H 0.96816 0.87133 0.64972 0.0
H861 H 0.09134 0.87188 0.7203 0.0
H862 H 0.04491 0.90059 0.64727 0.0
H863 H 0.01404 0.89104 0.72599 0.0
C864 C 0.97872 0.88218 0.71067 0.0
C865 C 0.96541 0.87581 0.68938 0.0
C866 C 0.0552 0.89457 0.66331 0.0
C867 C 0.01586 0.88576 0.68633 0.0
C868 C 0.08099 0.8938 0.66237 0.0
C869 C 0.09445 0.88516 0.68273 0.0
C870 C 0.04304 0.88723 0.68497 0.0
C871 C 0.08159 0.87843 0.70413 0.0
C872 C 0.0039 0.88702 0.70923 0.0
C873 C 0.97779 0.87592 0.66661 0.0
N874 N 0.0566 0.87964 0.70471 0.0
N875 N 0.00244 0.88066 0.66567 0.0
H876 H 0.0331 0.37992 0.77322 0.0
H877 H 0.91058 0.39923 0.85271 0.0
H878 H 0.03293 0.37251 0.85258 0.0
H879 H 0.91145 0.37212 0.77783 0.0
H880 H 0.95599 0.40005 0.85234 0.0
H881 H 0.98896 0.38836 0.77431 0.0
C882 C 0.02387 0.3804 0.79094 0.0
C883 C 0.0367 0.3752 0.81284 0.0
C884 C 0.94613 0.39417 0.83597 0.0
C885 C 0.98608 0.38489 0.81412 0.0
C886 C 0.92032 0.39381 0.83611 0.0
C887 C 0.90734 0.38544 0.81531 0.0
C888 C 0.95886 0.38662 0.8147 0.0
C889 C 0.92077 0.3785 0.79432 0.0
C890 C 0.99864 0.38513 0.7915 0.0
C891 C 0.0237 0.37622 0.83525 0.0
N892 N 0.94578 0.37927 0.79454 0.0
N893 N 0.999 0.38082 0.83532 0.0
H894 H 0.47042 0.63185 0.35463 0.0
H895 H 0.59309 0.62732 0.27825 0.0
H896 H 0.47089 0.61965 0.27587 0.0
H897 H 0.59186 0.6016 0.35357 0.0
H898 H 0.54804 0.62641 0.27761 0.0
H899 H 0.51463 0.62202 0.35579 0.0
C900 C 0.4797 0.62674 0.33768 0.0
C901 C 0.467 0.6268 0.31509 0.0
C902 C 0.5576 0.62065 0.29419 0.0
C903 C 0.51742 0.61602 0.31626 0.0
C904 C 0.58328 0.62127 0.29459 0.0
C905 C 0.59612 0.61458 0.31601 0.0
C906 C 0.54463 0.61392 0.31557 0.0
C907 C 0.58257 0.60681 0.33667 0.0
C908 C 0.50488 0.62111 0.33837 0.0
C909 C 0.47993 0.61999 0.29369 0.0
N910 N 0.55745 0.60709 0.33611 0.0
N911 N 0.50449 0.61529 0.29474 0.0
H912 H 0.17392 0.40873 0.16735 0.0
H913 H 0.20797 0.53069 0.10039 0.0
H914 H 0.17618 0.40814 0.08776 0.0
H915 H 0.15425 0.53101 0.15915 0.0
H916 H 0.20253 0.48579 0.09635 0.0
H917 H 0.17342 0.45393 0.16659 0.0
C918 C 0.17443 0.41816 0.14972 0.0
C919 C 0.17516 0.4048 0.12758 0.0
C920 C 0.1917 0.49586 0.10981 0.0
C921 C 0.17491 0.45627 0.12665 0.0
C922 C 0.19479 0.52136 0.11216 0.0
C923 C 0.18153 0.5345 0.13013 0.0
C924 C 0.17588 0.48347 0.1261 0.0
C925 C 0.16473 0.52158 0.14498 0.0
C926 C 0.17394 0.44386 0.14932 0.0
C927 C 0.17558 0.41786 0.10521 0.0
N928 N 0.16275 0.49666 0.14299 0.0
N929 N 0.17583 0.443 0.10529 0.0
H930 H 0.70218 0.96972 0.90671 0.0
H931 H 0.66982 0.09046 0.83696 0.0
H932 H 0.64863 0.96946 0.84774 0.0
H933 H 0.67493 0.09351 0.91636 0.0
H934 H 0.66753 0.04543 0.83921 0.0
H935 H 0.69713 0.01469 0.91033 0.0
C936 C 0.68907 0.97904 0.89485 0.0
C937 C 0.67588 0.96589 0.87682 0.0
C938 C 0.669 0.05598 0.85614 0.0
C939 C 0.67063 0.01703 0.88043 0.0
C940 C 0.67051 0.0816 0.85487 0.0
C941 C 0.67263 0.09561 0.87651 0.0
C942 C 0.67034 0.04424 0.87915 0.0
C943 C 0.67325 0.08326 0.89928 0.0
C944 C 0.6862 0.00461 0.89696 0.0
C945 C 0.65915 0.97885 0.8619 0.0
N946 N 0.67251 0.05813 0.90003 0.0
N947 N 0.65739 0.00379 0.86368 0.0
H948 H 0.85364 0.03279 0.37689 0.0
H949 H 0.77984 0.90866 0.37346 0.0
H950 H 0.77466 0.03042 0.38694 0.0
H951 H 0.85384 0.91011 0.40273 0.0
H952 H 0.77834 0.95365 0.37608 0.0
H953 H 0.85539 0.9882 0.38486 0.0
C954 C 0.83675 0.023 0.38116 0.0
C955 C 0.81394 0.03529 0.38103 0.0
C956 C 0.79482 0.94413 0.38221 0.0
C957 C 0.8158 0.98447 0.38965 0.0
C958 C 0.79572 0.9185 0.3806 0.0
C959 C 0.81702 0.90575 0.38783 0.0
C960 C 0.81559 0.95719 0.3905 0.0
C961 C 0.83706 0.91934 0.39705 0.0
C962 C 0.83778 0.99761 0.38573 0.0
C963 C 0.79263 0.02171 0.38672 0.0
N964 N 0.83603 0.94444 0.39774 0.0
N965 N 0.79403 0.99697 0.39036 0.0
H966 H 0.2759 0.47024 0.60598 0.0
H967 H 0.3576 0.59239 0.59753 0.0
H968 H 0.35403 0.46946 0.62157 0.0
H969 H 0.28203 0.5912 0.62246 0.0
H970 H 0.35649 0.54709 0.59374 0.0
H971 H 0.27829 0.5146 0.59848 0.0
C972 C 0.29367 0.47928 0.60735 0.0
C973 C 0.31476 0.46619 0.61476 0.0
C974 C 0.34013 0.55689 0.59974 0.0
C975 C 0.31752 0.5169 0.60612 0.0
C976 C 0.3407 0.58262 0.60181 0.0
C977 C 0.31992 0.5954 0.61051 0.0
C978 C 0.31844 0.54413 0.6058 0.0
C979 C 0.2985 0.58197 0.61592 0.0
C980 C 0.29496 0.50461 0.60318 0.0
C981 C 0.33729 0.47892 0.61615 0.0
N982 N 0.2983 0.55705 0.61345 0.0
N983 N 0.33807 0.50369 0.61205 0.0
H984 H 0.88365 0.77502 0.47227 0.0
H985 H 0.89952 0.85581 0.59433 0.0
H986 H 0.87208 0.85389 0.4717 0.0
H987 H 0.87068 0.7816 0.5937 0.0
H988 H 0.90135 0.85484 0.54889 0.0
H989 H 0.89167 0.77698 0.51654 0.0
C990 C 0.88322 0.79284 0.48134 0.0
C991 C 0.87688 0.81431 0.46831 0.0
C992 C 0.89489 0.83875 0.55883 0.0
C993 C 0.88613 0.81657 0.51897 0.0
C994 C 0.89395 0.83923 0.58464 0.0
C995 C 0.88478 0.81879 0.59765 0.0
C996 C 0.88723 0.81746 0.54619 0.0
C997 C 0.87766 0.7978 0.58431 0.0
C998 C 0.88769 0.79389 0.50663 0.0
C999 C 0.87668 0.83687 0.4811 0.0
N1000 N 0.87909 0.79765 0.55931 0.0
N1001 N 0.88109 0.83742 0.50584 0.0
H1002 H 0.6281 0.14826 0.96731 0.0
H1003 H 0.63388 0.22062 0.09307 0.0
H1004 H 0.62271 0.22768 0.97141 0.0
H1005 H 0.60305 0.14726 0.09028 0.0
H1006 H 0.6323 0.22256 0.04809 0.0
H1007 H 0.62066 0.14611 0.01201 0.0
C1008 C 0.62503 0.16519 0.97751 0.0
C1009 C 0.62624 0.1882 0.96565 0.0
C1010 C 0.62563 0.20612 0.0573 0.0
C1011 C 0.61816 0.18586 0.01656 0.0
C1012 C 0.62664 0.20497 0.08294 0.0
C1013 C 0.61863 0.18374 0.09533 0.0
C1014 C 0.61711 0.18567 0.04385 0.0
C1015 C 0.60932 0.164 0.08134 0.0
C1016 C 0.62075 0.16393 0.00296 0.0
C1017 C 0.62208 0.20954 0.97975 0.0
N1018 N 0.60915 0.16528 0.05624 0.0
N1019 N 0.6186 0.20787 0.00449 0.0
H1020 H 0.376 0.72552 0.41009 0.0
H1021 H 0.37504 0.64781 0.53179 0.0
H1022 H 0.40228 0.65036 0.40964 0.0
H1023 H 0.38733 0.72655 0.53206 0.0
H1024 H 0.38389 0.64717 0.48735 0.0
H1025 H 0.37828 0.72566 0.45512 0.0
C1026 C 0.38244 0.7091 0.41952 0.0
C1027 C 0.38888 0.68787 0.40623 0.0
C1028 C 0.38506 0.66447 0.49731 0.0
C1029 C 0.39115 0.68774 0.45769 0.0
C1030 C 0.37999 0.66487 0.52262 0.0
C1031 C 0.3802 0.68731 0.53558 0.0
C1032 C 0.38985 0.68672 0.48493 0.0
C1033 C 0.38679 0.70885 0.5228 0.0
C1034 C 0.38386 0.70922 0.44518 0.0
C1035 C 0.39721 0.66711 0.4193 0.0
N1036 N 0.39092 0.70809 0.49811 0.0
N1037 N 0.39771 0.66739 0.44442 0.0
H1038 H 0.1557 0.35095 0.03503 0.0
H1039 H 0.08553 0.32269 0.90942 0.0
H1040 H 0.09939 0.29471 0.0325 0.0
H1041 H 0.16458 0.33091 0.91333 0.0
H1042 H 0.08381 0.32373 0.95495 0.0
H1043 H 0.1519 0.356 0.99023 0.0
C1044 C 0.14213 0.34009 0.02515 0.0
C1045 C 0.12795 0.32225 0.03741 0.0
C1046 C 0.10143 0.32547 0.94568 0.0
C1047 C 0.12342 0.32815 0.98643 0.0
C1048 C 0.10243 0.32493 0.91986 0.0
C1049 C 0.12526 0.3265 0.90777 0.0
C1050 C 0.12331 0.32847 0.95921 0.0
C1051 C 0.14666 0.32937 0.92202 0.0
C1052 C 0.14012 0.34288 0.99963 0.0
C1053 C 0.11078 0.30853 0.02366 0.0
N1054 N 0.14516 0.33044 0.947 0.0
N1055 N 0.10899 0.31173 0.99881 0.0
H1056 H 0.59326 0.86985 0.78187 0.0
H1057 H 0.46749 0.87388 0.85366 0.0
H1058 H 0.5895 0.90064 0.85523 0.0
H1059 H 0.4711 0.88059 0.77434 0.0
H1060 H 0.51201 0.88191 0.85578 0.0
H1061 H 0.54824 0.87123 0.77946 0.0
C1062 C 0.58293 0.87705 0.79741 0.0
C1063 C 0.59504 0.88508 0.8188 0.0
C1064 C 0.5029 0.882 0.83798 0.0
C1065 C 0.54362 0.88637 0.81632 0.0
C1066 C 0.47755 0.8774 0.83675 0.0
C1067 C 0.46562 0.8764 0.81378 0.0
C1068 C 0.51637 0.88507 0.81606 0.0
C1069 C 0.47953 0.88112 0.79245 0.0
C1070 C 0.55728 0.87794 0.79598 0.0
C1071 C 0.58081 0.89433 0.83838 0.0
N1072 N 0.50424 0.88484 0.79407 0.0
N1073 N 0.55575 0.89438 0.83684 0.0
H1074 H 0.90808 0.09923 0.36176 0.0
H1075 H 0.03147 0.10776 0.28214 0.0
H1076 H 0.91034 0.12384 0.28609 0.0
H1077 H 0.03092 0.12505 0.35995 0.0
H1078 H 0.98714 0.10014 0.28396 0.0
H1079 H 0.95343 0.09616 0.36154 0.0
C1080 C 0.9181 0.1036 0.34503 0.0
C1081 C 0.90559 0.11197 0.32395 0.0
C1082 C 0.99684 0.10523 0.30069 0.0
C1083 C 0.95694 0.10806 0.32347 0.0
C1084 C 0.02215 0.10947 0.29974 0.0
C1085 C 0.03487 0.11738 0.32088 0.0
C1086 C 0.98417 0.10859 0.32299 0.0
C1087 C 0.02177 0.11922 0.34318 0.0
C1088 C 0.94386 0.10194 0.34496 0.0
C1089 C 0.91934 0.11753 0.30277 0.0
N1090 N 0.99701 0.11502 0.34364 0.0
N1091 N 0.94429 0.11542 0.30305 0.0
H1092 H 0.09528 0.58398 0.17752 0.0
H1093 H 0.97248 0.65904 0.15225 0.0
H1094 H 0.09367 0.66357 0.17531 0.0
H1095 H 0.97186 0.59955 0.20521 0.0
H1096 H 0.01725 0.65447 0.14842 0.0
H1097 H 0.04975 0.58368 0.17675 0.0
C1098 C 0.08534 0.60132 0.17678 0.0
C1099 C 0.0981 0.62385 0.17669 0.0
C1100 C 0.00718 0.6422 0.16056 0.0
C1101 C 0.04666 0.62354 0.17497 0.0
C1102 C 0.98167 0.64465 0.16264 0.0
C1103 C 0.96851 0.62975 0.17921 0.0
C1104 C 0.01949 0.62439 0.1747 0.0
C1105 C 0.9814 0.6115 0.19236 0.0
C1106 C 0.05952 0.60111 0.17636 0.0
C1107 C 0.08448 0.64583 0.17568 0.0
N1108 N 0.00629 0.60931 0.18985 0.0
N1109 N 0.05948 0.64513 0.17462 0.0
H1110 H 0.40737 0.3795 0.71624 0.0
H1111 H 0.53229 0.37928 0.64413 0.0
H1112 H 0.40948 0.40367 0.64043 0.0
H1113 H 0.52877 0.39517 0.72215 0.0
H1114 H 0.48771 0.38677 0.64121 0.0
H1115 H 0.45226 0.38302 0.71821 0.0
C1116 C 0.41732 0.38572 0.70006 0.0
C1117 C 0.4048 0.39124 0.67812 0.0
C1118 C 0.49686 0.38904 0.65883 0.0
C1119 C 0.45612 0.39492 0.68011 0.0
C1120 C 0.52225 0.38475 0.66053 0.0
C1121 C 0.53421 0.38637 0.68346 0.0
C1122 C 0.48339 0.39444 0.68031 0.0
C1123 C 0.52032 0.39357 0.70412 0.0
C1124 C 0.44289 0.38785 0.70123 0.0
C1125 C 0.41853 0.39932 0.6577 0.0
N1126 N 0.49558 0.39689 0.70213 0.0
N1127 N 0.44358 0.40052 0.65903 0.0
H1128 H 0.85358 0.59006 0.90119 0.0
H1129 H 0.77568 0.46608 0.88525 0.0
H1130 H 0.77835 0.58802 0.8753 0.0
H1131 H 0.8542 0.46802 0.87198 0.0
H1132 H 0.77653 0.51021 0.89426 0.0
H1133 H 0.85384 0.5446 0.90232 0.0
C1134 C 0.83703 0.58005 0.89614 0.0
C1135 C 0.81595 0.5927 0.88799 0.0
C1136 C 0.79362 0.50088 0.8897 0.0
C1137 C 0.81603 0.54115 0.8896 0.0
C1138 C 0.79321 0.47566 0.88467 0.0
C1139 C 0.81488 0.46338 0.87755 0.0
C1140 C 0.81588 0.51391 0.88792 0.0
C1141 C 0.83703 0.47682 0.87718 0.0
C1142 C 0.83725 0.55422 0.89668 0.0
C1143 C 0.79504 0.57894 0.8815 0.0
N1144 N 0.83697 0.50147 0.88214 0.0
N1145 N 0.79559 0.55391 0.88249 0.0
H1146 H 0.28077 0.90959 0.12682 0.0
H1147 H 0.35531 0.03373 0.13378 0.0
H1148 H 0.35621 0.91279 0.10171 0.0
H1149 H 0.27642 0.03202 0.12298 0.0
H1150 H 0.3571 0.98966 0.12327 0.0
H1151 H 0.27937 0.95465 0.1272 0.0
C1152 C 0.29698 0.91983 0.12117 0.0
C1153 C 0.31865 0.90752 0.11428 0.0
C1154 C 0.33949 0.99911 0.12284 0.0
C1155 C 0.31734 0.95906 0.11509 0.0
C1156 C 0.33845 0.02421 0.12886 0.0
C1157 C 0.31566 0.03652 0.12947 0.0
C1158 C 0.31755 0.98624 0.11788 0.0
C1159 C 0.29438 0.02328 0.12289 0.0
C1160 C 0.29615 0.94552 0.1213 0.0
C1161 C 0.33912 0.92165 0.10706 0.0
N1162 N 0.2958 0.9988 0.11776 0.0
N1163 N 0.33812 0.94675 0.10803 0.0
H1164 H 0.226 0.96691 0.61372 0.0
H1165 H 0.14733 0.09088 0.60194 0.0
H1166 H 0.14766 0.9684 0.62816 0.0
H1167 H 0.22331 0.08846 0.62555 0.0
H1168 H 0.14717 0.04548 0.59973 0.0
H1169 H 0.22485 0.01113 0.60538 0.0
C1170 C 0.20845 0.97642 0.61472 0.0
C1171 C 0.18693 0.96399 0.62198 0.0
C1172 C 0.16389 0.05501 0.60511 0.0
C1173 C 0.18559 0.01461 0.61239 0.0
C1174 C 0.16405 0.08081 0.60628 0.0
C1175 C 0.18533 0.09331 0.61412 0.0
C1176 C 0.18534 0.04185 0.61126 0.0
C1177 C 0.20647 0.07948 0.61965 0.0
C1178 C 0.20787 0.00168 0.61005 0.0
C1179 C 0.16472 0.97733 0.62285 0.0
N1180 N 0.20595 0.05449 0.61808 0.0
N1181 N 0.16463 0.00204 0.61829 0.0
H1182 H 0.64448 0.40984 0.40094 0.0
H1183 H 0.72581 0.53162 0.38616 0.0
H1184 H 0.71964 0.40996 0.37478 0.0
H1185 H 0.64733 0.53198 0.37244 0.0
H1186 H 0.72366 0.48747 0.3948 0.0
H1187 H 0.6455 0.45527 0.40245 0.0
C1188 C 0.66127 0.41942 0.39589 0.0
C1189 C 0.68197 0.40626 0.38756 0.0
C1190 C 0.70688 0.49732 0.39022 0.0
C1191 C 0.68334 0.45774 0.38964 0.0
C1192 C 0.70802 0.52254 0.3854 0.0
C1193 C 0.68674 0.53546 0.37826 0.0
C1194 C 0.68426 0.48495 0.38821 0.0
C1195 C 0.66421 0.52266 0.37766 0.0
C1196 C 0.66179 0.44523 0.39666 0.0
C1197 C 0.70324 0.41946 0.3811 0.0
N1198 N 0.66356 0.498 0.38241 0.0
N1199 N 0.7034 0.44448 0.38232 0.0
loop_
_geom_bond_atom_site_label_1
_geom_bond_atom_site_label_2
_geom_bond_distance
_geom_bond_site_symmetry_2
_ccdc_geom_bond_type
O0 Cd1 2.223 . S
O0 C8 1.315 . S
Cd1 O0 2.223 . S
Cd1 O4 2.297 . S
Cd1 O5 2.439 . S
Cd1 O11 2.240 . S
Cd2 O3 2.240 . S
Cd2 O10 2.223 . S
Cd2 O12 2.297 . S
Cd2 O13 2.439 . S
O3 Cd2 2.240 . S
O3 C8 1.279 . S
O4 Cd1 2.297 . S
O4 C6 1.247 . S
O5 Cd1 2.439 . S
O5 C6 1.208 . S
C6 O4 1.247 . S
C6 O5 1.208 . S
C7 O12 1.247 . S
C7 O13 1.208 . S
C8 O0 1.315 . S
C8 O3 1.279 . S
C9 O10 1.315 . S
C9 O11 1.279 . S
O10 Cd2 2.223 . S
O10 C9 1.315 . S
O11 Cd1 2.240 . S
O11 C9 1.279 . S
O12 Cd2 2.297 . S
O12 C7 1.247 . S
O13 Cd2 2.439 . S
O13 C7 1.208 . S
O14 Cd15 2.223 . S
O14 C22 1.315 . S
Cd15 O14 2.223 . S
Cd15 O18 2.297 . S
Cd15 O19 2.439 . S
Cd15 O25 2.240 . S
Cd16 O17 2.240 . S
Cd16 O24 2.223 . S
Cd16 O26 2.297 . S
Cd16 O27 2.439 . S
O17 Cd16 2.240 . S
O17 C22 1.279 . S
O18 Cd15 2.297 . S
O18 C20 1.247 . S
O19 Cd15 2.439 . S
O19 C20 1.208 . S
C20 O18 1.247 . S
C20 O19 1.208 . S
C21 O26 1.247 . S
C21 O27 1.208 . S
C22 O14 1.315 . S
C22 O17 1.279 . S
C23 O24 1.315 . S
C23 O25 1.279 . S
O24 Cd16 2.223 . S
O24 C23 1.315 . S
O25 Cd15 2.240 . S
O25 C23 1.279 . S
O26 Cd16 2.297 . S
O26 C21 1.247 . S
O27 Cd16 2.439 . S
O27 C21 1.208 . S
O28 Cd29 2.223 . S
O28 C36 1.315 . S
Cd29 O28 2.223 . S
Cd29 O32 2.297 . S
Cd29 O33 2.439 . S
Cd29 O39 2.240 . S
Cd30 O31 2.240 . S
Cd30 O38 2.223 . S
Cd30 O40 2.297 . S
Cd30 O41 2.439 . S
O31 Cd30 2.240 . S
O31 C36 1.279 . S
O32 Cd29 2.297 . S
O32 C34 1.247 . S
O33 Cd29 2.439 . S
O33 C34 1.208 . S
C34 O32 1.247 . S
C34 O33 1.208 . S
C35 O40 1.247 . S
C35 O41 1.208 . S
C36 O28 1.315 . S
C36 O31 1.279 . S
C37 O38 1.315 . S
C37 O39 1.279 . S
O38 Cd30 2.223 . S
O38 C37 1.315 . S
O39 Cd29 2.240 . S
O39 C37 1.279 . S
O40 Cd30 2.297 . S
O40 C35 1.247 . S
O41 Cd30 2.439 . S
O41 C35 1.208 . S
O42 Cd43 2.223 . S
O42 C50 1.315 . S
Cd43 O42 2.223 . S
Cd43 O46 2.297 . S
Cd43 O47 2.439 . S
Cd43 O53 2.240 . S
Cd44 O45 2.240 . S
Cd44 O52 2.223 . S
Cd44 O54 2.297 . S
Cd44 O55 2.439 . S
O45 Cd44 2.240 . S
O45 C50 1.279 . S
O46 Cd43 2.297 . S
O46 C48 1.247 . S
O47 Cd43 2.439 . S
O47 C48 1.208 . S
C48 O46 1.247 . S
C48 O47 1.208 . S
C49 O54 1.247 . S
C49 O55 1.208 . S
C50 O42 1.315 . S
C50 O45 1.279 . S
C51 O52 1.315 . S
C51 O53 1.279 . S
O52 Cd44 2.223 . S
O52 C51 1.315 . S
O53 Cd43 2.240 . S
O53 C51 1.279 . S
O54 Cd44 2.297 . S
O54 C49 1.247 . S
O55 Cd44 2.439 . S
O55 C49 1.208 . S
O56 Cd57 2.223 . S
O56 C64 1.315 . S
Cd57 O56 2.223 . S
Cd57 O60 2.297 . S
Cd57 O61 2.439 . S
Cd57 O67 2.240 . S
Cd58 O59 2.240 . S
Cd58 O66 2.223 . S
Cd58 O68 2.297 . S
Cd58 O69 2.439 . S
O59 Cd58 2.240 . S
O59 C64 1.279 . S
O60 Cd57 2.297 . S
O60 C62 1.247 . S
O61 Cd57 2.439 . S
O61 C62 1.208 . S
C62 O60 1.247 . S
C62 O61 1.208 . S
C63 O68 1.247 . S
C63 O69 1.208 . S
C64 O56 1.315 . S
C64 O59 1.279 . S
C65 O66 1.315 . S
C65 O67 1.279 . S
O66 Cd58 2.223 . S
O66 C65 1.315 . S
O67 Cd57 2.240 . S
O67 C65 1.279 . S
O68 Cd58 2.297 . S
O68 C63 1.247 . S
O69 Cd58 2.439 . S
O69 C63 1.208 . S
O70 Cd71 2.223 . S
O70 C78 1.315 . S
Cd71 O70 2.223 . S
Cd71 O74 2.297 . S
Cd71 O75 2.439 . S
Cd71 O81 2.240 . S
Cd72 O73 2.240 . S
Cd72 O80 2.223 . S
Cd72 O82 2.297 . S
Cd72 O83 2.439 . S
O73 Cd72 2.240 . S
O73 C78 1.279 . S
O74 Cd71 2.297 . S
O74 C76 1.247 . S
O75 Cd71 2.439 . S
O75 C76 1.208 . S
C76 O74 1.247 . S
C76 O75 1.208 . S
C77 O82 1.247 . S
C77 O83 1.208 . S
C78 O70 1.315 . S
C78 O73 1.279 . S
C79 O80 1.315 . S
C79 O81 1.279 . S
O80 Cd72 2.223 . S
O80 C79 1.315 . S
O81 Cd71 2.240 . S
O81 C79 1.279 . S
O82 Cd72 2.297 . S
O82 C77 1.247 . S
O83 Cd72 2.439 . S
O83 C77 1.208 . S
O84 Cd85 2.223 . S
O84 C92 1.315 . S
Cd85 O84 2.223 . S
Cd85 O88 2.297 . S
Cd85 O89 2.439 . S
Cd85 O95 2.240 . S
Cd86 O87 2.240 . S
Cd86 O94 2.223 . S
Cd86 O96 2.297 . S
Cd86 O97 2.439 . S
O87 Cd86 2.240 . S
O87 C92 1.279 . S
O88 Cd85 2.297 . S
O88 C90 1.247 . S
O89 Cd85 2.439 . S
O89 C90 1.208 . S
C90 O88 1.247 . S
C90 O89 1.208 . S
C91 O96 1.247 . S
C91 O97 1.208 . S
C92 O84 1.315 . S
C92 O87 1.279 . S
C93 O94 1.315 . S
C93 O95 1.279 . S
O94 Cd86 2.223 . S
O94 C93 1.315 . S
O95 Cd85 2.240 . S
O95 C93 1.279 . S
O96 Cd86 2.297 . S
O96 C91 1.247 . S
O97 Cd86 2.439 . S
O97 C91 1.208 . S
O98 Cd99 2.223 . S
O98 C106 1.315 . S
Cd99 O98 2.223 . S
Cd99 O102 2.297 . S
Cd99 O103 2.439 . S
Cd99 O109 2.240 . S
Cd100 O101 2.240 . S
Cd100 O108 2.223 . S
Cd100 O110 2.297 . S
Cd100 O111 2.439 . S
O101 Cd100 2.240 . S
O101 C106 1.279 . S
O102 Cd99 2.297 . S
O102 C104 1.247 . S
O103 Cd99 2.439 . S
O103 C104 1.208 . S
C104 O102 1.247 . S
C104 O103 1.208 . S
C105 O110 1.247 . S
C105 O111 1.208 . S
C106 O98 1.315 . S
C106 O101 1.279 . S
C107 O108 1.315 . S
C107 O109 1.279 . S
O108 Cd100 2.223 . S
O108 C107 1.315 . S
O109 Cd99 2.240 . S
O109 C107 1.279 . S
O110 Cd100 2.297 . S
O110 C105 1.247 . S
O111 Cd100 2.439 . S
O111 C105 1.208 . S
O112 Cd113 2.223 . S
O112 C120 1.315 . S
Cd113 O112 2.223 . S
Cd113 O116 2.297 . S
Cd113 O117 2.439 . S
Cd113 O123 2.240 . S
Cd114 O115 2.240 . S
Cd114 O122 2.223 . S
Cd114 O124 2.297 . S
Cd114 O125 2.439 . S
O115 Cd114 2.240 . S
O115 C120 1.279 . S
O116 Cd113 2.297 . S
O116 C118 1.247 . S
O117 Cd113 2.439 . S
O117 C118 1.208 . S
C118 O116 1.247 . S
C118 O117 1.208 . S
C119 O124 1.247 . S
C119 O125 1.208 . S
C120 O112 1.315 . S
C120 O115 1.279 . S
C121 O122 1.315 . S
C121 O123 1.279 . S
O122 Cd114 2.223 . S
O122 C121 1.315 . S
O123 Cd113 2.240 . S
O123 C121 1.279 . S
O124 Cd114 2.297 . S
O124 C119 1.247 . S
O125 Cd114 2.439 . S
O125 C119 1.208 . S
O126 Cd127 2.223 . S
O126 C134 1.315 . S
Cd127 O126 2.223 . S
Cd127 O130 2.297 . S
Cd127 O131 2.439 . S
Cd127 O137 2.240 . S
Cd128 O129 2.240 . S
Cd128 O136 2.223 . S
Cd128 O138 2.297 . S
Cd128 O139 2.439 . S
O129 Cd128 2.240 . S
O129 C134 1.279 . S
O130 Cd127 2.297 . S
O130 C132 1.247 . S
O131 Cd127 2.439 . S
O131 C132 1.208 . S
C132 O130 1.247 . S
C132 O131 1.208 . S
C133 O138 1.247 . S
C133 O139 1.208 . S
C134 O126 1.315 . S
C134 O129 1.279 . S
C135 O136 1.315 . S
C135 O137 1.279 . S
O136 Cd128 2.223 . S
O136 C135 1.315 . S
O137 Cd127 2.240 . S
O137 C135 1.279 . S
O138 Cd128 2.297 . S
O138 C133 1.247 . S
O139 Cd128 2.439 . S
O139 C133 1.208 . S
O140 Cd141 2.223 . S
O140 C148 1.315 . S
Cd141 O140 2.223 . S
Cd141 O144 2.297 . S
Cd141 O145 2.439 . S
Cd141 O151 2.240 . S
Cd142 O143 2.240 . S
Cd142 O150 2.223 . S
Cd142 O152 2.297 . S
Cd142 O153 2.439 . S
O143 Cd142 2.240 . S
O143 C148 1.279 . S
O144 Cd141 2.297 . S
O144 C146 1.247 . S
O145 Cd141 2.439 . S
O145 C146 1.208 . S
C146 O144 1.247 . S
C146 O145 1.208 . S
C147 O152 1.247 . S
C147 O153 1.208 . S
C148 O140 1.315 . S
C148 O143 1.279 . S
C149 O150 1.315 . S
C149 O151 1.279 . S
O150 Cd142 2.223 . S
O150 C149 1.315 . S
O151 Cd141 2.240 . S
O151 C149 1.279 . S
O152 Cd142 2.297 . S
O152 C147 1.247 . S
O153 Cd142 2.439 . S
O153 C147 1.208 . S
O154 Cd155 2.223 . S
O154 C162 1.315 . S
Cd155 O154 2.223 . S
Cd155 O158 2.297 . S
Cd155 O159 2.439 . S
Cd155 O165 2.240 . S
Cd156 O157 2.240 . S
Cd156 O164 2.223 . S
Cd156 O166 2.297 . S
Cd156 O167 2.439 . S
O157 Cd156 2.240 . S
O157 C162 1.279 . S
O158 Cd155 2.297 . S
O158 C160 1.247 . S
O159 Cd155 2.439 . S
O159 C160 1.208 . S
C160 O158 1.247 . S
C160 O159 1.208 . S
C161 O166 1.247 . S
C161 O167 1.208 . S
C162 O154 1.315 . S
C162 O157 1.279 . S
C163 O164 1.315 . S
C163 O165 1.279 . S
O164 Cd156 2.223 . S
O164 C163 1.315 . S
O165 Cd155 2.240 . S
O165 C163 1.279 . S
O166 Cd156 2.297 . S
O166 C161 1.247 . S
O167 Cd156 2.439 . S
O167 C161 1.208 . S
O168 Cd169 2.223 . S
O168 C176 1.315 . S
Cd169 O168 2.223 . S
Cd169 O172 2.297 . S
Cd169 O173 2.439 . S
Cd169 O179 2.240 . S
Cd170 O171 2.240 . S
Cd170 O178 2.223 . S
Cd170 O180 2.297 . S
Cd170 O181 2.439 . S
O171 Cd170 2.240 . S
O171 C176 1.279 . S
O172 Cd169 2.297 . S
O172 C174 1.247 . S
O173 Cd169 2.439 . S
O173 C174 1.208 . S
C174 O172 1.247 . S
C174 O173 1.208 . S
C175 O180 1.247 . S
C175 O181 1.208 . S
C176 O168 1.315 . S
C176 O171 1.279 . S
C177 O178 1.315 . S
C177 O179 1.279 . S
O178 Cd170 2.223 . S
O178 C177 1.315 . S
O179 Cd169 2.240 . S
O179 C177 1.279 . S
O180 Cd170 2.297 . S
O180 C175 1.247 . S
O181 Cd170 2.439 . S
O181 C175 1.208 . S
O182 Cd183 2.223 . S
O182 C190 1.315 . S
Cd183 O182 2.223 . S
Cd183 O186 2.297 . S
Cd183 O187 2.439 . S
Cd183 O193 2.240 . S
Cd184 O185 2.240 . S
Cd184 O192 2.223 . S
Cd184 O194 2.297 . S
Cd184 O195 2.439 . S
O185 Cd184 2.240 . S
O185 C190 1.279 . S
O186 Cd183 2.297 . S
O186 C188 1.247 . S
O187 Cd183 2.439 . S
O187 C188 1.208 . S
C188 O186 1.247 . S
C188 O187 1.208 . S
C189 O194 1.247 . S
C189 O195 1.208 . S
C190 O182 1.315 . S
C190 O185 1.279 . S
C191 O192 1.315 . S
C191 O193 1.279 . S
O192 Cd184 2.223 . S
O192 C191 1.315 . S
O193 Cd183 2.240 . S
O193 C191 1.279 . S
O194 Cd184 2.297 . S
O194 C189 1.247 . S
O195 Cd184 2.439 . S
O195 C189 1.208 . S
O196 Cd197 2.223 . S
O196 C204 1.315 . S
Cd197 O196 2.223 . S
Cd197 O200 2.297 . S
Cd197 O201 2.439 . S
Cd197 O207 2.240 . S
Cd198 O199 2.240 . S
Cd198 O206 2.223 . S
Cd198 O208 2.297 . S
Cd198 O209 2.439 . S
O199 Cd198 2.240 . S
O199 C204 1.279 . S
O200 Cd197 2.297 . S
O200 C202 1.247 . S
O201 Cd197 2.439 . S
O201 C202 1.208 . S
C202 O200 1.247 . S
C202 O201 1.208 . S
C203 O208 1.247 . S
C203 O209 1.208 . S
C204 O196 1.315 . S
C204 O199 1.279 . S
C205 O206 1.315 . S
C205 O207 1.279 . S
O206 Cd198 2.223 . S
O206 C205 1.315 . S
O207 Cd197 2.240 . S
O207 C205 1.279 . S
O208 Cd198 2.297 . S
O208 C203 1.247 . S
O209 Cd198 2.439 . S
O209 C203 1.208 . S
O210 Cd211 2.223 . S
O210 C218 1.315 . S
Cd211 O210 2.223 . S
Cd211 O214 2.297 . S
Cd211 O215 2.439 . S
Cd211 O221 2.240 . S
Cd212 O213 2.240 . S
Cd212 O220 2.223 . S
Cd212 O222 2.297 . S
Cd212 O223 2.439 . S
O213 Cd212 2.240 . S
O213 C218 1.279 . S
O214 Cd211 2.297 . S
O214 C216 1.247 . S
O215 Cd211 2.439 . S
O215 C216 1.208 . S
C216 O214 1.247 . S
C216 O215 1.208 . S
C217 O222 1.247 . S
C217 O223 1.208 . S
C218 O210 1.315 . S
C218 O213 1.279 . S
C219 O220 1.315 . S
C219 O221 1.279 . S
O220 Cd212 2.223 . S
O220 C219 1.315 . S
O221 Cd211 2.240 . S
O221 C219 1.279 . S
O222 Cd212 2.297 . S
O222 C217 1.247 . S
O223 Cd212 2.439 . S
O223 C217 1.208 . S
O224 Cd225 2.223 . S
O224 C232 1.315 . S
Cd225 O224 2.223 . S
Cd225 O228 2.297 . S
Cd225 O229 2.439 . S
Cd225 O235 2.240 . S
Cd226 O227 2.240 . S
Cd226 O234 2.223 . S
Cd226 O236 2.297 . S
Cd226 O237 2.439 . S
O227 Cd226 2.240 . S
O227 C232 1.279 . S
O228 Cd225 2.297 . S
O228 C230 1.247 . S
O229 Cd225 2.439 . S
O229 C230 1.208 . S
C230 O228 1.247 . S
C230 O229 1.208 . S
C231 O236 1.247 . S
C231 O237 1.208 . S
C232 O224 1.315 . S
C232 O227 1.279 . S
C233 O234 1.315 . S
C233 O235 1.279 . S
O234 Cd226 2.223 . S
O234 C233 1.315 . S
O235 Cd225 2.240 . S
O235 C233 1.279 . S
O236 Cd226 2.297 . S
O236 C231 1.247 . S
O237 Cd226 2.439 . S
O237 C231 1.208 . S
O238 Cd239 2.223 . S
O238 C246 1.315 . S
Cd239 O238 2.223 . S
Cd239 O242 2.297 . S
Cd239 O243 2.439 . S
Cd239 O249 2.240 . S
Cd240 O241 2.240 . S
Cd240 O248 2.223 . S
Cd240 O250 2.297 . S
Cd240 O251 2.439 . S
O241 Cd240 2.240 . S
O241 C246 1.279 . S
O242 Cd239 2.297 . S
O242 C244 1.247 . S
O243 Cd239 2.439 . S
O243 C244 1.208 . S
C244 O242 1.247 . S
C244 O243 1.208 . S
C245 O250 1.247 . S
C245 O251 1.208 . S
C246 O238 1.315 . S
C246 O241 1.279 . S
C247 O248 1.315 . S
C247 O249 1.279 . S
O248 Cd240 2.223 . S
O248 C247 1.315 . S
O249 Cd239 2.240 . S
O249 C247 1.279 . S
O250 Cd240 2.297 . S
O250 C245 1.247 . S
O251 Cd240 2.439 . S
O251 C245 1.208 . S
O252 Cd253 2.223 . S
O252 C260 1.315 . S
Cd253 O252 2.223 . S
Cd253 O256 2.297 . S
Cd253 O257 2.439 . S
Cd253 O263 2.240 . S
Cd254 O255 2.240 . S
Cd254 O262 2.223 . S
Cd254 O264 2.297 . S
Cd254 O265 2.439 . S
O255 Cd254 2.240 . S
O255 C260 1.279 . S
O256 Cd253 2.297 . S
O256 C258 1.247 . S
O257 Cd253 2.439 . S
O257 C258 1.208 . S
C258 O256 1.247 . S
C258 O257 1.208 . S
C259 O264 1.247 . S
C259 O265 1.208 . S
C260 O252 1.315 . S
C260 O255 1.279 . S
C261 O262 1.315 . S
C261 O263 1.279 . S
O262 Cd254 2.223 . S
O262 C261 1.315 . S
O263 Cd253 2.240 . S
O263 C261 1.279 . S
O264 Cd254 2.297 . S
O264 C259 1.247 . S
O265 Cd254 2.439 . S
O265 C259 1.208 . S
O266 Cd267 2.223 . S
O266 C274 1.315 . S
Cd267 O266 2.223 . S
Cd267 O270 2.297 . S
Cd267 O271 2.439 . S
Cd267 O277 2.240 . S
Cd268 O269 2.240 . S
Cd268 O276 2.223 . S
Cd268 O278 2.297 . S
Cd268 O279 2.439 . S
O269 Cd268 2.240 . S
O269 C274 1.279 . S
O270 Cd267 2.297 . S
O270 C272 1.247 . S
O271 Cd267 2.439 . S
O271 C272 1.208 . S
C272 O270 1.247 . S
C272 O271 1.208 . S
C273 O278 1.247 . S
C273 O279 1.208 . S
C274 O266 1.315 . S
C274 O269 1.279 . S
C275 O276 1.315 . S
C275 O277 1.279 . S
O276 Cd268 2.223 . S
O276 C275 1.315 . S
O277 Cd267 2.240 . S
O277 C275 1.279 . S
O278 Cd268 2.297 . S
O278 C273 1.247 . S
O279 Cd268 2.439 . S
O279 C273 1.208 . S
O280 Cd281 2.223 . S
O280 C288 1.315 . S
Cd281 O280 2.223 . S
Cd281 O284 2.297 . S
Cd281 O285 2.439 . S
Cd281 O291 2.240 . S
Cd282 O283 2.240 . S
Cd282 O290 2.223 . S
Cd282 O292 2.297 . S
Cd282 O293 2.439 . S
O283 Cd282 2.240 . S
O283 C288 1.279 . S
O284 Cd281 2.297 . S
O284 C286 1.247 . S
O285 Cd281 2.439 . S
O285 C286 1.208 . S
C286 O284 1.247 . S
C286 O285 1.208 . S
C287 O292 1.247 . S
C287 O293 1.208 . S
C288 O280 1.315 . S
C288 O283 1.279 . S
C289 O290 1.315 . S
C289 O291 1.279 . S
O290 Cd282 2.223 . S
O290 C289 1.315 . S
O291 Cd281 2.240 . S
O291 C289 1.279 . S
O292 Cd282 2.297 . S
O292 C287 1.247 . S
O293 Cd282 2.439 . S
O293 C287 1.208 . S
O294 Cd295 2.223 . S
O294 C302 1.315 . S
Cd295 O294 2.223 . S
Cd295 O298 2.297 . S
Cd295 O299 2.439 . S
Cd295 O305 2.240 . S
Cd296 O297 2.240 . S
Cd296 O304 2.223 . S
Cd296 O306 2.297 . S
Cd296 O307 2.439 . S
O297 Cd296 2.240 . S
O297 C302 1.279 . S
O298 Cd295 2.297 . S
O298 C300 1.247 . S
O299 Cd295 2.439 . S
O299 C300 1.208 . S
C300 O298 1.247 . S
C300 O299 1.208 . S
C301 O306 1.247 . S
C301 O307 1.208 . S
C302 O294 1.315 . S
C302 O297 1.279 . S
C303 O304 1.315 . S
C303 O305 1.279 . S
O304 Cd296 2.223 . S
O304 C303 1.315 . S
O305 Cd295 2.240 . S
O305 C303 1.279 . S
O306 Cd296 2.297 . S
O306 C301 1.247 . S
O307 Cd296 2.439 . S
O307 C301 1.208 . S
O308 Cd309 2.223 . S
O308 C316 1.315 . S
Cd309 O308 2.223 . S
Cd309 O312 2.297 . S
Cd309 O313 2.439 . S
Cd309 O319 2.240 . S
Cd310 O311 2.240 . S
Cd310 O318 2.223 . S
Cd310 O320 2.297 . S
Cd310 O321 2.439 . S
O311 Cd310 2.240 . S
O311 C316 1.279 . S
O312 Cd309 2.297 . S
O312 C314 1.247 . S
O313 Cd309 2.439 . S
O313 C314 1.208 . S
C314 O312 1.247 . S
C314 O313 1.208 . S
C315 O320 1.247 . S
C315 O321 1.208 . S
C316 O308 1.315 . S
C316 O311 1.279 . S
C317 O318 1.315 . S
C317 O319 1.279 . S
O318 Cd310 2.223 . S
O318 C317 1.315 . S
O319 Cd309 2.240 . S
O319 C317 1.279 . S
O320 Cd310 2.297 . S
O320 C315 1.247 . S
O321 Cd310 2.439 . S
O321 C315 1.208 . S
O322 Cd323 2.223 . S
O322 C330 1.315 . S
Cd323 O322 2.223 . S
Cd323 O326 2.297 . S
Cd323 O327 2.439 . S
Cd323 O333 2.240 . S
Cd324 O325 2.240 . S
Cd324 O332 2.223 . S
Cd324 O334 2.297 . S
Cd324 O335 2.439 . S
O325 Cd324 2.240 . S
O325 C330 1.279 . S
O326 Cd323 2.297 . S
O326 C328 1.247 . S
O327 Cd323 2.439 . S
O327 C328 1.208 . S
C328 O326 1.247 . S
C328 O327 1.208 . S
C329 O334 1.247 . S
C329 O335 1.208 . S
C330 O322 1.315 . S
C330 O325 1.279 . S
C331 O332 1.315 . S
C331 O333 1.279 . S
O332 Cd324 2.223 . S
O332 C331 1.315 . S
O333 Cd323 2.240 . S
O333 C331 1.279 . S
O334 Cd324 2.297 . S
O334 C329 1.247 . S
O335 Cd324 2.439 . S
O335 C329 1.208 . S
H336 C342 0.930 . S
H337 C346 0.930 . S
H338 C351 0.929 . S
H339 C349 0.929 . S
H340 C344 0.929 . S
H341 C350 0.929 . S
C342 H336 0.930 . S
C342 C343 1.367 . S
C342 C350 1.378 . S
C343 C342 1.367 . S
C343 C351 1.433 . S
C344 H340 0.929 . S
C344 C346 1.378 . S
C344 C348 1.350 . S
C345 C348 1.463 . S
C345 C350 1.350 . S
C345 N353 1.427 . S
C346 H337 0.930 . S
C346 C344 1.378 . S
C346 C347 1.367 . S
C347 C346 1.367 . S
C347 C349 1.433 . S
C348 C344 1.350 . S
C348 C345 1.463 . S
C348 N352 1.427 . S
C349 H339 0.929 . S
C349 C347 1.433 . S
C349 N352 1.384 . S
C350 H341 0.929 . S
C350 C342 1.378 . S
C350 C345 1.350 . S
C351 H338 0.929 . S
C351 C343 1.433 . S
C351 N353 1.384 . S
N352 C348 1.427 . S
N352 C349 1.384 . S
N353 C345 1.427 . S
N353 C351 1.384 . S
H354 C360 0.930 . S
H355 C364 0.930 . S
H356 C369 0.929 . S
H357 C367 0.929 . S
H358 C362 0.929 . S
H359 C368 0.929 . S
C360 H354 0.930 . S
C360 C361 1.367 . S
C360 C368 1.378 . S
C361 C360 1.367 . S
C361 C369 1.433 . S
C362 H358 0.929 . S
C362 C364 1.378 . S
C362 C366 1.350 . S
C363 C366 1.463 . S
C363 C368 1.350 . S
C363 N371 1.427 . S
C364 H355 0.930 . S
C364 C362 1.378 . S
C364 C365 1.367 . S
C365 C364 1.367 . S
C365 C367 1.433 . S
C366 C362 1.350 . S
C366 C363 1.463 . S
C366 N370 1.427 . S
C367 H357 0.929 . S
C367 C365 1.433 . S
C367 N370 1.384 . S
C368 H359 0.929 . S
C368 C360 1.378 . S
C368 C363 1.350 . S
C369 H356 0.929 . S
C369 C361 1.433 . S
C369 N371 1.384 . S
N370 C366 1.427 . S
N370 C367 1.384 . S
N371 C363 1.427 . S
N371 C369 1.384 . S
H372 C378 0.930 . S
H373 C382 0.930 . S
H374 C387 0.929 . S
H375 C385 0.929 . S
H376 C380 0.929 . S
H377 C386 0.929 . S
C378 H372 0.930 . S
C378 C379 1.367 . S
C378 C386 1.378 . S
C379 C378 1.367 . S
C379 C387 1.433 . S
C380 H376 0.929 . S
C380 C382 1.378 . S
C380 C384 1.350 . S
C381 C384 1.463 . S
C381 C386 1.350 . S
C381 N389 1.427 . S
C382 H373 0.930 . S
C382 C380 1.378 . S
C382 C383 1.367 . S
C383 C382 1.367 . S
C383 C385 1.433 . S
C384 C380 1.350 . S
C384 C381 1.463 . S
C384 N388 1.427 . S
C385 H375 0.929 . S
C385 C383 1.433 . S
C385 N388 1.384 . S
C386 H377 0.929 . S
C386 C378 1.378 . S
C386 C381 1.350 . S
C387 H374 0.929 . S
C387 C379 1.433 . S
C387 N389 1.384 . S
N388 C384 1.427 . S
N388 C385 1.384 . S
N389 C381 1.427 . S
N389 C387 1.384 . S
H390 C396 0.930 . S
H391 C400 0.930 . S
H392 C405 0.929 . S
H393 C403 0.929 . S
H394 C398 0.929 . S
H395 C404 0.929 . S
C396 H390 0.930 . S
C396 C397 1.367 . S
C396 C404 1.378 . S
C397 C396 1.367 . S
C397 C405 1.433 . S
C398 H394 0.929 . S
C398 C400 1.378 . S
C398 C402 1.350 . S
C399 C402 1.463 . S
C399 C404 1.350 . S
C399 N407 1.427 . S
C400 H391 0.930 . S
C400 C398 1.378 . S
C400 C401 1.367 . S
C401 C400 1.367 . S
C401 C403 1.433 . S
C402 C398 1.350 . S
C402 C399 1.463 . S
C402 N406 1.427 . S
C403 H393 0.929 . S
C403 C401 1.433 . S
C403 N406 1.384 . S
C404 H395 0.929 . S
C404 C396 1.378 . S
C404 C399 1.350 . S
C405 H392 0.929 . S
C405 C397 1.433 . S
C405 N407 1.384 . S
N406 C402 1.427 . S
N406 C403 1.384 . S
N407 C399 1.427 . S
N407 C405 1.384 . S
H408 C414 0.930 . S
H409 C418 0.930 . S
H410 C423 0.929 . S
H411 C421 0.929 . S
H412 C416 0.929 . S
H413 C422 0.929 . S
C414 H408 0.930 . S
C414 C415 1.367 . S
C414 C422 1.378 . S
C415 C414 1.367 . S
C415 C423 1.433 . S
C416 H412 0.929 . S
C416 C418 1.378 . S
C416 C420 1.350 . S
C417 C420 1.463 . S
C417 C422 1.350 . S
C417 N425 1.427 . S
C418 H409 0.930 . S
C418 C416 1.378 . S
C418 C419 1.367 . S
C419 C418 1.367 . S
C419 C421 1.433 . S
C420 C416 1.350 . S
C420 C417 1.463 . S
C420 N424 1.427 . S
C421 H411 0.929 . S
C421 C419 1.433 . S
C421 N424 1.384 . S
C422 H413 0.929 . S
C422 C414 1.378 . S
C422 C417 1.350 . S
C423 H410 0.929 . S
C423 C415 1.433 . S
C423 N425 1.384 . S
N424 C420 1.427 . S
N424 C421 1.384 . S
N425 C417 1.427 . S
N425 C423 1.384 . S
H426 C432 0.930 . S
H427 C436 0.930 . S
H428 C441 0.929 . S
H429 C439 0.929 . S
H430 C434 0.929 . S
H431 C440 0.929 . S
C432 H426 0.930 . S
C432 C433 1.367 . S
C432 C440 1.378 . S
C433 C432 1.367 . S
C433 C441 1.433 . S
C434 H430 0.929 . S
C434 C436 1.378 . S
C434 C438 1.350 . S
C435 C438 1.463 . S
C435 C440 1.350 . S
C435 N443 1.427 . S
C436 H427 0.930 . S
C436 C434 1.378 . S
C436 C437 1.367 . S
C437 C436 1.367 . S
C437 C439 1.433 . S
C438 C434 1.350 . S
C438 C435 1.463 . S
C438 N442 1.427 . S
C439 H429 0.929 . S
C439 C437 1.433 . S
C439 N442 1.384 . S
C440 H431 0.929 . S
C440 C432 1.378 . S
C440 C435 1.350 . S
C441 H428 0.929 . S
C441 C433 1.433 . S
C441 N443 1.384 . S
N442 C438 1.427 . S
N442 C439 1.384 . S
N443 C435 1.427 . S
N443 C441 1.384 . S
H444 C450 0.930 . S
H445 C454 0.930 . S
H446 C459 0.929 . S
H447 C457 0.929 . S
H448 C452 0.929 . S
H449 C458 0.929 . S
C450 H444 0.930 . S
C450 C451 1.367 . S
C450 C458 1.378 . S
C451 C450 1.367 . S
C451 C459 1.433 . S
C452 H448 0.929 . S
C452 C454 1.378 . S
C452 C456 1.350 . S
C453 C456 1.463 . S
C453 C458 1.350 . S
C453 N461 1.427 . S
C454 H445 0.930 . S
C454 C452 1.378 . S
C454 C455 1.367 . S
C455 C454 1.367 . S
C455 C457 1.433 . S
C456 C452 1.350 . S
C456 C453 1.463 . S
C456 N460 1.427 . S
C457 H447 0.929 . S
C457 C455 1.433 . S
C457 N460 1.384 . S
C458 H449 0.929 . S
C458 C450 1.378 . S
C458 C453 1.350 . S
C459 H446 0.929 . S
C459 C451 1.433 . S
C459 N461 1.384 . S
N460 C456 1.427 . S
N460 C457 1.384 . S
N461 C453 1.427 . S
N461 C459 1.384 . S
H462 C468 0.930 . S
H463 C472 0.930 . S
H464 C477 0.929 . S
H465 C475 0.929 . S
H466 C470 0.929 . S
H467 C476 0.929 . S
C468 H462 0.930 . S
C468 C469 1.367 . S
C468 C476 1.378 . S
C469 C468 1.367 . S
C469 C477 1.433 . S
C470 H466 0.929 . S
C470 C472 1.378 . S
C470 C474 1.350 . S
C471 C474 1.463 . S
C471 C476 1.350 . S
C471 N479 1.427 . S
C472 H463 0.930 . S
C472 C470 1.378 . S
C472 C473 1.367 . S
C473 C472 1.367 . S
C473 C475 1.433 . S
C474 C470 1.350 . S
C474 C471 1.463 . S
C474 N478 1.427 . S
C475 H465 0.929 . S
C475 C473 1.433 . S
C475 N478 1.384 . S
C476 H467 0.929 . S
C476 C468 1.378 . S
C476 C471 1.350 . S
C477 H464 0.929 . S
C477 C469 1.433 . S
C477 N479 1.384 . S
N478 C474 1.427 . S
N478 C475 1.384 . S
N479 C471 1.427 . S
N479 C477 1.384 . S
H480 C486 0.930 . S
H481 C490 0.930 . S
H482 C495 0.929 . S
H483 C493 0.929 . S
H484 C488 0.929 . S
H485 C494 0.929 . S
C486 H480 0.930 . S
C486 C487 1.367 . S
C486 C494 1.378 . S
C487 C486 1.367 . S
C487 C495 1.433 . S
C488 H484 0.929 . S
C488 C490 1.378 . S
C488 C492 1.350 . S
C489 C492 1.463 . S
C489 C494 1.350 . S
C489 N497 1.427 . S
C490 H481 0.930 . S
C490 C488 1.378 . S
C490 C491 1.367 . S
C491 C490 1.367 . S
C491 C493 1.433 . S
C492 C488 1.350 . S
C492 C489 1.463 . S
C492 N496 1.427 . S
C493 H483 0.929 . S
C493 C491 1.433 . S
C493 N496 1.384 . S
C494 H485 0.929 . S
C494 C486 1.378 . S
C494 C489 1.350 . S
C495 H482 0.929 . S
C495 C487 1.433 . S
C495 N497 1.384 . S
N496 C492 1.427 . S
N496 C493 1.384 . S
N497 C489 1.427 . S
N497 C495 1.384 . S
H498 C504 0.930 . S
H499 C508 0.930 . S
H500 C513 0.929 . S
H501 C511 0.929 . S
H502 C506 0.929 . S
H503 C512 0.929 . S
C504 H498 0.930 . S
C504 C505 1.367 . S
C504 C512 1.378 . S
C505 C504 1.367 . S
C505 C513 1.433 . S
C506 H502 0.929 . S
C506 C508 1.378 . S
C506 C510 1.350 . S
C507 C510 1.463 . S
C507 C512 1.350 . S
C507 N515 1.427 . S
C508 H499 0.930 . S
C508 C506 1.378 . S
C508 C509 1.367 . S
C509 C508 1.367 . S
C509 C511 1.433 . S
C510 C506 1.350 . S
C510 C507 1.463 . S
C510 N514 1.427 . S
C511 H501 0.929 . S
C511 C509 1.433 . S
C511 N514 1.384 . S
C512 H503 0.929 . S
C512 C504 1.378 . S
C512 C507 1.350 . S
C513 H500 0.929 . S
C513 C505 1.433 . S
C513 N515 1.384 . S
N514 C510 1.427 . S
N514 C511 1.384 . S
N515 C507 1.427 . S
N515 C513 1.384 . S
H516 C522 0.930 . S
H517 C526 0.930 . S
H518 C531 0.929 . S
H519 C529 0.929 . S
H520 C524 0.929 . S
H521 C530 0.929 . S
C522 H516 0.930 . S
C522 C523 1.367 . S
C522 C530 1.378 . S
C523 C522 1.367 . S
C523 C531 1.433 . S
C524 H520 0.929 . S
C524 C526 1.378 . S
C524 C528 1.350 . S
C525 C528 1.463 . S
C525 C530 1.350 . S
C525 N533 1.427 . S
C526 H517 0.930 . S
C526 C524 1.378 . S
C526 C527 1.367 . S
C527 C526 1.367 . S
C527 C529 1.433 . S
C528 C524 1.350 . S
C528 C525 1.463 . S
C528 N532 1.427 . S
C529 H519 0.929 . S
C529 C527 1.433 . S
C529 N532 1.384 . S
C530 H521 0.929 . S
C530 C522 1.378 . S
C530 C525 1.350 . S
C531 H518 0.929 . S
C531 C523 1.433 . S
C531 N533 1.384 . S
N532 C528 1.427 . S
N532 C529 1.384 . S
N533 C525 1.427 . S
N533 C531 1.384 . S
H534 C540 0.930 . S
H535 C544 0.930 . S
H536 C549 0.929 . S
H537 C547 0.929 . S
H538 C542 0.929 . S
H539 C548 0.929 . S
C540 H534 0.930 . S
C540 C541 1.367 . S
C540 C548 1.378 . S
C541 C540 1.367 . S
C541 C549 1.433 . S
C542 H538 0.929 . S
C542 C544 1.378 . S
C542 C546 1.350 . S
C543 C546 1.463 . S
C543 C548 1.350 . S
C543 N551 1.427 . S
C544 H535 0.930 . S
C544 C542 1.378 . S
C544 C545 1.367 . S
C545 C544 1.367 . S
C545 C547 1.433 . S
C546 C542 1.350 . S
C546 C543 1.463 . S
C546 N550 1.427 . S
C547 H537 0.929 . S
C547 C545 1.433 . S
C547 N550 1.384 . S
C548 H539 0.929 . S
C548 C540 1.378 . S
C548 C543 1.350 . S
C549 H536 0.929 . S
C549 C541 1.433 . S
C549 N551 1.384 . S
N550 C546 1.427 . S
N550 C547 1.384 . S
N551 C543 1.427 . S
N551 C549 1.384 . S
H552 C558 0.930 . S
H553 C562 0.930 . S
H554 C567 0.929 . S
H555 C565 0.929 . S
H556 C560 0.929 . S
H557 C566 0.929 . S
C558 H552 0.930 . S
C558 C559 1.367 . S
C558 C566 1.378 . S
C559 C558 1.367 . S
C559 C567 1.433 . S
C560 H556 0.929 . S
C560 C562 1.378 . S
C560 C564 1.350 . S
C561 C564 1.463 . S
C561 C566 1.350 . S
C561 N569 1.427 . S
C562 H553 0.930 . S
C562 C560 1.378 . S
C562 C563 1.367 . S
C563 C562 1.367 . S
C563 C565 1.433 . S
C564 C560 1.350 . S
C564 C561 1.463 . S
C564 N568 1.427 . S
C565 H555 0.929 . S
C565 C563 1.433 . S
C565 N568 1.384 . S
C566 H557 0.929 . S
C566 C558 1.378 . S
C566 C561 1.350 . S
C567 H554 0.929 . S
C567 C559 1.433 . S
C567 N569 1.384 . S
N568 C564 1.427 . S
N568 C565 1.384 . S
N569 C561 1.427 . S
N569 C567 1.384 . S
H570 C576 0.930 . S
H571 C580 0.930 . S
H572 C585 0.929 . S
H573 C583 0.929 . S
H574 C578 0.929 . S
H575 C584 0.929 . S
C576 H570 0.930 . S
C576 C577 1.367 . S
C576 C584 1.378 . S
C577 C576 1.367 . S
C577 C585 1.433 . S
C578 H574 0.929 . S
C578 C580 1.378 . S
C578 C582 1.350 . S
C579 C582 1.463 . S
C579 C584 1.350 . S
C579 N587 1.427 . S
C580 H571 0.930 . S
C580 C578 1.378 . S
C580 C581 1.367 . S
C581 C580 1.367 . S
C581 C583 1.433 . S
C582 C578 1.350 . S
C582 C579 1.463 . S
C582 N586 1.427 . S
C583 H573 0.929 . S
C583 C581 1.433 . S
C583 N586 1.384 . S
C584 H575 0.929 . S
C584 C576 1.378 . S
C584 C579 1.350 . S
C585 H572 0.929 . S
C585 C577 1.433 . S
C585 N587 1.384 . S
N586 C582 1.427 . S
N586 C583 1.384 . S
N587 C579 1.427 . S
N587 C585 1.384 . S
H588 C594 0.930 . S
H589 C598 0.930 . S
H590 C603 0.929 . S
H591 C601 0.929 . S
H592 C596 0.929 . S
H593 C602 0.929 . S
C594 H588 0.930 . S
C594 C595 1.367 . S
C594 C602 1.378 . S
C595 C594 1.367 . S
C595 C603 1.433 . S
C596 H592 0.929 . S
C596 C598 1.378 . S
C596 C600 1.350 . S
C597 C600 1.463 . S
C597 C602 1.350 . S
C597 N605 1.427 . S
C598 H589 0.930 . S
C598 C596 1.378 . S
C598 C599 1.367 . S
C599 C598 1.367 . S
C599 C601 1.433 . S
C600 C596 1.350 . S
C600 C597 1.463 . S
C600 N604 1.427 . S
C601 H591 0.929 . S
C601 C599 1.433 . S
C601 N604 1.384 . S
C602 H593 0.929 . S
C602 C594 1.378 . S
C602 C597 1.350 . S
C603 H590 0.929 . S
C603 C595 1.433 . S
C603 N605 1.384 . S
N604 C600 1.427 . S
N604 C601 1.384 . S
N605 C597 1.427 . S
N605 C603 1.384 . S
H606 C612 0.930 . S
H607 C616 0.930 . S
H608 C621 0.929 . S
H609 C619 0.929 . S
H610 C614 0.929 . S
H611 C620 0.929 . S
C612 H606 0.930 . S
C612 C613 1.367 . S
C612 C620 1.378 . S
C613 C612 1.367 . S
C613 C621 1.433 . S
C614 H610 0.929 . S
C614 C616 1.378 . S
C614 C618 1.350 . S
C615 C618 1.463 . S
C615 C620 1.350 . S
C615 N623 1.427 . S
C616 H607 0.930 . S
C616 C614 1.378 . S
C616 C617 1.367 . S
C617 C616 1.367 . S
C617 C619 1.433 . S
C618 C614 1.350 . S
C618 C615 1.463 . S
C618 N622 1.427 . S
C619 H609 0.929 . S
C619 C617 1.433 . S
C619 N622 1.384 . S
C620 H611 0.929 . S
C620 C612 1.378 . S
C620 C615 1.350 . S
C621 H608 0.929 . S
C621 C613 1.433 . S
C621 N623 1.384 . S
N622 C618 1.427 . S
N622 C619 1.384 . S
N623 C615 1.427 . S
N623 C621 1.384 . S
H624 C630 0.930 . S
H625 C634 0.930 . S
H626 C639 0.929 . S
H627 C637 0.929 . S
H628 C632 0.929 . S
H629 C638 0.929 . S
C630 H624 0.930 . S
C630 C631 1.367 . S
C630 C638 1.378 . S
C631 C630 1.367 . S
C631 C639 1.433 . S
C632 H628 0.929 . S
C632 C634 1.378 . S
C632 C636 1.350 . S
C633 C636 1.463 . S
C633 C638 1.350 . S
C633 N641 1.427 . S
C634 H625 0.930 . S
C634 C632 1.378 . S
C634 C635 1.367 . S
C635 C634 1.367 . S
C635 C637 1.433 . S
C636 C632 1.350 . S
C636 C633 1.463 . S
C636 N640 1.427 . S
C637 H627 0.929 . S
C637 C635 1.433 . S
C637 N640 1.384 . S
C638 H629 0.929 . S
C638 C630 1.378 . S
C638 C633 1.350 . S
C639 H626 0.929 . S
C639 C631 1.433 . S
C639 N641 1.384 . S
N640 C636 1.427 . S
N640 C637 1.384 . S
N641 C633 1.427 . S
N641 C639 1.384 . S
H642 C648 0.930 . S
H643 C652 0.930 . S
H644 C657 0.929 . S
H645 C655 0.929 . S
H646 C650 0.929 . S
H647 C656 0.929 . S
C648 H642 0.930 . S
C648 C649 1.367 . S
C648 C656 1.378 . S
C649 C648 1.367 . S
C649 C657 1.433 . S
C650 H646 0.929 . S
C650 C652 1.378 . S
C650 C654 1.350 . S
C651 C654 1.463 . S
C651 C656 1.350 . S
C651 N659 1.427 . S
C652 H643 0.930 . S
C652 C650 1.378 . S
C652 C653 1.367 . S
C653 C652 1.367 . S
C653 C655 1.433 . S
C654 C650 1.350 . S
C654 C651 1.463 . S
C654 N658 1.427 . S
C655 H645 0.929 . S
C655 C653 1.433 . S
C655 N658 1.384 . S
C656 H647 0.929 . S
C656 C648 1.378 . S
C656 C651 1.350 . S
C657 H644 0.929 . S
C657 C649 1.433 . S
C657 N659 1.384 . S
N658 C654 1.427 . S
N658 C655 1.384 . S
N659 C651 1.427 . S
N659 C657 1.384 . S
H660 C666 0.930 . S
H661 C670 0.930 . S
H662 C675 0.929 . S
H663 C673 0.929 . S
H664 C668 0.929 . S
H665 C674 0.929 . S
C666 H660 0.930 . S
C666 C667 1.367 . S
C666 C674 1.378 . S
C667 C666 1.367 . S
C667 C675 1.433 . S
C668 H664 0.929 . S
C668 C670 1.378 . S
C668 C672 1.350 . S
C669 C672 1.463 . S
C669 C674 1.350 . S
C669 N677 1.427 . S
C670 H661 0.930 . S
C670 C668 1.378 . S
C670 C671 1.367 . S
C671 C670 1.367 . S
C671 C673 1.433 . S
C672 C668 1.350 . S
C672 C669 1.463 . S
C672 N676 1.427 . S
C673 H663 0.929 . S
C673 C671 1.433 . S
C673 N676 1.384 . S
C674 H665 0.929 . S
C674 C666 1.378 . S
C674 C669 1.350 . S
C675 H662 0.929 . S
C675 C667 1.433 . S
C675 N677 1.384 . S
N676 C672 1.427 . S
N676 C673 1.384 . S
N677 C669 1.427 . S
N677 C675 1.384 . S
H678 C684 0.930 . S
H679 C688 0.930 . S
H680 C693 0.929 . S
H681 C691 0.929 . S
H682 C686 0.929 . S
H683 C692 0.929 . S
C684 H678 0.930 . S
C684 C685 1.367 . S
C684 C692 1.378 . S
C685 C684 1.367 . S
C685 C693 1.433 . S
C686 H682 0.929 . S
C686 C688 1.378 . S
C686 C690 1.350 . S
C687 C690 1.463 . S
C687 C692 1.350 . S
C687 N695 1.427 . S
C688 H679 0.930 . S
C688 C686 1.378 . S
C688 C689 1.367 . S
C689 C688 1.367 . S
C689 C691 1.433 . S
C690 C686 1.350 . S
C690 C687 1.463 . S
C690 N694 1.427 . S
C691 H681 0.929 . S
C691 C689 1.433 . S
C691 N694 1.384 . S
C692 H683 0.929 . S
C692 C684 1.378 . S
C692 C687 1.350 . S
C693 H680 0.929 . S
C693 C685 1.433 . S
C693 N695 1.384 . S
N694 C690 1.427 . S
N694 C691 1.384 . S
N695 C687 1.427 . S
N695 C693 1.384 . S
H696 C702 0.930 . S
H697 C706 0.930 . S
H698 C711 0.929 . S
H699 C709 0.929 . S
H700 C704 0.929 . S
H701 C710 0.929 . S
C702 H696 0.930 . S
C702 C703 1.367 . S
C702 C710 1.378 . S
C703 C702 1.367 . S
C703 C711 1.433 . S
C704 H700 0.929 . S
C704 C706 1.378 . S
C704 C708 1.350 . S
C705 C708 1.463 . S
C705 C710 1.350 . S
C705 N713 1.427 . S
C706 H697 0.930 . S
C706 C704 1.378 . S
C706 C707 1.367 . S
C707 C706 1.367 . S
C707 C709 1.433 . S
C708 C704 1.350 . S
C708 C705 1.463 . S
C708 N712 1.427 . S
C709 H699 0.929 . S
C709 C707 1.433 . S
C709 N712 1.384 . S
C710 H701 0.929 . S
C710 C702 1.378 . S
C710 C705 1.350 . S
C711 H698 0.929 . S
C711 C703 1.433 . S
C711 N713 1.384 . S
N712 C708 1.427 . S
N712 C709 1.384 . S
N713 C705 1.427 . S
N713 C711 1.384 . S
H714 C720 0.930 . S
H715 C724 0.930 . S
H716 C729 0.929 . S
H717 C727 0.929 . S
H718 C722 0.929 . S
H719 C728 0.929 . S
C720 H714 0.930 . S
C720 C721 1.367 . S
C720 C728 1.378 . S
C721 C720 1.367 . S
C721 C729 1.433 . S
C722 H718 0.929 . S
C722 C724 1.378 . S
C722 C726 1.350 . S
C723 C726 1.463 . S
C723 C728 1.350 . S
C723 N731 1.427 . S
C724 H715 0.930 . S
C724 C722 1.378 . S
C724 C725 1.367 . S
C725 C724 1.367 . S
C725 C727 1.433 . S
C726 C722 1.350 . S
C726 C723 1.463 . S
C726 N730 1.427 . S
C727 H717 0.929 . S
C727 C725 1.433 . S
C727 N730 1.384 . S
C728 H719 0.929 . S
C728 C720 1.378 . S
C728 C723 1.350 . S
C729 H716 0.929 . S
C729 C721 1.433 . S
C729 N731 1.384 . S
N730 C726 1.427 . S
N730 C727 1.384 . S
N731 C723 1.427 . S
N731 C729 1.384 . S
H732 C738 0.930 . S
H733 C742 0.930 . S
H734 C747 0.929 . S
H735 C745 0.929 . S
H736 C740 0.929 . S
H737 C746 0.929 . S
C738 H732 0.930 . S
C738 C739 1.367 . S
C738 C746 1.378 . S
C739 C738 1.367 . S
C739 C747 1.433 . S
C740 H736 0.929 . S
C740 C742 1.378 . S
C740 C744 1.350 . S
C741 C744 1.463 . S
C741 C746 1.350 . S
C741 N749 1.427 . S
C742 H733 0.930 . S
C742 C740 1.378 . S
C742 C743 1.367 . S
C743 C742 1.367 . S
C743 C745 1.433 . S
C744 C740 1.350 . S
C744 C741 1.463 . S
C744 N748 1.427 . S
C745 H735 0.929 . S
C745 C743 1.433 . S
C745 N748 1.384 . S
C746 H737 0.929 . S
C746 C738 1.378 . S
C746 C741 1.350 . S
C747 H734 0.929 . S
C747 C739 1.433 . S
C747 N749 1.384 . S
N748 C744 1.427 . S
N748 C745 1.384 . S
N749 C741 1.427 . S
N749 C747 1.384 . S
H750 C756 0.930 . S
H751 C760 0.930 . S
H752 C765 0.929 . S
H753 C763 0.929 . S
H754 C758 0.929 . S
H755 C764 0.929 . S
C756 H750 0.930 . S
C756 C757 1.367 . S
C756 C764 1.378 . S
C757 C756 1.367 . S
C757 C765 1.433 . S
C758 H754 0.929 . S
C758 C760 1.378 . S
C758 C762 1.350 . S
C759 C762 1.463 . S
C759 C764 1.350 . S
C759 N767 1.427 . S
C760 H751 0.930 . S
C760 C758 1.378 . S
C760 C761 1.367 . S
C761 C760 1.367 . S
C761 C763 1.433 . S
C762 C758 1.350 . S
C762 C759 1.463 . S
C762 N766 1.427 . S
C763 H753 0.929 . S
C763 C761 1.433 . S
C763 N766 1.384 . S
C764 H755 0.929 . S
C764 C756 1.378 . S
C764 C759 1.350 . S
C765 H752 0.929 . S
C765 C757 1.433 . S
C765 N767 1.384 . S
N766 C762 1.427 . S
N766 C763 1.384 . S
N767 C759 1.427 . S
N767 C765 1.384 . S
H768 C774 0.930 . S
H769 C778 0.930 . S
H770 C783 0.929 . S
H771 C781 0.929 . S
H772 C776 0.929 . S
H773 C782 0.929 . S
C774 H768 0.930 . S
C774 C775 1.367 . S
C774 C782 1.378 . S
C775 C774 1.367 . S
C775 C783 1.433 . S
C776 H772 0.929 . S
C776 C778 1.378 . S
C776 C780 1.350 . S
C777 C780 1.463 . S
C777 C782 1.350 . S
C777 N785 1.427 . S
C778 H769 0.930 . S
C778 C776 1.378 . S
C778 C779 1.367 . S
C779 C778 1.367 . S
C779 C781 1.433 . S
C780 C776 1.350 . S
C780 C777 1.463 . S
C780 N784 1.427 . S
C781 H771 0.929 . S
C781 C779 1.433 . S
C781 N784 1.384 . S
C782 H773 0.929 . S
C782 C774 1.378 . S
C782 C777 1.350 . S
C783 H770 0.929 . S
C783 C775 1.433 . S
C783 N785 1.384 . S
N784 C780 1.427 . S
N784 C781 1.384 . S
N785 C777 1.427 . S
N785 C783 1.384 . S
H786 C792 0.930 . S
H787 C796 0.930 . S
H788 C801 0.929 . S
H789 C799 0.929 . S
H790 C794 0.929 . S
H791 C800 0.929 . S
C792 H786 0.930 . S
C792 C793 1.367 . S
C792 C800 1.378 . S
C793 C792 1.367 . S
C793 C801 1.433 . S
C794 H790 0.929 . S
C794 C796 1.378 . S
C794 C798 1.350 . S
C795 C798 1.463 1_554 S
C795 C800 1.350 . S
C795 N803 1.427 . S
C796 H787 0.930 . S
C796 C794 1.378 . S
C796 C797 1.367 . S
C797 C796 1.367 . S
C797 C799 1.433 . S
C798 C794 1.350 . S
C798 C795 1.463 1_556 S
C798 N802 1.427 . S
C799 H789 0.929 . S
C799 C797 1.433 . S
C799 N802 1.384 . S
C800 H791 0.929 . S
C800 C792 1.378 . S
C800 C795 1.350 . S
C801 H788 0.929 . S
C801 C793 1.433 . S
C801 N803 1.384 . S
N802 C798 1.427 . S
N802 C799 1.384 . S
N803 C795 1.427 . S
N803 C801 1.384 . S
H804 C810 0.930 . S
H805 C814 0.930 . S
H806 C819 0.929 . S
H807 C817 0.929 . S
H808 C812 0.929 . S
H809 C818 0.929 . S
C810 H804 0.930 . S
C810 C811 1.367 . S
C810 C818 1.378 . S
C811 C810 1.367 . S
C811 C819 1.433 . S
C812 H808 0.929 . S
C812 C814 1.378 . S
C812 C816 1.350 . S
C813 C816 1.463 . S
C813 C818 1.350 . S
C813 N821 1.427 . S
C814 H805 0.930 . S
C814 C812 1.378 . S
C814 C815 1.367 . S
C815 C814 1.367 . S
C815 C817 1.433 . S
C816 C812 1.350 . S
C816 C813 1.463 . S
C816 N820 1.427 . S
C817 H807 0.929 . S
C817 C815 1.433 . S
C817 N820 1.384 . S
C818 H809 0.929 . S
C818 C810 1.378 . S
C818 C813 1.350 . S
C819 H806 0.929 . S
C819 C811 1.433 . S
C819 N821 1.384 . S
N820 C816 1.427 . S
N820 C817 1.384 . S
N821 C813 1.427 . S
N821 C819 1.384 . S
H822 C828 0.930 . S
H823 C832 0.930 . S
H824 C837 0.929 . S
H825 C835 0.929 . S
H826 C830 0.929 . S
H827 C836 0.929 . S
C828 H822 0.930 . S
C828 C829 1.367 . S
C828 C836 1.378 . S
C829 C828 1.367 . S
C829 C837 1.433 . S
C830 H826 0.929 . S
C830 C832 1.378 . S
C830 C834 1.350 . S
C831 C834 1.463 1_554 S
C831 C836 1.350 . S
C831 N839 1.427 . S
C832 H823 0.930 . S
C832 C830 1.378 . S
C832 C833 1.367 . S
C833 C832 1.367 . S
C833 C835 1.433 . S
C834 C830 1.350 . S
C834 C831 1.463 1_556 S
C834 N838 1.427 . S
C835 H825 0.929 . S
C835 C833 1.433 . S
C835 N838 1.384 . S
C836 H827 0.929 . S
C836 C828 1.378 . S
C836 C831 1.350 . S
C837 H824 0.929 . S
C837 C829 1.433 . S
C837 N839 1.384 . S
N838 C834 1.427 . S
N838 C835 1.384 . S
N839 C831 1.427 . S
N839 C837 1.384 . S
H840 C846 0.930 . S
H841 C850 0.930 . S
H842 C855 0.929 . S
H843 C853 0.929 . S
H844 C848 0.929 . S
H845 C854 0.929 . S
C846 H840 0.930 . S
C846 C847 1.367 . S
C846 C854 1.378 . S
C847 C846 1.367 . S
C847 C855 1.433 . S
C848 H844 0.929 . S
C848 C850 1.378 . S
C848 C852 1.350 . S
C849 C852 1.463 . S
C849 C854 1.350 . S
C849 N857 1.427 . S
C850 H841 0.930 . S
C850 C848 1.378 . S
C850 C851 1.367 . S
C851 C850 1.367 . S
C851 C853 1.433 . S
C852 C848 1.350 . S
C852 C849 1.463 . S
C852 N856 1.427 . S
C853 H843 0.929 . S
C853 C851 1.433 . S
C853 N856 1.384 . S
C854 H845 0.929 . S
C854 C846 1.378 . S
C854 C849 1.350 . S
C855 H842 0.929 . S
C855 C847 1.433 . S
C855 N857 1.384 . S
N856 C852 1.427 . S
N856 C853 1.384 . S
N857 C849 1.427 . S
N857 C855 1.384 . S
H858 C864 0.930 . S
H859 C868 0.930 . S
H860 C873 0.929 . S
H861 C871 0.929 . S
H862 C866 0.929 . S
H863 C872 0.929 . S
C864 H858 0.930 . S
C864 C865 1.367 . S
C864 C872 1.378 . S
C865 C864 1.367 . S
C865 C873 1.433 . S
C866 H862 0.929 . S
C866 C868 1.378 . S
C866 C870 1.350 . S
C867 C870 1.463 1_655 S
C867 C872 1.350 . S
C867 N875 1.427 . S
C868 H859 0.930 . S
C868 C866 1.378 . S
C868 C869 1.367 . S
C869 C868 1.367 . S
C869 C871 1.433 . S
C870 C866 1.350 . S
C870 C867 1.463 1_455 S
C870 N874 1.427 . S
C871 H861 0.929 . S
C871 C869 1.433 . S
C871 N874 1.384 . S
C872 H863 0.929 . S
C872 C864 1.378 . S
C872 C867 1.350 . S
C873 H860 0.929 . S
C873 C865 1.433 . S
C873 N875 1.384 . S
N874 C870 1.427 . S
N874 C871 1.384 . S
N875 C867 1.427 . S
N875 C873 1.384 . S
H876 C882 0.930 . S
H877 C886 0.930 . S
H878 C891 0.929 . S
H879 C889 0.929 . S
H880 C884 0.929 . S
H881 C890 0.929 . S
C882 H876 0.930 . S
C882 C883 1.367 . S
C882 C890 1.378 . S
C883 C882 1.367 . S
C883 C891 1.433 . S
C884 H880 0.929 . S
C884 C886 1.378 . S
C884 C888 1.350 . S
C885 C888 1.463 1_455 S
C885 C890 1.350 . S
C885 N893 1.427 . S
C886 H877 0.930 . S
C886 C884 1.378 . S
C886 C887 1.367 . S
C887 C886 1.367 . S
C887 C889 1.433 . S
C888 C884 1.350 . S
C888 C885 1.463 1_655 S
C888 N892 1.427 . S
C889 H879 0.929 . S
C889 C887 1.433 . S
C889 N892 1.384 . S
C890 H881 0.929 . S
C890 C882 1.378 . S
C890 C885 1.350 . S
C891 H878 0.929 . S
C891 C883 1.433 . S
C891 N893 1.384 . S
N892 C888 1.427 . S
N892 C889 1.384 . S
N893 C885 1.427 . S
N893 C891 1.384 . S
H894 C900 0.930 . S
H895 C904 0.930 . S
H896 C909 0.929 . S
H897 C907 0.929 . S
H898 C902 0.929 . S
H899 C908 0.929 . S
C900 H894 0.930 . S
C900 C901 1.367 . S
C900 C908 1.378 . S
C901 C900 1.367 . S
C901 C909 1.433 . S
C902 H898 0.929 . S
C902 C904 1.378 . S
C902 C906 1.350 . S
C903 C906 1.463 . S
C903 C908 1.350 . S
C903 N911 1.427 . S
C904 H895 0.930 . S
C904 C902 1.378 . S
C904 C905 1.367 . S
C905 C904 1.367 . S
C905 C907 1.433 . S
C906 C902 1.350 . S
C906 C903 1.463 . S
C906 N910 1.427 . S
C907 H897 0.929 . S
C907 C905 1.433 . S
C907 N910 1.384 . S
C908 H899 0.929 . S
C908 C900 1.378 . S
C908 C903 1.350 . S
C909 H896 0.929 . S
C909 C901 1.433 . S
C909 N911 1.384 . S
N910 C906 1.427 . S
N910 C907 1.384 . S
N911 C903 1.427 . S
N911 C909 1.384 . S
H912 C918 0.930 . S
H913 C922 0.930 . S
H914 C927 0.929 . S
H915 C925 0.929 . S
H916 C920 0.929 . S
H917 C926 0.929 . S
C918 H912 0.930 . S
C918 C919 1.367 . S
C918 C926 1.378 . S
C919 C918 1.367 . S
C919 C927 1.433 . S
C920 H916 0.929 . S
C920 C922 1.378 . S
C920 C924 1.350 . S
C921 C924 1.463 . S
C921 C926 1.350 . S
C921 N929 1.427 . S
C922 H913 0.930 . S
C922 C920 1.378 . S
C922 C923 1.367 . S
C923 C922 1.367 . S
C923 C925 1.433 . S
C924 C920 1.350 . S
C924 C921 1.463 . S
C924 N928 1.427 . S
C925 H915 0.929 . S
C925 C923 1.433 . S
C925 N928 1.384 . S
C926 H917 0.929 . S
C926 C918 1.378 . S
C926 C921 1.350 . S
C927 H914 0.929 . S
C927 C919 1.433 . S
C927 N929 1.384 . S
N928 C924 1.427 . S
N928 C925 1.384 . S
N929 C921 1.427 . S
N929 C927 1.384 . S
H930 C936 0.930 . S
H931 C940 0.930 . S
H932 C945 0.929 . S
H933 C943 0.929 . S
H934 C938 0.929 . S
H935 C944 0.929 . S
C936 H930 0.930 . S
C936 C937 1.367 . S
C936 C944 1.378 . S
C937 C936 1.367 . S
C937 C945 1.433 . S
C938 H934 0.929 . S
C938 C940 1.378 . S
C938 C942 1.350 . S
C939 C942 1.463 1_565 S
C939 C944 1.350 . S
C939 N947 1.427 . S
C940 H931 0.930 . S
C940 C938 1.378 . S
C940 C941 1.367 . S
C941 C940 1.367 . S
C941 C943 1.433 . S
C942 C938 1.350 . S
C942 C939 1.463 1_545 S
C942 N946 1.427 . S
C943 H933 0.929 . S
C943 C941 1.433 . S
C943 N946 1.384 . S
C944 H935 0.929 . S
C944 C936 1.378 . S
C944 C939 1.350 . S
C945 H932 0.929 . S
C945 C937 1.433 . S
C945 N947 1.384 . S
N946 C942 1.427 . S
N946 C943 1.384 . S
N947 C939 1.427 . S
N947 C945 1.384 . S
H948 C954 0.930 . S
H949 C958 0.930 . S
H950 C963 0.929 . S
H951 C961 0.929 . S
H952 C956 0.929 . S
H953 C962 0.929 1_565 S
C954 H948 0.930 . S
C954 C955 1.367 . S
C954 C962 1.378 . S
C955 C954 1.367 . S
C955 C963 1.433 . S
C956 H952 0.929 . S
C956 C958 1.378 . S
C956 C960 1.350 . S
C957 C960 1.463 1_545 S
C957 C962 1.350 . S
C957 N965 1.427 . S
C958 H949 0.930 . S
C958 C956 1.378 . S
C958 C959 1.367 . S
C959 C958 1.367 . S
C959 C961 1.433 . S
C960 C956 1.350 . S
C960 C957 1.463 1_565 S
C960 N964 1.427 . S
C961 H951 0.929 . S
C961 C959 1.433 . S
C961 N964 1.384 . S
C962 H953 0.929 1_545 S
C962 C954 1.378 . S
C962 C957 1.350 . S
C963 H950 0.929 . S
C963 C955 1.433 . S
C963 N965 1.384 . S
N964 C960 1.427 . S
N964 C961 1.384 . S
N965 C957 1.427 . S
N965 C963 1.384 . S
H966 C972 0.930 . S
H967 C976 0.930 . S
H968 C981 0.929 . S
H969 C979 0.929 . S
H970 C974 0.929 . S
H971 C980 0.929 . S
C972 H966 0.930 . S
C972 C973 1.367 . S
C972 C980 1.378 . S
C973 C972 1.367 . S
C973 C981 1.433 . S
C974 H970 0.929 . S
C974 C976 1.378 . S
C974 C978 1.350 . S
C975 C978 1.463 . S
C975 C980 1.350 . S
C975 N983 1.427 . S
C976 H967 0.930 . S
C976 C974 1.378 . S
C976 C977 1.367 . S
C977 C976 1.367 . S
C977 C979 1.433 . S
C978 C974 1.350 . S
C978 C975 1.463 . S
C978 N982 1.427 . S
C979 H969 0.929 . S
C979 C977 1.433 . S
C979 N982 1.384 . S
C980 H971 0.929 . S
C980 C972 1.378 . S
C980 C975 1.350 . S
C981 H968 0.929 . S
C981 C973 1.433 . S
C981 N983 1.384 . S
N982 C978 1.427 . S
N982 C979 1.384 . S
N983 C975 1.427 . S
N983 C981 1.384 . S
H984 C990 0.930 . S
H985 C994 0.930 . S
H986 C999 0.929 . S
H987 C997 0.929 . S
H988 C992 0.929 . S
H989 C998 0.929 . S
C990 H984 0.930 . S
C990 C991 1.367 . S
C990 C998 1.378 . S
C991 C990 1.367 . S
C991 C999 1.433 . S
C992 H988 0.929 . S
C992 C994 1.378 . S
C992 C996 1.350 . S
C993 C996 1.463 . S
C993 C998 1.350 . S
C993 N1001 1.427 . S
C994 H985 0.930 . S
C994 C992 1.378 . S
C994 C995 1.367 . S
C995 C994 1.367 . S
C995 C997 1.433 . S
C996 C992 1.350 . S
C996 C993 1.463 . S
C996 N1000 1.427 . S
C997 H987 0.929 . S
C997 C995 1.433 . S
C997 N1000 1.384 . S
C998 H989 0.929 . S
C998 C990 1.378 . S
C998 C993 1.350 . S
C999 H986 0.929 . S
C999 C991 1.433 . S
C999 N1001 1.384 . S
N1000 C996 1.427 . S
N1000 C997 1.384 . S
N1001 C993 1.427 . S
N1001 C999 1.384 . S
H1002 C1008 0.930 . S
H1003 C1012 0.930 . S
H1004 C1017 0.929 . S
H1005 C1015 0.929 . S
H1006 C1010 0.929 . S
H1007 C1016 0.929 1_554 S
C1008 H1002 0.930 . S
C1008 C1009 1.367 . S
C1008 C1016 1.378 . S
C1009 C1008 1.367 . S
C1009 C1017 1.433 . S
C1010 H1006 0.929 . S
C1010 C1012 1.378 . S
C1010 C1014 1.350 . S
C1011 C1014 1.463 1_556 S
C1011 C1016 1.350 . S
C1011 N1019 1.427 . S
C1012 H1003 0.930 . S
C1012 C1010 1.378 . S
C1012 C1013 1.367 . S
C1013 C1012 1.367 . S
C1013 C1015 1.433 . S
C1014 C1010 1.350 . S
C1014 C1011 1.463 1_554 S
C1014 N1018 1.427 . S
C1015 H1005 0.929 . S
C1015 C1013 1.433 . S
C1015 N1018 1.384 . S
C1016 H1007 0.929 1_556 S
C1016 C1008 1.378 . S
C1016 C1011 1.350 . S
C1017 H1004 0.929 . S
C1017 C1009 1.433 . S
C1017 N1019 1.384 . S
N1018 C1014 1.427 . S
N1018 C1015 1.384 . S
N1019 C1011 1.427 . S
N1019 C1017 1.384 . S
H1020 C1026 0.930 . S
H1021 C1030 0.930 . S
H1022 C1035 0.929 . S
H1023 C1033 0.929 . S
H1024 C1028 0.929 . S
H1025 C1034 0.929 . S
C1026 H1020 0.930 . S
C1026 C1027 1.367 . S
C1026 C1034 1.378 . S
C1027 C1026 1.367 . S
C1027 C1035 1.433 . S
C1028 H1024 0.929 . S
C1028 C1030 1.378 . S
C1028 C1032 1.350 . S
C1029 C1032 1.463 . S
C1029 C1034 1.350 . S
C1029 N1037 1.427 . S
C1030 H1021 0.930 . S
C1030 C1028 1.378 . S
C1030 C1031 1.367 . S
C1031 C1030 1.367 . S
C1031 C1033 1.433 . S
C1032 C1028 1.350 . S
C1032 C1029 1.463 . S
C1032 N1036 1.427 . S
C1033 H1023 0.929 . S
C1033 C1031 1.433 . S
C1033 N1036 1.384 . S
C1034 H1025 0.929 . S
C1034 C1026 1.378 . S
C1034 C1029 1.350 . S
C1035 H1022 0.929 . S
C1035 C1027 1.433 . S
C1035 N1037 1.384 . S
N1036 C1032 1.427 . S
N1036 C1033 1.384 . S
N1037 C1029 1.427 . S
N1037 C1035 1.384 . S
H1038 C1044 0.930 . S
H1039 C1048 0.930 . S
H1040 C1053 0.929 . S
H1041 C1051 0.929 . S
H1042 C1046 0.929 . S
H1043 C1052 0.929 1_556 S
C1044 H1038 0.930 . S
C1044 C1045 1.367 . S
C1044 C1052 1.378 . S
C1045 C1044 1.367 . S
C1045 C1053 1.433 . S
C1046 H1042 0.929 . S
C1046 C1048 1.378 . S
C1046 C1050 1.350 . S
C1047 C1050 1.463 1_554 S
C1047 C1052 1.350 . S
C1047 N1055 1.427 . S
C1048 H1039 0.930 . S
C1048 C1046 1.378 . S
C1048 C1049 1.367 . S
C1049 C1048 1.367 . S
C1049 C1051 1.433 . S
C1050 C1046 1.350 . S
C1050 C1047 1.463 1_556 S
C1050 N1054 1.427 . S
C1051 H1041 0.929 . S
C1051 C1049 1.433 . S
C1051 N1054 1.384 . S
C1052 H1043 0.929 1_554 S
C1052 C1044 1.378 . S
C1052 C1047 1.350 . S
C1053 H1040 0.929 . S
C1053 C1045 1.433 . S
C1053 N1055 1.384 . S
N1054 C1050 1.427 . S
N1054 C1051 1.384 . S
N1055 C1047 1.427 . S
N1055 C1053 1.384 . S
H1056 C1062 0.930 . S
H1057 C1066 0.930 . S
H1058 C1071 0.929 . S
H1059 C1069 0.929 . S
H1060 C1064 0.929 . S
H1061 C1070 0.929 . S
C1062 H1056 0.930 . S
C1062 C1063 1.367 . S
C1062 C1070 1.378 . S
C1063 C1062 1.367 . S
C1063 C1071 1.433 . S
C1064 H1060 0.929 . S
C1064 C1066 1.378 . S
C1064 C1068 1.350 . S
C1065 C1068 1.463 . S
C1065 C1070 1.350 . S
C1065 N1073 1.427 . S
C1066 H1057 0.930 . S
C1066 C1064 1.378 . S
C1066 C1067 1.367 . S
C1067 C1066 1.367 . S
C1067 C1069 1.433 . S
C1068 C1064 1.350 . S
C1068 C1065 1.463 . S
C1068 N1072 1.427 . S
C1069 H1059 0.929 . S
C1069 C1067 1.433 . S
C1069 N1072 1.384 . S
C1070 H1061 0.929 . S
C1070 C1062 1.378 . S
C1070 C1065 1.350 . S
C1071 H1058 0.929 . S
C1071 C1063 1.433 . S
C1071 N1073 1.384 . S
N1072 C1068 1.427 . S
N1072 C1069 1.384 . S
N1073 C1065 1.427 . S
N1073 C1071 1.384 . S
H1074 C1080 0.930 . S
H1075 C1084 0.930 . S
H1076 C1089 0.929 . S
H1077 C1087 0.929 . S
H1078 C1082 0.929 . S
H1079 C1088 0.929 . S
C1080 H1074 0.930 . S
C1080 C1081 1.367 . S
C1080 C1088 1.378 . S
C1081 C1080 1.367 . S
C1081 C1089 1.433 . S
C1082 H1078 0.929 . S
C1082 C1084 1.378 . S
C1082 C1086 1.350 . S
C1083 C1086 1.463 1_655 S
C1083 C1088 1.350 . S
C1083 N1091 1.427 . S
C1084 H1075 0.930 . S
C1084 C1082 1.378 . S
C1084 C1085 1.367 . S
C1085 C1084 1.367 . S
C1085 C1087 1.433 . S
C1086 C1082 1.350 . S
C1086 C1083 1.463 1_455 S
C1086 N1090 1.427 . S
C1087 H1077 0.929 . S
C1087 C1085 1.433 . S
C1087 N1090 1.384 . S
C1088 H1079 0.929 . S
C1088 C1080 1.378 . S
C1088 C1083 1.350 . S
C1089 H1076 0.929 . S
C1089 C1081 1.433 . S
C1089 N1091 1.384 . S
N1090 C1086 1.427 . S
N1090 C1087 1.384 . S
N1091 C1083 1.427 . S
N1091 C1089 1.384 . S
H1092 C1098 0.930 . S
H1093 C1102 0.930 . S
H1094 C1107 0.929 . S
H1095 C1105 0.929 . S
H1096 C1100 0.929 1_455 S
H1097 C1106 0.929 . S
C1098 H1092 0.930 . S
C1098 C1099 1.367 . S
C1098 C1106 1.378 . S
C1099 C1098 1.367 . S
C1099 C1107 1.433 . S
C1100 H1096 0.929 1_655 S
C1100 C1102 1.378 . S
C1100 C1104 1.350 . S
C1101 C1104 1.463 1_455 S
C1101 C1106 1.350 . S
C1101 N1109 1.427 . S
C1102 H1093 0.930 . S
C1102 C1100 1.378 . S
C1102 C1103 1.367 . S
C1103 C1102 1.367 . S
C1103 C1105 1.433 . S
C1104 C1100 1.350 . S
C1104 C1101 1.463 1_655 S
C1104 N1108 1.427 . S
C1105 H1095 0.929 . S
C1105 C1103 1.433 . S
C1105 N1108 1.384 . S
C1106 H1097 0.929 . S
C1106 C1098 1.378 . S
C1106 C1101 1.350 . S
C1107 H1094 0.929 . S
C1107 C1099 1.433 . S
C1107 N1109 1.384 . S
N1108 C1104 1.427 . S
N1108 C1105 1.384 . S
N1109 C1101 1.427 . S
N1109 C1107 1.384 . S
H1110 C1116 0.930 . S
H1111 C1120 0.930 . S
H1112 C1125 0.929 . S
H1113 C1123 0.929 . S
H1114 C1118 0.929 . S
H1115 C1124 0.929 . S
C1116 H1110 0.930 . S
C1116 C1117 1.367 . S
C1116 C1124 1.378 . S
C1117 C1116 1.367 . S
C1117 C1125 1.433 . S
C1118 H1114 0.929 . S
C1118 C1120 1.378 . S
C1118 C1122 1.350 . S
C1119 C1122 1.463 . S
C1119 C1124 1.350 . S
C1119 N1127 1.427 . S
C1120 H1111 0.930 . S
C1120 C1118 1.378 . S
C1120 C1121 1.367 . S
C1121 C1120 1.367 . S
C1121 C1123 1.433 . S
C1122 C1118 1.350 . S
C1122 C1119 1.463 . S
C1122 N1126 1.427 . S
C1123 H1113 0.929 . S
C1123 C1121 1.433 . S
C1123 N1126 1.384 . S
C1124 H1115 0.929 . S
C1124 C1116 1.378 . S
C1124 C1119 1.350 . S
C1125 H1112 0.929 . S
C1125 C1117 1.433 . S
C1125 N1127 1.384 . S
N1126 C1122 1.427 . S
N1126 C1123 1.384 . S
N1127 C1119 1.427 . S
N1127 C1125 1.384 . S
H1128 C1134 0.930 . S
H1129 C1138 0.930 . S
H1130 C1143 0.929 . S
H1131 C1141 0.929 . S
H1132 C1136 0.929 . S
H1133 C1142 0.929 . S
C1134 H1128 0.930 . S
C1134 C1135 1.367 . S
C1134 C1142 1.378 . S
C1135 C1134 1.367 . S
C1135 C1143 1.433 . S
C1136 H1132 0.929 . S
C1136 C1138 1.378 . S
C1136 C1140 1.350 . S
C1137 C1140 1.463 . S
C1137 C1142 1.350 . S
C1137 N1145 1.427 . S
C1138 H1129 0.930 . S
C1138 C1136 1.378 . S
C1138 C1139 1.367 . S
C1139 C1138 1.367 . S
C1139 C1141 1.433 . S
C1140 C1136 1.350 . S
C1140 C1137 1.463 . S
C1140 N1144 1.427 . S
C1141 H1131 0.929 . S
C1141 C1139 1.433 . S
C1141 N1144 1.384 . S
C1142 H1133 0.929 . S
C1142 C1134 1.378 . S
C1142 C1137 1.350 . S
C1143 H1130 0.929 . S
C1143 C1135 1.433 . S
C1143 N1145 1.384 . S
N1144 C1140 1.427 . S
N1144 C1141 1.384 . S
N1145 C1137 1.427 . S
N1145 C1143 1.384 . S
H1146 C1152 0.930 . S
H1147 C1156 0.930 . S
H1148 C1161 0.929 . S
H1149 C1159 0.929 . S
H1150 C1154 0.929 . S
H1151 C1160 0.929 . S
C1152 H1146 0.930 . S
C1152 C1153 1.367 . S
C1152 C1160 1.378 . S
C1153 C1152 1.367 . S
C1153 C1161 1.433 . S
C1154 H1150 0.929 . S
C1154 C1156 1.378 . S
C1154 C1158 1.350 . S
C1155 C1158 1.463 1_565 S
C1155 C1160 1.350 . S
C1155 N1163 1.427 . S
C1156 H1147 0.930 . S
C1156 C1154 1.378 . S
C1156 C1157 1.367 . S
C1157 C1156 1.367 . S
C1157 C1159 1.433 . S
C1158 C1154 1.350 . S
C1158 C1155 1.463 1_545 S
C1158 N1162 1.427 . S
C1159 H1149 0.929 . S
C1159 C1157 1.433 . S
C1159 N1162 1.384 . S
C1160 H1151 0.929 . S
C1160 C1152 1.378 . S
C1160 C1155 1.350 . S
C1161 H1148 0.929 . S
C1161 C1153 1.433 . S
C1161 N1163 1.384 . S
N1162 C1158 1.427 . S
N1162 C1159 1.384 . S
N1163 C1155 1.427 . S
N1163 C1161 1.384 . S
H1164 C1170 0.930 . S
H1165 C1174 0.930 . S
H1166 C1179 0.929 . S
H1167 C1177 0.929 . S
H1168 C1172 0.929 . S
H1169 C1178 0.929 . S
C1170 H1164 0.930 . S
C1170 C1171 1.367 . S
C1170 C1178 1.378 . S
C1171 C1170 1.367 . S
C1171 C1179 1.433 . S
C1172 H1168 0.929 . S
C1172 C1174 1.378 . S
C1172 C1176 1.350 . S
C1173 C1176 1.463 1_565 S
C1173 C1178 1.350 . S
C1173 N1181 1.427 . S
C1174 H1165 0.930 . S
C1174 C1172 1.378 . S
C1174 C1175 1.367 . S
C1175 C1174 1.367 . S
C1175 C1177 1.433 . S
C1176 C1172 1.350 . S
C1176 C1173 1.463 1_545 S
C1176 N1180 1.427 . S
C1177 H1167 0.929 . S
C1177 C1175 1.433 . S
C1177 N1180 1.384 . S
C1178 H1169 0.929 . S
C1178 C1170 1.378 . S
C1178 C1173 1.350 . S
C1179 H1166 0.929 . S
C1179 C1171 1.433 . S
C1179 N1181 1.384 . S
N1180 C1176 1.427 . S
N1180 C1177 1.384 . S
N1181 C1173 1.427 . S
N1181 C1179 1.384 . S
H1182 C1188 0.930 . S
H1183 C1192 0.930 . S
H1184 C1197 0.929 . S
H1185 C1195 0.929 . S
H1186 C1190 0.929 . S
H1187 C1196 0.929 . S
C1188 H1182 0.930 . S
C1188 C1189 1.367 . S
C1188 C1196 1.378 . S
C1189 C1188 1.367 . S
C1189 C1197 1.433 . S
C1190 H1186 0.929 . S
C1190 C1192 1.378 . S
C1190 C1194 1.350 . S
C1191 C1194 1.463 . S
C1191 C1196 1.350 . S
C1191 N1199 1.427 . S
C1192 H1183 0.930 . S
C1192 C1190 1.378 . S
C1192 C1193 1.367 . S
C1193 C1192 1.367 . S
C1193 C1195 1.433 . S
C1194 C1190 1.350 . S
C1194 C1191 1.463 . S
C1194 N1198 1.427 . S
C1195 H1185 0.929 . S
C1195 C1193 1.433 . S
C1195 N1198 1.384 . S
C1196 H1187 0.929 . S
C1196 C1188 1.378 . S
C1196 C1191 1.350 . S
C1197 H1184 0.929 . S
C1197 C1189 1.433 . S
C1197 N1199 1.384 . S
N1198 C1194 1.427 . S
N1198 C1195 1.384 . S
N1199 C1191 1.427 . S
N1199 C1197 1.384 . S
C343 C121 1.253 . S
C347 C8 1.210 . S
C361 C22 1.227 . S
C365 C163 1.260 . S
C379 C36 1.221 . S
C383 C135 1.262 . S
C397 C50 1.226 . S
C401 C149 1.261 . S
C415 C64 1.213 . S
C419 C9 1.259 . S
C433 C23 1.262 . S
C437 C78 1.222 . S
C451 C92 1.222 . S
C455 C37 1.256 . S
C469 C51 1.254 . S
C473 C106 1.218 . S
C487 C65 1.262 . S
C491 C120 1.224 . S
C505 C93 1.262 . S
C509 C134 1.221 . S
C523 C148 1.219 . S
C527 C107 1.254 . S
C541 C79 1.254 . S
C545 C162 1.208 . S
C559 C289 1.258 . S
C563 C176 1.225 . S
C577 C190 1.226 . S
C581 C331 1.258 . S
C595 C204 1.208 . S
C599 C303 1.255 . S
C613 C317 1.253 . S
C617 C218 1.211 . S
C631 C232 1.208 . S
C635 C177 1.254 . S
C649 C191 1.258 . S
C653 C246 1.211 . S
C667 C205 1.261 . S
C671 C260 1.226 . S
C685 C274 1.221 . S
C689 C219 1.262 . S
C703 C288 1.218 . S
C707 C233 1.254 . S
C721 C261 1.262 . S
C725 C302 1.220 . S
C739 C275 1.262 . S
C743 C316 1.225 . S
C757 C330 1.212 . S
C761 C247 1.253 . S
C775 C314 1.503 . S
C779 C7 1.546 . S
C793 C300 1.501 . S
C797 C21 1.554 . S
C811 C328 1.513 . S
C815 C35 1.553 . S
C829 C49 1.555 . S
C833 C286 1.503 . S
C847 C63 1.550 . S
C851 C188 1.512 . S
C865 C174 1.500 . S
C869 C77 1.553 . S
C883 C216 1.497 . S
C887 C91 1.550 . S
C901 C202 1.503 . S
C905 C105 1.546 . S
C919 C119 1.547 . S
C923 C258 1.499 . S
C937 C230 1.499 . S
C941 C133 1.547 . S
C955 C244 1.513 . S
C959 C147 1.551 . S
C973 C272 1.505 . S
C977 C161 1.555 . S
C991 C146 1.499 . S
C995 C175 1.552 . S
C1009 C132 1.513 . S
C1013 C189 1.551 . S
C1027 C203 1.549 . S
C1031 C160 1.511 . S
C1045 C118 1.513 . S
C1049 C217 1.554 . S
C1063 C231 1.546 . S
C1067 C20 1.504 . S
C1081 C245 1.555 . S
C1085 C6 1.504 . S
C1099 C259 1.555 . S
C1103 C48 1.510 . S
C1117 C273 1.546 . S
C1121 C34 1.504 . S
C1135 C287 1.555 . S
C1139 C90 1.505 . S
C1153 C301 1.546 . S
C1157 C62 1.503 . S
C1171 C76 1.498 . S
C1175 C315 1.551 . S
C1189 C329 1.552 . S
C1193 C104 1.498 . S
