# Generated by pormake.
# Topology wko, (6)-cn, num edge types: 1
# Building blocks:
#     Node 0, Type 0, BuildingBlock: IZENUY_clean_sbu_0, # of connection points: 6
#     Node 1, Type 0, BuildingBlock: IZENUY_clean_sbu_0, # of connection points: 6
#     Node 2, Type 0, BuildingBlock: IZENUY_clean_sbu_0, # of connection points: 6
#     Node 3, Type 0, BuildingBlock: IZENUY_clean_sbu_0, # of connection points: 6
#     Node 4, Type 0, BuildingBlock: IZENUY_clean_sbu_0, # of connection points: 6
#     Node 5, Type 0, BuildingBlock: IZENUY_clean_sbu_0, # of connection points: 6
#     Node 6, Type 0, BuildingBlock: IZENUY_clean_sbu_0, # of connection points: 6
#     Node 7, Type 0, BuildingBlock: IZENUY_clean_sbu_0, # of connection points: 6
#     Node 8, Type 0, BuildingBlock: IZENUY_clean_sbu_0, # of connection points: 6
#     Node 9, Type 0, BuildingBlock: IZENUY_clean_sbu_0, # of connection points: 6
#     Node 10, Type 0, BuildingBlock: IZENUY_clean_sbu_0, # of connection points: 6
#     Node 11, Type 0, BuildingBlock: IZENUY_clean_sbu_0, # of connection points: 6
#     Edge 12, Type (0, 0), BuildingBlock: AJUNOK_clean_linker_0, # of connection points: 2
#     Edge 13, Type (0, 0), BuildingBlock: AJUNOK_clean_linker_0, # of connection points: 2
#     Edge 14, Type (0, 0), BuildingBlock: AJUNOK_clean_linker_0, # of connection points: 2
#     Edge 15, Type (0, 0), BuildingBlock: AJUNOK_clean_linker_0, # of connection points: 2
#     Edge 16, Type (0, 0), BuildingBlock: AJUNOK_clean_linker_0, # of connection points: 2
#     Edge 17, Type (0, 0), BuildingBlock: AJUNOK_clean_linker_0, # of connection points: 2
#     Edge 18, Type (0, 0), BuildingBlock: AJUNOK_clean_linker_0, # of connection points: 2
#     Edge 19, Type (0, 0), BuildingBlock: AJUNOK_clean_linker_0, # of connection points: 2
#     Edge 20, Type (0, 0), BuildingBlock: AJUNOK_clean_linker_0, # of connection points: 2
#     Edge 21, Type (0, 0), BuildingBlock: AJUNOK_clean_linker_0, # of connection points: 2
#     Edge 22, Type (0, 0), BuildingBlock: AJUNOK_clean_linker_0, # of connection points: 2
#     Edge 23, Type (0, 0), BuildingBlock: AJUNOK_clean_linker_0, # of connection points: 2
#     Edge 24, Type (0, 0), BuildingBlock: AJUNOK_clean_linker_0, # of connection points: 2
#     Edge 25, Type (0, 0), BuildingBlock: AJUNOK_clean_linker_0, # of connection points: 2
#     Edge 26, Type (0, 0), BuildingBlock: AJUNOK_clean_linker_0, # of connection points: 2
#     Edge 27, Type (0, 0), BuildingBlock: AJUNOK_clean_linker_0, # of connection points: 2
#     Edge 28, Type (0, 0), BuildingBlock: AJUNOK_clean_linker_0, # of connection points: 2
#     Edge 29, Type (0, 0), BuildingBlock: AJUNOK_clean_linker_0, # of connection points: 2
#     Edge 30, Type (0, 0), BuildingBlock: AJUNOK_clean_linker_0, # of connection points: 2
#     Edge 31, Type (0, 0), BuildingBlock: AJUNOK_clean_linker_0, # of connection points: 2
#     Edge 32, Type (0, 0), BuildingBlock: AJUNOK_clean_linker_0, # of connection points: 2
#     Edge 33, Type (0, 0), BuildingBlock: AJUNOK_clean_linker_0, # of connection points: 2
#     Edge 34, Type (0, 0), BuildingBlock: AJUNOK_clean_linker_0, # of connection points: 2
#     Edge 35, Type (0, 0), BuildingBlock: AJUNOK_clean_linker_0, # of connection points: 2
#     Edge 36, Type (0, 0), BuildingBlock: AJUNOK_clean_linker_0, # of connection points: 2
#     Edge 37, Type (0, 0), BuildingBlock: AJUNOK_clean_linker_0, # of connection points: 2
#     Edge 38, Type (0, 0), BuildingBlock: AJUNOK_clean_linker_0, # of connection points: 2
#     Edge 39, Type (0, 0), BuildingBlock: AJUNOK_clean_linker_0, # of connection points: 2
#     Edge 40, Type (0, 0), BuildingBlock: AJUNOK_clean_linker_0, # of connection points: 2
#     Edge 41, Type (0, 0), BuildingBlock: AJUNOK_clean_linker_0, # of connection points: 2
#     Edge 42, Type (0, 0), BuildingBlock: AJUNOK_clean_linker_0, # of connection points: 2
#     Edge 43, Type (0, 0), BuildingBlock: AJUNOK_clean_linker_0, # of connection points: 2
#     Edge 44, Type (0, 0), BuildingBlock: AJUNOK_clean_linker_0, # of connection points: 2
#     Edge 45, Type (0, 0), BuildingBlock: AJUNOK_clean_linker_0, # of connection points: 2
#     Edge 46, Type (0, 0), BuildingBlock: AJUNOK_clean_linker_0, # of connection points: 2
#     Edge 47, Type (0, 0), BuildingBlock: AJUNOK_clean_linker_0, # of connection points: 2
# Relax obj value: 0.319
# Max RMSD: 0.278
# Mean RMSD: 0.278
data_MOF--net-wko--node1-IZENUY_clean_sbu_0--edge1-AJUNOK_clean_linker_0
_symmetry_space_group_name_H-M    P1
_symmetry_Int_Tables_number       1
_symmetry_cell_setting            triclinic
loop_
_symmetry_equiv_pos_as_xyz
'x, y, z'
_cell_length_a     33.397371
_cell_length_b     33.423874
_cell_length_c     21.923478
_cell_angle_alpha  89.999351
_cell_angle_beta   89.978949
_cell_angle_gamma 119.94013
loop_
_atom_site_label
_atom_site_type_symbol
_atom_site_fract_x
_atom_site_fract_y
_atom_site_fract_z
_atom_type_partial_charge
Fe0 Fe 0.39224 0.37862 0.41708 0.0
Fe1 Fe 0.34646 0.27776 0.45691 0.0
O2 O 0.39156 0.32514 0.41729 0.0
Fe3 Fe 0.43635 0.32065 0.3797 0.0
O4 O 0.48255 0.37011 0.41978 0.0
O5 O 0.45408 0.41545 0.40537 0.0
O6 O 0.40277 0.38421 0.49955 0.0
C7 C 0.3771 0.35263 0.53672 0.0
C8 C 0.40752 0.36738 0.29748 0.0
O9 O 0.34451 0.31454 0.51714 0.0
C10 C 0.36086 0.23441 0.35297 0.0
O11 O 0.33007 0.35412 0.42839 0.0
O12 O 0.30101 0.2802 0.41375 0.0
O13 O 0.43697 0.35616 0.3151 0.0
O14 O 0.38253 0.37388 0.3354 0.0
C15 C 0.42416 0.27339 0.49164 0.0
O16 O 0.3421 0.23288 0.40388 0.0
O17 O 0.39593 0.27101 0.33536 0.0
C18 C 0.29564 0.31494 0.41744 0.0
O19 O 0.38696 0.27219 0.50467 0.0
O20 O 0.44176 0.28426 0.43876 0.0
C21 C 0.48744 0.40991 0.41942 0.0
Fe22 Fe 0.14277 0.41924 0.54362 0.0
Fe23 Fe 1.03992 0.37334 0.57526 0.0
O24 O 0.09351 0.375 0.58166 0.0
Fe25 Fe 0.09691 0.33294 0.62719 0.0
O26 O 0.14078 0.37664 0.67466 0.0
O27 O 0.18409 0.4267 0.60446 0.0
O28 O 0.13714 0.46578 0.57977 0.0
C29 C 0.10156 0.46949 0.57398 0.0
C30 C 0.15584 0.34443 0.52575 0.0
O31 O 0.06383 0.43451 0.55986 0.0
C32 C 1.01084 0.27771 0.58303 0.0
O33 O 0.10919 0.41772 0.4761 0.0
O34 O 1.03792 0.36128 0.49448 0.0
O35 O 0.13981 0.3288 0.57839 0.0
O36 O 0.15313 0.37783 0.50373 0.0
C37 C 0.04483 0.36132 0.69724 0.0
O38 O 1.00389 0.31132 0.58892 0.0
O39 O 0.05152 0.28451 0.58497 0.0
C40 C 0.06967 0.38666 0.45737 0.0
O41 O 1.04094 0.38597 0.65646 0.0
O42 O 0.05569 0.33105 0.68378 0.0
C43 C 0.17742 0.41214 0.65898 0.0
Fe44 Fe 0.70084 0.03449 0.75079 0.0
Fe45 Fe 0.8008 0.09632 0.79523 0.0
O46 O 0.75278 0.08841 0.7511 0.0
Fe47 Fe 0.75754 0.13607 0.70903 0.0
O48 O 0.69655 0.12016 0.71331 0.0
O49 O 0.66596 0.05977 0.77296 0.0
O50 O 0.7039 1.02396 0.83237 0.0
C51 C 0.72787 0.05163 0.87442 0.0
C52 C 0.71542 0.06495 0.62703 0.0
O53 O 0.76774 0.08535 0.8646 0.0
C54 C 0.84411 0.14144 0.69104 0.0
O55 O 0.72981 1.00255 0.72943 0.0
O56 O 0.78749 0.03592 0.79295 0.0
O57 O 0.74784 0.10532 0.63823 0.0
O58 O 0.69048 0.03775 0.66913 0.0
C59 C 0.79916 0.17735 0.81563 0.0
O60 O 0.8367 0.10869 0.727 0.0
O61 O 0.81965 0.16073 0.69437 0.0
C62 C 0.76057 1.00124 0.76126 0.0
O63 O 0.82273 0.15768 0.80889 0.0
O64 O 0.76689 0.16935 0.77906 0.0
C65 C 0.66392 0.09225 0.74701 0.0
Fe66 Fe 0.73945 0.77961 0.96078 0.0
Fe67 Fe 0.6502 0.73694 0.88186 0.0
O68 O 0.69429 0.73213 0.92124 0.0
Fe69 Fe 0.69287 0.67826 0.92352 0.0
O70 O 0.68174 0.67403 0.00588 0.0
O71 O 0.74078 0.7433 0.0222 0.0
O72 O 0.69886 0.78595 0.00722 0.0
C73 C 0.66166 0.78456 0.99357 0.0
C74 C 0.78971 0.74108 0.92327 0.0
O75 O 0.64401 0.77309 0.94072 0.0
C76 C 0.67922 0.68815 0.80261 0.0
O77 O 0.74448 0.82443 0.90721 0.0
O78 O 0.69109 0.78692 0.83816 0.0
O79 O 0.75498 0.70235 0.93546 0.0
O80 O 0.78498 0.77623 0.91875 0.0
C81 C 0.59761 0.64756 0.92203 0.0
O82 O 0.65089 0.70165 0.81753 0.0
O83 O 0.70303 0.68144 0.84217 0.0
C84 C 0.72551 0.82358 0.85677 0.0
O85 O 0.60292 0.68748 0.92062 0.0
O86 O 0.63112 0.64152 0.91129 0.0
C87 C 0.7076 0.70591 0.04253 0.0
Fe88 Fe 1.04323 0.67818 0.09138 0.0
Fe89 Fe 0.98604 0.72158 0.13207 0.0
O90 O 0.99045 0.67895 0.08911 0.0
Fe91 Fe 0.94313 0.63662 0.04586 0.0
O92 O 0.9447 0.588 0.08215 0.0
O93 O 1.01905 0.61715 0.07402 0.0
O94 O 1.03472 0.66352 0.1729 0.0
C95 C 1.0269 0.68716 0.21145 0.0
C96 C 1.02249 0.66937 0.96955 0.0
O97 O 1.02226 0.7207 0.19387 0.0
C98 C 0.93253 0.71295 0.02557 0.0
O99 O 0.0801 0.73964 0.1081 0.0
O100 O 1.03559 0.76946 0.09421 0.0
O101 O 0.98092 0.63961 0.9829 0.0
O102 O 0.05204 0.69207 0.01065 0.0
C103 C 0.90246 0.6425 0.15647 0.0
O104 O 0.94762 0.72859 0.07835 0.0
O105 O 0.93573 0.67957 0.00441 0.0
C106 C 0.07556 0.77435 0.09804 0.0
O107 O 0.93789 0.67827 0.17454 0.0
O108 O 0.89859 0.62819 0.10211 0.0
C109 C 0.97935 0.58258 0.07967 0.0
Fe110 Fe 0.33469 0.92783 0.2114 0.0
Fe111 Fe 0.39587 0.0306 0.24276 0.0
O112 O 0.34231 0.97842 0.24889 0.0
Fe113 Fe 0.29764 0.97761 0.29361 0.0
O114 O 0.29512 0.93298 0.34183 0.0
O115 O 0.29946 0.88765 0.27254 0.0
O116 O 0.38525 0.93062 0.24821 0.0
C117 C 0.42535 0.96517 0.24553 0.0
C118 C 0.24834 0.91838 0.1932 0.0
O119 O 0.43115 1.00388 0.22955 0.0
C120 C 0.33243 0.06419 0.24883 0.0
O121 O 0.36803 0.9601 0.14395 0.0
O122 O 0.38696 0.03267 0.16166 0.0
O123 O 0.24977 0.93566 0.24523 0.0
O124 O 0.28388 0.91986 0.17096 0.0
C125 C 0.37821 1.02785 0.36435 0.0
O126 O 0.37229 0.06912 0.25458 0.0
O127 O 0.29734 1.02423 0.25058 0.0
C128 C 0.37864 1.00015 0.12489 0.0
O129 O 0.40649 0.02978 0.32443 0.0
O130 O 0.33754 1.01801 0.35002 0.0
C131 C 0.29263 0.89553 0.32699 0.0
Fe132 Fe 0.69049 0.68269 0.42572 0.0
Fe133 Fe 0.78995 0.72747 0.37977 0.0
O134 O 0.74357 0.68276 0.42139 0.0
Fe135 Fe 0.74887 0.638 0.45748 0.0
O136 O 0.69774 0.59178 0.42008 0.0
O137 O 0.65359 0.62096 0.43818 0.0
O138 O 0.68196 0.67254 0.34354 0.0
C139 C 0.71152 0.69953 0.30514 0.0
C140 C 0.70461 0.66711 0.54403 0.0
O141 O 0.7517 0.73006 0.32198 0.0
C142 C 0.83615 0.7131 0.48033 0.0
O143 O 0.71525 0.74492 0.41511 0.0
O144 O 0.78952 0.77313 0.42488 0.0
O145 O 0.71587 0.63798 0.52514 0.0
O146 O 0.69777 0.69237 0.50715 0.0
C147 C 0.79231 0.64937 0.34222 0.0
O148 O 0.83643 0.73149 0.42962 0.0
O149 O 0.79998 0.67828 0.49926 0.0
C150 C 0.755 0.77901 0.42428 0.0
O151 O 0.79343 0.68665 0.33015 0.0
O152 O 0.78307 0.6321 0.39544 0.0
C153 C 0.65803 0.58654 0.42673 0.0
Fe154 Fe 0.09396 0.77299 0.53924 0.0
Fe155 Fe 0.14139 0.73565 0.62514 0.0
O156 O 0.09162 0.72871 0.58613 0.0
Fe157 Fe 1.03885 0.67603 0.59312 0.0
O158 O 1.03999 0.66356 0.51215 0.0
O159 O 0.05394 0.73259 0.4829 0.0
O160 O 0.1389 0.77396 0.49303 0.0
C161 C 0.17628 0.77724 0.51002 0.0
C162 C 1.00698 0.74047 0.58192 0.0
O163 O 0.18281 0.77048 0.56504 0.0
C164 C 0.06841 0.6942 0.711 0.0
O165 O 0.13572 0.82092 0.58783 0.0
O166 O 0.14934 0.7868 0.66437 0.0
O167 O 1.00125 0.70025 0.57823 0.0
O168 O 0.04726 0.77503 0.57978 0.0
C169 C 0.10278 0.64483 0.59255 0.0
O170 O 0.10805 0.70292 0.69237 0.0
O171 O 1.03649 0.68685 0.67363 0.0
C172 C 0.15166 0.82235 0.64089 0.0
O173 O 0.13797 0.6845 0.58905 0.0
O174 O 0.06482 0.64054 0.60955 0.0
C175 C 1.0434 0.6914 0.47062 0.0
Fe176 Fe 0.3905 1.02366 0.74426 0.0
Fe177 Fe 0.34825 0.08204 0.7046 0.0
O178 O 0.39053 0.07676 0.747 0.0
Fe179 Fe 0.43351 0.12376 0.78969 0.0
O180 O 0.4811 0.12161 0.75143 0.0
O181 O 0.45177 0.04728 0.75996 0.0
O182 O 0.40431 0.0319 0.66232 0.0
C183 C 0.38047 0.04009 0.62457 0.0
C184 C 0.40122 0.0446 0.86598 0.0
O185 O 0.34718 0.04462 0.64339 0.0
C186 C 0.3583 0.13561 0.81135 0.0
O187 O 0.3286 0.98772 0.72911 0.0
O188 O 0.30026 0.03353 0.74368 0.0
O189 O 0.43124 0.08591 0.85205 0.0
O190 O 0.3776 1.01514 0.82527 0.0
C191 C 0.42824 0.16432 0.67915 0.0
O192 O 0.34306 0.12163 0.75809 0.0
O193 O 0.39106 0.13126 0.83245 0.0
C194 C 0.29449 0.99323 0.73989 0.0
O195 O 0.39214 0.12918 0.66111 0.0
O196 O 0.44166 0.1685 0.73397 0.0
C197 C 0.48621 0.08676 0.75185 0.0
Fe198 Fe 0.3956 0.37559 0.9193 0.0
Fe199 Fe 0.29587 0.33078 0.87473 0.0
O200 O 0.34203 0.37465 0.91751 0.0
Fe201 Fe 0.33583 0.4177 0.95715 0.0
O202 O 0.38628 0.46567 0.92065 0.0
O203 O 0.43177 0.4372 0.93354 0.0
O204 O 0.40346 0.38745 0.8374 0.0
C205 C 0.37386 0.36082 0.79888 0.0
C206 C 0.38252 0.38836 0.03912 0.0
O207 O 0.33399 0.32978 0.81573 0.0
C208 C 0.24913 0.34166 0.97757 0.0
O209 O 0.37144 0.31358 0.9065 0.0
O210 O 0.29691 0.28417 0.91692 0.0
O211 O 0.36972 0.41693 0.02313 0.0
O212 O 0.3893 0.36425 1.00031 0.0
C213 C 0.29145 0.4087 0.84329 0.0
O214 O 0.24926 0.32518 0.92555 0.0
O215 O 0.28534 0.37542 0.99844 0.0
C216 C 0.33188 0.27896 0.91523 0.0
O217 O 0.29204 0.37279 0.82789 0.0
O218 O 0.30039 0.42411 0.89744 0.0
C219 C 0.42638 0.47144 0.92524 0.0
Fe220 Fe 0.04442 0.37872 0.07731 0.0
Fe221 Fe 0.98758 0.27812 0.03667 0.0
O222 O 0.99194 0.3251 0.07974 0.0
Fe223 Fe 0.94448 0.31957 0.12341 0.0
O224 O 0.94446 0.36839 0.08595 0.0
O225 O 1.01897 0.41506 0.09194 0.0
O226 O 1.03679 0.38444 0.99561 0.0
C227 C 1.03 0.35326 0.95739 0.0
C228 C 1.02348 0.36788 0.19916 0.0
O229 O 1.02448 0.31487 0.97535 0.0
C230 C 0.93542 0.2337 0.14403 0.0
O231 O 0.08157 0.35387 0.06263 0.0
O232 O 1.03672 0.27932 0.07505 0.0
O233 O 0.9819 0.35576 0.1856 0.0
O234 O 0.053 0.37456 0.15822 0.0
C235 C 0.9044 0.27423 0.01252 0.0
O236 O 0.94859 0.23278 0.09011 0.0
O237 O 0.93921 0.2704 0.16563 0.0
C238 C 0.07674 0.31442 0.07246 0.0
O239 O 0.94001 0.2744 0.99359 0.0
O240 O 0.89993 0.28231 0.06781 0.0
C241 C 0.97888 0.40848 0.08293 0.0
Fe242 Fe 0.6984 0.03399 0.25155 0.0
Fe243 Fe 0.74162 0.97632 0.21234 0.0
O244 O 0.69817 0.9808 0.25324 0.0
Fe245 Fe 0.6542 0.93302 0.29408 0.0
O246 O 0.60713 0.93569 0.25514 0.0
O247 O 0.63667 1.00997 0.26473 0.0
O248 O 0.68712 1.02797 0.16932 0.0
C249 C 0.71231 1.02114 0.13227 0.0
C250 C 0.68522 1.01057 0.37237 0.0
O251 O 0.74413 1.0145 0.15158 0.0
C252 C 0.7294 0.9215 0.31819 0.0
O253 O 0.76059 0.07029 0.23907 0.0
O254 O 0.78878 1.02438 0.25334 0.0
O255 O 0.65522 0.96965 0.35716 0.0
O256 O 0.70935 0.04079 0.33281 0.0
C257 C 0.66199 0.8946 0.18297 0.0
O258 O 0.74577 0.93614 0.2656 0.0
O259 O 0.69572 0.92483 0.33783 0.0
C260 C 0.79465 0.06476 0.24993 0.0
O261 O 0.6988 0.92983 0.16678 0.0
O262 O 0.64717 0.88942 0.23722 0.0
C263 C 0.60202 0.9705 0.25716 0.0
C264 C 0.43852 0.26711 0.60101 0.0
C265 C 0.44382 0.25749 0.53985 0.0
C266 C 0.44047 0.24052 0.64896 0.0
C267 C 0.44804 0.20368 0.63701 0.0
H268 H 0.4287 0.2927 0.6114 0.0
H269 H 0.43082 0.24549 0.69435 0.0
S270 S 0.47806 0.17353 0.48772 0.0
N271 N 0.46711 0.21546 0.47172 0.0
N272 N 0.47105 0.16534 0.56223 0.0
C273 C 0.46009 0.19813 0.57738 0.0
C274 C 0.4581 0.22527 0.52848 0.0
C275 C 0.23401 0.4315 0.81206 0.0
C276 C 0.27286 0.42759 0.79773 0.0
C277 C 0.20543 0.43214 0.76559 0.0
C278 C 0.2154 0.42972 0.70363 0.0
H279 H 0.22289 0.42903 0.85903 0.0
H280 H 0.1732 0.43036 0.77828 0.0
S281 S 0.31752 0.42731 0.6429 0.0
N282 N 0.32329 0.42758 0.71776 0.0
N283 N 0.26993 0.42958 0.63064 0.0
C284 C 0.25703 0.43141 0.68891 0.0
C285 C 0.28571 0.43007 0.73606 0.0
C286 C 0.82693 0.21473 0.97659 0.0
C287 C 0.86604 0.25849 0.96899 0.0
C288 C 0.7999 0.1905 0.92608 0.0
C289 C 0.81123 0.20944 0.86699 0.0
H290 H 0.82033 0.19707 0.02004 0.0
H291 H 0.77321 0.15492 0.93236 0.0
S292 S 0.90383 0.32698 0.82631 0.0
N293 N 0.90984 0.32311 0.90055 0.0
N294 N 0.85913 0.27709 0.80559 0.0
C295 C 0.84658 0.25527 0.8604 0.0
C296 C 0.87405 0.27997 0.91163 0.0
C297 C 0.64532 0.81707 0.15058 0.0
C298 C 0.64181 0.85639 0.13897 0.0
C299 C 0.64537 0.7897 0.10231 0.0
C300 C 0.64218 0.80102 0.0412 0.0
H301 H 0.65316 0.81033 0.19612 0.0
H302 H 0.6524 0.76209 0.11246 0.0
S303 S 0.61889 0.89279 0.98942 0.0
N304 N 0.62487 0.89958 0.0642 0.0
N305 N 0.62555 0.84817 0.97312 0.0
C306 C 0.63202 0.83624 0.02996 0.0
C307 C 0.63192 0.86413 0.07916 0.0
C308 C 0.84099 0.61667 0.30578 0.0
C309 C 0.80813 0.63006 0.2933 0.0
C310 C 0.86817 0.61422 0.2586 0.0
C311 C 0.86257 0.62425 0.19781 0.0
H312 H 0.84926 0.61305 0.3525 0.0
H313 H 0.8967 0.60895 0.27049 0.0
S314 S 0.7748 0.65122 0.14026 0.0
N315 N 0.76635 0.64585 0.21477 0.0
N316 N 0.81734 0.64081 0.12665 0.0
C317 C 0.82588 0.63156 0.18403 0.0
C318 C 0.79865 0.63464 0.23182 0.0
C319 C 0.20608 0.78616 0.40428 0.0
C320 C 0.21479 0.79872 0.46628 0.0
C321 C 0.23515 0.81547 0.35832 0.0
C322 C 0.27323 0.85856 0.37317 0.0
H323 H 0.17449 0.75531 0.39102 0.0
H324 H 0.22502 0.80648 0.31113 0.0
S325 S 0.31468 0.9042 0.5287 0.0
N326 N 0.26737 0.85404 0.54019 0.0
N327 N 0.32172 0.90957 0.45397 0.0
C328 C 0.28485 0.86924 0.4351 0.0
C329 C 0.25566 0.83912 0.48178 0.0
C330 C 0.57351 0.45769 0.40152 0.0
C331 C 0.53289 0.45189 0.42926 0.0
C332 C 0.61457 0.50102 0.40189 0.0
C333 C 0.61615 0.53976 0.42996 0.0
H334 H 0.57294 0.42931 0.37691 0.0
H335 H 0.64466 0.50456 0.37825 0.0
S336 S 0.52047 0.53996 0.51684 0.0
N337 N 0.49807 0.48682 0.49061 0.0
N338 N 0.57437 0.56731 0.49241 0.0
C339 C 0.57625 0.53322 0.4609 0.0
C340 C 0.53489 0.48955 0.46026 0.0
C341 C 0.1442 0.55647 0.5911 0.0
C342 C 0.10335 0.51513 0.5763 0.0
C343 C 0.14494 0.59912 0.59417 0.0
C344 C 0.1048 0.60179 0.58273 0.0
H345 H 0.17561 0.55583 0.6012 0.0
H346 H 0.17665 0.62979 0.60734 0.0
S347 S 0.98997 0.50492 0.53695 0.0
N348 N 1.02227 0.48098 0.54682 0.0
N349 N 1.02422 0.56013 0.55172 0.0
C350 C 0.06438 0.56108 0.56586 0.0
C351 C 0.06347 0.51808 0.56297 0.0
C352 C 0.58037 0.05611 0.77482 0.0
C353 C 0.62025 0.09407 0.75058 0.0
C354 C 0.53778 0.05463 0.775 0.0
C355 C 0.53285 0.0912 0.75158 0.0
H356 H 0.58161 1.02658 0.79282 0.0
H357 H 0.50834 1.02417 0.79386 0.0
S358 S 0.62671 0.19984 0.68536 0.0
N359 N 0.65232 0.17017 0.70402 0.0
N360 N 0.57195 0.16735 0.70512 0.0
C361 C 0.57253 0.13004 0.72858 0.0
C362 C 0.61617 0.13142 0.72784 0.0
C363 C 0.47061 0.55696 0.89991 0.0
C364 C 0.46782 0.51841 0.93016 0.0
C365 C 0.51195 0.60012 0.90024 0.0
C366 C 0.5516 0.60592 0.93092 0.0
H367 H 0.44144 0.55329 0.87381 0.0
H368 H 0.51359 0.62829 0.87385 0.0
S369 S 0.55996 0.51841 0.02549 0.0
N370 N 0.50689 0.49114 0.99813 0.0
N371 N 0.58375 0.57125 0.9977 0.0
C372 C 0.54815 0.5685 0.96428 0.0
C373 C 0.50651 0.52504 0.96419 0.0
C374 C 0.93928 0.45464 0.10538 0.0
C375 C 0.97356 0.44965 0.0744 0.0
C376 C 0.93977 0.49718 0.1053 0.0
C377 C 0.97458 0.53593 0.0743 0.0
H378 H 0.91342 0.42632 0.13227 0.0
H379 H 0.91408 0.50031 0.13177 0.0
S380 S 0.06686 0.53773 0.97728 0.0
N381 N 1.03939 0.48509 0.00598 0.0
N382 N 1.04024 0.56414 0.00505 0.0
C383 C 1.00695 0.53005 0.03985 0.0
C384 C 1.00646 0.48717 0.04012 0.0
C385 C 0.47304 0.9262 0.23057 0.0
C386 C 0.46734 0.96165 0.25636 0.0
C387 C 0.51633 0.9282 0.23217 0.0
C388 C 0.55517 0.96576 0.25946 0.0
H389 H 0.44462 0.89802 0.20657 0.0
H390 H 0.5198 0.90113 0.20999 0.0
S391 S 0.55553 0.06319 0.3421 0.0
N392 N 0.5024 0.03229 0.31577 0.0
N393 N 0.58283 0.03611 0.31944 0.0
C394 C 0.54871 0.99977 0.28855 0.0
C395 C 0.50507 0.99769 0.28682 0.0
C396 C 0.36181 0.31742 0.63929 0.0
C397 C 0.38323 0.35791 0.60376 0.0
C398 C 0.36292 0.3191 0.70257 0.0
C399 C 0.38497 0.36135 0.73374 0.0
H400 H 0.34308 0.28365 0.61822 0.0
H401 H 0.34438 0.28681 0.72736 0.0
S402 S 0.45053 0.4774 0.66349 0.0
N403 N 0.43112 0.44165 0.60475 0.0
N404 N 0.43212 0.44478 0.7253 0.0
C405 C 0.40923 0.40219 0.69955 0.0
C406 C 0.40848 0.40048 0.63416 0.0
C407 C 1.00366 0.31966 0.85499 0.0
C408 C 1.02874 0.35959 0.89081 0.0
C409 C 1.00579 0.32154 0.7916 0.0
C410 C 1.03293 0.36344 0.76116 0.0
H411 H 0.98322 0.28608 0.87608 0.0
H412 H 0.98787 0.28948 0.76623 0.0
S413 S 0.10187 0.47865 0.8325 0.0
N414 N 0.07865 0.44302 0.89086 0.0
N415 N 0.08295 0.44646 0.77037 0.0
C416 C 0.0557 0.40425 0.79568 0.0
C417 C 0.05352 0.40236 0.86095 0.0
C418 C 0.70044 0.06208 0.97561 0.0
C419 C 0.7153 0.03805 0.9378 0.0
C420 C 0.69651 0.05464 0.03895 0.0
C421 C 0.70863 1.02394 0.06566 0.0
H422 H 0.69338 0.08778 0.95636 0.0
H423 H 0.68653 0.07479 0.06724 0.0
S424 S 0.74683 0.95105 0.98414 0.0
N425 N 0.73902 0.98066 0.92987 0.0
N426 N 0.73361 0.96753 0.04833 0.0
C427 C 0.72185 0.99859 0.02732 0.0
C428 C 0.72472 1.00545 0.96336 0.0
C429 C 0.72304 0.74102 0.2081 0.0
C430 C 0.70032 0.69904 0.23991 0.0
C431 C 0.72367 0.74221 0.14469 0.0
C432 C 0.70132 0.70148 0.10972 0.0
H433 H 0.74245 0.77339 0.23245 0.0
H434 H 0.74293 0.77572 0.12305 0.0
S435 S 0.63242 0.58267 0.1712 0.0
N436 N 0.65163 0.61571 0.23253 0.0
N437 N 0.652 0.61794 0.11198 0.0
C438 C 0.67539 0.6593 0.14079 0.0
C439 C 0.67501 0.65809 0.20623 0.0
C440 C 0.05456 0.66191 0.3708 0.0
C441 C 1.02928 0.67604 0.40756 0.0
C442 C 0.05176 0.66252 0.3066 0.0
C443 C 1.02448 0.67834 0.278 0.0
H444 H 0.07909 0.65377 0.3915 0.0
H445 H 0.0734 0.65373 0.2795 0.0
S446 S 0.94744 0.71313 0.35577 0.0
N447 N 0.97207 0.70027 0.41166 0.0
N448 N 0.96839 0.70404 0.2925 0.0
C449 C 0.99682 0.68942 0.31506 0.0
C450 C 0.99878 0.68752 0.37953 0.0
C451 C 0.40995 1.01882 0.46386 0.0
C452 C 0.39201 0.04122 0.42812 0.0
C453 C 0.40884 1.02037 0.52815 0.0
C454 C 0.38895 0.04364 0.55784 0.0
H455 H 0.42158 0.99725 0.44227 0.0
H456 H 0.42069 1.00084 0.55443 0.0
S457 S 0.34594 0.1151 0.4831 0.0
N458 N 0.36124 0.09328 0.42629 0.0
N459 N 0.35712 0.09495 0.54551 0.0
C460 C 0.37451 0.06914 0.52183 0.0
C461 C 0.37665 0.06831 0.45732 0.0
C462 C 0.31112 0.14787 0.33953 0.0
C463 C 0.34545 0.19102 0.31666 0.0
C464 C 0.30275 0.10605 0.31262 0.0
C465 C 0.32851 0.10572 0.26195 0.0
H466 H 0.29251 0.14615 0.38082 0.0
H467 H 0.27891 0.07391 0.33499 0.0
S468 S 0.41592 0.20821 0.17726 0.0
N469 N 0.40018 0.22995 0.23386 0.0
N470 N 0.38517 0.15162 0.18524 0.0
C471 C 0.35982 0.14829 0.23548 0.0
C472 C 0.36807 0.1908 0.26224 0.0
C473 C 0.23781 0.34061 0.40801 0.0
C474 C 0.25016 0.30972 0.43347 0.0
C475 C 0.20487 0.34899 0.43595 0.0
C476 C 0.18358 0.3277 0.49163 0.0
H477 H 0.25605 0.36081 0.36827 0.0
H478 H 0.1983 0.37462 0.4154 0.0
S479 S 0.2013 0.24068 0.57429 0.0
N480 N 0.236 0.25482 0.51466 0.0
N481 N 0.17469 0.27093 0.56805 0.0
C482 C 0.1934 0.29428 0.51536 0.0
C483 C 0.22652 0.28524 0.48613 0.0
C484 C 0.92968 0.17388 0.67617 0.0
C485 C 0.88654 0.16454 0.65296 0.0
C486 C 0.97119 0.20698 0.64817 0.0
C487 C 0.97072 0.23154 0.59612 0.0
H488 H 0.9315 0.15877 0.71906 0.0
H489 H 1.00356 0.21663 0.67093 0.0
S490 S 0.86692 0.21273 0.51102 0.0
N491 N 0.8461 0.17704 0.5696 0.0
N492 N 0.92372 0.23917 0.5178 0.0
C493 C 0.92788 0.21878 0.56919 0.0
C494 C 0.88589 0.18531 0.59744 0.0
C495 C 0.78511 0.95274 0.82145 0.0
C496 C 0.75777 0.95575 0.77447 0.0
C497 C 0.77624 0.90996 0.84526 0.0
C498 C 0.73995 0.86791 0.82291 0.0
H499 H 0.81196 0.98377 0.84285 0.0
H500 H 0.79678 0.91014 0.88362 0.0
S501 S 0.66397 0.85598 0.69173 0.0
N502 N 0.69694 0.91228 0.7007 0.0
N503 N 0.68072 0.83219 0.74443 0.0
C504 C 0.71507 0.87026 0.77209 0.0
C505 C 0.72391 0.91396 0.74817 0.0
C506 C 0.84526 0.71234 0.91289 0.0
C507 C 0.83536 0.74552 0.93671 0.0
C508 C 0.8793 0.70468 0.93899 0.0
C509 C 0.90431 0.72911 0.9912 0.0
H510 H 0.82439 0.68997 0.87612 0.0
H511 H 0.88373 0.67714 0.92028 0.0
S512 S 0.89419 0.82291 0.06785 0.0
N513 N 0.85579 0.80572 0.01224 0.0
N514 N 0.91928 0.7912 0.06204 0.0
C515 C 0.89686 0.76468 0.01288 0.0
C516 C 0.86256 0.77288 0.98553 0.0
C517 C 0.20136 0.86447 0.10858 0.0
C518 C 0.20307 0.88962 0.16125 0.0
C519 C 0.15921 0.83012 0.08429 0.0
C520 C 0.11676 0.82002 0.11047 0.0
H521 H 0.23288 0.86912 0.08796 0.0
H522 H 0.15994 0.80923 0.04695 0.0
S523 S 0.10093 0.87933 0.24335 0.0
N524 N 0.15755 0.90471 0.23489 0.0
N525 N 0.07854 0.84049 0.1884 0.0
C526 C 0.11754 0.84736 0.1597 0.0
C527 C 0.16058 0.88206 0.18522 0.0
C528 C 0.9653 0.76937 0.51621 0.0
C529 C 0.96587 0.74504 0.56835 0.0
C530 C 0.92329 0.76127 0.49005 0.0
C531 C 0.88024 0.72859 0.51512 0.0
H532 H 0.99723 0.79178 0.49237 0.0
H533 H 0.92465 0.77863 0.44774 0.0
S534 S 0.86407 0.66255 0.65857 0.0
N535 N 0.92056 0.69169 0.64846 0.0
N536 N 0.84197 0.67721 0.60125 0.0
C537 C 0.8809 0.70751 0.57077 0.0
C538 C 0.92356 0.7155 0.59677 0.0
C539 C 0.20196 0.86879 0.72852 0.0
C540 C 0.17984 0.86753 0.67305 0.0
C541 C 0.23595 0.91061 0.75395 0.0
C542 C 0.24854 0.95311 0.72607 0.0
H543 H 0.19527 0.83709 0.75072 0.0
H544 H 0.25475 0.90948 0.7936 0.0
S545 S 0.19781 0.97022 0.58495 0.0
N546 N 0.1704 0.91365 0.59438 0.0
N547 N 0.23381 0.99205 0.64307 0.0
C548 C 0.22413 0.95288 0.67371 0.0
C549 C 0.1899 0.91019 0.64705 0.0
C550 C 0.3673 0.1887 0.89836 0.0
C551 C 0.34269 0.16407 0.84607 0.0
C552 C 0.36008 0.2229 0.92475 0.0
C553 C 0.32723 0.23336 0.90108 0.0
H554 H 0.39463 0.18383 0.91688 0.0
H555 H 0.38253 0.24344 0.96166 0.0
S556 S 0.24938 0.17544 0.76995 0.0
N557 N 0.28064 0.14986 0.77546 0.0
N558 N 0.267 0.21371 0.82572 0.0
C559 C 0.29962 0.20648 0.85222 0.0
C560 C 0.30736 0.17199 0.82461 0.0
C561 C 0.16191 0.29435 0.98361 0.0
C562 C 0.20444 0.32594 0.01093 0.0
C563 C 0.11947 0.28634 0.00805 0.0
C564 C 0.11789 0.30968 0.06063 0.0
H565 H 0.16137 0.27779 0.94092 0.0
H566 H 0.08806 0.26475 0.98273 0.0
S567 S 0.21775 0.38981 0.15553 0.0
N568 N 0.24096 0.37563 0.09903 0.0
N569 N 0.16152 0.3615 0.14291 0.0
C570 C 0.15954 0.33838 0.09098 0.0
C571 C 0.20267 0.34618 0.06678 0.0
C572 C 0.85193 0.14825 0.26058 0.0
C573 C 0.84063 0.10505 0.2359 0.0
C574 C 0.88538 0.18962 0.23336 0.0
C575 C 0.90833 0.18967 0.17924 0.0
H576 H 0.83233 0.15014 0.2988 0.0
H577 H 0.89079 0.22176 0.25275 0.0
S578 S 0.89482 0.08517 0.10034 0.0
N579 N 0.85812 0.06452 0.15792 0.0
N580 N 0.9206 0.14196 0.10608 0.0
C581 C 0.89989 0.14651 0.15688 0.0
C582 C 0.86618 0.10433 0.18533 0.0
C583 C 0.72754 0.83553 0.43358 0.0
C584 C 0.76041 0.8249 0.41045 0.0
C585 C 0.72036 0.86948 0.40639 0.0
C586 C 0.74511 0.89364 0.35392 0.0
H587 H 0.70489 0.81515 0.47045 0.0
H588 H 0.69293 0.87443 0.42438 0.0
S589 S 0.83918 0.88238 0.27991 0.0
N590 N 0.82126 0.84438 0.33602 0.0
N591 N 0.80774 0.90783 0.28432 0.0
C592 C 0.78073 0.88588 0.33336 0.0
C593 C 0.7884 0.85163 0.36175 0.0
C594 C 0.37616 0.39301 0.21149 0.0
C595 C 0.40375 0.37464 0.23141 0.0
C596 C 0.37027 0.39813 0.14929 0.0
C597 C 0.39134 0.38466 0.10444 0.0
H598 H 0.35854 0.40322 0.2441 0.0
H599 H 0.34815 0.41183 0.13632 0.0
S600 S 0.4685 0.33628 0.13192 0.0
N601 N 0.45354 0.34413 0.20068 0.0
N602 N 0.44223 0.35369 0.08405 0.0
C603 C 0.41956 0.36687 0.12354 0.0
C604 C 0.42586 0.36192 0.18688 0.0
C605 C 1.01333 0.36409 0.37164 0.0
C606 C 0.05928 0.38312 0.39137 0.0
C607 C 1.00247 0.36022 0.30955 0.0
C608 C 1.03705 0.37477 0.26443 0.0
H609 H 0.98539 0.35226 0.4044 0.0
H610 H 0.96641 0.34503 0.29703 0.0
S611 S 0.1629 0.42561 0.29239 0.0
N612 N 0.13976 0.41596 0.36115 0.0
N613 N 0.11938 0.40845 0.24423 0.0
C614 C 0.08325 0.3937 0.28356 0.0
C615 C 0.09434 0.39796 0.34701 0.0
C616 C 0.72207 0.08326 0.51592 0.0
C617 C 0.70551 0.05002 0.56276 0.0
C618 C 0.71476 0.07024 0.45455 0.0
C619 C 0.69064 1.02344 0.43759 0.0
H620 H 0.74097 0.11978 0.52661 0.0
H621 H 0.72833 0.09715 0.42024 0.0
S622 S 0.64224 0.92277 0.54281 0.0
N623 N 0.66504 0.96824 0.58813 0.0
N624 N 0.65135 0.94358 0.47277 0.0
C625 C 0.67386 0.98976 0.48401 0.0
C626 C 0.68125 1.00307 0.54657 0.0
C627 C 0.67592 0.69526 0.63018 0.0
C628 C 0.69668 0.66984 0.6102 0.0
C629 C 0.66953 0.69999 0.6923 0.0
C630 C 0.68397 0.67985 0.73725 0.0
H631 H 0.66469 0.71204 0.59765 0.0
H632 H 0.65403 0.72055 0.70509 0.0
S633 S 0.73875 0.60836 0.70951 0.0
N634 N 0.73057 0.62309 0.64075 0.0
N635 N 0.71873 0.63224 0.75748 0.0
C636 C 0.7042 0.65378 0.71807 0.0
C637 C 0.71046 0.64865 0.65466 0.0
C638 C 1.01207 0.66341 0.79716 0.0
C639 C 0.05814 0.68822 0.77717 0.0
C640 C 1.00127 0.65723 0.85929 0.0
C641 C 1.03603 0.67595 0.90427 0.0
H642 H 0.98395 0.64832 0.7646 0.0
H643 H 0.96512 0.63792 0.87196 0.0
S644 S 0.16231 0.74539 0.87588 0.0
N645 N 0.13902 0.73264 0.80718 0.0
N646 N 0.11864 0.72115 0.92421 0.0
C647 C 0.08234 0.70123 0.88498 0.0
C648 C 0.0934 0.70727 0.82145 0.0
C649 C 0.41875 0.06567 0.97588 0.0
C650 C 0.39556 0.03122 0.93135 0.0
C651 C 0.4132 0.05525 0.03812 0.0
C652 C 0.3846 1.00985 0.05867 0.0
H653 H 0.4411 0.10136 0.96283 0.0
H654 H 0.43165 0.08312 0.07037 0.0
S655 S 0.31508 0.90682 0.96168 0.0
N656 N 0.34209 0.94963 0.91269 0.0
N657 N 0.33199 0.93003 0.02997 0.0
C658 C 0.36127 0.97487 0.01495 0.0
C659 C 0.36663 0.98555 0.95131 0.0
loop_
_geom_bond_atom_site_label_1
_geom_bond_atom_site_label_2
_geom_bond_distance
_geom_bond_site_symmetry_2
_ccdc_geom_bond_type
Fe0 O2 1.918 . S
Fe0 O5 1.997 . S
Fe0 O6 2.002 . S
Fe0 O11 1.976 . S
Fe0 O14 1.996 . S
Fe1 O2 1.918 . S
Fe1 O9 1.997 . S
Fe1 O12 1.996 . S
Fe1 O16 1.976 . S
Fe1 O19 2.002 . S
O2 Fe0 1.918 . S
O2 Fe1 1.918 . S
O2 Fe3 1.918 . S
Fe3 O2 1.918 . S
Fe3 O4 2.002 . S
Fe3 O13 1.976 . S
Fe3 O17 1.996 . S
Fe3 O20 1.997 . S
O4 Fe3 2.002 . S
O4 C21 1.295 . S
O5 Fe0 1.997 . S
O5 C21 1.235 . S
O6 Fe0 2.002 . S
O6 C7 1.295 . S
C7 O6 1.295 . S
C7 O9 1.235 . S
C8 O13 1.287 . S
C8 O14 1.255 . S
O9 Fe1 1.997 . S
O9 C7 1.235 . S
C10 O16 1.287 . S
C10 O17 1.255 . S
O11 Fe0 1.976 . S
O11 C18 1.287 . S
O12 Fe1 1.996 . S
O12 C18 1.255 . S
O13 Fe3 1.976 . S
O13 C8 1.287 . S
O14 Fe0 1.996 . S
O14 C8 1.255 . S
C15 O19 1.295 . S
C15 O20 1.235 . S
O16 Fe1 1.976 . S
O16 C10 1.287 . S
O17 Fe3 1.996 . S
O17 C10 1.255 . S
C18 O11 1.287 . S
C18 O12 1.255 . S
O19 Fe1 2.002 . S
O19 C15 1.295 . S
O20 Fe3 1.997 . S
O20 C15 1.235 . S
C21 O4 1.295 . S
C21 O5 1.235 . S
Fe22 O24 1.918 . S
Fe22 O27 1.997 . S
Fe22 O28 2.002 . S
Fe22 O33 1.976 . S
Fe22 O36 1.996 . S
Fe23 O24 1.918 . S
Fe23 O31 1.997 . S
Fe23 O34 1.996 . S
Fe23 O38 1.976 1_455 S
Fe23 O41 2.002 1_455 S
O24 Fe22 1.918 . S
O24 Fe23 1.918 . S
O24 Fe25 1.918 . S
Fe25 O24 1.918 . S
Fe25 O26 2.002 . S
Fe25 O35 1.976 . S
Fe25 O39 1.996 . S
Fe25 O42 1.997 . S
O26 Fe25 2.002 . S
O26 C43 1.295 . S
O27 Fe22 1.997 . S
O27 C43 1.235 . S
O28 Fe22 2.002 . S
O28 C29 1.295 . S
C29 O28 1.295 . S
C29 O31 1.235 . S
C30 O35 1.287 . S
C30 O36 1.255 . S
O31 Fe23 1.997 . S
O31 C29 1.235 . S
C32 O38 1.287 . S
C32 O39 1.255 1_655 S
O33 Fe22 1.976 . S
O33 C40 1.287 . S
O34 Fe23 1.996 . S
O34 C40 1.255 . S
O35 Fe25 1.976 . S
O35 C30 1.287 . S
O36 Fe22 1.996 . S
O36 C30 1.255 . S
C37 O41 1.295 1_455 S
C37 O42 1.235 . S
O38 Fe23 1.976 1_655 S
O38 C32 1.287 . S
O39 Fe25 1.996 . S
O39 C32 1.255 1_455 S
C40 O33 1.287 . S
C40 O34 1.255 . S
O41 Fe23 2.002 1_655 S
O41 C37 1.295 1_655 S
O42 Fe25 1.997 . S
O42 C37 1.235 . S
C43 O26 1.295 . S
C43 O27 1.235 . S
Fe44 O46 1.918 . S
Fe44 O49 1.997 . S
Fe44 O50 2.002 1_545 S
Fe44 O55 1.976 1_545 S
Fe44 O58 1.996 . S
Fe45 O46 1.918 . S
Fe45 O53 1.997 . S
Fe45 O56 1.996 . S
Fe45 O60 1.976 . S
Fe45 O63 2.002 . S
O46 Fe44 1.918 . S
O46 Fe45 1.918 . S
O46 Fe47 1.918 . S
Fe47 O46 1.918 . S
Fe47 O48 2.002 . S
Fe47 O57 1.976 . S
Fe47 O61 1.996 . S
Fe47 O64 1.997 . S
O48 Fe47 2.002 . S
O48 C65 1.295 . S
O49 Fe44 1.997 . S
O49 C65 1.235 . S
O50 Fe44 2.002 1_565 S
O50 C51 1.295 1_565 S
C51 O50 1.295 1_545 S
C51 O53 1.235 . S
C52 O57 1.287 . S
C52 O58 1.255 . S
O53 Fe45 1.997 . S
O53 C51 1.235 . S
C54 O60 1.287 . S
C54 O61 1.255 . S
O55 Fe44 1.976 1_565 S
O55 C62 1.287 . S
O56 Fe45 1.996 . S
O56 C62 1.255 1_545 S
O57 Fe47 1.976 . S
O57 C52 1.287 . S
O58 Fe44 1.996 . S
O58 C52 1.255 . S
C59 O63 1.295 . S
C59 O64 1.235 . S
O60 Fe45 1.976 . S
O60 C54 1.287 . S
O61 Fe47 1.996 . S
O61 C54 1.255 . S
C62 O55 1.287 . S
C62 O56 1.255 1_565 S
O63 Fe45 2.002 . S
O63 C59 1.295 . S
O64 Fe47 1.997 . S
O64 C59 1.235 . S
C65 O48 1.295 . S
C65 O49 1.235 . S
Fe66 O68 1.918 . S
Fe66 O71 1.997 1_556 S
Fe66 O72 2.002 1_556 S
Fe66 O77 1.976 . S
Fe66 O80 1.996 . S
Fe67 O68 1.918 . S
Fe67 O75 1.997 . S
Fe67 O78 1.996 . S
Fe67 O82 1.976 . S
Fe67 O85 2.002 . S
O68 Fe66 1.918 . S
O68 Fe67 1.918 . S
O68 Fe69 1.918 . S
Fe69 O68 1.918 . S
Fe69 O70 2.002 1_556 S
Fe69 O79 1.976 . S
Fe69 O83 1.996 . S
Fe69 O86 1.997 . S
O70 Fe69 2.002 1_554 S
O70 C87 1.295 . S
O71 Fe66 1.997 1_554 S
O71 C87 1.235 . S
O72 Fe66 2.002 1_554 S
O72 C73 1.295 1_554 S
C73 O72 1.295 1_556 S
C73 O75 1.235 . S
C74 O79 1.287 . S
C74 O80 1.255 . S
O75 Fe67 1.997 . S
O75 C73 1.235 . S
C76 O82 1.287 . S
C76 O83 1.255 . S
O77 Fe66 1.976 . S
O77 C84 1.287 . S
O78 Fe67 1.996 . S
O78 C84 1.255 . S
O79 Fe69 1.976 . S
O79 C74 1.287 . S
O80 Fe66 1.996 . S
O80 C74 1.255 . S
C81 O85 1.295 . S
C81 O86 1.235 . S
O82 Fe67 1.976 . S
O82 C76 1.287 . S
O83 Fe69 1.996 . S
O83 C76 1.255 . S
C84 O77 1.287 . S
C84 O78 1.255 . S
O85 Fe67 2.002 . S
O85 C81 1.295 . S
O86 Fe69 1.997 . S
O86 C81 1.235 . S
C87 O70 1.295 . S
C87 O71 1.235 . S
Fe88 O90 1.918 . S
Fe88 O93 1.997 . S
Fe88 O94 2.002 1_655 S
Fe88 O99 1.976 1_655 S
Fe88 O102 1.996 1_554 S
Fe89 O90 1.918 . S
Fe89 O97 1.997 . S
Fe89 O100 1.996 . S
Fe89 O104 1.976 . S
Fe89 O107 2.002 . S
O90 Fe88 1.918 . S
O90 Fe89 1.918 . S
O90 Fe91 1.918 . S
Fe91 O90 1.918 . S
Fe91 O92 2.002 . S
Fe91 O101 1.976 1_554 S
Fe91 O105 1.996 . S
Fe91 O108 1.997 . S
O92 Fe91 2.002 . S
O92 C109 1.295 . S
O93 Fe88 1.997 . S
O93 C109 1.235 . S
O94 Fe88 2.002 1_455 S
O94 C95 1.295 1_455 S
C95 O94 1.295 1_655 S
C95 O97 1.235 . S
C96 O101 1.287 . S
C96 O102 1.255 . S
O97 Fe89 1.997 . S
O97 C95 1.235 . S
C98 O104 1.287 . S
C98 O105 1.255 . S
O99 Fe88 1.976 1_455 S
O99 C106 1.287 . S
O100 Fe89 1.996 . S
O100 C106 1.255 1_655 S
O101 Fe91 1.976 1_556 S
O101 C96 1.287 . S
O102 Fe88 1.996 1_556 S
O102 C96 1.255 . S
C103 O107 1.295 . S
C103 O108 1.235 . S
O104 Fe89 1.976 . S
O104 C98 1.287 . S
O105 Fe91 1.996 . S
O105 C98 1.255 . S
C106 O99 1.287 . S
C106 O100 1.255 1_455 S
O107 Fe89 2.002 . S
O107 C103 1.295 . S
O108 Fe91 1.997 . S
O108 C103 1.235 . S
C109 O92 1.295 . S
C109 O93 1.235 . S
Fe110 O112 1.918 . S
Fe110 O115 1.997 . S
Fe110 O116 2.002 . S
Fe110 O121 1.976 . S
Fe110 O124 1.996 . S
Fe111 O112 1.918 . S
Fe111 O119 1.997 . S
Fe111 O122 1.996 . S
Fe111 O126 1.976 1_565 S
Fe111 O129 2.002 1_565 S
O112 Fe110 1.918 . S
O112 Fe111 1.918 . S
O112 Fe113 1.918 . S
Fe113 O112 1.918 . S
Fe113 O114 2.002 . S
Fe113 O123 1.976 . S
Fe113 O127 1.996 . S
Fe113 O130 1.997 . S
O114 Fe113 2.002 . S
O114 C131 1.295 . S
O115 Fe110 1.997 . S
O115 C131 1.235 . S
O116 Fe110 2.002 . S
O116 C117 1.295 . S
C117 O116 1.295 . S
C117 O119 1.235 . S
C118 O123 1.287 . S
C118 O124 1.255 . S
O119 Fe111 1.997 . S
O119 C117 1.235 . S
C120 O126 1.287 . S
C120 O127 1.255 1_545 S
O121 Fe110 1.976 . S
O121 C128 1.287 . S
O122 Fe111 1.996 . S
O122 C128 1.255 . S
O123 Fe113 1.976 . S
O123 C118 1.287 . S
O124 Fe110 1.996 . S
O124 C118 1.255 . S
C125 O129 1.295 1_565 S
C125 O130 1.235 . S
O126 Fe111 1.976 1_545 S
O126 C120 1.287 . S
O127 Fe113 1.996 . S
O127 C120 1.255 1_565 S
C128 O121 1.287 . S
C128 O122 1.255 . S
O129 Fe111 2.002 1_545 S
O129 C125 1.295 1_545 S
O130 Fe113 1.997 . S
O130 C125 1.235 . S
C131 O114 1.295 . S
C131 O115 1.235 . S
Fe132 O134 1.918 . S
Fe132 O137 1.997 . S
Fe132 O138 2.002 . S
Fe132 O143 1.976 . S
Fe132 O146 1.996 . S
Fe133 O134 1.918 . S
Fe133 O141 1.997 . S
Fe133 O144 1.996 . S
Fe133 O148 1.976 . S
Fe133 O151 2.002 . S
O134 Fe132 1.918 . S
O134 Fe133 1.918 . S
O134 Fe135 1.918 . S
Fe135 O134 1.918 . S
Fe135 O136 2.002 . S
Fe135 O145 1.976 . S
Fe135 O149 1.996 . S
Fe135 O152 1.997 . S
O136 Fe135 2.002 . S
O136 C153 1.295 . S
O137 Fe132 1.997 . S
O137 C153 1.235 . S
O138 Fe132 2.002 . S
O138 C139 1.295 . S
C139 O138 1.295 . S
C139 O141 1.235 . S
C140 O145 1.287 . S
C140 O146 1.255 . S
O141 Fe133 1.997 . S
O141 C139 1.235 . S
C142 O148 1.287 . S
C142 O149 1.255 . S
O143 Fe132 1.976 . S
O143 C150 1.287 . S
O144 Fe133 1.996 . S
O144 C150 1.255 . S
O145 Fe135 1.976 . S
O145 C140 1.287 . S
O146 Fe132 1.996 . S
O146 C140 1.255 . S
C147 O151 1.295 . S
C147 O152 1.235 . S
O148 Fe133 1.976 . S
O148 C142 1.287 . S
O149 Fe135 1.996 . S
O149 C142 1.255 . S
C150 O143 1.287 . S
C150 O144 1.255 . S
O151 Fe133 2.002 . S
O151 C147 1.295 . S
O152 Fe135 1.997 . S
O152 C147 1.235 . S
C153 O136 1.295 . S
C153 O137 1.235 . S
Fe154 O156 1.918 . S
Fe154 O159 1.997 . S
Fe154 O160 2.002 . S
Fe154 O165 1.976 . S
Fe154 O168 1.996 . S
Fe155 O156 1.918 . S
Fe155 O163 1.997 . S
Fe155 O166 1.996 . S
Fe155 O170 1.976 . S
Fe155 O173 2.002 . S
O156 Fe154 1.918 . S
O156 Fe155 1.918 . S
O156 Fe157 1.918 . S
Fe157 O156 1.918 . S
Fe157 O158 2.002 1_455 S
Fe157 O167 1.976 1_455 S
Fe157 O171 1.996 . S
Fe157 O174 1.997 . S
O158 Fe157 2.002 1_655 S
O158 C175 1.295 1_655 S
O159 Fe154 1.997 . S
O159 C175 1.235 . S
O160 Fe154 2.002 . S
O160 C161 1.295 . S
C161 O160 1.295 . S
C161 O163 1.235 . S
C162 O167 1.287 . S
C162 O168 1.255 1_655 S
O163 Fe155 1.997 . S
O163 C161 1.235 . S
C164 O170 1.287 . S
C164 O171 1.255 . S
O165 Fe154 1.976 . S
O165 C172 1.287 . S
O166 Fe155 1.996 . S
O166 C172 1.255 . S
O167 Fe157 1.976 1_655 S
O167 C162 1.287 . S
O168 Fe154 1.996 . S
O168 C162 1.255 1_455 S
C169 O173 1.295 . S
C169 O174 1.235 . S
O170 Fe155 1.976 . S
O170 C164 1.287 . S
O171 Fe157 1.996 . S
O171 C164 1.255 . S
C172 O165 1.287 . S
C172 O166 1.255 . S
O173 Fe155 2.002 . S
O173 C169 1.295 . S
O174 Fe157 1.997 . S
O174 C169 1.235 . S
C175 O158 1.295 1_455 S
C175 O159 1.235 . S
Fe176 O178 1.918 . S
Fe176 O181 1.997 . S
Fe176 O182 2.002 1_545 S
Fe176 O187 1.976 1_545 S
Fe176 O190 1.996 . S
Fe177 O178 1.918 . S
Fe177 O185 1.997 . S
Fe177 O188 1.996 . S
Fe177 O192 1.976 . S
Fe177 O195 2.002 . S
O178 Fe176 1.918 . S
O178 Fe177 1.918 . S
O178 Fe179 1.918 . S
Fe179 O178 1.918 . S
Fe179 O180 2.002 . S
Fe179 O189 1.976 . S
Fe179 O193 1.996 . S
Fe179 O196 1.997 . S
O180 Fe179 2.002 . S
O180 C197 1.295 . S
O181 Fe176 1.997 . S
O181 C197 1.235 . S
O182 Fe176 2.002 1_565 S
O182 C183 1.295 1_565 S
C183 O182 1.295 1_545 S
C183 O185 1.235 . S
C184 O189 1.287 . S
C184 O190 1.255 . S
O185 Fe177 1.997 . S
O185 C183 1.235 . S
C186 O192 1.287 . S
C186 O193 1.255 . S
O187 Fe176 1.976 1_565 S
O187 C194 1.287 . S
O188 Fe177 1.996 . S
O188 C194 1.255 1_545 S
O189 Fe179 1.976 . S
O189 C184 1.287 . S
O190 Fe176 1.996 . S
O190 C184 1.255 . S
C191 O195 1.295 . S
C191 O196 1.235 . S
O192 Fe177 1.976 . S
O192 C186 1.287 . S
O193 Fe179 1.996 . S
O193 C186 1.255 . S
C194 O187 1.287 . S
C194 O188 1.255 1_565 S
O195 Fe177 2.002 . S
O195 C191 1.295 . S
O196 Fe179 1.997 . S
O196 C191 1.235 . S
C197 O180 1.295 . S
C197 O181 1.235 . S
Fe198 O200 1.918 . S
Fe198 O203 1.997 . S
Fe198 O204 2.002 . S
Fe198 O209 1.976 . S
Fe198 O212 1.996 1_556 S
Fe199 O200 1.918 . S
Fe199 O207 1.997 . S
Fe199 O210 1.996 . S
Fe199 O214 1.976 . S
Fe199 O217 2.002 . S
O200 Fe198 1.918 . S
O200 Fe199 1.918 . S
O200 Fe201 1.918 . S
Fe201 O200 1.918 . S
Fe201 O202 2.002 . S
Fe201 O211 1.976 1_556 S
Fe201 O215 1.996 . S
Fe201 O218 1.997 . S
O202 Fe201 2.002 . S
O202 C219 1.295 . S
O203 Fe198 1.997 . S
O203 C219 1.235 . S
O204 Fe198 2.002 . S
O204 C205 1.295 . S
C205 O204 1.295 . S
C205 O207 1.235 . S
C206 O211 1.287 . S
C206 O212 1.255 . S
O207 Fe199 1.997 . S
O207 C205 1.235 . S
C208 O214 1.287 . S
C208 O215 1.255 . S
O209 Fe198 1.976 . S
O209 C216 1.287 . S
O210 Fe199 1.996 . S
O210 C216 1.255 . S
O211 Fe201 1.976 1_554 S
O211 C206 1.287 . S
O212 Fe198 1.996 1_554 S
O212 C206 1.255 . S
C213 O217 1.295 . S
C213 O218 1.235 . S
O214 Fe199 1.976 . S
O214 C208 1.287 . S
O215 Fe201 1.996 . S
O215 C208 1.255 . S
C216 O209 1.287 . S
C216 O210 1.255 . S
O217 Fe199 2.002 . S
O217 C213 1.295 . S
O218 Fe201 1.997 . S
O218 C213 1.235 . S
C219 O202 1.295 . S
C219 O203 1.235 . S
Fe220 O222 1.918 . S
Fe220 O225 1.997 . S
Fe220 O226 2.002 1_654 S
Fe220 O231 1.976 1_655 S
Fe220 O234 1.996 . S
Fe221 O222 1.918 . S
Fe221 O229 1.997 1_554 S
Fe221 O232 1.996 . S
Fe221 O236 1.976 . S
Fe221 O239 2.002 1_554 S
O222 Fe220 1.918 . S
O222 Fe221 1.918 . S
O222 Fe223 1.918 . S
Fe223 O222 1.918 . S
Fe223 O224 2.002 . S
Fe223 O233 1.976 . S
Fe223 O237 1.996 . S
Fe223 O240 1.997 . S
O224 Fe223 2.002 . S
O224 C241 1.295 . S
O225 Fe220 1.997 . S
O225 C241 1.235 . S
O226 Fe220 2.002 1_456 S
O226 C227 1.295 1_455 S
C227 O226 1.295 1_655 S
C227 O229 1.235 . S
C228 O233 1.287 . S
C228 O234 1.255 . S
O229 Fe221 1.997 1_556 S
O229 C227 1.235 . S
C230 O236 1.287 . S
C230 O237 1.255 . S
O231 Fe220 1.976 1_455 S
O231 C238 1.287 . S
O232 Fe221 1.996 . S
O232 C238 1.255 1_655 S
O233 Fe223 1.976 . S
O233 C228 1.287 . S
O234 Fe220 1.996 . S
O234 C228 1.255 . S
C235 O239 1.295 1_554 S
C235 O240 1.235 . S
O236 Fe221 1.976 . S
O236 C230 1.287 . S
O237 Fe223 1.996 . S
O237 C230 1.255 . S
C238 O231 1.287 . S
C238 O232 1.255 1_455 S
O239 Fe221 2.002 1_556 S
O239 C235 1.295 1_556 S
O240 Fe223 1.997 . S
O240 C235 1.235 . S
C241 O224 1.295 . S
C241 O225 1.235 . S
Fe242 O244 1.918 . S
Fe242 O247 1.997 . S
Fe242 O248 2.002 1_565 S
Fe242 O253 1.976 1_565 S
Fe242 O256 1.996 . S
Fe243 O244 1.918 . S
Fe243 O251 1.997 . S
Fe243 O254 1.996 . S
Fe243 O258 1.976 . S
Fe243 O261 2.002 . S
O244 Fe242 1.918 . S
O244 Fe243 1.918 . S
O244 Fe245 1.918 . S
Fe245 O244 1.918 . S
Fe245 O246 2.002 . S
Fe245 O255 1.976 . S
Fe245 O259 1.996 . S
Fe245 O262 1.997 . S
O246 Fe245 2.002 . S
O246 C263 1.295 . S
O247 Fe242 1.997 . S
O247 C263 1.235 . S
O248 Fe242 2.002 1_545 S
O248 C249 1.295 1_545 S
C249 O248 1.295 1_565 S
C249 O251 1.235 . S
C250 O255 1.287 . S
C250 O256 1.255 . S
O251 Fe243 1.997 . S
O251 C249 1.235 . S
C252 O258 1.287 . S
C252 O259 1.255 . S
O253 Fe242 1.976 1_545 S
O253 C260 1.287 . S
O254 Fe243 1.996 . S
O254 C260 1.255 1_565 S
O255 Fe245 1.976 . S
O255 C250 1.287 . S
O256 Fe242 1.996 . S
O256 C250 1.255 . S
C257 O261 1.295 . S
C257 O262 1.235 . S
O258 Fe243 1.976 . S
O258 C252 1.287 . S
O259 Fe245 1.996 . S
O259 C252 1.255 . S
C260 O253 1.287 . S
C260 O254 1.255 1_545 S
O261 Fe243 2.002 . S
O261 C257 1.295 . S
O262 Fe245 1.997 . S
O262 C257 1.235 . S
C263 O246 1.295 . S
C263 O247 1.235 . S
C264 C265 1.369 . S
C264 C266 1.419 . S
C264 H268 0.930 . S
C265 C264 1.369 . S
C265 C274 1.429 . S
C266 C264 1.419 . S
C266 C267 1.363 . S
C266 H269 0.929 . S
C267 C266 1.363 . S
C267 C273 1.428 . S
H268 C264 0.930 . S
H269 C266 0.929 . S
S270 N271 1.613 . S
S270 N272 1.610 . S
N271 S270 1.613 . S
N271 C274 1.350 . S
N272 S270 1.610 . S
N272 C273 1.351 . S
C273 C267 1.428 . S
C273 N272 1.351 . S
C273 C274 1.434 . S
C274 C265 1.429 . S
C274 N271 1.350 . S
C274 C273 1.434 . S
C275 C276 1.369 . S
C275 C277 1.419 . S
C275 H279 0.930 . S
C276 C275 1.369 . S
C276 C285 1.429 . S
C277 C275 1.419 . S
C277 C278 1.363 . S
C277 H280 0.929 . S
C278 C277 1.363 . S
C278 C284 1.428 . S
H279 C275 0.930 . S
H280 C277 0.929 . S
S281 N282 1.613 . S
S281 N283 1.610 . S
N282 S281 1.613 . S
N282 C285 1.350 . S
N283 S281 1.610 . S
N283 C284 1.351 . S
C284 C278 1.428 . S
C284 N283 1.351 . S
C284 C285 1.434 . S
C285 C276 1.429 . S
C285 N282 1.350 . S
C285 C284 1.434 . S
C286 C287 1.369 . S
C286 C288 1.419 . S
C286 H290 0.930 . S
C287 C286 1.369 . S
C287 C296 1.429 . S
C288 C286 1.419 . S
C288 C289 1.363 . S
C288 H291 0.929 . S
C289 C288 1.363 . S
C289 C295 1.428 . S
H290 C286 0.930 . S
H291 C288 0.929 . S
S292 N293 1.613 . S
S292 N294 1.610 . S
N293 S292 1.613 . S
N293 C296 1.350 . S
N294 S292 1.610 . S
N294 C295 1.351 . S
C295 C289 1.428 . S
C295 N294 1.351 . S
C295 C296 1.434 . S
C296 C287 1.429 . S
C296 N293 1.350 . S
C296 C295 1.434 . S
C297 C298 1.369 . S
C297 C299 1.419 . S
C297 H301 0.930 . S
C298 C297 1.369 . S
C298 C307 1.429 . S
C299 C297 1.419 . S
C299 C300 1.363 . S
C299 H302 0.929 . S
C300 C299 1.363 . S
C300 C306 1.428 . S
H301 C297 0.930 . S
H302 C299 0.929 . S
S303 N304 1.613 . S
S303 N305 1.610 . S
N304 S303 1.613 . S
N304 C307 1.350 . S
N305 S303 1.610 . S
N305 C306 1.351 . S
C306 C300 1.428 . S
C306 N305 1.351 . S
C306 C307 1.434 . S
C307 C298 1.429 . S
C307 N304 1.350 . S
C307 C306 1.434 . S
C308 C309 1.369 . S
C308 C310 1.419 . S
C308 H312 0.930 . S
C309 C308 1.369 . S
C309 C318 1.429 . S
C310 C308 1.419 . S
C310 C311 1.363 . S
C310 H313 0.929 . S
C311 C310 1.363 . S
C311 C317 1.428 . S
H312 C308 0.930 . S
H313 C310 0.929 . S
S314 N315 1.613 . S
S314 N316 1.610 . S
N315 S314 1.613 . S
N315 C318 1.350 . S
N316 S314 1.610 . S
N316 C317 1.351 . S
C317 C311 1.428 . S
C317 N316 1.351 . S
C317 C318 1.434 . S
C318 C309 1.429 . S
C318 N315 1.350 . S
C318 C317 1.434 . S
C319 C320 1.369 . S
C319 C321 1.419 . S
C319 H323 0.930 . S
C320 C319 1.369 . S
C320 C329 1.429 . S
C321 C319 1.419 . S
C321 C322 1.363 . S
C321 H324 0.929 . S
C322 C321 1.363 . S
C322 C328 1.428 . S
H323 C319 0.930 . S
H324 C321 0.929 . S
S325 N326 1.613 . S
S325 N327 1.610 . S
N326 S325 1.613 . S
N326 C329 1.350 . S
N327 S325 1.610 . S
N327 C328 1.351 . S
C328 C322 1.428 . S
C328 N327 1.351 . S
C328 C329 1.434 . S
C329 C320 1.429 . S
C329 N326 1.350 . S
C329 C328 1.434 . S
C330 C331 1.369 . S
C330 C332 1.419 . S
C330 H334 0.930 . S
C331 C330 1.369 . S
C331 C340 1.429 . S
C332 C330 1.419 . S
C332 C333 1.363 . S
C332 H335 0.929 . S
C333 C332 1.363 . S
C333 C339 1.428 . S
H334 C330 0.930 . S
H335 C332 0.929 . S
S336 N337 1.613 . S
S336 N338 1.610 . S
N337 S336 1.613 . S
N337 C340 1.350 . S
N338 S336 1.610 . S
N338 C339 1.351 . S
C339 C333 1.428 . S
C339 N338 1.351 . S
C339 C340 1.434 . S
C340 C331 1.429 . S
C340 N337 1.350 . S
C340 C339 1.434 . S
C341 C342 1.369 . S
C341 C343 1.419 . S
C341 H345 0.930 . S
C342 C341 1.369 . S
C342 C351 1.429 . S
C343 C341 1.419 . S
C343 C344 1.363 . S
C343 H346 0.929 . S
C344 C343 1.363 . S
C344 C350 1.428 . S
H345 C341 0.930 . S
H346 C343 0.929 . S
S347 N348 1.613 1_655 S
S347 N349 1.610 1_655 S
N348 S347 1.613 1_455 S
N348 C351 1.350 . S
N349 S347 1.610 1_455 S
N349 C350 1.351 . S
C350 C344 1.428 . S
C350 N349 1.351 . S
C350 C351 1.434 . S
C351 C342 1.429 . S
C351 N348 1.350 . S
C351 C350 1.434 . S
C352 C353 1.369 . S
C352 C354 1.419 . S
C352 H356 0.930 . S
C353 C352 1.369 . S
C353 C362 1.429 . S
C354 C352 1.419 . S
C354 C355 1.363 . S
C354 H357 0.929 . S
C355 C354 1.363 . S
C355 C361 1.428 . S
H356 C352 0.930 . S
H357 C354 0.929 . S
S358 N359 1.613 . S
S358 N360 1.610 . S
N359 S358 1.613 . S
N359 C362 1.350 . S
N360 S358 1.610 . S
N360 C361 1.351 . S
C361 C355 1.428 . S
C361 N360 1.351 . S
C361 C362 1.434 . S
C362 C353 1.429 . S
C362 N359 1.350 . S
C362 C361 1.434 . S
C363 C364 1.369 . S
C363 C365 1.419 . S
C363 H367 0.930 . S
C364 C363 1.369 . S
C364 C373 1.429 . S
C365 C363 1.419 . S
C365 C366 1.363 . S
C365 H368 0.929 . S
C366 C365 1.363 . S
C366 C372 1.428 . S
H367 C363 0.930 . S
H368 C365 0.929 . S
S369 N370 1.613 . S
S369 N371 1.610 . S
N370 S369 1.613 . S
N370 C373 1.350 1_554 S
N371 S369 1.610 . S
N371 C372 1.351 1_554 S
C372 C366 1.428 . S
C372 N371 1.351 1_556 S
C372 C373 1.434 . S
C373 C364 1.429 . S
C373 N370 1.350 1_556 S
C373 C372 1.434 . S
C374 C375 1.369 . S
C374 C376 1.419 . S
C374 H378 0.930 . S
C375 C374 1.369 . S
C375 C384 1.429 . S
C376 C374 1.419 . S
C376 C377 1.363 . S
C376 H379 0.929 . S
C377 C376 1.363 . S
C377 C383 1.428 . S
H378 C374 0.930 . S
H379 C376 0.929 . S
S380 N381 1.613 . S
S380 N382 1.610 . S
N381 S380 1.613 . S
N381 C384 1.350 1_556 S
N382 S380 1.610 . S
N382 C383 1.351 1_556 S
C383 C377 1.428 . S
C383 N382 1.351 1_554 S
C383 C384 1.434 . S
C384 C375 1.429 . S
C384 N381 1.350 1_554 S
C384 C383 1.434 . S
C385 C386 1.369 . S
C385 C387 1.419 . S
C385 H389 0.930 . S
C386 C385 1.369 . S
C386 C395 1.429 . S
C387 C385 1.419 . S
C387 C388 1.363 . S
C387 H390 0.929 . S
C388 C387 1.363 . S
C388 C394 1.428 . S
H389 C385 0.930 . S
H390 C387 0.929 . S
S391 N392 1.613 . S
S391 N393 1.610 . S
N392 S391 1.613 . S
N392 C395 1.350 . S
N393 S391 1.610 . S
N393 C394 1.351 . S
C394 C388 1.428 . S
C394 N393 1.351 . S
C394 C395 1.434 . S
C395 C386 1.429 . S
C395 N392 1.350 . S
C395 C394 1.434 . S
C396 C397 1.369 . S
C396 C398 1.419 . S
C396 H400 0.930 . S
C397 C396 1.369 . S
C397 C406 1.429 . S
C398 C396 1.419 . S
C398 C399 1.363 . S
C398 H401 0.929 . S
C399 C398 1.363 . S
C399 C405 1.428 . S
H400 C396 0.930 . S
H401 C398 0.929 . S
S402 N403 1.613 . S
S402 N404 1.610 . S
N403 S402 1.613 . S
N403 C406 1.350 . S
N404 S402 1.610 . S
N404 C405 1.351 . S
C405 C399 1.428 . S
C405 N404 1.351 . S
C405 C406 1.434 . S
C406 C397 1.429 . S
C406 N403 1.350 . S
C406 C405 1.434 . S
C407 C408 1.369 . S
C407 C409 1.419 . S
C407 H411 0.930 . S
C408 C407 1.369 . S
C408 C417 1.429 1_655 S
C409 C407 1.419 . S
C409 C410 1.363 1_655 S
C409 H412 0.929 . S
C410 C409 1.363 1_455 S
C410 C416 1.428 . S
H411 C407 0.930 . S
H412 C409 0.929 . S
S413 N414 1.613 . S
S413 N415 1.610 . S
N414 S413 1.613 . S
N414 C417 1.350 . S
N415 S413 1.610 . S
N415 C416 1.351 . S
C416 C410 1.428 . S
C416 N415 1.351 . S
C416 C417 1.434 . S
C417 C408 1.429 1_455 S
C417 N414 1.350 . S
C417 C416 1.434 . S
C418 C419 1.369 . S
C418 C420 1.419 1_556 S
C418 H422 0.930 . S
C419 C418 1.369 . S
C419 C428 1.429 1_545 S
C420 C418 1.419 1_554 S
C420 C421 1.363 1_545 S
C420 H423 0.929 . S
C421 C420 1.363 1_565 S
C421 C427 1.428 . S
H422 C418 0.930 . S
H423 C420 0.929 . S
S424 N425 1.613 . S
S424 N426 1.610 1_556 S
N425 S424 1.613 . S
N425 C428 1.350 . S
N426 S424 1.610 1_554 S
N426 C427 1.351 . S
C427 C421 1.428 . S
C427 N426 1.351 . S
C427 C428 1.434 1_554 S
C428 C419 1.429 1_565 S
C428 N425 1.350 . S
C428 C427 1.434 1_556 S
C429 C430 1.369 . S
C429 C431 1.419 . S
C429 H433 0.930 . S
C430 C429 1.369 . S
C430 C439 1.429 . S
C431 C429 1.419 . S
C431 C432 1.363 . S
C431 H434 0.929 . S
C432 C431 1.363 . S
C432 C438 1.428 . S
H433 C429 0.930 . S
H434 C431 0.929 . S
S435 N436 1.613 . S
S435 N437 1.610 . S
N436 S435 1.613 . S
N436 C439 1.350 . S
N437 S435 1.610 . S
N437 C438 1.351 . S
C438 C432 1.428 . S
C438 N437 1.351 . S
C438 C439 1.434 . S
C439 C430 1.429 . S
C439 N436 1.350 . S
C439 C438 1.434 . S
C440 C441 1.369 . S
C440 C442 1.419 . S
C440 H444 0.930 . S
C441 C440 1.369 . S
C441 C450 1.429 1_455 S
C442 C440 1.419 . S
C442 C443 1.363 1_455 S
C442 H445 0.929 . S
C443 C442 1.363 1_655 S
C443 C449 1.428 . S
H444 C440 0.930 . S
H445 C442 0.929 . S
S446 N447 1.613 . S
S446 N448 1.610 . S
N447 S446 1.613 . S
N447 C450 1.350 . S
N448 S446 1.610 . S
N448 C449 1.351 . S
C449 C443 1.428 . S
C449 N448 1.351 . S
C449 C450 1.434 . S
C450 C441 1.429 1_655 S
C450 N447 1.350 . S
C450 C449 1.434 . S
C451 C452 1.369 . S
C451 C453 1.419 . S
C451 H455 0.930 . S
C452 C451 1.369 . S
C452 C461 1.429 1_565 S
C453 C451 1.419 . S
C453 C454 1.363 1_565 S
C453 H456 0.929 . S
C454 C453 1.363 1_545 S
C454 C460 1.428 . S
H455 C451 0.930 . S
H456 C453 0.929 . S
S457 N458 1.613 . S
S457 N459 1.610 . S
N458 S457 1.613 . S
N458 C461 1.350 . S
N459 S457 1.610 . S
N459 C460 1.351 . S
C460 C454 1.428 . S
C460 N459 1.351 . S
C460 C461 1.434 . S
C461 C452 1.429 1_545 S
C461 N458 1.350 . S
C461 C460 1.434 . S
C462 C463 1.369 . S
C462 C464 1.419 . S
C462 H466 0.930 . S
C463 C462 1.369 . S
C463 C472 1.429 . S
C464 C462 1.419 . S
C464 C465 1.363 . S
C464 H467 0.929 . S
C465 C464 1.363 . S
C465 C471 1.428 . S
H466 C462 0.930 . S
H467 C464 0.929 . S
S468 N469 1.613 . S
S468 N470 1.610 . S
N469 S468 1.613 . S
N469 C472 1.350 . S
N470 S468 1.610 . S
N470 C471 1.351 . S
C471 C465 1.428 . S
C471 N470 1.351 . S
C471 C472 1.434 . S
C472 C463 1.429 . S
C472 N469 1.350 . S
C472 C471 1.434 . S
C473 C474 1.369 . S
C473 C475 1.419 . S
C473 H477 0.930 . S
C474 C473 1.369 . S
C474 C483 1.429 . S
C475 C473 1.419 . S
C475 C476 1.363 . S
C475 H478 0.929 . S
C476 C475 1.363 . S
C476 C482 1.428 . S
H477 C473 0.930 . S
H478 C475 0.929 . S
S479 N480 1.613 . S
S479 N481 1.610 . S
N480 S479 1.613 . S
N480 C483 1.350 . S
N481 S479 1.610 . S
N481 C482 1.351 . S
C482 C476 1.428 . S
C482 N481 1.351 . S
C482 C483 1.434 . S
C483 C474 1.429 . S
C483 N480 1.350 . S
C483 C482 1.434 . S
C484 C485 1.369 . S
C484 C486 1.419 . S
C484 H488 0.930 . S
C485 C484 1.369 . S
C485 C494 1.429 . S
C486 C484 1.419 . S
C486 C487 1.363 . S
C486 H489 0.929 . S
C487 C486 1.363 . S
C487 C493 1.428 . S
H488 C484 0.930 . S
H489 C486 0.929 . S
S490 N491 1.613 . S
S490 N492 1.610 . S
N491 S490 1.613 . S
N491 C494 1.350 . S
N492 S490 1.610 . S
N492 C493 1.351 . S
C493 C487 1.428 . S
C493 N492 1.351 . S
C493 C494 1.434 . S
C494 C485 1.429 . S
C494 N491 1.350 . S
C494 C493 1.434 . S
C495 C496 1.369 . S
C495 C497 1.419 . S
C495 H499 0.930 . S
C496 C495 1.369 . S
C496 C505 1.429 . S
C497 C495 1.419 . S
C497 C498 1.363 . S
C497 H500 0.929 . S
C498 C497 1.363 . S
C498 C504 1.428 . S
H499 C495 0.930 . S
H500 C497 0.929 . S
S501 N502 1.613 . S
S501 N503 1.610 . S
N502 S501 1.613 . S
N502 C505 1.350 . S
N503 S501 1.610 . S
N503 C504 1.351 . S
C504 C498 1.428 . S
C504 N503 1.351 . S
C504 C505 1.434 . S
C505 C496 1.429 . S
C505 N502 1.350 . S
C505 C504 1.434 . S
C506 C507 1.369 . S
C506 C508 1.419 . S
C506 H510 0.930 . S
C507 C506 1.369 . S
C507 C516 1.429 1_556 S
C508 C506 1.419 . S
C508 C509 1.363 1_556 S
C508 H511 0.929 . S
C509 C508 1.363 1_554 S
C509 C515 1.428 . S
H510 C506 0.930 . S
H511 C508 0.929 . S
S512 N513 1.613 . S
S512 N514 1.610 . S
N513 S512 1.613 . S
N513 C516 1.350 . S
N514 S512 1.610 . S
N514 C515 1.351 . S
C515 C509 1.428 . S
C515 N514 1.351 . S
C515 C516 1.434 . S
C516 C507 1.429 1_554 S
C516 N513 1.350 . S
C516 C515 1.434 . S
C517 C518 1.369 . S
C517 C519 1.419 . S
C517 H521 0.930 . S
C518 C517 1.369 . S
C518 C527 1.429 . S
C519 C517 1.419 . S
C519 C520 1.363 . S
C519 H522 0.929 . S
C520 C519 1.363 . S
C520 C526 1.428 . S
H521 C517 0.930 . S
H522 C519 0.929 . S
S523 N524 1.613 . S
S523 N525 1.610 . S
N524 S523 1.613 . S
N524 C527 1.350 . S
N525 S523 1.610 . S
N525 C526 1.351 . S
C526 C520 1.428 . S
C526 N525 1.351 . S
C526 C527 1.434 . S
C527 C518 1.429 . S
C527 N524 1.350 . S
C527 C526 1.434 . S
C528 C529 1.369 . S
C528 C530 1.419 . S
C528 H532 0.930 . S
C529 C528 1.369 . S
C529 C538 1.429 . S
C530 C528 1.419 . S
C530 C531 1.363 . S
C530 H533 0.929 . S
C531 C530 1.363 . S
C531 C537 1.428 . S
H532 C528 0.930 . S
H533 C530 0.929 . S
S534 N535 1.613 . S
S534 N536 1.610 . S
N535 S534 1.613 . S
N535 C538 1.350 . S
N536 S534 1.610 . S
N536 C537 1.351 . S
C537 C531 1.428 . S
C537 N536 1.351 . S
C537 C538 1.434 . S
C538 C529 1.429 . S
C538 N535 1.350 . S
C538 C537 1.434 . S
C539 C540 1.369 . S
C539 C541 1.419 . S
C539 H543 0.930 . S
C540 C539 1.369 . S
C540 C549 1.429 . S
C541 C539 1.419 . S
C541 C542 1.363 . S
C541 H544 0.929 . S
C542 C541 1.363 . S
C542 C548 1.428 . S
H543 C539 0.930 . S
H544 C541 0.929 . S
S545 N546 1.613 . S
S545 N547 1.610 . S
N546 S545 1.613 . S
N546 C549 1.350 . S
N547 S545 1.610 . S
N547 C548 1.351 . S
C548 C542 1.428 . S
C548 N547 1.351 . S
C548 C549 1.434 . S
C549 C540 1.429 . S
C549 N546 1.350 . S
C549 C548 1.434 . S
C550 C551 1.369 . S
C550 C552 1.419 . S
C550 H554 0.930 . S
C551 C550 1.369 . S
C551 C560 1.429 . S
C552 C550 1.419 . S
C552 C553 1.363 . S
C552 H555 0.929 . S
C553 C552 1.363 . S
C553 C559 1.428 . S
H554 C550 0.930 . S
H555 C552 0.929 . S
S556 N557 1.613 . S
S556 N558 1.610 . S
N557 S556 1.613 . S
N557 C560 1.350 . S
N558 S556 1.610 . S
N558 C559 1.351 . S
C559 C553 1.428 . S
C559 N558 1.351 . S
C559 C560 1.434 . S
C560 C551 1.429 . S
C560 N557 1.350 . S
C560 C559 1.434 . S
C561 C562 1.369 . S
C561 C563 1.419 1_556 S
C561 H565 0.930 . S
C562 C561 1.369 . S
C562 C571 1.429 1_556 S
C563 C561 1.419 1_554 S
C563 C564 1.363 . S
C563 H566 0.929 . S
C564 C563 1.363 . S
C564 C570 1.428 . S
H565 C561 0.930 . S
H566 C563 0.929 . S
S567 N568 1.613 . S
S567 N569 1.610 . S
N568 S567 1.613 . S
N568 C571 1.350 . S
N569 S567 1.610 . S
N569 C570 1.351 . S
C570 C564 1.428 . S
C570 N569 1.351 . S
C570 C571 1.434 . S
C571 C562 1.429 1_554 S
C571 N568 1.350 . S
C571 C570 1.434 . S
C572 C573 1.369 . S
C572 C574 1.419 . S
C572 H576 0.930 . S
C573 C572 1.369 . S
C573 C582 1.429 . S
C574 C572 1.419 . S
C574 C575 1.363 . S
C574 H577 0.929 . S
C575 C574 1.363 . S
C575 C581 1.428 . S
H576 C572 0.930 . S
H577 C574 0.929 . S
S578 N579 1.613 . S
S578 N580 1.610 . S
N579 S578 1.613 . S
N579 C582 1.350 . S
N580 S578 1.610 . S
N580 C581 1.351 . S
C581 C575 1.428 . S
C581 N580 1.351 . S
C581 C582 1.434 . S
C582 C573 1.429 . S
C582 N579 1.350 . S
C582 C581 1.434 . S
C583 C584 1.369 . S
C583 C585 1.419 . S
C583 H587 0.930 . S
C584 C583 1.369 . S
C584 C593 1.429 . S
C585 C583 1.419 . S
C585 C586 1.363 . S
C585 H588 0.929 . S
C586 C585 1.363 . S
C586 C592 1.428 . S
H587 C583 0.930 . S
H588 C585 0.929 . S
S589 N590 1.613 . S
S589 N591 1.610 . S
N590 S589 1.613 . S
N590 C593 1.350 . S
N591 S589 1.610 . S
N591 C592 1.351 . S
C592 C586 1.428 . S
C592 N591 1.351 . S
C592 C593 1.434 . S
C593 C584 1.429 . S
C593 N590 1.350 . S
C593 C592 1.434 . S
C594 C595 1.369 . S
C594 C596 1.419 . S
C594 H598 0.930 . S
C595 C594 1.369 . S
C595 C604 1.429 . S
C596 C594 1.419 . S
C596 C597 1.363 . S
C596 H599 0.929 . S
C597 C596 1.363 . S
C597 C603 1.428 . S
H598 C594 0.930 . S
H599 C596 0.929 . S
S600 N601 1.613 . S
S600 N602 1.610 . S
N601 S600 1.613 . S
N601 C604 1.350 . S
N602 S600 1.610 . S
N602 C603 1.351 . S
C603 C597 1.428 . S
C603 N602 1.351 . S
C603 C604 1.434 . S
C604 C595 1.429 . S
C604 N601 1.350 . S
C604 C603 1.434 . S
C605 C606 1.369 1_655 S
C605 C607 1.419 . S
C605 H609 0.930 . S
C606 C605 1.369 1_455 S
C606 C615 1.429 . S
C607 C605 1.419 . S
C607 C608 1.363 . S
C607 H610 0.929 . S
C608 C607 1.363 . S
C608 C614 1.428 1_655 S
H609 C605 0.930 . S
H610 C607 0.929 . S
S611 N612 1.613 . S
S611 N613 1.610 . S
N612 S611 1.613 . S
N612 C615 1.350 . S
N613 S611 1.610 . S
N613 C614 1.351 . S
C614 C608 1.428 1_455 S
C614 N613 1.351 . S
C614 C615 1.434 . S
C615 C606 1.429 . S
C615 N612 1.350 . S
C615 C614 1.434 . S
C616 C617 1.369 . S
C616 C618 1.419 . S
C616 H620 0.930 . S
C617 C616 1.369 . S
C617 C626 1.429 1_545 S
C618 C616 1.419 . S
C618 C619 1.363 1_545 S
C618 H621 0.929 . S
C619 C618 1.363 1_565 S
C619 C625 1.428 . S
H620 C616 0.930 . S
H621 C618 0.929 . S
S622 N623 1.613 . S
S622 N624 1.610 . S
N623 S622 1.613 . S
N623 C626 1.350 . S
N624 S622 1.610 . S
N624 C625 1.351 . S
C625 C619 1.428 . S
C625 N624 1.351 . S
C625 C626 1.434 . S
C626 C617 1.429 1_565 S
C626 N623 1.350 . S
C626 C625 1.434 . S
C627 C628 1.369 . S
C627 C629 1.419 . S
C627 H631 0.930 . S
C628 C627 1.369 . S
C628 C637 1.429 . S
C629 C627 1.419 . S
C629 C630 1.363 . S
C629 H632 0.929 . S
C630 C629 1.363 . S
C630 C636 1.428 . S
H631 C627 0.930 . S
H632 C629 0.929 . S
S633 N634 1.613 . S
S633 N635 1.610 . S
N634 S633 1.613 . S
N634 C637 1.350 . S
N635 S633 1.610 . S
N635 C636 1.351 . S
C636 C630 1.428 . S
C636 N635 1.351 . S
C636 C637 1.434 . S
C637 C628 1.429 . S
C637 N634 1.350 . S
C637 C636 1.434 . S
C638 C639 1.369 . S
C638 C640 1.419 1_455 S
C638 H642 0.930 . S
C639 C638 1.369 . S
C639 C648 1.429 . S
C640 C638 1.419 1_655 S
C640 C641 1.363 . S
C640 H643 0.929 . S
C641 C640 1.363 . S
C641 C647 1.428 . S
H642 C638 0.930 . S
H643 C640 0.929 . S
S644 N645 1.613 . S
S644 N646 1.610 1_455 S
N645 S644 1.613 . S
N645 C648 1.350 . S
N646 S644 1.610 1_655 S
N646 C647 1.351 . S
C647 C641 1.428 . S
C647 N646 1.351 . S
C647 C648 1.434 1_655 S
C648 C639 1.429 . S
C648 N645 1.350 . S
C648 C647 1.434 1_455 S
C649 C650 1.369 . S
C649 C651 1.419 1_546 S
C649 H653 0.930 . S
C650 C649 1.369 . S
C650 C659 1.429 . S
C651 C649 1.419 1_564 S
C651 C652 1.363 . S
C651 H654 0.929 . S
C652 C651 1.363 . S
C652 C658 1.428 . S
H653 C649 0.930 . S
H654 C651 0.929 . S
S655 N656 1.613 1_565 S
S655 N657 1.610 1_556 S
N656 S655 1.613 1_545 S
N656 C659 1.350 . S
N657 S655 1.610 1_554 S
N657 C658 1.351 . S
C658 C652 1.428 . S
C658 N657 1.351 . S
C658 C659 1.434 1_564 S
C659 C650 1.429 . S
C659 N656 1.350 . S
C659 C658 1.434 1_546 S
C265 C15 1.155 . S
C267 C191 1.153 . S
C276 C213 1.161 . S
C278 C43 1.161 . S
C287 C235 1.162 1_556 S
C289 C59 1.161 . S
C298 C257 1.162 . S
C300 C73 1.160 1_554 S
C309 C147 1.158 . S
C311 C103 1.159 . S
C320 C161 1.157 . S
C322 C131 1.155 . S
C331 C21 1.579 . S
C333 C153 1.578 . S
C342 C29 1.578 . S
C344 C169 1.579 . S
C353 C65 1.581 . S
C355 C197 1.581 . S
C364 C219 1.579 . S
C366 C81 1.581 . S
C375 C241 1.579 . S
C377 C109 1.578 . S
C386 C117 1.580 . S
C388 C263 1.578 . S
C397 C7 1.110 . S
C399 C205 1.108 . S
C408 C227 1.109 . S
C410 C37 1.108 . S
C419 C51 1.106 . S
C421 C249 1.105 . S
C430 C139 1.109 . S
C432 C87 1.109 . S
C441 C175 1.104 . S
C443 C95 1.104 . S
C452 C125 1.105 . S
C454 C183 1.104 . S
C463 C10 1.627 . S
C465 C120 1.613 . S
C474 C18 1.606 . S
C476 C30 1.626 . S
C485 C54 1.622 . S
C487 C32 1.609 . S
C496 C62 1.613 . S
C498 C84 1.625 . S
C507 C74 1.606 . S
C509 C98 1.625 . S
C518 C118 1.625 . S
C520 C106 1.607 . S
C529 C162 1.611 . S
C531 C142 1.624 . S
C540 C172 1.629 . S
C542 C194 1.611 . S
C551 C186 1.627 . S
C553 C216 1.607 . S
C562 C208 1.624 . S
C564 C238 1.611 . S
C573 C260 1.610 . S
C575 C230 1.628 . S
C584 C150 1.608 . S
C586 C252 1.628 . S
C595 C8 1.409 . S
C597 C206 1.408 . S
C606 C40 1.409 . S
C608 C228 1.407 . S
C617 C52 1.406 . S
C619 C250 1.408 . S
C628 C140 1.409 . S
C630 C76 1.407 . S
C639 C164 1.408 . S
C641 C96 1.409 . S
C650 C184 1.407 . S
C652 C128 1.407 . S
