# Generated by pormake.
# Topology uos, (4)-cn, num edge types: 1
# Building blocks:
#     Node 0, Type 0, BuildingBlock: NAHDIM_clean_sbu_0, # of connection points: 4
#     Node 1, Type 0, BuildingBlock: NAHDIM_clean_sbu_0, # of connection points: 4
#     Node 2, Type 0, BuildingBlock: NAHDIM_clean_sbu_0, # of connection points: 4
#     Node 3, Type 0, BuildingBlock: NAHDIM_clean_sbu_0, # of connection points: 4
#     Node 4, Type 0, BuildingBlock: NAHDIM_clean_sbu_0, # of connection points: 4
#     Node 5, Type 0, BuildingBlock: NAHDIM_clean_sbu_0, # of connection points: 4
#     Node 6, Type 0, BuildingBlock: NAHDIM_clean_sbu_0, # of connection points: 4
#     Node 7, Type 0, BuildingBlock: NAHDIM_clean_sbu_0, # of connection points: 4
#     Node 8, Type 0, BuildingBlock: NAHDIM_clean_sbu_0, # of connection points: 4
#     Node 9, Type 0, BuildingBlock: NAHDIM_clean_sbu_0, # of connection points: 4
#     Node 10, Type 0, BuildingBlock: NAHDIM_clean_sbu_0, # of connection points: 4
#     Node 11, Type 0, BuildingBlock: NAHDIM_clean_sbu_0, # of connection points: 4
#     Node 12, Type 0, BuildingBlock: NAHDIM_clean_sbu_0, # of connection points: 4
#     Node 13, Type 0, BuildingBlock: NAHDIM_clean_sbu_0, # of connection points: 4
#     Node 14, Type 0, BuildingBlock: NAHDIM_clean_sbu_0, # of connection points: 4
#     Node 15, Type 0, BuildingBlock: NAHDIM_clean_sbu_0, # of connection points: 4
#     Node 16, Type 0, BuildingBlock: NAHDIM_clean_sbu_0, # of connection points: 4
#     Node 17, Type 0, BuildingBlock: NAHDIM_clean_sbu_0, # of connection points: 4
#     Node 18, Type 0, BuildingBlock: NAHDIM_clean_sbu_0, # of connection points: 4
#     Node 19, Type 0, BuildingBlock: NAHDIM_clean_sbu_0, # of connection points: 4
#     Node 20, Type 0, BuildingBlock: NAHDIM_clean_sbu_0, # of connection points: 4
#     Node 21, Type 0, BuildingBlock: NAHDIM_clean_sbu_0, # of connection points: 4
#     Node 22, Type 0, BuildingBlock: NAHDIM_clean_sbu_0, # of connection points: 4
#     Node 23, Type 0, BuildingBlock: NAHDIM_clean_sbu_0, # of connection points: 4
#     Node 24, Type 0, BuildingBlock: NAHDIM_clean_sbu_0, # of connection points: 4
#     Node 25, Type 0, BuildingBlock: NAHDIM_clean_sbu_0, # of connection points: 4
#     Node 26, Type 0, BuildingBlock: NAHDIM_clean_sbu_0, # of connection points: 4
#     Node 27, Type 0, BuildingBlock: NAHDIM_clean_sbu_0, # of connection points: 4
#     Node 28, Type 0, BuildingBlock: NAHDIM_clean_sbu_0, # of connection points: 4
#     Node 29, Type 0, BuildingBlock: NAHDIM_clean_sbu_0, # of connection points: 4
#     Node 30, Type 0, BuildingBlock: NAHDIM_clean_sbu_0, # of connection points: 4
#     Node 31, Type 0, BuildingBlock: NAHDIM_clean_sbu_0, # of connection points: 4
#     Edge 32, Type (0, 0), BuildingBlock: UVAHIK_clean_linker_0, # of connection points: 2
#     Edge 33, Type (0, 0), BuildingBlock: UVAHIK_clean_linker_0, # of connection points: 2
#     Edge 34, Type (0, 0), BuildingBlock: UVAHIK_clean_linker_0, # of connection points: 2
#     Edge 35, Type (0, 0), BuildingBlock: UVAHIK_clean_linker_0, # of connection points: 2
#     Edge 36, Type (0, 0), BuildingBlock: UVAHIK_clean_linker_0, # of connection points: 2
#     Edge 37, Type (0, 0), BuildingBlock: UVAHIK_clean_linker_0, # of connection points: 2
#     Edge 38, Type (0, 0), BuildingBlock: UVAHIK_clean_linker_0, # of connection points: 2
#     Edge 39, Type (0, 0), BuildingBlock: UVAHIK_clean_linker_0, # of connection points: 2
#     Edge 40, Type (0, 0), BuildingBlock: UVAHIK_clean_linker_0, # of connection points: 2
#     Edge 41, Type (0, 0), BuildingBlock: UVAHIK_clean_linker_0, # of connection points: 2
#     Edge 42, Type (0, 0), BuildingBlock: UVAHIK_clean_linker_0, # of connection points: 2
#     Edge 43, Type (0, 0), BuildingBlock: UVAHIK_clean_linker_0, # of connection points: 2
#     Edge 44, Type (0, 0), BuildingBlock: UVAHIK_clean_linker_0, # of connection points: 2
#     Edge 45, Type (0, 0), BuildingBlock: UVAHIK_clean_linker_0, # of connection points: 2
#     Edge 46, Type (0, 0), BuildingBlock: UVAHIK_clean_linker_0, # of connection points: 2
#     Edge 47, Type (0, 0), BuildingBlock: UVAHIK_clean_linker_0, # of connection points: 2
#     Edge 48, Type (0, 0), BuildingBlock: UVAHIK_clean_linker_0, # of connection points: 2
#     Edge 49, Type (0, 0), BuildingBlock: UVAHIK_clean_linker_0, # of connection points: 2
#     Edge 50, Type (0, 0), BuildingBlock: UVAHIK_clean_linker_0, # of connection points: 2
#     Edge 51, Type (0, 0), BuildingBlock: UVAHIK_clean_linker_0, # of connection points: 2
#     Edge 52, Type (0, 0), BuildingBlock: UVAHIK_clean_linker_0, # of connection points: 2
#     Edge 53, Type (0, 0), BuildingBlock: UVAHIK_clean_linker_0, # of connection points: 2
#     Edge 54, Type (0, 0), BuildingBlock: UVAHIK_clean_linker_0, # of connection points: 2
#     Edge 55, Type (0, 0), BuildingBlock: UVAHIK_clean_linker_0, # of connection points: 2
#     Edge 56, Type (0, 0), BuildingBlock: UVAHIK_clean_linker_0, # of connection points: 2
#     Edge 57, Type (0, 0), BuildingBlock: UVAHIK_clean_linker_0, # of connection points: 2
#     Edge 58, Type (0, 0), BuildingBlock: UVAHIK_clean_linker_0, # of connection points: 2
#     Edge 59, Type (0, 0), BuildingBlock: UVAHIK_clean_linker_0, # of connection points: 2
#     Edge 60, Type (0, 0), BuildingBlock: UVAHIK_clean_linker_0, # of connection points: 2
#     Edge 61, Type (0, 0), BuildingBlock: UVAHIK_clean_linker_0, # of connection points: 2
#     Edge 62, Type (0, 0), BuildingBlock: UVAHIK_clean_linker_0, # of connection points: 2
#     Edge 63, Type (0, 0), BuildingBlock: UVAHIK_clean_linker_0, # of connection points: 2
#     Edge 64, Type (0, 0), BuildingBlock: UVAHIK_clean_linker_0, # of connection points: 2
#     Edge 65, Type (0, 0), BuildingBlock: UVAHIK_clean_linker_0, # of connection points: 2
#     Edge 66, Type (0, 0), BuildingBlock: UVAHIK_clean_linker_0, # of connection points: 2
#     Edge 67, Type (0, 0), BuildingBlock: UVAHIK_clean_linker_0, # of connection points: 2
#     Edge 68, Type (0, 0), BuildingBlock: UVAHIK_clean_linker_0, # of connection points: 2
#     Edge 69, Type (0, 0), BuildingBlock: UVAHIK_clean_linker_0, # of connection points: 2
#     Edge 70, Type (0, 0), BuildingBlock: UVAHIK_clean_linker_0, # of connection points: 2
#     Edge 71, Type (0, 0), BuildingBlock: UVAHIK_clean_linker_0, # of connection points: 2
#     Edge 72, Type (0, 0), BuildingBlock: UVAHIK_clean_linker_0, # of connection points: 2
#     Edge 73, Type (0, 0), BuildingBlock: UVAHIK_clean_linker_0, # of connection points: 2
#     Edge 74, Type (0, 0), BuildingBlock: UVAHIK_clean_linker_0, # of connection points: 2
#     Edge 75, Type (0, 0), BuildingBlock: UVAHIK_clean_linker_0, # of connection points: 2
#     Edge 76, Type (0, 0), BuildingBlock: UVAHIK_clean_linker_0, # of connection points: 2
#     Edge 77, Type (0, 0), BuildingBlock: UVAHIK_clean_linker_0, # of connection points: 2
#     Edge 78, Type (0, 0), BuildingBlock: UVAHIK_clean_linker_0, # of connection points: 2
#     Edge 79, Type (0, 0), BuildingBlock: UVAHIK_clean_linker_0, # of connection points: 2
#     Edge 80, Type (0, 0), BuildingBlock: UVAHIK_clean_linker_0, # of connection points: 2
#     Edge 81, Type (0, 0), BuildingBlock: UVAHIK_clean_linker_0, # of connection points: 2
#     Edge 82, Type (0, 0), BuildingBlock: UVAHIK_clean_linker_0, # of connection points: 2
#     Edge 83, Type (0, 0), BuildingBlock: UVAHIK_clean_linker_0, # of connection points: 2
#     Edge 84, Type (0, 0), BuildingBlock: UVAHIK_clean_linker_0, # of connection points: 2
#     Edge 85, Type (0, 0), BuildingBlock: UVAHIK_clean_linker_0, # of connection points: 2
#     Edge 86, Type (0, 0), BuildingBlock: UVAHIK_clean_linker_0, # of connection points: 2
#     Edge 87, Type (0, 0), BuildingBlock: UVAHIK_clean_linker_0, # of connection points: 2
#     Edge 88, Type (0, 0), BuildingBlock: UVAHIK_clean_linker_0, # of connection points: 2
#     Edge 89, Type (0, 0), BuildingBlock: UVAHIK_clean_linker_0, # of connection points: 2
#     Edge 90, Type (0, 0), BuildingBlock: UVAHIK_clean_linker_0, # of connection points: 2
#     Edge 91, Type (0, 0), BuildingBlock: UVAHIK_clean_linker_0, # of connection points: 2
#     Edge 92, Type (0, 0), BuildingBlock: UVAHIK_clean_linker_0, # of connection points: 2
#     Edge 93, Type (0, 0), BuildingBlock: UVAHIK_clean_linker_0, # of connection points: 2
#     Edge 94, Type (0, 0), BuildingBlock: UVAHIK_clean_linker_0, # of connection points: 2
#     Edge 95, Type (0, 0), BuildingBlock: UVAHIK_clean_linker_0, # of connection points: 2
# Relax obj value: 0.056
# Max RMSD: 0.086
# Mean RMSD: 0.086
data_MOF--net-uos--node1-NAHDIM_clean_sbu_0--edge1-UVAHIK_clean_linker_0
_symmetry_space_group_name_H-M    P1
_symmetry_Int_Tables_number       1
_symmetry_cell_setting            triclinic
loop_
_symmetry_equiv_pos_as_xyz
'x, y, z'
_cell_length_a     109.26647
_cell_length_b     109.22455
_cell_length_c     30.54816
_cell_angle_alpha  89.979314
_cell_angle_beta   90.013859
_cell_angle_gamma 89.984474
loop_
_atom_site_label
_atom_site_type_symbol
_atom_site_fract_x
_atom_site_fract_y
_atom_site_fract_z
_atom_type_partial_charge
C0 C 0.16416 0.14948 0.02313 0.0
O1 O 0.16708 0.16112 0.02022 0.0
O2 O 0.16077 0.17187 0.10475 0.0
Zn3 Zn 0.1652 0.15428 0.11566 0.0
O4 O 0.15397 0.14728 0.16078 0.0
C5 C 0.19008 0.16171 0.12839 0.0
O6 O 0.18678 0.17046 0.10134 0.0
O7 O 0.16325 0.14456 0.06066 0.0
C8 C 0.15369 0.15174 0.19913 0.0
O9 O 0.16084 0.16103 0.20873 0.0
C10 C 0.15003 0.17619 0.10856 0.0
O11 O 0.14103 0.1689 0.1201 0.0
O12 O 0.18241 0.15342 0.13833 0.0
C13 C 0.09282 0.90139 0.31229 0.0
O14 O 0.08749 0.89251 0.3342 0.0
O15 O 0.0661 0.908 0.37682 0.0
Zn16 Zn 0.08335 0.91402 0.38428 0.0
O17 O 0.09208 0.90394 0.42977 0.0
C18 C 0.0914 0.93686 0.42337 0.0
O19 O 0.10158 0.93079 0.43047 0.0
O20 O 0.09218 0.91223 0.32711 0.0
C21 C 0.10351 0.90192 0.42725 0.0
O22 O 0.10978 0.90669 0.39476 0.0
C23 C 0.06189 0.89848 0.39542 0.0
O24 O 0.06904 0.89198 0.42101 0.0
O25 O 0.08263 0.93161 0.4035 0.0
C26 C 0.34623 0.84177 0.55708 0.0
O27 O 0.35447 0.8379 0.58519 0.0
O28 O 0.33583 0.81142 0.60601 0.0
Zn29 Zn 0.33155 0.82905 0.617 0.0
O30 O 0.34184 0.83577 0.66553 0.0
C31 C 0.30765 0.82122 0.64534 0.0
O32 O 0.31254 0.81031 0.64102 0.0
O33 O 0.33507 0.83896 0.56317 0.0
C34 C 0.34038 0.83278 0.70533 0.0
O35 O 0.33191 0.82475 0.71569 0.0
C36 C 0.34594 0.80657 0.61712 0.0
O37 O 0.35435 0.81334 0.63601 0.0
O38 O 0.31393 0.83061 0.63544 0.0
C39 C 0.39594 0.09507 0.81717 0.0
O40 O 0.39976 0.1025 0.84807 0.0
O41 O 0.42568 0.0851 0.86317 0.0
Zn42 Zn 0.40838 0.07946 0.87343 0.0
O43 O 0.40096 0.08845 0.9241 0.0
C44 C 0.4175 0.0568 0.90555 0.0
O45 O 0.42707 0.06377 0.91296 0.0
O46 O 0.3985 0.08374 0.82009 0.0
C47 C 0.4043 0.08751 0.96375 0.0
O48 O 0.41332 0.08009 0.97401 0.0
C49 C 0.42994 0.09521 0.87704 0.0
O50 O 0.42286 0.1026 0.89954 0.0
O51 O 0.40816 0.06142 0.88701 0.0
C52 C 0.15413 0.85893 0.93046 0.0
O53 O 0.14692 0.85744 0.89646 0.0
O54 O 0.16159 0.82523 0.89619 0.0
Zn55 Zn 0.16827 0.8419 0.88195 0.0
O56 O 0.16071 0.84825 0.82666 0.0
C57 C 0.19091 0.83062 0.85855 0.0
O58 O 0.18376 0.82099 0.85587 0.0
O59 O 0.1643 0.85327 0.93162 0.0
C60 C 0.15972 0.84176 0.79235 0.0
O61 O 0.16357 0.83036 0.79289 0.0
C62 C 0.15068 0.82186 0.8883 0.0
O63 O 0.14296 0.82964 0.87059 0.0
O64 O 0.1864 0.84077 0.87106 0.0
C65 C 0.3983 0.89742 0.17853 0.0
O66 O 0.40255 0.88942 0.15027 0.0
O67 O 0.42686 0.90855 0.12284 0.0
Zn68 Zn 0.40901 0.9126 0.1159 0.0
O69 O 0.40164 0.90231 0.06861 0.0
C70 C 0.41554 0.93798 0.10778 0.0
O71 O 0.42509 0.93444 0.13064 0.0
O72 O 0.4001 0.90875 0.17155 0.0
C73 C 0.40429 0.90355 0.02841 0.0
O74 O 0.41223 0.91195 0.01659 0.0
C75 C 0.43187 0.89885 0.10846 0.0
O76 O 0.42517 0.89064 0.08816 0.0
O77 O 0.40721 0.93026 0.09888 0.0
C78 C 0.34546 0.15231 0.43513 0.0
O79 O 0.35326 0.15674 0.40652 0.0
O80 O 0.33519 0.18061 0.38025 0.0
Zn81 Zn 0.33009 0.163 0.37359 0.0
O82 O 0.33957 0.15493 0.3254 0.0
C83 C 0.30719 0.17106 0.33934 0.0
O84 O 0.3138 0.18081 0.33073 0.0
O85 O 0.33408 0.15395 0.42881 0.0
C86 C 0.33775 0.15681 0.28491 0.0
O87 O 0.32922 0.16457 0.27268 0.0
C88 C 0.34474 0.18514 0.36285 0.0
O89 O 0.35201 0.17807 0.3398 0.0
O90 O 0.31214 0.16208 0.35909 0.0
C91 C 0.09444 0.09807 0.67587 0.0
O92 O 0.09064 0.10588 0.6461 0.0
O93 O 0.06308 0.08687 0.63279 0.0
Zn94 Zn 0.08064 0.08233 0.62189 0.0
O95 O 0.08711 0.09158 0.57018 0.0
C96 C 0.07335 0.05838 0.59285 0.0
O97 O 0.06299 0.06407 0.58484 0.0
O98 O 0.09101 0.08697 0.67346 0.0
C99 C 0.08462 0.08931 0.53042 0.0
O100 O 0.07721 0.08024 0.5208 0.0
C101 C 0.05859 0.09695 0.61963 0.0
O102 O 0.06566 0.10482 0.59916 0.0
O103 O 0.08217 0.06432 0.60968 0.0
C104 C 0.84376 0.84556 0.93458 0.0
O105 O 0.85078 0.84032 0.90516 0.0
O106 O 0.831 0.81725 0.88508 0.0
Zn107 Zn 0.82683 0.83509 0.87797 0.0
O108 O 0.83604 0.84206 0.82722 0.0
C109 C 0.80136 0.8284 0.872 0.0
O110 O 0.80523 0.81829 0.89078 0.0
O111 O 0.83222 0.84445 0.93115 0.0
C112 C 0.83337 0.83997 0.78748 0.0
O113 O 0.8241 0.83277 0.77814 0.0
C114 C 0.84039 0.8123 0.86806 0.0
O115 O 0.84797 0.81902 0.84492 0.0
O116 O 0.80889 0.83706 0.86532 0.0
C117 C 0.89505 0.0944 0.66414 0.0
O118 O 0.89869 0.1017 0.63256 0.0
O119 O 0.92454 0.08437 0.61719 0.0
Zn120 Zn 0.90725 0.07858 0.60805 0.0
O121 O 0.89946 0.08721 0.55711 0.0
C122 C 0.91645 0.05621 0.57507 0.0
O123 O 0.92529 0.0637 0.56349 0.0
O124 O 0.8976 0.08306 0.66171 0.0
C125 C 0.90327 0.08715 0.51786 0.0
O126 O 0.91315 0.08092 0.50777 0.0
C127 C 0.92892 0.09438 0.60296 0.0
O128 O 0.9219 0.10186 0.58048 0.0
O129 O 0.90739 0.06043 0.59638 0.0
C130 C 0.66671 0.14714 0.46783 0.0
O131 O 0.66961 0.15879 0.47022 0.0
O132 O 0.66207 0.16939 0.38589 0.0
Zn133 Zn 0.66677 0.15187 0.37513 0.0
O134 O 0.65518 0.14475 0.33143 0.0
C135 C 0.69133 0.15978 0.35925 0.0
O136 O 0.68804 0.16856 0.38619 0.0
O137 O 0.66543 0.14219 0.43051 0.0
C138 C 0.65447 0.1493 0.29327 0.0
O139 O 0.66156 0.15857 0.28285 0.0
C140 C 0.6511 0.17321 0.38448 0.0
O141 O 0.64222 0.16544 0.37634 0.0
O142 O 0.68379 0.15127 0.35054 0.0
C143 C 0.59449 0.90338 0.17855 0.0
O144 O 0.59029 0.89588 0.14845 0.0
O145 O 0.56669 0.91417 0.12214 0.0
Zn146 Zn 0.58435 0.91924 0.11764 0.0
O147 O 0.59253 0.90997 0.06942 0.0
C148 C 0.57633 0.94425 0.11006 0.0
O149 O 0.5664 0.93985 0.12852 0.0
O150 O 0.59298 0.91482 0.17343 0.0
C151 C 0.59031 0.91174 0.02914 0.0
O152 O 0.58229 0.92011 0.01769 0.0
C153 C 0.56228 0.90449 0.10525 0.0
O154 O 0.56949 0.89707 0.08335 0.0
O155 O 0.58542 0.9372 0.10386 0.0
C156 C 0.84575 0.15301 0.04561 0.0
O157 O 0.85357 0.15771 0.07361 0.0
O158 O 0.83491 0.18121 0.1002 0.0
Zn159 Zn 0.83025 0.16351 0.10743 0.0
O160 O 0.83989 0.15575 0.15598 0.0
C161 C 0.80711 0.17119 0.14086 0.0
O162 O 0.81345 0.18118 0.14862 0.0
O163 O 0.83437 0.15441 0.05247 0.0
C164 C 0.83751 0.15729 0.19629 0.0
O165 O 0.82841 0.16445 0.20771 0.0
C166 C 0.84413 0.18615 0.11846 0.0
O167 O 0.85145 0.17942 0.14268 0.0
O168 O 0.81232 0.16222 0.12197 0.0
C169 C 0.59658 0.09901 0.81715 0.0
O170 O 0.59283 0.10728 0.84533 0.0
O171 O 0.56358 0.0899 0.85177 0.0
Zn172 Zn 0.58059 0.08475 0.86861 0.0
O173 O 0.58619 0.09426 0.92107 0.0
C174 C 0.57113 0.06175 0.89885 0.0
O175 O 0.56092 0.06809 0.90054 0.0
O176 O 0.59233 0.0882 0.81965 0.0
C177 C 0.58242 0.09235 0.95978 0.0
O178 O 0.57423 0.08378 0.9669 0.0
C179 C 0.55914 0.10024 0.86227 0.0
O180 O 0.56601 0.10814 0.88344 0.0
O181 O 0.5808 0.06688 0.8847 0.0
C182 C 0.64737 0.84762 0.5596 0.0
O183 O 0.63969 0.84329 0.58883 0.0
O184 O 0.65727 0.81823 0.60776 0.0
Zn185 Zn 0.6626 0.83562 0.61805 0.0
O186 O 0.65314 0.84311 0.66749 0.0
C187 C 0.68506 0.82665 0.65255 0.0
O188 O 0.67816 0.81693 0.65815 0.0
O189 O 0.65873 0.84547 0.56427 0.0
C190 C 0.65441 0.84029 0.70755 0.0
O191 O 0.66231 0.83178 0.7187 0.0
C192 C 0.64741 0.81361 0.62243 0.0
O193 O 0.63989 0.82045 0.64534 0.0
O194 O 0.68051 0.83603 0.63403 0.0
C195 C 0.90704 0.90638 0.281 0.0
O196 O 0.91905 0.90647 0.27921 0.0
O197 O 0.92832 0.90461 0.36667 0.0
Zn198 Zn 0.91098 0.91051 0.3735 0.0
O199 O 0.90218 0.90081 0.41952 0.0
C200 C 0.91993 0.93244 0.41359 0.0
O201 O 0.92913 0.92519 0.4233 0.0
O202 O 0.90175 0.90825 0.3174 0.0
C203 C 0.90499 0.90141 0.4598 0.0
O204 O 0.91415 0.9084 0.47203 0.0
C205 C 0.93245 0.8946 0.38188 0.0
O206 O 0.92509 0.88719 0.40316 0.0
O207 O 0.91105 0.92826 0.39127 0.0
C208 C 0.65119 0.64852 0.5697 0.0
O209 O 0.64271 0.65211 0.59735 0.0
O210 O 0.65988 0.67965 0.6159 0.0
Zn211 Zn 0.66509 0.66237 0.62894 0.0
O212 O 0.65504 0.65547 0.67803 0.0
C213 C 0.68745 0.67131 0.66586 0.0
O214 O 0.68079 0.68124 0.67038 0.0
O215 O 0.66218 0.65191 0.57591 0.0
C216 C 0.65559 0.65929 0.71722 0.0
O217 O 0.66306 0.6683 0.72705 0.0
C218 C 0.64945 0.68387 0.62646 0.0
O219 O 0.64152 0.67669 0.64609 0.0
O220 O 0.68278 0.66198 0.64739 0.0
C221 C 0.60582 0.39781 0.81848 0.0
O222 O 0.60501 0.39197 0.85594 0.0
O223 O 0.57197 0.41173 0.84916 0.0
Zn224 Zn 0.58972 0.4143 0.86313 0.0
O225 O 0.59409 0.40563 0.91907 0.0
C226 C 0.60067 0.43638 0.89672 0.0
O227 O 0.60875 0.42872 0.91304 0.0
O228 O 0.60012 0.40788 0.81368 0.0
C229 C 0.58662 0.40282 0.94929 0.0
O230 O 0.57501 0.40574 0.94534 0.0
C231 C 0.56676 0.40133 0.84796 0.0
O232 O 0.57323 0.3914 0.85534 0.0
O233 O 0.59213 0.43228 0.87264 0.0
C234 C 0.84036 0.34819 0.05859 0.0
O235 O 0.84732 0.34429 0.09075 0.0
O236 O 0.82812 0.32096 0.11498 0.0
Zn237 Zn 0.82343 0.33877 0.11744 0.0
O238 O 0.83217 0.34712 0.16663 0.0
C239 C 0.79803 0.33213 0.11255 0.0
O240 O 0.80239 0.32331 0.08786 0.0
O241 O 0.82883 0.34685 0.06163 0.0
C242 C 0.83081 0.34434 0.20667 0.0
O243 O 0.82314 0.33558 0.2175 0.0
C244 C 0.83769 0.31649 0.13248 0.0
O245 O 0.84515 0.32369 0.15423 0.0
O246 O 0.80532 0.34016 0.12754 0.0
C247 C 0.90325 0.59734 0.32508 0.0
O248 O 0.90857 0.60503 0.3521 0.0
O249 O 0.9315 0.58654 0.37777 0.0
Zn250 Zn 0.91392 0.58166 0.38601 0.0
O251 O 0.90642 0.5906 0.43656 0.0
C252 C 0.91985 0.56065 0.43286 0.0
O253 O 0.92658 0.56902 0.4522 0.0
O254 O 0.90424 0.58592 0.33225 0.0
C255 C 0.91105 0.59981 0.45577 0.0
O256 O 0.9217 0.60405 0.44285 0.0
C257 C 0.93651 0.58567 0.34036 0.0
O258 O 0.92997 0.58178 0.30704 0.0
O259 O 0.91324 0.56377 0.40048 0.0
C260 C 0.64588 0.33535 0.43362 0.0
O261 O 0.63694 0.3298 0.41288 0.0
O262 O 0.65458 0.30864 0.3684 0.0
Zn263 Zn 0.65797 0.32658 0.35913 0.0
O264 O 0.64594 0.33433 0.31788 0.0
C265 C 0.67879 0.32068 0.30688 0.0
O266 O 0.67182 0.31127 0.29714 0.0
O267 O 0.65651 0.33529 0.41679 0.0
C268 C 0.64288 0.32992 0.281 0.0
O269 O 0.64749 0.31939 0.26838 0.0
C270 C 0.64431 0.30336 0.36329 0.0
O271 O 0.63477 0.30979 0.35075 0.0
O272 O 0.67488 0.32861 0.33394 0.0
C273 C 0.9002 0.39796 0.67916 0.0
O274 O 0.90458 0.39032 0.64987 0.0
O275 O 0.92777 0.41012 0.6211 0.0
Zn276 Zn 0.90983 0.41401 0.61696 0.0
O277 O 0.90197 0.40438 0.56889 0.0
C278 C 0.91506 0.43979 0.61911 0.0
O279 O 0.92351 0.4363 0.64705 0.0
O280 O 0.90147 0.40939 0.67298 0.0
C281 C 0.90353 0.4069 0.52873 0.0
O282 O 0.91076 0.41602 0.51782 0.0
C283 C 0.93265 0.40057 0.60497 0.0
O284 O 0.92576 0.39256 0.58444 0.0
O285 O 0.90783 0.43184 0.60322 0.0
C286 C 0.8463 0.64786 0.94167 0.0
O287 O 0.85366 0.65167 0.91051 0.0
O288 O 0.83367 0.67652 0.88928 0.0
Zn289 Zn 0.82989 0.65859 0.88293 0.0
O290 O 0.83954 0.65164 0.83311 0.0
C291 C 0.80435 0.66473 0.88067 0.0
O292 O 0.80811 0.67402 0.90445 0.0
O293 O 0.83488 0.64977 0.93787 0.0
C294 C 0.83881 0.65571 0.79428 0.0
O295 O 0.83126 0.66476 0.78564 0.0
C296 C 0.84353 0.68151 0.87635 0.0
O297 O 0.85205 0.67474 0.85807 0.0
O298 O 0.81201 0.65659 0.86922 0.0
C299 C 0.60081 0.59326 0.18887 0.0
O300 O 0.5969 0.60141 0.16048 0.0
O301 O 0.57102 0.58145 0.13763 0.0
Zn302 Zn 0.58894 0.57813 0.12771 0.0
O303 O 0.5954 0.589 0.08002 0.0
C304 C 0.58315 0.55517 0.08803 0.0
O305 O 0.57283 0.56094 0.0801 0.0
O306 O 0.59836 0.58202 0.18245 0.0
C307 C 0.59187 0.58865 0.04045 0.0
O308 O 0.58343 0.58075 0.02872 0.0
C309 C 0.56611 0.59167 0.12826 0.0
O310 O 0.57292 0.6005 0.11217 0.0
O311 O 0.59149 0.56061 0.10951 0.0
C312 C 0.34609 0.34655 0.42914 0.0
O313 O 0.35388 0.34143 0.40197 0.0
O314 O 0.33559 0.32048 0.36675 0.0
Zn315 Zn 0.33116 0.33834 0.36214 0.0
O316 O 0.34154 0.34652 0.3168 0.0
C317 C 0.30598 0.33139 0.35493 0.0
O318 O 0.30978 0.32224 0.37932 0.0
O319 O 0.33478 0.34645 0.41956 0.0
C320 C 0.34049 0.34429 0.27621 0.0
O321 O 0.33224 0.33636 0.26295 0.0
C322 C 0.34512 0.31562 0.35044 0.0
O323 O 0.35294 0.32245 0.32874 0.0
O324 O 0.31348 0.33982 0.34473 0.0
C325 C 0.39942 0.59763 0.1876 0.0
O326 O 0.40383 0.60539 0.15879 0.0
O327 O 0.42986 0.58466 0.1421 0.0
Zn328 Zn 0.412 0.58155 0.13133 0.0
O329 O 0.40599 0.5913 0.07997 0.0
C330 C 0.41531 0.56038 0.08166 0.0
O331 O 0.42231 0.56827 0.06096 0.0
O332 O 0.40196 0.58632 0.18372 0.0
C333 C 0.39493 0.58949 0.06894 0.0
O334 O 0.38841 0.5815 0.09109 0.0
C335 C 0.43517 0.59448 0.13035 0.0
O336 O 0.42876 0.60314 0.11122 0.0
O337 O 0.40967 0.56386 0.11586 0.0
C338 C 0.14596 0.65725 0.93168 0.0
O339 O 0.13796 0.66102 0.90254 0.0
O340 O 0.15673 0.68807 0.88676 0.0
Zn341 Zn 0.16109 0.67055 0.87452 0.0
O342 O 0.15147 0.66421 0.82345 0.0
C343 C 0.18197 0.6756 0.82464 0.0
O344 O 0.17371 0.68242 0.80501 0.0
O345 O 0.15713 0.66024 0.92711 0.0
C346 C 0.15453 0.65384 0.80816 0.0
O347 O 0.16376 0.64796 0.826 0.0
C348 C 0.14659 0.69278 0.87526 0.0
O349 O 0.13851 0.68601 0.85456 0.0
O350 O 0.17885 0.66946 0.85817 0.0
C351 C 0.09574 0.39592 0.67656 0.0
O352 O 0.09068 0.38821 0.64896 0.0
O353 O 0.06886 0.40798 0.61809 0.0
Zn354 Zn 0.08688 0.41144 0.6116 0.0
O355 O 0.09423 0.40071 0.56523 0.0
C356 C 0.08108 0.43444 0.57254 0.0
O357 O 0.07108 0.42838 0.56249 0.0
O358 O 0.09531 0.4073 0.66811 0.0
C359 C 0.09151 0.40133 0.52489 0.0
O360 O 0.08344 0.40945 0.51166 0.0
C361 C 0.06366 0.3984 0.60354 0.0
O362 O 0.07022 0.39003 0.58354 0.0
O363 O 0.08936 0.42912 0.5948 0.0
C364 C 0.32976 0.65061 0.53499 0.0
O365 O 0.32727 0.66235 0.53223 0.0
O366 O 0.33094 0.6725 0.61841 0.0
Zn367 Zn 0.32615 0.65492 0.62704 0.0
O368 O 0.33608 0.64761 0.67543 0.0
C369 C 0.30074 0.66159 0.62756 0.0
O370 O 0.30434 0.66923 0.59694 0.0
O371 O 0.32942 0.6454 0.57215 0.0
C372 C 0.33636 0.65253 0.71308 0.0
O373 O 0.3301 0.66262 0.72 0.0
C374 C 0.34177 0.67647 0.62356 0.0
O375 O 0.35048 0.66885 0.63535 0.0
O376 O 0.30845 0.65425 0.64425 0.0
C377 C 0.09928 0.59738 0.31546 0.0
O378 O 0.09368 0.60439 0.34409 0.0
O379 O 0.07231 0.58436 0.36872 0.0
Zn380 Zn 0.09016 0.58032 0.375 0.0
O381 O 0.09717 0.58909 0.42707 0.0
C382 C 0.08732 0.55885 0.42257 0.0
O383 O 0.08213 0.56707 0.44793 0.0
O384 O 0.0992 0.58586 0.32124 0.0
C385 C 0.09174 0.59778 0.44675 0.0
O386 O 0.08099 0.60147 0.43274 0.0
C387 C 0.06699 0.58386 0.3318 0.0
O388 O 0.0733 0.58065 0.29705 0.0
O389 O 0.0918 0.56228 0.38619 0.0
C390 C 0.14925 0.34201 0.05985 0.0
O391 O 0.14177 0.33857 0.09117 0.0
O392 O 0.16087 0.31101 0.10243 0.0
Zn393 Zn 0.1651 0.32862 0.11429 0.0
O394 O 0.15547 0.33483 0.16557 0.0
C395 C 0.18831 0.32113 0.1474 0.0
O396 O 0.18212 0.31099 0.15392 0.0
O397 O 0.16042 0.33878 0.06184 0.0
C398 C 0.15621 0.33081 0.20448 0.0
O399 O 0.16383 0.32185 0.2135 0.0
C400 C 0.15054 0.30636 0.11185 0.0
O401 O 0.14205 0.31326 0.12964 0.0
O402 O 0.18303 0.33014 0.129 0.0
C403 C 0.39952 0.40115 0.811 0.0
O404 O 0.40278 0.39399 0.84352 0.0
O405 O 0.4303 0.41498 0.85387 0.0
Zn406 Zn 0.41239 0.41788 0.8642 0.0
O407 O 0.40677 0.40814 0.91601 0.0
C408 C 0.40149 0.4396 0.90159 0.0
O409 O 0.39356 0.43175 0.91758 0.0
O410 O 0.4027 0.41235 0.81175 0.0
C411 C 0.41046 0.40948 0.9551 0.0
O412 O 0.41871 0.41786 0.964 0.0
C413 C 0.4355 0.40476 0.86077 0.0
O414 O 0.42897 0.39546 0.87487 0.0
O415 O 0.40998 0.43577 0.87665 0.0
C416 C 0.28744 0.15963 0.33033 0.0
C417 C 0.2945 0.17018 0.32283 0.0
C418 C 0.27575 0.15855 0.31209 0.0
C419 C 0.25078 0.17666 0.26141 0.0
H420 H 0.24193 0.14569 0.20804 0.0
C421 C 0.21005 0.17208 0.14334 0.0
C422 C 0.20221 0.16204 0.14973 0.0
C423 C 0.22117 0.1728 0.16569 0.0
C424 C 0.24423 0.15435 0.22319 0.0
H425 H 0.29475 0.18795 0.29103 0.0
H426 H 0.27452 0.18599 0.25883 0.0
H427 H 0.26139 0.14757 0.24664 0.0
H428 H 0.20003 0.14474 0.18384 0.0
H429 H 0.2195 0.146 0.22272 0.0
H430 H 0.2337 0.18348 0.23729 0.0
C431 C 0.2779 0.17862 0.27927 0.0
C432 C 0.25535 0.15543 0.24543 0.0
C433 C 0.28954 0.17971 0.29755 0.0
C434 C 0.20586 0.1526 0.17819 0.0
C435 C 0.21703 0.15329 0.20036 0.0
C436 C 0.2397 0.1756 0.23902 0.0
C437 C 0.27091 0.16798 0.28596 0.0
C438 C 0.2588 0.16663 0.26448 0.0
C439 C 0.22472 0.16347 0.19471 0.0
C440 C 0.23635 0.16446 0.21938 0.0
H441 H 0.29098 0.15214 0.34981 0.0
H442 H 0.27053 0.15031 0.31838 0.0
H443 H 0.25306 0.18535 0.27638 0.0
H444 H 0.20752 0.1795 0.1216 0.0
H445 H 0.227 0.18067 0.16021 0.0
C446 C 0.07875 0.95572 0.4345 0.0
C447 C 0.08985 0.94943 0.44046 0.0
C448 C 0.07708 0.96738 0.45223 0.0
C449 C 0.09385 0.99422 0.49376 0.0
H450 H 0.06296 0.00184 0.55006 0.0
C451 C 0.08621 0.03947 0.58691 0.0
C452 C 0.07503 0.04548 0.57949 0.0
C453 C 0.08803 0.02752 0.57201 0.0
C454 C 0.0716 -0.00011 0.53411 0.0
H455 H 0.10797 0.95053 0.46932 0.0
H456 H 0.10502 0.97088 0.50043 0.0
H457 H 0.06622 0.98153 0.51905 0.0
H458 H 0.0569 0.04357 0.55131 0.0
H459 H 0.06011 0.02278 0.52496 0.0
H460 H 0.0992 0.0126 0.50851 0.0
C461 C 0.09764 0.96681 0.48173 0.0
C462 C 0.07346 0.98826 0.51632 0.0
C463 C 0.09931 0.95514 0.46404 0.0
C464 C 0.06561 0.0392 0.55764 0.0
C465 C 0.06744 0.02725 0.54271 0.0
C466 C 0.09198 0.00585 0.5115 0.0
C467 C 0.08648 0.97302 0.47627 0.0
C468 C 0.08459 0.98532 0.49577 0.0
C469 C 0.07871 0.02132 0.54935 0.0
C470 C 0.08081 0.00883 0.53172 0.0
H471 H 0.07129 0.9516 0.41638 0.0
H472 H 0.06844 0.972 0.44688 0.0
H473 H 0.10247 0.99228 0.47765 0.0
H474 H 0.09363 0.04403 0.60382 0.0
H475 H 0.09675 0.02313 0.57822 0.0
C476 C 0.20861 0.81859 0.82975 0.0
C477 C 0.20366 0.82991 0.84266 0.0
C478 C 0.22023 0.81798 0.81093 0.0
C479 C 0.24202 0.8366 0.74881 0.0
H480 H 0.26473 0.81044 0.7766 0.0
C481 C 0.29094 0.83421 0.67696 0.0
C482 C 0.29541 0.82259 0.6654 0.0
C483 C 0.2798 0.83539 0.69899 0.0
C484 C 0.25843 0.81772 0.7681 0.0
H485 H 0.20719 0.84941 0.84722 0.0
H486 H 0.22754 0.84832 0.81441 0.0
H487 H 0.24551 0.81204 0.81667 0.0
H488 H 0.29151 0.80311 0.66658 0.0
H489 H 0.27198 0.80519 0.70421 0.0
H490 H 0.25485 0.84219 0.69984 0.0
C491 C 0.22235 0.83995 0.81849 0.0
C492 C 0.24744 0.81866 0.79118 0.0
C493 C 0.21074 0.84056 0.83755 0.0
C494 C 0.28836 0.8122 0.67528 0.0
C495 C 0.27721 0.81338 0.69715 0.0
C496 C 0.25299 0.83564 0.72562 0.0
C497 C 0.22714 0.82867 0.80447 0.0
C498 C 0.23909 0.82806 0.7816 0.0
C499 C 0.27288 0.82497 0.70979 0.0
C500 C 0.26129 0.82614 0.73481 0.0
H501 H 0.2034 0.81021 0.83326 0.0
H502 H 0.22363 0.80917 0.80011 0.0
H503 H 0.23567 0.84384 0.74027 0.0
H504 H 0.29618 0.8424 0.66995 0.0
H505 H 0.27677 0.84444 0.70858 0.0
C506 C 0.42737 0.03941 0.94527 0.0
C507 C 0.41729 0.04408 0.92207 0.0
C508 C 0.42695 0.02772 0.96361 0.0
C509 C 0.40517 0.00432 0.0018 0.0
H510 H 0.43393 0.98349 0.00191 0.0
C511 C 0.40493 0.95422 0.06399 0.0
C512 C 0.41504 0.95046 0.0891 0.0
C513 C 0.40488 0.96568 0.04363 0.0
C514 C 0.42586 0.98926 0.00251 0.0
H515 H 0.39896 0.04 0.89896 0.0
H516 H 0.39831 0.01947 0.93051 0.0
H517 H 0.43452 0.0031 0.96392 0.0
H518 H 0.43288 0.95591 0.11348 0.0
H519 H 0.43275 0.97591 0.0781 0.0
H520 H 0.39652 0.99041 0.04037 0.0
C521 C 0.40646 0.02495 0.93509 0.0
C522 C 0.42619 0.00049 0.98072 0.0
C523 C 0.40687 0.03668 0.91676 0.0
C524 C 0.42496 0.95851 0.09426 0.0
C525 C 0.42493 0.96993 0.07375 0.0
C526 C 0.40483 0.99305 0.02349 0.0
C527 C 0.41646 0.0204 0.95908 0.0
C528 C 0.41589 0.00819 0.9804 0.0
C529 C 0.41495 0.97358 0.0478 0.0
C530 C 0.41521 0.98546 0.02435 0.0
H531 H 0.43553 0.04488 0.95009 0.0
H532 H 0.43475 0.02456 0.98236 0.0
H533 H 0.39714 0.01011 0.00273 0.0
H534 H 0.39714 0.94823 0.05935 0.0
H535 H 0.39709 0.9682 0.0236 0.0
C536 C 0.78494 0.83957 0.83096 0.0
C537 C 0.78884 0.82909 0.85375 0.0
C538 C 0.77361 0.83972 0.80973 0.0
C539 C 0.75124 0.81874 0.76084 0.0
H540 H 0.72956 0.84685 0.76259 0.0
C541 C 0.70212 0.81671 0.69377 0.0
C542 C 0.69751 0.82698 0.67143 0.0
C543 C 0.71348 0.81719 0.71451 0.0
C544 C 0.7356 0.83899 0.76127 0.0
H545 H 0.7837 0.81072 0.87362 0.0
H546 H 0.76391 0.81102 0.83683 0.0
H547 H 0.74867 0.84741 0.80403 0.0
H548 H 0.70138 0.84572 0.65242 0.0
H549 H 0.72136 0.8465 0.68821 0.0
H550 H 0.73826 0.81032 0.71803 0.0
C551 C 0.7697 0.81906 0.83484 0.0
C552 C 0.74652 0.8393 0.78513 0.0
C553 C 0.781 0.81892 0.85618 0.0
C554 C 0.70466 0.83766 0.66944 0.0
C555 C 0.71606 0.83814 0.69021 0.0
C556 C 0.74037 0.81844 0.73691 0.0
C557 C 0.76598 0.82937 0.81074 0.0
C558 C 0.7544 0.82914 0.78542 0.0
C559 C 0.72054 0.82794 0.71332 0.0
C560 C 0.73238 0.82852 0.73709 0.0
H561 H 0.79077 0.84756 0.82846 0.0
H562 H 0.77102 0.84778 0.79123 0.0
H563 H 0.75726 0.81086 0.75969 0.0
H564 H 0.69684 0.80835 0.69606 0.0
H565 H 0.71658 0.80923 0.73248 0.0
C566 C 0.91077 0.95346 0.41588 0.0
C567 C 0.91964 0.9451 0.43055 0.0
C568 C 0.91039 0.96535 0.43275 0.0
C569 C 0.92932 0.98801 0.4925 0.0
H570 H 0.89805 0.00387 0.51207 0.0
C571 C 0.90822 0.03477 0.57674 0.0
C572 C 0.91687 0.04325 0.56133 0.0
C573 C 0.90855 0.02259 0.56257 0.0
C574 C 0.90686 -0.00047 0.50731 0.0
H575 H 0.93499 0.94259 0.47472 0.0
H576 H 0.93415 0.96317 0.50486 0.0
H577 H 0.8986 0.98296 0.48457 0.0
H578 H 0.9326 0.04565 0.51882 0.0
H579 H 0.93299 0.02461 0.49342 0.0
H580 H 0.93759 0.00441 0.5165 0.0
C581 C 0.92765 0.96068 0.4796 0.0
C582 C 0.90718 0.98759 0.4909 0.0
C583 C 0.9281 0.94885 0.46244 0.0
C584 C 0.92585 0.03932 0.53161 0.0
C585 C 0.92613 0.02721 0.51722 0.0
C586 C 0.929 -0.00011 0.50922 0.0
C587 C 0.91881 0.96909 0.46495 0.0
C588 C 0.91842 0.98172 0.48303 0.0
C589 C 0.91749 0.01869 0.53249 0.0
C590 C 0.91777 0.00584 0.51649 0.0
H591 H 0.90415 0.95085 0.39119 0.0
H592 H 0.90358 0.97164 0.42017 0.0
H593 H 0.93815 0.98384 0.4864 0.0
H594 H 0.90121 0.03751 0.59979 0.0
H595 H 0.90186 0.01623 0.57546 0.0
C596 C 0.71088 0.1706 0.34166 0.0
C597 C 0.70328 0.16032 0.3367 0.0
C598 C 0.72182 0.1715 0.31829 0.0
C599 C 0.74502 0.15335 0.26051 0.0
H600 H 0.7527 0.18427 0.20438 0.0
C601 C 0.78772 0.15926 0.15123 0.0
C602 C 0.79448 0.17005 0.15766 0.0
C603 C 0.77611 0.15794 0.16989 0.0
C604 C 0.75074 0.1756 0.22015 0.0
H605 H 0.70133 0.14279 0.30402 0.0
H606 H 0.72049 0.14435 0.26334 0.0
H607 H 0.73359 0.18208 0.24476 0.0
H608 H 0.79425 0.18803 0.18792 0.0
H609 H 0.77416 0.18566 0.22087 0.0
H610 H 0.76227 0.14693 0.23664 0.0
C611 C 0.71797 0.1517 0.28538 0.0
C612 C 0.7398 0.17436 0.24327 0.0
C613 C 0.70698 0.15083 0.30857 0.0
C614 C 0.78928 0.1796 0.18223 0.0
C615 C 0.77771 0.17827 0.20094 0.0
C616 C 0.756 0.15461 0.23755 0.0
C617 C 0.72543 0.1621 0.28965 0.0
C618 C 0.73688 0.16326 0.26401 0.0
C619 C 0.77104 0.16739 0.19538 0.0
C620 C 0.75904 0.16579 0.21745 0.0
H621 H 0.70831 0.17807 0.36311 0.0
H622 H 0.72748 0.17954 0.3227 0.0
H623 H 0.74304 0.14472 0.27649 0.0
H624 H 0.79145 0.15175 0.13231 0.0
H625 H 0.77112 0.14951 0.16447 0.0
C626 C 0.58264 0.0426 0.91745 0.0
C627 C 0.57164 0.04927 0.91747 0.0
C628 C 0.58332 0.0312 0.93808 0.0
C629 C 0.5685 0.01316 0.02463 0.0
H630 H 0.58555 0.98576 0.97186 0.0
C631 C 0.56585 0.96413 0.09419 0.0
C632 C 0.57645 0.95686 0.09245 0.0
C633 C 0.5656 0.97563 0.07418 0.0
C634 C 0.58091 0.99337 0.98733 0.0
H635 H 0.55263 0.04905 0.93809 0.0
H636 H 0.55383 0.02914 0.97381 0.0
H637 H 0.58429 0.00518 0.93267 0.0
H638 H 0.59524 0.95613 0.06966 0.0
H639 H 0.59487 0.97628 0.03542 0.0
H640 H 0.56515 0.00141 0.07934 0.0
C641 C 0.56196 0.0328 0.95835 0.0
C642 C 0.58016 0.00448 0.96481 0.0
C643 C 0.56126 0.04417 0.93761 0.0
C644 C 0.58691 0.96148 0.07141 0.0
C645 C 0.58667 0.97299 0.0515 0.0
C646 C 0.56928 0.00208 0.04722 0.0
C647 C 0.57303 0.02626 0.95927 0.0
C648 C 0.57389 0.01447 0.98314 0.0
C649 C 0.57596 0.98012 0.05212 0.0
C650 C 0.57545 0.99204 0.02876 0.0
H651 H 0.59081 0.04628 0.90225 0.0
H652 H 0.592 0.02641 0.9385 0.0
H653 H 0.56379 0.02077 0.03993 0.0
H654 H 0.55762 0.96083 0.11002 0.0
H655 H 0.55716 0.98082 0.07488 0.0
C656 C 0.707 0.66007 0.68116 0.0
C657 C 0.6998 0.67066 0.6855 0.0
C658 C 0.71835 0.65923 0.70207 0.0
C659 C 0.74248 0.67806 0.7543 0.0
H660 H 0.75131 0.64751 0.8109 0.0
C661 C 0.78385 0.6745 0.86999 0.0
C662 C 0.79174 0.66453 0.86301 0.0
C663 C 0.77241 0.67492 0.84963 0.0
C664 C 0.749 0.65607 0.79497 0.0
H665 H 0.69895 0.68875 0.71473 0.0
H666 H 0.71861 0.68722 0.7516 0.0
H667 H 0.732 0.64902 0.77107 0.0
H668 H 0.79363 0.64696 0.83054 0.0
H669 H 0.77364 0.6477 0.79511 0.0
H670 H 0.75944 0.68513 0.77852 0.0
C671 C 0.7156 0.67962 0.73155 0.0
C672 C 0.73797 0.65693 0.77202 0.0
C673 C 0.70428 0.68048 0.71054 0.0
C674 C 0.78777 0.65478 0.83656 0.0
C675 C 0.7763 0.65518 0.81637 0.0
C676 C 0.75347 0.67722 0.77741 0.0
C677 C 0.72273 0.66896 0.72785 0.0
C678 C 0.73457 0.66794 0.75146 0.0
C679 C 0.7686 0.66536 0.82206 0.0
C680 C 0.75684 0.66622 0.79805 0.0
H681 H 0.70383 0.65236 0.66196 0.0
H682 H 0.72371 0.65097 0.69798 0.0
H683 H 0.74025 0.68662 0.73823 0.0
H684 H 0.78661 0.68214 0.89028 0.0
H685 H 0.76659 0.6828 0.85515 0.0
C686 C 0.59083 0.45704 0.89788 0.0
C687 C 0.60043 0.44931 0.91109 0.0
C688 C 0.58965 0.46875 0.91563 0.0
C689 C 0.60579 0.4932 0.97493 0.0
H690 H 0.57325 0.50135 0.01648 0.0
C691 C 0.59607 0.53635 0.07913 0.0
C692 C 0.58529 0.54285 0.06957 0.0
C693 C 0.59824 0.52491 0.06016 0.0
C694 C 0.58236 0.4993 0.0046 0.0
H695 H 0.6167 0.44806 0.95159 0.0
H696 H 0.61465 0.46859 0.98249 0.0
H697 H 0.57677 0.48182 0.98032 0.0
H698 H 0.56834 0.54243 0.03259 0.0
H699 H 0.57221 0.52264 -0.00096 0.0
H700 H 0.61136 0.51076 -0.00117 0.0
C701 C 0.60803 0.46554 0.95843 0.0
C702 C 0.58437 0.4881 0.98389 0.0
C703 C 0.60918 0.45378 0.94082 0.0
C704 C 0.5767 0.53763 0.0409 0.0
C705 C 0.5789 0.52624 0.02179 0.0
C706 C 0.60376 0.50447 -0.00457 0.0
C707 C 0.59808 0.47302 0.94679 0.0
C708 C 0.59609 0.48496 0.96865 0.0
C709 C 0.5897 0.51974 0.03112 0.0
C710 C 0.592 0.50766 0.01034 0.0
H711 H 0.58397 0.45393 0.87483 0.0
H712 H 0.58201 0.4744 0.90549 0.0
H713 H 0.6149 0.49103 0.96327 0.0
H714 H 0.60286 0.54012 0.10119 0.0
H715 H 0.60658 0.52007 0.06851 0.0
C716 C 0.69839 0.3322 0.29543 0.0
C717 C 0.69087 0.32213 0.28563 0.0
C718 C 0.70971 0.33361 0.27472 0.0
C719 C 0.73339 0.31616 0.21525 0.0
H720 H 0.74401 0.34823 0.17614 0.0
C721 C 0.77727 0.32244 0.11361 0.0
C722 C 0.78508 0.33198 0.1267 0.0
C723 C 0.76539 0.32165 0.13029 0.0
C724 C 0.7412 0.33924 0.18716 0.0
H725 H 0.68932 0.30567 0.24625 0.0
H726 H 0.70898 0.30818 0.20995 0.0
H727 H 0.72411 0.34596 0.21159 0.0
H728 H 0.78641 0.3484 0.1664 0.0
H729 H 0.76572 0.34696 0.19563 0.0
H730 H 0.75048 0.30944 0.1911 0.0
C731 C 0.70621 0.31491 0.23404 0.0
C732 C 0.72982 0.33794 0.20754 0.0
C733 C 0.69491 0.31351 0.25473 0.0
C734 C 0.78062 0.34094 0.15563 0.0
C735 C 0.76874 0.34015 0.17226 0.0
C736 C 0.74475 0.31746 0.19486 0.0
C737 C 0.71375 0.32497 0.24378 0.0
C738 C 0.7258 0.32639 0.2219 0.0
C739 C 0.76106 0.33038 0.16035 0.0
C740 C 0.7488 0.32901 0.18066 0.0
H741 H 0.69555 0.33901 0.31914 0.0
H742 H 0.71537 0.34138 0.28336 0.0
H743 H 0.73066 0.30717 0.22656 0.0
H744 H 0.7804 0.31542 0.09121 0.0
H745 H 0.75962 0.31412 0.11994 0.0
C746 C 0.92295 0.46131 0.6191 0.0
C747 C 0.91468 0.45255 0.60303 0.0
C748 C 0.92323 0.47311 0.60143 0.0
C749 C 0.90532 0.49507 0.53485 0.0
H750 H 0.93715 0.5094 0.51193 0.0
C751 C 0.91137 0.5393 0.43321 0.0
C752 C 0.91955 0.54802 0.45021 0.0
C753 C 0.91076 0.52756 0.4513 0.0
C754 C 0.9282 0.50557 0.51847 0.0
H755 H 0.9 0.4494 0.5565 0.0
H756 H 0.90056 0.46992 0.52545 0.0
H757 H 0.93584 0.4893 0.54623 0.0
H758 H 0.93363 0.55118 0.49906 0.0
H759 H 0.93252 0.53075 0.53056 0.0
H760 H 0.89769 0.51135 0.50683 0.0
C761 C 0.90676 0.46772 0.55201 0.0
C762 C 0.92744 0.49407 0.53825 0.0
C763 C 0.90647 0.45594 0.56971 0.0
C764 C 0.92723 0.54469 0.48515 0.0
C765 C 0.92665 0.53295 0.50309 0.0
C766 C 0.90608 0.50657 0.51497 0.0
C767 C 0.91524 0.47639 0.56727 0.0
C768 C 0.916 0.4887 0.54677 0.0
C769 C 0.91835 0.52429 0.48659 0.0
C770 C 0.91753 0.51195 0.50667 0.0
H771 H 0.92936 0.45901 0.64488 0.0
H772 H 0.92973 0.47964 0.61442 0.0
H773 H 0.89636 0.49125 0.54145 0.0
H774 H 0.90534 0.54158 0.40626 0.0
H775 H 0.90437 0.52102 0.43757 0.0
C776 C 0.2859 0.32102 0.34198 0.0
C777 C 0.29354 0.33123 0.33585 0.0
C778 C 0.27458 0.32033 0.32091 0.0
C779 C 0.25073 0.3387 0.26699 0.0
H780 H 0.24266 0.30801 0.21005 0.0
C781 C 0.20758 0.33321 0.15915 0.0
C782 C 0.2009 0.32232 0.16469 0.0
C783 C 0.21917 0.33451 0.17799 0.0
C784 C 0.24471 0.31661 0.22612 0.0
H785 H 0.2951 0.34891 0.3039 0.0
H786 H 0.27527 0.34771 0.26726 0.0
H787 H 0.26203 0.31004 0.24888 0.0
H788 H 0.20124 0.3042 0.19384 0.0
H789 H 0.2213 0.30653 0.22707 0.0
H790 H 0.23333 0.34522 0.2448 0.0
C791 C 0.27807 0.34025 0.2884 0.0
C792 C 0.25581 0.31776 0.24838 0.0
C793 C 0.28943 0.34091 0.30929 0.0
C794 C 0.20615 0.3127 0.18876 0.0
C795 C 0.2177 0.31401 0.20766 0.0
C796 C 0.23958 0.33753 0.24491 0.0
C797 C 0.27062 0.32986 0.29345 0.0
C798 C 0.2589 0.32878 0.26931 0.0
C799 C 0.22432 0.32496 0.20279 0.0
C800 C 0.23641 0.32643 0.22447 0.0
H801 H 0.28876 0.31341 0.36231 0.0
H802 H 0.26895 0.3123 0.32595 0.0
H803 H 0.25284 0.34728 0.28312 0.0
H804 H 0.2038 0.34079 0.14068 0.0
H805 H 0.22411 0.343 0.1731 0.0
C806 C 0.42039 0.54405 0.02739 0.0
C807 C 0.41366 0.54787 0.06412 0.0
C808 C 0.41866 0.5324 0.00978 0.0
C809 C 0.39647 0.50717 0.00356 0.0
H810 H 0.42476 0.48823 0.96764 0.0
C811 C 0.39371 0.45631 0.95041 0.0
C812 C 0.40147 0.45249 0.91635 0.0
C813 C 0.39461 0.46816 0.9674 0.0
C814 C 0.41675 0.49347 0.97692 0.0
H815 H 0.39985 0.54244 0.1113 0.0
H816 H 0.39687 0.522 0.08054 0.0
H817 H 0.42765 0.50832 0.00053 0.0
H818 H 0.41585 0.45831 0.87198 0.0
H819 H 0.41724 0.479 0.90102 0.0
H820 H 0.38556 0.4923 0.97975 0.0
C821 C 0.40341 0.52809 0.06523 0.0
C822 C 0.41841 0.50496 -0.00411 0.0
C823 C 0.40519 0.53976 0.083 0.0
C824 C 0.4098 0.46092 0.89849 0.0
C825 C 0.41067 0.47276 0.91534 0.0
C826 C 0.39479 0.49566 0.98444 0.0
C827 C 0.41013 0.5243 0.02841 0.0
C828 C 0.4083 0.51196 0.00927 0.0
C829 C 0.40326 0.47644 0.95057 0.0
C830 C 0.40492 0.4887 0.97073 0.0
H831 H 0.42696 0.55009 0.01197 0.0
H832 H 0.42386 0.5298 0.98109 0.0
H833 H 0.38849 0.51242 0.0131 0.0
H834 H 0.3872 0.45003 0.96495 0.0
H835 H 0.38882 0.47067 0.99474 0.0
C836 C 0.28464 0.65485 0.6807 0.0
C837 C 0.28815 0.66226 0.6452 0.0
C838 C 0.27306 0.65609 0.69946 0.0
C839 C 0.24787 0.6783 0.71088 0.0
H840 H 0.22945 0.65003 0.75033 0.0
C841 C 0.19778 0.6815 0.76942 0.0
C842 C 0.19442 0.67451 0.80611 0.0
C843 C 0.20931 0.68008 0.75036 0.0
C844 C 0.23455 0.65802 0.73994 0.0
H845 H 0.28209 0.67652 0.60072 0.0
H846 H 0.2618 0.67855 0.6331 0.0
H847 H 0.24915 0.64711 0.71428 0.0
H848 H 0.20059 0.66066 0.85202 0.0
H849 H 0.22077 0.65824 0.81882 0.0
H850 H 0.23324 0.6892 0.73642 0.0
C851 C 0.2681 0.67194 0.64692 0.0
C852 C 0.24583 0.65635 0.71924 0.0
C853 C 0.2797 0.67071 0.62817 0.0
C854 C 0.2029 0.66618 0.82374 0.0
C855 C 0.21442 0.66473 0.80455 0.0
C856 C 0.23658 0.67997 0.73149 0.0
C857 C 0.2647 0.66474 0.68311 0.0
C858 C 0.25261 0.66647 0.70446 0.0
C859 C 0.21772 0.67161 0.76749 0.0
C860 C 0.2298 0.66984 0.74624 0.0
H861 H 0.29094 0.64827 0.69469 0.0
H862 H 0.27078 0.6505 0.72758 0.0
H863 H 0.25296 0.6863 0.70062 0.0
H864 H 0.19146 0.68799 0.75498 0.0
H865 H 0.21152 0.68543 0.72156 0.0
C866 C 0.09333 0.45383 0.56759 0.0
C867 C 0.08279 0.44711 0.55663 0.0
C868 C 0.09492 0.46575 0.55186 0.0
C869 C 0.08452 0.48686 0.46499 0.0
H870 H 0.0954 0.51226 0.54464 0.0
C871 C 0.09282 0.53685 0.40913 0.0
C872 C 0.08795 0.54592 0.4367 0.0
C873 C 0.09325 0.52463 0.42284 0.0
C874 C 0.09235 0.50527 0.52202 0.0
H875 H 0.06568 0.44764 0.52055 0.0
H876 H 0.06844 0.46841 0.4935 0.0
H877 H 0.094 0.49115 0.57029 0.0
H878 H 0.0798 0.54931 0.50036 0.0
H879 H 0.08049 0.52807 0.52401 0.0
H880 H 0.08254 0.50104 0.41709 0.0
C881 C 0.07553 0.46443 0.51379 0.0
C882 C 0.09166 0.49316 0.53659 0.0
C883 C 0.07391 0.45255 0.52961 0.0
C884 C 0.08362 0.54255 0.4783 0.0
C885 C 0.08409 0.53038 0.49204 0.0
C886 C 0.08525 0.49896 0.45038 0.0
C887 C 0.08605 0.47116 0.5247 0.0
C888 C 0.08757 0.48386 0.50841 0.0
C889 C 0.08889 0.52128 0.46447 0.0
C890 C 0.089 0.50832 0.47893 0.0
H891 H 0.10035 0.44989 0.58825 0.0
H892 H 0.10317 0.47068 0.56056 0.0
H893 H 0.08149 0.47986 0.44236 0.0
H894 H 0.09625 0.53916 0.37691 0.0
H895 H 0.09707 0.51782 0.40101 0.0
C896 C 0.15765 0.13002 0.98698 0.0
C897 C 0.16036 0.14257 0.98389 0.0
C898 C 0.15251 0.12381 0.95155 0.0
C899 C 0.14565 0.1262 0.83271 0.0
H900 H 0.1177 0.10603 0.86315 0.0
C901 C 0.10767 0.11407 0.70998 0.0
C902 C 0.103 0.10209 0.71041 0.0
C903 C 0.11593 0.11789 0.742 0.0
C904 C 0.1256 0.11147 0.85411 0.0
H905 H 0.16042 0.15829 0.9405 0.0
H906 H 0.15124 0.14752 0.87896 0.0
H907 H 0.13044 0.11456 0.92093 0.0
H908 H 0.10334 0.08469 0.7447 0.0
H909 H 0.11776 0.09142 0.8009 0.0
H910 H 0.14052 0.12339 0.76582 0.0
C911 C 0.15322 0.14243 0.90855 0.0
C912 C 0.13292 0.11634 0.88721 0.0
C913 C 0.15842 0.14862 0.94393 0.0
C914 C 0.10676 0.09399 0.74357 0.0
C915 C 0.11498 0.09784 0.77577 0.0
C916 C 0.13829 0.12136 0.7996 0.0
C917 C 0.14992 0.13003 0.91236 0.0
C918 C 0.14293 0.12391 0.87692 0.0
C919 C 0.11966 0.10983 0.77525 0.0
C920 C 0.12808 0.11411 0.81003 0.0
H921 H 0.15917 0.12505 0.0172 0.0
H922 H 0.1503 0.1142 0.95522 0.0
H923 H 0.1534 0.13184 0.8237 0.0
H924 H 0.10497 0.12053 0.68487 0.0
H925 H 0.11924 0.12723 0.74115 0.0
C926 C 0.15695 0.86678 0.00688 0.0
C927 C 0.14991 0.86616 0.96844 0.0
C928 C 0.15233 0.87255 0.0442 0.0
C929 C 0.12771 0.89317 0.08421 0.0
H930 H 0.1307 0.87407 0.19071 0.0
C931 C 0.1061 0.90795 0.24954 0.0
C932 C 0.10006 0.89861 0.27269 0.0
C933 C 0.11326 0.90515 0.21294 0.0
C934 C 0.12978 0.8795 0.16123 0.0
H935 H 0.13276 0.87163 0.93833 0.0
H936 H 0.12466 0.88152 0.00344 0.0
H937 H 0.14156 0.86761 0.12514 0.0
H938 H 0.09666 0.87904 0.27531 0.0
H939 H 0.10901 0.8742 0.21145 0.0
H940 H 0.1155 0.90478 0.12006 0.0
C941 C 0.13379 0.87767 0.00473 0.0
C942 C 0.13613 0.87589 0.1238 0.0
C943 C 0.13841 0.8719 0.96747 0.0
C944 C 0.10123 0.88645 0.25832 0.0
C945 C 0.10839 0.88366 0.22191 0.0
C946 C 0.12136 0.89679 0.12174 0.0
C947 C 0.14058 0.87782 0.04378 0.0
C948 C 0.13498 0.88255 0.08464 0.0
C949 C 0.11454 0.89296 0.19897 0.0
C950 C 0.12213 0.88984 0.16035 0.0
H951 H 0.16589 0.86252 0.00858 0.0
H952 H 0.15784 0.87267 0.07366 0.0
H953 H 0.12674 0.89855 0.05462 0.0
H954 H 0.1054 0.91741 0.25987 0.0
H955 H 0.11794 0.91249 0.19599 0.0
C956 C 0.38734 0.90155 0.24918 0.0
C957 C 0.39138 0.89322 0.21723 0.0
C958 C 0.38089 0.89742 0.28584 0.0
C959 C 0.363 0.87112 0.32717 0.0
H960 H 0.37335 0.88244 0.44163 0.0
C961 C 0.34148 0.85274 0.48694 0.0
C962 C 0.34999 0.84925 0.51914 0.0
C963 C 0.34523 0.85956 0.45062 0.0
C964 C 0.37034 0.87922 0.40986 0.0
H965 H 0.39171 0.87406 0.19843 0.0
H966 H 0.38059 0.86688 0.26234 0.0
H967 H 0.38228 0.89154 0.37602 0.0
H968 H 0.36903 0.85039 0.53896 0.0
H969 H 0.37556 0.86217 0.47563 0.0
H970 H 0.35144 0.85846 0.36098 0.0
C971 C 0.38226 0.87661 0.25888 0.0
C972 C 0.37537 0.88451 0.37233 0.0
C973 C 0.38874 0.88072 0.22243 0.0
C974 C 0.36225 0.85291 0.51471 0.0
C975 C 0.36598 0.85976 0.47859 0.0
C976 C 0.35796 0.86586 0.36468 0.0
C977 C 0.3783 0.88489 0.29105 0.0
C978 C 0.37195 0.88031 0.33062 0.0
C979 C 0.35754 0.86309 0.44601 0.0
C980 C 0.36179 0.86966 0.40641 0.0
H981 H 0.38921 0.91125 0.24601 0.0
H982 H 0.37789 0.90401 0.31003 0.0
H983 H 0.36009 0.86782 0.29541 0.0
H984 H 0.33196 0.85009 0.48953 0.0
H985 H 0.33852 0.86208 0.42613 0.0
C986 C 0.38605 0.09257 0.74346 0.0
C987 C 0.38931 0.10006 0.77902 0.0
C988 C 0.38045 0.09764 0.70646 0.0
C989 C 0.37814 0.12688 0.64831 0.0
H990 H 0.35098 0.11182 0.5868 0.0
C991 C 0.36259 0.14399 0.48009 0.0
C992 C 0.34995 0.14554 0.47376 0.0
C993 C 0.36699 0.13782 0.5168 0.0
C994 C 0.35853 0.11614 0.60384 0.0
H995 H 0.38879 0.11862 0.80441 0.0
H996 H 0.37901 0.12737 0.74025 0.0
H997 H 0.3591 0.10218 0.65318 0.0
H998 H 0.33198 0.14163 0.50055 0.0
H999 H 0.33972 0.13089 0.56515 0.0
H1000 H 0.37755 0.14089 0.5996 0.0
C1001 C 0.38095 0.11765 0.74058 0.0
C1002 C 0.36323 0.11058 0.64151 0.0
C1003 C 0.38652 0.11261 0.77742 0.0
C1004 C 0.34178 0.14061 0.5046 0.0
C1005 C 0.34619 0.13439 0.5414 0.0
C1006 C 0.3735 0.13239 0.61071 0.0
C1007 C 0.37805 0.11027 0.70443 0.0
C1008 C 0.37305 0.11594 0.66419 0.0
C1009 C 0.35885 0.13306 0.54804 0.0
C1010 C 0.36365 0.12709 0.58805 0.0
H1011 H 0.38806 0.08286 0.74381 0.0
H1012 H 0.37835 0.09175 0.67893 0.0
H1013 H 0.38581 0.13115 0.6648 0.0
H1014 H 0.36914 0.14759 0.4568 0.0
H1015 H 0.37678 0.13676 0.52072 0.0
C1016 C 0.84203 0.85857 0.00203 0.0
C1017 C 0.8493 0.85301 0.96972 0.0
C1018 C 0.84742 0.86578 0.03459 0.0
C1019 C 0.87548 0.88327 0.05936 0.0
H1020 H 0.86628 0.87824 0.18058 0.0
C1021 C 0.90552 0.89873 0.20398 0.0
C1022 C 0.89974 0.90284 0.24231 0.0
C1023 C 0.89861 0.8942 0.16911 0.0
C1024 C 0.86881 0.87993 0.14683 0.0
H1025 H 0.86791 0.8506 0.9463 0.0
H1026 H 0.87725 0.86306 0.00306 0.0
H1027 H 0.85543 0.86727 0.12298 0.0
H1028 H 0.88214 0.90599 0.27329 0.0
H1029 H 0.87009 0.89825 0.21217 0.0
H1030 H 0.88898 0.8958 0.0832 0.0
C1031 C 0.8674 0.862 0.00298 0.0
C1032 C 0.8626 0.87362 0.11387 0.0
C1033 C 0.86204 0.85478 0.97065 0.0
C1034 C 0.88688 0.90279 0.24434 0.0
C1035 C 0.87998 0.8983 0.20942 0.0
C1036 C 0.88167 0.8896 0.0923 0.0
C1037 C 0.86016 0.8676 0.03523 0.0
C1038 C 0.86602 0.87507 0.06986 0.0
C1039 C 0.88577 0.89373 0.17177 0.0
C1040 C 0.87853 0.88785 0.13646 0.0
H1041 H 0.83219 0.8574 0.00212 0.0
H1042 H 0.84162 0.87004 0.05896 0.0
H1043 H 0.87817 0.88472 0.02563 0.0
H1044 H 0.91541 0.89863 0.2014 0.0
H1045 H 0.90337 0.89063 0.14075 0.0
C1046 C 0.86285 0.14487 2e-05 0.0
C1047 C 0.85021 0.14619 0.00707 0.0
C1048 C 0.86719 0.1386 0.96345 0.0
C1049 C 0.85865 0.11627 0.87858 0.0
H1050 H 0.88545 0.13125 0.81487 0.0
C1051 C 0.88559 0.09222 0.7387 0.0
C1052 C 0.88861 0.09955 0.70244 0.0
C1053 C 0.88017 0.09744 0.77576 0.0
C1054 C 0.87791 0.12699 0.83213 0.0
H1055 H 0.8322 0.14178 0.98165 0.0
H1056 H 0.83983 0.13087 0.91733 0.0
H1057 H 0.87738 0.14126 0.87985 0.0
H1058 H 0.88787 0.11798 0.67593 0.0
H1059 H 0.87841 0.12701 0.74018 0.0
H1060 H 0.85914 0.10204 0.83021 0.0
C1061 C 0.84635 0.13463 0.94041 0.0
C1062 C 0.87338 0.13265 0.86962 0.0
C1063 C 0.84199 0.14094 0.97705 0.0
C1064 C 0.88578 0.11209 0.70345 0.0
C1065 C 0.8804 0.11729 0.74035 0.0
C1066 C 0.86323 0.11055 0.84103 0.0
C1067 C 0.859 0.1335 0.93307 0.0
C1068 C 0.86371 0.12737 0.89326 0.0
C1069 C 0.87772 0.11008 0.77717 0.0
C1070 C 0.87287 0.1159 0.81734 0.0
H1071 H 0.86943 0.14873 0.02265 0.0
H1072 H 0.87699 0.13772 0.95899 0.0
H1073 H 0.85125 0.11195 0.89638 0.0
H1074 H 0.88764 0.08252 0.73882 0.0
H1075 H 0.87825 0.09168 0.80379 0.0
C1076 C 0.6111 0.11397 0.78366 0.0
C1077 C 0.60577 0.10226 0.78365 0.0
C1078 C 0.61971 0.11717 0.75196 0.0
C1079 C 0.62904 0.10977 0.64042 0.0
H1080 H 0.65734 0.12968 0.66879 0.0
C1081 C 0.66054 0.1277 0.505 0.0
C1082 C 0.66329 0.14025 0.50761 0.0
C1083 C 0.65567 0.12154 0.54103 0.0
C1084 C 0.64946 0.12414 0.66036 0.0
H1085 H 0.60542 0.08466 0.75075 0.0
H1086 H 0.62045 0.09032 0.69509 0.0
H1087 H 0.64447 0.12168 0.72758 0.0
H1088 H 0.66375 0.15601 0.55077 0.0
H1089 H 0.65504 0.14532 0.61335 0.0
H1090 H 0.6337 0.11255 0.57329 0.0
C1091 C 0.61791 0.09701 0.71962 0.0
C1092 C 0.64211 0.11957 0.69398 0.0
C1093 C 0.60933 0.09377 0.75151 0.0
C1094 C 0.66171 0.14634 0.54769 0.0
C1095 C 0.65677 0.14019 0.58367 0.0
C1096 C 0.63636 0.11437 0.60683 0.0
C1097 C 0.62314 0.10876 0.71945 0.0
C1098 C 0.63169 0.11253 0.68429 0.0
C1099 C 0.65339 0.1278 0.58035 0.0
C1100 C 0.64653 0.1218 0.61636 0.0
H1101 H 0.60858 0.12072 0.80802 0.0
H1102 H 0.62344 0.12636 0.75228 0.0
H1103 H 0.62098 0.1045 0.6319 0.0
H1104 H 0.66179 0.12271 0.4747 0.0
H1105 H 0.65338 0.11193 0.53771 0.0
C1106 C 0.65052 0.85857 0.48816 0.0
C1107 C 0.64268 0.8546 0.52175 0.0
C1108 C 0.6458 0.86471 0.45164 0.0
C1109 C 0.6172 0.86778 0.38971 0.0
H1110 H 0.63285 0.89594 0.3363 0.0
C1111 C 0.60229 0.88571 0.22201 0.0
C1112 C 0.60078 0.89842 0.2175 0.0
C1113 C 0.60794 0.88084 0.259 0.0
C1114 C 0.62835 0.88812 0.35108 0.0
H1115 H 0.62382 0.85433 0.54415 0.0
H1116 H 0.61567 0.86504 0.48089 0.0
H1117 H 0.6417 0.88679 0.40236 0.0
H1118 H 0.60426 0.91603 0.24785 0.0
H1119 H 0.61412 0.90746 0.31298 0.0
H1120 H 0.60379 0.86913 0.33907 0.0
C1121 C 0.62541 0.86326 0.48232 0.0
C1122 C 0.63348 0.88283 0.38856 0.0
C1123 C 0.63011 0.85715 0.51866 0.0
C1124 C 0.60526 0.90619 0.25047 0.0
C1125 C 0.61096 0.9013 0.28759 0.0
C1126 C 0.61212 0.87302 0.35233 0.0
C1127 C 0.63316 0.86694 0.44812 0.0
C1128 C 0.62792 0.87262 0.40828 0.0
C1129 C 0.61223 0.88856 0.29238 0.0
C1130 C 0.61765 0.88322 0.33252 0.0
H1131 H 0.66026 0.85676 0.48969 0.0
H1132 H 0.65198 0.86738 0.42562 0.0
H1133 H 0.61278 0.85983 0.40385 0.0
H1134 H 0.59903 0.87946 0.19708 0.0
H1135 H 0.60897 0.871 0.26144 0.0
C1136 C 0.65662 0.63748 0.50034 0.0
C1137 C 0.64786 0.6408 0.53185 0.0
C1138 C 0.65324 0.63052 0.46388 0.0
C1139 C 0.62859 0.61049 0.42105 0.0
H1140 H 0.63947 0.62207 0.30756 0.0
C1141 C 0.61174 0.58875 0.25935 0.0
C1142 C 0.60794 0.59721 0.22745 0.0
C1143 C 0.61825 0.59267 0.29616 0.0
C1144 C 0.63638 0.61871 0.33904 0.0
H1145 H 0.62874 0.63921 0.55032 0.0
H1146 H 0.62285 0.62725 0.48673 0.0
H1147 H 0.64772 0.63135 0.37386 0.0
H1148 H 0.60816 0.61639 0.20879 0.0
H1149 H 0.61936 0.62322 0.27296 0.0
H1150 H 0.61682 0.59825 0.3862 0.0
C1151 C 0.63235 0.62986 0.49035 0.0
C1152 C 0.64121 0.62393 0.37701 0.0
C1153 C 0.63572 0.63682 0.52664 0.0
C1154 C 0.61094 0.60962 0.23274 0.0
C1155 C 0.61747 0.61353 0.26937 0.0
C1156 C 0.62377 0.60526 0.38308 0.0
C1157 C 0.64104 0.62671 0.45839 0.0
C1158 C 0.63713 0.62009 0.4184 0.0
C1159 C 0.62114 0.60513 0.30161 0.0
C1160 C 0.62739 0.60954 0.34168 0.0
H1161 H 0.66606 0.64036 0.50355 0.0
H1162 H 0.66015 0.62815 0.43992 0.0
H1163 H 0.62541 0.60722 0.45253 0.0
H1164 H 0.60959 0.57911 0.2561 0.0
H1165 H 0.62104 0.58598 0.32035 0.0
C1166 C 0.61856 0.38096 0.78715 0.0
C1167 C 0.61254 0.39223 0.78155 0.0
C1168 C 0.62403 0.3751 0.75163 0.0
C1169 C 0.63486 0.37947 0.63797 0.0
H1170 H 0.62682 0.34503 0.62651 0.0
C1171 C 0.65243 0.34903 0.49536 0.0
C1172 C 0.64345 0.34169 0.47543 0.0
C1173 C 0.64989 0.35521 0.53443 0.0
C1174 C 0.62915 0.35464 0.62928 0.0
H1175 H 0.608 0.40644 0.73461 0.0
H1176 H 0.61748 0.39612 0.6724 0.0
H1177 H 0.6204 0.35618 0.69156 0.0
H1178 H 0.62481 0.335 0.48099 0.0
H1179 H 0.62042 0.34573 0.54889 0.0
H1180 H 0.64329 0.37794 0.57486 0.0
C1181 C 0.61803 0.39187 0.70439 0.0
C1182 C 0.62559 0.361 0.66673 0.0
C1183 C 0.61254 0.39775 0.73998 0.0
C1184 C 0.63194 0.34057 0.4955 0.0
C1185 C 0.62944 0.34666 0.53457 0.0
C1186 C 0.63848 0.37307 0.6005 0.0
C1187 C 0.62362 0.38037 0.70971 0.0
C1188 C 0.62826 0.37352 0.67125 0.0
C1189 C 0.63836 0.35406 0.55441 0.0
C1190 C 0.63548 0.36064 0.59552 0.0
H1191 H 0.61883 0.37651 0.81883 0.0
H1192 H 0.62844 0.36634 0.75686 0.0
H1193 H 0.63713 0.38909 0.64075 0.0
H1194 H 0.66139 0.35008 0.48063 0.0
H1195 H 0.65696 0.3608 0.54919 0.0
C1196 C 0.88888 0.40124 0.74964 0.0
C1197 C 0.89369 0.39323 0.71802 0.0
C1198 C 0.88269 0.39665 0.78618 0.0
C1199 C 0.87976 0.3687 0.85267 0.0
H1200 H 0.85006 0.384 0.89563 0.0
C1201 C 0.85874 0.35546 0.01787 0.0
C1202 C 0.84599 0.35391 0.01968 0.0
C1203 C 0.86424 0.3606 0.98106 0.0
C1204 C 0.8583 0.37959 0.88379 0.0
H1205 H 0.89565 0.37413 0.69967 0.0
H1206 H 0.88483 0.36616 0.76306 0.0
H1207 H 0.8602 0.39226 0.83067 0.0
H1208 H 0.82897 0.35669 0.98448 0.0
H1209 H 0.83864 0.3656 0.91969 0.0
H1210 H 0.8778 0.35592 0.90515 0.0
C1211 C 0.88597 0.37598 0.75999 0.0
C1212 C 0.86417 0.38439 0.84694 0.0
C1213 C 0.89213 0.38056 0.72355 0.0
C1214 C 0.83882 0.35776 0.98403 0.0
C1215 C 0.84435 0.36292 0.94707 0.0
C1216 C 0.87391 0.36392 0.88944 0.0
C1217 C 0.88123 0.38396 0.7918 0.0
C1218 C 0.87496 0.37898 0.831 0.0
C1219 C 0.85713 0.36429 0.9451 0.0
C1220 C 0.86314 0.36933 0.90551 0.0
H1221 H 0.88993 0.41106 0.74628 0.0
H1222 H 0.87925 0.40301 0.81039 0.0
H1223 H 0.88813 0.3644 0.84147 0.0
H1224 H 0.86453 0.35268 0.04489 0.0
H1225 H 0.87409 0.36173 0.98084 0.0
C1226 C 0.89506 0.61468 0.28076 0.0
C1227 C 0.89641 0.602 0.28684 0.0
C1228 C 0.88893 0.61923 0.24418 0.0
C1229 C 0.8673 0.61106 0.15629 0.0
H1230 H 0.88231 0.63866 0.09718 0.0
C1231 C 0.84387 0.63821 0.0158 0.0
C1232 C 0.85141 0.64171 0.9807 0.0
C1233 C 0.84893 0.63282 0.0532 0.0
C1234 C 0.87804 0.6309 0.11311 0.0
H1235 H 0.8922 0.58414 0.25975 0.0
H1236 H 0.88159 0.59214 0.19534 0.0
H1237 H 0.89191 0.6302 0.16229 0.0
H1238 H 0.87012 0.64198 0.95675 0.0
H1239 H 0.87887 0.63252 0.02156 0.0
H1240 H 0.85352 0.61168 0.10634 0.0
C1241 C 0.88518 0.59853 0.2192 0.0
C1242 C 0.88347 0.62615 0.15073 0.0
C1243 C 0.89131 0.59395 0.25593 0.0
C1244 C 0.86405 0.63949 0.98335 0.0
C1245 C 0.86909 0.63412 0.02059 0.0
C1246 C 0.86184 0.61585 0.11856 0.0
C1247 C 0.88405 0.61122 0.21275 0.0
C1248 C 0.87816 0.61618 0.17277 0.0
C1249 C 0.86162 0.63086 0.05614 0.0
C1250 C 0.86719 0.62579 0.09651 0.0
H1251 H 0.89878 0.62113 0.30414 0.0
H1252 H 0.88803 0.62906 0.24051 0.0
H1253 H 0.86295 0.60343 0.17278 0.0
H1254 H 0.83408 0.63979 0.01468 0.0
H1255 H 0.84296 0.63047 0.08023 0.0
C1256 C 0.36311 0.35203 0.47979 0.0
C1257 C 0.35057 0.35237 0.46972 0.0
C1258 C 0.36751 0.35748 0.5179 0.0
C1259 C 0.36045 0.3807 0.60093 0.0
H1260 H 0.38503 0.36321 0.66789 0.0
C1261 C 0.38993 0.40318 0.73668 0.0
C1262 C 0.3925 0.39607 0.77389 0.0
C1263 C 0.38378 0.39805 0.70096 0.0
C1264 C 0.37808 0.36818 0.64985 0.0
H1265 H 0.3328 0.35878 0.49159 0.0
H1266 H 0.34054 0.36829 0.55864 0.0
H1267 H 0.37612 0.35369 0.60342 0.0
H1268 H 0.39023 0.37814 0.80353 0.0
H1269 H 0.37945 0.36928 0.74162 0.0
H1270 H 0.3624 0.39518 0.64778 0.0
C1271 C 0.34694 0.36385 0.53673 0.0
C1272 C 0.37308 0.36277 0.61263 0.0
C1273 C 0.34252 0.35835 0.49851 0.0
C1274 C 0.38851 0.38384 0.77518 0.0
C1275 C 0.38236 0.37874 0.73963 0.0
C1276 C 0.36549 0.38614 0.63824 0.0
C1277 C 0.35948 0.36341 0.54686 0.0
C1278 C 0.36429 0.36901 0.58755 0.0
C1279 C 0.38009 0.38572 0.70187 0.0
C1280 C 0.3744 0.37994 0.66296 0.0
H1281 H 0.36958 0.34755 0.45823 0.0
H1282 H 0.37725 0.35715 0.52447 0.0
H1283 H 0.35374 0.38575 0.58204 0.0
H1284 H 0.39287 0.41264 0.73476 0.0
H1285 H 0.38224 0.40363 0.67216 0.0
C1286 C 0.3369 0.65006 0.45722 0.0
C1287 C 0.33428 0.64384 0.49636 0.0
C1288 C 0.34243 0.64394 0.4223 0.0
C1289 C 0.36196 0.61718 0.40043 0.0
H1290 H 0.35507 0.62512 0.27919 0.0
C1291 C 0.38698 0.59399 0.25541 0.0
C1292 C 0.3912 0.60199 0.22269 0.0
C1293 C 0.37907 0.59819 0.28808 0.0
C1294 C 0.35711 0.62285 0.31293 0.0
H1295 H 0.33483 0.62616 0.52877 0.0
H1296 H 0.34426 0.61544 0.46753 0.0
H1297 H 0.34242 0.6339 0.33702 0.0
H1298 H 0.39038 0.62067 0.19849 0.0
H1299 H 0.37664 0.62796 0.25544 0.0
H1300 H 0.37673 0.60623 0.37627 0.0
C1301 C 0.3423 0.62511 0.46418 0.0
C1302 C 0.34988 0.62788 0.34604 0.0
C1303 C 0.33682 0.63124 0.49917 0.0
C1304 C 0.38731 0.61426 0.22323 0.0
C1305 C 0.37935 0.61843 0.25565 0.0
C1306 C 0.36915 0.6121 0.3673 0.0
C1307 C 0.3454 0.63144 0.42568 0.0
C1308 C 0.35235 0.62526 0.39022 0.0
C1309 C 0.37515 0.61045 0.2884 0.0
C1310 C 0.36692 0.61505 0.32327 0.0
H1311 H 0.33508 0.65977 0.45401 0.0
H1312 H 0.34481 0.64913 0.39333 0.0
H1313 H 0.36424 0.61512 0.43414 0.0
H1314 H 0.38979 0.58448 0.25582 0.0
H1315 H 0.37591 0.59182 0.31282 0.0
C1316 C 0.12952 0.64655 0.97352 0.0
C1317 C 0.14187 0.64994 0.96968 0.0
C1318 C 0.12543 0.64012 0.01012 0.0
C1319 C 0.13552 0.62114 0.10335 0.0
H1320 H 0.10505 0.63231 0.15478 0.0
C1321 C 0.11038 0.59556 0.24378 0.0
C1322 C 0.10517 0.6029 0.27667 0.0
C1323 C 0.11546 0.60093 0.20637 0.0
C1324 C 0.11361 0.62913 0.14101 0.0
H1325 H 0.15971 0.64896 0.00072 0.0
H1326 H 0.1525 0.63779 0.0651 0.0
H1327 H 0.11284 0.64226 0.08928 0.0
H1328 H 0.10156 0.62162 0.29675 0.0
H1329 H 0.11048 0.63092 0.23193 0.0
H1330 H 0.13634 0.60813 0.15584 0.0
C1331 C 0.14602 0.64004 0.03951 0.0
C1332 C 0.118 0.63474 0.10316 0.0
C1333 C 0.15012 0.6465 0.00279 0.0
C1334 C 0.1054 0.61569 0.27186 0.0
C1335 C 0.11046 0.62103 0.2346 0.0
C1336 C 0.1311 0.61549 0.1413 0.0
C1337 C 0.13359 0.63693 0.04379 0.0
C1338 C 0.129 0.63082 0.08389 0.0
C1339 C 0.11541 0.61372 0.20119 0.0
C1340 C 0.12012 0.61948 0.16061 0.0
H1341 H 0.12294 0.64897 0.94843 0.0
H1342 H 0.11584 0.63767 0.01211 0.0
H1343 H 0.14398 0.61787 0.08904 0.0
H1344 H 0.11035 0.58568 0.24657 0.0
H1345 H 0.11914 0.59505 0.18101 0.0
C1346 C 0.10758 0.39928 0.74602 0.0
C1347 C 0.10179 0.39128 0.71651 0.0
C1348 C 0.11318 0.39473 0.78388 0.0
C1349 C 0.11232 0.36822 0.85787 0.0
H1350 H 0.14427 0.37939 0.89625 0.0
C1351 C 0.13226 0.35308 0.02242 0.0
C1352 C 0.1445 0.34914 0.02242 0.0
C1353 C 0.12742 0.35921 0.98635 0.0
C1354 C 0.13536 0.37616 0.88579 0.0
H1355 H 0.0975 0.37223 0.70326 0.0
H1356 H 0.10727 0.36435 0.76892 0.0
H1357 H 0.13511 0.38806 0.82993 0.0
H1358 H 0.16139 0.34889 0.98513 0.0
H1359 H 0.15284 0.35952 0.9216 0.0
H1360 H 0.1126 0.35616 0.91288 0.0
C1361 C 0.10736 0.37414 0.76316 0.0
C1362 C 0.13008 0.3812 0.84814 0.0
C1363 C 0.10181 0.37866 0.72541 0.0
C1364 C 0.15192 0.35179 0.98604 0.0
C1365 C 0.14704 0.35794 0.94979 0.0
C1366 C 0.11756 0.36322 0.89543 0.0
C1367 C 0.11303 0.38211 0.79296 0.0
C1368 C 0.11855 0.3772 0.83365 0.0
C1369 C 0.13468 0.36152 0.94934 0.0
C1370 C 0.12915 0.36711 0.90977 0.0
H1371 H 0.10774 0.40906 0.74001 0.0
H1372 H 0.11742 0.4011 0.80644 0.0
H1373 H 0.10336 0.36504 0.84781 0.0
H1374 H 0.12633 0.35131 0.05011 0.0
H1375 H 0.11793 0.36206 0.9873 0.0
C1376 C 0.15755 0.28579 0.08614 0.0
C1377 C 0.14835 0.29315 0.10456 0.0
C1378 C 0.15578 0.27323 0.08108 0.0
C1379 C 0.1382 0.24763 0.12654 0.0
H1380 H 0.15149 0.23026 0.02655 0.0
C1381 C 0.13664 0.19482 0.11282 0.0
C1382 C 0.14789 0.18941 0.10166 0.0
C1383 C 0.13497 0.20746 0.10847 0.0
C1384 C 0.14774 0.23499 0.05468 0.0
H1385 H 0.12994 0.29313 0.13117 0.0
H1386 H 0.12683 0.27113 0.12208 0.0
H1387 H 0.15159 0.25259 0.02724 0.0
H1388 H 0.16608 0.19295 0.07601 0.0
H1389 H 0.16316 0.21492 0.06859 0.0
H1390 H 0.13461 0.23001 0.15439 0.0
C1391 C 0.13546 0.2751 0.11198 0.0
C1392 C 0.14781 0.24777 0.05511 0.0
C1393 C 0.13723 0.2877 0.11701 0.0
C1394 C 0.1573 0.19683 0.08501 0.0
C1395 C 0.1556 0.20942 0.08041 0.0
C1396 C 0.1381 0.23484 0.12606 0.0
C1397 C 0.14476 0.26771 0.09428 0.0
C1398 C 0.14332 0.25423 0.09151 0.0
C1399 C 0.14448 0.21489 0.09252 0.0
C1400 C 0.14314 0.22839 0.09058 0.0
H1401 H 0.16624 0.28969 0.07625 0.0
H1402 H 0.16321 0.26778 0.06797 0.0
H1403 H 0.13478 0.25233 0.15526 0.0
H1404 H 0.12921 0.18933 0.12568 0.0
H1405 H 0.12627 0.21143 0.11778 0.0
C1406 C 0.95314 0.89908 0.35112 0.0
C1407 C 0.94563 0.89178 0.3778 0.0
C1408 C 0.96572 0.89704 0.34938 0.0
C1409 C 0.9908 0.88507 0.41544 0.0
H1410 H 0.00926 0.88911 0.30798 0.0
C1411 C 0.04371 0.88538 0.41334 0.0
C1412 C 0.0489 0.89507 0.38943 0.0
C1413 C 0.03126 0.88264 0.40918 0.0
C1414 C 0.00423 0.88797 0.33826 0.0
H1415 H 0.94539 0.87638 0.42266 0.0
H1416 H 0.96748 0.87285 0.41972 0.0
H1417 H 0.98695 0.88835 0.30526 0.0
H1418 H 0.04517 0.90928 0.34155 0.0
H1419 H 0.02353 0.9046 0.33465 0.0
H1420 H 0.00805 0.88512 0.44863 0.0
C1421 C 0.96358 0.88018 0.40032 0.0
C1422 C 0.99147 0.88752 0.33669 0.0
C1423 C 0.95094 0.88217 0.40183 0.0
C1424 C 0.04147 0.90176 0.3605 0.0
C1425 C 0.02906 0.89901 0.35626 0.0
C1426 C 0.00357 0.88554 0.41702 0.0
C1427 C 0.97111 0.88769 0.37441 0.0
C1428 C 0.98461 0.88639 0.37537 0.0
C1429 C 0.02379 0.88951 0.38086 0.0
C1430 C 0.0104 0.88732 0.37856 0.0
H1431 H 0.94933 0.90654 0.3321 0.0
H1432 H 0.97129 0.90309 0.32956 0.0
H1433 H 0.98576 0.88431 0.44585 0.0
H1434 H 0.0492 0.88002 0.4358 0.0
H1435 H 0.02746 0.8752 0.4283 0.0
C1436 C 0.35859 0.78756 0.62599 0.0
C1437 C 0.34785 0.79329 0.61098 0.0
C1438 C 0.35999 0.77487 0.62239 0.0
C1439 C 0.34746 0.74755 0.56587 0.0
H1440 H 0.35849 0.73011 0.66922 0.0
C1441 C 0.33544 0.69732 0.59881 0.0
C1442 C 0.3444 0.68962 0.61704 0.0
C1443 C 0.33767 0.70981 0.59381 0.0
C1444 C 0.3556 0.73484 0.63983 0.0
H1445 H 0.33031 0.79022 0.5795 0.0
H1446 H 0.3327 0.76818 0.57369 0.0
H1447 H 0.35923 0.75243 0.66782 0.0
H1448 H 0.36278 0.68894 0.64378 0.0
H1449 H 0.36663 0.71089 0.63528 0.0
H1450 H 0.34344 0.72997 0.53849 0.0
C1451 C 0.34011 0.77346 0.58773 0.0
C1452 C 0.35603 0.74763 0.63899 0.0
C1453 C 0.3387 0.78611 0.59136 0.0
C1454 C 0.3557 0.69465 0.62965 0.0
C1455 C 0.35789 0.7072 0.62496 0.0
C1456 C 0.34699 0.73478 0.56677 0.0
C1457 C 0.35071 0.76768 0.60357 0.0
C1458 C 0.35169 0.75413 0.60239 0.0
C1459 C 0.34887 0.71491 0.60714 0.0
C1460 C 0.35078 0.72831 0.60414 0.0
H1461 H 0.36583 0.79284 0.64115 0.0
H1462 H 0.36832 0.77068 0.63453 0.0
H1463 H 0.34428 0.75228 0.53685 0.0
H1464 H 0.32665 0.69373 0.58867 0.0
H1465 H 0.33047 0.71554 0.58055 0.0
C1466 C 0.45036 0.0905 0.84423 0.0
C1467 C 0.44289 0.09838 0.86889 0.0
C1468 C 0.46271 0.09317 0.83792 0.0
C1469 C 0.48809 0.10975 0.8887 0.0
H1470 H 0.50461 0.10197 0.77984 0.0
C1471 C 0.54049 0.1133 0.87229 0.0
C1472 C 0.54604 0.10281 0.85452 0.0
C1473 C 0.52785 0.11503 0.86877 0.0
C1474 C 0.50012 0.10419 0.81043 0.0
H1475 H 0.44247 0.11542 0.90536 0.0
H1476 H 0.46411 0.12009 0.89423 0.0
H1477 H 0.48233 0.10087 0.78366 0.0
H1478 H 0.54277 0.08619 0.81738 0.0
H1479 H 0.52078 0.08917 0.81151 0.0
H1480 H 0.50588 0.1127 0.91586 0.0
C1481 C 0.46039 0.1118 0.88011 0.0
C1482 C 0.48737 0.10355 0.81263 0.0
C1483 C 0.448 0.10913 0.88636 0.0
C1484 C 0.53878 0.09436 0.83154 0.0
C1485 C 0.52617 0.09611 0.82789 0.0
C1486 C 0.50083 0.1104 0.88648 0.0
C1487 C 0.4679 0.10378 0.85613 0.0
C1488 C 0.48124 0.10602 0.85211 0.0
C1489 C 0.52054 0.10633 0.84721 0.0
C1490 C 0.507 0.10733 0.84763 0.0
H1491 H 0.44672 0.08214 0.83031 0.0
H1492 H 0.46829 0.08671 0.81986 0.0
H1493 H 0.48365 0.11158 0.91971 0.0
H1494 H 0.54584 0.12001 0.89005 0.0
H1495 H 0.52377 0.12306 0.88359 0.0
C1496 C 0.15516 0.80101 0.91769 0.0
C1497 C 0.14713 0.80897 0.89581 0.0
C1498 C 0.15239 0.7886 0.9217 0.0
C1499 C 0.13555 0.76443 0.86583 0.0
H1500 H 0.14454 0.74551 0.96839 0.0
C1501 C 0.13354 0.71155 0.86749 0.0
C1502 C 0.14415 0.70588 0.88378 0.0
C1503 C 0.13162 0.72409 0.87375 0.0
C1504 C 0.14199 0.75067 0.93951 0.0
H1505 H 0.12966 0.81025 0.86232 0.0
H1506 H 0.12483 0.78847 0.86927 0.0
H1507 H 0.14506 0.76783 0.97147 0.0
H1508 H 0.16091 0.70884 0.92045 0.0
H1509 H 0.15762 0.73065 0.93097 0.0
H1510 H 0.13289 0.74727 0.83337 0.0
C1511 C 0.13331 0.79187 0.88308 0.0
C1512 C 0.14227 0.76344 0.94129 0.0
C1513 C 0.13605 0.80434 0.87928 0.0
C1514 C 0.15264 0.71293 0.90741 0.0
C1515 C 0.1507 0.72542 0.91378 0.0
C1516 C 0.13527 0.75165 0.86404 0.0
C1517 C 0.14154 0.78385 0.9038 0.0
C1518 C 0.13939 0.77044 0.9041 0.0
C1519 C 0.14024 0.73117 0.89663 0.0
C1520 C 0.13882 0.74464 0.90049 0.0
H1521 H 0.16376 0.80429 0.9309 0.0
H1522 H 0.159 0.78264 0.93733 0.0
H1523 H 0.13339 0.76956 0.83649 0.0
H1524 H 0.1268 0.70636 0.84928 0.0
H1525 H 0.12342 0.72826 0.86045 0.0
C1526 C 0.45119 0.88727 0.09264 0.0
C1527 C 0.44523 0.89717 0.11291 0.0
C1528 C 0.46392 0.88611 0.09505 0.0
C1529 C 0.49101 0.89674 0.15697 0.0
H1530 H 0.50849 0.89073 0.04861 0.0
C1531 C 0.54147 0.90969 0.13373 0.0
C1532 C 0.54907 0.90182 0.10951 0.0
C1533 C 0.52894 0.90743 0.13682 0.0
C1534 C 0.50376 0.8922 0.0793 0.0
H1535 H 0.44794 0.91345 0.15247 0.0
H1536 H 0.47007 0.91146 0.15644 0.0
H1537 H 0.4862 0.88965 0.04961 0.0
H1538 H 0.54949 0.88531 0.07007 0.0
H1539 H 0.52754 0.88136 0.07561 0.0
H1540 H 0.50855 0.89956 0.18646 0.0
C1541 C 0.46492 0.90453 0.13902 0.0
C1542 C 0.49098 0.89158 0.07988 0.0
C1543 C 0.45223 0.90571 0.13646 0.0
C1544 C 0.54387 0.89156 0.08889 0.0
C1545 C 0.5313 0.88932 0.0919 0.0
C1546 C 0.50377 0.89735 0.15641 0.0
C1547 C 0.47092 0.89479 0.118 0.0
C1548 C 0.48447 0.8941 0.11851 0.0
C1549 C 0.5237 0.89727 0.11574 0.0
C1550 C 0.51027 0.89535 0.11737 0.0
H1551 H 0.44605 0.88051 0.07431 0.0
H1552 H 0.46829 0.87845 0.07883 0.0
H1553 H 0.48625 0.89851 0.18742 0.0
H1554 H 0.54517 0.91768 0.14998 0.0
H1555 H 0.5233 0.91384 0.15487 0.0
C1556 C 0.35706 0.2038 0.34423 0.0
C1557 C 0.34718 0.19841 0.36654 0.0
C1558 C 0.35887 0.21646 0.34571 0.0
C1559 C 0.3502 0.24438 0.40723 0.0
H1560 H 0.35595 0.26094 0.2968 0.0
C1561 C 0.33919 0.29522 0.38077 0.0
C1562 C 0.34723 0.30232 0.35545 0.0
C1563 C 0.34092 0.28261 0.38471 0.0
C1564 C 0.35455 0.25645 0.32802 0.0
H1565 H 0.33164 0.20207 0.40881 0.0
H1566 H 0.33473 0.22409 0.41108 0.0
H1567 H 0.35601 0.23862 0.29947 0.0
H1568 H 0.36352 0.3018 0.31487 0.0
H1569 H 0.36653 0.27971 0.32178 0.0
H1570 H 0.34843 0.26221 0.43554 0.0
C1571 C 0.34116 0.21854 0.39281 0.0
C1572 C 0.3546 0.24367 0.32957 0.0
C1573 C 0.33934 0.20591 0.39124 0.0
C1574 C 0.35715 0.29657 0.33455 0.0
C1575 C 0.35885 0.28392 0.33835 0.0
C1576 C 0.35015 0.25716 0.40567 0.0
C1577 C 0.35086 0.22398 0.36969 0.0
C1578 C 0.35217 0.2375 0.36902 0.0
C1579 C 0.35072 0.27681 0.36335 0.0
C1580 C 0.35207 0.26332 0.36588 0.0
H1581 H 0.36328 0.19826 0.325 0.0
H1582 H 0.36649 0.22038 0.32792 0.0
H1583 H 0.34853 0.23989 0.43827 0.0
H1584 H 0.33146 0.29936 0.3973 0.0
H1585 H 0.33439 0.27736 0.40367 0.0
C1586 C 0.94732 0.10775 0.59178 0.0
C1587 C 0.94196 0.09729 0.6105 0.0
C1588 C 0.95981 0.11009 0.59735 0.0
C1589 C 0.98668 0.10154 0.66502 0.0
H1590 H 0.00529 0.10931 0.56059 0.0
C1591 C 0.03791 0.09114 0.6478 0.0
C1592 C 0.04537 0.09942 0.62486 0.0
C1593 C 0.0253 0.093 0.6503 0.0
C1594 C 0.00022 0.10737 0.59025 0.0
H1595 H 0.94542 0.08125 0.65061 0.0
H1596 H 0.96712 0.08525 0.65991 0.0
H1597 H 0.98301 0.10883 0.55721 0.0
H1598 H 0.0455 0.11636 0.5877 0.0
H1599 H 0.02341 0.11959 0.5921 0.0
H1600 H 0.00391 0.0997 0.69769 0.0
C1601 C 0.9617 0.09174 0.64137 0.0
C1602 C 0.98745 0.10711 0.58831 0.0
C1603 C 0.94926 0.08939 0.63571 0.0
C1604 C 0.03999 0.10979 0.6055 0.0
C1605 C 0.02735 0.11161 0.60784 0.0
C1606 C -0.00056 0.1018 0.66693 0.0
C1607 C 0.96715 0.10204 0.62192 0.0
C1608 C 0.98056 0.10389 0.62541 0.0
C1609 C 0.01986 0.10316 0.62984 0.0
C1610 C 0.00635 0.10443 0.62931 0.0
H1611 H 0.94193 0.11404 0.57228 0.0
H1612 H 0.96374 0.11815 0.58226 0.0
H1613 H 0.9816 0.09926 0.69436 0.0
H1614 H 0.04177 0.08307 0.66313 0.0
H1615 H 0.01976 0.08623 0.667 0.0
C1616 C 0.85527 0.70078 0.86152 0.0
C1617 C 0.84511 0.6949 0.88027 0.0
C1618 C 0.85639 0.71352 0.86349 0.0
C1619 C 0.84509 0.74082 0.92239 0.0
H1620 H 0.85284 0.75796 0.81469 0.0
C1621 C 0.83416 0.79178 0.89676 0.0
C1622 C 0.84251 0.79901 0.87318 0.0
C1623 C 0.83589 0.77916 0.90036 0.0
C1624 C 0.85087 0.75332 0.84524 0.0
H1625 H 0.82827 0.69774 0.91663 0.0
H1626 H 0.83021 0.71991 0.91987 0.0
H1627 H 0.85348 0.73565 0.81645 0.0
H1628 H 0.85935 0.79869 0.83559 0.0
H1629 H 0.86241 0.77663 0.8422 0.0
H1630 H 0.84229 0.75848 0.951 0.0
C1631 C 0.83737 0.71469 0.90397 0.0
C1632 C 0.85124 0.74054 0.84623 0.0
C1633 C 0.83622 0.70199 0.90183 0.0
C1634 C 0.85273 0.79337 0.85385 0.0
C1635 C 0.85446 0.78073 0.85746 0.0
C1636 C 0.84475 0.7536 0.92143 0.0
C1637 C 0.8474 0.7206 0.88448 0.0
C1638 C 0.84814 0.73416 0.8846 0.0
C1639 C 0.84601 0.77348 0.88053 0.0
C1640 C 0.84743 0.75998 0.88263 0.0
H1641 H 0.86229 0.69557 0.84475 0.0
H1642 H 0.86428 0.71783 0.84851 0.0
H1643 H 0.84286 0.73615 0.95263 0.0
H1644 H 0.82617 0.79583 0.91198 0.0
H1645 H 0.82911 0.77382 0.9178 0.0
C1646 C 0.65795 0.19448 0.40182 0.0
C1647 C 0.64852 0.18641 0.38978 0.0
C1648 C 0.65578 0.20704 0.40455 0.0
C1649 C 0.63587 0.23095 0.36059 0.0
H1650 H 0.65106 0.25073 0.45095 0.0
C1651 C 0.63217 0.28386 0.36339 0.0
C1652 C 0.64324 0.29004 0.37107 0.0
C1653 C 0.63134 0.27121 0.36995 0.0
C1654 C 0.64679 0.24533 0.42542 0.0
H1655 H 0.62933 0.18517 0.37208 0.0
H1656 H 0.62554 0.2072 0.37681 0.0
H1657 H 0.65215 0.22846 0.45547 0.0
H1658 H 0.6621 0.28782 0.39206 0.0
H1659 H 0.66067 0.26583 0.40307 0.0
H1660 H 0.6308 0.24784 0.32992 0.0
C1661 C 0.63463 0.20376 0.38389 0.0
C1662 C 0.64741 0.23259 0.42803 0.0
C1663 C 0.63679 0.19116 0.38139 0.0
C1664 C 0.65342 0.28335 0.38589 0.0
C1665 C 0.65258 0.27075 0.39255 0.0
C1666 C 0.63527 0.24372 0.35795 0.0
C1667 C 0.64414 0.21183 0.39517 0.0
C1668 C 0.6422 0.22527 0.39514 0.0
C1669 C 0.64155 0.26452 0.3845 0.0
C1670 C 0.64097 0.25104 0.38982 0.0
H1671 H 0.66709 0.19112 0.40855 0.0
H1672 H 0.66333 0.21303 0.41275 0.0
H1673 H 0.63187 0.22556 0.33452 0.0
H1674 H 0.62415 0.28876 0.35203 0.0
H1675 H 0.6227 0.26667 0.36376 0.0
C1676 C 0.85037 0.29799 0.15005 0.0
C1677 C 0.84035 0.30327 0.12823 0.0
C1678 C 0.85271 0.28544 0.1464 0.0
C1679 C 0.84599 0.25844 0.07765 0.0
H1680 H 0.85211 0.23993 0.18377 0.0
C1681 C 0.83803 0.20664 0.08928 0.0
C1682 C 0.846 0.19951 0.11487 0.0
C1683 C 0.8392 0.21935 0.08814 0.0
C1684 C 0.85064 0.24498 0.1537 0.0
H1685 H 0.825 0.29956 0.0851 0.0
H1686 H 0.82905 0.27773 0.07898 0.0
H1687 H 0.85072 0.2622 0.18719 0.0
H1688 H 0.86171 0.20012 0.1583 0.0
H1689 H 0.86378 0.22239 0.15608 0.0
H1690 H 0.84566 0.24123 0.04428 0.0
C1691 C 0.83518 0.28328 0.09854 0.0
C1692 C 0.84983 0.25774 0.15569 0.0
C1693 C 0.8328 0.29578 0.10233 0.0
C1694 C 0.85539 0.20536 0.13838 0.0
C1695 C 0.85655 0.21811 0.13729 0.0
C1696 C 0.84682 0.24571 0.07565 0.0
C1697 C 0.84512 0.27796 0.12064 0.0
C1698 C 0.84724 0.26458 0.11784 0.0
C1699 C 0.84837 0.22524 0.11254 0.0
C1700 C 0.84889 0.23881 0.1138 0.0
H1701 H 0.85637 0.30351 0.17019 0.0
H1702 H 0.86049 0.2816 0.16358 0.0
H1703 H 0.84421 0.26349 0.0478 0.0
H1704 H 0.83069 0.20243 0.07078 0.0
H1705 H 0.83264 0.22458 0.06923 0.0
C1706 C 0.65481 0.7044 0.59578 0.0
C1707 C 0.64658 0.69692 0.61889 0.0
C1708 C 0.65252 0.71689 0.59085 0.0
C1709 C 0.63672 0.74218 0.64462 0.0
H1710 H 0.6449 0.75966 0.53804 0.0
C1711 C 0.63452 0.79492 0.63461 0.0
C1712 C 0.64488 0.80045 0.61579 0.0
C1713 C 0.63263 0.7823 0.63058 0.0
C1714 C 0.6426 0.75491 0.56806 0.0
H1715 H 0.62931 0.69663 0.65394 0.0
H1716 H 0.62534 0.71852 0.64539 0.0
H1717 H 0.64536 0.73732 0.53876 0.0
H1718 H 0.66117 0.79714 0.57688 0.0
H1719 H 0.65795 0.77521 0.57034 0.0
H1720 H 0.63438 0.75975 0.67438 0.0
C1721 C 0.63359 0.71468 0.63132 0.0
C1722 C 0.64285 0.74213 0.56845 0.0
C1723 C 0.63585 0.70215 0.63605 0.0
C1724 C 0.6531 0.79317 0.59181 0.0
C1725 C 0.6512 0.7806 0.58775 0.0
C1726 C 0.6365 0.75497 0.64427 0.0
C1727 C 0.64197 0.7222 0.60906 0.0
C1728 C 0.6402 0.73564 0.60701 0.0
C1729 C 0.64104 0.77499 0.60754 0.0
C1730 C 0.63972 0.76147 0.60627 0.0
H1731 H 0.66315 0.70065 0.5821 0.0
H1732 H 0.65923 0.72246 0.57402 0.0
H1733 H 0.63475 0.73744 0.67497 0.0
H1734 H 0.62799 0.80028 0.65313 0.0
H1735 H 0.62465 0.77826 0.64582 0.0
C1736 C 0.54693 0.38977 0.8509 0.0
C1737 C 0.55334 0.40067 0.84244 0.0
C1738 C 0.53413 0.38956 0.84955 0.0
C1739 C 0.50787 0.4105 0.86036 0.0
H1740 H 0.48898 0.38342 0.81375 0.0
C1741 C 0.45582 0.41365 0.84071 0.0
C1742 C 0.44888 0.40355 0.8547 0.0
C1743 C 0.46851 0.41277 0.83692 0.0
C1744 C 0.49415 0.391 0.82721 0.0
H1745 H 0.55138 0.41974 0.82372 0.0
H1746 H 0.52916 0.41932 0.82063 0.0
H1747 H 0.51135 0.38279 0.81044 0.0
H1748 H 0.4498 0.3845 0.87462 0.0
H1749 H 0.47204 0.38301 0.86822 0.0
H1750 H 0.49076 0.41871 0.8772 0.0
C1751 C 0.53397 0.411 0.82938 0.0
C1752 C 0.50694 0.39063 0.82533 0.0
C1753 C 0.54672 0.41122 0.83091 0.0
C1754 C 0.45489 0.39246 0.86382 0.0
C1755 C 0.46762 0.39158 0.85994 0.0
C1756 C 0.49513 0.41087 0.86214 0.0
C1757 C 0.52751 0.40025 0.83959 0.0
C1758 C 0.51393 0.40043 0.84164 0.0
C1759 C 0.47456 0.40178 0.84701 0.0
C1760 C 0.48812 0.40117 0.84537 0.0
H1761 H 0.55177 0.38149 0.85991 0.0
H1762 H 0.52942 0.38115 0.85781 0.0
H1763 H 0.51298 0.41806 0.8742 0.0
H1764 H 0.45147 0.42231 0.83312 0.0
H1765 H 0.47359 0.42074 0.82617 0.0
C1766 C 0.95534 0.58697 0.29395 0.0
C1767 C 0.94972 0.58816 0.3351 0.0
C1768 C 0.96799 0.58843 0.28958 0.0
C1769 C 0.99564 0.6003 0.3459 0.0
H1770 H 0.01234 0.57536 0.27813 0.0
C1771 C 0.04694 0.5895 0.36589 0.0
C1772 C 0.05373 0.58639 0.32843 0.0
C1773 C 0.03431 0.5913 0.36321 0.0
C1774 C 0.00782 0.58252 0.29657 0.0
H1775 H 0.9529 0.59225 0.40368 0.0
H1776 H 0.97495 0.59463 0.39616 0.0
H1777 H 0.99008 0.57581 0.27953 0.0
H1778 H 0.05264 0.58312 0.25848 0.0
H1779 H 0.03058 0.58634 0.25379 0.0
H1780 H 0.01343 0.60682 0.36373 0.0
C1781 C 0.96959 0.5927 0.36715 0.0
C1782 C 0.99505 0.58279 0.29736 0.0
C1783 C 0.95695 0.59125 0.37151 0.0
C1784 C 0.04766 0.58543 0.28801 0.0
C1785 C 0.03502 0.58722 0.28534 0.0
C1786 C 0.00842 0.60003 0.34513 0.0
C1787 C 0.97527 0.59112 0.32627 0.0
C1788 C 0.98881 0.59156 0.32254 0.0
C1789 C 0.02819 0.59004 0.323 0.0
C1790 C 0.01465 0.59102 0.32096 0.0
H1791 H 0.95002 0.58469 0.26517 0.0
H1792 H 0.97207 0.58734 0.25752 0.0
H1793 H 0.9911 0.60729 0.36507 0.0
H1794 H 0.05134 0.59034 0.39754 0.0
H1795 H 0.0293 0.59331 0.39293 0.0
C1796 C 0.95331 0.40733 0.63052 0.0
C1797 C 0.94602 0.39872 0.60847 0.0
C1798 C 0.96597 0.40583 0.63287 0.0
C1799 C 0.99163 0.39095 0.57648 0.0
H1800 H 0.00936 0.39951 0.68212 0.0
C1801 C 0.04426 0.38683 0.58915 0.0
C1802 C 0.05026 0.39695 0.60776 0.0
C1803 C 0.03153 0.38576 0.59171 0.0
C1804 C 0.00454 0.39714 0.65233 0.0
H1805 H 0.94629 0.38165 0.57215 0.0
H1806 H 0.96845 0.379 0.57648 0.0
H1807 H 0.98704 0.39988 0.6822 0.0
H1808 H 0.04761 0.41379 0.64429 0.0
H1809 H 0.02546 0.41196 0.64848 0.0
H1810 H 0.00914 0.38841 0.5464 0.0
C1811 C 0.96435 0.38698 0.59157 0.0
C1812 C 0.99176 0.39735 0.65236 0.0
C1813 C 0.95166 0.38847 0.58926 0.0
C1814 C 0.04329 0.40587 0.62963 0.0
C1815 C 0.03058 0.40478 0.6323 0.0
C1816 C 0.00441 0.39072 0.57645 0.0
C1817 C 0.97165 0.39568 0.61323 0.0
C1818 C 0.98517 0.39445 0.61423 0.0
C1819 C 0.02456 0.39476 0.61311 0.0
C1820 C 0.011 0.39401 0.61418 0.0
H1821 H 0.94926 0.41534 0.64562 0.0
H1822 H 0.97135 0.41279 0.64923 0.0
H1823 H 0.98682 0.3888 0.54643 0.0
H1824 H 0.04937 0.37979 0.57216 0.0
H1825 H 0.02715 0.37788 0.57697 0.0
C1826 C 0.45464 0.60638 0.12148 0.0
C1827 C 0.44855 0.5958 0.13605 0.0
C1828 C 0.46737 0.60729 0.1248 0.0
C1829 C 0.49435 0.59369 0.18018 0.0
H1830 H 0.51196 0.60557 0.07851 0.0
C1831 C 0.54553 0.58404 0.15168 0.0
C1832 C 0.55278 0.59342 0.13384 0.0
C1833 C 0.53288 0.58548 0.15542 0.0
C1834 C 0.50718 0.60241 0.10743 0.0
H1835 H 0.45103 0.57799 0.16637 0.0
H1836 H 0.47317 0.57953 0.17164 0.0
H1837 H 0.48967 0.60613 0.07911 0.0
H1838 H 0.55245 0.61177 0.10665 0.0
H1839 H 0.53034 0.61429 0.11328 0.0
H1840 H 0.51188 0.58972 0.20807 0.0
C1841 C 0.46813 0.58719 0.15817 0.0
C1842 C 0.4944 0.60274 0.1078 0.0
C1843 C 0.45542 0.58628 0.15486 0.0
C1844 C 0.54712 0.60435 0.12043 0.0
C1845 C 0.53445 0.60578 0.12403 0.0
C1846 C 0.50712 0.59334 0.17977 0.0
C1847 C 0.47426 0.59765 0.1428 0.0
C1848 C 0.48784 0.59822 0.14392 0.0
C1849 C 0.52719 0.59633 0.1413 0.0
C1850 C 0.51367 0.59754 0.14314 0.0
H1851 H 0.4496 0.6139 0.107 0.0
H1852 H 0.47181 0.61553 0.11314 0.0
H1853 H 0.48956 0.59033 0.20881 0.0
H1854 H 0.5496 0.57549 0.1623 0.0
H1855 H 0.52752 0.57797 0.16834 0.0
C1856 C 0.13775 0.13658 0.22179 0.0
C1857 C 0.1456 0.14632 0.23266 0.0
C1858 C 0.13039 0.13116 0.25369 0.0
C1859 C 0.12863 0.12648 0.37229 0.0
H1860 H 0.09511 0.11695 0.34812 0.0
C1861 C 0.09762 0.10687 0.50656 0.0
C1862 C 0.09045 0.09664 0.49556 0.0
C1863 C 0.10366 0.11352 0.47416 0.0
C1864 C 0.10449 0.11946 0.35519 0.0
H1865 H 0.15169 0.15816 0.28531 0.0
H1866 H 0.13879 0.1487 0.34102 0.0
H1867 H 0.10693 0.12766 0.29211 0.0
H1868 H 0.08376 0.08553 0.44182 0.0
H1869 H 0.09449 0.09707 0.3851 0.0
H1870 H 0.12629 0.11817 0.43505 0.0
C1871 C 0.13845 0.1452 0.30789 0.0
C1872 C 0.11125 0.1256 0.32318 0.0
C1873 C 0.14579 0.15065 0.27594 0.0
C1874 C 0.08922 0.09337 0.45132 0.0
C1875 C 0.09531 0.10001 0.41882 0.0
C1876 C 0.12189 0.12033 0.40422 0.0
C1877 C 0.13074 0.13534 0.29714 0.0
C1878 C 0.1234 0.12915 0.3314 0.0
C1879 C 0.10272 0.11007 0.43 0.0
C1880 C 0.10975 0.11674 0.39603 0.0
H1881 H 0.13738 0.13304 0.1887 0.0
H1882 H 0.12465 0.12349 0.24453 0.0
H1883 H 0.13804 0.1289 0.37931 0.0
H1884 H 0.09867 0.10972 0.54032 0.0
H1885 H 0.10911 0.12135 0.48374 0.0
C1886 C 0.12255 0.89346 0.46122 0.0
C1887 C 0.10973 0.89454 0.46107 0.0
C1888 C 0.12846 0.88682 0.49405 0.0
C1889 C 0.12363 0.86324 0.57858 0.0
H1890 H 0.15122 0.8788 0.63595 0.0
C1891 C 0.15207 0.8398 0.7153 0.0
C1892 C 0.15439 0.8471 0.75224 0.0
C1893 C 0.14705 0.84497 0.67745 0.0
C1894 C 0.14353 0.87434 0.62022 0.0
H1895 H 0.09304 0.88924 0.49461 0.0
H1896 H 0.10339 0.87767 0.55199 0.0
H1897 H 0.14152 0.8888 0.57353 0.0
H1898 H 0.1533 0.86555 0.77847 0.0
H1899 H 0.1446 0.87452 0.71253 0.0
H1900 H 0.1255 0.8489 0.62601 0.0
C1901 C 0.10885 0.88191 0.52657 0.0
C1902 C 0.13806 0.88001 0.58426 0.0
C1903 C 0.10294 0.88862 0.49389 0.0
C1904 C 0.15164 0.85966 0.75056 0.0
C1905 C 0.14672 0.86483 0.7127 0.0
C1906 C 0.12917 0.85752 0.61441 0.0
C1907 C 0.12168 0.88105 0.52721 0.0
C1908 C 0.12795 0.87459 0.56344 0.0
C1909 C 0.14439 0.85754 0.67577 0.0
C1910 C 0.13905 0.86312 0.63594 0.0
H1911 H 0.12804 0.89788 0.43629 0.0
H1912 H 0.13836 0.8862 0.49354 0.0
H1913 H 0.11592 0.85881 0.56288 0.0
H1914 H 0.15409 0.83009 0.71562 0.0
H1915 H 0.14539 0.83916 0.64932 0.0
C1916 C 0.40089 0.89695 0.95078 0.0
C1917 C 0.39841 0.89554 -0.00439 0.0
C1918 C 0.39512 0.88945 0.91999 0.0
C1919 C 0.3678 0.87016 0.90557 0.0
H1920 H 0.38568 0.85702 0.80652 0.0
C1921 C 0.34573 0.83636 0.78407 0.0
C1922 C 0.34783 0.83876 0.73953 0.0
C1923 C 0.35241 0.84254 0.81622 0.0
C1924 C 0.38055 0.86069 0.83386 0.0
H1925 H 0.38809 0.88504 0.0434 0.0
H1926 H 0.37814 0.87196 0.98978 0.0
H1927 H 0.39638 0.86947 0.86071 0.0
H1928 H 0.35877 0.84932 0.69373 0.0
H1929 H 0.37029 0.86015 0.74972 0.0
H1930 H 0.35195 0.86151 0.87858 0.0
C1931 C 0.38439 0.87895 0.97834 0.0
C1932 C 0.38668 0.86783 0.86482 0.0
C1933 C 0.39015 0.88642 0.00906 0.0
C1934 C 0.35692 0.84726 0.72778 0.0
C1935 C 0.36358 0.85341 0.75986 0.0
C1936 C 0.36169 0.86303 0.87463 0.0
C1937 C 0.38676 0.88042 0.93347 0.0
C1938 C 0.38035 0.87268 0.90089 0.0
C1939 C 0.36133 0.85121 0.80442 0.0
C1940 C 0.36798 0.85828 0.83832 0.0
H1941 H 0.4072 0.9039 0.93939 0.0
H1942 H 0.39703 0.89088 0.88557 0.0
H1943 H 0.36264 0.87392 0.93267 0.0
H1944 H 0.33883 0.82983 0.79416 0.0
H1945 H 0.35057 0.84054 0.85033 0.0
C1946 C 0.38885 0.10319 0.98567 0.0
C1947 C 0.39807 0.09486 -0.00235 0.0
C1948 C 0.38286 0.11015 0.01736 0.0
C1949 C 0.37548 0.11074 0.13446 0.0
H1950 H 0.36835 0.14498 0.11213 0.0
C1951 C 0.35449 0.14218 0.26573 0.0
C1952 C 0.34513 0.15017 0.25215 0.0
C1953 C 0.36135 0.13568 0.23505 0.0
C1954 C 0.37017 0.1354 0.11864 0.0
H1955 H 0.40827 0.08732 0.0523 0.0
H1956 H 0.3978 0.09955 0.10782 0.0
H1957 H 0.37978 0.13314 0.05817 0.0
H1958 H 0.3357 0.15766 0.19569 0.0
H1959 H 0.34762 0.14619 0.14204 0.0
H1960 H 0.36579 0.11296 0.19474 0.0
C1961 C 0.39517 0.1006 0.07384 0.0
C1962 C 0.37673 0.12863 0.08779 0.0
C1963 C 0.40119 0.09365 0.04205 0.0
C1964 C 0.34286 0.1516 0.20719 0.0
C1965 C 0.34973 0.14508 0.17645 0.0
C1966 C 0.36891 0.11751 0.16529 0.0
C1967 C 0.38594 0.10892 0.06177 0.0
C1968 C 0.37939 0.11622 0.09528 0.0
C1969 C 0.35901 0.13701 0.1901 0.0
C1970 C 0.36614 0.12989 0.15762 0.0
H1971 H 0.3862 0.10434 0.95174 0.0
H1972 H 0.37568 0.11635 0.00711 0.0
H1973 H 0.37724 0.10115 0.14084 0.0
H1974 H 0.35653 0.14092 0.30015 0.0
H1975 H 0.36856 0.12968 0.24655 0.0
C1976 C 0.88807 0.88698 0.47935 0.0
C1977 C 0.89782 0.89452 0.49254 0.0
C1978 C 0.88105 0.88076 0.51038 0.0
C1979 C 0.87231 0.88188 0.62643 0.0
H1980 H 0.86254 0.84812 0.60835 0.0
C1981 C 0.85067 0.85325 0.7633 0.0
C1982 C 0.84066 0.84576 0.75244 0.0
C1983 C 0.85747 0.85899 0.73065 0.0
C1984 C 0.86508 0.85759 0.61358 0.0
H1985 H 0.90797 0.90131 0.54855 0.0
H1986 H 0.89575 0.89039 0.60268 0.0
H1987 H 0.87495 0.85848 0.5531 0.0
H1988 H 0.83002 0.83832 0.69873 0.0
H1989 H 0.84192 0.84846 0.64148 0.0
H1990 H 0.86248 0.88102 0.68682 0.0
C1991 C 0.89345 0.88941 0.56836 0.0
C1992 C 0.87219 0.86352 0.58201 0.0
C1993 C 0.90049 0.89561 0.53734 0.0
C1994 C 0.83768 0.84403 0.70812 0.0
C1995 C 0.84452 0.84979 0.67536 0.0
C1996 C 0.86521 0.87597 0.65792 0.0
C1997 C 0.88361 0.88199 0.55522 0.0
C1998 C 0.87594 0.8757 0.58828 0.0
C1999 C 0.85444 0.85739 0.68636 0.0
C2000 C 0.8616 0.86374 0.652 0.0
H2001 H 0.88578 0.88595 0.44506 0.0
H2002 H 0.87345 0.8752 0.4993 0.0
H2003 H 0.87486 0.89135 0.63177 0.0
H2004 H 0.85327 0.85472 0.79711 0.0
H2005 H 0.86519 0.86462 0.74013 0.0
C2006 C 0.85472 0.14338 0.21724 0.0
C2007 C 0.84473 0.15071 0.22973 0.0
C2008 C 0.8613 0.13679 0.2485 0.0
C2009 C 0.85834 0.12357 0.35837 0.0
H2010 H 0.89378 0.12184 0.35384 0.0
C2011 C 0.88668 0.10169 0.49631 0.0
C2012 C 0.89671 0.09437 0.48432 0.0
C2013 C 0.88048 0.1086 0.46501 0.0
C2014 C 0.88388 0.12212 0.35521 0.0
H2015 H 0.83394 0.15702 0.28489 0.0
H2016 H 0.8455 0.14553 0.33956 0.0
H2017 H 0.88276 0.13415 0.30002 0.0
H2018 H 0.9081 0.08854 0.43002 0.0
H2019 H 0.89714 0.10054 0.3751 0.0
H2020 H 0.85942 0.11149 0.41332 0.0
C2021 C 0.84813 0.1448 0.30548 0.0
C2022 C 0.87758 0.12918 0.32447 0.0
C2023 C 0.84157 0.15143 0.27421 0.0
C2024 C 0.90042 0.09411 0.4403 0.0
C2025 C 0.89418 0.10103 0.4089 0.0
C2026 C 0.86464 0.11649 0.38902 0.0
C2027 C 0.85802 0.13735 0.29289 0.0
C2028 C 0.86475 0.12999 0.32579 0.0
C2029 C 0.88414 0.10834 0.42095 0.0
C2030 C 0.87747 0.11571 0.38785 0.0
H2031 H 0.8574 0.14262 0.18321 0.0
H2032 H 0.86879 0.13103 0.23776 0.0
H2033 H 0.84844 0.12385 0.35974 0.0
H2034 H 0.88363 0.10215 0.53001 0.0
H2035 H 0.8729 0.11429 0.47547 0.0
C2036 C 0.64561 0.14844 0.21779 0.0
C2037 C 0.64573 0.14422 0.2612 0.0
C2038 C 0.63748 0.14345 0.18736 0.0
C2039 C 0.61907 0.11579 0.16681 0.0
H2040 H 0.60366 0.13609 0.07839 0.0
C2041 C 0.58539 0.09595 0.04006 0.0
C2042 C 0.58776 0.09932 -0.0035 0.0
C2043 C 0.59118 0.10204 0.07453 0.0
C2044 C 0.60793 0.13032 0.10285 0.0
H2045 H 0.63724 0.13163 0.30705 0.0
H2046 H 0.62296 0.12305 0.25413 0.0
H2047 H 0.61632 0.1456 0.13477 0.0
H2048 H 0.59771 0.11201 0.95494 0.0
H2049 H 0.60779 0.12259 0.015 0.0
H2050 H 0.61078 0.10051 0.13462 0.0
C2051 C 0.62929 0.13007 0.24338 0.0
C2052 C 0.6152 0.13574 0.13503 0.0
C2053 C 0.63744 0.13502 0.27374 0.0
C2054 C 0.59571 0.10916 0.98815 0.0
C2055 C 0.60143 0.11529 0.02257 0.0
C2056 C 0.61176 0.11038 0.13475 0.0
C2057 C 0.62927 0.13416 0.19977 0.0
C2058 C 0.62098 0.12852 0.16704 0.0
C2059 C 0.59936 0.11168 0.06606 0.0
C2060 C 0.60625 0.11757 0.10212 0.0
H2061 H 0.65189 0.1555 0.2071 0.0
H2062 H 0.63782 0.14669 0.15386 0.0
H2063 H 0.62353 0.10995 0.19061 0.0
H2064 H 0.57928 0.08843 0.04754 0.0
H2065 H 0.58933 0.09916 0.10781 0.0
C2066 C 0.64912 0.84459 0.78586 0.0
C2067 C 0.64726 0.84688 0.74111 0.0
C2068 C 0.64263 0.8512 0.81739 0.0
C2069 C 0.61507 0.87029 0.83277 0.0
H2070 H 0.6328 0.88294 0.93297 0.0
C2071 C 0.59443 0.90604 0.95102 0.0
C2072 C 0.59661 0.90422 -0.00413 0.0
C2073 C 0.60044 0.89885 0.91987 0.0
C2074 C 0.62769 0.87936 0.90542 0.0
H2075 H 0.63699 0.85778 0.69428 0.0
H2076 H 0.62579 0.86934 0.74921 0.0
H2077 H 0.64347 0.87038 0.87921 0.0
H2078 H 0.60673 0.89338 0.04325 0.0
H2079 H 0.61708 0.88082 0.98902 0.0
H2080 H 0.5993 0.87932 0.85894 0.0
C2081 C 0.63216 0.86236 0.75998 0.0
C2082 C 0.63379 0.87215 0.87469 0.0
C2083 C 0.63865 0.85578 0.72852 0.0
C2084 C 0.60489 0.89507 0.00893 0.0
C2085 C 0.61088 0.8879 0.97785 0.0
C2086 C 0.60896 0.8775 0.86353 0.0
C2087 C 0.63414 0.86021 0.80474 0.0
C2088 C 0.62755 0.86756 0.838 0.0
C2089 C 0.60874 0.88972 0.933 0.0
C2090 C 0.61521 0.88212 0.90015 0.0
H2091 H 0.65566 0.83777 0.7966 0.0
H2092 H 0.64424 0.84925 0.85167 0.0
H2093 H 0.60998 0.86675 0.8051 0.0
H2094 H 0.58812 0.91304 0.93994 0.0
H2095 H 0.59871 0.90055 0.88548 0.0
C2096 C 0.59481 0.59578 0.96322 0.0
C2097 C 0.59739 0.59702 0.00804 0.0
C2098 C 0.60043 0.60346 0.93263 0.0
C2099 C 0.62758 0.62312 0.91907 0.0
H2100 H 0.61006 0.63523 0.81749 0.0
C2101 C 0.64962 0.65644 0.79571 0.0
C2102 C 0.64806 0.6534 0.75138 0.0
C2103 C 0.64283 0.65044 0.828 0.0
C2104 C 0.61507 0.63186 0.84562 0.0
H2105 H 0.60762 0.6075 0.05609 0.0
H2106 H 0.61724 0.62097 0.00286 0.0
H2107 H 0.59924 0.62305 0.87221 0.0
H2108 H 0.63797 0.6419 0.70602 0.0
H2109 H 0.6262 0.63143 0.76235 0.0
H2110 H 0.64343 0.63186 0.89237 0.0
C2111 C 0.61108 0.61393 0.99121 0.0
C2112 C 0.60889 0.62487 0.87687 0.0
C2113 C 0.60551 0.60624 0.02173 0.0
C2114 C 0.63941 0.64444 0.73991 0.0
C2115 C 0.6326 0.63849 0.77214 0.0
C2116 C 0.63374 0.63014 0.88792 0.0
C2117 C 0.6087 0.61255 0.94629 0.0
C2118 C 0.6151 0.62034 0.91378 0.0
C2119 C 0.63432 0.64134 0.81653 0.0
C2120 C 0.62758 0.63449 0.85071 0.0
H2121 H 0.58861 0.58876 0.95165 0.0
H2122 H 0.59851 0.60207 0.89821 0.0
H2123 H 0.63269 0.6196 0.94674 0.0
H2124 H 0.65619 0.66334 0.80557 0.0
H2125 H 0.64426 0.65291 0.86197 0.0
C2126 C 0.63086 0.3488 0.26382 0.0
C2127 C 0.63481 0.33703 0.25163 0.0
C2128 C 0.62406 0.35596 0.23484 0.0
C2129 C 0.60526 0.35514 0.13471 0.0
H2130 H 0.61735 0.38822 0.11818 0.0
C2131 C 0.58276 0.39014 0.01633 0.0
C2132 C 0.59102 0.39594 0.9878 0.0
C2133 C 0.58708 0.38319 0.05158 0.0
C2134 C 0.61385 0.37902 0.12256 0.0
H2135 H 0.63428 0.32336 0.20017 0.0
H2136 H 0.6224 0.33592 0.14946 0.0
H2137 H 0.62646 0.37522 0.17434 0.0
H2138 H 0.61025 0.39922 0.97428 0.0
H2139 H 0.61773 0.38723 0.0359 0.0
H2140 H 0.59283 0.35891 0.08208 0.0
C2141 C 0.62455 0.33956 0.18154 0.0
C2142 C 0.61899 0.37162 0.15491 0.0
C2143 C 0.63141 0.3324 0.21047 0.0
C2144 C 0.60365 0.39485 -0.00436 0.0
C2145 C 0.60794 0.38804 0.03106 0.0
C2146 C 0.60004 0.3626 0.10254 0.0
C2147 C 0.62101 0.35149 0.19315 0.0
C2148 C 0.61487 0.35955 0.16092 0.0
C2149 C 0.59972 0.38208 0.0592 0.0
C2150 C 0.60443 0.37454 0.09572 0.0
H2151 H 0.63324 0.35261 0.29541 0.0
H2152 H 0.62132 0.36507 0.24484 0.0
H2153 H 0.60186 0.3459 0.13888 0.0
H2154 H 0.57298 0.39079 0.01103 0.0
H2155 H 0.58056 0.37873 0.07298 0.0
C2156 C 0.88898 0.39031 0.50727 0.0
C2157 C 0.8968 0.39994 0.49499 0.0
C2158 C 0.88216 0.38405 0.47584 0.0
C2159 C 0.86954 0.38759 0.3651 0.0
H2160 H 0.86524 0.35239 0.37171 0.0
C2161 C 0.84638 0.35998 0.22787 0.0
C2162 C 0.83818 0.35069 0.24025 0.0
C2163 C 0.85355 0.36589 0.25913 0.0
C2164 C 0.86625 0.36224 0.36975 0.0
H2165 H 0.90381 0.41036 0.43999 0.0
H2166 H 0.89197 0.39931 0.38495 0.0
H2167 H 0.87817 0.36274 0.4253 0.0
H2168 H 0.83104 0.34035 0.29522 0.0
H2169 H 0.84354 0.35078 0.35004 0.0
H2170 H 0.85761 0.38711 0.3096 0.0
C2171 C 0.891 0.39674 0.41903 0.0
C2172 C 0.87366 0.36816 0.40036 0.0
C2173 C 0.89783 0.40302 0.45051 0.0
C2174 C 0.83728 0.34746 0.28465 0.0
C2175 C 0.84448 0.35338 0.31599 0.0
C2176 C 0.86213 0.38168 0.33449 0.0
C2177 C 0.88302 0.38725 0.43142 0.0
C2178 C 0.87538 0.3809 0.39837 0.0
C2179 C 0.8527 0.36266 0.3035 0.0
C2180 C 0.86041 0.36894 0.33647 0.0
H2181 H 0.88797 0.3877 0.54129 0.0
H2182 H 0.876 0.37688 0.48649 0.0
H2183 H 0.8705 0.39745 0.36316 0.0
H2184 H 0.84735 0.36266 0.1939 0.0
H2185 H 0.85991 0.37288 0.24841 0.0
C2186 C 0.84594 0.65468 0.71635 0.0
C2187 C 0.84665 0.65044 0.75971 0.0
C2188 C 0.85338 0.64959 0.68389 0.0
C2189 C 0.87082 0.62165 0.65877 0.0
H2190 H 0.88638 0.64183 0.57034 0.0
C2191 C 0.89291 0.60104 0.50524 0.0
C2192 C 0.90421 0.60584 0.49147 0.0
C2193 C 0.88627 0.60673 0.53842 0.0
C2194 C 0.88217 0.63609 0.59506 0.0
H2195 H 0.85586 0.63768 0.80317 0.0
H2196 H 0.86884 0.62889 0.74673 0.0
H2197 H 0.87413 0.65147 0.62774 0.0
H2198 H 0.91739 0.62041 0.50178 0.0
H2199 H 0.90576 0.63034 0.56022 0.0
H2200 H 0.87894 0.6063 0.62656 0.0
C2201 C 0.86243 0.63602 0.73764 0.0
C2202 C 0.87505 0.6416 0.62758 0.0
C2203 C 0.85502 0.6411 0.77001 0.0
C2204 C 0.90872 0.61648 0.51167 0.0
C2205 C 0.90203 0.62221 0.54492 0.0
C2206 C 0.8779 0.61616 0.62629 0.0
C2207 C 0.86165 0.64015 0.69419 0.0
C2208 C 0.86928 0.63442 0.65972 0.0
C2209 C 0.89075 0.61736 0.55865 0.0
C2210 C 0.8836 0.62331 0.59395 0.0
H2211 H 0.8396 0.66188 0.70739 0.0
H2212 H 0.8525 0.65287 0.65058 0.0
H2213 H 0.86639 0.61585 0.68281 0.0
H2214 H 0.88914 0.59288 0.49028 0.0
H2215 H 0.87752 0.60288 0.54783 0.0
C2216 C 0.34765 0.34812 0.19953 0.0
C2217 C 0.34865 0.35045 0.24459 0.0
C2218 C 0.35539 0.35402 0.16983 0.0
C2219 C 0.3747 0.38141 0.158 0.0
H2220 H 0.38827 0.36372 0.05926 0.0
C2221 C 0.40765 0.40418 0.03442 0.0
C2222 C 0.40497 0.40195 0.99016 0.0
C2223 C 0.40188 0.39738 0.06729 0.0
C2224 C 0.3845 0.36879 0.08657 0.0
H2225 H 0.35864 0.3607 0.29392 0.0
H2226 H 0.37214 0.37091 0.24213 0.0
H2227 H 0.37585 0.35284 0.11303 0.0
H2228 H 0.39435 0.39067 0.94561 0.0
H2229 H 0.38427 0.37897 0.00272 0.0
H2230 H 0.38319 0.39739 0.1312 0.0
C2231 C 0.3653 0.36464 0.22971 0.0
C2232 C 0.37737 0.36257 0.11728 0.0
C2233 C 0.35758 0.35874 0.25937 0.0
C2234 C 0.39662 0.39264 0.97941 0.0
C2235 C 0.3909 0.38585 0.01215 0.0
C2236 C 0.38182 0.38763 0.12727 0.0
C2237 C 0.36426 0.36237 0.18462 0.0
C2238 C 0.37228 0.36884 0.15305 0.0
C2239 C 0.39337 0.38821 0.05644 0.0
C2240 C 0.38667 0.38142 0.09094 0.0
H2241 H 0.34086 0.34179 0.18711 0.0
H2242 H 0.35427 0.35219 0.13521 0.0
H2243 H 0.37078 0.38652 0.18495 0.0
H2244 H 0.41406 0.41128 0.04373 0.0
H2245 H 0.40405 0.39933 0.10119 0.0
C2246 C 0.37732 0.59384 0.01921 0.0
C2247 C 0.38941 0.59629 0.03212 0.0
C2248 C 0.37204 0.60021 0.98441 0.0
C2249 C 0.37454 0.62854 0.92007 0.0
H2250 H 0.35514 0.61048 0.8356 0.0
C2251 C 0.34348 0.65185 0.79103 0.0
C2252 C 0.34335 0.6467 0.74889 0.0
C2253 C 0.34971 0.64603 0.82516 0.0
C2254 C 0.36061 0.61565 0.8587 0.0
H2255 H 0.40544 0.60741 0.01883 0.0
H2256 H 0.39621 0.61851 0.95776 0.0
H2257 H 0.36496 0.59961 0.89573 0.0
H2258 H 0.34989 0.63156 0.70924 0.0
H2259 H 0.36078 0.62147 0.76867 0.0
H2260 H 0.37025 0.64458 0.88267 0.0
C2261 C 0.3908 0.61171 0.97485 0.0
C2262 C 0.36612 0.60944 0.8934 0.0
C2263 C 0.3961 0.60531 0.00964 0.0
C2264 C 0.34975 0.63574 0.74139 0.0
C2265 C 0.35594 0.62992 0.77547 0.0
C2266 C 0.36898 0.63477 0.88538 0.0
C2267 C 0.37873 0.60919 0.96179 0.0
C2268 C 0.3731 0.61582 0.92454 0.0
C2269 C 0.35589 0.63493 0.81781 0.0
C2270 C 0.36195 0.62838 0.85437 0.0
H2271 H 0.3719 0.58698 0.03595 0.0
H2272 H 0.36266 0.59818 0.97547 0.0
H2273 H 0.37979 0.63371 0.94377 0.0
H2274 H 0.33865 0.66029 0.79785 0.0
H2275 H 0.34942 0.65005 0.85754 0.0
C2276 C 0.13707 0.65403 0.75503 0.0
C2277 C 0.14768 0.64836 0.77141 0.0
C2278 C 0.13051 0.64869 0.72074 0.0
C2279 C 0.12584 0.61911 0.66449 0.0
H2280 H 0.11293 0.63931 0.57078 0.0
C2281 C 0.1085 0.59893 0.50223 0.0
C2282 C 0.09757 0.60368 0.48492 0.0
C2283 C 0.11408 0.60446 0.53818 0.0
C2284 C 0.11636 0.63358 0.597 0.0
H2285 H 0.1598 0.63275 0.76436 0.0
H2286 H 0.14849 0.62358 0.70413 0.0
H2287 H 0.12381 0.6489 0.63158 0.0
H2288 H 0.08393 0.61799 0.49174 0.0
H2289 H 0.09373 0.62769 0.55469 0.0
H2290 H 0.11856 0.60378 0.62956 0.0
C2291 C 0.1451 0.63201 0.71829 0.0
C2292 C 0.12258 0.63906 0.63182 0.0
C2293 C 0.15163 0.63731 0.75264 0.0
C2294 C 0.09234 0.61411 0.50432 0.0
C2295 C 0.09798 0.6197 0.5402 0.0
C2296 C 0.11968 0.61364 0.62962 0.0
C2297 C 0.13443 0.63761 0.70207 0.0
C2298 C 0.12747 0.63187 0.66577 0.0
C2299 C 0.10889 0.61491 0.5575 0.0
C2300 C 0.11496 0.6208 0.59537 0.0
H2301 H 0.13377 0.66253 0.76894 0.0
H2302 H 0.12226 0.65317 0.70931 0.0
H2303 H 0.12928 0.61334 0.69057 0.0
H2304 H 0.11278 0.59091 0.48803 0.0
H2305 H 0.12257 0.60066 0.55048 0.0
C2306 C 0.1398 0.34525 0.22822 0.0
C2307 C 0.14868 0.33645 0.23917 0.0
C2308 C 0.13295 0.35099 0.26078 0.0
C2309 C 0.13413 0.35923 0.3766 0.0
H2310 H 0.09957 0.36605 0.36041 0.0
C2311 C 0.10544 0.38379 0.50823 0.0
C2312 C 0.09737 0.39292 0.4934 0.0
C2313 C 0.11117 0.37594 0.47858 0.0
C2314 C 0.10924 0.3643 0.36523 0.0
H2315 H 0.15717 0.32659 0.29283 0.0
H2316 H 0.14516 0.33667 0.34992 0.0
H2317 H 0.11048 0.35375 0.30636 0.0
H2318 H 0.08891 0.40093 0.43588 0.0
H2319 H 0.09906 0.38734 0.38402 0.0
H2320 H 0.13297 0.36997 0.43496 0.0
C2321 C 0.14359 0.33916 0.31605 0.0
C2322 C 0.11547 0.35724 0.33436 0.0
C2323 C 0.15042 0.33336 0.28338 0.0
C2324 C 0.09506 0.39397 0.44833 0.0
C2325 C 0.10082 0.38613 0.41865 0.0
C2326 C 0.1279 0.36631 0.40743 0.0
C2327 C 0.13484 0.34808 0.30504 0.0
C2328 C 0.12801 0.35475 0.33947 0.0
C2329 C 0.10898 0.37707 0.43345 0.0
C2330 C 0.11542 0.36904 0.40182 0.0
H2331 H 0.13821 0.34783 0.19445 0.0
H2332 H 0.12639 0.35794 0.25131 0.0
H2333 H 0.14382 0.35761 0.3811 0.0
H2334 H 0.10736 0.38268 0.5428 0.0
H2335 H 0.11728 0.36895 0.49105 0.0
loop_
_geom_bond_atom_site_label_1
_geom_bond_atom_site_label_2
_geom_bond_distance
_geom_bond_site_symmetry_2
_ccdc_geom_bond_type
C0 O1 1.160 . S
C0 O7 1.185 . S
O1 C0 1.160 . S
O2 Zn3 1.899 . S
O2 C10 1.284 . S
Zn3 O2 1.899 . S
Zn3 O4 2.032 . S
Zn3 O7 2.086 . S
Zn3 O12 1.977 . S
O4 Zn3 2.032 . S
O4 C8 1.278 . S
C5 O6 1.203 . S
C5 O12 1.267 . S
O6 C5 1.203 . S
O7 C0 1.185 . S
O7 Zn3 2.086 . S
C8 O4 1.278 . S
C8 O9 1.211 . S
O9 C8 1.211 . S
C10 O2 1.284 . S
C10 O11 1.273 . S
O11 C10 1.273 . S
O12 Zn3 1.977 . S
O12 C5 1.267 . S
C13 O14 1.160 . S
C13 O20 1.185 . S
O14 C13 1.160 . S
O15 Zn16 1.899 . S
O15 C23 1.284 . S
Zn16 O15 1.899 . S
Zn16 O17 2.032 . S
Zn16 O20 2.086 . S
Zn16 O25 1.977 . S
O17 Zn16 2.032 . S
O17 C21 1.278 . S
C18 O19 1.203 . S
C18 O25 1.267 . S
O19 C18 1.203 . S
O20 C13 1.185 . S
O20 Zn16 2.086 . S
C21 O17 1.278 . S
C21 O22 1.211 . S
O22 C21 1.211 . S
C23 O15 1.284 . S
C23 O24 1.273 . S
O24 C23 1.273 . S
O25 Zn16 1.977 . S
O25 C18 1.267 . S
C26 O27 1.160 . S
C26 O33 1.185 . S
O27 C26 1.160 . S
O28 Zn29 1.899 . S
O28 C36 1.284 . S
Zn29 O28 1.899 . S
Zn29 O30 2.032 . S
Zn29 O33 2.086 . S
Zn29 O38 1.977 . S
O30 Zn29 2.032 . S
O30 C34 1.278 . S
C31 O32 1.203 . S
C31 O38 1.267 . S
O32 C31 1.203 . S
O33 C26 1.185 . S
O33 Zn29 2.086 . S
C34 O30 1.278 . S
C34 O35 1.211 . S
O35 C34 1.211 . S
C36 O28 1.284 . S
C36 O37 1.273 . S
O37 C36 1.273 . S
O38 Zn29 1.977 . S
O38 C31 1.267 . S
C39 O40 1.160 . S
C39 O46 1.185 . S
O40 C39 1.160 . S
O41 Zn42 1.899 . S
O41 C49 1.284 . S
Zn42 O41 1.899 . S
Zn42 O43 2.032 . S
Zn42 O46 2.086 . S
Zn42 O51 1.977 . S
O43 Zn42 2.032 . S
O43 C47 1.278 . S
C44 O45 1.203 . S
C44 O51 1.267 . S
O45 C44 1.203 . S
O46 C39 1.185 . S
O46 Zn42 2.086 . S
C47 O43 1.278 . S
C47 O48 1.211 . S
O48 C47 1.211 . S
C49 O41 1.284 . S
C49 O50 1.273 . S
O50 C49 1.273 . S
O51 Zn42 1.977 . S
O51 C44 1.267 . S
C52 O53 1.160 . S
C52 O59 1.185 . S
O53 C52 1.160 . S
O54 Zn55 1.899 . S
O54 C62 1.284 . S
Zn55 O54 1.899 . S
Zn55 O56 2.032 . S
Zn55 O59 2.086 . S
Zn55 O64 1.977 . S
O56 Zn55 2.032 . S
O56 C60 1.278 . S
C57 O58 1.203 . S
C57 O64 1.267 . S
O58 C57 1.203 . S
O59 C52 1.185 . S
O59 Zn55 2.086 . S
C60 O56 1.278 . S
C60 O61 1.211 . S
O61 C60 1.211 . S
C62 O54 1.284 . S
C62 O63 1.273 . S
O63 C62 1.273 . S
O64 Zn55 1.977 . S
O64 C57 1.267 . S
C65 O66 1.160 . S
C65 O72 1.185 . S
O66 C65 1.160 . S
O67 Zn68 1.899 . S
O67 C75 1.284 . S
Zn68 O67 1.899 . S
Zn68 O69 2.032 . S
Zn68 O72 2.086 . S
Zn68 O77 1.977 . S
O69 Zn68 2.032 . S
O69 C73 1.278 . S
C70 O71 1.203 . S
C70 O77 1.267 . S
O71 C70 1.203 . S
O72 C65 1.185 . S
O72 Zn68 2.086 . S
C73 O69 1.278 . S
C73 O74 1.211 . S
O74 C73 1.211 . S
C75 O67 1.284 . S
C75 O76 1.273 . S
O76 C75 1.273 . S
O77 Zn68 1.977 . S
O77 C70 1.267 . S
C78 O79 1.160 . S
C78 O85 1.185 . S
O79 C78 1.160 . S
O80 Zn81 1.899 . S
O80 C88 1.284 . S
Zn81 O80 1.899 . S
Zn81 O82 2.032 . S
Zn81 O85 2.086 . S
Zn81 O90 1.977 . S
O82 Zn81 2.032 . S
O82 C86 1.278 . S
C83 O84 1.203 . S
C83 O90 1.267 . S
O84 C83 1.203 . S
O85 C78 1.185 . S
O85 Zn81 2.086 . S
C86 O82 1.278 . S
C86 O87 1.211 . S
O87 C86 1.211 . S
C88 O80 1.284 . S
C88 O89 1.273 . S
O89 C88 1.273 . S
O90 Zn81 1.977 . S
O90 C83 1.267 . S
C91 O92 1.160 . S
C91 O98 1.185 . S
O92 C91 1.160 . S
O93 Zn94 1.899 . S
O93 C101 1.284 . S
Zn94 O93 1.899 . S
Zn94 O95 2.032 . S
Zn94 O98 2.086 . S
Zn94 O103 1.977 . S
O95 Zn94 2.032 . S
O95 C99 1.278 . S
C96 O97 1.203 . S
C96 O103 1.267 . S
O97 C96 1.203 . S
O98 C91 1.185 . S
O98 Zn94 2.086 . S
C99 O95 1.278 . S
C99 O100 1.211 . S
O100 C99 1.211 . S
C101 O93 1.284 . S
C101 O102 1.273 . S
O102 C101 1.273 . S
O103 Zn94 1.977 . S
O103 C96 1.267 . S
C104 O105 1.160 . S
C104 O111 1.185 . S
O105 C104 1.160 . S
O106 Zn107 1.899 . S
O106 C114 1.284 . S
Zn107 O106 1.899 . S
Zn107 O108 2.032 . S
Zn107 O111 2.086 . S
Zn107 O116 1.977 . S
O108 Zn107 2.032 . S
O108 C112 1.278 . S
C109 O110 1.203 . S
C109 O116 1.267 . S
O110 C109 1.203 . S
O111 C104 1.185 . S
O111 Zn107 2.086 . S
C112 O108 1.278 . S
C112 O113 1.211 . S
O113 C112 1.211 . S
C114 O106 1.284 . S
C114 O115 1.273 . S
O115 C114 1.273 . S
O116 Zn107 1.977 . S
O116 C109 1.267 . S
C117 O118 1.160 . S
C117 O124 1.185 . S
O118 C117 1.160 . S
O119 Zn120 1.899 . S
O119 C127 1.284 . S
Zn120 O119 1.899 . S
Zn120 O121 2.032 . S
Zn120 O124 2.086 . S
Zn120 O129 1.977 . S
O121 Zn120 2.032 . S
O121 C125 1.278 . S
C122 O123 1.203 . S
C122 O129 1.267 . S
O123 C122 1.203 . S
O124 C117 1.185 . S
O124 Zn120 2.086 . S
C125 O121 1.278 . S
C125 O126 1.211 . S
O126 C125 1.211 . S
C127 O119 1.284 . S
C127 O128 1.273 . S
O128 C127 1.273 . S
O129 Zn120 1.977 . S
O129 C122 1.267 . S
C130 O131 1.160 . S
C130 O137 1.185 . S
O131 C130 1.160 . S
O132 Zn133 1.899 . S
O132 C140 1.284 . S
Zn133 O132 1.899 . S
Zn133 O134 2.032 . S
Zn133 O137 2.086 . S
Zn133 O142 1.977 . S
O134 Zn133 2.032 . S
O134 C138 1.278 . S
C135 O136 1.203 . S
C135 O142 1.267 . S
O136 C135 1.203 . S
O137 C130 1.185 . S
O137 Zn133 2.086 . S
C138 O134 1.278 . S
C138 O139 1.211 . S
O139 C138 1.211 . S
C140 O132 1.284 . S
C140 O141 1.273 . S
O141 C140 1.273 . S
O142 Zn133 1.977 . S
O142 C135 1.267 . S
C143 O144 1.160 . S
C143 O150 1.185 . S
O144 C143 1.160 . S
O145 Zn146 1.899 . S
O145 C153 1.284 . S
Zn146 O145 1.899 . S
Zn146 O147 2.032 . S
Zn146 O150 2.086 . S
Zn146 O155 1.977 . S
O147 Zn146 2.032 . S
O147 C151 1.278 . S
C148 O149 1.203 . S
C148 O155 1.267 . S
O149 C148 1.203 . S
O150 C143 1.185 . S
O150 Zn146 2.086 . S
C151 O147 1.278 . S
C151 O152 1.211 . S
O152 C151 1.211 . S
C153 O145 1.284 . S
C153 O154 1.273 . S
O154 C153 1.273 . S
O155 Zn146 1.977 . S
O155 C148 1.267 . S
C156 O157 1.160 . S
C156 O163 1.185 . S
O157 C156 1.160 . S
O158 Zn159 1.899 . S
O158 C166 1.284 . S
Zn159 O158 1.899 . S
Zn159 O160 2.032 . S
Zn159 O163 2.086 . S
Zn159 O168 1.977 . S
O160 Zn159 2.032 . S
O160 C164 1.278 . S
C161 O162 1.203 . S
C161 O168 1.267 . S
O162 C161 1.203 . S
O163 C156 1.185 . S
O163 Zn159 2.086 . S
C164 O160 1.278 . S
C164 O165 1.211 . S
O165 C164 1.211 . S
C166 O158 1.284 . S
C166 O167 1.273 . S
O167 C166 1.273 . S
O168 Zn159 1.977 . S
O168 C161 1.267 . S
C169 O170 1.160 . S
C169 O176 1.185 . S
O170 C169 1.160 . S
O171 Zn172 1.899 . S
O171 C179 1.284 . S
Zn172 O171 1.899 . S
Zn172 O173 2.032 . S
Zn172 O176 2.086 . S
Zn172 O181 1.977 . S
O173 Zn172 2.032 . S
O173 C177 1.278 . S
C174 O175 1.203 . S
C174 O181 1.267 . S
O175 C174 1.203 . S
O176 C169 1.185 . S
O176 Zn172 2.086 . S
C177 O173 1.278 . S
C177 O178 1.211 . S
O178 C177 1.211 . S
C179 O171 1.284 . S
C179 O180 1.273 . S
O180 C179 1.273 . S
O181 Zn172 1.977 . S
O181 C174 1.267 . S
C182 O183 1.160 . S
C182 O189 1.185 . S
O183 C182 1.160 . S
O184 Zn185 1.899 . S
O184 C192 1.284 . S
Zn185 O184 1.899 . S
Zn185 O186 2.032 . S
Zn185 O189 2.086 . S
Zn185 O194 1.977 . S
O186 Zn185 2.032 . S
O186 C190 1.278 . S
C187 O188 1.203 . S
C187 O194 1.267 . S
O188 C187 1.203 . S
O189 C182 1.185 . S
O189 Zn185 2.086 . S
C190 O186 1.278 . S
C190 O191 1.211 . S
O191 C190 1.211 . S
C192 O184 1.284 . S
C192 O193 1.273 . S
O193 C192 1.273 . S
O194 Zn185 1.977 . S
O194 C187 1.267 . S
C195 O196 1.160 . S
C195 O202 1.185 . S
O196 C195 1.160 . S
O197 Zn198 1.899 . S
O197 C205 1.284 . S
Zn198 O197 1.899 . S
Zn198 O199 2.032 . S
Zn198 O202 2.086 . S
Zn198 O207 1.977 . S
O199 Zn198 2.032 . S
O199 C203 1.278 . S
C200 O201 1.203 . S
C200 O207 1.267 . S
O201 C200 1.203 . S
O202 C195 1.185 . S
O202 Zn198 2.086 . S
C203 O199 1.278 . S
C203 O204 1.211 . S
O204 C203 1.211 . S
C205 O197 1.284 . S
C205 O206 1.273 . S
O206 C205 1.273 . S
O207 Zn198 1.977 . S
O207 C200 1.267 . S
C208 O209 1.160 . S
C208 O215 1.185 . S
O209 C208 1.160 . S
O210 Zn211 1.899 . S
O210 C218 1.284 . S
Zn211 O210 1.899 . S
Zn211 O212 2.032 . S
Zn211 O215 2.086 . S
Zn211 O220 1.977 . S
O212 Zn211 2.032 . S
O212 C216 1.278 . S
C213 O214 1.203 . S
C213 O220 1.267 . S
O214 C213 1.203 . S
O215 C208 1.185 . S
O215 Zn211 2.086 . S
C216 O212 1.278 . S
C216 O217 1.211 . S
O217 C216 1.211 . S
C218 O210 1.284 . S
C218 O219 1.273 . S
O219 C218 1.273 . S
O220 Zn211 1.977 . S
O220 C213 1.267 . S
C221 O222 1.160 . S
C221 O228 1.185 . S
O222 C221 1.160 . S
O223 Zn224 1.899 . S
O223 C231 1.284 . S
Zn224 O223 1.899 . S
Zn224 O225 2.032 . S
Zn224 O228 2.086 . S
Zn224 O233 1.977 . S
O225 Zn224 2.032 . S
O225 C229 1.278 . S
C226 O227 1.203 . S
C226 O233 1.267 . S
O227 C226 1.203 . S
O228 C221 1.185 . S
O228 Zn224 2.086 . S
C229 O225 1.278 . S
C229 O230 1.211 . S
O230 C229 1.211 . S
C231 O223 1.284 . S
C231 O232 1.273 . S
O232 C231 1.273 . S
O233 Zn224 1.977 . S
O233 C226 1.267 . S
C234 O235 1.160 . S
C234 O241 1.185 . S
O235 C234 1.160 . S
O236 Zn237 1.899 . S
O236 C244 1.284 . S
Zn237 O236 1.899 . S
Zn237 O238 2.032 . S
Zn237 O241 2.086 . S
Zn237 O246 1.977 . S
O238 Zn237 2.032 . S
O238 C242 1.278 . S
C239 O240 1.203 . S
C239 O246 1.267 . S
O240 C239 1.203 . S
O241 C234 1.185 . S
O241 Zn237 2.086 . S
C242 O238 1.278 . S
C242 O243 1.211 . S
O243 C242 1.211 . S
C244 O236 1.284 . S
C244 O245 1.273 . S
O245 C244 1.273 . S
O246 Zn237 1.977 . S
O246 C239 1.267 . S
C247 O248 1.160 . S
C247 O254 1.185 . S
O248 C247 1.160 . S
O249 Zn250 1.899 . S
O249 C257 1.284 . S
Zn250 O249 1.899 . S
Zn250 O251 2.032 . S
Zn250 O254 2.086 . S
Zn250 O259 1.977 . S
O251 Zn250 2.032 . S
O251 C255 1.278 . S
C252 O253 1.203 . S
C252 O259 1.267 . S
O253 C252 1.203 . S
O254 C247 1.185 . S
O254 Zn250 2.086 . S
C255 O251 1.278 . S
C255 O256 1.211 . S
O256 C255 1.211 . S
C257 O249 1.284 . S
C257 O258 1.273 . S
O258 C257 1.273 . S
O259 Zn250 1.977 . S
O259 C252 1.267 . S
C260 O261 1.160 . S
C260 O267 1.185 . S
O261 C260 1.160 . S
O262 Zn263 1.899 . S
O262 C270 1.284 . S
Zn263 O262 1.899 . S
Zn263 O264 2.032 . S
Zn263 O267 2.086 . S
Zn263 O272 1.977 . S
O264 Zn263 2.032 . S
O264 C268 1.278 . S
C265 O266 1.203 . S
C265 O272 1.267 . S
O266 C265 1.203 . S
O267 C260 1.185 . S
O267 Zn263 2.086 . S
C268 O264 1.278 . S
C268 O269 1.211 . S
O269 C268 1.211 . S
C270 O262 1.284 . S
C270 O271 1.273 . S
O271 C270 1.273 . S
O272 Zn263 1.977 . S
O272 C265 1.267 . S
C273 O274 1.160 . S
C273 O280 1.185 . S
O274 C273 1.160 . S
O275 Zn276 1.899 . S
O275 C283 1.284 . S
Zn276 O275 1.899 . S
Zn276 O277 2.032 . S
Zn276 O280 2.086 . S
Zn276 O285 1.977 . S
O277 Zn276 2.032 . S
O277 C281 1.278 . S
C278 O279 1.203 . S
C278 O285 1.267 . S
O279 C278 1.203 . S
O280 C273 1.185 . S
O280 Zn276 2.086 . S
C281 O277 1.278 . S
C281 O282 1.211 . S
O282 C281 1.211 . S
C283 O275 1.284 . S
C283 O284 1.273 . S
O284 C283 1.273 . S
O285 Zn276 1.977 . S
O285 C278 1.267 . S
C286 O287 1.160 . S
C286 O293 1.185 . S
O287 C286 1.160 . S
O288 Zn289 1.899 . S
O288 C296 1.284 . S
Zn289 O288 1.899 . S
Zn289 O290 2.032 . S
Zn289 O293 2.086 . S
Zn289 O298 1.977 . S
O290 Zn289 2.032 . S
O290 C294 1.278 . S
C291 O292 1.203 . S
C291 O298 1.267 . S
O292 C291 1.203 . S
O293 C286 1.185 . S
O293 Zn289 2.086 . S
C294 O290 1.278 . S
C294 O295 1.211 . S
O295 C294 1.211 . S
C296 O288 1.284 . S
C296 O297 1.273 . S
O297 C296 1.273 . S
O298 Zn289 1.977 . S
O298 C291 1.267 . S
C299 O300 1.160 . S
C299 O306 1.185 . S
O300 C299 1.160 . S
O301 Zn302 1.899 . S
O301 C309 1.284 . S
Zn302 O301 1.899 . S
Zn302 O303 2.032 . S
Zn302 O306 2.086 . S
Zn302 O311 1.977 . S
O303 Zn302 2.032 . S
O303 C307 1.278 . S
C304 O305 1.203 . S
C304 O311 1.267 . S
O305 C304 1.203 . S
O306 C299 1.185 . S
O306 Zn302 2.086 . S
C307 O303 1.278 . S
C307 O308 1.211 . S
O308 C307 1.211 . S
C309 O301 1.284 . S
C309 O310 1.273 . S
O310 C309 1.273 . S
O311 Zn302 1.977 . S
O311 C304 1.267 . S
C312 O313 1.160 . S
C312 O319 1.185 . S
O313 C312 1.160 . S
O314 Zn315 1.899 . S
O314 C322 1.284 . S
Zn315 O314 1.899 . S
Zn315 O316 2.032 . S
Zn315 O319 2.086 . S
Zn315 O324 1.977 . S
O316 Zn315 2.032 . S
O316 C320 1.278 . S
C317 O318 1.203 . S
C317 O324 1.267 . S
O318 C317 1.203 . S
O319 C312 1.185 . S
O319 Zn315 2.086 . S
C320 O316 1.278 . S
C320 O321 1.211 . S
O321 C320 1.211 . S
C322 O314 1.284 . S
C322 O323 1.273 . S
O323 C322 1.273 . S
O324 Zn315 1.977 . S
O324 C317 1.267 . S
C325 O326 1.160 . S
C325 O332 1.185 . S
O326 C325 1.160 . S
O327 Zn328 1.899 . S
O327 C335 1.284 . S
Zn328 O327 1.899 . S
Zn328 O329 2.032 . S
Zn328 O332 2.086 . S
Zn328 O337 1.977 . S
O329 Zn328 2.032 . S
O329 C333 1.278 . S
C330 O331 1.203 . S
C330 O337 1.267 . S
O331 C330 1.203 . S
O332 C325 1.185 . S
O332 Zn328 2.086 . S
C333 O329 1.278 . S
C333 O334 1.211 . S
O334 C333 1.211 . S
C335 O327 1.284 . S
C335 O336 1.273 . S
O336 C335 1.273 . S
O337 Zn328 1.977 . S
O337 C330 1.267 . S
C338 O339 1.160 . S
C338 O345 1.185 . S
O339 C338 1.160 . S
O340 Zn341 1.899 . S
O340 C348 1.284 . S
Zn341 O340 1.899 . S
Zn341 O342 2.032 . S
Zn341 O345 2.086 . S
Zn341 O350 1.977 . S
O342 Zn341 2.032 . S
O342 C346 1.278 . S
C343 O344 1.203 . S
C343 O350 1.267 . S
O344 C343 1.203 . S
O345 C338 1.185 . S
O345 Zn341 2.086 . S
C346 O342 1.278 . S
C346 O347 1.211 . S
O347 C346 1.211 . S
C348 O340 1.284 . S
C348 O349 1.273 . S
O349 C348 1.273 . S
O350 Zn341 1.977 . S
O350 C343 1.267 . S
C351 O352 1.160 . S
C351 O358 1.185 . S
O352 C351 1.160 . S
O353 Zn354 1.899 . S
O353 C361 1.284 . S
Zn354 O353 1.899 . S
Zn354 O355 2.032 . S
Zn354 O358 2.086 . S
Zn354 O363 1.977 . S
O355 Zn354 2.032 . S
O355 C359 1.278 . S
C356 O357 1.203 . S
C356 O363 1.267 . S
O357 C356 1.203 . S
O358 C351 1.185 . S
O358 Zn354 2.086 . S
C359 O355 1.278 . S
C359 O360 1.211 . S
O360 C359 1.211 . S
C361 O353 1.284 . S
C361 O362 1.273 . S
O362 C361 1.273 . S
O363 Zn354 1.977 . S
O363 C356 1.267 . S
C364 O365 1.160 . S
C364 O371 1.185 . S
O365 C364 1.160 . S
O366 Zn367 1.899 . S
O366 C374 1.284 . S
Zn367 O366 1.899 . S
Zn367 O368 2.032 . S
Zn367 O371 2.086 . S
Zn367 O376 1.977 . S
O368 Zn367 2.032 . S
O368 C372 1.278 . S
C369 O370 1.203 . S
C369 O376 1.267 . S
O370 C369 1.203 . S
O371 C364 1.185 . S
O371 Zn367 2.086 . S
C372 O368 1.278 . S
C372 O373 1.211 . S
O373 C372 1.211 . S
C374 O366 1.284 . S
C374 O375 1.273 . S
O375 C374 1.273 . S
O376 Zn367 1.977 . S
O376 C369 1.267 . S
C377 O378 1.160 . S
C377 O384 1.185 . S
O378 C377 1.160 . S
O379 Zn380 1.899 . S
O379 C387 1.284 . S
Zn380 O379 1.899 . S
Zn380 O381 2.032 . S
Zn380 O384 2.086 . S
Zn380 O389 1.977 . S
O381 Zn380 2.032 . S
O381 C385 1.278 . S
C382 O383 1.203 . S
C382 O389 1.267 . S
O383 C382 1.203 . S
O384 C377 1.185 . S
O384 Zn380 2.086 . S
C385 O381 1.278 . S
C385 O386 1.211 . S
O386 C385 1.211 . S
C387 O379 1.284 . S
C387 O388 1.273 . S
O388 C387 1.273 . S
O389 Zn380 1.977 . S
O389 C382 1.267 . S
C390 O391 1.160 . S
C390 O397 1.185 . S
O391 C390 1.160 . S
O392 Zn393 1.899 . S
O392 C400 1.284 . S
Zn393 O392 1.899 . S
Zn393 O394 2.032 . S
Zn393 O397 2.086 . S
Zn393 O402 1.977 . S
O394 Zn393 2.032 . S
O394 C398 1.278 . S
C395 O396 1.203 . S
C395 O402 1.267 . S
O396 C395 1.203 . S
O397 C390 1.185 . S
O397 Zn393 2.086 . S
C398 O394 1.278 . S
C398 O399 1.211 . S
O399 C398 1.211 . S
C400 O392 1.284 . S
C400 O401 1.273 . S
O401 C400 1.273 . S
O402 Zn393 1.977 . S
O402 C395 1.267 . S
C403 O404 1.160 . S
C403 O410 1.185 . S
O404 C403 1.160 . S
O405 Zn406 1.899 . S
O405 C413 1.284 . S
Zn406 O405 1.899 . S
Zn406 O407 2.032 . S
Zn406 O410 2.086 . S
Zn406 O415 1.977 . S
O407 Zn406 2.032 . S
O407 C411 1.278 . S
C408 O409 1.203 . S
C408 O415 1.267 . S
O409 C408 1.203 . S
O410 C403 1.185 . S
O410 Zn406 2.086 . S
C411 O407 1.278 . S
C411 O412 1.211 . S
O412 C411 1.211 . S
C413 O405 1.284 . S
C413 O414 1.273 . S
O414 C413 1.273 . S
O415 Zn406 1.977 . S
O415 C408 1.267 . S
C416 C417 1.349 . S
C416 C418 1.327 . S
C416 H441 0.950 . S
C417 C416 1.349 . S
C417 C433 1.349 . S
C418 C416 1.327 . S
C418 C437 1.429 . S
C418 H442 0.950 . S
C419 C436 1.574 . S
C419 C438 1.368 . S
C419 H443 0.949 . S
H420 C424 0.949 . S
C421 C422 1.349 . S
C421 C423 1.327 . S
C421 H444 0.950 . S
C422 C421 1.349 . S
C422 C434 1.349 . S
C423 C421 1.327 . S
C423 C439 1.429 . S
C423 H445 0.950 . S
C424 H420 0.949 . S
C424 C432 1.574 . S
C424 C440 1.368 . S
H425 C433 0.950 . S
H426 C431 0.950 . S
H427 C432 0.949 . S
H428 C434 0.950 . S
H429 C435 0.950 . S
H430 C436 0.949 . S
C431 H426 0.950 . S
C431 C433 1.327 . S
C431 C437 1.429 . S
C432 C424 1.574 . S
C432 H427 0.949 . S
C432 C438 1.368 . S
C433 C417 1.349 . S
C433 H425 0.950 . S
C433 C431 1.327 . S
C434 C422 1.349 . S
C434 H428 0.950 . S
C434 C435 1.327 . S
C435 H429 0.950 . S
C435 C434 1.327 . S
C435 C439 1.429 . S
C436 C419 1.574 . S
C436 H430 0.949 . S
C436 C440 1.368 . S
C437 C418 1.429 . S
C437 C431 1.429 . S
C437 C438 1.523 . S
C438 C419 1.368 . S
C438 C432 1.368 . S
C438 C437 1.523 . S
C439 C423 1.429 . S
C439 C435 1.429 . S
C439 C440 1.523 . S
C440 C424 1.368 . S
C440 C436 1.368 . S
C440 C439 1.523 . S
H441 C416 0.950 . S
H442 C418 0.950 . S
H443 C419 0.949 . S
H444 C421 0.950 . S
H445 C423 0.950 . S
C446 C447 1.349 . S
C446 C448 1.327 . S
C446 H471 0.950 . S
C447 C446 1.349 . S
C447 C463 1.349 . S
C448 C446 1.327 . S
C448 C467 1.429 . S
C448 H472 0.950 . S
C449 C466 1.574 1_565 S
C449 C468 1.368 . S
C449 H473 0.949 . S
H450 C454 0.949 . S
C451 C452 1.349 . S
C451 C453 1.327 . S
C451 H474 0.950 . S
C452 C451 1.349 . S
C452 C464 1.349 . S
C453 C451 1.327 . S
C453 C469 1.429 . S
C453 H475 0.950 . S
C454 H450 0.949 . S
C454 C462 1.574 1_545 S
C454 C470 1.368 . S
H455 C463 0.950 . S
H456 C461 0.950 . S
H457 C462 0.949 . S
H458 C464 0.950 . S
H459 C465 0.950 . S
H460 C466 0.949 . S
C461 H456 0.950 . S
C461 C463 1.327 . S
C461 C467 1.429 . S
C462 C454 1.574 1_565 S
C462 H457 0.949 . S
C462 C468 1.368 . S
C463 C447 1.349 . S
C463 H455 0.950 . S
C463 C461 1.327 . S
C464 C452 1.349 . S
C464 H458 0.950 . S
C464 C465 1.327 . S
C465 H459 0.950 . S
C465 C464 1.327 . S
C465 C469 1.429 . S
C466 C449 1.574 1_545 S
C466 H460 0.949 . S
C466 C470 1.368 . S
C467 C448 1.429 . S
C467 C461 1.429 . S
C467 C468 1.523 . S
C468 C449 1.368 . S
C468 C462 1.368 . S
C468 C467 1.523 . S
C469 C453 1.429 . S
C469 C465 1.429 . S
C469 C470 1.523 . S
C470 C454 1.368 . S
C470 C466 1.368 . S
C470 C469 1.523 . S
H471 C446 0.950 . S
H472 C448 0.950 . S
H473 C449 0.949 . S
H474 C451 0.950 . S
H475 C453 0.950 . S
C476 C477 1.349 . S
C476 C478 1.327 . S
C476 H501 0.950 . S
C477 C476 1.349 . S
C477 C493 1.349 . S
C478 C476 1.327 . S
C478 C497 1.429 . S
C478 H502 0.950 . S
C479 C496 1.574 . S
C479 C498 1.368 . S
C479 H503 0.949 . S
H480 C484 0.949 . S
C481 C482 1.349 . S
C481 C483 1.327 . S
C481 H504 0.950 . S
C482 C481 1.349 . S
C482 C494 1.349 . S
C483 C481 1.327 . S
C483 C499 1.429 . S
C483 H505 0.950 . S
C484 H480 0.949 . S
C484 C492 1.574 . S
C484 C500 1.368 . S
H485 C493 0.950 . S
H486 C491 0.950 . S
H487 C492 0.949 . S
H488 C494 0.950 . S
H489 C495 0.950 . S
H490 C496 0.949 . S
C491 H486 0.950 . S
C491 C493 1.327 . S
C491 C497 1.429 . S
C492 C484 1.574 . S
C492 H487 0.949 . S
C492 C498 1.368 . S
C493 C477 1.349 . S
C493 H485 0.950 . S
C493 C491 1.327 . S
C494 C482 1.349 . S
C494 H488 0.950 . S
C494 C495 1.327 . S
C495 H489 0.950 . S
C495 C494 1.327 . S
C495 C499 1.429 . S
C496 C479 1.574 . S
C496 H490 0.949 . S
C496 C500 1.368 . S
C497 C478 1.429 . S
C497 C491 1.429 . S
C497 C498 1.523 . S
C498 C479 1.368 . S
C498 C492 1.368 . S
C498 C497 1.523 . S
C499 C483 1.429 . S
C499 C495 1.429 . S
C499 C500 1.523 . S
C500 C484 1.368 . S
C500 C496 1.368 . S
C500 C499 1.523 . S
H501 C476 0.950 . S
H502 C478 0.950 . S
H503 C479 0.949 . S
H504 C481 0.950 . S
H505 C483 0.950 . S
C506 C507 1.349 . S
C506 C508 1.327 . S
C506 H531 0.950 . S
C507 C506 1.349 . S
C507 C523 1.349 . S
C508 C506 1.327 . S
C508 C527 1.429 . S
C508 H532 0.950 1_556 S
C509 C526 1.574 1_545 S
C509 C528 1.368 . S
C509 H533 0.949 . S
H510 C514 0.949 . S
C511 C512 1.349 . S
C511 C513 1.327 . S
C511 H534 0.950 . S
C512 C511 1.349 . S
C512 C524 1.349 . S
C513 C511 1.327 . S
C513 C529 1.429 . S
C513 H535 0.950 1_554 S
C514 H510 0.949 . S
C514 C522 1.574 1_565 S
C514 C530 1.368 . S
H515 C523 0.950 . S
H516 C521 0.950 . S
H517 C522 0.949 . S
H518 C524 0.950 . S
H519 C525 0.950 . S
H520 C526 0.949 . S
C521 H516 0.950 . S
C521 C523 1.327 . S
C521 C527 1.429 . S
C522 C514 1.574 1_545 S
C522 H517 0.949 . S
C522 C528 1.368 1_554 S
C523 C507 1.349 . S
C523 H515 0.950 . S
C523 C521 1.327 . S
C524 C512 1.349 . S
C524 H518 0.950 . S
C524 C525 1.327 . S
C525 H519 0.950 . S
C525 C524 1.327 . S
C525 C529 1.429 . S
C526 C509 1.574 1_565 S
C526 H520 0.949 . S
C526 C530 1.368 1_556 S
C527 C508 1.429 . S
C527 C521 1.429 . S
C527 C528 1.523 . S
C528 C509 1.368 . S
C528 C522 1.368 1_556 S
C528 C527 1.523 . S
C529 C513 1.429 . S
C529 C525 1.429 . S
C529 C530 1.523 . S
C530 C514 1.368 . S
C530 C526 1.368 1_554 S
C530 C529 1.523 . S
H531 C506 0.950 . S
H532 C508 0.950 1_554 S
H533 C509 0.949 . S
H534 C511 0.950 . S
H535 C513 0.950 1_556 S
C536 C537 1.349 . S
C536 C538 1.327 . S
C536 H561 0.950 . S
C537 C536 1.349 . S
C537 C553 1.349 . S
C538 C536 1.327 . S
C538 C557 1.429 . S
C538 H562 0.950 . S
C539 C556 1.574 . S
C539 C558 1.368 . S
C539 H563 0.949 . S
H540 C544 0.949 . S
C541 C542 1.349 . S
C541 C543 1.327 . S
C541 H564 0.950 . S
C542 C541 1.349 . S
C542 C554 1.349 . S
C543 C541 1.327 . S
C543 C559 1.429 . S
C543 H565 0.950 . S
C544 H540 0.949 . S
C544 C552 1.574 . S
C544 C560 1.368 . S
H545 C553 0.950 . S
H546 C551 0.950 . S
H547 C552 0.949 . S
H548 C554 0.950 . S
H549 C555 0.950 . S
H550 C556 0.949 . S
C551 H546 0.950 . S
C551 C553 1.327 . S
C551 C557 1.429 . S
C552 C544 1.574 . S
C552 H547 0.949 . S
C552 C558 1.368 . S
C553 C537 1.349 . S
C553 H545 0.950 . S
C553 C551 1.327 . S
C554 C542 1.349 . S
C554 H548 0.950 . S
C554 C555 1.327 . S
C555 H549 0.950 . S
C555 C554 1.327 . S
C555 C559 1.429 . S
C556 C539 1.574 . S
C556 H550 0.949 . S
C556 C560 1.368 . S
C557 C538 1.429 . S
C557 C551 1.429 . S
C557 C558 1.523 . S
C558 C539 1.368 . S
C558 C552 1.368 . S
C558 C557 1.523 . S
C559 C543 1.429 . S
C559 C555 1.429 . S
C559 C560 1.523 . S
C560 C544 1.368 . S
C560 C556 1.368 . S
C560 C559 1.523 . S
H561 C536 0.950 . S
H562 C538 0.950 . S
H563 C539 0.949 . S
H564 C541 0.950 . S
H565 C543 0.950 . S
C566 C567 1.349 . S
C566 C568 1.327 . S
C566 H591 0.950 . S
C567 C566 1.349 . S
C567 C583 1.349 . S
C568 C566 1.327 . S
C568 C587 1.429 . S
C568 H592 0.950 . S
C569 C586 1.574 1_565 S
C569 C588 1.368 . S
C569 H593 0.949 . S
H570 C574 0.949 . S
C571 C572 1.349 . S
C571 C573 1.327 . S
C571 H594 0.950 . S
C572 C571 1.349 . S
C572 C584 1.349 . S
C573 C571 1.327 . S
C573 C589 1.429 . S
C573 H595 0.950 . S
C574 H570 0.949 . S
C574 C582 1.574 1_545 S
C574 C590 1.368 . S
H575 C583 0.950 . S
H576 C581 0.950 . S
H577 C582 0.949 . S
H578 C584 0.950 . S
H579 C585 0.950 . S
H580 C586 0.949 . S
C581 H576 0.950 . S
C581 C583 1.327 . S
C581 C587 1.429 . S
C582 C574 1.574 1_565 S
C582 H577 0.949 . S
C582 C588 1.368 . S
C583 C567 1.349 . S
C583 H575 0.950 . S
C583 C581 1.327 . S
C584 C572 1.349 . S
C584 H578 0.950 . S
C584 C585 1.327 . S
C585 H579 0.950 . S
C585 C584 1.327 . S
C585 C589 1.429 . S
C586 C569 1.574 1_545 S
C586 H580 0.949 . S
C586 C590 1.368 . S
C587 C568 1.429 . S
C587 C581 1.429 . S
C587 C588 1.523 . S
C588 C569 1.368 . S
C588 C582 1.368 . S
C588 C587 1.523 . S
C589 C573 1.429 . S
C589 C585 1.429 . S
C589 C590 1.523 . S
C590 C574 1.368 . S
C590 C586 1.368 . S
C590 C589 1.523 . S
H591 C566 0.950 . S
H592 C568 0.950 . S
H593 C569 0.949 . S
H594 C571 0.950 . S
H595 C573 0.950 . S
C596 C597 1.349 . S
C596 C598 1.327 . S
C596 H621 0.950 . S
C597 C596 1.349 . S
C597 C613 1.349 . S
C598 C596 1.327 . S
C598 C617 1.429 . S
C598 H622 0.950 . S
C599 C616 1.574 . S
C599 C618 1.368 . S
C599 H623 0.949 . S
H600 C604 0.949 . S
C601 C602 1.349 . S
C601 C603 1.327 . S
C601 H624 0.950 . S
C602 C601 1.349 . S
C602 C614 1.349 . S
C603 C601 1.327 . S
C603 C619 1.429 . S
C603 H625 0.950 . S
C604 H600 0.949 . S
C604 C612 1.574 . S
C604 C620 1.368 . S
H605 C613 0.950 . S
H606 C611 0.950 . S
H607 C612 0.949 . S
H608 C614 0.950 . S
H609 C615 0.950 . S
H610 C616 0.949 . S
C611 H606 0.950 . S
C611 C613 1.327 . S
C611 C617 1.429 . S
C612 C604 1.574 . S
C612 H607 0.949 . S
C612 C618 1.368 . S
C613 C597 1.349 . S
C613 H605 0.950 . S
C613 C611 1.327 . S
C614 C602 1.349 . S
C614 H608 0.950 . S
C614 C615 1.327 . S
C615 H609 0.950 . S
C615 C614 1.327 . S
C615 C619 1.429 . S
C616 C599 1.574 . S
C616 H610 0.949 . S
C616 C620 1.368 . S
C617 C598 1.429 . S
C617 C611 1.429 . S
C617 C618 1.523 . S
C618 C599 1.368 . S
C618 C612 1.368 . S
C618 C617 1.523 . S
C619 C603 1.429 . S
C619 C615 1.429 . S
C619 C620 1.523 . S
C620 C604 1.368 . S
C620 C616 1.368 . S
C620 C619 1.523 . S
H621 C596 0.950 . S
H622 C598 0.950 . S
H623 C599 0.949 . S
H624 C601 0.950 . S
H625 C603 0.950 . S
C626 C627 1.349 . S
C626 C628 1.327 . S
C626 H651 0.950 . S
C627 C626 1.349 . S
C627 C643 1.349 . S
C628 C626 1.327 . S
C628 C647 1.429 . S
C628 H652 0.950 . S
C629 C646 1.574 1_546 S
C629 C648 1.368 . S
C629 H653 0.949 . S
H630 C634 0.949 . S
C631 C632 1.349 . S
C631 C633 1.327 . S
C631 H654 0.950 . S
C632 C631 1.349 . S
C632 C644 1.349 . S
C633 C631 1.327 . S
C633 C649 1.429 . S
C633 H655 0.950 . S
C634 H630 0.949 . S
C634 C642 1.574 1_564 S
C634 C650 1.368 . S
H635 C643 0.950 . S
H636 C641 0.950 . S
H637 C642 0.949 . S
H638 C644 0.950 . S
H639 C645 0.950 . S
H640 C646 0.949 . S
C641 H636 0.950 . S
C641 C643 1.327 . S
C641 C647 1.429 . S
C642 C634 1.574 1_546 S
C642 H637 0.949 . S
C642 C648 1.368 . S
C643 C627 1.349 . S
C643 H635 0.950 . S
C643 C641 1.327 . S
C644 C632 1.349 . S
C644 H638 0.950 . S
C644 C645 1.327 . S
C645 H639 0.950 . S
C645 C644 1.327 . S
C645 C649 1.429 . S
C646 C629 1.574 1_564 S
C646 H640 0.949 . S
C646 C650 1.368 . S
C647 C628 1.429 . S
C647 C641 1.429 . S
C647 C648 1.523 . S
C648 C629 1.368 . S
C648 C642 1.368 . S
C648 C647 1.523 . S
C649 C633 1.429 . S
C649 C645 1.429 . S
C649 C650 1.523 . S
C650 C634 1.368 . S
C650 C646 1.368 . S
C650 C649 1.523 . S
H651 C626 0.950 . S
H652 C628 0.950 . S
H653 C629 0.949 . S
H654 C631 0.950 . S
H655 C633 0.950 . S
C656 C657 1.349 . S
C656 C658 1.327 . S
C656 H681 0.950 . S
C657 C656 1.349 . S
C657 C673 1.349 . S
C658 C656 1.327 . S
C658 C677 1.429 . S
C658 H682 0.950 . S
C659 C676 1.574 . S
C659 C678 1.368 . S
C659 H683 0.949 . S
H660 C664 0.949 . S
C661 C662 1.349 . S
C661 C663 1.327 . S
C661 H684 0.950 . S
C662 C661 1.349 . S
C662 C674 1.349 . S
C663 C661 1.327 . S
C663 C679 1.429 . S
C663 H685 0.950 . S
C664 H660 0.949 . S
C664 C672 1.574 . S
C664 C680 1.368 . S
H665 C673 0.950 . S
H666 C671 0.950 . S
H667 C672 0.949 . S
H668 C674 0.950 . S
H669 C675 0.950 . S
H670 C676 0.949 . S
C671 H666 0.950 . S
C671 C673 1.327 . S
C671 C677 1.429 . S
C672 C664 1.574 . S
C672 H667 0.949 . S
C672 C678 1.368 . S
C673 C657 1.349 . S
C673 H665 0.950 . S
C673 C671 1.327 . S
C674 C662 1.349 . S
C674 H668 0.950 . S
C674 C675 1.327 . S
C675 H669 0.950 . S
C675 C674 1.327 . S
C675 C679 1.429 . S
C676 C659 1.574 . S
C676 H670 0.949 . S
C676 C680 1.368 . S
C677 C658 1.429 . S
C677 C671 1.429 . S
C677 C678 1.523 . S
C678 C659 1.368 . S
C678 C672 1.368 . S
C678 C677 1.523 . S
C679 C663 1.429 . S
C679 C675 1.429 . S
C679 C680 1.523 . S
C680 C664 1.368 . S
C680 C676 1.368 . S
C680 C679 1.523 . S
H681 C656 0.950 . S
H682 C658 0.950 . S
H683 C659 0.949 . S
H684 C661 0.950 . S
H685 C663 0.950 . S
C686 C687 1.349 . S
C686 C688 1.327 . S
C686 H711 0.950 . S
C687 C686 1.349 . S
C687 C703 1.349 . S
C688 C686 1.327 . S
C688 C707 1.429 . S
C688 H712 0.950 . S
C689 C706 1.574 . S
C689 C708 1.368 1_554 S
C689 H713 0.949 . S
H690 C694 0.949 . S
C691 C692 1.349 . S
C691 C693 1.327 . S
C691 H714 0.950 . S
C692 C691 1.349 . S
C692 C704 1.349 . S
C693 C691 1.327 . S
C693 C709 1.429 . S
C693 H715 0.950 . S
C694 H690 0.949 . S
C694 C702 1.574 . S
C694 C710 1.368 1_556 S
H695 C703 0.950 . S
H696 C701 0.950 1_554 S
H697 C702 0.949 . S
H698 C704 0.950 . S
H699 C705 0.950 1_556 S
H700 C706 0.949 . S
C701 H696 0.950 1_556 S
C701 C703 1.327 . S
C701 C707 1.429 . S
C702 C694 1.574 . S
C702 H697 0.949 . S
C702 C708 1.368 . S
C703 C687 1.349 . S
C703 H695 0.950 . S
C703 C701 1.327 . S
C704 C692 1.349 . S
C704 H698 0.950 . S
C704 C705 1.327 . S
C705 H699 0.950 1_554 S
C705 C704 1.327 . S
C705 C709 1.429 . S
C706 C689 1.574 . S
C706 H700 0.949 . S
C706 C710 1.368 . S
C707 C688 1.429 . S
C707 C701 1.429 . S
C707 C708 1.523 . S
C708 C689 1.368 1_556 S
C708 C702 1.368 . S
C708 C707 1.523 . S
C709 C693 1.429 . S
C709 C705 1.429 . S
C709 C710 1.523 . S
C710 C694 1.368 1_554 S
C710 C706 1.368 . S
C710 C709 1.523 . S
H711 C686 0.950 . S
H712 C688 0.950 . S
H713 C689 0.949 . S
H714 C691 0.950 . S
H715 C693 0.950 . S
C716 C717 1.349 . S
C716 C718 1.327 . S
C716 H741 0.950 . S
C717 C716 1.349 . S
C717 C733 1.349 . S
C718 C716 1.327 . S
C718 C737 1.429 . S
C718 H742 0.950 . S
C719 C736 1.574 . S
C719 C738 1.368 . S
C719 H743 0.949 . S
H720 C724 0.949 . S
C721 C722 1.349 . S
C721 C723 1.327 . S
C721 H744 0.950 . S
C722 C721 1.349 . S
C722 C734 1.349 . S
C723 C721 1.327 . S
C723 C739 1.429 . S
C723 H745 0.950 . S
C724 H720 0.949 . S
C724 C732 1.574 . S
C724 C740 1.368 . S
H725 C733 0.950 . S
H726 C731 0.950 . S
H727 C732 0.949 . S
H728 C734 0.950 . S
H729 C735 0.950 . S
H730 C736 0.949 . S
C731 H726 0.950 . S
C731 C733 1.327 . S
C731 C737 1.429 . S
C732 C724 1.574 . S
C732 H727 0.949 . S
C732 C738 1.368 . S
C733 C717 1.349 . S
C733 H725 0.950 . S
C733 C731 1.327 . S
C734 C722 1.349 . S
C734 H728 0.950 . S
C734 C735 1.327 . S
C735 H729 0.950 . S
C735 C734 1.327 . S
C735 C739 1.429 . S
C736 C719 1.574 . S
C736 H730 0.949 . S
C736 C740 1.368 . S
C737 C718 1.429 . S
C737 C731 1.429 . S
C737 C738 1.523 . S
C738 C719 1.368 . S
C738 C732 1.368 . S
C738 C737 1.523 . S
C739 C723 1.429 . S
C739 C735 1.429 . S
C739 C740 1.523 . S
C740 C724 1.368 . S
C740 C736 1.368 . S
C740 C739 1.523 . S
H741 C716 0.950 . S
H742 C718 0.950 . S
H743 C719 0.949 . S
H744 C721 0.950 . S
H745 C723 0.950 . S
C746 C747 1.349 . S
C746 C748 1.327 . S
C746 H771 0.950 . S
C747 C746 1.349 . S
C747 C763 1.349 . S
C748 C746 1.327 . S
C748 C767 1.429 . S
C748 H772 0.950 . S
C749 C766 1.574 . S
C749 C768 1.368 . S
C749 H773 0.949 . S
H750 C754 0.949 . S
C751 C752 1.349 . S
C751 C753 1.327 . S
C751 H774 0.950 . S
C752 C751 1.349 . S
C752 C764 1.349 . S
C753 C751 1.327 . S
C753 C769 1.429 . S
C753 H775 0.950 . S
C754 H750 0.949 . S
C754 C762 1.574 . S
C754 C770 1.368 . S
H755 C763 0.950 . S
H756 C761 0.950 . S
H757 C762 0.949 . S
H758 C764 0.950 . S
H759 C765 0.950 . S
H760 C766 0.949 . S
C761 H756 0.950 . S
C761 C763 1.327 . S
C761 C767 1.429 . S
C762 C754 1.574 . S
C762 H757 0.949 . S
C762 C768 1.368 . S
C763 C747 1.349 . S
C763 H755 0.950 . S
C763 C761 1.327 . S
C764 C752 1.349 . S
C764 H758 0.950 . S
C764 C765 1.327 . S
C765 H759 0.950 . S
C765 C764 1.327 . S
C765 C769 1.429 . S
C766 C749 1.574 . S
C766 H760 0.949 . S
C766 C770 1.368 . S
C767 C748 1.429 . S
C767 C761 1.429 . S
C767 C768 1.523 . S
C768 C749 1.368 . S
C768 C762 1.368 . S
C768 C767 1.523 . S
C769 C753 1.429 . S
C769 C765 1.429 . S
C769 C770 1.523 . S
C770 C754 1.368 . S
C770 C766 1.368 . S
C770 C769 1.523 . S
H771 C746 0.950 . S
H772 C748 0.950 . S
H773 C749 0.949 . S
H774 C751 0.950 . S
H775 C753 0.950 . S
C776 C777 1.349 . S
C776 C778 1.327 . S
C776 H801 0.950 . S
C777 C776 1.349 . S
C777 C793 1.349 . S
C778 C776 1.327 . S
C778 C797 1.429 . S
C778 H802 0.950 . S
C779 C796 1.574 . S
C779 C798 1.368 . S
C779 H803 0.949 . S
H780 C784 0.949 . S
C781 C782 1.349 . S
C781 C783 1.327 . S
C781 H804 0.950 . S
C782 C781 1.349 . S
C782 C794 1.349 . S
C783 C781 1.327 . S
C783 C799 1.429 . S
C783 H805 0.950 . S
C784 H780 0.949 . S
C784 C792 1.574 . S
C784 C800 1.368 . S
H785 C793 0.950 . S
H786 C791 0.950 . S
H787 C792 0.949 . S
H788 C794 0.950 . S
H789 C795 0.950 . S
H790 C796 0.949 . S
C791 H786 0.950 . S
C791 C793 1.327 . S
C791 C797 1.429 . S
C792 C784 1.574 . S
C792 H787 0.949 . S
C792 C798 1.368 . S
C793 C777 1.349 . S
C793 H785 0.950 . S
C793 C791 1.327 . S
C794 C782 1.349 . S
C794 H788 0.950 . S
C794 C795 1.327 . S
C795 H789 0.950 . S
C795 C794 1.327 . S
C795 C799 1.429 . S
C796 C779 1.574 . S
C796 H790 0.949 . S
C796 C800 1.368 . S
C797 C778 1.429 . S
C797 C791 1.429 . S
C797 C798 1.523 . S
C798 C779 1.368 . S
C798 C792 1.368 . S
C798 C797 1.523 . S
C799 C783 1.429 . S
C799 C795 1.429 . S
C799 C800 1.523 . S
C800 C784 1.368 . S
C800 C796 1.368 . S
C800 C799 1.523 . S
H801 C776 0.950 . S
H802 C778 0.950 . S
H803 C779 0.949 . S
H804 C781 0.950 . S
H805 C783 0.950 . S
C806 C807 1.349 . S
C806 C808 1.327 . S
C806 H831 0.950 . S
C807 C806 1.349 . S
C807 C823 1.349 . S
C808 C806 1.327 . S
C808 C827 1.429 . S
C808 H832 0.950 1_554 S
C809 C826 1.574 . S
C809 C828 1.368 . S
C809 H833 0.949 . S
H810 C814 0.949 . S
C811 C812 1.349 . S
C811 C813 1.327 . S
C811 H834 0.950 . S
C812 C811 1.349 . S
C812 C824 1.349 . S
C813 C811 1.327 . S
C813 C829 1.429 . S
C813 H835 0.950 1_556 S
C814 H810 0.949 . S
C814 C822 1.574 . S
C814 C830 1.368 . S
H815 C823 0.950 . S
H816 C821 0.950 . S
H817 C822 0.949 . S
H818 C824 0.950 . S
H819 C825 0.950 . S
H820 C826 0.949 . S
C821 H816 0.950 . S
C821 C823 1.327 . S
C821 C827 1.429 . S
C822 C814 1.574 . S
C822 H817 0.949 . S
C822 C828 1.368 1_556 S
C823 C807 1.349 . S
C823 H815 0.950 . S
C823 C821 1.327 . S
C824 C812 1.349 . S
C824 H818 0.950 . S
C824 C825 1.327 . S
C825 H819 0.950 . S
C825 C824 1.327 . S
C825 C829 1.429 . S
C826 C809 1.574 . S
C826 H820 0.949 . S
C826 C830 1.368 1_554 S
C827 C808 1.429 . S
C827 C821 1.429 . S
C827 C828 1.523 . S
C828 C809 1.368 . S
C828 C822 1.368 1_554 S
C828 C827 1.523 . S
C829 C813 1.429 . S
C829 C825 1.429 . S
C829 C830 1.523 . S
C830 C814 1.368 . S
C830 C826 1.368 1_556 S
C830 C829 1.523 . S
H831 C806 0.950 . S
H832 C808 0.950 1_556 S
H833 C809 0.949 . S
H834 C811 0.950 . S
H835 C813 0.950 1_554 S
C836 C837 1.349 . S
C836 C838 1.327 . S
C836 H861 0.950 . S
C837 C836 1.349 . S
C837 C853 1.349 . S
C838 C836 1.327 . S
C838 C857 1.429 . S
C838 H862 0.950 . S
C839 C856 1.574 . S
C839 C858 1.368 . S
C839 H863 0.949 . S
H840 C844 0.949 . S
C841 C842 1.349 . S
C841 C843 1.327 . S
C841 H864 0.950 . S
C842 C841 1.349 . S
C842 C854 1.349 . S
C843 C841 1.327 . S
C843 C859 1.429 . S
C843 H865 0.950 . S
C844 H840 0.949 . S
C844 C852 1.574 . S
C844 C860 1.368 . S
H845 C853 0.950 . S
H846 C851 0.950 . S
H847 C852 0.949 . S
H848 C854 0.950 . S
H849 C855 0.950 . S
H850 C856 0.949 . S
C851 H846 0.950 . S
C851 C853 1.327 . S
C851 C857 1.429 . S
C852 C844 1.574 . S
C852 H847 0.949 . S
C852 C858 1.368 . S
C853 C837 1.349 . S
C853 H845 0.950 . S
C853 C851 1.327 . S
C854 C842 1.349 . S
C854 H848 0.950 . S
C854 C855 1.327 . S
C855 H849 0.950 . S
C855 C854 1.327 . S
C855 C859 1.429 . S
C856 C839 1.574 . S
C856 H850 0.949 . S
C856 C860 1.368 . S
C857 C838 1.429 . S
C857 C851 1.429 . S
C857 C858 1.523 . S
C858 C839 1.368 . S
C858 C852 1.368 . S
C858 C857 1.523 . S
C859 C843 1.429 . S
C859 C855 1.429 . S
C859 C860 1.523 . S
C860 C844 1.368 . S
C860 C856 1.368 . S
C860 C859 1.523 . S
H861 C836 0.950 . S
H862 C838 0.950 . S
H863 C839 0.949 . S
H864 C841 0.950 . S
H865 C843 0.950 . S
C866 C867 1.349 . S
C866 C868 1.327 . S
C866 H891 0.950 . S
C867 C866 1.349 . S
C867 C883 1.349 . S
C868 C866 1.327 . S
C868 C887 1.429 . S
C868 H892 0.950 . S
C869 C886 1.574 . S
C869 C888 1.368 . S
C869 H893 0.949 . S
H870 C874 0.949 . S
C871 C872 1.349 . S
C871 C873 1.327 . S
C871 H894 0.950 . S
C872 C871 1.349 . S
C872 C884 1.349 . S
C873 C871 1.327 . S
C873 C889 1.429 . S
C873 H895 0.950 . S
C874 H870 0.949 . S
C874 C882 1.574 . S
C874 C890 1.368 . S
H875 C883 0.950 . S
H876 C881 0.950 . S
H877 C882 0.949 . S
H878 C884 0.950 . S
H879 C885 0.950 . S
H880 C886 0.949 . S
C881 H876 0.950 . S
C881 C883 1.327 . S
C881 C887 1.429 . S
C882 C874 1.574 . S
C882 H877 0.949 . S
C882 C888 1.368 . S
C883 C867 1.349 . S
C883 H875 0.950 . S
C883 C881 1.327 . S
C884 C872 1.349 . S
C884 H878 0.950 . S
C884 C885 1.327 . S
C885 H879 0.950 . S
C885 C884 1.327 . S
C885 C889 1.429 . S
C886 C869 1.574 . S
C886 H880 0.949 . S
C886 C890 1.368 . S
C887 C868 1.429 . S
C887 C881 1.429 . S
C887 C888 1.523 . S
C888 C869 1.368 . S
C888 C882 1.368 . S
C888 C887 1.523 . S
C889 C873 1.429 . S
C889 C885 1.429 . S
C889 C890 1.523 . S
C890 C874 1.368 . S
C890 C886 1.368 . S
C890 C889 1.523 . S
H891 C866 0.950 . S
H892 C868 0.950 . S
H893 C869 0.949 . S
H894 C871 0.950 . S
H895 C873 0.950 . S
C896 C897 1.349 . S
C896 C898 1.327 1_554 S
C896 H921 0.950 . S
C897 C896 1.349 . S
C897 C913 1.349 1_554 S
C898 C896 1.327 1_556 S
C898 C917 1.429 . S
C898 H922 0.950 . S
C899 C916 1.574 . S
C899 C918 1.368 . S
C899 H923 0.949 . S
H900 C904 0.949 . S
C901 C902 1.349 . S
C901 C903 1.327 . S
C901 H924 0.950 . S
C902 C901 1.349 . S
C902 C914 1.349 . S
C903 C901 1.327 . S
C903 C919 1.429 . S
C903 H925 0.950 . S
C904 H900 0.949 . S
C904 C912 1.574 . S
C904 C920 1.368 . S
H905 C913 0.950 . S
H906 C911 0.950 . S
H907 C912 0.949 . S
H908 C914 0.950 . S
H909 C915 0.950 . S
H910 C916 0.949 . S
C911 H906 0.950 . S
C911 C913 1.327 . S
C911 C917 1.429 . S
C912 C904 1.574 . S
C912 H907 0.949 . S
C912 C918 1.368 . S
C913 C897 1.349 1_556 S
C913 H905 0.950 . S
C913 C911 1.327 . S
C914 C902 1.349 . S
C914 H908 0.950 . S
C914 C915 1.327 . S
C915 H909 0.950 . S
C915 C914 1.327 . S
C915 C919 1.429 . S
C916 C899 1.574 . S
C916 H910 0.949 . S
C916 C920 1.368 . S
C917 C898 1.429 . S
C917 C911 1.429 . S
C917 C918 1.523 . S
C918 C899 1.368 . S
C918 C912 1.368 . S
C918 C917 1.523 . S
C919 C903 1.429 . S
C919 C915 1.429 . S
C919 C920 1.523 . S
C920 C904 1.368 . S
C920 C916 1.368 . S
C920 C919 1.523 . S
H921 C896 0.950 . S
H922 C898 0.950 . S
H923 C899 0.949 . S
H924 C901 0.950 . S
H925 C903 0.950 . S
C926 C927 1.349 1_554 S
C926 C928 1.327 . S
C926 H951 0.950 . S
C927 C926 1.349 1_556 S
C927 C943 1.349 . S
C928 C926 1.327 . S
C928 C947 1.429 . S
C928 H952 0.950 . S
C929 C946 1.574 . S
C929 C948 1.368 . S
C929 H953 0.949 . S
H930 C934 0.949 . S
C931 C932 1.349 . S
C931 C933 1.327 . S
C931 H954 0.950 . S
C932 C931 1.349 . S
C932 C944 1.349 . S
C933 C931 1.327 . S
C933 C949 1.429 . S
C933 H955 0.950 . S
C934 H930 0.949 . S
C934 C942 1.574 . S
C934 C950 1.368 . S
H935 C943 0.950 . S
H936 C941 0.952 . S
H937 C942 0.949 . S
H938 C944 0.950 . S
H939 C945 0.950 . S
H940 C946 0.949 . S
C941 H936 0.952 . S
C941 C943 1.327 1_554 S
C941 C947 1.429 . S
C942 C934 1.574 . S
C942 H937 0.949 . S
C942 C948 1.368 . S
C943 C927 1.349 . S
C943 H935 0.950 . S
C943 C941 1.327 1_556 S
C944 C932 1.349 . S
C944 H938 0.950 . S
C944 C945 1.327 . S
C945 H939 0.950 . S
C945 C944 1.327 . S
C945 C949 1.429 . S
C946 C929 1.574 . S
C946 H940 0.949 . S
C946 C950 1.368 . S
C947 C928 1.429 . S
C947 C941 1.429 . S
C947 C948 1.523 . S
C948 C929 1.368 . S
C948 C942 1.368 . S
C948 C947 1.523 . S
C949 C933 1.429 . S
C949 C945 1.429 . S
C949 C950 1.523 . S
C950 C934 1.368 . S
C950 C946 1.368 . S
C950 C949 1.523 . S
H951 C926 0.950 . S
H952 C928 0.950 . S
H953 C929 0.949 . S
H954 C931 0.950 . S
H955 C933 0.950 . S
C956 C957 1.349 . S
C956 C958 1.327 . S
C956 H981 0.950 . S
C957 C956 1.349 . S
C957 C973 1.349 . S
C958 C956 1.327 . S
C958 C977 1.429 . S
C958 H982 0.950 . S
C959 C976 1.574 . S
C959 C978 1.368 . S
C959 H983 0.949 . S
H960 C964 0.949 . S
C961 C962 1.349 . S
C961 C963 1.327 . S
C961 H984 0.950 . S
C962 C961 1.349 . S
C962 C974 1.349 . S
C963 C961 1.327 . S
C963 C979 1.429 . S
C963 H985 0.950 . S
C964 H960 0.949 . S
C964 C972 1.574 . S
C964 C980 1.368 . S
H965 C973 0.950 . S
H966 C971 0.950 . S
H967 C972 0.949 . S
H968 C974 0.950 . S
H969 C975 0.950 . S
H970 C976 0.949 . S
C971 H966 0.950 . S
C971 C973 1.327 . S
C971 C977 1.429 . S
C972 C964 1.574 . S
C972 H967 0.949 . S
C972 C978 1.368 . S
C973 C957 1.349 . S
C973 H965 0.950 . S
C973 C971 1.327 . S
C974 C962 1.349 . S
C974 H968 0.950 . S
C974 C975 1.327 . S
C975 H969 0.950 . S
C975 C974 1.327 . S
C975 C979 1.429 . S
C976 C959 1.574 . S
C976 H970 0.949 . S
C976 C980 1.368 . S
C977 C958 1.429 . S
C977 C971 1.429 . S
C977 C978 1.523 . S
C978 C959 1.368 . S
C978 C972 1.368 . S
C978 C977 1.523 . S
C979 C963 1.429 . S
C979 C975 1.429 . S
C979 C980 1.523 . S
C980 C964 1.368 . S
C980 C976 1.368 . S
C980 C979 1.523 . S
H981 C956 0.950 . S
H982 C958 0.950 . S
H983 C959 0.949 . S
H984 C961 0.950 . S
H985 C963 0.950 . S
C986 C987 1.349 . S
C986 C988 1.327 . S
C986 H1011 0.950 . S
C987 C986 1.349 . S
C987 C1003 1.349 . S
C988 C986 1.327 . S
C988 C1007 1.429 . S
C988 H1012 0.950 . S
C989 C1006 1.574 . S
C989 C1008 1.368 . S
C989 H1013 0.949 . S
H990 C994 0.949 . S
C991 C992 1.349 . S
C991 C993 1.327 . S
C991 H1014 0.950 . S
C992 C991 1.349 . S
C992 C1004 1.349 . S
C993 C991 1.327 . S
C993 C1009 1.429 . S
C993 H1015 0.950 . S
C994 H990 0.949 . S
C994 C1002 1.574 . S
C994 C1010 1.368 . S
H995 C1003 0.950 . S
H996 C1001 0.950 . S
H997 C1002 0.949 . S
H998 C1004 0.950 . S
H999 C1005 0.950 . S
H1000 C1006 0.949 . S
C1001 H996 0.950 . S
C1001 C1003 1.327 . S
C1001 C1007 1.429 . S
C1002 C994 1.574 . S
C1002 H997 0.949 . S
C1002 C1008 1.368 . S
C1003 C987 1.349 . S
C1003 H995 0.950 . S
C1003 C1001 1.327 . S
C1004 C992 1.349 . S
C1004 H998 0.950 . S
C1004 C1005 1.327 . S
C1005 H999 0.950 . S
C1005 C1004 1.327 . S
C1005 C1009 1.429 . S
C1006 C989 1.574 . S
C1006 H1000 0.949 . S
C1006 C1010 1.368 . S
C1007 C988 1.429 . S
C1007 C1001 1.429 . S
C1007 C1008 1.523 . S
C1008 C989 1.368 . S
C1008 C1002 1.368 . S
C1008 C1007 1.523 . S
C1009 C993 1.429 . S
C1009 C1005 1.429 . S
C1009 C1010 1.523 . S
C1010 C994 1.368 . S
C1010 C1006 1.368 . S
C1010 C1009 1.523 . S
H1011 C986 0.950 . S
H1012 C988 0.950 . S
H1013 C989 0.949 . S
H1014 C991 0.950 . S
H1015 C993 0.950 . S
C1016 C1017 1.349 1_554 S
C1016 C1018 1.327 . S
C1016 H1041 0.950 . S
C1017 C1016 1.349 1_556 S
C1017 C1033 1.349 . S
C1018 C1016 1.327 . S
C1018 C1037 1.429 . S
C1018 H1042 0.950 . S
C1019 C1036 1.574 . S
C1019 C1038 1.368 . S
C1019 H1043 0.949 . S
H1020 C1024 0.949 . S
C1021 C1022 1.349 . S
C1021 C1023 1.327 . S
C1021 H1044 0.950 . S
C1022 C1021 1.349 . S
C1022 C1034 1.349 . S
C1023 C1021 1.327 . S
C1023 C1039 1.429 . S
C1023 H1045 0.950 . S
C1024 H1020 0.949 . S
C1024 C1032 1.574 . S
C1024 C1040 1.368 . S
H1025 C1033 0.950 . S
H1026 C1031 0.950 . S
H1027 C1032 0.949 . S
H1028 C1034 0.950 . S
H1029 C1035 0.950 . S
H1030 C1036 0.949 . S
C1031 H1026 0.950 . S
C1031 C1033 1.327 1_554 S
C1031 C1037 1.429 . S
C1032 C1024 1.574 . S
C1032 H1027 0.949 . S
C1032 C1038 1.368 . S
C1033 C1017 1.349 . S
C1033 H1025 0.950 . S
C1033 C1031 1.327 1_556 S
C1034 C1022 1.349 . S
C1034 H1028 0.950 . S
C1034 C1035 1.327 . S
C1035 H1029 0.950 . S
C1035 C1034 1.327 . S
C1035 C1039 1.429 . S
C1036 C1019 1.574 . S
C1036 H1030 0.949 . S
C1036 C1040 1.368 . S
C1037 C1018 1.429 . S
C1037 C1031 1.429 . S
C1037 C1038 1.523 . S
C1038 C1019 1.368 . S
C1038 C1032 1.368 . S
C1038 C1037 1.523 . S
C1039 C1023 1.429 . S
C1039 C1035 1.429 . S
C1039 C1040 1.523 . S
C1040 C1024 1.368 . S
C1040 C1036 1.368 . S
C1040 C1039 1.523 . S
H1041 C1016 0.950 . S
H1042 C1018 0.950 . S
H1043 C1019 0.949 . S
H1044 C1021 0.950 . S
H1045 C1023 0.950 . S
C1046 C1047 1.349 1_556 S
C1046 C1048 1.327 . S
C1046 H1071 0.950 1_556 S
C1047 C1046 1.349 1_554 S
C1047 C1063 1.349 . S
C1048 C1046 1.327 . S
C1048 C1067 1.429 . S
C1048 H1072 0.950 . S
C1049 C1066 1.574 . S
C1049 C1068 1.368 . S
C1049 H1073 0.949 . S
H1050 C1054 0.949 . S
C1051 C1052 1.349 . S
C1051 C1053 1.327 . S
C1051 H1074 0.950 . S
C1052 C1051 1.349 . S
C1052 C1064 1.349 . S
C1053 C1051 1.327 . S
C1053 C1069 1.429 . S
C1053 H1075 0.950 . S
C1054 H1050 0.949 . S
C1054 C1062 1.574 . S
C1054 C1070 1.368 . S
H1055 C1063 0.950 . S
H1056 C1061 0.950 . S
H1057 C1062 0.949 . S
H1058 C1064 0.950 . S
H1059 C1065 0.950 . S
H1060 C1066 0.949 . S
C1061 H1056 0.950 . S
C1061 C1063 1.327 1_556 S
C1061 C1067 1.429 . S
C1062 C1054 1.574 . S
C1062 H1057 0.949 . S
C1062 C1068 1.368 . S
C1063 C1047 1.349 . S
C1063 H1055 0.950 . S
C1063 C1061 1.327 1_554 S
C1064 C1052 1.349 . S
C1064 H1058 0.950 . S
C1064 C1065 1.327 . S
C1065 H1059 0.950 . S
C1065 C1064 1.327 . S
C1065 C1069 1.429 . S
C1066 C1049 1.574 . S
C1066 H1060 0.949 . S
C1066 C1070 1.368 . S
C1067 C1048 1.429 . S
C1067 C1061 1.429 . S
C1067 C1068 1.523 . S
C1068 C1049 1.368 . S
C1068 C1062 1.368 . S
C1068 C1067 1.523 . S
C1069 C1053 1.429 . S
C1069 C1065 1.429 . S
C1069 C1070 1.523 . S
C1070 C1054 1.368 . S
C1070 C1066 1.368 . S
C1070 C1069 1.523 . S
H1071 C1046 0.950 1_554 S
H1072 C1048 0.950 . S
H1073 C1049 0.949 . S
H1074 C1051 0.950 . S
H1075 C1053 0.950 . S
C1076 C1077 1.349 . S
C1076 C1078 1.327 . S
C1076 H1101 0.950 . S
C1077 C1076 1.349 . S
C1077 C1093 1.349 . S
C1078 C1076 1.327 . S
C1078 C1097 1.429 . S
C1078 H1102 0.950 . S
C1079 C1096 1.574 . S
C1079 C1098 1.368 . S
C1079 H1103 0.949 . S
H1080 C1084 0.949 . S
C1081 C1082 1.349 . S
C1081 C1083 1.327 . S
C1081 H1104 0.950 . S
C1082 C1081 1.349 . S
C1082 C1094 1.349 . S
C1083 C1081 1.327 . S
C1083 C1099 1.429 . S
C1083 H1105 0.950 . S
C1084 H1080 0.949 . S
C1084 C1092 1.574 . S
C1084 C1100 1.368 . S
H1085 C1093 0.950 . S
H1086 C1091 0.950 . S
H1087 C1092 0.949 . S
H1088 C1094 0.950 . S
H1089 C1095 0.950 . S
H1090 C1096 0.949 . S
C1091 H1086 0.950 . S
C1091 C1093 1.327 . S
C1091 C1097 1.429 . S
C1092 C1084 1.574 . S
C1092 H1087 0.949 . S
C1092 C1098 1.368 . S
C1093 C1077 1.349 . S
C1093 H1085 0.950 . S
C1093 C1091 1.327 . S
C1094 C1082 1.349 . S
C1094 H1088 0.950 . S
C1094 C1095 1.327 . S
C1095 H1089 0.950 . S
C1095 C1094 1.327 . S
C1095 C1099 1.429 . S
C1096 C1079 1.574 . S
C1096 H1090 0.949 . S
C1096 C1100 1.368 . S
C1097 C1078 1.429 . S
C1097 C1091 1.429 . S
C1097 C1098 1.523 . S
C1098 C1079 1.368 . S
C1098 C1092 1.368 . S
C1098 C1097 1.523 . S
C1099 C1083 1.429 . S
C1099 C1095 1.429 . S
C1099 C1100 1.523 . S
C1100 C1084 1.368 . S
C1100 C1096 1.368 . S
C1100 C1099 1.523 . S
H1101 C1076 0.950 . S
H1102 C1078 0.950 . S
H1103 C1079 0.949 . S
H1104 C1081 0.950 . S
H1105 C1083 0.950 . S
C1106 C1107 1.349 . S
C1106 C1108 1.327 . S
C1106 H1131 0.950 . S
C1107 C1106 1.349 . S
C1107 C1123 1.349 . S
C1108 C1106 1.327 . S
C1108 C1127 1.429 . S
C1108 H1132 0.950 . S
C1109 C1126 1.574 . S
C1109 C1128 1.368 . S
C1109 H1133 0.949 . S
H1110 C1114 0.949 . S
C1111 C1112 1.349 . S
C1111 C1113 1.327 . S
C1111 H1134 0.950 . S
C1112 C1111 1.349 . S
C1112 C1124 1.349 . S
C1113 C1111 1.327 . S
C1113 C1129 1.429 . S
C1113 H1135 0.950 . S
C1114 H1110 0.949 . S
C1114 C1122 1.574 . S
C1114 C1130 1.368 . S
H1115 C1123 0.950 . S
H1116 C1121 0.950 . S
H1117 C1122 0.949 . S
H1118 C1124 0.950 . S
H1119 C1125 0.950 . S
H1120 C1126 0.949 . S
C1121 H1116 0.950 . S
C1121 C1123 1.327 . S
C1121 C1127 1.429 . S
C1122 C1114 1.574 . S
C1122 H1117 0.949 . S
C1122 C1128 1.368 . S
C1123 C1107 1.349 . S
C1123 H1115 0.950 . S
C1123 C1121 1.327 . S
C1124 C1112 1.349 . S
C1124 H1118 0.950 . S
C1124 C1125 1.327 . S
C1125 H1119 0.950 . S
C1125 C1124 1.327 . S
C1125 C1129 1.429 . S
C1126 C1109 1.574 . S
C1126 H1120 0.949 . S
C1126 C1130 1.368 . S
C1127 C1108 1.429 . S
C1127 C1121 1.429 . S
C1127 C1128 1.523 . S
C1128 C1109 1.368 . S
C1128 C1122 1.368 . S
C1128 C1127 1.523 . S
C1129 C1113 1.429 . S
C1129 C1125 1.429 . S
C1129 C1130 1.523 . S
C1130 C1114 1.368 . S
C1130 C1126 1.368 . S
C1130 C1129 1.523 . S
H1131 C1106 0.950 . S
H1132 C1108 0.950 . S
H1133 C1109 0.949 . S
H1134 C1111 0.950 . S
H1135 C1113 0.950 . S
C1136 C1137 1.349 . S
C1136 C1138 1.327 . S
C1136 H1161 0.950 . S
C1137 C1136 1.349 . S
C1137 C1153 1.349 . S
C1138 C1136 1.327 . S
C1138 C1157 1.429 . S
C1138 H1162 0.950 . S
C1139 C1156 1.574 . S
C1139 C1158 1.368 . S
C1139 H1163 0.949 . S
H1140 C1144 0.949 . S
C1141 C1142 1.349 . S
C1141 C1143 1.327 . S
C1141 H1164 0.950 . S
C1142 C1141 1.349 . S
C1142 C1154 1.349 . S
C1143 C1141 1.327 . S
C1143 C1159 1.429 . S
C1143 H1165 0.950 . S
C1144 H1140 0.949 . S
C1144 C1152 1.574 . S
C1144 C1160 1.368 . S
H1145 C1153 0.950 . S
H1146 C1151 0.950 . S
H1147 C1152 0.949 . S
H1148 C1154 0.950 . S
H1149 C1155 0.950 . S
H1150 C1156 0.949 . S
C1151 H1146 0.950 . S
C1151 C1153 1.327 . S
C1151 C1157 1.429 . S
C1152 C1144 1.574 . S
C1152 H1147 0.949 . S
C1152 C1158 1.368 . S
C1153 C1137 1.349 . S
C1153 H1145 0.950 . S
C1153 C1151 1.327 . S
C1154 C1142 1.349 . S
C1154 H1148 0.950 . S
C1154 C1155 1.327 . S
C1155 H1149 0.950 . S
C1155 C1154 1.327 . S
C1155 C1159 1.429 . S
C1156 C1139 1.574 . S
C1156 H1150 0.949 . S
C1156 C1160 1.368 . S
C1157 C1138 1.429 . S
C1157 C1151 1.429 . S
C1157 C1158 1.523 . S
C1158 C1139 1.368 . S
C1158 C1152 1.368 . S
C1158 C1157 1.523 . S
C1159 C1143 1.429 . S
C1159 C1155 1.429 . S
C1159 C1160 1.523 . S
C1160 C1144 1.368 . S
C1160 C1156 1.368 . S
C1160 C1159 1.523 . S
H1161 C1136 0.950 . S
H1162 C1138 0.950 . S
H1163 C1139 0.949 . S
H1164 C1141 0.950 . S
H1165 C1143 0.950 . S
C1166 C1167 1.349 . S
C1166 C1168 1.327 . S
C1166 H1191 0.950 . S
C1167 C1166 1.349 . S
C1167 C1183 1.349 . S
C1168 C1166 1.327 . S
C1168 C1187 1.429 . S
C1168 H1192 0.950 . S
C1169 C1186 1.574 . S
C1169 C1188 1.368 . S
C1169 H1193 0.949 . S
H1170 C1174 0.949 . S
C1171 C1172 1.349 . S
C1171 C1173 1.327 . S
C1171 H1194 0.950 . S
C1172 C1171 1.349 . S
C1172 C1184 1.349 . S
C1173 C1171 1.327 . S
C1173 C1189 1.429 . S
C1173 H1195 0.950 . S
C1174 H1170 0.949 . S
C1174 C1182 1.574 . S
C1174 C1190 1.368 . S
H1175 C1183 0.950 . S
H1176 C1181 0.950 . S
H1177 C1182 0.949 . S
H1178 C1184 0.950 . S
H1179 C1185 0.950 . S
H1180 C1186 0.949 . S
C1181 H1176 0.950 . S
C1181 C1183 1.327 . S
C1181 C1187 1.429 . S
C1182 C1174 1.574 . S
C1182 H1177 0.949 . S
C1182 C1188 1.368 . S
C1183 C1167 1.349 . S
C1183 H1175 0.950 . S
C1183 C1181 1.327 . S
C1184 C1172 1.349 . S
C1184 H1178 0.950 . S
C1184 C1185 1.327 . S
C1185 H1179 0.950 . S
C1185 C1184 1.327 . S
C1185 C1189 1.429 . S
C1186 C1169 1.574 . S
C1186 H1180 0.949 . S
C1186 C1190 1.368 . S
C1187 C1168 1.429 . S
C1187 C1181 1.429 . S
C1187 C1188 1.523 . S
C1188 C1169 1.368 . S
C1188 C1182 1.368 . S
C1188 C1187 1.523 . S
C1189 C1173 1.429 . S
C1189 C1185 1.429 . S
C1189 C1190 1.523 . S
C1190 C1174 1.368 . S
C1190 C1186 1.368 . S
C1190 C1189 1.523 . S
H1191 C1166 0.950 . S
H1192 C1168 0.950 . S
H1193 C1169 0.949 . S
H1194 C1171 0.950 . S
H1195 C1173 0.950 . S
C1196 C1197 1.349 . S
C1196 C1198 1.327 . S
C1196 H1221 0.950 . S
C1197 C1196 1.349 . S
C1197 C1213 1.349 . S
C1198 C1196 1.327 . S
C1198 C1217 1.429 . S
C1198 H1222 0.950 . S
C1199 C1216 1.574 . S
C1199 C1218 1.368 . S
C1199 H1223 0.949 . S
H1200 C1204 0.949 . S
C1201 C1202 1.349 1_556 S
C1201 C1203 1.327 . S
C1201 H1224 0.948 1_556 S
C1202 C1201 1.349 1_554 S
C1202 C1214 1.349 . S
C1203 C1201 1.327 . S
C1203 C1219 1.429 . S
C1203 H1225 0.950 . S
C1204 H1200 0.949 . S
C1204 C1212 1.574 . S
C1204 C1220 1.368 . S
H1205 C1213 0.950 . S
H1206 C1211 0.950 . S
H1207 C1212 0.949 . S
H1208 C1214 0.950 . S
H1209 C1215 0.950 . S
H1210 C1216 0.949 . S
C1211 H1206 0.950 . S
C1211 C1213 1.327 . S
C1211 C1217 1.429 . S
C1212 C1204 1.574 . S
C1212 H1207 0.949 . S
C1212 C1218 1.368 . S
C1213 C1197 1.349 . S
C1213 H1205 0.950 . S
C1213 C1211 1.327 . S
C1214 C1202 1.349 . S
C1214 H1208 0.950 . S
C1214 C1215 1.327 1_554 S
C1215 H1209 0.950 . S
C1215 C1214 1.327 1_556 S
C1215 C1219 1.429 . S
C1216 C1199 1.574 . S
C1216 H1210 0.949 . S
C1216 C1220 1.368 . S
C1217 C1198 1.429 . S
C1217 C1211 1.429 . S
C1217 C1218 1.523 . S
C1218 C1199 1.368 . S
C1218 C1212 1.368 . S
C1218 C1217 1.523 . S
C1219 C1203 1.429 . S
C1219 C1215 1.429 . S
C1219 C1220 1.523 . S
C1220 C1204 1.368 . S
C1220 C1216 1.368 . S
C1220 C1219 1.523 . S
H1221 C1196 0.950 . S
H1222 C1198 0.950 . S
H1223 C1199 0.949 . S
H1224 C1201 0.948 1_554 S
H1225 C1203 0.950 . S
C1226 C1227 1.349 . S
C1226 C1228 1.327 . S
C1226 H1251 0.950 . S
C1227 C1226 1.349 . S
C1227 C1243 1.349 . S
C1228 C1226 1.327 . S
C1228 C1247 1.429 . S
C1228 H1252 0.950 . S
C1229 C1246 1.574 . S
C1229 C1248 1.368 . S
C1229 H1253 0.949 . S
H1230 C1234 0.949 . S
C1231 C1232 1.349 . S
C1231 C1233 1.327 1_556 S
C1231 H1254 0.950 . S
C1232 C1231 1.349 . S
C1232 C1244 1.349 . S
C1233 C1231 1.327 1_554 S
C1233 C1249 1.429 . S
C1233 H1255 0.950 . S
C1234 H1230 0.949 . S
C1234 C1242 1.574 . S
C1234 C1250 1.368 . S
H1235 C1243 0.950 . S
H1236 C1241 0.950 . S
H1237 C1242 0.949 . S
H1238 C1244 0.950 . S
H1239 C1245 0.950 . S
H1240 C1246 0.949 . S
C1241 H1236 0.950 . S
C1241 C1243 1.327 . S
C1241 C1247 1.429 . S
C1242 C1234 1.574 . S
C1242 H1237 0.949 . S
C1242 C1248 1.368 . S
C1243 C1227 1.349 . S
C1243 H1235 0.950 . S
C1243 C1241 1.327 . S
C1244 C1232 1.349 . S
C1244 H1238 0.950 . S
C1244 C1245 1.327 1_556 S
C1245 H1239 0.950 . S
C1245 C1244 1.327 1_554 S
C1245 C1249 1.429 . S
C1246 C1229 1.574 . S
C1246 H1240 0.949 . S
C1246 C1250 1.368 . S
C1247 C1228 1.429 . S
C1247 C1241 1.429 . S
C1247 C1248 1.523 . S
C1248 C1229 1.368 . S
C1248 C1242 1.368 . S
C1248 C1247 1.523 . S
C1249 C1233 1.429 . S
C1249 C1245 1.429 . S
C1249 C1250 1.523 . S
C1250 C1234 1.368 . S
C1250 C1246 1.368 . S
C1250 C1249 1.523 . S
H1251 C1226 0.950 . S
H1252 C1228 0.950 . S
H1253 C1229 0.949 . S
H1254 C1231 0.950 . S
H1255 C1233 0.950 . S
C1256 C1257 1.349 . S
C1256 C1258 1.327 . S
C1256 H1281 0.950 . S
C1257 C1256 1.349 . S
C1257 C1273 1.349 . S
C1258 C1256 1.327 . S
C1258 C1277 1.429 . S
C1258 H1282 0.950 . S
C1259 C1276 1.574 . S
C1259 C1278 1.368 . S
C1259 H1283 0.949 . S
H1260 C1264 0.949 . S
C1261 C1262 1.349 . S
C1261 C1263 1.327 . S
C1261 H1284 0.950 . S
C1262 C1261 1.349 . S
C1262 C1274 1.349 . S
C1263 C1261 1.327 . S
C1263 C1279 1.429 . S
C1263 H1285 0.950 . S
C1264 H1260 0.949 . S
C1264 C1272 1.574 . S
C1264 C1280 1.368 . S
H1265 C1273 0.950 . S
H1266 C1271 0.950 . S
H1267 C1272 0.949 . S
H1268 C1274 0.950 . S
H1269 C1275 0.950 . S
H1270 C1276 0.949 . S
C1271 H1266 0.950 . S
C1271 C1273 1.327 . S
C1271 C1277 1.429 . S
C1272 C1264 1.574 . S
C1272 H1267 0.949 . S
C1272 C1278 1.368 . S
C1273 C1257 1.349 . S
C1273 H1265 0.950 . S
C1273 C1271 1.327 . S
C1274 C1262 1.349 . S
C1274 H1268 0.950 . S
C1274 C1275 1.327 . S
C1275 H1269 0.950 . S
C1275 C1274 1.327 . S
C1275 C1279 1.429 . S
C1276 C1259 1.574 . S
C1276 H1270 0.949 . S
C1276 C1280 1.368 . S
C1277 C1258 1.429 . S
C1277 C1271 1.429 . S
C1277 C1278 1.523 . S
C1278 C1259 1.368 . S
C1278 C1272 1.368 . S
C1278 C1277 1.523 . S
C1279 C1263 1.429 . S
C1279 C1275 1.429 . S
C1279 C1280 1.523 . S
C1280 C1264 1.368 . S
C1280 C1276 1.368 . S
C1280 C1279 1.523 . S
H1281 C1256 0.950 . S
H1282 C1258 0.950 . S
H1283 C1259 0.949 . S
H1284 C1261 0.950 . S
H1285 C1263 0.950 . S
C1286 C1287 1.349 . S
C1286 C1288 1.327 . S
C1286 H1311 0.950 . S
C1287 C1286 1.349 . S
C1287 C1303 1.349 . S
C1288 C1286 1.327 . S
C1288 C1307 1.429 . S
C1288 H1312 0.950 . S
C1289 C1306 1.574 . S
C1289 C1308 1.368 . S
C1289 H1313 0.949 . S
H1290 C1294 0.949 . S
C1291 C1292 1.349 . S
C1291 C1293 1.327 . S
C1291 H1314 0.950 . S
C1292 C1291 1.349 . S
C1292 C1304 1.349 . S
C1293 C1291 1.327 . S
C1293 C1309 1.429 . S
C1293 H1315 0.950 . S
C1294 H1290 0.949 . S
C1294 C1302 1.574 . S
C1294 C1310 1.368 . S
H1295 C1303 0.950 . S
H1296 C1301 0.950 . S
H1297 C1302 0.949 . S
H1298 C1304 0.950 . S
H1299 C1305 0.950 . S
H1300 C1306 0.949 . S
C1301 H1296 0.950 . S
C1301 C1303 1.327 . S
C1301 C1307 1.429 . S
C1302 C1294 1.574 . S
C1302 H1297 0.949 . S
C1302 C1308 1.368 . S
C1303 C1287 1.349 . S
C1303 H1295 0.950 . S
C1303 C1301 1.327 . S
C1304 C1292 1.349 . S
C1304 H1298 0.950 . S
C1304 C1305 1.327 . S
C1305 H1299 0.950 . S
C1305 C1304 1.327 . S
C1305 C1309 1.429 . S
C1306 C1289 1.574 . S
C1306 H1300 0.949 . S
C1306 C1310 1.368 . S
C1307 C1288 1.429 . S
C1307 C1301 1.429 . S
C1307 C1308 1.523 . S
C1308 C1289 1.368 . S
C1308 C1302 1.368 . S
C1308 C1307 1.523 . S
C1309 C1293 1.429 . S
C1309 C1305 1.429 . S
C1309 C1310 1.523 . S
C1310 C1294 1.368 . S
C1310 C1306 1.368 . S
C1310 C1309 1.523 . S
H1311 C1286 0.950 . S
H1312 C1288 0.950 . S
H1313 C1289 0.949 . S
H1314 C1291 0.950 . S
H1315 C1293 0.950 . S
C1316 C1317 1.349 . S
C1316 C1318 1.327 1_556 S
C1316 H1341 0.950 . S
C1317 C1316 1.349 . S
C1317 C1333 1.349 . S
C1318 C1316 1.327 1_554 S
C1318 C1337 1.429 . S
C1318 H1342 0.950 . S
C1319 C1336 1.574 . S
C1319 C1338 1.368 . S
C1319 H1343 0.949 . S
H1320 C1324 0.949 . S
C1321 C1322 1.349 . S
C1321 C1323 1.327 . S
C1321 H1344 0.950 . S
C1322 C1321 1.349 . S
C1322 C1334 1.349 . S
C1323 C1321 1.327 . S
C1323 C1339 1.429 . S
C1323 H1345 0.950 . S
C1324 H1320 0.949 . S
C1324 C1332 1.574 . S
C1324 C1340 1.368 . S
H1325 C1333 0.950 . S
H1326 C1331 0.950 . S
H1327 C1332 0.949 . S
H1328 C1334 0.950 . S
H1329 C1335 0.950 . S
H1330 C1336 0.949 . S
C1331 H1326 0.950 . S
C1331 C1333 1.327 1_554 S
C1331 C1337 1.429 . S
C1332 C1324 1.574 . S
C1332 H1327 0.949 . S
C1332 C1338 1.368 . S
C1333 C1317 1.349 . S
C1333 H1325 0.950 . S
C1333 C1331 1.327 1_556 S
C1334 C1322 1.349 . S
C1334 H1328 0.950 . S
C1334 C1335 1.327 . S
C1335 H1329 0.950 . S
C1335 C1334 1.327 . S
C1335 C1339 1.429 . S
C1336 C1319 1.574 . S
C1336 H1330 0.949 . S
C1336 C1340 1.368 . S
C1337 C1318 1.429 . S
C1337 C1331 1.429 . S
C1337 C1338 1.523 . S
C1338 C1319 1.368 . S
C1338 C1332 1.368 . S
C1338 C1337 1.523 . S
C1339 C1323 1.429 . S
C1339 C1335 1.429 . S
C1339 C1340 1.523 . S
C1340 C1324 1.368 . S
C1340 C1336 1.368 . S
C1340 C1339 1.523 . S
H1341 C1316 0.950 . S
H1342 C1318 0.950 . S
H1343 C1319 0.949 . S
H1344 C1321 0.950 . S
H1345 C1323 0.950 . S
C1346 C1347 1.349 . S
C1346 C1348 1.327 . S
C1346 H1371 0.950 . S
C1347 C1346 1.349 . S
C1347 C1363 1.349 . S
C1348 C1346 1.327 . S
C1348 C1367 1.429 . S
C1348 H1372 0.950 . S
C1349 C1366 1.574 . S
C1349 C1368 1.368 . S
C1349 H1373 0.949 . S
H1350 C1354 0.949 . S
C1351 C1352 1.349 . S
C1351 C1353 1.327 1_554 S
C1351 H1374 0.950 . S
C1352 C1351 1.349 . S
C1352 C1364 1.349 1_554 S
C1353 C1351 1.327 1_556 S
C1353 C1369 1.429 . S
C1353 H1375 0.950 . S
C1354 H1350 0.949 . S
C1354 C1362 1.574 . S
C1354 C1370 1.368 . S
H1355 C1363 0.950 . S
H1356 C1361 0.950 . S
H1357 C1362 0.949 . S
H1358 C1364 0.951 . S
H1359 C1365 0.950 . S
H1360 C1366 0.949 . S
C1361 H1356 0.950 . S
C1361 C1363 1.327 . S
C1361 C1367 1.429 . S
C1362 C1354 1.574 . S
C1362 H1357 0.949 . S
C1362 C1368 1.368 . S
C1363 C1347 1.349 . S
C1363 H1355 0.950 . S
C1363 C1361 1.327 . S
C1364 C1352 1.349 1_556 S
C1364 H1358 0.951 . S
C1364 C1365 1.327 . S
C1365 H1359 0.950 . S
C1365 C1364 1.327 . S
C1365 C1369 1.429 . S
C1366 C1349 1.574 . S
C1366 H1360 0.949 . S
C1366 C1370 1.368 . S
C1367 C1348 1.429 . S
C1367 C1361 1.429 . S
C1367 C1368 1.523 . S
C1368 C1349 1.368 . S
C1368 C1362 1.368 . S
C1368 C1367 1.523 . S
C1369 C1353 1.429 . S
C1369 C1365 1.429 . S
C1369 C1370 1.523 . S
C1370 C1354 1.368 . S
C1370 C1366 1.368 . S
C1370 C1369 1.523 . S
H1371 C1346 0.950 . S
H1372 C1348 0.950 . S
H1373 C1349 0.949 . S
H1374 C1351 0.950 . S
H1375 C1353 0.950 . S
C1376 C1377 1.349 . S
C1376 C1378 1.327 . S
C1376 H1401 0.950 . S
C1377 C1376 1.349 . S
C1377 C1393 1.349 . S
C1378 C1376 1.327 . S
C1378 C1397 1.429 . S
C1378 H1402 0.950 . S
C1379 C1396 1.574 . S
C1379 C1398 1.368 . S
C1379 H1403 0.949 . S
H1380 C1384 0.949 . S
C1381 C1382 1.349 . S
C1381 C1383 1.327 . S
C1381 H1404 0.950 . S
C1382 C1381 1.349 . S
C1382 C1394 1.349 . S
C1383 C1381 1.327 . S
C1383 C1399 1.429 . S
C1383 H1405 0.950 . S
C1384 H1380 0.949 . S
C1384 C1392 1.574 . S
C1384 C1400 1.368 . S
H1385 C1393 0.950 . S
H1386 C1391 0.950 . S
H1387 C1392 0.949 . S
H1388 C1394 0.950 . S
H1389 C1395 0.950 . S
H1390 C1396 0.949 . S
C1391 H1386 0.950 . S
C1391 C1393 1.327 . S
C1391 C1397 1.429 . S
C1392 C1384 1.574 . S
C1392 H1387 0.949 . S
C1392 C1398 1.368 . S
C1393 C1377 1.349 . S
C1393 H1385 0.950 . S
C1393 C1391 1.327 . S
C1394 C1382 1.349 . S
C1394 H1388 0.950 . S
C1394 C1395 1.327 . S
C1395 H1389 0.950 . S
C1395 C1394 1.327 . S
C1395 C1399 1.429 . S
C1396 C1379 1.574 . S
C1396 H1390 0.949 . S
C1396 C1400 1.368 . S
C1397 C1378 1.429 . S
C1397 C1391 1.429 . S
C1397 C1398 1.523 . S
C1398 C1379 1.368 . S
C1398 C1392 1.368 . S
C1398 C1397 1.523 . S
C1399 C1383 1.429 . S
C1399 C1395 1.429 . S
C1399 C1400 1.523 . S
C1400 C1384 1.368 . S
C1400 C1396 1.368 . S
C1400 C1399 1.523 . S
H1401 C1376 0.950 . S
H1402 C1378 0.950 . S
H1403 C1379 0.949 . S
H1404 C1381 0.950 . S
H1405 C1383 0.950 . S
C1406 C1407 1.349 . S
C1406 C1408 1.327 . S
C1406 H1431 0.950 . S
C1407 C1406 1.349 . S
C1407 C1423 1.349 . S
C1408 C1406 1.327 . S
C1408 C1427 1.429 . S
C1408 H1432 0.950 . S
C1409 C1426 1.574 1_655 S
C1409 C1428 1.368 . S
C1409 H1433 0.949 . S
H1410 C1414 0.949 . S
C1411 C1412 1.349 . S
C1411 C1413 1.327 . S
C1411 H1434 0.950 . S
C1412 C1411 1.349 . S
C1412 C1424 1.349 . S
C1413 C1411 1.327 . S
C1413 C1429 1.429 . S
C1413 H1435 0.950 . S
C1414 H1410 0.949 . S
C1414 C1422 1.574 1_455 S
C1414 C1430 1.368 . S
H1415 C1423 0.950 . S
H1416 C1421 0.950 . S
H1417 C1422 0.949 . S
H1418 C1424 0.950 . S
H1419 C1425 0.950 . S
H1420 C1426 0.949 . S
C1421 H1416 0.950 . S
C1421 C1423 1.327 . S
C1421 C1427 1.429 . S
C1422 C1414 1.574 1_655 S
C1422 H1417 0.949 . S
C1422 C1428 1.368 . S
C1423 C1407 1.349 . S
C1423 H1415 0.950 . S
C1423 C1421 1.327 . S
C1424 C1412 1.349 . S
C1424 H1418 0.950 . S
C1424 C1425 1.327 . S
C1425 H1419 0.950 . S
C1425 C1424 1.327 . S
C1425 C1429 1.429 . S
C1426 C1409 1.574 1_455 S
C1426 H1420 0.949 . S
C1426 C1430 1.368 . S
C1427 C1408 1.429 . S
C1427 C1421 1.429 . S
C1427 C1428 1.523 . S
C1428 C1409 1.368 . S
C1428 C1422 1.368 . S
C1428 C1427 1.523 . S
C1429 C1413 1.429 . S
C1429 C1425 1.429 . S
C1429 C1430 1.523 . S
C1430 C1414 1.368 . S
C1430 C1426 1.368 . S
C1430 C1429 1.523 . S
H1431 C1406 0.950 . S
H1432 C1408 0.950 . S
H1433 C1409 0.949 . S
H1434 C1411 0.950 . S
H1435 C1413 0.950 . S
C1436 C1437 1.349 . S
C1436 C1438 1.327 . S
C1436 H1461 0.950 . S
C1437 C1436 1.349 . S
C1437 C1453 1.349 . S
C1438 C1436 1.327 . S
C1438 C1457 1.429 . S
C1438 H1462 0.950 . S
C1439 C1456 1.574 . S
C1439 C1458 1.368 . S
C1439 H1463 0.949 . S
H1440 C1444 0.949 . S
C1441 C1442 1.349 . S
C1441 C1443 1.327 . S
C1441 H1464 0.950 . S
C1442 C1441 1.349 . S
C1442 C1454 1.349 . S
C1443 C1441 1.327 . S
C1443 C1459 1.429 . S
C1443 H1465 0.950 . S
C1444 H1440 0.949 . S
C1444 C1452 1.574 . S
C1444 C1460 1.368 . S
H1445 C1453 0.950 . S
H1446 C1451 0.950 . S
H1447 C1452 0.949 . S
H1448 C1454 0.950 . S
H1449 C1455 0.950 . S
H1450 C1456 0.949 . S
C1451 H1446 0.950 . S
C1451 C1453 1.327 . S
C1451 C1457 1.429 . S
C1452 C1444 1.574 . S
C1452 H1447 0.949 . S
C1452 C1458 1.368 . S
C1453 C1437 1.349 . S
C1453 H1445 0.950 . S
C1453 C1451 1.327 . S
C1454 C1442 1.349 . S
C1454 H1448 0.950 . S
C1454 C1455 1.327 . S
C1455 H1449 0.950 . S
C1455 C1454 1.327 . S
C1455 C1459 1.429 . S
C1456 C1439 1.574 . S
C1456 H1450 0.949 . S
C1456 C1460 1.368 . S
C1457 C1438 1.429 . S
C1457 C1451 1.429 . S
C1457 C1458 1.523 . S
C1458 C1439 1.368 . S
C1458 C1452 1.368 . S
C1458 C1457 1.523 . S
C1459 C1443 1.429 . S
C1459 C1455 1.429 . S
C1459 C1460 1.523 . S
C1460 C1444 1.368 . S
C1460 C1456 1.368 . S
C1460 C1459 1.523 . S
H1461 C1436 0.950 . S
H1462 C1438 0.950 . S
H1463 C1439 0.949 . S
H1464 C1441 0.950 . S
H1465 C1443 0.950 . S
C1466 C1467 1.349 . S
C1466 C1468 1.327 . S
C1466 H1491 0.950 . S
C1467 C1466 1.349 . S
C1467 C1483 1.349 . S
C1468 C1466 1.327 . S
C1468 C1487 1.429 . S
C1468 H1492 0.950 . S
C1469 C1486 1.574 . S
C1469 C1488 1.368 . S
C1469 H1493 0.949 . S
H1470 C1474 0.949 . S
C1471 C1472 1.349 . S
C1471 C1473 1.327 . S
C1471 H1494 0.950 . S
C1472 C1471 1.349 . S
C1472 C1484 1.349 . S
C1473 C1471 1.327 . S
C1473 C1489 1.429 . S
C1473 H1495 0.950 . S
C1474 H1470 0.949 . S
C1474 C1482 1.574 . S
C1474 C1490 1.368 . S
H1475 C1483 0.950 . S
H1476 C1481 0.950 . S
H1477 C1482 0.949 . S
H1478 C1484 0.950 . S
H1479 C1485 0.950 . S
H1480 C1486 0.949 . S
C1481 H1476 0.950 . S
C1481 C1483 1.327 . S
C1481 C1487 1.429 . S
C1482 C1474 1.574 . S
C1482 H1477 0.949 . S
C1482 C1488 1.368 . S
C1483 C1467 1.349 . S
C1483 H1475 0.950 . S
C1483 C1481 1.327 . S
C1484 C1472 1.349 . S
C1484 H1478 0.950 . S
C1484 C1485 1.327 . S
C1485 H1479 0.950 . S
C1485 C1484 1.327 . S
C1485 C1489 1.429 . S
C1486 C1469 1.574 . S
C1486 H1480 0.949 . S
C1486 C1490 1.368 . S
C1487 C1468 1.429 . S
C1487 C1481 1.429 . S
C1487 C1488 1.523 . S
C1488 C1469 1.368 . S
C1488 C1482 1.368 . S
C1488 C1487 1.523 . S
C1489 C1473 1.429 . S
C1489 C1485 1.429 . S
C1489 C1490 1.523 . S
C1490 C1474 1.368 . S
C1490 C1486 1.368 . S
C1490 C1489 1.523 . S
H1491 C1466 0.950 . S
H1492 C1468 0.950 . S
H1493 C1469 0.949 . S
H1494 C1471 0.950 . S
H1495 C1473 0.950 . S
C1496 C1497 1.349 . S
C1496 C1498 1.327 . S
C1496 H1521 0.950 . S
C1497 C1496 1.349 . S
C1497 C1513 1.349 . S
C1498 C1496 1.327 . S
C1498 C1517 1.429 . S
C1498 H1522 0.950 . S
C1499 C1516 1.574 . S
C1499 C1518 1.368 . S
C1499 H1523 0.949 . S
H1500 C1504 0.949 . S
C1501 C1502 1.349 . S
C1501 C1503 1.327 . S
C1501 H1524 0.950 . S
C1502 C1501 1.349 . S
C1502 C1514 1.349 . S
C1503 C1501 1.327 . S
C1503 C1519 1.429 . S
C1503 H1525 0.950 . S
C1504 H1500 0.949 . S
C1504 C1512 1.574 . S
C1504 C1520 1.368 . S
H1505 C1513 0.950 . S
H1506 C1511 0.950 . S
H1507 C1512 0.949 . S
H1508 C1514 0.950 . S
H1509 C1515 0.950 . S
H1510 C1516 0.949 . S
C1511 H1506 0.950 . S
C1511 C1513 1.327 . S
C1511 C1517 1.429 . S
C1512 C1504 1.574 . S
C1512 H1507 0.949 . S
C1512 C1518 1.368 . S
C1513 C1497 1.349 . S
C1513 H1505 0.950 . S
C1513 C1511 1.327 . S
C1514 C1502 1.349 . S
C1514 H1508 0.950 . S
C1514 C1515 1.327 . S
C1515 H1509 0.950 . S
C1515 C1514 1.327 . S
C1515 C1519 1.429 . S
C1516 C1499 1.574 . S
C1516 H1510 0.949 . S
C1516 C1520 1.368 . S
C1517 C1498 1.429 . S
C1517 C1511 1.429 . S
C1517 C1518 1.523 . S
C1518 C1499 1.368 . S
C1518 C1512 1.368 . S
C1518 C1517 1.523 . S
C1519 C1503 1.429 . S
C1519 C1515 1.429 . S
C1519 C1520 1.523 . S
C1520 C1504 1.368 . S
C1520 C1516 1.368 . S
C1520 C1519 1.523 . S
H1521 C1496 0.950 . S
H1522 C1498 0.950 . S
H1523 C1499 0.949 . S
H1524 C1501 0.950 . S
H1525 C1503 0.950 . S
C1526 C1527 1.349 . S
C1526 C1528 1.327 . S
C1526 H1551 0.950 . S
C1527 C1526 1.349 . S
C1527 C1543 1.349 . S
C1528 C1526 1.327 . S
C1528 C1547 1.429 . S
C1528 H1552 0.950 . S
C1529 C1546 1.574 . S
C1529 C1548 1.368 . S
C1529 H1553 0.949 . S
H1530 C1534 0.949 . S
C1531 C1532 1.349 . S
C1531 C1533 1.327 . S
C1531 H1554 0.950 . S
C1532 C1531 1.349 . S
C1532 C1544 1.349 . S
C1533 C1531 1.327 . S
C1533 C1549 1.429 . S
C1533 H1555 0.950 . S
C1534 H1530 0.949 . S
C1534 C1542 1.574 . S
C1534 C1550 1.368 . S
H1535 C1543 0.950 . S
H1536 C1541 0.950 . S
H1537 C1542 0.949 . S
H1538 C1544 0.950 . S
H1539 C1545 0.950 . S
H1540 C1546 0.949 . S
C1541 H1536 0.950 . S
C1541 C1543 1.327 . S
C1541 C1547 1.429 . S
C1542 C1534 1.574 . S
C1542 H1537 0.949 . S
C1542 C1548 1.368 . S
C1543 C1527 1.349 . S
C1543 H1535 0.950 . S
C1543 C1541 1.327 . S
C1544 C1532 1.349 . S
C1544 H1538 0.950 . S
C1544 C1545 1.327 . S
C1545 H1539 0.950 . S
C1545 C1544 1.327 . S
C1545 C1549 1.429 . S
C1546 C1529 1.574 . S
C1546 H1540 0.949 . S
C1546 C1550 1.368 . S
C1547 C1528 1.429 . S
C1547 C1541 1.429 . S
C1547 C1548 1.523 . S
C1548 C1529 1.368 . S
C1548 C1542 1.368 . S
C1548 C1547 1.523 . S
C1549 C1533 1.429 . S
C1549 C1545 1.429 . S
C1549 C1550 1.523 . S
C1550 C1534 1.368 . S
C1550 C1546 1.368 . S
C1550 C1549 1.523 . S
H1551 C1526 0.950 . S
H1552 C1528 0.950 . S
H1553 C1529 0.949 . S
H1554 C1531 0.950 . S
H1555 C1533 0.950 . S
C1556 C1557 1.349 . S
C1556 C1558 1.327 . S
C1556 H1581 0.950 . S
C1557 C1556 1.349 . S
C1557 C1573 1.349 . S
C1558 C1556 1.327 . S
C1558 C1577 1.429 . S
C1558 H1582 0.950 . S
C1559 C1576 1.574 . S
C1559 C1578 1.368 . S
C1559 H1583 0.949 . S
H1560 C1564 0.949 . S
C1561 C1562 1.349 . S
C1561 C1563 1.327 . S
C1561 H1584 0.950 . S
C1562 C1561 1.349 . S
C1562 C1574 1.349 . S
C1563 C1561 1.327 . S
C1563 C1579 1.429 . S
C1563 H1585 0.950 . S
C1564 H1560 0.949 . S
C1564 C1572 1.574 . S
C1564 C1580 1.368 . S
H1565 C1573 0.950 . S
H1566 C1571 0.950 . S
H1567 C1572 0.949 . S
H1568 C1574 0.950 . S
H1569 C1575 0.950 . S
H1570 C1576 0.949 . S
C1571 H1566 0.950 . S
C1571 C1573 1.327 . S
C1571 C1577 1.429 . S
C1572 C1564 1.574 . S
C1572 H1567 0.949 . S
C1572 C1578 1.368 . S
C1573 C1557 1.349 . S
C1573 H1565 0.950 . S
C1573 C1571 1.327 . S
C1574 C1562 1.349 . S
C1574 H1568 0.950 . S
C1574 C1575 1.327 . S
C1575 H1569 0.950 . S
C1575 C1574 1.327 . S
C1575 C1579 1.429 . S
C1576 C1559 1.574 . S
C1576 H1570 0.949 . S
C1576 C1580 1.368 . S
C1577 C1558 1.429 . S
C1577 C1571 1.429 . S
C1577 C1578 1.523 . S
C1578 C1559 1.368 . S
C1578 C1572 1.368 . S
C1578 C1577 1.523 . S
C1579 C1563 1.429 . S
C1579 C1575 1.429 . S
C1579 C1580 1.523 . S
C1580 C1564 1.368 . S
C1580 C1576 1.368 . S
C1580 C1579 1.523 . S
H1581 C1556 0.950 . S
H1582 C1558 0.950 . S
H1583 C1559 0.949 . S
H1584 C1561 0.950 . S
H1585 C1563 0.950 . S
C1586 C1587 1.349 . S
C1586 C1588 1.327 . S
C1586 H1611 0.950 . S
C1587 C1586 1.349 . S
C1587 C1603 1.349 . S
C1588 C1586 1.327 . S
C1588 C1607 1.429 . S
C1588 H1612 0.950 . S
C1589 C1606 1.574 1_655 S
C1589 C1608 1.368 . S
C1589 H1613 0.949 . S
H1590 C1594 0.949 . S
C1591 C1592 1.349 . S
C1591 C1593 1.327 . S
C1591 H1614 0.950 . S
C1592 C1591 1.349 . S
C1592 C1604 1.349 . S
C1593 C1591 1.327 . S
C1593 C1609 1.429 . S
C1593 H1615 0.950 . S
C1594 H1590 0.949 . S
C1594 C1602 1.574 1_455 S
C1594 C1610 1.368 . S
H1595 C1603 0.950 . S
H1596 C1601 0.950 . S
H1597 C1602 0.949 . S
H1598 C1604 0.950 . S
H1599 C1605 0.950 . S
H1600 C1606 0.949 . S
C1601 H1596 0.950 . S
C1601 C1603 1.327 . S
C1601 C1607 1.429 . S
C1602 C1594 1.574 1_655 S
C1602 H1597 0.949 . S
C1602 C1608 1.368 . S
C1603 C1587 1.349 . S
C1603 H1595 0.950 . S
C1603 C1601 1.327 . S
C1604 C1592 1.349 . S
C1604 H1598 0.950 . S
C1604 C1605 1.327 . S
C1605 H1599 0.950 . S
C1605 C1604 1.327 . S
C1605 C1609 1.429 . S
C1606 C1589 1.574 1_455 S
C1606 H1600 0.949 . S
C1606 C1610 1.368 . S
C1607 C1588 1.429 . S
C1607 C1601 1.429 . S
C1607 C1608 1.523 . S
C1608 C1589 1.368 . S
C1608 C1602 1.368 . S
C1608 C1607 1.523 . S
C1609 C1593 1.429 . S
C1609 C1605 1.429 . S
C1609 C1610 1.523 . S
C1610 C1594 1.368 . S
C1610 C1606 1.368 . S
C1610 C1609 1.523 . S
H1611 C1586 0.950 . S
H1612 C1588 0.950 . S
H1613 C1589 0.949 . S
H1614 C1591 0.950 . S
H1615 C1593 0.950 . S
C1616 C1617 1.349 . S
C1616 C1618 1.327 . S
C1616 H1641 0.950 . S
C1617 C1616 1.349 . S
C1617 C1633 1.349 . S
C1618 C1616 1.327 . S
C1618 C1637 1.429 . S
C1618 H1642 0.950 . S
C1619 C1636 1.574 . S
C1619 C1638 1.368 . S
C1619 H1643 0.949 . S
H1620 C1624 0.949 . S
C1621 C1622 1.349 . S
C1621 C1623 1.327 . S
C1621 H1644 0.950 . S
C1622 C1621 1.349 . S
C1622 C1634 1.349 . S
C1623 C1621 1.327 . S
C1623 C1639 1.429 . S
C1623 H1645 0.950 . S
C1624 H1620 0.949 . S
C1624 C1632 1.574 . S
C1624 C1640 1.368 . S
H1625 C1633 0.950 . S
H1626 C1631 0.950 . S
H1627 C1632 0.949 . S
H1628 C1634 0.950 . S
H1629 C1635 0.950 . S
H1630 C1636 0.949 . S
C1631 H1626 0.950 . S
C1631 C1633 1.327 . S
C1631 C1637 1.429 . S
C1632 C1624 1.574 . S
C1632 H1627 0.949 . S
C1632 C1638 1.368 . S
C1633 C1617 1.349 . S
C1633 H1625 0.950 . S
C1633 C1631 1.327 . S
C1634 C1622 1.349 . S
C1634 H1628 0.950 . S
C1634 C1635 1.327 . S
C1635 H1629 0.950 . S
C1635 C1634 1.327 . S
C1635 C1639 1.429 . S
C1636 C1619 1.574 . S
C1636 H1630 0.949 . S
C1636 C1640 1.368 . S
C1637 C1618 1.429 . S
C1637 C1631 1.429 . S
C1637 C1638 1.523 . S
C1638 C1619 1.368 . S
C1638 C1632 1.368 . S
C1638 C1637 1.523 . S
C1639 C1623 1.429 . S
C1639 C1635 1.429 . S
C1639 C1640 1.523 . S
C1640 C1624 1.368 . S
C1640 C1636 1.368 . S
C1640 C1639 1.523 . S
H1641 C1616 0.950 . S
H1642 C1618 0.950 . S
H1643 C1619 0.949 . S
H1644 C1621 0.950 . S
H1645 C1623 0.950 . S
C1646 C1647 1.349 . S
C1646 C1648 1.327 . S
C1646 H1671 0.950 . S
C1647 C1646 1.349 . S
C1647 C1663 1.349 . S
C1648 C1646 1.327 . S
C1648 C1667 1.429 . S
C1648 H1672 0.950 . S
C1649 C1666 1.574 . S
C1649 C1668 1.368 . S
C1649 H1673 0.949 . S
H1650 C1654 0.949 . S
C1651 C1652 1.349 . S
C1651 C1653 1.327 . S
C1651 H1674 0.950 . S
C1652 C1651 1.349 . S
C1652 C1664 1.349 . S
C1653 C1651 1.327 . S
C1653 C1669 1.429 . S
C1653 H1675 0.950 . S
C1654 H1650 0.949 . S
C1654 C1662 1.574 . S
C1654 C1670 1.368 . S
H1655 C1663 0.950 . S
H1656 C1661 0.950 . S
H1657 C1662 0.949 . S
H1658 C1664 0.950 . S
H1659 C1665 0.950 . S
H1660 C1666 0.949 . S
C1661 H1656 0.950 . S
C1661 C1663 1.327 . S
C1661 C1667 1.429 . S
C1662 C1654 1.574 . S
C1662 H1657 0.949 . S
C1662 C1668 1.368 . S
C1663 C1647 1.349 . S
C1663 H1655 0.950 . S
C1663 C1661 1.327 . S
C1664 C1652 1.349 . S
C1664 H1658 0.950 . S
C1664 C1665 1.327 . S
C1665 H1659 0.950 . S
C1665 C1664 1.327 . S
C1665 C1669 1.429 . S
C1666 C1649 1.574 . S
C1666 H1660 0.949 . S
C1666 C1670 1.368 . S
C1667 C1648 1.429 . S
C1667 C1661 1.429 . S
C1667 C1668 1.523 . S
C1668 C1649 1.368 . S
C1668 C1662 1.368 . S
C1668 C1667 1.523 . S
C1669 C1653 1.429 . S
C1669 C1665 1.429 . S
C1669 C1670 1.523 . S
C1670 C1654 1.368 . S
C1670 C1666 1.368 . S
C1670 C1669 1.523 . S
H1671 C1646 0.950 . S
H1672 C1648 0.950 . S
H1673 C1649 0.949 . S
H1674 C1651 0.950 . S
H1675 C1653 0.950 . S
C1676 C1677 1.349 . S
C1676 C1678 1.327 . S
C1676 H1701 0.950 . S
C1677 C1676 1.349 . S
C1677 C1693 1.349 . S
C1678 C1676 1.327 . S
C1678 C1697 1.429 . S
C1678 H1702 0.950 . S
C1679 C1696 1.574 . S
C1679 C1698 1.368 . S
C1679 H1703 0.949 . S
H1680 C1684 0.949 . S
C1681 C1682 1.349 . S
C1681 C1683 1.327 . S
C1681 H1704 0.950 . S
C1682 C1681 1.349 . S
C1682 C1694 1.349 . S
C1683 C1681 1.327 . S
C1683 C1699 1.429 . S
C1683 H1705 0.950 . S
C1684 H1680 0.949 . S
C1684 C1692 1.574 . S
C1684 C1700 1.368 . S
H1685 C1693 0.950 . S
H1686 C1691 0.950 . S
H1687 C1692 0.949 . S
H1688 C1694 0.950 . S
H1689 C1695 0.950 . S
H1690 C1696 0.949 . S
C1691 H1686 0.950 . S
C1691 C1693 1.327 . S
C1691 C1697 1.429 . S
C1692 C1684 1.574 . S
C1692 H1687 0.949 . S
C1692 C1698 1.368 . S
C1693 C1677 1.349 . S
C1693 H1685 0.950 . S
C1693 C1691 1.327 . S
C1694 C1682 1.349 . S
C1694 H1688 0.950 . S
C1694 C1695 1.327 . S
C1695 H1689 0.950 . S
C1695 C1694 1.327 . S
C1695 C1699 1.429 . S
C1696 C1679 1.574 . S
C1696 H1690 0.949 . S
C1696 C1700 1.368 . S
C1697 C1678 1.429 . S
C1697 C1691 1.429 . S
C1697 C1698 1.523 . S
C1698 C1679 1.368 . S
C1698 C1692 1.368 . S
C1698 C1697 1.523 . S
C1699 C1683 1.429 . S
C1699 C1695 1.429 . S
C1699 C1700 1.523 . S
C1700 C1684 1.368 . S
C1700 C1696 1.368 . S
C1700 C1699 1.523 . S
H1701 C1676 0.950 . S
H1702 C1678 0.950 . S
H1703 C1679 0.949 . S
H1704 C1681 0.950 . S
H1705 C1683 0.950 . S
C1706 C1707 1.349 . S
C1706 C1708 1.327 . S
C1706 H1731 0.950 . S
C1707 C1706 1.349 . S
C1707 C1723 1.349 . S
C1708 C1706 1.327 . S
C1708 C1727 1.429 . S
C1708 H1732 0.950 . S
C1709 C1726 1.574 . S
C1709 C1728 1.368 . S
C1709 H1733 0.949 . S
H1710 C1714 0.949 . S
C1711 C1712 1.349 . S
C1711 C1713 1.327 . S
C1711 H1734 0.950 . S
C1712 C1711 1.349 . S
C1712 C1724 1.349 . S
C1713 C1711 1.327 . S
C1713 C1729 1.429 . S
C1713 H1735 0.950 . S
C1714 H1710 0.949 . S
C1714 C1722 1.574 . S
C1714 C1730 1.368 . S
H1715 C1723 0.950 . S
H1716 C1721 0.950 . S
H1717 C1722 0.949 . S
H1718 C1724 0.950 . S
H1719 C1725 0.950 . S
H1720 C1726 0.949 . S
C1721 H1716 0.950 . S
C1721 C1723 1.327 . S
C1721 C1727 1.429 . S
C1722 C1714 1.574 . S
C1722 H1717 0.949 . S
C1722 C1728 1.368 . S
C1723 C1707 1.349 . S
C1723 H1715 0.950 . S
C1723 C1721 1.327 . S
C1724 C1712 1.349 . S
C1724 H1718 0.950 . S
C1724 C1725 1.327 . S
C1725 H1719 0.950 . S
C1725 C1724 1.327 . S
C1725 C1729 1.429 . S
C1726 C1709 1.574 . S
C1726 H1720 0.949 . S
C1726 C1730 1.368 . S
C1727 C1708 1.429 . S
C1727 C1721 1.429 . S
C1727 C1728 1.523 . S
C1728 C1709 1.368 . S
C1728 C1722 1.368 . S
C1728 C1727 1.523 . S
C1729 C1713 1.429 . S
C1729 C1725 1.429 . S
C1729 C1730 1.523 . S
C1730 C1714 1.368 . S
C1730 C1726 1.368 . S
C1730 C1729 1.523 . S
H1731 C1706 0.950 . S
H1732 C1708 0.950 . S
H1733 C1709 0.949 . S
H1734 C1711 0.950 . S
H1735 C1713 0.950 . S
C1736 C1737 1.349 . S
C1736 C1738 1.327 . S
C1736 H1761 0.950 . S
C1737 C1736 1.349 . S
C1737 C1753 1.349 . S
C1738 C1736 1.327 . S
C1738 C1757 1.429 . S
C1738 H1762 0.950 . S
C1739 C1756 1.574 . S
C1739 C1758 1.368 . S
C1739 H1763 0.949 . S
H1740 C1744 0.949 . S
C1741 C1742 1.349 . S
C1741 C1743 1.327 . S
C1741 H1764 0.950 . S
C1742 C1741 1.349 . S
C1742 C1754 1.349 . S
C1743 C1741 1.327 . S
C1743 C1759 1.429 . S
C1743 H1765 0.950 . S
C1744 H1740 0.949 . S
C1744 C1752 1.574 . S
C1744 C1760 1.368 . S
H1745 C1753 0.950 . S
H1746 C1751 0.950 . S
H1747 C1752 0.949 . S
H1748 C1754 0.950 . S
H1749 C1755 0.950 . S
H1750 C1756 0.949 . S
C1751 H1746 0.950 . S
C1751 C1753 1.327 . S
C1751 C1757 1.429 . S
C1752 C1744 1.574 . S
C1752 H1747 0.949 . S
C1752 C1758 1.368 . S
C1753 C1737 1.349 . S
C1753 H1745 0.950 . S
C1753 C1751 1.327 . S
C1754 C1742 1.349 . S
C1754 H1748 0.950 . S
C1754 C1755 1.327 . S
C1755 H1749 0.950 . S
C1755 C1754 1.327 . S
C1755 C1759 1.429 . S
C1756 C1739 1.574 . S
C1756 H1750 0.949 . S
C1756 C1760 1.368 . S
C1757 C1738 1.429 . S
C1757 C1751 1.429 . S
C1757 C1758 1.523 . S
C1758 C1739 1.368 . S
C1758 C1752 1.368 . S
C1758 C1757 1.523 . S
C1759 C1743 1.429 . S
C1759 C1755 1.429 . S
C1759 C1760 1.523 . S
C1760 C1744 1.368 . S
C1760 C1756 1.368 . S
C1760 C1759 1.523 . S
H1761 C1736 0.950 . S
H1762 C1738 0.950 . S
H1763 C1739 0.949 . S
H1764 C1741 0.950 . S
H1765 C1743 0.950 . S
C1766 C1767 1.349 . S
C1766 C1768 1.327 . S
C1766 H1791 0.950 . S
C1767 C1766 1.349 . S
C1767 C1783 1.349 . S
C1768 C1766 1.327 . S
C1768 C1787 1.429 . S
C1768 H1792 0.950 . S
C1769 C1786 1.574 1_655 S
C1769 C1788 1.368 . S
C1769 H1793 0.949 . S
H1770 C1774 0.949 . S
C1771 C1772 1.349 . S
C1771 C1773 1.327 . S
C1771 H1794 0.950 . S
C1772 C1771 1.349 . S
C1772 C1784 1.349 . S
C1773 C1771 1.327 . S
C1773 C1789 1.429 . S
C1773 H1795 0.950 . S
C1774 H1770 0.949 . S
C1774 C1782 1.574 1_455 S
C1774 C1790 1.368 . S
H1775 C1783 0.950 . S
H1776 C1781 0.950 . S
H1777 C1782 0.949 . S
H1778 C1784 0.950 . S
H1779 C1785 0.950 . S
H1780 C1786 0.949 . S
C1781 H1776 0.950 . S
C1781 C1783 1.327 . S
C1781 C1787 1.429 . S
C1782 C1774 1.574 1_655 S
C1782 H1777 0.949 . S
C1782 C1788 1.368 . S
C1783 C1767 1.349 . S
C1783 H1775 0.950 . S
C1783 C1781 1.327 . S
C1784 C1772 1.349 . S
C1784 H1778 0.950 . S
C1784 C1785 1.327 . S
C1785 H1779 0.950 . S
C1785 C1784 1.327 . S
C1785 C1789 1.429 . S
C1786 C1769 1.574 1_455 S
C1786 H1780 0.949 . S
C1786 C1790 1.368 . S
C1787 C1768 1.429 . S
C1787 C1781 1.429 . S
C1787 C1788 1.523 . S
C1788 C1769 1.368 . S
C1788 C1782 1.368 . S
C1788 C1787 1.523 . S
C1789 C1773 1.429 . S
C1789 C1785 1.429 . S
C1789 C1790 1.523 . S
C1790 C1774 1.368 . S
C1790 C1786 1.368 . S
C1790 C1789 1.523 . S
H1791 C1766 0.950 . S
H1792 C1768 0.950 . S
H1793 C1769 0.949 . S
H1794 C1771 0.950 . S
H1795 C1773 0.950 . S
C1796 C1797 1.349 . S
C1796 C1798 1.327 . S
C1796 H1821 0.950 . S
C1797 C1796 1.349 . S
C1797 C1813 1.349 . S
C1798 C1796 1.327 . S
C1798 C1817 1.429 . S
C1798 H1822 0.950 . S
C1799 C1816 1.574 1_655 S
C1799 C1818 1.368 . S
C1799 H1823 0.949 . S
H1800 C1804 0.949 . S
C1801 C1802 1.349 . S
C1801 C1803 1.327 . S
C1801 H1824 0.950 . S
C1802 C1801 1.349 . S
C1802 C1814 1.349 . S
C1803 C1801 1.327 . S
C1803 C1819 1.429 . S
C1803 H1825 0.950 . S
C1804 H1800 0.949 . S
C1804 C1812 1.574 1_455 S
C1804 C1820 1.368 . S
H1805 C1813 0.950 . S
H1806 C1811 0.950 . S
H1807 C1812 0.949 . S
H1808 C1814 0.950 . S
H1809 C1815 0.950 . S
H1810 C1816 0.949 . S
C1811 H1806 0.950 . S
C1811 C1813 1.327 . S
C1811 C1817 1.429 . S
C1812 C1804 1.574 1_655 S
C1812 H1807 0.949 . S
C1812 C1818 1.368 . S
C1813 C1797 1.349 . S
C1813 H1805 0.950 . S
C1813 C1811 1.327 . S
C1814 C1802 1.349 . S
C1814 H1808 0.950 . S
C1814 C1815 1.327 . S
C1815 H1809 0.950 . S
C1815 C1814 1.327 . S
C1815 C1819 1.429 . S
C1816 C1799 1.574 1_455 S
C1816 H1810 0.949 . S
C1816 C1820 1.368 . S
C1817 C1798 1.429 . S
C1817 C1811 1.429 . S
C1817 C1818 1.523 . S
C1818 C1799 1.368 . S
C1818 C1812 1.368 . S
C1818 C1817 1.523 . S
C1819 C1803 1.429 . S
C1819 C1815 1.429 . S
C1819 C1820 1.523 . S
C1820 C1804 1.368 . S
C1820 C1816 1.368 . S
C1820 C1819 1.523 . S
H1821 C1796 0.950 . S
H1822 C1798 0.950 . S
H1823 C1799 0.949 . S
H1824 C1801 0.950 . S
H1825 C1803 0.950 . S
C1826 C1827 1.349 . S
C1826 C1828 1.327 . S
C1826 H1851 0.950 . S
C1827 C1826 1.349 . S
C1827 C1843 1.349 . S
C1828 C1826 1.327 . S
C1828 C1847 1.429 . S
C1828 H1852 0.950 . S
C1829 C1846 1.574 . S
C1829 C1848 1.368 . S
C1829 H1853 0.949 . S
H1830 C1834 0.949 . S
C1831 C1832 1.349 . S
C1831 C1833 1.327 . S
C1831 H1854 0.950 . S
C1832 C1831 1.349 . S
C1832 C1844 1.349 . S
C1833 C1831 1.327 . S
C1833 C1849 1.429 . S
C1833 H1855 0.950 . S
C1834 H1830 0.949 . S
C1834 C1842 1.574 . S
C1834 C1850 1.368 . S
H1835 C1843 0.950 . S
H1836 C1841 0.950 . S
H1837 C1842 0.949 . S
H1838 C1844 0.950 . S
H1839 C1845 0.950 . S
H1840 C1846 0.949 . S
C1841 H1836 0.950 . S
C1841 C1843 1.327 . S
C1841 C1847 1.429 . S
C1842 C1834 1.574 . S
C1842 H1837 0.949 . S
C1842 C1848 1.368 . S
C1843 C1827 1.349 . S
C1843 H1835 0.950 . S
C1843 C1841 1.327 . S
C1844 C1832 1.349 . S
C1844 H1838 0.950 . S
C1844 C1845 1.327 . S
C1845 H1839 0.950 . S
C1845 C1844 1.327 . S
C1845 C1849 1.429 . S
C1846 C1829 1.574 . S
C1846 H1840 0.949 . S
C1846 C1850 1.368 . S
C1847 C1828 1.429 . S
C1847 C1841 1.429 . S
C1847 C1848 1.523 . S
C1848 C1829 1.368 . S
C1848 C1842 1.368 . S
C1848 C1847 1.523 . S
C1849 C1833 1.429 . S
C1849 C1845 1.429 . S
C1849 C1850 1.523 . S
C1850 C1834 1.368 . S
C1850 C1846 1.368 . S
C1850 C1849 1.523 . S
H1851 C1826 0.950 . S
H1852 C1828 0.950 . S
H1853 C1829 0.949 . S
H1854 C1831 0.950 . S
H1855 C1833 0.950 . S
C1856 C1857 1.349 . S
C1856 C1858 1.327 . S
C1856 H1881 0.950 . S
C1857 C1856 1.349 . S
C1857 C1873 1.349 . S
C1858 C1856 1.327 . S
C1858 C1877 1.429 . S
C1858 H1882 0.950 . S
C1859 C1876 1.574 . S
C1859 C1878 1.368 . S
C1859 H1883 0.949 . S
H1860 C1864 0.949 . S
C1861 C1862 1.349 . S
C1861 C1863 1.327 . S
C1861 H1884 0.950 . S
C1862 C1861 1.349 . S
C1862 C1874 1.349 . S
C1863 C1861 1.327 . S
C1863 C1879 1.429 . S
C1863 H1885 0.950 . S
C1864 H1860 0.949 . S
C1864 C1872 1.574 . S
C1864 C1880 1.368 . S
H1865 C1873 0.950 . S
H1866 C1871 0.950 . S
H1867 C1872 0.949 . S
H1868 C1874 0.950 . S
H1869 C1875 0.950 . S
H1870 C1876 0.949 . S
C1871 H1866 0.950 . S
C1871 C1873 1.327 . S
C1871 C1877 1.429 . S
C1872 C1864 1.574 . S
C1872 H1867 0.949 . S
C1872 C1878 1.368 . S
C1873 C1857 1.349 . S
C1873 H1865 0.950 . S
C1873 C1871 1.327 . S
C1874 C1862 1.349 . S
C1874 H1868 0.950 . S
C1874 C1875 1.327 . S
C1875 H1869 0.950 . S
C1875 C1874 1.327 . S
C1875 C1879 1.429 . S
C1876 C1859 1.574 . S
C1876 H1870 0.949 . S
C1876 C1880 1.368 . S
C1877 C1858 1.429 . S
C1877 C1871 1.429 . S
C1877 C1878 1.523 . S
C1878 C1859 1.368 . S
C1878 C1872 1.368 . S
C1878 C1877 1.523 . S
C1879 C1863 1.429 . S
C1879 C1875 1.429 . S
C1879 C1880 1.523 . S
C1880 C1864 1.368 . S
C1880 C1876 1.368 . S
C1880 C1879 1.523 . S
H1881 C1856 0.950 . S
H1882 C1858 0.950 . S
H1883 C1859 0.949 . S
H1884 C1861 0.950 . S
H1885 C1863 0.950 . S
C1886 C1887 1.349 . S
C1886 C1888 1.327 . S
C1886 H1911 0.950 . S
C1887 C1886 1.349 . S
C1887 C1903 1.349 . S
C1888 C1886 1.327 . S
C1888 C1907 1.429 . S
C1888 H1912 0.950 . S
C1889 C1906 1.574 . S
C1889 C1908 1.368 . S
C1889 H1913 0.949 . S
H1890 C1894 0.949 . S
C1891 C1892 1.349 . S
C1891 C1893 1.327 . S
C1891 H1914 0.950 . S
C1892 C1891 1.349 . S
C1892 C1904 1.349 . S
C1893 C1891 1.327 . S
C1893 C1909 1.429 . S
C1893 H1915 0.950 . S
C1894 H1890 0.949 . S
C1894 C1902 1.574 . S
C1894 C1910 1.368 . S
H1895 C1903 0.950 . S
H1896 C1901 0.950 . S
H1897 C1902 0.949 . S
H1898 C1904 0.950 . S
H1899 C1905 0.950 . S
H1900 C1906 0.949 . S
C1901 H1896 0.950 . S
C1901 C1903 1.327 . S
C1901 C1907 1.429 . S
C1902 C1894 1.574 . S
C1902 H1897 0.949 . S
C1902 C1908 1.368 . S
C1903 C1887 1.349 . S
C1903 H1895 0.950 . S
C1903 C1901 1.327 . S
C1904 C1892 1.349 . S
C1904 H1898 0.950 . S
C1904 C1905 1.327 . S
C1905 H1899 0.950 . S
C1905 C1904 1.327 . S
C1905 C1909 1.429 . S
C1906 C1889 1.574 . S
C1906 H1900 0.949 . S
C1906 C1910 1.368 . S
C1907 C1888 1.429 . S
C1907 C1901 1.429 . S
C1907 C1908 1.523 . S
C1908 C1889 1.368 . S
C1908 C1902 1.368 . S
C1908 C1907 1.523 . S
C1909 C1893 1.429 . S
C1909 C1905 1.429 . S
C1909 C1910 1.523 . S
C1910 C1894 1.368 . S
C1910 C1906 1.368 . S
C1910 C1909 1.523 . S
H1911 C1886 0.950 . S
H1912 C1888 0.950 . S
H1913 C1889 0.949 . S
H1914 C1891 0.950 . S
H1915 C1893 0.950 . S
C1916 C1917 1.349 1_556 S
C1916 C1918 1.327 . S
C1916 H1941 0.950 . S
C1917 C1916 1.349 1_554 S
C1917 C1933 1.349 . S
C1918 C1916 1.327 . S
C1918 C1937 1.429 . S
C1918 H1942 0.950 . S
C1919 C1936 1.574 . S
C1919 C1938 1.368 . S
C1919 H1943 0.949 . S
H1920 C1924 0.949 . S
C1921 C1922 1.349 . S
C1921 C1923 1.327 . S
C1921 H1944 0.950 . S
C1922 C1921 1.349 . S
C1922 C1934 1.349 . S
C1923 C1921 1.327 . S
C1923 C1939 1.429 . S
C1923 H1945 0.950 . S
C1924 H1920 0.949 . S
C1924 C1932 1.574 . S
C1924 C1940 1.368 . S
H1925 C1933 0.950 . S
H1926 C1931 0.950 . S
H1927 C1932 0.949 . S
H1928 C1934 0.950 . S
H1929 C1935 0.950 . S
H1930 C1936 0.949 . S
C1931 H1926 0.950 . S
C1931 C1933 1.327 1_556 S
C1931 C1937 1.429 . S
C1932 C1924 1.574 . S
C1932 H1927 0.949 . S
C1932 C1938 1.368 . S
C1933 C1917 1.349 . S
C1933 H1925 0.950 . S
C1933 C1931 1.327 1_554 S
C1934 C1922 1.349 . S
C1934 H1928 0.950 . S
C1934 C1935 1.327 . S
C1935 H1929 0.950 . S
C1935 C1934 1.327 . S
C1935 C1939 1.429 . S
C1936 C1919 1.574 . S
C1936 H1930 0.949 . S
C1936 C1940 1.368 . S
C1937 C1918 1.429 . S
C1937 C1931 1.429 . S
C1937 C1938 1.523 . S
C1938 C1919 1.368 . S
C1938 C1932 1.368 . S
C1938 C1937 1.523 . S
C1939 C1923 1.429 . S
C1939 C1935 1.429 . S
C1939 C1940 1.523 . S
C1940 C1924 1.368 . S
C1940 C1936 1.368 . S
C1940 C1939 1.523 . S
H1941 C1916 0.950 . S
H1942 C1918 0.950 . S
H1943 C1919 0.949 . S
H1944 C1921 0.950 . S
H1945 C1923 0.950 . S
C1946 C1947 1.349 . S
C1946 C1948 1.327 1_556 S
C1946 H1971 0.950 . S
C1947 C1946 1.349 . S
C1947 C1963 1.349 1_556 S
C1948 C1946 1.327 1_554 S
C1948 C1967 1.429 . S
C1948 H1972 0.950 . S
C1949 C1966 1.574 . S
C1949 C1968 1.368 . S
C1949 H1973 0.949 . S
H1950 C1954 0.949 . S
C1951 C1952 1.349 . S
C1951 C1953 1.327 . S
C1951 H1974 0.950 . S
C1952 C1951 1.349 . S
C1952 C1964 1.349 . S
C1953 C1951 1.327 . S
C1953 C1969 1.429 . S
C1953 H1975 0.950 . S
C1954 H1950 0.949 . S
C1954 C1962 1.574 . S
C1954 C1970 1.368 . S
H1955 C1963 0.950 . S
H1956 C1961 0.950 . S
H1957 C1962 0.949 . S
H1958 C1964 0.950 . S
H1959 C1965 0.950 . S
H1960 C1966 0.949 . S
C1961 H1956 0.950 . S
C1961 C1963 1.327 . S
C1961 C1967 1.429 . S
C1962 C1954 1.574 . S
C1962 H1957 0.949 . S
C1962 C1968 1.368 . S
C1963 C1947 1.349 1_554 S
C1963 H1955 0.950 . S
C1963 C1961 1.327 . S
C1964 C1952 1.349 . S
C1964 H1958 0.950 . S
C1964 C1965 1.327 . S
C1965 H1959 0.950 . S
C1965 C1964 1.327 . S
C1965 C1969 1.429 . S
C1966 C1949 1.574 . S
C1966 H1960 0.949 . S
C1966 C1970 1.368 . S
C1967 C1948 1.429 . S
C1967 C1961 1.429 . S
C1967 C1968 1.523 . S
C1968 C1949 1.368 . S
C1968 C1962 1.368 . S
C1968 C1967 1.523 . S
C1969 C1953 1.429 . S
C1969 C1965 1.429 . S
C1969 C1970 1.523 . S
C1970 C1954 1.368 . S
C1970 C1966 1.368 . S
C1970 C1969 1.523 . S
H1971 C1946 0.950 . S
H1972 C1948 0.950 . S
H1973 C1949 0.949 . S
H1974 C1951 0.950 . S
H1975 C1953 0.950 . S
C1976 C1977 1.349 . S
C1976 C1978 1.327 . S
C1976 H2001 0.950 . S
C1977 C1976 1.349 . S
C1977 C1993 1.349 . S
C1978 C1976 1.327 . S
C1978 C1997 1.429 . S
C1978 H2002 0.950 . S
C1979 C1996 1.574 . S
C1979 C1998 1.368 . S
C1979 H2003 0.949 . S
H1980 C1984 0.949 . S
C1981 C1982 1.349 . S
C1981 C1983 1.327 . S
C1981 H2004 0.950 . S
C1982 C1981 1.349 . S
C1982 C1994 1.349 . S
C1983 C1981 1.327 . S
C1983 C1999 1.429 . S
C1983 H2005 0.950 . S
C1984 H1980 0.949 . S
C1984 C1992 1.574 . S
C1984 C2000 1.368 . S
H1985 C1993 0.950 . S
H1986 C1991 0.950 . S
H1987 C1992 0.949 . S
H1988 C1994 0.950 . S
H1989 C1995 0.950 . S
H1990 C1996 0.949 . S
C1991 H1986 0.950 . S
C1991 C1993 1.327 . S
C1991 C1997 1.429 . S
C1992 C1984 1.574 . S
C1992 H1987 0.949 . S
C1992 C1998 1.368 . S
C1993 C1977 1.349 . S
C1993 H1985 0.950 . S
C1993 C1991 1.327 . S
C1994 C1982 1.349 . S
C1994 H1988 0.950 . S
C1994 C1995 1.327 . S
C1995 H1989 0.950 . S
C1995 C1994 1.327 . S
C1995 C1999 1.429 . S
C1996 C1979 1.574 . S
C1996 H1990 0.949 . S
C1996 C2000 1.368 . S
C1997 C1978 1.429 . S
C1997 C1991 1.429 . S
C1997 C1998 1.523 . S
C1998 C1979 1.368 . S
C1998 C1992 1.368 . S
C1998 C1997 1.523 . S
C1999 C1983 1.429 . S
C1999 C1995 1.429 . S
C1999 C2000 1.523 . S
C2000 C1984 1.368 . S
C2000 C1996 1.368 . S
C2000 C1999 1.523 . S
H2001 C1976 0.950 . S
H2002 C1978 0.950 . S
H2003 C1979 0.949 . S
H2004 C1981 0.950 . S
H2005 C1983 0.950 . S
C2006 C2007 1.349 . S
C2006 C2008 1.327 . S
C2006 H2031 0.950 . S
C2007 C2006 1.349 . S
C2007 C2023 1.349 . S
C2008 C2006 1.327 . S
C2008 C2027 1.429 . S
C2008 H2032 0.950 . S
C2009 C2026 1.574 . S
C2009 C2028 1.368 . S
C2009 H2033 0.949 . S
H2010 C2014 0.949 . S
C2011 C2012 1.349 . S
C2011 C2013 1.327 . S
C2011 H2034 0.950 . S
C2012 C2011 1.349 . S
C2012 C2024 1.349 . S
C2013 C2011 1.327 . S
C2013 C2029 1.429 . S
C2013 H2035 0.950 . S
C2014 H2010 0.949 . S
C2014 C2022 1.574 . S
C2014 C2030 1.368 . S
H2015 C2023 0.950 . S
H2016 C2021 0.950 . S
H2017 C2022 0.949 . S
H2018 C2024 0.950 . S
H2019 C2025 0.950 . S
H2020 C2026 0.949 . S
C2021 H2016 0.950 . S
C2021 C2023 1.327 . S
C2021 C2027 1.429 . S
C2022 C2014 1.574 . S
C2022 H2017 0.949 . S
C2022 C2028 1.368 . S
C2023 C2007 1.349 . S
C2023 H2015 0.950 . S
C2023 C2021 1.327 . S
C2024 C2012 1.349 . S
C2024 H2018 0.950 . S
C2024 C2025 1.327 . S
C2025 H2019 0.950 . S
C2025 C2024 1.327 . S
C2025 C2029 1.429 . S
C2026 C2009 1.574 . S
C2026 H2020 0.949 . S
C2026 C2030 1.368 . S
C2027 C2008 1.429 . S
C2027 C2021 1.429 . S
C2027 C2028 1.523 . S
C2028 C2009 1.368 . S
C2028 C2022 1.368 . S
C2028 C2027 1.523 . S
C2029 C2013 1.429 . S
C2029 C2025 1.429 . S
C2029 C2030 1.523 . S
C2030 C2014 1.368 . S
C2030 C2026 1.368 . S
C2030 C2029 1.523 . S
H2031 C2006 0.950 . S
H2032 C2008 0.950 . S
H2033 C2009 0.949 . S
H2034 C2011 0.950 . S
H2035 C2013 0.950 . S
C2036 C2037 1.349 . S
C2036 C2038 1.327 . S
C2036 H2061 0.950 . S
C2037 C2036 1.349 . S
C2037 C2053 1.349 . S
C2038 C2036 1.327 . S
C2038 C2057 1.429 . S
C2038 H2062 0.950 . S
C2039 C2056 1.574 . S
C2039 C2058 1.368 . S
C2039 H2063 0.949 . S
H2040 C2044 0.949 . S
C2041 C2042 1.349 1_554 S
C2041 C2043 1.327 . S
C2041 H2064 0.950 . S
C2042 C2041 1.349 1_556 S
C2042 C2054 1.349 . S
C2043 C2041 1.327 . S
C2043 C2059 1.429 . S
C2043 H2065 0.950 . S
C2044 H2040 0.949 . S
C2044 C2052 1.574 . S
C2044 C2060 1.368 . S
H2045 C2053 0.950 . S
H2046 C2051 0.950 . S
H2047 C2052 0.949 . S
H2048 C2054 0.950 . S
H2049 C2055 0.950 . S
H2050 C2056 0.949 . S
C2051 H2046 0.950 . S
C2051 C2053 1.327 . S
C2051 C2057 1.429 . S
C2052 C2044 1.574 . S
C2052 H2047 0.949 . S
C2052 C2058 1.368 . S
C2053 C2037 1.349 . S
C2053 H2045 0.950 . S
C2053 C2051 1.327 . S
C2054 C2042 1.349 . S
C2054 H2048 0.950 . S
C2054 C2055 1.327 1_556 S
C2055 H2049 0.950 . S
C2055 C2054 1.327 1_554 S
C2055 C2059 1.429 . S
C2056 C2039 1.574 . S
C2056 H2050 0.949 . S
C2056 C2060 1.368 . S
C2057 C2038 1.429 . S
C2057 C2051 1.429 . S
C2057 C2058 1.523 . S
C2058 C2039 1.368 . S
C2058 C2052 1.368 . S
C2058 C2057 1.523 . S
C2059 C2043 1.429 . S
C2059 C2055 1.429 . S
C2059 C2060 1.523 . S
C2060 C2044 1.368 . S
C2060 C2056 1.368 . S
C2060 C2059 1.523 . S
H2061 C2036 0.950 . S
H2062 C2038 0.950 . S
H2063 C2039 0.949 . S
H2064 C2041 0.950 . S
H2065 C2043 0.950 . S
C2066 C2067 1.349 . S
C2066 C2068 1.327 . S
C2066 H2091 0.950 . S
C2067 C2066 1.349 . S
C2067 C2083 1.349 . S
C2068 C2066 1.327 . S
C2068 C2087 1.429 . S
C2068 H2092 0.950 . S
C2069 C2086 1.574 . S
C2069 C2088 1.368 . S
C2069 H2093 0.949 . S
H2070 C2074 0.949 . S
C2071 C2072 1.349 1_556 S
C2071 C2073 1.327 . S
C2071 H2094 0.950 . S
C2072 C2071 1.349 1_554 S
C2072 C2084 1.349 . S
C2073 C2071 1.327 . S
C2073 C2089 1.429 . S
C2073 H2095 0.950 . S
C2074 H2070 0.949 . S
C2074 C2082 1.574 . S
C2074 C2090 1.368 . S
H2075 C2083 0.950 . S
H2076 C2081 0.950 . S
H2077 C2082 0.949 . S
H2078 C2084 0.950 . S
H2079 C2085 0.950 . S
H2080 C2086 0.949 . S
C2081 H2076 0.950 . S
C2081 C2083 1.327 . S
C2081 C2087 1.429 . S
C2082 C2074 1.574 . S
C2082 H2077 0.949 . S
C2082 C2088 1.368 . S
C2083 C2067 1.349 . S
C2083 H2075 0.950 . S
C2083 C2081 1.327 . S
C2084 C2072 1.349 . S
C2084 H2078 0.950 . S
C2084 C2085 1.327 1_554 S
C2085 H2079 0.950 . S
C2085 C2084 1.327 1_556 S
C2085 C2089 1.429 . S
C2086 C2069 1.574 . S
C2086 H2080 0.949 . S
C2086 C2090 1.368 . S
C2087 C2068 1.429 . S
C2087 C2081 1.429 . S
C2087 C2088 1.523 . S
C2088 C2069 1.368 . S
C2088 C2082 1.368 . S
C2088 C2087 1.523 . S
C2089 C2073 1.429 . S
C2089 C2085 1.429 . S
C2089 C2090 1.523 . S
C2090 C2074 1.368 . S
C2090 C2086 1.368 . S
C2090 C2089 1.523 . S
H2091 C2066 0.950 . S
H2092 C2068 0.950 . S
H2093 C2069 0.949 . S
H2094 C2071 0.950 . S
H2095 C2073 0.950 . S
C2096 C2097 1.349 1_556 S
C2096 C2098 1.327 . S
C2096 H2121 0.950 . S
C2097 C2096 1.349 1_554 S
C2097 C2113 1.349 . S
C2098 C2096 1.327 . S
C2098 C2117 1.429 . S
C2098 H2122 0.950 . S
C2099 C2116 1.574 . S
C2099 C2118 1.368 . S
C2099 H2123 0.949 . S
H2100 C2104 0.949 . S
C2101 C2102 1.349 . S
C2101 C2103 1.327 . S
C2101 H2124 0.950 . S
C2102 C2101 1.349 . S
C2102 C2114 1.349 . S
C2103 C2101 1.327 . S
C2103 C2119 1.429 . S
C2103 H2125 0.950 . S
C2104 H2100 0.949 . S
C2104 C2112 1.574 . S
C2104 C2120 1.368 . S
H2105 C2113 0.950 . S
H2106 C2111 0.950 . S
H2107 C2112 0.949 . S
H2108 C2114 0.950 . S
H2109 C2115 0.950 . S
H2110 C2116 0.949 . S
C2111 H2106 0.950 . S
C2111 C2113 1.327 1_556 S
C2111 C2117 1.429 . S
C2112 C2104 1.574 . S
C2112 H2107 0.949 . S
C2112 C2118 1.368 . S
C2113 C2097 1.349 . S
C2113 H2105 0.950 . S
C2113 C2111 1.327 1_554 S
C2114 C2102 1.349 . S
C2114 H2108 0.950 . S
C2114 C2115 1.327 . S
C2115 H2109 0.950 . S
C2115 C2114 1.327 . S
C2115 C2119 1.429 . S
C2116 C2099 1.574 . S
C2116 H2110 0.949 . S
C2116 C2120 1.368 . S
C2117 C2098 1.429 . S
C2117 C2111 1.429 . S
C2117 C2118 1.523 . S
C2118 C2099 1.368 . S
C2118 C2112 1.368 . S
C2118 C2117 1.523 . S
C2119 C2103 1.429 . S
C2119 C2115 1.429 . S
C2119 C2120 1.523 . S
C2120 C2104 1.368 . S
C2120 C2116 1.368 . S
C2120 C2119 1.523 . S
H2121 C2096 0.950 . S
H2122 C2098 0.950 . S
H2123 C2099 0.949 . S
H2124 C2101 0.950 . S
H2125 C2103 0.950 . S
C2126 C2127 1.349 . S
C2126 C2128 1.327 . S
C2126 H2151 0.950 . S
C2127 C2126 1.349 . S
C2127 C2143 1.349 . S
C2128 C2126 1.327 . S
C2128 C2147 1.429 . S
C2128 H2152 0.950 . S
C2129 C2146 1.574 . S
C2129 C2148 1.368 . S
C2129 H2153 0.949 . S
H2130 C2134 0.949 . S
C2131 C2132 1.349 . S
C2131 C2133 1.327 1_556 S
C2131 H2154 0.950 . S
C2132 C2131 1.349 . S
C2132 C2144 1.349 1_556 S
C2133 C2131 1.327 1_554 S
C2133 C2149 1.429 . S
C2133 H2155 0.950 . S
C2134 H2130 0.949 . S
C2134 C2142 1.574 . S
C2134 C2150 1.368 . S
H2135 C2143 0.950 . S
H2136 C2141 0.950 . S
H2137 C2142 0.949 . S
H2138 C2144 0.950 1_556 S
H2139 C2145 0.950 . S
H2140 C2146 0.949 . S
C2141 H2136 0.950 . S
C2141 C2143 1.327 . S
C2141 C2147 1.429 . S
C2142 C2134 1.574 . S
C2142 H2137 0.949 . S
C2142 C2148 1.368 . S
C2143 C2127 1.349 . S
C2143 H2135 0.950 . S
C2143 C2141 1.327 . S
C2144 C2132 1.349 1_554 S
C2144 H2138 0.950 1_554 S
C2144 C2145 1.327 . S
C2145 H2139 0.950 . S
C2145 C2144 1.327 . S
C2145 C2149 1.429 . S
C2146 C2129 1.574 . S
C2146 H2140 0.949 . S
C2146 C2150 1.368 . S
C2147 C2128 1.429 . S
C2147 C2141 1.429 . S
C2147 C2148 1.523 . S
C2148 C2129 1.368 . S
C2148 C2142 1.368 . S
C2148 C2147 1.523 . S
C2149 C2133 1.429 . S
C2149 C2145 1.429 . S
C2149 C2150 1.523 . S
C2150 C2134 1.368 . S
C2150 C2146 1.368 . S
C2150 C2149 1.523 . S
H2151 C2126 0.950 . S
H2152 C2128 0.950 . S
H2153 C2129 0.949 . S
H2154 C2131 0.950 . S
H2155 C2133 0.950 . S
C2156 C2157 1.349 . S
C2156 C2158 1.327 . S
C2156 H2181 0.950 . S
C2157 C2156 1.349 . S
C2157 C2173 1.349 . S
C2158 C2156 1.327 . S
C2158 C2177 1.429 . S
C2158 H2182 0.950 . S
C2159 C2176 1.574 . S
C2159 C2178 1.368 . S
C2159 H2183 0.949 . S
H2160 C2164 0.949 . S
C2161 C2162 1.349 . S
C2161 C2163 1.327 . S
C2161 H2184 0.950 . S
C2162 C2161 1.349 . S
C2162 C2174 1.349 . S
C2163 C2161 1.327 . S
C2163 C2179 1.429 . S
C2163 H2185 0.950 . S
C2164 H2160 0.949 . S
C2164 C2172 1.574 . S
C2164 C2180 1.368 . S
H2165 C2173 0.950 . S
H2166 C2171 0.950 . S
H2167 C2172 0.949 . S
H2168 C2174 0.950 . S
H2169 C2175 0.950 . S
H2170 C2176 0.949 . S
C2171 H2166 0.950 . S
C2171 C2173 1.327 . S
C2171 C2177 1.429 . S
C2172 C2164 1.574 . S
C2172 H2167 0.949 . S
C2172 C2178 1.368 . S
C2173 C2157 1.349 . S
C2173 H2165 0.950 . S
C2173 C2171 1.327 . S
C2174 C2162 1.349 . S
C2174 H2168 0.950 . S
C2174 C2175 1.327 . S
C2175 H2169 0.950 . S
C2175 C2174 1.327 . S
C2175 C2179 1.429 . S
C2176 C2159 1.574 . S
C2176 H2170 0.949 . S
C2176 C2180 1.368 . S
C2177 C2158 1.429 . S
C2177 C2171 1.429 . S
C2177 C2178 1.523 . S
C2178 C2159 1.368 . S
C2178 C2172 1.368 . S
C2178 C2177 1.523 . S
C2179 C2163 1.429 . S
C2179 C2175 1.429 . S
C2179 C2180 1.523 . S
C2180 C2164 1.368 . S
C2180 C2176 1.368 . S
C2180 C2179 1.523 . S
H2181 C2156 0.950 . S
H2182 C2158 0.950 . S
H2183 C2159 0.949 . S
H2184 C2161 0.950 . S
H2185 C2163 0.950 . S
C2186 C2187 1.349 . S
C2186 C2188 1.327 . S
C2186 H2211 0.950 . S
C2187 C2186 1.349 . S
C2187 C2203 1.349 . S
C2188 C2186 1.327 . S
C2188 C2207 1.429 . S
C2188 H2212 0.950 . S
C2189 C2206 1.574 . S
C2189 C2208 1.368 . S
C2189 H2213 0.949 . S
H2190 C2194 0.949 . S
C2191 C2192 1.349 . S
C2191 C2193 1.327 . S
C2191 H2214 0.950 . S
C2192 C2191 1.349 . S
C2192 C2204 1.349 . S
C2193 C2191 1.327 . S
C2193 C2209 1.429 . S
C2193 H2215 0.950 . S
C2194 H2190 0.949 . S
C2194 C2202 1.574 . S
C2194 C2210 1.368 . S
H2195 C2203 0.950 . S
H2196 C2201 0.950 . S
H2197 C2202 0.949 . S
H2198 C2204 0.950 . S
H2199 C2205 0.950 . S
H2200 C2206 0.949 . S
C2201 H2196 0.950 . S
C2201 C2203 1.327 . S
C2201 C2207 1.429 . S
C2202 C2194 1.574 . S
C2202 H2197 0.949 . S
C2202 C2208 1.368 . S
C2203 C2187 1.349 . S
C2203 H2195 0.950 . S
C2203 C2201 1.327 . S
C2204 C2192 1.349 . S
C2204 H2198 0.950 . S
C2204 C2205 1.327 . S
C2205 H2199 0.950 . S
C2205 C2204 1.327 . S
C2205 C2209 1.429 . S
C2206 C2189 1.574 . S
C2206 H2200 0.949 . S
C2206 C2210 1.368 . S
C2207 C2188 1.429 . S
C2207 C2201 1.429 . S
C2207 C2208 1.523 . S
C2208 C2189 1.368 . S
C2208 C2202 1.368 . S
C2208 C2207 1.523 . S
C2209 C2193 1.429 . S
C2209 C2205 1.429 . S
C2209 C2210 1.523 . S
C2210 C2194 1.368 . S
C2210 C2206 1.368 . S
C2210 C2209 1.523 . S
H2211 C2186 0.950 . S
H2212 C2188 0.950 . S
H2213 C2189 0.949 . S
H2214 C2191 0.950 . S
H2215 C2193 0.950 . S
C2216 C2217 1.349 . S
C2216 C2218 1.327 . S
C2216 H2241 0.950 . S
C2217 C2216 1.349 . S
C2217 C2233 1.349 . S
C2218 C2216 1.327 . S
C2218 C2237 1.429 . S
C2218 H2242 0.950 . S
C2219 C2236 1.574 . S
C2219 C2238 1.368 . S
C2219 H2243 0.949 . S
H2220 C2224 0.949 . S
C2221 C2222 1.349 1_554 S
C2221 C2223 1.327 . S
C2221 H2244 0.950 . S
C2222 C2221 1.349 1_556 S
C2222 C2234 1.349 . S
C2223 C2221 1.327 . S
C2223 C2239 1.429 . S
C2223 H2245 0.950 . S
C2224 H2220 0.949 . S
C2224 C2232 1.574 . S
C2224 C2240 1.368 . S
H2225 C2233 0.950 . S
H2226 C2231 0.950 . S
H2227 C2232 0.949 . S
H2228 C2234 0.950 . S
H2229 C2235 0.950 . S
H2230 C2236 0.949 . S
C2231 H2226 0.950 . S
C2231 C2233 1.327 . S
C2231 C2237 1.429 . S
C2232 C2224 1.574 . S
C2232 H2227 0.949 . S
C2232 C2238 1.368 . S
C2233 C2217 1.349 . S
C2233 H2225 0.950 . S
C2233 C2231 1.327 . S
C2234 C2222 1.349 . S
C2234 H2228 0.950 . S
C2234 C2235 1.327 1_556 S
C2235 H2229 0.950 . S
C2235 C2234 1.327 1_554 S
C2235 C2239 1.429 . S
C2236 C2219 1.574 . S
C2236 H2230 0.949 . S
C2236 C2240 1.368 . S
C2237 C2218 1.429 . S
C2237 C2231 1.429 . S
C2237 C2238 1.523 . S
C2238 C2219 1.368 . S
C2238 C2232 1.368 . S
C2238 C2237 1.523 . S
C2239 C2223 1.429 . S
C2239 C2235 1.429 . S
C2239 C2240 1.523 . S
C2240 C2224 1.368 . S
C2240 C2236 1.368 . S
C2240 C2239 1.523 . S
H2241 C2216 0.950 . S
H2242 C2218 0.950 . S
H2243 C2219 0.949 . S
H2244 C2221 0.950 . S
H2245 C2223 0.950 . S
C2246 C2247 1.349 1_556 S
C2246 C2248 1.327 . S
C2246 H2271 0.950 1_556 S
C2247 C2246 1.349 1_554 S
C2247 C2263 1.349 . S
C2248 C2246 1.327 . S
C2248 C2267 1.429 . S
C2248 H2272 0.950 . S
C2249 C2266 1.574 . S
C2249 C2268 1.368 . S
C2249 H2273 0.949 . S
H2250 C2254 0.949 . S
C2251 C2252 1.349 . S
C2251 C2253 1.327 . S
C2251 H2274 0.950 . S
C2252 C2251 1.349 . S
C2252 C2264 1.349 . S
C2253 C2251 1.327 . S
C2253 C2269 1.429 . S
C2253 H2275 0.950 . S
C2254 H2250 0.949 . S
C2254 C2262 1.574 . S
C2254 C2270 1.368 . S
H2255 C2263 0.950 . S
H2256 C2261 0.950 . S
H2257 C2262 0.949 . S
H2258 C2264 0.950 . S
H2259 C2265 0.950 . S
H2260 C2266 0.949 . S
C2261 H2256 0.950 . S
C2261 C2263 1.327 1_556 S
C2261 C2267 1.429 . S
C2262 C2254 1.574 . S
C2262 H2257 0.949 . S
C2262 C2268 1.368 . S
C2263 C2247 1.349 . S
C2263 H2255 0.950 . S
C2263 C2261 1.327 1_554 S
C2264 C2252 1.349 . S
C2264 H2258 0.950 . S
C2264 C2265 1.327 . S
C2265 H2259 0.950 . S
C2265 C2264 1.327 . S
C2265 C2269 1.429 . S
C2266 C2249 1.574 . S
C2266 H2260 0.949 . S
C2266 C2270 1.368 . S
C2267 C2248 1.429 . S
C2267 C2261 1.429 . S
C2267 C2268 1.523 . S
C2268 C2249 1.368 . S
C2268 C2262 1.368 . S
C2268 C2267 1.523 . S
C2269 C2253 1.429 . S
C2269 C2265 1.429 . S
C2269 C2270 1.523 . S
C2270 C2254 1.368 . S
C2270 C2266 1.368 . S
C2270 C2269 1.523 . S
H2271 C2246 0.950 1_554 S
H2272 C2248 0.950 . S
H2273 C2249 0.949 . S
H2274 C2251 0.950 . S
H2275 C2253 0.950 . S
C2276 C2277 1.349 . S
C2276 C2278 1.327 . S
C2276 H2301 0.950 . S
C2277 C2276 1.349 . S
C2277 C2293 1.349 . S
C2278 C2276 1.327 . S
C2278 C2297 1.429 . S
C2278 H2302 0.950 . S
C2279 C2296 1.574 . S
C2279 C2298 1.368 . S
C2279 H2303 0.949 . S
H2280 C2284 0.949 . S
C2281 C2282 1.349 . S
C2281 C2283 1.327 . S
C2281 H2304 0.950 . S
C2282 C2281 1.349 . S
C2282 C2294 1.349 . S
C2283 C2281 1.327 . S
C2283 C2299 1.429 . S
C2283 H2305 0.950 . S
C2284 H2280 0.949 . S
C2284 C2292 1.574 . S
C2284 C2300 1.368 . S
H2285 C2293 0.950 . S
H2286 C2291 0.950 . S
H2287 C2292 0.949 . S
H2288 C2294 0.950 . S
H2289 C2295 0.950 . S
H2290 C2296 0.949 . S
C2291 H2286 0.950 . S
C2291 C2293 1.327 . S
C2291 C2297 1.429 . S
C2292 C2284 1.574 . S
C2292 H2287 0.949 . S
C2292 C2298 1.368 . S
C2293 C2277 1.349 . S
C2293 H2285 0.950 . S
C2293 C2291 1.327 . S
C2294 C2282 1.349 . S
C2294 H2288 0.950 . S
C2294 C2295 1.327 . S
C2295 H2289 0.950 . S
C2295 C2294 1.327 . S
C2295 C2299 1.429 . S
C2296 C2279 1.574 . S
C2296 H2290 0.949 . S
C2296 C2300 1.368 . S
C2297 C2278 1.429 . S
C2297 C2291 1.429 . S
C2297 C2298 1.523 . S
C2298 C2279 1.368 . S
C2298 C2292 1.368 . S
C2298 C2297 1.523 . S
C2299 C2283 1.429 . S
C2299 C2295 1.429 . S
C2299 C2300 1.523 . S
C2300 C2284 1.368 . S
C2300 C2296 1.368 . S
C2300 C2299 1.523 . S
H2301 C2276 0.950 . S
H2302 C2278 0.950 . S
H2303 C2279 0.949 . S
H2304 C2281 0.950 . S
H2305 C2283 0.950 . S
C2306 C2307 1.349 . S
C2306 C2308 1.327 . S
C2306 H2331 0.950 . S
C2307 C2306 1.349 . S
C2307 C2323 1.349 . S
C2308 C2306 1.327 . S
C2308 C2327 1.429 . S
C2308 H2332 0.950 . S
C2309 C2326 1.574 . S
C2309 C2328 1.368 . S
C2309 H2333 0.949 . S
H2310 C2314 0.949 . S
C2311 C2312 1.349 . S
C2311 C2313 1.327 . S
C2311 H2334 0.950 . S
C2312 C2311 1.349 . S
C2312 C2324 1.349 . S
C2313 C2311 1.327 . S
C2313 C2329 1.429 . S
C2313 H2335 0.950 . S
C2314 H2310 0.949 . S
C2314 C2322 1.574 . S
C2314 C2330 1.368 . S
H2315 C2323 0.950 . S
H2316 C2321 0.950 . S
H2317 C2322 0.949 . S
H2318 C2324 0.950 . S
H2319 C2325 0.950 . S
H2320 C2326 0.949 . S
C2321 H2316 0.950 . S
C2321 C2323 1.327 . S
C2321 C2327 1.429 . S
C2322 C2314 1.574 . S
C2322 H2317 0.949 . S
C2322 C2328 1.368 . S
C2323 C2307 1.349 . S
C2323 H2315 0.950 . S
C2323 C2321 1.327 . S
C2324 C2312 1.349 . S
C2324 H2318 0.950 . S
C2324 C2325 1.327 . S
C2325 H2319 0.950 . S
C2325 C2324 1.327 . S
C2325 C2329 1.429 . S
C2326 C2309 1.574 . S
C2326 H2320 0.949 . S
C2326 C2330 1.368 . S
C2327 C2308 1.429 . S
C2327 C2321 1.429 . S
C2327 C2328 1.523 . S
C2328 C2309 1.368 . S
C2328 C2322 1.368 . S
C2328 C2327 1.523 . S
C2329 C2313 1.429 . S
C2329 C2325 1.429 . S
C2329 C2330 1.523 . S
C2330 C2314 1.368 . S
C2330 C2326 1.368 . S
C2330 C2329 1.523 . S
H2331 C2306 0.950 . S
H2332 C2308 0.950 . S
H2333 C2309 0.949 . S
H2334 C2311 0.950 . S
H2335 C2313 0.950 . S
C417 C83 1.439 . S
C422 C5 1.439 . S
C447 C18 1.439 . S
C452 C96 1.439 . S
C477 C57 1.439 . S
C482 C31 1.439 . S
C507 C44 1.439 . S
C512 C70 1.439 . S
C537 C109 1.439 . S
C542 C187 1.439 . S
C567 C200 1.439 . S
C572 C122 1.439 . S
C597 C135 1.439 . S
C602 C161 1.439 . S
C627 C174 1.439 . S
C632 C148 1.439 . S
C657 C213 1.439 . S
C662 C291 1.439 . S
C687 C226 1.439 . S
C692 C304 1.439 . S
C717 C265 1.439 . S
C722 C239 1.439 . S
C747 C278 1.439 . S
C752 C252 1.439 . S
C777 C317 1.439 . S
C782 C395 1.439 . S
C807 C330 1.439 . S
C812 C408 1.439 . S
C837 C369 1.439 . S
C842 C343 1.439 . S
C867 C356 1.439 . S
C872 C382 1.439 . S
C897 C0 1.533 . S
C902 C91 1.533 . S
C927 C52 1.533 . S
C932 C13 1.533 . S
C957 C65 1.533 . S
C962 C26 1.533 . S
C987 C39 1.533 . S
C992 C78 1.533 . S
C1017 C104 1.533 . S
C1022 C195 1.533 . S
C1047 C156 1.533 . S
C1052 C117 1.533 . S
C1077 C169 1.533 . S
C1082 C130 1.533 . S
C1107 C182 1.533 . S
C1112 C143 1.533 . S
C1137 C208 1.533 . S
C1142 C299 1.533 . S
C1167 C221 1.533 . S
C1172 C260 1.533 . S
C1197 C273 1.533 . S
C1202 C234 1.533 . S
C1227 C247 1.533 . S
C1232 C286 1.533 . S
C1257 C312 1.533 . S
C1262 C403 1.533 . S
C1287 C364 1.533 . S
C1292 C325 1.533 . S
C1317 C338 1.533 . S
C1322 C377 1.533 . S
C1347 C351 1.533 . S
C1352 C390 1.533 . S
C1377 C400 1.403 . S
C1382 C10 1.403 . S
C1407 C205 1.403 . S
C1412 C23 1.403 . S
C1437 C36 1.403 . S
C1442 C374 1.403 . S
C1467 C49 1.403 . S
C1472 C179 1.403 . S
C1497 C62 1.403 . S
C1502 C348 1.403 . S
C1527 C75 1.403 . S
C1532 C153 1.403 . S
C1557 C88 1.403 . S
C1562 C322 1.403 . S
C1587 C127 1.403 . S
C1592 C101 1.403 . S
C1617 C296 1.403 . S
C1622 C114 1.403 . S
C1647 C140 1.403 . S
C1652 C270 1.403 . S
C1677 C244 1.403 . S
C1682 C166 1.403 . S
C1707 C218 1.403 . S
C1712 C192 1.403 . S
C1737 C231 1.403 . S
C1742 C413 1.403 . S
C1767 C257 1.403 . S
C1772 C387 1.403 . S
C1797 C283 1.403 . S
C1802 C361 1.403 . S
C1827 C335 1.403 . S
C1832 C309 1.403 . S
C1857 C8 0.854 . S
C1862 C99 0.854 . S
C1887 C21 0.854 . S
C1892 C60 0.854 . S
C1917 C73 0.854 . S
C1922 C34 0.854 . S
C1947 C47 0.854 . S
C1952 C86 0.854 . S
C1977 C203 0.854 . S
C1982 C112 0.854 . S
C2007 C164 0.854 . S
C2012 C125 0.854 . S
C2037 C138 0.854 . S
C2042 C177 0.854 . S
C2067 C190 0.854 . S
C2072 C151 0.854 . S
C2097 C307 0.854 . S
C2102 C216 0.854 . S
C2127 C268 0.854 . S
C2132 C229 0.854 . S
C2157 C281 0.854 . S
C2162 C242 0.854 . S
C2187 C294 0.854 . S
C2192 C255 0.854 . S
C2217 C320 0.854 . S
C2222 C411 0.854 . S
C2247 C333 0.854 . S
C2252 C372 0.854 . S
C2277 C346 0.854 . S
C2282 C385 0.854 . S
C2307 C398 0.854 . S
C2312 C359 0.854 . S
