# Generated by pormake.
# Topology rob, (6)-cn, num edge types: 1
# Building blocks:
#     Node 0, Type 0, BuildingBlock: KUMBUR_clean_sbu_1, # of connection points: 6
#     Node 1, Type 0, BuildingBlock: KUMBUR_clean_sbu_1, # of connection points: 6
#     Node 2, Type 0, BuildingBlock: KUMBUR_clean_sbu_1, # of connection points: 6
#     Node 3, Type 0, BuildingBlock: KUMBUR_clean_sbu_1, # of connection points: 6
#     Edge 4, Type (0, 0), BuildingBlock: ZUJKAS_clean_linker_0, # of connection points: 2
#     Edge 5, Type (0, 0), BuildingBlock: ZUJKAS_clean_linker_0, # of connection points: 2
#     Edge 6, Type (0, 0), BuildingBlock: ZUJKAS_clean_linker_0, # of connection points: 2
#     Edge 7, Type (0, 0), BuildingBlock: ZUJKAS_clean_linker_0, # of connection points: 2
#     Edge 8, Type (0, 0), BuildingBlock: ZUJKAS_clean_linker_0, # of connection points: 2
#     Edge 9, Type (0, 0), BuildingBlock: ZUJKAS_clean_linker_0, # of connection points: 2
#     Edge 10, Type (0, 0), BuildingBlock: ZUJKAS_clean_linker_0, # of connection points: 2
#     Edge 11, Type (0, 0), BuildingBlock: ZUJKAS_clean_linker_0, # of connection points: 2
#     Edge 12, Type (0, 0), BuildingBlock: ZUJKAS_clean_linker_0, # of connection points: 2
#     Edge 13, Type (0, 0), BuildingBlock: ZUJKAS_clean_linker_0, # of connection points: 2
#     Edge 14, Type (0, 0), BuildingBlock: ZUJKAS_clean_linker_0, # of connection points: 2
#     Edge 15, Type (0, 0), BuildingBlock: ZUJKAS_clean_linker_0, # of connection points: 2
# Relax obj value: 0.016
# Max RMSD: 0.098
# Mean RMSD: 0.098
data_MOF--net-rob--node1-KUMBUR_clean_sbu_1--edge1-ZUJKAS_clean_linker_0
_symmetry_space_group_name_H-M    P1
_symmetry_Int_Tables_number       1
_symmetry_cell_setting            triclinic
loop_
_symmetry_equiv_pos_as_xyz
'x, y, z'
_cell_length_a     23.258347
_cell_length_b     30.94075
_cell_length_c     41.53797
_cell_angle_alpha  108.08979
_cell_angle_beta   90.051743
_cell_angle_gamma 89.987763
loop_
_atom_site_label
_atom_site_type_symbol
_atom_site_fract_x
_atom_site_fract_y
_atom_site_fract_z
_atom_type_partial_charge
Tb0 Tb 0.31128 0.20937 0.98298 0.0
C1 C 0.13599 0.36993 0.02977 0.0
N2 N 0.18982 0.36711 0.04171 0.0
C3 C 0.21027 0.44295 0.04133 0.0
C4 C 0.11753 0.40926 0.02245 0.0
C5 C 0.22678 0.40307 0.04794 0.0
C6 C 0.15548 0.44603 0.02841 0.0
C7 C 0.04467 0.3334 1.0102 0.0
C8 C 0.10025 0.33232 0.02353 0.0
C9 C 0.02609 0.37245 1.00274 0.0
C10 C 0.06239 0.4103 1.00889 0.0
Tb11 Tb 0.21232 0.30029 0.05123 0.0
N12 N 0.12037 0.29457 0.03014 0.0
C13 C 0.00927 0.29533 1.005 0.0
C14 C 0.08424 0.25884 0.02749 0.0
C15 C 0.02884 0.25821 0.01422 0.0
H16 H 0.26852 0.40148 0.0588 0.0
H17 H 1.00089 0.22936 0.01167 0.0
H18 H 0.26244 0.10822 0.98137 0.0
H19 H 0.52082 0.28843 0.01485 0.0
H20 H 0.09655 0.23131 0.03655 0.0
H21 H 0.96629 0.29477 0.99479 0.0
H22 H 0.42445 0.27984 0.99005 0.0
H23 H 0.23975 0.47134 0.04632 0.0
H24 H 0.98364 0.37376 0.9923 0.0
H25 H 0.0475 0.44013 1.00295 0.0
H26 H 0.29705 0.04241 0.99753 0.0
H27 H 0.14292 0.47688 0.02314 0.0
H28 H 0.5599 0.22926 0.03735 0.0
N29 N 0.33918 0.14638 0.99647 0.0
C30 C 0.39359 0.147 1.00859 0.0
C31 C 0.32453 0.07173 1.00095 0.0
C32 C 0.41527 0.11015 0.01805 0.0
C33 C 0.30477 0.10926 0.99216 0.0
C34 C 0.37995 0.07221 0.01406 0.0
N35 N 0.40362 0.22077 1.00366 0.0
C36 C 0.43823 0.25588 1.00239 0.0
C37 C 0.48297 0.18793 0.02569 0.0
C38 C 0.42654 0.18573 0.0128 0.0
C39 C 0.51632 0.22625 0.02767 0.0
C40 C 0.49422 0.25992 0.01529 0.0
H41 H 0.39502 0.04318 0.02102 0.0
H42 H 0.48834 0.08478 0.03915 0.0
H43 H 0.54785 0.1527 0.04554 0.0
O44 O 0.35593 0.21412 0.9394 0.0
O45 O 0.31193 0.20883 0.03602 0.0
O46 O 0.29732 0.28354 0.06651 0.0
O47 O 0.31567 0.15117 0.94039 0.0
O48 O 0.32124 0.28245 0.98871 0.0
O49 O 0.30101 0.31951 0.04499 0.0
O50 O 0.1685 0.2921 0.09407 0.0
O51 O 0.20819 0.29924 0.99794 0.0
O52 O 0.22685 0.22509 0.9661 0.0
O53 O 0.20877 0.35611 0.09535 0.0
O54 O 0.1991 0.22742 0.04443 0.0
O55 O 0.22318 0.18774 0.98881 0.0
C56 C 0.31615 0.24277 0.06427 0.0
C57 C 0.36542 0.14767 0.88828 0.0
C58 C 0.41436 0.14662 0.83586 0.0
C59 C 0.40651 0.0993 0.82351 0.0
C60 C 0.35786 0.10035 0.87509 0.0
C61 C 0.37818 0.07646 0.84294 0.0
C62 C 0.39327 0.1709 0.8683 0.0
C63 C 0.32562 0.31807 0.01615 0.0
C64 C 0.34586 0.17154 0.92322 0.0
C65 C 0.47096 0.11267 0.0316 0.0
C66 C 0.50472 0.15145 0.0354 0.0
C67 C 0.20383 0.26512 0.96972 0.0
C68 C 0.16229 0.35565 0.1474 0.0
C69 C 0.11673 0.353 0.19972 0.0
C70 C 0.13482 0.39775 0.21586 0.0
C71 C 0.17954 0.40064 0.16413 0.0
C72 C 0.13025 0.33191 0.16535 0.0
C73 C 0.16581 0.42145 0.19808 0.0
C74 C 0.19605 0.19107 0.01739 0.0
C75 C 0.1799 0.33396 0.1118 0.0
H76 H 0.42197 0.07999 0.79859 0.0
H77 H 0.33673 0.08155 0.88979 0.0
H78 H 0.37226 0.04001 0.83311 0.0
H79 H 0.39959 0.20736 0.8781 0.0
H80 H 0.12465 0.41443 0.24227 0.0
H81 H 0.20417 0.41978 0.15106 0.0
H82 H 0.1166 0.29723 0.15293 0.0
H83 H 0.17949 0.45602 0.21071 0.0
Tb84 Tb 0.80729 0.71199 0.97688 0.0
C85 C 0.61189 0.8429 1.00394 0.0
N86 N 0.66349 0.85127 0.02007 0.0
C87 C 0.66972 0.92307 1.00962 0.0
C88 C 0.58793 0.8739 0.989 0.0
C89 C 0.69216 0.89102 0.02369 0.0
C90 C 0.61754 0.91439 0.99204 0.0
C91 C 0.53141 0.79181 0.98412 0.0
C92 C 0.58446 0.8021 1.00128 0.0
C93 C 0.50776 0.8222 0.96863 0.0
C94 C 0.5359 0.86317 0.97111 0.0
Tb95 Tb 0.69585 0.79686 0.04204 0.0
N96 N 0.60923 0.77301 0.01601 0.0
C97 C 0.50311 0.75177 0.9837 0.0
C98 C 0.57865 0.73657 0.01866 0.0
C99 C 0.52624 0.72457 1.00171 0.0
H100 H 0.73246 0.89786 0.03728 0.0
H101 H 0.50305 0.69495 1.00325 0.0
H102 H 0.74254 0.6136 0.9404 0.0
H103 H 0.01686 0.75222 0.03465 0.0
H104 H 0.59288 0.71761 0.03492 0.0
H105 H 0.46226 0.74261 0.97082 0.0
H106 H 0.92597 0.76839 1.00975 0.0
H107 H 0.69274 0.95438 0.01224 0.0
H108 H 0.46735 0.8146 0.95504 0.0
H109 H 0.51702 0.88634 0.95916 0.0
H110 H 0.75539 0.53325 0.93797 0.0
H111 H 0.60055 0.9391 0.9809 0.0
H112 H 0.03665 0.6746 0.03694 0.0
N113 N 0.81707 0.63645 0.97043 0.0
C114 C 0.86514 0.62443 0.98414 0.0
C115 C 0.78636 0.55864 0.9513 0.0
C116 C 0.87521 0.57896 0.98266 0.0
C117 C 0.77866 0.60421 0.95316 0.0
C118 C 0.83458 0.546 0.9664 0.0
N119 N 0.89374 0.70106 0.99938 0.0
C120 C 0.93409 0.7345 0.01075 0.0
C121 C 0.9567 0.64682 0.01235 0.0
C122 C 0.90534 0.65773 0.99865 0.0
C123 C 0.99674 0.6815 0.02598 0.0
C124 C 0.98567 0.7254 0.02479 0.0
H125 H 0.84063 0.51065 0.96473 0.0
H126 H 0.93419 0.53317 0.99626 0.0
H127 H 0.00547 0.59267 0.02238 0.0
O128 O 0.83953 0.74386 0.94266 0.0
O129 O 0.82497 0.72148 0.03044 0.0
O130 O 0.76725 0.77651 0.06819 0.0
O131 O 0.83821 0.67101 0.92969 0.0
O132 O 0.82588 0.78523 0.99301 0.0
O133 O 0.78198 0.82598 0.04421 0.0
O134 O 0.63617 0.79921 0.08119 0.0
O135 O 0.71278 0.79713 0.98973 0.0
O136 O 0.72067 0.7221 0.96097 0.0
O137 O 0.68934 0.85767 0.0828 0.0
O138 O 0.6965 0.72437 0.03908 0.0
O139 O 0.72041 0.68925 0.98343 0.0
C140 C 0.8097 0.7468 0.06101 0.0
C141 C 0.82603 0.70244 0.88522 0.0
C142 C 0.84193 0.70886 0.82869 0.0
C143 C 0.78365 0.69807 0.82107 0.0
C144 C 0.76843 0.69097 0.87686 0.0
C145 C 0.74729 0.68923 0.84504 0.0
C146 C 0.86262 0.71131 0.86113 0.0
C147 C 0.82107 0.82117 0.02027 0.0
C148 C 0.84847 0.7055 0.91897 0.0
C149 C 0.92577 0.56789 0.99695 0.0
C150 C 0.96642 0.60176 0.01178 0.0
C151 C 0.70278 0.7627 0.96254 0.0
C152 C 0.62316 0.86742 0.12991 0.0
C153 C 0.57237 0.87167 0.18244 0.0
C154 C 0.5713 0.91931 0.19061 0.0
C155 C 0.62194 0.91504 0.13889 0.0
C156 C 0.59851 0.84577 0.15189 0.0
C157 C 0.59603 0.94073 0.16902 0.0
C158 C 0.69921 0.68774 0.01237 0.0
C159 C 0.64986 0.84094 0.09754 0.0
H160 H 0.76635 0.69544 0.79632 0.0
H161 H 0.73998 0.68313 0.89486 0.0
H162 H 0.70269 0.68055 0.83878 0.0
H163 H 0.90707 0.72036 0.86778 0.0
H164 H 0.55204 0.9401 0.21405 0.0
H165 H 0.64055 0.93245 0.12243 0.0
H166 H 0.59941 0.80901 0.14522 0.0
H167 H 0.59517 0.97744 0.17569 0.0
Tb168 Tb 0.3136 0.80271 0.54301 0.0
C169 C 0.13832 0.64187 0.50058 0.0
N170 N 0.18923 0.64467 0.4853 0.0
C171 C 0.21017 0.56707 0.48075 0.0
C172 C 0.12176 0.60159 0.50712 0.0
C173 C 0.22485 0.60785 0.47494 0.0
C174 C 0.15853 0.56396 0.49704 0.0
C175 C 0.05057 0.67879 0.52678 0.0
C176 C 0.1033 0.68003 0.51037 0.0
C177 C 0.03391 0.63877 0.53344 0.0
C178 C 0.06941 0.60027 0.52364 0.0
Tb179 Tb 0.20918 0.71334 0.47817 0.0
N180 N 0.12181 0.7187 0.50456 0.0
C181 C 0.01623 0.71782 0.53598 0.0
C182 C 0.08682 0.75588 0.51167 0.0
C183 C 0.03415 0.75633 0.52801 0.0
H184 H 0.26401 0.60951 0.46149 0.0
H185 H 0.00705 0.78622 0.53405 0.0
H186 H 0.25826 0.90673 0.56351 0.0
H187 H 0.51427 0.73259 0.48329 0.0
H188 H 0.09824 0.78491 0.50419 0.0
H189 H 0.9754 0.71829 0.54861 0.0
H190 H 0.42418 0.73199 0.51385 0.0
H191 H 0.23858 0.538 0.47251 0.0
H192 H 0.99362 0.63722 0.54612 0.0
H193 H 0.056 0.56966 0.52898 0.0
H194 H 0.28214 0.97976 0.5544 0.0
H195 H 0.14735 0.53235 0.50157 0.0
H196 H 0.54434 0.80218 0.47047 0.0
N197 N 0.33257 0.87276 0.53811 0.0
C198 C 0.38275 0.87658 0.52247 0.0
C199 C 0.31063 0.95091 0.54509 0.0
C200 C 0.39839 0.9177 0.51694 0.0
C201 C 0.29681 0.9093 0.54981 0.0
C202 C 0.36151 0.9551 0.52844 0.0
N203 N 0.40023 0.79917 0.51615 0.0
C204 C 0.43524 0.76195 0.50746 0.0
C205 C 0.46982 0.84088 0.49438 0.0
C206 C 0.41797 0.83866 0.51132 0.0
C207 C 0.5042 0.80194 0.48364 0.0
C208 C 0.48717 0.7625 0.49062 0.0
H209 H 0.372 0.98734 0.52473 0.0
H210 H 0.4626 0.95131 0.49534 0.0
H211 H 0.52506 0.88401 0.4755 0.0
O212 O 0.36134 0.78534 0.58037 0.0
O213 O 0.31508 0.79902 0.48911 0.0
O214 O 0.29309 0.72501 0.45847 0.0
O215 O 0.33375 0.85403 0.58827 0.0
O216 O 0.32315 0.72962 0.53641 0.0
O217 O 0.29697 0.68983 0.48137 0.0
O218 O 0.15966 0.72809 0.4404 0.0
O219 O 0.20907 0.71711 0.53213 0.0
O220 O 0.22896 0.79167 0.56199 0.0
O221 O 0.1911 0.66055 0.43335 0.0
O222 O 0.20016 0.78639 0.48419 0.0
O223 O 0.22604 0.82637 0.53925 0.0
C224 C 0.31693 0.76446 0.46108 0.0
C225 C 0.33658 0.82838 0.63609 0.0
C226 C 0.35569 0.8249 0.69317 0.0
C227 C 0.29688 0.83263 0.70076 0.0
C228 C 0.27831 0.83663 0.64447 0.0
C229 C 0.25858 0.83839 0.67654 0.0
C230 C 0.37516 0.82235 0.66046 0.0
C231 C 0.32492 0.69304 0.50963 0.0
C232 C 0.35725 0.82594 0.60202 0.0
C233 C 0.44993 0.92005 0.49994 0.0
C234 C 0.48551 0.88172 0.48864 0.0
C235 C 0.20496 0.75236 0.55958 0.0
C236 C 0.18611 0.68524 0.38503 0.0
C237 C 0.16741 0.69477 0.32969 0.0
C238 C 0.22548 0.68483 0.32109 0.0
C239 C 0.24362 0.67466 0.37563 0.0
C240 C 0.14803 0.69497 0.36188 0.0
C241 C 0.26315 0.67468 0.34389 0.0
C242 C 0.1985 0.82317 0.51085 0.0
C243 C 0.1659 0.68743 0.41914 0.0
H244 H 0.28034 0.83391 0.72541 0.0
H245 H 0.24815 0.84198 0.62627 0.0
H246 H 0.21346 0.8444 0.68269 0.0
H247 H 0.4203 0.81651 0.65414 0.0
H248 H 0.24155 0.68403 0.29644 0.0
H249 H 0.27338 0.66635 0.39284 0.0
H250 H 0.10361 0.70326 0.36911 0.0
H251 H 0.30761 0.66661 0.33688 0.0
Tb252 Tb 0.80933 0.2936 0.54853 0.0
C253 C 0.59735 0.17268 0.51584 0.0
N254 N 0.65132 0.16322 0.50328 0.0
C255 C 0.64919 0.09185 0.51464 0.0
C256 C 0.56793 0.14298 0.52982 0.0
C257 C 0.67686 0.12274 0.50137 0.0
C258 C 0.59476 0.10225 0.52931 0.0
C259 C 0.51566 0.22349 0.52678 0.0
C260 C 0.57194 0.21235 0.51443 0.0
C261 C 0.48677 0.19508 0.54211 0.0
C262 C 0.51284 0.15483 0.54357 0.0
Tb263 Tb 0.6936 0.21581 0.4828 0.0
N264 N 0.60129 0.23865 0.49923 0.0
C265 C 0.48952 0.26194 0.52232 0.0
C266 C 0.57388 0.27369 0.49211 0.0
C267 C 0.51835 0.28659 0.50426 0.0
H268 H 0.71885 0.11463 0.49001 0.0
H269 H 0.49743 0.31499 0.49913 0.0
H270 H 0.75743 0.4002 0.57036 0.0
H271 H 0.02144 0.23236 0.5061 0.0
H272 H 0.59391 0.29119 0.47633 0.0
H273 H 0.4463 0.27171 0.5314 0.0
H274 H 0.92584 0.23051 0.53201 0.0
H275 H 0.66991 0.06013 0.51364 0.0
H276 H 0.44376 0.20334 0.55214 0.0
H277 H 0.48971 0.1328 0.55488 0.0
H278 H 0.77702 0.47004 0.55584 0.0
H279 H 0.5736 0.07841 0.53976 0.0
H280 H 0.04748 0.29702 0.48572 0.0
N281 N 0.8258 0.36258 0.54024 0.0
C282 C 0.87497 0.36554 0.5234 0.0
C283 C 0.80441 0.4406 0.546 0.0
C284 C 0.88945 0.4055 0.51575 0.0
C285 C 0.79263 0.40044 0.55351 0.0
C286 C 0.85243 0.44287 0.52643 0.0
N287 N 0.89816 0.29251 0.52516 0.0
C288 C 0.9371 0.25866 0.52306 0.0
C289 C 0.96675 0.33221 0.50128 0.0
C290 C 0.91311 0.32961 0.51625 0.0
C291 C 0.00569 0.29632 0.49705 0.0
C292 C 0.99114 0.25973 0.50852 0.0
H293 H 0.86193 0.47423 0.52107 0.0
H294 H 0.95308 0.43769 0.4926 0.0
H295 H 0.02086 0.37339 0.47992 0.0
O296 O 0.84161 0.27002 0.58741 0.0
O297 O 0.83206 0.26237 0.49468 0.0
O298 O 0.74734 0.26344 0.46696 0.0
O299 O 0.84388 0.3409 0.59227 0.0
O300 O 0.81155 0.21995 0.53967 0.0
O301 O 0.77766 0.18433 0.48512 0.0
O302 O 0.63844 0.19974 0.44019 0.0
O303 O 0.7006 0.21441 0.53547 0.0
O304 O 0.72212 0.28774 0.56633 0.0
O305 O 0.7149 0.16112 0.43999 0.0
O306 O 0.69412 0.28946 0.49001 0.0
O307 O 0.72445 0.32408 0.54519 0.0
C308 C 0.80361 0.26517 0.46809 0.0
C309 C 0.83249 0.32112 0.64236 0.0
C310 C 0.84991 0.3246 0.70118 0.0
C311 C 0.79374 0.34125 0.70934 0.0
C312 C 0.77666 0.33777 0.65105 0.0
C313 C 0.75738 0.34755 0.68437 0.0
C314 C 0.86882 0.31425 0.6674 0.0
C315 C 0.81032 0.1854 0.51142 0.0
C316 C 0.85326 0.31052 0.60731 0.0
C317 C 0.94148 0.40748 0.49904 0.0
C318 C 0.98015 0.37091 0.49189 0.0
C319 C 0.69561 0.2492 0.56316 0.0
C320 C 0.69086 0.17548 0.38884 0.0
C321 C 0.6653 0.18304 0.33353 0.0
C322 C 0.72405 0.18784 0.32727 0.0
C323 C 0.74924 0.18001 0.38161 0.0
C324 C 0.64897 0.17709 0.36464 0.0
C325 C 0.76551 0.1862 0.35108 0.0
C326 C 0.69522 0.32444 0.51801 0.0
C327 C 0.67374 0.16973 0.42167 0.0
H328 H 0.77776 0.34899 0.73499 0.0
H329 H 0.7482 0.34336 0.63209 0.0
H330 H 0.71414 0.36018 0.69088 0.0
H331 H 0.91209 0.30161 0.6607 0.0
H332 H 0.73806 0.19349 0.30404 0.0
H333 H 0.78255 0.17912 0.39962 0.0
H334 H 0.60395 0.17327 0.36992 0.0
H335 H 0.81054 0.19004 0.34594 0.0
H336 H 0.67235 0.65939 0.06668 0.0
H337 H 0.61045 0.59528 0.06721 0.0
H338 H 0.5849 0.56261 0.95948 0.0
H339 H 0.64548 0.62673 0.95886 0.0
H340 H 0.49307 0.5818 0.04515 0.0
H341 H 0.63301 0.44 0.97168 0.0
H342 H 0.65989 0.4969 0.99131 0.0
H343 H 0.62052 0.48355 0.95222 0.0
C344 C 0.65399 0.63818 0.04309 0.0
C345 C 0.66495 0.64745 0.01261 0.0
C346 C 0.61865 0.60167 0.04342 0.0
C347 C 0.59394 0.57369 0.01328 0.0
C348 C 0.6047 0.583 0.98287 0.0
H349 H 0.36081 0.34171 0.96093 0.0
H350 H 0.42467 0.40453 0.96024 0.0
C351 C 0.63972 0.61953 0.98255 0.0
C352 C 0.55482 0.53598 0.01371 0.0
H353 H 0.53781 0.42077 0.98261 0.0
C354 C 0.50295 0.54655 0.03168 0.0
C355 C 0.56763 0.4901 0.99582 0.0
C356 C 0.62347 0.47672 0.97687 0.0
C357 C 0.46308 0.5125 0.03184 0.0
C358 C 0.47603 0.46653 0.01415 0.0
C359 C 0.5279 0.456 0.99612 0.0
C360 C 0.4368 0.4288 0.01457 0.0
C361 C 0.40683 0.52619 0.05029 0.0
C362 C 0.42299 0.42124 0.04526 0.0
C363 C 0.38657 0.38553 0.04573 0.0
C364 C 0.3634 0.3564 0.01546 0.0
C365 C 0.3778 0.36367 0.98467 0.0
C366 C 0.41428 0.3995 0.98424 0.0
H367 H 0.39667 0.56254 0.05413 0.0
H368 H 0.37078 0.50503 0.03625 0.0
H369 H 0.40979 0.52131 0.0756 0.0
H370 H 0.44095 0.44268 0.06889 0.0
H371 H 0.37711 0.38043 0.06982 0.0
H372 H 0.3657 0.67572 0.566 0.0
H373 H 0.43002 0.61446 0.56867 0.0
H374 H 0.43474 0.56382 0.45956 0.0
H375 H 0.37001 0.62493 0.45664 0.0
H376 H 0.41828 0.49593 0.4892 0.0
H377 H 0.60197 0.60608 0.54936 0.0
H378 H 0.5356 0.6205 0.57222 0.0
H379 H 0.54198 0.62674 0.53075 0.0
C380 C 0.38051 0.65162 0.54255 0.0
C381 C 0.36263 0.65511 0.51109 0.0
C382 C 0.41753 0.61676 0.54414 0.0
C383 C 0.43798 0.58504 0.51433 0.0
C384 C 0.41964 0.58807 0.48288 0.0
H385 H 0.66678 0.35316 0.46447 0.0
H386 H 0.60472 0.417 0.46446 0.0
C387 C 0.38247 0.62288 0.48126 0.0
C388 C 0.47764 0.54818 0.51593 0.0
H389 H 0.60935 0.52779 0.54487 0.0
C390 C 0.46015 0.50289 0.50123 0.0
C391 C 0.53221 0.55737 0.53174 0.0
C392 C 0.55442 0.60528 0.54665 0.0
C393 C 0.49549 0.46655 0.50223 0.0
C394 C 0.54997 0.47575 0.51801 0.0
C395 C 0.56743 0.52096 0.53289 0.0
C396 C 0.58984 0.43865 0.51852 0.0
C397 C 0.474 0.41851 0.48692 0.0
C398 C 0.60332 0.43055 0.54909 0.0
C399 C 0.63869 0.39395 0.54917 0.0
C400 C 0.66135 0.36517 0.51868 0.0
C401 C 0.64934 0.37444 0.4883 0.0
C402 C 0.61388 0.41082 0.48823 0.0
H403 H 0.42701 0.41736 0.48189 0.0
H404 H 0.49641 0.40251 0.46254 0.0
H405 H 0.48343 0.39796 0.50396 0.0
H406 H 0.58534 0.45186 0.57274 0.0
H407 H 0.64707 0.38749 0.57292 0.0
H408 H 0.15026 0.17658 0.07385 0.0
H409 H 0.08649 0.11516 0.07667 0.0
H410 H 0.0937 0.05723 0.968 0.0
H411 H 0.15618 0.1194 0.96482 0.0
H412 H 0.9841 0.06083 0.992 0.0
H413 H 0.12778 0.98447 0.06629 0.0
H414 H 0.11436 0.04391 0.08624 0.0
H415 H 0.15281 0.02558 0.04676 0.0
C416 C 0.13849 0.15072 0.05051 0.0
C417 C 0.15875 0.15282 0.0191 0.0
C418 C 0.10233 0.11537 0.05221 0.0
C419 C 0.08609 0.08104 0.02262 0.0
C420 C 0.10598 0.08314 0.99121 0.0
H421 H 0.89014 0.83304 0.97044 0.0
H422 H 0.95227 0.89732 0.97284 0.0
C423 C 0.14193 0.11862 0.98945 0.0
C424 C 0.04687 0.04378 0.02425 0.0
H425 H 0.03196 0.95647 0.05785 0.0
C426 C 0.99469 0.03799 1.00635 0.0
C427 C 0.06059 0.01395 0.04303 0.0
C428 C 0.11715 0.0169 0.06142 0.0
C429 C 0.95587 1.0034 1.00683 0.0
C430 C 0.96964 0.97367 0.02555 0.0
C431 C 0.0214 0.97962 0.04375 0.0
C432 C 0.93218 0.93459 0.02484 0.0
C433 C 0.90022 0.99885 0.98736 0.0
C434 C 0.90083 0.93393 0.05355 0.0
C435 C 0.86476 0.8971 0.05231 0.0
C436 C 0.86007 0.86006 0.02243 0.0
C437 C 0.89253 0.86076 0.99396 0.0
C438 C 0.92801 0.89762 0.99516 0.0
H439 H 0.89073 0.02961 0.97988 0.0
H440 H 0.90319 0.96929 0.96401 0.0
H441 H 0.86381 0.99266 1.00265 0.0
H442 H 0.90374 0.96215 0.07676 0.0
H443 H 0.84062 0.89768 0.07473 0.0
H444 H 0.83792 0.11366 0.45539 0.0
H445 H 0.9022 0.04977 0.45284 0.0
H446 H 0.93164 0.10409 0.56037 0.0
H447 H 0.8678 0.16771 0.5633 0.0
H448 H 0.02284 0.05655 0.4753 0.0
H449 H 0.88321 0.96914 0.5441 0.0
H450 H 0.85568 0.00979 0.52475 0.0
H451 H 0.89277 0.02905 0.56461 0.0
C452 C 0.85773 0.11183 0.47854 0.0
C453 C 0.84756 0.1458 0.50956 0.0
C454 C 0.89454 0.07539 0.477 0.0
C455 C 0.92111 0.07204 0.50648 0.0
C456 C 0.91091 0.10575 0.53742 0.0
H457 H 0.15487 0.89196 0.56388 0.0
H458 H 0.08947 0.95267 0.56125 0.0
C459 C 0.87454 0.14223 0.53897 0.0
C460 C 0.96085 0.03407 0.50507 0.0
H461 H 0.97998 0.94392 0.53487 0.0
C462 C 0.01338 0.0316 0.48802 0.0
C463 C 0.94836 1.00185 0.52187 0.0
C464 C 0.89176 1.00216 0.53966 0.0
C465 C 0.05465 0.99849 0.4882 0.0
C466 C 0.04239 0.96645 0.50528 0.0
C467 C 0.98942 0.96859 0.5219 0.0
C468 C 0.08401 0.93062 0.50654 0.0
C469 C 0.11172 0.99907 0.47108 0.0
C470 C 0.1025 0.89792 0.47667 0.0
C471 C 0.14044 0.8635 0.47807 0.0
C472 C 0.16037 0.86093 0.50942 0.0
C473 C 0.14143 0.89354 0.53931 0.0
C474 C 0.10364 0.92805 0.53786 0.0
H475 H 0.12008 0.03244 0.46717 0.0
H476 H 0.14758 0.99145 0.48614 0.0
H477 H 0.11152 0.9727 0.44588 0.0
H478 H 0.08689 0.89859 0.45225 0.0
H479 H 0.1538 0.83869 0.45458 0.0
H480 H 0.67184 0.14334 0.26495 0.0
H481 H 0.60674 0.15314 0.22157 0.0
H482 H 0.49506 0.23595 0.29911 0.0
H483 H 0.56071 0.22693 0.34295 0.0
H484 H 0.43809 0.16784 0.24125 0.0
H485 H 0.59425 0.27839 0.20279 0.0
H486 H 0.62288 0.22521 0.20459 0.0
H487 H 0.59895 0.267 0.2428 0.0
C488 C 0.63348 0.16372 0.27288 0.0
C489 C 0.62199 0.18492 0.30748 0.0
C490 C 0.59625 0.16915 0.24801 0.0
C491 C 0.5466 0.19586 0.25711 0.0
C492 C 0.53334 0.21535 0.29157 0.0
H493 H 0.35704 0.30774 0.12047 0.0
H494 H 0.40911 0.29646 0.16837 0.0
C495 C 0.57076 0.20999 0.31658 0.0
C496 C 0.51013 0.2047 0.23046 0.0
H497 H 0.51286 0.25405 0.16745 0.0
C498 C 0.4542 0.18686 0.22519 0.0
C499 C 0.53106 0.23 0.20983 0.0
C500 C 0.58988 0.25166 0.21535 0.0
C501 C 0.41913 0.19272 0.19921 0.0
C502 C 0.44091 0.21663 0.17777 0.0
C503 C 0.49635 0.23538 0.18366 0.0
C504 C 0.407 0.22298 0.14918 0.0
C505 C 0.35888 0.17374 0.19521 0.0
C506 C 0.38857 0.18542 0.12232 0.0
C507 C 0.3584 0.19177 0.09496 0.0
C508 C 0.34685 0.23581 0.09361 0.0
C509 C 0.3652 0.27333 0.12062 0.0
C510 C 0.39511 0.26696 0.14803 0.0
H511 H 0.34361 0.16745 0.2187 0.0
H512 H 0.32834 0.19719 0.1885 0.0
H513 H 0.3583 0.14085 0.17452 0.0
H514 H 0.39808 0.15115 0.12231 0.0
H515 H 0.34395 0.16215 0.07495 0.0
H516 H 0.62063 0.80756 0.20724 0.0
H517 H 0.58206 0.77878 0.25181 0.0
H518 H 0.42874 0.85886 0.25666 0.0
H519 H 0.46692 0.88766 0.21237 0.0
H520 H 0.54913 0.83772 0.31913 0.0
H521 H 0.36892 0.72955 0.25151 0.0
H522 H 0.42878 0.74506 0.22963 0.0
H523 H 0.37187 0.78503 0.24625 0.0
C524 C 0.57824 0.81828 0.21739 0.0
C525 C 0.54679 0.8499 0.20637 0.0
C526 C 0.55642 0.80203 0.24293 0.0
C527 C 0.50237 0.81645 0.25737 0.0
C528 C 0.47021 0.84686 0.24561 0.0
H529 H 0.3422 0.84354 0.44804 0.0
H530 H 0.39272 0.85272 0.39897 0.0
C531 C 0.49221 0.86348 0.22044 0.0
C532 C 0.48085 0.80254 0.28635 0.0
H533 H 0.368 0.75045 0.31188 0.0
C534 C 0.50994 0.81815 0.31746 0.0
C535 C 0.42993 0.77676 0.28408 0.0
C536 C 0.3982 0.75772 0.25102 0.0
C537 C 0.48808 0.8103 0.34671 0.0
C538 C 0.43567 0.78645 0.34477 0.0
C539 C 0.40793 0.76909 0.31335 0.0
C540 C 0.4077 0.78079 0.37531 0.0
C541 C 0.52085 0.82797 0.37957 0.0
C542 C 0.39931 0.7373 0.37832 0.0
C543 C 0.3708 0.73198 0.40651 0.0
C544 C 0.34917 0.76999 0.43186 0.0
C545 C 0.35834 0.81355 0.42897 0.0
C546 C 0.38728 0.81888 0.40096 0.0
H547 H 0.5665 0.83514 0.37522 0.0
H548 H 0.50082 0.86011 0.39536 0.0
H549 H 0.51941 0.80326 0.39406 0.0
H550 H 0.41492 0.70748 0.35886 0.0
H551 H 0.36591 0.69812 0.4085 0.0
H552 H 0.6321 0.70185 0.91921 0.0
H553 H 0.57721 0.7121 0.87177 0.0
H554 H 0.64289 0.8487 0.89468 0.0
H555 H 0.69897 0.83816 0.94177 0.0
H556 H 0.49255 0.77617 0.87371 0.0
H557 H 0.6755 0.79298 0.79271 0.0
H558 H 0.68376 0.77101 0.82796 0.0
H559 H 0.67818 0.83121 0.83527 0.0
C560 C 0.63526 0.73388 0.91386 0.0
C561 C 0.66995 0.76915 0.93395 0.0
C562 C 0.60374 0.73976 0.88689 0.0
C563 C 0.60663 0.7809 0.87936 0.0
C564 C 0.64097 0.81634 0.89959 0.0
H565 H 0.3603 0.87589 0.75987 0.0
H566 H 0.42233 0.86498 0.80421 0.0
C567 C 0.67254 0.81046 0.92661 0.0
C568 C 0.57218 0.78703 0.85101 0.0
H569 H 0.58235 0.80921 0.77558 0.0
C570 C 0.51216 0.78327 0.8522 0.0
C571 C 0.59795 0.79559 0.82275 0.0
C572 C 0.66241 0.79753 0.81928 0.0
C573 C 0.47708 0.7886 0.82617 0.0
C574 C 0.50262 0.79894 0.7985 0.0
C575 C 0.56278 0.8018 0.79697 0.0
C576 C 0.46737 0.80699 0.77105 0.0
C577 C 0.41299 0.78233 0.82829 0.0
C578 C 0.47357 0.77914 0.73736 0.0
C579 C 0.43823 0.78544 0.71183 0.0
C580 C 0.39608 0.81976 0.71958 0.0
C581 C 0.39144 0.84852 0.75318 0.0
C582 C 0.42685 0.84232 0.77857 0.0
H583 H 0.40218 0.76235 0.84555 0.0
H584 H 0.39222 0.81614 0.83836 0.0
H585 H 0.39447 0.76486 0.80293 0.0
H586 H 0.50481 0.75182 0.73095 0.0
H587 H 0.44276 0.76262 0.68625 0.0
H588 H 0.67157 0.17087 0.57775 0.0
H589 H 0.61857 0.16278 0.62642 0.0
H590 H 0.59704 0.30822 0.66485 0.0
H591 H 0.64813 0.31638 0.61546 0.0
H592 H 0.63956 0.26471 0.71329 0.0
H593 H 0.44254 0.18276 0.64577 0.0
H594 H 0.50912 0.15752 0.62715 0.0
H595 H 0.49188 0.21446 0.62812 0.0
C596 C 0.65449 0.20102 0.59616 0.0
C597 C 0.66342 0.24417 0.59253 0.0
C598 C 0.62449 0.19639 0.62406 0.0
C599 C 0.60333 0.23487 0.64905 0.0
C600 C 0.61279 0.27808 0.64576 0.0
H601 H 0.37552 0.21581 0.81347 0.0
H602 H 0.4207 0.24449 0.77046 0.0
C603 C 0.64222 0.28267 0.61763 0.0
C604 C 0.57282 0.2299 0.67907 0.0
H605 H 0.4544 0.18173 0.70257 0.0
C606 C 0.59879 0.24699 0.71105 0.0
C607 C 0.51937 0.20722 0.67609 0.0
C608 C 0.48867 0.18972 0.64252 0.0
C609 C 0.57382 0.24022 0.73993 0.0
C610 C 0.52164 0.2158 0.7367 0.0
C611 C 0.49448 0.20038 0.70497 0.0
C612 C 0.49686 0.20272 0.76527 0.0
C613 C 0.60376 0.25862 0.77364 0.0
C614 C 0.52502 0.17024 0.77681 0.0
C615 C 0.49919 0.15366 0.80098 0.0
C616 C 0.44488 0.16951 0.81431 0.0
C617 C 0.41769 0.20345 0.80384 0.0
C618 C 0.44327 0.21961 0.77921 0.0
H619 H 0.63583 0.28517 0.7735 0.0
H620 H 0.57213 0.27318 0.79417 0.0
H621 H 0.62659 0.23045 0.7795 0.0
H622 H 0.56606 0.15639 0.76614 0.0
H623 H 0.52093 0.1274 0.80857 0.0
H624 H 0.83288 0.81221 0.12089 0.0
H625 H 0.893 0.80519 0.16745 0.0
H626 H 0.92244 0.66366 0.11291 0.0
H627 H 0.86319 0.67073 0.06618 0.0
H628 H 0.88305 0.75382 0.20846 0.0
H629 H 0.08451 0.70798 0.13457 0.0
H630 H 0.02186 0.72863 0.11831 0.0
H631 H 0.0264 0.66996 0.11678 0.0
C632 C 0.85219 0.77961 0.11887 0.0
C633 C 0.84414 0.74218 0.08968 0.0
C634 C 0.88659 0.77565 0.14545 0.0
C635 C 0.9133 0.73416 0.14341 0.0
C636 C 0.90383 0.69639 0.11466 0.0
H637 H 0.05934 0.66044 0.31243 0.0
H638 H 0.99639 0.6716 0.2684 0.0
C639 C 0.86992 0.70045 0.08796 0.0
C640 C 0.95035 0.73032 0.17157 0.0
H641 H 0.08468 0.69972 0.18969 0.0
C642 C 0.92723 0.74219 0.20439 0.0
C643 C 0.00829 0.71579 0.16636 0.0
C644 C 0.03696 0.70531 0.13218 0.0
C645 C 0.96012 0.73928 0.23204 0.0
C646 C 0.01732 0.72302 0.22659 0.0
C647 C 0.04067 0.71178 0.19384 0.0
C648 C 0.05408 0.71773 0.25444 0.0
C649 C 0.93357 0.75456 0.2669 0.0
C650 C 0.10789 0.73929 0.26093 0.0
C651 C 0.14414 0.73255 0.2858 0.0
C652 C 0.12733 0.70412 0.30476 0.0
C653 C 0.07309 0.68307 0.2986 0.0
C654 C 0.03702 0.68953 0.27349 0.0
H655 H 0.89706 0.77824 0.26827 0.0
H656 H 0.91674 0.72447 0.27299 0.0
H657 H 0.96574 0.77171 0.28646 0.0
H658 H 0.12202 0.76118 0.24657 0.0
H659 H 0.18547 0.74952 0.29016 0.0
H660 H 0.91537 0.24269 0.44984 0.0
H661 H 0.96731 0.25269 0.4014 0.0
H662 H 0.81308 0.30503 0.36925 0.0
H663 H 0.76196 0.29733 0.41853 0.0
H664 H 0.94871 0.21564 0.33342 0.0
H665 H 0.928 0.40323 0.37015 0.0
H666 H 0.91199 0.37162 0.39895 0.0
H667 H 0.86017 0.37476 0.36755 0.0
C668 C 0.893 0.25735 0.43291 0.0
C669 C 0.83508 0.27033 0.43854 0.0
C670 C 0.92247 0.2625 0.40497 0.0
C671 C 0.89443 0.28047 0.38201 0.0
C672 C 0.83611 0.2923 0.3871 0.0
H673 H 1.0011 0.3409 0.19963 0.0
H674 H 0.94492 0.31721 0.24144 0.0
C675 C 0.80681 0.28753 0.41517 0.0
C676 C 0.92599 0.28655 0.35261 0.0
H677 H 0.96353 0.3661 0.31489 0.0
C678 C 0.95213 0.24856 0.32942 0.0
C679 C 0.93063 0.32956 0.34747 0.0
C680 C 0.90673 0.3722 0.37251 0.0
C681 C 0.98215 0.25241 0.30106 0.0
C682 C 0.98602 0.29526 0.29577 0.0
C683 C 0.95982 0.33316 0.31884 0.0
C684 C 0.01939 0.30233 0.26743 0.0
C685 C 0.00922 0.2107 0.27674 0.0
C686 C 0.07969 0.30098 0.26789 0.0
C687 C 0.11161 0.31468 0.24423 0.0
C688 C 0.08365 0.32945 0.21957 0.0
C689 C 0.02338 0.32878 0.21808 0.0
C690 C 0.99143 0.31553 0.24199 0.0
H691 H 0.99353 0.1789 0.28084 0.0
H692 H 1.00016 0.20921 0.25016 0.0
H693 H 0.05655 0.21245 0.2803 0.0
H694 H 0.10206 0.29161 0.28763 0.0
H695 H 0.15808 0.31579 0.24613 0.0
H696 H 0.86973 0.38428 0.76415 0.0
H697 H 0.93253 0.37414 0.80855 0.0
H698 H 0.97847 0.24032 0.74373 0.0
H699 H 0.91694 0.25092 0.69888 0.0
H700 H 0.9285 0.31538 0.84284 0.0
H701 H 0.13473 0.29079 0.77285 0.0
H702 H 0.07055 0.31012 0.75714 0.0
H703 H 0.0811 0.25051 0.75137 0.0
C704 C 0.8934 0.35275 0.75934 0.0
C705 C 0.88863 0.31848 0.72796 0.0
C706 C 0.92936 0.34701 0.78472 0.0
C707 C 0.96117 0.30678 0.77939 0.0
C708 C 0.95585 0.27223 0.74819 0.0
H709 H 0.16426 0.19947 0.91329 0.0
H710 H 0.10572 0.20992 0.86722 0.0
C711 C 0.92044 0.27821 0.7226 0.0
C712 C 0.99827 0.30061 0.80693 0.0
H713 H 0.1348 0.27414 0.82519 0.0
C714 C 0.97368 0.30665 0.83896 0.0
C715 C 0.05742 0.28936 0.80205 0.0
C716 C 0.08767 0.28528 0.7691 0.0
C717 C 0.00626 0.30114 0.86594 0.0
C718 C 0.06488 0.28913 0.86077 0.0
C719 C 0.08964 0.28305 0.8289 0.0
C720 C 0.10122 0.28308 0.88838 0.0
C721 C 0.97785 0.30769 0.89977 0.0
C722 C 0.11879 0.32088 0.9152 0.0
C723 C 0.15289 0.31512 0.94131 0.0
C724 C 0.16932 0.27139 0.94141 0.0
C725 C 0.15222 0.23363 0.91417 0.0
C726 C 0.11868 0.23948 0.88783 0.0
H727 H 0.93035 0.31045 0.89835 0.0
H728 H 0.98849 0.27898 0.90945 0.0
H729 H 0.9944 0.33931 0.91837 0.0
H730 H 0.10638 0.35488 0.91581 0.0
H731 H 0.16675 0.34501 0.96123 0.0
H732 H 0.1758 0.67515 0.57446 0.0
H733 H 0.114 0.66878 0.62047 0.0
H734 H 0.08972 0.81413 0.65416 0.0
H735 H 0.15033 0.82066 0.60776 0.0
H736 H 0.11832 0.77597 0.70681 0.0
H737 H 0.93723 0.6856 0.62641 0.0
H738 H 0.00691 0.66042 0.61491 0.0
H739 H 0.99202 0.71551 0.61099 0.0
C740 C 0.15703 0.70573 0.59156 0.0
C741 C 0.16829 0.74847 0.58765 0.0
C742 C 0.1217 0.70202 0.6178 0.0
C743 C 0.09702 0.74097 0.6406 0.0
C744 C 0.10846 0.78368 0.63688 0.0
H745 H 0.81932 0.75472 0.78315 0.0
H746 H 0.8822 0.76363 0.73843 0.0
C747 C 0.14343 0.78737 0.6105 0.0
C748 C 0.05966 0.73731 0.66855 0.0
H749 H 0.93219 0.6936 0.685 0.0
C750 C 0.07758 0.75801 0.7021 0.0
C751 C 0.00631 0.71428 0.66227 0.0
C752 C 0.98402 0.69296 0.62673 0.0
C753 C 0.04387 0.75573 0.72959 0.0
C754 C 0.99109 0.73182 0.72331 0.0
C755 C 0.97283 0.71167 0.68975 0.0
C756 C 0.95391 0.7275 0.75119 0.0
C757 C 0.06459 0.77949 0.76512 0.0
C758 C 0.9733 0.7041 0.77316 0.0
C759 C 0.93735 0.69869 0.79863 0.0
C760 C 0.88112 0.71642 0.80257 0.0
C761 C 0.86205 0.74014 0.78061 0.0
C762 C 0.89801 0.74545 0.75512 0.0
H763 H 0.09831 0.80513 0.76563 0.0
H764 H 0.02843 0.79664 0.78162 0.0
H765 H 0.08325 0.754 0.77593 0.0
H766 H 0.01588 0.6892 0.77017 0.0
H767 H 0.95312 0.67956 0.81466 0.0
loop_
_geom_bond_atom_site_label_1
_geom_bond_atom_site_label_2
_geom_bond_distance
_geom_bond_site_symmetry_2
_ccdc_geom_bond_type
Tb0 N29 2.617 . S
Tb0 N35 2.572 . S
Tb0 O44 2.465 . S
Tb0 O45 2.387 1_556 S
Tb0 O47 2.428 . S
Tb0 O48 2.308 . S
Tb0 O52 2.349 . S
Tb0 O55 2.393 . S
Tb0 C64 2.802 . S
C1 N2 1.379 . S
C1 C4 1.416 . S
C1 C8 1.424 . S
N2 C1 1.379 . S
N2 C5 1.334 . S
N2 Tb11 2.617 . S
C3 C5 1.390 . S
C3 C6 1.339 . S
C3 H23 0.930 . S
C4 C1 1.416 . S
C4 C6 1.416 . S
C4 C10 1.448 . S
C5 N2 1.334 . S
C5 C3 1.390 . S
C5 H16 0.930 . S
C6 C3 1.339 . S
C6 C4 1.416 . S
C6 H27 0.930 . S
C7 C8 1.413 . S
C7 C9 1.421 1_454 S
C7 C13 1.416 1_454 S
C8 C1 1.424 . S
C8 C7 1.413 . S
C8 N12 1.361 . S
C9 C7 1.421 1_656 S
C9 C10 1.329 1_656 S
C9 H24 0.935 . S
C10 C4 1.448 . S
C10 C9 1.329 1_454 S
C10 H25 0.930 1_455 S
Tb11 N2 2.617 . S
Tb11 N12 2.572 . S
Tb11 O46 2.349 . S
Tb11 O49 2.393 . S
Tb11 O50 2.465 . S
Tb11 O51 2.387 1_554 S
Tb11 O53 2.428 . S
Tb11 O54 2.308 . S
Tb11 C75 2.802 . S
N12 C8 1.361 . S
N12 Tb11 2.572 . S
N12 C14 1.340 . S
C13 C7 1.416 1_656 S
C13 C15 1.327 1_556 S
C13 H21 0.931 . S
C14 N12 1.340 . S
C14 C15 1.412 1_455 S
C14 H20 0.930 . S
C15 C13 1.327 1_554 S
C15 C14 1.412 1_655 S
C15 H17 0.930 1_554 S
H16 C5 0.930 . S
H17 C15 0.930 1_556 S
H18 C33 0.930 . S
H19 C40 0.929 . S
H20 C14 0.930 . S
H21 C13 0.931 . S
H22 C36 0.930 . S
H23 C3 0.930 . S
H24 C9 0.935 . S
H25 C10 0.930 1_655 S
H26 C31 0.930 . S
H27 C6 0.930 . S
H28 C39 0.931 . S
N29 Tb0 2.617 . S
N29 C30 1.379 . S
N29 C33 1.334 . S
C30 N29 1.379 . S
C30 C32 1.416 . S
C30 C38 1.424 . S
C31 H26 0.930 . S
C31 C33 1.390 . S
C31 C34 1.339 . S
C32 C30 1.416 . S
C32 C34 1.416 . S
C32 C65 1.448 . S
C33 H18 0.930 . S
C33 N29 1.334 . S
C33 C31 1.390 . S
C34 C31 1.339 . S
C34 C32 1.416 . S
C34 H41 0.930 . S
N35 Tb0 2.572 . S
N35 C36 1.340 . S
N35 C38 1.361 . S
C36 H22 0.930 . S
C36 N35 1.340 . S
C36 C40 1.407 1_556 S
C37 C38 1.411 1_554 S
C37 C39 1.416 . S
C37 C66 1.429 . S
C38 C30 1.424 . S
C38 N35 1.361 . S
C38 C37 1.411 1_556 S
C39 H28 0.931 . S
C39 C37 1.416 . S
C39 C40 1.332 . S
C40 H19 0.929 . S
C40 C36 1.407 1_554 S
C40 C39 1.332 . S
H41 C34 0.930 . S
H42 C65 0.931 1_554 S
H43 C66 0.929 . S
O44 Tb0 2.465 . S
O44 C64 1.264 . S
O45 Tb0 2.387 1_554 S
O45 C56 1.264 . S
O46 Tb11 2.349 . S
O46 C56 1.243 . S
O47 Tb0 2.428 . S
O47 C64 1.256 . S
O48 Tb0 2.308 . S
O48 C63 1.266 1_556 S
O49 Tb11 2.393 . S
O49 C63 1.248 . S
O50 Tb11 2.465 . S
O50 C75 1.264 . S
O51 Tb11 2.387 1_556 S
O51 C67 1.264 . S
O52 Tb0 2.349 . S
O52 C67 1.243 . S
O53 Tb11 2.428 . S
O53 C75 1.256 . S
O54 Tb11 2.308 . S
O54 C74 1.266 1_554 S
O55 Tb0 2.393 . S
O55 C74 1.248 . S
C56 O45 1.264 . S
C56 O46 1.243 . S
C57 C60 1.399 . S
C57 C62 1.383 . S
C57 C64 1.496 . S
C58 C59 1.399 . S
C58 C62 1.389 . S
C59 C58 1.399 . S
C59 C61 1.380 . S
C59 H76 0.929 . S
C60 C57 1.399 . S
C60 C61 1.392 . S
C60 H77 0.929 . S
C61 C59 1.380 . S
C61 C60 1.392 . S
C61 H78 0.929 . S
C62 C57 1.383 . S
C62 C58 1.389 . S
C62 H79 0.931 . S
C63 O48 1.266 1_554 S
C63 O49 1.248 . S
C64 Tb0 2.802 . S
C64 O44 1.264 . S
C64 O47 1.256 . S
C64 C57 1.496 . S
C65 C32 1.448 . S
C65 H42 0.931 1_556 S
C65 C66 1.328 1_556 S
C66 C37 1.429 . S
C66 H43 0.929 . S
C66 C65 1.328 1_554 S
C67 O51 1.264 . S
C67 O52 1.243 . S
C68 C71 1.399 . S
C68 C72 1.383 . S
C68 C75 1.496 . S
C69 C70 1.399 . S
C69 C72 1.389 . S
C70 C69 1.399 . S
C70 C73 1.380 . S
C70 H80 0.929 . S
C71 C68 1.399 . S
C71 C73 1.392 . S
C71 H81 0.929 . S
C72 C68 1.383 . S
C72 C69 1.389 . S
C72 H82 0.931 . S
C73 C70 1.380 . S
C73 C71 1.392 . S
C73 H83 0.929 . S
C74 O54 1.266 1_556 S
C74 O55 1.248 . S
C75 Tb11 2.802 . S
C75 O50 1.264 . S
C75 O53 1.256 . S
C75 C68 1.496 . S
H76 C59 0.929 . S
H77 C60 0.929 . S
H78 C61 0.929 . S
H79 C62 0.931 . S
H80 C70 0.929 . S
H81 C71 0.929 . S
H82 C72 0.931 . S
H83 C73 0.929 . S
Tb84 N113 2.617 . S
Tb84 N119 2.572 . S
Tb84 O128 2.465 . S
Tb84 O129 2.387 1_556 S
Tb84 O131 2.428 . S
Tb84 O132 2.308 . S
Tb84 O136 2.349 . S
Tb84 O139 2.393 . S
Tb84 C148 2.802 . S
C85 N86 1.379 . S
C85 C88 1.416 . S
C85 C92 1.424 . S
N86 C85 1.379 . S
N86 C89 1.334 . S
N86 Tb95 2.617 . S
C87 C89 1.390 . S
C87 C90 1.339 . S
C87 H107 0.930 . S
C88 C85 1.416 . S
C88 C90 1.416 . S
C88 C94 1.448 . S
C89 N86 1.334 . S
C89 C87 1.390 . S
C89 H100 0.930 . S
C90 C87 1.339 . S
C90 C88 1.416 . S
C90 H111 0.930 . S
C91 C92 1.413 . S
C91 C93 1.421 1_554 S
C91 C97 1.416 1_554 S
C92 C85 1.424 . S
C92 C91 1.413 . S
C92 N96 1.361 . S
C93 C91 1.421 1_556 S
C93 C94 1.329 1_556 S
C93 H108 0.935 . S
C94 C88 1.448 . S
C94 C93 1.329 1_554 S
C94 H109 0.930 . S
Tb95 N86 2.617 . S
Tb95 N96 2.572 . S
Tb95 O130 2.349 . S
Tb95 O133 2.393 . S
Tb95 O134 2.465 . S
Tb95 O135 2.387 1_554 S
Tb95 O137 2.428 . S
Tb95 O138 2.308 . S
Tb95 C159 2.802 . S
N96 C92 1.361 . S
N96 Tb95 2.572 . S
N96 C98 1.340 . S
C97 C91 1.416 1_556 S
C97 C99 1.327 1_556 S
C97 H105 0.931 . S
C98 N96 1.340 . S
C98 C99 1.412 . S
C98 H104 0.930 . S
C99 C97 1.327 1_554 S
C99 C98 1.412 . S
C99 H101 0.930 1_554 S
H100 C89 0.930 . S
H101 C99 0.930 1_556 S
H102 C117 0.930 . S
H103 C124 0.929 . S
H104 C98 0.930 . S
H105 C97 0.931 . S
H106 C120 0.930 . S
H107 C87 0.930 . S
H108 C93 0.935 . S
H109 C94 0.930 . S
H110 C115 0.930 . S
H111 C90 0.930 . S
H112 C123 0.931 . S
N113 Tb84 2.617 . S
N113 C114 1.379 . S
N113 C117 1.334 . S
C114 N113 1.379 . S
C114 C116 1.416 . S
C114 C122 1.424 . S
C115 H110 0.930 . S
C115 C117 1.390 . S
C115 C118 1.339 . S
C116 C114 1.416 . S
C116 C118 1.416 . S
C116 C149 1.448 . S
C117 H102 0.930 . S
C117 N113 1.334 . S
C117 C115 1.390 . S
C118 C115 1.339 . S
C118 C116 1.416 . S
C118 H125 0.930 . S
N119 Tb84 2.572 . S
N119 C120 1.340 . S
N119 C122 1.361 . S
C120 H106 0.930 . S
C120 N119 1.340 . S
C120 C124 1.407 1_656 S
C121 C122 1.411 1_554 S
C121 C123 1.416 1_655 S
C121 C150 1.429 1_655 S
C122 C114 1.424 . S
C122 N119 1.361 . S
C122 C121 1.411 1_556 S
C123 H112 0.931 . S
C123 C121 1.416 1_455 S
C123 C124 1.332 . S
C124 H103 0.929 . S
C124 C120 1.407 1_454 S
C124 C123 1.332 . S
H125 C118 0.930 . S
H126 C149 0.931 1_454 S
H127 C150 0.929 . S
O128 Tb84 2.465 . S
O128 C148 1.264 . S
O129 Tb84 2.387 1_554 S
O129 C140 1.264 . S
O130 Tb95 2.349 . S
O130 C140 1.243 . S
O131 Tb84 2.428 . S
O131 C148 1.256 . S
O132 Tb84 2.308 . S
O132 C147 1.266 1_556 S
O133 Tb95 2.393 . S
O133 C147 1.248 . S
O134 Tb95 2.465 . S
O134 C159 1.264 . S
O135 Tb95 2.387 1_556 S
O135 C151 1.264 . S
O136 Tb84 2.349 . S
O136 C151 1.243 . S
O137 Tb95 2.428 . S
O137 C159 1.256 . S
O138 Tb95 2.308 . S
O138 C158 1.266 1_554 S
O139 Tb84 2.393 . S
O139 C158 1.248 . S
C140 O129 1.264 . S
C140 O130 1.243 . S
C141 C144 1.399 . S
C141 C146 1.383 . S
C141 C148 1.496 . S
C142 C143 1.399 . S
C142 C146 1.389 . S
C143 C142 1.399 . S
C143 C145 1.380 . S
C143 H160 0.929 . S
C144 C141 1.399 . S
C144 C145 1.392 . S
C144 H161 0.929 . S
C145 C143 1.380 . S
C145 C144 1.392 . S
C145 H162 0.929 . S
C146 C141 1.383 . S
C146 C142 1.389 . S
C146 H163 0.931 . S
C147 O132 1.266 1_554 S
C147 O133 1.248 . S
C148 Tb84 2.802 . S
C148 O128 1.264 . S
C148 O131 1.256 . S
C148 C141 1.496 . S
C149 C116 1.448 . S
C149 H126 0.931 1_656 S
C149 C150 1.328 1_656 S
C150 C121 1.429 1_455 S
C150 H127 0.929 . S
C150 C149 1.328 1_454 S
C151 O135 1.264 . S
C151 O136 1.243 . S
C152 C155 1.399 . S
C152 C156 1.383 . S
C152 C159 1.496 . S
C153 C154 1.399 . S
C153 C156 1.389 . S
C154 C153 1.399 . S
C154 C157 1.380 . S
C154 H164 0.929 . S
C155 C152 1.399 . S
C155 C157 1.392 . S
C155 H165 0.929 . S
C156 C152 1.383 . S
C156 C153 1.389 . S
C156 H166 0.931 . S
C157 C154 1.380 . S
C157 C155 1.392 . S
C157 H167 0.929 . S
C158 O138 1.266 1_556 S
C158 O139 1.248 . S
C159 Tb95 2.802 . S
C159 O134 1.264 . S
C159 O137 1.256 . S
C159 C152 1.496 . S
H160 C143 0.929 . S
H161 C144 0.929 . S
H162 C145 0.929 . S
H163 C146 0.931 . S
H164 C154 0.929 . S
H165 C155 0.929 . S
H166 C156 0.931 . S
H167 C157 0.929 . S
Tb168 N197 2.617 . S
Tb168 N203 2.572 . S
Tb168 O212 2.465 . S
Tb168 O213 2.387 . S
Tb168 O215 2.428 . S
Tb168 O216 2.308 . S
Tb168 O220 2.349 . S
Tb168 O223 2.393 . S
Tb168 C232 2.802 . S
C169 N170 1.379 . S
C169 C172 1.416 . S
C169 C176 1.424 . S
N170 C169 1.379 . S
N170 C173 1.334 . S
N170 Tb179 2.617 . S
C171 C173 1.390 . S
C171 C174 1.339 . S
C171 H191 0.930 . S
C172 C169 1.416 . S
C172 C174 1.416 . S
C172 C178 1.448 . S
C173 N170 1.334 . S
C173 C171 1.390 . S
C173 H184 0.930 . S
C174 C171 1.339 . S
C174 C172 1.416 . S
C174 H195 0.930 . S
C175 C176 1.413 . S
C175 C177 1.427 1_455 S
C175 C181 1.416 1_455 S
C176 C169 1.424 . S
C176 C175 1.413 . S
C176 N180 1.361 . S
C177 C175 1.427 1_655 S
C177 C178 1.328 1_655 S
C177 H192 0.929 . S
C178 C172 1.448 . S
C178 C177 1.328 1_455 S
C178 H193 0.930 1_455 S
Tb179 N170 2.617 . S
Tb179 N180 2.572 . S
Tb179 O214 2.349 . S
Tb179 O217 2.393 . S
Tb179 O218 2.465 . S
Tb179 O219 2.387 . S
Tb179 O221 2.428 . S
Tb179 O222 2.308 . S
Tb179 C243 2.802 . S
N180 C176 1.361 . S
N180 Tb179 2.572 . S
N180 C182 1.340 . S
C181 C175 1.416 1_655 S
C181 C183 1.332 . S
C181 H189 0.931 . S
C182 N180 1.340 . S
C182 C183 1.407 1_455 S
C182 H188 0.930 . S
C183 C181 1.332 . S
C183 C182 1.407 1_655 S
C183 H185 0.929 . S
H184 C173 0.930 . S
H185 C183 0.929 . S
H186 C201 0.930 . S
H187 C208 0.929 . S
H188 C182 0.930 . S
H189 C181 0.931 . S
H190 C204 0.930 . S
H191 C171 0.930 . S
H192 C177 0.929 . S
H193 C178 0.930 1_655 S
H194 C199 0.930 . S
H195 C174 0.930 . S
H196 C207 0.931 . S
N197 Tb168 2.617 . S
N197 C198 1.379 . S
N197 C201 1.334 . S
C198 N197 1.379 . S
C198 C200 1.416 . S
C198 C206 1.424 . S
C199 H194 0.930 . S
C199 C201 1.390 . S
C199 C202 1.339 . S
C200 C198 1.416 . S
C200 C202 1.416 . S
C200 C233 1.448 . S
C201 H186 0.930 . S
C201 N197 1.334 . S
C201 C199 1.390 . S
C202 C199 1.339 . S
C202 C200 1.416 . S
C202 H209 0.930 . S
N203 Tb168 2.572 . S
N203 C204 1.340 . S
N203 C206 1.361 . S
C204 H190 0.930 . S
C204 N203 1.340 . S
C204 C208 1.407 . S
C205 C206 1.413 . S
C205 C207 1.416 . S
C205 C234 1.427 . S
C206 C198 1.424 . S
C206 N203 1.361 . S
C206 C205 1.413 . S
C207 H196 0.931 . S
C207 C205 1.416 . S
C207 C208 1.332 . S
C208 H187 0.929 . S
C208 C204 1.407 . S
C208 C207 1.332 . S
H209 C202 0.930 . S
H210 C233 0.930 . S
H211 C234 0.929 . S
O212 Tb168 2.465 . S
O212 C232 1.264 . S
O213 Tb168 2.387 . S
O213 C224 1.264 . S
O214 Tb179 2.349 . S
O214 C224 1.243 . S
O215 Tb168 2.428 . S
O215 C232 1.256 . S
O216 Tb168 2.308 . S
O216 C231 1.266 . S
O217 Tb179 2.393 . S
O217 C231 1.248 . S
O218 Tb179 2.465 . S
O218 C243 1.264 . S
O219 Tb179 2.387 . S
O219 C235 1.264 . S
O220 Tb168 2.349 . S
O220 C235 1.243 . S
O221 Tb179 2.428 . S
O221 C243 1.256 . S
O222 Tb179 2.308 . S
O222 C242 1.266 . S
O223 Tb168 2.393 . S
O223 C242 1.248 . S
C224 O213 1.264 . S
C224 O214 1.243 . S
C225 C228 1.399 . S
C225 C230 1.383 . S
C225 C232 1.496 . S
C226 C227 1.399 . S
C226 C230 1.389 . S
C227 C226 1.399 . S
C227 C229 1.380 . S
C227 H244 0.929 . S
C228 C225 1.399 . S
C228 C229 1.392 . S
C228 H245 0.929 . S
C229 C227 1.380 . S
C229 C228 1.392 . S
C229 H246 0.929 . S
C230 C225 1.383 . S
C230 C226 1.389 . S
C230 H247 0.931 . S
C231 O216 1.266 . S
C231 O217 1.248 . S
C232 Tb168 2.802 . S
C232 O212 1.264 . S
C232 O215 1.256 . S
C232 C225 1.496 . S
C233 C200 1.448 . S
C233 H210 0.930 . S
C233 C234 1.328 . S
C234 C205 1.427 . S
C234 H211 0.929 . S
C234 C233 1.328 . S
C235 O219 1.264 . S
C235 O220 1.243 . S
C236 C239 1.399 . S
C236 C240 1.383 . S
C236 C243 1.496 . S
C237 C238 1.399 . S
C237 C240 1.389 . S
C238 C237 1.399 . S
C238 C241 1.380 . S
C238 H248 0.929 . S
C239 C236 1.399 . S
C239 C241 1.392 . S
C239 H249 0.929 . S
C240 C236 1.383 . S
C240 C237 1.389 . S
C240 H250 0.931 . S
C241 C238 1.380 . S
C241 C239 1.392 . S
C241 H251 0.929 . S
C242 O222 1.266 . S
C242 O223 1.248 . S
C243 Tb179 2.802 . S
C243 O218 1.264 . S
C243 O221 1.256 . S
C243 C236 1.496 . S
H244 C227 0.929 . S
H245 C228 0.929 . S
H246 C229 0.929 . S
H247 C230 0.931 . S
H248 C238 0.929 . S
H249 C239 0.929 . S
H250 C240 0.931 . S
H251 C241 0.929 . S
Tb252 N281 2.617 . S
Tb252 N287 2.572 . S
Tb252 O296 2.465 . S
Tb252 O297 2.387 . S
Tb252 O299 2.428 . S
Tb252 O300 2.308 . S
Tb252 O304 2.349 . S
Tb252 O307 2.393 . S
Tb252 C316 2.802 . S
C253 N254 1.379 . S
C253 C256 1.416 . S
C253 C260 1.424 . S
N254 C253 1.379 . S
N254 C257 1.334 . S
N254 Tb263 2.617 . S
C255 C257 1.390 . S
C255 C258 1.339 . S
C255 H275 0.930 . S
C256 C253 1.416 . S
C256 C258 1.416 . S
C256 C262 1.448 . S
C257 N254 1.334 . S
C257 C255 1.390 . S
C257 H268 0.930 . S
C258 C255 1.339 . S
C258 C256 1.416 . S
C258 H279 0.930 . S
C259 C260 1.413 . S
C259 C261 1.427 . S
C259 C265 1.416 . S
C260 C253 1.424 . S
C260 C259 1.413 . S
C260 N264 1.361 . S
C261 C259 1.427 . S
C261 C262 1.328 . S
C261 H276 0.929 . S
C262 C256 1.448 . S
C262 C261 1.328 . S
C262 H277 0.930 . S
Tb263 N254 2.617 . S
Tb263 N264 2.572 . S
Tb263 O298 2.349 . S
Tb263 O301 2.393 . S
Tb263 O302 2.465 . S
Tb263 O303 2.387 . S
Tb263 O305 2.428 . S
Tb263 O306 2.308 . S
Tb263 C327 2.802 . S
N264 C260 1.361 . S
N264 Tb263 2.572 . S
N264 C266 1.340 . S
C265 C259 1.416 . S
C265 C267 1.332 . S
C265 H273 0.931 . S
C266 N264 1.340 . S
C266 C267 1.407 . S
C266 H272 0.930 . S
C267 C265 1.332 . S
C267 C266 1.407 . S
C267 H269 0.929 . S
H268 C257 0.930 . S
H269 C267 0.929 . S
H270 C285 0.930 . S
H271 C292 0.929 . S
H272 C266 0.930 . S
H273 C265 0.931 . S
H274 C288 0.930 . S
H275 C255 0.930 . S
H276 C261 0.929 . S
H277 C262 0.930 . S
H278 C283 0.930 . S
H279 C258 0.930 . S
H280 C291 0.931 . S
N281 Tb252 2.617 . S
N281 C282 1.379 . S
N281 C285 1.334 . S
C282 N281 1.379 . S
C282 C284 1.416 . S
C282 C290 1.424 . S
C283 H278 0.930 . S
C283 C285 1.390 . S
C283 C286 1.339 . S
C284 C282 1.416 . S
C284 C286 1.416 . S
C284 C317 1.448 . S
C285 H270 0.930 . S
C285 N281 1.334 . S
C285 C283 1.390 . S
C286 C283 1.339 . S
C286 C284 1.416 . S
C286 H293 0.930 . S
N287 Tb252 2.572 . S
N287 C288 1.340 . S
N287 C290 1.361 . S
C288 H274 0.930 . S
C288 N287 1.340 . S
C288 C292 1.407 1_655 S
C289 C290 1.413 . S
C289 C291 1.416 1_655 S
C289 C318 1.427 1_655 S
C290 C282 1.424 . S
C290 N287 1.361 . S
C290 C289 1.413 . S
C291 H280 0.931 . S
C291 C289 1.416 1_455 S
C291 C292 1.332 . S
C292 H271 0.929 . S
C292 C288 1.407 1_455 S
C292 C291 1.332 . S
H293 C286 0.930 . S
H294 C317 0.930 1_455 S
H295 C318 0.929 . S
O296 Tb252 2.465 . S
O296 C316 1.264 . S
O297 Tb252 2.387 . S
O297 C308 1.264 . S
O298 Tb263 2.349 . S
O298 C308 1.243 . S
O299 Tb252 2.428 . S
O299 C316 1.256 . S
O300 Tb252 2.308 . S
O300 C315 1.266 . S
O301 Tb263 2.393 . S
O301 C315 1.248 . S
O302 Tb263 2.465 . S
O302 C327 1.264 . S
O303 Tb263 2.387 . S
O303 C319 1.264 . S
O304 Tb252 2.349 . S
O304 C319 1.243 . S
O305 Tb263 2.428 . S
O305 C327 1.256 . S
O306 Tb263 2.308 . S
O306 C326 1.266 . S
O307 Tb252 2.393 . S
O307 C326 1.248 . S
C308 O297 1.264 . S
C308 O298 1.243 . S
C309 C312 1.399 . S
C309 C314 1.383 . S
C309 C316 1.496 . S
C310 C311 1.399 . S
C310 C314 1.389 . S
C311 C310 1.399 . S
C311 C313 1.380 . S
C311 H328 0.929 . S
C312 C309 1.399 . S
C312 C313 1.392 . S
C312 H329 0.929 . S
C313 C311 1.380 . S
C313 C312 1.392 . S
C313 H330 0.929 . S
C314 C309 1.383 . S
C314 C310 1.389 . S
C314 H331 0.931 . S
C315 O300 1.266 . S
C315 O301 1.248 . S
C316 Tb252 2.802 . S
C316 O296 1.264 . S
C316 O299 1.256 . S
C316 C309 1.496 . S
C317 C284 1.448 . S
C317 H294 0.930 1_655 S
C317 C318 1.328 1_655 S
C318 C289 1.427 1_455 S
C318 H295 0.929 . S
C318 C317 1.328 1_455 S
C319 O303 1.264 . S
C319 O304 1.243 . S
C320 C323 1.399 . S
C320 C324 1.383 . S
C320 C327 1.496 . S
C321 C322 1.399 . S
C321 C324 1.389 . S
C322 C321 1.399 . S
C322 C325 1.380 . S
C322 H332 0.929 . S
C323 C320 1.399 . S
C323 C325 1.392 . S
C323 H333 0.929 . S
C324 C320 1.383 . S
C324 C321 1.389 . S
C324 H334 0.931 . S
C325 C322 1.380 . S
C325 C323 1.392 . S
C325 H335 0.929 . S
C326 O306 1.266 . S
C326 O307 1.248 . S
C327 Tb263 2.802 . S
C327 O302 1.264 . S
C327 O305 1.256 . S
C327 C320 1.496 . S
H328 C311 0.929 . S
H329 C312 0.929 . S
H330 C313 0.929 . S
H331 C314 0.931 . S
H332 C322 0.929 . S
H333 C323 0.929 . S
H334 C324 0.931 . S
H335 C325 0.929 . S
H336 C344 0.929 . S
H337 C346 0.930 . S
H338 C348 0.930 . S
H339 C351 0.929 . S
H340 C354 0.930 . S
H341 C356 0.960 . S
H342 C356 0.960 . S
H343 C356 0.960 . S
C344 H336 0.929 . S
C344 C345 1.377 . S
C344 C346 1.384 . S
C345 C344 1.377 . S
C345 C351 1.390 1_554 S
C346 H337 0.930 . S
C346 C344 1.384 . S
C346 C347 1.372 . S
C347 C346 1.372 . S
C347 C348 1.400 1_554 S
C347 C352 1.490 . S
C348 H338 0.930 . S
C348 C347 1.400 1_556 S
C348 C351 1.386 . S
H349 C365 0.930 . S
H350 C366 0.931 . S
C351 H339 0.929 . S
C351 C345 1.390 1_556 S
C351 C348 1.386 . S
C352 C347 1.490 . S
C352 C354 1.395 . S
C352 C355 1.403 1_554 S
H353 C359 0.930 . S
C354 H340 0.930 . S
C354 C352 1.395 . S
C354 C357 1.403 . S
C355 C352 1.403 1_556 S
C355 C356 1.524 . S
C355 C359 1.400 . S
C356 H341 0.960 . S
C356 H342 0.960 . S
C356 H343 0.960 . S
C356 C355 1.524 . S
C357 C354 1.403 . S
C357 C358 1.392 . S
C357 C361 1.495 . S
C358 C357 1.392 . S
C358 C359 1.385 1_554 S
C358 C360 1.478 . S
C359 H353 0.930 . S
C359 C355 1.400 . S
C359 C358 1.385 1_556 S
C360 C358 1.478 . S
C360 C362 1.381 . S
C360 C366 1.383 1_554 S
C361 C357 1.495 . S
C361 H367 0.959 . S
C361 H368 0.961 . S
C361 H369 0.960 . S
C362 C360 1.381 . S
C362 C363 1.394 . S
C362 H370 0.930 . S
C363 C362 1.394 . S
C363 C364 1.383 . S
C363 H371 0.929 . S
C364 C363 1.383 . S
C364 C365 1.377 1_554 S
C365 H349 0.930 . S
C365 C364 1.377 1_556 S
C365 C366 1.379 . S
C366 H350 0.931 . S
C366 C360 1.383 1_556 S
C366 C365 1.379 . S
H367 C361 0.959 . S
H368 C361 0.961 . S
H369 C361 0.960 . S
H370 C362 0.930 . S
H371 C363 0.929 . S
H372 C380 0.929 . S
H373 C382 0.930 . S
H374 C384 0.930 . S
H375 C387 0.929 . S
H376 C390 0.930 . S
H377 C392 0.960 . S
H378 C392 0.960 . S
H379 C392 0.960 . S
C380 H372 0.929 . S
C380 C381 1.377 . S
C380 C382 1.384 . S
C381 C380 1.377 . S
C381 C387 1.390 . S
C382 H373 0.930 . S
C382 C380 1.384 . S
C382 C383 1.372 . S
C383 C382 1.372 . S
C383 C384 1.400 . S
C383 C388 1.490 . S
C384 H374 0.930 . S
C384 C383 1.400 . S
C384 C387 1.386 . S
H385 C401 0.930 . S
H386 C402 0.931 . S
C387 H375 0.929 . S
C387 C381 1.390 . S
C387 C384 1.386 . S
C388 C383 1.490 . S
C388 C390 1.395 . S
C388 C391 1.403 . S
H389 C395 0.930 . S
C390 H376 0.930 . S
C390 C388 1.395 . S
C390 C393 1.403 . S
C391 C388 1.403 . S
C391 C392 1.524 . S
C391 C395 1.400 . S
C392 H377 0.960 . S
C392 H378 0.960 . S
C392 H379 0.960 . S
C392 C391 1.524 . S
C393 C390 1.403 . S
C393 C394 1.392 . S
C393 C397 1.495 . S
C394 C393 1.392 . S
C394 C395 1.385 . S
C394 C396 1.478 . S
C395 H389 0.930 . S
C395 C391 1.400 . S
C395 C394 1.385 . S
C396 C394 1.478 . S
C396 C398 1.381 . S
C396 C402 1.383 . S
C397 C393 1.495 . S
C397 H403 0.959 . S
C397 H404 0.961 . S
C397 H405 0.960 . S
C398 C396 1.381 . S
C398 C399 1.394 . S
C398 H406 0.930 . S
C399 C398 1.394 . S
C399 C400 1.383 . S
C399 H407 0.929 . S
C400 C399 1.383 . S
C400 C401 1.377 . S
C401 H385 0.930 . S
C401 C400 1.377 . S
C401 C402 1.379 . S
C402 H386 0.931 . S
C402 C396 1.383 . S
C402 C401 1.379 . S
H403 C397 0.959 . S
H404 C397 0.961 . S
H405 C397 0.960 . S
H406 C398 0.930 . S
H407 C399 0.929 . S
H408 C416 0.929 . S
H409 C418 0.930 . S
H410 C420 0.930 . S
H411 C423 0.929 . S
H412 C426 0.930 . S
H413 C428 0.960 . S
H414 C428 0.960 1_545 S
H415 C428 0.960 . S
C416 H408 0.929 . S
C416 C417 1.377 . S
C416 C418 1.384 . S
C417 C416 1.377 . S
C417 C423 1.390 1_554 S
C418 H409 0.930 . S
C418 C416 1.384 . S
C418 C419 1.372 . S
C419 C418 1.372 . S
C419 C420 1.400 1_554 S
C419 C424 1.490 . S
C420 H410 0.930 . S
C420 C419 1.400 1_556 S
C420 C423 1.386 . S
H421 C437 0.930 . S
H422 C438 0.931 . S
C423 H411 0.929 . S
C423 C417 1.390 1_556 S
C423 C420 1.386 . S
C424 C419 1.490 . S
C424 C426 1.395 1_454 S
C424 C427 1.403 1_545 S
H425 C431 0.930 . S
C426 H412 0.930 . S
C426 C424 1.395 1_656 S
C426 C429 1.403 . S
C427 C424 1.403 1_565 S
C427 C428 1.524 . S
C427 C431 1.400 . S
C428 H413 0.960 . S
C428 H414 0.960 1_565 S
C428 H415 0.960 . S
C428 C427 1.524 . S
C429 C426 1.403 . S
C429 C430 1.392 1_546 S
C429 C433 1.495 . S
C430 C429 1.392 1_564 S
C430 C431 1.385 1_655 S
C430 C432 1.470 . S
C431 H425 0.930 . S
C431 C427 1.400 . S
C431 C430 1.385 1_455 S
C432 C430 1.470 . S
C432 C434 1.404 . S
C432 C438 1.370 1_554 S
C433 C429 1.495 . S
C433 H439 0.959 . S
C433 H440 0.961 1_545 S
C433 H441 0.960 1_556 S
C434 C432 1.404 . S
C434 C435 1.394 . S
C434 H442 0.930 . S
C435 C434 1.394 . S
C435 C436 1.383 . S
C435 H443 0.929 . S
C436 C435 1.383 . S
C436 C437 1.377 1_554 S
C437 H421 0.930 . S
C437 C436 1.377 1_556 S
C437 C438 1.379 . S
C438 H422 0.931 . S
C438 C432 1.370 1_556 S
C438 C437 1.379 . S
H439 C433 0.959 . S
H440 C433 0.961 1_565 S
H441 C433 0.960 1_554 S
H442 C434 0.930 . S
H443 C435 0.929 . S
H444 C452 0.929 . S
H445 C454 0.930 . S
H446 C456 0.930 . S
H447 C459 0.929 . S
H448 C462 0.930 . S
H449 C464 0.960 . S
H450 C464 0.960 . S
H451 C464 0.960 1_545 S
C452 H444 0.929 . S
C452 C453 1.377 . S
C452 C454 1.384 . S
C453 C452 1.377 . S
C453 C459 1.390 . S
C454 H445 0.930 . S
C454 C452 1.384 . S
C454 C455 1.372 . S
C455 C454 1.372 . S
C455 C456 1.400 . S
C455 C460 1.490 . S
C456 H446 0.930 . S
C456 C455 1.400 . S
C456 C459 1.386 . S
H457 C473 0.930 . S
H458 C474 0.931 . S
C459 H447 0.929 . S
C459 C453 1.390 . S
C459 C456 1.386 . S
C460 C455 1.490 . S
C460 C462 1.395 1_655 S
C460 C463 1.403 1_545 S
H461 C467 0.930 . S
C462 H448 0.930 . S
C462 C460 1.395 1_455 S
C462 C465 1.403 . S
C463 C460 1.403 1_565 S
C463 C464 1.524 . S
C463 C467 1.400 . S
C464 H449 0.960 . S
C464 H450 0.960 . S
C464 H451 0.960 1_565 S
C464 C463 1.524 . S
C465 C462 1.403 . S
C465 C466 1.392 1_545 S
C465 C469 1.495 . S
C466 C465 1.392 1_565 S
C466 C467 1.385 1_455 S
C466 C468 1.478 . S
C467 H461 0.930 . S
C467 C463 1.400 . S
C467 C466 1.385 1_655 S
C468 C466 1.478 . S
C468 C470 1.381 . S
C468 C474 1.383 . S
C469 C465 1.495 . S
C469 H475 0.959 . S
C469 H476 0.961 . S
C469 H477 0.960 1_545 S
C470 C468 1.381 . S
C470 C471 1.394 . S
C470 H478 0.930 . S
C471 C470 1.394 . S
C471 C472 1.383 . S
C471 H479 0.929 . S
C472 C471 1.383 . S
C472 C473 1.377 . S
C473 H457 0.930 . S
C473 C472 1.377 . S
C473 C474 1.379 . S
C474 H458 0.931 . S
C474 C468 1.383 . S
C474 C473 1.379 . S
H475 C469 0.959 . S
H476 C469 0.961 . S
H477 C469 0.960 1_565 S
H478 C470 0.930 . S
H479 C471 0.929 . S
H480 C488 0.929 . S
H481 C490 0.930 . S
H482 C492 0.930 . S
H483 C495 0.929 . S
H484 C498 0.930 . S
H485 C500 0.960 . S
H486 C500 0.960 . S
H487 C500 0.960 . S
C488 H480 0.929 . S
C488 C489 1.377 . S
C488 C490 1.384 . S
C489 C488 1.377 . S
C489 C495 1.390 . S
C490 H481 0.930 . S
C490 C488 1.384 . S
C490 C491 1.372 . S
C491 C490 1.372 . S
C491 C492 1.400 . S
C491 C496 1.490 . S
C492 H482 0.930 . S
C492 C491 1.400 . S
C492 C495 1.386 . S
H493 C509 0.930 . S
H494 C510 0.931 . S
C495 H483 0.929 . S
C495 C489 1.390 . S
C495 C492 1.386 . S
C496 C491 1.490 . S
C496 C498 1.395 . S
C496 C499 1.403 . S
H497 C503 0.930 . S
C498 H484 0.930 . S
C498 C496 1.395 . S
C498 C501 1.403 . S
C499 C496 1.403 . S
C499 C500 1.524 . S
C499 C503 1.400 . S
C500 H485 0.960 . S
C500 H486 0.960 . S
C500 H487 0.960 . S
C500 C499 1.524 . S
C501 C498 1.403 . S
C501 C502 1.392 . S
C501 C505 1.495 . S
C502 C501 1.392 . S
C502 C503 1.385 . S
C502 C504 1.478 . S
C503 H497 0.930 . S
C503 C499 1.400 . S
C503 C502 1.385 . S
C504 C502 1.478 . S
C504 C506 1.381 . S
C504 C510 1.383 . S
C505 C501 1.495 . S
C505 H511 0.959 . S
C505 H512 0.961 . S
C505 H513 0.960 . S
C506 C504 1.381 . S
C506 C507 1.394 . S
C506 H514 0.930 . S
C507 C506 1.394 . S
C507 C508 1.383 . S
C507 H515 0.929 . S
C508 C507 1.383 . S
C508 C509 1.377 . S
C509 H493 0.930 . S
C509 C508 1.377 . S
C509 C510 1.379 . S
C510 H494 0.931 . S
C510 C504 1.383 . S
C510 C509 1.379 . S
H511 C505 0.959 . S
H512 C505 0.961 . S
H513 C505 0.960 . S
H514 C506 0.930 . S
H515 C507 0.929 . S
H516 C524 0.929 . S
H517 C526 0.930 . S
H518 C528 0.930 . S
H519 C531 0.929 . S
H520 C534 0.930 . S
H521 C536 0.960 . S
H522 C536 0.960 . S
H523 C536 0.960 . S
C524 H516 0.929 . S
C524 C525 1.377 . S
C524 C526 1.384 . S
C525 C524 1.377 . S
C525 C531 1.390 . S
C526 H517 0.930 . S
C526 C524 1.384 . S
C526 C527 1.372 . S
C527 C526 1.372 . S
C527 C528 1.400 . S
C527 C532 1.490 . S
C528 H518 0.930 . S
C528 C527 1.400 . S
C528 C531 1.386 . S
H529 C545 0.930 . S
H530 C546 0.931 . S
C531 H519 0.929 . S
C531 C525 1.390 . S
C531 C528 1.386 . S
C532 C527 1.490 . S
C532 C534 1.395 . S
C532 C535 1.403 . S
H533 C539 0.930 . S
C534 H520 0.930 . S
C534 C532 1.395 . S
C534 C537 1.403 . S
C535 C532 1.403 . S
C535 C536 1.524 . S
C535 C539 1.400 . S
C536 H521 0.960 . S
C536 H522 0.960 . S
C536 H523 0.960 . S
C536 C535 1.524 . S
C537 C534 1.403 . S
C537 C538 1.392 . S
C537 C541 1.495 . S
C538 C537 1.392 . S
C538 C539 1.385 . S
C538 C540 1.478 . S
C539 H533 0.930 . S
C539 C535 1.400 . S
C539 C538 1.385 . S
C540 C538 1.478 . S
C540 C542 1.381 . S
C540 C546 1.383 . S
C541 C537 1.495 . S
C541 H547 0.959 . S
C541 H548 0.961 . S
C541 H549 0.960 . S
C542 C540 1.381 . S
C542 C543 1.394 . S
C542 H550 0.930 . S
C543 C542 1.394 . S
C543 C544 1.383 . S
C543 H551 0.929 . S
C544 C543 1.383 . S
C544 C545 1.377 . S
C545 H529 0.930 . S
C545 C544 1.377 . S
C545 C546 1.379 . S
C546 H530 0.931 . S
C546 C540 1.383 . S
C546 C545 1.379 . S
H547 C541 0.959 . S
H548 C541 0.961 . S
H549 C541 0.960 . S
H550 C542 0.930 . S
H551 C543 0.929 . S
H552 C560 0.929 . S
H553 C562 0.930 . S
H554 C564 0.930 . S
H555 C567 0.929 . S
H556 C570 0.930 . S
H557 C572 0.960 . S
H558 C572 0.960 . S
H559 C572 0.960 . S
C560 H552 0.929 . S
C560 C561 1.377 . S
C560 C562 1.384 . S
C561 C560 1.377 . S
C561 C567 1.390 . S
C562 H553 0.930 . S
C562 C560 1.384 . S
C562 C563 1.372 . S
C563 C562 1.372 . S
C563 C564 1.400 . S
C563 C568 1.490 . S
C564 H554 0.930 . S
C564 C563 1.400 . S
C564 C567 1.386 . S
H565 C581 0.930 . S
H566 C582 0.931 . S
C567 H555 0.929 . S
C567 C561 1.390 . S
C567 C564 1.386 . S
C568 C563 1.490 . S
C568 C570 1.395 . S
C568 C571 1.403 . S
H569 C575 0.930 . S
C570 H556 0.930 . S
C570 C568 1.395 . S
C570 C573 1.403 . S
C571 C568 1.403 . S
C571 C572 1.524 . S
C571 C575 1.400 . S
C572 H557 0.960 . S
C572 H558 0.960 . S
C572 H559 0.960 . S
C572 C571 1.524 . S
C573 C570 1.403 . S
C573 C574 1.392 . S
C573 C577 1.495 . S
C574 C573 1.392 . S
C574 C575 1.385 . S
C574 C576 1.478 . S
C575 H569 0.930 . S
C575 C571 1.400 . S
C575 C574 1.385 . S
C576 C574 1.478 . S
C576 C578 1.381 . S
C576 C582 1.383 . S
C577 C573 1.495 . S
C577 H583 0.959 . S
C577 H584 0.961 . S
C577 H585 0.960 . S
C578 C576 1.381 . S
C578 C579 1.394 . S
C578 H586 0.930 . S
C579 C578 1.394 . S
C579 C580 1.383 . S
C579 H587 0.929 . S
C580 C579 1.383 . S
C580 C581 1.377 . S
C581 H565 0.930 . S
C581 C580 1.377 . S
C581 C582 1.379 . S
C582 H566 0.931 . S
C582 C576 1.383 . S
C582 C581 1.379 . S
H583 C577 0.959 . S
H584 C577 0.961 . S
H585 C577 0.960 . S
H586 C578 0.930 . S
H587 C579 0.929 . S
H588 C596 0.929 . S
H589 C598 0.930 . S
H590 C600 0.930 . S
H591 C603 0.929 . S
H592 C606 0.930 . S
H593 C608 0.960 . S
H594 C608 0.960 . S
H595 C608 0.960 . S
C596 H588 0.929 . S
C596 C597 1.377 . S
C596 C598 1.384 . S
C597 C596 1.377 . S
C597 C603 1.390 . S
C598 H589 0.930 . S
C598 C596 1.384 . S
C598 C599 1.372 . S
C599 C598 1.372 . S
C599 C600 1.400 . S
C599 C604 1.490 . S
C600 H590 0.930 . S
C600 C599 1.400 . S
C600 C603 1.386 . S
H601 C617 0.930 . S
H602 C618 0.931 . S
C603 H591 0.929 . S
C603 C597 1.390 . S
C603 C600 1.386 . S
C604 C599 1.490 . S
C604 C606 1.395 . S
C604 C607 1.403 . S
H605 C611 0.930 . S
C606 H592 0.930 . S
C606 C604 1.395 . S
C606 C609 1.403 . S
C607 C604 1.403 . S
C607 C608 1.524 . S
C607 C611 1.400 . S
C608 H593 0.960 . S
C608 H594 0.960 . S
C608 H595 0.960 . S
C608 C607 1.524 . S
C609 C606 1.403 . S
C609 C610 1.392 . S
C609 C613 1.495 . S
C610 C609 1.392 . S
C610 C611 1.385 . S
C610 C612 1.478 . S
C611 H605 0.930 . S
C611 C607 1.400 . S
C611 C610 1.385 . S
C612 C610 1.478 . S
C612 C614 1.381 . S
C612 C618 1.383 . S
C613 C609 1.495 . S
C613 H619 0.959 . S
C613 H620 0.961 . S
C613 H621 0.960 . S
C614 C612 1.381 . S
C614 C615 1.394 . S
C614 H622 0.930 . S
C615 C614 1.394 . S
C615 C616 1.383 . S
C615 H623 0.929 . S
C616 C615 1.383 . S
C616 C617 1.377 . S
C617 H601 0.930 . S
C617 C616 1.377 . S
C617 C618 1.379 . S
C618 H602 0.931 . S
C618 C612 1.383 . S
C618 C617 1.379 . S
H619 C613 0.959 . S
H620 C613 0.961 . S
H621 C613 0.960 . S
H622 C614 0.930 . S
H623 C615 0.929 . S
H624 C632 0.929 . S
H625 C634 0.930 . S
H626 C636 0.930 . S
H627 C639 0.929 . S
H628 C642 0.930 . S
H629 C644 0.960 . S
H630 C644 0.960 . S
H631 C644 0.960 . S
C632 H624 0.929 . S
C632 C633 1.377 . S
C632 C634 1.384 . S
C633 C632 1.377 . S
C633 C639 1.390 . S
C634 H625 0.930 . S
C634 C632 1.384 . S
C634 C635 1.372 . S
C635 C634 1.372 . S
C635 C636 1.400 . S
C635 C640 1.490 . S
C636 H626 0.930 . S
C636 C635 1.400 . S
C636 C639 1.386 . S
H637 C653 0.930 . S
H638 C654 0.931 . S
C639 H627 0.929 . S
C639 C633 1.390 . S
C639 C636 1.386 . S
C640 C635 1.490 . S
C640 C642 1.395 . S
C640 C643 1.403 . S
H641 C647 0.930 1_455 S
C642 H628 0.930 . S
C642 C640 1.395 . S
C642 C645 1.403 . S
C643 C640 1.403 . S
C643 C644 1.524 1_655 S
C643 C647 1.400 . S
C644 H629 0.960 . S
C644 H630 0.960 . S
C644 H631 0.960 . S
C644 C643 1.524 1_455 S
C645 C642 1.403 . S
C645 C646 1.392 . S
C645 C649 1.495 . S
C646 C645 1.392 . S
C646 C647 1.385 . S
C646 C648 1.478 . S
C647 H641 0.930 1_655 S
C647 C643 1.400 . S
C647 C646 1.385 . S
C648 C646 1.478 . S
C648 C650 1.381 . S
C648 C654 1.383 1_655 S
C649 C645 1.495 . S
C649 H655 0.959 . S
C649 H656 0.961 . S
C649 H657 0.960 . S
C650 C648 1.381 . S
C650 C651 1.394 1_655 S
C650 H658 0.930 . S
C651 C650 1.394 1_455 S
C651 C652 1.383 . S
C651 H659 0.929 . S
C652 C651 1.383 . S
C652 C653 1.377 . S
C653 H637 0.930 . S
C653 C652 1.377 . S
C653 C654 1.379 . S
C654 H638 0.931 . S
C654 C648 1.383 1_455 S
C654 C653 1.379 . S
H655 C649 0.959 . S
H656 C649 0.961 . S
H657 C649 0.960 . S
H658 C650 0.930 . S
H659 C651 0.929 . S
H660 C668 0.929 . S
H661 C670 0.930 . S
H662 C672 0.930 . S
H663 C675 0.929 . S
H664 C678 0.930 . S
H665 C680 0.960 . S
H666 C680 0.960 . S
H667 C680 0.960 . S
C668 H660 0.929 . S
C668 C669 1.377 . S
C668 C670 1.384 . S
C669 C668 1.377 . S
C669 C675 1.390 . S
C670 H661 0.930 . S
C670 C668 1.384 . S
C670 C671 1.372 . S
C671 C670 1.372 . S
C671 C672 1.400 . S
C671 C676 1.490 . S
C672 H662 0.930 . S
C672 C671 1.400 . S
C672 C675 1.386 . S
H673 C689 0.930 . S
H674 C690 0.931 . S
C675 H663 0.929 . S
C675 C669 1.390 . S
C675 C672 1.386 . S
C676 C671 1.490 . S
C676 C678 1.395 . S
C676 C679 1.403 . S
H677 C683 0.930 . S
C678 H664 0.930 . S
C678 C676 1.395 . S
C678 C681 1.403 . S
C679 C676 1.403 . S
C679 C680 1.524 . S
C679 C683 1.400 . S
C680 H665 0.960 . S
C680 H666 0.960 . S
C680 H667 0.960 . S
C680 C679 1.524 . S
C681 C678 1.403 . S
C681 C682 1.392 . S
C681 C685 1.495 1_655 S
C682 C681 1.392 . S
C682 C683 1.385 . S
C682 C684 1.471 1_655 S
C683 H677 0.930 . S
C683 C679 1.400 . S
C683 C682 1.385 . S
C684 C682 1.471 1_455 S
C684 C686 1.397 . S
C684 C690 1.374 1_455 S
C685 C681 1.495 1_455 S
C685 H691 0.959 . S
C685 H692 0.961 . S
C685 H693 0.960 . S
C686 C684 1.397 . S
C686 C687 1.394 . S
C686 H694 0.930 . S
C687 C686 1.394 . S
C687 C688 1.383 . S
C687 H695 0.929 . S
C688 C687 1.383 . S
C688 C689 1.377 1_455 S
C689 H673 0.930 . S
C689 C688 1.377 1_655 S
C689 C690 1.379 . S
C690 H674 0.931 . S
C690 C684 1.374 1_655 S
C690 C689 1.379 . S
H691 C685 0.959 . S
H692 C685 0.961 . S
H693 C685 0.960 . S
H694 C686 0.930 . S
H695 C687 0.929 . S
H696 C704 0.929 . S
H697 C706 0.930 1_455 S
H698 C708 0.930 1_455 S
H699 C711 0.929 . S
H700 C714 0.930 1_655 S
H701 C716 0.960 . S
H702 C716 0.960 . S
H703 C716 0.960 . S
C704 H696 0.929 . S
C704 C705 1.377 . S
C704 C706 1.384 . S
C705 C704 1.377 . S
C705 C711 1.390 . S
C706 H697 0.930 1_655 S
C706 C704 1.384 . S
C706 C707 1.372 1_655 S
C707 C706 1.372 1_455 S
C707 C708 1.400 1_455 S
C707 C712 1.490 . S
C708 H698 0.930 1_655 S
C708 C707 1.400 1_655 S
C708 C711 1.386 . S
H709 C725 0.930 . S
H710 C726 0.931 . S
C711 H699 0.929 . S
C711 C705 1.390 . S
C711 C708 1.386 . S
C712 C707 1.490 . S
C712 C714 1.395 . S
C712 C715 1.403 . S
H713 C719 0.930 . S
C714 H700 0.930 1_455 S
C714 C712 1.395 . S
C714 C717 1.403 . S
C715 C712 1.403 . S
C715 C716 1.524 . S
C715 C719 1.400 . S
C716 H701 0.960 . S
C716 H702 0.960 . S
C716 H703 0.960 . S
C716 C715 1.524 . S
C717 C714 1.403 . S
C717 C718 1.392 . S
C717 C721 1.495 1_455 S
C718 C717 1.392 . S
C718 C719 1.385 . S
C718 C720 1.478 . S
C719 H713 0.930 . S
C719 C715 1.400 . S
C719 C718 1.385 . S
C720 C718 1.478 . S
C720 C722 1.381 . S
C720 C726 1.383 . S
C721 C717 1.495 1_655 S
C721 H727 0.959 . S
C721 H728 0.961 . S
C721 H729 0.960 1_655 S
C722 C720 1.381 . S
C722 C723 1.394 . S
C722 H730 0.930 . S
C723 C722 1.394 . S
C723 C724 1.383 . S
C723 H731 0.929 . S
C724 C723 1.383 . S
C724 C725 1.377 . S
C725 H709 0.930 . S
C725 C724 1.377 . S
C725 C726 1.379 . S
C726 H710 0.931 . S
C726 C720 1.383 . S
C726 C725 1.379 . S
H727 C721 0.959 . S
H728 C721 0.961 . S
H729 C721 0.960 1_455 S
H730 C722 0.930 . S
H731 C723 0.929 . S
H732 C740 0.929 . S
H733 C742 0.930 . S
H734 C744 0.930 . S
H735 C747 0.929 . S
H736 C750 0.930 . S
H737 C752 0.960 . S
H738 C752 0.960 . S
H739 C752 0.960 . S
C740 H732 0.929 . S
C740 C741 1.377 . S
C740 C742 1.384 . S
C741 C740 1.377 . S
C741 C747 1.390 . S
C742 H733 0.930 . S
C742 C740 1.384 . S
C742 C743 1.372 . S
C743 C742 1.372 . S
C743 C744 1.400 . S
C743 C748 1.490 . S
C744 H734 0.930 . S
C744 C743 1.400 . S
C744 C747 1.386 . S
H745 C761 0.930 . S
H746 C762 0.931 . S
C747 H735 0.929 . S
C747 C741 1.390 . S
C747 C744 1.386 . S
C748 C743 1.490 . S
C748 C750 1.395 . S
C748 C751 1.403 . S
H749 C755 0.930 1_655 S
C750 H736 0.930 . S
C750 C748 1.395 . S
C750 C753 1.403 . S
C751 C748 1.403 . S
C751 C752 1.524 1_455 S
C751 C755 1.400 . S
C752 H737 0.960 . S
C752 H738 0.960 . S
C752 H739 0.960 . S
C752 C751 1.524 1_655 S
C753 C750 1.403 . S
C753 C754 1.392 . S
C753 C757 1.495 . S
C754 C753 1.392 . S
C754 C755 1.385 . S
C754 C756 1.478 . S
C755 H749 0.930 1_455 S
C755 C751 1.400 . S
C755 C754 1.385 . S
C756 C754 1.478 . S
C756 C758 1.381 . S
C756 C762 1.383 1_455 S
C757 C753 1.495 . S
C757 H763 0.959 . S
C757 H764 0.961 . S
C757 H765 0.960 . S
C758 C756 1.381 . S
C758 C759 1.394 1_455 S
C758 H766 0.930 . S
C759 C758 1.394 1_655 S
C759 C760 1.383 . S
C759 H767 0.929 . S
C760 C759 1.383 . S
C760 C761 1.377 . S
C761 H745 0.930 . S
C761 C760 1.377 . S
C761 C762 1.379 . S
C762 H746 0.931 . S
C762 C756 1.383 1_655 S
C762 C761 1.379 . S
H763 C757 0.959 . S
H764 C757 0.961 . S
H765 C757 0.960 . S
H766 C758 0.930 . S
H767 C759 0.929 . S
C345 C158 1.504 1_554 S
C364 C63 1.495 . S
C381 C231 1.504 . S
C400 C326 1.497 . S
C417 C74 1.504 1_554 S
C436 C147 1.507 . S
C453 C315 1.499 . S
C472 C242 1.503 . S
C489 C321 1.174 . S
C508 C56 1.249 . S
C525 C153 1.190 . S
C544 C224 1.268 . S
C561 C151 1.262 . S
C580 C226 1.187 . S
C597 C319 1.263 . S
C616 C58 1.203 . S
C633 C140 1.266 . S
C652 C237 1.194 . S
C669 C308 1.264 . S
C688 C69 1.210 . S
C705 C310 1.178 . S
C724 C67 1.269 . S
C741 C235 1.264 . S
C760 C142 1.190 . S
