# Generated by pormake.
# Topology wme, (6)-cn, num edge types: 1
# Building blocks:
#     Node 0, Type 0, BuildingBlock: FUNLAD_clean_sbu_0, # of connection points: 6
#     Node 1, Type 0, BuildingBlock: FUNLAD_clean_sbu_0, # of connection points: 6
#     Node 2, Type 0, BuildingBlock: FUNLAD_clean_sbu_0, # of connection points: 6
#     Node 3, Type 0, BuildingBlock: FUNLAD_clean_sbu_0, # of connection points: 6
#     Node 4, Type 0, BuildingBlock: FUNLAD_clean_sbu_0, # of connection points: 6
#     Node 5, Type 0, BuildingBlock: FUNLAD_clean_sbu_0, # of connection points: 6
#     Node 6, Type 0, BuildingBlock: FUNLAD_clean_sbu_0, # of connection points: 6
#     Node 7, Type 0, BuildingBlock: FUNLAD_clean_sbu_0, # of connection points: 6
#     Node 8, Type 0, BuildingBlock: FUNLAD_clean_sbu_0, # of connection points: 6
#     Node 9, Type 0, BuildingBlock: FUNLAD_clean_sbu_0, # of connection points: 6
#     Node 10, Type 0, BuildingBlock: FUNLAD_clean_sbu_0, # of connection points: 6
#     Node 11, Type 0, BuildingBlock: FUNLAD_clean_sbu_0, # of connection points: 6
#     Edge 12, Type (0, 0), BuildingBlock: AJUNOK_clean_linker_0, # of connection points: 2
#     Edge 13, Type (0, 0), BuildingBlock: AJUNOK_clean_linker_0, # of connection points: 2
#     Edge 14, Type (0, 0), BuildingBlock: AJUNOK_clean_linker_0, # of connection points: 2
#     Edge 15, Type (0, 0), BuildingBlock: AJUNOK_clean_linker_0, # of connection points: 2
#     Edge 16, Type (0, 0), BuildingBlock: AJUNOK_clean_linker_0, # of connection points: 2
#     Edge 17, Type (0, 0), BuildingBlock: AJUNOK_clean_linker_0, # of connection points: 2
#     Edge 18, Type (0, 0), BuildingBlock: AJUNOK_clean_linker_0, # of connection points: 2
#     Edge 19, Type (0, 0), BuildingBlock: AJUNOK_clean_linker_0, # of connection points: 2
#     Edge 20, Type (0, 0), BuildingBlock: AJUNOK_clean_linker_0, # of connection points: 2
#     Edge 21, Type (0, 0), BuildingBlock: AJUNOK_clean_linker_0, # of connection points: 2
#     Edge 22, Type (0, 0), BuildingBlock: AJUNOK_clean_linker_0, # of connection points: 2
#     Edge 23, Type (0, 0), BuildingBlock: AJUNOK_clean_linker_0, # of connection points: 2
#     Edge 24, Type (0, 0), BuildingBlock: AJUNOK_clean_linker_0, # of connection points: 2
#     Edge 25, Type (0, 0), BuildingBlock: AJUNOK_clean_linker_0, # of connection points: 2
#     Edge 26, Type (0, 0), BuildingBlock: AJUNOK_clean_linker_0, # of connection points: 2
#     Edge 27, Type (0, 0), BuildingBlock: AJUNOK_clean_linker_0, # of connection points: 2
#     Edge 28, Type (0, 0), BuildingBlock: AJUNOK_clean_linker_0, # of connection points: 2
#     Edge 29, Type (0, 0), BuildingBlock: AJUNOK_clean_linker_0, # of connection points: 2
#     Edge 30, Type (0, 0), BuildingBlock: AJUNOK_clean_linker_0, # of connection points: 2
#     Edge 31, Type (0, 0), BuildingBlock: AJUNOK_clean_linker_0, # of connection points: 2
#     Edge 32, Type (0, 0), BuildingBlock: AJUNOK_clean_linker_0, # of connection points: 2
#     Edge 33, Type (0, 0), BuildingBlock: AJUNOK_clean_linker_0, # of connection points: 2
#     Edge 34, Type (0, 0), BuildingBlock: AJUNOK_clean_linker_0, # of connection points: 2
#     Edge 35, Type (0, 0), BuildingBlock: AJUNOK_clean_linker_0, # of connection points: 2
#     Edge 36, Type (0, 0), BuildingBlock: AJUNOK_clean_linker_0, # of connection points: 2
#     Edge 37, Type (0, 0), BuildingBlock: AJUNOK_clean_linker_0, # of connection points: 2
#     Edge 38, Type (0, 0), BuildingBlock: AJUNOK_clean_linker_0, # of connection points: 2
#     Edge 39, Type (0, 0), BuildingBlock: AJUNOK_clean_linker_0, # of connection points: 2
#     Edge 40, Type (0, 0), BuildingBlock: AJUNOK_clean_linker_0, # of connection points: 2
#     Edge 41, Type (0, 0), BuildingBlock: AJUNOK_clean_linker_0, # of connection points: 2
#     Edge 42, Type (0, 0), BuildingBlock: AJUNOK_clean_linker_0, # of connection points: 2
#     Edge 43, Type (0, 0), BuildingBlock: AJUNOK_clean_linker_0, # of connection points: 2
#     Edge 44, Type (0, 0), BuildingBlock: AJUNOK_clean_linker_0, # of connection points: 2
#     Edge 45, Type (0, 0), BuildingBlock: AJUNOK_clean_linker_0, # of connection points: 2
#     Edge 46, Type (0, 0), BuildingBlock: AJUNOK_clean_linker_0, # of connection points: 2
#     Edge 47, Type (0, 0), BuildingBlock: AJUNOK_clean_linker_0, # of connection points: 2
# Relax obj value: 0.122
# Max RMSD: 0.201
# Mean RMSD: 0.201
data_MOF--net-wme--node1-FUNLAD_clean_sbu_0--edge1-AJUNOK_clean_linker_0
_symmetry_space_group_name_H-M    P1
_symmetry_Int_Tables_number       1
_symmetry_cell_setting            triclinic
loop_
_symmetry_equiv_pos_as_xyz
'x, y, z'
_cell_length_a     21.44424
_cell_length_b     21.492253
_cell_length_c     69.202367
_cell_angle_alpha  90.029637
_cell_angle_beta   90.081245
_cell_angle_gamma 119.46026
loop_
_atom_site_label
_atom_site_type_symbol
_atom_site_fract_x
_atom_site_fract_y
_atom_site_fract_z
_atom_type_partial_charge
C0 C 0.21342 0.2029 0.15095 0.0
N1 N 0.18094 0.29173 0.10195 0.0
C2 C 0.24354 0.29598 0.09608 0.0
C3 C 0.25309 0.28235 0.07699 0.0
C4 C 0.19758 0.26322 0.06361 0.0
C5 C 0.13358 0.25996 0.06982 0.0
C6 C 0.12635 0.27463 0.08921 0.0
Zn7 Zn 0.17309 0.30199 0.13134 0.0
C8 C 0.03422 0.20226 0.14765 0.0
N9 N 0.17114 0.31418 0.19315 0.0
C10 C 0.13807 0.25214 0.20337 0.0
C11 C 0.19895 0.37869 0.20219 0.0
C12 C 0.19414 0.38236 0.22229 0.0
C13 C 0.16062 0.31907 0.23317 0.0
C14 C 0.13197 0.25337 0.22342 0.0
Zn15 Zn 0.17582 0.3078 0.16361 0.0
O16 O 0.20516 0.22596 0.13487 0.0
C17 C 0.31225 0.41416 0.14722 0.0
O18 O 0.20713 0.23084 0.16643 0.0
H19 H 0.22468 0.42739 0.19381 0.0
H20 H 0.28586 0.30775 0.10637 0.0
H21 H 0.11572 0.20137 0.19594 0.0
O22 O 0.27841 0.38535 0.13181 0.0
O23 O 0.28257 0.38968 0.16344 0.0
H24 H 0.07676 0.27083 0.09414 0.0
O25 O 0.14202 0.38242 0.16021 0.0
O26 O 0.13804 0.37639 0.12843 0.0
O27 O 0.06862 0.22829 0.16322 0.0
O28 O 0.06633 0.2213 0.13152 0.0
C29 C 0.12775 0.40097 0.1441 0.0
H30 H 0.30297 0.28482 0.07285 0.0
H31 H 0.08976 0.24615 0.05983 0.0
H32 H 0.21681 0.43409 0.22927 0.0
H33 H 0.10409 0.20328 0.23118 0.0
C34 C -0.03396 0.21068 0.65064 0.0
N35 N 0.84493 0.17835 0.60151 0.0
C36 C 0.90338 0.24067 0.59607 0.0
C37 C 0.92638 0.25221 0.57699 0.0
C38 C 0.8894 0.19923 0.56312 0.0
C39 C 0.82962 0.13482 0.56894 0.0
C40 C 0.80789 0.1255 0.58837 0.0
Zn41 Zn 0.82572 0.16972 0.6309 0.0
C42 C 0.78824 0.03185 0.64737 0.0
N43 N 0.81268 0.16919 0.69259 0.0
C44 C 0.86078 0.22262 0.70413 0.0
C45 C 0.7558 0.11037 0.70025 0.0
C46 C 0.74539 0.10366 0.72019 0.0
C47 C 0.79415 0.15779 0.73246 0.0
C48 C 0.85261 0.21788 0.72421 0.0
Zn49 Zn 0.82557 0.1744 0.66318 0.0
O50 O 0.93308 0.2002 0.63474 0.0
C51 C 0.8551 0.31045 0.64673 0.0
O52 O 0.93316 0.20475 0.66633 0.0
H53 H 0.71852 0.06812 0.69089 0.0
H54 H 0.93386 0.28147 0.60665 0.0
H55 H 0.90599 0.2686 0.69777 0.0
O56 O 0.84812 0.27548 0.6314 0.0
O57 O 0.8498 0.281 0.663 0.0
H58 H 0.76232 0.07588 0.59298 0.0
O59 O 0.71755 0.14165 0.65955 0.0
O60 O 0.71674 0.13612 0.62778 0.0
O61 O 0.79927 0.06759 0.66281 0.0
O62 O 0.79943 0.06276 0.63108 0.0
C63 C 0.68338 0.1262 0.64368 0.0
H64 H -0.02633 0.30189 0.57318 0.0
H65 H 0.80004 0.09254 0.55858 0.0
H66 H 0.69955 0.05654 0.72596 0.0
H67 H 0.89235 0.26009 0.73319 0.0
C68 C 0.73885 -0.01338 0.15071 0.0
N69 N 0.64659 0.86948 0.1015 0.0
C70 C 0.64531 0.92976 0.09604 0.0
C71 C 0.65966 0.95398 0.07708 0.0
C72 C 0.67636 0.91661 0.06338 0.0
C73 C 0.67719 0.85425 0.06917 0.0
C74 C 0.66195 0.83139 0.08847 0.0
Zn75 Zn 0.63442 0.84972 0.13084 0.0
C76 C 0.72891 0.80333 0.14761 0.0
N77 N 0.61977 0.83582 0.19245 0.0
C78 C 0.62459 0.88932 0.20399 0.0
C79 C 0.61074 0.77362 0.20013 0.0
C80 C 0.60616 0.76338 0.22009 0.0
C81 C 0.61154 0.81783 0.23238 0.0
C82 C 0.62118 0.88165 0.22408 0.0
Zn83 Zn 0.62885 0.84885 0.16306 0.0
O84 O 0.71412 0.95522 0.13476 0.0
C85 C 0.52744 0.88667 0.14661 0.0
O86 O 0.71128 0.95405 0.16635 0.0
H87 H 0.60761 0.73188 0.19077 0.0
H88 H 0.63519 0.96089 0.10655 0.0
H89 H 0.63207 0.93846 0.19761 0.0
O90 O 0.55393 0.87771 0.13121 0.0
O91 O 0.55199 0.88108 0.16281 0.0
H92 H 0.66372 0.78421 0.09309 0.0
O93 O 0.54882 0.74337 0.1592 0.0
O94 O 0.5563 0.74245 0.12752 0.0
O95 O 0.7034 0.81423 0.16293 0.0
O96 O 0.71186 0.81772 0.13128 0.0
C97 C 0.52972 0.70966 0.14328 0.0
H98 H 0.65928 0.00269 0.07327 0.0
H99 H 0.68929 0.82362 0.05892 0.0
H100 H 0.59852 0.71327 0.22586 0.0
H101 H 0.62757 0.92583 0.23299 0.0
C102 C 0.70439 0.73631 0.65151 0.0
N103 N 0.73901 0.65149 0.60205 0.0
C104 C 0.67659 0.64826 0.5964 0.0
C105 C 0.66671 0.66296 0.57744 0.0
C106 C 0.72157 0.68181 0.56392 0.0
C107 C 0.78555 0.68438 0.56991 0.0
C108 C 0.79322 0.6689 0.58921 0.0
Zn109 Zn 0.74637 0.63836 0.63135 0.0
C110 C 0.88355 0.73746 0.64862 0.0
N111 N 0.74517 0.62136 0.69297 0.0
C112 C 0.69264 0.61897 0.70448 0.0
C113 C 0.80308 0.62021 0.70067 0.0
C114 C 0.8105 0.61798 0.72066 0.0
C115 C 0.75804 0.61724 0.73289 0.0
C116 C 0.69799 0.61678 0.72459 0.0
Zn117 Zn 0.74073 0.63114 0.66357 0.0
O118 O 0.71426 0.71388 0.63553 0.0
C119 C 0.60561 0.52613 0.64644 0.0
O120 O 0.71032 0.70876 0.66711 0.0
H121 H 0.8444 0.6223 0.69131 0.0
H122 H 0.63453 0.63619 0.60676 0.0
H123 H 0.64696 0.61967 0.69808 0.0
O124 O 0.64081 0.555 0.63125 0.0
O125 O 0.63414 0.54999 0.66284 0.0
H126 H 0.84274 0.67202 0.59398 0.0
O127 O 0.77355 0.55583 0.65949 0.0
O128 O 0.78131 0.56415 0.6278 0.0
O129 O 0.84737 0.71024 0.66381 0.0
O130 O 0.85334 0.71916 0.63218 0.0
C131 C 0.78942 0.53817 0.6435 0.0
H132 H 0.6169 0.66108 0.57348 0.0
H133 H 0.82889 0.69797 0.55981 0.0
H134 H 0.8577 0.61862 0.72651 0.0
H135 H 0.65573 0.61493 0.73354 0.0
C136 C 0.94937 0.72794 0.15021 0.0
N137 N 0.07172 0.76073 0.1014 0.0
C138 C 0.01403 0.69828 0.09561 0.0
C139 C -0.00881 0.68785 0.07648 0.0
C140 C 0.02711 0.74231 0.06295 0.0
C141 C 0.0869 0.80638 0.06908 0.0
C142 C 0.10854 0.81451 0.08854 0.0
Zn143 Zn 0.08978 0.76844 0.13087 0.0
C144 C 0.12729 0.90585 0.1478 0.0
N145 N 0.10121 0.76714 0.19257 0.0
C146 C 0.05206 0.71384 0.20389 0.0
C147 C 0.15816 0.82542 0.20048 0.0
C148 C 0.16762 0.83164 0.22047 0.0
C149 C 0.11796 0.77742 0.23248 0.0
C150 C 0.05934 0.71806 0.22401 0.0
Zn151 Zn 0.08961 0.7627 0.16311 0.0
O152 O -0.01797 0.73765 0.1343 0.0
C153 C 0.05992 0.62714 0.14654 0.0
O154 O -0.01769 0.73338 0.16588 0.0
H155 H 0.1961 0.86773 0.1913 0.0
H156 H -0.01622 0.65664 0.10597 0.0
H157 H 0.00692 0.66821 0.19732 0.0
O158 O 0.06758 0.6624 0.13122 0.0
O159 O 0.06455 0.65629 0.16282 0.0
H160 H 0.15367 0.8641 0.0934 0.0
O161 O 0.19765 0.79478 0.15985 0.0
O162 O 0.19897 0.80237 0.12812 0.0
O163 O 0.11662 0.86916 0.16299 0.0
O164 O 0.116 0.87584 0.13134 0.0
C165 C 0.2321 0.81125 0.14406 0.0
H166 H 0.94442 0.63802 0.07242 0.0
H167 H 0.11642 0.8495 0.05899 0.0
H168 H 0.21265 0.87903 0.22647 0.0
H169 H 0.01984 0.67524 0.23284 0.0
C170 C 0.17865 0.95496 0.65114 0.0
N171 N 0.26851 0.07025 0.60144 0.0
C172 C 0.26855 0.00934 0.59601 0.0
C173 C 0.2542 -0.01472 0.57702 0.0
C174 C 0.23887 0.02354 0.56326 0.0
C175 C 0.23938 0.08659 0.56904 0.0
C176 C 0.25452 0.10922 0.58837 0.0
Zn177 Zn 0.2815 0.09052 0.63074 0.0
C178 C 0.18685 0.13702 0.64733 0.0
N179 N 0.29817 0.10761 0.69239 0.0
C180 C 0.29841 0.05601 0.70373 0.0
C181 C 0.30185 0.16738 0.70029 0.0
C182 C 0.30465 0.17637 0.72032 0.0
C183 C 0.30322 0.1232 0.73237 0.0
C184 C 0.30101 0.06281 0.72385 0.0
Zn185 Zn 0.28847 0.09403 0.66298 0.0
O186 O 0.20185 -0.01506 0.63496 0.0
C187 C 0.38962 0.0556 0.64639 0.0
O188 O 0.20791 -0.01114 0.66651 0.0
H189 H 0.30153 0.20779 0.69105 0.0
H190 H 0.27796 -0.02222 0.60654 0.0
H191 H 0.29579 0.00908 0.69718 0.0
O192 O 0.36163 0.06246 0.63099 0.0
O193 O 0.36678 0.06346 0.6626 0.0
H194 H 0.25396 0.15704 0.59297 0.0
O195 O 0.36667 0.19954 0.65897 0.0
O196 O 0.3595 0.19785 0.62723 0.0
O197 O 0.2122 0.12685 0.66282 0.0
O198 O 0.20427 0.12234 0.63112 0.0
C199 C 0.38559 0.23199 0.64289 0.0
H200 H 0.25363 0.93608 0.57322 0.0
H201 H 0.2285 0.11801 0.55875 0.0
H202 H 0.3062 0.22364 0.72635 0.0
H203 H 0.30121 0.02124 0.73265 0.0
C204 C 0.72037 0.71493 0.39804 0.0
N205 N 0.63659 0.75559 0.44694 0.0
C206 C 0.63017 0.69234 0.45293 0.0
C207 C 0.64362 0.68267 0.47204 0.0
C208 C 0.66442 0.73855 0.48535 0.0
C209 C 0.66977 0.80321 0.479 0.0
C210 C 0.65556 0.81068 0.45957 0.0
Zn211 Zn 0.62623 0.76285 0.41752 0.0
C212 C 0.73176 0.8972 0.40043 0.0
N213 N 0.61458 0.76417 0.35574 0.0
C214 C 0.6765 0.7924 0.3454 0.0
C215 C 0.55057 0.74294 0.34687 0.0
C216 C 0.54714 0.7498 0.32687 0.0
C217 C 0.61042 0.78011 0.31592 0.0
C218 C 0.67565 0.80099 0.32543 0.0
Zn219 Zn 0.62033 0.75883 0.38525 0.0
O220 O 0.69893 0.7259 0.41407 0.0
C221 C 0.50834 0.62769 0.40173 0.0
O222 O 0.6925 0.7212 0.38253 0.0
H223 H 0.50215 0.72143 0.35531 0.0
H224 H 0.61667 0.64951 0.44272 0.0
H225 H 0.727 0.8095 0.35269 0.0
O226 O 0.53842 0.65905 0.41733 0.0
O227 O 0.53488 0.6563 0.38558 0.0
H228 H 0.66111 0.86079 0.45452 0.0
O229 O 0.54997 0.7988 0.38855 0.0
O230 O 0.55511 0.8026 0.42032 0.0
O231 O 0.70328 0.8616 0.38527 0.0
O232 O 0.71124 0.86824 0.41692 0.0
C233 C 0.53166 0.81392 0.40457 0.0
H234 H 0.63951 0.63224 0.47626 0.0
H235 H 0.68475 0.84735 0.48892 0.0
H236 H 0.49547 0.73139 0.32008 0.0
H237 H 0.72574 0.82491 0.31757 0.0
C238 C -0.02568 0.74123 0.89745 0.0
N239 N 0.85935 0.64971 0.94697 0.0
C240 C 0.91965 0.64774 0.9522 0.0
C241 C 0.94538 0.66289 0.97105 0.0
C242 C 0.90954 0.68117 0.98486 0.0
C243 C 0.84697 0.68237 0.97931 0.0
C244 C 0.82257 0.66626 0.96014 0.0
Zn245 Zn 0.83767 0.63791 0.91769 0.0
C246 C 0.79271 0.73457 0.90183 0.0
N247 N 0.8194 0.62513 0.85604 0.0
C248 C 0.869 0.62395 0.84402 0.0
C249 C 0.75893 0.62252 0.84892 0.0
C250 C 0.74714 0.61997 0.82904 0.0
C251 C 0.79813 0.62042 0.81628 0.0
C252 C 0.85925 0.62137 0.82397 0.0
Zn253 Zn 0.83498 0.63344 0.88541 0.0
O254 O 0.94334 0.71679 0.91345 0.0
C255 C 0.87142 0.53004 0.90113 0.0
O256 O 0.94097 0.71391 0.88184 0.0
H257 H 0.71986 0.62305 0.85868 0.0
H258 H 0.94976 0.63669 0.94157 0.0
H259 H 0.9166 0.6259 0.84997 0.0
O260 O 0.86475 0.55712 0.91672 0.0
O261 O 0.86463 0.55467 0.88508 0.0
H262 H 0.77533 0.66852 0.9557 0.0
O263 O 0.72889 0.55535 0.88952 0.0
O264 O 0.73008 0.56044 0.92128 0.0
O265 O 0.80303 0.71004 0.88624 0.0
O266 O 0.80666 0.71581 0.91794 0.0
C267 C 0.6961 0.53532 0.90554 0.0
H268 H -0.00584 0.6621 0.97469 0.0
H269 H 0.81742 0.6956 0.98965 0.0
H270 H 0.69856 0.61769 0.82369 0.0
H271 H 0.89977 0.62168 0.81458 0.0
C272 C 0.19488 -0.01878 0.39815 0.0
N273 N 0.1642 0.86061 0.44695 0.0
C274 C 0.22662 0.91857 0.45267 0.0
C275 C 0.23639 0.94271 0.47165 0.0
C276 C 0.18125 0.90788 0.48508 0.0
C277 C 0.11719 0.84791 0.47903 0.0
C278 C 0.10977 0.82487 0.45974 0.0
Zn279 Zn 0.15674 0.84143 0.41758 0.0
C280 C 0.01777 0.80054 0.40065 0.0
N281 N 0.15783 0.8286 0.35596 0.0
C282 C 0.20968 0.87899 0.34454 0.0
C283 C 0.10148 0.76943 0.34816 0.0
C284 C 0.09551 0.75933 0.32819 0.0
C285 C 0.14813 0.81041 0.31607 0.0
C286 C 0.2058 0.87097 0.32445 0.0
Zn287 Zn 0.16211 0.84138 0.38536 0.0
O288 O 0.18579 0.9483 0.41395 0.0
C289 C 0.29952 0.87407 0.40192 0.0
O290 O 0.18896 0.9487 0.38236 0.0
H291 H 0.06071 0.72998 0.35745 0.0
H292 H 0.26864 0.94817 0.44234 0.0
H293 H 0.2538 0.92578 0.35102 0.0
O294 O 0.26397 0.86541 0.41726 0.0
O295 O 0.26996 0.86917 0.38567 0.0
H296 H 0.06016 0.77962 0.45491 0.0
O297 O 0.13265 0.73388 0.38897 0.0
O298 O 0.12461 0.73318 0.42067 0.0
O299 O 0.05437 0.81141 0.38542 0.0
O300 O 0.04844 0.81329 0.41706 0.0
C301 C 0.11689 0.6999 0.40486 0.0
H302 H 0.28622 -0.01042 0.47569 0.0
H303 H 0.07359 0.81934 0.48909 0.0
H304 H 0.05033 0.71184 0.32228 0.0
H305 H 0.24677 0.91228 0.31557 0.0
C306 C 0.19055 0.2157 0.89725 0.0
N307 N 0.27765 0.1834 0.94685 0.0
C308 C 0.28143 0.24597 0.95242 0.0
C309 C 0.26866 0.25684 0.97147 0.0
C310 C 0.25099 0.20275 0.98514 0.0
C311 C 0.24786 0.13862 0.97921 0.0
C312 C 0.26157 0.13001 0.95984 0.0
Zn313 Zn 0.2889 0.1746 0.91755 0.0
C314 C 0.18858 0.03639 0.90106 0.0
N315 N 0.30328 0.17178 0.85589 0.0
C316 C 0.30595 0.224 0.84421 0.0
C317 C 0.30318 0.1132 0.84835 0.0
C318 C 0.30436 0.10474 0.82839 0.0
C319 C 0.30534 0.15685 0.81599 0.0
C320 C 0.30724 0.21766 0.82411 0.0
Zn321 Zn 0.29506 0.17767 0.8853 0.0
O322 O 0.21314 0.20701 0.91339 0.0
C323 C 0.40176 0.31355 0.90185 0.0
O324 O 0.21845 0.20903 0.88182 0.0
H325 H 0.30127 0.07234 0.85784 0.0
H326 H 0.2926 0.2874 0.94195 0.0
H327 H 0.30594 0.27011 0.85048 0.0
O328 O 0.37266 0.27965 0.91719 0.0
O329 O 0.37765 0.28395 0.88557 0.0
H330 H 0.25819 0.08043 0.95513 0.0
O331 O 0.3694 0.14386 0.88932 0.0
O332 O 0.36297 0.13919 0.92106 0.0
O333 O 0.21451 0.07104 0.88557 0.0
O334 O 0.20783 0.0681 0.91727 0.0
C335 C 0.38756 0.12898 0.90539 0.0
H336 H 0.27097 0.30676 0.97539 0.0
H337 H 0.23516 0.09587 0.98942 0.0
H338 H 0.30436 0.05778 0.8227 0.0
H339 H 0.30803 0.25902 0.81501 0.0
C340 C 0.9448 0.19255 0.39631 0.0
N341 N 0.05267 0.28535 0.4469 0.0
C342 C -0.00996 0.28338 0.45159 0.0
C343 C -0.03559 0.26978 0.47044 0.0
C344 C 0.00317 0.25779 0.48483 0.0
C345 C 0.06731 0.25915 0.47975 0.0
C346 C 0.09146 0.27342 0.46054 0.0
Zn347 Zn 0.07685 0.29909 0.41783 0.0
C348 C 0.12881 0.20811 0.40194 0.0
N349 N 0.09922 0.31715 0.35627 0.0
C350 C 0.04734 0.31143 0.34385 0.0
C351 C 0.16336 0.32762 0.34958 0.0
C352 C 0.17678 0.33129 0.32977 0.0
C353 C 0.12342 0.32323 0.31661 0.0
C354 C 0.0584 0.31437 0.32387 0.0
Zn355 Zn 0.08077 0.30606 0.38555 0.0
O356 O -0.02693 0.21692 0.41264 0.0
C357 C 0.03717 0.40363 0.40123 0.0
O358 O -0.02118 0.22247 0.38105 0.0
H359 H 0.20405 0.33218 0.35964 0.0
H360 H 0.9586 0.29092 0.44059 0.0
H361 H -0.00321 0.3033 0.34943 0.0
O362 O 0.04528 0.37693 0.41672 0.0
O363 O 0.0446 0.37996 0.38508 0.0
H364 H 0.1405 0.27407 0.45651 0.0
O365 O 0.18252 0.3883 0.39069 0.0
O366 O 0.18226 0.38029 0.42246 0.0
O367 O 0.11917 0.23382 0.38645 0.0
O368 O 0.11241 0.22433 0.4181 0.0
C369 C 0.21411 0.40972 0.40682 0.0
H370 H 0.91393 0.26756 0.47366 0.0
H371 H 0.09848 0.24978 0.49051 0.0
H372 H 0.22832 0.33998 0.3248 0.0
H373 H 0.01589 0.30799 0.3142 0.0
C374 C 0.7169 0.95393 0.89825 0.0
N375 N 0.75014 0.07665 0.94686 0.0
C376 C 0.68811 0.01848 0.95262 0.0
C377 C 0.67856 -0.00479 0.97167 0.0
C378 C 0.73348 0.03123 0.98515 0.0
C379 C 0.79715 0.09142 0.97905 0.0
C380 C 0.8044 0.11347 0.95967 0.0
Zn381 Zn 0.75677 0.09465 0.91741 0.0
C382 C 0.89406 0.13314 0.90029 0.0
N383 N 0.75272 0.10394 0.85575 0.0
C384 C 0.69957 0.0548 0.84432 0.0
C385 C 0.81034 0.16179 0.84797 0.0
C386 C 0.81592 0.17234 0.82804 0.0
C387 C 0.76186 0.12273 0.81592 0.0
C388 C 0.70327 0.06306 0.82423 0.0
Zn389 Zn 0.74919 0.09222 0.88519 0.0
O390 O 0.72759 -0.0122 0.91398 0.0
C391 C 0.61356 0.06121 0.9021 0.0
O392 O 0.72128 -0.01464 0.8824 0.0
H393 H 0.85256 0.19975 0.85723 0.0
H394 H 0.64617 -0.01193 0.9423 0.0
H395 H 0.65443 0.00901 0.85078 0.0
O396 O 0.6502 0.07073 0.91727 0.0
O397 O 0.64185 0.06531 0.88571 0.0
H398 H 0.85372 0.15888 0.95481 0.0
O399 O 0.77954 0.19961 0.88846 0.0
O400 O 0.78907 0.20324 0.92015 0.0
O401 O 0.85661 0.12101 0.88514 0.0
O402 O 0.86453 0.1224 0.91678 0.0
C403 C 0.79629 0.23504 0.90411 0.0
H404 H 0.62905 0.94811 0.97572 0.0
H405 H 0.8406 0.12094 0.98912 0.0
H406 H 0.86269 0.21822 0.82214 0.0
H407 H 0.66064 0.02356 0.81529 0.0
C408 C 0.18033 0.02574 0.13264 0.0
C409 C 0.15774 -0.01635 0.14939 0.0
C410 C 0.20675 0.09923 0.13359 0.0
C411 C 0.21056 0.13317 0.1513 0.0
H412 H 0.17585 0.00168 0.11858 0.0
H413 H 0.21973 0.12871 0.12012 0.0
S414 S 0.17053 0.04888 0.19981 0.0
N415 N 0.15036 -0.01749 0.18459 0.0
N416 N 0.19968 0.12105 0.1863 0.0
C417 C 0.19437 0.09283 0.16837 0.0
C418 C 0.16751 0.01781 0.16743 0.0
C419 C 0.10664 0.16681 0.66612 0.0
C420 C 0.13866 0.16711 0.64837 0.0
C421 C 0.05563 0.18897 0.66726 0.0
C422 C 0.03502 0.21199 0.65068 0.0
H423 H 0.11829 0.14601 0.67906 0.0
H424 H 0.02849 0.18274 0.68091 0.0
S425 S 0.11528 0.23871 0.6018 0.0
N426 N 0.15536 0.20374 0.61462 0.0
N427 N 0.05939 0.24594 0.61679 0.0
C428 C 0.07209 0.21965 0.63331 0.0
C429 C 0.12373 0.19665 0.63211 0.0
C430 C 0.85239 0.07009 0.16719 0.0
C431 C 0.80846 0.05258 0.15074 0.0
C432 C 0.92534 0.11949 0.16608 0.0
C433 C 0.95673 0.15296 0.1485 0.0
H434 H 0.8315 0.0423 0.18073 0.0
H435 H 0.95774 0.12939 0.17896 0.0
S436 S 0.86203 0.13535 0.10216 0.0
N437 N 0.79921 0.07977 0.11703 0.0
N438 N 0.93676 0.17252 0.11494 0.0
C439 C 0.91241 0.13995 0.1323 0.0
C440 C 0.83803 0.09001 0.13346 0.0
C441 C 0.73455 0.84996 0.66784 0.0
C442 C 0.70598 0.80527 0.65165 0.0
C443 C 0.76013 0.92326 0.66634 0.0
C444 C 0.75786 0.95414 0.64862 0.0
H445 H 0.74232 0.82935 0.68138 0.0
H446 H 0.78457 0.95621 0.67898 0.0
S447 S 0.67366 0.8575 0.60313 0.0
N448 N 0.66592 0.79478 0.61827 0.0
N449 N 0.71453 0.9331 0.6154 0.0
C450 C 0.72355 0.90915 0.63279 0.0
C451 C 0.697 0.83442 0.63437 0.0
C452 C 0.85296 0.73517 0.13247 0.0
C453 C 0.88069 0.72764 0.15022 0.0
C454 C 0.80229 0.75777 0.1318 0.0
C455 C 0.77681 0.77272 0.14885 0.0
H456 H 0.87397 0.72839 0.11887 0.0
H457 H 0.7852 0.76616 0.11776 0.0
S458 S 0.81986 0.74499 0.19908 0.0
N459 N 0.8703 0.72512 0.18527 0.0
N460 N 0.7739 0.76685 0.18408 0.0
C461 C 0.79841 0.75815 0.16674 0.0
C462 C 0.85041 0.73536 0.16741 0.0
C463 C 0.00284 0.80738 0.63331 0.0
C464 C -0.03908 0.78718 0.65012 0.0
C465 C 0.07565 0.85693 0.63409 0.0
C466 C 0.10911 0.88879 0.6517 0.0
H467 H -0.02093 0.78617 0.61932 0.0
H468 H 0.10488 0.87323 0.62059 0.0
S469 S 0.02529 0.84592 0.70028 0.0
N470 N -0.04038 0.79625 0.68524 0.0
N471 N 0.09691 0.89026 0.68665 0.0
C472 C 0.06913 0.865 0.66883 0.0
C473 C -0.00523 0.81423 0.66805 0.0
C474 C 0.89798 0.74738 0.41611 0.0
C475 C 0.93951 0.76886 0.39922 0.0
C476 C 0.82424 0.72091 0.41532 0.0
C477 C 0.78948 0.71597 0.39765 0.0
H478 H 0.92272 0.75309 0.43014 0.0
H479 H 0.79531 0.70918 0.42887 0.0
S480 S 0.87186 0.7517 0.3489 0.0
N481 N 0.93906 0.77309 0.36399 0.0
N482 N 0.80011 0.72372 0.36259 0.0
C483 C 0.82916 0.73049 0.38048 0.0
C484 C 0.90443 0.7574 0.38126 0.0
C485 C 0.05697 0.85496 0.88113 0.0
C486 C 0.04043 0.8107 0.89743 0.0
C487 C 0.10584 0.92791 0.88241 0.0
C488 C 0.13968 0.95898 0.90003 0.0
H489 H 0.0287 0.83431 0.8676 0.0
H490 H 0.115 0.96054 0.86967 0.0
S491 S 0.12502 0.86343 0.94592 0.0
N492 N 0.06931 0.80086 0.93095 0.0
N493 N 0.16096 0.93841 0.93339 0.0
C494 C 0.12781 0.91437 0.91604 0.0
C495 C 0.07848 0.83999 0.91469 0.0
C496 C 0.15669 0.12655 0.38303 0.0
C497 C 0.15744 0.15854 0.40084 0.0
C498 C 0.17591 0.07334 0.38184 0.0
C499 C 0.19661 0.05048 0.39843 0.0
H500 H 0.13764 0.13996 0.37003 0.0
H501 H 0.16963 0.04674 0.36809 0.0
S502 S 0.22248 0.12831 0.44769 0.0
N503 N 0.19118 0.1716 0.43481 0.0
N504 N 0.22818 0.0719 0.43258 0.0
C505 C 0.20434 0.08696 0.41596 0.0
C506 C 0.18422 0.14076 0.41719 0.0
C507 C 0.08783 0.21165 0.9145 0.0
C508 C 0.1214 0.21438 0.89681 0.0
C509 C 0.01437 0.18627 0.91542 0.0
C510 C -0.02799 0.16375 0.89866 0.0
H511 H 0.11744 0.22448 0.92798 0.0
H512 H -0.0095 0.18227 0.92948 0.0
S513 S 0.03671 0.1753 0.84827 0.0
N514 N 0.10903 0.2034 0.86181 0.0
N515 N -0.02951 0.15627 0.86345 0.0
C516 C 0.00599 0.17299 0.88063 0.0
C517 C 0.08099 0.1987 0.87972 0.0
C518 C 0.84294 0.09213 0.41277 0.0
C519 C 0.88138 0.12143 0.3956 0.0
C520 C 0.79504 0.0192 0.41428 0.0
C521 C 0.78358 -0.02668 0.39863 0.0
H522 H 0.85226 0.12524 0.42544 0.0
H523 H 0.76728 -0.0013 0.42785 0.0
S524 S 0.86687 0.02404 0.35002 0.0
N525 N 0.90165 0.09972 0.36225 0.0
N526 N 0.81124 0.96222 0.36508 0.0
C527 C 0.81896 0.0023 0.38106 0.0
C528 C 0.86769 0.07664 0.37951 0.0
C529 C 0.76095 0.81335 0.88309 0.0
C530 C 0.76294 0.78305 0.90094 0.0
C531 C 0.73824 0.86383 0.88191 0.0
C532 C 0.71692 0.88573 0.89855 0.0
H533 H 0.7801 0.80054 0.87002 0.0
H534 H 0.74247 0.88941 0.86811 0.0
S535 S 0.69725 0.81093 0.94795 0.0
N536 N 0.7309 0.76991 0.93503 0.0
N537 N 0.68759 0.86486 0.93279 0.0
C538 C 0.71188 0.85067 0.91613 0.0
C539 C 0.73546 0.79954 0.91736 0.0
C540 C 0.07079 0.53008 0.16253 0.0
C541 C 0.06016 0.55897 0.14548 0.0
C542 C 0.0903 0.47724 0.16184 0.0
C543 C 0.09955 0.45098 0.14407 0.0
H544 H 0.06841 0.55128 0.17655 0.0
H545 H 0.1009 0.45905 0.17541 0.0
S546 S 0.06324 0.49834 0.09539 0.0
N547 N 0.04924 0.54993 0.11038 0.0
N548 N 0.08613 0.44996 0.1091 0.0
C549 C 0.08273 0.47465 0.12694 0.0
C550 C 0.06272 0.52868 0.12765 0.0
C551 C 0.56831 0.09381 0.62709 0.0
C552 C 0.60521 0.09616 0.64407 0.0
C553 C 0.49569 0.07341 0.62765 0.0
C554 C 0.45776 0.05504 0.64523 0.0
H555 H 0.59632 0.11119 0.61344 0.0
H556 H 0.47066 0.07694 0.61439 0.0
S557 S 0.526 0.03671 0.69292 0.0
N558 N 0.59567 0.0665 0.67837 0.0
N559 N 0.45913 0.02868 0.67935 0.0
C560 C 0.49225 0.05028 0.66194 0.0
C561 C 0.56616 0.07101 0.66139 0.0
C562 C 0.45086 0.59947 0.16164 0.0
C563 C 0.47943 0.63221 0.14374 0.0
C564 C 0.4012 0.52694 0.16283 0.0
C565 C 0.37775 0.48423 0.14617 0.0
H566 H 0.46529 0.6303 0.1749 0.0
H567 H 0.37824 0.50537 0.17684 0.0
S568 S 0.44459 0.54116 0.09619 0.0
N569 N 0.48716 0.61466 0.10926 0.0
N570 N 0.39322 0.47757 0.11147 0.0
C571 C 0.40959 0.51496 0.12832 0.0
C572 C 0.46035 0.58919 0.12711 0.0
C573 C 0.82495 0.46102 0.66158 0.0
C574 C 0.81701 0.48762 0.6437 0.0
C575 C 0.8438 0.40772 0.6625 0.0
C576 C 0.85519 0.37878 0.64558 0.0
H577 H 0.81389 0.47936 0.67506 0.0
H578 H 0.84515 0.38628 0.67657 0.0
S579 S 0.85552 0.44001 0.59535 0.0
N580 N 0.83229 0.48866 0.60883 0.0
N581 N 0.86823 0.38807 0.61053 0.0
C582 C 0.85395 0.40937 0.62767 0.0
C583 C 0.83449 0.46378 0.62673 0.0
C584 C 0.42079 0.86873 0.12801 0.0
C585 C 0.45871 0.88626 0.14563 0.0
C586 C 0.34778 0.8468 0.12749 0.0
C587 C 0.31039 0.84198 0.14454 0.0
H588 H 0.44626 0.86714 0.11465 0.0
H589 H 0.31997 0.83033 0.11376 0.0
S590 S 0.3888 0.89796 0.1937 0.0
N591 N 0.45639 0.90903 0.17999 0.0
N592 N 0.31911 0.86812 0.17908 0.0
C593 C 0.34921 0.86613 0.16197 0.0
C594 C 0.42355 0.88855 0.16248 0.0
C595 C 0.51113 0.4165 0.66193 0.0
C596 C 0.53926 0.45687 0.64506 0.0
C597 C 0.46054 0.34426 0.66094 0.0
C598 C 0.43567 0.30947 0.64304 0.0
H599 H 0.53109 0.43961 0.67605 0.0
H600 H 0.44257 0.3152 0.67442 0.0
S601 S 0.48264 0.39445 0.59467 0.0
N602 N 0.53162 0.45953 0.60993 0.0
N603 N 0.43587 0.32286 0.60812 0.0
C604 C 0.459 0.35035 0.62607 0.0
C605 C 0.51077 0.42435 0.62707 0.0
C606 C 0.39818 0.86535 0.3859 0.0
C607 C 0.36902 0.87594 0.40291 0.0
C608 C 0.45302 0.84841 0.38665 0.0
C609 C 0.48105 0.84167 0.40444 0.0
H610 H 0.3757 0.86569 0.37189 0.0
H611 H 0.47113 0.83737 0.37313 0.0
S612 S 0.4334 0.87894 0.45295 0.0
N613 N 0.3795 0.88954 0.43793 0.0
N614 N 0.48309 0.85746 0.43932 0.0
C615 C 0.45699 0.85855 0.42148 0.0
C616 C 0.40094 0.87594 0.42072 0.0
C617 C 0.58478 0.45734 0.88732 0.0
C618 C 0.6186 0.48452 0.90523 0.0
C619 C 0.51255 0.40617 0.88625 0.0
C620 C 0.47124 0.37983 0.90306 0.0
H621 H 0.61462 0.47393 0.87392 0.0
H622 H 0.49022 0.38447 0.87217 0.0
S623 S 0.53093 0.44232 0.95328 0.0
N624 N 0.60326 0.488 0.93997 0.0
N625 N 0.46671 0.39129 0.93802 0.0
C626 C 0.50283 0.41038 0.92098 0.0
C627 C 0.57678 0.46267 0.92207 0.0
C628 C 0.08089 0.58804 0.38648 0.0
C629 C 0.08701 0.62177 0.40438 0.0
C630 C 0.05697 0.51502 0.38536 0.0
C631 C 0.03872 0.47285 0.40211 0.0
H632 H 0.09704 0.6185 0.37318 0.0
H633 H 0.05757 0.49276 0.37135 0.0
S634 S 0.0316 0.53229 0.45207 0.0
N635 N 0.06283 0.6056 0.43892 0.0
N636 N 0.01782 0.46765 0.43682 0.0
C637 C 0.0384 0.50449 0.41992 0.0
C638 C 0.06292 0.57921 0.42107 0.0
C639 C 0.51435 0.06972 0.88648 0.0
C640 C 0.54477 0.06034 0.90342 0.0
C641 C 0.46155 0.08934 0.8874 0.0
C642 C 0.43696 0.1 0.90527 0.0
H643 H 0.5345 0.06654 0.87238 0.0
H644 H 0.44223 0.09906 0.87388 0.0
S645 S 0.48775 0.06596 0.95376 0.0
N646 N 0.53819 0.05102 0.93856 0.0
N647 N 0.43841 0.08835 0.94024 0.0
C648 C 0.46174 0.0839 0.9223 0.0
C649 C 0.51568 0.06369 0.92138 0.0
C650 C 0.33906 0.46794 0.4194 0.0
C651 C 0.28803 0.46765 0.40662 0.0
C652 C 0.41162 0.51877 0.41743 0.0
C653 C 0.43447 0.56947 0.40247 0.0
H654 H 0.32311 0.42788 0.43063 0.0
H655 H 0.44999 0.51842 0.42757 0.0
S656 S 0.31941 0.5966 0.36721 0.0
N657 N 0.26364 0.52623 0.37994 0.0
N658 N 0.39958 0.62082 0.37607 0.0
C659 C 0.38331 0.57068 0.39003 0.0
C660 C 0.31 0.51996 0.39218 0.0
C661 C 0.85639 0.42462 0.91964 0.0
C662 C 0.87014 0.461 0.90187 0.0
C663 C 0.83449 0.35182 0.92032 0.0
C664 C 0.82588 0.31301 0.90328 0.0
H665 H 0.85807 0.45126 0.93308 0.0
H666 H 0.82134 0.32536 0.93423 0.0
S667 S 0.86998 0.38685 0.85344 0.0
N668 N 0.88455 0.45553 0.86715 0.0
N669 N 0.84352 0.31865 0.86834 0.0
C670 C 0.84578 0.35019 0.88556 0.0
C671 C 0.86822 0.42435 0.88489 0.0
C672 C 0.11855 0.36439 0.28294 0.0
C673 C 0.13493 0.32268 0.29542 0.0
C674 C 0.12825 0.36398 0.26289 0.0
C675 C 0.15407 0.32131 0.25453 0.0
H676 H 0.09833 0.39787 0.28874 0.0
H677 H 0.11414 0.39629 0.25383 0.0
S678 S 0.20545 0.20278 0.28082 0.0
N679 N 0.17797 0.23728 0.2979 0.0
N680 N 0.19766 0.23776 0.26033 0.0
C681 C 0.17122 0.27985 0.26685 0.0
C682 C 0.16141 0.2803 0.28724 0.0
C683 C 0.76968 0.08518 0.76265 0.0
C684 C 0.78487 0.15006 0.75376 0.0
C685 C 0.76121 0.07642 0.78271 0.0
C686 C 0.76792 0.1323 0.79466 0.0
H687 H 0.76544 0.04111 0.75405 0.0
H688 H 0.75079 0.026 0.78897 0.0
S689 S 0.80115 0.31058 0.77853 0.0
N690 N 0.8018 0.26959 0.7584 0.0
N691 N 0.78665 0.25329 0.79616 0.0
C692 C 0.7819 0.19702 0.78598 0.0
C693 C 0.79025 0.20588 0.76553 0.0
C694 C 0.64911 0.77952 0.26235 0.0
C695 C 0.60955 0.8085 0.25372 0.0
C696 C 0.64879 0.77035 0.2824 0.0
C697 C 0.60894 0.7898 0.29467 0.0
H698 H 0.68135 0.76447 0.25356 0.0
H699 H 0.67974 0.74738 0.28832 0.0
S700 S 0.49661 0.8685 0.27944 0.0
N701 N 0.52842 0.85556 0.25903 0.0
N702 N 0.53009 0.84094 0.29679 0.0
C703 C 0.56929 0.81906 0.28627 0.0
C704 C 0.56923 0.82798 0.26581 0.0
C705 C 0.78527 0.57052 0.7631 0.0
C706 C 0.76699 0.61829 0.7542 0.0
C707 C 0.79546 0.57161 0.78316 0.0
C708 C 0.78776 0.62051 0.79505 0.0
H709 H 0.79115 0.53159 0.7545 0.0
H710 H 0.80867 0.53336 0.78944 0.0
S711 S 0.74686 0.76097 0.77869 0.0
N712 N 0.74578 0.71852 0.75869 0.0
N713 N 0.76491 0.7206 0.79635 0.0
C714 C 0.77052 0.66921 0.7863 0.0
C715 C 0.76013 0.66807 0.7659 0.0
C716 C 0.06876 0.77453 0.26546 0.0
C717 C 0.12639 0.78391 0.25379 0.0
C718 C 0.07624 0.783 0.28557 0.0
C719 C 0.14161 0.80105 0.29476 0.0
H720 H 0.01788 0.76191 0.25896 0.0
H721 H 0.0308 0.7765 0.29395 0.0
S722 S 0.30664 0.82484 0.27086 0.0
N723 N 0.24955 0.8079 0.25294 0.0
N724 N 0.26358 0.82354 0.29076 0.0
C725 C 0.1992 0.80915 0.28329 0.0
C726 C 0.19159 0.80061 0.26281 0.0
C727 C 0.35341 0.2028 0.78289 0.0
C728 C 0.30366 0.14735 0.7947 0.0
C729 C 0.35311 0.19453 0.76276 0.0
C730 C 0.30304 0.13051 0.75372 0.0
H731 H 0.39345 0.25264 0.78927 0.0
H732 H 0.39286 0.23832 0.75423 0.0
S733 S 0.15722 -0.02822 0.77797 0.0
N734 N 0.20022 0.02798 0.79578 0.0
N735 N 0.19965 0.01249 0.758 0.0
C736 C 0.25228 0.07514 0.76534 0.0
C737 C 0.25258 0.08355 0.7858 0.0
C738 C 0.28458 0.27881 1.01482 0.0
C739 C 0.23643 0.21495 1.00538 0.0
C740 C 0.27078 0.29429 0.03346 0.0
C741 C 0.20797 0.24683 0.0434 0.0
H742 H 0.33358 0.31718 1.00773 0.0
H743 H 0.30962 0.34405 0.04015 0.0
S744 S 0.06454 0.0725 0.02512 0.0
N745 N 0.12312 0.10407 1.00729 0.0
N746 N 0.09748 0.1329 0.04253 0.0
C747 C 0.15921 0.18281 0.03415 0.0
C748 C 0.17351 0.1668 1.01514 0.0
C749 C -0.03581 0.18185 0.51479 0.0
C750 C -0.02441 0.2439 0.50495 0.0
C751 C 0.93384 0.16612 0.53339 0.0
C752 C 0.91476 0.21238 0.54281 0.0
H753 H -0.0221 0.14481 0.50797 0.0
H754 H 0.92663 0.1183 0.5406 0.0
S755 S 0.93406 0.38168 0.52329 0.0
N756 N -0.03419 0.35182 0.50608 0.0
N757 N 0.90867 0.32214 0.54084 0.0
C758 C 0.92586 0.2744 0.53308 0.0
C759 C 0.95631 0.2902 0.51422 0.0
C760 C 0.64465 0.96113 0.03369 0.0
C761 C 0.69203 0.94373 0.04322 0.0
C762 C 0.65942 -0.0093 1.01513 0.0
C763 C 0.72251 0.00472 1.00537 0.0
H764 H 0.59548 0.95157 0.04065 0.0
H765 H 0.62104 0.00276 1.00833 0.0
S766 S 0.86443 0.96966 1.02399 0.0
N767 N 0.80503 0.94336 0.04163 0.0
N768 N 0.83261 -0.00138 1.00653 0.0
C769 C 0.77062 -0.01202 1.01473 0.0
C770 C 0.75528 0.95729 0.03365 0.0
C771 C 0.64646 0.65016 0.53405 0.0
C772 C 0.71012 0.69764 0.54372 0.0
C773 C 0.63178 0.66475 0.51541 0.0
C774 C 0.67996 0.72764 0.50564 0.0
H775 H 0.60762 0.60099 0.54095 0.0
H776 H 0.58208 0.62635 0.50857 0.0
S777 S 0.85378 0.87012 0.52468 0.0
N778 N 0.82127 0.81084 0.54232 0.0
N779 N 0.79415 0.83787 0.50703 0.0
C780 C 0.74371 0.77591 0.51516 0.0
C781 C 0.75882 0.76086 0.5342 0.0
C782 C 0.95599 0.65144 1.01456 0.0
C783 C 0.93839 0.69829 1.00488 0.0
C784 C -0.01383 0.66711 0.0331 0.0
C785 C 0.00065 0.73062 0.04267 0.0
H786 H 0.94585 0.60186 1.00778 0.0
H787 H -0.00185 0.62901 0.04003 0.0
S788 S -0.03368 0.87199 1.02345 0.0
N789 N 0.93908 0.81161 1.00604 0.0
N790 N -0.00458 0.84091 0.04106 0.0
C791 C -0.01588 0.77841 0.0331 0.0
C792 C 0.95282 0.76216 1.01421 0.0
C793 C 0.25451 0.94715 0.51524 0.0
C794 C 0.19246 0.93513 0.50522 0.0
C795 C 0.26947 -0.02302 0.5338 0.0
C796 C 0.22332 -0.00338 0.54305 0.0
H797 H 0.29187 0.93325 0.50867 0.0
H798 H 0.31779 -0.01511 0.54097 0.0
S799 S 0.05446 -0.02247 0.52289 0.0
N800 N 0.08501 0.94617 0.50572 0.0
N801 N 0.11291 0.00194 0.5408 0.0
C802 C 0.16126 -0.01462 0.53317 0.0
C803 C 0.14573 0.95443 0.51425 0.0
loop_
_geom_bond_atom_site_label_1
_geom_bond_atom_site_label_2
_geom_bond_distance
_geom_bond_site_symmetry_2
_ccdc_geom_bond_type
C0 O16 1.251 . S
C0 O18 1.254 . S
N1 C2 1.333 . S
N1 C6 1.307 . S
N1 Zn7 2.020 . S
C2 N1 1.333 . S
C2 C3 1.379 . S
C2 H20 0.952 . S
C3 C2 1.379 . S
C3 C4 1.390 . S
C3 H30 0.949 . S
C4 C3 1.390 . S
C4 C5 1.357 . S
C5 C4 1.357 . S
C5 C6 1.370 . S
C5 H31 0.950 . S
C6 N1 1.307 . S
C6 C5 1.370 . S
C6 H24 0.948 . S
Zn7 N1 2.020 . S
Zn7 O16 2.039 . S
Zn7 O22 2.034 . S
Zn7 O26 2.025 . S
Zn7 O28 2.024 . S
C8 O27 1.246 . S
C8 O28 1.249 . S
N9 C10 1.307 . S
N9 C11 1.333 . S
N9 Zn15 2.020 . S
C10 N9 1.307 . S
C10 C14 1.370 . S
C10 H21 0.948 . S
C11 N9 1.333 . S
C11 C12 1.379 . S
C11 H19 0.952 . S
C12 C11 1.379 . S
C12 C13 1.390 . S
C12 H32 0.949 . S
C13 C12 1.390 . S
C13 C14 1.357 . S
C14 C10 1.370 . S
C14 C13 1.357 . S
C14 H33 0.950 . S
Zn15 N9 2.020 . S
Zn15 O18 2.025 . S
Zn15 O23 2.024 . S
Zn15 O25 2.039 . S
Zn15 O27 2.034 . S
O16 C0 1.251 . S
O16 Zn7 2.039 . S
C17 O22 1.246 . S
C17 O23 1.249 . S
O18 C0 1.254 . S
O18 Zn15 2.025 . S
H19 C11 0.952 . S
H20 C2 0.952 . S
H21 C10 0.948 . S
O22 Zn7 2.034 . S
O22 C17 1.246 . S
O23 Zn15 2.024 . S
O23 C17 1.249 . S
H24 C6 0.948 . S
O25 Zn15 2.039 . S
O25 C29 1.251 . S
O26 Zn7 2.025 . S
O26 C29 1.254 . S
O27 C8 1.246 . S
O27 Zn15 2.034 . S
O28 Zn7 2.024 . S
O28 C8 1.249 . S
C29 O25 1.251 . S
C29 O26 1.254 . S
H30 C3 0.949 . S
H31 C5 0.950 . S
H32 C12 0.949 . S
H33 C14 0.950 . S
C34 O50 1.251 1_455 S
C34 O52 1.254 1_455 S
N35 C36 1.333 . S
N35 C40 1.307 . S
N35 Zn41 2.020 . S
C36 N35 1.333 . S
C36 C37 1.379 . S
C36 H54 0.952 . S
C37 C36 1.379 . S
C37 C38 1.390 . S
C37 H64 0.949 1_655 S
C38 C37 1.390 . S
C38 C39 1.357 . S
C39 C38 1.357 . S
C39 C40 1.370 . S
C39 H65 0.950 . S
C40 N35 1.307 . S
C40 C39 1.370 . S
C40 H58 0.948 . S
Zn41 N35 2.020 . S
Zn41 O50 2.039 . S
Zn41 O56 2.034 . S
Zn41 O60 2.025 . S
Zn41 O62 2.024 . S
C42 O61 1.246 . S
C42 O62 1.249 . S
N43 C44 1.307 . S
N43 C45 1.333 . S
N43 Zn49 2.020 . S
C44 N43 1.307 . S
C44 C48 1.370 . S
C44 H55 0.948 . S
C45 N43 1.333 . S
C45 C46 1.379 . S
C45 H53 0.952 . S
C46 C45 1.379 . S
C46 C47 1.390 . S
C46 H66 0.949 . S
C47 C46 1.390 . S
C47 C48 1.357 . S
C48 C44 1.370 . S
C48 C47 1.357 . S
C48 H67 0.950 . S
Zn49 N43 2.020 . S
Zn49 O52 2.025 . S
Zn49 O57 2.024 . S
Zn49 O59 2.039 . S
Zn49 O61 2.034 . S
O50 C34 1.251 1_655 S
O50 Zn41 2.039 . S
C51 O56 1.246 . S
C51 O57 1.249 . S
O52 C34 1.254 1_655 S
O52 Zn49 2.025 . S
H53 C45 0.952 . S
H54 C36 0.952 . S
H55 C44 0.948 . S
O56 Zn41 2.034 . S
O56 C51 1.246 . S
O57 Zn49 2.024 . S
O57 C51 1.249 . S
H58 C40 0.948 . S
O59 Zn49 2.039 . S
O59 C63 1.251 . S
O60 Zn41 2.025 . S
O60 C63 1.254 . S
O61 C42 1.246 . S
O61 Zn49 2.034 . S
O62 Zn41 2.024 . S
O62 C42 1.249 . S
C63 O59 1.251 . S
C63 O60 1.254 . S
H64 C37 0.949 1_455 S
H65 C39 0.950 . S
H66 C46 0.949 . S
H67 C48 0.950 . S
C68 O84 1.251 1_545 S
C68 O86 1.254 1_545 S
N69 C70 1.333 . S
N69 C74 1.307 . S
N69 Zn75 2.020 . S
C70 N69 1.333 . S
C70 C71 1.379 . S
C70 H88 0.952 . S
C71 C70 1.379 . S
C71 C72 1.390 . S
C71 H98 0.949 1_565 S
C72 C71 1.390 . S
C72 C73 1.357 . S
C73 C72 1.357 . S
C73 C74 1.370 . S
C73 H99 0.950 . S
C74 N69 1.307 . S
C74 C73 1.370 . S
C74 H92 0.948 . S
Zn75 N69 2.020 . S
Zn75 O84 2.039 . S
Zn75 O90 2.034 . S
Zn75 O94 2.025 . S
Zn75 O96 2.024 . S
C76 O95 1.246 . S
C76 O96 1.249 . S
N77 C78 1.307 . S
N77 C79 1.333 . S
N77 Zn83 2.020 . S
C78 N77 1.307 . S
C78 C82 1.370 . S
C78 H89 0.948 . S
C79 N77 1.333 . S
C79 C80 1.379 . S
C79 H87 0.952 . S
C80 C79 1.379 . S
C80 C81 1.390 . S
C80 H100 0.949 . S
C81 C80 1.390 . S
C81 C82 1.357 . S
C82 C78 1.370 . S
C82 C81 1.357 . S
C82 H101 0.950 . S
Zn83 N77 2.020 . S
Zn83 O86 2.025 . S
Zn83 O91 2.024 . S
Zn83 O93 2.039 . S
Zn83 O95 2.034 . S
O84 C68 1.251 1_565 S
O84 Zn75 2.039 . S
C85 O90 1.246 . S
C85 O91 1.249 . S
O86 C68 1.254 1_565 S
O86 Zn83 2.025 . S
H87 C79 0.952 . S
H88 C70 0.952 . S
H89 C78 0.948 . S
O90 Zn75 2.034 . S
O90 C85 1.246 . S
O91 Zn83 2.024 . S
O91 C85 1.249 . S
H92 C74 0.948 . S
O93 Zn83 2.039 . S
O93 C97 1.251 . S
O94 Zn75 2.025 . S
O94 C97 1.254 . S
O95 C76 1.246 . S
O95 Zn83 2.034 . S
O96 Zn75 2.024 . S
O96 C76 1.249 . S
C97 O93 1.251 . S
C97 O94 1.254 . S
H98 C71 0.949 1_545 S
H99 C73 0.950 . S
H100 C80 0.949 . S
H101 C82 0.950 . S
C102 O118 1.251 . S
C102 O120 1.254 . S
N103 C104 1.333 . S
N103 C108 1.307 . S
N103 Zn109 2.020 . S
C104 N103 1.333 . S
C104 C105 1.379 . S
C104 H122 0.952 . S
C105 C104 1.379 . S
C105 C106 1.390 . S
C105 H132 0.949 . S
C106 C105 1.390 . S
C106 C107 1.357 . S
C107 C106 1.357 . S
C107 C108 1.370 . S
C107 H133 0.950 . S
C108 N103 1.307 . S
C108 C107 1.370 . S
C108 H126 0.948 . S
Zn109 N103 2.020 . S
Zn109 O118 2.039 . S
Zn109 O124 2.034 . S
Zn109 O128 2.025 . S
Zn109 O130 2.024 . S
C110 O129 1.246 . S
C110 O130 1.249 . S
N111 C112 1.307 . S
N111 C113 1.333 . S
N111 Zn117 2.020 . S
C112 N111 1.307 . S
C112 C116 1.370 . S
C112 H123 0.948 . S
C113 N111 1.333 . S
C113 C114 1.379 . S
C113 H121 0.952 . S
C114 C113 1.379 . S
C114 C115 1.390 . S
C114 H134 0.949 . S
C115 C114 1.390 . S
C115 C116 1.357 . S
C116 C112 1.370 . S
C116 C115 1.357 . S
C116 H135 0.950 . S
Zn117 N111 2.020 . S
Zn117 O120 2.025 . S
Zn117 O125 2.024 . S
Zn117 O127 2.039 . S
Zn117 O129 2.034 . S
O118 C102 1.251 . S
O118 Zn109 2.039 . S
C119 O124 1.246 . S
C119 O125 1.249 . S
O120 C102 1.254 . S
O120 Zn117 2.025 . S
H121 C113 0.952 . S
H122 C104 0.952 . S
H123 C112 0.948 . S
O124 Zn109 2.034 . S
O124 C119 1.246 . S
O125 Zn117 2.024 . S
O125 C119 1.249 . S
H126 C108 0.948 . S
O127 Zn117 2.039 . S
O127 C131 1.251 . S
O128 Zn109 2.025 . S
O128 C131 1.254 . S
O129 C110 1.246 . S
O129 Zn117 2.034 . S
O130 Zn109 2.024 . S
O130 C110 1.249 . S
C131 O127 1.251 . S
C131 O128 1.254 . S
H132 C105 0.949 . S
H133 C107 0.950 . S
H134 C114 0.949 . S
H135 C116 0.950 . S
C136 O152 1.251 1_655 S
C136 O154 1.254 1_655 S
N137 C138 1.333 . S
N137 C142 1.307 . S
N137 Zn143 2.020 . S
C138 N137 1.333 . S
C138 C139 1.379 . S
C138 H156 0.952 . S
C139 C138 1.379 . S
C139 C140 1.390 . S
C139 H166 0.949 1_455 S
C140 C139 1.390 . S
C140 C141 1.357 . S
C141 C140 1.357 . S
C141 C142 1.370 . S
C141 H167 0.950 . S
C142 N137 1.307 . S
C142 C141 1.370 . S
C142 H160 0.948 . S
Zn143 N137 2.020 . S
Zn143 O152 2.039 . S
Zn143 O158 2.034 . S
Zn143 O162 2.025 . S
Zn143 O164 2.024 . S
C144 O163 1.246 . S
C144 O164 1.249 . S
N145 C146 1.307 . S
N145 C147 1.333 . S
N145 Zn151 2.020 . S
C146 N145 1.307 . S
C146 C150 1.370 . S
C146 H157 0.948 . S
C147 N145 1.333 . S
C147 C148 1.379 . S
C147 H155 0.952 . S
C148 C147 1.379 . S
C148 C149 1.390 . S
C148 H168 0.949 . S
C149 C148 1.390 . S
C149 C150 1.357 . S
C150 C146 1.370 . S
C150 C149 1.357 . S
C150 H169 0.950 . S
Zn151 N145 2.020 . S
Zn151 O154 2.025 . S
Zn151 O159 2.024 . S
Zn151 O161 2.039 . S
Zn151 O163 2.034 . S
O152 C136 1.251 1_455 S
O152 Zn143 2.039 . S
C153 O158 1.246 . S
C153 O159 1.249 . S
O154 C136 1.254 1_455 S
O154 Zn151 2.025 . S
H155 C147 0.952 . S
H156 C138 0.952 . S
H157 C146 0.948 . S
O158 Zn143 2.034 . S
O158 C153 1.246 . S
O159 Zn151 2.024 . S
O159 C153 1.249 . S
H160 C142 0.948 . S
O161 Zn151 2.039 . S
O161 C165 1.251 . S
O162 Zn143 2.025 . S
O162 C165 1.254 . S
O163 C144 1.246 . S
O163 Zn151 2.034 . S
O164 Zn143 2.024 . S
O164 C144 1.249 . S
C165 O161 1.251 . S
C165 O162 1.254 . S
H166 C139 0.949 1_655 S
H167 C141 0.950 . S
H168 C148 0.949 . S
H169 C150 0.950 . S
C170 O186 1.251 1_565 S
C170 O188 1.254 1_565 S
N171 C172 1.333 . S
N171 C176 1.307 . S
N171 Zn177 2.020 . S
C172 N171 1.333 . S
C172 C173 1.379 . S
C172 H190 0.952 . S
C173 C172 1.379 . S
C173 C174 1.390 . S
C173 H200 0.949 1_545 S
C174 C173 1.390 . S
C174 C175 1.357 . S
C175 C174 1.357 . S
C175 C176 1.370 . S
C175 H201 0.950 . S
C176 N171 1.307 . S
C176 C175 1.370 . S
C176 H194 0.948 . S
Zn177 N171 2.020 . S
Zn177 O186 2.039 . S
Zn177 O192 2.034 . S
Zn177 O196 2.025 . S
Zn177 O198 2.024 . S
C178 O197 1.246 . S
C178 O198 1.249 . S
N179 C180 1.307 . S
N179 C181 1.333 . S
N179 Zn185 2.020 . S
C180 N179 1.307 . S
C180 C184 1.370 . S
C180 H191 0.948 . S
C181 N179 1.333 . S
C181 C182 1.379 . S
C181 H189 0.952 . S
C182 C181 1.379 . S
C182 C183 1.390 . S
C182 H202 0.949 . S
C183 C182 1.390 . S
C183 C184 1.357 . S
C184 C180 1.370 . S
C184 C183 1.357 . S
C184 H203 0.950 . S
Zn185 N179 2.020 . S
Zn185 O188 2.025 . S
Zn185 O193 2.024 . S
Zn185 O195 2.039 . S
Zn185 O197 2.034 . S
O186 C170 1.251 1_545 S
O186 Zn177 2.039 . S
C187 O192 1.246 . S
C187 O193 1.249 . S
O188 C170 1.254 1_545 S
O188 Zn185 2.025 . S
H189 C181 0.952 . S
H190 C172 0.952 . S
H191 C180 0.948 . S
O192 Zn177 2.034 . S
O192 C187 1.246 . S
O193 Zn185 2.024 . S
O193 C187 1.249 . S
H194 C176 0.948 . S
O195 Zn185 2.039 . S
O195 C199 1.251 . S
O196 Zn177 2.025 . S
O196 C199 1.254 . S
O197 C178 1.246 . S
O197 Zn185 2.034 . S
O198 Zn177 2.024 . S
O198 C178 1.249 . S
C199 O195 1.251 . S
C199 O196 1.254 . S
H200 C173 0.949 1_565 S
H201 C175 0.950 . S
H202 C182 0.949 . S
H203 C184 0.950 . S
C204 O220 1.251 . S
C204 O222 1.254 . S
N205 C206 1.333 . S
N205 C210 1.307 . S
N205 Zn211 2.020 . S
C206 N205 1.333 . S
C206 C207 1.379 . S
C206 H224 0.952 . S
C207 C206 1.379 . S
C207 C208 1.390 . S
C207 H234 0.949 . S
C208 C207 1.390 . S
C208 C209 1.357 . S
C209 C208 1.357 . S
C209 C210 1.370 . S
C209 H235 0.950 . S
C210 N205 1.307 . S
C210 C209 1.370 . S
C210 H228 0.948 . S
Zn211 N205 2.020 . S
Zn211 O220 2.039 . S
Zn211 O226 2.034 . S
Zn211 O230 2.025 . S
Zn211 O232 2.024 . S
C212 O231 1.246 . S
C212 O232 1.249 . S
N213 C214 1.307 . S
N213 C215 1.333 . S
N213 Zn219 2.020 . S
C214 N213 1.307 . S
C214 C218 1.370 . S
C214 H225 0.948 . S
C215 N213 1.333 . S
C215 C216 1.379 . S
C215 H223 0.952 . S
C216 C215 1.379 . S
C216 C217 1.390 . S
C216 H236 0.949 . S
C217 C216 1.390 . S
C217 C218 1.357 . S
C218 C214 1.370 . S
C218 C217 1.357 . S
C218 H237 0.950 . S
Zn219 N213 2.020 . S
Zn219 O222 2.025 . S
Zn219 O227 2.024 . S
Zn219 O229 2.039 . S
Zn219 O231 2.034 . S
O220 C204 1.251 . S
O220 Zn211 2.039 . S
C221 O226 1.246 . S
C221 O227 1.249 . S
O222 C204 1.254 . S
O222 Zn219 2.025 . S
H223 C215 0.952 . S
H224 C206 0.952 . S
H225 C214 0.948 . S
O226 Zn211 2.034 . S
O226 C221 1.246 . S
O227 Zn219 2.024 . S
O227 C221 1.249 . S
H228 C210 0.948 . S
O229 Zn219 2.039 . S
O229 C233 1.251 . S
O230 Zn211 2.025 . S
O230 C233 1.254 . S
O231 C212 1.246 . S
O231 Zn219 2.034 . S
O232 Zn211 2.024 . S
O232 C212 1.249 . S
C233 O229 1.251 . S
C233 O230 1.254 . S
H234 C207 0.949 . S
H235 C209 0.950 . S
H236 C216 0.949 . S
H237 C218 0.950 . S
C238 O254 1.251 1_455 S
C238 O256 1.254 1_455 S
N239 C240 1.333 . S
N239 C244 1.307 . S
N239 Zn245 2.020 . S
C240 N239 1.333 . S
C240 C241 1.379 . S
C240 H258 0.952 . S
C241 C240 1.379 . S
C241 C242 1.390 . S
C241 H268 0.949 1_655 S
C242 C241 1.390 . S
C242 C243 1.357 . S
C243 C242 1.357 . S
C243 C244 1.370 . S
C243 H269 0.950 . S
C244 N239 1.307 . S
C244 C243 1.370 . S
C244 H262 0.948 . S
Zn245 N239 2.020 . S
Zn245 O254 2.039 . S
Zn245 O260 2.034 . S
Zn245 O264 2.025 . S
Zn245 O266 2.024 . S
C246 O265 1.246 . S
C246 O266 1.249 . S
N247 C248 1.307 . S
N247 C249 1.333 . S
N247 Zn253 2.020 . S
C248 N247 1.307 . S
C248 C252 1.370 . S
C248 H259 0.948 . S
C249 N247 1.333 . S
C249 C250 1.379 . S
C249 H257 0.952 . S
C250 C249 1.379 . S
C250 C251 1.390 . S
C250 H270 0.949 . S
C251 C250 1.390 . S
C251 C252 1.357 . S
C252 C248 1.370 . S
C252 C251 1.357 . S
C252 H271 0.950 . S
Zn253 N247 2.020 . S
Zn253 O256 2.025 . S
Zn253 O261 2.024 . S
Zn253 O263 2.039 . S
Zn253 O265 2.034 . S
O254 C238 1.251 1_655 S
O254 Zn245 2.039 . S
C255 O260 1.246 . S
C255 O261 1.249 . S
O256 C238 1.254 1_655 S
O256 Zn253 2.025 . S
H257 C249 0.952 . S
H258 C240 0.952 . S
H259 C248 0.948 . S
O260 Zn245 2.034 . S
O260 C255 1.246 . S
O261 Zn253 2.024 . S
O261 C255 1.249 . S
H262 C244 0.948 . S
O263 Zn253 2.039 . S
O263 C267 1.251 . S
O264 Zn245 2.025 . S
O264 C267 1.254 . S
O265 C246 1.246 . S
O265 Zn253 2.034 . S
O266 Zn245 2.024 . S
O266 C246 1.249 . S
C267 O263 1.251 . S
C267 O264 1.254 . S
H268 C241 0.949 1_455 S
H269 C243 0.950 . S
H270 C250 0.949 . S
H271 C252 0.950 . S
C272 O288 1.251 1_545 S
C272 O290 1.254 1_545 S
N273 C274 1.333 . S
N273 C278 1.307 . S
N273 Zn279 2.020 . S
C274 N273 1.333 . S
C274 C275 1.379 . S
C274 H292 0.952 . S
C275 C274 1.379 . S
C275 C276 1.390 . S
C275 H302 0.949 1_565 S
C276 C275 1.390 . S
C276 C277 1.357 . S
C277 C276 1.357 . S
C277 C278 1.370 . S
C277 H303 0.950 . S
C278 N273 1.307 . S
C278 C277 1.370 . S
C278 H296 0.948 . S
Zn279 N273 2.020 . S
Zn279 O288 2.039 . S
Zn279 O294 2.034 . S
Zn279 O298 2.025 . S
Zn279 O300 2.024 . S
C280 O299 1.246 . S
C280 O300 1.249 . S
N281 C282 1.307 . S
N281 C283 1.333 . S
N281 Zn287 2.020 . S
C282 N281 1.307 . S
C282 C286 1.370 . S
C282 H293 0.948 . S
C283 N281 1.333 . S
C283 C284 1.379 . S
C283 H291 0.952 . S
C284 C283 1.379 . S
C284 C285 1.390 . S
C284 H304 0.949 . S
C285 C284 1.390 . S
C285 C286 1.357 . S
C286 C282 1.370 . S
C286 C285 1.357 . S
C286 H305 0.950 . S
Zn287 N281 2.020 . S
Zn287 O290 2.025 . S
Zn287 O295 2.024 . S
Zn287 O297 2.039 . S
Zn287 O299 2.034 . S
O288 C272 1.251 1_565 S
O288 Zn279 2.039 . S
C289 O294 1.246 . S
C289 O295 1.249 . S
O290 C272 1.254 1_565 S
O290 Zn287 2.025 . S
H291 C283 0.952 . S
H292 C274 0.952 . S
H293 C282 0.948 . S
O294 Zn279 2.034 . S
O294 C289 1.246 . S
O295 Zn287 2.024 . S
O295 C289 1.249 . S
H296 C278 0.948 . S
O297 Zn287 2.039 . S
O297 C301 1.251 . S
O298 Zn279 2.025 . S
O298 C301 1.254 . S
O299 C280 1.246 . S
O299 Zn287 2.034 . S
O300 Zn279 2.024 . S
O300 C280 1.249 . S
C301 O297 1.251 . S
C301 O298 1.254 . S
H302 C275 0.949 1_545 S
H303 C277 0.950 . S
H304 C284 0.949 . S
H305 C286 0.950 . S
C306 O322 1.251 . S
C306 O324 1.254 . S
N307 C308 1.333 . S
N307 C312 1.307 . S
N307 Zn313 2.020 . S
C308 N307 1.333 . S
C308 C309 1.379 . S
C308 H326 0.952 . S
C309 C308 1.379 . S
C309 C310 1.390 . S
C309 H336 0.949 . S
C310 C309 1.390 . S
C310 C311 1.357 . S
C311 C310 1.357 . S
C311 C312 1.370 . S
C311 H337 0.950 . S
C312 N307 1.307 . S
C312 C311 1.370 . S
C312 H330 0.948 . S
Zn313 N307 2.020 . S
Zn313 O322 2.039 . S
Zn313 O328 2.034 . S
Zn313 O332 2.025 . S
Zn313 O334 2.024 . S
C314 O333 1.246 . S
C314 O334 1.249 . S
N315 C316 1.307 . S
N315 C317 1.333 . S
N315 Zn321 2.020 . S
C316 N315 1.307 . S
C316 C320 1.370 . S
C316 H327 0.948 . S
C317 N315 1.333 . S
C317 C318 1.379 . S
C317 H325 0.952 . S
C318 C317 1.379 . S
C318 C319 1.390 . S
C318 H338 0.949 . S
C319 C318 1.390 . S
C319 C320 1.357 . S
C320 C316 1.370 . S
C320 C319 1.357 . S
C320 H339 0.950 . S
Zn321 N315 2.020 . S
Zn321 O324 2.025 . S
Zn321 O329 2.024 . S
Zn321 O331 2.039 . S
Zn321 O333 2.034 . S
O322 C306 1.251 . S
O322 Zn313 2.039 . S
C323 O328 1.246 . S
C323 O329 1.249 . S
O324 C306 1.254 . S
O324 Zn321 2.025 . S
H325 C317 0.952 . S
H326 C308 0.952 . S
H327 C316 0.948 . S
O328 Zn313 2.034 . S
O328 C323 1.246 . S
O329 Zn321 2.024 . S
O329 C323 1.249 . S
H330 C312 0.948 . S
O331 Zn321 2.039 . S
O331 C335 1.251 . S
O332 Zn313 2.025 . S
O332 C335 1.254 . S
O333 C314 1.246 . S
O333 Zn321 2.034 . S
O334 Zn313 2.024 . S
O334 C314 1.249 . S
C335 O331 1.251 . S
C335 O332 1.254 . S
H336 C309 0.949 . S
H337 C311 0.950 . S
H338 C318 0.949 . S
H339 C320 0.950 . S
C340 O356 1.251 1_655 S
C340 O358 1.254 1_655 S
N341 C342 1.333 . S
N341 C346 1.307 . S
N341 Zn347 2.020 . S
C342 N341 1.333 . S
C342 C343 1.379 . S
C342 H360 0.952 . S
C343 C342 1.379 . S
C343 C344 1.390 . S
C343 H370 0.949 1_455 S
C344 C343 1.390 . S
C344 C345 1.357 . S
C345 C344 1.357 . S
C345 C346 1.370 . S
C345 H371 0.950 . S
C346 N341 1.307 . S
C346 C345 1.370 . S
C346 H364 0.948 . S
Zn347 N341 2.020 . S
Zn347 O356 2.039 . S
Zn347 O362 2.034 . S
Zn347 O366 2.025 . S
Zn347 O368 2.024 . S
C348 O367 1.246 . S
C348 O368 1.249 . S
N349 C350 1.307 . S
N349 C351 1.333 . S
N349 Zn355 2.020 . S
C350 N349 1.307 . S
C350 C354 1.370 . S
C350 H361 0.948 . S
C351 N349 1.333 . S
C351 C352 1.379 . S
C351 H359 0.952 . S
C352 C351 1.379 . S
C352 C353 1.390 . S
C352 H372 0.949 . S
C353 C352 1.390 . S
C353 C354 1.357 . S
C354 C350 1.370 . S
C354 C353 1.357 . S
C354 H373 0.950 . S
Zn355 N349 2.020 . S
Zn355 O358 2.025 . S
Zn355 O363 2.024 . S
Zn355 O365 2.039 . S
Zn355 O367 2.034 . S
O356 C340 1.251 1_455 S
O356 Zn347 2.039 . S
C357 O362 1.246 . S
C357 O363 1.249 . S
O358 C340 1.254 1_455 S
O358 Zn355 2.025 . S
H359 C351 0.952 . S
H360 C342 0.952 . S
H361 C350 0.948 . S
O362 Zn347 2.034 . S
O362 C357 1.246 . S
O363 Zn355 2.024 . S
O363 C357 1.249 . S
H364 C346 0.948 . S
O365 Zn355 2.039 . S
O365 C369 1.251 . S
O366 Zn347 2.025 . S
O366 C369 1.254 . S
O367 C348 1.246 . S
O367 Zn355 2.034 . S
O368 Zn347 2.024 . S
O368 C348 1.249 . S
C369 O365 1.251 . S
C369 O366 1.254 . S
H370 C343 0.949 1_655 S
H371 C345 0.950 . S
H372 C352 0.949 . S
H373 C354 0.950 . S
C374 O390 1.251 1_565 S
C374 O392 1.254 1_565 S
N375 C376 1.333 . S
N375 C380 1.307 . S
N375 Zn381 2.020 . S
C376 N375 1.333 . S
C376 C377 1.379 . S
C376 H394 0.952 . S
C377 C376 1.379 . S
C377 C378 1.390 . S
C377 H404 0.949 1_545 S
C378 C377 1.390 . S
C378 C379 1.357 . S
C379 C378 1.357 . S
C379 C380 1.370 . S
C379 H405 0.950 . S
C380 N375 1.307 . S
C380 C379 1.370 . S
C380 H398 0.948 . S
Zn381 N375 2.020 . S
Zn381 O390 2.039 . S
Zn381 O396 2.034 . S
Zn381 O400 2.025 . S
Zn381 O402 2.024 . S
C382 O401 1.246 . S
C382 O402 1.249 . S
N383 C384 1.307 . S
N383 C385 1.333 . S
N383 Zn389 2.020 . S
C384 N383 1.307 . S
C384 C388 1.370 . S
C384 H395 0.948 . S
C385 N383 1.333 . S
C385 C386 1.379 . S
C385 H393 0.952 . S
C386 C385 1.379 . S
C386 C387 1.390 . S
C386 H406 0.949 . S
C387 C386 1.390 . S
C387 C388 1.357 . S
C388 C384 1.370 . S
C388 C387 1.357 . S
C388 H407 0.950 . S
Zn389 N383 2.020 . S
Zn389 O392 2.025 . S
Zn389 O397 2.024 . S
Zn389 O399 2.039 . S
Zn389 O401 2.034 . S
O390 C374 1.251 1_545 S
O390 Zn381 2.039 . S
C391 O396 1.246 . S
C391 O397 1.249 . S
O392 C374 1.254 1_545 S
O392 Zn389 2.025 . S
H393 C385 0.952 . S
H394 C376 0.952 . S
H395 C384 0.948 . S
O396 Zn381 2.034 . S
O396 C391 1.246 . S
O397 Zn389 2.024 . S
O397 C391 1.249 . S
H398 C380 0.948 . S
O399 Zn389 2.039 . S
O399 C403 1.251 . S
O400 Zn381 2.025 . S
O400 C403 1.254 . S
O401 C382 1.246 . S
O401 Zn389 2.034 . S
O402 Zn381 2.024 . S
O402 C382 1.249 . S
C403 O399 1.251 . S
C403 O400 1.254 . S
H404 C377 0.949 1_565 S
H405 C379 0.950 . S
H406 C386 0.949 . S
H407 C388 0.950 . S
C408 C409 1.369 . S
C408 C410 1.419 . S
C408 H412 0.930 . S
C409 C408 1.369 . S
C409 C418 1.429 . S
C410 C408 1.419 . S
C410 C411 1.363 . S
C410 H413 0.929 . S
C411 C410 1.363 . S
C411 C417 1.428 . S
H412 C408 0.930 . S
H413 C410 0.929 . S
S414 N415 1.613 1_545 S
S414 N416 1.610 . S
N415 S414 1.613 1_565 S
N415 C418 1.350 1_565 S
N416 S414 1.610 . S
N416 C417 1.351 . S
C417 C411 1.428 . S
C417 N416 1.351 . S
C417 C418 1.434 . S
C418 C409 1.429 . S
C418 N415 1.350 1_545 S
C418 C417 1.434 . S
C419 C420 1.369 . S
C419 C421 1.419 . S
C419 H423 0.930 . S
C420 C419 1.369 . S
C420 C429 1.429 . S
C421 C419 1.419 . S
C421 C422 1.363 . S
C421 H424 0.929 . S
C422 C421 1.363 . S
C422 C428 1.428 . S
H423 C419 0.930 . S
H424 C421 0.929 . S
S425 N426 1.613 1_655 S
S425 N427 1.610 . S
N426 S425 1.613 1_455 S
N426 C429 1.350 . S
N427 S425 1.610 . S
N427 C428 1.351 1_655 S
C428 C422 1.428 . S
C428 N427 1.351 1_455 S
C428 C429 1.434 . S
C429 C420 1.429 . S
C429 N426 1.350 . S
C429 C428 1.434 . S
C430 C431 1.369 . S
C430 C432 1.419 . S
C430 H434 0.930 . S
C431 C430 1.369 . S
C431 C440 1.429 . S
C432 C430 1.419 . S
C432 C433 1.363 . S
C432 H435 0.929 . S
C433 C432 1.363 . S
C433 C439 1.428 . S
H434 C430 0.930 . S
H435 C432 0.929 . S
S436 N437 1.613 . S
S436 N438 1.610 1_665 S
N437 S436 1.613 . S
N437 C440 1.350 1_565 S
N438 S436 1.610 1_445 S
N438 C439 1.351 1_455 S
C439 C433 1.428 . S
C439 N438 1.351 1_655 S
C439 C440 1.434 . S
C440 C431 1.429 . S
C440 N437 1.350 1_545 S
C440 C439 1.434 . S
C441 C442 1.369 . S
C441 C443 1.419 . S
C441 H445 0.930 . S
C442 C441 1.369 . S
C442 C451 1.429 . S
C443 C441 1.419 . S
C443 C444 1.363 . S
C443 H446 0.929 1_565 S
C444 C443 1.363 . S
C444 C450 1.428 . S
H445 C441 0.930 . S
H446 C443 0.929 1_545 S
S447 N448 1.613 . S
S447 N449 1.610 . S
N448 S447 1.613 . S
N448 C451 1.350 . S
N449 S447 1.610 . S
N449 C450 1.351 . S
C450 C444 1.428 . S
C450 N449 1.351 . S
C450 C451 1.434 . S
C451 C442 1.429 . S
C451 N448 1.350 . S
C451 C450 1.434 . S
C452 C453 1.369 . S
C452 C454 1.419 . S
C452 H456 0.930 . S
C453 C452 1.369 . S
C453 C462 1.429 . S
C454 C452 1.419 . S
C454 C455 1.363 . S
C454 H457 0.929 . S
C455 C454 1.363 . S
C455 C461 1.428 . S
H456 C452 0.930 . S
H457 C454 0.929 . S
S458 N459 1.613 . S
S458 N460 1.610 . S
N459 S458 1.613 . S
N459 C462 1.350 . S
N460 S458 1.610 . S
N460 C461 1.351 . S
C461 C455 1.428 . S
C461 N460 1.351 . S
C461 C462 1.434 . S
C462 C453 1.429 . S
C462 N459 1.350 . S
C462 C461 1.434 . S
C463 C464 1.369 . S
C463 C465 1.419 . S
C463 H467 0.930 . S
C464 C463 1.369 . S
C464 C473 1.429 . S
C465 C463 1.419 . S
C465 C466 1.363 . S
C465 H468 0.929 . S
C466 C465 1.363 . S
C466 C472 1.428 . S
H467 C463 0.930 . S
H468 C465 0.929 . S
S469 N470 1.620 . S
S469 N471 1.610 . S
N470 S469 1.620 . S
N470 C473 1.359 . S
N471 S469 1.610 . S
N471 C472 1.351 . S
C472 C466 1.428 . S
C472 N471 1.351 . S
C472 C473 1.434 . S
C473 C464 1.429 . S
C473 N470 1.359 . S
C473 C472 1.434 . S
C474 C475 1.369 . S
C474 C476 1.419 . S
C474 H478 0.930 . S
C475 C474 1.369 . S
C475 C484 1.429 . S
C476 C474 1.419 . S
C476 C477 1.363 . S
C476 H479 0.929 . S
C477 C476 1.363 . S
C477 C483 1.428 . S
H478 C474 0.930 . S
H479 C476 0.929 . S
S480 N481 1.613 1_655 S
S480 N482 1.610 . S
N481 S480 1.613 1_455 S
N481 C484 1.350 1_455 S
N482 S480 1.610 . S
N482 C483 1.351 . S
C483 C477 1.428 . S
C483 N482 1.351 . S
C483 C484 1.434 . S
C484 C475 1.429 . S
C484 N481 1.350 1_655 S
C484 C483 1.434 . S
C485 C486 1.369 . S
C485 C487 1.419 . S
C485 H489 0.930 . S
C486 C485 1.369 . S
C486 C495 1.429 . S
C487 C485 1.419 . S
C487 C488 1.363 . S
C487 H490 0.929 . S
C488 C487 1.363 . S
C488 C494 1.428 . S
H489 C485 0.930 . S
H490 C487 0.929 . S
S491 N492 1.613 . S
S491 N493 1.610 . S
N492 S491 1.613 . S
N492 C495 1.350 . S
N493 S491 1.610 . S
N493 C494 1.351 . S
C494 C488 1.428 . S
C494 N493 1.351 . S
C494 C495 1.434 . S
C495 C486 1.429 . S
C495 N492 1.350 . S
C495 C494 1.434 . S
C496 C497 1.369 . S
C496 C498 1.419 . S
C496 H500 0.930 . S
C497 C496 1.369 . S
C497 C506 1.429 . S
C498 C496 1.419 . S
C498 C499 1.363 . S
C498 H501 0.929 . S
C499 C498 1.363 . S
C499 C505 1.428 . S
H500 C496 0.930 . S
H501 C498 0.929 . S
S502 N503 1.613 1_565 S
S502 N504 1.610 . S
N503 S502 1.613 1_545 S
N503 C506 1.350 . S
N504 S502 1.610 . S
N504 C505 1.351 1_565 S
C505 C499 1.428 . S
C505 N504 1.351 1_545 S
C505 C506 1.434 . S
C506 C497 1.429 . S
C506 N503 1.350 . S
C506 C505 1.434 . S
C507 C508 1.369 . S
C507 C509 1.419 . S
C507 H511 0.930 . S
C508 C507 1.369 . S
C508 C517 1.429 . S
C509 C507 1.419 . S
C509 C510 1.363 . S
C509 H512 0.929 . S
C510 C509 1.363 . S
C510 C516 1.428 . S
H511 C507 0.930 . S
H512 C509 0.929 . S
S513 N514 1.613 . S
S513 N515 1.610 1_455 S
N514 S513 1.613 . S
N514 C517 1.350 . S
N515 S513 1.610 1_655 S
N515 C516 1.351 1_655 S
C516 C510 1.428 . S
C516 N515 1.351 1_455 S
C516 C517 1.434 . S
C517 C508 1.429 . S
C517 N514 1.350 . S
C517 C516 1.434 . S
C518 C519 1.369 . S
C518 C520 1.419 . S
C518 H522 0.930 . S
C519 C518 1.369 . S
C519 C528 1.429 . S
C520 C518 1.419 . S
C520 C521 1.363 . S
C520 H523 0.929 . S
C521 C520 1.363 . S
C521 C527 1.428 . S
H522 C518 0.930 . S
H523 C520 0.929 . S
S524 N525 1.613 . S
S524 N526 1.610 1_545 S
N525 S524 1.613 . S
N525 C528 1.350 . S
N526 S524 1.610 1_565 S
N526 C527 1.351 1_565 S
C527 C521 1.428 . S
C527 N526 1.351 1_545 S
C527 C528 1.434 . S
C528 C519 1.429 . S
C528 N525 1.350 . S
C528 C527 1.434 . S
C529 C530 1.369 . S
C529 C531 1.419 . S
C529 H533 0.930 . S
C530 C529 1.369 . S
C530 C539 1.429 . S
C531 C529 1.419 . S
C531 C532 1.363 . S
C531 H534 0.929 . S
C532 C531 1.363 . S
C532 C538 1.428 . S
H533 C529 0.930 . S
H534 C531 0.929 . S
S535 N536 1.613 1_545 S
S535 N537 1.610 . S
N536 S535 1.613 1_565 S
N536 C539 1.350 . S
N537 S535 1.610 . S
N537 C538 1.351 1_545 S
C538 C532 1.428 . S
C538 N537 1.351 1_565 S
C538 C539 1.434 . S
C539 C530 1.429 . S
C539 N536 1.350 . S
C539 C538 1.434 . S
C540 C541 1.369 . S
C540 C542 1.419 . S
C540 H544 0.930 . S
C541 C540 1.369 . S
C541 C550 1.429 . S
C542 C540 1.419 . S
C542 C543 1.363 . S
C542 H545 0.929 . S
C543 C542 1.363 . S
C543 C549 1.428 . S
H544 C540 0.930 . S
H545 C542 0.929 . S
S546 N547 1.613 . S
S546 N548 1.610 . S
N547 S546 1.613 . S
N547 C550 1.350 . S
N548 S546 1.610 . S
N548 C549 1.351 . S
C549 C543 1.428 . S
C549 N548 1.351 . S
C549 C550 1.434 . S
C550 C541 1.429 . S
C550 N547 1.350 . S
C550 C549 1.434 . S
C551 C552 1.369 . S
C551 C553 1.419 . S
C551 H555 0.930 . S
C552 C551 1.369 . S
C552 C561 1.429 . S
C553 C551 1.419 . S
C553 C554 1.363 . S
C553 H556 0.929 . S
C554 C553 1.363 . S
C554 C560 1.428 . S
H555 C551 0.930 . S
H556 C553 0.929 . S
S557 N558 1.613 . S
S557 N559 1.610 . S
N558 S557 1.613 . S
N558 C561 1.350 . S
N559 S557 1.610 . S
N559 C560 1.351 . S
C560 C554 1.428 . S
C560 N559 1.351 . S
C560 C561 1.434 . S
C561 C552 1.429 . S
C561 N558 1.350 . S
C561 C560 1.434 . S
C562 C563 1.369 . S
C562 C564 1.419 . S
C562 H566 0.930 . S
C563 C562 1.369 . S
C563 C572 1.429 . S
C564 C562 1.419 . S
C564 C565 1.363 . S
C564 H567 0.929 . S
C565 C564 1.363 . S
C565 C571 1.428 . S
H566 C562 0.930 . S
H567 C564 0.929 . S
S568 N569 1.613 . S
S568 N570 1.610 . S
N569 S568 1.613 . S
N569 C572 1.350 . S
N570 S568 1.610 . S
N570 C571 1.351 . S
C571 C565 1.428 . S
C571 N570 1.351 . S
C571 C572 1.434 . S
C572 C563 1.429 . S
C572 N569 1.350 . S
C572 C571 1.434 . S
C573 C574 1.369 . S
C573 C575 1.419 . S
C573 H577 0.930 . S
C574 C573 1.369 . S
C574 C583 1.429 . S
C575 C573 1.419 . S
C575 C576 1.363 . S
C575 H578 0.929 . S
C576 C575 1.363 . S
C576 C582 1.428 . S
H577 C573 0.930 . S
H578 C575 0.929 . S
S579 N580 1.613 . S
S579 N581 1.610 . S
N580 S579 1.613 . S
N580 C583 1.350 . S
N581 S579 1.610 . S
N581 C582 1.351 . S
C582 C576 1.428 . S
C582 N581 1.351 . S
C582 C583 1.434 . S
C583 C574 1.429 . S
C583 N580 1.350 . S
C583 C582 1.434 . S
C584 C585 1.369 . S
C584 C586 1.419 . S
C584 H588 0.930 . S
C585 C584 1.369 . S
C585 C594 1.429 . S
C586 C584 1.419 . S
C586 C587 1.363 . S
C586 H589 0.929 . S
C587 C586 1.363 . S
C587 C593 1.428 . S
H588 C584 0.930 . S
H589 C586 0.929 . S
S590 N591 1.613 . S
S590 N592 1.610 . S
N591 S590 1.613 . S
N591 C594 1.350 . S
N592 S590 1.610 . S
N592 C593 1.351 . S
C593 C587 1.428 . S
C593 N592 1.351 . S
C593 C594 1.434 . S
C594 C585 1.429 . S
C594 N591 1.350 . S
C594 C593 1.434 . S
C595 C596 1.369 . S
C595 C597 1.419 . S
C595 H599 0.930 . S
C596 C595 1.369 . S
C596 C605 1.429 . S
C597 C595 1.419 . S
C597 C598 1.363 . S
C597 H600 0.929 . S
C598 C597 1.363 . S
C598 C604 1.428 . S
H599 C595 0.930 . S
H600 C597 0.929 . S
S601 N602 1.613 . S
S601 N603 1.610 . S
N602 S601 1.613 . S
N602 C605 1.350 . S
N603 S601 1.610 . S
N603 C604 1.351 . S
C604 C598 1.428 . S
C604 N603 1.351 . S
C604 C605 1.434 . S
C605 C596 1.429 . S
C605 N602 1.350 . S
C605 C604 1.434 . S
C606 C607 1.369 . S
C606 C608 1.419 . S
C606 H610 0.930 . S
C607 C606 1.369 . S
C607 C616 1.429 . S
C608 C606 1.419 . S
C608 C609 1.363 . S
C608 H611 0.929 . S
C609 C608 1.363 . S
C609 C615 1.428 . S
H610 C606 0.930 . S
H611 C608 0.929 . S
S612 N613 1.613 . S
S612 N614 1.610 . S
N613 S612 1.613 . S
N613 C616 1.350 . S
N614 S612 1.610 . S
N614 C615 1.351 . S
C615 C609 1.428 . S
C615 N614 1.351 . S
C615 C616 1.434 . S
C616 C607 1.429 . S
C616 N613 1.350 . S
C616 C615 1.434 . S
C617 C618 1.369 . S
C617 C619 1.419 . S
C617 H621 0.930 . S
C618 C617 1.369 . S
C618 C627 1.429 . S
C619 C617 1.419 . S
C619 C620 1.363 . S
C619 H622 0.929 . S
C620 C619 1.363 . S
C620 C626 1.428 . S
H621 C617 0.930 . S
H622 C619 0.929 . S
S623 N624 1.613 . S
S623 N625 1.610 . S
N624 S623 1.613 . S
N624 C627 1.350 . S
N625 S623 1.610 . S
N625 C626 1.351 . S
C626 C620 1.428 . S
C626 N625 1.351 . S
C626 C627 1.434 . S
C627 C618 1.429 . S
C627 N624 1.350 . S
C627 C626 1.434 . S
C628 C629 1.369 . S
C628 C630 1.419 . S
C628 H632 0.930 . S
C629 C628 1.369 . S
C629 C638 1.429 . S
C630 C628 1.419 . S
C630 C631 1.363 . S
C630 H633 0.929 . S
C631 C630 1.363 . S
C631 C637 1.428 . S
H632 C628 0.930 . S
H633 C630 0.929 . S
S634 N635 1.613 . S
S634 N636 1.610 . S
N635 S634 1.613 . S
N635 C638 1.350 . S
N636 S634 1.610 . S
N636 C637 1.351 . S
C637 C631 1.428 . S
C637 N636 1.351 . S
C637 C638 1.434 . S
C638 C629 1.429 . S
C638 N635 1.350 . S
C638 C637 1.434 . S
C639 C640 1.369 . S
C639 C641 1.419 . S
C639 H643 0.930 . S
C640 C639 1.369 . S
C640 C649 1.429 . S
C641 C639 1.419 . S
C641 C642 1.363 . S
C641 H644 0.929 . S
C642 C641 1.363 . S
C642 C648 1.428 . S
H643 C639 0.930 . S
H644 C641 0.929 . S
S645 N646 1.613 . S
S645 N647 1.610 1_565 S
N646 S645 1.613 . S
N646 C649 1.350 1_565 S
N647 S645 1.610 1_545 S
N647 C648 1.351 . S
C648 C642 1.428 . S
C648 N647 1.351 . S
C648 C649 1.434 . S
C649 C640 1.429 . S
C649 N646 1.350 1_545 S
C649 C648 1.434 . S
C650 C651 1.369 . S
C650 C652 1.419 . S
C650 H654 0.930 . S
C651 C650 1.369 . S
C651 C660 1.429 . S
C652 C650 1.419 . S
C652 C653 1.363 . S
C652 H655 0.929 . S
C653 C652 1.363 . S
C653 C659 1.428 . S
H654 C650 0.930 . S
H655 C652 0.929 . S
S656 N657 1.613 . S
S656 N658 1.610 . S
N657 S656 1.613 . S
N657 C660 1.350 . S
N658 S656 1.610 . S
N658 C659 1.351 . S
C659 C653 1.428 . S
C659 N658 1.351 . S
C659 C660 1.434 . S
C660 C651 1.429 . S
C660 N657 1.350 . S
C660 C659 1.434 . S
C661 C662 1.369 . S
C661 C663 1.419 . S
C661 H665 0.930 . S
C662 C661 1.369 . S
C662 C671 1.429 . S
C663 C661 1.419 . S
C663 C664 1.363 . S
C663 H666 0.929 . S
C664 C663 1.363 . S
C664 C670 1.428 . S
H665 C661 0.930 . S
H666 C663 0.929 . S
S667 N668 1.613 . S
S667 N669 1.610 . S
N668 S667 1.613 . S
N668 C671 1.350 . S
N669 S667 1.610 . S
N669 C670 1.351 . S
C670 C664 1.428 . S
C670 N669 1.351 . S
C670 C671 1.434 . S
C671 C662 1.429 . S
C671 N668 1.350 . S
C671 C670 1.434 . S
C672 C673 1.369 . S
C672 C674 1.419 . S
C672 H676 0.930 . S
C673 C672 1.369 . S
C673 C682 1.429 . S
C674 C672 1.419 . S
C674 C675 1.363 . S
C674 H677 0.929 . S
C675 C674 1.363 . S
C675 C681 1.428 . S
H676 C672 0.930 . S
H677 C674 0.929 . S
S678 N679 1.613 . S
S678 N680 1.610 . S
N679 S678 1.613 . S
N679 C682 1.350 . S
N680 S678 1.610 . S
N680 C681 1.351 . S
C681 C675 1.428 . S
C681 N680 1.351 . S
C681 C682 1.434 . S
C682 C673 1.429 . S
C682 N679 1.350 . S
C682 C681 1.434 . S
C683 C684 1.369 . S
C683 C685 1.419 . S
C683 H687 0.930 . S
C684 C683 1.369 . S
C684 C693 1.429 . S
C685 C683 1.419 . S
C685 C686 1.363 . S
C685 H688 0.929 . S
C686 C685 1.363 . S
C686 C692 1.428 . S
H687 C683 0.930 . S
H688 C685 0.929 . S
S689 N690 1.613 . S
S689 N691 1.610 . S
N690 S689 1.613 . S
N690 C693 1.350 . S
N691 S689 1.610 . S
N691 C692 1.351 . S
C692 C686 1.428 . S
C692 N691 1.351 . S
C692 C693 1.434 . S
C693 C684 1.429 . S
C693 N690 1.350 . S
C693 C692 1.434 . S
C694 C695 1.369 . S
C694 C696 1.419 . S
C694 H698 0.930 . S
C695 C694 1.369 . S
C695 C704 1.429 . S
C696 C694 1.419 . S
C696 C697 1.363 . S
C696 H699 0.929 . S
C697 C696 1.363 . S
C697 C703 1.428 . S
H698 C694 0.930 . S
H699 C696 0.929 . S
S700 N701 1.613 . S
S700 N702 1.610 . S
N701 S700 1.613 . S
N701 C704 1.350 . S
N702 S700 1.610 . S
N702 C703 1.351 . S
C703 C697 1.428 . S
C703 N702 1.351 . S
C703 C704 1.434 . S
C704 C695 1.429 . S
C704 N701 1.350 . S
C704 C703 1.434 . S
C705 C706 1.369 . S
C705 C707 1.419 . S
C705 H709 0.930 . S
C706 C705 1.369 . S
C706 C715 1.429 . S
C707 C705 1.419 . S
C707 C708 1.363 . S
C707 H710 0.929 . S
C708 C707 1.363 . S
C708 C714 1.428 . S
H709 C705 0.930 . S
H710 C707 0.929 . S
S711 N712 1.613 . S
S711 N713 1.610 . S
N712 S711 1.613 . S
N712 C715 1.350 . S
N713 S711 1.610 . S
N713 C714 1.351 . S
C714 C708 1.428 . S
C714 N713 1.351 . S
C714 C715 1.434 . S
C715 C706 1.429 . S
C715 N712 1.350 . S
C715 C714 1.434 . S
C716 C717 1.369 . S
C716 C718 1.419 . S
C716 H720 0.930 . S
C717 C716 1.369 . S
C717 C726 1.429 . S
C718 C716 1.419 . S
C718 C719 1.363 . S
C718 H721 0.929 . S
C719 C718 1.363 . S
C719 C725 1.428 . S
H720 C716 0.930 . S
H721 C718 0.929 . S
S722 N723 1.613 . S
S722 N724 1.610 . S
N723 S722 1.613 . S
N723 C726 1.350 . S
N724 S722 1.610 . S
N724 C725 1.351 . S
C725 C719 1.428 . S
C725 N724 1.351 . S
C725 C726 1.434 . S
C726 C717 1.429 . S
C726 N723 1.350 . S
C726 C725 1.434 . S
C727 C728 1.369 . S
C727 C729 1.419 . S
C727 H731 0.930 . S
C728 C727 1.369 . S
C728 C737 1.429 . S
C729 C727 1.419 . S
C729 C730 1.363 . S
C729 H732 0.929 . S
C730 C729 1.363 . S
C730 C736 1.428 . S
H731 C727 0.930 . S
H732 C729 0.929 . S
S733 N734 1.613 . S
S733 N735 1.610 . S
N734 S733 1.613 . S
N734 C737 1.350 . S
N735 S733 1.610 . S
N735 C736 1.351 . S
C736 C730 1.428 . S
C736 N735 1.351 . S
C736 C737 1.434 . S
C737 C728 1.429 . S
C737 N734 1.350 . S
C737 C736 1.434 . S
C738 C739 1.369 . S
C738 C740 1.419 1_556 S
C738 H742 0.930 . S
C739 C738 1.369 . S
C739 C748 1.429 . S
C740 C738 1.419 1_554 S
C740 C741 1.363 . S
C740 H743 0.929 . S
C741 C740 1.363 . S
C741 C747 1.428 . S
H742 C738 0.930 . S
H743 C740 0.929 . S
S744 N745 1.613 . S
S744 N746 1.610 1_556 S
N745 S744 1.613 . S
N745 C748 1.350 . S
N746 S744 1.610 1_554 S
N746 C747 1.351 . S
C747 C741 1.428 . S
C747 N746 1.351 . S
C747 C748 1.434 1_554 S
C748 C739 1.429 . S
C748 N745 1.350 . S
C748 C747 1.434 1_556 S
C749 C750 1.369 . S
C749 C751 1.419 . S
C749 H753 0.930 . S
C750 C749 1.369 . S
C750 C759 1.429 1_455 S
C751 C749 1.419 . S
C751 C752 1.363 1_455 S
C751 H754 0.929 . S
C752 C751 1.363 1_655 S
C752 C758 1.428 . S
H753 C749 0.930 . S
H754 C751 0.929 . S
S755 N756 1.613 . S
S755 N757 1.610 . S
N756 S755 1.613 . S
N756 C759 1.350 . S
N757 S755 1.610 . S
N757 C758 1.351 . S
C758 C752 1.428 . S
C758 N757 1.351 . S
C758 C759 1.434 . S
C759 C750 1.429 1_655 S
C759 N756 1.350 . S
C759 C758 1.434 . S
C760 C761 1.369 1_545 S
C760 C762 1.445 . S
C760 H764 0.930 . S
C761 C760 1.369 1_565 S
C761 C770 1.429 1_554 S
C762 C760 1.445 . S
C762 C763 1.334 1_554 S
C762 H765 0.933 . S
C763 C762 1.334 1_556 S
C763 C769 1.428 1_545 S
H764 C760 0.930 . S
H765 C762 0.933 . S
S766 N767 1.613 . S
S766 N768 1.610 . S
N767 S766 1.613 . S
N767 C770 1.350 . S
N768 S766 1.610 . S
N768 C769 1.351 . S
C769 C763 1.428 1_565 S
C769 N768 1.351 . S
C769 C770 1.434 . S
C770 C761 1.429 1_556 S
C770 N767 1.350 . S
C770 C769 1.434 . S
C771 C772 1.369 . S
C771 C773 1.419 . S
C771 H775 0.930 . S
C772 C771 1.369 . S
C772 C781 1.429 . S
C773 C771 1.419 . S
C773 C774 1.363 . S
C773 H776 0.929 . S
C774 C773 1.363 . S
C774 C780 1.428 . S
H775 C771 0.930 . S
H776 C773 0.929 . S
S777 N778 1.613 . S
S777 N779 1.610 . S
N778 S777 1.613 . S
N778 C781 1.350 . S
N779 S777 1.610 . S
N779 C780 1.351 . S
C780 C774 1.428 . S
C780 N779 1.351 . S
C780 C781 1.434 . S
C781 C772 1.429 . S
C781 N778 1.350 . S
C781 C780 1.434 . S
C782 C783 1.369 . S
C782 C784 1.419 1_656 S
C782 H786 0.930 . S
C783 C782 1.369 . S
C783 C792 1.429 1_655 S
C784 C782 1.419 1_454 S
C784 C785 1.363 . S
C784 H787 0.925 . S
C785 C784 1.363 . S
C785 C791 1.428 . S
H786 C782 0.930 . S
H787 C784 0.925 . S
S788 N789 1.613 . S
S788 N790 1.610 1_556 S
N789 S788 1.613 . S
N789 C792 1.350 . S
N790 S788 1.610 1_554 S
N790 C791 1.351 . S
C791 C785 1.428 . S
C791 N790 1.351 . S
C791 C792 1.434 1_554 S
C792 C783 1.429 1_455 S
C792 N789 1.350 . S
C792 C791 1.434 1_556 S
C793 C794 1.369 . S
C793 C795 1.419 1_565 S
C793 H797 0.930 . S
C794 C793 1.369 . S
C794 C803 1.429 . S
C795 C793 1.419 1_545 S
C795 C796 1.363 . S
C795 H798 0.929 . S
C796 C795 1.363 . S
C796 C802 1.428 . S
H797 C793 0.930 . S
H798 C795 0.929 . S
S799 N800 1.614 1_545 S
S799 N801 1.610 . S
N800 S799 1.614 1_565 S
N800 C803 1.349 . S
N801 S799 1.610 . S
N801 C802 1.351 . S
C802 C796 1.428 . S
C802 N801 1.351 . S
C802 C803 1.434 1_545 S
C803 C794 1.429 . S
C803 N800 1.349 . S
C803 C802 1.434 1_565 S
C409 C144 1.123 1_545 S
C411 C0 1.096 . S
C420 C178 1.124 . S
C422 C34 1.095 . S
C431 C68 1.093 . S
C433 C8 1.123 1_655 S
C442 C102 1.101 . S
C444 C42 1.121 1_565 S
C453 C136 1.100 . S
C455 C76 1.122 . S
C464 C110 1.123 1_455 S
C466 C170 1.097 . S
C475 C280 1.124 1_655 S
C477 C204 1.094 . S
C486 C238 1.098 . S
C488 C314 1.122 1_565 S
C497 C348 1.123 . S
C499 C272 1.095 . S
C508 C306 1.096 . S
C510 C382 1.123 1_455 S
C519 C340 1.098 . S
C521 C212 1.122 1_545 S
C530 C246 1.124 . S
C532 C374 1.095 . S
C541 C153 1.264 . S
C543 C29 1.284 . S
C552 C63 1.282 . S
C554 C187 1.265 . S
C563 C97 1.284 . S
C565 C17 1.261 . S
C574 C131 1.284 . S
C576 C51 1.261 . S
C585 C85 1.264 . S
C587 C165 1.282 . S
C596 C119 1.267 . S
C598 C199 1.283 . S
C607 C289 1.265 . S
C609 C233 1.284 . S
C618 C267 1.284 . S
C620 C323 1.264 . S
C629 C301 1.284 . S
C631 C357 1.261 . S
C640 C391 1.267 . S
C642 C335 1.283 . S
C651 C369 1.284 . S
C653 C221 1.261 . S
C662 C255 1.262 . S
C664 C403 1.283 . S
C673 C353 1.560 . S
C675 C13 1.556 . S
C684 C47 1.558 . S
C686 C387 1.559 . S
C695 C81 1.555 . S
C697 C217 1.559 . S
C706 C115 1.556 . S
C708 C251 1.559 . S
C717 C149 1.559 . S
C719 C285 1.559 . S
C728 C319 1.558 . S
C730 C183 1.556 . S
C739 C310 1.763 . S
C741 C4 1.766 . S
C750 C344 1.763 . S
C752 C38 1.766 . S
C761 C72 1.766 . S
C763 C378 1.763 . S
C772 C106 1.763 . S
C774 C208 1.765 . S
C783 C242 1.762 . S
C785 C140 1.766 . S
C794 C276 1.762 . S
C796 C174 1.766 . S
