# Generated by pormake.
# Topology noz, (5)-cn, num edge types: 1
# Building blocks:
#     Node 0, Type 0, BuildingBlock: XOMCOT_clean_sbu_1, # of connection points: 5
#     Node 1, Type 0, BuildingBlock: XOMCOT_clean_sbu_1, # of connection points: 5
#     Node 2, Type 0, BuildingBlock: XOMCOT_clean_sbu_1, # of connection points: 5
#     Node 3, Type 0, BuildingBlock: XOMCOT_clean_sbu_1, # of connection points: 5
#     Node 4, Type 0, BuildingBlock: XOMCOT_clean_sbu_1, # of connection points: 5
#     Node 5, Type 0, BuildingBlock: XOMCOT_clean_sbu_1, # of connection points: 5
#     Node 6, Type 0, BuildingBlock: XOMCOT_clean_sbu_1, # of connection points: 5
#     Node 7, Type 0, BuildingBlock: XOMCOT_clean_sbu_1, # of connection points: 5
#     Edge 8, Type (0, 0), BuildingBlock: TEMPAE_clean_linker_10, # of connection points: 2
#     Edge 9, Type (0, 0), BuildingBlock: TEMPAE_clean_linker_10, # of connection points: 2
#     Edge 10, Type (0, 0), BuildingBlock: TEMPAE_clean_linker_10, # of connection points: 2
#     Edge 11, Type (0, 0), BuildingBlock: TEMPAE_clean_linker_10, # of connection points: 2
#     Edge 12, Type (0, 0), BuildingBlock: TEMPAE_clean_linker_10, # of connection points: 2
#     Edge 13, Type (0, 0), BuildingBlock: TEMPAE_clean_linker_10, # of connection points: 2
#     Edge 14, Type (0, 0), BuildingBlock: TEMPAE_clean_linker_10, # of connection points: 2
#     Edge 15, Type (0, 0), BuildingBlock: TEMPAE_clean_linker_10, # of connection points: 2
#     Edge 16, Type (0, 0), BuildingBlock: TEMPAE_clean_linker_10, # of connection points: 2
#     Edge 17, Type (0, 0), BuildingBlock: TEMPAE_clean_linker_10, # of connection points: 2
#     Edge 18, Type (0, 0), BuildingBlock: TEMPAE_clean_linker_10, # of connection points: 2
#     Edge 19, Type (0, 0), BuildingBlock: TEMPAE_clean_linker_10, # of connection points: 2
#     Edge 20, Type (0, 0), BuildingBlock: TEMPAE_clean_linker_10, # of connection points: 2
#     Edge 21, Type (0, 0), BuildingBlock: TEMPAE_clean_linker_10, # of connection points: 2
#     Edge 22, Type (0, 0), BuildingBlock: TEMPAE_clean_linker_10, # of connection points: 2
#     Edge 23, Type (0, 0), BuildingBlock: TEMPAE_clean_linker_10, # of connection points: 2
#     Edge 24, Type (0, 0), BuildingBlock: TEMPAE_clean_linker_10, # of connection points: 2
#     Edge 25, Type (0, 0), BuildingBlock: TEMPAE_clean_linker_10, # of connection points: 2
#     Edge 26, Type (0, 0), BuildingBlock: TEMPAE_clean_linker_10, # of connection points: 2
#     Edge 27, Type (0, 0), BuildingBlock: TEMPAE_clean_linker_10, # of connection points: 2
# Relax obj value: 0.078
# Max RMSD: 0.163
# Mean RMSD: 0.163
data_MOF--net-noz--node1-XOMCOT_clean_sbu_1--edge1-TEMPAE_clean_linker_10
_symmetry_space_group_name_H-M    P1
_symmetry_Int_Tables_number       1
_symmetry_cell_setting            triclinic
loop_
_symmetry_equiv_pos_as_xyz
'x, y, z'
_cell_length_a     24.006063
_cell_length_b     50.916149
_cell_length_c     36.787785
_cell_angle_alpha  90.048366
_cell_angle_beta   89.996605
_cell_angle_gamma 90.024124
loop_
_atom_site_label
_atom_site_type_symbol
_atom_site_fract_x
_atom_site_fract_y
_atom_site_fract_z
_atom_type_partial_charge
C0 C 0.13626 0.35581 0.3447 0.0
C1 C 0.09278 0.35806 0.32058 0.0
N2 N 0.04592 0.3495 0.33695 0.0
N3 N 0.11726 0.34578 0.3762 0.0
C4 C 0.062 0.34211 0.3707 0.0
H5 H 0.179 0.36148 0.33975 0.0
Co6 Co 0.16173 0.34105 0.41725 0.0
C7 C 0.09403 0.31041 0.46992 0.0
O8 O 0.11861 0.32285 0.49676 0.0
N9 N 0.20905 0.33639 0.45905 0.0
C10 C 0.26078 0.34334 0.50861 0.0
C11 C 0.22113 0.3537 0.48593 0.0
C12 C 0.24179 0.31535 0.46687 0.0
N13 N 0.27419 0.31927 0.49648 0.0
O14 O 0.20172 0.31365 0.39165 0.0
H15 H 0.20281 0.37283 0.48955 0.0
H16 H 0.24347 0.29775 0.45042 0.0
O17 O 0.10712 0.31581 0.437 0.0
C18 C 0.24816 0.32332 0.38112 0.0
O19 O 0.26039 0.34744 0.39112 0.0
N20 N 0.12666 0.37017 0.43841 0.0
C21 C 0.09149 0.41983 0.46208 0.0
C22 C 0.05679 0.39762 0.4658 0.0
C23 C 0.07507 0.3729 0.45361 0.0
C24 C 0.15886 0.39168 0.43221 0.0
C25 C 0.14324 0.41632 0.44487 0.0
H26 H 0.04719 0.35635 0.4557 0.0
H27 H 0.19854 0.38937 0.41865 0.0
H28 H 0.03375 0.33501 0.39137 0.0
H29 H 0.09558 0.36543 0.29305 0.0
H30 H 0.27864 0.35294 0.53215 0.0
H31 H 1.01561 0.39923 0.47754 0.0
H32 H 0.1727 0.43222 0.44171 0.0
C33 C 0.60997 0.64089 0.84846 0.0
C34 C 0.65272 0.63874 0.82377 0.0
N35 N 0.69189 0.65675 0.83207 0.0
N36 N 0.6218 0.66013 0.87238 0.0
C37 C 0.67194 0.66955 0.86161 0.0
H38 H 0.57283 0.62887 0.8493 0.0
Co39 Co 0.57568 0.66831 0.91177 0.0
C40 C 0.64521 0.7003 0.96219 0.0
O41 O 0.62205 0.68811 0.9897 0.0
N42 N 0.52657 0.67643 0.95186 0.0
C43 C 0.48027 0.67575 1.00469 0.0
C44 C 0.51926 0.66324 0.98358 0.0
C45 C 0.49016 0.6968 0.95459 0.0
N46 N 0.4618 0.69673 0.98633 0.0
O47 O 0.53851 0.69416 0.88181 0.0
H48 H 0.54193 0.64603 0.99209 0.0
H49 H 0.48471 0.71174 0.93404 0.0
O50 O 0.631 0.69428 0.92963 0.0
C51 C 0.49668 0.68195 0.86843 0.0
O52 O 0.48768 0.65782 0.87969 0.0
N53 N 0.60804 0.64026 0.93719 0.0
C54 C 0.64291 0.59123 0.96292 0.0
C55 C 0.67937 0.6129 0.96317 0.0
C56 C 0.66137 0.63728 0.94953 0.0
C57 C 0.57302 0.61925 0.9358 0.0
C58 C 0.58896 0.59489 0.94922 0.0
H59 H 0.69085 0.65324 0.9477 0.0
H60 H 0.53185 0.62157 0.92434 0.0
H61 H 0.69425 0.68491 0.87565 0.0
H62 H 0.65473 0.62495 0.80141 0.0
H63 H 0.46611 0.66977 0.03138 0.0
H64 H 0.72184 0.61084 0.97265 0.0
H65 H 0.55888 0.57904 0.94879 0.0
C66 C 0.14862 0.6575 0.69203 0.0
C67 C 0.1076 0.65596 0.71798 0.0
N68 N 0.06197 0.66863 0.70567 0.0
N69 N 0.12944 0.67105 0.66328 0.0
C70 C 0.07649 0.67757 0.67226 0.0
H71 H 0.1897 0.64886 0.69368 0.0
Co72 Co 0.17223 0.6764 0.62166 0.0
C73 C 0.10084 0.70486 0.56916 0.0
O74 O 0.12324 0.69084 0.54303 0.0
N75 N 0.21843 0.68169 0.57915 0.0
C76 C 0.2678 0.67548 0.52831 0.0
C77 C 0.22836 0.66505 0.55106 0.0
C78 C 0.25224 0.70249 0.57184 0.0
N79 N 0.28329 0.69896 0.54151 0.0
O80 O 0.21115 0.70414 0.64703 0.0
H81 H 0.20817 0.64648 0.54633 0.0
H82 H 0.25569 0.71963 0.58908 0.0
O83 O 0.11592 0.70108 0.60218 0.0
C84 C 0.25827 0.69523 0.65749 0.0
O85 O 0.27294 0.67156 0.64687 0.0
N86 N 0.13782 0.64688 0.60097 0.0
C87 C 0.10127 0.59705 0.57873 0.0
C88 C 0.06486 0.6188 0.57863 0.0
C89 C 0.08387 0.64357 0.59009 0.0
C90 C 0.17208 0.62573 0.60404 0.0
C91 C 0.15571 0.60109 0.59175 0.0
H92 H 0.05475 0.6597 0.59118 0.0
H93 H 0.21367 0.62837 0.61477 0.0
H94 H 0.04908 0.68847 0.65455 0.0
H95 H 0.1109 0.64553 0.74349 0.0
H96 H 0.28397 0.66638 0.50389 0.0
H97 H 0.02178 0.61677 0.57049 0.0
H98 H 0.18647 0.58559 0.59206 0.0
C99 C 0.59882 0.37127 0.1869 0.0
C100 C 0.63874 0.37461 0.21341 0.0
N101 N 0.67369 0.35386 0.21254 0.0
N102 N 0.60836 0.34854 0.16925 0.0
C103 C 0.65386 0.33826 0.18567 0.0
H104 H 0.56617 0.385 0.17995 0.0
Co105 Co 0.56963 0.33663 0.12825 0.0
C106 C 0.62952 0.28838 0.10993 0.0
O107 O 0.58239 0.27545 0.11302 0.0
N108 N 0.53146 0.32444 0.0864 0.0
C109 C 0.51732 0.31218 0.02906 0.0
C110 C 0.55547 0.32185 0.05338 0.0
C111 C 0.47832 0.31621 0.08129 0.0
N112 N 0.46863 0.30862 0.04655 0.0
O113 O 0.53187 0.31118 0.15845 0.0
H114 H 0.59853 0.32639 0.04741 0.0
H115 H 0.44715 0.31588 0.10247 0.0
O116 O 0.63056 0.31301 0.11631 0.0
C117 C 0.48935 0.32358 0.17041 0.0
O118 O 0.48135 0.34764 0.15853 0.0
N119 N 0.60134 0.36383 0.10101 0.0
C120 C 0.63396 0.41196 0.07131 0.0
C121 C 0.67401 0.39366 0.08315 0.0
C122 C 0.65674 0.36956 0.09804 0.0
C123 C 0.56224 0.381 0.08874 0.0
C124 C 0.57756 0.40481 0.0732 0.0
H125 H 0.68754 0.35621 0.1089 0.0
H126 H 0.5185 0.37653 0.09216 0.0
H127 H 0.67277 0.3199 0.17763 0.0
H128 H 0.64304 0.39164 0.23079 0.0
H129 H 0.5254 0.30752 1.00085 0.0
H130 H 0.71799 0.39834 0.08248 0.0
H131 H 0.54504 0.4178 0.0636 0.0
C132 C 0.64097 0.86546 0.34073 0.0
C133 C 0.59798 0.86729 0.31617 0.0
N134 N 0.55503 0.85275 0.32846 0.0
N135 N 0.62549 0.84985 0.3685 0.0
C136 C 0.57284 0.84233 0.36024 0.0
H137 H 0.68075 0.87533 0.33885 0.0
Co138 Co 0.67068 0.8441 0.40905 0.0
C139 C 0.60389 0.8127 0.46108 0.0
O140 O 0.62755 0.82565 0.48779 0.0
N141 N 0.71903 0.8385 0.45029 0.0
C142 C 0.77007 0.84405 0.50054 0.0
C143 C 0.72996 0.85479 0.4786 0.0
C144 C 0.75313 0.81763 0.4565 0.0
N145 N 0.78502 0.82074 0.48657 0.0
O146 O 0.71097 0.81774 0.38168 0.0
H147 H 0.71 0.8733 0.48407 0.0
H148 H 0.75587 0.80073 0.43878 0.0
O149 O 0.61701 0.81801 0.42811 0.0
C150 C 0.75476 0.82915 0.36974 0.0
O151 O 0.76397 0.85343 0.38035 0.0
N152 N 0.63495 0.87242 0.43191 0.0
C153 C 0.59607 0.92104 0.45732 0.0
C154 C 0.56158 0.89859 0.4578 0.0
C155 C 0.58171 0.87444 0.44472 0.0
C156 C 0.66713 0.89428 0.42863 0.0
C157 C 0.64968 0.91833 0.44238 0.0
H158 H 0.5539 0.85779 0.44395 0.0
H159 H 0.70806 0.89269 0.41653 0.0
H160 H 0.5472 0.83032 0.37772 0.0
H161 H 0.59827 0.87855 0.29123 0.0
H162 H 0.78687 0.85277 0.52505 0.0
H163 H 0.5191 0.89963 0.46751 0.0
H164 H 0.67903 0.93443 0.44169 0.0
C165 C 0.09667 0.14158 0.85676 0.0
C166 C 0.1367 0.13763 0.83048 0.0
N167 N 0.17392 0.15744 0.83231 0.0
N168 N 0.10846 0.16375 0.87522 0.0
C169 C 0.1555 0.17308 0.85951 0.0
H170 H 0.06203 0.12871 0.86277 0.0
Co171 Co 0.06965 0.1759 0.91611 0.0
C172 C 0.1298 0.2241 0.93424 0.0
O173 O 0.08276 0.23706 0.93092 0.0
N174 N 0.03142 0.18829 0.95784 0.0
C175 C 1.01723 0.20055 1.01518 0.0
C176 C 0.05536 0.19086 0.99089 0.0
C177 C 0.97832 0.19659 0.96291 0.0
N178 N 0.96861 0.20417 0.99765 0.0
O179 O 0.03236 0.20135 0.88568 0.0
H180 H 0.09836 0.18624 0.99691 0.0
H181 H 0.94717 0.19695 0.94172 0.0
O182 O 0.13074 0.19944 0.92803 0.0
C183 C 0.98947 0.18915 0.87387 0.0
O184 O 0.98079 0.16521 0.88601 0.0
N185 N 0.10081 0.14871 0.94356 0.0
C186 C 0.13236 0.10074 0.97416 0.0
C187 C 0.17283 0.11899 0.9627 0.0
C188 C 0.15609 0.143 0.94731 0.0
C189 C 0.06129 0.13158 0.9554 0.0
C190 C 0.07605 0.10785 0.97134 0.0
H191 H 0.18725 0.15632 0.9368 0.0
H192 H 1.01768 0.13606 0.95139 0.0
H193 H 0.17733 0.19041 0.86881 0.0
H194 H 0.13857 0.12121 0.81181 0.0
H195 H 0.02523 0.20517 0.04342 0.0
H196 H 0.21677 0.11431 0.96409 0.0
H197 H 0.04323 0.09487 0.98057 0.0
C198 C 0.63552 0.15682 0.6985 0.0
C199 C 0.5927 0.15521 0.72321 0.0
N200 N 0.54657 0.1658 0.70826 0.0
N201 N 0.61696 0.16843 0.66798 0.0
C202 C 0.56253 0.17359 0.67461 0.0
H203 H 0.67743 0.14954 0.70229 0.0
Co204 Co 0.66123 0.17336 0.62685 0.0
C205 C 0.5933 0.20395 0.57449 0.0
O206 O 0.61684 0.19099 0.54775 0.0
N207 N 0.70846 0.17825 0.58494 0.0
C208 C 0.75947 0.17174 0.53493 0.0
C209 C 0.71986 0.16126 0.55754 0.0
C210 C 0.7416 0.19924 0.57748 0.0
N211 N 0.77358 0.19558 0.5476 0.0
O212 O 0.70166 0.20046 0.65271 0.0
H213 H 0.7009 0.14233 0.55338 0.0
H214 H 0.74381 0.21662 0.59432 0.0
O215 O 0.60692 0.19886 0.60742 0.0
C216 C 0.74783 0.19051 0.66319 0.0
O217 O 0.75949 0.16638 0.65296 0.0
N218 N 0.62557 0.14447 0.60543 0.0
C219 C 0.58865 0.09516 0.58139 0.0
C220 C 0.55385 0.11744 0.57926 0.0
C221 C 0.573 0.14196 0.59165 0.0
C222 C 0.65793 0.12284 0.6103 0.0
C223 C 0.64143 0.09841 0.59735 0.0
H224 H 0.54503 0.15853 0.59092 0.0
H225 H 0.69835 0.12492 0.62298 0.0
H226 H 0.53509 0.18268 0.65504 0.0
H227 H 0.59521 0.14618 0.74977 0.0
H228 H 0.77674 0.16241 0.511 0.0
H229 H 0.51193 0.11602 0.56865 0.0
H230 H 0.67099 0.08246 0.59931 0.0
C231 C 0.09748 0.8605 0.18942 0.0
C232 C 0.13835 0.86181 0.2155 0.0
N233 N 0.18231 0.84732 0.20445 0.0
N234 N 0.11511 0.84532 0.16179 0.0
C235 C 0.16692 0.83753 0.17163 0.0
H236 H 0.05774 0.87049 0.1901 0.0
Co237 Co 0.07274 0.83992 0.11995 0.0
C238 C 0.14824 0.81366 0.06807 0.0
O239 O 0.1301 0.82964 0.04274 0.0
N240 N 0.0276 0.83438 0.07708 0.0
C241 C 0.97988 0.83994 0.02546 0.0
C242 C 1.0186 0.85067 0.04853 0.0
C243 C 0.99409 0.81348 0.06975 0.0
N244 N 0.96403 0.8166 0.03891 0.0
O245 O 0.03378 0.81204 0.145 0.0
H246 H 0.03889 0.86924 0.04385 0.0
H247 H 0.99015 0.79655 0.08728 0.0
O248 O 0.12922 0.81543 0.10052 0.0
C249 C 0.98763 0.82184 0.15584 0.0
O250 O 0.97527 0.84585 0.14552 0.0
N251 N 0.10668 0.8699 0.0998 0.0
C252 C 0.14143 0.92039 0.07987 0.0
C253 C 0.17886 0.89912 0.07913 0.0
C254 C 0.16097 0.87405 0.09009 0.0
C255 C 0.07117 0.89063 0.10288 0.0
C256 C 0.08703 0.91574 0.09221 0.0
H257 H 0.1911 0.85837 0.09162 0.0
H258 H 0.0294 0.88742 0.11296 0.0
H259 H 0.19295 0.82513 0.15488 0.0
H260 H 0.13618 0.87336 0.24014 0.0
H261 H 0.96448 0.84874 1.00064 0.0
H262 H 0.22183 0.90194 0.07109 0.0
H263 H 0.05634 0.9313 0.09327 0.0
C264 C 0.34217 0.31817 0.35436 0.0
C265 C 0.28643 0.30994 0.35542 0.0
C266 C 0.37645 0.31242 0.32459 0.0
C267 C 0.35474 0.29777 0.29509 0.0
C268 C 0.30084 0.28648 0.29821 0.0
C269 C 0.2669 0.2929 0.32831 0.0
C270 C 0.43371 0.32468 0.32297 0.0
C271 C 0.27724 0.26955 0.26832 0.0
C272 C 0.40227 0.32752 0.20638 0.0
C273 C 0.45049 0.31304 0.19836 0.0
C274 C 0.36883 0.32153 0.2364 0.0
C275 C 0.38286 0.29999 0.25891 0.0
C276 C 0.42858 0.28373 0.24914 0.0
C277 C 0.46237 0.29062 0.21912 0.0
C278 C 0.32091 0.33966 0.24552 0.0
C279 C 0.44384 0.25993 0.27133 0.0
H280 H 0.35793 0.33086 0.37571 0.0
H281 H 0.22404 0.28622 0.32911 0.0
H282 H 0.46514 0.30994 0.3146 0.0
H283 H 0.43392 0.34061 0.30237 0.0
H284 H 0.44655 0.33316 0.34952 0.0
H285 H 0.24285 0.25692 0.27848 0.0
H286 H 0.26038 0.28224 0.24644 0.0
H287 H 0.31007 0.25692 0.25623 0.0
H288 H 0.39182 0.34456 0.19012 0.0
H289 H 0.49911 0.27909 0.21292 0.0
H290 H 0.32921 0.34969 0.27177 0.0
H291 H 0.28181 0.32831 0.24863 0.0
H292 H 0.3142 0.35491 0.22438 0.0
H293 H 0.47336 0.26577 0.29308 0.0
H294 H 0.46477 0.24489 0.25423 0.0
H295 H 0.40668 0.25098 0.28433 0.0
C296 C 0.46526 0.71844 0.82588 0.0
C297 C 0.46002 0.69278 0.8394 0.0
C298 C 0.43174 0.72718 0.79664 0.0
C299 C 0.39319 0.70965 0.78019 0.0
C300 C 0.38685 0.68406 0.79461 0.0
C301 C 0.41974 0.67613 0.82399 0.0
C302 C 0.43862 0.75485 0.7828 0.0
C303 C 0.34692 0.66441 0.77801 0.0
C304 C 0.27194 0.7196 0.71607 0.0
C305 C 0.29432 0.70869 0.6843 0.0
C306 C 0.3058 0.72358 0.74696 0.0
C307 C 0.36287 0.71628 0.74585 0.0
C308 C 0.38663 0.7086 0.71224 0.0
C309 C 0.35201 0.70484 0.68197 0.0
C310 C 0.27903 0.73263 0.78186 0.0
C311 C 0.44712 0.70077 0.70933 0.0
H312 H 0.49587 0.73153 0.83777 0.0
H313 H 0.4148 0.6563 0.83415 0.0
H314 H 0.46205 0.75455 0.75682 0.0
H315 H 0.39743 0.7639 0.77729 0.0
H316 H 0.46172 0.76738 0.80241 0.0
H317 H 0.34619 0.64548 0.79299 0.0
H318 H 0.30405 0.67251 0.77771 0.0
H319 H 0.35898 0.66036 0.74943 0.0
H320 H 0.22732 0.72259 0.71804 0.0
H321 H 0.36949 0.69664 0.65724 0.0
H322 H 0.30798 0.7451 0.79786 0.0
H323 H 0.26825 0.71526 0.79865 0.0
H324 H 0.24013 0.7438 0.77654 0.0
H325 H 0.4741 0.71463 0.7245 0.0
H326 H 0.46132 0.70002 0.6806 0.0
H327 H 0.45276 0.68099 0.72144 0.0
C328 C 0.95936 0.67553 0.70443 0.0
C329 C 1.00859 0.6707 0.72399 0.0
C330 C 0.90705 0.67566 0.72179 0.0
C331 C 0.90355 0.67056 0.7596 0.0
C332 C 0.9531 0.66656 0.77969 0.0
C333 C 1.00478 0.66688 0.76177 0.0
C334 C 0.85532 0.68037 0.69941 0.0
C335 C 0.95146 0.66099 0.82 0.0
C336 C 0.77058 0.68524 0.81307 0.0
C337 C 0.74481 0.66049 0.81395 0.0
C338 C 0.82175 0.68899 0.79502 0.0
C339 C 0.84816 0.66742 0.77774 0.0
C340 C 0.82243 0.6424 0.77875 0.0
C341 C 0.7712 0.63928 0.79668 0.0
C342 C 0.84749 0.71603 0.79434 0.0
C343 C 0.84944 0.61875 0.76129 0.0
H344 H 0.96131 0.67843 0.67532 0.0
H345 H 0.04228 0.66383 0.77751 0.0
H346 H 0.83049 0.66202 0.69791 0.0
H347 H 0.82877 0.69551 0.71246 0.0
H348 H 0.86529 0.68679 0.6713 0.0
H349 H 0.99378 0.65964 0.83207 0.0
H350 H 0.92793 0.67659 0.83439 0.0
H351 H 0.92938 0.64217 0.82494 0.0
H352 H 0.75028 0.70177 0.82603 0.0
H353 H 0.75221 0.62 0.79773 0.0
H354 H 0.85358 0.72246 0.7658 0.0
H355 H 0.88917 0.71556 0.80733 0.0
H356 H 0.82143 0.73082 0.80863 0.0
H357 H 0.85645 0.62246 0.73194 0.0
H358 H 0.82381 0.6007 0.76417 0.0
H359 H 0.89077 0.61515 0.77384 0.0
C360 C 0.7318 0.36364 0.26664 0.0
C361 C 0.72453 0.35056 0.23333 0.0
C362 C 0.78248 0.36231 0.28575 0.0
C363 C 0.82718 0.34739 0.27144 0.0
C364 C 0.81954 0.33335 0.23854 0.0
C365 C 0.76855 0.33517 0.21987 0.0
C366 C 0.78878 0.3776 0.3207 0.0
C367 C 0.86598 0.31713 0.22234 0.0
C368 C 0.9754 0.36773 0.29505 0.0
C369 C 0.99043 0.34926 0.3216 0.0
C370 C 0.92241 0.36743 0.27889 0.0
C371 C 0.88314 0.34809 0.28931 0.0
C372 C 0.8977 0.32952 0.3164 0.0
C373 C 0.95107 0.33039 0.33233 0.0
C374 C 0.90857 0.38781 0.25047 0.0
C375 C 0.8572 0.3085 0.32815 0.0
H376 H 0.69797 0.37519 0.27771 0.0
H377 H 0.76403 0.32518 0.19407 0.0
H378 H 0.80365 0.36454 0.34277 0.0
H379 H 0.82054 0.39322 0.31708 0.0
H380 H 0.74911 0.3869 0.32941 0.0
H381 H 0.85204 0.30567 0.19828 0.0
H382 H 0.90062 0.3302 0.2139 0.0
H383 H 0.88282 0.30333 0.24291 0.0
H384 H 1.00505 0.38268 0.28707 0.0
H385 H 0.96243 0.31593 0.35259 0.0
H386 H 0.87126 0.39913 0.25891 0.0
H387 H 0.89839 0.37804 0.22434 0.0
H388 H 0.94342 0.40176 0.2458 0.0
H389 H 0.81797 0.3176 0.33791 0.0
H390 H 0.87434 0.2959 0.3501 0.0
H391 H 0.84637 0.29587 0.30459 0.0
C392 C 0.84091 0.8315 0.33247 0.0
C393 C 0.79271 0.81749 0.34207 0.0
C394 C 0.87307 0.82446 0.30227 0.0
C395 C 0.85785 0.80227 0.28126 0.0
C396 C 0.8123 0.7865 0.29273 0.0
C397 C 0.77972 0.79448 0.32281 0.0
C398 C 0.9208 0.84216 0.29127 0.0
C399 C 0.79589 0.76203 0.27228 0.0
C400 C 0.89456 0.81721 0.18407 0.0
C401 C 0.95026 0.80896 0.18255 0.0
C402 C 0.86152 0.81249 0.21477 0.0
C403 C 0.88444 0.79883 0.24475 0.0
C404 C 0.93813 0.78738 0.24135 0.0
C405 C 0.97084 0.7928 0.21032 0.0
C406 C 0.80442 0.82488 0.21667 0.0
C407 C 0.96288 0.77138 0.27177 0.0
H408 H 0.8522 0.84901 0.34753 0.0
H409 H 0.743 0.7833 0.33022 0.0
H410 H 0.95966 0.83062 0.28826 0.0
H411 H 0.91163 0.8513 0.26455 0.0
H412 H 0.92844 0.85809 0.31131 0.0
H413 H 0.77593 0.74754 0.29072 0.0
H414 H 0.76515 0.76719 0.25094 0.0
H415 H 0.83231 0.75268 0.25895 0.0
H416 H 0.87799 0.82923 0.16228 0.0
H417 H 1.01369 0.78613 0.20921 0.0
H418 H 0.8051 0.84138 0.23642 0.0
H419 H 0.77324 0.81043 0.22632 0.0
H420 H 0.79061 0.83261 0.18992 0.0
H421 H 0.98093 0.78473 0.2925 0.0
H422 H 0.9966 0.75832 0.26172 0.0
H423 H 0.93045 0.75927 0.28527 0.0
C424 C 0.76744 0.22073 0.71609 0.0
C425 C 0.78647 0.20361 0.68892 0.0
C426 C 0.80162 0.22695 0.74616 0.0
C427 C 0.85526 0.2154 0.74917 0.0
C428 C 0.87653 0.20067 0.71962 0.0
C429 C 0.84202 0.19511 0.6899 0.0
C430 C 0.7785 0.24396 0.77611 0.0
C431 C 0.93352 0.18815 0.72114 0.0
C432 C 0.96318 0.22213 0.82505 0.0
C433 C 0.95087 0.19978 0.84585 0.0
C434 C 0.92951 0.22913 0.79503 0.0
C435 C 0.88346 0.21305 0.7853 0.0
C436 C 0.86905 0.19157 0.80783 0.0
C437 C 0.90239 0.18547 0.83784 0.0
C438 C 0.94521 0.25286 0.7728 0.0
C439 C 0.82077 0.17362 0.79875 0.0
H440 H 0.72474 0.22762 0.71535 0.0
H441 H 0.85741 0.18236 0.6685 0.0
H442 H 0.76156 0.23132 0.79803 0.0
H443 H 0.81164 0.25647 0.78812 0.0
H444 H 0.74428 0.25672 0.76606 0.0
H445 H 0.94609 0.17965 0.69455 0.0
H446 H 0.9653 0.20273 0.72951 0.0
H447 H 0.93341 0.17219 0.74169 0.0
H448 H 1.00013 0.23353 0.83124 0.0
H449 H 0.89161 0.16848 0.85413 0.0
H450 H 0.9082 0.26198 0.75989 0.0
H451 H 0.97448 0.24687 0.75099 0.0
H452 H 0.96658 0.2678 0.78986 0.0
H453 H 0.78189 0.18513 0.79565 0.0
H454 H 0.81379 0.15841 0.81989 0.0
H455 H 0.82884 0.16356 0.77249 0.0
C456 C 0.2489 0.18488 0.80566 0.0
C457 C 0.22519 0.16007 0.81189 0.0
C458 C 0.29988 0.18755 0.78707 0.0
C459 C 0.32821 0.16485 0.77458 0.0
C460 C 0.30407 0.1398 0.78029 0.0
C461 C 0.25297 0.13773 0.79874 0.0
C462 C 0.32385 0.21463 0.78129 0.0
C463 C 0.333 0.11506 0.76778 0.0
C464 C 0.44346 0.16894 0.70318 0.0
C465 C 0.49172 0.16731 0.72468 0.0
C466 C 0.39001 0.16891 0.71902 0.0
C467 C 0.38445 0.16704 0.75729 0.0
C468 C 0.43292 0.16607 0.77915 0.0
C469 C 0.48571 0.16635 0.76266 0.0
C470 C 0.33944 0.17021 0.69471 0.0
C471 C 0.42908 0.16413 0.82005 0.0
H472 H 0.22748 0.20226 0.81526 0.0
H473 H 0.23557 0.11846 0.8038 0.0
H474 H 0.36391 0.21649 0.79611 0.0
H475 H 0.33283 0.21779 0.75203 0.0
H476 H 0.29532 0.23037 0.79083 0.0
H477 H 0.30773 0.09717 0.77297 0.0
H478 H 0.34212 0.11621 0.73827 0.0
H479 H 0.37344 0.11301 0.78211 0.0
H480 H 0.44724 0.16953 0.67387 0.0
H481 H 0.52242 0.16572 0.77971 0.0
H482 H 0.31113 0.18612 0.70384 0.0
H483 H 0.31591 0.1515 0.69651 0.0
H484 H 0.35068 0.1737 0.66582 0.0
H485 H 0.40417 0.18069 0.831 0.0
H486 H 0.47067 0.16433 0.83328 0.0
H487 H 0.40736 0.14571 0.82772 0.0
C488 C 0.28359 0.83677 0.20442 0.0
C489 C 0.23525 0.84449 0.22316 0.0
C490 C 0.33573 0.83576 0.22196 0.0
C491 C 0.34007 0.84299 0.25908 0.0
C492 C 0.29135 0.85002 0.27842 0.0
C493 C 0.23973 0.85043 0.26041 0.0
C494 C 0.3865 0.82777 0.20043 0.0
C495 C 0.29396 0.85804 0.31793 0.0
C496 C 0.47055 0.82667 0.31423 0.0
C497 C 0.50085 0.85017 0.31168 0.0
C498 C 0.41855 0.82383 0.29687 0.0
C499 C 0.39586 0.84516 0.27699 0.0
C500 C 0.42602 0.86902 0.27482 0.0
C501 C 0.47812 0.87116 0.29194 0.0
C502 C 0.38816 0.79795 0.29948 0.0
C503 C 0.40301 0.89247 0.25467 0.0
H504 H 0.28125 0.8322 0.17574 0.0
H505 H 0.20289 0.85575 0.27565 0.0
H506 H 0.41453 0.84493 0.1971 0.0
H507 H 0.4102 0.81242 0.21523 0.0
H508 H 0.37552 0.82016 0.17304 0.0
H509 H 0.25203 0.86177 0.32961 0.0
H510 H 0.31471 0.84256 0.33423 0.0
H511 H 0.31923 0.87619 0.32071 0.0
H512 H 0.48811 0.81033 0.32918 0.0
H513 H 0.50083 0.8895 0.29036 0.0
H514 H 0.38144 0.7898 0.27184 0.0
H515 H 0.3465 0.80091 0.31185 0.0
H516 H 0.41136 0.7833 0.31593 0.0
H517 H 0.39563 0.88729 0.22577 0.0
H518 H 0.43146 0.90966 0.25573 0.0
H519 H 0.36228 0.89825 0.26648 0.0
C520 C 0.1112 0.54768 0.57736 0.0
C521 C 0.08403 0.57046 0.56492 0.0
C522 C 0.10326 0.52328 0.56046 0.0
C523 C 0.06382 0.52087 0.53208 0.0
C524 C 0.03158 0.543 0.52204 0.0
C525 C 0.04315 0.56764 0.53776 0.0
C526 C 0.13966 0.50046 0.57168 0.0
C527 C 0.98627 0.54113 0.49373 0.0
C528 C 0.09841 0.46928 0.4613 0.0
C529 C 0.07571 0.44636 0.47673 0.0
C530 C 0.09349 0.49375 0.47848 0.0
C531 C 0.06146 0.496 0.5106 0.0
C532 C 0.03281 0.47368 0.52399 0.0
C533 C 0.04151 0.44902 0.50758 0.0
C534 C 0.12549 0.51684 0.4633 0.0
C535 C 0.99468 0.47548 0.5565 0.0
H536 H 0.14038 0.54887 0.59971 0.0
H537 H 0.02117 0.5847 0.52769 0.0
H538 H 0.11363 0.4844 0.58282 0.0
H539 H 0.16211 0.49254 0.54766 0.0
H540 H 0.17089 0.50607 0.59257 0.0
H541 H 0.95292 0.55576 0.49905 0.0
H542 H 1.00399 0.54548 0.46656 0.0
H543 H 0.96731 0.52125 0.49292 0.0
H544 H 0.12205 0.46811 0.4363 0.0
H545 H 0.02297 0.43183 0.51993 0.0
H546 H 0.15317 0.52522 0.48453 0.0
H547 H 0.09621 0.53249 0.45484 0.0
H548 H 0.15141 0.51137 0.43945 0.0
H549 H 1.01924 0.47292 0.58177 0.0
H550 H 0.9625 0.4598 0.55581 0.0
H551 H 0.97355 0.49485 0.5578 0.0
C552 C 0.63995 0.54208 0.95891 0.0
C553 C 0.65967 0.56474 0.97652 0.0
C554 C 0.64598 0.51714 0.97451 0.0
C555 C 0.67405 0.51451 1.00814 0.0
C556 C 0.69885 0.53692 0.02434 0.0
C557 C 0.69091 0.56185 1.00854 0.0
C558 C 0.6185 0.4939 0.95627 0.0
C559 C 0.73089 0.53484 0.05949 0.0
C560 C 0.61503 0.46028 0.06711 0.0
C561 C 0.6494 0.43885 0.05842 0.0
C562 C 0.62404 0.48517 0.05201 0.0
C563 C 0.66981 0.48919 0.02842 0.0
C564 C 0.70731 0.46824 0.02168 0.0
C565 C 0.69636 0.44321 0.03645 0.0
C566 C 0.58265 0.50681 0.05986 0.0
C567 C 0.75765 0.47193 0.99768 0.0
H568 H 0.61753 0.54394 0.93348 0.0
H569 H 0.70675 0.57914 0.02228 0.0
H570 H 0.64846 0.47748 0.95334 0.0
H571 H 0.58356 0.48679 0.97342 0.0
H572 H 0.60181 0.49888 0.92897 0.0
H573 H 0.75693 0.55252 0.06447 0.0
H574 H 0.70129 0.53274 0.08246 0.0
H575 H 0.75811 0.51722 0.05936 0.0
H576 H 0.5799 0.45749 0.08519 0.0
H577 H 0.72348 0.42691 0.0297 0.0
H578 H 0.56167 0.51277 0.03428 0.0
H579 H 0.60436 0.52435 0.07076 0.0
H580 H 0.55025 0.5007 0.0797 0.0
H581 H 0.74439 0.47253 0.96881 0.0
H582 H 0.78812 0.45569 1.00093 0.0
H583 H 0.7787 0.49083 1.00382 0.0
C584 C 0.5957 0.04572 0.58026 0.0
C585 C 0.57188 0.06887 0.56635 0.0
C586 C 0.58989 0.02158 0.5623 0.0
C587 C 0.55571 0.01986 0.53105 0.0
C588 C 0.52584 0.04234 0.51946 0.0
C589 C 0.53551 0.0667 0.5365 0.0
C590 C 0.62305 0.9983 0.57574 0.0
C591 C 0.48525 0.0412 0.48818 0.0
C592 C 0.60185 0.97049 0.46002 0.0
C593 C 0.57785 0.947 0.47271 0.0
C594 C 0.59389 0.99438 0.47823 0.0
C595 C 0.55734 0.99553 0.50837 0.0
C596 C 0.52776 0.97264 0.51878 0.0
C597 C 0.53953 0.94855 0.50159 0.0
C598 C 0.62721 0.01805 0.46626 0.0
C599 C 0.48511 0.97305 0.54891 0.0
H600 H 0.62095 0.04645 0.60461 0.0
H601 H 0.51592 0.08406 0.52535 0.0
H602 H 0.59438 0.98297 0.58606 0.0
H603 H 0.64754 0.98958 0.55315 0.0
H604 H 0.65222 1.00367 0.59799 0.0
H605 H 0.45008 0.05499 0.49279 0.0
H606 H 0.50649 0.04742 0.46285 0.0
H607 H 0.46813 0.02116 0.48414 0.0
H608 H 0.62873 0.97025 0.43641 0.0
H609 H 0.51986 0.93091 0.51183 0.0
H610 H 0.6494 0.02686 0.48978 0.0
H611 H 0.59888 0.03318 0.45507 0.0
H612 H 0.65844 0.01309 0.44505 0.0
H613 H 0.50456 0.96603 0.57445 0.0
H614 H 0.45021 0.95947 0.54254 0.0
H615 H 0.46782 0.99298 0.55358 0.0
C616 C 0.19032 0.95103 0.03639 0.0
C617 C 0.15758 0.9473 0.0676 0.0
C618 C 0.19786 0.97625 0.02145 0.0
C619 C 0.17122 0.99814 0.0377 0.0
C620 C 0.14154 0.99471 0.07061 0.0
C621 C 0.13578 0.96947 0.08535 0.0
C622 C 0.2314 0.97917 0.987 0.0
C623 C 0.11214 0.0174 0.08886 0.0
C624 C 0.19312 0.06977 1.01058 0.0
C625 C 0.14733 0.07395 0.98754 0.0
C626 C 0.20362 0.04478 0.02563 0.0
C627 C 0.16692 0.02367 1.01795 0.0
C628 C 0.12227 0.02755 0.99342 0.0
C629 C 0.11362 0.05242 0.97819 0.0
C630 C 0.25267 0.04126 0.05078 0.0
C631 C 0.08181 1.00571 0.98451 0.0
H632 H 0.20765 0.93413 0.02248 0.0
H633 H 0.11205 0.96698 0.11017 0.0
H634 H 0.20278 0.98152 0.96356 0.0
H635 H 0.25811 0.99694 0.98826 0.0
H636 H 0.25815 0.96175 0.9819 0.0
H637 H 0.09479 0.01192 0.11581 0.0
H638 H 0.14104 0.03417 0.09254 0.0
H639 H 0.07741 0.02422 0.07133 0.0
H640 H 0.21965 0.08617 1.01788 0.0
H641 H 0.07937 0.0551 0.95937 0.0
H642 H 0.27509 0.02275 0.04448 0.0
H643 H 0.23773 0.0399 0.07924 0.0
H644 H 0.28243 0.05793 0.04892 0.0
H645 H 0.10449 0.9884 0.97377 0.0
H646 H 0.05013 0.01177 0.96416 0.0
H647 H 0.05989 0.99942 1.0096 0.0
C648 C 0.36578 0.31379 0.52607 0.0
C649 C 0.31803 0.30261 0.51033 0.0
C650 C 0.40976 0.29809 0.53871 0.0
C651 C 0.40595 0.27043 0.53585 0.0
C652 C 0.35739 0.25896 0.52066 0.0
C653 C 0.31419 0.27519 0.50785 0.0
C654 C 0.46107 0.31119 0.55411 0.0
C655 C 0.35147 0.22953 0.51745 0.0
C656 C 0.54081 0.23157 0.5302 0.0
C657 C 0.54687 0.22217 0.56583 0.0
C658 C 0.49541 0.24735 0.52026 0.0
C659 C 0.45438 0.2537 0.54645 0.0
C660 C 0.46033 0.24445 0.5826 0.0
C661 C 0.50682 0.22899 0.59196 0.0
C662 C 0.4913 0.25715 0.48159 0.0
C663 C 0.41722 0.25059 0.61123 0.0
H664 H 0.36954 0.33495 0.52757 0.0
H665 H 0.27721 0.26645 0.49608 0.0
H666 H 0.47025 0.30338 0.5816 0.0
H667 H 0.49757 0.30672 0.53666 0.0
H668 H 0.45647 0.33286 0.556 0.0
H669 H 0.30973 0.22364 0.50727 0.0
H670 H 0.38352 0.22176 0.49857 0.0
H671 H 0.35855 0.22016 0.54428 0.0
H672 H 0.5717 0.22653 0.50986 0.0
H673 H 0.51102 0.22173 0.61949 0.0
H674 H 0.48933 0.27892 0.48133 0.0
H675 H 0.45242 0.24979 0.46886 0.0
H676 H 0.52719 0.2508 0.46467 0.0
H677 H 0.41386 0.27215 0.61497 0.0
H678 H 0.42729 0.24147 0.63786 0.0
H679 H 0.37577 0.24343 0.60226 0.0
C680 C 0.42112 0.72537 0.03326 0.0
C681 C 0.41907 0.71459 0.99823 0.0
C682 C 0.37832 0.74176 0.04614 0.0
C683 C 0.33133 0.74672 0.02387 0.0
C684 C 0.32896 0.73566 0.98849 0.0
C685 C 0.37336 0.72007 0.97588 0.0
C686 C 0.38361 0.75391 0.08343 0.0
C687 C 0.27911 0.7399 0.96419 0.0
C688 C 0.19709 0.77012 0.06942 0.0
C689 C 0.19638 0.79666 0.05955 0.0
C690 C 0.24067 0.75353 0.05789 0.0
C691 C 0.28534 0.76403 0.03718 0.0
C692 C 0.28566 0.79113 0.02858 0.0
C693 C 0.24072 0.80697 0.03929 0.0
C694 C 0.23801 0.72464 0.06684 0.0
C695 C 0.33325 0.80338 1.00777 0.0
H696 H 0.45669 0.7211 0.0504 0.0
H697 H 0.37163 0.71139 0.94899 0.0
H698 H 0.38066 0.77561 0.08138 0.0
H699 H 0.34888 0.74726 0.10104 0.0
H700 H 0.42362 0.74878 0.09682 0.0
H701 H 0.28263 0.72902 0.93811 0.0
H702 H 0.24063 0.73346 0.97834 0.0
H703 H 0.27434 0.76111 0.95809 0.0
H704 H 0.16251 0.76215 0.08483 0.0
H705 H 0.24034 0.82759 0.03192 0.0
H706 H 0.27563 0.71868 0.08225 0.0
H707 H 0.23745 0.713 0.04132 0.0
H708 H 0.20054 0.71955 0.0831 0.0
H709 H 0.37342 0.79883 0.02129 0.0
H710 H 0.32906 0.82505 1.00555 0.0
H711 H 0.33515 0.79501 0.97996 0.0
C712 C 0.3743 0.70385 0.51102 0.0
C713 C 0.32768 0.71533 0.52772 0.0
C714 C 0.4186 0.71922 0.49805 0.0
C715 C 0.41623 0.74688 0.5015 0.0
C716 C 0.36884 0.75867 0.51775 0.0
C717 C 0.32533 0.74274 0.53094 0.0
C718 C 0.4687 0.70577 0.4816 0.0
C719 C 0.36444 0.78811 0.5216 0.0
C720 C 0.55272 0.78464 0.5055 0.0
C721 C 0.55768 0.79438 0.46996 0.0
C722 C 0.50726 0.76904 0.5159 0.0
C723 C 0.46498 0.76323 0.49031 0.0
C724 C 0.46993 0.77273 0.45421 0.0
C725 C 0.51655 0.78797 0.44436 0.0
C726 C 0.50434 0.7589 0.55445 0.0
C727 C 0.42552 0.76718 0.4262 0.0
H728 H 0.37688 0.68267 0.50896 0.0
H729 H 0.28922 0.75172 0.54349 0.0
H730 H 0.47708 0.71367 0.45406 0.0
H731 H 0.50609 0.70979 0.49845 0.0
H732 H 0.4631 0.68416 0.47954 0.0
H733 H 0.32345 0.79432 0.53269 0.0
H734 H 0.39767 0.7954 0.53999 0.0
H735 H 0.37074 0.79766 0.49481 0.0
H736 H 0.58448 0.78933 0.52543 0.0
H737 H 0.5199 0.79545 0.41692 0.0
H738 H 0.50118 0.73716 0.55436 0.0
H739 H 0.46647 0.76659 0.56805 0.0
H740 H 0.54131 0.76466 0.57079 0.0
H741 H 0.42074 0.74568 0.42245 0.0
H742 H 0.43521 0.77621 0.39944 0.0
H743 H 0.38484 0.77485 0.43581 0.0
C744 C 0.23042 0.22383 0.95278 0.0
C745 C 0.17978 0.23738 0.94941 0.0
C746 C 0.27711 0.23572 0.96896 0.0
C747 C 0.27314 0.26178 0.98224 0.0
C748 C 0.22231 0.27564 0.97866 0.0
C749 C 0.17635 0.26331 0.96223 0.0
C750 C 0.33068 0.22034 0.97197 0.0
C751 C 0.21633 0.30344 0.99246 0.0
C752 C 0.37973 0.28419 0.05261 0.0
C753 C 0.41804 0.29799 0.03104 0.0
C754 C 0.33208 0.27253 0.0372 0.0
C755 C 0.32248 0.2747 0.99931 0.0
C756 C 0.36043 0.289 0.97753 0.0
C757 C 0.4075 0.3005 0.99365 0.0
C758 C 0.2925 0.25751 0.06137 0.0
C759 C 0.35166 0.2919 0.93707 0.0
H760 H 0.23356 0.20381 0.94295 0.0
H761 H 0.13741 0.27394 0.95992 0.0
H762 H 0.36464 0.23086 0.9576 0.0
H763 H 0.34314 0.21867 1.00091 0.0
H764 H 0.32695 0.20028 0.96034 0.0
H765 H 0.17396 0.31149 0.98769 0.0
H766 H 0.22521 0.30413 0.02204 0.0
H767 H 0.24712 0.31637 0.97886 0.0
H768 H 0.38768 0.28192 0.08141 0.0
H769 H 0.43616 0.31153 0.97683 0.0
H770 H 0.29096 0.23664 0.05275 0.0
H771 H 0.24973 0.26553 0.05866 0.0
H772 H 0.30488 0.25834 0.09044 0.0
H773 H 0.35103 0.27225 0.92401 0.0
H774 H 0.38473 0.3039 0.92402 0.0
H775 H 0.31075 0.30123 0.93166 0.0
C776 C 0.05047 0.73241 0.52388 0.0
C777 C 0.05486 0.72309 0.55966 0.0
C778 C 1.00562 0.7482 0.51297 0.0
C779 C 0.96332 0.7546 0.53826 0.0
C780 C 0.96752 0.74537 0.57455 0.0
C781 C 1.01359 0.72993 0.58493 0.0
C782 C 1.00353 0.75801 0.47424 0.0
C783 C 0.92298 0.75149 0.60223 0.0
C784 C 0.87607 0.81492 0.51663 0.0
C785 C 0.82889 0.80391 0.49998 0.0
C786 C 0.91947 0.7991 0.52981 0.0
C787 C 0.9156 0.77146 0.52664 0.0
C788 C 0.86771 0.76015 0.51031 0.0
C789 C 0.82513 0.77653 0.49689 0.0
C790 C 0.97016 0.81204 0.5463 0.0
C791 C 0.8617 0.73075 0.50675 0.0
H792 H 0.08235 0.72734 0.50422 0.0
H793 H 1.01644 0.72265 0.61252 0.0
H794 H 0.96526 0.75072 0.46067 0.0
H795 H 1.00172 0.77979 0.47395 0.0
H796 H 0.04021 0.75162 0.45808 0.0
H797 H 0.93154 0.74225 0.629 0.0
H798 H 0.91968 0.77304 0.60606 0.0
H799 H 0.88195 0.74448 0.59226 0.0
H800 H 0.87968 0.83607 0.51862 0.0
H801 H 0.78855 0.76793 0.48439 0.0
H802 H 1.00754 0.80732 0.52979 0.0
H803 H 0.9776 0.80433 0.57406 0.0
H804 H 0.96591 0.83374 0.54788 0.0
H805 H 0.8948 0.72295 0.48868 0.0
H806 H 0.82055 0.72499 0.49545 0.0
H807 H 0.86703 0.72129 0.53369 0.0
C808 C 0.67601 0.24932 0.08153 0.0
C809 C 0.67957 0.27512 0.09483 0.0
C810 C 0.72205 0.23705 0.06513 0.0
C811 C 0.77308 0.25083 0.06207 0.0
C812 C 0.77718 0.27675 0.07588 0.0
C813 C 0.73041 0.28859 0.09202 0.0
C814 C 0.71594 0.2094 0.0508 0.0
C815 C 0.83096 0.29204 0.07345 0.0
C816 C 0.90716 0.21197 0.05048 0.0
C817 C 0.91801 0.21477 1.01316 0.0
C818 C 0.86007 0.22342 0.06662 0.0
C819 C 0.82246 0.23799 0.04496 0.0
C820 C 0.83242 0.24047 1.00714 0.0
C821 C 0.88004 0.22883 0.99169 0.0
C822 C 0.8509 0.22015 0.10699 0.0
C823 C 0.79323 0.25581 0.9831 0.0
H824 H 0.63692 0.23876 0.08342 0.0
H825 H 0.73367 0.30849 0.10226 0.0
H826 H 0.72505 0.20898 0.02124 0.0
H827 H 0.74651 0.19628 0.06427 0.0
H828 H 0.67346 0.20137 0.05528 0.0
H829 H 0.82733 0.31198 0.0855 0.0
H830 H 0.86465 0.28129 0.08774 0.0
H831 H 0.84374 0.29402 0.0446 0.0
H832 H 0.93559 0.20075 0.0672 0.0
H833 H 0.88825 0.23132 0.96295 0.0
H834 H 0.80983 0.21086 0.11207 0.0
H835 H 0.85038 0.23967 0.12041 0.0
H836 H 0.88371 0.20795 0.11994 0.0
H837 H 0.75037 0.24784 0.98545 0.0
H838 H 0.80593 0.25527 0.95407 0.0
H839 H 0.7918 0.2766 0.99213 0.0
C840 C 0.04141 0.28259 0.51396 0.0
C841 C 0.04715 0.29241 0.47852 0.0
C842 C 0.99577 0.26692 0.52383 0.0
C843 C 0.95416 0.2611 0.49778 0.0
C844 C 0.95978 0.27079 0.46182 0.0
C845 C 1.00648 0.28616 0.45253 0.0
C846 C 0.99206 0.25665 0.56228 0.0
C847 C 0.91608 0.26524 0.43334 0.0
C848 C 0.86473 0.20111 0.51742 0.0
C849 C 0.81751 0.21226 0.53384 0.0
C850 C 0.90875 0.2168 0.50477 0.0
C851 C 0.90554 0.24443 0.50832 0.0
C852 C 0.8575 0.25589 0.52419 0.0
C853 C 0.81424 0.23966 0.537 0.0
C854 C 0.9595 0.2037 0.48861 0.0
C855 C 0.85221 0.28529 0.52816 0.0
H856 H 0.07277 0.28719 0.53419 0.0
H857 H 1.01039 0.29378 0.42516 0.0
H858 H 0.95352 0.26398 0.57545 0.0
H859 H 0.98968 0.23488 0.56201 0.0
H860 H 0.02833 0.26263 0.57912 0.0
H861 H 0.92673 0.27405 0.40661 0.0
H862 H 0.91092 0.24374 0.42979 0.0
H863 H 0.8753 0.27318 0.44236 0.0
H864 H 0.86806 0.17995 0.51537 0.0
H865 H 0.77766 0.2484 0.54929 0.0
H866 H 0.99642 0.20779 0.50587 0.0
H867 H 0.96831 0.21184 0.46125 0.0
H868 H 0.95442 0.18208 0.48621 0.0
H869 H 0.88473 0.2927 0.54698 0.0
H870 H 0.81076 0.29122 0.53879 0.0
H871 H 0.859 0.29497 0.50151 0.0
C872 C 0.73266 0.72453 0.94408 0.0
C873 C 0.6913 0.719 0.9699 0.0
C874 C 0.77906 0.74024 0.95307 0.0
C875 C 0.78362 0.75104 0.98851 0.0
C876 C 0.74108 0.74612 1.01426 0.0
C877 C 0.69583 0.73008 1.00474 0.0
C878 C 0.82374 0.74482 0.92491 0.0
C879 C 0.74354 0.75762 0.05211 0.0
C880 C 0.92249 0.77255 0.02933 0.0
C881 C 0.92032 0.79988 0.02486 0.0
C882 C 0.87934 0.7563 1.01635 0.0
C883 C 0.83244 0.76766 0.99898 0.0
C884 C 0.83039 0.79521 0.99405 0.0
C885 C 0.87435 0.81092 1.00687 0.0
C886 C 0.88346 0.72699 0.02181 0.0
C887 C 0.78085 0.80824 0.97633 0.0
H888 H 0.72972 0.71598 0.91721 0.0
H889 H 0.66389 0.72609 0.02483 0.0
H890 H 0.82915 0.76618 0.92018 0.0
H891 H 0.86415 0.73715 0.93498 0.0
H892 H 0.81394 0.73516 0.89857 0.0
H893 H 0.70628 0.75254 0.06858 0.0
H894 H 0.78113 0.75033 0.06644 0.0
H895 H 0.74695 0.77933 0.05062 0.0
H896 H 0.95811 0.76388 0.04282 0.0
H897 H 0.87187 0.83203 1.00376 0.0
H898 H 0.87722 0.71664 0.99556 0.0
H899 H 0.85007 0.72033 0.04051 0.0
H900 H 0.92433 0.72104 0.03333 0.0
H901 H 0.77266 0.79932 0.94933 0.0
H902 H 0.78696 0.82971 0.97276 0.0
H903 H 0.74315 0.80504 0.99322 0.0
loop_
_geom_bond_atom_site_label_1
_geom_bond_atom_site_label_2
_geom_bond_distance
_geom_bond_site_symmetry_2
_ccdc_geom_bond_type
C0 C1 1.351 . S
C0 N3 1.368 . S
C0 H5 0.931 . S
C1 C0 1.351 . S
C1 N2 1.373 . S
C1 H29 0.930 . S
N2 C1 1.373 . S
N2 C4 1.340 . S
N3 C0 1.368 . S
N3 C4 1.321 . S
N3 Co6 2.135 . S
C4 N2 1.340 . S
C4 N3 1.321 . S
C4 H28 0.930 . S
H5 C0 0.931 . S
Co6 N3 2.135 . S
Co6 N9 2.121 . S
Co6 O14 2.055 . S
Co6 O17 2.039 . S
Co6 N20 2.140 . S
C7 O8 1.227 . S
C7 O17 1.265 . S
O8 C7 1.227 . S
N9 Co6 2.121 . S
N9 C11 1.375 . S
N9 C12 1.313 . S
C10 C11 1.338 . S
C10 N13 1.377 . S
C10 H30 0.930 . S
C11 N9 1.375 . S
C11 C10 1.338 . S
C11 H15 0.931 . S
C12 N9 1.313 . S
C12 N13 1.344 . S
C12 H16 0.930 . S
N13 C10 1.377 . S
N13 C12 1.344 . S
O14 Co6 2.055 . S
O14 C18 1.253 . S
H15 C11 0.931 . S
H16 C12 0.930 . S
O17 Co6 2.039 . S
O17 C7 1.265 . S
C18 O14 1.253 . S
C18 O19 1.227 . S
O19 C18 1.227 . S
N20 Co6 2.140 . S
N20 C23 1.346 . S
N20 C24 1.345 . S
C21 C22 1.387 . S
C21 C25 1.391 . S
C22 C21 1.387 . S
C22 C23 1.369 . S
C22 H31 0.929 . S
C23 N20 1.346 . S
C23 C22 1.369 . S
C23 H26 0.928 . S
C24 N20 1.345 . S
C24 C25 1.371 . S
C24 H27 0.931 . S
C25 C21 1.391 . S
C25 C24 1.371 . S
C25 H32 0.930 . S
H26 C23 0.928 . S
H27 C24 0.931 . S
H28 C4 0.930 . S
H29 C1 0.930 . S
H30 C10 0.930 . S
H31 C22 0.929 . S
H32 C25 0.930 . S
C33 C34 1.351 . S
C33 N36 1.368 . S
C33 H38 0.931 . S
C34 C33 1.351 . S
C34 N35 1.373 . S
C34 H62 0.930 . S
N35 C34 1.373 . S
N35 C37 1.340 . S
N36 C33 1.368 . S
N36 C37 1.321 . S
N36 Co39 2.135 . S
C37 N35 1.340 . S
C37 N36 1.321 . S
C37 H61 0.930 . S
H38 C33 0.931 . S
Co39 N36 2.135 . S
Co39 N42 2.121 . S
Co39 O47 2.055 . S
Co39 O50 2.039 . S
Co39 N53 2.140 . S
C40 O41 1.227 . S
C40 O50 1.265 . S
O41 C40 1.227 . S
N42 Co39 2.121 . S
N42 C44 1.375 . S
N42 C45 1.313 . S
C43 C44 1.338 . S
C43 N46 1.377 . S
C43 H63 0.930 1_556 S
C44 N42 1.375 . S
C44 C43 1.338 . S
C44 H48 0.931 . S
C45 N42 1.313 . S
C45 N46 1.344 . S
C45 H49 0.930 . S
N46 C43 1.377 . S
N46 C45 1.344 . S
O47 Co39 2.055 . S
O47 C51 1.253 . S
H48 C44 0.931 . S
H49 C45 0.930 . S
O50 Co39 2.039 . S
O50 C40 1.265 . S
C51 O47 1.253 . S
C51 O52 1.227 . S
O52 C51 1.227 . S
N53 Co39 2.140 . S
N53 C56 1.346 . S
N53 C57 1.345 . S
C54 C55 1.387 . S
C54 C58 1.391 . S
C55 C54 1.387 . S
C55 C56 1.369 . S
C55 H64 0.929 . S
C56 N53 1.346 . S
C56 C55 1.369 . S
C56 H59 0.928 . S
C57 N53 1.345 . S
C57 C58 1.371 . S
C57 H60 0.931 . S
C58 C54 1.391 . S
C58 C57 1.371 . S
C58 H65 0.930 . S
H59 C56 0.928 . S
H60 C57 0.931 . S
H61 C37 0.930 . S
H62 C34 0.930 . S
H63 C43 0.930 1_554 S
H64 C55 0.929 . S
H65 C58 0.930 . S
C66 C67 1.351 . S
C66 N69 1.368 . S
C66 H71 0.931 . S
C67 C66 1.351 . S
C67 N68 1.373 . S
C67 H95 0.930 . S
N68 C67 1.373 . S
N68 C70 1.340 . S
N69 C66 1.368 . S
N69 C70 1.321 . S
N69 Co72 2.135 . S
C70 N68 1.340 . S
C70 N69 1.321 . S
C70 H94 0.930 . S
H71 C66 0.931 . S
Co72 N69 2.135 . S
Co72 N75 2.121 . S
Co72 O80 2.055 . S
Co72 O83 2.039 . S
Co72 N86 2.140 . S
C73 O74 1.227 . S
C73 O83 1.265 . S
O74 C73 1.227 . S
N75 Co72 2.121 . S
N75 C77 1.375 . S
N75 C78 1.313 . S
C76 C77 1.338 . S
C76 N79 1.377 . S
C76 H96 0.930 . S
C77 N75 1.375 . S
C77 C76 1.338 . S
C77 H81 0.931 . S
C78 N75 1.313 . S
C78 N79 1.344 . S
C78 H82 0.930 . S
N79 C76 1.377 . S
N79 C78 1.344 . S
O80 Co72 2.055 . S
O80 C84 1.253 . S
H81 C77 0.931 . S
H82 C78 0.930 . S
O83 Co72 2.039 . S
O83 C73 1.265 . S
C84 O80 1.253 . S
C84 O85 1.227 . S
O85 C84 1.227 . S
N86 Co72 2.140 . S
N86 C89 1.346 . S
N86 C90 1.345 . S
C87 C88 1.387 . S
C87 C91 1.391 . S
C88 C87 1.387 . S
C88 C89 1.369 . S
C88 H97 0.929 . S
C89 N86 1.346 . S
C89 C88 1.369 . S
C89 H92 0.928 . S
C90 N86 1.345 . S
C90 C91 1.371 . S
C90 H93 0.931 . S
C91 C87 1.391 . S
C91 C90 1.371 . S
C91 H98 0.930 . S
H92 C89 0.928 . S
H93 C90 0.931 . S
H94 C70 0.930 . S
H95 C67 0.930 . S
H96 C76 0.930 . S
H97 C88 0.929 . S
H98 C91 0.930 . S
C99 C100 1.351 . S
C99 N102 1.368 . S
C99 H104 0.931 . S
C100 C99 1.351 . S
C100 N101 1.373 . S
C100 H128 0.930 . S
N101 C100 1.373 . S
N101 C103 1.340 . S
N102 C99 1.368 . S
N102 C103 1.321 . S
N102 Co105 2.135 . S
C103 N101 1.340 . S
C103 N102 1.321 . S
C103 H127 0.930 . S
H104 C99 0.931 . S
Co105 N102 2.135 . S
Co105 N108 2.121 . S
Co105 O113 2.055 . S
Co105 O116 2.039 . S
Co105 N119 2.140 . S
C106 O107 1.227 . S
C106 O116 1.265 . S
O107 C106 1.227 . S
N108 Co105 2.121 . S
N108 C110 1.375 . S
N108 C111 1.313 . S
C109 C110 1.338 . S
C109 N112 1.377 . S
C109 H129 0.930 1_554 S
C110 N108 1.375 . S
C110 C109 1.338 . S
C110 H114 0.931 . S
C111 N108 1.313 . S
C111 N112 1.344 . S
C111 H115 0.930 . S
N112 C109 1.377 . S
N112 C111 1.344 . S
O113 Co105 2.055 . S
O113 C117 1.253 . S
H114 C110 0.931 . S
H115 C111 0.930 . S
O116 Co105 2.039 . S
O116 C106 1.265 . S
C117 O113 1.253 . S
C117 O118 1.227 . S
O118 C117 1.227 . S
N119 Co105 2.140 . S
N119 C122 1.346 . S
N119 C123 1.345 . S
C120 C121 1.387 . S
C120 C124 1.391 . S
C121 C120 1.387 . S
C121 C122 1.369 . S
C121 H130 0.929 . S
C122 N119 1.346 . S
C122 C121 1.369 . S
C122 H125 0.928 . S
C123 N119 1.345 . S
C123 C124 1.371 . S
C123 H126 0.931 . S
C124 C120 1.391 . S
C124 C123 1.371 . S
C124 H131 0.930 . S
H125 C122 0.928 . S
H126 C123 0.931 . S
H127 C103 0.930 . S
H128 C100 0.930 . S
H129 C109 0.930 1_556 S
H130 C121 0.929 . S
H131 C124 0.930 . S
C132 C133 1.351 . S
C132 N135 1.368 . S
C132 H137 0.931 . S
C133 C132 1.351 . S
C133 N134 1.373 . S
C133 H161 0.930 . S
N134 C133 1.373 . S
N134 C136 1.340 . S
N135 C132 1.368 . S
N135 C136 1.321 . S
N135 Co138 2.135 . S
C136 N134 1.340 . S
C136 N135 1.321 . S
C136 H160 0.930 . S
H137 C132 0.931 . S
Co138 N135 2.135 . S
Co138 N141 2.121 . S
Co138 O146 2.055 . S
Co138 O149 2.039 . S
Co138 N152 2.140 . S
C139 O140 1.227 . S
C139 O149 1.265 . S
O140 C139 1.227 . S
N141 Co138 2.121 . S
N141 C143 1.375 . S
N141 C144 1.313 . S
C142 C143 1.338 . S
C142 N145 1.377 . S
C142 H162 0.930 . S
C143 N141 1.375 . S
C143 C142 1.338 . S
C143 H147 0.931 . S
C144 N141 1.313 . S
C144 N145 1.344 . S
C144 H148 0.930 . S
N145 C142 1.377 . S
N145 C144 1.344 . S
O146 Co138 2.055 . S
O146 C150 1.253 . S
H147 C143 0.931 . S
H148 C144 0.930 . S
O149 Co138 2.039 . S
O149 C139 1.265 . S
C150 O146 1.253 . S
C150 O151 1.227 . S
O151 C150 1.227 . S
N152 Co138 2.140 . S
N152 C155 1.346 . S
N152 C156 1.345 . S
C153 C154 1.387 . S
C153 C157 1.391 . S
C154 C153 1.387 . S
C154 C155 1.369 . S
C154 H163 0.929 . S
C155 N152 1.346 . S
C155 C154 1.369 . S
C155 H158 0.928 . S
C156 N152 1.345 . S
C156 C157 1.371 . S
C156 H159 0.931 . S
C157 C153 1.391 . S
C157 C156 1.371 . S
C157 H164 0.930 . S
H158 C155 0.928 . S
H159 C156 0.931 . S
H160 C136 0.930 . S
H161 C133 0.930 . S
H162 C142 0.930 . S
H163 C154 0.929 . S
H164 C157 0.930 . S
C165 C166 1.351 . S
C165 N168 1.368 . S
C165 H170 0.931 . S
C166 C165 1.351 . S
C166 N167 1.373 . S
C166 H194 0.930 . S
N167 C166 1.373 . S
N167 C169 1.340 . S
N168 C165 1.368 . S
N168 C169 1.321 . S
N168 Co171 2.135 . S
C169 N167 1.340 . S
C169 N168 1.321 . S
C169 H193 0.930 . S
H170 C165 0.931 . S
Co171 N168 2.135 . S
Co171 N174 2.133 . S
Co171 O179 2.055 . S
Co171 O182 2.039 . S
Co171 N185 2.140 . S
C172 O173 1.227 . S
C172 O182 1.265 . S
O173 C172 1.227 . S
N174 Co171 2.133 . S
N174 C176 1.380 . S
N174 C177 1.294 1_455 S
C175 C176 1.338 1_655 S
C175 N178 1.377 . S
C175 H195 0.930 1_556 S
C176 N174 1.380 . S
C176 C175 1.338 1_455 S
C176 H180 0.931 . S
C177 N174 1.294 1_655 S
C177 N178 1.344 . S
C177 H181 0.930 . S
N178 C175 1.377 . S
N178 C177 1.344 . S
O179 Co171 2.055 . S
O179 C183 1.253 1_455 S
H180 C176 0.931 . S
H181 C177 0.930 . S
O182 Co171 2.039 . S
O182 C172 1.265 . S
C183 O179 1.253 1_655 S
C183 O184 1.227 . S
O184 C183 1.227 . S
N185 Co171 2.140 . S
N185 C188 1.346 . S
N185 C189 1.345 . S
C186 C187 1.387 . S
C186 C190 1.391 . S
C187 C186 1.387 . S
C187 C188 1.369 . S
C187 H196 0.929 . S
C188 N185 1.346 . S
C188 C187 1.369 . S
C188 H191 0.928 . S
C189 N185 1.345 . S
C189 C190 1.371 . S
C189 H192 0.931 1_455 S
C190 C186 1.391 . S
C190 C189 1.371 . S
C190 H197 0.930 1_455 S
H191 C188 0.928 . S
H192 C189 0.931 1_655 S
H193 C169 0.930 . S
H194 C166 0.930 . S
H195 C175 0.930 1_554 S
H196 C187 0.929 . S
H197 C190 0.930 1_655 S
C198 C199 1.351 . S
C198 N201 1.368 . S
C198 H203 0.931 . S
C199 C198 1.351 . S
C199 N200 1.373 . S
C199 H227 0.930 . S
N200 C199 1.373 . S
N200 C202 1.340 . S
N201 C198 1.368 . S
N201 C202 1.321 . S
N201 Co204 2.135 . S
C202 N200 1.340 . S
C202 N201 1.321 . S
C202 H226 0.930 . S
H203 C198 0.931 . S
Co204 N201 2.135 . S
Co204 N207 2.121 . S
Co204 O212 2.055 . S
Co204 O215 2.039 . S
Co204 N218 2.140 . S
C205 O206 1.227 . S
C205 O215 1.265 . S
O206 C205 1.227 . S
N207 Co204 2.121 . S
N207 C209 1.375 . S
N207 C210 1.313 . S
C208 C209 1.338 . S
C208 N211 1.377 . S
C208 H228 0.930 . S
C209 N207 1.375 . S
C209 C208 1.338 . S
C209 H213 0.931 . S
C210 N207 1.313 . S
C210 N211 1.344 . S
C210 H214 0.930 . S
N211 C208 1.377 . S
N211 C210 1.344 . S
O212 Co204 2.055 . S
O212 C216 1.253 . S
H213 C209 0.931 . S
H214 C210 0.930 . S
O215 Co204 2.039 . S
O215 C205 1.265 . S
C216 O212 1.253 . S
C216 O217 1.227 . S
O217 C216 1.227 . S
N218 Co204 2.140 . S
N218 C221 1.346 . S
N218 C222 1.345 . S
C219 C220 1.387 . S
C219 C223 1.391 . S
C220 C219 1.387 . S
C220 C221 1.369 . S
C220 H229 0.929 . S
C221 N218 1.346 . S
C221 C220 1.369 . S
C221 H224 0.928 . S
C222 N218 1.345 . S
C222 C223 1.371 . S
C222 H225 0.931 . S
C223 C219 1.391 . S
C223 C222 1.371 . S
C223 H230 0.930 . S
H224 C221 0.928 . S
H225 C222 0.931 . S
H226 C202 0.930 . S
H227 C199 0.930 . S
H228 C208 0.930 . S
H229 C220 0.929 . S
H230 C223 0.930 . S
C231 C232 1.351 . S
C231 N234 1.368 . S
C231 H236 0.931 . S
C232 C231 1.351 . S
C232 N233 1.373 . S
C232 H260 0.930 . S
N233 C232 1.373 . S
N233 C235 1.340 . S
N234 C231 1.368 . S
N234 C235 1.321 . S
N234 Co237 2.135 . S
C235 N233 1.340 . S
C235 N234 1.321 . S
C235 H259 0.930 . S
H236 C231 0.931 . S
Co237 N234 2.135 . S
Co237 N240 2.133 . S
Co237 O245 2.055 . S
Co237 O248 2.039 . S
Co237 N251 2.140 . S
C238 O239 1.227 . S
C238 O248 1.265 . S
O239 C238 1.227 . S
N240 Co237 2.133 . S
N240 C242 1.380 . S
N240 C243 1.294 1_455 S
C241 C242 1.338 1_655 S
C241 N244 1.377 . S
C241 H261 0.930 1_554 S
C242 N240 1.380 . S
C242 C241 1.338 1_455 S
C242 H246 0.931 . S
C243 N240 1.294 1_655 S
C243 N244 1.344 . S
C243 H247 0.930 . S
N244 C241 1.377 . S
N244 C243 1.344 . S
O245 Co237 2.055 . S
O245 C249 1.253 1_455 S
H246 C242 0.931 . S
H247 C243 0.930 . S
O248 Co237 2.039 . S
O248 C238 1.265 . S
C249 O245 1.253 1_655 S
C249 O250 1.227 . S
O250 C249 1.227 . S
N251 Co237 2.140 . S
N251 C254 1.346 . S
N251 C255 1.345 . S
C252 C253 1.387 . S
C252 C256 1.391 . S
C253 C252 1.387 . S
C253 C254 1.369 . S
C253 H262 0.929 . S
C254 N251 1.346 . S
C254 C253 1.369 . S
C254 H257 0.928 . S
C255 N251 1.345 . S
C255 C256 1.371 . S
C255 H258 0.931 1_455 S
C256 C252 1.391 . S
C256 C255 1.371 . S
C256 H263 0.930 1_455 S
H257 C254 0.928 . S
H258 C255 0.931 1_655 S
H259 C235 0.930 . S
H260 C232 0.930 . S
H261 C241 0.930 1_556 S
H262 C253 0.929 . S
H263 C256 0.930 1_655 S
C264 C265 1.391 . S
C264 C266 1.394 . S
C264 H280 0.931 . S
C265 C264 1.391 . S
C265 C269 1.376 . S
C266 C264 1.394 . S
C266 C267 1.369 . S
C266 C270 1.531 . S
C267 C266 1.369 . S
C267 C268 1.410 . S
C267 C275 1.503 . S
C268 C267 1.410 . S
C268 C269 1.392 . S
C268 C271 1.511 . S
C269 C265 1.376 . S
C269 C268 1.392 . S
C269 H281 0.929 . S
C270 C266 1.531 . S
C270 H282 0.960 . S
C270 H283 0.962 . S
C270 H284 0.960 . S
C271 C268 1.511 . S
C271 H285 0.961 . S
C271 H286 0.961 . S
C271 H287 0.961 . S
C272 C273 1.370 . S
C272 C274 1.363 . S
C272 H288 0.931 . S
C273 C272 1.370 . S
C273 C277 1.408 . S
C274 C272 1.363 . S
C274 C275 1.370 . S
C274 C278 1.524 . S
C275 C267 1.503 . S
C275 C274 1.370 . S
C275 C276 1.403 . S
C276 C275 1.403 . S
C276 C277 1.404 . S
C276 C279 1.539 . S
C277 C273 1.408 . S
C277 C276 1.404 . S
C277 H289 0.930 . S
C278 C274 1.524 . S
C278 H290 0.956 . S
C278 H291 0.961 . S
C278 H292 0.961 . S
C279 C276 1.539 . S
C279 H293 0.958 . S
C279 H294 0.961 . S
C279 H295 0.960 . S
H280 C264 0.931 . S
H281 C269 0.929 . S
H282 C270 0.960 . S
H283 C270 0.962 . S
H284 C270 0.960 . S
H285 C271 0.961 . S
H286 C271 0.961 . S
H287 C271 0.961 . S
H288 C272 0.931 . S
H289 C277 0.930 . S
H290 C278 0.956 . S
H291 C278 0.961 . S
H292 C278 0.961 . S
H293 C279 0.958 . S
H294 C279 0.961 . S
H295 C279 0.960 . S
C296 C297 1.391 . S
C296 C298 1.394 . S
C296 H312 0.931 . S
C297 C296 1.391 . S
C297 C301 1.376 . S
C298 C296 1.394 . S
C298 C299 1.369 . S
C298 C302 1.531 . S
C299 C298 1.369 . S
C299 C300 1.410 . S
C299 C307 1.503 . S
C300 C299 1.410 . S
C300 C301 1.392 . S
C300 C303 1.511 . S
C301 C297 1.376 . S
C301 C300 1.392 . S
C301 H313 0.929 . S
C302 C298 1.531 . S
C302 H314 0.960 . S
C302 H315 0.962 . S
C302 H316 0.960 . S
C303 C300 1.511 . S
C303 H317 0.961 . S
C303 H318 0.961 . S
C303 H319 0.961 . S
C304 C305 1.370 . S
C304 C306 1.363 . S
C304 H320 0.931 . S
C305 C304 1.370 . S
C305 C309 1.408 . S
C306 C304 1.363 . S
C306 C307 1.370 . S
C306 C310 1.524 . S
C307 C299 1.503 . S
C307 C306 1.370 . S
C307 C308 1.403 . S
C308 C307 1.403 . S
C308 C309 1.404 . S
C308 C311 1.539 . S
C309 C305 1.408 . S
C309 C308 1.404 . S
C309 H321 0.930 . S
C310 C306 1.524 . S
C310 H322 0.956 . S
C310 H323 0.961 . S
C310 H324 0.961 . S
C311 C308 1.539 . S
C311 H325 0.958 . S
C311 H326 0.961 . S
C311 H327 0.960 . S
H312 C296 0.931 . S
H313 C301 0.929 . S
H314 C302 0.960 . S
H315 C302 0.962 . S
H316 C302 0.960 . S
H317 C303 0.961 . S
H318 C303 0.961 . S
H319 C303 0.961 . S
H320 C304 0.931 . S
H321 C309 0.930 . S
H322 C310 0.956 . S
H323 C310 0.961 . S
H324 C310 0.961 . S
H325 C311 0.958 . S
H326 C311 0.961 . S
H327 C311 0.960 . S
C328 C329 1.391 . S
C328 C330 1.394 . S
C328 H344 0.931 . S
C329 C328 1.391 . S
C329 C333 1.376 . S
C330 C328 1.394 . S
C330 C331 1.369 . S
C330 C334 1.531 . S
C331 C330 1.369 . S
C331 C332 1.410 . S
C331 C339 1.503 . S
C332 C331 1.410 . S
C332 C333 1.392 . S
C332 C335 1.511 . S
C333 C329 1.376 . S
C333 C332 1.392 . S
C333 H345 0.929 . S
C334 C330 1.531 . S
C334 H346 0.960 . S
C334 H347 0.962 . S
C334 H348 0.960 . S
C335 C332 1.511 . S
C335 H349 0.961 . S
C335 H350 0.961 . S
C335 H351 0.961 . S
C336 C337 1.370 . S
C336 C338 1.363 . S
C336 H352 0.931 . S
C337 C336 1.370 . S
C337 C341 1.408 . S
C338 C336 1.363 . S
C338 C339 1.370 . S
C338 C342 1.524 . S
C339 C331 1.503 . S
C339 C338 1.370 . S
C339 C340 1.403 . S
C340 C339 1.403 . S
C340 C341 1.404 . S
C340 C343 1.539 . S
C341 C337 1.408 . S
C341 C340 1.404 . S
C341 H353 0.930 . S
C342 C338 1.524 . S
C342 H354 0.956 . S
C342 H355 0.961 . S
C342 H356 0.961 . S
C343 C340 1.539 . S
C343 H357 0.958 . S
C343 H358 0.961 . S
C343 H359 0.960 . S
H344 C328 0.931 . S
H345 C333 0.929 . S
H346 C334 0.960 . S
H347 C334 0.962 . S
H348 C334 0.960 . S
H349 C335 0.961 . S
H350 C335 0.961 . S
H351 C335 0.961 . S
H352 C336 0.931 . S
H353 C341 0.930 . S
H354 C342 0.956 . S
H355 C342 0.961 . S
H356 C342 0.961 . S
H357 C343 0.958 . S
H358 C343 0.961 . S
H359 C343 0.960 . S
C360 C361 1.391 . S
C360 C362 1.394 . S
C360 H376 0.931 . S
C361 C360 1.391 . S
C361 C365 1.376 . S
C362 C360 1.394 . S
C362 C363 1.369 . S
C362 C366 1.531 . S
C363 C362 1.369 . S
C363 C364 1.410 . S
C363 C371 1.503 . S
C364 C363 1.410 . S
C364 C365 1.392 . S
C364 C367 1.511 . S
C365 C361 1.376 . S
C365 C364 1.392 . S
C365 H377 0.929 . S
C366 C362 1.531 . S
C366 H378 0.960 . S
C366 H379 0.962 . S
C366 H380 0.960 . S
C367 C364 1.511 . S
C367 H381 0.961 . S
C367 H382 0.961 . S
C367 H383 0.961 . S
C368 C369 1.370 . S
C368 C370 1.363 . S
C368 H384 0.931 . S
C369 C368 1.370 . S
C369 C373 1.408 . S
C370 C368 1.363 . S
C370 C371 1.370 . S
C370 C374 1.524 . S
C371 C363 1.503 . S
C371 C370 1.370 . S
C371 C372 1.403 . S
C372 C371 1.403 . S
C372 C373 1.404 . S
C372 C375 1.539 . S
C373 C369 1.408 . S
C373 C372 1.404 . S
C373 H385 0.930 . S
C374 C370 1.524 . S
C374 H386 0.956 . S
C374 H387 0.961 . S
C374 H388 0.961 . S
C375 C372 1.539 . S
C375 H389 0.958 . S
C375 H390 0.961 . S
C375 H391 0.960 . S
H376 C360 0.931 . S
H377 C365 0.929 . S
H378 C366 0.960 . S
H379 C366 0.962 . S
H380 C366 0.960 . S
H381 C367 0.961 . S
H382 C367 0.961 . S
H383 C367 0.961 . S
H384 C368 0.931 . S
H385 C373 0.930 . S
H386 C374 0.956 . S
H387 C374 0.961 . S
H388 C374 0.961 . S
H389 C375 0.958 . S
H390 C375 0.961 . S
H391 C375 0.960 . S
C392 C393 1.391 . S
C392 C394 1.394 . S
C392 H408 0.931 . S
C393 C392 1.391 . S
C393 C397 1.376 . S
C394 C392 1.394 . S
C394 C395 1.369 . S
C394 C398 1.531 . S
C395 C394 1.369 . S
C395 C396 1.410 . S
C395 C403 1.503 . S
C396 C395 1.410 . S
C396 C397 1.392 . S
C396 C399 1.511 . S
C397 C393 1.376 . S
C397 C396 1.392 . S
C397 H409 0.929 . S
C398 C394 1.531 . S
C398 H410 0.960 . S
C398 H411 0.962 . S
C398 H412 0.960 . S
C399 C396 1.511 . S
C399 H413 0.961 . S
C399 H414 0.961 . S
C399 H415 0.961 . S
C400 C401 1.370 . S
C400 C402 1.363 . S
C400 H416 0.931 . S
C401 C400 1.370 . S
C401 C405 1.408 . S
C402 C400 1.363 . S
C402 C403 1.370 . S
C402 C406 1.524 . S
C403 C395 1.503 . S
C403 C402 1.370 . S
C403 C404 1.403 . S
C404 C403 1.403 . S
C404 C405 1.404 . S
C404 C407 1.539 . S
C405 C401 1.408 . S
C405 C404 1.404 . S
C405 H417 0.930 . S
C406 C402 1.524 . S
C406 H418 0.956 . S
C406 H419 0.961 . S
C406 H420 0.961 . S
C407 C404 1.539 . S
C407 H421 0.958 . S
C407 H422 0.961 . S
C407 H423 0.960 . S
H408 C392 0.931 . S
H409 C397 0.929 . S
H410 C398 0.960 . S
H411 C398 0.962 . S
H412 C398 0.960 . S
H413 C399 0.961 . S
H414 C399 0.961 . S
H415 C399 0.961 . S
H416 C400 0.931 . S
H417 C405 0.930 . S
H418 C406 0.956 . S
H419 C406 0.961 . S
H420 C406 0.961 . S
H421 C407 0.958 . S
H422 C407 0.961 . S
H423 C407 0.960 . S
C424 C425 1.391 . S
C424 C426 1.394 . S
C424 H440 0.931 . S
C425 C424 1.391 . S
C425 C429 1.376 . S
C426 C424 1.394 . S
C426 C427 1.369 . S
C426 C430 1.531 . S
C427 C426 1.369 . S
C427 C428 1.410 . S
C427 C435 1.503 . S
C428 C427 1.410 . S
C428 C429 1.392 . S
C428 C431 1.511 . S
C429 C425 1.376 . S
C429 C428 1.392 . S
C429 H441 0.929 . S
C430 C426 1.531 . S
C430 H442 0.960 . S
C430 H443 0.962 . S
C430 H444 0.960 . S
C431 C428 1.511 . S
C431 H445 0.961 . S
C431 H446 0.961 . S
C431 H447 0.961 . S
C432 C433 1.370 . S
C432 C434 1.363 . S
C432 H448 0.931 . S
C433 C432 1.370 . S
C433 C437 1.408 . S
C434 C432 1.363 . S
C434 C435 1.370 . S
C434 C438 1.524 . S
C435 C427 1.503 . S
C435 C434 1.370 . S
C435 C436 1.403 . S
C436 C435 1.403 . S
C436 C437 1.404 . S
C436 C439 1.539 . S
C437 C433 1.408 . S
C437 C436 1.404 . S
C437 H449 0.930 . S
C438 C434 1.524 . S
C438 H450 0.956 . S
C438 H451 0.961 . S
C438 H452 0.961 . S
C439 C436 1.539 . S
C439 H453 0.958 . S
C439 H454 0.961 . S
C439 H455 0.960 . S
H440 C424 0.931 . S
H441 C429 0.929 . S
H442 C430 0.960 . S
H443 C430 0.962 . S
H444 C430 0.960 . S
H445 C431 0.961 . S
H446 C431 0.961 . S
H447 C431 0.961 . S
H448 C432 0.931 . S
H449 C437 0.930 . S
H450 C438 0.956 . S
H451 C438 0.961 . S
H452 C438 0.961 . S
H453 C439 0.958 . S
H454 C439 0.961 . S
H455 C439 0.960 . S
C456 C457 1.391 . S
C456 C458 1.394 . S
C456 H472 0.931 . S
C457 C456 1.391 . S
C457 C461 1.376 . S
C458 C456 1.394 . S
C458 C459 1.369 . S
C458 C462 1.531 . S
C459 C458 1.369 . S
C459 C460 1.410 . S
C459 C467 1.503 . S
C460 C459 1.410 . S
C460 C461 1.392 . S
C460 C463 1.511 . S
C461 C457 1.376 . S
C461 C460 1.392 . S
C461 H473 0.929 . S
C462 C458 1.531 . S
C462 H474 0.960 . S
C462 H475 0.962 . S
C462 H476 0.960 . S
C463 C460 1.511 . S
C463 H477 0.961 . S
C463 H478 0.961 . S
C463 H479 0.961 . S
C464 C465 1.370 . S
C464 C466 1.363 . S
C464 H480 0.931 . S
C465 C464 1.370 . S
C465 C469 1.408 . S
C466 C464 1.363 . S
C466 C467 1.370 . S
C466 C470 1.524 . S
C467 C459 1.503 . S
C467 C466 1.370 . S
C467 C468 1.403 . S
C468 C467 1.403 . S
C468 C469 1.404 . S
C468 C471 1.539 . S
C469 C465 1.408 . S
C469 C468 1.404 . S
C469 H481 0.930 . S
C470 C466 1.524 . S
C470 H482 0.956 . S
C470 H483 0.961 . S
C470 H484 0.961 . S
C471 C468 1.539 . S
C471 H485 0.958 . S
C471 H486 0.961 . S
C471 H487 0.960 . S
H472 C456 0.931 . S
H473 C461 0.929 . S
H474 C462 0.960 . S
H475 C462 0.962 . S
H476 C462 0.960 . S
H477 C463 0.961 . S
H478 C463 0.961 . S
H479 C463 0.961 . S
H480 C464 0.931 . S
H481 C469 0.930 . S
H482 C470 0.956 . S
H483 C470 0.961 . S
H484 C470 0.961 . S
H485 C471 0.958 . S
H486 C471 0.961 . S
H487 C471 0.960 . S
C488 C489 1.391 . S
C488 C490 1.394 . S
C488 H504 0.931 . S
C489 C488 1.391 . S
C489 C493 1.376 . S
C490 C488 1.394 . S
C490 C491 1.369 . S
C490 C494 1.531 . S
C491 C490 1.369 . S
C491 C492 1.410 . S
C491 C499 1.503 . S
C492 C491 1.410 . S
C492 C493 1.392 . S
C492 C495 1.511 . S
C493 C489 1.376 . S
C493 C492 1.392 . S
C493 H505 0.929 . S
C494 C490 1.531 . S
C494 H506 0.960 . S
C494 H507 0.962 . S
C494 H508 0.960 . S
C495 C492 1.511 . S
C495 H509 0.961 . S
C495 H510 0.961 . S
C495 H511 0.961 . S
C496 C497 1.370 . S
C496 C498 1.363 . S
C496 H512 0.931 . S
C497 C496 1.370 . S
C497 C501 1.408 . S
C498 C496 1.363 . S
C498 C499 1.370 . S
C498 C502 1.524 . S
C499 C491 1.503 . S
C499 C498 1.370 . S
C499 C500 1.403 . S
C500 C499 1.403 . S
C500 C501 1.404 . S
C500 C503 1.539 . S
C501 C497 1.408 . S
C501 C500 1.404 . S
C501 H513 0.930 . S
C502 C498 1.524 . S
C502 H514 0.956 . S
C502 H515 0.961 . S
C502 H516 0.961 . S
C503 C500 1.539 . S
C503 H517 0.958 . S
C503 H518 0.961 . S
C503 H519 0.960 . S
H504 C488 0.931 . S
H505 C493 0.929 . S
H506 C494 0.960 . S
H507 C494 0.962 . S
H508 C494 0.960 . S
H509 C495 0.961 . S
H510 C495 0.961 . S
H511 C495 0.961 . S
H512 C496 0.931 . S
H513 C501 0.930 . S
H514 C502 0.956 . S
H515 C502 0.961 . S
H516 C502 0.961 . S
H517 C503 0.958 . S
H518 C503 0.961 . S
H519 C503 0.960 . S
C520 C521 1.391 . S
C520 C522 1.394 . S
C520 H536 0.931 . S
C521 C520 1.391 . S
C521 C525 1.376 . S
C522 C520 1.394 . S
C522 C523 1.369 . S
C522 C526 1.531 . S
C523 C522 1.369 . S
C523 C524 1.410 . S
C523 C531 1.503 . S
C524 C523 1.410 . S
C524 C525 1.392 . S
C524 C527 1.511 . S
C525 C521 1.376 . S
C525 C524 1.392 . S
C525 H537 0.929 . S
C526 C522 1.531 . S
C526 H538 0.960 . S
C526 H539 0.962 . S
C526 H540 0.960 . S
C527 C524 1.511 . S
C527 H541 0.961 . S
C527 H542 0.961 . S
C527 H543 0.961 . S
C528 C529 1.370 . S
C528 C530 1.363 . S
C528 H544 0.931 . S
C529 C528 1.370 . S
C529 C533 1.408 . S
C530 C528 1.363 . S
C530 C531 1.370 . S
C530 C534 1.524 . S
C531 C523 1.503 . S
C531 C530 1.370 . S
C531 C532 1.403 . S
C532 C531 1.403 . S
C532 C533 1.404 . S
C532 C535 1.539 . S
C533 C529 1.408 . S
C533 C532 1.404 . S
C533 H545 0.930 . S
C534 C530 1.524 . S
C534 H546 0.956 . S
C534 H547 0.961 . S
C534 H548 0.961 . S
C535 C532 1.539 . S
C535 H549 0.958 . S
C535 H550 0.961 . S
C535 H551 0.960 . S
H536 C520 0.931 . S
H537 C525 0.929 . S
H538 C526 0.960 . S
H539 C526 0.962 . S
H540 C526 0.960 . S
H541 C527 0.961 . S
H542 C527 0.961 . S
H543 C527 0.961 . S
H544 C528 0.931 . S
H545 C533 0.930 . S
H546 C534 0.956 . S
H547 C534 0.961 . S
H548 C534 0.961 . S
H549 C535 0.958 . S
H550 C535 0.961 . S
H551 C535 0.960 . S
C552 C553 1.391 . S
C552 C554 1.394 . S
C552 H568 0.931 . S
C553 C552 1.391 . S
C553 C557 1.376 . S
C554 C552 1.394 . S
C554 C555 1.369 . S
C554 C558 1.531 . S
C555 C554 1.369 . S
C555 C556 1.410 . S
C555 C563 1.503 1_556 S
C556 C555 1.410 . S
C556 C557 1.392 . S
C556 C559 1.511 1_556 S
C557 C553 1.376 . S
C557 C556 1.392 . S
C557 H569 0.929 . S
C558 C554 1.531 . S
C558 H570 0.960 . S
C558 H571 0.962 . S
C558 H572 0.960 . S
C559 C556 1.511 1_554 S
C559 H573 0.961 . S
C559 H574 0.961 . S
C559 H575 0.961 1_554 S
C560 C561 1.370 . S
C560 C562 1.363 . S
C560 H576 0.931 . S
C561 C560 1.370 . S
C561 C565 1.408 1_554 S
C562 C560 1.363 . S
C562 C563 1.370 . S
C562 C566 1.524 . S
C563 C555 1.503 1_554 S
C563 C562 1.370 . S
C563 C564 1.403 1_554 S
C564 C563 1.403 1_556 S
C564 C565 1.404 . S
C564 C567 1.539 . S
C565 C561 1.408 1_556 S
C565 C564 1.404 . S
C565 H577 0.930 . S
C566 C562 1.524 . S
C566 H578 0.956 . S
C566 H579 0.961 . S
C566 H580 0.961 . S
C567 C564 1.539 . S
C567 H581 0.958 . S
C567 H582 0.961 . S
C567 H583 0.960 . S
H568 C552 0.931 . S
H569 C557 0.929 . S
H570 C558 0.960 . S
H571 C558 0.962 . S
H572 C558 0.960 . S
H573 C559 0.961 . S
H574 C559 0.961 . S
H575 C559 0.961 1_556 S
H576 C560 0.931 . S
H577 C565 0.930 . S
H578 C566 0.956 . S
H579 C566 0.961 . S
H580 C566 0.961 . S
H581 C567 0.958 . S
H582 C567 0.961 . S
H583 C567 0.960 . S
C584 C585 1.391 . S
C584 C586 1.394 . S
C584 H600 0.931 . S
C585 C584 1.391 . S
C585 C589 1.376 . S
C586 C584 1.394 . S
C586 C587 1.369 . S
C586 C590 1.531 . S
C587 C586 1.369 . S
C587 C588 1.410 . S
C587 C595 1.503 1_545 S
C588 C587 1.410 . S
C588 C589 1.392 . S
C588 C591 1.511 . S
C589 C585 1.376 . S
C589 C588 1.392 . S
C589 H601 0.929 . S
C590 C586 1.531 . S
C590 H602 0.960 1_545 S
C590 H603 0.962 . S
C590 H604 0.960 . S
C591 C588 1.511 . S
C591 H605 0.961 . S
C591 H606 0.961 . S
C591 H607 0.961 . S
C592 C593 1.370 . S
C592 C594 1.363 . S
C592 H608 0.931 . S
C593 C592 1.370 . S
C593 C597 1.408 . S
C594 C592 1.363 . S
C594 C595 1.370 . S
C594 C598 1.524 1_565 S
C595 C587 1.503 1_565 S
C595 C594 1.370 . S
C595 C596 1.403 . S
C596 C595 1.403 . S
C596 C597 1.404 . S
C596 C599 1.539 . S
C597 C593 1.408 . S
C597 C596 1.404 . S
C597 H609 0.930 . S
C598 C594 1.524 1_545 S
C598 H610 0.956 . S
C598 H611 0.961 . S
C598 H612 0.961 . S
C599 C596 1.539 . S
C599 H613 0.958 . S
C599 H614 0.961 . S
C599 H615 0.960 . S
H600 C584 0.931 . S
H601 C589 0.929 . S
H602 C590 0.960 1_565 S
H603 C590 0.962 . S
H604 C590 0.960 . S
H605 C591 0.961 . S
H606 C591 0.961 . S
H607 C591 0.961 . S
H608 C592 0.931 . S
H609 C597 0.930 . S
H610 C598 0.956 . S
H611 C598 0.961 . S
H612 C598 0.961 . S
H613 C599 0.958 . S
H614 C599 0.961 . S
H615 C599 0.960 . S
C616 C617 1.391 . S
C616 C618 1.394 1_554 S
C616 H632 0.931 1_554 S
C617 C616 1.391 . S
C617 C621 1.376 . S
C618 C616 1.394 1_556 S
C618 C619 1.369 1_556 S
C618 C622 1.531 . S
C619 C618 1.369 1_554 S
C619 C620 1.410 . S
C619 C627 1.503 1_564 S
C620 C619 1.410 . S
C620 C621 1.392 . S
C620 C623 1.511 1_455 S
C621 C617 1.376 . S
C621 C620 1.392 . S
C621 H633 0.929 1_455 S
C622 C618 1.531 . S
C622 H634 0.960 . S
C622 H635 0.962 . S
C622 H636 0.960 . S
C623 C620 1.511 1_655 S
C623 H637 0.961 . S
C623 H638 0.961 1_565 S
C623 H639 0.961 . S
C624 C625 1.370 . S
C624 C626 1.363 1_556 S
C624 H640 0.931 1_556 S
C625 C624 1.370 . S
C625 C629 1.408 . S
C626 C624 1.363 1_554 S
C626 C627 1.370 1_554 S
C626 C630 1.524 . S
C627 C619 1.503 1_546 S
C627 C626 1.370 1_556 S
C627 C628 1.403 . S
C628 C627 1.403 . S
C628 C629 1.404 . S
C628 C631 1.544 1_455 S
C629 C625 1.408 . S
C629 C628 1.404 . S
C629 H641 0.930 . S
C630 C626 1.524 . S
C630 H642 0.956 . S
C630 H643 0.961 . S
C630 H644 0.961 . S
C631 C628 1.544 1_655 S
C631 H645 0.955 1_645 S
C631 H646 0.965 . S
C631 H647 0.954 1_545 S
H632 C616 0.931 1_556 S
H633 C621 0.929 1_655 S
H634 C622 0.960 . S
H635 C622 0.962 . S
H636 C622 0.960 . S
H637 C623 0.961 . S
H638 C623 0.961 1_545 S
H639 C623 0.961 . S
H640 C624 0.931 1_554 S
H641 C629 0.930 . S
H642 C630 0.956 . S
H643 C630 0.961 . S
H644 C630 0.961 . S
H645 C631 0.955 1_465 S
H646 C631 0.965 . S
H647 C631 0.954 1_565 S
C648 C649 1.391 . S
C648 C650 1.394 . S
C648 H664 0.931 . S
C649 C648 1.391 . S
C649 C653 1.376 . S
C650 C648 1.394 . S
C650 C651 1.369 . S
C650 C654 1.531 . S
C651 C650 1.369 . S
C651 C652 1.410 . S
C651 C659 1.503 . S
C652 C651 1.410 . S
C652 C653 1.392 . S
C652 C655 1.511 . S
C653 C649 1.376 . S
C653 C652 1.392 . S
C653 H665 0.929 . S
C654 C650 1.531 . S
C654 H666 0.960 . S
C654 H667 0.962 . S
C654 H668 0.960 . S
C655 C652 1.511 . S
C655 H669 0.961 . S
C655 H670 0.961 . S
C655 H671 0.961 . S
C656 C657 1.370 . S
C656 C658 1.363 . S
C656 H672 0.931 . S
C657 C656 1.370 . S
C657 C661 1.408 . S
C658 C656 1.363 . S
C658 C659 1.370 . S
C658 C662 1.524 . S
C659 C651 1.503 . S
C659 C658 1.370 . S
C659 C660 1.403 . S
C660 C659 1.403 . S
C660 C661 1.404 . S
C660 C663 1.539 . S
C661 C657 1.408 . S
C661 C660 1.404 . S
C661 H673 0.930 . S
C662 C658 1.524 . S
C662 H674 0.956 . S
C662 H675 0.961 . S
C662 H676 0.961 . S
C663 C660 1.539 . S
C663 H677 0.958 . S
C663 H678 0.961 . S
C663 H679 0.960 . S
H664 C648 0.931 . S
H665 C653 0.929 . S
H666 C654 0.960 . S
H667 C654 0.962 . S
H668 C654 0.960 . S
H669 C655 0.961 . S
H670 C655 0.961 . S
H671 C655 0.961 . S
H672 C656 0.931 . S
H673 C661 0.930 . S
H674 C662 0.956 . S
H675 C662 0.961 . S
H676 C662 0.961 . S
H677 C663 0.958 . S
H678 C663 0.961 . S
H679 C663 0.960 . S
C680 C681 1.391 . S
C680 C682 1.394 1_556 S
C680 H696 0.931 1_556 S
C681 C680 1.391 . S
C681 C685 1.376 . S
C682 C680 1.394 1_554 S
C682 C683 1.369 1_554 S
C682 C686 1.531 . S
C683 C682 1.369 1_556 S
C683 C684 1.409 . S
C683 C691 1.503 1_556 S
C684 C683 1.409 . S
C684 C685 1.392 . S
C684 C687 1.511 . S
C685 C681 1.376 . S
C685 C684 1.392 . S
C685 H697 0.929 . S
C686 C682 1.531 . S
C686 H698 0.960 . S
C686 H699 0.962 . S
C686 H700 0.960 . S
C687 C684 1.511 . S
C687 H701 0.961 . S
C687 H702 0.961 . S
C687 H703 0.961 . S
C688 C689 1.370 . S
C688 C690 1.363 . S
C688 H704 0.931 . S
C689 C688 1.370 . S
C689 C693 1.408 . S
C690 C688 1.363 . S
C690 C691 1.370 . S
C690 C694 1.524 . S
C691 C683 1.503 1_554 S
C691 C690 1.370 . S
C691 C692 1.403 . S
C692 C691 1.403 . S
C692 C693 1.404 . S
C692 C695 1.539 1_554 S
C693 C689 1.408 . S
C693 C692 1.404 . S
C693 H705 0.930 . S
C694 C690 1.524 . S
C694 H706 0.956 . S
C694 H707 0.961 . S
C694 H708 0.961 . S
C695 C692 1.539 1_556 S
C695 H709 0.958 . S
C695 H710 0.961 . S
C695 H711 0.960 . S
H696 C680 0.931 1_554 S
H697 C685 0.929 . S
H698 C686 0.960 . S
H699 C686 0.962 . S
H700 C686 0.960 . S
H701 C687 0.961 . S
H702 C687 0.961 . S
H703 C687 0.961 . S
H704 C688 0.931 . S
H705 C693 0.930 . S
H706 C694 0.956 . S
H707 C694 0.961 . S
H708 C694 0.961 . S
H709 C695 0.958 . S
H710 C695 0.961 . S
H711 C695 0.960 . S
C712 C713 1.391 . S
C712 C714 1.394 . S
C712 H728 0.931 . S
C713 C712 1.391 . S
C713 C717 1.376 . S
C714 C712 1.394 . S
C714 C715 1.369 . S
C714 C718 1.531 . S
C715 C714 1.369 . S
C715 C716 1.410 . S
C715 C723 1.503 . S
C716 C715 1.410 . S
C716 C717 1.392 . S
C716 C719 1.511 . S
C717 C713 1.376 . S
C717 C716 1.392 . S
C717 H729 0.929 . S
C718 C714 1.531 . S
C718 H730 0.960 . S
C718 H731 0.962 . S
C718 H732 0.960 . S
C719 C716 1.511 . S
C719 H733 0.961 . S
C719 H734 0.961 . S
C719 H735 0.961 . S
C720 C721 1.370 . S
C720 C722 1.363 . S
C720 H736 0.931 . S
C721 C720 1.370 . S
C721 C725 1.408 . S
C722 C720 1.363 . S
C722 C723 1.370 . S
C722 C726 1.524 . S
C723 C715 1.503 . S
C723 C722 1.370 . S
C723 C724 1.403 . S
C724 C723 1.403 . S
C724 C725 1.404 . S
C724 C727 1.539 . S
C725 C721 1.408 . S
C725 C724 1.404 . S
C725 H737 0.930 . S
C726 C722 1.524 . S
C726 H738 0.956 . S
C726 H739 0.961 . S
C726 H740 0.961 . S
C727 C724 1.539 . S
C727 H741 0.958 . S
C727 H742 0.961 . S
C727 H743 0.960 . S
H728 C712 0.931 . S
H729 C717 0.929 . S
H730 C718 0.960 . S
H731 C718 0.962 . S
H732 C718 0.960 . S
H733 C719 0.961 . S
H734 C719 0.961 . S
H735 C719 0.961 . S
H736 C720 0.931 . S
H737 C725 0.930 . S
H738 C726 0.956 . S
H739 C726 0.961 . S
H740 C726 0.961 . S
H741 C727 0.958 . S
H742 C727 0.961 . S
H743 C727 0.960 . S
C744 C745 1.391 . S
C744 C746 1.394 . S
C744 H760 0.931 . S
C745 C744 1.391 . S
C745 C749 1.376 . S
C746 C744 1.394 . S
C746 C747 1.369 . S
C746 C750 1.531 . S
C747 C746 1.369 . S
C747 C748 1.410 . S
C747 C755 1.503 . S
C748 C747 1.410 . S
C748 C749 1.392 . S
C748 C751 1.511 . S
C749 C745 1.376 . S
C749 C748 1.392 . S
C749 H761 0.929 . S
C750 C746 1.531 . S
C750 H762 0.960 . S
C750 H763 0.962 . S
C750 H764 0.960 . S
C751 C748 1.511 . S
C751 H765 0.961 . S
C751 H766 0.961 1_556 S
C751 H767 0.961 . S
C752 C753 1.370 . S
C752 C754 1.363 . S
C752 H768 0.931 . S
C753 C752 1.370 . S
C753 C757 1.408 1_554 S
C754 C752 1.363 . S
C754 C755 1.370 1_554 S
C754 C758 1.524 . S
C755 C747 1.503 . S
C755 C754 1.370 1_556 S
C755 C756 1.403 . S
C756 C755 1.403 . S
C756 C757 1.404 . S
C756 C759 1.539 . S
C757 C753 1.408 1_556 S
C757 C756 1.404 . S
C757 H769 0.930 . S
C758 C754 1.524 . S
C758 H770 0.956 . S
C758 H771 0.961 . S
C758 H772 0.961 . S
C759 C756 1.539 . S
C759 H773 0.958 . S
C759 H774 0.961 . S
C759 H775 0.960 . S
H760 C744 0.931 . S
H761 C749 0.929 . S
H762 C750 0.960 . S
H763 C750 0.962 . S
H764 C750 0.960 . S
H765 C751 0.961 . S
H766 C751 0.961 1_554 S
H767 C751 0.961 . S
H768 C752 0.931 . S
H769 C757 0.930 . S
H770 C758 0.956 . S
H771 C758 0.961 . S
H772 C758 0.961 . S
H773 C759 0.958 . S
H774 C759 0.961 . S
H775 C759 0.960 . S
C776 C777 1.391 . S
C776 C778 1.394 1_455 S
C776 H792 0.931 . S
C777 C776 1.391 . S
C777 C781 1.376 1_455 S
C778 C776 1.394 1_655 S
C778 C779 1.369 . S
C778 C782 1.531 . S
C779 C778 1.369 . S
C779 C780 1.410 . S
C779 C787 1.503 . S
C780 C779 1.410 . S
C780 C781 1.392 . S
C780 C783 1.511 . S
C781 C777 1.376 1_655 S
C781 C780 1.392 . S
C781 H793 0.929 . S
C782 C778 1.531 . S
C782 H794 0.960 . S
C782 H795 0.962 1_655 S
C782 H796 0.960 1_655 S
C783 C780 1.511 . S
C783 H797 0.961 . S
C783 H798 0.961 . S
C783 H799 0.961 . S
C784 C785 1.370 . S
C784 C786 1.363 . S
C784 H800 0.931 . S
C785 C784 1.370 . S
C785 C789 1.408 . S
C786 C784 1.363 . S
C786 C787 1.370 . S
C786 C790 1.524 . S
C787 C779 1.503 . S
C787 C786 1.370 . S
C787 C788 1.403 . S
C788 C787 1.403 . S
C788 C789 1.404 . S
C788 C791 1.539 . S
C789 C785 1.408 . S
C789 C788 1.404 . S
C789 H801 0.930 . S
C790 C786 1.524 . S
C790 H802 0.956 . S
C790 H803 0.961 . S
C790 H804 0.961 . S
C791 C788 1.539 . S
C791 H805 0.958 . S
C791 H806 0.961 . S
C791 H807 0.960 . S
H792 C776 0.931 . S
H793 C781 0.929 . S
H794 C782 0.960 . S
H795 C782 0.962 1_455 S
H796 C782 0.960 1_455 S
H797 C783 0.961 . S
H798 C783 0.961 . S
H799 C783 0.961 . S
H800 C784 0.931 . S
H801 C789 0.930 . S
H802 C790 0.956 . S
H803 C790 0.961 . S
H804 C790 0.961 . S
H805 C791 0.958 . S
H806 C791 0.961 . S
H807 C791 0.960 . S
C808 C809 1.391 . S
C808 C810 1.394 . S
C808 H824 0.931 . S
C809 C808 1.391 . S
C809 C813 1.376 . S
C810 C808 1.394 . S
C810 C811 1.369 . S
C810 C814 1.531 1_554 S
C811 C810 1.369 . S
C811 C812 1.410 . S
C811 C819 1.503 . S
C812 C811 1.410 . S
C812 C813 1.392 . S
C812 C815 1.511 . S
C813 C809 1.376 . S
C813 C812 1.392 . S
C813 H825 0.929 . S
C814 C810 1.531 1_556 S
C814 H826 0.960 . S
C814 H827 0.962 . S
C814 H828 0.960 . S
C815 C812 1.511 . S
C815 H829 0.961 . S
C815 H830 0.961 . S
C815 H831 0.961 . S
C816 C817 1.370 . S
C816 C818 1.363 1_556 S
C816 H832 0.931 . S
C817 C816 1.370 . S
C817 C821 1.408 . S
C818 C816 1.363 1_554 S
C818 C819 1.370 . S
C818 C822 1.524 . S
C819 C811 1.503 . S
C819 C818 1.370 . S
C819 C820 1.403 1_554 S
C820 C819 1.403 1_556 S
C820 C821 1.404 . S
C820 C823 1.539 . S
C821 C817 1.408 . S
C821 C820 1.404 . S
C821 H833 0.930 . S
C822 C818 1.524 . S
C822 H834 0.956 . S
C822 H835 0.961 . S
C822 H836 0.961 . S
C823 C820 1.539 . S
C823 H837 0.958 . S
C823 H838 0.961 . S
C823 H839 0.960 1_556 S
H824 C808 0.931 . S
H825 C813 0.929 . S
H826 C814 0.960 . S
H827 C814 0.962 . S
H828 C814 0.960 . S
H829 C815 0.961 . S
H830 C815 0.961 . S
H831 C815 0.961 . S
H832 C816 0.931 . S
H833 C821 0.930 . S
H834 C822 0.956 . S
H835 C822 0.961 . S
H836 C822 0.961 . S
H837 C823 0.958 . S
H838 C823 0.961 . S
H839 C823 0.960 1_554 S
C840 C841 1.391 . S
C840 C842 1.394 1_455 S
C840 H856 0.931 . S
C841 C840 1.391 . S
C841 C845 1.376 1_455 S
C842 C840 1.394 1_655 S
C842 C843 1.369 . S
C842 C846 1.531 1_655 S
C843 C842 1.369 . S
C843 C844 1.410 . S
C843 C851 1.503 . S
C844 C843 1.410 . S
C844 C845 1.392 . S
C844 C847 1.511 . S
C845 C841 1.376 1_655 S
C845 C844 1.392 . S
C845 H857 0.929 . S
C846 C842 1.531 1_455 S
C846 H858 0.960 1_455 S
C846 H859 0.962 . S
C846 H860 0.960 . S
C847 C844 1.511 . S
C847 H861 0.961 . S
C847 H862 0.961 . S
C847 H863 0.961 . S
C848 C849 1.370 . S
C848 C850 1.363 . S
C848 H864 0.931 . S
C849 C848 1.370 . S
C849 C853 1.408 . S
C850 C848 1.363 . S
C850 C851 1.370 . S
C850 C854 1.524 . S
C851 C843 1.503 . S
C851 C850 1.370 . S
C851 C852 1.403 . S
C852 C851 1.403 . S
C852 C853 1.404 . S
C852 C855 1.539 . S
C853 C849 1.408 . S
C853 C852 1.404 . S
C853 H865 0.930 . S
C854 C850 1.524 . S
C854 H866 0.956 . S
C854 H867 0.961 . S
C854 H868 0.961 . S
C855 C852 1.539 . S
C855 H869 0.958 . S
C855 H870 0.961 . S
C855 H871 0.960 . S
H856 C840 0.931 . S
H857 C845 0.929 . S
H858 C846 0.960 1_655 S
H859 C846 0.962 . S
H860 C846 0.960 . S
H861 C847 0.961 . S
H862 C847 0.961 . S
H863 C847 0.961 . S
H864 C848 0.931 . S
H865 C853 0.930 . S
H866 C854 0.956 . S
H867 C854 0.961 . S
H868 C854 0.961 . S
H869 C855 0.958 . S
H870 C855 0.961 . S
H871 C855 0.960 . S
C872 C873 1.391 . S
C872 C874 1.394 . S
C872 H888 0.931 . S
C873 C872 1.391 . S
C873 C877 1.376 . S
C874 C872 1.394 . S
C874 C875 1.369 . S
C874 C878 1.531 . S
C875 C874 1.369 . S
C875 C876 1.410 . S
C875 C883 1.503 . S
C876 C875 1.410 . S
C876 C877 1.392 . S
C876 C879 1.511 . S
C877 C873 1.376 . S
C877 C876 1.392 . S
C877 H889 0.929 . S
C878 C874 1.531 . S
C878 H890 0.960 . S
C878 H891 0.962 . S
C878 H892 0.960 . S
C879 C876 1.511 . S
C879 H893 0.961 1_556 S
C879 H894 0.961 1_556 S
C879 H895 0.961 . S
C880 C881 1.370 . S
C880 C882 1.363 . S
C880 H896 0.931 . S
C881 C880 1.370 . S
C881 C885 1.408 1_554 S
C882 C880 1.363 . S
C882 C883 1.370 1_554 S
C882 C886 1.524 . S
C883 C875 1.503 . S
C883 C882 1.370 1_556 S
C883 C884 1.403 . S
C884 C883 1.403 . S
C884 C885 1.404 . S
C884 C887 1.539 . S
C885 C881 1.408 1_556 S
C885 C884 1.404 . S
C885 H897 0.930 . S
C886 C882 1.524 . S
C886 H898 0.956 . S
C886 H899 0.961 . S
C886 H900 0.961 . S
C887 C884 1.539 . S
C887 H901 0.958 . S
C887 H902 0.961 . S
C887 H903 0.960 . S
H888 C872 0.931 . S
H889 C877 0.929 . S
H890 C878 0.960 . S
H891 C878 0.962 . S
H892 C878 0.960 . S
H893 C879 0.961 1_554 S
H894 C879 0.961 1_554 S
H895 C879 0.961 . S
H896 C880 0.931 . S
H897 C885 0.930 . S
H898 C886 0.956 . S
H899 C886 0.961 . S
H900 C886 0.961 . S
H901 C887 0.958 . S
H902 C887 0.961 . S
H903 C887 0.960 . S
C265 C18 1.334 . S
C273 C117 1.327 . S
C297 C51 1.334 . S
C305 C84 1.326 . S
C329 N68 1.566 1_655 S
C337 N35 1.583 . S
C361 N101 1.563 . S
C369 N2 1.566 1_655 S
C393 C150 1.306 . S
C401 C249 1.321 . S
C425 C216 1.305 . S
C433 C183 1.319 . S
C457 N167 1.591 . S
C465 N200 1.561 . S
C489 N233 1.570 . S
C497 N134 1.583 . S
C521 C87 1.495 . S
C529 C21 1.500 . S
C553 C54 1.493 . S
C561 C120 1.501 . S
C585 C219 1.493 . S
C593 C153 1.501 . S
C617 C252 1.497 . S
C625 C186 1.498 . S
C649 N13 1.437 . S
C657 C205 1.481 . S
C681 N46 1.434 . S
C689 C238 1.475 . S
C713 N79 1.436 . S
C721 C139 1.481 . S
C745 C172 1.483 . S
C753 N112 1.447 . S
C777 C73 1.459 . S
C785 N145 1.438 . S
C809 C106 1.458 . S
C817 N178 1.437 . S
C841 C7 1.462 . S
C849 N211 1.441 . S
C873 C40 1.486 . S
C881 N244 1.449 . S
