# Generated by pormake.
# Topology dmp, (4)-cn, num edge types: 1
# Building blocks:
#     Node 0, Type 0, BuildingBlock: UXUYUI_clean_sbu_0, # of connection points: 4
#     Node 1, Type 0, BuildingBlock: UXUYUI_clean_sbu_0, # of connection points: 4
#     Node 2, Type 0, BuildingBlock: UXUYUI_clean_sbu_0, # of connection points: 4
#     Node 3, Type 0, BuildingBlock: UXUYUI_clean_sbu_0, # of connection points: 4
#     Edge 4, Type (0, 0), None
#     Edge 5, Type (0, 0), None
#     Edge 6, Type (0, 0), None
#     Edge 7, Type (0, 0), None
#     Edge 8, Type (0, 0), None
#     Edge 9, Type (0, 0), None
#     Edge 10, Type (0, 0), None
#     Edge 11, Type (0, 0), None
# Relax obj value: 0.351
# Max RMSD: 0.312
# Mean RMSD: 0.312
data_MOF--net-dmp--node1-UXUYUI_clean_sbu_0--edge1-none
_symmetry_space_group_name_H-M    P1
_symmetry_Int_Tables_number       1
_symmetry_cell_setting            triclinic
loop_
_symmetry_equiv_pos_as_xyz
'x, y, z'
_cell_length_a     35.092141
_cell_length_b     15.023149
_cell_length_c     18.161275
_cell_angle_alpha  90.000004
_cell_angle_beta   90.003989
_cell_angle_gamma 89.998574
loop_
_atom_site_label
_atom_site_type_symbol
_atom_site_fract_x
_atom_site_fract_y
_atom_site_fract_z
_atom_type_partial_charge
Li0 Li 0.12876 0.31273 0.2072 0.0
Li1 Li 0.12877 0.18531 0.29663 0.0
Li2 Li 0.0774 0.19604 0.20273 0.0
Li3 Li 0.07739 0.30194 0.30108 0.0
C4 C 0.16105 0.14467 0.14801 0.0
N5 N 0.21826 0.07021 0.0637 0.0
C6 C 0.19886 0.14737 0.17232 0.0
C7 C 0.15236 0.10389 0.08093 0.0
C8 C 0.22736 0.10925 0.12894 0.0
C9 C 0.1817 0.06666 0.03908 0.0
C10 C 0.16101 0.35346 0.35582 0.0
C11 C 0.1816 0.43166 0.46471 0.0
N12 N 0.21817 0.42813 0.44014 0.0
C13 C 0.19882 0.35079 0.33157 0.0
C14 C 0.15228 0.39432 0.42284 0.0
C15 C 0.2273 0.38901 0.37495 0.0
C16 C 0.17052 0.46851 0.19244 0.0
N17 N 0.16431 0.38882 0.1591 0.0
C18 C 0.22206 0.40258 0.09027 0.0
C19 C 0.18809 0.35779 0.10573 0.0
C20 C 0.23058 0.4808 0.12872 0.0
C21 C 0.20375 0.51611 0.17781 0.0
H22 H 0.15142 0.49096 0.23535 0.0
H23 H 0.18224 0.29523 0.07892 0.0
C24 C 0.17058 0.0296 0.31145 0.0
N25 N 0.16434 0.10928 0.34477 0.0
C26 C 0.20381 0.98203 0.32619 0.0
C27 C 0.22204 0.0956 0.41376 0.0
C28 C 0.18808 0.14036 0.3982 0.0
C29 C 0.2306 0.01736 0.37536 0.0
H30 H 0.15151 0.00711 0.2685 0.0
H31 H 0.1822 0.20292 0.42497 0.0
C32 C 0.04709 0.39602 0.18956 0.0
N33 N 0.99515 0.53414 0.18471 0.0
C34 C 0.00846 0.37969 0.20248 0.0
C35 C 0.05925 0.48237 0.17324 0.0
C36 C 0.98267 0.45046 0.20007 0.0
C37 C 0.03256 0.55137 0.17127 0.0
C38 C 0.0471 0.10197 0.31419 0.0
C39 C 0.00847 0.11836 0.30141 0.0
C40 C 0.05927 0.01557 0.33034 0.0
C41 C 0.98267 0.04759 0.30377 0.0
C42 C 0.03258 0.94658 0.33226 0.0
N43 N 0.99516 0.96387 0.31895 0.0
C44 C 0.05182 0.03672 0.13452 0.0
C45 C 0.02661 0.16997 0.0846 0.0
C46 C 0.03212 0.98599 0.08246 0.0
N47 N 0.04847 0.12687 0.13498 0.0
C48 C 0.00677 0.12203 0.03105 0.0
C49 C 0.00926 0.02855 0.02941 0.0
H50 H 0.07018 0.00426 0.17407 0.0
H51 H 0.02515 0.24184 0.08512 0.0
C52 C 0.05167 0.46124 0.36913 0.0
N53 N 0.04845 0.37107 0.36884 0.0
C54 C 0.03195 0.51195 0.42117 0.0
C55 C 0.0069 0.37584 0.47298 0.0
C56 C 0.02673 0.32791 0.41942 0.0
C57 C 0.00924 0.46935 0.47443 0.0
H58 H 0.06992 0.49375 0.32943 0.0
H59 H 0.02538 0.25603 0.41904 0.0
O60 O 0.13265 0.18237 0.18911 0.0
O61 O 0.13263 0.31566 0.31471 0.0
O62 O 0.07279 0.3276 0.19159 0.0
O63 O 0.07281 0.17038 0.31222 0.0
H64 H 0.20615 0.17855 0.22404 0.0
H65 H 0.12328 0.10159 0.06114 0.0
H66 H 0.25672 0.11072 0.14711 0.0
H67 H 0.17542 0.03508 0.98694 0.0
H68 H 0.17529 0.4633 0.5168 0.0
H69 H 0.20614 0.31955 0.27989 0.0
H70 H 0.1232 0.3966 0.44259 0.0
H71 H 0.25667 0.38757 0.35682 0.0
H72 H 0.24241 0.37376 0.05229 0.0
H73 H 0.20991 0.57592 0.209 0.0
H74 H 0.21 0.92221 0.29504 0.0
H75 H 0.24236 0.12444 0.4518 0.0
H76 H 0.99852 0.3131 0.21423 0.0
H77 H 0.08897 0.49598 0.16224 0.0
H78 H 0.95271 0.43885 0.21028 0.0
H79 H 0.04159 0.61861 0.159 0.0
H80 H 0.99853 0.18498 0.2898 0.0
H81 H 0.08899 0.00191 0.34123 0.0
H82 H 0.9527 0.05925 0.29366 0.0
H83 H 0.04161 0.87931 0.34439 0.0
H84 H 0.03469 0.91421 0.08414 0.0
H85 H 0.99027 0.15821 0.99054 0.0
H86 H 0.0344 0.58374 0.41933 0.0
H87 H 0.99053 0.33962 0.51366 0.0
Li88 Li 0.42259 0.80193 0.20305 0.0
Li89 Li 0.42259 0.69604 0.3014 0.0
Li90 Li 0.37121 0.68529 0.20751 0.0
Li91 Li 0.37123 0.81272 0.29694 0.0
C92 C 0.45288 0.60197 0.18993 0.0
N93 N 0.50483 0.46386 0.18517 0.0
C94 C 0.49152 0.61835 0.20271 0.0
C95 C 0.44072 0.51556 0.1738 0.0
C96 C 0.51732 0.54758 0.20035 0.0
C97 C 0.46741 0.44657 0.17187 0.0
C98 C 0.45289 0.89601 0.31457 0.0
C99 C 0.46741 0.05137 0.33287 0.0
N100 N 0.50482 0.03414 0.31942 0.0
C101 C 0.49152 0.87969 0.30163 0.0
C102 C 0.44073 0.98236 0.3309 0.0
C103 C 0.51731 0.95047 0.30405 0.0
C104 C 0.4483 0.96124 0.13501 0.0
N105 N 0.45153 0.87107 0.13529 0.0
C106 C 0.49308 0.87586 0.03116 0.0
C107 C 0.47325 0.82793 0.08472 0.0
C108 C 0.49073 0.96937 0.02972 0.0
C109 C 0.46801 0.01196 0.08298 0.0
H110 H 0.43004 0.99374 0.1747 0.0
H111 H 0.4746 0.75605 0.08509 0.0
C112 C 0.44817 0.53672 0.36962 0.0
N113 N 0.45152 0.62686 0.36915 0.0
C114 C 0.46788 0.48599 0.42168 0.0
C115 C 0.49322 0.62204 0.47308 0.0
C116 C 0.47338 0.66998 0.41952 0.0
C117 C 0.49073 0.52856 0.47473 0.0
H118 H 0.42982 0.50425 0.33007 0.0
H119 H 0.47484 0.74185 0.419 0.0
C120 C 0.33897 0.85344 0.14831 0.0
N121 N 0.2818 0.92806 0.06398 0.0
C122 C 0.30116 0.85077 0.17257 0.0
C123 C 0.3477 0.89427 0.08127 0.0
C124 C 0.27267 0.88897 0.12918 0.0
C125 C 0.31838 0.93159 0.0394 0.0
C126 C 0.33894 0.64466 0.35613 0.0
C127 C 0.30113 0.64736 0.33182 0.0
C128 C 0.34763 0.60389 0.42321 0.0
C129 C 0.27262 0.60926 0.37521 0.0
C130 C 0.31829 0.56667 0.46507 0.0
N131 N 0.28173 0.57023 0.44045 0.0
C132 C 0.3294 0.52959 0.19269 0.0
C133 C 0.31191 0.64034 0.10593 0.0
C134 C 0.29617 0.48202 0.17796 0.0
N135 N 0.33565 0.60927 0.15937 0.0
C136 C 0.27794 0.59558 0.09037 0.0
C137 C 0.26939 0.51736 0.12878 0.0
H138 H 0.34847 0.5071 0.23564 0.0
H139 H 0.31779 0.7029 0.07915 0.0
C140 C 0.32946 0.96849 0.31169 0.0
N141 N 0.33567 0.88881 0.34503 0.0
C142 C 0.29623 0.0161 0.32633 0.0
C143 C 0.27793 0.90258 0.41388 0.0
C144 C 0.3119 0.85778 0.39842 0.0
C145 C 0.26941 0.9808 0.37543 0.0
H146 H 0.34856 0.99094 0.26878 0.0
H147 H 0.31774 0.79522 0.42522 0.0
O148 O 0.42718 0.67037 0.19191 0.0
O149 O 0.42719 0.82759 0.31255 0.0
O150 O 0.36734 0.81565 0.18943 0.0
O151 O 0.36733 0.68236 0.31502 0.0
H152 H 0.50146 0.68498 0.21431 0.0
H153 H 0.41099 0.5019 0.16291 0.0
H154 H 0.54729 0.55924 0.21045 0.0
H155 H 0.45838 0.3793 0.15975 0.0
H156 H 0.45838 0.1186 0.34514 0.0
H157 H 0.50146 0.8131 0.28988 0.0
H158 H 0.41101 0.99597 0.34191 0.0
H159 H 0.54727 0.93886 0.29383 0.0
H160 H 0.50946 0.83966 0.99049 0.0
H161 H 0.46556 0.08375 0.08483 0.0
H162 H 0.46531 0.41422 0.42001 0.0
H163 H 0.50972 0.65823 0.51359 0.0
H164 H 0.29384 0.81955 0.22426 0.0
H165 H 0.37677 0.89655 0.06153 0.0
H166 H 0.24331 0.88753 0.14731 0.0
H167 H 0.32468 0.9632 0.9873 0.0
H168 H 0.29384 0.67854 0.2801 0.0
H169 H 0.37671 0.60159 0.44299 0.0
H170 H 0.24327 0.61073 0.35704 0.0
H171 H 0.32458 0.53509 0.51721 0.0
H172 H 0.28998 0.42221 0.20911 0.0
H173 H 0.25762 0.62442 0.05234 0.0
H174 H 0.29007 0.07591 0.29514 0.0
H175 H 0.25758 0.87376 0.45187 0.0
Li176 Li 0.86934 0.80739 0.7046 0.0
Li177 Li 0.91829 0.8066 0.80307 0.0
Li178 Li 0.91817 0.69159 0.7004 0.0
Li179 Li 0.8693 0.69132 0.79841 0.0
C180 C 0.93442 0.89753 0.65378 0.0
N181 N 0.95298 0.04757 0.57336 0.0
C182 C 0.93331 0.98149 0.68683 0.0
C183 C 0.94529 0.88976 0.57999 0.0
C184 C 0.94272 0.05658 0.6452 0.0
C185 C 0.95446 0.96645 0.5402 0.0
C186 C 0.84899 0.84348 0.87925 0.0
C187 C 0.84949 0.82808 0.01134 0.0
N188 N 0.82115 0.8896 0.01621 0.0
C189 C 0.81978 0.9062 0.88542 0.0
C190 C 0.86392 0.8038 0.94255 0.0
C191 C 0.80613 0.92878 0.95523 0.0
C192 C 0.79687 0.83692 0.66173 0.0
N193 N 0.83184 0.87426 0.6531 0.0
C194 C 0.80388 0.00507 0.60147 0.0
C195 C 0.83608 0.95543 0.62105 0.0
C196 C 0.76723 0.97082 0.61577 0.0
C197 C 0.76411 0.88385 0.64319 0.0
H198 H 0.79428 0.77261 0.68776 0.0
H199 H 0.86405 0.98404 0.61451 0.0
C200 C 0.98282 0.84899 0.89079 0.0
N201 N 0.94787 0.87753 0.86886 0.0
C202 C 0.00363 0.89767 0.94272 0.0
C203 C 0.95204 0.00396 0.9484 0.0
C204 C 0.93248 0.95383 0.89596 0.0
C205 C 0.98815 0.97613 0.97282 0.0
H206 H 0.99436 0.78792 0.86843 0.0
H207 H 0.90468 0.97535 0.87758 0.0
C208 C 0.84978 0.65509 0.62302 0.0
N209 N 0.82398 0.60852 0.48466 0.0
C210 C 0.82146 0.59039 0.61525 0.0
C211 C 0.86481 0.69652 0.56061 0.0
C212 C 0.80885 0.56761 0.54476 0.0
C213 C 0.85143 0.67198 0.49108 0.0
C214 C 0.93391 0.6009 0.8502 0.0
C215 C 0.93268 0.51664 0.81768 0.0
C216 C 0.94453 0.6092 0.92409 0.0
C217 C 0.94172 0.4418 0.85992 0.0
C218 C 0.95334 0.53274 0.96449 0.0
N219 N 0.95175 0.45134 0.93184 0.0
C220 C 0.98264 0.64929 0.61258 0.0
C221 C 0.93254 0.54378 0.60817 0.0
C222 C 0.00347 0.60057 0.56073 0.0
N223 N 0.94779 0.62046 0.63482 0.0
C224 C 0.95212 0.4936 0.55579 0.0
C225 C 0.98812 0.52176 0.53101 0.0
H226 H 0.99407 0.71064 0.63462 0.0
H227 H 0.90483 0.52199 0.62682 0.0
C228 C 0.79669 0.66181 0.83948 0.0
N229 N 0.83163 0.62504 0.84996 0.0
C230 C 0.76386 0.6154 0.85834 0.0
C231 C 0.80344 0.49592 0.90398 0.0
C232 C 0.83574 0.54505 0.88404 0.0
C233 C 0.76686 0.5295 0.88803 0.0
H234 H 0.79423 0.72521 0.8119 0.0
H235 H 0.86369 0.5169 0.8921 0.0
O236 O 0.92602 0.82303 0.69394 0.0
O237 O 0.86266 0.82076 0.81131 0.0
O238 O 0.86245 0.67794 0.69166 0.0
O239 O 0.92589 0.67513 0.80944 0.0
H240 H 0.92489 0.98875 0.74371 0.0
H241 H 0.94687 0.82517 0.55379 0.0
H242 H 0.94178 0.12203 0.66998 0.0
H243 H 0.96287 0.96146 0.48304 0.0
H244 H 0.86081 0.79802 0.06085 0.0
H245 H 0.80786 0.93719 0.83675 0.0
H246 H 0.88635 0.75479 0.93849 0.0
H247 H 0.78365 0.97752 0.96093 0.0
H248 H 0.8076 0.07155 0.57959 0.0
H249 H 0.7367 0.85486 0.65636 0.0
H250 H 0.03159 0.87416 0.95873 0.0
H251 H 0.93856 0.06298 0.97052 0.0
H252 H 0.80946 0.55801 0.66322 0.0
H253 H 0.88653 0.74707 0.56589 0.0
H254 H 0.78709 0.51735 0.53782 0.0
H255 H 0.86286 0.70339 0.44225 0.0
H256 H 0.92446 0.50898 0.76072 0.0
H257 H 0.9462 0.67401 0.94988 0.0
H258 H 0.9407 0.37614 0.83555 0.0
H259 H 0.96157 0.53814 0.02174 0.0
H260 H 0.03135 0.62434 0.54447 0.0
H261 H 0.93873 0.43429 0.53398 0.0
H262 H 0.73651 0.64381 0.84383 0.0
H263 H 0.80707 0.43026 0.92757 0.0
Li264 Li 0.63069 0.19137 0.70579 0.0
Li265 Li 0.58181 0.19165 0.80379 0.0
Li266 Li 0.5817 0.30665 0.70111 0.0
Li267 Li 0.63064 0.30744 0.7996 0.0
C268 C 0.56608 0.10096 0.65397 0.0
N269 N 0.54824 0.95144 0.5723 0.0
C270 C 0.56729 0.0167 0.68648 0.0
C271 C 0.55547 0.10929 0.58007 0.0
C272 C 0.55825 0.94188 0.64423 0.0
C273 C 0.54667 0.03285 0.53965 0.0
C274 C 0.65021 0.15515 0.88118 0.0
C275 C 0.64855 0.17205 0.01312 0.0
N276 N 0.67603 0.10863 0.01954 0.0
C277 C 0.67854 0.09051 0.88895 0.0
C278 C 0.63516 0.19657 0.9436 0.0
C279 C 0.69116 0.06775 0.95944 0.0
C280 C 0.7033 0.16184 0.66473 0.0
N281 N 0.66836 0.12507 0.65425 0.0
C282 C 0.69655 0.99592 0.60026 0.0
C283 C 0.66425 0.04507 0.62018 0.0
C284 C 0.73312 0.0295 0.61621 0.0
C285 C 0.73613 0.11541 0.64588 0.0
H286 H 0.70576 0.22524 0.6923 0.0
H287 H 0.6363 0.01694 0.61212 0.0
C288 C 0.51734 0.14934 0.8916 0.0
N289 N 0.55219 0.12052 0.86936 0.0
C290 C 0.4965 0.10061 0.94343 0.0
C291 C 0.54786 0.99365 0.94838 0.0
C292 C 0.56744 0.04384 0.89601 0.0
C293 C 0.51186 0.0218 0.97315 0.0
H294 H 0.5059 0.21069 0.86956 0.0
H295 H 0.59515 0.02206 0.87736 0.0
C296 C 0.65101 0.34354 0.62497 0.0
N297 N 0.67888 0.3897 0.48804 0.0
C298 C 0.68022 0.40626 0.61884 0.0
C299 C 0.63611 0.30387 0.56165 0.0
C300 C 0.69388 0.42887 0.54904 0.0
C301 C 0.65055 0.32817 0.49287 0.0
C302 C 0.56556 0.3976 0.85039 0.0
C303 C 0.56668 0.48156 0.81733 0.0
C304 C 0.55469 0.38986 0.92418 0.0
C305 C 0.55728 0.55666 0.85895 0.0
C306 C 0.54552 0.46656 0.96396 0.0
N307 N 0.54701 0.54767 0.93079 0.0
C308 C 0.51717 0.34903 0.61338 0.0
C309 C 0.56751 0.45386 0.6082 0.0
C310 C 0.49636 0.3977 0.56144 0.0
N311 N 0.55212 0.37757 0.63531 0.0
C312 C 0.54795 0.50398 0.55575 0.0
C313 C 0.51185 0.47615 0.53133 0.0
H314 H 0.50563 0.28797 0.63574 0.0
H315 H 0.59531 0.47539 0.62658 0.0
C316 C 0.70311 0.33696 0.84246 0.0
N317 N 0.66814 0.37431 0.8511 0.0
C318 C 0.73587 0.38388 0.86102 0.0
C319 C 0.6961 0.50509 0.90277 0.0
C320 C 0.6639 0.45546 0.88317 0.0
C321 C 0.73275 0.47084 0.88846 0.0
H322 H 0.7057 0.27265 0.81642 0.0
H323 H 0.63593 0.48408 0.88972 0.0
O324 O 0.57409 0.17518 0.69475 0.0
O325 O 0.63753 0.17799 0.81254 0.0
O326 O 0.63732 0.32081 0.69289 0.0
O327 O 0.57396 0.32309 0.81024 0.0
H328 H 0.57549 0.00902 0.74345 0.0
H329 H 0.55382 0.17411 0.55429 0.0
H330 H 0.55926 0.87621 0.66859 0.0
H331 H 0.53845 0.03827 0.4824 0.0
H332 H 0.63711 0.20344 0.06195 0.0
H333 H 0.69055 0.05815 0.84098 0.0
H334 H 0.61342 0.24707 0.93831 0.0
H335 H 0.71295 0.01753 0.96638 0.0
H336 H 0.69292 0.93027 0.57667 0.0
H337 H 0.76348 0.14381 0.66039 0.0
H338 H 0.46862 0.12437 0.95969 0.0
H339 H 0.56125 0.93434 0.97019 0.0
H340 H 0.69213 0.43725 0.66752 0.0
H341 H 0.61367 0.25486 0.56568 0.0
H342 H 0.71637 0.47761 0.54337 0.0
H343 H 0.63924 0.29812 0.44335 0.0
H344 H 0.5751 0.48881 0.76046 0.0
H345 H 0.5531 0.32527 0.95039 0.0
H346 H 0.55822 0.6221 0.83416 0.0
H347 H 0.5371 0.46159 0.02112 0.0
H348 H 0.46841 0.3742 0.54543 0.0
H349 H 0.56144 0.563 0.53362 0.0
H350 H 0.76328 0.35489 0.84785 0.0
H351 H 0.69238 0.57158 0.92466 0.0
loop_
_geom_bond_atom_site_label_1
_geom_bond_atom_site_label_2
_geom_bond_distance
_geom_bond_site_symmetry_2
_ccdc_geom_bond_type
Li0 N17 1.990 . S
Li0 O60 1.956 . S
Li0 O61 1.970 . S
Li0 O62 1.961 . S
Li1 N25 1.990 . S
Li1 O60 1.970 . S
Li1 O61 1.956 . S
Li1 O63 1.961 . S
Li2 N47 1.990 . S
Li2 O60 1.961 . S
Li2 O62 1.956 . S
Li2 O63 1.970 . S
Li3 N53 1.990 . S
Li3 O61 1.961 . S
Li3 O62 1.970 . S
Li3 O63 1.956 . S
C4 C6 1.348 . S
C4 C7 1.356 . S
C4 O60 1.325 . S
N5 C8 1.314 . S
N5 C9 1.279 1_554 S
C6 C4 1.348 . S
C6 C8 1.353 . S
C6 H64 0.929 . S
C7 C4 1.356 . S
C7 C9 1.358 1_554 S
C7 H65 0.930 . S
C8 N5 1.314 . S
C8 C6 1.353 . S
C8 H66 0.930 . S
C9 N5 1.279 1_556 S
C9 C7 1.358 1_556 S
C9 H67 0.930 . S
C10 C13 1.348 . S
C10 C14 1.356 . S
C10 O61 1.325 . S
C11 N12 1.279 . S
C11 C14 1.358 . S
C11 H68 0.930 . S
N12 C11 1.279 . S
N12 C15 1.314 . S
C13 C10 1.348 . S
C13 C15 1.353 . S
C13 H69 0.929 . S
C14 C10 1.356 . S
C14 C11 1.358 . S
C14 H70 0.930 . S
C15 N12 1.314 . S
C15 C13 1.353 . S
C15 H71 0.930 . S
C16 N17 1.314 . S
C16 C21 1.353 . S
C16 H22 0.930 . S
N17 Li0 1.990 . S
N17 C16 1.314 . S
N17 C19 1.279 . S
C18 C19 1.358 . S
C18 C20 1.356 . S
C18 H72 0.930 . S
C19 N17 1.279 . S
C19 C18 1.358 . S
C19 H23 0.930 . S
C20 C18 1.356 . S
C20 C21 1.348 . S
C21 C16 1.353 . S
C21 C20 1.348 . S
C21 H73 0.929 . S
H22 C16 0.930 . S
H23 C19 0.930 . S
C24 N25 1.314 1_565 S
C24 C26 1.353 . S
C24 H30 0.930 . S
N25 Li1 1.990 . S
N25 C24 1.314 1_545 S
N25 C28 1.279 . S
C26 C24 1.353 . S
C26 C29 1.348 . S
C26 H74 0.929 . S
C27 C28 1.358 . S
C27 C29 1.356 1_545 S
C27 H75 0.930 . S
C28 N25 1.279 . S
C28 C27 1.358 . S
C28 H31 0.930 . S
C29 C26 1.348 . S
C29 C27 1.356 1_565 S
H30 C24 0.930 . S
H31 C28 0.930 . S
C32 C34 1.348 . S
C32 C35 1.356 . S
C32 O62 1.325 . S
N33 C36 1.314 . S
N33 C37 1.279 . S
C34 C32 1.348 . S
C34 C36 1.353 . S
C34 H76 0.929 . S
C35 C32 1.356 . S
C35 C37 1.358 . S
C35 H77 0.930 . S
C36 N33 1.314 . S
C36 C34 1.353 . S
C36 H78 0.930 1_455 S
C37 N33 1.279 . S
C37 C35 1.358 . S
C37 H79 0.930 . S
C38 C39 1.348 . S
C38 C40 1.356 . S
C38 O63 1.325 . S
C39 C38 1.348 . S
C39 C41 1.353 . S
C39 H80 0.929 . S
C40 C38 1.356 . S
C40 C42 1.358 1_545 S
C40 H81 0.930 . S
C41 C39 1.353 . S
C41 N43 1.314 1_545 S
C41 H82 0.930 1_445 S
C42 C40 1.358 1_565 S
C42 N43 1.279 . S
C42 H83 0.930 . S
N43 C41 1.314 1_565 S
N43 C42 1.279 . S
C44 C46 1.353 . S
C44 N47 1.314 . S
C44 H50 0.930 . S
C45 N47 1.279 . S
C45 C48 1.377 . S
C45 H51 0.930 . S
C46 C44 1.353 . S
C46 C49 1.348 1_554 S
C46 H84 0.929 1_554 S
N47 Li2 1.990 . S
N47 C44 1.314 . S
N47 C45 1.279 . S
C48 C45 1.377 . S
C48 C49 1.361 1_554 S
C48 H85 0.907 1_455 S
C49 C46 1.348 1_556 S
C49 C48 1.361 1_556 S
H50 C44 0.930 . S
H51 C45 0.930 . S
C52 N53 1.314 . S
C52 C54 1.353 . S
C52 H58 0.930 . S
N53 Li3 1.990 . S
N53 C52 1.314 . S
N53 C56 1.279 . S
C54 C52 1.353 . S
C54 C57 1.348 . S
C54 H86 0.929 . S
C55 C56 1.377 . S
C55 C57 1.361 . S
C55 H87 0.907 1_455 S
C56 N53 1.279 . S
C56 C55 1.377 . S
C56 H59 0.930 . S
C57 C54 1.348 . S
C57 C55 1.361 . S
H58 C52 0.930 . S
H59 C56 0.930 . S
O60 Li0 1.956 . S
O60 Li1 1.970 . S
O60 Li2 1.961 . S
O60 C4 1.325 . S
O61 Li0 1.970 . S
O61 Li1 1.956 . S
O61 Li3 1.961 . S
O61 C10 1.325 . S
O62 Li0 1.961 . S
O62 Li2 1.956 . S
O62 Li3 1.970 . S
O62 C32 1.325 . S
O63 Li1 1.961 . S
O63 Li2 1.970 . S
O63 Li3 1.956 . S
O63 C38 1.325 . S
H64 C6 0.929 . S
H65 C7 0.930 . S
H66 C8 0.930 . S
H67 C9 0.930 . S
H68 C11 0.930 . S
H69 C13 0.929 . S
H70 C14 0.930 . S
H71 C15 0.930 . S
H72 C18 0.930 . S
H73 C21 0.929 . S
H74 C26 0.929 . S
H75 C27 0.930 . S
H76 C34 0.929 . S
H77 C35 0.930 . S
H78 C36 0.930 1_655 S
H79 C37 0.930 . S
H80 C39 0.929 . S
H81 C40 0.930 . S
H82 C41 0.930 1_665 S
H83 C42 0.930 . S
H84 C46 0.929 1_556 S
H85 C48 0.907 1_655 S
H86 C54 0.929 . S
H87 C55 0.907 1_655 S
Li88 N105 1.990 . S
Li88 O148 1.956 . S
Li88 O149 1.970 . S
Li88 O150 1.961 . S
Li89 N113 1.990 . S
Li89 O148 1.970 . S
Li89 O149 1.956 . S
Li89 O151 1.961 . S
Li90 N135 1.990 . S
Li90 O148 1.961 . S
Li90 O150 1.956 . S
Li90 O151 1.970 . S
Li91 N141 1.990 . S
Li91 O149 1.961 . S
Li91 O150 1.970 . S
Li91 O151 1.956 . S
C92 C94 1.348 . S
C92 C95 1.356 . S
C92 O148 1.325 . S
N93 C96 1.314 . S
N93 C97 1.279 . S
C94 C92 1.348 . S
C94 C96 1.353 . S
C94 H152 0.929 . S
C95 C92 1.356 . S
C95 C97 1.358 . S
C95 H153 0.930 . S
C96 N93 1.314 . S
C96 C94 1.353 . S
C96 H154 0.930 . S
C97 N93 1.279 . S
C97 C95 1.358 . S
C97 H155 0.930 . S
C98 C101 1.348 . S
C98 C102 1.356 . S
C98 O149 1.325 . S
C99 N100 1.279 . S
C99 C102 1.358 1_545 S
C99 H156 0.930 . S
N100 C99 1.279 . S
N100 C103 1.314 1_545 S
C101 C98 1.348 . S
C101 C103 1.353 . S
C101 H157 0.929 . S
C102 C98 1.356 . S
C102 C99 1.358 1_565 S
C102 H158 0.930 . S
C103 N100 1.314 1_565 S
C103 C101 1.353 . S
C103 H159 0.930 1_565 S
C104 N105 1.314 . S
C104 C109 1.353 . S
C104 H110 0.930 . S
N105 Li88 1.990 . S
N105 C104 1.314 . S
N105 C107 1.279 . S
C106 C107 1.358 . S
C106 C108 1.356 1_554 S
C106 H160 0.930 . S
C107 N105 1.279 . S
C107 C106 1.358 . S
C107 H111 0.930 . S
C108 C106 1.356 1_556 S
C108 C109 1.348 1_556 S
C109 C104 1.353 . S
C109 C108 1.348 1_554 S
C109 H161 0.929 1_554 S
H110 C104 0.930 . S
H111 C107 0.930 . S
C112 N113 1.314 . S
C112 C114 1.353 . S
C112 H118 0.930 . S
N113 Li89 1.990 . S
N113 C112 1.314 . S
N113 C116 1.279 . S
C114 C112 1.353 . S
C114 C117 1.348 . S
C114 H162 0.929 . S
C115 C116 1.358 . S
C115 C117 1.356 . S
C115 H163 0.930 . S
C116 N113 1.279 . S
C116 C115 1.358 . S
C116 H119 0.930 . S
C117 C114 1.348 . S
C117 C115 1.356 . S
H118 C112 0.930 . S
H119 C116 0.930 . S
C120 C122 1.348 . S
C120 C123 1.356 . S
C120 O150 1.325 . S
N121 C124 1.314 . S
N121 C125 1.279 1_554 S
C122 C120 1.348 . S
C122 C124 1.353 . S
C122 H164 0.929 . S
C123 C120 1.356 . S
C123 C125 1.358 1_554 S
C123 H165 0.930 . S
C124 N121 1.314 . S
C124 C122 1.353 . S
C124 H166 0.930 . S
C125 N121 1.279 1_556 S
C125 C123 1.358 1_556 S
C125 H167 0.930 . S
C126 C127 1.348 . S
C126 C128 1.356 . S
C126 O151 1.325 . S
C127 C126 1.348 . S
C127 C129 1.353 . S
C127 H168 0.929 . S
C128 C126 1.356 . S
C128 C130 1.358 . S
C128 H169 0.930 . S
C129 C127 1.353 . S
C129 N131 1.314 . S
C129 H170 0.930 . S
C130 C128 1.358 . S
C130 N131 1.279 . S
C130 H171 0.930 . S
N131 C129 1.314 . S
N131 C130 1.279 . S
C132 C134 1.353 . S
C132 N135 1.314 . S
C132 H138 0.930 . S
C133 N135 1.279 . S
C133 C136 1.358 . S
C133 H139 0.930 . S
C134 C132 1.353 . S
C134 C137 1.348 . S
C134 H172 0.929 . S
N135 Li90 1.990 . S
N135 C132 1.314 . S
N135 C133 1.279 . S
C136 C133 1.358 . S
C136 C137 1.356 . S
C136 H173 0.930 . S
C137 C134 1.348 . S
C137 C136 1.356 . S
H138 C132 0.930 . S
H139 C133 0.930 . S
C140 N141 1.314 1_545 S
C140 C142 1.353 . S
C140 H146 0.930 . S
N141 Li91 1.990 . S
N141 C140 1.314 1_565 S
N141 C144 1.279 . S
C142 C140 1.353 . S
C142 C145 1.348 . S
C142 H174 0.929 . S
C143 C144 1.358 . S
C143 C145 1.356 1_565 S
C143 H175 0.930 . S
C144 N141 1.279 . S
C144 C143 1.358 . S
C144 H147 0.930 . S
C145 C142 1.348 . S
C145 C143 1.356 1_545 S
H146 C140 0.930 . S
H147 C144 0.930 . S
O148 Li88 1.956 . S
O148 Li89 1.970 . S
O148 Li90 1.961 . S
O148 C92 1.325 . S
O149 Li88 1.970 . S
O149 Li89 1.956 . S
O149 Li91 1.961 . S
O149 C98 1.325 . S
O150 Li88 1.961 . S
O150 Li90 1.956 . S
O150 Li91 1.970 . S
O150 C120 1.325 . S
O151 Li89 1.961 . S
O151 Li90 1.970 . S
O151 Li91 1.956 . S
O151 C126 1.325 . S
H152 C94 0.929 . S
H153 C95 0.930 . S
H154 C96 0.930 . S
H155 C97 0.930 . S
H156 C99 0.930 . S
H157 C101 0.929 . S
H158 C102 0.930 . S
H159 C103 0.930 1_545 S
H160 C106 0.930 . S
H161 C109 0.929 1_556 S
H162 C114 0.929 . S
H163 C115 0.930 . S
H164 C122 0.929 . S
H165 C123 0.930 . S
H166 C124 0.930 . S
H167 C125 0.930 . S
H168 C127 0.929 . S
H169 C128 0.930 . S
H170 C129 0.930 . S
H171 C130 0.930 . S
H172 C134 0.929 . S
H173 C136 0.930 . S
H174 C142 0.929 . S
H175 C143 0.930 . S
Li176 N193 1.990 . S
Li176 O236 1.956 . S
Li176 O237 1.970 . S
Li176 O238 1.961 . S
Li177 N201 1.990 . S
Li177 O236 1.970 . S
Li177 O237 1.956 . S
Li177 O239 1.961 . S
Li178 N223 1.990 . S
Li178 O236 1.961 . S
Li178 O238 1.956 . S
Li178 O239 1.970 . S
Li179 N229 1.990 . S
Li179 O237 1.961 . S
Li179 O238 1.970 . S
Li179 O239 1.956 . S
C180 C182 1.348 . S
C180 C183 1.356 . S
C180 O236 1.325 . S
N181 C184 1.314 . S
N181 C185 1.279 1_545 S
C182 C180 1.348 . S
C182 C184 1.353 1_565 S
C182 H240 0.929 . S
C183 C180 1.356 . S
C183 C185 1.358 . S
C183 H241 0.930 . S
C184 N181 1.314 . S
C184 C182 1.353 1_545 S
C184 H242 0.930 . S
C185 N181 1.279 1_565 S
C185 C183 1.358 . S
C185 H243 0.930 1_565 S
C186 C189 1.348 . S
C186 C190 1.356 . S
C186 O237 1.325 . S
C187 N188 1.279 1_556 S
C187 C190 1.358 . S
C187 H244 0.930 1_556 S
N188 C187 1.279 1_554 S
N188 C191 1.305 1_554 S
C189 C186 1.348 . S
C189 C191 1.353 . S
C189 H245 0.929 . S
C190 C186 1.356 . S
C190 C187 1.358 . S
C190 H246 0.930 . S
C191 N188 1.305 1_556 S
C191 C189 1.353 . S
C191 H247 0.930 . S
C192 N193 1.314 . S
C192 C197 1.353 . S
C192 H198 0.930 . S
N193 Li176 1.990 . S
N193 C192 1.314 . S
N193 C195 1.279 1_565 S
C194 C195 1.358 . S
C194 C196 1.356 . S
C194 H248 0.930 . S
C195 N193 1.279 1_545 S
C195 C194 1.358 . S
C195 H199 0.930 . S
C196 C194 1.356 . S
C196 C197 1.348 1_545 S
C197 C192 1.353 . S
C197 C196 1.348 1_565 S
C197 H249 0.929 . S
H198 C192 0.930 . S
H199 C195 0.930 . S
C200 N201 1.314 . S
C200 C202 1.353 1_655 S
C200 H206 0.930 . S
N201 Li177 1.990 . S
N201 C200 1.314 . S
N201 C204 1.279 . S
C202 C200 1.353 1_455 S
C202 C205 1.348 1_456 S
C202 H250 0.929 . S
C203 C204 1.358 1_554 S
C203 C205 1.356 . S
C203 H251 0.930 . S
C204 N201 1.279 . S
C204 C203 1.358 1_556 S
C204 H207 0.930 . S
C205 C202 1.348 1_654 S
C205 C203 1.356 . S
H206 C200 0.930 . S
H207 C204 0.930 . S
C208 C210 1.348 . S
C208 C211 1.356 . S
C208 O238 1.325 . S
N209 C212 1.314 . S
N209 C213 1.279 . S
C210 C208 1.348 . S
C210 C212 1.353 . S
C210 H252 0.929 . S
C211 C208 1.356 . S
C211 C213 1.358 . S
C211 H253 0.930 . S
C212 N209 1.314 . S
C212 C210 1.353 . S
C212 H254 0.930 . S
C213 N209 1.279 . S
C213 C211 1.358 . S
C213 H255 0.930 . S
C214 C215 1.348 . S
C214 C216 1.356 . S
C214 O239 1.325 . S
C215 C214 1.348 . S
C215 C217 1.353 . S
C215 H256 0.929 . S
C216 C214 1.356 . S
C216 C218 1.358 . S
C216 H257 0.930 . S
C217 C215 1.353 . S
C217 N219 1.314 . S
C217 H258 0.930 . S
C218 C216 1.358 . S
C218 N219 1.279 . S
C218 H259 0.930 . S
N219 C217 1.314 . S
N219 C218 1.279 . S
C220 C222 1.353 1_655 S
C220 N223 1.314 . S
C220 H226 0.930 . S
C221 N223 1.279 . S
C221 C224 1.358 . S
C221 H227 0.930 . S
C222 C220 1.353 1_455 S
C222 C225 1.348 1_455 S
C222 H260 0.929 . S
N223 Li178 1.990 . S
N223 C220 1.314 . S
N223 C221 1.279 . S
C224 C221 1.358 . S
C224 C225 1.356 . S
C224 H261 0.930 . S
C225 C222 1.348 1_655 S
C225 C224 1.356 . S
H226 C220 0.930 . S
H227 C221 0.930 . S
C228 N229 1.314 . S
C228 C230 1.353 . S
C228 H234 0.930 . S
N229 Li179 1.990 . S
N229 C228 1.314 . S
N229 C232 1.279 . S
C230 C228 1.353 . S
C230 C233 1.348 . S
C230 H262 0.929 . S
C231 C232 1.358 . S
C231 C233 1.356 . S
C231 H263 0.930 . S
C232 N229 1.279 . S
C232 C231 1.358 . S
C232 H235 0.930 . S
C233 C230 1.348 . S
C233 C231 1.356 . S
H234 C228 0.930 . S
H235 C232 0.930 . S
O236 Li176 1.956 . S
O236 Li177 1.970 . S
O236 Li178 1.961 . S
O236 C180 1.325 . S
O237 Li176 1.970 . S
O237 Li177 1.956 . S
O237 Li179 1.961 . S
O237 C186 1.325 . S
O238 Li176 1.961 . S
O238 Li178 1.956 . S
O238 Li179 1.970 . S
O238 C208 1.325 . S
O239 Li177 1.961 . S
O239 Li178 1.970 . S
O239 Li179 1.956 . S
O239 C214 1.325 . S
H240 C182 0.929 . S
H241 C183 0.930 . S
H242 C184 0.930 . S
H243 C185 0.930 1_545 S
H244 C187 0.930 1_554 S
H245 C189 0.929 . S
H246 C190 0.930 . S
H247 C191 0.930 . S
H248 C194 0.930 . S
H249 C197 0.929 . S
H250 C202 0.929 . S
H251 C203 0.930 . S
H252 C210 0.929 . S
H253 C211 0.930 . S
H254 C212 0.930 . S
H255 C213 0.930 . S
H256 C215 0.929 . S
H257 C216 0.930 . S
H258 C217 0.930 . S
H259 C218 0.930 . S
H260 C222 0.929 . S
H261 C224 0.930 . S
H262 C230 0.929 . S
H263 C231 0.930 . S
Li264 N281 1.990 . S
Li264 O324 1.956 . S
Li264 O325 1.970 . S
Li264 O326 1.961 . S
Li265 N289 1.990 . S
Li265 O324 1.970 . S
Li265 O325 1.956 . S
Li265 O327 1.961 . S
Li266 N311 1.990 . S
Li266 O324 1.961 . S
Li266 O326 1.956 . S
Li266 O327 1.970 . S
Li267 N317 1.990 . S
Li267 O325 1.961 . S
Li267 O326 1.970 . S
Li267 O327 1.956 . S
C268 C270 1.348 . S
C268 C271 1.356 . S
C268 O324 1.325 . S
N269 C272 1.314 . S
N269 C273 1.279 1_565 S
C270 C268 1.348 . S
C270 C272 1.353 1_545 S
C270 H328 0.929 . S
C271 C268 1.356 . S
C271 C273 1.358 . S
C271 H329 0.930 . S
C272 N269 1.314 . S
C272 C270 1.353 1_565 S
C272 H330 0.930 . S
C273 N269 1.279 1_545 S
C273 C271 1.358 . S
C273 H331 0.930 1_545 S
C274 C277 1.348 . S
C274 C278 1.356 . S
C274 O325 1.325 . S
C275 N276 1.279 1_556 S
C275 C278 1.358 . S
C275 H332 0.930 1_556 S
N276 C275 1.279 1_554 S
N276 C279 1.305 1_554 S
C277 C274 1.348 . S
C277 C279 1.353 . S
C277 H333 0.929 . S
C278 C274 1.356 . S
C278 C275 1.358 . S
C278 H334 0.930 . S
C279 N276 1.305 1_556 S
C279 C277 1.353 . S
C279 H335 0.930 . S
C280 N281 1.314 . S
C280 C285 1.353 . S
C280 H286 0.930 . S
N281 Li264 1.990 . S
N281 C280 1.314 . S
N281 C283 1.279 1_545 S
C282 C283 1.358 . S
C282 C284 1.356 . S
C282 H336 0.930 . S
C283 N281 1.279 1_565 S
C283 C282 1.358 . S
C283 H287 0.930 . S
C284 C282 1.356 . S
C284 C285 1.348 1_565 S
C285 C280 1.353 . S
C285 C284 1.348 1_545 S
C285 H337 0.929 . S
H286 C280 0.930 . S
H287 C283 0.930 . S
C288 N289 1.314 . S
C288 C290 1.353 . S
C288 H294 0.930 . S
N289 Li265 1.990 . S
N289 C288 1.314 . S
N289 C292 1.279 . S
C290 C288 1.353 . S
C290 C293 1.348 1_556 S
C290 H338 0.929 . S
C291 C292 1.358 1_554 S
C291 C293 1.356 . S
C291 H339 0.930 . S
C292 N289 1.279 . S
C292 C291 1.358 1_556 S
C292 H295 0.930 . S
C293 C290 1.348 1_554 S
C293 C291 1.356 . S
H294 C288 0.930 . S
H295 C292 0.930 . S
C296 C298 1.348 . S
C296 C299 1.356 . S
C296 O326 1.325 . S
N297 C300 1.314 . S
N297 C301 1.279 . S
C298 C296 1.348 . S
C298 C300 1.353 . S
C298 H340 0.929 . S
C299 C296 1.356 . S
C299 C301 1.358 . S
C299 H341 0.930 . S
C300 N297 1.314 . S
C300 C298 1.353 . S
C300 H342 0.930 . S
C301 N297 1.279 . S
C301 C299 1.358 . S
C301 H343 0.930 . S
C302 C303 1.348 . S
C302 C304 1.356 . S
C302 O327 1.325 . S
C303 C302 1.348 . S
C303 C305 1.353 . S
C303 H344 0.929 . S
C304 C302 1.356 . S
C304 C306 1.358 . S
C304 H345 0.930 . S
C305 C303 1.353 . S
C305 N307 1.314 . S
C305 H346 0.930 . S
C306 C304 1.358 . S
C306 N307 1.279 . S
C306 H347 0.930 . S
N307 C305 1.314 . S
N307 C306 1.279 . S
C308 C310 1.353 . S
C308 N311 1.314 . S
C308 H314 0.930 . S
C309 N311 1.279 . S
C309 C312 1.358 . S
C309 H315 0.930 . S
C310 C308 1.353 . S
C310 C313 1.348 . S
C310 H348 0.929 . S
N311 Li266 1.990 . S
N311 C308 1.314 . S
N311 C309 1.279 . S
C312 C309 1.358 . S
C312 C313 1.356 . S
C312 H349 0.930 . S
C313 C310 1.348 . S
C313 C312 1.356 . S
H314 C308 0.930 . S
H315 C309 0.930 . S
C316 N317 1.314 . S
C316 C318 1.353 . S
C316 H322 0.930 . S
N317 Li267 1.990 . S
N317 C316 1.314 . S
N317 C320 1.279 . S
C318 C316 1.353 . S
C318 C321 1.348 . S
C318 H350 0.929 . S
C319 C320 1.358 . S
C319 C321 1.356 . S
C319 H351 0.930 . S
C320 N317 1.279 . S
C320 C319 1.358 . S
C320 H323 0.930 . S
C321 C318 1.348 . S
C321 C319 1.356 . S
H322 C316 0.930 . S
H323 C320 0.930 . S
O324 Li264 1.956 . S
O324 Li265 1.970 . S
O324 Li266 1.961 . S
O324 C268 1.325 . S
O325 Li264 1.970 . S
O325 Li265 1.956 . S
O325 Li267 1.961 . S
O325 C274 1.325 . S
O326 Li264 1.961 . S
O326 Li266 1.956 . S
O326 Li267 1.970 . S
O326 C296 1.325 . S
O327 Li265 1.961 . S
O327 Li266 1.970 . S
O327 Li267 1.956 . S
O327 C302 1.325 . S
H328 C270 0.929 . S
H329 C271 0.930 . S
H330 C272 0.930 . S
H331 C273 0.930 1_565 S
H332 C275 0.930 1_554 S
H333 C277 0.929 . S
H334 C278 0.930 . S
H335 C279 0.930 . S
H336 C282 0.930 . S
H337 C285 0.929 . S
H338 C290 0.929 . S
H339 C291 0.930 . S
H340 C298 0.929 . S
H341 C299 0.930 . S
H342 C300 0.930 . S
H343 C301 0.930 . S
H344 C303 0.929 . S
H345 C304 0.930 . S
H346 C305 0.930 . S
H347 C306 0.930 . S
H348 C310 0.929 . S
H349 C312 0.930 . S
H350 C318 0.929 . S
H351 C319 0.930 . S
C145 C29 3.125 1_545 S
C20 C137 3.125 . S
C284 C196 3.150 1_565 S
C233 C321 3.150 . S
C49 C205 3.674 1_446 S
C293 C108 3.674 1_544 S
C225 C57 3.674 1_655 S
C117 C313 3.674 . S
