# Generated by pormake.
# Topology wkf, (6)-cn, num edge types: 1
# Building blocks:
#     Node 0, Type 0, BuildingBlock: HISSIN_clean_sbu_0, # of connection points: 6
#     Node 1, Type 0, BuildingBlock: HISSIN_clean_sbu_0, # of connection points: 6
#     Node 2, Type 0, BuildingBlock: HISSIN_clean_sbu_0, # of connection points: 6
#     Node 3, Type 0, BuildingBlock: HISSIN_clean_sbu_0, # of connection points: 6
#     Node 4, Type 0, BuildingBlock: HISSIN_clean_sbu_0, # of connection points: 6
#     Node 5, Type 0, BuildingBlock: HISSIN_clean_sbu_0, # of connection points: 6
#     Node 6, Type 0, BuildingBlock: HISSIN_clean_sbu_0, # of connection points: 6
#     Node 7, Type 0, BuildingBlock: HISSIN_clean_sbu_0, # of connection points: 6
#     Node 8, Type 0, BuildingBlock: HISSIN_clean_sbu_0, # of connection points: 6
#     Node 9, Type 0, BuildingBlock: HISSIN_clean_sbu_0, # of connection points: 6
#     Node 10, Type 0, BuildingBlock: HISSIN_clean_sbu_0, # of connection points: 6
#     Node 11, Type 0, BuildingBlock: HISSIN_clean_sbu_0, # of connection points: 6
#     Edge 12, Type (0, 0), BuildingBlock: EZIPEK_clean_linker_0, # of connection points: 2
#     Edge 13, Type (0, 0), BuildingBlock: EZIPEK_clean_linker_0, # of connection points: 2
#     Edge 14, Type (0, 0), BuildingBlock: EZIPEK_clean_linker_0, # of connection points: 2
#     Edge 15, Type (0, 0), BuildingBlock: EZIPEK_clean_linker_0, # of connection points: 2
#     Edge 16, Type (0, 0), BuildingBlock: EZIPEK_clean_linker_0, # of connection points: 2
#     Edge 17, Type (0, 0), BuildingBlock: EZIPEK_clean_linker_0, # of connection points: 2
#     Edge 18, Type (0, 0), BuildingBlock: EZIPEK_clean_linker_0, # of connection points: 2
#     Edge 19, Type (0, 0), BuildingBlock: EZIPEK_clean_linker_0, # of connection points: 2
#     Edge 20, Type (0, 0), BuildingBlock: EZIPEK_clean_linker_0, # of connection points: 2
#     Edge 21, Type (0, 0), BuildingBlock: EZIPEK_clean_linker_0, # of connection points: 2
#     Edge 22, Type (0, 0), BuildingBlock: EZIPEK_clean_linker_0, # of connection points: 2
#     Edge 23, Type (0, 0), BuildingBlock: EZIPEK_clean_linker_0, # of connection points: 2
#     Edge 24, Type (0, 0), BuildingBlock: EZIPEK_clean_linker_0, # of connection points: 2
#     Edge 25, Type (0, 0), BuildingBlock: EZIPEK_clean_linker_0, # of connection points: 2
#     Edge 26, Type (0, 0), BuildingBlock: EZIPEK_clean_linker_0, # of connection points: 2
#     Edge 27, Type (0, 0), BuildingBlock: EZIPEK_clean_linker_0, # of connection points: 2
#     Edge 28, Type (0, 0), BuildingBlock: EZIPEK_clean_linker_0, # of connection points: 2
#     Edge 29, Type (0, 0), BuildingBlock: EZIPEK_clean_linker_0, # of connection points: 2
#     Edge 30, Type (0, 0), BuildingBlock: EZIPEK_clean_linker_0, # of connection points: 2
#     Edge 31, Type (0, 0), BuildingBlock: EZIPEK_clean_linker_0, # of connection points: 2
#     Edge 32, Type (0, 0), BuildingBlock: EZIPEK_clean_linker_0, # of connection points: 2
#     Edge 33, Type (0, 0), BuildingBlock: EZIPEK_clean_linker_0, # of connection points: 2
#     Edge 34, Type (0, 0), BuildingBlock: EZIPEK_clean_linker_0, # of connection points: 2
#     Edge 35, Type (0, 0), BuildingBlock: EZIPEK_clean_linker_0, # of connection points: 2
#     Edge 36, Type (0, 0), BuildingBlock: EZIPEK_clean_linker_0, # of connection points: 2
#     Edge 37, Type (0, 0), BuildingBlock: EZIPEK_clean_linker_0, # of connection points: 2
#     Edge 38, Type (0, 0), BuildingBlock: EZIPEK_clean_linker_0, # of connection points: 2
#     Edge 39, Type (0, 0), BuildingBlock: EZIPEK_clean_linker_0, # of connection points: 2
#     Edge 40, Type (0, 0), BuildingBlock: EZIPEK_clean_linker_0, # of connection points: 2
#     Edge 41, Type (0, 0), BuildingBlock: EZIPEK_clean_linker_0, # of connection points: 2
#     Edge 42, Type (0, 0), BuildingBlock: EZIPEK_clean_linker_0, # of connection points: 2
#     Edge 43, Type (0, 0), BuildingBlock: EZIPEK_clean_linker_0, # of connection points: 2
#     Edge 44, Type (0, 0), BuildingBlock: EZIPEK_clean_linker_0, # of connection points: 2
#     Edge 45, Type (0, 0), BuildingBlock: EZIPEK_clean_linker_0, # of connection points: 2
#     Edge 46, Type (0, 0), BuildingBlock: EZIPEK_clean_linker_0, # of connection points: 2
#     Edge 47, Type (0, 0), BuildingBlock: EZIPEK_clean_linker_0, # of connection points: 2
# Relax obj value: 0.411
# Max RMSD: 0.279
# Mean RMSD: 0.269
data_MOF--net-wkf--node1-HISSIN_clean_sbu_0--edge1-EZIPEK_clean_linker_0
_symmetry_space_group_name_H-M    P1
_symmetry_Int_Tables_number       1
_symmetry_cell_setting            triclinic
loop_
_symmetry_equiv_pos_as_xyz
'x, y, z'
_cell_length_a     21.286753
_cell_length_b     21.640968
_cell_length_c     76.286213
_cell_angle_alpha  899.829272
_cell_angle_beta   89.612516
_cell_angle_gamma 119.22012
loop_
_atom_site_label
_atom_site_type_symbol
_atom_site_fract_x
_atom_site_fract_y
_atom_site_fract_z
_atom_type_partial_charge
Eu0 Eu nan nan nan 0.0
Eu1 Eu nan nan nan 0.0
C2 C nan nan nan 0.0
C3 C nan nan nan 0.0
C4 C nan nan nan 0.0
C5 C nan nan nan 0.0
C6 C nan nan nan 0.0
C7 C nan nan nan 0.0
C8 C nan nan nan 0.0
C9 C nan nan nan 0.0
O10 O nan nan nan 0.0
O11 O nan nan nan 0.0
C12 C nan nan nan 0.0
O13 O nan nan nan 0.0
O14 O nan nan nan 0.0
O15 O nan nan nan 0.0
O16 O nan nan nan 0.0
C17 C nan nan nan 0.0
O18 O nan nan nan 0.0
O19 O nan nan nan 0.0
O20 O nan nan nan 0.0
O21 O nan nan nan 0.0
O22 O nan nan nan 0.0
O23 O nan nan nan 0.0
C24 C nan nan nan 0.0
C25 C nan nan nan 0.0
C26 C nan nan nan 0.0
C27 C nan nan nan 0.0
C28 C nan nan nan 0.0
C29 C nan nan nan 0.0
C30 C nan nan nan 0.0
C31 C nan nan nan 0.0
H32 H nan nan nan 0.0
H33 H nan nan nan 0.0
H34 H nan nan nan 0.0
H35 H nan nan nan 0.0
H36 H nan nan nan 0.0
H37 H nan nan nan 0.0
H38 H nan nan nan 0.0
H39 H nan nan nan 0.0
Eu40 Eu nan nan nan 0.0
Eu41 Eu nan nan nan 0.0
C42 C nan nan nan 0.0
C43 C nan nan nan 0.0
C44 C nan nan nan 0.0
C45 C nan nan nan 0.0
C46 C nan nan nan 0.0
C47 C nan nan nan 0.0
C48 C nan nan nan 0.0
C49 C nan nan nan 0.0
O50 O nan nan nan 0.0
O51 O nan nan nan 0.0
C52 C nan nan nan 0.0
O53 O nan nan nan 0.0
O54 O nan nan nan 0.0
O55 O nan nan nan 0.0
O56 O nan nan nan 0.0
C57 C nan nan nan 0.0
O58 O nan nan nan 0.0
O59 O nan nan nan 0.0
O60 O nan nan nan 0.0
O61 O nan nan nan 0.0
O62 O nan nan nan 0.0
O63 O nan nan nan 0.0
C64 C nan nan nan 0.0
C65 C nan nan nan 0.0
C66 C nan nan nan 0.0
C67 C nan nan nan 0.0
C68 C nan nan nan 0.0
C69 C nan nan nan 0.0
C70 C nan nan nan 0.0
C71 C nan nan nan 0.0
H72 H nan nan nan 0.0
H73 H nan nan nan 0.0
H74 H nan nan nan 0.0
H75 H nan nan nan 0.0
H76 H nan nan nan 0.0
H77 H nan nan nan 0.0
H78 H nan nan nan 0.0
H79 H nan nan nan 0.0
Eu80 Eu nan nan nan 0.0
Eu81 Eu nan nan nan 0.0
C82 C nan nan nan 0.0
C83 C nan nan nan 0.0
C84 C nan nan nan 0.0
C85 C nan nan nan 0.0
C86 C nan nan nan 0.0
C87 C nan nan nan 0.0
C88 C nan nan nan 0.0
C89 C nan nan nan 0.0
O90 O nan nan nan 0.0
O91 O nan nan nan 0.0
C92 C nan nan nan 0.0
O93 O nan nan nan 0.0
O94 O nan nan nan 0.0
O95 O nan nan nan 0.0
O96 O nan nan nan 0.0
C97 C nan nan nan 0.0
O98 O nan nan nan 0.0
O99 O nan nan nan 0.0
O100 O nan nan nan 0.0
O101 O nan nan nan 0.0
O102 O nan nan nan 0.0
O103 O nan nan nan 0.0
C104 C nan nan nan 0.0
C105 C nan nan nan 0.0
C106 C nan nan nan 0.0
C107 C nan nan nan 0.0
C108 C nan nan nan 0.0
C109 C nan nan nan 0.0
C110 C nan nan nan 0.0
C111 C nan nan nan 0.0
H112 H nan nan nan 0.0
H113 H nan nan nan 0.0
H114 H nan nan nan 0.0
H115 H nan nan nan 0.0
H116 H nan nan nan 0.0
H117 H nan nan nan 0.0
H118 H nan nan nan 0.0
H119 H nan nan nan 0.0
Eu120 Eu nan nan nan 0.0
Eu121 Eu nan nan nan 0.0
C122 C nan nan nan 0.0
C123 C nan nan nan 0.0
C124 C nan nan nan 0.0
C125 C nan nan nan 0.0
C126 C nan nan nan 0.0
C127 C nan nan nan 0.0
C128 C nan nan nan 0.0
C129 C nan nan nan 0.0
O130 O nan nan nan 0.0
O131 O nan nan nan 0.0
C132 C nan nan nan 0.0
O133 O nan nan nan 0.0
O134 O nan nan nan 0.0
O135 O nan nan nan 0.0
O136 O nan nan nan 0.0
C137 C nan nan nan 0.0
O138 O nan nan nan 0.0
O139 O nan nan nan 0.0
O140 O nan nan nan 0.0
O141 O nan nan nan 0.0
O142 O nan nan nan 0.0
O143 O nan nan nan 0.0
C144 C nan nan nan 0.0
C145 C nan nan nan 0.0
C146 C nan nan nan 0.0
C147 C nan nan nan 0.0
C148 C nan nan nan 0.0
C149 C nan nan nan 0.0
C150 C nan nan nan 0.0
C151 C nan nan nan 0.0
H152 H nan nan nan 0.0
H153 H nan nan nan 0.0
H154 H nan nan nan 0.0
H155 H nan nan nan 0.0
H156 H nan nan nan 0.0
H157 H nan nan nan 0.0
H158 H nan nan nan 0.0
H159 H nan nan nan 0.0
Eu160 Eu nan nan nan 0.0
Eu161 Eu nan nan nan 0.0
C162 C nan nan nan 0.0
C163 C nan nan nan 0.0
C164 C nan nan nan 0.0
C165 C nan nan nan 0.0
C166 C nan nan nan 0.0
C167 C nan nan nan 0.0
C168 C nan nan nan 0.0
C169 C nan nan nan 0.0
O170 O nan nan nan 0.0
O171 O nan nan nan 0.0
C172 C nan nan nan 0.0
O173 O nan nan nan 0.0
O174 O nan nan nan 0.0
O175 O nan nan nan 0.0
O176 O nan nan nan 0.0
C177 C nan nan nan 0.0
O178 O nan nan nan 0.0
O179 O nan nan nan 0.0
O180 O nan nan nan 0.0
O181 O nan nan nan 0.0
O182 O nan nan nan 0.0
O183 O nan nan nan 0.0
C184 C nan nan nan 0.0
C185 C nan nan nan 0.0
C186 C nan nan nan 0.0
C187 C nan nan nan 0.0
C188 C nan nan nan 0.0
C189 C nan nan nan 0.0
C190 C nan nan nan 0.0
C191 C nan nan nan 0.0
H192 H nan nan nan 0.0
H193 H nan nan nan 0.0
H194 H nan nan nan 0.0
H195 H nan nan nan 0.0
H196 H nan nan nan 0.0
H197 H nan nan nan 0.0
H198 H nan nan nan 0.0
H199 H nan nan nan 0.0
Eu200 Eu nan nan nan 0.0
Eu201 Eu nan nan nan 0.0
C202 C nan nan nan 0.0
C203 C nan nan nan 0.0
C204 C nan nan nan 0.0
C205 C nan nan nan 0.0
C206 C nan nan nan 0.0
C207 C nan nan nan 0.0
C208 C nan nan nan 0.0
C209 C nan nan nan 0.0
O210 O nan nan nan 0.0
O211 O nan nan nan 0.0
C212 C nan nan nan 0.0
O213 O nan nan nan 0.0
O214 O nan nan nan 0.0
O215 O nan nan nan 0.0
O216 O nan nan nan 0.0
C217 C nan nan nan 0.0
O218 O nan nan nan 0.0
O219 O nan nan nan 0.0
O220 O nan nan nan 0.0
O221 O nan nan nan 0.0
O222 O nan nan nan 0.0
O223 O nan nan nan 0.0
C224 C nan nan nan 0.0
C225 C nan nan nan 0.0
C226 C nan nan nan 0.0
C227 C nan nan nan 0.0
C228 C nan nan nan 0.0
C229 C nan nan nan 0.0
C230 C nan nan nan 0.0
C231 C nan nan nan 0.0
H232 H nan nan nan 0.0
H233 H nan nan nan 0.0
H234 H nan nan nan 0.0
H235 H nan nan nan 0.0
H236 H nan nan nan 0.0
H237 H nan nan nan 0.0
H238 H nan nan nan 0.0
H239 H nan nan nan 0.0
Eu240 Eu nan nan nan 0.0
Eu241 Eu nan nan nan 0.0
C242 C nan nan nan 0.0
C243 C nan nan nan 0.0
C244 C nan nan nan 0.0
C245 C nan nan nan 0.0
C246 C nan nan nan 0.0
C247 C nan nan nan 0.0
C248 C nan nan nan 0.0
C249 C nan nan nan 0.0
O250 O nan nan nan 0.0
O251 O nan nan nan 0.0
C252 C nan nan nan 0.0
O253 O nan nan nan 0.0
O254 O nan nan nan 0.0
O255 O nan nan nan 0.0
O256 O nan nan nan 0.0
C257 C nan nan nan 0.0
O258 O nan nan nan 0.0
O259 O nan nan nan 0.0
O260 O nan nan nan 0.0
O261 O nan nan nan 0.0
O262 O nan nan nan 0.0
O263 O nan nan nan 0.0
C264 C nan nan nan 0.0
C265 C nan nan nan 0.0
C266 C nan nan nan 0.0
C267 C nan nan nan 0.0
C268 C nan nan nan 0.0
C269 C nan nan nan 0.0
C270 C nan nan nan 0.0
C271 C nan nan nan 0.0
H272 H nan nan nan 0.0
H273 H nan nan nan 0.0
H274 H nan nan nan 0.0
H275 H nan nan nan 0.0
H276 H nan nan nan 0.0
H277 H nan nan nan 0.0
H278 H nan nan nan 0.0
H279 H nan nan nan 0.0
Eu280 Eu nan nan nan 0.0
Eu281 Eu nan nan nan 0.0
C282 C nan nan nan 0.0
C283 C nan nan nan 0.0
C284 C nan nan nan 0.0
C285 C nan nan nan 0.0
C286 C nan nan nan 0.0
C287 C nan nan nan 0.0
C288 C nan nan nan 0.0
C289 C nan nan nan 0.0
O290 O nan nan nan 0.0
O291 O nan nan nan 0.0
C292 C nan nan nan 0.0
O293 O nan nan nan 0.0
O294 O nan nan nan 0.0
O295 O nan nan nan 0.0
O296 O nan nan nan 0.0
C297 C nan nan nan 0.0
O298 O nan nan nan 0.0
O299 O nan nan nan 0.0
O300 O nan nan nan 0.0
O301 O nan nan nan 0.0
O302 O nan nan nan 0.0
O303 O nan nan nan 0.0
C304 C nan nan nan 0.0
C305 C nan nan nan 0.0
C306 C nan nan nan 0.0
C307 C nan nan nan 0.0
C308 C nan nan nan 0.0
C309 C nan nan nan 0.0
C310 C nan nan nan 0.0
C311 C nan nan nan 0.0
H312 H nan nan nan 0.0
H313 H nan nan nan 0.0
H314 H nan nan nan 0.0
H315 H nan nan nan 0.0
H316 H nan nan nan 0.0
H317 H nan nan nan 0.0
H318 H nan nan nan 0.0
H319 H nan nan nan 0.0
Eu320 Eu nan nan nan 0.0
Eu321 Eu nan nan nan 0.0
C322 C nan nan nan 0.0
C323 C nan nan nan 0.0
C324 C nan nan nan 0.0
C325 C nan nan nan 0.0
C326 C nan nan nan 0.0
C327 C nan nan nan 0.0
C328 C nan nan nan 0.0
C329 C nan nan nan 0.0
O330 O nan nan nan 0.0
O331 O nan nan nan 0.0
C332 C nan nan nan 0.0
O333 O nan nan nan 0.0
O334 O nan nan nan 0.0
O335 O nan nan nan 0.0
O336 O nan nan nan 0.0
C337 C nan nan nan 0.0
O338 O nan nan nan 0.0
O339 O nan nan nan 0.0
O340 O nan nan nan 0.0
O341 O nan nan nan 0.0
O342 O nan nan nan 0.0
O343 O nan nan nan 0.0
C344 C nan nan nan 0.0
C345 C nan nan nan 0.0
C346 C nan nan nan 0.0
C347 C nan nan nan 0.0
C348 C nan nan nan 0.0
C349 C nan nan nan 0.0
C350 C nan nan nan 0.0
C351 C nan nan nan 0.0
H352 H nan nan nan 0.0
H353 H nan nan nan 0.0
H354 H nan nan nan 0.0
H355 H nan nan nan 0.0
H356 H nan nan nan 0.0
H357 H nan nan nan 0.0
H358 H nan nan nan 0.0
H359 H nan nan nan 0.0
Eu360 Eu nan nan nan 0.0
Eu361 Eu nan nan nan 0.0
C362 C nan nan nan 0.0
C363 C nan nan nan 0.0
C364 C nan nan nan 0.0
C365 C nan nan nan 0.0
C366 C nan nan nan 0.0
C367 C nan nan nan 0.0
C368 C nan nan nan 0.0
C369 C nan nan nan 0.0
O370 O nan nan nan 0.0
O371 O nan nan nan 0.0
C372 C nan nan nan 0.0
O373 O nan nan nan 0.0
O374 O nan nan nan 0.0
O375 O nan nan nan 0.0
O376 O nan nan nan 0.0
C377 C nan nan nan 0.0
O378 O nan nan nan 0.0
O379 O nan nan nan 0.0
O380 O nan nan nan 0.0
O381 O nan nan nan 0.0
O382 O nan nan nan 0.0
O383 O nan nan nan 0.0
C384 C nan nan nan 0.0
C385 C nan nan nan 0.0
C386 C nan nan nan 0.0
C387 C nan nan nan 0.0
C388 C nan nan nan 0.0
C389 C nan nan nan 0.0
C390 C nan nan nan 0.0
C391 C nan nan nan 0.0
H392 H nan nan nan 0.0
H393 H nan nan nan 0.0
H394 H nan nan nan 0.0
H395 H nan nan nan 0.0
H396 H nan nan nan 0.0
H397 H nan nan nan 0.0
H398 H nan nan nan 0.0
H399 H nan nan nan 0.0
Eu400 Eu nan nan nan 0.0
Eu401 Eu nan nan nan 0.0
C402 C nan nan nan 0.0
C403 C nan nan nan 0.0
C404 C nan nan nan 0.0
C405 C nan nan nan 0.0
C406 C nan nan nan 0.0
C407 C nan nan nan 0.0
C408 C nan nan nan 0.0
C409 C nan nan nan 0.0
O410 O nan nan nan 0.0
O411 O nan nan nan 0.0
C412 C nan nan nan 0.0
O413 O nan nan nan 0.0
O414 O nan nan nan 0.0
O415 O nan nan nan 0.0
O416 O nan nan nan 0.0
C417 C nan nan nan 0.0
O418 O nan nan nan 0.0
O419 O nan nan nan 0.0
O420 O nan nan nan 0.0
O421 O nan nan nan 0.0
O422 O nan nan nan 0.0
O423 O nan nan nan 0.0
C424 C nan nan nan 0.0
C425 C nan nan nan 0.0
C426 C nan nan nan 0.0
C427 C nan nan nan 0.0
C428 C nan nan nan 0.0
C429 C nan nan nan 0.0
C430 C nan nan nan 0.0
C431 C nan nan nan 0.0
H432 H nan nan nan 0.0
H433 H nan nan nan 0.0
H434 H nan nan nan 0.0
H435 H nan nan nan 0.0
H436 H nan nan nan 0.0
H437 H nan nan nan 0.0
H438 H nan nan nan 0.0
H439 H nan nan nan 0.0
Eu440 Eu nan nan nan 0.0
Eu441 Eu nan nan nan 0.0
C442 C nan nan nan 0.0
C443 C nan nan nan 0.0
C444 C nan nan nan 0.0
C445 C nan nan nan 0.0
C446 C nan nan nan 0.0
C447 C nan nan nan 0.0
C448 C nan nan nan 0.0
C449 C nan nan nan 0.0
O450 O nan nan nan 0.0
O451 O nan nan nan 0.0
C452 C nan nan nan 0.0
O453 O nan nan nan 0.0
O454 O nan nan nan 0.0
O455 O nan nan nan 0.0
O456 O nan nan nan 0.0
C457 C nan nan nan 0.0
O458 O nan nan nan 0.0
O459 O nan nan nan 0.0
O460 O nan nan nan 0.0
O461 O nan nan nan 0.0
O462 O nan nan nan 0.0
O463 O nan nan nan 0.0
C464 C nan nan nan 0.0
C465 C nan nan nan 0.0
C466 C nan nan nan 0.0
C467 C nan nan nan 0.0
C468 C nan nan nan 0.0
C469 C nan nan nan 0.0
C470 C nan nan nan 0.0
C471 C nan nan nan 0.0
H472 H nan nan nan 0.0
H473 H nan nan nan 0.0
H474 H nan nan nan 0.0
H475 H nan nan nan 0.0
H476 H nan nan nan 0.0
H477 H nan nan nan 0.0
H478 H nan nan nan 0.0
H479 H nan nan nan 0.0
C480 C nan nan nan 0.0
C481 C nan nan nan 0.0
C482 C nan nan nan 0.0
C483 C nan nan nan 0.0
N484 N nan nan nan 0.0
N485 N nan nan nan 0.0
C486 C nan nan nan 0.0
C487 C nan nan nan 0.0
N488 N nan nan nan 0.0
N489 N nan nan nan 0.0
H490 H nan nan nan 0.0
H491 H nan nan nan 0.0
H492 H nan nan nan 0.0
H493 H nan nan nan 0.0
H494 H nan nan nan 0.0
H495 H nan nan nan 0.0
H496 H nan nan nan 0.0
H497 H nan nan nan 0.0
C498 C nan nan nan 0.0
C499 C nan nan nan 0.0
C500 C nan nan nan 0.0
C501 C nan nan nan 0.0
N502 N nan nan nan 0.0
N503 N nan nan nan 0.0
C504 C nan nan nan 0.0
C505 C nan nan nan 0.0
N506 N nan nan nan 0.0
N507 N nan nan nan 0.0
H508 H nan nan nan 0.0
H509 H nan nan nan 0.0
H510 H nan nan nan 0.0
H511 H nan nan nan 0.0
H512 H nan nan nan 0.0
H513 H nan nan nan 0.0
H514 H nan nan nan 0.0
H515 H nan nan nan 0.0
C516 C nan nan nan 0.0
C517 C nan nan nan 0.0
C518 C nan nan nan 0.0
C519 C nan nan nan 0.0
N520 N nan nan nan 0.0
N521 N nan nan nan 0.0
C522 C nan nan nan 0.0
C523 C nan nan nan 0.0
N524 N nan nan nan 0.0
N525 N nan nan nan 0.0
H526 H nan nan nan 0.0
H527 H nan nan nan 0.0
H528 H nan nan nan 0.0
H529 H nan nan nan 0.0
H530 H nan nan nan 0.0
H531 H nan nan nan 0.0
H532 H nan nan nan 0.0
H533 H nan nan nan 0.0
C534 C nan nan nan 0.0
C535 C nan nan nan 0.0
C536 C nan nan nan 0.0
C537 C nan nan nan 0.0
N538 N nan nan nan 0.0
N539 N nan nan nan 0.0
C540 C nan nan nan 0.0
C541 C nan nan nan 0.0
N542 N nan nan nan 0.0
N543 N nan nan nan 0.0
H544 H nan nan nan 0.0
H545 H nan nan nan 0.0
H546 H nan nan nan 0.0
H547 H nan nan nan 0.0
H548 H nan nan nan 0.0
H549 H nan nan nan 0.0
H550 H nan nan nan 0.0
H551 H nan nan nan 0.0
C552 C nan nan nan 0.0
C553 C nan nan nan 0.0
C554 C nan nan nan 0.0
C555 C nan nan nan 0.0
N556 N nan nan nan 0.0
N557 N nan nan nan 0.0
C558 C nan nan nan 0.0
C559 C nan nan nan 0.0
N560 N nan nan nan 0.0
N561 N nan nan nan 0.0
H562 H nan nan nan 0.0
H563 H nan nan nan 0.0
H564 H nan nan nan 0.0
H565 H nan nan nan 0.0
H566 H nan nan nan 0.0
H567 H nan nan nan 0.0
H568 H nan nan nan 0.0
H569 H nan nan nan 0.0
C570 C nan nan nan 0.0
C571 C nan nan nan 0.0
C572 C nan nan nan 0.0
C573 C nan nan nan 0.0
N574 N nan nan nan 0.0
N575 N nan nan nan 0.0
C576 C nan nan nan 0.0
C577 C nan nan nan 0.0
N578 N nan nan nan 0.0
N579 N nan nan nan 0.0
H580 H nan nan nan 0.0
H581 H nan nan nan 0.0
H582 H nan nan nan 0.0
H583 H nan nan nan 0.0
H584 H nan nan nan 0.0
H585 H nan nan nan 0.0
H586 H nan nan nan 0.0
H587 H nan nan nan 0.0
C588 C nan nan nan 0.0
C589 C nan nan nan 0.0
C590 C nan nan nan 0.0
C591 C nan nan nan 0.0
N592 N nan nan nan 0.0
N593 N nan nan nan 0.0
C594 C nan nan nan 0.0
C595 C nan nan nan 0.0
N596 N nan nan nan 0.0
N597 N nan nan nan 0.0
H598 H nan nan nan 0.0
H599 H nan nan nan 0.0
H600 H nan nan nan 0.0
H601 H nan nan nan 0.0
H602 H nan nan nan 0.0
H603 H nan nan nan 0.0
H604 H nan nan nan 0.0
H605 H nan nan nan 0.0
C606 C nan nan nan 0.0
C607 C nan nan nan 0.0
C608 C nan nan nan 0.0
C609 C nan nan nan 0.0
N610 N nan nan nan 0.0
N611 N nan nan nan 0.0
C612 C nan nan nan 0.0
C613 C nan nan nan 0.0
N614 N nan nan nan 0.0
N615 N nan nan nan 0.0
H616 H nan nan nan 0.0
H617 H nan nan nan 0.0
H618 H nan nan nan 0.0
H619 H nan nan nan 0.0
H620 H nan nan nan 0.0
H621 H nan nan nan 0.0
H622 H nan nan nan 0.0
H623 H nan nan nan 0.0
C624 C nan nan nan 0.0
C625 C nan nan nan 0.0
C626 C nan nan nan 0.0
C627 C nan nan nan 0.0
N628 N nan nan nan 0.0
N629 N nan nan nan 0.0
C630 C nan nan nan 0.0
C631 C nan nan nan 0.0
N632 N nan nan nan 0.0
N633 N nan nan nan 0.0
H634 H nan nan nan 0.0
H635 H nan nan nan 0.0
H636 H nan nan nan 0.0
H637 H nan nan nan 0.0
H638 H nan nan nan 0.0
H639 H nan nan nan 0.0
H640 H nan nan nan 0.0
H641 H nan nan nan 0.0
C642 C nan nan nan 0.0
C643 C nan nan nan 0.0
C644 C nan nan nan 0.0
C645 C nan nan nan 0.0
N646 N nan nan nan 0.0
N647 N nan nan nan 0.0
C648 C nan nan nan 0.0
C649 C nan nan nan 0.0
N650 N nan nan nan 0.0
N651 N nan nan nan 0.0
H652 H nan nan nan 0.0
H653 H nan nan nan 0.0
H654 H nan nan nan 0.0
H655 H nan nan nan 0.0
H656 H nan nan nan 0.0
H657 H nan nan nan 0.0
H658 H nan nan nan 0.0
H659 H nan nan nan 0.0
C660 C nan nan nan 0.0
C661 C nan nan nan 0.0
C662 C nan nan nan 0.0
C663 C nan nan nan 0.0
N664 N nan nan nan 0.0
N665 N nan nan nan 0.0
C666 C nan nan nan 0.0
C667 C nan nan nan 0.0
N668 N nan nan nan 0.0
N669 N nan nan nan 0.0
H670 H nan nan nan 0.0
H671 H nan nan nan 0.0
H672 H nan nan nan 0.0
H673 H nan nan nan 0.0
H674 H nan nan nan 0.0
H675 H nan nan nan 0.0
H676 H nan nan nan 0.0
H677 H nan nan nan 0.0
C678 C nan nan nan 0.0
C679 C nan nan nan 0.0
C680 C nan nan nan 0.0
C681 C nan nan nan 0.0
N682 N nan nan nan 0.0
N683 N nan nan nan 0.0
C684 C nan nan nan 0.0
C685 C nan nan nan 0.0
N686 N nan nan nan 0.0
N687 N nan nan nan 0.0
H688 H nan nan nan 0.0
H689 H nan nan nan 0.0
H690 H nan nan nan 0.0
H691 H nan nan nan 0.0
H692 H nan nan nan 0.0
H693 H nan nan nan 0.0
H694 H nan nan nan 0.0
H695 H nan nan nan 0.0
C696 C nan nan nan 0.0
C697 C nan nan nan 0.0
C698 C nan nan nan 0.0
C699 C nan nan nan 0.0
N700 N nan nan nan 0.0
N701 N nan nan nan 0.0
C702 C nan nan nan 0.0
C703 C nan nan nan 0.0
N704 N nan nan nan 0.0
N705 N nan nan nan 0.0
H706 H nan nan nan 0.0
H707 H nan nan nan 0.0
H708 H nan nan nan 0.0
H709 H nan nan nan 0.0
H710 H nan nan nan 0.0
H711 H nan nan nan 0.0
H712 H nan nan nan 0.0
H713 H nan nan nan 0.0
C714 C nan nan nan 0.0
C715 C nan nan nan 0.0
C716 C nan nan nan 0.0
C717 C nan nan nan 0.0
N718 N nan nan nan 0.0
N719 N nan nan nan 0.0
C720 C nan nan nan 0.0
C721 C nan nan nan 0.0
N722 N nan nan nan 0.0
N723 N nan nan nan 0.0
H724 H nan nan nan 0.0
H725 H nan nan nan 0.0
H726 H nan nan nan 0.0
H727 H nan nan nan 0.0
H728 H nan nan nan 0.0
H729 H nan nan nan 0.0
H730 H nan nan nan 0.0
H731 H nan nan nan 0.0
C732 C nan nan nan 0.0
C733 C nan nan nan 0.0
C734 C nan nan nan 0.0
C735 C nan nan nan 0.0
N736 N nan nan nan 0.0
N737 N nan nan nan 0.0
C738 C nan nan nan 0.0
C739 C nan nan nan 0.0
N740 N nan nan nan 0.0
N741 N nan nan nan 0.0
H742 H nan nan nan 0.0
H743 H nan nan nan 0.0
H744 H nan nan nan 0.0
H745 H nan nan nan 0.0
H746 H nan nan nan 0.0
H747 H nan nan nan 0.0
H748 H nan nan nan 0.0
H749 H nan nan nan 0.0
C750 C nan nan nan 0.0
C751 C nan nan nan 0.0
C752 C nan nan nan 0.0
C753 C nan nan nan 0.0
N754 N nan nan nan 0.0
N755 N nan nan nan 0.0
C756 C nan nan nan 0.0
C757 C nan nan nan 0.0
N758 N nan nan nan 0.0
N759 N nan nan nan 0.0
H760 H nan nan nan 0.0
H761 H nan nan nan 0.0
H762 H nan nan nan 0.0
H763 H nan nan nan 0.0
H764 H nan nan nan 0.0
H765 H nan nan nan 0.0
H766 H nan nan nan 0.0
H767 H nan nan nan 0.0
C768 C nan nan nan 0.0
C769 C nan nan nan 0.0
C770 C nan nan nan 0.0
C771 C nan nan nan 0.0
N772 N nan nan nan 0.0
N773 N nan nan nan 0.0
C774 C nan nan nan 0.0
C775 C nan nan nan 0.0
N776 N nan nan nan 0.0
N777 N nan nan nan 0.0
H778 H nan nan nan 0.0
H779 H nan nan nan 0.0
H780 H nan nan nan 0.0
H781 H nan nan nan 0.0
H782 H nan nan nan 0.0
H783 H nan nan nan 0.0
H784 H nan nan nan 0.0
H785 H nan nan nan 0.0
C786 C nan nan nan 0.0
C787 C nan nan nan 0.0
C788 C nan nan nan 0.0
C789 C nan nan nan 0.0
N790 N nan nan nan 0.0
N791 N nan nan nan 0.0
C792 C nan nan nan 0.0
C793 C nan nan nan 0.0
N794 N nan nan nan 0.0
N795 N nan nan nan 0.0
H796 H nan nan nan 0.0
H797 H nan nan nan 0.0
H798 H nan nan nan 0.0
H799 H nan nan nan 0.0
H800 H nan nan nan 0.0
H801 H nan nan nan 0.0
H802 H nan nan nan 0.0
H803 H nan nan nan 0.0
C804 C nan nan nan 0.0
C805 C nan nan nan 0.0
C806 C nan nan nan 0.0
C807 C nan nan nan 0.0
N808 N nan nan nan 0.0
N809 N nan nan nan 0.0
C810 C nan nan nan 0.0
C811 C nan nan nan 0.0
N812 N nan nan nan 0.0
N813 N nan nan nan 0.0
H814 H nan nan nan 0.0
H815 H nan nan nan 0.0
H816 H nan nan nan 0.0
H817 H nan nan nan 0.0
H818 H nan nan nan 0.0
H819 H nan nan nan 0.0
H820 H nan nan nan 0.0
H821 H nan nan nan 0.0
C822 C nan nan nan 0.0
C823 C nan nan nan 0.0
C824 C nan nan nan 0.0
C825 C nan nan nan 0.0
N826 N nan nan nan 0.0
N827 N nan nan nan 0.0
C828 C nan nan nan 0.0
C829 C nan nan nan 0.0
N830 N nan nan nan 0.0
N831 N nan nan nan 0.0
H832 H nan nan nan 0.0
H833 H nan nan nan 0.0
H834 H nan nan nan 0.0
H835 H nan nan nan 0.0
H836 H nan nan nan 0.0
H837 H nan nan nan 0.0
H838 H nan nan nan 0.0
H839 H nan nan nan 0.0
C840 C nan nan nan 0.0
C841 C nan nan nan 0.0
C842 C nan nan nan 0.0
C843 C nan nan nan 0.0
N844 N nan nan nan 0.0
N845 N nan nan nan 0.0
C846 C nan nan nan 0.0
C847 C nan nan nan 0.0
N848 N nan nan nan 0.0
N849 N nan nan nan 0.0
H850 H nan nan nan 0.0
H851 H nan nan nan 0.0
H852 H nan nan nan 0.0
H853 H nan nan nan 0.0
H854 H nan nan nan 0.0
H855 H nan nan nan 0.0
H856 H nan nan nan 0.0
H857 H nan nan nan 0.0
C858 C nan nan nan 0.0
C859 C nan nan nan 0.0
C860 C nan nan nan 0.0
C861 C nan nan nan 0.0
N862 N nan nan nan 0.0
N863 N nan nan nan 0.0
C864 C nan nan nan 0.0
C865 C nan nan nan 0.0
N866 N nan nan nan 0.0
N867 N nan nan nan 0.0
H868 H nan nan nan 0.0
H869 H nan nan nan 0.0
H870 H nan nan nan 0.0
H871 H nan nan nan 0.0
H872 H nan nan nan 0.0
H873 H nan nan nan 0.0
H874 H nan nan nan 0.0
H875 H nan nan nan 0.0
C876 C nan nan nan 0.0
C877 C nan nan nan 0.0
C878 C nan nan nan 0.0
C879 C nan nan nan 0.0
N880 N nan nan nan 0.0
N881 N nan nan nan 0.0
C882 C nan nan nan 0.0
C883 C nan nan nan 0.0
N884 N nan nan nan 0.0
N885 N nan nan nan 0.0
H886 H nan nan nan 0.0
H887 H nan nan nan 0.0
H888 H nan nan nan 0.0
H889 H nan nan nan 0.0
H890 H nan nan nan 0.0
H891 H nan nan nan 0.0
H892 H nan nan nan 0.0
H893 H nan nan nan 0.0
C894 C nan nan nan 0.0
C895 C nan nan nan 0.0
C896 C nan nan nan 0.0
C897 C nan nan nan 0.0
N898 N nan nan nan 0.0
N899 N nan nan nan 0.0
C900 C nan nan nan 0.0
C901 C nan nan nan 0.0
N902 N nan nan nan 0.0
N903 N nan nan nan 0.0
H904 H nan nan nan 0.0
H905 H nan nan nan 0.0
H906 H nan nan nan 0.0
H907 H nan nan nan 0.0
H908 H nan nan nan 0.0
H909 H nan nan nan 0.0
H910 H nan nan nan 0.0
H911 H nan nan nan 0.0
C912 C nan nan nan 0.0
C913 C nan nan nan 0.0
C914 C nan nan nan 0.0
C915 C nan nan nan 0.0
N916 N nan nan nan 0.0
N917 N nan nan nan 0.0
C918 C nan nan nan 0.0
C919 C nan nan nan 0.0
N920 N nan nan nan 0.0
N921 N nan nan nan 0.0
H922 H nan nan nan 0.0
H923 H nan nan nan 0.0
H924 H nan nan nan 0.0
H925 H nan nan nan 0.0
H926 H nan nan nan 0.0
H927 H nan nan nan 0.0
H928 H nan nan nan 0.0
H929 H nan nan nan 0.0
C930 C nan nan nan 0.0
C931 C nan nan nan 0.0
C932 C nan nan nan 0.0
C933 C nan nan nan 0.0
N934 N nan nan nan 0.0
N935 N nan nan nan 0.0
C936 C nan nan nan 0.0
C937 C nan nan nan 0.0
N938 N nan nan nan 0.0
N939 N nan nan nan 0.0
H940 H nan nan nan 0.0
H941 H nan nan nan 0.0
H942 H nan nan nan 0.0
H943 H nan nan nan 0.0
H944 H nan nan nan 0.0
H945 H nan nan nan 0.0
H946 H nan nan nan 0.0
H947 H nan nan nan 0.0
C948 C nan nan nan 0.0
C949 C nan nan nan 0.0
C950 C nan nan nan 0.0
C951 C nan nan nan 0.0
N952 N nan nan nan 0.0
N953 N nan nan nan 0.0
C954 C nan nan nan 0.0
C955 C nan nan nan 0.0
N956 N nan nan nan 0.0
N957 N nan nan nan 0.0
H958 H nan nan nan 0.0
H959 H nan nan nan 0.0
H960 H nan nan nan 0.0
H961 H nan nan nan 0.0
H962 H nan nan nan 0.0
H963 H nan nan nan 0.0
H964 H nan nan nan 0.0
H965 H nan nan nan 0.0
C966 C nan nan nan 0.0
C967 C nan nan nan 0.0
C968 C nan nan nan 0.0
C969 C nan nan nan 0.0
N970 N nan nan nan 0.0
N971 N nan nan nan 0.0
C972 C nan nan nan 0.0
C973 C nan nan nan 0.0
N974 N nan nan nan 0.0
N975 N nan nan nan 0.0
H976 H nan nan nan 0.0
H977 H nan nan nan 0.0
H978 H nan nan nan 0.0
H979 H nan nan nan 0.0
H980 H nan nan nan 0.0
H981 H nan nan nan 0.0
H982 H nan nan nan 0.0
H983 H nan nan nan 0.0
C984 C nan nan nan 0.0
C985 C nan nan nan 0.0
C986 C nan nan nan 0.0
C987 C nan nan nan 0.0
N988 N nan nan nan 0.0
N989 N nan nan nan 0.0
C990 C nan nan nan 0.0
C991 C nan nan nan 0.0
N992 N nan nan nan 0.0
N993 N nan nan nan 0.0
H994 H nan nan nan 0.0
H995 H nan nan nan 0.0
H996 H nan nan nan 0.0
H997 H nan nan nan 0.0
H998 H nan nan nan 0.0
H999 H nan nan nan 0.0
H1000 H nan nan nan 0.0
H1001 H nan nan nan 0.0
C1002 C nan nan nan 0.0
C1003 C nan nan nan 0.0
C1004 C nan nan nan 0.0
C1005 C nan nan nan 0.0
N1006 N nan nan nan 0.0
N1007 N nan nan nan 0.0
C1008 C nan nan nan 0.0
C1009 C nan nan nan 0.0
N1010 N nan nan nan 0.0
N1011 N nan nan nan 0.0
H1012 H nan nan nan 0.0
H1013 H nan nan nan 0.0
H1014 H nan nan nan 0.0
H1015 H nan nan nan 0.0
H1016 H nan nan nan 0.0
H1017 H nan nan nan 0.0
H1018 H nan nan nan 0.0
H1019 H nan nan nan 0.0
C1020 C nan nan nan 0.0
C1021 C nan nan nan 0.0
C1022 C nan nan nan 0.0
C1023 C nan nan nan 0.0
N1024 N nan nan nan 0.0
N1025 N nan nan nan 0.0
C1026 C nan nan nan 0.0
C1027 C nan nan nan 0.0
N1028 N nan nan nan 0.0
N1029 N nan nan nan 0.0
H1030 H nan nan nan 0.0
H1031 H nan nan nan 0.0
H1032 H nan nan nan 0.0
H1033 H nan nan nan 0.0
H1034 H nan nan nan 0.0
H1035 H nan nan nan 0.0
H1036 H nan nan nan 0.0
H1037 H nan nan nan 0.0
C1038 C nan nan nan 0.0
C1039 C nan nan nan 0.0
C1040 C nan nan nan 0.0
C1041 C nan nan nan 0.0
N1042 N nan nan nan 0.0
N1043 N nan nan nan 0.0
C1044 C nan nan nan 0.0
C1045 C nan nan nan 0.0
N1046 N nan nan nan 0.0
N1047 N nan nan nan 0.0
H1048 H nan nan nan 0.0
H1049 H nan nan nan 0.0
H1050 H nan nan nan 0.0
H1051 H nan nan nan 0.0
H1052 H nan nan nan 0.0
H1053 H nan nan nan 0.0
H1054 H nan nan nan 0.0
H1055 H nan nan nan 0.0
C1056 C nan nan nan 0.0
C1057 C nan nan nan 0.0
C1058 C nan nan nan 0.0
C1059 C nan nan nan 0.0
N1060 N nan nan nan 0.0
N1061 N nan nan nan 0.0
C1062 C nan nan nan 0.0
C1063 C nan nan nan 0.0
N1064 N nan nan nan 0.0
N1065 N nan nan nan 0.0
H1066 H nan nan nan 0.0
H1067 H nan nan nan 0.0
H1068 H nan nan nan 0.0
H1069 H nan nan nan 0.0
H1070 H nan nan nan 0.0
H1071 H nan nan nan 0.0
H1072 H nan nan nan 0.0
H1073 H nan nan nan 0.0
C1074 C nan nan nan 0.0
C1075 C nan nan nan 0.0
C1076 C nan nan nan 0.0
C1077 C nan nan nan 0.0
N1078 N nan nan nan 0.0
N1079 N nan nan nan 0.0
C1080 C nan nan nan 0.0
C1081 C nan nan nan 0.0
N1082 N nan nan nan 0.0
N1083 N nan nan nan 0.0
H1084 H nan nan nan 0.0
H1085 H nan nan nan 0.0
H1086 H nan nan nan 0.0
H1087 H nan nan nan 0.0
H1088 H nan nan nan 0.0
H1089 H nan nan nan 0.0
H1090 H nan nan nan 0.0
H1091 H nan nan nan 0.0
C1092 C nan nan nan 0.0
C1093 C nan nan nan 0.0
C1094 C nan nan nan 0.0
C1095 C nan nan nan 0.0
N1096 N nan nan nan 0.0
N1097 N nan nan nan 0.0
C1098 C nan nan nan 0.0
C1099 C nan nan nan 0.0
N1100 N nan nan nan 0.0
N1101 N nan nan nan 0.0
H1102 H nan nan nan 0.0
H1103 H nan nan nan 0.0
H1104 H nan nan nan 0.0
H1105 H nan nan nan 0.0
H1106 H nan nan nan 0.0
H1107 H nan nan nan 0.0
H1108 H nan nan nan 0.0
H1109 H nan nan nan 0.0
C1110 C nan nan nan 0.0
C1111 C nan nan nan 0.0
C1112 C nan nan nan 0.0
C1113 C nan nan nan 0.0
N1114 N nan nan nan 0.0
N1115 N nan nan nan 0.0
C1116 C nan nan nan 0.0
C1117 C nan nan nan 0.0
N1118 N nan nan nan 0.0
N1119 N nan nan nan 0.0
H1120 H nan nan nan 0.0
H1121 H nan nan nan 0.0
H1122 H nan nan nan 0.0
H1123 H nan nan nan 0.0
H1124 H nan nan nan 0.0
H1125 H nan nan nan 0.0
H1126 H nan nan nan 0.0
H1127 H nan nan nan 0.0
loop_
_geom_bond_atom_site_label_1
_geom_bond_atom_site_label_2
_geom_bond_distance
_geom_bond_site_symmetry_2
_ccdc_geom_bond_type
Eu0 C9 2.828 . S
Eu0 O11 2.392 1_545 S
Eu0 O13 2.418 1_545 S
Eu0 O18 2.373 . S
Eu0 O21 2.488 . S
Eu0 O22 2.471 . S
Eu0 O23 2.349 . S
Eu1 O10 2.373 . S
Eu1 O14 2.488 . S
Eu1 O15 2.471 . S
Eu1 O16 2.349 . S
Eu1 O19 2.392 1_565 S
Eu1 O20 2.418 1_565 S
Eu1 C30 2.828 . S
C2 O20 1.244 . S
C2 O23 1.265 . S
C3 C4 1.379 . S
C3 C7 1.373 . S
C3 C9 1.505 . S
C4 C3 1.379 . S
C4 C6 1.369 . S
C4 H32 0.930 . S
C5 C7 1.383 . S
C5 C8 1.382 . S
C5 H33 0.930 . S
C6 C4 1.369 . S
C6 C8 1.392 . S
C6 H34 0.930 . S
C7 C3 1.373 . S
C7 C5 1.383 . S
C7 H35 0.931 . S
C8 C5 1.382 . S
C8 C6 1.392 . S
C9 Eu0 2.828 . S
C9 C3 1.505 . S
C9 O21 1.249 . S
C9 O22 1.244 . S
O10 Eu1 2.373 . S
O10 C12 1.258 . S
O11 Eu0 2.392 1_565 S
O11 C12 1.242 . S
C12 O10 1.258 . S
C12 O11 1.242 . S
O13 Eu0 2.418 1_565 S
O13 C17 1.244 . S
O14 Eu1 2.488 . S
O14 C30 1.249 . S
O15 Eu1 2.471 . S
O15 C30 1.244 . S
O16 Eu1 2.349 . S
O16 C17 1.265 . S
C17 O13 1.244 . S
C17 O16 1.265 . S
O18 Eu0 2.373 . S
O18 C31 1.258 . S
O19 Eu1 2.392 1_545 S
O19 C31 1.242 . S
O20 Eu1 2.418 1_545 S
O20 C2 1.244 . S
O21 Eu0 2.488 . S
O21 C9 1.249 . S
O22 Eu0 2.471 . S
O22 C9 1.244 . S
O23 Eu0 2.349 . S
O23 C2 1.265 . S
C24 C25 1.379 . S
C24 C28 1.373 . S
C24 C30 1.505 . S
C25 C24 1.379 . S
C25 C27 1.369 . S
C25 H36 0.930 . S
C26 C28 1.383 . S
C26 C29 1.382 . S
C26 H37 0.930 . S
C27 C25 1.369 . S
C27 C29 1.392 . S
C27 H38 0.930 . S
C28 C24 1.373 . S
C28 C26 1.383 . S
C28 H39 0.931 . S
C29 C26 1.382 . S
C29 C27 1.392 . S
C30 Eu1 2.828 . S
C30 O14 1.249 . S
C30 O15 1.244 . S
C30 C24 1.505 . S
C31 O18 1.258 . S
C31 O19 1.242 . S
H32 C4 0.930 . S
H33 C5 0.930 . S
H34 C6 0.930 . S
H35 C7 0.931 . S
H36 C25 0.930 . S
H37 C26 0.930 . S
H38 C27 0.930 . S
H39 C28 0.931 . S
Eu40 C49 2.828 . S
Eu40 O51 2.392 . S
Eu40 O53 2.418 . S
Eu40 O58 2.373 . S
Eu40 O61 2.488 . S
Eu40 O62 2.471 . S
Eu40 O63 2.349 . S
Eu41 O50 2.373 . S
Eu41 O54 2.488 . S
Eu41 O55 2.471 . S
Eu41 O56 2.349 . S
Eu41 O59 2.392 . S
Eu41 O60 2.418 . S
Eu41 C70 2.828 . S
C42 O60 1.244 . S
C42 O63 1.265 . S
C43 C44 1.379 . S
C43 C47 1.373 . S
C43 C49 1.505 . S
C44 C43 1.379 . S
C44 C46 1.369 . S
C44 H72 0.930 . S
C45 C47 1.383 . S
C45 C48 1.382 . S
C45 H73 0.930 . S
C46 C44 1.369 . S
C46 C48 1.392 . S
C46 H74 0.930 . S
C47 C43 1.373 . S
C47 C45 1.383 . S
C47 H75 0.931 . S
C48 C45 1.382 . S
C48 C46 1.392 . S
C49 Eu40 2.828 . S
C49 C43 1.505 . S
C49 O61 1.249 . S
C49 O62 1.244 . S
O50 Eu41 2.373 . S
O50 C52 1.258 . S
O51 Eu40 2.392 . S
O51 C52 1.242 . S
C52 O50 1.258 . S
C52 O51 1.242 . S
O53 Eu40 2.418 . S
O53 C57 1.244 . S
O54 Eu41 2.488 . S
O54 C70 1.249 . S
O55 Eu41 2.471 . S
O55 C70 1.244 . S
O56 Eu41 2.349 . S
O56 C57 1.265 . S
C57 O53 1.244 . S
C57 O56 1.265 . S
O58 Eu40 2.373 . S
O58 C71 1.258 . S
O59 Eu41 2.392 . S
O59 C71 1.242 . S
O60 Eu41 2.418 . S
O60 C42 1.244 . S
O61 Eu40 2.488 . S
O61 C49 1.249 . S
O62 Eu40 2.471 . S
O62 C49 1.244 . S
O63 Eu40 2.349 . S
O63 C42 1.265 . S
C64 C65 1.379 . S
C64 C68 1.373 . S
C64 C70 1.505 . S
C65 C64 1.379 . S
C65 C67 1.369 . S
C65 H76 0.930 . S
C66 C68 1.383 . S
C66 C69 1.382 . S
C66 H77 0.930 . S
C67 C65 1.369 . S
C67 C69 1.392 . S
C67 H78 0.930 . S
C68 C64 1.373 . S
C68 C66 1.383 . S
C68 H79 0.931 . S
C69 C66 1.382 . S
C69 C67 1.392 . S
C70 Eu41 2.828 . S
C70 O54 1.249 . S
C70 O55 1.244 . S
C70 C64 1.505 . S
C71 O58 1.258 . S
C71 O59 1.242 . S
H72 C44 0.930 . S
H73 C45 0.930 . S
H74 C46 0.930 . S
H75 C47 0.931 . S
H76 C65 0.930 . S
H77 C66 0.930 . S
H78 C67 0.930 . S
H79 C68 0.931 . S
Eu80 C89 2.828 . S
Eu80 O91 2.392 1_655 S
Eu80 O93 2.418 1_655 S
Eu80 O98 2.373 . S
Eu80 O101 2.488 . S
Eu80 O102 2.471 . S
Eu80 O103 2.349 . S
Eu81 O90 2.373 . S
Eu81 O94 2.488 . S
Eu81 O95 2.471 . S
Eu81 O96 2.349 . S
Eu81 O99 2.392 1_455 S
Eu81 O100 2.418 1_455 S
Eu81 C110 2.828 . S
C82 O100 1.244 . S
C82 O103 1.265 . S
C83 C84 1.379 . S
C83 C87 1.373 . S
C83 C89 1.505 . S
C84 C83 1.379 . S
C84 C86 1.369 . S
C84 H112 0.930 . S
C85 C87 1.383 . S
C85 C88 1.382 . S
C85 H113 0.930 . S
C86 C84 1.369 . S
C86 C88 1.392 . S
C86 H114 0.930 . S
C87 C83 1.373 . S
C87 C85 1.383 . S
C87 H115 0.931 . S
C88 C85 1.382 . S
C88 C86 1.392 . S
C89 Eu80 2.828 . S
C89 C83 1.505 . S
C89 O101 1.249 . S
C89 O102 1.244 . S
O90 Eu81 2.373 . S
O90 C92 1.258 . S
O91 Eu80 2.392 1_455 S
O91 C92 1.242 . S
C92 O90 1.258 . S
C92 O91 1.242 . S
O93 Eu80 2.418 1_455 S
O93 C97 1.244 . S
O94 Eu81 2.488 . S
O94 C110 1.249 . S
O95 Eu81 2.471 . S
O95 C110 1.244 . S
O96 Eu81 2.349 . S
O96 C97 1.265 . S
C97 O93 1.244 . S
C97 O96 1.265 . S
O98 Eu80 2.373 . S
O98 C111 1.258 . S
O99 Eu81 2.392 1_655 S
O99 C111 1.242 . S
O100 Eu81 2.418 1_655 S
O100 C82 1.244 . S
O101 Eu80 2.488 . S
O101 C89 1.249 . S
O102 Eu80 2.471 . S
O102 C89 1.244 . S
O103 Eu80 2.349 . S
O103 C82 1.265 . S
C104 C105 1.379 . S
C104 C108 1.373 . S
C104 C110 1.505 . S
C105 C104 1.379 . S
C105 C107 1.369 . S
C105 H116 0.930 . S
C106 C108 1.383 . S
C106 C109 1.382 . S
C106 H117 0.930 . S
C107 C105 1.369 . S
C107 C109 1.392 . S
C107 H118 0.930 . S
C108 C104 1.373 . S
C108 C106 1.383 . S
C108 H119 0.931 . S
C109 C106 1.382 . S
C109 C107 1.392 . S
C110 Eu81 2.828 . S
C110 O94 1.249 . S
C110 O95 1.244 . S
C110 C104 1.505 . S
C111 O98 1.258 . S
C111 O99 1.242 . S
H112 C84 0.930 . S
H113 C85 0.930 . S
H114 C86 0.930 . S
H115 C87 0.931 . S
H116 C105 0.930 . S
H117 C106 0.930 . S
H118 C107 0.930 . S
H119 C108 0.931 . S
Eu120 C129 2.828 . S
Eu120 O131 2.392 1_565 S
Eu120 O133 2.418 1_565 S
Eu120 O138 2.373 . S
Eu120 O141 2.488 . S
Eu120 O142 2.471 . S
Eu120 O143 2.349 . S
Eu121 O130 2.373 . S
Eu121 O134 2.488 . S
Eu121 O135 2.471 . S
Eu121 O136 2.349 . S
Eu121 O139 2.392 1_545 S
Eu121 O140 2.418 1_545 S
Eu121 C150 2.828 . S
C122 O140 1.244 . S
C122 O143 1.265 . S
C123 C124 1.379 . S
C123 C127 1.373 . S
C123 C129 1.505 . S
C124 C123 1.379 . S
C124 C126 1.369 . S
C124 H152 0.930 . S
C125 C127 1.383 . S
C125 C128 1.382 . S
C125 H153 0.930 . S
C126 C124 1.369 . S
C126 C128 1.392 . S
C126 H154 0.930 . S
C127 C123 1.373 . S
C127 C125 1.383 . S
C127 H155 0.931 . S
C128 C125 1.382 . S
C128 C126 1.392 . S
C129 Eu120 2.828 . S
C129 C123 1.505 . S
C129 O141 1.249 . S
C129 O142 1.244 . S
O130 Eu121 2.373 . S
O130 C132 1.258 . S
O131 Eu120 2.392 1_545 S
O131 C132 1.242 . S
C132 O130 1.258 . S
C132 O131 1.242 . S
O133 Eu120 2.418 1_545 S
O133 C137 1.244 . S
O134 Eu121 2.488 . S
O134 C150 1.249 . S
O135 Eu121 2.471 . S
O135 C150 1.244 . S
O136 Eu121 2.349 . S
O136 C137 1.265 . S
C137 O133 1.244 . S
C137 O136 1.265 . S
O138 Eu120 2.373 . S
O138 C151 1.258 . S
O139 Eu121 2.392 1_565 S
O139 C151 1.242 . S
O140 Eu121 2.418 1_565 S
O140 C122 1.244 . S
O141 Eu120 2.488 . S
O141 C129 1.249 . S
O142 Eu120 2.471 . S
O142 C129 1.244 . S
O143 Eu120 2.349 . S
O143 C122 1.265 . S
C144 C145 1.379 . S
C144 C148 1.373 . S
C144 C150 1.505 . S
C145 C144 1.379 . S
C145 C147 1.369 . S
C145 H156 0.930 . S
C146 C148 1.383 . S
C146 C149 1.382 . S
C146 H157 0.930 . S
C147 C145 1.369 . S
C147 C149 1.392 . S
C147 H158 0.930 . S
C148 C144 1.373 . S
C148 C146 1.383 . S
C148 H159 0.931 . S
C149 C146 1.382 . S
C149 C147 1.392 . S
C150 Eu121 2.828 . S
C150 O134 1.249 . S
C150 O135 1.244 . S
C150 C144 1.505 . S
C151 O138 1.258 . S
C151 O139 1.242 . S
H152 C124 0.930 . S
H153 C125 0.930 . S
H154 C126 0.930 . S
H155 C127 0.931 . S
H156 C145 0.930 . S
H157 C146 0.930 . S
H158 C147 0.930 . S
H159 C148 0.931 . S
Eu160 C169 2.828 . S
Eu160 O171 2.392 . S
Eu160 O173 2.418 . S
Eu160 O178 2.373 . S
Eu160 O181 2.488 . S
Eu160 O182 2.471 . S
Eu160 O183 2.349 . S
Eu161 O170 2.373 1_554 S
Eu161 O174 2.488 1_554 S
Eu161 O175 2.471 1_554 S
Eu161 O176 2.349 . S
Eu161 O179 2.392 . S
Eu161 O180 2.418 1_554 S
Eu161 C190 2.828 1_554 S
C162 O180 1.244 . S
C162 O183 1.265 1_556 S
C163 C164 1.379 . S
C163 C167 1.373 . S
C163 C169 1.505 . S
C164 C163 1.379 . S
C164 C166 1.369 . S
C164 H192 0.930 . S
C165 C167 1.383 . S
C165 C168 1.382 . S
C165 H193 0.930 . S
C166 C164 1.369 . S
C166 C168 1.392 . S
C166 H194 0.930 . S
C167 C163 1.373 . S
C167 C165 1.383 . S
C167 H195 0.931 . S
C168 C165 1.382 . S
C168 C166 1.392 . S
C169 Eu160 2.828 . S
C169 C163 1.505 . S
C169 O181 1.249 . S
C169 O182 1.244 . S
O170 Eu161 2.373 1_556 S
O170 C172 1.258 . S
O171 Eu160 2.392 . S
O171 C172 1.242 1_554 S
C172 O170 1.258 . S
C172 O171 1.242 1_556 S
O173 Eu160 2.418 . S
O173 C177 1.244 . S
O174 Eu161 2.488 1_556 S
O174 C190 1.249 . S
O175 Eu161 2.471 1_556 S
O175 C190 1.244 . S
O176 Eu161 2.349 . S
O176 C177 1.265 . S
C177 O173 1.244 . S
C177 O176 1.265 . S
O178 Eu160 2.373 . S
O178 C191 1.258 . S
O179 Eu161 2.392 . S
O179 C191 1.242 . S
O180 Eu161 2.418 1_556 S
O180 C162 1.244 . S
O181 Eu160 2.488 . S
O181 C169 1.249 . S
O182 Eu160 2.471 . S
O182 C169 1.244 . S
O183 Eu160 2.349 . S
O183 C162 1.265 1_554 S
C184 C185 1.379 . S
C184 C188 1.373 . S
C184 C190 1.505 . S
C185 C184 1.379 . S
C185 C187 1.369 . S
C185 H196 0.930 . S
C186 C188 1.383 . S
C186 C189 1.382 . S
C186 H197 0.930 . S
C187 C185 1.369 . S
C187 C189 1.392 . S
C187 H198 0.930 . S
C188 C184 1.373 . S
C188 C186 1.383 . S
C188 H199 0.931 . S
C189 C186 1.382 . S
C189 C187 1.392 . S
C190 Eu161 2.828 1_556 S
C190 O174 1.249 . S
C190 O175 1.244 . S
C190 C184 1.505 . S
C191 O178 1.258 . S
C191 O179 1.242 . S
H192 C164 0.930 . S
H193 C165 0.930 . S
H194 C166 0.930 . S
H195 C167 0.931 . S
H196 C185 0.930 . S
H197 C186 0.930 . S
H198 C187 0.930 . S
H199 C188 0.931 . S
Eu200 C209 2.828 . S
Eu200 O211 2.392 1_455 S
Eu200 O213 2.418 1_455 S
Eu200 O218 2.373 . S
Eu200 O221 2.488 . S
Eu200 O222 2.471 . S
Eu200 O223 2.349 . S
Eu201 O210 2.373 . S
Eu201 O214 2.488 . S
Eu201 O215 2.471 . S
Eu201 O216 2.349 . S
Eu201 O219 2.392 1_655 S
Eu201 O220 2.418 1_655 S
Eu201 C230 2.828 . S
C202 O220 1.244 . S
C202 O223 1.265 . S
C203 C204 1.379 . S
C203 C207 1.373 . S
C203 C209 1.505 . S
C204 C203 1.379 . S
C204 C206 1.369 . S
C204 H232 0.930 . S
C205 C207 1.383 . S
C205 C208 1.382 . S
C205 H233 0.930 . S
C206 C204 1.369 . S
C206 C208 1.392 . S
C206 H234 0.930 . S
C207 C203 1.373 . S
C207 C205 1.383 . S
C207 H235 0.931 . S
C208 C205 1.382 . S
C208 C206 1.392 . S
C209 Eu200 2.828 . S
C209 C203 1.505 . S
C209 O221 1.249 . S
C209 O222 1.244 . S
O210 Eu201 2.373 . S
O210 C212 1.258 . S
O211 Eu200 2.392 1_655 S
O211 C212 1.242 . S
C212 O210 1.258 . S
C212 O211 1.242 . S
O213 Eu200 2.418 1_655 S
O213 C217 1.244 . S
O214 Eu201 2.488 . S
O214 C230 1.249 . S
O215 Eu201 2.471 . S
O215 C230 1.244 . S
O216 Eu201 2.349 . S
O216 C217 1.265 . S
C217 O213 1.244 . S
C217 O216 1.265 . S
O218 Eu200 2.373 . S
O218 C231 1.258 . S
O219 Eu201 2.392 1_455 S
O219 C231 1.242 . S
O220 Eu201 2.418 1_455 S
O220 C202 1.244 . S
O221 Eu200 2.488 . S
O221 C209 1.249 . S
O222 Eu200 2.471 . S
O222 C209 1.244 . S
O223 Eu200 2.349 . S
O223 C202 1.265 . S
C224 C225 1.379 . S
C224 C228 1.373 . S
C224 C230 1.505 . S
C225 C224 1.379 . S
C225 C227 1.369 . S
C225 H236 0.930 . S
C226 C228 1.383 . S
C226 C229 1.382 . S
C226 H237 0.930 . S
C227 C225 1.369 . S
C227 C229 1.392 . S
C227 H238 0.930 . S
C228 C224 1.373 . S
C228 C226 1.383 . S
C228 H239 0.931 . S
C229 C226 1.382 . S
C229 C227 1.392 . S
C230 Eu201 2.828 . S
C230 O214 1.249 . S
C230 O215 1.244 . S
C230 C224 1.505 . S
C231 O218 1.258 . S
C231 O219 1.242 . S
H232 C204 0.930 . S
H233 C205 0.930 . S
H234 C206 0.930 . S
H235 C207 0.931 . S
H236 C225 0.930 . S
H237 C226 0.930 . S
H238 C227 0.930 . S
H239 C228 0.931 . S
Eu240 C249 2.828 . S
Eu240 O251 2.392 1_655 S
Eu240 O253 2.418 1_655 S
Eu240 O258 2.373 . S
Eu240 O261 2.488 . S
Eu240 O262 2.471 . S
Eu240 O263 2.349 . S
Eu241 O250 2.373 . S
Eu241 O254 2.488 . S
Eu241 O255 2.471 . S
Eu241 O256 2.349 . S
Eu241 O259 2.392 1_455 S
Eu241 O260 2.418 1_455 S
Eu241 C270 2.828 . S
C242 O260 1.244 . S
C242 O263 1.265 . S
C243 C244 1.379 . S
C243 C247 1.373 . S
C243 C249 1.505 . S
C244 C243 1.379 . S
C244 C246 1.369 . S
C244 H272 0.930 . S
C245 C247 1.383 . S
C245 C248 1.382 . S
C245 H273 0.930 . S
C246 C244 1.369 . S
C246 C248 1.392 . S
C246 H274 0.930 . S
C247 C243 1.373 . S
C247 C245 1.383 . S
C247 H275 0.931 . S
C248 C245 1.382 . S
C248 C246 1.392 . S
C249 Eu240 2.828 . S
C249 C243 1.505 . S
C249 O261 1.249 . S
C249 O262 1.244 . S
O250 Eu241 2.373 . S
O250 C252 1.258 . S
O251 Eu240 2.392 1_455 S
O251 C252 1.242 . S
C252 O250 1.258 . S
C252 O251 1.242 . S
O253 Eu240 2.418 1_455 S
O253 C257 1.244 . S
O254 Eu241 2.488 . S
O254 C270 1.249 . S
O255 Eu241 2.471 . S
O255 C270 1.244 . S
O256 Eu241 2.349 . S
O256 C257 1.265 . S
C257 O253 1.244 . S
C257 O256 1.265 . S
O258 Eu240 2.373 . S
O258 C271 1.258 . S
O259 Eu241 2.392 1_655 S
O259 C271 1.242 . S
O260 Eu241 2.418 1_655 S
O260 C242 1.244 . S
O261 Eu240 2.488 . S
O261 C249 1.249 . S
O262 Eu240 2.471 . S
O262 C249 1.244 . S
O263 Eu240 2.349 . S
O263 C242 1.265 . S
C264 C265 1.379 . S
C264 C268 1.373 . S
C264 C270 1.505 . S
C265 C264 1.379 . S
C265 C267 1.369 . S
C265 H276 0.930 . S
C266 C268 1.383 . S
C266 C269 1.382 . S
C266 H277 0.930 . S
C267 C265 1.369 . S
C267 C269 1.392 . S
C267 H278 0.930 . S
C268 C264 1.373 . S
C268 C266 1.383 . S
C268 H279 0.931 . S
C269 C266 1.382 . S
C269 C267 1.392 . S
C270 Eu241 2.828 . S
C270 O254 1.249 . S
C270 O255 1.244 . S
C270 C264 1.505 . S
C271 O258 1.258 . S
C271 O259 1.242 . S
H272 C244 0.930 . S
H273 C245 0.930 . S
H274 C246 0.930 . S
H275 C247 0.931 . S
H276 C265 0.930 . S
H277 C266 0.930 . S
H278 C267 0.930 . S
H279 C268 0.931 . S
Eu280 C289 2.828 . S
Eu280 O291 2.392 1_565 S
Eu280 O293 2.418 1_565 S
Eu280 O298 2.373 . S
Eu280 O301 2.488 . S
Eu280 O302 2.471 . S
Eu280 O303 2.349 . S
Eu281 O290 2.373 . S
Eu281 O294 2.488 . S
Eu281 O295 2.471 . S
Eu281 O296 2.349 . S
Eu281 O299 2.392 1_545 S
Eu281 O300 2.418 1_545 S
Eu281 C310 2.828 . S
C282 O300 1.244 . S
C282 O303 1.265 . S
C283 C284 1.379 . S
C283 C287 1.373 . S
C283 C289 1.505 . S
C284 C283 1.379 . S
C284 C286 1.369 . S
C284 H312 0.930 . S
C285 C287 1.383 . S
C285 C288 1.382 . S
C285 H313 0.930 . S
C286 C284 1.369 . S
C286 C288 1.392 . S
C286 H314 0.930 . S
C287 C283 1.373 . S
C287 C285 1.383 . S
C287 H315 0.931 . S
C288 C285 1.382 . S
C288 C286 1.392 . S
C289 Eu280 2.828 . S
C289 C283 1.505 . S
C289 O301 1.249 . S
C289 O302 1.244 . S
O290 Eu281 2.373 . S
O290 C292 1.258 . S
O291 Eu280 2.392 1_545 S
O291 C292 1.242 . S
C292 O290 1.258 . S
C292 O291 1.242 . S
O293 Eu280 2.418 1_545 S
O293 C297 1.244 . S
O294 Eu281 2.488 . S
O294 C310 1.249 . S
O295 Eu281 2.471 . S
O295 C310 1.244 . S
O296 Eu281 2.349 . S
O296 C297 1.265 . S
C297 O293 1.244 . S
C297 O296 1.265 . S
O298 Eu280 2.373 . S
O298 C311 1.258 . S
O299 Eu281 2.392 1_565 S
O299 C311 1.242 . S
O300 Eu281 2.418 1_565 S
O300 C282 1.244 . S
O301 Eu280 2.488 . S
O301 C289 1.249 . S
O302 Eu280 2.471 . S
O302 C289 1.244 . S
O303 Eu280 2.349 . S
O303 C282 1.265 . S
C304 C305 1.379 . S
C304 C308 1.373 . S
C304 C310 1.505 . S
C305 C304 1.379 . S
C305 C307 1.369 . S
C305 H316 0.930 . S
C306 C308 1.383 . S
C306 C309 1.382 . S
C306 H317 0.930 . S
C307 C305 1.369 . S
C307 C309 1.392 . S
C307 H318 0.930 . S
C308 C304 1.373 . S
C308 C306 1.383 . S
C308 H319 0.931 . S
C309 C306 1.382 . S
C309 C307 1.392 . S
C310 Eu281 2.828 . S
C310 O294 1.249 . S
C310 O295 1.244 . S
C310 C304 1.505 . S
C311 O298 1.258 . S
C311 O299 1.242 . S
H312 C284 0.930 . S
H313 C285 0.930 . S
H314 C286 0.930 . S
H315 C287 0.931 . S
H316 C305 0.930 . S
H317 C306 0.930 . S
H318 C307 0.930 . S
H319 C308 0.931 . S
Eu320 C329 2.828 . S
Eu320 O331 2.392 . S
Eu320 O333 2.418 . S
Eu320 O338 2.373 . S
Eu320 O341 2.488 . S
Eu320 O342 2.471 . S
Eu320 O343 2.349 . S
Eu321 O330 2.373 . S
Eu321 O334 2.488 . S
Eu321 O335 2.471 . S
Eu321 O336 2.349 . S
Eu321 O339 2.392 . S
Eu321 O340 2.418 . S
Eu321 C350 2.828 . S
C322 O340 1.244 . S
C322 O343 1.265 . S
C323 C324 1.379 . S
C323 C327 1.373 . S
C323 C329 1.505 . S
C324 C323 1.379 . S
C324 C326 1.369 . S
C324 H352 0.930 . S
C325 C327 1.383 . S
C325 C328 1.382 . S
C325 H353 0.930 . S
C326 C324 1.369 . S
C326 C328 1.392 . S
C326 H354 0.930 . S
C327 C323 1.373 . S
C327 C325 1.383 . S
C327 H355 0.931 . S
C328 C325 1.382 . S
C328 C326 1.392 . S
C329 Eu320 2.828 . S
C329 C323 1.505 . S
C329 O341 1.249 . S
C329 O342 1.244 . S
O330 Eu321 2.373 . S
O330 C332 1.258 . S
O331 Eu320 2.392 . S
O331 C332 1.242 . S
C332 O330 1.258 . S
C332 O331 1.242 . S
O333 Eu320 2.418 . S
O333 C337 1.244 . S
O334 Eu321 2.488 . S
O334 C350 1.249 . S
O335 Eu321 2.471 . S
O335 C350 1.244 . S
O336 Eu321 2.349 . S
O336 C337 1.265 . S
C337 O333 1.244 . S
C337 O336 1.265 . S
O338 Eu320 2.373 . S
O338 C351 1.258 . S
O339 Eu321 2.392 . S
O339 C351 1.242 . S
O340 Eu321 2.418 . S
O340 C322 1.244 . S
O341 Eu320 2.488 . S
O341 C329 1.249 . S
O342 Eu320 2.471 . S
O342 C329 1.244 . S
O343 Eu320 2.349 . S
O343 C322 1.265 . S
C344 C345 1.379 . S
C344 C348 1.373 . S
C344 C350 1.505 . S
C345 C344 1.379 . S
C345 C347 1.369 . S
C345 H356 0.930 . S
C346 C348 1.383 . S
C346 C349 1.382 . S
C346 H357 0.930 . S
C347 C345 1.369 . S
C347 C349 1.392 . S
C347 H358 0.930 . S
C348 C344 1.373 . S
C348 C346 1.383 . S
C348 H359 0.931 . S
C349 C346 1.382 . S
C349 C347 1.392 . S
C350 Eu321 2.828 . S
C350 O334 1.249 . S
C350 O335 1.244 . S
C350 C344 1.505 . S
C351 O338 1.258 . S
C351 O339 1.242 . S
H352 C324 0.930 . S
H353 C325 0.930 . S
H354 C326 0.930 . S
H355 C327 0.931 . S
H356 C345 0.930 . S
H357 C346 0.930 . S
H358 C347 0.930 . S
H359 C348 0.931 . S
Eu360 C369 2.828 . S
Eu360 O371 2.392 1_455 S
Eu360 O373 2.418 1_455 S
Eu360 O378 2.373 . S
Eu360 O381 2.488 . S
Eu360 O382 2.471 . S
Eu360 O383 2.349 . S
Eu361 O370 2.373 . S
Eu361 O374 2.488 1_556 S
Eu361 O375 2.471 . S
Eu361 O376 2.349 . S
Eu361 O379 2.392 1_655 S
Eu361 O380 2.418 1_655 S
Eu361 C390 2.828 . S
C362 O380 1.244 . S
C362 O383 1.265 . S
C363 C364 1.379 . S
C363 C367 1.373 . S
C363 C369 1.505 . S
C364 C363 1.379 . S
C364 C366 1.369 . S
C364 H392 0.930 . S
C365 C367 1.383 . S
C365 C368 1.382 . S
C365 H393 0.930 . S
C366 C364 1.369 . S
C366 C368 1.392 . S
C366 H394 0.930 . S
C367 C363 1.373 . S
C367 C365 1.383 . S
C367 H395 0.931 . S
C368 C365 1.382 . S
C368 C366 1.392 . S
C369 Eu360 2.828 . S
C369 C363 1.505 . S
C369 O381 1.249 . S
C369 O382 1.244 . S
O370 Eu361 2.373 . S
O370 C372 1.258 . S
O371 Eu360 2.392 1_655 S
O371 C372 1.242 . S
C372 O370 1.258 . S
C372 O371 1.242 . S
O373 Eu360 2.418 1_655 S
O373 C377 1.244 . S
O374 Eu361 2.488 1_554 S
O374 C390 1.249 1_554 S
O375 Eu361 2.471 . S
O375 C390 1.244 . S
O376 Eu361 2.349 . S
O376 C377 1.265 . S
C377 O373 1.244 . S
C377 O376 1.265 . S
O378 Eu360 2.373 . S
O378 C391 1.258 . S
O379 Eu361 2.392 1_455 S
O379 C391 1.242 . S
O380 Eu361 2.418 1_455 S
O380 C362 1.244 . S
O381 Eu360 2.488 . S
O381 C369 1.249 . S
O382 Eu360 2.471 . S
O382 C369 1.244 . S
O383 Eu360 2.349 . S
O383 C362 1.265 . S
C384 C385 1.379 . S
C384 C388 1.373 . S
C384 C390 1.505 1_554 S
C385 C384 1.379 . S
C385 C387 1.369 . S
C385 H396 0.872 1_554 S
C386 C388 1.383 . S
C386 C389 1.382 . S
C386 H397 0.930 . S
C387 C385 1.369 . S
C387 C389 1.392 . S
C387 H398 0.930 . S
C388 C384 1.373 . S
C388 C386 1.383 . S
C388 H399 0.931 . S
C389 C386 1.382 . S
C389 C387 1.392 . S
C390 Eu361 2.828 . S
C390 O374 1.249 1_556 S
C390 O375 1.244 . S
C390 C384 1.505 1_556 S
C391 O378 1.258 . S
C391 O379 1.242 . S
H392 C364 0.930 . S
H393 C365 0.930 . S
H394 C366 0.930 . S
H395 C367 0.931 . S
H396 C385 0.872 1_556 S
H397 C386 0.930 . S
H398 C387 0.930 . S
H399 C388 0.931 . S
Eu400 C409 2.828 . S
Eu400 O411 2.392 1_545 S
Eu400 O413 2.418 1_545 S
Eu400 O418 2.373 . S
Eu400 O421 2.488 . S
Eu400 O422 2.471 . S
Eu400 O423 2.349 . S
Eu401 O410 2.373 . S
Eu401 O414 2.488 . S
Eu401 O415 2.471 . S
Eu401 O416 2.349 . S
Eu401 O419 2.392 1_565 S
Eu401 O420 2.418 1_565 S
Eu401 C430 2.828 . S
C402 O420 1.244 . S
C402 O423 1.265 . S
C403 C404 1.379 . S
C403 C407 1.373 . S
C403 C409 1.505 . S
C404 C403 1.379 . S
C404 C406 1.369 . S
C404 H432 0.930 . S
C405 C407 1.383 . S
C405 C408 1.382 . S
C405 H433 0.930 . S
C406 C404 1.369 . S
C406 C408 1.392 . S
C406 H434 0.930 . S
C407 C403 1.373 . S
C407 C405 1.383 . S
C407 H435 0.931 . S
C408 C405 1.382 . S
C408 C406 1.392 . S
C409 Eu400 2.828 . S
C409 C403 1.505 . S
C409 O421 1.249 . S
C409 O422 1.244 . S
O410 Eu401 2.373 . S
O410 C412 1.258 . S
O411 Eu400 2.392 1_565 S
O411 C412 1.242 . S
C412 O410 1.258 . S
C412 O411 1.242 . S
O413 Eu400 2.418 1_565 S
O413 C417 1.244 . S
O414 Eu401 2.488 . S
O414 C430 1.249 . S
O415 Eu401 2.471 . S
O415 C430 1.244 . S
O416 Eu401 2.349 . S
O416 C417 1.265 . S
C417 O413 1.244 . S
C417 O416 1.265 . S
O418 Eu400 2.373 . S
O418 C431 1.258 . S
O419 Eu401 2.392 1_545 S
O419 C431 1.242 . S
O420 Eu401 2.418 1_545 S
O420 C402 1.244 . S
O421 Eu400 2.488 . S
O421 C409 1.249 . S
O422 Eu400 2.471 . S
O422 C409 1.244 . S
O423 Eu400 2.349 . S
O423 C402 1.265 . S
C424 C425 1.379 . S
C424 C428 1.373 . S
C424 C430 1.505 . S
C425 C424 1.379 . S
C425 C427 1.369 . S
C425 H436 0.930 . S
C426 C428 1.383 . S
C426 C429 1.382 . S
C426 H437 0.930 . S
C427 C425 1.369 . S
C427 C429 1.392 . S
C427 H438 0.930 . S
C428 C424 1.373 . S
C428 C426 1.383 . S
C428 H439 0.931 . S
C429 C426 1.382 . S
C429 C427 1.392 . S
C430 Eu401 2.828 . S
C430 O414 1.249 . S
C430 O415 1.244 . S
C430 C424 1.505 . S
C431 O418 1.258 . S
C431 O419 1.242 . S
H432 C404 0.930 . S
H433 C405 0.930 . S
H434 C406 0.930 . S
H435 C407 0.931 . S
H436 C425 0.930 . S
H437 C426 0.930 . S
H438 C427 0.930 . S
H439 C428 0.931 . S
Eu440 C449 2.828 . S
Eu440 O451 2.392 . S
Eu440 O453 2.418 . S
Eu440 O458 2.373 . S
Eu440 O461 2.488 . S
Eu440 O462 2.471 . S
Eu440 O463 2.349 . S
Eu441 O450 2.373 . S
Eu441 O454 2.488 . S
Eu441 O455 2.471 . S
Eu441 O456 2.349 . S
Eu441 O459 2.392 . S
Eu441 O460 2.418 . S
Eu441 C470 2.828 . S
C442 O460 1.244 . S
C442 O463 1.265 . S
C443 C444 1.379 . S
C443 C447 1.373 . S
C443 C449 1.505 . S
C444 C443 1.379 . S
C444 C446 1.369 . S
C444 H472 0.930 . S
C445 C447 1.383 . S
C445 C448 1.382 . S
C445 H473 0.930 . S
C446 C444 1.369 . S
C446 C448 1.392 . S
C446 H474 0.930 . S
C447 C443 1.373 . S
C447 C445 1.383 . S
C447 H475 0.931 . S
C448 C445 1.382 . S
C448 C446 1.392 . S
C449 Eu440 2.828 . S
C449 C443 1.505 . S
C449 O461 1.249 . S
C449 O462 1.244 . S
O450 Eu441 2.373 . S
O450 C452 1.258 . S
O451 Eu440 2.392 . S
O451 C452 1.242 . S
C452 O450 1.258 . S
C452 O451 1.242 . S
O453 Eu440 2.418 . S
O453 C457 1.244 . S
O454 Eu441 2.488 . S
O454 C470 1.249 . S
O455 Eu441 2.471 . S
O455 C470 1.244 . S
O456 Eu441 2.349 . S
O456 C457 1.265 . S
C457 O453 1.244 . S
C457 O456 1.265 . S
O458 Eu440 2.373 . S
O458 C471 1.258 . S
O459 Eu441 2.392 . S
O459 C471 1.242 . S
O460 Eu441 2.418 . S
O460 C442 1.244 . S
O461 Eu440 2.488 . S
O461 C449 1.249 . S
O462 Eu440 2.471 . S
O462 C449 1.244 . S
O463 Eu440 2.349 . S
O463 C442 1.265 . S
C464 C465 1.379 . S
C464 C468 1.373 . S
C464 C470 1.505 . S
C465 C464 1.379 . S
C465 C467 1.369 . S
C465 H476 0.930 . S
C466 C468 1.383 . S
C466 C469 1.382 . S
C466 H477 0.930 . S
C467 C465 1.369 . S
C467 C469 1.392 . S
C467 H478 0.930 . S
C468 C464 1.373 . S
C468 C466 1.383 . S
C468 H479 0.931 . S
C469 C466 1.382 . S
C469 C467 1.392 . S
C470 Eu441 2.828 . S
C470 O454 1.249 . S
C470 O455 1.244 . S
C470 C464 1.505 . S
C471 O458 1.258 . S
C471 O459 1.242 . S
H472 C444 0.930 . S
H473 C445 0.930 . S
H474 C446 0.930 . S
H475 C447 0.931 . S
H476 C465 0.930 . S
H477 C466 0.930 . S
H478 C467 0.930 . S
H479 C468 0.931 . S
C480 C481 1.363 . S
C480 C486 1.379 . S
C480 N488 1.356 . S
C481 C480 1.363 . S
C481 C487 1.363 . S
C482 C483 1.363 . S
C482 C487 1.379 . S
C482 N489 1.356 . S
C483 C482 1.363 . S
C483 C486 1.363 . S
N484 C486 1.356 . S
N484 H496 0.984 . S
N484 H497 0.985 . S
N485 C487 1.356 . S
N485 H490 0.984 . S
N485 H491 0.985 1_455 S
C486 C480 1.379 . S
C486 C483 1.363 . S
C486 N484 1.356 . S
C487 C481 1.363 . S
C487 C482 1.379 . S
C487 N485 1.356 . S
N488 C480 1.356 . S
N488 H494 0.984 . S
N488 H495 0.984 . S
N489 C482 1.356 . S
N489 H492 0.984 . S
N489 H493 0.985 . S
H490 N485 0.984 . S
H491 N485 0.985 1_655 S
H492 N489 0.984 . S
H493 N489 0.985 . S
H494 N488 0.984 . S
H495 N488 0.984 . S
H496 N484 0.984 . S
H497 N484 0.985 . S
C498 C499 1.363 . S
C498 C504 1.379 . S
C498 N506 1.356 1_545 S
C499 C498 1.363 . S
C499 C505 1.363 . S
C500 C501 1.363 . S
C500 C505 1.379 . S
C500 N507 1.356 . S
C501 C500 1.363 . S
C501 C504 1.363 . S
N502 C504 1.356 . S
N502 H514 0.984 1_545 S
N502 H515 0.985 . S
N503 C505 1.356 . S
N503 H508 0.984 . S
N503 H509 0.985 . S
C504 C498 1.379 . S
C504 C501 1.363 . S
C504 N502 1.356 . S
C505 C499 1.363 . S
C505 C500 1.379 . S
C505 N503 1.356 . S
N506 C498 1.356 1_565 S
N506 H512 0.984 . S
N506 H513 0.984 . S
N507 C500 1.356 . S
N507 H510 0.984 . S
N507 H511 0.985 . S
H508 N503 0.984 . S
H509 N503 0.985 . S
H510 N507 0.984 . S
H511 N507 0.985 . S
H512 N506 0.984 . S
H513 N506 0.984 . S
H514 N502 0.984 1_565 S
H515 N502 0.985 . S
C516 C517 1.363 . S
C516 C522 1.379 . S
C516 N524 1.356 . S
C517 C516 1.363 . S
C517 C523 1.363 . S
C518 C519 1.363 . S
C518 C523 1.379 . S
C518 N525 1.356 . S
C519 C518 1.363 . S
C519 C522 1.363 . S
N520 C522 1.356 . S
N520 H532 0.984 . S
N520 H533 0.985 . S
N521 C523 1.356 . S
N521 H526 0.984 . S
N521 H527 0.985 . S
C522 C516 1.379 . S
C522 C519 1.363 . S
C522 N520 1.356 . S
C523 C517 1.363 . S
C523 C518 1.379 . S
C523 N521 1.356 . S
N524 C516 1.356 . S
N524 H530 0.984 . S
N524 H531 0.984 . S
N525 C518 1.356 . S
N525 H528 0.984 . S
N525 H529 0.985 . S
H526 N521 0.984 . S
H527 N521 0.985 . S
H528 N525 0.984 . S
H529 N525 0.985 . S
H530 N524 0.984 . S
H531 N524 0.984 . S
H532 N520 0.984 . S
H533 N520 0.985 . S
C534 C535 1.363 . S
C534 C540 1.379 . S
C534 N542 1.356 . S
C535 C534 1.363 . S
C535 C541 1.363 . S
C536 C537 1.363 . S
C536 C541 1.379 . S
C536 N543 1.356 . S
C537 C536 1.363 . S
C537 C540 1.363 . S
N538 C540 1.356 . S
N538 H550 0.984 . S
N538 H551 0.985 . S
N539 C541 1.356 . S
N539 H544 0.984 . S
N539 H545 0.985 . S
C540 C534 1.379 . S
C540 C537 1.363 . S
C540 N538 1.356 . S
C541 C535 1.363 . S
C541 C536 1.379 . S
C541 N539 1.356 . S
N542 C534 1.356 . S
N542 H548 0.984 1_655 S
N542 H549 0.984 . S
N543 C536 1.356 . S
N543 H546 0.984 . S
N543 H547 0.985 . S
H544 N539 0.984 . S
H545 N539 0.985 . S
H546 N543 0.984 . S
H547 N543 0.985 . S
H548 N542 0.984 1_455 S
H549 N542 0.984 . S
H550 N538 0.984 . S
H551 N538 0.985 . S
C552 C553 1.363 . S
C552 C558 1.379 . S
C552 N560 1.356 . S
C553 C552 1.363 . S
C553 C559 1.363 . S
C554 C555 1.363 . S
C554 C559 1.379 . S
C554 N561 1.356 . S
C555 C554 1.363 . S
C555 C558 1.363 . S
N556 C558 1.356 1_545 S
N556 H568 0.984 . S
N556 H569 0.985 . S
N557 C559 1.356 . S
N557 H562 0.984 . S
N557 H563 0.985 . S
C558 C552 1.379 . S
C558 C555 1.363 . S
C558 N556 1.356 1_565 S
C559 C553 1.363 . S
C559 C554 1.379 . S
C559 N557 1.356 . S
N560 C552 1.356 . S
N560 H566 0.984 1_565 S
N560 H567 0.984 . S
N561 C554 1.356 . S
N561 H564 0.984 . S
N561 H565 0.985 . S
H562 N557 0.984 . S
H563 N557 0.985 . S
H564 N561 0.984 . S
H565 N561 0.985 . S
H566 N560 0.984 1_545 S
H567 N560 0.984 . S
H568 N556 0.984 . S
H569 N556 0.985 . S
C570 C571 1.363 . S
C570 C576 1.379 . S
C570 N578 1.356 . S
C571 C570 1.363 . S
C571 C577 1.363 . S
C572 C573 1.363 . S
C572 C577 1.379 . S
C572 N579 1.356 . S
C573 C572 1.363 . S
C573 C576 1.363 . S
N574 C576 1.356 . S
N574 H586 0.984 . S
N574 H587 0.985 . S
N575 C577 1.356 . S
N575 H580 0.984 . S
N575 H581 0.985 . S
C576 C570 1.379 . S
C576 C573 1.363 . S
C576 N574 1.356 . S
C577 C571 1.363 . S
C577 C572 1.379 . S
C577 N575 1.356 . S
N578 C570 1.356 . S
N578 H584 0.984 . S
N578 H585 0.984 . S
N579 C572 1.356 . S
N579 H582 0.984 . S
N579 H583 0.985 . S
H580 N575 0.984 . S
H581 N575 0.985 . S
H582 N579 0.984 . S
H583 N579 0.985 . S
H584 N578 0.984 . S
H585 N578 0.984 . S
H586 N574 0.984 . S
H587 N574 0.985 . S
C588 C589 1.363 . S
C588 C594 1.379 . S
C588 N596 1.356 . S
C589 C588 1.363 . S
C589 C595 1.363 . S
C590 C591 1.363 . S
C590 C595 1.379 . S
C590 N597 1.356 . S
C591 C590 1.363 . S
C591 C594 1.363 . S
N592 C594 1.356 . S
N592 H604 0.984 . S
N592 H605 0.985 . S
N593 C595 1.356 . S
N593 H598 0.984 . S
N593 H599 0.985 . S
C594 C588 1.379 . S
C594 C591 1.363 . S
C594 N592 1.356 . S
C595 C589 1.363 . S
C595 C590 1.379 . S
C595 N593 1.356 . S
N596 C588 1.356 . S
N596 H602 0.984 1_565 S
N596 H603 0.984 . S
N597 C590 1.356 . S
N597 H600 0.984 . S
N597 H601 0.985 . S
H598 N593 0.984 . S
H599 N593 0.985 . S
H600 N597 0.984 . S
H601 N597 0.985 . S
H602 N596 0.984 1_545 S
H603 N596 0.984 . S
H604 N592 0.984 . S
H605 N592 0.985 . S
C606 C607 1.363 . S
C606 C612 1.379 . S
C606 N614 1.356 . S
C607 C606 1.363 . S
C607 C613 1.363 . S
C608 C609 1.363 . S
C608 C613 1.379 . S
C608 N615 1.356 . S
C609 C608 1.363 . S
C609 C612 1.363 . S
N610 C612 1.356 . S
N610 H622 0.984 . S
N610 H623 0.985 . S
N611 C613 1.356 . S
N611 H616 0.984 . S
N611 H617 0.985 . S
C612 C606 1.379 . S
C612 C609 1.363 . S
C612 N610 1.356 . S
C613 C607 1.363 . S
C613 C608 1.379 . S
C613 N611 1.356 . S
N614 C606 1.356 . S
N614 H620 0.984 . S
N614 H621 0.984 . S
N615 C608 1.356 . S
N615 H618 0.984 . S
N615 H619 0.985 . S
H616 N611 0.984 . S
H617 N611 0.985 . S
H618 N615 0.984 . S
H619 N615 0.985 . S
H620 N614 0.984 . S
H621 N614 0.984 . S
H622 N610 0.984 . S
H623 N610 0.985 . S
C624 C625 1.363 . S
C624 C630 1.379 . S
C624 N632 1.356 . S
C625 C624 1.363 . S
C625 C631 1.363 . S
C626 C627 1.363 . S
C626 C631 1.379 . S
C626 N633 1.356 . S
C627 C626 1.363 . S
C627 C630 1.363 . S
N628 C630 1.356 . S
N628 H640 0.984 . S
N628 H641 0.985 . S
N629 C631 1.356 . S
N629 H634 0.984 . S
N629 H635 0.985 . S
C630 C624 1.379 . S
C630 C627 1.363 . S
C630 N628 1.356 . S
C631 C625 1.363 . S
C631 C626 1.379 . S
C631 N629 1.356 . S
N632 C624 1.356 . S
N632 H638 0.984 . S
N632 H639 0.984 . S
N633 C626 1.356 . S
N633 H636 0.984 . S
N633 H637 0.985 . S
H634 N629 0.984 . S
H635 N629 0.985 . S
H636 N633 0.984 . S
H637 N633 0.985 . S
H638 N632 0.984 . S
H639 N632 0.984 . S
H640 N628 0.984 . S
H641 N628 0.985 . S
C642 C643 1.363 . S
C642 C648 1.379 . S
C642 N650 1.356 . S
C643 C642 1.363 . S
C643 C649 1.363 . S
C644 C645 1.363 . S
C644 C649 1.379 . S
C644 N651 1.356 . S
C645 C644 1.363 . S
C645 C648 1.363 . S
N646 C648 1.356 . S
N646 H658 0.984 . S
N646 H659 0.985 . S
N647 C649 1.356 . S
N647 H652 0.984 . S
N647 H653 0.985 1_545 S
C648 C642 1.379 . S
C648 C645 1.363 . S
C648 N646 1.356 . S
C649 C643 1.363 . S
C649 C644 1.379 . S
C649 N647 1.356 . S
N650 C642 1.356 . S
N650 H656 0.984 . S
N650 H657 0.984 . S
N651 C644 1.356 . S
N651 H654 0.984 . S
N651 H655 0.985 . S
H652 N647 0.984 . S
H653 N647 0.985 1_565 S
H654 N651 0.984 . S
H655 N651 0.985 . S
H656 N650 0.984 . S
H657 N650 0.984 . S
H658 N646 0.984 . S
H659 N646 0.985 . S
C660 C661 1.363 . S
C660 C666 1.379 . S
C660 N668 1.356 . S
C661 C660 1.363 . S
C661 C667 1.363 . S
C662 C663 1.363 . S
C662 C667 1.379 . S
C662 N669 1.356 . S
C663 C662 1.363 . S
C663 C666 1.363 . S
N664 C666 1.356 . S
N664 H676 0.984 . S
N664 H677 0.985 . S
N665 C667 1.356 . S
N665 H670 0.984 . S
N665 H671 0.985 . S
C666 C660 1.379 . S
C666 C663 1.363 . S
C666 N664 1.356 . S
C667 C661 1.363 . S
C667 C662 1.379 . S
C667 N665 1.356 . S
N668 C660 1.356 . S
N668 H674 0.984 . S
N668 H675 0.984 . S
N669 C662 1.356 . S
N669 H672 0.984 . S
N669 H673 0.985 . S
H670 N665 0.984 . S
H671 N665 0.985 . S
H672 N669 0.984 . S
H673 N669 0.985 . S
H674 N668 0.984 . S
H675 N668 0.984 . S
H676 N664 0.984 . S
H677 N664 0.985 . S
C678 C679 1.363 . S
C678 C684 1.379 . S
C678 N686 1.356 . S
C679 C678 1.363 . S
C679 C685 1.363 . S
C680 C681 1.363 . S
C680 C685 1.379 . S
C680 N687 1.356 . S
C681 C680 1.363 . S
C681 C684 1.363 . S
N682 C684 1.356 . S
N682 H694 0.984 . S
N682 H695 0.985 . S
N683 C685 1.356 . S
N683 H688 0.984 . S
N683 H689 0.985 . S
C684 C678 1.379 . S
C684 C681 1.363 . S
C684 N682 1.356 . S
C685 C679 1.363 . S
C685 C680 1.379 . S
C685 N683 1.356 . S
N686 C678 1.356 . S
N686 H692 0.984 . S
N686 H693 0.984 . S
N687 C680 1.356 . S
N687 H690 0.984 . S
N687 H691 0.985 . S
H688 N683 0.984 . S
H689 N683 0.985 . S
H690 N687 0.984 . S
H691 N687 0.985 . S
H692 N686 0.984 . S
H693 N686 0.984 . S
H694 N682 0.984 . S
H695 N682 0.985 . S
C696 C697 1.363 . S
C696 C702 1.379 . S
C696 N704 1.356 . S
C697 C696 1.363 . S
C697 C703 1.363 . S
C698 C699 1.363 . S
C698 C703 1.379 . S
C698 N705 1.356 . S
C699 C698 1.363 . S
C699 C702 1.363 . S
N700 C702 1.356 . S
N700 H712 0.984 . S
N700 H713 0.985 . S
N701 C703 1.356 . S
N701 H706 0.984 . S
N701 H707 0.985 . S
C702 C696 1.379 . S
C702 C699 1.363 . S
C702 N700 1.356 . S
C703 C697 1.363 . S
C703 C698 1.379 . S
C703 N701 1.356 . S
N704 C696 1.356 . S
N704 H710 0.984 . S
N704 H711 0.984 . S
N705 C698 1.356 . S
N705 H708 0.984 . S
N705 H709 0.985 . S
H706 N701 0.984 . S
H707 N701 0.985 . S
H708 N705 0.984 . S
H709 N705 0.985 . S
H710 N704 0.984 . S
H711 N704 0.984 . S
H712 N700 0.984 . S
H713 N700 0.985 . S
C714 C715 1.363 . S
C714 C720 1.379 . S
C714 N722 1.356 . S
C715 C714 1.363 . S
C715 C721 1.363 . S
C716 C717 1.363 . S
C716 C721 1.379 . S
C716 N723 1.356 . S
C717 C716 1.363 . S
C717 C720 1.363 . S
N718 C720 1.356 . S
N718 H730 0.984 . S
N718 H731 0.985 . S
N719 C721 1.356 . S
N719 H724 0.984 . S
N719 H725 0.985 . S
C720 C714 1.379 . S
C720 C717 1.363 . S
C720 N718 1.356 . S
C721 C715 1.363 . S
C721 C716 1.379 . S
C721 N719 1.356 . S
N722 C714 1.356 . S
N722 H728 0.984 . S
N722 H729 0.984 . S
N723 C716 1.356 . S
N723 H726 0.984 . S
N723 H727 0.985 . S
H724 N719 0.984 . S
H725 N719 0.985 . S
H726 N723 0.984 . S
H727 N723 0.985 . S
H728 N722 0.984 . S
H729 N722 0.984 . S
H730 N718 0.984 . S
H731 N718 0.985 . S
C732 C733 1.363 . S
C732 C738 1.379 . S
C732 N740 1.356 . S
C733 C732 1.363 . S
C733 C739 1.363 . S
C734 C735 1.363 . S
C734 C739 1.379 . S
C734 N741 1.356 . S
C735 C734 1.363 . S
C735 C738 1.363 . S
N736 C738 1.356 . S
N736 H748 0.984 . S
N736 H749 0.985 . S
N737 C739 1.356 . S
N737 H742 0.984 . S
N737 H743 0.985 . S
C738 C732 1.379 . S
C738 C735 1.363 . S
C738 N736 1.356 . S
C739 C733 1.363 . S
C739 C734 1.379 . S
C739 N737 1.356 . S
N740 C732 1.356 . S
N740 H746 0.984 . S
N740 H747 0.984 . S
N741 C734 1.356 . S
N741 H744 0.984 . S
N741 H745 0.985 . S
H742 N737 0.984 . S
H743 N737 0.985 . S
H744 N741 0.984 . S
H745 N741 0.985 . S
H746 N740 0.984 . S
H747 N740 0.984 . S
H748 N736 0.984 . S
H749 N736 0.985 . S
C750 C751 1.363 . S
C750 C756 1.379 . S
C750 N758 1.356 . S
C751 C750 1.363 . S
C751 C757 1.363 . S
C752 C753 1.363 . S
C752 C757 1.379 . S
C752 N759 1.356 . S
C753 C752 1.363 . S
C753 C756 1.363 . S
N754 C756 1.356 . S
N754 H766 0.984 . S
N754 H767 0.985 . S
N755 C757 1.356 . S
N755 H760 0.984 . S
N755 H761 0.985 . S
C756 C750 1.379 . S
C756 C753 1.363 . S
C756 N754 1.356 . S
C757 C751 1.363 . S
C757 C752 1.379 . S
C757 N755 1.356 . S
N758 C750 1.356 . S
N758 H764 0.984 . S
N758 H765 0.984 . S
N759 C752 1.356 . S
N759 H762 0.984 . S
N759 H763 0.985 . S
H760 N755 0.984 . S
H761 N755 0.985 . S
H762 N759 0.984 . S
H763 N759 0.985 . S
H764 N758 0.984 . S
H765 N758 0.984 . S
H766 N754 0.984 . S
H767 N754 0.985 . S
C768 C769 1.363 . S
C768 C774 1.379 . S
C768 N776 1.356 . S
C769 C768 1.363 . S
C769 C775 1.363 1_556 S
C770 C771 1.363 1_554 S
C770 C775 1.379 . S
C770 N777 1.356 . S
C771 C770 1.363 1_556 S
C771 C774 1.363 . S
N772 C774 1.356 . S
N772 H784 0.984 . S
N772 H785 0.985 . S
N773 C775 1.356 . S
N773 H778 0.984 . S
N773 H779 0.985 . S
C774 C768 1.379 . S
C774 C771 1.363 . S
C774 N772 1.356 . S
C775 C769 1.363 1_554 S
C775 C770 1.379 . S
C775 N773 1.356 . S
N776 C768 1.356 . S
N776 H782 0.984 . S
N776 H783 0.984 . S
N777 C770 1.356 . S
N777 H780 0.984 . S
N777 H781 0.985 . S
H778 N773 0.984 . S
H779 N773 0.985 . S
H780 N777 0.984 . S
H781 N777 0.985 . S
H782 N776 0.984 . S
H783 N776 0.984 . S
H784 N772 0.984 . S
H785 N772 0.985 . S
C786 C787 1.363 . S
C786 C792 1.379 . S
C786 N794 1.356 . S
C787 C786 1.363 . S
C787 C793 1.363 . S
C788 C789 1.363 . S
C788 C793 1.379 . S
C788 N795 1.356 . S
C789 C788 1.363 . S
C789 C792 1.363 . S
N790 C792 1.356 . S
N790 H802 0.984 . S
N790 H803 0.985 . S
N791 C793 1.356 . S
N791 H796 0.984 . S
N791 H797 0.985 . S
C792 C786 1.379 . S
C792 C789 1.363 . S
C792 N790 1.356 . S
C793 C787 1.363 . S
C793 C788 1.379 . S
C793 N791 1.356 . S
N794 C786 1.356 . S
N794 H800 0.984 . S
N794 H801 0.984 . S
N795 C788 1.356 . S
N795 H798 0.984 . S
N795 H799 0.985 . S
H796 N791 0.984 . S
H797 N791 0.985 . S
H798 N795 0.984 . S
H799 N795 0.985 . S
H800 N794 0.984 . S
H801 N794 0.984 . S
H802 N790 0.984 . S
H803 N790 0.985 . S
C804 C805 1.363 . S
C804 C810 1.379 . S
C804 N812 1.356 . S
C805 C804 1.363 . S
C805 C811 1.363 . S
C806 C807 1.363 . S
C806 C811 1.379 . S
C806 N813 1.356 . S
C807 C806 1.363 . S
C807 C810 1.363 . S
N808 C810 1.356 . S
N808 H820 0.984 . S
N808 H821 0.985 . S
N809 C811 1.356 . S
N809 H814 0.984 . S
N809 H815 0.985 . S
C810 C804 1.379 . S
C810 C807 1.363 . S
C810 N808 1.356 . S
C811 C805 1.363 . S
C811 C806 1.379 . S
C811 N809 1.356 . S
N812 C804 1.356 . S
N812 H818 0.984 . S
N812 H819 0.984 . S
N813 C806 1.356 . S
N813 H816 0.984 . S
N813 H817 0.985 . S
H814 N809 0.984 . S
H815 N809 0.985 . S
H816 N813 0.984 . S
H817 N813 0.985 . S
H818 N812 0.984 . S
H819 N812 0.984 . S
H820 N808 0.984 . S
H821 N808 0.985 . S
C822 C823 1.363 . S
C822 C828 1.379 . S
C822 N830 1.356 . S
C823 C822 1.363 . S
C823 C829 1.363 . S
C824 C825 1.363 . S
C824 C829 1.379 . S
C824 N831 1.356 . S
C825 C824 1.363 . S
C825 C828 1.363 . S
N826 C828 1.356 . S
N826 H838 0.984 . S
N826 H839 0.985 . S
N827 C829 1.356 . S
N827 H832 0.984 . S
N827 H833 0.985 . S
C828 C822 1.379 . S
C828 C825 1.363 . S
C828 N826 1.356 . S
C829 C823 1.363 . S
C829 C824 1.379 . S
C829 N827 1.356 . S
N830 C822 1.356 . S
N830 H836 0.984 . S
N830 H837 0.984 . S
N831 C824 1.356 . S
N831 H834 0.984 . S
N831 H835 0.985 . S
H832 N827 0.984 . S
H833 N827 0.985 . S
H834 N831 0.984 . S
H835 N831 0.985 . S
H836 N830 0.984 . S
H837 N830 0.984 . S
H838 N826 0.984 . S
H839 N826 0.985 . S
C840 C841 1.363 . S
C840 C846 1.379 . S
C840 N848 1.356 . S
C841 C840 1.363 . S
C841 C847 1.363 . S
C842 C843 1.363 . S
C842 C847 1.379 . S
C842 N849 1.356 . S
C843 C842 1.363 . S
C843 C846 1.363 . S
N844 C846 1.356 . S
N844 H856 0.984 . S
N844 H857 0.985 . S
N845 C847 1.356 . S
N845 H850 0.984 . S
N845 H851 0.985 . S
C846 C840 1.379 . S
C846 C843 1.363 . S
C846 N844 1.356 . S
C847 C841 1.363 . S
C847 C842 1.379 . S
C847 N845 1.356 . S
N848 C840 1.356 . S
N848 H854 0.984 . S
N848 H855 0.984 . S
N849 C842 1.356 . S
N849 H852 0.984 . S
N849 H853 0.985 . S
H850 N845 0.984 . S
H851 N845 0.985 . S
H852 N849 0.984 . S
H853 N849 0.985 . S
H854 N848 0.984 . S
H855 N848 0.984 . S
H856 N844 0.984 . S
H857 N844 0.985 . S
C858 C859 1.363 1_554 S
C858 C864 1.379 . S
C858 N866 1.356 . S
C859 C858 1.363 1_556 S
C859 C865 1.363 . S
C860 C861 1.363 . S
C860 C865 1.379 . S
C860 N867 1.356 . S
C861 C860 1.363 . S
C861 C864 1.363 1_556 S
N862 C864 1.356 . S
N862 H874 0.984 . S
N862 H875 0.985 . S
N863 C865 1.356 . S
N863 H868 0.984 . S
N863 H869 0.985 . S
C864 C858 1.379 . S
C864 C861 1.363 1_554 S
C864 N862 1.356 . S
C865 C859 1.363 . S
C865 C860 1.379 . S
C865 N863 1.356 . S
N866 C858 1.356 . S
N866 H872 0.984 . S
N866 H873 0.984 . S
N867 C860 1.356 . S
N867 H870 0.984 . S
N867 H871 0.985 . S
H868 N863 0.984 . S
H869 N863 0.985 . S
H870 N867 0.984 . S
H871 N867 0.985 . S
H872 N866 0.984 . S
H873 N866 0.984 . S
H874 N862 0.984 . S
H875 N862 0.985 . S
C876 C877 1.363 . S
C876 C882 1.379 . S
C876 N884 1.356 . S
C877 C876 1.363 . S
C877 C883 1.363 . S
C878 C879 1.363 . S
C878 C883 1.379 . S
C878 N885 1.356 . S
C879 C878 1.363 . S
C879 C882 1.363 . S
N880 C882 1.356 . S
N880 H892 0.984 . S
N880 H893 0.985 . S
N881 C883 1.356 . S
N881 H886 0.984 . S
N881 H887 0.985 . S
C882 C876 1.379 . S
C882 C879 1.363 . S
C882 N880 1.356 . S
C883 C877 1.363 . S
C883 C878 1.379 . S
C883 N881 1.356 . S
N884 C876 1.356 . S
N884 H890 0.984 . S
N884 H891 0.984 . S
N885 C878 1.356 . S
N885 H888 0.984 . S
N885 H889 0.985 . S
H886 N881 0.984 . S
H887 N881 0.985 . S
H888 N885 0.984 . S
H889 N885 0.985 . S
H890 N884 0.984 . S
H891 N884 0.984 . S
H892 N880 0.984 . S
H893 N880 0.985 . S
C894 C895 1.363 . S
C894 C900 1.379 . S
C894 N902 1.356 . S
C895 C894 1.363 . S
C895 C901 1.363 . S
C896 C897 1.363 . S
C896 C901 1.379 . S
C896 N903 1.356 . S
C897 C896 1.363 . S
C897 C900 1.363 . S
N898 C900 1.356 . S
N898 H910 0.984 . S
N898 H911 0.985 . S
N899 C901 1.356 . S
N899 H904 0.984 . S
N899 H905 0.985 . S
C900 C894 1.379 . S
C900 C897 1.363 . S
C900 N898 1.356 . S
C901 C895 1.363 . S
C901 C896 1.379 . S
C901 N899 1.356 . S
N902 C894 1.356 . S
N902 H908 0.984 . S
N902 H909 0.984 . S
N903 C896 1.356 . S
N903 H906 0.984 . S
N903 H907 0.985 . S
H904 N899 0.984 . S
H905 N899 0.985 . S
H906 N903 0.984 . S
H907 N903 0.985 . S
H908 N902 0.984 . S
H909 N902 0.984 . S
H910 N898 0.984 . S
H911 N898 0.985 . S
C912 C913 1.363 . S
C912 C918 1.379 . S
C912 N920 1.356 . S
C913 C912 1.363 . S
C913 C919 1.363 . S
C914 C915 1.363 . S
C914 C919 1.379 . S
C914 N921 1.356 . S
C915 C914 1.363 . S
C915 C918 1.363 . S
N916 C918 1.356 . S
N916 H928 0.984 . S
N916 H929 0.985 . S
N917 C919 1.356 . S
N917 H922 0.984 . S
N917 H923 0.985 . S
C918 C912 1.379 . S
C918 C915 1.363 . S
C918 N916 1.356 . S
C919 C913 1.363 . S
C919 C914 1.379 . S
C919 N917 1.356 . S
N920 C912 1.356 . S
N920 H926 0.984 . S
N920 H927 0.984 . S
N921 C914 1.356 . S
N921 H924 0.984 . S
N921 H925 0.985 . S
H922 N917 0.984 . S
H923 N917 0.985 . S
H924 N921 0.984 . S
H925 N921 0.985 . S
H926 N920 0.984 . S
H927 N920 0.984 . S
H928 N916 0.984 . S
H929 N916 0.985 . S
C930 C931 1.363 . S
C930 C936 1.379 . S
C930 N938 1.356 . S
C931 C930 1.363 . S
C931 C937 1.363 . S
C932 C933 1.363 . S
C932 C937 1.379 . S
C932 N939 1.356 . S
C933 C932 1.363 . S
C933 C936 1.363 . S
N934 C936 1.356 . S
N934 H946 0.984 . S
N934 H947 0.985 . S
N935 C937 1.356 . S
N935 H940 0.984 . S
N935 H941 0.985 . S
C936 C930 1.379 . S
C936 C933 1.363 . S
C936 N934 1.356 . S
C937 C931 1.363 . S
C937 C932 1.379 . S
C937 N935 1.356 . S
N938 C930 1.356 . S
N938 H944 0.984 . S
N938 H945 0.984 . S
N939 C932 1.356 . S
N939 H942 0.984 . S
N939 H943 0.985 . S
H940 N935 0.984 . S
H941 N935 0.985 . S
H942 N939 0.984 . S
H943 N939 0.985 . S
H944 N938 0.984 . S
H945 N938 0.984 . S
H946 N934 0.984 . S
H947 N934 0.985 . S
C948 C949 1.363 . S
C948 C954 1.379 . S
C948 N956 1.356 . S
C949 C948 1.363 . S
C949 C955 1.363 . S
C950 C951 1.363 . S
C950 C955 1.379 . S
C950 N957 1.356 . S
C951 C950 1.363 . S
C951 C954 1.363 . S
N952 C954 1.356 . S
N952 H964 0.984 . S
N952 H965 0.985 . S
N953 C955 1.356 . S
N953 H958 0.984 . S
N953 H959 0.985 . S
C954 C948 1.379 . S
C954 C951 1.363 . S
C954 N952 1.356 . S
C955 C949 1.363 . S
C955 C950 1.379 . S
C955 N953 1.356 . S
N956 C948 1.356 . S
N956 H962 0.984 . S
N956 H963 0.984 . S
N957 C950 1.356 . S
N957 H960 0.984 . S
N957 H961 0.985 . S
H958 N953 0.984 . S
H959 N953 0.985 . S
H960 N957 0.984 . S
H961 N957 0.985 . S
H962 N956 0.984 . S
H963 N956 0.984 . S
H964 N952 0.984 . S
H965 N952 0.985 . S
C966 C967 1.363 . S
C966 C972 1.379 . S
C966 N974 1.356 . S
C967 C966 1.363 . S
C967 C973 1.363 . S
C968 C969 1.363 . S
C968 C973 1.379 . S
C968 N975 1.356 . S
C969 C968 1.363 . S
C969 C972 1.363 . S
N970 C972 1.356 . S
N970 H982 0.984 . S
N970 H983 0.985 . S
N971 C973 1.356 . S
N971 H976 0.984 . S
N971 H977 0.985 . S
C972 C966 1.379 . S
C972 C969 1.363 . S
C972 N970 1.356 . S
C973 C967 1.363 . S
C973 C968 1.379 . S
C973 N971 1.356 . S
N974 C966 1.356 . S
N974 H980 0.984 . S
N974 H981 0.984 . S
N975 C968 1.356 . S
N975 H978 0.984 . S
N975 H979 0.985 . S
H976 N971 0.984 . S
H977 N971 0.985 . S
H978 N975 0.984 . S
H979 N975 0.985 . S
H980 N974 0.984 . S
H981 N974 0.984 . S
H982 N970 0.984 . S
H983 N970 0.985 . S
C984 C985 1.363 . S
C984 C990 1.379 . S
C984 N992 1.356 . S
C985 C984 1.363 . S
C985 C991 1.363 . S
C986 C987 1.363 . S
C986 C991 1.379 . S
C986 N993 1.356 . S
C987 C986 1.363 . S
C987 C990 1.363 . S
N988 C990 1.356 . S
N988 H1000 0.984 . S
N988 H1001 0.985 . S
N989 C991 1.356 . S
N989 H994 0.984 . S
N989 H995 0.985 . S
C990 C984 1.379 . S
C990 C987 1.363 . S
C990 N988 1.356 . S
C991 C985 1.363 . S
C991 C986 1.379 . S
C991 N989 1.356 . S
N992 C984 1.356 . S
N992 H998 0.984 . S
N992 H999 0.984 . S
N993 C986 1.356 . S
N993 H996 0.984 . S
N993 H997 0.985 . S
H994 N989 0.984 . S
H995 N989 0.985 . S
H996 N993 0.984 . S
H997 N993 0.985 . S
H998 N992 0.984 . S
H999 N992 0.984 . S
H1000 N988 0.984 . S
H1001 N988 0.985 . S
C1002 C1003 1.363 . S
C1002 C1008 1.379 . S
C1002 N1010 1.356 . S
C1003 C1002 1.363 . S
C1003 C1009 1.363 . S
C1004 C1005 1.363 . S
C1004 C1009 1.379 . S
C1004 N1011 1.356 . S
C1005 C1004 1.363 . S
C1005 C1008 1.363 . S
N1006 C1008 1.356 . S
N1006 H1018 0.984 . S
N1006 H1019 0.985 . S
N1007 C1009 1.356 . S
N1007 H1012 0.984 . S
N1007 H1013 0.985 . S
C1008 C1002 1.379 . S
C1008 C1005 1.363 . S
C1008 N1006 1.356 . S
C1009 C1003 1.363 . S
C1009 C1004 1.379 . S
C1009 N1007 1.356 . S
N1010 C1002 1.356 . S
N1010 H1016 0.984 . S
N1010 H1017 0.984 . S
N1011 C1004 1.356 . S
N1011 H1014 0.984 . S
N1011 H1015 0.985 . S
H1012 N1007 0.984 . S
H1013 N1007 0.985 . S
H1014 N1011 0.984 . S
H1015 N1011 0.985 . S
H1016 N1010 0.984 . S
H1017 N1010 0.984 . S
H1018 N1006 0.984 . S
H1019 N1006 0.985 . S
C1020 C1021 1.363 . S
C1020 C1026 1.379 . S
C1020 N1028 1.356 . S
C1021 C1020 1.363 . S
C1021 C1027 1.363 . S
C1022 C1023 1.363 . S
C1022 C1027 1.379 . S
C1022 N1029 1.356 . S
C1023 C1022 1.363 . S
C1023 C1026 1.363 . S
N1024 C1026 1.356 . S
N1024 H1036 0.984 . S
N1024 H1037 0.985 . S
N1025 C1027 1.356 . S
N1025 H1030 0.984 . S
N1025 H1031 0.985 . S
C1026 C1020 1.379 . S
C1026 C1023 1.363 . S
C1026 N1024 1.356 . S
C1027 C1021 1.363 . S
C1027 C1022 1.379 . S
C1027 N1025 1.356 . S
N1028 C1020 1.356 . S
N1028 H1034 0.984 . S
N1028 H1035 0.984 . S
N1029 C1022 1.356 . S
N1029 H1032 0.984 . S
N1029 H1033 0.985 . S
H1030 N1025 0.984 . S
H1031 N1025 0.985 . S
H1032 N1029 0.984 . S
H1033 N1029 0.985 . S
H1034 N1028 0.984 . S
H1035 N1028 0.984 . S
H1036 N1024 0.984 . S
H1037 N1024 0.985 . S
C1038 C1039 1.363 . S
C1038 C1044 1.379 . S
C1038 N1046 1.356 . S
C1039 C1038 1.363 . S
C1039 C1045 1.363 . S
C1040 C1041 1.363 . S
C1040 C1045 1.379 . S
C1040 N1047 1.356 . S
C1041 C1040 1.363 . S
C1041 C1044 1.363 . S
N1042 C1044 1.356 . S
N1042 H1054 0.984 . S
N1042 H1055 0.985 . S
N1043 C1045 1.356 . S
N1043 H1048 0.984 . S
N1043 H1049 0.985 . S
C1044 C1038 1.379 . S
C1044 C1041 1.363 . S
C1044 N1042 1.356 . S
C1045 C1039 1.363 . S
C1045 C1040 1.379 . S
C1045 N1043 1.356 . S
N1046 C1038 1.356 . S
N1046 H1052 0.984 . S
N1046 H1053 0.984 . S
N1047 C1040 1.356 . S
N1047 H1050 0.984 . S
N1047 H1051 0.985 . S
H1048 N1043 0.984 . S
H1049 N1043 0.985 . S
H1050 N1047 0.984 . S
H1051 N1047 0.985 . S
H1052 N1046 0.984 . S
H1053 N1046 0.984 . S
H1054 N1042 0.984 . S
H1055 N1042 0.985 . S
C1056 C1057 1.363 . S
C1056 C1062 1.379 . S
C1056 N1064 1.356 . S
C1057 C1056 1.363 . S
C1057 C1063 1.363 . S
C1058 C1059 1.363 . S
C1058 C1063 1.379 . S
C1058 N1065 1.356 . S
C1059 C1058 1.363 . S
C1059 C1062 1.363 . S
N1060 C1062 1.356 . S
N1060 H1072 0.984 . S
N1060 H1073 0.985 . S
N1061 C1063 1.356 . S
N1061 H1066 0.984 . S
N1061 H1067 0.985 . S
C1062 C1056 1.379 . S
C1062 C1059 1.363 . S
C1062 N1060 1.356 . S
C1063 C1057 1.363 . S
C1063 C1058 1.379 . S
C1063 N1061 1.356 . S
N1064 C1056 1.356 . S
N1064 H1070 0.984 . S
N1064 H1071 0.984 . S
N1065 C1058 1.356 . S
N1065 H1068 0.984 . S
N1065 H1069 0.985 . S
H1066 N1061 0.984 . S
H1067 N1061 0.985 . S
H1068 N1065 0.984 . S
H1069 N1065 0.985 . S
H1070 N1064 0.984 . S
H1071 N1064 0.984 . S
H1072 N1060 0.984 . S
H1073 N1060 0.985 . S
C1074 C1075 1.363 . S
C1074 C1080 1.379 . S
C1074 N1082 1.356 . S
C1075 C1074 1.363 . S
C1075 C1081 1.363 . S
C1076 C1077 1.363 . S
C1076 C1081 1.379 . S
C1076 N1083 1.356 . S
C1077 C1076 1.363 . S
C1077 C1080 1.363 . S
N1078 C1080 1.356 . S
N1078 H1090 0.984 . S
N1078 H1091 0.985 . S
N1079 C1081 1.356 . S
N1079 H1084 0.984 . S
N1079 H1085 0.985 . S
C1080 C1074 1.379 . S
C1080 C1077 1.363 . S
C1080 N1078 1.356 . S
C1081 C1075 1.363 . S
C1081 C1076 1.379 . S
C1081 N1079 1.356 . S
N1082 C1074 1.356 . S
N1082 H1088 0.984 . S
N1082 H1089 0.984 . S
N1083 C1076 1.356 . S
N1083 H1086 0.984 . S
N1083 H1087 0.985 . S
H1084 N1079 0.984 . S
H1085 N1079 0.985 . S
H1086 N1083 0.984 . S
H1087 N1083 0.985 . S
H1088 N1082 0.984 . S
H1089 N1082 0.984 . S
H1090 N1078 0.984 . S
H1091 N1078 0.985 . S
C1092 C1093 1.363 . S
C1092 C1098 1.379 . S
C1092 N1100 1.356 . S
C1093 C1092 1.363 . S
C1093 C1099 1.363 . S
C1094 C1095 1.363 . S
C1094 C1099 1.379 . S
C1094 N1101 1.356 . S
C1095 C1094 1.363 . S
C1095 C1098 1.363 . S
N1096 C1098 1.356 . S
N1096 H1108 0.984 . S
N1096 H1109 0.985 . S
N1097 C1099 1.356 . S
N1097 H1102 0.984 . S
N1097 H1103 0.985 . S
C1098 C1092 1.379 . S
C1098 C1095 1.363 . S
C1098 N1096 1.356 . S
C1099 C1093 1.363 . S
C1099 C1094 1.379 . S
C1099 N1097 1.356 . S
N1100 C1092 1.356 . S
N1100 H1106 0.984 . S
N1100 H1107 0.984 . S
N1101 C1094 1.356 . S
N1101 H1104 0.984 . S
N1101 H1105 0.985 . S
H1102 N1097 0.984 . S
H1103 N1097 0.985 . S
H1104 N1101 0.984 . S
H1105 N1101 0.985 . S
H1106 N1100 0.984 . S
H1107 N1100 0.984 . S
H1108 N1096 0.984 . S
H1109 N1096 0.985 . S
C1110 C1111 1.363 . S
C1110 C1116 1.379 . S
C1110 N1118 1.356 . S
C1111 C1110 1.363 . S
C1111 C1117 1.363 . S
C1112 C1113 1.363 . S
C1112 C1117 1.379 . S
C1112 N1119 1.356 . S
C1113 C1112 1.363 . S
C1113 C1116 1.363 . S
N1114 C1116 1.356 . S
N1114 H1126 0.984 . S
N1114 H1127 0.985 . S
N1115 C1117 1.356 . S
N1115 H1120 0.984 . S
N1115 H1121 0.985 . S
C1116 C1110 1.379 . S
C1116 C1113 1.363 . S
C1116 N1114 1.356 . S
C1117 C1111 1.363 . S
C1117 C1112 1.379 . S
C1117 N1115 1.356 . S
N1118 C1110 1.356 . S
N1118 H1124 0.984 . S
N1118 H1125 0.984 . S
N1119 C1112 1.356 . S
N1119 H1122 0.984 . S
N1119 H1123 0.985 . S
H1120 N1115 0.984 . S
H1121 N1115 0.985 . S
H1122 N1119 0.984 . S
H1123 N1119 0.985 . S
H1124 N1118 0.984 . S
H1125 N1118 0.984 . S
H1126 N1114 0.984 . S
H1127 N1114 0.985 . S
C481 C231 1.869 . S
C483 C29 1.868 . S
C499 C69 2.226 . S
C501 C31 2.228 . S
C517 C109 2.062 . S
C519 C71 2.072 . S
C535 C111 1.869 . S
C537 C149 1.868 . S
C553 C151 2.228 . S
C555 C189 2.226 . S
C571 C229 2.062 . S
C573 C191 2.072 . S
C589 C311 1.869 . S
C591 C269 1.868 . S
C607 C309 2.062 . S
C609 C351 2.072 . S
C625 C391 2.228 . S
C627 C349 2.226 . S
C643 C431 1.869 . S
C645 C389 1.868 . S
C661 C471 2.071 . S
C663 C429 2.063 . S
C679 C271 2.228 . S
C681 C469 2.226 . S
C697 C442 3.659 . S
C699 C12 3.678 . S
C715 C52 2.807 . S
C717 C242 2.818 . S
C733 C282 3.220 . S
C735 C92 3.231 . S
C751 C322 3.659 . S
C753 C132 3.678 . S
C769 C362 2.820 . S
C771 C172 2.805 . S
C787 C212 3.232 . S
C789 C402 3.218 . S
C805 C252 3.676 . S
C807 C42 3.661 . S
C823 C292 3.232 . S
C825 C82 3.219 . S
C841 C122 2.820 . S
C843 C332 2.805 . S
C859 C162 3.658 . S
C861 C372 3.677 . S
C877 C412 3.232 . S
C879 C202 3.219 . S
C895 C452 2.808 . S
C897 C2 2.818 . S
C913 C257 3.510 . S
C915 C17 3.512 . S
C931 C57 2.411 . S
C933 C297 2.433 . S
C949 C337 2.411 . S
C951 C97 2.433 . S
C967 C137 3.510 . S
C969 C377 3.512 . S
C985 C417 2.431 . S
C987 C177 2.413 . S
C1003 C457 2.410 . S
C1005 C217 2.433 . S
C1021 C248 0.745 . S
C1023 C8 0.743 . S
C1039 C288 0.843 . S
C1041 C48 0.829 . S
C1057 C328 0.831 . S
C1059 C88 0.841 . S
C1075 C128 0.745 . S
C1077 C368 0.743 . S
C1093 C408 0.843 . S
C1095 C168 0.828 . S
C1111 C448 0.831 . S
C1113 C208 0.841 . S
