# Generated by pormake.
# Topology mok, (4)-cn, num edge types: 1
# Building blocks:
#     Node 0, Type 0, BuildingBlock: UXUYUI_clean_sbu_0, # of connection points: 4
#     Node 1, Type 0, BuildingBlock: UXUYUI_clean_sbu_0, # of connection points: 4
#     Node 2, Type 0, BuildingBlock: UXUYUI_clean_sbu_0, # of connection points: 4
#     Node 3, Type 0, BuildingBlock: UXUYUI_clean_sbu_0, # of connection points: 4
#     Node 4, Type 0, BuildingBlock: UXUYUI_clean_sbu_0, # of connection points: 4
#     Node 5, Type 0, BuildingBlock: UXUYUI_clean_sbu_0, # of connection points: 4
#     Node 6, Type 0, BuildingBlock: UXUYUI_clean_sbu_0, # of connection points: 4
#     Node 7, Type 0, BuildingBlock: UXUYUI_clean_sbu_0, # of connection points: 4
#     Edge 8, Type (0, 0), BuildingBlock: CIFDUS_clean_linker_0, # of connection points: 2
#     Edge 9, Type (0, 0), BuildingBlock: CIFDUS_clean_linker_0, # of connection points: 2
#     Edge 10, Type (0, 0), BuildingBlock: CIFDUS_clean_linker_0, # of connection points: 2
#     Edge 11, Type (0, 0), BuildingBlock: CIFDUS_clean_linker_0, # of connection points: 2
#     Edge 12, Type (0, 0), BuildingBlock: CIFDUS_clean_linker_0, # of connection points: 2
#     Edge 13, Type (0, 0), BuildingBlock: CIFDUS_clean_linker_0, # of connection points: 2
#     Edge 14, Type (0, 0), BuildingBlock: CIFDUS_clean_linker_0, # of connection points: 2
#     Edge 15, Type (0, 0), BuildingBlock: CIFDUS_clean_linker_0, # of connection points: 2
#     Edge 16, Type (0, 0), BuildingBlock: CIFDUS_clean_linker_0, # of connection points: 2
#     Edge 17, Type (0, 0), BuildingBlock: CIFDUS_clean_linker_0, # of connection points: 2
#     Edge 18, Type (0, 0), BuildingBlock: CIFDUS_clean_linker_0, # of connection points: 2
#     Edge 19, Type (0, 0), BuildingBlock: CIFDUS_clean_linker_0, # of connection points: 2
#     Edge 20, Type (0, 0), BuildingBlock: CIFDUS_clean_linker_0, # of connection points: 2
#     Edge 21, Type (0, 0), BuildingBlock: CIFDUS_clean_linker_0, # of connection points: 2
#     Edge 22, Type (0, 0), BuildingBlock: CIFDUS_clean_linker_0, # of connection points: 2
#     Edge 23, Type (0, 0), BuildingBlock: CIFDUS_clean_linker_0, # of connection points: 2
# Relax obj value: 0.076
# Max RMSD: 0.067
# Mean RMSD: 0.067
data_MOF--net-mok--node1-UXUYUI_clean_sbu_0--edge1-CIFDUS_clean_linker_0
_symmetry_space_group_name_H-M    P1
_symmetry_Int_Tables_number       1
_symmetry_cell_setting            triclinic
loop_
_symmetry_equiv_pos_as_xyz
'x, y, z'
_cell_length_a     61.453592
_cell_length_b     28.07232
_cell_length_c     34.331152
_cell_angle_alpha  89.980558
_cell_angle_beta   89.960873
_cell_angle_gamma 89.995835
loop_
_atom_site_label
_atom_site_type_symbol
_atom_site_fract_x
_atom_site_fract_y
_atom_site_fract_z
_atom_type_partial_charge
Li0 Li 0.58714 0.34725 0.04032 0.0
Li1 Li 0.61674 0.30502 1.0068 0.0
Li2 Li 0.58666 0.3475 0.97019 0.0
Li3 Li 0.57912 0.27197 1.00414 0.0
C4 C 0.61627 0.41279 0.02535 0.0
N5 N 0.62908 0.49009 0.0695 0.0
C6 C 0.63539 0.41062 0.04731 0.0
C7 C 0.60377 0.45438 0.02555 0.0
C8 C 0.64157 0.45008 0.06949 0.0
C9 C 0.61048 0.49303 0.04817 0.0
C10 C 0.60561 0.24226 0.06979 0.0
C11 C 0.61654 0.15972 0.06947 0.0
N12 N 0.62011 0.16198 0.10851 0.0
C13 C 0.60921 0.24364 0.10997 0.0
C14 C 0.60917 0.19989 0.04941 0.0
C15 C 0.61661 0.20273 0.129 0.0
C16 C 0.56335 0.41034 0.09052 0.0
N17 N 0.58153 0.38315 0.08655 0.0
C18 C 0.59456 0.40853 0.14875 0.0
C19 C 0.59696 0.38164 0.11485 0.0
C20 C 0.57607 0.43735 0.15366 0.0
C21 C 0.56031 0.43802 0.12398 0.0
H22 H 0.5513 0.41084 0.06763 0.0
H23 H 0.61139 0.36019 0.11069 0.0
C24 C 0.6581 0.30555 0.97334 0.0
N25 N 0.64723 0.29189 1.00597 0.0
C26 C 0.68053 0.29842 0.97027 0.0
C27 C 0.68022 0.26313 0.03446 0.0
C28 C 0.65781 0.27133 0.03641 0.0
C29 C 0.69195 0.27683 1.00107 0.0
H30 H 0.64929 0.32233 0.94976 0.0
H31 H 0.64898 0.2615 0.06236 0.0
C32 C 0.54449 0.34942 0.98601 0.0
N33 N 0.50957 0.38406 0.94403 0.0
C34 C 0.53005 0.31792 0.968 0.0
C35 C 0.54109 0.39852 0.98293 0.0
C36 C 0.5125 0.33615 0.94686 0.0
C37 C 0.52337 0.41533 0.96148 0.0
C38 C 0.60466 0.24941 0.93382 0.0
C39 C 0.59394 0.24851 0.89792 0.0
C40 C 0.62086 0.21571 0.94155 0.0
C41 C 0.59925 0.21335 0.87074 0.0
C42 C 0.62572 0.18115 0.91361 0.0
N43 N 0.61489 0.18064 0.87909 0.0
C44 C 0.59309 0.42445 0.91874 0.0
C45 C 0.5664 0.36975 0.89706 0.0
C46 C 0.59062 0.45162 0.88495 0.0
N47 N 0.58113 0.38427 0.92412 0.0
C48 C 0.56349 0.39568 0.86268 0.0
C49 C 0.57584 0.43708 0.85604 0.0
H50 H 0.6048 0.43516 0.9405 0.0
H51 H 0.55709 0.33765 0.90186 0.0
C52 C 0.55447 0.20001 0.04018 0.0
N53 N 0.56248 0.21412 1.00509 0.0
C54 C 0.54309 0.15711 0.04363 0.0
C55 C 0.54786 0.14452 0.97456 0.0
C56 C 0.55915 0.18768 0.97246 0.0
C57 C 0.53979 0.12845 0.01058 0.0
H58 H 0.55716 0.22192 0.06564 0.0
H59 H 0.56534 0.19978 0.9448 0.0
O60 O 0.60966 0.37411 1.00424 0.0
O61 O 0.59835 0.28207 0.05077 0.0
O62 O 0.56182 0.33223 1.00665 0.0
O63 O 0.59982 0.28402 0.96061 0.0
H64 H 0.64522 0.37865 0.04757 0.0
H65 H 0.5889 0.45657 0.00878 0.0
H66 H 0.65626 0.44883 0.08681 0.0
H67 H 0.60088 0.52531 0.04884 0.0
H68 H 0.61934 0.12671 0.05401 0.0
H69 H 0.60632 0.27594 0.12634 0.0
H70 H 0.60599 0.19781 0.01857 0.0
H71 H 0.61954 0.20336 0.16006 0.0
H72 H 0.6073 0.40753 0.17052 0.0
H73 H 0.54573 0.45943 0.12672 0.0
H74 H 0.68885 0.31042 0.94425 0.0
H75 H 0.68819 0.24589 0.05878 0.0
H76 H 0.53242 0.27982 0.97016 0.0
H77 H 0.55217 0.42338 0.99654 0.0
H78 H 0.50123 0.31221 0.93264 0.0
H79 H 0.52062 0.45324 0.95864 0.0
H80 H 0.58149 0.27433 0.8912 0.0
H81 H 0.62976 0.2163 0.96866 0.0
H82 H 0.59094 0.21209 0.84299 0.0
H83 H 0.63818 0.15482 0.91932 0.0
H84 H 0.60024 0.48367 0.88156 0.0
H85 H 0.55209 0.38268 0.84114 0.0
H86 H 0.53686 0.14665 0.07187 0.0
H87 H 0.54588 0.12354 0.94834 0.0
Li88 Li 0.39441 0.70965 0.9994 0.0
Li89 Li 0.42254 0.66714 0.03631 0.0
Li90 Li 0.43208 0.74202 0.99917 0.0
Li91 Li 0.4253 0.66602 0.96539 0.0
C92 C 0.40096 0.76933 0.06327 0.0
N93 N 0.37891 0.84162 0.10113 0.0
C94 C 0.39338 0.76264 0.10129 0.0
C95 C 0.39758 0.81304 0.04477 0.0
C96 C 0.38219 0.79953 0.11986 0.0
C97 C 0.38634 0.84909 0.06431 0.0
C98 C 0.39478 0.59828 0.01381 0.0
C99 C 0.40128 0.51529 0.02782 0.0
N100 N 0.38195 0.51311 0.04706 0.0
C101 C 0.37484 0.59505 0.03326 0.0
C102 C 0.40799 0.55796 0.01065 0.0
C103 C 0.3687 0.55174 0.05005 0.0
C104 C 0.35441 0.72952 0.96216 0.0
N105 N 0.36404 0.72324 0.99742 0.0
C106 C 0.32966 0.7297 0.02965 0.0
C107 C 0.35218 0.72316 0.03085 0.0
C108 C 0.31919 0.73625 0.99363 0.0
C109 C 0.33195 0.73649 0.9596 0.0
H110 H 0.36415 0.7284 0.93594 0.0
H111 H 0.3601 0.7165 0.0584 0.0
C112 C 0.44435 0.60843 0.09365 0.0
N113 N 0.42567 0.6312 0.08332 0.0
C114 C 0.44493 0.58017 0.12731 0.0
C115 C 0.40724 0.60008 0.13909 0.0
C116 C 0.40745 0.62812 0.1056 0.0
C117 C 0.42607 0.57518 0.15014 0.0
H118 H 0.45867 0.61165 0.07555 0.0
H119 H 0.39287 0.64679 0.09683 0.0
C120 C 0.41124 0.76479 0.92677 0.0
N121 N 0.40867 0.83563 0.87097 0.0
C122 C 0.4235 0.76156 0.89256 0.0
C123 C 0.39732 0.80362 0.93217 0.0
C124 C 0.42209 0.79786 0.86483 0.0
C125 C 0.39633 0.83917 0.90375 0.0
C126 C 0.4673 0.66078 0.98924 0.0
C127 C 0.48346 0.68933 0.97257 0.0
C128 C 0.47019 0.61144 0.99084 0.0
C129 C 0.50208 0.66789 0.95712 0.0
C130 C 0.48903 0.59135 0.97503 0.0
N131 N 0.50444 0.61975 0.9586 0.0
C132 C 0.45138 0.82589 0.03126 0.0
C133 C 0.45787 0.81423 0.96396 0.0
C134 C 0.46245 0.86943 0.03029 0.0
N135 N 0.4489 0.79977 0.99818 0.0
C136 C 0.46901 0.85748 0.96162 0.0
C137 C 0.47119 0.8861 0.99496 0.0
H138 H 0.4445 0.81327 0.05835 0.0
H139 H 0.45647 0.79211 0.93841 0.0
C140 C 0.41659 0.59586 0.90937 0.0
N141 N 0.43156 0.62915 0.91973 0.0
C142 C 0.41887 0.57046 0.87464 0.0
C143 C 0.45208 0.61373 0.86178 0.0
C144 C 0.44915 0.63829 0.89683 0.0
C145 C 0.43668 0.5796 0.85004 0.0
H146 H 0.40248 0.58998 0.92754 0.0
H147 H 0.46058 0.66571 0.90506 0.0
O148 O 0.41176 0.73338 0.04447 0.0
O149 O 0.4013 0.64067 0.99793 0.0
O150 O 0.41239 0.72937 0.95416 0.0
O151 O 0.44893 0.68116 1.00438 0.0
H152 H 0.39607 0.72932 0.11632 0.0
H153 H 0.40384 0.8193 0.01585 0.0
H154 H 0.37613 0.79473 0.1492 0.0
H155 H 0.38361 0.88306 0.05026 0.0
H156 H 0.41143 0.4839 0.0258 0.0
H157 H 0.36433 0.62577 0.03576 0.0
H158 H 0.42325 0.55957 0.99506 0.0
H159 H 0.35341 0.54887 0.06551 0.0
H160 H 0.3205 0.72816 0.05657 0.0
H161 H 0.32467 0.74182 0.93122 0.0
H162 H 0.45976 0.56145 0.13479 0.0
H163 H 0.39245 0.59784 0.15616 0.0
H164 H 0.4342 0.73164 0.88763 0.0
H165 H 0.38713 0.80608 0.95774 0.0
H166 H 0.43166 0.79598 0.83842 0.0
H167 H 0.38567 0.86946 0.90766 0.0
H168 H 0.48162 0.72759 0.97147 0.0
H169 H 0.45805 0.5889 1.00415 0.0
H170 H 0.51465 0.68954 0.94394 0.0
H171 H 0.49141 0.55317 0.97588 0.0
H172 H 0.46371 0.8903 0.05671 0.0
H173 H 0.47596 0.86827 0.93399 0.0
H174 H 0.40636 0.54519 0.8665 0.0
H175 H 0.46611 0.6218 0.84386 0.0
Li176 Li 0.57838 0.74394 0.50491 0.0
Li177 Li 0.58722 0.6748 0.54127 0.0
Li178 Li 0.6152 0.71537 0.50397 0.0
Li179 Li 0.5866 0.66649 0.46991 0.0
C180 C 0.59251 0.77926 0.5688 0.0
N181 N 0.57787 0.86057 0.60587 0.0
C182 C 0.57581 0.7764 0.59637 0.0
C183 C 0.60184 0.82346 0.56024 0.0
C184 C 0.56863 0.81791 0.61477 0.0
C185 C 0.59419 0.86415 0.57925 0.0
C186 C 0.54633 0.65279 0.52106 0.0
C187 C 0.52519 0.5804 0.51885 0.0
N188 N 0.51498 0.59338 0.55237 0.0
C189 C 0.53558 0.66544 0.55545 0.0
C190 C 0.54108 0.60993 0.50257 0.0
C191 C 0.51981 0.6349 0.57083 0.0
C192 C 0.56814 0.84055 0.48571 0.0
N193 N 0.56055 0.80035 0.50317 0.0
C194 C 0.52832 0.84122 0.52349 0.0
C195 C 0.54088 0.79984 0.52131 0.0
C196 C 0.53601 0.88371 0.50672 0.0
C197 C 0.55612 0.88282 0.48721 0.0
H198 H 0.58378 0.8402 0.47143 0.0
H199 H 0.53509 0.76749 0.5347 0.0
C200 C 0.59491 0.65833 0.62053 0.0
N201 N 0.58416 0.63972 0.58945 0.0
C202 C 0.59564 0.63382 0.65586 0.0
C203 C 0.57405 0.57124 0.62701 0.0
C204 C 0.57396 0.59675 0.59201 0.0
C205 C 0.58521 0.58956 0.65937 0.0
H206 H 0.6035 0.69173 0.6176 0.0
H207 H 0.56639 0.58135 0.56663 0.0
C208 C 0.61224 0.75022 0.43289 0.0
N209 N 0.64437 0.78347 0.38349 0.0
C210 C 0.61748 0.725 0.39906 0.0
C211 C 0.62322 0.79257 0.4414 0.0
C212 C 0.63379 0.74236 0.37449 0.0
C213 C 0.63946 0.8087 0.41614 0.0
C214 C 0.61724 0.60916 0.52719 0.0
C215 C 0.63363 0.61671 0.55469 0.0
C216 C 0.60831 0.56372 0.52269 0.0
C217 C 0.64073 0.57856 0.57753 0.0
C218 C 0.61588 0.52648 0.54604 0.0
N219 N 0.63178 0.53463 0.57278 0.0
C220 C 0.65536 0.75845 0.52712 0.0
C221 C 0.65735 0.7045 0.47414 0.0
C222 C 0.67779 0.7664 0.52518 0.0
N223 N 0.64564 0.72825 0.50156 0.0
C224 C 0.67976 0.71157 0.47101 0.0
C225 C 0.69029 0.74288 0.49676 0.0
H226 H 0.64575 0.77605 0.5492 0.0
H227 H 0.64923 0.6799 0.45475 0.0
C228 C 0.56481 0.63073 0.40195 0.0
N229 N 0.58231 0.62626 0.4259 0.0
C230 C 0.5628 0.60146 0.36912 0.0
C231 C 0.59692 0.5641 0.38622 0.0
C232 C 0.59827 0.59401 0.41854 0.0
C233 C 0.579 0.56746 0.36097 0.0
H234 H 0.55246 0.65708 0.40832 0.0
H235 H 0.61228 0.59203 0.43751 0.0
O236 O 0.59928 0.73919 0.54959 0.0
O237 O 0.56164 0.68243 0.50519 0.0
O238 O 0.59656 0.73333 0.45765 0.0
O239 O 0.60959 0.64637 0.50548 0.0
H240 H 0.56832 0.74258 0.60323 0.0
H241 H 0.61458 0.82648 0.53864 0.0
H242 H 0.55564 0.81624 0.636 0.0
H243 H 0.60115 0.89863 0.57267 0.0
H244 H 0.52101 0.54709 0.50488 0.0
H245 H 0.53957 0.69807 0.57049 0.0
H246 H 0.54925 0.59935 0.47608 0.0
H247 H 0.51147 0.64413 0.59754 0.0
H248 H 0.51275 0.83992 0.53823 0.0
H249 H 0.56282 0.91474 0.47416 0.0
H250 H 0.60444 0.64916 0.68013 0.0
H251 H 0.56618 0.53675 0.62832 0.0
H252 H 0.60912 0.69232 0.39184 0.0
H253 H 0.61964 0.8122 0.46772 0.0
H254 H 0.63806 0.72312 0.34828 0.0
H255 H 0.64824 0.84114 0.42261 0.0
H256 H 0.64059 0.65179 0.5587 0.0
H257 H 0.59542 0.55746 0.50182 0.0
H258 H 0.6533 0.58391 0.59913 0.0
H259 H 0.60903 0.49118 0.54307 0.0
H260 H 0.68524 0.79096 0.54551 0.0
H261 H 0.6888 0.69207 0.44912 0.0
H262 H 0.54867 0.60513 0.35052 0.0
H263 H 0.61003 0.53922 0.38066 0.0
Li264 Li 0.42148 0.34237 0.53731 0.0
Li265 Li 0.42908 0.27151 0.50067 0.0
Li266 Li 0.42281 0.34481 0.46577 0.0
Li267 Li 0.39194 0.30191 0.49935 0.0
C268 C 0.4655 0.32708 0.5239 0.0
N269 N 0.50282 0.31984 0.56831 0.0
C270 C 0.46603 0.29682 0.55619 0.0
C271 C 0.48394 0.35365 0.51414 0.0
C272 C 0.48505 0.29362 0.57828 0.0
C273 C 0.50266 0.34952 0.53698 0.0
C274 C 0.40332 0.24247 0.56901 0.0
C275 C 0.38216 0.17255 0.5843 0.0
N276 N 0.3924 0.1694 0.61931 0.0
C277 C 0.41347 0.23885 0.60533 0.0
C278 C 0.38737 0.20935 0.55854 0.0
C279 C 0.40779 0.20152 0.63026 0.0
C280 C 0.41008 0.36854 0.6124 0.0
N281 N 0.42565 0.37597 0.58498 0.0
C282 C 0.44515 0.42749 0.62815 0.0
C283 C 0.44289 0.40516 0.59191 0.0
C284 C 0.42949 0.41965 0.65738 0.0
C285 C 0.41169 0.39 0.64891 0.0
H286 H 0.39641 0.34563 0.60588 0.0
H287 H 0.45495 0.41091 0.56946 0.0
C288 C 0.46603 0.21603 0.48088 0.0
N289 N 0.44637 0.21383 0.49905 0.0
C290 C 0.47905 0.17537 0.47761 0.0
C291 C 0.4514 0.13068 0.51168 0.0
C292 C 0.4389 0.17212 0.51418 0.0
C293 C 0.47178 0.13189 0.49319 0.0
H294 H 0.47152 0.24937 0.46853 0.0
H295 H 0.42307 0.17048 0.52746 0.0
C296 C 0.40033 0.41958 0.50499 0.0
N297 N 0.40141 0.51737 0.51347 0.0
C298 C 0.38114 0.44476 0.51221 0.0
C299 C 0.42008 0.44404 0.50218 0.0
C300 C 0.38202 0.49424 0.51637 0.0
C301 C 0.42028 0.4935 0.50653 0.0
C302 C 0.4157 0.24264 0.43301 0.0
C303 C 0.43247 0.24602 0.40565 0.0
C304 C 0.40559 0.19878 0.43963 0.0
C305 C 0.43898 0.20521 0.38549 0.0
C306 C 0.41259 0.15879 0.41889 0.0
N307 N 0.42901 0.1628 0.39251 0.0
C308 C 0.44883 0.38621 0.40517 0.0
C309 C 0.41116 0.4043 0.40426 0.0
C310 C 0.45209 0.4125 0.37097 0.0
N311 N 0.42857 0.38247 0.42083 0.0
C312 C 0.41368 0.43102 0.37029 0.0
C313 C 0.43431 0.43502 0.35284 0.0
H314 H 0.46236 0.36815 0.41888 0.0
H315 H 0.39524 0.40063 0.41738 0.0
C316 C 0.34892 0.3075 0.527 0.0
N317 N 0.36152 0.29038 0.49763 0.0
C318 C 0.32634 0.30179 0.52586 0.0
C319 C 0.3302 0.2604 0.46451 0.0
C320 C 0.35269 0.26715 0.46674 0.0
C321 C 0.31664 0.27816 0.49417 0.0
H322 H 0.35644 0.32623 0.55102 0.0
H323 H 0.36309 0.25429 0.44362 0.0
O324 O 0.447 0.33134 0.50205 0.0
O325 O 0.40834 0.27935 0.54454 0.0
O326 O 0.39976 0.37112 0.50125 0.0
O327 O 0.40962 0.28184 0.45398 0.0
H328 H 0.45195 0.27592 0.564 0.0
H329 H 0.48374 0.37738 0.48928 0.0
H330 H 0.48569 0.2703 0.60334 0.0
H331 H 0.51704 0.36994 0.52982 0.0
H332 H 0.36997 0.14647 0.57644 0.0
H333 H 0.42551 0.2647 0.61431 0.0
H334 H 0.37929 0.21165 0.53064 0.0
H335 H 0.41557 0.1982 0.65839 0.0
H336 H 0.45917 0.44992 0.63343 0.0
H337 H 0.39899 0.3837 0.6702 0.0
H338 H 0.4947 0.17806 0.46327 0.0
H339 H 0.44492 0.09777 0.52339 0.0
H340 H 0.36575 0.42623 0.51461 0.0
H341 H 0.43511 0.42505 0.49684 0.0
H342 H 0.3673 0.51424 0.52195 0.0
H343 H 0.43545 0.51291 0.50446 0.0
H344 H 0.44053 0.27968 0.40039 0.0
H345 H 0.39274 0.19548 0.46101 0.0
H346 H 0.45204 0.2072 0.3644 0.0
H347 H 0.40504 0.12453 0.42393 0.0
H348 H 0.46824 0.41424 0.35841 0.0
H349 H 0.39957 0.44844 0.35789 0.0
H350 H 0.31658 0.31673 0.5491 0.0
H351 H 0.32354 0.24141 0.4398 0.0
Li352 Li 0.08643 0.84929 0.04457 0.0
Li353 Li 0.11584 0.80917 0.00964 0.0
Li354 Li 0.08659 0.85614 0.97439 0.0
Li355 Li 0.07803 0.7779 1.0033 0.0
C356 C 0.11521 0.91699 0.03288 0.0
N357 N 0.12644 0.99388 0.07887 0.0
C358 C 0.13413 0.91555 0.05543 0.0
C359 C 0.10213 0.95771 0.03339 0.0
C360 C 0.1395 0.95476 0.07856 0.0
C361 C 0.10804 0.99616 0.05693 0.0
C362 C 0.10408 0.74089 0.06713 0.0
C363 C 0.11442 0.65834 0.0609 0.0
N364 N 0.11883 0.6568 0.09969 0.0
C365 C 0.1085 0.73834 0.10702 0.0
C366 C 0.10689 0.70046 0.04396 0.0
C367 C 0.11604 0.69558 0.12289 0.0
C368 C 0.0637 0.90818 0.10059 0.0
N369 N 0.08142 0.88059 0.09319 0.0
C370 C 0.09587 0.89682 0.1564 0.0
C371 C 0.09735 0.87466 0.12018 0.0
C372 C 0.07778 0.92552 0.16512 0.0
C373 C 0.06157 0.93127 0.13658 0.0
H374 H 0.05128 0.91241 0.07858 0.0
H375 H 0.11143 0.8532 0.11322 0.0
C376 C 0.15796 0.79958 0.97777 0.0
N377 N 0.14617 0.79527 0.0111 0.0
C378 C 0.18051 0.79312 0.97834 0.0
C379 C 0.17837 0.7785 0.04762 0.0
C380 C 0.15587 0.78496 0.04566 0.0
C381 C 0.19103 0.78286 0.0137 0.0
H382 H 0.14988 0.8089 0.95084 0.0
H383 H 0.14623 0.78303 0.07193 0.0
C384 C 0.04395 0.85793 0.98996 0.0
N385 N 0.0089 0.89667 0.95082 0.0
C386 C 0.02974 0.82846 0.96927 0.0
C387 C 0.04023 0.90703 0.99105 0.0
C388 C 0.01212 0.84875 0.94961 0.0
C389 C 0.02246 0.92596 0.97097 0.0
C390 C 0.10423 0.76162 0.93224 0.0
C391 C 0.0943 0.76631 0.89581 0.0
C392 C 0.11943 0.72525 0.93819 0.0
C393 C 0.09942 0.73406 0.86621 0.0
C394 C 0.12413 0.69373 0.90785 0.0
N395 N 0.11409 0.6987 0.8728 0.0
C396 C 0.09487 0.93578 0.92655 0.0
C397 C 0.06665 0.88615 0.90289 0.0
C398 C 0.09299 0.96549 0.89408 0.0
N399 N 0.08182 0.89695 0.93037 0.0
C400 C 0.06431 0.91472 0.8698 0.0
C401 C 0.07768 0.95489 0.86498 0.0
H402 H 0.10707 0.94321 0.94836 0.0
H403 H 0.05659 0.85489 0.90628 0.0
C404 C 0.05002 0.70651 0.0321 0.0
N405 N 0.06061 0.72123 0.99945 0.0
C406 C 0.03729 0.66519 0.03149 0.0
C407 C 0.04658 0.65489 0.96367 0.0
C408 C 0.05897 0.69653 0.96553 0.0
C409 C 0.03547 0.63857 0.99693 0.0
H410 H 0.0515 0.72694 0.05868 0.0
H411 H 0.06726 0.70889 0.93982 0.0
O412 O 0.10939 0.87851 0.01079 0.0
O413 O 0.09671 0.78257 0.05116 0.0
O414 O 0.06132 0.83872 0.00927 0.0
O415 O 0.09947 0.79316 0.9615 0.0
H416 H 0.14444 0.88435 0.05535 0.0
H417 H 0.08748 0.95945 0.01601 0.0
H418 H 0.15402 0.95403 0.09634 0.0
H419 H 0.09799 0.02778 0.05781 0.0
H420 H 0.11667 0.62682 0.04323 0.0
H421 H 0.10616 0.76903 0.12558 0.0
H422 H 0.10304 0.70136 0.01333 0.0
H423 H 0.11962 0.6932 0.15368 0.0
H424 H 0.10896 0.89213 0.17715 0.0
H425 H 0.04731 0.95288 0.14217 0.0
H426 H 0.18967 0.79753 0.95162 0.0
H427 H 0.18581 0.77043 0.07545 0.0
H428 H 0.03234 0.79037 0.96821 0.0
H429 H 0.05104 0.93031 1.007 0.0
H430 H 1.00104 0.82642 0.93333 0.0
H431 H 0.01945 0.96393 0.97138 0.0
H432 H 0.08261 0.79422 0.89049 0.0
H433 H 0.12771 0.72151 0.96576 0.0
H434 H 0.09172 0.73714 0.83799 0.0
H435 H 0.13582 0.6654 0.91214 0.0
H436 H 0.10384 0.9957 0.89127 0.0
H437 H 0.0522 0.90545 0.8482 0.0
H438 H 0.02879 0.65462 0.05773 0.0
H439 H 0.04597 0.63541 0.93648 0.0
Li440 Li 0.89587 0.21317 0.01467 0.0
Li441 Li 0.92585 0.16914 0.04814 0.0
Li442 Li 0.93186 0.24809 0.01367 0.0
Li443 Li 0.92522 0.17549 0.97652 0.0
C444 C 0.89867 0.25209 0.08504 0.0
N445 N 0.86692 0.28782 0.13394 0.0
C446 C 0.89212 0.2261 0.11773 0.0
C447 C 0.88924 0.29641 0.07738 0.0
C448 C 0.87601 0.24477 0.14208 0.0
C449 C 0.87315 0.31379 0.10239 0.0
C450 C 0.89529 0.10635 0.99257 0.0
C451 C 0.89955 0.02725 0.96616 0.0
N452 N 0.87916 0.02986 0.95091 0.0
C453 C 0.87433 0.10814 0.97679 0.0
C454 C 0.90796 0.06546 0.98741 0.0
C455 C 0.86649 0.06913 0.95579 0.0
C456 C 0.8558 0.25415 0.99018 0.0
N457 N 0.86536 0.22564 0.01723 0.0
C458 C 0.8312 0.2129 0.0489 0.0
C459 C 0.85354 0.20459 0.04596 0.0
C460 C 0.82087 0.24232 0.02148 0.0
C461 C 0.83342 0.26288 0.99168 0.0
H462 H 0.86553 0.26991 0.96732 0.0
H463 H 0.86148 0.18114 0.0665 0.0
C464 C 0.94538 0.14778 0.12115 0.0
N465 N 0.93256 0.13059 0.09212 0.0
C466 C 0.94909 0.12053 0.15463 0.0
C467 C 0.92674 0.05815 0.12718 0.0
C468 C 0.92331 0.08672 0.0945 0.0
C469 C 0.93961 0.07513 0.158 0.0
H470 H 0.95239 0.18299 0.11855 0.0
H471 H 0.9129 0.07424 0.07131 0.0
C472 C 0.91567 0.27675 0.94568 0.0
N473 N 0.92491 0.35455 0.89925 0.0
C474 C 0.9282 0.2712 0.912 0.0
C475 C 0.90767 0.32176 0.95558 0.0
C476 C 0.93272 0.31101 0.88893 0.0
C477 C 0.91258 0.36069 0.93179 0.0
C478 C 0.96865 0.164 0.00825 0.0
C479 C 0.98745 0.18678 0.99485 0.0
C480 C 0.96932 0.11549 0.01734 0.0
C481 C 0.00657 0.16043 0.99031 0.0
C482 C 0.98875 0.09038 0.01241 0.0
N483 N 0.00682 0.11317 0.99908 0.0
C484 C 0.94617 0.33472 0.0475 0.0
C485 C 0.96187 0.3178 0.98598 0.0
C486 C 0.95793 0.37724 0.05002 0.0
N487 N 0.94823 0.30616 0.01573 0.0
C488 C 0.9737 0.36032 0.98703 0.0
C489 C 0.97184 0.3906 0.01942 0.0
H490 H 0.93547 0.32441 0.07102 0.0
H491 H 0.96361 0.29401 0.96144 0.0
C492 C 0.91292 0.13432 0.90567 0.0
N493 N 0.93065 0.14201 0.92846 0.0
C494 C 0.91461 0.10752 0.87157 0.0
C495 C 0.95322 0.10035 0.88293 0.0
C496 C 0.95067 0.1264 0.91733 0.0
C497 C 0.93498 0.08973 0.85974 0.0
H498 H 0.89729 0.14834 0.9144 0.0
H499 H 0.96475 0.13403 0.93487 0.0
O500 O 0.91415 0.23406 0.06049 0.0
O501 O 0.90334 0.14445 0.01285 0.0
O502 O 0.91124 0.23831 0.96882 0.0
O503 O 0.94981 0.1893 0.01269 0.0
H504 H 0.89924 0.1917 0.12403 0.0
H505 H 0.89414 0.31693 0.0522 0.0
H506 H 0.87069 0.22496 0.16738 0.0
H507 H 0.8656 0.34789 0.09669 0.0
H508 H 0.90925 0.99554 0.96172 0.0
H509 H 0.86429 0.13944 0.98033 0.0
H510 H 0.9242 0.06338 0.99929 0.0
H511 H 0.85035 0.07015 0.94327 0.0
H512 H 0.82203 0.19583 0.07196 0.0
H513 H 0.82604 0.28587 0.97005 0.0
H514 H 0.95917 0.13485 0.17768 0.0
H515 H 0.91883 0.02374 0.12885 0.0
H516 H 0.93453 0.23663 0.90391 0.0
H517 H 0.89792 0.32662 0.98152 0.0
H518 H 0.94248 0.3073 0.86287 0.0
H519 H 0.90662 0.39579 0.93922 0.0
H520 H 0.98723 0.22437 0.98786 0.0
H521 H 0.95501 0.09739 0.02801 0.0
H522 H 0.02121 0.17754 0.9798 0.0
H523 H 0.98948 0.05277 0.01919 0.0
H524 H 0.956 0.39966 0.07545 0.0
H525 H 0.98448 0.369 0.9631 0.0
H526 H 0.89995 0.10012 0.85524 0.0
H527 H 0.96939 0.08886 0.87465 0.0
Li528 Li 0.07563 0.24943 0.51146 0.0
Li529 Li 0.08343 0.17508 0.54279 0.0
Li530 Li 0.11232 0.2184 0.5104 0.0
Li531 Li 0.08381 0.17498 0.47125 0.0
C532 C 0.09079 0.27591 0.57986 0.0
N533 N 0.08084 0.35299 0.62668 0.0
C534 C 0.07714 0.27018 0.61214 0.0
C535 C 0.09943 0.32083 0.57151 0.0
C536 C 0.07232 0.30958 0.63545 0.0
C537 C 0.09417 0.35937 0.59548 0.0
C538 C 0.04145 0.16344 0.52028 0.0
C539 C 0.01596 0.09854 0.51426 0.0
N540 N 0.00631 0.1123 0.54811 0.0
C541 C 0.03126 0.17702 0.55494 0.0
C542 C 0.03375 0.12393 0.4997 0.0
C543 C 0.01354 0.15064 0.56857 0.0
C544 C 0.06007 0.33794 0.48183 0.0
N545 N 0.05815 0.30634 0.51167 0.0
C546 C 0.03114 0.35522 0.54204 0.0
C547 C 0.04384 0.31402 0.54121 0.0
C548 C 0.03265 0.38862 0.5116 0.0
C549 C 0.0474 0.37938 0.48114 0.0
H550 H 0.07129 0.33077 0.45829 0.0
H551 H 0.04231 0.28831 0.56436 0.0
C552 C 0.09094 0.14678 0.61979 0.0
N553 N 0.07891 0.13511 0.58796 0.0
C554 C 0.08977 0.1194 0.65367 0.0
C555 C 0.06423 0.06743 0.62136 0.0
C556 C 0.066 0.09573 0.58798 0.0
C557 C 0.07618 0.07918 0.65492 0.0
H558 H 0.10179 0.17705 0.61865 0.0
H559 H 0.05735 0.08557 0.56196 0.0
C560 C 0.11066 0.26276 0.44272 0.0
N561 N 0.14361 0.30322 0.39905 0.0
C562 C 0.11893 0.2389 0.41019 0.0
C563 C 0.11899 0.30741 0.4528 0.0
C564 C 0.13562 0.25991 0.38853 0.0
C565 C 0.1357 0.3272 0.43043 0.0
C566 C 0.111 0.10717 0.52358 0.0
C567 C 0.12761 0.10483 0.55129 0.0
C568 C 0.09899 0.06636 0.51464 0.0
C569 C 0.13182 0.06153 0.5699 0.0
C570 C 0.10372 0.02373 0.53386 0.0
N571 N 0.11989 0.02224 0.56089 0.0
C572 C 0.15138 0.25799 0.54082 0.0
C573 C 0.15568 0.21095 0.48404 0.0
C574 C 0.17385 0.26516 0.54307 0.0
N575 N 0.14279 0.23141 0.51154 0.0
C576 C 0.17821 0.21744 0.48501 0.0
C577 C 0.1876 0.2446 0.51499 0.0
H578 H 0.14086 0.2729 0.56287 0.0
H579 H 0.14847 0.18887 0.4617 0.0
C580 C 0.06121 0.1503 0.40157 0.0
N581 N 0.07887 0.1409 0.42413 0.0
C582 C 0.05827 0.12626 0.36625 0.0
C583 C 0.09176 0.08354 0.37815 0.0
C584 C 0.09404 0.10836 0.41313 0.0
C585 C 0.0737 0.09235 0.35408 0.0
H586 H 0.04947 0.17663 0.41095 0.0
H587 H 0.10814 0.10224 0.43131 0.0
O588 O 0.09563 0.23781 0.55653 0.0
O589 O 0.05871 0.18895 0.50623 0.0
O590 O 0.09464 0.24233 0.46478 0.0
O591 O 0.10619 0.14951 0.50596 0.0
H592 H 0.07003 0.23591 0.61879 0.0
H593 H 0.10998 0.32598 0.54667 0.0
H594 H 0.06169 0.30569 0.66038 0.0
H595 H 0.10068 0.39435 0.58924 0.0
H596 H 0.00985 0.06784 0.49869 0.0
H597 H 0.03719 0.20702 0.57152 0.0
H598 H 0.04149 0.11283 0.4729 0.0
H599 H 0.00558 0.16056 0.59549 0.0
H600 H 0.02036 0.36085 0.56655 0.0
H601 H 0.04892 0.4034 0.45662 0.0
H602 H 0.0998 0.12913 0.67833 0.0
H603 H 0.05358 0.03671 0.62083 0.0
H604 H 0.11266 0.20436 0.40194 0.0
H605 H 0.11268 0.32647 0.47772 0.0
H606 H 0.14226 0.24173 0.36342 0.0
H607 H 0.14238 0.3616 0.43803 0.0
H608 H 0.13696 0.13625 0.55861 0.0
H609 H 0.08592 0.06779 0.49354 0.0
H610 H 0.14453 0.05919 0.59159 0.0
H611 H 0.09447 0.99192 0.52745 0.0
H612 H 0.18038 0.2865 0.56658 0.0
H613 H 0.18822 0.20025 0.46317 0.0
H614 H 0.04403 0.13396 0.34877 0.0
H615 H 0.10429 0.05848 0.36966 0.0
Li616 Li 0.92226 0.85087 0.54746 0.0
Li617 Li 0.93062 0.78125 0.51038 0.0
Li618 Li 0.92296 0.85662 0.47736 0.0
Li619 Li 0.89369 0.81251 0.51077 0.0
C620 C 0.96639 0.83387 0.53327 0.0
N621 N 1.00403 0.81735 0.57511 0.0
C622 C 0.96551 0.80939 0.56872 0.0
C623 C 0.98641 0.8499 0.5191 0.0
C624 C 0.98472 0.80139 0.58943 0.0
C625 C 0.00526 0.84123 0.5407 0.0
C626 C 0.90166 0.74282 0.56477 0.0
C627 C 0.88797 0.66577 0.54567 0.0
N628 N 0.88425 0.65508 0.58374 0.0
C629 C 0.89766 0.73112 0.60368 0.0
C630 C 0.89675 0.70995 0.53547 0.0
C631 C 0.88887 0.68656 0.61269 0.0
C632 C 0.9083 0.88783 0.61796 0.0
N633 N 0.92611 0.88627 0.59451 0.0
C634 C 0.94503 0.94063 0.63609 0.0
C635 C 0.94433 0.91192 0.60283 0.0
C636 C 0.92662 0.94382 0.66012 0.0
C637 C 0.90812 0.9169 0.6509 0.0
H638 H 0.89395 0.8676 0.61025 0.0
H639 H 0.95806 0.91126 0.58317 0.0
C640 C 0.9578 0.71366 0.47346 0.0
N641 N 0.94814 0.72479 0.50793 0.0
C642 C 0.97087 0.67302 0.47031 0.0
C643 C 0.96369 0.65592 0.5381 0.0
C644 C 0.95106 0.69718 0.5401 0.0
C645 C 0.97379 0.64339 0.50287 0.0
H646 H 0.95534 0.73644 0.44842 0.0
H647 H 0.94365 0.7072 0.56744 0.0
C648 C 0.89983 0.92733 0.52523 0.0
N649 N 0.89951 0.01964 0.55314 0.0
C650 C 0.88108 0.94583 0.54263 0.0
C651 C 0.91838 0.95587 0.52184 0.0
C652 C 0.88126 0.99257 0.5566 0.0
C653 C 0.9179 1.00242 0.53617 0.0
C654 C 0.90008 0.79369 0.43049 0.0
C655 C 0.88426 0.82878 0.42471 0.0
C656 C 0.90449 0.76092 0.4009 0.0
C657 C 0.87307 0.83041 0.38934 0.0
C658 C 0.89293 0.76373 0.36594 0.0
N659 N 0.87759 0.79812 0.36093 0.0
C660 C 0.94619 0.88757 0.4098 0.0
C661 C 0.91424 0.93118 0.42482 0.0
C662 C 0.94972 0.91562 0.37664 0.0
N663 N 0.92867 0.89588 0.43306 0.0
C664 C 0.91725 0.96026 0.39236 0.0
C665 C 0.93516 0.95267 0.36772 0.0
H666 H 0.9573 0.85894 0.41686 0.0
H667 H 0.90016 0.93642 0.44319 0.0
C668 C 0.8517 0.81919 0.54057 0.0
N669 N 0.86339 0.79755 0.51204 0.0
C670 C 0.82936 0.8112 0.54386 0.0
C671 C 0.83155 0.75757 0.48894 0.0
C672 C 0.8539 0.76654 0.48679 0.0
C673 C 0.81894 0.78028 0.51765 0.0
H674 H 0.85979 0.84269 0.56085 0.0
H675 H 0.86364 0.7486 0.46507 0.0
O676 O 0.94787 0.84192 0.51219 0.0
O677 O 0.91015 0.78651 0.55571 0.0
O678 O 0.9003 0.88108 0.51265 0.0
O679 O 0.9115 0.79161 0.46463 0.0
H680 H 0.95017 0.79687 0.58026 0.0
H681 H 0.98735 0.86883 0.49167 0.0
H682 H 0.98427 0.78253 0.6169 0.0
H683 H 0.02087 0.85346 0.53009 0.0
H684 H 0.88411 0.63998 0.52331 0.0
H685 H 0.90133 0.75627 0.62667 0.0
H686 H 0.89971 0.71826 0.5052 0.0
H687 H 0.88572 0.67701 0.6427 0.0
H688 H 0.95947 0.96144 0.64223 0.0
H689 H 0.89364 0.91865 0.66886 0.0
H690 H 0.97834 0.66447 0.4426 0.0
H691 H 0.96582 0.63438 0.56401 0.0
H692 H 0.86656 0.92435 0.54543 0.0
H693 H 0.93311 0.94193 0.50883 0.0
H694 H 0.86689 1.0073 0.57026 0.0
H695 H 0.93219 0.02477 0.53397 0.0
H696 H 0.88059 0.85439 0.44729 0.0
H697 H 0.91674 0.73364 0.40492 0.0
H698 H 0.86077 0.85734 0.38448 0.0
H699 H 0.89617 0.73858 0.34278 0.0
H700 H 0.96373 0.90865 0.35836 0.0
H701 H 0.9054 0.98779 0.38612 0.0
H702 H 0.8203 0.82961 0.56635 0.0
H703 H 0.82427 0.73272 0.46865 0.0
H704 H 0.7912 0.23696 0.96295 0.0
H705 H 0.79729 0.26714 0.08561 0.0
H706 H 0.75807 0.2809 0.09012 0.0
H707 H 0.72216 0.28493 0.05911 0.0
H708 H 0.71582 0.2508 0.93698 0.0
H709 H 0.75504 0.23908 0.93224 0.0
C710 C 0.78392 0.24687 0.99058 0.0
C711 C 0.7971 0.25114 0.02388 0.0
C712 C 0.76134 0.25423 0.99303 0.0
C713 C 0.78744 0.26332 0.05963 0.0
C714 C 0.76504 0.27133 0.06219 0.0
C715 C 0.72926 0.27433 0.03152 0.0
C716 C 0.71591 0.26895 0.99845 0.0
C717 C 0.75182 0.26674 0.0291 0.0
C718 C 0.72562 0.25605 0.96282 0.0
C719 C 0.74808 0.24898 0.9601 0.0
H720 H 0.21759 0.73569 0.96319 0.0
H721 H 0.21855 0.82024 0.0681 0.0
H722 H 0.25813 0.81365 0.071 0.0
H723 H 0.29252 0.78482 0.04333 0.0
H724 H 0.29151 0.69859 0.93923 0.0
H725 H 0.25202 0.70607 0.93588 0.0
C726 C 0.22648 0.75291 0.98654 0.0
C727 C 0.2151 0.77831 0.01542 0.0
C728 C 0.24927 0.74905 0.98802 0.0
C729 C 0.22686 0.79992 0.04578 0.0
C730 C 0.24952 0.79643 0.04733 0.0
C731 C 0.28368 0.76726 0.02009 0.0
C732 C 0.29508 0.74133 0.99152 0.0
C733 C 0.26089 0.77106 0.01863 0.0
C734 C 0.28328 0.7195 0.96127 0.0
C735 C 0.26064 0.72341 0.95948 0.0
H736 H 0.78984 0.77485 0.45801 0.0
H737 H 0.7944 0.76733 0.58329 0.0
H738 H 0.75509 0.75599 0.58791 0.0
H739 H 0.71941 0.74759 0.55639 0.0
H740 H 0.71485 0.75487 0.43111 0.0
H741 H 0.75419 0.76599 0.42647 0.0
C742 C 0.78227 0.77023 0.4863 0.0
C743 C 0.79508 0.77203 0.52024 0.0
C744 C 0.75965 0.76357 0.48876 0.0
C745 C 0.78492 0.76671 0.55671 0.0
C746 C 0.76244 0.76 0.55939 0.0
C747 C 0.727 0.75206 0.52809 0.0
C748 C 0.71419 0.75041 0.49416 0.0
C749 C 0.74963 0.75853 0.52562 0.0
C750 C 0.72435 0.75547 0.45768 0.0
C751 C 0.74684 0.76205 0.45499 0.0
H752 H 0.21607 0.26312 0.45604 0.0
H753 H 0.21309 0.23844 0.57997 0.0
H754 H 0.25257 0.2466 0.58451 0.0
H755 H 0.28802 0.25928 0.55316 0.0
H756 H 0.2909 0.28571 0.42935 0.0
H757 H 0.25151 0.27705 0.42482 0.0
C758 C 0.22408 0.25924 0.484 0.0
C759 C 0.21162 0.25024 0.5176 0.0
C760 C 0.24681 0.26389 0.48641 0.0
C761 C 0.22224 0.24597 0.55371 0.0
C762 C 0.24484 0.25034 0.55631 0.0
C763 C 0.28005 0.26365 0.52522 0.0
C764 C 0.29254 0.27294 0.49165 0.0
C765 C 0.2573 0.25928 0.52285 0.0
C766 C 0.28184 0.27772 0.45562 0.0
C767 C 0.25925 0.27313 0.453 0.0
H768 H 0.58434 0.41165 0.22857 0.0
H769 H 0.56217 0.52982 0.15873 0.0
H770 H 0.55993 0.57984 0.2169 0.0
H771 H 0.5663 0.59126 0.28718 0.0
H772 H 0.58864 0.47271 0.35655 0.0
H773 H 0.58912 0.42194 0.29893 0.0
C774 C 0.57908 0.4484 0.22605 0.0
C775 C 0.57355 0.46699 0.1893 0.0
C776 C 0.57802 0.47705 0.25952 0.0
C777 C 0.56636 0.51445 0.18668 0.0
C778 C 0.5652 0.54319 0.21991 0.0
C779 C 0.57097 0.55414 0.2898 0.0
C780 C 0.57761 0.53601 0.32615 0.0
C781 C 0.57121 0.52501 0.25645 0.0
C782 C 0.58382 0.48788 0.32886 0.0
C783 C 0.58401 0.45871 0.29594 0.0
H784 H 0.45614 0.56807 0.20859 0.0
H785 H 0.39478 0.51087 0.16938 0.0
H786 H 0.39233 0.46164 0.22776 0.0
H787 H 0.40702 0.43618 0.29051 0.0
H788 H 0.46779 0.4945 0.33151 0.0
H789 H 0.47134 0.5409 0.27152 0.0
C790 C 0.44237 0.54444 0.21271 0.0
C791 C 0.42558 0.54345 0.18482 0.0
C792 C 0.44096 0.51635 0.24662 0.0
C793 C 0.40775 0.51287 0.19067 0.0
C794 C 0.40637 0.48455 0.22398 0.0
C795 C 0.42097 0.45934 0.28657 0.0
C796 C 0.437 0.46205 0.31575 0.0
C797 C 0.42274 0.48642 0.25234 0.0
C798 C 0.45525 0.49138 0.30951 0.0
C799 C 0.45723 0.51819 0.27528 0.0
H800 H 0.42839 0.48646 0.8332 0.0
H801 H 0.44883 0.61848 0.78017 0.0
H802 H 0.44953 0.58023 0.71632 0.0
H803 H 0.44222 0.51046 0.67488 0.0
H804 H 0.4214 0.37882 0.72814 0.0
H805 H 0.42253 0.41604 0.79227 0.0
C806 C 0.43294 0.50693 0.80767 0.0
C807 C 0.43847 0.55535 0.81158 0.0
C808 C 0.43303 0.4849 0.77093 0.0
C809 C 0.44473 0.58105 0.7782 0.0
C810 C 0.44497 0.55929 0.74156 0.0
C811 C 0.43821 0.48973 0.70056 0.0
C812 C 0.43154 0.442 0.69655 0.0
C813 C 0.43891 0.51137 0.7375 0.0
C814 C 0.4262 0.41585 0.73021 0.0
C815 C 0.42695 0.43703 0.76698 0.0
H816 H 0.60819 0.47979 0.81437 0.0
H817 H 0.53883 0.45532 0.8137 0.0
H818 H 0.53567 0.49874 0.7523 0.0
H819 H 0.55259 0.54506 0.69912 0.0
H820 H 0.62168 0.57189 0.70179 0.0
H821 H 0.62486 0.52705 0.76248 0.0
C822 C 0.5923 0.48445 0.80119 0.0
C823 C 0.57379 0.46423 0.81886 0.0
C824 C 0.59054 0.51009 0.76622 0.0
C825 C 0.55343 0.46986 0.80064 0.0
C826 C 0.55157 0.49498 0.76559 0.0
C827 C 0.56833 0.54084 0.71297 0.0
C828 C 0.58685 0.56187 0.69609 0.0
C829 C 0.57002 0.51527 0.7481 0.0
C830 C 0.60714 0.55651 0.71448 0.0
C831 C 0.60899 0.53071 0.74908 0.0
H832 H 0.06504 0.01679 0.18095 0.0
H833 H 0.08691 0.88732 0.2363 0.0
H834 H 0.08687 0.92695 0.2995 0.0
H835 H 0.08176 0.99882 0.33889 0.0
H836 H 0.06044 0.12894 0.28395 0.0
H837 H 0.05856 0.08831 0.22109 0.0
C838 C 0.06951 0.9971 0.20693 0.0
C839 C 0.07614 0.94923 0.20378 0.0
C840 C 0.06951 0.02019 0.24332 0.0
C841 C 0.08208 0.92439 0.23774 0.0
C842 C 0.08198 0.94696 0.27396 0.0
C843 C 0.07679 0.0184 0.31315 0.0
C844 C 0.07138 0.06697 0.3162 0.0
C845 C 0.076 0.99499 0.27703 0.0
C846 C 0.06452 0.09145 0.28261 0.0
C847 C 0.06358 0.06831 0.24655 0.0
H848 H 0.94463 0.92366 0.29396 0.0
H849 H 0.93192 0.0493 0.36257 0.0
H850 H 0.93353 0.09868 0.30403 0.0
H851 H 0.93629 0.10555 0.2329 0.0
H852 H 0.94822 0.97986 0.1639 0.0
H853 H 0.94928 0.93117 0.22294 0.0
C854 C 0.94257 0.96194 0.29612 0.0
C855 C 0.93808 0.98276 0.33251 0.0
C856 C 0.94322 0.99007 0.26223 0.0
C857 C 0.93515 0.03236 0.33481 0.0
C858 C 0.93611 0.06063 0.30138 0.0
C859 C 0.9395 0.06764 0.23085 0.0
C860 C 0.94213 0.04636 0.19406 0.0
C861 C 0.93981 0.03979 0.26486 0.0
C862 C 0.94592 0.99703 0.19185 0.0
C863 C 0.94658 0.96919 0.2256 0.0
H864 H 0.95313 0.94245 0.72323 0.0
H865 H 0.89912 0.01774 0.6722 0.0
H866 H 0.89767 0.07133 0.72841 0.0
H867 H 0.91149 0.09594 0.79208 0.0
H868 H 0.96318 0.01534 0.84636 0.0
H869 H 0.96621 0.96568 0.78851 0.0
C870 C 0.94116 0.97081 0.72453 0.0
C871 C 0.92628 0.97646 0.69385 0.0
C872 C 0.94009 1.00067 0.75735 0.0
C873 C 0.91066 0.01285 0.69572 0.0
C874 C 0.90986 0.04344 0.72776 0.0
C875 C 0.92324 0.06715 0.79172 0.0
C876 C 0.93708 0.05982 0.82391 0.0
C877 C 0.92439 0.03744 0.75888 0.0
C878 C 0.95254 0.02281 0.82199 0.0
C879 C 0.95418 0.99391 0.78897 0.0
H880 H 0.07437 0.92517 0.78971 0.0
H881 H 0.07781 0.05202 0.86035 0.0
H882 H 0.07704 0.10153 0.80181 0.0
H883 H 0.07596 0.10878 0.73062 0.0
H884 H 0.07382 0.9818 0.65981 0.0
H885 H 0.0729 0.93252 0.71835 0.0
C886 C 0.07469 0.96367 0.7923 0.0
C887 C 0.07617 0.98486 0.82936 0.0
C888 C 0.07439 0.99193 0.75848 0.0
C889 C 0.07689 0.0348 0.83217 0.0
C890 C 0.07638 0.06313 0.79872 0.0
C891 C 0.07546 0.07031 0.72791 0.0
C892 C 0.07499 0.04918 0.69071 0.0
C893 C 0.07532 0.04208 0.76171 0.0
C894 C 0.07391 0.99922 0.68794 0.0
C895 C 0.07354 0.97092 0.72145 0.0
H896 H 0.49977 0.92523 0.04679 0.0
H897 H 0.46732 0.95313 0.93771 0.0
H898 H 0.48554 0.03014 0.93293 0.0
H899 H 0.51047 0.08996 0.95983 0.0
H900 H 0.5433 0.06187 0.06855 0.0
H901 H 0.52473 0.98528 0.07379 0.0
C902 C 0.49654 0.94833 0.02214 0.0
C903 C 0.48224 0.93323 0.9926 0.0
C904 C 0.50705 0.99275 0.01959 0.0
C905 C 0.47848 0.96345 0.9606 0.0
C906 C 0.4888 1.00768 0.95794 0.0
C907 C 0.51373 0.06695 0.98452 0.0
C908 C 0.52828 0.08187 0.01375 0.0
C909 C 0.50316 0.02265 0.98719 0.0
C910 C 0.53197 0.05176 0.04586 0.0
C911 C 0.52146 1.00772 0.04877 0.0
H912 H 0.52983 0.95265 0.45153 0.0
H913 H 0.51373 0.91634 0.5703 0.0
H914 H 0.49254 0.98941 0.5765 0.0
H915 H 0.4787 0.06394 0.54849 0.0
H916 H 0.49492 0.10082 0.42996 0.0
H917 H 0.51639 0.02794 0.42379 0.0
C918 C 0.52186 0.9609 0.4789 0.0
C919 C 0.52331 0.92873 0.5103 0.0
C920 C 0.50981 1.00329 0.48242 0.0
C921 C 0.51261 0.93989 0.54539 0.0
C922 C 0.50059 0.98189 0.54908 0.0
C923 C 0.4868 0.05589 0.5212 0.0
C924 C 0.48516 0.08787 0.48974 0.0
C925 C 0.49902 0.01378 0.51777 0.0
C926 C 0.4961 0.07719 0.45481 0.0
C927 C 0.50827 0.03533 0.45116 0.0
H928 H 0.03068 0.57053 0.05344 0.0
H929 H 0.00997 0.60644 0.93688 0.0
H930 H 0.98909 0.53279 0.93325 0.0
H931 H 0.97642 0.45809 0.96315 0.0
H932 H 0.99571 0.42391 0.08061 0.0
H933 H 0.01698 0.49742 0.08419 0.0
C934 C 0.02139 0.56269 0.0274 0.0
C935 C 0.02212 0.59415 0.99541 0.0
C936 C 0.00906 0.52054 0.02568 0.0
C937 C 0.01015 0.58267 0.96172 0.0
C938 C 0.99804 0.54063 0.95967 0.0
C939 C 0.98537 0.4667 0.98944 0.0
C940 C 0.98454 0.43557 0.02152 0.0
C941 C 0.99743 0.5092 0.99139 0.0
C942 C 0.99596 0.44747 0.05562 0.0
C943 C 0.00819 0.4894 0.05762 0.0
H944 H 0.043 0.47815 0.48529 0.0
H945 H 0.99062 0.39769 0.53758 0.0
H946 H 0.96826 0.46911 0.54024 0.0
H947 H 0.96333 0.55459 0.52782 0.0
H948 H 0.01457 0.63433 0.47206 0.0
H949 H 0.03734 0.56279 0.46969 0.0
C950 C 0.0266 0.47591 0.49677 0.0
C951 C 0.01874 0.43231 0.51161 0.0
C952 C 0.01352 0.51706 0.49745 0.0
C953 C 0.99745 0.43071 0.52682 0.0
C954 C 0.98451 0.47156 0.52807 0.0
C955 C 0.97951 0.55625 0.51525 0.0
C956 C 0.98732 0.59967 0.50033 0.0
C957 C 0.99239 0.51495 0.51366 0.0
C958 C 0.00817 0.60123 0.48356 0.0
C959 C 0.02121 0.5604 0.48235 0.0
loop_
_geom_bond_atom_site_label_1
_geom_bond_atom_site_label_2
_geom_bond_distance
_geom_bond_site_symmetry_2
_ccdc_geom_bond_type
Li0 N17 1.990 . S
Li0 O60 1.935 1_554 S
Li0 O61 1.970 . S
Li0 O62 1.961 . S
Li1 N25 1.990 . S
Li1 O60 1.969 1_554 S
Li1 O61 1.956 . S
Li1 O63 1.961 1_554 S
Li2 N47 1.990 . S
Li2 O60 1.981 . S
Li2 O62 1.956 1_556 S
Li2 O63 1.970 . S
Li3 N53 1.991 . S
Li3 O61 1.938 1_556 S
Li3 O62 1.969 1_556 S
Li3 O63 1.978 . S
C4 C6 1.349 1_556 S
C4 C7 1.356 . S
C4 O60 1.324 . S
N5 C8 1.314 . S
N5 C9 1.279 1_554 S
C6 C4 1.349 1_554 S
C6 C8 1.353 . S
C6 H64 0.929 . S
C7 C4 1.356 . S
C7 C9 1.358 . S
C7 H65 0.930 . S
C8 N5 1.314 . S
C8 C6 1.353 . S
C8 H66 0.930 . S
C9 N5 1.279 1_556 S
C9 C7 1.358 . S
C9 H67 0.930 . S
C10 C13 1.348 . S
C10 C14 1.356 . S
C10 O61 1.325 . S
C11 N12 1.279 . S
C11 C14 1.358 . S
C11 H68 0.930 . S
N12 C11 1.279 . S
N12 C15 1.314 . S
C13 C10 1.348 . S
C13 C15 1.353 . S
C13 H69 0.929 . S
C14 C10 1.356 . S
C14 C11 1.358 . S
C14 H70 0.930 . S
C15 N12 1.314 . S
C15 C13 1.353 . S
C15 H71 0.930 . S
C16 N17 1.314 . S
C16 C21 1.353 . S
C16 H22 0.930 . S
N17 Li0 1.990 . S
N17 C16 1.314 . S
N17 C19 1.279 . S
C18 C19 1.358 . S
C18 C20 1.356 . S
C18 H72 0.930 . S
C19 N17 1.279 . S
C19 C18 1.358 . S
C19 H23 0.930 . S
C20 C18 1.356 . S
C20 C21 1.348 . S
C21 C16 1.353 . S
C21 C20 1.348 . S
C21 H73 0.929 . S
H22 C16 0.930 . S
H23 C19 0.930 . S
C24 N25 1.314 1_556 S
C24 C26 1.353 . S
C24 H30 0.930 . S
N25 Li1 1.990 . S
N25 C24 1.314 1_554 S
N25 C28 1.279 . S
C26 C24 1.353 . S
C26 C29 1.345 1_556 S
C26 H74 0.929 . S
C27 C28 1.358 . S
C27 C29 1.359 . S
C27 H75 0.930 . S
C28 N25 1.279 . S
C28 C27 1.358 . S
C28 H31 0.930 . S
C29 C26 1.345 1_554 S
C29 C27 1.359 . S
H30 C24 0.930 . S
H31 C28 0.930 . S
C32 C34 1.346 1_554 S
C32 C35 1.357 . S
C32 O62 1.325 . S
N33 C36 1.314 . S
N33 C37 1.279 1_556 S
C34 C32 1.346 1_556 S
C34 C36 1.353 . S
C34 H76 0.929 . S
C35 C32 1.357 . S
C35 C37 1.358 . S
C35 H77 0.930 . S
C36 N33 1.314 . S
C36 C34 1.353 . S
C36 H78 0.930 . S
C37 N33 1.279 1_554 S
C37 C35 1.358 . S
C37 H79 0.930 . S
C38 C39 1.348 . S
C38 C40 1.356 . S
C38 O63 1.325 . S
C39 C38 1.348 . S
C39 C41 1.353 . S
C39 H80 0.929 . S
C40 C38 1.356 . S
C40 C42 1.358 . S
C40 H81 0.930 . S
C41 C39 1.353 . S
C41 N43 1.314 . S
C41 H82 0.930 . S
C42 C40 1.358 . S
C42 N43 1.279 . S
C42 H83 0.930 . S
N43 C41 1.314 . S
N43 C42 1.279 . S
C44 C46 1.353 . S
C44 N47 1.314 . S
C44 H50 0.930 . S
C45 N47 1.279 . S
C45 C48 1.358 . S
C45 H51 0.930 . S
C46 C44 1.353 . S
C46 C49 1.348 . S
C46 H84 0.929 . S
N47 Li2 1.990 . S
N47 C44 1.314 . S
N47 C45 1.279 . S
C48 C45 1.358 . S
C48 C49 1.356 . S
C48 H85 0.930 . S
C49 C46 1.348 . S
C49 C48 1.356 . S
H50 C44 0.930 . S
H51 C45 0.930 . S
C52 N53 1.314 1_554 S
C52 C54 1.353 . S
C52 H58 0.930 . S
N53 Li3 1.991 . S
N53 C52 1.314 1_556 S
N53 C56 1.279 . S
C54 C52 1.353 . S
C54 C57 1.345 . S
C54 H86 0.929 . S
C55 C56 1.358 . S
C55 C57 1.359 1_556 S
C55 H87 0.930 . S
C56 N53 1.279 . S
C56 C55 1.358 . S
C56 H59 0.930 . S
C57 C54 1.345 . S
C57 C55 1.359 1_554 S
H58 C52 0.930 . S
H59 C56 0.930 . S
O60 Li0 1.935 1_556 S
O60 Li1 1.969 1_556 S
O60 Li2 1.981 . S
O60 C4 1.324 . S
O61 Li0 1.970 . S
O61 Li1 1.956 . S
O61 Li3 1.938 1_554 S
O61 C10 1.325 . S
O62 Li0 1.961 . S
O62 Li2 1.956 1_554 S
O62 Li3 1.969 1_554 S
O62 C32 1.325 . S
O63 Li1 1.961 1_556 S
O63 Li2 1.970 . S
O63 Li3 1.978 . S
O63 C38 1.325 . S
H64 C6 0.929 . S
H65 C7 0.930 . S
H66 C8 0.930 . S
H67 C9 0.930 . S
H68 C11 0.930 . S
H69 C13 0.929 . S
H70 C14 0.930 . S
H71 C15 0.930 . S
H72 C18 0.930 . S
H73 C21 0.929 . S
H74 C26 0.929 . S
H75 C27 0.930 . S
H76 C34 0.929 . S
H77 C35 0.930 . S
H78 C36 0.930 . S
H79 C37 0.930 . S
H80 C39 0.929 . S
H81 C40 0.930 . S
H82 C41 0.930 . S
H83 C42 0.930 . S
H84 C46 0.929 . S
H85 C48 0.930 . S
H86 C54 0.929 . S
H87 C55 0.930 . S
Li88 N105 1.990 . S
Li88 O148 1.956 . S
Li88 O149 1.969 1_554 S
Li88 O150 1.961 1_554 S
Li89 N113 1.990 . S
Li89 O148 1.970 . S
Li89 O149 1.935 1_554 S
Li89 O151 1.961 . S
Li90 N135 1.991 . S
Li90 O148 1.938 1_556 S
Li90 O150 1.978 . S
Li90 O151 1.969 1_556 S
Li91 N141 1.990 . S
Li91 O149 1.981 . S
Li91 O150 1.970 . S
Li91 O151 1.956 1_556 S
C92 C94 1.348 . S
C92 C95 1.356 . S
C92 O148 1.325 . S
N93 C96 1.314 . S
N93 C97 1.279 . S
C94 C92 1.348 . S
C94 C96 1.353 . S
C94 H152 0.929 . S
C95 C92 1.356 . S
C95 C97 1.358 . S
C95 H153 0.930 . S
C96 N93 1.314 . S
C96 C94 1.353 . S
C96 H154 0.930 . S
C97 N93 1.279 . S
C97 C95 1.358 . S
C97 H155 0.930 . S
C98 C101 1.349 1_556 S
C98 C102 1.356 . S
C98 O149 1.324 . S
C99 N100 1.279 1_556 S
C99 C102 1.358 . S
C99 H156 0.930 . S
N100 C99 1.279 1_554 S
N100 C103 1.314 . S
C101 C98 1.349 1_554 S
C101 C103 1.353 . S
C101 H157 0.929 . S
C102 C98 1.356 . S
C102 C99 1.358 . S
C102 H158 0.930 . S
C103 N100 1.314 . S
C103 C101 1.353 . S
C103 H159 0.930 . S
C104 N105 1.314 1_556 S
C104 C109 1.353 . S
C104 H110 0.930 . S
N105 Li88 1.990 . S
N105 C104 1.314 1_554 S
N105 C107 1.279 . S
C106 C107 1.358 . S
C106 C108 1.359 . S
C106 H160 0.930 . S
C107 N105 1.279 . S
C107 C106 1.358 . S
C107 H111 0.930 . S
C108 C106 1.359 . S
C108 C109 1.345 1_554 S
C109 C104 1.353 . S
C109 C108 1.345 1_556 S
C109 H161 0.929 . S
H110 C104 0.930 . S
H111 C107 0.930 . S
C112 N113 1.314 . S
C112 C114 1.353 . S
C112 H118 0.930 . S
N113 Li89 1.990 . S
N113 C112 1.314 . S
N113 C116 1.279 . S
C114 C112 1.353 . S
C114 C117 1.348 . S
C114 H162 0.929 . S
C115 C116 1.358 . S
C115 C117 1.356 . S
C115 H163 0.930 . S
C116 N113 1.279 . S
C116 C115 1.358 . S
C116 H119 0.930 . S
C117 C114 1.348 . S
C117 C115 1.356 . S
H118 C112 0.930 . S
H119 C116 0.930 . S
C120 C122 1.348 . S
C120 C123 1.356 . S
C120 O150 1.325 . S
N121 C124 1.314 . S
N121 C125 1.279 . S
C122 C120 1.348 . S
C122 C124 1.353 . S
C122 H164 0.929 . S
C123 C120 1.356 . S
C123 C125 1.358 . S
C123 H165 0.930 . S
C124 N121 1.314 . S
C124 C122 1.353 . S
C124 H166 0.930 . S
C125 N121 1.279 . S
C125 C123 1.358 . S
C125 H167 0.930 . S
C126 C127 1.346 1_554 S
C126 C128 1.357 . S
C126 O151 1.325 . S
C127 C126 1.346 1_556 S
C127 C129 1.353 . S
C127 H168 0.929 . S
C128 C126 1.357 . S
C128 C130 1.358 . S
C128 H169 0.930 . S
C129 C127 1.353 . S
C129 N131 1.314 . S
C129 H170 0.930 . S
C130 C128 1.358 . S
C130 N131 1.279 1_554 S
C130 H171 0.930 . S
N131 C129 1.314 . S
N131 C130 1.279 1_556 S
C132 C134 1.353 . S
C132 N135 1.314 1_554 S
C132 H138 0.930 . S
C133 N135 1.279 . S
C133 C136 1.358 . S
C133 H139 0.930 . S
C134 C132 1.353 . S
C134 C137 1.345 . S
C134 H172 0.929 . S
N135 Li90 1.991 . S
N135 C132 1.314 1_556 S
N135 C133 1.279 . S
C136 C133 1.358 . S
C136 C137 1.359 1_556 S
C136 H173 0.930 . S
C137 C134 1.345 . S
C137 C136 1.359 1_554 S
H138 C132 0.930 . S
H139 C133 0.930 . S
C140 N141 1.314 . S
C140 C142 1.353 . S
C140 H146 0.930 . S
N141 Li91 1.990 . S
N141 C140 1.314 . S
N141 C144 1.279 . S
C142 C140 1.353 . S
C142 C145 1.348 . S
C142 H174 0.929 . S
C143 C144 1.358 . S
C143 C145 1.356 . S
C143 H175 0.930 . S
C144 N141 1.279 . S
C144 C143 1.358 . S
C144 H147 0.930 . S
C145 C142 1.348 . S
C145 C143 1.356 . S
H146 C140 0.930 . S
H147 C144 0.930 . S
O148 Li88 1.956 . S
O148 Li89 1.970 . S
O148 Li90 1.938 1_554 S
O148 C92 1.325 . S
O149 Li88 1.969 1_556 S
O149 Li89 1.935 1_556 S
O149 Li91 1.981 . S
O149 C98 1.324 . S
O150 Li88 1.961 1_556 S
O150 Li90 1.978 . S
O150 Li91 1.970 . S
O150 C120 1.325 . S
O151 Li89 1.961 . S
O151 Li90 1.969 1_554 S
O151 Li91 1.956 1_554 S
O151 C126 1.325 . S
H152 C94 0.929 . S
H153 C95 0.930 . S
H154 C96 0.930 . S
H155 C97 0.930 . S
H156 C99 0.930 . S
H157 C101 0.929 . S
H158 C102 0.930 . S
H159 C103 0.930 . S
H160 C106 0.930 . S
H161 C109 0.929 . S
H162 C114 0.929 . S
H163 C115 0.930 . S
H164 C122 0.929 . S
H165 C123 0.930 . S
H166 C124 0.930 . S
H167 C125 0.930 . S
H168 C127 0.929 . S
H169 C128 0.930 . S
H170 C129 0.930 . S
H171 C130 0.930 . S
H172 C134 0.929 . S
H173 C136 0.930 . S
H174 C142 0.929 . S
H175 C143 0.930 . S
Li176 N193 1.990 . S
Li176 O236 1.956 . S
Li176 O237 1.970 . S
Li176 O238 1.961 . S
Li177 N201 1.990 . S
Li177 O236 1.970 . S
Li177 O237 1.956 . S
Li177 O239 1.961 . S
Li178 N223 1.990 . S
Li178 O236 1.961 . S
Li178 O238 1.956 . S
Li178 O239 1.970 . S
Li179 N229 1.990 . S
Li179 O237 1.961 . S
Li179 O238 1.970 . S
Li179 O239 1.956 . S
C180 C182 1.348 . S
C180 C183 1.356 . S
C180 O236 1.325 . S
N181 C184 1.314 . S
N181 C185 1.279 . S
C182 C180 1.348 . S
C182 C184 1.353 . S
C182 H240 0.929 . S
C183 C180 1.356 . S
C183 C185 1.358 . S
C183 H241 0.930 . S
C184 N181 1.314 . S
C184 C182 1.353 . S
C184 H242 0.930 . S
C185 N181 1.279 . S
C185 C183 1.358 . S
C185 H243 0.930 . S
C186 C189 1.348 . S
C186 C190 1.356 . S
C186 O237 1.325 . S
C187 N188 1.279 . S
C187 C190 1.358 . S
C187 H244 0.930 . S
N188 C187 1.279 . S
N188 C191 1.314 . S
C189 C186 1.348 . S
C189 C191 1.353 . S
C189 H245 0.929 . S
C190 C186 1.356 . S
C190 C187 1.358 . S
C190 H246 0.930 . S
C191 N188 1.314 . S
C191 C189 1.353 . S
C191 H247 0.930 . S
C192 N193 1.314 . S
C192 C197 1.353 . S
C192 H198 0.930 . S
N193 Li176 1.990 . S
N193 C192 1.314 . S
N193 C195 1.279 . S
C194 C195 1.358 . S
C194 C196 1.356 . S
C194 H248 0.930 . S
C195 N193 1.279 . S
C195 C194 1.358 . S
C195 H199 0.930 . S
C196 C194 1.356 . S
C196 C197 1.348 . S
C197 C192 1.353 . S
C197 C196 1.348 . S
C197 H249 0.929 . S
H198 C192 0.930 . S
H199 C195 0.930 . S
C200 N201 1.314 . S
C200 C202 1.353 . S
C200 H206 0.930 . S
N201 Li177 1.990 . S
N201 C200 1.314 . S
N201 C204 1.279 . S
C202 C200 1.353 . S
C202 C205 1.348 . S
C202 H250 0.929 . S
C203 C204 1.358 . S
C203 C205 1.356 . S
C203 H251 0.930 . S
C204 N201 1.279 . S
C204 C203 1.358 . S
C204 H207 0.930 . S
C205 C202 1.348 . S
C205 C203 1.356 . S
H206 C200 0.930 . S
H207 C204 0.930 . S
C208 C210 1.348 . S
C208 C211 1.356 . S
C208 O238 1.325 . S
N209 C212 1.314 . S
N209 C213 1.279 . S
C210 C208 1.348 . S
C210 C212 1.353 . S
C210 H252 0.929 . S
C211 C208 1.356 . S
C211 C213 1.358 . S
C211 H253 0.930 . S
C212 N209 1.314 . S
C212 C210 1.353 . S
C212 H254 0.930 . S
C213 N209 1.279 . S
C213 C211 1.358 . S
C213 H255 0.930 . S
C214 C215 1.348 . S
C214 C216 1.356 . S
C214 O239 1.325 . S
C215 C214 1.348 . S
C215 C217 1.353 . S
C215 H256 0.929 . S
C216 C214 1.356 . S
C216 C218 1.358 . S
C216 H257 0.930 . S
C217 C215 1.353 . S
C217 N219 1.314 . S
C217 H258 0.930 . S
C218 C216 1.358 . S
C218 N219 1.279 . S
C218 H259 0.930 . S
N219 C217 1.314 . S
N219 C218 1.279 . S
C220 C222 1.353 . S
C220 N223 1.314 . S
C220 H226 0.930 . S
C221 N223 1.279 . S
C221 C224 1.358 . S
C221 H227 0.930 . S
C222 C220 1.353 . S
C222 C225 1.348 . S
C222 H260 0.929 . S
N223 Li178 1.990 . S
N223 C220 1.314 . S
N223 C221 1.279 . S
C224 C221 1.358 . S
C224 C225 1.356 . S
C224 H261 0.930 . S
C225 C222 1.348 . S
C225 C224 1.356 . S
H226 C220 0.930 . S
H227 C221 0.930 . S
C228 N229 1.314 . S
C228 C230 1.353 . S
C228 H234 0.930 . S
N229 Li179 1.990 . S
N229 C228 1.314 . S
N229 C232 1.279 . S
C230 C228 1.353 . S
C230 C233 1.348 . S
C230 H262 0.929 . S
C231 C232 1.358 . S
C231 C233 1.356 . S
C231 H263 0.930 . S
C232 N229 1.279 . S
C232 C231 1.358 . S
C232 H235 0.930 . S
C233 C230 1.348 . S
C233 C231 1.356 . S
H234 C228 0.930 . S
H235 C232 0.930 . S
O236 Li176 1.956 . S
O236 Li177 1.970 . S
O236 Li178 1.961 . S
O236 C180 1.325 . S
O237 Li176 1.970 . S
O237 Li177 1.956 . S
O237 Li179 1.961 . S
O237 C186 1.325 . S
O238 Li176 1.961 . S
O238 Li178 1.956 . S
O238 Li179 1.970 . S
O238 C208 1.325 . S
O239 Li177 1.961 . S
O239 Li178 1.970 . S
O239 Li179 1.956 . S
O239 C214 1.325 . S
H240 C182 0.929 . S
H241 C183 0.930 . S
H242 C184 0.930 . S
H243 C185 0.930 . S
H244 C187 0.930 . S
H245 C189 0.929 . S
H246 C190 0.930 . S
H247 C191 0.930 . S
H248 C194 0.930 . S
H249 C197 0.929 . S
H250 C202 0.929 . S
H251 C203 0.930 . S
H252 C210 0.929 . S
H253 C211 0.930 . S
H254 C212 0.930 . S
H255 C213 0.930 . S
H256 C215 0.929 . S
H257 C216 0.930 . S
H258 C217 0.930 . S
H259 C218 0.930 . S
H260 C222 0.929 . S
H261 C224 0.930 . S
H262 C230 0.929 . S
H263 C231 0.930 . S
Li264 N281 1.990 . S
Li264 O324 1.956 . S
Li264 O325 1.970 . S
Li264 O326 1.961 . S
Li265 N289 1.990 . S
Li265 O324 1.970 . S
Li265 O325 1.956 . S
Li265 O327 1.961 . S
Li266 N311 1.990 . S
Li266 O324 1.961 . S
Li266 O326 1.956 . S
Li266 O327 1.970 . S
Li267 N317 1.990 . S
Li267 O325 1.961 . S
Li267 O326 1.970 . S
Li267 O327 1.956 . S
C268 C270 1.348 . S
C268 C271 1.356 . S
C268 O324 1.325 . S
N269 C272 1.314 . S
N269 C273 1.279 . S
C270 C268 1.348 . S
C270 C272 1.353 . S
C270 H328 0.929 . S
C271 C268 1.356 . S
C271 C273 1.358 . S
C271 H329 0.930 . S
C272 N269 1.314 . S
C272 C270 1.353 . S
C272 H330 0.930 . S
C273 N269 1.279 . S
C273 C271 1.358 . S
C273 H331 0.930 . S
C274 C277 1.348 . S
C274 C278 1.356 . S
C274 O325 1.325 . S
C275 N276 1.279 . S
C275 C278 1.358 . S
C275 H332 0.930 . S
N276 C275 1.279 . S
N276 C279 1.314 . S
C277 C274 1.348 . S
C277 C279 1.353 . S
C277 H333 0.929 . S
C278 C274 1.356 . S
C278 C275 1.358 . S
C278 H334 0.930 . S
C279 N276 1.314 . S
C279 C277 1.353 . S
C279 H335 0.930 . S
C280 N281 1.314 . S
C280 C285 1.353 . S
C280 H286 0.930 . S
N281 Li264 1.990 . S
N281 C280 1.314 . S
N281 C283 1.279 . S
C282 C283 1.358 . S
C282 C284 1.356 . S
C282 H336 0.930 . S
C283 N281 1.279 . S
C283 C282 1.358 . S
C283 H287 0.930 . S
C284 C282 1.356 . S
C284 C285 1.348 . S
C285 C280 1.353 . S
C285 C284 1.348 . S
C285 H337 0.929 . S
H286 C280 0.930 . S
H287 C283 0.930 . S
C288 N289 1.314 . S
C288 C290 1.353 . S
C288 H294 0.930 . S
N289 Li265 1.990 . S
N289 C288 1.314 . S
N289 C292 1.279 . S
C290 C288 1.353 . S
C290 C293 1.348 . S
C290 H338 0.929 . S
C291 C292 1.358 . S
C291 C293 1.356 . S
C291 H339 0.930 . S
C292 N289 1.279 . S
C292 C291 1.358 . S
C292 H295 0.930 . S
C293 C290 1.348 . S
C293 C291 1.356 . S
H294 C288 0.930 . S
H295 C292 0.930 . S
C296 C298 1.348 . S
C296 C299 1.356 . S
C296 O326 1.325 . S
N297 C300 1.314 . S
N297 C301 1.279 . S
C298 C296 1.348 . S
C298 C300 1.353 . S
C298 H340 0.929 . S
C299 C296 1.356 . S
C299 C301 1.358 . S
C299 H341 0.930 . S
C300 N297 1.314 . S
C300 C298 1.353 . S
C300 H342 0.930 . S
C301 N297 1.279 . S
C301 C299 1.358 . S
C301 H343 0.930 . S
C302 C303 1.348 . S
C302 C304 1.356 . S
C302 O327 1.325 . S
C303 C302 1.348 . S
C303 C305 1.353 . S
C303 H344 0.929 . S
C304 C302 1.356 . S
C304 C306 1.358 . S
C304 H345 0.930 . S
C305 C303 1.353 . S
C305 N307 1.314 . S
C305 H346 0.930 . S
C306 C304 1.358 . S
C306 N307 1.279 . S
C306 H347 0.930 . S
N307 C305 1.314 . S
N307 C306 1.279 . S
C308 C310 1.353 . S
C308 N311 1.314 . S
C308 H314 0.930 . S
C309 N311 1.279 . S
C309 C312 1.358 . S
C309 H315 0.930 . S
C310 C308 1.353 . S
C310 C313 1.348 . S
C310 H348 0.929 . S
N311 Li266 1.990 . S
N311 C308 1.314 . S
N311 C309 1.279 . S
C312 C309 1.358 . S
C312 C313 1.356 . S
C312 H349 0.930 . S
C313 C310 1.348 . S
C313 C312 1.356 . S
H314 C308 0.930 . S
H315 C309 0.930 . S
C316 N317 1.314 . S
C316 C318 1.353 . S
C316 H322 0.930 . S
N317 Li267 1.990 . S
N317 C316 1.314 . S
N317 C320 1.279 . S
C318 C316 1.353 . S
C318 C321 1.348 . S
C318 H350 0.929 . S
C319 C320 1.358 . S
C319 C321 1.356 . S
C319 H351 0.930 . S
C320 N317 1.279 . S
C320 C319 1.358 . S
C320 H323 0.930 . S
C321 C318 1.348 . S
C321 C319 1.356 . S
H322 C316 0.930 . S
H323 C320 0.930 . S
O324 Li264 1.956 . S
O324 Li265 1.970 . S
O324 Li266 1.961 . S
O324 C268 1.325 . S
O325 Li264 1.970 . S
O325 Li265 1.956 . S
O325 Li267 1.961 . S
O325 C274 1.325 . S
O326 Li264 1.961 . S
O326 Li266 1.956 . S
O326 Li267 1.970 . S
O326 C296 1.325 . S
O327 Li265 1.961 . S
O327 Li266 1.970 . S
O327 Li267 1.956 . S
O327 C302 1.325 . S
H328 C270 0.929 . S
H329 C271 0.930 . S
H330 C272 0.930 . S
H331 C273 0.930 . S
H332 C275 0.930 . S
H333 C277 0.929 . S
H334 C278 0.930 . S
H335 C279 0.930 . S
H336 C282 0.930 . S
H337 C285 0.929 . S
H338 C290 0.929 . S
H339 C291 0.930 . S
H340 C298 0.929 . S
H341 C299 0.930 . S
H342 C300 0.930 . S
H343 C301 0.930 . S
H344 C303 0.929 . S
H345 C304 0.930 . S
H346 C305 0.930 . S
H347 C306 0.930 . S
H348 C310 0.929 . S
H349 C312 0.930 . S
H350 C318 0.929 . S
H351 C319 0.930 . S
Li352 N369 1.990 . S
Li352 O412 1.935 1_554 S
Li352 O413 1.970 . S
Li352 O414 1.961 . S
Li353 N377 1.990 . S
Li353 O412 1.969 1_554 S
Li353 O413 1.956 . S
Li353 O415 1.961 1_554 S
Li354 N399 1.990 . S
Li354 O412 1.981 . S
Li354 O414 1.956 1_556 S
Li354 O415 1.970 . S
Li355 N405 1.991 . S
Li355 O413 1.938 1_556 S
Li355 O414 1.969 1_556 S
Li355 O415 1.978 . S
C356 C358 1.349 1_556 S
C356 C359 1.356 . S
C356 O412 1.324 . S
N357 C360 1.314 . S
N357 C361 1.279 1_554 S
C358 C356 1.349 1_554 S
C358 C360 1.353 . S
C358 H416 0.929 . S
C359 C356 1.356 . S
C359 C361 1.358 . S
C359 H417 0.930 . S
C360 N357 1.314 . S
C360 C358 1.353 . S
C360 H418 0.930 . S
C361 N357 1.279 1_556 S
C361 C359 1.358 . S
C361 H419 0.930 1_565 S
C362 C365 1.348 . S
C362 C366 1.356 . S
C362 O413 1.325 . S
C363 N364 1.279 . S
C363 C366 1.358 . S
C363 H420 0.930 . S
N364 C363 1.279 . S
N364 C367 1.314 . S
C365 C362 1.348 . S
C365 C367 1.353 . S
C365 H421 0.929 . S
C366 C362 1.356 . S
C366 C363 1.358 . S
C366 H422 0.930 . S
C367 N364 1.314 . S
C367 C365 1.353 . S
C367 H423 0.930 . S
C368 N369 1.314 . S
C368 C373 1.353 . S
C368 H374 0.930 . S
N369 Li352 1.990 . S
N369 C368 1.314 . S
N369 C371 1.279 . S
C370 C371 1.358 . S
C370 C372 1.356 . S
C370 H424 0.930 . S
C371 N369 1.279 . S
C371 C370 1.358 . S
C371 H375 0.930 . S
C372 C370 1.356 . S
C372 C373 1.348 . S
C373 C368 1.353 . S
C373 C372 1.348 . S
C373 H425 0.929 . S
H374 C368 0.930 . S
H375 C371 0.930 . S
C376 N377 1.314 1_556 S
C376 C378 1.353 . S
C376 H382 0.930 . S
N377 Li353 1.990 . S
N377 C376 1.314 1_554 S
N377 C380 1.279 . S
C378 C376 1.353 . S
C378 C381 1.345 1_556 S
C378 H426 0.929 . S
C379 C380 1.358 . S
C379 C381 1.359 . S
C379 H427 0.930 . S
C380 N377 1.279 . S
C380 C379 1.358 . S
C380 H383 0.930 . S
C381 C378 1.345 1_554 S
C381 C379 1.359 . S
H382 C376 0.930 . S
H383 C380 0.930 . S
C384 C386 1.346 1_554 S
C384 C387 1.357 . S
C384 O414 1.325 . S
N385 C388 1.313 1_655 S
N385 C389 1.279 1_656 S
C386 C384 1.346 1_556 S
C386 C388 1.358 . S
C386 H428 0.929 . S
C387 C384 1.357 . S
C387 C389 1.358 . S
C387 H429 0.930 . S
C388 N385 1.313 1_455 S
C388 C386 1.358 . S
C388 H430 0.926 1_455 S
C389 N385 1.279 1_454 S
C389 C387 1.358 . S
C389 H431 0.930 . S
C390 C391 1.348 . S
C390 C392 1.356 . S
C390 O415 1.325 . S
C391 C390 1.348 . S
C391 C393 1.353 . S
C391 H432 0.929 . S
C392 C390 1.356 . S
C392 C394 1.358 . S
C392 H433 0.930 . S
C393 C391 1.353 . S
C393 N395 1.314 . S
C393 H434 0.930 . S
C394 C392 1.358 . S
C394 N395 1.279 . S
C394 H435 0.930 . S
N395 C393 1.314 . S
N395 C394 1.279 . S
C396 C398 1.353 . S
C396 N399 1.314 . S
C396 H402 0.930 . S
C397 N399 1.279 . S
C397 C400 1.358 . S
C397 H403 0.930 . S
C398 C396 1.353 . S
C398 C401 1.348 . S
C398 H436 0.929 . S
N399 Li354 1.990 . S
N399 C396 1.314 . S
N399 C397 1.279 . S
C400 C397 1.358 . S
C400 C401 1.356 . S
C400 H437 0.930 . S
C401 C398 1.348 . S
C401 C400 1.356 . S
H402 C396 0.930 . S
H403 C397 0.930 . S
C404 N405 1.314 1_554 S
C404 C406 1.353 . S
C404 H410 0.930 . S
N405 Li355 1.991 . S
N405 C404 1.314 1_556 S
N405 C408 1.279 . S
C406 C404 1.353 . S
C406 C409 1.345 . S
C406 H438 0.929 . S
C407 C408 1.358 . S
C407 C409 1.359 1_556 S
C407 H439 0.930 . S
C408 N405 1.279 . S
C408 C407 1.358 . S
C408 H411 0.930 . S
C409 C406 1.345 . S
C409 C407 1.359 1_554 S
H410 C404 0.930 . S
H411 C408 0.930 . S
O412 Li352 1.935 1_556 S
O412 Li353 1.969 1_556 S
O412 Li354 1.981 . S
O412 C356 1.324 . S
O413 Li352 1.970 . S
O413 Li353 1.956 . S
O413 Li355 1.938 1_554 S
O413 C362 1.325 . S
O414 Li352 1.961 . S
O414 Li354 1.956 1_554 S
O414 Li355 1.969 1_554 S
O414 C384 1.325 . S
O415 Li353 1.961 1_556 S
O415 Li354 1.970 . S
O415 Li355 1.978 . S
O415 C390 1.325 . S
H416 C358 0.929 . S
H417 C359 0.930 . S
H418 C360 0.930 . S
H419 C361 0.930 1_545 S
H420 C363 0.930 . S
H421 C365 0.929 . S
H422 C366 0.930 . S
H423 C367 0.930 . S
H424 C370 0.930 . S
H425 C373 0.929 . S
H426 C378 0.929 . S
H427 C379 0.930 . S
H428 C386 0.929 . S
H429 C387 0.930 . S
H430 C388 0.926 1_655 S
H431 C389 0.930 . S
H432 C391 0.929 . S
H433 C392 0.930 . S
H434 C393 0.930 . S
H435 C394 0.930 . S
H436 C398 0.929 . S
H437 C400 0.930 . S
H438 C406 0.929 . S
H439 C407 0.930 . S
Li440 N457 1.990 . S
Li440 O500 1.956 . S
Li440 O501 1.969 1_554 S
Li440 O502 1.961 1_554 S
Li441 N465 1.990 . S
Li441 O500 1.970 . S
Li441 O501 1.935 1_554 S
Li441 O503 1.961 . S
Li442 N487 1.991 . S
Li442 O500 1.938 1_556 S
Li442 O502 1.978 . S
Li442 O503 1.969 1_556 S
Li443 N493 1.990 . S
Li443 O501 1.981 . S
Li443 O502 1.970 . S
Li443 O503 1.956 1_556 S
C444 C446 1.348 . S
C444 C447 1.356 . S
C444 O500 1.325 . S
N445 C448 1.314 . S
N445 C449 1.279 . S
C446 C444 1.348 . S
C446 C448 1.353 . S
C446 H504 0.929 . S
C447 C444 1.356 . S
C447 C449 1.358 . S
C447 H505 0.930 . S
C448 N445 1.314 . S
C448 C446 1.353 . S
C448 H506 0.930 . S
C449 N445 1.279 . S
C449 C447 1.358 . S
C449 H507 0.930 . S
C450 C453 1.349 1_556 S
C450 C454 1.356 . S
C450 O501 1.324 . S
C451 N452 1.279 1_556 S
C451 C454 1.358 . S
C451 H508 0.930 1_545 S
N452 C451 1.279 1_554 S
N452 C455 1.314 . S
C453 C450 1.349 1_554 S
C453 C455 1.353 . S
C453 H509 0.929 . S
C454 C450 1.356 . S
C454 C451 1.358 . S
C454 H510 0.930 . S
C455 N452 1.314 . S
C455 C453 1.353 . S
C455 H511 0.930 . S
C456 N457 1.314 1_556 S
C456 C461 1.353 . S
C456 H462 0.930 . S
N457 Li440 1.990 . S
N457 C456 1.314 1_554 S
N457 C459 1.279 . S
C458 C459 1.358 . S
C458 C460 1.359 . S
C458 H512 0.930 . S
C459 N457 1.279 . S
C459 C458 1.358 . S
C459 H463 0.930 . S
C460 C458 1.359 . S
C460 C461 1.345 1_554 S
C461 C456 1.353 . S
C461 C460 1.345 1_556 S
C461 H513 0.929 . S
H462 C456 0.930 . S
H463 C459 0.930 . S
C464 N465 1.314 . S
C464 C466 1.353 . S
C464 H470 0.930 . S
N465 Li441 1.990 . S
N465 C464 1.314 . S
N465 C468 1.279 . S
C466 C464 1.353 . S
C466 C469 1.348 . S
C466 H514 0.929 . S
C467 C468 1.358 . S
C467 C469 1.356 . S
C467 H515 0.930 . S
C468 N465 1.279 . S
C468 C467 1.358 . S
C468 H471 0.930 . S
C469 C466 1.348 . S
C469 C467 1.356 . S
H470 C464 0.930 . S
H471 C468 0.930 . S
C472 C474 1.348 . S
C472 C475 1.356 . S
C472 O502 1.325 . S
N473 C476 1.314 . S
N473 C477 1.279 . S
C474 C472 1.348 . S
C474 C476 1.353 . S
C474 H516 0.929 . S
C475 C472 1.356 . S
C475 C477 1.358 . S
C475 H517 0.930 . S
C476 N473 1.314 . S
C476 C474 1.353 . S
C476 H518 0.930 . S
C477 N473 1.279 . S
C477 C475 1.358 . S
C477 H519 0.930 . S
C478 C479 1.346 1_554 S
C478 C480 1.357 . S
C478 O503 1.325 . S
C479 C478 1.346 1_556 S
C479 C481 1.358 . S
C479 H520 0.929 . S
C480 C478 1.357 . S
C480 C482 1.358 . S
C480 H521 0.930 . S
C481 C479 1.358 . S
C481 N483 1.313 1_655 S
C481 H522 0.926 1_655 S
C482 C480 1.358 . S
C482 N483 1.279 1_654 S
C482 H523 0.930 . S
N483 C481 1.313 1_455 S
N483 C482 1.279 1_456 S
C484 C486 1.353 . S
C484 N487 1.314 1_554 S
C484 H490 0.930 . S
C485 N487 1.279 . S
C485 C488 1.358 . S
C485 H491 0.930 . S
C486 C484 1.353 . S
C486 C489 1.345 . S
C486 H524 0.929 . S
N487 Li442 1.991 . S
N487 C484 1.314 1_556 S
N487 C485 1.279 . S
C488 C485 1.358 . S
C488 C489 1.359 1_556 S
C488 H525 0.930 . S
C489 C486 1.345 . S
C489 C488 1.359 1_554 S
H490 C484 0.930 . S
H491 C485 0.930 . S
C492 N493 1.314 . S
C492 C494 1.353 . S
C492 H498 0.930 . S
N493 Li443 1.990 . S
N493 C492 1.314 . S
N493 C496 1.279 . S
C494 C492 1.353 . S
C494 C497 1.348 . S
C494 H526 0.929 . S
C495 C496 1.358 . S
C495 C497 1.356 . S
C495 H527 0.930 . S
C496 N493 1.279 . S
C496 C495 1.358 . S
C496 H499 0.930 . S
C497 C494 1.348 . S
C497 C495 1.356 . S
H498 C492 0.930 . S
H499 C496 0.930 . S
O500 Li440 1.956 . S
O500 Li441 1.970 . S
O500 Li442 1.938 1_554 S
O500 C444 1.325 . S
O501 Li440 1.969 1_556 S
O501 Li441 1.935 1_556 S
O501 Li443 1.981 . S
O501 C450 1.324 . S
O502 Li440 1.961 1_556 S
O502 Li442 1.978 . S
O502 Li443 1.970 . S
O502 C472 1.325 . S
O503 Li441 1.961 . S
O503 Li442 1.969 1_554 S
O503 Li443 1.956 1_554 S
O503 C478 1.325 . S
H504 C446 0.929 . S
H505 C447 0.930 . S
H506 C448 0.930 . S
H507 C449 0.930 . S
H508 C451 0.930 1_565 S
H509 C453 0.929 . S
H510 C454 0.930 . S
H511 C455 0.930 . S
H512 C458 0.930 . S
H513 C461 0.929 . S
H514 C466 0.929 . S
H515 C467 0.930 . S
H516 C474 0.929 . S
H517 C475 0.930 . S
H518 C476 0.930 . S
H519 C477 0.930 . S
H520 C479 0.929 . S
H521 C480 0.930 . S
H522 C481 0.926 1_455 S
H523 C482 0.930 . S
H524 C486 0.929 . S
H525 C488 0.930 . S
H526 C494 0.929 . S
H527 C495 0.930 . S
Li528 N545 1.990 . S
Li528 O588 1.956 . S
Li528 O589 1.970 . S
Li528 O590 1.961 . S
Li529 N553 1.990 . S
Li529 O588 1.970 . S
Li529 O589 1.956 . S
Li529 O591 1.961 . S
Li530 N575 1.990 . S
Li530 O588 1.961 . S
Li530 O590 1.956 . S
Li530 O591 1.970 . S
Li531 N581 1.990 . S
Li531 O589 1.961 . S
Li531 O590 1.970 . S
Li531 O591 1.956 . S
C532 C534 1.348 . S
C532 C535 1.356 . S
C532 O588 1.325 . S
N533 C536 1.314 . S
N533 C537 1.279 . S
C534 C532 1.348 . S
C534 C536 1.353 . S
C534 H592 0.929 . S
C535 C532 1.356 . S
C535 C537 1.358 . S
C535 H593 0.930 . S
C536 N533 1.314 . S
C536 C534 1.353 . S
C536 H594 0.930 . S
C537 N533 1.279 . S
C537 C535 1.358 . S
C537 H595 0.930 . S
C538 C541 1.348 . S
C538 C542 1.356 . S
C538 O589 1.325 . S
C539 N540 1.279 1_455 S
C539 C542 1.358 . S
C539 H596 0.930 . S
N540 C539 1.279 1_655 S
N540 C543 1.313 1_655 S
C541 C538 1.348 . S
C541 C543 1.358 . S
C541 H597 0.929 . S
C542 C538 1.356 . S
C542 C539 1.358 . S
C542 H598 0.930 . S
C543 N540 1.313 1_455 S
C543 C541 1.358 . S
C543 H599 0.926 1_455 S
C544 N545 1.314 . S
C544 C549 1.353 . S
C544 H550 0.930 . S
N545 Li528 1.990 . S
N545 C544 1.314 . S
N545 C547 1.279 . S
C546 C547 1.358 . S
C546 C548 1.356 . S
C546 H600 0.930 . S
C547 N545 1.279 . S
C547 C546 1.358 . S
C547 H551 0.930 . S
C548 C546 1.356 . S
C548 C549 1.348 . S
C549 C544 1.353 . S
C549 C548 1.348 . S
C549 H601 0.929 . S
H550 C544 0.930 . S
H551 C547 0.930 . S
C552 N553 1.314 . S
C552 C554 1.353 . S
C552 H558 0.930 . S
N553 Li529 1.990 . S
N553 C552 1.314 . S
N553 C556 1.279 . S
C554 C552 1.353 . S
C554 C557 1.348 . S
C554 H602 0.929 . S
C555 C556 1.358 . S
C555 C557 1.356 . S
C555 H603 0.930 . S
C556 N553 1.279 . S
C556 C555 1.358 . S
C556 H559 0.930 . S
C557 C554 1.348 . S
C557 C555 1.356 . S
H558 C552 0.930 . S
H559 C556 0.930 . S
C560 C562 1.348 . S
C560 C563 1.356 . S
C560 O590 1.325 . S
N561 C564 1.314 . S
N561 C565 1.279 . S
C562 C560 1.348 . S
C562 C564 1.353 . S
C562 H604 0.929 . S
C563 C560 1.356 . S
C563 C565 1.358 . S
C563 H605 0.930 . S
C564 N561 1.314 . S
C564 C562 1.353 . S
C564 H606 0.930 . S
C565 N561 1.279 . S
C565 C563 1.358 . S
C565 H607 0.930 . S
C566 C567 1.348 . S
C566 C568 1.356 . S
C566 O591 1.325 . S
C567 C566 1.348 . S
C567 C569 1.353 . S
C567 H608 0.929 . S
C568 C566 1.356 . S
C568 C570 1.358 . S
C568 H609 0.930 . S
C569 C567 1.353 . S
C569 N571 1.314 . S
C569 H610 0.930 . S
C570 C568 1.358 . S
C570 N571 1.279 . S
C570 H611 0.930 1_545 S
N571 C569 1.314 . S
N571 C570 1.279 . S
C572 C574 1.353 . S
C572 N575 1.314 . S
C572 H578 0.930 . S
C573 N575 1.279 . S
C573 C576 1.358 . S
C573 H579 0.930 . S
C574 C572 1.353 . S
C574 C577 1.348 . S
C574 H612 0.929 . S
N575 Li530 1.990 . S
N575 C572 1.314 . S
N575 C573 1.279 . S
C576 C573 1.358 . S
C576 C577 1.356 . S
C576 H613 0.930 . S
C577 C574 1.348 . S
C577 C576 1.356 . S
H578 C572 0.930 . S
H579 C573 0.930 . S
C580 N581 1.314 . S
C580 C582 1.353 . S
C580 H586 0.930 . S
N581 Li531 1.990 . S
N581 C580 1.314 . S
N581 C584 1.279 . S
C582 C580 1.353 . S
C582 C585 1.348 . S
C582 H614 0.929 . S
C583 C584 1.358 . S
C583 C585 1.356 . S
C583 H615 0.930 . S
C584 N581 1.279 . S
C584 C583 1.358 . S
C584 H587 0.930 . S
C585 C582 1.348 . S
C585 C583 1.356 . S
H586 C580 0.930 . S
H587 C584 0.930 . S
O588 Li528 1.956 . S
O588 Li529 1.970 . S
O588 Li530 1.961 . S
O588 C532 1.325 . S
O589 Li528 1.970 . S
O589 Li529 1.956 . S
O589 Li531 1.961 . S
O589 C538 1.325 . S
O590 Li528 1.961 . S
O590 Li530 1.956 . S
O590 Li531 1.970 . S
O590 C560 1.325 . S
O591 Li529 1.961 . S
O591 Li530 1.970 . S
O591 Li531 1.956 . S
O591 C566 1.325 . S
H592 C534 0.929 . S
H593 C535 0.930 . S
H594 C536 0.930 . S
H595 C537 0.930 . S
H596 C539 0.930 . S
H597 C541 0.929 . S
H598 C542 0.930 . S
H599 C543 0.926 1_655 S
H600 C546 0.930 . S
H601 C549 0.929 . S
H602 C554 0.929 . S
H603 C555 0.930 . S
H604 C562 0.929 . S
H605 C563 0.930 . S
H606 C564 0.930 . S
H607 C565 0.930 . S
H608 C567 0.929 . S
H609 C568 0.930 . S
H610 C569 0.930 . S
H611 C570 0.930 1_565 S
H612 C574 0.929 . S
H613 C576 0.930 . S
H614 C582 0.929 . S
H615 C583 0.930 . S
Li616 N633 1.990 . S
Li616 O676 1.956 . S
Li616 O677 1.970 . S
Li616 O678 1.961 . S
Li617 N641 1.990 . S
Li617 O676 1.970 . S
Li617 O677 1.956 . S
Li617 O679 1.961 . S
Li618 N663 1.990 . S
Li618 O676 1.961 . S
Li618 O678 1.956 . S
Li618 O679 1.970 . S
Li619 N669 1.990 . S
Li619 O677 1.961 . S
Li619 O678 1.970 . S
Li619 O679 1.956 . S
C620 C622 1.348 . S
C620 C623 1.356 . S
C620 O676 1.325 . S
N621 C624 1.313 1_455 S
N621 C625 1.279 1_455 S
C622 C620 1.348 . S
C622 C624 1.358 . S
C622 H680 0.929 . S
C623 C620 1.356 . S
C623 C625 1.358 . S
C623 H681 0.930 . S
C624 N621 1.313 1_655 S
C624 C622 1.358 . S
C624 H682 0.926 1_655 S
C625 N621 1.279 1_655 S
C625 C623 1.358 . S
C625 H683 0.930 . S
C626 C629 1.348 . S
C626 C630 1.356 . S
C626 O677 1.325 . S
C627 N628 1.279 . S
C627 C630 1.358 . S
C627 H684 0.930 . S
N628 C627 1.279 . S
N628 C631 1.314 . S
C629 C626 1.348 . S
C629 C631 1.353 . S
C629 H685 0.929 . S
C630 C626 1.356 . S
C630 C627 1.358 . S
C630 H686 0.930 . S
C631 N628 1.314 . S
C631 C629 1.353 . S
C631 H687 0.930 . S
C632 N633 1.314 . S
C632 C637 1.353 . S
C632 H638 0.930 . S
N633 Li616 1.990 . S
N633 C632 1.314 . S
N633 C635 1.279 . S
C634 C635 1.358 . S
C634 C636 1.356 . S
C634 H688 0.930 . S
C635 N633 1.279 . S
C635 C634 1.358 . S
C635 H639 0.930 . S
C636 C634 1.356 . S
C636 C637 1.348 . S
C637 C632 1.353 . S
C637 C636 1.348 . S
C637 H689 0.929 . S
H638 C632 0.930 . S
H639 C635 0.930 . S
C640 N641 1.314 . S
C640 C642 1.353 . S
C640 H646 0.930 . S
N641 Li617 1.990 . S
N641 C640 1.314 . S
N641 C644 1.279 . S
C642 C640 1.353 . S
C642 C645 1.348 . S
C642 H690 0.929 . S
C643 C644 1.358 . S
C643 C645 1.356 . S
C643 H691 0.930 . S
C644 N641 1.279 . S
C644 C643 1.358 . S
C644 H647 0.930 . S
C645 C642 1.348 . S
C645 C643 1.356 . S
H646 C640 0.930 . S
H647 C644 0.930 . S
C648 C650 1.348 . S
C648 C651 1.356 . S
C648 O678 1.325 . S
N649 C652 1.314 . S
N649 C653 1.279 . S
C650 C648 1.348 . S
C650 C652 1.353 . S
C650 H692 0.929 . S
C651 C648 1.356 . S
C651 C653 1.358 . S
C651 H693 0.930 . S
C652 N649 1.314 . S
C652 C650 1.353 . S
C652 H694 0.930 . S
C653 N649 1.279 . S
C653 C651 1.358 . S
C653 H695 0.930 1_565 S
C654 C655 1.348 . S
C654 C656 1.356 . S
C654 O679 1.325 . S
C655 C654 1.348 . S
C655 C657 1.353 . S
C655 H696 0.929 . S
C656 C654 1.356 . S
C656 C658 1.358 . S
C656 H697 0.930 . S
C657 C655 1.353 . S
C657 N659 1.314 . S
C657 H698 0.930 . S
C658 C656 1.358 . S
C658 N659 1.279 . S
C658 H699 0.930 . S
N659 C657 1.314 . S
N659 C658 1.279 . S
C660 C662 1.353 . S
C660 N663 1.314 . S
C660 H666 0.930 . S
C661 N663 1.279 . S
C661 C664 1.358 . S
C661 H667 0.930 . S
C662 C660 1.353 . S
C662 C665 1.348 . S
C662 H700 0.929 . S
N663 Li618 1.990 . S
N663 C660 1.314 . S
N663 C661 1.279 . S
C664 C661 1.358 . S
C664 C665 1.356 . S
C664 H701 0.930 . S
C665 C662 1.348 . S
C665 C664 1.356 . S
H666 C660 0.930 . S
H667 C661 0.930 . S
C668 N669 1.314 . S
C668 C670 1.353 . S
C668 H674 0.930 . S
N669 Li619 1.990 . S
N669 C668 1.314 . S
N669 C672 1.279 . S
C670 C668 1.353 . S
C670 C673 1.348 . S
C670 H702 0.929 . S
C671 C672 1.358 . S
C671 C673 1.356 . S
C671 H703 0.930 . S
C672 N669 1.279 . S
C672 C671 1.358 . S
C672 H675 0.930 . S
C673 C670 1.348 . S
C673 C671 1.356 . S
H674 C668 0.930 . S
H675 C672 0.930 . S
O676 Li616 1.956 . S
O676 Li617 1.970 . S
O676 Li618 1.961 . S
O676 C620 1.325 . S
O677 Li616 1.970 . S
O677 Li617 1.956 . S
O677 Li619 1.961 . S
O677 C626 1.325 . S
O678 Li616 1.961 . S
O678 Li618 1.956 . S
O678 Li619 1.970 . S
O678 C648 1.325 . S
O679 Li617 1.961 . S
O679 Li618 1.970 . S
O679 Li619 1.956 . S
O679 C654 1.325 . S
H680 C622 0.929 . S
H681 C623 0.930 . S
H682 C624 0.926 1_455 S
H683 C625 0.930 . S
H684 C627 0.930 . S
H685 C629 0.929 . S
H686 C630 0.930 . S
H687 C631 0.930 . S
H688 C634 0.930 . S
H689 C637 0.929 . S
H690 C642 0.929 . S
H691 C643 0.930 . S
H692 C650 0.929 . S
H693 C651 0.930 . S
H694 C652 0.930 . S
H695 C653 0.930 1_545 S
H696 C655 0.929 . S
H697 C656 0.930 . S
H698 C657 0.930 . S
H699 C658 0.930 . S
H700 C662 0.929 . S
H701 C664 0.930 . S
H702 C670 0.929 . S
H703 C671 0.930 . S
H704 C710 0.930 . S
H705 C713 0.930 . S
H706 C714 0.930 . S
H707 C715 0.930 . S
H708 C718 0.930 . S
H709 C719 0.930 . S
C710 H704 0.930 . S
C710 C711 1.355 1_556 S
C710 C712 1.415 . S
C711 C710 1.355 1_554 S
C711 C713 1.419 . S
C712 C710 1.415 . S
C712 C717 1.425 1_556 S
C712 C719 1.409 . S
C713 H705 0.930 . S
C713 C711 1.419 . S
C713 C714 1.362 . S
C714 H706 0.930 . S
C714 C713 1.362 . S
C714 C717 1.409 . S
C715 H707 0.930 . S
C715 C716 1.355 1_554 S
C715 C717 1.415 . S
C716 C715 1.355 1_556 S
C716 C718 1.419 . S
C717 C712 1.425 1_554 S
C717 C714 1.409 . S
C717 C715 1.415 . S
C718 H708 0.930 . S
C718 C716 1.419 . S
C718 C719 1.362 . S
C719 H709 0.930 . S
C719 C712 1.409 . S
C719 C718 1.362 . S
H720 C726 0.930 . S
H721 C729 0.930 . S
H722 C730 0.930 . S
H723 C731 0.930 . S
H724 C734 0.930 . S
H725 C735 0.930 . S
C726 H720 0.930 . S
C726 C727 1.355 1_556 S
C726 C728 1.415 . S
C727 C726 1.355 1_554 S
C727 C729 1.419 . S
C728 C726 1.415 . S
C728 C733 1.425 1_556 S
C728 C735 1.409 . S
C729 H721 0.930 . S
C729 C727 1.419 . S
C729 C730 1.362 . S
C730 H722 0.930 . S
C730 C729 1.362 . S
C730 C733 1.409 . S
C731 H723 0.930 . S
C731 C732 1.355 1_554 S
C731 C733 1.415 . S
C732 C731 1.355 1_556 S
C732 C734 1.419 . S
C733 C728 1.425 1_554 S
C733 C730 1.409 . S
C733 C731 1.415 . S
C734 H724 0.930 . S
C734 C732 1.419 . S
C734 C735 1.362 . S
C735 H725 0.930 . S
C735 C728 1.409 . S
C735 C734 1.362 . S
H736 C742 0.930 . S
H737 C745 0.930 . S
H738 C746 0.930 . S
H739 C747 0.930 . S
H740 C750 0.930 . S
H741 C751 0.930 . S
C742 H736 0.930 . S
C742 C743 1.355 . S
C742 C744 1.415 . S
C743 C742 1.355 . S
C743 C745 1.419 . S
C744 C742 1.415 . S
C744 C749 1.425 . S
C744 C751 1.409 . S
C745 H737 0.930 . S
C745 C743 1.419 . S
C745 C746 1.362 . S
C746 H738 0.930 . S
C746 C745 1.362 . S
C746 C749 1.409 . S
C747 H739 0.930 . S
C747 C748 1.355 . S
C747 C749 1.415 . S
C748 C747 1.355 . S
C748 C750 1.419 . S
C749 C744 1.425 . S
C749 C746 1.409 . S
C749 C747 1.415 . S
C750 H740 0.930 . S
C750 C748 1.419 . S
C750 C751 1.362 . S
C751 H741 0.930 . S
C751 C744 1.409 . S
C751 C750 1.362 . S
H752 C758 0.930 . S
H753 C761 0.930 . S
H754 C762 0.930 . S
H755 C763 0.930 . S
H756 C766 0.930 . S
H757 C767 0.930 . S
C758 H752 0.930 . S
C758 C759 1.355 . S
C758 C760 1.415 . S
C759 C758 1.355 . S
C759 C761 1.419 . S
C760 C758 1.415 . S
C760 C765 1.425 . S
C760 C767 1.409 . S
C761 H753 0.930 . S
C761 C759 1.419 . S
C761 C762 1.362 . S
C762 H754 0.930 . S
C762 C761 1.362 . S
C762 C765 1.409 . S
C763 H755 0.930 . S
C763 C764 1.355 . S
C763 C765 1.415 . S
C764 C763 1.355 . S
C764 C766 1.419 . S
C765 C760 1.425 . S
C765 C762 1.409 . S
C765 C763 1.415 . S
C766 H756 0.930 . S
C766 C764 1.419 . S
C766 C767 1.362 . S
C767 H757 0.930 . S
C767 C760 1.409 . S
C767 C766 1.362 . S
H768 C774 0.930 . S
H769 C777 0.930 . S
H770 C778 0.930 . S
H771 C779 0.930 . S
H772 C782 0.930 . S
H773 C783 0.930 . S
C774 H768 0.930 . S
C774 C775 1.355 . S
C774 C776 1.415 . S
C775 C774 1.355 . S
C775 C777 1.419 . S
C776 C774 1.415 . S
C776 C781 1.425 . S
C776 C783 1.409 . S
C777 H769 0.930 . S
C777 C775 1.419 . S
C777 C778 1.362 . S
C778 H770 0.930 . S
C778 C777 1.362 . S
C778 C781 1.409 . S
C779 H771 0.930 . S
C779 C780 1.355 . S
C779 C781 1.415 . S
C780 C779 1.355 . S
C780 C782 1.419 . S
C781 C776 1.425 . S
C781 C778 1.409 . S
C781 C779 1.415 . S
C782 H772 0.930 . S
C782 C780 1.419 . S
C782 C783 1.362 . S
C783 H773 0.930 . S
C783 C776 1.409 . S
C783 C782 1.362 . S
H784 C790 0.930 . S
H785 C793 0.930 . S
H786 C794 0.930 . S
H787 C795 0.930 . S
H788 C798 0.930 . S
H789 C799 0.930 . S
C790 H784 0.930 . S
C790 C791 1.355 . S
C790 C792 1.415 . S
C791 C790 1.355 . S
C791 C793 1.419 . S
C792 C790 1.415 . S
C792 C797 1.425 . S
C792 C799 1.409 . S
C793 H785 0.930 . S
C793 C791 1.419 . S
C793 C794 1.362 . S
C794 H786 0.930 . S
C794 C793 1.362 . S
C794 C797 1.409 . S
C795 H787 0.930 . S
C795 C796 1.355 . S
C795 C797 1.415 . S
C796 C795 1.355 . S
C796 C798 1.419 . S
C797 C792 1.425 . S
C797 C794 1.409 . S
C797 C795 1.415 . S
C798 H788 0.930 . S
C798 C796 1.419 . S
C798 C799 1.362 . S
C799 H789 0.930 . S
C799 C792 1.409 . S
C799 C798 1.362 . S
H800 C806 0.930 . S
H801 C809 0.930 . S
H802 C810 0.930 . S
H803 C811 0.930 . S
H804 C814 0.930 . S
H805 C815 0.930 . S
C806 H800 0.930 . S
C806 C807 1.355 . S
C806 C808 1.415 . S
C807 C806 1.355 . S
C807 C809 1.419 . S
C808 C806 1.415 . S
C808 C813 1.425 . S
C808 C815 1.409 . S
C809 H801 0.930 . S
C809 C807 1.419 . S
C809 C810 1.362 . S
C810 H802 0.930 . S
C810 C809 1.362 . S
C810 C813 1.409 . S
C811 H803 0.930 . S
C811 C812 1.355 . S
C811 C813 1.415 . S
C812 C811 1.355 . S
C812 C814 1.419 . S
C813 C808 1.425 . S
C813 C810 1.409 . S
C813 C811 1.415 . S
C814 H804 0.930 . S
C814 C812 1.419 . S
C814 C815 1.362 . S
C815 H805 0.930 . S
C815 C808 1.409 . S
C815 C814 1.362 . S
H816 C822 0.930 . S
H817 C825 0.930 . S
H818 C826 0.930 . S
H819 C827 0.930 . S
H820 C830 0.930 . S
H821 C831 0.930 . S
C822 H816 0.930 . S
C822 C823 1.355 . S
C822 C824 1.415 . S
C823 C822 1.355 . S
C823 C825 1.419 . S
C824 C822 1.415 . S
C824 C829 1.425 . S
C824 C831 1.409 . S
C825 H817 0.930 . S
C825 C823 1.419 . S
C825 C826 1.362 . S
C826 H818 0.930 . S
C826 C825 1.362 . S
C826 C829 1.409 . S
C827 H819 0.930 . S
C827 C828 1.355 . S
C827 C829 1.415 . S
C828 C827 1.355 . S
C828 C830 1.419 . S
C829 C824 1.425 . S
C829 C826 1.409 . S
C829 C827 1.415 . S
C830 H820 0.930 . S
C830 C828 1.419 . S
C830 C831 1.362 . S
C831 H821 0.930 . S
C831 C824 1.409 . S
C831 C830 1.362 . S
H832 C838 0.942 . S
H833 C841 0.930 . S
H834 C842 0.930 . S
H835 C843 0.943 . S
H836 C846 0.930 . S
H837 C847 0.930 . S
C838 H832 0.942 . S
C838 C839 1.336 1_545 S
C838 C840 1.421 . S
C839 C838 1.336 1_565 S
C839 C841 1.419 . S
C840 C838 1.421 . S
C840 C845 1.425 1_545 S
C840 C847 1.409 . S
C841 H833 0.930 . S
C841 C839 1.419 . S
C841 C842 1.362 . S
C842 H834 0.930 . S
C842 C841 1.362 . S
C842 C845 1.409 . S
C843 H835 0.943 . S
C843 C844 1.336 1_565 S
C843 C845 1.421 . S
C844 C843 1.336 1_545 S
C844 C846 1.419 . S
C845 C840 1.425 1_565 S
C845 C842 1.409 . S
C845 C843 1.421 . S
C846 H836 0.930 . S
C846 C844 1.419 . S
C846 C847 1.362 . S
C847 H837 0.930 . S
C847 C840 1.409 . S
C847 C846 1.362 . S
H848 C854 0.930 . S
H849 C857 0.930 . S
H850 C858 0.930 . S
H851 C859 0.930 . S
H852 C862 0.930 . S
H853 C863 0.930 . S
C854 H848 0.930 . S
C854 C855 1.355 . S
C854 C856 1.415 . S
C855 C854 1.355 . S
C855 C857 1.419 1_565 S
C856 C854 1.415 . S
C856 C861 1.425 1_565 S
C856 C863 1.409 . S
C857 H849 0.930 . S
C857 C855 1.419 1_545 S
C857 C858 1.362 . S
C858 H850 0.930 . S
C858 C857 1.362 . S
C858 C861 1.409 . S
C859 H851 0.930 . S
C859 C860 1.355 . S
C859 C861 1.415 . S
C860 C859 1.355 . S
C860 C862 1.419 1_545 S
C861 C856 1.425 1_545 S
C861 C858 1.409 . S
C861 C859 1.415 . S
C862 H852 0.930 . S
C862 C860 1.419 1_565 S
C862 C863 1.362 . S
C863 H853 0.930 . S
C863 C856 1.409 . S
C863 C862 1.362 . S
H864 C870 0.930 . S
H865 C873 0.930 . S
H866 C874 0.930 1_545 S
H867 C875 0.930 . S
H868 C878 0.930 . S
H869 C879 0.930 1_565 S
C870 H864 0.930 . S
C870 C871 1.355 . S
C870 C872 1.415 . S
C871 C870 1.355 . S
C871 C873 1.419 . S
C872 C870 1.415 . S
C872 C877 1.425 1_565 S
C872 C879 1.409 1_565 S
C873 H865 0.930 . S
C873 C871 1.419 . S
C873 C874 1.362 . S
C874 H866 0.930 1_565 S
C874 C873 1.362 . S
C874 C877 1.409 1_565 S
C875 H867 0.930 . S
C875 C876 1.355 . S
C875 C877 1.415 . S
C876 C875 1.355 . S
C876 C878 1.419 . S
C877 C872 1.425 1_545 S
C877 C874 1.409 1_545 S
C877 C875 1.415 . S
C878 H868 0.930 . S
C878 C876 1.419 . S
C878 C879 1.362 . S
C879 H869 0.930 1_545 S
C879 C872 1.409 1_545 S
C879 C878 1.362 . S
H880 C886 0.930 . S
H881 C889 0.930 . S
H882 C890 0.930 . S
H883 C891 0.930 . S
H884 C894 0.930 . S
H885 C895 0.930 . S
C886 H880 0.930 . S
C886 C887 1.355 . S
C886 C888 1.415 . S
C887 C886 1.355 . S
C887 C889 1.419 1_565 S
C888 C886 1.415 . S
C888 C893 1.425 1_565 S
C888 C895 1.409 . S
C889 H881 0.930 . S
C889 C887 1.419 1_545 S
C889 C890 1.362 . S
C890 H882 0.930 . S
C890 C889 1.362 . S
C890 C893 1.409 . S
C891 H883 0.930 . S
C891 C892 1.355 . S
C891 C893 1.415 . S
C892 C891 1.355 . S
C892 C894 1.419 1_545 S
C893 C888 1.425 1_545 S
C893 C890 1.409 . S
C893 C891 1.415 . S
C894 H884 0.930 . S
C894 C892 1.419 1_565 S
C894 C895 1.362 . S
C895 H885 0.930 . S
C895 C888 1.409 . S
C895 C894 1.362 . S
H896 C902 0.930 . S
H897 C905 0.930 . S
H898 C906 0.930 1_545 S
H899 C907 0.930 . S
H900 C910 0.930 . S
H901 C911 0.930 1_565 S
C902 H896 0.930 . S
C902 C903 1.355 1_554 S
C902 C904 1.415 . S
C903 C902 1.355 1_556 S
C903 C905 1.419 . S
C904 C902 1.415 . S
C904 C909 1.425 1_564 S
C904 C911 1.409 1_565 S
C905 H897 0.930 . S
C905 C903 1.419 . S
C905 C906 1.362 . S
C906 H898 0.930 1_565 S
C906 C905 1.362 . S
C906 C909 1.409 1_565 S
C907 H899 0.930 . S
C907 C908 1.355 1_556 S
C907 C909 1.415 . S
C908 C907 1.355 1_554 S
C908 C910 1.419 . S
C909 C904 1.425 1_546 S
C909 C906 1.409 1_545 S
C909 C907 1.415 . S
C910 H900 0.930 . S
C910 C908 1.419 . S
C910 C911 1.362 . S
C911 H901 0.930 1_545 S
C911 C904 1.409 1_545 S
C911 C910 1.362 . S
H912 C918 0.930 . S
H913 C921 0.930 . S
H914 C922 0.930 1_545 S
H915 C923 0.930 . S
H916 C926 0.930 . S
H917 C927 0.930 1_565 S
C918 H912 0.930 . S
C918 C919 1.355 . S
C918 C920 1.415 . S
C919 C918 1.355 . S
C919 C921 1.419 . S
C920 C918 1.415 . S
C920 C925 1.425 1_565 S
C920 C927 1.409 1_565 S
C921 H913 0.930 . S
C921 C919 1.419 . S
C921 C922 1.362 . S
C922 H914 0.930 1_565 S
C922 C921 1.362 . S
C922 C925 1.409 1_565 S
C923 H915 0.930 . S
C923 C924 1.355 . S
C923 C925 1.415 . S
C924 C923 1.355 . S
C924 C926 1.419 . S
C925 C920 1.425 1_545 S
C925 C922 1.409 1_545 S
C925 C923 1.415 . S
C926 H916 0.930 . S
C926 C924 1.419 . S
C926 C927 1.362 . S
C927 H917 0.930 1_545 S
C927 C920 1.409 1_545 S
C927 C926 1.362 . S
H928 C934 0.930 . S
H929 C937 0.930 . S
H930 C938 0.930 . S
H931 C939 0.930 . S
H932 C942 0.930 . S
H933 C943 0.930 . S
C934 H928 0.930 . S
C934 C935 1.355 1_554 S
C934 C936 1.415 . S
C935 C934 1.355 1_556 S
C935 C937 1.419 1_455 S
C936 C934 1.415 . S
C936 C941 1.425 1_454 S
C936 C943 1.409 . S
C937 H929 0.930 . S
C937 C935 1.419 1_655 S
C937 C938 1.362 . S
C938 H930 0.930 . S
C938 C937 1.362 . S
C938 C941 1.409 . S
C939 H931 0.930 . S
C939 C940 1.355 1_556 S
C939 C941 1.415 . S
C940 C939 1.355 1_554 S
C940 C942 1.419 1_655 S
C941 C936 1.425 1_656 S
C941 C938 1.409 . S
C941 C939 1.415 . S
C942 H932 0.930 . S
C942 C940 1.419 1_455 S
C942 C943 1.362 . S
C943 H933 0.930 . S
C943 C936 1.409 . S
C943 C942 1.362 . S
H944 C950 0.930 . S
H945 C953 0.930 . S
H946 C954 0.930 . S
H947 C955 0.930 . S
H948 C958 0.930 . S
H949 C959 0.930 . S
C950 H944 0.930 . S
C950 C951 1.355 . S
C950 C952 1.415 . S
C951 C950 1.355 . S
C951 C953 1.419 1_455 S
C952 C950 1.415 . S
C952 C957 1.425 1_455 S
C952 C959 1.409 . S
C953 H945 0.930 . S
C953 C951 1.419 1_655 S
C953 C954 1.362 . S
C954 H946 0.930 . S
C954 C953 1.362 . S
C954 C957 1.409 . S
C955 H947 0.930 . S
C955 C956 1.355 . S
C955 C957 1.415 . S
C956 C955 1.355 . S
C956 C958 1.419 1_655 S
C957 C952 1.425 1_655 S
C957 C954 1.409 . S
C957 C955 1.415 . S
C958 H948 0.930 . S
C958 C956 1.419 1_455 S
C958 C959 1.362 . S
C959 H949 0.930 . S
C959 C952 1.409 . S
C959 C958 1.362 . S
C711 C460 1.585 . S
C716 C29 1.586 1_556 S
C727 C381 1.562 . S
C732 C108 1.563 1_556 S
C743 C673 1.588 . S
C748 C225 1.587 . S
C759 C577 1.561 . S
C764 C321 1.561 . S
C775 C20 1.380 . S
C780 C233 1.353 . S
C791 C117 1.366 . S
C796 C313 1.372 . S
C807 C145 1.364 . S
C812 C284 1.351 . S
C823 C49 1.374 . S
C828 C205 1.370 . S
C839 C372 1.347 . S
C844 C585 1.366 . S
C855 C665 1.371 . S
C860 C469 1.368 . S
C871 C636 1.348 . S
C876 C497 1.376 . S
C887 C401 1.363 . S
C892 C557 1.379 . S
C903 C137 1.584 1_556 S
C908 C57 1.584 . S
C919 C196 1.584 . S
C924 C293 1.584 . S
C935 C409 1.610 1_556 S
C940 C489 1.611 . S
C951 C548 1.618 . S
C956 C645 1.620 . S
