# Generated by pormake.
# Topology ech, (8)-cn, num edge types: 1
# Building blocks:
#     Node 0, Type 0, BuildingBlock: EBIMEJ_clean_sbu_0, # of connection points: 8
#     Node 1, Type 0, BuildingBlock: EBIMEJ_clean_sbu_0, # of connection points: 8
#     Node 2, Type 0, BuildingBlock: EBIMEJ_clean_sbu_0, # of connection points: 8
#     Node 3, Type 0, BuildingBlock: EBIMEJ_clean_sbu_0, # of connection points: 8
#     Node 4, Type 0, BuildingBlock: EBIMEJ_clean_sbu_0, # of connection points: 8
#     Node 5, Type 0, BuildingBlock: EBIMEJ_clean_sbu_0, # of connection points: 8
#     Node 6, Type 0, BuildingBlock: EBIMEJ_clean_sbu_0, # of connection points: 8
#     Node 7, Type 0, BuildingBlock: EBIMEJ_clean_sbu_0, # of connection points: 8
#     Node 8, Type 0, BuildingBlock: EBIMEJ_clean_sbu_0, # of connection points: 8
#     Node 9, Type 0, BuildingBlock: EBIMEJ_clean_sbu_0, # of connection points: 8
#     Node 10, Type 0, BuildingBlock: EBIMEJ_clean_sbu_0, # of connection points: 8
#     Node 11, Type 0, BuildingBlock: EBIMEJ_clean_sbu_0, # of connection points: 8
#     Node 12, Type 0, BuildingBlock: EBIMEJ_clean_sbu_0, # of connection points: 8
#     Node 13, Type 0, BuildingBlock: EBIMEJ_clean_sbu_0, # of connection points: 8
#     Node 14, Type 0, BuildingBlock: EBIMEJ_clean_sbu_0, # of connection points: 8
#     Node 15, Type 0, BuildingBlock: EBIMEJ_clean_sbu_0, # of connection points: 8
#     Node 16, Type 0, BuildingBlock: EBIMEJ_clean_sbu_0, # of connection points: 8
#     Node 17, Type 0, BuildingBlock: EBIMEJ_clean_sbu_0, # of connection points: 8
#     Node 18, Type 0, BuildingBlock: EBIMEJ_clean_sbu_0, # of connection points: 8
#     Node 19, Type 0, BuildingBlock: EBIMEJ_clean_sbu_0, # of connection points: 8
#     Node 20, Type 0, BuildingBlock: EBIMEJ_clean_sbu_0, # of connection points: 8
#     Node 21, Type 0, BuildingBlock: EBIMEJ_clean_sbu_0, # of connection points: 8
#     Node 22, Type 0, BuildingBlock: EBIMEJ_clean_sbu_0, # of connection points: 8
#     Node 23, Type 0, BuildingBlock: EBIMEJ_clean_sbu_0, # of connection points: 8
#     Edge 24, Type (0, 0), BuildingBlock: UVAHIK_clean_linker_0, # of connection points: 2
#     Edge 25, Type (0, 0), BuildingBlock: UVAHIK_clean_linker_0, # of connection points: 2
#     Edge 26, Type (0, 0), BuildingBlock: UVAHIK_clean_linker_0, # of connection points: 2
#     Edge 27, Type (0, 0), BuildingBlock: UVAHIK_clean_linker_0, # of connection points: 2
#     Edge 28, Type (0, 0), BuildingBlock: UVAHIK_clean_linker_0, # of connection points: 2
#     Edge 29, Type (0, 0), BuildingBlock: UVAHIK_clean_linker_0, # of connection points: 2
#     Edge 30, Type (0, 0), BuildingBlock: UVAHIK_clean_linker_0, # of connection points: 2
#     Edge 31, Type (0, 0), BuildingBlock: UVAHIK_clean_linker_0, # of connection points: 2
#     Edge 32, Type (0, 0), BuildingBlock: UVAHIK_clean_linker_0, # of connection points: 2
#     Edge 33, Type (0, 0), BuildingBlock: UVAHIK_clean_linker_0, # of connection points: 2
#     Edge 34, Type (0, 0), BuildingBlock: UVAHIK_clean_linker_0, # of connection points: 2
#     Edge 35, Type (0, 0), BuildingBlock: UVAHIK_clean_linker_0, # of connection points: 2
#     Edge 36, Type (0, 0), BuildingBlock: UVAHIK_clean_linker_0, # of connection points: 2
#     Edge 37, Type (0, 0), BuildingBlock: UVAHIK_clean_linker_0, # of connection points: 2
#     Edge 38, Type (0, 0), BuildingBlock: UVAHIK_clean_linker_0, # of connection points: 2
#     Edge 39, Type (0, 0), BuildingBlock: UVAHIK_clean_linker_0, # of connection points: 2
#     Edge 40, Type (0, 0), BuildingBlock: UVAHIK_clean_linker_0, # of connection points: 2
#     Edge 41, Type (0, 0), BuildingBlock: UVAHIK_clean_linker_0, # of connection points: 2
#     Edge 42, Type (0, 0), BuildingBlock: UVAHIK_clean_linker_0, # of connection points: 2
#     Edge 43, Type (0, 0), BuildingBlock: UVAHIK_clean_linker_0, # of connection points: 2
#     Edge 44, Type (0, 0), BuildingBlock: UVAHIK_clean_linker_0, # of connection points: 2
#     Edge 45, Type (0, 0), BuildingBlock: UVAHIK_clean_linker_0, # of connection points: 2
#     Edge 46, Type (0, 0), BuildingBlock: UVAHIK_clean_linker_0, # of connection points: 2
#     Edge 47, Type (0, 0), BuildingBlock: UVAHIK_clean_linker_0, # of connection points: 2
#     Edge 48, Type (0, 0), BuildingBlock: UVAHIK_clean_linker_0, # of connection points: 2
#     Edge 49, Type (0, 0), BuildingBlock: UVAHIK_clean_linker_0, # of connection points: 2
#     Edge 50, Type (0, 0), BuildingBlock: UVAHIK_clean_linker_0, # of connection points: 2
#     Edge 51, Type (0, 0), BuildingBlock: UVAHIK_clean_linker_0, # of connection points: 2
#     Edge 52, Type (0, 0), BuildingBlock: UVAHIK_clean_linker_0, # of connection points: 2
#     Edge 53, Type (0, 0), BuildingBlock: UVAHIK_clean_linker_0, # of connection points: 2
#     Edge 54, Type (0, 0), BuildingBlock: UVAHIK_clean_linker_0, # of connection points: 2
#     Edge 55, Type (0, 0), BuildingBlock: UVAHIK_clean_linker_0, # of connection points: 2
#     Edge 56, Type (0, 0), BuildingBlock: UVAHIK_clean_linker_0, # of connection points: 2
#     Edge 57, Type (0, 0), BuildingBlock: UVAHIK_clean_linker_0, # of connection points: 2
#     Edge 58, Type (0, 0), BuildingBlock: UVAHIK_clean_linker_0, # of connection points: 2
#     Edge 59, Type (0, 0), BuildingBlock: UVAHIK_clean_linker_0, # of connection points: 2
#     Edge 60, Type (0, 0), BuildingBlock: UVAHIK_clean_linker_0, # of connection points: 2
#     Edge 61, Type (0, 0), BuildingBlock: UVAHIK_clean_linker_0, # of connection points: 2
#     Edge 62, Type (0, 0), BuildingBlock: UVAHIK_clean_linker_0, # of connection points: 2
#     Edge 63, Type (0, 0), BuildingBlock: UVAHIK_clean_linker_0, # of connection points: 2
#     Edge 64, Type (0, 0), BuildingBlock: UVAHIK_clean_linker_0, # of connection points: 2
#     Edge 65, Type (0, 0), BuildingBlock: UVAHIK_clean_linker_0, # of connection points: 2
#     Edge 66, Type (0, 0), BuildingBlock: UVAHIK_clean_linker_0, # of connection points: 2
#     Edge 67, Type (0, 0), BuildingBlock: UVAHIK_clean_linker_0, # of connection points: 2
#     Edge 68, Type (0, 0), BuildingBlock: UVAHIK_clean_linker_0, # of connection points: 2
#     Edge 69, Type (0, 0), BuildingBlock: UVAHIK_clean_linker_0, # of connection points: 2
#     Edge 70, Type (0, 0), BuildingBlock: UVAHIK_clean_linker_0, # of connection points: 2
#     Edge 71, Type (0, 0), BuildingBlock: UVAHIK_clean_linker_0, # of connection points: 2
#     Edge 72, Type (0, 0), BuildingBlock: UVAHIK_clean_linker_0, # of connection points: 2
#     Edge 73, Type (0, 0), BuildingBlock: UVAHIK_clean_linker_0, # of connection points: 2
#     Edge 74, Type (0, 0), BuildingBlock: UVAHIK_clean_linker_0, # of connection points: 2
#     Edge 75, Type (0, 0), BuildingBlock: UVAHIK_clean_linker_0, # of connection points: 2
#     Edge 76, Type (0, 0), BuildingBlock: UVAHIK_clean_linker_0, # of connection points: 2
#     Edge 77, Type (0, 0), BuildingBlock: UVAHIK_clean_linker_0, # of connection points: 2
#     Edge 78, Type (0, 0), BuildingBlock: UVAHIK_clean_linker_0, # of connection points: 2
#     Edge 79, Type (0, 0), BuildingBlock: UVAHIK_clean_linker_0, # of connection points: 2
#     Edge 80, Type (0, 0), BuildingBlock: UVAHIK_clean_linker_0, # of connection points: 2
#     Edge 81, Type (0, 0), BuildingBlock: UVAHIK_clean_linker_0, # of connection points: 2
#     Edge 82, Type (0, 0), BuildingBlock: UVAHIK_clean_linker_0, # of connection points: 2
#     Edge 83, Type (0, 0), BuildingBlock: UVAHIK_clean_linker_0, # of connection points: 2
#     Edge 84, Type (0, 0), BuildingBlock: UVAHIK_clean_linker_0, # of connection points: 2
#     Edge 85, Type (0, 0), BuildingBlock: UVAHIK_clean_linker_0, # of connection points: 2
#     Edge 86, Type (0, 0), BuildingBlock: UVAHIK_clean_linker_0, # of connection points: 2
#     Edge 87, Type (0, 0), BuildingBlock: UVAHIK_clean_linker_0, # of connection points: 2
#     Edge 88, Type (0, 0), BuildingBlock: UVAHIK_clean_linker_0, # of connection points: 2
#     Edge 89, Type (0, 0), BuildingBlock: UVAHIK_clean_linker_0, # of connection points: 2
#     Edge 90, Type (0, 0), BuildingBlock: UVAHIK_clean_linker_0, # of connection points: 2
#     Edge 91, Type (0, 0), BuildingBlock: UVAHIK_clean_linker_0, # of connection points: 2
#     Edge 92, Type (0, 0), BuildingBlock: UVAHIK_clean_linker_0, # of connection points: 2
#     Edge 93, Type (0, 0), BuildingBlock: UVAHIK_clean_linker_0, # of connection points: 2
#     Edge 94, Type (0, 0), BuildingBlock: UVAHIK_clean_linker_0, # of connection points: 2
#     Edge 95, Type (0, 0), BuildingBlock: UVAHIK_clean_linker_0, # of connection points: 2
#     Edge 96, Type (0, 0), BuildingBlock: UVAHIK_clean_linker_0, # of connection points: 2
#     Edge 97, Type (0, 0), BuildingBlock: UVAHIK_clean_linker_0, # of connection points: 2
#     Edge 98, Type (0, 0), BuildingBlock: UVAHIK_clean_linker_0, # of connection points: 2
#     Edge 99, Type (0, 0), BuildingBlock: UVAHIK_clean_linker_0, # of connection points: 2
#     Edge 100, Type (0, 0), BuildingBlock: UVAHIK_clean_linker_0, # of connection points: 2
#     Edge 101, Type (0, 0), BuildingBlock: UVAHIK_clean_linker_0, # of connection points: 2
#     Edge 102, Type (0, 0), BuildingBlock: UVAHIK_clean_linker_0, # of connection points: 2
#     Edge 103, Type (0, 0), BuildingBlock: UVAHIK_clean_linker_0, # of connection points: 2
#     Edge 104, Type (0, 0), BuildingBlock: UVAHIK_clean_linker_0, # of connection points: 2
#     Edge 105, Type (0, 0), BuildingBlock: UVAHIK_clean_linker_0, # of connection points: 2
#     Edge 106, Type (0, 0), BuildingBlock: UVAHIK_clean_linker_0, # of connection points: 2
#     Edge 107, Type (0, 0), BuildingBlock: UVAHIK_clean_linker_0, # of connection points: 2
#     Edge 108, Type (0, 0), BuildingBlock: UVAHIK_clean_linker_0, # of connection points: 2
#     Edge 109, Type (0, 0), BuildingBlock: UVAHIK_clean_linker_0, # of connection points: 2
#     Edge 110, Type (0, 0), BuildingBlock: UVAHIK_clean_linker_0, # of connection points: 2
#     Edge 111, Type (0, 0), BuildingBlock: UVAHIK_clean_linker_0, # of connection points: 2
#     Edge 112, Type (0, 0), BuildingBlock: UVAHIK_clean_linker_0, # of connection points: 2
#     Edge 113, Type (0, 0), BuildingBlock: UVAHIK_clean_linker_0, # of connection points: 2
#     Edge 114, Type (0, 0), BuildingBlock: UVAHIK_clean_linker_0, # of connection points: 2
#     Edge 115, Type (0, 0), BuildingBlock: UVAHIK_clean_linker_0, # of connection points: 2
#     Edge 116, Type (0, 0), BuildingBlock: UVAHIK_clean_linker_0, # of connection points: 2
#     Edge 117, Type (0, 0), BuildingBlock: UVAHIK_clean_linker_0, # of connection points: 2
#     Edge 118, Type (0, 0), BuildingBlock: UVAHIK_clean_linker_0, # of connection points: 2
#     Edge 119, Type (0, 0), BuildingBlock: UVAHIK_clean_linker_0, # of connection points: 2
# Relax obj value: 0.213
# Max RMSD: 0.240
# Mean RMSD: 0.240
data_MOF--net-ech--node1-EBIMEJ_clean_sbu_0--edge1-UVAHIK_clean_linker_0
_symmetry_space_group_name_H-M    P1
_symmetry_Int_Tables_number       1
_symmetry_cell_setting            triclinic
loop_
_symmetry_equiv_pos_as_xyz
'x, y, z'
_cell_length_a     62.223439
_cell_length_b     62.263913
_cell_length_c     62.339767
_cell_angle_alpha  90.020047
_cell_angle_beta   90.000929
_cell_angle_gamma 90.007512
loop_
_atom_site_label
_atom_site_type_symbol
_atom_site_fract_x
_atom_site_fract_y
_atom_site_fract_z
_atom_type_partial_charge
Co0 Co 0.16421 0.27383 0.42088 0.0
Co1 Co 0.13602 0.29272 0.46363 0.0
Co2 Co 0.1339 0.31528 0.4211 0.0
H3 H 0.14985 0.2962 0.42698 0.0
O4 O 0.15564 0.29857 0.43933 0.0
H5 H 0.11872 0.3093 0.45561 0.0
O6 O 0.11371 0.30593 0.4432 0.0
Co7 Co 0.10275 0.33101 0.45838 0.0
O8 O 0.09661 0.3192 0.48768 0.0
O9 O 0.11571 0.2885 0.4888 0.0
O10 O 0.11004 0.35548 0.4385 0.0
O11 O 0.11349 0.33661 0.40844 0.0
O12 O 0.18019 0.26294 0.39403 0.0
O13 O 0.19175 0.25533 0.42427 0.0
O14 O 0.12807 0.34719 0.46935 0.0
O15 O 0.14865 0.31915 0.47828 0.0
C16 C 0.16782 0.31158 0.38849 0.0
C17 C 0.16978 0.2604 0.46981 0.0
C18 C 0.06396 0.33825 0.45349 0.0
C19 C 0.12192 0.27249 0.39952 0.0
C20 C 0.10193 0.30169 0.49678 0.0
C21 C 0.10968 0.35433 0.4181 0.0
C22 C 0.19471 0.25356 0.4044 0.0
C23 C 0.14468 0.33937 0.47819 0.0
O24 O 0.17206 0.29221 0.39416 0.0
O25 O 0.1548 0.32342 0.3989 0.0
O26 O 0.15816 0.27522 0.47814 0.0
O27 O 0.17166 0.25762 0.44934 0.0
O28 O 0.07533 0.34669 0.46784 0.0
O29 O 0.07457 0.32554 0.44201 0.0
O30 O 0.13661 0.26156 0.40865 0.0
O31 O 0.12086 0.2929 0.4016 0.0
Co32 Co 0.35093 0.74142 0.92151 0.0
Co33 Co 0.37943 0.72158 0.96383 0.0
Co34 Co 0.38117 0.69999 0.92077 0.0
H35 H 0.36528 0.71893 0.92718 0.0
O36 O 0.35956 0.71637 0.93953 0.0
H37 H 0.3962 0.7046 0.95547 0.0
O38 O 0.40139 0.70824 0.94321 0.0
Co39 Co 0.41139 0.68231 0.95768 0.0
O40 O 0.41829 0.69386 0.98699 0.0
O41 O 0.40006 0.72506 0.98879 0.0
O42 O 0.4033 0.6588 0.93679 0.0
O43 O 0.40153 0.67917 0.90756 0.0
O44 O 0.3353 0.75264 0.89464 0.0
O45 O 0.3236 0.76023 0.92483 0.0
O46 O 0.38628 0.66667 0.9699 0.0
O47 O 0.36631 0.69529 0.97843 0.0
C48 C 0.34697 0.70449 0.88835 0.0
C49 C 0.34564 0.75398 0.97075 0.0
C50 C 0.44992 0.67463 0.95175 0.0
C51 C 0.39322 0.74322 0.90004 0.0
C52 C 0.41364 0.71145 0.99636 0.0
C53 C 0.40431 0.66097 0.9165 0.0
C54 C 0.3208 0.76212 0.90495 0.0
C55 C 0.36992 0.67499 0.97877 0.0
O56 O 0.34249 0.72358 0.89467 0.0
O57 O 0.36037 0.69257 0.89815 0.0
O58 O 0.35789 0.73949 0.97875 0.0
O59 O 0.34299 0.7566 0.95036 0.0
O60 O 0.43851 0.66526 0.96549 0.0
O61 O 0.43947 0.68843 0.94144 0.0
O62 O 0.37835 0.75401 0.90907 0.0
O63 O 0.39444 0.72283 0.90209 0.0
Co64 Co 0.66526 0.24017 0.59242 0.0
Co65 Co 0.63609 0.22126 0.55027 0.0
Co66 Co 0.63408 0.19925 0.59317 0.0
H67 H 0.65035 0.21795 0.58678 0.0
O68 O 0.65593 0.21534 0.57439 0.0
H69 H 0.619 0.20446 0.55839 0.0
O70 O 0.61395 0.20796 0.57075 0.0
Co71 Co 0.60316 0.18261 0.55575 0.0
O72 O 0.59744 0.19424 0.52622 0.0
O73 O 0.61555 0.22553 0.52545 0.0
O74 O 0.60633 0.1591 0.57782 0.0
O75 O 0.61334 0.17893 0.60683 0.0
O76 O 0.68075 0.25185 0.61919 0.0
O77 O 0.69291 0.25845 0.58893 0.0
O78 O 0.62918 0.16675 0.54592 0.0
O79 O 0.64867 0.19497 0.53539 0.0
C80 C 0.66869 0.20317 0.62541 0.0
C81 C 0.67032 0.25322 0.54339 0.0
C82 C 0.5645 0.17403 0.55898 0.0
C83 C 0.6231 0.24268 0.61427 0.0
C84 C 0.60222 0.21202 0.5173 0.0
C85 C 0.60677 0.16154 0.59811 0.0
C86 C 0.6955 0.26085 0.6088 0.0
C87 C 0.64533 0.17467 0.53635 0.0
O88 O 0.67366 0.22208 0.61898 0.0
O89 O 0.65481 0.19161 0.61583 0.0
O90 O 0.65787 0.2389 0.53543 0.0
O91 O 0.67319 0.25568 0.56376 0.0
O92 O 0.57865 0.16068 0.55362 0.0
O93 O 0.57228 0.19234 0.56227 0.0
O94 O 0.63862 0.25313 0.60599 0.0
O95 O 0.62104 0.22244 0.61157 0.0
Co96 Co 0.85127 0.77314 0.0925 0.0
Co97 Co 0.87961 0.79222 0.04991 0.0
Co98 Co 0.88145 0.81464 0.09258 0.0
H99 H 0.86571 0.79547 0.08655 0.0
O100 O 0.85996 0.79784 0.07418 0.0
H101 H 0.89675 0.80894 0.05801 0.0
O102 O 0.90177 0.80561 0.07042 0.0
Co103 Co 0.91257 0.8308 0.05541 0.0
O104 O 0.91929 0.81877 0.02633 0.0
O105 O 0.89999 0.78822 0.02477 0.0
O106 O 0.90434 0.85507 0.07512 0.0
O107 O 0.90153 0.83631 0.10529 0.0
O108 O 0.83721 0.74694 0.1074 0.0
O109 O 0.81851 0.77254 0.0971 0.0
O110 O 0.88719 0.84676 0.04431 0.0
O111 O 0.86676 0.81859 0.03534 0.0
C112 C 0.84793 0.80998 0.12561 0.0
C113 C 0.84623 0.75947 0.04363 0.0
C114 C 0.95115 0.83866 0.06096 0.0
C115 C 0.89332 0.77202 0.1148 0.0
C116 C 0.91399 0.80134 0.01706 0.0
C117 C 0.90484 0.85407 0.09552 0.0
C118 C 0.81854 0.75464 0.10637 0.0
C119 C 0.87062 0.83884 0.03549 0.0
O120 O 0.84441 0.79042 0.12013 0.0
O121 O 0.86033 0.82225 0.11489 0.0
O122 O 0.85759 0.77453 0.03536 0.0
O123 O 0.8445 0.75652 0.06409 0.0
O124 O 0.93938 0.84842 0.04782 0.0
O125 O 0.94105 0.82429 0.07084 0.0
O126 O 0.87801 0.76113 0.10666 0.0
O127 O 0.89506 0.79225 0.11168 0.0
Co128 Co 0.42248 0.16384 0.27357 0.0
Co129 Co 0.46529 0.13506 0.29244 0.0
Co130 Co 0.42254 0.13332 0.31484 0.0
H131 H 0.42853 0.14909 0.29571 0.0
O132 O 0.44097 0.15475 0.29797 0.0
H133 H 0.45738 0.11831 0.30951 0.0
O134 O 0.445 0.11306 0.30632 0.0
Co135 Co 0.46049 0.10327 0.33171 0.0
O136 O 0.49131 0.10059 0.32221 0.0
O137 O 0.49058 0.11477 0.28904 0.0
O138 O 0.4398 0.11078 0.35546 0.0
O139 O 0.40975 0.11326 0.33631 0.0
O140 O 0.41815 0.1822 0.24605 0.0
O141 O 0.40791 0.19334 0.27569 0.0
O142 O 0.47092 0.12923 0.34711 0.0
O143 O 0.47992 0.14877 0.31841 0.0
C144 C 0.38885 0.16626 0.30994 0.0
C145 C 0.47142 0.16868 0.25972 0.0
C146 C 0.4552 0.06472 0.33989 0.0
C147 C 0.40046 0.12158 0.27212 0.0
C148 C 0.5 0.10413 0.30404 0.0
C149 C 0.41936 0.11023 0.35417 0.0
C150 C 0.40905 0.19725 0.256 0.0
C151 C 0.47964 0.14562 0.33875 0.0
O152 O 0.39432 0.16976 0.29039 0.0
O153 O 0.39991 0.15428 0.3223 0.0
O154 O 0.47973 0.15662 0.27418 0.0
O155 O 0.45094 0.17121 0.2574 0.0
O156 O 0.45682 0.07918 0.3538 0.0
O157 O 0.45695 0.07206 0.32121 0.0
O158 O 0.40835 0.13714 0.26141 0.0
O159 O 0.40375 0.11957 0.29227 0.0
Co160 Co 0.0933 0.85029 0.773 0.0
Co161 Co 0.05058 0.87894 0.7918 0.0
Co162 Co 0.09349 0.88156 0.81358 0.0
H163 H 0.08737 0.86528 0.79495 0.0
O164 O 0.07503 0.85952 0.79755 0.0
H165 H 0.05861 0.89621 0.80844 0.0
O166 O 0.07088 0.90141 0.80481 0.0
Co167 Co 0.05609 0.91195 0.83033 0.0
O168 O 0.02648 0.91775 0.81873 0.0
O169 O 0.02535 0.89904 0.78781 0.0
O170 O 0.07678 0.90421 0.85409 0.0
O171 O 0.10637 0.90232 0.8342 0.0
O172 O 0.09842 0.8319 0.74565 0.0
O173 O 0.10773 0.8208 0.77563 0.0
O174 O 0.04473 0.88674 0.84634 0.0
O175 O 0.03606 0.86612 0.81824 0.0
C176 C 0.12712 0.84857 0.80929 0.0
C177 C 0.04432 0.84492 0.75962 0.0
C178 C 0.06197 0.95045 0.83823 0.0
C179 C 0.11508 0.89255 0.77043 0.0
C180 C 0.0173 0.9125 0.80123 0.0
C181 C 0.09715 0.90511 0.85226 0.0
C182 C 0.10722 0.81687 0.75591 0.0
C183 C 0.03602 0.87009 0.83846 0.0
O184 O 0.12146 0.84454 0.7899 0.0
O185 O 0.11626 0.86097 0.82139 0.0
O186 O 0.03607 0.85685 0.77422 0.0
O187 O 0.06479 0.84267 0.75699 0.0
O188 O 0.0502 0.9383 0.84921 0.0
O189 O 0.07027 0.94078 0.82262 0.0
O190 O 0.10721 0.87676 0.76005 0.0
O191 O 0.11195 0.89485 0.79057 0.0
Co192 Co 0.9225 0.35048 0.74078 0.0
Co193 Co 0.96509 0.37888 0.72206 0.0
Co194 Co 0.92218 0.38158 0.70008 0.0
H195 H 0.92837 0.36527 0.71867 0.0
O196 O 0.94069 0.35949 0.71602 0.0
H197 H 0.9571 0.39633 0.7056 0.0
O198 O 0.94475 0.40143 0.70915 0.0
Co199 Co 0.95982 0.41251 0.68404 0.0
O200 O 0.98959 0.41752 0.69544 0.0
O201 O 0.99027 0.39905 0.72649 0.0
O202 O 0.93799 0.40945 0.66037 0.0
O203 O 0.90872 0.40251 0.67989 0.0
O204 O 0.91899 0.33144 0.76796 0.0
O205 O 0.90632 0.32185 0.73872 0.0
O206 O 0.97052 0.3871 0.66771 0.0
O207 O 0.97976 0.36646 0.69556 0.0
C208 C 0.88879 0.34846 0.70424 0.0
C209 C 0.97128 0.3453 0.75452 0.0
C210 C 0.9555 0.45132 0.67668 0.0
C211 C 0.90052 0.3925 0.74334 0.0
C212 C 0.99855 0.4124 0.71309 0.0
C213 C 0.91765 0.40913 0.66267 0.0
C214 C 0.90848 0.31722 0.75815 0.0
C215 C 0.97949 0.3705 0.67538 0.0
O216 O 0.89449 0.34448 0.72363 0.0
O217 O 0.89955 0.36092 0.69213 0.0
O218 O 0.97956 0.35651 0.73938 0.0
O219 O 0.9508 0.34374 0.75757 0.0
O220 O 0.96297 0.43804 0.66348 0.0
O221 O 0.95067 0.4426 0.69419 0.0
O222 O 0.90858 0.37689 0.75381 0.0
O223 O 0.90359 0.39464 0.72318 0.0
Co224 Co 0.59328 0.66398 0.24098 0.0
Co225 Co 0.55109 0.63502 0.22153 0.0
Co226 Co 0.59431 0.6332 0.20022 0.0
H227 H 0.58768 0.64924 0.21881 0.0
O228 O 0.5753 0.65485 0.21611 0.0
H229 H 0.55952 0.61794 0.2048 0.0
O230 O 0.57185 0.61294 0.20853 0.0
Co231 Co 0.55748 0.60209 0.18286 0.0
O232 O 0.52817 0.59534 0.19474 0.0
O233 O 0.5261 0.61457 0.22527 0.0
O234 O 0.5796 0.60682 0.15951 0.0
O235 O 0.60831 0.61272 0.18013 0.0
O236 O 0.61096 0.67789 0.26539 0.0
O237 O 0.59431 0.69689 0.24362 0.0
O238 O 0.54668 0.62769 0.16697 0.0
O239 O 0.53659 0.64766 0.19505 0.0
C240 C 0.62725 0.66692 0.20508 0.0
C241 C 0.54407 0.66894 0.2537 0.0
C242 C 0.56211 0.56368 0.17408 0.0
C243 C 0.61555 0.62214 0.24357 0.0
C244 C 0.51865 0.60055 0.21208 0.0
C245 C 0.59987 0.60729 0.16232 0.0
C246 C 0.60659 0.69674 0.25962 0.0
C247 C 0.53728 0.64399 0.1748 0.0
O248 O 0.6213 0.67089 0.22437 0.0
O249 O 0.61685 0.65419 0.19291 0.0
O250 O 0.53608 0.65681 0.23911 0.0
O251 O 0.56448 0.67145 0.25646 0.0
O252 O 0.56047 0.57831 0.16033 0.0
O253 O 0.56082 0.5708 0.19288 0.0
O254 O 0.60746 0.63773 0.25405 0.0
O255 O 0.61257 0.62003 0.22341 0.0
Co256 Co 0.27633 0.42171 0.16406 0.0
Co257 Co 0.29405 0.46471 0.13508 0.0
Co258 Co 0.31664 0.42215 0.13188 0.0
H259 H 0.29804 0.42784 0.14858 0.0
O260 O 0.30061 0.44021 0.15427 0.0
H261 H 0.31028 0.45699 0.1173 0.0
O262 O 0.30682 0.44459 0.11232 0.0
Co263 Co 0.3313 0.46016 0.10049 0.0
O264 O 0.31822 0.48873 0.09385 0.0
O265 O 0.28906 0.49018 0.11516 0.0
O266 O 0.35575 0.44023 0.10798 0.0
O267 O 0.33729 0.40985 0.11071 0.0
O268 O 0.24927 0.41987 0.18374 0.0
O269 O 0.27693 0.40295 0.19116 0.0
O270 O 0.34574 0.47931 0.12157 0.0
O271 O 0.3207 0.4794 0.14731 0.0
C272 C 0.31393 0.38889 0.16533 0.0
C273 C 0.26247 0.47053 0.16968 0.0
C274 C 0.33974 0.45262 0.06252 0.0
C275 C 0.27365 0.39975 0.12174 0.0
C276 C 0.30113 0.49791 0.10025 0.0
C277 C 0.3548 0.41982 0.10677 0.0
C278 C 0.25805 0.40714 0.19674 0.0
C279 C 0.33921 0.48489 0.14002 0.0
O280 O 0.29484 0.39475 0.17055 0.0
O281 O 0.32534 0.39932 0.15197 0.0
O282 O 0.27687 0.47892 0.15761 0.0
O283 O 0.26006 0.45004 0.17193 0.0
O284 O 0.34964 0.46602 0.07387 0.0
O285 O 0.32502 0.44339 0.07275 0.0
O286 O 0.2634 0.40743 0.13771 0.0
O287 O 0.29372 0.40325 0.11904 0.0
Co288 Co 0.77534 0.09255 0.84986 0.0
Co289 Co 0.79339 0.0504 0.87967 0.0
Co290 Co 0.81588 0.09314 0.88137 0.0
H291 H 0.79725 0.08676 0.86511 0.0
O292 O 0.79972 0.07425 0.8597 0.0
H293 H 0.81044 0.0584 0.89654 0.0
O294 O 0.80713 0.07082 0.90158 0.0
Co295 Co 0.83243 0.05561 0.91213 0.0
O296 O 0.82079 0.02594 0.91747 0.0
O297 O 0.78891 0.02577 0.90039 0.0
O298 O 0.85588 0.07782 0.90938 0.0
O299 O 0.8362 0.10692 0.902 0.0
O300 O 0.74815 0.09808 0.83131 0.0
O301 O 0.77852 0.10522 0.81959 0.0
O302 O 0.84799 0.0455 0.88601 0.0
O303 O 0.81933 0.03494 0.86714 0.0
C304 C 0.81123 0.12665 0.84839 0.0
C305 C 0.76112 0.04382 0.84562 0.0
C306 C 0.84063 0.05914 0.95079 0.0
C307 C 0.77249 0.11461 0.89192 0.0
C308 C 0.80272 0.01732 0.91321 0.0
C309 C 0.85344 0.09813 0.90884 0.0
C310 C 0.75873 0.10551 0.81578 0.0
C311 C 0.83969 0.03578 0.87016 0.0
O312 O 0.7919 0.12086 0.84419 0.0
O313 O 0.82349 0.11575 0.86059 0.0
O314 O 0.77536 0.0357 0.85805 0.0
O315 O 0.75894 0.06423 0.84265 0.0
O316 O 0.85415 0.05374 0.93684 0.0
O317 O 0.82237 0.06229 0.94282 0.0
O318 O 0.76219 0.1067 0.8761 0.0
O319 O 0.79264 0.11151 0.89435 0.0
Co320 Co 0.74142 0.92147 0.35012 0.0
Co321 Co 0.72259 0.96365 0.37953 0.0
Co322 Co 0.7001 0.92107 0.38038 0.0
H323 H 0.71923 0.92732 0.36476 0.0
O324 O 0.7169 0.93985 0.35935 0.0
H325 H 0.70614 0.95518 0.3967 0.0
O326 O 0.70943 0.94257 0.40123 0.0
Co327 Co 0.68477 0.95768 0.41318 0.0
O328 O 0.69629 0.98702 0.41963 0.0
O329 O 0.7268 0.98844 0.4003 0.0
O330 O 0.66019 0.93842 0.40441 0.0
O331 O 0.67848 0.90804 0.40009 0.0
O332 O 0.76578 0.90348 0.33634 0.0
O333 O 0.74426 0.92026 0.31722 0.0
O334 O 0.66825 0.97 0.38874 0.0
O335 O 0.69585 0.97822 0.36726 0.0
C336 C 0.70455 0.88857 0.34647 0.0
C337 C 0.75448 0.97069 0.34553 0.0
C338 C 0.68006 0.95235 0.4523 0.0
C339 C 0.74271 0.89872 0.3918 0.0
C340 C 0.71376 0.99622 0.41429 0.0
C341 C 0.66085 0.91796 0.40361 0.0
C342 C 0.76016 0.90783 0.31746 0.0
C343 C 0.67571 0.97862 0.37185 0.0
O344 O 0.7242 0.89386 0.34319 0.0
O345 O 0.69226 0.89936 0.35878 0.0
O346 O 0.74007 0.97875 0.35783 0.0
O347 O 0.75701 0.95027 0.34281 0.0
O348 O 0.67851 0.97021 0.4431 0.0
O349 O 0.68438 0.93757 0.43936 0.0
O350 O 0.7536 0.90731 0.37676 0.0
O351 O 0.72241 0.9015 0.39341 0.0
Co352 Co 0.2412 0.59277 0.66382 0.0
Co353 Co 0.2222 0.55057 0.63499 0.0
Co354 Co 0.20046 0.59365 0.6325 0.0
H355 H 0.21906 0.58724 0.64881 0.0
O356 O 0.21629 0.57491 0.65448 0.0
H357 H 0.20565 0.55869 0.61765 0.0
O358 O 0.20926 0.57103 0.61261 0.0
Co359 Co 0.18401 0.55622 0.60145 0.0
O360 O 0.19529 0.52643 0.59632 0.0
O361 O 0.22642 0.52546 0.61472 0.0
O362 O 0.16043 0.57817 0.60461 0.0
O363 O 0.18019 0.60729 0.61168 0.0
O364 O 0.26844 0.59922 0.68201 0.0
O365 O 0.23801 0.60439 0.69453 0.0
O366 O 0.16773 0.54525 0.62678 0.0
O367 O 0.19567 0.53601 0.64737 0.0
C368 C 0.20532 0.62704 0.66553 0.0
C369 C 0.25491 0.54405 0.66834 0.0
C370 C 0.17714 0.56108 0.56262 0.0
C371 C 0.24399 0.61482 0.62178 0.0
C372 C 0.21293 0.51735 0.60134 0.0
C373 C 0.16285 0.59848 0.60506 0.0
C374 C 0.25783 0.60566 0.69795 0.0
C375 C 0.17546 0.53627 0.64335 0.0
O376 O 0.22451 0.62092 0.66987 0.0
O377 O 0.19301 0.61652 0.65303 0.0
O378 O 0.23958 0.53592 0.65723 0.0
O379 O 0.25812 0.56447 0.66997 0.0
O380 O 0.16637 0.54889 0.57455 0.0
O381 O 0.19189 0.5704 0.57272 0.0
O382 O 0.25432 0.60686 0.63755 0.0
O383 O 0.22382 0.61181 0.61942 0.0
Co384 Co 0.91248 0.68234 0.55563 0.0
Co385 Co 0.88114 0.6986 0.5926 0.0
Co386 Co 0.88006 0.72124 0.54998 0.0
H387 H 0.89685 0.70429 0.55821 0.0
O388 O 0.90174 0.70752 0.5707 0.0
H389 H 0.86534 0.71764 0.58632 0.0
O390 O 0.85988 0.71535 0.57381 0.0
Co391 Co 0.85061 0.73984 0.59218 0.0
O392 O 0.84376 0.7228 0.61989 0.0
O393 O 0.85981 0.69103 0.61475 0.0
O394 O 0.84317 0.75573 0.56363 0.0
O395 O 0.85858 0.73928 0.53513 0.0
O396 O 0.93975 0.66589 0.54708 0.0
O397 O 0.94066 0.68839 0.57175 0.0
O398 O 0.87724 0.75218 0.60633 0.0
O399 O 0.89443 0.72121 0.61163 0.0
C400 C 0.91451 0.71191 0.51745 0.0
C401 C 0.90624 0.65978 0.59641 0.0
C402 C 0.81792 0.75861 0.60576 0.0
C403 C 0.87073 0.67482 0.53517 0.0
C404 C 0.84739 0.7033 0.62544 0.0
C405 C 0.84609 0.75351 0.54324 0.0
C406 C 0.95117 0.67499 0.56099 0.0
C407 C 0.89259 0.74144 0.61459 0.0
O408 O 0.91909 0.69411 0.52641 0.0
O409 O 0.90099 0.7254 0.52535 0.0
O410 O 0.90127 0.67734 0.60585 0.0
O411 O 0.90577 0.65819 0.57604 0.0
O412 O 0.83663 0.76619 0.60688 0.0
O413 O 0.81783 0.74065 0.59659 0.0
O414 O 0.88688 0.66664 0.54452 0.0
O415 O 0.86733 0.69515 0.53479 0.0
Co416 Co 0.60305 0.33156 0.05464 0.0
Co417 Co 0.63363 0.31504 0.09199 0.0
Co418 Co 0.63558 0.29272 0.04927 0.0
H419 H 0.61859 0.30957 0.0573 0.0
O420 O 0.61346 0.3062 0.06966 0.0
H421 H 0.64964 0.29611 0.08592 0.0
O422 O 0.6553 0.29851 0.07351 0.0
Co423 Co 0.66448 0.27402 0.09189 0.0
O424 O 0.67151 0.29141 0.11938 0.0
O425 O 0.65441 0.32269 0.11462 0.0
O426 O 0.67215 0.2581 0.06335 0.0
O427 O 0.65736 0.27487 0.03472 0.0
O428 O 0.57887 0.35387 0.05608 0.0
O429 O 0.57214 0.32142 0.06048 0.0
O430 O 0.63794 0.26161 0.10612 0.0
O431 O 0.62013 0.29236 0.11074 0.0
C432 C 0.60129 0.30187 0.01644 0.0
C433 C 0.61034 0.35419 0.09518 0.0
C434 C 0.69675 0.25492 0.1059 0.0
C435 C 0.645 0.33925 0.03476 0.0
C436 C 0.66719 0.3107 0.12517 0.0
C437 C 0.66956 0.26047 0.04293 0.0
C438 C 0.56463 0.34012 0.05992 0.0
C439 C 0.62229 0.27221 0.11401 0.0
O440 O 0.59622 0.31944 0.0256 0.0
O441 O 0.61513 0.28864 0.02422 0.0
O442 O 0.61332 0.33631 0.10477 0.0
O443 O 0.6113 0.35546 0.07481 0.0
O444 O 0.67776 0.25062 0.11132 0.0
O445 O 0.6973 0.26969 0.09219 0.0
O446 O 0.62862 0.34734 0.04375 0.0
O447 O 0.64855 0.31894 0.03448 0.0
Co448 Co 0.41199 0.8324 0.45766 0.0
Co449 Co 0.38107 0.81553 0.42077 0.0
Co450 Co 0.37989 0.79327 0.46355 0.0
H451 H 0.39663 0.81024 0.45525 0.0
O452 O 0.40163 0.80691 0.44283 0.0
H453 H 0.3654 0.79646 0.42714 0.0
O454 O 0.35984 0.79884 0.4396 0.0
Co455 Co 0.35083 0.77417 0.42144 0.0
O456 O 0.344 0.79093 0.39354 0.0
O457 O 0.35977 0.82285 0.39854 0.0
O458 O 0.34362 0.75817 0.45 0.0
O459 O 0.35842 0.77526 0.47844 0.0
O460 O 0.43572 0.85492 0.45402 0.0
O461 O 0.44324 0.82233 0.4539 0.0
O462 O 0.37746 0.7619 0.40728 0.0
O463 O 0.39458 0.79291 0.40187 0.0
C464 C 0.41454 0.8027 0.49583 0.0
C465 C 0.40392 0.85497 0.41714 0.0
C466 C 0.31798 0.75559 0.40823 0.0
C467 C 0.37013 0.8398 0.47773 0.0
C468 C 0.34748 0.81043 0.38788 0.0
C469 C 0.34631 0.76069 0.47039 0.0
C470 C 0.45032 0.84113 0.45226 0.0
C471 C 0.39277 0.77265 0.39897 0.0
O472 O 0.41935 0.82028 0.48656 0.0
O473 O 0.40065 0.78938 0.48832 0.0
O474 O 0.40095 0.83702 0.40762 0.0
O475 O 0.40337 0.85625 0.43754 0.0
O476 O 0.33662 0.7479 0.40692 0.0
O477 O 0.31804 0.77355 0.41741 0.0
O478 O 0.38623 0.84797 0.46832 0.0
O479 O 0.36691 0.81945 0.47845 0.0
Co480 Co 0.1029 0.18387 0.95789 0.0
Co481 Co 0.13481 0.19945 0.92092 0.0
Co482 Co 0.13589 0.22227 0.96343 0.0
H483 H 0.11889 0.20554 0.95515 0.0
O484 O 0.11413 0.20875 0.94259 0.0
H485 H 0.15057 0.21853 0.92719 0.0
O486 O 0.15611 0.21625 0.93967 0.0
Co487 Co 0.16487 0.241 0.92133 0.0
O488 O 0.17283 0.223 0.89442 0.0
O489 O 0.15621 0.19144 0.89915 0.0
O490 O 0.17299 0.25654 0.94997 0.0
O491 O 0.15747 0.24008 0.9784 0.0
O492 O 0.07563 0.16769 0.9669 0.0
O493 O 0.07449 0.19036 0.94239 0.0
O494 O 0.13698 0.25334 0.90966 0.0
O495 O 0.12226 0.22189 0.9012 0.0
C496 C 0.10175 0.21309 0.99624 0.0
C497 C 0.10788 0.16133 0.91661 0.0
C498 C 0.19523 0.26139 0.90473 0.0
C499 C 0.14468 0.17571 0.97811 0.0
C500 C 0.16898 0.20356 0.88876 0.0
C501 C 0.17007 0.25425 0.97037 0.0
C502 C 0.06404 0.17701 0.95328 0.0
C503 C 0.12279 0.24236 0.89981 0.0
O504 O 0.09717 0.1952 0.98747 0.0
O505 O 0.11497 0.22665 0.988 0.0
O506 O 0.11457 0.17842 0.90738 0.0
O507 O 0.10714 0.15963 0.93696 0.0
O508 O 0.18007 0.25291 0.89446 0.0
O509 O 0.19297 0.25864 0.92458 0.0
O510 O 0.12842 0.16781 0.96871 0.0
O511 O 0.14833 0.196 0.9786 0.0
Co512 Co 0.55622 0.91342 0.68331 0.0
Co513 Co 0.59367 0.88202 0.6989 0.0
Co514 Co 0.55082 0.8795 0.72104 0.0
H515 H 0.55888 0.89701 0.7047 0.0
O516 O 0.57129 0.90198 0.70819 0.0
H517 H 0.58753 0.86576 0.71757 0.0
O518 O 0.57517 0.86004 0.71498 0.0
Co519 Co 0.59334 0.85089 0.73965 0.0
O520 O 0.62091 0.8442 0.72226 0.0
O521 O 0.61625 0.86124 0.69097 0.0
O522 O 0.56497 0.84397 0.75621 0.0
O523 O 0.53624 0.85717 0.7383 0.0
O524 O 0.54926 0.94061 0.66604 0.0
O525 O 0.57095 0.94186 0.69141 0.0
O526 O 0.60721 0.87739 0.7525 0.0
O527 O 0.61246 0.89505 0.72183 0.0
C528 C 0.51744 0.91331 0.71222 0.0
C529 C 0.59747 0.90849 0.66088 0.0
C530 C 0.6072 0.81793 0.7577 0.0
C531 C 0.53618 0.87159 0.67436 0.0
C532 C 0.62672 0.84837 0.70296 0.0
C533 C 0.54449 0.84574 0.75329 0.0
C534 C 0.56173 0.95224 0.67681 0.0
C535 C 0.61539 0.89293 0.74201 0.0
O536 O 0.52653 0.91877 0.69475 0.0
O537 O 0.5256 0.89968 0.72541 0.0
O538 O 0.60679 0.90287 0.67829 0.0
O539 O 0.57707 0.90827 0.65913 0.0
O540 O 0.60647 0.83615 0.7664 0.0
O541 O 0.5997 0.81845 0.73901 0.0
O542 O 0.54477 0.88849 0.66689 0.0
O543 O 0.5363 0.86712 0.69445 0.0
Co544 Co 0.95845 0.10316 0.18122 0.0
Co545 Co 0.921 0.1329 0.19941 0.0
Co546 Co 0.96443 0.1356 0.22021 0.0
H547 H 0.95619 0.1185 0.20344 0.0
O548 O 0.94404 0.11311 0.20726 0.0
H549 H 0.92756 0.14909 0.21795 0.0
O550 O 0.9398 0.15491 0.21511 0.0
Co551 Co 0.92208 0.1639 0.24016 0.0
O552 O 0.89365 0.17014 0.22386 0.0
O553 O 0.89801 0.15341 0.19241 0.0
O554 O 0.95064 0.17043 0.25642 0.0
O555 O 0.97913 0.15764 0.23784 0.0
O556 O 0.95632 0.07885 0.15913 0.0
O557 O 0.95462 0.07199 0.19173 0.0
O558 O 0.90815 0.13765 0.25338 0.0
O559 O 0.90335 0.11949 0.22294 0.0
C560 C 0.999 0.10541 0.20772 0.0
C561 C 0.91513 0.10618 0.16179 0.0
C562 C 0.90922 0.19757 0.25751 0.0
C563 C 0.97746 0.14566 0.17346 0.0
C564 C 0.88752 0.16597 0.20465 0.0
C565 C 0.97106 0.16878 0.25316 0.0
C566 C 0.9541 0.06446 0.17304 0.0
C567 C 0.90033 0.12181 0.24308 0.0
O568 O 0.98965 0.10181 0.18986 0.0
O569 O 0.98993 0.11566 0.22317 0.0
O570 O 0.90698 0.11214 0.17958 0.0
O571 O 0.93534 0.1058 0.15852 0.0
O572 O 0.91802 0.18242 0.26758 0.0
O573 O 0.90809 0.19362 0.23782 0.0
O574 O 0.96845 0.12921 0.16548 0.0
O575 O 0.97825 0.14901 0.19375 0.0
Co576 Co 0.05662 0.60151 0.33037 0.0
Co577 Co 0.09422 0.6331 0.31482 0.0
Co578 Co 0.05145 0.63508 0.29256 0.0
H579 H 0.05959 0.61776 0.30896 0.0
O580 O 0.07207 0.61284 0.30563 0.0
H581 H 0.08811 0.64907 0.29584 0.0
O582 O 0.07571 0.65475 0.29825 0.0
Co583 Co 0.09399 0.66373 0.27357 0.0
O584 O 0.12071 0.67171 0.29171 0.0
O585 O 0.11644 0.65416 0.32276 0.0
O586 O 0.06521 0.67192 0.25828 0.0
O587 O 0.03662 0.65705 0.2751 0.0
O588 O 0.04471 0.5727 0.34126 0.0
O589 O 0.07383 0.57385 0.32495 0.0
O590 O 0.10766 0.63692 0.26115 0.0
O591 O 0.11329 0.62002 0.29216 0.0
C592 C 0.01658 0.6046 0.30402 0.0
C593 C 0.09867 0.60527 0.35255 0.0
C594 C 0.11005 0.69409 0.25288 0.0
C595 C 0.03781 0.64391 0.33935 0.0
C596 C 0.12652 0.6675 0.31099 0.0
C597 C 0.04475 0.66939 0.26079 0.0
C598 C 0.0604 0.56211 0.33431 0.0
C599 C 0.11607 0.62171 0.27192 0.0
O600 O 0.02543 0.60075 0.32203 0.0
O601 O 0.02612 0.61492 0.28891 0.0
O602 O 0.10766 0.61264 0.33562 0.0
O603 O 0.07832 0.60366 0.35431 0.0
O604 O 0.12062 0.67918 0.26138 0.0
O605 O 0.09021 0.69157 0.25575 0.0
O606 O 0.04658 0.6271 0.34687 0.0
O607 O 0.03729 0.64792 0.31916 0.0
Co608 Co 0.45903 0.413 0.83 0.0
Co609 Co 0.42191 0.38105 0.81401 0.0
Co610 Co 0.46471 0.38 0.79161 0.0
H611 H 0.45635 0.39701 0.80831 0.0
O612 O 0.44379 0.40177 0.80503 0.0
H613 H 0.42838 0.36538 0.79508 0.0
O614 O 0.44086 0.35986 0.79744 0.0
Co615 Co 0.42263 0.35109 0.77268 0.0
O616 O 0.39478 0.34411 0.78969 0.0
O617 O 0.4001 0.35943 0.82174 0.0
O618 O 0.45119 0.34358 0.7568 0.0
O619 O 0.47969 0.35839 0.77384 0.0
O620 O 0.46387 0.4381 0.85073 0.0
O621 O 0.44945 0.44325 0.82103 0.0
O622 O 0.41041 0.37856 0.76008 0.0
O623 O 0.40239 0.39366 0.79142 0.0
C624 C 0.49757 0.41426 0.80082 0.0
C625 C 0.41695 0.40845 0.85167 0.0
C626 C 0.40858 0.31851 0.75413 0.0
C627 C 0.47883 0.37099 0.83814 0.0
C628 C 0.38937 0.3472 0.80932 0.0
C629 C 0.47162 0.3462 0.75935 0.0
C630 C 0.45561 0.45164 0.83829 0.0
C631 C 0.40074 0.3929 0.771 0.0
O632 O 0.48854 0.41917 0.81847 0.0
O633 O 0.48953 0.40071 0.78747 0.0
O634 O 0.40801 0.40122 0.83469 0.0
O635 O 0.43729 0.40961 0.8537 0.0
O636 O 0.40482 0.33743 0.74816 0.0
O637 O 0.42061 0.31818 0.77031 0.0
O638 O 0.46928 0.3872 0.84597 0.0
O639 O 0.47967 0.36747 0.81788 0.0
Co640 Co 0.6839 0.55656 0.91331 0.0
Co641 Co 0.6993 0.59377 0.88032 0.0
Co642 Co 0.72164 0.55097 0.87916 0.0
H643 H 0.70507 0.55933 0.89647 0.0
O644 O 0.70842 0.57195 0.90102 0.0
H645 H 0.7182 0.58722 0.86457 0.0
O646 O 0.71569 0.57476 0.85907 0.0
Co647 Co 0.74063 0.59281 0.85021 0.0
O648 O 0.72354 0.62052 0.84307 0.0
O649 O 0.69155 0.61557 0.85876 0.0
O650 O 0.75651 0.56425 0.84268 0.0
O651 O 0.73924 0.5359 0.85743 0.0
O652 O 0.66174 0.55619 0.93764 0.0
O653 O 0.6935 0.56472 0.94381 0.0
O654 O 0.75338 0.60498 0.87766 0.0
O655 O 0.72206 0.61323 0.89277 0.0
C656 C 0.71349 0.51836 0.91404 0.0
C657 C 0.66193 0.59874 0.90799 0.0
C658 C 0.75963 0.60673 0.81783 0.0
C659 C 0.67607 0.53178 0.87359 0.0
C660 C 0.70396 0.62612 0.84636 0.0
C661 C 0.75384 0.54386 0.84529 0.0
C662 C 0.6751 0.56193 0.95161 0.0
C663 C 0.74253 0.61474 0.892 0.0
O664 O 0.69606 0.52745 0.91963 0.0
O665 O 0.72625 0.52621 0.89985 0.0
O666 O 0.67878 0.60774 0.90053 0.0
O667 O 0.66014 0.5784 0.90951 0.0
O668 O 0.76342 0.61287 0.83668 0.0
O669 O 0.74539 0.59242 0.8175 0.0
O670 O 0.66909 0.53847 0.89151 0.0
O671 O 0.69512 0.53602 0.86689 0.0
Co672 Co 0.18517 0.95876 0.09996 0.0
Co673 Co 0.19981 0.9215 0.13293 0.0
Co674 Co 0.22226 0.96427 0.13478 0.0
H675 H 0.20603 0.95602 0.11715 0.0
O676 O 0.20941 0.94343 0.1126 0.0
H677 H 0.21846 0.92782 0.14912 0.0
O678 O 0.21594 0.94029 0.1546 0.0
Co679 Co 0.24047 0.92202 0.16411 0.0
O680 O 0.22316 0.89438 0.17067 0.0
O681 O 0.19163 0.8994 0.15413 0.0
O682 O 0.25634 0.95056 0.1718 0.0
O683 O 0.23951 0.97911 0.15689 0.0
O684 O 0.16557 0.96415 0.07417 0.0
O685 O 0.19297 0.94521 0.0709 0.0
O686 O 0.25349 0.90795 0.13779 0.0
O687 O 0.22273 0.90241 0.12034 0.0
C688 C 0.21452 0.99713 0.09992 0.0
C689 C 0.16259 0.91713 0.10502 0.0
C690 C 0.25894 0.9081 0.19677 0.0
C691 C 0.17662 0.9831 0.13978 0.0
C692 C 0.20369 0.88882 0.16684 0.0
C693 C 0.25386 0.97098 0.16921 0.0
C694 C 0.17691 0.95316 0.06164 0.0
C695 C 0.24296 0.89956 0.1224 0.0
O696 O 0.19729 0.98792 0.09393 0.0
O697 O 0.22708 0.98929 0.11433 0.0
O698 O 0.17942 0.90789 0.11225 0.0
O699 O 0.161 0.9375 0.10395 0.0
O700 O 0.26671 0.9072 0.17816 0.0
O701 O 0.24096 0.91726 0.19679 0.0
O702 O 0.16999 0.97637 0.12175 0.0
O703 O 0.19558 0.97907 0.1468 0.0
Co704 Co 0.33282 0.05752 0.60248 0.0
Co705 Co 0.31519 0.09414 0.63312 0.0
Co706 Co 0.29322 0.05126 0.63418 0.0
H707 H 0.31039 0.05967 0.61756 0.0
O708 O 0.30687 0.07205 0.61254 0.0
H709 H 0.29631 0.08758 0.64884 0.0
O710 O 0.29876 0.07511 0.65435 0.0
Co711 Co 0.27394 0.0933 0.66326 0.0
O712 O 0.2904 0.12181 0.66914 0.0
O713 O 0.32268 0.11618 0.65443 0.0
O714 O 0.25792 0.06472 0.67035 0.0
O715 O 0.27506 0.03629 0.65549 0.0
O716 O 0.35548 0.06138 0.57892 0.0
O717 O 0.32298 0.06009 0.57108 0.0
O718 O 0.26106 0.10551 0.63589 0.0
O719 O 0.29233 0.11314 0.62031 0.0
C720 C 0.30321 0.019 0.59992 0.0
C721 C 0.35378 0.09939 0.60867 0.0
C722 C 0.25705 0.10717 0.69685 0.0
C723 C 0.33972 0.03707 0.64421 0.0
C724 C 0.31006 0.12729 0.66604 0.0
C725 C 0.26047 0.04431 0.66761 0.0
C726 C 0.34179 0.06225 0.56415 0.0
C727 C 0.27189 0.1149 0.6213 0.0
O728 O 0.32097 0.02823 0.59557 0.0
O729 O 0.28946 0.02665 0.6133 0.0
O730 O 0.33572 0.10802 0.61298 0.0
O731 O 0.35638 0.07909 0.60873 0.0
O732 O 0.24676 0.0978 0.68219 0.0
O733 O 0.27666 0.10831 0.69245 0.0
O734 O 0.34811 0.04692 0.6285 0.0
O735 O 0.31931 0.03617 0.64705 0.0
Co736 Co 0.83018 0.45865 0.41421 0.0
Co737 Co 0.81561 0.42088 0.38181 0.0
Co738 Co 0.79326 0.46356 0.37905 0.0
H739 H 0.80943 0.45565 0.39691 0.0
O740 O 0.80592 0.44316 0.40165 0.0
H741 H 0.79717 0.42696 0.36512 0.0
O742 O 0.79987 0.43937 0.35959 0.0
Co743 Co 0.77542 0.42118 0.34958 0.0
O744 O 0.79304 0.39357 0.3436 0.0
O745 O 0.82399 0.39828 0.36137 0.0
O746 O 0.7591 0.44954 0.34213 0.0
O747 O 0.77623 0.47811 0.35663 0.0
O748 O 0.84823 0.46528 0.44085 0.0
O749 O 0.82327 0.44306 0.44249 0.0
O750 O 0.76209 0.40691 0.37571 0.0
O751 O 0.79237 0.40221 0.39426 0.0
C752 C 0.80067 0.4969 0.41346 0.0
C753 C 0.85254 0.41678 0.41001 0.0
C754 C 0.75791 0.40768 0.31605 0.0
C755 C 0.83851 0.48323 0.37451 0.0
C756 C 0.81221 0.38769 0.34846 0.0
C757 C 0.76169 0.46997 0.34456 0.0
C758 C 0.83796 0.45251 0.45259 0.0
C759 C 0.77228 0.399 0.39161 0.0
O760 O 0.81795 0.4879 0.41962 0.0
O761 O 0.78818 0.48877 0.39915 0.0
O762 O 0.83561 0.40756 0.40298 0.0
O763 O 0.85431 0.43716 0.41081 0.0
O764 O 0.74805 0.41746 0.33073 0.0
O765 O 0.7775 0.40589 0.3204 0.0
O766 O 0.84492 0.47739 0.39292 0.0
O767 O 0.81995 0.47823 0.36709 0.0
C768 C 0.08352 0.52929 0.33407 0.0
C769 C 0.06358 0.53898 0.33828 0.0
C770 C 0.08712 0.50782 0.33958 0.0
C771 C 0.06693 0.46684 0.37711 0.0
H772 H 0.10471 0.42879 0.34537 0.0
C773 C 0.1042 0.39388 0.41712 0.0
C774 C 0.10478 0.37422 0.40603 0.0
C775 C 0.09859 0.41277 0.40666 0.0
C776 C 0.09391 0.43913 0.35425 0.0
H777 H 0.03148 0.53368 0.35063 0.0
H778 H 0.03751 0.49609 0.35975 0.0
H779 H 0.09505 0.46378 0.33026 0.0
H780 H 0.10065 0.35919 0.37492 0.0
H781 H 0.0905 0.39258 0.35648 0.0
H782 H 0.06562 0.44234 0.401 0.0
C783 C 0.05057 0.50514 0.35267 0.0
C784 C 0.08857 0.45926 0.34573 0.0
C785 C 0.04705 0.52664 0.34734 0.0
C786 C 0.10023 0.37406 0.38393 0.0
C787 C 0.09449 0.39315 0.37338 0.0
C788 C 0.07219 0.4468 0.38554 0.0
C789 C 0.07079 0.49557 0.34928 0.0
C790 C 0.07525 0.47348 0.35723 0.0
C791 C 0.09325 0.41263 0.3848 0.0
C792 C 0.0861 0.43289 0.37446 0.0
H793 H 0.09658 0.53849 0.32716 0.0
H794 H 0.10296 0.5011 0.33699 0.0
H795 H 0.05688 0.4774 0.38659 0.0
H796 H 0.10797 0.39476 0.43407 0.0
H797 H 0.09839 0.42757 0.4158 0.0
C798 C 0.39491 0.62344 0.90797 0.0
C799 C 0.40744 0.64159 0.90353 0.0
C800 C 0.39958 0.60385 0.89829 0.0
C801 C 0.43197 0.57704 0.85597 0.0
H802 H 0.42709 0.52884 0.89509 0.0
C803 C 0.44195 0.48833 0.82955 0.0
C804 C 0.45212 0.47432 0.84397 0.0
C805 C 0.43738 0.50947 0.83556 0.0
C806 C 0.4288 0.54213 0.88401 0.0
H807 H 0.43413 0.65404 0.88511 0.0
H808 H 0.44299 0.61935 0.86861 0.0
H809 H 0.41704 0.56443 0.90712 0.0
H810 H 0.46601 0.47144 0.87573 0.0
H811 H 0.45838 0.50837 0.88613 0.0
H812 H 0.44445 0.55457 0.83309 0.0
C813 C 0.42919 0.62036 0.87914 0.0
C814 C 0.42267 0.56254 0.89079 0.0
C815 C 0.42418 0.64017 0.88855 0.0
C816 C 0.45813 0.48191 0.8643 0.0
C817 C 0.45361 0.50302 0.87029 0.0
C818 C 0.43824 0.55654 0.8492 0.0
C819 C 0.41728 0.60184 0.88442 0.0
C820 C 0.424 0.58023 0.87684 0.0
C821 C 0.4429 0.51696 0.85612 0.0
C822 C 0.43669 0.53886 0.86317 0.0
H823 H 0.38178 0.62431 0.91936 0.0
H824 H 0.38965 0.5901 0.90219 0.0
H825 H 0.43313 0.5903 0.84481 0.0
H826 H 0.43711 0.48284 0.81378 0.0
H827 H 0.42893 0.51972 0.82435 0.0
C828 C 0.55436 0.98552 0.65582 0.0
C829 C 0.56557 0.97519 0.67238 0.0
C830 C 0.55813 1.00716 0.65134 0.0
C831 C 0.59838 0.05007 0.65759 0.0
H832 H 0.55051 0.08648 0.64131 0.0
C833 C 0.60936 0.13894 0.6314 0.0
C834 C 0.59975 0.14329 0.61148 0.0
C835 C 0.60437 0.11998 0.64246 0.0
C836 C 0.56403 0.07653 0.64589 0.0
H837 H 0.58961 0.97927 0.69723 0.0
H838 H 0.59613 0.01723 0.68948 0.0
H839 H 0.54371 0.04992 0.65352 0.0
H840 H 0.5766 0.13192 0.58808 0.0
H841 H 0.56764 0.09929 0.60742 0.0
H842 H 0.61871 0.07667 0.64949 0.0
C843 C 0.5845 0.00857 0.67989 0.0
C844 C 0.56015 0.05556 0.65277 0.0
C845 C 0.58068 0.98689 0.68439 0.0
C846 C 0.58434 0.12895 0.60335 0.0
C847 C 0.57911 0.1103 0.6145 0.0
C848 C 0.60225 0.07113 0.65076 0.0
C849 C 0.57321 0.01896 0.66333 0.0
C850 C 0.5773 0.0419 0.65818 0.0
C851 C 0.58935 0.10538 0.63396 0.0
C852 C 0.58514 0.08437 0.64433 0.0
H853 H 0.54273 0.97685 0.6462 0.0
H854 H 0.54946 0.01455 0.63821 0.0
H855 H 0.61196 0.03992 0.66149 0.0
H856 H 0.62135 0.14969 0.63795 0.0
H857 H 0.61243 0.11658 0.65748 0.0
C858 C 0.90848 0.89379 0.09611 0.0
C859 C 0.90924 0.87423 0.10736 0.0
C860 C 0.91411 0.91294 0.10605 0.0
C861 C 0.91989 0.94137 0.1565 0.0
H862 H 0.95849 0.97686 0.12283 0.0
C863 C 0.94967 0.02593 0.18392 0.0
C864 C 0.95012 0.0417 0.16782 0.0
C865 C 0.94576 1.00439 0.17868 0.0
C866 C 0.9476 0.96724 0.1324 0.0
H867 H 0.91557 0.85966 0.13831 0.0
H868 H 0.92555 0.89369 0.15592 0.0
H869 H 0.94945 0.94097 0.11044 0.0
H870 H 0.94622 0.04753 0.13376 0.0
H871 H 0.93907 0.01025 0.12466 0.0
H872 H 0.91757 0.96808 0.17816 0.0
C873 C 0.9206 0.89387 0.13926 0.0
C874 C 0.94252 0.94664 0.12535 0.0
C875 C 0.91493 0.87446 0.12921 0.0
C876 C 0.94631 0.03567 0.14647 0.0
C877 C 0.94229 0.01427 0.14126 0.0
C878 C 0.92494 0.96216 0.16357 0.0
C879 C 0.9207 0.91318 0.12755 0.0
C880 C 0.92818 0.9337 0.13699 0.0
C881 C 0.94218 0.99832 0.15724 0.0
C882 C 0.93841 0.97551 0.15125 0.0
H883 H 0.90376 0.89438 0.07939 0.0
H884 H 0.91351 0.92765 0.09679 0.0
H885 H 0.90876 0.93171 0.16574 0.0
H886 H 0.95248 0.0302 0.20053 0.0
H887 H 0.94587 0.99248 0.19133 0.0
C888 C 0.33168 0.06389 0.52533 0.0
C889 C 0.34725 0.06611 0.5415 0.0
C890 C 0.33707 0.06758 0.50385 0.0
C891 C 0.38428 0.06992 0.4681 0.0
H892 H 0.34754 0.10311 0.43028 0.0
C893 C 0.41785 0.10942 0.39387 0.0
C894 C 0.40731 0.10624 0.37419 0.0
C895 C 0.40801 0.10385 0.41305 0.0
C896 C 0.35776 0.09355 0.44059 0.0
H897 H 0.38038 0.07453 0.54813 0.0
H898 H 0.38973 0.08127 0.51084 0.0
H899 H 0.33526 0.09438 0.46666 0.0
H900 H 0.37761 0.0958 0.35928 0.0
H901 H 0.36017 0.08589 0.39337 0.0
H902 H 0.40701 0.06956 0.44244 0.0
C903 C 0.37351 0.07615 0.51456 0.0
C904 C 0.35078 0.08856 0.46138 0.0
C905 C 0.36816 0.07237 0.53594 0.0
C906 C 0.38614 0.09833 0.37422 0.0
C907 C 0.37619 0.09268 0.39364 0.0
C908 C 0.39123 0.07494 0.44749 0.0
C909 C 0.3581 0.0736 0.49824 0.0
C910 C 0.36425 0.07717 0.47552 0.0
C911 C 0.38735 0.09489 0.41315 0.0
C912 C 0.37832 0.08728 0.43374 0.0
H913 H 0.31541 0.0591 0.52926 0.0
H914 H 0.3249 0.06537 0.49163 0.0
H915 H 0.3948 0.06064 0.47838 0.0
H916 H 0.43399 0.11593 0.3945 0.0
H917 H 0.41676 0.10627 0.42789 0.0
C918 C 0.15261 0.95839 0.03039 0.0
C919 C 0.17131 0.94927 0.03904 0.0
C920 C 0.14664 0.95407 0.00928 0.0
C921 C 0.16644 0.93307 0.9573 0.0
H922 H 0.10587 0.92184 0.94809 0.0
C923 C 0.12718 0.92202 0.87305 0.0
C924 C 0.10985 0.90765 0.87194 0.0
C925 C 0.13683 0.9265 0.89288 0.0
C926 C 0.12289 0.92468 0.95037 0.0
H927 H 0.19869 0.92881 0.0324 0.0
H928 H 0.18807 0.92093 0.99546 0.0
H929 H 0.11841 0.93111 0.98367 0.0
H930 H 0.09012 0.88535 0.88989 0.0
H931 H 0.10745 0.89233 0.92411 0.0
H932 H 0.17085 0.92596 0.92392 0.0
C933 C 0.17818 0.93167 1.00492 0.0
C934 C 0.13003 0.93035 0.97075 0.0
C935 C 0.18418 0.93605 0.02608 0.0
C936 C 0.10325 0.89678 0.89048 0.0
C937 C 0.11308 0.9009 0.91008 0.0
C938 C 0.15927 0.92727 0.93682 0.0
C939 C 0.15919 0.94043 0.99638 0.0
C940 C 0.15186 0.93463 0.97449 0.0
C941 C 0.12941 0.91641 0.9117 0.0
C942 C 0.13741 0.92286 0.93319 0.0
H943 H 0.14242 0.9687 0.04002 0.0
H944 H 0.1321 0.96134 1.00309 0.0
H945 H 0.18334 0.93648 0.95966 0.0
H946 H 0.13245 0.9306 0.85888 0.0
H947 H 0.14934 0.93856 0.8936 0.0
C948 C 0.83248 0.43256 0.48702 0.0
C949 C 0.84341 0.44836 0.4752 0.0
C950 C 0.83837 0.42823 0.50825 0.0
C951 C 0.88451 0.43336 0.54463 0.0
H952 H 0.8429 0.42605 0.59042 0.0
C953 C 0.91233 0.43257 0.63108 0.0
C954 C 0.90455 0.4161 0.6443 0.0
C955 C 0.90247 0.437 0.61157 0.0
C956 C 0.85466 0.42787 0.57774 0.0
H957 H 0.86871 0.47227 0.47626 0.0
H958 H 0.87884 0.46489 0.51323 0.0
H959 H 0.83046 0.43223 0.5536 0.0
H960 H 0.87962 0.39215 0.64826 0.0
H961 H 0.86242 0.39963 0.61359 0.0
H962 H 0.9087 0.42899 0.56845 0.0
C963 C 0.86595 0.45562 0.50611 0.0
C964 C 0.84756 0.43138 0.5567 0.0
C965 C 0.86007 0.45994 0.48498 0.0
C966 C 0.88585 0.40498 0.63831 0.0
C967 C 0.87606 0.40926 0.61851 0.0
C968 C 0.89156 0.42985 0.56552 0.0
C969 C 0.85533 0.43958 0.51791 0.0
C970 C 0.86246 0.43453 0.54003 0.0
C971 C 0.88478 0.42482 0.60464 0.0
C972 C 0.87676 0.42748 0.58239 0.0
H973 H 0.8196 0.42336 0.47979 0.0
H974 H 0.83003 0.41567 0.51691 0.0
H975 H 0.89637 0.43518 0.53204 0.0
H976 H 0.92654 0.44161 0.63552 0.0
H977 H 0.90917 0.44954 0.60154 0.0
C978 C 0.68557 0.57063 0.98935 0.0
C979 C 0.66952 0.56587 0.97424 0.0
C980 C 0.6801 0.57495 0.01067 0.0
C981 C 0.63608 0.59523 0.04343 0.0
H982 H 0.66472 0.56712 0.09107 0.0
C983 C 0.61998 0.61992 0.13058 0.0
C984 C 0.61357 0.60291 0.1438 0.0
C985 C 0.62948 0.61574 0.11073 0.0
C986 C 0.65668 0.57511 0.07789 0.0
H987 H 0.63525 0.56161 0.96952 0.0
H988 H 0.62568 0.56959 1.00666 0.0
H989 H 0.67555 0.55876 0.05415 0.0
H990 H 0.61236 0.56839 0.14744 0.0
H991 H 0.62958 0.56095 0.11278 0.0
H992 H 0.61716 0.6115 0.06703 0.0
C993 C 0.64246 0.56996 1.00202 0.0
C994 C 0.66291 0.57042 0.05684 0.0
C995 C 0.64794 0.56534 0.98082 0.0
C996 C 0.61757 0.58168 0.13749 0.0
C997 C 0.62735 0.57748 0.11775 0.0
C998 C 0.63008 0.60014 0.06442 0.0
C999 C 0.65847 0.57488 0.01712 0.0
C1000 C 0.6525 0.58029 0.03944 0.0
C1001 C 0.63282 0.59448 0.10394 0.0
C1002 C 0.64022 0.59002 0.08184 0.0
H1003 H 0.70233 0.5711 0.98468 0.0
H1004 H 0.69272 0.57881 0.022 0.0
H1005 H 0.62791 0.60316 0.03029 0.0
H1006 H 0.6167 0.63639 0.13516 0.0
H1007 H 0.63365 0.6291 0.10041 0.0
C1008 C 0.39353 0.41996 0.09699 0.0
C1009 C 0.37469 0.40814 0.10096 0.0
C1010 C 0.41248 0.40969 0.09125 0.0
C1011 C 0.4421 0.35942 0.09398 0.0
H1012 H 0.47572 0.38662 0.04914 0.0
C1013 C 0.52644 0.32924 0.06648 0.0
C1014 C 0.54188 0.34548 0.0637 0.0
C1015 C 0.50486 0.33454 0.06995 0.0
C1016 C 0.46657 0.37886 0.06174 0.0
H1017 H 0.36117 0.37605 0.10235 0.0
H1018 H 0.39477 0.3579 0.09209 0.0
H1019 H 0.43964 0.39951 0.05678 0.0
H1020 H 0.54709 0.37989 0.0629 0.0
H1021 H 0.5096 0.38914 0.06911 0.0
H1022 H 0.46944 0.33907 0.0992 0.0
C1023 C 0.39458 0.37523 0.09352 0.0
C1024 C 0.44589 0.3862 0.06606 0.0
C1025 C 0.37539 0.38561 0.0993 0.0
C1026 C 0.53548 0.36705 0.06471 0.0
C1027 C 0.51399 0.37233 0.06818 0.0
C1028 C 0.46291 0.35201 0.0896 0.0
C1029 C 0.41322 0.38728 0.0892 0.0
C1030 C 0.43368 0.37701 0.08264 0.0
C1031 C 0.49841 0.35616 0.07065 0.0
C1032 C 0.47555 0.36211 0.07384 0.0
H1033 H 0.39376 0.43731 0.09829 0.0
H1034 H 0.42669 0.41937 0.08855 0.0
H1035 H 0.43305 0.35209 0.10689 0.0
H1036 H 0.53101 0.31247 0.06581 0.0
H1037 H 0.49319 0.32176 0.07172 0.0
C1038 C 0.0298 0.18148 0.93275 0.0
C1039 C 0.04121 0.1719 0.94968 0.0
C1040 C 0.00845 0.17571 0.92872 0.0
C1041 C 0.97091 0.1311 0.93752 0.0
H1042 H 0.92638 0.17257 0.92404 0.0
C1043 C 0.88384 0.10448 0.93363 0.0
C1044 C 0.87166 0.11138 0.91602 0.0
C1045 C 0.90331 0.1143 0.93852 0.0
C1046 C 0.9387 0.16082 0.92761 0.0
H1047 H 0.03923 0.14922 0.97596 0.0
H1048 H 1.00197 0.13929 0.96909 0.0
H1049 H 0.96321 0.18488 0.93069 0.0
H1050 H 0.86956 0.13464 0.89032 0.0
H1051 H 0.90415 0.15172 0.89857 0.0
H1052 H 0.94677 0.10702 0.93425 0.0
C1053 C 0.00955 0.15102 0.95873 0.0
C1054 C 0.95975 0.16785 0.93141 0.0
C1055 C 0.03083 0.15678 0.96274 0.0
C1056 C 0.87865 0.12916 0.90408 0.0
C1057 C 0.89843 0.13888 0.9088 0.0
C1058 C 0.95001 0.12411 0.93369 0.0
C1059 C 0.99819 0.16023 0.94153 0.0
C1060 C 0.97599 0.15304 0.93669 0.0
C1061 C 0.91129 0.13101 0.92565 0.0
C1062 C 0.93357 0.13887 0.92901 0.0
H1063 H 0.03748 0.19314 0.92237 0.0
H1064 H 1.00017 0.18292 0.91524 0.0
H1065 H 0.98317 0.11925 0.941 0.0
H1066 H 0.87862 0.09099 0.94325 0.0
H1067 H 0.91249 0.10829 0.95201 0.0
C1068 C 0.62105 0.91741 0.40513 0.0
C1069 C 0.64055 0.90622 0.4072 0.0
C1070 C 0.6017 0.90766 0.41043 0.0
C1071 C 0.57329 0.85736 0.41822 0.0
H1072 H 0.53698 0.89287 0.45436 0.0
C1073 C 0.489 0.83066 0.44888 0.0
C1074 C 0.47297 0.84651 0.44807 0.0
C1075 C 0.51047 0.83599 0.44486 0.0
C1076 C 0.54684 0.8828 0.44416 0.0
H1077 H 0.65495 0.87557 0.4153 0.0
H1078 H 0.6206 0.85832 0.42475 0.0
H1079 H 0.57289 0.90509 0.44509 0.0
H1080 H 0.46655 0.88016 0.44188 0.0
H1081 H 0.50381 0.88941 0.43454 0.0
H1082 H 0.54683 0.8353 0.41686 0.0
C1083 C 0.62058 0.87475 0.41904 0.0
C1084 C 0.56743 0.88976 0.43893 0.0
C1085 C 0.64015 0.88459 0.41367 0.0
C1086 C 0.47865 0.86768 0.44292 0.0
C1087 C 0.50001 0.87298 0.4388 0.0
C1088 C 0.55252 0.85038 0.42341 0.0
C1089 C 0.60129 0.88647 0.41799 0.0
C1090 C 0.58064 0.8774 0.42548 0.0
C1091 C 0.5162 0.85726 0.43992 0.0
C1092 C 0.53891 0.86333 0.436 0.0
H1093 H 0.62071 0.93395 0.39973 0.0
H1094 H 0.58701 0.91688 0.40893 0.0
H1095 H 0.58319 0.84757 0.4078 0.0
H1096 H 0.48498 0.81419 0.45281 0.0
H1097 H 0.5226 0.82357 0.44596 0.0
C1098 C 0.98461 0.65507 0.55154 0.0
C1099 C 0.974 0.66989 0.56477 0.0
C1100 C 1.00596 0.64952 0.55555 0.0
C1101 C 0.05547 0.66675 0.58326 0.0
H1102 H 0.06958 0.60626 0.57917 0.0
C1103 C 0.13731 0.62919 0.60996 0.0
C1104 C 0.14459 0.61163 0.59786 0.0
C1105 C 0.11737 0.63863 0.60531 0.0
C1106 C 0.06604 0.62327 0.58008 0.0
H1107 H 0.97738 0.69077 0.59241 0.0
H1108 H 0.01477 0.6809 0.59955 0.0
H1109 H 0.03297 0.61793 0.57262 0.0
H1110 H 0.13798 0.59131 0.57045 0.0
H1111 H 0.10386 0.60823 0.56177 0.0
H1112 H 0.08874 0.67196 0.59076 0.0
C1113 C 1.00664 0.67377 0.58594 0.0
C1114 C 0.045 0.62994 0.57636 0.0
C1115 C 0.98523 0.67933 0.58191 0.0
C1116 C 0.13255 0.60469 0.58016 0.0
C1117 C 0.11292 0.61426 0.57533 0.0
C1118 C 0.07665 0.66004 0.58694 0.0
C1119 C 0.01715 0.65863 0.57292 0.0
C1120 C 0.0395 0.65176 0.57765 0.0
C1121 C 0.10465 0.63072 0.58837 0.0
C1122 C 0.08221 0.63823 0.58508 0.0
H1123 H 0.97637 0.64763 0.53816 0.0
H1124 H 0.01372 0.63806 0.54502 0.0
H1125 H 0.0517 0.6837 0.58433 0.0
H1126 H 0.14629 0.63467 0.6238 0.0
H1127 H 0.11145 0.65128 0.61567 0.0
C1128 C 0.95612 0.48202 0.65108 0.0
C1129 C 0.95185 0.47419 0.67174 0.0
C1130 C 0.95239 0.50354 0.64612 0.0
C1131 C 0.92146 0.5511 0.66245 0.0
H1132 H 0.96252 0.58035 0.62591 0.0
C1133 C 0.9097 0.63878 0.63095 0.0
C1134 C 0.91307 0.64062 0.60871 0.0
C1135 C 0.91566 0.61993 0.6418 0.0
C1136 C 0.95091 0.57242 0.63616 0.0
H1137 H 0.94017 0.48259 0.7034 0.0
H1138 H 0.93378 0.52043 0.69475 0.0
H1139 H 0.9704 0.54429 0.63873 0.0
H1140 H 0.92568 0.62427 0.58058 0.0
H1141 H 0.93579 0.59187 0.59928 0.0
H1142 H 0.90171 0.57919 0.65928 0.0
C1143 C 0.93991 0.50986 0.68238 0.0
C1144 C 0.95539 0.55174 0.64344 0.0
C1145 C 0.94366 0.48826 0.68735 0.0
C1146 C 0.92277 0.62346 0.59769 0.0
C1147 C 0.92878 0.60488 0.60846 0.0
C1148 C 0.91695 0.57188 0.65511 0.0
C1149 C 0.94434 0.51774 0.66172 0.0
C1150 C 0.94047 0.5406 0.65616 0.0
C1151 C 0.92532 0.60283 0.6306 0.0
C1152 C 0.93137 0.58247 0.64137 0.0
H1153 H 0.96219 0.47148 0.63865 0.0
H1154 H 0.95554 0.509 0.62992 0.0
H1155 H 0.90962 0.54289 0.6722 0.0
H1156 H 0.90221 0.65171 0.63986 0.0
H1157 H 0.91284 0.61876 0.6589 0.0
C1158 C 0.57062 0.53522 0.14742 0.0
C1159 C 0.56591 0.54099 0.16865 0.0
C1160 C 0.57431 0.51381 0.14207 0.0
C1161 C 0.58958 0.46121 0.16422 0.0
H1162 H 0.56621 0.44111 0.11016 0.0
C1163 C 0.59954 0.37406 0.12886 0.0
C1164 C 0.60585 0.37417 0.10719 0.0
C1165 C 0.59375 0.39333 0.13906 0.0
C1166 C 0.5728 0.44648 0.12534 0.0
H1167 H 0.56161 0.52908 0.20103 0.0
H1168 H 0.56777 0.49138 0.19157 0.0
H1169 H 0.55745 0.47701 0.12275 0.0
H1170 H 0.61236 0.39468 0.07972 0.0
H1171 H 0.60243 0.42776 0.09737 0.0
H1172 H 0.60524 0.43052 0.16643 0.0
C1173 C 0.56879 0.50348 0.17913 0.0
C1174 C 0.56787 0.46706 0.13249 0.0
C1175 C 0.56517 0.52499 0.18452 0.0
C1176 C 0.60715 0.39388 0.09628 0.0
C1177 C 0.60141 0.4129 0.10636 0.0
C1178 C 0.59449 0.44046 0.15703 0.0
C1179 C 0.57323 0.49766 0.1578 0.0
C1180 C 0.57669 0.47491 0.15168 0.0
C1181 C 0.59417 0.41281 0.12765 0.0
C1182 C 0.58664 0.43321 0.1372 0.0
H1183 H 0.57162 0.54728 0.13493 0.0
H1184 H 0.5782 0.50993 0.12558 0.0
H1185 H 0.59662 0.46684 0.17908 0.0
H1186 H 0.59851 0.35912 0.13769 0.0
H1187 H 0.58832 0.39293 0.15556 0.0
C1188 C 0.44543 0.03628 0.36613 0.0
C1189 C 0.45091 0.04202 0.34507 0.0
C1190 C 0.44127 0.01491 0.37134 0.0
C1191 C 0.42653 0.96219 0.34856 0.0
H1192 H 0.4468 0.94232 0.40392 0.0
C1193 C 0.41553 0.87491 0.38374 0.0
C1194 C 0.40815 0.87498 0.40507 0.0
C1195 C 0.42142 0.89426 0.37373 0.0
C1196 C 0.44106 0.94763 0.38838 0.0
H1197 H 0.45609 0.03005 0.31284 0.0
H1198 H 0.44919 0.9924 0.32208 0.0
H1199 H 0.45636 0.97811 0.39166 0.0
H1200 H 0.39972 0.89549 0.43202 0.0
H1201 H 0.40984 0.92872 0.41469 0.0
H1202 H 0.41102 0.93146 0.3456 0.0
C1203 C 0.44789 1.0045 0.33448 0.0
C1204 C 0.44644 0.96817 0.3814 0.0
C1205 C 0.45194 0.026 0.32923 0.0
C1206 C 0.40578 0.89474 0.41574 0.0
C1207 C 0.41161 0.91384 0.40584 0.0
C1208 C 0.42119 0.94146 0.35555 0.0
C1209 C 0.44267 0.99871 0.35566 0.0
C1210 C 0.43874 0.97596 0.36171 0.0
C1211 C 0.42002 0.9138 0.38498 0.0
C1212 C 0.42792 0.93428 0.37582 0.0
H1213 H 0.44419 0.04834 0.3786 0.0
H1214 H 0.43675 0.01112 0.38768 0.0
H1215 H 0.42033 0.96773 0.3333 0.0
H1216 H 0.41744 0.85993 0.37511 0.0
H1217 H 0.42778 0.89387 0.35756 0.0
C1218 C 0.11091 0.13692 0.88456 0.0
C1219 C 0.10092 0.14254 0.90398 0.0
C1220 C 0.10652 0.117 0.87494 0.0
C1221 C 0.08853 0.0632 0.89117 0.0
H1222 H 0.08015 0.05212 0.83055 0.0
C1223 C 0.05646 0.98241 0.86166 0.0
C1224 C 0.06626 0.97311 0.84365 0.0
C1225 C 0.06112 1.00355 0.86745 0.0
C1226 C 0.0827 0.05497 0.8475 0.0
H1227 H 0.07716 0.13282 0.92751 0.0
H1228 H 0.06922 0.0986 0.91062 0.0
H1229 H 0.08712 0.08889 0.84289 0.0
H1230 H 0.08837 0.97864 0.81735 0.0
H1231 H 0.09663 0.01572 0.82758 0.0
H1232 H 0.08413 0.02954 0.89595 0.0
C1233 C 0.08095 0.10906 0.90315 0.0
C1234 C 0.08667 0.07599 0.85454 0.0
C1235 C 0.08542 0.12871 0.91276 0.0
C1236 C 0.08056 0.98546 0.8313 0.0
C1237 C 0.08521 1.00668 0.8371 0.0
C1238 C 0.08459 0.04233 0.88418 0.0
C1239 C 0.09201 0.10259 0.88461 0.0
C1240 C 0.0892 0.08035 0.87652 0.0
C1241 C 0.07571 0.01586 0.85538 0.0
C1242 C 0.08123 0.038 0.86233 0.0
H1243 H 0.12291 0.14732 0.87749 0.0
H1244 H 0.11523 0.11246 0.8606 0.0
H1245 H 0.09102 0.06594 0.90815 0.0
H1246 H 0.04532 0.9733 0.87142 0.0
H1247 H 0.05325 0.01027 0.88143 0.0
C1248 C 0.673 0.92818 0.48345 0.0
C1249 C 0.67633 0.94896 0.4754 0.0
C1250 C 0.66816 0.92504 0.50512 0.0
C1251 C 0.64629 0.95447 0.55186 0.0
H1252 H 0.66203 0.90242 0.58219 0.0
C1253 C 0.59944 0.92565 0.6249 0.0
C1254 C 0.61007 0.91535 0.64193 0.0
C1255 C 0.61043 0.93118 0.60628 0.0
C1256 C 0.6578 0.91722 0.5741 0.0
H1257 H 0.67815 0.98269 0.4837 0.0
H1258 H 0.67044 0.97725 0.52167 0.0
H1259 H 0.67677 0.90926 0.54657 0.0
H1260 H 0.6408 0.90316 0.65289 0.0
H1261 H 0.66026 0.91312 0.6201 0.0
H1262 H 0.62759 0.9626 0.5794 0.0
C1263 C 0.6709 0.96336 0.51122 0.0
C1264 C 0.66599 0.921 0.55353 0.0
C1265 C 0.67544 0.96651 0.48949 0.0
C1266 C 0.63219 0.91112 0.64006 0.0
C1267 C 0.64327 0.91668 0.62125 0.0
C1268 C 0.6383 0.95079 0.57243 0.0
C1269 C 0.66683 0.94262 0.51927 0.0
C1270 C 0.65996 0.93946 0.54195 0.0
C1271 C 0.63244 0.9267 0.60411 0.0
C1272 C 0.64347 0.93186 0.58359 0.0
H1273 H 0.6735 0.91437 0.47288 0.0
H1274 H 0.66476 0.90889 0.51058 0.0
H1275 H 0.64105 0.96875 0.54346 0.0
H1276 H 0.58244 0.92927 0.62578 0.0
H1277 H 0.60145 0.93849 0.59332 0.0
C1278 C 0.89209 0.1163 0.13104 0.0
C1279 C 0.90111 0.10025 0.14392 0.0
C1280 C 0.8825 0.11096 0.11147 0.0
C1281 C 0.88459 0.06776 0.07076 0.0
H1282 H 0.83898 0.10077 0.04423 0.0
C1283 C 0.86737 0.06167 0.98047 0.0
C1284 C 0.84594 0.06273 0.97355 0.0
C1285 C 0.8726 0.06583 1.00184 0.0
C1286 C 0.85154 0.09118 0.05148 0.0
H1287 H 0.9065 0.06616 0.14748 0.0
H1288 H 0.88877 0.05652 0.11386 0.0
H1289 H 0.84889 0.10795 0.08134 0.0
H1290 H 0.81313 0.06882 0.98347 0.0
H1291 H 0.82214 0.07542 0.02102 0.0
H1292 H 0.88687 0.05058 0.04121 0.0
C1293 C 0.88959 0.0733 0.11834 0.0
C1294 C 0.85742 0.09549 0.07271 0.0
C1295 C 0.89948 0.07872 0.1377 0.0
C1296 C 0.82979 0.06788 0.98841 0.0
C1297 C 0.83499 0.07184 0.00987 0.0
C1298 C 0.87856 0.0633 0.04967 0.0
C1299 C 0.88165 0.08942 0.1046 0.0
C1300 C 0.87418 0.08396 0.08256 0.0
C1301 C 0.85648 0.07088 0.01685 0.0
C1302 C 0.86215 0.07512 0.03965 0.0
H1303 H 0.89357 0.13306 0.13551 0.0
H1304 H 0.87685 0.12385 0.10127 0.0
H1305 H 0.89783 0.05878 0.07757 0.0
H1306 H 0.88017 0.05792 0.9693 0.0
H1307 H 0.88936 0.06539 1.0065 0.0
C1308 C 0.18415 0.57994 0.52787 0.0
C1309 C 0.17234 0.56481 0.53974 0.0
C1310 C 0.17927 0.58374 0.50629 0.0
C1311 C 0.15175 0.55927 0.45968 0.0
H1312 H 0.14846 0.61771 0.43842 0.0
C1313 C 0.10368 0.58259 0.38497 0.0
C1314 C 0.11179 0.59836 0.37104 0.0
C1315 C 0.11444 0.57753 0.4039 0.0
C1316 C 0.14972 0.60129 0.444 0.0
H1317 H 0.14612 0.54195 0.5385 0.0
H1318 H 0.13752 0.54863 0.50093 0.0
H1319 H 0.16033 0.6111 0.4752 0.0
H1320 H 0.13791 0.62072 0.36561 0.0
H1321 H 0.15679 0.61197 0.3991 0.0
H1322 H 0.14056 0.5495 0.42873 0.0
C1323 C 0.15076 0.55733 0.50813 0.0
C1324 C 0.15646 0.59749 0.46508 0.0
C1325 C 0.15559 0.55358 0.52968 0.0
C1326 C 0.13136 0.60845 0.37604 0.0
C1327 C 0.14204 0.60357 0.39525 0.0
C1328 C 0.14498 0.56306 0.43867 0.0
C1329 C 0.16256 0.57243 0.49616 0.0
C1330 C 0.15713 0.57645 0.47329 0.0
C1331 C 0.1335 0.58824 0.40949 0.0
C1332 C 0.14346 0.58413 0.43074 0.0
H1333 H 0.1971 0.5889 0.53527 0.0
H1334 H 0.18874 0.59538 0.4975 0.0
H1335 H 0.15253 0.54285 0.46536 0.0
H1336 H 0.0887 0.57445 0.38146 0.0
H1337 H 0.10732 0.56582 0.4146 0.0
C1338 C 0.36122 0.46006 0.02971 0.0
C1339 C 0.34516 0.44806 0.03998 0.0
C1340 C 0.36683 0.45563 0.00853 0.0
C1341 C 0.34825 0.42982 0.9587 0.0
H1342 H 0.40912 0.43006 0.94544 0.0
C1343 C 0.38586 0.40344 0.87675 0.0
C1344 C 0.40387 0.41528 0.8701 0.0
C1345 C 0.37629 0.40774 0.89666 0.0
C1346 C 0.39204 0.43018 0.9488 0.0
H1347 H 0.32219 0.42215 0.03622 0.0
H1348 H 0.33222 0.4142 0.99905 0.0
H1349 H 0.39743 0.4363 0.98205 0.0
H1350 H 0.42477 0.44204 0.87777 0.0
H1351 H 0.40776 0.44998 0.91195 0.0
H1352 H 0.34302 0.42365 0.92521 0.0
C1353 C 0.34027 0.42719 0.00735 0.0
C1354 C 0.38535 0.43373 0.9698 0.0
C1355 C 0.33462 0.43167 0.02861 0.0
C1356 C 0.41111 0.43246 0.88274 0.0
C1357 C 0.40146 0.4369 0.90236 0.0
C1358 C 0.35499 0.42625 0.93755 0.0
C1359 C 0.35658 0.43903 0.99717 0.0
C1360 C 0.3634 0.43395 0.97495 0.0
C1361 C 0.38455 0.42404 0.90997 0.0
C1362 C 0.37696 0.4268 0.93235 0.0
H1363 H 0.36951 0.47288 0.03806 0.0
H1364 H 0.3792 0.46528 1.00101 0.0
H1365 H 0.33121 0.42993 0.96222 0.0
H1366 H 0.38007 0.39006 0.86725 0.0
H1367 H 0.36325 0.39759 0.90211 0.0
C1368 C 0.63609 0.62916 0.90234 0.0
C1369 C 0.64335 0.61176 0.9147 0.0
C1370 C 0.6161 0.63861 0.90677 0.0
C1371 C 0.5647 0.62324 0.93157 0.0
H1372 H 0.55036 0.68373 0.92829 0.0
C1373 C 0.48333 0.65447 0.96068 0.0
C1374 C 0.4727 0.66954 0.94777 0.0
C1375 C 0.50467 0.64901 0.95654 0.0
C1376 C 0.55413 0.66677 0.92907 0.0
H1377 H 0.63664 0.59193 0.94239 0.0
H1378 H 0.60241 0.60871 0.95058 0.0
H1379 H 0.58742 0.67209 0.92167 0.0
H1380 H 0.47605 0.69098 0.92058 0.0
H1381 H 0.51343 0.68126 0.91318 0.0
H1382 H 0.53164 0.61777 0.9389 0.0
C1383 C 0.61154 0.61459 0.937 0.0
C1384 C 0.57531 0.66012 0.92529 0.0
C1385 C 0.63122 0.60505 0.93241 0.0
C1386 C 0.48391 0.67933 0.93082 0.0
C1387 C 0.50531 0.67385 0.92665 0.0
C1388 C 0.54366 0.62984 0.93535 0.0
C1389 C 0.60331 0.63085 0.92372 0.0
C1390 C 0.58086 0.6383 0.92684 0.0
C1391 C 0.51584 0.65846 0.93935 0.0
C1392 C 0.53817 0.65168 0.93444 0.0
H1393 H 0.64519 0.63456 0.88855 0.0
H1394 H 0.6102 0.65114 0.89627 0.0
H1395 H 0.56828 0.60623 0.93227 0.0
H1396 H 0.47511 0.64677 0.97394 0.0
H1397 H 0.51245 0.63736 0.96684 0.0
C1398 C 0.98575 0.83331 0.08078 0.0
C1399 C 0.97389 0.84407 0.06489 0.0
C1400 C 1.00705 0.83917 0.08502 0.0
C1401 C 0.04374 0.88509 0.07945 0.0
H1402 H 0.08927 0.84341 0.08807 0.0
C1403 C 0.13071 0.91243 0.08168 0.0
C1404 C 0.14381 0.90444 0.09817 0.0
C1405 C 0.11103 0.90284 0.07712 0.0
C1406 C 0.07668 0.85521 0.0859 0.0
H1407 H 0.97503 0.86903 0.0407 0.0
H1408 H 0.01215 0.87914 0.04794 0.0
H1409 H 0.05244 0.83107 0.08147 0.0
H1410 H 0.14726 0.87943 0.12207 0.0
H1411 H 0.11233 0.86273 0.11435 0.0
H1412 H 0.06765 0.90922 0.08396 0.0
C1413 C 1.00498 0.86638 0.05734 0.0
C1414 C 0.05561 0.84816 0.08213 0.0
C1415 C 0.98376 0.86053 0.0531 0.0
C1416 C 0.13744 0.88584 0.10923 0.0
C1417 C 0.11748 0.87633 0.10482 0.0
C1418 C 0.06466 0.8921 0.08324 0.0
C1419 C 0.0168 0.85594 0.07349 0.0
C1420 C 0.039 0.86307 0.07853 0.0
C1421 C 0.10378 0.88521 0.08917 0.0
C1422 C 0.08146 0.87728 0.08614 0.0
H1423 H 0.97848 0.82059 0.09015 0.0
H1424 H 0.01569 0.83095 0.09767 0.0
H1425 H 0.03122 0.89698 0.0773 0.0
H1426 H 0.13541 0.92654 0.07266 0.0
H1427 H 0.10119 0.90967 0.06452 0.0
C1428 C 0.38812 0.11507 0.62076 0.0
C1429 C 0.3726 0.11282 0.60465 0.0
C1430 C 0.40792 0.12448 0.61613 0.0
C1431 C 0.4381 0.15651 0.57626 0.0
H1432 H 0.4867 0.12408 0.59795 0.0
C1433 C 0.52677 0.18431 0.56812 0.0
C1434 C 0.54179 0.16841 0.5626 0.0
C1435 C 0.50551 0.17873 0.57277 0.0
C1436 C 0.4733 0.13324 0.59168 0.0
H1437 H 0.36497 0.11874 0.57134 0.0
H1438 H 0.39981 0.13523 0.56304 0.0
H1439 H 0.45037 0.11321 0.60747 0.0
H1440 H 0.5464 0.13432 0.55726 0.0
H1441 H 0.50932 0.12456 0.56539 0.0
H1442 H 0.46121 0.17633 0.56015 0.0
C1443 C 0.39659 0.13014 0.57934 0.0
C1444 C 0.45249 0.12719 0.59736 0.0
C1445 C 0.37671 0.12076 0.58403 0.0
C1446 C 0.53515 0.1469 0.56148 0.0
C1447 C 0.51396 0.14131 0.56626 0.0
C1448 C 0.45899 0.16266 0.57066 0.0
C1449 C 0.41261 0.13155 0.59522 0.0
C1450 C 0.43466 0.13871 0.58968 0.0
C1451 C 0.49897 0.15714 0.57214 0.0
C1452 C 0.47678 0.15098 0.57821 0.0
H1453 H 0.38519 0.10884 0.63672 0.0
H1454 H 0.41982 0.12564 0.62876 0.0
H1455 H 0.42466 0.16573 0.57017 0.0
H1456 H 0.53151 0.20102 0.56913 0.0
H1457 H 0.49434 0.19124 0.57742 0.0
C1458 C 0.87841 0.38636 0.405 0.0
C1459 C 0.87115 0.40398 0.41702 0.0
C1460 C 0.8983 0.37688 0.40969 0.0
C1461 C 0.94964 0.39142 0.43582 0.0
H1462 H 0.96324 0.33094 0.42998 0.0
C1463 C 0.03049 0.35764 0.46387 0.0
C1464 C 0.0411 0.34344 0.44998 0.0
C1465 C 0.00917 0.36346 0.46006 0.0
C1466 C 0.95966 0.3479 0.43152 0.0
H1467 H 0.87784 0.42442 0.44433 0.0
H1468 H 0.91185 0.40737 0.45316 0.0
H1469 H 0.92643 0.34332 0.42359 0.0
H1470 H 0.03773 0.32387 0.4214 0.0
H1471 H 1.00037 0.33417 0.41465 0.0
H1472 H 0.98269 0.39607 0.4438 0.0
C1473 C 0.90283 0.40136 0.43956 0.0
C1474 C 0.93861 0.35499 0.42785 0.0
C1475 C 0.88326 0.41102 0.43465 0.0
C1476 C 0.02988 0.33481 0.43241 0.0
C1477 C 0.0085 0.34063 0.4286 0.0
C1478 C 0.97054 0.38434 0.43959 0.0
C1479 C 0.91103 0.38474 0.42665 0.0
C1480 C 0.93331 0.37683 0.43019 0.0
C1481 C 0.99801 0.35522 0.44225 0.0
C1482 C 0.97577 0.3625 0.43768 0.0
H1483 H 0.86939 0.3808 0.39122 0.0
H1484 H 0.90414 0.36415 0.39938 0.0
H1485 H 0.94635 0.40845 0.43712 0.0
H1486 H 0.03872 0.36444 0.4776 0.0
H1487 H 1.00142 0.37448 0.47106 0.0
C1488 C 0.22733 0.40399 0.22312 0.0
C1489 C 0.24776 0.39754 0.216 0.0
C1490 C 0.21813 0.39458 0.24146 0.0
C1491 C 0.22097 0.34589 0.27556 0.0
H1492 H 0.19542 0.38184 0.31938 0.0
C1493 C 0.19553 0.31173 0.35872 0.0
C1494 C 0.17726 0.32068 0.36851 0.0
C1495 C 0.20408 0.32086 0.33994 0.0
C1496 C 0.20217 0.37144 0.3072 0.0
H1497 H 0.27444 0.37621 0.22263 0.0
H1498 H 0.25851 0.35982 0.25413 0.0
H1499 H 0.20915 0.39815 0.28663 0.0
H1500 H 0.15323 0.34583 0.36567 0.0
H1501 H 0.16754 0.36109 0.333 0.0
H1502 H 0.21375 0.31912 0.29588 0.0
C1503 C 0.24947 0.37198 0.2456 0.0
C1504 C 0.21008 0.38087 0.2884 0.0
C1505 C 0.25868 0.3815 0.22754 0.0
C1506 C 0.16756 0.33867 0.35886 0.0
C1507 C 0.17588 0.34757 0.34006 0.0
C1508 C 0.21284 0.33641 0.29427 0.0
C1509 C 0.22909 0.37837 0.25284 0.0
C1510 C 0.21967 0.36824 0.27238 0.0
C1511 C 0.19439 0.339 0.33037 0.0
C1512 C 0.20335 0.34904 0.31042 0.0
H1513 H 0.21852 0.41632 0.21459 0.0
H1514 H 0.20234 0.3998 0.24659 0.0
H1515 H 0.2281 0.33566 0.26344 0.0
H1516 H 0.20341 0.29789 0.36572 0.0
H1517 H 0.21849 0.31388 0.33314 0.0
C1518 C 0.31736 0.70317 0.86057 0.0
C1519 C 0.33731 0.6959 0.86829 0.0
C1520 C 0.30841 0.69425 0.84187 0.0
C1521 C 0.32237 0.66675 0.79173 0.0
H1522 H 0.26537 0.64187 0.79417 0.0
C1523 C 0.28928 0.61499 0.72167 0.0
C1524 C 0.2671 0.61546 0.71759 0.0
C1525 C 0.29777 0.62505 0.73997 0.0
C1526 C 0.28115 0.64907 0.79292 0.0
H1527 H 0.36381 0.6741 0.86196 0.0
H1528 H 0.3485 0.65914 0.82925 0.0
H1529 H 0.27977 0.66045 0.82541 0.0
H1530 H 0.23643 0.62681 0.72952 0.0
H1531 H 0.25111 0.64516 0.76052 0.0
H1532 H 0.32373 0.65605 0.75917 0.0
C1533 C 0.33964 0.67146 0.83776 0.0
C1534 C 0.28941 0.65967 0.81096 0.0
C1535 C 0.34831 0.67996 0.85661 0.0
C1536 C 0.25361 0.62613 0.73219 0.0
C1537 C 0.26209 0.63651 0.75019 0.0
C1538 C 0.31398 0.65652 0.77353 0.0
C1539 C 0.31953 0.67834 0.83026 0.0
C1540 C 0.31017 0.66845 0.81063 0.0
C1541 C 0.28431 0.63614 0.75447 0.0
C1542 C 0.29327 0.64733 0.77386 0.0
H1543 H 0.3085 0.71542 0.86918 0.0
H1544 H 0.29289 0.6999 0.83638 0.0
H1545 H 0.33841 0.67348 0.79098 0.0
H1546 H 0.30008 0.60681 0.71075 0.0
H1547 H 0.3149 0.62393 0.74277 0.0
C1548 C 0.66777 0.17805 0.65672 0.0
C1549 C 0.67846 0.1944 0.64534 0.0
C1550 C 0.67648 0.16955 0.67553 0.0
C1551 C 0.7269 0.1595 0.70304 0.0
H1552 H 0.6916 0.15319 0.75392 0.0
C1553 C 0.76254 0.12699 0.78218 0.0
C1554 C 0.74937 0.11517 0.79616 0.0
C1555 C 0.75393 0.13718 0.76416 0.0
C1556 C 0.70164 0.15444 0.7398 0.0
H1557 H 0.70676 0.2147 0.645 0.0
H1558 H 0.7224 0.19927 0.67777 0.0
H1559 H 0.67677 0.17037 0.72205 0.0
H1560 H 0.71685 0.10426 0.80188 0.0
H1561 H 0.70184 0.12109 0.76978 0.0
H1562 H 0.75146 0.14279 0.72016 0.0
C1563 C 0.70712 0.19323 0.67203 0.0
C1564 C 0.69315 0.16449 0.72158 0.0
C1565 C 0.69816 0.20209 0.65333 0.0
C1566 C 0.72738 0.11337 0.79145 0.0
C1567 C 0.71878 0.12323 0.77312 0.0
C1568 C 0.73528 0.14909 0.72111 0.0
C1569 C 0.69631 0.17691 0.68334 0.0
C1570 C 0.70568 0.16714 0.70301 0.0
C1571 C 0.73191 0.13545 0.75925 0.0
C1572 C 0.72281 0.1464 0.73983 0.0
H1573 H 0.65247 0.17188 0.65119 0.0
H1574 H 0.66786 0.1569 0.68379 0.0
H1575 H 0.73682 0.16103 0.68885 0.0
H1576 H 0.77956 0.12871 0.78535 0.0
H1577 H 0.76459 0.14673 0.75431 0.0
C1578 C 0.84207 0.84043 0.15132 0.0
C1579 C 0.83788 0.819 0.1454 0.0
C1580 C 0.8332 0.84922 0.16992 0.0
C1581 C 0.80906 0.83529 0.22242 0.0
H1582 H 0.79007 0.89457 0.22043 0.0
C1583 C 0.78682 0.88347 0.2993 0.0
C1584 C 0.76946 0.89784 0.29794 0.0
C1585 C 0.79479 0.8733 0.28085 0.0
C1586 C 0.79508 0.87794 0.22131 0.0
H1587 H 0.82099 0.79001 0.15478 0.0
H1588 H 0.80528 0.80552 0.18736 0.0
H1589 H 0.80346 0.87749 0.18806 0.0
H1590 H 0.74674 0.91268 0.27618 0.0
H1591 H 0.76034 0.89487 0.24417 0.0
H1592 H 0.80024 0.83572 0.25568 0.0
C1593 C 0.81564 0.81543 0.17753 0.0
C1594 C 0.80304 0.86818 0.20273 0.0
C1595 C 0.82455 0.80657 0.15877 0.0
C1596 C 0.76028 0.90186 0.27775 0.0
C1597 C 0.76816 0.89167 0.25935 0.0
C1598 C 0.80105 0.84508 0.24107 0.0
C1599 C 0.81979 0.83693 0.18328 0.0
C1600 C 0.81031 0.84678 0.20302 0.0
C1601 C 0.78554 0.87724 0.26059 0.0
C1602 C 0.79401 0.86659 0.24079 0.0
H1603 H 0.85236 0.85055 0.14162 0.0
H1604 H 0.83714 0.86567 0.17398 0.0
H1605 H 0.81466 0.81885 0.22331 0.0
H1606 H 0.7942 0.87999 0.31465 0.0
H1607 H 0.80836 0.86253 0.28244 0.0
C1608 C 0.3551 0.18871 0.30606 0.0
C1609 C 0.3689 0.17616 0.31883 0.0
C1610 C 0.33617 0.19748 0.31473 0.0
C1611 C 0.31068 0.21191 0.36669 0.0
H1612 H 0.25727 0.20924 0.33484 0.0
C1613 C 0.22931 0.2328 0.40666 0.0
C1614 C 0.21394 0.24371 0.39429 0.0
C1615 C 0.24799 0.22454 0.39711 0.0
C1616 C 0.27207 0.21041 0.3439 0.0
H1617 H 0.37336 0.16308 0.35085 0.0
H1618 H 0.34069 0.17824 0.36571 0.0
H1619 H 0.29032 0.19586 0.31856 0.0
H1620 H 0.20607 0.25449 0.36219 0.0
H1621 H 0.23869 0.24059 0.34564 0.0
H1622 H 0.29262 0.2266 0.39195 0.0
C1623 C 0.34453 0.18154 0.34908 0.0
C1624 C 0.29106 0.20271 0.33452 0.0
C1625 C 0.36329 0.17273 0.34046 0.0
C1626 C 0.21754 0.24602 0.37215 0.0
C1627 C 0.23625 0.23793 0.36263 0.0
C1628 C 0.29175 0.21972 0.37602 0.0
C1629 C 0.33068 0.19404 0.33639 0.0
C1630 C 0.31059 0.20319 0.34586 0.0
C1631 C 0.25184 0.22715 0.37496 0.0
C1632 C 0.2721 0.21895 0.36485 0.0
H1633 H 0.35884 0.1917 0.28936 0.0
H1634 H 0.32596 0.20717 0.30452 0.0
H1635 H 0.32548 0.21288 0.37578 0.0
H1636 H 0.22697 0.23072 0.42376 0.0
H1637 H 0.25936 0.21603 0.40712 0.0
C1638 C 0.16058 0.82564 0.80585 0.0
C1639 C 0.14704 0.83877 0.81831 0.0
C1640 C 0.17944 0.8169 0.81466 0.0
C1641 C 0.20508 0.80386 0.86688 0.0
H1642 H 0.25829 0.80487 0.83461 0.0
C1643 C 0.28647 0.78332 0.90691 0.0
C1644 C 0.30163 0.7719 0.89474 0.0
C1645 C 0.26782 0.79148 0.89726 0.0
C1646 C 0.24354 0.80417 0.8438 0.0
H1647 H 0.14299 0.85296 0.84992 0.0
H1648 H 0.17557 0.83788 0.86502 0.0
H1649 H 0.22529 0.81808 0.81812 0.0
H1650 H 0.30911 0.75999 0.86293 0.0
H1651 H 0.27651 0.77369 0.84623 0.0
H1652 H 0.22314 0.7898 0.89248 0.0
C1653 C 0.17155 0.83408 0.84854 0.0
C1654 C 0.22459 0.81178 0.8343 0.0
C1655 C 0.15285 0.84285 0.83977 0.0
C1656 C 0.29783 0.76893 0.87271 0.0
C1657 C 0.27913 0.77689 0.86311 0.0
C1658 C 0.22397 0.79615 0.87633 0.0
C1659 C 0.18512 0.82098 0.83616 0.0
C1660 C 0.20514 0.81189 0.84578 0.0
C1661 C 0.26377 0.78822 0.87523 0.0
C1662 C 0.24355 0.79632 0.86501 0.0
H1663 H 0.15668 0.82217 0.78927 0.0
H1664 H 0.18945 0.80674 0.8047 0.0
H1665 H 0.19033 0.80337 0.87609 0.0
H1666 H 0.28897 0.78589 0.92392 0.0
H1667 H 0.25661 0.80043 0.90709 0.0
C1668 C 0.71798 0.26873 0.64115 0.0
C1669 C 0.71463 0.27079 0.61895 0.0
C1670 C 0.73661 0.27687 0.65076 0.0
C1671 C 0.79229 0.29461 0.63776 0.0
H1672 H 0.79029 0.31936 0.69482 0.0
C1673 C 0.86362 0.34168 0.6735 0.0
C1674 C 0.86892 0.33852 0.69524 0.0
C1675 C 0.84492 0.33285 0.66476 0.0
C1676 C 0.79118 0.31227 0.67898 0.0
H1677 H 0.728 0.28335 0.58945 0.0
H1678 H 0.76026 0.29816 0.60624 0.0
H1679 H 0.75736 0.30595 0.67833 0.0
H1680 H 0.85837 0.32354 0.72482 0.0
H1681 H 0.82563 0.30798 0.70946 0.0
H1682 H 0.82605 0.30122 0.63832 0.0
C1683 C 0.74875 0.2898 0.61624 0.0
C1684 C 0.77226 0.30455 0.66948 0.0
C1685 C 0.73016 0.28149 0.60659 0.0
C1686 C 0.85489 0.32625 0.70802 0.0
C1687 C 0.83604 0.31745 0.69924 0.0
C1688 C 0.81114 0.30243 0.6472 0.0
C1689 C 0.75235 0.28745 0.63845 0.0
C1690 C 0.77252 0.29569 0.64867 0.0
C1691 C 0.83086 0.32062 0.67747 0.0
C1692 C 0.81084 0.31146 0.66789 0.0
H1693 H 0.7064 0.26037 0.65109 0.0
H1694 H 0.73888 0.2744 0.6678 0.0
H1695 H 0.7933 0.28748 0.62194 0.0
H1696 H 0.87389 0.3511 0.66309 0.0
H1697 H 0.84131 0.33594 0.64805 0.0
C1698 C 0.65478 0.67041 0.17591 0.0
C1699 C 0.6473 0.67668 0.1963 0.0
C1700 C 0.67376 0.67885 0.16746 0.0
C1701 C 0.71136 0.72454 0.17132 0.0
H1702 H 0.74905 0.68642 0.13956 0.0
C1703 C 0.7797 0.75627 0.11679 0.0
C1704 C 0.79932 0.74509 0.11672 0.0
C1705 C 0.76176 0.74796 0.12749 0.0
C1706 C 0.73885 0.69728 0.14852 0.0
H1707 H 0.65412 0.69707 0.22368 0.0
H1708 H 0.68747 0.7119 0.20881 0.0
H1709 H 0.71718 0.67201 0.15708 0.0
H1710 H 0.81549 0.71636 0.1278 0.0
H1711 H 0.78416 0.70175 0.14647 0.0
H1712 H 0.73317 0.7498 0.16284 0.0
C1713 C 0.67843 0.70042 0.19938 0.0
C1714 C 0.72041 0.68905 0.1584 0.0
C1715 C 0.65936 0.69185 0.20795 0.0
C1716 C 0.80056 0.72529 0.12745 0.0
C1717 C 0.78257 0.71691 0.13811 0.0
C1718 C 0.72981 0.7328 0.16136 0.0
C1719 C 0.68594 0.69387 0.17907 0.0
C1720 C 0.70628 0.70259 0.16974 0.0
C1721 C 0.76294 0.72819 0.13837 0.0
C1722 C 0.74371 0.71931 0.14967 0.0
H1723 H 0.64602 0.6588 0.16635 0.0
H1724 H 0.67877 0.67371 0.15163 0.0
H1725 H 0.70081 0.73546 0.17979 0.0
H1726 H 0.77824 0.77161 0.10872 0.0
H1727 H 0.74687 0.75695 0.12705 0.0
C1728 C 0.38628 0.23015 0.25837 0.0
C1729 C 0.39961 0.21671 0.24608 0.0
C1730 C 0.3769 0.24842 0.24935 0.0
C1731 C 0.36387 0.27419 0.19689 0.0
H1732 H 0.35652 0.32479 0.23245 0.0
C1733 C 0.33893 0.35737 0.16307 0.0
C1734 C 0.3232 0.3689 0.17451 0.0
C1735 C 0.34781 0.33852 0.17149 0.0
C1736 C 0.35827 0.31072 0.22237 0.0
H1737 H 0.41364 0.21193 0.21468 0.0
H1738 H 0.39779 0.24429 0.19895 0.0
H1739 H 0.37349 0.2929 0.24741 0.0
H1740 H 0.30488 0.36979 0.20391 0.0
H1741 H 0.32043 0.33691 0.2188 0.0
H1742 H 0.34904 0.2924 0.17171 0.0
C1743 C 0.39417 0.24046 0.2155 0.0
C1744 C 0.36797 0.29236 0.23095 0.0
C1745 C 0.40341 0.22198 0.22452 0.0
C1746 C 0.31667 0.36114 0.19463 0.0
C1747 C 0.32577 0.34242 0.20321 0.0
C1748 C 0.35437 0.29267 0.18825 0.0
C1749 C 0.38077 0.25397 0.2278 0.0
C1750 C 0.37084 0.27375 0.21839 0.0
C1751 C 0.34143 0.33087 0.19172 0.0
C1752 C 0.35138 0.31113 0.20091 0.0
H1753 H 0.38285 0.22641 0.275 0.0
H1754 H 0.36634 0.25803 0.25927 0.0
H1755 H 0.36542 0.26013 0.18678 0.0
H1756 H 0.3443 0.36283 0.14746 0.0
H1757 H 0.35998 0.33013 0.16231 0.0
C1758 C 0.83778 0.1568 0.84917 0.0
C1759 C 0.81997 0.14695 0.83935 0.0
C1760 C 0.84669 0.17557 0.84077 0.0
C1761 C 0.83619 0.22055 0.80247 0.0
H1762 H 0.89788 0.2282 0.80735 0.0
C1763 C 0.88346 0.28597 0.75632 0.0
C1764 C 0.89854 0.29802 0.76805 0.0
C1765 C 0.87351 0.26803 0.76541 0.0
C1766 C 0.88062 0.22639 0.80605 0.0
H1767 H 0.79729 0.14952 0.81317 0.0
H1768 H 0.81338 0.18187 0.79781 0.0
H1769 H 0.88121 0.19584 0.82157 0.0
H1770 H 0.91516 0.30064 0.79845 0.0
H1771 H 0.89804 0.26882 0.81429 0.0
H1772 H 0.83592 0.25091 0.78621 0.0
C1773 C 0.82024 0.1753 0.81235 0.0
C1774 C 0.87097 0.20784 0.81428 0.0
C1775 C 0.81106 0.15661 0.82103 0.0
C1776 C 0.90361 0.29164 0.78906 0.0
C1777 C 0.89386 0.27343 0.79807 0.0
C1778 C 0.84592 0.23896 0.79395 0.0
C1779 C 0.83831 0.18498 0.82204 0.0
C1780 C 0.84858 0.20466 0.81275 0.0
C1781 C 0.87862 0.2615 0.78636 0.0
C1782 C 0.86822 0.24213 0.79573 0.0
H1783 H 0.84481 0.15009 0.86356 0.0
H1784 H 0.86011 0.18277 0.84916 0.0
H1785 H 0.81891 0.21896 0.80124 0.0
H1786 H 0.87921 0.29047 0.74009 0.0
H1787 H 0.86202 0.25906 0.75591 0.0
C1788 C 0.61265 0.73641 0.25939 0.0
C1789 C 0.61653 0.7163 0.2688 0.0
C1790 C 0.6229 0.75484 0.2671 0.0
C1791 C 0.66943 0.77318 0.29984 0.0
H1792 H 0.63709 0.82634 0.30191 0.0
C1793 C 0.70796 0.85552 0.32303 0.0
C1794 C 0.69551 0.86887 0.33636 0.0
C1795 C 0.6991 0.83677 0.31412 0.0
C1796 C 0.64636 0.81162 0.30157 0.0
H1797 H 0.63417 0.6997 0.29375 0.0
H1798 H 0.65172 0.73201 0.30764 0.0
H1799 H 0.61994 0.79389 0.28873 0.0
H1800 H 0.66395 0.87267 0.35084 0.0
H1801 H 0.64883 0.84029 0.33563 0.0
H1802 H 0.69569 0.79097 0.31336 0.0
C1803 C 0.64102 0.7335 0.29402 0.0
C1804 C 0.63658 0.79301 0.29375 0.0
C1805 C 0.63081 0.71501 0.28622 0.0
C1806 C 0.67407 0.86298 0.34054 0.0
C1807 C 0.66528 0.84437 0.33169 0.0
C1808 C 0.67924 0.79187 0.30774 0.0
C1809 C 0.63723 0.75368 0.28453 0.0
C1810 C 0.64792 0.7735 0.29282 0.0
C1811 C 0.67759 0.83103 0.31829 0.0
C1812 C 0.66776 0.8113 0.30886 0.0
H1813 H 0.60191 0.73789 0.24579 0.0
H1814 H 0.61983 0.76998 0.25912 0.0
H1815 H 0.67876 0.75852 0.29912 0.0
H1816 H 0.72453 0.85951 0.3195 0.0
H1817 H 0.709 0.82692 0.30376 0.0
C1818 C 0.13081 0.78465 0.75888 0.0
C1819 C 0.11732 0.79762 0.74629 0.0
C1820 C 0.14104 0.76674 0.75006 0.0
C1821 C 0.15562 0.74145 0.69768 0.0
H1822 H 0.1652 0.69134 0.73338 0.0
C1823 C 0.17987 0.65814 0.66446 0.0
C1824 C 0.19686 0.64734 0.67477 0.0
C1825 C 0.17133 0.67702 0.67305 0.0
C1826 C 0.16284 0.7053 0.7233 0.0
H1827 H 0.10373 0.80188 0.71462 0.0
H1828 H 0.1209 0.77004 0.69928 0.0
H1829 H 0.14702 0.72261 0.74833 0.0
H1830 H 0.21834 0.64819 0.70209 0.0
H1831 H 0.20287 0.68101 0.71755 0.0
H1832 H 0.17076 0.72358 0.67242 0.0
C1833 C 0.12412 0.77402 0.71588 0.0
C1834 C 0.15245 0.72332 0.73185 0.0
C1835 C 0.1141 0.79219 0.72468 0.0
C1836 C 0.20522 0.65605 0.69384 0.0
C1837 C 0.19634 0.67477 0.70269 0.0
C1838 C 0.1657 0.72329 0.68905 0.0
C1839 C 0.1378 0.76104 0.72845 0.0
C1840 C 0.14871 0.74171 0.71919 0.0
C1841 C 0.1793 0.68544 0.69235 0.0
C1842 C 0.16942 0.70503 0.70177 0.0
H1843 H 0.13378 0.78853 0.77556 0.0
H1844 H 0.15177 0.75756 0.7602 0.0
H1845 H 0.15349 0.75536 0.68749 0.0
H1846 H 0.17318 0.65203 0.64963 0.0
H1847 H 0.15814 0.6848 0.66479 0.0
C1848 C 0.78418 0.63324 0.79981 0.0
C1849 C 0.76897 0.61662 0.79831 0.0
C1850 C 0.79213 0.64322 0.78126 0.0
C1851 C 0.79733 0.63508 0.7223 0.0
H1852 H 0.80941 0.69618 0.72171 0.0
C1853 C 0.84365 0.67391 0.65267 0.0
C1854 C 0.83752 0.6944 0.64534 0.0
C1855 C 0.83483 0.66521 0.67133 0.0
C1856 C 0.80592 0.67914 0.72152 0.0
H1857 H 0.75005 0.59755 0.77621 0.0
H1858 H 0.76358 0.61503 0.74399 0.0
H1859 H 0.79482 0.67955 0.75408 0.0
H1860 H 0.81724 0.72187 0.65229 0.0
H1861 H 0.80151 0.70646 0.68487 0.0
H1862 H 0.80787 0.63466 0.68969 0.0
C1863 C 0.76977 0.62018 0.75939 0.0
C1864 C 0.79782 0.66952 0.74021 0.0
C1865 C 0.76192 0.61017 0.7779 0.0
C1866 C 0.82233 0.70604 0.65739 0.0
C1867 C 0.8134 0.69724 0.67616 0.0
C1868 C 0.80533 0.64468 0.70367 0.0
C1869 C 0.785 0.63685 0.76077 0.0
C1870 C 0.79349 0.64732 0.74088 0.0
C1871 C 0.81947 0.67663 0.6833 0.0
C1872 C 0.80994 0.6668 0.70302 0.0
H1873 H 0.78988 0.63862 0.81533 0.0
H1874 H 0.80405 0.65578 0.783 0.0
H1875 H 0.79446 0.61793 0.72219 0.0
H1876 H 0.85548 0.66449 0.64406 0.0
H1877 H 0.84032 0.64954 0.67651 0.0
C1878 C 0.69519 0.31122 0.15465 0.0
C1879 C 0.67644 0.31964 0.14531 0.0
C1880 C 0.70381 0.32044 0.17337 0.0
C1881 C 0.70044 0.37063 0.20686 0.0
H1882 H 0.73077 0.33603 0.24871 0.0
C1883 C 0.72633 0.40211 0.29124 0.0
C1884 C 0.74791 0.39815 0.29662 0.0
C1885 C 0.71716 0.39252 0.27299 0.0
C1886 C 0.72236 0.3459 0.23712 0.0
H1887 H 0.65157 0.34382 0.14895 0.0
H1888 H 0.66589 0.35913 0.18162 0.0
H1889 H 0.7158 0.31899 0.21676 0.0
H1890 H 0.77679 0.38132 0.28685 0.0
H1891 H 0.76066 0.36411 0.25568 0.0
H1892 H 0.70662 0.39741 0.22766 0.0
C1893 C 0.67461 0.34605 0.17421 0.0
C1894 C 0.71389 0.33617 0.21867 0.0
C1895 C 0.66626 0.33711 0.15543 0.0
C1896 C 0.76007 0.38449 0.28337 0.0
C1897 C 0.75082 0.37459 0.26548 0.0
C1898 C 0.70859 0.38026 0.22547 0.0
C1899 C 0.69368 0.33811 0.18339 0.0
C1900 C 0.70284 0.34839 0.20318 0.0
C1901 C 0.72928 0.37847 0.26005 0.0
C1902 C 0.71975 0.36804 0.24075 0.0
H1903 H 0.70343 0.29779 0.14728 0.0
H1904 H 0.71863 0.31394 0.1797 0.0
H1905 H 0.69255 0.3808 0.1952 0.0
H1906 H 0.71658 0.41262 0.30108 0.0
H1907 H 0.7005 0.39581 0.26919 0.0
C1908 C 0.2574 0.89771 0.23555 0.0
C1909 C 0.26858 0.89783 0.21596 0.0
C1910 C 0.26583 0.88711 0.25347 0.0
C1911 C 0.31673 0.86655 0.27634 0.0
H1912 H 0.27882 0.83501 0.31439 0.0
C1913 C 0.34384 0.83955 0.36034 0.0
C1914 C 0.3377 0.81911 0.36784 0.0
C1915 C 0.33536 0.84789 0.34135 0.0
C1916 C 0.28967 0.84356 0.30383 0.0
H1917 H 0.29741 0.88695 0.19981 0.0
H1918 H 0.31221 0.86846 0.23111 0.0
H1919 H 0.26431 0.85178 0.28206 0.0
H1920 H 0.31752 0.79152 0.36106 0.0
H1921 H 0.30263 0.8062 0.32773 0.0
H1922 H 0.34211 0.85826 0.29798 0.0
C1923 C 0.29697 0.8767 0.2327 0.0
C1924 C 0.28131 0.85341 0.28541 0.0
C1925 C 0.28848 0.88725 0.21473 0.0
C1926 C 0.32264 0.8073 0.3558 0.0
C1927 C 0.31403 0.81576 0.33674 0.0
C1928 C 0.32507 0.85678 0.29477 0.0
C1929 C 0.2857 0.8764 0.2523 0.0
C1930 C 0.2947 0.8652 0.27151 0.0
C1931 C 0.32043 0.83612 0.32921 0.0
C1932 C 0.31163 0.84534 0.3089 0.0
H1933 H 0.24199 0.90567 0.237 0.0
H1934 H 0.25684 0.88752 0.26835 0.0
H1935 H 0.32752 0.8756 0.26614 0.0
H1936 H 0.35539 0.8492 0.36907 0.0
H1937 H 0.3404 0.86376 0.33631 0.0
C1938 C 0.19712 0.20347 0.85942 0.0
C1939 C 0.17849 0.19474 0.86872 0.0
C1940 C 0.20581 0.19445 0.84065 0.0
C1941 C 0.20305 0.14434 0.80723 0.0
H1942 H 0.23138 0.17956 0.76451 0.0
C1943 C 0.22639 0.1127 0.72264 0.0
C1944 C 0.24755 0.11716 0.71621 0.0
C1945 C 0.21781 0.12242 0.74106 0.0
C1946 C 0.22355 0.16952 0.77636 0.0
H1947 H 0.15385 0.17035 0.86495 0.0
H1948 H 0.16831 0.15536 0.83225 0.0
H1949 H 0.21701 0.19629 0.79692 0.0
H1950 H 0.27623 0.13545 0.72386 0.0
H1951 H 0.26113 0.15268 0.75559 0.0
H1952 H 0.20919 0.11768 0.78633 0.0
C1953 C 0.17691 0.16849 0.83973 0.0
C1954 C 0.21543 0.17908 0.79504 0.0
C1955 C 0.16849 0.17723 0.85854 0.0
C1956 C 0.25986 0.13167 0.7284 0.0
C1957 C 0.25119 0.14164 0.74652 0.0
C1958 C 0.21087 0.13487 0.78844 0.0
C1959 C 0.19586 0.17671 0.8306 0.0
C1960 C 0.20501 0.16663 0.81077 0.0
C1961 C 0.23011 0.13708 0.75313 0.0
C1962 C 0.22124 0.14733 0.7728 0.0
H1963 H 0.20519 0.21698 0.86683 0.0
H1964 H 0.22052 0.20117 0.83426 0.0
H1965 H 0.19567 0.13403 0.81911 0.0
H1966 H 0.21656 0.10159 0.71355 0.0
H1967 H 0.20147 0.11867 0.74575 0.0
C1968 C 0.77893 0.75745 0.61564 0.0
C1969 C 0.79866 0.76843 0.61579 0.0
C1970 C 0.76092 0.76604 0.626 0.0
C1971 C 0.73823 0.81708 0.64651 0.0
H1972 H 0.69953 0.77936 0.6775 0.0
C1973 C 0.65432 0.84503 0.67379 0.0
C1974 C 0.64668 0.83857 0.69406 0.0
C1975 C 0.67325 0.83646 0.66531 0.0
C1976 C 0.71026 0.79016 0.66909 0.0
H1977 H 0.81497 0.79709 0.62687 0.0
H1978 H 0.78352 0.81217 0.64496 0.0
H1979 H 0.73189 0.76466 0.66091 0.0
H1980 H 0.65315 0.81775 0.72119 0.0
H1981 H 0.68635 0.80275 0.70631 0.0
H1982 H 0.71676 0.8426 0.65484 0.0
C1983 C 0.78189 0.79697 0.63669 0.0
C1984 C 0.72871 0.78169 0.65934 0.0
C1985 C 0.79995 0.78831 0.62637 0.0
C1986 C 0.65851 0.82312 0.70555 0.0
C1987 C 0.6775 0.81444 0.69697 0.0
C1988 C 0.71978 0.82553 0.6562 0.0
C1989 C 0.76215 0.78588 0.63675 0.0
C1990 C 0.74286 0.79501 0.64777 0.0
C1991 C 0.68518 0.82111 0.67677 0.0
C1992 C 0.70542 0.81217 0.66746 0.0
H1993 H 0.77743 0.74206 0.60767 0.0
H1994 H 0.74594 0.7572 0.6254 0.0
H1995 H 0.74864 0.82781 0.63762 0.0
H1996 H 0.64574 0.85688 0.66439 0.0
H1997 H 0.6784 0.84172 0.64957 0.0
C1998 C 0.73665 0.25316 0.11056 0.0
C1999 C 0.71613 0.24553 0.11604 0.0
C2000 C 0.75498 0.24528 0.12089 0.0
C2001 C 0.77305 0.2159 0.16976 0.0
H2002 H 0.82477 0.20742 0.13619 0.0
C2003 C 0.85521 0.19062 0.20765 0.0
C2004 C 0.86755 0.17582 0.19584 0.0
C2005 C 0.8366 0.19979 0.19872 0.0
C2006 C 0.81045 0.20954 0.14584 0.0
H2007 H 0.69874 0.22356 0.13665 0.0
H2008 H 0.73079 0.20936 0.15437 0.0
H2009 H 0.79261 0.22112 0.11894 0.0
H2010 H 0.86946 0.15873 0.16546 0.0
H2011 H 0.83728 0.17427 0.15032 0.0
H2012 H 0.79088 0.20359 0.19654 0.0
C2013 C 0.73272 0.22174 0.14233 0.0
C2014 C 0.79202 0.21769 0.13596 0.0
C2015 C 0.71435 0.22971 0.13202 0.0
C2016 C 0.86061 0.17023 0.17506 0.0
C2017 C 0.84212 0.17929 0.16624 0.0
C2018 C 0.79154 0.20765 0.17966 0.0
C2019 C 0.75331 0.22946 0.13693 0.0
C2020 C 0.773 0.22092 0.14772 0.0
C2021 C 0.82992 0.19434 0.1778 0.0
C2022 C 0.81045 0.20418 0.16777 0.0
H2023 H 0.73854 0.2655 0.09845 0.0
H2024 H 0.77046 0.2519 0.11651 0.0
H2025 H 0.75881 0.21843 0.17943 0.0
H2026 H 0.85996 0.19522 0.22371 0.0
H2027 H 0.82765 0.21141 0.20807 0.0
C2028 C 0.15348 0.67158 0.34059 0.0
C2029 C 0.14623 0.6776 0.32005 0.0
C2030 C 0.17242 0.68008 0.34908 0.0
C2031 C 0.21029 0.72543 0.34472 0.0
H2032 H 0.24789 0.68737 0.37664 0.0
C2033 C 0.27904 0.75719 0.39845 0.0
C2034 C 0.29864 0.74598 0.39828 0.0
C2035 C 0.26096 0.74883 0.38804 0.0
C2036 C 0.2377 0.6982 0.36762 0.0
H2037 H 0.1533 0.69765 0.29251 0.0
H2038 H 0.18654 0.71255 0.30741 0.0
H2039 H 0.2158 0.673 0.35945 0.0
H2040 H 0.31467 0.71719 0.38713 0.0
H2041 H 0.28307 0.70251 0.36896 0.0
H2042 H 0.23234 0.75061 0.35278 0.0
C2043 C 0.17738 0.70124 0.31693 0.0
C2044 C 0.21915 0.69 0.35795 0.0
C2045 C 0.15837 0.69264 0.30835 0.0
C2046 C 0.29974 0.72612 0.38764 0.0
C2047 C 0.28162 0.71771 0.37728 0.0
C2048 C 0.22884 0.73366 0.35446 0.0
C2049 C 0.18473 0.69488 0.33733 0.0
C2050 C 0.20508 0.70354 0.34656 0.0
C2051 C 0.26202 0.72903 0.37724 0.0
C2052 C 0.24269 0.72017 0.36619 0.0
H2053 H 0.14463 0.66011 0.3502 0.0
H2054 H 0.17734 0.67512 0.36499 0.0
H2055 H 0.19977 0.73633 0.33618 0.0
H2056 H 0.2777 0.77257 0.40647 0.0
H2057 H 0.24608 0.75783 0.38863 0.0
C2058 C 0.21728 0.26961 0.87212 0.0
C2059 C 0.21443 0.27107 0.89444 0.0
C2060 C 0.236 0.27742 0.86239 0.0
C2061 C 0.29254 0.29276 0.87494 0.0
H2062 H 0.29057 0.31946 0.81878 0.0
C2063 C 0.36454 0.33938 0.84008 0.0
C2064 C 0.3696 0.33693 0.81819 0.0
C2065 C 0.34577 0.33057 0.84867 0.0
C2066 C 0.29144 0.3118 0.83435 0.0
H2067 H 0.2288 0.28225 0.92403 0.0
H2068 H 0.26122 0.29646 0.90708 0.0
H2069 H 0.25743 0.30654 0.8353 0.0
H2070 H 0.3586 0.32307 0.78821 0.0
H2071 H 0.32565 0.30761 0.80332 0.0
H2072 H 0.32648 0.29834 0.87412 0.0
C2073 C 0.24924 0.28883 0.89705 0.0
C2074 C 0.27241 0.30437 0.84387 0.0
C2075 C 0.23055 0.28086 0.9068 0.0
C2076 C 0.35528 0.32527 0.80513 0.0
C2077 C 0.33633 0.31652 0.81376 0.0
C2078 C 0.3115 0.30029 0.86549 0.0
C2079 C 0.25235 0.28704 0.87471 0.0
C2080 C 0.27265 0.29485 0.86438 0.0
C2081 C 0.33137 0.31905 0.83568 0.0
C2082 C 0.31122 0.31004 0.84513 0.0
H2083 H 0.20522 0.26197 0.86216 0.0
H2084 H 0.23786 0.27542 0.84523 0.0
H2085 H 0.29354 0.28509 0.89049 0.0
H2086 H 0.37503 0.3483 0.85072 0.0
H2087 H 0.34236 0.33315 0.86552 0.0
C2088 C 0.61957 0.77975 0.75516 0.0
C2089 C 0.61743 0.79867 0.76727 0.0
C2090 C 0.63005 0.76177 0.76365 0.0
C2091 C 0.64641 0.73686 0.81507 0.0
H2092 H 0.68276 0.70179 0.77861 0.0
C2093 C 0.67405 0.65259 0.84089 0.0
C2094 C 0.69523 0.64604 0.83632 0.0
C2095 C 0.66574 0.67161 0.83242 0.0
C2096 C 0.67284 0.71151 0.78908 0.0
H2097 H 0.62465 0.81358 0.79782 0.0
H2098 H 0.64298 0.78219 0.81273 0.0
H2099 H 0.66633 0.73437 0.76422 0.0
H2100 H 0.72416 0.65455 0.81886 0.0
H2101 H 0.70956 0.68795 0.80402 0.0
H2102 H 0.65305 0.71418 0.83998 0.0
C2103 C 0.63638 0.78116 0.79669 0.0
C2104 C 0.66319 0.73007 0.78075 0.0
C2105 C 0.62592 0.79918 0.78815 0.0
C2106 C 0.70779 0.65903 0.82273 0.0
C2107 C 0.69939 0.67815 0.81416 0.0
C2108 C 0.65601 0.71831 0.82337 0.0
C2109 C 0.63866 0.76222 0.78452 0.0
C2110 C 0.64968 0.7429 0.79359 0.0
C2111 C 0.67829 0.68477 0.81908 0.0
C2112 C 0.66916 0.70523 0.81044 0.0
H2113 H 0.61326 0.77886 0.73898 0.0
H2114 H 0.63119 0.74741 0.75391 0.0
H2115 H 0.63601 0.74621 0.82541 0.0
H2116 H 0.66377 0.64307 0.85119 0.0
H2117 H 0.64931 0.67591 0.83624 0.0
C2118 C 0.20757 0.85506 0.18911 0.0
C2119 C 0.19468 0.86903 0.17688 0.0
C2120 C 0.19894 0.83607 0.19771 0.0
C2121 C 0.14725 0.81051 0.21266 0.0
H2122 H 0.17864 0.75701 0.20745 0.0
C2123 C 0.10731 0.72912 0.23306 0.0
C2124 C 0.11999 0.71332 0.24294 0.0
C2125 C 0.11673 0.74787 0.22488 0.0
C2126 C 0.16972 0.77182 0.20934 0.0
H2127 H 0.16245 0.87385 0.16433 0.0
H2128 H 0.1476 0.84106 0.17931 0.0
H2129 H 0.19477 0.79029 0.19454 0.0
H2130 H 0.15252 0.7047 0.25187 0.0
H2131 H 0.16886 0.73751 0.23824 0.0
H2132 H 0.12233 0.79227 0.2277 0.0
C2133 C 0.16432 0.84479 0.1824 0.0
C2134 C 0.17902 0.79093 0.2019 0.0
C2135 C 0.17293 0.86361 0.1737 0.0
C2136 C 0.14231 0.71654 0.24425 0.0
C2137 C 0.1517 0.73535 0.23629 0.0
C2138 C 0.13804 0.79146 0.22026 0.0
C2139 C 0.17719 0.83072 0.19445 0.0
C2140 C 0.16783 0.8105 0.20331 0.0
C2141 C 0.13905 0.75139 0.22658 0.0
C2142 C 0.14905 0.77177 0.21859 0.0
H2143 H 0.22437 0.85867 0.19189 0.0
H2144 H 0.20926 0.82566 0.20707 0.0
H2145 H 0.1383 0.82534 0.2143 0.0
H2146 H 0.09007 0.72707 0.23176 0.0
H2147 H 0.10645 0.75958 0.21717 0.0
C2148 C 0.34057 0.15272 0.67256 0.0
C2149 C 0.31888 0.1472 0.67597 0.0
C2150 C 0.3493 0.17131 0.6815 0.0
C2151 C 0.33541 0.22432 0.70453 0.0
H2152 H 0.39399 0.22138 0.72556 0.0
C2153 C 0.38454 0.30052 0.72713 0.0
C2154 C 0.39835 0.29909 0.7449 0.0
C2155 C 0.37417 0.28216 0.71918 0.0
C2156 C 0.37755 0.22253 0.71998 0.0
H2157 H 0.28935 0.15736 0.6914 0.0
H2158 H 0.3048 0.18986 0.7074 0.0
H2159 H 0.37671 0.18915 0.71205 0.0
H2160 H 0.41195 0.27737 0.76841 0.0
H2161 H 0.39376 0.24555 0.75485 0.0
H2162 H 0.3362 0.25771 0.71293 0.0
C2163 C 0.31495 0.17972 0.69757 0.0
C2164 C 0.36769 0.20403 0.71195 0.0
C2165 C 0.30613 0.16099 0.68854 0.0
C2166 C 0.40158 0.27897 0.75455 0.0
C2167 C 0.39118 0.26068 0.7467 0.0
C2168 C 0.34529 0.24289 0.71264 0.0
C2169 C 0.33672 0.18503 0.69425 0.0
C2170 C 0.34657 0.20467 0.70391 0.0
C2171 C 0.37734 0.26197 0.72888 0.0
C2172 C 0.36655 0.24226 0.72038 0.0
H2173 H 0.35095 0.1427 0.66284 0.0
H2174 H 0.36597 0.17505 0.67817 0.0
H2175 H 0.31919 0.22547 0.69834 0.0
H2176 H 0.38169 0.31583 0.7194 0.0
H2177 H 0.36387 0.28377 0.70527 0.0
C2178 C 0.83825 0.35705 0.34983 0.0
C2179 C 0.82121 0.36756 0.33933 0.0
C2180 C 0.84717 0.33828 0.34137 0.0
C2181 C 0.85601 0.30988 0.2911 0.0
H2182 H 0.86562 0.25988 0.32692 0.0
C2183 C 0.88617 0.23019 0.25509 0.0
C2184 C 0.89974 0.21701 0.26736 0.0
C2185 C 0.87647 0.24826 0.26413 0.0
C2186 C 0.86341 0.27378 0.31674 0.0
H2187 H 0.80004 0.3663 0.31184 0.0
H2188 H 0.81607 0.33372 0.2966 0.0
H2189 H 0.84862 0.29176 0.34212 0.0
H2190 H 0.91405 0.21254 0.29868 0.0
H2191 H 0.8978 0.24469 0.3144 0.0
H2192 H 0.8714 0.29245 0.26591 0.0
C2193 C 0.8224 0.34009 0.31149 0.0
C2194 C 0.85352 0.292 0.32545 0.0
C2195 C 0.81319 0.35869 0.32021 0.0
C2196 C 0.9036 0.2224 0.28888 0.0
C2197 C 0.89412 0.24075 0.29789 0.0
C2198 C 0.86621 0.29181 0.28247 0.0
C2199 C 0.83949 0.3297 0.32201 0.0
C2200 C 0.84963 0.3102 0.31269 0.0
C2201 C 0.88035 0.25393 0.28564 0.0
C2202 C 0.86996 0.27342 0.29511 0.0
H2203 H 0.84468 0.36327 0.36473 0.0
H2204 H 0.86038 0.33069 0.34977 0.0
H2205 H 0.85353 0.32381 0.28099 0.0
H2206 H 0.88274 0.22637 0.23848 0.0
H2207 H 0.86563 0.25759 0.25425 0.0
C2208 C 0.16732 0.3497 0.51012 0.0
C2209 C 0.15879 0.35464 0.48983 0.0
C2210 C 0.17703 0.3658 0.52267 0.0
C2211 C 0.17728 0.42556 0.52734 0.0
H2212 H 0.22396 0.41668 0.56759 0.0
C2213 C 0.21682 0.4973 0.56747 0.0
C2214 C 0.21727 0.49701 0.58998 0.0
C2215 C 0.21332 0.47845 0.55586 0.0
C2216 C 0.21087 0.41933 0.55645 0.0
H2217 H 0.15513 0.37979 0.46614 0.0
H2218 H 0.17289 0.40735 0.48726 0.0
H2219 H 0.21099 0.38654 0.54569 0.0
H2220 H 0.21537 0.47665 0.61802 0.0
H2221 H 0.20962 0.44329 0.59756 0.0
H2222 H 0.17727 0.45826 0.53778 0.0
C2223 C 0.17136 0.39143 0.49409 0.0
C2224 C 0.20337 0.40206 0.54394 0.0
C2225 C 0.16138 0.37554 0.4818 0.0
C2226 C 0.21569 0.4772 0.60066 0.0
C2227 C 0.2122 0.45817 0.58895 0.0
C2228 C 0.18491 0.44273 0.53957 0.0
C2229 C 0.17862 0.38707 0.51504 0.0
C2230 C 0.18662 0.40502 0.52897 0.0
C2231 C 0.21002 0.45881 0.56646 0.0
C2232 C 0.20195 0.43995 0.55409 0.0
H2233 H 0.16534 0.33377 0.5168 0.0
H2234 H 0.18233 0.36177 0.5387 0.0
H2235 H 0.16386 0.42846 0.51667 0.0
H2236 H 0.21758 0.51242 0.55889 0.0
H2237 H 0.21201 0.47945 0.53855 0.0
C2238 C 0.2974 0.51896 0.06686 0.0
C2239 C 0.29622 0.51845 0.08935 0.0
C2240 C 0.29989 0.53835 0.05588 0.0
C2241 C 0.32147 0.59328 0.06421 0.0
H2242 H 0.30303 0.60015 1.00519 0.0
C2243 C 0.34629 0.66642 0.01056 0.0
C2244 C 0.35557 0.66026 0.99092 0.0
C2245 C 0.33551 0.65125 0.02338 0.0
C2246 C 0.30826 0.59852 0.02168 0.0
H2247 H 0.296 0.53803 0.118 0.0
H2248 H 0.29963 0.57229 0.09877 0.0
H2249 H 0.28905 0.57046 0.02647 0.0
H2250 H 0.36011 0.63362 0.969 0.0
H2251 H 0.34078 0.60753 0.99088 0.0
H2252 H 0.34075 0.62149 0.05917 0.0
C2253 C 0.29883 0.55756 0.08958 0.0
C2254 C 0.30033 0.5814 0.03392 0.0
C2255 C 0.29629 0.53798 0.10062 0.0
C2256 C 0.35307 0.6389 0.984 0.0
C2257 C 0.34195 0.62394 0.99653 0.0
C2258 C 0.32919 0.61063 0.05201 0.0
C2259 C 0.30135 0.55795 0.06705 0.0
C2260 C 0.30726 0.57811 0.05519 0.0
C2261 C 0.33337 0.62979 0.01656 0.0
C2262 C 0.32309 0.61313 0.03043 0.0
H2263 H 0.29791 0.5041 0.05779 0.0
H2264 H 0.30213 0.53769 0.03867 0.0
H2265 H 0.32749 0.59125 0.08038 0.0
H2266 H 0.34818 0.68268 0.01644 0.0
H2267 H 0.32902 0.65625 0.03871 0.0
C2268 C 0.66792 0.16426 0.50439 0.0
C2269 C 0.65946 0.15939 0.52473 0.0
C2270 C 0.67771 0.14816 0.49192 0.0
C2271 C 0.67795 0.08848 0.48741 0.0
H2272 H 0.72522 0.09697 0.44776 0.0
C2273 C 0.71734 0.01631 0.44818 0.0
C2274 C 0.71825 0.01651 0.42568 0.0
C2275 C 0.71388 0.03524 0.45966 0.0
C2276 C 0.71196 0.09443 0.45872 0.0
H2277 H 0.65604 0.13434 0.54858 0.0
H2278 H 0.67384 0.10677 0.52754 0.0
H2279 H 0.71208 0.12728 0.46934 0.0
H2280 H 0.71733 0.03682 0.39755 0.0
H2281 H 0.71159 0.07031 0.41778 0.0
H2282 H 0.67787 0.05576 0.47709 0.0
C2283 C 0.67222 0.12265 0.52065 0.0
C2284 C 0.70437 0.11179 0.47105 0.0
C2285 C 0.66221 0.13855 0.53287 0.0
C2286 C 0.71726 0.03632 0.41492 0.0
C2287 C 0.71377 0.05543 0.4265 0.0
C2288 C 0.68563 0.07124 0.47534 0.0
C2289 C 0.67941 0.12694 0.49967 0.0
C2290 C 0.68743 0.10896 0.48582 0.0
C2291 C 0.71106 0.05488 0.44893 0.0
C2292 C 0.70291 0.07386 0.46107 0.0
H2293 H 0.66585 0.18015 0.49762 0.0
H2294 H 0.68299 0.15212 0.47585 0.0
H2295 H 0.66439 0.08571 0.49794 0.0
H2296 H 0.7177 1.00121 0.45683 0.0
H2297 H 0.7122 0.03431 0.47694 0.0
C2298 C 0.85351 0.87484 0.03238 0.0
C2299 C 0.85635 0.85409 0.02403 0.0
C2300 C 0.84348 0.89082 0.02028 0.0
C2301 C 0.81176 0.90199 0.9704 0.0
H2302 H 0.83781 0.95813 0.97733 0.0
C2303 C 0.79953 0.97724 0.91413 0.0
C2304 C 0.79828 0.99712 0.92474 0.0
C2305 C 0.80291 0.95823 0.92587 0.0
C2306 C 0.83016 0.94263 0.97534 0.0
H2307 H 0.85018 0.83356 0.9967 0.0
H2308 H 0.83306 0.86173 0.97513 0.0
H2309 H 0.85107 0.92813 0.99821 0.0
H2310 H 0.79848 0.01268 0.95576 0.0
H2311 H 0.80379 0.97973 0.97618 0.0
H2312 H 0.7913 0.91683 0.9468 0.0
C2313 C 0.83822 0.86556 0.99126 0.0
C2314 C 0.83771 0.92534 0.98743 0.0
C2315 C 0.84799 0.84937 1.00362 0.0
C2316 C 0.79898 0.99751 0.94724 0.0
C2317 C 0.80234 0.97867 0.95889 0.0
C2318 C 0.80431 0.91938 0.95805 0.0
C2319 C 0.83641 0.88671 0.99921 0.0
C2320 C 0.82843 0.90481 0.98549 0.0
C2321 C 0.8053 0.95894 0.94833 0.0
C2322 C 0.81321 0.93998 0.96068 0.0
H2323 H 0.85964 0.87891 0.04814 0.0
H2324 H 0.84177 0.90662 0.02733 0.0
H2325 H 0.80418 0.88647 0.96842 0.0
H2326 H 0.79968 0.97662 0.89676 0.0
H2327 H 0.80524 0.94329 0.91727 0.0
C2328 C 0.60149 0.21509 0.47724 0.0
C2329 C 0.59079 0.21647 0.49705 0.0
C2330 C 0.58975 0.21193 0.4582 0.0
C2331 C 0.53936 0.18605 0.4423 0.0
H2332 H 0.54821 0.21101 0.38604 0.0
C2333 C 0.48245 0.1641 0.374 0.0
C2334 C 0.49116 0.16022 0.35359 0.0
C2335 C 0.49464 0.17407 0.38995 0.0
C2336 C 0.54567 0.20374 0.40161 0.0
H2337 H 0.55965 0.2168 0.51245 0.0
H2338 H 0.53924 0.21199 0.47943 0.0
H2339 H 0.56985 0.22344 0.41658 0.0
H2340 H 0.51927 0.16447 0.33361 0.0
H2341 H 0.54095 0.18157 0.36173 0.0
H2342 H 0.51584 0.16592 0.42767 0.0
C2343 C 0.55659 0.21307 0.47845 0.0
C2344 C 0.55804 0.21091 0.4191 0.0
C2345 C 0.56825 0.21616 0.49733 0.0
C2346 C 0.51206 0.16753 0.34912 0.0
C2347 C 0.52448 0.17727 0.36529 0.0
C2348 C 0.52721 0.17879 0.42493 0.0
C2349 C 0.5672 0.20995 0.45877 0.0
C2350 C 0.55476 0.20236 0.43974 0.0
C2351 C 0.51613 0.18004 0.38616 0.0
C2352 C 0.52987 0.18773 0.40436 0.0
H2353 H 0.61888 0.21469 0.4767 0.0
H2354 H 0.5984 0.2095 0.44332 0.0
H2355 H 0.53684 0.17862 0.45782 0.0
H2356 H 0.46634 0.15872 0.37788 0.0
H2357 H 0.48733 0.17651 0.40553 0.0
C2358 C 0.91459 0.79834 0.97694 0.0
C2359 C 0.92537 0.79701 0.99671 0.0
C2360 C 0.9262 0.80191 0.95788 0.0
C2361 C 0.97561 0.82943 0.94213 0.0
H2362 H 0.96865 0.80371 0.88593 0.0
C2363 C 0.03278 0.85307 0.87445 0.0
C2364 C 0.02449 0.85586 0.85369 0.0
C2365 C 0.02062 0.84305 0.8904 0.0
C2366 C 0.97065 0.81123 0.90146 0.0
H2367 H 0.9566 0.79713 0.01196 0.0
H2368 H 0.97677 0.80275 0.97894 0.0
H2369 H 0.94706 0.79066 0.91623 0.0
H2370 H 0.99716 0.84964 0.83314 0.0
H2371 H 0.97549 0.83253 0.86125 0.0
H2372 H 0.99847 0.85044 0.92772 0.0
C2373 C 0.95944 0.80127 0.97801 0.0
C2374 C 0.9583 0.80368 0.91882 0.0
C2375 C 0.94792 0.79773 0.99689 0.0
C2376 C 1.00405 0.84749 0.84895 0.0
C2377 C 0.99163 0.83772 0.86512 0.0
C2378 C 0.98769 0.83709 0.92488 0.0
C2379 C 0.94871 0.80438 0.95841 0.0
C2380 C 0.96095 0.81247 0.93945 0.0
C2381 C 0.99953 0.83594 0.88626 0.0
C2382 C 0.98575 0.82789 0.90432 0.0
H2383 H 0.89719 0.79844 0.97646 0.0
H2384 H 0.91747 0.80431 0.94304 0.0
H2385 H 0.97763 0.837 0.95765 0.0
H2386 H 0.04855 0.85922 0.87855 0.0
H2387 H 0.02765 0.84138 0.9062 0.0
C2388 C 0.06818 0.29718 0.51707 0.0
C2389 C 0.09074 0.2973 0.51722 0.0
C2390 C 0.05655 0.30077 0.53591 0.0
C2391 C 0.05792 0.30477 0.59507 0.0
H2392 H 0.01591 0.34969 0.58535 0.0
C2393 C 0.01178 0.34855 0.66457 0.0
C2394 C 0.99113 0.35648 0.66001 0.0
C2395 C 0.02418 0.33883 0.64837 0.0
C2396 C 0.02719 0.33682 0.58845 0.0
H2397 H 0.11887 0.3004 0.53736 0.0
H2398 H 0.09844 0.30631 0.57066 0.0
H2399 H 0.03684 0.33611 0.55555 0.0
H2400 H 0.96673 0.35914 0.63542 0.0
H2401 H 0.98756 0.34125 0.60773 0.0
H2402 H 0.048 0.30538 0.62806 0.0
C2403 C 0.08977 0.30319 0.55592 0.0
C2404 C 0.03933 0.32909 0.57126 0.0
C2405 C 0.10148 0.29959 0.53692 0.0
C2406 C 0.98266 0.35334 0.63937 0.0
C2407 C 0.9948 0.3433 0.62339 0.0
C2408 C 0.0455 0.31236 0.61236 0.0
C2409 C 0.06718 0.30477 0.5554 0.0
C2410 C 0.0547 0.31283 0.57424 0.0
C2411 C 0.01606 0.33658 0.62735 0.0
C2412 C 0.02976 0.32838 0.60926 0.0
H2413 H 0.05951 0.29589 0.50204 0.0
H2414 H 0.03918 0.30156 0.53498 0.0
H2415 H 0.0697 0.29229 0.5979 0.0
H2416 H 0.01882 0.35099 0.68028 0.0
H2417 H 0.04047 0.33401 0.65212 0.0
C2418 C 0.50514 0.66631 0.16418 0.0
C2419 C 0.52563 0.65803 0.15945 0.0
C2420 C 0.49265 0.67593 0.14799 0.0
C2421 C 0.48849 0.67607 0.0883 0.0
H2422 H 0.44786 0.72255 0.09664 0.0
C2423 C 0.44796 0.71423 0.01602 0.0
C2424 C 0.42544 0.71547 0.01653 0.0
C2425 C 0.4597 0.71081 0.0348 0.0
C2426 C 0.45909 0.7095 0.09413 0.0
H2427 H 0.54968 0.65475 0.13457 0.0
H2428 H 0.52861 0.67229 0.10686 0.0
H2429 H 0.46962 0.70985 0.12697 0.0
H2430 H 0.39754 0.71502 0.03723 0.0
H2431 H 0.4182 0.70927 0.07043 0.0
H2432 H 0.47821 0.67571 0.0556 0.0
C2433 C 0.52162 0.67065 0.12268 0.0
C2434 C 0.47154 0.70217 0.11151 0.0
C2435 C 0.53387 0.66079 0.13867 0.0
C2436 C 0.41493 0.71469 0.03648 0.0
C2437 C 0.42676 0.71121 0.05543 0.0
C2438 C 0.47628 0.68349 0.07103 0.0
C2439 C 0.50051 0.67766 0.12683 0.0
C2440 C 0.48664 0.6855 0.10875 0.0
C2441 C 0.44922 0.7083 0.05462 0.0
C2442 C 0.46161 0.70046 0.07359 0.0
H2443 H 0.49828 0.66421 0.18001 0.0
H2444 H 0.47648 0.68106 0.15185 0.0
H2445 H 0.49928 0.66271 0.08556 0.0
H2446 H 0.45641 0.71444 1.00082 0.0
H2447 H 0.47698 0.70903 0.03363 0.0
C2448 C 0.47876 0.60171 0.21763 0.0
C2449 C 0.49783 0.58979 0.21593 0.0
C2450 C 0.45874 0.59159 0.21499 0.0
C2451 C 0.43152 0.53811 0.21141 0.0
H2452 H 0.39597 0.566 0.16863 0.0
C2453 C 0.35414 0.49865 0.17529 0.0
C2454 C 0.35374 0.49894 0.15273 0.0
C2455 C 0.36931 0.51104 0.1866 0.0
C2456 C 0.40562 0.55805 0.18072 0.0
H2457 H 0.511 0.55796 0.2113 0.0
H2458 H 0.47632 0.54027 0.20733 0.0
H2459 H 0.42697 0.58489 0.18338 0.0
H2460 H 0.36839 0.51308 0.12447 0.0
H2461 H 0.39429 0.53467 0.14401 0.0
H2462 H 0.4106 0.5109 0.20798 0.0
C2463 C 0.47659 0.55733 0.21072 0.0
C2464 C 0.42329 0.56898 0.18935 0.0
C2465 C 0.4965 0.56745 0.21303 0.0
C2466 C 0.3683 0.51235 0.14184 0.0
C2467 C 0.38309 0.5249 0.15306 0.0
C2468 C 0.4137 0.52723 0.20289 0.0
C2469 C 0.45747 0.56935 0.21088 0.0
C2470 C 0.4368 0.55896 0.20441 0.0
C2471 C 0.38398 0.5243 0.17555 0.0
C2472 C 0.40088 0.53687 0.18701 0.0
H2473 H 0.47938 0.61901 0.2194 0.0
H2474 H 0.44431 0.6013 0.21531 0.0
H2475 H 0.44152 0.52996 0.22307 0.0
H2476 H 0.3432 0.48842 0.18412 0.0
H2477 H 0.36959 0.51026 0.20395 0.0
C2478 C 0.87414 0.03299 0.84999 0.0
C2479 C 0.8545 0.02371 0.85601 0.0
C2480 C 0.88994 0.02076 0.83976 0.0
C2481 C 0.90135 0.96731 0.81402 0.0
H2482 H 0.95958 0.98172 0.83078 0.0
C2483 C 0.97725 0.91254 0.8021 0.0
C2484 C 0.99655 0.92312 0.79713 0.0
C2485 C 0.95832 0.92436 0.8056 0.0
C2486 C 0.94346 0.97761 0.82566 0.0
H2487 H 0.83576 0.99445 0.85571 0.0
H2488 H 0.86369 0.97269 0.83859 0.0
H2489 H 0.92992 1.00294 0.84425 0.0
H2490 H 0.01116 0.95403 0.79108 0.0
H2491 H 0.97818 0.97458 0.79646 0.0
H2492 H 0.91528 0.94125 0.79609 0.0
C2493 C 0.86673 0.98962 0.8411 0.0
C2494 C 0.92633 0.98989 0.83335 0.0
C2495 C 0.85066 1.00207 0.85092 0.0
C2496 C 0.99636 0.94548 0.79441 0.0
C2497 C 0.97754 0.95725 0.79784 0.0
C2498 C 0.91859 0.95479 0.8065 0.0
C2499 C 0.88685 0.99867 0.83585 0.0
C2500 C 0.90498 0.98515 0.82749 0.0
C2501 C 0.95851 0.94695 0.80438 0.0
C2502 C 0.93988 0.95997 0.81205 0.0
H2503 H 0.87747 0.04968 0.85366 0.0
H2504 H 0.90483 0.02861 0.83538 0.0
H2505 H 0.88523 0.96312 0.80902 0.0
H2506 H 0.97718 0.89538 0.80499 0.0
H2507 H 0.94399 0.91595 0.81077 0.0
C2508 C 0.52659 0.07877 0.28747 0.0
C2509 C 0.52209 0.09581 0.3015 0.0
C2510 C 0.54568 0.06688 0.28974 0.0
C2511 C 0.57681 0.035 0.31058 0.0
H2512 H 0.63028 0.05961 0.33103 0.0
C2513 C 0.63799 0.98643 0.36015 0.0
C2514 C 0.66016 0.99042 0.35797 0.0
C2515 C 0.62284 0.99883 0.34919 0.0
C2516 C 0.61562 0.05241 0.32503 0.0
H2517 H 0.53419 0.11436 0.32825 0.0
H2518 H 0.5674 0.09409 0.33201 0.0
H2519 H 0.6017 0.08314 0.31814 0.0
H2520 H 0.6837 0.01035 0.34187 0.0
H2521 H 0.65712 0.03211 0.32255 0.0
H2522 H 0.5906 1.00429 0.31771 0.0
C2523 C 0.55655 0.08985 0.3191 0.0
C2524 C 0.5991 0.06595 0.31783 0.0
C2525 C 0.5375 0.10154 0.31694 0.0
C2526 C 0.66678 1.00678 0.34389 0.0
C2527 C 0.65152 0.01937 0.33296 0.0
C2528 C 0.59331 0.02148 0.3178 0.0
C2529 C 0.56063 0.07188 0.30603 0.0
C2530 C 0.57928 0.05746 0.31091 0.0
C2531 C 0.62931 0.01572 0.33569 0.0
C2532 C 0.61279 0.02999 0.32557 0.0
H2533 H 0.51475 0.07372 0.27577 0.0
H2534 H 0.54835 0.05327 0.27925 0.0
H2535 H 0.56176 0.02781 0.30562 0.0
H2536 H 0.63222 0.97393 0.37078 0.0
H2537 H 0.60596 0.99565 0.35198 0.0
C2538 C 0.16502 0.50406 0.66544 0.0
C2539 C 0.16017 0.52456 0.65736 0.0
C2540 C 0.14899 0.49158 0.67532 0.0
C2541 C 0.08903 0.48796 0.67779 0.0
H2542 H 0.09947 0.44574 0.7223 0.0
C2543 C 0.01859 0.44615 0.71822 0.0
C2544 C 0.01894 0.42362 0.71756 0.0
C2545 C 0.0373 0.458 0.71462 0.0
C2546 C 0.09638 0.45746 0.70984 0.0
H2547 H 0.13527 0.54867 0.65459 0.0
H2548 H 0.10786 0.52771 0.6728 0.0
H2549 H 0.12927 0.46783 0.70896 0.0
H2550 H 0.03927 0.39575 0.71349 0.0
H2551 H 0.07238 0.41657 0.70762 0.0
H2552 H 0.05621 0.47789 0.67884 0.0
C2553 C 0.12361 0.52063 0.67073 0.0
C2554 C 0.11345 0.47008 0.7021 0.0
C2555 C 0.13943 0.53283 0.6605 0.0
C2556 C 0.03871 0.41309 0.71474 0.0
C2557 C 0.05759 0.42502 0.71117 0.0
C2558 C 0.07205 0.47564 0.6857 0.0
C2559 C 0.12786 0.4995 0.67762 0.0
C2560 C 0.10998 0.48569 0.68605 0.0
C2561 C 0.05684 0.44761 0.71011 0.0
C2562 C 0.07541 0.46036 0.70194 0.0
H2563 H 0.18083 0.49719 0.66302 0.0
H2564 H 0.15296 0.4754 0.68026 0.0
H2565 H 0.08567 0.49913 0.66492 0.0
H2566 H 1.00347 0.45464 0.71989 0.0
H2567 H 0.03623 0.47536 0.71417 0.0
C2568 C 0.79484 0.51786 0.4465 0.0
C2569 C 0.79594 0.51759 0.42401 0.0
C2570 C 0.79855 0.53681 0.45792 0.0
C2571 C 0.80447 0.59574 0.45604 0.0
H2572 H 0.84837 0.58522 0.49888 0.0
C2573 C 0.84917 0.66448 0.50252 0.0
C2574 C 0.85649 0.65983 0.52334 0.0
C2575 C 0.83927 0.64845 0.49003 0.0
C2576 C 0.83579 0.58854 0.48736 0.0
H2577 H 0.80088 0.53712 0.39576 0.0
H2578 H 0.80693 0.57064 0.4158 0.0
H2579 H 0.8344 0.55555 0.47797 0.0
H2580 H 0.85786 0.63533 0.54792 0.0
H2581 H 0.83969 0.60798 0.52689 0.0
H2582 H 0.80572 0.62883 0.46572 0.0
C2583 C 0.80295 0.55615 0.42456 0.0
C2584 C 0.82784 0.57143 0.47523 0.0
C2585 C 0.79926 0.53704 0.41306 0.0
C2586 C 0.85254 0.63934 0.53186 0.0
C2587 C 0.84234 0.62354 0.51962 0.0
C2588 C 0.81226 0.61295 0.46845 0.0
C2589 C 0.80362 0.55598 0.44715 0.0
C2590 C 0.81194 0.57472 0.45957 0.0
C2591 C 0.83625 0.62754 0.49822 0.0
C2592 C 0.8279 0.60955 0.48449 0.0
H2593 H 0.79279 0.50301 0.45534 0.0
H2594 H 0.79868 0.53618 0.47529 0.0
H2595 H 0.79229 0.59878 0.44401 0.0
H2596 H 0.85223 0.68007 0.49546 0.0
H2597 H 0.83493 0.65221 0.47364 0.0
C2598 C 0.71653 0.47825 0.91419 0.0
C2599 C 0.71812 0.49793 0.92512 0.0
C2600 C 0.71309 0.45907 0.92565 0.0
C2601 C 0.6862 0.44305 0.97515 0.0
H2602 H 0.71134 0.38665 0.9673 0.0
C2603 C 0.66264 0.37501 0.03177 0.0
C2604 C 0.65939 0.35437 0.02327 0.0
C2605 C 0.67274 0.39096 0.0197 0.0
C2606 C 0.70399 0.40224 0.96955 0.0
H2607 H 0.71865 0.51291 0.95643 0.0
H2608 H 0.71327 0.47966 0.97633 0.0
H2609 H 0.72441 0.4171 0.9459 0.0
H2610 H 0.66493 0.33402 0.99568 0.0
H2611 H 0.68219 0.36217 0.97415 0.0
H2612 H 0.66533 0.42856 0.99807 0.0
C2613 C 0.71445 0.47889 0.95901 0.0
C2614 C 0.71154 0.41968 0.95732 0.0
C2615 C 0.71785 0.4979 0.94764 0.0
C2616 C 0.66743 0.34974 1.00271 0.0
C2617 C 0.67728 0.36591 0.99039 0.0
C2618 C 0.67853 0.42572 0.98712 0.0
C2619 C 0.71103 0.4594 0.94816 0.0
C2620 C 0.70296 0.44037 0.96029 0.0
C2621 C 0.67949 0.38696 0.99851 0.0
C2622 C 0.68753 0.4051 0.98485 0.0
H2623 H 0.71607 0.47793 0.89682 0.0
H2624 H 0.71044 0.44431 0.91683 0.0
H2625 H 0.67878 0.45863 0.97741 0.0
H2626 H 0.65676 0.37902 0.04764 0.0
H2627 H 0.67476 0.40667 0.02688 0.0
C2628 C 0.29916 0.97894 0.59865 0.0
C2629 C 0.29915 0.99887 0.58808 0.0
C2630 C 0.30251 0.95985 0.587 0.0
C2631 C 0.33104 0.94351 0.53824 0.0
H2632 H 0.30351 0.88802 0.54459 0.0
C2633 C 0.35276 0.87566 0.48087 0.0
C2634 C 0.35579 0.85495 0.48926 0.0
C2635 C 0.34288 0.89167 0.49304 0.0
C2636 C 0.31149 0.90336 0.54277 0.0
H2637 H 0.30132 0.01448 0.55716 0.0
H2638 H 0.30644 0.98144 0.53688 0.0
H2639 H 0.29096 0.91872 0.56599 0.0
H2640 H 0.34992 0.83449 0.51671 0.0
H2641 H 0.3329 0.86274 0.53836 0.0
H2642 H 0.35188 0.92849 0.51563 0.0
C2643 C 0.30421 0.98038 0.55408 0.0
C2644 C 0.30426 0.92094 0.55501 0.0
C2645 C 0.30097 0.99929 0.56565 0.0
C2646 C 0.34762 0.85027 0.50976 0.0
C2647 C 0.33792 0.86649 0.52217 0.0
C2648 C 0.33831 0.92605 0.52623 0.0
C2649 C 0.30601 0.96052 0.56467 0.0
C2650 C 0.31373 0.94132 0.55256 0.0
C2651 C 0.33607 0.88761 0.51418 0.0
C2652 C 0.32844 0.90579 0.52796 0.0
H2653 H 0.29835 0.97827 0.616 0.0
H2654 H 0.30387 0.94483 0.59563 0.0
H2655 H 0.33916 0.95879 0.53642 0.0
H2656 H 0.35871 0.87971 0.46504 0.0
H2657 H 0.34115 0.90748 0.48602 0.0
C2658 C 0.21651 0.03732 0.09994 0.0
C2659 C 0.21907 0.01772 0.08903 0.0
C2660 C 0.21273 0.05642 0.08843 0.0
C2661 C 0.18653 0.07185 0.03833 0.0
H2662 H 0.21 0.12888 0.04681 0.0
C2663 C 0.16197 0.13974 0.98157 0.0
C2664 C 0.15872 0.16044 0.98991 0.0
C2665 C 0.17202 0.12383 0.99379 0.0
C2666 C 0.20308 0.11312 0.04438 0.0
H2667 H 0.22085 1.00289 0.05771 0.0
H2668 H 0.21483 0.03599 0.03774 0.0
H2669 H 0.2234 0.09876 0.06842 0.0
H2670 H 0.16409 0.18089 0.01747 0.0
H2671 H 0.18116 0.15286 0.03924 0.0
H2672 H 0.1657 0.08583 0.01507 0.0
C2673 C 0.21557 0.03675 0.05508 0.0
C2674 C 0.21085 0.09585 0.05674 0.0
C2675 C 0.21936 0.01783 0.06651 0.0
C2676 C 0.16659 0.16514 0.01053 0.0
C2677 C 0.17635 0.14901 0.023 0.0
C2678 C 0.17862 0.08902 0.02626 0.0
C2679 C 0.21124 0.0561 0.06587 0.0
C2680 C 0.2029 0.07494 0.05356 0.0
C2681 C 0.1787 0.12792 0.015 0.0
C2682 C 0.18698 0.1099 0.02874 0.0
H2683 H 0.21555 0.03758 0.11729 0.0
H2684 H 0.20936 0.07105 0.09721 0.0
H2685 H 0.17961 0.05607 0.03588 0.0
H2686 H 0.15623 0.13567 0.96567 0.0
H2687 H 0.17413 0.10813 0.98664 0.0
C2688 C 0.53178 0.85691 0.63745 0.0
C2689 C 0.52467 0.85764 0.65882 0.0
C2690 C 0.51947 0.84696 0.62161 0.0
C2691 C 0.47262 0.81105 0.61094 0.0
H2692 H 0.47292 0.84197 0.55696 0.0
C2693 C 0.41558 0.79764 0.53579 0.0
C2694 C 0.42632 0.79848 0.51596 0.0
C2695 C 0.42696 0.80115 0.55501 0.0
C2696 C 0.47275 0.83304 0.57187 0.0
H2697 H 0.49942 0.84758 0.68051 0.0
H2698 H 0.47749 0.83041 0.65257 0.0
H2699 H 0.49359 0.85562 0.58697 0.0
H2700 H 0.45735 0.80212 0.5007 0.0
H2701 H 0.4771 0.8078 0.53395 0.0
H2702 H 0.45111 0.78873 0.59548 0.0
C2703 C 0.49281 0.83736 0.64815 0.0
C2704 C 0.48473 0.8408 0.58912 0.0
C2705 C 0.50538 0.84716 0.66419 0.0
C2706 C 0.44873 0.80115 0.51579 0.0
C2707 C 0.45999 0.80465 0.53481 0.0
C2708 C 0.46035 0.80335 0.59358 0.0
C2709 C 0.49943 0.83772 0.62652 0.0
C2710 C 0.48531 0.8297 0.60878 0.0
C2711 C 0.44914 0.80569 0.55453 0.0
C2712 C 0.46072 0.81405 0.57372 0.0
H2713 H 0.5467 0.86461 0.63283 0.0
H2714 H 0.52552 0.84697 0.60531 0.0
H2715 H 0.47261 0.8021 0.62582 0.0
H2716 H 0.39825 0.79611 0.5363 0.0
H2717 H 0.41819 0.80192 0.56999 0.0
C2718 C 0.9808 0.16297 0.13758 0.0
C2719 C 0.98904 0.15993 0.15832 0.0
C2720 C 0.9931 0.17295 0.12172 0.0
C2721 C 0.04348 0.20418 0.11098 0.0
H2722 H 0.03664 0.17851 0.05473 0.0
C2723 C 0.10055 0.21624 0.03628 0.0
C2724 C 0.09009 0.21763 0.01635 0.0
C2725 C 0.0886 0.21289 0.05517 0.0
C2726 C 0.03861 0.18606 0.07027 0.0
H2727 H 0.01645 0.16565 0.17893 0.0
H2728 H 0.03834 0.18269 0.15099 0.0
H2729 H 0.01536 0.16535 0.08448 0.0
H2730 H 0.05913 0.21774 1.00058 0.0
H2731 H 0.03837 0.21251 0.03331 0.0
H2732 H 0.06746 0.22445 0.09643 0.0
C2733 C 0.02213 0.17774 0.14707 0.0
C2734 C 0.02629 0.17856 0.08741 0.0
C2735 C 0.00958 0.16802 0.16314 0.0
C2736 C 0.06755 0.21713 0.01579 0.0
C2737 C 0.05569 0.21381 0.03451 0.0
C2738 C 0.05606 0.21158 0.09373 0.0
C2739 C 0.01427 0.17977 0.12594 0.0
C2740 C 0.0282 0.18771 0.10798 0.0
C2741 C 0.06608 0.21068 0.05429 0.0
C2742 C 0.05348 0.20282 0.07309 0.0
H2743 H 0.96496 0.15703 0.13343 0.0
H2744 H 0.98613 0.1748 0.10591 0.0
H2745 H 0.04545 0.21166 0.12654 0.0
H2746 H 0.11794 0.21595 0.03704 0.0
H2747 H 0.09707 0.21045 0.07015 0.0
C2748 C 1.00642 0.66734 0.34983 0.0
C2749 C 0.02633 0.6579 0.35487 0.0
C2750 C 0.99391 0.67703 0.36596 0.0
C2751 C 0.98784 0.67543 0.42544 0.0
H2752 H 0.95043 0.72463 0.4177 0.0
C2753 C 0.94888 0.7145 0.49792 0.0
C2754 C 0.92639 0.7163 0.49741 0.0
C2755 C 0.96054 0.71103 0.47912 0.0
C2756 C 0.96075 0.71082 0.42002 0.0
H2757 H 0.04937 0.65257 0.38035 0.0
H2758 H 0.02828 0.67015 0.40802 0.0
H2759 H 0.97221 0.71158 0.3875 0.0
H2760 H 0.89853 0.71697 0.47668 0.0
H2761 H 0.91911 0.71126 0.44339 0.0
H2762 H 0.97671 0.67474 0.45787 0.0
C2763 C 0.02175 0.66942 0.39193 0.0
C2764 C 0.97319 0.70328 0.40272 0.0
C2765 C 0.03401 0.65952 0.37599 0.0
C2766 C 0.91591 0.71619 0.47744 0.0
C2767 C 0.92767 0.71272 0.45845 0.0
C2768 C 0.97567 0.68306 0.44264 0.0
C2769 C 1.00116 0.67764 0.3874 0.0
C2770 C 0.98718 0.68563 0.4053 0.0
C2771 C 0.95002 0.70912 0.45927 0.0
C2772 C 0.96219 0.70101 0.44029 0.0
H2773 H 0.99998 0.66614 0.33373 0.0
H2774 H 0.97815 0.68312 0.3618 0.0
H2775 H 0.99772 0.66135 0.42799 0.0
H2776 H 0.95731 0.71417 0.51314 0.0
H2777 H 0.97775 0.70865 0.48027 0.0
C2778 C 0.51087 0.34846 0.8487 0.0
C2779 C 0.49048 0.35693 0.85348 0.0
C2780 C 0.52331 0.33867 0.86483 0.0
C2781 C 0.52748 0.33799 0.92457 0.0
H2782 H 0.5677 0.29125 0.91576 0.0
C2783 C 0.56725 0.29838 0.99644 0.0
C2784 C 0.5898 0.29752 0.99616 0.0
C2785 C 0.55567 0.30196 0.9776 0.0
C2786 C 0.55658 0.30435 0.9184 0.0
H2787 H 0.46653 0.36039 0.87845 0.0
H2788 H 0.48747 0.34255 0.90604 0.0
H2789 H 0.5461 0.30448 0.88555 0.0
H2790 H 0.6179 0.29874 0.97577 0.0
H2791 H 0.5975 0.30468 0.94244 0.0
H2792 H 0.53766 0.3378 0.95731 0.0
C2793 C 0.49446 0.34418 0.89022 0.0
C2794 C 0.54423 0.31201 0.90109 0.0
C2795 C 0.48227 0.35422 0.87429 0.0
C2796 C 0.6005 0.29874 0.97634 0.0
C2797 C 0.58882 0.30235 0.95732 0.0
C2798 C 0.53956 0.33022 0.94178 0.0
C2799 C 0.51548 0.33694 0.886 0.0
C2800 C 0.52927 0.32879 0.90401 0.0
C2801 C 0.56633 0.30497 0.95795 0.0
C2802 C 0.55407 0.31315 0.93904 0.0
H2803 H 0.5177 0.35051 0.83285 0.0
H2804 H 0.53941 0.33338 0.8609 0.0
H2805 H 0.51681 0.35142 0.92746 0.0
H2806 H 0.55864 0.29786 0.01155 0.0
H2807 H 0.53836 0.30355 0.9786 0.0
C2808 C 0.53755 0.41292 0.79651 0.0
C2809 C 0.51843 0.42487 0.79677 0.0
C2810 C 0.55746 0.42318 0.79951 0.0
C2811 C 0.58467 0.4768 0.8018 0.0
H2812 H 0.61854 0.45066 0.84697 0.0
C2813 C 0.66171 0.51685 0.8385 0.0
C2814 C 0.66146 0.51761 0.86104 0.0
C2815 C 0.64657 0.50428 0.82731 0.0
C2816 C 0.60937 0.45812 0.83422 0.0
H2817 H 0.5051 0.45685 0.7994 0.0
H2818 H 0.53962 0.47479 0.80392 0.0
H2819 H 0.58793 0.4313 0.83201 0.0
H2820 H 0.64564 0.50514 0.88946 0.0
H2821 H 0.61983 0.48321 0.87016 0.0
H2822 H 0.60573 0.504 0.80469 0.0
C2823 C 0.53948 0.45759 0.80133 0.0
C2824 C 0.59192 0.44692 0.82548 0.0
C2825 C 0.51966 0.44733 0.79866 0.0
C2826 C 0.64623 0.50507 0.87209 0.0
C2827 C 0.63149 0.49232 0.86101 0.0
C2828 C 0.6023 0.48794 0.81042 0.0
C2829 C 0.55859 0.44561 0.80261 0.0
C2830 C 0.579 0.45629 0.8095 0.0
C2831 C 0.63128 0.49186 0.8385 0.0
C2832 C 0.61453 0.47895 0.82713 0.0
H2833 H 0.53699 0.39555 0.79565 0.0
H2834 H 0.57187 0.41348 0.8003 0.0
H2835 H 0.57515 0.48447 0.78944 0.0
H2836 H 0.67317 0.52638 0.82954 0.0
H2837 H 0.64683 0.50423 0.80994 0.0
C2838 C 0.02824 0.08402 0.22591 0.0
C2839 C 0.0214 0.09762 0.20925 0.0
C2840 C 0.04732 0.07204 0.22367 0.0
C2841 C 0.07354 0.04378 0.18244 0.0
H2842 H 0.12961 0.04699 0.20945 0.0
C2843 C 0.14628 0.00899 0.14044 0.0
C2844 C 0.16156 0.99703 0.15198 0.0
C2845 C 0.13049 0.02077 0.15098 0.0
C2846 C 0.11393 0.04563 0.20203 0.0
H2847 H 0.02982 0.11073 0.17818 0.0
H2848 H 0.06282 0.09003 0.17439 0.0
H2849 H 0.09982 0.06934 0.22299 0.0
H2850 H 0.17278 0.98892 0.18384 0.0
H2851 H 0.14461 0.0096 0.20258 0.0
H2852 H 0.0872 0.02052 0.16134 0.0
C2853 C 0.05358 0.08851 0.18906 0.0
C2854 C 0.09695 0.05842 0.20977 0.0
C2855 C 0.03473 0.10037 0.19126 0.0
C2856 C 0.16119 0.99793 0.17453 0.0
C2857 C 0.14508 0.00975 0.18521 0.0
C2858 C 0.09029 0.031 0.17487 0.0
C2859 C 0.05964 0.07364 0.20481 0.0
C2860 C 0.07681 0.05798 0.19959 0.0
C2861 C 0.12922 0.02088 0.17347 0.0
C2862 C 0.11093 0.03228 0.18402 0.0
H2863 H 0.01808 0.0814 0.23977 0.0
H2864 H 0.05165 0.06052 0.23595 0.0
H2865 H 0.0581 0.04308 0.17442 0.0
H2866 H 0.14635 0.00911 0.12306 0.0
H2867 H 0.11906 0.02971 0.14138 0.0
C2868 C 0.49689 0.94668 0.71815 0.0
C2869 C 0.49685 0.92419 0.71665 0.0
C2870 C 0.47805 0.95842 0.71476 0.0
C2871 C 0.41885 0.95659 0.70861 0.0
H2872 H 0.42953 1.00194 0.66739 0.0
C2873 C 0.35023 1.00382 0.66469 0.0
C2874 C 0.35457 0.02507 0.65844 0.0
C2875 C 0.36628 0.99126 0.67443 0.0
C2876 C 0.42615 0.9897 0.67924 0.0
H2877 H 0.47695 0.89624 0.71119 0.0
H2878 H 0.44368 0.91682 0.70556 0.0
H2879 H 0.45926 0.98069 0.6807 0.0
H2880 H 0.37852 0.05027 0.65879 0.0
H2881 H 0.40591 0.02905 0.67675 0.0
H2882 H 0.38562 0.96581 0.7072 0.0
C2883 C 0.45828 0.92534 0.70966 0.0
C2884 C 0.4433 0.97739 0.68683 0.0
C2885 C 0.47726 0.91354 0.71309 0.0
C2886 C 0.37475 0.03389 0.66331 0.0
C2887 C 0.39057 0.02156 0.67337 0.0
C2888 C 0.40158 0.96915 0.70117 0.0
C2889 C 0.45871 0.94797 0.70953 0.0
C2890 C 0.43997 0.9608 0.70174 0.0
C2891 C 0.38693 0.99979 0.67838 0.0
C2892 C 0.40502 0.98605 0.68648 0.0
H2893 H 0.51186 0.95529 0.72041 0.0
H2894 H 0.4789 0.97579 0.71509 0.0
H2895 H 0.41573 0.94387 0.72003 0.0
H2896 H 0.33489 0.99652 0.66087 0.0
H2897 H 0.3628 0.97458 0.6779 0.0
C2898 C 0.97975 0.60372 0.31839 0.0
C2899 C 0.99404 0.59752 0.30209 0.0
C2900 C 0.9608 0.59232 0.32192 0.0
C2901 C 0.92089 0.55414 0.30307 0.0
H2902 H 0.92307 0.53337 0.36167 0.0
C2903 C 0.85754 0.49466 0.34049 0.0
C2904 C 0.853 0.49766 0.36238 0.0
C2905 C 0.8737 0.50691 0.33044 0.0
C2906 C 0.92192 0.53924 0.34536 0.0
H2907 H 0.99913 0.57537 0.27584 0.0
H2908 H 0.96536 0.55547 0.28177 0.0
H2909 H 0.95204 0.55554 0.348 0.0
H2910 H 0.86051 0.51673 0.39044 0.0
H2911 H 0.88762 0.53852 0.37296 0.0
H2912 H 0.89029 0.53825 0.30072 0.0
C2913 C 0.96895 0.56929 0.2917 0.0
C2914 C 0.93866 0.55185 0.33749 0.0
C2915 C 0.98814 0.58075 0.28819 0.0
C2916 C 0.86394 0.51383 0.37363 0.0
C2917 C 0.87966 0.5262 0.36361 0.0
C2918 C 0.90382 0.54165 0.31109 0.0
C2919 C 0.95564 0.57441 0.30924 0.0
C2920 C 0.9382 0.55977 0.31643 0.0
C2921 C 0.88535 0.52249 0.34208 0.0
C2922 C 0.90392 0.53442 0.33253 0.0
H2923 H 0.98407 0.61642 0.32948 0.0
H2924 H 0.95077 0.5967 0.33544 0.0
H2925 H 0.92022 0.55999 0.28673 0.0
H2926 H 0.84936 0.48223 0.33148 0.0
H2927 H 0.8776 0.50359 0.31384 0.0
C2928 C 0.27313 0.14373 0.59296 0.0
C2929 C 0.26095 0.12927 0.6054 0.0
C2930 C 0.26322 0.15765 0.57832 0.0
C2931 C 0.21449 0.16531 0.54538 0.0
H2932 H 0.23236 0.22498 0.54389 0.0
C2933 C 0.18844 0.22513 0.47786 0.0
C2934 C 0.1812 0.24544 0.48475 0.0
C2935 C 0.1981 0.21075 0.49235 0.0
C2936 C 0.22715 0.20838 0.5441 0.0
H2937 H 0.22856 0.11816 0.61179 0.0
H2938 H 0.21127 0.14226 0.58585 0.0
H2939 H 0.24873 0.20038 0.56971 0.0
H2940 H 0.17905 0.26655 0.51236 0.0
H2941 H 0.19624 0.24177 0.53733 0.0
H2942 H 0.19301 0.17336 0.51959 0.0
C2943 C 0.22858 0.14279 0.58759 0.0
C2944 C 0.23663 0.19422 0.55883 0.0
C2945 C 0.23849 0.12903 0.60254 0.0
C2946 C 0.18433 0.25108 0.50641 0.0
C2947 C 0.19429 0.23687 0.52077 0.0
C2948 C 0.20523 0.17942 0.53038 0.0
C2949 C 0.24081 0.15741 0.57538 0.0
C2950 C 0.23041 0.17249 0.55974 0.0
C2951 C 0.20116 0.21643 0.51401 0.0
C2952 C 0.21137 0.20119 0.5296 0.0
H2953 H 0.29043 0.14452 0.59466 0.0
H2954 H 0.27319 0.16851 0.56908 0.0
H2955 H 0.20941 0.14868 0.5455 0.0
H2956 H 0.18628 0.22016 0.46135 0.0
H2957 H 0.20335 0.19522 0.48654 0.0
C2958 C 0.24462 0.8811 0.08644 0.0
C2959 C 0.25413 0.88546 0.10647 0.0
C2960 C 0.25456 0.86736 0.07161 0.0
C2961 C 0.3071 0.83984 0.0594 0.0
H2962 H 0.27146 0.80588 0.02128 0.0
C2963 C 0.34111 0.77009 0.00761 0.0
C2964 C 0.33453 0.76889 0.98601 0.0
C2965 C 0.33133 0.78443 0.02195 0.0
C2966 C 0.28166 0.81538 0.03168 0.0
H2967 H 0.28166 0.87844 0.12654 0.0
H2968 H 0.29862 0.85391 0.10114 0.0
H2969 H 0.25466 0.83003 0.04705 0.0
H2970 H 0.31205 0.78194 0.96283 0.0
H2971 H 0.29473 0.80669 0.98799 0.0
H2972 H 0.33407 0.82453 0.04433 0.0
C2973 C 0.28374 0.8616 0.09649 0.0
C2974 C 0.27203 0.82939 0.04649 0.0
C2975 C 0.27394 0.87566 0.11121 0.0
C2976 C 0.31762 0.78235 0.97928 0.0
C2977 C 0.3076 0.7965 0.99375 0.0
C2978 C 0.3167 0.82559 0.0448 0.0
C2979 C 0.27421 0.85715 0.07641 0.0
C2980 C 0.28457 0.84196 0.06061 0.0
C2981 C 0.31444 0.79785 0.01525 0.0
C2982 C 0.30413 0.81319 0.03069 0.0
H2983 H 0.22946 0.88846 0.08209 0.0
H2984 H 0.2468 0.86494 0.05627 0.0
H2985 H 0.31749 0.84941 0.06953 0.0
H2986 H 0.35409 0.76009 0.01348 0.0
H2987 H 0.33688 0.78484 0.03841 0.0
C2988 C 0.69847 0.28139 0.5346 0.0
C2989 C 0.68134 0.26814 0.52808 0.0
C2990 C 0.70839 0.29553 0.52003 0.0
C2991 C 0.71282 0.30745 0.46083 0.0
H2992 H 0.73571 0.36171 0.48096 0.0
C2993 C 0.7411 0.37521 0.40265 0.0
C2994 C 0.7609 0.38503 0.4075 0.0
C2995 C 0.73123 0.36118 0.41735 0.0
C2996 C 0.7295 0.34657 0.47507 0.0
H2997 H 0.66108 0.25985 0.50097 0.0
H2998 H 0.67766 0.28472 0.47608 0.0
H2999 H 0.71921 0.337 0.50641 0.0
H3000 H 0.78552 0.38794 0.432 0.0
H3001 H 0.76821 0.3639 0.45756 0.0
H3002 H 0.72274 0.31739 0.42938 0.0
C3003 C 0.68406 0.28384 0.4922 0.0
C3004 C 0.7201 0.33225 0.48974 0.0
C3005 C 0.67438 0.26956 0.50663 0.0
C3006 C 0.77031 0.38071 0.42761 0.0
C3007 C 0.76031 0.36697 0.44238 0.0
C3008 C 0.72195 0.32191 0.44614 0.0
C3009 C 0.7013 0.29707 0.49856 0.0
C3010 C 0.7116 0.31239 0.4829 0.0
C3011 C 0.74072 0.35685 0.43742 0.0
C3012 C 0.73048 0.34165 0.45304 0.0
H3013 H 0.70438 0.28075 0.55092 0.0
H3014 H 0.7218 0.30507 0.52564 0.0
H3015 H 0.70699 0.29223 0.4548 0.0
H3016 H 0.7334 0.37804 0.38733 0.0
H3017 H 0.71607 0.35379 0.41304 0.0
C3018 C 0.74154 0.64361 0.92041 0.0
C3019 C 0.75358 0.6291 0.90788 0.0
C3020 C 0.7516 0.65745 0.93506 0.0
C3021 C 0.80073 0.66476 0.96769 0.0
H3022 H 0.78299 0.72443 0.96992 0.0
C3023 C 0.82787 0.72405 0.03538 0.0
C3024 C 0.83488 0.74448 0.02863 0.0
C3025 C 0.81807 0.70976 0.02087 0.0
C3026 C 0.78818 0.70783 0.96951 0.0
H3027 H 0.78589 0.61785 0.90135 0.0
H3028 H 0.80342 0.6418 0.92725 0.0
H3029 H 0.76622 0.70005 0.94413 0.0
H3030 H 0.83651 0.76588 1.00121 0.0
H3031 H 0.81909 0.74125 0.97622 0.0
H3032 H 0.8226 0.67259 0.99323 0.0
C3033 C 0.7861 0.64243 0.9256 0.0
C3034 C 0.77845 0.69379 0.95479 0.0
C3035 C 0.77605 0.62875 0.91066 0.0
C3036 C 0.83142 0.7503 0.00706 0.0
C3037 C 0.82131 0.73619 0.99269 0.0
C3038 C 0.81024 0.67875 0.98267 0.0
C3039 C 0.77402 0.65709 0.93792 0.0
C3040 C 0.78461 0.67205 0.9536 0.0
C3041 C 0.81462 0.71565 0.99931 0.0
C3042 C 0.80416 0.70052 0.98373 0.0
H3043 H 0.72423 0.64447 0.91878 0.0
H3044 H 0.74172 0.66833 0.94438 0.0
H3045 H 0.80579 0.64813 0.96737 0.0
H3046 H 0.83028 0.71893 0.0518 0.0
H3047 H 0.81298 0.69414 0.02658 0.0
C3048 C 0.47936 0.19668 0.23124 0.0
C3049 C 0.4864 0.17982 0.24457 0.0
C3050 C 0.49364 0.20686 0.21699 0.0
C3051 C 0.54464 0.19826 0.18755 0.0
H3052 H 0.54659 0.26029 0.18338 0.0
C3053 C 0.61104 0.24135 0.13792 0.0
C3054 C 0.60628 0.26112 0.12808 0.0
C3055 C 0.5963 0.23153 0.15191 0.0
C3056 C 0.54611 0.24293 0.18395 0.0
H3057 H 0.51418 0.1605 0.25307 0.0
H3058 H 0.53876 0.17798 0.22818 0.0
H3059 H 0.52091 0.24327 0.20751 0.0
H3060 H 0.58184 0.28574 0.12504 0.0
H3061 H 0.55593 0.26835 0.1485 0.0
H3062 H 0.56936 0.1977 0.16371 0.0
C3063 C 0.52222 0.18337 0.22874 0.0
C3064 C 0.53135 0.23316 0.19795 0.0
C3065 C 0.50808 0.17342 0.24316 0.0
C3066 C 0.58619 0.2706 0.13239 0.0
C3067 C 0.57132 0.26064 0.1461 0.0
C3068 C 0.55919 0.20798 0.17334 0.0
C3069 C 0.51524 0.20022 0.21544 0.0
C3070 C 0.5305 0.21069 0.20005 0.0
C3071 C 0.57614 0.24099 0.15627 0.0
C3072 C 0.5603 0.23052 0.17134 0.0
H3073 H 0.46283 0.2021 0.23185 0.0
H3074 H 0.48767 0.2197 0.20691 0.0
H3075 H 0.54427 0.1809 0.18853 0.0
H3076 H 0.62642 0.23365 0.13521 0.0
H3077 H 0.60098 0.21667 0.15961 0.0
C3078 C 0.92858 0.74276 0.6332 0.0
C3079 C 0.90866 0.75247 0.62867 0.0
C3080 C 0.94354 0.75269 0.64684 0.0
C3081 C 0.95627 0.80555 0.67354 0.0
H3082 H 0.99419 0.77022 0.70803 0.0
C3083 C 1.00758 0.84016 0.74323 0.0
C3084 C 0.02925 0.83371 0.7446 0.0
C3085 C 0.99338 0.83021 0.72888 0.0
C3086 C 0.98385 0.78033 0.69838 0.0
H3087 H 0.8889 0.78032 0.63534 0.0
H3088 H 0.91447 0.79725 0.65965 0.0
H3089 H 0.96834 0.75322 0.68406 0.0
H3090 H 0.05272 0.81133 0.73187 0.0
H3091 H 0.02773 0.79367 0.70708 0.0
H3092 H 0.97144 0.83263 0.68852 0.0
C3093 C 0.91897 0.78223 0.65217 0.0
C3094 C 0.96899 0.77058 0.68447 0.0
C3095 C 0.90414 0.77243 0.63824 0.0
C3096 C 0.0362 0.81678 0.73129 0.0
C3097 C 0.02184 0.80658 0.71713 0.0
C3098 C 0.9709 0.81526 0.68768 0.0
C3099 C 0.93898 0.77255 0.65674 0.0
C3100 C 0.95492 0.783 0.67173 0.0
C3101 C 1.00026 0.81328 0.71562 0.0
C3102 C 0.98492 0.80281 0.70029 0.0
H3103 H 0.93275 0.72746 0.62605 0.0
H3104 H 0.95882 0.74478 0.64939 0.0
H3105 H 0.94621 0.81585 0.66381 0.0
H3106 H 1.00156 0.85314 0.75311 0.0
H3107 H 0.97685 0.83566 0.72833 0.0
C3108 C 0.00796 0.33073 0.76389 0.0
C3109 C 0.98627 0.33397 0.76954 0.0
C3110 C 0.02231 0.32068 0.77806 0.0
C3111 C 0.03183 0.30937 0.83547 0.0
H3112 H 0.07112 0.26591 0.81433 0.0
C3113 C 0.1038 0.2757 0.88589 0.0
C3114 C 0.10684 0.25328 0.88544 0.0
C3115 C 0.08885 0.28565 0.87215 0.0
C3116 C 0.06024 0.27798 0.82054 0.0
H3117 H 0.96285 0.32902 0.79482 0.0
H3118 H 0.98801 0.3118 0.81969 0.0
H3119 H 0.04539 0.28256 0.78981 0.0
H3120 H 0.09638 0.22391 0.86983 0.0
H3121 H 0.07076 0.24123 0.84588 0.0
H3122 H 0.04686 0.30489 0.86619 0.0
C3123 C 0.99385 0.31704 0.80418 0.0
C3124 C 0.04556 0.28764 0.80642 0.0
C3125 C 0.97938 0.32679 0.78984 0.0
C3126 C 0.09455 0.24118 0.87078 0.0
C3127 C 0.07988 0.25114 0.85688 0.0
C3128 C 0.04676 0.29993 0.84954 0.0
C3129 C 0.01553 0.31382 0.79848 0.0
C3130 C 0.03108 0.30343 0.81368 0.0
C3131 C 0.07678 0.27352 0.85734 0.0
C3132 C 0.06113 0.28402 0.8423 0.0
H3133 H 0.01393 0.33596 0.74843 0.0
H3134 H 0.03888 0.31863 0.77315 0.0
H3135 H 0.02106 0.32158 0.8416 0.0
H3136 H 0.11293 0.28558 0.89691 0.0
H3137 H 0.08701 0.30294 0.87287 0.0
C3138 C 0.53561 0.69724 0.2817 0.0
C3139 C 0.52882 0.68017 0.26852 0.0
C3140 C 0.52116 0.7075 0.29571 0.0
C3141 C 0.46188 0.71302 0.30745 0.0
H3142 H 0.48231 0.73632 0.36137 0.0
C3143 C 0.40408 0.74164 0.37525 0.0
C3144 C 0.40876 0.76159 0.38483 0.0
C3145 C 0.41876 0.73184 0.36119 0.0
C3146 C 0.47635 0.73001 0.34631 0.0
H3147 H 0.50136 0.66038 0.2602 0.0
H3148 H 0.47661 0.67753 0.28491 0.0
H3149 H 0.50761 0.71916 0.3369 0.0
H3150 H 0.43294 0.78658 0.38724 0.0
H3151 H 0.45864 0.76926 0.36315 0.0
H3152 H 0.43049 0.72341 0.31729 0.0
C3153 C 0.49287 0.68363 0.28406 0.0
C3154 C 0.49092 0.72022 0.33213 0.0
C3155 C 0.50721 0.6736 0.26988 0.0
C3156 C 0.42871 0.77125 0.3802 0.0
C3157 C 0.44353 0.76126 0.36643 0.0
C3158 C 0.44729 0.72251 0.32178 0.0
C3159 C 0.49951 0.70082 0.29721 0.0
C3160 C 0.48397 0.71154 0.3124 0.0
C3161 C 0.43871 0.74151 0.35658 0.0
C3162 C 0.4543 0.73117 0.34141 0.0
H3163 H 0.55208 0.70285 0.28106 0.0
H3164 H 0.52699 0.72086 0.30517 0.0
H3165 H 0.45575 0.70709 0.29232 0.0
H3166 H 0.38887 0.73376 0.37832 0.0
H3167 H 0.41456 0.71656 0.35402 0.0
C3168 C 0.13453 0.58567 0.27064 0.0
C3169 C 0.13016 0.60562 0.26096 0.0
C3170 C 0.14825 0.57072 0.26083 0.0
C3171 C 0.17562 0.55811 0.20836 0.0
H3172 H 0.20978 0.52018 0.24399 0.0
C3173 C 0.24591 0.50715 0.17451 0.0
C3174 C 0.24732 0.48548 0.1809 0.0
C3175 C 0.23139 0.52125 0.18434 0.0
C3176 C 0.20022 0.53052 0.2338 0.0
H3177 H 0.13718 0.62545 0.2333 0.0
H3178 H 0.16167 0.59989 0.21657 0.0
H3179 H 0.18554 0.54596 0.26073 0.0
H3180 H 0.23447 0.46191 0.20306 0.0
H3181 H 0.20934 0.48672 0.22051 0.0
H3182 H 0.19097 0.54302 0.18147 0.0
C3183 C 0.15398 0.59536 0.23147 0.0
C3184 C 0.18615 0.54534 0.24339 0.0
C3185 C 0.13995 0.61018 0.24114 0.0
C3186 C 0.23388 0.47843 0.19766 0.0
C3187 C 0.21952 0.49269 0.20774 0.0
C3188 C 0.18992 0.54352 0.1988 0.0
C3189 C 0.15841 0.57533 0.24114 0.0
C3190 C 0.17355 0.55942 0.23085 0.0
C3191 C 0.21796 0.51426 0.20108 0.0
C3192 C 0.20242 0.52951 0.21137 0.0
H3193 H 0.12719 0.58148 0.28583 0.0
H3194 H 0.15069 0.55543 0.2687 0.0
H3195 H 0.16601 0.56818 0.19797 0.0
H3196 H 0.25588 0.51326 0.16164 0.0
H3197 H 0.23082 0.53778 0.17893 0.0
C3198 C 0.63882 0.90423 0.77326 0.0
C3199 C 0.62944 0.90889 0.75323 0.0
C3200 C 0.65287 0.9189 0.78314 0.0
C3201 C 0.66814 0.97644 0.7846 0.0
H3202 H 0.72174 0.95566 0.80844 0.0
C3203 C 0.73324 0.03539 0.81716 0.0
C3204 C 0.74606 0.02871 0.83453 0.0
C3205 C 0.71913 0.02097 0.80697 0.0
C3206 C 0.70672 0.96184 0.80224 0.0
H3207 H 0.62735 0.933 0.7282 0.0
H3208 H 0.65143 0.9586 0.74559 0.0
H3209 H 0.69668 0.93043 0.79217 0.0
H3210 H 0.75358 1.00151 0.85495 0.0
H3211 H 0.72872 0.97687 0.8379 0.0
H3212 H 0.67778 0.00774 0.79508 0.0
C3213 C 0.64799 0.94357 0.75362 0.0
C3214 C 0.69233 0.94726 0.79279 0.0
C3215 C 0.63423 0.92879 0.74359 0.0
C3216 C 0.7442 1.00728 0.84149 0.0
C3217 C 0.72994 0.99299 0.83152 0.0
C3218 C 0.68239 0.991 0.79432 0.0
C3219 C 0.65766 0.93878 0.77345 0.0
C3220 C 0.67285 0.95434 0.78381 0.0
C3221 C 0.71719 0.9995 0.81401 0.0
C3222 C 0.70196 0.98398 0.80333 0.0
H3223 H 0.63562 0.88907 0.78114 0.0
H3224 H 0.65988 0.91473 0.79849 0.0
H3225 H 0.6532 0.98246 0.77803 0.0
H3226 H 0.73426 0.05172 0.81126 0.0
H3227 H 0.70996 0.02668 0.79337 0.0
C3228 C 0.78282 0.97902 0.31754 0.0
C3229 C 0.76942 0.98587 0.33442 0.0
C3230 C 0.79704 0.99341 0.30753 0.0
C3231 C 0.8264 0.0443 0.31668 0.0
H3232 H 0.83096 0.04656 0.25476 0.0
C3233 C 0.87651 0.11064 0.27402 0.0
C3234 C 0.88648 0.10577 0.25437 0.0
C3235 C 0.86245 0.09593 0.2838 0.0
C3236 C 0.83027 0.04599 0.27209 0.0
H3237 H 0.76072 0.01345 0.35392 0.0
H3238 H 0.78557 0.03825 0.33668 0.0
H3239 H 0.80659 0.0209 0.27146 0.0
H3240 H 0.88981 0.08119 0.22994 0.0
H3241 H 0.86623 0.05537 0.24726 0.0
H3242 H 0.85037 0.06892 0.31752 0.0
C3243 C 0.78509 0.02176 0.33118 0.0
C3244 C 0.81614 0.03125 0.28167 0.0
C3245 C 0.77069 1.0075 0.34097 0.0
C3246 C 0.88233 0.08562 0.245 0.0
C3247 C 0.86856 0.07081 0.2549 0.0
C3248 C 0.84075 0.05883 0.30714 0.0
C3249 C 0.79849 0.01494 0.31434 0.0
C3250 C 0.81393 0.03028 0.30409 0.0
C3251 C 0.85816 0.07575 0.27438 0.0
C3252 C 0.8429 0.06002 0.28465 0.0
H3253 H 0.7823 0.96253 0.31202 0.0
H3254 H 0.80721 0.98758 0.29469 0.0
H3255 H 0.82531 0.04382 0.33401 0.0
H3256 H 0.87912 0.12607 0.28161 0.0
H3257 H 0.85459 0.10066 0.29855 0.0
C3258 C 0.2641 0.50739 0.68303 0.0
C3259 C 0.26996 0.52896 0.67948 0.0
C3260 C 0.27828 0.49301 0.69303 0.0
C3261 C 0.33583 0.48298 0.70353 0.0
H3262 H 0.31506 0.4448 0.74807 0.0
C3263 C 0.38631 0.41133 0.73762 0.0
C3264 C 0.38627 0.40875 0.76007 0.0
C3265 C 0.37246 0.42616 0.72765 0.0
C3266 C 0.32117 0.45537 0.73569 0.0
H3267 H 0.29562 0.55213 0.6838 0.0
H3268 H 0.3205 0.5269 0.70089 0.0
H3269 H 0.29044 0.47044 0.73138 0.0
H3270 H 0.37129 0.41991 0.78949 0.0
H3271 H 0.34715 0.44535 0.77214 0.0
H3272 H 0.36653 0.46775 0.70774 0.0
C3273 C 0.30482 0.52118 0.69596 0.0
C3274 C 0.30699 0.46999 0.72601 0.0
C3275 C 0.29048 0.53569 0.68627 0.0
C3276 C 0.37191 0.42139 0.77219 0.0
C3277 C 0.35791 0.43594 0.76221 0.0
C3278 C 0.34994 0.4681 0.71298 0.0
C3279 C 0.29891 0.49963 0.6995 0.0
C3280 C 0.31412 0.48408 0.70985 0.0
C3281 C 0.35796 0.43858 0.7398 0.0
C3282 C 0.34285 0.45415 0.72929 0.0
H3283 H 0.24845 0.50156 0.67811 0.0
H3284 H 0.2732 0.47653 0.69536 0.0
H3285 H 0.34185 0.49345 0.69102 0.0
H3286 H 0.39707 0.40192 0.72772 0.0
H3287 H 0.37285 0.42765 0.71034 0.0
C3288 C 0.81773 0.78157 0.53492 0.0
C3289 C 0.83493 0.76851 0.52813 0.0
C3290 C 0.80755 0.79572 0.52056 0.0
C3291 C 0.81648 0.82555 0.46993 0.0
H3292 H 0.75439 0.82872 0.46702 0.0
C3293 C 0.77371 0.87507 0.40331 0.0
C3294 C 0.75365 0.88451 0.40777 0.0
C3295 C 0.78349 0.86109 0.41808 0.0
C3296 C 0.77176 0.82843 0.46776 0.0
H3297 H 0.85485 0.76043 0.5007 0.0
H3298 H 0.83737 0.78516 0.47597 0.0
H3299 H 0.77141 0.80473 0.4928 0.0
H3300 H 0.72846 0.88685 0.43168 0.0
H3301 H 0.74578 0.86342 0.45765 0.0
H3302 H 0.81705 0.84956 0.4454 0.0
C3303 C 0.83171 0.78445 0.49238 0.0
C3304 C 0.78153 0.81451 0.48258 0.0
C3305 C 0.84166 0.77012 0.5066 0.0
C3306 C 0.74383 0.87979 0.42756 0.0
C3307 C 0.75376 0.86611 0.44247 0.0
C3308 C 0.80675 0.8397 0.45533 0.0
C3309 C 0.81452 0.79746 0.49912 0.0
C3310 C 0.80403 0.81276 0.48378 0.0
C3311 C 0.77372 0.85635 0.43797 0.0
C3312 C 0.78418 0.84134 0.45386 0.0
H3313 H 0.81205 0.78081 0.55133 0.0
H3314 H 0.79444 0.80558 0.52635 0.0
H3315 H 0.83387 0.82485 0.47057 0.0
H3316 H 0.78167 0.87812 0.38817 0.0
H3317 H 0.79859 0.85371 0.41363 0.0
C3318 C 0.67406 0.24401 1.00629 0.0
C3319 C 0.68068 0.24542 0.02785 0.0
C3320 C 0.68395 0.22972 0.99201 0.0
C3321 C 0.71995 0.1813 0.98998 0.0
H3322 H 0.72352 0.19636 0.92973 0.0
C3323 C 0.77053 0.13277 0.92803 0.0
C3324 C 0.76116 0.12855 0.90788 0.0
C3325 C 0.76054 0.14651 0.94281 0.0
C3326 C 0.72249 0.1918 0.94647 0.0
H3327 H 0.70331 0.23281 0.05107 0.0
H3328 H 0.7211 0.20842 0.02603 0.0
H3329 H 0.70756 0.22151 0.95504 0.0
H3330 H 0.73376 0.13571 0.88764 0.0
H3331 H 0.71647 0.15997 0.91335 0.0
H3332 H 0.73554 0.15178 0.98128 0.0
C3333 C 0.7078 0.21799 0.02023 0.0
C3334 C 0.71322 0.20624 0.96108 0.0
C3335 C 0.69768 0.23214 0.03464 0.0
C3336 C 0.74142 0.13846 0.903 0.0
C3337 C 0.73158 0.1525 0.91769 0.0
C3338 C 0.72949 0.16698 0.97538 0.0
C3339 C 0.70108 0.21649 0.99864 0.0
C3340 C 0.71163 0.2012 0.9831 0.0
C3341 C 0.74102 0.15674 0.93781 0.0
C3342 C 0.73078 0.17197 0.95339 0.0
H3343 H 0.66089 0.25374 1.00042 0.0
H3344 H 0.67782 0.22886 0.97579 0.0
H3345 H 0.71879 0.17649 1.00662 0.0
H3346 H 0.7857 0.12546 0.93242 0.0
H3347 H 0.76838 0.14951 0.95804 0.0
C3348 C 0.2751 0.6386 0.61064 0.0
C3349 C 0.25532 0.62874 0.6058 0.0
C3350 C 0.28493 0.65265 0.59595 0.0
C3351 C 0.28687 0.66718 0.53829 0.0
H3352 H 0.30899 0.72167 0.55861 0.0
C3353 C 0.31838 0.73227 0.4789 0.0
C3354 C 0.33536 0.74563 0.48559 0.0
C3355 C 0.30837 0.71813 0.49338 0.0
C3356 C 0.30328 0.70641 0.55257 0.0
H3357 H 0.23069 0.62575 0.58134 0.0
H3358 H 0.24799 0.6498 0.55572 0.0
H3359 H 0.29308 0.69652 0.58395 0.0
H3360 H 0.35526 0.75411 0.51289 0.0
H3361 H 0.33853 0.72921 0.53766 0.0
H3362 H 0.29746 0.67668 0.50702 0.0
C3363 C 0.25587 0.64676 0.57091 0.0
C3364 C 0.29404 0.69197 0.5672 0.0
C3365 C 0.2459 0.63301 0.58569 0.0
C3366 C 0.3421 0.7443 0.50711 0.0
C3367 C 0.33232 0.73001 0.52147 0.0
C3368 C 0.29638 0.68149 0.52367 0.0
C3369 C 0.27543 0.65694 0.57588 0.0
C3370 C 0.28567 0.67216 0.56028 0.0
C3371 C 0.3152 0.71669 0.51494 0.0
C3372 C 0.30476 0.70139 0.53053 0.0
H3373 H 0.2828 0.63581 0.62597 0.0
H3374 H 0.30006 0.66008 0.60026 0.0
H3375 H 0.28077 0.652 0.53239 0.0
H3376 H 0.31265 0.73288 0.4625 0.0
H3377 H 0.29506 0.70851 0.48765 0.0
C3378 C 0.27173 0.38126 0.08574 0.0
C3379 C 0.26232 0.3857 0.10583 0.0
C3380 C 0.26167 0.36751 0.07099 0.0
C3381 C 0.22283 0.32273 0.0673 0.0
H3382 H 0.22021 0.33761 0.00699 0.0
C3383 C 0.17439 0.27074 0.00708 0.0
C3384 C 0.18126 0.26916 0.9856 0.0
C3385 C 0.1843 0.28496 0.02144 0.0
C3386 C 0.22106 0.33291 0.02368 0.0
H3387 H 0.23475 0.37888 0.12597 0.0
H3388 H 0.21734 0.35466 0.10032 0.0
H3389 H 0.23711 0.36219 0.03235 0.0
H3390 H 0.20436 0.28144 0.96265 0.0
H3391 H 0.22215 0.30564 0.9878 0.0
H3392 H 0.2074 0.29324 0.05877 0.0
C3393 C 0.23255 0.36194 0.096 0.0
C3394 C 0.2307 0.34716 0.0383 0.0
C3395 C 0.24247 0.37597 0.11067 0.0
C3396 C 0.19852 0.2822 0.979 0.0
C3397 C 0.20865 0.29627 0.99349 0.0
C3398 C 0.21345 0.30835 0.05267 0.0
C3399 C 0.24201 0.3575 0.07594 0.0
C3400 C 0.23164 0.34233 0.06034 0.0
C3401 C 0.20168 0.29797 0.01499 0.0
C3402 C 0.21226 0.31321 0.03059 0.0
H3403 H 0.28698 0.38841 0.08136 0.0
H3404 H 0.26955 0.36436 0.05582 0.0
H3405 H 0.22355 0.31827 0.08408 0.0
H3406 H 0.16102 0.26119 0.01281 0.0
H3407 H 0.17798 0.28596 0.03758 0.0
C3408 C 0.50721 0.83407 0.76434 0.0
C3409 C 0.52948 0.83453 0.7684 0.0
C3410 C 0.49292 0.82427 0.77874 0.0
C3411 C 0.49063 0.78637 0.82555 0.0
H3412 H 0.43353 0.81032 0.83214 0.0
C3413 C 0.42467 0.74219 0.87446 0.0
C3414 C 0.40931 0.75426 0.8859 0.0
C3415 C 0.4394 0.75217 0.86064 0.0
C3416 C 0.44946 0.80349 0.83078 0.0
H3417 H 0.554 0.82473 0.7911 0.0
H3418 H 0.52915 0.80813 0.81639 0.0
H3419 H 0.45893 0.82727 0.80786 0.0
H3420 H 0.39777 0.7866 0.89164 0.0
H3421 H 0.42373 0.80405 0.868 0.0
H3422 H 0.48143 0.76306 0.84904 0.0
C3423 C 0.52267 0.81501 0.80182 0.0
C3424 C 0.46403 0.81307 0.81647 0.0
C3425 C 0.53701 0.82467 0.78729 0.0
C3426 C 0.40929 0.77671 0.88315 0.0
C3427 C 0.42415 0.78673 0.86938 0.0
C3428 C 0.47611 0.77689 0.83997 0.0
C3429 C 0.50034 0.81472 0.79785 0.0
C3430 C 0.48486 0.80462 0.81349 0.0
C3431 C 0.43944 0.77462 0.85782 0.0
C3432 C 0.45521 0.78518 0.84277 0.0
H3433 H 0.5007 0.8413 0.74994 0.0
H3434 H 0.476 0.82406 0.77471 0.0
H3435 H 0.50633 0.77913 0.82367 0.0
H3436 H 0.42522 0.72487 0.87593 0.0
H3437 H 0.45051 0.7421 0.85184 0.0
C3438 C 0.00844 0.18039 0.26408 0.0
C3439 C 0.98618 0.17997 0.2682 0.0
C3440 C 0.02274 0.19038 0.27834 0.0
C3441 C 0.02498 0.22896 0.32462 0.0
H3442 H 0.08209 0.20516 0.33167 0.0
C3443 C 0.09073 0.27356 0.37358 0.0
C3444 C 0.10592 0.26151 0.38525 0.0
C3445 C 0.07608 0.26354 0.35969 0.0
C3446 C 0.06615 0.21196 0.33017 0.0
H3447 H 0.96171 0.19001 0.29087 0.0
H3448 H 0.98658 0.20691 0.3159 0.0
H3449 H 0.05678 0.18788 0.3075 0.0
H3450 H 0.11724 0.22915 0.39133 0.0
H3451 H 0.09145 0.21164 0.36758 0.0
H3452 H 0.03408 0.25259 0.34786 0.0
C3453 C 0.99303 0.19987 0.30139 0.0
C3454 C 0.05164 0.20218 0.31593 0.0
C3455 C 0.97869 0.19 0.28702 0.0
C3456 C 0.10586 0.23904 0.38266 0.0
C3457 C 0.0911 0.22898 0.36883 0.0
C3458 C 0.03944 0.23865 0.33897 0.0
C3459 C 0.01534 0.20017 0.29735 0.0
C3460 C 0.03081 0.21055 0.31282 0.0
C3461 C 0.07598 0.24106 0.35703 0.0
C3462 C 0.06033 0.23039 0.34194 0.0
H3463 H 0.01491 0.17301 0.24973 0.0
H3464 H 0.03965 0.19057 0.27427 0.0
H3465 H 0.00927 0.23616 0.32261 0.0
H3466 H 0.09026 0.2909 0.37496 0.0
H3467 H 0.06508 0.27357 0.35072 0.0
C3468 C 0.03656 0.69752 0.23246 0.0
C3469 C 0.0296 0.68072 0.24591 0.0
C3470 C 0.02221 0.70767 0.21826 0.0
C3471 C 0.97113 0.69889 0.18903 0.0
H3472 H 0.96927 0.76088 0.18427 0.0
C3473 C 0.90475 0.7414 0.13891 0.0
C3474 C 0.90939 0.76117 0.12901 0.0
C3475 C 0.91953 0.73175 0.15298 0.0
C3476 C 0.96972 0.74353 0.185 0.0
H3477 H 1.00182 0.66153 0.25469 0.0
H3478 H 0.97711 0.67895 0.22989 0.0
H3479 H 0.99495 0.74406 0.20853 0.0
H3480 H 0.93363 0.78598 0.12594 0.0
H3481 H 0.95964 0.76886 0.14953 0.0
H3482 H 0.94643 0.69812 0.16519 0.0
C3483 C 0.99366 0.68432 0.23033 0.0
C3484 C 0.98448 0.73388 0.19908 0.0
C3485 C 0.00788 0.6744 0.2447 0.0
C3486 C 0.92938 0.77083 0.13335 0.0
C3487 C 0.9443 0.76102 0.14713 0.0
C3488 C 0.9566 0.7085 0.17472 0.0
C3489 C 1.00059 0.70107 0.21687 0.0
C3490 C 0.98529 0.71142 0.20142 0.0
C3491 C 0.93962 0.74136 0.15736 0.0
C3492 C 0.9555 0.73102 0.1725 0.0
H3493 H 0.05311 0.70288 0.23287 0.0
H3494 H 0.02815 0.72043 0.20806 0.0
H3495 H 0.97149 0.68154 0.19018 0.0
H3496 H 0.88945 0.73357 0.13618 0.0
H3497 H 0.91491 0.7169 0.16072 0.0
C3498 C 0.47995 0.31819 0.73101 0.0
C3499 C 0.48681 0.33508 0.74439 0.0
C3500 C 0.49437 0.30809 0.71685 0.0
C3501 C 0.5455 0.31691 0.68771 0.0
H3502 H 0.5475 0.25489 0.68339 0.0
C3503 C 0.6119 0.27379 0.63793 0.0
C3504 C 0.60709 0.25399 0.62816 0.0
C3505 C 0.59716 0.28368 0.65189 0.0
C3506 C 0.54701 0.27225 0.684 0.0
H3507 H 0.51443 0.35455 0.7531 0.0
H3508 H 0.53928 0.33719 0.72836 0.0
H3509 H 0.52177 0.27183 0.70751 0.0
H3510 H 0.58258 0.22943 0.62513 0.0
H3511 H 0.5567 0.24694 0.64851 0.0
H3512 H 0.57026 0.31754 0.66391 0.0
C3513 C 0.52276 0.33172 0.72881 0.0
C3514 C 0.53222 0.28197 0.69799 0.0
C3515 C 0.50847 0.34159 0.74314 0.0
C3516 C 0.58696 0.24459 0.63245 0.0
C3517 C 0.57212 0.25461 0.64611 0.0
C3518 C 0.56008 0.30723 0.67349 0.0
C3519 C 0.51595 0.31484 0.71545 0.0
C3520 C 0.53133 0.30443 0.70014 0.0
C3521 C 0.57699 0.27425 0.65629 0.0
C3522 C 0.56119 0.2847 0.67142 0.0
H3523 H 0.46344 0.31269 0.7315 0.0
H3524 H 0.48853 0.29522 0.70672 0.0
H3525 H 0.5451 0.33427 0.68873 0.0
H3526 H 0.6273 0.28142 0.63521 0.0
H3527 H 0.60187 0.29854 0.65957 0.0
C3528 C 0.78192 0.53519 0.8171 0.0
C3529 C 0.7688 0.52858 0.83426 0.0
C3530 C 0.79608 0.5207 0.80708 0.0
C3531 C 0.80849 0.46147 0.8026 0.0
H3532 H 0.86226 0.48207 0.77896 0.0
C3533 C 0.87679 0.40382 0.7744 0.0
C3534 C 0.88639 0.40847 0.75448 0.0
C3535 C 0.86262 0.41848 0.78413 0.0
C3536 C 0.84725 0.47605 0.78537 0.0
H3537 H 0.76074 0.50139 0.85447 0.0
H3538 H 0.7857 0.4766 0.83774 0.0
H3539 H 0.83747 0.50737 0.79564 0.0
H3540 H 0.88874 0.4326 0.72948 0.0
H3541 H 0.86447 0.45819 0.74661 0.0
H3542 H 0.81868 0.43003 0.79275 0.0
C3543 C 0.78469 0.49274 0.83138 0.0
C3544 C 0.83288 0.49063 0.79488 0.0
C3545 C 0.77036 0.5071 0.84116 0.0
C3546 C 0.8817 0.42838 0.7448 0.0
C3547 C 0.86782 0.44315 0.75468 0.0
C3548 C 0.823 0.44687 0.79337 0.0
C3549 C 0.7978 0.4992 0.8141 0.0
C3550 C 0.81319 0.48362 0.80367 0.0
C3551 C 0.85792 0.43836 0.7744 0.0
C3552 C 0.84258 0.45394 0.78458 0.0
H3553 H 0.78113 0.55155 0.81124 0.0
H3554 H 0.8055 0.52639 0.79364 0.0
H3555 H 0.7934 0.45528 0.80864 0.0
H3556 H 0.8799 0.38865 0.78231 0.0
H3557 H 0.85543 0.4143 0.79939 0.0
C3558 C 0.27044 0.00764 0.17378 0.0
C3559 C 0.2688 0.9861 0.18046 0.0
C3560 C 0.28475 0.02188 0.18376 0.0
C3561 C 0.33277 0.02359 0.22042 0.0
H3562 H 0.31845 0.08413 0.22321 0.0
C3563 C 0.38159 0.08568 0.27085 0.0
C3564 C 0.38626 0.10557 0.26114 0.0
C3565 C 0.36769 0.0709 0.26099 0.0
C3566 C 0.3228 0.06731 0.22242 0.0
H3567 H 0.28099 0.96287 0.2033 0.0
H3568 H 0.30533 0.98781 0.22126 0.0
H3569 H 0.29321 0.059 0.20707 0.0
H3570 H 0.37969 0.12539 0.23331 0.0
H3571 H 0.3552 0.09976 0.21631 0.0
H3572 H 0.36214 0.03204 0.23642 0.0
C3573 C 0.29597 0.99365 0.20784 0.0
C3574 C 0.30831 0.05279 0.21304 0.0
C3575 C 0.28183 0.97929 0.19762 0.0
C3576 C 0.37661 0.11023 0.24124 0.0
C3577 C 0.36242 0.09558 0.23155 0.0
C3578 C 0.34711 0.0381 0.23009 0.0
C3579 C 0.29775 0.01521 0.20104 0.0
C3580 C 0.31308 0.03067 0.2117 0.0
C3581 C 0.35775 0.07571 0.24129 0.0
C3582 C 0.3424 0.06018 0.2311 0.0
H3583 H 0.2609 0.01351 0.16048 0.0
H3584 H 0.28581 0.03808 0.17757 0.0
H3585 H 0.33738 1.00687 0.21947 0.0
H3586 H 0.38868 0.08148 0.28615 0.0
H3587 H 0.36435 0.05586 0.26905 0.0
C3588 C 0.24441 1.00739 0.67223 0.0
C3589 C 0.24543 0.02909 0.67859 0.0
C3590 C 0.23006 0.99307 0.68203 0.0
C3591 C 0.19863 0.9838 0.73145 0.0
H3592 H 0.1654 0.94502 0.69586 0.0
C3593 C 0.13295 0.92884 0.76841 0.0
C3594 C 0.129 0.90858 0.75919 0.0
C3595 C 0.14664 0.94371 0.75845 0.0
C3596 C 0.17474 0.95542 0.70618 0.0
H3597 H 0.23205 0.0525 0.70064 0.0
H3598 H 0.20723 0.02737 0.71796 0.0
H3599 H 0.19025 0.97023 0.67923 0.0
H3600 H 0.13671 0.88814 0.73214 0.0
H3601 H 0.16112 0.91361 0.71514 0.0
H3602 H 0.18375 0.96871 0.75845 0.0
C3603 C 0.21758 0.02151 0.70528 0.0
C3604 C 0.18898 0.97002 0.69656 0.0
C3605 C 0.23176 0.03596 0.69526 0.0
C3606 C 0.13915 0.90365 0.73963 0.0
C3607 C 0.15315 0.91841 0.7298 0.0
C3608 C 0.18462 0.969 0.74112 0.0
C3609 C 0.21643 0.99988 0.69869 0.0
C3610 C 0.2011 0.98445 0.70903 0.0
C3611 C 0.15719 0.93873 0.73905 0.0
C3612 C 0.17234 0.95455 0.72867 0.0
H3613 H 0.25459 1.00142 0.65946 0.0
H3614 H 0.22982 0.97651 0.67668 0.0
H3615 H 0.2079 0.99446 0.74159 0.0
H3616 H 0.12533 0.93333 0.78338 0.0
H3617 H 0.14876 0.95923 0.76597 0.0
C3618 C 0.63372 0.586 0.24509 0.0
C3619 C 0.62951 0.60604 0.25469 0.0
C3620 C 0.64747 0.57107 0.25485 0.0
C3621 C 0.67527 0.55847 0.30702 0.0
H3622 H 0.70911 0.52061 0.27098 0.0
C3623 C 0.74537 0.50676 0.34021 0.0
C3624 C 0.74662 0.48514 0.33357 0.0
C3625 C 0.73091 0.52106 0.33058 0.0
C3626 C 0.69964 0.53092 0.28129 0.0
H3627 H 0.63678 0.62599 0.28221 0.0
H3628 H 0.6613 0.60039 0.2989 0.0
H3629 H 0.68486 0.54654 0.25453 0.0
H3630 H 0.73356 0.46188 0.31119 0.0
H3631 H 0.70854 0.48704 0.29409 0.0
H3632 H 0.6907 0.54317 0.33374 0.0
C3633 C 0.65349 0.59583 0.28407 0.0
C3634 C 0.68557 0.54583 0.27186 0.0
C3635 C 0.63944 0.61066 0.27443 0.0
C3636 C 0.73309 0.47836 0.31677 0.0
C3637 C 0.71879 0.49281 0.30689 0.0
C3638 C 0.68956 0.54377 0.31641 0.0
C3639 C 0.65782 0.57576 0.27442 0.0
C3640 C 0.67305 0.55986 0.28455 0.0
C3641 C 0.71739 0.51432 0.3138 0.0
C3642 C 0.70193 0.52976 0.30369 0.0
H3643 H 0.62627 0.58174 0.22997 0.0
H3644 H 0.6498 0.55573 0.24702 0.0
H3645 H 0.66574 0.56853 0.31751 0.0
H3646 H 0.75542 0.51266 0.35311 0.0
H3647 H 0.73047 0.53752 0.33616 0.0
loop_
_geom_bond_atom_site_label_1
_geom_bond_atom_site_label_2
_geom_bond_distance
_geom_bond_site_symmetry_2
_ccdc_geom_bond_type
Co0 H3 2.400 . S
Co0 O4 2.009 . S
Co0 O12 2.115 . S
Co0 O13 2.315 . S
Co0 O24 2.053 . S
Co0 O27 2.094 . S
Co0 O30 2.122 . S
Co1 O4 2.126 . S
Co1 H5 2.388 . S
Co1 O6 2.053 . S
Co1 O9 2.047 . S
Co1 O15 2.113 . S
Co1 O26 2.063 . S
Co2 H3 2.388 . S
Co2 O4 2.053 . S
Co2 O6 2.126 . S
Co2 O11 2.063 . S
Co2 O25 2.047 . S
Co2 O31 2.113 . S
H3 Co0 2.400 . S
H3 Co2 2.388 . S
H3 O4 0.760 . S
O4 Co0 2.009 . S
O4 Co1 2.126 . S
O4 Co2 2.053 . S
O4 H3 0.760 . S
H5 Co1 2.388 . S
H5 O6 0.760 . S
H5 Co7 2.400 . S
O6 Co1 2.053 . S
O6 Co2 2.126 . S
O6 H5 0.760 . S
O6 Co7 2.009 . S
Co7 H5 2.400 . S
Co7 O6 2.009 . S
Co7 O8 2.053 . S
Co7 O10 2.094 . S
Co7 O14 2.122 . S
Co7 O28 2.115 . S
Co7 O29 2.315 . S
O8 Co7 2.053 . S
O8 C20 1.259 . S
O9 Co1 2.047 . S
O9 C20 1.257 . S
O10 Co7 2.094 . S
O10 C21 1.253 . S
O11 Co2 2.063 . S
O11 C21 1.268 . S
O12 Co0 2.115 . S
O12 C22 1.281 . S
O13 Co0 2.315 . S
O13 C22 1.252 . S
O14 Co7 2.122 . S
O14 C23 1.272 . S
O15 Co1 2.113 . S
O15 C23 1.245 . S
C16 O24 1.259 . S
C16 O25 1.257 . S
C17 O26 1.268 . S
C17 O27 1.253 . S
C18 O28 1.281 . S
C18 O29 1.252 . S
C19 O30 1.272 . S
C19 O31 1.245 . S
C20 O8 1.259 . S
C20 O9 1.257 . S
C21 O10 1.253 . S
C21 O11 1.268 . S
C22 O12 1.281 . S
C22 O13 1.252 . S
C23 O14 1.272 . S
C23 O15 1.245 . S
O24 Co0 2.053 . S
O24 C16 1.259 . S
O25 Co2 2.047 . S
O25 C16 1.257 . S
O26 Co1 2.063 . S
O26 C17 1.268 . S
O27 Co0 2.094 . S
O27 C17 1.253 . S
O28 Co7 2.115 . S
O28 C18 1.281 . S
O29 Co7 2.315 . S
O29 C18 1.252 . S
O30 Co0 2.122 . S
O30 C19 1.272 . S
O31 Co2 2.113 . S
O31 C19 1.245 . S
Co32 H35 2.400 . S
Co32 O36 2.009 . S
Co32 O44 2.115 . S
Co32 O45 2.315 . S
Co32 O56 2.053 . S
Co32 O59 2.094 . S
Co32 O62 2.122 . S
Co33 O36 2.126 . S
Co33 H37 2.388 . S
Co33 O38 2.053 . S
Co33 O41 2.047 . S
Co33 O47 2.113 . S
Co33 O58 2.063 . S
Co34 H35 2.388 . S
Co34 O36 2.053 . S
Co34 O38 2.126 . S
Co34 O43 2.063 . S
Co34 O57 2.047 . S
Co34 O63 2.113 . S
H35 Co32 2.400 . S
H35 Co34 2.388 . S
H35 O36 0.760 . S
O36 Co32 2.009 . S
O36 Co33 2.126 . S
O36 Co34 2.053 . S
O36 H35 0.760 . S
H37 Co33 2.388 . S
H37 O38 0.760 . S
H37 Co39 2.400 . S
O38 Co33 2.053 . S
O38 Co34 2.126 . S
O38 H37 0.760 . S
O38 Co39 2.009 . S
Co39 H37 2.400 . S
Co39 O38 2.009 . S
Co39 O40 2.053 . S
Co39 O42 2.094 . S
Co39 O46 2.122 . S
Co39 O60 2.115 . S
Co39 O61 2.315 . S
O40 Co39 2.053 . S
O40 C52 1.259 . S
O41 Co33 2.047 . S
O41 C52 1.257 . S
O42 Co39 2.094 . S
O42 C53 1.253 . S
O43 Co34 2.063 . S
O43 C53 1.268 . S
O44 Co32 2.115 . S
O44 C54 1.281 . S
O45 Co32 2.315 . S
O45 C54 1.252 . S
O46 Co39 2.122 . S
O46 C55 1.272 . S
O47 Co33 2.113 . S
O47 C55 1.245 . S
C48 O56 1.259 . S
C48 O57 1.257 . S
C49 O58 1.268 . S
C49 O59 1.253 . S
C50 O60 1.281 . S
C50 O61 1.252 . S
C51 O62 1.272 . S
C51 O63 1.245 . S
C52 O40 1.259 . S
C52 O41 1.257 . S
C53 O42 1.253 . S
C53 O43 1.268 . S
C54 O44 1.281 . S
C54 O45 1.252 . S
C55 O46 1.272 . S
C55 O47 1.245 . S
O56 Co32 2.053 . S
O56 C48 1.259 . S
O57 Co34 2.047 . S
O57 C48 1.257 . S
O58 Co33 2.063 . S
O58 C49 1.268 . S
O59 Co32 2.094 . S
O59 C49 1.253 . S
O60 Co39 2.115 . S
O60 C50 1.281 . S
O61 Co39 2.315 . S
O61 C50 1.252 . S
O62 Co32 2.122 . S
O62 C51 1.272 . S
O63 Co34 2.113 . S
O63 C51 1.245 . S
Co64 H67 2.400 . S
Co64 O68 2.009 . S
Co64 O76 2.115 . S
Co64 O77 2.315 . S
Co64 O88 2.053 . S
Co64 O91 2.094 . S
Co64 O94 2.122 . S
Co65 O68 2.126 . S
Co65 H69 2.388 . S
Co65 O70 2.053 . S
Co65 O73 2.047 . S
Co65 O79 2.113 . S
Co65 O90 2.063 . S
Co66 H67 2.388 . S
Co66 O68 2.053 . S
Co66 O70 2.126 . S
Co66 O75 2.063 . S
Co66 O89 2.047 . S
Co66 O95 2.113 . S
H67 Co64 2.400 . S
H67 Co66 2.388 . S
H67 O68 0.760 . S
O68 Co64 2.009 . S
O68 Co65 2.126 . S
O68 Co66 2.053 . S
O68 H67 0.760 . S
H69 Co65 2.388 . S
H69 O70 0.760 . S
H69 Co71 2.400 . S
O70 Co65 2.053 . S
O70 Co66 2.126 . S
O70 H69 0.760 . S
O70 Co71 2.009 . S
Co71 H69 2.400 . S
Co71 O70 2.009 . S
Co71 O72 2.053 . S
Co71 O74 2.094 . S
Co71 O78 2.122 . S
Co71 O92 2.115 . S
Co71 O93 2.315 . S
O72 Co71 2.053 . S
O72 C84 1.259 . S
O73 Co65 2.047 . S
O73 C84 1.257 . S
O74 Co71 2.094 . S
O74 C85 1.253 . S
O75 Co66 2.063 . S
O75 C85 1.268 . S
O76 Co64 2.115 . S
O76 C86 1.281 . S
O77 Co64 2.315 . S
O77 C86 1.252 . S
O78 Co71 2.122 . S
O78 C87 1.272 . S
O79 Co65 2.113 . S
O79 C87 1.245 . S
C80 O88 1.259 . S
C80 O89 1.257 . S
C81 O90 1.268 . S
C81 O91 1.253 . S
C82 O92 1.281 . S
C82 O93 1.252 . S
C83 O94 1.272 . S
C83 O95 1.245 . S
C84 O72 1.259 . S
C84 O73 1.257 . S
C85 O74 1.253 . S
C85 O75 1.268 . S
C86 O76 1.281 . S
C86 O77 1.252 . S
C87 O78 1.272 . S
C87 O79 1.245 . S
O88 Co64 2.053 . S
O88 C80 1.259 . S
O89 Co66 2.047 . S
O89 C80 1.257 . S
O90 Co65 2.063 . S
O90 C81 1.268 . S
O91 Co64 2.094 . S
O91 C81 1.253 . S
O92 Co71 2.115 . S
O92 C82 1.281 . S
O93 Co71 2.315 . S
O93 C82 1.252 . S
O94 Co64 2.122 . S
O94 C83 1.272 . S
O95 Co66 2.113 . S
O95 C83 1.245 . S
Co96 H99 2.400 . S
Co96 O100 2.009 . S
Co96 O108 2.115 . S
Co96 O109 2.315 . S
Co96 O120 2.053 . S
Co96 O123 2.094 . S
Co96 O126 2.122 . S
Co97 O100 2.126 . S
Co97 H101 2.388 . S
Co97 O102 2.053 . S
Co97 O105 2.047 . S
Co97 O111 2.113 . S
Co97 O122 2.063 . S
Co98 H99 2.388 . S
Co98 O100 2.053 . S
Co98 O102 2.126 . S
Co98 O107 2.063 . S
Co98 O121 2.047 . S
Co98 O127 2.113 . S
H99 Co96 2.400 . S
H99 Co98 2.388 . S
H99 O100 0.760 . S
O100 Co96 2.009 . S
O100 Co97 2.126 . S
O100 Co98 2.053 . S
O100 H99 0.760 . S
H101 Co97 2.388 . S
H101 O102 0.760 . S
H101 Co103 2.400 . S
O102 Co97 2.053 . S
O102 Co98 2.126 . S
O102 H101 0.760 . S
O102 Co103 2.009 . S
Co103 H101 2.400 . S
Co103 O102 2.009 . S
Co103 O104 2.053 . S
Co103 O106 2.094 . S
Co103 O110 2.122 . S
Co103 O124 2.115 . S
Co103 O125 2.315 . S
O104 Co103 2.053 . S
O104 C116 1.259 . S
O105 Co97 2.047 . S
O105 C116 1.257 . S
O106 Co103 2.094 . S
O106 C117 1.253 . S
O107 Co98 2.063 . S
O107 C117 1.268 . S
O108 Co96 2.115 . S
O108 C118 1.281 . S
O109 Co96 2.315 . S
O109 C118 1.252 . S
O110 Co103 2.122 . S
O110 C119 1.272 . S
O111 Co97 2.113 . S
O111 C119 1.245 . S
C112 O120 1.259 . S
C112 O121 1.257 . S
C113 O122 1.268 . S
C113 O123 1.253 . S
C114 O124 1.281 . S
C114 O125 1.252 . S
C115 O126 1.272 . S
C115 O127 1.245 . S
C116 O104 1.259 . S
C116 O105 1.257 . S
C117 O106 1.253 . S
C117 O107 1.268 . S
C118 O108 1.281 . S
C118 O109 1.252 . S
C119 O110 1.272 . S
C119 O111 1.245 . S
O120 Co96 2.053 . S
O120 C112 1.259 . S
O121 Co98 2.047 . S
O121 C112 1.257 . S
O122 Co97 2.063 . S
O122 C113 1.268 . S
O123 Co96 2.094 . S
O123 C113 1.253 . S
O124 Co103 2.115 . S
O124 C114 1.281 . S
O125 Co103 2.315 . S
O125 C114 1.252 . S
O126 Co96 2.122 . S
O126 C115 1.272 . S
O127 Co98 2.113 . S
O127 C115 1.245 . S
Co128 H131 2.400 . S
Co128 O132 2.009 . S
Co128 O140 2.115 . S
Co128 O141 2.315 . S
Co128 O152 2.053 . S
Co128 O155 2.094 . S
Co128 O158 2.122 . S
Co129 O132 2.126 . S
Co129 H133 2.388 . S
Co129 O134 2.053 . S
Co129 O137 2.047 . S
Co129 O143 2.113 . S
Co129 O154 2.063 . S
Co130 H131 2.388 . S
Co130 O132 2.053 . S
Co130 O134 2.126 . S
Co130 O139 2.063 . S
Co130 O153 2.047 . S
Co130 O159 2.113 . S
H131 Co128 2.400 . S
H131 Co130 2.388 . S
H131 O132 0.760 . S
O132 Co128 2.009 . S
O132 Co129 2.126 . S
O132 Co130 2.053 . S
O132 H131 0.760 . S
H133 Co129 2.388 . S
H133 O134 0.760 . S
H133 Co135 2.400 . S
O134 Co129 2.053 . S
O134 Co130 2.126 . S
O134 H133 0.760 . S
O134 Co135 2.009 . S
Co135 H133 2.400 . S
Co135 O134 2.009 . S
Co135 O136 2.053 . S
Co135 O138 2.094 . S
Co135 O142 2.122 . S
Co135 O156 2.115 . S
Co135 O157 2.315 . S
O136 Co135 2.053 . S
O136 C148 1.259 . S
O137 Co129 2.047 . S
O137 C148 1.257 . S
O138 Co135 2.094 . S
O138 C149 1.253 . S
O139 Co130 2.063 . S
O139 C149 1.268 . S
O140 Co128 2.115 . S
O140 C150 1.281 . S
O141 Co128 2.315 . S
O141 C150 1.252 . S
O142 Co135 2.122 . S
O142 C151 1.272 . S
O143 Co129 2.113 . S
O143 C151 1.245 . S
C144 O152 1.259 . S
C144 O153 1.257 . S
C145 O154 1.268 . S
C145 O155 1.253 . S
C146 O156 1.281 . S
C146 O157 1.252 . S
C147 O158 1.272 . S
C147 O159 1.245 . S
C148 O136 1.259 . S
C148 O137 1.257 . S
C149 O138 1.253 . S
C149 O139 1.268 . S
C150 O140 1.281 . S
C150 O141 1.252 . S
C151 O142 1.272 . S
C151 O143 1.245 . S
O152 Co128 2.053 . S
O152 C144 1.259 . S
O153 Co130 2.047 . S
O153 C144 1.257 . S
O154 Co129 2.063 . S
O154 C145 1.268 . S
O155 Co128 2.094 . S
O155 C145 1.253 . S
O156 Co135 2.115 . S
O156 C146 1.281 . S
O157 Co135 2.315 . S
O157 C146 1.252 . S
O158 Co128 2.122 . S
O158 C147 1.272 . S
O159 Co130 2.113 . S
O159 C147 1.245 . S
Co160 H163 2.400 . S
Co160 O164 2.009 . S
Co160 O172 2.115 . S
Co160 O173 2.315 . S
Co160 O184 2.053 . S
Co160 O187 2.094 . S
Co160 O190 2.122 . S
Co161 O164 2.126 . S
Co161 H165 2.388 . S
Co161 O166 2.053 . S
Co161 O169 2.047 . S
Co161 O175 2.113 . S
Co161 O186 2.063 . S
Co162 H163 2.388 . S
Co162 O164 2.053 . S
Co162 O166 2.126 . S
Co162 O171 2.063 . S
Co162 O185 2.047 . S
Co162 O191 2.113 . S
H163 Co160 2.400 . S
H163 Co162 2.388 . S
H163 O164 0.760 . S
O164 Co160 2.009 . S
O164 Co161 2.126 . S
O164 Co162 2.053 . S
O164 H163 0.760 . S
H165 Co161 2.388 . S
H165 O166 0.760 . S
H165 Co167 2.400 . S
O166 Co161 2.053 . S
O166 Co162 2.126 . S
O166 H165 0.760 . S
O166 Co167 2.009 . S
Co167 H165 2.400 . S
Co167 O166 2.009 . S
Co167 O168 2.053 . S
Co167 O170 2.094 . S
Co167 O174 2.122 . S
Co167 O188 2.115 . S
Co167 O189 2.315 . S
O168 Co167 2.053 . S
O168 C180 1.259 . S
O169 Co161 2.047 . S
O169 C180 1.257 . S
O170 Co167 2.094 . S
O170 C181 1.253 . S
O171 Co162 2.063 . S
O171 C181 1.268 . S
O172 Co160 2.115 . S
O172 C182 1.281 . S
O173 Co160 2.315 . S
O173 C182 1.252 . S
O174 Co167 2.122 . S
O174 C183 1.272 . S
O175 Co161 2.113 . S
O175 C183 1.245 . S
C176 O184 1.259 . S
C176 O185 1.257 . S
C177 O186 1.268 . S
C177 O187 1.253 . S
C178 O188 1.281 . S
C178 O189 1.252 . S
C179 O190 1.272 . S
C179 O191 1.245 . S
C180 O168 1.259 . S
C180 O169 1.257 . S
C181 O170 1.253 . S
C181 O171 1.268 . S
C182 O172 1.281 . S
C182 O173 1.252 . S
C183 O174 1.272 . S
C183 O175 1.245 . S
O184 Co160 2.053 . S
O184 C176 1.259 . S
O185 Co162 2.047 . S
O185 C176 1.257 . S
O186 Co161 2.063 . S
O186 C177 1.268 . S
O187 Co160 2.094 . S
O187 C177 1.253 . S
O188 Co167 2.115 . S
O188 C178 1.281 . S
O189 Co167 2.315 . S
O189 C178 1.252 . S
O190 Co160 2.122 . S
O190 C179 1.272 . S
O191 Co162 2.113 . S
O191 C179 1.245 . S
Co192 H195 2.400 . S
Co192 O196 2.009 . S
Co192 O204 2.115 . S
Co192 O205 2.315 . S
Co192 O216 2.053 . S
Co192 O219 2.094 . S
Co192 O222 2.122 . S
Co193 O196 2.126 . S
Co193 H197 2.388 . S
Co193 O198 2.053 . S
Co193 O201 2.047 . S
Co193 O207 2.113 . S
Co193 O218 2.063 . S
Co194 H195 2.388 . S
Co194 O196 2.053 . S
Co194 O198 2.126 . S
Co194 O203 2.063 . S
Co194 O217 2.047 . S
Co194 O223 2.113 . S
H195 Co192 2.400 . S
H195 Co194 2.388 . S
H195 O196 0.760 . S
O196 Co192 2.009 . S
O196 Co193 2.126 . S
O196 Co194 2.053 . S
O196 H195 0.760 . S
H197 Co193 2.388 . S
H197 O198 0.760 . S
H197 Co199 2.400 . S
O198 Co193 2.053 . S
O198 Co194 2.126 . S
O198 H197 0.760 . S
O198 Co199 2.009 . S
Co199 H197 2.400 . S
Co199 O198 2.009 . S
Co199 O200 2.053 . S
Co199 O202 2.094 . S
Co199 O206 2.122 . S
Co199 O220 2.115 . S
Co199 O221 2.315 . S
O200 Co199 2.053 . S
O200 C212 1.259 . S
O201 Co193 2.047 . S
O201 C212 1.257 . S
O202 Co199 2.094 . S
O202 C213 1.253 . S
O203 Co194 2.063 . S
O203 C213 1.268 . S
O204 Co192 2.115 . S
O204 C214 1.281 . S
O205 Co192 2.315 . S
O205 C214 1.252 . S
O206 Co199 2.122 . S
O206 C215 1.272 . S
O207 Co193 2.113 . S
O207 C215 1.245 . S
C208 O216 1.259 . S
C208 O217 1.257 . S
C209 O218 1.268 . S
C209 O219 1.253 . S
C210 O220 1.281 . S
C210 O221 1.252 . S
C211 O222 1.272 . S
C211 O223 1.245 . S
C212 O200 1.259 . S
C212 O201 1.257 . S
C213 O202 1.253 . S
C213 O203 1.268 . S
C214 O204 1.281 . S
C214 O205 1.252 . S
C215 O206 1.272 . S
C215 O207 1.245 . S
O216 Co192 2.053 . S
O216 C208 1.259 . S
O217 Co194 2.047 . S
O217 C208 1.257 . S
O218 Co193 2.063 . S
O218 C209 1.268 . S
O219 Co192 2.094 . S
O219 C209 1.253 . S
O220 Co199 2.115 . S
O220 C210 1.281 . S
O221 Co199 2.315 . S
O221 C210 1.252 . S
O222 Co192 2.122 . S
O222 C211 1.272 . S
O223 Co194 2.113 . S
O223 C211 1.245 . S
Co224 H227 2.400 . S
Co224 O228 2.009 . S
Co224 O236 2.115 . S
Co224 O237 2.315 . S
Co224 O248 2.053 . S
Co224 O251 2.094 . S
Co224 O254 2.122 . S
Co225 O228 2.126 . S
Co225 H229 2.388 . S
Co225 O230 2.053 . S
Co225 O233 2.047 . S
Co225 O239 2.113 . S
Co225 O250 2.063 . S
Co226 H227 2.388 . S
Co226 O228 2.053 . S
Co226 O230 2.126 . S
Co226 O235 2.063 . S
Co226 O249 2.047 . S
Co226 O255 2.113 . S
H227 Co224 2.400 . S
H227 Co226 2.388 . S
H227 O228 0.760 . S
O228 Co224 2.009 . S
O228 Co225 2.126 . S
O228 Co226 2.053 . S
O228 H227 0.760 . S
H229 Co225 2.388 . S
H229 O230 0.760 . S
H229 Co231 2.400 . S
O230 Co225 2.053 . S
O230 Co226 2.126 . S
O230 H229 0.760 . S
O230 Co231 2.009 . S
Co231 H229 2.400 . S
Co231 O230 2.009 . S
Co231 O232 2.053 . S
Co231 O234 2.094 . S
Co231 O238 2.122 . S
Co231 O252 2.115 . S
Co231 O253 2.315 . S
O232 Co231 2.053 . S
O232 C244 1.259 . S
O233 Co225 2.047 . S
O233 C244 1.257 . S
O234 Co231 2.094 . S
O234 C245 1.253 . S
O235 Co226 2.063 . S
O235 C245 1.268 . S
O236 Co224 2.115 . S
O236 C246 1.281 . S
O237 Co224 2.315 . S
O237 C246 1.252 . S
O238 Co231 2.122 . S
O238 C247 1.272 . S
O239 Co225 2.113 . S
O239 C247 1.245 . S
C240 O248 1.259 . S
C240 O249 1.257 . S
C241 O250 1.268 . S
C241 O251 1.253 . S
C242 O252 1.281 . S
C242 O253 1.252 . S
C243 O254 1.272 . S
C243 O255 1.245 . S
C244 O232 1.259 . S
C244 O233 1.257 . S
C245 O234 1.253 . S
C245 O235 1.268 . S
C246 O236 1.281 . S
C246 O237 1.252 . S
C247 O238 1.272 . S
C247 O239 1.245 . S
O248 Co224 2.053 . S
O248 C240 1.259 . S
O249 Co226 2.047 . S
O249 C240 1.257 . S
O250 Co225 2.063 . S
O250 C241 1.268 . S
O251 Co224 2.094 . S
O251 C241 1.253 . S
O252 Co231 2.115 . S
O252 C242 1.281 . S
O253 Co231 2.315 . S
O253 C242 1.252 . S
O254 Co224 2.122 . S
O254 C243 1.272 . S
O255 Co226 2.113 . S
O255 C243 1.245 . S
Co256 H259 2.400 . S
Co256 O260 2.009 . S
Co256 O268 2.115 . S
Co256 O269 2.315 . S
Co256 O280 2.053 . S
Co256 O283 2.094 . S
Co256 O286 2.122 . S
Co257 O260 2.126 . S
Co257 H261 2.388 . S
Co257 O262 2.053 . S
Co257 O265 2.047 . S
Co257 O271 2.113 . S
Co257 O282 2.063 . S
Co258 H259 2.388 . S
Co258 O260 2.053 . S
Co258 O262 2.126 . S
Co258 O267 2.063 . S
Co258 O281 2.047 . S
Co258 O287 2.113 . S
H259 Co256 2.400 . S
H259 Co258 2.388 . S
H259 O260 0.760 . S
O260 Co256 2.009 . S
O260 Co257 2.126 . S
O260 Co258 2.053 . S
O260 H259 0.760 . S
H261 Co257 2.388 . S
H261 O262 0.760 . S
H261 Co263 2.400 . S
O262 Co257 2.053 . S
O262 Co258 2.126 . S
O262 H261 0.760 . S
O262 Co263 2.009 . S
Co263 H261 2.400 . S
Co263 O262 2.009 . S
Co263 O264 2.053 . S
Co263 O266 2.094 . S
Co263 O270 2.122 . S
Co263 O284 2.115 . S
Co263 O285 2.315 . S
O264 Co263 2.053 . S
O264 C276 1.259 . S
O265 Co257 2.047 . S
O265 C276 1.257 . S
O266 Co263 2.094 . S
O266 C277 1.253 . S
O267 Co258 2.063 . S
O267 C277 1.268 . S
O268 Co256 2.115 . S
O268 C278 1.281 . S
O269 Co256 2.315 . S
O269 C278 1.252 . S
O270 Co263 2.122 . S
O270 C279 1.272 . S
O271 Co257 2.113 . S
O271 C279 1.245 . S
C272 O280 1.259 . S
C272 O281 1.257 . S
C273 O282 1.268 . S
C273 O283 1.253 . S
C274 O284 1.281 . S
C274 O285 1.252 . S
C275 O286 1.272 . S
C275 O287 1.245 . S
C276 O264 1.259 . S
C276 O265 1.257 . S
C277 O266 1.253 . S
C277 O267 1.268 . S
C278 O268 1.281 . S
C278 O269 1.252 . S
C279 O270 1.272 . S
C279 O271 1.245 . S
O280 Co256 2.053 . S
O280 C272 1.259 . S
O281 Co258 2.047 . S
O281 C272 1.257 . S
O282 Co257 2.063 . S
O282 C273 1.268 . S
O283 Co256 2.094 . S
O283 C273 1.253 . S
O284 Co263 2.115 . S
O284 C274 1.281 . S
O285 Co263 2.315 . S
O285 C274 1.252 . S
O286 Co256 2.122 . S
O286 C275 1.272 . S
O287 Co258 2.113 . S
O287 C275 1.245 . S
Co288 H291 2.400 . S
Co288 O292 2.009 . S
Co288 O300 2.115 . S
Co288 O301 2.315 . S
Co288 O312 2.053 . S
Co288 O315 2.094 . S
Co288 O318 2.122 . S
Co289 O292 2.126 . S
Co289 H293 2.388 . S
Co289 O294 2.053 . S
Co289 O297 2.047 . S
Co289 O303 2.113 . S
Co289 O314 2.063 . S
Co290 H291 2.388 . S
Co290 O292 2.053 . S
Co290 O294 2.126 . S
Co290 O299 2.063 . S
Co290 O313 2.047 . S
Co290 O319 2.113 . S
H291 Co288 2.400 . S
H291 Co290 2.388 . S
H291 O292 0.760 . S
O292 Co288 2.009 . S
O292 Co289 2.126 . S
O292 Co290 2.053 . S
O292 H291 0.760 . S
H293 Co289 2.388 . S
H293 O294 0.760 . S
H293 Co295 2.400 . S
O294 Co289 2.053 . S
O294 Co290 2.126 . S
O294 H293 0.760 . S
O294 Co295 2.009 . S
Co295 H293 2.400 . S
Co295 O294 2.009 . S
Co295 O296 2.053 . S
Co295 O298 2.094 . S
Co295 O302 2.122 . S
Co295 O316 2.115 . S
Co295 O317 2.315 . S
O296 Co295 2.053 . S
O296 C308 1.259 . S
O297 Co289 2.047 . S
O297 C308 1.257 . S
O298 Co295 2.094 . S
O298 C309 1.253 . S
O299 Co290 2.063 . S
O299 C309 1.268 . S
O300 Co288 2.115 . S
O300 C310 1.281 . S
O301 Co288 2.315 . S
O301 C310 1.252 . S
O302 Co295 2.122 . S
O302 C311 1.272 . S
O303 Co289 2.113 . S
O303 C311 1.245 . S
C304 O312 1.259 . S
C304 O313 1.257 . S
C305 O314 1.268 . S
C305 O315 1.253 . S
C306 O316 1.281 . S
C306 O317 1.252 . S
C307 O318 1.272 . S
C307 O319 1.245 . S
C308 O296 1.259 . S
C308 O297 1.257 . S
C309 O298 1.253 . S
C309 O299 1.268 . S
C310 O300 1.281 . S
C310 O301 1.252 . S
C311 O302 1.272 . S
C311 O303 1.245 . S
O312 Co288 2.053 . S
O312 C304 1.259 . S
O313 Co290 2.047 . S
O313 C304 1.257 . S
O314 Co289 2.063 . S
O314 C305 1.268 . S
O315 Co288 2.094 . S
O315 C305 1.253 . S
O316 Co295 2.115 . S
O316 C306 1.281 . S
O317 Co295 2.315 . S
O317 C306 1.252 . S
O318 Co288 2.122 . S
O318 C307 1.272 . S
O319 Co290 2.113 . S
O319 C307 1.245 . S
Co320 H323 2.400 . S
Co320 O324 2.009 . S
Co320 O332 2.115 . S
Co320 O333 2.315 . S
Co320 O344 2.053 . S
Co320 O347 2.094 . S
Co320 O350 2.122 . S
Co321 O324 2.126 . S
Co321 H325 2.388 . S
Co321 O326 2.053 . S
Co321 O329 2.047 . S
Co321 O335 2.113 . S
Co321 O346 2.063 . S
Co322 H323 2.388 . S
Co322 O324 2.053 . S
Co322 O326 2.126 . S
Co322 O331 2.063 . S
Co322 O345 2.047 . S
Co322 O351 2.113 . S
H323 Co320 2.400 . S
H323 Co322 2.388 . S
H323 O324 0.760 . S
O324 Co320 2.009 . S
O324 Co321 2.126 . S
O324 Co322 2.053 . S
O324 H323 0.760 . S
H325 Co321 2.388 . S
H325 O326 0.760 . S
H325 Co327 2.400 . S
O326 Co321 2.053 . S
O326 Co322 2.126 . S
O326 H325 0.760 . S
O326 Co327 2.009 . S
Co327 H325 2.400 . S
Co327 O326 2.009 . S
Co327 O328 2.053 . S
Co327 O330 2.094 . S
Co327 O334 2.122 . S
Co327 O348 2.115 . S
Co327 O349 2.315 . S
O328 Co327 2.053 . S
O328 C340 1.259 . S
O329 Co321 2.047 . S
O329 C340 1.257 . S
O330 Co327 2.094 . S
O330 C341 1.253 . S
O331 Co322 2.063 . S
O331 C341 1.268 . S
O332 Co320 2.115 . S
O332 C342 1.281 . S
O333 Co320 2.315 . S
O333 C342 1.252 . S
O334 Co327 2.122 . S
O334 C343 1.272 . S
O335 Co321 2.113 . S
O335 C343 1.245 . S
C336 O344 1.259 . S
C336 O345 1.257 . S
C337 O346 1.268 . S
C337 O347 1.253 . S
C338 O348 1.281 . S
C338 O349 1.252 . S
C339 O350 1.272 . S
C339 O351 1.245 . S
C340 O328 1.259 . S
C340 O329 1.257 . S
C341 O330 1.253 . S
C341 O331 1.268 . S
C342 O332 1.281 . S
C342 O333 1.252 . S
C343 O334 1.272 . S
C343 O335 1.245 . S
O344 Co320 2.053 . S
O344 C336 1.259 . S
O345 Co322 2.047 . S
O345 C336 1.257 . S
O346 Co321 2.063 . S
O346 C337 1.268 . S
O347 Co320 2.094 . S
O347 C337 1.253 . S
O348 Co327 2.115 . S
O348 C338 1.281 . S
O349 Co327 2.315 . S
O349 C338 1.252 . S
O350 Co320 2.122 . S
O350 C339 1.272 . S
O351 Co322 2.113 . S
O351 C339 1.245 . S
Co352 H355 2.400 . S
Co352 O356 2.009 . S
Co352 O364 2.115 . S
Co352 O365 2.315 . S
Co352 O376 2.053 . S
Co352 O379 2.094 . S
Co352 O382 2.122 . S
Co353 O356 2.126 . S
Co353 H357 2.388 . S
Co353 O358 2.053 . S
Co353 O361 2.047 . S
Co353 O367 2.113 . S
Co353 O378 2.063 . S
Co354 H355 2.388 . S
Co354 O356 2.053 . S
Co354 O358 2.126 . S
Co354 O363 2.063 . S
Co354 O377 2.047 . S
Co354 O383 2.113 . S
H355 Co352 2.400 . S
H355 Co354 2.388 . S
H355 O356 0.760 . S
O356 Co352 2.009 . S
O356 Co353 2.126 . S
O356 Co354 2.053 . S
O356 H355 0.760 . S
H357 Co353 2.388 . S
H357 O358 0.760 . S
H357 Co359 2.400 . S
O358 Co353 2.053 . S
O358 Co354 2.126 . S
O358 H357 0.760 . S
O358 Co359 2.009 . S
Co359 H357 2.400 . S
Co359 O358 2.009 . S
Co359 O360 2.053 . S
Co359 O362 2.094 . S
Co359 O366 2.122 . S
Co359 O380 2.115 . S
Co359 O381 2.315 . S
O360 Co359 2.053 . S
O360 C372 1.259 . S
O361 Co353 2.047 . S
O361 C372 1.257 . S
O362 Co359 2.094 . S
O362 C373 1.253 . S
O363 Co354 2.063 . S
O363 C373 1.268 . S
O364 Co352 2.115 . S
O364 C374 1.281 . S
O365 Co352 2.315 . S
O365 C374 1.252 . S
O366 Co359 2.122 . S
O366 C375 1.272 . S
O367 Co353 2.113 . S
O367 C375 1.245 . S
C368 O376 1.259 . S
C368 O377 1.257 . S
C369 O378 1.268 . S
C369 O379 1.253 . S
C370 O380 1.281 . S
C370 O381 1.252 . S
C371 O382 1.272 . S
C371 O383 1.245 . S
C372 O360 1.259 . S
C372 O361 1.257 . S
C373 O362 1.253 . S
C373 O363 1.268 . S
C374 O364 1.281 . S
C374 O365 1.252 . S
C375 O366 1.272 . S
C375 O367 1.245 . S
O376 Co352 2.053 . S
O376 C368 1.259 . S
O377 Co354 2.047 . S
O377 C368 1.257 . S
O378 Co353 2.063 . S
O378 C369 1.268 . S
O379 Co352 2.094 . S
O379 C369 1.253 . S
O380 Co359 2.115 . S
O380 C370 1.281 . S
O381 Co359 2.315 . S
O381 C370 1.252 . S
O382 Co352 2.122 . S
O382 C371 1.272 . S
O383 Co354 2.113 . S
O383 C371 1.245 . S
Co384 H387 2.400 . S
Co384 O388 2.009 . S
Co384 O396 2.115 . S
Co384 O397 2.315 . S
Co384 O408 2.053 . S
Co384 O411 2.094 . S
Co384 O414 2.122 . S
Co385 O388 2.126 . S
Co385 H389 2.388 . S
Co385 O390 2.053 . S
Co385 O393 2.047 . S
Co385 O399 2.113 . S
Co385 O410 2.063 . S
Co386 H387 2.388 . S
Co386 O388 2.053 . S
Co386 O390 2.126 . S
Co386 O395 2.063 . S
Co386 O409 2.047 . S
Co386 O415 2.113 . S
H387 Co384 2.400 . S
H387 Co386 2.388 . S
H387 O388 0.760 . S
O388 Co384 2.009 . S
O388 Co385 2.126 . S
O388 Co386 2.053 . S
O388 H387 0.760 . S
H389 Co385 2.388 . S
H389 O390 0.760 . S
H389 Co391 2.400 . S
O390 Co385 2.053 . S
O390 Co386 2.126 . S
O390 H389 0.760 . S
O390 Co391 2.009 . S
Co391 H389 2.400 . S
Co391 O390 2.009 . S
Co391 O392 2.053 . S
Co391 O394 2.094 . S
Co391 O398 2.122 . S
Co391 O412 2.115 . S
Co391 O413 2.315 . S
O392 Co391 2.053 . S
O392 C404 1.259 . S
O393 Co385 2.047 . S
O393 C404 1.257 . S
O394 Co391 2.094 . S
O394 C405 1.253 . S
O395 Co386 2.063 . S
O395 C405 1.268 . S
O396 Co384 2.115 . S
O396 C406 1.281 . S
O397 Co384 2.315 . S
O397 C406 1.252 . S
O398 Co391 2.122 . S
O398 C407 1.272 . S
O399 Co385 2.113 . S
O399 C407 1.245 . S
C400 O408 1.259 . S
C400 O409 1.257 . S
C401 O410 1.268 . S
C401 O411 1.253 . S
C402 O412 1.281 . S
C402 O413 1.252 . S
C403 O414 1.272 . S
C403 O415 1.245 . S
C404 O392 1.259 . S
C404 O393 1.257 . S
C405 O394 1.253 . S
C405 O395 1.268 . S
C406 O396 1.281 . S
C406 O397 1.252 . S
C407 O398 1.272 . S
C407 O399 1.245 . S
O408 Co384 2.053 . S
O408 C400 1.259 . S
O409 Co386 2.047 . S
O409 C400 1.257 . S
O410 Co385 2.063 . S
O410 C401 1.268 . S
O411 Co384 2.094 . S
O411 C401 1.253 . S
O412 Co391 2.115 . S
O412 C402 1.281 . S
O413 Co391 2.315 . S
O413 C402 1.252 . S
O414 Co384 2.122 . S
O414 C403 1.272 . S
O415 Co386 2.113 . S
O415 C403 1.245 . S
Co416 H419 2.400 . S
Co416 O420 2.009 . S
Co416 O428 2.115 . S
Co416 O429 2.315 . S
Co416 O440 2.053 . S
Co416 O443 2.094 . S
Co416 O446 2.122 . S
Co417 O420 2.126 . S
Co417 H421 2.388 . S
Co417 O422 2.053 . S
Co417 O425 2.047 . S
Co417 O431 2.113 . S
Co417 O442 2.063 . S
Co418 H419 2.388 . S
Co418 O420 2.053 . S
Co418 O422 2.126 . S
Co418 O427 2.063 . S
Co418 O441 2.047 . S
Co418 O447 2.113 . S
H419 Co416 2.400 . S
H419 Co418 2.388 . S
H419 O420 0.760 . S
O420 Co416 2.009 . S
O420 Co417 2.126 . S
O420 Co418 2.053 . S
O420 H419 0.760 . S
H421 Co417 2.388 . S
H421 O422 0.760 . S
H421 Co423 2.400 . S
O422 Co417 2.053 . S
O422 Co418 2.126 . S
O422 H421 0.760 . S
O422 Co423 2.009 . S
Co423 H421 2.400 . S
Co423 O422 2.009 . S
Co423 O424 2.053 . S
Co423 O426 2.094 . S
Co423 O430 2.122 . S
Co423 O444 2.115 . S
Co423 O445 2.315 . S
O424 Co423 2.053 . S
O424 C436 1.259 . S
O425 Co417 2.047 . S
O425 C436 1.257 . S
O426 Co423 2.094 . S
O426 C437 1.253 . S
O427 Co418 2.063 . S
O427 C437 1.268 . S
O428 Co416 2.115 . S
O428 C438 1.281 . S
O429 Co416 2.315 . S
O429 C438 1.252 . S
O430 Co423 2.122 . S
O430 C439 1.272 . S
O431 Co417 2.113 . S
O431 C439 1.245 . S
C432 O440 1.259 . S
C432 O441 1.257 . S
C433 O442 1.268 . S
C433 O443 1.253 . S
C434 O444 1.281 . S
C434 O445 1.252 . S
C435 O446 1.272 . S
C435 O447 1.245 . S
C436 O424 1.259 . S
C436 O425 1.257 . S
C437 O426 1.253 . S
C437 O427 1.268 . S
C438 O428 1.281 . S
C438 O429 1.252 . S
C439 O430 1.272 . S
C439 O431 1.245 . S
O440 Co416 2.053 . S
O440 C432 1.259 . S
O441 Co418 2.047 . S
O441 C432 1.257 . S
O442 Co417 2.063 . S
O442 C433 1.268 . S
O443 Co416 2.094 . S
O443 C433 1.253 . S
O444 Co423 2.115 . S
O444 C434 1.281 . S
O445 Co423 2.315 . S
O445 C434 1.252 . S
O446 Co416 2.122 . S
O446 C435 1.272 . S
O447 Co418 2.113 . S
O447 C435 1.245 . S
Co448 H451 2.400 . S
Co448 O452 2.009 . S
Co448 O460 2.115 . S
Co448 O461 2.315 . S
Co448 O472 2.053 . S
Co448 O475 2.094 . S
Co448 O478 2.122 . S
Co449 O452 2.126 . S
Co449 H453 2.388 . S
Co449 O454 2.053 . S
Co449 O457 2.047 . S
Co449 O463 2.113 . S
Co449 O474 2.063 . S
Co450 H451 2.388 . S
Co450 O452 2.053 . S
Co450 O454 2.126 . S
Co450 O459 2.063 . S
Co450 O473 2.047 . S
Co450 O479 2.113 . S
H451 Co448 2.400 . S
H451 Co450 2.388 . S
H451 O452 0.760 . S
O452 Co448 2.009 . S
O452 Co449 2.126 . S
O452 Co450 2.053 . S
O452 H451 0.760 . S
H453 Co449 2.388 . S
H453 O454 0.760 . S
H453 Co455 2.400 . S
O454 Co449 2.053 . S
O454 Co450 2.126 . S
O454 H453 0.760 . S
O454 Co455 2.009 . S
Co455 H453 2.400 . S
Co455 O454 2.009 . S
Co455 O456 2.053 . S
Co455 O458 2.094 . S
Co455 O462 2.122 . S
Co455 O476 2.115 . S
Co455 O477 2.315 . S
O456 Co455 2.053 . S
O456 C468 1.259 . S
O457 Co449 2.047 . S
O457 C468 1.257 . S
O458 Co455 2.094 . S
O458 C469 1.253 . S
O459 Co450 2.063 . S
O459 C469 1.268 . S
O460 Co448 2.115 . S
O460 C470 1.281 . S
O461 Co448 2.315 . S
O461 C470 1.252 . S
O462 Co455 2.122 . S
O462 C471 1.272 . S
O463 Co449 2.113 . S
O463 C471 1.245 . S
C464 O472 1.259 . S
C464 O473 1.257 . S
C465 O474 1.268 . S
C465 O475 1.253 . S
C466 O476 1.281 . S
C466 O477 1.252 . S
C467 O478 1.272 . S
C467 O479 1.245 . S
C468 O456 1.259 . S
C468 O457 1.257 . S
C469 O458 1.253 . S
C469 O459 1.268 . S
C470 O460 1.281 . S
C470 O461 1.252 . S
C471 O462 1.272 . S
C471 O463 1.245 . S
O472 Co448 2.053 . S
O472 C464 1.259 . S
O473 Co450 2.047 . S
O473 C464 1.257 . S
O474 Co449 2.063 . S
O474 C465 1.268 . S
O475 Co448 2.094 . S
O475 C465 1.253 . S
O476 Co455 2.115 . S
O476 C466 1.281 . S
O477 Co455 2.315 . S
O477 C466 1.252 . S
O478 Co448 2.122 . S
O478 C467 1.272 . S
O479 Co450 2.113 . S
O479 C467 1.245 . S
Co480 H483 2.400 . S
Co480 O484 2.009 . S
Co480 O492 2.115 . S
Co480 O493 2.315 . S
Co480 O504 2.053 . S
Co480 O507 2.094 . S
Co480 O510 2.122 . S
Co481 O484 2.126 . S
Co481 H485 2.388 . S
Co481 O486 2.053 . S
Co481 O489 2.047 . S
Co481 O495 2.113 . S
Co481 O506 2.063 . S
Co482 H483 2.388 . S
Co482 O484 2.053 . S
Co482 O486 2.126 . S
Co482 O491 2.063 . S
Co482 O505 2.047 . S
Co482 O511 2.113 . S
H483 Co480 2.400 . S
H483 Co482 2.388 . S
H483 O484 0.760 . S
O484 Co480 2.009 . S
O484 Co481 2.126 . S
O484 Co482 2.053 . S
O484 H483 0.760 . S
H485 Co481 2.388 . S
H485 O486 0.760 . S
H485 Co487 2.400 . S
O486 Co481 2.053 . S
O486 Co482 2.126 . S
O486 H485 0.760 . S
O486 Co487 2.009 . S
Co487 H485 2.400 . S
Co487 O486 2.009 . S
Co487 O488 2.053 . S
Co487 O490 2.094 . S
Co487 O494 2.122 . S
Co487 O508 2.115 . S
Co487 O509 2.315 . S
O488 Co487 2.053 . S
O488 C500 1.259 . S
O489 Co481 2.047 . S
O489 C500 1.257 . S
O490 Co487 2.094 . S
O490 C501 1.253 . S
O491 Co482 2.063 . S
O491 C501 1.268 . S
O492 Co480 2.115 . S
O492 C502 1.281 . S
O493 Co480 2.315 . S
O493 C502 1.252 . S
O494 Co487 2.122 . S
O494 C503 1.272 . S
O495 Co481 2.113 . S
O495 C503 1.245 . S
C496 O504 1.259 . S
C496 O505 1.257 . S
C497 O506 1.268 . S
C497 O507 1.253 . S
C498 O508 1.281 . S
C498 O509 1.252 . S
C499 O510 1.272 . S
C499 O511 1.245 . S
C500 O488 1.259 . S
C500 O489 1.257 . S
C501 O490 1.253 . S
C501 O491 1.268 . S
C502 O492 1.281 . S
C502 O493 1.252 . S
C503 O494 1.272 . S
C503 O495 1.245 . S
O504 Co480 2.053 . S
O504 C496 1.259 . S
O505 Co482 2.047 . S
O505 C496 1.257 . S
O506 Co481 2.063 . S
O506 C497 1.268 . S
O507 Co480 2.094 . S
O507 C497 1.253 . S
O508 Co487 2.115 . S
O508 C498 1.281 . S
O509 Co487 2.315 . S
O509 C498 1.252 . S
O510 Co480 2.122 . S
O510 C499 1.272 . S
O511 Co482 2.113 . S
O511 C499 1.245 . S
Co512 H515 2.400 . S
Co512 O516 2.009 . S
Co512 O524 2.115 . S
Co512 O525 2.315 . S
Co512 O536 2.053 . S
Co512 O539 2.094 . S
Co512 O542 2.122 . S
Co513 O516 2.126 . S
Co513 H517 2.388 . S
Co513 O518 2.053 . S
Co513 O521 2.047 . S
Co513 O527 2.113 . S
Co513 O538 2.063 . S
Co514 H515 2.388 . S
Co514 O516 2.053 . S
Co514 O518 2.126 . S
Co514 O523 2.063 . S
Co514 O537 2.047 . S
Co514 O543 2.113 . S
H515 Co512 2.400 . S
H515 Co514 2.388 . S
H515 O516 0.760 . S
O516 Co512 2.009 . S
O516 Co513 2.126 . S
O516 Co514 2.053 . S
O516 H515 0.760 . S
H517 Co513 2.388 . S
H517 O518 0.760 . S
H517 Co519 2.400 . S
O518 Co513 2.053 . S
O518 Co514 2.126 . S
O518 H517 0.760 . S
O518 Co519 2.009 . S
Co519 H517 2.400 . S
Co519 O518 2.009 . S
Co519 O520 2.053 . S
Co519 O522 2.094 . S
Co519 O526 2.122 . S
Co519 O540 2.115 . S
Co519 O541 2.315 . S
O520 Co519 2.053 . S
O520 C532 1.259 . S
O521 Co513 2.047 . S
O521 C532 1.257 . S
O522 Co519 2.094 . S
O522 C533 1.253 . S
O523 Co514 2.063 . S
O523 C533 1.268 . S
O524 Co512 2.115 . S
O524 C534 1.281 . S
O525 Co512 2.315 . S
O525 C534 1.252 . S
O526 Co519 2.122 . S
O526 C535 1.272 . S
O527 Co513 2.113 . S
O527 C535 1.245 . S
C528 O536 1.259 . S
C528 O537 1.257 . S
C529 O538 1.268 . S
C529 O539 1.253 . S
C530 O540 1.281 . S
C530 O541 1.252 . S
C531 O542 1.272 . S
C531 O543 1.245 . S
C532 O520 1.259 . S
C532 O521 1.257 . S
C533 O522 1.253 . S
C533 O523 1.268 . S
C534 O524 1.281 . S
C534 O525 1.252 . S
C535 O526 1.272 . S
C535 O527 1.245 . S
O536 Co512 2.053 . S
O536 C528 1.259 . S
O537 Co514 2.047 . S
O537 C528 1.257 . S
O538 Co513 2.063 . S
O538 C529 1.268 . S
O539 Co512 2.094 . S
O539 C529 1.253 . S
O540 Co519 2.115 . S
O540 C530 1.281 . S
O541 Co519 2.315 . S
O541 C530 1.252 . S
O542 Co512 2.122 . S
O542 C531 1.272 . S
O543 Co514 2.113 . S
O543 C531 1.245 . S
Co544 H547 2.400 . S
Co544 O548 2.009 . S
Co544 O556 2.115 . S
Co544 O557 2.315 . S
Co544 O568 2.053 . S
Co544 O571 2.094 . S
Co544 O574 2.122 . S
Co545 O548 2.126 . S
Co545 H549 2.388 . S
Co545 O550 2.053 . S
Co545 O553 2.047 . S
Co545 O559 2.113 . S
Co545 O570 2.063 . S
Co546 H547 2.388 . S
Co546 O548 2.053 . S
Co546 O550 2.126 . S
Co546 O555 2.063 . S
Co546 O569 2.047 . S
Co546 O575 2.113 . S
H547 Co544 2.400 . S
H547 Co546 2.388 . S
H547 O548 0.760 . S
O548 Co544 2.009 . S
O548 Co545 2.126 . S
O548 Co546 2.053 . S
O548 H547 0.760 . S
H549 Co545 2.388 . S
H549 O550 0.760 . S
H549 Co551 2.400 . S
O550 Co545 2.053 . S
O550 Co546 2.126 . S
O550 H549 0.760 . S
O550 Co551 2.009 . S
Co551 H549 2.400 . S
Co551 O550 2.009 . S
Co551 O552 2.053 . S
Co551 O554 2.094 . S
Co551 O558 2.122 . S
Co551 O572 2.115 . S
Co551 O573 2.315 . S
O552 Co551 2.053 . S
O552 C564 1.259 . S
O553 Co545 2.047 . S
O553 C564 1.257 . S
O554 Co551 2.094 . S
O554 C565 1.253 . S
O555 Co546 2.063 . S
O555 C565 1.268 . S
O556 Co544 2.115 . S
O556 C566 1.281 . S
O557 Co544 2.315 . S
O557 C566 1.252 . S
O558 Co551 2.122 . S
O558 C567 1.272 . S
O559 Co545 2.113 . S
O559 C567 1.245 . S
C560 O568 1.259 . S
C560 O569 1.257 . S
C561 O570 1.268 . S
C561 O571 1.253 . S
C562 O572 1.281 . S
C562 O573 1.252 . S
C563 O574 1.272 . S
C563 O575 1.245 . S
C564 O552 1.259 . S
C564 O553 1.257 . S
C565 O554 1.253 . S
C565 O555 1.268 . S
C566 O556 1.281 . S
C566 O557 1.252 . S
C567 O558 1.272 . S
C567 O559 1.245 . S
O568 Co544 2.053 . S
O568 C560 1.259 . S
O569 Co546 2.047 . S
O569 C560 1.257 . S
O570 Co545 2.063 . S
O570 C561 1.268 . S
O571 Co544 2.094 . S
O571 C561 1.253 . S
O572 Co551 2.115 . S
O572 C562 1.281 . S
O573 Co551 2.315 . S
O573 C562 1.252 . S
O574 Co544 2.122 . S
O574 C563 1.272 . S
O575 Co546 2.113 . S
O575 C563 1.245 . S
Co576 H579 2.400 . S
Co576 O580 2.009 . S
Co576 O588 2.115 . S
Co576 O589 2.315 . S
Co576 O600 2.053 . S
Co576 O603 2.094 . S
Co576 O606 2.122 . S
Co577 O580 2.126 . S
Co577 H581 2.388 . S
Co577 O582 2.053 . S
Co577 O585 2.047 . S
Co577 O591 2.113 . S
Co577 O602 2.063 . S
Co578 H579 2.388 . S
Co578 O580 2.053 . S
Co578 O582 2.126 . S
Co578 O587 2.063 . S
Co578 O601 2.047 . S
Co578 O607 2.113 . S
H579 Co576 2.400 . S
H579 Co578 2.388 . S
H579 O580 0.760 . S
O580 Co576 2.009 . S
O580 Co577 2.126 . S
O580 Co578 2.053 . S
O580 H579 0.760 . S
H581 Co577 2.388 . S
H581 O582 0.760 . S
H581 Co583 2.400 . S
O582 Co577 2.053 . S
O582 Co578 2.126 . S
O582 H581 0.760 . S
O582 Co583 2.009 . S
Co583 H581 2.400 . S
Co583 O582 2.009 . S
Co583 O584 2.053 . S
Co583 O586 2.094 . S
Co583 O590 2.122 . S
Co583 O604 2.115 . S
Co583 O605 2.315 . S
O584 Co583 2.053 . S
O584 C596 1.259 . S
O585 Co577 2.047 . S
O585 C596 1.257 . S
O586 Co583 2.094 . S
O586 C597 1.253 . S
O587 Co578 2.063 . S
O587 C597 1.268 . S
O588 Co576 2.115 . S
O588 C598 1.281 . S
O589 Co576 2.315 . S
O589 C598 1.252 . S
O590 Co583 2.122 . S
O590 C599 1.272 . S
O591 Co577 2.113 . S
O591 C599 1.245 . S
C592 O600 1.259 . S
C592 O601 1.257 . S
C593 O602 1.268 . S
C593 O603 1.253 . S
C594 O604 1.281 . S
C594 O605 1.252 . S
C595 O606 1.272 . S
C595 O607 1.245 . S
C596 O584 1.259 . S
C596 O585 1.257 . S
C597 O586 1.253 . S
C597 O587 1.268 . S
C598 O588 1.281 . S
C598 O589 1.252 . S
C599 O590 1.272 . S
C599 O591 1.245 . S
O600 Co576 2.053 . S
O600 C592 1.259 . S
O601 Co578 2.047 . S
O601 C592 1.257 . S
O602 Co577 2.063 . S
O602 C593 1.268 . S
O603 Co576 2.094 . S
O603 C593 1.253 . S
O604 Co583 2.115 . S
O604 C594 1.281 . S
O605 Co583 2.315 . S
O605 C594 1.252 . S
O606 Co576 2.122 . S
O606 C595 1.272 . S
O607 Co578 2.113 . S
O607 C595 1.245 . S
Co608 H611 2.400 . S
Co608 O612 2.009 . S
Co608 O620 2.115 . S
Co608 O621 2.315 . S
Co608 O632 2.053 . S
Co608 O635 2.094 . S
Co608 O638 2.122 . S
Co609 O612 2.126 . S
Co609 H613 2.388 . S
Co609 O614 2.053 . S
Co609 O617 2.047 . S
Co609 O623 2.113 . S
Co609 O634 2.063 . S
Co610 H611 2.388 . S
Co610 O612 2.053 . S
Co610 O614 2.126 . S
Co610 O619 2.063 . S
Co610 O633 2.047 . S
Co610 O639 2.113 . S
H611 Co608 2.400 . S
H611 Co610 2.388 . S
H611 O612 0.760 . S
O612 Co608 2.009 . S
O612 Co609 2.126 . S
O612 Co610 2.053 . S
O612 H611 0.760 . S
H613 Co609 2.388 . S
H613 O614 0.760 . S
H613 Co615 2.400 . S
O614 Co609 2.053 . S
O614 Co610 2.126 . S
O614 H613 0.760 . S
O614 Co615 2.009 . S
Co615 H613 2.400 . S
Co615 O614 2.009 . S
Co615 O616 2.053 . S
Co615 O618 2.094 . S
Co615 O622 2.122 . S
Co615 O636 2.115 . S
Co615 O637 2.315 . S
O616 Co615 2.053 . S
O616 C628 1.259 . S
O617 Co609 2.047 . S
O617 C628 1.257 . S
O618 Co615 2.094 . S
O618 C629 1.253 . S
O619 Co610 2.063 . S
O619 C629 1.268 . S
O620 Co608 2.115 . S
O620 C630 1.281 . S
O621 Co608 2.315 . S
O621 C630 1.252 . S
O622 Co615 2.122 . S
O622 C631 1.272 . S
O623 Co609 2.113 . S
O623 C631 1.245 . S
C624 O632 1.259 . S
C624 O633 1.257 . S
C625 O634 1.268 . S
C625 O635 1.253 . S
C626 O636 1.281 . S
C626 O637 1.252 . S
C627 O638 1.272 . S
C627 O639 1.245 . S
C628 O616 1.259 . S
C628 O617 1.257 . S
C629 O618 1.253 . S
C629 O619 1.268 . S
C630 O620 1.281 . S
C630 O621 1.252 . S
C631 O622 1.272 . S
C631 O623 1.245 . S
O632 Co608 2.053 . S
O632 C624 1.259 . S
O633 Co610 2.047 . S
O633 C624 1.257 . S
O634 Co609 2.063 . S
O634 C625 1.268 . S
O635 Co608 2.094 . S
O635 C625 1.253 . S
O636 Co615 2.115 . S
O636 C626 1.281 . S
O637 Co615 2.315 . S
O637 C626 1.252 . S
O638 Co608 2.122 . S
O638 C627 1.272 . S
O639 Co610 2.113 . S
O639 C627 1.245 . S
Co640 H643 2.400 . S
Co640 O644 2.009 . S
Co640 O652 2.115 . S
Co640 O653 2.315 . S
Co640 O664 2.053 . S
Co640 O667 2.094 . S
Co640 O670 2.122 . S
Co641 O644 2.126 . S
Co641 H645 2.388 . S
Co641 O646 2.053 . S
Co641 O649 2.047 . S
Co641 O655 2.113 . S
Co641 O666 2.063 . S
Co642 H643 2.388 . S
Co642 O644 2.053 . S
Co642 O646 2.126 . S
Co642 O651 2.063 . S
Co642 O665 2.047 . S
Co642 O671 2.113 . S
H643 Co640 2.400 . S
H643 Co642 2.388 . S
H643 O644 0.760 . S
O644 Co640 2.009 . S
O644 Co641 2.126 . S
O644 Co642 2.053 . S
O644 H643 0.760 . S
H645 Co641 2.388 . S
H645 O646 0.760 . S
H645 Co647 2.400 . S
O646 Co641 2.053 . S
O646 Co642 2.126 . S
O646 H645 0.760 . S
O646 Co647 2.009 . S
Co647 H645 2.400 . S
Co647 O646 2.009 . S
Co647 O648 2.053 . S
Co647 O650 2.094 . S
Co647 O654 2.122 . S
Co647 O668 2.115 . S
Co647 O669 2.315 . S
O648 Co647 2.053 . S
O648 C660 1.259 . S
O649 Co641 2.047 . S
O649 C660 1.257 . S
O650 Co647 2.094 . S
O650 C661 1.253 . S
O651 Co642 2.063 . S
O651 C661 1.268 . S
O652 Co640 2.115 . S
O652 C662 1.281 . S
O653 Co640 2.315 . S
O653 C662 1.252 . S
O654 Co647 2.122 . S
O654 C663 1.272 . S
O655 Co641 2.113 . S
O655 C663 1.245 . S
C656 O664 1.259 . S
C656 O665 1.257 . S
C657 O666 1.268 . S
C657 O667 1.253 . S
C658 O668 1.281 . S
C658 O669 1.252 . S
C659 O670 1.272 . S
C659 O671 1.245 . S
C660 O648 1.259 . S
C660 O649 1.257 . S
C661 O650 1.253 . S
C661 O651 1.268 . S
C662 O652 1.281 . S
C662 O653 1.252 . S
C663 O654 1.272 . S
C663 O655 1.245 . S
O664 Co640 2.053 . S
O664 C656 1.259 . S
O665 Co642 2.047 . S
O665 C656 1.257 . S
O666 Co641 2.063 . S
O666 C657 1.268 . S
O667 Co640 2.094 . S
O667 C657 1.253 . S
O668 Co647 2.115 . S
O668 C658 1.281 . S
O669 Co647 2.315 . S
O669 C658 1.252 . S
O670 Co640 2.122 . S
O670 C659 1.272 . S
O671 Co642 2.113 . S
O671 C659 1.245 . S
Co672 H675 2.400 . S
Co672 O676 2.009 . S
Co672 O684 2.115 . S
Co672 O685 2.315 . S
Co672 O696 2.053 . S
Co672 O699 2.094 . S
Co672 O702 2.122 . S
Co673 O676 2.126 . S
Co673 H677 2.388 . S
Co673 O678 2.053 . S
Co673 O681 2.047 . S
Co673 O687 2.113 . S
Co673 O698 2.063 . S
Co674 H675 2.388 . S
Co674 O676 2.053 . S
Co674 O678 2.126 . S
Co674 O683 2.063 . S
Co674 O697 2.047 . S
Co674 O703 2.113 . S
H675 Co672 2.400 . S
H675 Co674 2.388 . S
H675 O676 0.760 . S
O676 Co672 2.009 . S
O676 Co673 2.126 . S
O676 Co674 2.053 . S
O676 H675 0.760 . S
H677 Co673 2.388 . S
H677 O678 0.760 . S
H677 Co679 2.400 . S
O678 Co673 2.053 . S
O678 Co674 2.126 . S
O678 H677 0.760 . S
O678 Co679 2.009 . S
Co679 H677 2.400 . S
Co679 O678 2.009 . S
Co679 O680 2.053 . S
Co679 O682 2.094 . S
Co679 O686 2.122 . S
Co679 O700 2.115 . S
Co679 O701 2.315 . S
O680 Co679 2.053 . S
O680 C692 1.259 . S
O681 Co673 2.047 . S
O681 C692 1.257 . S
O682 Co679 2.094 . S
O682 C693 1.253 . S
O683 Co674 2.063 . S
O683 C693 1.268 . S
O684 Co672 2.115 . S
O684 C694 1.281 . S
O685 Co672 2.315 . S
O685 C694 1.252 . S
O686 Co679 2.122 . S
O686 C695 1.272 . S
O687 Co673 2.113 . S
O687 C695 1.245 . S
C688 O696 1.259 . S
C688 O697 1.257 . S
C689 O698 1.268 . S
C689 O699 1.253 . S
C690 O700 1.281 . S
C690 O701 1.252 . S
C691 O702 1.272 . S
C691 O703 1.245 . S
C692 O680 1.259 . S
C692 O681 1.257 . S
C693 O682 1.253 . S
C693 O683 1.268 . S
C694 O684 1.281 . S
C694 O685 1.252 . S
C695 O686 1.272 . S
C695 O687 1.245 . S
O696 Co672 2.053 . S
O696 C688 1.259 . S
O697 Co674 2.047 . S
O697 C688 1.257 . S
O698 Co673 2.063 . S
O698 C689 1.268 . S
O699 Co672 2.094 . S
O699 C689 1.253 . S
O700 Co679 2.115 . S
O700 C690 1.281 . S
O701 Co679 2.315 . S
O701 C690 1.252 . S
O702 Co672 2.122 . S
O702 C691 1.272 . S
O703 Co674 2.113 . S
O703 C691 1.245 . S
Co704 H707 2.400 . S
Co704 O708 2.009 . S
Co704 O716 2.115 . S
Co704 O717 2.315 . S
Co704 O728 2.053 . S
Co704 O731 2.094 . S
Co704 O734 2.122 . S
Co705 O708 2.126 . S
Co705 H709 2.388 . S
Co705 O710 2.053 . S
Co705 O713 2.047 . S
Co705 O719 2.113 . S
Co705 O730 2.063 . S
Co706 H707 2.388 . S
Co706 O708 2.053 . S
Co706 O710 2.126 . S
Co706 O715 2.063 . S
Co706 O729 2.047 . S
Co706 O735 2.113 . S
H707 Co704 2.400 . S
H707 Co706 2.388 . S
H707 O708 0.760 . S
O708 Co704 2.009 . S
O708 Co705 2.126 . S
O708 Co706 2.053 . S
O708 H707 0.760 . S
H709 Co705 2.388 . S
H709 O710 0.760 . S
H709 Co711 2.400 . S
O710 Co705 2.053 . S
O710 Co706 2.126 . S
O710 H709 0.760 . S
O710 Co711 2.009 . S
Co711 H709 2.400 . S
Co711 O710 2.009 . S
Co711 O712 2.053 . S
Co711 O714 2.094 . S
Co711 O718 2.122 . S
Co711 O732 2.115 . S
Co711 O733 2.315 . S
O712 Co711 2.053 . S
O712 C724 1.259 . S
O713 Co705 2.047 . S
O713 C724 1.257 . S
O714 Co711 2.094 . S
O714 C725 1.253 . S
O715 Co706 2.063 . S
O715 C725 1.268 . S
O716 Co704 2.115 . S
O716 C726 1.281 . S
O717 Co704 2.315 . S
O717 C726 1.252 . S
O718 Co711 2.122 . S
O718 C727 1.272 . S
O719 Co705 2.113 . S
O719 C727 1.245 . S
C720 O728 1.259 . S
C720 O729 1.257 . S
C721 O730 1.268 . S
C721 O731 1.253 . S
C722 O732 1.281 . S
C722 O733 1.252 . S
C723 O734 1.272 . S
C723 O735 1.245 . S
C724 O712 1.259 . S
C724 O713 1.257 . S
C725 O714 1.253 . S
C725 O715 1.268 . S
C726 O716 1.281 . S
C726 O717 1.252 . S
C727 O718 1.272 . S
C727 O719 1.245 . S
O728 Co704 2.053 . S
O728 C720 1.259 . S
O729 Co706 2.047 . S
O729 C720 1.257 . S
O730 Co705 2.063 . S
O730 C721 1.268 . S
O731 Co704 2.094 . S
O731 C721 1.253 . S
O732 Co711 2.115 . S
O732 C722 1.281 . S
O733 Co711 2.315 . S
O733 C722 1.252 . S
O734 Co704 2.122 . S
O734 C723 1.272 . S
O735 Co706 2.113 . S
O735 C723 1.245 . S
Co736 H739 2.400 . S
Co736 O740 2.009 . S
Co736 O748 2.115 . S
Co736 O749 2.315 . S
Co736 O760 2.053 . S
Co736 O763 2.094 . S
Co736 O766 2.122 . S
Co737 O740 2.126 . S
Co737 H741 2.388 . S
Co737 O742 2.053 . S
Co737 O745 2.047 . S
Co737 O751 2.113 . S
Co737 O762 2.063 . S
Co738 H739 2.388 . S
Co738 O740 2.053 . S
Co738 O742 2.126 . S
Co738 O747 2.063 . S
Co738 O761 2.047 . S
Co738 O767 2.113 . S
H739 Co736 2.400 . S
H739 Co738 2.388 . S
H739 O740 0.760 . S
O740 Co736 2.009 . S
O740 Co737 2.126 . S
O740 Co738 2.053 . S
O740 H739 0.760 . S
H741 Co737 2.388 . S
H741 O742 0.760 . S
H741 Co743 2.400 . S
O742 Co737 2.053 . S
O742 Co738 2.126 . S
O742 H741 0.760 . S
O742 Co743 2.009 . S
Co743 H741 2.400 . S
Co743 O742 2.009 . S
Co743 O744 2.053 . S
Co743 O746 2.094 . S
Co743 O750 2.122 . S
Co743 O764 2.115 . S
Co743 O765 2.315 . S
O744 Co743 2.053 . S
O744 C756 1.259 . S
O745 Co737 2.047 . S
O745 C756 1.257 . S
O746 Co743 2.094 . S
O746 C757 1.253 . S
O747 Co738 2.063 . S
O747 C757 1.268 . S
O748 Co736 2.115 . S
O748 C758 1.281 . S
O749 Co736 2.315 . S
O749 C758 1.252 . S
O750 Co743 2.122 . S
O750 C759 1.272 . S
O751 Co737 2.113 . S
O751 C759 1.245 . S
C752 O760 1.259 . S
C752 O761 1.257 . S
C753 O762 1.268 . S
C753 O763 1.253 . S
C754 O764 1.281 . S
C754 O765 1.252 . S
C755 O766 1.272 . S
C755 O767 1.245 . S
C756 O744 1.259 . S
C756 O745 1.257 . S
C757 O746 1.253 . S
C757 O747 1.268 . S
C758 O748 1.281 . S
C758 O749 1.252 . S
C759 O750 1.272 . S
C759 O751 1.245 . S
O760 Co736 2.053 . S
O760 C752 1.259 . S
O761 Co738 2.047 . S
O761 C752 1.257 . S
O762 Co737 2.063 . S
O762 C753 1.268 . S
O763 Co736 2.094 . S
O763 C753 1.253 . S
O764 Co743 2.115 . S
O764 C754 1.281 . S
O765 Co743 2.315 . S
O765 C754 1.252 . S
O766 Co736 2.122 . S
O766 C755 1.272 . S
O767 Co738 2.113 . S
O767 C755 1.245 . S
C768 C769 1.349 . S
C768 C770 1.327 . S
C768 H793 0.950 . S
C769 C768 1.349 . S
C769 C785 1.349 . S
C770 C768 1.327 . S
C770 C789 1.429 . S
C770 H794 0.950 . S
C771 C788 1.574 . S
C771 C790 1.368 . S
C771 H795 0.949 . S
H772 C776 0.949 . S
C773 C774 1.349 . S
C773 C775 1.327 . S
C773 H796 0.950 . S
C774 C773 1.349 . S
C774 C786 1.349 . S
C775 C773 1.327 . S
C775 C791 1.429 . S
C775 H797 0.950 . S
C776 H772 0.949 . S
C776 C784 1.574 . S
C776 C792 1.368 . S
H777 C785 0.950 . S
H778 C783 0.950 . S
H779 C784 0.949 . S
H780 C786 0.950 . S
H781 C787 0.950 . S
H782 C788 0.949 . S
C783 H778 0.950 . S
C783 C785 1.327 . S
C783 C789 1.429 . S
C784 C776 1.574 . S
C784 H779 0.949 . S
C784 C790 1.368 . S
C785 C769 1.349 . S
C785 H777 0.950 . S
C785 C783 1.327 . S
C786 C774 1.349 . S
C786 H780 0.950 . S
C786 C787 1.327 . S
C787 H781 0.950 . S
C787 C786 1.327 . S
C787 C791 1.429 . S
C788 C771 1.574 . S
C788 H782 0.949 . S
C788 C792 1.368 . S
C789 C770 1.429 . S
C789 C783 1.429 . S
C789 C790 1.523 . S
C790 C771 1.368 . S
C790 C784 1.368 . S
C790 C789 1.523 . S
C791 C775 1.429 . S
C791 C787 1.429 . S
C791 C792 1.523 . S
C792 C776 1.368 . S
C792 C788 1.368 . S
C792 C791 1.523 . S
H793 C768 0.950 . S
H794 C770 0.950 . S
H795 C771 0.949 . S
H796 C773 0.950 . S
H797 C775 0.950 . S
C798 C799 1.349 . S
C798 C800 1.327 . S
C798 H823 0.950 . S
C799 C798 1.349 . S
C799 C815 1.349 . S
C800 C798 1.327 . S
C800 C819 1.429 . S
C800 H824 0.950 . S
C801 C818 1.574 . S
C801 C820 1.368 . S
C801 H825 0.949 . S
H802 C806 0.949 . S
C803 C804 1.349 . S
C803 C805 1.327 . S
C803 H826 0.950 . S
C804 C803 1.349 . S
C804 C816 1.349 . S
C805 C803 1.327 . S
C805 C821 1.429 . S
C805 H827 0.950 . S
C806 H802 0.949 . S
C806 C814 1.574 . S
C806 C822 1.368 . S
H807 C815 0.950 . S
H808 C813 0.950 . S
H809 C814 0.949 . S
H810 C816 0.950 . S
H811 C817 0.950 . S
H812 C818 0.949 . S
C813 H808 0.950 . S
C813 C815 1.327 . S
C813 C819 1.429 . S
C814 C806 1.574 . S
C814 H809 0.949 . S
C814 C820 1.368 . S
C815 C799 1.349 . S
C815 H807 0.950 . S
C815 C813 1.327 . S
C816 C804 1.349 . S
C816 H810 0.950 . S
C816 C817 1.327 . S
C817 H811 0.950 . S
C817 C816 1.327 . S
C817 C821 1.429 . S
C818 C801 1.574 . S
C818 H812 0.949 . S
C818 C822 1.368 . S
C819 C800 1.429 . S
C819 C813 1.429 . S
C819 C820 1.523 . S
C820 C801 1.368 . S
C820 C814 1.368 . S
C820 C819 1.523 . S
C821 C805 1.429 . S
C821 C817 1.429 . S
C821 C822 1.523 . S
C822 C806 1.368 . S
C822 C818 1.368 . S
C822 C821 1.523 . S
H823 C798 0.950 . S
H824 C800 0.950 . S
H825 C801 0.949 . S
H826 C803 0.950 . S
H827 C805 0.950 . S
C828 C829 1.349 . S
C828 C830 1.327 . S
C828 H853 0.950 . S
C829 C828 1.349 . S
C829 C845 1.349 . S
C830 C828 1.327 . S
C830 C849 1.429 1_565 S
C830 H854 0.950 1_565 S
C831 C848 1.574 . S
C831 C850 1.368 . S
C831 H855 0.949 . S
H832 C836 0.949 . S
C833 C834 1.349 . S
C833 C835 1.327 . S
C833 H856 0.950 . S
C834 C833 1.349 . S
C834 C846 1.349 . S
C835 C833 1.327 . S
C835 C851 1.429 . S
C835 H857 0.950 . S
C836 H832 0.949 . S
C836 C844 1.574 . S
C836 C852 1.368 . S
H837 C845 0.950 . S
H838 C843 0.950 . S
H839 C844 0.949 . S
H840 C846 0.950 . S
H841 C847 0.950 . S
H842 C848 0.949 . S
C843 H838 0.950 . S
C843 C845 1.327 . S
C843 C849 1.429 1_565 S
C844 C836 1.574 . S
C844 H839 0.949 . S
C844 C850 1.368 . S
C845 C829 1.349 . S
C845 H837 0.950 . S
C845 C843 1.327 . S
C846 C834 1.349 . S
C846 H840 0.950 . S
C846 C847 1.327 . S
C847 H841 0.950 . S
C847 C846 1.327 . S
C847 C851 1.429 . S
C848 C831 1.574 . S
C848 H842 0.949 . S
C848 C852 1.368 . S
C849 C830 1.429 1_545 S
C849 C843 1.429 1_545 S
C849 C850 1.523 . S
C850 C831 1.368 . S
C850 C844 1.368 . S
C850 C849 1.523 . S
C851 C835 1.429 . S
C851 C847 1.429 . S
C851 C852 1.523 . S
C852 C836 1.368 . S
C852 C848 1.368 . S
C852 C851 1.523 . S
H853 C828 0.950 . S
H854 C830 0.950 1_545 S
H855 C831 0.949 . S
H856 C833 0.950 . S
H857 C835 0.950 . S
C858 C859 1.349 . S
C858 C860 1.327 . S
C858 H883 0.950 . S
C859 C858 1.349 . S
C859 C875 1.349 . S
C860 C858 1.327 . S
C860 C879 1.429 . S
C860 H884 0.950 . S
C861 C878 1.574 . S
C861 C880 1.368 . S
C861 H885 0.949 . S
H862 C866 0.949 . S
C863 C864 1.349 . S
C863 C865 1.327 . S
C863 H886 0.950 . S
C864 C863 1.349 . S
C864 C876 1.349 . S
C865 C863 1.327 . S
C865 C881 1.429 1_545 S
C865 H887 0.950 1_545 S
C866 H862 0.949 . S
C866 C874 1.574 . S
C866 C882 1.368 . S
H867 C875 0.950 . S
H868 C873 0.950 . S
H869 C874 0.949 . S
H870 C876 0.950 . S
H871 C877 0.950 . S
H872 C878 0.949 . S
C873 H868 0.950 . S
C873 C875 1.327 . S
C873 C879 1.429 . S
C874 C866 1.574 . S
C874 H869 0.949 . S
C874 C880 1.368 . S
C875 C859 1.349 . S
C875 H867 0.950 . S
C875 C873 1.327 . S
C876 C864 1.349 . S
C876 H870 0.950 . S
C876 C877 1.327 . S
C877 H871 0.950 . S
C877 C876 1.327 . S
C877 C881 1.429 1_545 S
C878 C861 1.574 . S
C878 H872 0.949 . S
C878 C882 1.368 . S
C879 C860 1.429 . S
C879 C873 1.429 . S
C879 C880 1.523 . S
C880 C861 1.368 . S
C880 C874 1.368 . S
C880 C879 1.523 . S
C881 C865 1.429 1_565 S
C881 C877 1.429 1_565 S
C881 C882 1.523 . S
C882 C866 1.368 . S
C882 C878 1.368 . S
C882 C881 1.523 . S
H883 C858 0.950 . S
H884 C860 0.950 . S
H885 C861 0.949 . S
H886 C863 0.950 . S
H887 C865 0.950 1_565 S
C888 C889 1.349 . S
C888 C890 1.327 . S
C888 H913 0.950 . S
C889 C888 1.349 . S
C889 C905 1.349 . S
C890 C888 1.327 . S
C890 C909 1.429 . S
C890 H914 0.950 . S
C891 C908 1.574 . S
C891 C910 1.368 . S
C891 H915 0.949 . S
H892 C896 0.949 . S
C893 C894 1.349 . S
C893 C895 1.327 . S
C893 H916 0.950 . S
C894 C893 1.349 . S
C894 C906 1.349 . S
C895 C893 1.327 . S
C895 C911 1.429 . S
C895 H917 0.950 . S
C896 H892 0.949 . S
C896 C904 1.574 . S
C896 C912 1.368 . S
H897 C905 0.950 . S
H898 C903 0.950 . S
H899 C904 0.949 . S
H900 C906 0.950 . S
H901 C907 0.950 . S
H902 C908 0.949 . S
C903 H898 0.950 . S
C903 C905 1.327 . S
C903 C909 1.429 . S
C904 C896 1.574 . S
C904 H899 0.949 . S
C904 C910 1.368 . S
C905 C889 1.349 . S
C905 H897 0.950 . S
C905 C903 1.327 . S
C906 C894 1.349 . S
C906 H900 0.950 . S
C906 C907 1.327 . S
C907 H901 0.950 . S
C907 C906 1.327 . S
C907 C911 1.429 . S
C908 C891 1.574 . S
C908 H902 0.949 . S
C908 C912 1.368 . S
C909 C890 1.429 . S
C909 C903 1.429 . S
C909 C910 1.523 . S
C910 C891 1.368 . S
C910 C904 1.368 . S
C910 C909 1.523 . S
C911 C895 1.429 . S
C911 C907 1.429 . S
C911 C912 1.523 . S
C912 C896 1.368 . S
C912 C908 1.368 . S
C912 C911 1.523 . S
H913 C888 0.950 . S
H914 C890 0.950 . S
H915 C891 0.949 . S
H916 C893 0.950 . S
H917 C895 0.950 . S
C918 C919 1.349 . S
C918 C920 1.327 . S
C918 H943 0.950 . S
C919 C918 1.349 . S
C919 C935 1.349 . S
C920 C918 1.327 . S
C920 C939 1.429 1_554 S
C920 H944 0.950 . S
C921 C938 1.574 . S
C921 C940 1.368 . S
C921 H945 0.949 . S
H922 C926 0.949 . S
C923 C924 1.349 . S
C923 C925 1.327 . S
C923 H946 0.950 . S
C924 C923 1.349 . S
C924 C936 1.349 . S
C925 C923 1.327 . S
C925 C941 1.429 . S
C925 H947 0.950 . S
C926 H922 0.949 . S
C926 C934 1.574 . S
C926 C942 1.368 . S
H927 C935 0.950 . S
H928 C933 0.950 1_556 S
H929 C934 0.949 . S
H930 C936 0.950 . S
H931 C937 0.950 . S
H932 C938 0.949 . S
C933 H928 0.950 1_554 S
C933 C935 1.327 . S
C933 C939 1.429 1_554 S
C934 C926 1.574 . S
C934 H929 0.949 . S
C934 C940 1.368 . S
C935 C919 1.349 . S
C935 H927 0.950 . S
C935 C933 1.327 . S
C936 C924 1.349 . S
C936 H930 0.950 . S
C936 C937 1.327 . S
C937 H931 0.950 . S
C937 C936 1.327 . S
C937 C941 1.429 . S
C938 C921 1.574 . S
C938 H932 0.949 . S
C938 C942 1.368 . S
C939 C920 1.429 1_556 S
C939 C933 1.429 1_556 S
C939 C940 1.523 . S
C940 C921 1.368 . S
C940 C934 1.368 . S
C940 C939 1.523 . S
C941 C925 1.429 . S
C941 C937 1.429 . S
C941 C942 1.523 . S
C942 C926 1.368 . S
C942 C938 1.368 . S
C942 C941 1.523 . S
H943 C918 0.950 . S
H944 C920 0.950 . S
H945 C921 0.949 . S
H946 C923 0.950 . S
H947 C925 0.950 . S
C948 C949 1.349 . S
C948 C950 1.327 . S
C948 H973 0.950 . S
C949 C948 1.349 . S
C949 C965 1.349 . S
C950 C948 1.327 . S
C950 C969 1.429 . S
C950 H974 0.950 . S
C951 C968 1.574 . S
C951 C970 1.368 . S
C951 H975 0.949 . S
H952 C956 0.949 . S
C953 C954 1.349 . S
C953 C955 1.327 . S
C953 H976 0.950 . S
C954 C953 1.349 . S
C954 C966 1.349 . S
C955 C953 1.327 . S
C955 C971 1.429 . S
C955 H977 0.950 . S
C956 H952 0.949 . S
C956 C964 1.574 . S
C956 C972 1.368 . S
H957 C965 0.950 . S
H958 C963 0.950 . S
H959 C964 0.949 . S
H960 C966 0.950 . S
H961 C967 0.950 . S
H962 C968 0.949 . S
C963 H958 0.950 . S
C963 C965 1.327 . S
C963 C969 1.429 . S
C964 C956 1.574 . S
C964 H959 0.949 . S
C964 C970 1.368 . S
C965 C949 1.349 . S
C965 H957 0.950 . S
C965 C963 1.327 . S
C966 C954 1.349 . S
C966 H960 0.950 . S
C966 C967 1.327 . S
C967 H961 0.950 . S
C967 C966 1.327 . S
C967 C971 1.429 . S
C968 C951 1.574 . S
C968 H962 0.949 . S
C968 C972 1.368 . S
C969 C950 1.429 . S
C969 C963 1.429 . S
C969 C970 1.523 . S
C970 C951 1.368 . S
C970 C964 1.368 . S
C970 C969 1.523 . S
C971 C955 1.429 . S
C971 C967 1.429 . S
C971 C972 1.523 . S
C972 C956 1.368 . S
C972 C968 1.368 . S
C972 C971 1.523 . S
H973 C948 0.950 . S
H974 C950 0.950 . S
H975 C951 0.949 . S
H976 C953 0.950 . S
H977 C955 0.950 . S
C978 C979 1.349 . S
C978 C980 1.327 . S
C978 H1003 0.950 . S
C979 C978 1.349 . S
C979 C995 1.349 . S
C980 C978 1.327 . S
C980 C999 1.429 1_556 S
C980 H1004 0.950 1_556 S
C981 C998 1.574 . S
C981 C1000 1.368 . S
C981 H1005 0.949 . S
H982 C986 0.949 . S
C983 C984 1.349 . S
C983 C985 1.327 . S
C983 H1006 0.950 . S
C984 C983 1.349 . S
C984 C996 1.349 . S
C985 C983 1.327 . S
C985 C1001 1.429 . S
C985 H1007 0.950 . S
C986 H982 0.949 . S
C986 C994 1.574 . S
C986 C1002 1.368 . S
H987 C995 0.950 . S
H988 C993 0.950 . S
H989 C994 0.949 . S
H990 C996 0.950 . S
H991 C997 0.950 . S
H992 C998 0.949 . S
C993 H988 0.950 . S
C993 C995 1.327 . S
C993 C999 1.429 1_556 S
C994 C986 1.574 . S
C994 H989 0.949 . S
C994 C1000 1.368 . S
C995 C979 1.349 . S
C995 H987 0.950 . S
C995 C993 1.327 . S
C996 C984 1.349 . S
C996 H990 0.950 . S
C996 C997 1.327 . S
C997 H991 0.950 . S
C997 C996 1.327 . S
C997 C1001 1.429 . S
C998 C981 1.574 . S
C998 H992 0.949 . S
C998 C1002 1.368 . S
C999 C980 1.429 1_554 S
C999 C993 1.429 1_554 S
C999 C1000 1.523 . S
C1000 C981 1.368 . S
C1000 C994 1.368 . S
C1000 C999 1.523 . S
C1001 C985 1.429 . S
C1001 C997 1.429 . S
C1001 C1002 1.523 . S
C1002 C986 1.368 . S
C1002 C998 1.368 . S
C1002 C1001 1.523 . S
H1003 C978 0.950 . S
H1004 C980 0.950 1_554 S
H1005 C981 0.949 . S
H1006 C983 0.950 . S
H1007 C985 0.950 . S
C1008 C1009 1.349 . S
C1008 C1010 1.327 . S
C1008 H1033 0.950 . S
C1009 C1008 1.349 . S
C1009 C1025 1.349 . S
C1010 C1008 1.327 . S
C1010 C1029 1.429 . S
C1010 H1034 0.950 . S
C1011 C1028 1.574 . S
C1011 C1030 1.368 . S
C1011 H1035 0.949 . S
H1012 C1016 0.949 . S
C1013 C1014 1.349 . S
C1013 C1015 1.327 . S
C1013 H1036 0.950 . S
C1014 C1013 1.349 . S
C1014 C1026 1.349 . S
C1015 C1013 1.327 . S
C1015 C1031 1.429 . S
C1015 H1037 0.950 . S
C1016 H1012 0.949 . S
C1016 C1024 1.574 . S
C1016 C1032 1.368 . S
H1017 C1025 0.950 . S
H1018 C1023 0.950 . S
H1019 C1024 0.949 . S
H1020 C1026 0.950 . S
H1021 C1027 0.950 . S
H1022 C1028 0.949 . S
C1023 H1018 0.950 . S
C1023 C1025 1.327 . S
C1023 C1029 1.429 . S
C1024 C1016 1.574 . S
C1024 H1019 0.949 . S
C1024 C1030 1.368 . S
C1025 C1009 1.349 . S
C1025 H1017 0.950 . S
C1025 C1023 1.327 . S
C1026 C1014 1.349 . S
C1026 H1020 0.950 . S
C1026 C1027 1.327 . S
C1027 H1021 0.950 . S
C1027 C1026 1.327 . S
C1027 C1031 1.429 . S
C1028 C1011 1.574 . S
C1028 H1022 0.949 . S
C1028 C1032 1.368 . S
C1029 C1010 1.429 . S
C1029 C1023 1.429 . S
C1029 C1030 1.523 . S
C1030 C1011 1.368 . S
C1030 C1024 1.368 . S
C1030 C1029 1.523 . S
C1031 C1015 1.429 . S
C1031 C1027 1.429 . S
C1031 C1032 1.523 . S
C1032 C1016 1.368 . S
C1032 C1028 1.368 . S
C1032 C1031 1.523 . S
H1033 C1008 0.950 . S
H1034 C1010 0.950 . S
H1035 C1011 0.949 . S
H1036 C1013 0.950 . S
H1037 C1015 0.950 . S
C1038 C1039 1.349 . S
C1038 C1040 1.327 . S
C1038 H1063 0.950 . S
C1039 C1038 1.349 . S
C1039 C1055 1.349 . S
C1040 C1038 1.327 . S
C1040 C1059 1.429 1_455 S
C1040 H1064 0.950 . S
C1041 C1058 1.574 . S
C1041 C1060 1.368 . S
C1041 H1065 0.949 . S
H1042 C1046 0.949 . S
C1043 C1044 1.349 . S
C1043 C1045 1.327 . S
C1043 H1066 0.950 . S
C1044 C1043 1.349 . S
C1044 C1056 1.349 . S
C1045 C1043 1.327 . S
C1045 C1061 1.429 . S
C1045 H1067 0.950 . S
C1046 H1042 0.949 . S
C1046 C1054 1.574 . S
C1046 C1062 1.368 . S
H1047 C1055 0.950 . S
H1048 C1053 0.923 1_655 S
H1049 C1054 0.949 . S
H1050 C1056 0.950 . S
H1051 C1057 0.950 . S
H1052 C1058 0.949 . S
C1053 H1048 0.923 1_455 S
C1053 C1055 1.327 . S
C1053 C1059 1.429 1_455 S
C1054 C1046 1.574 . S
C1054 H1049 0.949 . S
C1054 C1060 1.368 . S
C1055 C1039 1.349 . S
C1055 H1047 0.950 . S
C1055 C1053 1.327 . S
C1056 C1044 1.349 . S
C1056 H1050 0.950 . S
C1056 C1057 1.327 . S
C1057 H1051 0.950 . S
C1057 C1056 1.327 . S
C1057 C1061 1.429 . S
C1058 C1041 1.574 . S
C1058 H1052 0.949 . S
C1058 C1062 1.368 . S
C1059 C1040 1.429 1_655 S
C1059 C1053 1.429 1_655 S
C1059 C1060 1.523 . S
C1060 C1041 1.368 . S
C1060 C1054 1.368 . S
C1060 C1059 1.523 . S
C1061 C1045 1.429 . S
C1061 C1057 1.429 . S
C1061 C1062 1.523 . S
C1062 C1046 1.368 . S
C1062 C1058 1.368 . S
C1062 C1061 1.523 . S
H1063 C1038 0.950 . S
H1064 C1040 0.950 . S
H1065 C1041 0.949 . S
H1066 C1043 0.950 . S
H1067 C1045 0.950 . S
C1068 C1069 1.349 . S
C1068 C1070 1.327 . S
C1068 H1093 0.950 . S
C1069 C1068 1.349 . S
C1069 C1085 1.349 . S
C1070 C1068 1.327 . S
C1070 C1089 1.429 . S
C1070 H1094 0.950 . S
C1071 C1088 1.574 . S
C1071 C1090 1.368 . S
C1071 H1095 0.949 . S
H1072 C1076 0.949 . S
C1073 C1074 1.349 . S
C1073 C1075 1.327 . S
C1073 H1096 0.950 . S
C1074 C1073 1.349 . S
C1074 C1086 1.349 . S
C1075 C1073 1.327 . S
C1075 C1091 1.429 . S
C1075 H1097 0.950 . S
C1076 H1072 0.949 . S
C1076 C1084 1.574 . S
C1076 C1092 1.368 . S
H1077 C1085 0.950 . S
H1078 C1083 0.950 . S
H1079 C1084 0.949 . S
H1080 C1086 0.950 . S
H1081 C1087 0.950 . S
H1082 C1088 0.949 . S
C1083 H1078 0.950 . S
C1083 C1085 1.327 . S
C1083 C1089 1.429 . S
C1084 C1076 1.574 . S
C1084 H1079 0.949 . S
C1084 C1090 1.368 . S
C1085 C1069 1.349 . S
C1085 H1077 0.950 . S
C1085 C1083 1.327 . S
C1086 C1074 1.349 . S
C1086 H1080 0.950 . S
C1086 C1087 1.327 . S
C1087 H1081 0.950 . S
C1087 C1086 1.327 . S
C1087 C1091 1.429 . S
C1088 C1071 1.574 . S
C1088 H1082 0.949 . S
C1088 C1092 1.368 . S
C1089 C1070 1.429 . S
C1089 C1083 1.429 . S
C1089 C1090 1.523 . S
C1090 C1071 1.368 . S
C1090 C1084 1.368 . S
C1090 C1089 1.523 . S
C1091 C1075 1.429 . S
C1091 C1087 1.429 . S
C1091 C1092 1.523 . S
C1092 C1076 1.368 . S
C1092 C1088 1.368 . S
C1092 C1091 1.523 . S
H1093 C1068 0.950 . S
H1094 C1070 0.950 . S
H1095 C1071 0.949 . S
H1096 C1073 0.950 . S
H1097 C1075 0.950 . S
C1098 C1099 1.349 . S
C1098 C1100 1.327 . S
C1098 H1123 0.950 . S
C1099 C1098 1.349 . S
C1099 C1115 1.349 . S
C1100 C1098 1.327 . S
C1100 C1119 1.429 1_655 S
C1100 H1124 0.921 1_655 S
C1101 C1118 1.574 . S
C1101 C1120 1.368 . S
C1101 H1125 0.949 . S
H1102 C1106 0.949 . S
C1103 C1104 1.349 . S
C1103 C1105 1.327 . S
C1103 H1126 0.950 . S
C1104 C1103 1.349 . S
C1104 C1116 1.349 . S
C1105 C1103 1.327 . S
C1105 C1121 1.429 . S
C1105 H1127 0.950 . S
C1106 H1102 0.949 . S
C1106 C1114 1.574 . S
C1106 C1122 1.368 . S
H1107 C1115 0.950 . S
H1108 C1113 0.950 . S
H1109 C1114 0.949 . S
H1110 C1116 0.950 . S
H1111 C1117 0.950 . S
H1112 C1118 0.949 . S
C1113 H1108 0.950 . S
C1113 C1115 1.327 . S
C1113 C1119 1.429 1_655 S
C1114 C1106 1.574 . S
C1114 H1109 0.949 . S
C1114 C1120 1.368 . S
C1115 C1099 1.349 . S
C1115 H1107 0.950 . S
C1115 C1113 1.327 . S
C1116 C1104 1.349 . S
C1116 H1110 0.950 . S
C1116 C1117 1.327 . S
C1117 H1111 0.950 . S
C1117 C1116 1.327 . S
C1117 C1121 1.429 . S
C1118 C1101 1.574 . S
C1118 H1112 0.949 . S
C1118 C1122 1.368 . S
C1119 C1100 1.429 1_455 S
C1119 C1113 1.429 1_455 S
C1119 C1120 1.523 . S
C1120 C1101 1.368 . S
C1120 C1114 1.368 . S
C1120 C1119 1.523 . S
C1121 C1105 1.429 . S
C1121 C1117 1.429 . S
C1121 C1122 1.523 . S
C1122 C1106 1.368 . S
C1122 C1118 1.368 . S
C1122 C1121 1.523 . S
H1123 C1098 0.950 . S
H1124 C1100 0.921 1_455 S
H1125 C1101 0.949 . S
H1126 C1103 0.950 . S
H1127 C1105 0.950 . S
C1128 C1129 1.349 . S
C1128 C1130 1.327 . S
C1128 H1153 0.950 . S
C1129 C1128 1.349 . S
C1129 C1145 1.349 . S
C1130 C1128 1.327 . S
C1130 C1149 1.429 . S
C1130 H1154 0.950 . S
C1131 C1148 1.574 . S
C1131 C1150 1.368 . S
C1131 H1155 0.949 . S
H1132 C1136 0.949 . S
C1133 C1134 1.349 . S
C1133 C1135 1.327 . S
C1133 H1156 0.950 . S
C1134 C1133 1.349 . S
C1134 C1146 1.349 . S
C1135 C1133 1.327 . S
C1135 C1151 1.429 . S
C1135 H1157 0.950 . S
C1136 H1132 0.949 . S
C1136 C1144 1.574 . S
C1136 C1152 1.368 . S
H1137 C1145 0.950 . S
H1138 C1143 0.950 . S
H1139 C1144 0.949 . S
H1140 C1146 0.950 . S
H1141 C1147 0.950 . S
H1142 C1148 0.949 . S
C1143 H1138 0.950 . S
C1143 C1145 1.327 . S
C1143 C1149 1.429 . S
C1144 C1136 1.574 . S
C1144 H1139 0.949 . S
C1144 C1150 1.368 . S
C1145 C1129 1.349 . S
C1145 H1137 0.950 . S
C1145 C1143 1.327 . S
C1146 C1134 1.349 . S
C1146 H1140 0.950 . S
C1146 C1147 1.327 . S
C1147 H1141 0.950 . S
C1147 C1146 1.327 . S
C1147 C1151 1.429 . S
C1148 C1131 1.574 . S
C1148 H1142 0.949 . S
C1148 C1152 1.368 . S
C1149 C1130 1.429 . S
C1149 C1143 1.429 . S
C1149 C1150 1.523 . S
C1150 C1131 1.368 . S
C1150 C1144 1.368 . S
C1150 C1149 1.523 . S
C1151 C1135 1.429 . S
C1151 C1147 1.429 . S
C1151 C1152 1.523 . S
C1152 C1136 1.368 . S
C1152 C1148 1.368 . S
C1152 C1151 1.523 . S
H1153 C1128 0.950 . S
H1154 C1130 0.950 . S
H1155 C1131 0.949 . S
H1156 C1133 0.950 . S
H1157 C1135 0.950 . S
C1158 C1159 1.349 . S
C1158 C1160 1.327 . S
C1158 H1183 0.950 . S
C1159 C1158 1.349 . S
C1159 C1175 1.349 . S
C1160 C1158 1.327 . S
C1160 C1179 1.429 . S
C1160 H1184 0.950 . S
C1161 C1178 1.574 . S
C1161 C1180 1.368 . S
C1161 H1185 0.949 . S
H1162 C1166 0.949 . S
C1163 C1164 1.349 . S
C1163 C1165 1.327 . S
C1163 H1186 0.950 . S
C1164 C1163 1.349 . S
C1164 C1176 1.349 . S
C1165 C1163 1.327 . S
C1165 C1181 1.429 . S
C1165 H1187 0.950 . S
C1166 H1162 0.949 . S
C1166 C1174 1.574 . S
C1166 C1182 1.368 . S
H1167 C1175 0.950 . S
H1168 C1173 0.950 . S
H1169 C1174 0.949 . S
H1170 C1176 0.950 . S
H1171 C1177 0.950 . S
H1172 C1178 0.949 . S
C1173 H1168 0.950 . S
C1173 C1175 1.327 . S
C1173 C1179 1.429 . S
C1174 C1166 1.574 . S
C1174 H1169 0.949 . S
C1174 C1180 1.368 . S
C1175 C1159 1.349 . S
C1175 H1167 0.950 . S
C1175 C1173 1.327 . S
C1176 C1164 1.349 . S
C1176 H1170 0.950 . S
C1176 C1177 1.327 . S
C1177 H1171 0.950 . S
C1177 C1176 1.327 . S
C1177 C1181 1.429 . S
C1178 C1161 1.574 . S
C1178 H1172 0.949 . S
C1178 C1182 1.368 . S
C1179 C1160 1.429 . S
C1179 C1173 1.429 . S
C1179 C1180 1.523 . S
C1180 C1161 1.368 . S
C1180 C1174 1.368 . S
C1180 C1179 1.523 . S
C1181 C1165 1.429 . S
C1181 C1177 1.429 . S
C1181 C1182 1.523 . S
C1182 C1166 1.368 . S
C1182 C1178 1.368 . S
C1182 C1181 1.523 . S
H1183 C1158 0.950 . S
H1184 C1160 0.950 . S
H1185 C1161 0.949 . S
H1186 C1163 0.950 . S
H1187 C1165 0.950 . S
C1188 C1189 1.349 . S
C1188 C1190 1.327 . S
C1188 H1213 0.950 . S
C1189 C1188 1.349 . S
C1189 C1205 1.349 . S
C1190 C1188 1.327 . S
C1190 C1209 1.429 1_545 S
C1190 H1214 0.950 . S
C1191 C1208 1.574 . S
C1191 C1210 1.368 . S
C1191 H1215 0.949 . S
H1192 C1196 0.949 . S
C1193 C1194 1.349 . S
C1193 C1195 1.327 . S
C1193 H1216 0.950 . S
C1194 C1193 1.349 . S
C1194 C1206 1.349 . S
C1195 C1193 1.327 . S
C1195 C1211 1.429 . S
C1195 H1217 0.950 . S
C1196 H1192 0.949 . S
C1196 C1204 1.574 . S
C1196 C1212 1.368 . S
H1197 C1205 0.950 . S
H1198 C1203 0.950 1_565 S
H1199 C1204 0.949 . S
H1200 C1206 0.950 . S
H1201 C1207 0.950 . S
H1202 C1208 0.949 . S
C1203 H1198 0.950 1_545 S
C1203 C1205 1.327 . S
C1203 C1209 1.429 1_545 S
C1204 C1196 1.574 . S
C1204 H1199 0.949 . S
C1204 C1210 1.368 . S
C1205 C1189 1.349 . S
C1205 H1197 0.950 . S
C1205 C1203 1.327 . S
C1206 C1194 1.349 . S
C1206 H1200 0.950 . S
C1206 C1207 1.327 . S
C1207 H1201 0.950 . S
C1207 C1206 1.327 . S
C1207 C1211 1.429 . S
C1208 C1191 1.574 . S
C1208 H1202 0.949 . S
C1208 C1212 1.368 . S
C1209 C1190 1.429 1_565 S
C1209 C1203 1.429 1_565 S
C1209 C1210 1.523 . S
C1210 C1191 1.368 . S
C1210 C1204 1.368 . S
C1210 C1209 1.523 . S
C1211 C1195 1.429 . S
C1211 C1207 1.429 . S
C1211 C1212 1.523 . S
C1212 C1196 1.368 . S
C1212 C1208 1.368 . S
C1212 C1211 1.523 . S
H1213 C1188 0.950 . S
H1214 C1190 0.950 . S
H1215 C1191 0.949 . S
H1216 C1193 0.950 . S
H1217 C1195 0.950 . S
C1218 C1219 1.349 . S
C1218 C1220 1.327 . S
C1218 H1243 0.950 . S
C1219 C1218 1.349 . S
C1219 C1235 1.349 . S
C1220 C1218 1.327 . S
C1220 C1239 1.429 . S
C1220 H1244 0.950 . S
C1221 C1238 1.574 . S
C1221 C1240 1.368 . S
C1221 H1245 0.949 . S
H1222 C1226 0.949 . S
C1223 C1224 1.349 . S
C1223 C1225 1.327 . S
C1223 H1246 0.950 . S
C1224 C1223 1.349 . S
C1224 C1236 1.349 . S
C1225 C1223 1.327 . S
C1225 C1241 1.429 1_565 S
C1225 H1247 0.950 . S
C1226 H1222 0.949 . S
C1226 C1234 1.574 . S
C1226 C1242 1.368 . S
H1227 C1235 0.950 . S
H1228 C1233 0.950 . S
H1229 C1234 0.949 . S
H1230 C1236 0.950 . S
H1231 C1237 0.950 . S
H1232 C1238 0.949 . S
C1233 H1228 0.950 . S
C1233 C1235 1.327 . S
C1233 C1239 1.429 . S
C1234 C1226 1.574 . S
C1234 H1229 0.949 . S
C1234 C1240 1.368 . S
C1235 C1219 1.349 . S
C1235 H1227 0.950 . S
C1235 C1233 1.327 . S
C1236 C1224 1.349 . S
C1236 H1230 0.950 . S
C1236 C1237 1.327 . S
C1237 H1231 0.950 . S
C1237 C1236 1.327 . S
C1237 C1241 1.429 1_565 S
C1238 C1221 1.574 . S
C1238 H1232 0.949 . S
C1238 C1242 1.368 . S
C1239 C1220 1.429 . S
C1239 C1233 1.429 . S
C1239 C1240 1.523 . S
C1240 C1221 1.368 . S
C1240 C1234 1.368 . S
C1240 C1239 1.523 . S
C1241 C1225 1.429 1_545 S
C1241 C1237 1.429 1_545 S
C1241 C1242 1.523 . S
C1242 C1226 1.368 . S
C1242 C1238 1.368 . S
C1242 C1241 1.523 . S
H1243 C1218 0.950 . S
H1244 C1220 0.950 . S
H1245 C1221 0.949 . S
H1246 C1223 0.950 . S
H1247 C1225 0.950 . S
C1248 C1249 1.349 . S
C1248 C1250 1.327 . S
C1248 H1273 0.950 . S
C1249 C1248 1.349 . S
C1249 C1265 1.349 . S
C1250 C1248 1.327 . S
C1250 C1269 1.429 . S
C1250 H1274 0.950 . S
C1251 C1268 1.574 . S
C1251 C1270 1.368 . S
C1251 H1275 0.949 . S
H1252 C1256 0.949 . S
C1253 C1254 1.349 . S
C1253 C1255 1.327 . S
C1253 H1276 0.950 . S
C1254 C1253 1.349 . S
C1254 C1266 1.349 . S
C1255 C1253 1.327 . S
C1255 C1271 1.429 . S
C1255 H1277 0.950 . S
C1256 H1252 0.949 . S
C1256 C1264 1.574 . S
C1256 C1272 1.368 . S
H1257 C1265 0.950 . S
H1258 C1263 0.950 . S
H1259 C1264 0.949 . S
H1260 C1266 0.950 . S
H1261 C1267 0.950 . S
H1262 C1268 0.949 . S
C1263 H1258 0.950 . S
C1263 C1265 1.327 . S
C1263 C1269 1.429 . S
C1264 C1256 1.574 . S
C1264 H1259 0.949 . S
C1264 C1270 1.368 . S
C1265 C1249 1.349 . S
C1265 H1257 0.950 . S
C1265 C1263 1.327 . S
C1266 C1254 1.349 . S
C1266 H1260 0.950 . S
C1266 C1267 1.327 . S
C1267 H1261 0.950 . S
C1267 C1266 1.327 . S
C1267 C1271 1.429 . S
C1268 C1251 1.574 . S
C1268 H1262 0.949 . S
C1268 C1272 1.368 . S
C1269 C1250 1.429 . S
C1269 C1263 1.429 . S
C1269 C1270 1.523 . S
C1270 C1251 1.368 . S
C1270 C1264 1.368 . S
C1270 C1269 1.523 . S
C1271 C1255 1.429 . S
C1271 C1267 1.429 . S
C1271 C1272 1.523 . S
C1272 C1256 1.368 . S
C1272 C1268 1.368 . S
C1272 C1271 1.523 . S
H1273 C1248 0.950 . S
H1274 C1250 0.950 . S
H1275 C1251 0.949 . S
H1276 C1253 0.950 . S
H1277 C1255 0.950 . S
C1278 C1279 1.349 . S
C1278 C1280 1.327 . S
C1278 H1303 0.950 . S
C1279 C1278 1.349 . S
C1279 C1295 1.349 . S
C1280 C1278 1.327 . S
C1280 C1299 1.429 . S
C1280 H1304 0.950 . S
C1281 C1298 1.574 . S
C1281 C1300 1.368 . S
C1281 H1305 0.949 . S
H1282 C1286 0.949 . S
C1283 C1284 1.349 . S
C1283 C1285 1.327 . S
C1283 H1306 0.950 . S
C1284 C1283 1.349 . S
C1284 C1296 1.349 . S
C1285 C1283 1.327 . S
C1285 C1301 1.429 1_556 S
C1285 H1307 0.952 1_556 S
C1286 H1282 0.949 . S
C1286 C1294 1.574 . S
C1286 C1302 1.368 . S
H1287 C1295 0.950 . S
H1288 C1293 0.950 . S
H1289 C1294 0.949 . S
H1290 C1296 0.950 . S
H1291 C1297 0.950 . S
H1292 C1298 0.949 . S
C1293 H1288 0.950 . S
C1293 C1295 1.327 . S
C1293 C1299 1.429 . S
C1294 C1286 1.574 . S
C1294 H1289 0.949 . S
C1294 C1300 1.368 . S
C1295 C1279 1.349 . S
C1295 H1287 0.950 . S
C1295 C1293 1.327 . S
C1296 C1284 1.349 . S
C1296 H1290 0.950 . S
C1296 C1297 1.327 . S
C1297 H1291 0.950 . S
C1297 C1296 1.327 . S
C1297 C1301 1.429 1_556 S
C1298 C1281 1.574 . S
C1298 H1292 0.949 . S
C1298 C1302 1.368 . S
C1299 C1280 1.429 . S
C1299 C1293 1.429 . S
C1299 C1300 1.523 . S
C1300 C1281 1.368 . S
C1300 C1294 1.368 . S
C1300 C1299 1.523 . S
C1301 C1285 1.429 1_554 S
C1301 C1297 1.429 1_554 S
C1301 C1302 1.523 . S
C1302 C1286 1.368 . S
C1302 C1298 1.368 . S
C1302 C1301 1.523 . S
H1303 C1278 0.950 . S
H1304 C1280 0.950 . S
H1305 C1281 0.949 . S
H1306 C1283 0.950 . S
H1307 C1285 0.952 1_554 S
C1308 C1309 1.349 . S
C1308 C1310 1.327 . S
C1308 H1333 0.950 . S
C1309 C1308 1.349 . S
C1309 C1325 1.349 . S
C1310 C1308 1.327 . S
C1310 C1329 1.429 . S
C1310 H1334 0.950 . S
C1311 C1328 1.574 . S
C1311 C1330 1.368 . S
C1311 H1335 0.949 . S
H1312 C1316 0.949 . S
C1313 C1314 1.349 . S
C1313 C1315 1.327 . S
C1313 H1336 0.950 . S
C1314 C1313 1.349 . S
C1314 C1326 1.349 . S
C1315 C1313 1.327 . S
C1315 C1331 1.429 . S
C1315 H1337 0.950 . S
C1316 H1312 0.949 . S
C1316 C1324 1.574 . S
C1316 C1332 1.368 . S
H1317 C1325 0.950 . S
H1318 C1323 0.950 . S
H1319 C1324 0.949 . S
H1320 C1326 0.950 . S
H1321 C1327 0.950 . S
H1322 C1328 0.949 . S
C1323 H1318 0.950 . S
C1323 C1325 1.327 . S
C1323 C1329 1.429 . S
C1324 C1316 1.574 . S
C1324 H1319 0.949 . S
C1324 C1330 1.368 . S
C1325 C1309 1.349 . S
C1325 H1317 0.950 . S
C1325 C1323 1.327 . S
C1326 C1314 1.349 . S
C1326 H1320 0.950 . S
C1326 C1327 1.327 . S
C1327 H1321 0.950 . S
C1327 C1326 1.327 . S
C1327 C1331 1.429 . S
C1328 C1311 1.574 . S
C1328 H1322 0.949 . S
C1328 C1332 1.368 . S
C1329 C1310 1.429 . S
C1329 C1323 1.429 . S
C1329 C1330 1.523 . S
C1330 C1311 1.368 . S
C1330 C1324 1.368 . S
C1330 C1329 1.523 . S
C1331 C1315 1.429 . S
C1331 C1327 1.429 . S
C1331 C1332 1.523 . S
C1332 C1316 1.368 . S
C1332 C1328 1.368 . S
C1332 C1331 1.523 . S
H1333 C1308 0.950 . S
H1334 C1310 0.950 . S
H1335 C1311 0.949 . S
H1336 C1313 0.950 . S
H1337 C1315 0.950 . S
C1338 C1339 1.349 . S
C1338 C1340 1.327 . S
C1338 H1363 0.950 . S
C1339 C1338 1.349 . S
C1339 C1355 1.349 . S
C1340 C1338 1.327 . S
C1340 C1359 1.429 1_554 S
C1340 H1364 0.970 . S
C1341 C1358 1.574 . S
C1341 C1360 1.368 . S
C1341 H1365 0.949 . S
H1342 C1346 0.949 . S
C1343 C1344 1.349 . S
C1343 C1345 1.327 . S
C1343 H1366 0.950 . S
C1344 C1343 1.349 . S
C1344 C1356 1.349 . S
C1345 C1343 1.327 . S
C1345 C1361 1.429 . S
C1345 H1367 0.950 . S
C1346 H1342 0.949 . S
C1346 C1354 1.574 . S
C1346 C1362 1.368 . S
H1347 C1355 0.950 . S
H1348 C1353 0.950 . S
H1349 C1354 0.949 . S
H1350 C1356 0.950 . S
H1351 C1357 0.950 . S
H1352 C1358 0.949 . S
C1353 H1348 0.950 . S
C1353 C1355 1.327 . S
C1353 C1359 1.429 1_554 S
C1354 C1346 1.574 . S
C1354 H1349 0.949 . S
C1354 C1360 1.368 . S
C1355 C1339 1.349 . S
C1355 H1347 0.950 . S
C1355 C1353 1.327 . S
C1356 C1344 1.349 . S
C1356 H1350 0.950 . S
C1356 C1357 1.327 . S
C1357 H1351 0.950 . S
C1357 C1356 1.327 . S
C1357 C1361 1.429 . S
C1358 C1341 1.574 . S
C1358 H1352 0.949 . S
C1358 C1362 1.368 . S
C1359 C1340 1.429 1_556 S
C1359 C1353 1.429 1_556 S
C1359 C1360 1.523 . S
C1360 C1341 1.368 . S
C1360 C1354 1.368 . S
C1360 C1359 1.523 . S
C1361 C1345 1.429 . S
C1361 C1357 1.429 . S
C1361 C1362 1.523 . S
C1362 C1346 1.368 . S
C1362 C1358 1.368 . S
C1362 C1361 1.523 . S
H1363 C1338 0.950 . S
H1364 C1340 0.970 . S
H1365 C1341 0.949 . S
H1366 C1343 0.950 . S
H1367 C1345 0.950 . S
C1368 C1369 1.349 . S
C1368 C1370 1.327 . S
C1368 H1393 0.950 . S
C1369 C1368 1.349 . S
C1369 C1385 1.349 . S
C1370 C1368 1.327 . S
C1370 C1389 1.429 . S
C1370 H1394 0.950 . S
C1371 C1388 1.574 . S
C1371 C1390 1.368 . S
C1371 H1395 0.949 . S
H1372 C1376 0.949 . S
C1373 C1374 1.349 . S
C1373 C1375 1.327 . S
C1373 H1396 0.950 . S
C1374 C1373 1.349 . S
C1374 C1386 1.349 . S
C1375 C1373 1.327 . S
C1375 C1391 1.429 . S
C1375 H1397 0.950 . S
C1376 H1372 0.949 . S
C1376 C1384 1.574 . S
C1376 C1392 1.368 . S
H1377 C1385 0.950 . S
H1378 C1383 0.950 . S
H1379 C1384 0.949 . S
H1380 C1386 0.950 . S
H1381 C1387 0.950 . S
H1382 C1388 0.949 . S
C1383 H1378 0.950 . S
C1383 C1385 1.327 . S
C1383 C1389 1.429 . S
C1384 C1376 1.574 . S
C1384 H1379 0.949 . S
C1384 C1390 1.368 . S
C1385 C1369 1.349 . S
C1385 H1377 0.950 . S
C1385 C1383 1.327 . S
C1386 C1374 1.349 . S
C1386 H1380 0.950 . S
C1386 C1387 1.327 . S
C1387 H1381 0.950 . S
C1387 C1386 1.327 . S
C1387 C1391 1.429 . S
C1388 C1371 1.574 . S
C1388 H1382 0.949 . S
C1388 C1392 1.368 . S
C1389 C1370 1.429 . S
C1389 C1383 1.429 . S
C1389 C1390 1.523 . S
C1390 C1371 1.368 . S
C1390 C1384 1.368 . S
C1390 C1389 1.523 . S
C1391 C1375 1.429 . S
C1391 C1387 1.429 . S
C1391 C1392 1.523 . S
C1392 C1376 1.368 . S
C1392 C1388 1.368 . S
C1392 C1391 1.523 . S
H1393 C1368 0.950 . S
H1394 C1370 0.950 . S
H1395 C1371 0.949 . S
H1396 C1373 0.950 . S
H1397 C1375 0.950 . S
C1398 C1399 1.349 . S
C1398 C1400 1.327 . S
C1398 H1423 0.950 . S
C1399 C1398 1.349 . S
C1399 C1415 1.349 . S
C1400 C1398 1.327 . S
C1400 C1419 1.429 1_655 S
C1400 H1424 0.950 . S
C1401 C1418 1.574 . S
C1401 C1420 1.368 . S
C1401 H1425 0.949 . S
H1402 C1406 0.949 . S
C1403 C1404 1.349 . S
C1403 C1405 1.327 . S
C1403 H1426 0.950 . S
C1404 C1403 1.349 . S
C1404 C1416 1.349 . S
C1405 C1403 1.327 . S
C1405 C1421 1.429 . S
C1405 H1427 0.950 . S
C1406 H1402 0.949 . S
C1406 C1414 1.574 . S
C1406 C1422 1.368 . S
H1407 C1415 0.950 . S
H1408 C1413 0.950 . S
H1409 C1414 0.949 . S
H1410 C1416 0.950 . S
H1411 C1417 0.950 . S
H1412 C1418 0.949 . S
C1413 H1408 0.950 . S
C1413 C1415 1.327 . S
C1413 C1419 1.429 1_655 S
C1414 C1406 1.574 . S
C1414 H1409 0.949 . S
C1414 C1420 1.368 . S
C1415 C1399 1.349 . S
C1415 H1407 0.950 . S
C1415 C1413 1.327 . S
C1416 C1404 1.349 . S
C1416 H1410 0.950 . S
C1416 C1417 1.327 . S
C1417 H1411 0.950 . S
C1417 C1416 1.327 . S
C1417 C1421 1.429 . S
C1418 C1401 1.574 . S
C1418 H1412 0.949 . S
C1418 C1422 1.368 . S
C1419 C1400 1.429 1_455 S
C1419 C1413 1.429 1_455 S
C1419 C1420 1.523 . S
C1420 C1401 1.368 . S
C1420 C1414 1.368 . S
C1420 C1419 1.523 . S
C1421 C1405 1.429 . S
C1421 C1417 1.429 . S
C1421 C1422 1.523 . S
C1422 C1406 1.368 . S
C1422 C1418 1.368 . S
C1422 C1421 1.523 . S
H1423 C1398 0.950 . S
H1424 C1400 0.950 . S
H1425 C1401 0.949 . S
H1426 C1403 0.950 . S
H1427 C1405 0.950 . S
C1428 C1429 1.349 . S
C1428 C1430 1.327 . S
C1428 H1453 0.950 . S
C1429 C1428 1.349 . S
C1429 C1445 1.349 . S
C1430 C1428 1.327 . S
C1430 C1449 1.429 . S
C1430 H1454 0.950 . S
C1431 C1448 1.574 . S
C1431 C1450 1.368 . S
C1431 H1455 0.949 . S
H1432 C1436 0.949 . S
C1433 C1434 1.349 . S
C1433 C1435 1.327 . S
C1433 H1456 0.950 . S
C1434 C1433 1.349 . S
C1434 C1446 1.349 . S
C1435 C1433 1.327 . S
C1435 C1451 1.429 . S
C1435 H1457 0.950 . S
C1436 H1432 0.949 . S
C1436 C1444 1.574 . S
C1436 C1452 1.368 . S
H1437 C1445 0.950 . S
H1438 C1443 0.950 . S
H1439 C1444 0.949 . S
H1440 C1446 0.950 . S
H1441 C1447 0.950 . S
H1442 C1448 0.949 . S
C1443 H1438 0.950 . S
C1443 C1445 1.327 . S
C1443 C1449 1.429 . S
C1444 C1436 1.574 . S
C1444 H1439 0.949 . S
C1444 C1450 1.368 . S
C1445 C1429 1.349 . S
C1445 H1437 0.950 . S
C1445 C1443 1.327 . S
C1446 C1434 1.349 . S
C1446 H1440 0.950 . S
C1446 C1447 1.327 . S
C1447 H1441 0.950 . S
C1447 C1446 1.327 . S
C1447 C1451 1.429 . S
C1448 C1431 1.574 . S
C1448 H1442 0.949 . S
C1448 C1452 1.368 . S
C1449 C1430 1.429 . S
C1449 C1443 1.429 . S
C1449 C1450 1.523 . S
C1450 C1431 1.368 . S
C1450 C1444 1.368 . S
C1450 C1449 1.523 . S
C1451 C1435 1.429 . S
C1451 C1447 1.429 . S
C1451 C1452 1.523 . S
C1452 C1436 1.368 . S
C1452 C1448 1.368 . S
C1452 C1451 1.523 . S
H1453 C1428 0.950 . S
H1454 C1430 0.950 . S
H1455 C1431 0.949 . S
H1456 C1433 0.950 . S
H1457 C1435 0.950 . S
C1458 C1459 1.349 . S
C1458 C1460 1.327 . S
C1458 H1483 0.950 . S
C1459 C1458 1.349 . S
C1459 C1475 1.349 . S
C1460 C1458 1.327 . S
C1460 C1479 1.429 . S
C1460 H1484 0.950 . S
C1461 C1478 1.574 . S
C1461 C1480 1.368 . S
C1461 H1485 0.949 . S
H1462 C1466 0.949 . S
C1463 C1464 1.349 . S
C1463 C1465 1.327 . S
C1463 H1486 0.950 . S
C1464 C1463 1.349 . S
C1464 C1476 1.349 . S
C1465 C1463 1.327 . S
C1465 C1481 1.429 1_455 S
C1465 H1487 0.950 1_455 S
C1466 H1462 0.949 . S
C1466 C1474 1.574 . S
C1466 C1482 1.368 . S
H1467 C1475 0.950 . S
H1468 C1473 0.950 . S
H1469 C1474 0.949 . S
H1470 C1476 0.950 . S
H1471 C1477 0.950 . S
H1472 C1478 0.949 . S
C1473 H1468 0.950 . S
C1473 C1475 1.327 . S
C1473 C1479 1.429 . S
C1474 C1466 1.574 . S
C1474 H1469 0.949 . S
C1474 C1480 1.368 . S
C1475 C1459 1.349 . S
C1475 H1467 0.950 . S
C1475 C1473 1.327 . S
C1476 C1464 1.349 . S
C1476 H1470 0.950 . S
C1476 C1477 1.327 . S
C1477 H1471 0.950 . S
C1477 C1476 1.327 . S
C1477 C1481 1.429 1_455 S
C1478 C1461 1.574 . S
C1478 H1472 0.949 . S
C1478 C1482 1.368 . S
C1479 C1460 1.429 . S
C1479 C1473 1.429 . S
C1479 C1480 1.523 . S
C1480 C1461 1.368 . S
C1480 C1474 1.368 . S
C1480 C1479 1.523 . S
C1481 C1465 1.429 1_655 S
C1481 C1477 1.429 1_655 S
C1481 C1482 1.523 . S
C1482 C1466 1.368 . S
C1482 C1478 1.368 . S
C1482 C1481 1.523 . S
H1483 C1458 0.950 . S
H1484 C1460 0.950 . S
H1485 C1461 0.949 . S
H1486 C1463 0.950 . S
H1487 C1465 0.950 1_655 S
C1488 C1489 1.349 . S
C1488 C1490 1.327 . S
C1488 H1513 0.950 . S
C1489 C1488 1.349 . S
C1489 C1505 1.349 . S
C1490 C1488 1.327 . S
C1490 C1509 1.429 . S
C1490 H1514 0.950 . S
C1491 C1508 1.574 . S
C1491 C1510 1.368 . S
C1491 H1515 0.949 . S
H1492 C1496 0.949 . S
C1493 C1494 1.349 . S
C1493 C1495 1.327 . S
C1493 H1516 0.950 . S
C1494 C1493 1.349 . S
C1494 C1506 1.349 . S
C1495 C1493 1.327 . S
C1495 C1511 1.429 . S
C1495 H1517 0.950 . S
C1496 H1492 0.949 . S
C1496 C1504 1.574 . S
C1496 C1512 1.368 . S
H1497 C1505 0.950 . S
H1498 C1503 0.950 . S
H1499 C1504 0.949 . S
H1500 C1506 0.950 . S
H1501 C1507 0.950 . S
H1502 C1508 0.949 . S
C1503 H1498 0.950 . S
C1503 C1505 1.327 . S
C1503 C1509 1.429 . S
C1504 C1496 1.574 . S
C1504 H1499 0.949 . S
C1504 C1510 1.368 . S
C1505 C1489 1.349 . S
C1505 H1497 0.950 . S
C1505 C1503 1.327 . S
C1506 C1494 1.349 . S
C1506 H1500 0.950 . S
C1506 C1507 1.327 . S
C1507 H1501 0.950 . S
C1507 C1506 1.327 . S
C1507 C1511 1.429 . S
C1508 C1491 1.574 . S
C1508 H1502 0.949 . S
C1508 C1512 1.368 . S
C1509 C1490 1.429 . S
C1509 C1503 1.429 . S
C1509 C1510 1.523 . S
C1510 C1491 1.368 . S
C1510 C1504 1.368 . S
C1510 C1509 1.523 . S
C1511 C1495 1.429 . S
C1511 C1507 1.429 . S
C1511 C1512 1.523 . S
C1512 C1496 1.368 . S
C1512 C1508 1.368 . S
C1512 C1511 1.523 . S
H1513 C1488 0.950 . S
H1514 C1490 0.950 . S
H1515 C1491 0.949 . S
H1516 C1493 0.950 . S
H1517 C1495 0.950 . S
C1518 C1519 1.349 . S
C1518 C1520 1.327 . S
C1518 H1543 0.950 . S
C1519 C1518 1.349 . S
C1519 C1535 1.349 . S
C1520 C1518 1.327 . S
C1520 C1539 1.429 . S
C1520 H1544 0.950 . S
C1521 C1538 1.574 . S
C1521 C1540 1.368 . S
C1521 H1545 0.949 . S
H1522 C1526 0.949 . S
C1523 C1524 1.349 . S
C1523 C1525 1.327 . S
C1523 H1546 0.950 . S
C1524 C1523 1.349 . S
C1524 C1536 1.349 . S
C1525 C1523 1.327 . S
C1525 C1541 1.429 . S
C1525 H1547 0.950 . S
C1526 H1522 0.949 . S
C1526 C1534 1.574 . S
C1526 C1542 1.368 . S
H1527 C1535 0.950 . S
H1528 C1533 0.950 . S
H1529 C1534 0.949 . S
H1530 C1536 0.950 . S
H1531 C1537 0.950 . S
H1532 C1538 0.949 . S
C1533 H1528 0.950 . S
C1533 C1535 1.327 . S
C1533 C1539 1.429 . S
C1534 C1526 1.574 . S
C1534 H1529 0.949 . S
C1534 C1540 1.368 . S
C1535 C1519 1.349 . S
C1535 H1527 0.950 . S
C1535 C1533 1.327 . S
C1536 C1524 1.349 . S
C1536 H1530 0.950 . S
C1536 C1537 1.327 . S
C1537 H1531 0.950 . S
C1537 C1536 1.327 . S
C1537 C1541 1.429 . S
C1538 C1521 1.574 . S
C1538 H1532 0.949 . S
C1538 C1542 1.368 . S
C1539 C1520 1.429 . S
C1539 C1533 1.429 . S
C1539 C1540 1.523 . S
C1540 C1521 1.368 . S
C1540 C1534 1.368 . S
C1540 C1539 1.523 . S
C1541 C1525 1.429 . S
C1541 C1537 1.429 . S
C1541 C1542 1.523 . S
C1542 C1526 1.368 . S
C1542 C1538 1.368 . S
C1542 C1541 1.523 . S
H1543 C1518 0.950 . S
H1544 C1520 0.950 . S
H1545 C1521 0.949 . S
H1546 C1523 0.950 . S
H1547 C1525 0.950 . S
C1548 C1549 1.349 . S
C1548 C1550 1.327 . S
C1548 H1573 0.950 . S
C1549 C1548 1.349 . S
C1549 C1565 1.349 . S
C1550 C1548 1.327 . S
C1550 C1569 1.429 . S
C1550 H1574 0.950 . S
C1551 C1568 1.574 . S
C1551 C1570 1.368 . S
C1551 H1575 0.949 . S
H1552 C1556 0.949 . S
C1553 C1554 1.349 . S
C1553 C1555 1.327 . S
C1553 H1576 0.950 . S
C1554 C1553 1.349 . S
C1554 C1566 1.349 . S
C1555 C1553 1.327 . S
C1555 C1571 1.429 . S
C1555 H1577 0.950 . S
C1556 H1552 0.949 . S
C1556 C1564 1.574 . S
C1556 C1572 1.368 . S
H1557 C1565 0.950 . S
H1558 C1563 0.950 . S
H1559 C1564 0.949 . S
H1560 C1566 0.950 . S
H1561 C1567 0.950 . S
H1562 C1568 0.949 . S
C1563 H1558 0.950 . S
C1563 C1565 1.327 . S
C1563 C1569 1.429 . S
C1564 C1556 1.574 . S
C1564 H1559 0.949 . S
C1564 C1570 1.368 . S
C1565 C1549 1.349 . S
C1565 H1557 0.950 . S
C1565 C1563 1.327 . S
C1566 C1554 1.349 . S
C1566 H1560 0.950 . S
C1566 C1567 1.327 . S
C1567 H1561 0.950 . S
C1567 C1566 1.327 . S
C1567 C1571 1.429 . S
C1568 C1551 1.574 . S
C1568 H1562 0.949 . S
C1568 C1572 1.368 . S
C1569 C1550 1.429 . S
C1569 C1563 1.429 . S
C1569 C1570 1.523 . S
C1570 C1551 1.368 . S
C1570 C1564 1.368 . S
C1570 C1569 1.523 . S
C1571 C1555 1.429 . S
C1571 C1567 1.429 . S
C1571 C1572 1.523 . S
C1572 C1556 1.368 . S
C1572 C1568 1.368 . S
C1572 C1571 1.523 . S
H1573 C1548 0.950 . S
H1574 C1550 0.950 . S
H1575 C1551 0.949 . S
H1576 C1553 0.950 . S
H1577 C1555 0.950 . S
C1578 C1579 1.349 . S
C1578 C1580 1.327 . S
C1578 H1603 0.950 . S
C1579 C1578 1.349 . S
C1579 C1595 1.349 . S
C1580 C1578 1.327 . S
C1580 C1599 1.429 . S
C1580 H1604 0.950 . S
C1581 C1598 1.574 . S
C1581 C1600 1.368 . S
C1581 H1605 0.949 . S
H1582 C1586 0.949 . S
C1583 C1584 1.349 . S
C1583 C1585 1.327 . S
C1583 H1606 0.950 . S
C1584 C1583 1.349 . S
C1584 C1596 1.349 . S
C1585 C1583 1.327 . S
C1585 C1601 1.429 . S
C1585 H1607 0.950 . S
C1586 H1582 0.949 . S
C1586 C1594 1.574 . S
C1586 C1602 1.368 . S
H1587 C1595 0.950 . S
H1588 C1593 0.950 . S
H1589 C1594 0.949 . S
H1590 C1596 0.950 . S
H1591 C1597 0.950 . S
H1592 C1598 0.949 . S
C1593 H1588 0.950 . S
C1593 C1595 1.327 . S
C1593 C1599 1.429 . S
C1594 C1586 1.574 . S
C1594 H1589 0.949 . S
C1594 C1600 1.368 . S
C1595 C1579 1.349 . S
C1595 H1587 0.950 . S
C1595 C1593 1.327 . S
C1596 C1584 1.349 . S
C1596 H1590 0.950 . S
C1596 C1597 1.327 . S
C1597 H1591 0.950 . S
C1597 C1596 1.327 . S
C1597 C1601 1.429 . S
C1598 C1581 1.574 . S
C1598 H1592 0.949 . S
C1598 C1602 1.368 . S
C1599 C1580 1.429 . S
C1599 C1593 1.429 . S
C1599 C1600 1.523 . S
C1600 C1581 1.368 . S
C1600 C1594 1.368 . S
C1600 C1599 1.523 . S
C1601 C1585 1.429 . S
C1601 C1597 1.429 . S
C1601 C1602 1.523 . S
C1602 C1586 1.368 . S
C1602 C1598 1.368 . S
C1602 C1601 1.523 . S
H1603 C1578 0.950 . S
H1604 C1580 0.950 . S
H1605 C1581 0.949 . S
H1606 C1583 0.950 . S
H1607 C1585 0.950 . S
C1608 C1609 1.349 . S
C1608 C1610 1.327 . S
C1608 H1633 0.950 . S
C1609 C1608 1.349 . S
C1609 C1625 1.349 . S
C1610 C1608 1.327 . S
C1610 C1629 1.429 . S
C1610 H1634 0.950 . S
C1611 C1628 1.574 . S
C1611 C1630 1.368 . S
C1611 H1635 0.949 . S
H1612 C1616 0.949 . S
C1613 C1614 1.349 . S
C1613 C1615 1.327 . S
C1613 H1636 0.950 . S
C1614 C1613 1.349 . S
C1614 C1626 1.349 . S
C1615 C1613 1.327 . S
C1615 C1631 1.429 . S
C1615 H1637 0.950 . S
C1616 H1612 0.949 . S
C1616 C1624 1.574 . S
C1616 C1632 1.368 . S
H1617 C1625 0.950 . S
H1618 C1623 0.950 . S
H1619 C1624 0.949 . S
H1620 C1626 0.950 . S
H1621 C1627 0.950 . S
H1622 C1628 0.949 . S
C1623 H1618 0.950 . S
C1623 C1625 1.327 . S
C1623 C1629 1.429 . S
C1624 C1616 1.574 . S
C1624 H1619 0.949 . S
C1624 C1630 1.368 . S
C1625 C1609 1.349 . S
C1625 H1617 0.950 . S
C1625 C1623 1.327 . S
C1626 C1614 1.349 . S
C1626 H1620 0.950 . S
C1626 C1627 1.327 . S
C1627 H1621 0.950 . S
C1627 C1626 1.327 . S
C1627 C1631 1.429 . S
C1628 C1611 1.574 . S
C1628 H1622 0.949 . S
C1628 C1632 1.368 . S
C1629 C1610 1.429 . S
C1629 C1623 1.429 . S
C1629 C1630 1.523 . S
C1630 C1611 1.368 . S
C1630 C1624 1.368 . S
C1630 C1629 1.523 . S
C1631 C1615 1.429 . S
C1631 C1627 1.429 . S
C1631 C1632 1.523 . S
C1632 C1616 1.368 . S
C1632 C1628 1.368 . S
C1632 C1631 1.523 . S
H1633 C1608 0.950 . S
H1634 C1610 0.950 . S
H1635 C1611 0.949 . S
H1636 C1613 0.950 . S
H1637 C1615 0.950 . S
C1638 C1639 1.349 . S
C1638 C1640 1.327 . S
C1638 H1663 0.950 . S
C1639 C1638 1.349 . S
C1639 C1655 1.349 . S
C1640 C1638 1.327 . S
C1640 C1659 1.429 . S
C1640 H1664 0.950 . S
C1641 C1658 1.574 . S
C1641 C1660 1.368 . S
C1641 H1665 0.949 . S
H1642 C1646 0.949 . S
C1643 C1644 1.349 . S
C1643 C1645 1.327 . S
C1643 H1666 0.950 . S
C1644 C1643 1.349 . S
C1644 C1656 1.349 . S
C1645 C1643 1.327 . S
C1645 C1661 1.429 . S
C1645 H1667 0.950 . S
C1646 H1642 0.949 . S
C1646 C1654 1.574 . S
C1646 C1662 1.368 . S
H1647 C1655 0.950 . S
H1648 C1653 0.950 . S
H1649 C1654 0.949 . S
H1650 C1656 0.950 . S
H1651 C1657 0.950 . S
H1652 C1658 0.949 . S
C1653 H1648 0.950 . S
C1653 C1655 1.327 . S
C1653 C1659 1.429 . S
C1654 C1646 1.574 . S
C1654 H1649 0.949 . S
C1654 C1660 1.368 . S
C1655 C1639 1.349 . S
C1655 H1647 0.950 . S
C1655 C1653 1.327 . S
C1656 C1644 1.349 . S
C1656 H1650 0.950 . S
C1656 C1657 1.327 . S
C1657 H1651 0.950 . S
C1657 C1656 1.327 . S
C1657 C1661 1.429 . S
C1658 C1641 1.574 . S
C1658 H1652 0.949 . S
C1658 C1662 1.368 . S
C1659 C1640 1.429 . S
C1659 C1653 1.429 . S
C1659 C1660 1.523 . S
C1660 C1641 1.368 . S
C1660 C1654 1.368 . S
C1660 C1659 1.523 . S
C1661 C1645 1.429 . S
C1661 C1657 1.429 . S
C1661 C1662 1.523 . S
C1662 C1646 1.368 . S
C1662 C1658 1.368 . S
C1662 C1661 1.523 . S
H1663 C1638 0.950 . S
H1664 C1640 0.950 . S
H1665 C1641 0.949 . S
H1666 C1643 0.950 . S
H1667 C1645 0.950 . S
C1668 C1669 1.349 . S
C1668 C1670 1.327 . S
C1668 H1693 0.950 . S
C1669 C1668 1.349 . S
C1669 C1685 1.349 . S
C1670 C1668 1.327 . S
C1670 C1689 1.429 . S
C1670 H1694 0.950 . S
C1671 C1688 1.574 . S
C1671 C1690 1.368 . S
C1671 H1695 0.949 . S
H1672 C1676 0.949 . S
C1673 C1674 1.349 . S
C1673 C1675 1.327 . S
C1673 H1696 0.950 . S
C1674 C1673 1.349 . S
C1674 C1686 1.349 . S
C1675 C1673 1.327 . S
C1675 C1691 1.429 . S
C1675 H1697 0.950 . S
C1676 H1672 0.949 . S
C1676 C1684 1.574 . S
C1676 C1692 1.368 . S
H1677 C1685 0.950 . S
H1678 C1683 0.950 . S
H1679 C1684 0.949 . S
H1680 C1686 0.950 . S
H1681 C1687 0.950 . S
H1682 C1688 0.949 . S
C1683 H1678 0.950 . S
C1683 C1685 1.327 . S
C1683 C1689 1.429 . S
C1684 C1676 1.574 . S
C1684 H1679 0.949 . S
C1684 C1690 1.368 . S
C1685 C1669 1.349 . S
C1685 H1677 0.950 . S
C1685 C1683 1.327 . S
C1686 C1674 1.349 . S
C1686 H1680 0.950 . S
C1686 C1687 1.327 . S
C1687 H1681 0.950 . S
C1687 C1686 1.327 . S
C1687 C1691 1.429 . S
C1688 C1671 1.574 . S
C1688 H1682 0.949 . S
C1688 C1692 1.368 . S
C1689 C1670 1.429 . S
C1689 C1683 1.429 . S
C1689 C1690 1.523 . S
C1690 C1671 1.368 . S
C1690 C1684 1.368 . S
C1690 C1689 1.523 . S
C1691 C1675 1.429 . S
C1691 C1687 1.429 . S
C1691 C1692 1.523 . S
C1692 C1676 1.368 . S
C1692 C1688 1.368 . S
C1692 C1691 1.523 . S
H1693 C1668 0.950 . S
H1694 C1670 0.950 . S
H1695 C1671 0.949 . S
H1696 C1673 0.950 . S
H1697 C1675 0.950 . S
C1698 C1699 1.349 . S
C1698 C1700 1.327 . S
C1698 H1723 0.950 . S
C1699 C1698 1.349 . S
C1699 C1715 1.349 . S
C1700 C1698 1.327 . S
C1700 C1719 1.429 . S
C1700 H1724 0.950 . S
C1701 C1718 1.574 . S
C1701 C1720 1.368 . S
C1701 H1725 0.949 . S
H1702 C1706 0.949 . S
C1703 C1704 1.349 . S
C1703 C1705 1.327 . S
C1703 H1726 0.950 . S
C1704 C1703 1.349 . S
C1704 C1716 1.349 . S
C1705 C1703 1.327 . S
C1705 C1721 1.429 . S
C1705 H1727 0.950 . S
C1706 H1702 0.949 . S
C1706 C1714 1.574 . S
C1706 C1722 1.368 . S
H1707 C1715 0.950 . S
H1708 C1713 0.950 . S
H1709 C1714 0.949 . S
H1710 C1716 0.950 . S
H1711 C1717 0.950 . S
H1712 C1718 0.949 . S
C1713 H1708 0.950 . S
C1713 C1715 1.327 . S
C1713 C1719 1.429 . S
C1714 C1706 1.574 . S
C1714 H1709 0.949 . S
C1714 C1720 1.368 . S
C1715 C1699 1.349 . S
C1715 H1707 0.950 . S
C1715 C1713 1.327 . S
C1716 C1704 1.349 . S
C1716 H1710 0.950 . S
C1716 C1717 1.327 . S
C1717 H1711 0.950 . S
C1717 C1716 1.327 . S
C1717 C1721 1.429 . S
C1718 C1701 1.574 . S
C1718 H1712 0.949 . S
C1718 C1722 1.368 . S
C1719 C1700 1.429 . S
C1719 C1713 1.429 . S
C1719 C1720 1.523 . S
C1720 C1701 1.368 . S
C1720 C1714 1.368 . S
C1720 C1719 1.523 . S
C1721 C1705 1.429 . S
C1721 C1717 1.429 . S
C1721 C1722 1.523 . S
C1722 C1706 1.368 . S
C1722 C1718 1.368 . S
C1722 C1721 1.523 . S
H1723 C1698 0.950 . S
H1724 C1700 0.950 . S
H1725 C1701 0.949 . S
H1726 C1703 0.950 . S
H1727 C1705 0.950 . S
C1728 C1729 1.349 . S
C1728 C1730 1.327 . S
C1728 H1753 0.950 . S
C1729 C1728 1.349 . S
C1729 C1745 1.349 . S
C1730 C1728 1.327 . S
C1730 C1749 1.429 . S
C1730 H1754 0.950 . S
C1731 C1748 1.574 . S
C1731 C1750 1.368 . S
C1731 H1755 0.949 . S
H1732 C1736 0.949 . S
C1733 C1734 1.349 . S
C1733 C1735 1.327 . S
C1733 H1756 0.950 . S
C1734 C1733 1.349 . S
C1734 C1746 1.349 . S
C1735 C1733 1.327 . S
C1735 C1751 1.429 . S
C1735 H1757 0.950 . S
C1736 H1732 0.949 . S
C1736 C1744 1.574 . S
C1736 C1752 1.368 . S
H1737 C1745 0.950 . S
H1738 C1743 0.950 . S
H1739 C1744 0.949 . S
H1740 C1746 0.950 . S
H1741 C1747 0.950 . S
H1742 C1748 0.949 . S
C1743 H1738 0.950 . S
C1743 C1745 1.327 . S
C1743 C1749 1.429 . S
C1744 C1736 1.574 . S
C1744 H1739 0.949 . S
C1744 C1750 1.368 . S
C1745 C1729 1.349 . S
C1745 H1737 0.950 . S
C1745 C1743 1.327 . S
C1746 C1734 1.349 . S
C1746 H1740 0.950 . S
C1746 C1747 1.327 . S
C1747 H1741 0.950 . S
C1747 C1746 1.327 . S
C1747 C1751 1.429 . S
C1748 C1731 1.574 . S
C1748 H1742 0.949 . S
C1748 C1752 1.368 . S
C1749 C1730 1.429 . S
C1749 C1743 1.429 . S
C1749 C1750 1.523 . S
C1750 C1731 1.368 . S
C1750 C1744 1.368 . S
C1750 C1749 1.523 . S
C1751 C1735 1.429 . S
C1751 C1747 1.429 . S
C1751 C1752 1.523 . S
C1752 C1736 1.368 . S
C1752 C1748 1.368 . S
C1752 C1751 1.523 . S
H1753 C1728 0.950 . S
H1754 C1730 0.950 . S
H1755 C1731 0.949 . S
H1756 C1733 0.950 . S
H1757 C1735 0.950 . S
C1758 C1759 1.349 . S
C1758 C1760 1.327 . S
C1758 H1783 0.950 . S
C1759 C1758 1.349 . S
C1759 C1775 1.349 . S
C1760 C1758 1.327 . S
C1760 C1779 1.429 . S
C1760 H1784 0.950 . S
C1761 C1778 1.574 . S
C1761 C1780 1.368 . S
C1761 H1785 0.949 . S
H1762 C1766 0.949 . S
C1763 C1764 1.349 . S
C1763 C1765 1.327 . S
C1763 H1786 0.950 . S
C1764 C1763 1.349 . S
C1764 C1776 1.349 . S
C1765 C1763 1.327 . S
C1765 C1781 1.429 . S
C1765 H1787 0.950 . S
C1766 H1762 0.949 . S
C1766 C1774 1.574 . S
C1766 C1782 1.368 . S
H1767 C1775 0.950 . S
H1768 C1773 0.950 . S
H1769 C1774 0.949 . S
H1770 C1776 0.950 . S
H1771 C1777 0.950 . S
H1772 C1778 0.949 . S
C1773 H1768 0.950 . S
C1773 C1775 1.327 . S
C1773 C1779 1.429 . S
C1774 C1766 1.574 . S
C1774 H1769 0.949 . S
C1774 C1780 1.368 . S
C1775 C1759 1.349 . S
C1775 H1767 0.950 . S
C1775 C1773 1.327 . S
C1776 C1764 1.349 . S
C1776 H1770 0.950 . S
C1776 C1777 1.327 . S
C1777 H1771 0.950 . S
C1777 C1776 1.327 . S
C1777 C1781 1.429 . S
C1778 C1761 1.574 . S
C1778 H1772 0.949 . S
C1778 C1782 1.368 . S
C1779 C1760 1.429 . S
C1779 C1773 1.429 . S
C1779 C1780 1.523 . S
C1780 C1761 1.368 . S
C1780 C1774 1.368 . S
C1780 C1779 1.523 . S
C1781 C1765 1.429 . S
C1781 C1777 1.429 . S
C1781 C1782 1.523 . S
C1782 C1766 1.368 . S
C1782 C1778 1.368 . S
C1782 C1781 1.523 . S
H1783 C1758 0.950 . S
H1784 C1760 0.950 . S
H1785 C1761 0.949 . S
H1786 C1763 0.950 . S
H1787 C1765 0.950 . S
C1788 C1789 1.349 . S
C1788 C1790 1.327 . S
C1788 H1813 0.950 . S
C1789 C1788 1.349 . S
C1789 C1805 1.349 . S
C1790 C1788 1.327 . S
C1790 C1809 1.429 . S
C1790 H1814 0.950 . S
C1791 C1808 1.574 . S
C1791 C1810 1.368 . S
C1791 H1815 0.949 . S
H1792 C1796 0.949 . S
C1793 C1794 1.349 . S
C1793 C1795 1.327 . S
C1793 H1816 0.950 . S
C1794 C1793 1.349 . S
C1794 C1806 1.349 . S
C1795 C1793 1.327 . S
C1795 C1811 1.429 . S
C1795 H1817 0.950 . S
C1796 H1792 0.949 . S
C1796 C1804 1.574 . S
C1796 C1812 1.368 . S
H1797 C1805 0.950 . S
H1798 C1803 0.950 . S
H1799 C1804 0.949 . S
H1800 C1806 0.950 . S
H1801 C1807 0.950 . S
H1802 C1808 0.949 . S
C1803 H1798 0.950 . S
C1803 C1805 1.327 . S
C1803 C1809 1.429 . S
C1804 C1796 1.574 . S
C1804 H1799 0.949 . S
C1804 C1810 1.368 . S
C1805 C1789 1.349 . S
C1805 H1797 0.950 . S
C1805 C1803 1.327 . S
C1806 C1794 1.349 . S
C1806 H1800 0.950 . S
C1806 C1807 1.327 . S
C1807 H1801 0.950 . S
C1807 C1806 1.327 . S
C1807 C1811 1.429 . S
C1808 C1791 1.574 . S
C1808 H1802 0.949 . S
C1808 C1812 1.368 . S
C1809 C1790 1.429 . S
C1809 C1803 1.429 . S
C1809 C1810 1.523 . S
C1810 C1791 1.368 . S
C1810 C1804 1.368 . S
C1810 C1809 1.523 . S
C1811 C1795 1.429 . S
C1811 C1807 1.429 . S
C1811 C1812 1.523 . S
C1812 C1796 1.368 . S
C1812 C1808 1.368 . S
C1812 C1811 1.523 . S
H1813 C1788 0.950 . S
H1814 C1790 0.950 . S
H1815 C1791 0.949 . S
H1816 C1793 0.950 . S
H1817 C1795 0.950 . S
C1818 C1819 1.349 . S
C1818 C1820 1.327 . S
C1818 H1843 0.950 . S
C1819 C1818 1.349 . S
C1819 C1835 1.349 . S
C1820 C1818 1.327 . S
C1820 C1839 1.429 . S
C1820 H1844 0.950 . S
C1821 C1838 1.574 . S
C1821 C1840 1.368 . S
C1821 H1845 0.949 . S
H1822 C1826 0.949 . S
C1823 C1824 1.349 . S
C1823 C1825 1.327 . S
C1823 H1846 0.950 . S
C1824 C1823 1.349 . S
C1824 C1836 1.349 . S
C1825 C1823 1.327 . S
C1825 C1841 1.429 . S
C1825 H1847 0.950 . S
C1826 H1822 0.949 . S
C1826 C1834 1.574 . S
C1826 C1842 1.368 . S
H1827 C1835 0.950 . S
H1828 C1833 0.950 . S
H1829 C1834 0.949 . S
H1830 C1836 0.950 . S
H1831 C1837 0.950 . S
H1832 C1838 0.949 . S
C1833 H1828 0.950 . S
C1833 C1835 1.327 . S
C1833 C1839 1.429 . S
C1834 C1826 1.574 . S
C1834 H1829 0.949 . S
C1834 C1840 1.368 . S
C1835 C1819 1.349 . S
C1835 H1827 0.950 . S
C1835 C1833 1.327 . S
C1836 C1824 1.349 . S
C1836 H1830 0.950 . S
C1836 C1837 1.327 . S
C1837 H1831 0.950 . S
C1837 C1836 1.327 . S
C1837 C1841 1.429 . S
C1838 C1821 1.574 . S
C1838 H1832 0.949 . S
C1838 C1842 1.368 . S
C1839 C1820 1.429 . S
C1839 C1833 1.429 . S
C1839 C1840 1.523 . S
C1840 C1821 1.368 . S
C1840 C1834 1.368 . S
C1840 C1839 1.523 . S
C1841 C1825 1.429 . S
C1841 C1837 1.429 . S
C1841 C1842 1.523 . S
C1842 C1826 1.368 . S
C1842 C1838 1.368 . S
C1842 C1841 1.523 . S
H1843 C1818 0.950 . S
H1844 C1820 0.950 . S
H1845 C1821 0.949 . S
H1846 C1823 0.950 . S
H1847 C1825 0.950 . S
C1848 C1849 1.349 . S
C1848 C1850 1.327 . S
C1848 H1873 0.950 . S
C1849 C1848 1.349 . S
C1849 C1865 1.349 . S
C1850 C1848 1.327 . S
C1850 C1869 1.429 . S
C1850 H1874 0.950 . S
C1851 C1868 1.574 . S
C1851 C1870 1.368 . S
C1851 H1875 0.949 . S
H1852 C1856 0.949 . S
C1853 C1854 1.349 . S
C1853 C1855 1.327 . S
C1853 H1876 0.950 . S
C1854 C1853 1.349 . S
C1854 C1866 1.349 . S
C1855 C1853 1.327 . S
C1855 C1871 1.429 . S
C1855 H1877 0.950 . S
C1856 H1852 0.949 . S
C1856 C1864 1.574 . S
C1856 C1872 1.368 . S
H1857 C1865 0.950 . S
H1858 C1863 0.950 . S
H1859 C1864 0.949 . S
H1860 C1866 0.950 . S
H1861 C1867 0.950 . S
H1862 C1868 0.949 . S
C1863 H1858 0.950 . S
C1863 C1865 1.327 . S
C1863 C1869 1.429 . S
C1864 C1856 1.574 . S
C1864 H1859 0.949 . S
C1864 C1870 1.368 . S
C1865 C1849 1.349 . S
C1865 H1857 0.950 . S
C1865 C1863 1.327 . S
C1866 C1854 1.349 . S
C1866 H1860 0.950 . S
C1866 C1867 1.327 . S
C1867 H1861 0.950 . S
C1867 C1866 1.327 . S
C1867 C1871 1.429 . S
C1868 C1851 1.574 . S
C1868 H1862 0.949 . S
C1868 C1872 1.368 . S
C1869 C1850 1.429 . S
C1869 C1863 1.429 . S
C1869 C1870 1.523 . S
C1870 C1851 1.368 . S
C1870 C1864 1.368 . S
C1870 C1869 1.523 . S
C1871 C1855 1.429 . S
C1871 C1867 1.429 . S
C1871 C1872 1.523 . S
C1872 C1856 1.368 . S
C1872 C1868 1.368 . S
C1872 C1871 1.523 . S
H1873 C1848 0.950 . S
H1874 C1850 0.950 . S
H1875 C1851 0.949 . S
H1876 C1853 0.950 . S
H1877 C1855 0.950 . S
C1878 C1879 1.349 . S
C1878 C1880 1.327 . S
C1878 H1903 0.950 . S
C1879 C1878 1.349 . S
C1879 C1895 1.349 . S
C1880 C1878 1.327 . S
C1880 C1899 1.429 . S
C1880 H1904 0.950 . S
C1881 C1898 1.574 . S
C1881 C1900 1.368 . S
C1881 H1905 0.949 . S
H1882 C1886 0.949 . S
C1883 C1884 1.349 . S
C1883 C1885 1.327 . S
C1883 H1906 0.950 . S
C1884 C1883 1.349 . S
C1884 C1896 1.349 . S
C1885 C1883 1.327 . S
C1885 C1901 1.429 . S
C1885 H1907 0.950 . S
C1886 H1882 0.949 . S
C1886 C1894 1.574 . S
C1886 C1902 1.368 . S
H1887 C1895 0.950 . S
H1888 C1893 0.950 . S
H1889 C1894 0.949 . S
H1890 C1896 0.950 . S
H1891 C1897 0.950 . S
H1892 C1898 0.949 . S
C1893 H1888 0.950 . S
C1893 C1895 1.327 . S
C1893 C1899 1.429 . S
C1894 C1886 1.574 . S
C1894 H1889 0.949 . S
C1894 C1900 1.368 . S
C1895 C1879 1.349 . S
C1895 H1887 0.950 . S
C1895 C1893 1.327 . S
C1896 C1884 1.349 . S
C1896 H1890 0.950 . S
C1896 C1897 1.327 . S
C1897 H1891 0.950 . S
C1897 C1896 1.327 . S
C1897 C1901 1.429 . S
C1898 C1881 1.574 . S
C1898 H1892 0.949 . S
C1898 C1902 1.368 . S
C1899 C1880 1.429 . S
C1899 C1893 1.429 . S
C1899 C1900 1.523 . S
C1900 C1881 1.368 . S
C1900 C1894 1.368 . S
C1900 C1899 1.523 . S
C1901 C1885 1.429 . S
C1901 C1897 1.429 . S
C1901 C1902 1.523 . S
C1902 C1886 1.368 . S
C1902 C1898 1.368 . S
C1902 C1901 1.523 . S
H1903 C1878 0.950 . S
H1904 C1880 0.950 . S
H1905 C1881 0.949 . S
H1906 C1883 0.950 . S
H1907 C1885 0.950 . S
C1908 C1909 1.349 . S
C1908 C1910 1.327 . S
C1908 H1933 0.950 . S
C1909 C1908 1.349 . S
C1909 C1925 1.349 . S
C1910 C1908 1.327 . S
C1910 C1929 1.429 . S
C1910 H1934 0.950 . S
C1911 C1928 1.574 . S
C1911 C1930 1.368 . S
C1911 H1935 0.949 . S
H1912 C1916 0.949 . S
C1913 C1914 1.349 . S
C1913 C1915 1.327 . S
C1913 H1936 0.950 . S
C1914 C1913 1.349 . S
C1914 C1926 1.349 . S
C1915 C1913 1.327 . S
C1915 C1931 1.429 . S
C1915 H1937 0.950 . S
C1916 H1912 0.949 . S
C1916 C1924 1.574 . S
C1916 C1932 1.368 . S
H1917 C1925 0.950 . S
H1918 C1923 0.950 . S
H1919 C1924 0.949 . S
H1920 C1926 0.950 . S
H1921 C1927 0.950 . S
H1922 C1928 0.949 . S
C1923 H1918 0.950 . S
C1923 C1925 1.327 . S
C1923 C1929 1.429 . S
C1924 C1916 1.574 . S
C1924 H1919 0.949 . S
C1924 C1930 1.368 . S
C1925 C1909 1.349 . S
C1925 H1917 0.950 . S
C1925 C1923 1.327 . S
C1926 C1914 1.349 . S
C1926 H1920 0.950 . S
C1926 C1927 1.327 . S
C1927 H1921 0.950 . S
C1927 C1926 1.327 . S
C1927 C1931 1.429 . S
C1928 C1911 1.574 . S
C1928 H1922 0.949 . S
C1928 C1932 1.368 . S
C1929 C1910 1.429 . S
C1929 C1923 1.429 . S
C1929 C1930 1.523 . S
C1930 C1911 1.368 . S
C1930 C1924 1.368 . S
C1930 C1929 1.523 . S
C1931 C1915 1.429 . S
C1931 C1927 1.429 . S
C1931 C1932 1.523 . S
C1932 C1916 1.368 . S
C1932 C1928 1.368 . S
C1932 C1931 1.523 . S
H1933 C1908 0.950 . S
H1934 C1910 0.950 . S
H1935 C1911 0.949 . S
H1936 C1913 0.950 . S
H1937 C1915 0.950 . S
C1938 C1939 1.349 . S
C1938 C1940 1.327 . S
C1938 H1963 0.950 . S
C1939 C1938 1.349 . S
C1939 C1955 1.349 . S
C1940 C1938 1.327 . S
C1940 C1959 1.429 . S
C1940 H1964 0.950 . S
C1941 C1958 1.574 . S
C1941 C1960 1.368 . S
C1941 H1965 0.949 . S
H1942 C1946 0.949 . S
C1943 C1944 1.349 . S
C1943 C1945 1.327 . S
C1943 H1966 0.950 . S
C1944 C1943 1.349 . S
C1944 C1956 1.349 . S
C1945 C1943 1.327 . S
C1945 C1961 1.429 . S
C1945 H1967 0.950 . S
C1946 H1942 0.949 . S
C1946 C1954 1.574 . S
C1946 C1962 1.368 . S
H1947 C1955 0.950 . S
H1948 C1953 0.950 . S
H1949 C1954 0.949 . S
H1950 C1956 0.950 . S
H1951 C1957 0.950 . S
H1952 C1958 0.949 . S
C1953 H1948 0.950 . S
C1953 C1955 1.327 . S
C1953 C1959 1.429 . S
C1954 C1946 1.574 . S
C1954 H1949 0.949 . S
C1954 C1960 1.368 . S
C1955 C1939 1.349 . S
C1955 H1947 0.950 . S
C1955 C1953 1.327 . S
C1956 C1944 1.349 . S
C1956 H1950 0.950 . S
C1956 C1957 1.327 . S
C1957 H1951 0.950 . S
C1957 C1956 1.327 . S
C1957 C1961 1.429 . S
C1958 C1941 1.574 . S
C1958 H1952 0.949 . S
C1958 C1962 1.368 . S
C1959 C1940 1.429 . S
C1959 C1953 1.429 . S
C1959 C1960 1.523 . S
C1960 C1941 1.368 . S
C1960 C1954 1.368 . S
C1960 C1959 1.523 . S
C1961 C1945 1.429 . S
C1961 C1957 1.429 . S
C1961 C1962 1.523 . S
C1962 C1946 1.368 . S
C1962 C1958 1.368 . S
C1962 C1961 1.523 . S
H1963 C1938 0.950 . S
H1964 C1940 0.950 . S
H1965 C1941 0.949 . S
H1966 C1943 0.950 . S
H1967 C1945 0.950 . S
C1968 C1969 1.349 . S
C1968 C1970 1.327 . S
C1968 H1993 0.950 . S
C1969 C1968 1.349 . S
C1969 C1985 1.349 . S
C1970 C1968 1.327 . S
C1970 C1989 1.429 . S
C1970 H1994 0.950 . S
C1971 C1988 1.574 . S
C1971 C1990 1.368 . S
C1971 H1995 0.949 . S
H1972 C1976 0.949 . S
C1973 C1974 1.349 . S
C1973 C1975 1.327 . S
C1973 H1996 0.950 . S
C1974 C1973 1.349 . S
C1974 C1986 1.349 . S
C1975 C1973 1.327 . S
C1975 C1991 1.429 . S
C1975 H1997 0.950 . S
C1976 H1972 0.949 . S
C1976 C1984 1.574 . S
C1976 C1992 1.368 . S
H1977 C1985 0.950 . S
H1978 C1983 0.950 . S
H1979 C1984 0.949 . S
H1980 C1986 0.950 . S
H1981 C1987 0.950 . S
H1982 C1988 0.949 . S
C1983 H1978 0.950 . S
C1983 C1985 1.327 . S
C1983 C1989 1.429 . S
C1984 C1976 1.574 . S
C1984 H1979 0.949 . S
C1984 C1990 1.368 . S
C1985 C1969 1.349 . S
C1985 H1977 0.950 . S
C1985 C1983 1.327 . S
C1986 C1974 1.349 . S
C1986 H1980 0.950 . S
C1986 C1987 1.327 . S
C1987 H1981 0.950 . S
C1987 C1986 1.327 . S
C1987 C1991 1.429 . S
C1988 C1971 1.574 . S
C1988 H1982 0.949 . S
C1988 C1992 1.368 . S
C1989 C1970 1.429 . S
C1989 C1983 1.429 . S
C1989 C1990 1.523 . S
C1990 C1971 1.368 . S
C1990 C1984 1.368 . S
C1990 C1989 1.523 . S
C1991 C1975 1.429 . S
C1991 C1987 1.429 . S
C1991 C1992 1.523 . S
C1992 C1976 1.368 . S
C1992 C1988 1.368 . S
C1992 C1991 1.523 . S
H1993 C1968 0.950 . S
H1994 C1970 0.950 . S
H1995 C1971 0.949 . S
H1996 C1973 0.950 . S
H1997 C1975 0.950 . S
C1998 C1999 1.349 . S
C1998 C2000 1.327 . S
C1998 H2023 0.950 . S
C1999 C1998 1.349 . S
C1999 C2015 1.349 . S
C2000 C1998 1.327 . S
C2000 C2019 1.429 . S
C2000 H2024 0.950 . S
C2001 C2018 1.574 . S
C2001 C2020 1.368 . S
C2001 H2025 0.949 . S
H2002 C2006 0.949 . S
C2003 C2004 1.349 . S
C2003 C2005 1.327 . S
C2003 H2026 0.950 . S
C2004 C2003 1.349 . S
C2004 C2016 1.349 . S
C2005 C2003 1.327 . S
C2005 C2021 1.429 . S
C2005 H2027 0.950 . S
C2006 H2002 0.949 . S
C2006 C2014 1.574 . S
C2006 C2022 1.368 . S
H2007 C2015 0.950 . S
H2008 C2013 0.950 . S
H2009 C2014 0.949 . S
H2010 C2016 0.950 . S
H2011 C2017 0.950 . S
H2012 C2018 0.949 . S
C2013 H2008 0.950 . S
C2013 C2015 1.327 . S
C2013 C2019 1.429 . S
C2014 C2006 1.574 . S
C2014 H2009 0.949 . S
C2014 C2020 1.368 . S
C2015 C1999 1.349 . S
C2015 H2007 0.950 . S
C2015 C2013 1.327 . S
C2016 C2004 1.349 . S
C2016 H2010 0.950 . S
C2016 C2017 1.327 . S
C2017 H2011 0.950 . S
C2017 C2016 1.327 . S
C2017 C2021 1.429 . S
C2018 C2001 1.574 . S
C2018 H2012 0.949 . S
C2018 C2022 1.368 . S
C2019 C2000 1.429 . S
C2019 C2013 1.429 . S
C2019 C2020 1.523 . S
C2020 C2001 1.368 . S
C2020 C2014 1.368 . S
C2020 C2019 1.523 . S
C2021 C2005 1.429 . S
C2021 C2017 1.429 . S
C2021 C2022 1.523 . S
C2022 C2006 1.368 . S
C2022 C2018 1.368 . S
C2022 C2021 1.523 . S
H2023 C1998 0.950 . S
H2024 C2000 0.950 . S
H2025 C2001 0.949 . S
H2026 C2003 0.950 . S
H2027 C2005 0.950 . S
C2028 C2029 1.349 . S
C2028 C2030 1.327 . S
C2028 H2053 0.950 . S
C2029 C2028 1.349 . S
C2029 C2045 1.349 . S
C2030 C2028 1.327 . S
C2030 C2049 1.429 . S
C2030 H2054 0.950 . S
C2031 C2048 1.574 . S
C2031 C2050 1.368 . S
C2031 H2055 0.949 . S
H2032 C2036 0.949 . S
C2033 C2034 1.349 . S
C2033 C2035 1.327 . S
C2033 H2056 0.950 . S
C2034 C2033 1.349 . S
C2034 C2046 1.349 . S
C2035 C2033 1.327 . S
C2035 C2051 1.429 . S
C2035 H2057 0.950 . S
C2036 H2032 0.949 . S
C2036 C2044 1.574 . S
C2036 C2052 1.368 . S
H2037 C2045 0.950 . S
H2038 C2043 0.950 . S
H2039 C2044 0.949 . S
H2040 C2046 0.950 . S
H2041 C2047 0.950 . S
H2042 C2048 0.949 . S
C2043 H2038 0.950 . S
C2043 C2045 1.327 . S
C2043 C2049 1.429 . S
C2044 C2036 1.574 . S
C2044 H2039 0.949 . S
C2044 C2050 1.368 . S
C2045 C2029 1.349 . S
C2045 H2037 0.950 . S
C2045 C2043 1.327 . S
C2046 C2034 1.349 . S
C2046 H2040 0.950 . S
C2046 C2047 1.327 . S
C2047 H2041 0.950 . S
C2047 C2046 1.327 . S
C2047 C2051 1.429 . S
C2048 C2031 1.574 . S
C2048 H2042 0.949 . S
C2048 C2052 1.368 . S
C2049 C2030 1.429 . S
C2049 C2043 1.429 . S
C2049 C2050 1.523 . S
C2050 C2031 1.368 . S
C2050 C2044 1.368 . S
C2050 C2049 1.523 . S
C2051 C2035 1.429 . S
C2051 C2047 1.429 . S
C2051 C2052 1.523 . S
C2052 C2036 1.368 . S
C2052 C2048 1.368 . S
C2052 C2051 1.523 . S
H2053 C2028 0.950 . S
H2054 C2030 0.950 . S
H2055 C2031 0.949 . S
H2056 C2033 0.950 . S
H2057 C2035 0.950 . S
C2058 C2059 1.349 . S
C2058 C2060 1.327 . S
C2058 H2083 0.950 . S
C2059 C2058 1.349 . S
C2059 C2075 1.349 . S
C2060 C2058 1.327 . S
C2060 C2079 1.429 . S
C2060 H2084 0.950 . S
C2061 C2078 1.574 . S
C2061 C2080 1.368 . S
C2061 H2085 0.949 . S
H2062 C2066 0.949 . S
C2063 C2064 1.349 . S
C2063 C2065 1.327 . S
C2063 H2086 0.950 . S
C2064 C2063 1.349 . S
C2064 C2076 1.349 . S
C2065 C2063 1.327 . S
C2065 C2081 1.429 . S
C2065 H2087 0.950 . S
C2066 H2062 0.949 . S
C2066 C2074 1.574 . S
C2066 C2082 1.368 . S
H2067 C2075 0.950 . S
H2068 C2073 0.950 . S
H2069 C2074 0.949 . S
H2070 C2076 0.950 . S
H2071 C2077 0.950 . S
H2072 C2078 0.949 . S
C2073 H2068 0.950 . S
C2073 C2075 1.327 . S
C2073 C2079 1.429 . S
C2074 C2066 1.574 . S
C2074 H2069 0.949 . S
C2074 C2080 1.368 . S
C2075 C2059 1.349 . S
C2075 H2067 0.950 . S
C2075 C2073 1.327 . S
C2076 C2064 1.349 . S
C2076 H2070 0.950 . S
C2076 C2077 1.327 . S
C2077 H2071 0.950 . S
C2077 C2076 1.327 . S
C2077 C2081 1.429 . S
C2078 C2061 1.574 . S
C2078 H2072 0.949 . S
C2078 C2082 1.368 . S
C2079 C2060 1.429 . S
C2079 C2073 1.429 . S
C2079 C2080 1.523 . S
C2080 C2061 1.368 . S
C2080 C2074 1.368 . S
C2080 C2079 1.523 . S
C2081 C2065 1.429 . S
C2081 C2077 1.429 . S
C2081 C2082 1.523 . S
C2082 C2066 1.368 . S
C2082 C2078 1.368 . S
C2082 C2081 1.523 . S
H2083 C2058 0.950 . S
H2084 C2060 0.950 . S
H2085 C2061 0.949 . S
H2086 C2063 0.950 . S
H2087 C2065 0.950 . S
C2088 C2089 1.349 . S
C2088 C2090 1.327 . S
C2088 H2113 0.950 . S
C2089 C2088 1.349 . S
C2089 C2105 1.349 . S
C2090 C2088 1.327 . S
C2090 C2109 1.429 . S
C2090 H2114 0.950 . S
C2091 C2108 1.574 . S
C2091 C2110 1.368 . S
C2091 H2115 0.949 . S
H2092 C2096 0.949 . S
C2093 C2094 1.349 . S
C2093 C2095 1.327 . S
C2093 H2116 0.950 . S
C2094 C2093 1.349 . S
C2094 C2106 1.349 . S
C2095 C2093 1.327 . S
C2095 C2111 1.429 . S
C2095 H2117 0.950 . S
C2096 H2092 0.949 . S
C2096 C2104 1.574 . S
C2096 C2112 1.368 . S
H2097 C2105 0.950 . S
H2098 C2103 0.950 . S
H2099 C2104 0.949 . S
H2100 C2106 0.950 . S
H2101 C2107 0.950 . S
H2102 C2108 0.949 . S
C2103 H2098 0.950 . S
C2103 C2105 1.327 . S
C2103 C2109 1.429 . S
C2104 C2096 1.574 . S
C2104 H2099 0.949 . S
C2104 C2110 1.368 . S
C2105 C2089 1.349 . S
C2105 H2097 0.950 . S
C2105 C2103 1.327 . S
C2106 C2094 1.349 . S
C2106 H2100 0.950 . S
C2106 C2107 1.327 . S
C2107 H2101 0.950 . S
C2107 C2106 1.327 . S
C2107 C2111 1.429 . S
C2108 C2091 1.574 . S
C2108 H2102 0.949 . S
C2108 C2112 1.368 . S
C2109 C2090 1.429 . S
C2109 C2103 1.429 . S
C2109 C2110 1.523 . S
C2110 C2091 1.368 . S
C2110 C2104 1.368 . S
C2110 C2109 1.523 . S
C2111 C2095 1.429 . S
C2111 C2107 1.429 . S
C2111 C2112 1.523 . S
C2112 C2096 1.368 . S
C2112 C2108 1.368 . S
C2112 C2111 1.523 . S
H2113 C2088 0.950 . S
H2114 C2090 0.950 . S
H2115 C2091 0.949 . S
H2116 C2093 0.950 . S
H2117 C2095 0.950 . S
C2118 C2119 1.349 . S
C2118 C2120 1.327 . S
C2118 H2143 0.950 . S
C2119 C2118 1.349 . S
C2119 C2135 1.349 . S
C2120 C2118 1.327 . S
C2120 C2139 1.429 . S
C2120 H2144 0.950 . S
C2121 C2138 1.574 . S
C2121 C2140 1.368 . S
C2121 H2145 0.949 . S
H2122 C2126 0.949 . S
C2123 C2124 1.349 . S
C2123 C2125 1.327 . S
C2123 H2146 0.950 . S
C2124 C2123 1.349 . S
C2124 C2136 1.349 . S
C2125 C2123 1.327 . S
C2125 C2141 1.429 . S
C2125 H2147 0.950 . S
C2126 H2122 0.949 . S
C2126 C2134 1.574 . S
C2126 C2142 1.368 . S
H2127 C2135 0.950 . S
H2128 C2133 0.950 . S
H2129 C2134 0.949 . S
H2130 C2136 0.950 . S
H2131 C2137 0.950 . S
H2132 C2138 0.949 . S
C2133 H2128 0.950 . S
C2133 C2135 1.327 . S
C2133 C2139 1.429 . S
C2134 C2126 1.574 . S
C2134 H2129 0.949 . S
C2134 C2140 1.368 . S
C2135 C2119 1.349 . S
C2135 H2127 0.950 . S
C2135 C2133 1.327 . S
C2136 C2124 1.349 . S
C2136 H2130 0.950 . S
C2136 C2137 1.327 . S
C2137 H2131 0.950 . S
C2137 C2136 1.327 . S
C2137 C2141 1.429 . S
C2138 C2121 1.574 . S
C2138 H2132 0.949 . S
C2138 C2142 1.368 . S
C2139 C2120 1.429 . S
C2139 C2133 1.429 . S
C2139 C2140 1.523 . S
C2140 C2121 1.368 . S
C2140 C2134 1.368 . S
C2140 C2139 1.523 . S
C2141 C2125 1.429 . S
C2141 C2137 1.429 . S
C2141 C2142 1.523 . S
C2142 C2126 1.368 . S
C2142 C2138 1.368 . S
C2142 C2141 1.523 . S
H2143 C2118 0.950 . S
H2144 C2120 0.950 . S
H2145 C2121 0.949 . S
H2146 C2123 0.950 . S
H2147 C2125 0.950 . S
C2148 C2149 1.349 . S
C2148 C2150 1.327 . S
C2148 H2173 0.950 . S
C2149 C2148 1.349 . S
C2149 C2165 1.349 . S
C2150 C2148 1.327 . S
C2150 C2169 1.429 . S
C2150 H2174 0.950 . S
C2151 C2168 1.574 . S
C2151 C2170 1.368 . S
C2151 H2175 0.949 . S
H2152 C2156 0.949 . S
C2153 C2154 1.349 . S
C2153 C2155 1.327 . S
C2153 H2176 0.950 . S
C2154 C2153 1.349 . S
C2154 C2166 1.349 . S
C2155 C2153 1.327 . S
C2155 C2171 1.429 . S
C2155 H2177 0.950 . S
C2156 H2152 0.949 . S
C2156 C2164 1.574 . S
C2156 C2172 1.368 . S
H2157 C2165 0.950 . S
H2158 C2163 0.950 . S
H2159 C2164 0.949 . S
H2160 C2166 0.950 . S
H2161 C2167 0.950 . S
H2162 C2168 0.949 . S
C2163 H2158 0.950 . S
C2163 C2165 1.327 . S
C2163 C2169 1.429 . S
C2164 C2156 1.574 . S
C2164 H2159 0.949 . S
C2164 C2170 1.368 . S
C2165 C2149 1.349 . S
C2165 H2157 0.950 . S
C2165 C2163 1.327 . S
C2166 C2154 1.349 . S
C2166 H2160 0.950 . S
C2166 C2167 1.327 . S
C2167 H2161 0.950 . S
C2167 C2166 1.327 . S
C2167 C2171 1.429 . S
C2168 C2151 1.574 . S
C2168 H2162 0.949 . S
C2168 C2172 1.368 . S
C2169 C2150 1.429 . S
C2169 C2163 1.429 . S
C2169 C2170 1.523 . S
C2170 C2151 1.368 . S
C2170 C2164 1.368 . S
C2170 C2169 1.523 . S
C2171 C2155 1.429 . S
C2171 C2167 1.429 . S
C2171 C2172 1.523 . S
C2172 C2156 1.368 . S
C2172 C2168 1.368 . S
C2172 C2171 1.523 . S
H2173 C2148 0.950 . S
H2174 C2150 0.950 . S
H2175 C2151 0.949 . S
H2176 C2153 0.950 . S
H2177 C2155 0.950 . S
C2178 C2179 1.349 . S
C2178 C2180 1.327 . S
C2178 H2203 0.950 . S
C2179 C2178 1.349 . S
C2179 C2195 1.349 . S
C2180 C2178 1.327 . S
C2180 C2199 1.429 . S
C2180 H2204 0.950 . S
C2181 C2198 1.574 . S
C2181 C2200 1.368 . S
C2181 H2205 0.949 . S
H2182 C2186 0.949 . S
C2183 C2184 1.349 . S
C2183 C2185 1.327 . S
C2183 H2206 0.950 . S
C2184 C2183 1.349 . S
C2184 C2196 1.349 . S
C2185 C2183 1.327 . S
C2185 C2201 1.429 . S
C2185 H2207 0.950 . S
C2186 H2182 0.949 . S
C2186 C2194 1.574 . S
C2186 C2202 1.368 . S
H2187 C2195 0.950 . S
H2188 C2193 0.950 . S
H2189 C2194 0.949 . S
H2190 C2196 0.950 . S
H2191 C2197 0.950 . S
H2192 C2198 0.949 . S
C2193 H2188 0.950 . S
C2193 C2195 1.327 . S
C2193 C2199 1.429 . S
C2194 C2186 1.574 . S
C2194 H2189 0.949 . S
C2194 C2200 1.368 . S
C2195 C2179 1.349 . S
C2195 H2187 0.950 . S
C2195 C2193 1.327 . S
C2196 C2184 1.349 . S
C2196 H2190 0.950 . S
C2196 C2197 1.327 . S
C2197 H2191 0.950 . S
C2197 C2196 1.327 . S
C2197 C2201 1.429 . S
C2198 C2181 1.574 . S
C2198 H2192 0.949 . S
C2198 C2202 1.368 . S
C2199 C2180 1.429 . S
C2199 C2193 1.429 . S
C2199 C2200 1.523 . S
C2200 C2181 1.368 . S
C2200 C2194 1.368 . S
C2200 C2199 1.523 . S
C2201 C2185 1.429 . S
C2201 C2197 1.429 . S
C2201 C2202 1.523 . S
C2202 C2186 1.368 . S
C2202 C2198 1.368 . S
C2202 C2201 1.523 . S
H2203 C2178 0.950 . S
H2204 C2180 0.950 . S
H2205 C2181 0.949 . S
H2206 C2183 0.950 . S
H2207 C2185 0.950 . S
C2208 C2209 1.349 . S
C2208 C2210 1.327 . S
C2208 H2233 0.950 . S
C2209 C2208 1.349 . S
C2209 C2225 1.349 . S
C2210 C2208 1.327 . S
C2210 C2229 1.429 . S
C2210 H2234 0.950 . S
C2211 C2228 1.574 . S
C2211 C2230 1.368 . S
C2211 H2235 0.949 . S
H2212 C2216 0.949 . S
C2213 C2214 1.349 . S
C2213 C2215 1.327 . S
C2213 H2236 0.950 . S
C2214 C2213 1.349 . S
C2214 C2226 1.349 . S
C2215 C2213 1.327 . S
C2215 C2231 1.429 . S
C2215 H2237 0.950 . S
C2216 H2212 0.949 . S
C2216 C2224 1.574 . S
C2216 C2232 1.368 . S
H2217 C2225 0.950 . S
H2218 C2223 0.950 . S
H2219 C2224 0.949 . S
H2220 C2226 0.950 . S
H2221 C2227 0.950 . S
H2222 C2228 0.949 . S
C2223 H2218 0.950 . S
C2223 C2225 1.327 . S
C2223 C2229 1.429 . S
C2224 C2216 1.574 . S
C2224 H2219 0.949 . S
C2224 C2230 1.368 . S
C2225 C2209 1.349 . S
C2225 H2217 0.950 . S
C2225 C2223 1.327 . S
C2226 C2214 1.349 . S
C2226 H2220 0.950 . S
C2226 C2227 1.327 . S
C2227 H2221 0.950 . S
C2227 C2226 1.327 . S
C2227 C2231 1.429 . S
C2228 C2211 1.574 . S
C2228 H2222 0.949 . S
C2228 C2232 1.368 . S
C2229 C2210 1.429 . S
C2229 C2223 1.429 . S
C2229 C2230 1.523 . S
C2230 C2211 1.368 . S
C2230 C2224 1.368 . S
C2230 C2229 1.523 . S
C2231 C2215 1.429 . S
C2231 C2227 1.429 . S
C2231 C2232 1.523 . S
C2232 C2216 1.368 . S
C2232 C2228 1.368 . S
C2232 C2231 1.523 . S
H2233 C2208 0.950 . S
H2234 C2210 0.950 . S
H2235 C2211 0.949 . S
H2236 C2213 0.950 . S
H2237 C2215 0.950 . S
C2238 C2239 1.349 . S
C2238 C2240 1.327 . S
C2238 H2263 0.950 . S
C2239 C2238 1.349 . S
C2239 C2255 1.349 . S
C2240 C2238 1.327 . S
C2240 C2259 1.429 . S
C2240 H2264 0.950 . S
C2241 C2258 1.574 . S
C2241 C2260 1.368 . S
C2241 H2265 0.949 . S
H2242 C2246 0.926 1_556 S
C2243 C2244 1.349 1_554 S
C2243 C2245 1.327 . S
C2243 H2266 0.950 . S
C2244 C2243 1.349 1_556 S
C2244 C2256 1.349 . S
C2245 C2243 1.327 . S
C2245 C2261 1.429 . S
C2245 H2267 0.950 . S
C2246 H2242 0.926 1_554 S
C2246 C2254 1.574 . S
C2246 C2262 1.368 . S
H2247 C2255 0.950 . S
H2248 C2253 0.950 . S
H2249 C2254 0.949 . S
H2250 C2256 0.950 . S
H2251 C2257 0.950 . S
H2252 C2258 0.949 . S
C2253 H2248 0.950 . S
C2253 C2255 1.327 . S
C2253 C2259 1.429 . S
C2254 C2246 1.574 . S
C2254 H2249 0.949 . S
C2254 C2260 1.368 . S
C2255 C2239 1.349 . S
C2255 H2247 0.950 . S
C2255 C2253 1.327 . S
C2256 C2244 1.349 . S
C2256 H2250 0.950 . S
C2256 C2257 1.327 . S
C2257 H2251 0.950 . S
C2257 C2256 1.327 . S
C2257 C2261 1.429 1_556 S
C2258 C2241 1.574 . S
C2258 H2252 0.949 . S
C2258 C2262 1.368 . S
C2259 C2240 1.429 . S
C2259 C2253 1.429 . S
C2259 C2260 1.523 . S
C2260 C2241 1.368 . S
C2260 C2254 1.368 . S
C2260 C2259 1.523 . S
C2261 C2245 1.429 . S
C2261 C2257 1.429 1_554 S
C2261 C2262 1.523 . S
C2262 C2246 1.368 . S
C2262 C2258 1.368 . S
C2262 C2261 1.523 . S
H2263 C2238 0.950 . S
H2264 C2240 0.950 . S
H2265 C2241 0.949 . S
H2266 C2243 0.950 . S
H2267 C2245 0.950 . S
C2268 C2269 1.349 . S
C2268 C2270 1.327 . S
C2268 H2293 0.950 . S
C2269 C2268 1.349 . S
C2269 C2285 1.349 . S
C2270 C2268 1.327 . S
C2270 C2289 1.429 . S
C2270 H2294 0.950 . S
C2271 C2288 1.574 . S
C2271 C2290 1.368 . S
C2271 H2295 0.949 . S
H2272 C2276 0.949 . S
C2273 C2274 1.349 . S
C2273 C2275 1.327 . S
C2273 H2296 0.950 1_545 S
C2274 C2273 1.349 . S
C2274 C2286 1.349 . S
C2275 C2273 1.327 . S
C2275 C2291 1.429 . S
C2275 H2297 0.950 . S
C2276 H2272 0.949 . S
C2276 C2284 1.574 . S
C2276 C2292 1.368 . S
H2277 C2285 0.950 . S
H2278 C2283 0.950 . S
H2279 C2284 0.949 . S
H2280 C2286 0.950 . S
H2281 C2287 0.950 . S
H2282 C2288 0.949 . S
C2283 H2278 0.950 . S
C2283 C2285 1.327 . S
C2283 C2289 1.429 . S
C2284 C2276 1.574 . S
C2284 H2279 0.949 . S
C2284 C2290 1.368 . S
C2285 C2269 1.349 . S
C2285 H2277 0.950 . S
C2285 C2283 1.327 . S
C2286 C2274 1.349 . S
C2286 H2280 0.950 . S
C2286 C2287 1.327 . S
C2287 H2281 0.950 . S
C2287 C2286 1.327 . S
C2287 C2291 1.429 . S
C2288 C2271 1.574 . S
C2288 H2282 0.949 . S
C2288 C2292 1.368 . S
C2289 C2270 1.429 . S
C2289 C2283 1.429 . S
C2289 C2290 1.523 . S
C2290 C2271 1.368 . S
C2290 C2284 1.368 . S
C2290 C2289 1.523 . S
C2291 C2275 1.429 . S
C2291 C2287 1.429 . S
C2291 C2292 1.523 . S
C2292 C2276 1.368 . S
C2292 C2288 1.368 . S
C2292 C2291 1.523 . S
H2293 C2268 0.950 . S
H2294 C2270 0.950 . S
H2295 C2271 0.949 . S
H2296 C2273 0.950 1_565 S
H2297 C2275 0.950 . S
C2298 C2299 1.349 . S
C2298 C2300 1.327 . S
C2298 H2323 0.950 . S
C2299 C2298 1.349 . S
C2299 C2315 1.349 1_554 S
C2300 C2298 1.327 . S
C2300 C2319 1.429 1_554 S
C2300 H2324 0.950 . S
C2301 C2318 1.574 . S
C2301 C2320 1.368 . S
C2301 H2325 0.949 . S
H2302 C2306 0.949 . S
C2303 C2304 1.349 . S
C2303 C2305 1.327 . S
C2303 H2326 0.950 . S
C2304 C2303 1.349 . S
C2304 C2316 1.349 . S
C2305 C2303 1.327 . S
C2305 C2321 1.429 . S
C2305 H2327 0.950 . S
C2306 H2302 0.949 . S
C2306 C2314 1.574 . S
C2306 C2322 1.368 . S
H2307 C2315 0.950 . S
H2308 C2313 0.950 . S
H2309 C2314 0.948 . S
H2310 C2316 0.950 1_545 S
H2311 C2317 0.950 . S
H2312 C2318 0.949 . S
C2313 H2308 0.950 . S
C2313 C2315 1.327 . S
C2313 C2319 1.429 . S
C2314 C2306 1.574 . S
C2314 H2309 0.948 . S
C2314 C2320 1.368 . S
C2315 C2299 1.349 1_556 S
C2315 H2307 0.950 . S
C2315 C2313 1.327 . S
C2316 C2304 1.349 . S
C2316 H2310 0.950 1_565 S
C2316 C2317 1.327 . S
C2317 H2311 0.950 . S
C2317 C2316 1.327 . S
C2317 C2321 1.429 . S
C2318 C2301 1.574 . S
C2318 H2312 0.949 . S
C2318 C2322 1.368 . S
C2319 C2300 1.429 1_556 S
C2319 C2313 1.429 . S
C2319 C2320 1.523 . S
C2320 C2301 1.368 . S
C2320 C2314 1.368 . S
C2320 C2319 1.523 . S
C2321 C2305 1.429 . S
C2321 C2317 1.429 . S
C2321 C2322 1.523 . S
C2322 C2306 1.368 . S
C2322 C2318 1.368 . S
C2322 C2321 1.523 . S
H2323 C2298 0.950 . S
H2324 C2300 0.950 . S
H2325 C2301 0.949 . S
H2326 C2303 0.950 . S
H2327 C2305 0.950 . S
C2328 C2329 1.349 . S
C2328 C2330 1.327 . S
C2328 H2353 0.950 . S
C2329 C2328 1.349 . S
C2329 C2345 1.349 . S
C2330 C2328 1.327 . S
C2330 C2349 1.429 . S
C2330 H2354 0.950 . S
C2331 C2348 1.574 . S
C2331 C2350 1.368 . S
C2331 H2355 0.949 . S
H2332 C2336 0.949 . S
C2333 C2334 1.349 . S
C2333 C2335 1.327 . S
C2333 H2356 0.950 . S
C2334 C2333 1.349 . S
C2334 C2346 1.349 . S
C2335 C2333 1.327 . S
C2335 C2351 1.429 . S
C2335 H2357 0.950 . S
C2336 H2332 0.949 . S
C2336 C2344 1.574 . S
C2336 C2352 1.368 . S
H2337 C2345 0.950 . S
H2338 C2343 0.950 . S
H2339 C2344 0.949 . S
H2340 C2346 0.950 . S
H2341 C2347 0.950 . S
H2342 C2348 0.949 . S
C2343 H2338 0.950 . S
C2343 C2345 1.327 . S
C2343 C2349 1.429 . S
C2344 C2336 1.574 . S
C2344 H2339 0.949 . S
C2344 C2350 1.368 . S
C2345 C2329 1.349 . S
C2345 H2337 0.950 . S
C2345 C2343 1.327 . S
C2346 C2334 1.349 . S
C2346 H2340 0.950 . S
C2346 C2347 1.327 . S
C2347 H2341 0.950 . S
C2347 C2346 1.327 . S
C2347 C2351 1.429 . S
C2348 C2331 1.574 . S
C2348 H2342 0.949 . S
C2348 C2352 1.368 . S
C2349 C2330 1.429 . S
C2349 C2343 1.429 . S
C2349 C2350 1.523 . S
C2350 C2331 1.368 . S
C2350 C2344 1.368 . S
C2350 C2349 1.523 . S
C2351 C2335 1.429 . S
C2351 C2347 1.429 . S
C2351 C2352 1.523 . S
C2352 C2336 1.368 . S
C2352 C2348 1.368 . S
C2352 C2351 1.523 . S
H2353 C2328 0.950 . S
H2354 C2330 0.950 . S
H2355 C2331 0.949 . S
H2356 C2333 0.950 . S
H2357 C2335 0.950 . S
C2358 C2359 1.349 . S
C2358 C2360 1.327 . S
C2358 H2383 0.950 . S
C2359 C2358 1.349 . S
C2359 C2375 1.349 . S
C2360 C2358 1.327 . S
C2360 C2379 1.429 . S
C2360 H2384 0.950 . S
C2361 C2378 1.574 . S
C2361 C2380 1.368 . S
C2361 H2385 0.949 . S
H2362 C2366 0.949 . S
C2363 C2364 1.349 . S
C2363 C2365 1.327 . S
C2363 H2386 0.950 . S
C2364 C2363 1.349 . S
C2364 C2376 1.349 1_455 S
C2365 C2363 1.327 . S
C2365 C2381 1.429 1_455 S
C2365 H2387 0.950 . S
C2366 H2362 0.949 . S
C2366 C2374 1.574 . S
C2366 C2382 1.368 . S
H2367 C2375 0.950 1_554 S
H2368 C2373 0.950 . S
H2369 C2374 0.949 . S
H2370 C2376 0.950 . S
H2371 C2377 0.950 . S
H2372 C2378 0.949 . S
C2373 H2368 0.950 . S
C2373 C2375 1.327 . S
C2373 C2379 1.429 . S
C2374 C2366 1.574 . S
C2374 H2369 0.949 . S
C2374 C2380 1.368 . S
C2375 C2359 1.349 . S
C2375 H2367 0.950 1_556 S
C2375 C2373 1.327 . S
C2376 C2364 1.349 1_655 S
C2376 H2370 0.950 . S
C2376 C2377 1.327 . S
C2377 H2371 0.950 . S
C2377 C2376 1.327 . S
C2377 C2381 1.429 . S
C2378 C2361 1.574 . S
C2378 H2372 0.949 . S
C2378 C2382 1.368 . S
C2379 C2360 1.429 . S
C2379 C2373 1.429 . S
C2379 C2380 1.523 . S
C2380 C2361 1.368 . S
C2380 C2374 1.368 . S
C2380 C2379 1.523 . S
C2381 C2365 1.429 1_655 S
C2381 C2377 1.429 . S
C2381 C2382 1.523 . S
C2382 C2366 1.368 . S
C2382 C2378 1.368 . S
C2382 C2381 1.523 . S
H2383 C2358 0.950 . S
H2384 C2360 0.950 . S
H2385 C2361 0.949 . S
H2386 C2363 0.950 . S
H2387 C2365 0.950 . S
C2388 C2389 1.349 . S
C2388 C2390 1.327 . S
C2388 H2413 0.950 . S
C2389 C2388 1.349 . S
C2389 C2405 1.349 . S
C2390 C2388 1.327 . S
C2390 C2409 1.429 . S
C2390 H2414 0.950 . S
C2391 C2408 1.574 . S
C2391 C2410 1.368 . S
C2391 H2415 0.949 . S
H2392 C2396 0.949 1_655 S
C2393 C2394 1.349 1_455 S
C2393 C2395 1.327 . S
C2393 H2416 0.950 . S
C2394 C2393 1.349 1_655 S
C2394 C2406 1.349 . S
C2395 C2393 1.327 . S
C2395 C2411 1.429 . S
C2395 H2417 0.950 . S
C2396 H2392 0.949 1_455 S
C2396 C2404 1.574 . S
C2396 C2412 1.368 . S
H2397 C2405 0.950 . S
H2398 C2403 0.950 . S
H2399 C2404 0.949 . S
H2400 C2406 0.950 . S
H2401 C2407 0.950 . S
H2402 C2408 0.949 . S
C2403 H2398 0.950 . S
C2403 C2405 1.327 . S
C2403 C2409 1.429 . S
C2404 C2396 1.574 . S
C2404 H2399 0.949 . S
C2404 C2410 1.368 . S
C2405 C2389 1.349 . S
C2405 H2397 0.950 . S
C2405 C2403 1.327 . S
C2406 C2394 1.349 . S
C2406 H2400 0.950 . S
C2406 C2407 1.327 . S
C2407 H2401 0.950 . S
C2407 C2406 1.327 . S
C2407 C2411 1.429 1_655 S
C2408 C2391 1.574 . S
C2408 H2402 0.949 . S
C2408 C2412 1.368 . S
C2409 C2390 1.429 . S
C2409 C2403 1.429 . S
C2409 C2410 1.523 . S
C2410 C2391 1.368 . S
C2410 C2404 1.368 . S
C2410 C2409 1.523 . S
C2411 C2395 1.429 . S
C2411 C2407 1.429 1_455 S
C2411 C2412 1.523 . S
C2412 C2396 1.368 . S
C2412 C2408 1.368 . S
C2412 C2411 1.523 . S
H2413 C2388 0.950 . S
H2414 C2390 0.950 . S
H2415 C2391 0.949 . S
H2416 C2393 0.950 . S
H2417 C2395 0.950 . S
C2418 C2419 1.349 . S
C2418 C2420 1.327 . S
C2418 H2443 0.950 . S
C2419 C2418 1.349 . S
C2419 C2435 1.349 . S
C2420 C2418 1.327 . S
C2420 C2439 1.429 . S
C2420 H2444 0.950 . S
C2421 C2438 1.574 . S
C2421 C2440 1.368 . S
C2421 H2445 0.949 . S
H2422 C2426 0.949 . S
C2423 C2424 1.349 . S
C2423 C2425 1.327 . S
C2423 H2446 0.950 1_554 S
C2424 C2423 1.349 . S
C2424 C2436 1.349 . S
C2425 C2423 1.327 . S
C2425 C2441 1.429 . S
C2425 H2447 0.950 . S
C2426 H2422 0.949 . S
C2426 C2434 1.574 . S
C2426 C2442 1.368 . S
H2427 C2435 0.950 . S
H2428 C2433 0.950 . S
H2429 C2434 0.949 . S
H2430 C2436 0.950 . S
H2431 C2437 0.950 . S
H2432 C2438 0.949 . S
C2433 H2428 0.950 . S
C2433 C2435 1.327 . S
C2433 C2439 1.429 . S
C2434 C2426 1.574 . S
C2434 H2429 0.949 . S
C2434 C2440 1.368 . S
C2435 C2419 1.349 . S
C2435 H2427 0.950 . S
C2435 C2433 1.327 . S
C2436 C2424 1.349 . S
C2436 H2430 0.950 . S
C2436 C2437 1.327 . S
C2437 H2431 0.950 . S
C2437 C2436 1.327 . S
C2437 C2441 1.429 . S
C2438 C2421 1.574 . S
C2438 H2432 0.949 . S
C2438 C2442 1.368 . S
C2439 C2420 1.429 . S
C2439 C2433 1.429 . S
C2439 C2440 1.523 . S
C2440 C2421 1.368 . S
C2440 C2434 1.368 . S
C2440 C2439 1.523 . S
C2441 C2425 1.429 . S
C2441 C2437 1.429 . S
C2441 C2442 1.523 . S
C2442 C2426 1.368 . S
C2442 C2438 1.368 . S
C2442 C2441 1.523 . S
H2443 C2418 0.950 . S
H2444 C2420 0.950 . S
H2445 C2421 0.949 . S
H2446 C2423 0.950 1_556 S
H2447 C2425 0.950 . S
C2448 C2449 1.349 . S
C2448 C2450 1.327 . S
C2448 H2473 0.950 . S
C2449 C2448 1.349 . S
C2449 C2465 1.349 . S
C2450 C2448 1.327 . S
C2450 C2469 1.429 . S
C2450 H2474 0.950 . S
C2451 C2468 1.574 . S
C2451 C2470 1.368 . S
C2451 H2475 0.949 . S
H2452 C2456 0.949 . S
C2453 C2454 1.349 . S
C2453 C2455 1.327 . S
C2453 H2476 0.950 . S
C2454 C2453 1.349 . S
C2454 C2466 1.349 . S
C2455 C2453 1.327 . S
C2455 C2471 1.429 . S
C2455 H2477 0.950 . S
C2456 H2452 0.949 . S
C2456 C2464 1.574 . S
C2456 C2472 1.368 . S
H2457 C2465 0.950 . S
H2458 C2463 0.950 . S
H2459 C2464 0.949 . S
H2460 C2466 0.950 . S
H2461 C2467 0.950 . S
H2462 C2468 0.949 . S
C2463 H2458 0.950 . S
C2463 C2465 1.327 . S
C2463 C2469 1.429 . S
C2464 C2456 1.574 . S
C2464 H2459 0.949 . S
C2464 C2470 1.368 . S
C2465 C2449 1.349 . S
C2465 H2457 0.950 . S
C2465 C2463 1.327 . S
C2466 C2454 1.349 . S
C2466 H2460 0.950 . S
C2466 C2467 1.327 . S
C2467 H2461 0.950 . S
C2467 C2466 1.327 . S
C2467 C2471 1.429 . S
C2468 C2451 1.574 . S
C2468 H2462 0.949 . S
C2468 C2472 1.368 . S
C2469 C2450 1.429 . S
C2469 C2463 1.429 . S
C2469 C2470 1.523 . S
C2470 C2451 1.368 . S
C2470 C2464 1.368 . S
C2470 C2469 1.523 . S
C2471 C2455 1.429 . S
C2471 C2467 1.429 . S
C2471 C2472 1.523 . S
C2472 C2456 1.368 . S
C2472 C2468 1.368 . S
C2472 C2471 1.523 . S
H2473 C2448 0.950 . S
H2474 C2450 0.950 . S
H2475 C2451 0.949 . S
H2476 C2453 0.950 . S
H2477 C2455 0.950 . S
C2478 C2479 1.349 . S
C2478 C2480 1.327 . S
C2478 H2503 0.950 . S
C2479 C2478 1.349 . S
C2479 C2495 1.349 1_545 S
C2480 C2478 1.327 . S
C2480 C2499 1.429 1_545 S
C2480 H2504 0.950 . S
C2481 C2498 1.574 . S
C2481 C2500 1.368 . S
C2481 H2505 0.949 . S
H2482 C2486 0.949 . S
C2483 C2484 1.349 . S
C2483 C2485 1.327 . S
C2483 H2506 0.950 . S
C2484 C2483 1.349 . S
C2484 C2496 1.349 . S
C2485 C2483 1.327 . S
C2485 C2501 1.429 . S
C2485 H2507 0.950 . S
C2486 H2482 0.949 . S
C2486 C2494 1.574 . S
C2486 C2502 1.368 . S
H2487 C2495 0.950 . S
H2488 C2493 0.950 . S
H2489 C2494 0.949 1_545 S
H2490 C2496 0.950 1_455 S
H2491 C2497 0.950 . S
H2492 C2498 0.949 . S
C2493 H2488 0.950 . S
C2493 C2495 1.327 . S
C2493 C2499 1.429 . S
C2494 C2486 1.574 . S
C2494 H2489 0.949 1_565 S
C2494 C2500 1.368 . S
C2495 C2479 1.349 1_565 S
C2495 H2487 0.950 . S
C2495 C2493 1.327 . S
C2496 C2484 1.349 . S
C2496 H2490 0.950 1_655 S
C2496 C2497 1.327 . S
C2497 H2491 0.950 . S
C2497 C2496 1.327 . S
C2497 C2501 1.429 . S
C2498 C2481 1.574 . S
C2498 H2492 0.949 . S
C2498 C2502 1.368 . S
C2499 C2480 1.429 1_565 S
C2499 C2493 1.429 . S
C2499 C2500 1.523 . S
C2500 C2481 1.368 . S
C2500 C2494 1.368 . S
C2500 C2499 1.523 . S
C2501 C2485 1.429 . S
C2501 C2497 1.429 . S
C2501 C2502 1.523 . S
C2502 C2486 1.368 . S
C2502 C2498 1.368 . S
C2502 C2501 1.523 . S
H2503 C2478 0.950 . S
H2504 C2480 0.950 . S
H2505 C2481 0.949 . S
H2506 C2483 0.950 . S
H2507 C2485 0.950 . S
C2508 C2509 1.349 . S
C2508 C2510 1.327 . S
C2508 H2533 0.950 . S
C2509 C2508 1.349 . S
C2509 C2525 1.349 . S
C2510 C2508 1.327 . S
C2510 C2529 1.429 . S
C2510 H2534 0.950 . S
C2511 C2528 1.574 . S
C2511 C2530 1.368 . S
C2511 H2535 0.949 . S
H2512 C2516 0.949 . S
C2513 C2514 1.349 . S
C2513 C2515 1.356 . S
C2513 H2536 0.950 . S
C2514 C2513 1.349 . S
C2514 C2526 1.349 . S
C2515 C2513 1.356 . S
C2515 C2531 1.403 1_565 S
C2515 H2537 0.949 . S
C2516 H2512 0.949 . S
C2516 C2524 1.574 . S
C2516 C2532 1.368 . S
H2517 C2525 0.950 . S
H2518 C2523 0.950 . S
H2519 C2524 0.949 . S
H2520 C2526 0.950 . S
H2521 C2527 0.950 . S
H2522 C2528 0.949 . S
C2523 H2518 0.950 . S
C2523 C2525 1.327 . S
C2523 C2529 1.429 . S
C2524 C2516 1.574 . S
C2524 H2519 0.949 . S
C2524 C2530 1.368 . S
C2525 C2509 1.349 . S
C2525 H2517 0.950 . S
C2525 C2523 1.327 . S
C2526 C2514 1.349 . S
C2526 H2520 0.950 . S
C2526 C2527 1.327 1_565 S
C2527 H2521 0.950 . S
C2527 C2526 1.327 1_545 S
C2527 C2531 1.429 . S
C2528 C2511 1.574 . S
C2528 H2522 0.949 . S
C2528 C2532 1.368 . S
C2529 C2510 1.429 . S
C2529 C2523 1.429 . S
C2529 C2530 1.523 . S
C2530 C2511 1.368 . S
C2530 C2524 1.368 . S
C2530 C2529 1.523 . S
C2531 C2515 1.403 1_545 S
C2531 C2527 1.429 . S
C2531 C2532 1.523 . S
C2532 C2516 1.368 . S
C2532 C2528 1.368 . S
C2532 C2531 1.523 . S
H2533 C2508 0.950 . S
H2534 C2510 0.950 . S
H2535 C2511 0.949 . S
H2536 C2513 0.950 . S
H2537 C2515 0.949 . S
C2538 C2539 1.349 . S
C2538 C2540 1.327 . S
C2538 H2563 0.950 . S
C2539 C2538 1.349 . S
C2539 C2555 1.349 . S
C2540 C2538 1.327 . S
C2540 C2559 1.429 . S
C2540 H2564 0.950 . S
C2541 C2558 1.574 . S
C2541 C2560 1.368 . S
C2541 H2565 0.949 . S
H2542 C2546 0.949 . S
C2543 C2544 1.349 . S
C2543 C2545 1.327 . S
C2543 H2566 0.950 1_455 S
C2544 C2543 1.349 . S
C2544 C2556 1.349 . S
C2545 C2543 1.327 . S
C2545 C2561 1.429 . S
C2545 H2567 0.950 . S
C2546 H2542 0.949 . S
C2546 C2554 1.574 . S
C2546 C2562 1.368 . S
H2547 C2555 0.950 . S
H2548 C2553 0.950 . S
H2549 C2554 0.949 . S
H2550 C2556 0.950 . S
H2551 C2557 0.950 . S
H2552 C2558 0.949 . S
C2553 H2548 0.950 . S
C2553 C2555 1.327 . S
C2553 C2559 1.429 . S
C2554 C2546 1.574 . S
C2554 H2549 0.949 . S
C2554 C2560 1.368 . S
C2555 C2539 1.349 . S
C2555 H2547 0.950 . S
C2555 C2553 1.327 . S
C2556 C2544 1.349 . S
C2556 H2550 0.950 . S
C2556 C2557 1.327 . S
C2557 H2551 0.950 . S
C2557 C2556 1.327 . S
C2557 C2561 1.429 . S
C2558 C2541 1.574 . S
C2558 H2552 0.949 . S
C2558 C2562 1.368 . S
C2559 C2540 1.429 . S
C2559 C2553 1.429 . S
C2559 C2560 1.523 . S
C2560 C2541 1.368 . S
C2560 C2554 1.368 . S
C2560 C2559 1.523 . S
C2561 C2545 1.429 . S
C2561 C2557 1.429 . S
C2561 C2562 1.523 . S
C2562 C2546 1.368 . S
C2562 C2558 1.368 . S
C2562 C2561 1.523 . S
H2563 C2538 0.950 . S
H2564 C2540 0.950 . S
H2565 C2541 0.949 . S
H2566 C2543 0.950 1_655 S
H2567 C2545 0.950 . S
C2568 C2569 1.349 . S
C2568 C2570 1.327 . S
C2568 H2593 0.950 . S
C2569 C2568 1.349 . S
C2569 C2585 1.349 . S
C2570 C2568 1.327 . S
C2570 C2589 1.429 . S
C2570 H2594 0.950 . S
C2571 C2588 1.574 . S
C2571 C2590 1.368 . S
C2571 H2595 0.949 . S
H2572 C2576 0.949 . S
C2573 C2574 1.349 . S
C2573 C2575 1.327 . S
C2573 H2596 0.950 . S
C2574 C2573 1.349 . S
C2574 C2586 1.349 . S
C2575 C2573 1.327 . S
C2575 C2591 1.429 . S
C2575 H2597 0.950 . S
C2576 H2572 0.949 . S
C2576 C2584 1.574 . S
C2576 C2592 1.368 . S
H2577 C2585 0.950 . S
H2578 C2583 0.950 . S
H2579 C2584 0.949 . S
H2580 C2586 0.950 . S
H2581 C2587 0.950 . S
H2582 C2588 0.949 . S
C2583 H2578 0.950 . S
C2583 C2585 1.327 . S
C2583 C2589 1.429 . S
C2584 C2576 1.574 . S
C2584 H2579 0.949 . S
C2584 C2590 1.368 . S
C2585 C2569 1.349 . S
C2585 H2577 0.950 . S
C2585 C2583 1.327 . S
C2586 C2574 1.349 . S
C2586 H2580 0.950 . S
C2586 C2587 1.327 . S
C2587 H2581 0.950 . S
C2587 C2586 1.327 . S
C2587 C2591 1.429 . S
C2588 C2571 1.574 . S
C2588 H2582 0.949 . S
C2588 C2592 1.368 . S
C2589 C2570 1.429 . S
C2589 C2583 1.429 . S
C2589 C2590 1.523 . S
C2590 C2571 1.368 . S
C2590 C2584 1.368 . S
C2590 C2589 1.523 . S
C2591 C2575 1.429 . S
C2591 C2587 1.429 . S
C2591 C2592 1.523 . S
C2592 C2576 1.368 . S
C2592 C2588 1.368 . S
C2592 C2591 1.523 . S
H2593 C2568 0.950 . S
H2594 C2570 0.950 . S
H2595 C2571 0.949 . S
H2596 C2573 0.950 . S
H2597 C2575 0.950 . S
C2598 C2599 1.349 . S
C2598 C2600 1.327 . S
C2598 H2623 0.950 . S
C2599 C2598 1.349 . S
C2599 C2615 1.349 . S
C2600 C2598 1.327 . S
C2600 C2619 1.429 . S
C2600 H2624 0.950 . S
C2601 C2618 1.574 . S
C2601 C2620 1.368 . S
C2601 H2625 0.949 . S
H2602 C2606 0.949 . S
C2603 C2604 1.349 . S
C2603 C2605 1.327 . S
C2603 H2626 0.950 . S
C2604 C2603 1.349 . S
C2604 C2616 1.349 1_554 S
C2605 C2603 1.327 . S
C2605 C2621 1.429 1_554 S
C2605 H2627 0.950 . S
C2606 H2602 0.949 . S
C2606 C2614 1.574 . S
C2606 C2622 1.368 . S
H2607 C2615 0.950 . S
H2608 C2613 0.950 . S
H2609 C2614 0.949 . S
H2610 C2616 0.950 . S
H2611 C2617 0.950 . S
H2612 C2618 0.949 . S
C2613 H2608 0.950 . S
C2613 C2615 1.327 . S
C2613 C2619 1.429 . S
C2614 C2606 1.574 . S
C2614 H2609 0.949 . S
C2614 C2620 1.368 . S
C2615 C2599 1.349 . S
C2615 H2607 0.950 . S
C2615 C2613 1.327 . S
C2616 C2604 1.349 1_556 S
C2616 H2610 0.950 . S
C2616 C2617 1.327 . S
C2617 H2611 0.950 . S
C2617 C2616 1.327 . S
C2617 C2621 1.429 . S
C2618 C2601 1.574 . S
C2618 H2612 0.949 . S
C2618 C2622 1.368 . S
C2619 C2600 1.429 . S
C2619 C2613 1.429 . S
C2619 C2620 1.523 . S
C2620 C2601 1.368 . S
C2620 C2614 1.368 . S
C2620 C2619 1.523 . S
C2621 C2605 1.429 1_556 S
C2621 C2617 1.429 . S
C2621 C2622 1.523 . S
C2622 C2606 1.368 . S
C2622 C2618 1.368 . S
C2622 C2621 1.523 . S
H2623 C2598 0.950 . S
H2624 C2600 0.950 . S
H2625 C2601 0.949 . S
H2626 C2603 0.950 . S
H2627 C2605 0.950 . S
C2628 C2629 1.349 . S
C2628 C2630 1.327 . S
C2628 H2653 0.950 . S
C2629 C2628 1.349 . S
C2629 C2645 1.349 . S
C2630 C2628 1.327 . S
C2630 C2649 1.429 . S
C2630 H2654 0.950 . S
C2631 C2648 1.574 . S
C2631 C2650 1.368 . S
C2631 H2655 0.949 . S
H2632 C2636 0.949 . S
C2633 C2634 1.349 . S
C2633 C2635 1.327 . S
C2633 H2656 0.950 . S
C2634 C2633 1.349 . S
C2634 C2646 1.349 . S
C2635 C2633 1.327 . S
C2635 C2651 1.429 . S
C2635 H2657 0.950 . S
C2636 H2632 0.949 . S
C2636 C2644 1.574 . S
C2636 C2652 1.368 . S
H2637 C2645 0.950 1_545 S
H2638 C2643 0.950 . S
H2639 C2644 0.949 . S
H2640 C2646 0.950 . S
H2641 C2647 0.950 . S
H2642 C2648 0.949 . S
C2643 H2638 0.950 . S
C2643 C2645 1.327 . S
C2643 C2649 1.429 . S
C2644 C2636 1.574 . S
C2644 H2639 0.949 . S
C2644 C2650 1.368 . S
C2645 C2629 1.349 . S
C2645 H2637 0.950 1_565 S
C2645 C2643 1.327 . S
C2646 C2634 1.349 . S
C2646 H2640 0.950 . S
C2646 C2647 1.327 . S
C2647 H2641 0.950 . S
C2647 C2646 1.327 . S
C2647 C2651 1.429 . S
C2648 C2631 1.574 . S
C2648 H2642 0.949 . S
C2648 C2652 1.368 . S
C2649 C2630 1.429 . S
C2649 C2643 1.429 . S
C2649 C2650 1.523 . S
C2650 C2631 1.368 . S
C2650 C2644 1.368 . S
C2650 C2649 1.523 . S
C2651 C2635 1.429 . S
C2651 C2647 1.429 . S
C2651 C2652 1.523 . S
C2652 C2636 1.368 . S
C2652 C2648 1.368 . S
C2652 C2651 1.523 . S
H2653 C2628 0.950 . S
H2654 C2630 0.950 . S
H2655 C2631 0.949 . S
H2656 C2633 0.950 . S
H2657 C2635 0.950 . S
C2658 C2659 1.349 . S
C2658 C2660 1.327 . S
C2658 H2683 0.950 . S
C2659 C2658 1.349 . S
C2659 C2675 1.349 . S
C2660 C2658 1.327 . S
C2660 C2679 1.429 . S
C2660 H2684 0.950 . S
C2661 C2678 1.574 . S
C2661 C2680 1.368 . S
C2661 H2685 0.949 . S
H2662 C2666 0.949 . S
C2663 C2664 1.349 . S
C2663 C2665 1.327 . S
C2663 H2686 0.950 . S
C2664 C2663 1.349 . S
C2664 C2676 1.349 1_556 S
C2665 C2663 1.327 . S
C2665 C2681 1.429 1_556 S
C2665 H2687 0.950 . S
C2666 H2662 0.949 . S
C2666 C2674 1.574 . S
C2666 C2682 1.368 . S
H2667 C2675 0.950 1_565 S
H2668 C2673 0.950 . S
H2669 C2674 0.949 . S
H2670 C2676 0.950 . S
H2671 C2677 0.950 . S
H2672 C2678 0.949 1_556 S
C2673 H2668 0.950 . S
C2673 C2675 1.327 . S
C2673 C2679 1.429 . S
C2674 C2666 1.574 . S
C2674 H2669 0.949 . S
C2674 C2680 1.368 . S
C2675 C2659 1.349 . S
C2675 H2667 0.950 1_545 S
C2675 C2673 1.327 . S
C2676 C2664 1.349 1_554 S
C2676 H2670 0.950 . S
C2676 C2677 1.327 . S
C2677 H2671 0.950 . S
C2677 C2676 1.327 . S
C2677 C2681 1.429 . S
C2678 C2661 1.574 . S
C2678 H2672 0.949 1_554 S
C2678 C2682 1.368 . S
C2679 C2660 1.429 . S
C2679 C2673 1.429 . S
C2679 C2680 1.523 . S
C2680 C2661 1.368 . S
C2680 C2674 1.368 . S
C2680 C2679 1.523 . S
C2681 C2665 1.429 1_554 S
C2681 C2677 1.429 . S
C2681 C2682 1.523 . S
C2682 C2666 1.368 . S
C2682 C2678 1.368 . S
C2682 C2681 1.523 . S
H2683 C2658 0.950 . S
H2684 C2660 0.950 . S
H2685 C2661 0.949 . S
H2686 C2663 0.950 . S
H2687 C2665 0.950 . S
C2688 C2689 1.349 . S
C2688 C2690 1.327 . S
C2688 H2713 0.950 . S
C2689 C2688 1.349 . S
C2689 C2705 1.349 . S
C2690 C2688 1.327 . S
C2690 C2709 1.429 . S
C2690 H2714 0.950 . S
C2691 C2708 1.574 . S
C2691 C2710 1.368 . S
C2691 H2715 0.949 . S
H2692 C2696 0.949 . S
C2693 C2694 1.349 . S
C2693 C2695 1.327 . S
C2693 H2716 0.950 . S
C2694 C2693 1.349 . S
C2694 C2706 1.349 . S
C2695 C2693 1.327 . S
C2695 C2711 1.429 . S
C2695 H2717 0.950 . S
C2696 H2692 0.949 . S
C2696 C2704 1.574 . S
C2696 C2712 1.368 . S
H2697 C2705 0.950 . S
H2698 C2703 0.950 . S
H2699 C2704 0.949 . S
H2700 C2706 0.950 . S
H2701 C2707 0.950 . S
H2702 C2708 0.949 . S
C2703 H2698 0.950 . S
C2703 C2705 1.327 . S
C2703 C2709 1.429 . S
C2704 C2696 1.574 . S
C2704 H2699 0.949 . S
C2704 C2710 1.368 . S
C2705 C2689 1.349 . S
C2705 H2697 0.950 . S
C2705 C2703 1.327 . S
C2706 C2694 1.349 . S
C2706 H2700 0.950 . S
C2706 C2707 1.327 . S
C2707 H2701 0.950 . S
C2707 C2706 1.327 . S
C2707 C2711 1.429 . S
C2708 C2691 1.574 . S
C2708 H2702 0.949 . S
C2708 C2712 1.368 . S
C2709 C2690 1.429 . S
C2709 C2703 1.429 . S
C2709 C2710 1.523 . S
C2710 C2691 1.368 . S
C2710 C2704 1.368 . S
C2710 C2709 1.523 . S
C2711 C2695 1.429 . S
C2711 C2707 1.429 . S
C2711 C2712 1.523 . S
C2712 C2696 1.368 . S
C2712 C2708 1.368 . S
C2712 C2711 1.523 . S
H2713 C2688 0.950 . S
H2714 C2690 0.950 . S
H2715 C2691 0.949 . S
H2716 C2693 0.950 . S
H2717 C2695 0.950 . S
C2718 C2719 1.349 . S
C2718 C2720 1.327 . S
C2718 H2743 0.950 . S
C2719 C2718 1.349 . S
C2719 C2735 1.349 1_655 S
C2720 C2718 1.327 . S
C2720 C2739 1.429 1_655 S
C2720 H2744 0.950 . S
C2721 C2738 1.574 . S
C2721 C2740 1.368 . S
C2721 H2745 0.949 . S
H2722 C2726 0.949 . S
C2723 C2724 1.349 . S
C2723 C2725 1.327 . S
C2723 H2746 0.950 . S
C2724 C2723 1.349 . S
C2724 C2736 1.349 . S
C2725 C2723 1.327 . S
C2725 C2741 1.429 . S
C2725 H2747 0.950 . S
C2726 H2722 0.949 . S
C2726 C2734 1.574 . S
C2726 C2742 1.368 . S
H2727 C2735 0.950 . S
H2728 C2733 0.950 . S
H2729 C2734 0.949 . S
H2730 C2736 0.950 1_556 S
H2731 C2737 0.950 . S
H2732 C2738 0.949 . S
C2733 H2728 0.950 . S
C2733 C2735 1.327 . S
C2733 C2739 1.429 . S
C2734 C2726 1.574 . S
C2734 H2729 0.949 . S
C2734 C2740 1.368 . S
C2735 C2719 1.349 1_455 S
C2735 H2727 0.950 . S
C2735 C2733 1.327 . S
C2736 C2724 1.349 . S
C2736 H2730 0.950 1_554 S
C2736 C2737 1.327 . S
C2737 H2731 0.950 . S
C2737 C2736 1.327 . S
C2737 C2741 1.429 . S
C2738 C2721 1.574 . S
C2738 H2732 0.949 . S
C2738 C2742 1.368 . S
C2739 C2720 1.429 1_455 S
C2739 C2733 1.429 . S
C2739 C2740 1.523 . S
C2740 C2721 1.368 . S
C2740 C2734 1.368 . S
C2740 C2739 1.523 . S
C2741 C2725 1.429 . S
C2741 C2737 1.429 . S
C2741 C2742 1.523 . S
C2742 C2726 1.368 . S
C2742 C2738 1.368 . S
C2742 C2741 1.523 . S
H2743 C2718 0.950 . S
H2744 C2720 0.950 . S
H2745 C2721 0.949 . S
H2746 C2723 0.950 . S
H2747 C2725 0.950 . S
C2748 C2749 1.349 . S
C2748 C2750 1.327 1_455 S
C2748 H2773 0.950 . S
C2749 C2748 1.349 . S
C2749 C2765 1.349 . S
C2750 C2748 1.327 1_655 S
C2750 C2769 1.429 . S
C2750 H2774 0.950 . S
C2751 C2768 1.574 . S
C2751 C2770 1.368 . S
C2751 H2775 0.949 . S
H2752 C2756 0.949 . S
C2753 C2754 1.349 . S
C2753 C2755 1.327 . S
C2753 H2776 0.950 . S
C2754 C2753 1.349 . S
C2754 C2766 1.349 . S
C2755 C2753 1.327 . S
C2755 C2771 1.429 . S
C2755 H2777 0.950 . S
C2756 H2752 0.949 . S
C2756 C2764 1.574 . S
C2756 C2772 1.368 . S
H2757 C2765 0.950 . S
H2758 C2763 0.950 . S
H2759 C2764 0.949 . S
H2760 C2766 0.950 . S
H2761 C2767 0.950 . S
H2762 C2768 0.949 . S
C2763 H2758 0.950 . S
C2763 C2765 1.327 . S
C2763 C2769 1.429 1_455 S
C2764 C2756 1.574 . S
C2764 H2759 0.949 . S
C2764 C2770 1.368 . S
C2765 C2749 1.349 . S
C2765 H2757 0.950 . S
C2765 C2763 1.327 . S
C2766 C2754 1.349 . S
C2766 H2760 0.950 . S
C2766 C2767 1.327 . S
C2767 H2761 0.950 . S
C2767 C2766 1.327 . S
C2767 C2771 1.429 . S
C2768 C2751 1.574 . S
C2768 H2762 0.949 . S
C2768 C2772 1.368 . S
C2769 C2750 1.429 . S
C2769 C2763 1.429 1_655 S
C2769 C2770 1.523 . S
C2770 C2751 1.368 . S
C2770 C2764 1.368 . S
C2770 C2769 1.523 . S
C2771 C2755 1.429 . S
C2771 C2767 1.429 . S
C2771 C2772 1.523 . S
C2772 C2756 1.368 . S
C2772 C2768 1.368 . S
C2772 C2771 1.523 . S
H2773 C2748 0.950 . S
H2774 C2750 0.950 . S
H2775 C2751 0.949 . S
H2776 C2753 0.950 . S
H2777 C2755 0.950 . S
C2778 C2779 1.349 . S
C2778 C2780 1.327 . S
C2778 H2803 0.950 . S
C2779 C2778 1.349 . S
C2779 C2795 1.349 . S
C2780 C2778 1.327 . S
C2780 C2799 1.429 . S
C2780 H2804 0.950 . S
C2781 C2798 1.574 . S
C2781 C2800 1.368 . S
C2781 H2805 0.949 . S
H2782 C2786 0.949 . S
C2783 C2784 1.349 . S
C2783 C2785 1.327 . S
C2783 H2806 0.950 1_556 S
C2784 C2783 1.349 . S
C2784 C2796 1.349 . S
C2785 C2783 1.327 . S
C2785 C2801 1.429 . S
C2785 H2807 0.950 . S
C2786 H2782 0.949 . S
C2786 C2794 1.574 . S
C2786 C2802 1.368 . S
H2787 C2795 0.950 . S
H2788 C2793 0.950 . S
H2789 C2794 0.949 . S
H2790 C2796 0.950 . S
H2791 C2797 0.950 . S
H2792 C2798 0.949 . S
C2793 H2788 0.950 . S
C2793 C2795 1.327 . S
C2793 C2799 1.429 . S
C2794 C2786 1.574 . S
C2794 H2789 0.949 . S
C2794 C2800 1.368 . S
C2795 C2779 1.349 . S
C2795 H2787 0.950 . S
C2795 C2793 1.327 . S
C2796 C2784 1.349 . S
C2796 H2790 0.950 . S
C2796 C2797 1.327 . S
C2797 H2791 0.950 . S
C2797 C2796 1.327 . S
C2797 C2801 1.429 . S
C2798 C2781 1.574 . S
C2798 H2792 0.949 . S
C2798 C2802 1.368 . S
C2799 C2780 1.429 . S
C2799 C2793 1.429 . S
C2799 C2800 1.523 . S
C2800 C2781 1.368 . S
C2800 C2794 1.368 . S
C2800 C2799 1.523 . S
C2801 C2785 1.429 . S
C2801 C2797 1.429 . S
C2801 C2802 1.523 . S
C2802 C2786 1.368 . S
C2802 C2798 1.368 . S
C2802 C2801 1.523 . S
H2803 C2778 0.950 . S
H2804 C2780 0.950 . S
H2805 C2781 0.949 . S
H2806 C2783 0.950 1_554 S
H2807 C2785 0.950 . S
C2808 C2809 1.349 . S
C2808 C2810 1.327 . S
C2808 H2833 0.950 . S
C2809 C2808 1.349 . S
C2809 C2825 1.349 . S
C2810 C2808 1.327 . S
C2810 C2829 1.429 . S
C2810 H2834 0.950 . S
C2811 C2828 1.574 . S
C2811 C2830 1.368 . S
C2811 H2835 0.949 . S
H2812 C2816 0.949 . S
C2813 C2814 1.349 . S
C2813 C2815 1.327 . S
C2813 H2836 0.950 . S
C2814 C2813 1.349 . S
C2814 C2826 1.349 . S
C2815 C2813 1.327 . S
C2815 C2831 1.429 . S
C2815 H2837 0.950 . S
C2816 H2812 0.949 . S
C2816 C2824 1.574 . S
C2816 C2832 1.368 . S
H2817 C2825 0.950 . S
H2818 C2823 0.950 . S
H2819 C2824 0.949 . S
H2820 C2826 0.950 . S
H2821 C2827 0.950 . S
H2822 C2828 0.949 . S
C2823 H2818 0.950 . S
C2823 C2825 1.327 . S
C2823 C2829 1.429 . S
C2824 C2816 1.574 . S
C2824 H2819 0.949 . S
C2824 C2830 1.368 . S
C2825 C2809 1.349 . S
C2825 H2817 0.950 . S
C2825 C2823 1.327 . S
C2826 C2814 1.349 . S
C2826 H2820 0.950 . S
C2826 C2827 1.327 . S
C2827 H2821 0.950 . S
C2827 C2826 1.327 . S
C2827 C2831 1.429 . S
C2828 C2811 1.574 . S
C2828 H2822 0.949 . S
C2828 C2832 1.368 . S
C2829 C2810 1.429 . S
C2829 C2823 1.429 . S
C2829 C2830 1.523 . S
C2830 C2811 1.368 . S
C2830 C2824 1.368 . S
C2830 C2829 1.523 . S
C2831 C2815 1.429 . S
C2831 C2827 1.429 . S
C2831 C2832 1.523 . S
C2832 C2816 1.368 . S
C2832 C2828 1.368 . S
C2832 C2831 1.523 . S
H2833 C2808 0.950 . S
H2834 C2810 0.950 . S
H2835 C2811 0.949 . S
H2836 C2813 0.950 . S
H2837 C2815 0.950 . S
C2838 C2839 1.349 . S
C2838 C2840 1.327 . S
C2838 H2863 0.950 . S
C2839 C2838 1.349 . S
C2839 C2855 1.349 . S
C2840 C2838 1.327 . S
C2840 C2859 1.429 . S
C2840 H2864 0.950 . S
C2841 C2858 1.574 . S
C2841 C2860 1.368 . S
C2841 H2865 0.949 . S
H2842 C2846 0.949 . S
C2843 C2844 1.349 . S
C2843 C2845 1.327 1_565 S
C2843 H2866 0.950 . S
C2844 C2843 1.349 . S
C2844 C2856 1.349 . S
C2845 C2843 1.327 1_545 S
C2845 C2861 1.429 . S
C2845 H2867 0.950 . S
C2846 H2842 0.949 . S
C2846 C2854 1.574 . S
C2846 C2862 1.368 . S
H2847 C2855 0.950 1_655 S
H2848 C2853 0.950 . S
H2849 C2854 0.949 . S
H2850 C2856 0.950 . S
H2851 C2857 0.950 . S
H2852 C2858 0.949 . S
C2853 H2848 0.950 . S
C2853 C2855 1.327 . S
C2853 C2859 1.429 . S
C2854 C2846 1.574 . S
C2854 H2849 0.949 . S
C2854 C2860 1.368 . S
C2855 C2839 1.349 . S
C2855 H2847 0.950 1_455 S
C2855 C2853 1.327 . S
C2856 C2844 1.349 . S
C2856 H2850 0.950 . S
C2856 C2857 1.327 1_565 S
C2857 H2851 0.950 . S
C2857 C2856 1.327 1_545 S
C2857 C2861 1.429 . S
C2858 C2841 1.574 . S
C2858 H2852 0.949 . S
C2858 C2862 1.368 . S
C2859 C2840 1.429 . S
C2859 C2853 1.429 . S
C2859 C2860 1.523 . S
C2860 C2841 1.368 . S
C2860 C2854 1.368 . S
C2860 C2859 1.523 . S
C2861 C2845 1.429 . S
C2861 C2857 1.429 . S
C2861 C2862 1.523 . S
C2862 C2846 1.368 . S
C2862 C2858 1.368 . S
C2862 C2861 1.523 . S
H2863 C2838 0.950 . S
H2864 C2840 0.950 . S
H2865 C2841 0.949 . S
H2866 C2843 0.950 . S
H2867 C2845 0.950 . S
C2868 C2869 1.349 . S
C2868 C2870 1.327 . S
C2868 H2893 0.950 . S
C2869 C2868 1.349 . S
C2869 C2885 1.349 . S
C2870 C2868 1.327 . S
C2870 C2889 1.429 . S
C2870 H2894 0.950 . S
C2871 C2888 1.574 . S
C2871 C2890 1.368 . S
C2871 H2895 0.949 . S
H2872 C2876 0.949 1_545 S
C2873 C2874 1.349 1_565 S
C2873 C2875 1.327 . S
C2873 H2896 0.950 . S
C2874 C2873 1.349 1_545 S
C2874 C2886 1.349 . S
C2875 C2873 1.327 . S
C2875 C2891 1.429 . S
C2875 H2897 0.950 . S
C2876 H2872 0.949 1_565 S
C2876 C2884 1.574 . S
C2876 C2892 1.368 . S
H2877 C2885 0.950 . S
H2878 C2883 0.950 . S
H2879 C2884 0.949 . S
H2880 C2886 0.950 . S
H2881 C2887 0.950 . S
H2882 C2888 0.949 . S
C2883 H2878 0.950 . S
C2883 C2885 1.327 . S
C2883 C2889 1.429 . S
C2884 C2876 1.574 . S
C2884 H2879 0.949 . S
C2884 C2890 1.368 . S
C2885 C2869 1.349 . S
C2885 H2877 0.950 . S
C2885 C2883 1.327 . S
C2886 C2874 1.349 . S
C2886 H2880 0.950 . S
C2886 C2887 1.327 . S
C2887 H2881 0.950 . S
C2887 C2886 1.327 . S
C2887 C2891 1.429 1_545 S
C2888 C2871 1.574 . S
C2888 H2882 0.949 . S
C2888 C2892 1.368 . S
C2889 C2870 1.429 . S
C2889 C2883 1.429 . S
C2889 C2890 1.523 . S
C2890 C2871 1.368 . S
C2890 C2884 1.368 . S
C2890 C2889 1.523 . S
C2891 C2875 1.429 . S
C2891 C2887 1.429 1_565 S
C2891 C2892 1.523 . S
C2892 C2876 1.368 . S
C2892 C2888 1.368 . S
C2892 C2891 1.523 . S
H2893 C2868 0.950 . S
H2894 C2870 0.950 . S
H2895 C2871 0.949 . S
H2896 C2873 0.950 . S
H2897 C2875 0.950 . S
C2898 C2899 1.349 . S
C2898 C2900 1.327 . S
C2898 H2923 0.950 1_655 S
C2899 C2898 1.349 . S
C2899 C2915 1.349 . S
C2900 C2898 1.327 . S
C2900 C2919 1.429 . S
C2900 H2924 0.950 . S
C2901 C2918 1.574 . S
C2901 C2920 1.368 . S
C2901 H2925 0.949 . S
H2902 C2906 0.949 . S
C2903 C2904 1.349 . S
C2903 C2905 1.327 . S
C2903 H2926 0.950 . S
C2904 C2903 1.349 . S
C2904 C2916 1.349 . S
C2905 C2903 1.327 . S
C2905 C2921 1.429 . S
C2905 H2927 0.950 . S
C2906 H2902 0.949 . S
C2906 C2914 1.574 . S
C2906 C2922 1.368 . S
H2907 C2915 0.950 . S
H2908 C2913 0.950 . S
H2909 C2914 0.949 . S
H2910 C2916 0.950 . S
H2911 C2917 0.950 . S
H2912 C2918 0.949 . S
C2913 H2908 0.950 . S
C2913 C2915 1.327 . S
C2913 C2919 1.429 . S
C2914 C2906 1.574 . S
C2914 H2909 0.949 . S
C2914 C2920 1.368 . S
C2915 C2899 1.349 . S
C2915 H2907 0.950 . S
C2915 C2913 1.327 . S
C2916 C2904 1.349 . S
C2916 H2910 0.950 . S
C2916 C2917 1.327 . S
C2917 H2911 0.950 . S
C2917 C2916 1.327 . S
C2917 C2921 1.429 . S
C2918 C2901 1.574 . S
C2918 H2912 0.949 . S
C2918 C2922 1.368 . S
C2919 C2900 1.429 . S
C2919 C2913 1.429 . S
C2919 C2920 1.523 . S
C2920 C2901 1.368 . S
C2920 C2914 1.368 . S
C2920 C2919 1.523 . S
C2921 C2905 1.429 . S
C2921 C2917 1.429 . S
C2921 C2922 1.523 . S
C2922 C2906 1.368 . S
C2922 C2918 1.368 . S
C2922 C2921 1.523 . S
H2923 C2898 0.950 1_455 S
H2924 C2900 0.950 . S
H2925 C2901 0.949 . S
H2926 C2903 0.950 . S
H2927 C2905 0.950 . S
C2928 C2929 1.349 . S
C2928 C2930 1.327 . S
C2928 H2953 0.950 . S
C2929 C2928 1.349 . S
C2929 C2945 1.349 . S
C2930 C2928 1.327 . S
C2930 C2949 1.429 . S
C2930 H2954 0.950 . S
C2931 C2948 1.574 . S
C2931 C2950 1.368 . S
C2931 H2955 0.949 . S
H2932 C2936 0.949 . S
C2933 C2934 1.349 . S
C2933 C2935 1.327 . S
C2933 H2956 0.950 . S
C2934 C2933 1.349 . S
C2934 C2946 1.349 . S
C2935 C2933 1.327 . S
C2935 C2951 1.429 . S
C2935 H2957 0.950 . S
C2936 H2932 0.949 . S
C2936 C2944 1.574 . S
C2936 C2952 1.368 . S
H2937 C2945 0.950 . S
H2938 C2943 0.950 . S
H2939 C2944 0.949 . S
H2940 C2946 0.950 . S
H2941 C2947 0.950 . S
H2942 C2948 0.949 . S
C2943 H2938 0.950 . S
C2943 C2945 1.327 . S
C2943 C2949 1.429 . S
C2944 C2936 1.574 . S
C2944 H2939 0.949 . S
C2944 C2950 1.368 . S
C2945 C2929 1.349 . S
C2945 H2937 0.950 . S
C2945 C2943 1.327 . S
C2946 C2934 1.349 . S
C2946 H2940 0.950 . S
C2946 C2947 1.327 . S
C2947 H2941 0.950 . S
C2947 C2946 1.327 . S
C2947 C2951 1.429 . S
C2948 C2931 1.574 . S
C2948 H2942 0.949 . S
C2948 C2952 1.368 . S
C2949 C2930 1.429 . S
C2949 C2943 1.429 . S
C2949 C2950 1.523 . S
C2950 C2931 1.368 . S
C2950 C2944 1.368 . S
C2950 C2949 1.523 . S
C2951 C2935 1.429 . S
C2951 C2947 1.429 . S
C2951 C2952 1.523 . S
C2952 C2936 1.368 . S
C2952 C2948 1.368 . S
C2952 C2951 1.523 . S
H2953 C2928 0.950 . S
H2954 C2930 0.950 . S
H2955 C2931 0.949 . S
H2956 C2933 0.950 . S
H2957 C2935 0.950 . S
C2958 C2959 1.349 . S
C2958 C2960 1.327 . S
C2958 H2983 0.950 . S
C2959 C2958 1.349 . S
C2959 C2975 1.349 . S
C2960 C2958 1.327 . S
C2960 C2979 1.429 . S
C2960 H2984 0.950 . S
C2961 C2978 1.574 . S
C2961 C2980 1.368 . S
C2961 H2985 0.949 . S
H2962 C2966 0.949 . S
C2963 C2964 1.345 1_554 S
C2963 C2965 1.331 . S
C2963 H2986 0.948 1_554 S
C2964 C2963 1.345 1_556 S
C2964 C2976 1.349 . S
C2965 C2963 1.331 . S
C2965 C2981 1.429 . S
C2965 H2987 0.950 . S
C2966 H2962 0.949 . S
C2966 C2974 1.574 . S
C2966 C2982 1.368 . S
H2967 C2975 0.950 . S
H2968 C2973 0.950 . S
H2969 C2974 0.949 . S
H2970 C2976 0.950 . S
H2971 C2977 0.950 . S
H2972 C2978 0.949 . S
C2973 H2968 0.950 . S
C2973 C2975 1.327 . S
C2973 C2979 1.429 . S
C2974 C2966 1.574 . S
C2974 H2969 0.949 . S
C2974 C2980 1.368 . S
C2975 C2959 1.349 . S
C2975 H2967 0.950 . S
C2975 C2973 1.327 . S
C2976 C2964 1.349 . S
C2976 H2970 0.950 . S
C2976 C2977 1.327 1_556 S
C2977 H2971 0.950 . S
C2977 C2976 1.327 1_554 S
C2977 C2981 1.429 . S
C2978 C2961 1.574 . S
C2978 H2972 0.949 . S
C2978 C2982 1.368 . S
C2979 C2960 1.429 . S
C2979 C2973 1.429 . S
C2979 C2980 1.523 . S
C2980 C2961 1.368 . S
C2980 C2974 1.368 . S
C2980 C2979 1.523 . S
C2981 C2965 1.429 . S
C2981 C2977 1.429 . S
C2981 C2982 1.523 . S
C2982 C2966 1.368 . S
C2982 C2978 1.368 . S
C2982 C2981 1.523 . S
H2983 C2958 0.950 . S
H2984 C2960 0.950 . S
H2985 C2961 0.949 . S
H2986 C2963 0.948 1_556 S
H2987 C2965 0.950 . S
C2988 C2989 1.349 . S
C2988 C2990 1.327 . S
C2988 H3013 0.950 . S
C2989 C2988 1.349 . S
C2989 C3005 1.349 . S
C2990 C2988 1.327 . S
C2990 C3009 1.429 . S
C2990 H3014 0.950 . S
C2991 C3008 1.574 . S
C2991 C3010 1.368 . S
C2991 H3015 0.949 . S
H2992 C2996 0.949 . S
C2993 C2994 1.349 . S
C2993 C2995 1.327 . S
C2993 H3016 0.950 . S
C2994 C2993 1.349 . S
C2994 C3006 1.349 . S
C2995 C2993 1.327 . S
C2995 C3011 1.429 . S
C2995 H3017 0.950 . S
C2996 H2992 0.949 . S
C2996 C3004 1.574 . S
C2996 C3012 1.368 . S
H2997 C3005 0.950 . S
H2998 C3003 0.950 . S
H2999 C3004 0.949 . S
H3000 C3006 0.950 . S
H3001 C3007 0.950 . S
H3002 C3008 0.949 . S
C3003 H2998 0.950 . S
C3003 C3005 1.327 . S
C3003 C3009 1.429 . S
C3004 C2996 1.574 . S
C3004 H2999 0.949 . S
C3004 C3010 1.368 . S
C3005 C2989 1.349 . S
C3005 H2997 0.950 . S
C3005 C3003 1.327 . S
C3006 C2994 1.349 . S
C3006 H3000 0.950 . S
C3006 C3007 1.327 . S
C3007 H3001 0.950 . S
C3007 C3006 1.327 . S
C3007 C3011 1.429 . S
C3008 C2991 1.574 . S
C3008 H3002 0.949 . S
C3008 C3012 1.368 . S
C3009 C2990 1.429 . S
C3009 C3003 1.429 . S
C3009 C3010 1.523 . S
C3010 C2991 1.368 . S
C3010 C3004 1.368 . S
C3010 C3009 1.523 . S
C3011 C2995 1.429 . S
C3011 C3007 1.429 . S
C3011 C3012 1.523 . S
C3012 C2996 1.368 . S
C3012 C3008 1.368 . S
C3012 C3011 1.523 . S
H3013 C2988 0.950 . S
H3014 C2990 0.950 . S
H3015 C2991 0.949 . S
H3016 C2993 0.950 . S
H3017 C2995 0.950 . S
C3018 C3019 1.349 . S
C3018 C3020 1.327 . S
C3018 H3043 0.950 . S
C3019 C3018 1.349 . S
C3019 C3035 1.349 . S
C3020 C3018 1.327 . S
C3020 C3039 1.429 . S
C3020 H3044 0.950 . S
C3021 C3038 1.574 . S
C3021 C3040 1.368 . S
C3021 H3045 0.949 . S
H3022 C3026 0.949 . S
C3023 C3024 1.349 . S
C3023 C3025 1.327 1_554 S
C3023 H3046 0.950 . S
C3024 C3023 1.349 . S
C3024 C3036 1.349 . S
C3025 C3023 1.327 1_556 S
C3025 C3041 1.429 . S
C3025 H3047 0.950 . S
C3026 H3022 0.949 . S
C3026 C3034 1.574 . S
C3026 C3042 1.368 . S
H3027 C3035 0.950 . S
H3028 C3033 0.950 . S
H3029 C3034 0.949 . S
H3030 C3036 0.950 . S
H3031 C3037 0.950 . S
H3032 C3038 0.949 . S
C3033 H3028 0.950 . S
C3033 C3035 1.327 . S
C3033 C3039 1.429 . S
C3034 C3026 1.574 . S
C3034 H3029 0.949 . S
C3034 C3040 1.368 . S
C3035 C3019 1.349 . S
C3035 H3027 0.950 . S
C3035 C3033 1.327 . S
C3036 C3024 1.349 . S
C3036 H3030 0.950 . S
C3036 C3037 1.327 1_554 S
C3037 H3031 0.950 . S
C3037 C3036 1.327 1_556 S
C3037 C3041 1.429 . S
C3038 C3021 1.574 . S
C3038 H3032 0.949 . S
C3038 C3042 1.368 . S
C3039 C3020 1.429 . S
C3039 C3033 1.429 . S
C3039 C3040 1.523 . S
C3040 C3021 1.368 . S
C3040 C3034 1.368 . S
C3040 C3039 1.523 . S
C3041 C3025 1.429 . S
C3041 C3037 1.429 . S
C3041 C3042 1.523 . S
C3042 C3026 1.368 . S
C3042 C3038 1.368 . S
C3042 C3041 1.523 . S
H3043 C3018 0.950 . S
H3044 C3020 0.950 . S
H3045 C3021 0.949 . S
H3046 C3023 0.950 . S
H3047 C3025 0.950 . S
C3048 C3049 1.349 . S
C3048 C3050 1.327 . S
C3048 H3073 0.950 . S
C3049 C3048 1.349 . S
C3049 C3065 1.349 . S
C3050 C3048 1.327 . S
C3050 C3069 1.429 . S
C3050 H3074 0.950 . S
C3051 C3068 1.574 . S
C3051 C3070 1.368 . S
C3051 H3075 0.949 . S
H3052 C3056 0.949 . S
C3053 C3054 1.349 . S
C3053 C3055 1.327 . S
C3053 H3076 0.950 . S
C3054 C3053 1.349 . S
C3054 C3066 1.349 . S
C3055 C3053 1.327 . S
C3055 C3071 1.429 . S
C3055 H3077 0.950 . S
C3056 H3052 0.949 . S
C3056 C3064 1.574 . S
C3056 C3072 1.368 . S
H3057 C3065 0.950 . S
H3058 C3063 0.950 . S
H3059 C3064 0.949 . S
H3060 C3066 0.950 . S
H3061 C3067 0.950 . S
H3062 C3068 0.949 . S
C3063 H3058 0.950 . S
C3063 C3065 1.327 . S
C3063 C3069 1.429 . S
C3064 C3056 1.574 . S
C3064 H3059 0.949 . S
C3064 C3070 1.368 . S
C3065 C3049 1.349 . S
C3065 H3057 0.950 . S
C3065 C3063 1.327 . S
C3066 C3054 1.349 . S
C3066 H3060 0.950 . S
C3066 C3067 1.327 . S
C3067 H3061 0.950 . S
C3067 C3066 1.327 . S
C3067 C3071 1.429 . S
C3068 C3051 1.574 . S
C3068 H3062 0.949 . S
C3068 C3072 1.368 . S
C3069 C3050 1.429 . S
C3069 C3063 1.429 . S
C3069 C3070 1.523 . S
C3070 C3051 1.368 . S
C3070 C3064 1.368 . S
C3070 C3069 1.523 . S
C3071 C3055 1.429 . S
C3071 C3067 1.429 . S
C3071 C3072 1.523 . S
C3072 C3056 1.368 . S
C3072 C3068 1.368 . S
C3072 C3071 1.523 . S
H3073 C3048 0.950 . S
H3074 C3050 0.950 . S
H3075 C3051 0.949 . S
H3076 C3053 0.950 . S
H3077 C3055 0.950 . S
C3078 C3079 1.349 . S
C3078 C3080 1.327 . S
C3078 H3103 0.950 . S
C3079 C3078 1.349 . S
C3079 C3095 1.349 . S
C3080 C3078 1.327 . S
C3080 C3099 1.429 . S
C3080 H3104 0.950 . S
C3081 C3098 1.574 . S
C3081 C3100 1.368 . S
C3081 H3105 0.949 . S
H3082 C3086 0.949 . S
C3083 C3084 1.349 . S
C3083 C3085 1.327 1_455 S
C3083 H3106 0.950 . S
C3084 C3083 1.349 . S
C3084 C3096 1.349 . S
C3085 C3083 1.327 1_655 S
C3085 C3101 1.429 . S
C3085 H3107 0.950 . S
C3086 H3082 0.949 . S
C3086 C3094 1.574 . S
C3086 C3102 1.368 . S
H3087 C3095 0.950 . S
H3088 C3093 0.950 . S
H3089 C3094 0.949 . S
H3090 C3096 0.950 . S
H3091 C3097 0.950 . S
H3092 C3098 0.949 . S
C3093 H3088 0.950 . S
C3093 C3095 1.327 . S
C3093 C3099 1.429 . S
C3094 C3086 1.574 . S
C3094 H3089 0.949 . S
C3094 C3100 1.368 . S
C3095 C3079 1.349 . S
C3095 H3087 0.950 . S
C3095 C3093 1.327 . S
C3096 C3084 1.349 . S
C3096 H3090 0.950 . S
C3096 C3097 1.327 1_455 S
C3097 H3091 0.950 . S
C3097 C3096 1.327 1_655 S
C3097 C3101 1.429 . S
C3098 C3081 1.574 . S
C3098 H3092 0.949 . S
C3098 C3102 1.368 . S
C3099 C3080 1.429 . S
C3099 C3093 1.429 . S
C3099 C3100 1.523 . S
C3100 C3081 1.368 . S
C3100 C3094 1.368 . S
C3100 C3099 1.523 . S
C3101 C3085 1.429 . S
C3101 C3097 1.429 . S
C3101 C3102 1.523 . S
C3102 C3086 1.368 . S
C3102 C3098 1.368 . S
C3102 C3101 1.523 . S
H3103 C3078 0.950 . S
H3104 C3080 0.950 . S
H3105 C3081 0.949 . S
H3106 C3083 0.950 . S
H3107 C3085 0.950 . S
C3108 C3109 1.349 1_455 S
C3108 C3110 1.327 . S
C3108 H3133 0.950 . S
C3109 C3108 1.349 1_655 S
C3109 C3125 1.349 . S
C3110 C3108 1.327 . S
C3110 C3129 1.429 . S
C3110 H3134 0.950 . S
C3111 C3128 1.574 . S
C3111 C3130 1.368 . S
C3111 H3135 0.949 . S
H3112 C3116 0.949 . S
C3113 C3114 1.349 . S
C3113 C3115 1.327 . S
C3113 H3136 0.950 . S
C3114 C3113 1.349 . S
C3114 C3126 1.349 . S
C3115 C3113 1.327 . S
C3115 C3131 1.429 . S
C3115 H3137 0.950 . S
C3116 H3112 0.949 . S
C3116 C3124 1.574 . S
C3116 C3132 1.368 . S
H3117 C3125 0.950 . S
H3118 C3123 0.949 1_655 S
H3119 C3124 0.949 . S
H3120 C3126 0.950 . S
H3121 C3127 0.950 . S
H3122 C3128 0.949 . S
C3123 H3118 0.949 1_455 S
C3123 C3125 1.309 1_455 S
C3123 C3129 1.448 . S
C3124 C3116 1.574 . S
C3124 H3119 0.949 . S
C3124 C3130 1.368 . S
C3125 C3109 1.349 . S
C3125 H3117 0.950 . S
C3125 C3123 1.309 1_655 S
C3126 C3114 1.349 . S
C3126 H3120 0.950 . S
C3126 C3127 1.327 . S
C3127 H3121 0.950 . S
C3127 C3126 1.327 . S
C3127 C3131 1.429 . S
C3128 C3111 1.574 . S
C3128 H3122 0.949 . S
C3128 C3132 1.368 . S
C3129 C3110 1.429 . S
C3129 C3123 1.448 . S
C3129 C3130 1.523 . S
C3130 C3111 1.368 . S
C3130 C3124 1.368 . S
C3130 C3129 1.523 . S
C3131 C3115 1.429 . S
C3131 C3127 1.429 . S
C3131 C3132 1.523 . S
C3132 C3116 1.368 . S
C3132 C3128 1.368 . S
C3132 C3131 1.523 . S
H3133 C3108 0.950 . S
H3134 C3110 0.950 . S
H3135 C3111 0.949 . S
H3136 C3113 0.950 . S
H3137 C3115 0.950 . S
C3138 C3139 1.349 . S
C3138 C3140 1.327 . S
C3138 H3163 0.950 . S
C3139 C3138 1.349 . S
C3139 C3155 1.349 . S
C3140 C3138 1.327 . S
C3140 C3159 1.429 . S
C3140 H3164 0.950 . S
C3141 C3158 1.574 . S
C3141 C3160 1.368 . S
C3141 H3165 0.949 . S
H3142 C3146 0.949 . S
C3143 C3144 1.349 . S
C3143 C3145 1.327 . S
C3143 H3166 0.950 . S
C3144 C3143 1.349 . S
C3144 C3156 1.349 . S
C3145 C3143 1.327 . S
C3145 C3161 1.429 . S
C3145 H3167 0.950 . S
C3146 H3142 0.949 . S
C3146 C3154 1.574 . S
C3146 C3162 1.368 . S
H3147 C3155 0.950 . S
H3148 C3153 0.950 . S
H3149 C3154 0.949 . S
H3150 C3156 0.950 . S
H3151 C3157 0.950 . S
H3152 C3158 0.949 . S
C3153 H3148 0.950 . S
C3153 C3155 1.327 . S
C3153 C3159 1.429 . S
C3154 C3146 1.574 . S
C3154 H3149 0.949 . S
C3154 C3160 1.368 . S
C3155 C3139 1.349 . S
C3155 H3147 0.950 . S
C3155 C3153 1.327 . S
C3156 C3144 1.349 . S
C3156 H3150 0.950 . S
C3156 C3157 1.327 . S
C3157 H3151 0.950 . S
C3157 C3156 1.327 . S
C3157 C3161 1.429 . S
C3158 C3141 1.574 . S
C3158 H3152 0.949 . S
C3158 C3162 1.368 . S
C3159 C3140 1.429 . S
C3159 C3153 1.429 . S
C3159 C3160 1.523 . S
C3160 C3141 1.368 . S
C3160 C3154 1.368 . S
C3160 C3159 1.523 . S
C3161 C3145 1.429 . S
C3161 C3157 1.429 . S
C3161 C3162 1.523 . S
C3162 C3146 1.368 . S
C3162 C3158 1.368 . S
C3162 C3161 1.523 . S
H3163 C3138 0.950 . S
H3164 C3140 0.950 . S
H3165 C3141 0.949 . S
H3166 C3143 0.950 . S
H3167 C3145 0.950 . S
C3168 C3169 1.349 . S
C3168 C3170 1.327 . S
C3168 H3193 0.950 . S
C3169 C3168 1.349 . S
C3169 C3185 1.349 . S
C3170 C3168 1.327 . S
C3170 C3189 1.429 . S
C3170 H3194 0.950 . S
C3171 C3188 1.574 . S
C3171 C3190 1.368 . S
C3171 H3195 0.949 . S
H3172 C3176 0.949 . S
C3173 C3174 1.349 . S
C3173 C3175 1.327 . S
C3173 H3196 0.950 . S
C3174 C3173 1.349 . S
C3174 C3186 1.349 . S
C3175 C3173 1.327 . S
C3175 C3191 1.429 . S
C3175 H3197 0.950 . S
C3176 H3172 0.949 . S
C3176 C3184 1.574 . S
C3176 C3192 1.368 . S
H3177 C3185 0.950 . S
H3178 C3183 0.950 . S
H3179 C3184 0.949 . S
H3180 C3186 0.950 . S
H3181 C3187 0.950 . S
H3182 C3188 0.949 . S
C3183 H3178 0.950 . S
C3183 C3185 1.327 . S
C3183 C3189 1.429 . S
C3184 C3176 1.574 . S
C3184 H3179 0.949 . S
C3184 C3190 1.368 . S
C3185 C3169 1.349 . S
C3185 H3177 0.950 . S
C3185 C3183 1.327 . S
C3186 C3174 1.349 . S
C3186 H3180 0.950 . S
C3186 C3187 1.327 . S
C3187 H3181 0.950 . S
C3187 C3186 1.327 . S
C3187 C3191 1.429 . S
C3188 C3171 1.574 . S
C3188 H3182 0.949 . S
C3188 C3192 1.368 . S
C3189 C3170 1.429 . S
C3189 C3183 1.429 . S
C3189 C3190 1.523 . S
C3190 C3171 1.368 . S
C3190 C3184 1.368 . S
C3190 C3189 1.523 . S
C3191 C3175 1.429 . S
C3191 C3187 1.429 . S
C3191 C3192 1.523 . S
C3192 C3176 1.368 . S
C3192 C3188 1.368 . S
C3192 C3191 1.523 . S
H3193 C3168 0.950 . S
H3194 C3170 0.950 . S
H3195 C3171 0.949 . S
H3196 C3173 0.950 . S
H3197 C3175 0.950 . S
C3198 C3199 1.349 . S
C3198 C3200 1.327 . S
C3198 H3223 0.950 . S
C3199 C3198 1.349 . S
C3199 C3215 1.349 . S
C3200 C3198 1.327 . S
C3200 C3219 1.429 . S
C3200 H3224 0.950 . S
C3201 C3218 1.574 . S
C3201 C3220 1.368 . S
C3201 H3225 0.949 . S
H3202 C3206 0.949 . S
C3203 C3204 1.349 . S
C3203 C3205 1.327 . S
C3203 H3226 0.950 . S
C3204 C3203 1.349 . S
C3204 C3216 1.349 1_545 S
C3205 C3203 1.327 . S
C3205 C3221 1.429 1_545 S
C3205 H3227 0.950 . S
C3206 H3202 0.949 . S
C3206 C3214 1.574 . S
C3206 C3222 1.368 . S
H3207 C3215 0.950 . S
H3208 C3213 0.950 . S
H3209 C3214 0.949 . S
H3210 C3216 0.950 . S
H3211 C3217 0.950 . S
H3212 C3218 0.949 . S
C3213 H3208 0.950 . S
C3213 C3215 1.327 . S
C3213 C3219 1.429 . S
C3214 C3206 1.574 . S
C3214 H3209 0.949 . S
C3214 C3220 1.368 . S
C3215 C3199 1.349 . S
C3215 H3207 0.950 . S
C3215 C3213 1.327 . S
C3216 C3204 1.349 1_565 S
C3216 H3210 0.950 . S
C3216 C3217 1.327 . S
C3217 H3211 0.950 . S
C3217 C3216 1.327 . S
C3217 C3221 1.429 . S
C3218 C3201 1.574 . S
C3218 H3212 0.949 . S
C3218 C3222 1.368 . S
C3219 C3200 1.429 . S
C3219 C3213 1.429 . S
C3219 C3220 1.523 . S
C3220 C3201 1.368 . S
C3220 C3214 1.368 . S
C3220 C3219 1.523 . S
C3221 C3205 1.429 1_565 S
C3221 C3217 1.429 . S
C3221 C3222 1.523 . S
C3222 C3206 1.368 . S
C3222 C3218 1.368 . S
C3222 C3221 1.523 . S
H3223 C3198 0.950 . S
H3224 C3200 0.950 . S
H3225 C3201 0.949 . S
H3226 C3203 0.950 . S
H3227 C3205 0.950 . S
C3228 C3229 1.349 . S
C3228 C3230 1.327 1_565 S
C3228 H3253 0.950 . S
C3229 C3228 1.349 . S
C3229 C3245 1.359 . S
C3230 C3228 1.327 1_545 S
C3230 C3249 1.429 . S
C3230 H3254 0.950 . S
C3231 C3248 1.574 . S
C3231 C3250 1.368 . S
C3231 H3255 0.949 . S
H3232 C3236 0.949 . S
C3233 C3234 1.349 . S
C3233 C3235 1.327 . S
C3233 H3256 0.950 . S
C3234 C3233 1.349 . S
C3234 C3246 1.349 . S
C3235 C3233 1.327 . S
C3235 C3251 1.429 . S
C3235 H3257 0.950 . S
C3236 H3232 0.949 . S
C3236 C3244 1.574 . S
C3236 C3252 1.368 . S
H3237 C3245 0.952 . S
H3238 C3243 0.950 . S
H3239 C3244 0.949 . S
H3240 C3246 0.950 . S
H3241 C3247 0.950 . S
H3242 C3248 0.949 . S
C3243 H3238 0.950 . S
C3243 C3245 1.316 1_545 S
C3243 C3249 1.429 . S
C3244 C3236 1.574 . S
C3244 H3239 0.949 . S
C3244 C3250 1.368 . S
C3245 C3229 1.359 . S
C3245 H3237 0.952 . S
C3245 C3243 1.316 1_565 S
C3246 C3234 1.349 . S
C3246 H3240 0.950 . S
C3246 C3247 1.327 . S
C3247 H3241 0.950 . S
C3247 C3246 1.327 . S
C3247 C3251 1.429 . S
C3248 C3231 1.574 . S
C3248 H3242 0.949 . S
C3248 C3252 1.368 . S
C3249 C3230 1.429 . S
C3249 C3243 1.429 . S
C3249 C3250 1.523 . S
C3250 C3231 1.368 . S
C3250 C3244 1.368 . S
C3250 C3249 1.523 . S
C3251 C3235 1.429 . S
C3251 C3247 1.429 . S
C3251 C3252 1.523 . S
C3252 C3236 1.368 . S
C3252 C3248 1.368 . S
C3252 C3251 1.523 . S
H3253 C3228 0.950 . S
H3254 C3230 0.950 . S
H3255 C3231 0.949 . S
H3256 C3233 0.950 . S
H3257 C3235 0.950 . S
C3258 C3259 1.349 . S
C3258 C3260 1.327 . S
C3258 H3283 0.950 . S
C3259 C3258 1.349 . S
C3259 C3275 1.349 . S
C3260 C3258 1.327 . S
C3260 C3279 1.429 . S
C3260 H3284 0.950 . S
C3261 C3278 1.574 . S
C3261 C3280 1.368 . S
C3261 H3285 0.949 . S
H3262 C3266 0.949 . S
C3263 C3264 1.349 . S
C3263 C3265 1.327 . S
C3263 H3286 0.950 . S
C3264 C3263 1.349 . S
C3264 C3276 1.349 . S
C3265 C3263 1.327 . S
C3265 C3281 1.429 . S
C3265 H3287 0.950 . S
C3266 H3262 0.949 . S
C3266 C3274 1.574 . S
C3266 C3282 1.368 . S
H3267 C3275 0.950 . S
H3268 C3273 0.950 . S
H3269 C3274 0.949 . S
H3270 C3276 0.950 . S
H3271 C3277 0.950 . S
H3272 C3278 0.949 . S
C3273 H3268 0.950 . S
C3273 C3275 1.327 . S
C3273 C3279 1.429 . S
C3274 C3266 1.574 . S
C3274 H3269 0.949 . S
C3274 C3280 1.368 . S
C3275 C3259 1.349 . S
C3275 H3267 0.950 . S
C3275 C3273 1.327 . S
C3276 C3264 1.349 . S
C3276 H3270 0.950 . S
C3276 C3277 1.327 . S
C3277 H3271 0.950 . S
C3277 C3276 1.327 . S
C3277 C3281 1.429 . S
C3278 C3261 1.574 . S
C3278 H3272 0.949 . S
C3278 C3282 1.368 . S
C3279 C3260 1.429 . S
C3279 C3273 1.429 . S
C3279 C3280 1.523 . S
C3280 C3261 1.368 . S
C3280 C3274 1.368 . S
C3280 C3279 1.523 . S
C3281 C3265 1.429 . S
C3281 C3277 1.429 . S
C3281 C3282 1.523 . S
C3282 C3266 1.368 . S
C3282 C3278 1.368 . S
C3282 C3281 1.523 . S
H3283 C3258 0.950 . S
H3284 C3260 0.950 . S
H3285 C3261 0.949 . S
H3286 C3263 0.950 . S
H3287 C3265 0.950 . S
C3288 C3289 1.349 . S
C3288 C3290 1.327 . S
C3288 H3313 0.950 . S
C3289 C3288 1.349 . S
C3289 C3305 1.349 . S
C3290 C3288 1.327 . S
C3290 C3309 1.429 . S
C3290 H3314 0.950 . S
C3291 C3308 1.574 . S
C3291 C3310 1.368 . S
C3291 H3315 0.949 . S
H3292 C3296 0.949 . S
C3293 C3294 1.349 . S
C3293 C3295 1.327 . S
C3293 H3316 0.950 . S
C3294 C3293 1.349 . S
C3294 C3306 1.349 . S
C3295 C3293 1.327 . S
C3295 C3311 1.429 . S
C3295 H3317 0.950 . S
C3296 H3292 0.949 . S
C3296 C3304 1.574 . S
C3296 C3312 1.368 . S
H3297 C3305 0.950 . S
H3298 C3303 0.950 . S
H3299 C3304 0.949 . S
H3300 C3306 0.950 . S
H3301 C3307 0.950 . S
H3302 C3308 0.949 . S
C3303 H3298 0.950 . S
C3303 C3305 1.327 . S
C3303 C3309 1.429 . S
C3304 C3296 1.574 . S
C3304 H3299 0.949 . S
C3304 C3310 1.368 . S
C3305 C3289 1.349 . S
C3305 H3297 0.950 . S
C3305 C3303 1.327 . S
C3306 C3294 1.349 . S
C3306 H3300 0.950 . S
C3306 C3307 1.327 . S
C3307 H3301 0.950 . S
C3307 C3306 1.327 . S
C3307 C3311 1.429 . S
C3308 C3291 1.574 . S
C3308 H3302 0.949 . S
C3308 C3312 1.368 . S
C3309 C3290 1.429 . S
C3309 C3303 1.429 . S
C3309 C3310 1.523 . S
C3310 C3291 1.368 . S
C3310 C3304 1.368 . S
C3310 C3309 1.523 . S
C3311 C3295 1.429 . S
C3311 C3307 1.429 . S
C3311 C3312 1.523 . S
C3312 C3296 1.368 . S
C3312 C3308 1.368 . S
C3312 C3311 1.523 . S
H3313 C3288 0.950 . S
H3314 C3290 0.950 . S
H3315 C3291 0.949 . S
H3316 C3293 0.950 . S
H3317 C3295 0.950 . S
C3318 C3319 1.349 1_556 S
C3318 C3320 1.327 . S
C3318 H3343 0.950 . S
C3319 C3318 1.349 1_554 S
C3319 C3335 1.349 . S
C3320 C3318 1.327 . S
C3320 C3339 1.429 . S
C3320 H3344 0.950 . S
C3321 C3338 1.574 . S
C3321 C3340 1.368 . S
C3321 H3345 0.949 . S
H3322 C3326 0.949 . S
C3323 C3324 1.349 . S
C3323 C3325 1.327 . S
C3323 H3346 0.950 . S
C3324 C3323 1.349 . S
C3324 C3336 1.349 . S
C3325 C3323 1.327 . S
C3325 C3341 1.429 . S
C3325 H3347 0.950 . S
C3326 H3322 0.949 . S
C3326 C3334 1.574 . S
C3326 C3342 1.368 . S
H3327 C3335 0.950 . S
H3328 C3333 0.950 . S
H3329 C3334 0.949 . S
H3330 C3336 0.950 . S
H3331 C3337 0.950 . S
H3332 C3338 0.949 . S
C3333 H3328 0.950 . S
C3333 C3335 1.327 . S
C3333 C3339 1.429 1_554 S
C3334 C3326 1.574 . S
C3334 H3329 0.949 . S
C3334 C3340 1.368 . S
C3335 C3319 1.349 . S
C3335 H3327 0.950 . S
C3335 C3333 1.327 . S
C3336 C3324 1.349 . S
C3336 H3330 0.950 . S
C3336 C3337 1.327 . S
C3337 H3331 0.950 . S
C3337 C3336 1.327 . S
C3337 C3341 1.429 . S
C3338 C3321 1.574 . S
C3338 H3332 0.949 . S
C3338 C3342 1.368 . S
C3339 C3320 1.429 . S
C3339 C3333 1.429 1_556 S
C3339 C3340 1.523 . S
C3340 C3321 1.368 . S
C3340 C3334 1.368 . S
C3340 C3339 1.523 . S
C3341 C3325 1.429 . S
C3341 C3337 1.429 . S
C3341 C3342 1.523 . S
C3342 C3326 1.368 . S
C3342 C3338 1.368 . S
C3342 C3341 1.523 . S
H3343 C3318 0.950 . S
H3344 C3320 0.950 . S
H3345 C3321 0.949 . S
H3346 C3323 0.950 . S
H3347 C3325 0.950 . S
C3348 C3349 1.349 . S
C3348 C3350 1.327 . S
C3348 H3373 0.950 . S
C3349 C3348 1.349 . S
C3349 C3365 1.349 . S
C3350 C3348 1.327 . S
C3350 C3369 1.429 . S
C3350 H3374 0.950 . S
C3351 C3368 1.574 . S
C3351 C3370 1.368 . S
C3351 H3375 0.949 . S
H3352 C3356 0.949 . S
C3353 C3354 1.349 . S
C3353 C3355 1.327 . S
C3353 H3376 0.950 . S
C3354 C3353 1.349 . S
C3354 C3366 1.349 . S
C3355 C3353 1.327 . S
C3355 C3371 1.429 . S
C3355 H3377 0.950 . S
C3356 H3352 0.949 . S
C3356 C3364 1.574 . S
C3356 C3372 1.368 . S
H3357 C3365 0.950 . S
H3358 C3363 0.950 . S
H3359 C3364 0.949 . S
H3360 C3366 0.950 . S
H3361 C3367 0.950 . S
H3362 C3368 0.949 . S
C3363 H3358 0.950 . S
C3363 C3365 1.327 . S
C3363 C3369 1.429 . S
C3364 C3356 1.574 . S
C3364 H3359 0.949 . S
C3364 C3370 1.368 . S
C3365 C3349 1.349 . S
C3365 H3357 0.950 . S
C3365 C3363 1.327 . S
C3366 C3354 1.349 . S
C3366 H3360 0.950 . S
C3366 C3367 1.327 . S
C3367 H3361 0.950 . S
C3367 C3366 1.327 . S
C3367 C3371 1.429 . S
C3368 C3351 1.574 . S
C3368 H3362 0.949 . S
C3368 C3372 1.368 . S
C3369 C3350 1.429 . S
C3369 C3363 1.429 . S
C3369 C3370 1.523 . S
C3370 C3351 1.368 . S
C3370 C3364 1.368 . S
C3370 C3369 1.523 . S
C3371 C3355 1.429 . S
C3371 C3367 1.429 . S
C3371 C3372 1.523 . S
C3372 C3356 1.368 . S
C3372 C3368 1.368 . S
C3372 C3371 1.523 . S
H3373 C3348 0.950 . S
H3374 C3350 0.950 . S
H3375 C3351 0.949 . S
H3376 C3353 0.950 . S
H3377 C3355 0.950 . S
C3378 C3379 1.349 . S
C3378 C3380 1.327 . S
C3378 H3403 0.950 . S
C3379 C3378 1.349 . S
C3379 C3395 1.349 . S
C3380 C3378 1.327 . S
C3380 C3399 1.429 . S
C3380 H3404 0.950 . S
C3381 C3398 1.574 . S
C3381 C3400 1.368 . S
C3381 H3405 0.949 . S
H3382 C3386 0.949 . S
C3383 C3384 1.349 1_554 S
C3383 C3385 1.327 . S
C3383 H3406 0.950 . S
C3384 C3383 1.349 1_556 S
C3384 C3396 1.349 . S
C3385 C3383 1.327 . S
C3385 C3401 1.429 . S
C3385 H3407 0.950 . S
C3386 H3382 0.949 . S
C3386 C3394 1.574 . S
C3386 C3402 1.368 . S
H3387 C3395 0.950 . S
H3388 C3393 0.950 . S
H3389 C3394 0.949 . S
H3390 C3396 0.950 . S
H3391 C3397 0.950 . S
H3392 C3398 0.949 . S
C3393 H3388 0.950 . S
C3393 C3395 1.327 . S
C3393 C3399 1.429 . S
C3394 C3386 1.574 . S
C3394 H3389 0.949 . S
C3394 C3400 1.368 . S
C3395 C3379 1.349 . S
C3395 H3387 0.950 . S
C3395 C3393 1.327 . S
C3396 C3384 1.349 . S
C3396 H3390 0.950 . S
C3396 C3397 1.327 . S
C3397 H3391 0.950 . S
C3397 C3396 1.327 . S
C3397 C3401 1.429 1_556 S
C3398 C3381 1.574 . S
C3398 H3392 0.949 . S
C3398 C3402 1.368 . S
C3399 C3380 1.429 . S
C3399 C3393 1.429 . S
C3399 C3400 1.523 . S
C3400 C3381 1.368 . S
C3400 C3394 1.368 . S
C3400 C3399 1.523 . S
C3401 C3385 1.429 . S
C3401 C3397 1.429 1_554 S
C3401 C3402 1.523 . S
C3402 C3386 1.368 . S
C3402 C3398 1.368 . S
C3402 C3401 1.523 . S
H3403 C3378 0.950 . S
H3404 C3380 0.950 . S
H3405 C3381 0.949 . S
H3406 C3383 0.950 . S
H3407 C3385 0.950 . S
C3408 C3409 1.349 . S
C3408 C3410 1.327 . S
C3408 H3433 0.950 . S
C3409 C3408 1.349 . S
C3409 C3425 1.349 . S
C3410 C3408 1.327 . S
C3410 C3429 1.429 . S
C3410 H3434 0.950 . S
C3411 C3428 1.574 . S
C3411 C3430 1.368 . S
C3411 H3435 0.949 . S
H3412 C3416 0.949 . S
C3413 C3414 1.349 . S
C3413 C3415 1.327 . S
C3413 H3436 0.950 . S
C3414 C3413 1.349 . S
C3414 C3426 1.349 . S
C3415 C3413 1.327 . S
C3415 C3431 1.429 . S
C3415 H3437 0.950 . S
C3416 H3412 0.949 . S
C3416 C3424 1.574 . S
C3416 C3432 1.368 . S
H3417 C3425 0.950 . S
H3418 C3423 0.950 . S
H3419 C3424 0.949 . S
H3420 C3426 0.950 . S
H3421 C3427 0.950 . S
H3422 C3428 0.949 . S
C3423 H3418 0.950 . S
C3423 C3425 1.327 . S
C3423 C3429 1.429 . S
C3424 C3416 1.574 . S
C3424 H3419 0.949 . S
C3424 C3430 1.368 . S
C3425 C3409 1.349 . S
C3425 H3417 0.950 . S
C3425 C3423 1.327 . S
C3426 C3414 1.349 . S
C3426 H3420 0.950 . S
C3426 C3427 1.327 . S
C3427 H3421 0.950 . S
C3427 C3426 1.327 . S
C3427 C3431 1.429 . S
C3428 C3411 1.574 . S
C3428 H3422 0.949 . S
C3428 C3432 1.368 . S
C3429 C3410 1.429 . S
C3429 C3423 1.429 . S
C3429 C3430 1.523 . S
C3430 C3411 1.368 . S
C3430 C3424 1.368 . S
C3430 C3429 1.523 . S
C3431 C3415 1.429 . S
C3431 C3427 1.429 . S
C3431 C3432 1.523 . S
C3432 C3416 1.368 . S
C3432 C3428 1.368 . S
C3432 C3431 1.523 . S
H3433 C3408 0.950 . S
H3434 C3410 0.950 . S
H3435 C3411 0.949 . S
H3436 C3413 0.950 . S
H3437 C3415 0.950 . S
C3438 C3439 1.349 1_455 S
C3438 C3440 1.327 . S
C3438 H3463 0.950 . S
C3439 C3438 1.349 1_655 S
C3439 C3455 1.349 . S
C3440 C3438 1.327 . S
C3440 C3459 1.429 . S
C3440 H3464 0.950 . S
C3441 C3458 1.574 . S
C3441 C3460 1.368 . S
C3441 H3465 0.949 . S
H3442 C3446 0.949 . S
C3443 C3444 1.349 . S
C3443 C3445 1.327 . S
C3443 H3466 0.950 . S
C3444 C3443 1.349 . S
C3444 C3456 1.349 . S
C3445 C3443 1.327 . S
C3445 C3461 1.429 . S
C3445 H3467 0.950 . S
C3446 H3442 0.949 . S
C3446 C3454 1.574 . S
C3446 C3462 1.368 . S
H3447 C3455 0.950 . S
H3448 C3453 0.950 . S
H3449 C3454 0.949 . S
H3450 C3456 0.950 . S
H3451 C3457 0.950 . S
H3452 C3458 0.949 . S
C3453 H3448 0.950 . S
C3453 C3455 1.327 . S
C3453 C3459 1.429 1_655 S
C3454 C3446 1.574 . S
C3454 H3449 0.949 . S
C3454 C3460 1.368 . S
C3455 C3439 1.349 . S
C3455 H3447 0.950 . S
C3455 C3453 1.327 . S
C3456 C3444 1.349 . S
C3456 H3450 0.950 . S
C3456 C3457 1.327 . S
C3457 H3451 0.950 . S
C3457 C3456 1.327 . S
C3457 C3461 1.429 . S
C3458 C3441 1.574 . S
C3458 H3452 0.949 . S
C3458 C3462 1.368 . S
C3459 C3440 1.429 . S
C3459 C3453 1.429 1_455 S
C3459 C3460 1.523 . S
C3460 C3441 1.368 . S
C3460 C3454 1.368 . S
C3460 C3459 1.523 . S
C3461 C3445 1.429 . S
C3461 C3457 1.429 . S
C3461 C3462 1.523 . S
C3462 C3446 1.368 . S
C3462 C3458 1.368 . S
C3462 C3461 1.523 . S
H3463 C3438 0.950 . S
H3464 C3440 0.950 . S
H3465 C3441 0.949 . S
H3466 C3443 0.950 . S
H3467 C3445 0.950 . S
C3468 C3469 1.349 . S
C3468 C3470 1.327 . S
C3468 H3493 0.950 . S
C3469 C3468 1.349 . S
C3469 C3485 1.349 1_455 S
C3470 C3468 1.327 . S
C3470 C3489 1.429 1_455 S
C3470 H3494 0.950 . S
C3471 C3488 1.574 . S
C3471 C3490 1.368 . S
C3471 H3495 0.949 . S
H3472 C3476 0.949 . S
C3473 C3474 1.349 . S
C3473 C3475 1.327 . S
C3473 H3496 0.950 . S
C3474 C3473 1.349 . S
C3474 C3486 1.349 . S
C3475 C3473 1.327 . S
C3475 C3491 1.429 . S
C3475 H3497 0.950 . S
C3476 H3472 0.949 . S
C3476 C3484 1.574 . S
C3476 C3492 1.368 . S
H3477 C3485 0.950 . S
H3478 C3483 0.950 . S
H3479 C3484 0.949 . S
H3480 C3486 0.950 . S
H3481 C3487 0.950 . S
H3482 C3488 0.949 . S
C3483 H3478 0.950 . S
C3483 C3485 1.327 . S
C3483 C3489 1.429 . S
C3484 C3476 1.574 . S
C3484 H3479 0.949 . S
C3484 C3490 1.368 . S
C3485 C3469 1.349 1_655 S
C3485 H3477 0.950 . S
C3485 C3483 1.327 . S
C3486 C3474 1.349 . S
C3486 H3480 0.950 . S
C3486 C3487 1.327 . S
C3487 H3481 0.950 . S
C3487 C3486 1.327 . S
C3487 C3491 1.429 . S
C3488 C3471 1.574 . S
C3488 H3482 0.949 . S
C3488 C3492 1.368 . S
C3489 C3470 1.429 1_655 S
C3489 C3483 1.429 . S
C3489 C3490 1.523 . S
C3490 C3471 1.368 . S
C3490 C3484 1.368 . S
C3490 C3489 1.523 . S
C3491 C3475 1.429 . S
C3491 C3487 1.429 . S
C3491 C3492 1.523 . S
C3492 C3476 1.368 . S
C3492 C3488 1.368 . S
C3492 C3491 1.523 . S
H3493 C3468 0.950 . S
H3494 C3470 0.950 . S
H3495 C3471 0.949 . S
H3496 C3473 0.950 . S
H3497 C3475 0.950 . S
C3498 C3499 1.349 . S
C3498 C3500 1.327 . S
C3498 H3523 0.950 . S
C3499 C3498 1.349 . S
C3499 C3515 1.349 . S
C3500 C3498 1.327 . S
C3500 C3519 1.429 . S
C3500 H3524 0.950 . S
C3501 C3518 1.574 . S
C3501 C3520 1.368 . S
C3501 H3525 0.949 . S
H3502 C3506 0.949 . S
C3503 C3504 1.349 . S
C3503 C3505 1.327 . S
C3503 H3526 0.950 . S
C3504 C3503 1.349 . S
C3504 C3516 1.349 . S
C3505 C3503 1.327 . S
C3505 C3521 1.429 . S
C3505 H3527 0.950 . S
C3506 H3502 0.949 . S
C3506 C3514 1.574 . S
C3506 C3522 1.368 . S
H3507 C3515 0.950 . S
H3508 C3513 0.950 . S
H3509 C3514 0.949 . S
H3510 C3516 0.950 . S
H3511 C3517 0.950 . S
H3512 C3518 0.949 . S
C3513 H3508 0.950 . S
C3513 C3515 1.327 . S
C3513 C3519 1.429 . S
C3514 C3506 1.574 . S
C3514 H3509 0.949 . S
C3514 C3520 1.368 . S
C3515 C3499 1.349 . S
C3515 H3507 0.950 . S
C3515 C3513 1.327 . S
C3516 C3504 1.349 . S
C3516 H3510 0.950 . S
C3516 C3517 1.327 . S
C3517 H3511 0.950 . S
C3517 C3516 1.327 . S
C3517 C3521 1.429 . S
C3518 C3501 1.574 . S
C3518 H3512 0.949 . S
C3518 C3522 1.368 . S
C3519 C3500 1.429 . S
C3519 C3513 1.429 . S
C3519 C3520 1.523 . S
C3520 C3501 1.368 . S
C3520 C3514 1.368 . S
C3520 C3519 1.523 . S
C3521 C3505 1.429 . S
C3521 C3517 1.429 . S
C3521 C3522 1.523 . S
C3522 C3506 1.368 . S
C3522 C3518 1.368 . S
C3522 C3521 1.523 . S
H3523 C3498 0.950 . S
H3524 C3500 0.950 . S
H3525 C3501 0.949 . S
H3526 C3503 0.950 . S
H3527 C3505 0.950 . S
C3528 C3529 1.349 . S
C3528 C3530 1.327 . S
C3528 H3553 0.950 . S
C3529 C3528 1.349 . S
C3529 C3545 1.349 . S
C3530 C3528 1.327 . S
C3530 C3549 1.429 . S
C3530 H3554 0.950 . S
C3531 C3548 1.574 . S
C3531 C3550 1.368 . S
C3531 H3555 0.949 . S
H3532 C3536 0.949 . S
C3533 C3534 1.349 . S
C3533 C3535 1.327 . S
C3533 H3556 0.950 . S
C3534 C3533 1.349 . S
C3534 C3546 1.349 . S
C3535 C3533 1.327 . S
C3535 C3551 1.429 . S
C3535 H3557 0.950 . S
C3536 H3532 0.949 . S
C3536 C3544 1.574 . S
C3536 C3552 1.368 . S
H3537 C3545 0.950 . S
H3538 C3543 0.950 . S
H3539 C3544 0.949 . S
H3540 C3546 0.950 . S
H3541 C3547 0.950 . S
H3542 C3548 0.949 . S
C3543 H3538 0.950 . S
C3543 C3545 1.327 . S
C3543 C3549 1.429 . S
C3544 C3536 1.574 . S
C3544 H3539 0.949 . S
C3544 C3550 1.368 . S
C3545 C3529 1.349 . S
C3545 H3537 0.950 . S
C3545 C3543 1.327 . S
C3546 C3534 1.349 . S
C3546 H3540 0.950 . S
C3546 C3547 1.327 . S
C3547 H3541 0.950 . S
C3547 C3546 1.327 . S
C3547 C3551 1.429 . S
C3548 C3531 1.574 . S
C3548 H3542 0.949 . S
C3548 C3552 1.368 . S
C3549 C3530 1.429 . S
C3549 C3543 1.429 . S
C3549 C3550 1.523 . S
C3550 C3531 1.368 . S
C3550 C3544 1.368 . S
C3550 C3549 1.523 . S
C3551 C3535 1.429 . S
C3551 C3547 1.429 . S
C3551 C3552 1.523 . S
C3552 C3536 1.368 . S
C3552 C3548 1.368 . S
C3552 C3551 1.523 . S
H3553 C3528 0.950 . S
H3554 C3530 0.950 . S
H3555 C3531 0.949 . S
H3556 C3533 0.950 . S
H3557 C3535 0.950 . S
C3558 C3559 1.349 1_545 S
C3558 C3560 1.327 . S
C3558 H3583 0.950 . S
C3559 C3558 1.349 1_565 S
C3559 C3575 1.349 . S
C3560 C3558 1.327 . S
C3560 C3579 1.429 . S
C3560 H3584 0.950 . S
C3561 C3578 1.574 . S
C3561 C3580 1.368 . S
C3561 H3585 1.000 . S
H3562 C3566 0.949 . S
C3563 C3564 1.349 . S
C3563 C3565 1.327 . S
C3563 H3586 0.950 . S
C3564 C3563 1.349 . S
C3564 C3576 1.349 . S
C3565 C3563 1.327 . S
C3565 C3581 1.429 . S
C3565 H3587 0.950 . S
C3566 H3562 0.949 . S
C3566 C3574 1.574 . S
C3566 C3582 1.368 . S
H3567 C3575 0.950 . S
H3568 C3573 0.950 . S
H3569 C3574 0.949 . S
H3570 C3576 0.950 . S
H3571 C3577 0.950 . S
H3572 C3578 0.949 . S
C3573 H3568 0.950 . S
C3573 C3575 1.327 . S
C3573 C3579 1.429 1_565 S
C3574 C3566 1.574 . S
C3574 H3569 0.949 . S
C3574 C3580 1.368 . S
C3575 C3559 1.349 . S
C3575 H3567 0.950 . S
C3575 C3573 1.327 . S
C3576 C3564 1.349 . S
C3576 H3570 0.950 . S
C3576 C3577 1.327 . S
C3577 H3571 0.950 . S
C3577 C3576 1.327 . S
C3577 C3581 1.429 . S
C3578 C3561 1.574 . S
C3578 H3572 0.949 . S
C3578 C3582 1.368 . S
C3579 C3560 1.429 . S
C3579 C3573 1.429 1_545 S
C3579 C3580 1.523 . S
C3580 C3561 1.368 . S
C3580 C3574 1.368 . S
C3580 C3579 1.523 . S
C3581 C3565 1.429 . S
C3581 C3577 1.429 . S
C3581 C3582 1.523 . S
C3582 C3566 1.368 . S
C3582 C3578 1.368 . S
C3582 C3581 1.523 . S
H3583 C3558 0.950 . S
H3584 C3560 0.950 . S
H3585 C3561 1.000 . S
H3586 C3563 0.950 . S
H3587 C3565 0.950 . S
C3588 C3589 1.349 1_565 S
C3588 C3590 1.327 . S
C3588 H3613 0.950 . S
C3589 C3588 1.349 1_545 S
C3589 C3605 1.349 . S
C3590 C3588 1.327 . S
C3590 C3609 1.429 . S
C3590 H3614 0.950 . S
C3591 C3608 1.574 . S
C3591 C3610 1.368 . S
C3591 H3615 0.949 . S
H3592 C3596 0.949 . S
C3593 C3594 1.349 . S
C3593 C3595 1.327 . S
C3593 H3616 0.950 . S
C3594 C3593 1.349 . S
C3594 C3606 1.349 . S
C3595 C3593 1.327 . S
C3595 C3611 1.429 . S
C3595 H3617 0.950 . S
C3596 H3592 0.949 . S
C3596 C3604 1.574 . S
C3596 C3612 1.368 . S
H3597 C3605 0.950 . S
H3598 C3603 0.950 . S
H3599 C3604 0.949 . S
H3600 C3606 0.950 . S
H3601 C3607 0.950 . S
H3602 C3608 0.949 . S
C3603 H3598 0.950 . S
C3603 C3605 1.327 . S
C3603 C3609 1.429 1_545 S
C3604 C3596 1.574 . S
C3604 H3599 0.949 . S
C3604 C3610 1.368 . S
C3605 C3589 1.349 . S
C3605 H3597 0.950 . S
C3605 C3603 1.327 . S
C3606 C3594 1.349 . S
C3606 H3600 0.950 . S
C3606 C3607 1.327 . S
C3607 H3601 0.950 . S
C3607 C3606 1.327 . S
C3607 C3611 1.429 . S
C3608 C3591 1.574 . S
C3608 H3602 0.949 . S
C3608 C3612 1.368 . S
C3609 C3590 1.429 . S
C3609 C3603 1.429 1_565 S
C3609 C3610 1.523 . S
C3610 C3591 1.368 . S
C3610 C3604 1.368 . S
C3610 C3609 1.523 . S
C3611 C3595 1.429 . S
C3611 C3607 1.429 . S
C3611 C3612 1.523 . S
C3612 C3596 1.368 . S
C3612 C3608 1.368 . S
C3612 C3611 1.523 . S
H3613 C3588 0.950 . S
H3614 C3590 0.950 . S
H3615 C3591 0.949 . S
H3616 C3593 0.950 . S
H3617 C3595 0.950 . S
C3618 C3619 1.349 . S
C3618 C3620 1.327 . S
C3618 H3643 0.950 . S
C3619 C3618 1.349 . S
C3619 C3635 1.349 . S
C3620 C3618 1.327 . S
C3620 C3639 1.429 . S
C3620 H3644 0.950 . S
C3621 C3638 1.574 . S
C3621 C3640 1.368 . S
C3621 H3645 0.949 . S
H3622 C3626 0.949 . S
C3623 C3624 1.349 . S
C3623 C3625 1.327 . S
C3623 H3646 0.950 . S
C3624 C3623 1.349 . S
C3624 C3636 1.349 . S
C3625 C3623 1.327 . S
C3625 C3641 1.429 . S
C3625 H3647 0.950 . S
C3626 H3622 0.949 . S
C3626 C3634 1.574 . S
C3626 C3642 1.368 . S
H3627 C3635 0.950 . S
H3628 C3633 0.950 . S
H3629 C3634 0.949 . S
H3630 C3636 0.950 . S
H3631 C3637 0.950 . S
H3632 C3638 0.949 . S
C3633 H3628 0.950 . S
C3633 C3635 1.327 . S
C3633 C3639 1.429 . S
C3634 C3626 1.574 . S
C3634 H3629 0.949 . S
C3634 C3640 1.368 . S
C3635 C3619 1.349 . S
C3635 H3627 0.950 . S
C3635 C3633 1.327 . S
C3636 C3624 1.349 . S
C3636 H3630 0.950 . S
C3636 C3637 1.327 . S
C3637 H3631 0.950 . S
C3637 C3636 1.327 . S
C3637 C3641 1.429 . S
C3638 C3621 1.574 . S
C3638 H3632 0.949 . S
C3638 C3642 1.368 . S
C3639 C3620 1.429 . S
C3639 C3633 1.429 . S
C3639 C3640 1.523 . S
C3640 C3621 1.368 . S
C3640 C3634 1.368 . S
C3640 C3639 1.523 . S
C3641 C3625 1.429 . S
C3641 C3637 1.429 . S
C3641 C3642 1.523 . S
C3642 C3626 1.368 . S
C3642 C3638 1.368 . S
C3642 C3641 1.523 . S
H3643 C3618 0.950 . S
H3644 C3620 0.950 . S
H3645 C3621 0.949 . S
H3646 C3623 0.950 . S
H3647 C3625 0.950 . S
C769 C598 0.831 . S
C774 C21 0.826 . S
C799 C53 0.826 . S
C804 C630 0.831 . S
C829 C534 0.831 . S
C834 C85 0.826 . S
C859 C117 0.826 . S
C864 C566 0.831 . S
C889 C726 0.831 . S
C894 C149 0.826 . S
C919 C694 0.831 . S
C924 C181 0.826 . S
C949 C758 0.831 . S
C954 C213 0.826 . S
C979 C662 0.831 . S
C984 C245 0.826 . S
C1009 C277 0.826 . S
C1014 C438 0.831 . S
C1039 C502 0.831 . S
C1044 C309 0.826 . S
C1069 C341 0.826 . S
C1074 C470 0.831 . S
C1099 C406 0.831 . S
C1104 C373 0.826 . S
C1129 C210 0.831 . S
C1134 C401 0.826 . S
C1159 C242 0.831 . S
C1164 C433 0.826 . S
C1189 C146 0.831 . S
C1194 C465 0.826 . S
C1219 C497 0.826 . S
C1224 C178 0.831 . S
C1249 C338 0.831 . S
C1254 C529 0.826 . S
C1279 C561 0.826 . S
C1284 C306 0.831 . S
C1309 C370 0.831 . S
C1314 C593 0.826 . S
C1339 C274 0.831 . S
C1344 C625 0.826 . S
C1369 C657 0.826 . S
C1374 C50 0.831 . S
C1399 C114 0.831 . S
C1404 C689 0.826 . S
C1429 C721 0.826 . S
C1434 C82 0.831 . S
C1459 C753 0.826 . S
C1464 C18 0.831 . S
C1489 C278 2.205 . S
C1494 C16 2.283 . S
C1519 C48 2.283 . S
C1524 C374 2.205 . S
C1549 C80 2.283 . S
C1554 C310 2.205 . S
C1579 C112 2.283 . S
C1584 C342 2.205 . S
C1609 C144 2.283 . S
C1614 C22 2.205 . S
C1639 C176 2.283 . S
C1644 C54 2.205 . S
C1669 C86 2.205 . S
C1674 C208 2.283 . S
C1699 C240 2.283 . S
C1704 C118 2.205 . S
C1729 C150 2.205 . S
C1734 C272 2.283 . S
C1759 C304 2.283 . S
C1764 C214 2.205 . S
C1789 C246 2.205 . S
C1794 C336 2.283 . S
C1819 C182 2.205 . S
C1824 C368 2.283 . S
C1849 C658 2.205 . S
C1854 C404 2.283 . S
C1879 C436 2.283 . S
C1884 C754 2.205 . S
C1909 C690 2.205 . S
C1914 C468 2.283 . S
C1939 C500 2.283 . S
C1944 C722 2.205 . S
C1969 C402 2.205 . S
C1974 C532 2.283 . S
C1999 C434 2.205 . S
C2004 C564 2.283 . S
C2029 C596 2.283 . S
C2034 C466 2.205 . S
C2059 C498 2.205 . S
C2064 C628 2.283 . S
C2089 C530 2.205 . S
C2094 C660 2.283 . S
C2119 C692 2.283 . S
C2124 C594 2.205 . S
C2149 C724 2.283 . S
C2154 C626 2.205 . S
C2179 C756 2.283 . S
C2184 C562 2.205 . S
C2209 C23 0.820 . S
C2214 C372 0.820 . S
C2239 C276 0.820 . S
C2244 C55 0.820 . S
C2269 C87 0.820 . S
C2274 C340 0.820 1_545 S
C2299 C119 0.820 . S
C2304 C308 0.820 1_565 S
C2329 C84 0.820 . S
C2334 C151 0.820 . S
C2359 C116 0.820 1_556 S
C2364 C183 0.820 . S
C2389 C20 0.820 . S
C2394 C215 0.820 . S
C2419 C247 0.820 . S
C2424 C52 0.820 1_554 S
C2449 C244 0.820 . S
C2454 C279 0.820 . S
C2479 C311 0.820 . S
C2484 C180 0.820 1_655 S
C2509 C148 0.820 . S
C2514 C343 0.820 . S
C2539 C375 0.820 . S
C2544 C212 0.820 1_455 S
C2569 C752 0.820 . S
C2574 C403 0.820 . S
C2599 C656 0.820 . S
C2604 C435 0.820 . S
C2629 C720 0.820 1_565 S
C2634 C467 0.820 . S
C2659 C688 0.820 1_545 S
C2664 C499 0.820 . S
C2689 C531 0.820 . S
C2694 C464 0.820 . S
C2719 C563 0.820 . S
C2724 C496 0.820 1_554 S
C2749 C595 0.820 . S
C2754 C400 0.820 . S
C2779 C627 0.820 . S
C2784 C432 0.820 1_556 S
C2809 C624 0.820 . S
C2814 C659 0.820 . S
C2839 C560 0.820 1_455 S
C2844 C691 0.820 . S
C2869 C528 0.820 . S
C2874 C723 0.820 . S
C2899 C592 0.820 1_655 S
C2904 C755 0.820 . S
C2929 C727 2.462 . S
C2934 C17 2.462 . S
C2959 C695 2.462 . S
C2964 C49 2.462 . S
C2989 C81 2.462 . S
C2994 C759 2.462 . S
C3019 C663 2.462 . S
C3024 C113 2.462 . S
C3049 C145 2.462 . S
C3054 C439 2.462 . S
C3079 C407 2.462 . S
C3084 C177 2.462 . S
C3109 C209 2.462 . S
C3114 C503 2.462 . S
C3139 C241 2.462 . S
C3144 C471 2.462 . S
C3169 C599 2.462 . S
C3174 C273 2.462 . S
C3199 C535 2.462 . S
C3204 C305 2.462 . S
C3229 C337 2.462 . S
C3234 C567 2.462 . S
C3259 C369 2.462 . S
C3264 C631 2.462 . S
C3289 C405 2.462 . S
C3294 C339 2.462 . S
C3319 C437 2.462 . S
C3324 C307 2.462 . S
C3349 C371 2.462 . S
C3354 C469 2.462 . S
C3379 C275 2.462 . S
C3384 C501 2.462 . S
C3409 C533 2.462 . S
C3414 C51 2.462 . S
C3439 C565 2.462 . S
C3444 C19 2.462 . S
C3469 C597 2.462 . S
C3474 C115 2.462 . S
C3499 C629 2.462 . S
C3504 C83 2.462 . S
C3529 C661 2.462 . S
C3534 C211 2.462 . S
C3559 C693 2.462 . S
C3564 C147 2.462 . S
C3589 C725 2.462 . S
C3594 C179 2.462 . S
C3619 C243 2.462 . S
C3624 C757 2.462 . S
