# Generated by pormake.
# Topology cag, (4)-cn, num edge types: 1
# Building blocks:
#     Node 0, Type 0, BuildingBlock: ICAMEG_clean_sbu_1, # of connection points: 4
#     Node 1, Type 0, BuildingBlock: ICAMEG_clean_sbu_1, # of connection points: 4
#     Node 2, Type 0, BuildingBlock: ICAMEG_clean_sbu_1, # of connection points: 4
#     Node 3, Type 0, BuildingBlock: ICAMEG_clean_sbu_1, # of connection points: 4
#     Node 4, Type 0, BuildingBlock: ICAMEG_clean_sbu_1, # of connection points: 4
#     Node 5, Type 0, BuildingBlock: ICAMEG_clean_sbu_1, # of connection points: 4
#     Node 6, Type 0, BuildingBlock: ICAMEG_clean_sbu_1, # of connection points: 4
#     Node 7, Type 0, BuildingBlock: ICAMEG_clean_sbu_1, # of connection points: 4
#     Node 8, Type 0, BuildingBlock: ICAMEG_clean_sbu_1, # of connection points: 4
#     Node 9, Type 0, BuildingBlock: ICAMEG_clean_sbu_1, # of connection points: 4
#     Node 10, Type 0, BuildingBlock: ICAMEG_clean_sbu_1, # of connection points: 4
#     Node 11, Type 0, BuildingBlock: ICAMEG_clean_sbu_1, # of connection points: 4
#     Node 12, Type 0, BuildingBlock: ICAMEG_clean_sbu_1, # of connection points: 4
#     Node 13, Type 0, BuildingBlock: ICAMEG_clean_sbu_1, # of connection points: 4
#     Node 14, Type 0, BuildingBlock: ICAMEG_clean_sbu_1, # of connection points: 4
#     Node 15, Type 0, BuildingBlock: ICAMEG_clean_sbu_1, # of connection points: 4
#     Edge 16, Type (0, 0), BuildingBlock: ZUJKAS_clean_linker_0, # of connection points: 2
#     Edge 17, Type (0, 0), BuildingBlock: ZUJKAS_clean_linker_0, # of connection points: 2
#     Edge 18, Type (0, 0), BuildingBlock: ZUJKAS_clean_linker_0, # of connection points: 2
#     Edge 19, Type (0, 0), BuildingBlock: ZUJKAS_clean_linker_0, # of connection points: 2
#     Edge 20, Type (0, 0), BuildingBlock: ZUJKAS_clean_linker_0, # of connection points: 2
#     Edge 21, Type (0, 0), BuildingBlock: ZUJKAS_clean_linker_0, # of connection points: 2
#     Edge 22, Type (0, 0), BuildingBlock: ZUJKAS_clean_linker_0, # of connection points: 2
#     Edge 23, Type (0, 0), BuildingBlock: ZUJKAS_clean_linker_0, # of connection points: 2
#     Edge 24, Type (0, 0), BuildingBlock: ZUJKAS_clean_linker_0, # of connection points: 2
#     Edge 25, Type (0, 0), BuildingBlock: ZUJKAS_clean_linker_0, # of connection points: 2
#     Edge 26, Type (0, 0), BuildingBlock: ZUJKAS_clean_linker_0, # of connection points: 2
#     Edge 27, Type (0, 0), BuildingBlock: ZUJKAS_clean_linker_0, # of connection points: 2
#     Edge 28, Type (0, 0), BuildingBlock: ZUJKAS_clean_linker_0, # of connection points: 2
#     Edge 29, Type (0, 0), BuildingBlock: ZUJKAS_clean_linker_0, # of connection points: 2
#     Edge 30, Type (0, 0), BuildingBlock: ZUJKAS_clean_linker_0, # of connection points: 2
#     Edge 31, Type (0, 0), BuildingBlock: ZUJKAS_clean_linker_0, # of connection points: 2
#     Edge 32, Type (0, 0), BuildingBlock: ZUJKAS_clean_linker_0, # of connection points: 2
#     Edge 33, Type (0, 0), BuildingBlock: ZUJKAS_clean_linker_0, # of connection points: 2
#     Edge 34, Type (0, 0), BuildingBlock: ZUJKAS_clean_linker_0, # of connection points: 2
#     Edge 35, Type (0, 0), BuildingBlock: ZUJKAS_clean_linker_0, # of connection points: 2
#     Edge 36, Type (0, 0), BuildingBlock: ZUJKAS_clean_linker_0, # of connection points: 2
#     Edge 37, Type (0, 0), BuildingBlock: ZUJKAS_clean_linker_0, # of connection points: 2
#     Edge 38, Type (0, 0), BuildingBlock: ZUJKAS_clean_linker_0, # of connection points: 2
#     Edge 39, Type (0, 0), BuildingBlock: ZUJKAS_clean_linker_0, # of connection points: 2
#     Edge 40, Type (0, 0), BuildingBlock: ZUJKAS_clean_linker_0, # of connection points: 2
#     Edge 41, Type (0, 0), BuildingBlock: ZUJKAS_clean_linker_0, # of connection points: 2
#     Edge 42, Type (0, 0), BuildingBlock: ZUJKAS_clean_linker_0, # of connection points: 2
#     Edge 43, Type (0, 0), BuildingBlock: ZUJKAS_clean_linker_0, # of connection points: 2
#     Edge 44, Type (0, 0), BuildingBlock: ZUJKAS_clean_linker_0, # of connection points: 2
#     Edge 45, Type (0, 0), BuildingBlock: ZUJKAS_clean_linker_0, # of connection points: 2
#     Edge 46, Type (0, 0), BuildingBlock: ZUJKAS_clean_linker_0, # of connection points: 2
#     Edge 47, Type (0, 0), BuildingBlock: ZUJKAS_clean_linker_0, # of connection points: 2
# Relax obj value: 0.157
# Max RMSD: 0.213
# Mean RMSD: 0.208
data_MOF--net-cag--node1-ICAMEG_clean_sbu_1--edge1-ZUJKAS_clean_linker_0
_symmetry_space_group_name_H-M    P1
_symmetry_Int_Tables_number       1
_symmetry_cell_setting            triclinic
loop_
_symmetry_equiv_pos_as_xyz
'x, y, z'
_cell_length_a     57.419865
_cell_length_b     66.494906
_cell_length_c     56.36671
_cell_angle_alpha  90.112525
_cell_angle_beta   89.91393
_cell_angle_gamma 89.943485
loop_
_atom_site_label
_atom_site_type_symbol
_atom_site_fract_x
_atom_site_fract_y
_atom_site_fract_z
_atom_type_partial_charge
Co0 Co 0.35923 0.14394 0.07667 0.0
Co1 Co 0.36778 0.11771 0.12755 0.0
O2 O 0.35207 0.13951 0.11031 0.0
C3 C 0.36485 0.18834 0.07511 0.0
O4 O 0.38662 0.18542 0.0688 0.0
C5 C 0.31948 0.12108 0.1495 0.0
O6 O 0.31239 0.13313 0.13259 0.0
O7 O 0.355 0.09806 0.10417 0.0
O8 O 0.3658 0.11451 0.07134 0.0
H9 H 0.41608 0.05481 0.133 0.0
H10 H 0.31421 0.15924 0.09515 0.0
O11 O 0.35207 0.1734 0.08081 0.0
H12 H 0.2934 0.11212 0.03096 0.0
H13 H 0.34743 0.17398 0.99546 0.0
H14 H 0.39712 0.13033 0.04472 0.0
H15 H 0.33453 0.11855 0.04072 0.0
H16 H 0.33761 0.16778 0.0374 0.0
O17 O 0.33991 0.11354 0.14889 0.0
H18 H 0.39678 0.083 0.11255 0.0
H19 H 0.37115 0.10514 0.17835 0.0
H20 H 0.40751 0.13603 1.00281 0.0
H21 H 0.27283 0.15344 0.08574 0.0
H22 H 0.38258 0.15801 0.97788 0.0
H23 H 0.26219 0.12968 0.05349 0.0
O24 O 0.39239 0.14843 0.08556 0.0
H25 H 0.36416 0.17831 0.18113 0.0
H26 H 0.41454 0.12464 0.14913 0.0
H27 H 0.431 0.14958 0.17675 0.0
H28 H 0.40572 0.17661 0.19308 0.0
H29 H 0.34849 0.15326 0.15323 0.0
H30 H 0.38998 0.07708 0.19947 0.0
H31 H 0.41274 0.05171 0.17678 0.0
O32 O 0.39681 0.12093 0.10783 0.0
C33 C 0.35914 0.09852 0.08192 0.0
C34 C 0.40625 0.06579 0.14309 0.0
C35 C 0.39157 0.07827 0.18039 0.0
N36 N 0.38292 0.09577 0.14422 0.0
C37 C 0.39531 0.08181 0.13161 0.0
C38 C 0.38087 0.09409 0.16831 0.0
C39 C 0.40435 0.06405 0.16765 0.0
C40 C 0.30973 0.14894 0.08102 0.0
N41 N 0.3268 0.13919 0.06862 0.0
C42 C 0.28626 0.14569 0.0758 0.0
C43 C 0.28031 0.13235 0.05772 0.0
C44 C 0.2978 0.12247 0.04509 0.0
C45 C 0.32108 0.1261 0.0508 0.0
C46 C 0.35843 0.16437 1.00614 0.0
C47 C 0.38617 0.1399 0.03399 0.0
C48 C 0.35299 0.16083 0.02992 0.0
N49 N 0.36679 0.14871 0.04353 0.0
C50 C 0.39215 0.14307 0.01027 0.0
C51 C 0.37816 0.15541 0.99629 0.0
C52 C 0.40523 0.13574 0.09628 0.0
C53 C 0.3753 0.16651 0.17429 0.0
C54 C 0.40337 0.13631 0.15617 0.0
C55 C 0.41282 0.15041 0.17181 0.0
C56 C 0.39864 0.16557 0.18096 0.0
N57 N 0.38039 0.13719 0.14988 0.0
C58 C 0.36647 0.15216 0.15857 0.0
Co59 Co 0.15665 0.87324 0.5737 0.0
Co60 Co 0.1526 0.89588 0.62784 0.0
O61 O 0.16641 0.87503 0.60721 0.0
C62 C 0.16515 0.82975 0.58826 0.0
O63 O 0.16562 0.83425 0.61091 0.0
C64 C 0.20198 0.89023 0.64674 0.0
O65 O 0.20754 0.87749 0.62983 0.0
O66 O 0.16414 0.91702 0.60563 0.0
O67 O 0.15111 0.903 0.57215 0.0
H68 H 0.10617 0.9587 0.64314 0.0
H69 H 0.20236 0.85616 0.58783 0.0
O70 O 0.16175 0.84335 0.57277 0.0
H71 H 0.22036 0.90622 0.52611 0.0
H72 H 0.16059 0.84853 0.48919 0.0
H73 H 0.11769 0.89098 0.54627 0.0
H74 H 0.17977 0.90006 0.5383 0.0
H75 H 0.17367 0.85124 0.5307 0.0
O76 O 0.18199 0.89858 0.64708 0.0
H77 H 0.12327 0.93174 0.61859 0.0
H78 H 0.15331 0.90513 0.67981 0.0
H79 H 0.10414 0.88883 0.50487 0.0
H80 H 0.24317 0.86167 0.57598 0.0
H81 H 0.12564 0.86748 0.476 0.0
H82 H 0.25242 0.88689 0.54493 0.0
O83 O 0.12402 0.86889 0.58427 0.0
H84 H 0.15885 0.83239 0.67619 0.0
H85 H 0.10737 0.88807 0.65224 0.0
H86 H 0.09235 0.86183 0.6789 0.0
H87 H 0.11819 0.83375 0.69119 0.0
H88 H 0.173 0.85872 0.64928 0.0
H89 H 0.13672 0.93192 0.70497 0.0
H90 H 0.11286 0.95891 0.68666 0.0
O91 O 0.12212 0.89422 0.61034 0.0
C92 C 0.15866 0.9181 0.58376 0.0
C93 C 0.11649 0.947 0.65133 0.0
C94 C 0.13366 0.93199 0.68603 0.0
N95 N 0.1392 0.9168 0.64773 0.0
C96 C 0.12619 0.93166 0.63752 0.0
C97 C 0.14308 0.91689 0.67166 0.0
C98 C 0.12027 0.94712 0.67575 0.0
C99 C 0.20618 0.86703 0.57418 0.0
N100 N 0.18864 0.87767 0.56373 0.0
C101 C 0.22936 0.87014 0.56759 0.0
C102 C 0.23454 0.88431 0.55019 0.0
C103 C 0.21656 0.89517 0.53964 0.0
C104 C 0.1936 0.89164 0.54668 0.0
C105 C 0.15109 0.85791 0.50159 0.0
C106 C 0.12722 0.88173 0.53381 0.0
C107 C 0.15838 0.85947 0.52515 0.0
N108 N 0.14654 0.87136 0.54091 0.0
C109 C 0.11943 0.88054 0.51039 0.0
C110 C 0.13149 0.86855 0.4942 0.0
C111 C 0.11238 0.8809 0.59737 0.0
C112 C 0.14745 0.84461 0.67108 0.0
C113 C 0.11875 0.8759 0.65738 0.0
C114 C 0.11013 0.86109 0.67256 0.0
C115 C 0.12463 0.84535 0.67945 0.0
N116 N 0.14122 0.87516 0.64931 0.0
C117 C 0.15546 0.85969 0.65592 0.0
Co118 Co 0.36136 0.87559 0.94756 0.0
Co119 Co 0.3676 0.89737 0.8933 0.0
O120 O 0.35269 0.87707 0.91376 0.0
C121 C 0.35056 0.83228 0.93345 0.0
O122 O 0.34819 0.83688 0.91096 0.0
C123 C 0.31876 0.89211 0.87293 0.0
O124 O 0.31237 0.88012 0.89021 0.0
O125 O 0.35553 0.91897 0.91469 0.0
O126 O 0.36741 0.90534 0.94881 0.0
H127 H 0.41542 0.95937 0.8786 0.0
H128 H 0.31537 0.85952 0.93211 0.0
O129 O 0.35576 0.84573 0.94867 0.0
H130 H 0.29738 0.91035 0.99317 0.0
H131 H 0.35464 0.85188 0.03216 0.0
H132 H 0.39965 0.89332 0.976 0.0
H133 H 0.33805 0.90312 0.98212 0.0
H134 H 0.34287 0.8542 0.99021 0.0
O135 O 0.33898 0.90003 0.87285 0.0
H136 H 0.397 0.93308 0.903 0.0
H137 H 0.36903 0.90565 0.84117 0.0
H138 H 0.41188 0.89156 0.01785 0.0
H139 H 0.27451 0.86609 0.94284 0.0
H140 H 0.38931 0.87072 0.04626 0.0
H141 H 0.26524 0.89171 0.97356 0.0
O142 O 0.39418 0.87053 0.93805 0.0
H143 H 0.36219 0.83314 0.84599 0.0
H144 H 0.41365 0.88851 0.871 0.0
H145 H 0.42927 0.86154 0.84556 0.0
H146 H 0.40345 0.83362 0.83276 0.0
H147 H 0.3474 0.86022 0.87167 0.0
H148 H 0.38696 0.93177 0.81615 0.0
H149 H 0.41045 0.95884 0.83484 0.0
O150 O 0.3974 0.89568 0.91202 0.0
C151 C 0.36033 0.92031 0.93671 0.0
C152 C 0.40527 0.94764 0.87024 0.0
C153 C 0.38927 0.93216 0.83519 0.0
N154 N 0.38203 0.91778 0.87355 0.0
C155 C 0.39482 0.93268 0.88397 0.0
C156 C 0.37909 0.91745 0.84948 0.0
C157 C 0.40246 0.94734 0.84569 0.0
C158 C 0.31159 0.87051 0.94565 0.0
N159 N 0.32919 0.88075 0.95657 0.0
C160 C 0.28836 0.87425 0.95159 0.0
C161 C 0.28317 0.88864 0.9688 0.0
C162 C 0.30118 0.89911 0.9798 0.0
C163 C 0.3242 0.89496 0.97341 0.0
C164 C 0.3646 0.86104 0.01996 0.0
C165 C 0.38966 0.88429 0.98826 0.0
C166 C 0.35806 0.86237 0.99616 0.0
N167 N 0.37049 0.87399 0.98066 0.0
C168 C 0.39671 0.88332 0.01193 0.0
C169 C 0.38405 0.87162 0.02786 0.0
C170 C 0.40647 0.88225 0.9253 0.0
C171 C 0.37359 0.84528 0.85134 0.0
C172 C 0.40227 0.87641 0.86561 0.0
C173 C 0.41123 0.86118 0.85114 0.0
C174 C 0.39675 0.84553 0.84396 0.0
N175 N 0.37947 0.87615 0.87271 0.0
C176 C 0.36524 0.86077 0.86582 0.0
Co177 Co 0.15634 0.14071 0.44808 0.0
Co178 Co 0.15168 0.11779 0.39416 0.0
O179 O 0.16587 0.13859 0.41452 0.0
C180 C 0.1658 0.18396 0.43308 0.0
O181 O 0.16732 0.17917 0.41055 0.0
C182 C 0.20116 0.12264 0.37514 0.0
O183 O 0.20689 0.13529 0.39203 0.0
O184 O 0.16307 0.09666 0.41644 0.0
O185 O 0.15055 0.111 0.44998 0.0
H186 H 0.10438 0.05543 0.37967 0.0
H187 H 0.20224 0.15719 0.43337 0.0
O188 O 0.16161 0.17058 0.44864 0.0
H189 H 0.21988 0.1075 0.49557 0.0
H190 H 0.16091 0.16607 0.53227 0.0
H191 H 0.1174 0.12347 0.47605 0.0
H192 H 0.17932 0.11399 0.48361 0.0
H193 H 0.17374 0.16295 0.49067 0.0
O194 O 0.18099 0.11464 0.37474 0.0
H195 H 0.12196 0.08231 0.4039 0.0
H196 H 0.15207 0.10827 0.34226 0.0
H197 H 0.1041 0.12604 0.51754 0.0
H198 H 0.24301 0.15136 0.44498 0.0
H199 H 0.12592 0.14747 0.54599 0.0
H200 H 0.25209 0.12631 0.47627 0.0
O201 O 0.12372 0.14531 0.43777 0.0
H202 H 0.15866 0.18085 0.34518 0.0
H203 H 0.1064 0.12607 0.37018 0.0
H204 H 0.09165 0.15236 0.34343 0.0
H205 H 0.11787 0.17998 0.33062 0.0
H206 H 0.17257 0.15447 0.37215 0.0
H207 H 0.13501 0.08155 0.31742 0.0
H208 H 0.11087 0.05493 0.33609 0.0
O209 O 0.12127 0.11989 0.41189 0.0
C210 C 0.15784 0.09577 0.43839 0.0
C211 C 0.11482 0.06697 0.37131 0.0
C212 C 0.13203 0.08161 0.33638 0.0
N213 N 0.13793 0.09692 0.37453 0.0
C214 C 0.12479 0.08226 0.38494 0.0
C215 C 0.14172 0.09667 0.35057 0.0
C216 C 0.11849 0.06669 0.34687 0.0
C217 C 0.20597 0.14642 0.44713 0.0
N218 N 0.18834 0.13607 0.45785 0.0
C219 C 0.22913 0.14311 0.45358 0.0
C220 C 0.23422 0.12904 0.47111 0.0
C221 C 0.21616 0.11848 0.48193 0.0
C222 C 0.19321 0.12219 0.47503 0.0
C223 C 0.15128 0.15666 0.52006 0.0
C224 C 0.12707 0.13274 0.48833 0.0
C225 C 0.15843 0.15486 0.49645 0.0
N226 N 0.14642 0.14292 0.48094 0.0
C227 C 0.11942 0.13418 0.5118 0.0
C228 C 0.13165 0.14622 0.52774 0.0
C229 C 0.11182 0.13339 0.42486 0.0
C230 C 0.14709 0.16883 0.35052 0.0
C231 C 0.11795 0.13804 0.3648 0.0
C232 C 0.10948 0.15288 0.34958 0.0
C233 C 0.1242 0.16836 0.34239 0.0
N234 N 0.1405 0.13851 0.37262 0.0
C235 C 0.15495 0.15373 0.36573 0.0
Co236 Co 0.69987 0.89544 0.90747 0.0
Co237 Co 0.69939 0.86612 0.95673 0.0
O238 O 0.71248 0.87272 0.92556 0.0
C239 C 0.70785 0.86316 0.87076 0.0
O240 O 0.70219 0.84912 0.88603 0.0
C241 C 0.74164 0.85974 0.98614 0.0
O242 O 0.73396 0.87406 1.00022 0.0
O243 O 0.70737 0.89384 0.9679 0.0
O244 O 0.69235 0.91069 0.93723 0.0
H245 H 0.65199 0.88014 0.02993 0.0
H246 H 0.74751 0.88054 0.89741 0.0
O247 O 0.70733 0.88162 0.87675 0.0
H248 H 0.75708 0.95218 0.91792 0.0
H249 H 0.69788 0.94528 0.84026 0.0
H250 H 0.65772 0.92101 0.91208 0.0
H251 H 0.7181 0.93672 0.91739 0.0
H252 H 0.71433 0.91738 0.86364 0.0
O253 O 0.73084 0.85585 0.96689 0.0
H254 H 0.6684 0.88748 0.99043 0.0
H255 H 0.70326 0.8311 0.98991 0.0
H256 H 0.64078 0.94905 0.88934 0.0
H257 H 0.78682 0.89547 0.89743 0.0
H258 H 0.66089 0.96137 0.85314 0.0
H259 H 0.7918 0.93154 0.90779 0.0
O260 O 0.66856 0.88272 0.90823 0.0
H261 H 0.71632 0.80055 0.91565 0.0
H262 H 0.65679 0.8402 0.95816 0.0
H263 H 0.6469 0.80645 0.94317 0.0
H264 H 0.67681 0.78632 0.92184 0.0
H265 H 0.72537 0.83454 0.93054 0.0
H266 H 0.68729 0.82319 0.02943 0.0
H267 H 0.66143 0.8478 0.0497 0.0
O268 O 0.66743 0.87554 0.94701 0.0
C269 C 0.70028 0.9101 0.95833 0.0
C270 C 0.66324 0.8693 0.02128 0.0
C271 C 0.68305 0.83734 0.021 0.0
N272 N 0.68678 0.85976 0.98786 0.0
C273 C 0.67259 0.87337 0.99891 0.0
C274 C 0.69205 0.84191 0.99862 0.0
C275 C 0.66854 0.85115 0.03236 0.0
C276 C 0.74952 0.89627 0.90176 0.0
N277 N 0.73051 0.90775 0.90725 0.0
C278 C 0.77183 0.90463 0.90181 0.0
C279 C 0.77461 0.92487 0.90765 0.0
C280 C 0.75515 0.93646 0.91333 0.0
C281 C 0.73311 0.9276 0.91306 0.0
C282 C 0.68896 0.94005 0.85602 0.0
C283 C 0.66664 0.92632 0.89641 0.0
C284 C 0.69815 0.92422 0.86929 0.0
N285 N 0.68705 0.91761 0.88929 0.0
C286 C 0.65693 0.94219 0.88357 0.0
C287 C 0.66822 0.94908 0.86325 0.0
C288 C 0.65734 0.87824 0.92705 0.0
C289 C 0.70316 0.80915 0.92497 0.0
C290 C 0.66986 0.83165 0.94868 0.0
C291 C 0.66417 0.81249 0.94034 0.0
C292 C 0.68097 0.80119 0.92841 0.0
N293 N 0.69167 0.83937 0.94525 0.0
C294 C 0.70821 0.82838 0.93354 0.0
Co295 Co 0.8163 0.12501 0.41405 0.0
Co296 Co 0.82187 0.15074 0.466 0.0
O297 O 0.80657 0.14731 0.435 0.0
C298 C 0.80412 0.15928 0.38048 0.0
O299 O 0.8045 0.1727 0.39756 0.0
C300 C 0.77164 0.16381 0.47439 0.0
O301 O 0.7649 0.15732 0.4535 0.0
O302 O 0.81191 0.12306 0.47488 0.0
O303 O 0.82415 0.10754 0.44196 0.0
H304 H 0.87293 0.12816 0.53322 0.0
H305 H 0.76923 0.14285 0.40775 0.0
O306 O 0.80873 0.14089 0.38475 0.0
H307 H 0.75558 0.07092 0.42342 0.0
H308 H 0.81069 0.07913 0.343 0.0
H309 H 0.85655 0.09699 0.41386 0.0
H310 H 0.79551 0.08437 0.4219 0.0
H311 H 0.79775 0.10644 0.36958 0.0
O312 O 0.79271 0.16177 0.48101 0.0
H313 H 0.85373 0.12519 0.49427 0.0
H314 H 0.82188 0.18233 0.50386 0.0
H315 H 0.87 0.06947 0.38787 0.0
H316 H 0.72903 0.12997 0.40875 0.0
H317 H 0.84701 0.06038 0.35213 0.0
H318 H 0.72198 0.09375 0.41671 0.0
O319 O 0.84853 0.1359 0.41378 0.0
H320 H 0.80969 0.21995 0.43217 0.0
H321 H 0.86646 0.17374 0.46855 0.0
H322 H 0.87898 0.20769 0.45673 0.0
H323 H 0.85048 0.23112 0.43848 0.0
H324 H 0.79802 0.18578 0.44391 0.0
H325 H 0.84055 0.18582 0.543 0.0
H326 H 0.86638 0.15865 0.55788 0.0
O327 O 0.85219 0.14027 0.45292 0.0
C328 C 0.81726 0.10717 0.46345 0.0
C329 C 0.86175 0.14012 0.52691 0.0
C330 C 0.84356 0.17247 0.53241 0.0
N331 N 0.8368 0.1536 0.49671 0.0
C332 C 0.85087 0.13854 0.50484 0.0
C333 C 0.83298 0.17038 0.51025 0.0
C334 C 0.85806 0.15723 0.54074 0.0
C335 C 0.76636 0.12706 0.41099 0.0
N336 N 0.78476 0.11442 0.41467 0.0
C337 C 0.74353 0.11985 0.41164 0.0
C338 C 0.73958 0.09954 0.41614 0.0
C339 C 0.75842 0.08672 0.41992 0.0
C340 C 0.78101 0.09446 0.41912 0.0
C341 C 0.82085 0.08294 0.35853 0.0
C342 C 0.84639 0.09309 0.39841 0.0
C343 C 0.81365 0.09844 0.37362 0.0
N344 N 0.82633 0.10328 0.39333 0.0
C345 C 0.85412 0.0775 0.38372 0.0
C346 C 0.84122 0.07242 0.36367 0.0
C347 C 0.86101 0.13862 0.4322 0.0
C348 C 0.82226 0.20991 0.44019 0.0
C349 C 0.85395 0.18376 0.4605 0.0
C350 C 0.86115 0.20302 0.45391 0.0
C351 C 0.84515 0.21616 0.4437 0.0
N352 N 0.83143 0.17774 0.45707 0.0
C353 C 0.81569 0.19054 0.447 0.0
Co354 Co 0.69942 0.12205 0.11254 0.0
Co355 Co 0.6966 0.15141 0.0637 0.0
O356 O 0.71088 0.14498 0.09426 0.0
C357 C 0.70419 0.15359 0.15055 0.0
O358 O 0.69193 0.16636 0.13794 0.0
C359 C 0.73802 0.15886 0.03328 0.0
O360 O 0.73069 0.14427 0.01944 0.0
O361 O 0.70523 0.12395 0.05209 0.0
O362 O 0.69097 0.10687 0.08297 0.0
H363 H 0.64765 0.13676 0.99191 0.0
H364 H 0.74721 0.13735 0.12051 0.0
O365 O 0.70821 0.13595 0.14275 0.0
H366 H 0.75697 0.06588 0.0991 0.0
H367 H 0.70093 0.07198 0.17951 0.0
H368 H 0.65765 0.09595 0.10955 0.0
H369 H 0.71782 0.08096 0.10161 0.0
H370 H 0.7159 0.1002 0.15565 0.0
O371 O 0.72734 0.16261 0.05268 0.0
H372 H 0.66537 0.12955 0.03081 0.0
H373 H 0.69843 0.18667 0.03076 0.0
H374 H 0.64217 0.06757 0.13278 0.0
H375 H 0.78671 0.1228 0.11848 0.0
H376 H 0.66385 0.0554 0.16805 0.0
H377 H 0.79177 0.08682 0.10765 0.0
O378 O 0.66787 0.1345 0.11321 0.0
H379 H 0.71175 0.21635 0.10667 0.0
H380 H 0.65319 0.17639 0.06347 0.0
H381 H 0.6423 0.20952 0.07975 0.0
H382 H 0.67171 0.22978 0.10147 0.0
H383 H 0.72185 0.18303 0.09034 0.0
H384 H 0.68116 0.19446 0.99182 0.0
H385 H 0.65553 0.16941 0.97215 0.0
O386 O 0.6653 0.14108 0.07435 0.0
C387 C 0.69863 0.10757 0.06175 0.0
C388 C 0.65879 0.1478 1.00031 0.0
C389 C 0.67759 0.18018 1.00025 0.0
N390 N 0.68291 0.15765 0.03306 0.0
C391 C 0.66886 0.1438 0.02234 0.0
C392 C 0.68734 0.17567 0.02229 0.0
C393 C 0.66321 0.16612 0.98923 0.0
C394 C 0.74928 0.12165 0.11594 0.0
N395 N 0.73022 0.11002 0.11128 0.0
C396 C 0.77168 0.11351 0.11476 0.0
C397 C 0.77451 0.09333 0.10867 0.0
C398 C 0.755 0.08157 0.10386 0.0
C399 C 0.73287 0.09021 0.10526 0.0
C400 C 0.69132 0.07714 0.16417 0.0
C401 C 0.66724 0.09071 0.12481 0.0
C402 C 0.69967 0.09317 0.15063 0.0
N403 N 0.68771 0.09969 0.13115 0.0
C404 C 0.65836 0.07465 0.13793 0.0
C405 C 0.67053 0.06784 0.15773 0.0
C406 C 0.65596 0.13864 0.09475 0.0
C407 C 0.69881 0.2077 0.09717 0.0
C408 C 0.66609 0.18507 0.07297 0.0
C409 C 0.65982 0.20385 0.0821 0.0
C410 C 0.67633 0.21521 0.09428 0.0
N411 N 0.6882 0.17782 0.07581 0.0
C412 C 0.70445 0.18885 0.0878 0.0
Co413 Co 0.8146 0.88427 0.60251 0.0
Co414 Co 0.82659 0.86307 0.549 0.0
O415 O 0.80971 0.86277 0.57925 0.0
C416 C 0.82065 0.86143 0.64714 0.0
O417 O 0.84159 0.86929 0.64843 0.0
C418 C 0.77798 0.85239 0.5338 0.0
O419 O 0.76937 0.86688 0.54702 0.0
O420 O 0.81314 0.89006 0.54185 0.0
O421 O 0.82055 0.90462 0.57692 0.0
H422 H 0.87589 0.89461 0.48545 0.0
H423 H 0.77137 0.86007 0.60473 0.0
O424 O 0.80813 0.86458 0.62882 0.0
H425 H 0.74513 0.93013 0.59436 0.0
H426 H 0.79695 0.92394 0.67677 0.0
H427 H 0.84985 0.91643 0.60832 0.0
H428 H 0.78697 0.92215 0.59699 0.0
H429 H 0.79032 0.89735 0.64699 0.0
O430 O 0.79986 0.84943 0.53291 0.0
H431 H 0.85517 0.8934 0.52376 0.0
H432 H 0.83276 0.83379 0.5092 0.0
H433 H 0.85706 0.94328 0.63762 0.0
H434 H 0.72933 0.86743 0.60251 0.0
H435 H 0.83051 0.94716 0.67216 0.0
H436 H 0.71596 0.90267 0.59722 0.0
O437 O 0.84847 0.87758 0.60309 0.0
H438 H 0.82305 0.79165 0.57764 0.0
H439 H 0.87431 0.84506 0.54688 0.0
H440 H 0.89107 0.81207 0.55716 0.0
H441 H 0.86536 0.78505 0.57259 0.0
H442 H 0.80705 0.82496 0.56737 0.0
H443 H 0.85305 0.83443 0.47063 0.0
H444 H 0.87491 0.86498 0.45858 0.0
O445 O 0.85449 0.87606 0.56395 0.0
C446 C 0.81565 0.90563 0.55487 0.0
C447 C 0.86645 0.88121 0.49051 0.0
C448 C 0.85361 0.84744 0.48218 0.0
N449 N 0.84281 0.86353 0.51876 0.0
C450 C 0.85471 0.88042 0.51221 0.0
C451 C 0.84207 0.8472 0.50401 0.0
C452 C 0.86588 0.86458 0.47544 0.0
C453 C 0.76569 0.87547 0.60267 0.0
N454 N 0.78162 0.89065 0.60114 0.0
C455 C 0.74186 0.87953 0.60132 0.0
C456 C 0.73438 0.89931 0.59832 0.0
C457 C 0.75073 0.91472 0.5967 0.0
C458 C 0.77441 0.91009 0.59812 0.0
C459 C 0.80864 0.92241 0.66179 0.0
C460 C 0.83819 0.91804 0.62327 0.0
C461 C 0.80498 0.90737 0.64488 0.0
N462 N 0.81967 0.90534 0.6259 0.0
C463 C 0.84237 0.93326 0.63982 0.0
C464 C 0.82747 0.93543 0.6592 0.0
C465 C 0.86206 0.87729 0.58517 0.0
C466 C 0.83443 0.80328 0.57089 0.0
C467 C 0.86302 0.83343 0.55371 0.0
C468 C 0.8726 0.81475 0.55943 0.0
C469 C 0.85817 0.7996 0.56808 0.0
N470 N 0.8397 0.83692 0.55647 0.0
C471 C 0.82546 0.82216 0.565 0.0
Co472 Co 0.85305 0.64374 0.07596 0.0
Co473 Co 0.86257 0.6167 0.12661 0.0
O474 O 0.84718 0.63893 0.1098 0.0
C475 C 0.86184 0.68767 0.07438 0.0
O476 O 0.88251 0.68338 0.06573 0.0
C477 C 0.81427 0.61999 0.14849 0.0
O478 O 0.80714 0.63193 0.1315 0.0
O479 O 0.84974 0.5972 0.10306 0.0
O480 O 0.85717 0.61419 0.0696 0.0
H481 H 0.90998 0.55325 0.1311 0.0
H482 H 0.81039 0.66142 0.09717 0.0
O483 O 0.84846 0.67349 0.08127 0.0
H484 H 0.78247 0.61657 0.03354 0.0
H485 H 0.83896 0.67586 0.99625 0.0
H486 H 0.88812 0.62882 0.04159 0.0
H487 H 0.82447 0.62036 0.04114 0.0
H488 H 0.83106 0.66944 0.03857 0.0
O489 O 0.83474 0.61254 0.14795 0.0
H490 H 0.89105 0.58184 0.11108 0.0
H491 H 0.86602 0.60369 0.17726 0.0
H492 H 0.89659 0.63477 0.99927 0.0
H493 H 0.76822 0.65834 0.0899 0.0
H494 H 0.87192 0.65844 0.97631 0.0
H495 H 0.75399 0.63572 0.05795 0.0
O496 O 0.887 0.64628 0.08284 0.0
H497 H 0.85938 0.67663 0.18125 0.0
H498 H 0.90942 0.62319 0.14818 0.0
H499 H 0.92607 0.64771 0.1762 0.0
H500 H 0.90096 0.67462 0.19308 0.0
H501 H 0.84353 0.652 0.15293 0.0
H502 H 0.88452 0.57523 0.19795 0.0
H503 H 0.90678 0.54981 0.17485 0.0
O504 O 0.89145 0.61986 0.10692 0.0
C505 C 0.85226 0.59792 0.08055 0.0
C506 C 0.90038 0.56426 0.14137 0.0
C507 C 0.88606 0.57658 0.17888 0.0
N508 N 0.87752 0.59449 0.14296 0.0
C509 C 0.88965 0.5805 0.13013 0.0
C510 C 0.87555 0.59263 0.16704 0.0
C511 C 0.89855 0.56232 0.16591 0.0
C512 C 0.80436 0.65163 0.08314 0.0
N513 N 0.81993 0.64099 0.06972 0.0
C514 C 0.78045 0.64991 0.07915 0.0
C515 C 0.77248 0.6372 0.06124 0.0
C516 C 0.78844 0.62643 0.04757 0.0
C517 C 0.81223 0.62853 0.05208 0.0
C518 C 0.84983 0.6655 1.00606 0.0
C519 C 0.87728 0.63913 0.03171 0.0
C520 C 0.84544 0.66181 0.03003 0.0
N521 N 0.85911 0.64874 0.04255 0.0
C522 C 0.88217 0.64244 1.00776 0.0
C523 C 0.86832 0.65573 0.99489 0.0
C524 C 0.89983 0.63369 0.0938 0.0
C525 C 0.87046 0.66489 0.17415 0.0
C526 C 0.89835 0.63484 0.1554 0.0
C527 C 0.90789 0.64868 0.17129 0.0
C528 C 0.8938 0.66377 0.18075 0.0
N529 N 0.87536 0.63588 0.14917 0.0
C530 C 0.86152 0.65079 0.15819 0.0
Co531 Co 0.65424 0.37241 0.57364 0.0
Co532 Co 0.64781 0.39713 0.62636 0.0
O533 O 0.6628 0.37576 0.6073 0.0
C534 C 0.66383 0.32965 0.59071 0.0
O535 O 0.66576 0.33517 0.61298 0.0
C536 C 0.6971 0.39399 0.6462 0.0
O537 O 0.7041 0.3824 0.62873 0.0
O538 O 0.65951 0.41771 0.60351 0.0
O539 O 0.64886 0.40205 0.57016 0.0
H540 H 0.59993 0.45982 0.63703 0.0
H541 H 0.6997 0.35642 0.5906 0.0
O542 O 0.65928 0.34252 0.57467 0.0
H543 H 0.71931 0.4032 0.52592 0.0
H544 H 0.66102 0.344 0.49093 0.0
H545 H 0.6163 0.3889 0.5438 0.0
H546 H 0.67841 0.39746 0.53724 0.0
H547 H 0.67268 0.34854 0.53267 0.0
O548 O 0.6764 0.40091 0.64656 0.0
H549 H 0.61845 0.43237 0.61436 0.0
H550 H 0.64603 0.4078 0.67792 0.0
H551 H 0.60416 0.38493 0.50212 0.0
H552 H 0.74078 0.36148 0.57964 0.0
H553 H 0.62659 0.36234 0.47536 0.0
H554 H 0.75086 0.38507 0.54711 0.0
O555 O 0.62122 0.36831 0.58322 0.0
H556 H 0.65461 0.33575 0.67806 0.0
H557 H 0.60187 0.38887 0.64928 0.0
H558 H 0.58686 0.36306 0.67657 0.0
H559 H 0.61333 0.33629 0.69127 0.0
H560 H 0.66879 0.36166 0.6505 0.0
H561 H 0.62799 0.43509 0.70123 0.0
H562 H 0.60465 0.46131 0.6808 0.0
O563 O 0.61806 0.39448 0.60792 0.0
C564 C 0.6553 0.4178 0.58129 0.0
C565 C 0.61003 0.44846 0.64615 0.0
C566 C 0.62579 0.4346 0.68217 0.0
N567 N 0.63326 0.41844 0.64478 0.0
C568 C 0.62053 0.43286 0.6334 0.0
C569 C 0.63604 0.41922 0.66885 0.0
C570 C 0.61269 0.4493 0.6707 0.0
C571 C 0.70384 0.36652 0.57628 0.0
N572 N 0.68657 0.37649 0.56452 0.0
C573 C 0.72719 0.36941 0.57021 0.0
C574 C 0.73284 0.38267 0.55199 0.0
C575 C 0.71515 0.39286 0.54011 0.0
C576 C 0.692 0.38959 0.54667 0.0
C577 C 0.65113 0.35391 0.5024 0.0
C578 C 0.62622 0.37911 0.53226 0.0
C579 C 0.65761 0.3565 0.52608 0.0
N580 N 0.64527 0.36908 0.54066 0.0
C581 C 0.61923 0.37689 0.50867 0.0
C582 C 0.63181 0.36421 0.49368 0.0
C583 C 0.60896 0.3806 0.59533 0.0
C584 C 0.64292 0.34739 0.67187 0.0
C585 C 0.61351 0.37723 0.65546 0.0
C586 C 0.6049 0.36268 0.67099 0.0
C587 C 0.61976 0.34767 0.67924 0.0
N588 N 0.6363 0.37692 0.64835 0.0
C589 C 0.65091 0.36219 0.65631 0.0
Co590 Co 0.85491 0.37263 0.94021 0.0
Co591 Co 0.86887 0.39969 0.89096 0.0
O592 O 0.85185 0.3775 0.90606 0.0
C593 C 0.86296 0.32862 0.94257 0.0
O594 O 0.88316 0.33271 0.95234 0.0
C595 C 0.82132 0.40143 0.86841 0.0
O596 O 0.81138 0.39762 0.88889 0.0
O597 O 0.85365 0.41921 0.91304 0.0
O598 O 0.85879 0.40217 0.94689 0.0
H599 H 0.91589 0.4634 0.89063 0.0
H600 H 0.81404 0.35615 0.91481 0.0
O601 O 0.85031 0.34292 0.93463 0.0
H602 H 0.78137 0.40019 0.977 0.0
H603 H 0.83422 0.34065 0.01855 0.0
H604 H 0.88731 0.3872 0.97725 0.0
H605 H 0.82382 0.39584 0.97305 0.0
H606 H 0.82969 0.3472 0.97577 0.0
O607 O 0.84336 0.40312 0.86699 0.0
H608 H 0.89524 0.43489 0.90895 0.0
H609 H 0.87756 0.41221 0.84082 0.0
H610 H 0.89239 0.38115 0.02008 0.0
H611 H 0.77143 0.3598 0.91839 0.0
H612 H 0.86574 0.35771 0.04101 0.0
H613 H 0.75484 0.38201 0.94961 0.0
O614 O 0.88932 0.3697 0.93595 0.0
H615 H 0.87061 0.34026 0.83579 0.0
H616 H 0.91784 0.3926 0.87481 0.0
H617 H 0.93702 0.36771 0.84886 0.0
H618 H 0.91335 0.34134 0.82904 0.0
H619 H 0.85217 0.36529 0.86215 0.0
H620 H 0.89786 0.44057 0.82178 0.0
H621 H 0.91729 0.46639 0.84674 0.0
O622 O 0.89559 0.39685 0.91354 0.0
C623 C 0.85453 0.41846 0.93569 0.0
C624 C 0.90751 0.45224 0.87957 0.0
C625 C 0.89737 0.43944 0.84093 0.0
N626 N 0.88523 0.42185 0.87599 0.0
C627 C 0.89581 0.43603 0.88984 0.0
C628 C 0.88582 0.42345 0.85182 0.0
C629 C 0.90828 0.45391 0.85494 0.0
C630 C 0.80695 0.36569 0.92859 0.0
N631 N 0.82144 0.37575 0.94371 0.0
C632 C 0.78281 0.36776 0.93046 0.0
C633 C 0.77351 0.38026 0.94796 0.0
C634 C 0.78839 0.39048 0.96331 0.0
C635 C 0.81243 0.38804 0.9609 0.0
C636 C 0.84594 0.3509 1.00963 0.0
C637 C 0.87562 0.377 0.98623 0.0
C638 C 0.84348 0.35466 0.9854 0.0
N639 N 0.85824 0.36758 0.974 0.0
C640 C 0.87859 0.37363 0.01049 0.0
C641 C 0.86363 0.36047 0.02222 0.0
C642 C 0.90299 0.3825 0.92647 0.0
C643 C 0.88111 0.3517 0.84428 0.0
C644 C 0.90742 0.38111 0.86638 0.0
C645 C 0.91838 0.36709 0.85163 0.0
C646 C 0.90509 0.35231 0.84052 0.0
N647 N 0.88387 0.38045 0.86994 0.0
C648 C 0.87075 0.36595 0.85917 0.0
Co649 Co 0.652 0.64323 0.44618 0.0
Co650 Co 0.64751 0.6179 0.39365 0.0
O651 O 0.6613 0.63977 0.41273 0.0
C652 C 0.66041 0.686 0.42857 0.0
O653 O 0.6625 0.68033 0.40637 0.0
C654 C 0.69688 0.62271 0.37447 0.0
O655 O 0.7024 0.63583 0.39094 0.0
O656 O 0.65918 0.59782 0.41708 0.0
O657 O 0.64742 0.61353 0.45004 0.0
H658 H 0.6016 0.55424 0.38277 0.0
H659 H 0.69723 0.66013 0.42986 0.0
O660 O 0.6562 0.67319 0.44478 0.0
H661 H 0.71709 0.61429 0.49537 0.0
H662 H 0.65638 0.6726 0.52857 0.0
H663 H 0.61397 0.62629 0.47563 0.0
H664 H 0.67625 0.619 0.48328 0.0
H665 H 0.66896 0.66788 0.4871 0.0
O666 O 0.67686 0.61444 0.37437 0.0
H667 H 0.61859 0.58236 0.40544 0.0
H668 H 0.64798 0.60634 0.34233 0.0
H669 H 0.60093 0.63045 0.51704 0.0
H670 H 0.73825 0.65609 0.44157 0.0
H671 H 0.62219 0.65374 0.54383 0.0
H672 H 0.74845 0.63298 0.47453 0.0
O673 O 0.6191 0.64651 0.43597 0.0
H674 H 0.65328 0.67899 0.34116 0.0
H675 H 0.60206 0.62457 0.36931 0.0
H676 H 0.58679 0.64955 0.34115 0.0
H677 H 0.61249 0.67697 0.32675 0.0
H678 H 0.6677 0.65392 0.36956 0.0
H679 H 0.63149 0.57837 0.31904 0.0
H680 H 0.60802 0.55211 0.33925 0.0
O681 O 0.61715 0.62022 0.41129 0.0
C682 C 0.65449 0.59782 0.43921 0.0
C683 C 0.61175 0.56562 0.37375 0.0
C684 C 0.62855 0.57914 0.338 0.0
N685 N 0.63417 0.59606 0.37524 0.0
C686 C 0.62138 0.58161 0.38649 0.0
C687 C 0.63791 0.59492 0.3513 0.0
C688 C 0.61538 0.56442 0.34934 0.0
C689 C 0.70143 0.65021 0.44434 0.0
N690 N 0.68426 0.63993 0.4559 0.0
C691 C 0.72474 0.6479 0.45084 0.0
C692 C 0.73046 0.63492 0.46931 0.0
C693 C 0.71288 0.62442 0.48099 0.0
C694 C 0.68976 0.6271 0.474 0.0
C695 C 0.64699 0.66238 0.51708 0.0
C696 C 0.62339 0.63639 0.48719 0.0
C697 C 0.654 0.65968 0.49355 0.0
N698 N 0.6423 0.64672 0.47896 0.0
C699 C 0.61589 0.63871 0.51062 0.0
C700 C 0.62782 0.65179 0.52564 0.0
C701 C 0.60744 0.63396 0.42369 0.0
C702 C 0.64194 0.66704 0.34719 0.0
C703 C 0.61338 0.63647 0.36325 0.0
C704 C 0.60462 0.65057 0.34723 0.0
C705 C 0.61905 0.66593 0.33915 0.0
N706 N 0.63592 0.63756 0.37099 0.0
C707 C 0.65009 0.65268 0.36322 0.0
Co708 Co 0.19645 0.39262 0.91321 0.0
Co709 Co 0.1951 0.36411 0.96312 0.0
O710 O 0.2086 0.37002 0.93191 0.0
C711 C 0.20175 0.36059 0.87566 0.0
O712 O 0.18994 0.3477 0.88855 0.0
C713 C 0.24618 0.35232 0.96691 0.0
O714 O 0.25049 0.35781 0.945 0.0
O715 O 0.20289 0.39199 0.97357 0.0
O716 O 0.1878 0.4082 0.9425 0.0
H717 H 0.14494 0.37979 0.0339 0.0
H718 H 0.2444 0.37815 0.90362 0.0
O719 O 0.20526 0.37839 0.88316 0.0
H720 H 0.25302 0.44962 0.92535 0.0
H721 H 0.19647 0.44166 0.84518 0.0
H722 H 0.15405 0.41807 0.91597 0.0
H723 H 0.21418 0.43396 0.92379 0.0
H724 H 0.21225 0.4141 0.86956 0.0
O725 O 0.22596 0.35453 0.97592 0.0
H726 H 0.16199 0.38584 0.99438 0.0
H727 H 0.20011 0.33119 0.99884 0.0
H728 H 0.13774 0.44577 0.89218 0.0
H729 H 0.28358 0.39328 0.90472 0.0
H730 H 0.15899 0.45775 0.8565 0.0
H731 H 0.28808 0.42925 0.91572 0.0
O732 O 0.16513 0.37983 0.91321 0.0
H733 H 0.20999 0.2984 0.92084 0.0
H734 H 0.15337 0.33773 0.96758 0.0
H735 H 0.14283 0.30382 0.95375 0.0
H736 H 0.17128 0.28381 0.9303 0.0
H737 H 0.21967 0.33239 0.93469 0.0
H738 H 0.18366 0.32468 0.03852 0.0
H739 H 0.15576 0.34902 0.05626 0.0
O740 O 0.16338 0.37297 0.95204 0.0
C741 C 0.19557 0.408 0.96366 0.0
C742 C 0.15703 0.36904 0.02634 0.0
C743 C 0.17879 0.33813 0.02895 0.0
N744 N 0.18191 0.35884 0.99423 0.0
C745 C 0.1667 0.37237 1.00394 0.0
C746 C 0.18811 0.34194 1.0065 0.0
C747 C 0.16313 0.35179 0.03888 0.0
C748 C 0.24621 0.39382 0.90837 0.0
N749 N 0.22702 0.40509 0.91378 0.0
C750 C 0.26844 0.4023 0.90898 0.0
C751 C 0.27096 0.42249 0.91517 0.0
C752 C 0.2513 0.43392 0.92059 0.0
C753 C 0.22934 0.42493 0.91977 0.0
C754 C 0.18705 0.43659 0.8607 0.0
C755 C 0.16346 0.42323 0.90052 0.0
C756 C 0.19587 0.42094 0.87454 0.0
N757 N 0.18414 0.41452 0.89425 0.0
C758 C 0.15411 0.43891 0.8871 0.0
C759 C 0.16603 0.44561 0.86707 0.0
C760 C 0.15362 0.37535 0.93186 0.0
C761 C 0.19753 0.30687 0.93127 0.0
C762 C 0.16594 0.32915 0.95749 0.0
C763 C 0.15983 0.30993 0.94967 0.0
C764 C 0.17579 0.29872 0.93652 0.0
N765 N 0.18743 0.33699 0.95256 0.0
C766 C 0.20302 0.32615 0.93939 0.0
Co767 Co 0.31153 0.62391 0.40862 0.0
Co768 Co 0.31746 0.64878 0.46131 0.0
O769 O 0.30212 0.64586 0.43021 0.0
C770 C 0.29889 0.65874 0.37589 0.0
O771 O 0.29732 0.67159 0.39351 0.0
C772 C 0.26735 0.66216 0.46983 0.0
O773 O 0.26068 0.65635 0.44865 0.0
O774 O 0.30776 0.62093 0.46971 0.0
O775 O 0.3186 0.60573 0.43608 0.0
H776 H 0.36847 0.62526 0.52813 0.0
H777 H 0.26471 0.64266 0.40298 0.0
O778 O 0.30469 0.64052 0.37965 0.0
H779 H 0.24971 0.57049 0.41532 0.0
H780 H 0.30568 0.57975 0.33608 0.0
H781 H 0.35114 0.59525 0.40797 0.0
H782 H 0.28987 0.58343 0.41466 0.0
H783 H 0.29304 0.60666 0.36337 0.0
O784 O 0.2883 0.65958 0.47658 0.0
H785 H 0.34934 0.62284 0.48911 0.0
H786 H 0.31749 0.67985 0.49977 0.0
H787 H 0.36428 0.56811 0.38126 0.0
H788 H 0.22433 0.63031 0.40315 0.0
H789 H 0.34148 0.5602 0.34501 0.0
H790 H 0.21657 0.59397 0.40942 0.0
O791 O 0.34407 0.63424 0.4089 0.0
H792 H 0.30539 0.71847 0.42869 0.0
H793 H 0.36201 0.67174 0.46436 0.0
H794 H 0.3746 0.70583 0.45321 0.0
H795 H 0.34617 0.72952 0.43533 0.0
H796 H 0.29365 0.68417 0.43977 0.0
H797 H 0.33612 0.68279 0.53899 0.0
H798 H 0.36191 0.6554 0.55337 0.0
O799 O 0.34768 0.63849 0.44806 0.0
C800 C 0.31262 0.60512 0.45786 0.0
C801 C 0.35732 0.63731 0.52204 0.0
C802 C 0.33914 0.66959 0.52814 0.0
N803 N 0.33241 0.65122 0.49207 0.0
C804 C 0.34646 0.63604 0.49993 0.0
C805 C 0.32858 0.66781 0.50593 0.0
C806 C 0.35361 0.65422 0.5362 0.0
C807 C 0.26158 0.62682 0.40545 0.0
N808 N 0.27974 0.61383 0.40864 0.0
C809 C 0.23862 0.61991 0.40565 0.0
C810 C 0.23427 0.59953 0.40921 0.0
C811 C 0.25286 0.58635 0.41253 0.0
C812 C 0.27558 0.59381 0.41222 0.0
C813 C 0.31575 0.58304 0.35184 0.0
C814 C 0.34106 0.59186 0.39229 0.0
C815 C 0.30872 0.5983 0.36734 0.0
N816 N 0.32128 0.60248 0.38734 0.0
C817 C 0.34862 0.57649 0.37721 0.0
C818 C 0.33583 0.57207 0.35686 0.0
C819 C 0.35652 0.63678 0.42737 0.0
C820 C 0.31792 0.70832 0.43656 0.0
C821 C 0.34953 0.68188 0.45647 0.0
C822 C 0.35677 0.70121 0.45026 0.0
C823 C 0.34081 0.7145 0.44025 0.0
N824 N 0.32701 0.67591 0.45289 0.0
C825 C 0.31132 0.68886 0.443 0.0
Co826 Co 0.19615 0.63114 0.10652 0.0
Co827 Co 0.18986 0.6524 0.05193 0.0
O828 O 0.20447 0.65202 0.08342 0.0
C829 C 0.18888 0.65458 0.15072 0.0
O830 O 0.16759 0.64737 0.15106 0.0
C831 C 0.24008 0.66404 0.04314 0.0
O832 O 0.24691 0.65466 0.06235 0.0
O833 O 0.20132 0.6245 0.04608 0.0
O834 O 0.19057 0.6108 0.0807 0.0
H835 H 0.14219 0.62305 0.98569 0.0
H836 H 0.24093 0.65263 0.11316 0.0
O837 O 0.20212 0.65085 0.13303 0.0
H838 H 0.26221 0.58117 0.10402 0.0
H839 H 0.20514 0.5914 0.18212 0.0
H840 H 0.15806 0.60125 0.10996 0.0
H841 H 0.22109 0.59172 0.10272 0.0
H842 H 0.21604 0.61718 0.15276 0.0
O843 O 0.21876 0.66381 0.037 0.0
H844 H 0.16031 0.62363 0.02531 0.0
H845 H 0.18918 0.6812 0.01125 0.0
H846 H 0.14658 0.57527 0.13883 0.0
H847 H 0.28225 0.64266 0.11506 0.0
H848 H 0.17018 0.57021 0.17523 0.0
H849 H 0.29313 0.60671 0.11035 0.0
O850 O 0.16292 0.63974 0.10457 0.0
H851 H 0.19775 0.72378 0.08021 0.0
H852 H 0.1443 0.6736 0.04591 0.0
H853 H 0.12991 0.70778 0.05448 0.0
H854 H 0.15675 0.73319 0.07166 0.0
H855 H 0.21134 0.68934 0.07163 0.0
H856 H 0.17154 0.68114 0.97141 0.0
H857 H 0.14776 0.65195 0.95843 0.0
O858 O 0.15987 0.64164 0.06511 0.0
C859 C 0.19679 0.60924 0.059 0.0
C860 C 0.15247 0.63587 0.99116 0.0
C861 C 0.16897 0.66846 0.98313 0.0
N862 N 0.17571 0.65246 0.02066 0.0
C863 C 0.16275 0.63631 0.0136 0.0
C864 C 0.17898 0.66838 1.0057 0.0
C865 C 0.15562 0.65209 0.97586 0.0
C866 C 0.24549 0.63693 0.11136 0.0
N867 N 0.22857 0.62281 0.10782 0.0
C868 C 0.26894 0.63138 0.11233 0.0
C869 C 0.27503 0.61122 0.10965 0.0
C870 C 0.25769 0.59689 0.10606 0.0
C871 C 0.23443 0.60298 0.1052 0.0
C872 C 0.19472 0.59345 0.16632 0.0
C873 C 0.16845 0.59913 0.12573 0.0
C874 C 0.2008 0.60802 0.14963 0.0
N875 N 0.18771 0.61072 0.12962 0.0
C876 C 0.16185 0.58439 0.14203 0.0
C877 C 0.1751 0.58157 0.16245 0.0
C878 C 0.15072 0.64077 0.08573 0.0
C879 C 0.18591 0.71287 0.07265 0.0
C880 C 0.15607 0.68452 0.05348 0.0
C881 C 0.14783 0.70388 0.05824 0.0
C882 C 0.1629 0.71813 0.06787 0.0
N883 N 0.17871 0.67949 0.05811 0.0
C884 C 0.19354 0.69335 0.06767 0.0
Co885 Co 0.31327 0.38876 0.61244 0.0
Co886 Co 0.31861 0.36426 0.55942 0.0
O887 O 0.30367 0.36695 0.59079 0.0
C888 C 0.30111 0.35366 0.64503 0.0
O889 O 0.29927 0.34095 0.62731 0.0
C890 C 0.26847 0.35083 0.55163 0.0
O891 O 0.26209 0.35625 0.57307 0.0
O892 O 0.30874 0.39215 0.55147 0.0
O893 O 0.31991 0.40717 0.58506 0.0
H894 H 0.3687 0.38827 0.49201 0.0
H895 H 0.26659 0.3699 0.61863 0.0
O896 O 0.30687 0.3719 0.64134 0.0
H897 H 0.25115 0.44215 0.60737 0.0
H898 H 0.30815 0.43237 0.68551 0.0
H899 H 0.35276 0.41747 0.61274 0.0
H900 H 0.29137 0.42925 0.6072 0.0
H901 H 0.29528 0.40565 0.65816 0.0
O902 O 0.28929 0.3536 0.54453 0.0
H903 H 0.35009 0.39039 0.53138 0.0
H904 H 0.31816 0.33349 0.52063 0.0
H905 H 0.36611 0.44445 0.63951 0.0
H906 H 0.22617 0.38219 0.61928 0.0
H907 H 0.34375 0.45205 0.67621 0.0
H908 H 0.21818 0.41857 0.61356 0.0
O909 O 0.34586 0.37849 0.61152 0.0
H910 H 0.30716 0.29432 0.59153 0.0
H911 H 0.36315 0.34132 0.55534 0.0
H912 H 0.37597 0.30715 0.56589 0.0
H913 H 0.34786 0.28331 0.58403 0.0
H914 H 0.29519 0.3287 0.58105 0.0
H915 H 0.33626 0.33085 0.48107 0.0
H916 H 0.36182 0.35833 0.46655 0.0
O917 O 0.34898 0.37444 0.57228 0.0
C918 C 0.31368 0.4079 0.56337 0.0
C919 C 0.35764 0.37617 0.49816 0.0
C920 C 0.33941 0.34396 0.49201 0.0
N921 N 0.33316 0.36204 0.52839 0.0
C922 C 0.34709 0.37727 0.52046 0.0
C923 C 0.32916 0.34558 0.51441 0.0
C924 C 0.35376 0.35938 0.48388 0.0
C925 C 0.26337 0.38575 0.61639 0.0
N926 N 0.28144 0.39879 0.61305 0.0
C927 C 0.24038 0.39263 0.61666 0.0
C928 C 0.23591 0.41303 0.61341 0.0
C929 C 0.25439 0.42626 0.60992 0.0
C930 C 0.27715 0.41884 0.60976 0.0
C931 C 0.31803 0.42922 0.66956 0.0
C932 C 0.34287 0.42073 0.62862 0.0
C933 C 0.31087 0.41405 0.65403 0.0
N934 N 0.3232 0.41004 0.63379 0.0
C935 C 0.35054 0.43601 0.64374 0.0
C936 C 0.338 0.44026 0.66433 0.0
C937 C 0.35807 0.37603 0.59283 0.0
C938 C 0.31955 0.30453 0.58354 0.0
C939 C 0.35081 0.33112 0.56334 0.0
C940 C 0.35817 0.31174 0.56921 0.0
C941 C 0.3424 0.29837 0.57937 0.0
N942 N 0.32833 0.33706 0.5674 0.0
C943 C 0.31282 0.32404 0.57744 0.0
H944 H 0.38546 0.22546 0.07343 0.0
H945 H 0.36779 0.25716 0.06051 0.0
H946 H 0.30226 0.22667 0.05006 0.0
H947 H 0.31933 0.19556 0.06452 0.0
H948 H 0.3526 0.26769 0.0208 0.0
H949 H 0.27746 0.27471 0.08084 0.0
H950 H 0.30004 0.25636 0.08583 0.0
H951 H 0.276 0.25085 0.06621 0.0
C952 C 0.36711 0.22572 0.06901 0.0
C953 C 0.35375 0.20806 0.07028 0.0
C954 C 0.35703 0.24382 0.06147 0.0
C955 C 0.33348 0.24457 0.05462 0.0
C956 C 0.32016 0.22688 0.05605 0.0
H957 H 0.27552 0.3239 0.94899 0.0
H958 H 0.29846 0.29946 0.97127 0.0
C959 C 0.33003 0.20896 0.06421 0.0
C960 C 0.3233 0.26328 0.04421 0.0
H961 H 0.27395 0.29194 0.04319 0.0
C962 C 0.33556 0.27319 0.02604 0.0
C963 C 0.30131 0.27096 0.05123 0.0
C964 C 0.28814 0.26277 0.07229 0.0
C965 C 0.32611 0.28988 0.01415 0.0
C966 C 0.30318 0.29632 0.01966 0.0
C967 C 0.29134 0.28694 0.03849 0.0
C968 C 0.29077 0.31224 1.00584 0.0
C969 C 0.34108 0.30051 0.99609 0.0
C970 C 0.27814 0.32742 0.01764 0.0
C971 C 0.2643 0.34095 1.0049 0.0
C972 C 0.26324 0.33995 0.98003 0.0
C973 C 0.27649 0.32533 0.96812 0.0
C974 C 0.28976 0.31139 0.9809 0.0
H975 H 0.35984 0.29923 1.00068 0.0
H976 H 0.33868 0.29332 0.97848 0.0
H977 H 0.33658 0.31671 0.99471 0.0
H978 H 0.27849 0.3285 0.03681 0.0
H979 H 0.25408 0.35199 0.01452 0.0
H980 H 0.27219 0.67033 0.51696 0.0
H981 H 0.25072 0.69492 0.5406 0.0
H982 H 0.20719 0.70828 0.48033 0.0
H983 H 0.22828 0.68324 0.45669 0.0
H984 H 0.24969 0.73412 0.53229 0.0
H985 H 0.15902 0.70592 0.53209 0.0
H986 H 0.18337 0.69052 0.52301 0.0
H987 H 0.1708 0.70838 0.50275 0.0
C988 C 0.25772 0.67818 0.50884 0.0
C989 C 0.25195 0.6748 0.4849 0.0
C990 C 0.24547 0.69228 0.5224 0.0
C991 C 0.22717 0.7034 0.51239 0.0
C992 C 0.22085 0.69959 0.48869 0.0
H993 H 0.15741 0.81397 0.54434 0.0
H994 H 0.17136 0.78201 0.52839 0.0
C995 C 0.23299 0.6853 0.47513 0.0
C996 C 0.21637 0.72022 0.52604 0.0
H997 H 0.16436 0.74028 0.54398 0.0
C998 C 0.23105 0.73528 0.53513 0.0
C999 C 0.19204 0.72182 0.52974 0.0
C1000 C 0.17541 0.70569 0.52159 0.0
C1001 C 0.22207 0.75214 0.5471 0.0
C1002 C 0.19773 0.75396 0.55031 0.0
C1003 C 0.18303 0.73881 0.54157 0.0
C1004 C 0.18728 0.77225 0.56114 0.0
C1005 C 0.23861 0.76829 0.55546 0.0
C1006 C 0.19105 0.77715 0.5851 0.0
C1007 C 0.18298 0.79548 0.59439 0.0
C1008 C 0.17116 0.80923 0.57978 0.0
C1009 C 0.16663 0.80382 0.55606 0.0
C1010 C 0.17451 0.78551 0.54689 0.0
H1011 H 0.25645 0.7662 0.54818 0.0
H1012 H 0.23217 0.78339 0.55022 0.0
H1013 H 0.2397 0.76791 0.5751 0.0
H1014 H 0.20069 0.767 0.59645 0.0
H1015 H 0.18677 0.79917 0.6127 0.0
H1016 H 0.3236 0.80356 0.91159 0.0
H1017 H 0.30859 0.77242 0.92921 0.0
H1018 H 0.34813 0.78403 0.99275 0.0
H1019 H 0.36258 0.81531 0.97564 0.0
H1020 H 0.32786 0.73791 0.94716 0.0
H1021 H 0.28303 0.77988 0.01903 0.0
H1022 H 0.29568 0.79226 0.99367 0.0
H1023 H 0.31376 0.7846 0.01812 0.0
C1024 C 0.3293 0.79934 0.9292 0.0
C1025 C 0.34405 0.81204 0.94232 0.0
C1026 C 0.32067 0.78156 0.93928 0.0
C1027 C 0.32673 0.77614 0.96258 0.0
C1028 C 0.34262 0.78818 0.97506 0.0
H1029 H 0.28146 0.68029 0.05824 0.0
H1030 H 0.30482 0.70602 0.038 0.0
C1031 C 0.351 0.80601 0.96516 0.0
C1032 C 0.31584 0.75838 0.9742 0.0
H1033 H 0.28352 0.74437 0.02243 0.0
C1034 C 0.31814 0.73933 0.9636 0.0
C1035 C 0.30301 0.76021 0.99562 0.0
C1036 C 0.29849 0.78036 1.00716 0.0
C1037 C 0.30823 0.7221 0.97398 0.0
C1038 C 0.29567 0.72397 0.99547 0.0
C1039 C 0.29345 0.74295 1.00612 0.0
C1040 C 0.28336 0.70672 1.0065 0.0
C1041 C 0.31134 0.70197 0.96202 0.0
C1042 C 0.26372 0.69848 0.9954 0.0
C1043 C 0.25028 0.68397 1.00696 0.0
C1044 C 0.25625 0.6773 0.02985 0.0
C1045 C 0.2765 0.68498 0.04056 0.0
C1046 C 0.28981 0.69972 0.02906 0.0
H1047 H 0.32549 0.70228 0.94856 0.0
H1048 H 0.31529 0.69013 0.97529 0.0
H1049 H 0.29489 0.69778 0.95295 0.0
H1050 H 0.25824 0.70386 0.97816 0.0
H1051 H 0.23481 0.67836 0.99819 0.0
H1052 H 0.23032 0.32875 0.5653 0.0
H1053 H 0.20959 0.30352 0.54158 0.0
H1054 H 0.25101 0.31918 0.48048 0.0
H1055 H 0.27211 0.34396 0.50411 0.0
H1056 H 0.18381 0.30371 0.49989 0.0
H1057 H 0.26531 0.25985 0.48793 0.0
H1058 H 0.26308 0.28051 0.50858 0.0
H1059 H 0.26727 0.28525 0.47745 0.0
C1060 C 0.23474 0.32705 0.54672 0.0
C1061 C 0.25306 0.33819 0.53668 0.0
C1062 C 0.22292 0.31258 0.53319 0.0
C1063 C 0.22916 0.30908 0.50941 0.0
C1064 C 0.24633 0.32119 0.49896 0.0
H1065 H 0.1896 0.21373 0.40943 0.0
H1066 H 0.2032 0.24589 0.42586 0.0
C1067 C 0.25828 0.33546 0.51248 0.0
C1068 C 0.21864 0.29214 0.49588 0.0
H1069 H 0.23218 0.24829 0.46721 0.0
C1070 C 0.19439 0.29161 0.49271 0.0
C1071 C 0.23244 0.2763 0.48654 0.0
C1072 C 0.25843 0.27533 0.49046 0.0
C1073 C 0.18361 0.27573 0.48039 0.0
C1074 C 0.19742 0.25989 0.47118 0.0
C1075 C 0.22166 0.26056 0.47405 0.0
C1076 C 0.18705 0.24166 0.46019 0.0
C1077 C 0.15753 0.27601 0.47728 0.0
C1078 C 0.17337 0.22871 0.47398 0.0
C1079 C 0.16575 0.21036 0.46474 0.0
C1080 C 0.17162 0.20452 0.44146 0.0
C1081 C 0.18465 0.21783 0.42735 0.0
C1082 C 0.19248 0.23617 0.43673 0.0
H1083 H 0.15029 0.2914 0.47949 0.0
H1084 H 0.15255 0.27019 0.45952 0.0
H1085 H 0.14943 0.2662 0.49088 0.0
H1086 H 0.16931 0.23244 0.49224 0.0
H1087 H 0.15572 0.2005 0.47611 0.0
H1088 H 0.88549 0.72227 0.06381 0.0
H1089 H 0.86899 0.75482 0.05256 0.0
H1090 H 0.7998 0.73165 0.06432 0.0
H1091 H 0.81615 0.6994 0.07633 0.0
H1092 H 0.84284 0.76261 0.01581 0.0
H1093 H 0.7933 0.78511 0.09556 0.0
H1094 H 0.81418 0.76482 0.09598 0.0
H1095 H 0.78485 0.76052 0.08581 0.0
C1096 C 0.86678 0.72426 0.06456 0.0
C1097 C 0.85218 0.70822 0.07111 0.0
C1098 C 0.85735 0.74288 0.05802 0.0
C1099 C 0.83311 0.74587 0.05781 0.0
C1100 C 0.81855 0.73001 0.06493 0.0
H1101 H 0.75362 0.82333 0.96696 0.0
H1102 H 0.77804 0.79738 0.98449 0.0
C1103 C 0.82796 0.71147 0.07173 0.0
C1104 C 0.82301 0.76487 0.04821 0.0
H1105 H 0.78209 0.80112 0.05898 0.0
C1106 C 0.82979 0.77117 0.02543 0.0
C1107 C 0.80624 0.77635 0.06078 0.0
C1108 C 0.79942 0.77147 0.08598 0.0
C1109 C 0.81966 0.78806 0.01456 0.0
C1110 C 0.8017 0.79867 0.02647 0.0
C1111 C 0.79561 0.79289 0.04964 0.0
C1112 C 0.78831 0.8152 0.01492 0.0
C1113 C 0.82843 0.79435 0.99045 0.0
C1114 C 0.78557 0.83391 0.02623 0.0
C1115 C 0.77126 0.84879 0.01636 0.0
C1116 C 0.75938 0.84527 0.99493 0.0
C1117 C 0.76271 0.82673 0.9833 0.0
C1118 C 0.77681 0.81183 0.99329 0.0
H1119 H 0.84682 0.78965 0.98773 0.0
H1120 H 0.8178 0.78693 0.97654 0.0
H1121 H 0.82724 0.81089 0.98803 0.0
H1122 H 0.79416 0.83688 0.04297 0.0
H1123 H 0.76902 0.86283 0.02585 0.0
H1124 H 0.77698 0.17321 0.52112 0.0
H1125 H 0.75471 0.1974 0.54454 0.0
H1126 H 0.70942 0.20791 0.48484 0.0
H1127 H 0.73138 0.18327 0.4614 0.0
H1128 H 0.75137 0.23649 0.53499 0.0
H1129 H 0.66249 0.20433 0.53792 0.0
H1130 H 0.68754 0.18981 0.52879 0.0
H1131 H 0.67359 0.20667 0.50829 0.0
C1132 C 0.762 0.18036 0.51307 0.0
C1133 C 0.75598 0.17631 0.48934 0.0
C1134 C 0.74928 0.19423 0.52651 0.0
C1135 C 0.73023 0.20442 0.51659 0.0
C1136 C 0.72369 0.19994 0.49312 0.0
H1137 H 0.65418 0.31193 0.54826 0.0
H1138 H 0.66924 0.28017 0.53285 0.0
C1139 C 0.73633 0.18589 0.47968 0.0
C1140 C 0.71879 0.22101 0.53008 0.0
H1141 H 0.66616 0.23896 0.54919 0.0
C1142 C 0.73277 0.23686 0.53837 0.0
C1143 C 0.69451 0.22157 0.53447 0.0
C1144 C 0.67868 0.20459 0.52711 0.0
C1145 C 0.72312 0.2535 0.55023 0.0
C1146 C 0.69881 0.25425 0.55421 0.0
C1147 C 0.68481 0.2383 0.54623 0.0
C1148 C 0.68755 0.27221 0.56497 0.0
C1149 C 0.7389 0.27053 0.55761 0.0
C1150 C 0.69223 0.27802 0.58849 0.0
C1151 C 0.68356 0.29625 0.59746 0.0
C1152 C 0.67017 0.30899 0.58299 0.0
C1153 C 0.6646 0.30258 0.55985 0.0
C1154 C 0.67314 0.28438 0.55099 0.0
H1155 H 0.75648 0.26928 0.54946 0.0
H1156 H 0.73122 0.28525 0.55258 0.0
H1157 H 0.74097 0.27037 0.57717 0.0
H1158 H 0.70311 0.26871 0.59967 0.0
H1159 H 0.68816 0.30073 0.61533 0.0
H1160 H 0.81695 0.31809 0.93976 0.0
H1161 H 0.79911 0.28676 0.95308 0.0
H1162 H 0.86717 0.26192 0.96686 0.0
H1163 H 0.88513 0.29357 0.95441 0.0
H1164 H 0.80029 0.24826 0.9407 0.0
H1165 H 0.83768 0.25601 0.0309 0.0
H1166 H 0.83959 0.27573 1.0091 0.0
H1167 H 0.85935 0.2547 1.00802 0.0
C1168 C 0.82819 0.30587 0.94527 0.0
C1169 C 0.8525 0.30844 0.94624 0.0
C1170 C 0.81793 0.28794 0.95298 0.0
C1171 C 0.83172 0.27212 0.96164 0.0
C1172 C 0.85608 0.27412 0.96102 0.0
H1173 H 0.76669 0.15526 0.99447 0.0
H1174 H 0.7914 0.18131 0.97691 0.0
C1175 C 0.86636 0.29216 0.95364 0.0
C1176 C 0.82047 0.25397 0.97214 0.0
H1177 H 0.81654 0.22629 0.02306 0.0
C1178 C 0.80391 0.24341 0.95869 0.0
C1179 C 0.82485 0.24781 0.99579 0.0
C1180 C 0.84115 0.25925 0.01189 0.0
C1181 C 0.79151 0.22705 0.9682 0.0
C1182 C 0.79632 0.22059 0.99165 0.0
C1183 C 0.81303 0.23104 1.00502 0.0
C1184 C 0.78309 0.20398 1.00325 0.0
C1185 C 0.77271 0.21743 0.95333 0.0
C1186 C 0.77124 0.20757 0.02466 0.0
C1187 C 0.75755 0.19257 0.03503 0.0
C1188 C 0.75527 0.1736 0.02415 0.0
C1189 C 0.76792 0.16973 1.00323 0.0
C1190 C 0.78187 0.1847 0.99302 0.0
H1191 H 0.76698 0.22746 0.93871 0.0
H1192 H 0.77959 0.20341 0.94524 0.0
H1193 H 0.75729 0.21355 0.96429 0.0
H1194 H 0.77197 0.22224 0.03303 0.0
H1195 H 0.74803 0.19615 0.05109 0.0
H1196 H 0.79126 0.82321 0.50263 0.0
H1197 H 0.76707 0.79847 0.48268 0.0
H1198 H 0.70568 0.82444 0.5145 0.0
H1199 H 0.72997 0.84965 0.53471 0.0
H1200 H 0.73865 0.77084 0.50698 0.0
H1201 H 0.6881 0.81715 0.44302 0.0
H1202 H 0.7148 0.82588 0.45646 0.0
H1203 H 0.68833 0.82555 0.4734 0.0
C1204 C 0.7726 0.82391 0.50532 0.0
C1205 C 0.7626 0.83844 0.52042 0.0
C1206 C 0.75878 0.8097 0.4938 0.0
C1207 C 0.73458 0.80966 0.49695 0.0
C1208 C 0.72432 0.82439 0.51154 0.0
H1209 H 0.65021 0.704 0.47073 0.0
H1210 H 0.6659 0.73542 0.48632 0.0
C1211 C 0.73823 0.83872 0.52316 0.0
C1212 C 0.72067 0.79313 0.48629 0.0
H1213 H 0.67935 0.78235 0.4445 0.0
C1214 C 0.72562 0.77337 0.49339 0.0
C1215 C 0.70386 0.79647 0.46839 0.0
C1216 C 0.69847 0.81737 0.45965 0.0
C1217 C 0.71428 0.75686 0.48309 0.0
C1218 C 0.69728 0.76016 0.46538 0.0
C1219 C 0.69231 0.7799 0.45817 0.0
C1220 C 0.68472 0.74304 0.45435 0.0
C1221 C 0.72092 0.73593 0.49095 0.0
C1222 C 0.68924 0.73736 0.43076 0.0
C1223 C 0.6802 0.71932 0.42167 0.0
C1224 C 0.66656 0.70672 0.43611 0.0
C1225 C 0.66089 0.71321 0.4592 0.0
C1226 C 0.66982 0.73118 0.46818 0.0
H1227 H 0.73762 0.73578 0.50088 0.0
H1228 H 0.70712 0.72992 0.50277 0.0
H1229 H 0.72252 0.72566 0.47546 0.0
H1230 H 0.7007 0.74635 0.4198 0.0
H1231 H 0.6849 0.71476 0.40384 0.0
H1232 H 0.38244 0.08972 0.04116 0.0
H1233 H 0.37912 0.05979 0.01646 0.0
H1234 H 0.32796 0.03542 0.06459 0.0
H1235 H 0.33216 0.06512 0.09019 0.0
H1236 H 0.35536 1.007 0.05172 0.0
H1237 H 0.33051 0.04637 0.96969 0.0
H1238 H 0.35782 0.05586 0.98009 0.0
H1239 H 0.33194 0.05912 0.99791 0.0
C1240 C 0.37044 0.078 0.04652 0.0
C1241 C 0.35744 0.07985 0.06759 0.0
C1242 C 0.36836 0.06095 0.03219 0.0
C1243 C 0.3527 0.04554 0.03812 0.0
C1244 C 0.33998 0.04716 0.05942 0.0
H1245 H 0.32709 0.94978 0.9324 0.0
H1246 H 0.32284 0.97998 0.95735 0.0
C1247 C 0.34242 0.06411 0.07409 0.0
C1248 C 0.35048 0.02745 0.02254 0.0
H1249 H 0.34593 0.01279 0.96454 0.0
C1250 C 0.35298 0.0083 0.0327 0.0
C1251 C 0.3467 0.02892 0.99773 0.0
C1252 C 0.34131 0.04868 0.98581 0.0
C1253 C 0.35293 0.99078 0.01871 0.0
C1254 C 0.35139 0.99242 0.99367 0.0
C1255 C 0.34771 0.01146 0.98362 0.0
C1256 C 0.35425 0.97466 0.97768 0.0
C1257 C 0.35427 0.9707 0.0311 0.0
C1258 C 0.37369 0.962 0.98009 0.0
C1259 C 0.37585 0.94467 0.96624 0.0
C1260 C 0.35906 0.93993 0.94902 0.0
C1261 C 0.34032 0.95317 0.94548 0.0
C1262 C 0.33786 0.97035 0.9598 0.0
H1263 H 0.34668 0.97157 0.04922 0.0
H1264 H 0.34495 0.95881 0.02104 0.0
H1265 H 0.37279 0.96623 0.033 0.0
H1266 H 0.38713 0.96535 0.99295 0.0
H1267 H 0.39064 0.93484 0.96915 0.0
H1268 H 0.19001 0.94898 0.58942 0.0
H1269 H 0.19368 0.97917 0.5646 0.0
H1270 H 0.13296 0.96109 0.5249 0.0
H1271 H 0.12998 0.93071 0.54875 0.0
H1272 H 0.16527 0.97214 0.49559 0.0
H1273 H 0.15829 0.0306 0.56561 0.0
H1274 H 0.18204 0.01348 0.57002 0.0
H1275 H 0.15253 1.00443 0.57142 0.0
C1276 C 0.17731 0.95167 0.5756 0.0
C1277 C 0.15969 0.93754 0.57106 0.0
C1278 C 0.17936 0.96894 0.56144 0.0
C1279 C 0.16344 0.9726 0.54295 0.0
C1280 C 0.14554 0.95865 0.53891 0.0
H1281 H 0.1301 0.08372 0.47456 0.0
H1282 H 0.13334 0.0534 0.49847 0.0
C1283 C 0.14379 0.9413 0.55266 0.0
C1284 C 0.16549 0.99049 0.52714 0.0
H1285 H 0.16625 0.04185 0.52675 0.0
C1286 C 0.16549 0.9874 0.50243 0.0
C1287 C 0.16568 0.01044 0.53597 0.0
C1288 C 0.16442 0.015 0.56218 0.0
C1289 C 0.16492 1.00356 0.48639 0.0
C1290 C 0.16528 0.0235 0.49522 0.0
C1291 C 0.16603 0.02659 0.51991 0.0
C1292 C 0.16309 0.04141 0.47946 0.0
C1293 C 0.16281 0.99901 0.46023 0.0
C1294 C 0.17851 0.04481 0.46043 0.0
C1295 C 0.17629 0.06204 0.44624 0.0
C1296 C 0.15902 0.07642 0.45128 0.0
C1297 C 0.14363 0.07294 0.47025 0.0
C1298 C 0.14554 0.05562 0.48404 0.0
H1299 H 0.15632 0.98351 0.45702 0.0
H1300 H 0.15085 0.00975 0.45138 0.0
H1301 H 0.18023 1.00027 0.45181 0.0
H1302 H 0.19257 0.03439 0.45684 0.0
H1303 H 0.18861 0.06451 0.43197 0.0
H1304 H 0.67095 0.94176 0.9533 0.0
H1305 H 0.6742 0.97509 0.97097 0.0
H1306 H 0.73486 0.95595 1.00999 0.0
H1307 H 0.73111 0.92205 0.99287 0.0
H1308 H 0.70842 0.97935 0.03681 0.0
H1309 H 0.71945 0.01712 0.95052 0.0
H1310 H 0.69283 1.0031 0.95095 0.0
H1311 H 0.7203 0.99012 0.95345 0.0
C1312 C 0.6849 0.94457 0.9658 0.0
C1313 C 0.70088 0.92932 0.97159 0.0
C1314 C 0.6869 0.96373 0.97569 0.0
C1315 C 0.70528 0.96831 0.99115 0.0
C1316 C 0.72071 0.95287 0.99783 0.0
H1317 H 0.7295 0.09601 0.02698 0.0
H1318 H 0.73381 0.06215 1.00983 0.0
C1319 C 0.71849 0.93348 0.98817 0.0
C1320 C 0.70794 0.98917 1.00043 0.0
H1321 H 0.70782 0.03844 0.98318 0.0
C1322 C 0.70859 0.99225 0.02506 0.0
C1323 C 0.70887 1.00609 0.98517 0.0
C1324 C 0.71061 1.00393 0.95857 0.0
C1325 C 0.70883 0.01171 0.03482 0.0
C1326 C 0.70756 0.02862 0.01956 0.0
C1327 C 0.70825 0.02555 0.99493 0.0
C1328 C 0.70452 0.04945 0.02885 0.0
C1329 C 0.71055 0.0139 0.06142 0.0
C1330 C 0.6861 0.05381 0.04443 0.0
C1331 C 0.68379 0.07295 0.05434 0.0
C1332 C 0.69948 0.08838 0.04844 0.0
C1333 C 0.7171 0.08443 0.03174 0.0
C1334 C 0.71965 0.06507 0.02207 0.0
H1335 H 0.71965 1.00082 0.06943 0.0
H1336 H 0.71998 0.02782 0.0665 0.0
H1337 H 0.69276 0.01449 0.0691 0.0
H1338 H 0.67363 0.04231 0.04923 0.0
H1339 H 0.66985 0.07559 0.06695 0.0
H1340 H 0.84669 0.07575 0.45705 0.0
H1341 H 0.84315 0.04179 0.47292 0.0
H1342 H 0.78088 0.05928 0.51069 0.0
H1343 H 0.78521 0.09379 0.4958 0.0
H1344 H 0.80464 0.03553 0.53714 0.0
H1345 H 0.80088 0.9996 0.44908 0.0
H1346 H 0.82744 0.01348 0.45185 0.0
H1347 H 0.79988 0.02653 0.45272 0.0
C1348 C 0.83236 0.07239 0.46893 0.0
C1349 C 0.81617 0.08735 0.47516 0.0
C1350 C 0.83016 0.05289 0.47774 0.0
C1351 C 0.81126 0.04768 0.49231 0.0
C1352 C 0.79548 0.06282 0.49925 0.0
H1353 H 0.78784 0.91846 0.51829 0.0
H1354 H 0.78382 0.95303 0.50344 0.0
C1355 C 0.798 0.08254 0.49085 0.0
C1356 C 0.80838 0.02655 0.50059 0.0
H1357 H 0.81063 0.97771 0.48172 0.0
C1358 C 0.80565 0.02291 0.52496 0.0
C1359 C 0.80892 0.00996 0.48473 0.0
C1360 C 0.80915 0.01262 0.45814 0.0
C1361 C 0.80461 1.00325 0.53398 0.0
C1362 C 0.80746 0.98669 0.51833 0.0
C1363 C 0.80899 0.99031 0.49385 0.0
C1364 C 0.80977 0.96563 0.52707 0.0
C1365 C 0.80021 1.00054 0.56019 0.0
C1366 C 0.8261 0.96102 0.54476 0.0
C1367 C 0.82803 0.94148 0.55351 0.0
C1368 C 0.81425 0.9259 0.54423 0.0
C1369 C 0.79868 0.9302 0.52572 0.0
C1370 C 0.79635 0.94995 0.51731 0.0
H1371 H 0.78986 0.01326 0.5675 0.0
H1372 H 0.79078 0.98633 0.56392 0.0
H1373 H 0.8171 1.00031 0.56972 0.0
H1374 H 0.83741 0.97255 0.55189 0.0
H1375 H 0.84047 0.93854 0.56752 0.0
H1376 H 0.85283 0.42185 0.98399 0.0
H1377 H 0.8502 0.45222 1.0079 0.0
H1378 H 0.84918 0.48828 0.94441 0.0
H1379 H 0.85118 0.45771 0.92007 0.0
H1380 H 0.8806 0.48278 0.01083 0.0
H1381 H 0.79501 0.51202 0.98103 0.0
H1382 H 0.80475 0.48682 0.97434 0.0
H1383 H 0.81532 0.50777 0.9573 0.0
C1384 C 0.85173 0.43617 0.97494 0.0
C1385 C 0.85201 0.43722 0.94997 0.0
C1386 C 0.85031 0.45359 0.98874 0.0
C1387 C 0.84918 0.47259 0.97805 0.0
C1388 C 0.84948 0.47379 0.95312 0.0
H1389 H 0.85447 0.59424 0.03224 0.0
H1390 H 0.85306 0.56368 1.00843 0.0
C1391 C 0.85074 0.45628 0.93921 0.0
C1392 C 0.84873 0.491 0.9932 0.0
H1393 H 0.81748 0.53353 1.00574 0.0
C1394 C 0.86671 0.4938 1.00979 0.0
C1395 C 0.8306 0.50541 0.99192 0.0
C1396 C 0.8102 0.50282 0.97536 0.0
C1397 C 0.86726 0.51071 0.0248 0.0
C1398 C 0.84923 0.52516 0.0234 0.0
C1399 C 0.83125 0.5224 1.00683 0.0
C1400 C 0.84925 0.54365 0.03832 0.0
C1401 C 0.88745 0.51326 0.04164 0.0
C1402 C 0.84725 0.54261 0.06315 0.0
C1403 C 0.84792 0.56018 0.07698 0.0
C1404 C 0.85061 0.57912 0.06621 0.0
C1405 C 0.85231 0.58001 0.04128 0.0
C1406 C 0.85151 0.56251 0.02754 0.0
H1407 H 0.90218 0.50307 0.03716 0.0
H1408 H 0.89384 0.52902 0.04146 0.0
H1409 H 0.8816 0.50975 0.05994 0.0
H1410 H 0.84521 0.5282 0.07184 0.0
H1411 H 0.84657 0.55888 0.09609 0.0
H1412 H 0.643 0.42344 0.53508 0.0
H1413 H 0.64504 0.454 0.5117 0.0
H1414 H 0.67241 0.48621 0.57193 0.0
H1415 H 0.6705 0.45533 0.59585 0.0
H1416 H 0.6221 0.49105 0.522 0.0
H1417 H 0.7184 0.49902 0.516 0.0
H1418 H 0.7045 0.47562 0.52399 0.0
H1419 H 0.70632 0.49569 0.54521 0.0
C1420 C 0.64957 0.43692 0.54353 0.0
C1421 C 0.65665 0.43682 0.56747 0.0
C1422 C 0.6507 0.45443 0.53003 0.0
C1423 C 0.65908 0.47232 0.53995 0.0
C1424 C 0.66618 0.47245 0.56382 0.0
H1425 H 0.64175 0.59227 0.48539 0.0
H1426 H 0.64369 0.5617 0.50884 0.0
C1427 C 0.66496 0.45484 0.5775 0.0
C1428 C 0.65945 0.49083 0.52525 0.0
H1429 H 0.69566 0.52459 0.4982 0.0
C1430 C 0.63818 0.4984 0.51685 0.0
C1431 C 0.68047 0.50021 0.51826 0.0
C1432 C 0.70379 0.49222 0.52613 0.0
C1433 C 0.63734 0.51524 0.50189 0.0
C1434 C 0.65831 0.52483 0.49521 0.0
C1435 C 0.67963 0.51716 0.50336 0.0
C1436 C 0.65814 0.54342 0.48071 0.0
C1437 C 0.61403 0.52264 0.49318 0.0
C1438 C 0.66592 0.54336 0.45706 0.0
C1439 C 0.66476 0.56095 0.44335 0.0
C1440 C 0.656 0.5789 0.45319 0.0
C1441 C 0.64857 0.57881 0.47705 0.0
C1442 C 0.64963 0.5613 0.49059 0.0
H1443 H 0.60006 0.51133 0.49593 0.0
H1444 H 0.60919 0.5365 0.50302 0.0
H1445 H 0.6149 0.52644 0.47402 0.0
H1446 H 0.67256 0.52964 0.44914 0.0
H1447 H 0.67068 0.56047 0.4251 0.0
H1448 H 0.22329 0.5956 0.02165 0.0
H1449 H 0.22552 0.5611 1.00628 0.0
H1450 H 0.17348 0.54252 0.05701 0.0
H1451 H 0.17215 0.5765 0.07313 0.0
H1452 H 0.20585 0.51581 0.05579 0.0
H1453 H 0.1823 0.53307 0.96274 0.0
H1454 H 0.20804 0.54602 0.97219 0.0
H1455 H 0.18046 0.55162 0.98601 0.0
C1456 C 0.21225 0.58414 0.02937 0.0
C1457 C 0.19751 0.58879 0.04854 0.0
C1458 C 0.21342 0.56443 0.0205 0.0
C1459 C 0.19935 0.54916 0.03016 0.0
C1460 C 0.18454 0.55392 0.04921 0.0
H1461 H 0.16352 0.43781 0.9607 0.0
H1462 H 0.16519 0.47128 0.97843 0.0
C1463 C 0.18375 0.57343 0.05839 0.0
C1464 C 0.20013 0.52812 0.02094 0.0
H1465 H 0.19428 0.49971 0.97076 0.0
C1466 C 0.20324 0.5123 0.03719 0.0
C1467 C 0.1965 0.52342 0.99671 0.0
C1468 C 0.1914 0.53941 0.97845 0.0
C1469 C 0.20245 0.49204 0.03002 0.0
C1470 C 0.19942 0.48737 1.00569 0.0
C1471 C 0.19671 0.5032 0.9894 0.0
C1472 C 0.19784 0.46629 0.99672 0.0
C1473 C 0.20394 0.47594 0.04879 0.0
C1474 C 0.21538 0.45202 1.00137 0.0
C1475 C 0.21407 0.43258 0.99175 0.0
C1476 C 0.19555 0.42728 0.97675 0.0
C1477 C 0.17797 0.44148 0.97226 0.0
C1478 C 0.17899 0.46066 0.98229 0.0
H1479 H 0.19903 0.48184 0.06656 0.0
H1480 H 0.19243 0.46302 0.04454 0.0
H1481 H 0.22214 0.47041 0.0499 0.0
H1482 H 0.23045 0.45606 0.01185 0.0
H1483 H 0.22808 0.42204 0.99509 0.0
H1484 H 0.32708 0.56931 0.43923 0.0
H1485 H 0.32607 0.53622 0.45748 0.0
H1486 H 0.29669 0.56185 0.52114 0.0
H1487 H 0.29755 0.59539 0.50292 0.0
H1488 H 0.34827 0.52415 0.50058 0.0
H1489 H 0.25205 0.51445 0.50299 0.0
H1490 H 0.26615 0.53285 0.48431 0.0
H1491 H 0.26325 0.53737 0.51557 0.0
C1492 C 0.32033 0.56806 0.45712 0.0
C1493 C 0.3123 0.58511 0.46957 0.0
C1494 C 0.3198 0.54905 0.46751 0.0
C1495 C 0.31108 0.54653 0.49053 0.0
C1496 C 0.30318 0.56345 0.50319 0.0
H1497 H 0.32805 0.4437 0.58205 0.0
H1498 H 0.32711 0.47681 0.56376 0.0
C1499 C 0.30381 0.58261 0.49281 0.0
C1500 C 0.31085 0.52616 0.50121 0.0
H1501 H 0.27479 0.4886 0.5202 0.0
C1502 C 0.33221 0.51638 0.50492 0.0
C1503 C 0.28986 0.51598 0.5065 0.0
C1504 C 0.26646 0.52556 0.50202 0.0
C1505 C 0.33316 0.49678 0.51408 0.0
C1506 C 0.3122 0.48674 0.51979 0.0
C1507 C 0.29081 0.49638 0.51581 0.0
C1508 C 0.31232 0.46647 0.53069 0.0
C1509 C 0.35656 0.48686 0.51741 0.0
C1510 C 0.30401 0.44964 0.51822 0.0
C1511 C 0.30458 0.43049 0.52862 0.0
C1512 C 0.31322 0.42795 0.55177 0.0
C1513 C 0.3213 0.44498 0.56419 0.0
C1514 C 0.32084 0.46399 0.55376 0.0
H1515 H 0.37056 0.49477 0.50751 0.0
H1516 H 0.36114 0.48704 0.53653 0.0
H1517 H 0.35602 0.47092 0.51149 0.0
H1518 H 0.29731 0.45131 0.50038 0.0
H1519 H 0.29815 0.41775 0.51858 0.0
H1520 H 0.62489 0.13078 0.05958 0.0
H1521 H 0.58256 0.13252 0.06136 0.0
H1522 H 0.58624 0.15095 0.13471 0.0
H1523 H 0.62885 0.14814 0.13334 0.0
H1524 H 0.55285 0.12573 0.13019 0.0
H1525 H 0.54225 0.18043 0.05768 0.0
H1526 H 0.55756 0.15874 0.04704 0.0
H1527 H 0.57043 0.17431 0.06976 0.0
C1528 C 0.61671 0.13525 0.07611 0.0
C1529 C 0.63022 0.13946 0.0963 0.0
C1530 C 0.59245 0.13645 0.07703 0.0
C1531 C 0.58108 0.14251 0.09793 0.0
C1532 C 0.59455 0.14643 0.11828 0.0
H1533 H 0.43122 0.17004 0.09162 0.0
H1534 H 0.47377 0.17299 0.09367 0.0
C1535 C 0.61889 0.1448 0.11751 0.0
C1536 C 0.55516 0.14393 0.09869 0.0
H1537 H 0.50805 0.1612 0.06779 0.0
C1538 C 0.54309 0.13371 0.11669 0.0
C1539 C 0.54225 0.15477 0.08151 0.0
C1540 C 0.55384 0.16786 0.06311 0.0
C1541 C 0.51863 0.13334 0.11742 0.0
C1542 C 0.50577 0.14269 0.09903 0.0
C1543 C 0.5178 0.15363 0.08162 0.0
C1544 C 0.47992 0.14098 0.0973 0.0
C1545 C 0.50695 0.12314 0.13817 0.0
C1546 C 0.46916 0.12203 0.09795 0.0
C1547 C 0.44492 0.12038 0.09724 0.0
C1548 C 0.43088 0.1376 0.09506 0.0
C1549 C 0.44162 0.15651 0.09321 0.0
C1550 C 0.46592 0.1582 0.09446 0.0
H1551 H 0.51821 0.12351 0.15418 0.0
H1552 H 0.49005 0.13036 0.14263 0.0
H1553 H 0.50378 0.10712 0.13371 0.0
H1554 H 0.47949 0.10845 0.09913 0.0
H1555 H 0.43716 0.10557 0.0984 0.0
H1556 H 0.88709 0.87646 0.6269 0.0
H1557 H 0.92963 0.8777 0.63132 0.0
H1558 H 0.93726 0.88241 0.55545 0.0
H1559 H 0.89521 0.88134 0.5508 0.0
H1560 H 0.96361 0.85087 0.61042 0.0
H1561 H 0.97595 0.92983 0.58148 0.0
H1562 H 0.94803 0.92008 0.59073 0.0
H1563 H 0.95885 0.91495 0.56139 0.0
C1564 C 0.89782 0.87792 0.61118 0.0
C1565 C 0.88764 0.87885 0.58851 0.0
C1566 C 0.92211 0.87856 0.61374 0.0
C1567 C 0.93655 0.88037 0.59372 0.0
C1568 C 0.92643 0.88133 0.57116 0.0
H1569 H 0.08377 0.85486 0.57298 0.0
H1570 H 0.04107 0.85425 0.57303 0.0
C1571 C 0.90231 0.88063 0.56857 0.0
C1572 C 0.96226 0.88082 0.59606 0.0
H1573 H 0.00999 0.90938 0.58319 0.0
C1574 C 0.97379 0.86371 0.60468 0.0
C1575 C 0.97545 0.89764 0.58868 0.0
C1576 C 0.96397 0.91675 0.58025 0.0
C1577 C 0.99824 0.86279 0.60553 0.0
C1578 C 0.01144 0.87932 0.59726 0.0
C1579 C 0.99986 0.89662 0.58924 0.0
C1580 C 0.0373 0.87929 0.59734 0.0
C1581 C 0.00974 0.84422 0.61547 0.0
C1582 C 0.04931 0.89383 0.61052 0.0
C1583 C 0.07361 0.89432 0.6104 0.0
C1584 C 0.08652 0.88029 0.59699 0.0
C1585 C 0.07442 0.86581 0.58359 0.0
C1586 C 0.05002 0.86535 0.58373 0.0
H1587 H 0.99744 0.83517 0.62629 0.0
H1588 H 0.01601 0.83467 0.60061 0.0
H1589 H 0.02497 0.84828 0.62661 0.0
H1590 H 0.03986 0.9048 0.62102 0.0
H1591 H 0.08222 0.90578 0.62086 0.0
H1592 H 0.43788 0.90803 0.90532 0.0
H1593 H 0.48024 0.9059 0.90588 0.0
H1594 H 0.47639 0.85203 0.94811 0.0
H1595 H 0.4337 0.85396 0.94767 0.0
H1596 H 0.51015 0.90521 0.94682 0.0
H1597 H 0.51887 0.83696 0.89021 0.0
H1598 H 0.49256 0.85185 0.89117 0.0
H1599 H 0.49934 0.83509 0.9151 0.0
C1600 C 0.44592 0.89567 0.91476 0.0
C1601 C 0.43229 0.8811 0.92639 0.0
C1602 C 0.47019 0.89451 0.91505 0.0
C1603 C 0.48143 0.8787 0.92679 0.0
C1604 C 0.46801 0.86421 0.93866 0.0
H1605 H 0.62762 0.87183 0.96424 0.0
H1606 H 0.58516 0.87163 0.96382 0.0
C1607 C 0.44363 0.8654 0.93849 0.0
C1608 C 0.50724 0.87773 0.9268 0.0
H1609 H 0.5536 0.85057 0.90607 0.0
C1610 C 0.51967 0.89324 0.93798 0.0
C1611 C 0.51956 0.86223 0.91497 0.0
C1612 C 0.507 0.84562 0.90199 0.0
C1613 C 0.54412 0.89356 0.93785 0.0
C1614 C 0.55645 0.87791 0.92635 0.0
C1615 C 0.54405 0.86249 0.91495 0.0
C1616 C 0.58226 0.8773 0.9262 0.0
C1617 C 0.55662 0.91079 0.94973 0.0
C1618 C 0.59473 0.88017 0.90504 0.0
C1619 C 0.61914 0.88035 0.90516 0.0
C1620 C 0.63148 0.87747 0.92645 0.0
C1621 C 0.6188 0.87418 0.9475 0.0
C1622 C 0.59448 0.8741 0.94736 0.0
H1623 H 0.54475 0.92362 0.95346 0.0
H1624 H 0.564 0.90556 0.96683 0.0
H1625 H 0.57125 0.91617 0.93851 0.0
H1626 H 0.58557 0.88261 0.8885 0.0
H1627 H 0.6283 0.8829 0.88862 0.0
H1628 H 0.08401 0.16099 0.44786 0.0
H1629 H 0.0413 0.16237 0.44831 0.0
H1630 H 0.03852 0.10974 0.40366 0.0
H1631 H 0.08092 0.10811 0.40312 0.0
H1632 H 0.0095 0.16456 0.40757 0.0
H1633 H 0.99723 0.09591 0.46228 0.0
H1634 H 0.02458 0.10926 0.46089 0.0
H1635 H 0.01604 0.09299 0.43697 0.0
C1636 C 0.07432 0.14967 0.43819 0.0
C1637 C 0.08598 0.1344 0.42554 0.0
C1638 C 0.04993 0.15053 0.4384 0.0
C1639 C 0.03679 0.13605 0.42618 0.0
C1640 C 0.04834 0.12091 0.41344 0.0
H1641 H 0.888 0.13605 0.39177 0.0
H1642 H 0.9307 0.13589 0.38931 0.0
C1643 C 0.07264 0.12007 0.41313 0.0
C1644 C 0.01098 0.13663 0.42674 0.0
H1645 H 0.96336 0.11035 0.44552 0.0
C1646 C 0.99936 0.15275 0.41588 0.0
C1647 C 0.99787 0.12123 0.4377 0.0
C1648 C 0.00949 0.10392 0.45031 0.0
C1649 C 0.9749 0.15376 0.41551 0.0
C1650 C 0.9618 0.13818 0.42614 0.0
C1651 C 0.97345 0.12217 0.43717 0.0
C1652 C 0.93598 0.13867 0.42718 0.0
C1653 C 0.96322 0.17165 0.40419 0.0
C1654 C 0.92485 0.14001 0.44926 0.0
C1655 C 0.9006 0.14008 0.45074 0.0
C1656 C 0.88682 0.13867 0.43014 0.0
C1657 C 0.89803 0.13724 0.40797 0.0
C1658 C 0.92242 0.13724 0.40652 0.0
H1659 H 0.97568 0.18412 0.40088 0.0
H1660 H 0.95561 0.16704 0.38694 0.0
H1661 H 0.94885 0.17733 0.4156 0.0
H1662 H 0.93498 0.14106 0.46542 0.0
H1663 H 0.8927 0.14114 0.46816 0.0
H1664 H 0.11979 0.64117 0.04899 0.0
H1665 H 0.0775 0.64107 0.05075 0.0
H1666 H 0.08013 0.63885 0.12713 0.0
H1667 H 0.12286 0.63926 0.12564 0.0
H1668 H 0.04862 0.61216 0.06953 0.0
H1669 H 0.03517 0.68578 0.11428 0.0
H1670 H 0.06268 0.67858 0.1012 0.0
H1671 H 0.0542 0.66871 0.12958 0.0
C1672 C 0.11153 0.64077 0.06626 0.0
C1673 C 0.12487 0.64035 0.08722 0.0
C1674 C 0.08725 0.64069 0.06719 0.0
C1675 C 0.07562 0.64023 0.08905 0.0
C1676 C 0.08875 0.63961 0.11006 0.0
H1677 H 0.9319 0.60741 0.1116 0.0
H1678 H 0.97414 0.60956 0.10973 0.0
C1679 C 0.11318 0.63971 0.10917 0.0
C1680 C 0.04975 0.63978 0.0895 0.0
H1681 H 1.00157 0.66571 0.108 0.0
C1682 C 0.03834 0.62387 0.07794 0.0
C1683 C 0.03636 0.65524 0.10014 0.0
C1684 C 0.04765 0.67316 0.11184 0.0
C1685 C 0.01394 0.62285 0.07701 0.0
C1686 C 1.00054 0.638 0.08824 0.0
C1687 C 0.0119 0.65408 0.09949 0.0
C1688 C 0.97473 0.63695 0.08914 0.0
C1689 C 1.0027 0.60567 0.06378 0.0
C1690 C 0.96093 0.65186 0.07847 0.0
C1691 C 0.93656 0.65073 0.07952 0.0
C1692 C 0.92559 0.63476 0.09148 0.0
C1693 C 0.93961 0.61992 0.10216 0.0
C1694 C 0.96384 0.62105 0.10106 0.0
H1695 H 0.01497 0.59854 0.05103 0.0
H1696 H 0.99713 0.59402 0.07666 0.0
H1697 H 0.98707 0.61085 0.05394 0.0
H1698 H 0.96903 0.66431 0.06925 0.0
H1699 H 0.92636 0.66245 0.07119 0.0
H1700 H 0.5814 0.35203 0.57373 0.0
H1701 H 0.53865 0.35045 0.57357 0.0
H1702 H 0.53554 0.40482 0.6152 0.0
H1703 H 0.57785 0.40669 0.61536 0.0
H1704 H 0.50704 0.34954 0.61425 0.0
H1705 H 0.49371 0.41639 0.55693 0.0
H1706 H 0.52128 0.4034 0.55882 0.0
H1707 H 0.51255 0.42051 0.5819 0.0
C1708 C 0.57161 0.3637 0.58274 0.0
C1709 C 0.58314 0.37951 0.59447 0.0
C1710 C 0.54721 0.36272 0.58271 0.0
C1711 C 0.53397 0.37763 0.59419 0.0
C1712 C 0.54541 0.39332 0.60597 0.0
H1713 H 0.38597 0.37855 0.6326 0.0
H1714 H 0.42873 0.37837 0.63393 0.0
C1715 C 0.56968 0.39429 0.60607 0.0
C1716 C 0.50815 0.37694 0.59401 0.0
H1717 H 0.4602 0.40303 0.57577 0.0
C1718 C 0.49675 0.36117 0.60578 0.0
C1719 C 0.49482 0.3921 0.58285 0.0
C1720 C 0.50615 0.40899 0.56922 0.0
C1721 C 0.47229 0.36031 0.60692 0.0
C1722 C 0.45899 0.37573 0.5962 0.0
C1723 C 0.47044 0.39135 0.58421 0.0
C1724 C 0.43314 0.37541 0.59594 0.0
C1725 C 0.46085 0.34275 0.61918 0.0
C1726 C 0.42149 0.37413 0.57418 0.0
C1727 C 0.39723 0.37432 0.57334 0.0
C1728 C 0.38392 0.37587 0.59429 0.0
C1729 C 0.39563 0.37724 0.61615 0.0
C1730 C 0.42006 0.37703 0.61695 0.0
H1731 H 0.47328 0.33021 0.62223 0.0
H1732 H 0.45402 0.34775 0.63665 0.0
H1733 H 0.44596 0.33704 0.60858 0.0
H1734 H 0.43123 0.37296 0.55774 0.0
H1735 H 0.38896 0.37331 0.55613 0.0
H1736 H 0.12461 0.38221 0.89374 0.0
H1737 H 0.08184 0.38207 0.89362 0.0
H1738 H 0.08146 0.36598 0.96765 0.0
H1739 H 0.12382 0.36625 0.96812 0.0
H1740 H 0.04915 0.3507 0.90645 0.0
H1741 H 0.04195 0.41789 0.96469 0.0
H1742 H 0.06862 0.41113 0.94965 0.0
H1743 H 0.06004 0.39813 0.97618 0.0
C1744 C 0.11543 0.37856 0.90997 0.0
C1745 C 0.12776 0.37436 0.93096 0.0
C1746 C 0.091 0.37846 0.90986 0.0
C1747 C 0.0785 0.37428 0.93072 0.0
C1748 C 0.09074 0.36956 0.95146 0.0
H1749 H 0.92837 0.35081 0.94459 0.0
H1750 H 0.97099 0.34787 0.94657 0.0
C1751 C 0.11505 0.36966 0.95162 0.0
C1752 C 0.05267 0.37524 0.93112 0.0
H1753 H 0.007 0.40036 0.95641 0.0
C1754 C 0.03989 0.36154 0.91734 0.0
C1755 C 0.04067 0.3895 0.94524 0.0
C1756 C 0.05346 0.40513 0.95964 0.0
C1757 C 0.01538 0.36165 0.91747 0.0
C1758 C 1.0034 0.37567 0.93196 0.0
C1759 C 0.01622 0.38944 0.94558 0.0
C1760 C 0.97761 0.37737 0.93188 0.0
C1761 C 1.00249 0.34711 0.90166 0.0
C1762 C 0.96723 0.39514 0.92373 0.0
C1763 C 0.94305 0.39691 0.92273 0.0
C1764 C 0.92857 0.38096 0.92996 0.0
C1765 C 0.93897 0.36337 0.93888 0.0
C1766 C 0.96332 0.36159 0.93981 0.0
H1767 H 0.01414 0.3401 0.88823 0.0
H1768 H 0.9949 0.33495 0.91268 0.0
H1769 H 0.98799 0.35481 0.89234 0.0
H1770 H 0.97789 0.40755 0.91767 0.0
H1771 H 0.93574 0.41074 0.91587 0.0
H1772 H 0.57891 0.66189 0.44525 0.0
H1773 H 0.53618 0.66279 0.445 0.0
H1774 H 0.53484 0.60877 0.40264 0.0
H1775 H 0.57722 0.60758 0.40287 0.0
H1776 H 0.50501 0.66365 0.40421 0.0
H1777 H 0.49271 0.59595 0.46045 0.0
H1778 H 0.52001 0.60936 0.45891 0.0
H1779 H 0.51176 0.59248 0.43545 0.0
C1780 C 0.56953 0.65015 0.43596 0.0
C1781 C 0.58158 0.63463 0.42416 0.0
C1782 C 0.54512 0.65074 0.43577 0.0
C1783 C 0.53238 0.63574 0.42398 0.0
C1784 C 0.54433 0.62034 0.4121 0.0
H1785 H 0.38388 0.63419 0.38714 0.0
H1786 H 0.42663 0.63431 0.38509 0.0
C1787 C 0.56863 0.61975 0.41222 0.0
C1788 C 0.50655 0.63605 0.42403 0.0
H1789 H 0.45898 0.60945 0.4423 0.0
C1790 C 0.4949 0.65184 0.41256 0.0
C1791 C 0.49346 0.62065 0.43504 0.0
C1792 C 0.50505 0.60372 0.44835 0.0
C1793 C 0.47043 0.65255 0.41164 0.0
C1794 C 0.45737 0.63696 0.4223 0.0
C1795 C 0.46905 0.62126 0.43391 0.0
C1796 C 0.43153 0.63723 0.423 0.0
C1797 C 0.45872 0.67015 0.39974 0.0
C1798 C 0.42018 0.63852 0.44496 0.0
C1799 C 0.39593 0.6384 0.44621 0.0
C1800 C 0.38234 0.63688 0.42548 0.0
C1801 C 0.39376 0.63547 0.40342 0.0
C1802 C 0.41817 0.63564 0.40221 0.0
H1803 H 0.47105 0.68272 0.39648 0.0
H1804 H 0.45156 0.66522 0.38241 0.0
H1805 H 0.44402 0.6758 0.41072 0.0
H1806 H 0.43014 0.63969 0.46122 0.0
H1807 H 0.38789 0.63943 0.46355 0.0
H1808 H 0.32548 0.09345 0.18486 0.0
H1809 H 0.30528 0.09175 0.22298 0.0
H1810 H 0.26269 0.14241 0.20297 0.0
H1811 H 0.28232 0.14377 0.16448 0.0
H1812 H 0.30432 0.11837 0.25765 0.0
H1813 H 0.2137 0.10552 0.22807 0.0
H1814 H 0.23821 0.10337 0.20817 0.0
H1815 H 0.22606 0.12767 0.21508 0.0
C1816 C 0.31153 0.10402 0.18838 0.0
C1817 C 0.30544 0.11867 0.17149 0.0
C1818 C 0.30004 0.10308 0.21027 0.0
C1819 C 0.28223 0.1168 0.21588 0.0
C1820 C 0.27593 0.1313 0.19893 0.0
H1821 H 0.23655 0.14709 0.35966 0.0
H1822 H 0.25719 0.14519 0.32169 0.0
C1823 C 0.28724 0.13211 0.17689 0.0
C1824 C 0.27119 0.11653 0.23988 0.0
H1825 H 0.21872 0.11517 0.26852 0.0
C1826 C 0.28559 0.11753 0.26001 0.0
C1827 C 0.24678 0.11517 0.2431 0.0
C1828 C 0.23031 0.11266 0.22247 0.0
C1829 C 0.27631 0.11749 0.28313 0.0
C1830 C 0.25184 0.11701 0.28632 0.0
C1831 C 0.23747 0.11573 0.26619 0.0
C1832 C 0.24066 0.11755 0.31025 0.0
C1833 C 0.2929 0.1175 0.30387 0.0
C1834 C 0.22428 0.10282 0.31655 0.0
C1835 C 0.21222 0.10406 0.33808 0.0
C1836 C 0.21631 0.12002 0.35396 0.0
C1837 C 0.23323 0.13444 0.34803 0.0
C1838 C 0.24511 0.13333 0.32629 0.0
H1839 H 0.31027 0.11151 0.29874 0.0
H1840 H 0.29536 0.13317 0.31017 0.0
H1841 H 0.28605 0.10838 0.3188 0.0
H1842 H 0.2205 0.09049 0.30457 0.0
H1843 H 0.19928 0.0927 0.34205 0.0
H1844 H 0.32301 0.91995 0.83767 0.0
H1845 H 0.30282 0.92077 0.79961 0.0
H1846 H 0.26289 0.86863 0.81985 0.0
H1847 H 0.2826 0.86806 0.85833 0.0
H1848 H 0.30366 0.89349 0.76525 0.0
H1849 H 0.21224 0.904 0.79424 0.0
H1850 H 0.23651 0.90718 0.81416 0.0
H1851 H 0.22573 0.88241 0.80742 0.0
C1852 C 0.30963 0.90885 0.83423 0.0
C1853 C 0.30436 0.89399 0.85115 0.0
C1854 C 0.29815 0.90929 0.81237 0.0
C1855 C 0.28115 0.89488 0.80681 0.0
C1856 C 0.27553 0.88022 0.82384 0.0
H1857 H 0.23703 0.86529 0.66208 0.0
H1858 H 0.25717 0.86651 0.70033 0.0
C1859 C 0.28687 0.87988 0.84587 0.0
C1860 C 0.27031 0.89468 0.78275 0.0
H1861 H 0.21813 0.89537 0.75368 0.0
C1862 C 0.28495 0.894 0.76274 0.0
C1863 C 0.2459 0.89555 0.77936 0.0
C1864 C 0.22918 0.89753 0.79992 0.0
C1865 C 0.27592 0.89405 0.73954 0.0
C1866 C 0.25149 0.89425 0.73617 0.0
C1867 C 0.23686 0.89506 0.75618 0.0
C1868 C 0.24062 0.89407 0.71213 0.0
C1869 C 0.2927 0.89439 0.71892 0.0
C1870 C 0.22448 0.90903 0.70593 0.0
C1871 C 0.21276 0.90822 0.68422 0.0
C1872 C 0.21693 0.89245 0.66808 0.0
C1873 C 0.23365 0.8778 0.67392 0.0
C1874 C 0.24522 0.87851 0.69582 0.0
H1875 H 0.31004 0.90022 0.7243 0.0
H1876 H 0.29516 0.87885 0.71218 0.0
H1877 H 0.28598 0.90382 0.70421 0.0
H1878 H 0.22061 0.92121 0.71812 0.0
H1879 H 0.19999 0.91976 0.68033 0.0
H1880 H 0.72636 0.82719 0.85532 0.0
H1881 H 0.74625 0.82083 0.81734 0.0
H1882 H 0.72968 0.88101 0.79451 0.0
H1883 H 0.71032 0.88756 0.83223 0.0
H1884 H 0.7329 0.8231 0.76903 0.0
H1885 H 0.80066 0.87944 0.7903 0.0
H1886 H 0.78053 0.87005 0.81226 0.0
H1887 H 0.7718 0.88967 0.79218 0.0
C1888 C 0.72673 0.83895 0.84206 0.0
C1889 C 0.71706 0.85797 0.84692 0.0
C1890 C 0.73813 0.83531 0.8204 0.0
C1891 C 0.73994 0.85062 0.80333 0.0
C1892 C 0.72905 0.86916 0.80766 0.0
H1893 H 0.77424 0.85532 0.65573 0.0
H1894 H 0.75582 0.84885 0.69394 0.0
C1895 C 0.7179 0.87285 0.82923 0.0
C1896 C 0.75392 0.84779 0.78135 0.0
H1897 H 0.79823 0.86905 0.74978 0.0
C1898 C 0.74738 0.83296 0.7649 0.0
C1899 C 0.77315 0.86035 0.77618 0.0
C1900 C 0.78213 0.87563 0.79377 0.0
C1901 C 0.75885 0.83105 0.74289 0.0
C1902 C 0.77703 0.84458 0.73706 0.0
C1903 C 0.7842 0.85876 0.75405 0.0
C1904 C 0.78818 0.84522 0.71317 0.0
C1905 C 0.75137 0.81455 0.72618 0.0
C1906 C 0.81257 0.84529 0.71103 0.0
C1907 C 0.82319 0.84933 0.68919 0.0
C1908 C 0.80965 0.85333 0.66898 0.0
C1909 C 0.78524 0.85211 0.67085 0.0
C1910 C 0.77463 0.84829 0.69276 0.0
H1911 H 0.74376 0.80167 0.73602 0.0
H1912 H 0.73775 0.82045 0.7141 0.0
H1913 H 0.76618 0.80901 0.7153 0.0
H1914 H 0.82343 0.84301 0.72649 0.0
H1915 H 0.84202 0.85015 0.68838 0.0
H1916 H 0.78067 0.19343 0.36624 0.0
H1917 H 0.76156 0.19904 0.32773 0.0
H1918 H 0.78819 0.1423 0.30241 0.0
H1919 H 0.80725 0.13661 0.34037 0.0
H1920 H 0.7816 0.19616 0.27616 0.0
H1921 H 0.71381 0.14015 0.2997 0.0
H1922 H 0.73122 0.15292 0.32175 0.0
H1923 H 0.74325 0.13224 0.30523 0.0
C1924 C 0.78278 0.18234 0.35231 0.0
C1925 C 0.79527 0.16446 0.35651 0.0
C1926 C 0.77183 0.18556 0.33036 0.0
C1927 C 0.77324 0.17094 0.31239 0.0
C1928 C 0.78668 0.15365 0.31615 0.0
H1929 H 0.73167 0.13071 0.17909 0.0
H1930 H 0.74627 0.13856 0.21844 0.0
C1931 C 0.79755 0.15043 0.33792 0.0
C1932 C 0.75969 0.17277 0.29011 0.0
H1933 H 0.71719 0.1487 0.25877 0.0
C1934 C 0.76717 0.18614 0.27243 0.0
C1935 C 0.74085 0.1597 0.28541 0.0
C1936 C 0.73161 0.14553 0.30406 0.0
C1937 C 0.7572 0.18582 0.2496 0.0
C1938 C 0.73925 0.17189 0.24454 0.0
C1939 C 0.73098 0.15934 0.26267 0.0
C1940 C 0.7308 0.16819 0.22003 0.0
C1941 C 0.76679 0.19946 0.23063 0.0
C1942 C 0.71723 0.18232 0.2077 0.0
C1943 C 0.70867 0.17784 0.18494 0.0
C1944 C 0.71353 0.15913 0.17426 0.0
C1945 C 0.72739 0.14522 0.1867 0.0
C1946 C 0.73583 0.14968 0.20927 0.0
H1947 H 0.78221 0.20806 0.23682 0.0
H1948 H 0.77178 0.19053 0.21474 0.0
H1949 H 0.75313 0.2103 0.22514 0.0
H1950 H 0.71295 0.19663 0.21582 0.0
H1951 H 0.69806 0.18888 0.17588 0.0
H1952 H 0.69519 0.59233 0.3419 0.0
H1953 H 0.71624 0.58988 0.30434 0.0
H1954 H 0.75249 0.64502 0.32045 0.0
H1955 H 0.732 0.6472 0.35849 0.0
H1956 H 0.71398 0.61438 0.26796 0.0
H1957 H 0.80572 0.61133 0.29769 0.0
H1958 H 0.78163 0.6082 0.31791 0.0
H1959 H 0.79071 0.63298 0.30901 0.0
C1960 C 0.708 0.60374 0.33769 0.0
C1961 C 0.712 0.61992 0.3533 0.0
C1962 C 0.71997 0.60236 0.31612 0.0
C1963 C 0.73616 0.61716 0.30952 0.0
C1964 C 0.74054 0.63313 0.3253 0.0
H1965 H 0.77707 0.64267 0.16339 0.0
H1966 H 0.75755 0.64144 0.20195 0.0
C1967 C 0.72876 0.63439 0.34707 0.0
C1968 C 0.7472 0.61646 0.28553 0.0
H1969 H 0.7995 0.61786 0.25656 0.0
C1970 C 0.73271 0.615 0.26551 0.0
C1971 C 0.77164 0.61702 0.28221 0.0
C1972 C 0.78834 0.61726 0.30286 0.0
C1973 C 0.74189 0.61434 0.24237 0.0
C1974 C 0.76628 0.61577 0.23901 0.0
C1975 C 0.78079 0.61695 0.25904 0.0
C1976 C 0.77719 0.61592 0.21495 0.0
C1977 C 0.72533 0.61166 0.22185 0.0
C1978 C 0.79499 0.60219 0.20936 0.0
C1979 C 0.8064 0.60305 0.18743 0.0
C1980 C 0.80024 0.61763 0.17049 0.0
C1981 C 0.78203 0.63107 0.17586 0.0
C1982 C 0.77079 0.63034 0.19793 0.0
H1983 H 0.70877 0.60454 0.2276 0.0
H1984 H 0.72102 0.62662 0.21434 0.0
H1985 H 0.73318 0.60229 0.2076 0.0
H1986 H 0.80029 0.59093 0.22213 0.0
H1987 H 0.82036 0.59248 0.18393 0.0
H1988 H 0.73804 0.37484 0.658 0.0
H1989 H 0.75927 0.37712 0.69567 0.0
H1990 H 0.71007 0.42124 0.72102 0.0
H1991 H 0.68912 0.41938 0.6835 0.0
H1992 H 0.75508 0.43128 0.73203 0.0
H1993 H 0.7366 0.3524 0.75797 0.0
H1994 H 0.7509 0.35497 0.72978 0.0
H1995 H 0.72189 0.36464 0.73367 0.0
C1996 C 0.7319 0.38519 0.67149 0.0
C1997 C 0.71173 0.39679 0.66773 0.0
C1998 C 0.74392 0.38633 0.69312 0.0
C1999 C 0.73597 0.39903 0.71141 0.0
C2000 C 0.71644 0.4112 0.7073 0.0
H2001 H 0.7747 0.39318 0.86181 0.0
H2002 H 0.75306 0.39341 0.82422 0.0
C2003 C 0.70444 0.41008 0.68577 0.0
C2004 C 0.74775 0.39964 0.73494 0.0
H2005 H 0.76208 0.37083 0.78297 0.0
C2006 C 0.7566 0.41806 0.74316 0.0
C2007 C 0.74932 0.38248 0.74972 0.0
C2008 C 0.73899 0.36253 0.74251 0.0
C2009 C 0.76737 0.4197 0.76547 0.0
C2010 C 0.76969 0.4024 0.77988 0.0
C2011 C 0.76042 0.38406 0.77189 0.0
C2012 C 0.78241 0.40288 0.80287 0.0
C2013 C 0.77592 0.44005 0.77354 0.0
C2014 C 0.80608 0.40802 0.80338 0.0
C2015 C 0.81841 0.40794 0.82472 0.0
C2016 C 0.80745 0.40258 0.84617 0.0
C2017 C 0.78366 0.39751 0.84569 0.0
C2018 C 0.7713 0.39756 0.82421 0.0
H2019 H 0.76701 0.45244 0.76395 0.0
H2020 H 0.77315 0.44214 0.79289 0.0
H2021 H 0.79486 0.44125 0.76987 0.0
H2022 H 0.81517 0.4118 0.78714 0.0
H2023 H 0.8367 0.41186 0.82428 0.0
H2024 H 0.27516 0.32077 0.65876 0.0
H2025 H 0.25661 0.31538 0.69762 0.0
H2026 H 0.28929 0.36912 0.72436 0.0
H2027 H 0.30787 0.37459 0.68602 0.0
H2028 H 0.27922 0.31677 0.75013 0.0
H2029 H 0.21375 0.37514 0.727 0.0
H2030 H 0.22957 0.361 0.70477 0.0
H2031 H 0.24361 0.38116 0.7204 0.0
C2032 C 0.27878 0.33119 0.67307 0.0
C2033 C 0.29282 0.34823 0.66917 0.0
C2034 C 0.26814 0.3281 0.69523 0.0
C2035 C 0.27144 0.34197 0.71373 0.0
C2036 C 0.28642 0.35832 0.71025 0.0
H2037 H 0.22924 0.38343 0.84706 0.0
H2038 H 0.24413 0.37549 0.80781 0.0
C2039 C 0.297 0.36142 0.68826 0.0
C2040 C 0.25801 0.34063 0.73617 0.0
H2041 H 0.21619 0.36575 0.76754 0.0
C2042 C 0.26511 0.32715 0.75388 0.0
C2043 C 0.23962 0.3542 0.74091 0.0
C2044 C 0.23098 0.36863 0.72226 0.0
C2045 C 0.25511 0.32773 0.77674 0.0
C2046 C 0.23751 0.34204 0.78179 0.0
C2047 C 0.22968 0.35479 0.76365 0.0
C2048 C 0.22888 0.34581 0.80629 0.0
C2049 C 0.26431 0.31389 0.7957 0.0
C2050 C 0.21534 0.33168 0.81867 0.0
C2051 C 0.20662 0.3362 0.84139 0.0
C2052 C 0.21127 0.35497 0.85199 0.0
C2053 C 0.2251 0.36888 0.83952 0.0
C2054 C 0.23371 0.36437 0.81699 0.0
H2055 H 0.27985 0.30532 0.78966 0.0
H2056 H 0.26898 0.32262 0.81181 0.0
H2057 H 0.25054 0.303 0.80075 0.0
H2058 H 0.21117 0.31733 0.81061 0.0
H2059 H 0.19604 0.32516 0.85048 0.0
H2060 H 0.27239 0.69138 0.36247 0.0
H2061 H 0.25316 0.69647 0.324 0.0
H2062 H 0.28631 0.64301 0.29677 0.0
H2063 H 0.30542 0.63776 0.33485 0.0
H2064 H 0.27062 0.69877 0.27443 0.0
H2065 H 0.21483 0.63231 0.29184 0.0
H2066 H 0.23115 0.64479 0.31492 0.0
H2067 H 0.24549 0.62763 0.29501 0.0
C2068 C 0.27592 0.68093 0.34815 0.0
C2069 C 0.29022 0.66402 0.35187 0.0
C2070 C 0.26488 0.68384 0.3262 0.0
C2071 C 0.26799 0.6699 0.3077 0.0
C2072 C 0.28336 0.65375 0.31094 0.0
H2073 H 0.23461 0.66387 0.15946 0.0
H2074 H 0.25244 0.67096 0.19784 0.0
C2075 C 0.29431 0.65081 0.33276 0.0
C2076 C 0.25418 0.67127 0.28549 0.0
H2077 H 0.21444 0.64523 0.25258 0.0
C2078 C 0.25816 0.68721 0.2697 0.0
C2079 C 0.23765 0.65633 0.27952 0.0
C2080 C 0.2318 0.63938 0.29628 0.0
C2081 C 0.24669 0.68813 0.24764 0.0
C2082 C 0.23106 0.67259 0.24116 0.0
C2083 C 0.22648 0.6571 0.25742 0.0
C2084 C 0.21994 0.6714 0.21734 0.0
C2085 C 0.2514 0.70573 0.23151 0.0
C2086 C 0.19566 0.66938 0.21534 0.0
C2087 C 0.18539 0.66515 0.19339 0.0
C2088 C 0.19919 0.66273 0.17293 0.0
C2089 C 0.22339 0.66575 0.17476 0.0
C2090 C 0.23365 0.66992 0.19675 0.0
H2091 H 0.25753 0.71904 0.24168 0.0
H2092 H 0.26527 0.70156 0.21868 0.0
H2093 H 0.23558 0.70999 0.22137 0.0
H2094 H 0.18471 0.67039 0.23097 0.0
H2095 H 0.16672 0.66292 0.19268 0.0
loop_
_geom_bond_atom_site_label_1
_geom_bond_atom_site_label_2
_geom_bond_distance
_geom_bond_site_symmetry_2
_ccdc_geom_bond_type
Co0 O2 2.143 . S
Co0 O8 2.074 . S
Co0 O11 2.093 . S
Co0 O24 2.097 . S
Co0 N41 2.151 . S
Co0 N49 2.214 . S
Co1 O2 2.160 . S
Co1 O7 2.058 . S
Co1 O17 2.057 . S
Co1 O32 2.037 . S
Co1 N36 2.145 . S
Co1 N57 2.257 . S
O2 Co0 2.143 . S
O2 Co1 2.160 . S
C3 O4 1.278 . S
C3 O11 1.224 . S
O4 C3 1.278 . S
C5 O6 1.245 . S
C5 O17 1.232 . S
O6 C5 1.245 . S
O7 Co1 2.058 . S
O7 C33 1.269 . S
O8 Co0 2.074 . S
O8 C33 1.257 . S
H9 C34 0.930 . S
H10 C40 0.930 . S
O11 Co0 2.093 . S
O11 C3 1.224 . S
H12 C44 0.929 . S
H13 C46 0.930 . S
H14 C47 0.930 . S
H15 C45 0.929 . S
H16 C48 0.928 . S
O17 Co1 2.057 . S
O17 C5 1.232 . S
H18 C37 0.929 . S
H19 C38 0.929 . S
H20 C50 0.931 . S
H21 C42 0.929 . S
H22 C51 0.930 . S
H23 C43 0.931 . S
O24 Co0 2.097 . S
O24 C52 1.214 . S
H25 C53 0.929 . S
H26 C54 0.929 . S
H27 C55 0.930 . S
H28 C56 0.929 . S
H29 C58 0.930 . S
H30 C35 0.930 . S
H31 C39 0.930 . S
O32 Co1 2.037 . S
O32 C52 1.234 . S
C33 O7 1.269 . S
C33 O8 1.257 . S
C34 H9 0.930 . S
C34 C37 1.388 . S
C34 C39 1.418 . S
C35 H30 0.930 . S
C35 C38 1.404 . S
C35 C39 1.353 . S
N36 Co1 2.145 . S
N36 C37 1.397 . S
N36 C38 1.334 . S
C37 H18 0.929 . S
C37 C34 1.388 . S
C37 N36 1.397 . S
C38 H19 0.929 . S
C38 C35 1.404 . S
C38 N36 1.334 . S
C39 H31 0.930 . S
C39 C34 1.418 . S
C39 C35 1.353 . S
C40 H10 0.930 . S
C40 N41 1.330 . S
C40 C42 1.446 . S
N41 Co0 2.151 . S
N41 C40 1.330 . S
N41 C45 1.418 . S
C42 H21 0.929 . S
C42 C40 1.446 . S
C42 C43 1.332 . S
C43 H23 0.931 . S
C43 C42 1.332 . S
C43 C44 1.267 . S
C44 H12 0.929 . S
C44 C43 1.267 . S
C44 C45 1.251 . S
C45 H15 0.929 . S
C45 N41 1.418 . S
C45 C44 1.251 . S
C46 H13 0.930 . S
C46 C48 1.406 1_556 S
C46 C51 1.261 . S
C47 H14 0.930 . S
C47 N49 1.325 . S
C47 C50 1.357 1_554 S
C48 H16 0.928 . S
C48 C46 1.406 1_554 S
C48 N49 1.261 . S
N49 Co0 2.214 . S
N49 C47 1.325 . S
N49 C48 1.261 . S
C50 H20 0.931 . S
C50 C47 1.357 1_556 S
C50 C51 1.312 . S
C51 H22 0.930 . S
C51 C46 1.261 . S
C51 C50 1.312 . S
C52 O24 1.214 . S
C52 O32 1.234 . S
C53 H25 0.929 . S
C53 C56 1.391 . S
C53 C58 1.391 . S
C54 H26 0.929 . S
C54 C55 1.390 . S
C54 N57 1.391 . S
C55 H27 0.930 . S
C55 C54 1.390 . S
C55 C56 1.392 . S
C56 H28 0.929 . S
C56 C53 1.391 . S
C56 C55 1.392 . S
N57 Co1 2.257 . S
N57 C54 1.391 . S
N57 C58 1.388 . S
C58 H29 0.930 . S
C58 C53 1.391 . S
C58 N57 1.388 . S
Co59 O61 2.143 . S
Co59 O67 2.074 . S
Co59 O70 2.093 . S
Co59 O83 2.097 . S
Co59 N100 2.151 . S
Co59 N108 2.214 . S
Co60 O61 2.160 . S
Co60 O66 2.058 . S
Co60 O76 2.057 . S
Co60 O91 2.037 . S
Co60 N95 2.145 . S
Co60 N116 2.257 . S
O61 Co59 2.143 . S
O61 Co60 2.160 . S
C62 O63 1.278 . S
C62 O70 1.224 . S
O63 C62 1.278 . S
C64 O65 1.245 . S
C64 O76 1.232 . S
O65 C64 1.245 . S
O66 Co60 2.058 . S
O66 C92 1.269 . S
O67 Co59 2.074 . S
O67 C92 1.257 . S
H68 C93 0.930 . S
H69 C99 0.930 . S
O70 Co59 2.093 . S
O70 C62 1.224 . S
H71 C103 0.929 . S
H72 C105 0.930 . S
H73 C106 0.930 . S
H74 C104 0.929 . S
H75 C107 0.928 . S
O76 Co60 2.057 . S
O76 C64 1.232 . S
H77 C96 0.929 . S
H78 C97 0.929 . S
H79 C109 0.931 . S
H80 C101 0.929 . S
H81 C110 0.930 . S
H82 C102 0.931 . S
O83 Co59 2.097 . S
O83 C111 1.214 . S
H84 C112 0.929 . S
H85 C113 0.929 . S
H86 C114 0.930 . S
H87 C115 0.929 . S
H88 C117 0.930 . S
H89 C94 0.930 . S
H90 C98 0.930 . S
O91 Co60 2.037 . S
O91 C111 1.234 . S
C92 O66 1.269 . S
C92 O67 1.257 . S
C93 H68 0.930 . S
C93 C96 1.388 . S
C93 C98 1.418 . S
C94 H89 0.930 . S
C94 C97 1.404 . S
C94 C98 1.353 . S
N95 Co60 2.145 . S
N95 C96 1.397 . S
N95 C97 1.334 . S
C96 H77 0.929 . S
C96 C93 1.388 . S
C96 N95 1.397 . S
C97 H78 0.929 . S
C97 C94 1.404 . S
C97 N95 1.334 . S
C98 H90 0.930 . S
C98 C93 1.418 . S
C98 C94 1.353 . S
C99 H69 0.930 . S
C99 N100 1.330 . S
C99 C101 1.446 . S
N100 Co59 2.151 . S
N100 C99 1.330 . S
N100 C104 1.418 . S
C101 H80 0.929 . S
C101 C99 1.446 . S
C101 C102 1.332 . S
C102 H82 0.931 . S
C102 C101 1.332 . S
C102 C103 1.267 . S
C103 H71 0.929 . S
C103 C102 1.267 . S
C103 C104 1.251 . S
C104 H74 0.929 . S
C104 N100 1.418 . S
C104 C103 1.251 . S
C105 H72 0.930 . S
C105 C107 1.406 . S
C105 C110 1.261 . S
C106 H73 0.930 . S
C106 N108 1.325 . S
C106 C109 1.357 . S
C107 H75 0.928 . S
C107 C105 1.406 . S
C107 N108 1.261 . S
N108 Co59 2.214 . S
N108 C106 1.325 . S
N108 C107 1.261 . S
C109 H79 0.931 . S
C109 C106 1.357 . S
C109 C110 1.312 . S
C110 H81 0.930 . S
C110 C105 1.261 . S
C110 C109 1.312 . S
C111 O83 1.214 . S
C111 O91 1.234 . S
C112 H84 0.929 . S
C112 C115 1.391 . S
C112 C117 1.391 . S
C113 H85 0.929 . S
C113 C114 1.390 . S
C113 N116 1.391 . S
C114 H86 0.930 . S
C114 C113 1.390 . S
C114 C115 1.392 . S
C115 H87 0.929 . S
C115 C112 1.391 . S
C115 C114 1.392 . S
N116 Co60 2.257 . S
N116 C113 1.391 . S
N116 C117 1.388 . S
C117 H88 0.930 . S
C117 C112 1.391 . S
C117 N116 1.388 . S
Co118 O120 2.143 . S
Co118 O126 2.074 . S
Co118 O129 2.093 . S
Co118 O142 2.097 . S
Co118 N159 2.151 . S
Co118 N167 2.214 . S
Co119 O120 2.160 . S
Co119 O125 2.058 . S
Co119 O135 2.057 . S
Co119 O150 2.037 . S
Co119 N154 2.145 . S
Co119 N175 2.257 . S
O120 Co118 2.143 . S
O120 Co119 2.160 . S
C121 O122 1.278 . S
C121 O129 1.224 . S
O122 C121 1.278 . S
C123 O124 1.245 . S
C123 O135 1.232 . S
O124 C123 1.245 . S
O125 Co119 2.058 . S
O125 C151 1.269 . S
O126 Co118 2.074 . S
O126 C151 1.257 . S
H127 C152 0.930 . S
H128 C158 0.930 . S
O129 Co118 2.093 . S
O129 C121 1.224 . S
H130 C162 0.929 . S
H131 C164 0.930 . S
H132 C165 0.930 . S
H133 C163 0.929 . S
H134 C166 0.928 . S
O135 Co119 2.057 . S
O135 C123 1.232 . S
H136 C155 0.929 . S
H137 C156 0.929 . S
H138 C168 0.931 . S
H139 C160 0.929 . S
H140 C169 0.930 . S
H141 C161 0.931 . S
O142 Co118 2.097 . S
O142 C170 1.214 . S
H143 C171 0.929 . S
H144 C172 0.929 . S
H145 C173 0.930 . S
H146 C174 0.929 . S
H147 C176 0.930 . S
H148 C153 0.930 . S
H149 C157 0.930 . S
O150 Co119 2.037 . S
O150 C170 1.234 . S
C151 O125 1.269 . S
C151 O126 1.257 . S
C152 H127 0.930 . S
C152 C155 1.388 . S
C152 C157 1.418 . S
C153 H148 0.930 . S
C153 C156 1.404 . S
C153 C157 1.353 . S
N154 Co119 2.145 . S
N154 C155 1.397 . S
N154 C156 1.334 . S
C155 H136 0.929 . S
C155 C152 1.388 . S
C155 N154 1.397 . S
C156 H137 0.929 . S
C156 C153 1.404 . S
C156 N154 1.334 . S
C157 H149 0.930 . S
C157 C152 1.418 . S
C157 C153 1.353 . S
C158 H128 0.930 . S
C158 N159 1.330 . S
C158 C160 1.446 . S
N159 Co118 2.151 . S
N159 C158 1.330 . S
N159 C163 1.418 . S
C160 H139 0.929 . S
C160 C158 1.446 . S
C160 C161 1.332 . S
C161 H141 0.931 . S
C161 C160 1.332 . S
C161 C162 1.267 . S
C162 H130 0.929 . S
C162 C161 1.267 . S
C162 C163 1.251 . S
C163 H133 0.929 . S
C163 N159 1.418 . S
C163 C162 1.251 . S
C164 H131 0.930 . S
C164 C166 1.406 1_554 S
C164 C169 1.261 . S
C165 H132 0.930 . S
C165 N167 1.325 . S
C165 C168 1.357 1_556 S
C166 H134 0.928 . S
C166 C164 1.406 1_556 S
C166 N167 1.261 . S
N167 Co118 2.214 . S
N167 C165 1.325 . S
N167 C166 1.261 . S
C168 H138 0.931 . S
C168 C165 1.357 1_554 S
C168 C169 1.312 . S
C169 H140 0.930 . S
C169 C164 1.261 . S
C169 C168 1.312 . S
C170 O142 1.214 . S
C170 O150 1.234 . S
C171 H143 0.929 . S
C171 C174 1.391 . S
C171 C176 1.391 . S
C172 H144 0.929 . S
C172 C173 1.390 . S
C172 N175 1.391 . S
C173 H145 0.930 . S
C173 C172 1.390 . S
C173 C174 1.392 . S
C174 H146 0.929 . S
C174 C171 1.391 . S
C174 C173 1.392 . S
N175 Co119 2.257 . S
N175 C172 1.391 . S
N175 C176 1.388 . S
C176 H147 0.930 . S
C176 C171 1.391 . S
C176 N175 1.388 . S
Co177 O179 2.143 . S
Co177 O185 2.074 . S
Co177 O188 2.093 . S
Co177 O201 2.097 . S
Co177 N218 2.151 . S
Co177 N226 2.214 . S
Co178 O179 2.160 . S
Co178 O184 2.058 . S
Co178 O194 2.057 . S
Co178 O209 2.037 . S
Co178 N213 2.145 . S
Co178 N234 2.257 . S
O179 Co177 2.143 . S
O179 Co178 2.160 . S
C180 O181 1.278 . S
C180 O188 1.224 . S
O181 C180 1.278 . S
C182 O183 1.245 . S
C182 O194 1.232 . S
O183 C182 1.245 . S
O184 Co178 2.058 . S
O184 C210 1.269 . S
O185 Co177 2.074 . S
O185 C210 1.257 . S
H186 C211 0.930 . S
H187 C217 0.930 . S
O188 Co177 2.093 . S
O188 C180 1.224 . S
H189 C221 0.929 . S
H190 C223 0.930 . S
H191 C224 0.930 . S
H192 C222 0.929 . S
H193 C225 0.928 . S
O194 Co178 2.057 . S
O194 C182 1.232 . S
H195 C214 0.929 . S
H196 C215 0.929 . S
H197 C227 0.931 . S
H198 C219 0.929 . S
H199 C228 0.930 . S
H200 C220 0.931 . S
O201 Co177 2.097 . S
O201 C229 1.214 . S
H202 C230 0.929 . S
H203 C231 0.929 . S
H204 C232 0.930 . S
H205 C233 0.929 . S
H206 C235 0.930 . S
H207 C212 0.930 . S
H208 C216 0.930 . S
O209 Co178 2.037 . S
O209 C229 1.234 . S
C210 O184 1.269 . S
C210 O185 1.257 . S
C211 H186 0.930 . S
C211 C214 1.388 . S
C211 C216 1.418 . S
C212 H207 0.930 . S
C212 C215 1.404 . S
C212 C216 1.353 . S
N213 Co178 2.145 . S
N213 C214 1.397 . S
N213 C215 1.334 . S
C214 H195 0.929 . S
C214 C211 1.388 . S
C214 N213 1.397 . S
C215 H196 0.929 . S
C215 C212 1.404 . S
C215 N213 1.334 . S
C216 H208 0.930 . S
C216 C211 1.418 . S
C216 C212 1.353 . S
C217 H187 0.930 . S
C217 N218 1.330 . S
C217 C219 1.446 . S
N218 Co177 2.151 . S
N218 C217 1.330 . S
N218 C222 1.418 . S
C219 H198 0.929 . S
C219 C217 1.446 . S
C219 C220 1.332 . S
C220 H200 0.931 . S
C220 C219 1.332 . S
C220 C221 1.267 . S
C221 H189 0.929 . S
C221 C220 1.267 . S
C221 C222 1.251 . S
C222 H192 0.929 . S
C222 N218 1.418 . S
C222 C221 1.251 . S
C223 H190 0.930 . S
C223 C225 1.406 . S
C223 C228 1.261 . S
C224 H191 0.930 . S
C224 N226 1.325 . S
C224 C227 1.357 . S
C225 H193 0.928 . S
C225 C223 1.406 . S
C225 N226 1.261 . S
N226 Co177 2.214 . S
N226 C224 1.325 . S
N226 C225 1.261 . S
C227 H197 0.931 . S
C227 C224 1.357 . S
C227 C228 1.312 . S
C228 H199 0.930 . S
C228 C223 1.261 . S
C228 C227 1.312 . S
C229 O201 1.214 . S
C229 O209 1.234 . S
C230 H202 0.929 . S
C230 C233 1.391 . S
C230 C235 1.391 . S
C231 H203 0.929 . S
C231 C232 1.390 . S
C231 N234 1.391 . S
C232 H204 0.930 . S
C232 C231 1.390 . S
C232 C233 1.392 . S
C233 H205 0.929 . S
C233 C230 1.391 . S
C233 C232 1.392 . S
N234 Co178 2.257 . S
N234 C231 1.391 . S
N234 C235 1.388 . S
C235 H206 0.930 . S
C235 C230 1.391 . S
C235 N234 1.388 . S
Co236 O238 2.143 . S
Co236 O244 2.074 . S
Co236 O247 2.093 . S
Co236 O260 2.097 . S
Co236 N277 2.151 . S
Co236 N285 2.214 . S
Co237 O238 2.160 . S
Co237 O243 2.058 . S
Co237 O253 2.057 . S
Co237 O268 2.037 . S
Co237 N272 2.145 . S
Co237 N293 2.257 . S
O238 Co236 2.143 . S
O238 Co237 2.160 . S
C239 O240 1.278 . S
C239 O247 1.224 . S
O240 C239 1.278 . S
C241 O242 1.245 . S
C241 O253 1.232 . S
O242 C241 1.245 . S
O243 Co237 2.058 . S
O243 C269 1.269 . S
O244 Co236 2.074 . S
O244 C269 1.257 . S
H245 C270 0.930 . S
H246 C276 0.930 . S
O247 Co236 2.093 . S
O247 C239 1.224 . S
H248 C280 0.929 . S
H249 C282 0.930 . S
H250 C283 0.930 . S
H251 C281 0.929 . S
H252 C284 0.928 . S
O253 Co237 2.057 . S
O253 C241 1.232 . S
H254 C273 0.929 . S
H255 C274 0.929 . S
H256 C286 0.931 . S
H257 C278 0.929 . S
H258 C287 0.930 . S
H259 C279 0.931 . S
O260 Co236 2.097 . S
O260 C288 1.214 . S
H261 C289 0.929 . S
H262 C290 0.929 . S
H263 C291 0.930 . S
H264 C292 0.929 . S
H265 C294 0.930 . S
H266 C271 0.930 . S
H267 C275 0.930 . S
O268 Co237 2.037 . S
O268 C288 1.234 . S
C269 O243 1.269 . S
C269 O244 1.257 . S
C270 H245 0.930 . S
C270 C273 1.388 1_554 S
C270 C275 1.418 . S
C271 H266 0.930 . S
C271 C274 1.404 1_554 S
C271 C275 1.353 . S
N272 Co237 2.145 . S
N272 C273 1.397 . S
N272 C274 1.334 . S
C273 H254 0.929 . S
C273 C270 1.388 1_556 S
C273 N272 1.397 . S
C274 H255 0.929 . S
C274 C271 1.404 1_556 S
C274 N272 1.334 . S
C275 H267 0.930 . S
C275 C270 1.418 . S
C275 C271 1.353 . S
C276 H246 0.930 . S
C276 N277 1.330 . S
C276 C278 1.446 . S
N277 Co236 2.151 . S
N277 C276 1.330 . S
N277 C281 1.418 . S
C278 H257 0.929 . S
C278 C276 1.446 . S
C278 C279 1.332 . S
C279 H259 0.931 . S
C279 C278 1.332 . S
C279 C280 1.267 . S
C280 H248 0.929 . S
C280 C279 1.267 . S
C280 C281 1.251 . S
C281 H251 0.929 . S
C281 N277 1.418 . S
C281 C280 1.251 . S
C282 H249 0.930 . S
C282 C284 1.406 . S
C282 C287 1.261 . S
C283 H250 0.930 . S
C283 N285 1.325 . S
C283 C286 1.357 . S
C284 H252 0.928 . S
C284 C282 1.406 . S
C284 N285 1.261 . S
N285 Co236 2.214 . S
N285 C283 1.325 . S
N285 C284 1.261 . S
C286 H256 0.931 . S
C286 C283 1.357 . S
C286 C287 1.312 . S
C287 H258 0.930 . S
C287 C282 1.261 . S
C287 C286 1.312 . S
C288 O260 1.214 . S
C288 O268 1.234 . S
C289 H261 0.929 . S
C289 C292 1.391 . S
C289 C294 1.391 . S
C290 H262 0.929 . S
C290 C291 1.390 . S
C290 N293 1.391 . S
C291 H263 0.930 . S
C291 C290 1.390 . S
C291 C292 1.392 . S
C292 H264 0.929 . S
C292 C289 1.391 . S
C292 C291 1.392 . S
N293 Co237 2.257 . S
N293 C290 1.391 . S
N293 C294 1.388 . S
C294 H265 0.930 . S
C294 C289 1.391 . S
C294 N293 1.388 . S
Co295 O297 2.143 . S
Co295 O303 2.074 . S
Co295 O306 2.093 . S
Co295 O319 2.097 . S
Co295 N336 2.151 . S
Co295 N344 2.214 . S
Co296 O297 2.160 . S
Co296 O302 2.058 . S
Co296 O312 2.057 . S
Co296 O327 2.037 . S
Co296 N331 2.145 . S
Co296 N352 2.257 . S
O297 Co295 2.143 . S
O297 Co296 2.160 . S
C298 O299 1.278 . S
C298 O306 1.224 . S
O299 C298 1.278 . S
C300 O301 1.245 . S
C300 O312 1.232 . S
O301 C300 1.245 . S
O302 Co296 2.058 . S
O302 C328 1.269 . S
O303 Co295 2.074 . S
O303 C328 1.257 . S
H304 C329 0.930 . S
H305 C335 0.930 . S
O306 Co295 2.093 . S
O306 C298 1.224 . S
H307 C339 0.929 . S
H308 C341 0.930 . S
H309 C342 0.930 . S
H310 C340 0.929 . S
H311 C343 0.928 . S
O312 Co296 2.057 . S
O312 C300 1.232 . S
H313 C332 0.929 . S
H314 C333 0.929 . S
H315 C345 0.931 . S
H316 C337 0.929 . S
H317 C346 0.930 . S
H318 C338 0.931 . S
O319 Co295 2.097 . S
O319 C347 1.214 . S
H320 C348 0.929 . S
H321 C349 0.929 . S
H322 C350 0.930 . S
H323 C351 0.929 . S
H324 C353 0.930 . S
H325 C330 0.930 . S
H326 C334 0.930 . S
O327 Co296 2.037 . S
O327 C347 1.234 . S
C328 O302 1.269 . S
C328 O303 1.257 . S
C329 H304 0.930 . S
C329 C332 1.388 . S
C329 C334 1.418 . S
C330 H325 0.930 . S
C330 C333 1.404 . S
C330 C334 1.353 . S
N331 Co296 2.145 . S
N331 C332 1.397 . S
N331 C333 1.334 . S
C332 H313 0.929 . S
C332 C329 1.388 . S
C332 N331 1.397 . S
C333 H314 0.929 . S
C333 C330 1.404 . S
C333 N331 1.334 . S
C334 H326 0.930 . S
C334 C329 1.418 . S
C334 C330 1.353 . S
C335 H305 0.930 . S
C335 N336 1.330 . S
C335 C337 1.446 . S
N336 Co295 2.151 . S
N336 C335 1.330 . S
N336 C340 1.418 . S
C337 H316 0.929 . S
C337 C335 1.446 . S
C337 C338 1.332 . S
C338 H318 0.931 . S
C338 C337 1.332 . S
C338 C339 1.267 . S
C339 H307 0.929 . S
C339 C338 1.267 . S
C339 C340 1.251 . S
C340 H310 0.929 . S
C340 N336 1.418 . S
C340 C339 1.251 . S
C341 H308 0.930 . S
C341 C343 1.406 . S
C341 C346 1.261 . S
C342 H309 0.930 . S
C342 N344 1.325 . S
C342 C345 1.357 . S
C343 H311 0.928 . S
C343 C341 1.406 . S
C343 N344 1.261 . S
N344 Co295 2.214 . S
N344 C342 1.325 . S
N344 C343 1.261 . S
C345 H315 0.931 . S
C345 C342 1.357 . S
C345 C346 1.312 . S
C346 H317 0.930 . S
C346 C341 1.261 . S
C346 C345 1.312 . S
C347 O319 1.214 . S
C347 O327 1.234 . S
C348 H320 0.929 . S
C348 C351 1.391 . S
C348 C353 1.391 . S
C349 H321 0.929 . S
C349 C350 1.390 . S
C349 N352 1.391 . S
C350 H322 0.930 . S
C350 C349 1.390 . S
C350 C351 1.392 . S
C351 H323 0.929 . S
C351 C348 1.391 . S
C351 C350 1.392 . S
N352 Co296 2.257 . S
N352 C349 1.391 . S
N352 C353 1.388 . S
C353 H324 0.930 . S
C353 C348 1.391 . S
C353 N352 1.388 . S
Co354 O356 2.143 . S
Co354 O362 2.074 . S
Co354 O365 2.093 . S
Co354 O378 2.097 . S
Co354 N395 2.151 . S
Co354 N403 2.214 . S
Co355 O356 2.160 . S
Co355 O361 2.058 . S
Co355 O371 2.057 . S
Co355 O386 2.037 . S
Co355 N390 2.145 . S
Co355 N411 2.257 . S
O356 Co354 2.143 . S
O356 Co355 2.160 . S
C357 O358 1.278 . S
C357 O365 1.224 . S
O358 C357 1.278 . S
C359 O360 1.245 . S
C359 O371 1.232 . S
O360 C359 1.245 . S
O361 Co355 2.058 . S
O361 C387 1.269 . S
O362 Co354 2.074 . S
O362 C387 1.257 . S
H363 C388 0.930 . S
H364 C394 0.930 . S
O365 Co354 2.093 . S
O365 C357 1.224 . S
H366 C398 0.929 . S
H367 C400 0.930 . S
H368 C401 0.930 . S
H369 C399 0.929 . S
H370 C402 0.928 . S
O371 Co355 2.057 . S
O371 C359 1.232 . S
H372 C391 0.929 . S
H373 C392 0.929 . S
H374 C404 0.931 . S
H375 C396 0.929 . S
H376 C405 0.930 . S
H377 C397 0.931 . S
O378 Co354 2.097 . S
O378 C406 1.214 . S
H379 C407 0.929 . S
H380 C408 0.929 . S
H381 C409 0.930 . S
H382 C410 0.929 . S
H383 C412 0.930 . S
H384 C389 0.930 . S
H385 C393 0.930 . S
O386 Co355 2.037 . S
O386 C406 1.234 . S
C387 O361 1.269 . S
C387 O362 1.257 . S
C388 H363 0.930 . S
C388 C391 1.388 1_556 S
C388 C393 1.418 . S
C389 H384 0.930 . S
C389 C392 1.404 1_556 S
C389 C393 1.353 . S
N390 Co355 2.145 . S
N390 C391 1.397 . S
N390 C392 1.334 . S
C391 H372 0.929 . S
C391 C388 1.388 1_554 S
C391 N390 1.397 . S
C392 H373 0.929 . S
C392 C389 1.404 1_554 S
C392 N390 1.334 . S
C393 H385 0.930 . S
C393 C388 1.418 . S
C393 C389 1.353 . S
C394 H364 0.930 . S
C394 N395 1.330 . S
C394 C396 1.446 . S
N395 Co354 2.151 . S
N395 C394 1.330 . S
N395 C399 1.418 . S
C396 H375 0.929 . S
C396 C394 1.446 . S
C396 C397 1.332 . S
C397 H377 0.931 . S
C397 C396 1.332 . S
C397 C398 1.267 . S
C398 H366 0.929 . S
C398 C397 1.267 . S
C398 C399 1.251 . S
C399 H369 0.929 . S
C399 N395 1.418 . S
C399 C398 1.251 . S
C400 H367 0.930 . S
C400 C402 1.406 . S
C400 C405 1.261 . S
C401 H368 0.930 . S
C401 N403 1.325 . S
C401 C404 1.357 . S
C402 H370 0.928 . S
C402 C400 1.406 . S
C402 N403 1.261 . S
N403 Co354 2.214 . S
N403 C401 1.325 . S
N403 C402 1.261 . S
C404 H374 0.931 . S
C404 C401 1.357 . S
C404 C405 1.312 . S
C405 H376 0.930 . S
C405 C400 1.261 . S
C405 C404 1.312 . S
C406 O378 1.214 . S
C406 O386 1.234 . S
C407 H379 0.929 . S
C407 C410 1.391 . S
C407 C412 1.391 . S
C408 H380 0.929 . S
C408 C409 1.390 . S
C408 N411 1.391 . S
C409 H381 0.930 . S
C409 C408 1.390 . S
C409 C410 1.392 . S
C410 H382 0.929 . S
C410 C407 1.391 . S
C410 C409 1.392 . S
N411 Co355 2.257 . S
N411 C408 1.391 . S
N411 C412 1.388 . S
C412 H383 0.930 . S
C412 C407 1.391 . S
C412 N411 1.388 . S
Co413 O415 2.143 . S
Co413 O421 2.074 . S
Co413 O424 2.093 . S
Co413 O437 2.097 . S
Co413 N454 2.151 . S
Co413 N462 2.214 . S
Co414 O415 2.160 . S
Co414 O420 2.058 . S
Co414 O430 2.057 . S
Co414 O445 2.037 . S
Co414 N449 2.145 . S
Co414 N470 2.257 . S
O415 Co413 2.143 . S
O415 Co414 2.160 . S
C416 O417 1.278 . S
C416 O424 1.224 . S
O417 C416 1.278 . S
C418 O419 1.245 . S
C418 O430 1.232 . S
O419 C418 1.245 . S
O420 Co414 2.058 . S
O420 C446 1.269 . S
O421 Co413 2.074 . S
O421 C446 1.257 . S
H422 C447 0.930 . S
H423 C453 0.930 . S
O424 Co413 2.093 . S
O424 C416 1.224 . S
H425 C457 0.929 . S
H426 C459 0.930 . S
H427 C460 0.930 . S
H428 C458 0.929 . S
H429 C461 0.928 . S
O430 Co414 2.057 . S
O430 C418 1.232 . S
H431 C450 0.929 . S
H432 C451 0.929 . S
H433 C463 0.931 . S
H434 C455 0.929 . S
H435 C464 0.930 . S
H436 C456 0.931 . S
O437 Co413 2.097 . S
O437 C465 1.214 . S
H438 C466 0.929 . S
H439 C467 0.929 . S
H440 C468 0.930 . S
H441 C469 0.929 . S
H442 C471 0.930 . S
H443 C448 0.930 . S
H444 C452 0.930 . S
O445 Co414 2.037 . S
O445 C465 1.234 . S
C446 O420 1.269 . S
C446 O421 1.257 . S
C447 H422 0.930 . S
C447 C450 1.388 . S
C447 C452 1.418 . S
C448 H443 0.930 . S
C448 C451 1.404 . S
C448 C452 1.353 . S
N449 Co414 2.145 . S
N449 C450 1.397 . S
N449 C451 1.334 . S
C450 H431 0.929 . S
C450 C447 1.388 . S
C450 N449 1.397 . S
C451 H432 0.929 . S
C451 C448 1.404 . S
C451 N449 1.334 . S
C452 H444 0.930 . S
C452 C447 1.418 . S
C452 C448 1.353 . S
C453 H423 0.930 . S
C453 N454 1.330 . S
C453 C455 1.446 . S
N454 Co413 2.151 . S
N454 C453 1.330 . S
N454 C458 1.418 . S
C455 H434 0.929 . S
C455 C453 1.446 . S
C455 C456 1.332 . S
C456 H436 0.931 . S
C456 C455 1.332 . S
C456 C457 1.267 . S
C457 H425 0.929 . S
C457 C456 1.267 . S
C457 C458 1.251 . S
C458 H428 0.929 . S
C458 N454 1.418 . S
C458 C457 1.251 . S
C459 H426 0.930 . S
C459 C461 1.406 . S
C459 C464 1.261 . S
C460 H427 0.930 . S
C460 N462 1.325 . S
C460 C463 1.357 . S
C461 H429 0.928 . S
C461 C459 1.406 . S
C461 N462 1.261 . S
N462 Co413 2.214 . S
N462 C460 1.325 . S
N462 C461 1.261 . S
C463 H433 0.931 . S
C463 C460 1.357 . S
C463 C464 1.312 . S
C464 H435 0.930 . S
C464 C459 1.261 . S
C464 C463 1.312 . S
C465 O437 1.214 . S
C465 O445 1.234 . S
C466 H438 0.929 . S
C466 C469 1.391 . S
C466 C471 1.391 . S
C467 H439 0.929 . S
C467 C468 1.390 . S
C467 N470 1.391 . S
C468 H440 0.930 . S
C468 C467 1.390 . S
C468 C469 1.392 . S
C469 H441 0.929 . S
C469 C466 1.391 . S
C469 C468 1.392 . S
N470 Co414 2.257 . S
N470 C467 1.391 . S
N470 C471 1.388 . S
C471 H442 0.930 . S
C471 C466 1.391 . S
C471 N470 1.388 . S
Co472 O474 2.143 . S
Co472 O480 2.074 . S
Co472 O483 2.093 . S
Co472 O496 2.097 . S
Co472 N513 2.151 . S
Co472 N521 2.214 . S
Co473 O474 2.160 . S
Co473 O479 2.058 . S
Co473 O489 2.057 . S
Co473 O504 2.037 . S
Co473 N508 2.145 . S
Co473 N529 2.257 . S
O474 Co472 2.143 . S
O474 Co473 2.160 . S
C475 O476 1.278 . S
C475 O483 1.224 . S
O476 C475 1.278 . S
C477 O478 1.245 . S
C477 O489 1.232 . S
O478 C477 1.245 . S
O479 Co473 2.058 . S
O479 C505 1.269 . S
O480 Co472 2.074 . S
O480 C505 1.257 . S
H481 C506 0.930 . S
H482 C512 0.930 . S
O483 Co472 2.093 . S
O483 C475 1.224 . S
H484 C516 0.929 . S
H485 C518 0.930 . S
H486 C519 0.930 . S
H487 C517 0.929 . S
H488 C520 0.928 . S
O489 Co473 2.057 . S
O489 C477 1.232 . S
H490 C509 0.929 . S
H491 C510 0.929 . S
H492 C522 0.931 . S
H493 C514 0.929 . S
H494 C523 0.930 . S
H495 C515 0.931 . S
O496 Co472 2.097 . S
O496 C524 1.214 . S
H497 C525 0.929 . S
H498 C526 0.929 . S
H499 C527 0.930 . S
H500 C528 0.929 . S
H501 C530 0.930 . S
H502 C507 0.930 . S
H503 C511 0.930 . S
O504 Co473 2.037 . S
O504 C524 1.234 . S
C505 O479 1.269 . S
C505 O480 1.257 . S
C506 H481 0.930 . S
C506 C509 1.388 . S
C506 C511 1.418 . S
C507 H502 0.930 . S
C507 C510 1.404 . S
C507 C511 1.353 . S
N508 Co473 2.145 . S
N508 C509 1.397 . S
N508 C510 1.334 . S
C509 H490 0.929 . S
C509 C506 1.388 . S
C509 N508 1.397 . S
C510 H491 0.929 . S
C510 C507 1.404 . S
C510 N508 1.334 . S
C511 H503 0.930 . S
C511 C506 1.418 . S
C511 C507 1.353 . S
C512 H482 0.930 . S
C512 N513 1.330 . S
C512 C514 1.446 . S
N513 Co472 2.151 . S
N513 C512 1.330 . S
N513 C517 1.418 . S
C514 H493 0.929 . S
C514 C512 1.446 . S
C514 C515 1.332 . S
C515 H495 0.931 . S
C515 C514 1.332 . S
C515 C516 1.267 . S
C516 H484 0.929 . S
C516 C515 1.267 . S
C516 C517 1.251 . S
C517 H487 0.929 . S
C517 N513 1.418 . S
C517 C516 1.251 . S
C518 H485 0.930 . S
C518 C520 1.406 1_556 S
C518 C523 1.261 . S
C519 H486 0.930 . S
C519 N521 1.325 . S
C519 C522 1.357 1_554 S
C520 H488 0.928 . S
C520 C518 1.406 1_554 S
C520 N521 1.261 . S
N521 Co472 2.214 . S
N521 C519 1.325 . S
N521 C520 1.261 . S
C522 H492 0.931 . S
C522 C519 1.357 1_556 S
C522 C523 1.312 . S
C523 H494 0.930 . S
C523 C518 1.261 . S
C523 C522 1.312 . S
C524 O496 1.214 . S
C524 O504 1.234 . S
C525 H497 0.929 . S
C525 C528 1.391 . S
C525 C530 1.391 . S
C526 H498 0.929 . S
C526 C527 1.390 . S
C526 N529 1.391 . S
C527 H499 0.930 . S
C527 C526 1.390 . S
C527 C528 1.392 . S
C528 H500 0.929 . S
C528 C525 1.391 . S
C528 C527 1.392 . S
N529 Co473 2.257 . S
N529 C526 1.391 . S
N529 C530 1.388 . S
C530 H501 0.930 . S
C530 C525 1.391 . S
C530 N529 1.388 . S
Co531 O533 2.143 . S
Co531 O539 2.074 . S
Co531 O542 2.093 . S
Co531 O555 2.097 . S
Co531 N572 2.151 . S
Co531 N580 2.214 . S
Co532 O533 2.160 . S
Co532 O538 2.058 . S
Co532 O548 2.057 . S
Co532 O563 2.037 . S
Co532 N567 2.145 . S
Co532 N588 2.257 . S
O533 Co531 2.143 . S
O533 Co532 2.160 . S
C534 O535 1.278 . S
C534 O542 1.224 . S
O535 C534 1.278 . S
C536 O537 1.245 . S
C536 O548 1.232 . S
O537 C536 1.245 . S
O538 Co532 2.058 . S
O538 C564 1.269 . S
O539 Co531 2.074 . S
O539 C564 1.257 . S
H540 C565 0.930 . S
H541 C571 0.930 . S
O542 Co531 2.093 . S
O542 C534 1.224 . S
H543 C575 0.929 . S
H544 C577 0.930 . S
H545 C578 0.930 . S
H546 C576 0.929 . S
H547 C579 0.928 . S
O548 Co532 2.057 . S
O548 C536 1.232 . S
H549 C568 0.929 . S
H550 C569 0.929 . S
H551 C581 0.931 . S
H552 C573 0.929 . S
H553 C582 0.930 . S
H554 C574 0.931 . S
O555 Co531 2.097 . S
O555 C583 1.214 . S
H556 C584 0.929 . S
H557 C585 0.929 . S
H558 C586 0.930 . S
H559 C587 0.929 . S
H560 C589 0.930 . S
H561 C566 0.930 . S
H562 C570 0.930 . S
O563 Co532 2.037 . S
O563 C583 1.234 . S
C564 O538 1.269 . S
C564 O539 1.257 . S
C565 H540 0.930 . S
C565 C568 1.388 . S
C565 C570 1.418 . S
C566 H561 0.930 . S
C566 C569 1.404 . S
C566 C570 1.353 . S
N567 Co532 2.145 . S
N567 C568 1.397 . S
N567 C569 1.334 . S
C568 H549 0.929 . S
C568 C565 1.388 . S
C568 N567 1.397 . S
C569 H550 0.929 . S
C569 C566 1.404 . S
C569 N567 1.334 . S
C570 H562 0.930 . S
C570 C565 1.418 . S
C570 C566 1.353 . S
C571 H541 0.930 . S
C571 N572 1.330 . S
C571 C573 1.446 . S
N572 Co531 2.151 . S
N572 C571 1.330 . S
N572 C576 1.418 . S
C573 H552 0.929 . S
C573 C571 1.446 . S
C573 C574 1.332 . S
C574 H554 0.931 . S
C574 C573 1.332 . S
C574 C575 1.267 . S
C575 H543 0.929 . S
C575 C574 1.267 . S
C575 C576 1.251 . S
C576 H546 0.929 . S
C576 N572 1.418 . S
C576 C575 1.251 . S
C577 H544 0.930 . S
C577 C579 1.406 . S
C577 C582 1.261 . S
C578 H545 0.930 . S
C578 N580 1.325 . S
C578 C581 1.357 . S
C579 H547 0.928 . S
C579 C577 1.406 . S
C579 N580 1.261 . S
N580 Co531 2.214 . S
N580 C578 1.325 . S
N580 C579 1.261 . S
C581 H551 0.931 . S
C581 C578 1.357 . S
C581 C582 1.312 . S
C582 H553 0.930 . S
C582 C577 1.261 . S
C582 C581 1.312 . S
C583 O555 1.214 . S
C583 O563 1.234 . S
C584 H556 0.929 . S
C584 C587 1.391 . S
C584 C589 1.391 . S
C585 H557 0.929 . S
C585 C586 1.390 . S
C585 N588 1.391 . S
C586 H558 0.930 . S
C586 C585 1.390 . S
C586 C587 1.392 . S
C587 H559 0.929 . S
C587 C584 1.391 . S
C587 C586 1.392 . S
N588 Co532 2.257 . S
N588 C585 1.391 . S
N588 C589 1.388 . S
C589 H560 0.930 . S
C589 C584 1.391 . S
C589 N588 1.388 . S
Co590 O592 2.143 . S
Co590 O598 2.074 . S
Co590 O601 2.093 . S
Co590 O614 2.097 . S
Co590 N631 2.151 . S
Co590 N639 2.214 . S
Co591 O592 2.160 . S
Co591 O597 2.058 . S
Co591 O607 2.057 . S
Co591 O622 2.037 . S
Co591 N626 2.145 . S
Co591 N647 2.257 . S
O592 Co590 2.143 . S
O592 Co591 2.160 . S
C593 O594 1.278 . S
C593 O601 1.224 . S
O594 C593 1.278 . S
C595 O596 1.245 . S
C595 O607 1.232 . S
O596 C595 1.245 . S
O597 Co591 2.058 . S
O597 C623 1.269 . S
O598 Co590 2.074 . S
O598 C623 1.257 . S
H599 C624 0.930 . S
H600 C630 0.930 . S
O601 Co590 2.093 . S
O601 C593 1.224 . S
H602 C634 0.929 . S
H603 C636 0.930 . S
H604 C637 0.930 . S
H605 C635 0.929 . S
H606 C638 0.928 . S
O607 Co591 2.057 . S
O607 C595 1.232 . S
H608 C627 0.929 . S
H609 C628 0.929 . S
H610 C640 0.931 . S
H611 C632 0.929 . S
H612 C641 0.930 . S
H613 C633 0.931 . S
O614 Co590 2.097 . S
O614 C642 1.214 . S
H615 C643 0.929 . S
H616 C644 0.929 . S
H617 C645 0.930 . S
H618 C646 0.929 . S
H619 C648 0.930 . S
H620 C625 0.930 . S
H621 C629 0.930 . S
O622 Co591 2.037 . S
O622 C642 1.234 . S
C623 O597 1.269 . S
C623 O598 1.257 . S
C624 H599 0.930 . S
C624 C627 1.388 . S
C624 C629 1.418 . S
C625 H620 0.930 . S
C625 C628 1.404 . S
C625 C629 1.353 . S
N626 Co591 2.145 . S
N626 C627 1.397 . S
N626 C628 1.334 . S
C627 H608 0.929 . S
C627 C624 1.388 . S
C627 N626 1.397 . S
C628 H609 0.929 . S
C628 C625 1.404 . S
C628 N626 1.334 . S
C629 H621 0.930 . S
C629 C624 1.418 . S
C629 C625 1.353 . S
C630 H600 0.930 . S
C630 N631 1.330 . S
C630 C632 1.446 . S
N631 Co590 2.151 . S
N631 C630 1.330 . S
N631 C635 1.418 . S
C632 H611 0.929 . S
C632 C630 1.446 . S
C632 C633 1.332 . S
C633 H613 0.931 . S
C633 C632 1.332 . S
C633 C634 1.267 . S
C634 H602 0.929 . S
C634 C633 1.267 . S
C634 C635 1.251 . S
C635 H605 0.929 . S
C635 N631 1.418 . S
C635 C634 1.251 . S
C636 H603 0.930 . S
C636 C638 1.406 1_554 S
C636 C641 1.261 . S
C637 H604 0.930 . S
C637 N639 1.325 . S
C637 C640 1.357 1_556 S
C638 H606 0.928 . S
C638 C636 1.406 1_556 S
C638 N639 1.261 . S
N639 Co590 2.214 . S
N639 C637 1.325 . S
N639 C638 1.261 . S
C640 H610 0.931 . S
C640 C637 1.357 1_554 S
C640 C641 1.312 . S
C641 H612 0.930 . S
C641 C636 1.261 . S
C641 C640 1.312 . S
C642 O614 1.214 . S
C642 O622 1.234 . S
C643 H615 0.929 . S
C643 C646 1.391 . S
C643 C648 1.391 . S
C644 H616 0.929 . S
C644 C645 1.390 . S
C644 N647 1.391 . S
C645 H617 0.930 . S
C645 C644 1.390 . S
C645 C646 1.392 . S
C646 H618 0.929 . S
C646 C643 1.391 . S
C646 C645 1.392 . S
N647 Co591 2.257 . S
N647 C644 1.391 . S
N647 C648 1.388 . S
C648 H619 0.930 . S
C648 C643 1.391 . S
C648 N647 1.388 . S
Co649 O651 2.143 . S
Co649 O657 2.074 . S
Co649 O660 2.093 . S
Co649 O673 2.097 . S
Co649 N690 2.151 . S
Co649 N698 2.214 . S
Co650 O651 2.160 . S
Co650 O656 2.058 . S
Co650 O666 2.057 . S
Co650 O681 2.037 . S
Co650 N685 2.145 . S
Co650 N706 2.257 . S
O651 Co649 2.143 . S
O651 Co650 2.160 . S
C652 O653 1.278 . S
C652 O660 1.224 . S
O653 C652 1.278 . S
C654 O655 1.245 . S
C654 O666 1.232 . S
O655 C654 1.245 . S
O656 Co650 2.058 . S
O656 C682 1.269 . S
O657 Co649 2.074 . S
O657 C682 1.257 . S
H658 C683 0.930 . S
H659 C689 0.930 . S
O660 Co649 2.093 . S
O660 C652 1.224 . S
H661 C693 0.929 . S
H662 C695 0.930 . S
H663 C696 0.930 . S
H664 C694 0.929 . S
H665 C697 0.928 . S
O666 Co650 2.057 . S
O666 C654 1.232 . S
H667 C686 0.929 . S
H668 C687 0.929 . S
H669 C699 0.931 . S
H670 C691 0.929 . S
H671 C700 0.930 . S
H672 C692 0.931 . S
O673 Co649 2.097 . S
O673 C701 1.214 . S
H674 C702 0.929 . S
H675 C703 0.929 . S
H676 C704 0.930 . S
H677 C705 0.929 . S
H678 C707 0.930 . S
H679 C684 0.930 . S
H680 C688 0.930 . S
O681 Co650 2.037 . S
O681 C701 1.234 . S
C682 O656 1.269 . S
C682 O657 1.257 . S
C683 H658 0.930 . S
C683 C686 1.388 . S
C683 C688 1.418 . S
C684 H679 0.930 . S
C684 C687 1.404 . S
C684 C688 1.353 . S
N685 Co650 2.145 . S
N685 C686 1.397 . S
N685 C687 1.334 . S
C686 H667 0.929 . S
C686 C683 1.388 . S
C686 N685 1.397 . S
C687 H668 0.929 . S
C687 C684 1.404 . S
C687 N685 1.334 . S
C688 H680 0.930 . S
C688 C683 1.418 . S
C688 C684 1.353 . S
C689 H659 0.930 . S
C689 N690 1.330 . S
C689 C691 1.446 . S
N690 Co649 2.151 . S
N690 C689 1.330 . S
N690 C694 1.418 . S
C691 H670 0.929 . S
C691 C689 1.446 . S
C691 C692 1.332 . S
C692 H672 0.931 . S
C692 C691 1.332 . S
C692 C693 1.267 . S
C693 H661 0.929 . S
C693 C692 1.267 . S
C693 C694 1.251 . S
C694 H664 0.929 . S
C694 N690 1.418 . S
C694 C693 1.251 . S
C695 H662 0.930 . S
C695 C697 1.406 . S
C695 C700 1.261 . S
C696 H663 0.930 . S
C696 N698 1.325 . S
C696 C699 1.357 . S
C697 H665 0.928 . S
C697 C695 1.406 . S
C697 N698 1.261 . S
N698 Co649 2.214 . S
N698 C696 1.325 . S
N698 C697 1.261 . S
C699 H669 0.931 . S
C699 C696 1.357 . S
C699 C700 1.312 . S
C700 H671 0.930 . S
C700 C695 1.261 . S
C700 C699 1.312 . S
C701 O673 1.214 . S
C701 O681 1.234 . S
C702 H674 0.929 . S
C702 C705 1.391 . S
C702 C707 1.391 . S
C703 H675 0.929 . S
C703 C704 1.390 . S
C703 N706 1.391 . S
C704 H676 0.930 . S
C704 C703 1.390 . S
C704 C705 1.392 . S
C705 H677 0.929 . S
C705 C702 1.391 . S
C705 C704 1.392 . S
N706 Co650 2.257 . S
N706 C703 1.391 . S
N706 C707 1.388 . S
C707 H678 0.930 . S
C707 C702 1.391 . S
C707 N706 1.388 . S
Co708 O710 2.143 . S
Co708 O716 2.074 . S
Co708 O719 2.093 . S
Co708 O732 2.097 . S
Co708 N749 2.151 . S
Co708 N757 2.214 . S
Co709 O710 2.160 . S
Co709 O715 2.058 . S
Co709 O725 2.057 . S
Co709 O740 2.037 . S
Co709 N744 2.145 . S
Co709 N765 2.257 . S
O710 Co708 2.143 . S
O710 Co709 2.160 . S
C711 O712 1.278 . S
C711 O719 1.224 . S
O712 C711 1.278 . S
C713 O714 1.245 . S
C713 O725 1.232 . S
O714 C713 1.245 . S
O715 Co709 2.058 . S
O715 C741 1.269 . S
O716 Co708 2.074 . S
O716 C741 1.257 . S
H717 C742 0.930 . S
H718 C748 0.930 . S
O719 Co708 2.093 . S
O719 C711 1.224 . S
H720 C752 0.929 . S
H721 C754 0.930 . S
H722 C755 0.930 . S
H723 C753 0.929 . S
H724 C756 0.928 . S
O725 Co709 2.057 . S
O725 C713 1.232 . S
H726 C745 0.929 . S
H727 C746 0.929 . S
H728 C758 0.931 . S
H729 C750 0.929 . S
H730 C759 0.930 . S
H731 C751 0.931 . S
O732 Co708 2.097 . S
O732 C760 1.214 . S
H733 C761 0.929 . S
H734 C762 0.929 . S
H735 C763 0.930 . S
H736 C764 0.929 . S
H737 C766 0.930 . S
H738 C743 0.930 . S
H739 C747 0.930 . S
O740 Co709 2.037 . S
O740 C760 1.234 . S
C741 O715 1.269 . S
C741 O716 1.257 . S
C742 H717 0.930 . S
C742 C745 1.388 1_554 S
C742 C747 1.418 . S
C743 H738 0.930 . S
C743 C746 1.404 1_554 S
C743 C747 1.353 . S
N744 Co709 2.145 . S
N744 C745 1.397 . S
N744 C746 1.334 . S
C745 H726 0.929 . S
C745 C742 1.388 1_556 S
C745 N744 1.397 . S
C746 H727 0.929 . S
C746 C743 1.404 1_556 S
C746 N744 1.334 . S
C747 H739 0.930 . S
C747 C742 1.418 . S
C747 C743 1.353 . S
C748 H718 0.930 . S
C748 N749 1.330 . S
C748 C750 1.446 . S
N749 Co708 2.151 . S
N749 C748 1.330 . S
N749 C753 1.418 . S
C750 H729 0.929 . S
C750 C748 1.446 . S
C750 C751 1.332 . S
C751 H731 0.931 . S
C751 C750 1.332 . S
C751 C752 1.267 . S
C752 H720 0.929 . S
C752 C751 1.267 . S
C752 C753 1.251 . S
C753 H723 0.929 . S
C753 N749 1.418 . S
C753 C752 1.251 . S
C754 H721 0.930 . S
C754 C756 1.406 . S
C754 C759 1.261 . S
C755 H722 0.930 . S
C755 N757 1.325 . S
C755 C758 1.357 . S
C756 H724 0.928 . S
C756 C754 1.406 . S
C756 N757 1.261 . S
N757 Co708 2.214 . S
N757 C755 1.325 . S
N757 C756 1.261 . S
C758 H728 0.931 . S
C758 C755 1.357 . S
C758 C759 1.312 . S
C759 H730 0.930 . S
C759 C754 1.261 . S
C759 C758 1.312 . S
C760 O732 1.214 . S
C760 O740 1.234 . S
C761 H733 0.929 . S
C761 C764 1.391 . S
C761 C766 1.391 . S
C762 H734 0.929 . S
C762 C763 1.390 . S
C762 N765 1.391 . S
C763 H735 0.930 . S
C763 C762 1.390 . S
C763 C764 1.392 . S
C764 H736 0.929 . S
C764 C761 1.391 . S
C764 C763 1.392 . S
N765 Co709 2.257 . S
N765 C762 1.391 . S
N765 C766 1.388 . S
C766 H737 0.930 . S
C766 C761 1.391 . S
C766 N765 1.388 . S
Co767 O769 2.143 . S
Co767 O775 2.074 . S
Co767 O778 2.093 . S
Co767 O791 2.097 . S
Co767 N808 2.151 . S
Co767 N816 2.214 . S
Co768 O769 2.160 . S
Co768 O774 2.058 . S
Co768 O784 2.057 . S
Co768 O799 2.037 . S
Co768 N803 2.145 . S
Co768 N824 2.257 . S
O769 Co767 2.143 . S
O769 Co768 2.160 . S
C770 O771 1.278 . S
C770 O778 1.224 . S
O771 C770 1.278 . S
C772 O773 1.245 . S
C772 O784 1.232 . S
O773 C772 1.245 . S
O774 Co768 2.058 . S
O774 C800 1.269 . S
O775 Co767 2.074 . S
O775 C800 1.257 . S
H776 C801 0.930 . S
H777 C807 0.930 . S
O778 Co767 2.093 . S
O778 C770 1.224 . S
H779 C811 0.929 . S
H780 C813 0.930 . S
H781 C814 0.930 . S
H782 C812 0.929 . S
H783 C815 0.928 . S
O784 Co768 2.057 . S
O784 C772 1.232 . S
H785 C804 0.929 . S
H786 C805 0.929 . S
H787 C817 0.931 . S
H788 C809 0.929 . S
H789 C818 0.930 . S
H790 C810 0.931 . S
O791 Co767 2.097 . S
O791 C819 1.214 . S
H792 C820 0.929 . S
H793 C821 0.929 . S
H794 C822 0.930 . S
H795 C823 0.929 . S
H796 C825 0.930 . S
H797 C802 0.930 . S
H798 C806 0.930 . S
O799 Co768 2.037 . S
O799 C819 1.234 . S
C800 O774 1.269 . S
C800 O775 1.257 . S
C801 H776 0.930 . S
C801 C804 1.388 . S
C801 C806 1.418 . S
C802 H797 0.930 . S
C802 C805 1.404 . S
C802 C806 1.353 . S
N803 Co768 2.145 . S
N803 C804 1.397 . S
N803 C805 1.334 . S
C804 H785 0.929 . S
C804 C801 1.388 . S
C804 N803 1.397 . S
C805 H786 0.929 . S
C805 C802 1.404 . S
C805 N803 1.334 . S
C806 H798 0.930 . S
C806 C801 1.418 . S
C806 C802 1.353 . S
C807 H777 0.930 . S
C807 N808 1.330 . S
C807 C809 1.446 . S
N808 Co767 2.151 . S
N808 C807 1.330 . S
N808 C812 1.418 . S
C809 H788 0.929 . S
C809 C807 1.446 . S
C809 C810 1.332 . S
C810 H790 0.931 . S
C810 C809 1.332 . S
C810 C811 1.267 . S
C811 H779 0.929 . S
C811 C810 1.267 . S
C811 C812 1.251 . S
C812 H782 0.929 . S
C812 N808 1.418 . S
C812 C811 1.251 . S
C813 H780 0.930 . S
C813 C815 1.406 . S
C813 C818 1.261 . S
C814 H781 0.930 . S
C814 N816 1.325 . S
C814 C817 1.357 . S
C815 H783 0.928 . S
C815 C813 1.406 . S
C815 N816 1.261 . S
N816 Co767 2.214 . S
N816 C814 1.325 . S
N816 C815 1.261 . S
C817 H787 0.931 . S
C817 C814 1.357 . S
C817 C818 1.312 . S
C818 H789 0.930 . S
C818 C813 1.261 . S
C818 C817 1.312 . S
C819 O791 1.214 . S
C819 O799 1.234 . S
C820 H792 0.929 . S
C820 C823 1.391 . S
C820 C825 1.391 . S
C821 H793 0.929 . S
C821 C822 1.390 . S
C821 N824 1.391 . S
C822 H794 0.930 . S
C822 C821 1.390 . S
C822 C823 1.392 . S
C823 H795 0.929 . S
C823 C820 1.391 . S
C823 C822 1.392 . S
N824 Co768 2.257 . S
N824 C821 1.391 . S
N824 C825 1.388 . S
C825 H796 0.930 . S
C825 C820 1.391 . S
C825 N824 1.388 . S
Co826 O828 2.143 . S
Co826 O834 2.074 . S
Co826 O837 2.093 . S
Co826 O850 2.097 . S
Co826 N867 2.151 . S
Co826 N875 2.214 . S
Co827 O828 2.160 . S
Co827 O833 2.058 . S
Co827 O843 2.057 . S
Co827 O858 2.037 . S
Co827 N862 2.145 . S
Co827 N883 2.257 . S
O828 Co826 2.143 . S
O828 Co827 2.160 . S
C829 O830 1.278 . S
C829 O837 1.224 . S
O830 C829 1.278 . S
C831 O832 1.245 . S
C831 O843 1.232 . S
O832 C831 1.245 . S
O833 Co827 2.058 . S
O833 C859 1.269 . S
O834 Co826 2.074 . S
O834 C859 1.257 . S
H835 C860 0.930 . S
H836 C866 0.930 . S
O837 Co826 2.093 . S
O837 C829 1.224 . S
H838 C870 0.929 . S
H839 C872 0.930 . S
H840 C873 0.930 . S
H841 C871 0.929 . S
H842 C874 0.928 . S
O843 Co827 2.057 . S
O843 C831 1.232 . S
H844 C863 0.929 . S
H845 C864 0.929 . S
H846 C876 0.931 . S
H847 C868 0.929 . S
H848 C877 0.930 . S
H849 C869 0.931 . S
O850 Co826 2.097 . S
O850 C878 1.214 . S
H851 C879 0.929 . S
H852 C880 0.929 . S
H853 C881 0.930 . S
H854 C882 0.929 . S
H855 C884 0.930 . S
H856 C861 0.930 . S
H857 C865 0.930 . S
O858 Co827 2.037 . S
O858 C878 1.234 . S
C859 O833 1.269 . S
C859 O834 1.257 . S
C860 H835 0.930 . S
C860 C863 1.388 1_556 S
C860 C865 1.418 . S
C861 H856 0.930 . S
C861 C864 1.404 1_556 S
C861 C865 1.353 . S
N862 Co827 2.145 . S
N862 C863 1.397 . S
N862 C864 1.334 . S
C863 H844 0.929 . S
C863 C860 1.388 1_554 S
C863 N862 1.397 . S
C864 H845 0.929 . S
C864 C861 1.404 1_554 S
C864 N862 1.334 . S
C865 H857 0.930 . S
C865 C860 1.418 . S
C865 C861 1.353 . S
C866 H836 0.930 . S
C866 N867 1.330 . S
C866 C868 1.446 . S
N867 Co826 2.151 . S
N867 C866 1.330 . S
N867 C871 1.418 . S
C868 H847 0.929 . S
C868 C866 1.446 . S
C868 C869 1.332 . S
C869 H849 0.931 . S
C869 C868 1.332 . S
C869 C870 1.267 . S
C870 H838 0.929 . S
C870 C869 1.267 . S
C870 C871 1.251 . S
C871 H841 0.929 . S
C871 N867 1.418 . S
C871 C870 1.251 . S
C872 H839 0.930 . S
C872 C874 1.406 . S
C872 C877 1.261 . S
C873 H840 0.930 . S
C873 N875 1.325 . S
C873 C876 1.357 . S
C874 H842 0.928 . S
C874 C872 1.406 . S
C874 N875 1.261 . S
N875 Co826 2.214 . S
N875 C873 1.325 . S
N875 C874 1.261 . S
C876 H846 0.931 . S
C876 C873 1.357 . S
C876 C877 1.312 . S
C877 H848 0.930 . S
C877 C872 1.261 . S
C877 C876 1.312 . S
C878 O850 1.214 . S
C878 O858 1.234 . S
C879 H851 0.929 . S
C879 C882 1.391 . S
C879 C884 1.391 . S
C880 H852 0.929 . S
C880 C881 1.390 . S
C880 N883 1.391 . S
C881 H853 0.930 . S
C881 C880 1.390 . S
C881 C882 1.392 . S
C882 H854 0.929 . S
C882 C879 1.391 . S
C882 C881 1.392 . S
N883 Co827 2.257 . S
N883 C880 1.391 . S
N883 C884 1.388 . S
C884 H855 0.930 . S
C884 C879 1.391 . S
C884 N883 1.388 . S
Co885 O887 2.143 . S
Co885 O893 2.074 . S
Co885 O896 2.093 . S
Co885 O909 2.097 . S
Co885 N926 2.151 . S
Co885 N934 2.214 . S
Co886 O887 2.160 . S
Co886 O892 2.058 . S
Co886 O902 2.057 . S
Co886 O917 2.037 . S
Co886 N921 2.145 . S
Co886 N942 2.257 . S
O887 Co885 2.143 . S
O887 Co886 2.160 . S
C888 O889 1.278 . S
C888 O896 1.224 . S
O889 C888 1.278 . S
C890 O891 1.245 . S
C890 O902 1.232 . S
O891 C890 1.245 . S
O892 Co886 2.058 . S
O892 C918 1.269 . S
O893 Co885 2.074 . S
O893 C918 1.257 . S
H894 C919 0.930 . S
H895 C925 0.930 . S
O896 Co885 2.093 . S
O896 C888 1.224 . S
H897 C929 0.929 . S
H898 C931 0.930 . S
H899 C932 0.930 . S
H900 C930 0.929 . S
H901 C933 0.928 . S
O902 Co886 2.057 . S
O902 C890 1.232 . S
H903 C922 0.929 . S
H904 C923 0.929 . S
H905 C935 0.931 . S
H906 C927 0.929 . S
H907 C936 0.930 . S
H908 C928 0.931 . S
O909 Co885 2.097 . S
O909 C937 1.214 . S
H910 C938 0.929 . S
H911 C939 0.929 . S
H912 C940 0.930 . S
H913 C941 0.929 . S
H914 C943 0.930 . S
H915 C920 0.930 . S
H916 C924 0.930 . S
O917 Co886 2.037 . S
O917 C937 1.234 . S
C918 O892 1.269 . S
C918 O893 1.257 . S
C919 H894 0.930 . S
C919 C922 1.388 . S
C919 C924 1.418 . S
C920 H915 0.930 . S
C920 C923 1.404 . S
C920 C924 1.353 . S
N921 Co886 2.145 . S
N921 C922 1.397 . S
N921 C923 1.334 . S
C922 H903 0.929 . S
C922 C919 1.388 . S
C922 N921 1.397 . S
C923 H904 0.929 . S
C923 C920 1.404 . S
C923 N921 1.334 . S
C924 H916 0.930 . S
C924 C919 1.418 . S
C924 C920 1.353 . S
C925 H895 0.930 . S
C925 N926 1.330 . S
C925 C927 1.446 . S
N926 Co885 2.151 . S
N926 C925 1.330 . S
N926 C930 1.418 . S
C927 H906 0.929 . S
C927 C925 1.446 . S
C927 C928 1.332 . S
C928 H908 0.931 . S
C928 C927 1.332 . S
C928 C929 1.267 . S
C929 H897 0.929 . S
C929 C928 1.267 . S
C929 C930 1.251 . S
C930 H900 0.929 . S
C930 N926 1.418 . S
C930 C929 1.251 . S
C931 H898 0.930 . S
C931 C933 1.406 . S
C931 C936 1.261 . S
C932 H899 0.930 . S
C932 N934 1.325 . S
C932 C935 1.357 . S
C933 H901 0.928 . S
C933 C931 1.406 . S
C933 N934 1.261 . S
N934 Co885 2.214 . S
N934 C932 1.325 . S
N934 C933 1.261 . S
C935 H905 0.931 . S
C935 C932 1.357 . S
C935 C936 1.312 . S
C936 H907 0.930 . S
C936 C931 1.261 . S
C936 C935 1.312 . S
C937 O909 1.214 . S
C937 O917 1.234 . S
C938 H910 0.929 . S
C938 C941 1.391 . S
C938 C943 1.391 . S
C939 H911 0.929 . S
C939 C940 1.390 . S
C939 N942 1.391 . S
C940 H912 0.930 . S
C940 C939 1.390 . S
C940 C941 1.392 . S
C941 H913 0.929 . S
C941 C938 1.391 . S
C941 C940 1.392 . S
N942 Co886 2.257 . S
N942 C939 1.391 . S
N942 C943 1.388 . S
C943 H914 0.930 . S
C943 C938 1.391 . S
C943 N942 1.388 . S
H944 C952 0.929 . S
H945 C954 0.930 . S
H946 C956 0.930 . S
H947 C959 0.929 . S
H948 C962 0.930 . S
H949 C964 0.960 . S
H950 C964 0.960 . S
H951 C964 0.960 . S
C952 H944 0.929 . S
C952 C953 1.377 . S
C952 C954 1.384 . S
C953 C952 1.377 . S
C953 C959 1.390 . S
C954 H945 0.930 . S
C954 C952 1.384 . S
C954 C955 1.372 . S
C955 C954 1.372 . S
C955 C956 1.400 . S
C955 C960 1.490 . S
C956 H946 0.930 . S
C956 C955 1.400 . S
C956 C959 1.386 . S
H957 C973 0.930 . S
H958 C974 0.931 . S
C959 H947 0.929 . S
C959 C953 1.390 . S
C959 C956 1.386 . S
C960 C955 1.490 . S
C960 C962 1.395 . S
C960 C963 1.403 . S
H961 C967 0.930 . S
C962 H948 0.930 . S
C962 C960 1.395 . S
C962 C965 1.403 . S
C963 C960 1.403 . S
C963 C964 1.524 . S
C963 C967 1.400 . S
C964 H949 0.960 . S
C964 H950 0.960 . S
C964 H951 0.960 . S
C964 C963 1.524 . S
C965 C962 1.403 . S
C965 C966 1.404 . S
C965 C969 1.494 . S
C966 C965 1.404 . S
C966 C967 1.398 . S
C966 C968 1.456 1_554 S
C967 H961 0.930 . S
C967 C963 1.400 . S
C967 C966 1.398 . S
C968 C966 1.456 1_556 S
C968 C970 1.381 . S
C968 C974 1.383 . S
C969 C965 1.494 . S
C969 H975 0.958 . S
C969 H976 0.964 1_554 S
C969 H977 0.958 . S
C970 C968 1.381 . S
C970 C971 1.394 . S
C970 H978 0.930 1_556 S
C971 C970 1.394 . S
C971 C972 1.383 . S
C971 H979 0.929 . S
C972 C971 1.383 . S
C972 C973 1.377 . S
C973 H957 0.930 . S
C973 C972 1.377 . S
C973 C974 1.379 . S
C974 H958 0.931 . S
C974 C968 1.383 . S
C974 C973 1.379 . S
H975 C969 0.958 . S
H976 C969 0.964 1_556 S
H977 C969 0.958 . S
H978 C970 0.930 1_554 S
H979 C971 0.929 . S
H980 C988 0.929 . S
H981 C990 0.930 . S
H982 C992 0.930 . S
H983 C995 0.929 . S
H984 C998 0.930 . S
H985 C1000 0.960 . S
H986 C1000 0.960 . S
H987 C1000 0.960 . S
C988 H980 0.929 . S
C988 C989 1.377 . S
C988 C990 1.384 . S
C989 C988 1.377 . S
C989 C995 1.390 . S
C990 H981 0.930 . S
C990 C988 1.384 . S
C990 C991 1.372 . S
C991 C990 1.372 . S
C991 C992 1.400 . S
C991 C996 1.490 . S
C992 H982 0.930 . S
C992 C991 1.400 . S
C992 C995 1.386 . S
H993 C1009 0.930 . S
H994 C1010 0.931 . S
C995 H983 0.929 . S
C995 C989 1.390 . S
C995 C992 1.386 . S
C996 C991 1.490 . S
C996 C998 1.395 . S
C996 C999 1.403 . S
H997 C1003 0.930 . S
C998 H984 0.930 . S
C998 C996 1.395 . S
C998 C1001 1.403 . S
C999 C996 1.403 . S
C999 C1000 1.524 . S
C999 C1003 1.400 . S
C1000 H985 0.960 . S
C1000 H986 0.960 . S
C1000 H987 0.960 . S
C1000 C999 1.524 . S
C1001 C998 1.403 . S
C1001 C1002 1.392 . S
C1001 C1005 1.495 . S
C1002 C1001 1.392 . S
C1002 C1003 1.385 . S
C1002 C1004 1.478 . S
C1003 H997 0.930 . S
C1003 C999 1.400 . S
C1003 C1002 1.385 . S
C1004 C1002 1.478 . S
C1004 C1006 1.381 . S
C1004 C1010 1.383 . S
C1005 C1001 1.495 . S
C1005 H1011 0.959 . S
C1005 H1012 0.961 . S
C1005 H1013 0.960 . S
C1006 C1004 1.381 . S
C1006 C1007 1.394 . S
C1006 H1014 0.930 . S
C1007 C1006 1.394 . S
C1007 C1008 1.383 . S
C1007 H1015 0.929 . S
C1008 C1007 1.383 . S
C1008 C1009 1.377 . S
C1009 H993 0.930 . S
C1009 C1008 1.377 . S
C1009 C1010 1.379 . S
C1010 H994 0.931 . S
C1010 C1004 1.383 . S
C1010 C1009 1.379 . S
H1011 C1005 0.959 . S
H1012 C1005 0.961 . S
H1013 C1005 0.960 . S
H1014 C1006 0.930 . S
H1015 C1007 0.929 . S
H1016 C1024 0.929 . S
H1017 C1026 0.930 . S
H1018 C1028 0.930 . S
H1019 C1031 0.929 . S
H1020 C1034 0.930 . S
H1021 C1036 0.946 1_554 S
H1022 C1036 0.960 . S
H1023 C1036 0.960 . S
C1024 H1016 0.929 . S
C1024 C1025 1.377 . S
C1024 C1026 1.384 . S
C1025 C1024 1.377 . S
C1025 C1031 1.390 . S
C1026 H1017 0.930 . S
C1026 C1024 1.384 . S
C1026 C1027 1.372 . S
C1027 C1026 1.372 . S
C1027 C1028 1.400 . S
C1027 C1032 1.490 . S
C1028 H1018 0.930 . S
C1028 C1027 1.400 . S
C1028 C1031 1.386 . S
H1029 C1045 0.930 . S
H1030 C1046 0.931 . S
C1031 H1019 0.929 . S
C1031 C1025 1.390 . S
C1031 C1028 1.386 . S
C1032 C1027 1.490 . S
C1032 C1034 1.395 . S
C1032 C1035 1.403 . S
H1033 C1039 0.913 1_554 S
C1034 H1020 0.930 . S
C1034 C1032 1.395 . S
C1034 C1037 1.403 . S
C1035 C1032 1.403 . S
C1035 C1036 1.524 . S
C1035 C1039 1.414 . S
C1036 H1021 0.946 1_556 S
C1036 H1022 0.960 . S
C1036 H1023 0.960 . S
C1036 C1035 1.524 . S
C1037 C1034 1.403 . S
C1037 C1038 1.392 . S
C1037 C1041 1.495 . S
C1038 C1037 1.392 . S
C1038 C1039 1.388 . S
C1038 C1040 1.478 1_556 S
C1039 H1033 0.913 1_556 S
C1039 C1035 1.414 . S
C1039 C1038 1.388 . S
C1040 C1038 1.478 1_554 S
C1040 C1042 1.381 1_554 S
C1040 C1046 1.383 . S
C1041 C1037 1.495 . S
C1041 H1047 0.959 . S
C1041 H1048 0.961 . S
C1041 H1049 0.960 . S
C1042 C1040 1.381 1_556 S
C1042 C1043 1.394 1_556 S
C1042 H1050 0.930 . S
C1043 C1042 1.394 1_554 S
C1043 C1044 1.383 . S
C1043 H1051 0.929 . S
C1044 C1043 1.383 . S
C1044 C1045 1.377 . S
C1045 H1029 0.930 . S
C1045 C1044 1.377 . S
C1045 C1046 1.379 . S
C1046 H1030 0.931 . S
C1046 C1040 1.383 . S
C1046 C1045 1.379 . S
H1047 C1041 0.959 . S
H1048 C1041 0.961 . S
H1049 C1041 0.960 . S
H1050 C1042 0.930 . S
H1051 C1043 0.929 . S
H1052 C1060 0.929 . S
H1053 C1062 0.930 . S
H1054 C1064 0.930 . S
H1055 C1067 0.929 . S
H1056 C1070 0.930 . S
H1057 C1072 0.960 . S
H1058 C1072 0.960 . S
H1059 C1072 0.960 . S
C1060 H1052 0.929 . S
C1060 C1061 1.377 . S
C1060 C1062 1.384 . S
C1061 C1060 1.377 . S
C1061 C1067 1.390 . S
C1062 H1053 0.930 . S
C1062 C1060 1.384 . S
C1062 C1063 1.372 . S
C1063 C1062 1.372 . S
C1063 C1064 1.400 . S
C1063 C1068 1.490 . S
C1064 H1054 0.930 . S
C1064 C1063 1.400 . S
C1064 C1067 1.386 . S
H1065 C1081 0.930 . S
H1066 C1082 0.931 . S
C1067 H1055 0.929 . S
C1067 C1061 1.390 . S
C1067 C1064 1.386 . S
C1068 C1063 1.490 . S
C1068 C1070 1.395 . S
C1068 C1071 1.403 . S
H1069 C1075 0.930 . S
C1070 H1056 0.930 . S
C1070 C1068 1.395 . S
C1070 C1073 1.403 . S
C1071 C1068 1.403 . S
C1071 C1072 1.524 . S
C1071 C1075 1.400 . S
C1072 H1057 0.960 . S
C1072 H1058 0.960 . S
C1072 H1059 0.960 . S
C1072 C1071 1.524 . S
C1073 C1070 1.403 . S
C1073 C1074 1.392 . S
C1073 C1077 1.495 . S
C1074 C1073 1.392 . S
C1074 C1075 1.385 . S
C1074 C1076 1.478 . S
C1075 H1069 0.930 . S
C1075 C1071 1.400 . S
C1075 C1074 1.385 . S
C1076 C1074 1.478 . S
C1076 C1078 1.381 . S
C1076 C1082 1.383 . S
C1077 C1073 1.495 . S
C1077 H1083 0.959 . S
C1077 H1084 0.961 . S
C1077 H1085 0.960 . S
C1078 C1076 1.381 . S
C1078 C1079 1.394 . S
C1078 H1086 0.930 . S
C1079 C1078 1.394 . S
C1079 C1080 1.383 . S
C1079 H1087 0.929 . S
C1080 C1079 1.383 . S
C1080 C1081 1.377 . S
C1081 H1065 0.930 . S
C1081 C1080 1.377 . S
C1081 C1082 1.379 . S
C1082 H1066 0.931 . S
C1082 C1076 1.383 . S
C1082 C1081 1.379 . S
H1083 C1077 0.959 . S
H1084 C1077 0.961 . S
H1085 C1077 0.960 . S
H1086 C1078 0.930 . S
H1087 C1079 0.929 . S
H1088 C1096 0.929 . S
H1089 C1098 0.930 . S
H1090 C1100 0.930 . S
H1091 C1103 0.929 . S
H1092 C1106 0.930 . S
H1093 C1108 0.960 . S
H1094 C1108 0.960 . S
H1095 C1108 0.960 . S
C1096 H1088 0.929 . S
C1096 C1097 1.377 . S
C1096 C1098 1.384 . S
C1097 C1096 1.377 . S
C1097 C1103 1.390 . S
C1098 H1089 0.930 . S
C1098 C1096 1.384 . S
C1098 C1099 1.372 . S
C1099 C1098 1.372 . S
C1099 C1100 1.400 . S
C1099 C1104 1.490 . S
C1100 H1090 0.930 . S
C1100 C1099 1.400 . S
C1100 C1103 1.386 . S
H1101 C1117 0.930 . S
H1102 C1118 0.931 . S
C1103 H1091 0.929 . S
C1103 C1097 1.390 . S
C1103 C1100 1.386 . S
C1104 C1099 1.490 . S
C1104 C1106 1.395 . S
C1104 C1107 1.403 . S
H1105 C1111 0.930 . S
C1106 H1092 0.930 . S
C1106 C1104 1.395 . S
C1106 C1109 1.403 1_554 S
C1107 C1104 1.403 . S
C1107 C1108 1.524 . S
C1107 C1111 1.400 . S
C1108 H1093 0.960 . S
C1108 H1094 0.960 . S
C1108 H1095 0.960 . S
C1108 C1107 1.524 . S
C1109 C1106 1.403 1_556 S
C1109 C1110 1.392 . S
C1109 C1113 1.495 . S
C1110 C1109 1.392 . S
C1110 C1111 1.385 1_556 S
C1110 C1112 1.478 . S
C1111 H1105 0.930 . S
C1111 C1107 1.400 . S
C1111 C1110 1.385 1_554 S
C1112 C1110 1.478 . S
C1112 C1114 1.381 . S
C1112 C1118 1.383 . S
C1113 C1109 1.495 . S
C1113 H1119 0.959 . S
C1113 H1120 0.961 . S
C1113 H1121 0.960 . S
C1114 C1112 1.381 . S
C1114 C1115 1.394 . S
C1114 H1122 0.929 1_556 S
C1115 C1114 1.394 . S
C1115 C1116 1.383 . S
C1115 H1123 0.929 . S
C1116 C1115 1.383 . S
C1116 C1117 1.377 . S
C1117 H1101 0.930 . S
C1117 C1116 1.377 . S
C1117 C1118 1.379 . S
C1118 H1102 0.931 . S
C1118 C1112 1.383 . S
C1118 C1117 1.379 . S
H1119 C1113 0.959 . S
H1120 C1113 0.961 . S
H1121 C1113 0.960 . S
H1122 C1114 0.929 1_554 S
H1123 C1115 0.929 . S
H1124 C1132 0.929 . S
H1125 C1134 0.930 . S
H1126 C1136 0.930 . S
H1127 C1139 0.929 . S
H1128 C1142 0.930 . S
H1129 C1144 0.960 . S
H1130 C1144 0.960 . S
H1131 C1144 0.960 . S
C1132 H1124 0.929 . S
C1132 C1133 1.377 . S
C1132 C1134 1.384 . S
C1133 C1132 1.377 . S
C1133 C1139 1.390 . S
C1134 H1125 0.930 . S
C1134 C1132 1.384 . S
C1134 C1135 1.372 . S
C1135 C1134 1.372 . S
C1135 C1136 1.400 . S
C1135 C1140 1.490 . S
C1136 H1126 0.930 . S
C1136 C1135 1.400 . S
C1136 C1139 1.386 . S
H1137 C1153 0.930 . S
H1138 C1154 0.931 . S
C1139 H1127 0.929 . S
C1139 C1133 1.390 . S
C1139 C1136 1.386 . S
C1140 C1135 1.490 . S
C1140 C1142 1.395 . S
C1140 C1143 1.403 . S
H1141 C1147 0.930 . S
C1142 H1128 0.930 . S
C1142 C1140 1.395 . S
C1142 C1145 1.403 . S
C1143 C1140 1.403 . S
C1143 C1144 1.524 . S
C1143 C1147 1.400 . S
C1144 H1129 0.960 . S
C1144 H1130 0.960 . S
C1144 H1131 0.960 . S
C1144 C1143 1.524 . S
C1145 C1142 1.403 . S
C1145 C1146 1.392 . S
C1145 C1149 1.495 . S
C1146 C1145 1.392 . S
C1146 C1147 1.385 . S
C1146 C1148 1.478 . S
C1147 H1141 0.930 . S
C1147 C1143 1.400 . S
C1147 C1146 1.385 . S
C1148 C1146 1.478 . S
C1148 C1150 1.381 . S
C1148 C1154 1.383 . S
C1149 C1145 1.495 . S
C1149 H1155 0.959 . S
C1149 H1156 0.961 . S
C1149 H1157 0.960 . S
C1150 C1148 1.381 . S
C1150 C1151 1.394 . S
C1150 H1158 0.930 . S
C1151 C1150 1.394 . S
C1151 C1152 1.383 . S
C1151 H1159 0.929 . S
C1152 C1151 1.383 . S
C1152 C1153 1.377 . S
C1153 H1137 0.930 . S
C1153 C1152 1.377 . S
C1153 C1154 1.379 . S
C1154 H1138 0.931 . S
C1154 C1148 1.383 . S
C1154 C1153 1.379 . S
H1155 C1149 0.959 . S
H1156 C1149 0.961 . S
H1157 C1149 0.960 . S
H1158 C1150 0.930 . S
H1159 C1151 0.929 . S
H1160 C1168 0.929 . S
H1161 C1170 0.930 . S
H1162 C1172 0.930 . S
H1163 C1175 0.929 . S
H1164 C1178 0.930 . S
H1165 C1180 0.957 . S
H1166 C1180 0.958 . S
H1167 C1180 0.964 1_556 S
C1168 H1160 0.929 . S
C1168 C1169 1.377 . S
C1168 C1170 1.384 . S
C1169 C1168 1.377 . S
C1169 C1175 1.390 . S
C1170 H1161 0.930 . S
C1170 C1168 1.384 . S
C1170 C1171 1.372 . S
C1171 C1170 1.372 . S
C1171 C1172 1.400 . S
C1171 C1176 1.490 . S
C1172 H1162 0.930 . S
C1172 C1171 1.400 . S
C1172 C1175 1.386 . S
H1173 C1189 0.930 . S
H1174 C1190 0.931 1_556 S
C1175 H1163 0.929 . S
C1175 C1169 1.390 . S
C1175 C1172 1.386 . S
C1176 C1171 1.490 . S
C1176 C1178 1.395 . S
C1176 C1179 1.403 . S
H1177 C1183 0.930 . S
C1178 H1164 0.930 . S
C1178 C1176 1.395 . S
C1178 C1181 1.403 . S
C1179 C1176 1.403 . S
C1179 C1180 1.525 1_556 S
C1179 C1183 1.400 1_556 S
C1180 H1165 0.957 . S
C1180 H1166 0.958 . S
C1180 H1167 0.964 1_554 S
C1180 C1179 1.525 1_554 S
C1181 C1178 1.403 . S
C1181 C1182 1.392 . S
C1181 C1185 1.495 . S
C1182 C1181 1.392 . S
C1182 C1183 1.385 1_556 S
C1182 C1184 1.478 1_556 S
C1183 H1177 0.930 . S
C1183 C1179 1.400 1_554 S
C1183 C1182 1.385 1_554 S
C1184 C1182 1.478 1_554 S
C1184 C1186 1.381 . S
C1184 C1190 1.383 . S
C1185 C1181 1.495 . S
C1185 H1191 0.959 . S
C1185 H1192 0.961 . S
C1185 H1193 0.960 . S
C1186 C1184 1.381 . S
C1186 C1187 1.394 . S
C1186 H1194 0.930 . S
C1187 C1186 1.394 . S
C1187 C1188 1.383 . S
C1187 H1195 0.929 . S
C1188 C1187 1.383 . S
C1188 C1189 1.377 . S
C1189 H1173 0.930 . S
C1189 C1188 1.377 . S
C1189 C1190 1.379 . S
C1190 H1174 0.931 1_554 S
C1190 C1184 1.383 . S
C1190 C1189 1.379 . S
H1191 C1185 0.959 . S
H1192 C1185 0.961 . S
H1193 C1185 0.960 . S
H1194 C1186 0.930 . S
H1195 C1187 0.929 . S
H1196 C1204 0.929 . S
H1197 C1206 0.930 . S
H1198 C1208 0.930 . S
H1199 C1211 0.929 . S
H1200 C1214 0.930 . S
H1201 C1216 0.960 . S
H1202 C1216 0.960 . S
H1203 C1216 0.960 . S
C1204 H1196 0.929 . S
C1204 C1205 1.377 . S
C1204 C1206 1.384 . S
C1205 C1204 1.377 . S
C1205 C1211 1.390 . S
C1206 H1197 0.930 . S
C1206 C1204 1.384 . S
C1206 C1207 1.372 . S
C1207 C1206 1.372 . S
C1207 C1208 1.400 . S
C1207 C1212 1.490 . S
C1208 H1198 0.930 . S
C1208 C1207 1.400 . S
C1208 C1211 1.386 . S
H1209 C1225 0.930 . S
H1210 C1226 0.931 . S
C1211 H1199 0.929 . S
C1211 C1205 1.390 . S
C1211 C1208 1.386 . S
C1212 C1207 1.490 . S
C1212 C1214 1.395 . S
C1212 C1215 1.403 . S
H1213 C1219 0.930 . S
C1214 H1200 0.930 . S
C1214 C1212 1.395 . S
C1214 C1217 1.403 . S
C1215 C1212 1.403 . S
C1215 C1216 1.524 . S
C1215 C1219 1.400 . S
C1216 H1201 0.960 . S
C1216 H1202 0.960 . S
C1216 H1203 0.960 . S
C1216 C1215 1.524 . S
C1217 C1214 1.403 . S
C1217 C1218 1.392 . S
C1217 C1221 1.495 . S
C1218 C1217 1.392 . S
C1218 C1219 1.385 . S
C1218 C1220 1.478 . S
C1219 H1213 0.930 . S
C1219 C1215 1.400 . S
C1219 C1218 1.385 . S
C1220 C1218 1.478 . S
C1220 C1222 1.381 . S
C1220 C1226 1.383 . S
C1221 C1217 1.495 . S
C1221 H1227 0.959 . S
C1221 H1228 0.961 . S
C1221 H1229 0.960 . S
C1222 C1220 1.381 . S
C1222 C1223 1.394 . S
C1222 H1230 0.930 . S
C1223 C1222 1.394 . S
C1223 C1224 1.383 . S
C1223 H1231 0.929 . S
C1224 C1223 1.383 . S
C1224 C1225 1.377 . S
C1225 H1209 0.930 . S
C1225 C1224 1.377 . S
C1225 C1226 1.379 . S
C1226 H1210 0.931 . S
C1226 C1220 1.383 . S
C1226 C1225 1.379 . S
H1227 C1221 0.959 . S
H1228 C1221 0.961 . S
H1229 C1221 0.960 . S
H1230 C1222 0.930 . S
H1231 C1223 0.929 . S
H1232 C1240 0.929 . S
H1233 C1242 0.930 . S
H1234 C1244 0.930 . S
H1235 C1247 0.929 . S
H1236 C1250 0.930 . S
H1237 C1252 0.960 1_556 S
H1238 C1252 0.959 1_556 S
H1239 C1252 0.960 . S
C1240 H1232 0.929 . S
C1240 C1241 1.377 . S
C1240 C1242 1.384 . S
C1241 C1240 1.377 . S
C1241 C1247 1.390 . S
C1242 H1233 0.930 . S
C1242 C1240 1.384 . S
C1242 C1243 1.372 . S
C1243 C1242 1.372 . S
C1243 C1244 1.400 . S
C1243 C1248 1.490 . S
C1244 H1234 0.930 . S
C1244 C1243 1.400 . S
C1244 C1247 1.386 . S
H1245 C1261 0.930 . S
H1246 C1262 0.931 . S
C1247 H1235 0.929 . S
C1247 C1241 1.390 . S
C1247 C1244 1.386 . S
C1248 C1243 1.490 . S
C1248 C1250 1.395 . S
C1248 C1251 1.403 . S
H1249 C1255 0.930 . S
C1250 H1236 0.930 . S
C1250 C1248 1.395 . S
C1250 C1253 1.403 1_544 S
C1251 C1248 1.403 . S
C1251 C1252 1.524 . S
C1251 C1255 1.400 1_544 S
C1252 H1237 0.960 1_554 S
C1252 H1238 0.959 1_554 S
C1252 H1239 0.960 . S
C1252 C1251 1.524 . S
C1253 C1250 1.403 1_566 S
C1253 C1254 1.392 . S
C1253 C1257 1.495 . S
C1254 C1253 1.392 . S
C1254 C1255 1.385 . S
C1254 C1256 1.478 . S
C1255 H1249 0.930 . S
C1255 C1251 1.400 1_566 S
C1255 C1254 1.385 . S
C1256 C1254 1.478 . S
C1256 C1258 1.381 . S
C1256 C1262 1.383 . S
C1257 C1253 1.495 . S
C1257 H1263 0.959 1_556 S
C1257 H1264 0.961 . S
C1257 H1265 0.960 . S
C1258 C1256 1.381 . S
C1258 C1259 1.394 . S
C1258 H1266 0.930 . S
C1259 C1258 1.394 . S
C1259 C1260 1.383 . S
C1259 H1267 0.929 . S
C1260 C1259 1.383 . S
C1260 C1261 1.377 . S
C1261 H1245 0.930 . S
C1261 C1260 1.377 . S
C1261 C1262 1.379 . S
C1262 H1246 0.931 . S
C1262 C1256 1.383 . S
C1262 C1261 1.379 . S
H1263 C1257 0.959 1_554 S
H1264 C1257 0.961 . S
H1265 C1257 0.960 . S
H1266 C1258 0.930 . S
H1267 C1259 0.929 . S
H1268 C1276 0.929 . S
H1269 C1278 0.930 . S
H1270 C1280 0.930 . S
H1271 C1283 0.929 . S
H1272 C1286 0.930 . S
H1273 C1288 0.960 . S
H1274 C1288 0.960 . S
H1275 C1288 0.960 1_565 S
C1276 H1268 0.929 . S
C1276 C1277 1.377 . S
C1276 C1278 1.384 . S
C1277 C1276 1.377 . S
C1277 C1283 1.390 . S
C1278 H1269 0.930 . S
C1278 C1276 1.384 . S
C1278 C1279 1.372 . S
C1279 C1278 1.372 . S
C1279 C1280 1.400 . S
C1279 C1284 1.490 . S
C1280 H1270 0.930 . S
C1280 C1279 1.400 . S
C1280 C1283 1.386 . S
H1281 C1297 0.930 . S
H1282 C1298 0.931 . S
C1283 H1271 0.929 . S
C1283 C1277 1.390 . S
C1283 C1280 1.386 . S
C1284 C1279 1.490 . S
C1284 C1286 1.395 . S
C1284 C1287 1.403 1_565 S
H1285 C1291 0.930 . S
C1286 H1272 0.930 . S
C1286 C1284 1.395 . S
C1286 C1289 1.403 . S
C1287 C1284 1.403 1_545 S
C1287 C1288 1.524 . S
C1287 C1291 1.400 . S
C1288 H1273 0.960 . S
C1288 H1274 0.960 . S
C1288 H1275 0.960 1_545 S
C1288 C1287 1.524 . S
C1289 C1286 1.403 . S
C1289 C1290 1.392 1_565 S
C1289 C1293 1.495 . S
C1290 C1289 1.392 1_545 S
C1290 C1291 1.385 . S
C1290 C1292 1.478 . S
C1291 H1285 0.930 . S
C1291 C1287 1.400 . S
C1291 C1290 1.385 . S
C1292 C1290 1.478 . S
C1292 C1294 1.381 . S
C1292 C1298 1.383 . S
C1293 C1289 1.495 . S
C1293 H1299 0.959 . S
C1293 H1300 0.961 . S
C1293 H1301 0.960 1_565 S
C1294 C1292 1.381 . S
C1294 C1295 1.394 . S
C1294 H1302 0.930 . S
C1295 C1294 1.394 . S
C1295 C1296 1.383 . S
C1295 H1303 0.929 . S
C1296 C1295 1.383 . S
C1296 C1297 1.377 . S
C1297 H1281 0.930 . S
C1297 C1296 1.377 . S
C1297 C1298 1.379 . S
C1298 H1282 0.931 . S
C1298 C1292 1.383 . S
C1298 C1297 1.379 . S
H1299 C1293 0.959 . S
H1300 C1293 0.961 . S
H1301 C1293 0.960 1_545 S
H1302 C1294 0.930 . S
H1303 C1295 0.929 . S
H1304 C1312 0.929 . S
H1305 C1314 0.930 . S
H1306 C1316 0.930 1_554 S
H1307 C1319 0.929 . S
H1308 C1322 0.930 . S
H1309 C1324 0.960 . S
H1310 C1324 0.960 . S
H1311 C1324 0.960 . S
C1312 H1304 0.929 . S
C1312 C1313 1.377 . S
C1312 C1314 1.384 . S
C1313 C1312 1.377 . S
C1313 C1319 1.390 . S
C1314 H1305 0.930 . S
C1314 C1312 1.384 . S
C1314 C1315 1.372 . S
C1315 C1314 1.372 . S
C1315 C1316 1.400 . S
C1315 C1320 1.490 . S
C1316 H1306 0.930 1_556 S
C1316 C1315 1.400 . S
C1316 C1319 1.386 . S
H1317 C1333 0.930 . S
H1318 C1334 0.931 . S
C1319 H1307 0.929 . S
C1319 C1313 1.390 . S
C1319 C1316 1.386 . S
C1320 C1315 1.490 . S
C1320 C1322 1.389 1_556 S
C1320 C1323 1.403 . S
H1321 C1327 0.930 . S
C1322 H1308 0.930 . S
C1322 C1320 1.389 1_554 S
C1322 C1325 1.409 1_565 S
C1323 C1320 1.403 . S
C1323 C1324 1.524 . S
C1323 C1327 1.409 1_565 S
C1324 H1309 0.960 . S
C1324 H1310 0.960 . S
C1324 H1311 0.960 . S
C1324 C1323 1.524 . S
C1325 C1322 1.409 1_545 S
C1325 C1326 1.392 . S
C1325 C1329 1.495 . S
C1326 C1325 1.392 . S
C1326 C1327 1.376 1_554 S
C1326 C1328 1.478 . S
C1327 H1321 0.930 . S
C1327 C1323 1.409 1_545 S
C1327 C1326 1.376 1_556 S
C1328 C1326 1.478 . S
C1328 C1330 1.381 . S
C1328 C1334 1.383 . S
C1329 C1325 1.495 . S
C1329 H1335 0.959 . S
C1329 H1336 0.961 . S
C1329 H1337 0.960 . S
C1330 C1328 1.381 . S
C1330 C1331 1.394 . S
C1330 H1338 0.930 1_554 S
C1331 C1330 1.394 . S
C1331 C1332 1.383 . S
C1331 H1339 0.929 . S
C1332 C1331 1.383 . S
C1332 C1333 1.377 . S
C1333 H1317 0.930 . S
C1333 C1332 1.377 . S
C1333 C1334 1.379 . S
C1334 H1318 0.931 . S
C1334 C1328 1.383 . S
C1334 C1333 1.379 . S
H1335 C1329 0.959 . S
H1336 C1329 0.961 . S
H1337 C1329 0.960 . S
H1338 C1330 0.930 1_556 S
H1339 C1331 0.929 . S
H1340 C1348 0.929 . S
H1341 C1350 0.930 . S
H1342 C1352 0.930 . S
H1343 C1355 0.929 . S
H1344 C1358 0.930 . S
H1345 C1360 0.960 1_565 S
H1346 C1360 0.960 . S
H1347 C1360 0.960 . S
C1348 H1340 0.929 . S
C1348 C1349 1.377 . S
C1348 C1350 1.384 . S
C1349 C1348 1.377 . S
C1349 C1355 1.390 . S
C1350 H1341 0.930 . S
C1350 C1348 1.384 . S
C1350 C1351 1.372 . S
C1351 C1350 1.372 . S
C1351 C1352 1.400 . S
C1351 C1356 1.490 . S
C1352 H1342 0.930 . S
C1352 C1351 1.400 . S
C1352 C1355 1.386 . S
H1353 C1369 0.930 . S
H1354 C1370 0.931 . S
C1355 H1343 0.929 . S
C1355 C1349 1.390 . S
C1355 C1352 1.386 . S
C1356 C1351 1.490 . S
C1356 C1358 1.395 . S
C1356 C1359 1.403 . S
H1357 C1363 0.930 . S
C1358 H1344 0.930 . S
C1358 C1356 1.395 . S
C1358 C1361 1.403 1_545 S
C1359 C1356 1.403 . S
C1359 C1360 1.524 . S
C1359 C1363 1.400 1_545 S
C1360 H1345 0.960 1_545 S
C1360 H1346 0.960 . S
C1360 H1347 0.960 . S
C1360 C1359 1.524 . S
C1361 C1358 1.403 1_565 S
C1361 C1362 1.392 . S
C1361 C1365 1.495 . S
C1362 C1361 1.392 . S
C1362 C1363 1.385 . S
C1362 C1364 1.478 . S
C1363 H1357 0.930 . S
C1363 C1359 1.400 1_565 S
C1363 C1362 1.385 . S
C1364 C1362 1.478 . S
C1364 C1366 1.381 . S
C1364 C1370 1.383 . S
C1365 C1361 1.495 . S
C1365 H1371 0.959 1_565 S
C1365 H1372 0.961 . S
C1365 H1373 0.960 . S
C1366 C1364 1.381 . S
C1366 C1367 1.394 . S
C1366 H1374 0.930 . S
C1367 C1366 1.394 . S
C1367 C1368 1.383 . S
C1367 H1375 0.929 . S
C1368 C1367 1.383 . S
C1368 C1369 1.377 . S
C1369 H1353 0.930 . S
C1369 C1368 1.377 . S
C1369 C1370 1.379 . S
C1370 H1354 0.931 . S
C1370 C1364 1.383 . S
C1370 C1369 1.379 . S
H1371 C1365 0.959 1_545 S
H1372 C1365 0.961 . S
H1373 C1365 0.960 . S
H1374 C1366 0.930 . S
H1375 C1367 0.929 . S
H1376 C1384 0.929 . S
H1377 C1386 0.930 . S
H1378 C1388 0.930 . S
H1379 C1391 0.929 . S
H1380 C1394 0.930 . S
H1381 C1396 0.960 . S
H1382 C1396 0.960 . S
H1383 C1396 0.960 . S
C1384 H1376 0.929 . S
C1384 C1385 1.377 . S
C1384 C1386 1.384 . S
C1385 C1384 1.377 . S
C1385 C1391 1.390 . S
C1386 H1377 0.930 . S
C1386 C1384 1.384 . S
C1386 C1387 1.372 . S
C1387 C1386 1.372 . S
C1387 C1388 1.400 . S
C1387 C1392 1.490 . S
C1388 H1378 0.930 . S
C1388 C1387 1.400 . S
C1388 C1391 1.386 . S
H1389 C1405 0.930 . S
H1390 C1406 0.931 . S
C1391 H1379 0.929 . S
C1391 C1385 1.390 . S
C1391 C1388 1.386 . S
C1392 C1387 1.490 . S
C1392 C1394 1.395 1_556 S
C1392 C1395 1.403 . S
H1393 C1399 0.931 . S
C1394 H1380 0.930 . S
C1394 C1392 1.395 1_554 S
C1394 C1397 1.403 . S
C1395 C1392 1.403 . S
C1395 C1396 1.524 . S
C1395 C1399 1.400 1_556 S
C1396 H1381 0.960 . S
C1396 H1382 0.960 . S
C1396 H1383 0.960 . S
C1396 C1395 1.524 . S
C1397 C1394 1.403 . S
C1397 C1398 1.392 . S
C1397 C1401 1.495 . S
C1398 C1397 1.392 . S
C1398 C1399 1.385 . S
C1398 C1400 1.478 . S
C1399 H1393 0.931 . S
C1399 C1395 1.400 1_554 S
C1399 C1398 1.385 . S
C1400 C1398 1.478 . S
C1400 C1402 1.381 . S
C1400 C1406 1.383 . S
C1401 C1397 1.495 . S
C1401 H1407 0.959 . S
C1401 H1408 0.961 . S
C1401 H1409 0.960 . S
C1402 C1400 1.381 . S
C1402 C1403 1.394 . S
C1402 H1410 0.930 . S
C1403 C1402 1.394 . S
C1403 C1404 1.383 . S
C1403 H1411 0.929 . S
C1404 C1403 1.383 . S
C1404 C1405 1.377 . S
C1405 H1389 0.930 . S
C1405 C1404 1.377 . S
C1405 C1406 1.379 . S
C1406 H1390 0.931 . S
C1406 C1400 1.383 . S
C1406 C1405 1.379 . S
H1407 C1401 0.959 . S
H1408 C1401 0.961 . S
H1409 C1401 0.960 . S
H1410 C1402 0.930 . S
H1411 C1403 0.929 . S
H1412 C1420 0.929 . S
H1413 C1422 0.930 . S
H1414 C1424 0.930 . S
H1415 C1427 0.929 . S
H1416 C1430 0.930 . S
H1417 C1432 0.960 . S
H1418 C1432 0.960 . S
H1419 C1432 0.960 . S
C1420 H1412 0.929 . S
C1420 C1421 1.377 . S
C1420 C1422 1.384 . S
C1421 C1420 1.377 . S
C1421 C1427 1.390 . S
C1422 H1413 0.930 . S
C1422 C1420 1.384 . S
C1422 C1423 1.372 . S
C1423 C1422 1.372 . S
C1423 C1424 1.400 . S
C1423 C1428 1.490 . S
C1424 H1414 0.930 . S
C1424 C1423 1.400 . S
C1424 C1427 1.386 . S
H1425 C1441 0.930 . S
H1426 C1442 0.931 . S
C1427 H1415 0.929 . S
C1427 C1421 1.390 . S
C1427 C1424 1.386 . S
C1428 C1423 1.490 . S
C1428 C1430 1.395 . S
C1428 C1431 1.403 . S
H1429 C1435 0.930 . S
C1430 H1416 0.930 . S
C1430 C1428 1.395 . S
C1430 C1433 1.403 . S
C1431 C1428 1.403 . S
C1431 C1432 1.524 . S
C1431 C1435 1.400 . S
C1432 H1417 0.960 . S
C1432 H1418 0.960 . S
C1432 H1419 0.960 . S
C1432 C1431 1.524 . S
C1433 C1430 1.403 . S
C1433 C1434 1.392 . S
C1433 C1437 1.495 . S
C1434 C1433 1.392 . S
C1434 C1435 1.385 . S
C1434 C1436 1.478 . S
C1435 H1429 0.930 . S
C1435 C1431 1.400 . S
C1435 C1434 1.385 . S
C1436 C1434 1.478 . S
C1436 C1438 1.381 . S
C1436 C1442 1.383 . S
C1437 C1433 1.495 . S
C1437 H1443 0.959 . S
C1437 H1444 0.961 . S
C1437 H1445 0.960 . S
C1438 C1436 1.381 . S
C1438 C1439 1.394 . S
C1438 H1446 0.930 . S
C1439 C1438 1.394 . S
C1439 C1440 1.383 . S
C1439 H1447 0.929 . S
C1440 C1439 1.383 . S
C1440 C1441 1.377 . S
C1441 H1425 0.930 . S
C1441 C1440 1.377 . S
C1441 C1442 1.379 . S
C1442 H1426 0.931 . S
C1442 C1436 1.383 . S
C1442 C1441 1.379 . S
H1443 C1437 0.959 . S
H1444 C1437 0.961 . S
H1445 C1437 0.960 . S
H1446 C1438 0.930 . S
H1447 C1439 0.929 . S
H1448 C1456 0.929 . S
H1449 C1458 0.930 . S
H1450 C1460 0.930 . S
H1451 C1463 0.929 . S
H1452 C1466 0.930 . S
H1453 C1468 0.960 . S
H1454 C1468 0.960 . S
H1455 C1468 0.960 . S
C1456 H1448 0.929 . S
C1456 C1457 1.377 . S
C1456 C1458 1.384 . S
C1457 C1456 1.377 . S
C1457 C1463 1.390 . S
C1458 H1449 0.930 . S
C1458 C1456 1.384 . S
C1458 C1459 1.372 . S
C1459 C1458 1.372 . S
C1459 C1460 1.400 . S
C1459 C1464 1.490 . S
C1460 H1450 0.930 . S
C1460 C1459 1.400 . S
C1460 C1463 1.386 . S
H1461 C1477 0.930 . S
H1462 C1478 0.931 . S
C1463 H1451 0.929 . S
C1463 C1457 1.390 . S
C1463 C1460 1.386 . S
C1464 C1459 1.490 . S
C1464 C1466 1.395 . S
C1464 C1467 1.403 1_554 S
H1465 C1471 0.930 . S
C1466 H1452 0.930 . S
C1466 C1464 1.395 . S
C1466 C1469 1.403 . S
C1467 C1464 1.403 1_556 S
C1467 C1468 1.524 . S
C1467 C1471 1.400 . S
C1468 H1453 0.960 . S
C1468 H1454 0.960 . S
C1468 H1455 0.960 . S
C1468 C1467 1.524 . S
C1469 C1466 1.403 . S
C1469 C1470 1.392 1_554 S
C1469 C1473 1.495 . S
C1470 C1469 1.392 1_556 S
C1470 C1471 1.385 . S
C1470 C1472 1.478 . S
C1471 H1465 0.930 . S
C1471 C1467 1.400 . S
C1471 C1470 1.385 . S
C1472 C1470 1.478 . S
C1472 C1474 1.381 . S
C1472 C1478 1.383 . S
C1473 C1469 1.495 . S
C1473 H1479 0.959 . S
C1473 H1480 0.961 . S
C1473 H1481 0.960 . S
C1474 C1472 1.381 . S
C1474 C1475 1.394 . S
C1474 H1482 0.930 . S
C1475 C1474 1.394 . S
C1475 C1476 1.383 . S
C1475 H1483 0.929 . S
C1476 C1475 1.383 . S
C1476 C1477 1.377 . S
C1477 H1461 0.930 . S
C1477 C1476 1.377 . S
C1477 C1478 1.379 . S
C1478 H1462 0.931 . S
C1478 C1472 1.383 . S
C1478 C1477 1.379 . S
H1479 C1473 0.959 . S
H1480 C1473 0.961 . S
H1481 C1473 0.960 . S
H1482 C1474 0.930 . S
H1483 C1475 0.929 . S
H1484 C1492 0.929 . S
H1485 C1494 0.930 . S
H1486 C1496 0.930 . S
H1487 C1499 0.929 . S
H1488 C1502 0.930 . S
H1489 C1504 0.960 . S
H1490 C1504 0.960 . S
H1491 C1504 0.960 . S
C1492 H1484 0.929 . S
C1492 C1493 1.377 . S
C1492 C1494 1.384 . S
C1493 C1492 1.377 . S
C1493 C1499 1.390 . S
C1494 H1485 0.930 . S
C1494 C1492 1.384 . S
C1494 C1495 1.372 . S
C1495 C1494 1.372 . S
C1495 C1496 1.400 . S
C1495 C1500 1.490 . S
C1496 H1486 0.930 . S
C1496 C1495 1.400 . S
C1496 C1499 1.386 . S
H1497 C1513 0.930 . S
H1498 C1514 0.931 . S
C1499 H1487 0.929 . S
C1499 C1493 1.390 . S
C1499 C1496 1.386 . S
C1500 C1495 1.490 . S
C1500 C1502 1.395 . S
C1500 C1503 1.403 . S
H1501 C1507 0.930 . S
C1502 H1488 0.930 . S
C1502 C1500 1.395 . S
C1502 C1505 1.403 . S
C1503 C1500 1.403 . S
C1503 C1504 1.524 . S
C1503 C1507 1.400 . S
C1504 H1489 0.960 . S
C1504 H1490 0.960 . S
C1504 H1491 0.960 . S
C1504 C1503 1.524 . S
C1505 C1502 1.403 . S
C1505 C1506 1.392 . S
C1505 C1509 1.495 . S
C1506 C1505 1.392 . S
C1506 C1507 1.385 . S
C1506 C1508 1.478 . S
C1507 H1501 0.930 . S
C1507 C1503 1.400 . S
C1507 C1506 1.385 . S
C1508 C1506 1.478 . S
C1508 C1510 1.381 . S
C1508 C1514 1.383 . S
C1509 C1505 1.495 . S
C1509 H1515 0.959 . S
C1509 H1516 0.961 . S
C1509 H1517 0.960 . S
C1510 C1508 1.381 . S
C1510 C1511 1.394 . S
C1510 H1518 0.930 . S
C1511 C1510 1.394 . S
C1511 C1512 1.383 . S
C1511 H1519 0.929 . S
C1512 C1511 1.383 . S
C1512 C1513 1.377 . S
C1513 H1497 0.930 . S
C1513 C1512 1.377 . S
C1513 C1514 1.379 . S
C1514 H1498 0.931 . S
C1514 C1508 1.383 . S
C1514 C1513 1.379 . S
H1515 C1509 0.959 . S
H1516 C1509 0.961 . S
H1517 C1509 0.960 . S
H1518 C1510 0.930 . S
H1519 C1511 0.929 . S
H1520 C1528 0.929 . S
H1521 C1530 0.930 . S
H1522 C1532 0.930 . S
H1523 C1535 0.929 . S
H1524 C1538 0.930 . S
H1525 C1540 0.960 . S
H1526 C1540 0.960 . S
H1527 C1540 0.960 . S
C1528 H1520 0.929 . S
C1528 C1529 1.377 . S
C1528 C1530 1.384 . S
C1529 C1528 1.377 . S
C1529 C1535 1.390 . S
C1530 H1521 0.930 . S
C1530 C1528 1.384 . S
C1530 C1531 1.372 . S
C1531 C1530 1.372 . S
C1531 C1532 1.400 . S
C1531 C1536 1.490 . S
C1532 H1522 0.930 . S
C1532 C1531 1.400 . S
C1532 C1535 1.386 . S
H1533 C1549 0.930 . S
H1534 C1550 0.931 . S
C1535 H1523 0.929 . S
C1535 C1529 1.390 . S
C1535 C1532 1.386 . S
C1536 C1531 1.490 . S
C1536 C1538 1.395 . S
C1536 C1539 1.403 . S
H1537 C1543 0.930 . S
C1538 H1524 0.930 . S
C1538 C1536 1.395 . S
C1538 C1541 1.403 . S
C1539 C1536 1.403 . S
C1539 C1540 1.524 . S
C1539 C1543 1.400 . S
C1540 H1525 0.960 . S
C1540 H1526 0.960 . S
C1540 H1527 0.960 . S
C1540 C1539 1.524 . S
C1541 C1538 1.403 . S
C1541 C1542 1.392 . S
C1541 C1545 1.495 . S
C1542 C1541 1.392 . S
C1542 C1543 1.385 . S
C1542 C1544 1.478 . S
C1543 H1537 0.930 . S
C1543 C1539 1.400 . S
C1543 C1542 1.385 . S
C1544 C1542 1.478 . S
C1544 C1546 1.381 . S
C1544 C1550 1.383 . S
C1545 C1541 1.495 . S
C1545 H1551 0.959 . S
C1545 H1552 0.961 . S
C1545 H1553 0.960 . S
C1546 C1544 1.381 . S
C1546 C1547 1.394 . S
C1546 H1554 0.930 . S
C1547 C1546 1.394 . S
C1547 C1548 1.383 . S
C1547 H1555 0.929 . S
C1548 C1547 1.383 . S
C1548 C1549 1.377 . S
C1549 H1533 0.930 . S
C1549 C1548 1.377 . S
C1549 C1550 1.379 . S
C1550 H1534 0.931 . S
C1550 C1544 1.383 . S
C1550 C1549 1.379 . S
H1551 C1545 0.959 . S
H1552 C1545 0.961 . S
H1553 C1545 0.960 . S
H1554 C1546 0.930 . S
H1555 C1547 0.929 . S
H1556 C1564 0.929 . S
H1557 C1566 0.930 . S
H1558 C1568 0.930 . S
H1559 C1571 0.929 . S
H1560 C1574 0.930 . S
H1561 C1576 0.960 . S
H1562 C1576 0.960 . S
H1563 C1576 0.960 . S
C1564 H1556 0.929 . S
C1564 C1565 1.377 . S
C1564 C1566 1.384 . S
C1565 C1564 1.377 . S
C1565 C1571 1.390 . S
C1566 H1557 0.930 . S
C1566 C1564 1.384 . S
C1566 C1567 1.372 . S
C1567 C1566 1.372 . S
C1567 C1568 1.400 . S
C1567 C1572 1.490 . S
C1568 H1558 0.930 . S
C1568 C1567 1.400 . S
C1568 C1571 1.386 . S
H1569 C1585 0.930 . S
H1570 C1586 0.931 . S
C1571 H1559 0.929 . S
C1571 C1565 1.390 . S
C1571 C1568 1.386 . S
C1572 C1567 1.490 . S
C1572 C1574 1.395 . S
C1572 C1575 1.403 . S
H1573 C1579 0.930 . S
C1574 H1560 0.930 . S
C1574 C1572 1.395 . S
C1574 C1577 1.403 . S
C1575 C1572 1.403 . S
C1575 C1576 1.524 . S
C1575 C1579 1.400 . S
C1576 H1561 0.960 . S
C1576 H1562 0.960 . S
C1576 H1563 0.960 . S
C1576 C1575 1.524 . S
C1577 C1574 1.403 . S
C1577 C1578 1.392 . S
C1577 C1581 1.495 . S
C1578 C1577 1.392 . S
C1578 C1579 1.385 . S
C1578 C1580 1.478 1_655 S
C1579 H1573 0.930 . S
C1579 C1575 1.400 . S
C1579 C1578 1.385 . S
C1580 C1578 1.478 1_455 S
C1580 C1582 1.381 . S
C1580 C1586 1.383 . S
C1581 C1577 1.495 . S
C1581 H1587 0.959 . S
C1581 H1588 0.961 1_655 S
C1581 H1589 0.960 1_655 S
C1582 C1580 1.381 . S
C1582 C1583 1.394 . S
C1582 H1590 0.930 . S
C1583 C1582 1.394 . S
C1583 C1584 1.383 . S
C1583 H1591 0.929 . S
C1584 C1583 1.383 . S
C1584 C1585 1.377 . S
C1585 H1569 0.930 . S
C1585 C1584 1.377 . S
C1585 C1586 1.379 . S
C1586 H1570 0.931 . S
C1586 C1580 1.383 . S
C1586 C1585 1.379 . S
H1587 C1581 0.959 . S
H1588 C1581 0.961 1_455 S
H1589 C1581 0.960 1_455 S
H1590 C1582 0.930 . S
H1591 C1583 0.929 . S
H1592 C1600 0.929 . S
H1593 C1602 0.930 . S
H1594 C1604 0.930 . S
H1595 C1607 0.929 . S
H1596 C1610 0.930 . S
H1597 C1612 0.960 . S
H1598 C1612 0.960 . S
H1599 C1612 0.960 . S
C1600 H1592 0.929 . S
C1600 C1601 1.377 . S
C1600 C1602 1.384 . S
C1601 C1600 1.377 . S
C1601 C1607 1.390 . S
C1602 H1593 0.930 . S
C1602 C1600 1.384 . S
C1602 C1603 1.372 . S
C1603 C1602 1.372 . S
C1603 C1604 1.400 . S
C1603 C1608 1.490 . S
C1604 H1594 0.930 . S
C1604 C1603 1.400 . S
C1604 C1607 1.386 . S
H1605 C1621 0.930 . S
H1606 C1622 0.931 . S
C1607 H1595 0.929 . S
C1607 C1601 1.390 . S
C1607 C1604 1.386 . S
C1608 C1603 1.490 . S
C1608 C1610 1.395 . S
C1608 C1611 1.403 . S
H1609 C1615 0.930 . S
C1610 H1596 0.930 . S
C1610 C1608 1.395 . S
C1610 C1613 1.403 . S
C1611 C1608 1.403 . S
C1611 C1612 1.524 . S
C1611 C1615 1.400 . S
C1612 H1597 0.960 . S
C1612 H1598 0.960 . S
C1612 H1599 0.960 . S
C1612 C1611 1.524 . S
C1613 C1610 1.403 . S
C1613 C1614 1.392 . S
C1613 C1617 1.495 . S
C1614 C1613 1.392 . S
C1614 C1615 1.385 . S
C1614 C1616 1.478 . S
C1615 H1609 0.930 . S
C1615 C1611 1.400 . S
C1615 C1614 1.385 . S
C1616 C1614 1.478 . S
C1616 C1618 1.381 . S
C1616 C1622 1.383 . S
C1617 C1613 1.495 . S
C1617 H1623 0.959 . S
C1617 H1624 0.961 . S
C1617 H1625 0.960 . S
C1618 C1616 1.381 . S
C1618 C1619 1.394 . S
C1618 H1626 0.930 . S
C1619 C1618 1.394 . S
C1619 C1620 1.383 . S
C1619 H1627 0.929 . S
C1620 C1619 1.383 . S
C1620 C1621 1.377 . S
C1621 H1605 0.930 . S
C1621 C1620 1.377 . S
C1621 C1622 1.379 . S
C1622 H1606 0.931 . S
C1622 C1616 1.383 . S
C1622 C1621 1.379 . S
H1623 C1617 0.959 . S
H1624 C1617 0.961 . S
H1625 C1617 0.960 . S
H1626 C1618 0.930 . S
H1627 C1619 0.929 . S
H1628 C1636 0.929 . S
H1629 C1638 0.930 . S
H1630 C1640 0.930 . S
H1631 C1643 0.929 . S
H1632 C1646 0.930 . S
H1633 C1648 0.960 . S
H1634 C1648 0.944 1_455 S
H1635 C1648 0.960 1_455 S
C1636 H1628 0.929 . S
C1636 C1637 1.377 . S
C1636 C1638 1.384 . S
C1637 C1636 1.377 . S
C1637 C1643 1.390 . S
C1638 H1629 0.930 . S
C1638 C1636 1.384 . S
C1638 C1639 1.372 . S
C1639 C1638 1.372 . S
C1639 C1640 1.400 . S
C1639 C1644 1.490 1_455 S
C1640 H1630 0.930 . S
C1640 C1639 1.400 . S
C1640 C1643 1.386 . S
H1641 C1657 0.930 . S
H1642 C1658 0.931 . S
C1643 H1631 0.929 . S
C1643 C1637 1.390 . S
C1643 C1640 1.386 . S
C1644 C1639 1.490 1_655 S
C1644 C1646 1.395 . S
C1644 C1647 1.403 . S
H1645 C1651 0.930 . S
C1646 H1632 0.930 . S
C1646 C1644 1.395 . S
C1646 C1649 1.403 . S
C1647 C1644 1.403 . S
C1647 C1648 1.524 . S
C1647 C1651 1.400 . S
C1648 H1633 0.960 . S
C1648 H1634 0.944 1_655 S
C1648 H1635 0.960 1_655 S
C1648 C1647 1.524 . S
C1649 C1646 1.403 . S
C1649 C1650 1.392 . S
C1649 C1653 1.495 . S
C1650 C1649 1.392 . S
C1650 C1651 1.385 . S
C1650 C1652 1.478 . S
C1651 H1645 0.930 . S
C1651 C1647 1.400 . S
C1651 C1650 1.385 . S
C1652 C1650 1.478 . S
C1652 C1654 1.381 . S
C1652 C1658 1.383 . S
C1653 C1649 1.495 . S
C1653 H1659 0.959 . S
C1653 H1660 0.961 . S
C1653 H1661 0.960 . S
C1654 C1652 1.381 . S
C1654 C1655 1.394 . S
C1654 H1662 0.930 . S
C1655 C1654 1.394 . S
C1655 C1656 1.383 . S
C1655 H1663 0.929 . S
C1656 C1655 1.383 . S
C1656 C1657 1.377 . S
C1657 H1641 0.930 . S
C1657 C1656 1.377 . S
C1657 C1658 1.379 . S
C1658 H1642 0.931 . S
C1658 C1652 1.383 . S
C1658 C1657 1.379 . S
H1659 C1653 0.959 . S
H1660 C1653 0.961 . S
H1661 C1653 0.960 . S
H1662 C1654 0.930 . S
H1663 C1655 0.929 . S
H1664 C1672 0.929 . S
H1665 C1674 0.930 . S
H1666 C1676 0.930 . S
H1667 C1679 0.929 . S
H1668 C1682 0.930 . S
H1669 C1684 0.960 . S
H1670 C1684 0.960 . S
H1671 C1684 0.960 . S
C1672 H1664 0.929 . S
C1672 C1673 1.377 . S
C1672 C1674 1.384 . S
C1673 C1672 1.377 . S
C1673 C1679 1.390 . S
C1674 H1665 0.930 . S
C1674 C1672 1.384 . S
C1674 C1675 1.372 . S
C1675 C1674 1.372 . S
C1675 C1676 1.400 . S
C1675 C1680 1.490 . S
C1676 H1666 0.930 . S
C1676 C1675 1.400 . S
C1676 C1679 1.386 . S
H1677 C1693 0.930 . S
H1678 C1694 0.931 . S
C1679 H1667 0.929 . S
C1679 C1673 1.390 . S
C1679 C1676 1.386 . S
C1680 C1675 1.490 . S
C1680 C1682 1.395 . S
C1680 C1683 1.403 . S
H1681 C1687 0.930 . S
C1682 H1668 0.930 . S
C1682 C1680 1.395 . S
C1682 C1685 1.403 . S
C1683 C1680 1.403 . S
C1683 C1684 1.524 . S
C1683 C1687 1.400 . S
C1684 H1669 0.960 . S
C1684 H1670 0.960 . S
C1684 H1671 0.960 . S
C1684 C1683 1.524 . S
C1685 C1682 1.403 . S
C1685 C1686 1.392 . S
C1685 C1689 1.495 . S
C1686 C1685 1.392 . S
C1686 C1687 1.385 . S
C1686 C1688 1.478 1_455 S
C1687 H1681 0.930 . S
C1687 C1683 1.400 . S
C1687 C1686 1.385 . S
C1688 C1686 1.478 1_655 S
C1688 C1690 1.381 . S
C1688 C1694 1.383 . S
C1689 C1685 1.495 . S
C1689 H1695 0.959 . S
C1689 H1696 0.961 1_455 S
C1689 H1697 0.960 1_455 S
C1690 C1688 1.381 . S
C1690 C1691 1.394 . S
C1690 H1698 0.930 . S
C1691 C1690 1.394 . S
C1691 C1692 1.383 . S
C1691 H1699 0.929 . S
C1692 C1691 1.383 . S
C1692 C1693 1.377 . S
C1693 H1677 0.930 . S
C1693 C1692 1.377 . S
C1693 C1694 1.379 . S
C1694 H1678 0.931 . S
C1694 C1688 1.383 . S
C1694 C1693 1.379 . S
H1695 C1689 0.959 . S
H1696 C1689 0.961 1_655 S
H1697 C1689 0.960 1_655 S
H1698 C1690 0.930 . S
H1699 C1691 0.929 . S
H1700 C1708 0.929 . S
H1701 C1710 0.930 . S
H1702 C1712 0.930 . S
H1703 C1715 0.929 . S
H1704 C1718 0.930 . S
H1705 C1720 0.960 . S
H1706 C1720 0.960 . S
H1707 C1720 0.960 . S
C1708 H1700 0.929 . S
C1708 C1709 1.377 . S
C1708 C1710 1.384 . S
C1709 C1708 1.377 . S
C1709 C1715 1.390 . S
C1710 H1701 0.930 . S
C1710 C1708 1.384 . S
C1710 C1711 1.372 . S
C1711 C1710 1.372 . S
C1711 C1712 1.400 . S
C1711 C1716 1.490 . S
C1712 H1702 0.930 . S
C1712 C1711 1.400 . S
C1712 C1715 1.386 . S
H1713 C1729 0.930 . S
H1714 C1730 0.931 . S
C1715 H1703 0.929 . S
C1715 C1709 1.390 . S
C1715 C1712 1.386 . S
C1716 C1711 1.490 . S
C1716 C1718 1.395 . S
C1716 C1719 1.403 . S
H1717 C1723 0.930 . S
C1718 H1704 0.930 . S
C1718 C1716 1.395 . S
C1718 C1721 1.403 . S
C1719 C1716 1.403 . S
C1719 C1720 1.524 . S
C1719 C1723 1.400 . S
C1720 H1705 0.960 . S
C1720 H1706 0.960 . S
C1720 H1707 0.960 . S
C1720 C1719 1.524 . S
C1721 C1718 1.403 . S
C1721 C1722 1.392 . S
C1721 C1725 1.495 . S
C1722 C1721 1.392 . S
C1722 C1723 1.385 . S
C1722 C1724 1.478 . S
C1723 H1717 0.930 . S
C1723 C1719 1.400 . S
C1723 C1722 1.385 . S
C1724 C1722 1.478 . S
C1724 C1726 1.381 . S
C1724 C1730 1.383 . S
C1725 C1721 1.495 . S
C1725 H1731 0.959 . S
C1725 H1732 0.961 . S
C1725 H1733 0.960 . S
C1726 C1724 1.381 . S
C1726 C1727 1.394 . S
C1726 H1734 0.930 . S
C1727 C1726 1.394 . S
C1727 C1728 1.383 . S
C1727 H1735 0.929 . S
C1728 C1727 1.383 . S
C1728 C1729 1.377 . S
C1729 H1713 0.930 . S
C1729 C1728 1.377 . S
C1729 C1730 1.379 . S
C1730 H1714 0.931 . S
C1730 C1724 1.383 . S
C1730 C1729 1.379 . S
H1731 C1725 0.959 . S
H1732 C1725 0.961 . S
H1733 C1725 0.960 . S
H1734 C1726 0.930 . S
H1735 C1727 0.929 . S
H1736 C1744 0.929 . S
H1737 C1746 0.930 . S
H1738 C1748 0.930 . S
H1739 C1751 0.929 . S
H1740 C1754 0.930 . S
H1741 C1756 0.960 . S
H1742 C1756 0.960 . S
H1743 C1756 0.960 . S
C1744 H1736 0.929 . S
C1744 C1745 1.377 . S
C1744 C1746 1.384 . S
C1745 C1744 1.377 . S
C1745 C1751 1.390 . S
C1746 H1737 0.930 . S
C1746 C1744 1.384 . S
C1746 C1747 1.372 . S
C1747 C1746 1.372 . S
C1747 C1748 1.400 . S
C1747 C1752 1.490 . S
C1748 H1738 0.930 . S
C1748 C1747 1.400 . S
C1748 C1751 1.386 . S
H1749 C1765 0.930 . S
H1750 C1766 0.931 . S
C1751 H1739 0.929 . S
C1751 C1745 1.390 . S
C1751 C1748 1.386 . S
C1752 C1747 1.490 . S
C1752 C1754 1.395 . S
C1752 C1755 1.403 . S
H1753 C1759 0.930 . S
C1754 H1740 0.930 . S
C1754 C1752 1.395 . S
C1754 C1757 1.403 . S
C1755 C1752 1.403 . S
C1755 C1756 1.524 . S
C1755 C1759 1.400 . S
C1756 H1741 0.960 . S
C1756 H1742 0.960 . S
C1756 H1743 0.960 . S
C1756 C1755 1.524 . S
C1757 C1754 1.403 . S
C1757 C1758 1.392 . S
C1757 C1761 1.495 . S
C1758 C1757 1.392 . S
C1758 C1759 1.385 . S
C1758 C1760 1.478 1_455 S
C1759 H1753 0.930 . S
C1759 C1755 1.400 . S
C1759 C1758 1.385 . S
C1760 C1758 1.478 1_655 S
C1760 C1762 1.381 . S
C1760 C1766 1.383 . S
C1761 C1757 1.495 . S
C1761 H1767 0.959 . S
C1761 H1768 0.961 . S
C1761 H1769 0.960 1_455 S
C1762 C1760 1.381 . S
C1762 C1763 1.394 . S
C1762 H1770 0.930 . S
C1763 C1762 1.394 . S
C1763 C1764 1.383 . S
C1763 H1771 0.929 . S
C1764 C1763 1.383 . S
C1764 C1765 1.377 . S
C1765 H1749 0.930 . S
C1765 C1764 1.377 . S
C1765 C1766 1.379 . S
C1766 H1750 0.931 . S
C1766 C1760 1.383 . S
C1766 C1765 1.379 . S
H1767 C1761 0.959 . S
H1768 C1761 0.961 . S
H1769 C1761 0.960 1_655 S
H1770 C1762 0.930 . S
H1771 C1763 0.929 . S
H1772 C1780 0.929 . S
H1773 C1782 0.930 . S
H1774 C1784 0.930 . S
H1775 C1787 0.929 . S
H1776 C1790 0.930 . S
H1777 C1792 0.960 . S
H1778 C1792 0.960 . S
H1779 C1792 0.960 . S
C1780 H1772 0.929 . S
C1780 C1781 1.377 . S
C1780 C1782 1.384 . S
C1781 C1780 1.377 . S
C1781 C1787 1.390 . S
C1782 H1773 0.930 . S
C1782 C1780 1.384 . S
C1782 C1783 1.372 . S
C1783 C1782 1.372 . S
C1783 C1784 1.400 . S
C1783 C1788 1.490 . S
C1784 H1774 0.930 . S
C1784 C1783 1.400 . S
C1784 C1787 1.386 . S
H1785 C1801 0.930 . S
H1786 C1802 0.931 . S
C1787 H1775 0.929 . S
C1787 C1781 1.390 . S
C1787 C1784 1.386 . S
C1788 C1783 1.490 . S
C1788 C1790 1.395 . S
C1788 C1791 1.403 . S
H1789 C1795 0.930 . S
C1790 H1776 0.930 . S
C1790 C1788 1.395 . S
C1790 C1793 1.403 . S
C1791 C1788 1.403 . S
C1791 C1792 1.524 . S
C1791 C1795 1.400 . S
C1792 H1777 0.960 . S
C1792 H1778 0.960 . S
C1792 H1779 0.960 . S
C1792 C1791 1.524 . S
C1793 C1790 1.403 . S
C1793 C1794 1.392 . S
C1793 C1797 1.495 . S
C1794 C1793 1.392 . S
C1794 C1795 1.385 . S
C1794 C1796 1.478 . S
C1795 H1789 0.930 . S
C1795 C1791 1.400 . S
C1795 C1794 1.385 . S
C1796 C1794 1.478 . S
C1796 C1798 1.381 . S
C1796 C1802 1.383 . S
C1797 C1793 1.495 . S
C1797 H1803 0.959 . S
C1797 H1804 0.961 . S
C1797 H1805 0.960 . S
C1798 C1796 1.381 . S
C1798 C1799 1.394 . S
C1798 H1806 0.930 . S
C1799 C1798 1.394 . S
C1799 C1800 1.383 . S
C1799 H1807 0.929 . S
C1800 C1799 1.383 . S
C1800 C1801 1.377 . S
C1801 H1785 0.930 . S
C1801 C1800 1.377 . S
C1801 C1802 1.379 . S
C1802 H1786 0.931 . S
C1802 C1796 1.383 . S
C1802 C1801 1.379 . S
H1803 C1797 0.959 . S
H1804 C1797 0.961 . S
H1805 C1797 0.960 . S
H1806 C1798 0.930 . S
H1807 C1799 0.929 . S
H1808 C1816 0.929 . S
H1809 C1818 0.930 . S
H1810 C1820 0.930 . S
H1811 C1823 0.929 . S
H1812 C1826 0.930 . S
H1813 C1828 0.960 . S
H1814 C1828 0.960 . S
H1815 C1828 0.960 . S
C1816 H1808 0.929 . S
C1816 C1817 1.377 . S
C1816 C1818 1.384 . S
C1817 C1816 1.377 . S
C1817 C1823 1.390 . S
C1818 H1809 0.930 . S
C1818 C1816 1.384 . S
C1818 C1819 1.372 . S
C1819 C1818 1.372 . S
C1819 C1820 1.400 . S
C1819 C1824 1.490 . S
C1820 H1810 0.930 . S
C1820 C1819 1.400 . S
C1820 C1823 1.386 . S
H1821 C1837 0.930 . S
H1822 C1838 0.931 . S
C1823 H1811 0.929 . S
C1823 C1817 1.390 . S
C1823 C1820 1.386 . S
C1824 C1819 1.490 . S
C1824 C1826 1.395 . S
C1824 C1827 1.403 . S
H1825 C1831 0.930 . S
C1826 H1812 0.930 . S
C1826 C1824 1.395 . S
C1826 C1829 1.403 . S
C1827 C1824 1.403 . S
C1827 C1828 1.524 . S
C1827 C1831 1.400 . S
C1828 H1813 0.960 . S
C1828 H1814 0.960 . S
C1828 H1815 0.960 . S
C1828 C1827 1.524 . S
C1829 C1826 1.403 . S
C1829 C1830 1.392 . S
C1829 C1833 1.495 . S
C1830 C1829 1.392 . S
C1830 C1831 1.385 . S
C1830 C1832 1.478 . S
C1831 H1825 0.930 . S
C1831 C1827 1.400 . S
C1831 C1830 1.385 . S
C1832 C1830 1.478 . S
C1832 C1834 1.381 . S
C1832 C1838 1.383 . S
C1833 C1829 1.495 . S
C1833 H1839 0.959 . S
C1833 H1840 0.961 . S
C1833 H1841 0.960 . S
C1834 C1832 1.381 . S
C1834 C1835 1.394 . S
C1834 H1842 0.930 . S
C1835 C1834 1.394 . S
C1835 C1836 1.383 . S
C1835 H1843 0.929 . S
C1836 C1835 1.383 . S
C1836 C1837 1.377 . S
C1837 H1821 0.930 . S
C1837 C1836 1.377 . S
C1837 C1838 1.379 . S
C1838 H1822 0.931 . S
C1838 C1832 1.383 . S
C1838 C1837 1.379 . S
H1839 C1833 0.959 . S
H1840 C1833 0.961 . S
H1841 C1833 0.960 . S
H1842 C1834 0.930 . S
H1843 C1835 0.929 . S
H1844 C1852 0.929 . S
H1845 C1854 0.930 . S
H1846 C1856 0.930 . S
H1847 C1859 0.929 . S
H1848 C1862 0.930 . S
H1849 C1864 0.960 . S
H1850 C1864 0.960 . S
H1851 C1864 0.960 . S
C1852 H1844 0.929 . S
C1852 C1853 1.377 . S
C1852 C1854 1.384 . S
C1853 C1852 1.377 . S
C1853 C1859 1.390 . S
C1854 H1845 0.930 . S
C1854 C1852 1.384 . S
C1854 C1855 1.372 . S
C1855 C1854 1.372 . S
C1855 C1856 1.400 . S
C1855 C1860 1.490 . S
C1856 H1846 0.930 . S
C1856 C1855 1.400 . S
C1856 C1859 1.386 . S
H1857 C1873 0.930 . S
H1858 C1874 0.931 . S
C1859 H1847 0.929 . S
C1859 C1853 1.390 . S
C1859 C1856 1.386 . S
C1860 C1855 1.490 . S
C1860 C1862 1.395 . S
C1860 C1863 1.403 . S
H1861 C1867 0.930 . S
C1862 H1848 0.930 . S
C1862 C1860 1.395 . S
C1862 C1865 1.403 . S
C1863 C1860 1.403 . S
C1863 C1864 1.524 . S
C1863 C1867 1.400 . S
C1864 H1849 0.960 . S
C1864 H1850 0.960 . S
C1864 H1851 0.960 . S
C1864 C1863 1.524 . S
C1865 C1862 1.403 . S
C1865 C1866 1.392 . S
C1865 C1869 1.495 . S
C1866 C1865 1.392 . S
C1866 C1867 1.385 . S
C1866 C1868 1.478 . S
C1867 H1861 0.930 . S
C1867 C1863 1.400 . S
C1867 C1866 1.385 . S
C1868 C1866 1.478 . S
C1868 C1870 1.381 . S
C1868 C1874 1.383 . S
C1869 C1865 1.495 . S
C1869 H1875 0.959 . S
C1869 H1876 0.961 . S
C1869 H1877 0.960 . S
C1870 C1868 1.381 . S
C1870 C1871 1.394 . S
C1870 H1878 0.930 . S
C1871 C1870 1.394 . S
C1871 C1872 1.383 . S
C1871 H1879 0.929 . S
C1872 C1871 1.383 . S
C1872 C1873 1.377 . S
C1873 H1857 0.930 . S
C1873 C1872 1.377 . S
C1873 C1874 1.379 . S
C1874 H1858 0.931 . S
C1874 C1868 1.383 . S
C1874 C1873 1.379 . S
H1875 C1869 0.959 . S
H1876 C1869 0.961 . S
H1877 C1869 0.960 . S
H1878 C1870 0.930 . S
H1879 C1871 0.929 . S
H1880 C1888 0.929 . S
H1881 C1890 0.930 . S
H1882 C1892 0.930 . S
H1883 C1895 0.929 . S
H1884 C1898 0.930 . S
H1885 C1900 0.960 . S
H1886 C1900 0.960 . S
H1887 C1900 0.960 . S
C1888 H1880 0.929 . S
C1888 C1889 1.377 . S
C1888 C1890 1.384 . S
C1889 C1888 1.377 . S
C1889 C1895 1.390 . S
C1890 H1881 0.930 . S
C1890 C1888 1.384 . S
C1890 C1891 1.372 . S
C1891 C1890 1.372 . S
C1891 C1892 1.400 . S
C1891 C1896 1.490 . S
C1892 H1882 0.930 . S
C1892 C1891 1.400 . S
C1892 C1895 1.386 . S
H1893 C1909 0.930 . S
H1894 C1910 0.931 . S
C1895 H1883 0.929 . S
C1895 C1889 1.390 . S
C1895 C1892 1.386 . S
C1896 C1891 1.490 . S
C1896 C1898 1.395 . S
C1896 C1899 1.403 . S
H1897 C1903 0.930 . S
C1898 H1884 0.930 . S
C1898 C1896 1.395 . S
C1898 C1901 1.403 . S
C1899 C1896 1.403 . S
C1899 C1900 1.524 . S
C1899 C1903 1.400 . S
C1900 H1885 0.960 . S
C1900 H1886 0.960 . S
C1900 H1887 0.960 . S
C1900 C1899 1.524 . S
C1901 C1898 1.403 . S
C1901 C1902 1.392 . S
C1901 C1905 1.495 . S
C1902 C1901 1.392 . S
C1902 C1903 1.385 . S
C1902 C1904 1.478 . S
C1903 H1897 0.930 . S
C1903 C1899 1.400 . S
C1903 C1902 1.385 . S
C1904 C1902 1.478 . S
C1904 C1906 1.381 . S
C1904 C1910 1.383 . S
C1905 C1901 1.495 . S
C1905 H1911 0.959 . S
C1905 H1912 0.961 . S
C1905 H1913 0.960 . S
C1906 C1904 1.381 . S
C1906 C1907 1.394 . S
C1906 H1914 0.930 . S
C1907 C1906 1.394 . S
C1907 C1908 1.383 . S
C1907 H1915 0.929 . S
C1908 C1907 1.383 . S
C1908 C1909 1.377 . S
C1909 H1893 0.930 . S
C1909 C1908 1.377 . S
C1909 C1910 1.379 . S
C1910 H1894 0.931 . S
C1910 C1904 1.383 . S
C1910 C1909 1.379 . S
H1911 C1905 0.959 . S
H1912 C1905 0.961 . S
H1913 C1905 0.960 . S
H1914 C1906 0.930 . S
H1915 C1907 0.929 . S
H1916 C1924 0.929 . S
H1917 C1926 0.930 . S
H1918 C1928 0.930 . S
H1919 C1931 0.929 . S
H1920 C1934 0.930 . S
H1921 C1936 0.960 . S
H1922 C1936 0.960 . S
H1923 C1936 0.960 . S
C1924 H1916 0.929 . S
C1924 C1925 1.377 . S
C1924 C1926 1.384 . S
C1925 C1924 1.377 . S
C1925 C1931 1.390 . S
C1926 H1917 0.930 . S
C1926 C1924 1.384 . S
C1926 C1927 1.372 . S
C1927 C1926 1.372 . S
C1927 C1928 1.400 . S
C1927 C1932 1.490 . S
C1928 H1918 0.930 . S
C1928 C1927 1.400 . S
C1928 C1931 1.386 . S
H1929 C1945 0.930 . S
H1930 C1946 0.931 . S
C1931 H1919 0.929 . S
C1931 C1925 1.390 . S
C1931 C1928 1.386 . S
C1932 C1927 1.490 . S
C1932 C1934 1.395 . S
C1932 C1935 1.403 . S
H1933 C1939 0.930 . S
C1934 H1920 0.930 . S
C1934 C1932 1.395 . S
C1934 C1937 1.403 . S
C1935 C1932 1.403 . S
C1935 C1936 1.524 . S
C1935 C1939 1.400 . S
C1936 H1921 0.960 . S
C1936 H1922 0.960 . S
C1936 H1923 0.960 . S
C1936 C1935 1.524 . S
C1937 C1934 1.403 . S
C1937 C1938 1.392 . S
C1937 C1941 1.495 . S
C1938 C1937 1.392 . S
C1938 C1939 1.385 . S
C1938 C1940 1.478 . S
C1939 H1933 0.930 . S
C1939 C1935 1.400 . S
C1939 C1938 1.385 . S
C1940 C1938 1.478 . S
C1940 C1942 1.381 . S
C1940 C1946 1.383 . S
C1941 C1937 1.495 . S
C1941 H1947 0.959 . S
C1941 H1948 0.961 . S
C1941 H1949 0.960 . S
C1942 C1940 1.381 . S
C1942 C1943 1.394 . S
C1942 H1950 0.930 . S
C1943 C1942 1.394 . S
C1943 C1944 1.383 . S
C1943 H1951 0.929 . S
C1944 C1943 1.383 . S
C1944 C1945 1.377 . S
C1945 H1929 0.930 . S
C1945 C1944 1.377 . S
C1945 C1946 1.379 . S
C1946 H1930 0.931 . S
C1946 C1940 1.383 . S
C1946 C1945 1.379 . S
H1947 C1941 0.959 . S
H1948 C1941 0.961 . S
H1949 C1941 0.960 . S
H1950 C1942 0.930 . S
H1951 C1943 0.929 . S
H1952 C1960 0.929 . S
H1953 C1962 0.930 . S
H1954 C1964 0.930 . S
H1955 C1967 0.929 . S
H1956 C1970 0.930 . S
H1957 C1972 0.960 . S
H1958 C1972 0.960 . S
H1959 C1972 0.960 . S
C1960 H1952 0.929 . S
C1960 C1961 1.377 . S
C1960 C1962 1.384 . S
C1961 C1960 1.377 . S
C1961 C1967 1.390 . S
C1962 H1953 0.930 . S
C1962 C1960 1.384 . S
C1962 C1963 1.372 . S
C1963 C1962 1.372 . S
C1963 C1964 1.400 . S
C1963 C1968 1.490 . S
C1964 H1954 0.930 . S
C1964 C1963 1.400 . S
C1964 C1967 1.386 . S
H1965 C1981 0.930 . S
H1966 C1982 0.931 . S
C1967 H1955 0.929 . S
C1967 C1961 1.390 . S
C1967 C1964 1.386 . S
C1968 C1963 1.490 . S
C1968 C1970 1.395 . S
C1968 C1971 1.403 . S
H1969 C1975 0.930 . S
C1970 H1956 0.930 . S
C1970 C1968 1.395 . S
C1970 C1973 1.403 . S
C1971 C1968 1.403 . S
C1971 C1972 1.524 . S
C1971 C1975 1.400 . S
C1972 H1957 0.960 . S
C1972 H1958 0.960 . S
C1972 H1959 0.960 . S
C1972 C1971 1.524 . S
C1973 C1970 1.403 . S
C1973 C1974 1.392 . S
C1973 C1977 1.495 . S
C1974 C1973 1.392 . S
C1974 C1975 1.385 . S
C1974 C1976 1.478 . S
C1975 H1969 0.930 . S
C1975 C1971 1.400 . S
C1975 C1974 1.385 . S
C1976 C1974 1.478 . S
C1976 C1978 1.381 . S
C1976 C1982 1.383 . S
C1977 C1973 1.495 . S
C1977 H1983 0.959 . S
C1977 H1984 0.961 . S
C1977 H1985 0.960 . S
C1978 C1976 1.381 . S
C1978 C1979 1.394 . S
C1978 H1986 0.930 . S
C1979 C1978 1.394 . S
C1979 C1980 1.383 . S
C1979 H1987 0.929 . S
C1980 C1979 1.383 . S
C1980 C1981 1.377 . S
C1981 H1965 0.930 . S
C1981 C1980 1.377 . S
C1981 C1982 1.379 . S
C1982 H1966 0.931 . S
C1982 C1976 1.383 . S
C1982 C1981 1.379 . S
H1983 C1977 0.959 . S
H1984 C1977 0.961 . S
H1985 C1977 0.960 . S
H1986 C1978 0.930 . S
H1987 C1979 0.929 . S
H1988 C1996 0.929 . S
H1989 C1998 0.930 . S
H1990 C2000 0.930 . S
H1991 C2003 0.929 . S
H1992 C2006 0.930 . S
H1993 C2008 0.960 . S
H1994 C2008 0.960 . S
H1995 C2008 0.960 . S
C1996 H1988 0.929 . S
C1996 C1997 1.377 . S
C1996 C1998 1.384 . S
C1997 C1996 1.377 . S
C1997 C2003 1.390 . S
C1998 H1989 0.930 . S
C1998 C1996 1.384 . S
C1998 C1999 1.372 . S
C1999 C1998 1.372 . S
C1999 C2000 1.400 . S
C1999 C2004 1.490 . S
C2000 H1990 0.930 . S
C2000 C1999 1.400 . S
C2000 C2003 1.386 . S
H2001 C2017 0.930 . S
H2002 C2018 0.931 . S
C2003 H1991 0.929 . S
C2003 C1997 1.390 . S
C2003 C2000 1.386 . S
C2004 C1999 1.490 . S
C2004 C2006 1.395 . S
C2004 C2007 1.403 . S
H2005 C2011 0.930 . S
C2006 H1992 0.930 . S
C2006 C2004 1.395 . S
C2006 C2009 1.403 . S
C2007 C2004 1.403 . S
C2007 C2008 1.524 . S
C2007 C2011 1.400 . S
C2008 H1993 0.960 . S
C2008 H1994 0.960 . S
C2008 H1995 0.960 . S
C2008 C2007 1.524 . S
C2009 C2006 1.403 . S
C2009 C2010 1.392 . S
C2009 C2013 1.495 . S
C2010 C2009 1.392 . S
C2010 C2011 1.385 . S
C2010 C2012 1.478 . S
C2011 H2005 0.930 . S
C2011 C2007 1.400 . S
C2011 C2010 1.385 . S
C2012 C2010 1.478 . S
C2012 C2014 1.381 . S
C2012 C2018 1.383 . S
C2013 C2009 1.495 . S
C2013 H2019 0.959 . S
C2013 H2020 0.961 . S
C2013 H2021 0.960 . S
C2014 C2012 1.381 . S
C2014 C2015 1.394 . S
C2014 H2022 0.930 . S
C2015 C2014 1.394 . S
C2015 C2016 1.383 . S
C2015 H2023 0.929 . S
C2016 C2015 1.383 . S
C2016 C2017 1.377 . S
C2017 H2001 0.930 . S
C2017 C2016 1.377 . S
C2017 C2018 1.379 . S
C2018 H2002 0.931 . S
C2018 C2012 1.383 . S
C2018 C2017 1.379 . S
H2019 C2013 0.959 . S
H2020 C2013 0.961 . S
H2021 C2013 0.960 . S
H2022 C2014 0.930 . S
H2023 C2015 0.929 . S
H2024 C2032 0.929 . S
H2025 C2034 0.930 . S
H2026 C2036 0.930 . S
H2027 C2039 0.929 . S
H2028 C2042 0.930 . S
H2029 C2044 0.960 . S
H2030 C2044 0.960 . S
H2031 C2044 0.960 . S
C2032 H2024 0.929 . S
C2032 C2033 1.377 . S
C2032 C2034 1.384 . S
C2033 C2032 1.377 . S
C2033 C2039 1.390 . S
C2034 H2025 0.930 . S
C2034 C2032 1.384 . S
C2034 C2035 1.372 . S
C2035 C2034 1.372 . S
C2035 C2036 1.400 . S
C2035 C2040 1.490 . S
C2036 H2026 0.930 . S
C2036 C2035 1.400 . S
C2036 C2039 1.386 . S
H2037 C2053 0.930 . S
H2038 C2054 0.931 . S
C2039 H2027 0.929 . S
C2039 C2033 1.390 . S
C2039 C2036 1.386 . S
C2040 C2035 1.490 . S
C2040 C2042 1.395 . S
C2040 C2043 1.403 . S
H2041 C2047 0.930 . S
C2042 H2028 0.930 . S
C2042 C2040 1.395 . S
C2042 C2045 1.403 . S
C2043 C2040 1.403 . S
C2043 C2044 1.524 . S
C2043 C2047 1.400 . S
C2044 H2029 0.960 . S
C2044 H2030 0.960 . S
C2044 H2031 0.960 . S
C2044 C2043 1.524 . S
C2045 C2042 1.403 . S
C2045 C2046 1.392 . S
C2045 C2049 1.495 . S
C2046 C2045 1.392 . S
C2046 C2047 1.385 . S
C2046 C2048 1.478 . S
C2047 H2041 0.930 . S
C2047 C2043 1.400 . S
C2047 C2046 1.385 . S
C2048 C2046 1.478 . S
C2048 C2050 1.381 . S
C2048 C2054 1.383 . S
C2049 C2045 1.495 . S
C2049 H2055 0.959 . S
C2049 H2056 0.961 . S
C2049 H2057 0.960 . S
C2050 C2048 1.381 . S
C2050 C2051 1.394 . S
C2050 H2058 0.930 . S
C2051 C2050 1.394 . S
C2051 C2052 1.383 . S
C2051 H2059 0.929 . S
C2052 C2051 1.383 . S
C2052 C2053 1.377 . S
C2053 H2037 0.930 . S
C2053 C2052 1.377 . S
C2053 C2054 1.379 . S
C2054 H2038 0.931 . S
C2054 C2048 1.383 . S
C2054 C2053 1.379 . S
H2055 C2049 0.959 . S
H2056 C2049 0.961 . S
H2057 C2049 0.960 . S
H2058 C2050 0.930 . S
H2059 C2051 0.929 . S
H2060 C2068 0.929 . S
H2061 C2070 0.930 . S
H2062 C2072 0.930 . S
H2063 C2075 0.929 . S
H2064 C2078 0.930 . S
H2065 C2080 0.960 . S
H2066 C2080 0.960 . S
H2067 C2080 0.960 . S
C2068 H2060 0.929 . S
C2068 C2069 1.377 . S
C2068 C2070 1.384 . S
C2069 C2068 1.377 . S
C2069 C2075 1.390 . S
C2070 H2061 0.930 . S
C2070 C2068 1.384 . S
C2070 C2071 1.372 . S
C2071 C2070 1.372 . S
C2071 C2072 1.400 . S
C2071 C2076 1.490 . S
C2072 H2062 0.930 . S
C2072 C2071 1.400 . S
C2072 C2075 1.386 . S
H2073 C2089 0.930 . S
H2074 C2090 0.931 . S
C2075 H2063 0.929 . S
C2075 C2069 1.390 . S
C2075 C2072 1.386 . S
C2076 C2071 1.490 . S
C2076 C2078 1.395 . S
C2076 C2079 1.403 . S
H2077 C2083 0.930 . S
C2078 H2064 0.930 . S
C2078 C2076 1.395 . S
C2078 C2081 1.403 . S
C2079 C2076 1.403 . S
C2079 C2080 1.524 . S
C2079 C2083 1.400 . S
C2080 H2065 0.960 . S
C2080 H2066 0.960 . S
C2080 H2067 0.960 . S
C2080 C2079 1.524 . S
C2081 C2078 1.403 . S
C2081 C2082 1.392 . S
C2081 C2085 1.495 . S
C2082 C2081 1.392 . S
C2082 C2083 1.385 . S
C2082 C2084 1.478 . S
C2083 H2077 0.930 . S
C2083 C2079 1.400 . S
C2083 C2082 1.385 . S
C2084 C2082 1.478 . S
C2084 C2086 1.381 . S
C2084 C2090 1.383 . S
C2085 C2081 1.495 . S
C2085 H2091 0.959 . S
C2085 H2092 0.961 . S
C2085 H2093 0.960 . S
C2086 C2084 1.381 . S
C2086 C2087 1.394 . S
C2086 H2094 0.930 . S
C2087 C2086 1.394 . S
C2087 C2088 1.383 . S
C2087 H2095 0.929 . S
C2088 C2087 1.383 . S
C2088 C2089 1.377 . S
C2089 H2073 0.930 . S
C2089 C2088 1.377 . S
C2089 C2090 1.379 . S
C2090 H2074 0.931 . S
C2090 C2084 1.383 . S
C2090 C2089 1.379 . S
H2091 C2085 0.959 . S
H2092 C2085 0.961 . S
H2093 C2085 0.960 . S
H2094 C2086 0.930 . S
H2095 C2087 0.929 . S
C953 C3 1.636 . S
C972 C713 1.643 . S
C989 C772 1.637 . S
C1008 C62 1.630 . S
C1025 C121 1.636 . S
C1044 C831 1.642 . S
C1061 C890 1.637 . S
C1080 C180 1.633 . S
C1097 C475 1.636 . S
C1116 C241 1.642 . S
C1133 C300 1.638 . S
C1152 C534 1.633 . S
C1169 C593 1.632 . S
C1188 C359 1.625 . S
C1205 C418 1.636 . S
C1224 C652 1.621 . S
C1241 C33 1.789 . S
C1260 C151 1.785 . S
C1277 C92 1.795 . S
C1296 C210 1.801 . S
C1313 C269 1.566 . S
C1332 C387 1.558 . S
C1349 C328 1.569 . S
C1368 C446 1.554 . S
C1385 C623 1.791 . S
C1404 C505 1.797 . S
C1421 C564 1.790 . S
C1440 C682 1.795 . S
C1457 C859 1.572 . S
C1476 C741 1.582 . S
C1493 C800 1.566 . S
C1512 C918 1.564 . S
C1529 C406 1.674 . S
C1548 C52 1.672 . S
C1565 C465 1.676 . S
C1584 C111 1.669 . S
C1601 C170 1.679 . S
C1620 C288 1.679 . S
C1637 C229 1.683 . S
C1656 C347 1.662 . S
C1673 C878 1.673 . S
C1692 C524 1.677 . S
C1709 C583 1.682 . S
C1728 C937 1.660 . S
C1745 C760 1.677 . S
C1764 C642 1.677 . S
C1781 C701 1.683 . S
C1800 C819 1.661 . S
C1817 C5 1.939 . S
C1836 C182 1.939 . S
C1853 C123 1.939 . S
C1872 C64 1.939 . S
C1889 C239 1.191 . S
C1908 C416 1.204 . S
C1925 C298 1.189 . S
C1944 C357 1.203 . S
C1961 C654 1.939 . S
C1980 C477 1.939 . S
C1997 C536 1.938 . S
C2016 C595 1.933 . S
C2033 C888 1.192 . S
C2052 C711 1.201 . S
C2069 C770 1.191 . S
C2088 C829 1.204 . S
