# Generated by pormake.
# Topology gsi, (4)-cn, num edge types: 1
# Building blocks:
#     Node 0, Type 0, BuildingBlock: AZAVOO_clean_sbu_0, # of connection points: 4
#     Node 1, Type 0, BuildingBlock: AZAVOO_clean_sbu_0, # of connection points: 4
#     Node 2, Type 0, BuildingBlock: AZAVOO_clean_sbu_0, # of connection points: 4
#     Node 3, Type 0, BuildingBlock: AZAVOO_clean_sbu_0, # of connection points: 4
#     Node 4, Type 0, BuildingBlock: AZAVOO_clean_sbu_0, # of connection points: 4
#     Node 5, Type 0, BuildingBlock: AZAVOO_clean_sbu_0, # of connection points: 4
#     Node 6, Type 0, BuildingBlock: AZAVOO_clean_sbu_0, # of connection points: 4
#     Node 7, Type 0, BuildingBlock: AZAVOO_clean_sbu_0, # of connection points: 4
#     Node 8, Type 0, BuildingBlock: AZAVOO_clean_sbu_0, # of connection points: 4
#     Node 9, Type 0, BuildingBlock: AZAVOO_clean_sbu_0, # of connection points: 4
#     Node 10, Type 0, BuildingBlock: AZAVOO_clean_sbu_0, # of connection points: 4
#     Node 11, Type 0, BuildingBlock: AZAVOO_clean_sbu_0, # of connection points: 4
#     Node 12, Type 0, BuildingBlock: AZAVOO_clean_sbu_0, # of connection points: 4
#     Node 13, Type 0, BuildingBlock: AZAVOO_clean_sbu_0, # of connection points: 4
#     Node 14, Type 0, BuildingBlock: AZAVOO_clean_sbu_0, # of connection points: 4
#     Node 15, Type 0, BuildingBlock: AZAVOO_clean_sbu_0, # of connection points: 4
#     Edge 16, Type (0, 0), BuildingBlock: EZIPEK_clean_linker_0, # of connection points: 2
#     Edge 17, Type (0, 0), BuildingBlock: EZIPEK_clean_linker_0, # of connection points: 2
#     Edge 18, Type (0, 0), BuildingBlock: EZIPEK_clean_linker_0, # of connection points: 2
#     Edge 19, Type (0, 0), BuildingBlock: EZIPEK_clean_linker_0, # of connection points: 2
#     Edge 20, Type (0, 0), BuildingBlock: EZIPEK_clean_linker_0, # of connection points: 2
#     Edge 21, Type (0, 0), BuildingBlock: EZIPEK_clean_linker_0, # of connection points: 2
#     Edge 22, Type (0, 0), BuildingBlock: EZIPEK_clean_linker_0, # of connection points: 2
#     Edge 23, Type (0, 0), BuildingBlock: EZIPEK_clean_linker_0, # of connection points: 2
#     Edge 24, Type (0, 0), BuildingBlock: EZIPEK_clean_linker_0, # of connection points: 2
#     Edge 25, Type (0, 0), BuildingBlock: EZIPEK_clean_linker_0, # of connection points: 2
#     Edge 26, Type (0, 0), BuildingBlock: EZIPEK_clean_linker_0, # of connection points: 2
#     Edge 27, Type (0, 0), BuildingBlock: EZIPEK_clean_linker_0, # of connection points: 2
#     Edge 28, Type (0, 0), BuildingBlock: EZIPEK_clean_linker_0, # of connection points: 2
#     Edge 29, Type (0, 0), BuildingBlock: EZIPEK_clean_linker_0, # of connection points: 2
#     Edge 30, Type (0, 0), BuildingBlock: EZIPEK_clean_linker_0, # of connection points: 2
#     Edge 31, Type (0, 0), BuildingBlock: EZIPEK_clean_linker_0, # of connection points: 2
#     Edge 32, Type (0, 0), BuildingBlock: EZIPEK_clean_linker_0, # of connection points: 2
#     Edge 33, Type (0, 0), BuildingBlock: EZIPEK_clean_linker_0, # of connection points: 2
#     Edge 34, Type (0, 0), BuildingBlock: EZIPEK_clean_linker_0, # of connection points: 2
#     Edge 35, Type (0, 0), BuildingBlock: EZIPEK_clean_linker_0, # of connection points: 2
#     Edge 36, Type (0, 0), BuildingBlock: EZIPEK_clean_linker_0, # of connection points: 2
#     Edge 37, Type (0, 0), BuildingBlock: EZIPEK_clean_linker_0, # of connection points: 2
#     Edge 38, Type (0, 0), BuildingBlock: EZIPEK_clean_linker_0, # of connection points: 2
#     Edge 39, Type (0, 0), BuildingBlock: EZIPEK_clean_linker_0, # of connection points: 2
#     Edge 40, Type (0, 0), BuildingBlock: EZIPEK_clean_linker_0, # of connection points: 2
#     Edge 41, Type (0, 0), BuildingBlock: EZIPEK_clean_linker_0, # of connection points: 2
#     Edge 42, Type (0, 0), BuildingBlock: EZIPEK_clean_linker_0, # of connection points: 2
#     Edge 43, Type (0, 0), BuildingBlock: EZIPEK_clean_linker_0, # of connection points: 2
#     Edge 44, Type (0, 0), BuildingBlock: EZIPEK_clean_linker_0, # of connection points: 2
#     Edge 45, Type (0, 0), BuildingBlock: EZIPEK_clean_linker_0, # of connection points: 2
#     Edge 46, Type (0, 0), BuildingBlock: EZIPEK_clean_linker_0, # of connection points: 2
#     Edge 47, Type (0, 0), BuildingBlock: EZIPEK_clean_linker_0, # of connection points: 2
# Relax obj value: 0.014
# Max RMSD: 0.028
# Mean RMSD: 0.025
data_MOF--net-gsi--node1-AZAVOO_clean_sbu_0--edge1-EZIPEK_clean_linker_0
_symmetry_space_group_name_H-M    P1
_symmetry_Int_Tables_number       1
_symmetry_cell_setting            triclinic
loop_
_symmetry_equiv_pos_as_xyz
'x, y, z'
_cell_length_a     32.455051
_cell_length_b     31.680088
_cell_length_c     31.178201
_cell_angle_alpha  90.259434
_cell_angle_beta   89.932522
_cell_angle_gamma 90.025227
loop_
_atom_site_label
_atom_site_type_symbol
_atom_site_fract_x
_atom_site_fract_y
_atom_site_fract_z
_atom_type_partial_charge
Mg0 Mg 0.13254 0.13532 0.13367 0.0
O1 O 0.17164 0.17392 0.1811 0.0
O2 O 0.22684 0.1355 0.19861 0.0
Mg3 Mg 0.22168 0.07156 0.16473 0.0
C4 C 0.20553 0.16922 0.20119 0.0
C5 C 0.05648 0.18866 0.12242 0.0
O6 O 0.04156 0.151 0.1305 0.0
O7 O 0.17842 0.14767 0.08046 0.0
O8 O 0.22949 0.10392 0.09962 0.0
O9 O 0.09765 0.10356 0.18609 0.0
O10 O 0.15488 0.07869 0.15673 0.0
C11 C 0.21311 0.12995 0.07345 0.0
C12 C 0.12534 0.07424 0.18373 0.0
O13 O 0.09517 0.19369 0.11931 0.0
Mg14 Mg 0.85719 0.36709 0.14774 0.0
O15 O 0.81912 0.32433 0.19205 0.0
O16 O 0.761 0.3585 0.20891 0.0
Mg17 Mg 0.76222 0.42291 0.17619 0.0
C18 C 0.78445 0.32631 0.21131 0.0
C19 C 0.93742 0.32315 0.12793 0.0
O20 O 0.94808 0.3631 0.13025 0.0
O21 O 0.81503 0.35213 0.09205 0.0
O22 O 0.75986 0.39108 0.10997 0.0
O23 O 0.88709 0.39972 0.20295 0.0
O24 O 0.8296 0.42112 0.1716 0.0
C25 C 0.77934 0.36693 0.08395 0.0
C26 C 0.85729 0.42675 0.20042 0.0
O27 O 0.89991 0.31285 0.13273 0.0
Mg28 Mg 0.12194 0.85907 0.33053 0.0
O29 O 0.16208 0.81798 0.28593 0.0
O30 O 0.21922 0.85481 0.27126 0.0
Mg31 Mg 0.21434 0.91979 0.30298 0.0
C32 C 0.19725 0.82158 0.26791 0.0
C33 C 0.05163 0.8103 0.37174 0.0
O34 O 0.04866 0.84722 0.39081 0.0
O35 O 0.16469 0.84639 0.38645 0.0
O36 O 0.21716 0.8893 0.36929 0.0
O37 O 0.09039 0.89097 0.27588 0.0
O38 O 0.14733 0.91399 0.30716 0.0
C39 C 0.19912 0.86396 0.39502 0.0
C40 C 0.1192 0.91913 0.27882 0.0
O41 O 0.08086 0.80354 0.34549 0.0
Mg42 Mg 0.84517 0.63913 0.35365 0.0
O43 O 0.80772 0.67732 0.30474 0.0
O44 O 0.75166 0.63982 0.2875 0.0
Mg45 Mg 0.75497 0.57667 0.32225 0.0
C46 C 0.77384 0.6729 0.28442 0.0
C47 C 0.92032 0.68808 0.38185 0.0
O48 O 0.93017 0.64891 0.39086 0.0
O49 O 0.79895 0.65378 0.40616 0.0
O50 O 0.74737 0.61057 0.38682 0.0
O51 O 0.8803 0.60621 0.30227 0.0
O52 O 0.82186 0.58286 0.33029 0.0
C53 C 0.76389 0.63679 0.41295 0.0
C54 C 0.85163 0.57781 0.30357 0.0
O55 O 0.88451 0.69625 0.3678 0.0
Mg56 Mg 0.35058 0.86963 0.62305 0.0
O57 O 0.31378 0.83011 0.67174 0.0
O58 O 0.25714 0.86629 0.68972 0.0
Mg59 Mg 0.25945 0.93005 0.65587 0.0
C60 C 0.27986 0.83357 0.69225 0.0
C61 C 0.41076 0.79835 0.63811 0.0
O62 O 0.40548 0.81426 0.67669 0.0
O63 O 0.30425 0.85494 0.57088 0.0
O64 O 0.25179 0.89667 0.59098 0.0
O65 O 0.38549 0.90252 0.67461 0.0
O66 O 0.3265 0.92521 0.64757 0.0
C67 C 0.26875 0.87103 0.56453 0.0
C68 C 0.35626 0.93028 0.67423 0.0
O69 O 0.39019 0.81297 0.60694 0.0
Mg70 Mg 0.86 0.84747 0.85495 0.0
O71 O 0.81079 0.81017 0.81757 0.0
O72 O 0.75037 0.84349 0.82597 0.0
Mg73 Mg 0.76029 0.90074 0.87004 0.0
C74 C 0.77213 0.81344 0.81057 0.0
C75 C 0.92141 0.77502 0.83402 0.0
O76 O 0.89939 0.75728 0.86436 0.0
O77 O 0.86039 0.89977 0.8048 0.0
O78 O 0.8011 0.9331 0.81993 0.0
O79 O 0.84594 0.81114 0.91537 0.0
O80 O 0.81494 0.86983 0.89579 0.0
C81 C 0.83486 0.92991 0.79908 0.0
C82 C 0.8178 0.83926 0.92242 0.0
O83 O 0.91178 0.81166 0.821 0.0
Mg84 Mg 0.14979 0.64992 0.85683 0.0
O85 O 0.18767 0.6942 0.8136 0.0
O86 O 0.25177 0.66803 0.80968 0.0
Mg87 Mg 0.25554 0.60865 0.85133 0.0
C88 C 0.22476 0.69562 0.79977 0.0
C89 C 0.06948 0.68137 0.80321 0.0
O90 O 0.08282 0.65958 0.77006 0.0
O91 O 0.1468 0.60026 0.80344 0.0
O92 O 0.21068 0.57328 0.80688 0.0
O93 O 0.1682 0.68465 0.91689 0.0
O94 O 0.20312 0.63223 0.88798 0.0
C95 C 0.17403 0.57333 0.79195 0.0
C96 C 0.20003 0.66009 0.91784 0.0
O97 O 0.08992 0.68225 0.83791 0.0
Mg98 Mg 0.86192 0.15096 0.62822 0.0
O99 O 0.81694 0.19179 0.66744 0.0
O100 O 0.75479 0.16111 0.66407 0.0
Mg101 Mg 0.75904 0.10299 0.62011 0.0
C102 C 0.77876 0.19035 0.67736 0.0
C103 C 0.92225 0.22389 0.65022 0.0
O104 O 0.89417 0.24455 0.62846 0.0
O105 O 0.86209 0.09984 0.6797 0.0
O106 O 0.80077 0.06906 0.66808 0.0
O107 O 0.84708 0.18625 0.56736 0.0
O108 O 0.81388 0.13016 0.59063 0.0
C109 C 0.83556 0.07094 0.68711 0.0
C110 C 0.81745 0.15928 0.56246 0.0
O111 O 0.91705 0.18486 0.65775 0.0
Mg112 Mg 0.14646 0.3568 0.6133 0.0
O113 O 0.18352 0.3124 0.65695 0.0
O114 O 0.24824 0.33698 0.65984 0.0
Mg115 Mg 0.25291 0.39608 0.6179 0.0
C116 C 0.22068 0.31011 0.67028 0.0
C117 C 0.07196 0.31842 0.67026 0.0
O118 O 0.09225 0.33053 0.70459 0.0
O119 O 0.1443 0.40698 0.66622 0.0
O120 O 0.20877 0.43246 0.66238 0.0
O121 O 0.16429 0.32068 0.55387 0.0
O122 O 0.20006 0.37313 0.58159 0.0
C123 C 0.17215 0.43334 0.67744 0.0
C124 C 0.1966 0.34457 0.55245 0.0
O125 O 0.0864 0.32551 0.63312 0.0
Mg126 Mg 0.64529 0.14339 0.36646 0.0
O127 O 0.68608 0.18655 0.32503 0.0
O128 O 0.74891 0.1572 0.32228 0.0
Mg129 Mg 0.74919 0.09751 0.36352 0.0
C130 C 0.7235 0.18629 0.31218 0.0
C131 C 0.57125 0.18084 0.30827 0.0
O132 O 0.58882 0.16289 0.27489 0.0
O133 O 0.64153 0.09387 0.31286 0.0
O134 O 0.70419 0.06436 0.31757 0.0
O135 O 0.66386 0.17817 0.42623 0.0
O136 O 0.69711 0.12364 0.39902 0.0
C137 C 0.66795 0.06598 0.30171 0.0
C138 C 0.69497 0.15269 0.42781 0.0
O139 O 0.5873 0.17779 0.34526 0.0
Mg140 Mg 0.6229 0.63714 0.65173 0.0
O141 O 0.66221 0.68009 0.69523 0.0
O142 O 0.72171 0.64642 0.70714 0.0
Mg143 Mg 0.71966 0.58192 0.67427 0.0
C144 C 0.69808 0.67825 0.71191 0.0
C145 C 0.54206 0.67675 0.62887 0.0
O146 O 0.53618 0.63626 0.62186 0.0
O147 O 0.66256 0.65368 0.59425 0.0
O148 O 0.71804 0.61396 0.60867 0.0
O149 O 0.59552 0.60283 0.70711 0.0
O150 O 0.6524 0.58355 0.67306 0.0
C151 C 0.69773 0.63858 0.58413 0.0
C152 C 0.62571 0.57648 0.70254 0.0
O153 O 0.57748 0.68971 0.64013 0.0
Mg154 Mg 0.63782 0.36066 0.84855 0.0
O155 O 0.67682 0.32082 0.80201 0.0
O156 O 0.73354 0.35774 0.78623 0.0
Mg157 Mg 0.72984 0.4216 0.82049 0.0
C158 C 0.7113 0.32472 0.78273 0.0
C159 C 0.5592 0.31218 0.86075 0.0
O160 O 0.54681 0.3512 0.85501 0.0
O161 O 0.68146 0.34652 0.90318 0.0
O162 O 0.73397 0.38939 0.88603 0.0
O163 O 0.60558 0.39347 0.79525 0.0
O164 O 0.66273 0.41651 0.8262 0.0
C165 C 0.71615 0.36366 0.91155 0.0
C166 C 0.6341 0.42188 0.79839 0.0
O167 O 0.5975 0.30414 0.8618 0.0
Mg168 Mg 0.35674 0.13626 0.83663 0.0
O169 O 0.31563 0.17636 0.79252 0.0
O170 O 0.25846 0.13909 0.77902 0.0
Mg171 Mg 0.26456 0.07457 0.81081 0.0
C172 C 0.28023 0.17239 0.77506 0.0
C173 C 0.4349 0.1825 0.85533 0.0
O174 O 0.44587 0.14269 0.85239 0.0
O175 O 0.31491 0.14873 0.89345 0.0
O176 O 0.26221 0.10578 0.87716 0.0
O177 O 0.3878 0.10581 0.78092 0.0
O178 O 0.33178 0.08103 0.81273 0.0
C179 C 0.28059 0.13131 0.90262 0.0
C180 C 0.35928 0.07733 0.78329 0.0
O181 O 0.39723 0.19241 0.85117 0.0
Mg182 Mg 0.3594 0.34598 0.34828 0.0
O183 O 0.31355 0.30451 0.31093 0.0
O184 O 0.25132 0.33471 0.31622 0.0
Mg185 Mg 0.25644 0.3932 0.35958 0.0
C186 C 0.27507 0.30552 0.30238 0.0
C187 C 0.42135 0.27439 0.32791 0.0
O188 O 0.39568 0.25478 0.35361 0.0
O189 O 0.35775 0.39689 0.29659 0.0
O190 O 0.29661 0.42728 0.31021 0.0
O191 O 0.34636 0.31084 0.40967 0.0
O192 O 0.31239 0.36683 0.38737 0.0
C193 C 0.33085 0.42561 0.29006 0.0
C194 C 0.31678 0.33769 0.41537 0.0
O195 O 0.41392 0.31225 0.31712 0.0
Mg196 Mg 0.35906 0.65027 0.12445 0.0
O197 O 0.31093 0.68921 0.16177 0.0
O198 O 0.24965 0.65771 0.15287 0.0
Mg199 Mg 0.25785 0.60071 0.10804 0.0
C200 C 0.27215 0.68699 0.16864 0.0
C201 C 0.41858 0.72255 0.14987 0.0
O202 O 0.39266 0.74296 0.12519 0.0
O203 O 0.3571 0.59758 0.17412 0.0
O204 O 0.29707 0.56617 0.1579 0.0
O205 O 0.34729 0.68757 0.06429 0.0
O206 O 0.31377 0.62998 0.08306 0.0
C207 C 0.33068 0.56808 0.1791 0.0
C208 C 0.3183 0.66051 0.05662 0.0
O209 O 0.41195 0.68395 0.15838 0.0
Mg210 Mg 0.64355 0.85382 0.11729 0.0
O211 O 0.6813 0.80982 0.16075 0.0
O212 O 0.74526 0.83635 0.1651 0.0
Mg213 Mg 0.74896 0.89579 0.12362 0.0
C214 C 0.71827 0.80862 0.17482 0.0
C215 C 0.56813 0.81599 0.17324 0.0
O216 O 0.58667 0.83074 0.2076 0.0
O217 O 0.63983 0.903 0.171 0.0
O218 O 0.70367 0.93022 0.16846 0.0
O219 O 0.66265 0.81904 0.05748 0.0
O220 O 0.69712 0.8717 0.08648 0.0
C221 C 0.6669 0.92979 0.18315 0.0
C222 C 0.69459 0.84348 0.05689 0.0
O223 O 0.58394 0.82117 0.13636 0.0
C224 C 0.25614 0.22844 0.21007 0.0
C225 C 0.22222 0.20513 0.22638 0.0
C226 C 0.22499 0.2456 0.29354 0.0
C227 C 0.25698 0.27096 0.27613 0.0
N228 N 0.29824 0.29153 0.21532 0.0
N229 N 0.16955 0.19599 0.28013 0.0
C230 C 0.27141 0.26365 0.23373 0.0
C231 C 0.20507 0.21521 0.267 0.0
N232 N 0.2738 0.21691 0.17191 0.0
N233 N 0.21509 0.249 0.33608 0.0
H234 H 0.1546 0.17294 0.262 0.0
H235 H 0.15305 0.20534 0.30722 0.0
H236 H 0.22952 0.27016 0.35691 0.0
H237 H 0.19533 0.22823 0.35173 0.0
H238 H 0.30163 0.22913 0.16089 0.0
H239 H 0.2619 0.19319 0.15218 0.0
H240 H 0.30645 0.29071 0.18304 0.0
H241 H 0.30972 0.31792 0.2314 0.0
C242 C 0.73533 0.26588 0.22139 0.0
C243 C 0.76992 0.28933 0.23615 0.0
C244 C 0.77153 0.24747 0.30211 0.0
C245 C 0.73884 0.22211 0.28611 0.0
N246 N 0.69339 0.20279 0.22816 0.0
N247 N 0.82542 0.29816 0.28689 0.0
C248 C 0.72156 0.23025 0.24517 0.0
C249 C 0.78949 0.27868 0.27532 0.0
N250 N 0.71572 0.27758 0.18449 0.0
N251 N 0.78404 0.24321 0.34377 0.0
H252 H 0.83904 0.322 0.26888 0.0
H253 H 0.84359 0.28835 0.31248 0.0
H254 H 0.77121 0.2213 0.36478 0.0
H255 H 0.80435 0.26394 0.35884 0.0
H256 H 0.68736 0.26545 0.1749 0.0
H257 H 0.72677 0.30112 0.16422 0.0
H258 H 0.68296 0.20407 0.19665 0.0
H259 H 0.68264 0.1764 0.24457 0.0
C260 C 0.26394 0.72687 0.23808 0.0
C261 C 0.2521 0.72055 0.1947 0.0
C262 C 0.19965 0.77603 0.20189 0.0
C263 C 0.21442 0.78526 0.24367 0.0
N264 N 0.26243 0.7721 0.30109 0.0
N265 N 0.21347 0.74347 0.13289 0.0
C266 C 0.24718 0.76147 0.26161 0.0
C267 C 0.22103 0.74613 0.17598 0.0
N268 N 0.28981 0.69868 0.25735 0.0
N269 N 0.16508 0.79571 0.18699 0.0
H270 H 0.22889 0.72257 0.11255 0.0
H271 H 0.19464 0.76452 0.11648 0.0
H272 H 0.14917 0.81847 0.20466 0.0
H273 H 0.15016 0.78703 0.15875 0.0
H274 H 0.29618 0.69874 0.29006 0.0
H275 H 0.30232 0.67277 0.24127 0.0
H276 H 0.28947 0.75958 0.31367 0.0
H277 H 0.24927 0.79534 0.32056 0.0
C278 C 0.7509 0.74801 0.27458 0.0
C279 C 0.75926 0.70765 0.25654 0.0
C280 C 0.7351 0.73216 0.18636 0.0
C281 C 0.73071 0.77356 0.20338 0.0
N282 N 0.73776 0.82239 0.26256 0.0
N283 N 0.7654 0.66274 0.19415 0.0
C284 C 0.73978 0.78195 0.24716 0.0
C285 C 0.75278 0.70002 0.21215 0.0
N286 N 0.75152 0.75335 0.31814 0.0
N287 N 0.72224 0.72344 0.14554 0.0
H288 H 0.77871 0.63845 0.21179 0.0
H289 H 0.76604 0.65713 0.16123 0.0
H290 H 0.71066 0.74638 0.12504 0.0
H291 H 0.72006 0.69299 0.13305 0.0
H292 H 0.74136 0.78062 0.3336 0.0
H293 H 0.75873 0.72913 0.33937 0.0
H294 H 0.74883 0.83139 0.29256 0.0
H295 H 0.72719 0.8477 0.24435 0.0
C296 C 0.25884 0.75762 0.70122 0.0
C297 C 0.26583 0.7981 0.71966 0.0
C298 C 0.24087 0.77245 0.78923 0.0
C299 C 0.23746 0.73111 0.77177 0.0
N300 N 0.24669 0.6829 0.7124 0.0
N301 N 0.26986 0.8426 0.78253 0.0
C302 C 0.24771 0.72325 0.72816 0.0
C303 C 0.25836 0.80519 0.764 0.0
N304 N 0.26062 0.75254 0.65766 0.0
N305 N 0.22732 0.78053 0.82998 0.0
H306 H 0.28293 0.86735 0.76534 0.0
H307 H 0.26985 0.84794 0.8155 0.0
H308 H 0.21617 0.75716 0.85028 0.0
H309 H 0.22425 0.81082 0.84267 0.0
H310 H 0.25147 0.72512 0.64179 0.0
H311 H 0.2678 0.77703 0.63673 0.0
H312 H 0.25876 0.67429 0.68268 0.0
H313 H 0.23588 0.6573 0.73008 0.0
C314 C 0.69967 0.72414 0.77776 0.0
C315 C 0.71426 0.71525 0.73579 0.0
C316 C 0.76278 0.77458 0.74087 0.0
C317 C 0.75143 0.78039 0.78447 0.0
N318 N 0.71302 0.75746 0.8465 0.0
N319 N 0.76083 0.73007 0.67737 0.0
C320 C 0.72066 0.75453 0.80343 0.0
C321 C 0.7462 0.73993 0.71735 0.0
N322 N 0.66569 0.7036 0.79308 0.0
N323 N 0.78809 0.80329 0.72148 0.0
H324 H 0.74752 0.70701 0.6578 0.0
H325 H 0.78742 0.74317 0.66431 0.0
H326 H 0.8004 0.82925 0.73764 0.0
H327 H 0.79417 0.80361 0.68871 0.0
H328 H 0.6508 0.71189 0.82149 0.0
H329 H 0.65017 0.68039 0.77566 0.0
H330 H 0.69459 0.73622 0.8632 0.0
H331 H 0.7278 0.77909 0.86654 0.0
C332 C 0.76159 0.26552 0.77169 0.0
C333 C 0.72721 0.28895 0.75673 0.0
C334 C 0.72877 0.24984 0.68868 0.0
C335 C 0.76127 0.2244 0.70471 0.0
N336 N 0.80415 0.20304 0.76387 0.0
N337 N 0.67331 0.29868 0.70449 0.0
C338 C 0.77662 0.23099 0.74685 0.0
C339 C 0.70922 0.27951 0.71636 0.0
N340 N 0.77987 0.27626 0.80972 0.0
N341 N 0.71803 0.24725 0.64632 0.0
H342 H 0.65852 0.32124 0.72341 0.0
H343 H 0.65631 0.28969 0.67765 0.0
H344 H 0.73225 0.2267 0.62468 0.0
H345 H 0.69781 0.26817 0.63161 0.0
H346 H 0.80804 0.26412 0.81976 0.0
H347 H 0.76801 0.29916 0.83046 0.0
H348 H 0.8131 0.20321 0.79592 0.0
H349 H 0.8156 0.17722 0.74683 0.0
C350 C 0.24507 0.2823 0.74126 0.0
C351 C 0.2329 0.27441 0.6982 0.0
C352 C 0.25361 0.20025 0.70506 0.0
C353 C 0.26374 0.20753 0.74878 0.0
N354 N 0.2615 0.25302 0.81098 0.0
N355 N 0.21834 0.2245 0.64142 0.0
C356 C 0.25751 0.24795 0.76759 0.0
C357 C 0.23472 0.2329 0.68092 0.0
N358 N 0.24467 0.32265 0.75702 0.0
N359 N 0.26401 0.16283 0.68585 0.0
H360 H 0.2056 0.24762 0.62193 0.0
H361 H 0.21428 0.19408 0.62936 0.0
H362 H 0.278 0.13806 0.70214 0.0
H363 H 0.26214 0.15752 0.65293 0.0
H364 H 0.25801 0.33132 0.78611 0.0
H365 H 0.23284 0.34816 0.73996 0.0
H366 H 0.25317 0.28043 0.82736 0.0
H367 H 0.26971 0.22847 0.83143 0.0
C368 C 0.11537 0.99758 0.27632 0.0
C369 C 0.11796 0.9585 0.25392 0.0
C370 C 0.11846 0.99583 0.18561 0.0
C371 C 0.12149 0.03477 0.20823 0.0
N372 N 0.12848 0.07277 0.27498 0.0
N373 N 0.12726 0.91996 0.18781 0.0
C374 C 0.12131 0.03575 0.25359 0.0
C375 C 0.12079 0.95741 0.20867 0.0
N376 N 0.10572 0.99828 0.31904 0.0
N377 N 0.11174 0.99554 0.14231 0.0
H378 H 0.12894 0.89117 0.20373 0.0
H379 H 0.13432 0.91783 0.15527 0.0
H380 H 0.10869 0.02301 0.12428 0.0
H381 H 0.1051 0.96822 0.12494 0.0
H382 H 0.09929 0.02594 0.33594 0.0
H383 H 0.10001 0.97103 0.33674 0.0
H384 H 0.13336 0.07452 0.30795 0.0
H385 H 0.13312 0.10136 0.25931 0.0
C386 C 0.85157 0.46216 0.27203 0.0
C387 C 0.85667 0.46519 0.22711 0.0
C388 C 0.85559 0.54239 0.23175 0.0
C389 C 0.85392 0.53931 0.277 0.0
N390 N 0.85923 0.49664 0.34089 0.0
N391 N 0.87155 0.50743 0.16462 0.0
C392 C 0.85434 0.49929 0.29741 0.0
C393 C 0.8609 0.50511 0.20701 0.0
N394 N 0.84264 0.4241 0.29027 0.0
N395 N 0.85059 0.58066 0.21233 0.0
H396 H 0.87633 0.48085 0.14538 0.0
H397 H 0.87938 0.53554 0.14947 0.0
H398 H 0.84671 0.60875 0.22941 0.0
H399 H 0.84675 0.58413 0.17938 0.0
H400 H 0.8341 0.42071 0.32229 0.0
H401 H 0.84017 0.39631 0.27245 0.0
H402 H 0.86404 0.46826 0.35685 0.0
H403 H 0.86263 0.52302 0.3607 0.0
C404 C 0.26038 0.09437 0.96915 0.0
C405 C 0.26567 0.13308 0.94728 0.0
C406 C 0.24139 0.17136 0.01095 0.0
C407 C 0.23084 0.13218 0.02996 0.0
N408 N 0.21959 0.05702 0.02094 0.0
N409 N 0.25726 0.20869 0.94506 0.0
C410 C 0.23728 0.09382 0.00733 0.0
C411 C 0.25525 0.17185 0.96754 0.0
N412 N 0.27859 0.0582 0.95433 0.0
N413 N 0.23929 0.2077 0.03459 0.0
H414 H 0.26724 0.20998 0.91328 0.0
H415 H 0.24611 0.23732 0.95679 0.0
H416 H 0.2296 0.20822 0.06651 0.0
H417 H 0.25034 0.23662 0.02375 0.0
H418 H 0.27853 0.03011 0.97164 0.0
H419 H 0.29781 0.05741 0.92749 0.0
H420 H 0.22051 0.02922 0.00293 0.0
H421 H 0.19992 0.05526 0.04733 0.0
C422 C 0.75659 0.4024 0.01745 0.0
C423 C 0.76382 0.36418 0.03962 0.0
C424 C 0.74296 0.324 0.97584 0.0
C425 C 0.73135 0.36242 0.95603 0.0
N426 N 0.71575 0.43683 0.96368 0.0
N427 N 0.75926 0.28827 0.04253 0.0
C428 C 0.73478 0.40123 0.97852 0.0
C429 C 0.75581 0.32471 0.01956 0.0
N430 N 0.77214 0.4398 0.03246 0.0
N431 N 0.74282 0.28732 0.95265 0.0
H432 H 0.76842 0.28792 0.0746 0.0
H433 H 0.75 0.2589 0.0309 0.0
H434 H 0.73353 0.28597 0.92065 0.0
H435 H 0.7548 0.25903 0.96407 0.0
H436 H 0.77086 0.46772 0.01494 0.0
H437 H 0.7905 0.44212 0.05981 0.0
H438 H 0.71428 0.46478 0.9814 0.0
H439 H 0.6974 0.4372 0.93624 0.0
C440 C 0.24124 0.90495 0.49895 0.0
C441 C 0.25028 0.86728 0.52146 0.0
C442 C 0.22701 0.82553 0.45961 0.0
C443 C 0.21418 0.86339 0.43955 0.0
N444 N 0.19745 0.93752 0.44646 0.0
N445 N 0.24633 0.79139 0.52622 0.0
C446 C 0.21764 0.90259 0.46123 0.0
C447 C 0.24165 0.8273 0.50268 0.0
N448 N 0.25712 0.94288 0.51206 0.0
N449 N 0.22648 0.7884 0.43719 0.0
H450 H 0.25666 0.79177 0.55788 0.0
H451 H 0.23681 0.76173 0.51563 0.0
H452 H 0.21573 0.78621 0.40573 0.0
H453 H 0.2394 0.76055 0.44861 0.0
H454 H 0.25432 0.97038 0.49405 0.0
H455 H 0.27724 0.9461 0.53793 0.0
H456 H 0.19614 0.96579 0.46366 0.0
H457 H 0.17814 0.9369 0.41973 0.0
C458 C 0.72208 0.67927 0.51928 0.0
C459 C 0.71124 0.64061 0.53908 0.0
C460 C 0.73902 0.60105 0.47865 0.0
C461 C 0.74612 0.63936 0.45646 0.0
N462 N 0.73916 0.71506 0.45278 0.0
N463 N 0.69748 0.56591 0.53153 0.0
C464 C 0.73617 0.67869 0.47592 0.0
C465 C 0.71591 0.6019 0.5168 0.0
N466 N 0.72018 0.71607 0.54218 0.0
N467 N 0.75634 0.56403 0.46483 0.0
H468 H 0.67868 0.56536 0.5587 0.0
H469 H 0.69705 0.53781 0.51399 0.0
H470 H 0.77628 0.56204 0.43865 0.0
H471 H 0.75494 0.53622 0.48253 0.0
H472 H 0.73165 0.74465 0.53091 0.0
H473 H 0.70967 0.71735 0.5738 0.0
H474 H 0.72868 0.74418 0.46392 0.0
H475 H 0.74917 0.71548 0.42098 0.0
C476 C 0.97181 0.26413 0.08819 0.0
C477 C 0.96938 0.29021 0.12517 0.0
C478 C 0.02842 0.25384 0.157 0.0
C479 C 0.02846 0.22528 0.12178 0.0
N480 N -0.00088 0.20046 0.05526 0.0
N481 N 0.99075 0.30673 0.19743 0.0
C482 C -0.0002 0.22962 0.08774 0.0
C483 C -0.0033 0.28454 0.16015 0.0
N484 N 0.9483 0.27329 0.05306 0.0
N485 N 0.0584 0.25137 0.18771 0.0
H486 H 0.96756 0.32919 0.20135 0.0
H487 H 0.00644 0.30055 0.22581 0.0
H488 H 0.08055 0.22759 0.18851 0.0
H489 H 0.06311 0.27451 0.21102 0.0
H490 H 0.95157 0.25834 0.02346 0.0
H491 H 0.92742 0.29832 0.05241 0.0
H492 H 0.97592 0.19875 0.03229 0.0
H493 H 0.0208 0.1763 0.05244 0.0
C494 C 0.96456 0.7372 0.33957 0.0
C495 C 0.95294 0.72047 0.37996 0.0
C496 C 0.00823 0.76051 0.41493 0.0
C497 C 0.01745 0.77975 0.37506 0.0
N498 N -0.00168 0.79388 0.30164 0.0
N499 N 0.95914 0.72022 0.45697 0.0
C500 C 0.99388 0.77025 0.33798 0.0
C501 C 0.97351 0.73324 0.41797 0.0
N502 N 0.94909 0.72022 0.30251 0.0
N503 N 0.03346 0.76714 0.44939 0.0
H504 H 0.93381 0.7002 0.46025 0.0
H505 H 0.97007 0.73189 0.48608 0.0
H506 H 0.05909 0.78699 0.44827 0.0
H507 H 0.03097 0.75055 0.47803 0.0
H508 H 0.96011 0.72809 0.27218 0.0
H509 H 0.92812 0.69529 0.30192 0.0
H510 H 0.97873 0.79124 0.27532 0.0
H511 H 0.01888 0.81908 0.29926 0.0
C512 C 0.47295 0.69948 0.65631 0.0
C513 C 0.50682 0.70618 0.62825 0.0
C514 C 0.4771 0.77336 0.60531 0.0
C515 C 0.44204 0.76524 0.63131 0.0
N516 N 0.4021 0.71658 0.67358 0.0
N517 N 0.53715 0.74445 0.56945 0.0
C518 C 0.43856 0.72698 0.65431 0.0
C519 C 0.50768 0.74162 0.60068 0.0
N520 N 0.47455 0.66844 0.68661 0.0
N521 N 0.48238 0.81209 0.58692 0.0
H522 H 0.55989 0.72158 0.56497 0.0
H523 H 0.53675 0.76731 0.54555 0.0
H524 H 0.46101 0.8365 0.58977 0.0
H525 H 0.50956 0.82128 0.57182 0.0
H526 H 0.45267 0.66523 0.71085 0.0
H527 H 0.49968 0.64831 0.6903 0.0
H528 H 0.39643 0.68713 0.68711 0.0
H529 H 0.37606 0.73586 0.67229 0.0
C530 C 0.84757 0.04176 0.76079 0.0
C531 C 0.84613 0.03561 0.71581 0.0
C532 C 0.84599 0.95881 0.72505 0.0
C533 C 0.84563 0.96499 0.77007 0.0
N534 N 0.85834 0.01046 0.83076 0.0
N535 N 0.8561 0.98983 0.6548 0.0
C536 C 0.85049 0.00599 0.78791 0.0
C537 C 0.84939 0.9945 0.69786 0.0
N538 N 0.84395 0.0815 0.77758 0.0
N539 N 0.84086 0.91921 0.70834 0.0
H540 H 0.85919 0.01556 0.63423 0.0
H541 H 0.86248 0.96098 0.64014 0.0
H542 H 0.83968 0.89226 0.72732 0.0
H543 H 0.8356 0.91319 0.67595 0.0
H544 H 0.83957 0.0877 0.81008 0.0
H545 H 0.84316 0.10844 0.75855 0.0
H546 H 0.86586 0.03912 0.84521 0.0
H547 H 0.8612 0.98466 0.85126 0.0
C548 C 0.15847 0.49724 0.77968 0.0
C549 C 0.16269 0.53848 0.76261 0.0
C550 C 0.15866 0.50985 0.68974 0.0
C551 C 0.16172 0.4685 0.70679 0.0
N552 N 0.16412 0.42169 0.76733 0.0
N553 N 0.16633 0.58521 0.70208 0.0
C554 C 0.16074 0.46177 0.75165 0.0
C555 C 0.16189 0.54523 0.71776 0.0
N556 N 0.15215 0.49227 0.82272 0.0
N557 N 0.1525 0.51499 0.6467 0.0
H558 H 0.16727 0.61186 0.72185 0.0
H559 H 0.17106 0.59196 0.66981 0.0
H560 H 0.14985 0.4895 0.62555 0.0
H561 H 0.14644 0.54399 0.63249 0.0
H562 H 0.14526 0.46345 0.83694 0.0
H563 H 0.15022 0.51781 0.84389 0.0
H564 H 0.16869 0.41484 0.79959 0.0
H565 H 0.16438 0.39502 0.74758 0.0
C566 C 0.74469 0.87834 0.00717 0.0
C567 C 0.72677 0.84056 0.02294 0.0
C568 C 0.76766 0.80021 0.97061 0.0
C569 C 0.78922 0.83761 0.9595 0.0
N570 N 0.8063 0.90966 0.97834 0.0
N571 N 0.72905 0.76413 0.02568 0.0
C572 C 0.78034 0.87582 0.98138 0.0
C573 C 0.74049 0.80096 0.00649 0.0
N574 N 0.72647 0.91665 0.01424 0.0
N575 N 0.77127 0.76458 0.94607 0.0
H576 H 0.71056 0.76301 0.05289 0.0
H577 H 0.74159 0.73497 0.01722 0.0
H578 H 0.78955 0.76286 0.91864 0.0
H579 H 0.75274 0.73807 0.95049 0.0
H580 H 0.73716 0.94439 0.00019 0.0
H581 H 0.69783 0.92009 0.02899 0.0
H582 H 0.80243 0.937 -0.00335 0.0
H583 H 0.83421 0.90843 0.96172 0.0
C584 C 0.24496 0.70117 0.97017 0.0
C585 C 0.23106 0.66202 0.95285 0.0
C586 C 0.28214 0.62519 -0.00386 0.0
C587 C 0.29103 0.66304 0.01865 0.0
N588 N 0.27443 0.73639 0.03198 0.0
N589 N 0.22872 0.58587 0.96078 0.0
C590 C 0.27081 0.70103 0.00703 0.0
C591 C 0.2475 0.6237 0.96893 0.0
N592 N 0.23495 0.73837 0.95089 0.0
N593 N 0.30718 0.59074 -8e-05 0.0
H594 H 0.20062 0.58319 0.94485 0.0
H595 H 0.23822 0.55777 0.97498 0.0
H596 H 0.33442 0.59117 0.01766 0.0
H597 H 0.30341 0.56362 0.98123 0.0
H598 H 0.2477 0.76722 0.96009 0.0
H599 H 0.21752 0.74 0.92299 0.0
H600 H 0.25676 0.7634 0.02709 0.0
H601 H 0.2918 0.73742 0.06004 0.0
C602 C 0.74302 0.11841 0.4798 0.0
C603 C 0.72705 0.15596 0.46159 0.0
C604 C 0.76928 0.1975 0.51156 0.0
C605 C 0.78883 0.15988 0.52544 0.0
N606 N 0.80288 0.08612 0.51111 0.0
N607 N 0.7336 0.23163 0.45314 0.0
C608 C 0.77843 0.12083 0.50587 0.0
C609 C 0.74263 0.19576 0.47535 0.0
N610 N 0.72332 0.0806 0.47446 0.0
N611 N 0.77434 0.23439 0.53375 0.0
H612 H 0.71624 0.23158 0.42505 0.0
H613 H 0.74735 0.26065 0.45991 0.0
H614 H 0.79216 0.23682 0.56142 0.0
H615 H 0.75739 0.26152 0.52709 0.0
H616 H 0.73248 0.05327 0.49034 0.0
H617 H 0.69502 0.07754 0.45901 0.0
H618 H 0.79792 0.05794 0.49446 0.0
H619 H 0.83078 0.08707 0.52766 0.0
C620 C 0.24513 0.37849 0.50058 0.0
C621 C 0.22796 0.34098 0.5178 0.0
C622 C 0.26815 0.29955 0.46575 0.0
C623 C 0.28897 0.33685 0.45302 0.0
N624 N 0.30553 0.40968 0.46894 0.0
N625 N 0.23066 0.2647 0.52251 0.0
C626 C 0.28012 0.37562 0.47386 0.0
C627 C 0.24159 0.30106 0.50211 0.0
N628 N 0.22676 0.4168 0.50722 0.0
N629 N 0.27199 0.26324 0.4423 0.0
H630 H 0.2126 0.26429 0.55006 0.0
H631 H 0.24315 0.23537 0.51462 0.0
H632 H 0.29013 0.26099 0.41479 0.0
H633 H 0.25395 0.23658 0.44781 0.0
H634 H 0.23674 0.44427 0.49212 0.0
H635 H 0.19857 0.42037 0.52285 0.0
H636 H 0.30184 0.43753 0.4865 0.0
H637 H 0.33292 0.40834 0.45144 0.0
C638 C 0.99226 0.68675 0.7975 0.0
C639 C 0.03125 0.70673 0.80084 0.0
C640 C -0.00183 0.77313 0.82178 0.0
C641 C 0.95897 0.75344 0.8179 0.0
N642 N 0.91825 0.69541 0.79111 0.0
N643 N 0.07073 0.771 0.80336 0.0
C644 C 0.9559 0.71143 0.80218 0.0
C645 C 0.03391 0.75071 0.80864 0.0
N646 N 0.98989 0.64396 0.79229 0.0
N647 N 0.00185 0.81189 0.84087 0.0
H648 H 0.09738 0.75534 0.79333 0.0
H649 H 0.07382 0.80372 0.80453 0.0
H650 H 0.9769 0.82916 0.85249 0.0
H651 H 0.03013 0.82536 0.84883 0.0
H652 H 0.96248 0.62705 0.79491 0.0
H653 H 0.01575 0.62485 0.7882 0.0
H654 H 0.91439 0.66643 0.77574 0.0
H655 H 0.89115 0.713 0.79344 0.0
C656 C 0.03663 0.25016 0.65619 0.0
C657 C 0.0349 0.29143 0.67371 0.0
C658 C 0.96073 0.28312 0.68593 0.0
C659 C 0.96151 0.24509 0.66162 0.0
N660 N 1e-05 0.19525 0.61819 0.0
N661 N -0.00459 0.34878 0.70377 0.0
C662 C -0.00053 0.22896 0.64575 0.0
C663 C -0.00295 0.30823 0.68874 0.0
N664 N 0.07396 0.23115 0.64977 0.0
N665 N 0.92551 0.29472 0.70697 0.0
H666 H 0.02153 0.3677 0.7071 0.0
H667 H 0.96796 0.36454 0.7104 0.0
H668 H 0.89863 0.27664 0.70609 0.0
H669 H 0.92404 0.31996 0.72843 0.0
H670 H 0.07709 0.19953 0.64102 0.0
H671 H 0.10181 0.24575 0.65762 0.0
H672 H 0.02644 0.18536 0.60204 0.0
H673 H 0.97356 0.17952 0.60799 0.0
C674 C 0.49541 0.18818 0.2931 0.0
C675 C 0.53378 0.20701 0.30355 0.0
C676 C 0.49891 0.27186 0.32618 0.0
C677 C 0.46038 0.25342 0.31516 0.0
N678 N 0.42283 0.19879 0.27795 0.0
N679 N 0.5731 0.27 0.31747 0.0
C680 C 0.45894 0.21303 0.2953 0.0
C681 C 0.53579 0.25003 0.31584 0.0
N682 N 0.49347 0.14613 0.28334 0.0
N683 N 0.50047 0.30861 0.34931 0.0
H684 H 0.60065 0.25481 0.30958 0.0
H685 H 0.57624 0.30242 0.32216 0.0
H686 H 0.47442 0.32522 0.35916 0.0
H687 H 0.52762 0.32069 0.36226 0.0
H688 H 0.46589 0.12953 0.28056 0.0
H689 H 0.51955 0.12706 0.28078 0.0
H690 H 0.42064 0.17136 0.25956 0.0
H691 H 0.39578 0.21659 0.27842 0.0
C692 C 0.6311 0.53865 0.77257 0.0
C693 C 0.62765 0.53715 0.72738 0.0
C694 C 0.63261 0.46004 0.72838 0.0
C695 C 0.63209 0.46135 0.77372 0.0
N696 N 0.62241 0.5012 0.83935 0.0
N697 N 0.61651 0.49647 0.66257 0.0
C698 C 0.62908 0.50047 0.79602 0.0
C699 C 0.62606 0.49785 0.70528 0.0
N700 N 0.63768 0.57633 0.79296 0.0
N701 N 0.64078 0.423 0.70741 0.0
H702 H 0.61033 0.52334 0.6445 0.0
H703 H 0.61072 0.46847 0.64599 0.0
H704 H 0.6462 0.39478 0.72347 0.0
H705 H 0.64598 0.42108 0.67448 0.0
H706 H 0.64497 0.57879 0.8254 0.0
H707 H 0.63955 0.60492 0.77665 0.0
H708 H 0.61567 0.52869 0.8564 0.0
H709 H 0.61957 0.47397 0.85778 0.0
C710 C 0.3631 0.99928 0.77363 0.0
C711 C 0.35955 0.03997 0.75503 0.0
C712 C 0.35887 0.00854 0.68334 0.0
C713 C 0.35772 0.96781 0.7022 0.0
N714 N 0.35314 0.92397 0.76505 0.0
N715 N 0.34896 0.08377 0.69298 0.0
C716 C 0.35837 0.963 0.74731 0.0
C717 C 0.35612 0.04479 0.71006 0.0
N718 N 0.37287 0.9953 0.8161 0.0
N719 N 0.36448 0.01262 0.64005 0.0
H720 H 0.34743 0.11121 0.71151 0.0
H721 H 0.34126 0.08855 0.66095 0.0
H722 H 0.36753 0.98689 0.61932 0.0
H723 H 0.37001 0.04142 0.62513 0.0
H724 H 0.3802 0.96658 0.83031 0.0
H725 H 0.37764 0.02108 0.83641 0.0
H726 H 0.34846 0.91918 0.79772 0.0
H727 H 0.35001 0.89651 0.74678 0.0
C728 C 0.47158 0.2401 0.89503 0.0
C729 C 0.46678 0.21556 0.85725 0.0
C730 C 0.52559 0.25113 0.82391 0.0
C731 C 0.52868 0.2777 0.86056 0.0
N732 N 0.50305 0.30101 0.92933 0.0
N733 N 0.48406 0.20152 0.78329 0.0
C734 C 0.50112 0.27327 0.89564 0.0
C735 C 0.49256 0.22188 0.82108 0.0
N736 N 0.44891 0.23064 0.93074 0.0
N737 N 0.55407 0.25401 0.79164 0.0
H738 H 0.45985 0.18013 0.77974 0.0
H739 H 0.49863 0.20828 0.75437 0.0
H740 H 0.57703 0.27701 0.7907 0.0
H741 H 0.55666 0.232 0.76689 0.0
H742 H 0.45392 0.24419 0.96075 0.0
H743 H 0.4267 0.20683 0.93119 0.0
H744 H 0.48091 0.30277 0.95344 0.0
H745 H 0.52584 0.32409 0.9321 0.0
C746 C 0.34098 0.53807 0.25276 0.0
C747 C 0.34018 0.53232 0.2077 0.0
C748 C 0.34089 0.45541 0.2163 0.0
C749 C 0.34059 0.46119 0.26134 0.0
N750 N 0.35211 0.50643 0.32249 0.0
N751 N 0.35117 0.48705 0.1464 0.0
C752 C 0.34454 0.50213 0.27956 0.0
C753 C 0.344 0.49136 0.18942 0.0
N754 N 0.33608 0.57751 0.26996 0.0
N755 N 0.33608 0.4159 0.19927 0.0
H756 H 0.35421 0.51291 0.12601 0.0
H757 H 0.35801 0.45834 0.13165 0.0
H758 H 0.33491 0.38881 0.21808 0.0
H759 H 0.33091 0.41011 0.16682 0.0
H760 H 0.33124 0.58317 0.3025 0.0
H761 H 0.33435 0.60464 0.25129 0.0
H762 H 0.3591 0.53513 0.33716 0.0
H763 H 0.35532 0.48056 0.34283 0.0
C764 C 0.65316 0.99004 0.28747 0.0
C765 C 0.65607 0.03187 0.27161 0.0
C766 C 0.65071 0.00526 0.19801 0.0
C767 C 0.65547 0.96359 0.21369 0.0
N768 N 0.65984 0.91501 0.27261 0.0
N769 N 0.65631 0.08043 0.21244 0.0
C770 C 0.65551 0.9555 0.2583 0.0
C771 C 0.65362 0.0399 0.22702 0.0
N772 N 0.64787 0.98367 0.33047 0.0
N773 N 0.64336 0.01141 0.15532 0.0
H774 H 0.6569 0.10645 0.233 0.0
H775 H 0.6598 0.08831 0.18028 0.0
H776 H 0.64096 0.98642 0.13353 0.0
H777 H 0.63609 0.04057 0.14211 0.0
H778 H 0.64204 0.95428 0.34398 0.0
H779 H 0.64566 0.00856 0.3524 0.0
H780 H 0.66526 0.90723 0.3045 0.0
H781 H 0.65979 0.88897 0.25201 0.0
C782 C 0.5329 0.74729 0.16143 0.0
C783 C 0.53081 0.78938 0.17669 0.0
C784 C 0.45609 0.78231 0.18559 0.0
C785 C 0.45755 0.74326 0.16311 0.0
N786 N 0.49752 0.69091 0.1244 0.0
N787 N 0.49058 0.84843 0.20193 0.0
C788 C 0.49604 0.72594 0.15016 0.0
C789 C 0.4925 0.80719 0.18903 0.0
N790 N 0.57029 0.7277 0.15788 0.0
N791 N 0.42005 0.7952 0.2042 0.0
H792 H 0.51667 0.86731 0.20558 0.0
H793 H 0.46301 0.86468 0.2064 0.0
H794 H 0.39306 0.77734 0.20274 0.0
H795 H 0.41786 0.82139 0.22438 0.0
H796 H 0.5735 0.69567 0.15092 0.0
H797 H 0.59787 0.74248 0.16638 0.0
H798 H 0.52458 0.68 0.11018 0.0
H799 H 0.47145 0.67487 0.11368 0.0
loop_
_geom_bond_atom_site_label_1
_geom_bond_atom_site_label_2
_geom_bond_distance
_geom_bond_site_symmetry_2
_ccdc_geom_bond_type
Mg0 O1 2.028 . S
Mg0 O7 1.986 . S
Mg0 O9 2.114 . S
Mg0 O10 2.251 . S
Mg0 O13 2.010 . S
O1 Mg0 2.028 . S
O1 C4 1.250 . S
O2 Mg3 2.028 . S
O2 C4 1.248 . S
Mg3 O2 2.028 . S
Mg3 O8 2.032 . S
Mg3 O10 2.079 . S
C4 O1 1.250 . S
C4 O2 1.248 . S
C5 O6 1.264 . S
C5 O13 1.249 . S
O6 C5 1.264 . S
O7 Mg0 1.986 . S
O7 C11 1.246 . S
O8 Mg3 2.032 . S
O8 C11 1.259 . S
O9 Mg0 2.114 . S
O9 C12 1.252 . S
O10 Mg0 2.251 . S
O10 Mg3 2.079 . S
O10 C12 1.273 . S
C11 O7 1.246 . S
C11 O8 1.259 . S
C12 O9 1.252 . S
C12 O10 1.273 . S
O13 Mg0 2.010 . S
O13 C5 1.249 . S
Mg14 O15 2.028 . S
Mg14 O21 1.986 . S
Mg14 O23 2.114 . S
Mg14 O24 2.251 . S
Mg14 O27 2.010 . S
O15 Mg14 2.028 . S
O15 C18 1.250 . S
O16 Mg17 2.028 . S
O16 C18 1.248 . S
Mg17 O16 2.028 . S
Mg17 O22 2.032 . S
Mg17 O24 2.079 . S
C18 O15 1.250 . S
C18 O16 1.248 . S
C19 O20 1.264 . S
C19 O27 1.249 . S
O20 C19 1.264 . S
O21 Mg14 1.986 . S
O21 C25 1.246 . S
O22 Mg17 2.032 . S
O22 C25 1.259 . S
O23 Mg14 2.114 . S
O23 C26 1.252 . S
O24 Mg14 2.251 . S
O24 Mg17 2.079 . S
O24 C26 1.273 . S
C25 O21 1.246 . S
C25 O22 1.259 . S
C26 O23 1.252 . S
C26 O24 1.273 . S
O27 Mg14 2.010 . S
O27 C19 1.249 . S
Mg28 O29 2.028 . S
Mg28 O35 1.986 . S
Mg28 O37 2.114 . S
Mg28 O38 2.251 . S
Mg28 O41 2.010 . S
O29 Mg28 2.028 . S
O29 C32 1.250 . S
O30 Mg31 2.028 . S
O30 C32 1.248 . S
Mg31 O30 2.028 . S
Mg31 O36 2.032 . S
Mg31 O38 2.079 . S
C32 O29 1.250 . S
C32 O30 1.248 . S
C33 O34 1.264 . S
C33 O41 1.249 . S
O34 C33 1.264 . S
O35 Mg28 1.986 . S
O35 C39 1.246 . S
O36 Mg31 2.032 . S
O36 C39 1.259 . S
O37 Mg28 2.114 . S
O37 C40 1.252 . S
O38 Mg28 2.251 . S
O38 Mg31 2.079 . S
O38 C40 1.273 . S
C39 O35 1.246 . S
C39 O36 1.259 . S
C40 O37 1.252 . S
C40 O38 1.273 . S
O41 Mg28 2.010 . S
O41 C33 1.249 . S
Mg42 O43 2.028 . S
Mg42 O49 1.986 . S
Mg42 O51 2.114 . S
Mg42 O52 2.251 . S
Mg42 O55 2.010 . S
O43 Mg42 2.028 . S
O43 C46 1.250 . S
O44 Mg45 2.028 . S
O44 C46 1.248 . S
Mg45 O44 2.028 . S
Mg45 O50 2.032 . S
Mg45 O52 2.079 . S
C46 O43 1.250 . S
C46 O44 1.248 . S
C47 O48 1.264 . S
C47 O55 1.249 . S
O48 C47 1.264 . S
O49 Mg42 1.986 . S
O49 C53 1.246 . S
O50 Mg45 2.032 . S
O50 C53 1.259 . S
O51 Mg42 2.114 . S
O51 C54 1.252 . S
O52 Mg42 2.251 . S
O52 Mg45 2.079 . S
O52 C54 1.273 . S
C53 O49 1.246 . S
C53 O50 1.259 . S
C54 O51 1.252 . S
C54 O52 1.273 . S
O55 Mg42 2.010 . S
O55 C47 1.249 . S
Mg56 O57 2.028 . S
Mg56 O63 1.986 . S
Mg56 O65 2.114 . S
Mg56 O66 2.251 . S
Mg56 O69 2.010 . S
O57 Mg56 2.028 . S
O57 C60 1.250 . S
O58 Mg59 2.028 . S
O58 C60 1.248 . S
Mg59 O58 2.028 . S
Mg59 O64 2.032 . S
Mg59 O66 2.079 . S
C60 O57 1.250 . S
C60 O58 1.248 . S
C61 O62 1.264 . S
C61 O69 1.249 . S
O62 C61 1.264 . S
O63 Mg56 1.986 . S
O63 C67 1.246 . S
O64 Mg59 2.032 . S
O64 C67 1.259 . S
O65 Mg56 2.114 . S
O65 C68 1.252 . S
O66 Mg56 2.251 . S
O66 Mg59 2.079 . S
O66 C68 1.273 . S
C67 O63 1.246 . S
C67 O64 1.259 . S
C68 O65 1.252 . S
C68 O66 1.273 . S
O69 Mg56 2.010 . S
O69 C61 1.249 . S
Mg70 O71 2.028 . S
Mg70 O77 1.986 . S
Mg70 O79 2.114 . S
Mg70 O80 2.251 . S
Mg70 O83 2.010 . S
O71 Mg70 2.028 . S
O71 C74 1.250 . S
O72 Mg73 2.028 . S
O72 C74 1.248 . S
Mg73 O72 2.028 . S
Mg73 O78 2.032 . S
Mg73 O80 2.079 . S
C74 O71 1.250 . S
C74 O72 1.248 . S
C75 O76 1.264 . S
C75 O83 1.249 . S
O76 C75 1.264 . S
O77 Mg70 1.986 . S
O77 C81 1.246 . S
O78 Mg73 2.032 . S
O78 C81 1.259 . S
O79 Mg70 2.114 . S
O79 C82 1.252 . S
O80 Mg70 2.251 . S
O80 Mg73 2.079 . S
O80 C82 1.273 . S
C81 O77 1.246 . S
C81 O78 1.259 . S
C82 O79 1.252 . S
C82 O80 1.273 . S
O83 Mg70 2.010 . S
O83 C75 1.249 . S
Mg84 O85 2.028 . S
Mg84 O91 1.986 . S
Mg84 O93 2.114 . S
Mg84 O94 2.251 . S
Mg84 O97 2.010 . S
O85 Mg84 2.028 . S
O85 C88 1.250 . S
O86 Mg87 2.028 . S
O86 C88 1.248 . S
Mg87 O86 2.028 . S
Mg87 O92 2.032 . S
Mg87 O94 2.079 . S
C88 O85 1.250 . S
C88 O86 1.248 . S
C89 O90 1.264 . S
C89 O97 1.249 . S
O90 C89 1.264 . S
O91 Mg84 1.986 . S
O91 C95 1.246 . S
O92 Mg87 2.032 . S
O92 C95 1.259 . S
O93 Mg84 2.114 . S
O93 C96 1.252 . S
O94 Mg84 2.251 . S
O94 Mg87 2.079 . S
O94 C96 1.273 . S
C95 O91 1.246 . S
C95 O92 1.259 . S
C96 O93 1.252 . S
C96 O94 1.273 . S
O97 Mg84 2.010 . S
O97 C89 1.249 . S
Mg98 O99 2.028 . S
Mg98 O105 1.986 . S
Mg98 O107 2.114 . S
Mg98 O108 2.251 . S
Mg98 O111 2.010 . S
O99 Mg98 2.028 . S
O99 C102 1.250 . S
O100 Mg101 2.028 . S
O100 C102 1.248 . S
Mg101 O100 2.028 . S
Mg101 O106 2.032 . S
Mg101 O108 2.079 . S
C102 O99 1.250 . S
C102 O100 1.248 . S
C103 O104 1.264 . S
C103 O111 1.249 . S
O104 C103 1.264 . S
O105 Mg98 1.986 . S
O105 C109 1.246 . S
O106 Mg101 2.032 . S
O106 C109 1.259 . S
O107 Mg98 2.114 . S
O107 C110 1.252 . S
O108 Mg98 2.251 . S
O108 Mg101 2.079 . S
O108 C110 1.273 . S
C109 O105 1.246 . S
C109 O106 1.259 . S
C110 O107 1.252 . S
C110 O108 1.273 . S
O111 Mg98 2.010 . S
O111 C103 1.249 . S
Mg112 O113 2.028 . S
Mg112 O119 1.986 . S
Mg112 O121 2.114 . S
Mg112 O122 2.251 . S
Mg112 O125 2.010 . S
O113 Mg112 2.028 . S
O113 C116 1.250 . S
O114 Mg115 2.028 . S
O114 C116 1.248 . S
Mg115 O114 2.028 . S
Mg115 O120 2.032 . S
Mg115 O122 2.079 . S
C116 O113 1.250 . S
C116 O114 1.248 . S
C117 O118 1.264 . S
C117 O125 1.249 . S
O118 C117 1.264 . S
O119 Mg112 1.986 . S
O119 C123 1.246 . S
O120 Mg115 2.032 . S
O120 C123 1.259 . S
O121 Mg112 2.114 . S
O121 C124 1.252 . S
O122 Mg112 2.251 . S
O122 Mg115 2.079 . S
O122 C124 1.273 . S
C123 O119 1.246 . S
C123 O120 1.259 . S
C124 O121 1.252 . S
C124 O122 1.273 . S
O125 Mg112 2.010 . S
O125 C117 1.249 . S
Mg126 O127 2.028 . S
Mg126 O133 1.986 . S
Mg126 O135 2.114 . S
Mg126 O136 2.251 . S
Mg126 O139 2.010 . S
O127 Mg126 2.028 . S
O127 C130 1.250 . S
O128 Mg129 2.028 . S
O128 C130 1.248 . S
Mg129 O128 2.028 . S
Mg129 O134 2.032 . S
Mg129 O136 2.079 . S
C130 O127 1.250 . S
C130 O128 1.248 . S
C131 O132 1.264 . S
C131 O139 1.249 . S
O132 C131 1.264 . S
O133 Mg126 1.986 . S
O133 C137 1.246 . S
O134 Mg129 2.032 . S
O134 C137 1.259 . S
O135 Mg126 2.114 . S
O135 C138 1.252 . S
O136 Mg126 2.251 . S
O136 Mg129 2.079 . S
O136 C138 1.273 . S
C137 O133 1.246 . S
C137 O134 1.259 . S
C138 O135 1.252 . S
C138 O136 1.273 . S
O139 Mg126 2.010 . S
O139 C131 1.249 . S
Mg140 O141 2.028 . S
Mg140 O147 1.986 . S
Mg140 O149 2.114 . S
Mg140 O150 2.251 . S
Mg140 O153 2.010 . S
O141 Mg140 2.028 . S
O141 C144 1.250 . S
O142 Mg143 2.028 . S
O142 C144 1.248 . S
Mg143 O142 2.028 . S
Mg143 O148 2.032 . S
Mg143 O150 2.079 . S
C144 O141 1.250 . S
C144 O142 1.248 . S
C145 O146 1.264 . S
C145 O153 1.249 . S
O146 C145 1.264 . S
O147 Mg140 1.986 . S
O147 C151 1.246 . S
O148 Mg143 2.032 . S
O148 C151 1.259 . S
O149 Mg140 2.114 . S
O149 C152 1.252 . S
O150 Mg140 2.251 . S
O150 Mg143 2.079 . S
O150 C152 1.273 . S
C151 O147 1.246 . S
C151 O148 1.259 . S
C152 O149 1.252 . S
C152 O150 1.273 . S
O153 Mg140 2.010 . S
O153 C145 1.249 . S
Mg154 O155 2.028 . S
Mg154 O161 1.986 . S
Mg154 O163 2.114 . S
Mg154 O164 2.251 . S
Mg154 O167 2.010 . S
O155 Mg154 2.028 . S
O155 C158 1.250 . S
O156 Mg157 2.028 . S
O156 C158 1.248 . S
Mg157 O156 2.028 . S
Mg157 O162 2.032 . S
Mg157 O164 2.079 . S
C158 O155 1.250 . S
C158 O156 1.248 . S
C159 O160 1.264 . S
C159 O167 1.249 . S
O160 C159 1.264 . S
O161 Mg154 1.986 . S
O161 C165 1.246 . S
O162 Mg157 2.032 . S
O162 C165 1.259 . S
O163 Mg154 2.114 . S
O163 C166 1.252 . S
O164 Mg154 2.251 . S
O164 Mg157 2.079 . S
O164 C166 1.273 . S
C165 O161 1.246 . S
C165 O162 1.259 . S
C166 O163 1.252 . S
C166 O164 1.273 . S
O167 Mg154 2.010 . S
O167 C159 1.249 . S
Mg168 O169 2.028 . S
Mg168 O175 1.986 . S
Mg168 O177 2.114 . S
Mg168 O178 2.251 . S
Mg168 O181 2.010 . S
O169 Mg168 2.028 . S
O169 C172 1.250 . S
O170 Mg171 2.028 . S
O170 C172 1.248 . S
Mg171 O170 2.028 . S
Mg171 O176 2.032 . S
Mg171 O178 2.079 . S
C172 O169 1.250 . S
C172 O170 1.248 . S
C173 O174 1.264 . S
C173 O181 1.249 . S
O174 C173 1.264 . S
O175 Mg168 1.986 . S
O175 C179 1.246 . S
O176 Mg171 2.032 . S
O176 C179 1.259 . S
O177 Mg168 2.114 . S
O177 C180 1.252 . S
O178 Mg168 2.251 . S
O178 Mg171 2.079 . S
O178 C180 1.273 . S
C179 O175 1.246 . S
C179 O176 1.259 . S
C180 O177 1.252 . S
C180 O178 1.273 . S
O181 Mg168 2.010 . S
O181 C173 1.249 . S
Mg182 O183 2.028 . S
Mg182 O189 1.986 . S
Mg182 O191 2.114 . S
Mg182 O192 2.251 . S
Mg182 O195 2.010 . S
O183 Mg182 2.028 . S
O183 C186 1.250 . S
O184 Mg185 2.028 . S
O184 C186 1.248 . S
Mg185 O184 2.028 . S
Mg185 O190 2.032 . S
Mg185 O192 2.079 . S
C186 O183 1.250 . S
C186 O184 1.248 . S
C187 O188 1.264 . S
C187 O195 1.249 . S
O188 C187 1.264 . S
O189 Mg182 1.986 . S
O189 C193 1.246 . S
O190 Mg185 2.032 . S
O190 C193 1.259 . S
O191 Mg182 2.114 . S
O191 C194 1.252 . S
O192 Mg182 2.251 . S
O192 Mg185 2.079 . S
O192 C194 1.273 . S
C193 O189 1.246 . S
C193 O190 1.259 . S
C194 O191 1.252 . S
C194 O192 1.273 . S
O195 Mg182 2.010 . S
O195 C187 1.249 . S
Mg196 O197 2.028 . S
Mg196 O203 1.986 . S
Mg196 O205 2.114 . S
Mg196 O206 2.251 . S
Mg196 O209 2.010 . S
O197 Mg196 2.028 . S
O197 C200 1.250 . S
O198 Mg199 2.028 . S
O198 C200 1.248 . S
Mg199 O198 2.028 . S
Mg199 O204 2.032 . S
Mg199 O206 2.079 . S
C200 O197 1.250 . S
C200 O198 1.248 . S
C201 O202 1.264 . S
C201 O209 1.249 . S
O202 C201 1.264 . S
O203 Mg196 1.986 . S
O203 C207 1.246 . S
O204 Mg199 2.032 . S
O204 C207 1.259 . S
O205 Mg196 2.114 . S
O205 C208 1.252 . S
O206 Mg196 2.251 . S
O206 Mg199 2.079 . S
O206 C208 1.273 . S
C207 O203 1.246 . S
C207 O204 1.259 . S
C208 O205 1.252 . S
C208 O206 1.273 . S
O209 Mg196 2.010 . S
O209 C201 1.249 . S
Mg210 O211 2.028 . S
Mg210 O217 1.986 . S
Mg210 O219 2.114 . S
Mg210 O220 2.251 . S
Mg210 O223 2.010 . S
O211 Mg210 2.028 . S
O211 C214 1.250 . S
O212 Mg213 2.028 . S
O212 C214 1.248 . S
Mg213 O212 2.028 . S
Mg213 O218 2.032 . S
Mg213 O220 2.079 . S
C214 O211 1.250 . S
C214 O212 1.248 . S
C215 O216 1.264 . S
C215 O223 1.249 . S
O216 C215 1.264 . S
O217 Mg210 1.986 . S
O217 C221 1.246 . S
O218 Mg213 2.032 . S
O218 C221 1.259 . S
O219 Mg210 2.114 . S
O219 C222 1.252 . S
O220 Mg210 2.251 . S
O220 Mg213 2.079 . S
O220 C222 1.273 . S
C221 O217 1.246 . S
C221 O218 1.259 . S
C222 O219 1.252 . S
C222 O220 1.273 . S
O223 Mg210 2.010 . S
O223 C215 1.249 . S
C224 C225 1.363 . S
C224 C230 1.379 . S
C224 N232 1.356 . S
C225 C224 1.363 . S
C225 C231 1.363 . S
C226 C227 1.363 . S
C226 C231 1.379 . S
C226 N233 1.356 . S
C227 C226 1.363 . S
C227 C230 1.363 . S
N228 C230 1.356 . S
N228 H240 0.984 . S
N228 H241 0.985 . S
N229 C231 1.356 . S
N229 H234 0.984 . S
N229 H235 0.985 . S
C230 C224 1.379 . S
C230 C227 1.363 . S
C230 N228 1.356 . S
C231 C225 1.363 . S
C231 C226 1.379 . S
C231 N229 1.356 . S
N232 C224 1.356 . S
N232 H238 0.984 . S
N232 H239 0.984 . S
N233 C226 1.356 . S
N233 H236 0.984 . S
N233 H237 0.985 . S
H234 N229 0.984 . S
H235 N229 0.985 . S
H236 N233 0.984 . S
H237 N233 0.985 . S
H238 N232 0.984 . S
H239 N232 0.984 . S
H240 N228 0.984 . S
H241 N228 0.985 . S
C242 C243 1.363 . S
C242 C248 1.379 . S
C242 N250 1.356 . S
C243 C242 1.363 . S
C243 C249 1.363 . S
C244 C245 1.363 . S
C244 C249 1.379 . S
C244 N251 1.356 . S
C245 C244 1.363 . S
C245 C248 1.363 . S
N246 C248 1.356 . S
N246 H258 0.984 . S
N246 H259 0.985 . S
N247 C249 1.356 . S
N247 H252 0.984 . S
N247 H253 0.985 . S
C248 C242 1.379 . S
C248 C245 1.363 . S
C248 N246 1.356 . S
C249 C243 1.363 . S
C249 C244 1.379 . S
C249 N247 1.356 . S
N250 C242 1.356 . S
N250 H256 0.984 . S
N250 H257 0.984 . S
N251 C244 1.356 . S
N251 H254 0.984 . S
N251 H255 0.985 . S
H252 N247 0.984 . S
H253 N247 0.985 . S
H254 N251 0.984 . S
H255 N251 0.985 . S
H256 N250 0.984 . S
H257 N250 0.984 . S
H258 N246 0.984 . S
H259 N246 0.985 . S
C260 C261 1.363 . S
C260 C266 1.379 . S
C260 N268 1.356 . S
C261 C260 1.363 . S
C261 C267 1.363 . S
C262 C263 1.363 . S
C262 C267 1.379 . S
C262 N269 1.356 . S
C263 C262 1.363 . S
C263 C266 1.363 . S
N264 C266 1.356 . S
N264 H276 0.984 . S
N264 H277 0.985 . S
N265 C267 1.356 . S
N265 H270 0.984 . S
N265 H271 0.985 . S
C266 C260 1.379 . S
C266 C263 1.363 . S
C266 N264 1.356 . S
C267 C261 1.363 . S
C267 C262 1.379 . S
C267 N265 1.356 . S
N268 C260 1.356 . S
N268 H274 0.984 . S
N268 H275 0.984 . S
N269 C262 1.356 . S
N269 H272 0.984 . S
N269 H273 0.985 . S
H270 N265 0.984 . S
H271 N265 0.985 . S
H272 N269 0.984 . S
H273 N269 0.985 . S
H274 N268 0.984 . S
H275 N268 0.984 . S
H276 N264 0.984 . S
H277 N264 0.985 . S
C278 C279 1.363 . S
C278 C284 1.379 . S
C278 N286 1.356 . S
C279 C278 1.363 . S
C279 C285 1.363 . S
C280 C281 1.363 . S
C280 C285 1.379 . S
C280 N287 1.356 . S
C281 C280 1.363 . S
C281 C284 1.363 . S
N282 C284 1.356 . S
N282 H294 0.984 . S
N282 H295 0.985 . S
N283 C285 1.356 . S
N283 H288 0.984 . S
N283 H289 0.985 . S
C284 C278 1.379 . S
C284 C281 1.363 . S
C284 N282 1.356 . S
C285 C279 1.363 . S
C285 C280 1.379 . S
C285 N283 1.356 . S
N286 C278 1.356 . S
N286 H292 0.984 . S
N286 H293 0.984 . S
N287 C280 1.356 . S
N287 H290 0.984 . S
N287 H291 0.985 . S
H288 N283 0.984 . S
H289 N283 0.985 . S
H290 N287 0.984 . S
H291 N287 0.985 . S
H292 N286 0.984 . S
H293 N286 0.984 . S
H294 N282 0.984 . S
H295 N282 0.985 . S
C296 C297 1.363 . S
C296 C302 1.379 . S
C296 N304 1.356 . S
C297 C296 1.363 . S
C297 C303 1.363 . S
C298 C299 1.363 . S
C298 C303 1.379 . S
C298 N305 1.356 . S
C299 C298 1.363 . S
C299 C302 1.363 . S
N300 C302 1.356 . S
N300 H312 0.984 . S
N300 H313 0.985 . S
N301 C303 1.356 . S
N301 H306 0.984 . S
N301 H307 0.985 . S
C302 C296 1.379 . S
C302 C299 1.363 . S
C302 N300 1.356 . S
C303 C297 1.363 . S
C303 C298 1.379 . S
C303 N301 1.356 . S
N304 C296 1.356 . S
N304 H310 0.984 . S
N304 H311 0.984 . S
N305 C298 1.356 . S
N305 H308 0.984 . S
N305 H309 0.985 . S
H306 N301 0.984 . S
H307 N301 0.985 . S
H308 N305 0.984 . S
H309 N305 0.985 . S
H310 N304 0.984 . S
H311 N304 0.984 . S
H312 N300 0.984 . S
H313 N300 0.985 . S
C314 C315 1.363 . S
C314 C320 1.379 . S
C314 N322 1.356 . S
C315 C314 1.363 . S
C315 C321 1.363 . S
C316 C317 1.363 . S
C316 C321 1.379 . S
C316 N323 1.356 . S
C317 C316 1.363 . S
C317 C320 1.363 . S
N318 C320 1.356 . S
N318 H330 0.984 . S
N318 H331 0.985 . S
N319 C321 1.356 . S
N319 H324 0.984 . S
N319 H325 0.985 . S
C320 C314 1.379 . S
C320 C317 1.363 . S
C320 N318 1.356 . S
C321 C315 1.363 . S
C321 C316 1.379 . S
C321 N319 1.356 . S
N322 C314 1.356 . S
N322 H328 0.984 . S
N322 H329 0.984 . S
N323 C316 1.356 . S
N323 H326 0.984 . S
N323 H327 0.985 . S
H324 N319 0.984 . S
H325 N319 0.985 . S
H326 N323 0.984 . S
H327 N323 0.985 . S
H328 N322 0.984 . S
H329 N322 0.984 . S
H330 N318 0.984 . S
H331 N318 0.985 . S
C332 C333 1.363 . S
C332 C338 1.379 . S
C332 N340 1.356 . S
C333 C332 1.363 . S
C333 C339 1.363 . S
C334 C335 1.363 . S
C334 C339 1.379 . S
C334 N341 1.356 . S
C335 C334 1.363 . S
C335 C338 1.363 . S
N336 C338 1.356 . S
N336 H348 0.984 . S
N336 H349 0.985 . S
N337 C339 1.356 . S
N337 H342 0.984 . S
N337 H343 0.985 . S
C338 C332 1.379 . S
C338 C335 1.363 . S
C338 N336 1.356 . S
C339 C333 1.363 . S
C339 C334 1.379 . S
C339 N337 1.356 . S
N340 C332 1.356 . S
N340 H346 0.984 . S
N340 H347 0.984 . S
N341 C334 1.356 . S
N341 H344 0.984 . S
N341 H345 0.985 . S
H342 N337 0.984 . S
H343 N337 0.985 . S
H344 N341 0.984 . S
H345 N341 0.985 . S
H346 N340 0.984 . S
H347 N340 0.984 . S
H348 N336 0.984 . S
H349 N336 0.985 . S
C350 C351 1.363 . S
C350 C356 1.379 . S
C350 N358 1.356 . S
C351 C350 1.363 . S
C351 C357 1.363 . S
C352 C353 1.363 . S
C352 C357 1.379 . S
C352 N359 1.356 . S
C353 C352 1.363 . S
C353 C356 1.363 . S
N354 C356 1.356 . S
N354 H366 0.984 . S
N354 H367 0.985 . S
N355 C357 1.356 . S
N355 H360 0.984 . S
N355 H361 0.985 . S
C356 C350 1.379 . S
C356 C353 1.363 . S
C356 N354 1.356 . S
C357 C351 1.363 . S
C357 C352 1.379 . S
C357 N355 1.356 . S
N358 C350 1.356 . S
N358 H364 0.984 . S
N358 H365 0.984 . S
N359 C352 1.356 . S
N359 H362 0.984 . S
N359 H363 0.985 . S
H360 N355 0.984 . S
H361 N355 0.985 . S
H362 N359 0.984 . S
H363 N359 0.985 . S
H364 N358 0.984 . S
H365 N358 0.984 . S
H366 N354 0.984 . S
H367 N354 0.985 . S
C368 C369 1.363 . S
C368 C374 1.379 1_565 S
C368 N376 1.356 . S
C369 C368 1.363 . S
C369 C375 1.363 . S
C370 C371 1.363 . S
C370 C375 1.379 1_545 S
C370 N377 1.356 . S
C371 C370 1.363 . S
C371 C374 1.363 . S
N372 C374 1.356 . S
N372 H384 0.984 . S
N372 H385 0.985 . S
N373 C375 1.356 . S
N373 H378 0.984 . S
N373 H379 0.985 . S
C374 C368 1.379 1_545 S
C374 C371 1.363 . S
C374 N372 1.356 . S
C375 C369 1.363 . S
C375 C370 1.379 1_565 S
C375 N373 1.356 . S
N376 C368 1.356 . S
N376 H382 0.984 . S
N376 H383 0.984 . S
N377 C370 1.356 . S
N377 H380 0.984 . S
N377 H381 0.985 . S
H378 N373 0.984 . S
H379 N373 0.985 . S
H380 N377 0.984 . S
H381 N377 0.985 . S
H382 N376 0.984 . S
H383 N376 0.984 . S
H384 N372 0.984 . S
H385 N372 0.985 . S
C386 C387 1.363 . S
C386 C392 1.379 . S
C386 N394 1.356 . S
C387 C386 1.363 . S
C387 C393 1.363 . S
C388 C389 1.363 . S
C388 C393 1.379 . S
C388 N395 1.356 . S
C389 C388 1.363 . S
C389 C392 1.363 . S
N390 C392 1.356 . S
N390 H402 0.984 . S
N390 H403 0.985 . S
N391 C393 1.356 . S
N391 H396 0.984 . S
N391 H397 0.985 . S
C392 C386 1.379 . S
C392 C389 1.363 . S
C392 N390 1.356 . S
C393 C387 1.363 . S
C393 C388 1.379 . S
C393 N391 1.356 . S
N394 C386 1.356 . S
N394 H400 0.984 . S
N394 H401 0.984 . S
N395 C388 1.356 . S
N395 H398 0.984 . S
N395 H399 0.985 . S
H396 N391 0.984 . S
H397 N391 0.985 . S
H398 N395 0.984 . S
H399 N395 0.985 . S
H400 N394 0.984 . S
H401 N394 0.984 . S
H402 N390 0.984 . S
H403 N390 0.985 . S
C404 C405 1.363 . S
C404 C410 1.379 1_556 S
C404 N412 1.356 . S
C405 C404 1.363 . S
C405 C411 1.363 . S
C406 C407 1.363 . S
C406 C411 1.379 1_554 S
C406 N413 1.356 . S
C407 C406 1.363 . S
C407 C410 1.363 . S
N408 C410 1.356 . S
N408 H420 0.984 . S
N408 H421 0.985 . S
N409 C411 1.356 . S
N409 H414 0.984 . S
N409 H415 0.985 . S
C410 C404 1.379 1_554 S
C410 C407 1.363 . S
C410 N408 1.356 . S
C411 C405 1.363 . S
C411 C406 1.379 1_556 S
C411 N409 1.356 . S
N412 C404 1.356 . S
N412 H418 0.984 . S
N412 H419 0.984 . S
N413 C406 1.356 . S
N413 H416 0.984 . S
N413 H417 0.985 . S
H414 N409 0.984 . S
H415 N409 0.985 . S
H416 N413 0.984 . S
H417 N413 0.985 . S
H418 N412 0.984 . S
H419 N412 0.984 . S
H420 N408 0.984 . S
H421 N408 0.985 . S
C422 C423 1.363 . S
C422 C428 1.379 1_554 S
C422 N430 1.356 . S
C423 C422 1.363 . S
C423 C429 1.363 . S
C424 C425 1.363 . S
C424 C429 1.379 1_556 S
C424 N431 1.356 . S
C425 C424 1.363 . S
C425 C428 1.363 . S
N426 C428 1.356 . S
N426 H438 0.984 . S
N426 H439 0.985 . S
N427 C429 1.356 . S
N427 H432 0.984 . S
N427 H433 0.985 . S
C428 C422 1.379 1_556 S
C428 C425 1.363 . S
C428 N426 1.356 . S
C429 C423 1.363 . S
C429 C424 1.379 1_554 S
C429 N427 1.356 . S
N430 C422 1.356 . S
N430 H436 0.984 . S
N430 H437 0.984 . S
N431 C424 1.356 . S
N431 H434 0.984 . S
N431 H435 0.985 . S
H432 N427 0.984 . S
H433 N427 0.985 . S
H434 N431 0.984 . S
H435 N431 0.985 . S
H436 N430 0.984 . S
H437 N430 0.984 . S
H438 N426 0.984 . S
H439 N426 0.985 . S
C440 C441 1.363 . S
C440 C446 1.379 . S
C440 N448 1.356 . S
C441 C440 1.363 . S
C441 C447 1.363 . S
C442 C443 1.363 . S
C442 C447 1.379 . S
C442 N449 1.356 . S
C443 C442 1.363 . S
C443 C446 1.363 . S
N444 C446 1.356 . S
N444 H456 0.984 . S
N444 H457 0.985 . S
N445 C447 1.356 . S
N445 H450 0.984 . S
N445 H451 0.985 . S
C446 C440 1.379 . S
C446 C443 1.363 . S
C446 N444 1.356 . S
C447 C441 1.363 . S
C447 C442 1.379 . S
C447 N445 1.356 . S
N448 C440 1.356 . S
N448 H454 0.984 . S
N448 H455 0.984 . S
N449 C442 1.356 . S
N449 H452 0.984 . S
N449 H453 0.985 . S
H450 N445 0.984 . S
H451 N445 0.985 . S
H452 N449 0.984 . S
H453 N449 0.985 . S
H454 N448 0.984 . S
H455 N448 0.984 . S
H456 N444 0.984 . S
H457 N444 0.985 . S
C458 C459 1.363 . S
C458 C464 1.379 . S
C458 N466 1.356 . S
C459 C458 1.363 . S
C459 C465 1.363 . S
C460 C461 1.363 . S
C460 C465 1.379 . S
C460 N467 1.356 . S
C461 C460 1.363 . S
C461 C464 1.363 . S
N462 C464 1.356 . S
N462 H474 0.984 . S
N462 H475 0.985 . S
N463 C465 1.356 . S
N463 H468 0.984 . S
N463 H469 0.985 . S
C464 C458 1.379 . S
C464 C461 1.363 . S
C464 N462 1.356 . S
C465 C459 1.363 . S
C465 C460 1.379 . S
C465 N463 1.356 . S
N466 C458 1.356 . S
N466 H472 0.984 . S
N466 H473 0.984 . S
N467 C460 1.356 . S
N467 H470 0.984 . S
N467 H471 0.985 . S
H468 N463 0.984 . S
H469 N463 0.985 . S
H470 N467 0.984 . S
H471 N467 0.985 . S
H472 N466 0.984 . S
H473 N466 0.984 . S
H474 N462 0.984 . S
H475 N462 0.985 . S
C476 C477 1.363 . S
C476 C482 1.379 1_655 S
C476 N484 1.356 . S
C477 C476 1.363 . S
C477 C483 1.363 . S
C478 C479 1.363 . S
C478 C483 1.379 1_455 S
C478 N485 1.356 . S
C479 C478 1.363 . S
C479 C482 1.363 . S
N480 C482 1.356 . S
N480 H492 0.984 . S
N480 H493 0.985 . S
N481 C483 1.356 . S
N481 H486 0.984 . S
N481 H487 0.985 . S
C482 C476 1.379 1_455 S
C482 C479 1.363 . S
C482 N480 1.356 . S
C483 C477 1.363 . S
C483 C478 1.379 1_655 S
C483 N481 1.356 . S
N484 C476 1.356 . S
N484 H490 0.984 . S
N484 H491 0.984 . S
N485 C478 1.356 . S
N485 H488 0.984 . S
N485 H489 0.985 . S
H486 N481 0.984 . S
H487 N481 0.985 . S
H488 N485 0.984 . S
H489 N485 0.985 . S
H490 N484 0.984 . S
H491 N484 0.984 . S
H492 N480 0.984 . S
H493 N480 0.985 . S
C494 C495 1.363 . S
C494 C500 1.379 1_655 S
C494 N502 1.356 . S
C495 C494 1.363 . S
C495 C501 1.363 . S
C496 C497 1.363 . S
C496 C501 1.379 1_455 S
C496 N503 1.356 . S
C497 C496 1.363 . S
C497 C500 1.363 . S
N498 C500 1.356 . S
N498 H510 0.984 . S
N498 H511 0.985 . S
N499 C501 1.356 . S
N499 H504 0.984 . S
N499 H505 0.985 . S
C500 C494 1.379 1_455 S
C500 C497 1.363 . S
C500 N498 1.356 . S
C501 C495 1.363 . S
C501 C496 1.379 1_655 S
C501 N499 1.356 . S
N502 C494 1.356 . S
N502 H508 0.984 . S
N502 H509 0.984 . S
N503 C496 1.356 . S
N503 H506 0.984 . S
N503 H507 0.985 . S
H504 N499 0.984 . S
H505 N499 0.985 . S
H506 N503 0.984 . S
H507 N503 0.985 . S
H508 N502 0.984 . S
H509 N502 0.984 . S
H510 N498 0.984 . S
H511 N498 0.985 . S
C512 C513 1.363 . S
C512 C518 1.379 . S
C512 N520 1.356 . S
C513 C512 1.363 . S
C513 C519 1.363 . S
C514 C515 1.363 . S
C514 C519 1.379 . S
C514 N521 1.356 . S
C515 C514 1.363 . S
C515 C518 1.363 . S
N516 C518 1.356 . S
N516 H528 0.984 . S
N516 H529 0.985 . S
N517 C519 1.356 . S
N517 H522 0.984 . S
N517 H523 0.985 . S
C518 C512 1.379 . S
C518 C515 1.363 . S
C518 N516 1.356 . S
C519 C513 1.363 . S
C519 C514 1.379 . S
C519 N517 1.356 . S
N520 C512 1.356 . S
N520 H526 0.984 . S
N520 H527 0.984 . S
N521 C514 1.356 . S
N521 H524 0.984 . S
N521 H525 0.985 . S
H522 N517 0.984 . S
H523 N517 0.985 . S
H524 N521 0.984 . S
H525 N521 0.985 . S
H526 N520 0.984 . S
H527 N520 0.984 . S
H528 N516 0.984 . S
H529 N516 0.985 . S
C530 C531 1.363 . S
C530 C536 1.379 1_545 S
C530 N538 1.356 . S
C531 C530 1.363 . S
C531 C537 1.363 . S
C532 C533 1.363 . S
C532 C537 1.379 1_565 S
C532 N539 1.356 . S
C533 C532 1.363 . S
C533 C536 1.363 . S
N534 C536 1.356 . S
N534 H546 0.984 1_565 S
N534 H547 0.985 . S
N535 C537 1.356 . S
N535 H540 0.984 . S
N535 H541 0.985 1_545 S
C536 C530 1.379 1_565 S
C536 C533 1.363 . S
C536 N534 1.356 . S
C537 C531 1.363 . S
C537 C532 1.379 1_545 S
C537 N535 1.356 . S
N538 C530 1.356 . S
N538 H544 0.984 . S
N538 H545 0.984 . S
N539 C532 1.356 . S
N539 H542 0.984 . S
N539 H543 0.985 . S
H540 N535 0.984 . S
H541 N535 0.985 1_565 S
H542 N539 0.984 . S
H543 N539 0.985 . S
H544 N538 0.984 . S
H545 N538 0.984 . S
H546 N534 0.984 1_545 S
H547 N534 0.985 . S
C548 C549 1.363 . S
C548 C554 1.379 . S
C548 N556 1.356 . S
C549 C548 1.363 . S
C549 C555 1.363 . S
C550 C551 1.363 . S
C550 C555 1.379 . S
C550 N557 1.356 . S
C551 C550 1.363 . S
C551 C554 1.363 . S
N552 C554 1.356 . S
N552 H564 0.984 . S
N552 H565 0.985 . S
N553 C555 1.356 . S
N553 H558 0.984 . S
N553 H559 0.985 . S
C554 C548 1.379 . S
C554 C551 1.363 . S
C554 N552 1.356 . S
C555 C549 1.363 . S
C555 C550 1.379 . S
C555 N553 1.356 . S
N556 C548 1.356 . S
N556 H562 0.984 . S
N556 H563 0.984 . S
N557 C550 1.356 . S
N557 H560 0.984 . S
N557 H561 0.985 . S
H558 N553 0.984 . S
H559 N553 0.985 . S
H560 N557 0.984 . S
H561 N557 0.985 . S
H562 N556 0.984 . S
H563 N556 0.984 . S
H564 N552 0.984 . S
H565 N552 0.985 . S
C566 C567 1.363 . S
C566 C572 1.379 1_554 S
C566 N574 1.356 . S
C567 C566 1.363 . S
C567 C573 1.363 . S
C568 C569 1.363 . S
C568 C573 1.379 1_556 S
C568 N575 1.356 . S
C569 C568 1.363 . S
C569 C572 1.363 . S
N570 C572 1.356 . S
N570 H582 0.984 . S
N570 H583 0.985 . S
N571 C573 1.356 . S
N571 H576 0.984 . S
N571 H577 0.985 . S
C572 C566 1.379 1_556 S
C572 C569 1.363 . S
C572 N570 1.356 . S
C573 C567 1.363 . S
C573 C568 1.379 1_554 S
C573 N571 1.356 . S
N574 C566 1.356 . S
N574 H580 0.984 . S
N574 H581 0.984 . S
N575 C568 1.356 . S
N575 H578 0.984 . S
N575 H579 0.985 . S
H576 N571 0.984 . S
H577 N571 0.985 . S
H578 N575 0.984 . S
H579 N575 0.985 . S
H580 N574 0.984 . S
H581 N574 0.984 . S
H582 N570 0.984 . S
H583 N570 0.985 . S
C584 C585 1.363 . S
C584 C590 1.379 1_556 S
C584 N592 1.356 . S
C585 C584 1.363 . S
C585 C591 1.363 . S
C586 C587 1.363 . S
C586 C591 1.379 1_554 S
C586 N593 1.356 . S
C587 C586 1.363 . S
C587 C590 1.363 . S
N588 C590 1.356 . S
N588 H600 0.984 . S
N588 H601 0.985 . S
N589 C591 1.356 . S
N589 H594 0.984 . S
N589 H595 0.985 . S
C590 C584 1.379 1_554 S
C590 C587 1.363 . S
C590 N588 1.356 . S
C591 C585 1.363 . S
C591 C586 1.379 1_556 S
C591 N589 1.356 . S
N592 C584 1.356 . S
N592 H598 0.984 . S
N592 H599 0.984 . S
N593 C586 1.356 . S
N593 H596 0.984 . S
N593 H597 0.985 . S
H594 N589 0.984 . S
H595 N589 0.985 . S
H596 N593 0.984 . S
H597 N593 0.985 . S
H598 N592 0.984 . S
H599 N592 0.984 . S
H600 N588 0.984 . S
H601 N588 0.985 . S
C602 C603 1.363 . S
C602 C608 1.379 . S
C602 N610 1.356 . S
C603 C602 1.363 . S
C603 C609 1.363 . S
C604 C605 1.363 . S
C604 C609 1.379 . S
C604 N611 1.356 . S
C605 C604 1.363 . S
C605 C608 1.363 . S
N606 C608 1.356 . S
N606 H618 0.984 . S
N606 H619 0.985 . S
N607 C609 1.356 . S
N607 H612 0.984 . S
N607 H613 0.985 . S
C608 C602 1.379 . S
C608 C605 1.363 . S
C608 N606 1.356 . S
C609 C603 1.363 . S
C609 C604 1.379 . S
C609 N607 1.356 . S
N610 C602 1.356 . S
N610 H616 0.984 . S
N610 H617 0.984 . S
N611 C604 1.356 . S
N611 H614 0.984 . S
N611 H615 0.985 . S
H612 N607 0.984 . S
H613 N607 0.985 . S
H614 N611 0.984 . S
H615 N611 0.985 . S
H616 N610 0.984 . S
H617 N610 0.984 . S
H618 N606 0.984 . S
H619 N606 0.985 . S
C620 C621 1.363 . S
C620 C626 1.379 . S
C620 N628 1.356 . S
C621 C620 1.363 . S
C621 C627 1.363 . S
C622 C623 1.363 . S
C622 C627 1.379 . S
C622 N629 1.356 . S
C623 C622 1.363 . S
C623 C626 1.363 . S
N624 C626 1.356 . S
N624 H636 0.984 . S
N624 H637 0.985 . S
N625 C627 1.356 . S
N625 H630 0.984 . S
N625 H631 0.985 . S
C626 C620 1.379 . S
C626 C623 1.363 . S
C626 N624 1.356 . S
C627 C621 1.363 . S
C627 C622 1.379 . S
C627 N625 1.356 . S
N628 C620 1.356 . S
N628 H634 0.984 . S
N628 H635 0.984 . S
N629 C622 1.356 . S
N629 H632 0.984 . S
N629 H633 0.985 . S
H630 N625 0.984 . S
H631 N625 0.985 . S
H632 N629 0.984 . S
H633 N629 0.985 . S
H634 N628 0.984 . S
H635 N628 0.984 . S
H636 N624 0.984 . S
H637 N624 0.985 . S
C638 C639 1.363 . S
C638 C644 1.379 1_455 S
C638 N646 1.356 . S
C639 C638 1.363 . S
C639 C645 1.363 . S
C640 C641 1.363 . S
C640 C645 1.379 1_655 S
C640 N647 1.356 . S
C641 C640 1.363 . S
C641 C644 1.363 . S
N642 C644 1.356 . S
N642 H654 0.984 . S
N642 H655 0.985 . S
N643 C645 1.356 . S
N643 H648 0.984 . S
N643 H649 0.985 . S
C644 C638 1.379 1_655 S
C644 C641 1.363 . S
C644 N642 1.356 . S
C645 C639 1.363 . S
C645 C640 1.379 1_455 S
C645 N643 1.356 . S
N646 C638 1.356 . S
N646 H652 0.984 . S
N646 H653 0.984 . S
N647 C640 1.356 . S
N647 H650 0.984 . S
N647 H651 0.985 . S
H648 N643 0.984 . S
H649 N643 0.985 . S
H650 N647 0.984 . S
H651 N647 0.985 . S
H652 N646 0.984 . S
H653 N646 0.984 . S
H654 N642 0.984 . S
H655 N642 0.985 . S
C656 C657 1.363 . S
C656 C662 1.379 1_455 S
C656 N664 1.356 . S
C657 C656 1.363 . S
C657 C663 1.363 . S
C658 C659 1.363 . S
C658 C663 1.379 1_655 S
C658 N665 1.356 . S
C659 C658 1.363 . S
C659 C662 1.363 . S
N660 C662 1.356 . S
N660 H672 0.984 . S
N660 H673 0.985 . S
N661 C663 1.356 . S
N661 H666 0.984 . S
N661 H667 0.985 . S
C662 C656 1.379 1_655 S
C662 C659 1.363 . S
C662 N660 1.356 . S
C663 C657 1.363 . S
C663 C658 1.379 1_455 S
C663 N661 1.356 . S
N664 C656 1.356 . S
N664 H670 0.984 . S
N664 H671 0.984 . S
N665 C658 1.356 . S
N665 H668 0.984 . S
N665 H669 0.985 . S
H666 N661 0.984 . S
H667 N661 0.985 . S
H668 N665 0.984 . S
H669 N665 0.985 . S
H670 N664 0.984 . S
H671 N664 0.984 . S
H672 N660 0.984 . S
H673 N660 0.985 . S
C674 C675 1.363 . S
C674 C680 1.379 . S
C674 N682 1.356 . S
C675 C674 1.363 . S
C675 C681 1.363 . S
C676 C677 1.363 . S
C676 C681 1.379 . S
C676 N683 1.356 . S
C677 C676 1.363 . S
C677 C680 1.363 . S
N678 C680 1.356 . S
N678 H690 0.984 . S
N678 H691 0.985 . S
N679 C681 1.356 . S
N679 H684 0.984 . S
N679 H685 0.985 . S
C680 C674 1.379 . S
C680 C677 1.363 . S
C680 N678 1.356 . S
C681 C675 1.363 . S
C681 C676 1.379 . S
C681 N679 1.356 . S
N682 C674 1.356 . S
N682 H688 0.984 . S
N682 H689 0.984 . S
N683 C676 1.356 . S
N683 H686 0.984 . S
N683 H687 0.985 . S
H684 N679 0.984 . S
H685 N679 0.985 . S
H686 N683 0.984 . S
H687 N683 0.985 . S
H688 N682 0.984 . S
H689 N682 0.984 . S
H690 N678 0.984 . S
H691 N678 0.985 . S
C692 C693 1.363 . S
C692 C698 1.379 . S
C692 N700 1.356 . S
C693 C692 1.363 . S
C693 C699 1.363 . S
C694 C695 1.363 . S
C694 C699 1.379 . S
C694 N701 1.356 . S
C695 C694 1.363 . S
C695 C698 1.363 . S
N696 C698 1.356 . S
N696 H708 0.984 . S
N696 H709 0.985 . S
N697 C699 1.356 . S
N697 H702 0.984 . S
N697 H703 0.985 . S
C698 C692 1.379 . S
C698 C695 1.363 . S
C698 N696 1.356 . S
C699 C693 1.363 . S
C699 C694 1.379 . S
C699 N697 1.356 . S
N700 C692 1.356 . S
N700 H706 0.984 . S
N700 H707 0.984 . S
N701 C694 1.356 . S
N701 H704 0.984 . S
N701 H705 0.985 . S
H702 N697 0.984 . S
H703 N697 0.985 . S
H704 N701 0.984 . S
H705 N701 0.985 . S
H706 N700 0.984 . S
H707 N700 0.984 . S
H708 N696 0.984 . S
H709 N696 0.985 . S
C710 C711 1.363 . S
C710 C716 1.379 1_545 S
C710 N718 1.356 . S
C711 C710 1.363 . S
C711 C717 1.363 . S
C712 C713 1.363 . S
C712 C717 1.379 1_565 S
C712 N719 1.356 . S
C713 C712 1.363 . S
C713 C716 1.363 . S
N714 C716 1.356 . S
N714 H726 0.984 . S
N714 H727 0.985 . S
N715 C717 1.356 . S
N715 H720 0.984 . S
N715 H721 0.985 . S
C716 C710 1.379 1_565 S
C716 C713 1.363 . S
C716 N714 1.356 . S
C717 C711 1.363 . S
C717 C712 1.379 1_545 S
C717 N715 1.356 . S
N718 C710 1.356 . S
N718 H724 0.984 . S
N718 H725 0.984 . S
N719 C712 1.356 . S
N719 H722 0.984 . S
N719 H723 0.985 . S
H720 N715 0.984 . S
H721 N715 0.985 . S
H722 N719 0.984 . S
H723 N719 0.985 . S
H724 N718 0.984 . S
H725 N718 0.984 . S
H726 N714 0.984 . S
H727 N714 0.985 . S
C728 C729 1.363 . S
C728 C734 1.379 . S
C728 N736 1.356 . S
C729 C728 1.363 . S
C729 C735 1.363 . S
C730 C731 1.363 . S
C730 C735 1.379 . S
C730 N737 1.356 . S
C731 C730 1.363 . S
C731 C734 1.363 . S
N732 C734 1.356 . S
N732 H744 0.984 . S
N732 H745 0.985 . S
N733 C735 1.356 . S
N733 H738 0.984 . S
N733 H739 0.985 . S
C734 C728 1.379 . S
C734 C731 1.363 . S
C734 N732 1.356 . S
C735 C729 1.363 . S
C735 C730 1.379 . S
C735 N733 1.356 . S
N736 C728 1.356 . S
N736 H742 0.984 . S
N736 H743 0.984 . S
N737 C730 1.356 . S
N737 H740 0.984 . S
N737 H741 0.985 . S
H738 N733 0.984 . S
H739 N733 0.985 . S
H740 N737 0.984 . S
H741 N737 0.985 . S
H742 N736 0.984 . S
H743 N736 0.984 . S
H744 N732 0.984 . S
H745 N732 0.985 . S
C746 C747 1.363 . S
C746 C752 1.379 . S
C746 N754 1.356 . S
C747 C746 1.363 . S
C747 C753 1.363 . S
C748 C749 1.363 . S
C748 C753 1.379 . S
C748 N755 1.356 . S
C749 C748 1.363 . S
C749 C752 1.363 . S
N750 C752 1.356 . S
N750 H762 0.984 . S
N750 H763 0.985 . S
N751 C753 1.356 . S
N751 H756 0.984 . S
N751 H757 0.985 . S
C752 C746 1.379 . S
C752 C749 1.363 . S
C752 N750 1.356 . S
C753 C747 1.363 . S
C753 C748 1.379 . S
C753 N751 1.356 . S
N754 C746 1.356 . S
N754 H760 0.984 . S
N754 H761 0.984 . S
N755 C748 1.356 . S
N755 H758 0.984 . S
N755 H759 0.985 . S
H756 N751 0.984 . S
H757 N751 0.985 . S
H758 N755 0.984 . S
H759 N755 0.985 . S
H760 N754 0.984 . S
H761 N754 0.984 . S
H762 N750 0.984 . S
H763 N750 0.985 . S
C764 C765 1.363 1_565 S
C764 C770 1.379 . S
C764 N772 1.356 1_565 S
C765 C764 1.363 1_545 S
C765 C771 1.363 . S
C766 C767 1.363 1_545 S
C766 C771 1.379 . S
C766 N773 1.356 1_545 S
C767 C766 1.363 1_565 S
C767 C770 1.363 . S
N768 C770 1.356 . S
N768 H780 0.984 . S
N768 H781 0.985 . S
N769 C771 1.356 . S
N769 H774 0.984 . S
N769 H775 0.985 . S
C770 C764 1.379 . S
C770 C767 1.363 . S
C770 N768 1.356 . S
C771 C765 1.363 . S
C771 C766 1.379 . S
C771 N769 1.356 . S
N772 C764 1.356 1_545 S
N772 H778 0.984 1_545 S
N772 H779 0.984 . S
N773 C766 1.356 1_565 S
N773 H776 0.984 . S
N773 H777 0.985 1_565 S
H774 N769 0.984 . S
H775 N769 0.985 . S
H776 N773 0.984 . S
H777 N773 0.985 1_545 S
H778 N772 0.984 1_565 S
H779 N772 0.984 . S
H780 N768 0.984 . S
H781 N768 0.985 . S
C782 C783 1.363 . S
C782 C788 1.379 . S
C782 N790 1.356 . S
C783 C782 1.363 . S
C783 C789 1.363 . S
C784 C785 1.363 . S
C784 C789 1.379 . S
C784 N791 1.356 . S
C785 C784 1.363 . S
C785 C788 1.363 . S
N786 C788 1.356 . S
N786 H798 0.984 . S
N786 H799 0.985 . S
N787 C789 1.356 . S
N787 H792 0.984 . S
N787 H793 0.985 . S
C788 C782 1.379 . S
C788 C785 1.363 . S
C788 N786 1.356 . S
C789 C783 1.363 . S
C789 C784 1.379 . S
C789 N787 1.356 . S
N790 C782 1.356 . S
N790 H796 0.984 . S
N790 H797 0.984 . S
N791 C784 1.356 . S
N791 H794 0.984 . S
N791 H795 0.985 . S
H792 N787 0.984 . S
H793 N787 0.985 . S
H794 N791 0.984 . S
H795 N791 0.985 . S
H796 N790 0.984 . S
H797 N790 0.984 . S
H798 N786 0.984 . S
H799 N786 0.985 . S
C225 C4 1.311 . S
C227 C186 1.310 . S
C243 C18 1.311 . S
C245 C130 1.310 . S
C261 C200 1.310 . S
C263 C32 1.311 . S
C279 C46 1.311 . S
C281 C214 1.310 . S
C297 C60 1.311 . S
C299 C88 1.310 . S
C315 C144 1.311 . S
C317 C74 1.310 . S
C333 C158 1.311 . S
C335 C102 1.310 . S
C351 C116 1.310 . S
C353 C172 1.311 . S
C369 C40 1.517 . S
C371 C12 1.517 . S
C387 C26 1.517 . S
C389 C54 1.517 . S
C405 C179 1.463 . S
C407 C11 1.463 . S
C423 C25 1.463 . S
C425 C165 1.463 . S
C441 C67 1.463 . S
C443 C39 1.463 . S
C459 C151 1.463 . S
C461 C53 1.463 . S
C477 C19 1.357 . S
C479 C5 1.357 . S
C495 C47 1.357 . S
C497 C33 1.357 . S
C513 C145 1.357 . S
C515 C61 1.357 . S
C531 C109 1.515 . S
C533 C81 1.515 . S
C549 C95 1.515 . S
C551 C123 1.515 . S
C567 C222 1.508 . S
C569 C82 1.508 . S
C585 C96 1.508 . S
C587 C208 1.508 . S
C603 C138 1.508 . S
C605 C110 1.508 . S
C621 C124 1.508 . S
C623 C194 1.508 . S
C639 C89 1.316 . S
C641 C75 1.316 . S
C657 C117 1.316 . S
C659 C103 1.316 . S
C675 C131 1.316 . S
C677 C187 1.316 . S
C693 C152 1.517 . S
C695 C166 1.517 . S
C711 C180 1.517 . S
C713 C68 1.517 . S
C729 C173 1.357 . S
C731 C159 1.357 . S
C747 C207 1.515 . S
C749 C193 1.515 . S
C765 C137 1.515 . S
C767 C221 1.515 . S
C783 C215 1.316 . S
C785 C201 1.316 . S
