# Generated by pormake.
# Topology vbi, (5)-cn, num edge types: 1
# Building blocks:
#     Node 0, Type 0, BuildingBlock: BEQFEK_clean_sbu_0, # of connection points: 5
#     Node 1, Type 0, BuildingBlock: BEQFEK_clean_sbu_0, # of connection points: 5
#     Node 2, Type 0, BuildingBlock: BEQFEK_clean_sbu_0, # of connection points: 5
#     Node 3, Type 0, BuildingBlock: BEQFEK_clean_sbu_0, # of connection points: 5
#     Node 4, Type 0, BuildingBlock: BEQFEK_clean_sbu_0, # of connection points: 5
#     Node 5, Type 0, BuildingBlock: BEQFEK_clean_sbu_0, # of connection points: 5
#     Node 6, Type 0, BuildingBlock: BEQFEK_clean_sbu_0, # of connection points: 5
#     Node 7, Type 0, BuildingBlock: BEQFEK_clean_sbu_0, # of connection points: 5
#     Node 8, Type 0, BuildingBlock: BEQFEK_clean_sbu_0, # of connection points: 5
#     Node 9, Type 0, BuildingBlock: BEQFEK_clean_sbu_0, # of connection points: 5
#     Node 10, Type 0, BuildingBlock: BEQFEK_clean_sbu_0, # of connection points: 5
#     Node 11, Type 0, BuildingBlock: BEQFEK_clean_sbu_0, # of connection points: 5
#     Node 12, Type 0, BuildingBlock: BEQFEK_clean_sbu_0, # of connection points: 5
#     Node 13, Type 0, BuildingBlock: BEQFEK_clean_sbu_0, # of connection points: 5
#     Node 14, Type 0, BuildingBlock: BEQFEK_clean_sbu_0, # of connection points: 5
#     Node 15, Type 0, BuildingBlock: BEQFEK_clean_sbu_0, # of connection points: 5
#     Node 16, Type 0, BuildingBlock: BEQFEK_clean_sbu_0, # of connection points: 5
#     Node 17, Type 0, BuildingBlock: BEQFEK_clean_sbu_0, # of connection points: 5
#     Node 18, Type 0, BuildingBlock: BEQFEK_clean_sbu_0, # of connection points: 5
#     Node 19, Type 0, BuildingBlock: BEQFEK_clean_sbu_0, # of connection points: 5
#     Node 20, Type 0, BuildingBlock: BEQFEK_clean_sbu_0, # of connection points: 5
#     Node 21, Type 0, BuildingBlock: BEQFEK_clean_sbu_0, # of connection points: 5
#     Node 22, Type 0, BuildingBlock: BEQFEK_clean_sbu_0, # of connection points: 5
#     Node 23, Type 0, BuildingBlock: BEQFEK_clean_sbu_0, # of connection points: 5
#     Node 24, Type 0, BuildingBlock: BEQFEK_clean_sbu_0, # of connection points: 5
#     Node 25, Type 0, BuildingBlock: BEQFEK_clean_sbu_0, # of connection points: 5
#     Node 26, Type 0, BuildingBlock: BEQFEK_clean_sbu_0, # of connection points: 5
#     Node 27, Type 0, BuildingBlock: BEQFEK_clean_sbu_0, # of connection points: 5
#     Node 28, Type 0, BuildingBlock: BEQFEK_clean_sbu_0, # of connection points: 5
#     Node 29, Type 0, BuildingBlock: BEQFEK_clean_sbu_0, # of connection points: 5
#     Node 30, Type 0, BuildingBlock: BEQFEK_clean_sbu_0, # of connection points: 5
#     Node 31, Type 0, BuildingBlock: BEQFEK_clean_sbu_0, # of connection points: 5
#     Edge 32, Type (0, 0), BuildingBlock: AJUNOK_clean_linker_0, # of connection points: 2
#     Edge 33, Type (0, 0), BuildingBlock: AJUNOK_clean_linker_0, # of connection points: 2
#     Edge 34, Type (0, 0), BuildingBlock: AJUNOK_clean_linker_0, # of connection points: 2
#     Edge 35, Type (0, 0), BuildingBlock: AJUNOK_clean_linker_0, # of connection points: 2
#     Edge 36, Type (0, 0), BuildingBlock: AJUNOK_clean_linker_0, # of connection points: 2
#     Edge 37, Type (0, 0), BuildingBlock: AJUNOK_clean_linker_0, # of connection points: 2
#     Edge 38, Type (0, 0), BuildingBlock: AJUNOK_clean_linker_0, # of connection points: 2
#     Edge 39, Type (0, 0), BuildingBlock: AJUNOK_clean_linker_0, # of connection points: 2
#     Edge 40, Type (0, 0), BuildingBlock: AJUNOK_clean_linker_0, # of connection points: 2
#     Edge 41, Type (0, 0), BuildingBlock: AJUNOK_clean_linker_0, # of connection points: 2
#     Edge 42, Type (0, 0), BuildingBlock: AJUNOK_clean_linker_0, # of connection points: 2
#     Edge 43, Type (0, 0), BuildingBlock: AJUNOK_clean_linker_0, # of connection points: 2
#     Edge 44, Type (0, 0), BuildingBlock: AJUNOK_clean_linker_0, # of connection points: 2
#     Edge 45, Type (0, 0), BuildingBlock: AJUNOK_clean_linker_0, # of connection points: 2
#     Edge 46, Type (0, 0), BuildingBlock: AJUNOK_clean_linker_0, # of connection points: 2
#     Edge 47, Type (0, 0), BuildingBlock: AJUNOK_clean_linker_0, # of connection points: 2
#     Edge 48, Type (0, 0), BuildingBlock: AJUNOK_clean_linker_0, # of connection points: 2
#     Edge 49, Type (0, 0), BuildingBlock: AJUNOK_clean_linker_0, # of connection points: 2
#     Edge 50, Type (0, 0), BuildingBlock: AJUNOK_clean_linker_0, # of connection points: 2
#     Edge 51, Type (0, 0), BuildingBlock: AJUNOK_clean_linker_0, # of connection points: 2
#     Edge 52, Type (0, 0), BuildingBlock: AJUNOK_clean_linker_0, # of connection points: 2
#     Edge 53, Type (0, 0), BuildingBlock: AJUNOK_clean_linker_0, # of connection points: 2
#     Edge 54, Type (0, 0), BuildingBlock: AJUNOK_clean_linker_0, # of connection points: 2
#     Edge 55, Type (0, 0), BuildingBlock: AJUNOK_clean_linker_0, # of connection points: 2
#     Edge 56, Type (0, 0), BuildingBlock: AJUNOK_clean_linker_0, # of connection points: 2
#     Edge 57, Type (0, 0), BuildingBlock: AJUNOK_clean_linker_0, # of connection points: 2
#     Edge 58, Type (0, 0), BuildingBlock: AJUNOK_clean_linker_0, # of connection points: 2
#     Edge 59, Type (0, 0), BuildingBlock: AJUNOK_clean_linker_0, # of connection points: 2
#     Edge 60, Type (0, 0), BuildingBlock: AJUNOK_clean_linker_0, # of connection points: 2
#     Edge 61, Type (0, 0), BuildingBlock: AJUNOK_clean_linker_0, # of connection points: 2
#     Edge 62, Type (0, 0), BuildingBlock: AJUNOK_clean_linker_0, # of connection points: 2
#     Edge 63, Type (0, 0), BuildingBlock: AJUNOK_clean_linker_0, # of connection points: 2
#     Edge 64, Type (0, 0), BuildingBlock: AJUNOK_clean_linker_0, # of connection points: 2
#     Edge 65, Type (0, 0), BuildingBlock: AJUNOK_clean_linker_0, # of connection points: 2
#     Edge 66, Type (0, 0), BuildingBlock: AJUNOK_clean_linker_0, # of connection points: 2
#     Edge 67, Type (0, 0), BuildingBlock: AJUNOK_clean_linker_0, # of connection points: 2
#     Edge 68, Type (0, 0), BuildingBlock: AJUNOK_clean_linker_0, # of connection points: 2
#     Edge 69, Type (0, 0), BuildingBlock: AJUNOK_clean_linker_0, # of connection points: 2
#     Edge 70, Type (0, 0), BuildingBlock: AJUNOK_clean_linker_0, # of connection points: 2
#     Edge 71, Type (0, 0), BuildingBlock: AJUNOK_clean_linker_0, # of connection points: 2
#     Edge 72, Type (0, 0), BuildingBlock: AJUNOK_clean_linker_0, # of connection points: 2
#     Edge 73, Type (0, 0), BuildingBlock: AJUNOK_clean_linker_0, # of connection points: 2
#     Edge 74, Type (0, 0), BuildingBlock: AJUNOK_clean_linker_0, # of connection points: 2
#     Edge 75, Type (0, 0), BuildingBlock: AJUNOK_clean_linker_0, # of connection points: 2
#     Edge 76, Type (0, 0), BuildingBlock: AJUNOK_clean_linker_0, # of connection points: 2
#     Edge 77, Type (0, 0), BuildingBlock: AJUNOK_clean_linker_0, # of connection points: 2
#     Edge 78, Type (0, 0), BuildingBlock: AJUNOK_clean_linker_0, # of connection points: 2
#     Edge 79, Type (0, 0), BuildingBlock: AJUNOK_clean_linker_0, # of connection points: 2
#     Edge 80, Type (0, 0), BuildingBlock: AJUNOK_clean_linker_0, # of connection points: 2
#     Edge 81, Type (0, 0), BuildingBlock: AJUNOK_clean_linker_0, # of connection points: 2
#     Edge 82, Type (0, 0), BuildingBlock: AJUNOK_clean_linker_0, # of connection points: 2
#     Edge 83, Type (0, 0), BuildingBlock: AJUNOK_clean_linker_0, # of connection points: 2
#     Edge 84, Type (0, 0), BuildingBlock: AJUNOK_clean_linker_0, # of connection points: 2
#     Edge 85, Type (0, 0), BuildingBlock: AJUNOK_clean_linker_0, # of connection points: 2
#     Edge 86, Type (0, 0), BuildingBlock: AJUNOK_clean_linker_0, # of connection points: 2
#     Edge 87, Type (0, 0), BuildingBlock: AJUNOK_clean_linker_0, # of connection points: 2
#     Edge 88, Type (0, 0), BuildingBlock: AJUNOK_clean_linker_0, # of connection points: 2
#     Edge 89, Type (0, 0), BuildingBlock: AJUNOK_clean_linker_0, # of connection points: 2
#     Edge 90, Type (0, 0), BuildingBlock: AJUNOK_clean_linker_0, # of connection points: 2
#     Edge 91, Type (0, 0), BuildingBlock: AJUNOK_clean_linker_0, # of connection points: 2
#     Edge 92, Type (0, 0), BuildingBlock: AJUNOK_clean_linker_0, # of connection points: 2
#     Edge 93, Type (0, 0), BuildingBlock: AJUNOK_clean_linker_0, # of connection points: 2
#     Edge 94, Type (0, 0), BuildingBlock: AJUNOK_clean_linker_0, # of connection points: 2
#     Edge 95, Type (0, 0), BuildingBlock: AJUNOK_clean_linker_0, # of connection points: 2
#     Edge 96, Type (0, 0), BuildingBlock: AJUNOK_clean_linker_0, # of connection points: 2
#     Edge 97, Type (0, 0), BuildingBlock: AJUNOK_clean_linker_0, # of connection points: 2
#     Edge 98, Type (0, 0), BuildingBlock: AJUNOK_clean_linker_0, # of connection points: 2
#     Edge 99, Type (0, 0), BuildingBlock: AJUNOK_clean_linker_0, # of connection points: 2
#     Edge 100, Type (0, 0), BuildingBlock: AJUNOK_clean_linker_0, # of connection points: 2
#     Edge 101, Type (0, 0), BuildingBlock: AJUNOK_clean_linker_0, # of connection points: 2
#     Edge 102, Type (0, 0), BuildingBlock: AJUNOK_clean_linker_0, # of connection points: 2
#     Edge 103, Type (0, 0), BuildingBlock: AJUNOK_clean_linker_0, # of connection points: 2
#     Edge 104, Type (0, 0), BuildingBlock: AJUNOK_clean_linker_0, # of connection points: 2
#     Edge 105, Type (0, 0), BuildingBlock: AJUNOK_clean_linker_0, # of connection points: 2
#     Edge 106, Type (0, 0), BuildingBlock: AJUNOK_clean_linker_0, # of connection points: 2
#     Edge 107, Type (0, 0), BuildingBlock: AJUNOK_clean_linker_0, # of connection points: 2
#     Edge 108, Type (0, 0), BuildingBlock: AJUNOK_clean_linker_0, # of connection points: 2
#     Edge 109, Type (0, 0), BuildingBlock: AJUNOK_clean_linker_0, # of connection points: 2
#     Edge 110, Type (0, 0), BuildingBlock: AJUNOK_clean_linker_0, # of connection points: 2
#     Edge 111, Type (0, 0), BuildingBlock: AJUNOK_clean_linker_0, # of connection points: 2
# Relax obj value: 0.802
# Max RMSD: 0.269
# Mean RMSD: 0.269
data_MOF--net-vbi--node1-BEQFEK_clean_sbu_0--edge1-AJUNOK_clean_linker_0
_symmetry_space_group_name_H-M    P1
_symmetry_Int_Tables_number       1
_symmetry_cell_setting            triclinic
loop_
_symmetry_equiv_pos_as_xyz
'x, y, z'
_cell_length_a     22.294631
_cell_length_b     41.02385
_cell_length_c     62.105733
_cell_angle_alpha  89.985187
_cell_angle_beta   89.906242
_cell_angle_gamma 89.951119
loop_
_atom_site_label
_atom_site_type_symbol
_atom_site_fract_x
_atom_site_fract_y
_atom_site_fract_z
_atom_type_partial_charge
Co0 Co 0.39334 0.15372 0.04023 0.0
Co1 Co 0.27331 0.12398 0.02192 0.0
C2 C 0.31134 0.18935 0.00851 0.0
O3 O 0.35531 0.18559 0.02125 0.0
O4 O 0.27307 0.16657 0.00514 0.0
C5 C 0.50551 0.17297 0.02704 0.0
O6 O 0.47568 0.17342 0.00882 0.0
C7 C 0.17439 0.08264 0.0014 0.0
C8 C 0.15278 0.05299 0.03004 0.0
C9 C 0.13919 0.05617 0.00842 0.0
N10 N 0.20745 0.09356 0.01812 0.0
N11 N 0.19299 0.07597 0.03518 0.0
C12 C 0.17567 0.09813 0.9796 0.0
H13 H 0.18904 0.12411 0.98096 0.0
H14 H 0.20912 0.08564 0.9693 0.0
H15 H 0.13112 0.09628 0.9718 0.0
C16 C 0.44244 0.09261 0.02387 0.0
N17 N 0.39508 0.11206 0.0278 0.0
N18 N 0.34797 0.10114 0.01734 0.0
C19 C 0.36539 0.07516 0.00538 0.0
C20 C 0.42623 0.06943 0.00894 0.0
C21 C 0.50108 0.09399 0.03553 0.0
H22 H 0.49663 0.10768 0.05083 0.0
H23 H 0.53544 0.10545 0.02514 0.0
H24 H 0.51695 0.0689 0.03911 0.0
O25 O 0.34953 0.15373 0.06666 0.0
O26 O 0.26326 0.13557 0.0533 0.0
H27 H 0.28636 0.04785 -0.00175 0.0
H28 H 0.35007 0.03779 0.98142 0.0
C29 C 0.32594 0.05787 -0.0103 0.0
H30 H 0.30988 0.07563 0.97755 0.0
H31 H 0.21272 0.07864 0.05029 0.0
O32 O 0.47677 0.16745 0.04434 0.0
C33 C 0.29462 0.14646 0.06883 0.0
Co34 Co 0.87435 0.15793 0.04077 0.0
Co35 Co 0.99785 0.17932 0.02068 0.0
C36 C 0.95011 0.11432 0.01099 0.0
O37 O 0.90767 0.12238 0.02356 0.0
O38 O 0.9916 0.1347 0.00621 0.0
C39 C 0.76096 0.1463 0.02639 0.0
O40 O 0.79233 0.14605 0.00846 0.0
C41 C 0.09634 0.21868 -0.0017 0.0
C42 C 0.14545 0.23427 0.0273 0.0
C43 C 0.14206 0.23972 0.00536 0.0
N44 N 0.07249 0.20327 0.01555 0.0
N45 N 0.10411 0.21197 0.0326 0.0
C46 C 0.07572 0.21281 0.97575 0.0
H47 H 0.03455 0.19764 0.97571 0.0
H48 H 0.06819 0.23624 0.96724 0.0
H49 H 0.11084 0.19899 0.96698 0.0
C50 C 0.83562 0.22066 0.02456 0.0
N51 N 0.87978 0.19872 0.02735 0.0
N52 N 0.92645 0.20637 0.01535 0.0
C53 C 0.91004 0.23245 0.00313 0.0
C54 C 0.85183 0.24187 0.0085 0.0
C55 C 0.77868 0.22221 0.03736 0.0
H56 H 0.78069 0.20625 0.05171 0.0
H57 H 0.74015 0.21587 0.02693 0.0
H58 H 0.77112 0.24754 0.04298 0.0
O59 O 0.91568 0.15948 0.06745 0.0
O60 O 1.00443 0.17118 0.05296 0.0
H61 H 0.92734 0.27198 0.9811 0.0
H62 H 0.95385 0.23258 0.97266 0.0
C63 C 0.94827 0.24892 0.98671 0.0
H64 H 0.99247 0.25461 -0.00615 0.0
H65 H 0.0953 0.20435 0.0483 0.0
O66 O 0.78881 0.14809 0.04419 0.0
C67 C 0.9715 0.16457 0.06918 0.0
Co68 Co 0.39024 0.14446 0.18697 0.0
Co69 Co 0.26923 0.1768 0.2042 0.0
C70 C 0.30566 0.10935 0.21693 0.0
O71 O 0.3508 0.11249 0.20471 0.0
O72 O 0.26874 0.13289 0.22023 0.0
C73 C 0.50121 0.11327 0.19541 0.0
O74 O 0.47185 0.10197 0.21217 0.0
C75 C 0.17701 0.22239 0.2255 0.0
C76 C 0.12626 0.23566 0.19636 0.0
C77 C 0.1322 0.24367 0.21787 0.0
N78 N 0.19822 0.20445 0.20884 0.0
N79 N 0.16573 0.21197 0.19175 0.0
C80 C 0.20062 0.21959 0.24794 0.0
H81 H 0.24108 0.2038 0.24832 0.0
H82 H 0.21092 0.24407 0.25454 0.0
H83 H 0.16578 0.2083 0.2583 0.0
C84 C 0.44254 0.20375 0.20502 0.0
N85 N 0.39375 0.18557 0.20063 0.0
N86 N 0.34528 0.19994 0.2084 0.0
C87 C 0.3632 0.22803 0.21806 0.0
C88 C 0.42516 0.23085 0.21643 0.0
C89 C 0.50571 0.19431 0.19978 0.0
H90 H 0.51996 0.17502 0.21113 0.0
H91 H 0.53744 0.21487 0.20153 0.0
H92 H 0.50844 0.18541 0.18298 0.0
O93 O 0.34678 0.14652 0.16037 0.0
O94 O 0.26064 0.16635 0.17277 0.0
H95 H 0.34439 0.27744 0.2274 0.0
H96 H 0.31521 0.24674 0.24497 0.0
C97 C 0.32295 0.25302 0.22785 0.0
H98 H 0.28 0.25413 0.21901 0.0
H99 H 0.17225 0.20219 0.17644 0.0
O100 O 0.47244 0.12917 0.18123 0.0
C101 C 0.29276 0.15508 0.15757 0.0
Co102 Co 0.86772 0.14562 0.18585 0.0
Co103 Co 0.99246 0.12056 0.20291 0.0
C104 C 0.94162 0.18124 0.22011 0.0
O105 O 0.89729 0.17636 0.2077 0.0
O106 O 0.98548 0.16114 0.22129 0.0
C107 C 0.75248 0.1489 0.2005 0.0
O108 O 0.78332 0.14535 0.21836 0.0
C109 C 0.09029 0.07852 0.223 0.0
C110 C 0.13389 0.06215 0.19299 0.0
C111 C 0.13308 0.05651 0.21495 0.0
N112 N 0.06526 0.09471 0.20631 0.0
N113 N 0.09337 0.08539 0.18859 0.0
C114 C 0.07256 0.08385 0.24595 0.0
H115 H 0.03347 0.10054 0.24698 0.0
H116 H 0.0625 0.06025 0.25391 0.0
H117 H 0.11048 0.09534 0.25465 0.0
C118 C 0.83305 0.07886 0.19478 0.0
N119 N 0.87641 0.10158 0.19363 0.0
N120 N 0.92196 0.09297 0.20576 0.0
C121 C 0.90537 0.06579 0.21673 0.0
C122 C 0.84822 0.05623 0.21019 0.0
C123 C 0.77765 0.07812 0.18118 0.0
H124 H 0.77782 0.09774 0.16895 0.0
H125 H 0.73719 0.0793 0.19154 0.0
H126 H 0.77555 0.0545 0.17255 0.0
O127 O 0.91158 0.15414 0.16008 0.0
O128 O 0.99998 0.13638 0.17196 0.0
H129 H 0.91852 0.02768 0.24024 0.0
H130 H 0.94791 0.0672 0.24739 0.0
C131 C 0.94134 0.04979 0.23397 0.0
H132 H 0.9855 0.0426 0.22731 0.0
H133 H 0.08248 0.09341 0.17316 0.0
O134 O 0.78106 0.15353 0.18303 0.0
C135 C 0.9672 0.14898 0.15732 0.0
Co136 Co 0.6263 0.89657 0.93881 0.0
Co137 Co 0.74799 0.92533 0.9565 0.0
C138 C 0.70753 0.86056 0.9707 0.0
O139 O 0.66333 0.86476 0.95812 0.0
O140 O 0.74689 0.88293 0.9737 0.0
C141 C 0.51304 0.8826 0.95307 0.0
O142 O 0.54345 0.88383 0.97115 0.0
C143 C 0.84664 0.96684 0.97708 0.0
C144 C 0.86965 0.99568 0.94824 0.0
C145 C 0.88184 0.9933 0.97001 0.0
N146 N 0.81479 0.95526 0.96024 0.0
N147 N 0.83019 0.97234 0.94306 0.0
C148 C 0.84439 0.95194 -0.00094 0.0
H149 H 0.8306 0.926 -0.00204 0.0
H150 H 0.81102 0.96487 0.00914 0.0
H151 H 0.88875 0.95378 0.00699 0.0
C152 C 0.58123 0.9598 0.95311 0.0
N153 N 0.62709 0.93893 0.95018 0.0
N154 N 0.6744 0.94937 0.96072 0.0
C155 C 0.65833 0.97643 0.97185 0.0
C156 C 0.59841 0.98353 0.96749 0.0
C157 C 0.52339 0.95934 0.9409 0.0
H158 H 0.52614 0.94302 0.92673 0.0
H159 H 0.48642 0.95183 0.95171 0.0
H160 H 0.51256 0.98438 0.93532 0.0
O161 O 0.66983 0.89485 0.91235 0.0
O162 O 0.75705 0.91292 0.92506 0.0
H163 H 0.7377 1.0033 0.97915 0.0
H164 H 0.67394 1.01376 -0.00419 0.0
C165 C 0.6978 0.99351 0.98762 0.0
H166 H 0.71312 0.97568 -0.00017 0.0
H167 H 0.81132 0.9692 0.92785 0.0
O168 O 0.54174 0.88419 0.9354 0.0
C169 C 0.72484 0.90173 0.90982 0.0
Co170 Co 0.1446 0.8951 0.93589 0.0
Co171 Co 0.02042 0.87227 0.95558 0.0
C172 C 0.06759 0.93675 0.96661 0.0
O173 O 0.11005 0.92918 0.95391 0.0
O174 O 0.02605 0.91619 0.9711 0.0
C175 C 0.25803 0.91061 0.94981 0.0
O176 O 0.22693 0.91237 0.96775 0.0
C177 C 0.92021 0.83113 0.97616 0.0
C178 C 0.87507 0.81614 0.94625 0.0
C179 C 0.87553 0.81005 0.96815 0.0
N180 N 0.94635 0.84696 0.95948 0.0
N181 N 0.91721 0.83844 0.94184 0.0
C182 C 0.93718 0.83695 -0.00089 0.0
H183 H 0.97523 0.85431 0.0001 0.0
H184 H 0.94884 0.81364 0.00714 0.0
H185 H 0.89843 0.84783 0.00775 0.0
C186 C 0.18504 0.83325 0.95252 0.0
N187 N 0.13965 0.85408 0.94888 0.0
N188 N 0.09243 0.84567 0.96039 0.0
C189 C 0.10892 0.81982 0.97278 0.0
C190 C 0.16843 0.81176 0.96835 0.0
C191 C 0.24303 0.83241 0.94035 0.0
H192 H 0.27935 0.8425 0.95047 0.0
H193 H 0.25542 0.80675 0.93678 0.0
H194 H 0.23949 0.84604 0.925 0.0
O195 O 0.10249 0.89569 0.90932 0.0
O196 O 0.01406 0.88329 0.92377 0.0
H197 H 0.02748 0.79652 0.98184 0.0
H198 H 0.09246 0.78204 -0.00374 0.0
C199 C 0.07037 0.80391 -0.01066 0.0
H200 H 0.06148 0.82151 0.0025 0.0
H201 H 0.92794 0.84641 0.92638 0.0
O202 O 0.2301 0.90557 0.93231 0.0
C203 C 0.04645 0.89132 0.9077 0.0
Co204 Co 0.62272 0.89551 0.79351 0.0
Co205 Co 0.74558 0.8713 0.77347 0.0
C206 C 0.70059 0.93629 0.76248 0.0
O207 O 0.65812 0.92923 0.77531 0.0
O208 O 0.74133 0.91525 0.75792 0.0
C209 C 0.50989 0.9087 0.77881 0.0
O210 O 0.54198 0.90909 0.76105 0.0
C211 C 0.84334 0.82794 0.7532 0.0
C212 C 0.88643 0.81207 0.78334 0.0
C213 C 0.88558 0.80577 0.7615 0.0
N214 N 0.81837 0.84475 0.7697 0.0
N215 N 0.84647 0.83568 0.78747 0.0
C216 C 0.8277 0.83356 0.7301 0.0
H217 H 0.79047 0.85139 0.72872 0.0
H218 H 0.81595 0.8102 0.72216 0.0
H219 H 0.8673 0.84382 0.72165 0.0
C220 C 0.58058 0.83356 0.77766 0.0
N221 N 0.62646 0.85422 0.7808 0.0
N222 N 0.67269 0.84556 0.76888 0.0
C223 C 0.65494 0.81983 0.75663 0.0
C224 C 0.59575 0.81199 0.7617 0.0
C225 C 0.52424 0.83231 0.79079 0.0
H226 H 0.52791 0.84753 0.80546 0.0
H227 H 0.48557 0.83997 0.78083 0.0
H228 H 0.51538 0.80673 0.79569 0.0
O229 O 0.66492 0.89563 0.82012 0.0
O230 O 0.75235 0.88212 0.80528 0.0
H231 H 0.66816 0.7829 0.73228 0.0
H232 H 0.702 0.82189 0.72684 0.0
C233 C 0.69194 0.80387 0.73963 0.0
H234 H 0.73432 0.79508 0.74687 0.0
H235 H 0.83618 0.84409 0.80286 0.0
O236 O 0.53719 0.90634 0.7967 0.0
C237 C 0.72082 0.89048 0.8215 0.0
Co238 Co 0.14256 0.89713 0.7906 0.0
Co239 Co 0.02178 0.92671 0.77265 0.0
C240 C 0.05872 0.86081 0.7598 0.0
O241 O 0.10344 0.86474 0.7722 0.0
O242 O 0.0207 0.88372 0.75633 0.0
C243 C 0.25541 0.8784 0.77752 0.0
O244 O 0.22567 0.87748 0.75929 0.0
C245 C 0.92223 0.96768 0.75212 0.0
C246 C 0.90236 0.99832 0.78046 0.0
C247 C 0.88763 0.9945 0.75898 0.0
N248 N 0.95601 0.95717 0.76878 0.0
N249 N 0.94259 0.97536 0.78567 0.0
C250 C 0.92205 0.95139 0.73057 0.0
H251 H 0.9355 0.92545 0.73223 0.0
H252 H 0.95469 0.96345 0.71974 0.0
H253 H 0.87698 0.95302 0.72315 0.0
C254 C 0.19081 0.95843 0.77377 0.0
N255 N 0.14406 0.93858 0.77775 0.0
N256 N 0.09628 0.94952 0.76768 0.0
C257 C 0.11255 0.97595 0.75596 0.0
C258 C 0.17336 0.98208 0.75932 0.0
C259 C 0.25021 0.95701 0.78492 0.0
H260 H 0.24726 0.94273 0.80003 0.0
H261 H 0.28408 0.9463 0.77395 0.0
H262 H 0.26562 0.98205 0.78882 0.0
O263 O 0.09931 0.89798 0.81723 0.0
O264 O 0.01227 0.91552 0.8041 0.0
H265 H 0.09627 1.01217 0.73128 0.0
H266 H 0.05239 0.97527 0.72942 0.0
C267 C 0.07198 0.9933 0.74065 0.0
H268 H 0.03483 1.0049 0.74976 0.0
H269 H 0.96309 0.9731 0.80069 0.0
O270 O 0.22621 0.88348 0.79478 0.0
C271 C 0.04436 0.90511 0.81958 0.0
Co272 Co 0.38915 0.65035 0.53972 0.0
Co273 Co 0.26776 0.62228 0.52146 0.0
C274 C 0.30998 0.68657 0.50732 0.0
O275 O 0.35374 0.6823 0.52009 0.0
O276 O 0.27016 0.66448 0.50422 0.0
C277 C 0.50465 0.66876 0.52829 0.0
O278 O 0.47791 0.67138 0.50952 0.0
C279 C 0.16655 0.58157 0.50151 0.0
C280 C 0.14934 0.55083 0.53002 0.0
C281 C 0.13284 0.55456 0.50869 0.0
N282 N 0.20151 0.59213 0.51785 0.0
N283 N 0.18961 0.57389 0.53485 0.0
C284 C 0.16495 0.59784 0.47997 0.0
H285 H 0.17928 0.62366 0.48146 0.0
H286 H 0.19648 0.58544 0.46885 0.0
H287 H 0.11911 0.5967 0.47308 0.0
C288 C 0.43446 0.58699 0.52462 0.0
N289 N 0.38904 0.6081 0.52796 0.0
N290 N 0.34122 0.59809 0.51753 0.0
C291 C 0.35643 0.57132 0.50599 0.0
C292 C 0.41607 0.56345 0.51021 0.0
C293 C 0.49588 0.58981 0.53411 0.0
H294 H 0.52653 0.60057 0.52199 0.0
H295 H 0.51394 0.56542 0.53819 0.0
H296 H 0.49504 0.60462 0.54899 0.0
O297 O 0.34364 0.65217 0.56584 0.0
O298 O 0.25649 0.63526 0.55254 0.0
H299 H 0.27764 0.5435 0.4996 0.0
H300 H 0.33934 0.53494 0.48156 0.0
C301 C 0.31558 0.55443 0.49057 0.0
H302 H 0.29703 0.57255 0.47914 0.0
H303 H 0.21128 0.57617 0.54965 0.0
O304 O 0.47273 0.66293 0.54479 0.0
C305 C 0.28819 0.64616 0.56796 0.0
Co306 Co 0.87268 0.64906 0.54118 0.0
Co307 Co 0.99442 0.67475 0.52166 0.0
C308 C 0.95075 0.60948 0.51007 0.0
O309 O 0.90758 0.61523 0.52289 0.0
O310 O 0.99039 0.63123 0.50595 0.0
C311 C 0.75739 0.63478 0.52845 0.0
O312 O 0.78574 0.63419 0.50989 0.0
C313 C 0.09155 0.71589 0.5001 0.0
C314 C 0.14008 0.73089 0.52938 0.0
C315 C 0.13704 0.73678 0.5075 0.0
N316 N 0.06762 0.70001 0.51712 0.0
N317 N 0.09876 0.70841 0.53436 0.0
C318 C 0.07047 0.711 0.47751 0.0
H319 H 0.02915 0.69597 0.47729 0.0
H320 H 0.06296 0.73482 0.46946 0.0
H321 H 0.10524 0.69742 0.46839 0.0
C322 C 0.82841 0.71131 0.52562 0.0
N323 N 0.87455 0.6906 0.52842 0.0
N324 N 0.92143 0.70061 0.51729 0.0
C325 C 0.90404 0.72745 0.506 0.0
C326 C 0.84427 0.73441 0.51073 0.0
C327 C 0.77163 0.71167 0.53853 0.0
H328 H 0.7755 0.69632 0.55313 0.0
H329 H 0.73375 0.70368 0.52833 0.0
H330 H 0.76136 0.73704 0.54357 0.0
O331 O 0.91552 0.64932 0.56772 0.0
O332 O 1.00246 0.66453 0.55338 0.0
H333 H 0.98636 0.75095 0.49793 0.0
H334 H 0.92113 0.76929 0.48579 0.0
C335 C 0.94228 0.74586 0.49049 0.0
H336 H 0.94836 0.73106 0.47574 0.0
H337 H 0.08981 0.70036 0.54994 0.0
O338 O 0.78809 0.63776 0.54554 0.0
C339 C 0.97094 0.65551 0.5694 0.0
Co340 Co 0.3863 0.65414 0.68371 0.0
Co341 Co 0.2638 0.67823 0.70397 0.0
C342 C 0.30848 0.61249 0.71381 0.0
O343 O 0.35157 0.61942 0.70123 0.0
O344 O 0.2686 0.63378 0.71868 0.0
C345 C 0.5016 0.63725 0.6959 0.0
O346 O 0.47298 0.63426 0.71431 0.0
C347 C 0.16615 0.71811 0.72658 0.0
C348 C 0.11546 0.73325 0.69781 0.0
C349 C 0.11921 0.73867 0.71975 0.0
N350 N 0.18997 0.70298 0.70922 0.0
N351 N 0.15761 0.71147 0.6923 0.0
C352 C 0.18839 0.71249 0.74896 0.0
H353 H 0.22995 0.69761 0.74867 0.0
H354 H 0.19611 0.73602 0.75731 0.0
H355 H 0.15435 0.69841 0.75808 0.0
C356 C 0.43008 0.715 0.70089 0.0
N357 N 0.38369 0.6948 0.69741 0.0
N358 N 0.33684 0.70409 0.70885 0.0
C359 C 0.35461 0.72998 0.721 0.0
C360 C 0.41459 0.73692 0.7166 0.0
C361 C 0.4873 0.71556 0.68824 0.0
H362 H 0.52393 0.70467 0.69785 0.0
H363 H 0.50049 0.74118 0.68494 0.0
H364 H 0.48217 0.7026 0.67271 0.0
O365 O 0.34301 0.65548 0.65732 0.0
O366 O 0.25543 0.66897 0.67203 0.0
H367 H 0.27214 0.75282 0.72968 0.0
H368 H 0.33741 0.77107 0.74179 0.0
C369 C 0.3165 0.74768 0.7369 0.0
H370 H 0.31115 0.7324 0.75148 0.0
H371 H 0.16612 0.70389 0.67658 0.0
O372 O 0.47125 0.64315 0.67905 0.0
C373 C 0.28729 0.66104 0.65581 0.0
Co374 Co 0.87372 0.64962 0.68688 0.0
Co375 Co 0.99686 0.62159 0.70428 0.0
C376 C 0.95182 0.68548 0.71941 0.0
O377 O 0.90766 0.68143 0.70682 0.0
O378 O 0.99218 0.6635 0.72186 0.0
C379 C 0.75726 0.66394 0.69958 0.0
O380 O 0.78398 0.66268 0.71841 0.0
C381 C 0.0954 0.57951 0.72452 0.0
C382 C 0.14267 0.56545 0.69476 0.0
C383 C 0.14134 0.55899 0.71662 0.0
N384 N 0.06994 0.59551 0.70783 0.0
N385 N 0.10009 0.58751 0.69027 0.0
C386 C 0.07524 0.58418 0.74729 0.0
H387 H 0.03623 0.60099 0.74798 0.0
H388 H 0.06323 0.56042 0.75464 0.0
H389 H 0.11229 0.59511 0.75675 0.0
C390 C 0.83115 0.58501 0.69953 0.0
N391 N 0.87651 0.60643 0.69737 0.0
N392 N 0.92409 0.59562 0.70774 0.0
C393 C 0.90779 0.56787 0.71815 0.0
C394 C 0.84837 0.56055 0.7133 0.0
C395 C 0.77123 0.58743 0.68883 0.0
H396 H 0.77298 0.6037 0.67462 0.0
H397 H 0.73754 0.596 0.70067 0.0
H398 H 0.75653 0.56293 0.68341 0.0
O399 O 0.91749 0.65322 0.66056 0.0
O400 O 1.00461 0.6349 0.67306 0.0
H401 H 0.92561 0.52527 0.73749 0.0
H402 H 0.95361 0.56324 0.748 0.0
C403 C 0.9467 0.54889 0.7331 0.0
H404 H 0.99049 0.54411 0.72529 0.0
H405 H 0.08996 0.59584 0.67484 0.0
O406 O 0.78915 0.66148 0.6827 0.0
C407 C 0.97253 0.64658 0.65796 0.0
Co408 Co 0.61951 0.39708 0.43715 0.0
Co409 Co 0.74228 0.42598 0.45407 0.0
C410 C 0.70091 0.3614 0.46873 0.0
O411 O 0.65605 0.36523 0.45645 0.0
O412 O 0.74037 0.38376 0.47125 0.0
C413 C 0.50625 0.37928 0.45066 0.0
O414 O 0.53599 0.37864 0.4689 0.0
C415 C 0.83964 0.46691 0.4754 0.0
C416 C 0.88357 0.4856 0.44611 0.0
C417 C 0.88421 0.489 0.46831 0.0
N418 N 0.81355 0.45294 0.45809 0.0
N419 N 0.84154 0.46374 0.44075 0.0
C420 C 0.82119 0.45866 0.49791 0.0
H421 H 0.78604 0.4395 0.49785 0.0
H422 H 0.80335 0.48057 0.50616 0.0
H423 H 0.86063 0.44957 0.50701 0.0
C424 C 0.57465 0.46073 0.45118 0.0
N425 N 0.62066 0.43985 0.44829 0.0
N426 N 0.66871 0.45098 0.45817 0.0
C427 C 0.65252 0.47844 0.46892 0.0
C428 C 0.59241 0.48525 0.46483 0.0
C429 C 0.51347 0.45733 0.44159 0.0
H430 H 0.48251 0.44721 0.45385 0.0
H431 H 0.49568 0.48159 0.43696 0.0
H432 H 0.51463 0.44182 0.42702 0.0
O433 O 0.66276 0.39471 0.41066 0.0
O434 O 0.75024 0.4132 0.42275 0.0
H435 H 0.67126 0.52088 0.48825 0.0
H436 H 0.70017 0.48279 0.49834 0.0
C437 C 0.69225 0.49736 0.48359 0.0
H438 H 0.73559 0.50224 0.47549 0.0
H439 H 0.83024 0.45736 0.42503 0.0
O440 O 0.5354 0.38406 0.43336 0.0
C441 C 0.71761 0.40159 0.40778 0.0
Co442 Co 0.13868 0.39606 0.4349 0.0
Co443 Co 0.01673 0.37135 0.45492 0.0
C444 C 0.06106 0.43624 0.46618 0.0
O445 O 0.10358 0.42983 0.45322 0.0
O446 O 0.02116 0.41481 0.47071 0.0
C447 C 0.25141 0.40889 0.4495 0.0
O448 O 0.21929 0.40884 0.46725 0.0
C449 C 0.92048 0.32976 0.47661 0.0
C450 C 0.87441 0.31287 0.44727 0.0
C451 C 0.87674 0.30775 0.46926 0.0
N452 N 0.94417 0.34556 0.45949 0.0
N453 N 0.91445 0.33599 0.44221 0.0
C454 C 0.94027 0.3357 0.49924 0.0
H455 H 0.98059 0.35152 0.49949 0.0
H456 H 0.94893 0.31229 0.50764 0.0
H457 H 0.90426 0.34886 0.508 0.0
C458 C 0.18151 0.33361 0.45005 0.0
N459 N 0.13563 0.35448 0.44735 0.0
N460 N 0.08943 0.34527 0.45909 0.0
C461 C 0.10719 0.3189 0.47077 0.0
C462 C 0.16637 0.31128 0.46556 0.0
C463 C 0.23777 0.33282 0.43686 0.0
H464 H 0.23384 0.34842 0.42237 0.0
H465 H 0.27643 0.34028 0.44686 0.0
H466 H 0.24684 0.30739 0.43165 0.0
O467 O 0.09564 0.39639 0.40842 0.0
O468 O 0.00839 0.38235 0.42321 0.0
H469 H 0.02625 0.29536 0.48029 0.0
H470 H 0.09246 0.27932 0.4931 0.0
C471 C 0.07021 0.30187 0.48732 0.0
H472 H 0.06368 0.3183 0.50128 0.0
H473 H 0.9239 0.34361 0.42656 0.0
O474 O 0.22413 0.40696 0.43158 0.0
C475 C 0.03978 0.39105 0.40704 0.0
Co476 Co 0.6261 0.40086 0.28937 0.0
Co477 Co 0.74898 0.37099 0.27216 0.0
C478 C 0.70919 0.43833 0.26019 0.0
O479 O 0.6638 0.43432 0.27223 0.0
O480 O 0.747 0.4153 0.25668 0.0
C481 C 0.51129 0.43019 0.28305 0.0
O482 O 0.53686 0.44269 0.26585 0.0
C483 C 0.84225 0.32664 0.25057 0.0
C484 C 0.89478 0.3145 0.27951 0.0
C485 C 0.88775 0.30622 0.25813 0.0
N486 N 0.82164 0.34505 0.26708 0.0
N487 N 0.85554 0.33838 0.28401 0.0
C488 C 0.81791 0.32757 0.22819 0.0
H489 H 0.77611 0.34227 0.22751 0.0
H490 H 0.81022 0.30245 0.22218 0.0
H491 H 0.85186 0.33891 0.21747 0.0
C492 C 0.57691 0.34178 0.27011 0.0
N493 N 0.62471 0.3605 0.27484 0.0
N494 N 0.6743 0.34648 0.26771 0.0
C495 C 0.65819 0.31774 0.25845 0.0
C496 C 0.59626 0.31435 0.2595 0.0
C497 C 0.51293 0.35096 0.27423 0.0
H498 H 0.50132 0.37177 0.2637 0.0
H499 H 0.48122 0.33101 0.27049 0.0
H500 H 0.50701 0.35775 0.29136 0.0
O501 O 0.66932 0.39762 0.31602 0.0
O502 O 0.75732 0.38049 0.30365 0.0
H503 H 0.68007 0.26771 0.25197 0.0
H504 H 0.70732 0.29641 0.23267 0.0
C505 C 0.70007 0.29234 0.25011 0.0
H506 H 0.74302 0.29309 0.25895 0.0
H507 H 0.84959 0.3485 0.29925 0.0
O508 O 0.54326 0.41403 0.29615 0.0
C509 C 0.7238 0.39013 0.31892 0.0
Co510 Co 0.1415 0.40446 0.29191 0.0
Co511 Co 0.0189 0.42959 0.2725 0.0
C512 C 0.06912 0.36621 0.25862 0.0
O513 O 0.11158 0.37139 0.27179 0.0
O514 O 0.02802 0.38751 0.25534 0.0
C515 C 0.25898 0.39602 0.27966 0.0
O516 O 0.23168 0.398 0.26096 0.0
C517 C 0.92222 0.46966 0.25011 0.0
C518 C 0.86928 0.48356 0.27872 0.0
C519 C 0.87454 0.4898 0.25689 0.0
N520 N 0.94482 0.45393 0.26741 0.0
N521 N 0.91129 0.46169 0.28422 0.0
C522 C 0.94772 0.46575 0.22799 0.0
H523 H 0.99054 0.45199 0.22861 0.0
H524 H 0.95443 0.48986 0.22025 0.0
H525 H 0.9162 0.45124 0.21808 0.0
C526 C 0.17976 0.47035 0.28079 0.0
N527 N 0.13621 0.44765 0.28161 0.0
N528 N 0.0899 0.45728 0.27009 0.0
C529 C 0.10588 0.48555 0.26019 0.0
C530 C 0.16343 0.49439 0.26656 0.0
C531 C 0.23623 0.47011 0.2938 0.0
H532 H 0.23396 0.45211 0.30705 0.0
H533 H 0.2751 0.46548 0.28311 0.0
H534 H 0.24342 0.49449 0.30105 0.0
O535 O 0.09537 0.40011 0.31763 0.0
O536 O 0.00834 0.41639 0.30373 0.0
H537 H 0.08746 0.52888 0.24169 0.0
H538 H 0.06618 0.49107 0.22925 0.0
C539 C 0.06814 0.50436 0.24475 0.0
H540 H 0.02247 0.50734 0.25145 0.0
H541 H 0.91906 0.45357 0.29988 0.0
O542 O 0.22709 0.39505 0.29662 0.0
C543 C 0.03958 0.40558 0.31935 0.0
Co544 Co 0.88995 0.14544 0.54085 0.0
Co545 Co 0.76706 0.12054 0.52206 0.0
C546 C 0.81696 0.18474 0.50913 0.0
O547 O 0.85984 0.17975 0.52205 0.0
O548 O 0.7768 0.16314 0.50572 0.0
C549 C 1.00437 0.15798 0.52774 0.0
O550 O 0.9745 0.15742 0.50953 0.0
C551 C 0.67479 0.08414 0.4965 0.0
C552 C 0.60591 0.07609 0.52139 0.0
C553 C 0.61983 0.06849 0.50023 0.0
N554 N 0.69211 0.09946 0.51461 0.0
N555 N 0.64954 0.09534 0.52918 0.0
C556 C 0.71073 0.08508 0.47618 0.0
H557 H 0.75735 0.09294 0.47954 0.0
H558 H 0.70974 0.06111 0.46791 0.0
H559 H 0.6917 0.10393 0.46539 0.0
C560 C 0.93025 0.08071 0.5274 0.0
N561 N 0.88602 0.10299 0.529 0.0
N562 N 0.83745 0.0921 0.51925 0.0
C563 C 0.85177 0.06275 0.51034 0.0
C564 C 0.91121 0.05528 0.51487 0.0
C565 C 0.9896 0.08204 0.53858 0.0
H566 H 0.98795 0.09827 0.55279 0.0
H567 H 0.02448 0.08996 0.52702 0.0
H568 H 1.0026 0.0573 0.54412 0.0
O569 O 0.84352 0.14734 0.56689 0.0
O570 O 0.75561 0.13142 0.55343 0.0
H571 H 0.7637 0.04272 0.50594 0.0
H572 H 0.8242 1.0142 0.50207 0.0
C573 C 0.80961 0.0398 0.49947 0.0
H574 H 0.81065 0.04419 0.48186 0.0
H575 H 0.65161 0.10423 0.5449 0.0
O576 O 0.97517 0.15595 0.54529 0.0
C577 C 0.78791 0.14144 0.56898 0.0
Co578 Co 0.37491 0.15329 0.54322 0.0
Co579 Co 0.49716 0.17737 0.5229 0.0
C580 C 0.44919 0.11375 0.51054 0.0
O581 O 0.40791 0.12045 0.52391 0.0
O582 O 0.4907 0.13447 0.50644 0.0
C583 C 0.26143 0.13621 0.53018 0.0
O584 O 0.29162 0.13508 0.51201 0.0
C585 C 0.59526 0.2183 0.50143 0.0
C586 C 0.64188 0.23422 0.5309 0.0
C587 C 0.64019 0.23949 0.50893 0.0
N588 N 0.57045 0.20276 0.51845 0.0
N589 N 0.60044 0.21176 0.53581 0.0
C590 C 0.57544 0.21293 0.47873 0.0
H591 H 0.53438 0.19769 0.47835 0.0
H592 H 0.56798 0.23657 0.47046 0.0
H593 H 0.61088 0.19938 0.46995 0.0
C594 C 0.33165 0.21506 0.52732 0.0
N595 N 0.37802 0.19478 0.53075 0.0
N596 N 0.42458 0.20388 0.51911 0.0
C597 C 0.4068 0.22974 0.50696 0.0
C598 C 0.34703 0.23693 0.51153 0.0
C599 C 0.27356 0.21471 0.53944 0.0
H600 H 0.23822 0.20337 0.52945 0.0
H601 H 0.25888 0.2401 0.54273 0.0
H602 H 0.27826 0.20153 0.55493 0.0
O603 O 0.41943 0.15191 0.56938 0.0
O604 O 0.50645 0.16563 0.55441 0.0
H605 H 0.48853 0.25242 0.49739 0.0
H606 H 0.4227 0.26932 0.48477 0.0
C607 C 0.44424 0.24647 0.49041 0.0
H608 H 0.45001 0.23008 0.47638 0.0
H609 H 0.59048 0.20417 0.55142 0.0
O610 O 0.28991 0.14194 0.54748 0.0
C611 C 0.47542 0.15674 0.57061 0.0
Co612 Co 0.89197 0.15351 0.68412 0.0
Co613 Co 0.76933 0.17737 0.70446 0.0
C614 C 0.81669 0.11327 0.71623 0.0
O615 O 0.85866 0.12029 0.70318 0.0
O616 O 0.77531 0.13401 0.72057 0.0
C617 C 0.00751 0.14084 0.69732 0.0
O618 O 0.97866 0.14095 0.7158 0.0
C619 C 0.67106 0.21976 0.72523 0.0
C620 C 0.62492 0.23442 0.69542 0.0
C621 C 0.6266 0.24104 0.71724 0.0
N622 N 0.696 0.2033 0.70857 0.0
N623 N 0.66626 0.21165 0.69101 0.0
C624 C 0.68896 0.21442 0.74814 0.0
H625 H 0.72681 0.1969 0.74911 0.0
H626 H 0.70122 0.23788 0.75584 0.0
H627 H 0.65046 0.20393 0.75711 0.0
C628 C 0.93258 0.21699 0.6983 0.0
N629 N 0.88761 0.19546 0.69593 0.0
N630 N 0.84184 0.20378 0.70818 0.0
C631 C 0.85943 0.22982 0.7201 0.0
C632 C 0.91764 0.23867 0.71429 0.0
C633 C 0.98984 0.21702 0.68566 0.0
H634 H 0.98695 0.20076 0.67148 0.0
H635 H 0.02764 0.21005 0.69628 0.0
H636 H 0.99935 0.24202 0.67978 0.0
O637 O 0.848 0.15155 0.65796 0.0
O638 O 0.76085 0.16539 0.67289 0.0
H639 H 0.77928 0.25363 0.73005 0.0
H640 H 0.84569 0.2677 0.74372 0.0
C641 C 0.82263 0.24593 0.73709 0.0
H642 H 0.81447 0.22839 0.75034 0.0
H643 H 0.67608 0.20324 0.67558 0.0
O644 O 0.97722 0.14291 0.68007 0.0
C645 C 0.79198 0.15638 0.65672 0.0
Co646 Co 0.37767 0.15336 0.68697 0.0
Co647 Co 0.49744 0.12384 0.70579 0.0
C648 C 0.45866 0.18954 0.71884 0.0
O649 O 0.41466 0.18558 0.7061 0.0
O650 O 0.49709 0.16679 0.72227 0.0
C651 C 0.26205 0.17099 0.69849 0.0
O652 O 0.28866 0.17206 0.71735 0.0
C653 C 0.59563 0.08235 0.72693 0.0
C654 C 0.6174 0.05235 0.69848 0.0
C655 C 0.63068 0.05563 0.72011 0.0
N656 N 0.56303 0.09327 0.71007 0.0
N657 N 0.57758 0.07544 0.69313 0.0
C658 C 0.59393 0.09801 0.74867 0.0
H659 H 0.57981 0.12388 0.74722 0.0
H660 H 0.56092 0.08533 0.75904 0.0
H661 H 0.63857 0.09656 0.75645 0.0
C662 C 0.32877 0.09194 0.70299 0.0
N663 N 0.3759 0.11168 0.6994 0.0
N664 N 0.42267 0.10103 0.71019 0.0
C665 C 0.40512 0.07503 0.72209 0.0
C666 C 0.34462 0.0689 0.7181 0.0
C667 C 0.27123 0.09251 0.69059 0.0
H668 H 0.27621 0.10653 0.67544 0.0
H669 H 0.23506 0.10305 0.70061 0.0
H670 H 0.25744 0.06721 0.68663 0.0
O671 O 0.42278 0.15334 0.6608 0.0
O672 O 0.50879 0.13508 0.67433 0.0
H673 H 0.48338 0.04732 0.7297 0.0
H674 H 0.41944 0.03848 0.7467 0.0
C675 C 0.44409 0.05802 0.73808 0.0
H676 H 0.46065 0.07611 0.7499 0.0
H677 H 0.55812 0.07802 0.67797 0.0
O678 O 0.29408 0.16629 0.68186 0.0
C679 C 0.47768 0.14594 0.65871 0.0
Co680 Co 0.11808 0.89609 0.43706 0.0
Co681 Co 0.23837 0.92387 0.4555 0.0
C682 C 0.20035 0.8595 0.46875 0.0
O683 O 0.15615 0.86413 0.45621 0.0
O684 O 0.23985 0.88161 0.47217 0.0
C685 C 1.00604 0.88325 0.45187 0.0
O686 O 0.03752 0.88458 0.46971 0.0
C687 C 0.34657 0.96415 0.47162 0.0
C688 C 0.3319 1.00425 0.44866 0.0
C689 C 0.36972 0.99432 0.46499 0.0
N690 N 0.29954 0.9564 0.45889 0.0
N691 N 0.2922 0.98051 0.44506 0.0
C692 C 0.36613 0.94448 0.49058 0.0
H693 H 0.3575 0.9182 0.48765 0.0
H694 H 0.33976 0.95209 0.5049 0.0
H695 H 0.41442 0.94864 0.49397 0.0
C696 C 0.07332 0.95939 0.45234 0.0
N697 N 0.11835 0.93812 0.44888 0.0
N698 N 0.16467 0.94636 0.46064 0.0
C699 C 0.14871 0.97167 0.47335 0.0
C700 C 0.0901 0.98073 0.46842 0.0
C701 C 0.01524 0.96014 0.44028 0.0
H702 H 0.01468 0.94211 0.42704 0.0
H703 H 0.97741 0.95628 0.45158 0.0
H704 H 0.00881 0.98464 0.43312 0.0
O705 O 0.16153 0.89491 0.41056 0.0
O706 O 0.24822 0.91249 0.42398 0.0
H707 H 0.21493 1.00662 0.48217 0.0
H708 H 0.16209 0.99745 0.50322 0.0
C709 C 0.18874 0.98677 0.48985 0.0
H710 H 0.22072 0.96837 0.49618 0.0
H711 H 0.25792 0.98134 0.43365 0.0
O712 O 0.03383 0.88365 0.43399 0.0
C713 C 0.21669 0.90178 0.4084 0.0
Co714 Co 0.63992 0.89885 0.43628 0.0
Co715 Co 0.51589 0.87191 0.45362 0.0
C716 C 0.55959 0.93672 0.46703 0.0
O717 O 0.60502 0.93149 0.45523 0.0
O718 O 0.51801 0.91544 0.46941 0.0
C719 C 0.75325 0.9161 0.44991 0.0
O720 O 0.72306 0.91777 0.46806 0.0
C721 C 0.41868 0.83031 0.47471 0.0
C722 C 0.37377 0.81331 0.44517 0.0
C723 C 0.37486 0.8084 0.46721 0.0
N724 N 0.44344 0.84579 0.45766 0.0
N725 N 0.41453 0.83614 0.44023 0.0
C726 C 0.43831 0.83619 0.49737 0.0
H727 H 0.47945 0.85138 0.49764 0.0
H728 H 0.4458 0.81275 0.50588 0.0
H729 H 0.40284 0.85001 0.50597 0.0
C730 C 0.68355 0.83675 0.45179 0.0
N731 N 0.63703 0.85686 0.44816 0.0
N732 N 0.58919 0.84639 0.45854 0.0
C733 C 0.60616 0.81976 0.47014 0.0
C734 C 0.6668 0.81357 0.46653 0.0
C735 C 0.74236 0.83759 0.44017 0.0
H736 H 0.73887 0.8517 0.42501 0.0
H737 H 0.77715 0.848 0.4508 0.0
H738 H 0.75687 0.81237 0.43627 0.0
O739 O 0.59703 0.90112 0.40974 0.0
O740 O 0.50892 0.88395 0.42215 0.0
H741 H 0.58757 0.77732 0.48957 0.0
H742 H 0.55968 0.81524 0.49994 0.0
C743 C 0.56675 0.80091 0.48504 0.0
H744 H 0.52323 0.79607 0.47714 0.0
H745 H 0.42489 0.84361 0.42462 0.0
O746 O 0.72461 0.91065 0.43261 0.0
C747 C 0.5419 0.89485 0.40702 0.0
Co748 Co 0.1251 0.90355 0.29135 0.0
Co749 Co 0.24526 0.87391 0.27266 0.0
C750 C 0.20521 0.93926 0.25918 0.0
O751 O 0.16169 0.9357 0.27219 0.0
O752 O 0.24371 0.9165 0.25584 0.0
C753 C 0.01073 0.92394 0.28016 0.0
O754 O 0.03808 0.92643 0.26147 0.0
C755 C 0.34645 0.83362 0.25184 0.0
C756 C 0.36267 0.80136 0.27967 0.0
C757 C 0.38024 0.80645 0.25858 0.0
N758 N 0.31053 0.84321 0.26823 0.0
N759 N 0.32173 0.82399 0.28481 0.0
C760 C 0.34959 0.85102 0.2307 0.0
H761 H 0.33683 0.877 0.23279 0.0
H762 H 0.31755 0.83986 0.21924 0.0
H763 H 0.39548 0.84929 0.22381 0.0
C764 C 0.07606 0.84254 0.27426 0.0
N765 N 0.12294 0.86221 0.27837 0.0
N766 N 0.1708 0.85111 0.26836 0.0
C767 C 0.15466 0.82473 0.25664 0.0
C768 C 0.09375 0.81879 0.25988 0.0
C769 C 0.01594 0.84459 0.28494 0.0
H770 H 0.01888 0.85777 0.30047 0.0
H771 H 0.98394 0.85694 0.27404 0.0
H772 H 0.99815 0.81973 0.28797 0.0
O773 O 0.17009 0.90239 0.3176 0.0
O774 O 0.25644 0.88448 0.30409 0.0
H775 H 0.1707 0.79026 0.23088 0.0
H776 H 0.21998 0.82533 0.23151 0.0
C777 C 0.19566 0.80724 0.24149 0.0
H778 H 0.22931 0.79331 0.25089 0.0
H779 H 0.29943 0.82544 0.29956 0.0
O780 O 0.04181 0.91699 0.29665 0.0
C781 C 0.22489 0.89486 0.31975 0.0
Co782 Co 0.63841 0.90887 0.29176 0.0
Co783 Co 0.51446 0.92823 0.27091 0.0
C784 C 0.56518 0.86393 0.26192 0.0
O785 O 0.60686 0.87317 0.27441 0.0
O786 O 0.52282 0.88351 0.25666 0.0
C787 C 0.75538 0.89628 0.27966 0.0
O788 O 0.72802 0.89478 0.26096 0.0
C789 C 0.41443 0.96662 0.24866 0.0
C790 C 0.36374 0.98102 0.27766 0.0
C791 C 0.36723 0.98685 0.25575 0.0
N792 N 0.43882 0.95142 0.26587 0.0
N793 N 0.40635 0.9594 0.28292 0.0
C794 C 0.43564 0.96088 0.22615 0.0
H795 H 0.47712 0.94593 0.22619 0.0
H796 H 0.44301 0.98434 0.21766 0.0
H797 H 0.40112 0.94678 0.21732 0.0
C798 C 0.67587 0.97117 0.27477 0.0
N799 N 0.63199 0.94925 0.27801 0.0
N800 N 0.58533 0.95607 0.26582 0.0
C801 C 0.60144 0.98169 0.25313 0.0
C802 C 0.65952 0.99155 0.25827 0.0
C803 C 0.73336 0.97288 0.28717 0.0
H804 H 0.73098 0.95822 0.3021 0.0
H805 H 0.77109 0.96492 0.27678 0.0
H806 H 0.74257 0.99847 0.29184 0.0
O807 O 0.59525 0.90974 0.31807 0.0
O808 O 0.50659 0.91918 0.30296 0.0
H809 H 0.58376 1.02007 0.23027 0.0
H810 H 0.55811 0.98016 0.22262 0.0
C811 C 0.56318 0.99719 0.23633 0.0
H812 H 0.51878 1.003 0.24334 0.0
H813 H 0.41518 0.95171 0.29858 0.0
O814 O 0.72378 0.89968 0.29654 0.0
C815 C 0.53894 0.91318 0.31938 0.0
Co816 Co 0.89069 0.65239 0.04069 0.0
Co817 Co 0.77086 0.62349 0.02156 0.0
C818 C 0.80838 0.68934 0.00925 0.0
O819 O 0.8525 0.68492 0.0219 0.0
O820 O 0.76991 0.66673 0.00551 0.0
C821 C 1.0058 0.66968 0.02861 0.0
O822 O 0.97789 0.67124 0.01001 0.0
C823 C 0.66661 0.58337 0.00255 0.0
C824 C 0.67271 0.54331 0.02624 0.0
C825 C 0.64231 0.55261 0.00784 0.0
N826 N 0.70984 0.5907 0.01701 0.0
N827 N 0.71197 0.56678 0.03121 0.0
C828 C 0.64693 0.60667 0.98545 0.0
H829 H 0.65038 0.63206 -0.00848 0.0
H830 H 0.67741 0.60462 0.97137 0.0
H831 H 0.60006 0.60171 0.98046 0.0
C832 C 0.93818 0.59014 0.02442 0.0
N833 N 0.89252 0.61104 0.02782 0.0
N834 N 0.8457 0.60163 0.01665 0.0
C835 C 0.86189 0.57575 0.00445 0.0
C836 C 0.92108 0.56762 0.00914 0.0
C837 C 0.99771 0.59119 0.03549 0.0
H838 H 0.03222 0.59999 0.02403 0.0
H839 H 0.01133 0.5663 0.04044 0.0
H840 H 0.99594 0.60667 0.05007 0.0
O841 O 0.8454 0.65104 0.06692 0.0
O842 O 0.75922 0.63339 0.05311 0.0
H843 H 0.79457 0.54068 -0.00299 0.0
H844 H 0.84825 0.54707 0.97576 0.0
C845 C 0.82172 0.55937 -0.01146 0.0
H846 H 0.79064 0.57742 0.98128 0.0
H847 H 0.74202 0.56602 0.04407 0.0
O848 O 0.97464 0.66532 0.04551 0.0
C849 C 0.79045 0.64358 0.06888 0.0
Co850 Co 0.375 0.64654 0.04019 0.0
Co851 Co 0.49849 0.67456 0.02281 0.0
C852 C 0.45609 0.61018 0.00835 0.0
O853 O 0.4113 0.61468 0.02069 0.0
O854 O 0.49623 0.63221 0.00564 0.0
C855 C 0.25834 0.63414 0.0269 0.0
O856 O 0.28608 0.63493 0.00822 0.0
C857 C 0.59634 0.71827 0.00331 0.0
C858 C 0.63923 0.73357 0.0336 0.0
C859 C 0.63945 0.73994 0.01173 0.0
N860 N 0.57047 0.70173 0.01973 0.0
N861 N 0.59817 0.71049 0.03761 0.0
C862 C 0.57987 0.71296 0.98026 0.0
H863 H 0.54214 0.69543 0.97899 0.0
H864 H 0.56791 0.73643 0.9725 0.0
H865 H 0.61891 0.70246 0.97159 0.0
C866 C 0.33174 0.70987 0.02689 0.0
N867 N 0.37806 0.68929 0.02955 0.0
N868 N 0.42498 0.69979 0.01868 0.0
C869 C 0.40735 0.7266 0.00745 0.0
C870 C 0.34739 0.73327 0.01216 0.0
C871 C 0.27496 0.70975 0.0398 0.0
H872 H 0.27851 0.69342 0.05395 0.0
H873 H 0.23682 0.70275 0.02942 0.0
H874 H 0.26536 0.73484 0.04557 0.0
O875 O 0.41746 0.6433 0.06659 0.0
O876 O 0.50526 0.66094 0.05418 0.0
H877 H 0.4877 0.75188 -0.00067 0.0
H878 H 0.42209 0.76641 0.98527 0.0
C879 C 0.44523 0.74443 -0.00846 0.0
H880 H 0.45528 0.72802 0.97784 0.0
H881 H 0.58718 0.702 0.05292 0.0
O882 O 0.28975 0.63532 0.04393 0.0
C883 C 0.47261 0.6495 0.06927 0.0
Co884 Co 0.89396 0.64807 0.18581 0.0
Co885 Co 0.77342 0.67738 0.20411 0.0
C886 C 0.81127 0.61176 0.21715 0.0
O887 O 0.85575 0.6159 0.20462 0.0
O888 O 0.77264 0.63441 0.22057 0.0
C889 C 1.00679 0.62925 0.19854 0.0
O890 O 0.97698 0.62802 0.21679 0.0
C891 C 0.67457 0.71718 0.22559 0.0
C892 C 0.66106 0.75269 0.19928 0.0
C893 C 0.64334 0.74594 0.22018 0.0
N894 N 0.70964 0.70859 0.20878 0.0
N895 N 0.7001 0.72966 0.19308 0.0
C896 C 0.66878 0.69658 0.24535 0.0
H897 H 0.67305 0.67051 0.2409 0.0
H898 H 0.70594 0.702 0.25661 0.0
H899 H 0.62519 0.70082 0.25348 0.0
C900 C 0.94218 0.70908 0.20264 0.0
N901 N 0.89533 0.68945 0.19849 0.0
N902 N 0.84787 0.69989 0.20898 0.0
C903 C 0.8644 0.72572 0.22118 0.0
C904 C 0.92514 0.73189 0.21775 0.0
C905 C 1.00081 0.70848 0.19087 0.0
H906 H 0.99691 0.69483 0.17554 0.0
H907 H 0.03572 0.69741 0.20118 0.0
H908 H 0.01552 0.73377 0.18734 0.0
O909 O 0.84945 0.64818 0.15955 0.0
O910 O 0.76254 0.66629 0.17262 0.0
H911 H 0.78978 0.75686 0.22759 0.0
H912 H 0.84912 0.75966 0.2473 0.0
C913 C 0.82385 0.7428 0.2367 0.0
H914 H 0.80002 0.72449 0.24665 0.0
H915 H 0.72242 0.72912 0.1783 0.0
O916 O 0.97773 0.63477 0.18134 0.0
C917 C 0.79453 0.65539 0.15718 0.0
Co918 Co 0.37361 0.64754 0.18562 0.0
Co919 Co 0.49449 0.62334 0.20585 0.0
C920 C 0.45393 0.68879 0.21597 0.0
O921 O 0.4108 0.68173 0.20339 0.0
O922 O 0.49427 0.66759 0.22067 0.0
C923 C 0.26032 0.661 0.19944 0.0
O924 O 0.29122 0.66175 0.21742 0.0
C925 C 0.59808 0.5834 0.2254 0.0
C926 C 0.59917 0.54621 0.19975 0.0
C927 C 0.6258 0.55361 0.2193 0.0
N928 N 0.55734 0.59163 0.21023 0.0
N929 N 0.55933 0.56938 0.19494 0.0
C930 C 0.61005 0.60494 0.24429 0.0
H931 H 0.59221 0.62976 0.24115 0.0
H932 H 0.58621 0.59538 0.25864 0.0
H933 H 0.65895 0.60653 0.24743 0.0
C934 C 0.33049 0.58591 0.20363 0.0
N935 N 0.37497 0.60716 0.19951 0.0
N936 N 0.42117 0.60054 0.21179 0.0
C937 C 0.40541 0.57637 0.22549 0.0
C938 C 0.34709 0.56642 0.22073 0.0
C939 C 0.27315 0.58342 0.19122 0.0
H940 H 0.27306 0.59983 0.17707 0.0
H941 H 0.23457 0.58844 0.20199 0.0
H942 H 0.26764 0.55811 0.18528 0.0
O943 O 0.41687 0.64492 0.15914 0.0
O944 O 0.50445 0.63167 0.17392 0.0
H945 H 0.47846 0.54621 0.23511 0.0
H946 H 0.41967 0.54938 0.25495 0.0
C947 C 0.44555 0.56304 0.24263 0.0
H948 H 0.47094 0.5832 0.25027 0.0
H949 H 0.5316 0.5694 0.18143 0.0
O950 O 0.28875 0.65891 0.18173 0.0
C951 C 0.47258 0.63908 0.15764 0.0
Co952 Co 0.12318 0.40131 0.93605 0.0
Co953 Co 0.24727 0.42812 0.95366 0.0
C954 C 0.20435 0.36243 0.96588 0.0
O955 O 0.1598 0.36735 0.95364 0.0
O956 O 0.24369 0.38456 0.96939 0.0
C957 C 0.00945 0.38159 0.94899 0.0
O958 O 0.03886 0.37876 0.96721 0.0
C959 C 0.34621 0.469 0.97474 0.0
C960 C 0.39567 0.48265 0.94536 0.0
C961 C 0.39302 0.48918 0.96719 0.0
N962 N 0.32127 0.45326 0.95785 0.0
N963 N 0.35286 0.46092 0.94055 0.0
C964 C 0.32501 0.46441 -0.00261 0.0
H965 H 0.28505 0.44828 -0.00218 0.0
H966 H 0.31427 0.48827 0.00485 0.0
H967 H 0.36114 0.45271 0.00693 0.0
C968 C 0.07974 0.46367 0.95237 0.0
N969 N 0.12542 0.44275 0.94912 0.0
N970 N 0.17426 0.45374 0.95865 0.0
C971 C 0.15883 0.48146 0.96932 0.0
C972 C 0.09856 0.48827 0.96568 0.0
C973 C 0.01824 0.4607 0.94298 0.0
H974 H 0.01957 0.44719 0.92756 0.0
H975 H 0.98857 0.44835 0.95475 0.0
H976 H 0.99881 0.48516 0.9399 0.0
O977 O 0.16456 0.40275 0.90911 0.0
O978 O 0.25317 0.41818 0.92192 0.0
H979 H 0.18002 0.52587 0.98616 0.0
H980 H 0.20668 0.48894 -0.00156 0.0
C981 C 0.19975 0.50151 0.98285 0.0
H982 H 0.2432 0.5047 0.97449 0.0
H983 H 0.34365 0.45262 0.92505 0.0
O984 O 0.03864 0.38891 0.93208 0.0
C985 C 0.21964 0.40922 0.90646 0.0
Co986 Co 0.64037 0.39794 0.93476 0.0
Co987 Co 0.51717 0.37281 0.95334 0.0
C988 C 0.56148 0.43713 0.96609 0.0
O989 O 0.60515 0.43086 0.95362 0.0
O990 O 0.52088 0.4158 0.96988 0.0
C991 C 0.75344 0.40787 0.95012 0.0
O992 O 0.72154 0.40547 0.96785 0.0
C993 C 0.4202 0.3318 0.97472 0.0
C994 C 0.37325 0.31536 0.94544 0.0
C995 C 0.37545 0.31031 0.96747 0.0
N996 N 0.44428 0.34728 0.95757 0.0
N997 N 0.41424 0.33797 0.9403 0.0
C998 C 0.44152 0.33716 -0.00275 0.0
H999 H 0.48332 0.35181 -0.00275 0.0
H1000 H 0.44848 0.31354 0.0056 0.0
H1001 H 0.40724 0.35134 0.0062 0.0
C1002 C 0.68014 0.33336 0.94728 0.0
N1003 N 0.63556 0.35533 0.9456 0.0
N1004 N 0.58928 0.34611 0.95728 0.0
C1005 C 0.60624 0.31888 0.96821 0.0
C1006 C 0.66444 0.31029 0.96227 0.0
C1007 C 0.73733 0.3338 0.93459 0.0
H1008 H 0.73547 0.35175 0.92131 0.0
H1009 H 0.77563 0.33864 0.94547 0.0
H1010 H 0.74525 0.30943 0.92742 0.0
O1011 O 0.59815 0.40084 0.90825 0.0
O1012 O 0.51007 0.38508 0.92167 0.0
H1013 H 0.52411 0.29592 0.97714 0.0
H1014 H 0.58991 0.27735 -0.01131 0.0
C1015 C 0.56875 0.30089 0.98417 0.0
H1016 H 0.56379 0.3159 -0.00111 0.0
H1017 H 0.42397 0.34552 0.92465 0.0
O1018 O 0.72605 0.40868 0.93219 0.0
C1019 C 0.54253 0.39524 0.90612 0.0
Co1020 Co 0.12202 0.4006 0.78695 0.0
Co1021 Co 0.2478 0.37279 0.7714 0.0
C1022 C 0.20556 0.43753 0.7567 0.0
O1023 O 0.15966 0.43288 0.76841 0.0
O1024 O 0.24593 0.41551 0.75438 0.0
C1025 C 0.00725 0.4203 0.77397 0.0
O1026 O 0.03588 0.4236 0.75559 0.0
C1027 C 0.3474 0.33078 0.75178 0.0
C1028 C 0.39344 0.31694 0.78179 0.0
C1029 C 0.39256 0.31019 0.75997 0.0
N1030 N 0.32143 0.34704 0.76829 0.0
N1031 N 0.35101 0.33926 0.78599 0.0
C1032 C 0.32821 0.3349 0.72889 0.0
H1033 H 0.28793 0.35076 0.72791 0.0
H1034 H 0.31896 0.31084 0.72146 0.0
H1035 H 0.36493 0.34673 0.71969 0.0
C1036 C 0.08018 0.33717 0.77238 0.0
N1037 N 0.12564 0.35817 0.77559 0.0
N1038 N 0.1751 0.34678 0.76664 0.0
C1039 C 0.16036 0.31862 0.75635 0.0
C1040 C 0.09983 0.312 0.75965 0.0
C1041 C 0.0177 0.34111 0.7808 0.0
H1042 H 0.99005 0.35351 0.76846 0.0
H1043 H 0.99683 0.31703 0.78389 0.0
H1044 H 0.01777 0.35501 0.79607 0.0
O1045 O 0.16271 0.40285 0.81381 0.0
O1046 O 0.25237 0.3858 0.80284 0.0
H1047 H 0.18259 0.27359 0.74038 0.0
H1048 H 0.2102 0.31002 0.72771 0.0
C1049 C 0.20215 0.29804 0.74344 0.0
H1050 H 0.24503 0.2951 0.75217 0.0
H1051 H 0.34045 0.34787 0.80132 0.0
O1052 O 0.03727 0.41301 0.79065 0.0
C1053 C 0.21754 0.39682 0.81741 0.0
Co1054 Co 0.64046 0.40061 0.78931 0.0
Co1055 Co 0.51947 0.42747 0.7703 0.0
C1056 C 0.5594 0.36251 0.75786 0.0
O1057 O 0.60323 0.36761 0.77052 0.0
O1058 O 0.51989 0.38456 0.75411 0.0
C1059 C 0.75307 0.38923 0.77431 0.0
O1060 O 0.72091 0.39033 0.75661 0.0
C1061 C 0.41551 0.46654 0.75065 0.0
C1062 C 0.41586 0.50565 0.7751 0.0
C1063 C 0.38899 0.49676 0.75592 0.0
N1064 N 0.45666 0.45919 0.76585 0.0
N1065 N 0.45534 0.48248 0.78051 0.0
C1066 C 0.39981 0.44366 0.7328 0.0
H1067 H 0.40359 0.4181 0.73854 0.0
H1068 H 0.43238 0.44663 0.71941 0.0
H1069 H 0.35356 0.44815 0.72693 0.0
C1070 C 0.68341 0.46422 0.7741 0.0
N1071 N 0.63905 0.44245 0.77713 0.0
N1072 N 0.59281 0.4505 0.76524 0.0
C1073 C 0.60848 0.47617 0.75278 0.0
C1074 C 0.6666 0.48571 0.75809 0.0
C1075 C 0.74078 0.4654 0.78658 0.0
H1076 H 0.74106 0.44742 0.79986 0.0
H1077 H 0.77936 0.46177 0.77558 0.0
H1078 H 0.74618 0.48994 0.79378 0.0
O1079 O 0.59664 0.40065 0.81586 0.0
O1080 O 0.50961 0.41722 0.80199 0.0
H1081 H 0.59526 0.5043 0.72379 0.0
H1082 H 0.54065 0.47207 0.72848 0.0
C1083 C 0.56865 0.49115 0.73616 0.0
H1084 H 0.53822 0.50887 0.74413 0.0
H1085 H 0.48342 0.48316 0.79392 0.0
O1086 O 0.72581 0.38915 0.79232 0.0
C1087 C 0.54132 0.40742 0.81779 0.0
C1088 C 0.46333 1.01386 -0.00113 0.0
C1089 C 0.46851 0.04783 -0.00272 0.0
C1090 C 0.50675 0.99336 -0.01036 0.0
C1091 C 0.55671 1.00611 0.97857 0.0
H1092 H 0.4262 1.00313 0.00763 0.0
H1093 H 0.50143 0.96725 -0.00877 0.0
S1094 S 0.58898 0.09334 0.96897 0.0
N1095 N 0.52605 0.0934 0.98306 0.0
N1096 N 0.60774 0.05464 0.96593 0.0
C1097 C 0.56213 0.03997 0.97673 0.0
C1098 C 0.51788 0.06088 0.98602 0.0
C1099 C 0.72912 0.30223 -0.0055 0.0
C1100 C 0.70883 0.2908 0.97445 0.0
C1101 C 0.77771 0.28737 0.005 0.0
C1102 C 0.808 0.26082 -0.00432 0.0
H1103 H 0.70801 0.32324 0.0019 0.0
H1104 H 0.79145 0.29654 0.02058 0.0
S1105 S 0.7714 0.22131 0.94369 0.0
N1106 N 0.72206 0.25122 0.94582 0.0
N1107 N 0.81328 0.22317 0.96558 0.0
C1108 C 0.7881 0.2492 0.97565 0.0
C1109 C 0.73852 0.26423 0.96502 0.0
C1110 C 0.55011 0.29166 0.22625 0.0
C1111 C 0.55691 0.29046 0.24871 0.0
C1112 C 0.50538 0.27339 0.21593 0.0
C1113 C 0.46617 0.25336 0.22777 0.0
H1114 H 0.57849 0.30749 0.21668 0.0
H1115 H 0.50176 0.27462 0.19855 0.0
S1116 S 0.46633 0.24152 0.28688 0.0
N1117 N 0.52133 0.26766 0.28245 0.0
N1118 N 0.43769 0.23298 0.26302 0.0
C1119 C 0.47278 0.25187 0.2502 0.0
C1120 C 0.51829 0.27039 0.26068 0.0
C1121 C 0.78388 0.04999 0.24276 0.0
C1122 C 0.8029 0.03784 0.22271 0.0
C1123 C 0.73517 0.03601 0.25372 0.0
C1124 C 0.70336 1.00967 0.24489 0.0
H1125 H 0.80615 0.07086 0.24983 0.0
H1126 H 0.72253 0.04574 0.26929 0.0
S1127 S 0.73657 0.96832 0.19316 0.0
N1128 N 0.78701 0.99772 0.19462 0.0
N1129 N 0.6955 0.97133 0.21524 0.0
C1130 C 0.72192 0.99736 0.22484 0.0
C1131 C 0.77168 1.01148 0.21374 0.0
C1132 C 0.25576 0.7391 -0.01059 0.0
C1133 C 0.30362 0.75395 0.00054 0.0
C1134 C 0.21039 0.75777 0.97971 0.0
C1135 C 0.21127 0.79188 0.98099 0.0
H1136 H 0.25349 0.71277 0.98819 0.0
H1137 H 0.17519 0.74555 0.97083 0.0
S1138 S 0.32423 0.84227 0.00943 0.0
N1139 N 0.34756 0.80445 0.01305 0.0
N1140 N 0.26239 0.83976 -0.00509 0.0
C1141 C 0.25828 0.80695 -0.00762 0.0
C1142 C 0.30451 0.78793 0.00213 0.0
C1143 C 0.50415 0.808 0.73881 0.0
C1144 C 0.5518 0.79227 0.74953 0.0
C1145 C 0.45832 0.79014 0.72876 0.0
C1146 C 0.45852 0.75597 0.7293 0.0
H1147 H 0.50238 0.83437 0.73824 0.0
H1148 H 0.42323 0.80306 0.72024 0.0
S1149 S 0.57113 0.70337 0.75635 0.0
N1150 N 0.59518 0.74086 0.76073 0.0
N1151 N 0.509 0.70706 0.74208 0.0
C1152 C 0.50547 0.74002 0.74026 0.0
C1153 C 0.5522 0.75822 0.75031 0.0
C1154 C 0.30864 1.0131 0.72823 0.0
C1155 C 0.30218 0.04705 0.72948 0.0
C1156 C 0.26558 0.99232 0.73741 0.0
C1157 C 0.21462 1.00479 0.7481 0.0
H1158 H 0.34662 1.00258 0.71983 0.0
H1159 H 0.27215 0.96622 0.73611 0.0
S1160 S 0.17897 0.09192 0.75676 0.0
N1161 N 0.24239 0.0923 0.74297 0.0
N1162 N 0.16147 0.05311 0.76005 0.0
C1163 C 0.20793 0.03866 0.74956 0.0
C1164 C 0.2518 0.05981 0.74032 0.0
C1165 C 0.52049 0.53208 0.46666 0.0
C1166 C 0.55045 0.50633 0.47703 0.0
C1167 C 0.47477 0.54956 0.47718 0.0
C1168 C 0.45711 0.54152 0.49827 0.0
H1169 H 0.5323 0.5386 0.45029 0.0
H1170 H 0.4539 0.56989 0.46894 0.0
S1171 S 0.51884 0.4748 0.53177 0.0
N1172 N 0.55761 0.47278 0.50911 0.0
N1173 N 0.47148 0.50547 0.52881 0.0
C1174 C 0.48601 0.51549 0.50861 0.0
C1175 C 0.53278 0.49792 0.498 0.0
C1176 C 0.75386 0.74057 0.48743 0.0
C1177 C 0.80091 0.75528 0.49906 0.0
C1178 C 0.70903 0.75936 0.4775 0.0
C1179 C 0.70953 0.79345 0.4791 0.0
H1180 H 0.75184 0.71427 0.48599 0.0
H1181 H 0.67453 0.74724 0.46822 0.0
S1182 S 0.82014 0.8435 0.50904 0.0
N1183 N 0.84358 0.80564 0.51244 0.0
N1184 N 0.75919 0.84113 0.49403 0.0
C1185 C 0.75562 0.80837 0.49108 0.0
C1186 C 0.80139 0.78924 0.501 0.0
C1187 C 0.77845 0.51298 0.7158 0.0
C1188 C 0.8054 0.5402 0.72552 0.0
C1189 C 0.73127 0.49631 0.72602 0.0
C1190 C 0.70892 0.50672 0.74608 0.0
H1191 H 0.79372 0.50471 0.70016 0.0
H1192 H 0.7129 0.47476 0.71841 0.0
S1193 S 0.76147 0.57798 0.77738 0.0
N1194 N 0.80483 0.57762 0.75578 0.0
N1195 N 0.71581 0.54651 0.77486 0.0
C1196 C 0.73488 0.53419 0.75573 0.0
C1197 C 0.78317 0.55092 0.74546 0.0
C1198 C 0.25746 0.30753 0.48868 0.0
C1199 C 0.21051 0.29162 0.47772 0.0
C1200 C 0.303 0.28984 0.49903 0.0
C1201 C 0.30313 0.25568 0.49862 0.0
H1202 H 0.25883 0.3339 0.48924 0.0
H1203 H 0.33761 0.3029 0.50769 0.0
S1204 S 0.19244 0.20262 0.47109 0.0
N1205 N 0.16823 0.24002 0.46641 0.0
N1206 N 0.25387 0.20655 0.4857 0.0
C1207 C 0.25696 0.23953 0.48742 0.0
C1208 C 0.21054 0.25756 0.47701 0.0
C1209 C 0.276 0.51974 0.22416 0.0
C1210 C 0.30457 0.54669 0.2336 0.0
C1211 C 0.22832 0.50392 0.23457 0.0
C1212 C 0.20737 0.51465 0.25473 0.0
H1213 H 0.2903 0.51101 0.20851 0.0
H1214 H 0.20838 0.48276 0.227 0.0
S1215 S 0.26563 0.58465 0.28593 0.0
N1216 N 0.30746 0.58397 0.26395 0.0
N1217 N 0.21828 0.55387 0.28368 0.0
C1218 C 0.23547 0.54152 0.26434 0.0
C1219 C 0.284 0.55764 0.25373 0.0
C1220 C 0.02649 0.99057 0.5009 0.0
C1221 C 0.04787 1.00132 0.48078 0.0
C1222 C 0.97996 1.00719 0.51158 0.0
C1223 C 0.95276 0.03466 0.50224 0.0
H1224 H 0.04524 0.96889 0.50824 0.0
H1225 H 0.96555 0.99876 0.52728 0.0
S1226 S 0.99385 0.07307 0.45026 0.0
N1227 N 0.03953 0.04149 0.45228 0.0
N1228 N 0.95177 0.0725 0.47218 0.0
C1229 C 0.97389 0.0456 0.48219 0.0
C1230 C 0.02149 0.02894 0.47147 0.0
C1231 C 0.03999 0.30006 0.72681 0.0
C1232 C 0.05921 0.29042 0.7474 0.0
C1233 C 0.99244 0.28402 0.71647 0.0
C1234 C 0.96219 0.25805 0.72648 0.0
H1235 H 0.06069 0.32078 0.71894 0.0
H1236 H 0.97907 0.29205 0.70057 0.0
S1237 S 0.99693 0.22287 0.78001 0.0
N1238 N 0.04538 0.25306 0.77725 0.0
N1239 N 0.9565 0.22257 0.75773 0.0
C1240 C 0.98156 0.24795 0.74695 0.0
C1241 C 0.03002 0.26421 0.75742 0.0
C1242 C 1.00209 0.80851 0.23781 0.0
C1243 C 0.05281 0.79609 0.2486 0.0
C1244 C 0.95964 0.78767 0.2284 0.0
C1245 C 0.96655 0.75374 0.22952 0.0
H1246 H 0.99532 0.83459 0.23657 0.0
H1247 H 0.92189 0.79813 0.21987 0.0
S1248 S 0.08907 0.70905 0.25717 0.0
N1249 N 0.10608 0.74788 0.2606 0.0
N1250 N 0.02617 0.70856 0.24315 0.0
C1251 C 0.01656 0.74104 0.24054 0.0
C1252 C 0.05984 0.76225 0.25 0.0
C1253 C 0.03224 0.53735 0.96755 0.0
C1254 C 0.0575 0.50997 0.97769 0.0
C1255 C 0.98586 0.55513 0.97743 0.0
C1256 C 0.9628 0.54573 -0.00242 0.0
H1257 H 0.04793 0.54474 0.95177 0.0
H1258 H 0.96852 0.57663 0.96944 0.0
S1259 S 0.01159 0.47493 0.03015 0.0
N1260 N 0.05491 0.4737 0.00855 0.0
N1261 N 0.96764 0.50705 0.02708 0.0
C1262 C 0.98728 0.51825 0.00773 0.0
C1263 C 0.03467 0.50035 -0.00223 0.0
C1264 C 0.26667 0.12055 0.10303 0.0
C1265 C 0.26923 0.14885 0.0904 0.0
C1266 C 0.26721 0.12274 0.1255 0.0
C1267 C 0.26911 0.15325 0.13573 0.0
H1268 H 0.27094 0.09676 0.09559 0.0
H1269 H 0.27158 0.10056 0.13486 0.0
S1270 S 0.266 0.23421 0.10957 0.0
N1271 N 0.26636 0.20796 0.08939 0.0
N1272 N 0.26547 0.21208 0.13181 0.0
C1273 C 0.26453 0.18159 0.12327 0.0
C1274 C 0.26509 0.17937 0.10043 0.0
C1275 C 0.97775 0.1908 0.10439 0.0
C1276 C 0.99599 0.16519 0.09095 0.0
C1277 C 0.97573 0.18666 0.12668 0.0
C1278 C 0.99206 0.15682 0.13609 0.0
H1279 H 0.95887 0.21284 0.09754 0.0
H1280 H 0.95582 0.20576 0.13641 0.0
S1281 S 0.05354 0.08461 0.10793 0.0
N1282 N 0.03878 0.11092 0.08848 0.0
N1283 N 0.03562 0.10312 0.13069 0.0
C1284 C 0.01749 0.13253 0.12304 0.0
C1285 C 0.01918 0.13672 0.10025 0.0
C1286 C 0.7442 0.86422 0.85592 0.0
C1287 C 0.74754 0.89206 0.84288 0.0
C1288 C 0.74485 0.86709 0.87834 0.0
C1289 C 0.74951 0.89781 0.88817 0.0
H1290 H 0.73452 0.84065 0.84885 0.0
H1291 H 0.73577 0.84563 0.88799 0.0
S1292 S 0.76956 0.97717 0.86083 0.0
N1293 N 0.76325 0.9505 0.84102 0.0
N1294 N 0.76572 0.95586 0.88338 0.0
C1295 C 0.76007 0.92526 0.87529 0.0
C1296 C 0.75864 0.92238 0.85246 0.0
C1297 C 0.01955 0.92973 0.85453 0.0
C1298 C 0.01922 0.90219 0.84117 0.0
C1299 C 0.0204 0.92618 0.87693 0.0
C1300 C 0.02013 0.89506 0.88636 0.0
H1301 H 0.02584 0.9538 0.84769 0.0
H1302 H 0.02727 0.94762 0.88681 0.0
S1303 S 0.00905 0.81592 0.85817 0.0
N1304 N 0.01092 0.84333 0.83867 0.0
N1305 N 0.01132 0.83669 0.88095 0.0
C1306 C 0.01268 0.86766 0.87321 0.0
C1307 C 0.01256 0.87124 0.85044 0.0
C1308 C 0.25358 0.62795 0.62513 0.0
C1309 C 0.26085 0.65893 0.6344 0.0
C1310 C 0.25369 0.62413 0.60272 0.0
C1311 C 0.26196 0.65119 0.58924 0.0
H1312 H 0.25406 0.60636 0.63519 0.0
H1313 H 0.25422 0.5997 0.59607 0.0
S1314 S 0.27279 0.73765 0.60571 0.0
N1315 N 0.26781 0.71728 0.6286 0.0
N1316 N 0.26909 0.71005 0.58638 0.0
C1317 C 0.26253 0.68248 0.59829 0.0
C1318 C 0.26172 0.68639 0.62102 0.0
C1319 C 0.99062 0.68304 0.60364 0.0
C1320 C 0.99663 0.65496 0.59096 0.0
C1321 C 0.99045 0.68077 0.62609 0.0
C1322 C 0.99706 0.65045 0.6363 0.0
H1323 H 0.97956 0.7062 0.59624 0.0
H1324 H 0.97943 0.70228 0.63543 0.0
S1325 S 0.02411 0.57085 0.61003 0.0
N1326 N 0.01661 0.59684 0.58987 0.0
N1327 N 0.01783 0.59266 0.6323 0.0
C1328 C 0.01022 0.62291 0.62381 0.0
C1329 C 0.00948 0.62514 0.60095 0.0
C1330 C 0.7322 0.36626 0.37626 0.0
C1331 C 0.74198 0.39654 0.38619 0.0
C1332 C 0.73443 0.36325 0.35388 0.0
C1333 C 0.746 0.39052 0.34095 0.0
H1334 H 0.71757 0.34551 0.38571 0.0
H1335 H 0.72114 0.34035 0.34662 0.0
S1336 S 0.78338 0.47383 0.35932 0.0
N1337 N 0.77132 0.45316 0.38176 0.0
N1338 N 0.77437 0.44758 0.3394 0.0
C1339 C 0.76179 0.42007 0.35073 0.0
C1340 C 0.76022 0.42307 0.37356 0.0
C1341 C 0.01672 0.36591 0.37227 0.0
C1342 C 0.01287 0.39326 0.38572 0.0
C1343 C 0.01696 0.36962 0.34989 0.0
C1344 C 0.01273 0.40071 0.34055 0.0
H1345 H 0.02637 0.3421 0.379 0.0
H1346 H 0.02674 0.34855 0.33996 0.0
S1347 S 0.9909 0.479 0.36902 0.0
N1348 N 0.99657 0.4516 0.38844 0.0
N1349 N 0.9958 0.45853 0.34616 0.0
C1350 C 1.00128 0.42764 0.3538 0.0
C1351 C 1.00178 0.42391 0.37658 0.0
C1352 C 0.76321 0.1214 0.62636 0.0
C1353 C 0.7644 0.15263 0.6356 0.0
C1354 C 0.76179 0.11759 0.60399 0.0
C1355 C 0.76238 0.14496 0.59047 0.0
H1356 H 0.76956 0.10001 0.63635 0.0
H1357 H 0.76716 0.09336 0.59729 0.0
S1358 S 0.75586 0.23152 0.60696 0.0
N1359 N 0.75768 0.21102 0.62986 0.0
N1360 N 0.75629 0.20385 0.58762 0.0
C1361 C 0.75696 0.17608 0.59955 0.0
C1362 C 0.75762 0.17994 0.6223 0.0
C1363 C 0.50264 0.18245 0.60483 0.0
C1364 C 0.50267 0.15446 0.59189 0.0
C1365 C 0.50267 0.1797 0.62728 0.0
C1366 C 0.50357 0.14893 0.63719 0.0
H1367 H 0.49568 0.20626 0.59769 0.0
H1368 H 0.49588 0.20148 0.63685 0.0
S1369 S 0.51484 0.06888 0.61014 0.0
N1370 N 0.51174 0.09557 0.59024 0.0
N1371 N 0.51323 0.09043 0.63262 0.0
C1372 C 0.51115 0.12111 0.62441 0.0
C1373 C 0.51026 0.12388 0.60158 0.0
C1374 C 0.23539 0.86811 0.37633 0.0
C1375 C 0.24276 0.89806 0.38694 0.0
C1376 C 0.23875 0.86626 0.3539 0.0
C1377 C 0.24865 0.8944 0.3416 0.0
H1378 H 0.22157 0.84668 0.38525 0.0
H1379 H 0.22697 0.84351 0.3461 0.0
S1380 S 0.28054 0.9773 0.36198 0.0
N1381 N 0.2691 0.95529 0.3839 0.0
N1382 N 0.27362 0.95196 0.34145 0.0
C1383 C 0.26241 0.92368 0.3521 0.0
C1384 C 0.26 0.92547 0.37498 0.0
C1385 C 0.52538 0.93268 0.37699 0.0
C1386 C 0.51673 0.90148 0.38577 0.0
C1387 C 0.52316 0.93758 0.35477 0.0
C1388 C 0.51259 0.91137 0.34083 0.0
H1389 H 0.53956 0.95268 0.38719 0.0
H1390 H 0.53638 0.96111 0.34839 0.0
S1391 S 0.4771 0.82638 0.35613 0.0
N1392 N 0.48862 0.84518 0.3793 0.0
N1393 N 0.48532 0.85438 0.33721 0.0
C1394 C 0.49702 0.88098 0.34952 0.0
C1395 C 0.49885 0.87601 0.37221 0.0
C1396 C 0.77496 0.61681 0.1036 0.0
C1397 C 0.76536 0.64418 0.09056 0.0
C1398 C 0.77697 0.61996 0.12597 0.0
C1399 C 0.76885 0.6505 0.13579 0.0
H1400 H 0.78754 0.59368 0.09644 0.0
H1401 H 0.79061 0.59909 0.13549 0.0
S1402 S 0.73091 0.72806 0.10865 0.0
N1403 N 0.73923 0.70157 0.08882 0.0
N1404 N 0.74176 0.7074 0.13117 0.0
C1405 C 0.75177 0.67713 0.12307 0.0
C1406 C 0.75045 0.67398 0.10024 0.0
C1407 C 0.48422 0.61115 0.12317 0.0
C1408 C 0.49817 0.63813 0.13604 0.0
C1409 C 0.48365 0.61391 0.10078 0.0
C1410 C 0.49722 0.6437 0.09075 0.0
H1411 H 0.46746 0.58892 0.13045 0.0
H1412 H 0.46679 0.59363 0.09139 0.0
S1413 S 0.54788 0.71943 0.11744 0.0
N1414 N 0.5344 0.69386 0.13745 0.0
N1415 N 0.53403 0.69902 0.09504 0.0
C1416 C 0.51859 0.66956 0.10333 0.0
C1417 C 0.51872 0.66679 0.1262 0.0
C1418 C 0.2226 0.4359 0.87137 0.0
C1419 C 0.24183 0.41008 0.8844 0.0
C1420 C 0.22145 0.4326 0.84904 0.0
C1421 C 0.23956 0.4034 0.83917 0.0
H1422 H 0.20296 0.45752 0.87854 0.0
H1423 H 0.20138 0.45194 0.83958 0.0
S1424 S 0.30384 0.33102 0.86627 0.0
N1425 N 0.28707 0.3563 0.88612 0.0
N1426 N 0.28549 0.3501 0.84377 0.0
C1427 C 0.26543 0.37886 0.85187 0.0
C1428 C 0.26624 0.38218 0.87472 0.0
C1429 C 0.52368 0.43387 0.85256 0.0
C1430 C 0.51601 0.4064 0.83944 0.0
C1431 C 0.52447 0.43073 0.87495 0.0
C1432 C 0.51699 0.40011 0.88471 0.0
H1433 H 0.53557 0.45715 0.84549 0.0
H1434 H 0.53678 0.45172 0.88458 0.0
S1435 S 0.48477 0.32205 0.85729 0.0
N1436 N 0.49291 0.34867 0.83752 0.0
N1437 N 0.49314 0.34285 0.87988 0.0
C1438 C 0.50205 0.37327 0.87185 0.0
C1439 C 0.502 0.3764 0.84901 0.0
C1440 C 0.60157 0.15929 0.04554 0.0
C1441 C 0.57162 0.16971 0.02682 0.0
C1442 C 0.66228 0.15079 0.04505 0.0
C1443 C 0.69565 0.15251 0.02587 0.0
H1444 H 0.57764 0.15668 0.06063 0.0
H1445 H 0.68316 0.14277 0.05988 0.0
S1446 S 0.64016 0.18195 0.97291 0.0
N1447 N 0.58107 0.1837 -0.01111 0.0
N1448 N 0.69531 0.16782 0.98795 0.0
C1449 C 0.66678 0.16383 0.00713 0.0
C1450 C 0.60488 0.17258 0.00765 0.0
C1451 C 0.65643 0.14235 0.18034 0.0
C1452 C 0.68834 0.13949 0.19976 0.0
C1453 C 0.59723 0.13144 0.17862 0.0
C1454 C 0.56724 0.11731 0.19627 0.0
H1455 H 0.67718 0.15327 0.16631 0.0
H1456 H 0.57412 0.13522 0.16349 0.0
S1457 S 0.63237 0.10135 0.25025 0.0
N1458 N 0.68672 0.11937 0.23669 0.0
N1459 N 0.57546 0.09888 0.2334 0.0
C1460 C 0.59941 0.11295 0.21553 0.0
C1461 C 0.65971 0.12426 0.21735 0.0
C1462 C 0.3545 0.89358 0.93262 0.0
C1463 C 0.32385 0.90606 0.95067 0.0
C1464 C 0.41502 0.88477 0.93383 0.0
C1465 C 0.44743 0.8881 0.9531 0.0
H1466 H 0.33133 0.88983 0.91751 0.0
H1467 H 0.43666 0.87546 0.91945 0.0
S1468 S 0.38969 0.92276 0.00441 0.0
N1469 N 0.33166 0.9236 0.98798 0.0
N1470 N 0.44506 0.90647 -0.00959 0.0
C1471 C 0.41758 0.901 0.97122 0.0
C1472 C 0.35606 0.91032 0.96991 0.0
C1473 C 0.41147 0.89938 0.79705 0.0
C1474 C 0.44448 0.90244 0.77784 0.0
C1475 C 0.35127 0.88982 0.79686 0.0
C1476 C 0.32137 0.88299 0.77743 0.0
H1477 H 0.43236 0.90415 0.81247 0.0
H1478 H 0.3277 0.88852 0.8121 0.0
S1479 S 0.38806 0.88604 0.7226 0.0
N1480 N 0.443 0.89713 0.73877 0.0
N1481 N 0.33009 0.87887 0.73844 0.0
C1482 C 0.35409 0.88536 0.75809 0.0
C1483 C 0.41538 0.89535 0.75827 0.0
C1484 C 0.60265 0.65988 0.50982 0.0
C1485 C 0.57017 0.6629 0.52916 0.0
C1486 C 0.6622 0.64921 0.50973 0.0
C1487 C 0.69212 0.64142 0.52899 0.0
H1488 H 0.58164 0.66507 0.49448 0.0
H1489 H 0.68518 0.6477 0.49438 0.0
S1490 S 0.6279 0.64591 0.58411 0.0
N1491 N 0.57286 0.65784 0.56822 0.0
N1492 N 0.68489 0.63771 0.56802 0.0
C1493 C 0.66044 0.64458 0.5485 0.0
C1494 C 0.59967 0.65551 0.5486 0.0
C1495 C 0.59884 0.64117 0.71551 0.0
C1496 C 0.56751 0.64204 0.69587 0.0
C1497 C 0.6594 0.64979 0.71667 0.0
C1498 C 0.69153 0.65927 0.69819 0.0
H1499 H 0.57628 0.63426 0.73028 0.0
H1500 H 0.68138 0.64829 0.73219 0.0
S1501 S 0.63074 0.66581 0.64276 0.0
N1502 N 0.57341 0.65329 0.65741 0.0
N1503 N 0.68744 0.66936 0.65963 0.0
C1504 C 0.66095 0.6602 0.6784 0.0
C1505 C 0.59908 0.65146 0.67721 0.0
C1506 C 0.35006 0.40038 0.43122 0.0
C1507 C 0.31687 0.40271 0.45044 0.0
C1508 C 0.41042 0.39105 0.43136 0.0
C1509 C 0.44027 0.38374 0.45073 0.0
H1510 H 0.32922 0.40556 0.41585 0.0
H1511 H 0.43412 0.3903 0.41613 0.0
S1512 S 0.37298 0.38445 0.50549 0.0
N1513 N 0.31804 0.39596 0.48943 0.0
N1514 N 0.43123 0.37811 0.48962 0.0
C1515 C 0.40733 0.38529 0.47006 0.0
C1516 C 0.34589 0.39504 0.46994 0.0
C1517 C 0.35341 0.41669 0.26299 0.0
C1518 C 0.32375 0.40376 0.28111 0.0
C1519 C 0.41284 0.4274 0.26419 0.0
C1520 C 0.44553 0.42513 0.28348 0.0
H1521 H 0.33042 0.41903 0.24771 0.0
H1522 H 0.43385 0.43639 0.24962 0.0
S1523 S 0.38822 0.39434 0.33584 0.0
N1524 N 0.33106 0.39036 0.31919 0.0
N1525 N 0.4432 0.41011 0.32138 0.0
C1526 C 0.41617 0.41284 0.30185 0.0
C1527 C 0.35537 0.40212 0.30067 0.0
C1528 C 0.16427 0.15117 0.54775 0.0
C1529 C 0.19526 0.13884 0.52973 0.0
C1530 C 0.10287 0.15813 0.54678 0.0
C1531 C 0.07009 0.15309 0.52777 0.0
H1532 H 0.18782 0.15632 0.56261 0.0
H1533 H 0.08098 0.16763 0.56105 0.0
S1534 S 0.12853 0.11739 0.47688 0.0
N1535 N 0.18742 0.11922 0.49288 0.0
N1536 N 0.07225 0.13258 0.49095 0.0
C1537 C 0.10018 0.13998 0.50977 0.0
C1538 C 0.1626 0.13263 0.51083 0.0
C1539 C 0.10309 0.15337 0.7164 0.0
C1540 C 0.07301 0.14691 0.69696 0.0
C1541 C 0.16328 0.16288 0.7166 0.0
C1542 C 0.19626 0.16608 0.69738 0.0
H1543 H 0.07987 0.15153 0.73168 0.0
H1544 H 0.18434 0.16702 0.73206 0.0
S1545 S 0.13848 0.15234 0.64204 0.0
N1546 N 0.08071 0.14464 0.65788 0.0
N1547 N 0.19395 0.16252 0.65825 0.0
C1548 C 0.16666 0.15999 0.67777 0.0
C1549 C 0.10522 0.15025 0.67757 0.0
C1550 C 0.8482 0.89835 0.43213 0.0
C1551 C 0.81897 0.9112 0.45036 0.0
C1552 C 0.90788 0.88806 0.43309 0.0
C1553 C 0.9411 0.89055 0.45223 0.0
H1554 H 0.82435 0.89517 0.4171 0.0
H1555 H 0.9282 0.87823 0.41862 0.0
S1556 S 0.88813 0.92699 0.50367 0.0
N1557 N 0.82939 0.92873 0.48758 0.0
N1558 N 0.94183 0.90958 0.48942 0.0
C1559 C 0.91307 0.90436 0.47044 0.0
C1560 C 0.85217 0.91489 0.46943 0.0
C1561 C 0.91272 0.91732 0.26143 0.0
C1562 C 0.94472 0.91999 0.28086 0.0
C1563 C 0.8522 0.90848 0.26124 0.0
C1564 C 0.82082 0.90227 0.28047 0.0
H1565 H 0.93485 0.92122 0.24611 0.0
H1566 H 0.8298 0.90692 0.24581 0.0
S1567 S 0.88308 0.90717 0.33581 0.0
N1568 N 0.93997 0.9166 0.31997 0.0
N1569 N 0.82597 0.90012 0.3196 0.0
C1570 C 0.85189 0.90537 0.30008 0.0
C1571 C 0.91374 0.91432 0.30028 0.0
C1572 C 0.10261 0.65982 0.00945 0.0
C1573 C 0.07135 0.66333 0.02902 0.0
C1574 C 0.16201 0.64886 0.00893 0.0
C1575 C 0.19308 0.64114 0.02797 0.0
H1576 H 0.08074 0.6649 -0.00575 0.0
H1577 H 0.18394 0.64698 -0.0066 0.0
S1578 S 0.13235 0.64683 0.08359 0.0
N1579 N 0.07651 0.65878 0.06807 0.0
N1580 N 0.18814 0.63805 0.06708 0.0
C1581 C 0.16259 0.64472 0.04771 0.0
C1582 C 0.10199 0.65602 0.04825 0.0
C1583 C 0.16217 0.6548 0.18067 0.0
C1584 C 0.19532 0.65374 0.19989 0.0
C1585 C 0.10217 0.64491 0.18009 0.0
C1586 C 0.0727 0.63371 0.19875 0.0
H1587 H 0.18271 0.66331 0.16589 0.0
H1588 H 0.07829 0.64708 0.16498 0.0
S1589 S 0.14144 0.62234 0.25264 0.0
N1590 N 0.19554 0.63803 0.23775 0.0
N1591 N 0.08279 0.61945 0.2366 0.0
C1592 C 0.10589 0.63142 0.21793 0.0
C1593 C 0.16699 0.64166 0.21857 0.0
C1594 C 0.91386 0.39801 0.93103 0.0
C1595 C 0.94327 0.38502 0.94916 0.0
C1596 C 0.85299 0.40624 0.93173 0.0
C1597 C 0.81887 0.40168 0.95054 0.0
H1598 H 0.9383 0.40277 0.91628 0.0
H1599 H 0.83257 0.41627 0.91736 0.0
S1600 S 0.87271 0.36487 0.00169 0.0
N1601 N 0.93246 0.36561 0.98599 0.0
N1602 N 0.81799 0.38094 0.98732 0.0
C1603 C 0.84721 0.38778 0.96862 0.0
C1604 C 0.90927 0.37933 0.96789 0.0
C1605 C 0.91316 0.4027 0.79259 0.0
C1606 C 0.94123 0.41587 0.7742 0.0
C1607 C 0.85292 0.39319 0.79224 0.0
C1608 C 0.81807 0.3966 0.77354 0.0
H1609 H 0.93825 0.39877 0.80728 0.0
H1610 H 0.83355 0.38307 0.80678 0.0
S1611 S 0.86777 0.4339 0.72193 0.0
N1612 N 0.92795 0.4346 0.73735 0.0
N1613 N 0.81472 0.4168 0.73664 0.0
C1614 C 0.84495 0.41077 0.75522 0.0
C1615 C 0.90633 0.42058 0.75562 0.0
C1616 C 0.12415 1.02264 0.97495 0.0
C1617 C 0.10677 0.03023 -0.00392 0.0
C1618 C 0.10612 0.99362 0.96508 0.0
C1619 C 0.07103 0.97017 0.97599 0.0
H1620 H 0.15547 0.03772 0.96626 0.0
H1621 H 0.12329 0.98867 0.94908 0.0
S1622 S 1.00549 0.9801 0.03039 0.0
N1623 N 0.04475 1.01376 0.02658 0.0
N1624 N 0.01358 0.9583 0.00822 0.0
C1625 C 0.04908 0.97843 -0.00357 0.0
C1626 C 0.06657 1.00851 0.00644 0.0
C1627 C 0.19063 0.32817 -0.00155 0.0
C1628 C 0.20562 0.33036 0.97662 0.0
C1629 C 0.17195 0.29847 0.00746 0.0
C1630 C 0.1676 0.26964 -0.00497 0.0
H1631 H 0.18933 0.34996 0.00831 0.0
H1632 H 0.15831 0.29858 0.0242 0.0
S1633 S 0.20981 0.26223 0.93743 0.0
N1634 N 0.21912 0.30127 0.94296 0.0
N1635 N 0.18759 0.24504 0.96013 0.0
C1636 C 0.18626 0.27126 0.97343 0.0
C1637 C 0.2044 0.30169 0.9642 0.0
C1638 C 0.08061 0.30589 0.25994 0.0
C1639 C 0.06999 0.33415 0.24762 0.0
C1640 C 0.09723 0.27623 0.2503 0.0
C1641 C 0.10569 0.27376 0.22791 0.0
H1642 H 0.07825 0.30705 0.27736 0.0
H1643 H 0.10459 0.25545 0.26063 0.0
S1644 S 0.07664 0.34024 0.18829 0.0
N1645 N 0.06305 0.35724 0.21188 0.0
N1646 N 0.0956 0.30213 0.19348 0.0
C1647 C 0.09105 0.30152 0.2153 0.0
C1648 C 0.07312 0.33155 0.22521 0.0
C1649 C 0.17773 0.02791 0.24734 0.0
C1650 C 0.16124 0.02745 0.2255 0.0
C1651 C 0.19792 0.99956 0.25777 0.0
C1652 C 0.20433 0.96983 0.24666 0.0
H1653 H 0.17424 0.05004 0.25667 0.0
H1654 H 0.20637 1.00057 0.27493 0.0
S1655 S 0.17055 0.95528 0.18922 0.0
N1656 N 0.15484 0.99421 0.19297 0.0
N1657 N 0.19485 0.94167 0.21264 0.0
C1658 C 0.19152 0.96931 0.22464 0.0
C1659 C 0.16965 0.99792 0.21405 0.0
C1660 C 0.91141 0.05738 0.01284 0.0
C1661 C 0.94677 0.08067 0.00191 0.0
C1662 C 0.89441 0.02796 0.00321 0.0
C1663 C 0.9129 1.01989 0.98225 0.0
H1664 H 0.89342 0.0627 0.02867 0.0
H1665 H 0.86306 1.0129 0.01189 0.0
S1666 S 0.01451 0.0698 0.94792 0.0
N1667 N 1.0053 0.09202 0.96985 0.0
N1668 N 0.97569 0.03605 0.95189 0.0
C1669 C 0.95306 0.04161 0.97188 0.0
C1670 C 0.96967 0.072 0.98167 0.0
C1671 C 0.83721 0.77885 0.00079 0.0
C1672 C 0.84524 0.78108 0.97835 0.0
C1673 C 0.81928 0.74957 0.01057 0.0
C1674 C 0.80674 0.72145 -0.00162 0.0
H1675 H 0.84596 0.7994 0.01112 0.0
H1676 H 0.81792 0.74847 0.028 0.0
S1677 S 0.80826 0.7153 0.93902 0.0
N1678 N 0.83019 0.75297 0.94402 0.0
N1679 N 0.79545 0.69858 0.96275 0.0
C1680 C 0.8082 0.72404 0.97596 0.0
C1681 C 0.82747 0.75368 0.96588 0.0
C1682 C 0.92907 0.77511 0.7296 0.0
C1683 C 0.91275 0.77591 0.75148 0.0
C1684 C 0.9476 0.74596 0.7197 0.0
C1685 C 0.95227 0.71661 0.73136 0.0
H1686 H 0.92656 0.79684 0.71983 0.0
H1687 H 0.95593 0.74606 0.70251 0.0
S1688 S 0.91982 0.70536 0.78925 0.0
N1689 N 0.90593 0.7443 0.78475 0.0
N1690 N 0.94249 0.69025 0.766 0.0
C1691 C 0.94011 0.71734 0.75343 0.0
C1692 C 0.92011 0.74679 0.76352 0.0
C1693 C 0.85381 0.05605 0.7151 0.0
C1694 C 0.81991 0.08007 0.72596 0.0
C1695 C 0.87144 0.02708 0.72516 0.0
C1696 C 0.85497 1.02021 0.7465 0.0
H1697 H 0.87034 0.06048 0.69895 0.0
H1698 H 0.9019 1.0115 0.71645 0.0
S1699 S 0.75631 0.07194 0.78079 0.0
N1700 N 0.76399 0.09315 0.75834 0.0
N1701 N 0.79464 0.0379 0.77714 0.0
C1702 C 0.81572 0.04249 0.75683 0.0
C1703 C 0.79855 0.07247 0.7466 0.0
C1704 C 0.10954 0.52338 0.47464 0.0
C1705 C 0.09884 0.52878 0.49665 0.0
C1706 C 0.09139 0.4945 0.46457 0.0
C1707 C 0.06245 0.4693 0.47602 0.0
H1708 H 0.13614 0.54 0.46522 0.0
H1709 H 0.10398 0.491 0.44787 0.0
S1710 S 0.01327 0.47321 0.53288 0.0
N1711 N 0.04817 0.50818 0.52878 0.0
N1712 N 0.01619 0.45344 0.50975 0.0
C1713 C 0.04606 0.47544 0.49741 0.0
C1714 C 0.06396 0.50517 0.50772 0.0
C1715 C 0.16697 0.79543 0.51002 0.0
C1716 C 0.16306 0.76672 0.49746 0.0
C1717 C 0.18596 0.82518 0.50121 0.0
C1718 C 0.20173 0.82748 0.47945 0.0
H1719 H 0.15268 0.79539 0.5267 0.0
H1720 H 0.18423 0.84691 0.5111 0.0
S1721 S 0.20688 0.75971 0.44001 0.0
N1722 N 0.18405 0.74235 0.46257 0.0
N1723 N 0.21627 0.79868 0.44573 0.0
C1724 C 0.20101 0.79891 0.46693 0.0
C1725 C 0.1825 0.76845 0.47596 0.0
C1726 C 0.08226 0.7964 0.71772 0.0
C1727 C 0.0917 0.76801 0.73029 0.0
C1728 C 0.0644 0.82611 0.72699 0.0
C1729 C 0.05512 0.82865 0.74921 0.0
H1730 H 0.09213 0.79637 0.70064 0.0
H1731 H 0.06259 0.8477 0.71696 0.0
S1732 S 0.0604 0.76109 0.78883 0.0
N1733 N 0.07878 0.74376 0.76574 0.0
N1734 N 0.04877 0.79994 0.78328 0.0
C1735 C 0.05943 0.80015 0.76172 0.0
C1736 C 0.07684 0.76976 0.75227 0.0
C1737 C 0.19268 0.49736 0.75892 0.0
C1738 C 0.20914 0.47009 0.74648 0.0
C1739 C 0.17555 0.52689 0.74937 0.0
C1740 C 0.17268 0.53035 0.72687 0.0
H1741 H 0.18983 0.4953 0.77629 0.0
H1742 H 0.16344 0.5466 0.75996 0.0
S1743 S 0.22493 0.46798 0.68727 0.0
N1744 N 0.23161 0.44974 0.71084 0.0
N1745 N 0.1996 0.50498 0.69249 0.0
C1746 C 0.19587 0.50418 0.71433 0.0
C1747 C 0.21383 0.47411 0.72421 0.0
C1748 C 0.91063 0.52109 0.50208 0.0
C1749 C 0.91595 0.51658 0.47971 0.0
C1750 C 0.92705 0.55044 0.51193 0.0
C1751 C 0.95095 0.57662 0.50004 0.0
H1752 H 0.89249 0.50258 0.5124 0.0
H1753 H 0.91838 0.55316 0.52901 0.0
S1754 S 0.99162 0.5749 0.44232 0.0
N1755 N 0.95999 0.53914 0.44676 0.0
N1756 N 0.99029 0.59421 0.46563 0.0
C1757 C 0.96405 0.5713 0.4783 0.0
C1758 C 0.94691 0.54133 0.46809 0.0
C1759 C 0.85066 0.24846 0.46736 0.0
C1760 C 0.8523 0.27759 0.47958 0.0
C1761 C 0.83315 0.21862 0.47646 0.0
C1762 C 0.81676 0.21662 0.49817 0.0
H1763 H 0.86547 0.2483 0.45075 0.0
H1764 H 0.83623 0.19668 0.4668 0.0
S1765 S 0.80526 0.28537 0.53668 0.0
N1766 N 0.82812 0.30251 0.51404 0.0
N1767 N 0.79882 0.24607 0.53142 0.0
C1768 C 0.81526 0.24552 0.51035 0.0
C1769 C 0.83215 0.27607 0.50101 0.0
C1770 C 0.94296 0.27172 0.23097 0.0
C1771 C 0.90634 0.27416 0.24932 0.0
C1772 C 0.95965 0.24102 0.22269 0.0
C1773 C 0.94014 0.21188 0.2325 0.0
H1774 H 0.95774 0.29359 0.22278 0.0
H1775 H 0.98541 0.24005 0.2079 0.0
S1776 S 0.84034 0.20528 0.27997 0.0
N1777 N 0.84979 0.24489 0.27665 0.0
N1778 N 0.88026 0.18758 0.26083 0.0
C1779 C 0.9038 0.21414 0.25085 0.0
C1780 C 0.88717 0.24519 0.25934 0.0
C1781 C 0.81579 0.57661 0.24991 0.0
C1782 C 0.80822 0.57945 0.22761 0.0
C1783 C 0.83444 0.54698 0.25912 0.0
C1784 C 0.84656 0.51903 0.2464 0.0
H1785 H 0.81192 0.59796 0.26008 0.0
H1786 H 0.84269 0.54667 0.27629 0.0
S1787 S 0.82005 0.51272 0.18756 0.0
N1788 N 0.80568 0.55123 0.19332 0.0
N1789 N 0.83805 0.49534 0.21064 0.0
C1790 C 0.83354 0.52102 0.2243 0.0
C1791 C 0.81493 0.55124 0.21495 0.0
C1792 C 0.59992 0.97679 0.49298 0.0
C1793 C 0.55751 0.96919 0.47702 0.0
C1794 C 0.61728 1.00867 0.49909 0.0
C1795 C 0.59652 0.03822 0.48988 0.0
H1796 H 0.62311 0.95678 0.50078 0.0
H1797 H 0.65053 1.01008 0.51179 0.0
S1798 S 0.44558 0.03054 0.43029 0.0
N1799 N 0.48245 0.99122 0.44661 0.0
N1800 N 0.48965 0.06823 0.44678 0.0
C1801 C 0.55251 0.03532 0.4731 0.0
C1802 C 0.53079 0.99481 0.46619 0.0
C1803 C 0.66897 0.29841 0.51088 0.0
C1804 C 0.66655 0.26925 0.49873 0.0
C1805 C 0.6872 0.32807 0.5017 0.0
C1806 C 0.70376 0.32982 0.47999 0.0
H1807 H 0.65379 0.2988 0.52745 0.0
H1808 H 0.68404 0.35013 0.51124 0.0
S1809 S 0.71413 0.26064 0.44176 0.0
N1810 N 0.69073 0.24384 0.46444 0.0
N1811 N 0.72149 0.29993 0.44689 0.0
C1812 C 0.70506 0.30077 0.46796 0.0
C1813 C 0.68731 0.27042 0.47737 0.0
C1814 C 0.58921 0.27286 0.74975 0.0
C1815 C 0.59736 0.27042 0.72733 0.0
C1816 C 0.57138 0.30229 0.7594 0.0
C1817 C 0.55904 0.33032 0.74708 0.0
H1818 H 0.59763 0.25234 0.76016 0.0
H1819 H 0.56962 0.30352 0.77683 0.0
S1820 S 0.56301 0.33628 0.68772 0.0
N1821 N 0.58415 0.29851 0.69289 0.0
N1822 N 0.54943 0.35312 0.71136 0.0
C1823 C 0.56127 0.32763 0.72467 0.0
C1824 C 0.58049 0.29786 0.71474 0.0
C1825 C 0.64664 1.02271 0.75389 0.0
C1826 C 0.66304 0.02969 0.73256 0.0
C1827 C 0.66428 0.99367 0.76389 0.0
C1828 C 0.69801 0.96965 0.75295 0.0
H1829 H 0.61633 0.03827 0.76267 0.0
H1830 H 0.64777 0.98915 0.78004 0.0
S1831 S 0.7613 0.97795 0.69809 0.0
N1832 N 0.72329 1.01206 0.70187 0.0
N1833 N 0.75352 0.95663 0.72049 0.0
C1834 C 0.71924 0.97733 0.73232 0.0
C1835 C 0.70221 1.00741 0.72217 0.0
C1836 C 0.3828 0.03013 0.49604 0.0
C1837 C 0.40826 1.01791 0.4769 0.0
C1838 C 0.39911 0.05944 0.50642 0.0
C1839 C 0.44379 0.08167 0.49945 0.0
H1840 H 0.34459 1.01742 0.50287 0.0
H1841 H 0.37268 0.06535 0.52055 0.0
S1842 S 0.59071 0.07474 0.44807 0.0
N1843 N 0.54295 0.03197 0.44086 0.0
N1844 N 0.53753 0.09161 0.47308 0.0
C1845 C 0.47823 0.07255 0.48196 0.0
C1846 C 0.45901 0.03558 0.46848 0.0
C1847 C 0.34398 0.74971 0.46531 0.0
C1848 C 0.34823 0.77873 0.47757 0.0
C1849 C 0.32476 0.72017 0.47444 0.0
C1850 C 0.30902 0.71836 0.49622 0.0
H1851 H 0.35824 0.74929 0.44864 0.0
H1852 H 0.3263 0.69821 0.46476 0.0
S1853 S 0.30413 0.78708 0.53496 0.0
N1854 N 0.32698 0.80388 0.51222 0.0
N1855 N 0.29466 0.74799 0.52962 0.0
C1856 C 0.30993 0.74724 0.50843 0.0
C1857 C 0.32859 0.77749 0.49908 0.0
C1858 C 0.41985 0.74657 0.21431 0.0
C1859 C 0.45207 0.72218 0.22543 0.0
C1860 C 0.40134 0.7754 0.22442 0.0
C1861 C 0.41511 0.78158 0.24609 0.0
H1862 H 0.40481 0.74236 0.19796 0.0
H1863 H 0.37181 0.79127 0.21553 0.0
S1864 S 0.50994 0.72898 0.28108 0.0
N1865 N 0.50435 0.70826 0.25838 0.0
N1866 N 0.47232 0.7632 0.27726 0.0
C1867 C 0.45336 0.75909 0.25665 0.0
C1868 C 0.47138 0.72932 0.24637 0.0
C1869 C 0.3109 0.07424 0.24952 0.0
C1870 C 0.30062 0.07716 0.22738 0.0
C1871 C 0.32976 0.04446 0.25843 0.0
C1872 C 0.3394 1.01636 0.24557 0.0
H1873 H 0.30924 0.09564 0.25972 0.0
H1874 H 0.34017 0.04414 0.27545 0.0
S1875 S 0.30765 1.01059 0.18705 0.0
N1876 N 0.29457 0.04914 0.19307 0.0
N1877 N 0.32682 0.99289 0.20991 0.0
C1878 C 0.32404 1.0185 0.22367 0.0
C1879 C 0.30537 0.04892 0.2146 0.0
C1880 C 0.57459 0.50381 0.0078 0.0
C1881 C 0.60323 0.52895 -0.00405 0.0
C1882 C 0.55436 0.47494 -0.0021 0.0
C1883 C 0.5613 0.47032 0.97569 0.0
H1884 H 0.57192 0.50531 0.02518 0.0
H1885 H 0.53802 0.45522 0.00791 0.0
S1886 S 0.62135 0.53033 0.93648 0.0
N1887 N 0.63003 0.54801 0.96011 0.0
N1888 N 0.58843 0.49517 0.94155 0.0
C1889 C 0.58277 0.49671 0.96334 0.0
C1890 C 0.60462 0.5257 0.97341 0.0
C1891 C 0.67968 0.77113 0.97943 0.0
C1892 C 0.66946 0.76916 0.00175 0.0
C1893 C 0.69817 0.80035 0.96971 0.0
C1894 C 0.709 0.82871 0.98188 0.0
H1895 H 0.6724 0.75038 0.96913 0.0
H1896 H 0.70138 0.8012 0.95231 0.0
S1897 S 0.69928 0.83597 0.04108 0.0
N1898 N 0.67919 0.798 0.03605 0.0
N1899 N 0.71488 0.85234 0.01745 0.0
C1900 C 0.70473 0.82651 0.00427 0.0
C1901 C 0.68497 0.79689 0.01428 0.0
C1902 C 0.56975 0.7922 0.22304 0.0
C1903 C 0.60987 0.77049 0.23343 0.0
C1904 C 0.55051 0.82142 0.23283 0.0
C1905 C 0.57032 0.82994 0.25352 0.0
H1906 H 0.55611 0.78761 0.20658 0.0
H1907 H 0.52351 0.83834 0.2236 0.0
S1908 S 0.6663 0.77945 0.28936 0.0
N1909 N 0.66355 0.75891 0.26659 0.0
N1910 N 0.62353 0.8117 0.28554 0.0
C1911 C 0.6048 0.80678 0.26495 0.0
C1912 C 0.62564 0.77763 0.25481 0.0
C1913 C 0.70821 0.47326 0.22743 0.0
C1914 C 0.71285 0.47067 0.24978 0.0
C1915 C 0.68609 0.50189 0.21789 0.0
C1916 C 0.66593 0.52895 0.23026 0.0
H1917 H 0.71668 0.45219 0.21736 0.0
H1918 H 0.68083 0.50164 0.20057 0.0
S1919 S 0.68248 0.53567 0.28974 0.0
N1920 N 0.707 0.49876 0.284 0.0
N1921 N 0.66319 0.5519 0.26647 0.0
C1922 C 0.67691 0.52755 0.25261 0.0
C1923 C 0.70079 0.49856 0.26221 0.0
C1924 C 0.42679 0.52075 0.00017 0.0
C1925 C 0.4236 0.51782 0.97764 0.0
C1926 C 0.44318 0.5502 0.00997 0.0
C1927 C 0.4588 0.57786 -0.00224 0.0
H1928 H 0.41538 0.50064 0.01055 0.0
H1929 H 0.44073 0.55184 0.02737 0.0
S1930 S 0.47286 0.58153 0.93852 0.0
N1931 N 0.44864 0.54424 0.94344 0.0
N1932 N 0.47986 0.5992 0.96225 0.0
C1933 C 0.46306 0.57439 0.97543 0.0
C1934 C 0.44562 0.54446 0.9653 0.0
C1935 C 0.32446 0.22242 0.97534 0.0
C1936 C 0.30954 0.22096 -0.00278 0.0
C1937 C 0.34366 0.25176 0.96595 0.0
C1938 C 0.34864 0.28091 0.97803 0.0
H1939 H 0.32555 0.20032 0.9658 0.0
H1940 H 0.35741 0.2511 0.94923 0.0
S1941 S 0.30613 0.29029 0.03549 0.0
N1942 N 0.2963 0.25114 0.03047 0.0
N1943 N 0.32857 0.30667 0.01256 0.0
C1944 C 0.32962 0.28006 -0.00039 0.0
C1945 C 0.311 0.25002 0.00923 0.0
C1946 C 0.44953 0.24982 0.71774 0.0
C1947 C 0.46083 0.22148 0.72989 0.0
C1948 C 0.4319 0.27913 0.72754 0.0
C1949 C 0.42292 0.28117 0.74992 0.0
H1950 H 0.45158 0.24887 0.70031 0.0
H1951 H 0.42401 0.2999 0.71727 0.0
S1952 S 0.45645 0.21482 0.78921 0.0
N1953 N 0.47 0.1982 0.7655 0.0
N1954 N 0.43571 0.25272 0.78424 0.0
C1955 C 0.43956 0.25359 0.7624 0.0
C1956 C 0.45855 0.22389 0.75232 0.0
C1957 C 0.2998 0.57383 0.7451 0.0
C1958 C 0.30952 0.57907 0.72308 0.0
C1959 C 0.31999 0.54502 0.75508 0.0
C1960 C 0.35123 0.52048 0.74352 0.0
H1961 H 0.28101 0.59304 0.75499 0.0
H1962 H 0.31484 0.54304 0.77238 0.0
S1963 S 0.37795 0.52081 0.68446 0.0
N1964 N 0.34262 0.55538 0.68924 0.0
N1965 N 0.38417 0.50271 0.70805 0.0
C1966 C 0.35581 0.52434 0.72108 0.0
C1967 C 0.33403 0.55328 0.71089 0.0
loop_
_geom_bond_atom_site_label_1
_geom_bond_atom_site_label_2
_geom_bond_distance
_geom_bond_site_symmetry_2
_ccdc_geom_bond_type
Co0 O3 1.970 . S
Co0 N17 1.989 . S
Co0 O25 1.967 . S
Co0 O32 1.920 . S
Co1 O4 1.966 . S
Co1 N10 2.022 . S
Co1 N18 1.993 . S
Co1 O26 1.941 . S
C2 O3 1.258 . S
C2 O4 1.263 . S
O3 Co0 1.970 . S
O3 C2 1.258 . S
O4 Co1 1.966 . S
O4 C2 1.263 . S
C5 O6 1.235 . S
C5 O32 1.289 . S
O6 C5 1.235 . S
C7 C9 1.400 . S
C7 N10 1.351 . S
C7 C12 1.501 1_554 S
C8 C9 1.387 . S
C8 N11 1.341 . S
C9 C7 1.400 . S
C9 C8 1.387 . S
N10 Co1 2.022 . S
N10 C7 1.351 . S
N10 N11 1.365 . S
N11 C8 1.341 . S
N11 N10 1.365 . S
N11 H31 0.862 . S
C12 C7 1.501 1_556 S
C12 H13 0.961 . S
C12 H14 0.961 . S
C12 H15 0.960 . S
H13 C12 0.961 . S
H14 C12 0.961 . S
H15 C12 0.960 . S
C16 N17 1.342 . S
C16 C20 1.401 . S
C16 C21 1.499 . S
N17 Co0 1.989 . S
N17 C16 1.342 . S
N17 N18 1.388 . S
N18 Co1 1.993 . S
N18 N17 1.388 . S
N18 C19 1.346 . S
C19 N18 1.346 . S
C19 C20 1.396 . S
C19 C29 1.510 . S
C20 C16 1.401 . S
C20 C19 1.396 . S
C21 C16 1.499 . S
C21 H22 0.959 . S
C21 H23 0.960 . S
C21 H24 0.961 . S
H22 C21 0.959 . S
H23 C21 0.960 . S
H24 C21 0.961 . S
O25 Co0 1.967 . S
O25 C33 1.258 . S
O26 Co1 1.941 . S
O26 C33 1.266 . S
H27 C29 0.959 . S
H28 C29 0.961 1_556 S
C29 C19 1.510 . S
C29 H27 0.959 . S
C29 H28 0.961 1_554 S
C29 H30 0.960 . S
H30 C29 0.960 . S
H31 N11 0.862 . S
O32 Co0 1.920 . S
O32 C5 1.289 . S
C33 O25 1.258 . S
C33 O26 1.266 . S
Co34 O37 1.970 . S
Co34 N51 1.989 . S
Co34 O59 1.967 . S
Co34 O66 1.920 . S
Co35 O38 1.966 . S
Co35 N44 2.022 1_655 S
Co35 N52 1.993 . S
Co35 O60 1.941 . S
C36 O37 1.258 . S
C36 O38 1.263 . S
O37 Co34 1.970 . S
O37 C36 1.258 . S
O38 Co35 1.966 . S
O38 C36 1.263 . S
C39 O40 1.235 . S
C39 O66 1.289 . S
O40 C39 1.235 . S
C41 C43 1.400 . S
C41 N44 1.351 . S
C41 C46 1.501 1_554 S
C42 C43 1.387 . S
C42 N45 1.341 . S
C43 C41 1.400 . S
C43 C42 1.387 . S
N44 Co35 2.022 1_455 S
N44 C41 1.351 . S
N44 N45 1.365 . S
N45 C42 1.341 . S
N45 N44 1.365 . S
N45 H65 0.862 . S
C46 C41 1.501 1_556 S
C46 H47 0.961 . S
C46 H48 0.961 . S
C46 H49 0.960 . S
H47 C46 0.961 . S
H48 C46 0.961 . S
H49 C46 0.960 . S
C50 N51 1.342 . S
C50 C54 1.401 . S
C50 C55 1.499 . S
N51 Co34 1.989 . S
N51 C50 1.342 . S
N51 N52 1.388 . S
N52 Co35 1.993 . S
N52 N51 1.388 . S
N52 C53 1.346 . S
C53 N52 1.346 . S
C53 C54 1.396 . S
C53 C63 1.510 . S
C54 C50 1.401 . S
C54 C53 1.396 . S
C55 C50 1.499 . S
C55 H56 0.959 . S
C55 H57 0.960 . S
C55 H58 0.961 . S
H56 C55 0.959 . S
H57 C55 0.960 . S
H58 C55 0.961 . S
O59 Co34 1.967 . S
O59 C67 1.258 . S
O60 Co35 1.941 . S
O60 C67 1.266 . S
H61 C63 0.959 . S
H62 C63 0.961 1_556 S
C63 C53 1.510 . S
C63 H61 0.959 . S
C63 H62 0.961 1_554 S
C63 H64 0.960 . S
H64 C63 0.960 . S
H65 N45 0.862 . S
O66 Co34 1.920 . S
O66 C39 1.289 . S
C67 O59 1.258 . S
C67 O60 1.266 . S
Co68 O71 1.970 . S
Co68 N85 1.989 . S
Co68 O93 1.967 . S
Co68 O100 1.920 . S
Co69 O72 1.966 . S
Co69 N78 2.022 . S
Co69 N86 1.993 . S
Co69 O94 1.941 . S
C70 O71 1.258 . S
C70 O72 1.263 . S
O71 Co68 1.970 . S
O71 C70 1.258 . S
O72 Co69 1.966 . S
O72 C70 1.263 . S
C73 O74 1.235 . S
C73 O100 1.289 . S
O74 C73 1.235 . S
C75 C77 1.400 . S
C75 N78 1.351 . S
C75 C80 1.501 . S
C76 C77 1.387 . S
C76 N79 1.341 . S
C77 C75 1.400 . S
C77 C76 1.387 . S
N78 Co69 2.022 . S
N78 C75 1.351 . S
N78 N79 1.365 . S
N79 C76 1.341 . S
N79 N78 1.365 . S
N79 H99 0.862 . S
C80 C75 1.501 . S
C80 H81 0.961 . S
C80 H82 0.961 . S
C80 H83 0.960 . S
H81 C80 0.961 . S
H82 C80 0.961 . S
H83 C80 0.960 . S
C84 N85 1.342 . S
C84 C88 1.401 . S
C84 C89 1.499 . S
N85 Co68 1.989 . S
N85 C84 1.342 . S
N85 N86 1.388 . S
N86 Co69 1.993 . S
N86 N85 1.388 . S
N86 C87 1.346 . S
C87 N86 1.346 . S
C87 C88 1.396 . S
C87 C97 1.510 . S
C88 C84 1.401 . S
C88 C87 1.396 . S
C89 C84 1.499 . S
C89 H90 0.959 . S
C89 H91 0.960 . S
C89 H92 0.961 . S
H90 C89 0.959 . S
H91 C89 0.960 . S
H92 C89 0.961 . S
O93 Co68 1.967 . S
O93 C101 1.258 . S
O94 Co69 1.941 . S
O94 C101 1.266 . S
H95 C97 0.959 . S
H96 C97 0.961 . S
C97 C87 1.510 . S
C97 H95 0.959 . S
C97 H96 0.961 . S
C97 H98 0.960 . S
H98 C97 0.960 . S
H99 N79 0.862 . S
O100 Co68 1.920 . S
O100 C73 1.289 . S
C101 O93 1.258 . S
C101 O94 1.266 . S
Co102 O105 1.970 . S
Co102 N119 1.989 . S
Co102 O127 1.967 . S
Co102 O134 1.920 . S
Co103 O106 1.966 . S
Co103 N112 2.022 1_655 S
Co103 N120 1.993 . S
Co103 O128 1.941 . S
C104 O105 1.258 . S
C104 O106 1.263 . S
O105 Co102 1.970 . S
O105 C104 1.258 . S
O106 Co103 1.966 . S
O106 C104 1.263 . S
C107 O108 1.235 . S
C107 O134 1.289 . S
O108 C107 1.235 . S
C109 C111 1.400 . S
C109 N112 1.351 . S
C109 C114 1.501 . S
C110 C111 1.387 . S
C110 N113 1.341 . S
C111 C109 1.400 . S
C111 C110 1.387 . S
N112 Co103 2.022 1_455 S
N112 C109 1.351 . S
N112 N113 1.365 . S
N113 C110 1.341 . S
N113 N112 1.365 . S
N113 H133 0.862 . S
C114 C109 1.501 . S
C114 H115 0.961 . S
C114 H116 0.961 . S
C114 H117 0.960 . S
H115 C114 0.961 . S
H116 C114 0.961 . S
H117 C114 0.960 . S
C118 N119 1.342 . S
C118 C122 1.401 . S
C118 C123 1.499 . S
N119 Co102 1.989 . S
N119 C118 1.342 . S
N119 N120 1.388 . S
N120 Co103 1.993 . S
N120 N119 1.388 . S
N120 C121 1.346 . S
C121 N120 1.346 . S
C121 C122 1.396 . S
C121 C131 1.510 . S
C122 C118 1.401 . S
C122 C121 1.396 . S
C123 C118 1.499 . S
C123 H124 0.959 . S
C123 H125 0.960 . S
C123 H126 0.961 . S
H124 C123 0.959 . S
H125 C123 0.960 . S
H126 C123 0.961 . S
O127 Co102 1.967 . S
O127 C135 1.258 . S
O128 Co103 1.941 . S
O128 C135 1.266 . S
H129 C131 0.959 . S
H130 C131 0.961 . S
C131 C121 1.510 . S
C131 H129 0.959 . S
C131 H130 0.961 . S
C131 H132 0.960 . S
H132 C131 0.960 . S
H133 N113 0.862 . S
O134 Co102 1.920 . S
O134 C107 1.289 . S
C135 O127 1.258 . S
C135 O128 1.266 . S
Co136 O139 1.970 . S
Co136 N153 1.989 . S
Co136 O161 1.967 . S
Co136 O168 1.920 . S
Co137 O140 1.966 . S
Co137 N146 2.022 . S
Co137 N154 1.993 . S
Co137 O162 1.941 . S
C138 O139 1.258 . S
C138 O140 1.263 . S
O139 Co136 1.970 . S
O139 C138 1.258 . S
O140 Co137 1.966 . S
O140 C138 1.263 . S
C141 O142 1.235 . S
C141 O168 1.289 . S
O142 C141 1.235 . S
C143 C145 1.400 . S
C143 N146 1.351 . S
C143 C148 1.501 1_556 S
C144 C145 1.387 . S
C144 N147 1.341 . S
C145 C143 1.400 . S
C145 C144 1.387 . S
N146 Co137 2.022 . S
N146 C143 1.351 . S
N146 N147 1.365 . S
N147 C144 1.341 . S
N147 N146 1.365 . S
N147 H167 0.862 . S
C148 C143 1.501 1_554 S
C148 H149 0.961 . S
C148 H150 0.961 . S
C148 H151 0.960 . S
H149 C148 0.961 . S
H150 C148 0.961 . S
H151 C148 0.960 . S
C152 N153 1.342 . S
C152 C156 1.401 . S
C152 C157 1.499 . S
N153 Co136 1.989 . S
N153 C152 1.342 . S
N153 N154 1.388 . S
N154 Co137 1.993 . S
N154 N153 1.388 . S
N154 C155 1.346 . S
C155 N154 1.346 . S
C155 C156 1.396 . S
C155 C165 1.510 . S
C156 C152 1.401 . S
C156 C155 1.396 . S
C157 C152 1.499 . S
C157 H158 0.959 . S
C157 H159 0.960 . S
C157 H160 0.961 . S
H158 C157 0.959 . S
H159 C157 0.960 . S
H160 C157 0.961 . S
O161 Co136 1.967 . S
O161 C169 1.258 . S
O162 Co137 1.941 . S
O162 C169 1.266 . S
H163 C165 0.959 . S
H164 C165 0.961 1_554 S
C165 C155 1.510 . S
C165 H163 0.959 . S
C165 H164 0.961 1_556 S
C165 H166 0.960 . S
H166 C165 0.960 . S
H167 N147 0.862 . S
O168 Co136 1.920 . S
O168 C141 1.289 . S
C169 O161 1.258 . S
C169 O162 1.266 . S
Co170 O173 1.970 . S
Co170 N187 1.989 . S
Co170 O195 1.967 . S
Co170 O202 1.920 . S
Co171 O174 1.966 . S
Co171 N180 2.022 1_455 S
Co171 N188 1.993 . S
Co171 O196 1.941 . S
C172 O173 1.258 . S
C172 O174 1.263 . S
O173 Co170 1.970 . S
O173 C172 1.258 . S
O174 Co171 1.966 . S
O174 C172 1.263 . S
C175 O176 1.235 . S
C175 O202 1.289 . S
O176 C175 1.235 . S
C177 C179 1.400 . S
C177 N180 1.351 . S
C177 C182 1.501 1_556 S
C178 C179 1.387 . S
C178 N181 1.341 . S
C179 C177 1.400 . S
C179 C178 1.387 . S
N180 Co171 2.022 1_655 S
N180 C177 1.351 . S
N180 N181 1.365 . S
N181 C178 1.341 . S
N181 N180 1.365 . S
N181 H201 0.862 . S
C182 C177 1.501 1_554 S
C182 H183 0.961 . S
C182 H184 0.961 . S
C182 H185 0.960 . S
H183 C182 0.961 . S
H184 C182 0.961 . S
H185 C182 0.960 . S
C186 N187 1.342 . S
C186 C190 1.401 . S
C186 C191 1.499 . S
N187 Co170 1.989 . S
N187 C186 1.342 . S
N187 N188 1.388 . S
N188 Co171 1.993 . S
N188 N187 1.388 . S
N188 C189 1.346 . S
C189 N188 1.346 . S
C189 C190 1.396 . S
C189 C199 1.510 . S
C190 C186 1.401 . S
C190 C189 1.396 . S
C191 C186 1.499 . S
C191 H192 0.959 . S
C191 H193 0.960 . S
C191 H194 0.961 . S
H192 C191 0.959 . S
H193 C191 0.960 . S
H194 C191 0.961 . S
O195 Co170 1.967 . S
O195 C203 1.258 . S
O196 Co171 1.941 . S
O196 C203 1.266 . S
H197 C199 0.959 . S
H198 C199 0.961 1_554 S
C199 C189 1.510 . S
C199 H197 0.959 . S
C199 H198 0.961 1_556 S
C199 H200 0.960 . S
H200 C199 0.960 . S
H201 N181 0.862 . S
O202 Co170 1.920 . S
O202 C175 1.289 . S
C203 O195 1.258 . S
C203 O196 1.266 . S
Co204 O207 1.970 . S
Co204 N221 1.989 . S
Co204 O229 1.967 . S
Co204 O236 1.920 . S
Co205 O208 1.966 . S
Co205 N214 2.022 . S
Co205 N222 1.993 . S
Co205 O230 1.941 . S
C206 O207 1.258 . S
C206 O208 1.263 . S
O207 Co204 1.970 . S
O207 C206 1.258 . S
O208 Co205 1.966 . S
O208 C206 1.263 . S
C209 O210 1.235 . S
C209 O236 1.289 . S
O210 C209 1.235 . S
C211 C213 1.400 . S
C211 N214 1.351 . S
C211 C216 1.501 . S
C212 C213 1.387 . S
C212 N215 1.341 . S
C213 C211 1.400 . S
C213 C212 1.387 . S
N214 Co205 2.022 . S
N214 C211 1.351 . S
N214 N215 1.365 . S
N215 C212 1.341 . S
N215 N214 1.365 . S
N215 H235 0.862 . S
C216 C211 1.501 . S
C216 H217 0.961 . S
C216 H218 0.961 . S
C216 H219 0.960 . S
H217 C216 0.961 . S
H218 C216 0.961 . S
H219 C216 0.960 . S
C220 N221 1.342 . S
C220 C224 1.401 . S
C220 C225 1.499 . S
N221 Co204 1.989 . S
N221 C220 1.342 . S
N221 N222 1.388 . S
N222 Co205 1.993 . S
N222 N221 1.388 . S
N222 C223 1.346 . S
C223 N222 1.346 . S
C223 C224 1.396 . S
C223 C233 1.510 . S
C224 C220 1.401 . S
C224 C223 1.396 . S
C225 C220 1.499 . S
C225 H226 0.959 . S
C225 H227 0.960 . S
C225 H228 0.961 . S
H226 C225 0.959 . S
H227 C225 0.960 . S
H228 C225 0.961 . S
O229 Co204 1.967 . S
O229 C237 1.258 . S
O230 Co205 1.941 . S
O230 C237 1.266 . S
H231 C233 0.959 . S
H232 C233 0.961 . S
C233 C223 1.510 . S
C233 H231 0.959 . S
C233 H232 0.961 . S
C233 H234 0.960 . S
H234 C233 0.960 . S
H235 N215 0.862 . S
O236 Co204 1.920 . S
O236 C209 1.289 . S
C237 O229 1.258 . S
C237 O230 1.266 . S
Co238 O241 1.970 . S
Co238 N255 1.989 . S
Co238 O263 1.967 . S
Co238 O270 1.920 . S
Co239 O242 1.966 . S
Co239 N248 2.022 1_455 S
Co239 N256 1.993 . S
Co239 O264 1.941 . S
C240 O241 1.258 . S
C240 O242 1.263 . S
O241 Co238 1.970 . S
O241 C240 1.258 . S
O242 Co239 1.966 . S
O242 C240 1.263 . S
C243 O244 1.235 . S
C243 O270 1.289 . S
O244 C243 1.235 . S
C245 C247 1.400 . S
C245 N248 1.351 . S
C245 C250 1.501 . S
C246 C247 1.387 . S
C246 N249 1.341 . S
C247 C245 1.400 . S
C247 C246 1.387 . S
N248 Co239 2.022 1_655 S
N248 C245 1.351 . S
N248 N249 1.365 . S
N249 C246 1.341 . S
N249 N248 1.365 . S
N249 H269 0.862 . S
C250 C245 1.501 . S
C250 H251 0.961 . S
C250 H252 0.961 . S
C250 H253 0.960 . S
H251 C250 0.961 . S
H252 C250 0.961 . S
H253 C250 0.960 . S
C254 N255 1.342 . S
C254 C258 1.401 . S
C254 C259 1.499 . S
N255 Co238 1.989 . S
N255 C254 1.342 . S
N255 N256 1.388 . S
N256 Co239 1.993 . S
N256 N255 1.388 . S
N256 C257 1.346 . S
C257 N256 1.346 . S
C257 C258 1.396 . S
C257 C267 1.510 . S
C258 C254 1.401 . S
C258 C257 1.396 . S
C259 C254 1.499 . S
C259 H260 0.959 . S
C259 H261 0.960 . S
C259 H262 0.961 . S
H260 C259 0.959 . S
H261 C259 0.960 . S
H262 C259 0.961 . S
O263 Co238 1.967 . S
O263 C271 1.258 . S
O264 Co239 1.941 . S
O264 C271 1.266 . S
H265 C267 0.959 . S
H266 C267 0.961 . S
C267 C257 1.510 . S
C267 H265 0.959 . S
C267 H266 0.961 . S
C267 H268 0.960 . S
H268 C267 0.960 . S
H269 N249 0.862 . S
O270 Co238 1.920 . S
O270 C243 1.289 . S
C271 O263 1.258 . S
C271 O264 1.266 . S
Co272 O275 1.970 . S
Co272 N289 1.989 . S
Co272 O297 1.967 . S
Co272 O304 1.920 . S
Co273 O276 1.966 . S
Co273 N282 2.022 . S
Co273 N290 1.993 . S
Co273 O298 1.941 . S
C274 O275 1.258 . S
C274 O276 1.263 . S
O275 Co272 1.970 . S
O275 C274 1.258 . S
O276 Co273 1.966 . S
O276 C274 1.263 . S
C277 O278 1.235 . S
C277 O304 1.289 . S
O278 C277 1.235 . S
C279 C281 1.400 . S
C279 N282 1.351 . S
C279 C284 1.501 . S
C280 C281 1.387 . S
C280 N283 1.341 . S
C281 C279 1.400 . S
C281 C280 1.387 . S
N282 Co273 2.022 . S
N282 C279 1.351 . S
N282 N283 1.365 . S
N283 C280 1.341 . S
N283 N282 1.365 . S
N283 H303 0.862 . S
C284 C279 1.501 . S
C284 H285 0.961 . S
C284 H286 0.961 . S
C284 H287 0.960 . S
H285 C284 0.961 . S
H286 C284 0.961 . S
H287 C284 0.960 . S
C288 N289 1.342 . S
C288 C292 1.401 . S
C288 C293 1.499 . S
N289 Co272 1.989 . S
N289 C288 1.342 . S
N289 N290 1.388 . S
N290 Co273 1.993 . S
N290 N289 1.388 . S
N290 C291 1.346 . S
C291 N290 1.346 . S
C291 C292 1.396 . S
C291 C301 1.510 . S
C292 C288 1.401 . S
C292 C291 1.396 . S
C293 C288 1.499 . S
C293 H294 0.959 . S
C293 H295 0.960 . S
C293 H296 0.961 . S
H294 C293 0.959 . S
H295 C293 0.960 . S
H296 C293 0.961 . S
O297 Co272 1.967 . S
O297 C305 1.258 . S
O298 Co273 1.941 . S
O298 C305 1.266 . S
H299 C301 0.959 . S
H300 C301 0.961 . S
C301 C291 1.510 . S
C301 H299 0.959 . S
C301 H300 0.961 . S
C301 H302 0.960 . S
H302 C301 0.960 . S
H303 N283 0.862 . S
O304 Co272 1.920 . S
O304 C277 1.289 . S
C305 O297 1.258 . S
C305 O298 1.266 . S
Co306 O309 1.970 . S
Co306 N323 1.989 . S
Co306 O331 1.967 . S
Co306 O338 1.920 . S
Co307 O310 1.966 . S
Co307 N316 2.022 1_655 S
Co307 N324 1.993 . S
Co307 O332 1.941 . S
C308 O309 1.258 . S
C308 O310 1.263 . S
O309 Co306 1.970 . S
O309 C308 1.258 . S
O310 Co307 1.966 . S
O310 C308 1.263 . S
C311 O312 1.235 . S
C311 O338 1.289 . S
O312 C311 1.235 . S
C313 C315 1.400 . S
C313 N316 1.351 . S
C313 C318 1.501 . S
C314 C315 1.387 . S
C314 N317 1.341 . S
C315 C313 1.400 . S
C315 C314 1.387 . S
N316 Co307 2.022 1_455 S
N316 C313 1.351 . S
N316 N317 1.365 . S
N317 C314 1.341 . S
N317 N316 1.365 . S
N317 H337 0.862 . S
C318 C313 1.501 . S
C318 H319 0.961 . S
C318 H320 0.961 . S
C318 H321 0.960 . S
H319 C318 0.961 . S
H320 C318 0.961 . S
H321 C318 0.960 . S
C322 N323 1.342 . S
C322 C326 1.401 . S
C322 C327 1.499 . S
N323 Co306 1.989 . S
N323 C322 1.342 . S
N323 N324 1.388 . S
N324 Co307 1.993 . S
N324 N323 1.388 . S
N324 C325 1.346 . S
C325 N324 1.346 . S
C325 C326 1.396 . S
C325 C335 1.510 . S
C326 C322 1.401 . S
C326 C325 1.396 . S
C327 C322 1.499 . S
C327 H328 0.959 . S
C327 H329 0.960 . S
C327 H330 0.961 . S
H328 C327 0.959 . S
H329 C327 0.960 . S
H330 C327 0.961 . S
O331 Co306 1.967 . S
O331 C339 1.258 . S
O332 Co307 1.941 . S
O332 C339 1.266 . S
H333 C335 0.959 . S
H334 C335 0.961 . S
C335 C325 1.510 . S
C335 H333 0.959 . S
C335 H334 0.961 . S
C335 H336 0.960 . S
H336 C335 0.960 . S
H337 N317 0.862 . S
O338 Co306 1.920 . S
O338 C311 1.289 . S
C339 O331 1.258 . S
C339 O332 1.266 . S
Co340 O343 1.970 . S
Co340 N357 1.989 . S
Co340 O365 1.967 . S
Co340 O372 1.920 . S
Co341 O344 1.966 . S
Co341 N350 2.022 . S
Co341 N358 1.993 . S
Co341 O366 1.941 . S
C342 O343 1.258 . S
C342 O344 1.263 . S
O343 Co340 1.970 . S
O343 C342 1.258 . S
O344 Co341 1.966 . S
O344 C342 1.263 . S
C345 O346 1.235 . S
C345 O372 1.289 . S
O346 C345 1.235 . S
C347 C349 1.400 . S
C347 N350 1.351 . S
C347 C352 1.501 . S
C348 C349 1.387 . S
C348 N351 1.341 . S
C349 C347 1.400 . S
C349 C348 1.387 . S
N350 Co341 2.022 . S
N350 C347 1.351 . S
N350 N351 1.365 . S
N351 C348 1.341 . S
N351 N350 1.365 . S
N351 H371 0.862 . S
C352 C347 1.501 . S
C352 H353 0.961 . S
C352 H354 0.961 . S
C352 H355 0.960 . S
H353 C352 0.961 . S
H354 C352 0.961 . S
H355 C352 0.960 . S
C356 N357 1.342 . S
C356 C360 1.401 . S
C356 C361 1.499 . S
N357 Co340 1.989 . S
N357 C356 1.342 . S
N357 N358 1.388 . S
N358 Co341 1.993 . S
N358 N357 1.388 . S
N358 C359 1.346 . S
C359 N358 1.346 . S
C359 C360 1.396 . S
C359 C369 1.510 . S
C360 C356 1.401 . S
C360 C359 1.396 . S
C361 C356 1.499 . S
C361 H362 0.959 . S
C361 H363 0.960 . S
C361 H364 0.961 . S
H362 C361 0.959 . S
H363 C361 0.960 . S
H364 C361 0.961 . S
O365 Co340 1.967 . S
O365 C373 1.258 . S
O366 Co341 1.941 . S
O366 C373 1.266 . S
H367 C369 0.959 . S
H368 C369 0.961 . S
C369 C359 1.510 . S
C369 H367 0.959 . S
C369 H368 0.961 . S
C369 H370 0.960 . S
H370 C369 0.960 . S
H371 N351 0.862 . S
O372 Co340 1.920 . S
O372 C345 1.289 . S
C373 O365 1.258 . S
C373 O366 1.266 . S
Co374 O377 1.970 . S
Co374 N391 1.989 . S
Co374 O399 1.967 . S
Co374 O406 1.920 . S
Co375 O378 1.966 . S
Co375 N384 2.022 1_655 S
Co375 N392 1.993 . S
Co375 O400 1.941 . S
C376 O377 1.258 . S
C376 O378 1.263 . S
O377 Co374 1.970 . S
O377 C376 1.258 . S
O378 Co375 1.966 . S
O378 C376 1.263 . S
C379 O380 1.235 . S
C379 O406 1.289 . S
O380 C379 1.235 . S
C381 C383 1.400 . S
C381 N384 1.351 . S
C381 C386 1.501 . S
C382 C383 1.387 . S
C382 N385 1.341 . S
C383 C381 1.400 . S
C383 C382 1.387 . S
N384 Co375 2.022 1_455 S
N384 C381 1.351 . S
N384 N385 1.365 . S
N385 C382 1.341 . S
N385 N384 1.365 . S
N385 H405 0.862 . S
C386 C381 1.501 . S
C386 H387 0.961 . S
C386 H388 0.961 . S
C386 H389 0.960 . S
H387 C386 0.961 . S
H388 C386 0.961 . S
H389 C386 0.960 . S
C390 N391 1.342 . S
C390 C394 1.401 . S
C390 C395 1.499 . S
N391 Co374 1.989 . S
N391 C390 1.342 . S
N391 N392 1.388 . S
N392 Co375 1.993 . S
N392 N391 1.388 . S
N392 C393 1.346 . S
C393 N392 1.346 . S
C393 C394 1.396 . S
C393 C403 1.510 . S
C394 C390 1.401 . S
C394 C393 1.396 . S
C395 C390 1.499 . S
C395 H396 0.959 . S
C395 H397 0.960 . S
C395 H398 0.961 . S
H396 C395 0.959 . S
H397 C395 0.960 . S
H398 C395 0.961 . S
O399 Co374 1.967 . S
O399 C407 1.258 . S
O400 Co375 1.941 . S
O400 C407 1.266 . S
H401 C403 0.959 . S
H402 C403 0.961 . S
C403 C393 1.510 . S
C403 H401 0.959 . S
C403 H402 0.961 . S
C403 H404 0.960 . S
H404 C403 0.960 . S
H405 N385 0.862 . S
O406 Co374 1.920 . S
O406 C379 1.289 . S
C407 O399 1.258 . S
C407 O400 1.266 . S
Co408 O411 1.970 . S
Co408 N425 1.989 . S
Co408 O433 1.967 . S
Co408 O440 1.920 . S
Co409 O412 1.966 . S
Co409 N418 2.022 . S
Co409 N426 1.993 . S
Co409 O434 1.941 . S
C410 O411 1.258 . S
C410 O412 1.263 . S
O411 Co408 1.970 . S
O411 C410 1.258 . S
O412 Co409 1.966 . S
O412 C410 1.263 . S
C413 O414 1.235 . S
C413 O440 1.289 . S
O414 C413 1.235 . S
C415 C417 1.400 . S
C415 N418 1.351 . S
C415 C420 1.501 . S
C416 C417 1.387 . S
C416 N419 1.341 . S
C417 C415 1.400 . S
C417 C416 1.387 . S
N418 Co409 2.022 . S
N418 C415 1.351 . S
N418 N419 1.365 . S
N419 C416 1.341 . S
N419 N418 1.365 . S
N419 H439 0.862 . S
C420 C415 1.501 . S
C420 H421 0.961 . S
C420 H422 0.961 . S
C420 H423 0.960 . S
H421 C420 0.961 . S
H422 C420 0.961 . S
H423 C420 0.960 . S
C424 N425 1.342 . S
C424 C428 1.401 . S
C424 C429 1.499 . S
N425 Co408 1.989 . S
N425 C424 1.342 . S
N425 N426 1.388 . S
N426 Co409 1.993 . S
N426 N425 1.388 . S
N426 C427 1.346 . S
C427 N426 1.346 . S
C427 C428 1.396 . S
C427 C437 1.510 . S
C428 C424 1.401 . S
C428 C427 1.396 . S
C429 C424 1.499 . S
C429 H430 0.959 . S
C429 H431 0.960 . S
C429 H432 0.961 . S
H430 C429 0.959 . S
H431 C429 0.960 . S
H432 C429 0.961 . S
O433 Co408 1.967 . S
O433 C441 1.258 . S
O434 Co409 1.941 . S
O434 C441 1.266 . S
H435 C437 0.959 . S
H436 C437 0.961 . S
C437 C427 1.510 . S
C437 H435 0.959 . S
C437 H436 0.961 . S
C437 H438 0.960 . S
H438 C437 0.960 . S
H439 N419 0.862 . S
O440 Co408 1.920 . S
O440 C413 1.289 . S
C441 O433 1.258 . S
C441 O434 1.266 . S
Co442 O445 1.970 . S
Co442 N459 1.989 . S
Co442 O467 1.967 . S
Co442 O474 1.920 . S
Co443 O446 1.966 . S
Co443 N452 2.022 1_455 S
Co443 N460 1.993 . S
Co443 O468 1.941 . S
C444 O445 1.258 . S
C444 O446 1.263 . S
O445 Co442 1.970 . S
O445 C444 1.258 . S
O446 Co443 1.966 . S
O446 C444 1.263 . S
C447 O448 1.235 . S
C447 O474 1.289 . S
O448 C447 1.235 . S
C449 C451 1.400 . S
C449 N452 1.351 . S
C449 C454 1.501 . S
C450 C451 1.387 . S
C450 N453 1.341 . S
C451 C449 1.400 . S
C451 C450 1.387 . S
N452 Co443 2.022 1_655 S
N452 C449 1.351 . S
N452 N453 1.365 . S
N453 C450 1.341 . S
N453 N452 1.365 . S
N453 H473 0.862 . S
C454 C449 1.501 . S
C454 H455 0.961 . S
C454 H456 0.961 . S
C454 H457 0.960 . S
H455 C454 0.961 . S
H456 C454 0.961 . S
H457 C454 0.960 . S
C458 N459 1.342 . S
C458 C462 1.401 . S
C458 C463 1.499 . S
N459 Co442 1.989 . S
N459 C458 1.342 . S
N459 N460 1.388 . S
N460 Co443 1.993 . S
N460 N459 1.388 . S
N460 C461 1.346 . S
C461 N460 1.346 . S
C461 C462 1.396 . S
C461 C471 1.510 . S
C462 C458 1.401 . S
C462 C461 1.396 . S
C463 C458 1.499 . S
C463 H464 0.959 . S
C463 H465 0.960 . S
C463 H466 0.961 . S
H464 C463 0.959 . S
H465 C463 0.960 . S
H466 C463 0.961 . S
O467 Co442 1.967 . S
O467 C475 1.258 . S
O468 Co443 1.941 . S
O468 C475 1.266 . S
H469 C471 0.959 . S
H470 C471 0.961 . S
C471 C461 1.510 . S
C471 H469 0.959 . S
C471 H470 0.961 . S
C471 H472 0.960 . S
H472 C471 0.960 . S
H473 N453 0.862 . S
O474 Co442 1.920 . S
O474 C447 1.289 . S
C475 O467 1.258 . S
C475 O468 1.266 . S
Co476 O479 1.970 . S
Co476 N493 1.989 . S
Co476 O501 1.967 . S
Co476 O508 1.920 . S
Co477 O480 1.966 . S
Co477 N486 2.022 . S
Co477 N494 1.993 . S
Co477 O502 1.941 . S
C478 O479 1.258 . S
C478 O480 1.263 . S
O479 Co476 1.970 . S
O479 C478 1.258 . S
O480 Co477 1.966 . S
O480 C478 1.263 . S
C481 O482 1.235 . S
C481 O508 1.289 . S
O482 C481 1.235 . S
C483 C485 1.400 . S
C483 N486 1.351 . S
C483 C488 1.501 . S
C484 C485 1.387 . S
C484 N487 1.341 . S
C485 C483 1.400 . S
C485 C484 1.387 . S
N486 Co477 2.022 . S
N486 C483 1.351 . S
N486 N487 1.365 . S
N487 C484 1.341 . S
N487 N486 1.365 . S
N487 H507 0.862 . S
C488 C483 1.501 . S
C488 H489 0.961 . S
C488 H490 0.961 . S
C488 H491 0.960 . S
H489 C488 0.961 . S
H490 C488 0.961 . S
H491 C488 0.960 . S
C492 N493 1.342 . S
C492 C496 1.401 . S
C492 C497 1.499 . S
N493 Co476 1.989 . S
N493 C492 1.342 . S
N493 N494 1.388 . S
N494 Co477 1.993 . S
N494 N493 1.388 . S
N494 C495 1.346 . S
C495 N494 1.346 . S
C495 C496 1.396 . S
C495 C505 1.510 . S
C496 C492 1.401 . S
C496 C495 1.396 . S
C497 C492 1.499 . S
C497 H498 0.959 . S
C497 H499 0.960 . S
C497 H500 0.961 . S
H498 C497 0.959 . S
H499 C497 0.960 . S
H500 C497 0.961 . S
O501 Co476 1.967 . S
O501 C509 1.258 . S
O502 Co477 1.941 . S
O502 C509 1.266 . S
H503 C505 0.959 . S
H504 C505 0.961 . S
C505 C495 1.510 . S
C505 H503 0.959 . S
C505 H504 0.961 . S
C505 H506 0.960 . S
H506 C505 0.960 . S
H507 N487 0.862 . S
O508 Co476 1.920 . S
O508 C481 1.289 . S
C509 O501 1.258 . S
C509 O502 1.266 . S
Co510 O513 1.970 . S
Co510 N527 1.989 . S
Co510 O535 1.967 . S
Co510 O542 1.920 . S
Co511 O514 1.966 . S
Co511 N520 2.022 1_455 S
Co511 N528 1.993 . S
Co511 O536 1.941 . S
C512 O513 1.258 . S
C512 O514 1.263 . S
O513 Co510 1.970 . S
O513 C512 1.258 . S
O514 Co511 1.966 . S
O514 C512 1.263 . S
C515 O516 1.235 . S
C515 O542 1.289 . S
O516 C515 1.235 . S
C517 C519 1.400 . S
C517 N520 1.351 . S
C517 C522 1.501 . S
C518 C519 1.387 . S
C518 N521 1.341 . S
C519 C517 1.400 . S
C519 C518 1.387 . S
N520 Co511 2.022 1_655 S
N520 C517 1.351 . S
N520 N521 1.365 . S
N521 C518 1.341 . S
N521 N520 1.365 . S
N521 H541 0.862 . S
C522 C517 1.501 . S
C522 H523 0.961 . S
C522 H524 0.961 . S
C522 H525 0.960 . S
H523 C522 0.961 . S
H524 C522 0.961 . S
H525 C522 0.960 . S
C526 N527 1.342 . S
C526 C530 1.401 . S
C526 C531 1.499 . S
N527 Co510 1.989 . S
N527 C526 1.342 . S
N527 N528 1.388 . S
N528 Co511 1.993 . S
N528 N527 1.388 . S
N528 C529 1.346 . S
C529 N528 1.346 . S
C529 C530 1.396 . S
C529 C539 1.510 . S
C530 C526 1.401 . S
C530 C529 1.396 . S
C531 C526 1.499 . S
C531 H532 0.959 . S
C531 H533 0.960 . S
C531 H534 0.961 . S
H532 C531 0.959 . S
H533 C531 0.960 . S
H534 C531 0.961 . S
O535 Co510 1.967 . S
O535 C543 1.258 . S
O536 Co511 1.941 . S
O536 C543 1.266 . S
H537 C539 0.959 . S
H538 C539 0.961 . S
C539 C529 1.510 . S
C539 H537 0.959 . S
C539 H538 0.961 . S
C539 H540 0.960 . S
H540 C539 0.960 . S
H541 N521 0.862 . S
O542 Co510 1.920 . S
O542 C515 1.289 . S
C543 O535 1.258 . S
C543 O536 1.266 . S
Co544 O547 1.970 . S
Co544 N561 1.989 . S
Co544 O569 1.967 . S
Co544 O576 1.920 . S
Co545 O548 1.966 . S
Co545 N554 2.022 . S
Co545 N562 1.993 . S
Co545 O570 1.941 . S
C546 O547 1.258 . S
C546 O548 1.263 . S
O547 Co544 1.970 . S
O547 C546 1.258 . S
O548 Co545 1.966 . S
O548 C546 1.263 . S
C549 O550 1.235 . S
C549 O576 1.289 1_455 S
O550 C549 1.235 . S
C551 C553 1.400 . S
C551 N554 1.351 . S
C551 C556 1.501 . S
C552 C553 1.387 . S
C552 N555 1.341 . S
C553 C551 1.400 . S
C553 C552 1.387 . S
N554 Co545 2.022 . S
N554 C551 1.351 . S
N554 N555 1.365 . S
N555 C552 1.341 . S
N555 N554 1.365 . S
N555 H575 0.862 . S
C556 C551 1.501 . S
C556 H557 0.961 . S
C556 H558 0.961 . S
C556 H559 0.960 . S
H557 C556 0.961 . S
H558 C556 0.961 . S
H559 C556 0.960 . S
C560 N561 1.342 . S
C560 C564 1.401 . S
C560 C565 1.499 . S
N561 Co544 1.989 . S
N561 C560 1.342 . S
N561 N562 1.388 . S
N562 Co545 1.993 . S
N562 N561 1.388 . S
N562 C563 1.346 . S
C563 N562 1.346 . S
C563 C564 1.396 . S
C563 C573 1.510 . S
C564 C560 1.401 . S
C564 C563 1.396 . S
C565 C560 1.499 . S
C565 H566 0.959 1_655 S
C565 H567 0.960 1_655 S
C565 H568 0.961 1_655 S
H566 C565 0.959 1_455 S
H567 C565 0.960 1_455 S
H568 C565 0.961 1_455 S
O569 Co544 1.967 . S
O569 C577 1.258 . S
O570 Co545 1.941 . S
O570 C577 1.266 . S
H571 C573 0.959 . S
H572 C573 0.961 . S
C573 C563 1.510 . S
C573 H571 0.959 . S
C573 H572 0.961 . S
C573 H574 0.960 . S
H574 C573 0.960 . S
H575 N555 0.862 . S
O576 Co544 1.920 . S
O576 C549 1.289 1_655 S
C577 O569 1.258 . S
C577 O570 1.266 . S
Co578 O581 1.970 . S
Co578 N595 1.989 . S
Co578 O603 1.967 . S
Co578 O610 1.920 . S
Co579 O582 1.966 . S
Co579 N588 2.022 . S
Co579 N596 1.993 . S
Co579 O604 1.941 . S
C580 O581 1.258 . S
C580 O582 1.263 . S
O581 Co578 1.970 . S
O581 C580 1.258 . S
O582 Co579 1.966 . S
O582 C580 1.263 . S
C583 O584 1.235 . S
C583 O610 1.289 . S
O584 C583 1.235 . S
C585 C587 1.400 . S
C585 N588 1.351 . S
C585 C590 1.501 . S
C586 C587 1.387 . S
C586 N589 1.341 . S
C587 C585 1.400 . S
C587 C586 1.387 . S
N588 Co579 2.022 . S
N588 C585 1.351 . S
N588 N589 1.365 . S
N589 C586 1.341 . S
N589 N588 1.365 . S
N589 H609 0.862 . S
C590 C585 1.501 . S
C590 H591 0.961 . S
C590 H592 0.961 . S
C590 H593 0.960 . S
H591 C590 0.961 . S
H592 C590 0.961 . S
H593 C590 0.960 . S
C594 N595 1.342 . S
C594 C598 1.401 . S
C594 C599 1.499 . S
N595 Co578 1.989 . S
N595 C594 1.342 . S
N595 N596 1.388 . S
N596 Co579 1.993 . S
N596 N595 1.388 . S
N596 C597 1.346 . S
C597 N596 1.346 . S
C597 C598 1.396 . S
C597 C607 1.510 . S
C598 C594 1.401 . S
C598 C597 1.396 . S
C599 C594 1.499 . S
C599 H600 0.959 . S
C599 H601 0.960 . S
C599 H602 0.961 . S
H600 C599 0.959 . S
H601 C599 0.960 . S
H602 C599 0.961 . S
O603 Co578 1.967 . S
O603 C611 1.258 . S
O604 Co579 1.941 . S
O604 C611 1.266 . S
H605 C607 0.959 . S
H606 C607 0.961 . S
C607 C597 1.510 . S
C607 H605 0.959 . S
C607 H606 0.961 . S
C607 H608 0.960 . S
H608 C607 0.960 . S
H609 N589 0.862 . S
O610 Co578 1.920 . S
O610 C583 1.289 . S
C611 O603 1.258 . S
C611 O604 1.266 . S
Co612 O615 1.970 . S
Co612 N629 1.989 . S
Co612 O637 1.967 . S
Co612 O644 1.920 . S
Co613 O616 1.966 . S
Co613 N622 2.022 . S
Co613 N630 1.993 . S
Co613 O638 1.941 . S
C614 O615 1.258 . S
C614 O616 1.263 . S
O615 Co612 1.970 . S
O615 C614 1.258 . S
O616 Co613 1.966 . S
O616 C614 1.263 . S
C617 O618 1.235 . S
C617 O644 1.289 1_455 S
O618 C617 1.235 . S
C619 C621 1.400 . S
C619 N622 1.351 . S
C619 C624 1.501 . S
C620 C621 1.387 . S
C620 N623 1.341 . S
C621 C619 1.400 . S
C621 C620 1.387 . S
N622 Co613 2.022 . S
N622 C619 1.351 . S
N622 N623 1.365 . S
N623 C620 1.341 . S
N623 N622 1.365 . S
N623 H643 0.862 . S
C624 C619 1.501 . S
C624 H625 0.961 . S
C624 H626 0.961 . S
C624 H627 0.960 . S
H625 C624 0.961 . S
H626 C624 0.961 . S
H627 C624 0.960 . S
C628 N629 1.342 . S
C628 C632 1.401 . S
C628 C633 1.499 . S
N629 Co612 1.989 . S
N629 C628 1.342 . S
N629 N630 1.388 . S
N630 Co613 1.993 . S
N630 N629 1.388 . S
N630 C631 1.346 . S
C631 N630 1.346 . S
C631 C632 1.396 . S
C631 C641 1.510 . S
C632 C628 1.401 . S
C632 C631 1.396 . S
C633 C628 1.499 . S
C633 H634 0.959 1_655 S
C633 H635 0.960 1_655 S
C633 H636 0.961 1_655 S
H634 C633 0.959 1_455 S
H635 C633 0.960 1_455 S
H636 C633 0.961 1_455 S
O637 Co612 1.967 . S
O637 C645 1.258 . S
O638 Co613 1.941 . S
O638 C645 1.266 . S
H639 C641 0.959 . S
H640 C641 0.961 . S
C641 C631 1.510 . S
C641 H639 0.959 . S
C641 H640 0.961 . S
C641 H642 0.960 . S
H642 C641 0.960 . S
H643 N623 0.862 . S
O644 Co612 1.920 . S
O644 C617 1.289 1_655 S
C645 O637 1.258 . S
C645 O638 1.266 . S
Co646 O649 1.970 . S
Co646 N663 1.989 . S
Co646 O671 1.967 . S
Co646 O678 1.920 . S
Co647 O650 1.966 . S
Co647 N656 2.022 . S
Co647 N664 1.993 . S
Co647 O672 1.941 . S
C648 O649 1.258 . S
C648 O650 1.263 . S
O649 Co646 1.970 . S
O649 C648 1.258 . S
O650 Co647 1.966 . S
O650 C648 1.263 . S
C651 O652 1.235 . S
C651 O678 1.289 . S
O652 C651 1.235 . S
C653 C655 1.400 . S
C653 N656 1.351 . S
C653 C658 1.501 . S
C654 C655 1.387 . S
C654 N657 1.341 . S
C655 C653 1.400 . S
C655 C654 1.387 . S
N656 Co647 2.022 . S
N656 C653 1.351 . S
N656 N657 1.365 . S
N657 C654 1.341 . S
N657 N656 1.365 . S
N657 H677 0.862 . S
C658 C653 1.501 . S
C658 H659 0.961 . S
C658 H660 0.961 . S
C658 H661 0.960 . S
H659 C658 0.961 . S
H660 C658 0.961 . S
H661 C658 0.960 . S
C662 N663 1.342 . S
C662 C666 1.401 . S
C662 C667 1.499 . S
N663 Co646 1.989 . S
N663 C662 1.342 . S
N663 N664 1.388 . S
N664 Co647 1.993 . S
N664 N663 1.388 . S
N664 C665 1.346 . S
C665 N664 1.346 . S
C665 C666 1.396 . S
C665 C675 1.510 . S
C666 C662 1.401 . S
C666 C665 1.396 . S
C667 C662 1.499 . S
C667 H668 0.959 . S
C667 H669 0.960 . S
C667 H670 0.961 . S
H668 C667 0.959 . S
H669 C667 0.960 . S
H670 C667 0.961 . S
O671 Co646 1.967 . S
O671 C679 1.258 . S
O672 Co647 1.941 . S
O672 C679 1.266 . S
H673 C675 0.959 . S
H674 C675 0.961 . S
C675 C665 1.510 . S
C675 H673 0.959 . S
C675 H674 0.961 . S
C675 H676 0.960 . S
H676 C675 0.960 . S
H677 N657 0.862 . S
O678 Co646 1.920 . S
O678 C651 1.289 . S
C679 O671 1.258 . S
C679 O672 1.266 . S
Co680 O683 1.970 . S
Co680 N697 1.989 . S
Co680 O705 1.967 . S
Co680 O712 1.920 . S
Co681 O684 1.966 . S
Co681 N690 2.022 . S
Co681 N698 1.993 . S
Co681 O706 1.941 . S
C682 O683 1.258 . S
C682 O684 1.263 . S
O683 Co680 1.970 . S
O683 C682 1.258 . S
O684 Co681 1.966 . S
O684 C682 1.263 . S
C685 O686 1.235 . S
C685 O712 1.289 1_655 S
O686 C685 1.235 . S
C687 C689 1.400 . S
C687 N690 1.351 . S
C687 C692 1.501 . S
C688 C689 1.387 . S
C688 N691 1.341 . S
C689 C687 1.400 . S
C689 C688 1.387 . S
N690 Co681 2.022 . S
N690 C687 1.351 . S
N690 N691 1.365 . S
N691 C688 1.341 . S
N691 N690 1.365 . S
N691 H711 0.862 . S
C692 C687 1.501 . S
C692 H693 0.961 . S
C692 H694 0.961 . S
C692 H695 0.960 . S
H693 C692 0.961 . S
H694 C692 0.961 . S
H695 C692 0.960 . S
C696 N697 1.342 . S
C696 C700 1.401 . S
C696 C701 1.499 . S
N697 Co680 1.989 . S
N697 C696 1.342 . S
N697 N698 1.388 . S
N698 Co681 1.993 . S
N698 N697 1.388 . S
N698 C699 1.346 . S
C699 N698 1.346 . S
C699 C700 1.396 . S
C699 C709 1.510 . S
C700 C696 1.401 . S
C700 C699 1.396 . S
C701 C696 1.499 . S
C701 H702 0.959 1_455 S
C701 H703 0.960 1_455 S
C701 H704 0.961 1_455 S
H702 C701 0.959 1_655 S
H703 C701 0.960 1_655 S
H704 C701 0.961 1_655 S
O705 Co680 1.967 . S
O705 C713 1.258 . S
O706 Co681 1.941 . S
O706 C713 1.266 . S
H707 C709 0.959 . S
H708 C709 0.961 . S
C709 C699 1.510 . S
C709 H707 0.959 . S
C709 H708 0.961 . S
C709 H710 0.960 . S
H710 C709 0.960 . S
H711 N691 0.862 . S
O712 Co680 1.920 . S
O712 C685 1.289 1_455 S
C713 O705 1.258 . S
C713 O706 1.266 . S
Co714 O717 1.970 . S
Co714 N731 1.989 . S
Co714 O739 1.967 . S
Co714 O746 1.920 . S
Co715 O718 1.966 . S
Co715 N724 2.022 . S
Co715 N732 1.993 . S
Co715 O740 1.941 . S
C716 O717 1.258 . S
C716 O718 1.263 . S
O717 Co714 1.970 . S
O717 C716 1.258 . S
O718 Co715 1.966 . S
O718 C716 1.263 . S
C719 O720 1.235 . S
C719 O746 1.289 . S
O720 C719 1.235 . S
C721 C723 1.400 . S
C721 N724 1.351 . S
C721 C726 1.501 . S
C722 C723 1.387 . S
C722 N725 1.341 . S
C723 C721 1.400 . S
C723 C722 1.387 . S
N724 Co715 2.022 . S
N724 C721 1.351 . S
N724 N725 1.365 . S
N725 C722 1.341 . S
N725 N724 1.365 . S
N725 H745 0.862 . S
C726 C721 1.501 . S
C726 H727 0.961 . S
C726 H728 0.961 . S
C726 H729 0.960 . S
H727 C726 0.961 . S
H728 C726 0.961 . S
H729 C726 0.960 . S
C730 N731 1.342 . S
C730 C734 1.401 . S
C730 C735 1.499 . S
N731 Co714 1.989 . S
N731 C730 1.342 . S
N731 N732 1.388 . S
N732 Co715 1.993 . S
N732 N731 1.388 . S
N732 C733 1.346 . S
C733 N732 1.346 . S
C733 C734 1.396 . S
C733 C743 1.510 . S
C734 C730 1.401 . S
C734 C733 1.396 . S
C735 C730 1.499 . S
C735 H736 0.959 . S
C735 H737 0.960 . S
C735 H738 0.961 . S
H736 C735 0.959 . S
H737 C735 0.960 . S
H738 C735 0.961 . S
O739 Co714 1.967 . S
O739 C747 1.258 . S
O740 Co715 1.941 . S
O740 C747 1.266 . S
H741 C743 0.959 . S
H742 C743 0.961 . S
C743 C733 1.510 . S
C743 H741 0.959 . S
C743 H742 0.961 . S
C743 H744 0.960 . S
H744 C743 0.960 . S
H745 N725 0.862 . S
O746 Co714 1.920 . S
O746 C719 1.289 . S
C747 O739 1.258 . S
C747 O740 1.266 . S
Co748 O751 1.970 . S
Co748 N765 1.989 . S
Co748 O773 1.967 . S
Co748 O780 1.920 . S
Co749 O752 1.966 . S
Co749 N758 2.022 . S
Co749 N766 1.993 . S
Co749 O774 1.941 . S
C750 O751 1.258 . S
C750 O752 1.263 . S
O751 Co748 1.970 . S
O751 C750 1.258 . S
O752 Co749 1.966 . S
O752 C750 1.263 . S
C753 O754 1.235 . S
C753 O780 1.289 1_655 S
O754 C753 1.235 . S
C755 C757 1.400 . S
C755 N758 1.351 . S
C755 C760 1.501 . S
C756 C757 1.387 . S
C756 N759 1.341 . S
C757 C755 1.400 . S
C757 C756 1.387 . S
N758 Co749 2.022 . S
N758 C755 1.351 . S
N758 N759 1.365 . S
N759 C756 1.341 . S
N759 N758 1.365 . S
N759 H779 0.862 . S
C760 C755 1.501 . S
C760 H761 0.961 . S
C760 H762 0.961 . S
C760 H763 0.960 . S
H761 C760 0.961 . S
H762 C760 0.961 . S
H763 C760 0.960 . S
C764 N765 1.342 . S
C764 C768 1.401 . S
C764 C769 1.499 . S
N765 Co748 1.989 . S
N765 C764 1.342 . S
N765 N766 1.388 . S
N766 Co749 1.993 . S
N766 N765 1.388 . S
N766 C767 1.346 . S
C767 N766 1.346 . S
C767 C768 1.396 . S
C767 C777 1.510 . S
C768 C764 1.401 . S
C768 C767 1.396 . S
C769 C764 1.499 . S
C769 H770 0.959 1_455 S
C769 H771 0.960 1_455 S
C769 H772 0.961 1_455 S
H770 C769 0.959 1_655 S
H771 C769 0.960 1_655 S
H772 C769 0.961 1_655 S
O773 Co748 1.967 . S
O773 C781 1.258 . S
O774 Co749 1.941 . S
O774 C781 1.266 . S
H775 C777 0.959 . S
H776 C777 0.961 . S
C777 C767 1.510 . S
C777 H775 0.959 . S
C777 H776 0.961 . S
C777 H778 0.960 . S
H778 C777 0.960 . S
H779 N759 0.862 . S
O780 Co748 1.920 . S
O780 C753 1.289 1_455 S
C781 O773 1.258 . S
C781 O774 1.266 . S
Co782 O785 1.970 . S
Co782 N799 1.989 . S
Co782 O807 1.967 . S
Co782 O814 1.920 . S
Co783 O786 1.966 . S
Co783 N792 2.022 . S
Co783 N800 1.993 . S
Co783 O808 1.941 . S
C784 O785 1.258 . S
C784 O786 1.263 . S
O785 Co782 1.970 . S
O785 C784 1.258 . S
O786 Co783 1.966 . S
O786 C784 1.263 . S
C787 O788 1.235 . S
C787 O814 1.289 . S
O788 C787 1.235 . S
C789 C791 1.400 . S
C789 N792 1.351 . S
C789 C794 1.501 . S
C790 C791 1.387 . S
C790 N793 1.341 . S
C791 C789 1.400 . S
C791 C790 1.387 . S
N792 Co783 2.022 . S
N792 C789 1.351 . S
N792 N793 1.365 . S
N793 C790 1.341 . S
N793 N792 1.365 . S
N793 H813 0.862 . S
C794 C789 1.501 . S
C794 H795 0.961 . S
C794 H796 0.961 . S
C794 H797 0.960 . S
H795 C794 0.961 . S
H796 C794 0.961 . S
H797 C794 0.960 . S
C798 N799 1.342 . S
C798 C802 1.401 . S
C798 C803 1.499 . S
N799 Co782 1.989 . S
N799 C798 1.342 . S
N799 N800 1.388 . S
N800 Co783 1.993 . S
N800 N799 1.388 . S
N800 C801 1.346 . S
C801 N800 1.346 . S
C801 C802 1.396 . S
C801 C811 1.510 . S
C802 C798 1.401 . S
C802 C801 1.396 . S
C803 C798 1.499 . S
C803 H804 0.959 . S
C803 H805 0.960 . S
C803 H806 0.961 . S
H804 C803 0.959 . S
H805 C803 0.960 . S
H806 C803 0.961 . S
O807 Co782 1.967 . S
O807 C815 1.258 . S
O808 Co783 1.941 . S
O808 C815 1.266 . S
H809 C811 0.959 . S
H810 C811 0.961 . S
C811 C801 1.510 . S
C811 H809 0.959 . S
C811 H810 0.961 . S
C811 H812 0.960 . S
H812 C811 0.960 . S
H813 N793 0.862 . S
O814 Co782 1.920 . S
O814 C787 1.289 . S
C815 O807 1.258 . S
C815 O808 1.266 . S
Co816 O819 1.970 . S
Co816 N833 1.989 . S
Co816 O841 1.967 . S
Co816 O848 1.920 . S
Co817 O820 1.966 . S
Co817 N826 2.022 . S
Co817 N834 1.993 . S
Co817 O842 1.941 . S
C818 O819 1.258 . S
C818 O820 1.263 . S
O819 Co816 1.970 . S
O819 C818 1.258 . S
O820 Co817 1.966 . S
O820 C818 1.263 . S
C821 O822 1.235 . S
C821 O848 1.289 1_455 S
O822 C821 1.235 . S
C823 C825 1.400 . S
C823 N826 1.351 . S
C823 C828 1.501 1_554 S
C824 C825 1.387 . S
C824 N827 1.341 . S
C825 C823 1.400 . S
C825 C824 1.387 . S
N826 Co817 2.022 . S
N826 C823 1.351 . S
N826 N827 1.365 . S
N827 C824 1.341 . S
N827 N826 1.365 . S
N827 H847 0.862 . S
C828 C823 1.501 1_556 S
C828 H829 0.961 . S
C828 H830 0.961 . S
C828 H831 0.960 . S
H829 C828 0.961 . S
H830 C828 0.961 . S
H831 C828 0.960 . S
C832 N833 1.342 . S
C832 C836 1.401 . S
C832 C837 1.499 . S
N833 Co816 1.989 . S
N833 C832 1.342 . S
N833 N834 1.388 . S
N834 Co817 1.993 . S
N834 N833 1.388 . S
N834 C835 1.346 . S
C835 N834 1.346 . S
C835 C836 1.396 . S
C835 C845 1.510 . S
C836 C832 1.401 . S
C836 C835 1.396 . S
C837 C832 1.499 . S
C837 H838 0.959 1_655 S
C837 H839 0.960 1_655 S
C837 H840 0.961 1_655 S
H838 C837 0.959 1_455 S
H839 C837 0.960 1_455 S
H840 C837 0.961 1_455 S
O841 Co816 1.967 . S
O841 C849 1.258 . S
O842 Co817 1.941 . S
O842 C849 1.266 . S
H843 C845 0.959 . S
H844 C845 0.961 1_556 S
C845 C835 1.510 . S
C845 H843 0.959 . S
C845 H844 0.961 1_554 S
C845 H846 0.960 . S
H846 C845 0.960 . S
H847 N827 0.862 . S
O848 Co816 1.920 . S
O848 C821 1.289 1_655 S
C849 O841 1.258 . S
C849 O842 1.266 . S
Co850 O853 1.970 . S
Co850 N867 1.989 . S
Co850 O875 1.967 . S
Co850 O882 1.920 . S
Co851 O854 1.966 . S
Co851 N860 2.022 . S
Co851 N868 1.993 . S
Co851 O876 1.941 . S
C852 O853 1.258 . S
C852 O854 1.263 . S
O853 Co850 1.970 . S
O853 C852 1.258 . S
O854 Co851 1.966 . S
O854 C852 1.263 . S
C855 O856 1.235 . S
C855 O882 1.289 . S
O856 C855 1.235 . S
C857 C859 1.400 . S
C857 N860 1.351 . S
C857 C862 1.501 1_554 S
C858 C859 1.387 . S
C858 N861 1.341 . S
C859 C857 1.400 . S
C859 C858 1.387 . S
N860 Co851 2.022 . S
N860 C857 1.351 . S
N860 N861 1.365 . S
N861 C858 1.341 . S
N861 N860 1.365 . S
N861 H881 0.862 . S
C862 C857 1.501 1_556 S
C862 H863 0.961 . S
C862 H864 0.961 . S
C862 H865 0.960 . S
H863 C862 0.961 . S
H864 C862 0.961 . S
H865 C862 0.960 . S
C866 N867 1.342 . S
C866 C870 1.401 . S
C866 C871 1.499 . S
N867 Co850 1.989 . S
N867 C866 1.342 . S
N867 N868 1.388 . S
N868 Co851 1.993 . S
N868 N867 1.388 . S
N868 C869 1.346 . S
C869 N868 1.346 . S
C869 C870 1.396 . S
C869 C879 1.510 . S
C870 C866 1.401 . S
C870 C869 1.396 . S
C871 C866 1.499 . S
C871 H872 0.959 . S
C871 H873 0.960 . S
C871 H874 0.961 . S
H872 C871 0.959 . S
H873 C871 0.960 . S
H874 C871 0.961 . S
O875 Co850 1.967 . S
O875 C883 1.258 . S
O876 Co851 1.941 . S
O876 C883 1.266 . S
H877 C879 0.959 . S
H878 C879 0.961 1_556 S
C879 C869 1.510 . S
C879 H877 0.959 . S
C879 H878 0.961 1_554 S
C879 H880 0.960 . S
H880 C879 0.960 . S
H881 N861 0.862 . S
O882 Co850 1.920 . S
O882 C855 1.289 . S
C883 O875 1.258 . S
C883 O876 1.266 . S
Co884 O887 1.970 . S
Co884 N901 1.989 . S
Co884 O909 1.967 . S
Co884 O916 1.920 . S
Co885 O888 1.966 . S
Co885 N894 2.022 . S
Co885 N902 1.993 . S
Co885 O910 1.941 . S
C886 O887 1.258 . S
C886 O888 1.263 . S
O887 Co884 1.970 . S
O887 C886 1.258 . S
O888 Co885 1.966 . S
O888 C886 1.263 . S
C889 O890 1.235 . S
C889 O916 1.289 1_455 S
O890 C889 1.235 . S
C891 C893 1.400 . S
C891 N894 1.351 . S
C891 C896 1.501 . S
C892 C893 1.387 . S
C892 N895 1.341 . S
C893 C891 1.400 . S
C893 C892 1.387 . S
N894 Co885 2.022 . S
N894 C891 1.351 . S
N894 N895 1.365 . S
N895 C892 1.341 . S
N895 N894 1.365 . S
N895 H915 0.862 . S
C896 C891 1.501 . S
C896 H897 0.961 . S
C896 H898 0.961 . S
C896 H899 0.960 . S
H897 C896 0.961 . S
H898 C896 0.961 . S
H899 C896 0.960 . S
C900 N901 1.342 . S
C900 C904 1.401 . S
C900 C905 1.499 . S
N901 Co884 1.989 . S
N901 C900 1.342 . S
N901 N902 1.388 . S
N902 Co885 1.993 . S
N902 N901 1.388 . S
N902 C903 1.346 . S
C903 N902 1.346 . S
C903 C904 1.396 . S
C903 C913 1.510 . S
C904 C900 1.401 . S
C904 C903 1.396 . S
C905 C900 1.499 . S
C905 H906 0.959 1_655 S
C905 H907 0.960 1_655 S
C905 H908 0.961 1_655 S
H906 C905 0.959 1_455 S
H907 C905 0.960 1_455 S
H908 C905 0.961 1_455 S
O909 Co884 1.967 . S
O909 C917 1.258 . S
O910 Co885 1.941 . S
O910 C917 1.266 . S
H911 C913 0.959 . S
H912 C913 0.961 . S
C913 C903 1.510 . S
C913 H911 0.959 . S
C913 H912 0.961 . S
C913 H914 0.960 . S
H914 C913 0.960 . S
H915 N895 0.862 . S
O916 Co884 1.920 . S
O916 C889 1.289 1_655 S
C917 O909 1.258 . S
C917 O910 1.266 . S
Co918 O921 1.970 . S
Co918 N935 1.989 . S
Co918 O943 1.967 . S
Co918 O950 1.920 . S
Co919 O922 1.966 . S
Co919 N928 2.022 . S
Co919 N936 1.993 . S
Co919 O944 1.941 . S
C920 O921 1.258 . S
C920 O922 1.263 . S
O921 Co918 1.970 . S
O921 C920 1.258 . S
O922 Co919 1.966 . S
O922 C920 1.263 . S
C923 O924 1.235 . S
C923 O950 1.289 . S
O924 C923 1.235 . S
C925 C927 1.400 . S
C925 N928 1.351 . S
C925 C930 1.501 . S
C926 C927 1.387 . S
C926 N929 1.341 . S
C927 C925 1.400 . S
C927 C926 1.387 . S
N928 Co919 2.022 . S
N928 C925 1.351 . S
N928 N929 1.365 . S
N929 C926 1.341 . S
N929 N928 1.365 . S
N929 H949 0.862 . S
C930 C925 1.501 . S
C930 H931 0.961 . S
C930 H932 0.961 . S
C930 H933 0.960 . S
H931 C930 0.961 . S
H932 C930 0.961 . S
H933 C930 0.960 . S
C934 N935 1.342 . S
C934 C938 1.401 . S
C934 C939 1.499 . S
N935 Co918 1.989 . S
N935 C934 1.342 . S
N935 N936 1.388 . S
N936 Co919 1.993 . S
N936 N935 1.388 . S
N936 C937 1.346 . S
C937 N936 1.346 . S
C937 C938 1.396 . S
C937 C947 1.510 . S
C938 C934 1.401 . S
C938 C937 1.396 . S
C939 C934 1.499 . S
C939 H940 0.959 . S
C939 H941 0.960 . S
C939 H942 0.961 . S
H940 C939 0.959 . S
H941 C939 0.960 . S
H942 C939 0.961 . S
O943 Co918 1.967 . S
O943 C951 1.258 . S
O944 Co919 1.941 . S
O944 C951 1.266 . S
H945 C947 0.959 . S
H946 C947 0.961 . S
C947 C937 1.510 . S
C947 H945 0.959 . S
C947 H946 0.961 . S
C947 H948 0.960 . S
H948 C947 0.960 . S
H949 N929 0.862 . S
O950 Co918 1.920 . S
O950 C923 1.289 . S
C951 O943 1.258 . S
C951 O944 1.266 . S
Co952 O955 1.970 . S
Co952 N969 1.989 . S
Co952 O977 1.967 . S
Co952 O984 1.920 . S
Co953 O956 1.966 . S
Co953 N962 2.022 . S
Co953 N970 1.993 . S
Co953 O978 1.941 . S
C954 O955 1.258 . S
C954 O956 1.263 . S
O955 Co952 1.970 . S
O955 C954 1.258 . S
O956 Co953 1.966 . S
O956 C954 1.263 . S
C957 O958 1.235 . S
C957 O984 1.289 1_655 S
O958 C957 1.235 . S
C959 C961 1.400 . S
C959 N962 1.351 . S
C959 C964 1.501 1_556 S
C960 C961 1.387 . S
C960 N963 1.341 . S
C961 C959 1.400 . S
C961 C960 1.387 . S
N962 Co953 2.022 . S
N962 C959 1.351 . S
N962 N963 1.365 . S
N963 C960 1.341 . S
N963 N962 1.365 . S
N963 H983 0.862 . S
C964 C959 1.501 1_554 S
C964 H965 0.961 . S
C964 H966 0.961 . S
C964 H967 0.960 . S
H965 C964 0.961 . S
H966 C964 0.961 . S
H967 C964 0.960 . S
C968 N969 1.342 . S
C968 C972 1.401 . S
C968 C973 1.499 . S
N969 Co952 1.989 . S
N969 C968 1.342 . S
N969 N970 1.388 . S
N970 Co953 1.993 . S
N970 N969 1.388 . S
N970 C971 1.346 . S
C971 N970 1.346 . S
C971 C972 1.396 . S
C971 C981 1.510 . S
C972 C968 1.401 . S
C972 C971 1.396 . S
C973 C968 1.499 . S
C973 H974 0.959 1_455 S
C973 H975 0.960 1_455 S
C973 H976 0.961 1_455 S
H974 C973 0.959 1_655 S
H975 C973 0.960 1_655 S
H976 C973 0.961 1_655 S
O977 Co952 1.967 . S
O977 C985 1.258 . S
O978 Co953 1.941 . S
O978 C985 1.266 . S
H979 C981 0.959 . S
H980 C981 0.961 1_554 S
C981 C971 1.510 . S
C981 H979 0.959 . S
C981 H980 0.961 1_556 S
C981 H982 0.960 . S
H982 C981 0.960 . S
H983 N963 0.862 . S
O984 Co952 1.920 . S
O984 C957 1.289 1_455 S
C985 O977 1.258 . S
C985 O978 1.266 . S
Co986 O989 1.970 . S
Co986 N1003 1.989 . S
Co986 O1011 1.967 . S
Co986 O1018 1.920 . S
Co987 O990 1.966 . S
Co987 N996 2.022 . S
Co987 N1004 1.993 . S
Co987 O1012 1.941 . S
C988 O989 1.258 . S
C988 O990 1.263 . S
O989 Co986 1.970 . S
O989 C988 1.258 . S
O990 Co987 1.966 . S
O990 C988 1.263 . S
C991 O992 1.235 . S
C991 O1018 1.289 . S
O992 C991 1.235 . S
C993 C995 1.400 . S
C993 N996 1.351 . S
C993 C998 1.501 1_556 S
C994 C995 1.387 . S
C994 N997 1.341 . S
C995 C993 1.400 . S
C995 C994 1.387 . S
N996 Co987 2.022 . S
N996 C993 1.351 . S
N996 N997 1.365 . S
N997 C994 1.341 . S
N997 N996 1.365 . S
N997 H1017 0.862 . S
C998 C993 1.501 1_554 S
C998 H999 0.961 . S
C998 H1000 0.961 . S
C998 H1001 0.960 . S
H999 C998 0.961 . S
H1000 C998 0.961 . S
H1001 C998 0.960 . S
C1002 N1003 1.342 . S
C1002 C1006 1.401 . S
C1002 C1007 1.499 . S
N1003 Co986 1.989 . S
N1003 C1002 1.342 . S
N1003 N1004 1.388 . S
N1004 Co987 1.993 . S
N1004 N1003 1.388 . S
N1004 C1005 1.346 . S
C1005 N1004 1.346 . S
C1005 C1006 1.396 . S
C1005 C1015 1.510 . S
C1006 C1002 1.401 . S
C1006 C1005 1.396 . S
C1007 C1002 1.499 . S
C1007 H1008 0.959 . S
C1007 H1009 0.960 . S
C1007 H1010 0.961 . S
H1008 C1007 0.959 . S
H1009 C1007 0.960 . S
H1010 C1007 0.961 . S
O1011 Co986 1.967 . S
O1011 C1019 1.258 . S
O1012 Co987 1.941 . S
O1012 C1019 1.266 . S
H1013 C1015 0.959 . S
H1014 C1015 0.961 1_554 S
C1015 C1005 1.510 . S
C1015 H1013 0.959 . S
C1015 H1014 0.961 1_556 S
C1015 H1016 0.960 . S
H1016 C1015 0.960 . S
H1017 N997 0.862 . S
O1018 Co986 1.920 . S
O1018 C991 1.289 . S
C1019 O1011 1.258 . S
C1019 O1012 1.266 . S
Co1020 O1023 1.970 . S
Co1020 N1037 1.989 . S
Co1020 O1045 1.967 . S
Co1020 O1052 1.920 . S
Co1021 O1024 1.966 . S
Co1021 N1030 2.022 . S
Co1021 N1038 1.993 . S
Co1021 O1046 1.941 . S
C1022 O1023 1.258 . S
C1022 O1024 1.263 . S
O1023 Co1020 1.970 . S
O1023 C1022 1.258 . S
O1024 Co1021 1.966 . S
O1024 C1022 1.263 . S
C1025 O1026 1.235 . S
C1025 O1052 1.289 1_655 S
O1026 C1025 1.235 . S
C1027 C1029 1.400 . S
C1027 N1030 1.351 . S
C1027 C1032 1.501 . S
C1028 C1029 1.387 . S
C1028 N1031 1.341 . S
C1029 C1027 1.400 . S
C1029 C1028 1.387 . S
N1030 Co1021 2.022 . S
N1030 C1027 1.351 . S
N1030 N1031 1.365 . S
N1031 C1028 1.341 . S
N1031 N1030 1.365 . S
N1031 H1051 0.862 . S
C1032 C1027 1.501 . S
C1032 H1033 0.961 . S
C1032 H1034 0.961 . S
C1032 H1035 0.960 . S
H1033 C1032 0.961 . S
H1034 C1032 0.961 . S
H1035 C1032 0.960 . S
C1036 N1037 1.342 . S
C1036 C1040 1.401 . S
C1036 C1041 1.499 . S
N1037 Co1020 1.989 . S
N1037 C1036 1.342 . S
N1037 N1038 1.388 . S
N1038 Co1021 1.993 . S
N1038 N1037 1.388 . S
N1038 C1039 1.346 . S
C1039 N1038 1.346 . S
C1039 C1040 1.396 . S
C1039 C1049 1.510 . S
C1040 C1036 1.401 . S
C1040 C1039 1.396 . S
C1041 C1036 1.499 . S
C1041 H1042 0.959 1_455 S
C1041 H1043 0.960 1_455 S
C1041 H1044 0.961 1_455 S
H1042 C1041 0.959 1_655 S
H1043 C1041 0.960 1_655 S
H1044 C1041 0.961 1_655 S
O1045 Co1020 1.967 . S
O1045 C1053 1.258 . S
O1046 Co1021 1.941 . S
O1046 C1053 1.266 . S
H1047 C1049 0.959 . S
H1048 C1049 0.961 . S
C1049 C1039 1.510 . S
C1049 H1047 0.959 . S
C1049 H1048 0.961 . S
C1049 H1050 0.960 . S
H1050 C1049 0.960 . S
H1051 N1031 0.862 . S
O1052 Co1020 1.920 . S
O1052 C1025 1.289 1_455 S
C1053 O1045 1.258 . S
C1053 O1046 1.266 . S
Co1054 O1057 1.970 . S
Co1054 N1071 1.989 . S
Co1054 O1079 1.967 . S
Co1054 O1086 1.920 . S
Co1055 O1058 1.966 . S
Co1055 N1064 2.022 . S
Co1055 N1072 1.993 . S
Co1055 O1080 1.941 . S
C1056 O1057 1.258 . S
C1056 O1058 1.263 . S
O1057 Co1054 1.970 . S
O1057 C1056 1.258 . S
O1058 Co1055 1.966 . S
O1058 C1056 1.263 . S
C1059 O1060 1.235 . S
C1059 O1086 1.289 . S
O1060 C1059 1.235 . S
C1061 C1063 1.400 . S
C1061 N1064 1.351 . S
C1061 C1066 1.501 . S
C1062 C1063 1.387 . S
C1062 N1065 1.341 . S
C1063 C1061 1.400 . S
C1063 C1062 1.387 . S
N1064 Co1055 2.022 . S
N1064 C1061 1.351 . S
N1064 N1065 1.365 . S
N1065 C1062 1.341 . S
N1065 N1064 1.365 . S
N1065 H1085 0.862 . S
C1066 C1061 1.501 . S
C1066 H1067 0.961 . S
C1066 H1068 0.961 . S
C1066 H1069 0.960 . S
H1067 C1066 0.961 . S
H1068 C1066 0.961 . S
H1069 C1066 0.960 . S
C1070 N1071 1.342 . S
C1070 C1074 1.401 . S
C1070 C1075 1.499 . S
N1071 Co1054 1.989 . S
N1071 C1070 1.342 . S
N1071 N1072 1.388 . S
N1072 Co1055 1.993 . S
N1072 N1071 1.388 . S
N1072 C1073 1.346 . S
C1073 N1072 1.346 . S
C1073 C1074 1.396 . S
C1073 C1083 1.510 . S
C1074 C1070 1.401 . S
C1074 C1073 1.396 . S
C1075 C1070 1.499 . S
C1075 H1076 0.959 . S
C1075 H1077 0.960 . S
C1075 H1078 0.961 . S
H1076 C1075 0.959 . S
H1077 C1075 0.960 . S
H1078 C1075 0.961 . S
O1079 Co1054 1.967 . S
O1079 C1087 1.258 . S
O1080 Co1055 1.941 . S
O1080 C1087 1.266 . S
H1081 C1083 0.959 . S
H1082 C1083 0.961 . S
C1083 C1073 1.510 . S
C1083 H1081 0.959 . S
C1083 H1082 0.961 . S
C1083 H1084 0.960 . S
H1084 C1083 0.960 . S
H1085 N1065 0.862 . S
O1086 Co1054 1.920 . S
O1086 C1059 1.289 . S
C1087 O1079 1.258 . S
C1087 O1080 1.266 . S
C1088 C1089 1.369 1_565 S
C1088 C1090 1.419 1_554 S
C1088 H1092 0.930 . S
C1089 C1088 1.369 1_545 S
C1089 C1098 1.429 . S
C1090 C1088 1.419 1_556 S
C1090 C1091 1.363 . S
C1090 H1093 0.929 . S
C1091 C1090 1.363 . S
C1091 C1097 1.428 1_565 S
H1092 C1088 0.930 . S
H1093 C1090 0.929 . S
S1094 N1095 1.613 . S
S1094 N1096 1.610 1_554 S
N1095 S1094 1.613 . S
N1095 C1098 1.350 . S
N1096 S1094 1.610 1_556 S
N1096 C1097 1.351 . S
C1097 C1091 1.428 1_545 S
C1097 N1096 1.351 . S
C1097 C1098 1.434 1_556 S
C1098 C1089 1.429 . S
C1098 N1095 1.350 . S
C1098 C1097 1.434 1_554 S
C1099 C1100 1.369 1_554 S
C1099 C1101 1.419 . S
C1099 H1103 0.930 . S
C1100 C1099 1.369 1_556 S
C1100 C1109 1.429 . S
C1101 C1099 1.419 . S
C1101 C1102 1.363 . S
C1101 H1104 0.929 . S
C1102 C1101 1.363 . S
C1102 C1108 1.428 1_554 S
H1103 C1099 0.930 . S
H1104 C1101 0.929 . S
S1105 N1106 1.613 . S
S1105 N1107 1.610 . S
N1106 S1105 1.613 . S
N1106 C1109 1.350 . S
N1107 S1105 1.610 . S
N1107 C1108 1.351 . S
C1108 C1102 1.428 1_556 S
C1108 N1107 1.351 . S
C1108 C1109 1.434 . S
C1109 C1100 1.429 . S
C1109 N1106 1.350 . S
C1109 C1108 1.434 . S
C1110 C1111 1.369 . S
C1110 C1112 1.419 . S
C1110 H1114 0.930 . S
C1111 C1110 1.369 . S
C1111 C1120 1.429 . S
C1112 C1110 1.419 . S
C1112 C1113 1.363 . S
C1112 H1115 0.929 . S
C1113 C1112 1.363 . S
C1113 C1119 1.428 . S
H1114 C1110 0.930 . S
H1115 C1112 0.929 . S
S1116 N1117 1.613 . S
S1116 N1118 1.610 . S
N1117 S1116 1.613 . S
N1117 C1120 1.350 . S
N1118 S1116 1.610 . S
N1118 C1119 1.351 . S
C1119 C1113 1.428 . S
C1119 N1118 1.351 . S
C1119 C1120 1.434 . S
C1120 C1111 1.429 . S
C1120 N1117 1.350 . S
C1120 C1119 1.434 . S
C1121 C1122 1.369 . S
C1121 C1123 1.419 . S
C1121 H1125 0.930 . S
C1122 C1121 1.369 . S
C1122 C1131 1.429 1_545 S
C1123 C1121 1.419 . S
C1123 C1124 1.363 1_545 S
C1123 H1126 0.929 . S
C1124 C1123 1.363 1_565 S
C1124 C1130 1.428 . S
H1125 C1121 0.930 . S
H1126 C1123 0.929 . S
S1127 N1128 1.613 . S
S1127 N1129 1.610 . S
N1128 S1127 1.613 . S
N1128 C1131 1.350 . S
N1129 S1127 1.610 . S
N1129 C1130 1.351 . S
C1130 C1124 1.428 . S
C1130 N1129 1.351 . S
C1130 C1131 1.434 . S
C1131 C1122 1.429 1_565 S
C1131 N1128 1.350 . S
C1131 C1130 1.434 . S
C1132 C1133 1.369 . S
C1132 C1134 1.438 . S
C1132 H1136 0.930 . S
C1133 C1132 1.369 . S
C1133 C1142 1.408 1_554 S
C1134 C1132 1.438 . S
C1134 C1135 1.341 1_554 S
C1134 H1137 0.934 . S
C1135 C1134 1.341 1_556 S
C1135 C1141 1.428 . S
H1136 C1132 0.930 . S
H1137 C1134 0.934 . S
S1138 N1139 1.613 . S
S1138 N1140 1.610 . S
N1139 S1138 1.613 . S
N1139 C1142 1.353 . S
N1140 S1138 1.610 . S
N1140 C1141 1.351 . S
C1141 C1135 1.428 . S
C1141 N1140 1.351 . S
C1141 C1142 1.454 . S
C1142 C1133 1.408 1_556 S
C1142 N1139 1.353 . S
C1142 C1141 1.454 . S
C1143 C1144 1.369 . S
C1143 C1145 1.419 . S
C1143 H1147 0.930 . S
C1144 C1143 1.369 . S
C1144 C1153 1.429 . S
C1145 C1143 1.419 . S
C1145 C1146 1.363 . S
C1145 H1148 0.929 . S
C1146 C1145 1.363 . S
C1146 C1152 1.428 . S
H1147 C1143 0.930 . S
H1148 C1145 0.929 . S
S1149 N1150 1.613 . S
S1149 N1151 1.610 . S
N1150 S1149 1.613 . S
N1150 C1153 1.350 . S
N1151 S1149 1.610 . S
N1151 C1152 1.351 . S
C1152 C1146 1.428 . S
C1152 N1151 1.351 . S
C1152 C1153 1.434 . S
C1153 C1144 1.429 . S
C1153 N1150 1.350 . S
C1153 C1152 1.434 . S
C1154 C1155 1.369 1_565 S
C1154 C1156 1.419 . S
C1154 H1158 0.930 . S
C1155 C1154 1.369 1_545 S
C1155 C1164 1.429 . S
C1156 C1154 1.419 . S
C1156 C1157 1.363 . S
C1156 H1159 0.929 . S
C1157 C1156 1.363 . S
C1157 C1163 1.428 1_565 S
H1158 C1154 0.930 . S
H1159 C1156 0.929 . S
S1160 N1161 1.613 . S
S1160 N1162 1.610 . S
N1161 S1160 1.613 . S
N1161 C1164 1.350 . S
N1162 S1160 1.610 . S
N1162 C1163 1.351 . S
C1163 C1157 1.428 1_545 S
C1163 N1162 1.351 . S
C1163 C1164 1.434 . S
C1164 C1155 1.429 . S
C1164 N1161 1.350 . S
C1164 C1163 1.434 . S
C1165 C1166 1.369 . S
C1165 C1167 1.419 . S
C1165 H1169 0.930 . S
C1166 C1165 1.369 . S
C1166 C1175 1.429 . S
C1167 C1165 1.419 . S
C1167 C1168 1.363 . S
C1167 H1170 0.929 . S
C1168 C1167 1.363 . S
C1168 C1174 1.428 . S
H1169 C1165 0.930 . S
H1170 C1167 0.929 . S
S1171 N1172 1.613 . S
S1171 N1173 1.610 . S
N1172 S1171 1.613 . S
N1172 C1175 1.350 . S
N1173 S1171 1.610 . S
N1173 C1174 1.351 . S
C1174 C1168 1.428 . S
C1174 N1173 1.351 . S
C1174 C1175 1.434 . S
C1175 C1166 1.429 . S
C1175 N1172 1.350 . S
C1175 C1174 1.434 . S
C1176 C1177 1.369 . S
C1176 C1178 1.419 . S
C1176 H1180 0.930 . S
C1177 C1176 1.369 . S
C1177 C1186 1.429 . S
C1178 C1176 1.419 . S
C1178 C1179 1.363 . S
C1178 H1181 0.929 . S
C1179 C1178 1.363 . S
C1179 C1185 1.428 . S
H1180 C1176 0.930 . S
H1181 C1178 0.929 . S
S1182 N1183 1.613 . S
S1182 N1184 1.610 . S
N1183 S1182 1.613 . S
N1183 C1186 1.350 . S
N1184 S1182 1.610 . S
N1184 C1185 1.351 . S
C1185 C1179 1.428 . S
C1185 N1184 1.351 . S
C1185 C1186 1.434 . S
C1186 C1177 1.429 . S
C1186 N1183 1.350 . S
C1186 C1185 1.434 . S
C1187 C1188 1.369 . S
C1187 C1189 1.419 . S
C1187 H1191 0.930 . S
C1188 C1187 1.369 . S
C1188 C1197 1.429 . S
C1189 C1187 1.419 . S
C1189 C1190 1.363 . S
C1189 H1192 0.929 . S
C1190 C1189 1.363 . S
C1190 C1196 1.428 . S
H1191 C1187 0.930 . S
H1192 C1189 0.929 . S
S1193 N1194 1.613 . S
S1193 N1195 1.610 . S
N1194 S1193 1.613 . S
N1194 C1197 1.350 . S
N1195 S1193 1.610 . S
N1195 C1196 1.351 . S
C1196 C1190 1.428 . S
C1196 N1195 1.351 . S
C1196 C1197 1.434 . S
C1197 C1188 1.429 . S
C1197 N1194 1.350 . S
C1197 C1196 1.434 . S
C1198 C1199 1.369 . S
C1198 C1200 1.419 . S
C1198 H1202 0.930 . S
C1199 C1198 1.369 . S
C1199 C1208 1.429 . S
C1200 C1198 1.419 . S
C1200 C1201 1.363 . S
C1200 H1203 0.929 . S
C1201 C1200 1.363 . S
C1201 C1207 1.428 . S
H1202 C1198 0.930 . S
H1203 C1200 0.929 . S
S1204 N1205 1.613 . S
S1204 N1206 1.610 . S
N1205 S1204 1.613 . S
N1205 C1208 1.350 . S
N1206 S1204 1.610 . S
N1206 C1207 1.351 . S
C1207 C1201 1.428 . S
C1207 N1206 1.351 . S
C1207 C1208 1.434 . S
C1208 C1199 1.429 . S
C1208 N1205 1.350 . S
C1208 C1207 1.434 . S
C1209 C1210 1.369 . S
C1209 C1211 1.419 . S
C1209 H1213 0.930 . S
C1210 C1209 1.369 . S
C1210 C1219 1.429 . S
C1211 C1209 1.419 . S
C1211 C1212 1.363 . S
C1211 H1214 0.929 . S
C1212 C1211 1.363 . S
C1212 C1218 1.428 . S
H1213 C1209 0.930 . S
H1214 C1211 0.929 . S
S1215 N1216 1.613 . S
S1215 N1217 1.610 . S
N1216 S1215 1.613 . S
N1216 C1219 1.350 . S
N1217 S1215 1.610 . S
N1217 C1218 1.351 . S
C1218 C1212 1.428 . S
C1218 N1217 1.351 . S
C1218 C1219 1.434 . S
C1219 C1210 1.429 . S
C1219 N1216 1.350 . S
C1219 C1218 1.434 . S
C1220 C1221 1.369 . S
C1220 C1222 1.419 1_455 S
C1220 H1224 0.930 . S
C1221 C1220 1.369 . S
C1221 C1230 1.429 1_565 S
C1222 C1220 1.419 1_655 S
C1222 C1223 1.363 1_565 S
C1222 H1225 0.929 . S
C1223 C1222 1.363 1_545 S
C1223 C1229 1.428 . S
H1224 C1220 0.930 . S
H1225 C1222 0.929 . S
S1226 N1227 1.613 1_655 S
S1226 N1228 1.610 . S
N1227 S1226 1.613 1_455 S
N1227 C1230 1.350 . S
N1228 S1226 1.610 . S
N1228 C1229 1.351 . S
C1229 C1223 1.428 . S
C1229 N1228 1.351 . S
C1229 C1230 1.434 1_655 S
C1230 C1221 1.429 1_545 S
C1230 N1227 1.350 . S
C1230 C1229 1.434 1_455 S
C1231 C1232 1.369 . S
C1231 C1233 1.419 1_455 S
C1231 H1235 0.930 . S
C1232 C1231 1.369 . S
C1232 C1241 1.429 . S
C1233 C1231 1.419 1_655 S
C1233 C1234 1.363 . S
C1233 H1236 0.929 . S
C1234 C1233 1.363 . S
C1234 C1240 1.428 . S
H1235 C1231 0.930 . S
H1236 C1233 0.929 . S
S1237 N1238 1.613 1_655 S
S1237 N1239 1.610 . S
N1238 S1237 1.613 1_455 S
N1238 C1241 1.350 . S
N1239 S1237 1.610 . S
N1239 C1240 1.351 . S
C1240 C1234 1.428 . S
C1240 N1239 1.351 . S
C1240 C1241 1.434 1_655 S
C1241 C1232 1.429 . S
C1241 N1238 1.350 . S
C1241 C1240 1.434 1_455 S
C1242 C1243 1.369 . S
C1242 C1244 1.419 1_455 S
C1242 H1246 0.930 . S
C1243 C1242 1.369 . S
C1243 C1252 1.429 . S
C1244 C1242 1.419 1_655 S
C1244 C1245 1.363 . S
C1244 H1247 0.929 . S
C1245 C1244 1.363 . S
C1245 C1251 1.428 . S
H1246 C1242 0.930 . S
H1247 C1244 0.929 . S
S1248 N1249 1.613 . S
S1248 N1250 1.610 1_455 S
N1249 S1248 1.613 . S
N1249 C1252 1.350 . S
N1250 S1248 1.610 1_655 S
N1250 C1251 1.351 . S
C1251 C1245 1.428 . S
C1251 N1250 1.351 . S
C1251 C1252 1.434 1_655 S
C1252 C1243 1.429 . S
C1252 N1249 1.350 . S
C1252 C1251 1.434 1_455 S
C1253 C1254 1.369 . S
C1253 C1255 1.419 1_455 S
C1253 H1257 0.930 . S
C1254 C1253 1.369 . S
C1254 C1263 1.429 1_556 S
C1255 C1253 1.419 1_655 S
C1255 C1256 1.363 1_556 S
C1255 H1258 0.929 . S
C1256 C1255 1.363 1_554 S
C1256 C1262 1.428 . S
H1257 C1253 0.930 . S
H1258 C1255 0.929 . S
S1259 N1260 1.613 . S
S1259 N1261 1.610 1_455 S
N1260 S1259 1.613 . S
N1260 C1263 1.350 . S
N1261 S1259 1.610 1_655 S
N1261 C1262 1.351 . S
C1262 C1256 1.428 . S
C1262 N1261 1.351 . S
C1262 C1263 1.434 1_655 S
C1263 C1254 1.429 1_554 S
C1263 N1260 1.350 . S
C1263 C1262 1.434 1_455 S
C1264 C1265 1.369 . S
C1264 C1266 1.419 . S
C1264 H1268 0.930 . S
C1265 C1264 1.369 . S
C1265 C1274 1.429 . S
C1266 C1264 1.419 . S
C1266 C1267 1.363 . S
C1266 H1269 0.929 . S
C1267 C1266 1.363 . S
C1267 C1273 1.428 . S
H1268 C1264 0.930 . S
H1269 C1266 0.929 . S
S1270 N1271 1.613 . S
S1270 N1272 1.610 . S
N1271 S1270 1.613 . S
N1271 C1274 1.350 . S
N1272 S1270 1.610 . S
N1272 C1273 1.351 . S
C1273 C1267 1.428 . S
C1273 N1272 1.351 . S
C1273 C1274 1.434 . S
C1274 C1265 1.429 . S
C1274 N1271 1.350 . S
C1274 C1273 1.434 . S
C1275 C1276 1.369 . S
C1275 C1277 1.419 . S
C1275 H1279 0.930 . S
C1276 C1275 1.369 . S
C1276 C1285 1.429 . S
C1277 C1275 1.419 . S
C1277 C1278 1.363 . S
C1277 H1280 0.929 . S
C1278 C1277 1.363 . S
C1278 C1284 1.428 . S
H1279 C1275 0.930 . S
H1280 C1277 0.929 . S
S1281 N1282 1.613 . S
S1281 N1283 1.610 . S
N1282 S1281 1.613 . S
N1282 C1285 1.350 1_455 S
N1283 S1281 1.610 . S
N1283 C1284 1.351 1_455 S
C1284 C1278 1.428 . S
C1284 N1283 1.351 1_655 S
C1284 C1285 1.434 . S
C1285 C1276 1.429 . S
C1285 N1282 1.350 1_655 S
C1285 C1284 1.434 . S
C1286 C1287 1.369 . S
C1286 C1288 1.419 . S
C1286 H1290 0.930 . S
C1287 C1286 1.369 . S
C1287 C1296 1.429 . S
C1288 C1286 1.419 . S
C1288 C1289 1.363 . S
C1288 H1291 0.929 . S
C1289 C1288 1.363 . S
C1289 C1295 1.428 . S
H1290 C1286 0.930 . S
H1291 C1288 0.929 . S
S1292 N1293 1.613 . S
S1292 N1294 1.610 . S
N1293 S1292 1.613 . S
N1293 C1296 1.350 . S
N1294 S1292 1.610 . S
N1294 C1295 1.351 . S
C1295 C1289 1.428 . S
C1295 N1294 1.351 . S
C1295 C1296 1.434 . S
C1296 C1287 1.429 . S
C1296 N1293 1.350 . S
C1296 C1295 1.434 . S
C1297 C1298 1.369 . S
C1297 C1299 1.419 . S
C1297 H1301 0.930 . S
C1298 C1297 1.369 . S
C1298 C1307 1.429 . S
C1299 C1297 1.419 . S
C1299 C1300 1.363 . S
C1299 H1302 0.929 . S
C1300 C1299 1.363 . S
C1300 C1306 1.428 . S
H1301 C1297 0.930 . S
H1302 C1299 0.929 . S
S1303 N1304 1.613 . S
S1303 N1305 1.610 . S
N1304 S1303 1.613 . S
N1304 C1307 1.350 . S
N1305 S1303 1.610 . S
N1305 C1306 1.351 . S
C1306 C1300 1.428 . S
C1306 N1305 1.351 . S
C1306 C1307 1.434 . S
C1307 C1298 1.429 . S
C1307 N1304 1.350 . S
C1307 C1306 1.434 . S
C1308 C1309 1.369 . S
C1308 C1310 1.419 . S
C1308 H1312 0.930 . S
C1309 C1308 1.369 . S
C1309 C1318 1.429 . S
C1310 C1308 1.419 . S
C1310 C1311 1.363 . S
C1310 H1313 0.929 . S
C1311 C1310 1.363 . S
C1311 C1317 1.428 . S
H1312 C1308 0.930 . S
H1313 C1310 0.929 . S
S1314 N1315 1.613 . S
S1314 N1316 1.610 . S
N1315 S1314 1.613 . S
N1315 C1318 1.350 . S
N1316 S1314 1.610 . S
N1316 C1317 1.351 . S
C1317 C1311 1.428 . S
C1317 N1316 1.351 . S
C1317 C1318 1.434 . S
C1318 C1309 1.429 . S
C1318 N1315 1.350 . S
C1318 C1317 1.434 . S
C1319 C1320 1.369 . S
C1319 C1321 1.419 . S
C1319 H1323 0.930 . S
C1320 C1319 1.369 . S
C1320 C1329 1.429 . S
C1321 C1319 1.419 . S
C1321 C1322 1.363 . S
C1321 H1324 0.929 . S
C1322 C1321 1.363 . S
C1322 C1328 1.428 . S
H1323 C1319 0.930 . S
H1324 C1321 0.929 . S
S1325 N1326 1.613 . S
S1325 N1327 1.610 . S
N1326 S1325 1.613 . S
N1326 C1329 1.350 . S
N1327 S1325 1.610 . S
N1327 C1328 1.351 . S
C1328 C1322 1.428 . S
C1328 N1327 1.351 . S
C1328 C1329 1.434 . S
C1329 C1320 1.429 . S
C1329 N1326 1.350 . S
C1329 C1328 1.434 . S
C1330 C1331 1.369 . S
C1330 C1332 1.419 . S
C1330 H1334 0.930 . S
C1331 C1330 1.369 . S
C1331 C1340 1.429 . S
C1332 C1330 1.419 . S
C1332 C1333 1.363 . S
C1332 H1335 0.929 . S
C1333 C1332 1.363 . S
C1333 C1339 1.428 . S
H1334 C1330 0.930 . S
H1335 C1332 0.929 . S
S1336 N1337 1.613 . S
S1336 N1338 1.610 . S
N1337 S1336 1.613 . S
N1337 C1340 1.350 . S
N1338 S1336 1.610 . S
N1338 C1339 1.351 . S
C1339 C1333 1.428 . S
C1339 N1338 1.351 . S
C1339 C1340 1.434 . S
C1340 C1331 1.429 . S
C1340 N1337 1.350 . S
C1340 C1339 1.434 . S
C1341 C1342 1.369 . S
C1341 C1343 1.419 . S
C1341 H1345 0.930 1_455 S
C1342 C1341 1.369 . S
C1342 C1351 1.429 . S
C1343 C1341 1.419 . S
C1343 C1344 1.363 . S
C1343 H1346 0.929 1_455 S
C1344 C1343 1.363 . S
C1344 C1350 1.428 . S
H1345 C1341 0.930 1_655 S
H1346 C1343 0.929 1_655 S
S1347 N1348 1.613 . S
S1347 N1349 1.610 . S
N1348 S1347 1.613 . S
N1348 C1351 1.350 . S
N1349 S1347 1.610 . S
N1349 C1350 1.351 . S
C1350 C1344 1.428 . S
C1350 N1349 1.351 . S
C1350 C1351 1.434 . S
C1351 C1342 1.429 . S
C1351 N1348 1.350 . S
C1351 C1350 1.434 . S
C1352 C1353 1.369 . S
C1352 C1354 1.419 . S
C1352 H1356 0.930 . S
C1353 C1352 1.369 . S
C1353 C1362 1.429 . S
C1354 C1352 1.419 . S
C1354 C1355 1.363 . S
C1354 H1357 0.929 . S
C1355 C1354 1.363 . S
C1355 C1361 1.428 . S
H1356 C1352 0.930 . S
H1357 C1354 0.929 . S
S1358 N1359 1.613 . S
S1358 N1360 1.610 . S
N1359 S1358 1.613 . S
N1359 C1362 1.350 . S
N1360 S1358 1.610 . S
N1360 C1361 1.351 . S
C1361 C1355 1.428 . S
C1361 N1360 1.351 . S
C1361 C1362 1.434 . S
C1362 C1353 1.429 . S
C1362 N1359 1.350 . S
C1362 C1361 1.434 . S
C1363 C1364 1.369 . S
C1363 C1365 1.419 . S
C1363 H1367 0.930 . S
C1364 C1363 1.369 . S
C1364 C1373 1.429 . S
C1365 C1363 1.419 . S
C1365 C1366 1.363 . S
C1365 H1368 0.929 . S
C1366 C1365 1.363 . S
C1366 C1372 1.428 . S
H1367 C1363 0.930 . S
H1368 C1365 0.929 . S
S1369 N1370 1.613 . S
S1369 N1371 1.610 . S
N1370 S1369 1.613 . S
N1370 C1373 1.350 . S
N1371 S1369 1.610 . S
N1371 C1372 1.351 . S
C1372 C1366 1.428 . S
C1372 N1371 1.351 . S
C1372 C1373 1.434 . S
C1373 C1364 1.429 . S
C1373 N1370 1.350 . S
C1373 C1372 1.434 . S
C1374 C1375 1.369 . S
C1374 C1376 1.419 . S
C1374 H1378 0.930 . S
C1375 C1374 1.369 . S
C1375 C1384 1.429 . S
C1376 C1374 1.419 . S
C1376 C1377 1.363 . S
C1376 H1379 0.929 . S
C1377 C1376 1.363 . S
C1377 C1383 1.428 . S
H1378 C1374 0.930 . S
H1379 C1376 0.929 . S
S1380 N1381 1.613 . S
S1380 N1382 1.610 . S
N1381 S1380 1.613 . S
N1381 C1384 1.350 . S
N1382 S1380 1.610 . S
N1382 C1383 1.351 . S
C1383 C1377 1.428 . S
C1383 N1382 1.351 . S
C1383 C1384 1.434 . S
C1384 C1375 1.429 . S
C1384 N1381 1.350 . S
C1384 C1383 1.434 . S
C1385 C1386 1.369 . S
C1385 C1387 1.419 . S
C1385 H1389 0.930 . S
C1386 C1385 1.369 . S
C1386 C1395 1.429 . S
C1387 C1385 1.419 . S
C1387 C1388 1.363 . S
C1387 H1390 0.929 . S
C1388 C1387 1.363 . S
C1388 C1394 1.428 . S
H1389 C1385 0.930 . S
H1390 C1387 0.929 . S
S1391 N1392 1.613 . S
S1391 N1393 1.610 . S
N1392 S1391 1.613 . S
N1392 C1395 1.350 . S
N1393 S1391 1.610 . S
N1393 C1394 1.351 . S
C1394 C1388 1.428 . S
C1394 N1393 1.351 . S
C1394 C1395 1.434 . S
C1395 C1386 1.429 . S
C1395 N1392 1.350 . S
C1395 C1394 1.434 . S
C1396 C1397 1.369 . S
C1396 C1398 1.419 . S
C1396 H1400 0.930 . S
C1397 C1396 1.369 . S
C1397 C1406 1.429 . S
C1398 C1396 1.419 . S
C1398 C1399 1.363 . S
C1398 H1401 0.929 . S
C1399 C1398 1.363 . S
C1399 C1405 1.428 . S
H1400 C1396 0.930 . S
H1401 C1398 0.929 . S
S1402 N1403 1.613 . S
S1402 N1404 1.610 . S
N1403 S1402 1.613 . S
N1403 C1406 1.350 . S
N1404 S1402 1.610 . S
N1404 C1405 1.351 . S
C1405 C1399 1.428 . S
C1405 N1404 1.351 . S
C1405 C1406 1.434 . S
C1406 C1397 1.429 . S
C1406 N1403 1.350 . S
C1406 C1405 1.434 . S
C1407 C1408 1.369 . S
C1407 C1409 1.419 . S
C1407 H1411 0.930 . S
C1408 C1407 1.369 . S
C1408 C1417 1.429 . S
C1409 C1407 1.419 . S
C1409 C1410 1.363 . S
C1409 H1412 0.929 . S
C1410 C1409 1.363 . S
C1410 C1416 1.428 . S
H1411 C1407 0.930 . S
H1412 C1409 0.929 . S
S1413 N1414 1.613 . S
S1413 N1415 1.610 . S
N1414 S1413 1.613 . S
N1414 C1417 1.350 . S
N1415 S1413 1.610 . S
N1415 C1416 1.351 . S
C1416 C1410 1.428 . S
C1416 N1415 1.351 . S
C1416 C1417 1.434 . S
C1417 C1408 1.429 . S
C1417 N1414 1.350 . S
C1417 C1416 1.434 . S
C1418 C1419 1.369 . S
C1418 C1420 1.419 . S
C1418 H1422 0.930 . S
C1419 C1418 1.369 . S
C1419 C1428 1.429 . S
C1420 C1418 1.419 . S
C1420 C1421 1.363 . S
C1420 H1423 0.929 . S
C1421 C1420 1.363 . S
C1421 C1427 1.428 . S
H1422 C1418 0.930 . S
H1423 C1420 0.929 . S
S1424 N1425 1.613 . S
S1424 N1426 1.610 . S
N1425 S1424 1.613 . S
N1425 C1428 1.350 . S
N1426 S1424 1.610 . S
N1426 C1427 1.351 . S
C1427 C1421 1.428 . S
C1427 N1426 1.351 . S
C1427 C1428 1.434 . S
C1428 C1419 1.429 . S
C1428 N1425 1.350 . S
C1428 C1427 1.434 . S
C1429 C1430 1.369 . S
C1429 C1431 1.419 . S
C1429 H1433 0.930 . S
C1430 C1429 1.369 . S
C1430 C1439 1.429 . S
C1431 C1429 1.419 . S
C1431 C1432 1.363 . S
C1431 H1434 0.929 . S
C1432 C1431 1.363 . S
C1432 C1438 1.428 . S
H1433 C1429 0.930 . S
H1434 C1431 0.929 . S
S1435 N1436 1.613 . S
S1435 N1437 1.610 . S
N1436 S1435 1.613 . S
N1436 C1439 1.350 . S
N1437 S1435 1.610 . S
N1437 C1438 1.351 . S
C1438 C1432 1.428 . S
C1438 N1437 1.351 . S
C1438 C1439 1.434 . S
C1439 C1430 1.429 . S
C1439 N1436 1.350 . S
C1439 C1438 1.434 . S
C1440 C1441 1.369 . S
C1440 C1442 1.419 . S
C1440 H1444 0.930 . S
C1441 C1440 1.369 . S
C1441 C1450 1.429 . S
C1442 C1440 1.419 . S
C1442 C1443 1.363 . S
C1442 H1445 0.929 . S
C1443 C1442 1.363 . S
C1443 C1449 1.428 . S
H1444 C1440 0.930 . S
H1445 C1442 0.929 . S
S1446 N1447 1.613 1_556 S
S1446 N1448 1.610 1_556 S
N1447 S1446 1.613 1_554 S
N1447 C1450 1.350 . S
N1448 S1446 1.610 1_554 S
N1448 C1449 1.351 . S
C1449 C1443 1.428 . S
C1449 N1448 1.351 . S
C1449 C1450 1.434 . S
C1450 C1441 1.429 . S
C1450 N1447 1.350 . S
C1450 C1449 1.434 . S
C1451 C1452 1.369 . S
C1451 C1453 1.419 . S
C1451 H1455 0.930 . S
C1452 C1451 1.369 . S
C1452 C1461 1.429 . S
C1453 C1451 1.419 . S
C1453 C1454 1.363 . S
C1453 H1456 0.929 . S
C1454 C1453 1.363 . S
C1454 C1460 1.428 . S
H1455 C1451 0.930 . S
H1456 C1453 0.929 . S
S1457 N1458 1.613 . S
S1457 N1459 1.610 . S
N1458 S1457 1.613 . S
N1458 C1461 1.350 . S
N1459 S1457 1.610 . S
N1459 C1460 1.351 . S
C1460 C1454 1.428 . S
C1460 N1459 1.351 . S
C1460 C1461 1.434 . S
C1461 C1452 1.429 . S
C1461 N1458 1.350 . S
C1461 C1460 1.434 . S
C1462 C1463 1.369 . S
C1462 C1464 1.419 . S
C1462 H1466 0.930 . S
C1463 C1462 1.369 . S
C1463 C1472 1.429 . S
C1464 C1462 1.419 . S
C1464 C1465 1.363 . S
C1464 H1467 0.929 . S
C1465 C1464 1.363 . S
C1465 C1471 1.428 . S
H1466 C1462 0.930 . S
H1467 C1464 0.929 . S
S1468 N1469 1.613 . S
S1468 N1470 1.610 . S
N1469 S1468 1.613 . S
N1469 C1472 1.350 . S
N1470 S1468 1.610 . S
N1470 C1471 1.351 . S
C1471 C1465 1.428 . S
C1471 N1470 1.351 . S
C1471 C1472 1.434 . S
C1472 C1463 1.429 . S
C1472 N1469 1.350 . S
C1472 C1471 1.434 . S
C1473 C1474 1.369 . S
C1473 C1475 1.419 . S
C1473 H1477 0.930 . S
C1474 C1473 1.369 . S
C1474 C1483 1.429 . S
C1475 C1473 1.419 . S
C1475 C1476 1.363 . S
C1475 H1478 0.929 . S
C1476 C1475 1.363 . S
C1476 C1482 1.428 . S
H1477 C1473 0.930 . S
H1478 C1475 0.929 . S
S1479 N1480 1.613 . S
S1479 N1481 1.610 . S
N1480 S1479 1.613 . S
N1480 C1483 1.350 . S
N1481 S1479 1.610 . S
N1481 C1482 1.351 . S
C1482 C1476 1.428 . S
C1482 N1481 1.351 . S
C1482 C1483 1.434 . S
C1483 C1474 1.429 . S
C1483 N1480 1.350 . S
C1483 C1482 1.434 . S
C1484 C1485 1.369 . S
C1484 C1486 1.419 . S
C1484 H1488 0.930 . S
C1485 C1484 1.369 . S
C1485 C1494 1.429 . S
C1486 C1484 1.419 . S
C1486 C1487 1.363 . S
C1486 H1489 0.929 . S
C1487 C1486 1.363 . S
C1487 C1493 1.428 . S
H1488 C1484 0.930 . S
H1489 C1486 0.929 . S
S1490 N1491 1.613 . S
S1490 N1492 1.610 . S
N1491 S1490 1.613 . S
N1491 C1494 1.350 . S
N1492 S1490 1.610 . S
N1492 C1493 1.351 . S
C1493 C1487 1.428 . S
C1493 N1492 1.351 . S
C1493 C1494 1.434 . S
C1494 C1485 1.429 . S
C1494 N1491 1.350 . S
C1494 C1493 1.434 . S
C1495 C1496 1.369 . S
C1495 C1497 1.419 . S
C1495 H1499 0.930 . S
C1496 C1495 1.369 . S
C1496 C1505 1.429 . S
C1497 C1495 1.419 . S
C1497 C1498 1.363 . S
C1497 H1500 0.929 . S
C1498 C1497 1.363 . S
C1498 C1504 1.428 . S
H1499 C1495 0.930 . S
H1500 C1497 0.929 . S
S1501 N1502 1.613 . S
S1501 N1503 1.610 . S
N1502 S1501 1.613 . S
N1502 C1505 1.350 . S
N1503 S1501 1.610 . S
N1503 C1504 1.351 . S
C1504 C1498 1.428 . S
C1504 N1503 1.351 . S
C1504 C1505 1.434 . S
C1505 C1496 1.429 . S
C1505 N1502 1.350 . S
C1505 C1504 1.434 . S
C1506 C1507 1.369 . S
C1506 C1508 1.419 . S
C1506 H1510 0.930 . S
C1507 C1506 1.369 . S
C1507 C1516 1.429 . S
C1508 C1506 1.419 . S
C1508 C1509 1.363 . S
C1508 H1511 0.929 . S
C1509 C1508 1.363 . S
C1509 C1515 1.428 . S
H1510 C1506 0.930 . S
H1511 C1508 0.929 . S
S1512 N1513 1.613 . S
S1512 N1514 1.610 . S
N1513 S1512 1.613 . S
N1513 C1516 1.350 . S
N1514 S1512 1.610 . S
N1514 C1515 1.351 . S
C1515 C1509 1.428 . S
C1515 N1514 1.351 . S
C1515 C1516 1.434 . S
C1516 C1507 1.429 . S
C1516 N1513 1.350 . S
C1516 C1515 1.434 . S
C1517 C1518 1.369 . S
C1517 C1519 1.419 . S
C1517 H1521 0.930 . S
C1518 C1517 1.369 . S
C1518 C1527 1.429 . S
C1519 C1517 1.419 . S
C1519 C1520 1.363 . S
C1519 H1522 0.929 . S
C1520 C1519 1.363 . S
C1520 C1526 1.428 . S
H1521 C1517 0.930 . S
H1522 C1519 0.929 . S
S1523 N1524 1.613 . S
S1523 N1525 1.610 . S
N1524 S1523 1.613 . S
N1524 C1527 1.350 . S
N1525 S1523 1.610 . S
N1525 C1526 1.351 . S
C1526 C1520 1.428 . S
C1526 N1525 1.351 . S
C1526 C1527 1.434 . S
C1527 C1518 1.429 . S
C1527 N1524 1.350 . S
C1527 C1526 1.434 . S
C1528 C1529 1.369 . S
C1528 C1530 1.419 . S
C1528 H1532 0.930 . S
C1529 C1528 1.369 . S
C1529 C1538 1.429 . S
C1530 C1528 1.419 . S
C1530 C1531 1.363 . S
C1530 H1533 0.929 . S
C1531 C1530 1.363 . S
C1531 C1537 1.428 . S
H1532 C1528 0.930 . S
H1533 C1530 0.929 . S
S1534 N1535 1.613 . S
S1534 N1536 1.610 . S
N1535 S1534 1.613 . S
N1535 C1538 1.350 . S
N1536 S1534 1.610 . S
N1536 C1537 1.351 . S
C1537 C1531 1.428 . S
C1537 N1536 1.351 . S
C1537 C1538 1.434 . S
C1538 C1529 1.429 . S
C1538 N1535 1.350 . S
C1538 C1537 1.434 . S
C1539 C1540 1.369 . S
C1539 C1541 1.419 . S
C1539 H1543 0.930 . S
C1540 C1539 1.369 . S
C1540 C1549 1.429 . S
C1541 C1539 1.419 . S
C1541 C1542 1.363 . S
C1541 H1544 0.929 . S
C1542 C1541 1.363 . S
C1542 C1548 1.428 . S
H1543 C1539 0.930 . S
H1544 C1541 0.929 . S
S1545 N1546 1.613 . S
S1545 N1547 1.610 . S
N1546 S1545 1.613 . S
N1546 C1549 1.350 . S
N1547 S1545 1.610 . S
N1547 C1548 1.351 . S
C1548 C1542 1.428 . S
C1548 N1547 1.351 . S
C1548 C1549 1.434 . S
C1549 C1540 1.429 . S
C1549 N1546 1.350 . S
C1549 C1548 1.434 . S
C1550 C1551 1.369 . S
C1550 C1552 1.419 . S
C1550 H1554 0.930 . S
C1551 C1550 1.369 . S
C1551 C1560 1.429 . S
C1552 C1550 1.419 . S
C1552 C1553 1.363 . S
C1552 H1555 0.929 . S
C1553 C1552 1.363 . S
C1553 C1559 1.428 . S
H1554 C1550 0.930 . S
H1555 C1552 0.929 . S
S1556 N1557 1.613 . S
S1556 N1558 1.610 . S
N1557 S1556 1.613 . S
N1557 C1560 1.350 . S
N1558 S1556 1.610 . S
N1558 C1559 1.351 . S
C1559 C1553 1.428 . S
C1559 N1558 1.351 . S
C1559 C1560 1.434 . S
C1560 C1551 1.429 . S
C1560 N1557 1.350 . S
C1560 C1559 1.434 . S
C1561 C1562 1.369 . S
C1561 C1563 1.419 . S
C1561 H1565 0.930 . S
C1562 C1561 1.369 . S
C1562 C1571 1.429 . S
C1563 C1561 1.419 . S
C1563 C1564 1.363 . S
C1563 H1566 0.929 . S
C1564 C1563 1.363 . S
C1564 C1570 1.428 . S
H1565 C1561 0.930 . S
H1566 C1563 0.929 . S
S1567 N1568 1.613 . S
S1567 N1569 1.610 . S
N1568 S1567 1.613 . S
N1568 C1571 1.350 . S
N1569 S1567 1.610 . S
N1569 C1570 1.351 . S
C1570 C1564 1.428 . S
C1570 N1569 1.351 . S
C1570 C1571 1.434 . S
C1571 C1562 1.429 . S
C1571 N1568 1.350 . S
C1571 C1570 1.434 . S
C1572 C1573 1.369 . S
C1572 C1574 1.419 . S
C1572 H1576 0.930 . S
C1573 C1572 1.369 . S
C1573 C1582 1.429 . S
C1574 C1572 1.419 . S
C1574 C1575 1.363 . S
C1574 H1577 0.929 . S
C1575 C1574 1.363 . S
C1575 C1581 1.428 . S
H1576 C1572 0.930 . S
H1577 C1574 0.929 . S
S1578 N1579 1.613 . S
S1578 N1580 1.610 . S
N1579 S1578 1.613 . S
N1579 C1582 1.350 . S
N1580 S1578 1.610 . S
N1580 C1581 1.351 . S
C1581 C1575 1.428 . S
C1581 N1580 1.351 . S
C1581 C1582 1.434 . S
C1582 C1573 1.429 . S
C1582 N1579 1.350 . S
C1582 C1581 1.434 . S
C1583 C1584 1.369 . S
C1583 C1585 1.419 . S
C1583 H1587 0.930 . S
C1584 C1583 1.369 . S
C1584 C1593 1.429 . S
C1585 C1583 1.419 . S
C1585 C1586 1.363 . S
C1585 H1588 0.929 . S
C1586 C1585 1.363 . S
C1586 C1592 1.428 . S
H1587 C1583 0.930 . S
H1588 C1585 0.929 . S
S1589 N1590 1.613 . S
S1589 N1591 1.610 . S
N1590 S1589 1.613 . S
N1590 C1593 1.350 . S
N1591 S1589 1.610 . S
N1591 C1592 1.351 . S
C1592 C1586 1.428 . S
C1592 N1591 1.351 . S
C1592 C1593 1.434 . S
C1593 C1584 1.429 . S
C1593 N1590 1.350 . S
C1593 C1592 1.434 . S
C1594 C1595 1.369 . S
C1594 C1596 1.419 . S
C1594 H1598 0.930 . S
C1595 C1594 1.369 . S
C1595 C1604 1.429 . S
C1596 C1594 1.419 . S
C1596 C1597 1.363 . S
C1596 H1599 0.929 . S
C1597 C1596 1.363 . S
C1597 C1603 1.428 . S
H1598 C1594 0.930 . S
H1599 C1596 0.929 . S
S1600 N1601 1.613 . S
S1600 N1602 1.610 . S
N1601 S1600 1.613 . S
N1601 C1604 1.350 . S
N1602 S1600 1.610 . S
N1602 C1603 1.351 . S
C1603 C1597 1.428 . S
C1603 N1602 1.351 . S
C1603 C1604 1.434 . S
C1604 C1595 1.429 . S
C1604 N1601 1.350 . S
C1604 C1603 1.434 . S
C1605 C1606 1.369 . S
C1605 C1607 1.419 . S
C1605 H1609 0.930 . S
C1606 C1605 1.369 . S
C1606 C1615 1.429 . S
C1607 C1605 1.419 . S
C1607 C1608 1.363 . S
C1607 H1610 0.929 . S
C1608 C1607 1.363 . S
C1608 C1614 1.428 . S
H1609 C1605 0.930 . S
H1610 C1607 0.929 . S
S1611 N1612 1.613 . S
S1611 N1613 1.610 . S
N1612 S1611 1.613 . S
N1612 C1615 1.350 . S
N1613 S1611 1.610 . S
N1613 C1614 1.351 . S
C1614 C1608 1.428 . S
C1614 N1613 1.351 . S
C1614 C1615 1.434 . S
C1615 C1606 1.429 . S
C1615 N1612 1.350 . S
C1615 C1614 1.434 . S
C1616 C1617 1.369 . S
C1616 C1618 1.419 1_545 S
C1616 H1620 0.930 . S
C1617 C1616 1.369 . S
C1617 C1626 1.429 1_556 S
C1618 C1616 1.419 1_565 S
C1618 C1619 1.363 . S
C1618 H1621 0.929 . S
C1619 C1618 1.363 . S
C1619 C1625 1.428 1_556 S
H1620 C1616 0.930 . S
H1621 C1618 0.929 . S
S1622 N1623 1.613 1_665 S
S1622 N1624 1.610 . S
N1623 S1622 1.613 1_445 S
N1623 C1626 1.350 . S
N1624 S1622 1.610 . S
N1624 C1625 1.351 1_655 S
C1625 C1619 1.428 1_554 S
C1625 N1624 1.351 1_455 S
C1625 C1626 1.434 1_565 S
C1626 C1617 1.429 1_554 S
C1626 N1623 1.350 . S
C1626 C1625 1.434 1_545 S
C1627 C1628 1.369 . S
C1627 C1629 1.419 . S
C1627 H1631 0.930 . S
C1628 C1627 1.369 . S
C1628 C1637 1.429 . S
C1629 C1627 1.419 . S
C1629 C1630 1.363 . S
C1629 H1632 0.929 . S
C1630 C1629 1.363 . S
C1630 C1636 1.428 . S
H1631 C1627 0.930 . S
H1632 C1629 0.929 . S
S1633 N1634 1.613 . S
S1633 N1635 1.610 . S
N1634 S1633 1.613 . S
N1634 C1637 1.350 . S
N1635 S1633 1.610 . S
N1635 C1636 1.351 . S
C1636 C1630 1.428 . S
C1636 N1635 1.351 . S
C1636 C1637 1.434 . S
C1637 C1628 1.429 . S
C1637 N1634 1.350 . S
C1637 C1636 1.434 . S
C1638 C1639 1.369 . S
C1638 C1640 1.419 . S
C1638 H1642 0.930 1_455 S
C1639 C1638 1.369 . S
C1639 C1648 1.429 . S
C1640 C1638 1.419 . S
C1640 C1641 1.363 . S
C1640 H1643 0.929 . S
C1641 C1640 1.363 . S
C1641 C1647 1.428 . S
H1642 C1638 0.930 1_655 S
H1643 C1640 0.929 . S
S1644 N1645 1.613 . S
S1644 N1646 1.610 . S
N1645 S1644 1.613 . S
N1645 C1648 1.350 . S
N1646 S1644 1.610 . S
N1646 C1647 1.351 . S
C1647 C1641 1.428 . S
C1647 N1646 1.351 . S
C1647 C1648 1.434 . S
C1648 C1639 1.429 . S
C1648 N1645 1.350 . S
C1648 C1647 1.434 . S
C1649 C1650 1.369 . S
C1649 C1651 1.419 1_545 S
C1649 H1653 0.930 . S
C1650 C1649 1.369 . S
C1650 C1659 1.424 1_545 S
C1651 C1649 1.419 1_565 S
C1651 C1652 1.363 . S
C1651 H1654 0.929 . S
C1652 C1651 1.363 . S
C1652 C1658 1.428 . S
H1653 C1649 0.930 . S
H1654 C1651 0.929 . S
S1655 N1656 1.613 1_565 S
S1655 N1657 1.610 . S
N1656 S1655 1.613 1_545 S
N1656 C1659 1.348 1_545 S
N1657 S1655 1.610 . S
N1657 C1658 1.351 . S
C1658 C1652 1.428 . S
C1658 N1657 1.351 . S
C1658 C1659 1.442 . S
C1659 C1650 1.424 1_565 S
C1659 N1656 1.348 1_565 S
C1659 C1658 1.442 . S
C1660 C1661 1.369 . S
C1660 C1662 1.419 . S
C1660 H1664 0.930 . S
C1661 C1660 1.369 . S
C1661 C1670 1.429 . S
C1662 C1660 1.419 . S
C1662 C1663 1.363 1_545 S
C1662 H1665 0.929 1_545 S
C1663 C1662 1.363 1_565 S
C1663 C1669 1.428 . S
H1664 C1660 0.930 . S
H1665 C1662 0.929 1_565 S
S1666 N1667 1.620 . S
S1666 N1668 1.605 1_545 S
N1667 S1666 1.620 . S
N1667 C1670 1.350 1_456 S
N1668 S1666 1.605 1_565 S
N1668 C1669 1.351 1_456 S
C1669 C1663 1.428 . S
C1669 N1668 1.351 1_654 S
C1669 C1670 1.434 1_565 S
C1670 C1661 1.429 . S
C1670 N1667 1.350 1_654 S
C1670 C1669 1.434 1_545 S
C1671 C1672 1.369 . S
C1671 C1673 1.419 . S
C1671 H1675 0.930 . S
C1672 C1671 1.369 . S
C1672 C1681 1.429 1_554 S
C1673 C1671 1.419 . S
C1673 C1674 1.363 . S
C1673 H1676 0.929 . S
C1674 C1673 1.363 . S
C1674 C1680 1.428 1_554 S
H1675 C1671 0.930 . S
H1676 C1673 0.929 . S
S1677 N1678 1.613 . S
S1677 N1679 1.610 . S
N1678 S1677 1.613 . S
N1678 C1681 1.350 . S
N1679 S1677 1.610 . S
N1679 C1680 1.351 . S
C1680 C1674 1.428 1_556 S
C1680 N1679 1.351 . S
C1680 C1681 1.434 . S
C1681 C1672 1.429 1_556 S
C1681 N1678 1.350 . S
C1681 C1680 1.434 . S
C1682 C1683 1.369 . S
C1682 C1684 1.419 . S
C1682 H1686 0.930 . S
C1683 C1682 1.369 . S
C1683 C1692 1.429 . S
C1684 C1682 1.419 . S
C1684 C1685 1.363 . S
C1684 H1687 0.929 . S
C1685 C1684 1.363 . S
C1685 C1691 1.428 . S
H1686 C1682 0.930 . S
H1687 C1684 0.929 . S
S1688 N1689 1.613 . S
S1688 N1690 1.610 . S
N1689 S1688 1.613 . S
N1689 C1692 1.350 . S
N1690 S1688 1.610 . S
N1690 C1691 1.351 . S
C1691 C1685 1.428 . S
C1691 N1690 1.351 . S
C1691 C1692 1.434 . S
C1692 C1683 1.429 . S
C1692 N1689 1.350 . S
C1692 C1691 1.434 . S
C1693 C1694 1.369 . S
C1693 C1695 1.419 1_545 S
C1693 H1697 0.930 . S
C1694 C1693 1.369 . S
C1694 C1703 1.429 . S
C1695 C1693 1.419 1_565 S
C1695 C1696 1.363 . S
C1695 H1698 0.929 . S
C1696 C1695 1.363 . S
C1696 C1702 1.423 1_565 S
H1697 C1693 0.930 . S
H1698 C1695 0.929 . S
S1699 N1700 1.613 . S
S1699 N1701 1.610 1_545 S
N1700 S1699 1.613 . S
N1700 C1703 1.350 . S
N1701 S1699 1.610 1_565 S
N1701 C1702 1.349 1_565 S
C1702 C1696 1.423 1_545 S
C1702 N1701 1.349 1_545 S
C1702 C1703 1.443 . S
C1703 C1694 1.429 . S
C1703 N1700 1.350 . S
C1703 C1702 1.443 . S
C1704 C1705 1.369 . S
C1704 C1706 1.419 . S
C1704 H1708 0.930 . S
C1705 C1704 1.369 . S
C1705 C1714 1.429 . S
C1706 C1704 1.419 . S
C1706 C1707 1.363 . S
C1706 H1709 0.929 . S
C1707 C1706 1.363 . S
C1707 C1713 1.428 . S
H1708 C1704 0.930 . S
H1709 C1706 0.929 . S
S1710 N1711 1.613 . S
S1710 N1712 1.610 . S
N1711 S1710 1.613 . S
N1711 C1714 1.350 . S
N1712 S1710 1.610 . S
N1712 C1713 1.351 . S
C1713 C1707 1.428 . S
C1713 N1712 1.351 . S
C1713 C1714 1.434 . S
C1714 C1705 1.429 . S
C1714 N1711 1.350 . S
C1714 C1713 1.434 . S
C1715 C1716 1.369 . S
C1715 C1717 1.419 . S
C1715 H1719 0.930 . S
C1716 C1715 1.369 . S
C1716 C1725 1.429 . S
C1717 C1715 1.419 . S
C1717 C1718 1.363 . S
C1717 H1720 0.929 . S
C1718 C1717 1.363 . S
C1718 C1724 1.428 . S
H1719 C1715 0.930 . S
H1720 C1717 0.929 . S
S1721 N1722 1.613 . S
S1721 N1723 1.610 . S
N1722 S1721 1.613 . S
N1722 C1725 1.350 . S
N1723 S1721 1.610 . S
N1723 C1724 1.351 . S
C1724 C1718 1.428 . S
C1724 N1723 1.351 . S
C1724 C1725 1.434 . S
C1725 C1716 1.429 . S
C1725 N1722 1.350 . S
C1725 C1724 1.434 . S
C1726 C1727 1.369 . S
C1726 C1728 1.419 . S
C1726 H1730 0.930 . S
C1727 C1726 1.369 . S
C1727 C1736 1.429 . S
C1728 C1726 1.419 . S
C1728 C1729 1.363 . S
C1728 H1731 0.929 . S
C1729 C1728 1.363 . S
C1729 C1735 1.428 . S
H1730 C1726 0.930 . S
H1731 C1728 0.929 . S
S1732 N1733 1.613 . S
S1732 N1734 1.610 . S
N1733 S1732 1.613 . S
N1733 C1736 1.350 1_655 S
N1734 S1732 1.610 . S
N1734 C1735 1.351 1_655 S
C1735 C1729 1.428 . S
C1735 N1734 1.351 1_455 S
C1735 C1736 1.434 . S
C1736 C1727 1.429 . S
C1736 N1733 1.350 1_455 S
C1736 C1735 1.434 . S
C1737 C1738 1.369 . S
C1737 C1739 1.419 . S
C1737 H1741 0.930 . S
C1738 C1737 1.369 . S
C1738 C1747 1.429 . S
C1739 C1737 1.419 . S
C1739 C1740 1.363 . S
C1739 H1742 0.929 . S
C1740 C1739 1.363 . S
C1740 C1746 1.428 . S
H1741 C1737 0.930 . S
H1742 C1739 0.929 . S
S1743 N1744 1.613 . S
S1743 N1745 1.610 . S
N1744 S1743 1.613 . S
N1744 C1747 1.350 . S
N1745 S1743 1.610 . S
N1745 C1746 1.351 . S
C1746 C1740 1.428 . S
C1746 N1745 1.351 . S
C1746 C1747 1.434 . S
C1747 C1738 1.429 . S
C1747 N1744 1.350 . S
C1747 C1746 1.434 . S
C1748 C1749 1.369 . S
C1748 C1750 1.419 . S
C1748 H1752 0.930 . S
C1749 C1748 1.369 . S
C1749 C1758 1.429 . S
C1750 C1748 1.419 . S
C1750 C1751 1.363 . S
C1750 H1753 0.929 . S
C1751 C1750 1.363 . S
C1751 C1757 1.428 . S
H1752 C1748 0.930 . S
H1753 C1750 0.929 . S
S1754 N1755 1.613 . S
S1754 N1756 1.610 . S
N1755 S1754 1.613 . S
N1755 C1758 1.350 . S
N1756 S1754 1.610 . S
N1756 C1757 1.351 . S
C1757 C1751 1.428 . S
C1757 N1756 1.351 . S
C1757 C1758 1.434 . S
C1758 C1749 1.429 . S
C1758 N1755 1.350 . S
C1758 C1757 1.434 . S
C1759 C1760 1.369 . S
C1759 C1761 1.419 . S
C1759 H1763 0.930 . S
C1760 C1759 1.369 . S
C1760 C1769 1.429 . S
C1761 C1759 1.419 . S
C1761 C1762 1.363 . S
C1761 H1764 0.929 . S
C1762 C1761 1.363 . S
C1762 C1768 1.428 . S
H1763 C1759 0.930 . S
H1764 C1761 0.929 . S
S1765 N1766 1.613 . S
S1765 N1767 1.610 . S
N1766 S1765 1.613 . S
N1766 C1769 1.350 . S
N1767 S1765 1.610 . S
N1767 C1768 1.351 . S
C1768 C1762 1.428 . S
C1768 N1767 1.351 . S
C1768 C1769 1.434 . S
C1769 C1760 1.429 . S
C1769 N1766 1.350 . S
C1769 C1768 1.434 . S
C1770 C1771 1.369 . S
C1770 C1772 1.419 . S
C1770 H1774 0.930 . S
C1771 C1770 1.369 . S
C1771 C1780 1.429 . S
C1772 C1770 1.419 . S
C1772 C1773 1.363 . S
C1772 H1775 0.929 1_655 S
C1773 C1772 1.363 . S
C1773 C1779 1.428 . S
H1774 C1770 0.930 . S
H1775 C1772 0.929 1_455 S
S1776 N1777 1.613 . S
S1776 N1778 1.610 . S
N1777 S1776 1.613 . S
N1777 C1780 1.350 . S
N1778 S1776 1.610 . S
N1778 C1779 1.351 . S
C1779 C1773 1.428 . S
C1779 N1778 1.351 . S
C1779 C1780 1.434 . S
C1780 C1771 1.429 . S
C1780 N1777 1.350 . S
C1780 C1779 1.434 . S
C1781 C1782 1.369 . S
C1781 C1783 1.419 . S
C1781 H1785 0.930 . S
C1782 C1781 1.369 . S
C1782 C1791 1.429 . S
C1783 C1781 1.419 . S
C1783 C1784 1.363 . S
C1783 H1786 0.929 . S
C1784 C1783 1.363 . S
C1784 C1790 1.428 . S
H1785 C1781 0.930 . S
H1786 C1783 0.929 . S
S1787 N1788 1.613 . S
S1787 N1789 1.610 . S
N1788 S1787 1.613 . S
N1788 C1791 1.350 . S
N1789 S1787 1.610 . S
N1789 C1790 1.351 . S
C1790 C1784 1.428 . S
C1790 N1789 1.351 . S
C1790 C1791 1.434 . S
C1791 C1782 1.429 . S
C1791 N1788 1.350 . S
C1791 C1790 1.434 . S
C1792 C1793 1.369 . S
C1792 C1794 1.419 . S
C1792 H1796 0.930 . S
C1793 C1792 1.369 . S
C1793 C1802 1.429 . S
C1794 C1792 1.419 . S
C1794 C1795 1.363 1_565 S
C1794 H1797 0.929 1_565 S
C1795 C1794 1.363 1_545 S
C1795 C1801 1.428 . S
H1796 C1792 0.930 . S
H1797 C1794 0.929 1_545 S
S1798 N1799 1.613 1_545 S
S1798 N1800 1.610 . S
N1799 S1798 1.613 1_565 S
N1799 C1802 1.350 . S
N1800 S1798 1.610 . S
N1800 C1801 1.351 . S
C1801 C1795 1.428 . S
C1801 N1800 1.351 . S
C1801 C1802 1.434 1_545 S
C1802 C1793 1.429 . S
C1802 N1799 1.350 . S
C1802 C1801 1.434 1_565 S
C1803 C1804 1.369 . S
C1803 C1805 1.419 . S
C1803 H1807 0.930 . S
C1804 C1803 1.369 . S
C1804 C1813 1.429 . S
C1805 C1803 1.419 . S
C1805 C1806 1.363 . S
C1805 H1808 0.929 . S
C1806 C1805 1.363 . S
C1806 C1812 1.428 . S
H1807 C1803 0.930 . S
H1808 C1805 0.929 . S
S1809 N1810 1.613 . S
S1809 N1811 1.610 . S
N1810 S1809 1.613 . S
N1810 C1813 1.350 . S
N1811 S1809 1.610 . S
N1811 C1812 1.351 . S
C1812 C1806 1.428 . S
C1812 N1811 1.351 . S
C1812 C1813 1.434 . S
C1813 C1804 1.429 . S
C1813 N1810 1.350 . S
C1813 C1812 1.434 . S
C1814 C1815 1.369 . S
C1814 C1816 1.419 . S
C1814 H1818 0.930 . S
C1815 C1814 1.369 . S
C1815 C1824 1.429 . S
C1816 C1814 1.419 . S
C1816 C1817 1.363 . S
C1816 H1819 0.929 . S
C1817 C1816 1.363 . S
C1817 C1823 1.428 . S
H1818 C1814 0.930 . S
H1819 C1816 0.929 . S
S1820 N1821 1.613 . S
S1820 N1822 1.610 . S
N1821 S1820 1.613 . S
N1821 C1824 1.350 . S
N1822 S1820 1.610 . S
N1822 C1823 1.351 . S
C1823 C1817 1.428 . S
C1823 N1822 1.351 . S
C1823 C1824 1.434 . S
C1824 C1815 1.429 . S
C1824 N1821 1.350 . S
C1824 C1823 1.434 . S
C1825 C1826 1.358 1_565 S
C1825 C1827 1.436 . S
C1825 H1829 0.924 1_565 S
C1826 C1825 1.358 1_545 S
C1826 C1835 1.429 . S
C1827 C1825 1.436 . S
C1827 C1828 1.363 . S
C1827 H1830 0.929 . S
C1828 C1827 1.363 . S
C1828 C1834 1.428 . S
H1829 C1825 0.924 1_545 S
H1830 C1827 0.929 . S
S1831 N1832 1.613 1_565 S
S1831 N1833 1.610 . S
N1832 S1831 1.613 1_545 S
N1832 C1835 1.350 . S
N1833 S1831 1.610 . S
N1833 C1834 1.351 . S
C1834 C1828 1.428 . S
C1834 N1833 1.351 . S
C1834 C1835 1.434 1_565 S
C1835 C1826 1.429 . S
C1835 N1832 1.350 . S
C1835 C1834 1.434 1_545 S
C1836 C1837 1.380 . S
C1836 C1838 1.402 1_565 S
C1836 H1840 0.937 . S
C1837 C1836 1.380 . S
C1837 C1846 1.429 . S
C1838 C1836 1.402 1_545 S
C1838 C1839 1.363 . S
C1838 H1841 0.929 . S
C1839 C1838 1.363 . S
C1839 C1845 1.428 . S
H1840 C1836 0.937 . S
H1841 C1838 0.929 . S
S1842 N1843 1.613 1_545 S
S1842 N1844 1.610 . S
N1843 S1842 1.613 1_565 S
N1843 C1846 1.350 . S
N1844 S1842 1.610 . S
N1844 C1845 1.351 . S
C1845 C1839 1.428 . S
C1845 N1844 1.351 . S
C1845 C1846 1.434 1_545 S
C1846 C1837 1.429 . S
C1846 N1843 1.350 . S
C1846 C1845 1.434 1_565 S
C1847 C1848 1.369 . S
C1847 C1849 1.419 . S
C1847 H1851 0.930 . S
C1848 C1847 1.369 . S
C1848 C1857 1.429 . S
C1849 C1847 1.419 . S
C1849 C1850 1.363 . S
C1849 H1852 0.929 . S
C1850 C1849 1.363 . S
C1850 C1856 1.428 . S
H1851 C1847 0.930 . S
H1852 C1849 0.929 . S
S1853 N1854 1.613 . S
S1853 N1855 1.610 . S
N1854 S1853 1.613 . S
N1854 C1857 1.350 . S
N1855 S1853 1.610 . S
N1855 C1856 1.351 . S
C1856 C1850 1.428 . S
C1856 N1855 1.351 . S
C1856 C1857 1.434 . S
C1857 C1848 1.429 . S
C1857 N1854 1.350 . S
C1857 C1856 1.434 . S
C1858 C1859 1.369 . S
C1858 C1860 1.419 . S
C1858 H1862 0.930 . S
C1859 C1858 1.369 . S
C1859 C1868 1.429 . S
C1860 C1858 1.419 . S
C1860 C1861 1.363 . S
C1860 H1863 0.929 . S
C1861 C1860 1.363 . S
C1861 C1867 1.428 . S
H1862 C1858 0.930 . S
H1863 C1860 0.929 . S
S1864 N1865 1.613 . S
S1864 N1866 1.610 . S
N1865 S1864 1.613 . S
N1865 C1868 1.350 . S
N1866 S1864 1.610 . S
N1866 C1867 1.351 . S
C1867 C1861 1.428 . S
C1867 N1866 1.351 . S
C1867 C1868 1.434 . S
C1868 C1859 1.429 . S
C1868 N1865 1.350 . S
C1868 C1867 1.434 . S
C1869 C1870 1.369 . S
C1869 C1871 1.431 . S
C1869 H1873 0.930 . S
C1870 C1869 1.369 . S
C1870 C1879 1.429 . S
C1871 C1869 1.431 . S
C1871 C1872 1.355 1_545 S
C1871 H1874 0.925 1_545 S
C1872 C1871 1.355 1_565 S
C1872 C1878 1.428 . S
H1873 C1869 0.930 . S
H1874 C1871 0.925 1_565 S
S1875 N1876 1.637 . S
S1875 N1877 1.592 1_545 S
N1876 S1875 1.637 . S
N1876 C1879 1.350 . S
N1877 S1875 1.592 1_565 S
N1877 C1878 1.351 . S
C1878 C1872 1.428 . S
C1878 N1877 1.351 . S
C1878 C1879 1.434 1_565 S
C1879 C1870 1.429 . S
C1879 N1876 1.350 . S
C1879 C1878 1.434 1_545 S
C1880 C1881 1.369 1_554 S
C1880 C1882 1.419 . S
C1880 H1884 0.930 . S
C1881 C1880 1.369 1_556 S
C1881 C1890 1.429 . S
C1882 C1880 1.419 . S
C1882 C1883 1.363 1_554 S
C1882 H1885 0.929 . S
C1883 C1882 1.363 1_556 S
C1883 C1889 1.428 . S
H1884 C1880 0.930 . S
H1885 C1882 0.929 . S
S1886 N1887 1.613 . S
S1886 N1888 1.610 . S
N1887 S1886 1.613 . S
N1887 C1890 1.350 . S
N1888 S1886 1.610 . S
N1888 C1889 1.351 . S
C1889 C1883 1.428 . S
C1889 N1888 1.351 . S
C1889 C1890 1.434 . S
C1890 C1881 1.429 . S
C1890 N1887 1.350 . S
C1890 C1889 1.434 . S
C1891 C1892 1.369 . S
C1891 C1893 1.419 . S
C1891 H1895 0.930 . S
C1892 C1891 1.369 . S
C1892 C1901 1.429 . S
C1893 C1891 1.419 . S
C1893 C1894 1.363 . S
C1893 H1896 0.929 . S
C1894 C1893 1.363 . S
C1894 C1900 1.428 . S
H1895 C1891 0.930 . S
H1896 C1893 0.929 . S
S1897 N1898 1.613 . S
S1897 N1899 1.610 . S
N1898 S1897 1.613 . S
N1898 C1901 1.350 1_554 S
N1899 S1897 1.610 . S
N1899 C1900 1.351 1_554 S
C1900 C1894 1.428 . S
C1900 N1899 1.351 1_556 S
C1900 C1901 1.434 . S
C1901 C1892 1.429 . S
C1901 N1898 1.350 1_556 S
C1901 C1900 1.434 . S
C1902 C1903 1.369 . S
C1902 C1904 1.419 . S
C1902 H1906 0.930 . S
C1903 C1902 1.369 . S
C1903 C1912 1.429 . S
C1904 C1902 1.419 . S
C1904 C1905 1.363 . S
C1904 H1907 0.929 . S
C1905 C1904 1.363 . S
C1905 C1911 1.428 . S
H1906 C1902 0.930 . S
H1907 C1904 0.929 . S
S1908 N1909 1.613 . S
S1908 N1910 1.610 . S
N1909 S1908 1.613 . S
N1909 C1912 1.350 . S
N1910 S1908 1.610 . S
N1910 C1911 1.351 . S
C1911 C1905 1.428 . S
C1911 N1910 1.351 . S
C1911 C1912 1.434 . S
C1912 C1903 1.429 . S
C1912 N1909 1.350 . S
C1912 C1911 1.434 . S
C1913 C1914 1.369 . S
C1913 C1915 1.419 . S
C1913 H1917 0.930 . S
C1914 C1913 1.369 . S
C1914 C1923 1.429 . S
C1915 C1913 1.419 . S
C1915 C1916 1.363 . S
C1915 H1918 0.929 . S
C1916 C1915 1.363 . S
C1916 C1922 1.428 . S
H1917 C1913 0.930 . S
H1918 C1915 0.929 . S
S1919 N1920 1.613 . S
S1919 N1921 1.610 . S
N1920 S1919 1.613 . S
N1920 C1923 1.350 . S
N1921 S1919 1.610 . S
N1921 C1922 1.351 . S
C1922 C1916 1.428 . S
C1922 N1921 1.351 . S
C1922 C1923 1.434 . S
C1923 C1914 1.429 . S
C1923 N1920 1.350 . S
C1923 C1922 1.434 . S
C1924 C1925 1.369 . S
C1924 C1926 1.419 . S
C1924 H1928 0.930 . S
C1925 C1924 1.369 . S
C1925 C1934 1.429 1_554 S
C1926 C1924 1.419 . S
C1926 C1927 1.363 . S
C1926 H1929 0.929 . S
C1927 C1926 1.363 . S
C1927 C1933 1.428 1_554 S
H1928 C1924 0.930 . S
H1929 C1926 0.929 . S
S1930 N1931 1.613 . S
S1930 N1932 1.610 . S
N1931 S1930 1.613 . S
N1931 C1934 1.350 . S
N1932 S1930 1.610 . S
N1932 C1933 1.351 . S
C1933 C1927 1.428 1_556 S
C1933 N1932 1.351 . S
C1933 C1934 1.434 . S
C1934 C1925 1.429 1_556 S
C1934 N1931 1.350 . S
C1934 C1933 1.434 . S
C1935 C1936 1.369 . S
C1935 C1937 1.419 . S
C1935 H1939 0.930 . S
C1936 C1935 1.369 . S
C1936 C1945 1.429 . S
C1937 C1935 1.419 . S
C1937 C1938 1.363 . S
C1937 H1940 0.929 . S
C1938 C1937 1.363 . S
C1938 C1944 1.428 . S
H1939 C1935 0.930 . S
H1940 C1937 0.929 . S
S1941 N1942 1.613 . S
S1941 N1943 1.610 . S
N1942 S1941 1.613 . S
N1942 C1945 1.350 . S
N1943 S1941 1.610 . S
N1943 C1944 1.351 . S
C1944 C1938 1.428 . S
C1944 N1943 1.351 . S
C1944 C1945 1.434 . S
C1945 C1936 1.429 . S
C1945 N1942 1.350 . S
C1945 C1944 1.434 . S
C1946 C1947 1.369 . S
C1946 C1948 1.419 . S
C1946 H1950 0.930 . S
C1947 C1946 1.369 . S
C1947 C1956 1.429 . S
C1948 C1946 1.419 . S
C1948 C1949 1.363 . S
C1948 H1951 0.929 . S
C1949 C1948 1.363 . S
C1949 C1955 1.428 . S
H1950 C1946 0.930 . S
H1951 C1948 0.929 . S
S1952 N1953 1.613 . S
S1952 N1954 1.610 . S
N1953 S1952 1.613 . S
N1953 C1956 1.350 . S
N1954 S1952 1.610 . S
N1954 C1955 1.351 . S
C1955 C1949 1.428 . S
C1955 N1954 1.351 . S
C1955 C1956 1.434 . S
C1956 C1947 1.429 . S
C1956 N1953 1.350 . S
C1956 C1955 1.434 . S
C1957 C1958 1.369 . S
C1957 C1959 1.419 . S
C1957 H1961 0.930 . S
C1958 C1957 1.369 . S
C1958 C1967 1.429 . S
C1959 C1957 1.419 . S
C1959 C1960 1.363 . S
C1959 H1962 0.929 . S
C1960 C1959 1.363 . S
C1960 C1966 1.428 . S
H1961 C1957 0.930 . S
H1962 C1959 0.929 . S
S1963 N1964 1.613 . S
S1963 N1965 1.610 . S
N1964 S1963 1.613 . S
N1964 C1967 1.350 . S
N1965 S1963 1.610 . S
N1965 C1966 1.351 . S
C1966 C1960 1.428 . S
C1966 N1965 1.351 . S
C1966 C1967 1.434 . S
C1967 C1958 1.429 . S
C1967 N1964 1.350 . S
C1967 C1966 1.434 . S
C1089 C20 1.388 . S
C1091 C156 1.401 . S
C1100 C1006 1.395 . S
C1102 C54 1.396 . S
C1111 C496 1.393 . S
C1113 C88 1.398 . S
C1122 C122 1.395 . S
C1124 C802 1.395 . S
C1133 C870 1.403 . S
C1135 C190 1.390 . S
C1144 C224 1.401 . S
C1146 C360 1.391 . S
C1155 C666 1.388 . S
C1157 C258 1.401 . S
C1166 C428 1.397 . S
C1168 C292 1.394 . S
C1177 C326 1.403 . S
C1179 C734 1.390 . S
C1188 C394 1.401 . S
C1190 C1074 1.392 . S
C1199 C462 1.400 . S
C1201 C598 1.391 . S
C1210 C938 1.398 . S
C1212 C530 1.394 . S
C1221 C700 1.402 . S
C1223 C564 1.390 . S
C1232 C1040 1.401 . S
C1234 C632 1.392 . S
C1243 C768 1.402 . S
C1245 C904 1.390 . S
C1254 C972 1.389 . S
C1256 C836 1.401 . S
C1265 C33 1.504 . S
C1267 C101 1.503 . S
C1276 C67 1.505 . S
C1278 C135 1.504 . S
C1287 C237 1.505 . S
C1289 C169 1.503 . S
C1298 C271 1.505 . S
C1300 C203 1.503 . S
C1309 C373 1.503 . S
C1311 C305 1.504 . S
C1320 C339 1.504 . S
C1322 C407 1.503 . S
C1331 C441 1.503 . S
C1333 C509 1.504 . S
C1342 C475 1.503 . S
C1344 C543 1.503 . S
C1353 C645 1.503 . S
C1355 C577 1.505 . S
C1364 C611 1.504 . S
C1366 C679 1.503 . S
C1375 C713 1.503 . S
C1377 C781 1.505 . S
C1386 C747 1.503 . S
C1388 C815 1.505 . S
C1397 C849 1.504 . S
C1399 C917 1.503 . S
C1408 C951 1.505 . S
C1410 C883 1.503 . S
C1419 C985 1.505 . S
C1421 C1053 1.505 . S
C1430 C1087 1.505 . S
C1432 C1019 1.503 . S
C1441 C5 1.044 . S
C1443 C39 1.053 . S
C1452 C107 1.045 . S
C1454 C73 1.059 . S
C1463 C175 1.061 . S
C1465 C141 1.046 . S
C1474 C209 1.043 . S
C1476 C243 1.056 . S
C1485 C277 1.056 . S
C1487 C311 1.058 . S
C1496 C345 1.048 . S
C1498 C379 1.060 . S
C1507 C447 1.043 . S
C1509 C413 1.057 . S
C1518 C515 1.060 . S
C1520 C481 1.053 . S
C1529 C583 1.056 . S
C1531 C549 1.045 . S
C1540 C617 1.061 . S
C1542 C651 1.052 . S
C1551 C719 1.049 . S
C1553 C685 1.049 . S
C1562 C753 1.060 . S
C1564 C787 1.053 . S
C1573 C821 1.052 . S
C1575 C855 1.059 . S
C1584 C923 1.049 . S
C1586 C889 1.048 . S
C1595 C957 1.059 . S
C1597 C991 1.045 . S
C1606 C1025 1.062 . S
C1608 C1059 1.047 . S
C1617 C9 1.781 1_556 S
C1619 C172 2.073 . S
C1628 C954 2.073 . S
C1630 C43 1.789 1_556 S
C1639 C512 2.070 . S
C1641 C77 1.780 . S
C1650 C111 1.778 . S
C1652 C750 2.071 . S
C1661 C36 2.074 . S
C1663 C145 1.785 1_554 S
C1672 C179 1.778 1_554 S
C1674 C818 2.071 . S
C1683 C213 1.778 . S
C1685 C376 2.071 . S
C1694 C614 2.070 . S
C1696 C247 1.780 . S
C1705 C281 1.779 . S
C1707 C444 2.072 . S
C1716 C315 1.787 . S
C1718 C682 2.073 . S
C1727 C349 1.787 . S
C1729 C240 2.073 . S
C1738 C1022 2.071 . S
C1740 C383 1.780 . S
C1749 C417 1.780 . S
C1751 C308 2.072 . S
C1760 C451 1.788 . S
C1762 C546 2.068 . S
C1771 C485 1.778 . S
C1773 C104 2.070 . S
C1782 C886 2.074 . S
C1784 C519 1.787 . S
C1793 C716 2.072 . S
C1795 C553 1.790 . S
C1804 C587 1.791 . S
C1806 C410 2.072 . S
C1815 C621 1.782 . S
C1817 C1056 2.068 . S
C1826 C655 1.783 . S
C1828 C206 2.073 . S
C1837 C689 1.788 . S
C1839 C580 2.073 . S
C1848 C723 1.790 . S
C1850 C274 2.069 . S
C1859 C920 2.071 . S
C1861 C757 1.780 . S
C1870 C70 2.071 . S
C1872 C791 1.791 . S
C1881 C825 1.791 1_556 S
C1883 C988 2.069 . S
C1892 C859 1.781 1_556 S
C1894 C138 2.068 . S
C1903 C893 1.783 . S
C1905 C784 2.068 . S
C1914 C478 2.067 . S
C1916 C927 1.784 . S
C1925 C961 1.779 1_554 S
C1927 C852 2.072 . S
C1936 C2 2.074 . S
C1938 C995 1.786 1_554 S
C1947 C648 2.069 . S
C1949 C1029 1.780 . S
C1958 C342 2.067 . S
C1960 C1063 1.784 . S
