# Generated by pormake.
# Topology wgp, (5)-cn, num edge types: 1
# Building blocks:
#     Node 0, Type 0, BuildingBlock: BEQFEK_clean_sbu_0, # of connection points: 5
#     Node 1, Type 0, BuildingBlock: BEQFEK_clean_sbu_0, # of connection points: 5
#     Node 2, Type 0, BuildingBlock: BEQFEK_clean_sbu_0, # of connection points: 5
#     Node 3, Type 0, BuildingBlock: BEQFEK_clean_sbu_0, # of connection points: 5
#     Node 4, Type 0, BuildingBlock: BEQFEK_clean_sbu_0, # of connection points: 5
#     Node 5, Type 0, BuildingBlock: BEQFEK_clean_sbu_0, # of connection points: 5
#     Node 6, Type 0, BuildingBlock: BEQFEK_clean_sbu_0, # of connection points: 5
#     Node 7, Type 0, BuildingBlock: BEQFEK_clean_sbu_0, # of connection points: 5
#     Node 8, Type 0, BuildingBlock: BEQFEK_clean_sbu_0, # of connection points: 5
#     Node 9, Type 0, BuildingBlock: BEQFEK_clean_sbu_0, # of connection points: 5
#     Node 10, Type 0, BuildingBlock: BEQFEK_clean_sbu_0, # of connection points: 5
#     Node 11, Type 0, BuildingBlock: BEQFEK_clean_sbu_0, # of connection points: 5
#     Node 12, Type 0, BuildingBlock: BEQFEK_clean_sbu_0, # of connection points: 5
#     Node 13, Type 0, BuildingBlock: BEQFEK_clean_sbu_0, # of connection points: 5
#     Node 14, Type 0, BuildingBlock: BEQFEK_clean_sbu_0, # of connection points: 5
#     Node 15, Type 0, BuildingBlock: BEQFEK_clean_sbu_0, # of connection points: 5
#     Node 16, Type 0, BuildingBlock: BEQFEK_clean_sbu_0, # of connection points: 5
#     Node 17, Type 0, BuildingBlock: BEQFEK_clean_sbu_0, # of connection points: 5
#     Node 18, Type 0, BuildingBlock: BEQFEK_clean_sbu_0, # of connection points: 5
#     Node 19, Type 0, BuildingBlock: BEQFEK_clean_sbu_0, # of connection points: 5
#     Node 20, Type 0, BuildingBlock: BEQFEK_clean_sbu_0, # of connection points: 5
#     Node 21, Type 0, BuildingBlock: BEQFEK_clean_sbu_0, # of connection points: 5
#     Node 22, Type 0, BuildingBlock: BEQFEK_clean_sbu_0, # of connection points: 5
#     Node 23, Type 0, BuildingBlock: BEQFEK_clean_sbu_0, # of connection points: 5
#     Node 24, Type 0, BuildingBlock: BEQFEK_clean_sbu_0, # of connection points: 5
#     Node 25, Type 0, BuildingBlock: BEQFEK_clean_sbu_0, # of connection points: 5
#     Node 26, Type 0, BuildingBlock: BEQFEK_clean_sbu_0, # of connection points: 5
#     Node 27, Type 0, BuildingBlock: BEQFEK_clean_sbu_0, # of connection points: 5
#     Node 28, Type 0, BuildingBlock: BEQFEK_clean_sbu_0, # of connection points: 5
#     Node 29, Type 0, BuildingBlock: BEQFEK_clean_sbu_0, # of connection points: 5
#     Node 30, Type 0, BuildingBlock: BEQFEK_clean_sbu_0, # of connection points: 5
#     Node 31, Type 0, BuildingBlock: BEQFEK_clean_sbu_0, # of connection points: 5
#     Edge 32, Type (0, 0), BuildingBlock: XIVTED_clean_linker_0, # of connection points: 2
#     Edge 33, Type (0, 0), BuildingBlock: XIVTED_clean_linker_0, # of connection points: 2
#     Edge 34, Type (0, 0), BuildingBlock: XIVTED_clean_linker_0, # of connection points: 2
#     Edge 35, Type (0, 0), BuildingBlock: XIVTED_clean_linker_0, # of connection points: 2
#     Edge 36, Type (0, 0), BuildingBlock: XIVTED_clean_linker_0, # of connection points: 2
#     Edge 37, Type (0, 0), BuildingBlock: XIVTED_clean_linker_0, # of connection points: 2
#     Edge 38, Type (0, 0), BuildingBlock: XIVTED_clean_linker_0, # of connection points: 2
#     Edge 39, Type (0, 0), BuildingBlock: XIVTED_clean_linker_0, # of connection points: 2
#     Edge 40, Type (0, 0), BuildingBlock: XIVTED_clean_linker_0, # of connection points: 2
#     Edge 41, Type (0, 0), BuildingBlock: XIVTED_clean_linker_0, # of connection points: 2
#     Edge 42, Type (0, 0), BuildingBlock: XIVTED_clean_linker_0, # of connection points: 2
#     Edge 43, Type (0, 0), BuildingBlock: XIVTED_clean_linker_0, # of connection points: 2
#     Edge 44, Type (0, 0), BuildingBlock: XIVTED_clean_linker_0, # of connection points: 2
#     Edge 45, Type (0, 0), BuildingBlock: XIVTED_clean_linker_0, # of connection points: 2
#     Edge 46, Type (0, 0), BuildingBlock: XIVTED_clean_linker_0, # of connection points: 2
#     Edge 47, Type (0, 0), BuildingBlock: XIVTED_clean_linker_0, # of connection points: 2
#     Edge 48, Type (0, 0), BuildingBlock: XIVTED_clean_linker_0, # of connection points: 2
#     Edge 49, Type (0, 0), BuildingBlock: XIVTED_clean_linker_0, # of connection points: 2
#     Edge 50, Type (0, 0), BuildingBlock: XIVTED_clean_linker_0, # of connection points: 2
#     Edge 51, Type (0, 0), BuildingBlock: XIVTED_clean_linker_0, # of connection points: 2
#     Edge 52, Type (0, 0), BuildingBlock: XIVTED_clean_linker_0, # of connection points: 2
#     Edge 53, Type (0, 0), BuildingBlock: XIVTED_clean_linker_0, # of connection points: 2
#     Edge 54, Type (0, 0), BuildingBlock: XIVTED_clean_linker_0, # of connection points: 2
#     Edge 55, Type (0, 0), BuildingBlock: XIVTED_clean_linker_0, # of connection points: 2
#     Edge 56, Type (0, 0), BuildingBlock: XIVTED_clean_linker_0, # of connection points: 2
#     Edge 57, Type (0, 0), BuildingBlock: XIVTED_clean_linker_0, # of connection points: 2
#     Edge 58, Type (0, 0), BuildingBlock: XIVTED_clean_linker_0, # of connection points: 2
#     Edge 59, Type (0, 0), BuildingBlock: XIVTED_clean_linker_0, # of connection points: 2
#     Edge 60, Type (0, 0), BuildingBlock: XIVTED_clean_linker_0, # of connection points: 2
#     Edge 61, Type (0, 0), BuildingBlock: XIVTED_clean_linker_0, # of connection points: 2
#     Edge 62, Type (0, 0), BuildingBlock: XIVTED_clean_linker_0, # of connection points: 2
#     Edge 63, Type (0, 0), BuildingBlock: XIVTED_clean_linker_0, # of connection points: 2
#     Edge 64, Type (0, 0), BuildingBlock: XIVTED_clean_linker_0, # of connection points: 2
#     Edge 65, Type (0, 0), BuildingBlock: XIVTED_clean_linker_0, # of connection points: 2
#     Edge 66, Type (0, 0), BuildingBlock: XIVTED_clean_linker_0, # of connection points: 2
#     Edge 67, Type (0, 0), BuildingBlock: XIVTED_clean_linker_0, # of connection points: 2
#     Edge 68, Type (0, 0), BuildingBlock: XIVTED_clean_linker_0, # of connection points: 2
#     Edge 69, Type (0, 0), BuildingBlock: XIVTED_clean_linker_0, # of connection points: 2
#     Edge 70, Type (0, 0), BuildingBlock: XIVTED_clean_linker_0, # of connection points: 2
#     Edge 71, Type (0, 0), BuildingBlock: XIVTED_clean_linker_0, # of connection points: 2
#     Edge 72, Type (0, 0), BuildingBlock: XIVTED_clean_linker_0, # of connection points: 2
#     Edge 73, Type (0, 0), BuildingBlock: XIVTED_clean_linker_0, # of connection points: 2
#     Edge 74, Type (0, 0), BuildingBlock: XIVTED_clean_linker_0, # of connection points: 2
#     Edge 75, Type (0, 0), BuildingBlock: XIVTED_clean_linker_0, # of connection points: 2
#     Edge 76, Type (0, 0), BuildingBlock: XIVTED_clean_linker_0, # of connection points: 2
#     Edge 77, Type (0, 0), BuildingBlock: XIVTED_clean_linker_0, # of connection points: 2
#     Edge 78, Type (0, 0), BuildingBlock: XIVTED_clean_linker_0, # of connection points: 2
#     Edge 79, Type (0, 0), BuildingBlock: XIVTED_clean_linker_0, # of connection points: 2
#     Edge 80, Type (0, 0), BuildingBlock: XIVTED_clean_linker_0, # of connection points: 2
#     Edge 81, Type (0, 0), BuildingBlock: XIVTED_clean_linker_0, # of connection points: 2
#     Edge 82, Type (0, 0), BuildingBlock: XIVTED_clean_linker_0, # of connection points: 2
#     Edge 83, Type (0, 0), BuildingBlock: XIVTED_clean_linker_0, # of connection points: 2
#     Edge 84, Type (0, 0), BuildingBlock: XIVTED_clean_linker_0, # of connection points: 2
#     Edge 85, Type (0, 0), BuildingBlock: XIVTED_clean_linker_0, # of connection points: 2
#     Edge 86, Type (0, 0), BuildingBlock: XIVTED_clean_linker_0, # of connection points: 2
#     Edge 87, Type (0, 0), BuildingBlock: XIVTED_clean_linker_0, # of connection points: 2
#     Edge 88, Type (0, 0), BuildingBlock: XIVTED_clean_linker_0, # of connection points: 2
#     Edge 89, Type (0, 0), BuildingBlock: XIVTED_clean_linker_0, # of connection points: 2
#     Edge 90, Type (0, 0), BuildingBlock: XIVTED_clean_linker_0, # of connection points: 2
#     Edge 91, Type (0, 0), BuildingBlock: XIVTED_clean_linker_0, # of connection points: 2
#     Edge 92, Type (0, 0), BuildingBlock: XIVTED_clean_linker_0, # of connection points: 2
#     Edge 93, Type (0, 0), BuildingBlock: XIVTED_clean_linker_0, # of connection points: 2
#     Edge 94, Type (0, 0), BuildingBlock: XIVTED_clean_linker_0, # of connection points: 2
#     Edge 95, Type (0, 0), BuildingBlock: XIVTED_clean_linker_0, # of connection points: 2
#     Edge 96, Type (0, 0), BuildingBlock: XIVTED_clean_linker_0, # of connection points: 2
#     Edge 97, Type (0, 0), BuildingBlock: XIVTED_clean_linker_0, # of connection points: 2
#     Edge 98, Type (0, 0), BuildingBlock: XIVTED_clean_linker_0, # of connection points: 2
#     Edge 99, Type (0, 0), BuildingBlock: XIVTED_clean_linker_0, # of connection points: 2
#     Edge 100, Type (0, 0), BuildingBlock: XIVTED_clean_linker_0, # of connection points: 2
#     Edge 101, Type (0, 0), BuildingBlock: XIVTED_clean_linker_0, # of connection points: 2
#     Edge 102, Type (0, 0), BuildingBlock: XIVTED_clean_linker_0, # of connection points: 2
#     Edge 103, Type (0, 0), BuildingBlock: XIVTED_clean_linker_0, # of connection points: 2
#     Edge 104, Type (0, 0), BuildingBlock: XIVTED_clean_linker_0, # of connection points: 2
#     Edge 105, Type (0, 0), BuildingBlock: XIVTED_clean_linker_0, # of connection points: 2
#     Edge 106, Type (0, 0), BuildingBlock: XIVTED_clean_linker_0, # of connection points: 2
#     Edge 107, Type (0, 0), BuildingBlock: XIVTED_clean_linker_0, # of connection points: 2
#     Edge 108, Type (0, 0), BuildingBlock: XIVTED_clean_linker_0, # of connection points: 2
#     Edge 109, Type (0, 0), BuildingBlock: XIVTED_clean_linker_0, # of connection points: 2
#     Edge 110, Type (0, 0), BuildingBlock: XIVTED_clean_linker_0, # of connection points: 2
#     Edge 111, Type (0, 0), BuildingBlock: XIVTED_clean_linker_0, # of connection points: 2
# Relax obj value: 0.254
# Max RMSD: 0.168
# Mean RMSD: 0.168
data_MOF--net-wgp--node1-BEQFEK_clean_sbu_0--edge1-XIVTED_clean_linker_0
_symmetry_space_group_name_H-M    P1
_symmetry_Int_Tables_number       1
_symmetry_cell_setting            triclinic
loop_
_symmetry_equiv_pos_as_xyz
'x, y, z'
_cell_length_a     35.656312
_cell_length_b     35.629667
_cell_length_c     113.86262
_cell_angle_alpha  90.008211
_cell_angle_beta   90.01854
_cell_angle_gamma 90.001624
loop_
_atom_site_label
_atom_site_type_symbol
_atom_site_fract_x
_atom_site_fract_y
_atom_site_fract_z
_atom_type_partial_charge
Co0 Co 0.29336 0.18403 0.07737 0.0
Co1 Co 0.33506 0.10734 0.07478 0.0
C2 C 0.29206 0.13955 0.05475 0.0
O3 O 0.28315 0.16792 0.06097 0.0
O4 O 0.31211 0.11315 0.05894 0.0
C5 C 0.2302 0.23436 0.07627 0.0
O6 O 0.21377 0.20709 0.07045 0.0
C7 C 0.3471 0.02643 0.07127 0.0
C8 C 0.39235 0.01517 0.08407 0.0
C9 C 0.36817 0.9978 0.07625 0.0
N10 N 0.35812 0.05916 0.07603 0.0
N11 N 0.38579 0.05232 0.08345 0.0
C12 C 0.31353 0.02235 0.06345 0.0
H13 H 0.29386 0.04608 0.06476 0.0
H14 H 0.29865 0.99557 0.0652 0.0
H15 H 0.32292 0.02238 0.05416 0.0
C16 C 0.25946 0.14446 0.09783 0.0
N17 N 0.28195 0.1456 0.08831 0.0
N18 N 0.2981 0.11271 0.08692 0.0
C19 C 0.2854 0.08917 0.09531 0.0
C20 C 0.2608 0.10856 0.10264 0.0
C21 C 0.23927 0.17794 0.10263 0.0
H22 H 0.25643 0.20356 0.10134 0.0
H23 H 0.21247 0.18157 0.0978 0.0
H24 H 0.23314 0.17457 0.11212 0.0
O25 O 0.34637 0.19917 0.07873 0.0
O26 O 0.37633 0.14502 0.07674 0.0
H27 H 0.32384 0.04437 0.09877 0.0
H28 H 0.27539 0.03253 0.10169 0.0
C29 C 0.29448 0.04816 0.09578 0.0
H30 H 0.29152 0.03597 0.08691 0.0
H31 H 0.39875 0.0728 0.0886 0.0
O32 O 0.26318 0.22954 0.08023 0.0
C33 C 0.37673 0.18049 0.07823 0.0
Co34 Co 0.06755 0.04591 0.32744 0.0
Co35 Co 0.14334 0.08878 0.32469 0.0
C36 C 0.11094 0.04321 0.30496 0.0
O37 O 0.08268 0.03438 0.31118 0.0
O38 O 0.13695 0.06387 0.30908 0.0
C39 C 0.0174 0.98335 0.32629 0.0
O40 O 0.04413 0.96815 0.31994 0.0
C41 C 0.22404 0.09095 0.32236 0.0
C42 C 0.23915 0.14717 0.32905 0.0
C43 C 0.25435 0.11376 0.32504 0.0
N44 N 0.19244 0.10964 0.3249 0.0
N45 N 0.20151 0.14351 0.3287 0.0
C46 C 0.22452 0.05213 0.31729 0.0
H47 H 0.20676 0.03323 0.32267 0.0
H48 H 0.25329 0.04063 0.31654 0.0
H49 H 0.21201 0.05305 0.30838 0.0
C50 C 0.10807 0.01177 0.34759 0.0
N51 N 0.10633 0.0351 0.33828 0.0
N52 N 0.13815 0.05363 0.33737 0.0
C53 C 0.161 0.04279 0.34621 0.0
C54 C 0.14293 0.01564 0.35285 0.0
C55 C 0.07719 0.98576 0.35116 0.0
H56 H 0.05087 0.00193 0.35232 0.0
H57 H 0.0725 0.96496 0.34406 0.0
H58 H 0.08393 0.97059 0.3594 0.0
O59 O 0.05268 0.09941 0.32845 0.0
O60 O 0.1063 0.13037 0.32635 0.0
H61 H 0.19798 0.09031 0.34706 0.0
H62 H 0.20597 0.05553 0.35829 0.0
C63 C 0.19835 0.05983 0.34893 0.0
H64 H 0.22004 0.04615 0.34346 0.0
H65 H 0.18212 0.16355 0.33148 0.0
O66 O 0.02235 0.01577 0.33069 0.0
C67 C 0.07084 0.13013 0.3278 0.0
Co68 Co 0.20912 0.81663 0.57628 0.0
Co69 Co 0.16545 0.89278 0.57402 0.0
C70 C 0.20838 0.86153 0.55377 0.0
O71 O 0.21736 0.83307 0.55989 0.0
O72 O 0.18859 0.8879 0.55809 0.0
C73 C 0.26862 0.76417 0.57228 0.0
O74 O 0.27658 0.78688 0.56355 0.0
C75 C 0.15628 0.97354 0.5709 0.0
C76 C 0.10689 0.9859 0.58196 0.0
C77 C 0.13429 0.00266 0.57511 0.0
N78 N 0.14264 0.94108 0.5751 0.0
N79 N 0.11264 0.94855 0.58151 0.0
C80 C 0.19258 0.97672 0.56436 0.0
H81 H 0.21102 0.95251 0.5664 0.0
H82 H 0.20732 0.00319 0.56661 0.0
H83 H 0.18669 0.97671 0.55479 0.0
C84 C 0.24431 0.85721 0.59621 0.0
N85 N 0.22061 0.85563 0.587 0.0
N86 N 0.20208 0.8875 0.58622 0.0
C87 C 0.21322 0.91024 0.59505 0.0
C88 C 0.24035 0.89185 0.60165 0.0
C89 C 0.26851 0.8252 0.60007 0.0
H90 H 0.25106 0.79962 0.60105 0.0
H91 H 0.28976 0.81944 0.59318 0.0
H92 H 0.28289 0.83128 0.6085 0.0
O93 O 0.15607 0.80068 0.57794 0.0
O94 O 0.12509 0.85438 0.5759 0.0
H95 H 0.16784 0.9482 0.59821 0.0
H96 H 0.21153 0.96257 0.60486 0.0
C97 C 0.19868 0.94913 0.59706 0.0
H98 H 0.20518 0.9667 0.58931 0.0
H99 H 0.09725 0.92833 0.58606 0.0
O100 O 0.24145 0.772 0.5791 0.0
C101 C 0.12536 0.81891 0.57743 0.0
Co102 Co 0.43296 0.95477 0.82741 0.0
Co103 Co 0.35653 0.91331 0.82394 0.0
C104 C 0.3901 0.95903 0.80462 0.0
O105 O 0.41815 0.96708 0.81106 0.0
O106 O 0.36354 0.93852 0.80845 0.0
C107 C 0.48315 0.01745 0.82683 0.0
O108 O 0.4566 0.03314 0.82051 0.0
C109 C 0.27616 0.90638 0.81978 0.0
C110 C 0.26083 0.85743 0.83065 0.0
C111 C 0.24574 0.88587 0.82383 0.0
N112 N 0.30764 0.89146 0.82425 0.0
N113 N 0.29841 0.86157 0.83049 0.0
C114 C 0.2756 0.94032 0.81202 0.0
H115 H 0.29263 0.9631 0.81598 0.0
H116 H 0.24671 0.95034 0.81025 0.0
H117 H 0.28875 0.93284 0.80352 0.0
C118 C 0.39243 0.98675 0.84793 0.0
N119 N 0.39398 0.96503 0.83824 0.0
N120 N 0.36132 0.94861 0.83664 0.0
C121 C 0.33761 0.96016 0.84515 0.0
C122 C 0.35654 0.98453 0.85268 0.0
C123 C 0.42551 0.0071 0.85291 0.0
H124 H 0.45114 0.98978 0.8519 0.0
H125 H 0.42965 0.03366 0.848 0.0
H126 H 0.42146 0.01366 0.86235 0.0
O127 O 0.44767 0.90151 0.82825 0.0
O128 O 0.39377 0.87146 0.82568 0.0
H129 H 0.29361 0.91988 0.84733 0.0
H130 H 0.28114 0.96664 0.85218 0.0
C131 C 0.29683 0.95029 0.84553 0.0
H132 H 0.2842 0.95662 0.83692 0.0
H133 H 0.31756 0.84529 0.83519 0.0
O134 O 0.47814 0.98465 0.83092 0.0
C135 C 0.42916 0.87111 0.82735 0.0
Co136 Co 0.29904 0.82007 0.44746 0.0
Co137 Co 0.34005 0.897 0.45007 0.0
C138 C 0.29499 0.86416 0.46983 0.0
O139 O 0.28703 0.83547 0.46367 0.0
O140 O 0.31512 0.89054 0.46569 0.0
C141 C 0.23752 0.7687 0.44868 0.0
O142 O 0.22189 0.79537 0.45497 0.0
C143 C 0.34059 0.97791 0.45218 0.0
C144 C 0.39631 0.99386 0.44531 0.0
C145 C 0.3627 0.00857 0.44932 0.0
N146 N 0.35984 0.94656 0.44972 0.0
N147 N 0.39342 0.95615 0.44582 0.0
C148 C 0.30192 0.97782 0.45733 0.0
H149 H 0.28308 0.96006 0.45193 0.0
H150 H 0.29017 0.00647 0.45821 0.0
H151 H 0.30314 0.96499 0.46619 0.0
C152 C 0.26398 0.85942 0.42722 0.0
N153 N 0.28732 0.85839 0.43654 0.0
N154 N 0.30508 0.89069 0.4374 0.0
C155 C 0.29372 0.91313 0.42851 0.0
C156 C 0.26703 0.89429 0.4219 0.0
C157 C 0.23872 0.82786 0.42369 0.0
H158 H 0.25546 0.80182 0.42264 0.0
H159 H 0.2179 0.82296 0.43076 0.0
H160 H 0.2236 0.83402 0.4154 0.0
O161 O 0.35289 0.80649 0.44641 0.0
O162 O 0.38249 0.86093 0.44844 0.0
H163 H 0.34038 0.95114 0.42756 0.0
H164 H 0.30537 0.95817 0.41634 0.0
C165 C 0.30991 0.95082 0.42571 0.0
H166 H 0.29582 0.97233 0.43115 0.0
H167 H 0.41376 0.93704 0.44307 0.0
O168 O 0.26987 0.77406 0.44429 0.0
C169 C 0.38314 0.82544 0.447 0.0
Co170 Co 0.43227 0.04265 0.69778 0.0
Co171 Co 0.35727 0.08702 0.70029 0.0
C172 C 0.38996 0.04234 0.72034 0.0
O173 O 0.41799 0.03247 0.71418 0.0
O174 O 0.36422 0.06303 0.71606 0.0
C175 C 0.48403 0.98155 0.69956 0.0
O176 O 0.45966 0.96837 0.70716 0.0
C177 C 0.27625 0.08892 0.70211 0.0
C178 C 0.26192 0.1464 0.69636 0.0
C179 C 0.24629 0.11238 0.69963 0.0
N180 N 0.30815 0.10783 0.70011 0.0
N181 N 0.29949 0.14239 0.69686 0.0
C182 C 0.27493 0.04924 0.70647 0.0
H183 H 0.28397 0.02984 0.69941 0.0
H184 H 0.24641 0.04138 0.70948 0.0
H185 H 0.29477 0.04579 0.71388 0.0
C186 C 0.38996 0.00666 0.67825 0.0
N187 N 0.39271 0.03117 0.68724 0.0
N188 N 0.36201 0.05157 0.68774 0.0
C189 C 0.33937 0.04172 0.67874 0.0
C190 C 0.35592 0.01244 0.67256 0.0
C191 C 0.41881 0.97741 0.67557 0.0
H192 H 0.42665 0.96268 0.68378 0.0
H193 H 0.40844 0.9564 0.66916 0.0
H194 H 0.44434 0.99119 0.67204 0.0
O195 O 0.44751 0.09626 0.69635 0.0
O196 O 0.39427 0.12802 0.69829 0.0
H197 H 0.30041 0.0608 0.66553 0.0
H198 H 0.28005 0.05056 0.67955 0.0
C199 C 0.30488 0.06281 0.67515 0.0
H200 H 0.30737 0.09279 0.6776 0.0
H201 H 0.31918 0.1628 0.69458 0.0
O202 O 0.47714 0.01222 0.69428 0.0
C203 C 0.42969 0.12725 0.6968 0.0
Co204 Co 0.20649 0.18413 0.9476 0.0
Co205 Co 0.16446 0.10797 0.95088 0.0
C206 C 0.21007 0.14101 0.97033 0.0
O207 O 0.21851 0.16906 0.96394 0.0
O208 O 0.18942 0.11463 0.96642 0.0
C209 C 0.26945 0.23428 0.94808 0.0
O210 O 0.28563 0.20765 0.95425 0.0
C211 C 0.15642 0.02754 0.95491 0.0
C212 C 0.10782 0.01298 0.9438 0.0
C213 C 0.13573 0.99742 0.95072 0.0
N214 N 0.14211 0.05929 0.95042 0.0
N215 N 0.11241 0.05052 0.94403 0.0
C216 C 0.18996 0.02645 0.96283 0.0
H217 H 0.21325 0.04293 0.95894 0.0
H218 H 0.19928 0.99738 0.9647 0.0
H219 H 0.18241 0.03996 0.97127 0.0
C220 C 0.23852 0.14364 0.92707 0.0
N221 N 0.2166 0.14523 0.93671 0.0
N222 N 0.19999 0.11263 0.93825 0.0
C223 C 0.21164 0.08889 0.92974 0.0
C224 C 0.23627 0.10777 0.9223 0.0
C225 C 0.25916 0.17669 0.92217 0.0
H226 H 0.24202 0.20244 0.92319 0.0
H227 H 0.28567 0.18056 0.92713 0.0
H228 H 0.2658 0.17271 0.91273 0.0
O229 O 0.15345 0.19932 0.94672 0.0
O230 O 0.12298 0.14557 0.94913 0.0
H231 H 0.17137 0.04499 0.92735 0.0
H232 H 0.21833 0.03231 0.9228 0.0
C233 C 0.20165 0.04811 0.92933 0.0
H234 H 0.20741 0.03553 0.93799 0.0
H235 H 0.0966 0.06996 0.93929 0.0
O236 O 0.23647 0.22922 0.94416 0.0
C237 C 0.12292 0.18102 0.94754 0.0
Co238 Co 0.06281 0.95932 0.1981 0.0
Co239 Co 0.13962 0.91703 0.20068 0.0
C240 C 0.10778 0.9599 0.22071 0.0
O241 O 0.07927 0.96825 0.21452 0.0
O242 O 0.13444 0.94037 0.21648 0.0
C243 C 0.01181 0.02009 0.20183 0.0
O244 O 0.03617 0.0294 0.20998 0.0
C245 C 0.22024 0.90833 0.20412 0.0
C246 C 0.2338 0.86001 0.19275 0.0
C247 C 0.24993 0.88746 0.19973 0.0
N248 N 0.18816 0.89451 0.19971 0.0
N249 N 0.19634 0.865 0.19315 0.0
C250 C 0.22204 0.94148 0.21219 0.0
H251 H 0.20968 0.93335 0.22076 0.0
H252 H 0.2049 0.96484 0.20863 0.0
H253 H 0.25122 0.95098 0.21375 0.0
C254 C 0.10236 0.99288 0.17767 0.0
N255 N 0.10141 0.97046 0.18721 0.0
N256 N 0.1341 0.95377 0.18845 0.0
C257 C 0.15723 0.96581 0.17985 0.0
C258 C 0.13785 0.99077 0.17263 0.0
C259 C 0.06898 0.01371 0.17309 0.0
H260 H 0.04344 0.99622 0.17406 0.0
H261 H 0.06503 0.03966 0.17834 0.0
H262 H 0.07249 0.02136 0.16371 0.0
O263 O 0.04742 0.90631 0.19658 0.0
O264 O 0.10148 0.8761 0.19879 0.0
H265 H 0.2006 0.92536 0.17687 0.0
H266 H 0.2132 0.97255 0.17248 0.0
C267 C 0.19787 0.95557 0.17905 0.0
H268 H 0.21127 0.96072 0.18764 0.0
H269 H 0.17653 0.84953 0.18845 0.0
O270 O 0.01807 0.99153 0.19541 0.0
C271 C 0.06604 0.87586 0.19718 0.0
Co272 Co 0.70751 0.81796 0.94666 0.0
Co273 Co 0.66503 0.89388 0.94957 0.0
C274 C 0.71053 0.86119 0.96922 0.0
O275 O 0.71907 0.83294 0.96294 0.0
O276 O 0.69006 0.88746 0.96516 0.0
C277 C 0.77003 0.76784 0.94774 0.0
O278 O 0.78537 0.79467 0.95403 0.0
C279 C 0.66212 0.97463 0.95191 0.0
C280 C 0.60583 0.98909 0.94516 0.0
C281 C 0.63903 0.00469 0.94918 0.0
N282 N 0.64379 0.9428 0.94938 0.0
N283 N 0.60987 0.95148 0.94556 0.0
C284 C 0.70089 0.97557 0.95699 0.0
H285 H 0.70018 0.96275 0.96586 0.0
H286 H 0.72007 0.95826 0.95156 0.0
H287 H 0.71191 0.00453 0.95783 0.0
C288 C 0.74135 0.85861 0.92647 0.0
N289 N 0.71829 0.85687 0.93584 0.0
N290 N 0.69995 0.8888 0.93684 0.0
C291 C 0.71064 0.9117 0.92799 0.0
C292 C 0.73751 0.89357 0.92126 0.0
C293 C 0.76704 0.82759 0.92278 0.0
H294 H 0.78808 0.82276 0.92979 0.0
H295 H 0.78188 0.8343 0.91448 0.0
H296 H 0.75069 0.80133 0.92167 0.0
O297 O 0.65405 0.80301 0.94565 0.0
O298 O 0.62356 0.85685 0.94792 0.0
H299 H 0.69783 0.95688 0.91599 0.0
H300 H 0.70747 0.97074 0.93082 0.0
C301 C 0.69366 0.94914 0.92534 0.0
H302 H 0.66323 0.94882 0.92726 0.0
H303 H 0.59008 0.93184 0.94277 0.0
O304 O 0.73758 0.77277 0.94337 0.0
C305 C 0.6235 0.8214 0.94639 0.0
Co306 Co 0.93178 0.95629 0.6975 0.0
Co307 Co 0.85689 0.91187 0.70015 0.0
C308 C 0.88881 0.9579 0.71999 0.0
O309 O 0.917 0.9673 0.71382 0.0
O310 O 0.86316 0.93691 0.7158 0.0
C311 C 0.98366 0.01746 0.69912 0.0
O312 O 0.95919 0.03107 0.70662 0.0
C313 C 0.77607 0.90932 0.70214 0.0
C314 C 0.76185 0.85198 0.69622 0.0
C315 C 0.74616 0.88578 0.69969 0.0
N316 N 0.80798 0.89065 0.69998 0.0
N317 N 0.79943 0.85617 0.69662 0.0
C318 C 0.77487 0.94879 0.70669 0.0
H319 H 0.78904 0.96787 0.70041 0.0
H320 H 0.74581 0.95852 0.70831 0.0
H321 H 0.79066 0.95027 0.71506 0.0
C322 C 0.88956 0.99159 0.67785 0.0
N323 N 0.89241 0.96715 0.68685 0.0
N324 N 0.86161 0.94691 0.68746 0.0
C325 C 0.83871 0.95699 0.67855 0.0
C326 C 0.85528 0.98608 0.67229 0.0
C327 C 0.91844 0.02077 0.67511 0.0
H328 H 0.92582 0.03607 0.68327 0.0
H329 H 0.90835 0.04129 0.66851 0.0
H330 H 0.94421 0.00684 0.67182 0.0
O331 O 0.94715 0.90273 0.69633 0.0
O332 O 0.89412 0.87079 0.69845 0.0
H333 H 0.79777 0.93942 0.66571 0.0
H334 H 0.77944 0.9494 0.68004 0.0
C335 C 0.80339 0.93683 0.67526 0.0
H336 H 0.80552 0.90669 0.67754 0.0
H337 H 0.81914 0.83596 0.69421 0.0
O338 O 0.97674 0.98659 0.69396 0.0
C339 C 0.92953 0.87166 0.69694 0.0
Co340 Co 0.79059 0.18644 0.44739 0.0
Co341 Co 0.83386 0.11004 0.44988 0.0
C342 C 0.79072 0.14067 0.46994 0.0
O343 O 0.78187 0.16904 0.46374 0.0
O344 O 0.81084 0.11437 0.46576 0.0
C345 C 0.73087 0.2386 0.45159 0.0
O346 O 0.72315 0.21584 0.46033 0.0
C347 C 0.84697 0.0292 0.45307 0.0
C348 C 0.89195 0.01869 0.44013 0.0
C349 C 0.86803 1.00085 0.44792 0.0
N350 N 0.8577 0.0622 0.44842 0.0
N351 N 0.88523 0.05579 0.44091 0.0
C352 C 0.81354 0.02462 0.46091 0.0
H353 H 0.79337 0.04789 0.45955 0.0
H354 H 0.79915 0.99753 0.45925 0.0
H355 H 0.82297 0.02516 0.4702 0.0
C356 C 0.75775 0.14668 0.42689 0.0
N357 N 0.78018 0.14791 0.43642 0.0
N358 N 0.79677 0.11521 0.43776 0.0
C359 C 0.78444 0.0917 0.4293 0.0
C360 C 0.75965 0.11092 0.422 0.0
C361 C 0.73698 0.17997 0.4222 0.0
H362 H 0.7541 0.20569 0.42336 0.0
H363 H 0.71058 0.18354 0.42724 0.0
H364 H 0.73016 0.17652 0.41276 0.0
O365 O 0.84319 0.2029 0.44601 0.0
O366 O 0.87407 0.14919 0.44812 0.0
H367 H 0.82336 0.04737 0.42577 0.0
H368 H 0.77506 0.03506 0.42282 0.0
C369 C 0.79397 0.0508 0.42876 0.0
H370 H 0.79108 0.0384 0.4376 0.0
H371 H 0.89792 0.07655 0.43581 0.0
O372 O 0.75791 0.23088 0.44472 0.0
C373 C 0.87386 0.18471 0.44663 0.0
Co374 Co 0.56503 0.04327 0.19668 0.0
Co375 Co 0.64143 0.08543 0.19959 0.0
C376 C 0.609 0.0414 0.21936 0.0
O377 O 0.58087 0.03252 0.21305 0.0
O378 O 0.63535 0.06181 0.21532 0.0
C379 C 0.51401 0.98057 0.19771 0.0
O380 O 0.54029 0.96441 0.20403 0.0
C381 C 0.7223 0.09738 0.20319 0.0
C382 C 0.73346 0.14345 0.19067 0.0
C383 C 0.75089 0.11871 0.1983 0.0
N384 N 0.68955 0.10874 0.19853 0.0
N385 N 0.69634 0.13692 0.19129 0.0
C386 C 0.72643 0.06328 0.21078 0.0
H387 H 0.70252 0.04384 0.20944 0.0
H388 H 0.75301 0.04833 0.20884 0.0
H389 H 0.72684 0.0721 0.22012 0.0
C390 C 0.60508 0.01053 0.17617 0.0
N391 N 0.60371 0.0326 0.18579 0.0
N392 N 0.63644 0.04895 0.18729 0.0
C393 C 0.6601 0.03685 0.17885 0.0
C394 C 0.64096 0.01243 0.17141 0.0
C395 C 0.57184 0.99024 0.17127 0.0
H396 H 0.5462 0.00744 0.17244 0.0
H397 H 0.568 0.96352 0.17612 0.0
H398 H 0.57555 0.98395 0.1618 0.0
O399 O 0.5497 0.09622 0.19553 0.0
O400 O 0.60355 0.12655 0.19773 0.0
H401 H 0.70451 0.076 0.17571 0.0
H402 H 0.71674 0.02793 0.17234 0.0
C403 C 0.70099 0.04634 0.17843 0.0
H404 H 0.71329 0.04264 0.18725 0.0
H405 H 0.67583 0.15021 0.18624 0.0
O406 O 0.5197 0.01313 0.19353 0.0
C407 C 0.56812 0.12671 0.19619 0.0
Co408 Co 0.70644 0.18282 0.5765 0.0
Co409 Co 0.66284 0.10667 0.57429 0.0
C410 C 0.70667 0.13822 0.55412 0.0
O411 O 0.7155 0.16683 0.56017 0.0
O412 O 0.68679 0.11202 0.55848 0.0
C413 C 0.76678 0.23434 0.57295 0.0
O414 O 0.77623 0.21016 0.56477 0.0
C415 C 0.66072 0.02577 0.57214 0.0
C416 C 0.60538 0.0104 0.57941 0.0
C417 C 0.63842 0.99531 0.57508 0.0
N418 N 0.64215 0.05735 0.57485 0.0
N419 N 0.60878 0.0481 0.579 0.0
C420 C 0.69894 0.02546 0.56667 0.0
H421 H 0.71796 0.04443 0.5716 0.0
H422 H 0.71106 0.99687 0.56618 0.0
H423 H 0.69673 0.03663 0.55761 0.0
C424 C 0.74173 0.14251 0.59646 0.0
N425 N 0.71798 0.14396 0.58726 0.0
N426 N 0.69854 0.11258 0.58676 0.0
C427 C 0.7086 0.09063 0.59592 0.0
C428 C 0.73656 0.10868 0.60227 0.0
C429 C 0.7672 0.17395 0.59996 0.0
H430 H 0.75046 0.1999 0.6012 0.0
H431 H 0.78753 0.17927 0.59278 0.0
H432 H 0.78263 0.16753 0.60818 0.0
O433 O 0.65297 0.19791 0.57805 0.0
O434 O 0.62173 0.14425 0.57605 0.0
H435 H 0.66097 0.05414 0.5974 0.0
H436 H 0.69809 0.04374 0.60765 0.0
C437 C 0.69178 0.05309 0.59859 0.0
H438 H 0.70365 0.03201 0.59251 0.0
H439 H 0.58894 0.06742 0.58196 0.0
O440 O 0.73829 0.22777 0.57936 0.0
C441 C 0.62216 0.17976 0.57756 0.0
Co442 Co 0.56748 0.95738 0.32638 0.0
Co443 Co 0.64379 0.91534 0.32352 0.0
C444 C 0.61137 0.96029 0.30381 0.0
O445 O 0.58306 0.9689 0.31006 0.0
O446 O 0.6376 0.93982 0.30789 0.0
C447 C 0.51785 0.02054 0.32556 0.0
O448 O 0.54463 0.03611 0.31931 0.0
C449 C 0.72428 0.90804 0.31982 0.0
C450 C 0.73895 0.85944 0.33092 0.0
C451 C 0.75444 0.88763 0.3241 0.0
N452 N 0.69255 0.89331 0.32416 0.0
N453 N 0.70139 0.8636 0.33054 0.0
C454 C 0.72531 0.94182 0.31199 0.0
H455 H 0.70809 0.9647 0.31581 0.0
H456 H 0.7543 0.95176 0.31036 0.0
H457 H 0.71261 0.93418 0.30343 0.0
C458 C 0.60691 0.98983 0.347 0.0
N459 N 0.60588 0.96784 0.33736 0.0
N460 N 0.63852 0.95119 0.33603 0.0
C461 C 0.66173 0.96284 0.34467 0.0
C462 C 0.64245 0.98756 0.35198 0.0
C463 C 0.57358 0.01037 0.35175 0.0
H464 H 0.54802 0.99297 0.3507 0.0
H465 H 0.56964 0.03671 0.3467 0.0
H466 H 0.57719 0.01735 0.36118 0.0
O467 O 0.55243 0.9043 0.32736 0.0
O468 O 0.60629 0.87382 0.32525 0.0
H469 H 0.70519 0.92224 0.34729 0.0
H470 H 0.71771 0.96904 0.3521 0.0
C471 C 0.70237 0.95263 0.34538 0.0
H472 H 0.71565 0.9586 0.33684 0.0
H473 H 0.68197 0.84752 0.3352 0.0
O474 O 0.52248 0.98764 0.32961 0.0
C475 C 0.57081 0.87376 0.32671 0.0
Co476 Co 0.79397 0.81701 0.07612 0.0
Co477 Co 0.83596 0.89361 0.07364 0.0
C478 C 0.79253 0.86195 0.05361 0.0
O479 O 0.78361 0.83347 0.05977 0.0
O480 O 0.81279 0.88815 0.05782 0.0
C481 C 0.73118 0.7664 0.07468 0.0
O482 O 0.71594 0.79262 0.06813 0.0
C483 C 0.84795 0.97451 0.07023 0.0
C484 C 0.89321 0.98574 0.08302 0.0
C485 C 0.86895 0.00314 0.07524 0.0
N486 N 0.85908 0.94175 0.07494 0.0
N487 N 0.88676 0.94858 0.08236 0.0
C488 C 0.81428 0.97859 0.06245 0.0
H489 H 0.79457 0.95492 0.06381 0.0
H490 H 0.79947 0.00541 0.06419 0.0
H491 H 0.82355 0.97843 0.05315 0.0
C492 C 0.76028 0.85633 0.09661 0.0
N493 N 0.78286 0.85531 0.08711 0.0
N494 N 0.7991 0.88818 0.08578 0.0
C495 C 0.7864 0.9116 0.09421 0.0
C496 C 0.76167 0.89213 0.10147 0.0
C497 C 0.7399 0.82283 0.10131 0.0
H498 H 0.75734 0.79731 0.10021 0.0
H499 H 0.71354 0.81891 0.09628 0.0
H500 H 0.733 0.8263 0.11075 0.0
O501 O 0.84688 0.80162 0.07741 0.0
O502 O 0.87706 0.85571 0.07553 0.0
H503 H 0.82495 0.95627 0.09772 0.0
H504 H 0.77656 0.96814 0.10071 0.0
C505 C 0.79555 0.95258 0.09475 0.0
H506 H 0.79252 0.96497 0.08591 0.0
H507 H 0.89978 0.92807 0.08748 0.0
O508 O 0.76349 0.77179 0.07909 0.0
C509 C 0.87731 0.8202 0.07695 0.0
Co510 Co 0.93315 0.04769 0.8265 0.0
Co511 Co 0.85694 0.08985 0.82361 0.0
C512 C 0.88985 0.04405 0.80399 0.0
O513 O 0.91816 0.03569 0.81026 0.0
O514 O 0.8636 0.06457 0.80803 0.0
C515 C 0.98429 0.98586 0.82542 0.0
O516 O 0.95805 0.97047 0.81891 0.0
C517 C 0.77603 0.09127 0.82135 0.0
C518 C 0.76068 0.14737 0.82808 0.0
C519 C 0.7456 0.11383 0.82412 0.0
N520 N 0.80757 0.11021 0.82381 0.0
N521 N 0.79833 0.144 0.82764 0.0
C522 C 0.77571 0.05251 0.81623 0.0
H523 H 0.78977 0.05319 0.80755 0.0
H524 H 0.79213 0.03325 0.8219 0.0
H525 H 0.74689 0.04158 0.81499 0.0
C526 C 0.89287 0.01355 0.84667 0.0
N527 N 0.89441 0.03673 0.83732 0.0
N528 N 0.86243 0.05498 0.83637 0.0
C529 C 0.83968 0.04411 0.84524 0.0
C530 C 0.858 0.01724 0.85193 0.0
C531 C 0.92399 0.98786 0.85028 0.0
H532 H 0.95005 0.00437 0.85156 0.0
H533 H 0.92917 0.96731 0.84315 0.0
H534 H 0.91721 0.97242 0.85847 0.0
O535 O 0.94743 0.10133 0.82743 0.0
O536 O 0.89366 0.13194 0.8252 0.0
H537 H 0.80249 0.09146 0.84605 0.0
H538 H 0.79476 0.05679 0.85734 0.0
C539 C 0.80227 0.06101 0.84797 0.0
H540 H 0.78055 0.04718 0.84253 0.0
H541 H 0.81763 0.16418 0.83039 0.0
O542 O 0.9787 0.0181 0.82987 0.0
C543 C 0.92912 0.13195 0.8267 0.0
Co544 Co 0.79796 0.68128 0.57695 0.0
Co545 Co 0.83892 0.6042 0.57391 0.0
C546 C 0.79435 0.637 0.55431 0.0
O547 O 0.78626 0.66535 0.56064 0.0
O548 O 0.81469 0.61045 0.55827 0.0
C549 C 0.73573 0.73252 0.57588 0.0
O550 O 0.72013 0.70639 0.56937 0.0
C551 C 0.84935 0.52318 0.57019 0.0
C552 C 0.89514 0.51084 0.58269 0.0
C553 C 0.87008 0.49405 0.57503 0.0
N554 N 0.86139 0.55564 0.57489 0.0
N555 N 0.88939 0.54814 0.58213 0.0
C556 C 0.81516 0.51987 0.5626 0.0
H557 H 0.79587 0.54374 0.56418 0.0
H558 H 0.80009 0.49318 0.56431 0.0
H559 H 0.82385 0.52033 0.55325 0.0
C560 C 0.76513 0.64154 0.5975 0.0
N561 N 0.78712 0.6427 0.58787 0.0
N562 N 0.80293 0.60971 0.58631 0.0
C563 C 0.79054 0.58612 0.59474 0.0
C564 C 0.7665 0.60555 0.60222 0.0
C565 C 0.74527 0.67501 0.60243 0.0
H566 H 0.76281 0.70045 0.6013 0.0
H567 H 0.71865 0.67929 0.59755 0.0
H568 H 0.73887 0.67126 0.61189 0.0
O569 O 0.85121 0.69587 0.57795 0.0
O570 O 0.88066 0.64153 0.57567 0.0
H571 H 0.82885 0.5409 0.59778 0.0
H572 H 0.78063 0.52949 0.60116 0.0
C573 C 0.79926 0.54501 0.59508 0.0
H574 H 0.79527 0.53293 0.58624 0.0
H575 H 0.90308 0.56829 0.58722 0.0
O576 O 0.76813 0.72687 0.5802 0.0
C577 C 0.8814 0.67698 0.57723 0.0
Co578 Co 0.56512 0.54153 0.82651 0.0
Co579 Co 0.64162 0.58463 0.82397 0.0
C580 C 0.61 0.54148 0.80393 0.0
O581 O 0.58159 0.53265 0.81009 0.0
O582 O 0.63638 0.56132 0.80819 0.0
C583 C 0.51446 0.48044 0.82278 0.0
O584 O 0.53899 0.47119 0.81469 0.0
C585 C 0.72224 0.59328 0.82046 0.0
C586 C 0.736 0.64203 0.83162 0.0
C587 C 0.75201 0.61434 0.82471 0.0
N588 N 0.69022 0.60724 0.82487 0.0
N589 N 0.69853 0.63697 0.83132 0.0
C590 C 0.7239 0.55989 0.81248 0.0
H591 H 0.71211 0.56802 0.80383 0.0
H592 H 0.7062 0.5369 0.81601 0.0
H593 H 0.75298 0.54988 0.81108 0.0
C594 C 0.60502 0.5085 0.84698 0.0
N595 N 0.60385 0.53084 0.83743 0.0
N596 N 0.63638 0.54785 0.83619 0.0
C597 C 0.65962 0.5361 0.84481 0.0
C598 C 0.64048 0.51102 0.85203 0.0
C599 C 0.57185 0.48734 0.85156 0.0
H600 H 0.54612 0.50452 0.85055 0.0
H601 H 0.56823 0.46129 0.84634 0.0
H602 H 0.57539 0.47984 0.86095 0.0
O603 O 0.54933 0.59444 0.82795 0.0
O604 O 0.60312 0.62527 0.82586 0.0
H605 H 0.70267 0.577 0.84768 0.0
H606 H 0.71563 0.53009 0.85223 0.0
C607 C 0.70018 0.5467 0.8456 0.0
H608 H 0.71368 0.54133 0.83704 0.0
H609 H 0.67881 0.65262 0.83599 0.0
O610 O 0.52053 0.50905 0.8292 0.0
C611 C 0.56763 0.6251 0.82738 0.0
Co612 Co 0.70724 0.31468 0.07666 0.0
Co613 Co 0.66388 0.39092 0.07457 0.0
C614 C 0.70657 0.35931 0.05423 0.0
O615 O 0.71568 0.33068 0.06024 0.0
O616 O 0.68694 0.38553 0.05868 0.0
C617 C 0.76741 0.26315 0.07293 0.0
O618 O 0.77644 0.2871 0.06463 0.0
C619 C 0.66139 0.47174 0.07251 0.0
C620 C 0.60571 0.48676 0.0796 0.0
C621 C 0.63876 0.50204 0.07534 0.0
N622 N 0.64294 0.44006 0.07517 0.0
N623 N 0.6094 0.44909 0.07923 0.0
C624 C 0.69973 0.47229 0.06712 0.0
H625 H 0.71831 0.45212 0.07173 0.0
H626 H 0.71238 0.50069 0.06716 0.0
H627 H 0.69747 0.46281 0.05787 0.0
C628 C 0.74359 0.35511 0.09644 0.0
N629 N 0.71917 0.35351 0.0874 0.0
N630 N 0.70051 0.38535 0.08678 0.0
C631 C 0.71233 0.40803 0.09555 0.0
C632 C 0.74025 0.38986 0.10183 0.0
C633 C 0.76995 0.32411 0.09964 0.0
H634 H 0.75361 0.29848 0.10176 0.0
H635 H 0.78803 0.31756 0.09198 0.0
H636 H 0.78788 0.33174 0.10724 0.0
O637 O 0.65395 0.29944 0.07837 0.0
O638 O 0.62291 0.35325 0.07654 0.0
H639 H 0.66487 0.44486 0.09704 0.0
H640 H 0.70096 0.45279 0.10785 0.0
C641 C 0.69554 0.4453 0.09854 0.0
H642 H 0.70845 0.46715 0.09294 0.0
H643 H 0.58959 0.42965 0.08213 0.0
O644 O 0.7392 0.26984 0.07944 0.0
C645 C 0.62323 0.31773 0.07801 0.0
Co646 Co 0.9343 0.45957 0.32632 0.0
Co647 Co 0.85859 0.41643 0.32398 0.0
C648 C 0.89035 0.46159 0.30399 0.0
O649 O 0.91882 0.47054 0.31009 0.0
O650 O 0.86439 0.44113 0.30825 0.0
C651 C 0.98523 0.52168 0.32497 0.0
O652 O 0.95901 0.53699 0.31843 0.0
C653 C 0.77771 0.41392 0.32197 0.0
C654 C 0.76317 0.35802 0.32903 0.0
C655 C 0.74763 0.39114 0.32492 0.0
N656 N 0.80952 0.39551 0.32447 0.0
N657 N 0.80076 0.36181 0.32849 0.0
C658 C 0.77682 0.45245 0.3167 0.0
H659 H 0.79417 0.47187 0.32204 0.0
H660 H 0.7479 0.46349 0.31582 0.0
H661 H 0.78958 0.45128 0.30783 0.0
C662 C 0.89461 0.49422 0.34651 0.0
N663 N 0.89586 0.47084 0.33721 0.0
N664 N 0.86446 0.45148 0.33668 0.0
C665 C 0.84267 0.46125 0.3459 0.0
C666 C 0.86086 0.48898 0.35233 0.0
C667 C 0.92612 0.51944 0.35012 0.0
H668 H 0.95245 0.50297 0.35068 0.0
H669 H 0.93002 0.54143 0.34333 0.0
H670 H 0.9206 0.53302 0.35872 0.0
O671 O 0.94915 0.40604 0.3275 0.0
O672 O 0.89558 0.37485 0.32558 0.0
H673 H 0.80609 0.4136 0.34714 0.0
H674 H 0.79637 0.44994 0.35775 0.0
C675 C 0.80523 0.44432 0.3486 0.0
H676 H 0.78394 0.45678 0.3427 0.0
H677 H 0.82037 0.34202 0.3313 0.0
O678 O 0.97967 0.4895 0.32946 0.0
C679 C 0.93107 0.37524 0.32698 0.0
Co680 Co 0.79423 0.31751 0.94725 0.0
Co681 Co 0.83602 0.39366 0.95065 0.0
C682 C 0.79023 0.36058 0.97 0.0
O683 O 0.78207 0.33255 0.96356 0.0
O684 O 0.81085 0.38707 0.96617 0.0
C685 C 0.73076 0.26854 0.94773 0.0
O686 O 0.71527 0.29548 0.95394 0.0
C687 C 0.84398 0.474 0.95472 0.0
C688 C 0.89211 0.48881 0.94345 0.0
C689 C 0.86431 0.50424 0.95044 0.0
N690 N 0.85833 0.44233 0.9502 0.0
N691 N 0.88779 0.45124 0.94373 0.0
C692 C 0.81057 0.47496 0.96269 0.0
H693 H 0.78709 0.45888 0.95874 0.0
H694 H 0.80151 0.50401 0.96472 0.0
H695 H 0.81814 0.46096 0.97106 0.0
C696 C 0.7624 0.35784 0.92672 0.0
N697 N 0.78421 0.35635 0.93638 0.0
N698 N 0.80062 0.38902 0.93796 0.0
C699 C 0.78889 0.41275 0.92946 0.0
C700 C 0.76443 0.39376 0.92198 0.0
C701 C 0.74216 0.32466 0.92173 0.0
H702 H 0.75945 0.29902 0.9228 0.0
H703 H 0.7155 0.32059 0.92659 0.0
H704 H 0.73582 0.3286 0.91228 0.0
O705 O 0.84721 0.30221 0.94642 0.0
O706 O 0.87753 0.35599 0.94896 0.0
H707 H 0.82887 0.45687 0.92704 0.0
H708 H 0.78173 0.46933 0.92259 0.0
C709 C 0.79865 0.45357 0.92908 0.0
H710 H 0.79302 0.46601 0.93777 0.0
H711 H 0.90353 0.43188 0.93893 0.0
O712 O 0.76382 0.27283 0.94379 0.0
C713 C 0.87768 0.32056 0.94732 0.0
Co714 Co 0.93303 0.54473 0.19715 0.0
Co715 Co 0.85696 0.58712 0.19947 0.0
C716 C 0.88844 0.54212 0.21944 0.0
O717 O 0.9171 0.53345 0.21338 0.0
O718 O 0.86247 0.56251 0.21517 0.0
C719 C 0.98356 0.48239 0.19853 0.0
O720 O 0.95685 0.46699 0.20485 0.0
C721 C 0.77621 0.58983 0.20148 0.0
C722 C 0.76173 0.6459 0.19454 0.0
C723 C 0.74618 0.61279 0.19866 0.0
N724 N 0.80802 0.60817 0.19896 0.0
N725 N 0.79932 0.64195 0.195 0.0
C726 C 0.7753 0.55124 0.20672 0.0
H727 H 0.78516 0.55296 0.21594 0.0
H728 H 0.79504 0.53258 0.20196 0.0
H729 H 0.74674 0.539 0.20672 0.0
C730 C 0.89361 0.50977 0.17689 0.0
N731 N 0.89484 0.53345 0.18613 0.0
N732 N 0.86278 0.55163 0.1869 0.0
C733 C 0.84025 0.54012 0.17805 0.0
C734 C 0.85883 0.51299 0.17154 0.0
C735 C 0.92483 0.48393 0.1735 0.0
H736 H 0.95115 0.50023 0.17251 0.0
H737 H 0.92915 0.4631 0.1806 0.0
H738 H 0.91867 0.46881 0.16521 0.0
O739 O 0.94789 0.59825 0.19607 0.0
O740 O 0.89396 0.6288 0.1979 0.0
H741 H 0.79482 0.55111 0.16597 0.0
H742 H 0.78123 0.54245 0.18089 0.0
C743 C 0.80252 0.5562 0.17528 0.0
H744 H 0.80229 0.5868 0.17697 0.0
H745 H 0.81894 0.66172 0.1922 0.0
O746 O 0.97846 0.51476 0.19412 0.0
C747 C 0.92948 0.62884 0.19659 0.0
Co748 Co 0.71143 0.6866 0.44772 0.0
Co749 Co 0.66701 0.61083 0.44982 0.0
C750 C 0.70937 0.64196 0.47023 0.0
O751 O 0.7188 0.6704 0.46417 0.0
O752 O 0.68966 0.61571 0.46581 0.0
C753 C 0.77059 0.73924 0.45206 0.0
O754 O 0.77806 0.71643 0.46081 0.0
C755 C 0.65887 0.53009 0.45261 0.0
C756 C 0.60666 0.51796 0.44286 0.0
C757 C 0.63583 0.50109 0.44892 0.0
N758 N 0.64409 0.56263 0.44889 0.0
N759 N 0.61251 0.55532 0.44325 0.0
C760 C 0.69656 0.52684 0.45832 0.0
H761 H 0.71404 0.55174 0.45625 0.0
H762 H 0.71118 0.50098 0.45539 0.0
H763 H 0.69279 0.52531 0.46798 0.0
C764 C 0.74871 0.64446 0.42838 0.0
N765 N 0.72344 0.64713 0.43716 0.0
N766 N 0.70418 0.61567 0.43779 0.0
C767 C 0.71613 0.59226 0.42925 0.0
C768 C 0.74503 0.60948 0.42308 0.0
C769 C 0.77675 0.67436 0.42556 0.0
H770 H 0.79066 0.68375 0.43376 0.0
H771 H 0.7984 0.6643 0.41932 0.0
H772 H 0.76198 0.69891 0.42174 0.0
O773 O 0.65833 0.70272 0.4458 0.0
O774 O 0.62706 0.64917 0.44776 0.0
H775 H 0.7053 0.54603 0.41735 0.0
H776 H 0.70803 0.53382 0.43268 0.0
C777 C 0.69821 0.55538 0.42637 0.0
H778 H 0.66735 0.55783 0.42702 0.0
H779 H 0.59587 0.57567 0.43922 0.0
O780 O 0.74391 0.73134 0.44505 0.0
C781 C 0.62752 0.6846 0.44621 0.0
Co782 Co 0.56784 0.45381 0.6969 0.0
Co783 Co 0.6448 0.41314 0.70029 0.0
C784 C 0.61044 0.45749 0.71974 0.0
O785 O 0.58236 0.46541 0.71331 0.0
O786 O 0.63736 0.43756 0.71586 0.0
C787 C 0.51763 0.51623 0.69784 0.0
O788 O 0.54385 0.53107 0.70448 0.0
C789 C 0.7252 0.40681 0.70446 0.0
C790 C 0.74106 0.35852 0.69337 0.0
C791 C 0.75583 0.38677 0.70034 0.0
N792 N 0.6939 0.39181 0.69989 0.0
N793 N 0.70344 0.36231 0.69352 0.0
C794 C 0.72539 0.44034 0.7124 0.0
H795 H 0.71199 0.43238 0.72082 0.0
H796 H 0.70839 0.46326 0.7085 0.0
H797 H 0.75417 0.45037 0.71431 0.0
C798 C 0.6081 0.48702 0.67658 0.0
N799 N 0.60681 0.46494 0.68619 0.0
N800 N 0.63967 0.4489 0.68775 0.0
C801 C 0.66327 0.46108 0.6793 0.0
C802 C 0.64402 0.48545 0.67186 0.0
C803 C 0.57476 0.50704 0.67164 0.0
H804 H 0.54943 0.48919 0.6725 0.0
H805 H 0.57002 0.53325 0.67669 0.0
H806 H 0.57887 0.51419 0.66224 0.0
O807 O 0.55378 0.40048 0.69579 0.0
O808 O 0.60805 0.37104 0.69834 0.0
H809 H 0.70774 0.42143 0.67694 0.0
H810 H 0.71966 0.46857 0.67232 0.0
C811 C 0.70417 0.45171 0.67888 0.0
H812 H 0.71672 0.45777 0.68753 0.0
H813 H 0.68447 0.34609 0.68873 0.0
O814 O 0.52267 0.4838 0.69346 0.0
C815 C 0.5727 0.3703 0.6966 0.0
Co816 Co 0.20298 0.32016 0.44711 0.0
Co817 Co 0.16188 0.3967 0.4506 0.0
C818 C 0.20769 0.36301 0.46989 0.0
O819 O 0.21552 0.33498 0.46341 0.0
O820 O 0.18717 0.38966 0.46611 0.0
C821 C 0.26625 0.27109 0.44747 0.0
O822 O 0.282 0.29843 0.45344 0.0
C823 C 0.15535 0.47715 0.45479 0.0
C824 C 0.10707 0.49293 0.4437 0.0
C825 C 0.13535 0.50778 0.45063 0.0
N826 N 0.14033 0.44578 0.45026 0.0
N827 N 0.11081 0.45528 0.44389 0.0
C828 C 0.18897 0.47743 0.46268 0.0
H829 H 0.21192 0.46062 0.45873 0.0
H830 H 0.19885 0.50628 0.46462 0.0
H831 H 0.18121 0.46388 0.4711 0.0
C832 C 0.23514 0.3605 0.42662 0.0
N833 N 0.2133 0.35905 0.43627 0.0
N834 N 0.19717 0.39184 0.43789 0.0
C835 C 0.20912 0.41559 0.42943 0.0
C836 C 0.23343 0.3965 0.42192 0.0
C837 C 0.25522 0.32726 0.42161 0.0
H838 H 0.23785 0.30168 0.42269 0.0
H839 H 0.28191 0.32309 0.42646 0.0
H840 H 0.26151 0.33122 0.41215 0.0
O841 O 0.1498 0.30548 0.44628 0.0
O842 O 0.11985 0.35946 0.44886 0.0
H843 H 0.16956 0.46021 0.42721 0.0
H844 H 0.21664 0.47219 0.42258 0.0
C845 C 0.19982 0.45654 0.42912 0.0
H846 H 0.20598 0.46883 0.4378 0.0
H847 H 0.09459 0.43626 0.43912 0.0
O848 O 0.23301 0.27515 0.44365 0.0
C849 C 0.11944 0.32403 0.44719 0.0
Co850 Co 0.43355 0.45632 0.19713 0.0
Co851 Co 0.35722 0.41451 0.20004 0.0
C852 C 0.39022 0.45869 0.21982 0.0
O853 O 0.41844 0.46737 0.21354 0.0
O854 O 0.36381 0.43849 0.21573 0.0
C855 C 0.48289 0.51959 0.19798 0.0
O856 O 0.45608 0.53495 0.20427 0.0
C857 C 0.27689 0.40673 0.20401 0.0
C858 C 0.26188 0.35908 0.19255 0.0
C859 C 0.24661 0.38661 0.19968 0.0
N860 N 0.30847 0.39246 0.19942 0.0
N861 N 0.29944 0.3633 0.19282 0.0
C862 C 0.27607 0.43983 0.21212 0.0
H863 H 0.28916 0.43152 0.22056 0.0
H864 H 0.29303 0.4631 0.20842 0.0
H865 H 0.24712 0.44952 0.21396 0.0
C866 C 0.39363 0.48967 0.17671 0.0
N867 N 0.39489 0.46727 0.18625 0.0
N868 N 0.36219 0.4508 0.18765 0.0
C869 C 0.33867 0.46308 0.17917 0.0
C870 C 0.35783 0.48796 0.17187 0.0
C871 C 0.42691 0.51016 0.17192 0.0
H872 H 0.45246 0.49271 0.17291 0.0
H873 H 0.43098 0.53649 0.17696 0.0
H874 H 0.42314 0.51715 0.1625 0.0
O875 O 0.44858 0.40326 0.19594 0.0
O876 O 0.39464 0.37298 0.19811 0.0
H877 H 0.29452 0.42332 0.17644 0.0
H878 H 0.28225 0.47078 0.17224 0.0
C879 C 0.29786 0.45343 0.17866 0.0
H880 H 0.2853 0.45859 0.18736 0.0
H881 H 0.31871 0.34768 0.18795 0.0
O882 O 0.47841 0.48671 0.19389 0.0
C883 C 0.43008 0.37278 0.19656 0.0
Co884 Co 0.29599 0.68467 0.94718 0.0
Co885 Co 0.33688 0.60776 0.95015 0.0
C886 C 0.29237 0.6408 0.96978 0.0
O887 O 0.28427 0.66923 0.96351 0.0
O888 O 0.31244 0.6142 0.96575 0.0
C889 C 0.23328 0.73501 0.9479 0.0
O890 O 0.21692 0.70789 0.95381 0.0
C891 C 0.34446 0.52716 0.95391 0.0
C892 C 0.39336 0.51284 0.94289 0.0
C893 C 0.36538 0.49717 0.94975 0.0
N894 N 0.3588 0.55898 0.94949 0.0
N895 N 0.38863 0.55036 0.94315 0.0
C896 C 0.31087 0.52591 0.9618 0.0
H897 H 0.28799 0.54341 0.95811 0.0
H898 H 0.30085 0.49686 0.96332 0.0
H899 H 0.31872 0.5382 0.9704 0.0
C900 C 0.26289 0.64523 0.92662 0.0
N901 N 0.28499 0.64621 0.93623 0.0
N902 N 0.30113 0.61331 0.93764 0.0
C903 C 0.28899 0.58998 0.92909 0.0
C904 C 0.26452 0.60946 0.92174 0.0
C905 C 0.24272 0.67872 0.92182 0.0
H906 H 0.26018 0.70421 0.92296 0.0
H907 H 0.21622 0.68275 0.92677 0.0
H908 H 0.23608 0.67518 0.91237 0.0
O909 O 0.34924 0.69911 0.94617 0.0
O910 O 0.37873 0.64476 0.94841 0.0
H911 H 0.3287 0.54568 0.92652 0.0
H912 H 0.28153 0.53374 0.92196 0.0
C913 C 0.29848 0.54909 0.92854 0.0
H914 H 0.2927 0.53623 0.93716 0.0
H915 H 0.40454 0.5699 0.93848 0.0
O916 O 0.26633 0.73021 0.94401 0.0
C917 C 0.37942 0.6802 0.94687 0.0
Co918 Co 0.07066 0.5435 0.69774 0.0
Co919 Co 0.14543 0.58859 0.69939 0.0
C920 C 0.11656 0.54219 0.71958 0.0
O921 O 0.08869 0.53058 0.71364 0.0
O922 O 0.14012 0.56526 0.71528 0.0
C923 C 0.01963 0.48124 0.69926 0.0
O924 O 0.0462 0.46558 0.70557 0.0
C925 C 0.2262 0.5911 0.70101 0.0
C926 C 0.24054 0.64814 0.69486 0.0
C927 C 0.25616 0.6145 0.69851 0.0
N928 N 0.19434 0.60975 0.69879 0.0
N929 N 0.20295 0.64406 0.69528 0.0
C930 C 0.22727 0.55187 0.70574 0.0
H931 H 0.203 0.53554 0.7024 0.0
H932 H 0.2538 0.53733 0.70354 0.0
H933 H 0.22491 0.55313 0.71545 0.0
C934 C 0.10922 0.5098 0.67717 0.0
N935 N 0.10802 0.53352 0.68639 0.0
N936 N 0.13962 0.55258 0.68693 0.0
C937 C 0.16178 0.54166 0.67793 0.0
C938 C 0.14347 0.51398 0.67156 0.0
C939 C 0.07859 0.48282 0.6741 0.0
H940 H 0.0519 0.49839 0.67295 0.0
H941 H 0.07479 0.46279 0.68146 0.0
H942 H 0.08502 0.46684 0.66599 0.0
O943 O 0.055 0.59718 0.69709 0.0
O944 O 0.10817 0.62952 0.69772 0.0
H945 H 0.20582 0.5542 0.66551 0.0
H946 H 0.22097 0.54529 0.68028 0.0
C947 C 0.19886 0.55876 0.67491 0.0
H948 H 0.19852 0.58929 0.67671 0.0
H949 H 0.18326 0.66423 0.69282 0.0
O950 O 0.02508 0.5135 0.69481 0.0
C951 C 0.07253 0.62838 0.69704 0.0
Co952 Co 0.20734 0.68638 0.0768 0.0
Co953 Co 0.16503 0.6097 0.07376 0.0
C954 C 0.20836 0.64271 0.05398 0.0
O955 O 0.21679 0.67087 0.06031 0.0
O956 O 0.18864 0.61593 0.05805 0.0
C957 C 0.26853 0.7371 0.07367 0.0
O958 O 0.27842 0.71279 0.06558 0.0
C959 C 0.15704 0.5292 0.06985 0.0
C960 C 0.10944 0.5143 0.08132 0.0
C961 C 0.13698 0.49891 0.07422 0.0
N962 N 0.14278 0.56088 0.07441 0.0
N963 N 0.11364 0.5519 0.08102 0.0
C964 C 0.19008 0.52831 0.06173 0.0
H965 H 0.2136 0.5447 0.06553 0.0
H966 H 0.1993 0.49929 0.05974 0.0
H967 H 0.182 0.542 0.05337 0.0
C968 C 0.24013 0.64589 0.09718 0.0
N969 N 0.21811 0.64726 0.08755 0.0
N970 N 0.20146 0.61462 0.08611 0.0
C971 C 0.21316 0.5911 0.09466 0.0
C972 C 0.2378 0.61016 0.10206 0.0
C973 C 0.26067 0.67912 0.10201 0.0
H974 H 0.24318 0.70468 0.10107 0.0
H975 H 0.28681 0.68337 0.09689 0.0
H976 H 0.2679 0.67518 0.1114 0.0
O977 O 0.15433 0.70171 0.0782 0.0
O978 O 0.12405 0.64775 0.07574 0.0
H979 H 0.17278 0.54752 0.09741 0.0
H980 H 0.21992 0.53475 0.10176 0.0
C981 C 0.20296 0.5504 0.09525 0.0
H982 H 0.2082 0.53748 0.08661 0.0
H983 H 0.09803 0.57123 0.08586 0.0
O984 O 0.23941 0.73092 0.07983 0.0
C985 C 0.12388 0.68317 0.07746 0.0
Co986 Co 0.06911 0.46079 0.82579 0.0
Co987 Co 0.1442 0.41585 0.82369 0.0
C988 C 0.11515 0.462 0.80369 0.0
O989 O 0.08751 0.4736 0.80978 0.0
O990 O 0.13885 0.43876 0.80783 0.0
C991 C 0.0172 0.52343 0.82472 0.0
O992 O 0.0429 0.54001 0.81828 0.0
C993 C 0.225 0.40338 0.82041 0.0
C994 C 0.23556 0.35712 0.8329 0.0
C995 C 0.25335 0.3819 0.82537 0.0
N996 N 0.19205 0.39207 0.82492 0.0
N997 N 0.19847 0.36377 0.83215 0.0
C998 C 0.22949 0.43764 0.81291 0.0
H999 H 0.2057 0.4572 0.81426 0.0
H1000 H 0.25615 0.45236 0.81492 0.0
H1001 H 0.22993 0.42905 0.80354 0.0
C1002 C 0.10811 0.49213 0.84675 0.0
N1003 N 0.10683 0.46993 0.83716 0.0
N1004 N 0.13919 0.45263 0.83593 0.0
C1005 C 0.16252 0.46416 0.84455 0.0
C1006 C 0.14354 0.48927 0.8518 0.0
C1007 C 0.0752 0.51375 0.8513 0.0
H1008 H 0.04914 0.49722 0.85008 0.0
H1009 H 0.07243 0.5402 0.84622 0.0
H1010 H 0.07849 0.5206 0.86074 0.0
O1011 O 0.05263 0.4076 0.82636 0.0
O1012 O 0.10589 0.37561 0.82548 0.0
H1013 H 0.20564 0.42381 0.84796 0.0
H1014 H 0.21888 0.47149 0.85152 0.0
C1015 C 0.20311 0.45361 0.84527 0.0
H1016 H 0.21619 0.45716 0.83656 0.0
H1017 H 0.17775 0.35049 0.83711 0.0
O1018 O 0.02362 0.49096 0.82889 0.0
C1019 C 0.07026 0.37652 0.82628 0.0
Co1020 Co 0.29297 0.31633 0.5763 0.0
Co1021 Co 0.33647 0.39263 0.57432 0.0
C1022 C 0.29467 0.36146 0.55383 0.0
O1023 O 0.28531 0.3329 0.55986 0.0
O1024 O 0.31431 0.38771 0.55829 0.0
C1025 C 0.23387 0.26361 0.57203 0.0
O1026 O 0.22629 0.28628 0.56325 0.0
C1027 C 0.34461 0.47347 0.57146 0.0
C1028 C 0.39476 0.48605 0.58217 0.0
C1029 C 0.36668 0.50269 0.57556 0.0
N1030 N 0.35889 0.44105 0.57547 0.0
N1031 N 0.38929 0.44865 0.58168 0.0
C1032 C 0.30797 0.47643 0.56509 0.0
H1033 H 0.29007 0.45173 0.56703 0.0
H1034 H 0.2929 0.50248 0.5676 0.0
H1035 H 0.31341 0.47727 0.5555 0.0
C1036 C 0.25643 0.35679 0.59602 0.0
N1037 N 0.28092 0.35519 0.58701 0.0
N1038 N 0.29883 0.38742 0.58621 0.0
C1039 C 0.28602 0.4106 0.5947 0.0
C1040 C 0.25868 0.39205 0.60113 0.0
C1041 C 0.23107 0.32524 0.59948 0.0
H1042 H 0.24818 0.30004 0.60151 0.0
H1043 H 0.21256 0.31811 0.59197 0.0
H1044 H 0.21357 0.33263 0.6072 0.0
O1045 O 0.34594 0.3006 0.5782 0.0
O1046 O 0.37696 0.35437 0.57644 0.0
H1047 H 0.29066 0.46021 0.60564 0.0
H1048 H 0.29209 0.46837 0.59004 0.0
C1049 C 0.30102 0.44906 0.59714 0.0
H1050 H 0.33205 0.44824 0.59739 0.0
H1051 H 0.40524 0.42847 0.58606 0.0
O1052 O 0.26069 0.27155 0.57898 0.0
C1053 C 0.37665 0.31886 0.5779 0.0
Co1054 Co 0.43371 0.54497 0.32706 0.0
Co1055 Co 0.35808 0.58761 0.32344 0.0
C1056 C 0.39143 0.54159 0.30416 0.0
O1057 O 0.41919 0.53297 0.31066 0.0
O1058 O 0.36508 0.56242 0.30797 0.0
C1059 C 0.48315 0.48159 0.32666 0.0
O1060 O 0.4566 0.46598 0.32032 0.0
C1061 C 0.27796 0.59618 0.31915 0.0
C1062 C 0.26358 0.64576 0.32986 0.0
C1063 C 0.24797 0.61753 0.32308 0.0
N1064 N 0.30968 0.61047 0.32365 0.0
N1065 N 0.30105 0.64073 0.32979 0.0
C1066 C 0.27675 0.56202 0.31148 0.0
H1067 H 0.29352 0.5391 0.31548 0.0
H1068 H 0.24769 0.55239 0.30979 0.0
H1069 H 0.28987 0.56904 0.30294 0.0
C1070 C 0.39228 0.51385 0.34754 0.0
N1071 N 0.39433 0.53536 0.33782 0.0
N1072 N 0.36199 0.55231 0.33615 0.0
C1073 C 0.33797 0.54135 0.34466 0.0
C1074 C 0.35638 0.5168 0.35224 0.0
C1075 C 0.42496 0.49309 0.35262 0.0
H1076 H 0.45087 0.51 0.35162 0.0
H1077 H 0.42878 0.46638 0.34775 0.0
H1078 H 0.42064 0.48676 0.36206 0.0
O1079 O 0.44933 0.59796 0.32793 0.0
O1080 O 0.39589 0.62871 0.32525 0.0
H1081 H 0.29479 0.58255 0.34675 0.0
H1082 H 0.28131 0.5361 0.35163 0.0
C1083 C 0.2974 0.55206 0.34498 0.0
H1084 H 0.28476 0.5459 0.33636 0.0
H1085 H 0.3205 0.65668 0.33449 0.0
O1086 O 0.47834 0.5145 0.33069 0.0
C1087 C 0.43124 0.6286 0.32698 0.0
H1088 H 0.29074 0.06526 0.12006 0.0
H1089 H 0.12929 0.06455 0.16599 0.0
H1090 H 0.18775 0.11964 0.10975 0.0
H1091 H 0.17807 0.95985 0.15466 0.0
H1092 H 0.15701 0.09551 0.14868 0.0
H1093 H 0.25787 0.03673 0.1367 0.0
C1094 C 0.2612 0.07117 0.12128 0.0
C1095 C 0.24175 0.09417 0.11335 0.0
C1096 C 0.16141 0.06574 0.15004 0.0
C1097 C 0.20464 0.06307 0.13265 0.0
C1098 C 0.14555 0.04805 0.15984 0.0
C1099 C 0.15192 0.00968 0.16186 0.0
C1100 C 0.18445 0.04503 0.14245 0.0
C1101 C 0.17339 0.98969 0.15364 0.0
C1102 C 0.24263 0.05507 0.13079 0.0
C1103 C 0.20382 0.10207 0.11565 0.0
N1104 N 0.18949 0.00771 0.14442 0.0
N1105 N 0.18642 0.08662 0.12515 0.0
H1106 H 0.11737 0.01616 0.37544 0.0
H1107 H 0.26823 0.86872 0.3993 0.0
H1108 H 0.20357 0.9695 0.35334 0.0
H1109 H 0.21933 0.95369 0.42142 0.0
H1110 H 0.23594 0.89642 0.38226 0.0
H1111 H 0.14575 0.98444 0.39247 0.0
C1112 C 0.14205 0.99888 0.3742 0.0
C1113 C 0.15823 0.99517 0.36306 0.0
C1114 C 0.23214 0.90883 0.39086 0.0
C1115 C 0.19054 0.95887 0.38231 0.0
C1116 C 0.25034 0.89297 0.40054 0.0
C1117 C 0.24616 0.90902 0.41169 0.0
C1118 C 0.20923 0.94054 0.39243 0.0
C1119 C 0.22307 0.9406 0.41292 0.0
C1120 C 0.1583 0.98101 0.38388 0.0
C1121 C 0.19037 0.97288 0.36184 0.0
N1122 N 0.20528 0.95528 0.4034 0.0
N1123 N 0.20543 0.95536 0.37135 0.0
H1124 H 0.31531 0.90213 0.6055 0.0
H1125 H 0.28532 0.98426 0.67043 0.0
H1126 H 0.20743 0.9129 0.62216 0.0
H1127 H 0.38977 0.99406 0.65163 0.0
H1128 H 0.25785 0.9523 0.6535 0.0
H1129 H 0.34494 0.92935 0.62306 0.0
C1130 C 0.298 0.90998 0.61292 0.0
C1131 C 0.25899 0.90561 0.61243 0.0
C1132 C 0.28683 0.96129 0.65306 0.0
C1133 C 0.29234 0.93662 0.63245 0.0
C1134 C 0.30246 0.97966 0.66271 0.0
C1135 C 0.33984 0.99181 0.66242 0.0
C1136 C 0.30874 0.95487 0.64301 0.0
C1137 C 0.36096 0.9847 0.65226 0.0
C1138 C 0.31481 0.92563 0.62289 0.0
C1139 C 0.23762 0.91616 0.62221 0.0
N1140 N 0.34512 0.96671 0.64294 0.0
N1141 N 0.25455 0.93125 0.63181 0.0
H1142 H 0.31432 0.95349 0.87019 0.0
H1143 H 0.30986 0.11681 0.91562 0.0
H1144 H 0.36556 0.0579 0.85969 0.0
H1145 H 0.20618 0.06509 0.90469 0.0
H1146 H 0.34122 0.08869 0.89847 0.0
H1147 H 0.28497 0.98589 0.88681 0.0
C1148 C 0.31936 0.98323 0.87137 0.0
C1149 C 0.34168 0.00323 0.86338 0.0
C1150 C 0.3116 0.08368 0.89989 0.0
C1151 C 0.30972 0.03981 0.88266 0.0
C1152 C 0.29365 0.09978 0.9096 0.0
C1153 C 0.25544 0.09284 0.91168 0.0
C1154 C 0.29135 0.05976 0.89245 0.0
C1155 C 0.2359 0.07028 0.90363 0.0
C1156 C 0.30279 0.00154 0.88087 0.0
C1157 C 0.3485 0.04143 0.86562 0.0
N1158 N 0.2542 0.05398 0.89449 0.0
N1159 N 0.33266 0.05856 0.87511 0.0
H1160 H 0.8839 0.01819 0.8745 0.0
H1161 H 0.73589 0.86843 0.89861 0.0
H1162 H 0.79763 0.97073 0.85257 0.0
H1163 H 0.78405 0.95391 0.92071 0.0
H1164 H 0.76705 0.89699 0.88151 0.0
H1165 H 0.85623 0.98616 0.89158 0.0
C1166 C 0.85933 1.0007 0.87331 0.0
C1167 C 0.84294 0.99684 0.8622 0.0
C1168 C 0.77092 0.90934 0.89012 0.0
C1169 C 0.81147 0.96015 0.88151 0.0
C1170 C 0.75338 0.89299 0.89983 0.0
C1171 C 0.75769 0.90891 0.911 0.0
C1172 C 0.79334 0.94142 0.89166 0.0
C1173 C 0.78023 0.9409 0.91219 0.0
C1174 C 0.8435 0.98265 0.88302 0.0
C1175 C 0.81097 0.97425 0.86104 0.0
N1176 N 0.79742 0.95605 0.90265 0.0
N1177 N 0.79634 0.95655 0.87058 0.0
H1178 H 0.78532 0.01623 0.67079 0.0
H1179 H 0.81088 0.09285 0.60499 0.0
H1180 H 0.88772 0.00343 0.65109 0.0
H1181 H 0.70583 0.09329 0.62363 0.0
H1182 H 0.84143 0.06529 0.62233 0.0
H1183 H 0.75725 0.04894 0.65409 0.0
C1184 C 0.80188 0.02035 0.66292 0.0
C1185 C 0.83885 0.00713 0.6623 0.0
C1186 C 0.81173 0.07153 0.62265 0.0
C1187 C 0.80707 0.04483 0.64314 0.0
C1188 C 0.79442 0.08736 0.61279 0.0
C1189 C 0.75586 0.09489 0.61292 0.0
C1190 C 0.79026 0.06345 0.6327 0.0
C1191 C 0.7356 0.08743 0.62319 0.0
C1192 C 0.78591 0.03914 0.6534 0.0
C1193 C 0.85924 0.01358 0.65196 0.0
N1194 N 0.75298 0.07199 0.63266 0.0
N1195 N 0.84306 0.03192 0.64277 0.0
H1196 H 0.68298 0.95667 0.3699 0.0
H1197 H 0.68633 0.12071 0.41502 0.0
H1198 H 0.63353 0.06119 0.35869 0.0
H1199 H 0.79011 0.06834 0.4045 0.0
H1200 H 0.65547 0.09265 0.39775 0.0
H1201 H 0.71131 0.98933 0.38665 0.0
C1202 C 0.67811 0.98649 0.37096 0.0
C1203 C 0.65663 0.00645 0.36274 0.0
C1204 C 0.68501 0.08753 0.39928 0.0
C1205 C 0.68738 0.04333 0.38214 0.0
C1206 C 0.70267 0.1036 0.40905 0.0
C1207 C 0.74075 0.09642 0.41128 0.0
C1208 C 0.70542 0.06342 0.39195 0.0
C1209 C 0.76048 0.07374 0.40332 0.0
C1210 C 0.69408 0.00494 0.38052 0.0
C1211 C 0.64997 0.04477 0.36481 0.0
N1212 N 0.74245 0.05748 0.39412 0.0
N1213 N 0.66523 0.06207 0.37435 0.0
H1214 H 0.68341 0.04387 0.15407 0.0
H1215 H 0.68828 0.88144 0.10818 0.0
H1216 H 0.6312 0.93942 0.16406 0.0
H1217 H 0.79103 0.93509 0.11907 0.0
H1218 H 0.65656 0.90876 0.1254 0.0
H1219 H 0.71256 0.01209 0.13733 0.0
C1220 C 0.67809 0.01424 0.15275 0.0
C1221 C 0.65556 0.99404 0.16062 0.0
C1222 C 0.68607 0.91432 0.12396 0.0
C1223 C 0.68739 0.95815 0.14122 0.0
C1224 C 0.70421 0.89869 0.11422 0.0
C1225 C 0.74226 0.90643 0.11211 0.0
C1226 C 0.70595 0.93855 0.13141 0.0
C1227 C 0.76145 0.92927 0.12016 0.0
C1228 C 0.69456 0.99628 0.14318 0.0
C1229 C 0.64842 0.95602 0.15821 0.0
N1230 N 0.74296 0.94506 0.12934 0.0
N1231 N 0.66424 0.9392 0.14867 0.0
H1232 H 0.79711 0.56225 0.6195 0.0
H1233 H 0.63433 0.55898 0.66519 0.0
H1234 H 0.69363 0.61625 0.6095 0.0
H1235 H 0.68649 0.45552 0.65423 0.0
H1236 H 0.6622 0.59054 0.64803 0.0
H1237 H 0.76473 0.53315 0.63614 0.0
C1238 C 0.76757 0.56798 0.6208 0.0
C1239 C 0.74781 0.59102 0.61296 0.0
C1240 C 0.66733 0.56092 0.64944 0.0
C1241 C 0.71125 0.55921 0.63223 0.0
C1242 C 0.6514 0.54288 0.65915 0.0
C1243 C 0.6586 0.50469 0.66122 0.0
C1244 C 0.69129 0.54076 0.64199 0.0
C1245 C 0.68112 0.48522 0.65316 0.0
C1246 C 0.74927 0.55153 0.6303 0.0
C1247 C 0.70989 0.59865 0.61534 0.0
N1248 N 0.69723 0.5036 0.64402 0.0
N1249 N 0.69274 0.58283 0.62482 0.0
H1250 H 0.79447 0.43671 0.90445 0.0
H1251 H 0.63267 0.43722 0.85873 0.0
H1252 H 0.69109 0.38387 0.91512 0.0
H1253 H 0.6804 0.54249 0.86999 0.0
H1254 H 0.66077 0.40666 0.87605 0.0
H1255 H 0.76141 0.46532 0.88782 0.0
C1256 C 0.76482 0.43118 0.90331 0.0
C1257 C 0.74531 0.40856 0.91133 0.0
C1258 C 0.66486 0.43646 0.87466 0.0
C1259 C 0.70803 0.43964 0.89205 0.0
C1260 C 0.64878 0.45393 0.86486 0.0
C1261 C 0.65475 0.49235 0.86282 0.0
C1262 C 0.68774 0.45744 0.88223 0.0
C1263 C 0.67605 0.51261 0.87103 0.0
C1264 C 0.74614 0.44731 0.89381 0.0
C1265 C 0.70721 0.40112 0.90915 0.0
N1266 N 0.6924 0.4948 0.88025 0.0
N1267 N 0.68973 0.41652 0.89966 0.0
H1268 H 0.78584 0.45087 0.10203 0.0
H1269 H 0.79959 0.46505 0.17131 0.0
H1270 H 0.74187 0.364 0.12442 0.0
H1271 H 0.88381 0.5136 0.14887 0.0
H1272 H 0.77308 0.43205 0.15426 0.0
H1273 H 0.81757 0.47887 0.11907 0.0
C1274 C 0.78324 0.43759 0.11055 0.0
C1275 C 0.7616 0.40506 0.11189 0.0
C1276 C 0.79755 0.44965 0.15309 0.0
C1277 C 0.79687 0.43717 0.13137 0.0
C1278 C 0.81255 0.46848 0.16278 0.0
C1279 C 0.84394 0.49171 0.16142 0.0
C1280 C 0.81359 0.45489 0.14194 0.0
C1281 C 0.85972 0.49562 0.15022 0.0
C1282 C 0.8013 0.45347 0.12023 0.0
C1283 C 0.75866 0.38895 0.12307 0.0
N1284 N 0.84413 0.47767 0.14086 0.0
N1285 N 0.77578 0.40541 0.13244 0.0
H1286 H 0.84628 0.56351 0.3551 0.0
H1287 H 0.77861 0.54095 0.42193 0.0
H1288 H 0.8454 0.45833 0.37372 0.0
H1289 H 0.76009 0.64138 0.40166 0.0
H1290 H 0.80969 0.5124 0.40499 0.0
H1291 H 0.82127 0.59481 0.37268 0.0
C1292 C 0.8409 0.54714 0.36294 0.0
C1293 C 0.84738 0.50836 0.363 0.0
C1294 C 0.79903 0.54075 0.40423 0.0
C1295 C 0.81911 0.54368 0.38308 0.0
C1296 C 0.78129 0.55702 0.4139 0.0
C1297 C 0.76664 0.59346 0.41314 0.0
C1298 C 0.80234 0.56112 0.39372 0.0
C1299 C 0.77124 0.61329 0.4026 0.0
C1300 C 0.82659 0.5649 0.37294 0.0
C1301 C 0.84024 0.48825 0.37333 0.0
N1302 N 0.78857 0.59681 0.39327 0.0
N1303 N 0.82641 0.50612 0.38295 0.0
H1304 H 0.30684 0.38618 0.41528 0.0
H1305 H 0.31454 0.54902 0.36965 0.0
H1306 H 0.2043 0.44024 0.4044 0.0
H1307 H 0.36401 0.44347 0.35944 0.0
H1308 H 0.28447 0.51757 0.38632 0.0
H1309 H 0.33876 0.41368 0.39814 0.0
C1310 C 0.291 0.40361 0.40927 0.0
C1311 C 0.25294 0.41134 0.41135 0.0
C1312 C 0.30206 0.50146 0.38042 0.0
C1313 C 0.28954 0.44372 0.39214 0.0
C1314 C 0.31904 0.51923 0.3709 0.0
C1315 C 0.34108 0.49864 0.36298 0.0
C1316 C 0.3083 0.46312 0.38231 0.0
C1317 C 0.34719 0.46038 0.36532 0.0
C1318 C 0.30927 0.41935 0.39957 0.0
C1319 C 0.2339 0.43442 0.40333 0.0
N1320 N 0.33097 0.44378 0.37482 0.0
N1321 N 0.25253 0.45034 0.39419 0.0
H1322 H 0.36782 0.56172 0.16545 0.0
H1323 H 0.20577 0.56924 0.11968 0.0
H1324 H 0.3151 0.45893 0.15411 0.0
H1325 H 0.31109 0.61854 0.10923 0.0
H1326 H 0.23734 0.53969 0.13641 0.0
H1327 H 0.34054 0.59392 0.14831 0.0
C1328 C 0.35074 0.54589 0.15934 0.0
C1329 C 0.34329 0.50767 0.16129 0.0
C1330 C 0.25338 0.55716 0.13046 0.0
C1331 C 0.31119 0.54455 0.14208 0.0
C1332 C 0.23553 0.57386 0.1209 0.0
C1333 C 0.25604 0.59561 0.11289 0.0
C1334 C 0.29171 0.5634 0.13229 0.0
C1335 C 0.29427 0.60189 0.11519 0.0
C1336 C 0.33514 0.56431 0.14964 0.0
C1337 C 0.32068 0.48863 0.15314 0.0
N1338 N 0.31097 0.5859 0.12472 0.0
N1339 N 0.30488 0.50739 0.14401 0.0
H1340 H 0.18398 0.45745 0.86956 0.0
H1341 H 0.19103 0.61974 0.91514 0.0
H1342 H 0.13557 0.56291 0.85875 0.0
H1343 H 0.29398 0.56714 0.90397 0.0
H1344 H 0.15919 0.59258 0.89791 0.0
H1345 H 0.21332 0.48928 0.88628 0.0
C1346 C 0.1795 0.48729 0.8707 0.0
C1347 C 0.15801 0.50774 0.8626 0.0
C1348 C 0.18876 0.58719 0.8993 0.0
C1349 C 0.19 0.54371 0.88197 0.0
C1350 C 0.20697 0.60273 0.90905 0.0
C1351 C 0.24511 0.59521 0.91108 0.0
C1352 C 0.20867 0.56328 0.89177 0.0
C1353 C 0.26433 0.57273 0.90294 0.0
C1354 C 0.19608 0.50528 0.88025 0.0
C1355 C 0.15194 0.5461 0.86478 0.0
N1356 N 0.24577 0.55698 0.89376 0.0
N1357 N 0.16781 0.56294 0.87431 0.0
H1358 H 0.20848 0.44944 0.60139 0.0
H1359 H 0.20534 0.46956 0.67075 0.0
H1360 H 0.26256 0.36884 0.62391 0.0
H1361 H 0.1153 0.51171 0.64925 0.0
H1362 H 0.2311 0.43683 0.65355 0.0
H1363 H 0.1777 0.47716 0.61865 0.0
C1364 C 0.21347 0.43744 0.60999 0.0
C1365 C 0.23771 0.4068 0.61132 0.0
C1366 C 0.20555 0.45298 0.65262 0.0
C1367 C 0.20357 0.43864 0.63103 0.0
C1368 C 0.19098 0.47168 0.66239 0.0
C1369 C 0.15816 0.49302 0.66135 0.0
C1370 C 0.18757 0.45641 0.64169 0.0
C1371 C 0.14055 0.4952 0.65037 0.0
C1372 C 0.19599 0.45317 0.61981 0.0
C1373 C 0.24374 0.39232 0.62259 0.0
N1374 N 0.15567 0.47739 0.64091 0.0
N1375 N 0.22709 0.40862 0.63206 0.0
H1376 H 0.23689 0.19938 0.98342 0.0
H1377 H 0.28963 0.07851 0.03996 0.0
H1378 H 0.21375 0.08063 0.98539 0.0
H1379 H 0.26664 0.19742 0.04119 0.0
H1380 H 0.27009 0.07784 0.01927 0.0
H1381 H 0.25691 0.19823 1.00392 0.0
C1382 C 0.23617 0.17298 0.98813 0.0
C1383 C 0.22343 0.14004 0.98266 0.0
C1384 C 0.26928 0.10398 0.02411 0.0
C1385 C 0.24657 0.13859 1.00616 0.0
C1386 C 0.28051 0.10444 0.03589 0.0
C1387 C 0.27975 0.13808 0.04233 0.0
C1388 C 0.2579 0.13751 0.01869 0.0
C1389 C 0.26756 0.17081 0.03661 0.0
C1390 C 0.24744 0.17242 0.99986 0.0
C1391 C 0.22308 0.10671 0.98926 0.0
N1392 N 0.2574 0.16975 0.02512 0.0
N1393 N 0.23464 0.10678 1.00066 0.0
H1394 H 0.17145 0.04233 0.2899 0.0
H1395 H 0.04948 0.98408 0.23423 0.0
H1396 H 0.0537 0.01467 0.2918 0.0
H1397 H 0.16892 0.96464 0.23544 0.0
H1398 H 0.0513 0.00399 0.25472 0.0
H1399 H 0.1719 0.02173 0.26931 0.0
C1400 C 0.14575 0.03193 0.28602 0.0
C1401 C 0.11249 0.03022 0.29261 0.0
C1402 C 0.07712 0.99531 0.25051 0.0
C1403 C 0.11278 0.0072 0.26909 0.0
C1404 C 0.07616 0.98409 0.23879 0.0
C1405 C 0.10911 0.9725 0.2331 0.0
C1406 C 0.11134 0.99556 0.25659 0.0
C1407 C 0.14283 0.97307 0.2395 0.0
C1408 C 0.14609 0.02011 0.27429 0.0
C1409 C 0.08003 0.01642 0.2871 0.0
N1410 N 0.14314 0.98462 0.2509 0.0
N1411 N 0.08094 0.00574 0.27566 0.0
H1412 H 0.23291 0.80347 0.54025 0.0
H1413 H 0.29254 0.92518 0.48473 0.0
H1414 H 0.2122 0.9228 0.53899 0.0
H1415 H 0.26628 0.807 0.48299 0.0
H1416 H 0.27052 0.92603 0.50519 0.0
H1417 H 0.25329 0.80538 0.51985 0.0
C1418 C 0.23271 0.83016 0.53569 0.0
C1419 C 0.22073 0.86304 0.54135 0.0
C1420 C 0.26951 0.90004 0.50027 0.0
C1421 C 0.24436 0.86538 0.51792 0.0
C1422 C 0.28217 0.89947 0.48862 0.0
C1423 C 0.28131 0.86595 0.48212 0.0
C1424 C 0.25659 0.86673 0.50548 0.0
C1425 C 0.26745 0.83351 0.48762 0.0
C1426 C 0.24422 0.83117 0.52401 0.0
C1427 C 0.22102 0.89676 0.53495 0.0
N1428 N 0.25595 0.83468 0.49897 0.0
N1429 N 0.23289 0.89713 0.52356 0.0
H1430 H 0.44875 0.98551 0.79162 0.0
H1431 H 0.32894 0.04163 0.73517 0.0
H1432 H 0.32979 0.96402 0.78958 0.0
H1433 H 0.44719 0.01589 0.73392 0.0
H1434 H 0.32787 0.02197 0.75586 0.0
H1435 H 0.44783 0.00627 0.77119 0.0
C1436 C 0.42236 0.98531 0.7869 0.0
C1437 C 0.38929 0.97279 0.79233 0.0
C1438 C 0.35396 0.02062 0.75101 0.0
C1439 C 0.38809 0.9968 0.76891 0.0
C1440 C 0.35463 0.03192 0.73923 0.0
C1441 C 0.3882 0.03035 0.73279 0.0
C1442 C 0.38721 0.0084 0.75641 0.0
C1443 C 0.42064 0.01743 0.73851 0.0
C1444 C 0.42192 0.997 0.77522 0.0
C1445 C 0.35597 0.97313 0.78573 0.0
N1446 N 0.41938 0.00722 0.74999 0.0
N1447 N 0.35616 0.98509 0.77437 0.0
H1448 H 0.73836 0.80335 0.98227 0.0
H1449 H 0.78969 0.92342 0.03898 0.0
H1450 H 0.71237 0.92153 0.98438 0.0
H1451 H 0.76683 0.80446 0.03996 0.0
H1452 H 0.76974 0.92458 0.01832 0.0
H1453 H 0.7581 0.80461 1.00276 0.0
C1454 C 0.73695 0.82967 0.98702 0.0
C1455 C 0.72356 0.86239 0.98158 0.0
C1456 C 0.76904 0.89834 0.02311 0.0
C1457 C 0.74639 0.86396 1.0051 0.0
C1458 C 0.78052 0.89759 0.03487 0.0
C1459 C 0.77995 0.86378 0.04122 0.0
C1460 C 0.75765 0.86491 0.01763 0.0
C1461 C 0.76764 0.83119 0.03545 0.0
C1462 C 0.74807 0.83028 0.99874 0.0
C1463 C 0.72233 0.89561 0.98823 0.0
N1464 N 0.75729 0.83253 0.02398 0.0
N1465 N 0.73379 0.89561 0.99965 0.0
H1466 H 0.94767 0.0164 0.79094 0.0
H1467 H 0.82757 0.95962 0.73476 0.0
H1468 H 0.82923 0.04085 0.78895 0.0
H1469 H 0.94579 0.9855 0.73343 0.0
H1470 H 0.82635 0.98065 0.75534 0.0
H1471 H 0.94618 0.99546 0.77057 0.0
C1472 C 0.92126 0.01723 0.78624 0.0
C1473 C 0.88852 0.03054 0.79168 0.0
C1474 C 0.85244 0.98177 0.75048 0.0
C1475 C 0.88668 0.00628 0.7683 0.0
C1476 C 0.85322 0.96967 0.73878 0.0
C1477 C 0.88684 0.97081 0.73235 0.0
C1478 C 0.88566 0.99431 0.75583 0.0
C1479 C 0.9192 0.98422 0.73799 0.0
C1480 C 0.9205 0.00542 0.77458 0.0
C1481 C 0.85516 0.03099 0.78509 0.0
N1482 N 0.91785 0.99514 0.74941 0.0
N1483 N 0.85503 0.01884 0.77374 0.0
H1484 H 0.70857 0.07696 0.53928 0.0
H1485 H 0.76455 0.19851 0.48328 0.0
H1486 H 0.73314 0.19555 0.54063 0.0
H1487 H 0.78747 0.07961 0.48479 0.0
H1488 H 0.744 0.19659 0.50367 0.0
H1489 H 0.72926 0.07606 0.51867 0.0
C1490 C 0.71825 0.10275 0.53527 0.0
C1491 C 0.71913 0.13638 0.54171 0.0
C1492 C 0.75356 0.1709 0.49956 0.0
C1493 C 0.74228 0.13556 0.5182 0.0
C1494 C 0.76516 0.17191 0.48789 0.0
C1495 C 0.77788 0.13917 0.48231 0.0
C1496 C 0.75411 0.13682 0.50572 0.0
C1497 C 0.77809 0.10556 0.48878 0.0
C1498 C 0.73015 0.10215 0.52354 0.0
C1499 C 0.73205 0.16894 0.53606 0.0
N1500 N 0.76619 0.10518 0.50015 0.0
N1501 N 0.74283 0.16774 0.52464 0.0
H1502 H 0.67241 0.96415 0.28907 0.0
H1503 H 0.55104 0.01444 0.23255 0.0
H1504 H 0.55335 0.98568 0.29033 0.0
H1505 H 0.66937 0.03954 0.23443 0.0
H1506 H 0.55246 0.99526 0.25311 0.0
H1507 H 0.67291 0.98399 0.26844 0.0
C1508 C 0.64642 0.97301 0.28503 0.0
C1509 C 0.61279 0.97319 0.29145 0.0
C1510 C 0.57811 0.00499 0.24903 0.0
C1511 C 0.61314 0.99545 0.26786 0.0
C1512 C 0.5774 0.01577 0.23727 0.0
C1513 C 0.61014 0.02873 0.23175 0.0
C1514 C 0.61191 0.00657 0.25533 0.0
C1515 C 0.64344 0.02992 0.23835 0.0
C1516 C 0.64677 0.98445 0.27328 0.0
C1517 C 0.57996 0.98518 0.28576 0.0
N1518 N 0.64353 0.01879 0.24979 0.0
N1519 N 0.58092 0.99552 0.27428 0.0
H1520 H 0.79127 0.57642 0.5393 0.0
H1521 H 0.73356 0.69976 0.48394 0.0
H1522 H 0.76611 0.69479 0.5413 0.0
H1523 H 0.71239 0.58048 0.48492 0.0
H1524 H 0.75329 0.6974 0.5044 0.0
H1525 H 0.76948 0.57625 0.51882 0.0
C1526 C 0.78118 0.60232 0.53545 0.0
C1527 C 0.78059 0.6357 0.54203 0.0
C1528 C 0.74424 0.67173 0.50017 0.0
C1529 C 0.7561 0.63569 0.51866 0.0
C1530 C 0.73311 0.67299 0.48845 0.0
C1531 C 0.72122 0.64025 0.48269 0.0
C1532 C 0.74409 0.6374 0.5062 0.0
C1533 C 0.72116 0.60642 0.48904 0.0
C1534 C 0.76864 0.60214 0.5238 0.0
C1535 C 0.76705 0.66839 0.53661 0.0
N1536 N 0.73268 0.6058 0.50046 0.0
N1537 N 0.75566 0.6676 0.52523 0.0
H1538 H 0.5515 0.4838 0.73266 0.0
H1539 H 0.67122 0.53833 0.78926 0.0
H1540 H 0.67034 0.46181 0.73494 0.0
H1541 H 0.55219 0.51645 0.79029 0.0
H1542 H 0.67222 0.51826 0.76865 0.0
H1543 H 0.55205 0.50439 0.7531 0.0
C1544 C 0.57778 0.48342 0.73743 0.0
C1545 C 0.61094 0.47088 0.73206 0.0
C1546 C 0.64596 0.51783 0.77343 0.0
C1547 C 0.61171 0.49468 0.75549 0.0
C1548 C 0.64533 0.5294 0.78517 0.0
C1549 C 0.61158 0.52909 0.79152 0.0
C1550 C 0.6125 0.5065 0.76797 0.0
C1551 C 0.57889 0.51703 0.78576 0.0
C1552 C 0.578 0.49503 0.74913 0.0
C1553 C 0.64411 0.47098 0.73873 0.0
N1554 N 0.58013 0.50647 0.77431 0.0
N1555 N 0.6437 0.48286 0.75009 0.0
H1556 H 0.76279 0.302 0.98282 0.0
H1557 H 0.70851 0.42095 0.03962 0.0
H1558 H 0.78615 0.42064 0.9852 0.0
H1559 H 0.73161 0.30202 0.0404 0.0
H1560 H 0.72831 0.42246 0.01896 0.0
H1561 H 0.7419 0.30265 1.00322 0.0
C1562 C 0.76339 0.32828 0.98761 0.0
C1563 C 0.77646 0.36132 0.98228 0.0
C1564 C 0.72905 0.39613 0.0237 0.0
C1565 C 0.75229 0.3622 1.00568 0.0
C1566 C 0.71766 0.3952 0.03546 0.0
C1567 C 0.71845 0.36131 0.04177 0.0
C1568 C 0.74059 0.36283 0.01817 0.0
C1569 C 0.73067 0.32882 0.03593 0.0
C1570 C 0.75161 0.32855 0.99928 0.0
C1571 C 0.77659 0.39448 0.98897 0.0
N1572 N 0.741 0.33035 0.02446 0.0
N1573 N 0.76454 0.39414 1.00032 0.0
H1574 H 0.94772 0.48865 0.29064 0.0
H1575 H 0.82704 0.54023 0.23416 0.0
H1576 H 0.82947 0.46303 0.28899 0.0
H1577 H 0.94544 0.51511 0.23299 0.0
H1578 H 0.82589 0.52029 0.25484 0.0
H1579 H 0.94588 0.50773 0.27012 0.0
C1580 C 0.92125 0.48718 0.28599 0.0
C1581 C 0.88868 0.47409 0.29157 0.0
C1582 C 0.85199 0.51906 0.25 0.0
C1583 C 0.88646 0.4962 0.26798 0.0
C1584 C 0.85272 0.53052 0.23823 0.0
C1585 C 0.88639 0.52937 0.23182 0.0
C1586 C 0.88529 0.50713 0.25542 0.0
C1587 C 0.91881 0.51642 0.23754 0.0
C1588 C 0.92031 0.49792 0.27423 0.0
C1589 C 0.85527 0.47277 0.28502 0.0
N1590 N 0.91749 0.50614 0.24901 0.0
N1591 N 0.85494 0.48388 0.27357 0.0
H1592 H 0.29167 0.42329 0.53932 0.0
H1593 H 0.23594 0.30443 0.48256 0.0
H1594 H 0.27053 0.30399 0.53993 0.0
H1595 H 0.21213 0.42293 0.48516 0.0
H1596 H 0.25795 0.30501 0.50284 0.0
H1597 H 0.27118 0.42487 0.51871 0.0
C1598 C 0.28286 0.39746 0.53513 0.0
C1599 C 0.28277 0.36346 0.54137 0.0
C1600 C 0.2479 0.3309 0.49897 0.0
C1601 C 0.25978 0.36507 0.51785 0.0
C1602 C 0.23545 0.33066 0.48737 0.0
C1603 C 0.22194 0.36368 0.48213 0.0
C1604 C 0.24742 0.3645 0.50541 0.0
C1605 C 0.22201 0.39678 0.48885 0.0
C1606 C 0.27105 0.39844 0.5234 0.0
C1607 C 0.27092 0.33088 0.5355 0.0
N1608 N 0.23469 0.3964 0.50014 0.0
N1609 N 0.26014 0.33247 0.52408 0.0
H1610 H 0.32919 0.4632 0.23452 0.0
H1611 H 0.44988 0.51399 0.29125 0.0
H1612 H 0.44857 0.48292 0.23342 0.0
H1613 H 0.33159 0.5387 0.28893 0.0
H1614 H 0.44905 0.49397 0.27074 0.0
H1615 H 0.3287 0.48297 0.25514 0.0
C1616 C 0.35528 0.47161 0.2386 0.0
C1617 C 0.38897 0.47135 0.23222 0.0
C1618 C 0.42328 0.50379 0.27472 0.0
C1619 C 0.38863 0.4936 0.25581 0.0
C1620 C 0.42365 0.51505 0.28646 0.0
C1621 C 0.39074 0.5282 0.29183 0.0
C1622 C 0.38966 0.50509 0.26833 0.0
C1623 C 0.35765 0.52902 0.28514 0.0
C1624 C 0.35493 0.48302 0.25035 0.0
C1625 C 0.42191 0.48279 0.23797 0.0
N1626 N 0.35789 0.51746 0.27374 0.0
N1627 N 0.42095 0.49317 0.24944 0.0
H1628 H 0.23383 0.70139 0.04078 0.0
H1629 H 0.2882 0.57989 0.98458 0.0
H1630 H 0.21196 0.58238 0.03891 0.0
H1631 H 0.26651 0.699 0.98314 0.0
H1632 H 0.26754 0.5795 1.00512 0.0
H1633 H 0.25375 0.70029 0.02028 0.0
C1634 C 0.2333 0.67496 0.03608 0.0
C1635 C 0.22105 0.64191 0.04159 0.0
C1636 C 0.26723 0.60563 1.00027 0.0
C1637 C 0.24409 0.6405 0.01809 0.0
C1638 C 0.27914 0.60593 0.98856 0.0
C1639 C 0.27914 0.63953 0.98212 0.0
C1640 C 0.25588 0.63929 1.00561 0.0
C1641 C 0.26689 0.6724 0.98774 0.0
C1642 C 0.24453 0.67442 0.02435 0.0
C1643 C 0.22093 0.60854 0.03501 0.0
N1644 N 0.25604 0.6715 0.99917 0.0
N1645 N 0.23247 0.60863 0.02361 0.0
H1646 H 0.09675 0.53058 0.79462 0.0
H1647 H 0.10041 0.47312 0.72855 0.0
H1648 H 0.14197 0.42267 0.78489 0.0
H1649 H 0.14128 0.58255 0.73848 0.0
H1650 H 0.10388 0.45351 0.74921 0.0
H1651 H 0.10121 0.55053 0.77399 0.0
C1652 C 0.10765 0.51116 0.78814 0.0
C1653 C 0.11906 0.47496 0.79143 0.0
C1654 C 0.11231 0.4817 0.74681 0.0
C1655 C 0.12333 0.49724 0.76794 0.0
C1656 C 0.11024 0.49292 0.73508 0.0
C1657 C 0.12069 0.52944 0.73185 0.0
C1658 C 0.1237 0.50757 0.75538 0.0
C1659 C 0.13323 0.55407 0.74064 0.0
C1660 C 0.11034 0.52261 0.77644 0.0
C1661 C 0.13308 0.45088 0.78271 0.0
N1662 N 0.13381 0.54289 0.75206 0.0
N1663 N 0.13427 0.46224 0.77131 0.0
H1664 H 0.26848 0.78581 0.09225 0.0
H1665 H 0.35792 0.95391 0.0568 0.0
H1666 H 0.31419 0.77031 0.05749 0.0
H1667 H 0.3601 0.95002 0.09463 0.0
H1668 H 0.33838 0.88781 0.05647 0.0
H1669 H 0.29826 0.84772 0.09311 0.0
C1670 C 0.28498 0.79535 0.08484 0.0
C1671 C 0.28879 0.77303 0.07477 0.0
C1672 C 0.34358 0.90135 0.06484 0.0
C1673 C 0.32237 0.84377 0.07563 0.0
C1674 C 0.35456 0.93895 0.06501 0.0
C1675 C 0.36035 0.95723 0.07575 0.0
C1676 C 0.33772 0.88231 0.07548 0.0
C1677 C 0.35596 0.93676 0.08618 0.0
C1678 C 0.30206 0.83055 0.08535 0.0
C1679 C 0.31061 0.78663 0.06543 0.0
N1680 N 0.34435 0.90048 0.0858 0.0
N1681 N 0.32619 0.82137 0.06602 0.0
H1682 H 0.49377 0.08666 0.31567 0.0
H1683 H 0.2825 0.05241 0.33602 0.0
H1684 H 0.4582 0.99677 0.33854 0.0
H1685 H 0.3161 0.15094 0.31677 0.0
H1686 H 0.34776 0.03321 0.3374 0.0
H1687 H 0.43025 0.11284 0.31649 0.0
C1688 C 0.47276 0.07266 0.32096 0.0
C1689 C 0.48117 0.03923 0.32693 0.0
C1690 C 0.34108 0.05906 0.33286 0.0
C1691 C 0.40866 0.06884 0.32785 0.0
C1692 C 0.30374 0.06982 0.33198 0.0
C1693 C 0.294 0.10269 0.32598 0.0
C1694 C 0.36905 0.08134 0.32769 0.0
C1695 C 0.32266 0.12504 0.3213 0.0
C1696 C 0.43653 0.0876 0.32141 0.0
C1697 C 0.45293 0.02236 0.33368 0.0
N1698 N 0.35904 0.11373 0.32213 0.0
N1699 N 0.41793 0.03717 0.33387 0.0
H1700 H 0.22964 0.21729 0.5912 0.0
H1701 H 0.15025 0.0443 0.55563 0.0
H1702 H 0.19279 0.22768 0.55523 0.0
H1703 H 0.13756 0.05242 0.59319 0.0
H1704 H 0.16997 0.11025 0.55511 0.0
H1705 H 0.20007 0.15521 0.59212 0.0
C1706 C 0.21514 0.20661 0.58353 0.0
C1707 C 0.21378 0.22754 0.57311 0.0
C1708 C 0.16247 0.0977 0.56345 0.0
C1709 C 0.18046 0.15665 0.57406 0.0
C1710 C 0.15139 0.06016 0.56374 0.0
C1711 C 0.14252 0.04313 0.57447 0.0
C1712 C 0.16538 0.11798 0.57399 0.0
C1713 C 0.14411 0.06475 0.58475 0.0
C1714 C 0.19818 0.17132 0.58408 0.0
C1715 C 0.19448 0.21249 0.56344 0.0
N1716 N 0.1559 0.101 0.58429 0.0
N1717 N 0.179 0.17773 0.5641 0.0
H1718 H 0.18283 0.84492 0.81865 0.0
H1719 H 0.0454 0.0123 0.83724 0.0
H1720 H 0.21927 0.95377 0.83061 0.0
H1721 H 0.00775 0.91834 0.81636 0.0
H1722 H 0.10818 0.98555 0.83755 0.0
H1723 H 0.11723 0.86637 0.82006 0.0
C1724 C 0.17694 0.87334 0.82149 0.0
C1725 C 0.20629 0.89802 0.8242 0.0
C1726 C 0.08618 0.97067 0.83294 0.0
C1727 C 0.13211 0.92226 0.82614 0.0
C1728 C 0.05024 0.98586 0.83279 0.0
C1729 C 0.02134 0.96775 0.82665 0.0
C1730 C 0.0934 0.93701 0.82694 0.0
C1731 C 0.0293 0.93339 0.82113 0.0
C1732 C 0.1397 0.88552 0.82231 0.0
C1733 C 0.19746 0.93426 0.82809 0.0
N1734 N 0.06471 0.91917 0.82134 0.0
N1735 N 0.16121 0.94528 0.82893 0.0
H1736 H 0.33344 0.24855 0.45695 0.0
H1737 H 0.30005 0.03504 0.43863 0.0
H1738 H 0.24194 0.21 0.43522 0.0
H1739 H 0.39945 0.0715 0.45691 0.0
H1740 H 0.27986 0.09995 0.43691 0.0
H1741 H 0.36017 0.18521 0.45646 0.0
C1742 C 0.31919 0.22692 0.45198 0.0
C1743 C 0.28518 0.23446 0.44623 0.0
C1744 C 0.3061 0.09397 0.44132 0.0
C1745 C 0.31542 0.16213 0.4457 0.0
C1746 C 0.31744 0.05683 0.4424 0.0
C1747 C 0.35086 0.048 0.44823 0.0
C1748 C 0.32838 0.12266 0.4461 0.0
C1749 C 0.37313 0.07734 0.45253 0.0
C1750 C 0.33444 0.19079 0.45172 0.0
C1751 C 0.268 0.20542 0.43989 0.0
N1752 N 0.36128 0.11351 0.4515 0.0
N1753 N 0.28314 0.17053 0.43988 0.0
H1754 H 0.04087 0.9955 0.68475 0.0
H1755 H 0.18531 0.15139 0.70756 0.0
H1756 H 0.0102 0.08127 0.70977 0.0
H1757 H 0.21688 0.05079 0.68898 0.0
H1758 H 0.11914 0.13225 0.70612 0.0
H1759 H 0.10368 0.02211 0.68369 0.0
C1760 C 0.04723 0.02013 0.68995 0.0
C1761 C 0.02037 0.0359 0.69747 0.0
C1762 C 0.14063 0.11442 0.70238 0.0
C1763 C 0.09241 0.06643 0.69634 0.0
C1764 C 0.17822 0.12531 0.70319 0.0
C1765 C 0.20641 0.10206 0.69867 0.0
C1766 C 0.13144 0.08043 0.6968 0.0
C1767 C 0.19601 0.0689 0.69291 0.0
C1768 C 0.08317 0.03526 0.68937 0.0
C1769 C 0.03017 0.06803 0.70393 0.0
N1770 N 0.15939 0.05902 0.69218 0.0
N1771 N 0.06555 0.08212 0.70328 0.0
H1772 H 0.26059 0.79674 0.93665 0.0
H1773 H 0.09383 0.93463 0.95531 0.0
H1774 H 0.16536 0.75826 0.95675 0.0
H1775 H 0.20377 0.97055 0.9443 0.0
H1776 H 0.1146 0.86881 0.95361 0.0
H1777 H 0.23444 0.85976 0.93668 0.0
C1778 C 0.234 0.80146 0.94101 0.0
C1779 C 0.21536 0.77224 0.94683 0.0
C1780 C 0.13413 0.89122 0.95164 0.0
C1781 C 0.1853 0.84461 0.94695 0.0
C1782 C 0.12235 0.92858 0.95263 0.0
C1783 C 0.14751 0.95783 0.95026 0.0
C1784 C 0.17097 0.88344 0.94798 0.0
C1785 C 0.18387 0.94881 0.94656 0.0
C1786 C 0.21914 0.83754 0.94105 0.0
C1787 C 0.1808 0.78005 0.95223 0.0
N1788 N 0.19449 0.91248 0.94554 0.0
N1789 N 0.16692 0.81564 0.95222 0.0
H1790 H 0.31181 0.84454 0.20456 0.0
H1791 H 0.45332 0.00844 0.18603 0.0
H1792 H 0.27809 0.95493 0.19324 0.0
H1793 H 0.48906 0.91345 0.20677 0.0
H1794 H 0.38988 0.98341 0.18588 0.0
H1795 H 0.37797 0.86423 0.20308 0.0
C1796 C 0.31843 0.87292 0.20185 0.0
C1797 C 0.28971 0.89853 0.19932 0.0
C1798 C 0.41159 0.96791 0.19043 0.0
C1799 C 0.36451 0.92079 0.19731 0.0
C1800 C 0.44792 0.98213 0.19049 0.0
C1801 C 0.47652 0.96324 0.19654 0.0
C1802 C 0.40362 0.93445 0.19643 0.0
C1803 C 0.46779 0.92907 0.20206 0.0
C1804 C 0.35598 0.8841 0.20099 0.0
C1805 C 0.29944 0.93471 0.1956 0.0
N1806 N 0.43199 0.91581 0.20194 0.0
N1807 N 0.33598 0.94474 0.19471 0.0
H1808 H 0.70021 0.03285 0.93816 0.0
H1809 H 0.66483 0.24463 0.95774 0.0
H1810 H 0.60127 0.06653 0.95716 0.0
H1811 H 0.75403 0.20888 0.93466 0.0
H1812 H 0.63881 0.18099 0.9571 0.0
H1813 H 0.71875 0.09822 0.93645 0.0
C1814 C 0.68257 0.05414 0.94208 0.0
C1815 C 0.64978 0.0444 0.9481 0.0
C1816 C 0.66385 0.18727 0.95209 0.0
C1817 C 0.67038 0.11958 0.94601 0.0
C1818 C 0.67868 0.22356 0.95243 0.0
C1819 C 0.71192 0.23193 0.94637 0.0
C1820 C 0.68253 0.15929 0.94566 0.0
C1821 C 0.72862 0.20362 0.9396 0.0
C1822 C 0.69295 0.09155 0.94101 0.0
C1823 C 0.62713 0.0731 0.95262 0.0
N1824 N 0.71393 0.16856 0.93952 0.0
N1825 N 0.63807 0.10957 0.95161 0.0
H1826 H 0.68551 0.8477 0.70826 0.0
H1827 H 0.54066 0.00217 0.68478 0.0
H1828 H 0.71645 0.94613 0.68851 0.0
H1829 H 0.51069 0.91835 0.71052 0.0
H1830 H 0.60324 0.9751 0.68361 0.0
H1831 H 0.6193 0.86684 0.70691 0.0
C1832 C 0.67826 0.87329 0.70365 0.0
C1833 C 0.70628 0.89599 0.69877 0.0
C1834 C 0.58294 0.96246 0.68947 0.0
C1835 C 0.6313 0.9176 0.697 0.0
C1836 C 0.54713 0.97787 0.69012 0.0
C1837 C 0.52055 0.9628 0.69787 0.0
C1838 C 0.59232 0.93175 0.69661 0.0
C1839 C 0.53045 0.93105 0.7045 0.0
C1840 C 0.64066 0.88419 0.70289 0.0
C1841 C 0.6957 0.92849 0.6927 0.0
N1842 N 0.56571 0.91672 0.70379 0.0
N1843 N 0.65908 0.93841 0.69203 0.0
H1844 H 0.86061 0.95326 0.42942 0.0
H1845 H 0.81383 0.77357 0.46869 0.0
H1846 H 0.85809 0.95633 0.46726 0.0
H1847 H 0.77314 0.78715 0.43323 0.0
H1848 H 0.84286 0.83565 0.46753 0.0
H1849 H 0.84147 0.88719 0.43001 0.0
C1850 C 0.85653 0.93979 0.43785 0.0
C1851 C 0.86053 0.96015 0.44832 0.0
C1852 C 0.82778 0.82489 0.45999 0.0
C1853 C 0.83884 0.88493 0.44905 0.0
C1854 C 0.81133 0.78942 0.46061 0.0
C1855 C 0.79079 0.77531 0.45106 0.0
C1856 C 0.82413 0.84616 0.44969 0.0
C1857 C 0.78845 0.79712 0.44082 0.0
C1858 C 0.84539 0.90227 0.43818 0.0
C1859 C 0.8548 0.94158 0.45901 0.0
N1860 N 0.80492 0.83152 0.44041 0.0
N1861 N 0.84416 0.90494 0.45911 0.0
H1862 H 0.97896 0.06475 0.21836 0.0
H1863 H 0.79832 0.11205 0.17978 0.0
H1864 H 0.9627 0.02128 0.18334 0.0
H1865 H 0.7952 0.10698 0.2176 0.0
H1866 H 0.86422 0.09248 0.18025 0.0
H1867 H 0.91683 0.09388 0.21741 0.0
C1868 C 0.96251 0.06171 0.21042 0.0
C1869 C 0.97584 0.04037 0.20094 0.0
C1870 C 0.84916 0.09595 0.18844 0.0
C1871 C 0.90511 0.07381 0.19979 0.0
C1872 C 0.81175 0.10732 0.18819 0.0
C1873 C 0.79145 0.11077 0.19867 0.0
C1874 C 0.86646 0.08867 0.19927 0.0
C1875 C 0.80994 0.10418 0.20933 0.0
C1876 C 0.92705 0.07817 0.20992 0.0
C1877 C 0.95331 0.03724 0.19088 0.0
N1878 N 0.84651 0.09339 0.20937 0.0
N1879 N 0.919 0.05382 0.19056 0.0
H1880 H 0.76025 0.79183 0.58898 0.0
H1881 H 0.60059 0.93369 0.56698 0.0
H1882 H 0.67027 0.75789 0.56591 0.0
H1883 H 0.70078 0.9668 0.58545 0.0
H1884 H 0.62096 0.86777 0.56826 0.0
H1885 H 0.73379 0.85475 0.58971 0.0
C1886 C 0.73475 0.79752 0.58412 0.0
C1887 C 0.71768 0.76961 0.57727 0.0
C1888 C 0.63847 0.88953 0.572 0.0
C1889 C 0.68724 0.8419 0.57803 0.0
C1890 C 0.62688 0.92699 0.57127 0.0
C1891 C 0.64965 0.95557 0.57581 0.0
C1892 C 0.6727 0.88084 0.57751 0.0
C1893 C 0.68305 0.94564 0.58149 0.0
C1894 C 0.71967 0.83355 0.58453 0.0
C1895 C 0.68448 0.77863 0.57125 0.0
N1896 N 0.69363 0.90916 0.58214 0.0
N1897 N 0.67045 0.81412 0.5717 0.0
H1898 H 0.78013 0.95569 0.33096 0.0
H1899 H 0.99506 0.91538 0.31725 0.0
H1900 H 0.81792 0.84698 0.31931 0.0
H1901 H 0.95532 0.00965 0.33759 0.0
H1902 H 0.93138 0.88934 0.31736 0.0
H1903 H 0.84489 0.97622 0.33254 0.0
C1904 C 0.8022 0.93626 0.3286 0.0
C1905 C 0.79381 0.89994 0.32471 0.0
C1906 C 0.93681 0.91552 0.32189 0.0
C1907 C 0.86828 0.92296 0.32673 0.0
C1908 C 0.97309 0.9304 0.32184 0.0
C1909 C 0.98044 0.96495 0.32732 0.0
C1910 C 0.90778 0.93555 0.32737 0.0
C1911 C 0.95096 0.98312 0.33316 0.0
C1912 C 0.83923 0.94785 0.32962 0.0
C1913 C 0.82346 0.87544 0.32216 0.0
N1914 N 0.91593 0.96837 0.33293 0.0
N1915 N 0.85958 0.88752 0.3231 0.0
H1916 H 0.85855 0.04716 0.05584 0.0
H1917 H 0.76858 0.21467 0.09157 0.0
H1918 H 0.86063 0.05071 0.09368 0.0
H1919 H 0.8123 0.22988 0.05655 0.0
H1920 H 0.79886 0.15299 0.09238 0.0
H1921 H 0.83847 0.11307 0.05558 0.0
C1922 C 0.85507 0.06202 0.06407 0.0
C1923 C 0.86097 0.04368 0.07479 0.0
C1924 C 0.80211 0.17005 0.08457 0.0
C1925 C 0.83772 0.11842 0.07459 0.0
C1926 C 0.78473 0.20511 0.08409 0.0
C1927 C 0.78782 0.22728 0.07396 0.0
C1928 C 0.82203 0.15683 0.07477 0.0
C1929 C 0.80924 0.21368 0.06453 0.0
C1930 C 0.84377 0.09952 0.06393 0.0
C1931 C 0.85641 0.06402 0.08523 0.0
N1932 N 0.82514 0.17909 0.0651 0.0
N1933 N 0.84451 0.10021 0.08489 0.0
H1934 H 0.68359 0.15228 0.81669 0.0
H1935 H 0.54302 0.99305 0.83965 0.0
H1936 H 0.71768 0.05101 0.83443 0.0
H1937 H 0.50766 0.08324 0.81686 0.0
H1938 H 0.60596 0.0194 0.83997 0.0
H1939 H 0.61773 0.13242 0.81857 0.0
C1940 C 0.67713 0.12584 0.82093 0.0
C1941 C 0.70595 0.10265 0.82509 0.0
C1942 C 0.58444 0.0336 0.83494 0.0
C1943 C 0.63132 0.08021 0.8275 0.0
C1944 C 0.54841 0.01859 0.83478 0.0
C1945 C 0.52012 0.03572 0.82811 0.0
C1946 C 0.59239 0.06599 0.82837 0.0
C1947 C 0.52871 0.06899 0.82206 0.0
C1948 C 0.63971 0.11456 0.82201 0.0
C1949 C 0.69634 0.06908 0.83074 0.0
N1950 N 0.56423 0.08292 0.82226 0.0
N1951 N 0.65988 0.05881 0.83174 0.0
H1952 H 0.76746 0.28333 0.59149 0.0
H1953 H 0.85814 0.45031 0.55564 0.0
H1954 H 0.81168 0.26746 0.55655 0.0
H1955 H 0.86129 0.44661 0.59347 0.0
H1956 H 0.83718 0.38464 0.55542 0.0
H1957 H 0.79766 0.3451 0.59221 0.0
C1958 C 0.78369 0.29276 0.584 0.0
C1959 C 0.78699 0.27036 0.57393 0.0
C1960 C 0.84287 0.39812 0.56376 0.0
C1961 C 0.82106 0.34091 0.57464 0.0
C1962 C 0.85468 0.43548 0.56388 0.0
C1963 C 0.86122 0.45367 0.57459 0.0
C1964 C 0.83694 0.37925 0.57443 0.0
C1965 C 0.85662 0.43338 0.58504 0.0
C1966 C 0.801 0.32788 0.58444 0.0
C1967 C 0.80848 0.28383 0.5645 0.0
N1968 N 0.84423 0.39735 0.58472 0.0
N1969 N 0.82432 0.31846 0.56502 0.0
H1970 H 0.8132 0.65741 0.8192 0.0
H1971 H 0.95757 0.49468 0.83673 0.0
H1972 H 0.78121 0.54749 0.8314 0.0
H1973 H 0.99076 0.5903 0.81587 0.0
H1974 H 0.89391 0.5191 0.8374 0.0
H1975 H 0.87958 0.63817 0.82015 0.0
C1976 C 0.82024 0.62923 0.82201 0.0
C1977 C 0.79192 0.6036 0.82492 0.0
C1978 C 0.9151 0.53487 0.83271 0.0
C1979 C 0.86705 0.58182 0.82631 0.0
C1980 C 0.95157 0.52099 0.83235 0.0
C1981 C 0.97953 0.54026 0.82612 0.0
C1982 C 0.90634 0.56837 0.82683 0.0
C1983 C 0.97002 0.5744 0.82071 0.0
C1984 C 0.85793 0.61829 0.82256 0.0
C1985 C 0.80223 0.56769 0.82874 0.0
N1986 N 0.9341 0.58732 0.82113 0.0
N1987 N 0.8389 0.55787 0.82931 0.0
H1988 H 0.66592 0.74116 0.06452 0.0
H1989 H 0.69959 0.53096 0.08638 0.0
H1990 H 0.75489 0.7073 0.08797 0.0
H1991 H 0.60194 0.56327 0.06651 0.0
H1992 H 0.71885 0.5964 0.08734 0.0
H1993 H 0.6401 0.67747 0.06555 0.0
C1994 C 0.67981 0.72049 0.06997 0.0
C1995 C 0.71285 0.72947 0.07607 0.0
C1996 C 0.69318 0.5894 0.08275 0.0
C1997 C 0.68363 0.65672 0.07723 0.0
C1998 C 0.68238 0.55197 0.08212 0.0
C1999 C 0.64974 0.5418 0.07608 0.0
C2000 C 0.67117 0.61703 0.07729 0.0
C2001 C 0.62765 0.57015 0.07109 0.0
C2002 C 0.66508 0.68416 0.07054 0.0
C2003 C 0.72959 0.70162 0.08302 0.0
N2004 N 0.63898 0.60661 0.07169 0.0
N2005 N 0.71497 0.66651 0.08333 0.0
H2006 H 0.71968 0.45332 0.33552 0.0
H2007 H 0.50741 0.41534 0.31691 0.0
H2008 H 0.68566 0.35276 0.31737 0.0
H2009 H 0.54318 0.50631 0.33933 0.0
H2010 H 0.57129 0.39002 0.31742 0.0
H2011 H 0.65428 0.47192 0.33723 0.0
C2012 C 0.69831 0.43535 0.33178 0.0
C2013 C 0.70795 0.40205 0.32599 0.0
C2014 C 0.56498 0.41531 0.32232 0.0
C2015 C 0.6328 0.42269 0.32812 0.0
C2016 C 0.52854 0.42974 0.32205 0.0
C2017 C 0.52005 0.46324 0.32798 0.0
C2018 C 0.59302 0.43464 0.32852 0.0
C2019 C 0.54848 0.48065 0.33452 0.0
C2020 C 0.66091 0.44576 0.33286 0.0
C2021 C 0.67918 0.379 0.32172 0.0
N2022 N 0.5837 0.46632 0.33453 0.0
N2023 N 0.64275 0.38995 0.32275 0.0
H2024 H 0.7957 0.53012 0.94422 0.0
H2025 H 0.83807 0.74548 0.9567 0.0
H2026 H 0.90562 0.56768 0.95475 0.0
H2027 H 0.74317 0.70543 0.93672 0.0
H2028 H 0.86365 0.68157 0.95681 0.0
H2029 H 0.77549 0.59498 0.94257 0.0
C2030 C 0.81546 0.55215 0.94635 0.0
C2031 C 0.85207 0.54367 0.94993 0.0
C2032 C 0.83743 0.68698 0.95231 0.0
C2033 C 0.82938 0.61826 0.94779 0.0
C2034 C 0.82281 0.72339 0.95224 0.0
C2035 C 0.78822 0.73073 0.94679 0.0
C2036 C 0.81708 0.65783 0.94701 0.0
C2037 C 0.76975 0.7011 0.94111 0.0
C2038 C 0.80404 0.58924 0.94527 0.0
C2039 C 0.87695 0.57329 0.95215 0.0
N2040 N 0.78423 0.66596 0.94147 0.0
N2041 N 0.86505 0.60948 0.95116 0.0
H2042 H 0.71791 0.55238 0.18725 0.0
H2043 H 0.50693 0.58541 0.20807 0.0
H2044 H 0.68458 0.64961 0.20719 0.0
H2045 H 0.5423 0.49658 0.18477 0.0
H2046 H 0.57036 0.6118 0.20724 0.0
H2047 H 0.6526 0.53336 0.18578 0.0
C2048 C 0.6967 0.56954 0.19142 0.0
C2049 C 0.70651 0.60196 0.19764 0.0
C2050 C 0.56405 0.58675 0.20223 0.0
C2051 C 0.63145 0.58083 0.19584 0.0
C2052 C 0.52788 0.5717 0.20269 0.0
C2053 C 0.51946 0.53848 0.19659 0.0
C2054 C 0.59185 0.56832 0.19567 0.0
C2055 C 0.5476 0.52197 0.18972 0.0
C2056 C 0.65934 0.55889 0.19049 0.0
C2057 C 0.67794 0.62404 0.20249 0.0
N2058 N 0.58255 0.53689 0.18953 0.0
N2059 N 0.64154 0.61284 0.20161 0.0
H2060 H 0.72577 0.28456 0.43237 0.0
H2061 H 0.65536 0.46014 0.46819 0.0
H2062 H 0.69154 0.27529 0.46862 0.0
H2063 H 0.63463 0.45056 0.43101 0.0
H2064 H 0.67377 0.39381 0.46864 0.0
H2065 H 0.69728 0.3472 0.43158 0.0
C2066 C 0.71204 0.29561 0.44012 0.0
C2067 C 0.71111 0.27484 0.45059 0.0
C2068 C 0.66481 0.40615 0.46041 0.0
C2069 C 0.67915 0.34633 0.44979 0.0
C2070 C 0.65451 0.4439 0.46015 0.0
C2071 C 0.64371 0.46058 0.44955 0.0
C2072 C 0.66504 0.38532 0.44994 0.0
C2073 C 0.64273 0.43848 0.43936 0.0
C2074 C 0.69571 0.3312 0.43965 0.0
C2075 C 0.69283 0.29034 0.46037 0.0
N2076 N 0.65384 0.40201 0.43977 0.0
N2077 N 0.67803 0.32541 0.45978 0.0
H2078 H 0.7818 0.45537 0.69409 0.0
H2079 H 0.99652 0.41315 0.70802 0.0
H2080 H 0.81906 0.34594 0.70524 0.0
H2081 H 0.95758 0.50902 0.68828 0.0
H2082 H 0.93257 0.38778 0.7078 0.0
H2083 H 0.84669 0.47599 0.69297 0.0
C2084 C 0.80377 0.43582 0.69646 0.0
C2085 C 0.7952 0.39925 0.70007 0.0
C2086 C 0.93822 0.41419 0.70344 0.0
C2087 C 0.86979 0.42234 0.69854 0.0
C2088 C 0.97466 0.42869 0.70356 0.0
C2089 C 0.98234 0.46343 0.69825 0.0
C2090 C 0.90936 0.4348 0.69807 0.0
C2091 C 0.95298 0.48228 0.69256 0.0
C2092 C 0.84087 0.44746 0.69569 0.0
C2093 C 0.82473 0.37459 0.70261 0.0
N2094 N 0.9178 0.46788 0.69271 0.0
N2095 N 0.8609 0.38669 0.70191 0.0
H2096 H 0.26445 0.7067 0.43742 0.0
H2097 H 0.09478 0.5713 0.45539 0.0
H2098 H 0.16942 0.74601 0.45746 0.0
H2099 H 0.20396 0.53344 0.44428 0.0
H2100 H 0.11698 0.6367 0.45394 0.0
H2101 H 0.23735 0.64402 0.43725 0.0
C2102 C 0.23772 0.70224 0.44172 0.0
C2103 C 0.21938 0.73159 0.44758 0.0
C2104 C 0.13603 0.61395 0.4519 0.0
C2105 C 0.18821 0.65966 0.44745 0.0
C2106 C 0.12343 0.57683 0.45273 0.0
C2107 C 0.14796 0.54714 0.45026 0.0
C2108 C 0.17307 0.62108 0.44829 0.0
C2109 C 0.18452 0.55551 0.44661 0.0
C2110 C 0.22232 0.66636 0.44165 0.0
C2111 C 0.18465 0.72411 0.45292 0.0
N2112 N 0.19595 0.59165 0.44574 0.0
N2113 N 0.17022 0.68876 0.45278 0.0
H2114 H 0.00617 0.41427 0.20742 0.0
H2115 H 0.22077 0.45512 0.19338 0.0
H2116 H 0.04547 0.50912 0.18727 0.0
H2117 H 0.18327 0.34568 0.20443 0.0
H2118 H 0.15598 0.47578 0.19214 0.0
H2119 H 0.06988 0.38828 0.20711 0.0
C2120 C 0.02805 0.42945 0.20284 0.0
C2121 C 0.02057 0.46412 0.19746 0.0
C2122 C 0.16171 0.44722 0.19486 0.0
C2123 C 0.09323 0.43478 0.19718 0.0
C2124 C 0.19876 0.43555 0.19568 0.0
C2125 C 0.20724 0.39897 0.1993 0.0
C2126 C 0.13273 0.42215 0.19767 0.0
C2127 C 0.17766 0.37432 0.20179 0.0
C2128 C 0.06434 0.41458 0.20267 0.0
C2129 C 0.04993 0.48248 0.19162 0.0
N2130 N 0.14151 0.38647 0.20104 0.0
N2131 N 0.08496 0.46776 0.19173 0.0
H2132 H 0.24272 0.29484 0.9361 0.0
H2133 H 0.40736 0.43499 0.95499 0.0
H2134 H 0.33679 0.25848 0.95712 0.0
H2135 H 0.29818 0.46956 0.94286 0.0
H2136 H 0.38716 0.36896 0.95351 0.0
H2137 H 0.26863 0.35796 0.93578 0.0
C2138 C 0.26901 0.30004 0.94058 0.0
C2139 C 0.28737 0.27141 0.94678 0.0
C2140 C 0.36766 0.39111 0.95124 0.0
C2141 C 0.31714 0.34389 0.94649 0.0
C2142 C 0.37913 0.42858 0.9521 0.0
C2143 C 0.35398 0.4575 0.94936 0.0
C2144 C 0.33117 0.38287 0.94734 0.0
C2145 C 0.31801 0.44805 0.9454 0.0
C2146 C 0.28373 0.33617 0.94043 0.0
C2147 C 0.32157 0.27981 0.95232 0.0
N2148 N 0.30768 0.41158 0.94452 0.0
N2149 N 0.3353 0.31545 0.95211 0.0
H2150 H 0.45995 0.49574 0.68345 0.0
H2151 H 0.31645 0.64842 0.70887 0.0
H2152 H 0.49207 0.57978 0.70886 0.0
H2153 H 0.286 0.55809 0.68559 0.0
H2154 H 0.38246 0.62857 0.70754 0.0
H2155 H 0.39758 0.52332 0.68254 0.0
C2156 C 0.45395 0.52019 0.68879 0.0
C2157 C 0.48114 0.53522 0.69634 0.0
C2158 C 0.36129 0.61313 0.70273 0.0
C2159 C 0.40952 0.56689 0.69541 0.0
C2160 C 0.32379 0.62443 0.7035 0.0
C2161 C 0.29596 0.60409 0.6976 0.0
C2162 C 0.37071 0.58166 0.69588 0.0
C2163 C 0.30662 0.5737 0.69057 0.0
C2164 C 0.41827 0.53593 0.68828 0.0
C2165 C 0.47187 0.56717 0.70296 0.0
N2166 N 0.34311 0.56327 0.68995 0.0
N2167 N 0.43667 0.58177 0.70242 0.0
H2168 H 0.16149 0.25714 0.06784 0.0
H2169 H 0.20584 0.47272 0.08008 0.0
H2170 H 0.25887 0.2971 0.08663 0.0
H2171 H 0.0954 0.43556 0.06997 0.0
H2172 H 0.22609 0.40776 0.08142 0.0
H2173 H 0.13641 0.3213 0.0678 0.0
C2174 C 0.17743 0.27926 0.07205 0.0
C2175 C 0.21251 0.27178 0.07716 0.0
C2176 C 0.19742 0.4136 0.07887 0.0
C2177 C 0.1842 0.34499 0.07703 0.0
C2178 C 0.18597 0.45076 0.07798 0.0
C2179 C 0.1492 0.4594 0.07461 0.0
C2180 C 0.17193 0.38466 0.07638 0.0
C2181 C 0.12419 0.42985 0.07242 0.0
C2182 C 0.16309 0.31582 0.07201 0.0
C2183 C 0.23187 0.3015 0.0825 0.0
N2184 N 0.1361 0.3936 0.07323 0.0
N2185 N 0.21761 0.33675 0.08221 0.0
H2186 H 0.48217 0.43562 0.80617 0.0
H2187 H 0.30007 0.3886 0.84409 0.0
H2188 H 0.4647 0.47935 0.8411 0.0
H2189 H 0.29841 0.39353 0.80626 0.0
H2190 H 0.366 0.40817 0.84387 0.0
H2191 H 0.42001 0.40653 0.80692 0.0
C2192 C 0.46545 0.43873 0.81406 0.0
C2193 C 0.47846 0.46013 0.82357 0.0
C2194 C 0.35125 0.40467 0.83562 0.0
C2195 C 0.40766 0.42673 0.82448 0.0
C2196 C 0.31383 0.39328 0.83573 0.0
C2197 C 0.29393 0.38979 0.82517 0.0
C2198 C 0.36897 0.41189 0.82486 0.0
C2199 C 0.31284 0.39635 0.81458 0.0
C2200 C 0.42997 0.42229 0.81444 0.0
C2201 C 0.45558 0.46333 0.83354 0.0
N2202 N 0.34941 0.40713 0.81468 0.0
N2203 N 0.42124 0.44677 0.83374 0.0
H2204 H 0.34959 0.5439 0.5561 0.0
H2205 H 0.27258 0.71803 0.59149 0.0
H2206 H 0.36449 0.55281 0.59356 0.0
H2207 H 0.30951 0.72788 0.55552 0.0
H2208 H 0.30167 0.65571 0.59247 0.0
H2209 H 0.33023 0.60996 0.55553 0.0
C2210 C 0.34897 0.55995 0.56418 0.0
C2211 C 0.35839 0.54313 0.57489 0.0
C2212 C 0.30369 0.67176 0.58442 0.0
C2213 C 0.33597 0.61809 0.57436 0.0
C2214 C 0.28701 0.70718 0.58384 0.0
C2215 C 0.28853 0.72802 0.5734 0.0
C2216 C 0.32125 0.65688 0.57441 0.0
C2217 C 0.30772 0.71276 0.56375 0.0
C2218 C 0.33812 0.59754 0.56385 0.0
C2219 C 0.3575 0.56498 0.58513 0.0
N2220 N 0.3229 0.67788 0.56444 0.0
N2221 N 0.3459 0.60129 0.58465 0.0
H2222 H 0.04553 0.49602 0.33731 0.0
H2223 H 0.18592 0.65939 0.31758 0.0
H2224 H 0.00964 0.58812 0.31535 0.0
H2225 H 0.22015 0.55062 0.33021 0.0
H2226 H 0.11988 0.63929 0.31907 0.0
H2227 H 0.10857 0.52204 0.33756 0.0
C2228 C 0.05081 0.5219 0.3326 0.0
C2229 C 0.02235 0.53966 0.32617 0.0
C2230 C 0.14197 0.61988 0.32145 0.0
C2231 C 0.09472 0.56957 0.32638 0.0
C2232 C 0.17945 0.63127 0.32058 0.0
C2233 C 0.20829 0.6062 0.32347 0.0
C2234 C 0.13367 0.58355 0.32551 0.0
C2235 C 0.19875 0.5704 0.32757 0.0
C2236 C 0.0869 0.53669 0.33271 0.0
C2237 C 0.03085 0.57336 0.32034 0.0
N2238 N 0.1623 0.56015 0.32845 0.0
N2239 N 0.06643 0.58716 0.32052 0.0
H2240 H 0.61237 0.24161 0.07959 0.0
H2241 H 0.38824 0.25626 0.08024 0.0
H2242 H 0.55173 0.34647 0.07844 0.0
H2243 H 0.44815 0.15116 0.07803 0.0
H2244 H 0.44797 0.28949 0.08087 0.0
H2245 H 0.55274 0.20798 0.0803 0.0
C2246 C 0.58656 0.25764 0.07954 0.0
C2247 C 0.58719 0.29703 0.07892 0.0
C2248 C 0.4481 0.25916 0.08027 0.0
C2249 C 0.51864 0.25849 0.07972 0.0
C2250 C 0.41393 0.24008 0.07993 0.0
C2251 C 0.41304 0.20075 0.07905 0.0
C2252 C 0.48182 0.23888 0.07975 0.0
C2253 C 0.44739 0.18146 0.07868 0.0
C2254 C 0.55248 0.23834 0.07992 0.0
C2255 C 0.55273 0.31614 0.07888 0.0
N2256 N 0.48035 0.20071 0.07902 0.0
N2257 N 0.51992 0.2967 0.07925 0.0
H2258 H 0.00712 0.36497 0.3286 0.0
H2259 H 0.99485 0.14059 0.32949 0.0
H2260 H 0.90287 0.30342 0.32713 0.0
H2261 H 0.09913 0.20192 0.32748 0.0
H2262 H 0.96082 0.19997 0.32983 0.0
H2263 H 0.04119 0.30564 0.32937 0.0
C2264 C 0.99132 0.33901 0.32847 0.0
C2265 C 0.95197 0.3393 0.32777 0.0
C2266 C 0.99114 0.20047 0.32933 0.0
C2267 C 0.99103 0.27107 0.32865 0.0
C2268 C 0.01067 0.16652 0.32916 0.0
C2269 C 0.05001 0.16614 0.32842 0.0
C2270 C 0.011 0.23445 0.3288 0.0
C2271 C 0.06884 0.20075 0.32803 0.0
C2272 C 0.01087 0.30509 0.3289 0.0
C2273 C 0.93316 0.30466 0.32764 0.0
N2274 N 0.04917 0.23346 0.32821 0.0
N2275 N 0.95285 0.27199 0.32806 0.0
H2276 H 0.05403 0.84789 0.5779 0.0
H2277 H 0.95262 0.64712 0.57686 0.0
H2278 H 0.11418 0.74273 0.57871 0.0
H2279 H 0.89351 0.75264 0.57921 0.0
H2280 H 0.01212 0.68135 0.57753 0.0
H2281 H 0.99499 0.81323 0.5784 0.0
C2282 C 0.05489 0.81752 0.57822 0.0
C2283 C 0.08925 0.79827 0.57823 0.0
C2284 C 0.9861 0.69697 0.57793 0.0
C2285 C 0.0215 0.75828 0.57877 0.0
C2286 C 0.95209 0.67744 0.57754 0.0
C2287 C 0.91789 0.69696 0.57795 0.0
C2288 C 0.98599 0.73636 0.57869 0.0
C2289 C 0.91907 0.7363 0.57886 0.0
C2290 C 0.02109 0.79771 0.57851 0.0
C2291 C 0.08844 0.75883 0.57868 0.0
N2292 N 0.95248 0.75463 0.57916 0.0
N2293 N 0.05516 0.74018 0.57888 0.0
H2294 H 0.5049 0.86002 0.8294 0.0
H2295 H 0.49161 0.63574 0.82893 0.0
H2296 H 0.40033 0.79941 0.82679 0.0
H2297 H 0.59611 0.69684 0.82749 0.0
H2298 H 0.45773 0.69522 0.82943 0.0
H2299 H 0.5385 0.80047 0.82997 0.0
C2300 C 0.48891 0.83421 0.82898 0.0
C2301 C 0.44961 0.83486 0.82802 0.0
C2302 C 0.48806 0.69563 0.82903 0.0
C2303 C 0.48819 0.76629 0.82867 0.0
C2304 C 0.50751 0.66163 0.82876 0.0
C2305 C 0.54689 0.66116 0.82814 0.0
C2306 C 0.50802 0.72958 0.8287 0.0
C2307 C 0.56581 0.69573 0.82794 0.0
C2308 C 0.50821 0.80015 0.82929 0.0
C2309 C 0.43059 0.80037 0.82751 0.0
N2310 N 0.54621 0.72848 0.82821 0.0
N2311 N 0.45006 0.76752 0.82783 0.0
H2312 H 0.55639 0.65543 0.44549 0.0
H2313 H 0.45418 0.85561 0.44714 0.0
H2314 H 0.61617 0.76084 0.44505 0.0
H2315 H 0.3955 0.7498 0.44497 0.0
H2316 H 0.5138 0.82174 0.44623 0.0
H2317 H 0.49725 0.68982 0.44507 0.0
C2318 C 0.55715 0.68582 0.44526 0.0
C2319 C 0.59144 0.70521 0.44534 0.0
C2320 C 0.48785 0.80597 0.44591 0.0
C2321 C 0.52353 0.7449 0.44492 0.0
C2322 C 0.45376 0.8253 0.44645 0.0
C2323 C 0.41965 0.80558 0.44616 0.0
C2324 C 0.48792 0.7666 0.44513 0.0
C2325 C 0.42099 0.76627 0.44523 0.0
C2326 C 0.52329 0.70547 0.44502 0.0
C2327 C 0.59049 0.74464 0.445 0.0
N2328 N 0.45449 0.74814 0.44479 0.0
N2329 N 0.55712 0.76316 0.44486 0.0
H2330 H 0.40136 0.19873 0.6959 0.0
H2331 H 0.6024 0.29898 0.69737 0.0
H2332 H 0.50597 0.13763 0.69574 0.0
H2333 H 0.4973 0.35836 0.69411 0.0
H2334 H 0.56801 0.23952 0.69675 0.0
H2335 H 0.43644 0.25745 0.69521 0.0
C2336 C 0.43171 0.1976 0.69568 0.0
C2337 C 0.45068 0.16308 0.6959 0.0
C2338 C 0.55254 0.26559 0.69613 0.0
C2339 C 0.49116 0.23047 0.69516 0.0
C2340 C 0.57216 0.29957 0.69649 0.0
C2341 C 0.55277 0.33383 0.69582 0.0
C2342 C 0.51324 0.26584 0.69514 0.0
C2343 C 0.51354 0.33275 0.69467 0.0
C2344 C 0.45176 0.23121 0.69528 0.0
C2345 C 0.4901 0.16352 0.69558 0.0
N2346 N 0.49514 0.29939 0.69441 0.0
N2347 N 0.50901 0.19666 0.69527 0.0
H2348 H 0.88831 0.24463 0.94551 0.0
H2349 H 0.1124 0.25699 0.94584 0.0
H2350 H 0.94946 0.34901 0.94784 0.0
H2351 H 0.05113 0.15262 0.94783 0.0
H2352 H 0.0531 0.29103 0.94532 0.0
H2353 H 0.94763 0.21065 0.94511 0.0
C2354 C 0.91419 0.2605 0.9459 0.0
C2355 C 0.91377 0.29986 0.94674 0.0
C2356 C 0.05259 0.26069 0.94586 0.0
C2357 C 0.98205 0.26084 0.94628 0.0
C2358 C 0.0865 0.24114 0.94613 0.0
C2359 C 0.08687 0.20177 0.9469 0.0
C2360 C 0.01863 0.24083 0.94631 0.0
C2361 C 0.05229 0.18293 0.94726 0.0
C2362 C 0.94811 0.24098 0.94569 0.0
C2363 C 0.94833 0.31871 0.94722 0.0
N2364 N 0.01961 0.20263 0.94696 0.0
N2365 N 0.98103 0.29903 0.94698 0.0
H2366 H 0.00548 0.64008 0.19526 0.0
H2367 H 0.99031 0.86435 0.19508 0.0
H2368 H 0.90044 0.70031 0.19647 0.0
H2369 H 0.09535 0.80443 0.19735 0.0
H2370 H 0.95715 0.80452 0.19436 0.0
H2371 H 0.03886 0.69988 0.19481 0.0
C2372 C 0.98936 0.66585 0.19539 0.0
C2373 C 0.94999 0.66504 0.19594 0.0
C2374 C 0.98745 0.80442 0.19499 0.0
C2375 C 0.98825 0.7338 0.19543 0.0
C2376 C 0.00648 0.83864 0.19539 0.0
C2377 C 0.04578 0.83955 0.19632 0.0
C2378 C 0.00775 0.7707 0.19549 0.0
C2379 C 0.06507 0.80519 0.19667 0.0
C2380 C 0.00851 0.70003 0.19515 0.0
C2381 C 0.93076 0.69946 0.19609 0.0
N2382 N 0.04587 0.7722 0.19627 0.0
N2383 N 0.95007 0.73238 0.19584 0.0
H2384 H 0.45053 0.65023 0.9471 0.0
H2385 H 0.55231 0.85073 0.94639 0.0
H2386 H 0.39152 0.75589 0.94505 0.0
H2387 H 0.61204 0.74536 0.94502 0.0
H2388 H 0.49312 0.81627 0.94599 0.0
H2389 H 0.51003 0.68438 0.94644 0.0
C2390 C 0.45003 0.68056 0.94648 0.0
C2391 C 0.41587 0.70016 0.94615 0.0
C2392 C 0.51918 0.80068 0.94574 0.0
C2393 C 0.48395 0.73944 0.94543 0.0
C2394 C 0.55303 0.82036 0.94598 0.0
C2395 C 0.58731 0.80097 0.94576 0.0
C2396 C 0.51947 0.76126 0.94535 0.0
C2397 C 0.58637 0.76156 0.9452 0.0
C2398 C 0.48404 0.70005 0.9461 0.0
C2399 C 0.41706 0.73951 0.94533 0.0
N2400 N 0.55303 0.74304 0.94506 0.0
N2401 N 0.45048 0.7578 0.94504 0.0
H2402 H 0.99611 0.63755 0.69643 0.0
H2403 H 0.00558 0.86216 0.69482 0.0
H2404 H 0.09963 0.70048 0.69617 0.0
H2405 H 0.9022 0.79957 0.69744 0.0
H2406 H 0.04029 0.80314 0.6943 0.0
H2407 H 0.96118 0.69646 0.69583 0.0
C2408 C 0.01156 0.66371 0.69622 0.0
C2409 C 0.05096 0.66395 0.69639 0.0
C2410 C 0.01001 0.8023 0.69497 0.0
C2411 C 0.01097 0.73168 0.6957 0.0
C2412 C 0.99011 0.83604 0.69525 0.0
C2413 C 0.95082 0.83594 0.69621 0.0
C2414 C 0.99058 0.76807 0.69564 0.0
C2415 C 0.93243 0.8011 0.69672 0.0
C2416 C 0.99154 0.69739 0.69589 0.0
C2417 C 0.06932 0.69883 0.69609 0.0
N2418 N 0.95246 0.76862 0.69645 0.0
N2419 N 0.04918 0.73123 0.69577 0.0
H2420 H 0.88428 0.26087 0.44521 0.0
H2421 H 0.10845 0.24825 0.4451 0.0
H2422 H 0.94568 0.15649 0.44663 0.0
H2423 H 0.04768 0.35276 0.44773 0.0
H2424 H 0.04905 0.21452 0.44443 0.0
H2425 H 0.94362 0.29501 0.44488 0.0
C2426 C 0.91021 0.24504 0.44541 0.0
C2427 C 0.90985 0.20562 0.44598 0.0
C2428 C 0.04865 0.24482 0.44514 0.0
C2429 C 0.97811 0.24479 0.44562 0.0
C2430 C 0.08263 0.26421 0.44551 0.0
C2431 C 0.08321 0.30353 0.4465 0.0
C2432 C 0.01476 0.26476 0.44574 0.0
C2433 C 0.04869 0.32249 0.44699 0.0
C2434 C 0.94413 0.26464 0.44525 0.0
C2435 C 0.94447 0.18682 0.44622 0.0
N2436 N 0.0159 0.30293 0.44661 0.0
N2437 N 0.97713 0.20656 0.44605 0.0
H2438 H 0.49225 0.13762 0.19444 0.0
H2439 H 0.5059 0.36184 0.1947 0.0
H2440 H 0.59689 0.19836 0.1964 0.0
H2441 H 0.40124 0.30113 0.19667 0.0
H2442 H 0.53952 0.30229 0.19404 0.0
H2443 H 0.45857 0.19718 0.19397 0.0
C2444 C 0.50823 0.16346 0.19473 0.0
C2445 C 0.54757 0.16287 0.19549 0.0
C2446 C 0.50921 0.30197 0.1946 0.0
C2447 C 0.50893 0.23137 0.19496 0.0
C2448 C 0.4899 0.33601 0.19496 0.0
C2449 C 0.45057 0.33661 0.19578 0.0
C2450 C 0.48916 0.2681 0.19502 0.0
C2451 C 0.43152 0.30212 0.19607 0.0
C2452 C 0.48889 0.19751 0.19448 0.0
C2453 C 0.5666 0.19737 0.19584 0.0
N2454 N 0.451 0.2693 0.19571 0.0
N2455 N 0.5471 0.23018 0.19558 0.0
H2456 H 0.61164 0.25585 0.5794 0.0
H2457 H 0.38732 0.24281 0.5797 0.0
H2458 H 0.55046 0.15137 0.57774 0.0
H2459 H 0.44831 0.34741 0.57816 0.0
H2460 H 0.44679 0.20897 0.58029 0.0
H2461 H 0.5522 0.28975 0.58022 0.0
C2462 C 0.58575 0.23996 0.57925 0.0
C2463 C 0.58619 0.20059 0.57846 0.0
C2464 C 0.44719 0.23933 0.57985 0.0
C2465 C 0.51781 0.23945 0.57939 0.0
C2466 C 0.41318 0.25874 0.57954 0.0
C2467 C 0.41267 0.29812 0.57884 0.0
C2468 C 0.48111 0.25932 0.57949 0.0
C2469 C 0.44722 0.31709 0.57866 0.0
C2470 C 0.55177 0.25941 0.5797 0.0
C2471 C 0.55161 0.18167 0.5783 0.0
N2472 N 0.47998 0.29753 0.57896 0.0
N2473 N 0.51889 0.20127 0.57875 0.0
H2474 H 0.49491 0.86322 0.32833 0.0
H2475 H 0.50715 0.63897 0.32894 0.0
H2476 H 0.5993 0.80196 0.32664 0.0
H2477 H 0.40304 0.70041 0.32643 0.0
H2478 H 0.54125 0.6983 0.32938 0.0
H2479 H 0.46096 0.80388 0.32891 0.0
C2480 C 0.51078 0.8373 0.32811 0.0
C2481 C 0.55013 0.83769 0.3274 0.0
C2482 C 0.51095 0.69883 0.32875 0.0
C2483 C 0.51117 0.7694 0.32807 0.0
C2484 C 0.49138 0.66491 0.32852 0.0
C2485 C 0.45206 0.66459 0.32762 0.0
C2486 C 0.49117 0.73282 0.32812 0.0
C2487 C 0.4333 0.69921 0.3271 0.0
C2488 C 0.49129 0.80338 0.32843 0.0
C2489 C 0.56901 0.8031 0.32715 0.0
N2490 N 0.45302 0.73188 0.32735 0.0
N2491 N 0.54935 0.77038 0.32748 0.0
H2492 H 0.11259 0.75901 0.07954 0.0
H2493 H 0.88855 0.74428 0.07857 0.0
H2494 H 0.05242 0.6541 0.07707 0.0
H2495 H 0.94876 0.84937 0.07721 0.0
H2496 H 0.94821 0.7109 0.07932 0.0
H2497 H 0.05289 0.79241 0.08002 0.0
C2498 C 0.08685 0.74291 0.07914 0.0
C2499 C 0.08765 0.70357 0.07823 0.0
C2500 C 0.9484 0.74125 0.07888 0.0
C2501 C 0.01897 0.7419 0.07876 0.0
C2502 C 0.91429 0.76042 0.07846 0.0
C2503 C 0.91352 0.7998 0.07779 0.0
C2504 C 0.98217 0.7615 0.07865 0.0
C2505 C 0.94791 0.81904 0.07769 0.0
C2506 C 0.05272 0.76209 0.07939 0.0
C2507 C 0.05326 0.68439 0.07775 0.0
N2508 N 0.98079 0.7997 0.07811 0.0
N2509 N 0.02037 0.70373 0.078 0.0
H2510 H 0.99385 0.36698 0.82686 0.0
H2511 H 0.00489 0.14253 0.82896 0.0
H2512 H 0.09765 0.30453 0.82719 0.0
H2513 H 0.90088 0.20384 0.82582 0.0
H2514 H 0.03893 0.20182 0.82935 0.0
H2515 H 0.95917 0.30787 0.82747 0.0
C2516 C 0.00941 0.34088 0.82709 0.0
C2517 C 0.04883 0.34084 0.82694 0.0
C2518 C 0.00866 0.20237 0.82859 0.0
C2519 C 0.00911 0.27291 0.82765 0.0
C2520 C 0.98911 0.16844 0.82839 0.0
C2521 C 0.94985 0.16805 0.82732 0.0
C2522 C 0.98894 0.23636 0.82776 0.0
C2523 C 0.93111 0.20268 0.82663 0.0
C2524 C 0.98952 0.3071 0.82743 0.0
C2525 C 0.06733 0.30604 0.82726 0.0
N2526 N 0.95082 0.2354 0.82684 0.0
N2527 N 0.04733 0.27356 0.82759 0.0
loop_
_geom_bond_atom_site_label_1
_geom_bond_atom_site_label_2
_geom_bond_distance
_geom_bond_site_symmetry_2
_ccdc_geom_bond_type
Co0 O3 1.970 . S
Co0 N17 1.989 . S
Co0 O25 1.967 . S
Co0 O32 1.920 . S
Co1 O4 1.966 . S
Co1 N10 2.022 . S
Co1 N18 1.993 . S
Co1 O26 1.941 . S
C2 O3 1.258 . S
C2 O4 1.263 . S
O3 Co0 1.970 . S
O3 C2 1.258 . S
O4 Co1 1.966 . S
O4 C2 1.263 . S
C5 O6 1.235 . S
C5 O32 1.289 . S
O6 C5 1.235 . S
C7 C9 1.400 . S
C7 N10 1.351 . S
C7 C12 1.501 . S
C8 C9 1.387 . S
C8 N11 1.341 . S
C9 C7 1.400 . S
C9 C8 1.387 . S
N10 Co1 2.022 . S
N10 C7 1.351 . S
N10 N11 1.365 . S
N11 C8 1.341 . S
N11 N10 1.365 . S
N11 H31 0.862 . S
C12 C7 1.501 . S
C12 H13 0.961 . S
C12 H14 0.961 . S
C12 H15 0.960 . S
H13 C12 0.961 . S
H14 C12 0.961 . S
H15 C12 0.960 . S
C16 N17 1.342 . S
C16 C20 1.401 . S
C16 C21 1.499 . S
N17 Co0 1.989 . S
N17 C16 1.342 . S
N17 N18 1.388 . S
N18 Co1 1.993 . S
N18 N17 1.388 . S
N18 C19 1.346 . S
C19 N18 1.346 . S
C19 C20 1.396 . S
C19 C29 1.510 . S
C20 C16 1.401 . S
C20 C19 1.396 . S
C21 C16 1.499 . S
C21 H22 0.959 . S
C21 H23 0.960 . S
C21 H24 0.961 . S
H22 C21 0.959 . S
H23 C21 0.960 . S
H24 C21 0.961 . S
O25 Co0 1.967 . S
O25 C33 1.258 . S
O26 Co1 1.941 . S
O26 C33 1.266 . S
H27 C29 0.959 . S
H28 C29 0.961 . S
C29 C19 1.510 . S
C29 H27 0.959 . S
C29 H28 0.961 . S
C29 H30 0.960 . S
H30 C29 0.960 . S
H31 N11 0.862 . S
O32 Co0 1.920 . S
O32 C5 1.289 . S
C33 O25 1.258 . S
C33 O26 1.266 . S
Co34 O37 1.970 . S
Co34 N51 1.989 1_545 S
Co34 O59 1.967 . S
Co34 O66 1.920 1_455 S
Co35 O38 1.966 . S
Co35 N44 2.022 . S
Co35 N52 1.993 . S
Co35 O60 1.941 . S
C36 O37 1.258 . S
C36 O38 1.263 . S
O37 Co34 1.970 . S
O37 C36 1.258 . S
O38 Co35 1.966 . S
O38 C36 1.263 . S
C39 O40 1.235 . S
C39 O66 1.289 1_565 S
O40 C39 1.235 . S
C41 C43 1.400 . S
C41 N44 1.351 . S
C41 C46 1.501 . S
C42 C43 1.387 . S
C42 N45 1.341 . S
C43 C41 1.400 . S
C43 C42 1.387 . S
N44 Co35 2.022 . S
N44 C41 1.351 . S
N44 N45 1.365 . S
N45 C42 1.341 . S
N45 N44 1.365 . S
N45 H65 0.862 . S
C46 C41 1.501 . S
C46 H47 0.961 . S
C46 H48 0.961 1_545 S
C46 H49 0.960 . S
H47 C46 0.961 . S
H48 C46 0.961 1_565 S
H49 C46 0.960 . S
C50 N51 1.342 . S
C50 C54 1.401 . S
C50 C55 1.499 . S
N51 Co34 1.989 1_565 S
N51 C50 1.342 . S
N51 N52 1.388 1_565 S
N52 Co35 1.993 . S
N52 N51 1.388 1_545 S
N52 C53 1.346 1_545 S
C53 N52 1.346 1_565 S
C53 C54 1.396 . S
C53 C63 1.510 . S
C54 C50 1.401 . S
C54 C53 1.396 . S
C55 C50 1.499 . S
C55 H56 0.959 1_455 S
C55 H57 0.960 . S
C55 H58 0.961 . S
H56 C55 0.959 1_655 S
H57 C55 0.960 . S
H58 C55 0.961 . S
O59 Co34 1.967 . S
O59 C67 1.258 . S
O60 Co35 1.941 . S
O60 C67 1.266 . S
H61 C63 0.959 . S
H62 C63 0.961 . S
C63 C53 1.510 . S
C63 H61 0.959 . S
C63 H62 0.961 . S
C63 H64 0.960 . S
H64 C63 0.960 . S
H65 N45 0.862 . S
O66 Co34 1.920 1_655 S
O66 C39 1.289 1_545 S
C67 O59 1.258 . S
C67 O60 1.266 . S
Co68 O71 1.970 . S
Co68 N85 1.989 . S
Co68 O93 1.967 . S
Co68 O100 1.920 . S
Co69 O72 1.966 . S
Co69 N78 2.022 . S
Co69 N86 1.993 . S
Co69 O94 1.941 . S
C70 O71 1.258 . S
C70 O72 1.263 . S
O71 Co68 1.970 . S
O71 C70 1.258 . S
O72 Co69 1.966 . S
O72 C70 1.263 . S
C73 O74 1.235 . S
C73 O100 1.289 . S
O74 C73 1.235 . S
C75 C77 1.400 . S
C75 N78 1.351 . S
C75 C80 1.501 . S
C76 C77 1.387 . S
C76 N79 1.341 . S
C77 C75 1.400 . S
C77 C76 1.387 . S
N78 Co69 2.022 . S
N78 C75 1.351 . S
N78 N79 1.365 . S
N79 C76 1.341 . S
N79 N78 1.365 . S
N79 H99 0.862 . S
C80 C75 1.501 . S
C80 H81 0.961 . S
C80 H82 0.961 . S
C80 H83 0.960 . S
H81 C80 0.961 . S
H82 C80 0.961 . S
H83 C80 0.960 . S
C84 N85 1.342 . S
C84 C88 1.401 . S
C84 C89 1.499 . S
N85 Co68 1.989 . S
N85 C84 1.342 . S
N85 N86 1.388 . S
N86 Co69 1.993 . S
N86 N85 1.388 . S
N86 C87 1.346 . S
C87 N86 1.346 . S
C87 C88 1.396 . S
C87 C97 1.510 . S
C88 C84 1.401 . S
C88 C87 1.396 . S
C89 C84 1.499 . S
C89 H90 0.959 . S
C89 H91 0.960 . S
C89 H92 0.961 . S
H90 C89 0.959 . S
H91 C89 0.960 . S
H92 C89 0.961 . S
O93 Co68 1.967 . S
O93 C101 1.258 . S
O94 Co69 1.941 . S
O94 C101 1.266 . S
H95 C97 0.959 . S
H96 C97 0.961 . S
C97 C87 1.510 . S
C97 H95 0.959 . S
C97 H96 0.961 . S
C97 H98 0.960 . S
H98 C97 0.960 . S
H99 N79 0.862 . S
O100 Co68 1.920 . S
O100 C73 1.289 . S
C101 O93 1.258 . S
C101 O94 1.266 . S
Co102 O105 1.970 . S
Co102 N119 1.989 1_565 S
Co102 O127 1.967 . S
Co102 O134 1.920 . S
Co103 O106 1.966 . S
Co103 N112 2.022 . S
Co103 N120 1.993 . S
Co103 O128 1.941 . S
C104 O105 1.258 . S
C104 O106 1.263 . S
O105 Co102 1.970 . S
O105 C104 1.258 . S
O106 Co103 1.966 . S
O106 C104 1.263 . S
C107 O108 1.235 . S
C107 O134 1.289 1_545 S
O108 C107 1.235 . S
C109 C111 1.400 . S
C109 N112 1.351 . S
C109 C114 1.501 . S
C110 C111 1.387 . S
C110 N113 1.341 . S
C111 C109 1.400 . S
C111 C110 1.387 . S
N112 Co103 2.022 . S
N112 C109 1.351 . S
N112 N113 1.365 . S
N113 C110 1.341 . S
N113 N112 1.365 . S
N113 H133 0.862 . S
C114 C109 1.501 . S
C114 H115 0.961 . S
C114 H116 0.961 1_565 S
C114 H117 0.960 . S
H115 C114 0.961 . S
H116 C114 0.961 1_545 S
H117 C114 0.960 . S
C118 N119 1.342 . S
C118 C122 1.401 . S
C118 C123 1.499 . S
N119 Co102 1.989 1_545 S
N119 C118 1.342 . S
N119 N120 1.388 1_545 S
N120 Co103 1.993 . S
N120 N119 1.388 1_565 S
N120 C121 1.346 1_565 S
C121 N120 1.346 1_545 S
C121 C122 1.396 . S
C121 C131 1.510 . S
C122 C118 1.401 . S
C122 C121 1.396 . S
C123 C118 1.499 . S
C123 H124 0.959 . S
C123 H125 0.960 . S
C123 H126 0.961 . S
H124 C123 0.959 . S
H125 C123 0.960 . S
H126 C123 0.961 . S
O127 Co102 1.967 . S
O127 C135 1.258 . S
O128 Co103 1.941 . S
O128 C135 1.266 . S
H129 C131 0.959 . S
H130 C131 0.961 . S
C131 C121 1.510 . S
C131 H129 0.959 . S
C131 H130 0.961 . S
C131 H132 0.960 . S
H132 C131 0.960 . S
H133 N113 0.862 . S
O134 Co102 1.920 . S
O134 C107 1.289 1_565 S
C135 O127 1.258 . S
C135 O128 1.266 . S
Co136 O139 1.970 . S
Co136 N153 1.989 . S
Co136 O161 1.967 . S
Co136 O168 1.920 . S
Co137 O140 1.966 . S
Co137 N146 2.022 . S
Co137 N154 1.993 . S
Co137 O162 1.941 . S
C138 O139 1.258 . S
C138 O140 1.263 . S
O139 Co136 1.970 . S
O139 C138 1.258 . S
O140 Co137 1.966 . S
O140 C138 1.263 . S
C141 O142 1.235 . S
C141 O168 1.289 . S
O142 C141 1.235 . S
C143 C145 1.400 . S
C143 N146 1.351 . S
C143 C148 1.501 . S
C144 C145 1.387 . S
C144 N147 1.341 . S
C145 C143 1.400 . S
C145 C144 1.387 . S
N146 Co137 2.022 . S
N146 C143 1.351 . S
N146 N147 1.365 . S
N147 C144 1.341 . S
N147 N146 1.365 . S
N147 H167 0.862 . S
C148 C143 1.501 . S
C148 H149 0.961 . S
C148 H150 0.961 . S
C148 H151 0.960 . S
H149 C148 0.961 . S
H150 C148 0.961 . S
H151 C148 0.960 . S
C152 N153 1.342 . S
C152 C156 1.401 . S
C152 C157 1.499 . S
N153 Co136 1.989 . S
N153 C152 1.342 . S
N153 N154 1.388 . S
N154 Co137 1.993 . S
N154 N153 1.388 . S
N154 C155 1.346 . S
C155 N154 1.346 . S
C155 C156 1.396 . S
C155 C165 1.510 . S
C156 C152 1.401 . S
C156 C155 1.396 . S
C157 C152 1.499 . S
C157 H158 0.959 . S
C157 H159 0.960 . S
C157 H160 0.961 . S
H158 C157 0.959 . S
H159 C157 0.960 . S
H160 C157 0.961 . S
O161 Co136 1.967 . S
O161 C169 1.258 . S
O162 Co137 1.941 . S
O162 C169 1.266 . S
H163 C165 0.959 . S
H164 C165 0.961 . S
C165 C155 1.510 . S
C165 H163 0.959 . S
C165 H164 0.961 . S
C165 H166 0.960 . S
H166 C165 0.960 . S
H167 N147 0.862 . S
O168 Co136 1.920 . S
O168 C141 1.289 . S
C169 O161 1.258 . S
C169 O162 1.266 . S
Co170 O173 1.970 . S
Co170 N187 1.989 1_545 S
Co170 O195 1.967 . S
Co170 O202 1.920 . S
Co171 O174 1.966 . S
Co171 N180 2.022 . S
Co171 N188 1.993 . S
Co171 O196 1.941 . S
C172 O173 1.258 . S
C172 O174 1.263 . S
O173 Co170 1.970 . S
O173 C172 1.258 . S
O174 Co171 1.966 . S
O174 C172 1.263 . S
C175 O176 1.235 . S
C175 O202 1.289 1_565 S
O176 C175 1.235 . S
C177 C179 1.400 . S
C177 N180 1.351 . S
C177 C182 1.501 . S
C178 C179 1.387 . S
C178 N181 1.341 . S
C179 C177 1.400 . S
C179 C178 1.387 . S
N180 Co171 2.022 . S
N180 C177 1.351 . S
N180 N181 1.365 . S
N181 C178 1.341 . S
N181 N180 1.365 . S
N181 H201 0.862 . S
C182 C177 1.501 . S
C182 H183 0.961 . S
C182 H184 0.961 1_545 S
C182 H185 0.960 . S
H183 C182 0.961 . S
H184 C182 0.961 1_565 S
H185 C182 0.960 . S
C186 N187 1.342 . S
C186 C190 1.401 . S
C186 C191 1.499 . S
N187 Co170 1.989 1_565 S
N187 C186 1.342 . S
N187 N188 1.388 1_565 S
N188 Co171 1.993 . S
N188 N187 1.388 1_545 S
N188 C189 1.346 1_545 S
C189 N188 1.346 1_565 S
C189 C190 1.396 . S
C189 C199 1.510 . S
C190 C186 1.401 . S
C190 C189 1.396 . S
C191 C186 1.499 . S
C191 H192 0.959 . S
C191 H193 0.960 . S
C191 H194 0.961 . S
H192 C191 0.959 . S
H193 C191 0.960 . S
H194 C191 0.961 . S
O195 Co170 1.967 . S
O195 C203 1.258 . S
O196 Co171 1.941 . S
O196 C203 1.266 . S
H197 C199 0.959 . S
H198 C199 0.961 . S
C199 C189 1.510 . S
C199 H197 0.959 . S
C199 H198 0.961 . S
C199 H200 0.960 . S
H200 C199 0.960 . S
H201 N181 0.862 . S
O202 Co170 1.920 . S
O202 C175 1.289 1_545 S
C203 O195 1.258 . S
C203 O196 1.266 . S
Co204 O207 1.970 . S
Co204 N221 1.989 . S
Co204 O229 1.967 . S
Co204 O236 1.920 . S
Co205 O208 1.966 . S
Co205 N214 2.022 . S
Co205 N222 1.993 . S
Co205 O230 1.941 . S
C206 O207 1.258 . S
C206 O208 1.263 . S
O207 Co204 1.970 . S
O207 C206 1.258 . S
O208 Co205 1.966 . S
O208 C206 1.263 . S
C209 O210 1.235 . S
C209 O236 1.289 . S
O210 C209 1.235 . S
C211 C213 1.400 . S
C211 N214 1.351 . S
C211 C216 1.501 . S
C212 C213 1.387 . S
C212 N215 1.341 . S
C213 C211 1.400 . S
C213 C212 1.387 . S
N214 Co205 2.022 . S
N214 C211 1.351 . S
N214 N215 1.365 . S
N215 C212 1.341 . S
N215 N214 1.365 . S
N215 H235 0.862 . S
C216 C211 1.501 . S
C216 H217 0.961 . S
C216 H218 0.961 . S
C216 H219 0.960 . S
H217 C216 0.961 . S
H218 C216 0.961 . S
H219 C216 0.960 . S
C220 N221 1.342 . S
C220 C224 1.401 . S
C220 C225 1.499 . S
N221 Co204 1.989 . S
N221 C220 1.342 . S
N221 N222 1.388 . S
N222 Co205 1.993 . S
N222 N221 1.388 . S
N222 C223 1.346 . S
C223 N222 1.346 . S
C223 C224 1.396 . S
C223 C233 1.510 . S
C224 C220 1.401 . S
C224 C223 1.396 . S
C225 C220 1.499 . S
C225 H226 0.959 . S
C225 H227 0.960 . S
C225 H228 0.961 . S
H226 C225 0.959 . S
H227 C225 0.960 . S
H228 C225 0.961 . S
O229 Co204 1.967 . S
O229 C237 1.258 . S
O230 Co205 1.941 . S
O230 C237 1.266 . S
H231 C233 0.959 . S
H232 C233 0.961 . S
C233 C223 1.510 . S
C233 H231 0.959 . S
C233 H232 0.961 . S
C233 H234 0.960 . S
H234 C233 0.960 . S
H235 N215 0.862 . S
O236 Co204 1.920 . S
O236 C209 1.289 . S
C237 O229 1.258 . S
C237 O230 1.266 . S
Co238 O241 1.970 . S
Co238 N255 1.989 1_565 S
Co238 O263 1.967 . S
Co238 O270 1.920 1_455 S
Co239 O242 1.966 . S
Co239 N248 2.022 . S
Co239 N256 1.993 . S
Co239 O264 1.941 . S
C240 O241 1.258 . S
C240 O242 1.263 . S
O241 Co238 1.970 . S
O241 C240 1.258 . S
O242 Co239 1.966 . S
O242 C240 1.263 . S
C243 O244 1.235 . S
C243 O270 1.289 1_545 S
O244 C243 1.235 . S
C245 C247 1.400 . S
C245 N248 1.351 . S
C245 C250 1.501 . S
C246 C247 1.387 . S
C246 N249 1.341 . S
C247 C245 1.400 . S
C247 C246 1.387 . S
N248 Co239 2.022 . S
N248 C245 1.351 . S
N248 N249 1.365 . S
N249 C246 1.341 . S
N249 N248 1.365 . S
N249 H269 0.862 . S
C250 C245 1.501 . S
C250 H251 0.961 . S
C250 H252 0.961 1_565 S
C250 H253 0.960 . S
H251 C250 0.961 . S
H252 C250 0.961 1_545 S
H253 C250 0.960 . S
C254 N255 1.342 . S
C254 C258 1.401 . S
C254 C259 1.499 . S
N255 Co238 1.989 1_545 S
N255 C254 1.342 . S
N255 N256 1.388 1_545 S
N256 Co239 1.993 . S
N256 N255 1.388 1_565 S
N256 C257 1.346 1_565 S
C257 N256 1.346 1_545 S
C257 C258 1.396 . S
C257 C267 1.510 . S
C258 C254 1.401 . S
C258 C257 1.396 . S
C259 C254 1.499 . S
C259 H260 0.959 1_455 S
C259 H261 0.960 . S
C259 H262 0.961 . S
H260 C259 0.959 1_655 S
H261 C259 0.960 . S
H262 C259 0.961 . S
O263 Co238 1.967 . S
O263 C271 1.258 . S
O264 Co239 1.941 . S
O264 C271 1.266 . S
H265 C267 0.959 . S
H266 C267 0.961 . S
C267 C257 1.510 . S
C267 H265 0.959 . S
C267 H266 0.961 . S
C267 H268 0.960 . S
H268 C267 0.960 . S
H269 N249 0.862 . S
O270 Co238 1.920 1_655 S
O270 C243 1.289 1_565 S
C271 O263 1.258 . S
C271 O264 1.266 . S
Co272 O275 1.970 . S
Co272 N289 1.989 . S
Co272 O297 1.967 . S
Co272 O304 1.920 . S
Co273 O276 1.966 . S
Co273 N282 2.022 . S
Co273 N290 1.993 . S
Co273 O298 1.941 . S
C274 O275 1.258 . S
C274 O276 1.263 . S
O275 Co272 1.970 . S
O275 C274 1.258 . S
O276 Co273 1.966 . S
O276 C274 1.263 . S
C277 O278 1.235 . S
C277 O304 1.289 . S
O278 C277 1.235 . S
C279 C281 1.400 . S
C279 N282 1.351 . S
C279 C284 1.501 . S
C280 C281 1.387 . S
C280 N283 1.341 . S
C281 C279 1.400 . S
C281 C280 1.387 . S
N282 Co273 2.022 . S
N282 C279 1.351 . S
N282 N283 1.365 . S
N283 C280 1.341 . S
N283 N282 1.365 . S
N283 H303 0.862 . S
C284 C279 1.501 . S
C284 H285 0.961 . S
C284 H286 0.961 . S
C284 H287 0.960 . S
H285 C284 0.961 . S
H286 C284 0.961 . S
H287 C284 0.960 . S
C288 N289 1.342 . S
C288 C292 1.401 . S
C288 C293 1.499 . S
N289 Co272 1.989 . S
N289 C288 1.342 . S
N289 N290 1.388 . S
N290 Co273 1.993 . S
N290 N289 1.388 . S
N290 C291 1.346 . S
C291 N290 1.346 . S
C291 C292 1.396 . S
C291 C301 1.510 . S
C292 C288 1.401 . S
C292 C291 1.396 . S
C293 C288 1.499 . S
C293 H294 0.959 . S
C293 H295 0.960 . S
C293 H296 0.961 . S
H294 C293 0.959 . S
H295 C293 0.960 . S
H296 C293 0.961 . S
O297 Co272 1.967 . S
O297 C305 1.258 . S
O298 Co273 1.941 . S
O298 C305 1.266 . S
H299 C301 0.959 . S
H300 C301 0.961 . S
C301 C291 1.510 . S
C301 H299 0.959 . S
C301 H300 0.961 . S
C301 H302 0.960 . S
H302 C301 0.960 . S
H303 N283 0.862 . S
O304 Co272 1.920 . S
O304 C277 1.289 . S
C305 O297 1.258 . S
C305 O298 1.266 . S
Co306 O309 1.970 . S
Co306 N323 1.989 1_565 S
Co306 O331 1.967 . S
Co306 O338 1.920 1_655 S
Co307 O310 1.966 . S
Co307 N316 2.022 . S
Co307 N324 1.993 . S
Co307 O332 1.941 . S
C308 O309 1.258 . S
C308 O310 1.263 . S
O309 Co306 1.970 . S
O309 C308 1.258 . S
O310 Co307 1.966 . S
O310 C308 1.263 . S
C311 O312 1.235 . S
C311 O338 1.289 1_545 S
O312 C311 1.235 . S
C313 C315 1.400 . S
C313 N316 1.351 . S
C313 C318 1.501 . S
C314 C315 1.387 . S
C314 N317 1.341 . S
C315 C313 1.400 . S
C315 C314 1.387 . S
N316 Co307 2.022 . S
N316 C313 1.351 . S
N316 N317 1.365 . S
N317 C314 1.341 . S
N317 N316 1.365 . S
N317 H337 0.862 . S
C318 C313 1.501 . S
C318 H319 0.961 . S
C318 H320 0.961 1_565 S
C318 H321 0.960 . S
H319 C318 0.961 . S
H320 C318 0.961 1_545 S
H321 C318 0.960 . S
C322 N323 1.342 . S
C322 C326 1.401 . S
C322 C327 1.499 . S
N323 Co306 1.989 1_545 S
N323 C322 1.342 . S
N323 N324 1.388 1_545 S
N324 Co307 1.993 . S
N324 N323 1.388 1_565 S
N324 C325 1.346 1_565 S
C325 N324 1.346 1_545 S
C325 C326 1.396 . S
C325 C335 1.510 . S
C326 C322 1.401 . S
C326 C325 1.396 . S
C327 C322 1.499 . S
C327 H328 0.959 1_655 S
C327 H329 0.960 . S
C327 H330 0.961 . S
H328 C327 0.959 1_455 S
H329 C327 0.960 . S
H330 C327 0.961 . S
O331 Co306 1.967 . S
O331 C339 1.258 . S
O332 Co307 1.941 . S
O332 C339 1.266 . S
H333 C335 0.959 . S
H334 C335 0.961 . S
C335 C325 1.510 . S
C335 H333 0.959 . S
C335 H334 0.961 . S
C335 H336 0.960 . S
H336 C335 0.960 . S
H337 N317 0.862 . S
O338 Co306 1.920 1_455 S
O338 C311 1.289 1_565 S
C339 O331 1.258 . S
C339 O332 1.266 . S
Co340 O343 1.970 . S
Co340 N357 1.989 . S
Co340 O365 1.967 . S
Co340 O372 1.920 . S
Co341 O344 1.966 . S
Co341 N350 2.022 . S
Co341 N358 1.993 . S
Co341 O366 1.941 . S
C342 O343 1.258 . S
C342 O344 1.263 . S
O343 Co340 1.970 . S
O343 C342 1.258 . S
O344 Co341 1.966 . S
O344 C342 1.263 . S
C345 O346 1.235 . S
C345 O372 1.289 . S
O346 C345 1.235 . S
C347 C349 1.400 . S
C347 N350 1.351 . S
C347 C352 1.501 . S
C348 C349 1.387 . S
C348 N351 1.341 . S
C349 C347 1.400 . S
C349 C348 1.387 . S
N350 Co341 2.022 . S
N350 C347 1.351 . S
N350 N351 1.365 . S
N351 C348 1.341 . S
N351 N350 1.365 . S
N351 H371 0.862 . S
C352 C347 1.501 . S
C352 H353 0.961 . S
C352 H354 0.961 . S
C352 H355 0.960 . S
H353 C352 0.961 . S
H354 C352 0.961 . S
H355 C352 0.960 . S
C356 N357 1.342 . S
C356 C360 1.401 . S
C356 C361 1.499 . S
N357 Co340 1.989 . S
N357 C356 1.342 . S
N357 N358 1.388 . S
N358 Co341 1.993 . S
N358 N357 1.388 . S
N358 C359 1.346 . S
C359 N358 1.346 . S
C359 C360 1.396 . S
C359 C369 1.510 . S
C360 C356 1.401 . S
C360 C359 1.396 . S
C361 C356 1.499 . S
C361 H362 0.959 . S
C361 H363 0.960 . S
C361 H364 0.961 . S
H362 C361 0.959 . S
H363 C361 0.960 . S
H364 C361 0.961 . S
O365 Co340 1.967 . S
O365 C373 1.258 . S
O366 Co341 1.941 . S
O366 C373 1.266 . S
H367 C369 0.959 . S
H368 C369 0.961 . S
C369 C359 1.510 . S
C369 H367 0.959 . S
C369 H368 0.961 . S
C369 H370 0.960 . S
H370 C369 0.960 . S
H371 N351 0.862 . S
O372 Co340 1.920 . S
O372 C345 1.289 . S
C373 O365 1.258 . S
C373 O366 1.266 . S
Co374 O377 1.970 . S
Co374 N391 1.989 1_545 S
Co374 O399 1.967 . S
Co374 O406 1.920 . S
Co375 O378 1.966 . S
Co375 N384 2.022 . S
Co375 N392 1.993 . S
Co375 O400 1.941 . S
C376 O377 1.258 . S
C376 O378 1.263 . S
O377 Co374 1.970 . S
O377 C376 1.258 . S
O378 Co375 1.966 . S
O378 C376 1.263 . S
C379 O380 1.235 . S
C379 O406 1.289 1_565 S
O380 C379 1.235 . S
C381 C383 1.400 . S
C381 N384 1.351 . S
C381 C386 1.501 . S
C382 C383 1.387 . S
C382 N385 1.341 . S
C383 C381 1.400 . S
C383 C382 1.387 . S
N384 Co375 2.022 . S
N384 C381 1.351 . S
N384 N385 1.365 . S
N385 C382 1.341 . S
N385 N384 1.365 . S
N385 H405 0.862 . S
C386 C381 1.501 . S
C386 H387 0.961 . S
C386 H388 0.961 1_545 S
C386 H389 0.960 . S
H387 C386 0.961 . S
H388 C386 0.961 1_565 S
H389 C386 0.960 . S
C390 N391 1.342 . S
C390 C394 1.401 . S
C390 C395 1.499 . S
N391 Co374 1.989 1_565 S
N391 C390 1.342 . S
N391 N392 1.388 1_565 S
N392 Co375 1.993 . S
N392 N391 1.388 1_545 S
N392 C393 1.346 1_545 S
C393 N392 1.346 1_565 S
C393 C394 1.396 . S
C393 C403 1.510 . S
C394 C390 1.401 . S
C394 C393 1.396 . S
C395 C390 1.499 . S
C395 H396 0.959 . S
C395 H397 0.960 . S
C395 H398 0.961 . S
H396 C395 0.959 . S
H397 C395 0.960 . S
H398 C395 0.961 . S
O399 Co374 1.967 . S
O399 C407 1.258 . S
O400 Co375 1.941 . S
O400 C407 1.266 . S
H401 C403 0.959 . S
H402 C403 0.961 . S
C403 C393 1.510 . S
C403 H401 0.959 . S
C403 H402 0.961 . S
C403 H404 0.960 . S
H404 C403 0.960 . S
H405 N385 0.862 . S
O406 Co374 1.920 . S
O406 C379 1.289 1_545 S
C407 O399 1.258 . S
C407 O400 1.266 . S
Co408 O411 1.970 . S
Co408 N425 1.989 . S
Co408 O433 1.967 . S
Co408 O440 1.920 . S
Co409 O412 1.966 . S
Co409 N418 2.022 . S
Co409 N426 1.993 . S
Co409 O434 1.941 . S
C410 O411 1.258 . S
C410 O412 1.263 . S
O411 Co408 1.970 . S
O411 C410 1.258 . S
O412 Co409 1.966 . S
O412 C410 1.263 . S
C413 O414 1.235 . S
C413 O440 1.289 . S
O414 C413 1.235 . S
C415 C417 1.400 . S
C415 N418 1.351 . S
C415 C420 1.501 . S
C416 C417 1.387 . S
C416 N419 1.341 . S
C417 C415 1.400 . S
C417 C416 1.387 . S
N418 Co409 2.022 . S
N418 C415 1.351 . S
N418 N419 1.365 . S
N419 C416 1.341 . S
N419 N418 1.365 . S
N419 H439 0.862 . S
C420 C415 1.501 . S
C420 H421 0.961 . S
C420 H422 0.961 . S
C420 H423 0.960 . S
H421 C420 0.961 . S
H422 C420 0.961 . S
H423 C420 0.960 . S
C424 N425 1.342 . S
C424 C428 1.401 . S
C424 C429 1.499 . S
N425 Co408 1.989 . S
N425 C424 1.342 . S
N425 N426 1.388 . S
N426 Co409 1.993 . S
N426 N425 1.388 . S
N426 C427 1.346 . S
C427 N426 1.346 . S
C427 C428 1.396 . S
C427 C437 1.510 . S
C428 C424 1.401 . S
C428 C427 1.396 . S
C429 C424 1.499 . S
C429 H430 0.959 . S
C429 H431 0.960 . S
C429 H432 0.961 . S
H430 C429 0.959 . S
H431 C429 0.960 . S
H432 C429 0.961 . S
O433 Co408 1.967 . S
O433 C441 1.258 . S
O434 Co409 1.941 . S
O434 C441 1.266 . S
H435 C437 0.959 . S
H436 C437 0.961 . S
C437 C427 1.510 . S
C437 H435 0.959 . S
C437 H436 0.961 . S
C437 H438 0.960 . S
H438 C437 0.960 . S
H439 N419 0.862 . S
O440 Co408 1.920 . S
O440 C413 1.289 . S
C441 O433 1.258 . S
C441 O434 1.266 . S
Co442 O445 1.970 . S
Co442 N459 1.989 1_565 S
Co442 O467 1.967 . S
Co442 O474 1.920 . S
Co443 O446 1.966 . S
Co443 N452 2.022 . S
Co443 N460 1.993 . S
Co443 O468 1.941 . S
C444 O445 1.258 . S
C444 O446 1.263 . S
O445 Co442 1.970 . S
O445 C444 1.258 . S
O446 Co443 1.966 . S
O446 C444 1.263 . S
C447 O448 1.235 . S
C447 O474 1.289 1_545 S
O448 C447 1.235 . S
C449 C451 1.400 . S
C449 N452 1.351 . S
C449 C454 1.501 . S
C450 C451 1.387 . S
C450 N453 1.341 . S
C451 C449 1.400 . S
C451 C450 1.387 . S
N452 Co443 2.022 . S
N452 C449 1.351 . S
N452 N453 1.365 . S
N453 C450 1.341 . S
N453 N452 1.365 . S
N453 H473 0.862 . S
C454 C449 1.501 . S
C454 H455 0.961 . S
C454 H456 0.961 1_565 S
C454 H457 0.960 . S
H455 C454 0.961 . S
H456 C454 0.961 1_545 S
H457 C454 0.960 . S
C458 N459 1.342 . S
C458 C462 1.401 . S
C458 C463 1.499 . S
N459 Co442 1.989 1_545 S
N459 C458 1.342 . S
N459 N460 1.388 1_545 S
N460 Co443 1.993 . S
N460 N459 1.388 1_565 S
N460 C461 1.346 1_565 S
C461 N460 1.346 1_545 S
C461 C462 1.396 . S
C461 C471 1.510 . S
C462 C458 1.401 . S
C462 C461 1.396 . S
C463 C458 1.499 . S
C463 H464 0.959 . S
C463 H465 0.960 . S
C463 H466 0.961 . S
H464 C463 0.959 . S
H465 C463 0.960 . S
H466 C463 0.961 . S
O467 Co442 1.967 . S
O467 C475 1.258 . S
O468 Co443 1.941 . S
O468 C475 1.266 . S
H469 C471 0.959 . S
H470 C471 0.961 . S
C471 C461 1.510 . S
C471 H469 0.959 . S
C471 H470 0.961 . S
C471 H472 0.960 . S
H472 C471 0.960 . S
H473 N453 0.862 . S
O474 Co442 1.920 . S
O474 C447 1.289 1_565 S
C475 O467 1.258 . S
C475 O468 1.266 . S
Co476 O479 1.970 . S
Co476 N493 1.989 . S
Co476 O501 1.967 . S
Co476 O508 1.920 . S
Co477 O480 1.966 . S
Co477 N486 2.022 . S
Co477 N494 1.993 . S
Co477 O502 1.941 . S
C478 O479 1.258 . S
C478 O480 1.263 . S
O479 Co476 1.970 . S
O479 C478 1.258 . S
O480 Co477 1.966 . S
O480 C478 1.263 . S
C481 O482 1.235 . S
C481 O508 1.289 . S
O482 C481 1.235 . S
C483 C485 1.400 . S
C483 N486 1.351 . S
C483 C488 1.501 . S
C484 C485 1.387 . S
C484 N487 1.341 . S
C485 C483 1.400 . S
C485 C484 1.387 . S
N486 Co477 2.022 . S
N486 C483 1.351 . S
N486 N487 1.365 . S
N487 C484 1.341 . S
N487 N486 1.365 . S
N487 H507 0.862 . S
C488 C483 1.501 . S
C488 H489 0.961 . S
C488 H490 0.961 . S
C488 H491 0.960 . S
H489 C488 0.961 . S
H490 C488 0.961 . S
H491 C488 0.960 . S
C492 N493 1.342 . S
C492 C496 1.401 . S
C492 C497 1.499 . S
N493 Co476 1.989 . S
N493 C492 1.342 . S
N493 N494 1.388 . S
N494 Co477 1.993 . S
N494 N493 1.388 . S
N494 C495 1.346 . S
C495 N494 1.346 . S
C495 C496 1.396 . S
C495 C505 1.510 . S
C496 C492 1.401 . S
C496 C495 1.396 . S
C497 C492 1.499 . S
C497 H498 0.959 . S
C497 H499 0.960 . S
C497 H500 0.961 . S
H498 C497 0.959 . S
H499 C497 0.960 . S
H500 C497 0.961 . S
O501 Co476 1.967 . S
O501 C509 1.258 . S
O502 Co477 1.941 . S
O502 C509 1.266 . S
H503 C505 0.959 . S
H504 C505 0.961 . S
C505 C495 1.510 . S
C505 H503 0.959 . S
C505 H504 0.961 . S
C505 H506 0.960 . S
H506 C505 0.960 . S
H507 N487 0.862 . S
O508 Co476 1.920 . S
O508 C481 1.289 . S
C509 O501 1.258 . S
C509 O502 1.266 . S
Co510 O513 1.970 . S
Co510 N527 1.989 1_545 S
Co510 O535 1.967 . S
Co510 O542 1.920 1_655 S
Co511 O514 1.966 . S
Co511 N520 2.022 . S
Co511 N528 1.993 . S
Co511 O536 1.941 . S
C512 O513 1.258 . S
C512 O514 1.263 . S
O513 Co510 1.970 . S
O513 C512 1.258 . S
O514 Co511 1.966 . S
O514 C512 1.263 . S
C515 O516 1.235 . S
C515 O542 1.289 1_565 S
O516 C515 1.235 . S
C517 C519 1.400 . S
C517 N520 1.351 . S
C517 C522 1.501 . S
C518 C519 1.387 . S
C518 N521 1.341 . S
C519 C517 1.400 . S
C519 C518 1.387 . S
N520 Co511 2.022 . S
N520 C517 1.351 . S
N520 N521 1.365 . S
N521 C518 1.341 . S
N521 N520 1.365 . S
N521 H541 0.862 . S
C522 C517 1.501 . S
C522 H523 0.961 . S
C522 H524 0.961 1_545 S
C522 H525 0.960 . S
H523 C522 0.961 . S
H524 C522 0.961 1_565 S
H525 C522 0.960 . S
C526 N527 1.342 . S
C526 C530 1.401 . S
C526 C531 1.499 . S
N527 Co510 1.989 1_565 S
N527 C526 1.342 . S
N527 N528 1.388 1_565 S
N528 Co511 1.993 . S
N528 N527 1.388 1_545 S
N528 C529 1.346 1_545 S
C529 N528 1.346 1_565 S
C529 C530 1.396 . S
C529 C539 1.510 . S
C530 C526 1.401 . S
C530 C529 1.396 . S
C531 C526 1.499 . S
C531 H532 0.959 1_655 S
C531 H533 0.960 . S
C531 H534 0.961 . S
H532 C531 0.959 1_455 S
H533 C531 0.960 . S
H534 C531 0.961 . S
O535 Co510 1.967 . S
O535 C543 1.258 . S
O536 Co511 1.941 . S
O536 C543 1.266 . S
H537 C539 0.959 . S
H538 C539 0.961 . S
C539 C529 1.510 . S
C539 H537 0.959 . S
C539 H538 0.961 . S
C539 H540 0.960 . S
H540 C539 0.960 . S
H541 N521 0.862 . S
O542 Co510 1.920 1_455 S
O542 C515 1.289 1_545 S
C543 O535 1.258 . S
C543 O536 1.266 . S
Co544 O547 1.970 . S
Co544 N561 1.989 . S
Co544 O569 1.967 . S
Co544 O576 1.920 . S
Co545 O548 1.966 . S
Co545 N554 2.022 . S
Co545 N562 1.993 . S
Co545 O570 1.941 . S
C546 O547 1.258 . S
C546 O548 1.263 . S
O547 Co544 1.970 . S
O547 C546 1.258 . S
O548 Co545 1.966 . S
O548 C546 1.263 . S
C549 O550 1.235 . S
C549 O576 1.289 . S
O550 C549 1.235 . S
C551 C553 1.400 . S
C551 N554 1.351 . S
C551 C556 1.501 . S
C552 C553 1.387 . S
C552 N555 1.341 . S
C553 C551 1.400 . S
C553 C552 1.387 . S
N554 Co545 2.022 . S
N554 C551 1.351 . S
N554 N555 1.365 . S
N555 C552 1.341 . S
N555 N554 1.365 . S
N555 H575 0.862 . S
C556 C551 1.501 . S
C556 H557 0.961 . S
C556 H558 0.961 . S
C556 H559 0.960 . S
H557 C556 0.961 . S
H558 C556 0.961 . S
H559 C556 0.960 . S
C560 N561 1.342 . S
C560 C564 1.401 . S
C560 C565 1.499 . S
N561 Co544 1.989 . S
N561 C560 1.342 . S
N561 N562 1.388 . S
N562 Co545 1.993 . S
N562 N561 1.388 . S
N562 C563 1.346 . S
C563 N562 1.346 . S
C563 C564 1.396 . S
C563 C573 1.510 . S
C564 C560 1.401 . S
C564 C563 1.396 . S
C565 C560 1.499 . S
C565 H566 0.959 . S
C565 H567 0.960 . S
C565 H568 0.961 . S
H566 C565 0.959 . S
H567 C565 0.960 . S
H568 C565 0.961 . S
O569 Co544 1.967 . S
O569 C577 1.258 . S
O570 Co545 1.941 . S
O570 C577 1.266 . S
H571 C573 0.959 . S
H572 C573 0.961 . S
C573 C563 1.510 . S
C573 H571 0.959 . S
C573 H572 0.961 . S
C573 H574 0.960 . S
H574 C573 0.960 . S
H575 N555 0.862 . S
O576 Co544 1.920 . S
O576 C549 1.289 . S
C577 O569 1.258 . S
C577 O570 1.266 . S
Co578 O581 1.970 . S
Co578 N595 1.989 . S
Co578 O603 1.967 . S
Co578 O610 1.920 . S
Co579 O582 1.966 . S
Co579 N588 2.022 . S
Co579 N596 1.993 . S
Co579 O604 1.941 . S
C580 O581 1.258 . S
C580 O582 1.263 . S
O581 Co578 1.970 . S
O581 C580 1.258 . S
O582 Co579 1.966 . S
O582 C580 1.263 . S
C583 O584 1.235 . S
C583 O610 1.289 . S
O584 C583 1.235 . S
C585 C587 1.400 . S
C585 N588 1.351 . S
C585 C590 1.501 . S
C586 C587 1.387 . S
C586 N589 1.341 . S
C587 C585 1.400 . S
C587 C586 1.387 . S
N588 Co579 2.022 . S
N588 C585 1.351 . S
N588 N589 1.365 . S
N589 C586 1.341 . S
N589 N588 1.365 . S
N589 H609 0.862 . S
C590 C585 1.501 . S
C590 H591 0.961 . S
C590 H592 0.961 . S
C590 H593 0.960 . S
H591 C590 0.961 . S
H592 C590 0.961 . S
H593 C590 0.960 . S
C594 N595 1.342 . S
C594 C598 1.401 . S
C594 C599 1.499 . S
N595 Co578 1.989 . S
N595 C594 1.342 . S
N595 N596 1.388 . S
N596 Co579 1.993 . S
N596 N595 1.388 . S
N596 C597 1.346 . S
C597 N596 1.346 . S
C597 C598 1.396 . S
C597 C607 1.510 . S
C598 C594 1.401 . S
C598 C597 1.396 . S
C599 C594 1.499 . S
C599 H600 0.959 . S
C599 H601 0.960 . S
C599 H602 0.961 . S
H600 C599 0.959 . S
H601 C599 0.960 . S
H602 C599 0.961 . S
O603 Co578 1.967 . S
O603 C611 1.258 . S
O604 Co579 1.941 . S
O604 C611 1.266 . S
H605 C607 0.959 . S
H606 C607 0.961 . S
C607 C597 1.510 . S
C607 H605 0.959 . S
C607 H606 0.961 . S
C607 H608 0.960 . S
H608 C607 0.960 . S
H609 N589 0.862 . S
O610 Co578 1.920 . S
O610 C583 1.289 . S
C611 O603 1.258 . S
C611 O604 1.266 . S
Co612 O615 1.970 . S
Co612 N629 1.989 . S
Co612 O637 1.967 . S
Co612 O644 1.920 . S
Co613 O616 1.966 . S
Co613 N622 2.022 . S
Co613 N630 1.993 . S
Co613 O638 1.941 . S
C614 O615 1.258 . S
C614 O616 1.263 . S
O615 Co612 1.970 . S
O615 C614 1.258 . S
O616 Co613 1.966 . S
O616 C614 1.263 . S
C617 O618 1.235 . S
C617 O644 1.289 . S
O618 C617 1.235 . S
C619 C621 1.400 . S
C619 N622 1.351 . S
C619 C624 1.501 . S
C620 C621 1.387 . S
C620 N623 1.341 . S
C621 C619 1.400 . S
C621 C620 1.387 . S
N622 Co613 2.022 . S
N622 C619 1.351 . S
N622 N623 1.365 . S
N623 C620 1.341 . S
N623 N622 1.365 . S
N623 H643 0.862 . S
C624 C619 1.501 . S
C624 H625 0.961 . S
C624 H626 0.961 . S
C624 H627 0.960 . S
H625 C624 0.961 . S
H626 C624 0.961 . S
H627 C624 0.960 . S
C628 N629 1.342 . S
C628 C632 1.401 . S
C628 C633 1.499 . S
N629 Co612 1.989 . S
N629 C628 1.342 . S
N629 N630 1.388 . S
N630 Co613 1.993 . S
N630 N629 1.388 . S
N630 C631 1.346 . S
C631 N630 1.346 . S
C631 C632 1.396 . S
C631 C641 1.510 . S
C632 C628 1.401 . S
C632 C631 1.396 . S
C633 C628 1.499 . S
C633 H634 0.959 . S
C633 H635 0.960 . S
C633 H636 0.961 . S
H634 C633 0.959 . S
H635 C633 0.960 . S
H636 C633 0.961 . S
O637 Co612 1.967 . S
O637 C645 1.258 . S
O638 Co613 1.941 . S
O638 C645 1.266 . S
H639 C641 0.959 . S
H640 C641 0.961 . S
C641 C631 1.510 . S
C641 H639 0.959 . S
C641 H640 0.961 . S
C641 H642 0.960 . S
H642 C641 0.960 . S
H643 N623 0.862 . S
O644 Co612 1.920 . S
O644 C617 1.289 . S
C645 O637 1.258 . S
C645 O638 1.266 . S
Co646 O649 1.970 . S
Co646 N663 1.989 . S
Co646 O671 1.967 . S
Co646 O678 1.920 1_655 S
Co647 O650 1.966 . S
Co647 N656 2.022 . S
Co647 N664 1.993 . S
Co647 O672 1.941 . S
C648 O649 1.258 . S
C648 O650 1.263 . S
O649 Co646 1.970 . S
O649 C648 1.258 . S
O650 Co647 1.966 . S
O650 C648 1.263 . S
C651 O652 1.235 . S
C651 O678 1.289 . S
O652 C651 1.235 . S
C653 C655 1.400 . S
C653 N656 1.351 . S
C653 C658 1.501 . S
C654 C655 1.387 . S
C654 N657 1.341 . S
C655 C653 1.400 . S
C655 C654 1.387 . S
N656 Co647 2.022 . S
N656 C653 1.351 . S
N656 N657 1.365 . S
N657 C654 1.341 . S
N657 N656 1.365 . S
N657 H677 0.862 . S
C658 C653 1.501 . S
C658 H659 0.961 . S
C658 H660 0.961 . S
C658 H661 0.960 . S
H659 C658 0.961 . S
H660 C658 0.961 . S
H661 C658 0.960 . S
C662 N663 1.342 . S
C662 C666 1.401 . S
C662 C667 1.499 . S
N663 Co646 1.989 . S
N663 C662 1.342 . S
N663 N664 1.388 . S
N664 Co647 1.993 . S
N664 N663 1.388 . S
N664 C665 1.346 . S
C665 N664 1.346 . S
C665 C666 1.396 . S
C665 C675 1.510 . S
C666 C662 1.401 . S
C666 C665 1.396 . S
C667 C662 1.499 . S
C667 H668 0.959 1_655 S
C667 H669 0.960 . S
C667 H670 0.961 . S
H668 C667 0.959 1_455 S
H669 C667 0.960 . S
H670 C667 0.961 . S
O671 Co646 1.967 . S
O671 C679 1.258 . S
O672 Co647 1.941 . S
O672 C679 1.266 . S
H673 C675 0.959 . S
H674 C675 0.961 . S
C675 C665 1.510 . S
C675 H673 0.959 . S
C675 H674 0.961 . S
C675 H676 0.960 . S
H676 C675 0.960 . S
H677 N657 0.862 . S
O678 Co646 1.920 1_455 S
O678 C651 1.289 . S
C679 O671 1.258 . S
C679 O672 1.266 . S
Co680 O683 1.970 . S
Co680 N697 1.989 . S
Co680 O705 1.967 . S
Co680 O712 1.920 . S
Co681 O684 1.966 . S
Co681 N690 2.022 . S
Co681 N698 1.993 . S
Co681 O706 1.941 . S
C682 O683 1.258 . S
C682 O684 1.263 . S
O683 Co680 1.970 . S
O683 C682 1.258 . S
O684 Co681 1.966 . S
O684 C682 1.263 . S
C685 O686 1.235 . S
C685 O712 1.289 . S
O686 C685 1.235 . S
C687 C689 1.400 . S
C687 N690 1.351 . S
C687 C692 1.501 . S
C688 C689 1.387 . S
C688 N691 1.341 . S
C689 C687 1.400 . S
C689 C688 1.387 . S
N690 Co681 2.022 . S
N690 C687 1.351 . S
N690 N691 1.365 . S
N691 C688 1.341 . S
N691 N690 1.365 . S
N691 H711 0.862 . S
C692 C687 1.501 . S
C692 H693 0.961 . S
C692 H694 0.961 . S
C692 H695 0.960 . S
H693 C692 0.961 . S
H694 C692 0.961 . S
H695 C692 0.960 . S
C696 N697 1.342 . S
C696 C700 1.401 . S
C696 C701 1.499 . S
N697 Co680 1.989 . S
N697 C696 1.342 . S
N697 N698 1.388 . S
N698 Co681 1.993 . S
N698 N697 1.388 . S
N698 C699 1.346 . S
C699 N698 1.346 . S
C699 C700 1.396 . S
C699 C709 1.510 . S
C700 C696 1.401 . S
C700 C699 1.396 . S
C701 C696 1.499 . S
C701 H702 0.959 . S
C701 H703 0.960 . S
C701 H704 0.961 . S
H702 C701 0.959 . S
H703 C701 0.960 . S
H704 C701 0.961 . S
O705 Co680 1.967 . S
O705 C713 1.258 . S
O706 Co681 1.941 . S
O706 C713 1.266 . S
H707 C709 0.959 . S
H708 C709 0.961 . S
C709 C699 1.510 . S
C709 H707 0.959 . S
C709 H708 0.961 . S
C709 H710 0.960 . S
H710 C709 0.960 . S
H711 N691 0.862 . S
O712 Co680 1.920 . S
O712 C685 1.289 . S
C713 O705 1.258 . S
C713 O706 1.266 . S
Co714 O717 1.970 . S
Co714 N731 1.989 . S
Co714 O739 1.967 . S
Co714 O746 1.920 1_655 S
Co715 O718 1.966 . S
Co715 N724 2.022 . S
Co715 N732 1.993 . S
Co715 O740 1.941 . S
C716 O717 1.258 . S
C716 O718 1.263 . S
O717 Co714 1.970 . S
O717 C716 1.258 . S
O718 Co715 1.966 . S
O718 C716 1.263 . S
C719 O720 1.235 . S
C719 O746 1.289 . S
O720 C719 1.235 . S
C721 C723 1.400 . S
C721 N724 1.351 . S
C721 C726 1.501 . S
C722 C723 1.387 . S
C722 N725 1.341 . S
C723 C721 1.400 . S
C723 C722 1.387 . S
N724 Co715 2.022 . S
N724 C721 1.351 . S
N724 N725 1.365 . S
N725 C722 1.341 . S
N725 N724 1.365 . S
N725 H745 0.862 . S
C726 C721 1.501 . S
C726 H727 0.961 . S
C726 H728 0.961 . S
C726 H729 0.960 . S
H727 C726 0.961 . S
H728 C726 0.961 . S
H729 C726 0.960 . S
C730 N731 1.342 . S
C730 C734 1.401 . S
C730 C735 1.499 . S
N731 Co714 1.989 . S
N731 C730 1.342 . S
N731 N732 1.388 . S
N732 Co715 1.993 . S
N732 N731 1.388 . S
N732 C733 1.346 . S
C733 N732 1.346 . S
C733 C734 1.396 . S
C733 C743 1.510 . S
C734 C730 1.401 . S
C734 C733 1.396 . S
C735 C730 1.499 . S
C735 H736 0.959 1_655 S
C735 H737 0.960 . S
C735 H738 0.961 . S
H736 C735 0.959 1_455 S
H737 C735 0.960 . S
H738 C735 0.961 . S
O739 Co714 1.967 . S
O739 C747 1.258 . S
O740 Co715 1.941 . S
O740 C747 1.266 . S
H741 C743 0.959 . S
H742 C743 0.961 . S
C743 C733 1.510 . S
C743 H741 0.959 . S
C743 H742 0.961 . S
C743 H744 0.960 . S
H744 C743 0.960 . S
H745 N725 0.862 . S
O746 Co714 1.920 1_455 S
O746 C719 1.289 . S
C747 O739 1.258 . S
C747 O740 1.266 . S
Co748 O751 1.970 . S
Co748 N765 1.989 . S
Co748 O773 1.967 . S
Co748 O780 1.920 . S
Co749 O752 1.966 . S
Co749 N758 2.022 . S
Co749 N766 1.993 . S
Co749 O774 1.941 . S
C750 O751 1.258 . S
C750 O752 1.263 . S
O751 Co748 1.970 . S
O751 C750 1.258 . S
O752 Co749 1.966 . S
O752 C750 1.263 . S
C753 O754 1.235 . S
C753 O780 1.289 . S
O754 C753 1.235 . S
C755 C757 1.400 . S
C755 N758 1.351 . S
C755 C760 1.501 . S
C756 C757 1.387 . S
C756 N759 1.341 . S
C757 C755 1.400 . S
C757 C756 1.387 . S
N758 Co749 2.022 . S
N758 C755 1.351 . S
N758 N759 1.365 . S
N759 C756 1.341 . S
N759 N758 1.365 . S
N759 H779 0.862 . S
C760 C755 1.501 . S
C760 H761 0.961 . S
C760 H762 0.961 . S
C760 H763 0.960 . S
H761 C760 0.961 . S
H762 C760 0.961 . S
H763 C760 0.960 . S
C764 N765 1.342 . S
C764 C768 1.401 . S
C764 C769 1.499 . S
N765 Co748 1.989 . S
N765 C764 1.342 . S
N765 N766 1.388 . S
N766 Co749 1.993 . S
N766 N765 1.388 . S
N766 C767 1.346 . S
C767 N766 1.346 . S
C767 C768 1.396 . S
C767 C777 1.510 . S
C768 C764 1.401 . S
C768 C767 1.396 . S
C769 C764 1.499 . S
C769 H770 0.959 . S
C769 H771 0.960 . S
C769 H772 0.961 . S
H770 C769 0.959 . S
H771 C769 0.960 . S
H772 C769 0.961 . S
O773 Co748 1.967 . S
O773 C781 1.258 . S
O774 Co749 1.941 . S
O774 C781 1.266 . S
H775 C777 0.959 . S
H776 C777 0.961 . S
C777 C767 1.510 . S
C777 H775 0.959 . S
C777 H776 0.961 . S
C777 H778 0.960 . S
H778 C777 0.960 . S
H779 N759 0.862 . S
O780 Co748 1.920 . S
O780 C753 1.289 . S
C781 O773 1.258 . S
C781 O774 1.266 . S
Co782 O785 1.970 . S
Co782 N799 1.989 . S
Co782 O807 1.967 . S
Co782 O814 1.920 . S
Co783 O786 1.966 . S
Co783 N792 2.022 . S
Co783 N800 1.993 . S
Co783 O808 1.941 . S
C784 O785 1.258 . S
C784 O786 1.263 . S
O785 Co782 1.970 . S
O785 C784 1.258 . S
O786 Co783 1.966 . S
O786 C784 1.263 . S
C787 O788 1.235 . S
C787 O814 1.289 . S
O788 C787 1.235 . S
C789 C791 1.400 . S
C789 N792 1.351 . S
C789 C794 1.501 . S
C790 C791 1.387 . S
C790 N793 1.341 . S
C791 C789 1.400 . S
C791 C790 1.387 . S
N792 Co783 2.022 . S
N792 C789 1.351 . S
N792 N793 1.365 . S
N793 C790 1.341 . S
N793 N792 1.365 . S
N793 H813 0.862 . S
C794 C789 1.501 . S
C794 H795 0.961 . S
C794 H796 0.961 . S
C794 H797 0.960 . S
H795 C794 0.961 . S
H796 C794 0.961 . S
H797 C794 0.960 . S
C798 N799 1.342 . S
C798 C802 1.401 . S
C798 C803 1.499 . S
N799 Co782 1.989 . S
N799 C798 1.342 . S
N799 N800 1.388 . S
N800 Co783 1.993 . S
N800 N799 1.388 . S
N800 C801 1.346 . S
C801 N800 1.346 . S
C801 C802 1.396 . S
C801 C811 1.510 . S
C802 C798 1.401 . S
C802 C801 1.396 . S
C803 C798 1.499 . S
C803 H804 0.959 . S
C803 H805 0.960 . S
C803 H806 0.961 . S
H804 C803 0.959 . S
H805 C803 0.960 . S
H806 C803 0.961 . S
O807 Co782 1.967 . S
O807 C815 1.258 . S
O808 Co783 1.941 . S
O808 C815 1.266 . S
H809 C811 0.959 . S
H810 C811 0.961 . S
C811 C801 1.510 . S
C811 H809 0.959 . S
C811 H810 0.961 . S
C811 H812 0.960 . S
H812 C811 0.960 . S
H813 N793 0.862 . S
O814 Co782 1.920 . S
O814 C787 1.289 . S
C815 O807 1.258 . S
C815 O808 1.266 . S
Co816 O819 1.970 . S
Co816 N833 1.989 . S
Co816 O841 1.967 . S
Co816 O848 1.920 . S
Co817 O820 1.966 . S
Co817 N826 2.022 . S
Co817 N834 1.993 . S
Co817 O842 1.941 . S
C818 O819 1.258 . S
C818 O820 1.263 . S
O819 Co816 1.970 . S
O819 C818 1.258 . S
O820 Co817 1.966 . S
O820 C818 1.263 . S
C821 O822 1.235 . S
C821 O848 1.289 . S
O822 C821 1.235 . S
C823 C825 1.400 . S
C823 N826 1.351 . S
C823 C828 1.501 . S
C824 C825 1.387 . S
C824 N827 1.341 . S
C825 C823 1.400 . S
C825 C824 1.387 . S
N826 Co817 2.022 . S
N826 C823 1.351 . S
N826 N827 1.365 . S
N827 C824 1.341 . S
N827 N826 1.365 . S
N827 H847 0.862 . S
C828 C823 1.501 . S
C828 H829 0.961 . S
C828 H830 0.961 . S
C828 H831 0.960 . S
H829 C828 0.961 . S
H830 C828 0.961 . S
H831 C828 0.960 . S
C832 N833 1.342 . S
C832 C836 1.401 . S
C832 C837 1.499 . S
N833 Co816 1.989 . S
N833 C832 1.342 . S
N833 N834 1.388 . S
N834 Co817 1.993 . S
N834 N833 1.388 . S
N834 C835 1.346 . S
C835 N834 1.346 . S
C835 C836 1.396 . S
C835 C845 1.510 . S
C836 C832 1.401 . S
C836 C835 1.396 . S
C837 C832 1.499 . S
C837 H838 0.959 . S
C837 H839 0.960 . S
C837 H840 0.961 . S
H838 C837 0.959 . S
H839 C837 0.960 . S
H840 C837 0.961 . S
O841 Co816 1.967 . S
O841 C849 1.258 . S
O842 Co817 1.941 . S
O842 C849 1.266 . S
H843 C845 0.959 . S
H844 C845 0.961 . S
C845 C835 1.510 . S
C845 H843 0.959 . S
C845 H844 0.961 . S
C845 H846 0.960 . S
H846 C845 0.960 . S
H847 N827 0.862 . S
O848 Co816 1.920 . S
O848 C821 1.289 . S
C849 O841 1.258 . S
C849 O842 1.266 . S
Co850 O853 1.970 . S
Co850 N867 1.989 . S
Co850 O875 1.967 . S
Co850 O882 1.920 . S
Co851 O854 1.966 . S
Co851 N860 2.022 . S
Co851 N868 1.993 . S
Co851 O876 1.941 . S
C852 O853 1.258 . S
C852 O854 1.263 . S
O853 Co850 1.970 . S
O853 C852 1.258 . S
O854 Co851 1.966 . S
O854 C852 1.263 . S
C855 O856 1.235 . S
C855 O882 1.289 . S
O856 C855 1.235 . S
C857 C859 1.400 . S
C857 N860 1.351 . S
C857 C862 1.501 . S
C858 C859 1.387 . S
C858 N861 1.341 . S
C859 C857 1.400 . S
C859 C858 1.387 . S
N860 Co851 2.022 . S
N860 C857 1.351 . S
N860 N861 1.365 . S
N861 C858 1.341 . S
N861 N860 1.365 . S
N861 H881 0.862 . S
C862 C857 1.501 . S
C862 H863 0.961 . S
C862 H864 0.961 . S
C862 H865 0.960 . S
H863 C862 0.961 . S
H864 C862 0.961 . S
H865 C862 0.960 . S
C866 N867 1.342 . S
C866 C870 1.401 . S
C866 C871 1.499 . S
N867 Co850 1.989 . S
N867 C866 1.342 . S
N867 N868 1.388 . S
N868 Co851 1.993 . S
N868 N867 1.388 . S
N868 C869 1.346 . S
C869 N868 1.346 . S
C869 C870 1.396 . S
C869 C879 1.510 . S
C870 C866 1.401 . S
C870 C869 1.396 . S
C871 C866 1.499 . S
C871 H872 0.959 . S
C871 H873 0.960 . S
C871 H874 0.961 . S
H872 C871 0.959 . S
H873 C871 0.960 . S
H874 C871 0.961 . S
O875 Co850 1.967 . S
O875 C883 1.258 . S
O876 Co851 1.941 . S
O876 C883 1.266 . S
H877 C879 0.959 . S
H878 C879 0.961 . S
C879 C869 1.510 . S
C879 H877 0.959 . S
C879 H878 0.961 . S
C879 H880 0.960 . S
H880 C879 0.960 . S
H881 N861 0.862 . S
O882 Co850 1.920 . S
O882 C855 1.289 . S
C883 O875 1.258 . S
C883 O876 1.266 . S
Co884 O887 1.970 . S
Co884 N901 1.989 . S
Co884 O909 1.967 . S
Co884 O916 1.920 . S
Co885 O888 1.966 . S
Co885 N894 2.022 . S
Co885 N902 1.993 . S
Co885 O910 1.941 . S
C886 O887 1.258 . S
C886 O888 1.263 . S
O887 Co884 1.970 . S
O887 C886 1.258 . S
O888 Co885 1.966 . S
O888 C886 1.263 . S
C889 O890 1.235 . S
C889 O916 1.289 . S
O890 C889 1.235 . S
C891 C893 1.400 . S
C891 N894 1.351 . S
C891 C896 1.501 . S
C892 C893 1.387 . S
C892 N895 1.341 . S
C893 C891 1.400 . S
C893 C892 1.387 . S
N894 Co885 2.022 . S
N894 C891 1.351 . S
N894 N895 1.365 . S
N895 C892 1.341 . S
N895 N894 1.365 . S
N895 H915 0.862 . S
C896 C891 1.501 . S
C896 H897 0.961 . S
C896 H898 0.961 . S
C896 H899 0.960 . S
H897 C896 0.961 . S
H898 C896 0.961 . S
H899 C896 0.960 . S
C900 N901 1.342 . S
C900 C904 1.401 . S
C900 C905 1.499 . S
N901 Co884 1.989 . S
N901 C900 1.342 . S
N901 N902 1.388 . S
N902 Co885 1.993 . S
N902 N901 1.388 . S
N902 C903 1.346 . S
C903 N902 1.346 . S
C903 C904 1.396 . S
C903 C913 1.510 . S
C904 C900 1.401 . S
C904 C903 1.396 . S
C905 C900 1.499 . S
C905 H906 0.959 . S
C905 H907 0.960 . S
C905 H908 0.961 . S
H906 C905 0.959 . S
H907 C905 0.960 . S
H908 C905 0.961 . S
O909 Co884 1.967 . S
O909 C917 1.258 . S
O910 Co885 1.941 . S
O910 C917 1.266 . S
H911 C913 0.959 . S
H912 C913 0.961 . S
C913 C903 1.510 . S
C913 H911 0.959 . S
C913 H912 0.961 . S
C913 H914 0.960 . S
H914 C913 0.960 . S
H915 N895 0.862 . S
O916 Co884 1.920 . S
O916 C889 1.289 . S
C917 O909 1.258 . S
C917 O910 1.266 . S
Co918 O921 1.970 . S
Co918 N935 1.989 . S
Co918 O943 1.967 . S
Co918 O950 1.920 1_455 S
Co919 O922 1.966 . S
Co919 N928 2.022 . S
Co919 N936 1.993 . S
Co919 O944 1.941 . S
C920 O921 1.258 . S
C920 O922 1.263 . S
O921 Co918 1.970 . S
O921 C920 1.258 . S
O922 Co919 1.966 . S
O922 C920 1.263 . S
C923 O924 1.235 . S
C923 O950 1.289 . S
O924 C923 1.235 . S
C925 C927 1.400 . S
C925 N928 1.351 . S
C925 C930 1.501 . S
C926 C927 1.387 . S
C926 N929 1.341 . S
C927 C925 1.400 . S
C927 C926 1.387 . S
N928 Co919 2.022 . S
N928 C925 1.351 . S
N928 N929 1.365 . S
N929 C926 1.341 . S
N929 N928 1.365 . S
N929 H949 0.862 . S
C930 C925 1.501 . S
C930 H931 0.961 . S
C930 H932 0.961 . S
C930 H933 0.960 . S
H931 C930 0.961 . S
H932 C930 0.961 . S
H933 C930 0.960 . S
C934 N935 1.342 . S
C934 C938 1.401 . S
C934 C939 1.499 . S
N935 Co918 1.989 . S
N935 C934 1.342 . S
N935 N936 1.388 . S
N936 Co919 1.993 . S
N936 N935 1.388 . S
N936 C937 1.346 . S
C937 N936 1.346 . S
C937 C938 1.396 . S
C937 C947 1.510 . S
C938 C934 1.401 . S
C938 C937 1.396 . S
C939 C934 1.499 . S
C939 H940 0.959 1_455 S
C939 H941 0.960 . S
C939 H942 0.961 . S
H940 C939 0.959 1_655 S
H941 C939 0.960 . S
H942 C939 0.961 . S
O943 Co918 1.967 . S
O943 C951 1.258 . S
O944 Co919 1.941 . S
O944 C951 1.266 . S
H945 C947 0.959 . S
H946 C947 0.961 . S
C947 C937 1.510 . S
C947 H945 0.959 . S
C947 H946 0.961 . S
C947 H948 0.960 . S
H948 C947 0.960 . S
H949 N929 0.862 . S
O950 Co918 1.920 1_655 S
O950 C923 1.289 . S
C951 O943 1.258 . S
C951 O944 1.266 . S
Co952 O955 1.970 . S
Co952 N969 1.989 . S
Co952 O977 1.967 . S
Co952 O984 1.920 . S
Co953 O956 1.966 . S
Co953 N962 2.022 . S
Co953 N970 1.993 . S
Co953 O978 1.941 . S
C954 O955 1.258 . S
C954 O956 1.263 . S
O955 Co952 1.970 . S
O955 C954 1.258 . S
O956 Co953 1.966 . S
O956 C954 1.263 . S
C957 O958 1.235 . S
C957 O984 1.289 . S
O958 C957 1.235 . S
C959 C961 1.400 . S
C959 N962 1.351 . S
C959 C964 1.501 . S
C960 C961 1.387 . S
C960 N963 1.341 . S
C961 C959 1.400 . S
C961 C960 1.387 . S
N962 Co953 2.022 . S
N962 C959 1.351 . S
N962 N963 1.365 . S
N963 C960 1.341 . S
N963 N962 1.365 . S
N963 H983 0.862 . S
C964 C959 1.501 . S
C964 H965 0.961 . S
C964 H966 0.961 . S
C964 H967 0.960 . S
H965 C964 0.961 . S
H966 C964 0.961 . S
H967 C964 0.960 . S
C968 N969 1.342 . S
C968 C972 1.401 . S
C968 C973 1.499 . S
N969 Co952 1.989 . S
N969 C968 1.342 . S
N969 N970 1.388 . S
N970 Co953 1.993 . S
N970 N969 1.388 . S
N970 C971 1.346 . S
C971 N970 1.346 . S
C971 C972 1.396 . S
C971 C981 1.510 . S
C972 C968 1.401 . S
C972 C971 1.396 . S
C973 C968 1.499 . S
C973 H974 0.959 . S
C973 H975 0.960 . S
C973 H976 0.961 . S
H974 C973 0.959 . S
H975 C973 0.960 . S
H976 C973 0.961 . S
O977 Co952 1.967 . S
O977 C985 1.258 . S
O978 Co953 1.941 . S
O978 C985 1.266 . S
H979 C981 0.959 . S
H980 C981 0.961 . S
C981 C971 1.510 . S
C981 H979 0.959 . S
C981 H980 0.961 . S
C981 H982 0.960 . S
H982 C981 0.960 . S
H983 N963 0.862 . S
O984 Co952 1.920 . S
O984 C957 1.289 . S
C985 O977 1.258 . S
C985 O978 1.266 . S
Co986 O989 1.970 . S
Co986 N1003 1.989 . S
Co986 O1011 1.967 . S
Co986 O1018 1.920 1_455 S
Co987 O990 1.966 . S
Co987 N996 2.022 . S
Co987 N1004 1.993 . S
Co987 O1012 1.941 . S
C988 O989 1.258 . S
C988 O990 1.263 . S
O989 Co986 1.970 . S
O989 C988 1.258 . S
O990 Co987 1.966 . S
O990 C988 1.263 . S
C991 O992 1.235 . S
C991 O1018 1.289 . S
O992 C991 1.235 . S
C993 C995 1.400 . S
C993 N996 1.351 . S
C993 C998 1.501 . S
C994 C995 1.387 . S
C994 N997 1.341 . S
C995 C993 1.400 . S
C995 C994 1.387 . S
N996 Co987 2.022 . S
N996 C993 1.351 . S
N996 N997 1.365 . S
N997 C994 1.341 . S
N997 N996 1.365 . S
N997 H1017 0.862 . S
C998 C993 1.501 . S
C998 H999 0.961 . S
C998 H1000 0.961 . S
C998 H1001 0.960 . S
H999 C998 0.961 . S
H1000 C998 0.961 . S
H1001 C998 0.960 . S
C1002 N1003 1.342 . S
C1002 C1006 1.401 . S
C1002 C1007 1.499 . S
N1003 Co986 1.989 . S
N1003 C1002 1.342 . S
N1003 N1004 1.388 . S
N1004 Co987 1.993 . S
N1004 N1003 1.388 . S
N1004 C1005 1.346 . S
C1005 N1004 1.346 . S
C1005 C1006 1.396 . S
C1005 C1015 1.510 . S
C1006 C1002 1.401 . S
C1006 C1005 1.396 . S
C1007 C1002 1.499 . S
C1007 H1008 0.959 1_455 S
C1007 H1009 0.960 . S
C1007 H1010 0.961 . S
H1008 C1007 0.959 1_655 S
H1009 C1007 0.960 . S
H1010 C1007 0.961 . S
O1011 Co986 1.967 . S
O1011 C1019 1.258 . S
O1012 Co987 1.941 . S
O1012 C1019 1.266 . S
H1013 C1015 0.959 . S
H1014 C1015 0.961 . S
C1015 C1005 1.510 . S
C1015 H1013 0.959 . S
C1015 H1014 0.961 . S
C1015 H1016 0.960 . S
H1016 C1015 0.960 . S
H1017 N997 0.862 . S
O1018 Co986 1.920 1_655 S
O1018 C991 1.289 . S
C1019 O1011 1.258 . S
C1019 O1012 1.266 . S
Co1020 O1023 1.970 . S
Co1020 N1037 1.989 . S
Co1020 O1045 1.967 . S
Co1020 O1052 1.920 . S
Co1021 O1024 1.966 . S
Co1021 N1030 2.022 . S
Co1021 N1038 1.993 . S
Co1021 O1046 1.941 . S
C1022 O1023 1.258 . S
C1022 O1024 1.263 . S
O1023 Co1020 1.970 . S
O1023 C1022 1.258 . S
O1024 Co1021 1.966 . S
O1024 C1022 1.263 . S
C1025 O1026 1.235 . S
C1025 O1052 1.289 . S
O1026 C1025 1.235 . S
C1027 C1029 1.400 . S
C1027 N1030 1.351 . S
C1027 C1032 1.501 . S
C1028 C1029 1.387 . S
C1028 N1031 1.341 . S
C1029 C1027 1.400 . S
C1029 C1028 1.387 . S
N1030 Co1021 2.022 . S
N1030 C1027 1.351 . S
N1030 N1031 1.365 . S
N1031 C1028 1.341 . S
N1031 N1030 1.365 . S
N1031 H1051 0.862 . S
C1032 C1027 1.501 . S
C1032 H1033 0.961 . S
C1032 H1034 0.961 . S
C1032 H1035 0.960 . S
H1033 C1032 0.961 . S
H1034 C1032 0.961 . S
H1035 C1032 0.960 . S
C1036 N1037 1.342 . S
C1036 C1040 1.401 . S
C1036 C1041 1.499 . S
N1037 Co1020 1.989 . S
N1037 C1036 1.342 . S
N1037 N1038 1.388 . S
N1038 Co1021 1.993 . S
N1038 N1037 1.388 . S
N1038 C1039 1.346 . S
C1039 N1038 1.346 . S
C1039 C1040 1.396 . S
C1039 C1049 1.510 . S
C1040 C1036 1.401 . S
C1040 C1039 1.396 . S
C1041 C1036 1.499 . S
C1041 H1042 0.959 . S
C1041 H1043 0.960 . S
C1041 H1044 0.961 . S
H1042 C1041 0.959 . S
H1043 C1041 0.960 . S
H1044 C1041 0.961 . S
O1045 Co1020 1.967 . S
O1045 C1053 1.258 . S
O1046 Co1021 1.941 . S
O1046 C1053 1.266 . S
H1047 C1049 0.959 . S
H1048 C1049 0.961 . S
C1049 C1039 1.510 . S
C1049 H1047 0.959 . S
C1049 H1048 0.961 . S
C1049 H1050 0.960 . S
H1050 C1049 0.960 . S
H1051 N1031 0.862 . S
O1052 Co1020 1.920 . S
O1052 C1025 1.289 . S
C1053 O1045 1.258 . S
C1053 O1046 1.266 . S
Co1054 O1057 1.970 . S
Co1054 N1071 1.989 . S
Co1054 O1079 1.967 . S
Co1054 O1086 1.920 . S
Co1055 O1058 1.966 . S
Co1055 N1064 2.022 . S
Co1055 N1072 1.993 . S
Co1055 O1080 1.941 . S
C1056 O1057 1.258 . S
C1056 O1058 1.263 . S
O1057 Co1054 1.970 . S
O1057 C1056 1.258 . S
O1058 Co1055 1.966 . S
O1058 C1056 1.263 . S
C1059 O1060 1.235 . S
C1059 O1086 1.289 . S
O1060 C1059 1.235 . S
C1061 C1063 1.400 . S
C1061 N1064 1.351 . S
C1061 C1066 1.501 . S
C1062 C1063 1.387 . S
C1062 N1065 1.341 . S
C1063 C1061 1.400 . S
C1063 C1062 1.387 . S
N1064 Co1055 2.022 . S
N1064 C1061 1.351 . S
N1064 N1065 1.365 . S
N1065 C1062 1.341 . S
N1065 N1064 1.365 . S
N1065 H1085 0.862 . S
C1066 C1061 1.501 . S
C1066 H1067 0.961 . S
C1066 H1068 0.961 . S
C1066 H1069 0.960 . S
H1067 C1066 0.961 . S
H1068 C1066 0.961 . S
H1069 C1066 0.960 . S
C1070 N1071 1.342 . S
C1070 C1074 1.401 . S
C1070 C1075 1.499 . S
N1071 Co1054 1.989 . S
N1071 C1070 1.342 . S
N1071 N1072 1.388 . S
N1072 Co1055 1.993 . S
N1072 N1071 1.388 . S
N1072 C1073 1.346 . S
C1073 N1072 1.346 . S
C1073 C1074 1.396 . S
C1073 C1083 1.510 . S
C1074 C1070 1.401 . S
C1074 C1073 1.396 . S
C1075 C1070 1.499 . S
C1075 H1076 0.959 . S
C1075 H1077 0.960 . S
C1075 H1078 0.961 . S
H1076 C1075 0.959 . S
H1077 C1075 0.960 . S
H1078 C1075 0.961 . S
O1079 Co1054 1.967 . S
O1079 C1087 1.258 . S
O1080 Co1055 1.941 . S
O1080 C1087 1.266 . S
H1081 C1083 0.959 . S
H1082 C1083 0.961 . S
C1083 C1073 1.510 . S
C1083 H1081 0.959 . S
C1083 H1082 0.961 . S
C1083 H1084 0.960 . S
H1084 C1083 0.960 . S
H1085 N1065 0.862 . S
O1086 Co1054 1.920 . S
O1086 C1059 1.289 . S
C1087 O1079 1.258 . S
C1087 O1080 1.266 . S
H1088 C1094 0.930 . S
H1089 C1098 0.930 . S
H1090 C1103 0.929 . S
H1091 C1101 0.929 . S
H1092 C1096 0.929 . S
H1093 C1102 0.929 . S
C1094 H1088 0.930 . S
C1094 C1095 1.367 . S
C1094 C1102 1.378 . S
C1095 C1094 1.367 . S
C1095 C1103 1.433 . S
C1096 H1092 0.929 . S
C1096 C1098 1.378 . S
C1096 C1100 1.350 . S
C1097 C1100 1.463 . S
C1097 C1102 1.350 . S
C1097 N1105 1.427 . S
C1098 H1089 0.930 . S
C1098 C1096 1.378 . S
C1098 C1099 1.367 . S
C1099 C1098 1.367 . S
C1099 C1101 1.433 . S
C1100 C1096 1.350 . S
C1100 C1097 1.463 . S
C1100 N1104 1.427 . S
C1101 H1091 0.929 . S
C1101 C1099 1.433 . S
C1101 N1104 1.384 . S
C1102 H1093 0.929 . S
C1102 C1094 1.378 . S
C1102 C1097 1.350 . S
C1103 H1090 0.929 . S
C1103 C1095 1.433 . S
C1103 N1105 1.384 . S
N1104 C1100 1.427 . S
N1104 C1101 1.384 . S
N1105 C1097 1.427 . S
N1105 C1103 1.384 . S
H1106 C1112 0.930 . S
H1107 C1116 0.930 . S
H1108 C1121 0.929 . S
H1109 C1119 0.929 . S
H1110 C1114 0.929 . S
H1111 C1120 0.929 . S
C1112 H1106 0.930 . S
C1112 C1113 1.367 . S
C1112 C1120 1.378 . S
C1113 C1112 1.367 . S
C1113 C1121 1.433 . S
C1114 H1110 0.929 . S
C1114 C1116 1.378 . S
C1114 C1118 1.350 . S
C1115 C1118 1.463 . S
C1115 C1120 1.350 . S
C1115 N1123 1.427 . S
C1116 H1107 0.930 . S
C1116 C1114 1.378 . S
C1116 C1117 1.367 . S
C1117 C1116 1.367 . S
C1117 C1119 1.433 . S
C1118 C1114 1.350 . S
C1118 C1115 1.463 . S
C1118 N1122 1.427 . S
C1119 H1109 0.929 . S
C1119 C1117 1.433 . S
C1119 N1122 1.384 . S
C1120 H1111 0.929 . S
C1120 C1112 1.378 . S
C1120 C1115 1.350 . S
C1121 H1108 0.929 . S
C1121 C1113 1.433 . S
C1121 N1123 1.384 . S
N1122 C1118 1.427 . S
N1122 C1119 1.384 . S
N1123 C1115 1.427 . S
N1123 C1121 1.384 . S
H1124 C1130 0.930 . S
H1125 C1134 0.930 . S
H1126 C1139 0.929 . S
H1127 C1137 0.929 . S
H1128 C1132 0.929 . S
H1129 C1138 0.929 . S
C1130 H1124 0.930 . S
C1130 C1131 1.367 . S
C1130 C1138 1.378 . S
C1131 C1130 1.367 . S
C1131 C1139 1.433 . S
C1132 H1128 0.929 . S
C1132 C1134 1.378 . S
C1132 C1136 1.350 . S
C1133 C1136 1.463 . S
C1133 C1138 1.350 . S
C1133 N1141 1.427 . S
C1134 H1125 0.930 . S
C1134 C1132 1.378 . S
C1134 C1135 1.367 . S
C1135 C1134 1.367 . S
C1135 C1137 1.433 . S
C1136 C1132 1.350 . S
C1136 C1133 1.463 . S
C1136 N1140 1.427 . S
C1137 H1127 0.929 . S
C1137 C1135 1.433 . S
C1137 N1140 1.384 . S
C1138 H1129 0.929 . S
C1138 C1130 1.378 . S
C1138 C1133 1.350 . S
C1139 H1126 0.929 . S
C1139 C1131 1.433 . S
C1139 N1141 1.384 . S
N1140 C1136 1.427 . S
N1140 C1137 1.384 . S
N1141 C1133 1.427 . S
N1141 C1139 1.384 . S
H1142 C1148 0.930 . S
H1143 C1152 0.930 . S
H1144 C1157 0.929 . S
H1145 C1155 0.929 . S
H1146 C1150 0.929 . S
H1147 C1156 0.929 . S
C1148 H1142 0.930 . S
C1148 C1149 1.367 . S
C1148 C1156 1.378 . S
C1149 C1148 1.367 . S
C1149 C1157 1.433 . S
C1150 H1146 0.929 . S
C1150 C1152 1.378 . S
C1150 C1154 1.350 . S
C1151 C1154 1.463 . S
C1151 C1156 1.350 . S
C1151 N1159 1.427 . S
C1152 H1143 0.930 . S
C1152 C1150 1.378 . S
C1152 C1153 1.367 . S
C1153 C1152 1.367 . S
C1153 C1155 1.433 . S
C1154 C1150 1.350 . S
C1154 C1151 1.463 . S
C1154 N1158 1.427 . S
C1155 H1145 0.929 . S
C1155 C1153 1.433 . S
C1155 N1158 1.384 . S
C1156 H1147 0.929 . S
C1156 C1148 1.378 . S
C1156 C1151 1.350 . S
C1157 H1144 0.929 . S
C1157 C1149 1.433 . S
C1157 N1159 1.384 . S
N1158 C1154 1.427 . S
N1158 C1155 1.384 . S
N1159 C1151 1.427 . S
N1159 C1157 1.384 . S
H1160 C1166 0.930 . S
H1161 C1170 0.930 . S
H1162 C1175 0.929 . S
H1163 C1173 0.929 . S
H1164 C1168 0.929 . S
H1165 C1174 0.929 . S
C1166 H1160 0.930 . S
C1166 C1167 1.367 . S
C1166 C1174 1.378 . S
C1167 C1166 1.367 . S
C1167 C1175 1.433 . S
C1168 H1164 0.929 . S
C1168 C1170 1.378 . S
C1168 C1172 1.350 . S
C1169 C1172 1.463 . S
C1169 C1174 1.350 . S
C1169 N1177 1.427 . S
C1170 H1161 0.930 . S
C1170 C1168 1.378 . S
C1170 C1171 1.367 . S
C1171 C1170 1.367 . S
C1171 C1173 1.433 . S
C1172 C1168 1.350 . S
C1172 C1169 1.463 . S
C1172 N1176 1.427 . S
C1173 H1163 0.929 . S
C1173 C1171 1.433 . S
C1173 N1176 1.384 . S
C1174 H1165 0.929 . S
C1174 C1166 1.378 . S
C1174 C1169 1.350 . S
C1175 H1162 0.929 . S
C1175 C1167 1.433 . S
C1175 N1177 1.384 . S
N1176 C1172 1.427 . S
N1176 C1173 1.384 . S
N1177 C1169 1.427 . S
N1177 C1175 1.384 . S
H1178 C1184 0.930 . S
H1179 C1188 0.930 . S
H1180 C1193 0.929 . S
H1181 C1191 0.929 . S
H1182 C1186 0.929 . S
H1183 C1192 0.929 . S
C1184 H1178 0.930 . S
C1184 C1185 1.367 . S
C1184 C1192 1.378 . S
C1185 C1184 1.367 . S
C1185 C1193 1.433 . S
C1186 H1182 0.929 . S
C1186 C1188 1.378 . S
C1186 C1190 1.350 . S
C1187 C1190 1.463 . S
C1187 C1192 1.350 . S
C1187 N1195 1.427 . S
C1188 H1179 0.930 . S
C1188 C1186 1.378 . S
C1188 C1189 1.367 . S
C1189 C1188 1.367 . S
C1189 C1191 1.433 . S
C1190 C1186 1.350 . S
C1190 C1187 1.463 . S
C1190 N1194 1.427 . S
C1191 H1181 0.929 . S
C1191 C1189 1.433 . S
C1191 N1194 1.384 . S
C1192 H1183 0.929 . S
C1192 C1184 1.378 . S
C1192 C1187 1.350 . S
C1193 H1180 0.929 . S
C1193 C1185 1.433 . S
C1193 N1195 1.384 . S
N1194 C1190 1.427 . S
N1194 C1191 1.384 . S
N1195 C1187 1.427 . S
N1195 C1193 1.384 . S
H1196 C1202 0.930 . S
H1197 C1206 0.930 . S
H1198 C1211 0.929 . S
H1199 C1209 0.929 . S
H1200 C1204 0.929 . S
H1201 C1210 0.929 . S
C1202 H1196 0.930 . S
C1202 C1203 1.367 . S
C1202 C1210 1.378 . S
C1203 C1202 1.367 . S
C1203 C1211 1.433 . S
C1204 H1200 0.929 . S
C1204 C1206 1.378 . S
C1204 C1208 1.350 . S
C1205 C1208 1.463 . S
C1205 C1210 1.350 . S
C1205 N1213 1.427 . S
C1206 H1197 0.930 . S
C1206 C1204 1.378 . S
C1206 C1207 1.367 . S
C1207 C1206 1.367 . S
C1207 C1209 1.433 . S
C1208 C1204 1.350 . S
C1208 C1205 1.463 . S
C1208 N1212 1.427 . S
C1209 H1199 0.929 . S
C1209 C1207 1.433 . S
C1209 N1212 1.384 . S
C1210 H1201 0.929 . S
C1210 C1202 1.378 . S
C1210 C1205 1.350 . S
C1211 H1198 0.929 . S
C1211 C1203 1.433 . S
C1211 N1213 1.384 . S
N1212 C1208 1.427 . S
N1212 C1209 1.384 . S
N1213 C1205 1.427 . S
N1213 C1211 1.384 . S
H1214 C1220 0.930 . S
H1215 C1224 0.930 . S
H1216 C1229 0.929 . S
H1217 C1227 0.929 . S
H1218 C1222 0.929 . S
H1219 C1228 0.929 . S
C1220 H1214 0.930 . S
C1220 C1221 1.367 . S
C1220 C1228 1.378 . S
C1221 C1220 1.367 . S
C1221 C1229 1.433 . S
C1222 H1218 0.929 . S
C1222 C1224 1.378 . S
C1222 C1226 1.350 . S
C1223 C1226 1.463 . S
C1223 C1228 1.350 . S
C1223 N1231 1.427 . S
C1224 H1215 0.930 . S
C1224 C1222 1.378 . S
C1224 C1225 1.367 . S
C1225 C1224 1.367 . S
C1225 C1227 1.433 . S
C1226 C1222 1.350 . S
C1226 C1223 1.463 . S
C1226 N1230 1.427 . S
C1227 H1217 0.929 . S
C1227 C1225 1.433 . S
C1227 N1230 1.384 . S
C1228 H1219 0.929 . S
C1228 C1220 1.378 . S
C1228 C1223 1.350 . S
C1229 H1216 0.929 . S
C1229 C1221 1.433 . S
C1229 N1231 1.384 . S
N1230 C1226 1.427 . S
N1230 C1227 1.384 . S
N1231 C1223 1.427 . S
N1231 C1229 1.384 . S
H1232 C1238 0.930 . S
H1233 C1242 0.930 . S
H1234 C1247 0.929 . S
H1235 C1245 0.929 . S
H1236 C1240 0.929 . S
H1237 C1246 0.929 . S
C1238 H1232 0.930 . S
C1238 C1239 1.367 . S
C1238 C1246 1.378 . S
C1239 C1238 1.367 . S
C1239 C1247 1.433 . S
C1240 H1236 0.929 . S
C1240 C1242 1.378 . S
C1240 C1244 1.350 . S
C1241 C1244 1.463 . S
C1241 C1246 1.350 . S
C1241 N1249 1.427 . S
C1242 H1233 0.930 . S
C1242 C1240 1.378 . S
C1242 C1243 1.367 . S
C1243 C1242 1.367 . S
C1243 C1245 1.433 . S
C1244 C1240 1.350 . S
C1244 C1241 1.463 . S
C1244 N1248 1.427 . S
C1245 H1235 0.929 . S
C1245 C1243 1.433 . S
C1245 N1248 1.384 . S
C1246 H1237 0.929 . S
C1246 C1238 1.378 . S
C1246 C1241 1.350 . S
C1247 H1234 0.929 . S
C1247 C1239 1.433 . S
C1247 N1249 1.384 . S
N1248 C1244 1.427 . S
N1248 C1245 1.384 . S
N1249 C1241 1.427 . S
N1249 C1247 1.384 . S
H1250 C1256 0.930 . S
H1251 C1260 0.930 . S
H1252 C1265 0.929 . S
H1253 C1263 0.929 . S
H1254 C1258 0.929 . S
H1255 C1264 0.929 . S
C1256 H1250 0.930 . S
C1256 C1257 1.367 . S
C1256 C1264 1.378 . S
C1257 C1256 1.367 . S
C1257 C1265 1.433 . S
C1258 H1254 0.929 . S
C1258 C1260 1.378 . S
C1258 C1262 1.350 . S
C1259 C1262 1.463 . S
C1259 C1264 1.350 . S
C1259 N1267 1.427 . S
C1260 H1251 0.930 . S
C1260 C1258 1.378 . S
C1260 C1261 1.367 . S
C1261 C1260 1.367 . S
C1261 C1263 1.433 . S
C1262 C1258 1.350 . S
C1262 C1259 1.463 . S
C1262 N1266 1.427 . S
C1263 H1253 0.929 . S
C1263 C1261 1.433 . S
C1263 N1266 1.384 . S
C1264 H1255 0.929 . S
C1264 C1256 1.378 . S
C1264 C1259 1.350 . S
C1265 H1252 0.929 . S
C1265 C1257 1.433 . S
C1265 N1267 1.384 . S
N1266 C1262 1.427 . S
N1266 C1263 1.384 . S
N1267 C1259 1.427 . S
N1267 C1265 1.384 . S
H1268 C1274 0.930 . S
H1269 C1278 0.930 . S
H1270 C1283 0.929 . S
H1271 C1281 0.929 . S
H1272 C1276 0.929 . S
H1273 C1282 0.929 . S
C1274 H1268 0.930 . S
C1274 C1275 1.367 . S
C1274 C1282 1.378 . S
C1275 C1274 1.367 . S
C1275 C1283 1.433 . S
C1276 H1272 0.929 . S
C1276 C1278 1.378 . S
C1276 C1280 1.350 . S
C1277 C1280 1.463 . S
C1277 C1282 1.350 . S
C1277 N1285 1.427 . S
C1278 H1269 0.930 . S
C1278 C1276 1.378 . S
C1278 C1279 1.367 . S
C1279 C1278 1.367 . S
C1279 C1281 1.433 . S
C1280 C1276 1.350 . S
C1280 C1277 1.463 . S
C1280 N1284 1.427 . S
C1281 H1271 0.929 . S
C1281 C1279 1.433 . S
C1281 N1284 1.384 . S
C1282 H1273 0.929 . S
C1282 C1274 1.378 . S
C1282 C1277 1.350 . S
C1283 H1270 0.929 . S
C1283 C1275 1.433 . S
C1283 N1285 1.384 . S
N1284 C1280 1.427 . S
N1284 C1281 1.384 . S
N1285 C1277 1.427 . S
N1285 C1283 1.384 . S
H1286 C1292 0.930 . S
H1287 C1296 0.930 . S
H1288 C1301 0.929 . S
H1289 C1299 0.929 . S
H1290 C1294 0.929 . S
H1291 C1300 0.929 . S
C1292 H1286 0.930 . S
C1292 C1293 1.367 . S
C1292 C1300 1.378 . S
C1293 C1292 1.367 . S
C1293 C1301 1.433 . S
C1294 H1290 0.929 . S
C1294 C1296 1.378 . S
C1294 C1298 1.350 . S
C1295 C1298 1.463 . S
C1295 C1300 1.350 . S
C1295 N1303 1.427 . S
C1296 H1287 0.930 . S
C1296 C1294 1.378 . S
C1296 C1297 1.367 . S
C1297 C1296 1.367 . S
C1297 C1299 1.433 . S
C1298 C1294 1.350 . S
C1298 C1295 1.463 . S
C1298 N1302 1.427 . S
C1299 H1289 0.929 . S
C1299 C1297 1.433 . S
C1299 N1302 1.384 . S
C1300 H1291 0.929 . S
C1300 C1292 1.378 . S
C1300 C1295 1.350 . S
C1301 H1288 0.929 . S
C1301 C1293 1.433 . S
C1301 N1303 1.384 . S
N1302 C1298 1.427 . S
N1302 C1299 1.384 . S
N1303 C1295 1.427 . S
N1303 C1301 1.384 . S
H1304 C1310 0.930 . S
H1305 C1314 0.930 . S
H1306 C1319 0.929 . S
H1307 C1317 0.929 . S
H1308 C1312 0.929 . S
H1309 C1318 0.929 . S
C1310 H1304 0.930 . S
C1310 C1311 1.367 . S
C1310 C1318 1.378 . S
C1311 C1310 1.367 . S
C1311 C1319 1.433 . S
C1312 H1308 0.929 . S
C1312 C1314 1.378 . S
C1312 C1316 1.350 . S
C1313 C1316 1.463 . S
C1313 C1318 1.350 . S
C1313 N1321 1.427 . S
C1314 H1305 0.930 . S
C1314 C1312 1.378 . S
C1314 C1315 1.367 . S
C1315 C1314 1.367 . S
C1315 C1317 1.433 . S
C1316 C1312 1.350 . S
C1316 C1313 1.463 . S
C1316 N1320 1.427 . S
C1317 H1307 0.929 . S
C1317 C1315 1.433 . S
C1317 N1320 1.384 . S
C1318 H1309 0.929 . S
C1318 C1310 1.378 . S
C1318 C1313 1.350 . S
C1319 H1306 0.929 . S
C1319 C1311 1.433 . S
C1319 N1321 1.384 . S
N1320 C1316 1.427 . S
N1320 C1317 1.384 . S
N1321 C1313 1.427 . S
N1321 C1319 1.384 . S
H1322 C1328 0.930 . S
H1323 C1332 0.930 . S
H1324 C1337 0.929 . S
H1325 C1335 0.929 . S
H1326 C1330 0.929 . S
H1327 C1336 0.929 . S
C1328 H1322 0.930 . S
C1328 C1329 1.367 . S
C1328 C1336 1.378 . S
C1329 C1328 1.367 . S
C1329 C1337 1.433 . S
C1330 H1326 0.929 . S
C1330 C1332 1.378 . S
C1330 C1334 1.350 . S
C1331 C1334 1.463 . S
C1331 C1336 1.350 . S
C1331 N1339 1.427 . S
C1332 H1323 0.930 . S
C1332 C1330 1.378 . S
C1332 C1333 1.367 . S
C1333 C1332 1.367 . S
C1333 C1335 1.433 . S
C1334 C1330 1.350 . S
C1334 C1331 1.463 . S
C1334 N1338 1.427 . S
C1335 H1325 0.929 . S
C1335 C1333 1.433 . S
C1335 N1338 1.384 . S
C1336 H1327 0.929 . S
C1336 C1328 1.378 . S
C1336 C1331 1.350 . S
C1337 H1324 0.929 . S
C1337 C1329 1.433 . S
C1337 N1339 1.384 . S
N1338 C1334 1.427 . S
N1338 C1335 1.384 . S
N1339 C1331 1.427 . S
N1339 C1337 1.384 . S
H1340 C1346 0.930 . S
H1341 C1350 0.930 . S
H1342 C1355 0.929 . S
H1343 C1353 0.929 . S
H1344 C1348 0.929 . S
H1345 C1354 0.929 . S
C1346 H1340 0.930 . S
C1346 C1347 1.367 . S
C1346 C1354 1.378 . S
C1347 C1346 1.367 . S
C1347 C1355 1.433 . S
C1348 H1344 0.929 . S
C1348 C1350 1.378 . S
C1348 C1352 1.350 . S
C1349 C1352 1.463 . S
C1349 C1354 1.350 . S
C1349 N1357 1.427 . S
C1350 H1341 0.930 . S
C1350 C1348 1.378 . S
C1350 C1351 1.367 . S
C1351 C1350 1.367 . S
C1351 C1353 1.433 . S
C1352 C1348 1.350 . S
C1352 C1349 1.463 . S
C1352 N1356 1.427 . S
C1353 H1343 0.929 . S
C1353 C1351 1.433 . S
C1353 N1356 1.384 . S
C1354 H1345 0.929 . S
C1354 C1346 1.378 . S
C1354 C1349 1.350 . S
C1355 H1342 0.929 . S
C1355 C1347 1.433 . S
C1355 N1357 1.384 . S
N1356 C1352 1.427 . S
N1356 C1353 1.384 . S
N1357 C1349 1.427 . S
N1357 C1355 1.384 . S
H1358 C1364 0.930 . S
H1359 C1368 0.930 . S
H1360 C1373 0.929 . S
H1361 C1371 0.929 . S
H1362 C1366 0.929 . S
H1363 C1372 0.929 . S
C1364 H1358 0.930 . S
C1364 C1365 1.367 . S
C1364 C1372 1.378 . S
C1365 C1364 1.367 . S
C1365 C1373 1.433 . S
C1366 H1362 0.929 . S
C1366 C1368 1.378 . S
C1366 C1370 1.350 . S
C1367 C1370 1.463 . S
C1367 C1372 1.350 . S
C1367 N1375 1.427 . S
C1368 H1359 0.930 . S
C1368 C1366 1.378 . S
C1368 C1369 1.367 . S
C1369 C1368 1.367 . S
C1369 C1371 1.433 . S
C1370 C1366 1.350 . S
C1370 C1367 1.463 . S
C1370 N1374 1.427 . S
C1371 H1361 0.929 . S
C1371 C1369 1.433 . S
C1371 N1374 1.384 . S
C1372 H1363 0.929 . S
C1372 C1364 1.378 . S
C1372 C1367 1.350 . S
C1373 H1360 0.929 . S
C1373 C1365 1.433 . S
C1373 N1375 1.384 . S
N1374 C1370 1.427 . S
N1374 C1371 1.384 . S
N1375 C1367 1.427 . S
N1375 C1373 1.384 . S
H1376 C1382 0.930 . S
H1377 C1386 0.930 . S
H1378 C1391 0.929 . S
H1379 C1389 0.929 . S
H1380 C1384 0.929 . S
H1381 C1390 0.929 . S
C1382 H1376 0.930 . S
C1382 C1383 1.367 . S
C1382 C1390 1.378 . S
C1383 C1382 1.367 . S
C1383 C1391 1.433 . S
C1384 H1380 0.929 . S
C1384 C1386 1.378 . S
C1384 C1388 1.350 . S
C1385 C1388 1.463 1_556 S
C1385 C1390 1.350 . S
C1385 N1393 1.427 . S
C1386 H1377 0.930 . S
C1386 C1384 1.378 . S
C1386 C1387 1.367 . S
C1387 C1386 1.367 . S
C1387 C1389 1.433 . S
C1388 C1384 1.350 . S
C1388 C1385 1.463 1_554 S
C1388 N1392 1.427 . S
C1389 H1379 0.929 . S
C1389 C1387 1.433 . S
C1389 N1392 1.384 . S
C1390 H1381 0.929 . S
C1390 C1382 1.378 . S
C1390 C1385 1.350 . S
C1391 H1378 0.929 . S
C1391 C1383 1.433 . S
C1391 N1393 1.384 . S
N1392 C1388 1.427 . S
N1392 C1389 1.384 . S
N1393 C1385 1.427 . S
N1393 C1391 1.384 . S
H1394 C1400 0.930 . S
H1395 C1404 0.930 . S
H1396 C1409 0.929 . S
H1397 C1407 0.929 . S
H1398 C1402 0.929 . S
H1399 C1408 0.929 . S
C1400 H1394 0.930 . S
C1400 C1401 1.367 . S
C1400 C1408 1.378 . S
C1401 C1400 1.367 . S
C1401 C1409 1.433 1_545 S
C1402 H1398 0.929 . S
C1402 C1404 1.378 . S
C1402 C1406 1.350 . S
C1403 C1406 1.463 1_545 S
C1403 C1408 1.350 . S
C1403 N1411 1.427 1_545 S
C1404 H1395 0.930 . S
C1404 C1402 1.378 . S
C1404 C1405 1.367 . S
C1405 C1404 1.367 . S
C1405 C1407 1.433 1_565 S
C1406 C1402 1.350 . S
C1406 C1403 1.463 1_565 S
C1406 N1410 1.427 1_565 S
C1407 H1397 0.929 . S
C1407 C1405 1.433 1_545 S
C1407 N1410 1.384 . S
C1408 H1399 0.929 . S
C1408 C1400 1.378 . S
C1408 C1403 1.350 . S
C1409 H1396 0.929 . S
C1409 C1401 1.433 1_565 S
C1409 N1411 1.384 . S
N1410 C1406 1.427 1_545 S
N1410 C1407 1.384 . S
N1411 C1403 1.427 1_565 S
N1411 C1409 1.384 . S
H1412 C1418 0.930 . S
H1413 C1422 0.930 . S
H1414 C1427 0.929 . S
H1415 C1425 0.929 . S
H1416 C1420 0.929 . S
H1417 C1426 0.929 . S
C1418 H1412 0.930 . S
C1418 C1419 1.367 . S
C1418 C1426 1.378 . S
C1419 C1418 1.367 . S
C1419 C1427 1.433 . S
C1420 H1416 0.929 . S
C1420 C1422 1.378 . S
C1420 C1424 1.350 . S
C1421 C1424 1.463 . S
C1421 C1426 1.350 . S
C1421 N1429 1.427 . S
C1422 H1413 0.930 . S
C1422 C1420 1.378 . S
C1422 C1423 1.367 . S
C1423 C1422 1.367 . S
C1423 C1425 1.433 . S
C1424 C1420 1.350 . S
C1424 C1421 1.463 . S
C1424 N1428 1.427 . S
C1425 H1415 0.929 . S
C1425 C1423 1.433 . S
C1425 N1428 1.384 . S
C1426 H1417 0.929 . S
C1426 C1418 1.378 . S
C1426 C1421 1.350 . S
C1427 H1414 0.929 . S
C1427 C1419 1.433 . S
C1427 N1429 1.384 . S
N1428 C1424 1.427 . S
N1428 C1425 1.384 . S
N1429 C1421 1.427 . S
N1429 C1427 1.384 . S
H1430 C1436 0.930 . S
H1431 C1440 0.930 . S
H1432 C1445 0.929 . S
H1433 C1443 0.929 . S
H1434 C1438 0.929 . S
H1435 C1444 0.929 . S
C1436 H1430 0.930 . S
C1436 C1437 1.367 . S
C1436 C1444 1.378 . S
C1437 C1436 1.367 . S
C1437 C1445 1.433 1_565 S
C1438 H1434 0.929 . S
C1438 C1440 1.378 . S
C1438 C1442 1.350 . S
C1439 C1442 1.463 1_565 S
C1439 C1444 1.350 . S
C1439 N1447 1.427 1_565 S
C1440 H1431 0.930 . S
C1440 C1438 1.378 . S
C1440 C1441 1.367 . S
C1441 C1440 1.367 . S
C1441 C1443 1.433 1_545 S
C1442 C1438 1.350 . S
C1442 C1439 1.463 1_545 S
C1442 N1446 1.427 1_545 S
C1443 H1433 0.929 . S
C1443 C1441 1.433 1_565 S
C1443 N1446 1.384 . S
C1444 H1435 0.929 . S
C1444 C1436 1.378 . S
C1444 C1439 1.350 . S
C1445 H1432 0.929 . S
C1445 C1437 1.433 1_545 S
C1445 N1447 1.384 . S
N1446 C1442 1.427 1_565 S
N1446 C1443 1.384 . S
N1447 C1439 1.427 1_545 S
N1447 C1445 1.384 . S
H1448 C1454 0.930 . S
H1449 C1458 0.930 . S
H1450 C1463 0.929 . S
H1451 C1461 0.929 . S
H1452 C1456 0.929 . S
H1453 C1462 0.929 . S
C1454 H1448 0.930 . S
C1454 C1455 1.367 . S
C1454 C1462 1.378 . S
C1455 C1454 1.367 . S
C1455 C1463 1.433 . S
C1456 H1452 0.929 . S
C1456 C1458 1.378 . S
C1456 C1460 1.350 . S
C1457 C1460 1.463 1_556 S
C1457 C1462 1.350 . S
C1457 N1465 1.427 . S
C1458 H1449 0.930 . S
C1458 C1456 1.378 . S
C1458 C1459 1.367 . S
C1459 C1458 1.367 . S
C1459 C1461 1.433 . S
C1460 C1456 1.350 . S
C1460 C1457 1.463 1_554 S
C1460 N1464 1.427 . S
C1461 H1451 0.929 . S
C1461 C1459 1.433 . S
C1461 N1464 1.384 . S
C1462 H1453 0.929 . S
C1462 C1454 1.378 . S
C1462 C1457 1.350 . S
C1463 H1450 0.929 . S
C1463 C1455 1.433 . S
C1463 N1465 1.384 . S
N1464 C1460 1.427 . S
N1464 C1461 1.384 . S
N1465 C1457 1.427 . S
N1465 C1463 1.384 . S
H1466 C1472 0.930 . S
H1467 C1476 0.930 . S
H1468 C1481 0.929 . S
H1469 C1479 0.929 . S
H1470 C1474 0.929 . S
H1471 C1480 0.929 . S
C1472 H1466 0.930 . S
C1472 C1473 1.367 . S
C1472 C1480 1.378 . S
C1473 C1472 1.367 . S
C1473 C1481 1.433 1_545 S
C1474 H1470 0.929 . S
C1474 C1476 1.378 . S
C1474 C1478 1.350 . S
C1475 C1478 1.463 1_545 S
C1475 C1480 1.350 . S
C1475 N1483 1.427 1_545 S
C1476 H1467 0.930 . S
C1476 C1474 1.378 . S
C1476 C1477 1.367 . S
C1477 C1476 1.367 . S
C1477 C1479 1.433 1_565 S
C1478 C1474 1.350 . S
C1478 C1475 1.463 1_565 S
C1478 N1482 1.427 1_565 S
C1479 H1469 0.929 . S
C1479 C1477 1.433 1_545 S
C1479 N1482 1.384 . S
C1480 H1471 0.929 . S
C1480 C1472 1.378 . S
C1480 C1475 1.350 . S
C1481 H1468 0.929 . S
C1481 C1473 1.433 1_565 S
C1481 N1483 1.384 . S
N1482 C1478 1.427 1_545 S
N1482 C1479 1.384 . S
N1483 C1475 1.427 1_565 S
N1483 C1481 1.384 . S
H1484 C1490 0.930 . S
H1485 C1494 0.930 . S
H1486 C1499 0.929 . S
H1487 C1497 0.929 . S
H1488 C1492 0.929 . S
H1489 C1498 0.929 . S
C1490 H1484 0.930 . S
C1490 C1491 1.367 . S
C1490 C1498 1.378 . S
C1491 C1490 1.367 . S
C1491 C1499 1.433 . S
C1492 H1488 0.929 . S
C1492 C1494 1.378 . S
C1492 C1496 1.350 . S
C1493 C1496 1.463 . S
C1493 C1498 1.350 . S
C1493 N1501 1.427 . S
C1494 H1485 0.930 . S
C1494 C1492 1.378 . S
C1494 C1495 1.367 . S
C1495 C1494 1.367 . S
C1495 C1497 1.433 . S
C1496 C1492 1.350 . S
C1496 C1493 1.463 . S
C1496 N1500 1.427 . S
C1497 H1487 0.929 . S
C1497 C1495 1.433 . S
C1497 N1500 1.384 . S
C1498 H1489 0.929 . S
C1498 C1490 1.378 . S
C1498 C1493 1.350 . S
C1499 H1486 0.929 . S
C1499 C1491 1.433 . S
C1499 N1501 1.384 . S
N1500 C1496 1.427 . S
N1500 C1497 1.384 . S
N1501 C1493 1.427 . S
N1501 C1499 1.384 . S
H1502 C1508 0.930 . S
H1503 C1512 0.930 . S
H1504 C1517 0.929 . S
H1505 C1515 0.929 . S
H1506 C1510 0.929 . S
H1507 C1516 0.929 . S
C1508 H1502 0.930 . S
C1508 C1509 1.367 1_545 S
C1508 C1516 1.378 . S
C1509 C1508 1.367 1_565 S
C1509 C1517 1.433 . S
C1510 H1506 0.929 . S
C1510 C1512 1.378 . S
C1510 C1514 1.341 1_565 S
C1511 C1514 1.462 1_565 S
C1511 C1516 1.341 1_565 S
C1511 N1519 1.437 . S
C1512 H1503 0.930 . S
C1512 C1510 1.378 . S
C1512 C1513 1.367 1_565 S
C1513 C1512 1.367 1_545 S
C1513 C1515 1.433 . S
C1514 C1510 1.341 1_545 S
C1514 C1511 1.462 1_545 S
C1514 N1518 1.437 . S
C1515 H1505 0.929 . S
C1515 C1513 1.433 . S
C1515 N1518 1.384 . S
C1516 H1507 0.929 . S
C1516 C1508 1.378 . S
C1516 C1511 1.341 1_545 S
C1517 H1504 0.929 . S
C1517 C1509 1.433 . S
C1517 N1519 1.384 . S
N1518 C1514 1.437 . S
N1518 C1515 1.384 . S
N1519 C1511 1.437 . S
N1519 C1517 1.384 . S
H1520 C1526 0.930 . S
H1521 C1530 0.930 . S
H1522 C1535 0.929 . S
H1523 C1533 0.929 . S
H1524 C1528 0.929 . S
H1525 C1534 0.929 . S
C1526 H1520 0.930 . S
C1526 C1527 1.367 . S
C1526 C1534 1.378 . S
C1527 C1526 1.367 . S
C1527 C1535 1.433 . S
C1528 H1524 0.929 . S
C1528 C1530 1.378 . S
C1528 C1532 1.350 . S
C1529 C1532 1.463 . S
C1529 C1534 1.350 . S
C1529 N1537 1.427 . S
C1530 H1521 0.930 . S
C1530 C1528 1.378 . S
C1530 C1531 1.367 . S
C1531 C1530 1.367 . S
C1531 C1533 1.433 . S
C1532 C1528 1.350 . S
C1532 C1529 1.463 . S
C1532 N1536 1.427 . S
C1533 H1523 0.929 . S
C1533 C1531 1.433 . S
C1533 N1536 1.384 . S
C1534 H1525 0.929 . S
C1534 C1526 1.378 . S
C1534 C1529 1.350 . S
C1535 H1522 0.929 . S
C1535 C1527 1.433 . S
C1535 N1537 1.384 . S
N1536 C1532 1.427 . S
N1536 C1533 1.384 . S
N1537 C1529 1.427 . S
N1537 C1535 1.384 . S
H1538 C1544 0.930 . S
H1539 C1548 0.930 . S
H1540 C1553 0.929 . S
H1541 C1551 0.929 . S
H1542 C1546 0.929 . S
H1543 C1552 0.929 . S
C1544 H1538 0.930 . S
C1544 C1545 1.367 . S
C1544 C1552 1.378 . S
C1545 C1544 1.367 . S
C1545 C1553 1.433 . S
C1546 H1542 0.929 . S
C1546 C1548 1.378 . S
C1546 C1550 1.350 . S
C1547 C1550 1.463 . S
C1547 C1552 1.350 . S
C1547 N1555 1.427 . S
C1548 H1539 0.930 . S
C1548 C1546 1.378 . S
C1548 C1549 1.367 . S
C1549 C1548 1.367 . S
C1549 C1551 1.433 . S
C1550 C1546 1.350 . S
C1550 C1547 1.463 . S
C1550 N1554 1.427 . S
C1551 H1541 0.929 . S
C1551 C1549 1.433 . S
C1551 N1554 1.384 . S
C1552 H1543 0.929 . S
C1552 C1544 1.378 . S
C1552 C1547 1.350 . S
C1553 H1540 0.929 . S
C1553 C1545 1.433 . S
C1553 N1555 1.384 . S
N1554 C1550 1.427 . S
N1554 C1551 1.384 . S
N1555 C1547 1.427 . S
N1555 C1553 1.384 . S
H1556 C1562 0.930 . S
H1557 C1566 0.930 . S
H1558 C1571 0.929 . S
H1559 C1569 0.929 . S
H1560 C1564 0.929 . S
H1561 C1570 0.929 . S
C1562 H1556 0.930 . S
C1562 C1563 1.367 . S
C1562 C1570 1.378 . S
C1563 C1562 1.367 . S
C1563 C1571 1.433 . S
C1564 H1560 0.929 . S
C1564 C1566 1.378 . S
C1564 C1568 1.350 . S
C1565 C1568 1.463 1_556 S
C1565 C1570 1.350 . S
C1565 N1573 1.427 . S
C1566 H1557 0.930 . S
C1566 C1564 1.378 . S
C1566 C1567 1.367 . S
C1567 C1566 1.367 . S
C1567 C1569 1.433 . S
C1568 C1564 1.350 . S
C1568 C1565 1.463 1_554 S
C1568 N1572 1.427 . S
C1569 H1559 0.929 . S
C1569 C1567 1.433 . S
C1569 N1572 1.384 . S
C1570 H1561 0.929 . S
C1570 C1562 1.378 . S
C1570 C1565 1.350 . S
C1571 H1558 0.929 . S
C1571 C1563 1.433 . S
C1571 N1573 1.384 . S
N1572 C1568 1.427 . S
N1572 C1569 1.384 . S
N1573 C1565 1.427 . S
N1573 C1571 1.384 . S
H1574 C1580 0.930 . S
H1575 C1584 0.930 . S
H1576 C1589 0.929 . S
H1577 C1587 0.929 . S
H1578 C1582 0.929 . S
H1579 C1588 0.929 . S
C1580 H1574 0.930 . S
C1580 C1581 1.367 . S
C1580 C1588 1.378 . S
C1581 C1580 1.367 . S
C1581 C1589 1.433 . S
C1582 H1578 0.929 . S
C1582 C1584 1.378 . S
C1582 C1586 1.350 . S
C1583 C1586 1.463 . S
C1583 C1588 1.350 . S
C1583 N1591 1.427 . S
C1584 H1575 0.930 . S
C1584 C1582 1.378 . S
C1584 C1585 1.367 . S
C1585 C1584 1.367 . S
C1585 C1587 1.433 . S
C1586 C1582 1.350 . S
C1586 C1583 1.463 . S
C1586 N1590 1.427 . S
C1587 H1577 0.929 . S
C1587 C1585 1.433 . S
C1587 N1590 1.384 . S
C1588 H1579 0.929 . S
C1588 C1580 1.378 . S
C1588 C1583 1.350 . S
C1589 H1576 0.929 . S
C1589 C1581 1.433 . S
C1589 N1591 1.384 . S
N1590 C1586 1.427 . S
N1590 C1587 1.384 . S
N1591 C1583 1.427 . S
N1591 C1589 1.384 . S
H1592 C1598 0.930 . S
H1593 C1602 0.930 . S
H1594 C1607 0.929 . S
H1595 C1605 0.929 . S
H1596 C1600 0.929 . S
H1597 C1606 0.929 . S
C1598 H1592 0.930 . S
C1598 C1599 1.367 . S
C1598 C1606 1.378 . S
C1599 C1598 1.367 . S
C1599 C1607 1.433 . S
C1600 H1596 0.929 . S
C1600 C1602 1.378 . S
C1600 C1604 1.350 . S
C1601 C1604 1.463 . S
C1601 C1606 1.350 . S
C1601 N1609 1.427 . S
C1602 H1593 0.930 . S
C1602 C1600 1.378 . S
C1602 C1603 1.367 . S
C1603 C1602 1.367 . S
C1603 C1605 1.433 . S
C1604 C1600 1.350 . S
C1604 C1601 1.463 . S
C1604 N1608 1.427 . S
C1605 H1595 0.929 . S
C1605 C1603 1.433 . S
C1605 N1608 1.384 . S
C1606 H1597 0.929 . S
C1606 C1598 1.378 . S
C1606 C1601 1.350 . S
C1607 H1594 0.929 . S
C1607 C1599 1.433 . S
C1607 N1609 1.384 . S
N1608 C1604 1.427 . S
N1608 C1605 1.384 . S
N1609 C1601 1.427 . S
N1609 C1607 1.384 . S
H1610 C1616 0.930 . S
H1611 C1620 0.930 . S
H1612 C1625 0.929 . S
H1613 C1623 0.929 . S
H1614 C1618 0.929 . S
H1615 C1624 0.929 . S
C1616 H1610 0.930 . S
C1616 C1617 1.367 . S
C1616 C1624 1.378 . S
C1617 C1616 1.367 . S
C1617 C1625 1.433 . S
C1618 H1614 0.929 . S
C1618 C1620 1.378 . S
C1618 C1622 1.350 . S
C1619 C1622 1.463 . S
C1619 C1624 1.350 . S
C1619 N1627 1.427 . S
C1620 H1611 0.930 . S
C1620 C1618 1.378 . S
C1620 C1621 1.367 . S
C1621 C1620 1.367 . S
C1621 C1623 1.433 . S
C1622 C1618 1.350 . S
C1622 C1619 1.463 . S
C1622 N1626 1.427 . S
C1623 H1613 0.929 . S
C1623 C1621 1.433 . S
C1623 N1626 1.384 . S
C1624 H1615 0.929 . S
C1624 C1616 1.378 . S
C1624 C1619 1.350 . S
C1625 H1612 0.929 . S
C1625 C1617 1.433 . S
C1625 N1627 1.384 . S
N1626 C1622 1.427 . S
N1626 C1623 1.384 . S
N1627 C1619 1.427 . S
N1627 C1625 1.384 . S
H1628 C1634 0.930 . S
H1629 C1638 0.930 . S
H1630 C1643 0.929 . S
H1631 C1641 0.929 . S
H1632 C1636 0.929 . S
H1633 C1642 0.929 . S
C1634 H1628 0.930 . S
C1634 C1635 1.367 . S
C1634 C1642 1.378 . S
C1635 C1634 1.367 . S
C1635 C1643 1.433 . S
C1636 H1632 0.929 . S
C1636 C1638 1.378 . S
C1636 C1640 1.350 . S
C1637 C1640 1.463 1_554 S
C1637 C1642 1.350 . S
C1637 N1645 1.427 . S
C1638 H1629 0.930 . S
C1638 C1636 1.378 . S
C1638 C1639 1.367 . S
C1639 C1638 1.367 . S
C1639 C1641 1.433 . S
C1640 C1636 1.350 . S
C1640 C1637 1.463 1_556 S
C1640 N1644 1.427 . S
C1641 H1631 0.929 . S
C1641 C1639 1.433 . S
C1641 N1644 1.384 . S
C1642 H1633 0.929 . S
C1642 C1634 1.378 . S
C1642 C1637 1.350 . S
C1643 H1630 0.929 . S
C1643 C1635 1.433 . S
C1643 N1645 1.384 . S
N1644 C1640 1.427 . S
N1644 C1641 1.384 . S
N1645 C1637 1.427 . S
N1645 C1643 1.384 . S
H1646 C1652 0.930 . S
H1647 C1656 0.930 . S
H1648 C1661 0.929 . S
H1649 C1659 0.929 . S
H1650 C1654 0.929 . S
H1651 C1660 0.929 . S
C1652 H1646 0.930 . S
C1652 C1653 1.367 . S
C1652 C1660 1.378 . S
C1653 C1652 1.367 . S
C1653 C1661 1.433 . S
C1654 H1650 0.929 . S
C1654 C1656 1.378 . S
C1654 C1658 1.350 . S
C1655 C1658 1.463 . S
C1655 C1660 1.350 . S
C1655 N1663 1.427 . S
C1656 H1647 0.930 . S
C1656 C1654 1.378 . S
C1656 C1657 1.367 . S
C1657 C1656 1.367 . S
C1657 C1659 1.433 . S
C1658 C1654 1.350 . S
C1658 C1655 1.463 . S
C1658 N1662 1.427 . S
C1659 H1649 0.929 . S
C1659 C1657 1.433 . S
C1659 N1662 1.384 . S
C1660 H1651 0.929 . S
C1660 C1652 1.378 . S
C1660 C1655 1.350 . S
C1661 H1648 0.929 . S
C1661 C1653 1.433 . S
C1661 N1663 1.384 . S
N1662 C1658 1.427 . S
N1662 C1659 1.384 . S
N1663 C1655 1.427 . S
N1663 C1661 1.384 . S
H1664 C1670 0.930 . S
H1665 C1674 0.930 . S
H1666 C1679 0.929 . S
H1667 C1677 0.929 1_545 S
H1668 C1672 0.929 . S
H1669 C1678 0.929 . S
C1670 H1664 0.930 . S
C1670 C1671 1.367 . S
C1670 C1678 1.378 . S
C1671 C1670 1.367 . S
C1671 C1679 1.433 . S
C1672 H1668 0.929 . S
C1672 C1674 1.378 . S
C1672 C1676 1.350 . S
C1673 C1676 1.463 . S
C1673 C1678 1.350 . S
C1673 N1681 1.427 . S
C1674 H1665 0.930 . S
C1674 C1672 1.378 . S
C1674 C1675 1.367 1_565 S
C1675 C1674 1.367 1_545 S
C1675 C1677 1.433 1_545 S
C1676 C1672 1.350 . S
C1676 C1673 1.463 . S
C1676 N1680 1.427 . S
C1677 H1667 0.929 1_565 S
C1677 C1675 1.433 1_565 S
C1677 N1680 1.384 . S
C1678 H1669 0.929 . S
C1678 C1670 1.378 . S
C1678 C1673 1.350 . S
C1679 H1666 0.929 . S
C1679 C1671 1.433 . S
C1679 N1681 1.384 . S
N1680 C1676 1.427 . S
N1680 C1677 1.384 . S
N1681 C1673 1.427 . S
N1681 C1679 1.384 . S
H1682 C1688 0.930 . S
H1683 C1692 0.930 . S
H1684 C1697 0.929 . S
H1685 C1695 0.929 . S
H1686 C1690 0.929 . S
H1687 C1696 0.929 . S
C1688 H1682 0.930 . S
C1688 C1689 1.367 . S
C1688 C1696 1.378 . S
C1689 C1688 1.367 . S
C1689 C1697 1.433 1_545 S
C1690 H1686 0.929 . S
C1690 C1692 1.378 . S
C1690 C1694 1.350 1_565 S
C1691 C1694 1.463 . S
C1691 C1696 1.350 . S
C1691 N1699 1.427 1_545 S
C1692 H1683 0.930 . S
C1692 C1690 1.378 . S
C1692 C1693 1.367 1_565 S
C1693 C1692 1.367 1_545 S
C1693 C1695 1.433 . S
C1694 C1690 1.350 1_545 S
C1694 C1691 1.463 . S
C1694 N1698 1.427 . S
C1695 H1685 0.929 . S
C1695 C1693 1.433 . S
C1695 N1698 1.384 . S
C1696 H1687 0.929 . S
C1696 C1688 1.378 . S
C1696 C1691 1.350 . S
C1697 H1684 0.929 . S
C1697 C1689 1.433 1_565 S
C1697 N1699 1.384 . S
N1698 C1694 1.427 . S
N1698 C1695 1.384 . S
N1699 C1691 1.427 1_565 S
N1699 C1697 1.384 . S
H1700 C1706 0.930 . S
H1701 C1710 0.930 . S
H1702 C1715 0.929 . S
H1703 C1713 0.929 1_565 S
H1704 C1708 0.929 . S
H1705 C1714 0.929 . S
C1706 H1700 0.930 . S
C1706 C1707 1.367 . S
C1706 C1714 1.378 . S
C1707 C1706 1.367 . S
C1707 C1715 1.433 . S
C1708 H1704 0.929 . S
C1708 C1710 1.378 . S
C1708 C1712 1.350 . S
C1709 C1712 1.463 . S
C1709 C1714 1.350 . S
C1709 N1717 1.427 . S
C1710 H1701 0.930 . S
C1710 C1708 1.378 . S
C1710 C1711 1.367 1_545 S
C1711 C1710 1.367 1_565 S
C1711 C1713 1.433 1_565 S
C1712 C1708 1.350 . S
C1712 C1709 1.463 . S
C1712 N1716 1.427 . S
C1713 H1703 0.929 1_545 S
C1713 C1711 1.433 1_545 S
C1713 N1716 1.384 . S
C1714 H1705 0.929 . S
C1714 C1706 1.378 . S
C1714 C1709 1.350 . S
C1715 H1702 0.929 . S
C1715 C1707 1.433 . S
C1715 N1717 1.384 . S
N1716 C1712 1.427 . S
N1716 C1713 1.384 . S
N1717 C1709 1.427 . S
N1717 C1715 1.384 . S
H1718 C1724 0.930 . S
H1719 C1728 0.930 . S
H1720 C1733 0.929 . S
H1721 C1731 0.929 . S
H1722 C1726 0.929 . S
H1723 C1732 0.929 . S
C1724 H1718 0.930 . S
C1724 C1725 1.367 . S
C1724 C1732 1.378 . S
C1725 C1724 1.367 . S
C1725 C1733 1.433 1_565 S
C1726 H1722 0.929 . S
C1726 C1728 1.378 . S
C1726 C1730 1.350 1_545 S
C1727 C1730 1.463 . S
C1727 C1732 1.350 . S
C1727 N1735 1.427 1_565 S
C1728 H1719 0.930 . S
C1728 C1726 1.378 . S
C1728 C1729 1.367 1_545 S
C1729 C1728 1.367 1_565 S
C1729 C1731 1.433 . S
C1730 C1726 1.350 1_565 S
C1730 C1727 1.463 . S
C1730 N1734 1.427 . S
C1731 H1721 0.929 . S
C1731 C1729 1.433 . S
C1731 N1734 1.384 . S
C1732 H1723 0.929 . S
C1732 C1724 1.378 . S
C1732 C1727 1.350 . S
C1733 H1720 0.929 . S
C1733 C1725 1.433 1_545 S
C1733 N1735 1.384 . S
N1734 C1730 1.427 . S
N1734 C1731 1.384 . S
N1735 C1727 1.427 1_545 S
N1735 C1733 1.384 . S
H1736 C1742 0.930 . S
H1737 C1746 0.930 1_565 S
H1738 C1751 0.929 . S
H1739 C1749 0.929 . S
H1740 C1744 0.929 . S
H1741 C1750 0.929 . S
C1742 H1736 0.930 . S
C1742 C1743 1.367 . S
C1742 C1750 1.378 . S
C1743 C1742 1.367 . S
C1743 C1751 1.433 . S
C1744 H1740 0.929 . S
C1744 C1746 1.378 . S
C1744 C1748 1.350 . S
C1745 C1748 1.463 . S
C1745 C1750 1.350 . S
C1745 N1753 1.427 . S
C1746 H1737 0.930 1_545 S
C1746 C1744 1.378 . S
C1746 C1747 1.367 1_545 S
C1747 C1746 1.367 1_565 S
C1747 C1749 1.433 1_565 S
C1748 C1744 1.350 . S
C1748 C1745 1.463 . S
C1748 N1752 1.427 . S
C1749 H1739 0.929 . S
C1749 C1747 1.433 1_545 S
C1749 N1752 1.384 . S
C1750 H1741 0.929 . S
C1750 C1742 1.378 . S
C1750 C1745 1.350 . S
C1751 H1738 0.929 . S
C1751 C1743 1.433 . S
C1751 N1753 1.384 . S
N1752 C1748 1.427 . S
N1752 C1749 1.384 . S
N1753 C1745 1.427 . S
N1753 C1751 1.384 . S
H1754 C1760 0.930 . S
H1755 C1764 0.930 . S
H1756 C1769 0.929 . S
H1757 C1767 0.929 . S
H1758 C1762 0.929 . S
H1759 C1768 0.929 . S
C1760 H1754 0.930 . S
C1760 C1761 1.367 1_565 S
C1760 C1768 1.378 . S
C1761 C1760 1.367 1_545 S
C1761 C1769 1.433 . S
C1762 H1758 0.929 . S
C1762 C1764 1.378 . S
C1762 C1766 1.350 . S
C1763 C1766 1.463 . S
C1763 C1768 1.350 1_545 S
C1763 N1771 1.427 . S
C1764 H1755 0.930 . S
C1764 C1762 1.378 . S
C1764 C1765 1.367 . S
C1765 C1764 1.367 . S
C1765 C1767 1.433 1_545 S
C1766 C1762 1.350 . S
C1766 C1763 1.463 . S
C1766 N1770 1.427 1_545 S
C1767 H1757 0.929 . S
C1767 C1765 1.433 1_565 S
C1767 N1770 1.384 . S
C1768 H1759 0.929 . S
C1768 C1760 1.378 . S
C1768 C1763 1.350 1_565 S
C1769 H1756 0.929 . S
C1769 C1761 1.433 . S
C1769 N1771 1.384 . S
N1770 C1766 1.427 1_565 S
N1770 C1767 1.384 . S
N1771 C1763 1.427 . S
N1771 C1769 1.384 . S
H1772 C1778 0.930 . S
H1773 C1782 0.930 . S
H1774 C1787 0.929 . S
H1775 C1785 0.929 1_545 S
H1776 C1780 0.929 . S
H1777 C1786 0.929 . S
C1778 H1772 0.930 . S
C1778 C1779 1.367 . S
C1778 C1786 1.378 . S
C1779 C1778 1.367 . S
C1779 C1787 1.433 . S
C1780 H1776 0.929 . S
C1780 C1782 1.378 . S
C1780 C1784 1.350 . S
C1781 C1784 1.463 . S
C1781 C1786 1.350 . S
C1781 N1789 1.427 . S
C1782 H1773 0.930 . S
C1782 C1780 1.378 . S
C1782 C1783 1.367 1_565 S
C1783 C1782 1.367 1_545 S
C1783 C1785 1.433 1_545 S
C1784 C1780 1.350 . S
C1784 C1781 1.463 . S
C1784 N1788 1.427 . S
C1785 H1775 0.929 1_565 S
C1785 C1783 1.433 1_565 S
C1785 N1788 1.384 . S
C1786 H1777 0.929 . S
C1786 C1778 1.378 . S
C1786 C1781 1.350 . S
C1787 H1774 0.929 . S
C1787 C1779 1.433 . S
C1787 N1789 1.384 . S
N1788 C1784 1.427 . S
N1788 C1785 1.384 . S
N1789 C1781 1.427 . S
N1789 C1787 1.384 . S
H1790 C1796 0.930 . S
H1791 C1800 0.930 . S
H1792 C1805 0.929 . S
H1793 C1803 0.929 . S
H1794 C1798 0.929 . S
H1795 C1804 0.929 . S
C1796 H1790 0.930 . S
C1796 C1797 1.367 . S
C1796 C1804 1.378 . S
C1797 C1796 1.367 . S
C1797 C1805 1.433 1_565 S
C1798 H1794 0.929 . S
C1798 C1800 1.378 . S
C1798 C1802 1.350 1_545 S
C1799 C1802 1.463 . S
C1799 C1804 1.350 . S
C1799 N1807 1.427 1_565 S
C1800 H1791 0.930 . S
C1800 C1798 1.378 . S
C1800 C1801 1.367 1_545 S
C1801 C1800 1.367 1_565 S
C1801 C1803 1.433 . S
C1802 C1798 1.350 1_565 S
C1802 C1799 1.463 . S
C1802 N1806 1.427 . S
C1803 H1793 0.929 . S
C1803 C1801 1.433 . S
C1803 N1806 1.384 . S
C1804 H1795 0.929 . S
C1804 C1796 1.378 . S
C1804 C1799 1.350 . S
C1805 H1792 0.929 . S
C1805 C1797 1.433 1_545 S
C1805 N1807 1.384 . S
N1806 C1802 1.427 . S
N1806 C1803 1.384 . S
N1807 C1799 1.427 1_545 S
N1807 C1805 1.384 . S
H1808 C1814 0.930 . S
H1809 C1818 0.930 . S
H1810 C1823 0.929 1_565 S
H1811 C1821 0.929 . S
H1812 C1816 0.929 . S
H1813 C1822 0.929 . S
C1814 H1808 0.930 . S
C1814 C1815 1.367 1_545 S
C1814 C1822 1.378 . S
C1815 C1814 1.367 1_565 S
C1815 C1823 1.433 1_565 S
C1816 H1812 0.929 . S
C1816 C1818 1.378 . S
C1816 C1820 1.350 . S
C1817 C1820 1.463 . S
C1817 C1822 1.350 . S
C1817 N1825 1.427 . S
C1818 H1809 0.930 . S
C1818 C1816 1.378 . S
C1818 C1819 1.367 . S
C1819 C1818 1.367 . S
C1819 C1821 1.433 . S
C1820 C1816 1.350 . S
C1820 C1817 1.463 . S
C1820 N1824 1.427 . S
C1821 H1811 0.929 . S
C1821 C1819 1.433 . S
C1821 N1824 1.384 . S
C1822 H1813 0.929 . S
C1822 C1814 1.378 . S
C1822 C1817 1.350 . S
C1823 H1810 0.929 1_545 S
C1823 C1815 1.433 1_545 S
C1823 N1825 1.384 . S
N1824 C1820 1.427 . S
N1824 C1821 1.384 . S
N1825 C1817 1.427 . S
N1825 C1823 1.384 . S
H1826 C1832 0.930 . S
H1827 C1836 0.930 . S
H1828 C1841 0.929 . S
H1829 C1839 0.929 . S
H1830 C1834 0.929 . S
H1831 C1840 0.929 . S
C1832 H1826 0.930 . S
C1832 C1833 1.367 . S
C1832 C1840 1.378 . S
C1833 C1832 1.367 . S
C1833 C1841 1.433 1_565 S
C1834 H1830 0.929 . S
C1834 C1836 1.378 . S
C1834 C1838 1.350 1_545 S
C1835 C1838 1.463 . S
C1835 C1840 1.350 . S
C1835 N1843 1.427 1_565 S
C1836 H1827 0.930 . S
C1836 C1834 1.378 . S
C1836 C1837 1.367 1_545 S
C1837 C1836 1.367 1_565 S
C1837 C1839 1.433 . S
C1838 C1834 1.350 1_565 S
C1838 C1835 1.463 . S
C1838 N1842 1.427 . S
C1839 H1829 0.929 . S
C1839 C1837 1.433 . S
C1839 N1842 1.384 . S
C1840 H1831 0.929 . S
C1840 C1832 1.378 . S
C1840 C1835 1.350 . S
C1841 H1828 0.929 . S
C1841 C1833 1.433 1_545 S
C1841 N1843 1.384 . S
N1842 C1838 1.427 . S
N1842 C1839 1.384 . S
N1843 C1835 1.427 1_545 S
N1843 C1841 1.384 . S
H1844 C1850 0.930 1_545 S
H1845 C1854 0.930 . S
H1846 C1859 0.929 . S
H1847 C1857 0.929 . S
H1848 C1852 0.929 . S
H1849 C1858 0.929 . S
C1850 H1844 0.930 1_565 S
C1850 C1851 1.367 1_565 S
C1850 C1858 1.378 . S
C1851 C1850 1.367 1_545 S
C1851 C1859 1.433 1_545 S
C1852 H1848 0.929 . S
C1852 C1854 1.378 . S
C1852 C1856 1.350 . S
C1853 C1856 1.463 . S
C1853 C1858 1.350 . S
C1853 N1861 1.427 . S
C1854 H1845 0.930 . S
C1854 C1852 1.378 . S
C1854 C1855 1.367 . S
C1855 C1854 1.367 . S
C1855 C1857 1.433 . S
C1856 C1852 1.350 . S
C1856 C1853 1.463 . S
C1856 N1860 1.427 . S
C1857 H1847 0.929 . S
C1857 C1855 1.433 . S
C1857 N1860 1.384 . S
C1858 H1849 0.929 . S
C1858 C1850 1.378 . S
C1858 C1853 1.350 . S
C1859 H1846 0.929 . S
C1859 C1851 1.433 1_565 S
C1859 N1861 1.384 . S
N1860 C1856 1.427 . S
N1860 C1857 1.384 . S
N1861 C1853 1.427 . S
N1861 C1859 1.384 . S
H1862 C1868 0.930 1_565 S
H1863 C1872 0.930 . S
H1864 C1877 0.929 . S
H1865 C1875 0.929 1_565 S
H1866 C1870 0.929 . S
H1867 C1876 0.929 1_565 S
C1868 H1862 0.930 1_545 S
C1868 C1869 1.367 . S
C1868 C1876 1.378 . S
C1869 C1868 1.367 . S
C1869 C1877 1.433 . S
C1870 H1866 0.929 . S
C1870 C1872 1.378 . S
C1870 C1874 1.350 . S
C1871 C1874 1.463 . S
C1871 C1876 1.350 . S
C1871 N1879 1.427 . S
C1872 H1863 0.930 . S
C1872 C1870 1.378 . S
C1872 C1873 1.367 . S
C1873 C1872 1.367 . S
C1873 C1875 1.433 . S
C1874 C1870 1.350 . S
C1874 C1871 1.463 . S
C1874 N1878 1.427 . S
C1875 H1865 0.929 1_545 S
C1875 C1873 1.433 . S
C1875 N1878 1.384 . S
C1876 H1867 0.929 1_545 S
C1876 C1868 1.378 . S
C1876 C1871 1.350 . S
C1877 H1864 0.929 . S
C1877 C1869 1.433 . S
C1877 N1879 1.384 . S
N1878 C1874 1.427 . S
N1878 C1875 1.384 . S
N1879 C1871 1.427 . S
N1879 C1877 1.384 . S
H1880 C1886 0.930 . S
H1881 C1890 0.930 . S
H1882 C1895 0.929 . S
H1883 C1893 0.929 1_545 S
H1884 C1888 0.929 . S
H1885 C1894 0.929 . S
C1886 H1880 0.930 . S
C1886 C1887 1.367 . S
C1886 C1894 1.378 . S
C1887 C1886 1.367 . S
C1887 C1895 1.433 . S
C1888 H1884 0.929 . S
C1888 C1890 1.378 . S
C1888 C1892 1.350 . S
C1889 C1892 1.463 . S
C1889 C1894 1.350 . S
C1889 N1897 1.427 . S
C1890 H1881 0.930 . S
C1890 C1888 1.378 . S
C1890 C1891 1.367 1_565 S
C1891 C1890 1.367 1_545 S
C1891 C1893 1.433 1_545 S
C1892 C1888 1.350 . S
C1892 C1889 1.463 . S
C1892 N1896 1.427 . S
C1893 H1883 0.929 1_565 S
C1893 C1891 1.433 1_565 S
C1893 N1896 1.384 . S
C1894 H1885 0.929 . S
C1894 C1886 1.378 . S
C1894 C1889 1.350 . S
C1895 H1882 0.929 . S
C1895 C1887 1.433 . S
C1895 N1897 1.384 . S
N1896 C1892 1.427 . S
N1896 C1893 1.384 . S
N1897 C1889 1.427 . S
N1897 C1895 1.384 . S
H1898 C1904 0.930 . S
H1899 C1908 0.930 . S
H1900 C1913 0.929 . S
H1901 C1911 0.929 . S
H1902 C1906 0.929 . S
H1903 C1912 0.929 . S
C1904 H1898 0.930 . S
C1904 C1905 1.367 1_545 S
C1904 C1912 1.378 . S
C1905 C1904 1.367 1_565 S
C1905 C1913 1.433 . S
C1906 H1902 0.929 . S
C1906 C1908 1.378 . S
C1906 C1910 1.350 . S
C1907 C1910 1.463 . S
C1907 C1912 1.350 1_565 S
C1907 N1915 1.427 . S
C1908 H1899 0.930 . S
C1908 C1906 1.378 . S
C1908 C1909 1.367 . S
C1909 C1908 1.367 . S
C1909 C1911 1.433 1_565 S
C1910 C1906 1.350 . S
C1910 C1907 1.463 . S
C1910 N1914 1.427 1_565 S
C1911 H1901 0.929 . S
C1911 C1909 1.433 1_545 S
C1911 N1914 1.384 . S
C1912 H1903 0.929 . S
C1912 C1904 1.378 . S
C1912 C1907 1.350 1_545 S
C1913 H1900 0.929 . S
C1913 C1905 1.433 . S
C1913 N1915 1.384 . S
N1914 C1910 1.427 1_545 S
N1914 C1911 1.384 . S
N1915 C1907 1.427 . S
N1915 C1913 1.384 . S
H1916 C1922 0.930 . S
H1917 C1926 0.930 . S
H1918 C1931 0.929 1_565 S
H1919 C1929 0.929 . S
H1920 C1924 0.929 . S
H1921 C1930 0.929 . S
C1922 H1916 0.930 . S
C1922 C1923 1.367 1_545 S
C1922 C1930 1.378 . S
C1923 C1922 1.367 1_565 S
C1923 C1931 1.433 1_565 S
C1924 H1920 0.929 . S
C1924 C1926 1.378 . S
C1924 C1928 1.350 . S
C1925 C1928 1.463 . S
C1925 C1930 1.350 . S
C1925 N1933 1.427 . S
C1926 H1917 0.930 . S
C1926 C1924 1.378 . S
C1926 C1927 1.367 . S
C1927 C1926 1.367 . S
C1927 C1929 1.433 . S
C1928 C1924 1.350 . S
C1928 C1925 1.463 . S
C1928 N1932 1.427 . S
C1929 H1919 0.929 . S
C1929 C1927 1.433 . S
C1929 N1932 1.384 . S
C1930 H1921 0.929 . S
C1930 C1922 1.378 . S
C1930 C1925 1.350 . S
C1931 H1918 0.929 1_545 S
C1931 C1923 1.433 1_545 S
C1931 N1933 1.384 . S
N1932 C1928 1.427 . S
N1932 C1929 1.384 . S
N1933 C1925 1.427 . S
N1933 C1931 1.384 . S
H1934 C1940 0.930 . S
H1935 C1944 0.930 . S
H1936 C1949 0.929 . S
H1937 C1947 0.929 . S
H1938 C1942 0.929 . S
H1939 C1948 0.929 . S
C1940 H1934 0.930 . S
C1940 C1941 1.367 . S
C1940 C1948 1.378 . S
C1941 C1940 1.367 . S
C1941 C1949 1.433 1_545 S
C1942 H1938 0.929 . S
C1942 C1944 1.378 . S
C1942 C1946 1.350 1_565 S
C1943 C1946 1.463 . S
C1943 C1948 1.350 . S
C1943 N1951 1.427 1_545 S
C1944 H1935 0.930 . S
C1944 C1942 1.378 . S
C1944 C1945 1.367 1_565 S
C1945 C1944 1.367 1_545 S
C1945 C1947 1.433 . S
C1946 C1942 1.350 1_545 S
C1946 C1943 1.463 . S
C1946 N1950 1.427 . S
C1947 H1937 0.929 . S
C1947 C1945 1.433 . S
C1947 N1950 1.384 . S
C1948 H1939 0.929 . S
C1948 C1940 1.378 . S
C1948 C1943 1.350 . S
C1949 H1936 0.929 . S
C1949 C1941 1.433 1_565 S
C1949 N1951 1.384 . S
N1950 C1946 1.427 . S
N1950 C1947 1.384 . S
N1951 C1943 1.427 1_565 S
N1951 C1949 1.384 . S
H1952 C1958 0.930 . S
H1953 C1962 0.930 . S
H1954 C1967 0.929 . S
H1955 C1965 0.929 . S
H1956 C1960 0.929 . S
H1957 C1966 0.929 . S
C1958 H1952 0.930 . S
C1958 C1959 1.367 . S
C1958 C1966 1.378 . S
C1959 C1958 1.367 . S
C1959 C1967 1.433 . S
C1960 H1956 0.929 . S
C1960 C1962 1.378 . S
C1960 C1964 1.350 . S
C1961 C1964 1.463 . S
C1961 C1966 1.350 . S
C1961 N1969 1.427 . S
C1962 H1953 0.930 . S
C1962 C1960 1.378 . S
C1962 C1963 1.367 . S
C1963 C1962 1.367 . S
C1963 C1965 1.433 . S
C1964 C1960 1.350 . S
C1964 C1961 1.463 . S
C1964 N1968 1.427 . S
C1965 H1955 0.929 . S
C1965 C1963 1.433 . S
C1965 N1968 1.384 . S
C1966 H1957 0.929 . S
C1966 C1958 1.378 . S
C1966 C1961 1.350 . S
C1967 H1954 0.929 . S
C1967 C1959 1.433 . S
C1967 N1969 1.384 . S
N1968 C1964 1.427 . S
N1968 C1965 1.384 . S
N1969 C1961 1.427 . S
N1969 C1967 1.384 . S
H1970 C1976 0.930 . S
H1971 C1980 0.930 . S
H1972 C1985 0.929 . S
H1973 C1983 0.929 . S
H1974 C1978 0.929 . S
H1975 C1984 0.929 . S
C1976 H1970 0.930 . S
C1976 C1977 1.367 . S
C1976 C1984 1.378 . S
C1977 C1976 1.367 . S
C1977 C1985 1.433 . S
C1978 H1974 0.929 . S
C1978 C1980 1.378 . S
C1978 C1982 1.350 . S
C1979 C1982 1.463 . S
C1979 C1984 1.350 . S
C1979 N1987 1.427 . S
C1980 H1971 0.930 . S
C1980 C1978 1.378 . S
C1980 C1981 1.367 . S
C1981 C1980 1.367 . S
C1981 C1983 1.433 . S
C1982 C1978 1.350 . S
C1982 C1979 1.463 . S
C1982 N1986 1.427 . S
C1983 H1973 0.929 . S
C1983 C1981 1.433 . S
C1983 N1986 1.384 . S
C1984 H1975 0.929 . S
C1984 C1976 1.378 . S
C1984 C1979 1.350 . S
C1985 H1972 0.929 . S
C1985 C1977 1.433 . S
C1985 N1987 1.384 . S
N1986 C1982 1.427 . S
N1986 C1983 1.384 . S
N1987 C1979 1.427 . S
N1987 C1985 1.384 . S
H1988 C1994 0.930 . S
H1989 C1998 0.930 . S
H1990 C2003 0.929 . S
H1991 C2001 0.929 . S
H1992 C1996 0.929 . S
H1993 C2002 0.929 . S
C1994 H1988 0.930 . S
C1994 C1995 1.367 . S
C1994 C2002 1.378 . S
C1995 C1994 1.367 . S
C1995 C2003 1.433 . S
C1996 H1992 0.929 . S
C1996 C1998 1.378 . S
C1996 C2000 1.350 . S
C1997 C2000 1.463 . S
C1997 C2002 1.350 . S
C1997 N2005 1.427 . S
C1998 H1989 0.930 . S
C1998 C1996 1.378 . S
C1998 C1999 1.367 . S
C1999 C1998 1.367 . S
C1999 C2001 1.433 . S
C2000 C1996 1.350 . S
C2000 C1997 1.463 . S
C2000 N2004 1.427 . S
C2001 H1991 0.929 . S
C2001 C1999 1.433 . S
C2001 N2004 1.384 . S
C2002 H1993 0.929 . S
C2002 C1994 1.378 . S
C2002 C1997 1.350 . S
C2003 H1990 0.929 . S
C2003 C1995 1.433 . S
C2003 N2005 1.384 . S
N2004 C2000 1.427 . S
N2004 C2001 1.384 . S
N2005 C1997 1.427 . S
N2005 C2003 1.384 . S
H2006 C2012 0.930 . S
H2007 C2016 0.930 . S
H2008 C2021 0.929 . S
H2009 C2019 0.929 . S
H2010 C2014 0.929 . S
H2011 C2020 0.929 . S
C2012 H2006 0.930 . S
C2012 C2013 1.367 . S
C2012 C2020 1.378 . S
C2013 C2012 1.367 . S
C2013 C2021 1.433 . S
C2014 H2010 0.929 . S
C2014 C2016 1.378 . S
C2014 C2018 1.350 . S
C2015 C2018 1.463 . S
C2015 C2020 1.350 . S
C2015 N2023 1.427 . S
C2016 H2007 0.930 . S
C2016 C2014 1.378 . S
C2016 C2017 1.367 . S
C2017 C2016 1.367 . S
C2017 C2019 1.433 . S
C2018 C2014 1.350 . S
C2018 C2015 1.463 . S
C2018 N2022 1.427 . S
C2019 H2009 0.929 . S
C2019 C2017 1.433 . S
C2019 N2022 1.384 . S
C2020 H2011 0.929 . S
C2020 C2012 1.378 . S
C2020 C2015 1.350 . S
C2021 H2008 0.929 . S
C2021 C2013 1.433 . S
C2021 N2023 1.384 . S
N2022 C2018 1.427 . S
N2022 C2019 1.384 . S
N2023 C2015 1.427 . S
N2023 C2021 1.384 . S
H2024 C2030 0.930 . S
H2025 C2034 0.930 . S
H2026 C2039 0.929 . S
H2027 C2037 0.929 . S
H2028 C2032 0.929 . S
H2029 C2038 0.929 . S
C2030 H2024 0.930 . S
C2030 C2031 1.367 . S
C2030 C2038 1.378 . S
C2031 C2030 1.367 . S
C2031 C2039 1.433 . S
C2032 H2028 0.929 . S
C2032 C2034 1.378 . S
C2032 C2036 1.350 . S
C2033 C2036 1.463 . S
C2033 C2038 1.350 . S
C2033 N2041 1.427 . S
C2034 H2025 0.930 . S
C2034 C2032 1.378 . S
C2034 C2035 1.367 . S
C2035 C2034 1.367 . S
C2035 C2037 1.433 . S
C2036 C2032 1.350 . S
C2036 C2033 1.463 . S
C2036 N2040 1.427 . S
C2037 H2027 0.929 . S
C2037 C2035 1.433 . S
C2037 N2040 1.384 . S
C2038 H2029 0.929 . S
C2038 C2030 1.378 . S
C2038 C2033 1.350 . S
C2039 H2026 0.929 . S
C2039 C2031 1.433 . S
C2039 N2041 1.384 . S
N2040 C2036 1.427 . S
N2040 C2037 1.384 . S
N2041 C2033 1.427 . S
N2041 C2039 1.384 . S
H2042 C2048 0.930 . S
H2043 C2052 0.930 . S
H2044 C2057 0.929 . S
H2045 C2055 0.929 . S
H2046 C2050 0.929 . S
H2047 C2056 0.929 . S
C2048 H2042 0.930 . S
C2048 C2049 1.367 . S
C2048 C2056 1.378 . S
C2049 C2048 1.367 . S
C2049 C2057 1.433 . S
C2050 H2046 0.929 . S
C2050 C2052 1.378 . S
C2050 C2054 1.350 . S
C2051 C2054 1.463 . S
C2051 C2056 1.350 . S
C2051 N2059 1.427 . S
C2052 H2043 0.930 . S
C2052 C2050 1.378 . S
C2052 C2053 1.367 . S
C2053 C2052 1.367 . S
C2053 C2055 1.433 . S
C2054 C2050 1.350 . S
C2054 C2051 1.463 . S
C2054 N2058 1.427 . S
C2055 H2045 0.929 . S
C2055 C2053 1.433 . S
C2055 N2058 1.384 . S
C2056 H2047 0.929 . S
C2056 C2048 1.378 . S
C2056 C2051 1.350 . S
C2057 H2044 0.929 . S
C2057 C2049 1.433 . S
C2057 N2059 1.384 . S
N2058 C2054 1.427 . S
N2058 C2055 1.384 . S
N2059 C2051 1.427 . S
N2059 C2057 1.384 . S
H2060 C2066 0.930 . S
H2061 C2070 0.930 . S
H2062 C2075 0.929 . S
H2063 C2073 0.929 . S
H2064 C2068 0.929 . S
H2065 C2074 0.929 . S
C2066 H2060 0.930 . S
C2066 C2067 1.367 . S
C2066 C2074 1.378 . S
C2067 C2066 1.367 . S
C2067 C2075 1.433 . S
C2068 H2064 0.929 . S
C2068 C2070 1.378 . S
C2068 C2072 1.350 . S
C2069 C2072 1.463 . S
C2069 C2074 1.350 . S
C2069 N2077 1.427 . S
C2070 H2061 0.930 . S
C2070 C2068 1.378 . S
C2070 C2071 1.367 . S
C2071 C2070 1.367 . S
C2071 C2073 1.433 . S
C2072 C2068 1.350 . S
C2072 C2069 1.463 . S
C2072 N2076 1.427 . S
C2073 H2063 0.929 . S
C2073 C2071 1.433 . S
C2073 N2076 1.384 . S
C2074 H2065 0.929 . S
C2074 C2066 1.378 . S
C2074 C2069 1.350 . S
C2075 H2062 0.929 . S
C2075 C2067 1.433 . S
C2075 N2077 1.384 . S
N2076 C2072 1.427 . S
N2076 C2073 1.384 . S
N2077 C2069 1.427 . S
N2077 C2075 1.384 . S
H2078 C2084 0.930 . S
H2079 C2088 0.930 . S
H2080 C2093 0.929 . S
H2081 C2091 0.929 . S
H2082 C2086 0.929 . S
H2083 C2092 0.929 . S
C2084 H2078 0.930 . S
C2084 C2085 1.367 . S
C2084 C2092 1.378 . S
C2085 C2084 1.367 . S
C2085 C2093 1.433 . S
C2086 H2082 0.929 . S
C2086 C2088 1.378 . S
C2086 C2090 1.350 . S
C2087 C2090 1.463 . S
C2087 C2092 1.350 . S
C2087 N2095 1.427 . S
C2088 H2079 0.930 . S
C2088 C2086 1.378 . S
C2088 C2089 1.367 . S
C2089 C2088 1.367 . S
C2089 C2091 1.433 . S
C2090 C2086 1.350 . S
C2090 C2087 1.463 . S
C2090 N2094 1.427 . S
C2091 H2081 0.929 . S
C2091 C2089 1.433 . S
C2091 N2094 1.384 . S
C2092 H2083 0.929 . S
C2092 C2084 1.378 . S
C2092 C2087 1.350 . S
C2093 H2080 0.929 . S
C2093 C2085 1.433 . S
C2093 N2095 1.384 . S
N2094 C2090 1.427 . S
N2094 C2091 1.384 . S
N2095 C2087 1.427 . S
N2095 C2093 1.384 . S
H2096 C2102 0.930 . S
H2097 C2106 0.930 . S
H2098 C2111 0.929 . S
H2099 C2109 0.929 . S
H2100 C2104 0.929 . S
H2101 C2110 0.929 . S
C2102 H2096 0.930 . S
C2102 C2103 1.367 . S
C2102 C2110 1.378 . S
C2103 C2102 1.367 . S
C2103 C2111 1.433 . S
C2104 H2100 0.929 . S
C2104 C2106 1.378 . S
C2104 C2108 1.350 . S
C2105 C2108 1.463 . S
C2105 C2110 1.350 . S
C2105 N2113 1.427 . S
C2106 H2097 0.930 . S
C2106 C2104 1.378 . S
C2106 C2107 1.367 . S
C2107 C2106 1.367 . S
C2107 C2109 1.433 . S
C2108 C2104 1.350 . S
C2108 C2105 1.463 . S
C2108 N2112 1.427 . S
C2109 H2099 0.929 . S
C2109 C2107 1.433 . S
C2109 N2112 1.384 . S
C2110 H2101 0.929 . S
C2110 C2102 1.378 . S
C2110 C2105 1.350 . S
C2111 H2098 0.929 . S
C2111 C2103 1.433 . S
C2111 N2113 1.384 . S
N2112 C2108 1.427 . S
N2112 C2109 1.384 . S
N2113 C2105 1.427 . S
N2113 C2111 1.384 . S
H2114 C2120 0.930 . S
H2115 C2124 0.930 . S
H2116 C2129 0.929 . S
H2117 C2127 0.929 . S
H2118 C2122 0.929 . S
H2119 C2128 0.929 . S
C2120 H2114 0.930 . S
C2120 C2121 1.367 . S
C2120 C2128 1.378 . S
C2121 C2120 1.367 . S
C2121 C2129 1.433 . S
C2122 H2118 0.929 . S
C2122 C2124 1.378 . S
C2122 C2126 1.350 . S
C2123 C2126 1.463 . S
C2123 C2128 1.350 . S
C2123 N2131 1.427 . S
C2124 H2115 0.930 . S
C2124 C2122 1.378 . S
C2124 C2125 1.367 . S
C2125 C2124 1.367 . S
C2125 C2127 1.433 . S
C2126 C2122 1.350 . S
C2126 C2123 1.463 . S
C2126 N2130 1.427 . S
C2127 H2117 0.929 . S
C2127 C2125 1.433 . S
C2127 N2130 1.384 . S
C2128 H2119 0.929 . S
C2128 C2120 1.378 . S
C2128 C2123 1.350 . S
C2129 H2116 0.929 . S
C2129 C2121 1.433 . S
C2129 N2131 1.384 . S
N2130 C2126 1.427 . S
N2130 C2127 1.384 . S
N2131 C2123 1.427 . S
N2131 C2129 1.384 . S
H2132 C2138 0.930 . S
H2133 C2142 0.930 . S
H2134 C2147 0.929 . S
H2135 C2145 0.929 . S
H2136 C2140 0.929 . S
H2137 C2146 0.929 . S
C2138 H2132 0.930 . S
C2138 C2139 1.367 . S
C2138 C2146 1.378 . S
C2139 C2138 1.367 . S
C2139 C2147 1.433 . S
C2140 H2136 0.929 . S
C2140 C2142 1.378 . S
C2140 C2144 1.350 . S
C2141 C2144 1.463 . S
C2141 C2146 1.350 . S
C2141 N2149 1.427 . S
C2142 H2133 0.930 . S
C2142 C2140 1.378 . S
C2142 C2143 1.367 . S
C2143 C2142 1.367 . S
C2143 C2145 1.433 . S
C2144 C2140 1.350 . S
C2144 C2141 1.463 . S
C2144 N2148 1.427 . S
C2145 H2135 0.929 . S
C2145 C2143 1.433 . S
C2145 N2148 1.384 . S
C2146 H2137 0.929 . S
C2146 C2138 1.378 . S
C2146 C2141 1.350 . S
C2147 H2134 0.929 . S
C2147 C2139 1.433 . S
C2147 N2149 1.384 . S
N2148 C2144 1.427 . S
N2148 C2145 1.384 . S
N2149 C2141 1.427 . S
N2149 C2147 1.384 . S
H2150 C2156 0.930 . S
H2151 C2160 0.930 . S
H2152 C2165 0.929 . S
H2153 C2163 0.929 . S
H2154 C2158 0.929 . S
H2155 C2164 0.929 . S
C2156 H2150 0.930 . S
C2156 C2157 1.367 . S
C2156 C2164 1.378 . S
C2157 C2156 1.367 . S
C2157 C2165 1.433 . S
C2158 H2154 0.929 . S
C2158 C2160 1.378 . S
C2158 C2162 1.350 . S
C2159 C2162 1.463 . S
C2159 C2164 1.350 . S
C2159 N2167 1.427 . S
C2160 H2151 0.930 . S
C2160 C2158 1.378 . S
C2160 C2161 1.367 . S
C2161 C2160 1.367 . S
C2161 C2163 1.433 . S
C2162 C2158 1.350 . S
C2162 C2159 1.463 . S
C2162 N2166 1.427 . S
C2163 H2153 0.929 . S
C2163 C2161 1.433 . S
C2163 N2166 1.384 . S
C2164 H2155 0.929 . S
C2164 C2156 1.378 . S
C2164 C2159 1.350 . S
C2165 H2152 0.929 . S
C2165 C2157 1.433 . S
C2165 N2167 1.384 . S
N2166 C2162 1.427 . S
N2166 C2163 1.384 . S
N2167 C2159 1.427 . S
N2167 C2165 1.384 . S
H2168 C2174 0.930 . S
H2169 C2178 0.930 . S
H2170 C2183 0.929 . S
H2171 C2181 0.929 . S
H2172 C2176 0.929 . S
H2173 C2182 0.929 . S
C2174 H2168 0.930 . S
C2174 C2175 1.367 . S
C2174 C2182 1.378 . S
C2175 C2174 1.367 . S
C2175 C2183 1.433 . S
C2176 H2172 0.929 . S
C2176 C2178 1.378 . S
C2176 C2180 1.350 . S
C2177 C2180 1.463 . S
C2177 C2182 1.350 . S
C2177 N2185 1.427 . S
C2178 H2169 0.930 . S
C2178 C2176 1.378 . S
C2178 C2179 1.367 . S
C2179 C2178 1.367 . S
C2179 C2181 1.433 . S
C2180 C2176 1.350 . S
C2180 C2177 1.463 . S
C2180 N2184 1.427 . S
C2181 H2171 0.929 . S
C2181 C2179 1.433 . S
C2181 N2184 1.384 . S
C2182 H2173 0.929 . S
C2182 C2174 1.378 . S
C2182 C2177 1.350 . S
C2183 H2170 0.929 . S
C2183 C2175 1.433 . S
C2183 N2185 1.384 . S
N2184 C2180 1.427 . S
N2184 C2181 1.384 . S
N2185 C2177 1.427 . S
N2185 C2183 1.384 . S
H2186 C2192 0.930 . S
H2187 C2196 0.930 . S
H2188 C2201 0.929 . S
H2189 C2199 0.929 . S
H2190 C2194 0.929 . S
H2191 C2200 0.929 . S
C2192 H2186 0.930 . S
C2192 C2193 1.367 . S
C2192 C2200 1.378 . S
C2193 C2192 1.367 . S
C2193 C2201 1.433 . S
C2194 H2190 0.929 . S
C2194 C2196 1.378 . S
C2194 C2198 1.350 . S
C2195 C2198 1.463 . S
C2195 C2200 1.350 . S
C2195 N2203 1.427 . S
C2196 H2187 0.930 . S
C2196 C2194 1.378 . S
C2196 C2197 1.367 . S
C2197 C2196 1.367 . S
C2197 C2199 1.433 . S
C2198 C2194 1.350 . S
C2198 C2195 1.463 . S
C2198 N2202 1.427 . S
C2199 H2189 0.929 . S
C2199 C2197 1.433 . S
C2199 N2202 1.384 . S
C2200 H2191 0.929 . S
C2200 C2192 1.378 . S
C2200 C2195 1.350 . S
C2201 H2188 0.929 . S
C2201 C2193 1.433 . S
C2201 N2203 1.384 . S
N2202 C2198 1.427 . S
N2202 C2199 1.384 . S
N2203 C2195 1.427 . S
N2203 C2201 1.384 . S
H2204 C2210 0.930 . S
H2205 C2214 0.930 . S
H2206 C2219 0.929 . S
H2207 C2217 0.929 . S
H2208 C2212 0.929 . S
H2209 C2218 0.929 . S
C2210 H2204 0.930 . S
C2210 C2211 1.367 . S
C2210 C2218 1.378 . S
C2211 C2210 1.367 . S
C2211 C2219 1.433 . S
C2212 H2208 0.929 . S
C2212 C2214 1.378 . S
C2212 C2216 1.350 . S
C2213 C2216 1.463 . S
C2213 C2218 1.350 . S
C2213 N2221 1.427 . S
C2214 H2205 0.930 . S
C2214 C2212 1.378 . S
C2214 C2215 1.367 . S
C2215 C2214 1.367 . S
C2215 C2217 1.433 . S
C2216 C2212 1.350 . S
C2216 C2213 1.463 . S
C2216 N2220 1.427 . S
C2217 H2207 0.929 . S
C2217 C2215 1.433 . S
C2217 N2220 1.384 . S
C2218 H2209 0.929 . S
C2218 C2210 1.378 . S
C2218 C2213 1.350 . S
C2219 H2206 0.929 . S
C2219 C2211 1.433 . S
C2219 N2221 1.384 . S
N2220 C2216 1.427 . S
N2220 C2217 1.384 . S
N2221 C2213 1.427 . S
N2221 C2219 1.384 . S
H2222 C2228 0.930 . S
H2223 C2232 0.930 . S
H2224 C2237 0.929 . S
H2225 C2235 0.929 . S
H2226 C2230 0.929 . S
H2227 C2236 0.929 . S
C2228 H2222 0.930 . S
C2228 C2229 1.367 . S
C2228 C2236 1.378 . S
C2229 C2228 1.367 . S
C2229 C2237 1.433 . S
C2230 H2226 0.929 . S
C2230 C2232 1.378 . S
C2230 C2234 1.350 . S
C2231 C2234 1.463 . S
C2231 C2236 1.350 . S
C2231 N2239 1.427 . S
C2232 H2223 0.930 . S
C2232 C2230 1.378 . S
C2232 C2233 1.367 . S
C2233 C2232 1.367 . S
C2233 C2235 1.433 . S
C2234 C2230 1.350 . S
C2234 C2231 1.463 . S
C2234 N2238 1.427 . S
C2235 H2225 0.929 . S
C2235 C2233 1.433 . S
C2235 N2238 1.384 . S
C2236 H2227 0.929 . S
C2236 C2228 1.378 . S
C2236 C2231 1.350 . S
C2237 H2224 0.929 . S
C2237 C2229 1.433 . S
C2237 N2239 1.384 . S
N2238 C2234 1.427 . S
N2238 C2235 1.384 . S
N2239 C2231 1.427 . S
N2239 C2237 1.384 . S
H2240 C2246 0.930 . S
H2241 C2250 0.930 . S
H2242 C2255 0.929 . S
H2243 C2253 0.929 . S
H2244 C2248 0.929 . S
H2245 C2254 0.929 . S
C2246 H2240 0.930 . S
C2246 C2247 1.367 . S
C2246 C2254 1.378 . S
C2247 C2246 1.367 . S
C2247 C2255 1.433 . S
C2248 H2244 0.929 . S
C2248 C2250 1.378 . S
C2248 C2252 1.350 . S
C2249 C2252 1.463 . S
C2249 C2254 1.350 . S
C2249 N2257 1.427 . S
C2250 H2241 0.930 . S
C2250 C2248 1.378 . S
C2250 C2251 1.367 . S
C2251 C2250 1.367 . S
C2251 C2253 1.433 . S
C2252 C2248 1.350 . S
C2252 C2249 1.463 . S
C2252 N2256 1.427 . S
C2253 H2243 0.929 . S
C2253 C2251 1.433 . S
C2253 N2256 1.384 . S
C2254 H2245 0.929 . S
C2254 C2246 1.378 . S
C2254 C2249 1.350 . S
C2255 H2242 0.929 . S
C2255 C2247 1.433 . S
C2255 N2257 1.384 . S
N2256 C2252 1.427 . S
N2256 C2253 1.384 . S
N2257 C2249 1.427 . S
N2257 C2255 1.384 . S
H2258 C2264 0.930 1_455 S
H2259 C2268 0.930 1_655 S
H2260 C2273 0.929 . S
H2261 C2271 0.929 . S
H2262 C2266 0.929 . S
H2263 C2272 0.929 . S
C2264 H2258 0.930 1_655 S
C2264 C2265 1.367 . S
C2264 C2272 1.378 1_655 S
C2265 C2264 1.367 . S
C2265 C2273 1.433 . S
C2266 H2262 0.929 . S
C2266 C2268 1.378 1_655 S
C2266 C2270 1.350 1_655 S
C2267 C2270 1.463 1_655 S
C2267 C2272 1.350 1_655 S
C2267 N2275 1.427 . S
C2268 H2259 0.930 1_455 S
C2268 C2266 1.378 1_455 S
C2268 C2269 1.367 . S
C2269 C2268 1.367 . S
C2269 C2271 1.433 . S
C2270 C2266 1.350 1_455 S
C2270 C2267 1.463 1_455 S
C2270 N2274 1.427 . S
C2271 H2261 0.929 . S
C2271 C2269 1.433 . S
C2271 N2274 1.384 . S
C2272 H2263 0.929 . S
C2272 C2264 1.378 1_455 S
C2272 C2267 1.350 1_455 S
C2273 H2260 0.929 . S
C2273 C2265 1.433 . S
C2273 N2275 1.384 . S
N2274 C2270 1.427 . S
N2274 C2271 1.384 . S
N2275 C2267 1.427 . S
N2275 C2273 1.384 . S
H2276 C2282 0.930 . S
H2277 C2286 0.930 . S
H2278 C2291 0.929 . S
H2279 C2289 0.929 . S
H2280 C2284 0.929 . S
H2281 C2290 0.929 . S
C2282 H2276 0.930 . S
C2282 C2283 1.367 . S
C2282 C2290 1.378 . S
C2283 C2282 1.367 . S
C2283 C2291 1.433 . S
C2284 H2280 0.929 . S
C2284 C2286 1.378 . S
C2284 C2288 1.350 . S
C2285 C2288 1.463 1_455 S
C2285 C2290 1.350 . S
C2285 N2293 1.427 . S
C2286 H2277 0.930 . S
C2286 C2284 1.378 . S
C2286 C2287 1.367 . S
C2287 C2286 1.367 . S
C2287 C2289 1.433 . S
C2288 C2284 1.350 . S
C2288 C2285 1.463 1_655 S
C2288 N2292 1.427 . S
C2289 H2279 0.929 . S
C2289 C2287 1.433 . S
C2289 N2292 1.384 . S
C2290 H2281 0.929 . S
C2290 C2282 1.378 . S
C2290 C2285 1.350 . S
C2291 H2278 0.929 . S
C2291 C2283 1.433 . S
C2291 N2293 1.384 . S
N2292 C2288 1.427 . S
N2292 C2289 1.384 . S
N2293 C2285 1.427 . S
N2293 C2291 1.384 . S
H2294 C2300 0.930 . S
H2295 C2304 0.930 . S
H2296 C2309 0.929 . S
H2297 C2307 0.929 . S
H2298 C2302 0.929 . S
H2299 C2308 0.929 . S
C2300 H2294 0.930 . S
C2300 C2301 1.367 . S
C2300 C2308 1.378 . S
C2301 C2300 1.367 . S
C2301 C2309 1.433 . S
C2302 H2298 0.929 . S
C2302 C2304 1.378 . S
C2302 C2306 1.350 . S
C2303 C2306 1.463 . S
C2303 C2308 1.350 . S
C2303 N2311 1.427 . S
C2304 H2295 0.930 . S
C2304 C2302 1.378 . S
C2304 C2305 1.367 . S
C2305 C2304 1.367 . S
C2305 C2307 1.433 . S
C2306 C2302 1.350 . S
C2306 C2303 1.463 . S
C2306 N2310 1.427 . S
C2307 H2297 0.929 . S
C2307 C2305 1.433 . S
C2307 N2310 1.384 . S
C2308 H2299 0.929 . S
C2308 C2300 1.378 . S
C2308 C2303 1.350 . S
C2309 H2296 0.929 . S
C2309 C2301 1.433 . S
C2309 N2311 1.384 . S
N2310 C2306 1.427 . S
N2310 C2307 1.384 . S
N2311 C2303 1.427 . S
N2311 C2309 1.384 . S
H2312 C2318 0.930 . S
H2313 C2322 0.930 . S
H2314 C2327 0.929 . S
H2315 C2325 0.929 . S
H2316 C2320 0.929 . S
H2317 C2326 0.929 . S
C2318 H2312 0.930 . S
C2318 C2319 1.367 . S
C2318 C2326 1.378 . S
C2319 C2318 1.367 . S
C2319 C2327 1.433 . S
C2320 H2316 0.929 . S
C2320 C2322 1.378 . S
C2320 C2324 1.350 . S
C2321 C2324 1.463 . S
C2321 C2326 1.350 . S
C2321 N2329 1.427 . S
C2322 H2313 0.930 . S
C2322 C2320 1.378 . S
C2322 C2323 1.367 . S
C2323 C2322 1.367 . S
C2323 C2325 1.433 . S
C2324 C2320 1.350 . S
C2324 C2321 1.463 . S
C2324 N2328 1.427 . S
C2325 H2315 0.929 . S
C2325 C2323 1.433 . S
C2325 N2328 1.384 . S
C2326 H2317 0.929 . S
C2326 C2318 1.378 . S
C2326 C2321 1.350 . S
C2327 H2314 0.929 . S
C2327 C2319 1.433 . S
C2327 N2329 1.384 . S
N2328 C2324 1.427 . S
N2328 C2325 1.384 . S
N2329 C2321 1.427 . S
N2329 C2327 1.384 . S
H2330 C2336 0.930 . S
H2331 C2340 0.930 . S
H2332 C2345 0.929 . S
H2333 C2343 0.929 . S
H2334 C2338 0.929 . S
H2335 C2344 0.929 . S
C2336 H2330 0.930 . S
C2336 C2337 1.367 . S
C2336 C2344 1.378 . S
C2337 C2336 1.367 . S
C2337 C2345 1.433 . S
C2338 H2334 0.929 . S
C2338 C2340 1.378 . S
C2338 C2342 1.350 . S
C2339 C2342 1.463 . S
C2339 C2344 1.350 . S
C2339 N2347 1.427 . S
C2340 H2331 0.930 . S
C2340 C2338 1.378 . S
C2340 C2341 1.367 . S
C2341 C2340 1.367 . S
C2341 C2343 1.433 . S
C2342 C2338 1.350 . S
C2342 C2339 1.463 . S
C2342 N2346 1.427 . S
C2343 H2333 0.929 . S
C2343 C2341 1.433 . S
C2343 N2346 1.384 . S
C2344 H2335 0.929 . S
C2344 C2336 1.378 . S
C2344 C2339 1.350 . S
C2345 H2332 0.929 . S
C2345 C2337 1.433 . S
C2345 N2347 1.384 . S
N2346 C2342 1.427 . S
N2346 C2343 1.384 . S
N2347 C2339 1.427 . S
N2347 C2345 1.384 . S
H2348 C2354 0.930 . S
H2349 C2358 0.930 . S
H2350 C2363 0.929 . S
H2351 C2361 0.929 . S
H2352 C2356 0.929 . S
H2353 C2362 0.929 . S
C2354 H2348 0.930 . S
C2354 C2355 1.367 . S
C2354 C2362 1.378 . S
C2355 C2354 1.367 . S
C2355 C2363 1.433 . S
C2356 H2352 0.929 . S
C2356 C2358 1.378 . S
C2356 C2360 1.350 . S
C2357 C2360 1.463 1_655 S
C2357 C2362 1.350 . S
C2357 N2365 1.427 . S
C2358 H2349 0.930 . S
C2358 C2356 1.378 . S
C2358 C2359 1.367 . S
C2359 C2358 1.367 . S
C2359 C2361 1.433 . S
C2360 C2356 1.350 . S
C2360 C2357 1.463 1_455 S
C2360 N2364 1.427 . S
C2361 H2351 0.929 . S
C2361 C2359 1.433 . S
C2361 N2364 1.384 . S
C2362 H2353 0.929 . S
C2362 C2354 1.378 . S
C2362 C2357 1.350 . S
C2363 H2350 0.929 . S
C2363 C2355 1.433 . S
C2363 N2365 1.384 . S
N2364 C2360 1.427 . S
N2364 C2361 1.384 . S
N2365 C2357 1.427 . S
N2365 C2363 1.384 . S
H2366 C2372 0.930 . S
H2367 C2376 0.930 . S
H2368 C2381 0.929 . S
H2369 C2379 0.929 . S
H2370 C2374 0.934 . S
H2371 C2380 0.934 . S
C2372 H2366 0.930 . S
C2372 C2373 1.367 . S
C2372 C2380 1.374 1_655 S
C2373 C2372 1.367 . S
C2373 C2381 1.433 . S
C2374 H2370 0.934 . S
C2374 C2376 1.374 1_655 S
C2374 C2378 1.348 1_655 S
C2375 C2378 1.463 1_655 S
C2375 C2380 1.348 1_655 S
C2375 N2383 1.427 . S
C2376 H2367 0.930 . S
C2376 C2374 1.374 1_455 S
C2376 C2377 1.367 . S
C2377 C2376 1.367 . S
C2377 C2379 1.433 . S
C2378 C2374 1.348 1_455 S
C2378 C2375 1.463 1_455 S
C2378 N2382 1.427 . S
C2379 H2369 0.929 . S
C2379 C2377 1.433 . S
C2379 N2382 1.384 . S
C2380 H2371 0.934 . S
C2380 C2372 1.374 1_455 S
C2380 C2375 1.348 1_455 S
C2381 H2368 0.929 . S
C2381 C2373 1.433 . S
C2381 N2383 1.384 . S
N2382 C2378 1.427 . S
N2382 C2379 1.384 . S
N2383 C2375 1.427 . S
N2383 C2381 1.384 . S
H2384 C2390 0.930 . S
H2385 C2394 0.930 . S
H2386 C2399 0.929 . S
H2387 C2397 0.929 . S
H2388 C2392 0.929 . S
H2389 C2398 0.929 . S
C2390 H2384 0.930 . S
C2390 C2391 1.367 . S
C2390 C2398 1.378 . S
C2391 C2390 1.367 . S
C2391 C2399 1.433 . S
C2392 H2388 0.929 . S
C2392 C2394 1.378 . S
C2392 C2396 1.350 . S
C2393 C2396 1.463 . S
C2393 C2398 1.350 . S
C2393 N2401 1.427 . S
C2394 H2385 0.930 . S
C2394 C2392 1.378 . S
C2394 C2395 1.367 . S
C2395 C2394 1.367 . S
C2395 C2397 1.433 . S
C2396 C2392 1.350 . S
C2396 C2393 1.463 . S
C2396 N2400 1.427 . S
C2397 H2387 0.929 . S
C2397 C2395 1.433 . S
C2397 N2400 1.384 . S
C2398 H2389 0.929 . S
C2398 C2390 1.378 . S
C2398 C2393 1.350 . S
C2399 H2386 0.929 . S
C2399 C2391 1.433 . S
C2399 N2401 1.384 . S
N2400 C2396 1.427 . S
N2400 C2397 1.384 . S
N2401 C2393 1.427 . S
N2401 C2399 1.384 . S
H2402 C2408 0.930 . S
H2403 C2412 0.930 . S
H2404 C2417 0.929 . S
H2405 C2415 0.929 . S
H2406 C2410 0.929 . S
H2407 C2416 0.929 . S
C2408 H2402 0.930 . S
C2408 C2409 1.367 1_655 S
C2408 C2416 1.378 . S
C2409 C2408 1.367 1_455 S
C2409 C2417 1.433 . S
C2410 H2406 0.929 . S
C2410 C2412 1.378 . S
C2410 C2414 1.350 1_455 S
C2411 C2414 1.463 1_455 S
C2411 C2416 1.350 1_455 S
C2411 N2419 1.427 . S
C2412 H2403 0.930 . S
C2412 C2410 1.378 . S
C2412 C2413 1.367 1_455 S
C2413 C2412 1.367 1_655 S
C2413 C2415 1.433 . S
C2414 C2410 1.350 1_655 S
C2414 C2411 1.463 1_655 S
C2414 N2418 1.427 . S
C2415 H2405 0.929 . S
C2415 C2413 1.433 . S
C2415 N2418 1.384 . S
C2416 H2407 0.929 . S
C2416 C2408 1.378 . S
C2416 C2411 1.350 1_655 S
C2417 H2404 0.929 . S
C2417 C2409 1.433 . S
C2417 N2419 1.384 . S
N2418 C2414 1.427 . S
N2418 C2415 1.384 . S
N2419 C2411 1.427 . S
N2419 C2417 1.384 . S
H2420 C2426 0.930 . S
H2421 C2430 0.930 . S
H2422 C2435 0.929 . S
H2423 C2433 0.929 . S
H2424 C2428 0.929 . S
H2425 C2434 0.929 . S
C2426 H2420 0.930 . S
C2426 C2427 1.367 . S
C2426 C2434 1.378 . S
C2427 C2426 1.367 . S
C2427 C2435 1.433 . S
C2428 H2424 0.929 . S
C2428 C2430 1.378 . S
C2428 C2432 1.350 . S
C2429 C2432 1.463 1_655 S
C2429 C2434 1.350 . S
C2429 N2437 1.427 . S
C2430 H2421 0.930 . S
C2430 C2428 1.378 . S
C2430 C2431 1.367 . S
C2431 C2430 1.367 . S
C2431 C2433 1.433 . S
C2432 C2428 1.350 . S
C2432 C2429 1.463 1_455 S
C2432 N2436 1.427 . S
C2433 H2423 0.929 . S
C2433 C2431 1.433 . S
C2433 N2436 1.384 . S
C2434 H2425 0.929 . S
C2434 C2426 1.378 . S
C2434 C2429 1.350 . S
C2435 H2422 0.929 . S
C2435 C2427 1.433 . S
C2435 N2437 1.384 . S
N2436 C2432 1.427 . S
N2436 C2433 1.384 . S
N2437 C2429 1.427 . S
N2437 C2435 1.384 . S
H2438 C2444 0.930 . S
H2439 C2448 0.930 . S
H2440 C2453 0.929 . S
H2441 C2451 0.929 . S
H2442 C2446 0.929 . S
H2443 C2452 0.929 . S
C2444 H2438 0.930 . S
C2444 C2445 1.367 . S
C2444 C2452 1.378 . S
C2445 C2444 1.367 . S
C2445 C2453 1.433 . S
C2446 H2442 0.929 . S
C2446 C2448 1.378 . S
C2446 C2450 1.350 . S
C2447 C2450 1.463 . S
C2447 C2452 1.350 . S
C2447 N2455 1.427 . S
C2448 H2439 0.930 . S
C2448 C2446 1.378 . S
C2448 C2449 1.367 . S
C2449 C2448 1.367 . S
C2449 C2451 1.433 . S
C2450 C2446 1.350 . S
C2450 C2447 1.463 . S
C2450 N2454 1.427 . S
C2451 H2441 0.929 . S
C2451 C2449 1.433 . S
C2451 N2454 1.384 . S
C2452 H2443 0.929 . S
C2452 C2444 1.378 . S
C2452 C2447 1.350 . S
C2453 H2440 0.929 . S
C2453 C2445 1.433 . S
C2453 N2455 1.384 . S
N2454 C2450 1.427 . S
N2454 C2451 1.384 . S
N2455 C2447 1.427 . S
N2455 C2453 1.384 . S
H2456 C2462 0.930 . S
H2457 C2466 0.930 . S
H2458 C2471 0.929 . S
H2459 C2469 0.929 . S
H2460 C2464 0.929 . S
H2461 C2470 0.929 . S
C2462 H2456 0.930 . S
C2462 C2463 1.367 . S
C2462 C2470 1.378 . S
C2463 C2462 1.367 . S
C2463 C2471 1.433 . S
C2464 H2460 0.929 . S
C2464 C2466 1.378 . S
C2464 C2468 1.350 . S
C2465 C2468 1.463 . S
C2465 C2470 1.350 . S
C2465 N2473 1.427 . S
C2466 H2457 0.930 . S
C2466 C2464 1.378 . S
C2466 C2467 1.367 . S
C2467 C2466 1.367 . S
C2467 C2469 1.433 . S
C2468 C2464 1.350 . S
C2468 C2465 1.463 . S
C2468 N2472 1.427 . S
C2469 H2459 0.929 . S
C2469 C2467 1.433 . S
C2469 N2472 1.384 . S
C2470 H2461 0.929 . S
C2470 C2462 1.378 . S
C2470 C2465 1.350 . S
C2471 H2458 0.929 . S
C2471 C2463 1.433 . S
C2471 N2473 1.384 . S
N2472 C2468 1.427 . S
N2472 C2469 1.384 . S
N2473 C2465 1.427 . S
N2473 C2471 1.384 . S
H2474 C2480 0.930 . S
H2475 C2484 0.930 . S
H2476 C2489 0.929 . S
H2477 C2487 0.929 . S
H2478 C2482 0.929 . S
H2479 C2488 0.929 . S
C2480 H2474 0.930 . S
C2480 C2481 1.367 . S
C2480 C2488 1.378 . S
C2481 C2480 1.367 . S
C2481 C2489 1.433 . S
C2482 H2478 0.929 . S
C2482 C2484 1.378 . S
C2482 C2486 1.350 . S
C2483 C2486 1.463 . S
C2483 C2488 1.350 . S
C2483 N2491 1.427 . S
C2484 H2475 0.930 . S
C2484 C2482 1.378 . S
C2484 C2485 1.367 . S
C2485 C2484 1.367 . S
C2485 C2487 1.433 . S
C2486 C2482 1.350 . S
C2486 C2483 1.463 . S
C2486 N2490 1.427 . S
C2487 H2477 0.929 . S
C2487 C2485 1.433 . S
C2487 N2490 1.384 . S
C2488 H2479 0.929 . S
C2488 C2480 1.378 . S
C2488 C2483 1.350 . S
C2489 H2476 0.929 . S
C2489 C2481 1.433 . S
C2489 N2491 1.384 . S
N2490 C2486 1.427 . S
N2490 C2487 1.384 . S
N2491 C2483 1.427 . S
N2491 C2489 1.384 . S
H2492 C2498 0.930 . S
H2493 C2502 0.930 . S
H2494 C2507 0.929 . S
H2495 C2505 0.929 . S
H2496 C2500 0.929 . S
H2497 C2506 0.929 . S
C2498 H2492 0.930 . S
C2498 C2499 1.367 . S
C2498 C2506 1.378 . S
C2499 C2498 1.367 . S
C2499 C2507 1.433 . S
C2500 H2496 0.929 . S
C2500 C2502 1.378 . S
C2500 C2504 1.350 . S
C2501 C2504 1.463 1_455 S
C2501 C2506 1.350 . S
C2501 N2509 1.427 . S
C2502 H2493 0.930 . S
C2502 C2500 1.378 . S
C2502 C2503 1.367 . S
C2503 C2502 1.367 . S
C2503 C2505 1.433 . S
C2504 C2500 1.350 . S
C2504 C2501 1.463 1_655 S
C2504 N2508 1.427 . S
C2505 H2495 0.929 . S
C2505 C2503 1.433 . S
C2505 N2508 1.384 . S
C2506 H2497 0.929 . S
C2506 C2498 1.378 . S
C2506 C2501 1.350 . S
C2507 H2494 0.929 . S
C2507 C2499 1.433 . S
C2507 N2509 1.384 . S
N2508 C2504 1.427 . S
N2508 C2505 1.384 . S
N2509 C2501 1.427 . S
N2509 C2507 1.384 . S
H2510 C2516 0.936 . S
H2511 C2520 0.936 . S
H2512 C2525 0.929 . S
H2513 C2523 0.929 . S
H2514 C2518 0.929 . S
H2515 C2524 0.929 . S
C2516 H2510 0.936 . S
C2516 C2517 1.367 . S
C2516 C2524 1.378 1_455 S
C2517 C2516 1.367 . S
C2517 C2525 1.433 . S
C2518 H2514 0.929 . S
C2518 C2520 1.378 1_455 S
C2518 C2522 1.350 1_455 S
C2519 C2522 1.463 1_455 S
C2519 C2524 1.350 1_455 S
C2519 N2527 1.427 . S
C2520 H2511 0.936 . S
C2520 C2518 1.378 1_655 S
C2520 C2521 1.367 . S
C2521 C2520 1.367 . S
C2521 C2523 1.433 . S
C2522 C2518 1.350 1_655 S
C2522 C2519 1.463 1_655 S
C2522 N2526 1.427 . S
C2523 H2513 0.929 . S
C2523 C2521 1.433 . S
C2523 N2526 1.384 . S
C2524 H2515 0.929 . S
C2524 C2516 1.378 1_655 S
C2524 C2519 1.350 1_655 S
C2525 H2512 0.929 . S
C2525 C2517 1.433 . S
C2525 N2527 1.384 . S
N2526 C2522 1.427 . S
N2526 C2523 1.384 . S
N2527 C2519 1.427 . S
N2527 C2525 1.384 . S
C1095 C20 1.811 . S
C1099 C258 1.814 . S
C1113 C54 1.817 . S
C1117 C156 1.817 . S
C1131 C88 1.811 . S
C1135 C190 1.809 . S
C1149 C122 1.815 . S
C1153 C224 1.817 . S
C1167 C530 1.815 . S
C1171 C292 1.817 . S
C1185 C326 1.809 . S
C1189 C428 1.811 . S
C1203 C462 1.814 . S
C1207 C360 1.817 . S
C1221 C394 1.811 . S
C1225 C496 1.815 . S
C1239 C564 1.810 . S
C1243 C802 1.813 . S
C1257 C700 1.810 . S
C1261 C598 1.813 . S
C1275 C632 1.810 . S
C1279 C734 1.809 . S
C1293 C666 1.811 . S
C1297 C768 1.809 . S
C1311 C836 1.814 . S
C1315 C1074 1.810 . S
C1329 C870 1.816 . S
C1333 C972 1.813 . S
C1347 C1006 1.814 . S
C1351 C904 1.817 . S
C1365 C1040 1.809 . S
C1369 C938 1.809 . S
C1383 C206 1.606 . S
C1387 C2 1.606 . S
C1401 C36 1.605 . S
C1405 C240 1.605 . S
C1419 C70 1.606 . S
C1423 C138 1.606 . S
C1437 C104 1.606 . S
C1441 C172 1.605 . S
C1455 C274 1.607 . S
C1459 C478 1.607 . S
C1473 C512 1.605 . S
C1477 C308 1.605 . S
C1491 C410 1.606 . S
C1495 C342 1.606 . S
C1509 C444 1.607 . S
C1513 C376 1.607 . S
C1527 C546 1.607 . S
C1531 C750 1.607 . S
C1545 C784 1.607 . S
C1549 C580 1.607 . S
C1563 C682 1.606 . S
C1567 C614 1.606 . S
C1581 C648 1.607 . S
C1585 C716 1.607 . S
C1599 C1022 1.606 . S
C1603 C818 1.606 . S
C1617 C852 1.607 . S
C1621 C1056 1.607 . S
C1635 C954 1.606 . S
C1639 C886 1.606 . S
C1653 C988 1.607 . S
C1657 C920 1.607 . S
C1671 C957 0.718 . S
C1675 C9 0.737 . S
C1689 C447 0.711 . S
C1693 C43 0.733 . S
C1707 C1025 0.718 . S
C1711 C77 0.736 . S
C1725 C111 0.703 . S
C1729 C515 0.709 . S
C1743 C821 0.702 . S
C1747 C145 0.708 . S
C1761 C311 0.716 . S
C1765 C179 0.718 . S
C1779 C889 0.718 . S
C1783 C213 0.723 . S
C1797 C247 0.701 . S
C1801 C379 0.707 . S
C1815 C281 0.738 . S
C1819 C685 0.716 . S
C1833 C315 0.708 . S
C1837 C175 0.712 . S
C1851 C349 0.702 . S
C1855 C753 0.703 . S
C1869 C243 0.703 . S
C1873 C383 0.702 . S
C1887 C549 0.718 . S
C1891 C417 0.727 . S
C1905 C451 0.719 . S
C1909 C39 0.704 . S
C1923 C485 0.731 . S
C1927 C617 0.719 . S
C1941 C519 0.700 . S
C1945 C107 0.706 . S
C1959 C413 0.719 . S
C1963 C553 0.734 . S
C1977 C587 0.701 . S
C1981 C991 0.707 . S
C1995 C481 0.703 . S
C1999 C621 0.703 . S
C2013 C655 0.736 . S
C2017 C1059 0.712 . S
C2031 C689 0.717 . S
C2035 C277 0.704 . S
C2049 C723 0.737 . S
C2053 C855 0.714 . S
C2067 C345 0.718 . S
C2071 C757 0.738 . S
C2085 C791 0.736 . S
C2089 C923 0.713 . S
C2103 C141 0.716 . S
C2107 C825 0.715 . S
C2121 C719 0.714 . S
C2125 C859 0.737 . S
C2139 C209 0.716 . S
C2143 C893 0.718 . S
C2157 C787 0.719 . S
C2161 C927 0.732 . S
C2175 C5 0.705 . S
C2179 C961 0.720 . S
C2193 C583 0.704 . S
C2197 C995 0.701 . S
C2211 C1029 0.737 . S
C2215 C73 0.718 . S
C2229 C651 0.709 . S
C2233 C1063 0.703 . S
C2247 C645 2.348 . S
C2251 C33 2.348 . S
C2265 C679 2.348 . S
C2269 C67 2.348 . S
C2283 C101 2.349 . S
C2287 C577 2.348 . S
C2301 C135 2.348 . S
C2305 C611 2.348 . S
C2319 C781 2.349 . S
C2323 C169 2.348 . S
C2337 C203 2.349 . S
C2341 C815 2.348 . S
C2355 C713 2.349 . S
C2359 C237 2.348 . S
C2373 C747 2.348 . S
C2377 C271 2.349 . S
C2391 C917 2.348 . S
C2395 C305 2.349 . S
C2409 C951 2.348 . S
C2413 C339 2.348 . S
C2427 C373 2.348 . S
C2431 C849 2.348 . S
C2445 C407 2.348 . S
C2449 C883 2.348 . S
C2463 C441 2.348 . S
C2467 C1053 2.348 . S
C2481 C475 2.349 . S
C2485 C1087 2.348 . S
C2499 C985 2.348 . S
C2503 C509 2.349 . S
C2517 C1019 2.348 . S
C2521 C543 2.348 . S
