# Generated by pormake.
# Topology flu-e, (6)-cn, num edge types: 1
# Building blocks:
#     Node 0, Type 0, BuildingBlock: MAKGUD_clean_sbu_1, # of connection points: 6
#     Node 1, Type 0, BuildingBlock: MAKGUD_clean_sbu_1, # of connection points: 6
#     Node 2, Type 0, BuildingBlock: MAKGUD_clean_sbu_1, # of connection points: 6
#     Node 3, Type 0, BuildingBlock: MAKGUD_clean_sbu_1, # of connection points: 6
#     Node 4, Type 0, BuildingBlock: MAKGUD_clean_sbu_1, # of connection points: 6
#     Node 5, Type 0, BuildingBlock: MAKGUD_clean_sbu_1, # of connection points: 6
#     Node 6, Type 0, BuildingBlock: MAKGUD_clean_sbu_1, # of connection points: 6
#     Node 7, Type 0, BuildingBlock: MAKGUD_clean_sbu_1, # of connection points: 6
#     Node 8, Type 0, BuildingBlock: MAKGUD_clean_sbu_1, # of connection points: 6
#     Node 9, Type 0, BuildingBlock: MAKGUD_clean_sbu_1, # of connection points: 6
#     Node 10, Type 0, BuildingBlock: MAKGUD_clean_sbu_1, # of connection points: 6
#     Node 11, Type 0, BuildingBlock: MAKGUD_clean_sbu_1, # of connection points: 6
#     Node 12, Type 0, BuildingBlock: MAKGUD_clean_sbu_1, # of connection points: 6
#     Node 13, Type 0, BuildingBlock: MAKGUD_clean_sbu_1, # of connection points: 6
#     Node 14, Type 0, BuildingBlock: MAKGUD_clean_sbu_1, # of connection points: 6
#     Node 15, Type 0, BuildingBlock: MAKGUD_clean_sbu_1, # of connection points: 6
#     Node 16, Type 0, BuildingBlock: MAKGUD_clean_sbu_1, # of connection points: 6
#     Node 17, Type 0, BuildingBlock: MAKGUD_clean_sbu_1, # of connection points: 6
#     Node 18, Type 0, BuildingBlock: MAKGUD_clean_sbu_1, # of connection points: 6
#     Node 19, Type 0, BuildingBlock: MAKGUD_clean_sbu_1, # of connection points: 6
#     Node 20, Type 0, BuildingBlock: MAKGUD_clean_sbu_1, # of connection points: 6
#     Node 21, Type 0, BuildingBlock: MAKGUD_clean_sbu_1, # of connection points: 6
#     Node 22, Type 0, BuildingBlock: MAKGUD_clean_sbu_1, # of connection points: 6
#     Node 23, Type 0, BuildingBlock: MAKGUD_clean_sbu_1, # of connection points: 6
#     Node 24, Type 0, BuildingBlock: MAKGUD_clean_sbu_1, # of connection points: 6
#     Node 25, Type 0, BuildingBlock: MAKGUD_clean_sbu_1, # of connection points: 6
#     Node 26, Type 0, BuildingBlock: MAKGUD_clean_sbu_1, # of connection points: 6
#     Node 27, Type 0, BuildingBlock: MAKGUD_clean_sbu_1, # of connection points: 6
#     Node 28, Type 0, BuildingBlock: MAKGUD_clean_sbu_1, # of connection points: 6
#     Node 29, Type 0, BuildingBlock: MAKGUD_clean_sbu_1, # of connection points: 6
#     Node 30, Type 0, BuildingBlock: MAKGUD_clean_sbu_1, # of connection points: 6
#     Node 31, Type 0, BuildingBlock: MAKGUD_clean_sbu_1, # of connection points: 6
#     Edge 32, Type (0, 0), BuildingBlock: TEMPAE_clean_linker_10, # of connection points: 2
#     Edge 33, Type (0, 0), BuildingBlock: TEMPAE_clean_linker_10, # of connection points: 2
#     Edge 34, Type (0, 0), BuildingBlock: TEMPAE_clean_linker_10, # of connection points: 2
#     Edge 35, Type (0, 0), BuildingBlock: TEMPAE_clean_linker_10, # of connection points: 2
#     Edge 36, Type (0, 0), BuildingBlock: TEMPAE_clean_linker_10, # of connection points: 2
#     Edge 37, Type (0, 0), BuildingBlock: TEMPAE_clean_linker_10, # of connection points: 2
#     Edge 38, Type (0, 0), BuildingBlock: TEMPAE_clean_linker_10, # of connection points: 2
#     Edge 39, Type (0, 0), BuildingBlock: TEMPAE_clean_linker_10, # of connection points: 2
#     Edge 40, Type (0, 0), BuildingBlock: TEMPAE_clean_linker_10, # of connection points: 2
#     Edge 41, Type (0, 0), BuildingBlock: TEMPAE_clean_linker_10, # of connection points: 2
#     Edge 42, Type (0, 0), BuildingBlock: TEMPAE_clean_linker_10, # of connection points: 2
#     Edge 43, Type (0, 0), BuildingBlock: TEMPAE_clean_linker_10, # of connection points: 2
#     Edge 44, Type (0, 0), BuildingBlock: TEMPAE_clean_linker_10, # of connection points: 2
#     Edge 45, Type (0, 0), BuildingBlock: TEMPAE_clean_linker_10, # of connection points: 2
#     Edge 46, Type (0, 0), BuildingBlock: TEMPAE_clean_linker_10, # of connection points: 2
#     Edge 47, Type (0, 0), BuildingBlock: TEMPAE_clean_linker_10, # of connection points: 2
#     Edge 48, Type (0, 0), BuildingBlock: TEMPAE_clean_linker_10, # of connection points: 2
#     Edge 49, Type (0, 0), BuildingBlock: TEMPAE_clean_linker_10, # of connection points: 2
#     Edge 50, Type (0, 0), BuildingBlock: TEMPAE_clean_linker_10, # of connection points: 2
#     Edge 51, Type (0, 0), BuildingBlock: TEMPAE_clean_linker_10, # of connection points: 2
#     Edge 52, Type (0, 0), BuildingBlock: TEMPAE_clean_linker_10, # of connection points: 2
#     Edge 53, Type (0, 0), BuildingBlock: TEMPAE_clean_linker_10, # of connection points: 2
#     Edge 54, Type (0, 0), BuildingBlock: TEMPAE_clean_linker_10, # of connection points: 2
#     Edge 55, Type (0, 0), BuildingBlock: TEMPAE_clean_linker_10, # of connection points: 2
#     Edge 56, Type (0, 0), BuildingBlock: TEMPAE_clean_linker_10, # of connection points: 2
#     Edge 57, Type (0, 0), BuildingBlock: TEMPAE_clean_linker_10, # of connection points: 2
#     Edge 58, Type (0, 0), BuildingBlock: TEMPAE_clean_linker_10, # of connection points: 2
#     Edge 59, Type (0, 0), BuildingBlock: TEMPAE_clean_linker_10, # of connection points: 2
#     Edge 60, Type (0, 0), BuildingBlock: TEMPAE_clean_linker_10, # of connection points: 2
#     Edge 61, Type (0, 0), BuildingBlock: TEMPAE_clean_linker_10, # of connection points: 2
#     Edge 62, Type (0, 0), BuildingBlock: TEMPAE_clean_linker_10, # of connection points: 2
#     Edge 63, Type (0, 0), BuildingBlock: TEMPAE_clean_linker_10, # of connection points: 2
#     Edge 64, Type (0, 0), BuildingBlock: TEMPAE_clean_linker_10, # of connection points: 2
#     Edge 65, Type (0, 0), BuildingBlock: TEMPAE_clean_linker_10, # of connection points: 2
#     Edge 66, Type (0, 0), BuildingBlock: TEMPAE_clean_linker_10, # of connection points: 2
#     Edge 67, Type (0, 0), BuildingBlock: TEMPAE_clean_linker_10, # of connection points: 2
#     Edge 68, Type (0, 0), BuildingBlock: TEMPAE_clean_linker_10, # of connection points: 2
#     Edge 69, Type (0, 0), BuildingBlock: TEMPAE_clean_linker_10, # of connection points: 2
#     Edge 70, Type (0, 0), BuildingBlock: TEMPAE_clean_linker_10, # of connection points: 2
#     Edge 71, Type (0, 0), BuildingBlock: TEMPAE_clean_linker_10, # of connection points: 2
#     Edge 72, Type (0, 0), BuildingBlock: TEMPAE_clean_linker_10, # of connection points: 2
#     Edge 73, Type (0, 0), BuildingBlock: TEMPAE_clean_linker_10, # of connection points: 2
#     Edge 74, Type (0, 0), BuildingBlock: TEMPAE_clean_linker_10, # of connection points: 2
#     Edge 75, Type (0, 0), BuildingBlock: TEMPAE_clean_linker_10, # of connection points: 2
#     Edge 76, Type (0, 0), BuildingBlock: TEMPAE_clean_linker_10, # of connection points: 2
#     Edge 77, Type (0, 0), BuildingBlock: TEMPAE_clean_linker_10, # of connection points: 2
#     Edge 78, Type (0, 0), BuildingBlock: TEMPAE_clean_linker_10, # of connection points: 2
#     Edge 79, Type (0, 0), BuildingBlock: TEMPAE_clean_linker_10, # of connection points: 2
#     Edge 80, Type (0, 0), BuildingBlock: TEMPAE_clean_linker_10, # of connection points: 2
#     Edge 81, Type (0, 0), BuildingBlock: TEMPAE_clean_linker_10, # of connection points: 2
#     Edge 82, Type (0, 0), BuildingBlock: TEMPAE_clean_linker_10, # of connection points: 2
#     Edge 83, Type (0, 0), BuildingBlock: TEMPAE_clean_linker_10, # of connection points: 2
#     Edge 84, Type (0, 0), BuildingBlock: TEMPAE_clean_linker_10, # of connection points: 2
#     Edge 85, Type (0, 0), BuildingBlock: TEMPAE_clean_linker_10, # of connection points: 2
#     Edge 86, Type (0, 0), BuildingBlock: TEMPAE_clean_linker_10, # of connection points: 2
#     Edge 87, Type (0, 0), BuildingBlock: TEMPAE_clean_linker_10, # of connection points: 2
#     Edge 88, Type (0, 0), BuildingBlock: TEMPAE_clean_linker_10, # of connection points: 2
#     Edge 89, Type (0, 0), BuildingBlock: TEMPAE_clean_linker_10, # of connection points: 2
#     Edge 90, Type (0, 0), BuildingBlock: TEMPAE_clean_linker_10, # of connection points: 2
#     Edge 91, Type (0, 0), BuildingBlock: TEMPAE_clean_linker_10, # of connection points: 2
#     Edge 92, Type (0, 0), BuildingBlock: TEMPAE_clean_linker_10, # of connection points: 2
#     Edge 93, Type (0, 0), BuildingBlock: TEMPAE_clean_linker_10, # of connection points: 2
#     Edge 94, Type (0, 0), BuildingBlock: TEMPAE_clean_linker_10, # of connection points: 2
#     Edge 95, Type (0, 0), BuildingBlock: TEMPAE_clean_linker_10, # of connection points: 2
#     Edge 96, Type (0, 0), BuildingBlock: TEMPAE_clean_linker_10, # of connection points: 2
#     Edge 97, Type (0, 0), BuildingBlock: TEMPAE_clean_linker_10, # of connection points: 2
#     Edge 98, Type (0, 0), BuildingBlock: TEMPAE_clean_linker_10, # of connection points: 2
#     Edge 99, Type (0, 0), BuildingBlock: TEMPAE_clean_linker_10, # of connection points: 2
#     Edge 100, Type (0, 0), BuildingBlock: TEMPAE_clean_linker_10, # of connection points: 2
#     Edge 101, Type (0, 0), BuildingBlock: TEMPAE_clean_linker_10, # of connection points: 2
#     Edge 102, Type (0, 0), BuildingBlock: TEMPAE_clean_linker_10, # of connection points: 2
#     Edge 103, Type (0, 0), BuildingBlock: TEMPAE_clean_linker_10, # of connection points: 2
#     Edge 104, Type (0, 0), BuildingBlock: TEMPAE_clean_linker_10, # of connection points: 2
#     Edge 105, Type (0, 0), BuildingBlock: TEMPAE_clean_linker_10, # of connection points: 2
#     Edge 106, Type (0, 0), BuildingBlock: TEMPAE_clean_linker_10, # of connection points: 2
#     Edge 107, Type (0, 0), BuildingBlock: TEMPAE_clean_linker_10, # of connection points: 2
#     Edge 108, Type (0, 0), BuildingBlock: TEMPAE_clean_linker_10, # of connection points: 2
#     Edge 109, Type (0, 0), BuildingBlock: TEMPAE_clean_linker_10, # of connection points: 2
#     Edge 110, Type (0, 0), BuildingBlock: TEMPAE_clean_linker_10, # of connection points: 2
#     Edge 111, Type (0, 0), BuildingBlock: TEMPAE_clean_linker_10, # of connection points: 2
#     Edge 112, Type (0, 0), BuildingBlock: TEMPAE_clean_linker_10, # of connection points: 2
#     Edge 113, Type (0, 0), BuildingBlock: TEMPAE_clean_linker_10, # of connection points: 2
#     Edge 114, Type (0, 0), BuildingBlock: TEMPAE_clean_linker_10, # of connection points: 2
#     Edge 115, Type (0, 0), BuildingBlock: TEMPAE_clean_linker_10, # of connection points: 2
#     Edge 116, Type (0, 0), BuildingBlock: TEMPAE_clean_linker_10, # of connection points: 2
#     Edge 117, Type (0, 0), BuildingBlock: TEMPAE_clean_linker_10, # of connection points: 2
#     Edge 118, Type (0, 0), BuildingBlock: TEMPAE_clean_linker_10, # of connection points: 2
#     Edge 119, Type (0, 0), BuildingBlock: TEMPAE_clean_linker_10, # of connection points: 2
#     Edge 120, Type (0, 0), BuildingBlock: TEMPAE_clean_linker_10, # of connection points: 2
#     Edge 121, Type (0, 0), BuildingBlock: TEMPAE_clean_linker_10, # of connection points: 2
#     Edge 122, Type (0, 0), BuildingBlock: TEMPAE_clean_linker_10, # of connection points: 2
#     Edge 123, Type (0, 0), BuildingBlock: TEMPAE_clean_linker_10, # of connection points: 2
#     Edge 124, Type (0, 0), BuildingBlock: TEMPAE_clean_linker_10, # of connection points: 2
#     Edge 125, Type (0, 0), BuildingBlock: TEMPAE_clean_linker_10, # of connection points: 2
#     Edge 126, Type (0, 0), BuildingBlock: TEMPAE_clean_linker_10, # of connection points: 2
#     Edge 127, Type (0, 0), BuildingBlock: TEMPAE_clean_linker_10, # of connection points: 2
# Relax obj value: 0.234
# Max RMSD: 0.305
# Mean RMSD: 0.281
data_MOF--net-flu-e--node1-MAKGUD_clean_sbu_1--edge1-TEMPAE_clean_linker_10
_symmetry_space_group_name_H-M    P1
_symmetry_Int_Tables_number       1
_symmetry_cell_setting            triclinic
loop_
_symmetry_equiv_pos_as_xyz
'x, y, z'
_cell_length_a     59.156834
_cell_length_b     55.67025
_cell_length_c     60.11352
_cell_angle_alpha  92.17391
_cell_angle_beta   87.195862
_cell_angle_gamma 93.201474
loop_
_atom_site_label
_atom_site_type_symbol
_atom_site_fract_x
_atom_site_fract_y
_atom_site_fract_z
_atom_type_partial_charge
O0 O 0.18961 0.11643 0.40299 0.0
Tb1 Tb 0.17924 0.14932 0.38736 0.0
C2 C 0.13705 0.18614 0.38105 0.0
O3 O 0.18915 0.18323 0.34525 0.0
Tb4 Tb 0.18364 0.2177 0.36221 0.0
C5 C 0.1787 0.24721 0.32846 0.0
O6 O 0.20894 0.1589 0.36517 0.0
O7 O 0.21513 0.23478 0.37766 0.0
C8 C 0.23364 0.24035 0.36463 0.0
O9 O 0.23318 0.23299 0.34363 0.0
O10 O 0.14571 0.16421 0.38062 0.0
O11 O 0.14979 0.20705 0.37949 0.0
O12 O 0.18274 0.16386 0.42167 0.0
C13 C 0.20782 0.17223 0.34766 0.0
C14 C 0.17936 0.10023 0.39035 0.0
O15 O 0.18947 0.22753 0.32738 0.0
O16 O 0.16991 0.25009 0.34865 0.0
C17 C 0.16937 0.15456 0.43779 0.0
O18 O 0.1534 0.13842 0.43218 0.0
O19 O 0.16847 0.11183 0.37606 0.0
O20 O 0.89792 0.15617 0.44973 0.0
Tb21 Tb 0.90798 0.17532 0.4188 0.0
C22 C 0.95821 0.19022 0.3929 0.0
O23 O 0.89589 0.22915 0.39456 0.0
Tb24 Tb 0.91555 0.21113 0.3677 0.0
C25 C 0.92179 0.24124 0.33368 0.0
O26 O 0.87755 0.19594 0.4097 0.0
O27 O 0.8872 0.18842 0.35528 0.0
C28 C 0.87096 0.20075 0.34762 0.0
O29 O 0.87256 0.2243 0.35028 0.0
O30 O 0.94551 0.18335 0.41096 0.0
O31 O 0.94915 0.19833 0.37497 0.0
O32 O 0.90519 0.13656 0.4062 0.0
C33 C 0.87717 0.21886 0.40353 0.0
C34 C 0.90245 0.17364 0.46408 0.0
O35 O 0.91886 0.2477 0.35464 0.0
O36 O 0.92199 0.2179 0.33208 0.0
C37 C 0.92102 0.12113 0.40998 0.0
O38 O 0.93911 0.12979 0.42003 0.0
O39 O 0.9104 0.1921 0.45283 0.0
O40 O 0.93324 0.87243 0.44084 0.0
Tb41 Tb 0.92108 0.88183 0.40821 0.0
C42 C 0.91623 0.93474 0.38478 0.0
O43 O 0.87169 0.88071 0.3839 0.0
Tb44 Tb 0.89151 0.89317 0.35485 0.0
C45 C 0.86205 0.90567 0.32545 0.0
O46 O 0.89453 0.85378 0.39723 0.0
O47 O 0.90345 0.85961 0.33878 0.0
C48 C 0.88767 0.84331 0.33231 0.0
O49 O 0.86646 0.84713 0.33819 0.0
O50 O 0.9184 0.92116 0.40237 0.0
O51 O 0.91254 0.92542 0.36452 0.0
O52 O 0.95709 0.87207 0.3987 0.0
C53 C 0.87408 0.85912 0.3911 0.0
C54 C 0.91656 0.88062 0.45323 0.0
O55 O 0.85733 0.90204 0.34644 0.0
O56 O 0.88354 0.90296 0.32124 0.0
C57 C 0.97544 0.88619 0.40348 0.0
O58 O 0.97212 0.9078 0.41214 0.0
O59 O 0.90249 0.88945 0.44022 0.0
O60 O 0.20502 0.88595 0.44924 0.0
Tb61 Tb 0.19653 0.86461 0.4189 0.0
C62 C 0.1468 0.84902 0.39696 0.0
O63 O 0.2112 0.8087 0.39424 0.0
Tb64 Tb 0.19082 0.82706 0.37127 0.0
C65 C 0.19257 0.80021 0.33305 0.0
O66 O 0.22747 0.84255 0.41115 0.0
O67 O 0.21439 0.8575 0.36473 0.0
C68 C 0.23476 0.85201 0.35714 0.0
O69 O 0.23957 0.82923 0.35639 0.0
O70 O 0.15941 0.85881 0.41312 0.0
O71 O 0.15569 0.83654 0.37977 0.0
O72 O 0.19886 0.90184 0.40566 0.0
C73 C 0.22851 0.81936 0.40444 0.0
C74 C 0.19653 0.8706 0.46359 0.0
O75 O 0.18984 0.79192 0.35302 0.0
O76 O 0.19352 0.82359 0.33467 0.0
C77 C 0.1839 0.91755 0.41346 0.0
O78 O 0.16808 0.90965 0.42791 0.0
O79 O 0.18824 0.8517 0.45272 0.0
O80 O 0.13497 0.9246 0.68649 0.0
Tb81 Tb 0.16508 0.90435 0.67829 0.0
C82 C 0.18965 0.8968 0.63235 0.0
O83 O 0.19332 0.85698 0.68763 0.0
Tb84 Tb 0.21786 0.87937 0.66837 0.0
C85 C 0.24495 0.8496 0.64634 0.0
O86 O 0.17751 0.88781 0.70747 0.0
O87 O 0.23562 0.89457 0.69714 0.0
C88 C 0.24353 0.87885 0.71029 0.0
O89 O 0.23932 0.85586 0.7055 0.0
O90 O 0.17084 0.89098 0.64391 0.0
O91 O 0.20803 0.90294 0.64302 0.0
O92 O 0.18037 0.94057 0.67504 0.0
C93 C 0.18377 0.86551 0.70619 0.0
C94 C 0.12043 0.90631 0.68492 0.0
O95 O 0.22299 0.84683 0.64789 0.0
O96 O 0.25162 0.86901 0.6574 0.0
C97 C 0.17461 0.95329 0.65836 0.0
O98 O 0.16094 0.94308 0.64377 0.0
O99 O 0.13104 0.88692 0.67967 0.0
O100 O 0.26515 0.14893 0.71626 0.0
Tb101 Tb 0.24691 0.1674 0.69204 0.0
C102 C 0.20469 0.20114 0.68652 0.0
O103 O 0.19801 0.14616 0.67535 0.0
Tb104 Tb 0.17887 0.16836 0.65404 0.0
C105 C 0.13397 0.16342 0.65864 0.0
O106 O 0.23408 0.13388 0.67588 0.0
O107 O 0.18945 0.16955 0.61846 0.0
C108 C 0.17866 0.1831 0.6053 0.0
O109 O 0.1635 0.1972 0.61453 0.0
O110 O 0.21963 0.18601 0.67894 0.0
O111 O 0.18634 0.20065 0.67506 0.0
O112 O 0.27573 0.18506 0.67475 0.0
C113 C 0.21328 0.1307 0.66858 0.0
C114 C 0.25886 0.16205 0.73363 0.0
O115 O 0.1473 0.14551 0.65583 0.0
O116 O 0.14598 0.18365 0.65878 0.0
C117 C 0.2736 0.19603 0.65606 0.0
O118 O 0.2542 0.19386 0.64625 0.0
O119 O 0.24477 0.17769 0.7277 0.0
O120 O 0.9512 0.16567 0.68779 0.0
Tb121 Tb 0.92009 0.17696 0.67409 0.0
C122 C 0.88826 0.17317 0.63478 0.0
O123 O 0.88288 0.19016 0.71163 0.0
Tb124 Tb 0.86337 0.18428 0.68158 0.0
C125 C 0.85154 0.22666 0.66949 0.0
O126 O 0.91465 0.20811 0.6963 0.0
O127 O 0.83553 0.17123 0.70472 0.0
C128 C 0.82948 0.18678 0.72095 0.0
O129 O 0.83978 0.20832 0.72096 0.0
O130 O 0.90677 0.18415 0.64232 0.0
O131 O 0.87148 0.1655 0.64891 0.0
O132 O 0.90464 0.14069 0.67791 0.0
C133 C 0.8992 0.20711 0.71263 0.0
C134 C 0.96448 0.17095 0.6706 0.0
O135 O 0.87233 0.22135 0.67239 0.0
O136 O 0.83763 0.20822 0.67332 0.0
C137 C 0.91283 0.12423 0.6638 0.0
O138 O 0.92796 0.13144 0.6484 0.0
O139 O 0.9528 0.17996 0.65545 0.0
O140 O 0.9428 0.89198 0.66005 0.0
Tb141 Tb 0.90772 0.89335 0.6727 0.0
C142 C 0.8941 0.94506 0.68743 0.0
O143 O 0.90408 0.88202 0.72727 0.0
Tb144 Tb 0.87883 0.90671 0.72029 0.0
C145 C 0.85078 0.91697 0.75495 0.0
O146 O 0.9006 0.86158 0.69369 0.0
O147 O 0.86009 0.88115 0.69891 0.0
C148 C 0.84711 0.86478 0.70938 0.0
O149 O 0.84588 0.86591 0.73128 0.0
O150 O 0.89139 0.928 0.67177 0.0
O151 O 0.89545 0.93926 0.70815 0.0
O152 O 0.90263 0.88378 0.63732 0.0
C153 C 0.9057 0.86214 0.71501 0.0
C154 C 0.95177 0.90347 0.67692 0.0
O155 O 0.87115 0.90949 0.75629 0.0
O156 O 0.84644 0.91881 0.7341 0.0
C157 C 0.90962 0.89987 0.62247 0.0
O158 O 0.91824 0.92074 0.62993 0.0
O159 O 0.93591 0.90944 0.69152 0.0
O160 O 0.45183 0.16814 0.18837 0.0
Tb161 Tb 0.42066 0.17989 0.17506 0.0
C162 C 0.38851 0.17743 0.1358 0.0
O163 O 0.38408 0.19382 0.21241 0.0
Tb164 Tb 0.36385 0.18824 0.18282 0.0
C165 C 0.35124 0.23061 0.17159 0.0
O166 O 0.41606 0.21138 0.19707 0.0
O167 O 0.3364 0.17475 0.20622 0.0
C168 C 0.33057 0.19003 0.22278 0.0
O169 O 0.34094 0.21154 0.22303 0.0
O170 O 0.40723 0.18783 0.14346 0.0
O171 O 0.37159 0.16991 0.14984 0.0
O172 O 0.40387 0.14458 0.18055 0.0
C173 C 0.40045 0.21073 0.21328 0.0
C174 C 0.46466 0.17179 0.17051 0.0
O175 O 0.3722 0.22553 0.17388 0.0
O176 O 0.33762 0.21198 0.17551 0.0
C177 C 0.40708 0.12802 0.16459 0.0
O178 O 0.41846 0.13449 0.14627 0.0
O179 O 0.45278 0.18044 0.15533 0.0
O180 O 0.94518 0.38748 0.1572 0.0
Tb181 Tb 0.91018 0.38932 0.17014 0.0
C182 C 0.89786 0.44136 0.18406 0.0
O183 O 0.90909 0.38001 0.22409 0.0
Tb184 Tb 0.8835 0.40474 0.21819 0.0
C185 C 0.85765 0.41507 0.2545 0.0
O186 O 0.90268 0.35829 0.19178 0.0
O187 O 0.86321 0.38085 0.19678 0.0
C188 C 0.84853 0.36589 0.20696 0.0
O189 O 0.8463 0.36753 0.22881 0.0
O190 O 0.89355 0.4237 0.16936 0.0
O191 O 0.9006 0.43649 0.20483 0.0
O192 O 0.90439 0.37944 0.13503 0.0
C193 C 0.90895 0.35944 0.21271 0.0
C194 C 0.95437 0.39941 0.17372 0.0
O195 O 0.876 0.40317 0.25412 0.0
O196 O 0.85411 0.42146 0.23443 0.0
C197 C 0.91109 0.39543 0.12002 0.0
O198 O 0.91992 0.41631 0.12724 0.0
O199 O 0.93866 0.40582 0.18829 0.0
O200 O 0.64161 0.88248 0.17645 0.0
Tb201 Tb 0.67482 0.90145 0.17637 0.0
C202 C 0.6971 0.89665 0.12915 0.0
O203 O 0.70226 0.85264 0.18153 0.0
Tb204 Tb 0.72588 0.87678 0.1629 0.0
C205 C 0.75287 0.84919 0.13821 0.0
O206 O 0.68788 0.88233 0.20392 0.0
O207 O 0.74322 0.89188 0.19183 0.0
C208 C 0.75136 0.87631 0.20492 0.0
O209 O 0.74794 0.85325 0.19986 0.0
O210 O 0.67887 0.89017 0.14123 0.0
O211 O 0.71586 0.90211 0.13932 0.0
O212 O 0.68929 0.93836 0.17454 0.0
C213 C 0.69342 0.85983 0.20093 0.0
C214 C 0.63018 0.90074 0.18346 0.0
O215 O 0.73088 0.84682 0.1392 0.0
O216 O 0.75966 0.86676 0.15156 0.0
C217 C 0.68326 0.95176 0.15841 0.0
O218 O 0.66954 0.94201 0.14364 0.0
O219 O 0.64391 0.91947 0.18671 0.0
O220 O 0.26493 0.65173 0.21354 0.0
Tb221 Tb 0.24418 0.66959 0.19098 0.0
C222 C 0.19987 0.70109 0.18805 0.0
O223 O 0.19541 0.64559 0.17517 0.0
Tb224 Tb 0.17442 0.66791 0.1556 0.0
C225 C 0.12979 0.66073 0.16249 0.0
O226 O 0.23249 0.636 0.17392 0.0
O227 O 0.18336 0.67337 0.12 0.0
C228 C 0.18224 0.65499 0.10539 0.0
O229 O 0.17771 0.63333 0.11297 0.0
O230 O 0.21485 0.68628 0.17997 0.0
O231 O 0.18109 0.69998 0.17724 0.0
O232 O 0.27124 0.69023 0.17369 0.0
C233 C 0.21147 0.63148 0.1674 0.0
C234 C 0.2583 0.66336 0.23171 0.0
O235 O 0.14345 0.64393 0.15598 0.0
O236 O 0.1413 0.68112 0.1648 0.0
C237 C 0.26742 0.70381 0.15702 0.0
O238 O 0.24721 0.70279 0.1488 0.0
O239 O 0.24264 0.67789 0.22708 0.0
O240 O 0.40205 0.8756 0.94263 0.0
Tb241 Tb 0.42082 0.8838 0.91076 0.0
C242 C 0.41181 0.93549 0.88718 0.0
O243 O 0.37135 0.87935 0.88608 0.0
Tb244 Tb 0.38962 0.89343 0.85676 0.0
C245 C 0.35907 0.90458 0.82772 0.0
O246 O 0.39589 0.85398 0.89926 0.0
O247 O 0.40313 0.86045 0.8411 0.0
C248 C 0.38813 0.84337 0.83457 0.0
O249 O 0.36662 0.84642 0.83973 0.0
O250 O 0.41232 0.92197 0.90508 0.0
O251 O 0.41036 0.92582 0.86672 0.0
O252 O 0.45729 0.87607 0.89993 0.0
C253 C 0.3751 0.85784 0.89277 0.0
C254 C 0.41772 0.88303 0.95605 0.0
O255 O 0.35504 0.90186 0.84897 0.0
O256 O 0.38047 0.90174 0.82304 0.0
C257 C 0.47063 0.86329 0.91195 0.0
O258 O 0.46101 0.8524 0.92926 0.0
O259 O 0.43519 0.89068 0.9439 0.0
O260 O 0.20396 0.38613 0.94662 0.0
Tb261 Tb 0.19594 0.36449 0.91636 0.0
C262 C 0.14598 0.34834 0.89493 0.0
O263 O 0.21081 0.30838 0.89258 0.0
Tb264 Tb 0.19009 0.32635 0.86965 0.0
C265 C 0.19243 0.29942 0.83155 0.0
O266 O 0.22702 0.34256 0.9089 0.0
O267 O 0.213 0.35724 0.86276 0.0
C268 C 0.23351 0.35221 0.85521 0.0
O269 O 0.23895 0.32963 0.85491 0.0
O270 O 0.15873 0.35895 0.9106 0.0
O271 O 0.15478 0.33515 0.87818 0.0
O272 O 0.1989 0.40174 0.90317 0.0
C273 C 0.22814 0.31926 0.90256 0.0
C274 C 0.19598 0.37058 0.96099 0.0
O275 O 0.1897 0.29117 0.85153 0.0
O276 O 0.19297 0.32279 0.83308 0.0
C277 C 0.18364 0.41746 0.91021 0.0
O278 O 0.16709 0.40958 0.92388 0.0
O279 O 0.18812 0.35142 0.95019 0.0
O280 O 0.68517 0.11413 0.90278 0.0
Tb281 Tb 0.67786 0.14708 0.88536 0.0
C282 C 0.63593 0.18471 0.8789 0.0
O283 O 0.68789 0.18026 0.84313 0.0
Tb284 Tb 0.68281 0.21543 0.85882 0.0
C285 C 0.67905 0.24448 0.82433 0.0
O286 O 0.70774 0.15629 0.86331 0.0
O287 O 0.71421 0.2321 0.87465 0.0
C288 C 0.733 0.23711 0.86186 0.0
O289 O 0.73276 0.22946 0.84093 0.0
O290 O 0.64435 0.16268 0.87946 0.0
O291 O 0.64876 0.20543 0.87609 0.0
O292 O 0.68377 0.16133 0.91938 0.0
C293 C 0.70663 0.16945 0.84569 0.0
C294 C 0.67752 0.09793 0.88847 0.0
O295 O 0.68962 0.22467 0.82388 0.0
O296 O 0.66975 0.2477 0.84428 0.0
C297 C 0.66797 0.15783 0.93544 0.0
O298 O 0.64816 0.14814 0.92996 0.0
O299 O 0.66929 0.10957 0.87247 0.0
O300 O 0.90145 0.65549 0.95009 0.0
Tb301 Tb 0.90947 0.67414 0.91847 0.0
C302 C 0.95965 0.68986 0.89224 0.0
O303 O 0.89608 0.72827 0.8945 0.0
Tb304 Tb 0.91658 0.71132 0.86756 0.0
C305 C 0.92205 0.7421 0.83392 0.0
O306 O 0.87859 0.69452 0.90977 0.0
O307 O 0.88872 0.68808 0.85484 0.0
C308 C 0.87203 0.7 0.84746 0.0
O309 O 0.87321 0.72355 0.84992 0.0
O310 O 0.94696 0.68171 0.90985 0.0
O311 O 0.95059 0.69927 0.87488 0.0
O312 O 0.90584 0.63507 0.90648 0.0
C313 C 0.87762 0.7174 0.9035 0.0
C314 C 0.90559 0.67356 0.96393 0.0
O315 O 0.91922 0.74815 0.855 0.0
O316 O 0.92263 0.7188 0.832 0.0
C317 C 0.92151 0.61934 0.91008 0.0
O318 O 0.93993 0.62782 0.91967 0.0
O319 O 0.91212 0.69203 0.95205 0.0
O320 O 0.13772 0.42317 0.18374 0.0
Tb321 Tb 0.16816 0.40331 0.17573 0.0
C322 C 0.1925 0.39626 0.12956 0.0
O323 O 0.19986 0.35794 0.18368 0.0
Tb324 Tb 0.22256 0.38473 0.16711 0.0
C325 C 0.25922 0.36412 0.15025 0.0
O326 O 0.18033 0.38563 0.20436 0.0
O327 O 0.23414 0.40203 0.198 0.0
C328 C 0.24254 0.38723 0.21171 0.0
O329 O 0.24168 0.36416 0.20607 0.0
O330 O 0.17424 0.38959 0.14158 0.0
O331 O 0.21081 0.40421 0.13961 0.0
O332 O 0.18332 0.43972 0.17299 0.0
C333 C 0.18825 0.36404 0.20203 0.0
C334 C 0.12336 0.40477 0.1818 0.0
O335 O 0.23863 0.35465 0.14964 0.0
O336 O 0.25909 0.38509 0.16045 0.0
C337 C 0.17765 0.45263 0.15639 0.0
O338 O 0.16425 0.44247 0.14153 0.0
O339 O 0.13424 0.38557 0.17654 0.0
O340 O 0.18922 0.61657 0.90411 0.0
Tb341 Tb 0.18201 0.64989 0.88721 0.0
C342 C 0.139 0.6855 0.88147 0.0
O343 O 0.19389 0.68437 0.84478 0.0
Tb344 Tb 0.18582 0.71716 0.86369 0.0
C345 C 0.17989 0.74843 0.83163 0.0
O346 O 0.21263 0.66027 0.86611 0.0
O347 O 0.21761 0.73331 0.87909 0.0
C348 C 0.23537 0.74048 0.86575 0.0
O349 O 0.23375 0.7356 0.84432 0.0
O350 O 0.14794 0.66373 0.88081 0.0
O351 O 0.1517 0.70641 0.88031 0.0
O352 O 0.18618 0.66349 0.92184 0.0
C353 C 0.21231 0.67327 0.84819 0.0
C354 C 0.18177 0.6007 0.88941 0.0
O355 O 0.18858 0.7276 0.82882 0.0
O356 O 0.17383 0.75152 0.85263 0.0
C357 C 0.17001 0.65879 0.93732 0.0
O358 O 0.15088 0.64817 0.93096 0.0
O359 O 0.17392 0.61268 0.87344 0.0
O360 O 0.39756 0.15855 0.95068 0.0
Tb361 Tb 0.4071 0.17726 0.91938 0.0
C362 C 0.45731 0.1922 0.89287 0.0
O363 O 0.39459 0.23224 0.89696 0.0
Tb364 Tb 0.41513 0.2163 0.86958 0.0
C365 C 0.42055 0.24861 0.83709 0.0
O366 O 0.37659 0.19787 0.9104 0.0
O367 O 0.38732 0.19283 0.85709 0.0
C368 C 0.3703 0.20425 0.84979 0.0
O369 O 0.37098 0.22783 0.85205 0.0
O370 O 0.44465 0.18463 0.91076 0.0
O371 O 0.44833 0.20165 0.87551 0.0
O372 O 0.40344 0.1383 0.90723 0.0
C373 C 0.3759 0.22107 0.9051 0.0
C374 C 0.4021 0.17627 0.96478 0.0
O375 O 0.42211 0.25352 0.85837 0.0
O376 O 0.41676 0.2255 0.83425 0.0
C377 C 0.41867 0.12234 0.91153 0.0
O378 O 0.4367 0.13057 0.92191 0.0
O379 O 0.40979 0.19459 0.9532 0.0
O380 O 0.90052 0.38452 0.93842 0.0
Tb381 Tb 0.91952 0.37874 0.90634 0.0
C382 C 0.91508 0.43239 0.88478 0.0
O383 O 0.86933 0.37682 0.88241 0.0
Tb384 Tb 0.88934 0.39224 0.85473 0.0
C385 C 0.86013 0.40829 0.82686 0.0
O386 O 0.89352 0.35034 0.89436 0.0
O387 O 0.89993 0.35857 0.83774 0.0
C388 C 0.88394 0.34563 0.82725 0.0
O389 O 0.86314 0.3528 0.82943 0.0
O390 O 0.91666 0.41843 0.90219 0.0
O391 O 0.91205 0.42314 0.86442 0.0
O392 O 0.95571 0.36946 0.89678 0.0
C393 C 0.87275 0.35498 0.88845 0.0
C394 C 0.91499 0.37596 0.95118 0.0
O395 O 0.85624 0.40572 0.84814 0.0
O396 O 0.88065 0.40229 0.82145 0.0
C397 C 0.97399 0.38375 0.90151 0.0
O398 O 0.97054 0.40535 0.91012 0.0
O399 O 0.93202 0.36884 0.93862 0.0
O400 O 0.70734 0.88351 0.94628 0.0
Tb401 Tb 0.69752 0.86224 0.91638 0.0
C402 C 0.64647 0.8458 0.8975 0.0
O403 O 0.71142 0.80469 0.89331 0.0
Tb404 Tb 0.68966 0.82286 0.8715 0.0
C405 C 0.68884 0.79753 0.83259 0.0
O406 O 0.72812 0.8393 0.90859 0.0
O407 O 0.71454 0.85203 0.86428 0.0
C408 C 0.73336 0.84445 0.8545 0.0
O409 O 0.73512 0.82107 0.85181 0.0
O410 O 0.66005 0.85852 0.91119 0.0
O411 O 0.65456 0.83041 0.88218 0.0
O412 O 0.70011 0.89955 0.90315 0.0
C413 C 0.72907 0.8158 0.90265 0.0
C414 C 0.69851 0.86866 0.96091 0.0
O415 O 0.68901 0.7884 0.85221 0.0
O416 O 0.68849 0.82081 0.83503 0.0
C417 C 0.6852 0.91533 0.91099 0.0
O418 O 0.66959 0.90755 0.92571 0.0
O419 O 0.68927 0.84998 0.95042 0.0
O420 O 0.94545 0.65448 0.19058 0.0
Tb421 Tb 0.91551 0.67152 0.17959 0.0
C422 C 0.89164 0.67188 0.13526 0.0
O423 O 0.8787 0.71606 0.1923 0.0
Tb424 Tb 0.85943 0.68771 0.17383 0.0
C425 C 0.83408 0.71135 0.14813 0.0
O426 O 0.90514 0.69436 0.20846 0.0
O427 O 0.83804 0.67551 0.20297 0.0
C428 C 0.82472 0.69148 0.21298 0.0
O429 O 0.82587 0.71332 0.20529 0.0
O430 O 0.9089 0.68169 0.14589 0.0
O431 O 0.87349 0.6641 0.1471 0.0
O432 O 0.90024 0.63497 0.17795 0.0
C433 C 0.8927 0.71331 0.20833 0.0
C434 C 0.96033 0.6675 0.17902 0.0
O435 O 0.85542 0.71642 0.15108 0.0
O436 O 0.82666 0.69359 0.1604 0.0
C437 C 0.90855 0.62009 0.16244 0.0
O438 O 0.92408 0.62871 0.14805 0.0
O439 O 0.94997 0.68309 0.16825 0.0
O440 O 0.45016 0.89416 0.15918 0.0
Tb441 Tb 0.41628 0.89801 0.17482 0.0
C442 C 0.39129 0.94752 0.1807 0.0
O443 O 0.39128 0.89145 0.22462 0.0
Tb444 Tb 0.36533 0.90585 0.2054 0.0
C445 C 0.33213 0.91543 0.23546 0.0
O446 O 0.40574 0.8679 0.19634 0.0
O447 O 0.35686 0.87282 0.18674 0.0
C448 C 0.34842 0.85465 0.19838 0.0
O449 O 0.34646 0.85748 0.22019 0.0
O450 O 0.41033 0.93632 0.18097 0.0
O451 O 0.37147 0.93617 0.18407 0.0
O452 O 0.40706 0.88892 0.14026 0.0
C453 C 0.40083 0.87159 0.21781 0.0
C454 C 0.46102 0.89846 0.1773 0.0
O455 O 0.32951 0.90399 0.21641 0.0
O456 O 0.35344 0.92186 0.23732 0.0
C457 C 0.40829 0.90575 0.1252 0.0
O458 O 0.41291 0.92816 0.13186 0.0
O459 O 0.44673 0.90246 0.19388 0.0
O460 O 0.76743 0.15305 0.21093 0.0
Tb461 Tb 0.7471 0.17194 0.18881 0.0
C462 C 0.70191 0.20159 0.18513 0.0
O463 O 0.69866 0.14515 0.1722 0.0
Tb464 Tb 0.67864 0.16798 0.15195 0.0
C465 C 0.63371 0.16213 0.1558 0.0
O466 O 0.73671 0.1384 0.17061 0.0
O467 O 0.68903 0.17221 0.1166 0.0
C468 C 0.68604 0.1539 0.10219 0.0
O469 O 0.67927 0.13282 0.10998 0.0
O470 O 0.7168 0.18634 0.17794 0.0
O471 O 0.68354 0.20011 0.17381 0.0
O472 O 0.77331 0.19616 0.17421 0.0
C473 C 0.71566 0.13198 0.16484 0.0
C474 C 0.7601 0.16353 0.22945 0.0
O475 O 0.64735 0.14447 0.15302 0.0
O476 O 0.64545 0.1825 0.15626 0.0
C477 C 0.76854 0.21308 0.16077 0.0
O478 O 0.7482 0.21284 0.15292 0.0
O479 O 0.74437 0.17813 0.22516 0.0
O480 O 0.44978 0.65011 0.68484 0.0
Tb481 Tb 0.42099 0.67286 0.68192 0.0
C482 C 0.3954 0.67493 0.63812 0.0
O483 O 0.38543 0.71669 0.69576 0.0
Tb484 Tb 0.36412 0.68898 0.67894 0.0
C485 C 0.33563 0.7137 0.65763 0.0
O486 O 0.41084 0.69399 0.71201 0.0
O487 O 0.34476 0.67533 0.709 0.0
C488 C 0.33694 0.69133 0.7241 0.0
O489 O 0.34239 0.71418 0.72091 0.0
O490 O 0.41347 0.68343 0.64845 0.0
O491 O 0.3772 0.66728 0.65013 0.0
O492 O 0.40385 0.6372 0.68318 0.0
C493 C 0.39886 0.71331 0.71207 0.0
C494 C 0.46572 0.66674 0.68155 0.0
O495 O 0.35727 0.71865 0.65822 0.0
O496 O 0.3298 0.69525 0.66964 0.0
C497 C 0.40754 0.62186 0.66631 0.0
O498 O 0.41972 0.62947 0.64884 0.0
O499 O 0.45647 0.68701 0.67874 0.0
O500 O 0.64168 0.414 0.69115 0.0
Tb501 Tb 0.67437 0.40522 0.67494 0.0
C502 C 0.69946 0.40025 0.62856 0.0
O503 O 0.7055 0.3577 0.68015 0.0
Tb504 Tb 0.72866 0.38527 0.66519 0.0
C505 C 0.76562 0.36493 0.6487 0.0
O506 O 0.68656 0.38483 0.70198 0.0
O507 O 0.73872 0.40194 0.69677 0.0
C508 C 0.74646 0.38695 0.71067 0.0
O509 O 0.74605 0.36397 0.70472 0.0
O510 O 0.68142 0.39292 0.64051 0.0
O511 O 0.71815 0.40673 0.63853 0.0
O512 O 0.68487 0.44333 0.67229 0.0
C513 C 0.69366 0.36299 0.69859 0.0
C514 C 0.62948 0.40003 0.67804 0.0
O515 O 0.74497 0.3562 0.64639 0.0
O516 O 0.76538 0.38499 0.66041 0.0
C517 C 0.67098 0.45751 0.66324 0.0
O518 O 0.65194 0.44789 0.65568 0.0
O519 O 0.64252 0.38911 0.66347 0.0
O520 O 0.42182 0.36421 0.43954 0.0
Tb521 Tb 0.42058 0.38295 0.40772 0.0
C522 C 0.41293 0.4358 0.38531 0.0
O523 O 0.36918 0.38168 0.38336 0.0
Tb524 Tb 0.3883 0.39601 0.35466 0.0
C525 C 0.35855 0.41123 0.32673 0.0
O526 O 0.39333 0.35551 0.39616 0.0
O527 O 0.39911 0.3622 0.33816 0.0
C528 C 0.38329 0.34906 0.32763 0.0
O529 O 0.36241 0.35604 0.32965 0.0
O530 O 0.41364 0.42181 0.40285 0.0
O531 O 0.41125 0.42652 0.36477 0.0
O532 O 0.45801 0.37864 0.3975 0.0
C533 C 0.37262 0.36004 0.38991 0.0
C534 C 0.4158 0.38196 0.4528 0.0
O535 O 0.35473 0.40837 0.34798 0.0
O536 O 0.37935 0.40612 0.32141 0.0
C537 C 0.47331 0.37118 0.41128 0.0
O538 O 0.4661 0.36618 0.43165 0.0
O539 O 0.41255 0.40007 0.44063 0.0
O540 O 0.69439 0.6145 0.38398 0.0
Tb541 Tb 0.67566 0.64689 0.37833 0.0
C542 C 0.63557 0.68563 0.37765 0.0
O543 O 0.7103 0.69042 0.36076 0.0
Tb544 Tb 0.68504 0.71764 0.36464 0.0
C545 C 0.68067 0.74303 0.32804 0.0
O546 O 0.69514 0.65504 0.34715 0.0
O547 O 0.71268 0.74071 0.38064 0.0
C548 C 0.73052 0.74757 0.36731 0.0
O549 O 0.72956 0.74077 0.3462 0.0
O550 O 0.64275 0.66325 0.3744 0.0
O551 O 0.64966 0.70575 0.3788 0.0
O552 O 0.68309 0.66226 0.41183 0.0
C553 C 0.7096 0.67369 0.34481 0.0
C554 C 0.67803 0.59817 0.3812 0.0
O555 O 0.68628 0.72064 0.32804 0.0
O556 O 0.67697 0.75067 0.34856 0.0
C557 C 0.67965 0.648 0.42899 0.0
O558 O 0.67195 0.62574 0.42509 0.0
O559 O 0.65996 0.60945 0.37688 0.0
O560 O 0.40097 0.65903 0.45238 0.0
Tb561 Tb 0.408 0.67771 0.42053 0.0
C562 C 0.45723 0.6932 0.39245 0.0
O563 O 0.39467 0.73213 0.39704 0.0
Tb564 Tb 0.4145 0.71641 0.36901 0.0
C565 C 0.42 0.7486 0.33631 0.0
O566 O 0.37717 0.69811 0.41196 0.0
O567 O 0.38619 0.69366 0.35637 0.0
C568 C 0.36955 0.7057 0.34908 0.0
O569 O 0.37071 0.72923 0.35195 0.0
O570 O 0.44508 0.68589 0.41072 0.0
O571 O 0.44778 0.70182 0.37491 0.0
O572 O 0.40406 0.63865 0.40844 0.0
C573 C 0.37622 0.72103 0.4058 0.0
C574 C 0.40518 0.67714 0.46617 0.0
O575 O 0.42132 0.75364 0.35761 0.0
O576 O 0.41639 0.72546 0.33361 0.0
C577 C 0.41964 0.62274 0.41186 0.0
O578 O 0.43818 0.63103 0.42136 0.0
O579 O 0.41114 0.69565 0.45412 0.0
O580 O 0.7079 0.38631 0.44567 0.0
Tb581 Tb 0.69785 0.36439 0.41619 0.0
C582 C 0.64829 0.35024 0.39378 0.0
O583 O 0.71816 0.31357 0.38252 0.0
Tb584 Tb 0.69297 0.33247 0.36506 0.0
C585 C 0.69232 0.30487 0.32731 0.0
O586 O 0.72763 0.34008 0.41157 0.0
O587 O 0.71089 0.36501 0.35266 0.0
C588 C 0.7289 0.37614 0.36109 0.0
O589 O 0.73453 0.37163 0.38121 0.0
O590 O 0.66078 0.3591 0.41039 0.0
O591 O 0.65743 0.33922 0.3758 0.0
O592 O 0.70014 0.4012 0.4021 0.0
C593 C 0.73173 0.32051 0.39862 0.0
C594 C 0.69802 0.37244 0.46058 0.0
O595 O 0.68845 0.29719 0.34739 0.0
O596 O 0.69551 0.32813 0.32857 0.0
C597 C 0.68649 0.41763 0.41105 0.0
O598 O 0.67189 0.41065 0.42702 0.0
O599 O 0.68806 0.35396 0.45046 0.0
O600 O 0.44735 0.37466 0.66533 0.0
Tb601 Tb 0.41535 0.3922 0.67208 0.0
C602 C 0.39045 0.44109 0.67794 0.0
O603 O 0.38919 0.38931 0.72337 0.0
Tb604 Tb 0.36345 0.40096 0.70227 0.0
C605 C 0.32899 0.41125 0.73061 0.0
O606 O 0.4055 0.36491 0.69673 0.0
O607 O 0.3572 0.3669 0.68458 0.0
C608 C 0.34923 0.34877 0.69648 0.0
O609 O 0.34622 0.35218 0.71816 0.0
O610 O 0.40898 0.42987 0.68115 0.0
O611 O 0.37051 0.42968 0.6794 0.0
O612 O 0.40604 0.38764 0.63708 0.0
C613 C 0.40025 0.37003 0.71787 0.0
C614 C 0.46029 0.39279 0.67213 0.0
O615 O 0.34994 0.41907 0.73253 0.0
O616 O 0.32739 0.39801 0.71237 0.0
C617 C 0.42025 0.39729 0.62179 0.0
O618 O 0.43809 0.41003 0.6287 0.0
O619 O 0.44802 0.41052 0.67857 0.0
O620 O 0.76174 0.65627 0.71489 0.0
Tb621 Tb 0.74165 0.6744 0.69207 0.0
C622 C 0.69628 0.70319 0.68512 0.0
O623 O 0.70743 0.65263 0.6521 0.0
Tb624 Tb 0.67662 0.67233 0.64731 0.0
C625 C 0.63342 0.65632 0.65195 0.0
O626 O 0.72708 0.63919 0.68071 0.0
O627 O 0.68373 0.67824 0.61143 0.0
C628 C 0.67299 0.66423 0.59658 0.0
O629 O 0.65902 0.64679 0.6039 0.0
O630 O 0.71141 0.68768 0.67933 0.0
O631 O 0.67912 0.70265 0.67196 0.0
O632 O 0.7685 0.69538 0.67438 0.0
C633 C 0.71024 0.63607 0.66685 0.0
C634 C 0.75642 0.66939 0.73262 0.0
O635 O 0.65024 0.64676 0.66117 0.0
O636 O 0.64117 0.67418 0.64 0.0
C637 C 0.76387 0.71362 0.66235 0.0
O638 O 0.74293 0.71557 0.65665 0.0
O639 O 0.74179 0.68503 0.72769 0.0
C640 C 0.19462 0.35448 0.24156 0.0
C641 C 0.18605 0.34741 0.22085 0.0
C642 C 0.19356 0.33852 0.2593 0.0
C643 C 0.18269 0.31527 0.25663 0.0
C644 C 0.17349 0.30836 0.23582 0.0
C645 C 0.17574 0.3243 0.21806 0.0
C646 C 0.2046 0.34634 0.2807 0.0
C647 C 0.16119 0.28412 0.23231 0.0
C648 C 0.19665 0.26417 0.29355 0.0
C649 C 0.17921 0.26464 0.31022 0.0
C650 C 0.19824 0.2808 0.27639 0.0
C651 C 0.18151 0.29793 0.27531 0.0
C652 C 0.16362 0.29824 0.29196 0.0
C653 C 0.16291 0.28188 0.30943 0.0
C654 C 0.21804 0.2802 0.25957 0.0
C655 C 0.14506 0.31567 0.29115 0.0
H656 H 0.20279 0.37229 0.24368 0.0
H657 H 0.16904 0.31886 0.20206 0.0
H658 H 0.19178 0.34609 0.29479 0.0
H659 H 0.21753 0.33354 0.28438 0.0
H660 H 0.21292 0.3647 0.27991 0.0
H661 H 0.15369 0.28209 0.21572 0.0
H662 H 0.17305 0.26959 0.23381 0.0
H663 H 0.14746 0.28153 0.2454 0.0
H664 H 0.20946 0.25104 0.29418 0.0
H665 H 0.14937 0.28229 0.32224 0.0
H666 H 0.22728 0.2981 0.25928 0.0
H667 H 0.21188 0.27619 0.24264 0.0
H668 H 0.23013 0.26647 0.26328 0.0
H669 H 0.15236 0.33443 0.29234 0.0
H670 H 0.13193 0.31312 0.30484 0.0
H671 H 0.1368 0.31338 0.27497 0.0
C672 C 0.76726 0.17942 0.26836 0.0
C673 C 0.77212 0.16323 0.25056 0.0
C674 C 0.78164 0.18246 0.28641 0.0
C675 C 0.80147 0.16921 0.2865 0.0
C676 C 0.80552 0.15171 0.26926 0.0
C677 C 0.79076 0.14886 0.25161 0.0
C678 C 0.77641 0.20104 0.30459 0.0
C679 C 0.82649 0.13737 0.26841 0.0
C680 C 0.85304 0.20165 0.31143 0.0
C681 C 0.85448 0.1903 0.3317 0.0
C682 C 0.83608 0.19472 0.29664 0.0
C683 C 0.81967 0.17621 0.30237 0.0
C684 C 0.82112 0.16445 0.32279 0.0
C685 C 0.8387 0.17151 0.33719 0.0
C686 C 0.83565 0.20749 0.27493 0.0
C687 C 0.80375 0.14495 0.32968 0.0
H688 H 0.75289 0.19059 0.26765 0.0
H689 H 0.79462 0.13627 0.23793 0.0
H690 H 0.77888 0.19386 0.32122 0.0
H691 H 0.78823 0.21709 0.30258 0.0
H692 H 0.75879 0.20689 0.30413 0.0
H693 H 0.82575 0.12245 0.25561 0.0
H694 H 0.84159 0.14944 0.26437 0.0
H695 H 0.82893 0.12972 0.28483 0.0
H696 H 0.86523 0.21626 0.30721 0.0
H697 H 0.83955 0.16306 0.35305 0.0
H698 H 0.81961 0.2168 0.27425 0.0
H699 H 0.83628 0.19423 0.26068 0.0
H700 H 0.85005 0.22101 0.27271 0.0
H701 H 0.78676 0.15249 0.33156 0.0
H702 H 0.80762 0.13703 0.34566 0.0
H703 H 0.80282 0.1304 0.31659 0.0
C704 C 0.9106 0.82338 0.30061 0.0
C705 C 0.89234 0.82253 0.31644 0.0
C706 C 0.91248 0.8055 0.28328 0.0
C707 C 0.89591 0.78605 0.28184 0.0
C708 C 0.8781 0.78458 0.29847 0.0
C709 C 0.87646 0.8028 0.31533 0.0
C710 C 0.93167 0.80802 0.26592 0.0
C711 C 0.86017 0.76418 0.29804 0.0
C712 C 0.88321 0.75387 0.22582 0.0
C713 C 0.89446 0.73234 0.22677 0.0
C714 C 0.88409 0.77162 0.24323 0.0
C715 C 0.89633 0.76794 0.26243 0.0
C716 C 0.9079 0.74636 0.26343 0.0
C717 C 0.90692 0.72897 0.24566 0.0
C718 C 0.87155 0.79427 0.2412 0.0
C719 C 0.92089 0.74136 0.28358 0.0
H720 H 0.92281 0.83863 0.30109 0.0
H721 H 0.86227 0.80186 0.32745 0.0
H722 H 0.94074 0.7911 0.26403 0.0
H723 H 0.92475 0.81131 0.24955 0.0
H724 H 0.94403 0.82307 0.27013 0.0
H725 H 0.849 0.76408 0.31344 0.0
H726 H 0.8495 0.76585 0.28357 0.0
H727 H 0.86813 0.74661 0.29604 0.0
H728 H 0.87354 0.75688 0.21142 0.0
H729 H 0.91565 0.71249 0.24678 0.0
H730 H 0.88323 0.81036 0.24364 0.0
H731 H 0.85783 0.79518 0.25442 0.0
H732 H 0.86393 0.79516 0.22475 0.0
H733 H 0.93359 0.75634 0.28688 0.0
H734 H 0.92976 0.72429 0.28153 0.0
H735 H 0.9091 0.74024 0.29849 0.0
C736 C 0.27152 0.86229 0.33724 0.0
C737 C 0.25008 0.8694 0.34495 0.0
C738 C 0.28435 0.87527 0.32113 0.0
C739 C 0.2757 0.89618 0.31277 0.0
C740 C 0.25517 0.90488 0.32219 0.0
C741 C 0.24245 0.89125 0.33813 0.0
C742 C 0.30625 0.86536 0.31172 0.0
C743 C 0.24578 0.92756 0.31433 0.0
C744 C 0.31998 0.92699 0.27457 0.0
C745 C 0.31495 0.91559 0.25408 0.0
C746 C 0.30593 0.92284 0.29372 0.0
C747 C 0.28678 0.90654 0.29228 0.0
C748 C 0.28064 0.89667 0.2712 0.0
C749 C 0.29475 0.90148 0.2523 0.0
C750 C 0.31261 0.93436 0.31572 0.0
C751 C 0.26036 0.87918 0.26889 0.0
H752 H 0.27772 0.84566 0.34276 0.0
H753 H 0.22599 0.897 0.34421 0.0
H754 H 0.30423 0.85918 0.29412 0.0
H755 H 0.32015 0.87956 0.31187 0.0
H756 H 0.3114 0.84996 0.32117 0.0
H757 H 0.23343 0.93511 0.32687 0.0
H758 H 0.25953 0.94145 0.31075 0.0
H759 H 0.23692 0.92341 0.29869 0.0
H760 H 0.33551 0.93815 0.27592 0.0
H761 H 0.29077 0.89275 0.23643 0.0
H762 H 0.3212 0.92117 0.32529 0.0
H763 H 0.29746 0.93984 0.32587 0.0
H764 H 0.32443 0.95038 0.31337 0.0
H765 H 0.26369 0.86205 0.2767 0.0
H766 H 0.25654 0.87514 0.25119 0.0
H767 H 0.24516 0.88644 0.27768 0.0
C768 C 0.19453 0.85558 0.74441 0.0
C769 C 0.18145 0.85018 0.72588 0.0
C770 C 0.19426 0.83975 0.76221 0.0
C771 C 0.17987 0.81846 0.76186 0.0
C772 C 0.16602 0.81349 0.74344 0.0
C773 C 0.16735 0.82914 0.72549 0.0
C774 C 0.21001 0.84537 0.78095 0.0
C775 C 0.15004 0.79141 0.74252 0.0
C776 C 0.19357 0.76405 0.79464 0.0
C777 C 0.17952 0.76645 0.814 0.0
C778 C 0.19423 0.78111 0.77789 0.0
C779 C 0.18001 0.80081 0.78016 0.0
C780 C 0.16562 0.8032 0.79964 0.0
C781 C 0.16579 0.78619 0.81646 0.0
C782 C 0.21029 0.77807 0.75779 0.0
C783 C 0.14982 0.82357 0.80255 0.0
H784 H 0.20563 0.87174 0.74459 0.0
H785 H 0.15729 0.82495 0.7111 0.0
H786 H 0.20025 0.84592 0.79717 0.0
H787 H 0.22212 0.83091 0.78158 0.0
H788 H 0.21984 0.86282 0.77896 0.0
H789 H 0.1391 0.79115 0.72799 0.0
H790 H 0.15985 0.77497 0.74143 0.0
H791 H 0.13904 0.79057 0.75799 0.0
H792 H 0.20443 0.74897 0.79274 0.0
H793 H 0.15491 0.78813 0.83139 0.0
H794 H 0.22146 0.79461 0.75576 0.0
H795 H 0.20057 0.77538 0.7425 0.0
H796 H 0.22107 0.76251 0.75907 0.0
H797 H 0.15968 0.8411 0.80216 0.0
H798 H 0.13949 0.82278 0.81847 0.0
H799 H 0.13824 0.82298 0.78854 0.0
C800 C 0.26705 0.18129 0.77106 0.0
C801 C 0.2707 0.16295 0.75488 0.0
C802 C 0.28151 0.18514 0.78895 0.0
C803 C 0.30021 0.17047 0.7905 0.0
C804 C 0.30294 0.1509 0.77503 0.0
C805 C 0.2881 0.14733 0.75751 0.0
C806 C 0.27767 0.20596 0.80526 0.0
C807 C 0.32267 0.13493 0.77583 0.0
C808 C 0.35358 0.20168 0.81295 0.0
C809 C 0.35394 0.19274 0.83438 0.0
C810 C 0.33642 0.19425 0.79853 0.0
C811 C 0.31876 0.17776 0.80586 0.0
C812 C 0.31916 0.16839 0.82748 0.0
C813 C 0.33688 0.17593 0.84151 0.0
C814 C 0.33702 0.20449 0.77557 0.0
C815 C 0.30048 0.15112 0.83604 0.0
H816 H 0.25365 0.19342 0.7691 0.0
H817 H 0.29101 0.13307 0.74509 0.0
H818 H 0.27976 0.20055 0.82258 0.0
H819 H 0.29045 0.22084 0.80168 0.0
H820 H 0.26053 0.21293 0.80416 0.0
H821 H 0.3208 0.11876 0.76453 0.0
H822 H 0.33857 0.14525 0.77076 0.0
H823 H 0.32452 0.129 0.79302 0.0
H824 H 0.36664 0.21493 0.80758 0.0
H825 H 0.33689 0.16949 0.85831 0.0
H826 H 0.32183 0.21495 0.77377 0.0
H827 H 0.33663 0.18968 0.76268 0.0
H828 H 0.35236 0.21647 0.7722 0.0
H829 H 0.28421 0.16019 0.83721 0.0
H830 H 0.30382 0.14453 0.85272 0.0
H831 H 0.29834 0.13543 0.82426 0.0
C832 C 0.87436 0.32053 0.79329 0.0
C833 C 0.88857 0.32501 0.81125 0.0
C834 C 0.8772 0.30099 0.77806 0.0
C835 C 0.89439 0.28481 0.78094 0.0
C836 C 0.90881 0.28911 0.79911 0.0
C837 C 0.90594 0.30933 0.81386 0.0
C838 C 0.86177 0.29777 0.75874 0.0
C839 C 0.92701 0.27209 0.80317 0.0
C840 C 0.88507 0.22344 0.75042 0.0
C841 C 0.89928 0.22601 0.73112 0.0
C842 C 0.88403 0.24191 0.76719 0.0
C843 C 0.89728 0.2638 0.7646 0.0
C844 C 0.91192 0.2663 0.74532 0.0
C845 C 0.91287 0.24741 0.72901 0.0
C846 C 0.8683 0.2382 0.78745 0.0
C847 C 0.9259 0.28941 0.74139 0.0
H848 H 0.86097 0.33259 0.79095 0.0
H849 H 0.91687 0.31247 0.82775 0.0
H850 H 0.87199 0.29739 0.74276 0.0
H851 H 0.85185 0.28031 0.75973 0.0
H852 H 0.84975 0.31238 0.75838 0.0
H853 H 0.93655 0.27756 0.81816 0.0
H854 H 0.91927 0.25365 0.80533 0.0
H855 H 0.93912 0.27125 0.78852 0.0
H856 H 0.87454 0.20701 0.75236 0.0
H857 H 0.92381 0.24978 0.71418 0.0
H858 H 0.85424 0.25055 0.78729 0.0
H859 H 0.8775 0.24254 0.80287 0.0
H860 H 0.86088 0.21945 0.78811 0.0
H861 H 0.91449 0.30431 0.73959 0.0
H862 H 0.93728 0.28815 0.72619 0.0
H863 H 0.93634 0.29423 0.75589 0.0
C864 C 0.81048 0.91684 0.76861 0.0
C865 C 0.83343 0.91722 0.77343 0.0
C866 C 0.79353 0.91074 0.78486 0.0
C867 C 0.79975 0.90537 0.8065 0.0
C868 C 0.82271 0.90885 0.81214 0.0
C869 C 0.83939 0.91438 0.7954 0.0
C870 C 0.76932 0.90718 0.77804 0.0
C871 C 0.8299 0.90433 0.83528 0.0
C872 C 0.75121 0.88587 0.84728 0.0
C873 C 0.75109 0.86077 0.8441 0.0
C874 C 0.76762 0.90088 0.83598 0.0
C875 C 0.78369 0.89046 0.82077 0.0
C876 C 0.7838 0.86511 0.81794 0.0
C877 C 0.76775 0.85068 0.82981 0.0
C878 C 0.76729 0.92778 0.83992 0.0
C879 C 0.80037 0.85307 0.80172 0.0
H880 H 0.80581 0.91928 0.75166 0.0
H881 H 0.85714 0.91508 0.79924 0.0
H882 H 0.76476 0.8876 0.77623 0.0
H883 H 0.75754 0.91487 0.79096 0.0
H884 H 0.76676 0.91554 0.76193 0.0
H885 H 0.84686 0.91306 0.83839 0.0
H886 H 0.8174 0.91108 0.84807 0.0
H887 H 0.83078 0.88468 0.83727 0.0
H888 H 0.73846 0.89376 0.85841 0.0
H889 H 0.76788 0.83132 0.82724 0.0
H890 H 0.75847 0.93566 0.82629 0.0
H891 H 0.78475 0.93619 0.83999 0.0
H892 H 0.75815 0.93254 0.85593 0.0
H893 H 0.79845 0.85936 0.78464 0.0
H894 H 0.79791 0.83313 0.80131 0.0
H895 H 0.81801 0.85795 0.80628 0.0
C896 C 0.29852 0.16368 0.24093 0.0
C897 C 0.31318 0.18441 0.24122 0.0
C898 C 0.28161 0.15974 0.25819 0.0
C899 C 0.27926 0.17685 0.27626 0.0
C900 C 0.29439 0.19747 0.2768 0.0
C901 C 0.31098 0.20093 0.25946 0.0
C902 C 0.26595 0.13746 0.25691 0.0
C903 C 0.29278 0.21629 0.29553 0.0
C904 C 0.22251 0.18321 0.30899 0.0
C905 C 0.22603 0.17249 0.32927 0.0
C906 C 0.2394 0.1843 0.2916 0.0
C907 C 0.26049 0.17404 0.29412 0.0
C908 C 0.26403 0.16268 0.31434 0.0
C909 C 0.24687 0.16209 0.33162 0.0
C910 C 0.23476 0.19694 0.27064 0.0
C911 C 0.28617 0.15153 0.3179 0.0
H912 H 0.29998 0.15076 0.22707 0.0
H913 H 0.32224 0.21696 0.2602 0.0
H914 H 0.26627 0.12745 0.27249 0.0
H915 H 0.24829 0.14268 0.25531 0.0
H916 H 0.27059 0.12527 0.24255 0.0
H917 H 0.30636 0.23083 0.29401 0.0
H918 H 0.27612 0.22453 0.29565 0.0
H919 H 0.2939 0.20787 0.31184 0.0
H920 H 0.20643 0.19087 0.30659 0.0
H921 H 0.24988 0.15365 0.34707 0.0
H922 H 0.23743 0.18472 0.25584 0.0
H923 H 0.24682 0.21279 0.26863 0.0
H924 H 0.21724 0.20318 0.27084 0.0
H925 H 0.29021 0.13861 0.30396 0.0
H926 H 0.28583 0.14199 0.33382 0.0
H927 H 0.3001 0.16573 0.31805 0.0
C928 C 0.92816 0.24919 0.29293 0.0
C929 C 0.92126 0.25727 0.31447 0.0
C930 C 0.92675 0.26377 0.2744 0.0
C931 C 0.91766 0.28677 0.27734 0.0
C932 C 0.91035 0.29481 0.29907 0.0
C933 C 0.9125 0.28012 0.31736 0.0
C934 C 0.93523 0.25466 0.25172 0.0
C935 C 0.90013 0.31895 0.30301 0.0
C936 C 0.93237 0.33779 0.23773 0.0
C937 C 0.91297 0.33779 0.22525 0.0
C938 C 0.93465 0.32043 0.25375 0.0
C939 C 0.91673 0.30299 0.25801 0.0
C940 C 0.89739 0.30236 0.24481 0.0
C941 C 0.89584 0.31967 0.22843 0.0
C942 C 0.95581 0.32155 0.26689 0.0
C943 C 0.8777 0.28442 0.24895 0.0
H944 H 0.93484 0.23149 0.29057 0.0
H945 H 0.90681 0.28632 0.3339 0.0
H946 H 0.92139 0.25413 0.23989 0.0
H947 H 0.94899 0.26716 0.24509 0.0
H948 H 0.94179 0.23638 0.25217 0.0
H949 H 0.89406 0.32199 0.32062 0.0
H950 H 0.91287 0.33357 0.29859 0.0
H951 H 0.88566 0.32031 0.29212 0.0
H952 H 0.94551 0.352 0.23547 0.0
H953 H 0.88057 0.32 0.21919 0.0
H954 H 0.96275 0.30346 0.26722 0.0
H955 H 0.95162 0.32738 0.28439 0.0
H956 H 0.96917 0.33431 0.25989 0.0
H957 H 0.88369 0.26595 0.24954 0.0
H958 H 0.865 0.28467 0.23595 0.0
H959 H 0.86921 0.28868 0.26539 0.0
C960 C 0.77386 0.86628 0.23704 0.0
C961 C 0.76541 0.88389 0.22405 0.0
C962 C 0.78866 0.87248 0.2541 0.0
C963 C 0.79511 0.89699 0.25858 0.0
C964 C 0.78599 0.91499 0.24613 0.0
C965 C 0.77129 0.90822 0.22893 0.0
C966 C 0.79797 0.85265 0.26687 0.0
C967 C 0.79217 0.94132 0.25065 0.0
C968 C 0.82195 0.90805 0.31456 0.0
C969 C 0.84508 0.90749 0.30837 0.0
C970 C 0.80545 0.90615 0.29841 0.0
C971 C 0.81226 0.90336 0.27557 0.0
C972 C 0.83567 0.90395 0.26922 0.0
C973 C 0.85179 0.90612 0.2857 0.0
C974 C 0.78071 0.90585 0.3059 0.0
C975 C 0.84371 0.90079 0.24512 0.0
H976 H 0.76929 0.84743 0.23358 0.0
H977 H 0.76476 0.92195 0.21907 0.0
H978 H 0.81667 0.85286 0.26411 0.0
H979 H 0.79433 0.85563 0.28501 0.0
H980 H 0.79073 0.83454 0.26181 0.0
H981 H 0.7823 0.95316 0.24077 0.0
H982 H 0.78919 0.94604 0.26861 0.0
H983 H 0.81047 0.94507 0.24651 0.0
H984 H 0.81669 0.90909 0.33209 0.0
H985 H 0.86965 0.90562 0.28083 0.0
H986 H 0.7729 0.88741 0.30343 0.0
H987 H 0.77149 0.91798 0.29574 0.0
H988 H 0.77826 0.91139 0.32376 0.0
H989 H 0.83894 0.88223 0.23899 0.0
H990 H 0.86237 0.90387 0.24274 0.0
H991 H 0.83538 0.91336 0.23465 0.0
C992 C 0.19821 0.79681 0.29142 0.0
C993 C 0.19587 0.7856 0.31198 0.0
C994 C 0.20127 0.78332 0.27128 0.0
C995 C 0.20217 0.75793 0.27162 0.0
C996 C 0.20056 0.74662 0.29245 0.0
C997 C 0.19732 0.76055 0.31233 0.0
C998 C 0.20282 0.7962 0.24957 0.0
C999 C 0.20163 0.71969 0.2937 0.0
C1000 C 0.18117 0.72162 0.221 0.0
C1001 C 0.20134 0.71547 0.20942 0.0
C1002 C 0.18133 0.73525 0.24113 0.0
C1003 C 0.20223 0.74309 0.25021 0.0
C1004 C 0.22277 0.73701 0.2386 0.0
C1005 C 0.22207 0.72351 0.2182 0.0
C1006 C 0.159 0.74131 0.25268 0.0
C1007 C 0.24545 0.74485 0.24768 0.0
H1008 H 0.19734 0.81619 0.29102 0.0
H1009 H 0.19582 0.75178 0.32817 0.0
H1010 H 0.21807 0.79103 0.23943 0.0
H1011 H 0.18783 0.79077 0.23979 0.0
H1012 H 0.20359 0.81609 0.25217 0.0
H1013 H 0.203 0.71397 0.31107 0.0
H1014 H 0.1861 0.71071 0.28688 0.0
H1015 H 0.21631 0.71329 0.28341 0.0
H1016 H 0.16502 0.7156 0.21436 0.0
H1017 H 0.23771 0.71942 0.20904 0.0
H1018 H 0.158 0.76113 0.25455 0.0
H1019 H 0.15773 0.73406 0.26966 0.0
H1020 H 0.14421 0.7339 0.24343 0.0
H1021 H 0.24765 0.76478 0.24797 0.0
H1022 H 0.25977 0.73729 0.23756 0.0
H1023 H 0.24624 0.73914 0.2651 0.0
C1024 C 0.26609 0.90994 0.73317 0.0
C1025 C 0.25823 0.886 0.72915 0.0
C1026 C 0.28157 0.91597 0.74993 0.0
C1027 C 0.2895 0.8976 0.76281 0.0
C1028 C 0.281 0.87355 0.75925 0.0
C1029 C 0.26546 0.86811 0.74264 0.0
C1030 C 0.28987 0.94188 0.75347 0.0
C1031 C 0.28891 0.85331 0.77248 0.0
C1032 C 0.3474 0.90326 0.78824 0.0
C1033 C 0.34156 0.90619 0.81103 0.0
C1034 C 0.33069 0.90149 0.77229 0.0
C1035 C 0.30754 0.90298 0.77923 0.0
C1036 C 0.30168 0.90716 0.80215 0.0
C1037 C 0.31874 0.90852 0.81779 0.0
C1038 C 0.33776 0.89669 0.74812 0.0
C1039 C 0.27729 0.90917 0.81027 0.0
H1040 H 0.26054 0.9239 0.72294 0.0
H1041 H 0.25935 0.84957 0.73992 0.0
H1042 H 0.28784 0.94739 0.77136 0.0
H1043 H 0.3082 0.94391 0.74868 0.0
H1044 H 0.28067 0.95427 0.74353 0.0
H1045 H 0.28007 0.83573 0.76823 0.0
H1046 H 0.3074 0.85166 0.76925 0.0
H1047 H 0.28604 0.85726 0.79059 0.0
H1048 H 0.365 0.90135 0.78291 0.0
H1049 H 0.31412 0.91078 0.83539 0.0
H1050 H 0.33035 0.90975 0.73745 0.0
H1051 H 0.3312 0.87844 0.74273 0.0
H1052 H 0.35647 0.89781 0.7452 0.0
H1053 H 0.26883 0.92191 0.80009 0.0
H1054 H 0.27576 0.91531 0.82806 0.0
H1055 H 0.26803 0.89138 0.80841 0.0
C1056 C 0.19914 0.29605 0.79006 0.0
C1057 C 0.19638 0.28484 0.8106 0.0
C1058 C 0.20295 0.2826 0.77003 0.0
C1059 C 0.20416 0.25725 0.77047 0.0
C1060 C 0.20211 0.24595 0.79129 0.0
C1061 C 0.19815 0.25984 0.81106 0.0
C1062 C 0.20497 0.29546 0.74831 0.0
C1063 C 0.2035 0.21907 0.79264 0.0
C1064 C 0.18492 0.22075 0.71931 0.0
C1065 C 0.20545 0.21505 0.70817 0.0
C1066 C 0.18441 0.23426 0.7395 0.0
C1067 C 0.20496 0.24241 0.74909 0.0
C1068 C 0.22586 0.23669 0.73798 0.0
C1069 C 0.22584 0.22332 0.71748 0.0
C1070 C 0.16172 0.23996 0.75051 0.0
C1071 C 0.2482 0.2449 0.74758 0.0
H1072 H 0.19805 0.3154 0.78959 0.0
H1073 H 0.19634 0.25109 0.8269 0.0
H1074 H 0.22059 0.29056 0.73863 0.0
H1075 H 0.19037 0.28976 0.73808 0.0
H1076 H 0.20537 0.31535 0.75088 0.0
H1077 H 0.20454 0.21342 0.81007 0.0
H1078 H 0.18828 0.20983 0.78547 0.0
H1079 H 0.21851 0.2129 0.7827 0.0
H1080 H 0.16904 0.21454 0.71223 0.0
H1081 H 0.24175 0.21955 0.70867 0.0
H1082 H 0.1604 0.25975 0.75229 0.0
H1083 H 0.16014 0.23274 0.76749 0.0
H1084 H 0.14727 0.23228 0.74091 0.0
H1085 H 0.25075 0.26472 0.74649 0.0
H1086 H 0.26273 0.2364 0.73859 0.0
H1087 H 0.24821 0.24063 0.76546 0.0
C1088 C 0.7978 0.16031 0.73951 0.0
C1089 C 0.81204 0.18136 0.73938 0.0
C1090 C 0.78093 0.15644 0.75682 0.0
C1091 C 0.7782 0.17395 0.77449 0.0
C1092 C 0.79288 0.19492 0.77459 0.0
C1093 C 0.80945 0.19831 0.75723 0.0
C1094 C 0.76575 0.13378 0.75601 0.0
C1095 C 0.79083 0.21418 0.79289 0.0
C1096 C 0.72119 0.17969 0.80682 0.0
C1097 C 0.72492 0.16971 0.8274 0.0
C1098 C 0.73812 0.18075 0.78948 0.0
C1099 C 0.75945 0.17118 0.79235 0.0
C1100 C 0.76321 0.16053 0.81287 0.0
C1101 C 0.746 0.15998 0.8301 0.0
C1102 C 0.73326 0.19265 0.76819 0.0
C1103 C 0.78561 0.15011 0.81679 0.0
H1104 H 0.79959 0.14706 0.72596 0.0
H1105 H 0.82039 0.21458 0.75764 0.0
H1106 H 0.76629 0.12424 0.77183 0.0
H1107 H 0.74795 0.13847 0.75426 0.0
H1108 H 0.77066 0.12135 0.74193 0.0
H1109 H 0.80403 0.22906 0.791 0.0
H1110 H 0.77393 0.22187 0.79287 0.0
H1111 H 0.79226 0.20629 0.8094 0.0
H1112 H 0.7049 0.18674 0.80415 0.0
H1113 H 0.74915 0.1521 0.84579 0.0
H1114 H 0.73623 0.18012 0.75368 0.0
H1115 H 0.74498 0.20872 0.76587 0.0
H1116 H 0.71558 0.19842 0.76818 0.0
H1117 H 0.78998 0.13694 0.80315 0.0
H1118 H 0.78544 0.14102 0.83294 0.0
H1119 H 0.79923 0.16464 0.81667 0.0
C1120 C 0.92744 0.75067 0.79315 0.0
C1121 C 0.92112 0.75846 0.81495 0.0
C1122 C 0.92562 0.76553 0.77488 0.0
C1123 C 0.91671 0.78859 0.77832 0.0
C1124 C 0.91001 0.79636 0.80031 0.0
C1125 C 0.91254 0.78136 0.81833 0.0
C1126 C 0.9334 0.75664 0.7519 0.0
C1127 C 0.90001 0.82052 0.80483 0.0
C1128 C 0.93015 0.84005 0.73875 0.0
C1129 C 0.91033 0.84021 0.72691 0.0
C1130 C 0.93296 0.82251 0.7545 0.0
C1131 C 0.91516 0.80504 0.7592 0.0
C1132 C 0.89538 0.80459 0.74665 0.0
C1133 C 0.89328 0.82208 0.73053 0.0
C1134 C 0.95457 0.82346 0.76693 0.0
C1135 C 0.87578 0.78666 0.75124 0.0
H1136 H 0.93396 0.73294 0.79039 0.0
H1137 H 0.9073 0.78737 0.83506 0.0
H1138 H 0.91916 0.7562 0.74053 0.0
H1139 H 0.94692 0.76923 0.74497 0.0
H1140 H 0.94003 0.73836 0.75196 0.0
H1141 H 0.89457 0.82344 0.82263 0.0
H1142 H 0.91265 0.83513 0.8001 0.0
H1143 H 0.88515 0.82205 0.79449 0.0
H1144 H 0.9432 0.8543 0.73625 0.0
H1145 H 0.87768 0.82252 0.72183 0.0
H1146 H 0.96151 0.80534 0.76688 0.0
H1147 H 0.95097 0.82917 0.78457 0.0
H1148 H 0.96773 0.83625 0.75961 0.0
H1149 H 0.88178 0.76816 0.75152 0.0
H1150 H 0.86267 0.78702 0.73864 0.0
H1151 H 0.86778 0.79084 0.76792 0.0
C1152 C 0.3231 0.26124 0.17695 0.0
C1153 C 0.34343 0.25415 0.16667 0.0
C1154 C 0.31387 0.28262 0.17146 0.0
C1155 C 0.32494 0.29678 0.15465 0.0
C1156 C 0.34591 0.29003 0.14462 0.0
C1157 C 0.35514 0.26877 0.15103 0.0
C1158 C 0.29182 0.28953 0.18314 0.0
C1159 C 0.35793 0.3044 0.12637 0.0
C1160 C 0.2785 0.32974 0.13199 0.0
C1161 C 0.27959 0.35068 0.14554 0.0
C1162 C 0.29546 0.31323 0.13224 0.0
C1163 C 0.31329 0.31757 0.14701 0.0
C1164 C 0.31582 0.34005 0.15865 0.0
C1165 C 0.29894 0.35657 0.15757 0.0
C1166 C 0.29274 0.28985 0.11886 0.0
C1167 C 0.33455 0.34537 0.17458 0.0
H1168 H 0.3143 0.2499 0.18925 0.0
H1169 H 0.37086 0.26299 0.14306 0.0
H1170 H 0.29335 0.3084 0.18975 0.0
H1171 H 0.27813 0.28832 0.17111 0.0
H1172 H 0.28664 0.27769 0.19717 0.0
H1173 H 0.37594 0.29987 0.12379 0.0
H1174 H 0.34935 0.30033 0.11055 0.0
H1175 H 0.35722 0.32402 0.13007 0.0
H1176 H 0.26366 0.3255 0.12237 0.0
H1177 H 0.29982 0.37295 0.16792 0.0
H1178 H 0.28535 0.27558 0.12986 0.0
H1179 H 0.3094 0.28408 0.11199 0.0
H1180 H 0.28131 0.29138 0.10492 0.0
H1181 H 0.32998 0.33635 0.19046 0.0
H1182 H 0.33715 0.365 0.17834 0.0
H1183 H 0.35075 0.33833 0.1678 0.0
C1184 C 0.25911 0.76616 0.89436 0.0
C1185 C 0.2568 0.7549 0.87311 0.0
C1186 C 0.27869 0.7813 0.89958 0.0
C1187 C 0.29677 0.78567 0.88332 0.0
C1188 C 0.29469 0.77379 0.86213 0.0
C1189 C 0.27515 0.75881 0.85742 0.0
C1190 C 0.27977 0.7932 0.92246 0.0
C1191 C 0.31292 0.77752 0.84394 0.0
C1192 C 0.33419 0.84523 0.88448 0.0
C1193 C 0.35535 0.83871 0.89172 0.0
C1194 C 0.31533 0.82853 0.88222 0.0
C1195 C 0.31682 0.80403 0.88746 0.0
C1196 C 0.33798 0.79721 0.89513 0.0
C1197 C 0.35683 0.81441 0.89709 0.0
C1198 C 0.29376 0.83719 0.87361 0.0
C1199 C 0.34083 0.77153 0.901 0.0
H1200 H 0.24538 0.76365 0.90679 0.0
H1201 H 0.27414 0.7504 0.84091 0.0
H1202 H 0.29616 0.78996 0.92975 0.0
H1203 H 0.27888 0.81295 0.9212 0.0
H1204 H 0.26571 0.78655 0.93394 0.0
H1205 H 0.30975 0.76592 0.82885 0.0
H1206 H 0.31391 0.7966 0.8391 0.0
H1207 H 0.32966 0.77367 0.8501 0.0
H1208 H 0.33228 0.86369 0.88013 0.0
H1209 H 0.37276 0.80872 0.90266 0.0
H1210 H 0.27929 0.83298 0.88552 0.0
H1211 H 0.29003 0.82764 0.85756 0.0
H1212 H 0.29482 0.85687 0.87095 0.0
H1213 H 0.32698 0.76541 0.91293 0.0
H1214 H 0.35737 0.76923 0.90844 0.0
H1215 H 0.33968 0.75967 0.8858 0.0
C1216 C 0.33335 0.22716 0.91754 0.0
C1217 C 0.35371 0.23495 0.90601 0.0
C1218 C 0.31322 0.24065 0.91818 0.0
C1219 C 0.31249 0.26254 0.90651 0.0
C1220 C 0.3329 0.27021 0.89463 0.0
C1221 C 0.35288 0.25687 0.89486 0.0
C1222 C 0.29259 0.23143 0.93161 0.0
C1223 C 0.33363 0.29259 0.88116 0.0
C1224 C 0.25402 0.28503 0.88957 0.0
C1225 C 0.24991 0.30512 0.90412 0.0
C1226 C 0.27386 0.27146 0.89011 0.0
C1227 C 0.29057 0.27703 0.90611 0.0
C1228 C 0.28643 0.2971 0.92109 0.0
C1229 C 0.26669 0.3109 0.91972 0.0
C1230 C 0.27709 0.25121 0.87305 0.0
C1231 C 0.3029 0.30398 0.93889 0.0
H1232 H 0.33317 0.21057 0.92641 0.0
H1233 H 0.36801 0.26363 0.88575 0.0
H1234 H 0.28669 0.24578 0.94347 0.0
H1235 H 0.2786 0.22657 0.92038 0.0
H1236 H 0.29597 0.21538 0.9411 0.0
H1237 H 0.35023 0.29587 0.87202 0.0
H1238 H 0.32012 0.29102 0.86893 0.0
H1239 H 0.33032 0.30849 0.89227 0.0
H1240 H 0.24175 0.28004 0.87718 0.0
H1241 H 0.26423 0.32606 0.93126 0.0
H1242 H 0.2779 0.23395 0.88152 0.0
H1243 H 0.29343 0.25432 0.86345 0.0
H1244 H 0.26322 0.24937 0.8612 0.0
H1245 H 0.30576 0.28806 0.94877 0.0
H1246 H 0.29681 0.31861 0.95036 0.0
H1247 H 0.3195 0.31005 0.93107 0.0
C1248 C 0.75536 0.26572 0.88935 0.0
C1249 C 0.75414 0.25212 0.86912 0.0
C1250 C 0.77483 0.28116 0.89432 0.0
C1251 C 0.79389 0.28347 0.87882 0.0
C1252 C 0.79286 0.26931 0.8587 0.0
C1253 C 0.77341 0.25408 0.85423 0.0
C1254 C 0.77477 0.29553 0.91607 0.0
C1255 C 0.81217 0.27076 0.84133 0.0
C1256 C 0.83265 0.34216 0.87731 0.0
C1257 C 0.85289 0.33607 0.88683 0.0
C1258 C 0.81366 0.32561 0.87502 0.0
C1259 C 0.81407 0.30177 0.88259 0.0
C1260 C 0.83432 0.29542 0.89243 0.0
C1261 C 0.85333 0.31239 0.89432 0.0
C1262 C 0.79312 0.33368 0.864 0.0
C1263 C 0.83599 0.27047 0.90089 0.0
H1264 H 0.74091 0.26476 0.90113 0.0
H1265 H 0.77323 0.24388 0.83852 0.0
H1266 H 0.79045 0.29282 0.92484 0.0
H1267 H 0.77458 0.31499 0.91277 0.0
H1268 H 0.75985 0.29051 0.92721 0.0
H1269 H 0.80959 0.25771 0.82712 0.0
H1270 H 0.81397 0.28918 0.83478 0.0
H1271 H 0.82836 0.26729 0.84887 0.0
H1272 H 0.83161 0.36012 0.87123 0.0
H1273 H 0.86853 0.30707 0.90172 0.0
H1274 H 0.77783 0.33117 0.87529 0.0
H1275 H 0.79015 0.32248 0.84865 0.0
H1276 H 0.795 0.35287 0.85945 0.0
H1277 H 0.82154 0.26619 0.91281 0.0
H1278 H 0.85207 0.26848 0.90926 0.0
H1279 H 0.83491 0.25706 0.8868 0.0
C1280 C 0.76841 0.80792 0.91875 0.0
C1281 C 0.75101 0.80166 0.90389 0.0
C1282 C 0.78826 0.79417 0.91985 0.0
C1283 C 0.79195 0.77359 0.90534 0.0
C1284 C 0.77461 0.76753 0.89006 0.0
C1285 C 0.75469 0.78109 0.88979 0.0
C1286 C 0.80537 0.80167 0.93688 0.0
C1287 C 0.77725 0.74673 0.87349 0.0
C1288 C 0.85409 0.7528 0.89282 0.0
C1289 C 0.85534 0.73134 0.90462 0.0
C1290 C 0.83405 0.76616 0.89277 0.0
C1291 C 0.81396 0.75903 0.90548 0.0
C1292 C 0.81512 0.7376 0.91778 0.0
C1293 C 0.83529 0.72407 0.91698 0.0
C1294 C 0.83438 0.78799 0.87862 0.0
C1295 C 0.79492 0.72891 0.93208 0.0
H1296 H 0.76637 0.82345 0.92993 0.0
H1297 H 0.74197 0.77566 0.87796 0.0
H1298 H 0.8086 0.78614 0.94711 0.0
H1299 H 0.82171 0.80745 0.92835 0.0
H1300 H 0.79968 0.81669 0.94811 0.0
H1301 H 0.76296 0.74453 0.86213 0.0
H1302 H 0.79329 0.74946 0.8633 0.0
H1303 H 0.77831 0.72978 0.8824 0.0
H1304 H 0.86894 0.75921 0.88307 0.0
H1305 H 0.83537 0.70785 0.92637 0.0
H1306 H 0.83155 0.8043 0.88935 0.0
H1307 H 0.8204 0.78605 0.86692 0.0
H1308 H 0.85067 0.79084 0.86883 0.0
H1309 H 0.78942 0.74367 0.9437 0.0
H1310 H 0.79859 0.71321 0.94191 0.0
H1311 H 0.78053 0.7237 0.92144 0.0
C1312 C 0.79823 0.73078 0.14442 0.0
C1313 C 0.81995 0.72627 0.13581 0.0
C1314 C 0.78693 0.75011 0.13697 0.0
C1315 C 0.79748 0.76443 0.11996 0.0
C1316 C 0.81782 0.75742 0.10891 0.0
C1317 C 0.82925 0.7387 0.11743 0.0
C1318 C 0.76517 0.75691 0.14924 0.0
C1319 C 0.82861 0.77098 0.08952 0.0
C1320 C 0.75924 0.81445 0.11199 0.0
C1321 C 0.76755 0.83124 0.12792 0.0
C1322 C 0.77078 0.79356 0.10655 0.0
C1323 C 0.79026 0.78922 0.11817 0.0
C1324 C 0.8 0.80751 0.13235 0.0
C1325 C 0.78863 0.8286 0.13672 0.0
C1326 C 0.76094 0.77537 0.08996 0.0
C1327 C 0.82085 0.8037 0.14509 0.0
H1328 H 0.79109 0.72083 0.15851 0.0
H1329 H 0.84591 0.7346 0.11045 0.0
H1330 H 0.76806 0.77429 0.15862 0.0
H1331 H 0.75187 0.75931 0.13729 0.0
H1332 H 0.75872 0.74313 0.16121 0.0
H1333 H 0.83839 0.75881 0.0781 0.0
H1334 H 0.81573 0.7794 0.07998 0.0
H1335 H 0.84061 0.78541 0.09577 0.0
H1336 H 0.74314 0.81693 0.10474 0.0
H1337 H 0.79514 0.84188 0.1488 0.0
H1338 H 0.74798 0.76339 0.09857 0.0
H1339 H 0.77415 0.76407 0.08198 0.0
H1340 H 0.75242 0.78448 0.0768 0.0
H1341 H 0.81718 0.78896 0.15688 0.0
H1342 H 0.82662 0.82013 0.15475 0.0
H1343 H 0.83497 0.79834 0.13351 0.0
C1344 C 0.27562 0.74608 0.14578 0.0
C1345 C 0.2836 0.72431 0.15232 0.0
C1346 C 0.28883 0.76764 0.14822 0.0
C1347 C 0.31058 0.76718 0.157 0.0
C1348 C 0.31982 0.74483 0.16064 0.0
C1349 C 0.30609 0.72361 0.15847 0.0
C1350 C 0.2783 0.79107 0.14418 0.0
C1351 C 0.3432 0.7435 0.16935 0.0
C1352 C 0.34517 0.82635 0.16507 0.0
C1353 C 0.33957 0.83211 0.1875 0.0
C1354 C 0.33623 0.805 0.15481 0.0
C1355 C 0.32105 0.78951 0.16723 0.0
C1356 C 0.3154 0.79534 0.1899 0.0
C1357 C 0.32491 0.81642 0.19977 0.0
C1358 C 0.34294 0.79906 0.13077 0.0
C1359 C 0.29908 0.77945 0.20375 0.0
H1360 H 0.25828 0.7467 0.14088 0.0
H1361 H 0.31245 0.70671 0.16316 0.0
H1362 H 0.27226 0.79921 0.16038 0.0
H1363 H 0.29085 0.80409 0.13638 0.0
H1364 H 0.2636 0.78835 0.13336 0.0
H1365 H 0.34973 0.72526 0.16647 0.0
H1366 H 0.35531 0.75687 0.16138 0.0
H1367 H 0.34251 0.74769 0.18756 0.0
H1368 H 0.35661 0.83843 0.15559 0.0
H1369 H 0.32043 0.82084 0.21708 0.0
H1370 H 0.32789 0.79908 0.12048 0.0
H1371 H 0.34942 0.78072 0.12912 0.0
H1372 H 0.35614 0.81211 0.12393 0.0
H1373 H 0.28255 0.77708 0.19576 0.0
H1374 H 0.29606 0.78696 0.22096 0.0
H1375 H 0.3058 0.76134 0.20482 0.0
C1376 C 0.77617 0.25603 0.15056 0.0
C1377 C 0.78382 0.23504 0.15922 0.0
C1378 C 0.78798 0.27836 0.15388 0.0
C1379 C 0.80792 0.27965 0.16605 0.0
C1380 C 0.81689 0.25821 0.17288 0.0
C1381 C 0.80471 0.23614 0.1694 0.0
C1382 C 0.77793 0.30078 0.14619 0.0
C1383 C 0.83825 0.25876 0.1857 0.0
C1384 C 0.84425 0.33782 0.17357 0.0
C1385 C 0.83665 0.34567 0.19494 0.0
C1386 C 0.83465 0.31667 0.16349 0.0
C1387 C 0.81705 0.30328 0.17508 0.0
C1388 C 0.80871 0.31177 0.19625 0.0
C1389 C 0.81865 0.3328 0.2059 0.0
C1390 C 0.84398 0.30815 0.14092 0.0
C1391 C 0.78981 0.29818 0.20914 0.0
H1392 H 0.76015 0.25536 0.14249 0.0
H1393 H 0.81093 0.21997 0.17589 0.0
H1394 H 0.76975 0.31033 0.16072 0.0
H1395 H 0.79131 0.31328 0.1389 0.0
H1396 H 0.76495 0.29653 0.13367 0.0
H1397 H 0.84488 0.24057 0.18668 0.0
H1398 H 0.85164 0.27088 0.1779 0.0
H1399 H 0.83464 0.26589 0.20292 0.0
H1400 H 0.85826 0.34766 0.16509 0.0
H1401 H 0.81259 0.33887 0.22236 0.0
H1402 H 0.83001 0.30326 0.12967 0.0
H1403 H 0.85342 0.29172 0.14275 0.0
H1404 H 0.85563 0.322 0.13296 0.0
H1405 H 0.77483 0.29504 0.19881 0.0
H1406 H 0.7845 0.30792 0.22484 0.0
H1407 H 0.79542 0.28029 0.2134 0.0
C1408 C 0.78469 0.65175 0.75582 0.0
C1409 C 0.76906 0.66943 0.75339 0.0
C1410 C 0.80008 0.65361 0.77298 0.0
C1411 C 0.79996 0.67368 0.78816 0.0
C1412 C 0.78316 0.69076 0.7867 0.0
C1413 C 0.76791 0.68843 0.76931 0.0
C1414 C 0.81752 0.63491 0.77386 0.0
C1415 C 0.78222 0.71234 0.80261 0.0
C1416 C 0.83638 0.6752 0.83935 0.0
C1417 C 0.85546 0.6892 0.83187 0.0
C1418 C 0.8182 0.66966 0.82529 0.0
C1419 C 0.81919 0.67845 0.80336 0.0
C1420 C 0.83881 0.69203 0.79569 0.0
C1421 C 0.85656 0.69731 0.81005 0.0
C1422 C 0.7976 0.65525 0.83417 0.0
C1423 C 0.84081 0.70172 0.77249 0.0
H1424 H 0.78562 0.63693 0.74364 0.0
H1425 H 0.75589 0.70215 0.76754 0.0
H1426 H 0.83444 0.64293 0.76859 0.0
H1427 H 0.81861 0.62888 0.79113 0.0
H1428 H 0.81362 0.61893 0.76278 0.0
H1429 H 0.76647 0.72207 0.80126 0.0
H1430 H 0.78328 0.70682 0.82005 0.0
H1431 H 0.79697 0.72501 0.79893 0.0
H1432 H 0.83523 0.66956 0.85646 0.0
H1433 H 0.87112 0.7086 0.80445 0.0
H1434 H 0.79327 0.63996 0.82249 0.0
H1435 H 0.78286 0.66678 0.83556 0.0
H1436 H 0.80015 0.64811 0.85083 0.0
H1437 H 0.83868 0.68675 0.75992 0.0
H1438 H 0.8574 0.7115 0.76893 0.0
H1439 H 0.82715 0.7142 0.77039 0.0
C1440 C 0.23942 0.39014 0.8339 0.0
C1441 C 0.24815 0.36957 0.8423 0.0
C1442 C 0.25156 0.4031 0.81711 0.0
C1443 C 0.27266 0.39505 0.80853 0.0
C1444 C 0.28239 0.37567 0.81849 0.0
C1445 C 0.27007 0.36332 0.83536 0.0
C1446 C 0.24097 0.42418 0.80747 0.0
C1447 C 0.30495 0.36656 0.81005 0.0
C1448 C 0.29208 0.39638 0.74788 0.0
C1449 C 0.31145 0.41193 0.74888 0.0
C1450 C 0.27802 0.39228 0.76697 0.0
C1451 C 0.28337 0.40429 0.78741 0.0
C1452 C 0.30155 0.42191 0.78789 0.0
C1453 C 0.31557 0.42536 0.76861 0.0
C1454 C 0.25876 0.37335 0.76568 0.0
C1455 C 0.30736 0.43565 0.80915 0.0
H1456 H 0.22255 0.3952 0.83934 0.0
H1457 H 0.27709 0.3477 0.8421 0.0
H1458 H 0.25398 0.43861 0.80317 0.0
H1459 H 0.23265 0.41814 0.79194 0.0
H1460 H 0.22794 0.4318 0.81923 0.0
H1461 H 0.3109 0.35255 0.82072 0.0
H1462 H 0.30344 0.35872 0.7929 0.0
H1463 H 0.31806 0.38158 0.80927 0.0
H1464 H 0.28881 0.38607 0.7326 0.0
H1465 H 0.33044 0.43761 0.76934 0.0
H1466 H 0.24305 0.38018 0.77383 0.0
H1467 H 0.26304 0.3573 0.7747 0.0
H1468 H 0.25531 0.36762 0.74821 0.0
H1469 H 0.29179 0.44084 0.81877 0.0
H1470 H 0.31827 0.45213 0.80578 0.0
H1471 H 0.31665 0.42403 0.81974 0.0
C1472 C 0.3507 0.70664 0.31334 0.0
C1473 C 0.353 0.695 0.33331 0.0
C1474 C 0.33389 0.69908 0.29858 0.0
C1475 C 0.3184 0.67965 0.30411 0.0
C1476 C 0.32063 0.6677 0.32431 0.0
C1477 C 0.33813 0.67536 0.33861 0.0
C1478 C 0.33269 0.71204 0.27706 0.0
C1479 C 0.30417 0.64732 0.33106 0.0
C1480 C 0.26549 0.68014 0.27035 0.0
C1481 C 0.27086 0.66412 0.25257 0.0
C1482 C 0.27993 0.68398 0.28829 0.0
C1483 C 0.30043 0.67183 0.28822 0.0
C1484 C 0.30517 0.65462 0.27091 0.0
C1485 C 0.29027 0.65086 0.25344 0.0
C1486 C 0.27392 0.70216 0.30658 0.0
C1487 C 0.32691 0.64155 0.26981 0.0
H1488 H 0.36214 0.72191 0.30926 0.0
H1489 H 0.33962 0.66665 0.35425 0.0
H1490 H 0.33397 0.69904 0.26266 0.0
H1491 H 0.31614 0.72038 0.27653 0.0
H1492 H 0.34639 0.72637 0.27501 0.0
H1493 H 0.30836 0.63963 0.34705 0.0
H1494 H 0.28677 0.65387 0.33285 0.0
H1495 H 0.30401 0.63278 0.31793 0.0
H1496 H 0.25054 0.69045 0.26978 0.0
H1497 H 0.29456 0.63844 0.23976 0.0
H1498 H 0.28486 0.71885 0.30451 0.0
H1499 H 0.27699 0.69516 0.32315 0.0
H1500 H 0.25594 0.70691 0.30632 0.0
H1501 H 0.3414 0.6545 0.26597 0.0
H1502 H 0.32691 0.62684 0.25679 0.0
H1503 H 0.32979 0.63383 0.2861 0.0
C1504 C 0.76204 0.40547 0.35452 0.0
C1505 C 0.74559 0.38896 0.34602 0.0
C1506 C 0.78033 0.41435 0.34081 0.0
C1507 C 0.78258 0.4058 0.31835 0.0
C1508 C 0.76542 0.39 0.30948 0.0
C1509 C 0.74696 0.3821 0.32333 0.0
C1510 C 0.79779 0.43193 0.35063 0.0
C1511 C 0.76733 0.38002 0.28577 0.0
C1512 C 0.82301 0.43167 0.27328 0.0
C1513 C 0.84065 0.41588 0.27325 0.0
C1514 C 0.80472 0.42986 0.28907 0.0
C1515 C 0.80375 0.41129 0.3046 0.0
C1516 C 0.82209 0.39603 0.30523 0.0
C1517 C 0.84049 0.39877 0.28974 0.0
C1518 C 0.78593 0.44703 0.28837 0.0
C1519 C 0.82156 0.37566 0.32119 0.0
H1520 H 0.76095 0.41092 0.37203 0.0
H1521 H 0.73441 0.36918 0.31669 0.0
H1522 H 0.81342 0.42255 0.35334 0.0
H1523 H 0.80241 0.44663 0.33901 0.0
H1524 H 0.79163 0.43996 0.36686 0.0
H1525 H 0.75212 0.36864 0.2812 0.0
H1526 H 0.76977 0.39487 0.27396 0.0
H1527 H 0.78238 0.36897 0.28357 0.0
H1528 H 0.8232 0.44499 0.26057 0.0
H1529 H 0.85406 0.38645 0.28963 0.0
H1530 H 0.78075 0.4535 0.30546 0.0
H1531 H 0.77088 0.43757 0.28108 0.0
H1532 H 0.79103 0.46282 0.27816 0.0
H1533 H 0.81821 0.38248 0.33854 0.0
H1534 H 0.83769 0.36629 0.32039 0.0
H1535 H 0.80757 0.36233 0.31717 0.0
C1536 C 0.25215 0.66309 0.83358 0.0
C1537 C 0.23153 0.67374 0.83057 0.0
C1538 C 0.27015 0.66396 0.81703 0.0
C1539 C 0.26771 0.67569 0.79672 0.0
C1540 C 0.24688 0.6863 0.79359 0.0
C1541 C 0.22926 0.68519 0.81036 0.0
C1542 C 0.29197 0.6526 0.82142 0.0
C1543 C 0.24321 0.69916 0.7725 0.0
C1544 C 0.31896 0.70178 0.76187 0.0
C1545 C 0.32108 0.68508 0.74377 0.0
C1546 C 0.30245 0.69846 0.77945 0.0
C1547 C 0.28709 0.67796 0.77916 0.0
C1548 C 0.28955 0.66058 0.7613 0.0
C1549 C 0.30651 0.66425 0.74396 0.0
C1550 C 0.30099 0.71746 0.79801 0.0
C1551 C 0.27364 0.6385 0.76004 0.0
H1552 H 0.25433 0.65422 0.84901 0.0
H1553 H 0.21354 0.69342 0.80751 0.0
H1554 H 0.29614 0.63929 0.80785 0.0
H1555 H 0.30608 0.6666 0.82157 0.0
H1556 H 0.29109 0.64345 0.83757 0.0
H1557 H 0.22588 0.70584 0.77219 0.0
H1558 H 0.25565 0.71472 0.77083 0.0
H1559 H 0.24603 0.68688 0.75777 0.0
H1560 H 0.3301 0.71793 0.76215 0.0
H1561 H 0.30772 0.65128 0.73011 0.0
H1562 H 0.30091 0.70907 0.81446 0.0
H1563 H 0.28489 0.72666 0.79733 0.0
H1564 H 0.3153 0.73124 0.79692 0.0
H1565 H 0.27321 0.6289 0.7759 0.0
H1566 H 0.27858 0.62586 0.74613 0.0
H1567 H 0.25619 0.64395 0.75764 0.0
C1568 C 0.82075 0.41798 0.81817 0.0
C1569 C 0.84267 0.4121 0.81076 0.0
C1570 C 0.8032 0.4181 0.8032 0.0
C1571 C 0.80762 0.41172 0.78043 0.0
C1572 C 0.83001 0.4069 0.77276 0.0
C1573 C 0.84728 0.40735 0.788 0.0
C1574 C 0.77969 0.42379 0.81198 0.0
C1575 C 0.83547 0.39969 0.7487 0.0
C1576 C 0.76318 0.378 0.74633 0.0
C1577 C 0.75844 0.39511 0.7309 0.0
C1578 C 0.77821 0.38362 0.7633 0.0
C1579 C 0.78865 0.40707 0.7651 0.0
C1580 C 0.78257 0.42499 0.75069 0.0
C1581 C 0.76753 0.41878 0.73365 0.0
C1582 C 0.78406 0.3639 0.77829 0.0
C1583 C 0.79293 0.45033 0.75242 0.0
H1584 H 0.81714 0.42171 0.83578 0.0
H1585 H 0.86419 0.40272 0.78222 0.0
H1586 H 0.77192 0.43605 0.80078 0.0
H1587 H 0.76876 0.40695 0.81255 0.0
H1588 H 0.77979 0.43221 0.82904 0.0
H1589 H 0.85397 0.39837 0.74507 0.0
H1590 H 0.82686 0.38193 0.74471 0.0
H1591 H 0.82909 0.41286 0.73747 0.0
H1592 H 0.75591 0.35975 0.74454 0.0
H1593 H 0.76386 0.43211 0.72184 0.0
H1594 H 0.78248 0.37004 0.79603 0.0
H1595 H 0.80194 0.35938 0.77468 0.0
H1596 H 0.77303 0.34727 0.77595 0.0
H1597 H 0.79276 0.45698 0.77006 0.0
H1598 H 0.78387 0.46293 0.74257 0.0
H1599 H 0.81088 0.45052 0.74613 0.0
C1600 C 0.34555 0.40955 0.28779 0.0
C1601 C 0.34088 0.41433 0.31056 0.0
C1602 C 0.32822 0.40856 0.27254 0.0
C1603 C 0.30569 0.41285 0.28016 0.0
C1604 C 0.30117 0.41915 0.30295 0.0
C1605 C 0.31878 0.41957 0.31793 0.0
C1606 C 0.33382 0.40139 0.2485 0.0
C1607 C 0.27752 0.42426 0.31172 0.0
C1608 C 0.26454 0.41924 0.2339 0.0
C1609 C 0.25548 0.39552 0.2314 0.0
C1610 C 0.28006 0.4256 0.25052 0.0
C1611 C 0.28672 0.40779 0.26479 0.0
C1612 C 0.2765 0.38422 0.26312 0.0
C1613 C 0.26098 0.37847 0.2466 0.0
C1614 C 0.29014 0.45106 0.2521 0.0
C1615 C 0.28297 0.36459 0.27791 0.0
H1616 H 0.36258 0.40536 0.28202 0.0
H1617 H 0.3151 0.42329 0.33552 0.0
H1618 H 0.32559 0.38343 0.24456 0.0
H1619 H 0.32712 0.41433 0.23724 0.0
H1620 H 0.35236 0.40053 0.24487 0.0
H1621 H 0.27741 0.43245 0.32887 0.0
H1622 H 0.26958 0.43652 0.30064 0.0
H1623 H 0.26686 0.40723 0.31203 0.0
H1624 H 0.26034 0.43253 0.22227 0.0
H1625 H 0.25379 0.36016 0.24504 0.0
H1626 H 0.30813 0.45143 0.24591 0.0
H1627 H 0.28983 0.45783 0.26971 0.0
H1628 H 0.28099 0.46346 0.24213 0.0
H1629 H 0.30097 0.36062 0.27421 0.0
H1630 H 0.27235 0.34767 0.2755 0.0
H1631 H 0.28131 0.37055 0.29569 0.0
C1632 C 0.74729 0.68869 0.32716 0.0
C1633 C 0.72717 0.6741 0.32582 0.0
C1634 C 0.76371 0.68976 0.30927 0.0
C1635 C 0.76008 0.67603 0.28924 0.0
C1636 C 0.73995 0.66099 0.28792 0.0
C1637 C 0.72391 0.66009 0.30617 0.0
C1638 C 0.7848 0.70601 0.31172 0.0
C1639 C 0.735 0.64634 0.26691 0.0
C1640 C 0.78948 0.70071 0.23596 0.0
C1641 C 0.80786 0.68588 0.23189 0.0
C1642 C 0.77377 0.69734 0.25412 0.0
C1643 C 0.77643 0.67886 0.26919 0.0
C1644 C 0.79483 0.6636 0.26514 0.0
C1645 C 0.81018 0.66713 0.24647 0.0
C1646 C 0.75435 0.71384 0.25726 0.0
C1647 C 0.79862 0.6439 0.28085 0.0
H1648 H 0.75032 0.69927 0.34232 0.0
H1649 H 0.7085 0.64876 0.30484 0.0
H1650 H 0.80013 0.69602 0.30697 0.0
H1651 H 0.78453 0.72119 0.30032 0.0
H1652 H 0.7863 0.71355 0.329 0.0
H1653 H 0.71924 0.63464 0.26881 0.0
H1654 H 0.73319 0.65857 0.25303 0.0
H1655 H 0.74932 0.63489 0.2621 0.0
H1656 H 0.78727 0.71516 0.22482 0.0
H1657 H 0.82432 0.65565 0.24367 0.0
H1658 H 0.75574 0.72438 0.27321 0.0
H1659 H 0.73797 0.70313 0.25821 0.0
H1660 H 0.75398 0.72659 0.24352 0.0
H1661 H 0.80156 0.65186 0.29774 0.0
H1662 H 0.81333 0.63326 0.27531 0.0
H1663 H 0.78328 0.63155 0.2823 0.0
C1664 C 0.29893 0.73259 0.65821 0.0
C1665 C 0.31997 0.7289 0.64751 0.0
C1666 C 0.286 0.75128 0.65198 0.0
C1667 C 0.29412 0.7658 0.6341 0.0
C1668 C 0.314 0.76003 0.6215 0.0
C1669 C 0.3271 0.74193 0.62875 0.0
C1670 C 0.26499 0.75703 0.66605 0.0
C1671 C 0.32238 0.77413 0.6015 0.0
C1672 C 0.25181 0.81184 0.62432 0.0
C1673 C 0.2599 0.83083 0.63821 0.0
C1674 C 0.26418 0.7912 0.62061 0.0
C1675 C 0.28441 0.78941 0.6319 0.0
C1676 C 0.29348 0.80944 0.64443 0.0
C1677 C 0.28123 0.83016 0.64707 0.0
C1678 C 0.25471 0.77077 0.60605 0.0
C1679 C 0.31491 0.8082 0.65696 0.0
H1680 H 0.29353 0.7223 0.67268 0.0
H1681 H 0.34328 0.73858 0.62026 0.0
H1682 H 0.26794 0.77455 0.67519 0.0
H1683 H 0.25046 0.75874 0.65538 0.0
H1684 H 0.26027 0.74305 0.67841 0.0
H1685 H 0.33375 0.76348 0.5902 0.0
H1686 H 0.30803 0.77967 0.59201 0.0
H1687 H 0.33212 0.79067 0.60711 0.0
H1688 H 0.2354 0.81265 0.61718 0.0
H1689 H 0.28747 0.84499 0.65772 0.0
H1690 H 0.24438 0.75791 0.61652 0.0
H1691 H 0.26846 0.76084 0.59727 0.0
H1692 H 0.24359 0.77741 0.59352 0.0
H1693 H 0.31225 0.79459 0.67 0.0
H1694 H 0.32009 0.82575 0.66514 0.0
H1695 H 0.32905 0.80253 0.64554 0.0
C1696 C 0.33258 0.3467 0.37875 0.0
C1697 C 0.35284 0.34097 0.38845 0.0
C1698 C 0.31369 0.32994 0.37664 0.0
C1699 C 0.31424 0.30625 0.38454 0.0
C1700 C 0.33453 0.30026 0.39454 0.0
C1701 C 0.35341 0.31744 0.39627 0.0
C1702 C 0.2931 0.33764 0.36547 0.0
C1703 C 0.33638 0.27549 0.40333 0.0
C1704 C 0.25585 0.26956 0.3918 0.0
C1705 C 0.2547 0.25565 0.37174 0.0
C1706 C 0.27516 0.28535 0.39654 0.0
C1707 C 0.29418 0.28769 0.38099 0.0
C1708 C 0.29325 0.2732 0.36105 0.0
C1709 C 0.27393 0.25766 0.35679 0.0
C1710 C 0.27497 0.30007 0.41809 0.0
C1711 C 0.31253 0.27459 0.34365 0.0
H1712 H 0.33142 0.36453 0.37242 0.0
H1713 H 0.36863 0.31238 0.40382 0.0
H1714 H 0.29024 0.32619 0.35025 0.0
H1715 H 0.27781 0.33515 0.37676 0.0
H1716 H 0.29484 0.35676 0.36068 0.0
H1717 H 0.3525 0.27376 0.41172 0.0
H1718 H 0.32197 0.27128 0.41532 0.0
H1719 H 0.33538 0.26186 0.38941 0.0
H1720 H 0.24142 0.26861 0.40361 0.0
H1721 H 0.27382 0.24723 0.34121 0.0
H1722 H 0.27463 0.31945 0.41452 0.0
H1723 H 0.29068 0.29768 0.42693 0.0
H1724 H 0.26008 0.2951 0.42929 0.0
H1725 H 0.31418 0.29291 0.33688 0.0
H1726 H 0.31003 0.26133 0.32959 0.0
H1727 H 0.32876 0.27138 0.35123 0.0
C1728 C 0.26716 0.81091 0.42135 0.0
C1729 C 0.25021 0.80508 0.40593 0.0
C1730 C 0.28689 0.79708 0.42259 0.0
C1731 C 0.29083 0.77691 0.40768 0.0
C1732 C 0.27393 0.77127 0.39188 0.0
C1733 C 0.25413 0.78489 0.39145 0.0
C1734 C 0.30358 0.80406 0.44016 0.0
C1735 C 0.27694 0.75088 0.37493 0.0
C1736 C 0.35299 0.7567 0.39572 0.0
C1737 C 0.35401 0.73488 0.40699 0.0
C1738 C 0.33299 0.77003 0.39568 0.0
C1739 C 0.31276 0.76244 0.40788 0.0
C1740 C 0.31368 0.74066 0.41969 0.0
C1741 C 0.33383 0.72719 0.41887 0.0
C1742 C 0.33352 0.7923 0.38209 0.0
C1743 C 0.29324 0.73154 0.43344 0.0
H1744 H 0.26486 0.82616 0.43281 0.0
H1745 H 0.24172 0.77986 0.3792 0.0
H1746 H 0.30655 0.78822 0.45009 0.0
H1747 H 0.3201 0.81006 0.43212 0.0
H1748 H 0.29764 0.81877 0.45162 0.0
H1749 H 0.26286 0.74889 0.36331 0.0
H1750 H 0.29312 0.75396 0.36504 0.0
H1751 H 0.27795 0.7337 0.38349 0.0
H1752 H 0.36799 0.76342 0.38637 0.0
H1753 H 0.33379 0.71068 0.42785 0.0
H1754 H 0.33032 0.80827 0.39314 0.0
H1755 H 0.31985 0.79061 0.37003 0.0
H1756 H 0.35 0.79554 0.37273 0.0
H1757 H 0.28753 0.74596 0.44534 0.0
H1758 H 0.29673 0.71553 0.44293 0.0
H1759 H 0.27905 0.72666 0.42245 0.0
C1760 C 0.77023 0.76521 0.35847 0.0
C1761 C 0.75184 0.76225 0.37426 0.0
C1762 C 0.79021 0.77945 0.36293 0.0
C1763 C 0.79261 0.79158 0.38392 0.0
C1764 C 0.77442 0.78833 0.40026 0.0
C1765 C 0.75441 0.77381 0.39531 0.0
C1766 C 0.8086 0.78202 0.3447 0.0
C1767 C 0.77593 0.80062 0.42294 0.0
C1768 C 0.85366 0.81716 0.39683 0.0
C1769 C 0.85338 0.84136 0.39078 0.0
C1770 C 0.83403 0.80105 0.39549 0.0
C1771 C 0.81331 0.80894 0.38778 0.0
C1772 C 0.81299 0.83337 0.38192 0.0
C1773 C 0.83264 0.84901 0.38356 0.0
C1774 C 0.83558 0.77533 0.40196 0.0
C1775 C 0.79188 0.84303 0.37324 0.0
H1776 H 0.76903 0.75647 0.34212 0.0
H1777 H 0.74067 0.77189 0.40781 0.0
H1778 H 0.81051 0.80101 0.33963 0.0
H1779 H 0.8251 0.77734 0.35089 0.0
H1780 H 0.80494 0.77039 0.32973 0.0
H1781 H 0.76147 0.79505 0.43444 0.0
H1782 H 0.79199 0.7965 0.43045 0.0
H1783 H 0.77618 0.82041 0.4213 0.0
H1784 H 0.86929 0.81069 0.40241 0.0
H1785 H 0.83171 0.86746 0.37873 0.0
H1786 H 0.83383 0.76316 0.38702 0.0
H1787 H 0.8215 0.77026 0.41404 0.0
H1788 H 0.85194 0.77229 0.40944 0.0
H1789 H 0.78774 0.83349 0.35729 0.0
H1790 H 0.79382 0.86265 0.37035 0.0
H1791 H 0.77726 0.83967 0.3852 0.0
C1792 C 0.75835 0.287 0.38515 0.0
C1793 C 0.75283 0.30543 0.40115 0.0
C1794 C 0.77776 0.27289 0.38627 0.0
C1795 C 0.79286 0.27644 0.40402 0.0
C1796 C 0.78737 0.29483 0.42039 0.0
C1797 C 0.76787 0.30896 0.41873 0.0
C1798 C 0.78229 0.2542 0.36799 0.0
C1799 C 0.80226 0.29972 0.43985 0.0
C1800 C 0.83433 0.22505 0.41463 0.0
C1801 C 0.85531 0.2333 0.40454 0.0
C1802 C 0.81437 0.23878 0.415 0.0
C1803 C 0.81455 0.26164 0.4048 0.0
C1804 C 0.83566 0.26992 0.39455 0.0
C1805 C 0.85533 0.25606 0.3947 0.0
C1806 C 0.79285 0.22867 0.42638 0.0
C1807 C 0.83749 0.29357 0.38298 0.0
H1808 H 0.74748 0.28362 0.37126 0.0
H1809 H 0.76441 0.32283 0.43137 0.0
H1810 H 0.79903 0.25841 0.35948 0.0
H1811 H 0.78298 0.23622 0.3752 0.0
H1812 H 0.76914 0.2532 0.35536 0.0
H1813 H 0.79552 0.31354 0.45182 0.0
H1814 H 0.80394 0.28286 0.44877 0.0
H1815 H 0.81952 0.30597 0.43376 0.0
H1816 H 0.83344 0.20774 0.42237 0.0
H1817 H 0.87093 0.26317 0.38664 0.0
H1818 H 0.77958 0.22544 0.41403 0.0
H1819 H 0.78644 0.24189 0.43912 0.0
H1820 H 0.79532 0.2115 0.43454 0.0
H1821 H 0.82541 0.29308 0.3694 0.0
H1822 H 0.85484 0.29782 0.37577 0.0
H1823 H 0.83281 0.30837 0.39491 0.0
C1824 C 0.82315 0.25723 0.67277 0.0
C1825 C 0.84422 0.2503 0.66415 0.0
C1826 C 0.81493 0.27916 0.6674 0.0
C1827 C 0.82785 0.29412 0.6524 0.0
C1828 C 0.84938 0.28734 0.64386 0.0
C1829 C 0.85752 0.26547 0.65013 0.0
C1830 C 0.79215 0.28602 0.67749 0.0
C1831 C 0.86332 0.30251 0.62741 0.0
C1832 C 0.78504 0.33147 0.629 0.0
C1833 C 0.78578 0.35112 0.64416 0.0
C1834 C 0.80125 0.3141 0.62914 0.0
C1835 C 0.81784 0.31622 0.6454 0.0
C1836 C 0.82025 0.33755 0.65882 0.0
C1837 C 0.80423 0.35501 0.65783 0.0
C1838 C 0.7988 0.29206 0.61387 0.0
C1839 C 0.83766 0.34048 0.6764 0.0
H1840 H 0.81309 0.24545 0.68383 0.0
H1841 H 0.87381 0.25983 0.64344 0.0
H1842 H 0.79356 0.30432 0.68546 0.0
H1843 H 0.77978 0.28635 0.66423 0.0
H1844 H 0.78526 0.27325 0.69021 0.0
H1845 H 0.88118 0.29726 0.62576 0.0
H1846 H 0.85589 0.30013 0.61082 0.0
H1847 H 0.8631 0.32191 0.6323 0.0
H1848 H 0.77094 0.32879 0.61814 0.0
H1849 H 0.80485 0.37041 0.66944 0.0
H1850 H 0.78983 0.27722 0.62314 0.0
H1851 H 0.81565 0.28594 0.60795 0.0
H1852 H 0.78888 0.29553 0.59921 0.0
H1853 H 0.83152 0.33012 0.69113 0.0
H1854 H 0.84057 0.35964 0.6819 0.0
H1855 H 0.85403 0.33336 0.67024 0.0
C1856 C 0.32678 0.30986 0.69755 0.0
C1857 C 0.34187 0.32557 0.68581 0.0
C1858 C 0.31849 0.28826 0.68761 0.0
C1859 C 0.32589 0.28192 0.6655 0.0
C1860 C 0.34163 0.29739 0.6537 0.0
C1861 C 0.34924 0.31929 0.66394 0.0
C1862 C 0.3015 0.2724 0.70077 0.0
C1863 C 0.35024 0.29095 0.63031 0.0
C1864 C 0.31217 0.21577 0.65823 0.0
C1865 C 0.29015 0.21595 0.65066 0.0
C1866 C 0.32564 0.23717 0.66027 0.0
C1867 C 0.31654 0.25915 0.65511 0.0
C1868 C 0.29554 0.25893 0.64476 0.0
C1869 C 0.28263 0.23716 0.64243 0.0
C1870 C 0.34835 0.23656 0.67057 0.0
C1871 C 0.2852 0.28196 0.63902 0.0
H1872 H 0.32095 0.3147 0.71442 0.0
H1873 H 0.36102 0.3314 0.65488 0.0
H1874 H 0.28571 0.26931 0.6916 0.0
H1875 H 0.30845 0.25458 0.70294 0.0
H1876 H 0.29704 0.28036 0.71753 0.0
H1877 H 0.36454 0.30334 0.62458 0.0
H1878 H 0.35589 0.27225 0.62929 0.0
H1879 H 0.33635 0.29179 0.61868 0.0
H1880 H 0.31816 0.19925 0.66424 0.0
H1881 H 0.26566 0.23735 0.63642 0.0
H1882 H 0.34643 0.24132 0.68863 0.0
H1883 H 0.3608 0.24983 0.66294 0.0
H1884 H 0.35521 0.21837 0.66869 0.0
H1885 H 0.27797 0.29064 0.6545 0.0
H1886 H 0.27139 0.27856 0.62723 0.0
H1887 H 0.29816 0.29481 0.63161 0.0
C1888 C 0.81786 0.83103 0.70879 0.0
C1889 C 0.83554 0.84415 0.69758 0.0
C1890 C 0.80784 0.80999 0.69921 0.0
C1891 C 0.81584 0.8016 0.67788 0.0
C1892 C 0.83338 0.81503 0.66619 0.0
C1893 C 0.84298 0.83629 0.67616 0.0
C1894 C 0.78898 0.79646 0.7122 0.0
C1895 C 0.84249 0.80653 0.64354 0.0
C1896 C 0.80109 0.73483 0.67097 0.0
C1897 C 0.78017 0.73485 0.66093 0.0
C1898 C 0.81408 0.75637 0.67478 0.0
C1899 C 0.80591 0.77844 0.66846 0.0
C1900 C 0.78592 0.77826 0.65642 0.0
C1901 C 0.77334 0.75646 0.65272 0.0
C1902 C 0.8355 0.75572 0.68737 0.0
C1903 C 0.77661 0.80134 0.64934 0.0
H1904 H 0.81196 0.83709 0.72531 0.0
H1905 H 0.8568 0.84626 0.66753 0.0
H1906 H 0.77376 0.79389 0.70211 0.0
H1907 H 0.79433 0.77833 0.71597 0.0
H1908 H 0.78411 0.80596 0.72816 0.0
H1909 H 0.85472 0.82001 0.63583 0.0
H1910 H 0.85117 0.78956 0.64511 0.0
H1911 H 0.82843 0.80255 0.63219 0.0
H1912 H 0.80668 0.71822 0.67717 0.0
H1913 H 0.75732 0.75669 0.64473 0.0
H1914 H 0.83221 0.76235 0.70481 0.0
H1915 H 0.84916 0.76769 0.67982 0.0
H1916 H 0.84157 0.73721 0.68772 0.0
H1917 H 0.76904 0.81093 0.66417 0.0
H1918 H 0.76332 0.79794 0.637 0.0
H1919 H 0.7903 0.81345 0.64204 0.0
C1920 C 0.6642 0.27901 0.80419 0.0
C1921 C 0.68036 0.26174 0.80584 0.0
C1922 C 0.66573 0.29529 0.7866 0.0
C1923 C 0.68432 0.29497 0.7707 0.0
C1924 C 0.70087 0.27777 0.77263 0.0
C1925 C 0.69846 0.26118 0.78984 0.0
C1926 C 0.64731 0.31273 0.7849 0.0
C1927 C 0.72142 0.27716 0.75673 0.0
C1928 C 0.68137 0.32237 0.7133 0.0
C1929 C 0.69127 0.34557 0.71689 0.0
C1930 C 0.67843 0.30602 0.73076 0.0
C1931 C 0.68655 0.31256 0.75213 0.0
C1932 C 0.69714 0.33584 0.75557 0.0
C1933 C 0.69882 0.35221 0.73813 0.0
C1934 C 0.6664 0.2818 0.72639 0.0
C1935 C 0.70712 0.34334 0.77757 0.0
H1936 H 0.65015 0.27952 0.81644 0.0
H1937 H 0.71116 0.24804 0.79111 0.0
H1938 H 0.6545 0.33148 0.78673 0.0
H1939 H 0.64006 0.31071 0.7682 0.0
H1940 H 0.63341 0.30995 0.79781 0.0
H1941 H 0.73314 0.26326 0.76091 0.0
H1942 H 0.7161 0.27342 0.73945 0.0
H1943 H 0.7308 0.29499 0.75702 0.0
H1944 H 0.67537 0.31723 0.69695 0.0
H1945 H 0.70661 0.37009 0.74094 0.0
H1946 H 0.65193 0.2791 0.73866 0.0
H1947 H 0.67808 0.26725 0.72851 0.0
H1948 H 0.65994 0.27995 0.70933 0.0
H1949 H 0.6936 0.34318 0.79103 0.0
H1950 H 0.7157 0.36161 0.77727 0.0
H1951 H 0.71961 0.33032 0.78187 0.0
C1952 C 0.41305 0.82345 0.80451 0.0
C1953 C 0.39406 0.82241 0.81946 0.0
C1954 C 0.4162 0.80528 0.78767 0.0
C1955 C 0.40015 0.78539 0.78585 0.0
C1956 C 0.3817 0.78365 0.80176 0.0
C1957 C 0.3788 0.80215 0.81813 0.0
C1958 C 0.43607 0.80801 0.77111 0.0
C1959 C 0.36421 0.76284 0.80085 0.0
C1960 C 0.38933 0.75369 0.72943 0.0
C1961 C 0.40049 0.73214 0.73061 0.0
C1962 C 0.38969 0.7713 0.74692 0.0
C1963 C 0.40141 0.76749 0.76639 0.0
C1964 C 0.413 0.74595 0.76762 0.0
C1965 C 0.41246 0.72862 0.74977 0.0
C1966 C 0.37704 0.79384 0.74471 0.0
C1967 C 0.4254 0.74087 0.78812 0.0
H1968 H 0.42483 0.83905 0.80522 0.0
H1969 H 0.36409 0.80104 0.82961 0.0
H1970 H 0.44526 0.79115 0.7695 0.0
H1971 H 0.42985 0.81143 0.75446 0.0
H1972 H 0.44816 0.8231 0.7759 0.0
H1973 H 0.3539 0.76137 0.8167 0.0
H1974 H 0.35264 0.76548 0.78727 0.0
H1975 H 0.37231 0.74554 0.79722 0.0
H1976 H 0.38003 0.75682 0.71482 0.0
H1977 H 0.4211 0.7121 0.75103 0.0
H1978 H 0.38844 0.81003 0.7477 0.0
H1979 H 0.36287 0.79439 0.75748 0.0
H1980 H 0.36998 0.79489 0.728 0.0
H1981 H 0.43766 0.75606 0.79207 0.0
H1982 H 0.43467 0.72405 0.78609 0.0
H1983 H 0.41313 0.73919 0.80261 0.0
C1984 C 0.66655 0.77722 0.30748 0.0
C1985 C 0.68158 0.75871 0.3084 0.0
C1986 C 0.668 0.79324 0.28975 0.0
C1987 C 0.68567 0.79162 0.27298 0.0
C1988 C 0.70114 0.7731 0.27408 0.0
C1989 C 0.69854 0.75655 0.29141 0.0
C1990 C 0.65048 0.81184 0.28889 0.0
C1991 C 0.72066 0.77057 0.25719 0.0
C1992 C 0.68042 0.8198 0.21628 0.0
C1993 C 0.691 0.84276 0.21953 0.0
C1994 C 0.67826 0.80321 0.23355 0.0
C1995 C 0.68775 0.80924 0.2544 0.0
C1996 C 0.69918 0.83218 0.25744 0.0
C1997 C 0.70019 0.84883 0.24019 0.0
C1998 C 0.6658 0.77918 0.22947 0.0
C1999 C 0.71099 0.83886 0.27867 0.0
H2000 H 0.65342 0.779 0.32058 0.0
H2001 H 0.71043 0.74248 0.29214 0.0
H2002 H 0.65869 0.83017 0.2906 0.0
H2003 H 0.64253 0.81044 0.27251 0.0
H2004 H 0.63696 0.80975 0.30228 0.0
H2005 H 0.73547 0.76355 0.26499 0.0
H2006 H 0.71546 0.75744 0.2438 0.0
H2007 H 0.72613 0.78786 0.24948 0.0
H2008 H 0.67345 0.81496 0.20027 0.0
H2009 H 0.70888 0.86634 0.2426 0.0
H2010 H 0.65249 0.77597 0.24285 0.0
H2011 H 0.6778 0.76461 0.22989 0.0
H2012 H 0.65776 0.77797 0.21312 0.0
H2013 H 0.69845 0.83922 0.29299 0.0
H2014 H 0.72033 0.85672 0.27795 0.0
H2015 H 0.72316 0.82506 0.28188 0.0
C2016 C 0.40602 0.31332 0.31423 0.0
C2017 C 0.38824 0.3285 0.31168 0.0
C2018 C 0.40932 0.29321 0.29945 0.0
C2019 C 0.39492 0.28853 0.28133 0.0
C2020 C 0.37731 0.30421 0.27851 0.0
C2021 C 0.37405 0.32364 0.29376 0.0
C2022 C 0.42796 0.2767 0.30345 0.0
C2023 C 0.36185 0.30056 0.25924 0.0
C2024 C 0.41375 0.25129 0.22941 0.0
C2025 C 0.40053 0.22968 0.2317 0.0
C2026 C 0.4126 0.27022 0.24567 0.0
C2027 C 0.39815 0.26753 0.26506 0.0
C2028 C 0.38533 0.24542 0.26784 0.0
C2029 C 0.38655 0.22692 0.25113 0.0
C2030 C 0.42613 0.29356 0.24157 0.0
C2031 C 0.36982 0.24149 0.28822 0.0
H2032 H 0.41695 0.31677 0.32807 0.0
H2033 H 0.36036 0.33533 0.29145 0.0
H2034 H 0.42065 0.25811 0.30572 0.0
H2035 H 0.44 0.27608 0.28872 0.0
H2036 H 0.43751 0.28249 0.31836 0.0
H2037 H 0.34953 0.31487 0.25887 0.0
H2038 H 0.37203 0.30034 0.24323 0.0
H2039 H 0.35227 0.28291 0.26031 0.0
H2040 H 0.4245 0.25379 0.21447 0.0
H2041 H 0.37633 0.21031 0.25322 0.0
H2042 H 0.43653 0.29874 0.25602 0.0
H2043 H 0.41441 0.30817 0.23969 0.0
H2044 H 0.43751 0.29243 0.22635 0.0
H2045 H 0.37903 0.24621 0.30356 0.0
H2046 H 0.36282 0.22259 0.28905 0.0
H2047 H 0.35544 0.25345 0.28806 0.0
C2048 C 0.40844 0.25983 0.79963 0.0
C2049 C 0.41944 0.26644 0.81929 0.0
C2050 C 0.40558 0.27666 0.78318 0.0
C2051 C 0.41461 0.30067 0.78597 0.0
C2052 C 0.42632 0.30727 0.80555 0.0
C2053 C 0.42823 0.29023 0.82212 0.0
C2054 C 0.39232 0.26886 0.76307 0.0
C2055 C 0.43679 0.33238 0.80903 0.0
C2056 C 0.4226 0.33756 0.73318 0.0
C2057 C 0.40426 0.35256 0.73537 0.0
C2058 C 0.42652 0.32112 0.74973 0.0
C2059 C 0.41131 0.31891 0.76866 0.0
C2060 C 0.39258 0.33383 0.77076 0.0
C2061 C 0.38954 0.35069 0.75436 0.0
C2062 C 0.44705 0.30616 0.747 0.0
C2063 C 0.37545 0.33168 0.79013 0.0
H2064 H 0.4014 0.24155 0.79738 0.0
H2065 H 0.43676 0.29548 0.83725 0.0
H2066 H 0.37742 0.28001 0.76229 0.0
H2067 H 0.40294 0.2717 0.74758 0.0
H2068 H 0.38627 0.24961 0.7634 0.0
H2069 H 0.44661 0.33427 0.82435 0.0
H2070 H 0.44822 0.33718 0.7945 0.0
H2071 H 0.42335 0.34554 0.81032 0.0
H2072 H 0.43414 0.33898 0.71866 0.0
H2073 H 0.37521 0.36204 0.75616 0.0
H2074 H 0.44164 0.2868 0.74547 0.0
H2075 H 0.45729 0.30862 0.76199 0.0
H2076 H 0.45796 0.31096 0.73209 0.0
H2077 H 0.368 0.31296 0.7907 0.0
H2078 H 0.36151 0.34411 0.78908 0.0
H2079 H 0.38388 0.33565 0.80604 0.0
C2080 C 0.69306 0.75904 0.80991 0.0
C2081 C 0.69087 0.78402 0.81084 0.0
C2082 C 0.69545 0.74623 0.78933 0.0
C2083 C 0.69561 0.75866 0.76914 0.0
C2084 C 0.69378 0.78395 0.77005 0.0
C2085 C 0.69143 0.79629 0.79084 0.0
C2086 C 0.69758 0.71933 0.78916 0.0
C2087 C 0.694 0.79797 0.74902 0.0
C2088 C 0.71696 0.7271 0.71502 0.0
C2089 C 0.69659 0.71832 0.70599 0.0
C2090 C 0.71702 0.74033 0.73551 0.0
C2091 C 0.69616 0.74502 0.74714 0.0
C2092 C 0.67556 0.73659 0.73774 0.0
C2093 C 0.67604 0.72351 0.71728 0.0
C2094 C 0.73938 0.74935 0.74463 0.0
C2095 C 0.65295 0.74107 0.74948 0.0
H2096 H 0.69289 0.74949 0.8253 0.0
H2097 H 0.68998 0.81564 0.79144 0.0
H2098 H 0.683 0.71011 0.78082 0.0
H2099 H 0.7132 0.71441 0.77948 0.0
H2100 H 0.69811 0.71245 0.80622 0.0
H2101 H 0.69346 0.81767 0.75254 0.0
H2102 H 0.70946 0.79447 0.73847 0.0
H2103 H 0.67919 0.79194 0.7392 0.0
H2104 H 0.73284 0.72367 0.70602 0.0
H2105 H 0.66023 0.7168 0.71034 0.0
H2106 H 0.74027 0.7444 0.76226 0.0
H2107 H 0.7409 0.76929 0.74427 0.0
H2108 H 0.75406 0.74206 0.73486 0.0
H2109 H 0.652 0.73292 0.76608 0.0
H2110 H 0.63847 0.73346 0.73989 0.0
H2111 H 0.6511 0.76069 0.75225 0.0
C2112 C 0.6959 0.26455 0.30755 0.0
C2113 C 0.69547 0.28966 0.30663 0.0
C2114 C 0.6996 0.2501 0.28808 0.0
C2115 C 0.70269 0.26097 0.26709 0.0
C2116 C 0.70272 0.28638 0.26619 0.0
C2117 C 0.69921 0.30038 0.28594 0.0
C2118 C 0.69974 0.22314 0.28989 0.0
C2119 C 0.70583 0.29877 0.24426 0.0
C2120 C 0.72359 0.22441 0.21538 0.0
C2121 C 0.70306 0.21695 0.20591 0.0
C2122 C 0.72389 0.23853 0.23544 0.0
C2123 C 0.70318 0.24571 0.24598 0.0
C2124 C 0.68251 0.23851 0.23615 0.0
C2125 C 0.68273 0.22431 0.21637 0.0
C2126 C 0.74633 0.24579 0.2453 0.0
C2127 C 0.66002 0.24576 0.24657 0.0
H2128 H 0.6934 0.25617 0.32354 0.0
H2129 H 0.69917 0.3198 0.28513 0.0
H2130 H 0.68496 0.21441 0.28153 0.0
H2131 H 0.71523 0.21628 0.28128 0.0
H2132 H 0.69903 0.21762 0.30749 0.0
H2133 H 0.70705 0.3187 0.24649 0.0
H2134 H 0.72137 0.29293 0.235 0.0
H2135 H 0.69129 0.29359 0.23377 0.0
H2136 H 0.73937 0.21937 0.20706 0.0
H2137 H 0.66674 0.21872 0.20918 0.0
H2138 H 0.74624 0.24027 0.26285 0.0
H2139 H 0.74912 0.26567 0.24543 0.0
H2140 H 0.76077 0.23765 0.23583 0.0
H2141 H 0.65765 0.23887 0.26365 0.0
H2142 H 0.64546 0.23882 0.23675 0.0
H2143 H 0.65975 0.26567 0.24803 0.0
C2144 C 0.38987 0.85102 0.2536 0.0
C2145 C 0.40435 0.85292 0.23443 0.0
C2146 C 0.39275 0.83376 0.26968 0.0
C2147 C 0.41116 0.81845 0.26716 0.0
C2148 C 0.42606 0.82053 0.24797 0.0
C2149 C 0.42224 0.83738 0.23168 0.0
C2150 C 0.37589 0.8318 0.2893 0.0
C2151 C 0.44627 0.80517 0.24479 0.0
C2152 C 0.42823 0.78996 0.32076 0.0
C2153 C 0.41902 0.76629 0.31831 0.0
C2154 C 0.42653 0.80682 0.30396 0.0
C2155 C 0.41458 0.80021 0.28452 0.0
C2156 C 0.40514 0.7763 0.2821 0.0
C2157 C 0.40782 0.75963 0.29876 0.0
C2158 C 0.43746 0.83178 0.30708 0.0
C2159 C 0.39152 0.76851 0.26224 0.0
H2160 H 0.37593 0.86284 0.25591 0.0
H2161 H 0.43365 0.83884 0.21706 0.0
H2162 H 0.38455 0.83606 0.30503 0.0
H2163 H 0.36187 0.84414 0.2883 0.0
H2164 H 0.36851 0.81307 0.29021 0.0
H2165 H 0.45677 0.80954 0.2295 0.0
H2166 H 0.45703 0.80773 0.25941 0.0
H2167 H 0.44056 0.78587 0.24371 0.0
H2168 H 0.43694 0.79527 0.33577 0.0
H2169 H 0.40046 0.74145 0.29678 0.0
H2170 H 0.42424 0.84518 0.30864 0.0
H2171 H 0.44861 0.83632 0.29227 0.0
H2172 H 0.44767 0.83357 0.32213 0.0
H2173 H 0.37641 0.77944 0.26195 0.0
H2174 H 0.38574 0.74918 0.26251 0.0
H2175 H 0.40171 0.77167 0.24654 0.0
C2176 C 0.20084 0.95499 0.39301 0.0
C2177 C 0.18434 0.94396 0.40755 0.0
C2178 C 0.20086 0.98003 0.38859 0.0
C2179 C 0.18407 0.99476 0.39894 0.0
C2180 C 0.16733 0.98357 0.41339 0.0
C2181 C 0.16766 0.95871 0.41741 0.0
C2182 C 0.21904 0.9908 0.37297 0.0
C2183 C 0.14904 0.99798 0.42499 0.0
C2184 C 0.19377 0.06372 0.40817 0.0
C2185 C 0.18083 0.07321 0.39186 0.0
C2186 C 0.19552 0.03856 0.41015 0.0
C2187 C 0.1841 1.02189 0.39548 0.0
C2188 C 0.17124 1.03139 0.37875 0.0
C2189 C 0.16977 0.05671 0.37715 0.0
C2190 C 0.20935 1.0298 0.42835 0.0
C2191 C 0.15866 1.01472 0.36267 0.0
H2192 H 0.21385 0.94413 0.38518 0.0
H2193 H 0.15467 0.95085 0.42866 0.0
H2194 H 0.21124 1.00022 0.35958 0.0
H2195 H 0.22972 1.00443 0.3822 0.0
H2196 H 0.2301 0.977 0.36522 0.0
H2197 H 0.13691 0.98668 0.43535 0.0
H2198 H 0.15684 1.01237 0.43587 0.0
H2199 H 0.13946 1.0069 0.41252 0.0
H2200 H 0.20252 0.07607 0.41964 0.0
H2201 H 0.1598 0.0636 0.3644 0.0
H2202 H 0.22211 1.01748 0.42116 0.0
H2203 H 0.19814 1.01943 0.44029 0.0
H2204 H 0.21824 0.04483 0.43765 0.0
H2205 H 0.1704 1.00198 0.35433 0.0
H2206 H 0.15063 1.02465 0.34974 0.0
H2207 H 0.14527 1.00385 0.3719 0.0
C2208 C 0.99699 0.18537 0.4111 0.0
C2209 C 0.98449 0.18915 0.39216 0.0
C2210 C 1.02135 0.18518 0.41017 0.0
C2211 C 1.03442 0.18848 0.38974 0.0
C2212 C 1.02186 0.19203 0.37058 0.0
C2213 C 0.99763 0.19249 0.37204 0.0
C2214 C 1.03319 0.1816 0.43132 0.0
C2215 C 1.03409 0.19527 0.34821 0.0
C2216 C 0.09956 0.20867 0.38783 0.0
C2217 C 0.11076 0.187 0.38372 0.0
C2218 C 0.07529 0.20937 0.39021 0.0
C2219 C 0.06089 0.18797 0.38819 0.0
C2220 C 0.0721 0.16609 0.38398 0.0
C2221 C 0.09635 0.16585 0.382 0.0
C2222 C 0.065 0.23329 0.39493 0.0
C2223 C 0.05834 0.14263 0.38123 0.0
H2224 H 0.98774 0.18283 0.42691 0.0
H2225 H 0.9889 0.19537 0.35702 0.0
H2226 H 1.043 0.16517 0.42951 0.0
H2227 H 1.04546 0.19703 0.4345 0.0
H2228 H 1.02114 0.17986 0.446 0.0
H2229 H 1.02226 0.19741 0.33471 0.0
H2230 H 1.04599 0.21136 0.34894 0.0
H2231 H 1.04432 0.1795 0.34386 0.0
H2232 H 0.10981 0.22534 0.38935 0.0
H2233 H 0.10406 0.14879 0.37877 0.0
H2234 H 0.05377 0.23245 0.41025 0.0
H2235 H 0.05435 0.23745 0.38104 0.0
H2236 H 0.07805 0.24822 0.3971 0.0
H2237 H 1.04735 0.13939 0.39642 0.0
H2238 H 0.06915 0.12706 0.37807 0.0
H2239 H 1.04704 0.14359 0.36712 0.0
C2240 C 0.8985 0.08088 0.40112 0.0
C2241 C 0.91922 0.09411 0.40407 0.0
C2242 C 0.89738 0.05525 0.3978 0.0
C2243 C 0.91745 0.04204 0.397 0.0
C2244 C 0.93838 0.05547 0.3994 0.0
C2245 C 0.93896 0.08086 0.40303 0.0
C2246 C 0.87455 0.04218 0.39563 0.0
C2247 C 0.9604 0.04293 0.39833 0.0
C2248 C 0.91628 0.97367 0.40935 0.0
C2249 C 0.91745 0.96226 0.38798 0.0
C2250 C 0.91581 0.99918 0.41247 0.0
C2251 C 0.9168 1.01439 0.39387 0.0
C2252 C 0.91821 1.00301 0.37227 0.0
C2253 C 0.91833 0.97746 0.36962 0.0
C2254 C 0.91408 1.00989 0.43587 0.0
C2255 C 0.91974 1.01792 0.35176 0.0
H2256 H 0.88301 0.09046 0.40205 0.0
H2257 H 0.95521 0.09044 0.40517 0.0
H2258 H 0.87422 1.03152 0.37967 0.0
H2259 H 0.87151 1.02931 0.40925 0.0
H2260 H 0.86053 0.05468 0.39629 0.0
H2261 H 0.97538 0.05579 0.39956 0.0
H2262 H 0.96045 1.03023 0.41211 0.0
H2263 H 0.96215 0.0322 0.38247 0.0
H2264 H 0.91531 0.96259 0.42384 0.0
H2265 H 0.91916 0.96936 0.35294 0.0
H2266 H 0.89914 1.02111 0.4379 0.0
H2267 H 0.9293 1.02186 0.43903 0.0
H2268 H 0.91255 0.9959 0.44863 0.0
H2269 H 0.90476 1.02902 0.35153 0.0
H2270 H 0.92068 1.00665 0.33612 0.0
H2271 H 0.93497 1.03047 0.35212 0.0
C2272 C 1.01783 0.89623 0.39693 0.0
C2273 C 0.99997 0.87859 0.40019 0.0
C2274 C 1.04108 0.89069 0.39592 0.0
C2275 C 1.04751 0.86681 0.39888 0.0
C2276 C 1.02958 0.8488 0.40209 0.0
C2277 C 1.0063 0.85477 0.40244 0.0
C2278 C 0.0589 0.91069 0.39179 0.0
C2279 C 1.03501 0.82319 0.40586 0.0
C2280 C 0.10838 0.84923 0.37861 0.0
C2281 C 0.12117 0.85266 0.39784 0.0
C2282 C 0.08479 0.85352 0.37875 0.0
C2283 C 0.07281 0.86101 0.39872 0.0
C2284 C 0.08551 0.86401 0.41831 0.0
C2285 C 0.10924 0.86017 0.41759 0.0
C2286 C 0.07278 0.8506 0.35717 0.0
C2287 C 0.07398 0.87143 0.44022 0.0
H2288 H 1.01359 0.91473 0.39518 0.0
H2289 H 0.99305 0.84085 0.40534 0.0
H2290 H 0.06946 0.91351 0.40651 0.0
H2291 H 0.07034 0.90569 0.37738 0.0
H2292 H 0.0514 0.92797 0.38843 0.0
H2293 H 1.01951 0.81115 0.40806 0.0
H2294 H 1.04555 0.81613 0.39158 0.0
H2295 H 1.04507 0.8226 0.42092 0.0
H2296 H 0.11696 0.84368 0.36309 0.0
H2297 H 0.11845 0.86295 0.43269 0.0
H2298 H 0.06601 0.868 0.35305 0.0
H2299 H 0.05813 0.83738 0.35896 0.0
H2300 H 0.08413 0.8445 0.34305 0.0
H2301 H 0.06794 0.88984 0.43925 0.0
H2302 H 0.08546 0.87123 0.4543 0.0
H2303 H 0.0589 0.85918 0.44382 0.0
C2304 C 0.18395 0.09663 0.66561 0.0
C2305 C 0.20603 0.10607 0.66069 0.0
C2306 C 0.17846 0.07181 0.66299 0.0
C2307 C 0.1954 0.05616 0.65505 0.0
C2308 C 0.2172 0.06589 0.64842 0.0
C2309 C 0.22227 0.0907 0.65142 0.0
C2310 C 0.15499 0.06218 0.67019 0.0
C2311 C 0.2356 0.04994 0.63944 0.0
C2312 C 0.1909 0.99198 0.67513 0.0
C2313 C 0.18139 0.97926 0.65699 0.0
C2314 C 0.1956 1.01699 0.67464 0.0
C2315 C 0.19092 1.02955 0.65545 0.0
C2316 C 0.18189 1.0167 0.63686 0.0
C2317 C 0.17713 0.99175 0.63789 0.0
C2318 C 0.20518 1.03005 0.69485 0.0
C2319 C 0.17698 1.02936 0.61599 0.0
H2320 H 0.17134 0.10832 0.67293 0.0
H2321 H 0.23933 0.09794 0.64744 0.0
H2322 H 0.14791 0.04972 0.65715 0.0
H2323 H 0.1559 0.05178 0.68548 0.0
H2324 H 0.14315 0.0768 0.67376 0.0
H2325 H 0.25066 0.06051 0.63256 0.0
H2326 H 0.24105 0.03891 0.65299 0.0
H2327 H 0.22914 0.03735 0.62617 0.0
H2328 H 0.19416 0.9825 0.68997 0.0
H2329 H 0.16988 0.98204 0.62374 0.0
H2330 H 0.19347 0.04383 0.70136 0.0
H2331 H 0.22158 0.03961 0.69019 0.0
H2332 H 0.20792 1.01768 0.70842 0.0
H2333 H 0.16398 0.04269 0.61988 0.0
H2334 H 0.17081 1.01663 0.60265 0.0
H2335 H 0.19249 0.03942 0.60952 0.0
C2336 C 1.00014 0.15935 0.68682 0.0
C2337 C 0.98895 0.16696 0.66854 0.0
C2338 C 1.02358 0.15635 0.68539 0.0
C2339 C 1.03603 0.16087 0.66511 0.0
C2340 C 1.02462 0.16774 0.64637 0.0
C2341 C 1.0012 0.17083 0.64835 0.0
C2342 C 1.03515 0.14925 0.7058 0.0
C2343 C 1.03726 0.17256 0.62442 0.0
C2344 C 0.0977 0.18269 0.66738 0.0
C2345 C 0.109 0.16187 0.66107 0.0
C2346 C 0.07401 0.18242 0.6691 0.0
C2347 C 0.06122 0.16081 0.66413 0.0
C2348 C 0.07252 0.13959 0.65795 0.0
C2349 C 0.09638 0.14033 0.65661 0.0
C2350 C 0.06267 0.20537 0.67603 0.0
C2351 C 0.05941 0.11629 0.65237 0.0
H2352 H 0.99065 0.15625 0.70243 0.0
H2353 H 0.99252 0.17651 0.63414 0.0
H2354 H 1.04562 0.13361 0.70176 0.0
H2355 H 1.04673 0.16435 0.71153 0.0
H2356 H 1.02285 0.14459 0.71973 0.0
H2357 H 1.02565 0.17559 0.61095 0.0
H2358 H 0.04892 0.18874 0.62632 0.0
H2359 H 1.04776 0.15723 0.61926 0.0
H2360 H 0.10743 0.19936 0.67095 0.0
H2361 H 0.10514 0.12424 0.65168 0.0
H2362 H 0.0511 0.20237 0.69087 0.0
H2363 H 0.05224 0.21088 0.66244 0.0
H2364 H 0.0751 0.22043 0.68004 0.0
H2365 H 1.0476 0.11124 0.66654 0.0
H2366 H 0.0707 0.10126 0.6484 0.0
H2367 H 0.04898 0.11864 0.63784 0.0
C2368 C 0.88803 0.08893 0.67779 0.0
C2369 C 0.90752 0.09795 0.66602 0.0
C2370 C 0.88367 0.06388 0.67991 0.0
C2371 C 0.89949 0.04759 0.67057 0.0
C2372 C 0.91906 0.05671 0.65854 0.0
C2373 C 0.92267 0.08163 0.65622 0.0
C2374 C 0.86236 0.05487 0.69247 0.0
C2375 C 0.93674 0.04021 0.64886 0.0
C2376 C 0.90489 0.98781 0.69788 0.0
C2377 C 0.89524 0.97112 0.68248 0.0
C2378 C 0.906 1.01262 0.69433 0.0
C2379 C 0.89688 1.02126 0.67502 0.0
C2380 C 0.88683 1.00457 0.65946 0.0
C2381 C 0.88635 0.97965 0.66325 0.0
C2382 C 0.91744 1.02955 0.71108 0.0
C2383 C 0.87662 1.01307 0.63884 0.0
H2384 H 0.87617 0.10139 0.68525 0.0
H2385 H 0.93788 0.08837 0.64719 0.0
H2386 H 0.85331 0.04058 0.68242 0.0
H2387 H 0.8668 0.04676 0.70814 0.0
H2388 H 0.8507 0.0695 0.6967 0.0
H2389 H 0.9506 0.05006 0.63923 0.0
H2390 H 0.94428 1.03092 0.66249 0.0
H2391 H 0.92886 1.02612 0.63774 0.0
H2392 H 0.91196 0.98144 0.71273 0.0
H2393 H 0.87873 0.96692 0.65135 0.0
H2394 H 0.90559 0.04317 0.71758 0.0
H2395 H 0.93221 0.03939 0.70287 0.0
H2396 H 0.92342 1.01998 0.72538 0.0
H2397 H 0.86409 1.02671 0.6435 0.0
H2398 H 0.86812 0.99807 0.62916 0.0
H2399 H 0.89003 1.02189 0.62793 0.0
C2400 C 0.99121 0.90497 0.66091 0.0
C2401 C 0.97629 0.90731 0.67956 0.0
C2402 C 1.0147 0.90665 0.66313 0.0
C2403 C 1.02341 0.91022 0.68459 0.0
C2404 C 1.00838 0.9131 0.70347 0.0
C2405 C 0.9849 0.91184 0.70068 0.0
C2406 C 1.03018 0.90396 0.64254 0.0
C2407 C 1.01706 0.91654 0.72663 0.0
C2408 C 0.08178 0.8865 0.68867 0.0
C2409 C 0.09565 0.90762 0.687 0.0
C2410 C 0.05812 0.88726 0.68903 0.0
C2411 C 0.04821 0.90964 0.6872 0.0
C2412 C 0.06216 0.93111 0.68611 0.0
C2413 C 0.08579 0.92985 0.68624 0.0
C2414 C 1.04377 0.86403 0.69061 0.0
C2415 C 0.05223 0.95523 0.6838 0.0
H2416 H 0.98449 0.90159 0.64455 0.0
H2417 H 0.97328 0.9135 0.71511 0.0
H2418 H 1.04297 0.9193 0.64175 0.0
H2419 H 1.0395 0.88729 0.64328 0.0
H2420 H 1.02075 0.90308 0.62697 0.0
H2421 H 1.00324 0.91987 0.73938 0.0
H2422 H 1.0256 0.90023 0.73102 0.0
H2423 H 1.02984 0.93187 0.7273 0.0
H2424 H 0.08945 0.86933 0.68942 0.0
H2425 H 0.09656 0.94618 0.6849 0.0
H2426 H 1.03527 0.8601 0.67474 0.0
H2427 H 1.0303 0.86572 0.704 0.0
H2428 H 0.05396 0.84853 0.69404 0.0
H2429 H 1.0442 0.95558 0.66752 0.0
H2430 H 0.06524 0.97036 0.68477 0.0
H2431 H 1.03879 0.95816 0.69698 0.0
C2432 C 0.36824 0.17571 0.09898 0.0
C2433 C 0.38796 0.17379 0.11079 0.0
C2434 C 0.36906 0.17565 0.07525 0.0
C2435 C 0.39 0.17321 0.06282 0.0
C2436 C 0.40971 0.17032 0.07476 0.0
C2437 C 0.40847 0.17086 0.0983 0.0
C2438 C 0.3476 0.17903 0.06349 0.0
C2439 C 0.43238 0.16716 0.06266 0.0
C2440 C 0.39238 0.15394 1.00032 0.0
C2441 C 0.3985 0.17567 0.9898 0.0
C2442 C 0.38913 0.15294 1.02382 0.0
C2443 C 0.39171 0.17422 0.03749 0.0
C2444 C 0.39748 0.19629 1.02686 0.0
C2445 C 0.40092 0.19671 1.00335 0.0
C2446 C 0.38339 0.12891 0.03406 0.0
C2447 C 0.40029 0.21954 0.04041 0.0
H2448 H 0.35235 0.17829 0.10827 0.0
H2449 H 0.42388 0.16923 0.10706 0.0
H2450 H 0.34934 0.19606 0.0544 0.0
H2451 H 0.34467 0.16419 0.05095 0.0
H2452 H 0.33253 0.17964 0.07524 0.0
H2453 H 0.44588 0.1638 0.07419 0.0
H2454 H 0.43109 0.15188 0.05031 0.0
H2455 H 0.43756 0.18355 0.05334 0.0
H2456 H 0.39041 0.13753 0.99016 0.0
H2457 H 0.40549 0.21364 0.99553 0.0
H2458 H 0.36761 0.12973 0.04475 0.0
H2459 H 0.39712 0.12448 0.04491 0.0
H2460 H 0.38111 0.11414 1.02129 0.0
H2461 H 0.38493 0.22218 0.0514 0.0
H2462 H 0.40331 0.23539 1.02977 0.0
H2463 H 0.41479 0.21872 0.05133 0.0
C2464 C 0.93046 0.36754 0.9882 0.0
C2465 C 0.91292 0.37563 0.97599 0.0
C2466 C 0.92927 0.36853 1.01172 0.0
C2467 C 0.91006 0.37781 1.02344 0.0
C2468 C 0.89199 0.38528 1.01114 0.0
C2469 C 0.89366 0.38414 0.98764 0.0
C2470 C 0.94899 0.36045 1.02402 0.0
C2471 C 0.87119 0.39526 1.0228 0.0
C2472 C 0.90119 0.36844 0.08642 0.0
C2473 C 0.91008 0.39042 0.09542 0.0
C2474 C 0.90093 0.36401 0.06308 0.0
C2475 C 0.90986 0.38192 0.04835 0.0
C2476 C 0.91875 0.40411 0.05742 0.0
C2477 C 0.9187 0.40806 0.08065 0.0
C2478 C 0.89119 0.34015 0.05417 0.0
C2479 C 0.92849 0.42377 0.04254 0.0
H2480 H 0.94538 0.36089 0.97935 0.0
H2481 H 0.87999 0.39036 0.97835 0.0
H2482 H 0.95732 0.37616 0.03284 0.0
H2483 H 0.94294 0.34744 0.03682 0.0
H2484 H 0.96182 0.35191 1.01266 0.0
H2485 H 0.85781 0.39831 1.01103 0.0
H2486 H 0.86407 0.3828 0.03564 0.0
H2487 H 0.87587 0.41264 0.03148 0.0
H2488 H 0.89449 0.35467 0.09759 0.0
H2489 H 0.92566 0.42514 0.08724 0.0
H2490 H 0.90437 0.3308 0.04395 0.0
H2491 H 0.87719 0.34309 0.04311 0.0
H2492 H 0.88461 0.32823 0.06769 0.0
H2493 H 0.94273 0.41703 0.0318 0.0
H2494 H 0.93478 0.44001 0.05216 0.0
H2495 H 0.91541 0.42914 0.03136 0.0
C2496 C 0.69282 0.85402 0.99998 0.0
C2497 C 0.69842 0.87287 0.98553 0.0
C2498 C 0.69278 0.85789 1.02332 0.0
C2499 C 0.69795 0.88131 0.0325 0.0
C2500 C 0.70336 0.90043 1.01791 0.0
C2501 C 0.70377 0.89593 0.99466 0.0
C2502 C 0.68738 0.83686 0.03815 0.0
C2503 C 0.70854 0.92574 1.02686 0.0
C2504 C 0.67748 0.8949 0.09287 0.0
C2505 C 0.69745 0.89382 0.10437 0.0
C2506 C 0.67746 0.89128 0.06952 0.0
C2507 C 0.69779 0.88578 0.05733 0.0
C2508 C 0.71798 0.88453 0.06893 0.0
C2509 C 0.71762 0.88886 0.0922 0.0
C2510 C 0.65566 0.89334 0.05787 0.0
C2511 C 0.73991 0.87818 0.05682 0.0
H2512 H 0.68874 0.83614 0.99303 0.0
H2513 H 0.70798 0.91061 0.98359 0.0
H2514 H 0.70161 0.83479 0.04917 0.0
H2515 H 0.67214 0.84023 0.04907 0.0
H2516 H 0.68427 0.8197 1.02847 0.0
H2517 H 0.71181 0.93875 1.01336 0.0
H2518 H 0.69415 0.93173 0.03783 0.0
H2519 H 0.72364 0.9262 0.03714 0.0
H2520 H 0.66184 0.89876 0.10214 0.0
H2521 H 0.73309 0.88766 0.10096 0.0
H2522 H 0.65072 0.87589 0.04946 0.0
H2523 H 0.65812 0.9069 0.04479 0.0
H2524 H 0.64151 0.89858 0.06956 0.0
H2525 H 0.73763 0.86044 0.04792 0.0
H2526 H 0.75401 0.87739 0.06828 0.0
H2527 H 0.74483 0.89165 0.04409 0.0
C2528 C 0.18545 0.63812 0.06595 0.0
C2529 C 0.18404 0.6583 0.08065 0.0
C2530 C 0.185 0.64016 0.04265 0.0
C2531 C 0.1829 0.66298 0.03347 0.0
C2532 C 0.18217 0.68358 0.04814 0.0
C2533 C 0.18283 0.68102 0.07147 0.0
C2534 C 0.18602 0.61765 1.02789 0.0
C2535 C 0.17986 0.70825 0.03925 0.0
C2536 C 0.19527 0.66695 0.97013 0.0
C2537 C 0.17355 0.66282 0.9618 0.0
C2538 C 0.19858 0.66786 0.99335 0.0
C2539 C 0.17974 0.66475 1.00877 0.0
C2540 C 0.15773 0.66159 1.00041 0.0
C2541 C 0.15495 0.66058 0.97722 0.0
C2542 C 0.22235 0.67122 1.00136 0.0
C2543 C 0.13705 0.65839 1.01597 0.0
H2544 H 0.18653 0.62045 0.07268 0.0
H2545 H 0.18165 0.69677 0.08254 0.0
H2546 H 0.16973 0.61426 1.01962 0.0
H2547 H 0.19954 0.62 1.01458 0.0
H2548 H 0.18929 0.60154 0.03736 0.0
H2549 H 0.18144 0.72268 0.05245 0.0
H2550 H 0.19294 0.71191 1.02578 0.0
H2551 H 0.16307 0.70902 0.03191 0.0
H2552 H 0.20981 0.66861 0.9585 0.0
H2553 H 0.13804 0.65752 0.97114 0.0
H2554 H 0.227 0.65451 1.0091 0.0
H2555 H 0.22335 0.68589 1.01434 0.0
H2556 H 0.23498 0.67548 0.98759 0.0
H2557 H 0.1377 0.64134 1.02484 0.0
H2558 H 0.12102 0.65787 1.00703 0.0
H2559 H 0.13675 0.67327 1.02877 0.0
C2560 C 0.39499 0.87757 0.99234 0.0
C2561 C 0.41567 0.88384 0.98098 0.0
C2562 C 0.3926 0.87938 1.01586 0.0
C2563 C 0.41136 0.88752 1.02851 0.0
C2564 C 0.43241 0.89334 1.01708 0.0
C2565 C 0.43427 0.89153 0.99356 0.0
C2566 C 0.36979 0.87316 1.02714 0.0
C2567 C 0.45295 0.90193 1.02969 0.0
C2568 C 0.40246 0.91816 0.08619 0.0
C2569 C 0.40674 0.89992 0.10073 0.0
C2570 C 0.40319 0.91411 0.06287 0.0
C2571 C 0.40875 0.8913 0.05351 0.0
C2572 C 0.4126 0.8726 0.06811 0.0
C2573 C 0.41136 0.87706 0.09148 0.0
C2574 C 0.39852 0.93452 0.04821 0.0
C2575 C 0.41881 0.8481 0.05901 0.0
H2576 H 0.3805 0.87161 0.98281 0.0
H2577 H 0.45033 0.89637 0.98498 0.0
H2578 H 0.37144 0.85953 0.03987 0.0
H2579 H 0.36325 0.88942 0.03594 0.0
H2580 H 0.35715 0.86606 1.01514 0.0
H2581 H 0.4684 0.90437 1.01856 0.0
H2582 H 0.44978 0.91936 0.03854 0.0
H2583 H 0.45622 0.88887 0.0425 0.0
H2584 H 0.39877 0.93587 0.09306 0.0
H2585 H 0.41489 0.86288 0.10247 0.0
H2586 H 0.38513 0.9287 0.03656 0.0
H2587 H 0.41402 0.93966 0.03797 0.0
H2588 H 0.39305 0.95067 0.058 0.0
H2589 H 0.40598 0.84072 0.04736 0.0
H2590 H 0.42017 0.83512 0.07241 0.0
H2591 H 0.43529 0.8497 0.0494 0.0
C2592 C 0.17276 0.39278 0.0933 0.0
C2593 C 0.19291 0.39354 0.10476 0.0
C2594 C 0.17294 0.38953 0.0699 0.0
C2595 C 0.19371 0.3863 0.05761 0.0
C2596 C 0.21409 0.38693 0.06915 0.0
C2597 C 0.21347 0.39082 0.09248 0.0
C2598 C 0.15088 0.38959 0.05832 0.0
C2599 C 0.23655 0.38306 0.0569 0.0
C2600 C 0.19139 0.35508 0.99981 0.0
C2601 C 0.1954 0.37447 0.98565 0.0
C2602 C 0.19101 0.35862 1.02318 0.0
C2603 C 0.19415 0.38221 0.03273 0.0
C2604 C 0.19788 0.40188 1.01843 0.0
C2605 C 0.19873 0.39774 0.99513 0.0
C2606 C 0.18747 0.33706 0.03768 0.0
C2607 C 0.20082 0.42737 1.02776 0.0
H2608 H 0.15681 0.39495 0.10262 0.0
H2609 H 0.22911 0.39112 0.10119 0.0
H2610 H 0.15208 0.40348 0.04549 0.0
H2611 H 0.14743 0.37194 0.0496 0.0
H2612 H 0.13631 0.39321 0.0701 0.0
H2613 H 0.2508 0.38358 0.06831 0.0
H2614 H 0.23584 0.36539 0.04772 0.0
H2615 H 0.24017 0.39709 0.04441 0.0
H2616 H 0.18888 0.33705 0.99258 0.0
H2617 H 0.20169 0.41284 0.98429 0.0
H2618 H 0.17197 0.33877 0.04864 0.0
H2619 H 0.20194 0.33624 0.04866 0.0
H2620 H 0.18581 0.31987 1.02774 0.0
H2621 H 0.18593 0.4317 0.03884 0.0
H2622 H 0.20282 0.44076 1.01447 0.0
H2623 H 0.21594 0.42924 0.03802 0.0
C2624 C 0.68732 0.13666 0.06289 0.0
C2625 C 0.68766 0.15701 0.07748 0.0
C2626 C 0.68619 0.13871 0.03967 0.0
C2627 C 0.68514 0.1617 1.03051 0.0
C2628 C 0.6863 0.18242 0.04505 0.0
C2629 C 0.68763 0.17985 0.06828 0.0
C2630 C 0.68525 0.11608 1.02501 0.0
C2631 C 0.68516 0.20727 0.03616 0.0
C2632 C 0.69495 0.16462 0.96692 0.0
C2633 C 0.67271 0.1619 0.95962 0.0
C2634 C 0.69931 0.16542 0.98989 0.0
C2635 C 0.68102 0.16366 1.00608 0.0
C2636 C 0.65855 0.16198 0.99876 0.0
C2637 C 0.65471 0.16103 0.97578 0.0
C2638 C 0.72353 0.16716 0.99681 0.0
C2639 C 0.63846 0.16028 1.01521 0.0
H2640 H 0.68747 0.11891 0.06967 0.0
H2641 H 0.68778 0.19571 0.0793 0.0
H2642 H 0.66844 0.11374 1.01754 0.0
H2643 H 0.69823 0.11751 1.0111 0.0
H2644 H 0.68803 0.09975 0.03437 0.0
H2645 H 0.68834 0.22163 0.04914 0.0
H2646 H 0.69772 0.20993 1.02203 0.0
H2647 H 0.66813 0.20929 1.02971 0.0
H2648 H 0.70902 0.16521 0.95468 0.0
H2649 H 0.63744 0.15907 0.97046 0.0
H2650 H 0.72751 0.15009 1.00433 0.0
H2651 H 0.72596 0.18176 1.00969 0.0
H2652 H 0.73575 0.1706 0.98252 0.0
H2653 H 0.63844 0.14318 1.0241 0.0
H2654 H 0.62208 0.16091 1.00701 0.0
H2655 H 0.63964 0.17522 1.02792 0.0
C2656 C 0.90368 0.69443 1.0023 0.0
C2657 C 0.90297 0.67308 0.98902 0.0
C2658 C 0.90095 0.69412 1.02588 0.0
C2659 C 0.89782 0.67188 0.03683 0.0
C2660 C 0.8972 0.65027 1.02344 0.0
C2661 C 0.89955 0.65114 0.99989 0.0
C2662 C 0.90139 0.71769 0.03912 0.0
C2663 C 0.89435 0.62609 0.03404 0.0
C2664 C 0.91393 0.67101 0.09822 0.0
C2665 C 0.8928 0.67061 0.11008 0.0
C2666 C 0.91572 0.671 0.07464 0.0
C2667 C 0.89595 0.6712 0.06217 0.0
C2668 C 0.87453 0.67086 0.07406 0.0
C2669 C 0.87321 0.67029 0.09771 0.0
C2670 C 0.93893 0.67085 0.06305 0.0
C2671 C 0.85295 0.67158 0.06181 0.0
H2672 H 0.90618 0.71151 0.99421 0.0
H2673 H 0.89898 0.63449 0.98993 0.0
H2674 H 0.8857 0.7188 0.04992 0.0
H2675 H 0.91588 0.71877 0.05021 0.0
H2676 H 0.90292 0.73346 1.02826 0.0
H2677 H 0.8942 0.61092 1.02149 0.0
H2678 H 0.90835 0.62402 0.04533 0.0
H2679 H 0.87828 0.62488 0.04435 0.0
H2680 H 0.92924 0.6712 0.10744 0.0
H2681 H 0.85679 0.67031 0.10654 0.0
H2682 H 0.94222 0.68743 0.05348 0.0
H2683 H 0.93973 0.65532 0.05097 0.0
H2684 H 0.95261 0.66977 0.07494 0.0
H2685 H 0.85344 0.68806 0.05193 0.0
H2686 H 0.83766 0.67142 0.0733 0.0
H2687 H 0.8514 0.65592 0.04992 0.0
C2688 C 0.08492 0.38445 0.18543 0.0
C2689 C 0.09852 0.40572 0.18353 0.0
C2690 C 0.06123 0.38481 0.18558 0.0
C2691 C 0.05101 0.40693 0.18324 0.0
C2692 C 0.0647 0.42856 0.18181 0.0
C2693 C 0.08836 0.42771 0.1822 0.0
C2694 C 1.04718 0.36143 0.18759 0.0
C2695 C 0.05445 0.45241 0.1789 0.0
C2696 C 0.99375 0.4007 0.15739 0.0
C2697 C 0.97894 0.4034 0.17608 0.0
C2698 C 1.01728 0.40276 0.15942 0.0
C2699 C 1.02615 0.40706 0.18075 0.0
C2700 C 1.01122 0.41023 0.19965 0.0
C2701 C 0.9877 0.40862 0.19704 0.0
C2702 C 1.03263 0.39976 0.13879 0.0
C2703 C 1.02005 0.41441 0.2227 0.0
H2704 H 0.09282 0.36745 0.1866 0.0
H2705 H 0.09893 0.44416 0.18065 0.0
H2706 H 1.03374 0.36319 0.201 0.0
H2707 H 1.03864 0.35704 0.17181 0.0
H2708 H 0.05759 0.34617 0.19126 0.0
H2709 H 0.0673 0.46773 0.17939 0.0
H2710 H 1.04626 0.45211 0.16267 0.0
H2711 H 1.04108 0.45556 0.19211 0.0
H2712 H 0.98691 0.39679 0.14116 0.0
H2713 H 0.97618 0.41057 0.21151 0.0
H2714 H 1.04216 0.38327 0.13982 0.0
H2715 H 1.04525 0.41523 0.1376 0.0
H2716 H 1.02307 0.39835 0.1233 0.0
H2717 H 1.02895 0.39843 0.22733 0.0
H2718 H 1.00627 0.41773 0.23549 0.0
H2719 H 1.03256 0.43 0.22298 0.0
C2720 C 0.10135 0.70781 0.88858 0.0
C2721 C 0.11263 0.68626 0.8839 0.0
C2722 C 0.07705 0.70849 0.89072 0.0
C2723 C 0.0626 0.68723 0.88783 0.0
C2724 C 0.07388 0.66547 0.88301 0.0
C2725 C 0.09819 0.66522 0.88133 0.0
C2726 C 0.06675 0.73228 0.89619 0.0
C2727 C 0.06015 0.64216 0.87928 0.0
C2728 C 0.99841 0.68393 0.91025 0.0
C2729 C 0.98601 0.68871 0.89148 0.0
C2730 C 1.02278 0.68363 0.90942 0.0
C2731 C 1.03606 0.68779 0.88923 0.0
C2732 C 1.02359 0.69233 0.87023 0.0
C2733 C 0.99933 0.69293 0.8716 0.0
C2734 C 1.03444 0.67903 0.93046 0.0
C2735 C 1.03598 0.69648 0.84807 0.0
H2736 H 0.11159 0.7244 0.89076 0.0
H2737 H 0.10592 0.64825 0.87763 0.0
H2738 H 0.05629 0.73709 0.88236 0.0
H2739 H 0.05532 0.73084 0.91134 0.0
H2740 H 0.0798 0.74707 0.89902 0.0
H2741 H 0.07099 0.6267 0.87556 0.0
H2742 H 0.04908 0.63823 0.89427 0.0
H2743 H 0.04894 0.6438 0.86521 0.0
H2744 H 0.98905 0.68069 0.92589 0.0
H2745 H 0.99071 0.6966 0.85671 0.0
H2746 H 1.04676 0.69423 0.93425 0.0
H2747 H 1.04415 0.66258 0.9281 0.0
H2748 H 1.02228 0.67676 0.94499 0.0
H2749 H 1.04785 0.71255 0.84942 0.0
H2750 H 1.02425 0.69917 0.83461 0.0
H2751 H 1.04626 0.68087 0.84324 0.0
C2752 C 0.41463 0.97822 0.87186 0.0
C2753 C 0.41229 0.96305 0.89025 0.0
C2754 C 0.41472 1.00382 0.87436 0.0
C2755 C 0.41208 1.01533 0.89583 0.0
C2756 C 0.40946 1.00014 0.91445 0.0
C2757 C 0.40973 0.97458 0.9115 0.0
C2758 C 0.41795 1.01865 0.85385 0.0
C2759 C 0.40638 1.01094 0.93771 0.0
C2760 C 0.43553 0.08128 0.90605 0.0
C2761 C 0.4163 0.09524 0.90581 0.0
C2762 C 0.43438 0.05585 0.90254 0.0
C2763 C 0.41335 0.04305 0.89889 0.0
C2764 C 0.3938 0.05697 0.8984 0.0
C2765 C 0.3955 0.08263 0.90168 0.0
C2766 C 0.45592 0.04258 0.90294 0.0
C2767 C 0.37088 0.04463 0.89483 0.0
H2768 H 0.4166 0.97006 0.85527 0.0
H2769 H 0.4077 0.96356 0.92601 0.0
H2770 H 0.40353 1.03039 0.85277 0.0
H2771 H 0.43354 1.03058 0.85499 0.0
H2772 H 0.41935 1.0073 0.83829 0.0
H2773 H 0.40339 0.997 0.95041 0.0
H2774 H 0.42167 1.02234 0.94191 0.0
H2775 H 0.39184 1.02276 0.93864 0.0
H2776 H 0.45184 0.09032 0.90911 0.0
H2777 H 0.38037 0.09273 0.90158 0.0
H2778 H 0.45842 1.0318 0.88719 0.0
H2779 H 0.45461 1.02985 0.91675 0.0
H2780 H 0.4711 0.05496 0.90513 0.0
H2781 H 0.37128 0.03393 0.87888 0.0
H2782 H 0.35731 0.05761 0.89454 0.0
H2783 H 0.36653 1.03188 0.90834 0.0
C2784 C 0.10842 0.35989 0.91544 0.0
C2785 C 0.12029 0.35182 0.89585 0.0
C2786 C 0.08463 0.36349 0.91619 0.0
C2787 C 0.07177 0.3597 0.89676 0.0
C2788 C 0.0837 0.35169 0.87693 0.0
C2789 C 0.10734 0.34762 0.87679 0.0
C2790 C 0.0732 0.37148 0.93798 0.0
C2791 C 0.07155 0.34793 0.85549 0.0
C2792 C 1.00524 0.35274 0.90098 0.0
C2793 C 0.99862 0.37636 0.89819 0.0
C2794 C 1.02861 0.34708 0.90067 0.0
C2795 C 1.04636 0.36518 0.89691 0.0
C2796 C 1.03963 0.38884 0.89338 0.0
C2797 C 1.01629 0.39409 0.8944 0.0
C2798 C 1.03434 0.32172 0.90509 0.0
C2799 C 0.05722 0.4089 0.88863 0.0
H2800 H 0.11773 0.36326 0.93042 0.0
H2801 H 0.11586 0.34163 0.86137 0.0
H2802 H 0.06699 0.38976 0.93654 0.0
H2803 H 0.05824 0.35922 0.94199 0.0
H2804 H 0.08479 0.37187 0.95199 0.0
H2805 H 0.08288 0.34159 0.84145 0.0
H2806 H 0.05707 0.33457 0.85769 0.0
H2807 H 0.06452 0.36506 0.85097 0.0
H2808 H 0.99215 0.33877 0.90432 0.0
H2809 H 1.01184 0.41245 0.89223 0.0
H2810 H 1.04454 0.32173 0.92011 0.0
H2811 H 1.04485 0.31434 0.89092 0.0
H2812 H 1.01897 0.30958 0.9077 0.0
H2813 H 0.06783 0.41236 0.90324 0.0
H2814 H 0.0495 0.42591 0.88479 0.0
H2815 H 0.06865 0.40357 0.87432 0.0
C2816 C 0.703 0.9536 0.89238 0.0
C2817 C 0.6852 0.94162 0.9047 0.0
C2818 C 0.70272 0.97869 0.88818 0.0
C2819 C 0.68422 0.99247 0.89636 0.0
C2820 C 0.66611 0.98024 0.90835 0.0
C2821 C 0.66684 0.9554 0.9123 0.0
C2822 C 0.72249 0.99059 0.87529 0.0
C2823 C 0.6459 0.99354 0.91745 0.0
C2824 C 0.69001 0.06146 0.90792 0.0
C2825 C 0.67943 0.07092 0.88993 0.0
C2826 C 0.69231 0.03635 0.90978 0.0
C2827 C 0.68382 1.01967 0.89329 0.0
C2828 C 0.67333 1.02916 0.87493 0.0
C2829 C 0.67131 0.05443 0.87346 0.0
C2830 C 0.70356 1.02764 0.92973 0.0
C2831 C 0.66386 1.0125 0.8569 0.0
H2832 H 0.71735 0.94352 0.88635 0.0
H2833 H 0.65277 0.94676 0.92172 0.0
H2834 H 0.71641 1.00007 0.86101 0.0
H2835 H 0.73125 1.00433 0.88616 0.0
H2836 H 0.73494 0.97746 0.86891 0.0
H2837 H 0.63278 0.98145 0.92576 0.0
H2838 H 0.65145 1.00781 0.9297 0.0
H2839 H 0.63807 1.00251 0.90381 0.0
H2840 H 0.69652 0.07379 0.92077 0.0
H2841 H 0.66321 0.06128 0.8594 0.0
H2842 H 0.71758 1.01605 0.92421 0.0
H2843 H 0.69114 1.0165 0.9399 0.0
H2844 H 0.71045 0.04272 0.94047 0.0
H2845 H 0.67709 1.00056 0.85001 0.0
H2846 H 0.65742 1.02246 0.84307 0.0
H2847 H 0.64977 1.00077 0.86405 0.0
C2848 C 0.99513 0.64951 0.19175 0.0
C2849 C 0.98494 0.66406 0.17703 0.0
C2850 C 1.0186 0.6464 0.19 0.0
C2851 C 1.03206 0.65778 0.17286 0.0
C2852 C 1.02165 0.67192 0.15757 0.0
C2853 C 0.99827 0.67507 0.15998 0.0
C2854 C 1.0291 0.63157 0.20686 0.0
C2855 C 1.03529 0.6841 0.13888 0.0
C2856 C 0.09413 0.67571 0.17975 0.0
C2857 C 0.10498 0.65804 0.16664 0.0
C2858 C 0.07048 0.67513 0.18272 0.0
C2859 C 0.05722 0.65668 0.1719 0.0
C2860 C 0.06811 0.63835 0.15908 0.0
C2861 C 0.09197 0.63911 0.15679 0.0
C2862 C 0.05966 0.69475 0.19689 0.0
C2863 C 0.05456 0.61858 0.14704 0.0
H2864 H 0.98481 0.64091 0.2049 0.0
H2865 H 0.99038 0.68612 0.14841 0.0
H2866 H 1.03919 0.61745 0.1983 0.0
H2867 H 1.04089 0.64325 0.21686 0.0
H2868 H 1.01617 0.6228 0.21838 0.0
H2869 H 1.02439 0.69281 0.12736 0.0
H2870 H 1.04732 0.69806 0.1459 0.0
H2871 H 1.04546 0.67083 0.12917 0.0
H2872 H 0.1042 0.69027 0.18756 0.0
H2873 H 0.10037 0.62548 0.14659 0.0
H2874 H 1.04736 0.68678 0.20944 0.0
H2875 H 0.05013 0.70609 0.18625 0.0
H2876 H 0.07236 0.70654 0.20571 0.0
H2877 H 1.04193 0.60968 0.15871 0.0
H2878 H 0.06548 0.60474 0.13915 0.0
H2879 H 1.04503 0.62643 0.13388 0.0
C2880 C 0.37219 0.98637 0.17692 0.0
C2881 C 0.39222 0.97411 0.17811 0.0
C2882 C 0.37274 1.01156 0.17533 0.0
C2883 C 0.3938 1.02496 0.17503 0.0
C2884 C 0.41407 1.01274 0.17625 0.0
C2885 C 0.41304 0.98752 0.17769 0.0
C2886 C 0.35076 1.02382 0.17382 0.0
C2887 C 0.4369 1.02631 0.17601 0.0
C2888 C 0.40049 0.08624 0.14882 0.0
C2889 C 0.40069 0.10209 0.16755 0.0
C2890 C 0.39749 0.06123 0.15103 0.0
C2891 C 0.39482 0.05166 0.17253 0.0
C2892 C 0.39416 0.0676 0.19152 0.0
C2893 C 0.39699 0.09266 0.1888 0.0
C2894 C 0.39798 0.04501 0.13031 0.0
C2895 C 0.39139 0.05813 0.21474 0.0
H2896 H 0.35598 0.97629 0.17722 0.0
H2897 H 0.42863 0.97835 0.1787 0.0
H2898 H 0.34895 0.03753 0.18758 0.0
H2899 H 0.35085 0.03338 0.15795 0.0
H2900 H 0.33576 1.0109 0.17464 0.0
H2901 H 0.45102 1.01428 0.17776 0.0
H2902 H 0.43986 0.03585 0.16017 0.0
H2903 H 0.43727 0.04016 0.18978 0.0
H2904 H 0.40317 0.09337 0.13231 0.0
H2905 H 0.39724 0.10476 0.20335 0.0
H2906 H 0.38275 0.03243 0.13036 0.0
H2907 H 0.41303 0.03395 0.13002 0.0
H2908 H 0.39865 0.05531 0.1148 0.0
H2909 H 0.37618 0.0456 0.21618 0.0
H2910 H 0.38978 0.07281 0.22767 0.0
H2911 H 0.40627 0.04781 0.21818 0.0
C2912 C 0.68729 0.99026 0.13798 0.0
C2913 C 0.69018 0.97783 0.15746 0.0
C2914 C 0.692 1.01526 0.13709 0.0
C2915 C 0.6995 1.02833 0.15625 0.0
C2916 C 0.70289 1.01581 0.17585 0.0
C2917 C 0.69836 0.9907 0.17617 0.0
C2918 C 0.68854 1.02774 0.11574 0.0
C2919 C 0.71071 1.02907 0.19671 0.0
C2920 C 0.7284 0.09113 0.15228 0.0
C2921 C 0.71074 0.10595 0.15923 0.0
C2922 C 0.72484 0.06593 0.15054 0.0
C2923 C 0.70313 0.05516 0.15605 0.0
C2924 C 0.68499 0.07006 0.16207 0.0
C2925 C 0.68896 0.09522 0.16341 0.0
C2926 C 0.74453 0.05079 0.14354 0.0
C2927 C 0.66156 0.05938 0.16808 0.0
H2928 H 0.68113 0.98046 0.12337 0.0
H2929 H 0.70055 0.98128 0.1913 0.0
H2930 H 0.67485 0.0405 0.11848 0.0
H2931 H 0.70419 0.0384 0.11054 0.0
H2932 H 0.68396 1.01483 0.10193 0.0
H2933 H 0.71299 1.01672 0.21041 0.0
H2934 H 0.727 0.03934 0.19311 0.0
H2935 H 0.69813 0.04227 0.20251 0.0
H2936 H 0.74525 0.09919 0.14883 0.0
H2937 H 0.67514 0.10638 0.16879 0.0
H2938 H 0.73984 0.03799 0.12972 0.0
H2939 H 0.7489 0.03997 0.15768 0.0
H2940 H 0.75983 0.06192 0.13806 0.0
H2941 H 0.65554 0.04705 0.15442 0.0
H2942 H 0.64905 0.07339 0.17143 0.0
H2943 H 0.66213 0.04856 0.18315 0.0
C2944 C 0.19281 0.56363 0.90883 0.0
C2945 C 0.18304 0.57363 0.89065 0.0
C2946 C 0.19425 0.53839 0.91056 0.0
C2947 C 0.18572 0.52218 0.89373 0.0
C2948 C 0.17608 0.53222 0.87516 0.0
C2949 C 0.17488 0.5576 0.87384 0.0
C2950 C 0.20462 0.52904 0.93075 0.0
C2951 C 0.16663 0.51606 0.85676 0.0
C2952 C 0.20295 0.45551 0.89263 0.0
C2953 C 0.18451 0.44389 0.90432 0.0
C2954 C 0.20351 0.48069 0.8887 0.0
C2955 C 0.18524 0.49493 0.89656 0.0
C2956 C 0.16649 0.48309 0.90795 0.0
C2957 C 0.16638 0.45813 0.91162 0.0
C2958 C 0.2239 0.49217 0.87642 0.0
C2959 C 0.14649 0.49694 0.9167 0.0
H2960 H 0.1993 0.57561 0.92194 0.0
H2961 H 0.16737 0.56489 0.85964 0.0
H2962 H 0.19162 0.51819 0.9405 0.0
H2963 H 0.2184 0.51703 0.92549 0.0
H2964 H 0.21163 0.54379 0.94179 0.0
H2965 H 0.16093 0.52641 0.84282 0.0
H2966 H 0.17962 0.5037 0.85013 0.0
H2967 H 0.15202 0.50475 0.86347 0.0
H2968 H 0.21713 0.44505 0.88684 0.0
H2969 H 0.15186 0.44976 0.92058 0.0
H2970 H 0.23268 0.50554 0.88764 0.0
H2971 H 0.2185 0.50201 0.86205 0.0
H2972 H 0.23614 0.47873 0.87025 0.0
H2973 H 0.15209 0.5109 0.92921 0.0
H2974 H 0.13285 0.48514 0.92459 0.0
H2975 H 0.13931 0.50635 0.90295 0.0
C2976 C 0.89847 0.57917 0.90142 0.0
C2977 C 0.91931 0.59219 0.90439 0.0
C2978 C 0.89707 0.55348 0.89817 0.0
C2979 C 0.91696 0.53996 0.89748 0.0
C2980 C 0.938 0.55317 0.89995 0.0
C2981 C 0.93886 0.57861 0.90348 0.0
C2982 C 0.87413 0.54071 0.8959 0.0
C2983 C 0.95986 0.54036 0.89903 0.0
C2984 C 0.91508 0.47131 0.90958 0.0
C2985 C 0.91636 0.45996 0.88817 0.0
C2986 C 0.91478 0.49687 0.91279 0.0
C2987 C 0.91604 0.51223 0.89426 0.0
C2988 C 0.91751 0.50088 0.87263 0.0
C2989 C 0.91749 0.4753 0.86989 0.0
C2990 C 0.91299 0.50748 0.93622 0.0
C2991 C 0.91929 0.51587 0.85218 0.0
H2992 H 0.88311 0.58895 0.90223 0.0
H2993 H 0.95521 0.58797 0.90563 0.0
H2994 H 0.87373 0.53014 0.87989 0.0
H2995 H 0.8709 0.52779 0.90946 0.0
H2996 H 0.86025 0.5534 0.89658 0.0
H2997 H 0.97496 0.55302 0.90043 0.0
H2998 H 0.95963 0.52756 0.91275 0.0
H2999 H 0.96164 0.52969 0.88313 0.0
H3000 H 0.91394 0.46015 0.92401 0.0
H3001 H 0.91839 0.4673 0.85319 0.0
H3002 H 0.89817 0.51886 0.93818 0.0
H3003 H 0.92829 0.51926 0.93952 0.0
H3004 H 0.91122 0.49342 0.94891 0.0
H3005 H 0.90446 0.52718 0.85193 0.0
H3006 H 0.92018 0.50466 0.83651 0.0
H3007 H 0.93465 0.52824 0.85263 0.0
C3008 C 0.18004 0.49136 0.13631 0.0
C3009 C 0.18416 0.47874 0.15538 0.0
C3010 C 0.18435 0.51641 0.13559 0.0
C3011 C 0.19278 0.52926 0.15446 0.0
C3012 C 0.19738 0.51657 0.17361 0.0
C3013 C 0.19314 0.49146 0.17379 0.0
C3014 C 0.17954 0.52917 0.11474 0.0
C3015 C 0.20633 0.52961 0.19412 0.0
C3016 C 0.22224 0.59157 0.15099 0.0
C3017 C 0.20532 0.60634 0.15988 0.0
C3018 C 0.21809 0.56658 0.14811 0.0
C3019 C 0.19652 0.55602 0.15443 0.0
C3020 C 0.17894 0.57101 0.16207 0.0
C3021 C 0.18351 0.59601 0.16458 0.0
C3022 C 0.23717 0.55135 0.13944 0.0
C3023 C 0.15566 0.56051 0.1689 0.0
H3024 H 0.1732 0.48168 0.12194 0.0
H3025 H 0.19629 0.48189 0.1886 0.0
H3026 H 0.16605 0.54199 0.1185 0.0
H3027 H 0.19489 0.53982 0.10873 0.0
H3028 H 0.17403 0.51645 0.10112 0.0
H3029 H 0.20926 0.51713 0.20755 0.0
H3030 H 0.22251 0.53977 0.1898 0.0
H3031 H 0.19411 0.54287 0.20065 0.0
H3032 H 0.23909 0.59944 0.14713 0.0
H3033 H 0.17032 0.6072 0.17152 0.0
H3034 H 0.23138 0.53873 0.1259 0.0
H3035 H 0.24259 0.54035 0.15303 0.0
H3036 H 0.25209 0.56246 0.13302 0.0
H3037 H 0.14905 0.54813 0.15556 0.0
H3038 H 0.14336 0.57465 0.17265 0.0
H3039 H 0.15675 0.54981 0.18398 0.0
C3040 C 0.88375 0.47505 0.16266 0.0
C3041 C 0.89838 0.46695 0.17808 0.0
C3042 C 0.88299 0.49981 0.15874 0.0
C3043 C 0.89768 0.51667 0.17001 0.0
C3044 C 0.91294 0.50836 0.18506 0.0
C3045 C 0.91286 0.48371 0.18913 0.0
C3046 C 0.86616 0.50799 0.14294 0.0
C3047 C 0.92939 0.52552 0.19695 0.0
C3048 C 0.91466 0.57826 0.14752 0.0
C3049 C 0.90313 0.59367 0.16267 0.0
C3050 C 0.9122 0.55314 0.14906 0.0
C3051 C 0.89763 0.543 0.166 0.0
C3052 C 0.88491 0.55838 0.18054 0.0
C3053 C 0.88791 0.58354 0.17879 0.0
C3054 C 0.92628 0.53753 0.13335 0.0
C3055 C 0.8689 0.54829 0.19859 0.0
H3056 H 0.87237 0.46215 0.15428 0.0
H3057 H 0.92429 0.47747 0.20096 0.0
H3058 H 0.85447 0.52033 0.15196 0.0
H3059 H 0.87508 0.51823 0.12936 0.0
H3060 H 0.85597 0.49267 0.13543 0.0
H3061 H 0.94066 0.51606 0.20755 0.0
H3062 H 0.94008 0.53594 0.18462 0.0
H3063 H 0.91996 0.53862 0.20764 0.0
H3064 H 0.92638 0.58583 0.13489 0.0
H3065 H 0.87882 0.59524 0.19047 0.0
H3066 H 0.91549 0.52286 0.12566 0.0
H3067 H 0.93912 0.52897 0.14282 0.0
H3068 H 0.93521 0.54797 0.11986 0.0
H3069 H 0.85769 0.5335 0.19166 0.0
H3070 H 0.85822 0.56225 0.20665 0.0
H3071 H 0.87876 0.54058 0.21157 0.0
C3072 C 0.37618 0.67349 0.60084 0.0
C3073 C 0.39605 0.67397 0.61285 0.0
C3074 C 0.37696 0.6741 0.57718 0.0
C3075 C 0.39812 0.6747 0.56479 0.0
C3076 C 0.41819 0.67471 0.57686 0.0
C3077 C 0.41693 0.67462 0.60048 0.0
C3078 C 0.35506 0.67454 0.56541 0.0
C3079 C 0.44116 0.67483 0.56479 0.0
C3080 C 0.40035 0.65468 0.50231 0.0
C3081 C 0.40324 0.67663 0.49137 0.0
C3082 C 0.39866 0.65379 0.52592 0.0
C3083 C 0.3994 0.67539 0.53935 0.0
C3084 C 0.402 0.69763 0.52833 0.0
C3085 C 0.40408 0.69797 0.50469 0.0
C3086 C 0.39636 0.62959 0.53652 0.0
C3087 C 0.40254 0.7212 0.54157 0.0
H3088 H 0.35993 0.67326 0.61 0.0
H3089 H 0.43248 0.67492 0.60932 0.0
H3090 H 0.35516 0.69094 0.55548 0.0
H3091 H 0.35338 0.6588 0.55362 0.0
H3092 H 0.34002 0.67428 0.57722 0.0
H3093 H 0.45514 0.67394 0.57636 0.0
H3094 H 0.44188 0.6593 0.55269 0.0
H3095 H 0.44405 0.69142 0.55516 0.0
H3096 H 0.3997 0.63803 0.49236 0.0
H3097 H 0.40617 0.71506 0.49659 0.0
H3098 H 0.38052 0.62817 0.54716 0.0
H3099 H 0.41067 0.62771 0.54748 0.0
H3100 H 0.39612 0.61443 0.52396 0.0
H3101 H 0.38708 0.72215 0.55272 0.0
H3102 H 0.40366 0.73697 0.53071 0.0
H3103 H 0.41731 0.72242 0.55232 0.0
C3104 C 0.89506 0.88969 0.48946 0.0
C3105 C 0.91425 0.88066 0.47809 0.0
C3106 C 0.89302 0.89085 0.51296 0.0
C3107 C 0.91067 0.88293 0.52559 0.0
C3108 C 0.92985 0.87326 0.51414 0.0
C3109 C 0.93139 0.87221 0.4906 0.0
C3110 C 0.87225 0.90126 0.5243 0.0
C3111 C 0.94915 0.86472 0.52676 0.0
C3112 C 0.91848 0.91258 0.58325 0.0
C3113 C 0.90921 0.89498 0.59777 0.0
C3114 C 0.91904 0.9088 0.55997 0.0
C3115 C 0.91001 0.88683 0.55056 0.0
C3116 C 0.90046 0.86896 0.56504 0.0
C3117 C 0.90023 0.8732 0.58844 0.0
C3118 C 0.92947 0.92841 0.5454 0.0
C3119 C 0.89052 0.84534 0.55578 0.0
H3120 H 0.88168 0.89618 0.47995 0.0
H3121 H 0.94626 0.86516 0.48198 0.0
H3122 H 0.86459 0.8888 0.53689 0.0
H3123 H 0.87711 0.91843 0.53323 0.0
H3124 H 0.85924 0.90479 0.51229 0.0
H3125 H 0.96209 0.8561 0.51557 0.0
H3126 H 0.95749 0.88021 0.53589 0.0
H3127 H 0.94265 0.85164 0.53932 0.0
H3128 H 0.92554 0.92951 0.59008 0.0
H3129 H 0.89303 0.85946 0.59939 0.0
H3130 H 0.91676 0.93419 0.53402 0.0
H3131 H 0.94375 0.92144 0.53487 0.0
H3132 H 0.93588 0.94442 0.55526 0.0
H3133 H 0.87681 0.84866 0.54452 0.0
H3134 H 0.88352 0.83338 0.56911 0.0
H3135 H 0.90372 0.83584 0.54571 0.0
C3136 C 0.71957 0.39378 0.59116 0.0
C3137 C 0.6995 0.39804 0.60377 0.0
C3138 C 0.71952 0.38976 0.56786 0.0
C3139 C 0.69901 0.39067 0.55671 0.0
C3140 C 0.67882 0.39565 0.56933 0.0
C3141 C 0.67924 0.39891 0.59268 0.0
C3142 C 0.74134 0.38394 0.55525 0.0
C3143 C 0.65669 0.39744 0.55817 0.0
C3144 C 0.70348 0.40027 0.49392 0.0
C3145 C 0.69811 0.37708 0.48511 0.0
C3146 C 0.70348 0.40503 0.51712 0.0
C3147 C 0.69862 0.38601 0.53195 0.0
C3148 C 0.69344 0.36247 0.52306 0.0
C3149 C 0.69294 0.35837 0.4998 0.0
C3150 C 0.70851 0.43048 0.52577 0.0
C3151 C 0.68868 0.34153 0.53814 0.0
H3152 H 0.73526 0.39278 0.5996 0.0
H3153 H 0.66368 0.40227 0.60229 0.0
H3154 H 0.73926 0.36606 0.54655 0.0
H3155 H 0.74558 0.39735 0.54231 0.0
H3156 H 0.7558 0.3837 0.56634 0.0
H3157 H 0.64278 0.40274 0.57013 0.0
H3158 H 0.65874 0.41083 0.54491 0.0
H3159 H 0.65164 0.37986 0.55006 0.0
H3160 H 0.70735 0.41484 0.48264 0.0
H3161 H 0.68889 0.34039 0.49307 0.0
H3162 H 0.72392 0.43132 0.53563 0.0
H3163 H 0.69431 0.43632 0.53707 0.0
H3164 H 0.71118 0.4434 0.51212 0.0
H3165 H 0.70322 0.3398 0.54885 0.0
H3166 H 0.68559 0.32424 0.52865 0.0
H3167 H 0.67361 0.34475 0.54934 0.0
C3168 C 0.19394 0.16306 0.56943 0.0
C3169 C 0.18137 0.18105 0.58037 0.0
C3170 C 0.19427 0.15968 0.54596 0.0
C3171 C 0.18174 0.1746 0.53301 0.0
C3172 C 0.16981 0.19337 0.54394 0.0
C3173 C 0.16979 0.19635 0.56731 0.0
C3174 C 0.2073 0.13949 0.53511 0.0
C3175 C 0.15619 0.20975 0.53102 0.0
C3176 C 0.19074 0.17591 0.4692 0.0
C3177 C 0.17279 0.16039 0.46201 0.0
C3178 C 0.19413 0.18049 0.49217 0.0
C3179 C 0.17925 0.16931 0.50843 0.0
C3180 C 0.16117 0.15364 0.50121 0.0
C3181 C 0.15818 0.14942 0.47827 0.0
C3182 C 0.2136 0.19735 0.49904 0.0
C3183 C 0.14476 0.14135 0.51776 0.0
H3184 H 0.20296 0.15111 0.57923 0.0
H3185 H 0.16009 0.21042 0.57542 0.0
H3186 H 0.19528 0.12545 0.52821 0.0
H3187 H 0.21836 0.14624 0.52099 0.0
H3188 H 0.21795 0.13104 0.54703 0.0
H3189 H 0.14939 0.22469 0.54166 0.0
H3190 H 0.16676 0.21755 0.51706 0.0
H3191 H 0.14175 0.1992 0.52367 0.0
H3192 H 0.20222 0.18441 0.45689 0.0
H3193 H 0.14426 0.13735 0.4731 0.0
H3194 H 0.22466 0.18802 0.50992 0.0
H3195 H 0.20704 0.21293 0.5089 0.0
H3196 H 0.22401 0.20416 0.4845 0.0
H3197 H 0.1541 0.13061 0.52908 0.0
H3198 H 0.1319 0.12923 0.50951 0.0
H3199 H 0.13584 0.15504 0.52821 0.0
C3200 C 0.43512 0.40158 0.58225 0.0
C3201 C 0.41754 0.39345 0.5972 0.0
C3202 C 0.43362 0.39838 0.55903 0.0
C3203 C 0.41393 0.38689 0.55013 0.0
C3204 C 0.39606 0.37855 0.56504 0.0
C3205 C 0.3981 0.38181 0.58837 0.0
C3206 C 0.45322 0.40745 0.544 0.0
C3207 C 0.37469 0.36637 0.55634 0.0
C3208 C 0.40515 0.40203 0.48967 0.0
C3209 C 0.41381 0.38218 0.47768 0.0
C3210 C 0.4041 0.40325 0.51318 0.0
C3211 C 0.41216 0.38428 0.5252 0.0
C3212 C 0.42045 0.36391 0.51314 0.0
C3213 C 0.42108 0.36305 0.48959 0.0
C3214 C 0.39498 0.42526 0.52515 0.0
C3215 C 0.42945 0.34336 0.52511 0.0
H3216 H 0.45032 0.41048 0.58869 0.0
H3217 H 0.38443 0.37542 0.59966 0.0
H3218 H 0.45939 0.3925 0.53301 0.0
H3219 H 0.44754 0.42134 0.53308 0.0
H3220 H 0.46762 0.41539 0.55351 0.0
H3221 H 0.3625 0.36054 0.56997 0.0
H3222 H 0.36633 0.37885 0.5458 0.0
H3223 H 0.37888 0.3504 0.54564 0.0
H3224 H 0.39939 0.41685 0.48064 0.0
H3225 H 0.4278 0.34764 0.48048 0.0
H3226 H 0.40885 0.43546 0.53377 0.0
H3227 H 0.38183 0.41987 0.53807 0.0
H3228 H 0.38753 0.43743 0.5136 0.0
H3229 H 0.44493 0.34975 0.53374 0.0
H3230 H 0.43371 0.32806 0.51355 0.0
H3231 H 0.41681 0.33679 0.53803 0.0
C3232 C 0.2001 0.89761 0.49782 0.0
C3233 C 0.19574 0.87452 0.48829 0.0
C3234 C 0.19892 0.9018 0.52113 0.0
C3235 C 0.19372 0.88235 0.53541 0.0
C3236 C 0.18957 0.85892 0.52583 0.0
C3237 C 0.19038 0.85534 0.50244 0.0
C3238 C 0.20305 0.92714 0.53047 0.0
C3239 C 0.18442 0.83755 0.54031 0.0
C3240 C 0.21141 0.88982 0.59585 0.0
C3241 C 0.19075 0.89395 0.60752 0.0
C3242 C 0.21257 0.88581 0.57253 0.0
C3243 C 0.1927 0.8865 0.56032 0.0
C3244 C 0.17187 0.89111 0.572 0.0
C3245 C 0.1711 0.89447 0.59541 0.0
C3246 C 0.23506 0.88046 0.56097 0.0
C3247 C 0.15035 0.89254 0.55973 0.0
H3248 H 0.20413 0.91256 0.487 0.0
H3249 H 0.18704 0.83744 0.4952 0.0
H3250 H 0.18814 0.93248 0.54105 0.0
H3251 H 0.2178 0.92801 0.54122 0.0
H3252 H 0.20633 0.94039 0.51717 0.0
H3253 H 0.18216 0.82043 0.53037 0.0
H3254 H 0.19837 0.83588 0.55174 0.0
H3255 H 0.16875 0.84021 0.5508 0.0
H3256 H 0.22665 0.88909 0.60505 0.0
H3257 H 0.15508 0.89772 0.60424 0.0
H3258 H 0.23988 0.89425 0.54851 0.0
H3259 H 0.23362 0.86278 0.55183 0.0
H3260 H 0.24885 0.88007 0.57283 0.0
H3261 H 0.15275 0.90637 0.54689 0.0
H3262 H 0.13569 0.89707 0.57108 0.0
H3263 H 0.14623 0.87508 0.55095 0.0
C3264 C 0.69079 0.63864 0.46709 0.0
C3265 C 0.68385 0.65574 0.45261 0.0
C3266 C 0.6914 0.64337 0.49022 0.0
C3267 C 0.68445 0.66569 0.49952 0.0
C3268 C 0.67847 0.68356 0.48488 0.0
C3269 C 0.67841 0.67845 0.46158 0.0
C3270 C 0.69827 0.62381 0.50485 0.0
C3271 C 0.67078 0.70754 0.49392 0.0
C3272 C 0.65795 0.65942 0.55835 0.0
C3273 C 0.67563 0.66765 0.57196 0.0
C3274 C 0.66021 0.6601 0.53496 0.0
C3275 C 0.6809 0.66879 0.5245 0.0
C3276 C 0.69863 0.67793 0.53814 0.0
C3277 C 0.69572 0.67746 0.56168 0.0
C3278 C 0.64063 0.65052 0.52139 0.0
C3279 C 0.72106 0.68712 0.52785 0.0
H3280 H 0.69517 0.62107 0.46034 0.0
H3281 H 0.67283 0.6917 0.4506 0.0
H3282 H 0.7108 0.63117 0.51681 0.0
H3283 H 0.68321 0.61661 0.5147 0.0
H3284 H 0.70571 0.60865 0.49499 0.0
H3285 H 0.66981 0.72063 0.48056 0.0
H3286 H 0.65372 0.70497 0.50231 0.0
H3287 H 0.68241 0.71528 0.50657 0.0
H3288 H 0.64223 0.65206 0.56604 0.0
H3289 H 0.70951 0.68381 0.57198 0.0
H3290 H 0.64518 0.63361 0.51231 0.0
H3291 H 0.63695 0.66362 0.50876 0.0
H3292 H 0.62497 0.64671 0.53191 0.0
H3293 H 0.72999 0.67184 0.5198 0.0
H3294 H 0.73214 0.69613 0.54042 0.0
H3295 H 0.71842 0.69998 0.51469 0.0
C3296 C 0.90817 0.16615 0.59739 0.0
C3297 C 0.88769 0.16935 0.60982 0.0
C3298 C 0.90947 0.16579 0.57386 0.0
C3299 C 0.88987 0.16913 0.56191 0.0
C3300 C 0.86893 0.17177 0.5743 0.0
C3301 C 0.86805 0.17166 0.59801 0.0
C3302 C 0.93212 0.16242 0.56179 0.0
C3303 C 0.84758 0.17562 0.56252 0.0
C3304 C 0.90131 0.19348 0.50286 0.0
C3305 C 0.89869 0.17266 0.48905 0.0
C3306 C 0.89777 0.19271 0.52634 0.0
C3307 C 0.8917 0.17053 0.53663 0.0
C3308 C 0.8889 0.14948 0.52269 0.0
C3309 C 0.89227 0.15083 0.49924 0.0
C3310 C 0.90082 0.21572 0.54021 0.0
C3311 C 0.88281 0.12534 0.53259 0.0
H3312 H 0.92351 0.16426 0.60619 0.0
H3313 H 0.85219 0.17448 0.60729 0.0
H3314 H 0.93066 0.14736 0.54922 0.0
H3315 H 0.9376 0.1789 0.55273 0.0
H3316 H 0.94549 0.1586 0.57331 0.0
H3317 H 0.83247 0.17616 0.57421 0.0
H3318 H 0.84952 0.19284 0.55374 0.0
H3319 H 0.84459 0.16106 0.54972 0.0
H3320 H 0.90612 0.21049 0.49529 0.0
H3321 H 0.89015 0.13459 0.48884 0.0
H3322 H 0.91525 0.21449 0.55115 0.0
H3323 H 0.88547 0.21841 0.55119 0.0
H3324 H 0.90409 0.23172 0.52979 0.0
H3325 H 0.89644 0.12051 0.54338 0.0
H3326 H 0.88037 0.11081 0.51962 0.0
H3327 H 0.86704 0.12623 0.54328 0.0
C3328 C 0.39634 0.58285 0.40254 0.0
C3329 C 0.41722 0.5956 0.40605 0.0
C3330 C 0.39472 0.55719 0.39905 0.0
C3331 C 0.41442 0.54338 0.39869 0.0
C3332 C 0.4355 0.55632 0.40175 0.0
C3333 C 0.43659 0.58174 0.40547 0.0
C3334 C 0.37174 0.54472 0.39614 0.0
C3335 C 0.45719 0.54322 0.40124 0.0
C3336 C 0.41167 0.47456 0.4103 0.0
C3337 C 0.41357 0.46337 0.38885 0.0
C3338 C 0.41138 0.50011 0.41366 0.0
C3339 C 0.41327 0.51565 0.39525 0.0
C3340 C 0.41525 0.50446 0.37358 0.0
C3341 C 0.41523 0.47888 0.37069 0.0
C3342 C 0.40904 0.51052 0.43713 0.0
C3343 C 0.41767 0.51962 0.35325 0.0
H3344 H 0.3811 0.59283 0.40307 0.0
H3345 H 0.45297 0.59086 0.40802 0.0
H3346 H 0.37163 0.5343 0.38004 0.0
H3347 H 0.368 0.53172 0.40954 0.0
H3348 H 0.35803 0.55761 0.39656 0.0
H3349 H 0.47236 0.55567 0.40313 0.0
H3350 H 0.45644 0.53025 0.41485 0.0
H3351 H 0.45926 0.53271 0.38528 0.0
H3352 H 0.41016 0.4633 0.42466 0.0
H3353 H 0.41666 0.47101 0.35395 0.0
H3354 H 0.39439 0.52217 0.43876 0.0
H3355 H 0.42439 0.52201 0.44094 0.0
H3356 H 0.40667 0.49635 0.44968 0.0
H3357 H 0.40307 0.53123 0.35282 0.0
H3358 H 0.41867 0.50853 0.33752 0.0
H3359 H 0.4332 0.5317 0.35407 0.0
C3360 C 0.69944 0.5626 0.39234 0.0
C3361 C 0.67998 0.57137 0.38359 0.0
C3362 C 0.70165 0.53769 0.39536 0.0
C3363 C 0.68416 0.52054 0.38917 0.0
C3364 C 0.66466 0.52927 0.37981 0.0
C3365 C 0.66273 0.55438 0.37734 0.0
C3366 C 0.72255 0.52979 0.40584 0.0
C3367 C 0.64561 0.51202 0.37264 0.0
C3368 C 0.69688 0.4525 0.38465 0.0
C3369 C 0.68723 0.44389 0.40489 0.0
C3370 C 0.69591 0.47715 0.37915 0.0
C3371 C 0.6854 0.49395 0.39432 0.0
C3372 C 0.67612 0.48531 0.41489 0.0
C3373 C 0.67699 0.46074 0.41975 0.0
C3374 C 0.70586 0.48515 0.35692 0.0
C3375 C 0.66518 0.50213 0.43199 0.0
H3376 H 0.71293 0.57536 0.39731 0.0
H3377 H 0.64765 0.56072 0.37045 0.0
H3378 H 0.7177 0.52145 0.42198 0.0
H3379 H 0.73077 0.51593 0.39499 0.0
H3380 H 0.73511 0.54501 0.40887 0.0
H3381 H 0.63253 0.52116 0.36396 0.0
H3382 H 0.65237 0.4976 0.36137 0.0
H3383 H 0.63739 0.50322 0.38742 0.0
H3384 H 0.70477 0.43992 0.37289 0.0
H3385 H 0.66957 0.45471 0.43555 0.0
H3386 H 0.71911 0.49978 0.35938 0.0
H3387 H 0.69247 0.49257 0.3473 0.0
H3388 H 0.71345 0.47019 0.34691 0.0
H3389 H 0.6774 0.51718 0.43648 0.0
H3390 H 0.65925 0.4929 0.44744 0.0
H3391 H 0.65047 0.51012 0.42492 0.0
C3392 C 0.40294 0.5806 0.64873 0.0
C3393 C 0.40118 0.59578 0.66785 0.0
C3394 C 0.39985 0.5555 0.65004 0.0
C3395 C 0.39504 0.5452 0.67103 0.0
C3396 C 0.39241 0.56045 0.69031 0.0
C3397 C 0.39541 0.58558 0.68848 0.0
C3398 C 0.40251 0.53996 0.62903 0.0
C3399 C 0.38731 0.55017 0.713 0.0
C3400 C 0.37207 0.47991 0.67238 0.0
C3401 C 0.39173 0.46766 0.67559 0.0
C3402 C 0.37286 0.5051 0.67095 0.0
C3403 C 0.39379 0.51847 0.67285 0.0
C3404 C 0.4137 0.50623 0.676 0.0
C3405 C 0.41245 0.48102 0.67726 0.0
C3406 C 0.35129 0.51741 0.66738 0.0
C3407 C 0.43636 0.51981 0.67811 0.0
H3408 H 0.40725 0.58833 0.63269 0.0
H3409 H 0.39411 0.59716 0.70335 0.0
H3410 H 0.41746 0.52893 0.62997 0.0
H3411 H 0.38745 0.52735 0.62729 0.0
H3412 H 0.40476 0.55079 0.61385 0.0
H3413 H 0.38447 0.56441 0.72614 0.0
H3414 H 0.37205 0.53766 0.71268 0.0
H3415 H 0.40165 0.53963 0.71759 0.0
H3416 H 0.35597 0.46982 0.67102 0.0
H3417 H 0.42774 0.47181 0.67977 0.0
H3418 H 0.35313 0.52751 0.65178 0.0
H3419 H 0.34797 0.53066 0.68124 0.0
H3420 H 0.33636 0.50446 0.66631 0.0
H3421 H 0.44081 0.52986 0.66278 0.0
H3422 H 0.45019 0.5077 0.68088 0.0
H3423 H 0.43542 0.53323 0.69221 0.0
C3424 C 0.69773 0.49434 0.66412 0.0
C3425 C 0.67571 0.48399 0.66238 0.0
C3426 C 0.70204 0.51946 0.66327 0.0
C3427 C 0.68383 0.53466 0.66117 0.0
C3428 C 0.66158 0.52426 0.65941 0.0
C3429 C 0.65785 0.49912 0.65979 0.0
C3430 C 0.72608 0.52976 0.66481 0.0
C3431 C 0.6416 0.53974 0.65774 0.0
C3432 C 0.69421 0.59873 0.68414 0.0
C3433 C 0.6994 0.61153 0.66475 0.0
C3434 C 0.68815 0.57398 0.68311 0.0
C3435 C 0.6879 0.56147 0.66217 0.0
C3436 C 0.6923 0.5745 0.64243 0.0
C3437 C 0.69776 0.59949 0.64395 0.0
C3438 C 0.68288 0.56107 0.70455 0.0
C3439 C 0.6925 0.56185 0.61978 0.0
H3440 H 0.71163 0.48279 0.66596 0.0
H3441 H 0.64073 0.49132 0.65856 0.0
H3442 H 0.73058 0.54158 0.65062 0.0
H3443 H 0.72763 0.54103 0.68034 0.0
H3444 H 0.7385 0.51552 0.66478 0.0
H3445 H 0.62545 0.52885 0.65583 0.0
H3446 H 0.63988 0.55155 0.67295 0.0
H3447 H 0.64436 0.55163 0.64336 0.0
H3448 H 0.69553 0.60802 0.70025 0.0
H3449 H 0.70213 0.60927 0.62894 0.0
H3450 H 0.69627 0.54841 0.70713 0.0
H3451 H 0.66658 0.55028 0.70365 0.0
H3452 H 0.68181 0.57373 0.71926 0.0
H3453 H 0.7066 0.54945 0.61831 0.0
H3454 H 0.69469 0.57468 0.60603 0.0
H3455 H 0.67653 0.55076 0.6177 0.0
C3456 C 0.49648 0.19346 0.87146 0.0
C3457 C 0.48354 0.19038 0.89174 0.0
C3458 C 0.52067 0.19247 0.8697 0.0
C3459 C 0.53342 0.18871 0.88868 0.0
C3460 C 0.52054 0.18567 0.90927 0.0
C3461 C 0.49621 0.18631 0.9105 0.0
C3462 C 0.53266 0.19537 0.84716 0.0
C3463 C 0.53258 0.18197 0.93028 0.0
C3464 C 0.59497 0.16502 0.8805 0.0
C3465 C 0.60968 0.18597 0.88185 0.0
C3466 C 0.57073 0.16565 0.8827 0.0
C3467 C 0.55987 0.18775 0.88683 0.0
C3468 C 0.57459 0.20895 0.8885 0.0
C3469 C 0.59881 0.20786 0.88585 0.0
C3470 C 0.55663 0.14238 0.88023 0.0
C3471 C 0.56468 0.23308 0.89319 0.0
H3472 H 0.48761 0.19655 0.85658 0.0
H3473 H 0.48711 0.18399 0.92642 0.0
H3474 H 0.54471 0.21136 0.84763 0.0
H3475 H 0.5427 0.17946 0.84282 0.0
H3476 H 0.52069 0.19751 0.83379 0.0
H3477 H 0.52068 0.1805 0.94511 0.0
H3478 H 0.5421 0.16535 0.92842 0.0
H3479 H 0.54511 0.1972 0.93325 0.0
H3480 H 0.60241 0.1478 0.87735 0.0
H3481 H 0.6093 0.22439 0.88709 0.0
H3482 H 0.54514 0.14346 0.86629 0.0
H3483 H 0.54583 0.13936 0.89558 0.0
H3484 H 0.5672 0.12663 0.87697 0.0
H3485 H 0.554 0.23736 0.87937 0.0
H3486 H 0.57796 0.24781 0.8952 0.0
H3487 H 0.55356 0.23251 0.9086 0.0
C3488 C 0.60567 0.835 0.88559 0.0
C3489 C 0.62067 0.84912 0.89903 0.0
C3490 C 0.58178 0.83791 0.88643 0.0
C3491 C 0.57178 0.85556 0.90099 0.0
C3492 C 0.58682 0.87004 0.91447 0.0
C3493 C 0.61068 0.86668 0.91338 0.0
C3494 C 0.56711 0.82171 0.87172 0.0
C3495 C 0.57763 0.88916 0.93031 0.0
C3496 C 0.50985 0.87479 0.892 0.0
C3497 C 0.49643 0.86128 0.90765 0.0
C3498 C 0.53403 0.87322 0.88961 0.0
C3499 C 0.5457 0.85776 0.9031 0.0
C3500 C 0.53215 0.84402 0.91871 0.0
C3501 C 0.50822 0.84593 0.92075 0.0
C3502 C 0.54719 0.88838 0.87268 0.0
C3503 C 0.54299 0.82714 0.93356 0.0
H3504 H 0.61259 0.82137 0.87429 0.0
H3505 H 0.62158 0.878 0.92386 0.0
H3506 H 0.55488 0.81068 0.88218 0.0
H3507 H 0.5571 0.8327 0.86121 0.0
H3508 H 0.5772 0.80945 0.8607 0.0
H3509 H 0.59128 0.89979 0.93891 0.0
H3510 H 0.56775 0.9016 0.92114 0.0
H3511 H 0.5659 0.88067 0.94306 0.0
H3512 H 0.50153 0.88688 0.88174 0.0
H3513 H 0.49865 0.83522 0.933 0.0
H3514 H 0.55674 0.87666 0.86067 0.0
H3515 H 0.5598 0.90059 0.88114 0.0
H3516 H 0.53605 0.89936 0.8633 0.0
H3517 H 0.55229 0.81362 0.92325 0.0
H3518 H 0.53039 0.81752 0.94481 0.0
H3519 H 0.55554 0.83736 0.94388 0.0
C3520 C 0.50039 0.15925 0.18601 0.0
C3521 C 0.48889 0.1667 0.16786 0.0
C3522 C 0.52369 0.15548 0.18404 0.0
C3523 C 0.5357 0.15912 0.16337 0.0
C3524 C 0.52391 0.16565 0.14474 0.0
C3525 C 0.50064 0.16947 0.14724 0.0
C3526 C 0.53564 0.14872 0.20433 0.0
C3527 C 0.53606 0.16958 0.12239 0.0
C3528 C 0.59735 0.18123 0.16429 0.0
C3529 C 0.60871 0.16035 0.15828 0.0
C3530 C 0.57368 0.18087 0.16627 0.0
C3531 C 0.56091 0.1591 0.16194 0.0
C3532 C 0.57225 0.13782 0.15603 0.0
C3533 C 0.59614 0.13867 0.15436 0.0
C3534 C 0.56234 0.20394 0.17283 0.0
C3535 C 0.55915 0.11433 0.15117 0.0
H3536 H 0.49128 0.15695 0.20195 0.0
H3537 H 0.49172 0.17499 0.13312 0.0
H3538 H 0.54613 0.13309 0.20032 0.0
H3539 H 0.54724 0.16397 0.20972 0.0
H3540 H 0.52357 0.14422 0.2185 0.0
H3541 H 0.52411 0.172 0.10906 0.0
H3542 H 0.54771 0.18586 0.12351 0.0
H3543 H 0.54651 0.15412 0.11753 0.0
H3544 H 0.60702 0.19803 0.16746 0.0
H3545 H 0.60492 0.12253 0.14968 0.0
H3546 H 0.55112 0.20133 0.18797 0.0
H3547 H 0.55155 0.20893 0.15932 0.0
H3548 H 0.57477 0.21919 0.17619 0.0
H3549 H 0.54764 0.10959 0.16565 0.0
H3550 H 0.57047 0.0993 0.14732 0.0
H3551 H 0.54841 0.11623 0.13679 0.0
C3552 C 0.59439 0.92232 0.1867 0.0
C3553 C 0.60533 0.90063 0.18515 0.0
C3554 C 0.57073 0.92242 0.18613 0.0
C3555 C 0.55786 0.90028 0.18432 0.0
C3556 C 0.56884 0.8783 0.18355 0.0
C3557 C 0.59252 0.87876 0.18379 0.0
C3558 C 0.55957 0.9462 0.18676 0.0
C3559 C 0.55561 0.85433 0.182 0.0
C3560 C 0.49503 0.89942 0.19999 0.0
C3561 C 0.48572 0.89889 0.17899 0.0
C3562 C 0.51854 0.8998 0.202 0.0
C3563 C 0.53296 0.90005 0.18252 0.0
C3564 C 0.5236 0.89974 0.16126 0.0
C3565 C 0.5 0.89895 0.15975 0.0
C3566 C 0.52793 0.89973 0.22491 0.0
C3567 C 0.53852 0.90028 0.14015 0.0
H3568 H 0.60438 0.93924 0.18764 0.0
H3569 H 0.60104 0.86198 0.18266 0.0
H3570 H 0.55079 0.94807 0.17108 0.0
H3571 H 0.54655 0.94687 0.20065 0.0
H3572 H 0.57196 0.96178 0.18884 0.0
H3573 H 0.56663 0.83891 0.18286 0.0
H3574 H 0.54238 0.85314 0.1957 0.0
H3575 H 0.54685 0.85265 0.16607 0.0
H3576 H 0.48391 0.89927 0.21487 0.0
H3577 H 0.49272 0.89864 0.14352 0.0
H3578 H 0.53938 0.91594 0.22764 0.0
H3579 H 0.53816 0.88379 0.22627 0.0
H3580 H 0.51437 0.8994 0.23836 0.0
H3581 H 0.55044 0.91638 0.14057 0.0
H3582 H 0.52856 0.90061 0.12497 0.0
H3583 H 0.54886 0.88422 0.13886 0.0
C3584 C 0.49762 0.41516 0.672 0.0
C3585 C 0.48499 0.39321 0.67312 0.0
C3586 C 0.52123 0.41608 0.67321 0.0
C3587 C 0.53221 0.39462 0.67643 0.0
C3588 C 0.51939 0.37245 0.67804 0.0
C3589 C 0.49587 0.37195 0.67595 0.0
C3590 C 0.53442 0.43992 0.67065 0.0
C3591 C 0.5305 0.34935 0.68211 0.0
C3592 C 0.59412 0.39219 0.65817 0.0
C3593 C 0.60469 0.39826 0.67809 0.0
C3594 C 0.57049 0.39109 0.65739 0.0
C3595 C 0.55721 0.39532 0.67721 0.0
C3596 C 0.56784 0.40086 0.69754 0.0
C3597 C 0.59159 0.40272 0.69764 0.0
C3598 C 0.55979 0.38593 0.63528 0.0
C3599 C 0.55414 0.40476 0.71909 0.0
H3600 H 0.48906 0.43156 0.66975 0.0
H3601 H 0.48591 0.35504 0.67708 0.0
H3602 H 0.544 0.44453 0.68577 0.0
H3603 H 0.54699 0.43863 0.65639 0.0
H3604 H 0.52329 0.45484 0.66784 0.0
H3605 H 0.51794 0.33393 0.68432 0.0
H3606 H 0.54239 0.34492 0.6679 0.0
H3607 H 0.54058 0.35158 0.69722 0.0
H3608 H 0.60437 0.38894 0.64302 0.0
H3609 H 0.59991 0.40726 0.71304 0.0
H3610 H 0.54919 0.40095 0.63147 0.0
H3611 H 0.54846 0.36939 0.63609 0.0
H3612 H 0.57261 0.38353 0.62136 0.0
H3613 H 0.54394 0.42077 0.71807 0.0
H3614 H 0.565 0.40744 0.73364 0.0
H3615 H 0.54209 0.38906 0.72199 0.0
C3616 C 0.49644 0.69715 0.37123 0.0
C3617 C 0.4835 0.69204 0.39114 0.0
C3618 C 0.52065 0.69664 0.36941 0.0
C3619 C 0.53336 0.69113 0.38794 0.0
C3620 C 0.52049 0.68606 0.40815 0.0
C3621 C 0.49617 0.68645 0.40946 0.0
C3622 C 0.5327 0.70192 0.3473 0.0
C3623 C 0.53252 0.68024 0.42864 0.0
C3624 C 0.59437 0.66722 0.37722 0.0
C3625 C 0.60943 0.68761 0.38067 0.0
C3626 C 0.57022 0.66813 0.37959 0.0
C3627 C 0.55974 0.68997 0.38587 0.0
C3628 C 0.57475 0.71065 0.38955 0.0
C3629 C 0.59897 0.70929 0.38685 0.0
C3630 C 0.55579 0.64543 0.37507 0.0
C3631 C 0.56517 0.73447 0.39643 0.0
H3632 H 0.48756 0.70151 0.35669 0.0
H3633 H 0.48707 0.68252 0.42509 0.0
H3634 H 0.54504 0.7175 0.34928 0.0
H3635 H 0.54242 0.68626 0.34132 0.0
H3636 H 0.5208 0.70594 0.33437 0.0
H3637 H 0.52062 0.67744 0.4433 0.0
H3638 H 0.54196 0.66371 0.42535 0.0
H3639 H 0.54511 0.69505 0.43278 0.0
H3640 H 0.60146 0.65017 0.37238 0.0
H3641 H 0.60973 0.72538 0.38971 0.0
H3642 H 0.54443 0.64822 0.36135 0.0
H3643 H 0.54485 0.64105 0.39004 0.0
H3644 H 0.56611 0.62978 0.37043 0.0
H3645 H 0.5544 0.7403 0.38326 0.0
H3646 H 0.57864 0.74876 0.39946 0.0
H3647 H 0.5542 0.73253 0.41183 0.0
C3648 C 0.60762 0.34041 0.38073 0.0
C3649 C 0.62246 0.35331 0.39522 0.0
C3650 C 0.58371 0.34337 0.38168 0.0
C3651 C 0.57362 0.3601 0.39719 0.0
C3652 C 0.58855 0.37345 0.41161 0.0
C3653 C 0.61234 0.36981 0.41059 0.0
C3654 C 0.5691 0.32816 0.36614 0.0
C3655 C 0.57935 0.39175 0.4283 0.0
C3656 C 0.51194 0.38101 0.38953 0.0
C3657 C 0.49857 0.36756 0.40525 0.0
C3658 C 0.53603 0.37881 0.38662 0.0
C3659 C 0.54755 0.36249 0.39936 0.0
C3660 C 0.53393 0.34846 0.4147 0.0
C3661 C 0.51017 0.35129 0.41752 0.0
C3662 C 0.54931 0.39454 0.37022 0.0
C3663 C 0.54453 0.33043 0.42854 0.0
H3664 H 0.61468 0.3276 0.36866 0.0
H3665 H 0.62314 0.38027 0.42183 0.0
H3666 H 0.55658 0.3168 0.37597 0.0
H3667 H 0.55942 0.33987 0.356 0.0
H3668 H 0.57921 0.31628 0.35474 0.0
H3669 H 0.59299 0.40188 0.43735 0.0
H3670 H 0.56948 0.40473 0.41976 0.0
H3671 H 0.56761 0.38261 0.44065 0.0
H3672 H 0.50376 0.39389 0.38001 0.0
H3673 H 0.50054 0.34056 0.42972 0.0
H3674 H 0.55896 0.38326 0.35792 0.0
H3675 H 0.56184 0.40643 0.37913 0.0
H3676 H 0.53824 0.4059 0.36115 0.0
H3677 H 0.5541 0.3177 0.41756 0.0
H3678 H 0.53173 0.31994 0.43891 0.0
H3679 H 0.55678 0.33986 0.43971 0.0
C3680 C 0.49777 0.63939 0.67536 0.0
C3681 C 0.49031 0.6627 0.67947 0.0
C3682 C 0.52097 0.63538 0.67169 0.0
C3683 C 0.53716 0.65508 0.67271 0.0
C3684 C 0.5297 0.67855 0.67774 0.0
C3685 C 0.50636 0.68211 0.68074 0.0
C3686 C 0.52806 0.6102 0.66584 0.0
C3687 C 0.54635 0.70002 0.67947 0.0
C3688 C 0.60024 0.6459 0.67804 0.0
C3689 C 0.60888 0.65108 0.65654 0.0
C3690 C 0.5768 0.6464 0.6835 0.0
C3691 C 0.5617 0.65161 0.6669 0.0
C3692 C 0.57035 0.6552 0.64481 0.0
C3693 C 0.59382 0.65528 0.64002 0.0
C3694 C 0.56839 0.64291 0.70732 0.0
C3695 C 0.55492 0.66009 0.6264 0.0
H3696 H 0.48539 0.62434 0.67425 0.0
H3697 H 0.50065 0.70012 0.68404 0.0
H3698 H 0.53564 0.60949 0.64858 0.0
H3699 H 0.54124 0.60516 0.67704 0.0
H3700 H 0.51358 0.59664 0.66698 0.0
H3701 H 0.53805 0.71661 0.6855 0.0
H3702 H 0.55977 0.69639 0.69097 0.0
H3703 H 0.55478 0.70335 0.66289 0.0
H3704 H 0.61192 0.64306 0.69093 0.0
H3705 H 0.60051 0.65935 0.62338 0.0
H3706 H 0.55373 0.6296 0.70807 0.0
H3707 H 0.56246 0.66019 0.71462 0.0
H3708 H 0.58181 0.63677 0.71775 0.0
H3709 H 0.54044 0.64654 0.62615 0.0
H3710 H 0.56394 0.65981 0.60975 0.0
H3711 H 0.54785 0.67802 0.62945 0.0
loop_
_geom_bond_atom_site_label_1
_geom_bond_atom_site_label_2
_geom_bond_distance
_geom_bond_site_symmetry_2
_ccdc_geom_bond_type
O0 Tb1 2.506 . S
O0 C14 1.265 . S
Tb1 O0 2.506 . S
Tb1 O6 2.312 . S
Tb1 O10 2.271 . S
Tb1 O12 2.338 . S
Tb1 O19 2.441 . S
C2 O10 1.252 . S
C2 O11 1.253 . S
O3 Tb4 2.271 . S
O3 C13 1.252 . S
Tb4 O3 2.271 . S
Tb4 O7 2.338 . S
Tb4 O11 2.312 . S
Tb4 O15 2.441 . S
Tb4 O16 2.506 . S
C5 O15 1.244 . S
C5 O16 1.265 . S
O6 Tb1 2.312 . S
O6 C13 1.253 . S
O7 Tb4 2.338 . S
O7 C8 1.258 . S
C8 O7 1.258 . S
C8 O9 1.251 . S
O9 C8 1.251 . S
O10 Tb1 2.271 . S
O10 C2 1.252 . S
O11 C2 1.253 . S
O11 Tb4 2.312 . S
O12 Tb1 2.338 . S
O12 C17 1.258 . S
C13 O3 1.252 . S
C13 O6 1.253 . S
C14 O0 1.265 . S
C14 O19 1.244 . S
O15 Tb4 2.441 . S
O15 C5 1.244 . S
O16 Tb4 2.506 . S
O16 C5 1.265 . S
C17 O12 1.258 . S
C17 O18 1.251 . S
O18 C17 1.251 . S
O19 Tb1 2.441 . S
O19 C14 1.244 . S
O20 Tb21 2.506 . S
O20 C34 1.265 . S
Tb21 O20 2.506 . S
Tb21 O26 2.312 . S
Tb21 O30 2.271 . S
Tb21 O32 2.338 . S
Tb21 O39 2.441 . S
C22 O30 1.252 . S
C22 O31 1.253 . S
O23 Tb24 2.271 . S
O23 C33 1.252 . S
Tb24 O23 2.271 . S
Tb24 O27 2.338 . S
Tb24 O31 2.312 . S
Tb24 O35 2.441 . S
Tb24 O36 2.506 . S
C25 O35 1.244 . S
C25 O36 1.265 . S
O26 Tb21 2.312 . S
O26 C33 1.253 . S
O27 Tb24 2.338 . S
O27 C28 1.258 . S
C28 O27 1.258 . S
C28 O29 1.251 . S
O29 C28 1.251 . S
O30 Tb21 2.271 . S
O30 C22 1.252 . S
O31 C22 1.253 . S
O31 Tb24 2.312 . S
O32 Tb21 2.338 . S
O32 C37 1.258 . S
C33 O23 1.252 . S
C33 O26 1.253 . S
C34 O20 1.265 . S
C34 O39 1.244 . S
O35 Tb24 2.441 . S
O35 C25 1.244 . S
O36 Tb24 2.506 . S
O36 C25 1.265 . S
C37 O32 1.258 . S
C37 O38 1.251 . S
O38 C37 1.251 . S
O39 Tb21 2.441 . S
O39 C34 1.244 . S
O40 Tb41 2.506 . S
O40 C54 1.265 . S
Tb41 O40 2.506 . S
Tb41 O46 2.312 . S
Tb41 O50 2.271 . S
Tb41 O52 2.338 . S
Tb41 O59 2.441 . S
C42 O50 1.252 . S
C42 O51 1.253 . S
O43 Tb44 2.271 . S
O43 C53 1.252 . S
Tb44 O43 2.271 . S
Tb44 O47 2.338 . S
Tb44 O51 2.312 . S
Tb44 O55 2.441 . S
Tb44 O56 2.506 . S
C45 O55 1.244 . S
C45 O56 1.265 . S
O46 Tb41 2.312 . S
O46 C53 1.253 . S
O47 Tb44 2.338 . S
O47 C48 1.258 . S
C48 O47 1.258 . S
C48 O49 1.251 . S
O49 C48 1.251 . S
O50 Tb41 2.271 . S
O50 C42 1.252 . S
O51 C42 1.253 . S
O51 Tb44 2.312 . S
O52 Tb41 2.338 . S
O52 C57 1.258 . S
C53 O43 1.252 . S
C53 O46 1.253 . S
C54 O40 1.265 . S
C54 O59 1.244 . S
O55 Tb44 2.441 . S
O55 C45 1.244 . S
O56 Tb44 2.506 . S
O56 C45 1.265 . S
C57 O52 1.258 . S
C57 O58 1.251 . S
O58 C57 1.251 . S
O59 Tb41 2.441 . S
O59 C54 1.244 . S
O60 Tb61 2.506 . S
O60 C74 1.265 . S
Tb61 O60 2.506 . S
Tb61 O66 2.312 . S
Tb61 O70 2.271 . S
Tb61 O72 2.338 . S
Tb61 O79 2.441 . S
C62 O70 1.252 . S
C62 O71 1.253 . S
O63 Tb64 2.271 . S
O63 C73 1.252 . S
Tb64 O63 2.271 . S
Tb64 O67 2.338 . S
Tb64 O71 2.312 . S
Tb64 O75 2.441 . S
Tb64 O76 2.506 . S
C65 O75 1.244 . S
C65 O76 1.265 . S
O66 Tb61 2.312 . S
O66 C73 1.253 . S
O67 Tb64 2.338 . S
O67 C68 1.258 . S
C68 O67 1.258 . S
C68 O69 1.251 . S
O69 C68 1.251 . S
O70 Tb61 2.271 . S
O70 C62 1.252 . S
O71 C62 1.253 . S
O71 Tb64 2.312 . S
O72 Tb61 2.338 . S
O72 C77 1.258 . S
C73 O63 1.252 . S
C73 O66 1.253 . S
C74 O60 1.265 . S
C74 O79 1.244 . S
O75 Tb64 2.441 . S
O75 C65 1.244 . S
O76 Tb64 2.506 . S
O76 C65 1.265 . S
C77 O72 1.258 . S
C77 O78 1.251 . S
O78 C77 1.251 . S
O79 Tb61 2.441 . S
O79 C74 1.244 . S
O80 Tb81 2.506 . S
O80 C94 1.265 . S
Tb81 O80 2.506 . S
Tb81 O86 2.312 . S
Tb81 O90 2.271 . S
Tb81 O92 2.338 . S
Tb81 O99 2.441 . S
C82 O90 1.252 . S
C82 O91 1.253 . S
O83 Tb84 2.271 . S
O83 C93 1.252 . S
Tb84 O83 2.271 . S
Tb84 O87 2.338 . S
Tb84 O91 2.312 . S
Tb84 O95 2.441 . S
Tb84 O96 2.506 . S
C85 O95 1.244 . S
C85 O96 1.265 . S
O86 Tb81 2.312 . S
O86 C93 1.253 . S
O87 Tb84 2.338 . S
O87 C88 1.258 . S
C88 O87 1.258 . S
C88 O89 1.251 . S
O89 C88 1.251 . S
O90 Tb81 2.271 . S
O90 C82 1.252 . S
O91 C82 1.253 . S
O91 Tb84 2.312 . S
O92 Tb81 2.338 . S
O92 C97 1.258 . S
C93 O83 1.252 . S
C93 O86 1.253 . S
C94 O80 1.265 . S
C94 O99 1.244 . S
O95 Tb84 2.441 . S
O95 C85 1.244 . S
O96 Tb84 2.506 . S
O96 C85 1.265 . S
C97 O92 1.258 . S
C97 O98 1.251 . S
O98 C97 1.251 . S
O99 Tb81 2.441 . S
O99 C94 1.244 . S
O100 Tb101 2.506 . S
O100 C114 1.265 . S
Tb101 O100 2.506 . S
Tb101 O106 2.312 . S
Tb101 O110 2.271 . S
Tb101 O112 2.338 . S
Tb101 O119 2.441 . S
C102 O110 1.252 . S
C102 O111 1.253 . S
O103 Tb104 2.271 . S
O103 C113 1.252 . S
Tb104 O103 2.271 . S
Tb104 O107 2.338 . S
Tb104 O111 2.312 . S
Tb104 O115 2.441 . S
Tb104 O116 2.506 . S
C105 O115 1.244 . S
C105 O116 1.265 . S
O106 Tb101 2.312 . S
O106 C113 1.253 . S
O107 Tb104 2.338 . S
O107 C108 1.258 . S
C108 O107 1.258 . S
C108 O109 1.251 . S
O109 C108 1.251 . S
O110 Tb101 2.271 . S
O110 C102 1.252 . S
O111 C102 1.253 . S
O111 Tb104 2.312 . S
O112 Tb101 2.338 . S
O112 C117 1.258 . S
C113 O103 1.252 . S
C113 O106 1.253 . S
C114 O100 1.265 . S
C114 O119 1.244 . S
O115 Tb104 2.441 . S
O115 C105 1.244 . S
O116 Tb104 2.506 . S
O116 C105 1.265 . S
C117 O112 1.258 . S
C117 O118 1.251 . S
O118 C117 1.251 . S
O119 Tb101 2.441 . S
O119 C114 1.244 . S
O120 Tb121 2.506 . S
O120 C134 1.265 . S
Tb121 O120 2.506 . S
Tb121 O126 2.312 . S
Tb121 O130 2.271 . S
Tb121 O132 2.338 . S
Tb121 O139 2.441 . S
C122 O130 1.252 . S
C122 O131 1.253 . S
O123 Tb124 2.271 . S
O123 C133 1.252 . S
Tb124 O123 2.271 . S
Tb124 O127 2.338 . S
Tb124 O131 2.312 . S
Tb124 O135 2.441 . S
Tb124 O136 2.506 . S
C125 O135 1.244 . S
C125 O136 1.265 . S
O126 Tb121 2.312 . S
O126 C133 1.253 . S
O127 Tb124 2.338 . S
O127 C128 1.258 . S
C128 O127 1.258 . S
C128 O129 1.251 . S
O129 C128 1.251 . S
O130 Tb121 2.271 . S
O130 C122 1.252 . S
O131 C122 1.253 . S
O131 Tb124 2.312 . S
O132 Tb121 2.338 . S
O132 C137 1.258 . S
C133 O123 1.252 . S
C133 O126 1.253 . S
C134 O120 1.265 . S
C134 O139 1.244 . S
O135 Tb124 2.441 . S
O135 C125 1.244 . S
O136 Tb124 2.506 . S
O136 C125 1.265 . S
C137 O132 1.258 . S
C137 O138 1.251 . S
O138 C137 1.251 . S
O139 Tb121 2.441 . S
O139 C134 1.244 . S
O140 Tb141 2.506 . S
O140 C154 1.265 . S
Tb141 O140 2.506 . S
Tb141 O146 2.312 . S
Tb141 O150 2.271 . S
Tb141 O152 2.338 . S
Tb141 O159 2.441 . S
C142 O150 1.252 . S
C142 O151 1.253 . S
O143 Tb144 2.271 . S
O143 C153 1.252 . S
Tb144 O143 2.271 . S
Tb144 O147 2.338 . S
Tb144 O151 2.312 . S
Tb144 O155 2.441 . S
Tb144 O156 2.506 . S
C145 O155 1.244 . S
C145 O156 1.265 . S
O146 Tb141 2.312 . S
O146 C153 1.253 . S
O147 Tb144 2.338 . S
O147 C148 1.258 . S
C148 O147 1.258 . S
C148 O149 1.251 . S
O149 C148 1.251 . S
O150 Tb141 2.271 . S
O150 C142 1.252 . S
O151 C142 1.253 . S
O151 Tb144 2.312 . S
O152 Tb141 2.338 . S
O152 C157 1.258 . S
C153 O143 1.252 . S
C153 O146 1.253 . S
C154 O140 1.265 . S
C154 O159 1.244 . S
O155 Tb144 2.441 . S
O155 C145 1.244 . S
O156 Tb144 2.506 . S
O156 C145 1.265 . S
C157 O152 1.258 . S
C157 O158 1.251 . S
O158 C157 1.251 . S
O159 Tb141 2.441 . S
O159 C154 1.244 . S
O160 Tb161 2.506 . S
O160 C174 1.265 . S
Tb161 O160 2.506 . S
Tb161 O166 2.312 . S
Tb161 O170 2.271 . S
Tb161 O172 2.338 . S
Tb161 O179 2.441 . S
C162 O170 1.252 . S
C162 O171 1.253 . S
O163 Tb164 2.271 . S
O163 C173 1.252 . S
Tb164 O163 2.271 . S
Tb164 O167 2.338 . S
Tb164 O171 2.312 . S
Tb164 O175 2.441 . S
Tb164 O176 2.506 . S
C165 O175 1.244 . S
C165 O176 1.265 . S
O166 Tb161 2.312 . S
O166 C173 1.253 . S
O167 Tb164 2.338 . S
O167 C168 1.258 . S
C168 O167 1.258 . S
C168 O169 1.251 . S
O169 C168 1.251 . S
O170 Tb161 2.271 . S
O170 C162 1.252 . S
O171 C162 1.253 . S
O171 Tb164 2.312 . S
O172 Tb161 2.338 . S
O172 C177 1.258 . S
C173 O163 1.252 . S
C173 O166 1.253 . S
C174 O160 1.265 . S
C174 O179 1.244 . S
O175 Tb164 2.441 . S
O175 C165 1.244 . S
O176 Tb164 2.506 . S
O176 C165 1.265 . S
C177 O172 1.258 . S
C177 O178 1.251 . S
O178 C177 1.251 . S
O179 Tb161 2.441 . S
O179 C174 1.244 . S
O180 Tb181 2.506 . S
O180 C194 1.265 . S
Tb181 O180 2.506 . S
Tb181 O186 2.312 . S
Tb181 O190 2.271 . S
Tb181 O192 2.338 . S
Tb181 O199 2.441 . S
C182 O190 1.252 . S
C182 O191 1.253 . S
O183 Tb184 2.271 . S
O183 C193 1.252 . S
Tb184 O183 2.271 . S
Tb184 O187 2.338 . S
Tb184 O191 2.312 . S
Tb184 O195 2.441 . S
Tb184 O196 2.506 . S
C185 O195 1.244 . S
C185 O196 1.265 . S
O186 Tb181 2.312 . S
O186 C193 1.253 . S
O187 Tb184 2.338 . S
O187 C188 1.258 . S
C188 O187 1.258 . S
C188 O189 1.251 . S
O189 C188 1.251 . S
O190 Tb181 2.271 . S
O190 C182 1.252 . S
O191 C182 1.253 . S
O191 Tb184 2.312 . S
O192 Tb181 2.338 . S
O192 C197 1.258 . S
C193 O183 1.252 . S
C193 O186 1.253 . S
C194 O180 1.265 . S
C194 O199 1.244 . S
O195 Tb184 2.441 . S
O195 C185 1.244 . S
O196 Tb184 2.506 . S
O196 C185 1.265 . S
C197 O192 1.258 . S
C197 O198 1.251 . S
O198 C197 1.251 . S
O199 Tb181 2.441 . S
O199 C194 1.244 . S
O200 Tb201 2.506 . S
O200 C214 1.265 . S
Tb201 O200 2.506 . S
Tb201 O206 2.312 . S
Tb201 O210 2.271 . S
Tb201 O212 2.338 . S
Tb201 O219 2.441 . S
C202 O210 1.252 . S
C202 O211 1.253 . S
O203 Tb204 2.271 . S
O203 C213 1.252 . S
Tb204 O203 2.271 . S
Tb204 O207 2.338 . S
Tb204 O211 2.312 . S
Tb204 O215 2.441 . S
Tb204 O216 2.506 . S
C205 O215 1.244 . S
C205 O216 1.265 . S
O206 Tb201 2.312 . S
O206 C213 1.253 . S
O207 Tb204 2.338 . S
O207 C208 1.258 . S
C208 O207 1.258 . S
C208 O209 1.251 . S
O209 C208 1.251 . S
O210 Tb201 2.271 . S
O210 C202 1.252 . S
O211 C202 1.253 . S
O211 Tb204 2.312 . S
O212 Tb201 2.338 . S
O212 C217 1.258 . S
C213 O203 1.252 . S
C213 O206 1.253 . S
C214 O200 1.265 . S
C214 O219 1.244 . S
O215 Tb204 2.441 . S
O215 C205 1.244 . S
O216 Tb204 2.506 . S
O216 C205 1.265 . S
C217 O212 1.258 . S
C217 O218 1.251 . S
O218 C217 1.251 . S
O219 Tb201 2.441 . S
O219 C214 1.244 . S
O220 Tb221 2.506 . S
O220 C234 1.265 . S
Tb221 O220 2.506 . S
Tb221 O226 2.312 . S
Tb221 O230 2.271 . S
Tb221 O232 2.338 . S
Tb221 O239 2.441 . S
C222 O230 1.252 . S
C222 O231 1.253 . S
O223 Tb224 2.271 . S
O223 C233 1.252 . S
Tb224 O223 2.271 . S
Tb224 O227 2.338 . S
Tb224 O231 2.312 . S
Tb224 O235 2.441 . S
Tb224 O236 2.506 . S
C225 O235 1.244 . S
C225 O236 1.265 . S
O226 Tb221 2.312 . S
O226 C233 1.253 . S
O227 Tb224 2.338 . S
O227 C228 1.258 . S
C228 O227 1.258 . S
C228 O229 1.251 . S
O229 C228 1.251 . S
O230 Tb221 2.271 . S
O230 C222 1.252 . S
O231 C222 1.253 . S
O231 Tb224 2.312 . S
O232 Tb221 2.338 . S
O232 C237 1.258 . S
C233 O223 1.252 . S
C233 O226 1.253 . S
C234 O220 1.265 . S
C234 O239 1.244 . S
O235 Tb224 2.441 . S
O235 C225 1.244 . S
O236 Tb224 2.506 . S
O236 C225 1.265 . S
C237 O232 1.258 . S
C237 O238 1.251 . S
O238 C237 1.251 . S
O239 Tb221 2.441 . S
O239 C234 1.244 . S
O240 Tb241 2.506 . S
O240 C254 1.265 . S
Tb241 O240 2.506 . S
Tb241 O246 2.312 . S
Tb241 O250 2.271 . S
Tb241 O252 2.338 . S
Tb241 O259 2.441 . S
C242 O250 1.252 . S
C242 O251 1.253 . S
O243 Tb244 2.271 . S
O243 C253 1.252 . S
Tb244 O243 2.271 . S
Tb244 O247 2.338 . S
Tb244 O251 2.312 . S
Tb244 O255 2.441 . S
Tb244 O256 2.506 . S
C245 O255 1.244 . S
C245 O256 1.265 . S
O246 Tb241 2.312 . S
O246 C253 1.253 . S
O247 Tb244 2.338 . S
O247 C248 1.258 . S
C248 O247 1.258 . S
C248 O249 1.251 . S
O249 C248 1.251 . S
O250 Tb241 2.271 . S
O250 C242 1.252 . S
O251 C242 1.253 . S
O251 Tb244 2.312 . S
O252 Tb241 2.338 . S
O252 C257 1.258 . S
C253 O243 1.252 . S
C253 O246 1.253 . S
C254 O240 1.265 . S
C254 O259 1.244 . S
O255 Tb244 2.441 . S
O255 C245 1.244 . S
O256 Tb244 2.506 . S
O256 C245 1.265 . S
C257 O252 1.258 . S
C257 O258 1.251 . S
O258 C257 1.251 . S
O259 Tb241 2.441 . S
O259 C254 1.244 . S
O260 Tb261 2.506 . S
O260 C274 1.265 . S
Tb261 O260 2.506 . S
Tb261 O266 2.312 . S
Tb261 O270 2.271 . S
Tb261 O272 2.338 . S
Tb261 O279 2.441 . S
C262 O270 1.252 . S
C262 O271 1.253 . S
O263 Tb264 2.271 . S
O263 C273 1.252 . S
Tb264 O263 2.271 . S
Tb264 O267 2.338 . S
Tb264 O271 2.312 . S
Tb264 O275 2.441 . S
Tb264 O276 2.506 . S
C265 O275 1.244 . S
C265 O276 1.265 . S
O266 Tb261 2.312 . S
O266 C273 1.253 . S
O267 Tb264 2.338 . S
O267 C268 1.258 . S
C268 O267 1.258 . S
C268 O269 1.251 . S
O269 C268 1.251 . S
O270 Tb261 2.271 . S
O270 C262 1.252 . S
O271 C262 1.253 . S
O271 Tb264 2.312 . S
O272 Tb261 2.338 . S
O272 C277 1.258 . S
C273 O263 1.252 . S
C273 O266 1.253 . S
C274 O260 1.265 . S
C274 O279 1.244 . S
O275 Tb264 2.441 . S
O275 C265 1.244 . S
O276 Tb264 2.506 . S
O276 C265 1.265 . S
C277 O272 1.258 . S
C277 O278 1.251 . S
O278 C277 1.251 . S
O279 Tb261 2.441 . S
O279 C274 1.244 . S
O280 Tb281 2.506 . S
O280 C294 1.265 . S
Tb281 O280 2.506 . S
Tb281 O286 2.312 . S
Tb281 O290 2.271 . S
Tb281 O292 2.338 . S
Tb281 O299 2.441 . S
C282 O290 1.252 . S
C282 O291 1.253 . S
O283 Tb284 2.271 . S
O283 C293 1.252 . S
Tb284 O283 2.271 . S
Tb284 O287 2.338 . S
Tb284 O291 2.312 . S
Tb284 O295 2.441 . S
Tb284 O296 2.506 . S
C285 O295 1.244 . S
C285 O296 1.265 . S
O286 Tb281 2.312 . S
O286 C293 1.253 . S
O287 Tb284 2.338 . S
O287 C288 1.258 . S
C288 O287 1.258 . S
C288 O289 1.251 . S
O289 C288 1.251 . S
O290 Tb281 2.271 . S
O290 C282 1.252 . S
O291 C282 1.253 . S
O291 Tb284 2.312 . S
O292 Tb281 2.338 . S
O292 C297 1.258 . S
C293 O283 1.252 . S
C293 O286 1.253 . S
C294 O280 1.265 . S
C294 O299 1.244 . S
O295 Tb284 2.441 . S
O295 C285 1.244 . S
O296 Tb284 2.506 . S
O296 C285 1.265 . S
C297 O292 1.258 . S
C297 O298 1.251 . S
O298 C297 1.251 . S
O299 Tb281 2.441 . S
O299 C294 1.244 . S
O300 Tb301 2.506 . S
O300 C314 1.265 . S
Tb301 O300 2.506 . S
Tb301 O306 2.312 . S
Tb301 O310 2.271 . S
Tb301 O312 2.338 . S
Tb301 O319 2.441 . S
C302 O310 1.252 . S
C302 O311 1.253 . S
O303 Tb304 2.271 . S
O303 C313 1.252 . S
Tb304 O303 2.271 . S
Tb304 O307 2.338 . S
Tb304 O311 2.312 . S
Tb304 O315 2.441 . S
Tb304 O316 2.506 . S
C305 O315 1.244 . S
C305 O316 1.265 . S
O306 Tb301 2.312 . S
O306 C313 1.253 . S
O307 Tb304 2.338 . S
O307 C308 1.258 . S
C308 O307 1.258 . S
C308 O309 1.251 . S
O309 C308 1.251 . S
O310 Tb301 2.271 . S
O310 C302 1.252 . S
O311 C302 1.253 . S
O311 Tb304 2.312 . S
O312 Tb301 2.338 . S
O312 C317 1.258 . S
C313 O303 1.252 . S
C313 O306 1.253 . S
C314 O300 1.265 . S
C314 O319 1.244 . S
O315 Tb304 2.441 . S
O315 C305 1.244 . S
O316 Tb304 2.506 . S
O316 C305 1.265 . S
C317 O312 1.258 . S
C317 O318 1.251 . S
O318 C317 1.251 . S
O319 Tb301 2.441 . S
O319 C314 1.244 . S
O320 Tb321 2.506 . S
O320 C334 1.265 . S
Tb321 O320 2.506 . S
Tb321 O326 2.312 . S
Tb321 O330 2.271 . S
Tb321 O332 2.338 . S
Tb321 O339 2.441 . S
C322 O330 1.252 . S
C322 O331 1.253 . S
O323 Tb324 2.271 . S
O323 C333 1.252 . S
Tb324 O323 2.271 . S
Tb324 O327 2.338 . S
Tb324 O331 2.312 . S
Tb324 O335 2.441 . S
Tb324 O336 2.506 . S
C325 O335 1.244 . S
C325 O336 1.265 . S
O326 Tb321 2.312 . S
O326 C333 1.253 . S
O327 Tb324 2.338 . S
O327 C328 1.258 . S
C328 O327 1.258 . S
C328 O329 1.251 . S
O329 C328 1.251 . S
O330 Tb321 2.271 . S
O330 C322 1.252 . S
O331 C322 1.253 . S
O331 Tb324 2.312 . S
O332 Tb321 2.338 . S
O332 C337 1.258 . S
C333 O323 1.252 . S
C333 O326 1.253 . S
C334 O320 1.265 . S
C334 O339 1.244 . S
O335 Tb324 2.441 . S
O335 C325 1.244 . S
O336 Tb324 2.506 . S
O336 C325 1.265 . S
C337 O332 1.258 . S
C337 O338 1.251 . S
O338 C337 1.251 . S
O339 Tb321 2.441 . S
O339 C334 1.244 . S
O340 Tb341 2.506 . S
O340 C354 1.265 . S
Tb341 O340 2.506 . S
Tb341 O346 2.312 . S
Tb341 O350 2.271 . S
Tb341 O352 2.338 . S
Tb341 O359 2.441 . S
C342 O350 1.252 . S
C342 O351 1.253 . S
O343 Tb344 2.271 . S
O343 C353 1.252 . S
Tb344 O343 2.271 . S
Tb344 O347 2.338 . S
Tb344 O351 2.312 . S
Tb344 O355 2.441 . S
Tb344 O356 2.506 . S
C345 O355 1.244 . S
C345 O356 1.265 . S
O346 Tb341 2.312 . S
O346 C353 1.253 . S
O347 Tb344 2.338 . S
O347 C348 1.258 . S
C348 O347 1.258 . S
C348 O349 1.251 . S
O349 C348 1.251 . S
O350 Tb341 2.271 . S
O350 C342 1.252 . S
O351 C342 1.253 . S
O351 Tb344 2.312 . S
O352 Tb341 2.338 . S
O352 C357 1.258 . S
C353 O343 1.252 . S
C353 O346 1.253 . S
C354 O340 1.265 . S
C354 O359 1.244 . S
O355 Tb344 2.441 . S
O355 C345 1.244 . S
O356 Tb344 2.506 . S
O356 C345 1.265 . S
C357 O352 1.258 . S
C357 O358 1.251 . S
O358 C357 1.251 . S
O359 Tb341 2.441 . S
O359 C354 1.244 . S
O360 Tb361 2.506 . S
O360 C374 1.265 . S
Tb361 O360 2.506 . S
Tb361 O366 2.312 . S
Tb361 O370 2.271 . S
Tb361 O372 2.338 . S
Tb361 O379 2.441 . S
C362 O370 1.252 . S
C362 O371 1.253 . S
O363 Tb364 2.271 . S
O363 C373 1.252 . S
Tb364 O363 2.271 . S
Tb364 O367 2.338 . S
Tb364 O371 2.312 . S
Tb364 O375 2.441 . S
Tb364 O376 2.506 . S
C365 O375 1.244 . S
C365 O376 1.265 . S
O366 Tb361 2.312 . S
O366 C373 1.253 . S
O367 Tb364 2.338 . S
O367 C368 1.258 . S
C368 O367 1.258 . S
C368 O369 1.251 . S
O369 C368 1.251 . S
O370 Tb361 2.271 . S
O370 C362 1.252 . S
O371 C362 1.253 . S
O371 Tb364 2.312 . S
O372 Tb361 2.338 . S
O372 C377 1.258 . S
C373 O363 1.252 . S
C373 O366 1.253 . S
C374 O360 1.265 . S
C374 O379 1.244 . S
O375 Tb364 2.441 . S
O375 C365 1.244 . S
O376 Tb364 2.506 . S
O376 C365 1.265 . S
C377 O372 1.258 . S
C377 O378 1.251 . S
O378 C377 1.251 . S
O379 Tb361 2.441 . S
O379 C374 1.244 . S
O380 Tb381 2.506 . S
O380 C394 1.265 . S
Tb381 O380 2.506 . S
Tb381 O386 2.312 . S
Tb381 O390 2.271 . S
Tb381 O392 2.338 . S
Tb381 O399 2.441 . S
C382 O390 1.252 . S
C382 O391 1.253 . S
O383 Tb384 2.271 . S
O383 C393 1.252 . S
Tb384 O383 2.271 . S
Tb384 O387 2.338 . S
Tb384 O391 2.312 . S
Tb384 O395 2.441 . S
Tb384 O396 2.506 . S
C385 O395 1.244 . S
C385 O396 1.265 . S
O386 Tb381 2.312 . S
O386 C393 1.253 . S
O387 Tb384 2.338 . S
O387 C388 1.258 . S
C388 O387 1.258 . S
C388 O389 1.251 . S
O389 C388 1.251 . S
O390 Tb381 2.271 . S
O390 C382 1.252 . S
O391 C382 1.253 . S
O391 Tb384 2.312 . S
O392 Tb381 2.338 . S
O392 C397 1.258 . S
C393 O383 1.252 . S
C393 O386 1.253 . S
C394 O380 1.265 . S
C394 O399 1.244 . S
O395 Tb384 2.441 . S
O395 C385 1.244 . S
O396 Tb384 2.506 . S
O396 C385 1.265 . S
C397 O392 1.258 . S
C397 O398 1.251 . S
O398 C397 1.251 . S
O399 Tb381 2.441 . S
O399 C394 1.244 . S
O400 Tb401 2.506 . S
O400 C414 1.265 . S
Tb401 O400 2.506 . S
Tb401 O406 2.312 . S
Tb401 O410 2.271 . S
Tb401 O412 2.338 . S
Tb401 O419 2.441 . S
C402 O410 1.252 . S
C402 O411 1.253 . S
O403 Tb404 2.271 . S
O403 C413 1.252 . S
Tb404 O403 2.271 . S
Tb404 O407 2.338 . S
Tb404 O411 2.312 . S
Tb404 O415 2.441 . S
Tb404 O416 2.506 . S
C405 O415 1.244 . S
C405 O416 1.265 . S
O406 Tb401 2.312 . S
O406 C413 1.253 . S
O407 Tb404 2.338 . S
O407 C408 1.258 . S
C408 O407 1.258 . S
C408 O409 1.251 . S
O409 C408 1.251 . S
O410 Tb401 2.271 . S
O410 C402 1.252 . S
O411 C402 1.253 . S
O411 Tb404 2.312 . S
O412 Tb401 2.338 . S
O412 C417 1.258 . S
C413 O403 1.252 . S
C413 O406 1.253 . S
C414 O400 1.265 . S
C414 O419 1.244 . S
O415 Tb404 2.441 . S
O415 C405 1.244 . S
O416 Tb404 2.506 . S
O416 C405 1.265 . S
C417 O412 1.258 . S
C417 O418 1.251 . S
O418 C417 1.251 . S
O419 Tb401 2.441 . S
O419 C414 1.244 . S
O420 Tb421 2.506 . S
O420 C434 1.265 . S
Tb421 O420 2.506 . S
Tb421 O426 2.312 . S
Tb421 O430 2.271 . S
Tb421 O432 2.338 . S
Tb421 O439 2.441 . S
C422 O430 1.252 . S
C422 O431 1.253 . S
O423 Tb424 2.271 . S
O423 C433 1.252 . S
Tb424 O423 2.271 . S
Tb424 O427 2.338 . S
Tb424 O431 2.312 . S
Tb424 O435 2.441 . S
Tb424 O436 2.506 . S
C425 O435 1.244 . S
C425 O436 1.265 . S
O426 Tb421 2.312 . S
O426 C433 1.253 . S
O427 Tb424 2.338 . S
O427 C428 1.258 . S
C428 O427 1.258 . S
C428 O429 1.251 . S
O429 C428 1.251 . S
O430 Tb421 2.271 . S
O430 C422 1.252 . S
O431 C422 1.253 . S
O431 Tb424 2.312 . S
O432 Tb421 2.338 . S
O432 C437 1.258 . S
C433 O423 1.252 . S
C433 O426 1.253 . S
C434 O420 1.265 . S
C434 O439 1.244 . S
O435 Tb424 2.441 . S
O435 C425 1.244 . S
O436 Tb424 2.506 . S
O436 C425 1.265 . S
C437 O432 1.258 . S
C437 O438 1.251 . S
O438 C437 1.251 . S
O439 Tb421 2.441 . S
O439 C434 1.244 . S
O440 Tb441 2.506 . S
O440 C454 1.265 . S
Tb441 O440 2.506 . S
Tb441 O446 2.312 . S
Tb441 O450 2.271 . S
Tb441 O452 2.338 . S
Tb441 O459 2.441 . S
C442 O450 1.252 . S
C442 O451 1.253 . S
O443 Tb444 2.271 . S
O443 C453 1.252 . S
Tb444 O443 2.271 . S
Tb444 O447 2.338 . S
Tb444 O451 2.312 . S
Tb444 O455 2.441 . S
Tb444 O456 2.506 . S
C445 O455 1.244 . S
C445 O456 1.265 . S
O446 Tb441 2.312 . S
O446 C453 1.253 . S
O447 Tb444 2.338 . S
O447 C448 1.258 . S
C448 O447 1.258 . S
C448 O449 1.251 . S
O449 C448 1.251 . S
O450 Tb441 2.271 . S
O450 C442 1.252 . S
O451 C442 1.253 . S
O451 Tb444 2.312 . S
O452 Tb441 2.338 . S
O452 C457 1.258 . S
C453 O443 1.252 . S
C453 O446 1.253 . S
C454 O440 1.265 . S
C454 O459 1.244 . S
O455 Tb444 2.441 . S
O455 C445 1.244 . S
O456 Tb444 2.506 . S
O456 C445 1.265 . S
C457 O452 1.258 . S
C457 O458 1.251 . S
O458 C457 1.251 . S
O459 Tb441 2.441 . S
O459 C454 1.244 . S
O460 Tb461 2.506 . S
O460 C474 1.265 . S
Tb461 O460 2.506 . S
Tb461 O466 2.312 . S
Tb461 O470 2.271 . S
Tb461 O472 2.338 . S
Tb461 O479 2.441 . S
C462 O470 1.252 . S
C462 O471 1.253 . S
O463 Tb464 2.271 . S
O463 C473 1.252 . S
Tb464 O463 2.271 . S
Tb464 O467 2.338 . S
Tb464 O471 2.312 . S
Tb464 O475 2.441 . S
Tb464 O476 2.506 . S
C465 O475 1.244 . S
C465 O476 1.265 . S
O466 Tb461 2.312 . S
O466 C473 1.253 . S
O467 Tb464 2.338 . S
O467 C468 1.258 . S
C468 O467 1.258 . S
C468 O469 1.251 . S
O469 C468 1.251 . S
O470 Tb461 2.271 . S
O470 C462 1.252 . S
O471 C462 1.253 . S
O471 Tb464 2.312 . S
O472 Tb461 2.338 . S
O472 C477 1.258 . S
C473 O463 1.252 . S
C473 O466 1.253 . S
C474 O460 1.265 . S
C474 O479 1.244 . S
O475 Tb464 2.441 . S
O475 C465 1.244 . S
O476 Tb464 2.506 . S
O476 C465 1.265 . S
C477 O472 1.258 . S
C477 O478 1.251 . S
O478 C477 1.251 . S
O479 Tb461 2.441 . S
O479 C474 1.244 . S
O480 Tb481 2.506 . S
O480 C494 1.265 . S
Tb481 O480 2.506 . S
Tb481 O486 2.312 . S
Tb481 O490 2.271 . S
Tb481 O492 2.338 . S
Tb481 O499 2.441 . S
C482 O490 1.252 . S
C482 O491 1.253 . S
O483 Tb484 2.271 . S
O483 C493 1.252 . S
Tb484 O483 2.271 . S
Tb484 O487 2.338 . S
Tb484 O491 2.312 . S
Tb484 O495 2.441 . S
Tb484 O496 2.506 . S
C485 O495 1.244 . S
C485 O496 1.265 . S
O486 Tb481 2.312 . S
O486 C493 1.253 . S
O487 Tb484 2.338 . S
O487 C488 1.258 . S
C488 O487 1.258 . S
C488 O489 1.251 . S
O489 C488 1.251 . S
O490 Tb481 2.271 . S
O490 C482 1.252 . S
O491 C482 1.253 . S
O491 Tb484 2.312 . S
O492 Tb481 2.338 . S
O492 C497 1.258 . S
C493 O483 1.252 . S
C493 O486 1.253 . S
C494 O480 1.265 . S
C494 O499 1.244 . S
O495 Tb484 2.441 . S
O495 C485 1.244 . S
O496 Tb484 2.506 . S
O496 C485 1.265 . S
C497 O492 1.258 . S
C497 O498 1.251 . S
O498 C497 1.251 . S
O499 Tb481 2.441 . S
O499 C494 1.244 . S
O500 Tb501 2.506 . S
O500 C514 1.265 . S
Tb501 O500 2.506 . S
Tb501 O506 2.312 . S
Tb501 O510 2.271 . S
Tb501 O512 2.338 . S
Tb501 O519 2.441 . S
C502 O510 1.252 . S
C502 O511 1.253 . S
O503 Tb504 2.271 . S
O503 C513 1.252 . S
Tb504 O503 2.271 . S
Tb504 O507 2.338 . S
Tb504 O511 2.312 . S
Tb504 O515 2.441 . S
Tb504 O516 2.506 . S
C505 O515 1.244 . S
C505 O516 1.265 . S
O506 Tb501 2.312 . S
O506 C513 1.253 . S
O507 Tb504 2.338 . S
O507 C508 1.258 . S
C508 O507 1.258 . S
C508 O509 1.251 . S
O509 C508 1.251 . S
O510 Tb501 2.271 . S
O510 C502 1.252 . S
O511 C502 1.253 . S
O511 Tb504 2.312 . S
O512 Tb501 2.338 . S
O512 C517 1.258 . S
C513 O503 1.252 . S
C513 O506 1.253 . S
C514 O500 1.265 . S
C514 O519 1.244 . S
O515 Tb504 2.441 . S
O515 C505 1.244 . S
O516 Tb504 2.506 . S
O516 C505 1.265 . S
C517 O512 1.258 . S
C517 O518 1.251 . S
O518 C517 1.251 . S
O519 Tb501 2.441 . S
O519 C514 1.244 . S
O520 Tb521 2.506 . S
O520 C534 1.265 . S
Tb521 O520 2.506 . S
Tb521 O526 2.312 . S
Tb521 O530 2.271 . S
Tb521 O532 2.338 . S
Tb521 O539 2.441 . S
C522 O530 1.252 . S
C522 O531 1.253 . S
O523 Tb524 2.271 . S
O523 C533 1.252 . S
Tb524 O523 2.271 . S
Tb524 O527 2.338 . S
Tb524 O531 2.312 . S
Tb524 O535 2.441 . S
Tb524 O536 2.506 . S
C525 O535 1.244 . S
C525 O536 1.265 . S
O526 Tb521 2.312 . S
O526 C533 1.253 . S
O527 Tb524 2.338 . S
O527 C528 1.258 . S
C528 O527 1.258 . S
C528 O529 1.251 . S
O529 C528 1.251 . S
O530 Tb521 2.271 . S
O530 C522 1.252 . S
O531 C522 1.253 . S
O531 Tb524 2.312 . S
O532 Tb521 2.338 . S
O532 C537 1.258 . S
C533 O523 1.252 . S
C533 O526 1.253 . S
C534 O520 1.265 . S
C534 O539 1.244 . S
O535 Tb524 2.441 . S
O535 C525 1.244 . S
O536 Tb524 2.506 . S
O536 C525 1.265 . S
C537 O532 1.258 . S
C537 O538 1.251 . S
O538 C537 1.251 . S
O539 Tb521 2.441 . S
O539 C534 1.244 . S
O540 Tb541 2.506 . S
O540 C554 1.265 . S
Tb541 O540 2.506 . S
Tb541 O546 2.312 . S
Tb541 O550 2.271 . S
Tb541 O552 2.338 . S
Tb541 O559 2.441 . S
C542 O550 1.252 . S
C542 O551 1.253 . S
O543 Tb544 2.271 . S
O543 C553 1.252 . S
Tb544 O543 2.271 . S
Tb544 O547 2.338 . S
Tb544 O551 2.312 . S
Tb544 O555 2.441 . S
Tb544 O556 2.506 . S
C545 O555 1.244 . S
C545 O556 1.265 . S
O546 Tb541 2.312 . S
O546 C553 1.253 . S
O547 Tb544 2.338 . S
O547 C548 1.258 . S
C548 O547 1.258 . S
C548 O549 1.251 . S
O549 C548 1.251 . S
O550 Tb541 2.271 . S
O550 C542 1.252 . S
O551 C542 1.253 . S
O551 Tb544 2.312 . S
O552 Tb541 2.338 . S
O552 C557 1.258 . S
C553 O543 1.252 . S
C553 O546 1.253 . S
C554 O540 1.265 . S
C554 O559 1.244 . S
O555 Tb544 2.441 . S
O555 C545 1.244 . S
O556 Tb544 2.506 . S
O556 C545 1.265 . S
C557 O552 1.258 . S
C557 O558 1.251 . S
O558 C557 1.251 . S
O559 Tb541 2.441 . S
O559 C554 1.244 . S
O560 Tb561 2.506 . S
O560 C574 1.265 . S
Tb561 O560 2.506 . S
Tb561 O566 2.312 . S
Tb561 O570 2.271 . S
Tb561 O572 2.338 . S
Tb561 O579 2.441 . S
C562 O570 1.252 . S
C562 O571 1.253 . S
O563 Tb564 2.271 . S
O563 C573 1.252 . S
Tb564 O563 2.271 . S
Tb564 O567 2.338 . S
Tb564 O571 2.312 . S
Tb564 O575 2.441 . S
Tb564 O576 2.506 . S
C565 O575 1.244 . S
C565 O576 1.265 . S
O566 Tb561 2.312 . S
O566 C573 1.253 . S
O567 Tb564 2.338 . S
O567 C568 1.258 . S
C568 O567 1.258 . S
C568 O569 1.251 . S
O569 C568 1.251 . S
O570 Tb561 2.271 . S
O570 C562 1.252 . S
O571 C562 1.253 . S
O571 Tb564 2.312 . S
O572 Tb561 2.338 . S
O572 C577 1.258 . S
C573 O563 1.252 . S
C573 O566 1.253 . S
C574 O560 1.265 . S
C574 O579 1.244 . S
O575 Tb564 2.441 . S
O575 C565 1.244 . S
O576 Tb564 2.506 . S
O576 C565 1.265 . S
C577 O572 1.258 . S
C577 O578 1.251 . S
O578 C577 1.251 . S
O579 Tb561 2.441 . S
O579 C574 1.244 . S
O580 Tb581 2.506 . S
O580 C594 1.265 . S
Tb581 O580 2.506 . S
Tb581 O586 2.312 . S
Tb581 O590 2.271 . S
Tb581 O592 2.338 . S
Tb581 O599 2.441 . S
C582 O590 1.252 . S
C582 O591 1.253 . S
O583 Tb584 2.271 . S
O583 C593 1.252 . S
Tb584 O583 2.271 . S
Tb584 O587 2.338 . S
Tb584 O591 2.312 . S
Tb584 O595 2.441 . S
Tb584 O596 2.506 . S
C585 O595 1.244 . S
C585 O596 1.265 . S
O586 Tb581 2.312 . S
O586 C593 1.253 . S
O587 Tb584 2.338 . S
O587 C588 1.258 . S
C588 O587 1.258 . S
C588 O589 1.251 . S
O589 C588 1.251 . S
O590 Tb581 2.271 . S
O590 C582 1.252 . S
O591 C582 1.253 . S
O591 Tb584 2.312 . S
O592 Tb581 2.338 . S
O592 C597 1.258 . S
C593 O583 1.252 . S
C593 O586 1.253 . S
C594 O580 1.265 . S
C594 O599 1.244 . S
O595 Tb584 2.441 . S
O595 C585 1.244 . S
O596 Tb584 2.506 . S
O596 C585 1.265 . S
C597 O592 1.258 . S
C597 O598 1.251 . S
O598 C597 1.251 . S
O599 Tb581 2.441 . S
O599 C594 1.244 . S
O600 Tb601 2.506 . S
O600 C614 1.265 . S
Tb601 O600 2.506 . S
Tb601 O606 2.312 . S
Tb601 O610 2.271 . S
Tb601 O612 2.338 . S
Tb601 O619 2.441 . S
C602 O610 1.252 . S
C602 O611 1.253 . S
O603 Tb604 2.271 . S
O603 C613 1.252 . S
Tb604 O603 2.271 . S
Tb604 O607 2.338 . S
Tb604 O611 2.312 . S
Tb604 O615 2.441 . S
Tb604 O616 2.506 . S
C605 O615 1.244 . S
C605 O616 1.265 . S
O606 Tb601 2.312 . S
O606 C613 1.253 . S
O607 Tb604 2.338 . S
O607 C608 1.258 . S
C608 O607 1.258 . S
C608 O609 1.251 . S
O609 C608 1.251 . S
O610 Tb601 2.271 . S
O610 C602 1.252 . S
O611 C602 1.253 . S
O611 Tb604 2.312 . S
O612 Tb601 2.338 . S
O612 C617 1.258 . S
C613 O603 1.252 . S
C613 O606 1.253 . S
C614 O600 1.265 . S
C614 O619 1.244 . S
O615 Tb604 2.441 . S
O615 C605 1.244 . S
O616 Tb604 2.506 . S
O616 C605 1.265 . S
C617 O612 1.258 . S
C617 O618 1.251 . S
O618 C617 1.251 . S
O619 Tb601 2.441 . S
O619 C614 1.244 . S
O620 Tb621 2.506 . S
O620 C634 1.265 . S
Tb621 O620 2.506 . S
Tb621 O626 2.312 . S
Tb621 O630 2.271 . S
Tb621 O632 2.338 . S
Tb621 O639 2.441 . S
C622 O630 1.252 . S
C622 O631 1.253 . S
O623 Tb624 2.271 . S
O623 C633 1.252 . S
Tb624 O623 2.271 . S
Tb624 O627 2.338 . S
Tb624 O631 2.312 . S
Tb624 O635 2.441 . S
Tb624 O636 2.506 . S
C625 O635 1.244 . S
C625 O636 1.265 . S
O626 Tb621 2.312 . S
O626 C633 1.253 . S
O627 Tb624 2.338 . S
O627 C628 1.258 . S
C628 O627 1.258 . S
C628 O629 1.251 . S
O629 C628 1.251 . S
O630 Tb621 2.271 . S
O630 C622 1.252 . S
O631 C622 1.253 . S
O631 Tb624 2.312 . S
O632 Tb621 2.338 . S
O632 C637 1.258 . S
C633 O623 1.252 . S
C633 O626 1.253 . S
C634 O620 1.265 . S
C634 O639 1.244 . S
O635 Tb624 2.441 . S
O635 C625 1.244 . S
O636 Tb624 2.506 . S
O636 C625 1.265 . S
C637 O632 1.258 . S
C637 O638 1.251 . S
O638 C637 1.251 . S
O639 Tb621 2.441 . S
O639 C634 1.244 . S
C640 C641 1.391 . S
C640 C642 1.394 . S
C640 H656 0.931 . S
C641 C640 1.391 . S
C641 C645 1.376 . S
C642 C640 1.394 . S
C642 C643 1.369 . S
C642 C646 1.531 . S
C643 C642 1.369 . S
C643 C644 1.410 . S
C643 C651 1.503 . S
C644 C643 1.410 . S
C644 C645 1.392 . S
C644 C647 1.511 . S
C645 C641 1.376 . S
C645 C644 1.392 . S
C645 H657 0.929 . S
C646 C642 1.531 . S
C646 H658 0.960 . S
C646 H659 0.962 . S
C646 H660 0.960 . S
C647 C644 1.511 . S
C647 H661 0.961 . S
C647 H662 0.961 . S
C647 H663 0.961 . S
C648 C649 1.370 . S
C648 C650 1.363 . S
C648 H664 0.931 . S
C649 C648 1.370 . S
C649 C653 1.408 . S
C650 C648 1.363 . S
C650 C651 1.370 . S
C650 C654 1.524 . S
C651 C643 1.503 . S
C651 C650 1.370 . S
C651 C652 1.403 . S
C652 C651 1.403 . S
C652 C653 1.404 . S
C652 C655 1.539 . S
C653 C649 1.408 . S
C653 C652 1.404 . S
C653 H665 0.930 . S
C654 C650 1.524 . S
C654 H666 0.956 . S
C654 H667 0.961 . S
C654 H668 0.961 . S
C655 C652 1.539 . S
C655 H669 0.958 . S
C655 H670 0.961 . S
C655 H671 0.960 . S
H656 C640 0.931 . S
H657 C645 0.929 . S
H658 C646 0.960 . S
H659 C646 0.962 . S
H660 C646 0.960 . S
H661 C647 0.961 . S
H662 C647 0.961 . S
H663 C647 0.961 . S
H664 C648 0.931 . S
H665 C653 0.930 . S
H666 C654 0.956 . S
H667 C654 0.961 . S
H668 C654 0.961 . S
H669 C655 0.958 . S
H670 C655 0.961 . S
H671 C655 0.960 . S
C672 C673 1.391 . S
C672 C674 1.394 . S
C672 H688 0.931 . S
C673 C672 1.391 . S
C673 C677 1.376 . S
C674 C672 1.394 . S
C674 C675 1.369 . S
C674 C678 1.531 . S
C675 C674 1.369 . S
C675 C676 1.410 . S
C675 C683 1.503 . S
C676 C675 1.410 . S
C676 C677 1.392 . S
C676 C679 1.511 . S
C677 C673 1.376 . S
C677 C676 1.392 . S
C677 H689 0.929 . S
C678 C674 1.531 . S
C678 H690 0.960 . S
C678 H691 0.962 . S
C678 H692 0.960 . S
C679 C676 1.511 . S
C679 H693 0.961 . S
C679 H694 0.961 . S
C679 H695 0.961 . S
C680 C681 1.370 . S
C680 C682 1.363 . S
C680 H696 0.931 . S
C681 C680 1.370 . S
C681 C685 1.408 . S
C682 C680 1.363 . S
C682 C683 1.370 . S
C682 C686 1.524 . S
C683 C675 1.503 . S
C683 C682 1.370 . S
C683 C684 1.403 . S
C684 C683 1.403 . S
C684 C685 1.404 . S
C684 C687 1.539 . S
C685 C681 1.408 . S
C685 C684 1.404 . S
C685 H697 0.930 . S
C686 C682 1.524 . S
C686 H698 0.956 . S
C686 H699 0.961 . S
C686 H700 0.961 . S
C687 C684 1.539 . S
C687 H701 0.958 . S
C687 H702 0.961 . S
C687 H703 0.960 . S
H688 C672 0.931 . S
H689 C677 0.929 . S
H690 C678 0.960 . S
H691 C678 0.962 . S
H692 C678 0.960 . S
H693 C679 0.961 . S
H694 C679 0.961 . S
H695 C679 0.961 . S
H696 C680 0.931 . S
H697 C685 0.930 . S
H698 C686 0.956 . S
H699 C686 0.961 . S
H700 C686 0.961 . S
H701 C687 0.958 . S
H702 C687 0.961 . S
H703 C687 0.960 . S
C704 C705 1.391 . S
C704 C706 1.394 . S
C704 H720 0.931 . S
C705 C704 1.391 . S
C705 C709 1.376 . S
C706 C704 1.394 . S
C706 C707 1.369 . S
C706 C710 1.531 . S
C707 C706 1.369 . S
C707 C708 1.410 . S
C707 C715 1.503 . S
C708 C707 1.410 . S
C708 C709 1.392 . S
C708 C711 1.511 . S
C709 C705 1.376 . S
C709 C708 1.392 . S
C709 H721 0.929 . S
C710 C706 1.531 . S
C710 H722 0.960 . S
C710 H723 0.962 . S
C710 H724 0.960 . S
C711 C708 1.511 . S
C711 H725 0.961 . S
C711 H726 0.961 . S
C711 H727 0.961 . S
C712 C713 1.370 . S
C712 C714 1.363 . S
C712 H728 0.931 . S
C713 C712 1.370 . S
C713 C717 1.408 . S
C714 C712 1.363 . S
C714 C715 1.370 . S
C714 C718 1.524 . S
C715 C707 1.503 . S
C715 C714 1.370 . S
C715 C716 1.403 . S
C716 C715 1.403 . S
C716 C717 1.404 . S
C716 C719 1.539 . S
C717 C713 1.408 . S
C717 C716 1.404 . S
C717 H729 0.930 . S
C718 C714 1.524 . S
C718 H730 0.956 . S
C718 H731 0.961 . S
C718 H732 0.961 . S
C719 C716 1.539 . S
C719 H733 0.958 . S
C719 H734 0.961 . S
C719 H735 0.960 . S
H720 C704 0.931 . S
H721 C709 0.929 . S
H722 C710 0.960 . S
H723 C710 0.962 . S
H724 C710 0.960 . S
H725 C711 0.961 . S
H726 C711 0.961 . S
H727 C711 0.961 . S
H728 C712 0.931 . S
H729 C717 0.930 . S
H730 C718 0.956 . S
H731 C718 0.961 . S
H732 C718 0.961 . S
H733 C719 0.958 . S
H734 C719 0.961 . S
H735 C719 0.960 . S
C736 C737 1.391 . S
C736 C738 1.394 . S
C736 H752 0.931 . S
C737 C736 1.391 . S
C737 C741 1.376 . S
C738 C736 1.394 . S
C738 C739 1.369 . S
C738 C742 1.531 . S
C739 C738 1.369 . S
C739 C740 1.410 . S
C739 C747 1.503 . S
C740 C739 1.410 . S
C740 C741 1.392 . S
C740 C743 1.511 . S
C741 C737 1.376 . S
C741 C740 1.392 . S
C741 H753 0.929 . S
C742 C738 1.531 . S
C742 H754 0.960 . S
C742 H755 0.962 . S
C742 H756 0.960 . S
C743 C740 1.511 . S
C743 H757 0.961 . S
C743 H758 0.961 . S
C743 H759 0.961 . S
C744 C745 1.370 . S
C744 C746 1.363 . S
C744 H760 0.931 . S
C745 C744 1.370 . S
C745 C749 1.408 . S
C746 C744 1.363 . S
C746 C747 1.370 . S
C746 C750 1.524 . S
C747 C739 1.503 . S
C747 C746 1.370 . S
C747 C748 1.403 . S
C748 C747 1.403 . S
C748 C749 1.404 . S
C748 C751 1.539 . S
C749 C745 1.408 . S
C749 C748 1.404 . S
C749 H761 0.930 . S
C750 C746 1.524 . S
C750 H762 0.956 . S
C750 H763 0.961 . S
C750 H764 0.961 . S
C751 C748 1.539 . S
C751 H765 0.958 . S
C751 H766 0.961 . S
C751 H767 0.960 . S
H752 C736 0.931 . S
H753 C741 0.929 . S
H754 C742 0.960 . S
H755 C742 0.962 . S
H756 C742 0.960 . S
H757 C743 0.961 . S
H758 C743 0.961 . S
H759 C743 0.961 . S
H760 C744 0.931 . S
H761 C749 0.930 . S
H762 C750 0.956 . S
H763 C750 0.961 . S
H764 C750 0.961 . S
H765 C751 0.958 . S
H766 C751 0.961 . S
H767 C751 0.960 . S
C768 C769 1.391 . S
C768 C770 1.394 . S
C768 H784 0.931 . S
C769 C768 1.391 . S
C769 C773 1.376 . S
C770 C768 1.394 . S
C770 C771 1.369 . S
C770 C774 1.531 . S
C771 C770 1.369 . S
C771 C772 1.410 . S
C771 C779 1.503 . S
C772 C771 1.410 . S
C772 C773 1.392 . S
C772 C775 1.511 . S
C773 C769 1.376 . S
C773 C772 1.392 . S
C773 H785 0.929 . S
C774 C770 1.531 . S
C774 H786 0.960 . S
C774 H787 0.962 . S
C774 H788 0.960 . S
C775 C772 1.511 . S
C775 H789 0.961 . S
C775 H790 0.961 . S
C775 H791 0.961 . S
C776 C777 1.370 . S
C776 C778 1.363 . S
C776 H792 0.931 . S
C777 C776 1.370 . S
C777 C781 1.408 . S
C778 C776 1.363 . S
C778 C779 1.370 . S
C778 C782 1.524 . S
C779 C771 1.503 . S
C779 C778 1.370 . S
C779 C780 1.403 . S
C780 C779 1.403 . S
C780 C781 1.404 . S
C780 C783 1.539 . S
C781 C777 1.408 . S
C781 C780 1.404 . S
C781 H793 0.930 . S
C782 C778 1.524 . S
C782 H794 0.956 . S
C782 H795 0.961 . S
C782 H796 0.961 . S
C783 C780 1.539 . S
C783 H797 0.958 . S
C783 H798 0.961 . S
C783 H799 0.960 . S
H784 C768 0.931 . S
H785 C773 0.929 . S
H786 C774 0.960 . S
H787 C774 0.962 . S
H788 C774 0.960 . S
H789 C775 0.961 . S
H790 C775 0.961 . S
H791 C775 0.961 . S
H792 C776 0.931 . S
H793 C781 0.930 . S
H794 C782 0.956 . S
H795 C782 0.961 . S
H796 C782 0.961 . S
H797 C783 0.958 . S
H798 C783 0.961 . S
H799 C783 0.960 . S
C800 C801 1.391 . S
C800 C802 1.394 . S
C800 H816 0.931 . S
C801 C800 1.391 . S
C801 C805 1.376 . S
C802 C800 1.394 . S
C802 C803 1.369 . S
C802 C806 1.531 . S
C803 C802 1.369 . S
C803 C804 1.410 . S
C803 C811 1.503 . S
C804 C803 1.410 . S
C804 C805 1.392 . S
C804 C807 1.511 . S
C805 C801 1.376 . S
C805 C804 1.392 . S
C805 H817 0.929 . S
C806 C802 1.531 . S
C806 H818 0.960 . S
C806 H819 0.962 . S
C806 H820 0.960 . S
C807 C804 1.511 . S
C807 H821 0.961 . S
C807 H822 0.961 . S
C807 H823 0.961 . S
C808 C809 1.370 . S
C808 C810 1.363 . S
C808 H824 0.931 . S
C809 C808 1.370 . S
C809 C813 1.408 . S
C810 C808 1.363 . S
C810 C811 1.370 . S
C810 C814 1.524 . S
C811 C803 1.503 . S
C811 C810 1.370 . S
C811 C812 1.403 . S
C812 C811 1.403 . S
C812 C813 1.404 . S
C812 C815 1.539 . S
C813 C809 1.408 . S
C813 C812 1.404 . S
C813 H825 0.930 . S
C814 C810 1.524 . S
C814 H826 0.956 . S
C814 H827 0.961 . S
C814 H828 0.961 . S
C815 C812 1.539 . S
C815 H829 0.958 . S
C815 H830 0.961 . S
C815 H831 0.960 . S
H816 C800 0.931 . S
H817 C805 0.929 . S
H818 C806 0.960 . S
H819 C806 0.962 . S
H820 C806 0.960 . S
H821 C807 0.961 . S
H822 C807 0.961 . S
H823 C807 0.961 . S
H824 C808 0.931 . S
H825 C813 0.930 . S
H826 C814 0.956 . S
H827 C814 0.961 . S
H828 C814 0.961 . S
H829 C815 0.958 . S
H830 C815 0.961 . S
H831 C815 0.960 . S
C832 C833 1.391 . S
C832 C834 1.394 . S
C832 H848 0.931 . S
C833 C832 1.391 . S
C833 C837 1.376 . S
C834 C832 1.394 . S
C834 C835 1.369 . S
C834 C838 1.531 . S
C835 C834 1.369 . S
C835 C836 1.410 . S
C835 C843 1.503 . S
C836 C835 1.410 . S
C836 C837 1.392 . S
C836 C839 1.511 . S
C837 C833 1.376 . S
C837 C836 1.392 . S
C837 H849 0.929 . S
C838 C834 1.531 . S
C838 H850 0.960 . S
C838 H851 0.962 . S
C838 H852 0.960 . S
C839 C836 1.511 . S
C839 H853 0.961 . S
C839 H854 0.961 . S
C839 H855 0.961 . S
C840 C841 1.370 . S
C840 C842 1.363 . S
C840 H856 0.931 . S
C841 C840 1.370 . S
C841 C845 1.408 . S
C842 C840 1.363 . S
C842 C843 1.370 . S
C842 C846 1.524 . S
C843 C835 1.503 . S
C843 C842 1.370 . S
C843 C844 1.403 . S
C844 C843 1.403 . S
C844 C845 1.404 . S
C844 C847 1.539 . S
C845 C841 1.408 . S
C845 C844 1.404 . S
C845 H857 0.930 . S
C846 C842 1.524 . S
C846 H858 0.956 . S
C846 H859 0.961 . S
C846 H860 0.961 . S
C847 C844 1.539 . S
C847 H861 0.958 . S
C847 H862 0.961 . S
C847 H863 0.960 . S
H848 C832 0.931 . S
H849 C837 0.929 . S
H850 C838 0.960 . S
H851 C838 0.962 . S
H852 C838 0.960 . S
H853 C839 0.961 . S
H854 C839 0.961 . S
H855 C839 0.961 . S
H856 C840 0.931 . S
H857 C845 0.930 . S
H858 C846 0.956 . S
H859 C846 0.961 . S
H860 C846 0.961 . S
H861 C847 0.958 . S
H862 C847 0.961 . S
H863 C847 0.960 . S
C864 C865 1.391 . S
C864 C866 1.394 . S
C864 H880 0.931 . S
C865 C864 1.391 . S
C865 C869 1.376 . S
C866 C864 1.394 . S
C866 C867 1.369 . S
C866 C870 1.531 . S
C867 C866 1.369 . S
C867 C868 1.410 . S
C867 C875 1.503 . S
C868 C867 1.410 . S
C868 C869 1.392 . S
C868 C871 1.511 . S
C869 C865 1.376 . S
C869 C868 1.392 . S
C869 H881 0.929 . S
C870 C866 1.531 . S
C870 H882 0.960 . S
C870 H883 0.962 . S
C870 H884 0.960 . S
C871 C868 1.511 . S
C871 H885 0.961 . S
C871 H886 0.961 . S
C871 H887 0.961 . S
C872 C873 1.370 . S
C872 C874 1.363 . S
C872 H888 0.931 . S
C873 C872 1.370 . S
C873 C877 1.408 . S
C874 C872 1.363 . S
C874 C875 1.370 . S
C874 C878 1.524 . S
C875 C867 1.503 . S
C875 C874 1.370 . S
C875 C876 1.403 . S
C876 C875 1.403 . S
C876 C877 1.404 . S
C876 C879 1.539 . S
C877 C873 1.408 . S
C877 C876 1.404 . S
C877 H889 0.930 . S
C878 C874 1.524 . S
C878 H890 0.956 . S
C878 H891 0.961 . S
C878 H892 0.961 . S
C879 C876 1.539 . S
C879 H893 0.958 . S
C879 H894 0.961 . S
C879 H895 0.960 . S
H880 C864 0.931 . S
H881 C869 0.929 . S
H882 C870 0.960 . S
H883 C870 0.962 . S
H884 C870 0.960 . S
H885 C871 0.961 . S
H886 C871 0.961 . S
H887 C871 0.961 . S
H888 C872 0.931 . S
H889 C877 0.930 . S
H890 C878 0.956 . S
H891 C878 0.961 . S
H892 C878 0.961 . S
H893 C879 0.958 . S
H894 C879 0.961 . S
H895 C879 0.960 . S
C896 C897 1.391 . S
C896 C898 1.394 . S
C896 H912 0.931 . S
C897 C896 1.391 . S
C897 C901 1.376 . S
C898 C896 1.394 . S
C898 C899 1.369 . S
C898 C902 1.531 . S
C899 C898 1.369 . S
C899 C900 1.410 . S
C899 C907 1.503 . S
C900 C899 1.410 . S
C900 C901 1.392 . S
C900 C903 1.511 . S
C901 C897 1.376 . S
C901 C900 1.392 . S
C901 H913 0.929 . S
C902 C898 1.531 . S
C902 H914 0.960 . S
C902 H915 0.962 . S
C902 H916 0.960 . S
C903 C900 1.511 . S
C903 H917 0.961 . S
C903 H918 0.961 . S
C903 H919 0.961 . S
C904 C905 1.370 . S
C904 C906 1.363 . S
C904 H920 0.931 . S
C905 C904 1.370 . S
C905 C909 1.408 . S
C906 C904 1.363 . S
C906 C907 1.370 . S
C906 C910 1.524 . S
C907 C899 1.503 . S
C907 C906 1.370 . S
C907 C908 1.403 . S
C908 C907 1.403 . S
C908 C909 1.404 . S
C908 C911 1.539 . S
C909 C905 1.408 . S
C909 C908 1.404 . S
C909 H921 0.930 . S
C910 C906 1.524 . S
C910 H922 0.956 . S
C910 H923 0.961 . S
C910 H924 0.961 . S
C911 C908 1.539 . S
C911 H925 0.958 . S
C911 H926 0.961 . S
C911 H927 0.960 . S
H912 C896 0.931 . S
H913 C901 0.929 . S
H914 C902 0.960 . S
H915 C902 0.962 . S
H916 C902 0.960 . S
H917 C903 0.961 . S
H918 C903 0.961 . S
H919 C903 0.961 . S
H920 C904 0.931 . S
H921 C909 0.930 . S
H922 C910 0.956 . S
H923 C910 0.961 . S
H924 C910 0.961 . S
H925 C911 0.958 . S
H926 C911 0.961 . S
H927 C911 0.960 . S
C928 C929 1.391 . S
C928 C930 1.394 . S
C928 H944 0.931 . S
C929 C928 1.391 . S
C929 C933 1.376 . S
C930 C928 1.394 . S
C930 C931 1.369 . S
C930 C934 1.531 . S
C931 C930 1.369 . S
C931 C932 1.410 . S
C931 C939 1.503 . S
C932 C931 1.410 . S
C932 C933 1.392 . S
C932 C935 1.511 . S
C933 C929 1.376 . S
C933 C932 1.392 . S
C933 H945 0.929 . S
C934 C930 1.531 . S
C934 H946 0.960 . S
C934 H947 0.962 . S
C934 H948 0.960 . S
C935 C932 1.511 . S
C935 H949 0.961 . S
C935 H950 0.961 . S
C935 H951 0.961 . S
C936 C937 1.370 . S
C936 C938 1.363 . S
C936 H952 0.931 . S
C937 C936 1.370 . S
C937 C941 1.408 . S
C938 C936 1.363 . S
C938 C939 1.370 . S
C938 C942 1.524 . S
C939 C931 1.503 . S
C939 C938 1.370 . S
C939 C940 1.403 . S
C940 C939 1.403 . S
C940 C941 1.404 . S
C940 C943 1.539 . S
C941 C937 1.408 . S
C941 C940 1.404 . S
C941 H953 0.930 . S
C942 C938 1.524 . S
C942 H954 0.956 . S
C942 H955 0.961 . S
C942 H956 0.961 . S
C943 C940 1.539 . S
C943 H957 0.958 . S
C943 H958 0.961 . S
C943 H959 0.960 . S
H944 C928 0.931 . S
H945 C933 0.929 . S
H946 C934 0.960 . S
H947 C934 0.962 . S
H948 C934 0.960 . S
H949 C935 0.961 . S
H950 C935 0.961 . S
H951 C935 0.961 . S
H952 C936 0.931 . S
H953 C941 0.930 . S
H954 C942 0.956 . S
H955 C942 0.961 . S
H956 C942 0.961 . S
H957 C943 0.958 . S
H958 C943 0.961 . S
H959 C943 0.960 . S
C960 C961 1.391 . S
C960 C962 1.394 . S
C960 H976 0.931 . S
C961 C960 1.391 . S
C961 C965 1.376 . S
C962 C960 1.394 . S
C962 C963 1.369 . S
C962 C966 1.531 . S
C963 C962 1.369 . S
C963 C964 1.410 . S
C963 C971 1.503 . S
C964 C963 1.410 . S
C964 C965 1.392 . S
C964 C967 1.511 . S
C965 C961 1.376 . S
C965 C964 1.392 . S
C965 H977 0.929 . S
C966 C962 1.531 . S
C966 H978 0.960 . S
C966 H979 0.962 . S
C966 H980 0.960 . S
C967 C964 1.511 . S
C967 H981 0.961 . S
C967 H982 0.961 . S
C967 H983 0.961 . S
C968 C969 1.370 . S
C968 C970 1.363 . S
C968 H984 0.931 . S
C969 C968 1.370 . S
C969 C973 1.408 . S
C970 C968 1.363 . S
C970 C971 1.370 . S
C970 C974 1.524 . S
C971 C963 1.503 . S
C971 C970 1.370 . S
C971 C972 1.403 . S
C972 C971 1.403 . S
C972 C973 1.404 . S
C972 C975 1.539 . S
C973 C969 1.408 . S
C973 C972 1.404 . S
C973 H985 0.930 . S
C974 C970 1.524 . S
C974 H986 0.956 . S
C974 H987 0.961 . S
C974 H988 0.961 . S
C975 C972 1.539 . S
C975 H989 0.958 . S
C975 H990 0.961 . S
C975 H991 0.960 . S
H976 C960 0.931 . S
H977 C965 0.929 . S
H978 C966 0.960 . S
H979 C966 0.962 . S
H980 C966 0.960 . S
H981 C967 0.961 . S
H982 C967 0.961 . S
H983 C967 0.961 . S
H984 C968 0.931 . S
H985 C973 0.930 . S
H986 C974 0.956 . S
H987 C974 0.961 . S
H988 C974 0.961 . S
H989 C975 0.958 . S
H990 C975 0.961 . S
H991 C975 0.960 . S
C992 C993 1.391 . S
C992 C994 1.394 . S
C992 H1008 0.931 . S
C993 C992 1.391 . S
C993 C997 1.376 . S
C994 C992 1.394 . S
C994 C995 1.369 . S
C994 C998 1.531 . S
C995 C994 1.369 . S
C995 C996 1.410 . S
C995 C1003 1.503 . S
C996 C995 1.410 . S
C996 C997 1.392 . S
C996 C999 1.511 . S
C997 C993 1.376 . S
C997 C996 1.392 . S
C997 H1009 0.929 . S
C998 C994 1.531 . S
C998 H1010 0.960 . S
C998 H1011 0.962 . S
C998 H1012 0.960 . S
C999 C996 1.511 . S
C999 H1013 0.961 . S
C999 H1014 0.961 . S
C999 H1015 0.961 . S
C1000 C1001 1.370 . S
C1000 C1002 1.363 . S
C1000 H1016 0.931 . S
C1001 C1000 1.370 . S
C1001 C1005 1.408 . S
C1002 C1000 1.363 . S
C1002 C1003 1.370 . S
C1002 C1006 1.524 . S
C1003 C995 1.503 . S
C1003 C1002 1.370 . S
C1003 C1004 1.403 . S
C1004 C1003 1.403 . S
C1004 C1005 1.404 . S
C1004 C1007 1.539 . S
C1005 C1001 1.408 . S
C1005 C1004 1.404 . S
C1005 H1017 0.930 . S
C1006 C1002 1.524 . S
C1006 H1018 0.956 . S
C1006 H1019 0.961 . S
C1006 H1020 0.961 . S
C1007 C1004 1.539 . S
C1007 H1021 0.958 . S
C1007 H1022 0.961 . S
C1007 H1023 0.960 . S
H1008 C992 0.931 . S
H1009 C997 0.929 . S
H1010 C998 0.960 . S
H1011 C998 0.962 . S
H1012 C998 0.960 . S
H1013 C999 0.961 . S
H1014 C999 0.961 . S
H1015 C999 0.961 . S
H1016 C1000 0.931 . S
H1017 C1005 0.930 . S
H1018 C1006 0.956 . S
H1019 C1006 0.961 . S
H1020 C1006 0.961 . S
H1021 C1007 0.958 . S
H1022 C1007 0.961 . S
H1023 C1007 0.960 . S
C1024 C1025 1.391 . S
C1024 C1026 1.394 . S
C1024 H1040 0.931 . S
C1025 C1024 1.391 . S
C1025 C1029 1.376 . S
C1026 C1024 1.394 . S
C1026 C1027 1.369 . S
C1026 C1030 1.531 . S
C1027 C1026 1.369 . S
C1027 C1028 1.410 . S
C1027 C1035 1.503 . S
C1028 C1027 1.410 . S
C1028 C1029 1.392 . S
C1028 C1031 1.511 . S
C1029 C1025 1.376 . S
C1029 C1028 1.392 . S
C1029 H1041 0.929 . S
C1030 C1026 1.531 . S
C1030 H1042 0.960 . S
C1030 H1043 0.962 . S
C1030 H1044 0.960 . S
C1031 C1028 1.511 . S
C1031 H1045 0.961 . S
C1031 H1046 0.961 . S
C1031 H1047 0.961 . S
C1032 C1033 1.370 . S
C1032 C1034 1.363 . S
C1032 H1048 0.931 . S
C1033 C1032 1.370 . S
C1033 C1037 1.408 . S
C1034 C1032 1.363 . S
C1034 C1035 1.370 . S
C1034 C1038 1.524 . S
C1035 C1027 1.503 . S
C1035 C1034 1.370 . S
C1035 C1036 1.403 . S
C1036 C1035 1.403 . S
C1036 C1037 1.404 . S
C1036 C1039 1.539 . S
C1037 C1033 1.408 . S
C1037 C1036 1.404 . S
C1037 H1049 0.930 . S
C1038 C1034 1.524 . S
C1038 H1050 0.956 . S
C1038 H1051 0.961 . S
C1038 H1052 0.961 . S
C1039 C1036 1.539 . S
C1039 H1053 0.958 . S
C1039 H1054 0.961 . S
C1039 H1055 0.960 . S
H1040 C1024 0.931 . S
H1041 C1029 0.929 . S
H1042 C1030 0.960 . S
H1043 C1030 0.962 . S
H1044 C1030 0.960 . S
H1045 C1031 0.961 . S
H1046 C1031 0.961 . S
H1047 C1031 0.961 . S
H1048 C1032 0.931 . S
H1049 C1037 0.930 . S
H1050 C1038 0.956 . S
H1051 C1038 0.961 . S
H1052 C1038 0.961 . S
H1053 C1039 0.958 . S
H1054 C1039 0.961 . S
H1055 C1039 0.960 . S
C1056 C1057 1.391 . S
C1056 C1058 1.394 . S
C1056 H1072 0.931 . S
C1057 C1056 1.391 . S
C1057 C1061 1.376 . S
C1058 C1056 1.394 . S
C1058 C1059 1.369 . S
C1058 C1062 1.531 . S
C1059 C1058 1.369 . S
C1059 C1060 1.410 . S
C1059 C1067 1.503 . S
C1060 C1059 1.410 . S
C1060 C1061 1.392 . S
C1060 C1063 1.511 . S
C1061 C1057 1.376 . S
C1061 C1060 1.392 . S
C1061 H1073 0.929 . S
C1062 C1058 1.531 . S
C1062 H1074 0.960 . S
C1062 H1075 0.962 . S
C1062 H1076 0.960 . S
C1063 C1060 1.511 . S
C1063 H1077 0.961 . S
C1063 H1078 0.961 . S
C1063 H1079 0.961 . S
C1064 C1065 1.370 . S
C1064 C1066 1.363 . S
C1064 H1080 0.931 . S
C1065 C1064 1.370 . S
C1065 C1069 1.408 . S
C1066 C1064 1.363 . S
C1066 C1067 1.370 . S
C1066 C1070 1.524 . S
C1067 C1059 1.503 . S
C1067 C1066 1.370 . S
C1067 C1068 1.403 . S
C1068 C1067 1.403 . S
C1068 C1069 1.404 . S
C1068 C1071 1.539 . S
C1069 C1065 1.408 . S
C1069 C1068 1.404 . S
C1069 H1081 0.930 . S
C1070 C1066 1.524 . S
C1070 H1082 0.956 . S
C1070 H1083 0.961 . S
C1070 H1084 0.961 . S
C1071 C1068 1.539 . S
C1071 H1085 0.958 . S
C1071 H1086 0.961 . S
C1071 H1087 0.960 . S
H1072 C1056 0.931 . S
H1073 C1061 0.929 . S
H1074 C1062 0.960 . S
H1075 C1062 0.962 . S
H1076 C1062 0.960 . S
H1077 C1063 0.961 . S
H1078 C1063 0.961 . S
H1079 C1063 0.961 . S
H1080 C1064 0.931 . S
H1081 C1069 0.930 . S
H1082 C1070 0.956 . S
H1083 C1070 0.961 . S
H1084 C1070 0.961 . S
H1085 C1071 0.958 . S
H1086 C1071 0.961 . S
H1087 C1071 0.960 . S
C1088 C1089 1.391 . S
C1088 C1090 1.394 . S
C1088 H1104 0.931 . S
C1089 C1088 1.391 . S
C1089 C1093 1.376 . S
C1090 C1088 1.394 . S
C1090 C1091 1.369 . S
C1090 C1094 1.531 . S
C1091 C1090 1.369 . S
C1091 C1092 1.410 . S
C1091 C1099 1.503 . S
C1092 C1091 1.410 . S
C1092 C1093 1.392 . S
C1092 C1095 1.511 . S
C1093 C1089 1.376 . S
C1093 C1092 1.392 . S
C1093 H1105 0.929 . S
C1094 C1090 1.531 . S
C1094 H1106 0.960 . S
C1094 H1107 0.962 . S
C1094 H1108 0.960 . S
C1095 C1092 1.511 . S
C1095 H1109 0.961 . S
C1095 H1110 0.961 . S
C1095 H1111 0.961 . S
C1096 C1097 1.370 . S
C1096 C1098 1.363 . S
C1096 H1112 0.931 . S
C1097 C1096 1.370 . S
C1097 C1101 1.408 . S
C1098 C1096 1.363 . S
C1098 C1099 1.370 . S
C1098 C1102 1.524 . S
C1099 C1091 1.503 . S
C1099 C1098 1.370 . S
C1099 C1100 1.403 . S
C1100 C1099 1.403 . S
C1100 C1101 1.404 . S
C1100 C1103 1.539 . S
C1101 C1097 1.408 . S
C1101 C1100 1.404 . S
C1101 H1113 0.930 . S
C1102 C1098 1.524 . S
C1102 H1114 0.956 . S
C1102 H1115 0.961 . S
C1102 H1116 0.961 . S
C1103 C1100 1.539 . S
C1103 H1117 0.958 . S
C1103 H1118 0.961 . S
C1103 H1119 0.960 . S
H1104 C1088 0.931 . S
H1105 C1093 0.929 . S
H1106 C1094 0.960 . S
H1107 C1094 0.962 . S
H1108 C1094 0.960 . S
H1109 C1095 0.961 . S
H1110 C1095 0.961 . S
H1111 C1095 0.961 . S
H1112 C1096 0.931 . S
H1113 C1101 0.930 . S
H1114 C1102 0.956 . S
H1115 C1102 0.961 . S
H1116 C1102 0.961 . S
H1117 C1103 0.958 . S
H1118 C1103 0.961 . S
H1119 C1103 0.960 . S
C1120 C1121 1.391 . S
C1120 C1122 1.394 . S
C1120 H1136 0.931 . S
C1121 C1120 1.391 . S
C1121 C1125 1.376 . S
C1122 C1120 1.394 . S
C1122 C1123 1.369 . S
C1122 C1126 1.531 . S
C1123 C1122 1.369 . S
C1123 C1124 1.410 . S
C1123 C1131 1.503 . S
C1124 C1123 1.410 . S
C1124 C1125 1.392 . S
C1124 C1127 1.511 . S
C1125 C1121 1.376 . S
C1125 C1124 1.392 . S
C1125 H1137 0.929 . S
C1126 C1122 1.531 . S
C1126 H1138 0.960 . S
C1126 H1139 0.962 . S
C1126 H1140 0.960 . S
C1127 C1124 1.511 . S
C1127 H1141 0.961 . S
C1127 H1142 0.961 . S
C1127 H1143 0.961 . S
C1128 C1129 1.370 . S
C1128 C1130 1.363 . S
C1128 H1144 0.931 . S
C1129 C1128 1.370 . S
C1129 C1133 1.408 . S
C1130 C1128 1.363 . S
C1130 C1131 1.370 . S
C1130 C1134 1.524 . S
C1131 C1123 1.503 . S
C1131 C1130 1.370 . S
C1131 C1132 1.403 . S
C1132 C1131 1.403 . S
C1132 C1133 1.404 . S
C1132 C1135 1.539 . S
C1133 C1129 1.408 . S
C1133 C1132 1.404 . S
C1133 H1145 0.930 . S
C1134 C1130 1.524 . S
C1134 H1146 0.956 . S
C1134 H1147 0.961 . S
C1134 H1148 0.961 . S
C1135 C1132 1.539 . S
C1135 H1149 0.958 . S
C1135 H1150 0.961 . S
C1135 H1151 0.960 . S
H1136 C1120 0.931 . S
H1137 C1125 0.929 . S
H1138 C1126 0.960 . S
H1139 C1126 0.962 . S
H1140 C1126 0.960 . S
H1141 C1127 0.961 . S
H1142 C1127 0.961 . S
H1143 C1127 0.961 . S
H1144 C1128 0.931 . S
H1145 C1133 0.930 . S
H1146 C1134 0.956 . S
H1147 C1134 0.961 . S
H1148 C1134 0.961 . S
H1149 C1135 0.958 . S
H1150 C1135 0.961 . S
H1151 C1135 0.960 . S
C1152 C1153 1.391 . S
C1152 C1154 1.394 . S
C1152 H1168 0.931 . S
C1153 C1152 1.391 . S
C1153 C1157 1.376 . S
C1154 C1152 1.394 . S
C1154 C1155 1.369 . S
C1154 C1158 1.531 . S
C1155 C1154 1.369 . S
C1155 C1156 1.410 . S
C1155 C1163 1.503 . S
C1156 C1155 1.410 . S
C1156 C1157 1.392 . S
C1156 C1159 1.511 . S
C1157 C1153 1.376 . S
C1157 C1156 1.392 . S
C1157 H1169 0.929 . S
C1158 C1154 1.531 . S
C1158 H1170 0.960 . S
C1158 H1171 0.962 . S
C1158 H1172 0.960 . S
C1159 C1156 1.511 . S
C1159 H1173 0.961 . S
C1159 H1174 0.961 . S
C1159 H1175 0.961 . S
C1160 C1161 1.370 . S
C1160 C1162 1.363 . S
C1160 H1176 0.931 . S
C1161 C1160 1.370 . S
C1161 C1165 1.408 . S
C1162 C1160 1.363 . S
C1162 C1163 1.370 . S
C1162 C1166 1.524 . S
C1163 C1155 1.503 . S
C1163 C1162 1.370 . S
C1163 C1164 1.403 . S
C1164 C1163 1.403 . S
C1164 C1165 1.404 . S
C1164 C1167 1.539 . S
C1165 C1161 1.408 . S
C1165 C1164 1.404 . S
C1165 H1177 0.930 . S
C1166 C1162 1.524 . S
C1166 H1178 0.956 . S
C1166 H1179 0.961 . S
C1166 H1180 0.961 . S
C1167 C1164 1.539 . S
C1167 H1181 0.958 . S
C1167 H1182 0.961 . S
C1167 H1183 0.960 . S
H1168 C1152 0.931 . S
H1169 C1157 0.929 . S
H1170 C1158 0.960 . S
H1171 C1158 0.962 . S
H1172 C1158 0.960 . S
H1173 C1159 0.961 . S
H1174 C1159 0.961 . S
H1175 C1159 0.961 . S
H1176 C1160 0.931 . S
H1177 C1165 0.930 . S
H1178 C1166 0.956 . S
H1179 C1166 0.961 . S
H1180 C1166 0.961 . S
H1181 C1167 0.958 . S
H1182 C1167 0.961 . S
H1183 C1167 0.960 . S
C1184 C1185 1.391 . S
C1184 C1186 1.394 . S
C1184 H1200 0.931 . S
C1185 C1184 1.391 . S
C1185 C1189 1.376 . S
C1186 C1184 1.394 . S
C1186 C1187 1.369 . S
C1186 C1190 1.531 . S
C1187 C1186 1.369 . S
C1187 C1188 1.410 . S
C1187 C1195 1.503 . S
C1188 C1187 1.410 . S
C1188 C1189 1.392 . S
C1188 C1191 1.511 . S
C1189 C1185 1.376 . S
C1189 C1188 1.392 . S
C1189 H1201 0.929 . S
C1190 C1186 1.531 . S
C1190 H1202 0.960 . S
C1190 H1203 0.962 . S
C1190 H1204 0.960 . S
C1191 C1188 1.511 . S
C1191 H1205 0.961 . S
C1191 H1206 0.961 . S
C1191 H1207 0.961 . S
C1192 C1193 1.370 . S
C1192 C1194 1.363 . S
C1192 H1208 0.931 . S
C1193 C1192 1.370 . S
C1193 C1197 1.408 . S
C1194 C1192 1.363 . S
C1194 C1195 1.370 . S
C1194 C1198 1.524 . S
C1195 C1187 1.503 . S
C1195 C1194 1.370 . S
C1195 C1196 1.403 . S
C1196 C1195 1.403 . S
C1196 C1197 1.404 . S
C1196 C1199 1.539 . S
C1197 C1193 1.408 . S
C1197 C1196 1.404 . S
C1197 H1209 0.930 . S
C1198 C1194 1.524 . S
C1198 H1210 0.956 . S
C1198 H1211 0.961 . S
C1198 H1212 0.961 . S
C1199 C1196 1.539 . S
C1199 H1213 0.958 . S
C1199 H1214 0.961 . S
C1199 H1215 0.960 . S
H1200 C1184 0.931 . S
H1201 C1189 0.929 . S
H1202 C1190 0.960 . S
H1203 C1190 0.962 . S
H1204 C1190 0.960 . S
H1205 C1191 0.961 . S
H1206 C1191 0.961 . S
H1207 C1191 0.961 . S
H1208 C1192 0.931 . S
H1209 C1197 0.930 . S
H1210 C1198 0.956 . S
H1211 C1198 0.961 . S
H1212 C1198 0.961 . S
H1213 C1199 0.958 . S
H1214 C1199 0.961 . S
H1215 C1199 0.960 . S
C1216 C1217 1.391 . S
C1216 C1218 1.394 . S
C1216 H1232 0.931 . S
C1217 C1216 1.391 . S
C1217 C1221 1.376 . S
C1218 C1216 1.394 . S
C1218 C1219 1.369 . S
C1218 C1222 1.531 . S
C1219 C1218 1.369 . S
C1219 C1220 1.410 . S
C1219 C1227 1.503 . S
C1220 C1219 1.410 . S
C1220 C1221 1.392 . S
C1220 C1223 1.511 . S
C1221 C1217 1.376 . S
C1221 C1220 1.392 . S
C1221 H1233 0.929 . S
C1222 C1218 1.531 . S
C1222 H1234 0.960 . S
C1222 H1235 0.962 . S
C1222 H1236 0.960 . S
C1223 C1220 1.511 . S
C1223 H1237 0.961 . S
C1223 H1238 0.961 . S
C1223 H1239 0.961 . S
C1224 C1225 1.370 . S
C1224 C1226 1.363 . S
C1224 H1240 0.931 . S
C1225 C1224 1.370 . S
C1225 C1229 1.408 . S
C1226 C1224 1.363 . S
C1226 C1227 1.370 . S
C1226 C1230 1.524 . S
C1227 C1219 1.503 . S
C1227 C1226 1.370 . S
C1227 C1228 1.403 . S
C1228 C1227 1.403 . S
C1228 C1229 1.404 . S
C1228 C1231 1.539 . S
C1229 C1225 1.408 . S
C1229 C1228 1.404 . S
C1229 H1241 0.930 . S
C1230 C1226 1.524 . S
C1230 H1242 0.956 . S
C1230 H1243 0.961 . S
C1230 H1244 0.961 . S
C1231 C1228 1.539 . S
C1231 H1245 0.958 . S
C1231 H1246 0.961 . S
C1231 H1247 0.960 . S
H1232 C1216 0.931 . S
H1233 C1221 0.929 . S
H1234 C1222 0.960 . S
H1235 C1222 0.962 . S
H1236 C1222 0.960 . S
H1237 C1223 0.961 . S
H1238 C1223 0.961 . S
H1239 C1223 0.961 . S
H1240 C1224 0.931 . S
H1241 C1229 0.930 . S
H1242 C1230 0.956 . S
H1243 C1230 0.961 . S
H1244 C1230 0.961 . S
H1245 C1231 0.958 . S
H1246 C1231 0.961 . S
H1247 C1231 0.960 . S
C1248 C1249 1.391 . S
C1248 C1250 1.394 . S
C1248 H1264 0.931 . S
C1249 C1248 1.391 . S
C1249 C1253 1.376 . S
C1250 C1248 1.394 . S
C1250 C1251 1.369 . S
C1250 C1254 1.531 . S
C1251 C1250 1.369 . S
C1251 C1252 1.410 . S
C1251 C1259 1.503 . S
C1252 C1251 1.410 . S
C1252 C1253 1.392 . S
C1252 C1255 1.511 . S
C1253 C1249 1.376 . S
C1253 C1252 1.392 . S
C1253 H1265 0.929 . S
C1254 C1250 1.531 . S
C1254 H1266 0.960 . S
C1254 H1267 0.962 . S
C1254 H1268 0.960 . S
C1255 C1252 1.511 . S
C1255 H1269 0.961 . S
C1255 H1270 0.961 . S
C1255 H1271 0.961 . S
C1256 C1257 1.370 . S
C1256 C1258 1.363 . S
C1256 H1272 0.931 . S
C1257 C1256 1.370 . S
C1257 C1261 1.408 . S
C1258 C1256 1.363 . S
C1258 C1259 1.370 . S
C1258 C1262 1.524 . S
C1259 C1251 1.503 . S
C1259 C1258 1.370 . S
C1259 C1260 1.403 . S
C1260 C1259 1.403 . S
C1260 C1261 1.404 . S
C1260 C1263 1.539 . S
C1261 C1257 1.408 . S
C1261 C1260 1.404 . S
C1261 H1273 0.930 . S
C1262 C1258 1.524 . S
C1262 H1274 0.956 . S
C1262 H1275 0.961 . S
C1262 H1276 0.961 . S
C1263 C1260 1.539 . S
C1263 H1277 0.958 . S
C1263 H1278 0.961 . S
C1263 H1279 0.960 . S
H1264 C1248 0.931 . S
H1265 C1253 0.929 . S
H1266 C1254 0.960 . S
H1267 C1254 0.962 . S
H1268 C1254 0.960 . S
H1269 C1255 0.961 . S
H1270 C1255 0.961 . S
H1271 C1255 0.961 . S
H1272 C1256 0.931 . S
H1273 C1261 0.930 . S
H1274 C1262 0.956 . S
H1275 C1262 0.961 . S
H1276 C1262 0.961 . S
H1277 C1263 0.958 . S
H1278 C1263 0.961 . S
H1279 C1263 0.960 . S
C1280 C1281 1.391 . S
C1280 C1282 1.394 . S
C1280 H1296 0.931 . S
C1281 C1280 1.391 . S
C1281 C1285 1.376 . S
C1282 C1280 1.394 . S
C1282 C1283 1.369 . S
C1282 C1286 1.531 . S
C1283 C1282 1.369 . S
C1283 C1284 1.410 . S
C1283 C1291 1.503 . S
C1284 C1283 1.410 . S
C1284 C1285 1.392 . S
C1284 C1287 1.511 . S
C1285 C1281 1.376 . S
C1285 C1284 1.392 . S
C1285 H1297 0.929 . S
C1286 C1282 1.531 . S
C1286 H1298 0.960 . S
C1286 H1299 0.962 . S
C1286 H1300 0.960 . S
C1287 C1284 1.511 . S
C1287 H1301 0.961 . S
C1287 H1302 0.961 . S
C1287 H1303 0.961 . S
C1288 C1289 1.370 . S
C1288 C1290 1.363 . S
C1288 H1304 0.931 . S
C1289 C1288 1.370 . S
C1289 C1293 1.408 . S
C1290 C1288 1.363 . S
C1290 C1291 1.370 . S
C1290 C1294 1.524 . S
C1291 C1283 1.503 . S
C1291 C1290 1.370 . S
C1291 C1292 1.403 . S
C1292 C1291 1.403 . S
C1292 C1293 1.404 . S
C1292 C1295 1.539 . S
C1293 C1289 1.408 . S
C1293 C1292 1.404 . S
C1293 H1305 0.930 . S
C1294 C1290 1.524 . S
C1294 H1306 0.956 . S
C1294 H1307 0.961 . S
C1294 H1308 0.961 . S
C1295 C1292 1.539 . S
C1295 H1309 0.958 . S
C1295 H1310 0.961 . S
C1295 H1311 0.960 . S
H1296 C1280 0.931 . S
H1297 C1285 0.929 . S
H1298 C1286 0.960 . S
H1299 C1286 0.962 . S
H1300 C1286 0.960 . S
H1301 C1287 0.961 . S
H1302 C1287 0.961 . S
H1303 C1287 0.961 . S
H1304 C1288 0.931 . S
H1305 C1293 0.930 . S
H1306 C1294 0.956 . S
H1307 C1294 0.961 . S
H1308 C1294 0.961 . S
H1309 C1295 0.958 . S
H1310 C1295 0.961 . S
H1311 C1295 0.960 . S
C1312 C1313 1.391 . S
C1312 C1314 1.394 . S
C1312 H1328 0.931 . S
C1313 C1312 1.391 . S
C1313 C1317 1.376 . S
C1314 C1312 1.394 . S
C1314 C1315 1.369 . S
C1314 C1318 1.531 . S
C1315 C1314 1.369 . S
C1315 C1316 1.410 . S
C1315 C1323 1.503 . S
C1316 C1315 1.410 . S
C1316 C1317 1.392 . S
C1316 C1319 1.511 . S
C1317 C1313 1.376 . S
C1317 C1316 1.392 . S
C1317 H1329 0.929 . S
C1318 C1314 1.531 . S
C1318 H1330 0.960 . S
C1318 H1331 0.962 . S
C1318 H1332 0.960 . S
C1319 C1316 1.511 . S
C1319 H1333 0.961 . S
C1319 H1334 0.961 . S
C1319 H1335 0.961 . S
C1320 C1321 1.370 . S
C1320 C1322 1.363 . S
C1320 H1336 0.931 . S
C1321 C1320 1.370 . S
C1321 C1325 1.408 . S
C1322 C1320 1.363 . S
C1322 C1323 1.370 . S
C1322 C1326 1.524 . S
C1323 C1315 1.503 . S
C1323 C1322 1.370 . S
C1323 C1324 1.403 . S
C1324 C1323 1.403 . S
C1324 C1325 1.404 . S
C1324 C1327 1.539 . S
C1325 C1321 1.408 . S
C1325 C1324 1.404 . S
C1325 H1337 0.930 . S
C1326 C1322 1.524 . S
C1326 H1338 0.956 . S
C1326 H1339 0.961 . S
C1326 H1340 0.961 . S
C1327 C1324 1.539 . S
C1327 H1341 0.958 . S
C1327 H1342 0.961 . S
C1327 H1343 0.960 . S
H1328 C1312 0.931 . S
H1329 C1317 0.929 . S
H1330 C1318 0.960 . S
H1331 C1318 0.962 . S
H1332 C1318 0.960 . S
H1333 C1319 0.961 . S
H1334 C1319 0.961 . S
H1335 C1319 0.961 . S
H1336 C1320 0.931 . S
H1337 C1325 0.930 . S
H1338 C1326 0.956 . S
H1339 C1326 0.961 . S
H1340 C1326 0.961 . S
H1341 C1327 0.958 . S
H1342 C1327 0.961 . S
H1343 C1327 0.960 . S
C1344 C1345 1.391 . S
C1344 C1346 1.394 . S
C1344 H1360 0.931 . S
C1345 C1344 1.391 . S
C1345 C1349 1.376 . S
C1346 C1344 1.394 . S
C1346 C1347 1.369 . S
C1346 C1350 1.531 . S
C1347 C1346 1.369 . S
C1347 C1348 1.410 . S
C1347 C1355 1.503 . S
C1348 C1347 1.410 . S
C1348 C1349 1.392 . S
C1348 C1351 1.511 . S
C1349 C1345 1.376 . S
C1349 C1348 1.392 . S
C1349 H1361 0.929 . S
C1350 C1346 1.531 . S
C1350 H1362 0.960 . S
C1350 H1363 0.962 . S
C1350 H1364 0.960 . S
C1351 C1348 1.511 . S
C1351 H1365 0.961 . S
C1351 H1366 0.961 . S
C1351 H1367 0.961 . S
C1352 C1353 1.370 . S
C1352 C1354 1.363 . S
C1352 H1368 0.931 . S
C1353 C1352 1.370 . S
C1353 C1357 1.408 . S
C1354 C1352 1.363 . S
C1354 C1355 1.370 . S
C1354 C1358 1.524 . S
C1355 C1347 1.503 . S
C1355 C1354 1.370 . S
C1355 C1356 1.403 . S
C1356 C1355 1.403 . S
C1356 C1357 1.404 . S
C1356 C1359 1.539 . S
C1357 C1353 1.408 . S
C1357 C1356 1.404 . S
C1357 H1369 0.930 . S
C1358 C1354 1.524 . S
C1358 H1370 0.956 . S
C1358 H1371 0.961 . S
C1358 H1372 0.961 . S
C1359 C1356 1.539 . S
C1359 H1373 0.958 . S
C1359 H1374 0.961 . S
C1359 H1375 0.960 . S
H1360 C1344 0.931 . S
H1361 C1349 0.929 . S
H1362 C1350 0.960 . S
H1363 C1350 0.962 . S
H1364 C1350 0.960 . S
H1365 C1351 0.961 . S
H1366 C1351 0.961 . S
H1367 C1351 0.961 . S
H1368 C1352 0.931 . S
H1369 C1357 0.930 . S
H1370 C1358 0.956 . S
H1371 C1358 0.961 . S
H1372 C1358 0.961 . S
H1373 C1359 0.958 . S
H1374 C1359 0.961 . S
H1375 C1359 0.960 . S
C1376 C1377 1.391 . S
C1376 C1378 1.394 . S
C1376 H1392 0.931 . S
C1377 C1376 1.391 . S
C1377 C1381 1.376 . S
C1378 C1376 1.394 . S
C1378 C1379 1.369 . S
C1378 C1382 1.531 . S
C1379 C1378 1.369 . S
C1379 C1380 1.410 . S
C1379 C1387 1.503 . S
C1380 C1379 1.410 . S
C1380 C1381 1.392 . S
C1380 C1383 1.511 . S
C1381 C1377 1.376 . S
C1381 C1380 1.392 . S
C1381 H1393 0.929 . S
C1382 C1378 1.531 . S
C1382 H1394 0.960 . S
C1382 H1395 0.962 . S
C1382 H1396 0.960 . S
C1383 C1380 1.511 . S
C1383 H1397 0.961 . S
C1383 H1398 0.961 . S
C1383 H1399 0.961 . S
C1384 C1385 1.370 . S
C1384 C1386 1.363 . S
C1384 H1400 0.931 . S
C1385 C1384 1.370 . S
C1385 C1389 1.408 . S
C1386 C1384 1.363 . S
C1386 C1387 1.370 . S
C1386 C1390 1.524 . S
C1387 C1379 1.503 . S
C1387 C1386 1.370 . S
C1387 C1388 1.403 . S
C1388 C1387 1.403 . S
C1388 C1389 1.404 . S
C1388 C1391 1.539 . S
C1389 C1385 1.408 . S
C1389 C1388 1.404 . S
C1389 H1401 0.930 . S
C1390 C1386 1.524 . S
C1390 H1402 0.956 . S
C1390 H1403 0.961 . S
C1390 H1404 0.961 . S
C1391 C1388 1.539 . S
C1391 H1405 0.958 . S
C1391 H1406 0.961 . S
C1391 H1407 0.960 . S
H1392 C1376 0.931 . S
H1393 C1381 0.929 . S
H1394 C1382 0.960 . S
H1395 C1382 0.962 . S
H1396 C1382 0.960 . S
H1397 C1383 0.961 . S
H1398 C1383 0.961 . S
H1399 C1383 0.961 . S
H1400 C1384 0.931 . S
H1401 C1389 0.930 . S
H1402 C1390 0.956 . S
H1403 C1390 0.961 . S
H1404 C1390 0.961 . S
H1405 C1391 0.958 . S
H1406 C1391 0.961 . S
H1407 C1391 0.960 . S
C1408 C1409 1.391 . S
C1408 C1410 1.394 . S
C1408 H1424 0.931 . S
C1409 C1408 1.391 . S
C1409 C1413 1.376 . S
C1410 C1408 1.394 . S
C1410 C1411 1.369 . S
C1410 C1414 1.531 . S
C1411 C1410 1.369 . S
C1411 C1412 1.410 . S
C1411 C1419 1.503 . S
C1412 C1411 1.410 . S
C1412 C1413 1.392 . S
C1412 C1415 1.511 . S
C1413 C1409 1.376 . S
C1413 C1412 1.392 . S
C1413 H1425 0.929 . S
C1414 C1410 1.531 . S
C1414 H1426 0.960 . S
C1414 H1427 0.962 . S
C1414 H1428 0.960 . S
C1415 C1412 1.511 . S
C1415 H1429 0.961 . S
C1415 H1430 0.961 . S
C1415 H1431 0.961 . S
C1416 C1417 1.370 . S
C1416 C1418 1.363 . S
C1416 H1432 0.931 . S
C1417 C1416 1.370 . S
C1417 C1421 1.408 . S
C1418 C1416 1.363 . S
C1418 C1419 1.370 . S
C1418 C1422 1.524 . S
C1419 C1411 1.503 . S
C1419 C1418 1.370 . S
C1419 C1420 1.403 . S
C1420 C1419 1.403 . S
C1420 C1421 1.404 . S
C1420 C1423 1.539 . S
C1421 C1417 1.408 . S
C1421 C1420 1.404 . S
C1421 H1433 0.930 . S
C1422 C1418 1.524 . S
C1422 H1434 0.956 . S
C1422 H1435 0.961 . S
C1422 H1436 0.961 . S
C1423 C1420 1.539 . S
C1423 H1437 0.958 . S
C1423 H1438 0.961 . S
C1423 H1439 0.960 . S
H1424 C1408 0.931 . S
H1425 C1413 0.929 . S
H1426 C1414 0.960 . S
H1427 C1414 0.962 . S
H1428 C1414 0.960 . S
H1429 C1415 0.961 . S
H1430 C1415 0.961 . S
H1431 C1415 0.961 . S
H1432 C1416 0.931 . S
H1433 C1421 0.930 . S
H1434 C1422 0.956 . S
H1435 C1422 0.961 . S
H1436 C1422 0.961 . S
H1437 C1423 0.958 . S
H1438 C1423 0.961 . S
H1439 C1423 0.960 . S
C1440 C1441 1.391 . S
C1440 C1442 1.394 . S
C1440 H1456 0.931 . S
C1441 C1440 1.391 . S
C1441 C1445 1.376 . S
C1442 C1440 1.394 . S
C1442 C1443 1.369 . S
C1442 C1446 1.531 . S
C1443 C1442 1.369 . S
C1443 C1444 1.410 . S
C1443 C1451 1.503 . S
C1444 C1443 1.410 . S
C1444 C1445 1.392 . S
C1444 C1447 1.511 . S
C1445 C1441 1.376 . S
C1445 C1444 1.392 . S
C1445 H1457 0.929 . S
C1446 C1442 1.531 . S
C1446 H1458 0.960 . S
C1446 H1459 0.962 . S
C1446 H1460 0.960 . S
C1447 C1444 1.511 . S
C1447 H1461 0.961 . S
C1447 H1462 0.961 . S
C1447 H1463 0.961 . S
C1448 C1449 1.370 . S
C1448 C1450 1.363 . S
C1448 H1464 0.931 . S
C1449 C1448 1.370 . S
C1449 C1453 1.408 . S
C1450 C1448 1.363 . S
C1450 C1451 1.370 . S
C1450 C1454 1.524 . S
C1451 C1443 1.503 . S
C1451 C1450 1.370 . S
C1451 C1452 1.403 . S
C1452 C1451 1.403 . S
C1452 C1453 1.404 . S
C1452 C1455 1.539 . S
C1453 C1449 1.408 . S
C1453 C1452 1.404 . S
C1453 H1465 0.930 . S
C1454 C1450 1.524 . S
C1454 H1466 0.956 . S
C1454 H1467 0.961 . S
C1454 H1468 0.961 . S
C1455 C1452 1.539 . S
C1455 H1469 0.958 . S
C1455 H1470 0.961 . S
C1455 H1471 0.960 . S
H1456 C1440 0.931 . S
H1457 C1445 0.929 . S
H1458 C1446 0.960 . S
H1459 C1446 0.962 . S
H1460 C1446 0.960 . S
H1461 C1447 0.961 . S
H1462 C1447 0.961 . S
H1463 C1447 0.961 . S
H1464 C1448 0.931 . S
H1465 C1453 0.930 . S
H1466 C1454 0.956 . S
H1467 C1454 0.961 . S
H1468 C1454 0.961 . S
H1469 C1455 0.958 . S
H1470 C1455 0.961 . S
H1471 C1455 0.960 . S
C1472 C1473 1.391 . S
C1472 C1474 1.394 . S
C1472 H1488 0.931 . S
C1473 C1472 1.391 . S
C1473 C1477 1.376 . S
C1474 C1472 1.394 . S
C1474 C1475 1.369 . S
C1474 C1478 1.531 . S
C1475 C1474 1.369 . S
C1475 C1476 1.410 . S
C1475 C1483 1.503 . S
C1476 C1475 1.410 . S
C1476 C1477 1.392 . S
C1476 C1479 1.511 . S
C1477 C1473 1.376 . S
C1477 C1476 1.392 . S
C1477 H1489 0.929 . S
C1478 C1474 1.531 . S
C1478 H1490 0.960 . S
C1478 H1491 0.962 . S
C1478 H1492 0.960 . S
C1479 C1476 1.511 . S
C1479 H1493 0.961 . S
C1479 H1494 0.961 . S
C1479 H1495 0.961 . S
C1480 C1481 1.370 . S
C1480 C1482 1.363 . S
C1480 H1496 0.931 . S
C1481 C1480 1.370 . S
C1481 C1485 1.408 . S
C1482 C1480 1.363 . S
C1482 C1483 1.370 . S
C1482 C1486 1.524 . S
C1483 C1475 1.503 . S
C1483 C1482 1.370 . S
C1483 C1484 1.403 . S
C1484 C1483 1.403 . S
C1484 C1485 1.404 . S
C1484 C1487 1.539 . S
C1485 C1481 1.408 . S
C1485 C1484 1.404 . S
C1485 H1497 0.930 . S
C1486 C1482 1.524 . S
C1486 H1498 0.956 . S
C1486 H1499 0.961 . S
C1486 H1500 0.961 . S
C1487 C1484 1.539 . S
C1487 H1501 0.958 . S
C1487 H1502 0.961 . S
C1487 H1503 0.960 . S
H1488 C1472 0.931 . S
H1489 C1477 0.929 . S
H1490 C1478 0.960 . S
H1491 C1478 0.962 . S
H1492 C1478 0.960 . S
H1493 C1479 0.961 . S
H1494 C1479 0.961 . S
H1495 C1479 0.961 . S
H1496 C1480 0.931 . S
H1497 C1485 0.930 . S
H1498 C1486 0.956 . S
H1499 C1486 0.961 . S
H1500 C1486 0.961 . S
H1501 C1487 0.958 . S
H1502 C1487 0.961 . S
H1503 C1487 0.960 . S
C1504 C1505 1.391 . S
C1504 C1506 1.394 . S
C1504 H1520 0.931 . S
C1505 C1504 1.391 . S
C1505 C1509 1.376 . S
C1506 C1504 1.394 . S
C1506 C1507 1.369 . S
C1506 C1510 1.531 . S
C1507 C1506 1.369 . S
C1507 C1508 1.410 . S
C1507 C1515 1.503 . S
C1508 C1507 1.410 . S
C1508 C1509 1.392 . S
C1508 C1511 1.511 . S
C1509 C1505 1.376 . S
C1509 C1508 1.392 . S
C1509 H1521 0.929 . S
C1510 C1506 1.531 . S
C1510 H1522 0.960 . S
C1510 H1523 0.962 . S
C1510 H1524 0.960 . S
C1511 C1508 1.511 . S
C1511 H1525 0.961 . S
C1511 H1526 0.961 . S
C1511 H1527 0.961 . S
C1512 C1513 1.370 . S
C1512 C1514 1.363 . S
C1512 H1528 0.931 . S
C1513 C1512 1.370 . S
C1513 C1517 1.408 . S
C1514 C1512 1.363 . S
C1514 C1515 1.370 . S
C1514 C1518 1.524 . S
C1515 C1507 1.503 . S
C1515 C1514 1.370 . S
C1515 C1516 1.403 . S
C1516 C1515 1.403 . S
C1516 C1517 1.404 . S
C1516 C1519 1.539 . S
C1517 C1513 1.408 . S
C1517 C1516 1.404 . S
C1517 H1529 0.930 . S
C1518 C1514 1.524 . S
C1518 H1530 0.956 . S
C1518 H1531 0.961 . S
C1518 H1532 0.961 . S
C1519 C1516 1.539 . S
C1519 H1533 0.958 . S
C1519 H1534 0.961 . S
C1519 H1535 0.960 . S
H1520 C1504 0.931 . S
H1521 C1509 0.929 . S
H1522 C1510 0.960 . S
H1523 C1510 0.962 . S
H1524 C1510 0.960 . S
H1525 C1511 0.961 . S
H1526 C1511 0.961 . S
H1527 C1511 0.961 . S
H1528 C1512 0.931 . S
H1529 C1517 0.930 . S
H1530 C1518 0.956 . S
H1531 C1518 0.961 . S
H1532 C1518 0.961 . S
H1533 C1519 0.958 . S
H1534 C1519 0.961 . S
H1535 C1519 0.960 . S
C1536 C1537 1.391 . S
C1536 C1538 1.394 . S
C1536 H1552 0.931 . S
C1537 C1536 1.391 . S
C1537 C1541 1.376 . S
C1538 C1536 1.394 . S
C1538 C1539 1.369 . S
C1538 C1542 1.531 . S
C1539 C1538 1.369 . S
C1539 C1540 1.410 . S
C1539 C1547 1.503 . S
C1540 C1539 1.410 . S
C1540 C1541 1.392 . S
C1540 C1543 1.511 . S
C1541 C1537 1.376 . S
C1541 C1540 1.392 . S
C1541 H1553 0.929 . S
C1542 C1538 1.531 . S
C1542 H1554 0.960 . S
C1542 H1555 0.962 . S
C1542 H1556 0.960 . S
C1543 C1540 1.511 . S
C1543 H1557 0.961 . S
C1543 H1558 0.961 . S
C1543 H1559 0.961 . S
C1544 C1545 1.370 . S
C1544 C1546 1.363 . S
C1544 H1560 0.931 . S
C1545 C1544 1.370 . S
C1545 C1549 1.408 . S
C1546 C1544 1.363 . S
C1546 C1547 1.370 . S
C1546 C1550 1.524 . S
C1547 C1539 1.503 . S
C1547 C1546 1.370 . S
C1547 C1548 1.403 . S
C1548 C1547 1.403 . S
C1548 C1549 1.404 . S
C1548 C1551 1.539 . S
C1549 C1545 1.408 . S
C1549 C1548 1.404 . S
C1549 H1561 0.930 . S
C1550 C1546 1.524 . S
C1550 H1562 0.956 . S
C1550 H1563 0.961 . S
C1550 H1564 0.961 . S
C1551 C1548 1.539 . S
C1551 H1565 0.958 . S
C1551 H1566 0.961 . S
C1551 H1567 0.960 . S
H1552 C1536 0.931 . S
H1553 C1541 0.929 . S
H1554 C1542 0.960 . S
H1555 C1542 0.962 . S
H1556 C1542 0.960 . S
H1557 C1543 0.961 . S
H1558 C1543 0.961 . S
H1559 C1543 0.961 . S
H1560 C1544 0.931 . S
H1561 C1549 0.930 . S
H1562 C1550 0.956 . S
H1563 C1550 0.961 . S
H1564 C1550 0.961 . S
H1565 C1551 0.958 . S
H1566 C1551 0.961 . S
H1567 C1551 0.960 . S
C1568 C1569 1.391 . S
C1568 C1570 1.394 . S
C1568 H1584 0.931 . S
C1569 C1568 1.391 . S
C1569 C1573 1.376 . S
C1570 C1568 1.394 . S
C1570 C1571 1.369 . S
C1570 C1574 1.531 . S
C1571 C1570 1.369 . S
C1571 C1572 1.410 . S
C1571 C1579 1.503 . S
C1572 C1571 1.410 . S
C1572 C1573 1.392 . S
C1572 C1575 1.511 . S
C1573 C1569 1.376 . S
C1573 C1572 1.392 . S
C1573 H1585 0.929 . S
C1574 C1570 1.531 . S
C1574 H1586 0.960 . S
C1574 H1587 0.962 . S
C1574 H1588 0.960 . S
C1575 C1572 1.511 . S
C1575 H1589 0.961 . S
C1575 H1590 0.961 . S
C1575 H1591 0.961 . S
C1576 C1577 1.370 . S
C1576 C1578 1.363 . S
C1576 H1592 0.931 . S
C1577 C1576 1.370 . S
C1577 C1581 1.408 . S
C1578 C1576 1.363 . S
C1578 C1579 1.370 . S
C1578 C1582 1.524 . S
C1579 C1571 1.503 . S
C1579 C1578 1.370 . S
C1579 C1580 1.403 . S
C1580 C1579 1.403 . S
C1580 C1581 1.404 . S
C1580 C1583 1.539 . S
C1581 C1577 1.408 . S
C1581 C1580 1.404 . S
C1581 H1593 0.930 . S
C1582 C1578 1.524 . S
C1582 H1594 0.956 . S
C1582 H1595 0.961 . S
C1582 H1596 0.961 . S
C1583 C1580 1.539 . S
C1583 H1597 0.958 . S
C1583 H1598 0.961 . S
C1583 H1599 0.960 . S
H1584 C1568 0.931 . S
H1585 C1573 0.929 . S
H1586 C1574 0.960 . S
H1587 C1574 0.962 . S
H1588 C1574 0.960 . S
H1589 C1575 0.961 . S
H1590 C1575 0.961 . S
H1591 C1575 0.961 . S
H1592 C1576 0.931 . S
H1593 C1581 0.930 . S
H1594 C1582 0.956 . S
H1595 C1582 0.961 . S
H1596 C1582 0.961 . S
H1597 C1583 0.958 . S
H1598 C1583 0.961 . S
H1599 C1583 0.960 . S
C1600 C1601 1.391 . S
C1600 C1602 1.394 . S
C1600 H1616 0.931 . S
C1601 C1600 1.391 . S
C1601 C1605 1.376 . S
C1602 C1600 1.394 . S
C1602 C1603 1.369 . S
C1602 C1606 1.531 . S
C1603 C1602 1.369 . S
C1603 C1604 1.410 . S
C1603 C1611 1.503 . S
C1604 C1603 1.410 . S
C1604 C1605 1.392 . S
C1604 C1607 1.511 . S
C1605 C1601 1.376 . S
C1605 C1604 1.392 . S
C1605 H1617 0.929 . S
C1606 C1602 1.531 . S
C1606 H1618 0.960 . S
C1606 H1619 0.962 . S
C1606 H1620 0.960 . S
C1607 C1604 1.511 . S
C1607 H1621 0.961 . S
C1607 H1622 0.961 . S
C1607 H1623 0.961 . S
C1608 C1609 1.370 . S
C1608 C1610 1.363 . S
C1608 H1624 0.931 . S
C1609 C1608 1.370 . S
C1609 C1613 1.408 . S
C1610 C1608 1.363 . S
C1610 C1611 1.370 . S
C1610 C1614 1.524 . S
C1611 C1603 1.503 . S
C1611 C1610 1.370 . S
C1611 C1612 1.403 . S
C1612 C1611 1.403 . S
C1612 C1613 1.404 . S
C1612 C1615 1.539 . S
C1613 C1609 1.408 . S
C1613 C1612 1.404 . S
C1613 H1625 0.930 . S
C1614 C1610 1.524 . S
C1614 H1626 0.956 . S
C1614 H1627 0.961 . S
C1614 H1628 0.961 . S
C1615 C1612 1.539 . S
C1615 H1629 0.958 . S
C1615 H1630 0.961 . S
C1615 H1631 0.960 . S
H1616 C1600 0.931 . S
H1617 C1605 0.929 . S
H1618 C1606 0.960 . S
H1619 C1606 0.962 . S
H1620 C1606 0.960 . S
H1621 C1607 0.961 . S
H1622 C1607 0.961 . S
H1623 C1607 0.961 . S
H1624 C1608 0.931 . S
H1625 C1613 0.930 . S
H1626 C1614 0.956 . S
H1627 C1614 0.961 . S
H1628 C1614 0.961 . S
H1629 C1615 0.958 . S
H1630 C1615 0.961 . S
H1631 C1615 0.960 . S
C1632 C1633 1.391 . S
C1632 C1634 1.394 . S
C1632 H1648 0.931 . S
C1633 C1632 1.391 . S
C1633 C1637 1.376 . S
C1634 C1632 1.394 . S
C1634 C1635 1.369 . S
C1634 C1638 1.531 . S
C1635 C1634 1.369 . S
C1635 C1636 1.410 . S
C1635 C1643 1.503 . S
C1636 C1635 1.410 . S
C1636 C1637 1.392 . S
C1636 C1639 1.511 . S
C1637 C1633 1.376 . S
C1637 C1636 1.392 . S
C1637 H1649 0.929 . S
C1638 C1634 1.531 . S
C1638 H1650 0.960 . S
C1638 H1651 0.962 . S
C1638 H1652 0.960 . S
C1639 C1636 1.511 . S
C1639 H1653 0.961 . S
C1639 H1654 0.961 . S
C1639 H1655 0.961 . S
C1640 C1641 1.370 . S
C1640 C1642 1.363 . S
C1640 H1656 0.931 . S
C1641 C1640 1.370 . S
C1641 C1645 1.408 . S
C1642 C1640 1.363 . S
C1642 C1643 1.370 . S
C1642 C1646 1.524 . S
C1643 C1635 1.503 . S
C1643 C1642 1.370 . S
C1643 C1644 1.403 . S
C1644 C1643 1.403 . S
C1644 C1645 1.404 . S
C1644 C1647 1.539 . S
C1645 C1641 1.408 . S
C1645 C1644 1.404 . S
C1645 H1657 0.930 . S
C1646 C1642 1.524 . S
C1646 H1658 0.956 . S
C1646 H1659 0.961 . S
C1646 H1660 0.961 . S
C1647 C1644 1.539 . S
C1647 H1661 0.958 . S
C1647 H1662 0.961 . S
C1647 H1663 0.960 . S
H1648 C1632 0.931 . S
H1649 C1637 0.929 . S
H1650 C1638 0.960 . S
H1651 C1638 0.962 . S
H1652 C1638 0.960 . S
H1653 C1639 0.961 . S
H1654 C1639 0.961 . S
H1655 C1639 0.961 . S
H1656 C1640 0.931 . S
H1657 C1645 0.930 . S
H1658 C1646 0.956 . S
H1659 C1646 0.961 . S
H1660 C1646 0.961 . S
H1661 C1647 0.958 . S
H1662 C1647 0.961 . S
H1663 C1647 0.960 . S
C1664 C1665 1.391 . S
C1664 C1666 1.394 . S
C1664 H1680 0.931 . S
C1665 C1664 1.391 . S
C1665 C1669 1.376 . S
C1666 C1664 1.394 . S
C1666 C1667 1.369 . S
C1666 C1670 1.531 . S
C1667 C1666 1.369 . S
C1667 C1668 1.410 . S
C1667 C1675 1.503 . S
C1668 C1667 1.410 . S
C1668 C1669 1.392 . S
C1668 C1671 1.511 . S
C1669 C1665 1.376 . S
C1669 C1668 1.392 . S
C1669 H1681 0.929 . S
C1670 C1666 1.531 . S
C1670 H1682 0.960 . S
C1670 H1683 0.962 . S
C1670 H1684 0.960 . S
C1671 C1668 1.511 . S
C1671 H1685 0.961 . S
C1671 H1686 0.961 . S
C1671 H1687 0.961 . S
C1672 C1673 1.370 . S
C1672 C1674 1.363 . S
C1672 H1688 0.931 . S
C1673 C1672 1.370 . S
C1673 C1677 1.408 . S
C1674 C1672 1.363 . S
C1674 C1675 1.370 . S
C1674 C1678 1.524 . S
C1675 C1667 1.503 . S
C1675 C1674 1.370 . S
C1675 C1676 1.403 . S
C1676 C1675 1.403 . S
C1676 C1677 1.404 . S
C1676 C1679 1.539 . S
C1677 C1673 1.408 . S
C1677 C1676 1.404 . S
C1677 H1689 0.930 . S
C1678 C1674 1.524 . S
C1678 H1690 0.956 . S
C1678 H1691 0.961 . S
C1678 H1692 0.961 . S
C1679 C1676 1.539 . S
C1679 H1693 0.958 . S
C1679 H1694 0.961 . S
C1679 H1695 0.960 . S
H1680 C1664 0.931 . S
H1681 C1669 0.929 . S
H1682 C1670 0.960 . S
H1683 C1670 0.962 . S
H1684 C1670 0.960 . S
H1685 C1671 0.961 . S
H1686 C1671 0.961 . S
H1687 C1671 0.961 . S
H1688 C1672 0.931 . S
H1689 C1677 0.930 . S
H1690 C1678 0.956 . S
H1691 C1678 0.961 . S
H1692 C1678 0.961 . S
H1693 C1679 0.958 . S
H1694 C1679 0.961 . S
H1695 C1679 0.960 . S
C1696 C1697 1.391 . S
C1696 C1698 1.394 . S
C1696 H1712 0.931 . S
C1697 C1696 1.391 . S
C1697 C1701 1.376 . S
C1698 C1696 1.394 . S
C1698 C1699 1.369 . S
C1698 C1702 1.531 . S
C1699 C1698 1.369 . S
C1699 C1700 1.410 . S
C1699 C1707 1.503 . S
C1700 C1699 1.410 . S
C1700 C1701 1.392 . S
C1700 C1703 1.511 . S
C1701 C1697 1.376 . S
C1701 C1700 1.392 . S
C1701 H1713 0.929 . S
C1702 C1698 1.531 . S
C1702 H1714 0.960 . S
C1702 H1715 0.962 . S
C1702 H1716 0.960 . S
C1703 C1700 1.511 . S
C1703 H1717 0.961 . S
C1703 H1718 0.961 . S
C1703 H1719 0.961 . S
C1704 C1705 1.370 . S
C1704 C1706 1.363 . S
C1704 H1720 0.931 . S
C1705 C1704 1.370 . S
C1705 C1709 1.408 . S
C1706 C1704 1.363 . S
C1706 C1707 1.370 . S
C1706 C1710 1.524 . S
C1707 C1699 1.503 . S
C1707 C1706 1.370 . S
C1707 C1708 1.403 . S
C1708 C1707 1.403 . S
C1708 C1709 1.404 . S
C1708 C1711 1.539 . S
C1709 C1705 1.408 . S
C1709 C1708 1.404 . S
C1709 H1721 0.930 . S
C1710 C1706 1.524 . S
C1710 H1722 0.956 . S
C1710 H1723 0.961 . S
C1710 H1724 0.961 . S
C1711 C1708 1.539 . S
C1711 H1725 0.958 . S
C1711 H1726 0.961 . S
C1711 H1727 0.960 . S
H1712 C1696 0.931 . S
H1713 C1701 0.929 . S
H1714 C1702 0.960 . S
H1715 C1702 0.962 . S
H1716 C1702 0.960 . S
H1717 C1703 0.961 . S
H1718 C1703 0.961 . S
H1719 C1703 0.961 . S
H1720 C1704 0.931 . S
H1721 C1709 0.930 . S
H1722 C1710 0.956 . S
H1723 C1710 0.961 . S
H1724 C1710 0.961 . S
H1725 C1711 0.958 . S
H1726 C1711 0.961 . S
H1727 C1711 0.960 . S
C1728 C1729 1.391 . S
C1728 C1730 1.394 . S
C1728 H1744 0.931 . S
C1729 C1728 1.391 . S
C1729 C1733 1.376 . S
C1730 C1728 1.394 . S
C1730 C1731 1.369 . S
C1730 C1734 1.531 . S
C1731 C1730 1.369 . S
C1731 C1732 1.410 . S
C1731 C1739 1.503 . S
C1732 C1731 1.410 . S
C1732 C1733 1.392 . S
C1732 C1735 1.511 . S
C1733 C1729 1.376 . S
C1733 C1732 1.392 . S
C1733 H1745 0.929 . S
C1734 C1730 1.531 . S
C1734 H1746 0.960 . S
C1734 H1747 0.962 . S
C1734 H1748 0.960 . S
C1735 C1732 1.511 . S
C1735 H1749 0.961 . S
C1735 H1750 0.961 . S
C1735 H1751 0.961 . S
C1736 C1737 1.370 . S
C1736 C1738 1.363 . S
C1736 H1752 0.931 . S
C1737 C1736 1.370 . S
C1737 C1741 1.408 . S
C1738 C1736 1.363 . S
C1738 C1739 1.370 . S
C1738 C1742 1.524 . S
C1739 C1731 1.503 . S
C1739 C1738 1.370 . S
C1739 C1740 1.403 . S
C1740 C1739 1.403 . S
C1740 C1741 1.404 . S
C1740 C1743 1.539 . S
C1741 C1737 1.408 . S
C1741 C1740 1.404 . S
C1741 H1753 0.930 . S
C1742 C1738 1.524 . S
C1742 H1754 0.956 . S
C1742 H1755 0.961 . S
C1742 H1756 0.961 . S
C1743 C1740 1.539 . S
C1743 H1757 0.958 . S
C1743 H1758 0.961 . S
C1743 H1759 0.960 . S
H1744 C1728 0.931 . S
H1745 C1733 0.929 . S
H1746 C1734 0.960 . S
H1747 C1734 0.962 . S
H1748 C1734 0.960 . S
H1749 C1735 0.961 . S
H1750 C1735 0.961 . S
H1751 C1735 0.961 . S
H1752 C1736 0.931 . S
H1753 C1741 0.930 . S
H1754 C1742 0.956 . S
H1755 C1742 0.961 . S
H1756 C1742 0.961 . S
H1757 C1743 0.958 . S
H1758 C1743 0.961 . S
H1759 C1743 0.960 . S
C1760 C1761 1.391 . S
C1760 C1762 1.394 . S
C1760 H1776 0.931 . S
C1761 C1760 1.391 . S
C1761 C1765 1.376 . S
C1762 C1760 1.394 . S
C1762 C1763 1.369 . S
C1762 C1766 1.531 . S
C1763 C1762 1.369 . S
C1763 C1764 1.410 . S
C1763 C1771 1.503 . S
C1764 C1763 1.410 . S
C1764 C1765 1.392 . S
C1764 C1767 1.511 . S
C1765 C1761 1.376 . S
C1765 C1764 1.392 . S
C1765 H1777 0.929 . S
C1766 C1762 1.531 . S
C1766 H1778 0.960 . S
C1766 H1779 0.962 . S
C1766 H1780 0.960 . S
C1767 C1764 1.511 . S
C1767 H1781 0.961 . S
C1767 H1782 0.961 . S
C1767 H1783 0.961 . S
C1768 C1769 1.370 . S
C1768 C1770 1.363 . S
C1768 H1784 0.931 . S
C1769 C1768 1.370 . S
C1769 C1773 1.408 . S
C1770 C1768 1.363 . S
C1770 C1771 1.370 . S
C1770 C1774 1.524 . S
C1771 C1763 1.503 . S
C1771 C1770 1.370 . S
C1771 C1772 1.403 . S
C1772 C1771 1.403 . S
C1772 C1773 1.404 . S
C1772 C1775 1.539 . S
C1773 C1769 1.408 . S
C1773 C1772 1.404 . S
C1773 H1785 0.930 . S
C1774 C1770 1.524 . S
C1774 H1786 0.956 . S
C1774 H1787 0.961 . S
C1774 H1788 0.961 . S
C1775 C1772 1.539 . S
C1775 H1789 0.958 . S
C1775 H1790 0.961 . S
C1775 H1791 0.960 . S
H1776 C1760 0.931 . S
H1777 C1765 0.929 . S
H1778 C1766 0.960 . S
H1779 C1766 0.962 . S
H1780 C1766 0.960 . S
H1781 C1767 0.961 . S
H1782 C1767 0.961 . S
H1783 C1767 0.961 . S
H1784 C1768 0.931 . S
H1785 C1773 0.930 . S
H1786 C1774 0.956 . S
H1787 C1774 0.961 . S
H1788 C1774 0.961 . S
H1789 C1775 0.958 . S
H1790 C1775 0.961 . S
H1791 C1775 0.960 . S
C1792 C1793 1.391 . S
C1792 C1794 1.394 . S
C1792 H1808 0.931 . S
C1793 C1792 1.391 . S
C1793 C1797 1.376 . S
C1794 C1792 1.394 . S
C1794 C1795 1.369 . S
C1794 C1798 1.531 . S
C1795 C1794 1.369 . S
C1795 C1796 1.410 . S
C1795 C1803 1.503 . S
C1796 C1795 1.410 . S
C1796 C1797 1.392 . S
C1796 C1799 1.511 . S
C1797 C1793 1.376 . S
C1797 C1796 1.392 . S
C1797 H1809 0.929 . S
C1798 C1794 1.531 . S
C1798 H1810 0.960 . S
C1798 H1811 0.962 . S
C1798 H1812 0.960 . S
C1799 C1796 1.511 . S
C1799 H1813 0.961 . S
C1799 H1814 0.961 . S
C1799 H1815 0.961 . S
C1800 C1801 1.370 . S
C1800 C1802 1.363 . S
C1800 H1816 0.931 . S
C1801 C1800 1.370 . S
C1801 C1805 1.408 . S
C1802 C1800 1.363 . S
C1802 C1803 1.370 . S
C1802 C1806 1.524 . S
C1803 C1795 1.503 . S
C1803 C1802 1.370 . S
C1803 C1804 1.403 . S
C1804 C1803 1.403 . S
C1804 C1805 1.404 . S
C1804 C1807 1.539 . S
C1805 C1801 1.408 . S
C1805 C1804 1.404 . S
C1805 H1817 0.930 . S
C1806 C1802 1.524 . S
C1806 H1818 0.956 . S
C1806 H1819 0.961 . S
C1806 H1820 0.961 . S
C1807 C1804 1.539 . S
C1807 H1821 0.958 . S
C1807 H1822 0.961 . S
C1807 H1823 0.960 . S
H1808 C1792 0.931 . S
H1809 C1797 0.929 . S
H1810 C1798 0.960 . S
H1811 C1798 0.962 . S
H1812 C1798 0.960 . S
H1813 C1799 0.961 . S
H1814 C1799 0.961 . S
H1815 C1799 0.961 . S
H1816 C1800 0.931 . S
H1817 C1805 0.930 . S
H1818 C1806 0.956 . S
H1819 C1806 0.961 . S
H1820 C1806 0.961 . S
H1821 C1807 0.958 . S
H1822 C1807 0.961 . S
H1823 C1807 0.960 . S
C1824 C1825 1.391 . S
C1824 C1826 1.394 . S
C1824 H1840 0.931 . S
C1825 C1824 1.391 . S
C1825 C1829 1.376 . S
C1826 C1824 1.394 . S
C1826 C1827 1.369 . S
C1826 C1830 1.531 . S
C1827 C1826 1.369 . S
C1827 C1828 1.410 . S
C1827 C1835 1.503 . S
C1828 C1827 1.410 . S
C1828 C1829 1.392 . S
C1828 C1831 1.511 . S
C1829 C1825 1.376 . S
C1829 C1828 1.392 . S
C1829 H1841 0.929 . S
C1830 C1826 1.531 . S
C1830 H1842 0.960 . S
C1830 H1843 0.962 . S
C1830 H1844 0.960 . S
C1831 C1828 1.511 . S
C1831 H1845 0.961 . S
C1831 H1846 0.961 . S
C1831 H1847 0.961 . S
C1832 C1833 1.370 . S
C1832 C1834 1.363 . S
C1832 H1848 0.931 . S
C1833 C1832 1.370 . S
C1833 C1837 1.408 . S
C1834 C1832 1.363 . S
C1834 C1835 1.370 . S
C1834 C1838 1.524 . S
C1835 C1827 1.503 . S
C1835 C1834 1.370 . S
C1835 C1836 1.403 . S
C1836 C1835 1.403 . S
C1836 C1837 1.404 . S
C1836 C1839 1.539 . S
C1837 C1833 1.408 . S
C1837 C1836 1.404 . S
C1837 H1849 0.930 . S
C1838 C1834 1.524 . S
C1838 H1850 0.956 . S
C1838 H1851 0.961 . S
C1838 H1852 0.961 . S
C1839 C1836 1.539 . S
C1839 H1853 0.958 . S
C1839 H1854 0.961 . S
C1839 H1855 0.960 . S
H1840 C1824 0.931 . S
H1841 C1829 0.929 . S
H1842 C1830 0.960 . S
H1843 C1830 0.962 . S
H1844 C1830 0.960 . S
H1845 C1831 0.961 . S
H1846 C1831 0.961 . S
H1847 C1831 0.961 . S
H1848 C1832 0.931 . S
H1849 C1837 0.930 . S
H1850 C1838 0.956 . S
H1851 C1838 0.961 . S
H1852 C1838 0.961 . S
H1853 C1839 0.958 . S
H1854 C1839 0.961 . S
H1855 C1839 0.960 . S
C1856 C1857 1.391 . S
C1856 C1858 1.394 . S
C1856 H1872 0.931 . S
C1857 C1856 1.391 . S
C1857 C1861 1.376 . S
C1858 C1856 1.394 . S
C1858 C1859 1.369 . S
C1858 C1862 1.531 . S
C1859 C1858 1.369 . S
C1859 C1860 1.410 . S
C1859 C1867 1.503 . S
C1860 C1859 1.410 . S
C1860 C1861 1.392 . S
C1860 C1863 1.511 . S
C1861 C1857 1.376 . S
C1861 C1860 1.392 . S
C1861 H1873 0.929 . S
C1862 C1858 1.531 . S
C1862 H1874 0.960 . S
C1862 H1875 0.962 . S
C1862 H1876 0.960 . S
C1863 C1860 1.511 . S
C1863 H1877 0.961 . S
C1863 H1878 0.961 . S
C1863 H1879 0.961 . S
C1864 C1865 1.370 . S
C1864 C1866 1.363 . S
C1864 H1880 0.931 . S
C1865 C1864 1.370 . S
C1865 C1869 1.408 . S
C1866 C1864 1.363 . S
C1866 C1867 1.370 . S
C1866 C1870 1.524 . S
C1867 C1859 1.503 . S
C1867 C1866 1.370 . S
C1867 C1868 1.403 . S
C1868 C1867 1.403 . S
C1868 C1869 1.404 . S
C1868 C1871 1.539 . S
C1869 C1865 1.408 . S
C1869 C1868 1.404 . S
C1869 H1881 0.930 . S
C1870 C1866 1.524 . S
C1870 H1882 0.956 . S
C1870 H1883 0.961 . S
C1870 H1884 0.961 . S
C1871 C1868 1.539 . S
C1871 H1885 0.958 . S
C1871 H1886 0.961 . S
C1871 H1887 0.960 . S
H1872 C1856 0.931 . S
H1873 C1861 0.929 . S
H1874 C1862 0.960 . S
H1875 C1862 0.962 . S
H1876 C1862 0.960 . S
H1877 C1863 0.961 . S
H1878 C1863 0.961 . S
H1879 C1863 0.961 . S
H1880 C1864 0.931 . S
H1881 C1869 0.930 . S
H1882 C1870 0.956 . S
H1883 C1870 0.961 . S
H1884 C1870 0.961 . S
H1885 C1871 0.958 . S
H1886 C1871 0.961 . S
H1887 C1871 0.960 . S
C1888 C1889 1.391 . S
C1888 C1890 1.394 . S
C1888 H1904 0.931 . S
C1889 C1888 1.391 . S
C1889 C1893 1.376 . S
C1890 C1888 1.394 . S
C1890 C1891 1.369 . S
C1890 C1894 1.531 . S
C1891 C1890 1.369 . S
C1891 C1892 1.410 . S
C1891 C1899 1.503 . S
C1892 C1891 1.410 . S
C1892 C1893 1.392 . S
C1892 C1895 1.511 . S
C1893 C1889 1.376 . S
C1893 C1892 1.392 . S
C1893 H1905 0.929 . S
C1894 C1890 1.531 . S
C1894 H1906 0.960 . S
C1894 H1907 0.962 . S
C1894 H1908 0.960 . S
C1895 C1892 1.511 . S
C1895 H1909 0.961 . S
C1895 H1910 0.961 . S
C1895 H1911 0.961 . S
C1896 C1897 1.370 . S
C1896 C1898 1.363 . S
C1896 H1912 0.931 . S
C1897 C1896 1.370 . S
C1897 C1901 1.408 . S
C1898 C1896 1.363 . S
C1898 C1899 1.370 . S
C1898 C1902 1.524 . S
C1899 C1891 1.503 . S
C1899 C1898 1.370 . S
C1899 C1900 1.403 . S
C1900 C1899 1.403 . S
C1900 C1901 1.404 . S
C1900 C1903 1.539 . S
C1901 C1897 1.408 . S
C1901 C1900 1.404 . S
C1901 H1913 0.930 . S
C1902 C1898 1.524 . S
C1902 H1914 0.956 . S
C1902 H1915 0.961 . S
C1902 H1916 0.961 . S
C1903 C1900 1.539 . S
C1903 H1917 0.958 . S
C1903 H1918 0.961 . S
C1903 H1919 0.960 . S
H1904 C1888 0.931 . S
H1905 C1893 0.929 . S
H1906 C1894 0.960 . S
H1907 C1894 0.962 . S
H1908 C1894 0.960 . S
H1909 C1895 0.961 . S
H1910 C1895 0.961 . S
H1911 C1895 0.961 . S
H1912 C1896 0.931 . S
H1913 C1901 0.930 . S
H1914 C1902 0.956 . S
H1915 C1902 0.961 . S
H1916 C1902 0.961 . S
H1917 C1903 0.958 . S
H1918 C1903 0.961 . S
H1919 C1903 0.960 . S
C1920 C1921 1.391 . S
C1920 C1922 1.394 . S
C1920 H1936 0.931 . S
C1921 C1920 1.391 . S
C1921 C1925 1.376 . S
C1922 C1920 1.394 . S
C1922 C1923 1.369 . S
C1922 C1926 1.531 . S
C1923 C1922 1.369 . S
C1923 C1924 1.410 . S
C1923 C1931 1.503 . S
C1924 C1923 1.410 . S
C1924 C1925 1.392 . S
C1924 C1927 1.511 . S
C1925 C1921 1.376 . S
C1925 C1924 1.392 . S
C1925 H1937 0.929 . S
C1926 C1922 1.531 . S
C1926 H1938 0.960 . S
C1926 H1939 0.962 . S
C1926 H1940 0.960 . S
C1927 C1924 1.511 . S
C1927 H1941 0.961 . S
C1927 H1942 0.961 . S
C1927 H1943 0.961 . S
C1928 C1929 1.370 . S
C1928 C1930 1.363 . S
C1928 H1944 0.931 . S
C1929 C1928 1.370 . S
C1929 C1933 1.408 . S
C1930 C1928 1.363 . S
C1930 C1931 1.370 . S
C1930 C1934 1.524 . S
C1931 C1923 1.503 . S
C1931 C1930 1.370 . S
C1931 C1932 1.403 . S
C1932 C1931 1.403 . S
C1932 C1933 1.404 . S
C1932 C1935 1.539 . S
C1933 C1929 1.408 . S
C1933 C1932 1.404 . S
C1933 H1945 0.930 . S
C1934 C1930 1.524 . S
C1934 H1946 0.956 . S
C1934 H1947 0.961 . S
C1934 H1948 0.961 . S
C1935 C1932 1.539 . S
C1935 H1949 0.958 . S
C1935 H1950 0.961 . S
C1935 H1951 0.960 . S
H1936 C1920 0.931 . S
H1937 C1925 0.929 . S
H1938 C1926 0.960 . S
H1939 C1926 0.962 . S
H1940 C1926 0.960 . S
H1941 C1927 0.961 . S
H1942 C1927 0.961 . S
H1943 C1927 0.961 . S
H1944 C1928 0.931 . S
H1945 C1933 0.930 . S
H1946 C1934 0.956 . S
H1947 C1934 0.961 . S
H1948 C1934 0.961 . S
H1949 C1935 0.958 . S
H1950 C1935 0.961 . S
H1951 C1935 0.960 . S
C1952 C1953 1.391 . S
C1952 C1954 1.394 . S
C1952 H1968 0.931 . S
C1953 C1952 1.391 . S
C1953 C1957 1.376 . S
C1954 C1952 1.394 . S
C1954 C1955 1.369 . S
C1954 C1958 1.531 . S
C1955 C1954 1.369 . S
C1955 C1956 1.410 . S
C1955 C1963 1.503 . S
C1956 C1955 1.410 . S
C1956 C1957 1.392 . S
C1956 C1959 1.511 . S
C1957 C1953 1.376 . S
C1957 C1956 1.392 . S
C1957 H1969 0.929 . S
C1958 C1954 1.531 . S
C1958 H1970 0.960 . S
C1958 H1971 0.962 . S
C1958 H1972 0.960 . S
C1959 C1956 1.511 . S
C1959 H1973 0.961 . S
C1959 H1974 0.961 . S
C1959 H1975 0.961 . S
C1960 C1961 1.370 . S
C1960 C1962 1.363 . S
C1960 H1976 0.931 . S
C1961 C1960 1.370 . S
C1961 C1965 1.408 . S
C1962 C1960 1.363 . S
C1962 C1963 1.370 . S
C1962 C1966 1.524 . S
C1963 C1955 1.503 . S
C1963 C1962 1.370 . S
C1963 C1964 1.403 . S
C1964 C1963 1.403 . S
C1964 C1965 1.404 . S
C1964 C1967 1.539 . S
C1965 C1961 1.408 . S
C1965 C1964 1.404 . S
C1965 H1977 0.930 . S
C1966 C1962 1.524 . S
C1966 H1978 0.956 . S
C1966 H1979 0.961 . S
C1966 H1980 0.961 . S
C1967 C1964 1.539 . S
C1967 H1981 0.958 . S
C1967 H1982 0.961 . S
C1967 H1983 0.960 . S
H1968 C1952 0.931 . S
H1969 C1957 0.929 . S
H1970 C1958 0.960 . S
H1971 C1958 0.962 . S
H1972 C1958 0.960 . S
H1973 C1959 0.961 . S
H1974 C1959 0.961 . S
H1975 C1959 0.961 . S
H1976 C1960 0.931 . S
H1977 C1965 0.930 . S
H1978 C1966 0.956 . S
H1979 C1966 0.961 . S
H1980 C1966 0.961 . S
H1981 C1967 0.958 . S
H1982 C1967 0.961 . S
H1983 C1967 0.960 . S
C1984 C1985 1.391 . S
C1984 C1986 1.394 . S
C1984 H2000 0.931 . S
C1985 C1984 1.391 . S
C1985 C1989 1.376 . S
C1986 C1984 1.394 . S
C1986 C1987 1.369 . S
C1986 C1990 1.531 . S
C1987 C1986 1.369 . S
C1987 C1988 1.410 . S
C1987 C1995 1.503 . S
C1988 C1987 1.410 . S
C1988 C1989 1.392 . S
C1988 C1991 1.511 . S
C1989 C1985 1.376 . S
C1989 C1988 1.392 . S
C1989 H2001 0.929 . S
C1990 C1986 1.531 . S
C1990 H2002 0.960 . S
C1990 H2003 0.962 . S
C1990 H2004 0.960 . S
C1991 C1988 1.511 . S
C1991 H2005 0.961 . S
C1991 H2006 0.961 . S
C1991 H2007 0.961 . S
C1992 C1993 1.370 . S
C1992 C1994 1.363 . S
C1992 H2008 0.931 . S
C1993 C1992 1.370 . S
C1993 C1997 1.408 . S
C1994 C1992 1.363 . S
C1994 C1995 1.370 . S
C1994 C1998 1.524 . S
C1995 C1987 1.503 . S
C1995 C1994 1.370 . S
C1995 C1996 1.403 . S
C1996 C1995 1.403 . S
C1996 C1997 1.404 . S
C1996 C1999 1.539 . S
C1997 C1993 1.408 . S
C1997 C1996 1.404 . S
C1997 H2009 0.930 . S
C1998 C1994 1.524 . S
C1998 H2010 0.956 . S
C1998 H2011 0.961 . S
C1998 H2012 0.961 . S
C1999 C1996 1.539 . S
C1999 H2013 0.958 . S
C1999 H2014 0.961 . S
C1999 H2015 0.960 . S
H2000 C1984 0.931 . S
H2001 C1989 0.929 . S
H2002 C1990 0.960 . S
H2003 C1990 0.962 . S
H2004 C1990 0.960 . S
H2005 C1991 0.961 . S
H2006 C1991 0.961 . S
H2007 C1991 0.961 . S
H2008 C1992 0.931 . S
H2009 C1997 0.930 . S
H2010 C1998 0.956 . S
H2011 C1998 0.961 . S
H2012 C1998 0.961 . S
H2013 C1999 0.958 . S
H2014 C1999 0.961 . S
H2015 C1999 0.960 . S
C2016 C2017 1.391 . S
C2016 C2018 1.394 . S
C2016 H2032 0.931 . S
C2017 C2016 1.391 . S
C2017 C2021 1.376 . S
C2018 C2016 1.394 . S
C2018 C2019 1.369 . S
C2018 C2022 1.531 . S
C2019 C2018 1.369 . S
C2019 C2020 1.410 . S
C2019 C2027 1.503 . S
C2020 C2019 1.410 . S
C2020 C2021 1.392 . S
C2020 C2023 1.511 . S
C2021 C2017 1.376 . S
C2021 C2020 1.392 . S
C2021 H2033 0.929 . S
C2022 C2018 1.531 . S
C2022 H2034 0.960 . S
C2022 H2035 0.962 . S
C2022 H2036 0.960 . S
C2023 C2020 1.511 . S
C2023 H2037 0.961 . S
C2023 H2038 0.961 . S
C2023 H2039 0.961 . S
C2024 C2025 1.370 . S
C2024 C2026 1.363 . S
C2024 H2040 0.931 . S
C2025 C2024 1.370 . S
C2025 C2029 1.408 . S
C2026 C2024 1.363 . S
C2026 C2027 1.370 . S
C2026 C2030 1.524 . S
C2027 C2019 1.503 . S
C2027 C2026 1.370 . S
C2027 C2028 1.403 . S
C2028 C2027 1.403 . S
C2028 C2029 1.404 . S
C2028 C2031 1.539 . S
C2029 C2025 1.408 . S
C2029 C2028 1.404 . S
C2029 H2041 0.930 . S
C2030 C2026 1.524 . S
C2030 H2042 0.956 . S
C2030 H2043 0.961 . S
C2030 H2044 0.961 . S
C2031 C2028 1.539 . S
C2031 H2045 0.958 . S
C2031 H2046 0.961 . S
C2031 H2047 0.960 . S
H2032 C2016 0.931 . S
H2033 C2021 0.929 . S
H2034 C2022 0.960 . S
H2035 C2022 0.962 . S
H2036 C2022 0.960 . S
H2037 C2023 0.961 . S
H2038 C2023 0.961 . S
H2039 C2023 0.961 . S
H2040 C2024 0.931 . S
H2041 C2029 0.930 . S
H2042 C2030 0.956 . S
H2043 C2030 0.961 . S
H2044 C2030 0.961 . S
H2045 C2031 0.958 . S
H2046 C2031 0.961 . S
H2047 C2031 0.960 . S
C2048 C2049 1.391 . S
C2048 C2050 1.394 . S
C2048 H2064 0.931 . S
C2049 C2048 1.391 . S
C2049 C2053 1.376 . S
C2050 C2048 1.394 . S
C2050 C2051 1.369 . S
C2050 C2054 1.531 . S
C2051 C2050 1.369 . S
C2051 C2052 1.410 . S
C2051 C2059 1.503 . S
C2052 C2051 1.410 . S
C2052 C2053 1.392 . S
C2052 C2055 1.511 . S
C2053 C2049 1.376 . S
C2053 C2052 1.392 . S
C2053 H2065 0.929 . S
C2054 C2050 1.531 . S
C2054 H2066 0.960 . S
C2054 H2067 0.962 . S
C2054 H2068 0.960 . S
C2055 C2052 1.511 . S
C2055 H2069 0.961 . S
C2055 H2070 0.961 . S
C2055 H2071 0.961 . S
C2056 C2057 1.370 . S
C2056 C2058 1.363 . S
C2056 H2072 0.931 . S
C2057 C2056 1.370 . S
C2057 C2061 1.408 . S
C2058 C2056 1.363 . S
C2058 C2059 1.370 . S
C2058 C2062 1.524 . S
C2059 C2051 1.503 . S
C2059 C2058 1.370 . S
C2059 C2060 1.403 . S
C2060 C2059 1.403 . S
C2060 C2061 1.404 . S
C2060 C2063 1.539 . S
C2061 C2057 1.408 . S
C2061 C2060 1.404 . S
C2061 H2073 0.930 . S
C2062 C2058 1.524 . S
C2062 H2074 0.956 . S
C2062 H2075 0.961 . S
C2062 H2076 0.961 . S
C2063 C2060 1.539 . S
C2063 H2077 0.958 . S
C2063 H2078 0.961 . S
C2063 H2079 0.960 . S
H2064 C2048 0.931 . S
H2065 C2053 0.929 . S
H2066 C2054 0.960 . S
H2067 C2054 0.962 . S
H2068 C2054 0.960 . S
H2069 C2055 0.961 . S
H2070 C2055 0.961 . S
H2071 C2055 0.961 . S
H2072 C2056 0.931 . S
H2073 C2061 0.930 . S
H2074 C2062 0.956 . S
H2075 C2062 0.961 . S
H2076 C2062 0.961 . S
H2077 C2063 0.958 . S
H2078 C2063 0.961 . S
H2079 C2063 0.960 . S
C2080 C2081 1.391 . S
C2080 C2082 1.394 . S
C2080 H2096 0.931 . S
C2081 C2080 1.391 . S
C2081 C2085 1.376 . S
C2082 C2080 1.394 . S
C2082 C2083 1.369 . S
C2082 C2086 1.531 . S
C2083 C2082 1.369 . S
C2083 C2084 1.410 . S
C2083 C2091 1.503 . S
C2084 C2083 1.410 . S
C2084 C2085 1.392 . S
C2084 C2087 1.511 . S
C2085 C2081 1.376 . S
C2085 C2084 1.392 . S
C2085 H2097 0.929 . S
C2086 C2082 1.531 . S
C2086 H2098 0.960 . S
C2086 H2099 0.962 . S
C2086 H2100 0.960 . S
C2087 C2084 1.511 . S
C2087 H2101 0.961 . S
C2087 H2102 0.961 . S
C2087 H2103 0.961 . S
C2088 C2089 1.370 . S
C2088 C2090 1.363 . S
C2088 H2104 0.931 . S
C2089 C2088 1.370 . S
C2089 C2093 1.408 . S
C2090 C2088 1.363 . S
C2090 C2091 1.370 . S
C2090 C2094 1.524 . S
C2091 C2083 1.503 . S
C2091 C2090 1.370 . S
C2091 C2092 1.403 . S
C2092 C2091 1.403 . S
C2092 C2093 1.404 . S
C2092 C2095 1.539 . S
C2093 C2089 1.408 . S
C2093 C2092 1.404 . S
C2093 H2105 0.930 . S
C2094 C2090 1.524 . S
C2094 H2106 0.956 . S
C2094 H2107 0.961 . S
C2094 H2108 0.961 . S
C2095 C2092 1.539 . S
C2095 H2109 0.958 . S
C2095 H2110 0.961 . S
C2095 H2111 0.960 . S
H2096 C2080 0.931 . S
H2097 C2085 0.929 . S
H2098 C2086 0.960 . S
H2099 C2086 0.962 . S
H2100 C2086 0.960 . S
H2101 C2087 0.961 . S
H2102 C2087 0.961 . S
H2103 C2087 0.961 . S
H2104 C2088 0.931 . S
H2105 C2093 0.930 . S
H2106 C2094 0.956 . S
H2107 C2094 0.961 . S
H2108 C2094 0.961 . S
H2109 C2095 0.958 . S
H2110 C2095 0.961 . S
H2111 C2095 0.960 . S
C2112 C2113 1.391 . S
C2112 C2114 1.394 . S
C2112 H2128 0.931 . S
C2113 C2112 1.391 . S
C2113 C2117 1.376 . S
C2114 C2112 1.394 . S
C2114 C2115 1.369 . S
C2114 C2118 1.531 . S
C2115 C2114 1.369 . S
C2115 C2116 1.410 . S
C2115 C2123 1.503 . S
C2116 C2115 1.410 . S
C2116 C2117 1.392 . S
C2116 C2119 1.511 . S
C2117 C2113 1.376 . S
C2117 C2116 1.392 . S
C2117 H2129 0.929 . S
C2118 C2114 1.531 . S
C2118 H2130 0.960 . S
C2118 H2131 0.962 . S
C2118 H2132 0.960 . S
C2119 C2116 1.511 . S
C2119 H2133 0.961 . S
C2119 H2134 0.961 . S
C2119 H2135 0.961 . S
C2120 C2121 1.370 . S
C2120 C2122 1.363 . S
C2120 H2136 0.931 . S
C2121 C2120 1.370 . S
C2121 C2125 1.408 . S
C2122 C2120 1.363 . S
C2122 C2123 1.370 . S
C2122 C2126 1.524 . S
C2123 C2115 1.503 . S
C2123 C2122 1.370 . S
C2123 C2124 1.403 . S
C2124 C2123 1.403 . S
C2124 C2125 1.404 . S
C2124 C2127 1.539 . S
C2125 C2121 1.408 . S
C2125 C2124 1.404 . S
C2125 H2137 0.930 . S
C2126 C2122 1.524 . S
C2126 H2138 0.956 . S
C2126 H2139 0.961 . S
C2126 H2140 0.961 . S
C2127 C2124 1.539 . S
C2127 H2141 0.958 . S
C2127 H2142 0.961 . S
C2127 H2143 0.960 . S
H2128 C2112 0.931 . S
H2129 C2117 0.929 . S
H2130 C2118 0.960 . S
H2131 C2118 0.962 . S
H2132 C2118 0.960 . S
H2133 C2119 0.961 . S
H2134 C2119 0.961 . S
H2135 C2119 0.961 . S
H2136 C2120 0.931 . S
H2137 C2125 0.930 . S
H2138 C2126 0.956 . S
H2139 C2126 0.961 . S
H2140 C2126 0.961 . S
H2141 C2127 0.958 . S
H2142 C2127 0.961 . S
H2143 C2127 0.960 . S
C2144 C2145 1.391 . S
C2144 C2146 1.394 . S
C2144 H2160 0.931 . S
C2145 C2144 1.391 . S
C2145 C2149 1.376 . S
C2146 C2144 1.394 . S
C2146 C2147 1.369 . S
C2146 C2150 1.531 . S
C2147 C2146 1.369 . S
C2147 C2148 1.410 . S
C2147 C2155 1.503 . S
C2148 C2147 1.410 . S
C2148 C2149 1.392 . S
C2148 C2151 1.511 . S
C2149 C2145 1.376 . S
C2149 C2148 1.392 . S
C2149 H2161 0.929 . S
C2150 C2146 1.531 . S
C2150 H2162 0.960 . S
C2150 H2163 0.962 . S
C2150 H2164 0.960 . S
C2151 C2148 1.511 . S
C2151 H2165 0.961 . S
C2151 H2166 0.961 . S
C2151 H2167 0.961 . S
C2152 C2153 1.370 . S
C2152 C2154 1.363 . S
C2152 H2168 0.931 . S
C2153 C2152 1.370 . S
C2153 C2157 1.408 . S
C2154 C2152 1.363 . S
C2154 C2155 1.370 . S
C2154 C2158 1.524 . S
C2155 C2147 1.503 . S
C2155 C2154 1.370 . S
C2155 C2156 1.403 . S
C2156 C2155 1.403 . S
C2156 C2157 1.404 . S
C2156 C2159 1.539 . S
C2157 C2153 1.408 . S
C2157 C2156 1.404 . S
C2157 H2169 0.930 . S
C2158 C2154 1.524 . S
C2158 H2170 0.956 . S
C2158 H2171 0.961 . S
C2158 H2172 0.961 . S
C2159 C2156 1.539 . S
C2159 H2173 0.958 . S
C2159 H2174 0.961 . S
C2159 H2175 0.960 . S
H2160 C2144 0.931 . S
H2161 C2149 0.929 . S
H2162 C2150 0.960 . S
H2163 C2150 0.962 . S
H2164 C2150 0.960 . S
H2165 C2151 0.961 . S
H2166 C2151 0.961 . S
H2167 C2151 0.961 . S
H2168 C2152 0.931 . S
H2169 C2157 0.930 . S
H2170 C2158 0.956 . S
H2171 C2158 0.961 . S
H2172 C2158 0.961 . S
H2173 C2159 0.958 . S
H2174 C2159 0.961 . S
H2175 C2159 0.960 . S
C2176 C2177 1.391 . S
C2176 C2178 1.394 . S
C2176 H2192 0.931 . S
C2177 C2176 1.391 . S
C2177 C2181 1.376 . S
C2178 C2176 1.394 . S
C2178 C2179 1.369 . S
C2178 C2182 1.531 . S
C2179 C2178 1.369 . S
C2179 C2180 1.410 . S
C2179 C2187 1.543 . S
C2180 C2179 1.410 . S
C2180 C2181 1.392 . S
C2180 C2183 1.511 . S
C2181 C2177 1.376 . S
C2181 C2180 1.392 . S
C2181 H2193 0.929 . S
C2182 C2178 1.531 . S
C2182 H2194 0.960 . S
C2182 H2195 0.962 . S
C2182 H2196 0.960 . S
C2183 C2180 1.511 . S
C2183 H2197 0.961 . S
C2183 H2198 0.961 . S
C2183 H2199 0.961 . S
C2184 C2185 1.370 . S
C2184 C2186 1.363 . S
C2184 H2200 0.931 . S
C2185 C2184 1.370 . S
C2185 C2189 1.408 . S
C2186 C2184 1.363 . S
C2186 C2187 1.345 1_545 S
C2186 C2190 1.524 . S
C2187 C2179 1.543 . S
C2187 C2186 1.345 1_565 S
C2187 C2188 1.389 1_565 S
C2188 C2187 1.389 1_545 S
C2188 C2189 1.404 . S
C2188 C2191 1.539 1_545 S
C2189 C2185 1.408 . S
C2189 C2188 1.404 . S
C2189 H2201 0.930 . S
C2190 C2186 1.524 . S
C2190 H2202 0.956 . S
C2190 H2203 0.961 1_545 S
C2190 H2204 0.961 . S
C2191 C2188 1.539 1_565 S
C2191 H2205 0.958 . S
C2191 H2206 0.961 . S
C2191 H2207 0.960 . S
H2192 C2176 0.931 . S
H2193 C2181 0.929 . S
H2194 C2182 0.960 . S
H2195 C2182 0.962 . S
H2196 C2182 0.960 . S
H2197 C2183 0.961 . S
H2198 C2183 0.961 . S
H2199 C2183 0.961 . S
H2200 C2184 0.931 . S
H2201 C2189 0.930 . S
H2202 C2190 0.956 . S
H2203 C2190 0.961 1_565 S
H2204 C2190 0.961 . S
H2205 C2191 0.958 . S
H2206 C2191 0.961 . S
H2207 C2191 0.960 . S
C2208 C2209 1.391 . S
C2208 C2210 1.394 . S
C2208 H2224 0.931 . S
C2209 C2208 1.391 . S
C2209 C2213 1.376 . S
C2210 C2208 1.394 . S
C2210 C2211 1.369 . S
C2210 C2214 1.531 . S
C2211 C2210 1.369 . S
C2211 C2212 1.410 . S
C2211 C2219 1.503 1_655 S
C2212 C2211 1.410 . S
C2212 C2213 1.392 . S
C2212 C2215 1.511 . S
C2213 C2209 1.376 . S
C2213 C2212 1.392 . S
C2213 H2225 0.929 . S
C2214 C2210 1.531 . S
C2214 H2226 0.960 . S
C2214 H2227 0.962 . S
C2214 H2228 0.960 . S
C2215 C2212 1.511 . S
C2215 H2229 0.961 . S
C2215 H2230 0.961 1_655 S
C2215 H2231 0.961 . S
C2216 C2217 1.370 . S
C2216 C2218 1.363 . S
C2216 H2232 0.931 . S
C2217 C2216 1.370 . S
C2217 C2221 1.408 . S
C2218 C2216 1.363 . S
C2218 C2219 1.370 . S
C2218 C2222 1.524 . S
C2219 C2211 1.503 1_455 S
C2219 C2218 1.370 . S
C2219 C2220 1.403 . S
C2220 C2219 1.403 . S
C2220 C2221 1.404 . S
C2220 C2223 1.539 . S
C2221 C2217 1.408 . S
C2221 C2220 1.404 . S
C2221 H2233 0.930 . S
C2222 C2218 1.524 . S
C2222 H2234 0.956 1_455 S
C2222 H2235 0.961 1_455 S
C2222 H2236 0.961 . S
C2223 C2220 1.539 . S
C2223 H2237 0.958 . S
C2223 H2238 0.961 . S
C2223 H2239 0.960 1_455 S
H2224 C2208 0.931 . S
H2225 C2213 0.929 . S
H2226 C2214 0.960 . S
H2227 C2214 0.962 . S
H2228 C2214 0.960 . S
H2229 C2215 0.961 . S
H2230 C2215 0.961 1_455 S
H2231 C2215 0.961 . S
H2232 C2216 0.931 . S
H2233 C2221 0.930 . S
H2234 C2222 0.956 1_655 S
H2235 C2222 0.961 1_655 S
H2236 C2222 0.961 . S
H2237 C2223 0.958 . S
H2238 C2223 0.961 . S
H2239 C2223 0.960 1_655 S
C2240 C2241 1.391 . S
C2240 C2242 1.394 . S
C2240 H2256 0.931 . S
C2241 C2240 1.391 . S
C2241 C2245 1.376 . S
C2242 C2240 1.394 . S
C2242 C2243 1.369 . S
C2242 C2246 1.556 . S
C2243 C2242 1.369 . S
C2243 C2244 1.410 . S
C2243 C2251 1.503 1_545 S
C2244 C2243 1.410 . S
C2244 C2245 1.392 . S
C2244 C2247 1.511 . S
C2245 C2241 1.376 . S
C2245 C2244 1.392 . S
C2245 H2257 0.929 . S
C2246 C2242 1.556 . S
C2246 H2258 0.925 1_545 S
C2246 H2259 0.938 1_545 S
C2246 H2260 0.997 . S
C2247 C2244 1.511 . S
C2247 H2261 0.961 . S
C2247 H2262 0.961 1_545 S
C2247 H2263 0.961 . S
C2248 C2249 1.370 . S
C2248 C2250 1.363 . S
C2248 H2264 0.931 . S
C2249 C2248 1.370 . S
C2249 C2253 1.408 . S
C2250 C2248 1.363 . S
C2250 C2251 1.370 . S
C2250 C2254 1.524 . S
C2251 C2243 1.503 1_565 S
C2251 C2250 1.370 . S
C2251 C2252 1.403 . S
C2252 C2251 1.403 . S
C2252 C2253 1.404 . S
C2252 C2255 1.539 . S
C2253 C2249 1.408 . S
C2253 C2252 1.404 . S
C2253 H2265 0.930 . S
C2254 C2250 1.524 . S
C2254 H2266 0.956 . S
C2254 H2267 0.961 . S
C2254 H2268 0.961 . S
C2255 C2252 1.539 . S
C2255 H2269 0.958 . S
C2255 H2270 0.961 . S
C2255 H2271 0.960 1_565 S
H2256 C2240 0.931 . S
H2257 C2245 0.929 . S
H2258 C2246 0.925 1_565 S
H2259 C2246 0.938 1_565 S
H2260 C2246 0.997 . S
H2261 C2247 0.961 . S
H2262 C2247 0.961 1_565 S
H2263 C2247 0.961 . S
H2264 C2248 0.931 . S
H2265 C2253 0.930 . S
H2266 C2254 0.956 . S
H2267 C2254 0.961 . S
H2268 C2254 0.961 . S
H2269 C2255 0.958 . S
H2270 C2255 0.961 . S
H2271 C2255 0.960 1_545 S
C2272 C2273 1.391 . S
C2272 C2274 1.394 1_655 S
C2272 H2288 0.931 . S
C2273 C2272 1.391 . S
C2273 C2277 1.376 . S
C2274 C2272 1.394 1_455 S
C2274 C2275 1.369 . S
C2274 C2278 1.531 . S
C2275 C2274 1.369 . S
C2275 C2276 1.410 1_455 S
C2275 C2283 1.503 . S
C2276 C2275 1.410 1_655 S
C2276 C2277 1.392 . S
C2276 C2279 1.510 . S
C2277 C2273 1.376 . S
C2277 C2276 1.392 . S
C2277 H2289 0.929 . S
C2278 C2274 1.531 . S
C2278 H2290 0.960 . S
C2278 H2291 0.962 . S
C2278 H2292 0.960 . S
C2279 C2276 1.510 . S
C2279 H2293 0.958 . S
C2279 H2294 0.964 1_655 S
C2279 H2295 0.957 1_655 S
C2280 C2281 1.370 . S
C2280 C2282 1.363 . S
C2280 H2296 0.931 . S
C2281 C2280 1.370 . S
C2281 C2285 1.408 . S
C2282 C2280 1.363 . S
C2282 C2283 1.370 . S
C2282 C2286 1.524 . S
C2283 C2275 1.503 . S
C2283 C2282 1.370 . S
C2283 C2284 1.403 . S
C2284 C2283 1.403 . S
C2284 C2285 1.404 . S
C2284 C2287 1.539 . S
C2285 C2281 1.408 . S
C2285 C2284 1.404 . S
C2285 H2297 0.930 . S
C2286 C2282 1.524 . S
C2286 H2298 0.956 . S
C2286 H2299 0.961 . S
C2286 H2300 0.961 . S
C2287 C2284 1.539 . S
C2287 H2301 0.958 . S
C2287 H2302 0.961 . S
C2287 H2303 0.960 . S
H2288 C2272 0.931 . S
H2289 C2277 0.929 . S
H2290 C2278 0.960 . S
H2291 C2278 0.962 . S
H2292 C2278 0.960 . S
H2293 C2279 0.958 . S
H2294 C2279 0.964 1_455 S
H2295 C2279 0.957 1_455 S
H2296 C2280 0.931 . S
H2297 C2285 0.930 . S
H2298 C2286 0.956 . S
H2299 C2286 0.961 . S
H2300 C2286 0.961 . S
H2301 C2287 0.958 . S
H2302 C2287 0.961 . S
H2303 C2287 0.960 . S
C2304 C2305 1.391 . S
C2304 C2306 1.394 . S
C2304 H2320 0.931 . S
C2305 C2304 1.391 . S
C2305 C2309 1.376 . S
C2306 C2304 1.394 . S
C2306 C2307 1.369 . S
C2306 C2310 1.531 . S
C2307 C2306 1.369 . S
C2307 C2308 1.410 . S
C2307 C2315 1.503 . S
C2308 C2307 1.410 . S
C2308 C2309 1.392 . S
C2308 C2311 1.511 . S
C2309 C2305 1.376 . S
C2309 C2308 1.392 . S
C2309 H2321 0.929 . S
C2310 C2306 1.531 . S
C2310 H2322 0.960 . S
C2310 H2323 0.962 . S
C2310 H2324 0.960 . S
C2311 C2308 1.511 . S
C2311 H2325 0.961 . S
C2311 H2326 0.961 . S
C2311 H2327 0.961 . S
C2312 C2313 1.370 . S
C2312 C2314 1.363 . S
C2312 H2328 0.931 . S
C2313 C2312 1.370 . S
C2313 C2317 1.408 . S
C2314 C2312 1.363 . S
C2314 C2315 1.370 1_565 S
C2314 C2318 1.508 1_565 S
C2315 C2307 1.503 . S
C2315 C2314 1.370 1_545 S
C2315 C2316 1.403 1_545 S
C2316 C2315 1.403 1_565 S
C2316 C2317 1.404 . S
C2316 C2319 1.539 1_565 S
C2317 C2313 1.408 . S
C2317 C2316 1.404 . S
C2317 H2329 0.930 . S
C2318 C2314 1.508 1_545 S
C2318 H2330 0.978 . S
C2318 H2331 0.990 . S
C2318 H2332 0.928 1_545 S
C2319 C2316 1.539 1_545 S
C2319 H2333 0.958 . S
C2319 H2334 0.961 1_545 S
C2319 H2335 0.960 . S
H2320 C2304 0.931 . S
H2321 C2309 0.929 . S
H2322 C2310 0.960 . S
H2323 C2310 0.962 . S
H2324 C2310 0.960 . S
H2325 C2311 0.961 . S
H2326 C2311 0.961 . S
H2327 C2311 0.961 . S
H2328 C2312 0.931 . S
H2329 C2317 0.930 . S
H2330 C2318 0.978 . S
H2331 C2318 0.990 . S
H2332 C2318 0.928 1_565 S
H2333 C2319 0.958 . S
H2334 C2319 0.961 1_565 S
H2335 C2319 0.960 . S
C2336 C2337 1.391 . S
C2336 C2338 1.394 . S
C2336 H2352 0.931 . S
C2337 C2336 1.391 . S
C2337 C2341 1.376 . S
C2338 C2336 1.394 . S
C2338 C2339 1.369 . S
C2338 C2342 1.531 . S
C2339 C2338 1.369 . S
C2339 C2340 1.410 . S
C2339 C2347 1.503 1_655 S
C2340 C2339 1.410 . S
C2340 C2341 1.392 . S
C2340 C2343 1.511 . S
C2341 C2337 1.376 . S
C2341 C2340 1.392 . S
C2341 H2353 0.929 . S
C2342 C2338 1.531 . S
C2342 H2354 0.960 . S
C2342 H2355 0.962 . S
C2342 H2356 0.960 . S
C2343 C2340 1.511 . S
C2343 H2357 0.961 . S
C2343 H2358 0.961 . S
C2343 H2359 0.961 . S
C2344 C2345 1.370 . S
C2344 C2346 1.363 . S
C2344 H2360 0.931 . S
C2345 C2344 1.370 . S
C2345 C2349 1.408 . S
C2346 C2344 1.363 . S
C2346 C2347 1.370 . S
C2346 C2350 1.524 1_455 S
C2347 C2339 1.503 1_455 S
C2347 C2346 1.370 . S
C2347 C2348 1.403 . S
C2348 C2347 1.403 . S
C2348 C2349 1.404 . S
C2348 C2351 1.539 . S
C2349 C2345 1.408 . S
C2349 C2348 1.404 . S
C2349 H2361 0.930 . S
C2350 C2346 1.524 1_655 S
C2350 H2362 0.956 . S
C2350 H2363 0.961 . S
C2350 H2364 0.961 1_655 S
C2351 C2348 1.539 . S
C2351 H2365 0.958 . S
C2351 H2366 0.961 . S
C2351 H2367 0.960 1_455 S
H2352 C2336 0.931 . S
H2353 C2341 0.929 . S
H2354 C2342 0.960 . S
H2355 C2342 0.962 . S
H2356 C2342 0.960 . S
H2357 C2343 0.961 . S
H2358 C2343 0.961 . S
H2359 C2343 0.961 . S
H2360 C2344 0.931 . S
H2361 C2349 0.930 . S
H2362 C2350 0.956 . S
H2363 C2350 0.961 . S
H2364 C2350 0.961 1_455 S
H2365 C2351 0.958 . S
H2366 C2351 0.961 . S
H2367 C2351 0.960 1_655 S
C2368 C2369 1.391 . S
C2368 C2370 1.394 . S
C2368 H2384 0.931 . S
C2369 C2368 1.391 . S
C2369 C2373 1.376 . S
C2370 C2368 1.394 . S
C2370 C2371 1.369 1_545 S
C2370 C2374 1.531 1_545 S
C2371 C2370 1.369 1_565 S
C2371 C2372 1.410 1_565 S
C2371 C2379 1.503 . S
C2372 C2371 1.410 1_545 S
C2372 C2373 1.392 . S
C2372 C2375 1.511 1_545 S
C2373 C2369 1.376 . S
C2373 C2372 1.392 . S
C2373 H2385 0.929 . S
C2374 C2370 1.531 1_565 S
C2374 H2386 0.960 . S
C2374 H2387 0.962 . S
C2374 H2388 0.988 . S
C2375 C2372 1.511 1_565 S
C2375 H2389 0.961 1_565 S
C2375 H2390 0.961 . S
C2375 H2391 0.961 . S
C2376 C2377 1.370 . S
C2376 C2378 1.363 . S
C2376 H2392 0.931 . S
C2377 C2376 1.370 . S
C2377 C2381 1.408 . S
C2378 C2376 1.363 . S
C2378 C2379 1.370 . S
C2378 C2382 1.524 . S
C2379 C2371 1.503 . S
C2379 C2378 1.370 . S
C2379 C2380 1.403 . S
C2380 C2379 1.403 . S
C2380 C2381 1.404 . S
C2380 C2383 1.539 . S
C2381 C2377 1.408 . S
C2381 C2380 1.404 . S
C2381 H2393 0.930 . S
C2382 C2378 1.524 . S
C2382 H2394 0.956 . S
C2382 H2395 0.961 . S
C2382 H2396 0.961 . S
C2383 C2380 1.539 . S
C2383 H2397 0.958 . S
C2383 H2398 0.961 . S
C2383 H2399 0.960 . S
H2384 C2368 0.931 . S
H2385 C2373 0.929 . S
H2386 C2374 0.960 . S
H2387 C2374 0.962 . S
H2388 C2374 0.988 . S
H2389 C2375 0.961 1_545 S
H2390 C2375 0.961 . S
H2391 C2375 0.961 . S
H2392 C2376 0.931 . S
H2393 C2381 0.930 . S
H2394 C2382 0.956 . S
H2395 C2382 0.961 . S
H2396 C2382 0.961 . S
H2397 C2383 0.958 . S
H2398 C2383 0.961 . S
H2399 C2383 0.960 . S
C2400 C2401 1.391 . S
C2400 C2402 1.394 . S
C2400 H2416 0.931 . S
C2401 C2400 1.391 . S
C2401 C2405 1.376 . S
C2402 C2400 1.394 . S
C2402 C2403 1.369 . S
C2402 C2406 1.531 . S
C2403 C2402 1.369 . S
C2403 C2404 1.410 . S
C2403 C2411 1.503 1_655 S
C2404 C2403 1.410 . S
C2404 C2405 1.392 . S
C2404 C2407 1.511 . S
C2405 C2401 1.376 . S
C2405 C2404 1.392 . S
C2405 H2417 0.929 . S
C2406 C2402 1.531 . S
C2406 H2418 0.960 1_655 S
C2406 H2419 0.962 . S
C2406 H2420 0.960 . S
C2407 C2404 1.511 . S
C2407 H2421 0.961 . S
C2407 H2422 0.961 1_655 S
C2407 H2423 0.961 . S
C2408 C2409 1.370 . S
C2408 C2410 1.363 . S
C2408 H2424 0.931 . S
C2409 C2408 1.370 . S
C2409 C2413 1.408 . S
C2410 C2408 1.363 . S
C2410 C2411 1.370 . S
C2410 C2414 1.524 . S
C2411 C2403 1.503 1_455 S
C2411 C2410 1.370 . S
C2411 C2412 1.403 . S
C2412 C2411 1.403 . S
C2412 C2413 1.404 . S
C2412 C2415 1.539 . S
C2413 C2409 1.408 . S
C2413 C2412 1.404 . S
C2413 H2425 0.930 . S
C2414 C2410 1.524 . S
C2414 H2426 0.956 . S
C2414 H2427 0.961 . S
C2414 H2428 0.961 . S
C2415 C2412 1.539 . S
C2415 H2429 0.958 . S
C2415 H2430 0.961 . S
C2415 H2431 0.960 . S
H2416 C2400 0.931 . S
H2417 C2405 0.929 . S
H2418 C2406 0.960 1_455 S
H2419 C2406 0.962 . S
H2420 C2406 0.960 . S
H2421 C2407 0.961 . S
H2422 C2407 0.961 1_455 S
H2423 C2407 0.961 . S
H2424 C2408 0.931 . S
H2425 C2413 0.930 . S
H2426 C2414 0.956 . S
H2427 C2414 0.961 . S
H2428 C2414 0.961 . S
H2429 C2415 0.958 . S
H2430 C2415 0.961 . S
H2431 C2415 0.960 . S
C2432 C2433 1.391 . S
C2432 C2434 1.394 . S
C2432 H2448 0.931 . S
C2433 C2432 1.391 . S
C2433 C2437 1.376 . S
C2434 C2432 1.394 . S
C2434 C2435 1.369 . S
C2434 C2438 1.531 . S
C2435 C2434 1.369 . S
C2435 C2436 1.410 . S
C2435 C2443 1.503 . S
C2436 C2435 1.410 . S
C2436 C2437 1.392 . S
C2436 C2439 1.511 . S
C2437 C2433 1.376 . S
C2437 C2436 1.392 . S
C2437 H2449 0.929 . S
C2438 C2434 1.531 . S
C2438 H2450 0.960 . S
C2438 H2451 0.962 . S
C2438 H2452 0.960 . S
C2439 C2436 1.511 . S
C2439 H2453 0.961 . S
C2439 H2454 0.961 . S
C2439 H2455 0.961 . S
C2440 C2441 1.370 . S
C2440 C2442 1.363 1_556 S
C2440 H2456 0.931 . S
C2441 C2440 1.370 . S
C2441 C2445 1.408 . S
C2442 C2440 1.363 1_554 S
C2442 C2443 1.370 . S
C2442 C2446 1.524 . S
C2443 C2435 1.503 . S
C2443 C2442 1.370 . S
C2443 C2444 1.421 . S
C2444 C2443 1.421 . S
C2444 C2445 1.371 1_554 S
C2444 C2447 1.553 . S
C2445 C2441 1.408 . S
C2445 C2444 1.371 1_556 S
C2445 H2457 0.930 . S
C2446 C2442 1.524 . S
C2446 H2458 0.956 . S
C2446 H2459 0.961 . S
C2446 H2460 0.961 . S
C2447 C2444 1.553 . S
C2447 H2461 0.958 . S
C2447 H2462 0.961 . S
C2447 H2463 0.960 . S
H2448 C2432 0.931 . S
H2449 C2437 0.929 . S
H2450 C2438 0.960 . S
H2451 C2438 0.962 . S
H2452 C2438 0.960 . S
H2453 C2439 0.961 . S
H2454 C2439 0.961 . S
H2455 C2439 0.961 . S
H2456 C2440 0.931 . S
H2457 C2445 0.930 . S
H2458 C2446 0.956 . S
H2459 C2446 0.961 . S
H2460 C2446 0.961 . S
H2461 C2447 0.958 . S
H2462 C2447 0.961 . S
H2463 C2447 0.960 . S
C2464 C2465 1.391 . S
C2464 C2466 1.394 . S
C2464 H2480 0.931 . S
C2465 C2464 1.391 . S
C2465 C2469 1.376 . S
C2466 C2464 1.394 . S
C2466 C2467 1.369 . S
C2466 C2470 1.531 . S
C2467 C2466 1.369 . S
C2467 C2468 1.410 . S
C2467 C2475 1.503 1_556 S
C2468 C2467 1.410 . S
C2468 C2469 1.392 . S
C2468 C2471 1.511 . S
C2469 C2465 1.376 . S
C2469 C2468 1.392 . S
C2469 H2481 0.929 . S
C2470 C2466 1.531 . S
C2470 H2482 0.960 1_556 S
C2470 H2483 0.956 1_556 S
C2470 H2484 0.960 . S
C2471 C2468 1.511 . S
C2471 H2485 0.961 . S
C2471 H2486 0.961 1_556 S
C2471 H2487 0.958 1_556 S
C2472 C2473 1.370 . S
C2472 C2474 1.363 . S
C2472 H2488 0.931 . S
C2473 C2472 1.370 . S
C2473 C2477 1.408 . S
C2474 C2472 1.363 . S
C2474 C2475 1.370 . S
C2474 C2478 1.524 . S
C2475 C2467 1.503 1_554 S
C2475 C2474 1.370 . S
C2475 C2476 1.403 . S
C2476 C2475 1.403 . S
C2476 C2477 1.404 . S
C2476 C2479 1.539 . S
C2477 C2473 1.408 . S
C2477 C2476 1.404 . S
C2477 H2489 0.930 . S
C2478 C2474 1.524 . S
C2478 H2490 0.956 . S
C2478 H2491 0.961 . S
C2478 H2492 0.961 . S
C2479 C2476 1.539 . S
C2479 H2493 0.958 . S
C2479 H2494 0.961 . S
C2479 H2495 0.960 . S
H2480 C2464 0.931 . S
H2481 C2469 0.929 . S
H2482 C2470 0.960 1_554 S
H2483 C2470 0.956 1_554 S
H2484 C2470 0.960 . S
H2485 C2471 0.961 . S
H2486 C2471 0.961 1_554 S
H2487 C2471 0.958 1_554 S
H2488 C2472 0.931 . S
H2489 C2477 0.930 . S
H2490 C2478 0.956 . S
H2491 C2478 0.961 . S
H2492 C2478 0.961 . S
H2493 C2479 0.958 . S
H2494 C2479 0.961 . S
H2495 C2479 0.960 . S
C2496 C2497 1.391 . S
C2496 C2498 1.394 1_556 S
C2496 H2512 0.931 . S
C2497 C2496 1.391 . S
C2497 C2501 1.376 . S
C2498 C2496 1.394 1_554 S
C2498 C2499 1.369 . S
C2498 C2502 1.531 . S
C2499 C2498 1.369 . S
C2499 C2500 1.410 1_554 S
C2499 C2507 1.503 . S
C2500 C2499 1.410 1_556 S
C2500 C2501 1.392 . S
C2500 C2503 1.511 1_556 S
C2501 C2497 1.376 . S
C2501 C2500 1.392 . S
C2501 H2513 0.929 . S
C2502 C2498 1.531 . S
C2502 H2514 0.960 . S
C2502 H2515 0.962 . S
C2502 H2516 0.960 . S
C2503 C2500 1.511 1_554 S
C2503 H2517 0.961 1_554 S
C2503 H2518 0.961 . S
C2503 H2519 0.961 . S
C2504 C2505 1.370 . S
C2504 C2506 1.363 . S
C2504 H2520 0.931 . S
C2505 C2504 1.370 . S
C2505 C2509 1.408 . S
C2506 C2504 1.363 . S
C2506 C2507 1.370 . S
C2506 C2510 1.524 . S
C2507 C2499 1.503 . S
C2507 C2506 1.370 . S
C2507 C2508 1.403 . S
C2508 C2507 1.403 . S
C2508 C2509 1.404 . S
C2508 C2511 1.539 . S
C2509 C2505 1.408 . S
C2509 C2508 1.404 . S
C2509 H2521 0.930 . S
C2510 C2506 1.524 . S
C2510 H2522 0.956 . S
C2510 H2523 0.961 . S
C2510 H2524 0.961 . S
C2511 C2508 1.539 . S
C2511 H2525 0.958 . S
C2511 H2526 0.961 . S
C2511 H2527 0.960 . S
H2512 C2496 0.931 . S
H2513 C2501 0.929 . S
H2514 C2502 0.960 . S
H2515 C2502 0.962 . S
H2516 C2502 0.960 . S
H2517 C2503 0.961 1_556 S
H2518 C2503 0.961 . S
H2519 C2503 0.961 . S
H2520 C2504 0.931 . S
H2521 C2509 0.930 . S
H2522 C2510 0.956 . S
H2523 C2510 0.961 . S
H2524 C2510 0.961 . S
H2525 C2511 0.958 . S
H2526 C2511 0.961 . S
H2527 C2511 0.960 . S
C2528 C2529 1.391 . S
C2528 C2530 1.394 . S
C2528 H2544 0.931 . S
C2529 C2528 1.391 . S
C2529 C2533 1.376 . S
C2530 C2528 1.394 . S
C2530 C2531 1.369 . S
C2530 C2534 1.531 . S
C2531 C2530 1.369 . S
C2531 C2532 1.410 . S
C2531 C2539 1.503 1_554 S
C2532 C2531 1.410 . S
C2532 C2533 1.392 . S
C2532 C2535 1.511 . S
C2533 C2529 1.376 . S
C2533 C2532 1.392 . S
C2533 H2545 0.929 . S
C2534 C2530 1.531 . S
C2534 H2546 0.960 1_554 S
C2534 H2547 0.962 . S
C2534 H2548 0.960 . S
C2535 C2532 1.511 . S
C2535 H2549 0.961 . S
C2535 H2550 0.961 . S
C2535 H2551 0.961 . S
C2536 C2537 1.370 . S
C2536 C2538 1.363 . S
C2536 H2552 0.931 . S
C2537 C2536 1.370 . S
C2537 C2541 1.408 . S
C2538 C2536 1.363 . S
C2538 C2539 1.370 . S
C2538 C2542 1.524 . S
C2539 C2531 1.503 1_556 S
C2539 C2538 1.370 . S
C2539 C2540 1.403 . S
C2540 C2539 1.403 . S
C2540 C2541 1.404 . S
C2540 C2543 1.539 . S
C2541 C2537 1.408 . S
C2541 C2540 1.404 . S
C2541 H2553 0.930 . S
C2542 C2538 1.524 . S
C2542 H2554 0.956 . S
C2542 H2555 0.961 1_556 S
C2542 H2556 0.961 . S
C2543 C2540 1.539 . S
C2543 H2557 0.958 . S
C2543 H2558 0.961 . S
C2543 H2559 0.960 . S
H2544 C2528 0.931 . S
H2545 C2533 0.929 . S
H2546 C2534 0.960 1_556 S
H2547 C2534 0.962 . S
H2548 C2534 0.960 . S
H2549 C2535 0.961 . S
H2550 C2535 0.961 . S
H2551 C2535 0.961 . S
H2552 C2536 0.931 . S
H2553 C2541 0.930 . S
H2554 C2542 0.956 . S
H2555 C2542 0.961 1_554 S
H2556 C2542 0.961 . S
H2557 C2543 0.958 . S
H2558 C2543 0.961 . S
H2559 C2543 0.960 . S
C2560 C2561 1.391 . S
C2560 C2562 1.394 . S
C2560 H2576 0.931 . S
C2561 C2560 1.391 . S
C2561 C2565 1.376 . S
C2562 C2560 1.394 . S
C2562 C2563 1.369 . S
C2562 C2566 1.531 . S
C2563 C2562 1.369 . S
C2563 C2564 1.410 . S
C2563 C2571 1.503 1_556 S
C2564 C2563 1.410 . S
C2564 C2565 1.392 . S
C2564 C2567 1.511 . S
C2565 C2561 1.376 . S
C2565 C2564 1.392 . S
C2565 H2577 0.929 . S
C2566 C2562 1.531 . S
C2566 H2578 0.960 1_556 S
C2566 H2579 0.962 1_556 S
C2566 H2580 0.960 . S
C2567 C2564 1.511 . S
C2567 H2581 0.961 . S
C2567 H2582 0.961 1_556 S
C2567 H2583 0.961 . S
C2568 C2569 1.370 . S
C2568 C2570 1.363 . S
C2568 H2584 0.931 . S
C2569 C2568 1.370 . S
C2569 C2573 1.408 . S
C2570 C2568 1.363 . S
C2570 C2571 1.370 . S
C2570 C2574 1.524 . S
C2571 C2563 1.503 1_554 S
C2571 C2570 1.370 . S
C2571 C2572 1.403 . S
C2572 C2571 1.403 . S
C2572 C2573 1.404 . S
C2572 C2575 1.539 . S
C2573 C2569 1.408 . S
C2573 C2572 1.404 . S
C2573 H2585 0.930 . S
C2574 C2570 1.524 . S
C2574 H2586 0.956 . S
C2574 H2587 0.961 . S
C2574 H2588 0.961 . S
C2575 C2572 1.539 . S
C2575 H2589 0.958 . S
C2575 H2590 0.961 . S
C2575 H2591 0.960 . S
H2576 C2560 0.931 . S
H2577 C2565 0.929 . S
H2578 C2566 0.960 1_554 S
H2579 C2566 0.962 1_554 S
H2580 C2566 0.960 . S
H2581 C2567 0.961 . S
H2582 C2567 0.961 1_554 S
H2583 C2567 0.961 . S
H2584 C2568 0.931 . S
H2585 C2573 0.930 . S
H2586 C2574 0.956 . S
H2587 C2574 0.961 . S
H2588 C2574 0.961 . S
H2589 C2575 0.958 . S
H2590 C2575 0.961 . S
H2591 C2575 0.960 . S
C2592 C2593 1.391 . S
C2592 C2594 1.394 . S
C2592 H2608 0.931 . S
C2593 C2592 1.391 . S
C2593 C2597 1.376 . S
C2594 C2592 1.394 . S
C2594 C2595 1.369 . S
C2594 C2598 1.531 . S
C2595 C2594 1.369 . S
C2595 C2596 1.410 . S
C2595 C2603 1.503 . S
C2596 C2595 1.410 . S
C2596 C2597 1.392 . S
C2596 C2599 1.511 . S
C2597 C2593 1.376 . S
C2597 C2596 1.392 . S
C2597 H2609 0.929 . S
C2598 C2594 1.531 . S
C2598 H2610 0.960 . S
C2598 H2611 0.962 . S
C2598 H2612 0.960 . S
C2599 C2596 1.511 . S
C2599 H2613 0.961 . S
C2599 H2614 0.961 . S
C2599 H2615 0.961 . S
C2600 C2601 1.370 . S
C2600 C2602 1.363 1_556 S
C2600 H2616 0.931 . S
C2601 C2600 1.370 . S
C2601 C2605 1.408 . S
C2602 C2600 1.363 1_554 S
C2602 C2603 1.370 . S
C2602 C2606 1.524 . S
C2603 C2595 1.503 . S
C2603 C2602 1.370 . S
C2603 C2604 1.403 1_554 S
C2604 C2603 1.403 1_556 S
C2604 C2605 1.404 . S
C2604 C2607 1.544 . S
C2605 C2601 1.408 . S
C2605 C2604 1.404 . S
C2605 H2617 0.930 . S
C2606 C2602 1.524 . S
C2606 H2618 0.956 . S
C2606 H2619 0.961 . S
C2606 H2620 0.961 . S
C2607 C2604 1.544 . S
C2607 H2621 0.958 1_556 S
C2607 H2622 0.979 . S
C2607 H2623 0.938 1_556 S
H2608 C2592 0.931 . S
H2609 C2597 0.929 . S
H2610 C2598 0.960 . S
H2611 C2598 0.962 . S
H2612 C2598 0.960 . S
H2613 C2599 0.961 . S
H2614 C2599 0.961 . S
H2615 C2599 0.961 . S
H2616 C2600 0.931 . S
H2617 C2605 0.930 . S
H2618 C2606 0.956 . S
H2619 C2606 0.961 . S
H2620 C2606 0.961 . S
H2621 C2607 0.958 1_554 S
H2622 C2607 0.979 . S
H2623 C2607 0.938 1_554 S
C2624 C2625 1.391 . S
C2624 C2626 1.394 . S
C2624 H2640 0.931 . S
C2625 C2624 1.391 . S
C2625 C2629 1.376 . S
C2626 C2624 1.394 . S
C2626 C2627 1.369 . S
C2626 C2630 1.531 . S
C2627 C2626 1.369 . S
C2627 C2628 1.410 . S
C2627 C2635 1.503 1_554 S
C2628 C2627 1.410 . S
C2628 C2629 1.392 . S
C2628 C2631 1.511 . S
C2629 C2625 1.376 . S
C2629 C2628 1.392 . S
C2629 H2641 0.929 . S
C2630 C2626 1.531 . S
C2630 H2642 0.960 1_554 S
C2630 H2643 0.962 . S
C2630 H2644 0.960 . S
C2631 C2628 1.511 . S
C2631 H2645 0.961 . S
C2631 H2646 0.961 . S
C2631 H2647 0.961 . S
C2632 C2633 1.370 . S
C2632 C2634 1.363 . S
C2632 H2648 0.931 . S
C2633 C2632 1.370 . S
C2633 C2637 1.408 . S
C2634 C2632 1.363 . S
C2634 C2635 1.370 . S
C2634 C2638 1.524 . S
C2635 C2627 1.503 1_556 S
C2635 C2634 1.370 . S
C2635 C2636 1.403 . S
C2636 C2635 1.403 . S
C2636 C2637 1.404 . S
C2636 C2639 1.539 . S
C2637 C2633 1.408 . S
C2637 C2636 1.404 . S
C2637 H2649 0.930 . S
C2638 C2634 1.524 . S
C2638 H2650 0.956 1_556 S
C2638 H2651 0.961 1_556 S
C2638 H2652 0.961 . S
C2639 C2636 1.539 . S
C2639 H2653 0.958 . S
C2639 H2654 0.961 . S
C2639 H2655 0.960 . S
H2640 C2624 0.931 . S
H2641 C2629 0.929 . S
H2642 C2630 0.960 1_556 S
H2643 C2630 0.962 . S
H2644 C2630 0.960 . S
H2645 C2631 0.961 . S
H2646 C2631 0.961 . S
H2647 C2631 0.961 . S
H2648 C2632 0.931 . S
H2649 C2637 0.930 . S
H2650 C2638 0.956 1_554 S
H2651 C2638 0.961 1_554 S
H2652 C2638 0.961 . S
H2653 C2639 0.958 . S
H2654 C2639 0.961 . S
H2655 C2639 0.960 . S
C2656 C2657 1.391 . S
C2656 C2658 1.394 1_556 S
C2656 H2672 0.931 . S
C2657 C2656 1.391 . S
C2657 C2661 1.376 . S
C2658 C2656 1.394 1_554 S
C2658 C2659 1.369 . S
C2658 C2662 1.531 . S
C2659 C2658 1.369 . S
C2659 C2660 1.410 1_554 S
C2659 C2667 1.503 . S
C2660 C2659 1.410 1_556 S
C2660 C2661 1.392 . S
C2660 C2663 1.511 1_556 S
C2661 C2657 1.376 . S
C2661 C2660 1.392 . S
C2661 H2673 0.929 . S
C2662 C2658 1.531 . S
C2662 H2674 0.960 . S
C2662 H2675 0.962 . S
C2662 H2676 0.960 . S
C2663 C2660 1.511 1_554 S
C2663 H2677 0.961 1_554 S
C2663 H2678 0.961 . S
C2663 H2679 0.961 . S
C2664 C2665 1.370 . S
C2664 C2666 1.363 . S
C2664 H2680 0.931 . S
C2665 C2664 1.370 . S
C2665 C2669 1.408 . S
C2666 C2664 1.363 . S
C2666 C2667 1.370 . S
C2666 C2670 1.524 . S
C2667 C2659 1.503 . S
C2667 C2666 1.370 . S
C2667 C2668 1.403 . S
C2668 C2667 1.403 . S
C2668 C2669 1.404 . S
C2668 C2671 1.539 . S
C2669 C2665 1.408 . S
C2669 C2668 1.404 . S
C2669 H2681 0.930 . S
C2670 C2666 1.524 . S
C2670 H2682 0.956 . S
C2670 H2683 0.961 . S
C2670 H2684 0.961 . S
C2671 C2668 1.539 . S
C2671 H2685 0.958 . S
C2671 H2686 0.961 . S
C2671 H2687 0.960 . S
H2672 C2656 0.931 . S
H2673 C2661 0.929 . S
H2674 C2662 0.960 . S
H2675 C2662 0.962 . S
H2676 C2662 0.960 . S
H2677 C2663 0.961 1_556 S
H2678 C2663 0.961 . S
H2679 C2663 0.961 . S
H2680 C2664 0.931 . S
H2681 C2669 0.930 . S
H2682 C2670 0.956 . S
H2683 C2670 0.961 . S
H2684 C2670 0.961 . S
H2685 C2671 0.958 . S
H2686 C2671 0.961 . S
H2687 C2671 0.960 . S
C2688 C2689 1.391 . S
C2688 C2690 1.394 . S
C2688 H2704 0.931 . S
C2689 C2688 1.391 . S
C2689 C2693 1.376 . S
C2690 C2688 1.394 . S
C2690 C2691 1.369 . S
C2690 C2694 1.531 . S
C2691 C2690 1.369 . S
C2691 C2692 1.410 . S
C2691 C2699 1.503 1_455 S
C2692 C2691 1.410 . S
C2692 C2693 1.392 . S
C2692 C2695 1.511 . S
C2693 C2689 1.376 . S
C2693 C2692 1.392 . S
C2693 H2705 0.929 . S
C2694 C2690 1.531 . S
C2694 H2706 0.960 . S
C2694 H2707 0.962 . S
C2694 H2708 0.960 . S
C2695 C2692 1.511 . S
C2695 H2709 0.961 . S
C2695 H2710 0.961 . S
C2695 H2711 0.961 . S
C2696 C2697 1.370 . S
C2696 C2698 1.363 . S
C2696 H2712 0.931 . S
C2697 C2696 1.370 . S
C2697 C2701 1.408 . S
C2698 C2696 1.363 . S
C2698 C2699 1.370 . S
C2698 C2702 1.524 . S
C2699 C2691 1.503 1_655 S
C2699 C2698 1.370 . S
C2699 C2700 1.403 . S
C2700 C2699 1.403 . S
C2700 C2701 1.404 . S
C2700 C2703 1.539 . S
C2701 C2697 1.408 . S
C2701 C2700 1.404 . S
C2701 H2713 0.930 . S
C2702 C2698 1.524 . S
C2702 H2714 0.956 1_655 S
C2702 H2715 0.961 1_655 S
C2702 H2716 0.961 . S
C2703 C2700 1.539 . S
C2703 H2717 0.958 . S
C2703 H2718 0.961 . S
C2703 H2719 0.960 1_655 S
H2704 C2688 0.931 . S
H2705 C2693 0.929 . S
H2706 C2694 0.960 . S
H2707 C2694 0.962 . S
H2708 C2694 0.960 . S
H2709 C2695 0.961 . S
H2710 C2695 0.961 . S
H2711 C2695 0.961 . S
H2712 C2696 0.931 . S
H2713 C2701 0.930 . S
H2714 C2702 0.956 1_455 S
H2715 C2702 0.961 1_455 S
H2716 C2702 0.961 . S
H2717 C2703 0.958 . S
H2718 C2703 0.961 . S
H2719 C2703 0.960 1_455 S
C2720 C2721 1.391 . S
C2720 C2722 1.394 . S
C2720 H2736 0.931 . S
C2721 C2720 1.391 . S
C2721 C2725 1.376 . S
C2722 C2720 1.394 . S
C2722 C2723 1.369 . S
C2722 C2726 1.531 . S
C2723 C2722 1.369 . S
C2723 C2724 1.410 . S
C2723 C2731 1.503 1_455 S
C2724 C2723 1.410 . S
C2724 C2725 1.392 . S
C2724 C2727 1.511 . S
C2725 C2721 1.376 . S
C2725 C2724 1.392 . S
C2725 H2737 0.929 . S
C2726 C2722 1.531 . S
C2726 H2738 0.960 1_455 S
C2726 H2739 0.962 . S
C2726 H2740 0.960 . S
C2727 C2724 1.511 . S
C2727 H2741 0.961 . S
C2727 H2742 0.961 1_455 S
C2727 H2743 0.961 . S
C2728 C2729 1.370 . S
C2728 C2730 1.363 . S
C2728 H2744 0.931 . S
C2729 C2728 1.370 . S
C2729 C2733 1.408 . S
C2730 C2728 1.363 . S
C2730 C2731 1.370 . S
C2730 C2734 1.524 . S
C2731 C2723 1.503 1_655 S
C2731 C2730 1.370 . S
C2731 C2732 1.403 . S
C2732 C2731 1.403 . S
C2732 C2733 1.404 . S
C2732 C2735 1.539 . S
C2733 C2729 1.408 . S
C2733 C2732 1.404 . S
C2733 H2745 0.930 . S
C2734 C2730 1.524 . S
C2734 H2746 0.956 . S
C2734 H2747 0.961 . S
C2734 H2748 0.961 . S
C2735 C2732 1.539 . S
C2735 H2749 0.958 . S
C2735 H2750 0.961 . S
C2735 H2751 0.982 . S
H2736 C2720 0.931 . S
H2737 C2725 0.929 . S
H2738 C2726 0.960 1_655 S
H2739 C2726 0.962 . S
H2740 C2726 0.960 . S
H2741 C2727 0.961 . S
H2742 C2727 0.961 1_655 S
H2743 C2727 0.961 . S
H2744 C2728 0.931 . S
H2745 C2733 0.930 . S
H2746 C2734 0.956 . S
H2747 C2734 0.961 . S
H2748 C2734 0.961 . S
H2749 C2735 0.958 . S
H2750 C2735 0.961 . S
H2751 C2735 0.982 . S
C2752 C2753 1.391 . S
C2752 C2754 1.394 . S
C2752 H2768 0.931 . S
C2753 C2752 1.391 . S
C2753 C2757 1.376 . S
C2754 C2752 1.394 . S
C2754 C2755 1.369 . S
C2754 C2758 1.531 . S
C2755 C2754 1.369 . S
C2755 C2756 1.410 . S
C2755 C2763 1.503 1_565 S
C2756 C2755 1.410 . S
C2756 C2757 1.392 . S
C2756 C2759 1.511 . S
C2757 C2753 1.376 . S
C2757 C2756 1.392 . S
C2757 H2769 0.929 . S
C2758 C2754 1.531 . S
C2758 H2770 0.960 1_565 S
C2758 H2771 0.962 . S
C2758 H2772 0.960 . S
C2759 C2756 1.511 . S
C2759 H2773 0.961 . S
C2759 H2774 0.961 . S
C2759 H2775 0.961 . S
C2760 C2761 1.370 . S
C2760 C2762 1.363 . S
C2760 H2776 0.931 . S
C2761 C2760 1.370 . S
C2761 C2765 1.408 . S
C2762 C2760 1.363 . S
C2762 C2763 1.370 . S
C2762 C2766 1.524 1_545 S
C2763 C2755 1.503 1_545 S
C2763 C2762 1.370 . S
C2763 C2764 1.403 . S
C2764 C2763 1.403 . S
C2764 C2765 1.404 . S
C2764 C2767 1.539 . S
C2765 C2761 1.408 . S
C2765 C2764 1.404 . S
C2765 H2777 0.930 . S
C2766 C2762 1.524 1_565 S
C2766 H2778 0.956 . S
C2766 H2779 0.961 . S
C2766 H2780 0.961 1_565 S
C2767 C2764 1.539 . S
C2767 H2781 0.958 . S
C2767 H2782 0.961 . S
C2767 H2783 0.960 1_545 S
H2768 C2752 0.931 . S
H2769 C2757 0.929 . S
H2770 C2758 0.960 1_545 S
H2771 C2758 0.962 . S
H2772 C2758 0.960 . S
H2773 C2759 0.961 . S
H2774 C2759 0.961 . S
H2775 C2759 0.961 . S
H2776 C2760 0.931 . S
H2777 C2765 0.930 . S
H2778 C2766 0.956 . S
H2779 C2766 0.961 . S
H2780 C2766 0.961 1_545 S
H2781 C2767 0.958 . S
H2782 C2767 0.961 . S
H2783 C2767 0.960 1_565 S
C2784 C2785 1.391 . S
C2784 C2786 1.394 . S
C2784 H2800 0.931 . S
C2785 C2784 1.391 . S
C2785 C2789 1.376 . S
C2786 C2784 1.394 . S
C2786 C2787 1.369 . S
C2786 C2790 1.531 . S
C2787 C2786 1.369 . S
C2787 C2788 1.410 . S
C2787 C2795 1.503 . S
C2788 C2787 1.410 . S
C2788 C2789 1.392 . S
C2788 C2791 1.511 . S
C2789 C2785 1.376 . S
C2789 C2788 1.392 . S
C2789 H2801 0.929 . S
C2790 C2786 1.531 . S
C2790 H2802 0.960 . S
C2790 H2803 0.962 . S
C2790 H2804 0.960 . S
C2791 C2788 1.511 . S
C2791 H2805 0.961 . S
C2791 H2806 0.961 . S
C2791 H2807 0.961 . S
C2792 C2793 1.370 . S
C2792 C2794 1.363 . S
C2792 H2808 0.931 . S
C2793 C2792 1.370 . S
C2793 C2797 1.408 . S
C2794 C2792 1.363 . S
C2794 C2795 1.370 1_655 S
C2794 C2798 1.524 1_655 S
C2795 C2787 1.503 . S
C2795 C2794 1.370 1_455 S
C2795 C2796 1.403 . S
C2796 C2795 1.403 . S
C2796 C2797 1.404 1_455 S
C2796 C2799 1.539 . S
C2797 C2793 1.408 . S
C2797 C2796 1.404 1_655 S
C2797 H2809 0.930 . S
C2798 C2794 1.524 1_455 S
C2798 H2810 0.956 . S
C2798 H2811 0.961 . S
C2798 H2812 0.961 1_455 S
C2799 C2796 1.539 . S
C2799 H2813 0.958 . S
C2799 H2814 0.961 . S
C2799 H2815 0.960 . S
H2800 C2784 0.931 . S
H2801 C2789 0.929 . S
H2802 C2790 0.960 . S
H2803 C2790 0.962 . S
H2804 C2790 0.960 . S
H2805 C2791 0.961 . S
H2806 C2791 0.961 . S
H2807 C2791 0.961 . S
H2808 C2792 0.931 . S
H2809 C2797 0.930 . S
H2810 C2798 0.956 . S
H2811 C2798 0.961 . S
H2812 C2798 0.961 1_655 S
H2813 C2799 0.958 . S
H2814 C2799 0.961 . S
H2815 C2799 0.960 . S
C2816 C2817 1.391 . S
C2816 C2818 1.394 . S
C2816 H2832 0.931 . S
C2817 C2816 1.391 . S
C2817 C2821 1.376 . S
C2818 C2816 1.394 . S
C2818 C2819 1.369 . S
C2818 C2822 1.531 . S
C2819 C2818 1.369 . S
C2819 C2820 1.410 . S
C2819 C2827 1.536 . S
C2820 C2819 1.410 . S
C2820 C2821 1.392 . S
C2820 C2823 1.511 . S
C2821 C2817 1.376 . S
C2821 C2820 1.392 . S
C2821 H2833 0.929 . S
C2822 C2818 1.531 . S
C2822 H2834 0.960 . S
C2822 H2835 0.962 . S
C2822 H2836 0.960 . S
C2823 C2820 1.511 . S
C2823 H2837 0.961 . S
C2823 H2838 0.961 . S
C2823 H2839 0.961 . S
C2824 C2825 1.370 . S
C2824 C2826 1.363 . S
C2824 H2840 0.931 . S
C2825 C2824 1.370 . S
C2825 C2829 1.408 . S
C2826 C2824 1.363 . S
C2826 C2827 1.350 1_545 S
C2826 C2830 1.524 . S
C2827 C2819 1.536 . S
C2827 C2826 1.350 1_565 S
C2827 C2828 1.391 1_565 S
C2828 C2827 1.391 1_545 S
C2828 C2829 1.404 . S
C2828 C2831 1.539 1_545 S
C2829 C2825 1.408 . S
C2829 C2828 1.404 . S
C2829 H2841 0.930 . S
C2830 C2826 1.524 . S
C2830 H2842 0.956 . S
C2830 H2843 0.961 1_545 S
C2830 H2844 0.961 . S
C2831 C2828 1.539 1_565 S
C2831 H2845 0.958 . S
C2831 H2846 0.961 . S
C2831 H2847 0.960 . S
H2832 C2816 0.931 . S
H2833 C2821 0.929 . S
H2834 C2822 0.960 . S
H2835 C2822 0.962 . S
H2836 C2822 0.960 . S
H2837 C2823 0.961 . S
H2838 C2823 0.961 . S
H2839 C2823 0.961 . S
H2840 C2824 0.931 . S
H2841 C2829 0.930 . S
H2842 C2830 0.956 . S
H2843 C2830 0.961 1_565 S
H2844 C2830 0.961 . S
H2845 C2831 0.958 . S
H2846 C2831 0.961 . S
H2847 C2831 0.960 . S
C2848 C2849 1.391 . S
C2848 C2850 1.394 . S
C2848 H2864 0.931 . S
C2849 C2848 1.391 . S
C2849 C2853 1.376 . S
C2850 C2848 1.394 . S
C2850 C2851 1.369 . S
C2850 C2854 1.531 . S
C2851 C2850 1.369 . S
C2851 C2852 1.410 . S
C2851 C2859 1.457 1_655 S
C2852 C2851 1.410 . S
C2852 C2853 1.392 . S
C2852 C2855 1.511 . S
C2853 C2849 1.376 . S
C2853 C2852 1.392 . S
C2853 H2865 0.929 . S
C2854 C2850 1.531 . S
C2854 H2866 0.960 . S
C2854 H2867 0.962 . S
C2854 H2868 0.960 . S
C2855 C2852 1.511 . S
C2855 H2869 0.961 . S
C2855 H2870 0.961 . S
C2855 H2871 0.961 . S
C2856 C2857 1.370 . S
C2856 C2858 1.363 . S
C2856 H2872 0.931 . S
C2857 C2856 1.370 . S
C2857 C2861 1.408 . S
C2858 C2856 1.363 . S
C2858 C2859 1.392 . S
C2858 C2862 1.524 1_455 S
C2859 C2851 1.457 1_455 S
C2859 C2858 1.392 . S
C2859 C2860 1.428 . S
C2860 C2859 1.428 . S
C2860 C2861 1.404 . S
C2860 C2863 1.539 . S
C2861 C2857 1.408 . S
C2861 C2860 1.404 . S
C2861 H2873 0.930 . S
C2862 C2858 1.524 1_655 S
C2862 H2874 0.956 . S
C2862 H2875 0.961 . S
C2862 H2876 0.961 1_655 S
C2863 C2860 1.539 . S
C2863 H2877 0.958 1_455 S
C2863 H2878 0.961 . S
C2863 H2879 0.960 1_455 S
H2864 C2848 0.931 . S
H2865 C2853 0.929 . S
H2866 C2854 0.960 . S
H2867 C2854 0.962 . S
H2868 C2854 0.960 . S
H2869 C2855 0.961 . S
H2870 C2855 0.961 . S
H2871 C2855 0.961 . S
H2872 C2856 0.931 . S
H2873 C2861 0.930 . S
H2874 C2862 0.956 . S
H2875 C2862 0.961 . S
H2876 C2862 0.961 1_455 S
H2877 C2863 0.958 1_655 S
H2878 C2863 0.961 . S
H2879 C2863 0.960 1_655 S
C2880 C2881 1.391 . S
C2880 C2882 1.394 . S
C2880 H2896 0.931 . S
C2881 C2880 1.391 . S
C2881 C2885 1.376 . S
C2882 C2880 1.394 . S
C2882 C2883 1.369 . S
C2882 C2886 1.531 . S
C2883 C2882 1.369 . S
C2883 C2884 1.410 . S
C2883 C2891 1.503 . S
C2884 C2883 1.410 . S
C2884 C2885 1.392 . S
C2884 C2887 1.511 . S
C2885 C2881 1.376 . S
C2885 C2884 1.392 . S
C2885 H2897 0.929 . S
C2886 C2882 1.531 . S
C2886 H2898 0.960 . S
C2886 H2899 0.962 . S
C2886 H2900 0.960 . S
C2887 C2884 1.511 . S
C2887 H2901 0.961 . S
C2887 H2902 0.961 . S
C2887 H2903 0.961 . S
C2888 C2889 1.370 . S
C2888 C2890 1.363 . S
C2888 H2904 0.931 . S
C2889 C2888 1.370 . S
C2889 C2893 1.408 . S
C2890 C2888 1.363 . S
C2890 C2891 1.370 1_545 S
C2890 C2894 1.524 1_545 S
C2891 C2883 1.503 . S
C2891 C2890 1.370 1_565 S
C2891 C2892 1.403 1_565 S
C2892 C2891 1.403 1_545 S
C2892 C2893 1.404 . S
C2892 C2895 1.539 . S
C2893 C2889 1.408 . S
C2893 C2892 1.404 . S
C2893 H2905 0.930 . S
C2894 C2890 1.524 1_565 S
C2894 H2906 0.956 . S
C2894 H2907 0.961 . S
C2894 H2908 0.961 . S
C2895 C2892 1.539 . S
C2895 H2909 0.960 . S
C2895 H2910 0.961 . S
C2895 H2911 0.960 1_545 S
H2896 C2880 0.931 . S
H2897 C2885 0.929 . S
H2898 C2886 0.960 . S
H2899 C2886 0.962 . S
H2900 C2886 0.960 . S
H2901 C2887 0.961 . S
H2902 C2887 0.961 . S
H2903 C2887 0.961 . S
H2904 C2888 0.931 . S
H2905 C2893 0.930 . S
H2906 C2894 0.956 . S
H2907 C2894 0.961 . S
H2908 C2894 0.961 . S
H2909 C2895 0.960 . S
H2910 C2895 0.961 . S
H2911 C2895 0.960 1_565 S
C2912 C2913 1.391 . S
C2912 C2914 1.394 . S
C2912 H2928 0.931 . S
C2913 C2912 1.391 . S
C2913 C2917 1.376 . S
C2914 C2912 1.394 . S
C2914 C2915 1.369 1_565 S
C2914 C2918 1.531 1_565 S
C2915 C2914 1.369 1_545 S
C2915 C2916 1.410 1_545 S
C2915 C2923 1.503 . S
C2916 C2915 1.410 1_565 S
C2916 C2917 1.392 . S
C2916 C2919 1.511 1_565 S
C2917 C2913 1.376 . S
C2917 C2916 1.392 . S
C2917 H2929 0.929 . S
C2918 C2914 1.531 1_545 S
C2918 H2930 0.960 . S
C2918 H2931 0.962 . S
C2918 H2932 0.960 1_545 S
C2919 C2916 1.511 1_545 S
C2919 H2933 0.961 1_545 S
C2919 H2934 0.961 . S
C2919 H2935 0.961 . S
C2920 C2921 1.370 . S
C2920 C2922 1.363 . S
C2920 H2936 0.931 . S
C2921 C2920 1.370 . S
C2921 C2925 1.408 . S
C2922 C2920 1.363 . S
C2922 C2923 1.370 . S
C2922 C2926 1.524 . S
C2923 C2915 1.503 . S
C2923 C2922 1.370 . S
C2923 C2924 1.403 . S
C2924 C2923 1.403 . S
C2924 C2925 1.404 . S
C2924 C2927 1.539 . S
C2925 C2921 1.408 . S
C2925 C2924 1.404 . S
C2925 H2937 0.930 . S
C2926 C2922 1.524 . S
C2926 H2938 0.956 . S
C2926 H2939 0.961 . S
C2926 H2940 0.961 . S
C2927 C2924 1.539 . S
C2927 H2941 0.958 . S
C2927 H2942 0.961 . S
C2927 H2943 0.960 . S
H2928 C2912 0.931 . S
H2929 C2917 0.929 . S
H2930 C2918 0.960 . S
H2931 C2918 0.962 . S
H2932 C2918 0.960 1_565 S
H2933 C2919 0.961 1_565 S
H2934 C2919 0.961 . S
H2935 C2919 0.961 . S
H2936 C2920 0.931 . S
H2937 C2925 0.930 . S
H2938 C2926 0.956 . S
H2939 C2926 0.961 . S
H2940 C2926 0.961 . S
H2941 C2927 0.958 . S
H2942 C2927 0.961 . S
H2943 C2927 0.960 . S
C2944 C2945 1.391 . S
C2944 C2946 1.394 . S
C2944 H2960 0.931 . S
C2945 C2944 1.391 . S
C2945 C2949 1.376 . S
C2946 C2944 1.394 . S
C2946 C2947 1.369 . S
C2946 C2950 1.531 . S
C2947 C2946 1.369 . S
C2947 C2948 1.410 . S
C2947 C2955 1.503 . S
C2948 C2947 1.410 . S
C2948 C2949 1.392 . S
C2948 C2951 1.511 . S
C2949 C2945 1.376 . S
C2949 C2948 1.392 . S
C2949 H2961 0.929 . S
C2950 C2946 1.531 . S
C2950 H2962 0.960 . S
C2950 H2963 0.962 . S
C2950 H2964 0.960 . S
C2951 C2948 1.511 . S
C2951 H2965 0.961 . S
C2951 H2966 0.961 . S
C2951 H2967 0.961 . S
C2952 C2953 1.370 . S
C2952 C2954 1.363 . S
C2952 H2968 0.931 . S
C2953 C2952 1.370 . S
C2953 C2957 1.408 . S
C2954 C2952 1.363 . S
C2954 C2955 1.370 . S
C2954 C2958 1.524 . S
C2955 C2947 1.503 . S
C2955 C2954 1.370 . S
C2955 C2956 1.403 . S
C2956 C2955 1.403 . S
C2956 C2957 1.404 . S
C2956 C2959 1.539 . S
C2957 C2953 1.408 . S
C2957 C2956 1.404 . S
C2957 H2969 0.930 . S
C2958 C2954 1.524 . S
C2958 H2970 0.956 . S
C2958 H2971 0.961 . S
C2958 H2972 0.961 . S
C2959 C2956 1.539 . S
C2959 H2973 0.958 . S
C2959 H2974 0.961 . S
C2959 H2975 0.960 . S
H2960 C2944 0.931 . S
H2961 C2949 0.929 . S
H2962 C2950 0.960 . S
H2963 C2950 0.962 . S
H2964 C2950 0.960 . S
H2965 C2951 0.961 . S
H2966 C2951 0.961 . S
H2967 C2951 0.961 . S
H2968 C2952 0.931 . S
H2969 C2957 0.930 . S
H2970 C2958 0.956 . S
H2971 C2958 0.961 . S
H2972 C2958 0.961 . S
H2973 C2959 0.958 . S
H2974 C2959 0.961 . S
H2975 C2959 0.960 . S
C2976 C2977 1.391 . S
C2976 C2978 1.394 . S
C2976 H2992 0.931 . S
C2977 C2976 1.391 . S
C2977 C2981 1.376 . S
C2978 C2976 1.394 . S
C2978 C2979 1.369 . S
C2978 C2982 1.531 . S
C2979 C2978 1.369 . S
C2979 C2980 1.410 . S
C2979 C2987 1.503 . S
C2980 C2979 1.410 . S
C2980 C2981 1.392 . S
C2980 C2983 1.511 . S
C2981 C2977 1.376 . S
C2981 C2980 1.392 . S
C2981 H2993 0.929 . S
C2982 C2978 1.531 . S
C2982 H2994 0.960 . S
C2982 H2995 0.962 . S
C2982 H2996 0.960 . S
C2983 C2980 1.511 . S
C2983 H2997 0.961 . S
C2983 H2998 0.961 . S
C2983 H2999 0.961 . S
C2984 C2985 1.370 . S
C2984 C2986 1.363 . S
C2984 H3000 0.931 . S
C2985 C2984 1.370 . S
C2985 C2989 1.408 . S
C2986 C2984 1.363 . S
C2986 C2987 1.370 . S
C2986 C2990 1.524 . S
C2987 C2979 1.503 . S
C2987 C2986 1.370 . S
C2987 C2988 1.403 . S
C2988 C2987 1.403 . S
C2988 C2989 1.404 . S
C2988 C2991 1.539 . S
C2989 C2985 1.408 . S
C2989 C2988 1.404 . S
C2989 H3001 0.930 . S
C2990 C2986 1.524 . S
C2990 H3002 0.956 . S
C2990 H3003 0.961 . S
C2990 H3004 0.961 . S
C2991 C2988 1.539 . S
C2991 H3005 0.958 . S
C2991 H3006 0.961 . S
C2991 H3007 0.960 . S
H2992 C2976 0.931 . S
H2993 C2981 0.929 . S
H2994 C2982 0.960 . S
H2995 C2982 0.962 . S
H2996 C2982 0.960 . S
H2997 C2983 0.961 . S
H2998 C2983 0.961 . S
H2999 C2983 0.961 . S
H3000 C2984 0.931 . S
H3001 C2989 0.930 . S
H3002 C2990 0.956 . S
H3003 C2990 0.961 . S
H3004 C2990 0.961 . S
H3005 C2991 0.958 . S
H3006 C2991 0.961 . S
H3007 C2991 0.960 . S
C3008 C3009 1.391 . S
C3008 C3010 1.394 . S
C3008 H3024 0.931 . S
C3009 C3008 1.391 . S
C3009 C3013 1.376 . S
C3010 C3008 1.394 . S
C3010 C3011 1.369 . S
C3010 C3014 1.531 . S
C3011 C3010 1.369 . S
C3011 C3012 1.410 . S
C3011 C3019 1.503 . S
C3012 C3011 1.410 . S
C3012 C3013 1.392 . S
C3012 C3015 1.511 . S
C3013 C3009 1.376 . S
C3013 C3012 1.392 . S
C3013 H3025 0.929 . S
C3014 C3010 1.531 . S
C3014 H3026 0.960 . S
C3014 H3027 0.962 . S
C3014 H3028 0.960 . S
C3015 C3012 1.511 . S
C3015 H3029 0.961 . S
C3015 H3030 0.961 . S
C3015 H3031 0.961 . S
C3016 C3017 1.370 . S
C3016 C3018 1.363 . S
C3016 H3032 0.931 . S
C3017 C3016 1.370 . S
C3017 C3021 1.408 . S
C3018 C3016 1.363 . S
C3018 C3019 1.370 . S
C3018 C3022 1.524 . S
C3019 C3011 1.503 . S
C3019 C3018 1.370 . S
C3019 C3020 1.403 . S
C3020 C3019 1.403 . S
C3020 C3021 1.404 . S
C3020 C3023 1.539 . S
C3021 C3017 1.408 . S
C3021 C3020 1.404 . S
C3021 H3033 0.930 . S
C3022 C3018 1.524 . S
C3022 H3034 0.956 . S
C3022 H3035 0.961 . S
C3022 H3036 0.961 . S
C3023 C3020 1.539 . S
C3023 H3037 0.958 . S
C3023 H3038 0.961 . S
C3023 H3039 0.960 . S
H3024 C3008 0.931 . S
H3025 C3013 0.929 . S
H3026 C3014 0.960 . S
H3027 C3014 0.962 . S
H3028 C3014 0.960 . S
H3029 C3015 0.961 . S
H3030 C3015 0.961 . S
H3031 C3015 0.961 . S
H3032 C3016 0.931 . S
H3033 C3021 0.930 . S
H3034 C3022 0.956 . S
H3035 C3022 0.961 . S
H3036 C3022 0.961 . S
H3037 C3023 0.958 . S
H3038 C3023 0.961 . S
H3039 C3023 0.960 . S
C3040 C3041 1.391 . S
C3040 C3042 1.394 . S
C3040 H3056 0.931 . S
C3041 C3040 1.391 . S
C3041 C3045 1.376 . S
C3042 C3040 1.394 . S
C3042 C3043 1.369 . S
C3042 C3046 1.531 . S
C3043 C3042 1.369 . S
C3043 C3044 1.410 . S
C3043 C3051 1.503 . S
C3044 C3043 1.410 . S
C3044 C3045 1.392 . S
C3044 C3047 1.511 . S
C3045 C3041 1.376 . S
C3045 C3044 1.392 . S
C3045 H3057 0.929 . S
C3046 C3042 1.531 . S
C3046 H3058 0.960 . S
C3046 H3059 0.962 . S
C3046 H3060 0.960 . S
C3047 C3044 1.511 . S
C3047 H3061 0.961 . S
C3047 H3062 0.961 . S
C3047 H3063 0.961 . S
C3048 C3049 1.370 . S
C3048 C3050 1.363 . S
C3048 H3064 0.931 . S
C3049 C3048 1.370 . S
C3049 C3053 1.408 . S
C3050 C3048 1.363 . S
C3050 C3051 1.370 . S
C3050 C3054 1.524 . S
C3051 C3043 1.503 . S
C3051 C3050 1.370 . S
C3051 C3052 1.403 . S
C3052 C3051 1.403 . S
C3052 C3053 1.404 . S
C3052 C3055 1.539 . S
C3053 C3049 1.408 . S
C3053 C3052 1.404 . S
C3053 H3065 0.930 . S
C3054 C3050 1.524 . S
C3054 H3066 0.956 . S
C3054 H3067 0.961 . S
C3054 H3068 0.961 . S
C3055 C3052 1.539 . S
C3055 H3069 0.958 . S
C3055 H3070 0.961 . S
C3055 H3071 0.960 . S
H3056 C3040 0.931 . S
H3057 C3045 0.929 . S
H3058 C3046 0.960 . S
H3059 C3046 0.962 . S
H3060 C3046 0.960 . S
H3061 C3047 0.961 . S
H3062 C3047 0.961 . S
H3063 C3047 0.961 . S
H3064 C3048 0.931 . S
H3065 C3053 0.930 . S
H3066 C3054 0.956 . S
H3067 C3054 0.961 . S
H3068 C3054 0.961 . S
H3069 C3055 0.958 . S
H3070 C3055 0.961 . S
H3071 C3055 0.960 . S
C3072 C3073 1.391 . S
C3072 C3074 1.394 . S
C3072 H3088 0.931 . S
C3073 C3072 1.391 . S
C3073 C3077 1.376 . S
C3074 C3072 1.394 . S
C3074 C3075 1.369 . S
C3074 C3078 1.531 . S
C3075 C3074 1.369 . S
C3075 C3076 1.410 . S
C3075 C3083 1.503 . S
C3076 C3075 1.410 . S
C3076 C3077 1.392 . S
C3076 C3079 1.511 . S
C3077 C3073 1.376 . S
C3077 C3076 1.392 . S
C3077 H3089 0.929 . S
C3078 C3074 1.531 . S
C3078 H3090 0.960 . S
C3078 H3091 0.962 . S
C3078 H3092 0.960 . S
C3079 C3076 1.511 . S
C3079 H3093 0.961 . S
C3079 H3094 0.961 . S
C3079 H3095 0.961 . S
C3080 C3081 1.370 . S
C3080 C3082 1.363 . S
C3080 H3096 0.931 . S
C3081 C3080 1.370 . S
C3081 C3085 1.408 . S
C3082 C3080 1.363 . S
C3082 C3083 1.370 . S
C3082 C3086 1.524 . S
C3083 C3075 1.503 . S
C3083 C3082 1.370 . S
C3083 C3084 1.403 . S
C3084 C3083 1.403 . S
C3084 C3085 1.404 . S
C3084 C3087 1.539 . S
C3085 C3081 1.408 . S
C3085 C3084 1.404 . S
C3085 H3097 0.930 . S
C3086 C3082 1.524 . S
C3086 H3098 0.956 . S
C3086 H3099 0.961 . S
C3086 H3100 0.961 . S
C3087 C3084 1.539 . S
C3087 H3101 0.958 . S
C3087 H3102 0.961 . S
C3087 H3103 0.960 . S
H3088 C3072 0.931 . S
H3089 C3077 0.929 . S
H3090 C3078 0.960 . S
H3091 C3078 0.962 . S
H3092 C3078 0.960 . S
H3093 C3079 0.961 . S
H3094 C3079 0.961 . S
H3095 C3079 0.961 . S
H3096 C3080 0.931 . S
H3097 C3085 0.930 . S
H3098 C3086 0.956 . S
H3099 C3086 0.961 . S
H3100 C3086 0.961 . S
H3101 C3087 0.958 . S
H3102 C3087 0.961 . S
H3103 C3087 0.960 . S
C3104 C3105 1.391 . S
C3104 C3106 1.394 . S
C3104 H3120 0.931 . S
C3105 C3104 1.391 . S
C3105 C3109 1.376 . S
C3106 C3104 1.394 . S
C3106 C3107 1.369 . S
C3106 C3110 1.531 . S
C3107 C3106 1.369 . S
C3107 C3108 1.410 . S
C3107 C3115 1.503 . S
C3108 C3107 1.410 . S
C3108 C3109 1.392 . S
C3108 C3111 1.511 . S
C3109 C3105 1.376 . S
C3109 C3108 1.392 . S
C3109 H3121 0.929 . S
C3110 C3106 1.531 . S
C3110 H3122 0.960 . S
C3110 H3123 0.962 . S
C3110 H3124 0.960 . S
C3111 C3108 1.511 . S
C3111 H3125 0.961 . S
C3111 H3126 0.961 . S
C3111 H3127 0.961 . S
C3112 C3113 1.370 . S
C3112 C3114 1.363 . S
C3112 H3128 0.931 . S
C3113 C3112 1.370 . S
C3113 C3117 1.408 . S
C3114 C3112 1.363 . S
C3114 C3115 1.370 . S
C3114 C3118 1.524 . S
C3115 C3107 1.503 . S
C3115 C3114 1.370 . S
C3115 C3116 1.403 . S
C3116 C3115 1.403 . S
C3116 C3117 1.404 . S
C3116 C3119 1.539 . S
C3117 C3113 1.408 . S
C3117 C3116 1.404 . S
C3117 H3129 0.930 . S
C3118 C3114 1.524 . S
C3118 H3130 0.956 . S
C3118 H3131 0.961 . S
C3118 H3132 0.961 . S
C3119 C3116 1.539 . S
C3119 H3133 0.958 . S
C3119 H3134 0.961 . S
C3119 H3135 0.960 . S
H3120 C3104 0.931 . S
H3121 C3109 0.929 . S
H3122 C3110 0.960 . S
H3123 C3110 0.962 . S
H3124 C3110 0.960 . S
H3125 C3111 0.961 . S
H3126 C3111 0.961 . S
H3127 C3111 0.961 . S
H3128 C3112 0.931 . S
H3129 C3117 0.930 . S
H3130 C3118 0.956 . S
H3131 C3118 0.961 . S
H3132 C3118 0.961 . S
H3133 C3119 0.958 . S
H3134 C3119 0.961 . S
H3135 C3119 0.960 . S
C3136 C3137 1.391 . S
C3136 C3138 1.394 . S
C3136 H3152 0.931 . S
C3137 C3136 1.391 . S
C3137 C3141 1.376 . S
C3138 C3136 1.394 . S
C3138 C3139 1.369 . S
C3138 C3142 1.531 . S
C3139 C3138 1.369 . S
C3139 C3140 1.410 . S
C3139 C3147 1.503 . S
C3140 C3139 1.410 . S
C3140 C3141 1.392 . S
C3140 C3143 1.511 . S
C3141 C3137 1.376 . S
C3141 C3140 1.392 . S
C3141 H3153 0.929 . S
C3142 C3138 1.531 . S
C3142 H3154 0.960 . S
C3142 H3155 0.962 . S
C3142 H3156 0.960 . S
C3143 C3140 1.511 . S
C3143 H3157 0.961 . S
C3143 H3158 0.961 . S
C3143 H3159 0.961 . S
C3144 C3145 1.370 . S
C3144 C3146 1.363 . S
C3144 H3160 0.931 . S
C3145 C3144 1.370 . S
C3145 C3149 1.408 . S
C3146 C3144 1.363 . S
C3146 C3147 1.370 . S
C3146 C3150 1.524 . S
C3147 C3139 1.503 . S
C3147 C3146 1.370 . S
C3147 C3148 1.403 . S
C3148 C3147 1.403 . S
C3148 C3149 1.404 . S
C3148 C3151 1.539 . S
C3149 C3145 1.408 . S
C3149 C3148 1.404 . S
C3149 H3161 0.930 . S
C3150 C3146 1.524 . S
C3150 H3162 0.956 . S
C3150 H3163 0.961 . S
C3150 H3164 0.961 . S
C3151 C3148 1.539 . S
C3151 H3165 0.958 . S
C3151 H3166 0.961 . S
C3151 H3167 0.960 . S
H3152 C3136 0.931 . S
H3153 C3141 0.929 . S
H3154 C3142 0.960 . S
H3155 C3142 0.962 . S
H3156 C3142 0.960 . S
H3157 C3143 0.961 . S
H3158 C3143 0.961 . S
H3159 C3143 0.961 . S
H3160 C3144 0.931 . S
H3161 C3149 0.930 . S
H3162 C3150 0.956 . S
H3163 C3150 0.961 . S
H3164 C3150 0.961 . S
H3165 C3151 0.958 . S
H3166 C3151 0.961 . S
H3167 C3151 0.960 . S
C3168 C3169 1.391 . S
C3168 C3170 1.394 . S
C3168 H3184 0.931 . S
C3169 C3168 1.391 . S
C3169 C3173 1.376 . S
C3170 C3168 1.394 . S
C3170 C3171 1.369 . S
C3170 C3174 1.531 . S
C3171 C3170 1.369 . S
C3171 C3172 1.410 . S
C3171 C3179 1.503 . S
C3172 C3171 1.410 . S
C3172 C3173 1.392 . S
C3172 C3175 1.511 . S
C3173 C3169 1.376 . S
C3173 C3172 1.392 . S
C3173 H3185 0.929 . S
C3174 C3170 1.531 . S
C3174 H3186 0.960 . S
C3174 H3187 0.962 . S
C3174 H3188 0.960 . S
C3175 C3172 1.511 . S
C3175 H3189 0.961 . S
C3175 H3190 0.961 . S
C3175 H3191 0.961 . S
C3176 C3177 1.370 . S
C3176 C3178 1.363 . S
C3176 H3192 0.931 . S
C3177 C3176 1.370 . S
C3177 C3181 1.408 . S
C3178 C3176 1.363 . S
C3178 C3179 1.370 . S
C3178 C3182 1.524 . S
C3179 C3171 1.503 . S
C3179 C3178 1.370 . S
C3179 C3180 1.403 . S
C3180 C3179 1.403 . S
C3180 C3181 1.404 . S
C3180 C3183 1.539 . S
C3181 C3177 1.408 . S
C3181 C3180 1.404 . S
C3181 H3193 0.930 . S
C3182 C3178 1.524 . S
C3182 H3194 0.956 . S
C3182 H3195 0.961 . S
C3182 H3196 0.961 . S
C3183 C3180 1.539 . S
C3183 H3197 0.958 . S
C3183 H3198 0.961 . S
C3183 H3199 0.960 . S
H3184 C3168 0.931 . S
H3185 C3173 0.929 . S
H3186 C3174 0.960 . S
H3187 C3174 0.962 . S
H3188 C3174 0.960 . S
H3189 C3175 0.961 . S
H3190 C3175 0.961 . S
H3191 C3175 0.961 . S
H3192 C3176 0.931 . S
H3193 C3181 0.930 . S
H3194 C3182 0.956 . S
H3195 C3182 0.961 . S
H3196 C3182 0.961 . S
H3197 C3183 0.958 . S
H3198 C3183 0.961 . S
H3199 C3183 0.960 . S
C3200 C3201 1.391 . S
C3200 C3202 1.394 . S
C3200 H3216 0.931 . S
C3201 C3200 1.391 . S
C3201 C3205 1.376 . S
C3202 C3200 1.394 . S
C3202 C3203 1.369 . S
C3202 C3206 1.531 . S
C3203 C3202 1.369 . S
C3203 C3204 1.410 . S
C3203 C3211 1.503 . S
C3204 C3203 1.410 . S
C3204 C3205 1.392 . S
C3204 C3207 1.511 . S
C3205 C3201 1.376 . S
C3205 C3204 1.392 . S
C3205 H3217 0.929 . S
C3206 C3202 1.531 . S
C3206 H3218 0.960 . S
C3206 H3219 0.962 . S
C3206 H3220 0.960 . S
C3207 C3204 1.511 . S
C3207 H3221 0.961 . S
C3207 H3222 0.961 . S
C3207 H3223 0.961 . S
C3208 C3209 1.370 . S
C3208 C3210 1.363 . S
C3208 H3224 0.931 . S
C3209 C3208 1.370 . S
C3209 C3213 1.408 . S
C3210 C3208 1.363 . S
C3210 C3211 1.370 . S
C3210 C3214 1.524 . S
C3211 C3203 1.503 . S
C3211 C3210 1.370 . S
C3211 C3212 1.403 . S
C3212 C3211 1.403 . S
C3212 C3213 1.404 . S
C3212 C3215 1.539 . S
C3213 C3209 1.408 . S
C3213 C3212 1.404 . S
C3213 H3225 0.930 . S
C3214 C3210 1.524 . S
C3214 H3226 0.956 . S
C3214 H3227 0.961 . S
C3214 H3228 0.961 . S
C3215 C3212 1.539 . S
C3215 H3229 0.958 . S
C3215 H3230 0.961 . S
C3215 H3231 0.960 . S
H3216 C3200 0.931 . S
H3217 C3205 0.929 . S
H3218 C3206 0.960 . S
H3219 C3206 0.962 . S
H3220 C3206 0.960 . S
H3221 C3207 0.961 . S
H3222 C3207 0.961 . S
H3223 C3207 0.961 . S
H3224 C3208 0.931 . S
H3225 C3213 0.930 . S
H3226 C3214 0.956 . S
H3227 C3214 0.961 . S
H3228 C3214 0.961 . S
H3229 C3215 0.958 . S
H3230 C3215 0.961 . S
H3231 C3215 0.960 . S
C3232 C3233 1.391 . S
C3232 C3234 1.394 . S
C3232 H3248 0.931 . S
C3233 C3232 1.391 . S
C3233 C3237 1.376 . S
C3234 C3232 1.394 . S
C3234 C3235 1.369 . S
C3234 C3238 1.531 . S
C3235 C3234 1.369 . S
C3235 C3236 1.410 . S
C3235 C3243 1.503 . S
C3236 C3235 1.410 . S
C3236 C3237 1.392 . S
C3236 C3239 1.511 . S
C3237 C3233 1.376 . S
C3237 C3236 1.392 . S
C3237 H3249 0.929 . S
C3238 C3234 1.531 . S
C3238 H3250 0.960 . S
C3238 H3251 0.962 . S
C3238 H3252 0.960 . S
C3239 C3236 1.511 . S
C3239 H3253 0.961 . S
C3239 H3254 0.961 . S
C3239 H3255 0.961 . S
C3240 C3241 1.370 . S
C3240 C3242 1.363 . S
C3240 H3256 0.931 . S
C3241 C3240 1.370 . S
C3241 C3245 1.408 . S
C3242 C3240 1.363 . S
C3242 C3243 1.370 . S
C3242 C3246 1.524 . S
C3243 C3235 1.503 . S
C3243 C3242 1.370 . S
C3243 C3244 1.403 . S
C3244 C3243 1.403 . S
C3244 C3245 1.404 . S
C3244 C3247 1.539 . S
C3245 C3241 1.408 . S
C3245 C3244 1.404 . S
C3245 H3257 0.930 . S
C3246 C3242 1.524 . S
C3246 H3258 0.956 . S
C3246 H3259 0.961 . S
C3246 H3260 0.961 . S
C3247 C3244 1.539 . S
C3247 H3261 0.958 . S
C3247 H3262 0.961 . S
C3247 H3263 0.960 . S
H3248 C3232 0.931 . S
H3249 C3237 0.929 . S
H3250 C3238 0.960 . S
H3251 C3238 0.962 . S
H3252 C3238 0.960 . S
H3253 C3239 0.961 . S
H3254 C3239 0.961 . S
H3255 C3239 0.961 . S
H3256 C3240 0.931 . S
H3257 C3245 0.930 . S
H3258 C3246 0.956 . S
H3259 C3246 0.961 . S
H3260 C3246 0.961 . S
H3261 C3247 0.958 . S
H3262 C3247 0.961 . S
H3263 C3247 0.960 . S
C3264 C3265 1.391 . S
C3264 C3266 1.394 . S
C3264 H3280 0.931 . S
C3265 C3264 1.391 . S
C3265 C3269 1.376 . S
C3266 C3264 1.394 . S
C3266 C3267 1.369 . S
C3266 C3270 1.531 . S
C3267 C3266 1.369 . S
C3267 C3268 1.410 . S
C3267 C3275 1.503 . S
C3268 C3267 1.410 . S
C3268 C3269 1.392 . S
C3268 C3271 1.511 . S
C3269 C3265 1.376 . S
C3269 C3268 1.392 . S
C3269 H3281 0.929 . S
C3270 C3266 1.531 . S
C3270 H3282 0.960 . S
C3270 H3283 0.962 . S
C3270 H3284 0.960 . S
C3271 C3268 1.511 . S
C3271 H3285 0.961 . S
C3271 H3286 0.961 . S
C3271 H3287 0.961 . S
C3272 C3273 1.370 . S
C3272 C3274 1.363 . S
C3272 H3288 0.931 . S
C3273 C3272 1.370 . S
C3273 C3277 1.408 . S
C3274 C3272 1.363 . S
C3274 C3275 1.370 . S
C3274 C3278 1.524 . S
C3275 C3267 1.503 . S
C3275 C3274 1.370 . S
C3275 C3276 1.403 . S
C3276 C3275 1.403 . S
C3276 C3277 1.404 . S
C3276 C3279 1.539 . S
C3277 C3273 1.408 . S
C3277 C3276 1.404 . S
C3277 H3289 0.930 . S
C3278 C3274 1.524 . S
C3278 H3290 0.956 . S
C3278 H3291 0.961 . S
C3278 H3292 0.961 . S
C3279 C3276 1.539 . S
C3279 H3293 0.958 . S
C3279 H3294 0.961 . S
C3279 H3295 0.960 . S
H3280 C3264 0.931 . S
H3281 C3269 0.929 . S
H3282 C3270 0.960 . S
H3283 C3270 0.962 . S
H3284 C3270 0.960 . S
H3285 C3271 0.961 . S
H3286 C3271 0.961 . S
H3287 C3271 0.961 . S
H3288 C3272 0.931 . S
H3289 C3277 0.930 . S
H3290 C3278 0.956 . S
H3291 C3278 0.961 . S
H3292 C3278 0.961 . S
H3293 C3279 0.958 . S
H3294 C3279 0.961 . S
H3295 C3279 0.960 . S
C3296 C3297 1.391 . S
C3296 C3298 1.394 . S
C3296 H3312 0.931 . S
C3297 C3296 1.391 . S
C3297 C3301 1.376 . S
C3298 C3296 1.394 . S
C3298 C3299 1.369 . S
C3298 C3302 1.531 . S
C3299 C3298 1.369 . S
C3299 C3300 1.410 . S
C3299 C3307 1.503 . S
C3300 C3299 1.410 . S
C3300 C3301 1.392 . S
C3300 C3303 1.511 . S
C3301 C3297 1.376 . S
C3301 C3300 1.392 . S
C3301 H3313 0.929 . S
C3302 C3298 1.531 . S
C3302 H3314 0.960 . S
C3302 H3315 0.962 . S
C3302 H3316 0.960 . S
C3303 C3300 1.511 . S
C3303 H3317 0.961 . S
C3303 H3318 0.961 . S
C3303 H3319 0.961 . S
C3304 C3305 1.370 . S
C3304 C3306 1.363 . S
C3304 H3320 0.931 . S
C3305 C3304 1.370 . S
C3305 C3309 1.408 . S
C3306 C3304 1.363 . S
C3306 C3307 1.370 . S
C3306 C3310 1.524 . S
C3307 C3299 1.503 . S
C3307 C3306 1.370 . S
C3307 C3308 1.403 . S
C3308 C3307 1.403 . S
C3308 C3309 1.404 . S
C3308 C3311 1.539 . S
C3309 C3305 1.408 . S
C3309 C3308 1.404 . S
C3309 H3321 0.930 . S
C3310 C3306 1.524 . S
C3310 H3322 0.956 . S
C3310 H3323 0.961 . S
C3310 H3324 0.961 . S
C3311 C3308 1.539 . S
C3311 H3325 0.958 . S
C3311 H3326 0.961 . S
C3311 H3327 0.960 . S
H3312 C3296 0.931 . S
H3313 C3301 0.929 . S
H3314 C3302 0.960 . S
H3315 C3302 0.962 . S
H3316 C3302 0.960 . S
H3317 C3303 0.961 . S
H3318 C3303 0.961 . S
H3319 C3303 0.961 . S
H3320 C3304 0.931 . S
H3321 C3309 0.930 . S
H3322 C3310 0.956 . S
H3323 C3310 0.961 . S
H3324 C3310 0.961 . S
H3325 C3311 0.958 . S
H3326 C3311 0.961 . S
H3327 C3311 0.960 . S
C3328 C3329 1.391 . S
C3328 C3330 1.394 . S
C3328 H3344 0.931 . S
C3329 C3328 1.391 . S
C3329 C3333 1.376 . S
C3330 C3328 1.394 . S
C3330 C3331 1.369 . S
C3330 C3334 1.531 . S
C3331 C3330 1.369 . S
C3331 C3332 1.410 . S
C3331 C3339 1.503 . S
C3332 C3331 1.410 . S
C3332 C3333 1.392 . S
C3332 C3335 1.511 . S
C3333 C3329 1.376 . S
C3333 C3332 1.392 . S
C3333 H3345 0.929 . S
C3334 C3330 1.531 . S
C3334 H3346 0.960 . S
C3334 H3347 0.962 . S
C3334 H3348 0.960 . S
C3335 C3332 1.511 . S
C3335 H3349 0.961 . S
C3335 H3350 0.961 . S
C3335 H3351 0.961 . S
C3336 C3337 1.370 . S
C3336 C3338 1.363 . S
C3336 H3352 0.931 . S
C3337 C3336 1.370 . S
C3337 C3341 1.408 . S
C3338 C3336 1.363 . S
C3338 C3339 1.370 . S
C3338 C3342 1.524 . S
C3339 C3331 1.503 . S
C3339 C3338 1.370 . S
C3339 C3340 1.403 . S
C3340 C3339 1.403 . S
C3340 C3341 1.404 . S
C3340 C3343 1.539 . S
C3341 C3337 1.408 . S
C3341 C3340 1.404 . S
C3341 H3353 0.930 . S
C3342 C3338 1.524 . S
C3342 H3354 0.956 . S
C3342 H3355 0.961 . S
C3342 H3356 0.961 . S
C3343 C3340 1.539 . S
C3343 H3357 0.958 . S
C3343 H3358 0.961 . S
C3343 H3359 0.960 . S
H3344 C3328 0.931 . S
H3345 C3333 0.929 . S
H3346 C3334 0.960 . S
H3347 C3334 0.962 . S
H3348 C3334 0.960 . S
H3349 C3335 0.961 . S
H3350 C3335 0.961 . S
H3351 C3335 0.961 . S
H3352 C3336 0.931 . S
H3353 C3341 0.930 . S
H3354 C3342 0.956 . S
H3355 C3342 0.961 . S
H3356 C3342 0.961 . S
H3357 C3343 0.958 . S
H3358 C3343 0.961 . S
H3359 C3343 0.960 . S
C3360 C3361 1.391 . S
C3360 C3362 1.394 . S
C3360 H3376 0.931 . S
C3361 C3360 1.391 . S
C3361 C3365 1.376 . S
C3362 C3360 1.394 . S
C3362 C3363 1.369 . S
C3362 C3366 1.531 . S
C3363 C3362 1.369 . S
C3363 C3364 1.410 . S
C3363 C3371 1.503 . S
C3364 C3363 1.410 . S
C3364 C3365 1.392 . S
C3364 C3367 1.511 . S
C3365 C3361 1.376 . S
C3365 C3364 1.392 . S
C3365 H3377 0.929 . S
C3366 C3362 1.531 . S
C3366 H3378 0.960 . S
C3366 H3379 0.962 . S
C3366 H3380 0.960 . S
C3367 C3364 1.511 . S
C3367 H3381 0.961 . S
C3367 H3382 0.961 . S
C3367 H3383 0.961 . S
C3368 C3369 1.370 . S
C3368 C3370 1.363 . S
C3368 H3384 0.931 . S
C3369 C3368 1.370 . S
C3369 C3373 1.408 . S
C3370 C3368 1.363 . S
C3370 C3371 1.370 . S
C3370 C3374 1.524 . S
C3371 C3363 1.503 . S
C3371 C3370 1.370 . S
C3371 C3372 1.403 . S
C3372 C3371 1.403 . S
C3372 C3373 1.404 . S
C3372 C3375 1.539 . S
C3373 C3369 1.408 . S
C3373 C3372 1.404 . S
C3373 H3385 0.930 . S
C3374 C3370 1.524 . S
C3374 H3386 0.956 . S
C3374 H3387 0.961 . S
C3374 H3388 0.961 . S
C3375 C3372 1.539 . S
C3375 H3389 0.958 . S
C3375 H3390 0.961 . S
C3375 H3391 0.960 . S
H3376 C3360 0.931 . S
H3377 C3365 0.929 . S
H3378 C3366 0.960 . S
H3379 C3366 0.962 . S
H3380 C3366 0.960 . S
H3381 C3367 0.961 . S
H3382 C3367 0.961 . S
H3383 C3367 0.961 . S
H3384 C3368 0.931 . S
H3385 C3373 0.930 . S
H3386 C3374 0.956 . S
H3387 C3374 0.961 . S
H3388 C3374 0.961 . S
H3389 C3375 0.958 . S
H3390 C3375 0.961 . S
H3391 C3375 0.960 . S
C3392 C3393 1.391 . S
C3392 C3394 1.394 . S
C3392 H3408 0.931 . S
C3393 C3392 1.391 . S
C3393 C3397 1.376 . S
C3394 C3392 1.394 . S
C3394 C3395 1.369 . S
C3394 C3398 1.531 . S
C3395 C3394 1.369 . S
C3395 C3396 1.410 . S
C3395 C3403 1.503 . S
C3396 C3395 1.410 . S
C3396 C3397 1.392 . S
C3396 C3399 1.511 . S
C3397 C3393 1.376 . S
C3397 C3396 1.392 . S
C3397 H3409 0.929 . S
C3398 C3394 1.531 . S
C3398 H3410 0.960 . S
C3398 H3411 0.962 . S
C3398 H3412 0.960 . S
C3399 C3396 1.511 . S
C3399 H3413 0.961 . S
C3399 H3414 0.961 . S
C3399 H3415 0.961 . S
C3400 C3401 1.370 . S
C3400 C3402 1.363 . S
C3400 H3416 0.931 . S
C3401 C3400 1.370 . S
C3401 C3405 1.408 . S
C3402 C3400 1.363 . S
C3402 C3403 1.370 . S
C3402 C3406 1.524 . S
C3403 C3395 1.503 . S
C3403 C3402 1.370 . S
C3403 C3404 1.403 . S
C3404 C3403 1.403 . S
C3404 C3405 1.404 . S
C3404 C3407 1.539 . S
C3405 C3401 1.408 . S
C3405 C3404 1.404 . S
C3405 H3417 0.930 . S
C3406 C3402 1.524 . S
C3406 H3418 0.956 . S
C3406 H3419 0.961 . S
C3406 H3420 0.961 . S
C3407 C3404 1.539 . S
C3407 H3421 0.958 . S
C3407 H3422 0.961 . S
C3407 H3423 0.960 . S
H3408 C3392 0.931 . S
H3409 C3397 0.929 . S
H3410 C3398 0.960 . S
H3411 C3398 0.962 . S
H3412 C3398 0.960 . S
H3413 C3399 0.961 . S
H3414 C3399 0.961 . S
H3415 C3399 0.961 . S
H3416 C3400 0.931 . S
H3417 C3405 0.930 . S
H3418 C3406 0.956 . S
H3419 C3406 0.961 . S
H3420 C3406 0.961 . S
H3421 C3407 0.958 . S
H3422 C3407 0.961 . S
H3423 C3407 0.960 . S
C3424 C3425 1.391 . S
C3424 C3426 1.394 . S
C3424 H3440 0.931 . S
C3425 C3424 1.391 . S
C3425 C3429 1.376 . S
C3426 C3424 1.394 . S
C3426 C3427 1.369 . S
C3426 C3430 1.531 . S
C3427 C3426 1.369 . S
C3427 C3428 1.410 . S
C3427 C3435 1.503 . S
C3428 C3427 1.410 . S
C3428 C3429 1.392 . S
C3428 C3431 1.511 . S
C3429 C3425 1.376 . S
C3429 C3428 1.392 . S
C3429 H3441 0.929 . S
C3430 C3426 1.531 . S
C3430 H3442 0.960 . S
C3430 H3443 0.962 . S
C3430 H3444 0.960 . S
C3431 C3428 1.511 . S
C3431 H3445 0.961 . S
C3431 H3446 0.961 . S
C3431 H3447 0.961 . S
C3432 C3433 1.370 . S
C3432 C3434 1.363 . S
C3432 H3448 0.931 . S
C3433 C3432 1.370 . S
C3433 C3437 1.408 . S
C3434 C3432 1.363 . S
C3434 C3435 1.370 . S
C3434 C3438 1.524 . S
C3435 C3427 1.503 . S
C3435 C3434 1.370 . S
C3435 C3436 1.403 . S
C3436 C3435 1.403 . S
C3436 C3437 1.404 . S
C3436 C3439 1.539 . S
C3437 C3433 1.408 . S
C3437 C3436 1.404 . S
C3437 H3449 0.930 . S
C3438 C3434 1.524 . S
C3438 H3450 0.956 . S
C3438 H3451 0.961 . S
C3438 H3452 0.961 . S
C3439 C3436 1.539 . S
C3439 H3453 0.958 . S
C3439 H3454 0.961 . S
C3439 H3455 0.960 . S
H3440 C3424 0.931 . S
H3441 C3429 0.929 . S
H3442 C3430 0.960 . S
H3443 C3430 0.962 . S
H3444 C3430 0.960 . S
H3445 C3431 0.961 . S
H3446 C3431 0.961 . S
H3447 C3431 0.961 . S
H3448 C3432 0.931 . S
H3449 C3437 0.930 . S
H3450 C3438 0.956 . S
H3451 C3438 0.961 . S
H3452 C3438 0.961 . S
H3453 C3439 0.958 . S
H3454 C3439 0.961 . S
H3455 C3439 0.960 . S
C3456 C3457 1.391 . S
C3456 C3458 1.394 . S
C3456 H3472 0.931 . S
C3457 C3456 1.391 . S
C3457 C3461 1.376 . S
C3458 C3456 1.394 . S
C3458 C3459 1.369 . S
C3458 C3462 1.531 . S
C3459 C3458 1.369 . S
C3459 C3460 1.410 . S
C3459 C3467 1.503 . S
C3460 C3459 1.410 . S
C3460 C3461 1.392 . S
C3460 C3463 1.511 . S
C3461 C3457 1.376 . S
C3461 C3460 1.392 . S
C3461 H3473 0.929 . S
C3462 C3458 1.531 . S
C3462 H3474 0.960 . S
C3462 H3475 0.962 . S
C3462 H3476 0.960 . S
C3463 C3460 1.511 . S
C3463 H3477 0.961 . S
C3463 H3478 0.961 . S
C3463 H3479 0.961 . S
C3464 C3465 1.370 . S
C3464 C3466 1.363 . S
C3464 H3480 0.931 . S
C3465 C3464 1.370 . S
C3465 C3469 1.408 . S
C3466 C3464 1.363 . S
C3466 C3467 1.370 . S
C3466 C3470 1.524 . S
C3467 C3459 1.503 . S
C3467 C3466 1.370 . S
C3467 C3468 1.403 . S
C3468 C3467 1.403 . S
C3468 C3469 1.404 . S
C3468 C3471 1.539 . S
C3469 C3465 1.408 . S
C3469 C3468 1.404 . S
C3469 H3481 0.930 . S
C3470 C3466 1.524 . S
C3470 H3482 0.956 . S
C3470 H3483 0.961 . S
C3470 H3484 0.961 . S
C3471 C3468 1.539 . S
C3471 H3485 0.958 . S
C3471 H3486 0.961 . S
C3471 H3487 0.960 . S
H3472 C3456 0.931 . S
H3473 C3461 0.929 . S
H3474 C3462 0.960 . S
H3475 C3462 0.962 . S
H3476 C3462 0.960 . S
H3477 C3463 0.961 . S
H3478 C3463 0.961 . S
H3479 C3463 0.961 . S
H3480 C3464 0.931 . S
H3481 C3469 0.930 . S
H3482 C3470 0.956 . S
H3483 C3470 0.961 . S
H3484 C3470 0.961 . S
H3485 C3471 0.958 . S
H3486 C3471 0.961 . S
H3487 C3471 0.960 . S
C3488 C3489 1.391 . S
C3488 C3490 1.394 . S
C3488 H3504 0.931 . S
C3489 C3488 1.391 . S
C3489 C3493 1.376 . S
C3490 C3488 1.394 . S
C3490 C3491 1.369 . S
C3490 C3494 1.531 . S
C3491 C3490 1.369 . S
C3491 C3492 1.410 . S
C3491 C3499 1.503 . S
C3492 C3491 1.410 . S
C3492 C3493 1.392 . S
C3492 C3495 1.511 . S
C3493 C3489 1.376 . S
C3493 C3492 1.392 . S
C3493 H3505 0.929 . S
C3494 C3490 1.531 . S
C3494 H3506 0.960 . S
C3494 H3507 0.962 . S
C3494 H3508 0.960 . S
C3495 C3492 1.511 . S
C3495 H3509 0.961 . S
C3495 H3510 0.961 . S
C3495 H3511 0.961 . S
C3496 C3497 1.370 . S
C3496 C3498 1.363 . S
C3496 H3512 0.931 . S
C3497 C3496 1.370 . S
C3497 C3501 1.408 . S
C3498 C3496 1.363 . S
C3498 C3499 1.370 . S
C3498 C3502 1.524 . S
C3499 C3491 1.503 . S
C3499 C3498 1.370 . S
C3499 C3500 1.403 . S
C3500 C3499 1.403 . S
C3500 C3501 1.404 . S
C3500 C3503 1.539 . S
C3501 C3497 1.408 . S
C3501 C3500 1.404 . S
C3501 H3513 0.930 . S
C3502 C3498 1.524 . S
C3502 H3514 0.956 . S
C3502 H3515 0.961 . S
C3502 H3516 0.961 . S
C3503 C3500 1.539 . S
C3503 H3517 0.958 . S
C3503 H3518 0.961 . S
C3503 H3519 0.960 . S
H3504 C3488 0.931 . S
H3505 C3493 0.929 . S
H3506 C3494 0.960 . S
H3507 C3494 0.962 . S
H3508 C3494 0.960 . S
H3509 C3495 0.961 . S
H3510 C3495 0.961 . S
H3511 C3495 0.961 . S
H3512 C3496 0.931 . S
H3513 C3501 0.930 . S
H3514 C3502 0.956 . S
H3515 C3502 0.961 . S
H3516 C3502 0.961 . S
H3517 C3503 0.958 . S
H3518 C3503 0.961 . S
H3519 C3503 0.960 . S
C3520 C3521 1.391 . S
C3520 C3522 1.394 . S
C3520 H3536 0.931 . S
C3521 C3520 1.391 . S
C3521 C3525 1.376 . S
C3522 C3520 1.394 . S
C3522 C3523 1.369 . S
C3522 C3526 1.531 . S
C3523 C3522 1.369 . S
C3523 C3524 1.410 . S
C3523 C3531 1.503 . S
C3524 C3523 1.410 . S
C3524 C3525 1.392 . S
C3524 C3527 1.511 . S
C3525 C3521 1.376 . S
C3525 C3524 1.392 . S
C3525 H3537 0.929 . S
C3526 C3522 1.531 . S
C3526 H3538 0.960 . S
C3526 H3539 0.962 . S
C3526 H3540 0.960 . S
C3527 C3524 1.511 . S
C3527 H3541 0.961 . S
C3527 H3542 0.961 . S
C3527 H3543 0.961 . S
C3528 C3529 1.370 . S
C3528 C3530 1.363 . S
C3528 H3544 0.931 . S
C3529 C3528 1.370 . S
C3529 C3533 1.408 . S
C3530 C3528 1.363 . S
C3530 C3531 1.370 . S
C3530 C3534 1.524 . S
C3531 C3523 1.503 . S
C3531 C3530 1.370 . S
C3531 C3532 1.403 . S
C3532 C3531 1.403 . S
C3532 C3533 1.404 . S
C3532 C3535 1.539 . S
C3533 C3529 1.408 . S
C3533 C3532 1.404 . S
C3533 H3545 0.930 . S
C3534 C3530 1.524 . S
C3534 H3546 0.956 . S
C3534 H3547 0.961 . S
C3534 H3548 0.961 . S
C3535 C3532 1.539 . S
C3535 H3549 0.958 . S
C3535 H3550 0.961 . S
C3535 H3551 0.960 . S
H3536 C3520 0.931 . S
H3537 C3525 0.929 . S
H3538 C3526 0.960 . S
H3539 C3526 0.962 . S
H3540 C3526 0.960 . S
H3541 C3527 0.961 . S
H3542 C3527 0.961 . S
H3543 C3527 0.961 . S
H3544 C3528 0.931 . S
H3545 C3533 0.930 . S
H3546 C3534 0.956 . S
H3547 C3534 0.961 . S
H3548 C3534 0.961 . S
H3549 C3535 0.958 . S
H3550 C3535 0.961 . S
H3551 C3535 0.960 . S
C3552 C3553 1.391 . S
C3552 C3554 1.394 . S
C3552 H3568 0.931 . S
C3553 C3552 1.391 . S
C3553 C3557 1.376 . S
C3554 C3552 1.394 . S
C3554 C3555 1.369 . S
C3554 C3558 1.531 . S
C3555 C3554 1.369 . S
C3555 C3556 1.410 . S
C3555 C3563 1.503 . S
C3556 C3555 1.410 . S
C3556 C3557 1.392 . S
C3556 C3559 1.511 . S
C3557 C3553 1.376 . S
C3557 C3556 1.392 . S
C3557 H3569 0.929 . S
C3558 C3554 1.531 . S
C3558 H3570 0.960 . S
C3558 H3571 0.962 . S
C3558 H3572 0.960 . S
C3559 C3556 1.511 . S
C3559 H3573 0.961 . S
C3559 H3574 0.961 . S
C3559 H3575 0.961 . S
C3560 C3561 1.370 . S
C3560 C3562 1.363 . S
C3560 H3576 0.931 . S
C3561 C3560 1.370 . S
C3561 C3565 1.408 . S
C3562 C3560 1.363 . S
C3562 C3563 1.370 . S
C3562 C3566 1.524 . S
C3563 C3555 1.503 . S
C3563 C3562 1.370 . S
C3563 C3564 1.403 . S
C3564 C3563 1.403 . S
C3564 C3565 1.404 . S
C3564 C3567 1.539 . S
C3565 C3561 1.408 . S
C3565 C3564 1.404 . S
C3565 H3577 0.930 . S
C3566 C3562 1.524 . S
C3566 H3578 0.956 . S
C3566 H3579 0.961 . S
C3566 H3580 0.961 . S
C3567 C3564 1.539 . S
C3567 H3581 0.958 . S
C3567 H3582 0.961 . S
C3567 H3583 0.960 . S
H3568 C3552 0.931 . S
H3569 C3557 0.929 . S
H3570 C3558 0.960 . S
H3571 C3558 0.962 . S
H3572 C3558 0.960 . S
H3573 C3559 0.961 . S
H3574 C3559 0.961 . S
H3575 C3559 0.961 . S
H3576 C3560 0.931 . S
H3577 C3565 0.930 . S
H3578 C3566 0.956 . S
H3579 C3566 0.961 . S
H3580 C3566 0.961 . S
H3581 C3567 0.958 . S
H3582 C3567 0.961 . S
H3583 C3567 0.960 . S
C3584 C3585 1.391 . S
C3584 C3586 1.394 . S
C3584 H3600 0.931 . S
C3585 C3584 1.391 . S
C3585 C3589 1.376 . S
C3586 C3584 1.394 . S
C3586 C3587 1.369 . S
C3586 C3590 1.531 . S
C3587 C3586 1.369 . S
C3587 C3588 1.410 . S
C3587 C3595 1.503 . S
C3588 C3587 1.410 . S
C3588 C3589 1.392 . S
C3588 C3591 1.511 . S
C3589 C3585 1.376 . S
C3589 C3588 1.392 . S
C3589 H3601 0.929 . S
C3590 C3586 1.531 . S
C3590 H3602 0.960 . S
C3590 H3603 0.962 . S
C3590 H3604 0.960 . S
C3591 C3588 1.511 . S
C3591 H3605 0.961 . S
C3591 H3606 0.961 . S
C3591 H3607 0.961 . S
C3592 C3593 1.370 . S
C3592 C3594 1.363 . S
C3592 H3608 0.931 . S
C3593 C3592 1.370 . S
C3593 C3597 1.408 . S
C3594 C3592 1.363 . S
C3594 C3595 1.370 . S
C3594 C3598 1.524 . S
C3595 C3587 1.503 . S
C3595 C3594 1.370 . S
C3595 C3596 1.403 . S
C3596 C3595 1.403 . S
C3596 C3597 1.404 . S
C3596 C3599 1.539 . S
C3597 C3593 1.408 . S
C3597 C3596 1.404 . S
C3597 H3609 0.930 . S
C3598 C3594 1.524 . S
C3598 H3610 0.956 . S
C3598 H3611 0.961 . S
C3598 H3612 0.961 . S
C3599 C3596 1.539 . S
C3599 H3613 0.958 . S
C3599 H3614 0.961 . S
C3599 H3615 0.960 . S
H3600 C3584 0.931 . S
H3601 C3589 0.929 . S
H3602 C3590 0.960 . S
H3603 C3590 0.962 . S
H3604 C3590 0.960 . S
H3605 C3591 0.961 . S
H3606 C3591 0.961 . S
H3607 C3591 0.961 . S
H3608 C3592 0.931 . S
H3609 C3597 0.930 . S
H3610 C3598 0.956 . S
H3611 C3598 0.961 . S
H3612 C3598 0.961 . S
H3613 C3599 0.958 . S
H3614 C3599 0.961 . S
H3615 C3599 0.960 . S
C3616 C3617 1.391 . S
C3616 C3618 1.394 . S
C3616 H3632 0.931 . S
C3617 C3616 1.391 . S
C3617 C3621 1.376 . S
C3618 C3616 1.394 . S
C3618 C3619 1.369 . S
C3618 C3622 1.531 . S
C3619 C3618 1.369 . S
C3619 C3620 1.410 . S
C3619 C3627 1.503 . S
C3620 C3619 1.410 . S
C3620 C3621 1.392 . S
C3620 C3623 1.511 . S
C3621 C3617 1.376 . S
C3621 C3620 1.392 . S
C3621 H3633 0.929 . S
C3622 C3618 1.531 . S
C3622 H3634 0.960 . S
C3622 H3635 0.962 . S
C3622 H3636 0.960 . S
C3623 C3620 1.511 . S
C3623 H3637 0.961 . S
C3623 H3638 0.961 . S
C3623 H3639 0.961 . S
C3624 C3625 1.370 . S
C3624 C3626 1.363 . S
C3624 H3640 0.931 . S
C3625 C3624 1.370 . S
C3625 C3629 1.408 . S
C3626 C3624 1.363 . S
C3626 C3627 1.370 . S
C3626 C3630 1.524 . S
C3627 C3619 1.503 . S
C3627 C3626 1.370 . S
C3627 C3628 1.403 . S
C3628 C3627 1.403 . S
C3628 C3629 1.404 . S
C3628 C3631 1.539 . S
C3629 C3625 1.408 . S
C3629 C3628 1.404 . S
C3629 H3641 0.930 . S
C3630 C3626 1.524 . S
C3630 H3642 0.956 . S
C3630 H3643 0.961 . S
C3630 H3644 0.961 . S
C3631 C3628 1.539 . S
C3631 H3645 0.958 . S
C3631 H3646 0.961 . S
C3631 H3647 0.960 . S
H3632 C3616 0.931 . S
H3633 C3621 0.929 . S
H3634 C3622 0.960 . S
H3635 C3622 0.962 . S
H3636 C3622 0.960 . S
H3637 C3623 0.961 . S
H3638 C3623 0.961 . S
H3639 C3623 0.961 . S
H3640 C3624 0.931 . S
H3641 C3629 0.930 . S
H3642 C3630 0.956 . S
H3643 C3630 0.961 . S
H3644 C3630 0.961 . S
H3645 C3631 0.958 . S
H3646 C3631 0.961 . S
H3647 C3631 0.960 . S
C3648 C3649 1.391 . S
C3648 C3650 1.394 . S
C3648 H3664 0.931 . S
C3649 C3648 1.391 . S
C3649 C3653 1.376 . S
C3650 C3648 1.394 . S
C3650 C3651 1.369 . S
C3650 C3654 1.531 . S
C3651 C3650 1.369 . S
C3651 C3652 1.410 . S
C3651 C3659 1.503 . S
C3652 C3651 1.410 . S
C3652 C3653 1.392 . S
C3652 C3655 1.511 . S
C3653 C3649 1.376 . S
C3653 C3652 1.392 . S
C3653 H3665 0.929 . S
C3654 C3650 1.531 . S
C3654 H3666 0.960 . S
C3654 H3667 0.962 . S
C3654 H3668 0.960 . S
C3655 C3652 1.511 . S
C3655 H3669 0.961 . S
C3655 H3670 0.961 . S
C3655 H3671 0.961 . S
C3656 C3657 1.370 . S
C3656 C3658 1.363 . S
C3656 H3672 0.931 . S
C3657 C3656 1.370 . S
C3657 C3661 1.408 . S
C3658 C3656 1.363 . S
C3658 C3659 1.370 . S
C3658 C3662 1.524 . S
C3659 C3651 1.503 . S
C3659 C3658 1.370 . S
C3659 C3660 1.403 . S
C3660 C3659 1.403 . S
C3660 C3661 1.404 . S
C3660 C3663 1.539 . S
C3661 C3657 1.408 . S
C3661 C3660 1.404 . S
C3661 H3673 0.930 . S
C3662 C3658 1.524 . S
C3662 H3674 0.956 . S
C3662 H3675 0.961 . S
C3662 H3676 0.961 . S
C3663 C3660 1.539 . S
C3663 H3677 0.958 . S
C3663 H3678 0.961 . S
C3663 H3679 0.960 . S
H3664 C3648 0.931 . S
H3665 C3653 0.929 . S
H3666 C3654 0.960 . S
H3667 C3654 0.962 . S
H3668 C3654 0.960 . S
H3669 C3655 0.961 . S
H3670 C3655 0.961 . S
H3671 C3655 0.961 . S
H3672 C3656 0.931 . S
H3673 C3661 0.930 . S
H3674 C3662 0.956 . S
H3675 C3662 0.961 . S
H3676 C3662 0.961 . S
H3677 C3663 0.958 . S
H3678 C3663 0.961 . S
H3679 C3663 0.960 . S
C3680 C3681 1.391 . S
C3680 C3682 1.394 . S
C3680 H3696 0.931 . S
C3681 C3680 1.391 . S
C3681 C3685 1.376 . S
C3682 C3680 1.394 . S
C3682 C3683 1.369 . S
C3682 C3686 1.531 . S
C3683 C3682 1.369 . S
C3683 C3684 1.410 . S
C3683 C3691 1.503 . S
C3684 C3683 1.410 . S
C3684 C3685 1.392 . S
C3684 C3687 1.511 . S
C3685 C3681 1.376 . S
C3685 C3684 1.392 . S
C3685 H3697 0.929 . S
C3686 C3682 1.531 . S
C3686 H3698 0.960 . S
C3686 H3699 0.962 . S
C3686 H3700 0.960 . S
C3687 C3684 1.511 . S
C3687 H3701 0.961 . S
C3687 H3702 0.961 . S
C3687 H3703 0.961 . S
C3688 C3689 1.370 . S
C3688 C3690 1.363 . S
C3688 H3704 0.931 . S
C3689 C3688 1.370 . S
C3689 C3693 1.408 . S
C3690 C3688 1.363 . S
C3690 C3691 1.370 . S
C3690 C3694 1.524 . S
C3691 C3683 1.503 . S
C3691 C3690 1.370 . S
C3691 C3692 1.403 . S
C3692 C3691 1.403 . S
C3692 C3693 1.404 . S
C3692 C3695 1.539 . S
C3693 C3689 1.408 . S
C3693 C3692 1.404 . S
C3693 H3705 0.930 . S
C3694 C3690 1.524 . S
C3694 H3706 0.956 . S
C3694 H3707 0.961 . S
C3694 H3708 0.961 . S
C3695 C3692 1.539 . S
C3695 H3709 0.958 . S
C3695 H3710 0.961 . S
C3695 H3711 0.960 . S
H3696 C3680 0.931 . S
H3697 C3685 0.929 . S
H3698 C3686 0.960 . S
H3699 C3686 0.962 . S
H3700 C3686 0.960 . S
H3701 C3687 0.961 . S
H3702 C3687 0.961 . S
H3703 C3687 0.961 . S
H3704 C3688 0.931 . S
H3705 C3693 0.930 . S
H3706 C3694 0.956 . S
H3707 C3694 0.961 . S
H3708 C3694 0.961 . S
H3709 C3695 0.958 . S
H3710 C3695 0.961 . S
H3711 C3695 0.960 . S
C641 C333 1.935 . S
C649 C5 1.968 . S
C673 C474 1.754 . S
C681 C28 1.648 . S
C705 C48 2.099 . S
C713 C433 2.128 . S
C737 C68 1.278 . S
C745 C445 1.328 . S
C769 C93 1.932 . S
C777 C345 1.968 . S
C801 C114 1.746 . S
C809 C368 1.633 . S
C833 C388 2.105 . S
C841 C133 2.115 . S
C865 C145 1.331 . S
C873 C408 1.250 . S
C897 C168 2.501 . S
C905 C13 2.528 . S
C929 C25 1.688 . S
C937 C193 1.673 . S
C961 C208 1.620 . S
C969 C45 1.652 . S
C993 C65 1.702 . S
C1001 C222 1.674 . S
C1025 C88 1.595 . S
C1033 C245 1.650 . S
C1057 C265 1.677 . S
C1065 C102 1.684 . S
C1089 C128 2.479 . S
C1097 C293 2.522 . S
C1121 C305 1.688 . S
C1129 C153 1.673 . S
C1153 C165 0.752 . S
C1161 C325 0.718 . S
C1185 C348 2.662 . S
C1193 C253 2.657 . S
C1217 C373 3.400 . S
C1225 C273 3.427 . S
C1249 C288 2.663 . S
C1257 C393 2.656 . S
C1281 C413 3.420 . S
C1289 C313 3.411 . S
C1313 C425 0.731 . S
C1321 C205 0.713 . S
C1345 C237 1.415 . S
C1353 C448 1.393 . S
C1377 C477 1.413 . S
C1385 C188 1.392 . S
C1409 C634 1.729 . S
C1417 C308 1.639 . S
C1441 C268 1.277 . S
C1449 C605 1.331 . S
C1473 C568 1.613 . S
C1481 C234 1.748 . S
C1505 C588 1.260 . S
C1513 C185 1.333 . S
C1537 C353 2.499 . S
C1545 C488 2.503 . S
C1569 C385 1.633 . S
C1577 C508 1.588 . S
C1601 C525 1.657 . S
C1609 C328 1.612 . S
C1633 C553 2.519 . S
C1641 C428 2.495 . S
C1665 C485 0.743 . S
C1673 C85 0.715 . S
C1697 C533 2.660 . S
C1705 C8 2.659 . S
C1729 C73 3.415 . S
C1737 C573 3.413 . S
C1761 C548 2.635 . S
C1769 C53 2.644 . S
C1793 C593 3.425 . S
C1801 C33 3.412 . S
C1825 C125 0.753 . S
C1833 C505 0.719 . S
C1857 C608 1.351 . S
C1865 C117 1.378 . S
C1889 C148 1.334 . S
C1897 C637 1.369 . S
C1921 C285 1.966 . S
C1929 C513 1.943 . S
C1953 C248 2.111 . S
C1961 C493 2.132 . S
C1985 C545 1.967 . S
C1993 C213 1.943 . S
C2017 C528 2.122 . S
C2025 C173 2.133 . S
C2049 C365 1.707 . S
C2057 C613 1.664 . S
C2081 C405 1.670 . S
C2089 C622 1.672 . S
C2113 C585 1.684 . S
C2121 C462 1.666 . S
C2145 C453 1.684 . S
C2153 C565 1.691 . S
C2177 C77 2.289 . S
C2185 C14 2.378 . S
C2209 C22 3.054 . S
C2217 C2 3.024 . S
C2241 C37 2.505 . S
C2249 C42 2.656 . S
C2273 C57 2.504 . S
C2281 C62 2.745 . S
C2305 C113 1.501 . S
C2313 C97 1.343 . S
C2337 C134 1.499 . S
C2345 C105 1.468 . S
C2369 C137 2.155 . S
C2377 C142 2.318 . S
C2401 C154 1.110 . S
C2409 C94 1.074 . S
C2433 C162 2.152 . S
C2441 C374 2.128 . S
C2465 C394 2.150 . S
C2473 C197 2.040 . S
C2497 C414 1.535 . S
C2505 C202 1.593 . S
C2529 C228 2.423 . S
C2537 C357 2.462 . S
C2561 C254 2.141 . S
C2569 C457 2.038 . S
C2593 C322 1.622 . S
C2601 C274 1.564 . S
C2625 C468 2.425 . S
C2633 C297 2.461 . S
C2657 C314 2.106 . S
C2665 C422 2.174 . S
C2689 C334 1.058 . S
C2697 C194 1.091 . S
C2721 C342 2.999 . S
C2729 C302 3.053 . S
C2753 C242 2.632 . S
C2761 C377 2.511 . S
C2785 C262 2.751 . S
C2793 C397 2.508 . S
C2817 C417 2.283 . S
C2825 C294 2.376 . S
C2849 C434 1.504 . S
C2857 C225 1.475 . S
C2881 C442 2.285 . S
C2889 C177 2.119 . S
C2913 C217 1.375 . S
C2921 C473 1.498 . S
C2945 C354 2.388 . S
C2953 C277 2.311 . S
C2977 C317 2.508 . S
C2985 C382 2.657 . S
C3009 C337 1.374 . S
C3017 C233 1.495 . S
C3041 C182 2.286 . S
C3049 C437 2.121 . S
C3073 C482 2.152 . S
C3081 C574 2.137 . S
C3105 C54 2.129 . S
C3113 C157 2.029 . S
C3137 C502 1.563 . S
C3145 C594 1.583 . S
C3169 C108 2.418 . S
C3177 C17 2.455 . S
C3201 C617 2.011 . S
C3209 C534 2.145 . S
C3233 C74 1.606 . S
C3241 C82 1.607 . S
C3265 C557 2.417 . S
C3273 C628 2.388 . S
C3297 C122 2.187 . S
C3305 C34 2.121 . S
C3329 C577 2.516 . S
C3337 C522 2.659 . S
C3361 C554 2.352 . S
C3369 C597 2.297 . S
C3393 C497 2.152 . S
C3401 C602 2.311 . S
C3425 C517 1.360 . S
C3433 C633 1.501 . S
C3457 C362 3.032 . S
C3465 C282 3.016 . S
C3489 C402 2.742 . S
C3497 C257 2.506 . S
C3521 C174 1.489 . S
C3529 C465 1.476 . S
C3553 C214 1.075 . S
C3561 C454 1.079 . S
C3585 C614 1.044 . S
C3593 C514 1.049 . S
C3617 C562 3.024 . S
C3625 C542 3.023 . S
C3649 C582 2.745 . S
C3657 C537 2.507 . S
C3681 C494 1.495 . S
C3689 C625 1.465 . S
