# Generated by pormake.
# Topology wji, (4)-cn, num edge types: 1
# Building blocks:
#     Node 0, Type 0, BuildingBlock: QUQFOY_clean_sbu_3, # of connection points: 4
#     Node 1, Type 0, BuildingBlock: QUQFOY_clean_sbu_3, # of connection points: 4
#     Node 2, Type 0, BuildingBlock: QUQFOY_clean_sbu_3, # of connection points: 4
#     Node 3, Type 0, BuildingBlock: QUQFOY_clean_sbu_3, # of connection points: 4
#     Node 4, Type 0, BuildingBlock: QUQFOY_clean_sbu_3, # of connection points: 4
#     Node 5, Type 0, BuildingBlock: QUQFOY_clean_sbu_3, # of connection points: 4
#     Node 6, Type 0, BuildingBlock: QUQFOY_clean_sbu_3, # of connection points: 4
#     Node 7, Type 0, BuildingBlock: QUQFOY_clean_sbu_3, # of connection points: 4
#     Node 8, Type 0, BuildingBlock: QUQFOY_clean_sbu_3, # of connection points: 4
#     Node 9, Type 0, BuildingBlock: QUQFOY_clean_sbu_3, # of connection points: 4
#     Node 10, Type 0, BuildingBlock: QUQFOY_clean_sbu_3, # of connection points: 4
#     Node 11, Type 0, BuildingBlock: QUQFOY_clean_sbu_3, # of connection points: 4
#     Edge 12, Type (0, 0), BuildingBlock: XIVTED_clean_linker_0, # of connection points: 2
#     Edge 13, Type (0, 0), BuildingBlock: XIVTED_clean_linker_0, # of connection points: 2
#     Edge 14, Type (0, 0), BuildingBlock: XIVTED_clean_linker_0, # of connection points: 2
#     Edge 15, Type (0, 0), BuildingBlock: XIVTED_clean_linker_0, # of connection points: 2
#     Edge 16, Type (0, 0), BuildingBlock: XIVTED_clean_linker_0, # of connection points: 2
#     Edge 17, Type (0, 0), BuildingBlock: XIVTED_clean_linker_0, # of connection points: 2
#     Edge 18, Type (0, 0), BuildingBlock: XIVTED_clean_linker_0, # of connection points: 2
#     Edge 19, Type (0, 0), BuildingBlock: XIVTED_clean_linker_0, # of connection points: 2
#     Edge 20, Type (0, 0), BuildingBlock: XIVTED_clean_linker_0, # of connection points: 2
#     Edge 21, Type (0, 0), BuildingBlock: XIVTED_clean_linker_0, # of connection points: 2
#     Edge 22, Type (0, 0), BuildingBlock: XIVTED_clean_linker_0, # of connection points: 2
#     Edge 23, Type (0, 0), BuildingBlock: XIVTED_clean_linker_0, # of connection points: 2
#     Edge 24, Type (0, 0), BuildingBlock: XIVTED_clean_linker_0, # of connection points: 2
#     Edge 25, Type (0, 0), BuildingBlock: XIVTED_clean_linker_0, # of connection points: 2
#     Edge 26, Type (0, 0), BuildingBlock: XIVTED_clean_linker_0, # of connection points: 2
#     Edge 27, Type (0, 0), BuildingBlock: XIVTED_clean_linker_0, # of connection points: 2
#     Edge 28, Type (0, 0), BuildingBlock: XIVTED_clean_linker_0, # of connection points: 2
#     Edge 29, Type (0, 0), BuildingBlock: XIVTED_clean_linker_0, # of connection points: 2
#     Edge 30, Type (0, 0), BuildingBlock: XIVTED_clean_linker_0, # of connection points: 2
#     Edge 31, Type (0, 0), BuildingBlock: XIVTED_clean_linker_0, # of connection points: 2
#     Edge 32, Type (0, 0), BuildingBlock: XIVTED_clean_linker_0, # of connection points: 2
#     Edge 33, Type (0, 0), BuildingBlock: XIVTED_clean_linker_0, # of connection points: 2
#     Edge 34, Type (0, 0), BuildingBlock: XIVTED_clean_linker_0, # of connection points: 2
#     Edge 35, Type (0, 0), BuildingBlock: XIVTED_clean_linker_0, # of connection points: 2
# Relax obj value: 0.217
# Max RMSD: 0.129
# Mean RMSD: 0.129
data_MOF--net-wji--node1-QUQFOY_clean_sbu_3--edge1-XIVTED_clean_linker_0
_symmetry_space_group_name_H-M    P1
_symmetry_Int_Tables_number       1
_symmetry_cell_setting            triclinic
loop_
_symmetry_equiv_pos_as_xyz
'x, y, z'
_cell_length_a     61.413813
_cell_length_b     61.391555
_cell_length_c     23.837629
_cell_angle_alpha  90.20336
_cell_angle_beta   89.979699
_cell_angle_gamma 120.13554
loop_
_atom_site_label
_atom_site_type_symbol
_atom_site_fract_x
_atom_site_fract_y
_atom_site_fract_z
_atom_type_partial_charge
C0 C 0.42882 0.35953 0.43563 0.0
O1 O 0.41542 0.36663 0.46168 0.0
Cd2 Cd 0.37061 0.34201 0.46482 0.0
O3 O 0.41909 0.33721 0.41601 0.0
Cd4 Cd 0.37758 0.29712 0.42394 0.0
C5 C 0.35594 0.32095 0.3261 0.0
O6 O 0.36012 0.30357 0.50853 0.0
O7 O 0.33278 0.27699 0.44987 0.0
O8 O 0.39872 0.28221 0.48346 0.0
C9 C 0.3376 0.28667 0.49859 0.0
O10 O 0.35581 0.33404 0.36761 0.0
C11 C 0.39086 0.26097 0.46016 0.0
O12 O 0.36455 0.30591 0.3316 0.0
O13 O 0.37813 0.25683 0.41506 0.0
C14 C 0.049 0.44003 0.59553 0.0
O15 O 0.02918 0.42907 0.62497 0.0
Cd16 Cd 0.00776 0.3856 0.64616 0.0
O17 O 0.06014 0.42834 0.5788 0.0
Cd18 Cd 0.05543 0.38555 0.59809 0.0
C19 C 0.00395 0.35842 0.51525 0.0
O20 O 0.03885 0.3801 0.69123 0.0
O21 O 0.03097 0.34554 0.651 0.0
O22 O 0.09916 0.40993 0.62798 0.0
C23 C 0.03092 0.35681 0.69559 0.0
O24 O -0.00631 0.36263 0.55718 0.0
C25 C 0.10519 0.39368 0.61435 0.0
O26 O 0.02752 0.36599 0.51558 0.0
O27 O 0.0889 0.37463 0.58682 0.0
C28 C 0.58066 0.05485 0.7157 0.0
O29 O 0.57351 0.03179 0.72375 0.0
Cd30 Cd 0.59653 0.01193 0.74916 0.0
O31 O 0.60383 0.0719 0.72014 0.0
Cd32 Cd 0.64442 0.07209 0.74027 0.0
C33 C 0.63468 0.03081 0.63206 0.0
O34 O 0.62707 0.04057 0.81036 0.0
O35 O 0.66462 0.05022 0.78652 0.0
O36 O 0.65644 0.10619 0.80675 0.0
C37 C 0.64553 0.03715 0.81703 0.0
O38 O 0.61849 0.014 0.6643 0.0
C39 C 0.67823 0.12074 0.78723 0.0
O40 O 0.64584 0.05423 0.64544 0.0
O41 O 0.68403 0.11371 0.74203 0.0
C42 C 0.50158 0.59401 0.93637 0.0
O43 O 0.51443 0.58651 0.96314 0.0
Cd44 Cd 0.55906 0.61047 0.9696 0.0
O45 O 0.51189 0.61636 0.91695 0.0
Cd46 Cd 0.55426 0.65578 0.92595 0.0
C47 C 0.5759 0.63071 0.83136 0.0
O48 O 0.56865 0.64863 0.0147 0.0
O49 O 0.598 0.67388 0.95863 0.0
O50 O 0.53086 0.67359 0.96919 0.0
C51 C 0.59166 0.66471 0.00741 0.0
O52 O 0.57536 0.61766 0.87338 0.0
C53 C 0.54439 0.69569 0.95029 0.0
O54 O 0.56766 0.64609 0.83567 0.0
O55 O 0.56123 0.6989 0.91476 0.0
C56 C 0.88854 0.5238 0.1132 0.0
O57 O 0.91022 0.53934 0.13216 0.0
Cd58 Cd 0.92908 0.5836 0.1265 0.0
O59 O 0.87458 0.53149 0.09168 0.0
Cd60 Cd 0.8765 0.5734 0.08222 0.0
C61 C 0.92199 0.59209 -0.01563 0.0
O62 O 0.89883 0.59155 0.16832 0.0
O63 O 0.90114 0.61876 0.10874 0.0
O64 O 0.83532 0.54854 0.12495 0.0
C65 C 0.90486 0.61406 0.15837 0.0
O66 O 0.93553 0.59467 0.02715 0.0
C67 C 0.82591 0.56132 0.10645 0.0
O68 O 0.8982 0.58277 -0.01056 0.0
O69 O 0.83909 0.57853 0.07131 0.0
C70 C 0.35218 0.89883 0.28527 0.0
O71 O 0.35955 0.91933 0.31171 0.0
Cd72 Cd 0.33468 0.93898 0.3186 0.0
O73 O 0.32977 0.88642 0.26601 0.0
Cd74 Cd 0.29008 0.88887 0.27361 0.0
C75 C 0.31509 0.93652 0.1805 0.0
O76 O 0.29682 0.90954 0.36409 0.0
O77 O 0.27052 0.91263 0.30951 0.0
O78 O 0.27231 0.84656 0.31174 0.0
C79 C 0.27988 0.91535 0.35815 0.0
O80 O 0.32811 0.94909 0.22277 0.0
C81 C 0.25029 0.8382 0.29241 0.0
O82 O 0.29979 0.91284 0.18451 0.0
O83 O 0.24713 0.85258 0.25922 0.0
C84 C 0.58729 0.51442 0.3552 0.0
O85 O 0.58 0.52729 0.32786 0.0
Cd86 Cd 0.60409 0.57186 0.32217 0.0
O87 O 0.60957 0.52463 0.37521 0.0
Cd88 Cd 0.64933 0.56677 0.36658 0.0
C89 C 0.62403 0.58796 0.46138 0.0
O90 O 0.64215 0.58104 0.27795 0.0
O91 O 0.66722 0.61054 0.33431 0.0
O92 O 0.66652 0.54258 0.32426 0.0
C93 C 0.65809 0.6041 0.2854 0.0
O94 O 0.61112 0.58758 0.41909 0.0
C95 C 0.68889 0.55652 0.3415 0.0
O96 O 0.63949 0.57983 0.45717 0.0
O97 O 0.69259 0.57396 0.37594 0.0
C98 C 0.04752 0.59402 0.50047 0.0
O99 O 0.02685 0.58691 0.47516 0.0
Cd100 Cd 0.00712 0.61174 0.47137 0.0
O101 O 0.06011 0.61628 0.52067 0.0
Cd102 Cd 0.05762 0.65605 0.51681 0.0
C103 C 0.01035 0.63037 0.61088 0.0
O104 O 0.03649 0.64996 0.42744 0.0
O105 O 0.03329 0.67556 0.48433 0.0
O106 O 0.09961 0.67433 0.47655 0.0
C107 C 0.03037 0.6666 0.43517 0.0
O108 O -0.00236 0.6178 0.56829 0.0
C109 C 0.10812 0.69612 0.4975 0.0
O110 O 0.03406 0.64555 0.60679 0.0
O111 O 0.09399 0.69889 0.5324 0.0
C112 C 0.41868 0.05115 0.67955 0.0
O113 O 0.40234 0.02975 0.66055 0.0
Cd114 Cd 0.35809 0.01251 0.66505 0.0
O115 O 0.41207 0.06629 0.69944 0.0
Cd116 Cd 0.37175 0.0675 0.70467 0.0
C117 C 0.35124 0.02312 0.80608 0.0
O118 O 0.35042 0.04278 0.62381 0.0
O119 O 0.32567 0.04481 0.68485 0.0
O120 O 0.39295 0.10259 0.64262 0.0
C121 C 0.32861 0.03852 0.63594 0.0
O122 O 0.34774 0.00866 0.7644 0.0
C123 C 0.3873 0.11741 0.66714 0.0
O124 O 0.36167 0.04698 0.79932 0.0
O125 O 0.37577 0.11002 0.71391 0.0
C126 C 0.34514 0.43778 0.85116 0.0
O127 O 0.35261 0.42501 0.82377 0.0
Cd128 Cd 0.32854 0.38041 0.81664 0.0
O129 O 0.32282 0.42743 0.87082 0.0
Cd130 Cd 0.28327 0.3851 0.86176 0.0
C131 C 0.30891 0.36358 0.95523 0.0
O132 O 0.2905 0.37143 0.77204 0.0
O133 O 0.26489 0.34158 0.8266 0.0
O134 O 0.26599 0.40941 0.8211 0.0
C135 C 0.2742 0.34841 0.77803 0.0
O136 O 0.32188 0.36419 0.91284 0.0
C137 C 0.2437 0.39558 0.83872 0.0
O138 O 0.29334 0.37158 0.9514 0.0
O139 O 0.24009 0.3781 0.87261 0.0
C140 C 0.87561 0.35937 0.08453 0.0
O141 O 0.89891 0.36856 0.07471 0.0
Cd142 Cd 0.92143 0.34869 0.04424 0.0
O143 O 0.86 0.33577 0.08016 0.0
Cd144 Cd 0.86321 0.29727 0.05693 0.0
C145 C 0.90753 0.31018 0.16007 0.0
O146 O 0.89297 0.31718 -0.01554 0.0
O147 O 0.88728 0.28067 0.0054 0.0
O148 O 0.82767 0.28319 -0.0059 0.0
C149 C 0.89839 0.3002 0.97518 0.0
O150 O 0.92294 0.32729 0.12718 0.0
C151 C 0.81486 0.26093 0.01271 0.0
O152 O 0.88391 0.29741 0.14889 0.0
O153 O 0.82348 0.25566 0.056 0.0
C154 C 0.50571 0.89503 0.19073 0.0
O155 O 0.51744 0.91446 0.16038 0.0
Cd156 Cd 0.56114 0.93416 0.14141 0.0
O157 O 0.51655 0.88327 0.20871 0.0
Cd158 Cd 0.55833 0.88553 0.19098 0.0
C159 C 0.58617 0.9367 0.27421 0.0
O160 O 0.56605 0.90229 0.09761 0.0
O161 O 0.59927 0.9086 0.14197 0.0
O162 O 0.5324 0.84199 0.1608 0.0
C163 C 0.58914 0.90891 0.09594 0.0
O164 O 0.58297 0.94747 0.23196 0.0
C165 C 0.54767 0.83487 0.17547 0.0
O166 O 0.57785 0.91298 0.27366 0.0
O167 O 0.56684 0.85054 0.20359 0.0
H168 H 0.33517 0.33908 0.97316 0.0
H169 H 0.32792 0.34335 0.307 0.0
H170 H 0.29237 0.36673 0.06105 0.0
H171 H 0.36184 0.30603 0.22014 0.0
H172 H 0.31422 0.35127 0.21743 0.0
H173 H 0.34444 0.32617 0.06245 0.0
C174 C 0.3276 0.34237 0.01122 0.0
C175 C 0.31305 0.35421 0.0094 0.0
C176 C 0.32453 0.34122 0.21779 0.0
C177 C 0.32379 0.33944 0.11234 0.0
C178 C 0.33246 0.33671 0.26905 0.0
C179 C 0.34627 0.32412 0.27131 0.0
C180 C 0.33056 0.33332 0.16784 0.0
C181 C 0.35129 0.31582 0.22054 0.0
C182 C 0.33289 0.33491 0.06228 0.0
C183 C 0.30367 0.35774 0.06026 0.0
N184 N 0.34362 0.32075 0.17087 0.0
N185 N 0.30937 0.35057 0.1096 0.0
H186 H 0.9529 0.33748 0.50467 0.0
H187 H 0.95282 0.3137 0.17581 0.0
H188 H 0.01843 0.34954 0.41199 0.0
H189 H 0.88705 0.30208 0.26621 0.0
H190 H -0.02489 0.3203 0.26443 0.0
H191 H 0.92718 0.31907 0.42103 0.0
C192 C 0.96193 0.33614 0.46683 0.0
C193 C -0.01195 0.34541 0.4654 0.0
C194 C 0.95568 0.3159 0.26523 0.0
C195 C 0.95842 0.32416 0.369 0.0
C196 C 0.94287 0.31196 0.2146 0.0
C197 C 0.91808 0.30746 0.21367 0.0
C198 C 0.9438 0.31571 0.31563 0.0
C199 C 0.9061 0.30538 0.26509 0.0
C200 C 0.94713 0.32552 0.41903 0.0
C201 C -0.00153 0.34285 0.41513 0.0
N202 N 0.91923 0.30995 0.31404 0.0
N203 N -0.01633 0.33268 0.36889 0.0
H204 H 0.59723 0.92168 0.37377 0.0
H205 H 0.64063 0.05311 0.52867 0.0
H206 H 0.60466 -0.01274 0.28969 0.0
H207 H 0.63454 -0.01245 0.6094 0.0
H208 H 0.63388 0.03174 0.43751 0.0
H209 H 0.61617 0.94738 0.45769 0.0
C210 C 0.60295 0.94148 0.37277 0.0
C211 C 0.59904 0.95218 0.32465 0.0
C212 C 0.63454 0.02224 0.47511 0.0
C213 C 0.62078 -0.01817 0.42081 0.0
C214 C 0.63869 0.03458 0.52701 0.0
C215 C 0.63794 0.02199 0.57655 0.0
C216 C 0.6296 -0.00279 0.47311 0.0
C217 C 0.635 -0.00217 0.57216 0.0
C218 C 0.61384 0.95621 0.42071 0.0
C219 C 0.60706 -0.02193 0.32587 0.0
N220 N 0.63063 -0.01386 0.52159 0.0
N221 N 0.61731 -0.00809 0.37323 0.0
H222 H 0.59949 0.61413 0.47952 0.0
H223 H 0.60171 0.60579 0.81325 0.0
H224 H 0.63894 0.58293 0.56754 0.0
H225 H 0.5726 0.64727 0.72583 0.0
H226 H 0.61585 0.59772 0.7241 0.0
H227 H 0.59003 0.62684 0.56899 0.0
C228 C 0.60629 0.61001 0.51768 0.0
C229 C 0.61994 0.59725 0.51583 0.0
C230 C 0.60651 0.60871 0.72432 0.0
C231 C 0.60896 0.61176 0.61901 0.0
C232 C 0.59833 0.61331 0.77531 0.0
C233 C 0.58575 0.62714 0.7772 0.0
C234 C 0.60195 0.61779 0.67439 0.0
C235 C 0.58216 0.6365 0.72651 0.0
C236 C 0.60089 0.61736 0.56885 0.0
C237 C 0.62836 0.59268 0.56682 0.0
N238 N 0.59004 0.63149 0.67718 0.0
N239 N 0.62255 0.59974 0.61631 0.0
H240 H 0.95957 0.60354 0.63037 0.0
H241 H -0.02755 0.61953 0.9636 0.0
H242 H 0.03051 0.64829 0.71592 0.0
H243 H 0.90073 0.58221 0.87819 0.0
H244 H -0.00627 0.63037 0.87331 0.0
H245 H 0.93774 0.59578 0.71995 0.0
C246 C -0.02937 0.61182 0.66796 0.0
C247 C -0.00295 0.62655 0.66537 0.0
C248 C -0.02665 0.61991 0.87412 0.0
C249 C -0.02809 0.61757 0.76868 0.0
C250 C 0.96109 0.61362 0.92583 0.0
C251 C 0.93464 0.59975 0.92878 0.0
C252 C 0.9592 0.61219 0.82442 0.0
C253 C 0.9211 0.59288 0.87811 0.0
C254 C 0.95806 0.60738 0.71919 0.0
C255 C 0.01018 0.63682 0.71569 0.0
N256 N 0.93353 0.59903 0.82805 0.0
N257 N -0.0025 0.63202 0.76521 0.0
H258 H 0.31974 0.97353 0.82926 0.0
H259 H 0.34375 -0.01281 0.16031 0.0
H260 H 0.36491 0.04534 0.91142 0.0
H261 H 0.29446 0.91669 0.07693 0.0
H262 H 0.35077 0.009 0.07093 0.0
H263 H 0.30933 0.95297 0.92014 0.0
C264 C 0.32745 -0.01492 0.8665 0.0
C265 C 0.34344 0.0113 0.8624 0.0
C266 C 0.33833 -0.01121 0.07217 0.0
C267 C 0.33152 -0.01245 0.96755 0.0
C268 C 0.3343 0.97623 0.12327 0.0
C269 C 0.31853 0.94992 0.12637 0.0
C270 C 0.32663 0.97502 0.02337 0.0
C271 C 0.3068 0.93691 0.07678 0.0
C272 C 0.32141 0.97323 0.91858 0.0
C273 C 0.35254 0.02513 0.91244 0.0
N274 N 0.31118 0.94956 0.02741 0.0
N275 N 0.34661 0.01306 0.96292 0.0
H276 H 0.57973 0.48849 0.45301 0.0
H277 H 0.45728 0.36426 0.34325 0.0
H278 H 0.55259 0.48031 0.28306 0.0
H279 H 0.46104 0.39689 0.50603 0.0
H280 H 0.50003 0.39905 0.32336 0.0
H281 H 0.54368 0.44666 0.47478 0.0
C282 C 0.56657 0.47758 0.42 0.0
C283 C 0.5689 0.48778 0.36634 0.0
C284 C 0.49158 0.39823 0.36377 0.0
C285 C 0.52821 0.44024 0.39057 0.0
C286 C 0.46733 0.37843 0.37519 0.0
C287 C 0.45564 0.37796 0.42608 0.0
C288 C 0.50432 0.41719 0.40412 0.0
C289 C 0.46936 0.3968 0.46603 0.0
C290 C 0.54603 0.45389 0.43249 0.0
C291 C 0.55126 0.47309 0.32507 0.0
N292 N 0.493 0.41572 0.45419 0.0
N293 N 0.53159 0.45004 0.33805 0.0
H294 H 0.05622 0.4779 0.66542 0.0
H295 H 0.03958 0.55536 0.43112 0.0
H296 H 0.06188 0.46181 0.49167 0.0
H297 H 0.07421 0.59042 0.5886 0.0
H298 H 0.04801 0.52122 0.45116 0.0
H299 H 0.0636 0.51953 0.63885 0.0
C300 C 0.05957 0.48344 0.62173 0.0
C301 C 0.05846 0.46654 0.58057 0.0
C302 C 0.05421 0.53663 0.48083 0.0
C303 C 0.0661 0.5137 0.54971 0.0
C304 C 0.04929 0.55603 0.46959 0.0
C305 C 0.05601 0.57559 0.50855 0.0
C306 C 0.06529 0.53641 0.5321 0.0
C307 C 0.0687 0.57566 0.55753 0.0
C308 C 0.06382 0.50717 0.60662 0.0
C309 C 0.06277 0.47444 0.52456 0.0
N310 N 0.07244 0.55604 0.56854 0.0
N311 N 0.06583 0.49731 0.51052 0.0
H312 H 0.45885 0.0887 0.73848 0.0
H313 H 0.57773 0.09704 0.74414 0.0
H314 H 0.43959 0.0291 0.61795 0.0
H315 H 0.53886 0.02649 0.65433 0.0
H316 H 0.54105 0.10247 0.73044 0.0
H317 H 0.50188 0.09596 0.74196 0.0
C318 C 0.46379 0.07743 0.71212 0.0
C319 C 0.44549 0.058 0.67856 0.0
C320 C 0.54052 0.08583 0.71368 0.0
C321 C 0.49474 0.0664 0.68143 0.0
C322 C 0.56161 0.08292 0.72092 0.0
C323 C 0.56109 0.06111 0.70107 0.0
C324 C 0.51902 0.06679 0.6861 0.0
C325 C 0.53987 0.04338 0.67119 0.0
C326 C 0.48846 0.08167 0.71387 0.0
C327 C 0.45289 0.044 0.64521 0.0
N328 N 0.51975 0.04657 0.66493 0.0
N329 N 0.47677 0.04834 0.64791 0.0
H330 H 0.47449 0.58834 0.84089 0.0
H331 H 0.35113 0.46454 0.94759 0.0
H332 H 0.46812 0.5581 0.00698 0.0
H333 H 0.38077 0.47152 0.78045 0.0
H334 H 0.38636 0.50688 0.96978 0.0
H335 H 0.43209 0.55317 0.81904 0.0
C336 C 0.4639 0.57467 0.87312 0.0
C337 C 0.47477 0.57588 0.92558 0.0
C338 C 0.38475 0.49925 0.92796 0.0
C339 C 0.42654 0.53618 0.90132 0.0
C340 C 0.36468 0.47525 0.91523 0.0
C341 C 0.36329 0.46457 0.86234 0.0
C342 C 0.40305 0.51274 0.887 0.0
C343 C 0.38139 0.47908 0.82191 0.0
C344 C 0.43986 0.55463 0.86058 0.0
C345 C 0.46042 0.55763 0.96584 0.0
N346 N 0.4006 0.50243 0.8351 0.0
N347 N 0.43702 0.53845 0.95285 0.0
H348 H 0.84214 0.36951 0.03128 0.0
H349 H 0.90277 0.50132 0.19083 0.0
H350 H 0.8921 0.39068 0.17336 0.0
H351 H 0.85415 0.48443 0.04705 0.0
H352 H 0.89202 0.45756 0.19451 0.0
H353 H 0.83895 0.40757 0.04594 0.0
C354 C 0.85165 0.38171 0.06675 0.0
C355 C 0.86738 0.37714 0.10132 0.0
C356 C 0.88348 0.46322 0.16224 0.0
C357 C 0.86433 0.4206 0.11758 0.0
C358 C 0.88971 0.4883 0.16002 0.0
C359 C 0.8797 0.49661 0.11792 0.0
C360 C 0.86743 0.44618 0.1214 0.0
C361 C 0.86245 0.47878 0.07988 0.0
C362 C 0.85006 0.40351 0.07477 0.0
C363 C 0.87978 0.39364 0.14592 0.0
N364 N 0.85716 0.4544 0.08188 0.0
N365 N 0.87819 0.41473 0.15242 0.0
H366 H 0.35538 0.87347 0.19375 0.0
H367 H 0.48309 0.88025 0.29353 0.0
H368 H 0.39074 0.90522 0.35286 0.0
H369 H 0.46911 0.8922 0.12234 0.0
H370 H 0.44172 0.87453 0.31987 0.0
H371 H 0.3899 0.86546 0.17185 0.0
C372 C 0.37009 0.87822 0.22452 0.0
C373 C 0.37043 0.89028 0.27486 0.0
C374 C 0.44759 0.87788 0.2764 0.0
C375 C 0.40948 0.88086 0.25058 0.0
C376 C 0.47102 0.88098 0.26136 0.0
C377 C 0.47944 0.88686 0.20585 0.0
C378 C 0.43242 0.88009 0.23528 0.0
C379 C 0.46328 0.88789 0.16569 0.0
C380 C 0.38976 0.87375 0.21194 0.0
C381 C 0.38998 0.89618 0.31326 0.0
N382 N 0.44055 0.8846 0.18118 0.0
N383 N 0.40879 0.89148 0.30027 0.0
H384 H 0.27338 0.35389 0.66554 0.0
H385 H 0.33603 0.27848 0.6101 0.0
H386 H 0.26909 0.30197 0.79232 0.0
H387 H 0.29507 0.28836 0.47533 0.0
H388 H 0.30897 0.28354 0.67786 0.0
H389 H 0.27793 0.32787 0.59385 0.0
C390 C 0.2728 0.33664 0.67795 0.0
C391 C 0.27124 0.33013 0.73462 0.0
C392 C 0.30532 0.28377 0.63347 0.0
C393 C 0.27701 0.30077 0.65357 0.0
C394 C 0.32079 0.28099 0.59496 0.0
C395 C 0.31771 0.2832 0.53753 0.0
C396 C 0.28744 0.28985 0.61417 0.0
C397 C 0.29788 0.28654 0.51953 0.0
C398 C 0.27522 0.32174 0.63713 0.0
C399 C 0.27041 0.30761 0.74889 0.0
N400 N 0.2839 0.29056 0.55792 0.0
N401 N 0.27409 0.29405 0.70867 0.0
H402 H 0.93728 0.34623 0.94959 0.0
H403 H -0.0075 0.30762 0.70382 0.0
H404 H 0.90979 0.267 0.92315 0.0
H405 H 0.0365 0.37552 0.8005 0.0
H406 H 0.96245 0.29015 0.78195 0.0
H407 H -0.02649 0.35625 0.89206 0.0
C408 C 0.93894 0.33087 0.93188 0.0
C409 C 0.92051 0.30573 0.94107 0.0
C410 C -0.0209 0.30856 0.78648 0.0
C411 C 0.962 0.31717 0.8741 0.0
C412 C -0.00379 0.31851 0.74208 0.0
C413 C 0.01654 0.34327 0.74549 0.0
C414 C -0.01749 0.32369 0.83369 0.0
C415 C 0.02066 0.35659 0.79581 0.0
C416 C 0.95979 0.33662 0.89929 0.0
C417 C 0.9237 0.28663 0.91689 0.0
N418 N 0.00352 0.34682 0.83757 0.0
N419 N 0.94395 0.29275 0.8834 0.0
H420 H 0.57401 0.89872 -0.01184 0.0
H421 H 0.68113 0.032 0.87637 0.0
H422 H 0.63761 0.94866 0.09102 0.0
H423 H 0.6026 -0.00738 0.82978 0.0
H424 H 0.67309 -0.00407 0.93644 0.0
H425 H 0.5937 0.9265 0.90834 0.0
C426 C 0.59243 0.9153 -0.00653 0.0
C427 C 0.60398 0.92187 0.04618 0.0
C428 C 0.65789 -0.00482 0.9119 0.0
C429 C 0.62622 0.95396 0.9559 0.0
C430 C 0.66241 0.01563 0.87793 0.0
C431 C 0.64241 0.0153 0.84873 0.0
C432 C 0.63342 0.97428 0.91482 0.0
C433 C 0.61852 -0.0062 0.85186 0.0
C434 C 0.60364 0.93113 0.94806 0.0
C435 C 0.62803 0.94325 0.05093 0.0
N436 N 0.61472 0.97422 0.88431 0.0
N437 N 0.63816 0.95904 0.00647 0.0
H438 H 0.58829 0.66689 0.12032 0.0
H439 H 0.66157 0.60163 0.17266 0.0
H440 H 0.63684 0.66758 -0.0112 0.0
H441 H 0.65802 0.64783 0.30486 0.0
H442 H 0.65493 0.62713 0.10358 0.0
H443 H 0.61501 0.66216 0.18964 0.0
C444 C 0.60496 0.66664 0.10634 0.0
C445 C 0.61036 0.66734 0.04912 0.0
C446 C 0.65639 0.63218 0.14756 0.0
C447 C 0.64042 0.66132 0.12741 0.0
C448 C 0.66005 0.6176 0.18684 0.0
C449 C 0.66009 0.62263 0.24415 0.0
C450 C 0.65179 0.65121 0.16615 0.0
C451 C 0.65805 0.64344 0.26084 0.0
C452 C 0.62025 0.66411 0.14577 0.0
C453 C 0.63212 0.66702 0.03273 0.0
N454 N 0.65319 0.65659 0.22198 0.0
N455 N 0.64603 0.66326 0.0717 0.0
H456 H 0.03558 0.6666 0.32228 0.0
H457 H 0.89828 0.61782 0.26925 0.0
H458 H -0.00841 0.67568 0.45151 0.0
H459 H 0.95114 0.65381 0.13461 0.0
H460 H 0.93171 0.6424 0.33706 0.0
H461 H 0.00612 0.66548 0.25181 0.0
C462 C 0.01995 0.66887 0.33555 0.0
C463 C 0.01567 0.67085 0.39253 0.0
C464 C 0.93584 0.64563 0.29269 0.0
C465 C -0.01823 0.66908 0.31274 0.0
C466 C 0.91679 0.63162 0.25413 0.0
C467 C 0.92218 0.63387 0.19671 0.0
C468 C 0.96054 0.6611 0.27344 0.0
C469 C 0.94638 0.65172 0.17877 0.0
C470 C 0.00328 0.66843 0.2954 0.0
C471 C -0.00465 0.67396 0.40783 0.0
N472 N 0.96498 0.66416 0.21719 0.0
N473 N -0.02134 0.67224 0.36819 0.0
H474 H 0.28277 0.9103 0.47046 0.0
H475 H 0.31798 0.04469 0.52934 0.0
H476 H 0.26611 0.95114 0.34719 0.0
H477 H 0.2933 -0.00909 0.66393 0.0
H478 H 0.29372 0.01041 0.46305 0.0
H479 H 0.28186 0.93775 0.54369 0.0
C480 C 0.27849 0.92482 0.45908 0.0
C481 C 0.27498 0.92886 0.40286 0.0
C482 C 0.29274 0.00614 0.50734 0.0
C483 C 0.2743 0.9605 0.48594 0.0
C484 C 0.30649 0.0257 0.54508 0.0
C485 C 0.30746 0.02041 0.60174 0.0
C486 C 0.28088 -0.01884 0.52642 0.0
C487 C 0.29276 -0.00442 0.62038 0.0
C488 C 0.27775 0.94033 0.50086 0.0
C489 C 0.26916 0.94765 0.39015 0.0
N490 N 0.28062 0.97667 0.58245 0.0
N491 N 0.26969 0.9633 0.43129 0.0
H492 H 0.40562 0.26172 0.56807 0.0
H493 H 0.40013 0.12979 0.55788 0.0
H494 H 0.38264 0.21526 0.41906 0.0
H495 H 0.38344 0.15742 0.70919 0.0
H496 H 0.40292 0.16539 0.50648 0.0
H497 H 0.40668 0.22796 0.61952 0.0
C498 C 0.40113 0.24454 0.54583 0.0
C499 C 0.39403 0.24135 0.48894 0.0
C500 C 0.3988 0.16373 0.55097 0.0
C501 C 0.39535 0.20266 0.54804 0.0
C502 C 0.39737 0.14353 0.58061 0.0
C503 C 0.39153 0.14057 0.63816 0.0
C504 C 0.39484 0.1815 0.57906 0.0
C505 C 0.38799 0.15894 0.66498 0.0
C506 C 0.40157 0.22524 0.57551 0.0
C507 C 0.38822 0.21855 0.46274 0.0
N508 N 0.38979 0.17871 0.63521 0.0
N509 N 0.38911 0.20008 0.49248 0.0
H510 H 0.24545 0.4364 0.78853 0.0
H511 H 0.11405 0.3548 0.63219 0.0
H512 H 0.19463 0.35819 0.82659 0.0
H513 H 0.14735 0.43502 0.65539 0.0
H514 H 0.14749 0.35586 0.69036 0.0
H515 H 0.21269 0.43658 0.7301 0.0
C516 C 0.22724 0.4194 0.78541 0.0
C517 C 0.22268 0.3973 0.81285 0.0
C518 C 0.14757 0.37325 0.68222 0.0
C519 C 0.18553 0.39714 0.74437 0.0
C520 C 0.12873 0.37273 0.64834 0.0
C521 C 0.12795 0.39488 0.63878 0.0
C522 C 0.16601 0.39614 0.70596 0.0
C523 C 0.14726 0.41752 0.66162 0.0
C524 C 0.20864 0.41948 0.75179 0.0
C525 C 0.19884 0.37572 0.80679 0.0
N526 N 0.16551 0.41758 0.69412 0.0
N527 N 0.18127 0.37607 0.77259 0.0
H528 H 0.80207 0.26368 0.90466 0.0
H529 H 0.67576 0.13092 0.89762 0.0
H530 H 0.77742 0.21413 0.04775 0.0
H531 H 0.72286 0.16136 0.75138 0.0
H532 H 0.70781 0.16571 0.95374 0.0
H533 H 0.76796 0.23063 0.84902 0.0
C534 C 0.78927 0.24597 0.9247 0.0
C535 C 0.79262 0.24168 -0.01888 0.0
C536 C 0.71102 0.16483 0.90932 0.0
C537 C 0.75343 0.20386 0.9174 0.0
C538 C 0.69269 0.14512 0.87706 0.0
C539 C 0.69662 0.14322 0.81955 0.0
C540 C 0.73326 0.18315 0.88382 0.0
C541 C 0.71906 0.16207 0.79548 0.0
C542 C 0.76994 0.22708 0.89268 0.0
C543 C 0.77555 0.21824 0.00449 0.0
N544 N 0.73651 0.18134 0.82769 0.0
N545 N 0.75659 0.20022 0.97257 0.0
H546 H 0.50519 0.79292 0.1378 0.0
H547 H 0.5817 0.74504 0.95654 0.0
H548 H 0.58549 0.82486 0.15418 0.0
H549 H 0.50487 0.69447 0.00603 0.0
H550 H 0.58203 0.77794 0.01584 0.0
H551 H 0.50339 0.75889 0.08004 0.0
C552 C 0.52236 0.79248 0.13017 0.0
C553 C 0.5455 0.81163 0.15121 0.0
C554 C 0.56504 0.75969 0.01324 0.0
C555 C 0.54369 0.77343 0.08335 0.0
C556 C 0.56472 0.74104 -0.02121 0.0
C557 C 0.54319 0.71701 0.97621 0.0
C558 C 0.54357 0.7544 0.04455 0.0
C559 C 0.52184 0.71276 0.00675 0.0
C560 C 0.52133 0.77318 0.09692 0.0
C561 C 0.56721 0.81032 0.13944 0.0
N562 N 0.52254 0.73128 0.0396 0.0
N563 N 0.56584 0.79177 0.10558 0.0
H564 H 0.68779 0.51555 0.29296 0.0
H565 H 0.81296 0.59768 0.11837 0.0
H566 H 0.73702 0.59483 0.32461 0.0
H567 H 0.7876 0.52002 0.15747 0.0
H568 H 0.77988 0.59586 0.17937 0.0
H569 H 0.72012 0.51571 0.23204 0.0
C570 C 0.70559 0.53287 0.28793 0.0
C571 C 0.70985 0.55516 0.31433 0.0
C572 C 0.78144 0.57917 0.17402 0.0
C573 C 0.74632 0.55567 0.24291 0.0
C574 C 0.80003 0.58007 0.13859 0.0
C575 C 0.80296 0.55893 0.1327 0.0
C576 C 0.76537 0.55684 0.20286 0.0
C577 C 0.78595 0.53672 0.16079 0.0
C578 C 0.72391 0.53297 0.25291 0.0
C579 C 0.73311 0.57715 0.30574 0.0
N580 N 0.76784 0.53622 0.19459 0.0
N581 N 0.75033 0.57695 0.27008 0.0
H582 H 0.12046 0.74551 0.4935 0.0
H583 H 0.25105 0.79746 0.33624 0.0
H584 H 0.1479 0.69562 0.44702 0.0
H585 H 0.20141 0.82668 0.30419 0.0
H586 H 0.21726 0.76266 0.38927 0.0
H587 H 0.1549 0.77928 0.43984 0.0
C588 C 0.13406 0.74183 0.47315 0.0
C589 C 0.13137 0.71775 0.47487 0.0
C590 C 0.21373 0.77656 0.37004 0.0
C591 C 0.1706 0.75618 0.41318 0.0
C592 C 0.23291 0.7963 0.33956 0.0
C593 C 0.22893 0.81484 0.31532 0.0
C594 C 0.19071 0.7758 0.37777 0.0
C595 C 0.20516 0.81261 0.32151 0.0
C596 C 0.15347 0.76098 0.44192 0.0
C597 C 0.14933 0.71393 0.44684 0.0
N598 N 0.18706 0.79367 0.35285 0.0
N599 N 0.16824 0.73296 0.41727 0.0
loop_
_geom_bond_atom_site_label_1
_geom_bond_atom_site_label_2
_geom_bond_distance
_geom_bond_site_symmetry_2
_ccdc_geom_bond_type
C0 O1 1.306 . S
C0 O3 1.160 . S
O1 C0 1.306 . S
O1 Cd2 2.228 . S
Cd2 O1 2.228 . S
Cd2 O6 2.273 . S
Cd2 O10 2.277 . S
O3 C0 1.160 . S
O3 Cd4 2.203 . S
Cd4 O3 2.203 . S
Cd4 O6 2.411 . S
Cd4 O7 2.333 . S
Cd4 O8 2.352 . S
Cd4 O12 2.277 . S
Cd4 O13 2.356 . S
C5 O10 1.209 . S
C5 O12 1.226 . S
O6 Cd2 2.273 . S
O6 Cd4 2.411 . S
O6 C9 1.320 . S
O7 Cd4 2.333 . S
O7 C9 1.214 . S
O8 Cd4 2.352 . S
O8 C11 1.258 . S
C9 O6 1.320 . S
C9 O7 1.214 . S
O10 Cd2 2.277 . S
O10 C5 1.209 . S
C11 O8 1.258 . S
C11 O13 1.282 . S
O12 Cd4 2.277 . S
O12 C5 1.226 . S
O13 Cd4 2.356 . S
O13 C11 1.282 . S
C14 O15 1.306 . S
C14 O17 1.160 . S
O15 C14 1.306 . S
O15 Cd16 2.228 . S
Cd16 O15 2.228 . S
Cd16 O20 2.273 . S
Cd16 O24 2.277 . S
O17 C14 1.160 . S
O17 Cd18 2.203 . S
Cd18 O17 2.203 . S
Cd18 O20 2.411 . S
Cd18 O21 2.333 . S
Cd18 O22 2.352 . S
Cd18 O26 2.277 . S
Cd18 O27 2.356 . S
C19 O24 1.209 . S
C19 O26 1.226 . S
O20 Cd16 2.273 . S
O20 Cd18 2.411 . S
O20 C23 1.320 . S
O21 Cd18 2.333 . S
O21 C23 1.214 . S
O22 Cd18 2.352 . S
O22 C25 1.258 . S
C23 O20 1.320 . S
C23 O21 1.214 . S
O24 Cd16 2.277 . S
O24 C19 1.209 . S
C25 O22 1.258 . S
C25 O27 1.282 . S
O26 Cd18 2.277 . S
O26 C19 1.226 . S
O27 Cd18 2.356 . S
O27 C25 1.282 . S
C28 O29 1.306 . S
C28 O31 1.160 . S
O29 C28 1.306 . S
O29 Cd30 2.228 . S
Cd30 O29 2.228 . S
Cd30 O34 2.273 . S
Cd30 O38 2.277 . S
O31 C28 1.160 . S
O31 Cd32 2.203 . S
Cd32 O31 2.203 . S
Cd32 O34 2.411 . S
Cd32 O35 2.333 . S
Cd32 O36 2.352 . S
Cd32 O40 2.277 . S
Cd32 O41 2.356 . S
C33 O38 1.209 . S
C33 O40 1.226 . S
O34 Cd30 2.273 . S
O34 Cd32 2.411 . S
O34 C37 1.320 . S
O35 Cd32 2.333 . S
O35 C37 1.214 . S
O36 Cd32 2.352 . S
O36 C39 1.258 . S
C37 O34 1.320 . S
C37 O35 1.214 . S
O38 Cd30 2.277 . S
O38 C33 1.209 . S
C39 O36 1.258 . S
C39 O41 1.282 . S
O40 Cd32 2.277 . S
O40 C33 1.226 . S
O41 Cd32 2.356 . S
O41 C39 1.282 . S
C42 O43 1.306 . S
C42 O45 1.160 . S
O43 C42 1.306 . S
O43 Cd44 2.228 . S
Cd44 O43 2.228 . S
Cd44 O48 2.272 1_556 S
Cd44 O52 2.277 . S
O45 C42 1.160 . S
O45 Cd46 2.203 . S
Cd46 O45 2.203 . S
Cd46 O48 2.410 1_556 S
Cd46 O49 2.333 . S
Cd46 O50 2.358 . S
Cd46 O54 2.277 . S
Cd46 O55 2.356 . S
C47 O52 1.209 . S
C47 O54 1.226 . S
O48 Cd44 2.272 1_554 S
O48 Cd46 2.410 1_554 S
O48 C51 1.320 . S
O49 Cd46 2.333 . S
O49 C51 1.214 1_556 S
O50 Cd46 2.358 . S
O50 C53 1.263 . S
C51 O48 1.320 . S
C51 O49 1.214 1_554 S
O52 Cd44 2.277 . S
O52 C47 1.209 . S
C53 O50 1.263 . S
C53 O55 1.282 . S
O54 Cd46 2.277 . S
O54 C47 1.226 . S
O55 Cd46 2.356 . S
O55 C53 1.282 . S
C56 O57 1.306 . S
C56 O59 1.160 . S
O57 C56 1.306 . S
O57 Cd58 2.228 . S
Cd58 O57 2.228 . S
Cd58 O62 2.273 . S
Cd58 O66 2.277 . S
O59 C56 1.160 . S
O59 Cd60 2.203 . S
Cd60 O59 2.203 . S
Cd60 O62 2.411 . S
Cd60 O63 2.333 . S
Cd60 O64 2.352 . S
Cd60 O68 2.277 . S
Cd60 O69 2.356 . S
C61 O66 1.209 . S
C61 O68 1.226 . S
O62 Cd58 2.273 . S
O62 Cd60 2.411 . S
O62 C65 1.320 . S
O63 Cd60 2.333 . S
O63 C65 1.214 . S
O64 Cd60 2.352 . S
O64 C67 1.258 . S
C65 O62 1.320 . S
C65 O63 1.214 . S
O66 Cd58 2.277 . S
O66 C61 1.209 . S
C67 O64 1.258 . S
C67 O69 1.282 . S
O68 Cd60 2.277 . S
O68 C61 1.226 . S
O69 Cd60 2.356 . S
O69 C67 1.282 . S
C70 O71 1.306 . S
C70 O73 1.160 . S
O71 C70 1.306 . S
O71 Cd72 2.228 . S
Cd72 O71 2.228 . S
Cd72 O76 2.273 . S
Cd72 O80 2.277 . S
O73 C70 1.160 . S
O73 Cd74 2.203 . S
Cd74 O73 2.203 . S
Cd74 O76 2.411 . S
Cd74 O77 2.333 . S
Cd74 O78 2.352 . S
Cd74 O82 2.277 . S
Cd74 O83 2.356 . S
C75 O80 1.209 . S
C75 O82 1.226 . S
O76 Cd72 2.273 . S
O76 Cd74 2.411 . S
O76 C79 1.320 . S
O77 Cd74 2.333 . S
O77 C79 1.214 . S
O78 Cd74 2.352 . S
O78 C81 1.258 . S
C79 O76 1.320 . S
C79 O77 1.214 . S
O80 Cd72 2.277 . S
O80 C75 1.209 . S
C81 O78 1.258 . S
C81 O83 1.282 . S
O82 Cd74 2.277 . S
O82 C75 1.226 . S
O83 Cd74 2.356 . S
O83 C81 1.282 . S
C84 O85 1.306 . S
C84 O87 1.160 . S
O85 C84 1.306 . S
O85 Cd86 2.228 . S
Cd86 O85 2.228 . S
Cd86 O90 2.273 . S
Cd86 O94 2.277 . S
O87 C84 1.160 . S
O87 Cd88 2.203 . S
Cd88 O87 2.203 . S
Cd88 O90 2.411 . S
Cd88 O91 2.333 . S
Cd88 O92 2.352 . S
Cd88 O96 2.277 . S
Cd88 O97 2.356 . S
C89 O94 1.209 . S
C89 O96 1.226 . S
O90 Cd86 2.273 . S
O90 Cd88 2.411 . S
O90 C93 1.320 . S
O91 Cd88 2.333 . S
O91 C93 1.214 . S
O92 Cd88 2.352 . S
O92 C95 1.258 . S
C93 O90 1.320 . S
C93 O91 1.214 . S
O94 Cd86 2.277 . S
O94 C89 1.209 . S
C95 O92 1.258 . S
C95 O97 1.282 . S
O96 Cd88 2.277 . S
O96 C89 1.226 . S
O97 Cd88 2.356 . S
O97 C95 1.282 . S
C98 O99 1.306 . S
C98 O101 1.160 . S
O99 C98 1.306 . S
O99 Cd100 2.228 . S
Cd100 O99 2.228 . S
Cd100 O104 2.273 . S
Cd100 O108 2.277 . S
O101 C98 1.160 . S
O101 Cd102 2.203 . S
Cd102 O101 2.203 . S
Cd102 O104 2.411 . S
Cd102 O105 2.333 . S
Cd102 O106 2.352 . S
Cd102 O110 2.277 . S
Cd102 O111 2.356 . S
C103 O108 1.209 . S
C103 O110 1.226 . S
O104 Cd100 2.273 . S
O104 Cd102 2.411 . S
O104 C107 1.320 . S
O105 Cd102 2.333 . S
O105 C107 1.214 . S
O106 Cd102 2.352 . S
O106 C109 1.258 . S
C107 O104 1.320 . S
C107 O105 1.214 . S
O108 Cd100 2.277 . S
O108 C103 1.209 . S
C109 O106 1.258 . S
C109 O111 1.282 . S
O110 Cd102 2.277 . S
O110 C103 1.226 . S
O111 Cd102 2.356 . S
O111 C109 1.282 . S
C112 O113 1.306 . S
C112 O115 1.160 . S
O113 C112 1.306 . S
O113 Cd114 2.228 . S
Cd114 O113 2.228 . S
Cd114 O118 2.273 . S
Cd114 O122 2.277 . S
O115 C112 1.160 . S
O115 Cd116 2.203 . S
Cd116 O115 2.203 . S
Cd116 O118 2.411 . S
Cd116 O119 2.333 . S
Cd116 O120 2.352 . S
Cd116 O124 2.277 . S
Cd116 O125 2.356 . S
C117 O122 1.209 . S
C117 O124 1.226 . S
O118 Cd114 2.273 . S
O118 Cd116 2.411 . S
O118 C121 1.320 . S
O119 Cd116 2.333 . S
O119 C121 1.214 . S
O120 Cd116 2.352 . S
O120 C123 1.258 . S
C121 O118 1.320 . S
C121 O119 1.214 . S
O122 Cd114 2.277 . S
O122 C117 1.209 . S
C123 O120 1.258 . S
C123 O125 1.282 . S
O124 Cd116 2.277 . S
O124 C117 1.226 . S
O125 Cd116 2.356 . S
O125 C123 1.282 . S
C126 O127 1.306 . S
C126 O129 1.160 . S
O127 C126 1.306 . S
O127 Cd128 2.228 . S
Cd128 O127 2.228 . S
Cd128 O132 2.273 . S
Cd128 O136 2.277 . S
O129 C126 1.160 . S
O129 Cd130 2.203 . S
Cd130 O129 2.203 . S
Cd130 O132 2.411 . S
Cd130 O133 2.333 . S
Cd130 O134 2.352 . S
Cd130 O138 2.277 . S
Cd130 O139 2.356 . S
C131 O136 1.209 . S
C131 O138 1.226 . S
O132 Cd128 2.273 . S
O132 Cd130 2.411 . S
O132 C135 1.320 . S
O133 Cd130 2.333 . S
O133 C135 1.214 . S
O134 Cd130 2.352 . S
O134 C137 1.258 . S
C135 O132 1.320 . S
C135 O133 1.214 . S
O136 Cd128 2.277 . S
O136 C131 1.209 . S
C137 O134 1.258 . S
C137 O139 1.282 . S
O138 Cd130 2.277 . S
O138 C131 1.226 . S
O139 Cd130 2.356 . S
O139 C137 1.282 . S
C140 O141 1.306 . S
C140 O143 1.160 . S
O141 C140 1.306 . S
O141 Cd142 2.228 . S
Cd142 O141 2.228 . S
Cd142 O146 2.272 1_554 S
Cd142 O150 2.277 . S
O143 C140 1.160 . S
O143 Cd144 2.203 . S
Cd144 O143 2.203 . S
Cd144 O146 2.410 1_554 S
Cd144 O147 2.333 . S
Cd144 O148 2.358 . S
Cd144 O152 2.277 . S
Cd144 O153 2.356 . S
C145 O150 1.209 . S
C145 O152 1.226 . S
O146 Cd142 2.272 1_556 S
O146 Cd144 2.410 1_556 S
O146 C149 1.321 . S
O147 Cd144 2.333 . S
O147 C149 1.214 1_554 S
O148 Cd144 2.358 . S
O148 C151 1.263 . S
C149 O146 1.321 . S
C149 O147 1.214 1_556 S
O150 Cd142 2.277 . S
O150 C145 1.209 . S
C151 O148 1.263 . S
C151 O153 1.282 . S
O152 Cd144 2.277 . S
O152 C145 1.226 . S
O153 Cd144 2.356 . S
O153 C151 1.282 . S
C154 O155 1.306 . S
C154 O157 1.160 . S
O155 C154 1.306 . S
O155 Cd156 2.228 . S
Cd156 O155 2.228 . S
Cd156 O160 2.273 . S
Cd156 O164 2.277 . S
O157 C154 1.160 . S
O157 Cd158 2.203 . S
Cd158 O157 2.203 . S
Cd158 O160 2.411 . S
Cd158 O161 2.333 . S
Cd158 O162 2.352 . S
Cd158 O166 2.277 . S
Cd158 O167 2.356 . S
C159 O164 1.209 . S
C159 O166 1.226 . S
O160 Cd156 2.273 . S
O160 Cd158 2.411 . S
O160 C163 1.320 . S
O161 Cd158 2.333 . S
O161 C163 1.214 . S
O162 Cd158 2.352 . S
O162 C165 1.258 . S
C163 O160 1.320 . S
C163 O161 1.214 . S
O164 Cd156 2.277 . S
O164 C159 1.209 . S
C165 O162 1.258 . S
C165 O167 1.282 . S
O166 Cd158 2.277 . S
O166 C159 1.226 . S
O167 Cd158 2.356 . S
O167 C165 1.282 . S
H168 C174 0.930 . S
H169 C178 0.930 . S
H170 C183 0.929 . S
H171 C181 0.929 . S
H172 C176 0.929 . S
H173 C182 0.929 . S
C174 H168 0.930 . S
C174 C175 1.367 . S
C174 C182 1.378 . S
C175 C174 1.367 . S
C175 C183 1.433 . S
C176 H172 0.929 . S
C176 C178 1.378 . S
C176 C180 1.350 . S
C177 C180 1.463 . S
C177 C182 1.350 . S
C177 N185 1.427 . S
C178 H169 0.930 . S
C178 C176 1.378 . S
C178 C179 1.367 . S
C179 C178 1.367 . S
C179 C181 1.433 . S
C180 C176 1.350 . S
C180 C177 1.463 . S
C180 N184 1.427 . S
C181 H171 0.929 . S
C181 C179 1.433 . S
C181 N184 1.384 . S
C182 H173 0.929 . S
C182 C174 1.378 . S
C182 C177 1.350 . S
C183 H170 0.929 . S
C183 C175 1.433 . S
C183 N185 1.384 . S
N184 C180 1.427 . S
N184 C181 1.384 . S
N185 C177 1.427 . S
N185 C183 1.384 . S
H186 C192 0.930 . S
H187 C196 0.930 . S
H188 C201 0.929 . S
H189 C199 0.929 . S
H190 C194 0.892 1_455 S
H191 C200 0.892 1_655 S
C192 H186 0.930 . S
C192 C193 1.367 . S
C192 C200 1.401 . S
C193 C192 1.367 . S
C193 C201 1.433 . S
C194 H190 0.892 1_655 S
C194 C196 1.401 . S
C194 C198 1.364 . S
C195 C198 1.463 1_455 S
C195 C200 1.364 . S
C195 N203 1.427 . S
C196 H187 0.930 . S
C196 C194 1.401 . S
C196 C197 1.367 . S
C197 C196 1.367 . S
C197 C199 1.433 . S
C198 C194 1.364 . S
C198 C195 1.463 1_655 S
C198 N202 1.427 . S
C199 H189 0.929 . S
C199 C197 1.433 . S
C199 N202 1.384 . S
C200 H191 0.892 1_455 S
C200 C192 1.401 . S
C200 C195 1.364 . S
C201 H188 0.929 . S
C201 C193 1.433 . S
C201 N203 1.384 . S
N202 C198 1.427 . S
N202 C199 1.384 . S
N203 C195 1.427 . S
N203 C201 1.384 . S
H204 C210 0.930 . S
H205 C214 0.930 . S
H206 C219 0.929 . S
H207 C217 0.929 . S
H208 C212 0.929 . S
H209 C218 0.929 . S
C210 H204 0.930 . S
C210 C211 1.367 . S
C210 C218 1.378 . S
C211 C210 1.367 . S
C211 C219 1.433 . S
C212 H208 0.929 . S
C212 C214 1.378 . S
C212 C216 1.350 . S
C213 C216 1.463 1_565 S
C213 C218 1.350 . S
C213 N221 1.427 . S
C214 H205 0.930 . S
C214 C212 1.378 . S
C214 C215 1.367 . S
C215 C214 1.367 . S
C215 C217 1.433 . S
C216 C212 1.350 . S
C216 C213 1.463 1_545 S
C216 N220 1.427 . S
C217 H207 0.929 . S
C217 C215 1.433 . S
C217 N220 1.384 . S
C218 H209 0.929 . S
C218 C210 1.378 . S
C218 C213 1.350 . S
C219 H206 0.929 . S
C219 C211 1.433 . S
C219 N221 1.384 . S
N220 C216 1.427 . S
N220 C217 1.384 . S
N221 C213 1.427 . S
N221 C219 1.384 . S
H222 C228 0.930 . S
H223 C232 0.930 . S
H224 C237 0.929 . S
H225 C235 0.929 . S
H226 C230 0.929 . S
H227 C236 0.929 . S
C228 H222 0.930 . S
C228 C229 1.367 . S
C228 C236 1.378 . S
C229 C228 1.367 . S
C229 C237 1.433 . S
C230 H226 0.929 . S
C230 C232 1.378 . S
C230 C234 1.350 . S
C231 C234 1.463 . S
C231 C236 1.350 . S
C231 N239 1.427 . S
C232 H223 0.930 . S
C232 C230 1.378 . S
C232 C233 1.367 . S
C233 C232 1.367 . S
C233 C235 1.433 . S
C234 C230 1.350 . S
C234 C231 1.463 . S
C234 N238 1.427 . S
C235 H225 0.929 . S
C235 C233 1.433 . S
C235 N238 1.384 . S
C236 H227 0.929 . S
C236 C228 1.378 . S
C236 C231 1.350 . S
C237 H224 0.929 . S
C237 C229 1.433 . S
C237 N239 1.384 . S
N238 C234 1.427 . S
N238 C235 1.384 . S
N239 C231 1.427 . S
N239 C237 1.384 . S
H240 C246 0.930 . S
H241 C250 0.930 . S
H242 C255 0.929 . S
H243 C253 0.929 . S
H244 C248 0.929 1_455 S
H245 C254 0.929 1_655 S
C246 H240 0.930 . S
C246 C247 1.367 . S
C246 C254 1.378 . S
C247 C246 1.367 . S
C247 C255 1.433 . S
C248 H244 0.929 1_655 S
C248 C250 1.378 . S
C248 C252 1.350 . S
C249 C252 1.463 1_455 S
C249 C254 1.350 . S
C249 N257 1.427 . S
C250 H241 0.930 . S
C250 C248 1.378 . S
C250 C251 1.367 . S
C251 C250 1.367 . S
C251 C253 1.433 . S
C252 C248 1.350 . S
C252 C249 1.463 1_655 S
C252 N256 1.427 . S
C253 H243 0.929 . S
C253 C251 1.433 . S
C253 N256 1.384 . S
C254 H245 0.929 1_455 S
C254 C246 1.378 . S
C254 C249 1.350 . S
C255 H242 0.929 . S
C255 C247 1.433 . S
C255 N257 1.384 . S
N256 C252 1.427 . S
N256 C253 1.384 . S
N257 C249 1.427 . S
N257 C255 1.384 . S
H258 C264 0.930 . S
H259 C268 0.930 . S
H260 C273 0.929 . S
H261 C271 0.929 . S
H262 C266 0.929 . S
H263 C272 0.929 . S
C264 H258 0.930 . S
C264 C265 1.367 . S
C264 C272 1.378 . S
C265 C264 1.367 . S
C265 C273 1.433 . S
C266 H262 0.929 . S
C266 C268 1.378 . S
C266 C270 1.350 . S
C267 C270 1.463 1_546 S
C267 C272 1.350 . S
C267 N275 1.427 . S
C268 H259 0.930 . S
C268 C266 1.378 . S
C268 C269 1.367 . S
C269 C268 1.367 . S
C269 C271 1.433 . S
C270 C266 1.350 . S
C270 C267 1.463 1_564 S
C270 N274 1.427 . S
C271 H261 0.929 . S
C271 C269 1.433 . S
C271 N274 1.384 . S
C272 H263 0.929 . S
C272 C264 1.378 . S
C272 C267 1.350 . S
C273 H260 0.929 . S
C273 C265 1.433 . S
C273 N275 1.384 . S
N274 C270 1.427 . S
N274 C271 1.384 . S
N275 C267 1.427 . S
N275 C273 1.384 . S
H276 C282 0.930 . S
H277 C286 0.930 . S
H278 C291 0.929 . S
H279 C289 0.929 . S
H280 C284 0.929 . S
H281 C290 0.929 . S
C282 H276 0.930 . S
C282 C283 1.367 . S
C282 C290 1.378 . S
C283 C282 1.367 . S
C283 C291 1.433 . S
C284 H280 0.929 . S
C284 C286 1.378 . S
C284 C288 1.350 . S
C285 C288 1.463 . S
C285 C290 1.350 . S
C285 N293 1.427 . S
C286 H277 0.930 . S
C286 C284 1.378 . S
C286 C287 1.367 . S
C287 C286 1.367 . S
C287 C289 1.433 . S
C288 C284 1.350 . S
C288 C285 1.463 . S
C288 N292 1.427 . S
C289 H279 0.929 . S
C289 C287 1.433 . S
C289 N292 1.384 . S
C290 H281 0.929 . S
C290 C282 1.378 . S
C290 C285 1.350 . S
C291 H278 0.929 . S
C291 C283 1.433 . S
C291 N293 1.384 . S
N292 C288 1.427 . S
N292 C289 1.384 . S
N293 C285 1.427 . S
N293 C291 1.384 . S
H294 C300 0.930 . S
H295 C304 0.930 . S
H296 C309 0.929 . S
H297 C307 0.929 . S
H298 C302 0.929 . S
H299 C308 0.929 . S
C300 H294 0.930 . S
C300 C301 1.367 . S
C300 C308 1.378 . S
C301 C300 1.367 . S
C301 C309 1.433 . S
C302 H298 0.929 . S
C302 C304 1.378 . S
C302 C306 1.350 . S
C303 C306 1.463 . S
C303 C308 1.350 . S
C303 N311 1.427 . S
C304 H295 0.930 . S
C304 C302 1.378 . S
C304 C305 1.367 . S
C305 C304 1.367 . S
C305 C307 1.433 . S
C306 C302 1.350 . S
C306 C303 1.463 . S
C306 N310 1.427 . S
C307 H297 0.929 . S
C307 C305 1.433 . S
C307 N310 1.384 . S
C308 H299 0.929 . S
C308 C300 1.378 . S
C308 C303 1.350 . S
C309 H296 0.929 . S
C309 C301 1.433 . S
C309 N311 1.384 . S
N310 C306 1.427 . S
N310 C307 1.384 . S
N311 C303 1.427 . S
N311 C309 1.384 . S
H312 C318 0.930 . S
H313 C322 0.930 . S
H314 C327 0.929 . S
H315 C325 0.929 . S
H316 C320 0.929 . S
H317 C326 0.929 . S
C318 H312 0.930 . S
C318 C319 1.367 . S
C318 C326 1.378 . S
C319 C318 1.367 . S
C319 C327 1.433 . S
C320 H316 0.929 . S
C320 C322 1.378 . S
C320 C324 1.350 . S
C321 C324 1.463 . S
C321 C326 1.350 . S
C321 N329 1.427 . S
C322 H313 0.930 . S
C322 C320 1.378 . S
C322 C323 1.367 . S
C323 C322 1.367 . S
C323 C325 1.433 . S
C324 C320 1.350 . S
C324 C321 1.463 . S
C324 N328 1.427 . S
C325 H315 0.929 . S
C325 C323 1.433 . S
C325 N328 1.384 . S
C326 H317 0.929 . S
C326 C318 1.378 . S
C326 C321 1.350 . S
C327 H314 0.929 . S
C327 C319 1.433 . S
C327 N329 1.384 . S
N328 C324 1.427 . S
N328 C325 1.384 . S
N329 C321 1.427 . S
N329 C327 1.384 . S
H330 C336 0.930 . S
H331 C340 0.930 1_554 S
H332 C345 0.929 . S
H333 C343 0.929 . S
H334 C338 0.929 . S
H335 C344 0.929 . S
C336 H330 0.930 . S
C336 C337 1.367 . S
C336 C344 1.378 . S
C337 C336 1.367 . S
C337 C345 1.433 . S
C338 H334 0.929 . S
C338 C340 1.378 . S
C338 C342 1.350 . S
C339 C342 1.463 . S
C339 C344 1.350 . S
C339 N347 1.427 . S
C340 H331 0.930 1_556 S
C340 C338 1.378 . S
C340 C341 1.367 . S
C341 C340 1.367 . S
C341 C343 1.433 . S
C342 C338 1.350 . S
C342 C339 1.463 . S
C342 N346 1.427 . S
C343 H333 0.929 . S
C343 C341 1.433 . S
C343 N346 1.384 . S
C344 H335 0.929 . S
C344 C336 1.378 . S
C344 C339 1.350 . S
C345 H332 0.929 . S
C345 C337 1.433 . S
C345 N347 1.384 . S
N346 C342 1.427 . S
N346 C343 1.384 . S
N347 C339 1.427 . S
N347 C345 1.384 . S
H348 C354 0.930 . S
H349 C358 0.930 . S
H350 C363 0.929 . S
H351 C361 0.929 1_556 S
H352 C356 0.929 . S
H353 C362 0.929 . S
C354 H348 0.930 . S
C354 C355 1.367 . S
C354 C362 1.378 . S
C355 C354 1.367 . S
C355 C363 1.433 . S
C356 H352 0.929 . S
C356 C358 1.378 . S
C356 C360 1.350 . S
C357 C360 1.463 . S
C357 C362 1.350 . S
C357 N365 1.427 . S
C358 H349 0.930 . S
C358 C356 1.378 . S
C358 C359 1.367 . S
C359 C358 1.367 . S
C359 C361 1.433 . S
C360 C356 1.350 . S
C360 C357 1.463 . S
C360 N364 1.427 . S
C361 H351 0.929 1_554 S
C361 C359 1.433 . S
C361 N364 1.384 . S
C362 H353 0.929 . S
C362 C354 1.378 . S
C362 C357 1.350 . S
C363 H350 0.929 . S
C363 C355 1.433 . S
C363 N365 1.384 . S
N364 C360 1.427 . S
N364 C361 1.384 . S
N365 C357 1.427 . S
N365 C363 1.384 . S
H366 C372 0.930 . S
H367 C376 0.930 . S
H368 C381 0.929 . S
H369 C379 0.929 . S
H370 C374 0.929 . S
H371 C380 0.929 . S
C372 H366 0.930 . S
C372 C373 1.367 . S
C372 C380 1.378 . S
C373 C372 1.367 . S
C373 C381 1.433 . S
C374 H370 0.929 . S
C374 C376 1.378 . S
C374 C378 1.350 . S
C375 C378 1.463 . S
C375 C380 1.350 . S
C375 N383 1.427 . S
C376 H367 0.930 . S
C376 C374 1.378 . S
C376 C377 1.367 . S
C377 C376 1.367 . S
C377 C379 1.433 . S
C378 C374 1.350 . S
C378 C375 1.463 . S
C378 N382 1.427 . S
C379 H369 0.929 . S
C379 C377 1.433 . S
C379 N382 1.384 . S
C380 H371 0.929 . S
C380 C372 1.378 . S
C380 C375 1.350 . S
C381 H368 0.929 . S
C381 C373 1.433 . S
C381 N383 1.384 . S
N382 C378 1.427 . S
N382 C379 1.384 . S
N383 C375 1.427 . S
N383 C381 1.384 . S
H384 C390 0.930 . S
H385 C394 0.930 . S
H386 C399 0.929 . S
H387 C397 0.929 . S
H388 C392 0.929 . S
H389 C398 0.929 . S
C390 H384 0.930 . S
C390 C391 1.367 . S
C390 C398 1.378 . S
C391 C390 1.367 . S
C391 C399 1.433 . S
C392 H388 0.929 . S
C392 C394 1.378 . S
C392 C396 1.350 . S
C393 C396 1.463 . S
C393 C398 1.350 . S
C393 N401 1.427 . S
C394 H385 0.930 . S
C394 C392 1.378 . S
C394 C395 1.367 . S
C395 C394 1.367 . S
C395 C397 1.433 . S
C396 C392 1.350 . S
C396 C393 1.463 . S
C396 N400 1.427 . S
C397 H387 0.929 . S
C397 C395 1.433 . S
C397 N400 1.384 . S
C398 H389 0.929 . S
C398 C390 1.378 . S
C398 C393 1.350 . S
C399 H386 0.929 . S
C399 C391 1.433 . S
C399 N401 1.384 . S
N400 C396 1.427 . S
N400 C397 1.384 . S
N401 C393 1.427 . S
N401 C399 1.384 . S
H402 C408 0.930 . S
H403 C412 0.930 . S
H404 C417 0.929 . S
H405 C415 0.929 . S
H406 C410 0.929 1_655 S
H407 C416 0.929 1_455 S
C408 H402 0.930 . S
C408 C409 1.367 . S
C408 C416 1.378 . S
C409 C408 1.367 . S
C409 C417 1.433 . S
C410 H406 0.929 1_455 S
C410 C412 1.378 . S
C410 C414 1.350 . S
C411 C414 1.463 1_655 S
C411 C416 1.350 . S
C411 N419 1.427 . S
C412 H403 0.930 . S
C412 C410 1.378 . S
C412 C413 1.367 . S
C413 C412 1.367 . S
C413 C415 1.433 . S
C414 C410 1.350 . S
C414 C411 1.463 1_455 S
C414 N418 1.427 . S
C415 H405 0.929 . S
C415 C413 1.433 . S
C415 N418 1.384 . S
C416 H407 0.929 1_655 S
C416 C408 1.378 . S
C416 C411 1.350 . S
C417 H404 0.929 . S
C417 C409 1.433 . S
C417 N419 1.384 . S
N418 C414 1.427 . S
N418 C415 1.384 . S
N419 C411 1.427 . S
N419 C417 1.384 . S
H420 C426 0.930 . S
H421 C430 0.930 . S
H422 C435 0.929 . S
H423 C433 0.929 . S
H424 C428 0.929 1_554 S
H425 C434 0.929 1_556 S
C426 H420 0.930 . S
C426 C427 1.367 . S
C426 C434 1.378 . S
C427 C426 1.367 . S
C427 C435 1.433 . S
C428 H424 0.929 1_556 S
C428 C430 1.378 . S
C428 C432 1.350 . S
C429 C432 1.463 1_564 S
C429 C434 1.350 . S
C429 N437 1.427 . S
C430 H421 0.930 . S
C430 C428 1.378 . S
C430 C431 1.367 . S
C431 C430 1.367 . S
C431 C433 1.433 . S
C432 C428 1.350 . S
C432 C429 1.463 1_546 S
C432 N436 1.427 . S
C433 H423 0.929 . S
C433 C431 1.433 . S
C433 N436 1.384 . S
C434 H425 0.929 1_554 S
C434 C426 1.378 . S
C434 C429 1.350 . S
C435 H422 0.929 . S
C435 C427 1.433 . S
C435 N437 1.384 . S
N436 C432 1.427 . S
N436 C433 1.384 . S
N437 C429 1.427 . S
N437 C435 1.384 . S
H438 C444 0.930 . S
H439 C448 0.930 . S
H440 C453 0.929 . S
H441 C451 0.929 . S
H442 C446 0.929 . S
H443 C452 0.929 . S
C444 H438 0.930 . S
C444 C445 1.367 . S
C444 C452 1.378 . S
C445 C444 1.367 . S
C445 C453 1.433 . S
C446 H442 0.929 . S
C446 C448 1.378 . S
C446 C450 1.350 . S
C447 C450 1.463 . S
C447 C452 1.350 . S
C447 N455 1.427 . S
C448 H439 0.930 . S
C448 C446 1.378 . S
C448 C449 1.367 . S
C449 C448 1.367 . S
C449 C451 1.433 . S
C450 C446 1.350 . S
C450 C447 1.463 . S
C450 N454 1.427 . S
C451 H441 0.929 . S
C451 C449 1.433 . S
C451 N454 1.384 . S
C452 H443 0.929 . S
C452 C444 1.378 . S
C452 C447 1.350 . S
C453 H440 0.929 . S
C453 C445 1.433 . S
C453 N455 1.384 . S
N454 C450 1.427 . S
N454 C451 1.384 . S
N455 C447 1.427 . S
N455 C453 1.384 . S
H456 C462 0.930 . S
H457 C466 0.930 . S
H458 C471 0.929 . S
H459 C469 0.929 . S
H460 C464 0.929 . S
H461 C470 0.929 . S
C462 H456 0.930 . S
C462 C463 1.367 . S
C462 C470 1.378 . S
C463 C462 1.367 . S
C463 C471 1.433 . S
C464 H460 0.929 . S
C464 C466 1.378 . S
C464 C468 1.350 . S
C465 C468 1.463 1_455 S
C465 C470 1.350 . S
C465 N473 1.427 . S
C466 H457 0.930 . S
C466 C464 1.378 . S
C466 C467 1.367 . S
C467 C466 1.367 . S
C467 C469 1.433 . S
C468 C464 1.350 . S
C468 C465 1.463 1_655 S
C468 N472 1.427 . S
C469 H459 0.929 . S
C469 C467 1.433 . S
C469 N472 1.384 . S
C470 H461 0.929 . S
C470 C462 1.378 . S
C470 C465 1.350 . S
C471 H458 0.929 . S
C471 C463 1.433 . S
C471 N473 1.384 . S
N472 C468 1.427 . S
N472 C469 1.384 . S
N473 C465 1.427 . S
N473 C471 1.384 . S
H474 C480 0.930 . S
H475 C484 0.930 . S
H476 C489 0.929 . S
H477 C487 0.929 . S
H478 C482 0.929 . S
H479 C488 0.929 . S
C480 H474 0.930 . S
C480 C481 1.367 . S
C480 C488 1.378 . S
C481 C480 1.367 . S
C481 C489 1.433 . S
C482 H478 0.929 . S
C482 C484 1.378 . S
C482 C486 1.350 . S
C483 C486 1.463 1_565 S
C483 C488 1.350 . S
C483 N491 1.427 . S
C484 H475 0.930 . S
C484 C482 1.378 . S
C484 C485 1.367 . S
C485 C484 1.367 . S
C485 C487 1.433 . S
C486 C482 1.350 . S
C486 C483 1.463 1_545 S
C486 N490 1.428 . S
C487 H477 0.929 . S
C487 C485 1.433 . S
C487 N490 1.384 . S
C488 H479 0.929 . S
C488 C480 1.378 . S
C488 C483 1.350 . S
C489 H476 0.929 . S
C489 C481 1.433 . S
C489 N491 1.384 . S
N490 C486 1.428 . S
N490 C487 1.384 . S
N491 C483 1.427 . S
N491 C489 1.384 . S
H492 C498 0.930 . S
H493 C502 0.930 . S
H494 C507 0.929 . S
H495 C505 0.929 . S
H496 C500 0.929 . S
H497 C506 0.929 . S
C498 H492 0.930 . S
C498 C499 1.367 . S
C498 C506 1.378 . S
C499 C498 1.367 . S
C499 C507 1.433 . S
C500 H496 0.929 . S
C500 C502 1.378 . S
C500 C504 1.350 . S
C501 C504 1.463 . S
C501 C506 1.350 . S
C501 N509 1.427 . S
C502 H493 0.930 . S
C502 C500 1.378 . S
C502 C503 1.367 . S
C503 C502 1.367 . S
C503 C505 1.433 . S
C504 C500 1.350 . S
C504 C501 1.463 . S
C504 N508 1.427 . S
C505 H495 0.929 . S
C505 C503 1.433 . S
C505 N508 1.384 . S
C506 H497 0.929 . S
C506 C498 1.378 . S
C506 C501 1.350 . S
C507 H494 0.929 . S
C507 C499 1.433 . S
C507 N509 1.384 . S
N508 C504 1.427 . S
N508 C505 1.384 . S
N509 C501 1.427 . S
N509 C507 1.384 . S
H510 C516 0.930 . S
H511 C520 0.930 . S
H512 C525 0.929 . S
H513 C523 0.929 . S
H514 C518 0.929 . S
H515 C524 0.929 . S
C516 H510 0.930 . S
C516 C517 1.367 . S
C516 C524 1.378 . S
C517 C516 1.367 . S
C517 C525 1.433 . S
C518 H514 0.929 . S
C518 C520 1.378 . S
C518 C522 1.350 . S
C519 C522 1.463 . S
C519 C524 1.350 . S
C519 N527 1.427 . S
C520 H511 0.930 . S
C520 C518 1.378 . S
C520 C521 1.367 . S
C521 C520 1.367 . S
C521 C523 1.433 . S
C522 C518 1.350 . S
C522 C519 1.463 . S
C522 N526 1.427 . S
C523 H513 0.929 . S
C523 C521 1.433 . S
C523 N526 1.384 . S
C524 H515 0.929 . S
C524 C516 1.378 . S
C524 C519 1.350 . S
C525 H512 0.929 . S
C525 C517 1.433 . S
C525 N527 1.384 . S
N526 C522 1.427 . S
N526 C523 1.384 . S
N527 C519 1.427 . S
N527 C525 1.384 . S
H528 C534 0.930 . S
H529 C538 0.930 . S
H530 C543 0.929 . S
H531 C541 0.929 . S
H532 C536 0.929 . S
H533 C542 0.929 . S
C534 H528 0.930 . S
C534 C535 1.348 1_556 S
C534 C542 1.378 . S
C535 C534 1.348 1_554 S
C535 C543 1.441 . S
C536 H532 0.929 . S
C536 C538 1.378 . S
C536 C540 1.350 . S
C537 C540 1.463 . S
C537 C542 1.350 . S
C537 N545 1.427 . S
C538 H529 0.930 . S
C538 C536 1.378 . S
C538 C539 1.367 . S
C539 C538 1.367 . S
C539 C541 1.433 . S
C540 C536 1.350 . S
C540 C537 1.463 . S
C540 N544 1.427 . S
C541 H531 0.929 . S
C541 C539 1.433 . S
C541 N544 1.384 . S
C542 H533 0.929 . S
C542 C534 1.378 . S
C542 C537 1.350 . S
C543 H530 0.929 . S
C543 C535 1.441 . S
C543 N545 1.384 1_554 S
N544 C540 1.427 . S
N544 C541 1.384 . S
N545 C537 1.427 . S
N545 C543 1.384 1_556 S
H546 C552 0.930 . S
H547 C556 0.930 . S
H548 C561 0.929 . S
H549 C559 0.929 . S
H550 C554 0.929 . S
H551 C560 0.929 . S
C552 H546 0.930 . S
C552 C553 1.367 . S
C552 C560 1.378 . S
C553 C552 1.367 . S
C553 C561 1.433 . S
C554 H550 0.929 . S
C554 C556 1.378 1_554 S
C554 C558 1.350 . S
C555 C558 1.463 . S
C555 C560 1.350 . S
C555 N563 1.427 . S
C556 H547 0.930 . S
C556 C554 1.378 1_556 S
C556 C557 1.367 . S
C557 C556 1.367 . S
C557 C559 1.433 1_556 S
C558 C554 1.350 . S
C558 C555 1.463 . S
C558 N562 1.427 . S
C559 H549 0.929 . S
C559 C557 1.433 1_554 S
C559 N562 1.384 . S
C560 H551 0.929 . S
C560 C552 1.378 . S
C560 C555 1.350 . S
C561 H548 0.929 . S
C561 C553 1.433 . S
C561 N563 1.384 . S
N562 C558 1.427 . S
N562 C559 1.384 . S
N563 C555 1.427 . S
N563 C561 1.384 . S
H564 C570 0.930 . S
H565 C574 0.930 . S
H566 C579 0.929 . S
H567 C577 0.929 . S
H568 C572 0.929 . S
H569 C578 0.929 . S
C570 H564 0.930 . S
C570 C571 1.367 . S
C570 C578 1.378 . S
C571 C570 1.367 . S
C571 C579 1.433 . S
C572 H568 0.929 . S
C572 C574 1.378 . S
C572 C576 1.350 . S
C573 C576 1.463 . S
C573 C578 1.350 . S
C573 N581 1.427 . S
C574 H565 0.930 . S
C574 C572 1.378 . S
C574 C575 1.367 . S
C575 C574 1.367 . S
C575 C577 1.433 . S
C576 C572 1.350 . S
C576 C573 1.463 . S
C576 N580 1.427 . S
C577 H567 0.929 . S
C577 C575 1.433 . S
C577 N580 1.384 . S
C578 H569 0.929 . S
C578 C570 1.378 . S
C578 C573 1.350 . S
C579 H566 0.929 . S
C579 C571 1.433 . S
C579 N581 1.384 . S
N580 C576 1.427 . S
N580 C577 1.384 . S
N581 C573 1.427 . S
N581 C579 1.384 . S
H582 C588 0.930 . S
H583 C592 0.930 . S
H584 C597 0.929 . S
H585 C595 0.929 . S
H586 C590 0.929 . S
H587 C596 0.929 . S
C588 H582 0.930 . S
C588 C589 1.367 . S
C588 C596 1.378 . S
C589 C588 1.367 . S
C589 C597 1.433 . S
C590 H586 0.929 . S
C590 C592 1.378 . S
C590 C594 1.350 . S
C591 C594 1.463 . S
C591 C596 1.350 . S
C591 N599 1.427 . S
C592 H583 0.930 . S
C592 C590 1.378 . S
C592 C593 1.367 . S
C593 C592 1.367 . S
C593 C595 1.433 . S
C594 C590 1.350 . S
C594 C591 1.463 . S
C594 N598 1.427 . S
C595 H585 0.929 . S
C595 C593 1.433 . S
C595 N598 1.384 . S
C596 H587 0.929 . S
C596 C588 1.378 . S
C596 C591 1.350 . S
C597 H584 0.929 . S
C597 C589 1.433 . S
C597 N599 1.384 . S
N598 C594 1.427 . S
N598 C595 1.384 . S
N599 C591 1.427 . S
N599 C597 1.384 . S
C175 C131 1.597 1_554 S
C179 C5 1.597 . S
C193 C19 1.596 . S
C197 C145 1.597 . S
C211 C159 1.602 . S
C215 C33 1.599 . S
C229 C89 1.598 . S
C233 C47 1.596 . S
C247 C103 1.596 . S
C251 C61 1.599 1_556 S
C265 C117 1.602 . S
C269 C75 1.597 . S
C283 C84 1.506 . S
C287 C0 1.497 . S
C301 C14 1.504 . S
C305 C98 1.492 . S
C319 C112 1.493 . S
C323 C28 1.506 . S
C337 C42 1.499 . S
C341 C126 1.506 . S
C355 C140 1.500 . S
C359 C56 1.493 . S
C373 C70 1.501 . S
C377 C154 1.504 . S
C391 C135 1.315 . S
C395 C9 1.321 . S
C409 C149 1.317 . S
C413 C23 1.321 . S
C427 C163 1.315 . S
C431 C37 1.319 . S
C445 C51 1.316 . S
C449 C93 1.317 . S
C463 C107 1.315 . S
C467 C65 1.318 . S
C481 C79 1.316 . S
C485 C121 1.317 . S
C499 C11 1.199 . S
C503 C123 1.197 . S
C517 C137 1.204 . S
C521 C25 1.199 . S
C535 C151 1.208 . S
C539 C39 1.197 . S
C553 C165 1.205 . S
C557 C53 1.201 . S
C571 C95 1.202 . S
C575 C67 1.198 . S
C589 C109 1.197 . S
C593 C81 1.201 . S
