# Generated by pormake.
# Topology umb, (4)-cn, num edge types: 1
# Building blocks:
#     Node 0, Type 0, BuildingBlock: NAWXER_clean_sbu_0, # of connection points: 4
#     Node 1, Type 0, BuildingBlock: NAWXER_clean_sbu_0, # of connection points: 4
#     Node 2, Type 0, BuildingBlock: NAWXER_clean_sbu_0, # of connection points: 4
#     Node 3, Type 0, BuildingBlock: NAWXER_clean_sbu_0, # of connection points: 4
#     Node 4, Type 0, BuildingBlock: NAWXER_clean_sbu_0, # of connection points: 4
#     Node 5, Type 0, BuildingBlock: NAWXER_clean_sbu_0, # of connection points: 4
#     Node 6, Type 0, BuildingBlock: NAWXER_clean_sbu_0, # of connection points: 4
#     Node 7, Type 0, BuildingBlock: NAWXER_clean_sbu_0, # of connection points: 4
#     Node 8, Type 0, BuildingBlock: NAWXER_clean_sbu_0, # of connection points: 4
#     Node 9, Type 0, BuildingBlock: NAWXER_clean_sbu_0, # of connection points: 4
#     Node 10, Type 0, BuildingBlock: NAWXER_clean_sbu_0, # of connection points: 4
#     Node 11, Type 0, BuildingBlock: NAWXER_clean_sbu_0, # of connection points: 4
#     Edge 12, Type (0, 0), BuildingBlock: EYOCIG_clean_linker_4, # of connection points: 2
#     Edge 13, Type (0, 0), BuildingBlock: EYOCIG_clean_linker_4, # of connection points: 2
#     Edge 14, Type (0, 0), BuildingBlock: EYOCIG_clean_linker_4, # of connection points: 2
#     Edge 15, Type (0, 0), BuildingBlock: EYOCIG_clean_linker_4, # of connection points: 2
#     Edge 16, Type (0, 0), BuildingBlock: EYOCIG_clean_linker_4, # of connection points: 2
#     Edge 17, Type (0, 0), BuildingBlock: EYOCIG_clean_linker_4, # of connection points: 2
#     Edge 18, Type (0, 0), BuildingBlock: EYOCIG_clean_linker_4, # of connection points: 2
#     Edge 19, Type (0, 0), BuildingBlock: EYOCIG_clean_linker_4, # of connection points: 2
#     Edge 20, Type (0, 0), BuildingBlock: EYOCIG_clean_linker_4, # of connection points: 2
#     Edge 21, Type (0, 0), BuildingBlock: EYOCIG_clean_linker_4, # of connection points: 2
#     Edge 22, Type (0, 0), BuildingBlock: EYOCIG_clean_linker_4, # of connection points: 2
#     Edge 23, Type (0, 0), BuildingBlock: EYOCIG_clean_linker_4, # of connection points: 2
#     Edge 24, Type (0, 0), BuildingBlock: EYOCIG_clean_linker_4, # of connection points: 2
#     Edge 25, Type (0, 0), BuildingBlock: EYOCIG_clean_linker_4, # of connection points: 2
#     Edge 26, Type (0, 0), BuildingBlock: EYOCIG_clean_linker_4, # of connection points: 2
#     Edge 27, Type (0, 0), BuildingBlock: EYOCIG_clean_linker_4, # of connection points: 2
#     Edge 28, Type (0, 0), BuildingBlock: EYOCIG_clean_linker_4, # of connection points: 2
#     Edge 29, Type (0, 0), BuildingBlock: EYOCIG_clean_linker_4, # of connection points: 2
#     Edge 30, Type (0, 0), BuildingBlock: EYOCIG_clean_linker_4, # of connection points: 2
#     Edge 31, Type (0, 0), BuildingBlock: EYOCIG_clean_linker_4, # of connection points: 2
#     Edge 32, Type (0, 0), BuildingBlock: EYOCIG_clean_linker_4, # of connection points: 2
#     Edge 33, Type (0, 0), BuildingBlock: EYOCIG_clean_linker_4, # of connection points: 2
#     Edge 34, Type (0, 0), BuildingBlock: EYOCIG_clean_linker_4, # of connection points: 2
#     Edge 35, Type (0, 0), BuildingBlock: EYOCIG_clean_linker_4, # of connection points: 2
# Relax obj value: 0.192
# Max RMSD: 0.212
# Mean RMSD: 0.211
data_MOF--net-umb--node1-NAWXER_clean_sbu_0--edge1-EYOCIG_clean_linker_4
_symmetry_space_group_name_H-M    P1
_symmetry_Int_Tables_number       1
_symmetry_cell_setting            triclinic
loop_
_symmetry_equiv_pos_as_xyz
'x, y, z'
_cell_length_a     37.158839
_cell_length_b     37.199698
_cell_length_c     28.289532
_cell_angle_alpha  90.015943
_cell_angle_beta   90.001519
_cell_angle_gamma 119.92301
loop_
_atom_site_label
_atom_site_type_symbol
_atom_site_fract_x
_atom_site_fract_y
_atom_site_fract_z
_atom_type_partial_charge
C0 C 0.56816 0.23167 0.38037 0.0
C1 C 0.50009 0.0848 0.348 0.0
O2 O 0.5814 0.2122 0.35564 0.0
Zn3 Zn 0.53256 0.15951 0.36031 0.0
O4 O 0.53164 0.21285 0.3983 0.0
Zn5 Zn 0.47983 0.14985 0.39901 0.0
O6 O 0.47611 0.13983 0.46687 0.0
O7 O 0.53419 0.14846 0.43466 0.0
O8 O 0.47673 0.09365 0.37296 0.0
O9 O 0.53395 0.11354 0.33151 0.0
O10 O 0.49049 0.17083 0.32033 0.0
O11 O 0.43681 0.156 0.36608 0.0
C12 C 0.51116 0.1418 0.47095 0.0
C13 C 0.45547 0.1688 0.32682 0.0
C14 C 0.32298 0.57421 0.71465 0.0
C15 C 0.40305 0.50735 0.68142 0.0
O16 O 0.35577 0.58782 0.69002 0.0
Zn17 Zn 0.36029 0.53929 0.69422 0.0
O18 O 0.30562 0.53764 0.73231 0.0
Zn19 Zn 0.31752 0.48625 0.73256 0.0
O20 O 0.32393 0.48221 0.80036 0.0
O21 O 0.373 0.54055 0.7685 0.0
O22 O 0.3709 0.48373 0.70624 0.0
O23 O 0.40791 0.54123 0.66528 0.0
O24 O 0.30722 0.49719 0.65396 0.0
O25 O 0.26866 0.44323 0.69933 0.0
C26 C 0.35682 0.5173 0.80463 0.0
C27 C 0.27445 0.46206 0.66019 0.0
C28 C 0.82722 0.36349 0.1369 0.0
C29 C 0.80022 0.28101 0.99263 0.0
O30 O 0.82975 0.33076 0.13262 0.0
Zn31 Zn 0.81906 0.32419 1.06488 0.0
O32 O 0.8198 0.37948 0.10081 0.0
Zn33 Zn 0.80816 0.36662 1.02656 0.0
O34 O 0.7549 0.36177 1.02266 0.0
O35 O 0.75562 0.31196 1.06498 0.0
O36 O 0.79747 0.3136 0.98638 0.0
O37 O 0.81356 0.27545 1.0317 0.0
O38 O 0.87457 0.37768 1.03839 0.0
O39 O 0.8535 0.4143 0.99745 0.0
C40 C 0.73608 0.32907 1.04743 0.0
C41 C 0.88274 0.4097 1.01354 0.0
C42 C 0.45138 0.83299 0.47091 0.0
C43 C 0.50687 0.80621 0.32642 0.0
O44 O 0.48665 0.83549 0.46659 0.0
Zn45 Zn 0.48253 0.82496 0.3988 0.0
O46 O 0.42797 0.82567 0.43483 0.0
Zn47 Zn 0.42917 0.81416 0.36056 0.0
O48 O 0.38087 0.761 0.35658 0.0
O49 O 0.43146 0.76159 0.39879 0.0
O50 O 0.47151 0.8035 0.32026 0.0
O51 O 0.5258 0.81948 0.36549 0.0
O52 O 0.48434 0.88048 0.37255 0.0
O53 O 0.42665 0.85949 0.33162 0.0
C54 C 0.39482 0.74213 0.38124 0.0
C55 C 0.46041 0.88868 0.34779 0.0
C56 C 0.68777 0.51209 0.6603 0.0
C57 C 0.60571 0.45771 0.80504 0.0
O58 O 0.69362 0.53116 0.69929 0.0
Zn59 Zn 0.64483 0.48835 0.73279 0.0
O60 O 0.65501 0.47691 0.65429 0.0
Zn61 Zn 0.60201 0.43507 0.69479 0.0
O62 O 0.55432 0.43292 0.6658 0.0
O63 O 0.59137 0.49067 0.70638 0.0
O64 O 0.58947 0.43424 0.76906 0.0
O65 O 0.63856 0.49279 0.80056 0.0
O66 O 0.65672 0.43695 0.73305 0.0
O67 O 0.60651 0.38652 0.69103 0.0
C68 C 0.55917 0.46688 0.68169 0.0
C69 C 0.63932 0.40027 0.71568 0.0
C70 C 0.13564 0.61137 0.13693 0.0
C71 C 0.16261 0.69404 0.99287 0.0
O72 O 0.13342 0.64428 0.13285 0.0
Zn73 Zn 0.14366 0.65075 1.06502 0.0
O74 O 0.14257 0.59518 0.10067 0.0
Zn75 Zn 0.1538 0.60797 1.02636 0.0
O76 O 0.20677 0.61219 1.02192 0.0
O77 O 0.20685 0.66229 1.06454 0.0
O78 O 0.1649 0.66122 0.98641 0.0
O79 O 0.1496 0.69977 1.03209 0.0
O80 O 0.08769 0.59766 1.0387 0.0
O81 O 0.10802 0.5606 0.99739 0.0
C82 C 0.22599 0.64486 1.0467 0.0
C83 C 0.07908 0.56557 1.01371 0.0
C84 C 0.73667 0.40009 0.42686 0.0
C85 C 0.8835 0.46748 0.46026 0.0
O86 O 0.75597 0.38657 0.45147 0.0
Zn87 Zn 0.80879 0.43533 0.44755 0.0
O88 O 0.75568 0.43676 0.40945 0.0
Zn89 Zn 0.81878 0.48843 0.40954 0.0
O90 O 0.82923 0.49284 0.34173 0.0
O91 O 0.82029 0.43446 0.3732 0.0
O92 O 0.87482 0.49111 0.43563 0.0
O93 O 0.8546 0.43352 0.47632 0.0
O94 O 0.79738 0.47702 0.48812 0.0
O95 O 0.81256 0.53112 0.44307 0.0
C96 C 0.82722 0.45784 0.33722 0.0
C97 C 0.79953 0.51211 0.4821 0.0
C98 C 0.32294 0.74243 0.76057 0.0
C99 C 0.40336 0.88903 0.79396 0.0
O100 O 0.35576 0.76141 0.78519 0.0
Zn101 Zn 0.36033 0.81447 0.78123 0.0
O102 O 0.30559 0.76178 0.74307 0.0
Zn103 Zn 0.3176 0.82508 0.74308 0.0
O104 O 0.32384 0.83554 0.67528 0.0
O105 O 0.37288 0.82592 0.70693 0.0
O106 O 0.37118 0.88072 0.76925 0.0
O107 O 0.40809 0.85991 0.8101 0.0
O108 O 0.30732 0.80363 0.82162 0.0
O109 O 0.26884 0.81945 0.77649 0.0
C110 C 0.35667 0.83313 0.67089 0.0
C111 C 0.2746 0.80621 0.81552 0.0
C112 C 0.51122 0.36336 1.0052 0.0
C113 C 0.45571 0.28089 0.14941 0.0
O114 O 0.47599 0.33064 1.00942 0.0
Zn115 Zn 0.48006 0.32406 0.07718 0.0
O116 O 0.53458 0.37934 1.04132 0.0
Zn117 Zn 0.53332 0.36646 0.11556 0.0
O118 O 0.58171 0.3616 0.11954 0.0
O119 O 0.53126 0.31179 0.07713 0.0
O120 O 0.49101 0.31347 0.15568 0.0
O121 O 0.43684 0.27532 0.11031 0.0
O122 O 0.47798 0.37756 0.1037 0.0
O123 O 0.53561 0.41414 0.14471 0.0
C124 C 0.56789 0.3289 0.09473 0.0
C125 C 0.5018 0.40957 0.12859 0.0
C126 C 0.13623 0.51714 0.33713 0.0
C127 C 0.16306 0.46209 0.48191 0.0
O128 O 0.13393 0.482 0.34155 0.0
Zn129 Zn 0.14431 0.4862 0.40938 0.0
O130 O 0.14332 0.54051 0.37317 0.0
Zn131 Zn 0.15469 0.53941 0.44751 0.0
O132 O 0.20775 0.58784 0.45166 0.0
O133 O 0.20762 0.53745 0.4096 0.0
O134 O 0.16552 0.49731 0.48799 0.0
O135 O 0.15001 0.44317 0.44281 0.0
O136 O 0.08849 0.48397 0.4355 0.0
O137 O 0.10908 0.54162 0.47626 0.0
C138 C 0.22688 0.57406 0.42715 0.0
C139 C 0.08003 0.50775 0.46017 0.0
C140 C 0.68841 0.16858 0.81531 0.0
C141 C 0.60605 0.14178 0.67094 0.0
O142 O 0.69425 0.15562 0.77612 0.0
Zn143 Zn 0.64525 0.14971 0.74301 0.0
O144 O 0.65551 0.17081 0.82166 0.0
Zn145 Zn 0.60229 0.1597 0.7815 0.0
O146 O 0.5548 0.11392 0.81024 0.0
O147 O 0.592 0.0937 0.769 0.0
O148 O 0.58972 0.14861 0.70715 0.0
O149 O 0.63903 0.13962 0.67514 0.0
O150 O 0.65676 0.21284 0.74366 0.0
O151 O 0.60641 0.21255 0.78606 0.0
C152 C 0.5598 0.08504 0.79386 0.0
C153 C 0.63921 0.23186 0.76149 0.0
C154 C 0.45185 0.61175 1.00464 0.0
C155 C 0.50708 0.69443 0.14882 0.0
O156 O 0.487 0.64457 1.00885 0.0
Zn157 Zn 0.48293 0.65114 0.07662 0.0
O158 O 0.42857 0.59567 1.04078 0.0
Zn159 Zn 0.42983 0.60855 0.11504 0.0
O160 O 0.3812 0.61298 0.11903 0.0
O161 O 0.4314 0.66291 0.07653 0.0
O162 O 0.47191 0.66171 0.15513 0.0
O163 O 0.52595 0.70008 0.10971 0.0
O164 O 0.48546 0.5979 0.10318 0.0
O165 O 0.42791 0.56108 0.14421 0.0
C166 C 0.39477 0.64559 0.09413 0.0
C167 C 0.46181 0.56587 0.12812 0.0
C168 C 0.54431 0.13633 0.55111 0.0
C169 C 0.52678 0.13837 0.51617 0.0
C170 C 0.56754 0.13632 0.59071 0.0
C171 C 0.58707 0.13834 0.62568 0.0
C172 C 0.39553 0.55006 0.88484 0.0
C173 C 0.37591 0.53267 0.84988 0.0
C174 C 0.41882 0.57319 0.92444 0.0
C175 C 0.43634 0.59273 0.95938 0.0
C176 C 0.833 0.42529 0.25677 0.0
C177 C 0.83085 0.44262 0.29182 0.0
C178 C 0.83301 0.40214 0.21711 0.0
C179 C 0.83088 0.38257 0.18214 0.0
C180 C 0.41847 0.83878 0.55109 0.0
C181 C 0.43597 0.83665 0.51616 0.0
C182 C 0.39521 0.83881 0.59064 0.0
C183 C 0.37563 0.83673 0.62559 0.0
C184 C 0.5441 0.40202 0.92503 0.0
C185 C 0.52665 0.38245 0.95998 0.0
C186 C 0.56728 0.42517 0.88541 0.0
C187 C 0.5868 0.44251 0.85039 0.0
C188 C 0.13042 0.54977 0.25676 0.0
C189 C 0.13258 0.53242 0.29179 0.0
C190 C 0.13029 0.57286 0.21711 0.0
C191 C 0.13226 0.59236 0.18215 0.0
C192 C 0.6591 0.3463 0.40779 0.0
C193 C 0.6943 0.37281 0.41493 0.0
C194 C 0.62213 0.30929 0.39873 0.0
C195 C 0.59563 0.27406 0.39188 0.0
C196 C 0.29855 0.6647 0.74189 0.0
C197 C 0.30745 0.69999 0.7488 0.0
C198 C 0.29859 0.62768 0.73305 0.0
C199 C 0.30754 0.60129 0.72625 0.0
C200 C 0.62122 0.30443 0.07567 0.0
C201 C 0.59485 0.31339 0.08275 0.0
C202 C 0.65828 0.30449 1.0665 0.0
C203 C 0.69362 0.31353 1.0594 0.0
C204 C 0.34172 0.66438 0.39993 0.0
C205 C 0.368 0.69968 0.39303 0.0
C206 C 0.30471 0.62736 0.40876 0.0
C207 C 0.26939 0.60101 0.41555 0.0
C208 C 0.66351 0.34675 0.73465 0.0
C209 C 0.65472 0.37322 0.72762 0.0
C210 C 0.66339 0.30966 0.74349 0.0
C211 C 0.65447 0.27434 0.75016 0.0
C212 C 0.30378 0.66904 1.06541 0.0
C213 C 0.26845 0.66003 1.05838 0.0
C214 C 0.34094 0.66932 0.07469 0.0
C215 C 0.3675 0.66068 0.08196 0.0
C216 C 0.48327 0.00711 0.33945 0.0
C217 C 0.49062 0.04245 0.34359 0.0
C218 C 0.47616 0.96603 0.33933 0.0
C219 C 0.46915 0.93079 0.34331 0.0
C220 C 0.46414 0.49072 0.67269 0.0
C221 C 0.43612 0.4981 0.67682 0.0
C222 C 0.49801 0.48337 0.67274 0.0
C223 C 0.52606 0.47606 0.67697 0.0
C224 C 0.96021 0.47099 1.00477 0.0
C225 C 0.92491 0.44293 1.00888 0.0
C226 C 0.00137 0.5048 1.00485 0.0
C227 C 0.03674 0.5327 1.00907 0.0
C228 C 0.00242 0.49143 0.4688 0.0
C229 C 0.03776 0.49866 0.46471 0.0
C230 C 0.96124 0.48417 0.46881 0.0
C231 C 0.92585 0.47682 0.46473 0.0
C232 C 0.49877 0.00747 0.80234 0.0
C233 C 0.52682 0.04276 0.79825 0.0
C234 C 0.4648 0.96642 0.8024 0.0
C235 C 0.43662 0.93118 0.7984 0.0
C236 C 0.47838 0.50482 0.13723 0.0
C237 C 0.47105 0.53283 0.13291 0.0
C238 C 0.48564 0.47092 0.13737 0.0
C239 C 0.49285 0.44282 0.13325 0.0
C240 C 0.43411 0.20242 0.25787 0.0
C241 C 0.44076 0.18621 0.29127 0.0
C242 C 0.43414 0.22604 0.21841 0.0
C243 C 0.44084 0.24886 0.185 0.0
C244 C 0.19629 0.44072 0.5513 0.0
C245 C 0.18023 0.44736 0.51773 0.0
C246 C 0.21976 0.4407 0.59093 0.0
C247 C 0.24249 0.44732 0.62446 0.0
C248 C 0.76691 0.22604 0.92368 0.0
C249 C 0.78304 0.24894 0.95705 0.0
C250 C 0.74333 0.20231 0.88427 0.0
C251 C 0.7205 0.18603 0.85087 0.0
C252 C 0.52845 0.74931 0.21782 0.0
C253 C 0.52182 0.72648 0.18441 0.0
C254 C 0.52843 0.7729 0.25731 0.0
C255 C 0.52174 0.78903 0.29076 0.0
C256 C 0.7424 0.53317 0.591 0.0
C257 C 0.71967 0.52665 0.62451 0.0
C258 C 0.76593 0.53314 0.55144 0.0
C259 C 0.78212 0.52659 0.51793 0.0
C260 C 0.19617 0.74903 0.92401 0.0
C261 C 0.17998 0.72614 0.95736 0.0
C262 C 0.21978 0.7727 0.8846 0.0
C263 C 0.24258 0.78891 0.85117 0.0
loop_
_geom_bond_atom_site_label_1
_geom_bond_atom_site_label_2
_geom_bond_distance
_geom_bond_site_symmetry_2
_ccdc_geom_bond_type
C0 O2 1.247 . S
C0 O4 1.258 . S
C1 O8 1.247 . S
C1 O9 1.258 . S
O2 C0 1.247 . S
O2 Zn3 2.028 . S
Zn3 O2 2.028 . S
Zn3 O7 2.035 . S
Zn3 O9 2.035 . S
Zn3 O10 2.028 . S
O4 C0 1.258 . S
O4 Zn5 2.035 . S
Zn5 O4 2.035 . S
Zn5 O6 2.028 . S
Zn5 O8 2.028 . S
Zn5 O11 2.035 . S
O6 Zn5 2.028 . S
O6 C12 1.247 . S
O7 Zn3 2.035 . S
O7 C12 1.258 . S
O8 C1 1.247 . S
O8 Zn5 2.028 . S
O9 C1 1.258 . S
O9 Zn3 2.035 . S
O10 Zn3 2.028 . S
O10 C13 1.247 . S
O11 Zn5 2.035 . S
O11 C13 1.258 . S
C12 O6 1.247 . S
C12 O7 1.258 . S
C13 O10 1.247 . S
C13 O11 1.258 . S
C14 O16 1.247 . S
C14 O18 1.258 . S
C15 O22 1.247 . S
C15 O23 1.258 . S
O16 C14 1.247 . S
O16 Zn17 2.028 . S
Zn17 O16 2.028 . S
Zn17 O21 2.035 . S
Zn17 O23 2.035 . S
Zn17 O24 2.028 . S
O18 C14 1.258 . S
O18 Zn19 2.035 . S
Zn19 O18 2.035 . S
Zn19 O20 2.028 . S
Zn19 O22 2.028 . S
Zn19 O25 2.035 . S
O20 Zn19 2.028 . S
O20 C26 1.247 . S
O21 Zn17 2.035 . S
O21 C26 1.258 . S
O22 C15 1.247 . S
O22 Zn19 2.028 . S
O23 C15 1.258 . S
O23 Zn17 2.035 . S
O24 Zn17 2.028 . S
O24 C27 1.247 . S
O25 Zn19 2.035 . S
O25 C27 1.258 . S
C26 O20 1.247 . S
C26 O21 1.258 . S
C27 O24 1.247 . S
C27 O25 1.258 . S
C28 O30 1.247 . S
C28 O32 1.258 . S
C29 O36 1.247 . S
C29 O37 1.258 . S
O30 C28 1.247 . S
O30 Zn31 2.028 . S
Zn31 O30 2.028 . S
Zn31 O35 2.035 . S
Zn31 O37 2.035 1_554 S
Zn31 O38 2.028 . S
O32 C28 1.258 . S
O32 Zn33 2.035 1_554 S
Zn33 O32 2.035 1_556 S
Zn33 O34 2.028 . S
Zn33 O36 2.028 . S
Zn33 O39 2.035 . S
O34 Zn33 2.028 . S
O34 C40 1.247 1_556 S
O35 Zn31 2.035 . S
O35 C40 1.258 . S
O36 C29 1.247 . S
O36 Zn33 2.028 . S
O37 C29 1.258 . S
O37 Zn31 2.035 1_556 S
O38 Zn31 2.028 . S
O38 C41 1.247 1_554 S
O39 Zn33 2.035 . S
O39 C41 1.258 . S
C40 O34 1.247 1_554 S
C40 O35 1.258 . S
C41 O38 1.247 1_556 S
C41 O39 1.258 . S
C42 O44 1.247 . S
C42 O46 1.258 . S
C43 O50 1.247 . S
C43 O51 1.258 . S
O44 C42 1.247 . S
O44 Zn45 2.028 . S
Zn45 O44 2.028 . S
Zn45 O49 2.035 . S
Zn45 O51 2.035 . S
Zn45 O52 2.028 . S
O46 C42 1.258 . S
O46 Zn47 2.035 . S
Zn47 O46 2.035 . S
Zn47 O48 2.028 . S
Zn47 O50 2.028 . S
Zn47 O53 2.035 . S
O48 Zn47 2.028 . S
O48 C54 1.247 . S
O49 Zn45 2.035 . S
O49 C54 1.258 . S
O50 C43 1.247 . S
O50 Zn47 2.028 . S
O51 C43 1.258 . S
O51 Zn45 2.035 . S
O52 Zn45 2.028 . S
O52 C55 1.247 . S
O53 Zn47 2.035 . S
O53 C55 1.258 . S
C54 O48 1.247 . S
C54 O49 1.258 . S
C55 O52 1.247 . S
C55 O53 1.258 . S
C56 O58 1.247 . S
C56 O60 1.258 . S
C57 O64 1.247 . S
C57 O65 1.258 . S
O58 C56 1.247 . S
O58 Zn59 2.028 . S
Zn59 O58 2.028 . S
Zn59 O63 2.035 . S
Zn59 O65 2.035 . S
Zn59 O66 2.028 . S
O60 C56 1.258 . S
O60 Zn61 2.035 . S
Zn61 O60 2.035 . S
Zn61 O62 2.028 . S
Zn61 O64 2.028 . S
Zn61 O67 2.035 . S
O62 Zn61 2.028 . S
O62 C68 1.247 . S
O63 Zn59 2.035 . S
O63 C68 1.258 . S
O64 C57 1.247 . S
O64 Zn61 2.028 . S
O65 C57 1.258 . S
O65 Zn59 2.035 . S
O66 Zn59 2.028 . S
O66 C69 1.247 . S
O67 Zn61 2.035 . S
O67 C69 1.258 . S
C68 O62 1.247 . S
C68 O63 1.258 . S
C69 O66 1.247 . S
C69 O67 1.258 . S
C70 O72 1.247 . S
C70 O74 1.258 . S
C71 O78 1.247 . S
C71 O79 1.258 . S
O72 C70 1.247 . S
O72 Zn73 2.028 . S
Zn73 O72 2.028 . S
Zn73 O77 2.035 . S
Zn73 O79 2.035 1_554 S
Zn73 O80 2.028 . S
O74 C70 1.258 . S
O74 Zn75 2.035 1_554 S
Zn75 O74 2.035 1_556 S
Zn75 O76 2.028 . S
Zn75 O78 2.028 . S
Zn75 O81 2.035 . S
O76 Zn75 2.028 . S
O76 C82 1.247 1_556 S
O77 Zn73 2.035 . S
O77 C82 1.258 . S
O78 C71 1.247 . S
O78 Zn75 2.028 . S
O79 C71 1.258 . S
O79 Zn73 2.035 1_556 S
O80 Zn73 2.028 . S
O80 C83 1.247 1_554 S
O81 Zn75 2.035 . S
O81 C83 1.258 . S
C82 O76 1.247 1_554 S
C82 O77 1.258 . S
C83 O80 1.247 1_556 S
C83 O81 1.258 . S
C84 O86 1.247 . S
C84 O88 1.258 . S
C85 O92 1.247 . S
C85 O93 1.258 . S
O86 C84 1.247 . S
O86 Zn87 2.028 . S
Zn87 O86 2.028 . S
Zn87 O91 2.035 . S
Zn87 O93 2.035 . S
Zn87 O94 2.028 . S
O88 C84 1.258 . S
O88 Zn89 2.035 . S
Zn89 O88 2.035 . S
Zn89 O90 2.028 . S
Zn89 O92 2.028 . S
Zn89 O95 2.035 . S
O90 Zn89 2.028 . S
O90 C96 1.247 . S
O91 Zn87 2.035 . S
O91 C96 1.258 . S
O92 C85 1.247 . S
O92 Zn89 2.028 . S
O93 C85 1.258 . S
O93 Zn87 2.035 . S
O94 Zn87 2.028 . S
O94 C97 1.247 . S
O95 Zn89 2.035 . S
O95 C97 1.258 . S
C96 O90 1.247 . S
C96 O91 1.258 . S
C97 O94 1.247 . S
C97 O95 1.258 . S
C98 O100 1.247 . S
C98 O102 1.258 . S
C99 O106 1.247 . S
C99 O107 1.258 . S
O100 C98 1.247 . S
O100 Zn101 2.028 . S
Zn101 O100 2.028 . S
Zn101 O105 2.035 . S
Zn101 O107 2.035 . S
Zn101 O108 2.028 . S
O102 C98 1.258 . S
O102 Zn103 2.035 . S
Zn103 O102 2.035 . S
Zn103 O104 2.028 . S
Zn103 O106 2.028 . S
Zn103 O109 2.035 . S
O104 Zn103 2.028 . S
O104 C110 1.247 . S
O105 Zn101 2.035 . S
O105 C110 1.258 . S
O106 C99 1.247 . S
O106 Zn103 2.028 . S
O107 C99 1.258 . S
O107 Zn101 2.035 . S
O108 Zn101 2.028 . S
O108 C111 1.247 . S
O109 Zn103 2.035 . S
O109 C111 1.258 . S
C110 O104 1.247 . S
C110 O105 1.258 . S
C111 O108 1.247 . S
C111 O109 1.258 . S
C112 O114 1.247 . S
C112 O116 1.258 . S
C113 O120 1.247 . S
C113 O121 1.258 . S
O114 C112 1.247 . S
O114 Zn115 2.028 . S
Zn115 O114 2.028 . S
Zn115 O119 2.035 . S
Zn115 O121 2.035 1_556 S
Zn115 O122 2.028 . S
O116 C112 1.258 . S
O116 Zn117 2.035 1_556 S
Zn117 O116 2.035 1_554 S
Zn117 O118 2.028 . S
Zn117 O120 2.028 . S
Zn117 O123 2.035 . S
O118 Zn117 2.028 . S
O118 C124 1.247 1_554 S
O119 Zn115 2.035 . S
O119 C124 1.258 . S
O120 C113 1.247 . S
O120 Zn117 2.028 . S
O121 C113 1.258 . S
O121 Zn115 2.035 1_554 S
O122 Zn115 2.028 . S
O122 C125 1.247 1_556 S
O123 Zn117 2.035 . S
O123 C125 1.258 . S
C124 O118 1.247 1_556 S
C124 O119 1.258 . S
C125 O122 1.247 1_554 S
C125 O123 1.258 . S
C126 O128 1.247 . S
C126 O130 1.258 . S
C127 O134 1.247 . S
C127 O135 1.258 . S
O128 C126 1.247 . S
O128 Zn129 2.028 . S
Zn129 O128 2.028 . S
Zn129 O133 2.035 . S
Zn129 O135 2.035 . S
Zn129 O136 2.028 . S
O130 C126 1.258 . S
O130 Zn131 2.035 . S
Zn131 O130 2.035 . S
Zn131 O132 2.028 . S
Zn131 O134 2.028 . S
Zn131 O137 2.035 . S
O132 Zn131 2.028 . S
O132 C138 1.247 . S
O133 Zn129 2.035 . S
O133 C138 1.258 . S
O134 C127 1.247 . S
O134 Zn131 2.028 . S
O135 C127 1.258 . S
O135 Zn129 2.035 . S
O136 Zn129 2.028 . S
O136 C139 1.247 . S
O137 Zn131 2.035 . S
O137 C139 1.258 . S
C138 O132 1.247 . S
C138 O133 1.258 . S
C139 O136 1.247 . S
C139 O137 1.258 . S
C140 O142 1.247 . S
C140 O144 1.258 . S
C141 O148 1.247 . S
C141 O149 1.258 . S
O142 C140 1.247 . S
O142 Zn143 2.028 . S
Zn143 O142 2.028 . S
Zn143 O147 2.035 . S
Zn143 O149 2.035 . S
Zn143 O150 2.028 . S
O144 C140 1.258 . S
O144 Zn145 2.035 . S
Zn145 O144 2.035 . S
Zn145 O146 2.028 . S
Zn145 O148 2.028 . S
Zn145 O151 2.035 . S
O146 Zn145 2.028 . S
O146 C152 1.247 . S
O147 Zn143 2.035 . S
O147 C152 1.258 . S
O148 C141 1.247 . S
O148 Zn145 2.028 . S
O149 C141 1.258 . S
O149 Zn143 2.035 . S
O150 Zn143 2.028 . S
O150 C153 1.247 . S
O151 Zn145 2.035 . S
O151 C153 1.258 . S
C152 O146 1.247 . S
C152 O147 1.258 . S
C153 O150 1.247 . S
C153 O151 1.258 . S
C154 O156 1.247 . S
C154 O158 1.258 . S
C155 O162 1.247 . S
C155 O163 1.258 . S
O156 C154 1.247 . S
O156 Zn157 2.028 . S
Zn157 O156 2.028 . S
Zn157 O161 2.035 . S
Zn157 O163 2.035 1_556 S
Zn157 O164 2.028 . S
O158 C154 1.258 . S
O158 Zn159 2.035 1_556 S
Zn159 O158 2.035 1_554 S
Zn159 O160 2.028 . S
Zn159 O162 2.028 . S
Zn159 O165 2.035 . S
O160 Zn159 2.028 . S
O160 C166 1.247 1_554 S
O161 Zn157 2.035 . S
O161 C166 1.258 . S
O162 C155 1.247 . S
O162 Zn159 2.028 . S
O163 C155 1.258 . S
O163 Zn157 2.035 1_554 S
O164 Zn157 2.028 . S
O164 C167 1.247 1_556 S
O165 Zn159 2.035 . S
O165 C167 1.258 . S
C166 O160 1.247 1_556 S
C166 O161 1.258 . S
C167 O164 1.247 1_554 S
C167 O165 1.258 . S
C168 C169 1.170 . S
C168 C170 1.380 . S
C169 C168 1.170 . S
C170 C168 1.380 . S
C170 C171 1.170 . S
C171 C170 1.170 . S
C172 C173 1.170 . S
C172 C174 1.380 . S
C173 C172 1.170 . S
C174 C172 1.380 . S
C174 C175 1.170 . S
C175 C174 1.170 . S
C176 C177 1.170 . S
C176 C178 1.380 . S
C177 C176 1.170 . S
C178 C176 1.380 . S
C178 C179 1.170 . S
C179 C178 1.170 . S
C180 C181 1.170 . S
C180 C182 1.380 . S
C181 C180 1.170 . S
C182 C180 1.380 . S
C182 C183 1.170 . S
C183 C182 1.170 . S
C184 C185 1.170 . S
C184 C186 1.380 . S
C185 C184 1.170 . S
C186 C184 1.380 . S
C186 C187 1.170 . S
C187 C186 1.170 . S
C188 C189 1.170 . S
C188 C190 1.380 . S
C189 C188 1.170 . S
C190 C188 1.380 . S
C190 C191 1.170 . S
C191 C190 1.170 . S
C192 C193 1.170 . S
C192 C194 1.380 . S
C193 C192 1.170 . S
C194 C192 1.380 . S
C194 C195 1.170 . S
C195 C194 1.170 . S
C196 C197 1.170 . S
C196 C198 1.380 . S
C197 C196 1.170 . S
C198 C196 1.380 . S
C198 C199 1.170 . S
C199 C198 1.170 . S
C200 C201 1.169 1_554 S
C200 C202 1.380 . S
C201 C200 1.169 1_556 S
C202 C200 1.380 . S
C202 C203 1.170 . S
C203 C202 1.170 . S
C204 C205 1.170 . S
C204 C206 1.380 . S
C205 C204 1.170 . S
C206 C204 1.380 . S
C206 C207 1.170 . S
C207 C206 1.170 . S
C208 C209 1.170 . S
C208 C210 1.380 . S
C209 C208 1.170 . S
C210 C208 1.380 . S
C210 C211 1.170 . S
C211 C210 1.170 . S
C212 C213 1.170 . S
C212 C214 1.380 . S
C213 C212 1.170 . S
C214 C212 1.380 . S
C214 C215 1.170 . S
C215 C214 1.170 . S
C216 C217 1.170 . S
C216 C218 1.380 1_545 S
C217 C216 1.170 . S
C218 C216 1.380 1_565 S
C218 C219 1.170 . S
C219 C218 1.170 . S
C220 C221 1.170 . S
C220 C222 1.380 . S
C221 C220 1.170 . S
C222 C220 1.380 . S
C222 C223 1.170 . S
C223 C222 1.170 . S
C224 C225 1.170 . S
C224 C226 1.380 1_655 S
C225 C224 1.170 . S
C226 C224 1.380 1_455 S
C226 C227 1.171 . S
C227 C226 1.171 . S
C228 C229 1.170 . S
C228 C230 1.380 1_455 S
C229 C228 1.170 . S
C230 C228 1.380 1_655 S
C230 C231 1.170 . S
C231 C230 1.170 . S
C232 C233 1.170 . S
C232 C234 1.380 1_545 S
C233 C232 1.170 . S
C234 C232 1.380 1_565 S
C234 C235 1.170 . S
C235 C234 1.170 . S
C236 C237 1.170 . S
C236 C238 1.380 . S
C237 C236 1.170 . S
C238 C236 1.380 . S
C238 C239 1.170 . S
C239 C238 1.170 . S
C240 C241 1.170 . S
C240 C242 1.380 . S
C241 C240 1.170 . S
C242 C240 1.380 . S
C242 C243 1.170 . S
C243 C242 1.170 . S
C244 C245 1.170 . S
C244 C246 1.380 . S
C245 C244 1.170 . S
C246 C244 1.380 . S
C246 C247 1.170 . S
C247 C246 1.170 . S
C248 C249 1.170 . S
C248 C250 1.380 . S
C249 C248 1.170 . S
C250 C248 1.380 . S
C250 C251 1.170 . S
C251 C250 1.170 . S
C252 C253 1.170 . S
C252 C254 1.380 . S
C253 C252 1.170 . S
C254 C252 1.380 . S
C254 C255 1.170 . S
C255 C254 1.170 . S
C256 C257 1.170 . S
C256 C258 1.380 . S
C257 C256 1.170 . S
C258 C256 1.380 . S
C258 C259 1.170 . S
C259 C258 1.170 . S
C260 C261 1.170 . S
C260 C262 1.380 . S
C261 C260 1.170 . S
C262 C260 1.380 . S
C262 C263 1.170 . S
C263 C262 1.170 . S
C169 C12 1.498 . S
C171 C141 1.491 . S
C173 C26 1.516 . S
C175 C154 1.522 . S
C177 C96 1.536 . S
C179 C28 1.519 . S
C181 C42 1.490 . S
C183 C110 1.501 . S
C185 C112 1.532 . S
C187 C57 1.534 . S
C189 C126 1.533 . S
C191 C70 1.516 . S
C193 C84 1.230 . S
C195 C0 1.241 . S
C197 C98 1.263 . S
C199 C14 1.268 . S
C201 C124 1.266 . S
C203 C40 1.253 . S
C205 C54 1.250 . S
C207 C138 1.262 . S
C209 C69 1.250 . S
C211 C153 1.263 . S
C213 C82 1.253 1_556 S
C215 C166 1.239 . S
C217 C1 2.279 . S
C219 C55 2.247 . S
C221 C15 2.259 . S
C223 C68 2.253 . S
C225 C41 2.253 . S
C227 C83 2.282 . S
C229 C139 2.251 . S
C231 C85 2.285 . S
C233 C152 2.271 . S
C235 C99 2.269 . S
C237 C167 2.264 . S
C239 C125 2.250 . S
C241 C13 1.868 . S
C243 C113 1.877 . S
C245 C127 1.896 . S
C247 C27 1.893 . S
C249 C29 1.878 . S
C251 C140 1.862 . S
C253 C155 1.871 . S
C255 C43 1.874 . S
C257 C56 1.885 . S
C259 C97 1.899 . S
C261 C71 1.867 . S
C263 C111 1.872 . S
