# Generated by pormake.
# Topology tzs, (4)-cn, num edge types: 1
# Building blocks:
#     Node 0, Type 0, BuildingBlock: QUQFOY_clean_sbu_3, # of connection points: 4
#     Node 1, Type 0, BuildingBlock: QUQFOY_clean_sbu_3, # of connection points: 4
#     Node 2, Type 0, BuildingBlock: QUQFOY_clean_sbu_3, # of connection points: 4
#     Node 3, Type 0, BuildingBlock: QUQFOY_clean_sbu_3, # of connection points: 4
#     Node 4, Type 0, BuildingBlock: QUQFOY_clean_sbu_3, # of connection points: 4
#     Node 5, Type 0, BuildingBlock: QUQFOY_clean_sbu_3, # of connection points: 4
#     Node 6, Type 0, BuildingBlock: QUQFOY_clean_sbu_3, # of connection points: 4
#     Node 7, Type 0, BuildingBlock: QUQFOY_clean_sbu_3, # of connection points: 4
#     Node 8, Type 0, BuildingBlock: QUQFOY_clean_sbu_3, # of connection points: 4
#     Node 9, Type 0, BuildingBlock: QUQFOY_clean_sbu_3, # of connection points: 4
#     Node 10, Type 0, BuildingBlock: QUQFOY_clean_sbu_3, # of connection points: 4
#     Node 11, Type 0, BuildingBlock: QUQFOY_clean_sbu_3, # of connection points: 4
#     Node 12, Type 0, BuildingBlock: QUQFOY_clean_sbu_3, # of connection points: 4
#     Node 13, Type 0, BuildingBlock: QUQFOY_clean_sbu_3, # of connection points: 4
#     Node 14, Type 0, BuildingBlock: QUQFOY_clean_sbu_3, # of connection points: 4
#     Node 15, Type 0, BuildingBlock: QUQFOY_clean_sbu_3, # of connection points: 4
#     Edge 16, Type (0, 0), BuildingBlock: ZUJKAS_clean_linker_0, # of connection points: 2
#     Edge 17, Type (0, 0), BuildingBlock: ZUJKAS_clean_linker_0, # of connection points: 2
#     Edge 18, Type (0, 0), BuildingBlock: ZUJKAS_clean_linker_0, # of connection points: 2
#     Edge 19, Type (0, 0), BuildingBlock: ZUJKAS_clean_linker_0, # of connection points: 2
#     Edge 20, Type (0, 0), BuildingBlock: ZUJKAS_clean_linker_0, # of connection points: 2
#     Edge 21, Type (0, 0), BuildingBlock: ZUJKAS_clean_linker_0, # of connection points: 2
#     Edge 22, Type (0, 0), BuildingBlock: ZUJKAS_clean_linker_0, # of connection points: 2
#     Edge 23, Type (0, 0), BuildingBlock: ZUJKAS_clean_linker_0, # of connection points: 2
#     Edge 24, Type (0, 0), BuildingBlock: ZUJKAS_clean_linker_0, # of connection points: 2
#     Edge 25, Type (0, 0), BuildingBlock: ZUJKAS_clean_linker_0, # of connection points: 2
#     Edge 26, Type (0, 0), BuildingBlock: ZUJKAS_clean_linker_0, # of connection points: 2
#     Edge 27, Type (0, 0), BuildingBlock: ZUJKAS_clean_linker_0, # of connection points: 2
#     Edge 28, Type (0, 0), BuildingBlock: ZUJKAS_clean_linker_0, # of connection points: 2
#     Edge 29, Type (0, 0), BuildingBlock: ZUJKAS_clean_linker_0, # of connection points: 2
#     Edge 30, Type (0, 0), BuildingBlock: ZUJKAS_clean_linker_0, # of connection points: 2
#     Edge 31, Type (0, 0), BuildingBlock: ZUJKAS_clean_linker_0, # of connection points: 2
#     Edge 32, Type (0, 0), BuildingBlock: ZUJKAS_clean_linker_0, # of connection points: 2
#     Edge 33, Type (0, 0), BuildingBlock: ZUJKAS_clean_linker_0, # of connection points: 2
#     Edge 34, Type (0, 0), BuildingBlock: ZUJKAS_clean_linker_0, # of connection points: 2
#     Edge 35, Type (0, 0), BuildingBlock: ZUJKAS_clean_linker_0, # of connection points: 2
#     Edge 36, Type (0, 0), BuildingBlock: ZUJKAS_clean_linker_0, # of connection points: 2
#     Edge 37, Type (0, 0), BuildingBlock: ZUJKAS_clean_linker_0, # of connection points: 2
#     Edge 38, Type (0, 0), BuildingBlock: ZUJKAS_clean_linker_0, # of connection points: 2
#     Edge 39, Type (0, 0), BuildingBlock: ZUJKAS_clean_linker_0, # of connection points: 2
#     Edge 40, Type (0, 0), BuildingBlock: ZUJKAS_clean_linker_0, # of connection points: 2
#     Edge 41, Type (0, 0), BuildingBlock: ZUJKAS_clean_linker_0, # of connection points: 2
#     Edge 42, Type (0, 0), BuildingBlock: ZUJKAS_clean_linker_0, # of connection points: 2
#     Edge 43, Type (0, 0), BuildingBlock: ZUJKAS_clean_linker_0, # of connection points: 2
#     Edge 44, Type (0, 0), BuildingBlock: ZUJKAS_clean_linker_0, # of connection points: 2
#     Edge 45, Type (0, 0), BuildingBlock: ZUJKAS_clean_linker_0, # of connection points: 2
#     Edge 46, Type (0, 0), BuildingBlock: ZUJKAS_clean_linker_0, # of connection points: 2
#     Edge 47, Type (0, 0), BuildingBlock: ZUJKAS_clean_linker_0, # of connection points: 2
# Relax obj value: 0.119
# Max RMSD: 0.119
# Mean RMSD: 0.119
data_MOF--net-tzs--node1-QUQFOY_clean_sbu_3--edge1-ZUJKAS_clean_linker_0
_symmetry_space_group_name_H-M    P1
_symmetry_Int_Tables_number       1
_symmetry_cell_setting            triclinic
loop_
_symmetry_equiv_pos_as_xyz
'x, y, z'
_cell_length_a     64.611356
_cell_length_b     64.650437
_cell_length_c     52.90188
_cell_angle_alpha  89.88635
_cell_angle_beta   89.993917
_cell_angle_gamma 90.054299
loop_
_atom_site_label
_atom_site_type_symbol
_atom_site_fract_x
_atom_site_fract_y
_atom_site_fract_z
_atom_type_partial_charge
C0 C 0.08546 0.33953 0.17309 0.0
O1 O 0.08365 0.34765 0.15134 0.0
Cd2 Cd 0.11189 0.35883 0.12624 0.0
O3 O 0.10329 0.33602 0.18259 0.0
Cd4 Cd 0.14008 0.33918 0.16827 0.0
C5 C 0.13628 0.39142 0.16806 0.0
O6 O 0.1329 0.32835 0.12553 0.0
O7 O 0.16362 0.3403 0.13137 0.0
O8 O 0.14649 0.30573 0.18816 0.0
C9 C 0.15099 0.33097 0.11705 0.0
O10 O 0.1253 0.38945 0.14823 0.0
C11 C 0.16353 0.31099 0.19821 0.0
O12 O 0.1433 0.37558 0.17948 0.0
O13 O 0.16905 0.32971 0.19546 0.0
C14 C 0.64348 0.08866 0.17289 0.0
O15 O 0.63525 0.08867 0.15109 0.0
Cd16 Cd 0.62673 0.11928 0.1283 0.0
O17 O 0.64824 0.10564 0.18373 0.0
Cd18 Cd 0.64708 0.14328 0.17349 0.0
C19 C 0.59471 0.14239 0.17167 0.0
O20 O 0.65797 0.13918 0.13021 0.0
O21 O 0.64644 0.16948 0.13933 0.0
O22 O 0.68064 0.14689 0.19413 0.0
C23 C 0.65557 0.15784 0.12366 0.0
O24 O 0.59651 0.13363 0.15024 0.0
C25 C 0.67584 0.16307 0.20633 0.0
O26 O 0.61068 0.14676 0.18469 0.0
O27 O 0.65734 0.16943 0.20416 0.0
C28 C 0.8941 0.63878 0.1675 0.0
O29 O 0.89568 0.62929 0.14659 0.0
Cd30 Cd 0.86685 0.61883 0.12169 0.0
O31 O 0.87638 0.64371 0.17625 0.0
Cd32 Cd 0.83955 0.64093 0.16271 0.0
C33 C 0.84171 0.58853 0.16522 0.0
O34 O 0.84679 0.64992 0.11935 0.0
O35 O 0.81565 0.63943 0.12618 0.0
O36 O 0.83453 0.67502 0.1814 0.0
C37 C 0.82856 0.64764 0.11115 0.0
O38 O 0.85183 0.58939 0.1446 0.0
C39 C 0.81753 0.6705 0.19212 0.0
O40 O 0.83609 0.60504 0.17631 0.0
O41 O 0.81126 0.65197 0.18998 0.0
C42 C 0.34889 0.889 0.1656 0.0
O43 O 0.36028 0.88876 0.14603 0.0
Cd44 Cd 0.36997 0.85852 0.12363 0.0
O45 O 0.34189 0.87223 0.17513 0.0
Cd46 Cd 0.3441 0.83441 0.16581 0.0
C47 C 0.39676 0.83452 0.17113 0.0
O48 O 0.33768 0.84054 0.12185 0.0
O49 O 0.34282 0.80851 0.13095 0.0
O50 O 0.30903 0.83236 0.18252 0.0
C51 C 0.33762 0.82194 0.11466 0.0
O52 O 0.39712 0.84408 0.1501 0.0
C53 C 0.31204 0.816 0.19529 0.0
O54 O 0.37963 0.82947 0.18133 0.0
O55 O 0.33032 0.80879 0.19539 0.0
C56 C 0.08454 0.63786 0.30066 0.0
O57 O 0.08387 0.6282 0.32155 0.0
Cd58 Cd 0.11358 0.61541 0.34272 0.0
O59 O 0.10185 0.64218 0.29025 0.0
Cd60 Cd 0.13943 0.63861 0.30073 0.0
C61 C 0.1359 0.58662 0.29519 0.0
O62 O 0.13505 0.64547 0.34513 0.0
O63 O 0.16529 0.63425 0.33491 0.0
O64 O 0.14409 0.67406 0.28631 0.0
C65 C 0.15358 0.64207 0.35157 0.0
O66 O 0.12604 0.58708 0.31602 0.0
C67 C 0.15985 0.67038 0.27274 0.0
O68 O 0.14226 0.60327 0.28491 0.0
O69 O 0.16558 0.65163 0.2712 0.0
C70 C 0.34991 0.08363 0.28686 0.0
O71 O 0.36083 0.08217 0.30673 0.0
Cd72 Cd 0.36825 0.10987 0.33457 0.0
O73 O 0.34259 0.10104 0.27982 0.0
Cd74 Cd 0.34517 0.13717 0.29623 0.0
C75 C 0.39773 0.13798 0.29407 0.0
O76 O 0.33535 0.12685 0.33829 0.0
O77 O 0.346 0.15832 0.33544 0.0
O78 O 0.31116 0.14343 0.27749 0.0
C79 C 0.33682 0.1445 0.34827 0.0
O80 O 0.39728 0.12777 0.31464 0.0
C81 C 0.31559 0.16135 0.26926 0.0
O82 O 0.38099 0.14243 0.28265 0.0
O83 O 0.33407 0.16748 0.27244 0.0
C84 C 0.89645 0.34915 0.30927 0.0
O85 O 0.89747 0.36003 0.32919 0.0
Cd86 Cd 0.86776 0.3715 0.35178 0.0
O87 O 0.87898 0.34345 0.30045 0.0
Cd88 Cd 0.84185 0.34668 0.31229 0.0
C89 C 0.84333 0.39874 0.30486 0.0
O90 O 0.84818 0.34021 0.35654 0.0
O91 O 0.81702 0.34957 0.34769 0.0
O92 O 0.83803 0.31141 0.2967 0.0
C93 C 0.82964 0.34228 0.36371 0.0
O94 O 0.85302 0.39924 0.3258 0.0
C95 C 0.82098 0.31467 0.28551 0.0
O96 O 0.83812 0.38153 0.29513 0.0
O97 O 0.8142 0.3331 0.28569 0.0
C98 C 0.63796 0.89544 0.30348 0.0
O99 O 0.62902 0.89647 0.32481 0.0
Cd100 Cd 0.61884 0.86734 0.34908 0.0
O101 O 0.64275 0.87797 0.2939 0.0
Cd102 Cd 0.64085 0.84081 0.30728 0.0
C103 C 0.58847 0.84181 0.30591 0.0
O104 O 0.6502 0.8476 0.35061 0.0
O105 O 0.63949 0.81662 0.34358 0.0
O106 O 0.67507 0.83588 0.28862 0.0
C107 C 0.6479 0.82932 0.35862 0.0
O108 O 0.58939 0.85263 0.32595 0.0
C109 C 0.6705 0.81906 0.2776 0.0
O110 O 0.6049 0.83587 0.29486 0.0
O111 O 0.65189 0.81294 0.27945 0.0
C112 C 0.85015 0.58894 0.79695 0.0
O113 O 0.8589 0.5886 0.81842 0.0
Cd114 Cd 0.86842 0.6186 0.84094 0.0
O115 O 0.84546 0.60609 0.78638 0.0
Cd116 Cd 0.84737 0.64364 0.79827 0.0
C117 C 0.89962 0.64228 0.79707 0.0
O118 O 0.83618 0.63707 0.84075 0.0
O119 O 0.84791 0.66788 0.83495 0.0
O120 O 0.81375 0.64772 0.77777 0.0
C121 C 0.83793 0.65534 0.8488 0.0
O122 O 0.8984 0.63232 0.81779 0.0
C123 C 0.81799 0.66503 0.76765 0.0
O124 O 0.88332 0.64794 0.78554 0.0
O125 O 0.83627 0.67179 0.77066 0.0
C126 C 0.39425 0.85143 0.80929 0.0
O127 O 0.3947 0.86318 0.82852 0.0
Cd128 Cd 0.36502 0.8727 0.85275 0.0
O129 O 0.37713 0.8447 0.80053 0.0
Cd130 Cd 0.33976 0.84871 0.81063 0.0
C131 C 0.3402 0.90171 0.80856 0.0
O132 O 0.34674 0.84045 0.85424 0.0
O133 O 0.31454 0.84558 0.84574 0.0
O134 O 0.33615 0.81521 0.78982 0.0
C135 C 0.32812 0.83983 0.86151 0.0
O136 O 0.34944 0.90141 0.82979 0.0
C137 C 0.31924 0.81966 0.77887 0.0
O138 O 0.33586 0.88489 0.79727 0.0
O139 O 0.31246 0.83792 0.78181 0.0
C140 C 0.13916 0.39798 0.81011 0.0
O141 O 0.12937 0.39674 0.83086 0.0
Cd142 Cd 0.11943 0.36478 0.84935 0.0
O143 O 0.14462 0.38167 0.7983 0.0
Cd144 Cd 0.14271 0.34351 0.8055 0.0
C145 C 0.09051 0.3437 0.80151 0.0
O146 O 0.15135 0.34586 0.84931 0.0
O147 O 0.13949 0.31598 0.83845 0.0
O148 O 0.17822 0.33935 0.79118 0.0
C149 C 0.14889 0.32698 0.85463 0.0
O150 O 0.09071 0.35166 0.8235 0.0
C151 C 0.17425 0.32548 0.77498 0.0
O152 O 0.10739 0.33985 0.7901 0.0
O153 O 0.15537 0.3206 0.77203 0.0
C154 C 0.5853 0.14036 0.80499 0.0
O155 O 0.58333 0.13241 0.82681 0.0
Cd156 Cd 0.61176 0.12154 0.85167 0.0
O157 O 0.60322 0.14377 0.79566 0.0
Cd158 Cd 0.63989 0.14068 0.81062 0.0
C159 C 0.63605 0.08866 0.81029 0.0
O160 O 0.63252 0.15237 0.85283 0.0
O161 O 0.66276 0.1389 0.84828 0.0
O162 O 0.64644 0.174 0.79043 0.0
C163 C 0.65043 0.14946 0.86168 0.0
O164 O 0.62496 0.09061 0.83003 0.0
C165 C 0.6637 0.16881 0.78095 0.0
O166 O 0.6432 0.10451 0.79901 0.0
O167 O 0.66936 0.1502 0.78421 0.0
C168 C 0.84662 0.39305 0.67419 0.0
O169 O 0.85495 0.39341 0.65246 0.0
Cd170 Cd 0.86331 0.36319 0.62944 0.0
O171 O 0.84191 0.37588 0.68471 0.0
Cd172 Cd 0.84362 0.33847 0.67284 0.0
C173 C 0.89587 0.34003 0.6719 0.0
O174 O 0.8311 0.34456 0.63085 0.0
O175 O 0.84392 0.31416 0.63628 0.0
O176 O 0.81061 0.33379 0.69457 0.0
C177 C 0.83304 0.32628 0.62293 0.0
O178 O 0.89412 0.34917 0.65067 0.0
C179 C 0.81542 0.31658 0.70453 0.0
O180 O 0.87983 0.33509 0.68446 0.0
O181 O 0.83375 0.31021 0.70091 0.0
C182 C 0.58446 0.84381 0.68244 0.0
O183 O 0.58279 0.85417 0.66214 0.0
Cd184 Cd 0.61085 0.86449 0.63642 0.0
O185 O 0.6022 0.83812 0.69051 0.0
Cd186 Cd 0.6388 0.84225 0.67553 0.0
C187 C 0.63593 0.89442 0.67995 0.0
O188 O 0.6304 0.83309 0.63272 0.0
O189 O 0.66101 0.8457 0.63734 0.0
O190 O 0.64559 0.80787 0.69288 0.0
C191 C 0.64819 0.83609 0.62354 0.0
O192 O 0.62538 0.89373 0.65966 0.0
C193 C 0.66316 0.81249 0.70201 0.0
O194 O 0.64228 0.87785 0.69036 0.0
O195 O 0.66882 0.83123 0.70003 0.0
C196 C 0.14556 0.58837 0.679 0.0
O197 O 0.13725 0.5849 0.65769 0.0
Cd198 Cd 0.1264 0.6113 0.62966 0.0
O199 O 0.14936 0.60683 0.68618 0.0
Cd200 Cd 0.14641 0.64228 0.6674 0.0
C201 C 0.09422 0.63877 0.6689 0.0
O202 O 0.15741 0.63152 0.62594 0.0
O203 O 0.145 0.66238 0.6274 0.0
O204 O 0.17987 0.64972 0.68672 0.0
C205 C 0.1548 0.64874 0.6151 0.0
O206 O 0.09591 0.62641 0.65032 0.0
C207 C 0.17491 0.66761 0.69444 0.0
O208 O 0.11024 0.64652 0.67914 0.0
O209 O 0.1564 0.67333 0.69052 0.0
C210 C 0.39711 0.14219 0.66583 0.0
O211 O 0.39812 0.13174 0.64557 0.0
Cd212 Cd 0.36849 0.11956 0.6234 0.0
O213 O 0.37963 0.14745 0.675 0.0
Cd214 Cd 0.34246 0.14417 0.66306 0.0
C215 C 0.34412 0.09222 0.67063 0.0
O216 O 0.34753 0.14977 0.61854 0.0
O217 O 0.31736 0.13801 0.62851 0.0
O218 O 0.33623 0.18032 0.67278 0.0
C219 C 0.32912 0.14595 0.61192 0.0
O220 O 0.35399 0.0919 0.64979 0.0
C221 C 0.32151 0.17704 0.68814 0.0
O222 O 0.33866 0.10934 0.68041 0.0
O223 O 0.31708 0.15828 0.6929 0.0
H224 H 0.3201 0.2016 0.25474 0.0
H225 H 0.29275 0.22587 0.24309 0.0
H226 H 0.24754 0.17692 0.24844 0.0
H227 H 0.27478 0.15258 0.26064 0.0
H228 H 0.26457 0.22642 0.20402 0.0
H229 H 0.22461 0.22033 0.29678 0.0
H230 H 0.25023 0.21012 0.29149 0.0
H231 H 0.22788 0.19617 0.28059 0.0
C232 C 0.30438 0.19593 0.2532 0.0
C233 C 0.29956 0.17522 0.25883 0.0
C234 C 0.28876 0.20983 0.24659 0.0
C235 C 0.26808 0.20328 0.24549 0.0
C236 C 0.26335 0.18238 0.24983 0.0
H237 H 0.15584 0.26993 0.20636 0.0
H238 H 0.18081 0.24348 0.21932 0.0
C239 C 0.27895 0.16847 0.25657 0.0
C240 C 0.25153 0.21849 0.24022 0.0
H241 H 0.20842 0.24099 0.26549 0.0
C242 C 0.2523 0.22961 0.21745 0.0
C243 C 0.23559 0.22264 0.25787 0.0
C244 C 0.23455 0.21184 0.28316 0.0
C245 C 0.23747 0.24473 0.21177 0.0
C246 C 0.22162 0.24892 0.22944 0.0
C247 C 0.22066 0.23767 0.25207 0.0
C248 C 0.20601 0.26508 0.2246 0.0
C249 C 0.23874 0.25605 0.18684 0.0
C250 C 0.21181 0.28597 0.22425 0.0
C251 C 0.1976 0.30112 0.21702 0.0
C252 C 0.17738 0.29555 0.20994 0.0
C253 C 0.17132 0.27469 0.21163 0.0
C254 C 0.18554 0.25957 0.219 0.0
H255 H 0.24942 0.24832 0.17339 0.0
H256 H 0.22319 0.25721 0.17799 0.0
H257 H 0.24449 0.272 0.19014 0.0
H258 H 0.22753 0.29048 0.22883 0.0
H259 H 0.20273 0.31705 0.21596 0.0
H260 H 0.83177 0.27389 0.28211 0.0
H261 H 0.80937 0.24491 0.27005 0.0
H262 H 0.75972 0.28748 0.25419 0.0
H263 H 0.78194 0.31655 0.26602 0.0
H264 H 0.7541 0.24984 0.29262 0.0
H265 H 0.78251 0.23199 0.19552 0.0
H266 H 0.80077 0.2381 0.22022 0.0
H267 H 0.78398 0.25786 0.2083 0.0
C268 C 0.8162 0.27711 0.27564 0.0
C269 C 0.80859 0.2975 0.27505 0.0
C270 C 0.80346 0.26056 0.26882 0.0
C271 C 0.78298 0.26418 0.26135 0.0
C272 C 0.77553 0.28449 0.25994 0.0
H273 H 0.67088 0.20051 0.22915 0.0
H274 H 0.69798 0.22299 0.24571 0.0
C275 C 0.78827 0.30105 0.26661 0.0
C276 C 0.76885 0.24676 0.25634 0.0
H277 H 0.75437 0.21255 0.21076 0.0
C278 C 0.75419 0.24154 0.27482 0.0
C279 C 0.76933 0.23591 0.23327 0.0
C280 C 0.78492 0.24114 0.21303 0.0
C281 C 0.73958 0.22588 0.27057 0.0
C282 C 0.73938 0.21562 0.24697 0.0
C283 C 0.75454 0.22044 0.22883 0.0
C284 C 0.72275 0.20096 0.23991 0.0
C285 C 0.72453 0.22049 0.29138 0.0
C286 C 0.72766 0.1811 0.23112 0.0
C287 C 0.71219 0.16827 0.22137 0.0
C288 C 0.69158 0.17515 0.22017 0.0
C289 C 0.68659 0.19471 0.22997 0.0
C290 C 0.70206 0.20755 0.23958 0.0
H291 H 0.731 0.22429 0.31027 0.0
H292 H 0.71018 0.22968 0.28886 0.0
H293 H 0.72039 0.20382 0.29104 0.0
H294 H 0.74355 0.17577 0.23112 0.0
H295 H 0.71652 0.15329 0.21394 0.0
H296 H 0.82725 0.71115 0.19994 0.0
H297 H 0.80455 0.73826 0.21641 0.0
H298 H 0.75611 0.6932 0.22767 0.0
H299 H 0.77879 0.66601 0.21182 0.0
H300 H 0.76798 0.75046 0.19576 0.0
H301 H 0.75506 0.7239 0.29404 0.0
H302 H 0.77554 0.71371 0.27448 0.0
H303 H 0.74951 0.70406 0.27139 0.0
C304 C 0.8119 0.70696 0.20638 0.0
C305 C 0.80481 0.68644 0.20465 0.0
C306 C 0.79894 0.72247 0.21571 0.0
C307 C 0.77874 0.7177 0.22353 0.0
C308 C 0.7718 0.69715 0.2223 0.0
H309 H 0.66588 0.78037 0.25795 0.0
H310 H 0.69324 0.75717 0.24338 0.0
C311 C 0.78476 0.68163 0.21311 0.0
C312 C 0.76435 0.73434 0.2312 0.0
H313 H 0.73079 0.74868 0.27778 0.0
C314 C 0.76006 0.75025 0.21384 0.0
C315 C 0.75408 0.73405 0.25482 0.0
C316 C 0.75893 0.71813 0.27485 0.0
C317 C 0.74517 0.76543 0.21912 0.0
C318 C 0.73439 0.7646 0.24228 0.0
C319 C 0.73902 0.74906 0.25991 0.0
C320 C 0.71786 0.77944 0.24847 0.0
C321 C 0.74053 0.78188 0.19969 0.0
C322 C 0.72273 0.79971 0.2557 0.0
C323 C 0.70715 0.81301 0.26413 0.0
C324 C 0.6865 0.80618 0.26541 0.0
C325 C 0.68162 0.78611 0.25714 0.0
C326 C 0.69721 0.77281 0.24888 0.0
H327 H 0.74879 0.77915 0.18158 0.0
H328 H 0.72363 0.7825 0.19593 0.0
H329 H 0.74526 0.79721 0.20715 0.0
H330 H 0.73865 0.80499 0.25562 0.0
H331 H 0.71139 0.82838 0.27041 0.0
H332 H 0.27082 0.82477 0.19188 0.0
H333 H 0.24196 0.8032 0.20621 0.0
H334 H 0.28502 0.75993 0.2391 0.0
H335 H 0.314 0.78135 0.22483 0.0
H336 H 0.23751 0.76063 0.19043 0.0
H337 H 0.24029 0.76922 0.29483 0.0
H338 H 0.25194 0.78774 0.2735 0.0
H339 H 0.26474 0.76368 0.2801 0.0
C340 C 0.27415 0.81088 0.20261 0.0
C341 C 0.29469 0.80472 0.20719 0.0
C342 C 0.25765 0.79857 0.2107 0.0
C343 C 0.26141 0.78008 0.22378 0.0
C344 C 0.28184 0.77431 0.2293 0.0
H345 H 0.19393 0.66722 0.24238 0.0
H346 H 0.21673 0.69529 0.22854 0.0
C347 C 0.29836 0.78653 0.22107 0.0
C348 C 0.24414 0.76591 0.2298 0.0
H349 H 0.21963 0.74171 0.2787 0.0
C350 C 0.23342 0.75663 0.20972 0.0
C351 C 0.23882 0.76089 0.25496 0.0
C352 C 0.2494 0.77101 0.27715 0.0
C353 C 0.21793 0.74185 0.21418 0.0
C354 C 0.2132 0.73621 0.23933 0.0
C355 C 0.22341 0.74602 0.25942 0.0
C356 C 0.19826 0.71959 0.24527 0.0
C357 C 0.20682 0.73228 0.19201 0.0
C358 C 0.18028 0.72403 0.25905 0.0
C359 C 0.1672 0.70805 0.2669 0.0
C360 C 0.17205 0.68734 0.26137 0.0
C361 C 0.18975 0.68301 0.24686 0.0
C362 C 0.20275 0.69902 0.23889 0.0
H363 H 0.20868 0.74169 0.17455 0.0
H364 H 0.21333 0.71669 0.18837 0.0
H365 H 0.19006 0.73048 0.19609 0.0
H366 H 0.17663 0.73982 0.2642 0.0
H367 H 0.15372 0.71189 0.27811 0.0
H368 H 0.65521 0.77126 0.70843 0.0
H369 H 0.68019 0.7441 0.71892 0.0
H370 H 0.72802 0.79008 0.72756 0.0
H371 H 0.70322 0.81735 0.71716 0.0
H372 H 0.736 0.75522 0.69204 0.0
H373 H 0.71022 0.73062 0.788 0.0
H374 H 0.69068 0.73356 0.764 0.0
H375 H 0.70434 0.75588 0.77523 0.0
C376 C 0.67095 0.77563 0.71303 0.0
C377 C 0.67726 0.79645 0.71193 0.0
C378 C 0.68517 0.7601 0.71903 0.0
C379 C 0.70587 0.76516 0.724 0.0
C380 C 0.71206 0.78594 0.72377 0.0
H381 H 0.82165 0.70446 0.7498 0.0
H382 H 0.79377 0.72738 0.73634 0.0
C383 C 0.69786 0.80148 0.71793 0.0
C384 C 0.72143 0.74874 0.7278 0.0
H385 H 0.73788 0.71223 0.76977 0.0
C386 C 0.73643 0.74576 0.70899 0.0
C387 C 0.72169 0.73634 0.74977 0.0
C388 C 0.70598 0.73922 0.77056 0.0
C389 C 0.7519 0.73071 0.71168 0.0
C390 C 0.75261 0.71872 0.73406 0.0
C391 C 0.73729 0.72143 0.75262 0.0
C392 C 0.76973 0.70415 0.73936 0.0
C393 C 0.76719 0.7277 0.69045 0.0
C394 C 0.7655 0.68345 0.74554 0.0
C395 C 0.78141 0.67034 0.75349 0.0
C396 C 0.80181 0.67775 0.75548 0.0
C397 C 0.80613 0.69824 0.74829 0.0
C398 C 0.79021 0.71135 0.74048 0.0
H399 H 0.76066 0.73283 0.67205 0.0
H400 H 0.7812 0.73715 0.69422 0.0
H401 H 0.77193 0.71125 0.68881 0.0
H402 H 0.74979 0.67761 0.74488 0.0
H403 H 0.7776 0.65463 0.75894 0.0
H404 H 0.21538 0.65933 0.70553 0.0
H405 H 0.24191 0.68398 0.71914 0.0
H406 H 0.19624 0.73252 0.72117 0.0
H407 H 0.16959 0.70805 0.70758 0.0
H408 H 0.23402 0.74053 0.69147 0.0
H409 H 0.24945 0.71302 0.78949 0.0
H410 H 0.24902 0.69378 0.76495 0.0
H411 H 0.22566 0.70721 0.77301 0.0
C412 C 0.21092 0.67518 0.70925 0.0
C413 C 0.19041 0.68177 0.70547 0.0
C414 C 0.22608 0.68921 0.71704 0.0
C415 C 0.22095 0.70999 0.72119 0.0
C416 C 0.20043 0.7165 0.71806 0.0
H417 H 0.28109 0.82417 0.75757 0.0
H418 H 0.25877 0.79692 0.74102 0.0
C419 C 0.18524 0.70249 0.71039 0.0
C420 C 0.23717 0.72523 0.72745 0.0
H421 H 0.27016 0.74033 0.77419 0.0
C422 C 0.24198 0.74051 0.70952 0.0
C423 C 0.2476 0.72493 0.75089 0.0
C424 C 0.24267 0.70897 0.77085 0.0
C425 C 0.25696 0.75567 0.71451 0.0
C426 C 0.26699 0.75576 0.73826 0.0
C427 C 0.26246 0.74019 0.75598 0.0
C428 C 0.28135 0.7725 0.74578 0.0
C429 C 0.262 0.77132 0.69422 0.0
C430 C 0.30145 0.76781 0.75402 0.0
C431 C 0.3142 0.78335 0.76372 0.0
C432 C 0.30701 0.80382 0.76544 0.0
C433 C 0.28713 0.80858 0.75635 0.0
C434 C 0.27438 0.79303 0.74675 0.0
H435 H 0.25822 0.76532 0.6751 0.0
H436 H 0.25263 0.78546 0.69733 0.0
H437 H 0.27862 0.7757 0.69466 0.0
H438 H 0.30707 0.75204 0.75351 0.0
H439 H 0.32943 0.7792 0.77063 0.0
H440 H 0.21413 0.32163 0.79037 0.0
H441 H 0.24047 0.29872 0.77314 0.0
H442 H 0.19879 0.28095 0.71319 0.0
H443 H 0.17186 0.30299 0.7314 0.0
H444 H 0.2144 0.2485 0.73236 0.0
H445 H 0.27956 0.30208 0.71627 0.0
H446 H 0.27133 0.30346 0.74854 0.0
H447 H 0.2539 0.3112 0.72362 0.0
C448 C 0.21072 0.31314 0.77322 0.0
C449 C 0.19097 0.31409 0.76217 0.0
C450 C 0.22587 0.30015 0.76326 0.0
C451 C 0.22183 0.28835 0.74156 0.0
C452 C 0.20232 0.28993 0.72992 0.0
H453 H 0.31766 0.21556 0.66813 0.0
H454 H 0.29348 0.24258 0.68084 0.0
C455 C 0.18697 0.30255 0.74026 0.0
C456 C 0.23715 0.27292 0.73255 0.0
H457 H 0.2884 0.26592 0.71951 0.0
C458 C 0.23053 0.25241 0.7292 0.0
C459 C 0.25817 0.27797 0.7281 0.0
C460 C 0.26607 0.29993 0.72905 0.0
C461 C 0.24433 0.23677 0.72204 0.0
C462 C 0.26561 0.24154 0.71934 0.0
C463 C 0.27218 0.26214 0.72211 0.0
C464 C 0.28117 0.22555 0.71278 0.0
C465 C 0.23576 0.21545 0.71689 0.0
C466 C 0.28281 0.2072 0.72695 0.0
C467 C 0.29629 0.1915 0.71934 0.0
C468 C 0.30888 0.19421 0.69796 0.0
C469 C 0.30816 0.21307 0.68474 0.0
C470 C 0.29433 0.22852 0.69197 0.0
H471 H 0.2191 0.21609 0.71173 0.0
H472 H 0.24428 0.2077 0.70134 0.0
H473 H 0.23713 0.20587 0.73422 0.0
H474 H 0.27339 0.20484 0.74363 0.0
H475 H 0.29672 0.17719 0.73002 0.0
H476 H 0.65557 0.20954 0.77134 0.0
H477 H 0.68005 0.23594 0.7569 0.0
H478 H 0.72769 0.18952 0.75055 0.0
H479 H 0.70325 0.16302 0.76441 0.0
H480 H 0.71551 0.24681 0.78152 0.0
H481 H 0.73418 0.22051 0.68459 0.0
H482 H 0.71213 0.21085 0.70194 0.0
H483 H 0.73755 0.2005 0.70775 0.0
C484 C 0.67114 0.20489 0.76635 0.0
C485 C 0.67749 0.1842 0.76898 0.0
C486 C 0.68511 0.22 0.75819 0.0
C487 C 0.70562 0.21466 0.75245 0.0
C488 C 0.71182 0.19392 0.75436 0.0
H489 H 0.82035 0.27727 0.72234 0.0
H490 H 0.79313 0.25351 0.73614 0.0
C491 C 0.69785 0.1788 0.76239 0.0
C492 C 0.72097 0.23092 0.74637 0.0
H493 H 0.75737 0.24514 0.70296 0.0
C494 C 0.72451 0.2466 0.76421 0.0
C495 C 0.73268 0.23058 0.72379 0.0
C496 C 0.72882 0.21482 0.70331 0.0
C497 C 0.7399 0.26161 0.7604 0.0
C498 C 0.75193 0.26089 0.73815 0.0
C499 C 0.74819 0.24545 0.72013 0.0
C500 C 0.76853 0.27603 0.73304 0.0
C501 C 0.74361 0.27779 0.78039 0.0
C502 C 0.76367 0.29664 0.7273 0.0
C503 C 0.77918 0.31026 0.71936 0.0
C504 C 0.79975 0.30342 0.71702 0.0
C505 C 0.80467 0.28302 0.72399 0.0
C506 C 0.78915 0.2694 0.73179 0.0
H507 H 0.73547 0.27408 0.79835 0.0
H508 H 0.76042 0.27939 0.78429 0.0
H509 H 0.7379 0.29297 0.77347 0.0
H510 H 0.74778 0.30193 0.72793 0.0
H511 H 0.7749 0.32587 0.71406 0.0
H512 H 0.12729 0.30096 0.88587 0.0
H513 H 0.13412 0.29547 0.93114 0.0
H514 H 0.19099 0.33008 0.92453 0.0
H515 H 0.18377 0.33635 0.87983 0.0
H516 H 0.16664 0.28055 0.96283 0.0
H517 H 0.15545 0.36553 0.97117 0.0
H518 H 0.14957 0.35155 0.94261 0.0
H519 H 0.17591 0.35818 0.9501 0.0
C520 C 0.14146 0.30691 0.89405 0.0
C521 C 0.15486 0.31936 0.87971 0.0
C522 C 0.14536 0.30378 0.91981 0.0
C523 C 0.1628 0.31283 0.9312 0.0
C524 C 0.17722 0.3234 0.91618 0.0
H525 H 0.1857 0.34104 0.08992 0.0
H526 H 0.19232 0.33355 0.0452 0.0
C527 C 0.17311 0.32692 0.89071 0.0
C528 C 0.16456 0.31365 0.95901 0.0
H529 H 0.16404 0.34758 0.00831 0.0
C530 C 0.16619 0.29517 0.97282 0.0
C531 C 0.16386 0.33281 0.97194 0.0
C532 C 0.16091 0.35314 0.95826 0.0
C533 C 0.16708 0.29538 -0.00065 0.0
C534 C 0.16618 0.31452 0.01218 0.0
C535 C 0.16501 0.33296 -0.00167 0.0
C536 C 0.16415 0.31595 0.0399 0.0
C537 C 0.16884 0.27518 0.01348 0.0
C538 C 0.1462 0.30843 0.0516 0.0
C539 C 0.14229 0.31287 0.07692 0.0
C540 C 0.15625 0.32494 0.09097 0.0
C541 C 0.17466 0.33175 0.07952 0.0
C542 C 0.1785 0.32741 0.05407 0.0
H543 H 0.17526 0.26276 0.0013 0.0
H544 H 0.17879 0.27687 0.03046 0.0
H545 H 0.15321 0.27026 0.01982 0.0
H546 H 0.13473 0.29997 0.04084 0.0
H547 H 0.12802 0.30731 0.08527 0.0
H548 H 0.67876 0.13309 0.89454 0.0
H549 H 0.68368 0.14272 0.939 0.0
H550 H 0.63968 0.19237 0.93013 0.0
H551 H 0.63402 0.18224 0.88621 0.0
H552 H 0.69503 0.17772 0.96552 0.0
H553 H 0.61274 0.1575 0.98411 0.0
H554 H 0.6253 0.15168 0.95457 0.0
H555 H 0.61618 0.17745 0.96089 0.0
C556 C 0.67032 0.14616 0.90209 0.0
C557 C 0.65569 0.15665 0.88724 0.0
C558 C 0.67317 0.1517 0.92739 0.0
C559 C 0.66164 0.16794 0.93797 0.0
C560 C 0.64827 0.17943 0.92253 0.0
H561 H 0.64159 0.19222 0.09863 0.0
H562 H 0.64588 0.19997 0.05349 0.0
C563 C 0.64509 0.17364 0.89747 0.0
C564 C 0.66223 0.17165 0.96552 0.0
H565 H 0.6321 0.16973 0.01843 0.0
C566 C 0.68126 0.17615 0.9771 0.0
C567 C 0.6442 0.16956 0.98057 0.0
C568 C 0.62349 0.1636 0.96949 0.0
C569 C 0.68279 0.1782 0.00345 0.0
C570 C 0.66487 0.17562 0.01841 0.0
C571 C 0.64575 0.17194 0.00678 0.0
C572 C 0.66578 0.17375 0.04619 0.0
C573 C 0.70359 0.18271 0.01514 0.0
C574 C 0.67578 0.15664 0.05692 0.0
C575 C 0.67313 0.15204 0.08245 0.0
C576 C 0.66045 0.16451 0.09769 0.0
C577 C 0.65142 0.18235 0.08728 0.0
C578 C 0.65391 0.18683 0.06159 0.0
H579 H 0.71421 0.19023 0.00138 0.0
H580 H 0.70197 0.19284 0.03195 0.0
H581 H 0.71078 0.16796 0.02132 0.0
H582 H 0.68464 0.14613 0.04524 0.0
H583 H 0.6804 0.13827 0.09003 0.0
H584 H 0.80467 0.63904 0.87234 0.0
H585 H 0.79441 0.6436 0.91635 0.0
H586 H 0.84443 0.68708 0.92683 0.0
H587 H 0.85411 0.68325 0.88228 0.0
H588 H 0.81827 0.63168 0.95285 0.0
H589 H 0.80049 0.71425 0.9684 0.0
H590 H 0.80213 0.70317 0.93715 0.0
H591 H 0.82523 0.71107 0.9536 0.0
C592 C 0.81314 0.64997 0.88391 0.0
C593 C 0.83027 0.66068 0.87411 0.0
C594 C 0.80723 0.65261 0.909 0.0
C595 C 0.81855 0.66575 0.92491 0.0
C596 C 0.83512 0.67724 0.91481 0.0
H597 H 0.85255 0.66849 0.07755 0.0
H598 H 0.8457 0.67464 0.03284 0.0
C599 C 0.84078 0.67492 0.88943 0.0
C600 C 0.81506 0.66488 0.95257 0.0
H601 H 0.81011 0.69446 0.00561 0.0
C602 C 0.81599 0.64539 0.9643 0.0
C603 C 0.81213 0.68275 0.96752 0.0
C604 C 0.80972 0.70395 0.95596 0.0
C605 C 0.81514 0.64336 -0.00939 0.0
C606 C 0.81323 0.6613 0.00559 0.0
C607 C 0.81154 0.68075 -0.00605 0.0
C608 C 0.81552 0.66016 0.03327 0.0
C609 C 0.81743 0.62215 0.00228 0.0
C610 C 0.80056 0.65035 0.04835 0.0
C611 C 0.80444 0.64673 0.07399 0.0
C612 C 0.82339 0.6528 0.08474 0.0
C613 C 0.8379 0.66342 0.06975 0.0
C614 C 0.83396 0.66711 0.04425 0.0
H615 H 0.82129 0.61014 -0.01196 0.0
H616 H 0.82973 0.62229 0.01695 0.0
H617 H 0.8027 0.61769 0.01162 0.0
H618 H 0.7862 0.64495 0.0401 0.0
H619 H 0.79293 0.63865 0.08516 0.0
H620 H 0.33226 0.84843 0.07568 0.0
H621 H 0.3206 0.84076 0.0332 0.0
H622 H 0.31596 0.77596 0.05214 0.0
H623 H 0.32828 0.78358 0.09517 0.0
H624 H 0.33455 0.78104 0.00792 0.0
H625 H 0.26437 0.82844 0.00565 0.0
H626 H 0.28483 0.84431 0.01765 0.0
H627 H 0.2769 0.82156 0.03503 0.0
C628 C 0.32865 0.83253 0.07097 0.0
C629 C 0.3311 0.81661 0.08878 0.0
C630 C 0.32169 0.8282 0.04672 0.0
C631 C 0.31664 0.80789 0.03974 0.0
C632 C 0.31937 0.7918 0.05732 0.0
H633 H 0.29018 0.82705 0.87918 0.0
H634 H 0.2826 0.81195 0.92087 0.0
C635 C 0.32653 0.79614 0.08176 0.0
C636 C 0.3106 0.80385 0.01323 0.0
H637 H 0.28485 0.8282 0.96559 0.0
C638 C 0.32317 0.7908 -0.00131 0.0
C639 C 0.29515 0.8158 0.00113 0.0
C640 C 0.27941 0.82808 0.01583 0.0
C641 C 0.32269 0.79174 0.97223 0.0
C642 C 0.3099 0.8066 0.96028 0.0
C643 C 0.29522 0.81732 0.97471 0.0
C644 C 0.31421 0.81398 0.93429 0.0
C645 C 0.33682 0.77768 0.95745 0.0
C646 C 0.3343 0.82062 0.92827 0.0
C647 C 0.33862 0.82911 0.90469 0.0
C648 C 0.32286 0.83158 0.8867 0.0
C649 C 0.3026 0.82536 0.89277 0.0
C650 C 0.2983 0.8166 0.91645 0.0
H651 H 0.3379 0.76229 0.96673 0.0
H652 H 0.33138 0.77555 0.93772 0.0
H653 H 0.35264 0.78437 0.9571 0.0
H654 H 0.34666 0.81967 0.94205 0.0
H655 H 0.35435 0.83396 0.90068 0.0
H656 H 0.18419 0.62713 0.58995 0.0
H657 H 0.19326 0.6296 0.54526 0.0
H658 H 0.14879 0.67879 0.53575 0.0
H659 H 0.1403 0.67695 0.58079 0.0
H660 H 0.16788 0.62091 0.50883 0.0
H661 H 0.19528 0.7009 0.49382 0.0
H662 H 0.19272 0.68974 0.52498 0.0
H663 H 0.17057 0.70072 0.5092 0.0
C664 C 0.17662 0.63874 0.5784 0.0
C665 C 0.16143 0.65177 0.58872 0.0
C666 C 0.18188 0.64018 0.55291 0.0
C667 C 0.1719 0.65452 0.53718 0.0
C668 C 0.15713 0.66799 0.54763 0.0
H669 H 0.1331 0.66348 0.38775 0.0
H670 H 0.1425 0.66739 0.43212 0.0
C671 C 0.15212 0.66679 0.5733 0.0
C672 C 0.17492 0.65351 0.50945 0.0
H673 H 0.18198 0.68318 0.45669 0.0
C674 C 0.17149 0.63443 0.49749 0.0
C675 C 0.17969 0.67114 0.49465 0.0
C676 C 0.18499 0.69171 0.50639 0.0
C677 C 0.17142 0.63276 0.47112 0.0
C678 C 0.17491 0.65064 0.45635 0.0
C679 C 0.17931 0.66953 0.46819 0.0
C680 C 0.17119 0.6504 0.42888 0.0
C681 C 0.16638 0.61218 0.45916 0.0
C682 C 0.18449 0.63987 0.41236 0.0
C683 C 0.17916 0.63759 0.38688 0.0
C684 C 0.16039 0.64568 0.37778 0.0
C685 C 0.14756 0.65688 0.39427 0.0
C686 C 0.15296 0.65927 0.41956 0.0
H687 H 0.16231 0.6002 0.47341 0.0
H688 H 0.15325 0.61388 0.44577 0.0
H689 H 0.17996 0.60666 0.44824 0.0
H690 H 0.19865 0.63297 0.41934 0.0
H691 H 0.18937 0.62899 0.37453 0.0
H692 H 0.34735 0.17081 0.57727 0.0
H693 H 0.33937 0.1736 0.53237 0.0
H694 H 0.28864 0.13085 0.54166 0.0
H695 H 0.29644 0.12812 0.58704 0.0
H696 H 0.32066 0.11995 0.50543 0.0
H697 H 0.29128 0.19957 0.49031 0.0
H698 H 0.31367 0.19801 0.51038 0.0
H699 H 0.28974 0.18645 0.52049 0.0
C700 C 0.33426 0.16226 0.56987 0.0
C701 C 0.32262 0.14909 0.58553 0.0
C702 C 0.32959 0.16406 0.54428 0.0
C703 C 0.31326 0.15265 0.53386 0.0
C704 C 0.30113 0.13997 0.54954 0.0
H705 H 0.3069 0.12326 0.37297 0.0
H706 H 0.29694 0.12629 0.41734 0.0
C707 C 0.30564 0.13838 0.57535 0.0
C708 C 0.31113 0.1518 0.50614 0.0
H709 H 0.30529 0.18233 0.45397 0.0
C710 C 0.31685 0.13342 0.49407 0.0
C711 C 0.30644 0.16953 0.4916 0.0
C712 C 0.29976 0.18949 0.50382 0.0
C713 C 0.31922 0.13257 0.46779 0.0
C714 C 0.31506 0.15048 0.45318 0.0
C715 C 0.30848 0.16866 0.46522 0.0
C716 C 0.31869 0.15084 0.42558 0.0
C717 C 0.32741 0.11287 0.45618 0.0
C718 C 0.33328 0.16456 0.41517 0.0
C719 C 0.33867 0.16317 0.38963 0.0
C720 C 0.32971 0.14788 0.37435 0.0
C721 C 0.31434 0.13492 0.38452 0.0
C722 C 0.30867 0.13659 0.40984 0.0
H723 H 0.33476 0.10266 0.4705 0.0
H724 H 0.3144 0.10418 0.44754 0.0
H725 H 0.33896 0.11628 0.4412 0.0
H726 H 0.34108 0.17577 0.42702 0.0
H727 H 0.35047 0.17341 0.38216 0.0
H728 H 0.792 0.34818 0.38666 0.0
H729 H 0.78285 0.33991 0.43063 0.0
H730 H 0.84405 0.31529 0.44282 0.0
H731 H 0.8533 0.32339 0.39926 0.0
H732 H 0.80878 0.29108 0.46446 0.0
H733 H 0.81021 0.37505 0.4887 0.0
H734 H 0.79425 0.36671 0.46276 0.0
H735 H 0.82189 0.36539 0.46008 0.0
C736 C 0.80342 0.34088 0.3987 0.0
C737 C 0.82344 0.33668 0.38966 0.0
C738 C 0.79816 0.33612 0.42371 0.0
C739 C 0.81283 0.32705 0.43983 0.0
C740 C 0.83252 0.32219 0.43056 0.0
H741 H 0.85045 0.30054 0.58797 0.0
H742 H 0.84023 0.29736 0.54358 0.0
C743 C 0.83781 0.327 0.40573 0.0
C744 C 0.80871 0.32432 0.46703 0.0
H745 H 0.80881 0.3515 0.52201 0.0
C746 C 0.80834 0.30423 0.47714 0.0
C747 C 0.80809 0.34155 0.48335 0.0
C748 C 0.80871 0.36344 0.47335 0.0
C749 C 0.80817 0.30093 0.50337 0.0
C750 C 0.80898 0.31819 0.51973 0.0
C751 C 0.8082 0.33825 0.50949 0.0
C752 C 0.81266 0.31623 0.54728 0.0
C753 C 0.80744 0.27904 0.51321 0.0
C754 C 0.80053 0.32771 0.56419 0.0
C755 C 0.80675 0.33006 0.58922 0.0
C756 C 0.82497 0.32065 0.59792 0.0
C757 C 0.83626 0.30781 0.58165 0.0
C758 C 0.8303 0.30585 0.55635 0.0
H759 H 0.79901 0.26877 0.4999 0.0
H760 H 0.82346 0.27303 0.51496 0.0
H761 H 0.79985 0.27817 0.53201 0.0
H762 H 0.78688 0.33584 0.55764 0.0
H763 H 0.79771 0.3399 0.60157 0.0
H764 H 0.6761 0.85366 0.59095 0.0
H765 H 0.67977 0.84624 0.54565 0.0
H766 H 0.63484 0.79711 0.55234 0.0
H767 H 0.63046 0.80504 0.59713 0.0
H768 H 0.68984 0.81231 0.51648 0.0
H769 H 0.60781 0.83488 0.50144 0.0
H770 H 0.62103 0.83919 0.53095 0.0
H771 H 0.61093 0.81399 0.52344 0.0
C772 C 0.66718 0.84118 0.58272 0.0
C773 C 0.65269 0.8302 0.59728 0.0
C774 C 0.66931 0.83692 0.55694 0.0
C775 C 0.65717 0.82147 0.54558 0.0
C776 C 0.64389 0.80949 0.5606 0.0
H777 H 0.63453 0.79582 0.38588 0.0
H778 H 0.63931 0.78986 0.43136 0.0
C779 C 0.64145 0.814 0.58615 0.0
C780 C 0.65717 0.81892 0.51781 0.0
H781 H 0.62582 0.82215 0.46607 0.0
C782 C 0.67584 0.81436 0.50544 0.0
C783 C 0.63887 0.82171 0.50347 0.0
C784 C 0.61857 0.82791 0.51544 0.0
C785 C 0.67669 0.81265 0.47901 0.0
C786 C 0.65842 0.81557 0.4648 0.0
C787 C 0.63971 0.81963 0.47717 0.0
C788 C 0.65856 0.81687 0.43698 0.0
C789 C 0.69707 0.80794 0.4664 0.0
C790 C 0.66793 0.83391 0.42526 0.0
C791 C 0.66499 0.8375 0.39953 0.0
C792 C 0.65266 0.82406 0.38509 0.0
C793 C 0.64409 0.80642 0.39659 0.0
C794 C 0.64686 0.80296 0.42247 0.0
H795 H 0.70835 0.8011 0.47988 0.0
H796 H 0.69487 0.79715 0.45031 0.0
H797 H 0.70378 0.82251 0.45885 0.0
H798 H 0.67668 0.84501 0.43626 0.0
H799 H 0.67188 0.85116 0.39111 0.0
H800 H 0.11455 0.55071 0.30235 0.0
H801 H 0.11872 0.5181 0.27988 0.0
H802 H 0.16922 0.54422 0.23697 0.0
H803 H 0.16444 0.57732 0.25864 0.0
H804 H 0.14519 0.52374 0.2069 0.0
H805 H 0.1602 0.47369 0.28943 0.0
H806 H 0.13606 0.48692 0.29319 0.0
H807 H 0.15985 0.5015 0.29181 0.0
C808 C 0.12668 0.54947 0.28831 0.0
C809 C 0.13925 0.56656 0.28238 0.0
C810 C 0.12916 0.53074 0.27559 0.0
C811 C 0.14464 0.52847 0.25715 0.0
C812 C 0.15726 0.54552 0.25124 0.0
H813 H 0.1672 0.40345 0.20012 0.0
H814 H 0.17195 0.4374 0.21965 0.0
C815 C 0.15453 0.56442 0.26365 0.0
C816 C 0.14686 0.50864 0.24321 0.0
H817 H 0.14906 0.45634 0.25152 0.0
C818 C 0.14634 0.50901 0.21667 0.0
C819 C 0.14885 0.48941 0.25583 0.0
C820 C 0.15152 0.48788 0.28411 0.0
C821 C 0.14687 0.49069 0.20248 0.0
C822 C 0.14712 0.47139 0.21519 0.0
C823 C 0.14852 0.47107 0.24169 0.0
C824 C 0.14529 0.45134 0.2016 0.0
C825 C 0.14735 0.49232 0.17402 0.0
C826 C 0.1288 0.44782 0.18483 0.0
C827 C 0.12633 0.42857 0.17324 0.0
C828 C 0.13995 0.41224 0.17874 0.0
C829 C 0.15645 0.41573 0.19552 0.0
C830 C 0.15915 0.43513 0.20671 0.0
H831 H 0.15472 0.50702 0.16783 0.0
H832 H 0.15591 0.47923 0.16539 0.0
H833 H 0.13126 0.49228 0.16669 0.0
H834 H 0.11745 0.45977 0.1812 0.0
H835 H 0.11329 0.42627 0.16068 0.0
H836 H 0.55718 0.13303 0.1505 0.0
H837 H 0.52297 0.13667 0.16967 0.0
H838 H 0.55061 0.16384 0.23596 0.0
H839 H 0.58489 0.16045 0.21692 0.0
H840 H 0.51146 0.11757 0.21471 0.0
H841 H 0.5017 0.20268 0.22104 0.0
H842 H 0.52058 0.1907 0.20059 0.0
H843 H 0.52567 0.19327 0.23383 0.0
C844 C 0.556 0.14007 0.169 0.0
C845 C 0.57382 0.14638 0.1822 0.0
C846 C 0.53642 0.14214 0.17992 0.0
C847 C 0.53424 0.15071 0.20412 0.0
C848 C 0.5519 0.15754 0.21707 0.0
H849 H 0.43641 0.12847 0.31161 0.0
H850 H 0.46938 0.13307 0.28969 0.0
C851 C 0.57151 0.15546 0.2062 0.0
C852 C 0.51375 0.15076 0.2167 0.0
H853 H 0.4777 0.18202 0.24441 0.0
C854 C 0.50402 0.13168 0.22105 0.0
C855 C 0.50403 0.1692 0.22479 0.0
C856 C 0.51341 0.19016 0.21965 0.0
C857 C 0.48504 0.13047 0.2338 0.0
C858 C 0.47567 0.14882 0.24269 0.0
C859 C 0.48509 0.16798 0.2378 0.0
C860 C 0.45604 0.1482 0.25706 0.0
C861 C 0.47509 0.10956 0.2376 0.0
C862 C 0.43776 0.15589 0.24632 0.0
C863 C 0.41883 0.1533 0.25879 0.0
C864 C 0.41793 0.14306 0.28228 0.0
C865 C 0.43649 0.13632 0.2935 0.0
C866 C 0.45536 0.13887 0.28099 0.0
H867 H 0.48188 0.09765 0.22496 0.0
H868 H 0.47748 0.1045 0.25744 0.0
H869 H 0.45816 0.11036 0.23409 0.0
H870 H 0.43803 0.16321 0.22788 0.0
H871 H 0.40486 0.15876 0.24965 0.0
H872 H 0.8529 0.55018 0.14809 0.0
H873 H 0.84936 0.5171 0.17011 0.0
H874 H 0.81864 0.54767 0.23199 0.0
H875 H 0.82188 0.5808 0.21004 0.0
H876 H 0.86676 0.50857 0.21676 0.0
H877 H 0.78169 0.49711 0.21966 0.0
H878 H 0.794 0.51525 0.19842 0.0
H879 H 0.79005 0.52191 0.23104 0.0
C880 C 0.84509 0.54986 0.1662 0.0
C881 C 0.83772 0.56819 0.17731 0.0
C882 C 0.8431 0.53093 0.17876 0.0
C883 C 0.83357 0.5299 0.20257 0.0
C884 C 0.82569 0.54804 0.21342 0.0
H885 H 0.8541 0.43807 0.31874 0.0
H886 H 0.8506 0.46975 0.29385 0.0
C887 C 0.82768 0.567 0.20089 0.0
C888 C 0.83348 0.51021 0.21695 0.0
H889 H 0.80193 0.47511 0.2462 0.0
C890 C 0.85258 0.50119 0.22306 0.0
C891 C 0.81495 0.50054 0.22498 0.0
C892 C 0.79399 0.50906 0.21802 0.0
C893 C 0.8537 0.48298 0.23743 0.0
C894 C 0.83521 0.47371 0.24623 0.0
C895 C 0.81607 0.48242 0.23965 0.0
C896 C 0.83562 0.45487 0.26217 0.0
C897 C 0.87466 0.47371 0.24292 0.0
C898 C 0.82766 0.43616 0.25294 0.0
C899 C 0.82959 0.41799 0.26714 0.0
C900 C 0.83942 0.41826 0.29089 0.0
C901 C 0.84657 0.43725 0.30048 0.0
C902 C 0.84466 0.45538 0.28625 0.0
H903 H 0.88676 0.47983 0.22998 0.0
H904 H 0.87923 0.47757 0.26257 0.0
H905 H 0.8742 0.4566 0.24119 0.0
H906 H 0.82054 0.4355 0.23442 0.0
H907 H 0.82383 0.40367 0.25921 0.0
H908 H 0.57823 0.80899 0.27594 0.0
H909 H 0.54508 0.80248 0.255 0.0
H910 H 0.52017 0.85816 0.28801 0.0
H911 H 0.55283 0.864 0.31014 0.0
H912 H 0.4919 0.82986 0.28811 0.0
H913 H 0.52718 0.83109 0.19258 0.0
H914 H 0.53733 0.81087 0.21218 0.0
H915 H 0.54165 0.83753 0.22056 0.0
C916 C 0.5656 0.81973 0.27884 0.0
C917 C 0.56814 0.83709 0.29449 0.0
C918 C 0.54672 0.8161 0.26671 0.0
C919 C 0.53027 0.83015 0.26929 0.0
C920 C 0.53263 0.84713 0.28558 0.0
H921 H 0.43302 0.85515 0.16457 0.0
H922 H 0.46469 0.85189 0.1891 0.0
C923 C 0.55131 0.85048 0.29821 0.0
C924 C 0.51077 0.8276 0.25468 0.0
H925 H 0.49161 0.8231 0.19479 0.0
C926 C 0.49182 0.82838 0.26769 0.0
C927 C 0.51065 0.82587 0.22798 0.0
C928 C 0.53027 0.8265 0.21248 0.0
C929 C 0.47282 0.82805 0.25479 0.0
C930 C 0.47272 0.82595 0.22814 0.0
C931 C 0.49166 0.82455 0.21522 0.0
C932 C 0.45336 0.82707 0.21296 0.0
C933 C 0.45318 0.83101 0.26982 0.0
C934 C 0.43642 0.81399 0.21784 0.0
C935 C 0.418 0.81616 0.20411 0.0
C936 C 0.41645 0.83102 0.18477 0.0
C937 C 0.43372 0.84346 0.17925 0.0
C938 C 0.45188 0.84161 0.1933 0.0
H939 H 0.45631 0.83799 0.28862 0.0
H940 H 0.44208 0.84108 0.25958 0.0
H941 H 0.44576 0.81574 0.27303 0.0
H942 H 0.43736 0.80221 0.23235 0.0
H943 H 0.40499 0.80623 0.20862 0.0
H944 H 0.84191 0.58188 0.7468 0.0
H945 H 0.83693 0.54826 0.7263 0.0
H946 H 0.8423 0.51778 0.79864 0.0
H947 H 0.84789 0.55105 0.81903 0.0
H948 H 0.86735 0.50099 0.76436 0.0
H949 H 0.78858 0.5086 0.72374 0.0
H950 H 0.80583 0.52897 0.71432 0.0
H951 H 0.7986 0.52637 0.74701 0.0
C952 C 0.84178 0.56802 0.75832 0.0
C953 C 0.84545 0.56908 0.78447 0.0
C954 C 0.83878 0.54884 0.74663 0.0
C955 C 0.83901 0.53055 0.76101 0.0
C956 C 0.84205 0.53171 0.7872 0.0
H957 H 0.83594 0.39907 0.72382 0.0
H958 H 0.83207 0.43226 0.7457 0.0
C959 C 0.8453 0.55074 0.7988 0.0
C960 C 0.8379 0.51003 0.74874 0.0
H961 H 0.80862 0.47969 0.70986 0.0
C962 C 0.85439 0.49626 0.75267 0.0
C963 C 0.82099 0.50392 0.73348 0.0
C964 C 0.8024 0.51766 0.72955 0.0
C965 C 0.85463 0.4767 0.74139 0.0
C966 C 0.83791 0.47076 0.72586 0.0
C967 C 0.82135 0.48439 0.72193 0.0
C968 C 0.83812 0.45081 0.71244 0.0
C969 C 0.87298 0.46268 0.7456 0.0
C970 C 0.84241 0.45045 0.68652 0.0
C971 C 0.84478 0.43163 0.67405 0.0
C972 C 0.84274 0.41283 0.68729 0.0
C973 C 0.83766 0.41327 0.71313 0.0
C974 C 0.83544 0.43217 0.72564 0.0
H975 H 0.88584 0.47065 0.75558 0.0
H976 H 0.86812 0.44916 0.75713 0.0
H977 H 0.87883 0.45676 0.72725 0.0
H978 H 0.84455 0.46474 0.67611 0.0
H979 H 0.84851 0.43185 0.65409 0.0
H980 H 0.57918 0.81452 0.7197 0.0
H981 H 0.54696 0.80616 0.74222 0.0
H982 H 0.51522 0.85392 0.7004 0.0
H983 H 0.54678 0.86179 0.67747 0.0
H984 H 0.52403 0.82847 0.77278 0.0
H985 H 0.47532 0.80756 0.69162 0.0
H986 H 0.50308 0.8099 0.68896 0.0
H987 H 0.48669 0.83235 0.68561 0.0
C988 C 0.56525 0.82308 0.71523 0.0
C989 C 0.56546 0.83867 0.69665 0.0
C990 C 0.54687 0.81825 0.72802 0.0
C991 C 0.52853 0.82899 0.72244 0.0
C992 C 0.52894 0.84485 0.70432 0.0
H993 H 0.43116 0.87157 0.81141 0.0
H994 H 0.46379 0.86137 0.79209 0.0
C995 C 0.5471 0.84947 0.69138 0.0
C996 C 0.50914 0.82499 0.73656 0.0
H997 H 0.45696 0.82275 0.72769 0.0
C998 C 0.50938 0.82671 0.76299 0.0
C999 C 0.49005 0.82193 0.72398 0.0
C1000 C 0.48884 0.81757 0.696 0.0
C1001 C 0.49091 0.82742 0.77687 0.0
C1002 C 0.47176 0.82722 0.76383 0.0
C1003 C 0.47159 0.82351 0.7377 0.0
C1004 C 0.452 0.83276 0.77636 0.0
C1005 C 0.49218 0.8288 0.8053 0.0
C1006 C 0.43417 0.82062 0.77296 0.0
C1007 C 0.41526 0.82681 0.78333 0.0
C1008 C 0.41394 0.84514 0.79749 0.0
C1009 C 0.43177 0.85725 0.80083 0.0
C1010 C 0.45052 0.85128 0.79007 0.0
H1011 H 0.50598 0.82039 0.81248 0.0
H1012 H 0.49389 0.84525 0.8109 0.0
H1013 H 0.47817 0.82232 0.81453 0.0
H1014 H 0.43487 0.80639 0.76222 0.0
H1015 H 0.40177 0.81713 0.78056 0.0
H1016 H 0.13933 0.43478 0.83516 0.0
H1017 H 0.1458 0.46915 0.81767 0.0
H1018 H 0.15612 0.44238 0.74411 0.0
H1019 H 0.15034 0.40779 0.76166 0.0
H1020 H 0.18382 0.47323 0.75477 0.0
H1021 H 0.10355 0.49924 0.77526 0.0
H1022 H 0.11771 0.49075 0.80253 0.0
H1023 H 0.11135 0.47257 0.77803 0.0
C1024 C 0.14303 0.43619 0.81526 0.0
C1025 C 0.14407 0.41861 0.79969 0.0
C1026 C 0.14666 0.45585 0.8053 0.0
C1027 C 0.15096 0.45834 0.7795 0.0
C1028 C 0.1527 0.44078 0.76407 0.0
H1029 H 0.15029 0.54826 0.66498 0.0
H1030 H 0.15525 0.51828 0.69232 0.0
C1031 C 0.14936 0.42105 0.77409 0.0
C1032 C 0.15296 0.47924 0.76833 0.0
H1033 H 0.12601 0.52368 0.75688 0.0
C1034 C 0.17124 0.48432 0.75538 0.0
C1035 C 0.13651 0.49369 0.76922 0.0
C1036 C 0.1161 0.48878 0.7818 0.0
C1037 C 0.17334 0.50332 0.74279 0.0
C1038 C 0.15672 0.51747 0.74318 0.0
C1039 C 0.13877 0.51278 0.75691 0.0
C1040 C 0.15647 0.53601 0.72691 0.0
C1041 C 0.1931 0.50799 0.72872 0.0
C1042 C 0.15555 0.5559 0.73742 0.0
C1043 C 0.1528 0.57317 0.72179 0.0
C1044 C 0.15049 0.57064 0.69554 0.0
C1045 C 0.1519 0.5507 0.68514 0.0
C1046 C 0.15491 0.53356 0.70069 0.0
H1047 H 0.20611 0.49821 0.73545 0.0
H1048 H 0.19074 0.50487 0.7083 0.0
H1049 H 0.19744 0.52453 0.73081 0.0
H1050 H 0.15651 0.55798 0.7577 0.0
H1051 H 0.15171 0.58835 0.7303 0.0
H1052 H 0.40139 0.15579 0.71452 0.0
H1053 H 0.43374 0.1608 0.73789 0.0
H1054 H 0.46872 0.14539 0.67115 0.0
H1055 H 0.43658 0.14018 0.64767 0.0
H1056 H 0.46442 0.12562 0.74003 0.0
H1057 H 0.49663 0.19943 0.70248 0.0
H1058 H 0.46923 0.19372 0.70221 0.0
H1059 H 0.48611 0.18139 0.67997 0.0
C1060 C 0.41596 0.15381 0.7047 0.0
C1061 C 0.41643 0.14744 0.6793 0.0
C1062 C 0.43438 0.1567 0.71806 0.0
C1063 C 0.4535 0.15364 0.70611 0.0
C1064 C 0.45406 0.14809 0.68054 0.0
H1065 H 0.58152 0.14537 0.75373 0.0
H1066 H 0.54933 0.14995 0.72974 0.0
C1067 C 0.43568 0.14498 0.66724 0.0
C1068 C 0.47279 0.15383 0.72098 0.0
H1069 H 0.51841 0.17958 0.72917 0.0
C1070 C 0.47618 0.13749 0.73788 0.0
C1071 C 0.48811 0.16918 0.71765 0.0
C1072 C 0.48492 0.18704 0.69971 0.0
C1073 C 0.49474 0.13586 0.75137 0.0
C1074 C 0.51003 0.15139 0.74842 0.0
C1075 C 0.50661 0.16778 0.73147 0.0
C1076 C 0.52963 0.1507 0.76283 0.0
C1077 C 0.49803 0.11714 0.76803 0.0
C1078 C 0.52923 0.15032 0.78931 0.0
C1079 C 0.54743 0.1474 0.80295 0.0
C1080 C 0.56647 0.14524 0.79038 0.0
C1081 C 0.56705 0.14689 0.76389 0.0
C1082 C 0.54871 0.14952 0.75019 0.0
H1083 H 0.48776 0.10411 0.76251 0.0
H1084 H 0.51433 0.11176 0.76721 0.0
H1085 H 0.49437 0.12125 0.78788 0.0
H1086 H 0.51473 0.15179 0.79943 0.0
H1087 H 0.54655 0.14658 0.82338 0.0
H1088 H 0.66734 0.07649 0.77893 0.0
H1089 H 0.67136 0.04297 0.75814 0.0
H1090 H 0.6159 0.02095 0.79488 0.0
H1091 H 0.61243 0.05404 0.81671 0.0
H1092 H 0.64333 -0.00855 0.79381 0.0
H1093 H 0.63888 0.02585 0.69792 0.0
H1094 H 0.66026 0.03564 0.71589 0.0
H1095 H 0.63415 0.04073 0.72608 0.0
C1096 C 0.65611 0.06442 0.78271 0.0
C1097 C 0.63948 0.06793 0.79929 0.0
C1098 C 0.65832 0.04533 0.77065 0.0
C1099 C 0.6436 0.02961 0.77434 0.0
C1100 C 0.6274 0.03287 0.79159 0.0
H1101 H 0.61424 0.93009 0.67309 0.0
H1102 H 0.61763 0.96238 0.69645 0.0
C1103 C 0.62543 0.05179 0.80407 0.0
C1104 C 0.64471 0.00991 0.75993 0.0
H1105 H 0.64638 0.99011 0.70017 0.0
C1106 C 0.64399 0.99115 0.77332 0.0
C1107 C 0.64527 0.00951 0.73316 0.0
C1108 C 0.64446 0.029 0.71741 0.0
C1109 C 0.64353 0.97203 0.76076 0.0
C1110 C 0.64469 0.97162 0.73401 0.0
C1111 C 0.64571 0.99039 0.72066 0.0
C1112 C 0.64342 0.95205 0.71937 0.0
C1113 C 0.64092 0.95259 0.77629 0.0
C1114 C 0.65706 0.93556 0.72403 0.0
C1115 C 0.65488 0.91687 0.71098 0.0
C1116 C 0.63939 0.91455 0.69253 0.0
C1117 C 0.62638 0.93139 0.68712 0.0
C1118 C 0.6283 0.94988 0.70049 0.0
H1119 H 0.63438 0.95596 0.79527 0.0
H1120 H 0.6306 0.94134 0.76667 0.0
H1121 H 0.65626 0.94524 0.7791 0.0
H1122 H 0.66929 0.93706 0.73789 0.0
H1123 H 0.66528 0.90423 0.71538 0.0
H1124 H 0.93582 0.62196 0.8064 0.0
H1125 H 0.96874 0.62599 0.78437 0.0
H1126 H 0.94291 0.67557 0.7397 0.0
H1127 H 0.90957 0.67091 0.76091 0.0
H1128 H 0.96263 0.65065 0.7104 0.0
H1129 H 0.01399 0.66691 0.79125 0.0
H1130 H 0.00051 0.64302 0.79614 0.0
H1131 H 0.98619 0.66691 0.79427 0.0
C1132 C 0.93722 0.63393 0.79215 0.0
C1133 C 0.92011 0.64616 0.78545 0.0
C1134 C 0.95613 0.63632 0.77966 0.0
C1135 C 0.95851 0.65138 0.76069 0.0
C1136 C 0.94152 0.6639 0.75433 0.0
H1137 H 0.08301 0.67098 0.69942 0.0
H1138 H 0.04946 0.67668 0.71969 0.0
C1139 C 0.92248 0.66125 0.76649 0.0
C1140 C 0.97823 0.65302 0.74631 0.0
H1141 H 0.03071 0.6547 0.75334 0.0
C1142 C 0.9775 0.65185 0.7198 0.0
C1143 C -0.00233 0.65502 0.75842 0.0
C1144 C -0.00038 0.65827 0.78656 0.0
C1145 C -0.00436 0.65178 0.70519 0.0
C1146 C 0.01512 0.65208 0.71746 0.0
C1147 C 0.01583 0.65412 0.74388 0.0
C1148 C 0.03492 0.64959 0.70345 0.0
C1149 C -0.00636 0.65156 0.67677 0.0
C1150 C 0.03796 0.63254 0.68746 0.0
C1151 C 0.05698 0.62949 0.67547 0.0
C1152 C 0.07357 0.64312 0.67976 0.0
C1153 C 0.07053 0.66021 0.69573 0.0
C1154 C 0.05137 0.66346 0.70736 0.0
H1155 H 0.97893 0.65891 0.67061 0.0
H1156 H 0.00672 0.65975 0.66752 0.0
H1157 H -0.0066 0.6353 0.67009 0.0
H1158 H 0.02581 0.62122 0.68476 0.0
H1159 H 0.05891 0.61601 0.66357 0.0
H1160 H 0.32353 0.08669 0.71551 0.0
H1161 H 0.31956 0.0545 0.73952 0.0
H1162 H 0.35145 0.02115 0.68081 0.0
H1163 H 0.35559 0.05314 0.65668 0.0
H1164 H 0.30142 0.01438 0.72505 0.0
H1165 H 0.3855 0.01097 0.74696 0.0
H1166 H 0.37299 0.03426 0.73591 0.0
H1167 H 0.37919 0.01397 0.71406 0.0
C1168 C 0.32956 0.07249 0.70758 0.0
C1169 C 0.34005 0.07256 0.68425 0.0
C1170 C 0.32723 0.05412 0.72132 0.0
C1171 C 0.33544 0.03556 0.71205 0.0
C1172 C 0.34524 0.0354 0.6884 0.0
H1173 H 0.32265 0.90859 0.76208 0.0
H1174 H 0.31947 0.94162 0.73979 0.0
C1175 C 0.34754 0.05371 0.67462 0.0
C1176 C 0.3346 0.01649 0.72754 0.0
H1177 H 0.36533 0.98195 0.7587 0.0
C1178 C 0.31535 0.00728 0.7325 0.0
C1179 C 0.35281 0.00747 0.73746 0.0
C1180 C 0.37381 0.01722 0.73357 0.0
C1181 C 0.31387 0.98895 0.74673 0.0
C1182 C 0.33216 0.97962 0.75602 0.0
C1183 C 0.35135 0.98909 0.75144 0.0
C1184 C 0.33193 0.95994 0.77042 0.0
C1185 C 0.29281 0.97982 0.75195 0.0
C1186 C 0.33996 0.95929 0.79503 0.0
C1187 C 0.34188 0.94045 0.80779 0.0
C1188 C 0.33596 0.92183 0.7961 0.0
C1189 C 0.32731 0.92262 0.77169 0.0
C1190 C 0.32538 0.94151 0.75895 0.0
H1191 H 0.28028 0.99134 0.74901 0.0
H1192 H 0.29007 0.96671 0.73887 0.0
H1193 H 0.29185 0.97383 0.7716 0.0
H1194 H 0.34517 0.97334 0.80418 0.0
H1195 H 0.34858 0.94046 0.82656 0.0
H1196 H 0.05155 0.35268 0.81861 0.0
H1197 H 0.01883 0.34877 0.7959 0.0
H1198 H 0.05133 0.3228 0.73227 0.0
H1199 H 0.08414 0.32651 0.75484 0.0
H1200 H 0.00967 0.3676 0.74905 0.0
H1201 H 0.00292 0.28201 0.74402 0.0
H1202 H 0.01992 0.29492 0.76606 0.0
H1203 H 0.02723 0.29246 0.73344 0.0
C1204 C 0.05175 0.3459 0.79991 0.0
C1205 C 0.07051 0.33992 0.78856 0.0
C1206 C 0.03303 0.3437 0.78696 0.0
C1207 C 0.03265 0.33533 0.76252 0.0
C1208 C 0.05125 0.32898 0.75128 0.0
H1209 H 0.93347 0.35226 0.65303 0.0
H1210 H 0.96719 0.34994 0.67389 0.0
C1211 C 0.07001 0.33122 0.76418 0.0
C1212 C 0.01296 0.33448 0.74823 0.0
H1213 H 0.97857 0.3015 0.72027 0.0
C1214 C 0.00285 0.35316 0.74276 0.0
C1215 C 0.00408 0.31559 0.74021 0.0
C1216 C 0.01396 0.29506 0.74637 0.0
C1217 C 0.98414 0.35349 0.72933 0.0
C1218 C 0.97545 0.33464 0.72089 0.0
C1219 C 0.98544 0.31592 0.72654 0.0
C1220 C 0.95554 0.33414 0.70706 0.0
C1221 C 0.9736 0.37397 0.72469 0.0
C1222 C 0.93801 0.32534 0.71841 0.0
C1223 C 0.91873 0.3266 0.70656 0.0
C1224 C 0.91665 0.33661 0.68303 0.0
C1225 C 0.93448 0.34454 0.67118 0.0
C1226 C 0.95375 0.34332 0.6831 0.0
H1227 H 0.98 0.38642 0.73686 0.0
H1228 H 0.97587 0.37858 0.70466 0.0
H1229 H 0.9567 0.37273 0.7282 0.0
H1230 H 0.93913 0.31812 0.73686 0.0
H1231 H 0.90536 0.32022 0.71618 0.0
H1232 H 0.37262 0.04844 0.28643 0.0
H1233 H 0.36518 0.01634 0.2643 0.0
H1234 H 0.30961 0.04326 0.23318 0.0
H1235 H 0.31747 0.07597 0.25471 0.0
H1236 H 0.33272 0.99112 0.27001 0.0
H1237 H 0.33627 0.01959 0.17074 0.0
H1238 H 0.34498 0.03501 0.19704 0.0
H1239 H 0.31778 0.03221 0.19082 0.0
C1240 C 0.35888 0.04762 0.27472 0.0
C1241 C 0.34564 0.06471 0.27224 0.0
C1242 C 0.35461 0.02924 0.26214 0.0
C1243 C 0.33689 0.02741 0.247 0.0
C1244 C 0.32357 0.04445 0.24439 0.0
H1245 H 0.31649 0.89841 0.19702 0.0
H1246 H 0.30863 0.93212 0.21593 0.0
C1247 C 0.32804 0.06308 0.25672 0.0
C1248 C 0.33264 0.00739 0.23447 0.0
H1249 H 0.33083 0.98405 0.17677 0.0
C1250 C 0.33208 0.98954 0.24961 0.0
C1251 C 0.33174 0.00546 0.20788 0.0
C1252 C 0.33287 0.02403 0.19059 0.0
C1253 C 0.33209 0.96972 0.23892 0.0
C1254 C 0.33186 0.96776 0.21229 0.0
C1255 C 0.33102 0.98564 0.19718 0.0
C1256 C 0.33527 0.9476 0.19971 0.0
C1257 C 0.33379 0.95121 0.25625 0.0
C1258 C 0.35238 0.94531 0.18364 0.0
C1259 C 0.35662 0.9263 0.17247 0.0
C1260 C 0.34397 0.90907 0.17737 0.0
C1261 C 0.32666 0.91137 0.19323 0.0
C1262 C 0.3222 0.93058 0.20408 0.0
H1263 H 0.3383 0.95568 0.27575 0.0
H1264 H 0.31857 0.9433 0.25731 0.0
H1265 H 0.34536 0.94 0.249 0.0
H1266 H 0.36272 0.95819 0.18006 0.0
H1267 H 0.37007 0.92503 0.16036 0.0
H1268 H 0.93615 0.35451 0.32574 0.0
H1269 H 0.9681 0.34735 0.30264 0.0
H1270 H 0.93266 0.32388 0.2399 0.0
H1271 H 0.90048 0.33089 0.26285 0.0
H1272 H 0.98166 0.30605 0.27518 0.0
H1273 H 0.96963 0.37669 0.21634 0.0
H1274 H 0.95787 0.37371 0.24711 0.0
H1275 H 0.94813 0.35929 0.22076 0.0
C1276 C 0.9351 0.34766 0.30711 0.0
C1277 C 0.91576 0.34346 0.29601 0.0
C1278 C 0.95337 0.34348 0.29405 0.0
C1279 C 0.9526 0.33516 0.26967 0.0
C1280 C 0.93343 0.33031 0.25878 0.0
H1281 H 0.04686 0.33328 0.15428 0.0
H1282 H 0.01476 0.32879 0.1779 0.0
C1283 C 0.91512 0.33437 0.27189 0.0
C1284 C 0.9718 0.33318 0.25488 0.0
H1285 H -0.00043 0.35726 0.20871 0.0
C1286 C 0.98563 0.31712 0.26052 0.0
C1287 C 0.97676 0.34772 0.2359 0.0
C1288 C 0.96244 0.36543 0.2296 0.0
C1289 C 0.00441 0.31513 0.24737 0.0
C1290 C 0.00955 0.32992 0.22864 0.0
C1291 C -0.00443 0.3459 0.22301 0.0
C1292 C 0.0294 0.32955 0.21468 0.0
C1293 C 0.01836 0.29709 0.25339 0.0
C1294 C 0.04837 0.33104 0.22753 0.0
C1295 C 0.06685 0.33337 0.21402 0.0
C1296 C 0.06652 0.33467 0.18751 0.0
C1297 C 0.04757 0.33253 0.17473 0.0
C1298 C 0.02922 0.32991 0.18818 0.0
H1299 H 0.00961 0.28412 0.26216 0.0
H1300 H 0.02624 0.29131 0.23614 0.0
H1301 H 0.03037 0.30213 0.26705 0.0
H1302 H 0.04883 0.33129 0.24799 0.0
H1303 H 0.08122 0.33509 0.22434 0.0
H1304 H 0.64757 0.90049 0.25331 0.0
H1305 H 0.65243 0.93322 0.23062 0.0
H1306 H 0.64402 0.96679 0.30027 0.0
H1307 H 0.63861 0.93436 0.32284 0.0
H1308 H 0.61972 0.98137 0.26331 0.0
H1309 H 0.70019 0.97378 0.22782 0.0
H1310 H 0.68363 0.95265 0.21914 0.0
H1311 H 0.68968 0.95696 0.25189 0.0
C1312 C 0.64701 0.91484 0.2638 0.0
C1313 C 0.64257 0.91486 0.28981 0.0
C1314 C 0.64993 0.93352 0.25085 0.0
C1315 C 0.64882 0.95242 0.26383 0.0
C1316 C 0.64497 0.95238 0.28991 0.0
H1317 H 0.65465 0.08231 0.22226 0.0
H1318 H 0.65765 0.04909 0.24435 0.0
C1319 C 0.64183 0.93381 0.30276 0.0
C1320 C 0.64997 0.97238 0.25014 0.0
H1321 H 0.6804 0.00199 0.21155 0.0
C1322 C 0.63307 0.98592 0.25216 0.0
C1323 C 0.66739 0.97826 0.23557 0.0
C1324 C 0.68634 0.96475 0.23362 0.0
C1325 C 0.63302 0.00509 0.23983 0.0
C1326 C 0.65031 0.01085 0.22512 0.0
C1327 C 0.66722 -0.0026 0.22296 0.0
C1328 C 0.65063 0.03067 0.21138 0.0
C1329 C 0.6144 0.01902 0.24225 0.0
C1330 C 0.646 0.0311 0.18554 0.0
C1331 C 0.64411 0.04998 0.17292 0.0
C1332 C 0.64694 0.06873 0.18595 0.0
C1333 C 0.65234 0.06816 0.2117 0.0
C1334 C 0.65409 0.04924 0.22434 0.0
H1335 H 0.60139 0.01138 0.25235 0.0
H1336 H 0.61879 0.03318 0.2528 0.0
H1337 H 0.60897 0.02391 0.22323 0.0
H1338 H 0.64324 0.01685 0.17533 0.0
H1339 H 0.64008 0.04985 0.15305 0.0
H1340 H 0.07817 0.64744 0.25083 0.0
H1341 H 0.04493 0.65325 0.22986 0.0
H1342 H 0.01351 0.64752 0.30152 0.0
H1343 H 0.04652 0.64102 0.32242 0.0
H1344 H -0.00314 0.623 0.26731 0.0
H1345 H 0.00547 0.70115 0.22561 0.0
H1346 H 0.02607 0.68413 0.21654 0.0
H1347 H 0.02305 0.69123 0.24923 0.0
C1348 C 0.0642 0.64775 0.26215 0.0
C1349 C 0.06492 0.64362 0.28822 0.0
C1350 C 0.04523 0.65124 0.25018 0.0
C1351 C 0.02675 0.65109 0.26418 0.0
C1352 C 0.02758 0.64775 0.29037 0.0
H1353 H 0.89705 0.65274 0.21626 0.0
H1354 H 0.92876 0.65817 0.24084 0.0
C1355 C 0.04645 0.64398 0.30226 0.0
C1356 C 0.00643 0.65217 0.25131 0.0
H1357 H 0.97776 0.6802 0.2092 0.0
C1358 C -0.00743 0.63568 0.25493 0.0
C1359 C 0.00087 0.66872 0.23513 0.0
C1360 C 0.01457 0.6874 0.23158 0.0
C1361 C 0.97359 0.63496 0.24222 0.0
C1362 C 0.96835 0.65115 0.22548 0.0
C1363 C 0.98194 0.66784 0.22212 0.0
C1364 C 0.94935 0.65012 0.21018 0.0
C1365 C 0.95949 0.6166 0.24607 0.0
C1366 C 0.95062 0.64414 0.18481 0.0
C1367 C 0.93263 0.64085 0.17082 0.0
C1368 C 0.91306 0.64364 0.18195 0.0
C1369 C 0.91188 0.65041 0.20717 0.0
C1370 C 0.92993 0.65355 0.22121 0.0
H1371 H 0.96671 0.60441 0.25799 0.0
H1372 H 0.94498 0.62174 0.25535 0.0
H1373 H 0.95525 0.60976 0.22754 0.0
H1374 H 0.96554 0.64138 0.17609 0.0
H1375 H 0.9341 0.6358 0.15139 0.0
loop_
_geom_bond_atom_site_label_1
_geom_bond_atom_site_label_2
_geom_bond_distance
_geom_bond_site_symmetry_2
_ccdc_geom_bond_type
C0 O1 1.306 . S
C0 O3 1.160 . S
O1 C0 1.306 . S
O1 Cd2 2.228 . S
Cd2 O1 2.228 . S
Cd2 O6 2.273 . S
Cd2 O10 2.277 . S
O3 C0 1.160 . S
O3 Cd4 2.203 . S
Cd4 O3 2.203 . S
Cd4 O6 2.411 . S
Cd4 O7 2.333 . S
Cd4 O8 2.352 . S
Cd4 O12 2.277 . S
Cd4 O13 2.356 . S
C5 O10 1.209 . S
C5 O12 1.226 . S
O6 Cd2 2.273 . S
O6 Cd4 2.411 . S
O6 C9 1.320 . S
O7 Cd4 2.333 . S
O7 C9 1.214 . S
O8 Cd4 2.352 . S
O8 C11 1.258 . S
C9 O6 1.320 . S
C9 O7 1.214 . S
O10 Cd2 2.277 . S
O10 C5 1.209 . S
C11 O8 1.258 . S
C11 O13 1.282 . S
O12 Cd4 2.277 . S
O12 C5 1.226 . S
O13 Cd4 2.356 . S
O13 C11 1.282 . S
C14 O15 1.306 . S
C14 O17 1.160 . S
O15 C14 1.306 . S
O15 Cd16 2.228 . S
Cd16 O15 2.228 . S
Cd16 O20 2.273 . S
Cd16 O24 2.277 . S
O17 C14 1.160 . S
O17 Cd18 2.203 . S
Cd18 O17 2.203 . S
Cd18 O20 2.411 . S
Cd18 O21 2.333 . S
Cd18 O22 2.352 . S
Cd18 O26 2.277 . S
Cd18 O27 2.356 . S
C19 O24 1.209 . S
C19 O26 1.226 . S
O20 Cd16 2.273 . S
O20 Cd18 2.411 . S
O20 C23 1.320 . S
O21 Cd18 2.333 . S
O21 C23 1.214 . S
O22 Cd18 2.352 . S
O22 C25 1.258 . S
C23 O20 1.320 . S
C23 O21 1.214 . S
O24 Cd16 2.277 . S
O24 C19 1.209 . S
C25 O22 1.258 . S
C25 O27 1.282 . S
O26 Cd18 2.277 . S
O26 C19 1.226 . S
O27 Cd18 2.356 . S
O27 C25 1.282 . S
C28 O29 1.306 . S
C28 O31 1.160 . S
O29 C28 1.306 . S
O29 Cd30 2.228 . S
Cd30 O29 2.228 . S
Cd30 O34 2.273 . S
Cd30 O38 2.277 . S
O31 C28 1.160 . S
O31 Cd32 2.203 . S
Cd32 O31 2.203 . S
Cd32 O34 2.411 . S
Cd32 O35 2.333 . S
Cd32 O36 2.352 . S
Cd32 O40 2.277 . S
Cd32 O41 2.356 . S
C33 O38 1.209 . S
C33 O40 1.226 . S
O34 Cd30 2.273 . S
O34 Cd32 2.411 . S
O34 C37 1.320 . S
O35 Cd32 2.333 . S
O35 C37 1.214 . S
O36 Cd32 2.352 . S
O36 C39 1.258 . S
C37 O34 1.320 . S
C37 O35 1.214 . S
O38 Cd30 2.277 . S
O38 C33 1.209 . S
C39 O36 1.258 . S
C39 O41 1.282 . S
O40 Cd32 2.277 . S
O40 C33 1.226 . S
O41 Cd32 2.356 . S
O41 C39 1.282 . S
C42 O43 1.306 . S
C42 O45 1.160 . S
O43 C42 1.306 . S
O43 Cd44 2.228 . S
Cd44 O43 2.228 . S
Cd44 O48 2.273 . S
Cd44 O52 2.277 . S
O45 C42 1.160 . S
O45 Cd46 2.203 . S
Cd46 O45 2.203 . S
Cd46 O48 2.411 . S
Cd46 O49 2.333 . S
Cd46 O50 2.352 . S
Cd46 O54 2.277 . S
Cd46 O55 2.356 . S
C47 O52 1.209 . S
C47 O54 1.226 . S
O48 Cd44 2.273 . S
O48 Cd46 2.411 . S
O48 C51 1.320 . S
O49 Cd46 2.333 . S
O49 C51 1.214 . S
O50 Cd46 2.352 . S
O50 C53 1.258 . S
C51 O48 1.320 . S
C51 O49 1.214 . S
O52 Cd44 2.277 . S
O52 C47 1.209 . S
C53 O50 1.258 . S
C53 O55 1.282 . S
O54 Cd46 2.277 . S
O54 C47 1.226 . S
O55 Cd46 2.356 . S
O55 C53 1.282 . S
C56 O57 1.306 . S
C56 O59 1.160 . S
O57 C56 1.306 . S
O57 Cd58 2.228 . S
Cd58 O57 2.228 . S
Cd58 O62 2.273 . S
Cd58 O66 2.277 . S
O59 C56 1.160 . S
O59 Cd60 2.203 . S
Cd60 O59 2.203 . S
Cd60 O62 2.411 . S
Cd60 O63 2.333 . S
Cd60 O64 2.352 . S
Cd60 O68 2.277 . S
Cd60 O69 2.356 . S
C61 O66 1.209 . S
C61 O68 1.226 . S
O62 Cd58 2.273 . S
O62 Cd60 2.411 . S
O62 C65 1.320 . S
O63 Cd60 2.333 . S
O63 C65 1.214 . S
O64 Cd60 2.352 . S
O64 C67 1.258 . S
C65 O62 1.320 . S
C65 O63 1.214 . S
O66 Cd58 2.277 . S
O66 C61 1.209 . S
C67 O64 1.258 . S
C67 O69 1.282 . S
O68 Cd60 2.277 . S
O68 C61 1.226 . S
O69 Cd60 2.356 . S
O69 C67 1.282 . S
C70 O71 1.306 . S
C70 O73 1.160 . S
O71 C70 1.306 . S
O71 Cd72 2.228 . S
Cd72 O71 2.228 . S
Cd72 O76 2.273 . S
Cd72 O80 2.277 . S
O73 C70 1.160 . S
O73 Cd74 2.203 . S
Cd74 O73 2.203 . S
Cd74 O76 2.411 . S
Cd74 O77 2.333 . S
Cd74 O78 2.352 . S
Cd74 O82 2.277 . S
Cd74 O83 2.356 . S
C75 O80 1.209 . S
C75 O82 1.226 . S
O76 Cd72 2.273 . S
O76 Cd74 2.411 . S
O76 C79 1.320 . S
O77 Cd74 2.333 . S
O77 C79 1.214 . S
O78 Cd74 2.352 . S
O78 C81 1.258 . S
C79 O76 1.320 . S
C79 O77 1.214 . S
O80 Cd72 2.277 . S
O80 C75 1.209 . S
C81 O78 1.258 . S
C81 O83 1.282 . S
O82 Cd74 2.277 . S
O82 C75 1.226 . S
O83 Cd74 2.356 . S
O83 C81 1.282 . S
C84 O85 1.306 . S
C84 O87 1.160 . S
O85 C84 1.306 . S
O85 Cd86 2.228 . S
Cd86 O85 2.228 . S
Cd86 O90 2.273 . S
Cd86 O94 2.277 . S
O87 C84 1.160 . S
O87 Cd88 2.203 . S
Cd88 O87 2.203 . S
Cd88 O90 2.411 . S
Cd88 O91 2.333 . S
Cd88 O92 2.352 . S
Cd88 O96 2.277 . S
Cd88 O97 2.356 . S
C89 O94 1.209 . S
C89 O96 1.226 . S
O90 Cd86 2.273 . S
O90 Cd88 2.411 . S
O90 C93 1.320 . S
O91 Cd88 2.333 . S
O91 C93 1.214 . S
O92 Cd88 2.352 . S
O92 C95 1.258 . S
C93 O90 1.320 . S
C93 O91 1.214 . S
O94 Cd86 2.277 . S
O94 C89 1.209 . S
C95 O92 1.258 . S
C95 O97 1.282 . S
O96 Cd88 2.277 . S
O96 C89 1.226 . S
O97 Cd88 2.356 . S
O97 C95 1.282 . S
C98 O99 1.306 . S
C98 O101 1.160 . S
O99 C98 1.306 . S
O99 Cd100 2.228 . S
Cd100 O99 2.228 . S
Cd100 O104 2.273 . S
Cd100 O108 2.277 . S
O101 C98 1.160 . S
O101 Cd102 2.203 . S
Cd102 O101 2.203 . S
Cd102 O104 2.411 . S
Cd102 O105 2.333 . S
Cd102 O106 2.352 . S
Cd102 O110 2.277 . S
Cd102 O111 2.356 . S
C103 O108 1.209 . S
C103 O110 1.226 . S
O104 Cd100 2.273 . S
O104 Cd102 2.411 . S
O104 C107 1.320 . S
O105 Cd102 2.333 . S
O105 C107 1.214 . S
O106 Cd102 2.352 . S
O106 C109 1.258 . S
C107 O104 1.320 . S
C107 O105 1.214 . S
O108 Cd100 2.277 . S
O108 C103 1.209 . S
C109 O106 1.258 . S
C109 O111 1.282 . S
O110 Cd102 2.277 . S
O110 C103 1.226 . S
O111 Cd102 2.356 . S
O111 C109 1.282 . S
C112 O113 1.306 . S
C112 O115 1.160 . S
O113 C112 1.306 . S
O113 Cd114 2.228 . S
Cd114 O113 2.228 . S
Cd114 O118 2.273 . S
Cd114 O122 2.277 . S
O115 C112 1.160 . S
O115 Cd116 2.203 . S
Cd116 O115 2.203 . S
Cd116 O118 2.411 . S
Cd116 O119 2.333 . S
Cd116 O120 2.352 . S
Cd116 O124 2.277 . S
Cd116 O125 2.356 . S
C117 O122 1.209 . S
C117 O124 1.226 . S
O118 Cd114 2.273 . S
O118 Cd116 2.411 . S
O118 C121 1.320 . S
O119 Cd116 2.333 . S
O119 C121 1.214 . S
O120 Cd116 2.352 . S
O120 C123 1.258 . S
C121 O118 1.320 . S
C121 O119 1.214 . S
O122 Cd114 2.277 . S
O122 C117 1.209 . S
C123 O120 1.258 . S
C123 O125 1.282 . S
O124 Cd116 2.277 . S
O124 C117 1.226 . S
O125 Cd116 2.356 . S
O125 C123 1.282 . S
C126 O127 1.306 . S
C126 O129 1.160 . S
O127 C126 1.306 . S
O127 Cd128 2.228 . S
Cd128 O127 2.228 . S
Cd128 O132 2.273 . S
Cd128 O136 2.277 . S
O129 C126 1.160 . S
O129 Cd130 2.203 . S
Cd130 O129 2.203 . S
Cd130 O132 2.411 . S
Cd130 O133 2.333 . S
Cd130 O134 2.352 . S
Cd130 O138 2.277 . S
Cd130 O139 2.356 . S
C131 O136 1.209 . S
C131 O138 1.226 . S
O132 Cd128 2.273 . S
O132 Cd130 2.411 . S
O132 C135 1.320 . S
O133 Cd130 2.333 . S
O133 C135 1.214 . S
O134 Cd130 2.352 . S
O134 C137 1.258 . S
C135 O132 1.320 . S
C135 O133 1.214 . S
O136 Cd128 2.277 . S
O136 C131 1.209 . S
C137 O134 1.258 . S
C137 O139 1.282 . S
O138 Cd130 2.277 . S
O138 C131 1.226 . S
O139 Cd130 2.356 . S
O139 C137 1.282 . S
C140 O141 1.306 . S
C140 O143 1.160 . S
O141 C140 1.306 . S
O141 Cd142 2.228 . S
Cd142 O141 2.228 . S
Cd142 O146 2.273 . S
Cd142 O150 2.277 . S
O143 C140 1.160 . S
O143 Cd144 2.203 . S
Cd144 O143 2.203 . S
Cd144 O146 2.411 . S
Cd144 O147 2.333 . S
Cd144 O148 2.352 . S
Cd144 O152 2.277 . S
Cd144 O153 2.356 . S
C145 O150 1.209 . S
C145 O152 1.226 . S
O146 Cd142 2.273 . S
O146 Cd144 2.411 . S
O146 C149 1.320 . S
O147 Cd144 2.333 . S
O147 C149 1.214 . S
O148 Cd144 2.352 . S
O148 C151 1.258 . S
C149 O146 1.320 . S
C149 O147 1.214 . S
O150 Cd142 2.277 . S
O150 C145 1.209 . S
C151 O148 1.258 . S
C151 O153 1.282 . S
O152 Cd144 2.277 . S
O152 C145 1.226 . S
O153 Cd144 2.356 . S
O153 C151 1.282 . S
C154 O155 1.306 . S
C154 O157 1.160 . S
O155 C154 1.306 . S
O155 Cd156 2.228 . S
Cd156 O155 2.228 . S
Cd156 O160 2.273 . S
Cd156 O164 2.277 . S
O157 C154 1.160 . S
O157 Cd158 2.203 . S
Cd158 O157 2.203 . S
Cd158 O160 2.411 . S
Cd158 O161 2.333 . S
Cd158 O162 2.352 . S
Cd158 O166 2.277 . S
Cd158 O167 2.356 . S
C159 O164 1.209 . S
C159 O166 1.226 . S
O160 Cd156 2.273 . S
O160 Cd158 2.411 . S
O160 C163 1.320 . S
O161 Cd158 2.333 . S
O161 C163 1.214 . S
O162 Cd158 2.352 . S
O162 C165 1.258 . S
C163 O160 1.320 . S
C163 O161 1.214 . S
O164 Cd156 2.277 . S
O164 C159 1.209 . S
C165 O162 1.258 . S
C165 O167 1.282 . S
O166 Cd158 2.277 . S
O166 C159 1.226 . S
O167 Cd158 2.356 . S
O167 C165 1.282 . S
C168 O169 1.306 . S
C168 O171 1.160 . S
O169 C168 1.306 . S
O169 Cd170 2.228 . S
Cd170 O169 2.228 . S
Cd170 O174 2.273 . S
Cd170 O178 2.277 . S
O171 C168 1.160 . S
O171 Cd172 2.203 . S
Cd172 O171 2.203 . S
Cd172 O174 2.411 . S
Cd172 O175 2.333 . S
Cd172 O176 2.352 . S
Cd172 O180 2.277 . S
Cd172 O181 2.356 . S
C173 O178 1.209 . S
C173 O180 1.226 . S
O174 Cd170 2.273 . S
O174 Cd172 2.411 . S
O174 C177 1.320 . S
O175 Cd172 2.333 . S
O175 C177 1.214 . S
O176 Cd172 2.352 . S
O176 C179 1.258 . S
C177 O174 1.320 . S
C177 O175 1.214 . S
O178 Cd170 2.277 . S
O178 C173 1.209 . S
C179 O176 1.258 . S
C179 O181 1.282 . S
O180 Cd172 2.277 . S
O180 C173 1.226 . S
O181 Cd172 2.356 . S
O181 C179 1.282 . S
C182 O183 1.306 . S
C182 O185 1.160 . S
O183 C182 1.306 . S
O183 Cd184 2.228 . S
Cd184 O183 2.228 . S
Cd184 O188 2.273 . S
Cd184 O192 2.277 . S
O185 C182 1.160 . S
O185 Cd186 2.203 . S
Cd186 O185 2.203 . S
Cd186 O188 2.411 . S
Cd186 O189 2.333 . S
Cd186 O190 2.352 . S
Cd186 O194 2.277 . S
Cd186 O195 2.356 . S
C187 O192 1.209 . S
C187 O194 1.226 . S
O188 Cd184 2.273 . S
O188 Cd186 2.411 . S
O188 C191 1.320 . S
O189 Cd186 2.333 . S
O189 C191 1.214 . S
O190 Cd186 2.352 . S
O190 C193 1.258 . S
C191 O188 1.320 . S
C191 O189 1.214 . S
O192 Cd184 2.277 . S
O192 C187 1.209 . S
C193 O190 1.258 . S
C193 O195 1.282 . S
O194 Cd186 2.277 . S
O194 C187 1.226 . S
O195 Cd186 2.356 . S
O195 C193 1.282 . S
C196 O197 1.306 . S
C196 O199 1.160 . S
O197 C196 1.306 . S
O197 Cd198 2.228 . S
Cd198 O197 2.228 . S
Cd198 O202 2.273 . S
Cd198 O206 2.277 . S
O199 C196 1.160 . S
O199 Cd200 2.203 . S
Cd200 O199 2.203 . S
Cd200 O202 2.411 . S
Cd200 O203 2.333 . S
Cd200 O204 2.352 . S
Cd200 O208 2.277 . S
Cd200 O209 2.356 . S
C201 O206 1.209 . S
C201 O208 1.226 . S
O202 Cd198 2.273 . S
O202 Cd200 2.411 . S
O202 C205 1.320 . S
O203 Cd200 2.333 . S
O203 C205 1.214 . S
O204 Cd200 2.352 . S
O204 C207 1.258 . S
C205 O202 1.320 . S
C205 O203 1.214 . S
O206 Cd198 2.277 . S
O206 C201 1.209 . S
C207 O204 1.258 . S
C207 O209 1.282 . S
O208 Cd200 2.277 . S
O208 C201 1.226 . S
O209 Cd200 2.356 . S
O209 C207 1.282 . S
C210 O211 1.306 . S
C210 O213 1.160 . S
O211 C210 1.306 . S
O211 Cd212 2.228 . S
Cd212 O211 2.228 . S
Cd212 O216 2.273 . S
Cd212 O220 2.277 . S
O213 C210 1.160 . S
O213 Cd214 2.203 . S
Cd214 O213 2.203 . S
Cd214 O216 2.411 . S
Cd214 O217 2.333 . S
Cd214 O218 2.352 . S
Cd214 O222 2.277 . S
Cd214 O223 2.356 . S
C215 O220 1.209 . S
C215 O222 1.226 . S
O216 Cd212 2.273 . S
O216 Cd214 2.411 . S
O216 C219 1.320 . S
O217 Cd214 2.333 . S
O217 C219 1.214 . S
O218 Cd214 2.352 . S
O218 C221 1.258 . S
C219 O216 1.320 . S
C219 O217 1.214 . S
O220 Cd212 2.277 . S
O220 C215 1.209 . S
C221 O218 1.258 . S
C221 O223 1.282 . S
O222 Cd214 2.277 . S
O222 C215 1.226 . S
O223 Cd214 2.356 . S
O223 C221 1.282 . S
H224 C232 0.929 . S
H225 C234 0.930 . S
H226 C236 0.930 . S
H227 C239 0.929 . S
H228 C242 0.930 . S
H229 C244 0.960 . S
H230 C244 0.960 . S
H231 C244 0.960 . S
C232 H224 0.929 . S
C232 C233 1.377 . S
C232 C234 1.384 . S
C233 C232 1.377 . S
C233 C239 1.390 . S
C234 H225 0.930 . S
C234 C232 1.384 . S
C234 C235 1.372 . S
C235 C234 1.372 . S
C235 C236 1.400 . S
C235 C240 1.490 . S
C236 H226 0.930 . S
C236 C235 1.400 . S
C236 C239 1.386 . S
H237 C253 0.930 . S
H238 C254 0.931 . S
C239 H227 0.929 . S
C239 C233 1.390 . S
C239 C236 1.386 . S
C240 C235 1.490 . S
C240 C242 1.395 . S
C240 C243 1.403 . S
H241 C247 0.930 . S
C242 H228 0.930 . S
C242 C240 1.395 . S
C242 C245 1.403 . S
C243 C240 1.403 . S
C243 C244 1.524 . S
C243 C247 1.400 . S
C244 H229 0.960 . S
C244 H230 0.960 . S
C244 H231 0.960 . S
C244 C243 1.524 . S
C245 C242 1.403 . S
C245 C246 1.392 . S
C245 C249 1.495 . S
C246 C245 1.392 . S
C246 C247 1.385 . S
C246 C248 1.478 . S
C247 H241 0.930 . S
C247 C243 1.400 . S
C247 C246 1.385 . S
C248 C246 1.478 . S
C248 C250 1.381 . S
C248 C254 1.383 . S
C249 C245 1.495 . S
C249 H255 0.959 . S
C249 H256 0.961 . S
C249 H257 0.960 . S
C250 C248 1.381 . S
C250 C251 1.394 . S
C250 H258 0.930 . S
C251 C250 1.394 . S
C251 C252 1.383 . S
C251 H259 0.929 . S
C252 C251 1.383 . S
C252 C253 1.377 . S
C253 H237 0.930 . S
C253 C252 1.377 . S
C253 C254 1.379 . S
C254 H238 0.931 . S
C254 C248 1.383 . S
C254 C253 1.379 . S
H255 C249 0.959 . S
H256 C249 0.961 . S
H257 C249 0.960 . S
H258 C250 0.930 . S
H259 C251 0.929 . S
H260 C268 0.929 . S
H261 C270 0.930 . S
H262 C272 0.930 . S
H263 C275 0.929 . S
H264 C278 0.930 . S
H265 C280 0.960 . S
H266 C280 0.960 . S
H267 C280 0.960 . S
C268 H260 0.929 . S
C268 C269 1.377 . S
C268 C270 1.384 . S
C269 C268 1.377 . S
C269 C275 1.390 . S
C270 H261 0.930 . S
C270 C268 1.384 . S
C270 C271 1.372 . S
C271 C270 1.372 . S
C271 C272 1.400 . S
C271 C276 1.490 . S
C272 H262 0.930 . S
C272 C271 1.400 . S
C272 C275 1.386 . S
H273 C289 0.930 . S
H274 C290 0.931 . S
C275 H263 0.929 . S
C275 C269 1.390 . S
C275 C272 1.386 . S
C276 C271 1.490 . S
C276 C278 1.395 . S
C276 C279 1.403 . S
H277 C283 0.930 . S
C278 H264 0.930 . S
C278 C276 1.395 . S
C278 C281 1.403 . S
C279 C276 1.403 . S
C279 C280 1.524 . S
C279 C283 1.400 . S
C280 H265 0.960 . S
C280 H266 0.960 . S
C280 H267 0.960 . S
C280 C279 1.524 . S
C281 C278 1.403 . S
C281 C282 1.392 . S
C281 C285 1.495 . S
C282 C281 1.392 . S
C282 C283 1.385 . S
C282 C284 1.478 . S
C283 H277 0.930 . S
C283 C279 1.400 . S
C283 C282 1.385 . S
C284 C282 1.478 . S
C284 C286 1.381 . S
C284 C290 1.383 . S
C285 C281 1.495 . S
C285 H291 0.959 . S
C285 H292 0.961 . S
C285 H293 0.960 . S
C286 C284 1.381 . S
C286 C287 1.394 . S
C286 H294 0.930 . S
C287 C286 1.394 . S
C287 C288 1.383 . S
C287 H295 0.929 . S
C288 C287 1.383 . S
C288 C289 1.377 . S
C289 H273 0.930 . S
C289 C288 1.377 . S
C289 C290 1.379 . S
C290 H274 0.931 . S
C290 C284 1.383 . S
C290 C289 1.379 . S
H291 C285 0.959 . S
H292 C285 0.961 . S
H293 C285 0.960 . S
H294 C286 0.930 . S
H295 C287 0.929 . S
H296 C304 0.929 . S
H297 C306 0.930 . S
H298 C308 0.930 . S
H299 C311 0.929 . S
H300 C314 0.930 . S
H301 C316 0.960 . S
H302 C316 0.960 . S
H303 C316 0.960 . S
C304 H296 0.929 . S
C304 C305 1.377 . S
C304 C306 1.384 . S
C305 C304 1.377 . S
C305 C311 1.390 . S
C306 H297 0.930 . S
C306 C304 1.384 . S
C306 C307 1.372 . S
C307 C306 1.372 . S
C307 C308 1.400 . S
C307 C312 1.490 . S
C308 H298 0.930 . S
C308 C307 1.400 . S
C308 C311 1.386 . S
H309 C325 0.930 . S
H310 C326 0.931 . S
C311 H299 0.929 . S
C311 C305 1.390 . S
C311 C308 1.386 . S
C312 C307 1.490 . S
C312 C314 1.395 . S
C312 C315 1.403 . S
H313 C319 0.930 . S
C314 H300 0.930 . S
C314 C312 1.395 . S
C314 C317 1.403 . S
C315 C312 1.403 . S
C315 C316 1.524 . S
C315 C319 1.400 . S
C316 H301 0.960 . S
C316 H302 0.960 . S
C316 H303 0.960 . S
C316 C315 1.524 . S
C317 C314 1.403 . S
C317 C318 1.392 . S
C317 C321 1.495 . S
C318 C317 1.392 . S
C318 C319 1.385 . S
C318 C320 1.478 . S
C319 H313 0.930 . S
C319 C315 1.400 . S
C319 C318 1.385 . S
C320 C318 1.478 . S
C320 C322 1.381 . S
C320 C326 1.383 . S
C321 C317 1.495 . S
C321 H327 0.959 . S
C321 H328 0.961 . S
C321 H329 0.960 . S
C322 C320 1.381 . S
C322 C323 1.394 . S
C322 H330 0.930 . S
C323 C322 1.394 . S
C323 C324 1.383 . S
C323 H331 0.929 . S
C324 C323 1.383 . S
C324 C325 1.377 . S
C325 H309 0.930 . S
C325 C324 1.377 . S
C325 C326 1.379 . S
C326 H310 0.931 . S
C326 C320 1.383 . S
C326 C325 1.379 . S
H327 C321 0.959 . S
H328 C321 0.961 . S
H329 C321 0.960 . S
H330 C322 0.930 . S
H331 C323 0.929 . S
H332 C340 0.929 . S
H333 C342 0.930 . S
H334 C344 0.930 . S
H335 C347 0.929 . S
H336 C350 0.930 . S
H337 C352 0.960 . S
H338 C352 0.960 . S
H339 C352 0.960 . S
C340 H332 0.929 . S
C340 C341 1.377 . S
C340 C342 1.384 . S
C341 C340 1.377 . S
C341 C347 1.390 . S
C342 H333 0.930 . S
C342 C340 1.384 . S
C342 C343 1.372 . S
C343 C342 1.372 . S
C343 C344 1.400 . S
C343 C348 1.490 . S
C344 H334 0.930 . S
C344 C343 1.400 . S
C344 C347 1.386 . S
H345 C361 0.930 . S
H346 C362 0.931 . S
C347 H335 0.929 . S
C347 C341 1.390 . S
C347 C344 1.386 . S
C348 C343 1.490 . S
C348 C350 1.395 . S
C348 C351 1.403 . S
H349 C355 0.930 . S
C350 H336 0.930 . S
C350 C348 1.395 . S
C350 C353 1.403 . S
C351 C348 1.403 . S
C351 C352 1.524 . S
C351 C355 1.400 . S
C352 H337 0.960 . S
C352 H338 0.960 . S
C352 H339 0.960 . S
C352 C351 1.524 . S
C353 C350 1.403 . S
C353 C354 1.392 . S
C353 C357 1.495 . S
C354 C353 1.392 . S
C354 C355 1.385 . S
C354 C356 1.478 . S
C355 H349 0.930 . S
C355 C351 1.400 . S
C355 C354 1.385 . S
C356 C354 1.478 . S
C356 C358 1.381 . S
C356 C362 1.383 . S
C357 C353 1.495 . S
C357 H363 0.959 . S
C357 H364 0.961 . S
C357 H365 0.960 . S
C358 C356 1.381 . S
C358 C359 1.394 . S
C358 H366 0.930 . S
C359 C358 1.394 . S
C359 C360 1.383 . S
C359 H367 0.929 . S
C360 C359 1.383 . S
C360 C361 1.377 . S
C361 H345 0.930 . S
C361 C360 1.377 . S
C361 C362 1.379 . S
C362 H346 0.931 . S
C362 C356 1.383 . S
C362 C361 1.379 . S
H363 C357 0.959 . S
H364 C357 0.961 . S
H365 C357 0.960 . S
H366 C358 0.930 . S
H367 C359 0.929 . S
H368 C376 0.929 . S
H369 C378 0.930 . S
H370 C380 0.930 . S
H371 C383 0.929 . S
H372 C386 0.930 . S
H373 C388 0.960 . S
H374 C388 0.960 . S
H375 C388 0.960 . S
C376 H368 0.929 . S
C376 C377 1.377 . S
C376 C378 1.384 . S
C377 C376 1.377 . S
C377 C383 1.390 . S
C378 H369 0.930 . S
C378 C376 1.384 . S
C378 C379 1.372 . S
C379 C378 1.372 . S
C379 C380 1.400 . S
C379 C384 1.490 . S
C380 H370 0.930 . S
C380 C379 1.400 . S
C380 C383 1.386 . S
H381 C397 0.930 . S
H382 C398 0.931 . S
C383 H371 0.929 . S
C383 C377 1.390 . S
C383 C380 1.386 . S
C384 C379 1.490 . S
C384 C386 1.395 . S
C384 C387 1.403 . S
H385 C391 0.930 . S
C386 H372 0.930 . S
C386 C384 1.395 . S
C386 C389 1.403 . S
C387 C384 1.403 . S
C387 C388 1.524 . S
C387 C391 1.400 . S
C388 H373 0.960 . S
C388 H374 0.960 . S
C388 H375 0.960 . S
C388 C387 1.524 . S
C389 C386 1.403 . S
C389 C390 1.392 . S
C389 C393 1.495 . S
C390 C389 1.392 . S
C390 C391 1.385 . S
C390 C392 1.478 . S
C391 H385 0.930 . S
C391 C387 1.400 . S
C391 C390 1.385 . S
C392 C390 1.478 . S
C392 C394 1.381 . S
C392 C398 1.383 . S
C393 C389 1.495 . S
C393 H399 0.959 . S
C393 H400 0.961 . S
C393 H401 0.960 . S
C394 C392 1.381 . S
C394 C395 1.394 . S
C394 H402 0.930 . S
C395 C394 1.394 . S
C395 C396 1.383 . S
C395 H403 0.929 . S
C396 C395 1.383 . S
C396 C397 1.377 . S
C397 H381 0.930 . S
C397 C396 1.377 . S
C397 C398 1.379 . S
C398 H382 0.931 . S
C398 C392 1.383 . S
C398 C397 1.379 . S
H399 C393 0.959 . S
H400 C393 0.961 . S
H401 C393 0.960 . S
H402 C394 0.930 . S
H403 C395 0.929 . S
H404 C412 0.929 . S
H405 C414 0.930 . S
H406 C416 0.930 . S
H407 C419 0.929 . S
H408 C422 0.930 . S
H409 C424 0.960 . S
H410 C424 0.960 . S
H411 C424 0.960 . S
C412 H404 0.929 . S
C412 C413 1.377 . S
C412 C414 1.384 . S
C413 C412 1.377 . S
C413 C419 1.390 . S
C414 H405 0.930 . S
C414 C412 1.384 . S
C414 C415 1.372 . S
C415 C414 1.372 . S
C415 C416 1.400 . S
C415 C420 1.490 . S
C416 H406 0.930 . S
C416 C415 1.400 . S
C416 C419 1.386 . S
H417 C433 0.930 . S
H418 C434 0.931 . S
C419 H407 0.929 . S
C419 C413 1.390 . S
C419 C416 1.386 . S
C420 C415 1.490 . S
C420 C422 1.395 . S
C420 C423 1.403 . S
H421 C427 0.930 . S
C422 H408 0.930 . S
C422 C420 1.395 . S
C422 C425 1.403 . S
C423 C420 1.403 . S
C423 C424 1.524 . S
C423 C427 1.400 . S
C424 H409 0.960 . S
C424 H410 0.960 . S
C424 H411 0.960 . S
C424 C423 1.524 . S
C425 C422 1.403 . S
C425 C426 1.392 . S
C425 C429 1.495 . S
C426 C425 1.392 . S
C426 C427 1.385 . S
C426 C428 1.478 . S
C427 H421 0.930 . S
C427 C423 1.400 . S
C427 C426 1.385 . S
C428 C426 1.478 . S
C428 C430 1.381 . S
C428 C434 1.383 . S
C429 C425 1.495 . S
C429 H435 0.959 . S
C429 H436 0.961 . S
C429 H437 0.960 . S
C430 C428 1.381 . S
C430 C431 1.394 . S
C430 H438 0.930 . S
C431 C430 1.394 . S
C431 C432 1.383 . S
C431 H439 0.929 . S
C432 C431 1.383 . S
C432 C433 1.377 . S
C433 H417 0.930 . S
C433 C432 1.377 . S
C433 C434 1.379 . S
C434 H418 0.931 . S
C434 C428 1.383 . S
C434 C433 1.379 . S
H435 C429 0.959 . S
H436 C429 0.961 . S
H437 C429 0.960 . S
H438 C430 0.930 . S
H439 C431 0.929 . S
H440 C448 0.929 . S
H441 C450 0.930 . S
H442 C452 0.930 . S
H443 C455 0.929 . S
H444 C458 0.930 . S
H445 C460 0.960 . S
H446 C460 0.960 . S
H447 C460 0.960 . S
C448 H440 0.929 . S
C448 C449 1.377 . S
C448 C450 1.384 . S
C449 C448 1.377 . S
C449 C455 1.390 . S
C450 H441 0.930 . S
C450 C448 1.384 . S
C450 C451 1.372 . S
C451 C450 1.372 . S
C451 C452 1.400 . S
C451 C456 1.490 . S
C452 H442 0.930 . S
C452 C451 1.400 . S
C452 C455 1.386 . S
H453 C469 0.930 . S
H454 C470 0.931 . S
C455 H443 0.929 . S
C455 C449 1.390 . S
C455 C452 1.386 . S
C456 C451 1.490 . S
C456 C458 1.395 . S
C456 C459 1.403 . S
H457 C463 0.930 . S
C458 H444 0.930 . S
C458 C456 1.395 . S
C458 C461 1.403 . S
C459 C456 1.403 . S
C459 C460 1.524 . S
C459 C463 1.400 . S
C460 H445 0.960 . S
C460 H446 0.960 . S
C460 H447 0.960 . S
C460 C459 1.524 . S
C461 C458 1.403 . S
C461 C462 1.392 . S
C461 C465 1.495 . S
C462 C461 1.392 . S
C462 C463 1.385 . S
C462 C464 1.478 . S
C463 H457 0.930 . S
C463 C459 1.400 . S
C463 C462 1.385 . S
C464 C462 1.478 . S
C464 C466 1.381 . S
C464 C470 1.383 . S
C465 C461 1.495 . S
C465 H471 0.959 . S
C465 H472 0.961 . S
C465 H473 0.960 . S
C466 C464 1.381 . S
C466 C467 1.394 . S
C466 H474 0.930 . S
C467 C466 1.394 . S
C467 C468 1.383 . S
C467 H475 0.929 . S
C468 C467 1.383 . S
C468 C469 1.377 . S
C469 H453 0.930 . S
C469 C468 1.377 . S
C469 C470 1.379 . S
C470 H454 0.931 . S
C470 C464 1.383 . S
C470 C469 1.379 . S
H471 C465 0.959 . S
H472 C465 0.961 . S
H473 C465 0.960 . S
H474 C466 0.930 . S
H475 C467 0.929 . S
H476 C484 0.929 . S
H477 C486 0.930 . S
H478 C488 0.930 . S
H479 C491 0.929 . S
H480 C494 0.930 . S
H481 C496 0.960 . S
H482 C496 0.960 . S
H483 C496 0.960 . S
C484 H476 0.929 . S
C484 C485 1.377 . S
C484 C486 1.384 . S
C485 C484 1.377 . S
C485 C491 1.390 . S
C486 H477 0.930 . S
C486 C484 1.384 . S
C486 C487 1.372 . S
C487 C486 1.372 . S
C487 C488 1.400 . S
C487 C492 1.490 . S
C488 H478 0.930 . S
C488 C487 1.400 . S
C488 C491 1.386 . S
H489 C505 0.930 . S
H490 C506 0.931 . S
C491 H479 0.929 . S
C491 C485 1.390 . S
C491 C488 1.386 . S
C492 C487 1.490 . S
C492 C494 1.395 . S
C492 C495 1.403 . S
H493 C499 0.930 . S
C494 H480 0.930 . S
C494 C492 1.395 . S
C494 C497 1.403 . S
C495 C492 1.403 . S
C495 C496 1.524 . S
C495 C499 1.400 . S
C496 H481 0.960 . S
C496 H482 0.960 . S
C496 H483 0.960 . S
C496 C495 1.524 . S
C497 C494 1.403 . S
C497 C498 1.392 . S
C497 C501 1.495 . S
C498 C497 1.392 . S
C498 C499 1.385 . S
C498 C500 1.478 . S
C499 H493 0.930 . S
C499 C495 1.400 . S
C499 C498 1.385 . S
C500 C498 1.478 . S
C500 C502 1.381 . S
C500 C506 1.383 . S
C501 C497 1.495 . S
C501 H507 0.959 . S
C501 H508 0.961 . S
C501 H509 0.960 . S
C502 C500 1.381 . S
C502 C503 1.394 . S
C502 H510 0.930 . S
C503 C502 1.394 . S
C503 C504 1.383 . S
C503 H511 0.929 . S
C504 C503 1.383 . S
C504 C505 1.377 . S
C505 H489 0.930 . S
C505 C504 1.377 . S
C505 C506 1.379 . S
C506 H490 0.931 . S
C506 C500 1.383 . S
C506 C505 1.379 . S
H507 C501 0.959 . S
H508 C501 0.961 . S
H509 C501 0.960 . S
H510 C502 0.930 . S
H511 C503 0.929 . S
H512 C520 0.929 . S
H513 C522 0.930 . S
H514 C524 0.930 . S
H515 C527 0.929 . S
H516 C530 0.930 . S
H517 C532 0.960 . S
H518 C532 0.960 . S
H519 C532 0.960 . S
C520 H512 0.929 . S
C520 C521 1.377 . S
C520 C522 1.384 . S
C521 C520 1.377 . S
C521 C527 1.390 . S
C522 H513 0.930 . S
C522 C520 1.384 . S
C522 C523 1.372 . S
C523 C522 1.372 . S
C523 C524 1.400 . S
C523 C528 1.490 . S
C524 H514 0.930 . S
C524 C523 1.400 . S
C524 C527 1.386 . S
H525 C541 0.930 . S
H526 C542 0.931 . S
C527 H515 0.929 . S
C527 C521 1.390 . S
C527 C524 1.386 . S
C528 C523 1.490 . S
C528 C530 1.395 . S
C528 C531 1.403 . S
H529 C535 0.930 . S
C530 H516 0.930 . S
C530 C528 1.395 . S
C530 C533 1.403 1_556 S
C531 C528 1.403 . S
C531 C532 1.524 . S
C531 C535 1.400 1_556 S
C532 H517 0.960 . S
C532 H518 0.960 . S
C532 H519 0.960 . S
C532 C531 1.524 . S
C533 C530 1.403 1_554 S
C533 C534 1.392 . S
C533 C537 1.495 . S
C534 C533 1.392 . S
C534 C535 1.385 . S
C534 C536 1.478 . S
C535 H529 0.930 . S
C535 C531 1.400 1_554 S
C535 C534 1.385 . S
C536 C534 1.478 . S
C536 C538 1.381 . S
C536 C542 1.383 . S
C537 C533 1.495 . S
C537 H543 0.959 . S
C537 H544 0.961 . S
C537 H545 0.960 . S
C538 C536 1.381 . S
C538 C539 1.394 . S
C538 H546 0.930 . S
C539 C538 1.394 . S
C539 C540 1.383 . S
C539 H547 0.929 . S
C540 C539 1.383 . S
C540 C541 1.377 . S
C541 H525 0.930 . S
C541 C540 1.377 . S
C541 C542 1.379 . S
C542 H526 0.931 . S
C542 C536 1.383 . S
C542 C541 1.379 . S
H543 C537 0.959 . S
H544 C537 0.961 . S
H545 C537 0.960 . S
H546 C538 0.930 . S
H547 C539 0.929 . S
H548 C556 0.929 . S
H549 C558 0.930 . S
H550 C560 0.930 . S
H551 C563 0.929 . S
H552 C566 0.930 . S
H553 C568 0.960 . S
H554 C568 0.960 . S
H555 C568 0.960 . S
C556 H548 0.929 . S
C556 C557 1.377 . S
C556 C558 1.384 . S
C557 C556 1.377 . S
C557 C563 1.390 . S
C558 H549 0.930 . S
C558 C556 1.384 . S
C558 C559 1.372 . S
C559 C558 1.372 . S
C559 C560 1.400 . S
C559 C564 1.490 . S
C560 H550 0.930 . S
C560 C559 1.400 . S
C560 C563 1.386 . S
H561 C577 0.930 . S
H562 C578 0.931 . S
C563 H551 0.929 . S
C563 C557 1.390 . S
C563 C560 1.386 . S
C564 C559 1.490 . S
C564 C566 1.395 . S
C564 C567 1.403 . S
H565 C571 0.930 . S
C566 H552 0.930 . S
C566 C564 1.395 . S
C566 C569 1.403 1_556 S
C567 C564 1.403 . S
C567 C568 1.524 . S
C567 C571 1.400 1_556 S
C568 H553 0.960 . S
C568 H554 0.960 . S
C568 H555 0.960 . S
C568 C567 1.524 . S
C569 C566 1.403 1_554 S
C569 C570 1.392 . S
C569 C573 1.495 . S
C570 C569 1.392 . S
C570 C571 1.385 . S
C570 C572 1.478 . S
C571 H565 0.930 . S
C571 C567 1.400 1_554 S
C571 C570 1.385 . S
C572 C570 1.478 . S
C572 C574 1.381 . S
C572 C578 1.383 . S
C573 C569 1.495 . S
C573 H579 0.959 . S
C573 H580 0.961 . S
C573 H581 0.960 . S
C574 C572 1.381 . S
C574 C575 1.394 . S
C574 H582 0.930 . S
C575 C574 1.394 . S
C575 C576 1.383 . S
C575 H583 0.929 . S
C576 C575 1.383 . S
C576 C577 1.377 . S
C577 H561 0.930 . S
C577 C576 1.377 . S
C577 C578 1.379 . S
C578 H562 0.931 . S
C578 C572 1.383 . S
C578 C577 1.379 . S
H579 C573 0.959 . S
H580 C573 0.961 . S
H581 C573 0.960 . S
H582 C574 0.930 . S
H583 C575 0.929 . S
H584 C592 0.929 . S
H585 C594 0.930 . S
H586 C596 0.930 . S
H587 C599 0.929 . S
H588 C602 0.930 . S
H589 C604 0.960 . S
H590 C604 0.960 . S
H591 C604 0.960 . S
C592 H584 0.929 . S
C592 C593 1.377 . S
C592 C594 1.384 . S
C593 C592 1.377 . S
C593 C599 1.390 . S
C594 H585 0.930 . S
C594 C592 1.384 . S
C594 C595 1.372 . S
C595 C594 1.372 . S
C595 C596 1.400 . S
C595 C600 1.490 . S
C596 H586 0.930 . S
C596 C595 1.400 . S
C596 C599 1.386 . S
H597 C613 0.930 . S
H598 C614 0.931 . S
C599 H587 0.929 . S
C599 C593 1.390 . S
C599 C596 1.386 . S
C600 C595 1.490 . S
C600 C602 1.395 . S
C600 C603 1.403 . S
H601 C607 0.930 . S
C602 H588 0.930 . S
C602 C600 1.395 . S
C602 C605 1.403 1_556 S
C603 C600 1.403 . S
C603 C604 1.524 . S
C603 C607 1.400 1_556 S
C604 H589 0.960 . S
C604 H590 0.960 . S
C604 H591 0.960 . S
C604 C603 1.524 . S
C605 C602 1.403 1_554 S
C605 C606 1.392 . S
C605 C609 1.495 . S
C606 C605 1.392 . S
C606 C607 1.385 . S
C606 C608 1.478 . S
C607 H601 0.930 . S
C607 C603 1.400 1_554 S
C607 C606 1.385 . S
C608 C606 1.478 . S
C608 C610 1.381 . S
C608 C614 1.383 . S
C609 C605 1.495 . S
C609 H615 0.959 . S
C609 H616 0.961 . S
C609 H617 0.960 . S
C610 C608 1.381 . S
C610 C611 1.394 . S
C610 H618 0.930 . S
C611 C610 1.394 . S
C611 C612 1.383 . S
C611 H619 0.929 . S
C612 C611 1.383 . S
C612 C613 1.377 . S
C613 H597 0.930 . S
C613 C612 1.377 . S
C613 C614 1.379 . S
C614 H598 0.931 . S
C614 C608 1.383 . S
C614 C613 1.379 . S
H615 C609 0.959 . S
H616 C609 0.961 . S
H617 C609 0.960 . S
H618 C610 0.930 . S
H619 C611 0.929 . S
H620 C628 0.929 . S
H621 C630 0.930 . S
H622 C632 0.930 . S
H623 C635 0.929 . S
H624 C638 0.930 . S
H625 C640 0.960 . S
H626 C640 0.960 . S
H627 C640 0.960 . S
C628 H620 0.929 . S
C628 C629 1.377 . S
C628 C630 1.384 . S
C629 C628 1.377 . S
C629 C635 1.390 . S
C630 H621 0.930 . S
C630 C628 1.384 . S
C630 C631 1.372 . S
C631 C630 1.372 . S
C631 C632 1.400 . S
C631 C636 1.490 . S
C632 H622 0.930 . S
C632 C631 1.400 . S
C632 C635 1.386 . S
H633 C649 0.930 . S
H634 C650 0.931 . S
C635 H623 0.929 . S
C635 C629 1.390 . S
C635 C632 1.386 . S
C636 C631 1.490 . S
C636 C638 1.395 . S
C636 C639 1.403 . S
H637 C643 0.930 . S
C638 H624 0.930 . S
C638 C636 1.395 . S
C638 C641 1.403 1_554 S
C639 C636 1.403 . S
C639 C640 1.524 . S
C639 C643 1.400 1_554 S
C640 H625 0.960 . S
C640 H626 0.960 . S
C640 H627 0.960 . S
C640 C639 1.524 . S
C641 C638 1.403 1_556 S
C641 C642 1.392 . S
C641 C645 1.495 . S
C642 C641 1.392 . S
C642 C643 1.385 . S
C642 C644 1.478 . S
C643 H637 0.930 . S
C643 C639 1.400 1_556 S
C643 C642 1.385 . S
C644 C642 1.478 . S
C644 C646 1.381 . S
C644 C650 1.383 . S
C645 C641 1.495 . S
C645 H651 0.959 . S
C645 H652 0.961 . S
C645 H653 0.960 . S
C646 C644 1.381 . S
C646 C647 1.394 . S
C646 H654 0.930 . S
C647 C646 1.394 . S
C647 C648 1.383 . S
C647 H655 0.929 . S
C648 C647 1.383 . S
C648 C649 1.377 . S
C649 H633 0.930 . S
C649 C648 1.377 . S
C649 C650 1.379 . S
C650 H634 0.931 . S
C650 C644 1.383 . S
C650 C649 1.379 . S
H651 C645 0.959 . S
H652 C645 0.961 . S
H653 C645 0.960 . S
H654 C646 0.930 . S
H655 C647 0.929 . S
H656 C664 0.929 . S
H657 C666 0.930 . S
H658 C668 0.930 . S
H659 C671 0.929 . S
H660 C674 0.930 . S
H661 C676 0.960 . S
H662 C676 0.960 . S
H663 C676 0.960 . S
C664 H656 0.929 . S
C664 C665 1.377 . S
C664 C666 1.384 . S
C665 C664 1.377 . S
C665 C671 1.390 . S
C666 H657 0.930 . S
C666 C664 1.384 . S
C666 C667 1.372 . S
C667 C666 1.372 . S
C667 C668 1.400 . S
C667 C672 1.490 . S
C668 H658 0.930 . S
C668 C667 1.400 . S
C668 C671 1.386 . S
H669 C685 0.930 . S
H670 C686 0.931 . S
C671 H659 0.929 . S
C671 C665 1.390 . S
C671 C668 1.386 . S
C672 C667 1.490 . S
C672 C674 1.395 . S
C672 C675 1.403 . S
H673 C679 0.930 . S
C674 H660 0.930 . S
C674 C672 1.395 . S
C674 C677 1.403 . S
C675 C672 1.403 . S
C675 C676 1.524 . S
C675 C679 1.400 . S
C676 H661 0.960 . S
C676 H662 0.960 . S
C676 H663 0.960 . S
C676 C675 1.524 . S
C677 C674 1.403 . S
C677 C678 1.392 . S
C677 C681 1.495 . S
C678 C677 1.392 . S
C678 C679 1.385 . S
C678 C680 1.478 . S
C679 H673 0.930 . S
C679 C675 1.400 . S
C679 C678 1.385 . S
C680 C678 1.478 . S
C680 C682 1.381 . S
C680 C686 1.383 . S
C681 C677 1.495 . S
C681 H687 0.959 . S
C681 H688 0.961 . S
C681 H689 0.960 . S
C682 C680 1.381 . S
C682 C683 1.394 . S
C682 H690 0.930 . S
C683 C682 1.394 . S
C683 C684 1.383 . S
C683 H691 0.929 . S
C684 C683 1.383 . S
C684 C685 1.377 . S
C685 H669 0.930 . S
C685 C684 1.377 . S
C685 C686 1.379 . S
C686 H670 0.931 . S
C686 C680 1.383 . S
C686 C685 1.379 . S
H687 C681 0.959 . S
H688 C681 0.961 . S
H689 C681 0.960 . S
H690 C682 0.930 . S
H691 C683 0.929 . S
H692 C700 0.929 . S
H693 C702 0.930 . S
H694 C704 0.930 . S
H695 C707 0.929 . S
H696 C710 0.930 . S
H697 C712 0.960 . S
H698 C712 0.960 . S
H699 C712 0.960 . S
C700 H692 0.929 . S
C700 C701 1.377 . S
C700 C702 1.384 . S
C701 C700 1.377 . S
C701 C707 1.390 . S
C702 H693 0.930 . S
C702 C700 1.384 . S
C702 C703 1.372 . S
C703 C702 1.372 . S
C703 C704 1.400 . S
C703 C708 1.490 . S
C704 H694 0.930 . S
C704 C703 1.400 . S
C704 C707 1.386 . S
H705 C721 0.930 . S
H706 C722 0.931 . S
C707 H695 0.929 . S
C707 C701 1.390 . S
C707 C704 1.386 . S
C708 C703 1.490 . S
C708 C710 1.395 . S
C708 C711 1.403 . S
H709 C715 0.930 . S
C710 H696 0.930 . S
C710 C708 1.395 . S
C710 C713 1.403 . S
C711 C708 1.403 . S
C711 C712 1.524 . S
C711 C715 1.400 . S
C712 H697 0.960 . S
C712 H698 0.960 . S
C712 H699 0.960 . S
C712 C711 1.524 . S
C713 C710 1.403 . S
C713 C714 1.392 . S
C713 C717 1.495 . S
C714 C713 1.392 . S
C714 C715 1.385 . S
C714 C716 1.478 . S
C715 H709 0.930 . S
C715 C711 1.400 . S
C715 C714 1.385 . S
C716 C714 1.478 . S
C716 C718 1.381 . S
C716 C722 1.383 . S
C717 C713 1.495 . S
C717 H723 0.959 . S
C717 H724 0.961 . S
C717 H725 0.960 . S
C718 C716 1.381 . S
C718 C719 1.394 . S
C718 H726 0.930 . S
C719 C718 1.394 . S
C719 C720 1.383 . S
C719 H727 0.929 . S
C720 C719 1.383 . S
C720 C721 1.377 . S
C721 H705 0.930 . S
C721 C720 1.377 . S
C721 C722 1.379 . S
C722 H706 0.931 . S
C722 C716 1.383 . S
C722 C721 1.379 . S
H723 C717 0.959 . S
H724 C717 0.961 . S
H725 C717 0.960 . S
H726 C718 0.930 . S
H727 C719 0.929 . S
H728 C736 0.929 . S
H729 C738 0.930 . S
H730 C740 0.930 . S
H731 C743 0.929 . S
H732 C746 0.930 . S
H733 C748 0.960 . S
H734 C748 0.960 . S
H735 C748 0.960 . S
C736 H728 0.929 . S
C736 C737 1.377 . S
C736 C738 1.384 . S
C737 C736 1.377 . S
C737 C743 1.390 . S
C738 H729 0.930 . S
C738 C736 1.384 . S
C738 C739 1.372 . S
C739 C738 1.372 . S
C739 C740 1.400 . S
C739 C744 1.490 . S
C740 H730 0.930 . S
C740 C739 1.400 . S
C740 C743 1.386 . S
H741 C757 0.930 . S
H742 C758 0.931 . S
C743 H731 0.929 . S
C743 C737 1.390 . S
C743 C740 1.386 . S
C744 C739 1.490 . S
C744 C746 1.395 . S
C744 C747 1.403 . S
H745 C751 0.930 . S
C746 H732 0.930 . S
C746 C744 1.395 . S
C746 C749 1.403 . S
C747 C744 1.403 . S
C747 C748 1.524 . S
C747 C751 1.400 . S
C748 H733 0.960 . S
C748 H734 0.960 . S
C748 H735 0.960 . S
C748 C747 1.524 . S
C749 C746 1.403 . S
C749 C750 1.392 . S
C749 C753 1.495 . S
C750 C749 1.392 . S
C750 C751 1.385 . S
C750 C752 1.478 . S
C751 H745 0.930 . S
C751 C747 1.400 . S
C751 C750 1.385 . S
C752 C750 1.478 . S
C752 C754 1.381 . S
C752 C758 1.383 . S
C753 C749 1.495 . S
C753 H759 0.959 . S
C753 H760 0.961 . S
C753 H761 0.960 . S
C754 C752 1.381 . S
C754 C755 1.394 . S
C754 H762 0.930 . S
C755 C754 1.394 . S
C755 C756 1.383 . S
C755 H763 0.929 . S
C756 C755 1.383 . S
C756 C757 1.377 . S
C757 H741 0.930 . S
C757 C756 1.377 . S
C757 C758 1.379 . S
C758 H742 0.931 . S
C758 C752 1.383 . S
C758 C757 1.379 . S
H759 C753 0.959 . S
H760 C753 0.961 . S
H761 C753 0.960 . S
H762 C754 0.930 . S
H763 C755 0.929 . S
H764 C772 0.929 . S
H765 C774 0.930 . S
H766 C776 0.930 . S
H767 C779 0.929 . S
H768 C782 0.930 . S
H769 C784 0.960 . S
H770 C784 0.960 . S
H771 C784 0.960 . S
C772 H764 0.929 . S
C772 C773 1.377 . S
C772 C774 1.384 . S
C773 C772 1.377 . S
C773 C779 1.390 . S
C774 H765 0.930 . S
C774 C772 1.384 . S
C774 C775 1.372 . S
C775 C774 1.372 . S
C775 C776 1.400 . S
C775 C780 1.490 . S
C776 H766 0.930 . S
C776 C775 1.400 . S
C776 C779 1.386 . S
H777 C793 0.930 . S
H778 C794 0.931 . S
C779 H767 0.929 . S
C779 C773 1.390 . S
C779 C776 1.386 . S
C780 C775 1.490 . S
C780 C782 1.395 . S
C780 C783 1.403 . S
H781 C787 0.930 . S
C782 H768 0.930 . S
C782 C780 1.395 . S
C782 C785 1.403 . S
C783 C780 1.403 . S
C783 C784 1.524 . S
C783 C787 1.400 . S
C784 H769 0.960 . S
C784 H770 0.960 . S
C784 H771 0.960 . S
C784 C783 1.524 . S
C785 C782 1.403 . S
C785 C786 1.392 . S
C785 C789 1.495 . S
C786 C785 1.392 . S
C786 C787 1.385 . S
C786 C788 1.478 . S
C787 H781 0.930 . S
C787 C783 1.400 . S
C787 C786 1.385 . S
C788 C786 1.478 . S
C788 C790 1.381 . S
C788 C794 1.383 . S
C789 C785 1.495 . S
C789 H795 0.959 . S
C789 H796 0.961 . S
C789 H797 0.960 . S
C790 C788 1.381 . S
C790 C791 1.394 . S
C790 H798 0.930 . S
C791 C790 1.394 . S
C791 C792 1.383 . S
C791 H799 0.929 . S
C792 C791 1.383 . S
C792 C793 1.377 . S
C793 H777 0.930 . S
C793 C792 1.377 . S
C793 C794 1.379 . S
C794 H778 0.931 . S
C794 C788 1.383 . S
C794 C793 1.379 . S
H795 C789 0.959 . S
H796 C789 0.961 . S
H797 C789 0.960 . S
H798 C790 0.930 . S
H799 C791 0.929 . S
H800 C808 0.929 . S
H801 C810 0.930 . S
H802 C812 0.930 . S
H803 C815 0.929 . S
H804 C818 0.930 . S
H805 C820 0.960 . S
H806 C820 0.960 . S
H807 C820 0.960 . S
C808 H800 0.929 . S
C808 C809 1.377 . S
C808 C810 1.384 . S
C809 C808 1.377 . S
C809 C815 1.390 . S
C810 H801 0.930 . S
C810 C808 1.384 . S
C810 C811 1.372 . S
C811 C810 1.372 . S
C811 C812 1.400 . S
C811 C816 1.490 . S
C812 H802 0.930 . S
C812 C811 1.400 . S
C812 C815 1.386 . S
H813 C829 0.930 . S
H814 C830 0.931 . S
C815 H803 0.929 . S
C815 C809 1.390 . S
C815 C812 1.386 . S
C816 C811 1.490 . S
C816 C818 1.395 . S
C816 C819 1.403 . S
H817 C823 0.930 . S
C818 H804 0.930 . S
C818 C816 1.395 . S
C818 C821 1.403 . S
C819 C816 1.403 . S
C819 C820 1.524 . S
C819 C823 1.400 . S
C820 H805 0.960 . S
C820 H806 0.960 . S
C820 H807 0.960 . S
C820 C819 1.524 . S
C821 C818 1.403 . S
C821 C822 1.392 . S
C821 C825 1.495 . S
C822 C821 1.392 . S
C822 C823 1.385 . S
C822 C824 1.478 . S
C823 H817 0.930 . S
C823 C819 1.400 . S
C823 C822 1.385 . S
C824 C822 1.478 . S
C824 C826 1.381 . S
C824 C830 1.383 . S
C825 C821 1.495 . S
C825 H831 0.959 . S
C825 H832 0.961 . S
C825 H833 0.960 . S
C826 C824 1.381 . S
C826 C827 1.394 . S
C826 H834 0.930 . S
C827 C826 1.394 . S
C827 C828 1.383 . S
C827 H835 0.929 . S
C828 C827 1.383 . S
C828 C829 1.377 . S
C829 H813 0.930 . S
C829 C828 1.377 . S
C829 C830 1.379 . S
C830 H814 0.931 . S
C830 C824 1.383 . S
C830 C829 1.379 . S
H831 C825 0.959 . S
H832 C825 0.961 . S
H833 C825 0.960 . S
H834 C826 0.930 . S
H835 C827 0.929 . S
H836 C844 0.929 . S
H837 C846 0.930 . S
H838 C848 0.930 . S
H839 C851 0.929 . S
H840 C854 0.930 . S
H841 C856 0.960 . S
H842 C856 0.960 . S
H843 C856 0.960 . S
C844 H836 0.929 . S
C844 C845 1.377 . S
C844 C846 1.384 . S
C845 C844 1.377 . S
C845 C851 1.390 . S
C846 H837 0.930 . S
C846 C844 1.384 . S
C846 C847 1.372 . S
C847 C846 1.372 . S
C847 C848 1.400 . S
C847 C852 1.490 . S
C848 H838 0.930 . S
C848 C847 1.400 . S
C848 C851 1.386 . S
H849 C865 0.930 . S
H850 C866 0.931 . S
C851 H839 0.929 . S
C851 C845 1.390 . S
C851 C848 1.386 . S
C852 C847 1.490 . S
C852 C854 1.395 . S
C852 C855 1.403 . S
H853 C859 0.930 . S
C854 H840 0.930 . S
C854 C852 1.395 . S
C854 C857 1.403 . S
C855 C852 1.403 . S
C855 C856 1.524 . S
C855 C859 1.400 . S
C856 H841 0.960 . S
C856 H842 0.960 . S
C856 H843 0.960 . S
C856 C855 1.524 . S
C857 C854 1.403 . S
C857 C858 1.392 . S
C857 C861 1.495 . S
C858 C857 1.392 . S
C858 C859 1.385 . S
C858 C860 1.478 . S
C859 H853 0.930 . S
C859 C855 1.400 . S
C859 C858 1.385 . S
C860 C858 1.478 . S
C860 C862 1.381 . S
C860 C866 1.383 . S
C861 C857 1.495 . S
C861 H867 0.959 . S
C861 H868 0.961 . S
C861 H869 0.960 . S
C862 C860 1.381 . S
C862 C863 1.394 . S
C862 H870 0.930 . S
C863 C862 1.394 . S
C863 C864 1.383 . S
C863 H871 0.929 . S
C864 C863 1.383 . S
C864 C865 1.377 . S
C865 H849 0.930 . S
C865 C864 1.377 . S
C865 C866 1.379 . S
C866 H850 0.931 . S
C866 C860 1.383 . S
C866 C865 1.379 . S
H867 C861 0.959 . S
H868 C861 0.961 . S
H869 C861 0.960 . S
H870 C862 0.930 . S
H871 C863 0.929 . S
H872 C880 0.929 . S
H873 C882 0.930 . S
H874 C884 0.930 . S
H875 C887 0.929 . S
H876 C890 0.930 . S
H877 C892 0.960 . S
H878 C892 0.960 . S
H879 C892 0.960 . S
C880 H872 0.929 . S
C880 C881 1.377 . S
C880 C882 1.384 . S
C881 C880 1.377 . S
C881 C887 1.390 . S
C882 H873 0.930 . S
C882 C880 1.384 . S
C882 C883 1.372 . S
C883 C882 1.372 . S
C883 C884 1.400 . S
C883 C888 1.490 . S
C884 H874 0.930 . S
C884 C883 1.400 . S
C884 C887 1.386 . S
H885 C901 0.930 . S
H886 C902 0.931 . S
C887 H875 0.929 . S
C887 C881 1.390 . S
C887 C884 1.386 . S
C888 C883 1.490 . S
C888 C890 1.395 . S
C888 C891 1.403 . S
H889 C895 0.930 . S
C890 H876 0.930 . S
C890 C888 1.395 . S
C890 C893 1.403 . S
C891 C888 1.403 . S
C891 C892 1.524 . S
C891 C895 1.400 . S
C892 H877 0.960 . S
C892 H878 0.960 . S
C892 H879 0.960 . S
C892 C891 1.524 . S
C893 C890 1.403 . S
C893 C894 1.392 . S
C893 C897 1.495 . S
C894 C893 1.392 . S
C894 C895 1.385 . S
C894 C896 1.478 . S
C895 H889 0.930 . S
C895 C891 1.400 . S
C895 C894 1.385 . S
C896 C894 1.478 . S
C896 C898 1.381 . S
C896 C902 1.383 . S
C897 C893 1.495 . S
C897 H903 0.959 . S
C897 H904 0.961 . S
C897 H905 0.960 . S
C898 C896 1.381 . S
C898 C899 1.394 . S
C898 H906 0.930 . S
C899 C898 1.394 . S
C899 C900 1.383 . S
C899 H907 0.929 . S
C900 C899 1.383 . S
C900 C901 1.377 . S
C901 H885 0.930 . S
C901 C900 1.377 . S
C901 C902 1.379 . S
C902 H886 0.931 . S
C902 C896 1.383 . S
C902 C901 1.379 . S
H903 C897 0.959 . S
H904 C897 0.961 . S
H905 C897 0.960 . S
H906 C898 0.930 . S
H907 C899 0.929 . S
H908 C916 0.929 . S
H909 C918 0.930 . S
H910 C920 0.930 . S
H911 C923 0.929 . S
H912 C926 0.930 . S
H913 C928 0.960 . S
H914 C928 0.960 . S
H915 C928 0.960 . S
C916 H908 0.929 . S
C916 C917 1.377 . S
C916 C918 1.384 . S
C917 C916 1.377 . S
C917 C923 1.390 . S
C918 H909 0.930 . S
C918 C916 1.384 . S
C918 C919 1.372 . S
C919 C918 1.372 . S
C919 C920 1.400 . S
C919 C924 1.490 . S
C920 H910 0.930 . S
C920 C919 1.400 . S
C920 C923 1.386 . S
H921 C937 0.930 . S
H922 C938 0.931 . S
C923 H911 0.929 . S
C923 C917 1.390 . S
C923 C920 1.386 . S
C924 C919 1.490 . S
C924 C926 1.395 . S
C924 C927 1.403 . S
H925 C931 0.930 . S
C926 H912 0.930 . S
C926 C924 1.395 . S
C926 C929 1.403 . S
C927 C924 1.403 . S
C927 C928 1.524 . S
C927 C931 1.400 . S
C928 H913 0.960 . S
C928 H914 0.960 . S
C928 H915 0.960 . S
C928 C927 1.524 . S
C929 C926 1.403 . S
C929 C930 1.392 . S
C929 C933 1.495 . S
C930 C929 1.392 . S
C930 C931 1.385 . S
C930 C932 1.478 . S
C931 H925 0.930 . S
C931 C927 1.400 . S
C931 C930 1.385 . S
C932 C930 1.478 . S
C932 C934 1.381 . S
C932 C938 1.383 . S
C933 C929 1.495 . S
C933 H939 0.959 . S
C933 H940 0.961 . S
C933 H941 0.960 . S
C934 C932 1.381 . S
C934 C935 1.394 . S
C934 H942 0.930 . S
C935 C934 1.394 . S
C935 C936 1.383 . S
C935 H943 0.929 . S
C936 C935 1.383 . S
C936 C937 1.377 . S
C937 H921 0.930 . S
C937 C936 1.377 . S
C937 C938 1.379 . S
C938 H922 0.931 . S
C938 C932 1.383 . S
C938 C937 1.379 . S
H939 C933 0.959 . S
H940 C933 0.961 . S
H941 C933 0.960 . S
H942 C934 0.930 . S
H943 C935 0.929 . S
H944 C952 0.929 . S
H945 C954 0.930 . S
H946 C956 0.930 . S
H947 C959 0.929 . S
H948 C962 0.930 . S
H949 C964 0.960 . S
H950 C964 0.960 . S
H951 C964 0.960 . S
C952 H944 0.929 . S
C952 C953 1.377 . S
C952 C954 1.384 . S
C953 C952 1.377 . S
C953 C959 1.390 . S
C954 H945 0.930 . S
C954 C952 1.384 . S
C954 C955 1.372 . S
C955 C954 1.372 . S
C955 C956 1.400 . S
C955 C960 1.490 . S
C956 H946 0.930 . S
C956 C955 1.400 . S
C956 C959 1.386 . S
H957 C973 0.930 . S
H958 C974 0.931 . S
C959 H947 0.929 . S
C959 C953 1.390 . S
C959 C956 1.386 . S
C960 C955 1.490 . S
C960 C962 1.395 . S
C960 C963 1.403 . S
H961 C967 0.930 . S
C962 H948 0.930 . S
C962 C960 1.395 . S
C962 C965 1.403 . S
C963 C960 1.403 . S
C963 C964 1.524 . S
C963 C967 1.400 . S
C964 H949 0.960 . S
C964 H950 0.960 . S
C964 H951 0.960 . S
C964 C963 1.524 . S
C965 C962 1.403 . S
C965 C966 1.392 . S
C965 C969 1.495 . S
C966 C965 1.392 . S
C966 C967 1.385 . S
C966 C968 1.478 . S
C967 H961 0.930 . S
C967 C963 1.400 . S
C967 C966 1.385 . S
C968 C966 1.478 . S
C968 C970 1.381 . S
C968 C974 1.383 . S
C969 C965 1.495 . S
C969 H975 0.959 . S
C969 H976 0.961 . S
C969 H977 0.960 . S
C970 C968 1.381 . S
C970 C971 1.394 . S
C970 H978 0.930 . S
C971 C970 1.394 . S
C971 C972 1.383 . S
C971 H979 0.929 . S
C972 C971 1.383 . S
C972 C973 1.377 . S
C973 H957 0.930 . S
C973 C972 1.377 . S
C973 C974 1.379 . S
C974 H958 0.931 . S
C974 C968 1.383 . S
C974 C973 1.379 . S
H975 C969 0.959 . S
H976 C969 0.961 . S
H977 C969 0.960 . S
H978 C970 0.930 . S
H979 C971 0.929 . S
H980 C988 0.929 . S
H981 C990 0.930 . S
H982 C992 0.930 . S
H983 C995 0.929 . S
H984 C998 0.930 . S
H985 C1000 0.960 . S
H986 C1000 0.960 . S
H987 C1000 0.960 . S
C988 H980 0.929 . S
C988 C989 1.377 . S
C988 C990 1.384 . S
C989 C988 1.377 . S
C989 C995 1.390 . S
C990 H981 0.930 . S
C990 C988 1.384 . S
C990 C991 1.372 . S
C991 C990 1.372 . S
C991 C992 1.400 . S
C991 C996 1.490 . S
C992 H982 0.930 . S
C992 C991 1.400 . S
C992 C995 1.386 . S
H993 C1009 0.930 . S
H994 C1010 0.931 . S
C995 H983 0.929 . S
C995 C989 1.390 . S
C995 C992 1.386 . S
C996 C991 1.490 . S
C996 C998 1.395 . S
C996 C999 1.403 . S
H997 C1003 0.930 . S
C998 H984 0.930 . S
C998 C996 1.395 . S
C998 C1001 1.403 . S
C999 C996 1.403 . S
C999 C1000 1.524 . S
C999 C1003 1.400 . S
C1000 H985 0.960 . S
C1000 H986 0.960 . S
C1000 H987 0.960 . S
C1000 C999 1.524 . S
C1001 C998 1.403 . S
C1001 C1002 1.392 . S
C1001 C1005 1.495 . S
C1002 C1001 1.392 . S
C1002 C1003 1.385 . S
C1002 C1004 1.478 . S
C1003 H997 0.930 . S
C1003 C999 1.400 . S
C1003 C1002 1.385 . S
C1004 C1002 1.478 . S
C1004 C1006 1.381 . S
C1004 C1010 1.383 . S
C1005 C1001 1.495 . S
C1005 H1011 0.959 . S
C1005 H1012 0.961 . S
C1005 H1013 0.960 . S
C1006 C1004 1.381 . S
C1006 C1007 1.394 . S
C1006 H1014 0.930 . S
C1007 C1006 1.394 . S
C1007 C1008 1.383 . S
C1007 H1015 0.929 . S
C1008 C1007 1.383 . S
C1008 C1009 1.377 . S
C1009 H993 0.930 . S
C1009 C1008 1.377 . S
C1009 C1010 1.379 . S
C1010 H994 0.931 . S
C1010 C1004 1.383 . S
C1010 C1009 1.379 . S
H1011 C1005 0.959 . S
H1012 C1005 0.961 . S
H1013 C1005 0.960 . S
H1014 C1006 0.930 . S
H1015 C1007 0.929 . S
H1016 C1024 0.929 . S
H1017 C1026 0.930 . S
H1018 C1028 0.930 . S
H1019 C1031 0.929 . S
H1020 C1034 0.930 . S
H1021 C1036 0.960 . S
H1022 C1036 0.960 . S
H1023 C1036 0.960 . S
C1024 H1016 0.929 . S
C1024 C1025 1.377 . S
C1024 C1026 1.384 . S
C1025 C1024 1.377 . S
C1025 C1031 1.390 . S
C1026 H1017 0.930 . S
C1026 C1024 1.384 . S
C1026 C1027 1.372 . S
C1027 C1026 1.372 . S
C1027 C1028 1.400 . S
C1027 C1032 1.490 . S
C1028 H1018 0.930 . S
C1028 C1027 1.400 . S
C1028 C1031 1.386 . S
H1029 C1045 0.930 . S
H1030 C1046 0.931 . S
C1031 H1019 0.929 . S
C1031 C1025 1.390 . S
C1031 C1028 1.386 . S
C1032 C1027 1.490 . S
C1032 C1034 1.395 . S
C1032 C1035 1.403 . S
H1033 C1039 0.930 . S
C1034 H1020 0.930 . S
C1034 C1032 1.395 . S
C1034 C1037 1.403 . S
C1035 C1032 1.403 . S
C1035 C1036 1.524 . S
C1035 C1039 1.400 . S
C1036 H1021 0.960 . S
C1036 H1022 0.960 . S
C1036 H1023 0.960 . S
C1036 C1035 1.524 . S
C1037 C1034 1.403 . S
C1037 C1038 1.392 . S
C1037 C1041 1.495 . S
C1038 C1037 1.392 . S
C1038 C1039 1.385 . S
C1038 C1040 1.478 . S
C1039 H1033 0.930 . S
C1039 C1035 1.400 . S
C1039 C1038 1.385 . S
C1040 C1038 1.478 . S
C1040 C1042 1.381 . S
C1040 C1046 1.383 . S
C1041 C1037 1.495 . S
C1041 H1047 0.959 . S
C1041 H1048 0.961 . S
C1041 H1049 0.960 . S
C1042 C1040 1.381 . S
C1042 C1043 1.394 . S
C1042 H1050 0.930 . S
C1043 C1042 1.394 . S
C1043 C1044 1.383 . S
C1043 H1051 0.929 . S
C1044 C1043 1.383 . S
C1044 C1045 1.377 . S
C1045 H1029 0.930 . S
C1045 C1044 1.377 . S
C1045 C1046 1.379 . S
C1046 H1030 0.931 . S
C1046 C1040 1.383 . S
C1046 C1045 1.379 . S
H1047 C1041 0.959 . S
H1048 C1041 0.961 . S
H1049 C1041 0.960 . S
H1050 C1042 0.930 . S
H1051 C1043 0.929 . S
H1052 C1060 0.929 . S
H1053 C1062 0.930 . S
H1054 C1064 0.930 . S
H1055 C1067 0.929 . S
H1056 C1070 0.930 . S
H1057 C1072 0.960 . S
H1058 C1072 0.960 . S
H1059 C1072 0.960 . S
C1060 H1052 0.929 . S
C1060 C1061 1.377 . S
C1060 C1062 1.384 . S
C1061 C1060 1.377 . S
C1061 C1067 1.390 . S
C1062 H1053 0.930 . S
C1062 C1060 1.384 . S
C1062 C1063 1.372 . S
C1063 C1062 1.372 . S
C1063 C1064 1.400 . S
C1063 C1068 1.490 . S
C1064 H1054 0.930 . S
C1064 C1063 1.400 . S
C1064 C1067 1.386 . S
H1065 C1081 0.930 . S
H1066 C1082 0.931 . S
C1067 H1055 0.929 . S
C1067 C1061 1.390 . S
C1067 C1064 1.386 . S
C1068 C1063 1.490 . S
C1068 C1070 1.395 . S
C1068 C1071 1.403 . S
H1069 C1075 0.930 . S
C1070 H1056 0.930 . S
C1070 C1068 1.395 . S
C1070 C1073 1.403 . S
C1071 C1068 1.403 . S
C1071 C1072 1.524 . S
C1071 C1075 1.400 . S
C1072 H1057 0.960 . S
C1072 H1058 0.960 . S
C1072 H1059 0.960 . S
C1072 C1071 1.524 . S
C1073 C1070 1.403 . S
C1073 C1074 1.392 . S
C1073 C1077 1.495 . S
C1074 C1073 1.392 . S
C1074 C1075 1.385 . S
C1074 C1076 1.478 . S
C1075 H1069 0.930 . S
C1075 C1071 1.400 . S
C1075 C1074 1.385 . S
C1076 C1074 1.478 . S
C1076 C1078 1.381 . S
C1076 C1082 1.383 . S
C1077 C1073 1.495 . S
C1077 H1083 0.959 . S
C1077 H1084 0.961 . S
C1077 H1085 0.960 . S
C1078 C1076 1.381 . S
C1078 C1079 1.394 . S
C1078 H1086 0.930 . S
C1079 C1078 1.394 . S
C1079 C1080 1.383 . S
C1079 H1087 0.929 . S
C1080 C1079 1.383 . S
C1080 C1081 1.377 . S
C1081 H1065 0.930 . S
C1081 C1080 1.377 . S
C1081 C1082 1.379 . S
C1082 H1066 0.931 . S
C1082 C1076 1.383 . S
C1082 C1081 1.379 . S
H1083 C1077 0.959 . S
H1084 C1077 0.961 . S
H1085 C1077 0.960 . S
H1086 C1078 0.930 . S
H1087 C1079 0.929 . S
H1088 C1096 0.929 . S
H1089 C1098 0.930 . S
H1090 C1100 0.930 . S
H1091 C1103 0.929 . S
H1092 C1106 0.930 . S
H1093 C1108 0.960 . S
H1094 C1108 0.960 . S
H1095 C1108 0.960 . S
C1096 H1088 0.929 . S
C1096 C1097 1.377 . S
C1096 C1098 1.384 . S
C1097 C1096 1.377 . S
C1097 C1103 1.390 . S
C1098 H1089 0.930 . S
C1098 C1096 1.384 . S
C1098 C1099 1.372 . S
C1099 C1098 1.372 . S
C1099 C1100 1.400 . S
C1099 C1104 1.490 . S
C1100 H1090 0.930 . S
C1100 C1099 1.400 . S
C1100 C1103 1.386 . S
H1101 C1117 0.930 . S
H1102 C1118 0.931 . S
C1103 H1091 0.929 . S
C1103 C1097 1.390 . S
C1103 C1100 1.386 . S
C1104 C1099 1.490 . S
C1104 C1106 1.395 . S
C1104 C1107 1.403 . S
H1105 C1111 0.930 . S
C1106 H1092 0.930 . S
C1106 C1104 1.395 . S
C1106 C1109 1.403 1_545 S
C1107 C1104 1.403 . S
C1107 C1108 1.524 . S
C1107 C1111 1.400 1_545 S
C1108 H1093 0.960 . S
C1108 H1094 0.960 . S
C1108 H1095 0.960 . S
C1108 C1107 1.524 . S
C1109 C1106 1.403 1_565 S
C1109 C1110 1.392 . S
C1109 C1113 1.495 . S
C1110 C1109 1.392 . S
C1110 C1111 1.385 . S
C1110 C1112 1.478 . S
C1111 H1105 0.930 . S
C1111 C1107 1.400 1_565 S
C1111 C1110 1.385 . S
C1112 C1110 1.478 . S
C1112 C1114 1.381 . S
C1112 C1118 1.383 . S
C1113 C1109 1.495 . S
C1113 H1119 0.959 . S
C1113 H1120 0.961 . S
C1113 H1121 0.960 . S
C1114 C1112 1.381 . S
C1114 C1115 1.394 . S
C1114 H1122 0.930 . S
C1115 C1114 1.394 . S
C1115 C1116 1.383 . S
C1115 H1123 0.929 . S
C1116 C1115 1.383 . S
C1116 C1117 1.377 . S
C1117 H1101 0.930 . S
C1117 C1116 1.377 . S
C1117 C1118 1.379 . S
C1118 H1102 0.931 . S
C1118 C1112 1.383 . S
C1118 C1117 1.379 . S
H1119 C1113 0.959 . S
H1120 C1113 0.961 . S
H1121 C1113 0.960 . S
H1122 C1114 0.930 . S
H1123 C1115 0.929 . S
H1124 C1132 0.929 . S
H1125 C1134 0.930 . S
H1126 C1136 0.930 . S
H1127 C1139 0.929 . S
H1128 C1142 0.930 . S
H1129 C1144 0.960 1_455 S
H1130 C1144 0.960 . S
H1131 C1144 0.960 . S
C1132 H1124 0.929 . S
C1132 C1133 1.377 . S
C1132 C1134 1.384 . S
C1133 C1132 1.377 . S
C1133 C1139 1.390 . S
C1134 H1125 0.930 . S
C1134 C1132 1.384 . S
C1134 C1135 1.372 . S
C1135 C1134 1.372 . S
C1135 C1136 1.400 . S
C1135 C1140 1.490 . S
C1136 H1126 0.930 . S
C1136 C1135 1.400 . S
C1136 C1139 1.386 . S
H1137 C1153 0.930 . S
H1138 C1154 0.931 . S
C1139 H1127 0.929 . S
C1139 C1133 1.390 . S
C1139 C1136 1.386 . S
C1140 C1135 1.490 . S
C1140 C1142 1.395 . S
C1140 C1143 1.403 . S
H1141 C1147 0.930 . S
C1142 H1128 0.930 . S
C1142 C1140 1.395 . S
C1142 C1145 1.403 1_655 S
C1143 C1140 1.403 . S
C1143 C1144 1.524 . S
C1143 C1147 1.400 1_655 S
C1144 H1129 0.960 1_655 S
C1144 H1130 0.960 . S
C1144 H1131 0.960 . S
C1144 C1143 1.524 . S
C1145 C1142 1.403 1_455 S
C1145 C1146 1.392 . S
C1145 C1149 1.495 . S
C1146 C1145 1.392 . S
C1146 C1147 1.385 . S
C1146 C1148 1.478 . S
C1147 H1141 0.930 . S
C1147 C1143 1.400 1_455 S
C1147 C1146 1.385 . S
C1148 C1146 1.478 . S
C1148 C1150 1.381 . S
C1148 C1154 1.383 . S
C1149 C1145 1.495 . S
C1149 H1155 0.959 1_455 S
C1149 H1156 0.961 . S
C1149 H1157 0.960 . S
C1150 C1148 1.381 . S
C1150 C1151 1.394 . S
C1150 H1158 0.930 . S
C1151 C1150 1.394 . S
C1151 C1152 1.383 . S
C1151 H1159 0.929 . S
C1152 C1151 1.383 . S
C1152 C1153 1.377 . S
C1153 H1137 0.930 . S
C1153 C1152 1.377 . S
C1153 C1154 1.379 . S
C1154 H1138 0.931 . S
C1154 C1148 1.383 . S
C1154 C1153 1.379 . S
H1155 C1149 0.959 1_655 S
H1156 C1149 0.961 . S
H1157 C1149 0.960 . S
H1158 C1150 0.930 . S
H1159 C1151 0.929 . S
H1160 C1168 0.929 . S
H1161 C1170 0.930 . S
H1162 C1172 0.930 . S
H1163 C1175 0.929 . S
H1164 C1178 0.930 . S
H1165 C1180 0.960 . S
H1166 C1180 0.960 . S
H1167 C1180 0.960 . S
C1168 H1160 0.929 . S
C1168 C1169 1.377 . S
C1168 C1170 1.384 . S
C1169 C1168 1.377 . S
C1169 C1175 1.390 . S
C1170 H1161 0.930 . S
C1170 C1168 1.384 . S
C1170 C1171 1.372 . S
C1171 C1170 1.372 . S
C1171 C1172 1.400 . S
C1171 C1176 1.490 . S
C1172 H1162 0.930 . S
C1172 C1171 1.400 . S
C1172 C1175 1.386 . S
H1173 C1189 0.930 . S
H1174 C1190 0.931 . S
C1175 H1163 0.929 . S
C1175 C1169 1.390 . S
C1175 C1172 1.386 . S
C1176 C1171 1.490 . S
C1176 C1178 1.395 . S
C1176 C1179 1.403 . S
H1177 C1183 0.930 . S
C1178 H1164 0.930 . S
C1178 C1176 1.395 . S
C1178 C1181 1.403 1_545 S
C1179 C1176 1.403 . S
C1179 C1180 1.524 . S
C1179 C1183 1.400 1_545 S
C1180 H1165 0.960 . S
C1180 H1166 0.960 . S
C1180 H1167 0.960 . S
C1180 C1179 1.524 . S
C1181 C1178 1.403 1_565 S
C1181 C1182 1.392 . S
C1181 C1185 1.495 . S
C1182 C1181 1.392 . S
C1182 C1183 1.385 . S
C1182 C1184 1.478 . S
C1183 H1177 0.930 . S
C1183 C1179 1.400 1_565 S
C1183 C1182 1.385 . S
C1184 C1182 1.478 . S
C1184 C1186 1.381 . S
C1184 C1190 1.383 . S
C1185 C1181 1.495 . S
C1185 H1191 0.959 . S
C1185 H1192 0.961 . S
C1185 H1193 0.960 . S
C1186 C1184 1.381 . S
C1186 C1187 1.394 . S
C1186 H1194 0.930 . S
C1187 C1186 1.394 . S
C1187 C1188 1.383 . S
C1187 H1195 0.929 . S
C1188 C1187 1.383 . S
C1188 C1189 1.377 . S
C1189 H1173 0.930 . S
C1189 C1188 1.377 . S
C1189 C1190 1.379 . S
C1190 H1174 0.931 . S
C1190 C1184 1.383 . S
C1190 C1189 1.379 . S
H1191 C1185 0.959 . S
H1192 C1185 0.961 . S
H1193 C1185 0.960 . S
H1194 C1186 0.930 . S
H1195 C1187 0.929 . S
H1196 C1204 0.929 . S
H1197 C1206 0.930 . S
H1198 C1208 0.930 . S
H1199 C1211 0.929 . S
H1200 C1214 0.930 . S
H1201 C1216 0.960 . S
H1202 C1216 0.960 . S
H1203 C1216 0.960 . S
C1204 H1196 0.929 . S
C1204 C1205 1.377 . S
C1204 C1206 1.384 . S
C1205 C1204 1.377 . S
C1205 C1211 1.390 . S
C1206 H1197 0.930 . S
C1206 C1204 1.384 . S
C1206 C1207 1.372 . S
C1207 C1206 1.372 . S
C1207 C1208 1.400 . S
C1207 C1212 1.490 . S
C1208 H1198 0.930 . S
C1208 C1207 1.400 . S
C1208 C1211 1.386 . S
H1209 C1225 0.930 . S
H1210 C1226 0.931 . S
C1211 H1199 0.929 . S
C1211 C1205 1.390 . S
C1211 C1208 1.386 . S
C1212 C1207 1.490 . S
C1212 C1214 1.395 . S
C1212 C1215 1.403 . S
H1213 C1219 0.930 . S
C1214 H1200 0.930 . S
C1214 C1212 1.395 . S
C1214 C1217 1.403 1_455 S
C1215 C1212 1.403 . S
C1215 C1216 1.524 . S
C1215 C1219 1.400 1_455 S
C1216 H1201 0.960 . S
C1216 H1202 0.960 . S
C1216 H1203 0.960 . S
C1216 C1215 1.524 . S
C1217 C1214 1.403 1_655 S
C1217 C1218 1.392 . S
C1217 C1221 1.495 . S
C1218 C1217 1.392 . S
C1218 C1219 1.385 . S
C1218 C1220 1.478 . S
C1219 H1213 0.930 . S
C1219 C1215 1.400 1_655 S
C1219 C1218 1.385 . S
C1220 C1218 1.478 . S
C1220 C1222 1.381 . S
C1220 C1226 1.383 . S
C1221 C1217 1.495 . S
C1221 H1227 0.959 . S
C1221 H1228 0.961 . S
C1221 H1229 0.960 . S
C1222 C1220 1.381 . S
C1222 C1223 1.394 . S
C1222 H1230 0.930 . S
C1223 C1222 1.394 . S
C1223 C1224 1.383 . S
C1223 H1231 0.929 . S
C1224 C1223 1.383 . S
C1224 C1225 1.377 . S
C1225 H1209 0.930 . S
C1225 C1224 1.377 . S
C1225 C1226 1.379 . S
C1226 H1210 0.931 . S
C1226 C1220 1.383 . S
C1226 C1225 1.379 . S
H1227 C1221 0.959 . S
H1228 C1221 0.961 . S
H1229 C1221 0.960 . S
H1230 C1222 0.930 . S
H1231 C1223 0.929 . S
H1232 C1240 0.929 . S
H1233 C1242 0.930 . S
H1234 C1244 0.930 . S
H1235 C1247 0.929 . S
H1236 C1250 0.930 . S
H1237 C1252 0.960 . S
H1238 C1252 0.960 . S
H1239 C1252 0.960 . S
C1240 H1232 0.929 . S
C1240 C1241 1.377 . S
C1240 C1242 1.384 . S
C1241 C1240 1.377 . S
C1241 C1247 1.390 . S
C1242 H1233 0.930 . S
C1242 C1240 1.384 . S
C1242 C1243 1.372 . S
C1243 C1242 1.372 . S
C1243 C1244 1.400 . S
C1243 C1248 1.490 . S
C1244 H1234 0.930 . S
C1244 C1243 1.400 . S
C1244 C1247 1.386 . S
H1245 C1261 0.930 . S
H1246 C1262 0.931 . S
C1247 H1235 0.929 . S
C1247 C1241 1.390 . S
C1247 C1244 1.386 . S
C1248 C1243 1.490 . S
C1248 C1250 1.395 . S
C1248 C1251 1.403 . S
H1249 C1255 0.930 . S
C1250 H1236 0.930 . S
C1250 C1248 1.395 . S
C1250 C1253 1.403 1_545 S
C1251 C1248 1.403 . S
C1251 C1252 1.524 . S
C1251 C1255 1.400 1_545 S
C1252 H1237 0.960 . S
C1252 H1238 0.960 . S
C1252 H1239 0.960 . S
C1252 C1251 1.524 . S
C1253 C1250 1.403 1_565 S
C1253 C1254 1.392 . S
C1253 C1257 1.495 . S
C1254 C1253 1.392 . S
C1254 C1255 1.385 . S
C1254 C1256 1.478 . S
C1255 H1249 0.930 . S
C1255 C1251 1.400 1_565 S
C1255 C1254 1.385 . S
C1256 C1254 1.478 . S
C1256 C1258 1.381 . S
C1256 C1262 1.383 . S
C1257 C1253 1.495 . S
C1257 H1263 0.959 . S
C1257 H1264 0.961 . S
C1257 H1265 0.960 . S
C1258 C1256 1.381 . S
C1258 C1259 1.394 . S
C1258 H1266 0.930 . S
C1259 C1258 1.394 . S
C1259 C1260 1.383 . S
C1259 H1267 0.929 . S
C1260 C1259 1.383 . S
C1260 C1261 1.377 . S
C1261 H1245 0.930 . S
C1261 C1260 1.377 . S
C1261 C1262 1.379 . S
C1262 H1246 0.931 . S
C1262 C1256 1.383 . S
C1262 C1261 1.379 . S
H1263 C1257 0.959 . S
H1264 C1257 0.961 . S
H1265 C1257 0.960 . S
H1266 C1258 0.930 . S
H1267 C1259 0.929 . S
H1268 C1276 0.929 . S
H1269 C1278 0.930 . S
H1270 C1280 0.930 . S
H1271 C1283 0.929 . S
H1272 C1286 0.930 . S
H1273 C1288 0.960 . S
H1274 C1288 0.960 . S
H1275 C1288 0.960 . S
C1276 H1268 0.929 . S
C1276 C1277 1.377 . S
C1276 C1278 1.384 . S
C1277 C1276 1.377 . S
C1277 C1283 1.390 . S
C1278 H1269 0.930 . S
C1278 C1276 1.384 . S
C1278 C1279 1.372 . S
C1279 C1278 1.372 . S
C1279 C1280 1.400 . S
C1279 C1284 1.490 . S
C1280 H1270 0.930 . S
C1280 C1279 1.400 . S
C1280 C1283 1.386 . S
H1281 C1297 0.930 . S
H1282 C1298 0.931 . S
C1283 H1271 0.929 . S
C1283 C1277 1.390 . S
C1283 C1280 1.386 . S
C1284 C1279 1.490 . S
C1284 C1286 1.395 . S
C1284 C1287 1.403 . S
H1285 C1291 0.930 . S
C1286 H1272 0.930 . S
C1286 C1284 1.395 . S
C1286 C1289 1.403 1_655 S
C1287 C1284 1.403 . S
C1287 C1288 1.524 . S
C1287 C1291 1.400 1_655 S
C1288 H1273 0.960 . S
C1288 H1274 0.960 . S
C1288 H1275 0.960 . S
C1288 C1287 1.524 . S
C1289 C1286 1.403 1_455 S
C1289 C1290 1.392 . S
C1289 C1293 1.495 . S
C1290 C1289 1.392 . S
C1290 C1291 1.385 . S
C1290 C1292 1.478 . S
C1291 H1285 0.930 . S
C1291 C1287 1.400 1_455 S
C1291 C1290 1.385 . S
C1292 C1290 1.478 . S
C1292 C1294 1.381 . S
C1292 C1298 1.383 . S
C1293 C1289 1.495 . S
C1293 H1299 0.959 . S
C1293 H1300 0.961 . S
C1293 H1301 0.960 . S
C1294 C1292 1.381 . S
C1294 C1295 1.394 . S
C1294 H1302 0.930 . S
C1295 C1294 1.394 . S
C1295 C1296 1.383 . S
C1295 H1303 0.929 . S
C1296 C1295 1.383 . S
C1296 C1297 1.377 . S
C1297 H1281 0.930 . S
C1297 C1296 1.377 . S
C1297 C1298 1.379 . S
C1298 H1282 0.931 . S
C1298 C1292 1.383 . S
C1298 C1297 1.379 . S
H1299 C1293 0.959 . S
H1300 C1293 0.961 . S
H1301 C1293 0.960 . S
H1302 C1294 0.930 . S
H1303 C1295 0.929 . S
H1304 C1312 0.929 . S
H1305 C1314 0.930 . S
H1306 C1316 0.930 . S
H1307 C1319 0.929 . S
H1308 C1322 0.930 . S
H1309 C1324 0.960 . S
H1310 C1324 0.960 . S
H1311 C1324 0.960 . S
C1312 H1304 0.929 . S
C1312 C1313 1.377 . S
C1312 C1314 1.384 . S
C1313 C1312 1.377 . S
C1313 C1319 1.390 . S
C1314 H1305 0.930 . S
C1314 C1312 1.384 . S
C1314 C1315 1.372 . S
C1315 C1314 1.372 . S
C1315 C1316 1.400 . S
C1315 C1320 1.490 . S
C1316 H1306 0.930 . S
C1316 C1315 1.400 . S
C1316 C1319 1.386 . S
H1317 C1333 0.930 . S
H1318 C1334 0.931 . S
C1319 H1307 0.929 . S
C1319 C1313 1.390 . S
C1319 C1316 1.386 . S
C1320 C1315 1.490 . S
C1320 C1322 1.395 . S
C1320 C1323 1.403 . S
H1321 C1327 0.930 . S
C1322 H1308 0.930 . S
C1322 C1320 1.395 . S
C1322 C1325 1.403 1_565 S
C1323 C1320 1.403 . S
C1323 C1324 1.524 . S
C1323 C1327 1.400 1_565 S
C1324 H1309 0.960 . S
C1324 H1310 0.960 . S
C1324 H1311 0.960 . S
C1324 C1323 1.524 . S
C1325 C1322 1.403 1_545 S
C1325 C1326 1.392 . S
C1325 C1329 1.495 . S
C1326 C1325 1.392 . S
C1326 C1327 1.385 . S
C1326 C1328 1.478 . S
C1327 H1321 0.930 . S
C1327 C1323 1.400 1_545 S
C1327 C1326 1.385 . S
C1328 C1326 1.478 . S
C1328 C1330 1.381 . S
C1328 C1334 1.383 . S
C1329 C1325 1.495 . S
C1329 H1335 0.959 . S
C1329 H1336 0.961 . S
C1329 H1337 0.960 . S
C1330 C1328 1.381 . S
C1330 C1331 1.394 . S
C1330 H1338 0.930 . S
C1331 C1330 1.394 . S
C1331 C1332 1.383 . S
C1331 H1339 0.929 . S
C1332 C1331 1.383 . S
C1332 C1333 1.377 . S
C1333 H1317 0.930 . S
C1333 C1332 1.377 . S
C1333 C1334 1.379 . S
C1334 H1318 0.931 . S
C1334 C1328 1.383 . S
C1334 C1333 1.379 . S
H1335 C1329 0.959 . S
H1336 C1329 0.961 . S
H1337 C1329 0.960 . S
H1338 C1330 0.930 . S
H1339 C1331 0.929 . S
H1340 C1348 0.929 . S
H1341 C1350 0.930 . S
H1342 C1352 0.930 . S
H1343 C1355 0.929 . S
H1344 C1358 0.930 . S
H1345 C1360 0.960 . S
H1346 C1360 0.960 . S
H1347 C1360 0.960 . S
C1348 H1340 0.929 . S
C1348 C1349 1.377 . S
C1348 C1350 1.384 . S
C1349 C1348 1.377 . S
C1349 C1355 1.390 . S
C1350 H1341 0.930 . S
C1350 C1348 1.384 . S
C1350 C1351 1.372 . S
C1351 C1350 1.372 . S
C1351 C1352 1.400 . S
C1351 C1356 1.490 . S
C1352 H1342 0.930 . S
C1352 C1351 1.400 . S
C1352 C1355 1.386 . S
H1353 C1369 0.930 . S
H1354 C1370 0.931 . S
C1355 H1343 0.929 . S
C1355 C1349 1.390 . S
C1355 C1352 1.386 . S
C1356 C1351 1.490 . S
C1356 C1358 1.395 . S
C1356 C1359 1.403 . S
H1357 C1363 0.930 . S
C1358 H1344 0.930 . S
C1358 C1356 1.395 . S
C1358 C1361 1.403 1_455 S
C1359 C1356 1.403 . S
C1359 C1360 1.524 . S
C1359 C1363 1.400 1_455 S
C1360 H1345 0.960 . S
C1360 H1346 0.960 . S
C1360 H1347 0.960 . S
C1360 C1359 1.524 . S
C1361 C1358 1.403 1_655 S
C1361 C1362 1.392 . S
C1361 C1365 1.495 . S
C1362 C1361 1.392 . S
C1362 C1363 1.385 . S
C1362 C1364 1.478 . S
C1363 H1357 0.930 . S
C1363 C1359 1.400 1_655 S
C1363 C1362 1.385 . S
C1364 C1362 1.478 . S
C1364 C1366 1.381 . S
C1364 C1370 1.383 . S
C1365 C1361 1.495 . S
C1365 H1371 0.959 . S
C1365 H1372 0.961 . S
C1365 H1373 0.960 . S
C1366 C1364 1.381 . S
C1366 C1367 1.394 . S
C1366 H1374 0.930 . S
C1367 C1366 1.394 . S
C1367 C1368 1.383 . S
C1367 H1375 0.929 . S
C1368 C1367 1.383 . S
C1368 C1369 1.377 . S
C1369 H1353 0.930 . S
C1369 C1368 1.377 . S
C1369 C1370 1.379 . S
C1370 H1354 0.931 . S
C1370 C1364 1.383 . S
C1370 C1369 1.379 . S
H1371 C1365 0.959 . S
H1372 C1365 0.961 . S
H1373 C1365 0.960 . S
H1374 C1366 0.930 . S
H1375 C1367 0.929 . S
C233 C81 1.368 . S
C252 C11 1.364 . S
C269 C95 1.372 . S
C288 C25 1.353 . S
C305 C39 1.367 . S
C324 C109 1.378 . S
C341 C53 1.371 . S
C360 C67 1.359 . S
C377 C193 1.372 . S
C396 C123 1.352 . S
C413 C207 1.372 . S
C432 C137 1.353 . S
C449 C151 1.371 . S
C468 C221 1.352 . S
C485 C165 1.368 . S
C504 C179 1.377 . S
C521 C149 1.544 . S
C540 C9 1.539 . S
C557 C163 1.544 . S
C576 C23 1.539 . S
C593 C121 1.543 . S
C612 C37 1.542 . S
C629 C51 1.544 . S
C648 C135 1.539 . S
C665 C205 1.543 . S
C684 C65 1.542 . S
C701 C219 1.543 . S
C720 C79 1.541 . S
C737 C93 1.544 . S
C756 C177 1.540 . S
C773 C191 1.544 . S
C792 C107 1.538 . S
C809 C61 2.048 . S
C828 C5 2.045 . S
C845 C19 2.048 . S
C864 C75 2.041 . S
C881 C33 2.048 . S
C900 C89 2.038 . S
C917 C103 2.047 . S
C936 C47 2.039 . S
C953 C112 0.750 . S
C972 C168 0.716 . S
C989 C182 0.744 . S
C1008 C126 0.724 . S
C1025 C140 0.741 . S
C1044 C196 0.740 . S
C1061 C210 0.749 . S
C1080 C154 0.703 . S
C1097 C159 2.047 . S
C1116 C187 2.040 . S
C1133 C117 2.048 . S
C1152 C201 2.045 . S
C1169 C215 2.046 . S
C1188 C131 2.044 . S
C1205 C145 2.048 . S
C1224 C173 2.039 . S
C1241 C70 0.743 . S
C1260 C42 0.757 . S
C1277 C84 0.734 . S
C1296 C0 0.786 . S
C1313 C98 0.750 . S
C1332 C14 0.715 . S
C1349 C56 0.749 . S
C1368 C28 0.722 . S
