# Generated by pormake.
# Topology smc, (6)-cn, num edge types: 1
# Building blocks:
#     Node 0, Type 0, BuildingBlock: VOLQOD_clean_sbu_1, # of connection points: 6
#     Node 1, Type 0, BuildingBlock: VOLQOD_clean_sbu_1, # of connection points: 6
#     Node 2, Type 0, BuildingBlock: VOLQOD_clean_sbu_1, # of connection points: 6
#     Node 3, Type 0, BuildingBlock: VOLQOD_clean_sbu_1, # of connection points: 6
#     Node 4, Type 0, BuildingBlock: VOLQOD_clean_sbu_1, # of connection points: 6
#     Node 5, Type 0, BuildingBlock: VOLQOD_clean_sbu_1, # of connection points: 6
#     Node 6, Type 0, BuildingBlock: VOLQOD_clean_sbu_1, # of connection points: 6
#     Node 7, Type 0, BuildingBlock: VOLQOD_clean_sbu_1, # of connection points: 6
#     Node 8, Type 0, BuildingBlock: VOLQOD_clean_sbu_1, # of connection points: 6
#     Edge 9, Type (0, 0), BuildingBlock: TEMPAE_clean_linker_10, # of connection points: 2
#     Edge 10, Type (0, 0), BuildingBlock: TEMPAE_clean_linker_10, # of connection points: 2
#     Edge 11, Type (0, 0), BuildingBlock: TEMPAE_clean_linker_10, # of connection points: 2
#     Edge 12, Type (0, 0), BuildingBlock: TEMPAE_clean_linker_10, # of connection points: 2
#     Edge 13, Type (0, 0), BuildingBlock: TEMPAE_clean_linker_10, # of connection points: 2
#     Edge 14, Type (0, 0), BuildingBlock: TEMPAE_clean_linker_10, # of connection points: 2
#     Edge 15, Type (0, 0), BuildingBlock: TEMPAE_clean_linker_10, # of connection points: 2
#     Edge 16, Type (0, 0), BuildingBlock: TEMPAE_clean_linker_10, # of connection points: 2
#     Edge 17, Type (0, 0), BuildingBlock: TEMPAE_clean_linker_10, # of connection points: 2
#     Edge 18, Type (0, 0), BuildingBlock: TEMPAE_clean_linker_10, # of connection points: 2
#     Edge 19, Type (0, 0), BuildingBlock: TEMPAE_clean_linker_10, # of connection points: 2
#     Edge 20, Type (0, 0), BuildingBlock: TEMPAE_clean_linker_10, # of connection points: 2
#     Edge 21, Type (0, 0), BuildingBlock: TEMPAE_clean_linker_10, # of connection points: 2
#     Edge 22, Type (0, 0), BuildingBlock: TEMPAE_clean_linker_10, # of connection points: 2
#     Edge 23, Type (0, 0), BuildingBlock: TEMPAE_clean_linker_10, # of connection points: 2
#     Edge 24, Type (0, 0), BuildingBlock: TEMPAE_clean_linker_10, # of connection points: 2
#     Edge 25, Type (0, 0), BuildingBlock: TEMPAE_clean_linker_10, # of connection points: 2
#     Edge 26, Type (0, 0), BuildingBlock: TEMPAE_clean_linker_10, # of connection points: 2
#     Edge 27, Type (0, 0), BuildingBlock: TEMPAE_clean_linker_10, # of connection points: 2
#     Edge 28, Type (0, 0), BuildingBlock: TEMPAE_clean_linker_10, # of connection points: 2
#     Edge 29, Type (0, 0), BuildingBlock: TEMPAE_clean_linker_10, # of connection points: 2
#     Edge 30, Type (0, 0), BuildingBlock: TEMPAE_clean_linker_10, # of connection points: 2
#     Edge 31, Type (0, 0), BuildingBlock: TEMPAE_clean_linker_10, # of connection points: 2
#     Edge 32, Type (0, 0), BuildingBlock: TEMPAE_clean_linker_10, # of connection points: 2
#     Edge 33, Type (0, 0), BuildingBlock: TEMPAE_clean_linker_10, # of connection points: 2
#     Edge 34, Type (0, 0), BuildingBlock: TEMPAE_clean_linker_10, # of connection points: 2
#     Edge 35, Type (0, 0), BuildingBlock: TEMPAE_clean_linker_10, # of connection points: 2
# Relax obj value: 0.338
# Max RMSD: 0.273
# Mean RMSD: 0.261
data_MOF--net-smc--node1-VOLQOD_clean_sbu_1--edge1-TEMPAE_clean_linker_10
_symmetry_space_group_name_H-M    P1
_symmetry_Int_Tables_number       1
_symmetry_cell_setting            triclinic
loop_
_symmetry_equiv_pos_as_xyz
'x, y, z'
_cell_length_a     30.911484
_cell_length_b     31.397646
_cell_length_c     49.127783
_cell_angle_alpha  89.869053
_cell_angle_beta   90.121703
_cell_angle_gamma 121.39675
loop_
_atom_site_label
_atom_site_type_symbol
_atom_site_fract_x
_atom_site_fract_y
_atom_site_fract_z
_atom_type_partial_charge
O0 O 0.95629 0.48886 0.99242 0.0
Zn1 Zn 0.00466 0.47071 0.97734 0.0
O2 O 0.02837 0.44302 0.0045 0.0
Zn3 Zn 0.00902 0.3761 0.99335 0.0
Zn4 Zn -0.00163 0.44514 0.03827 0.0
Zn5 Zn 0.10042 0.48223 0.00978 0.0
O6 O 0.06915 0.36673 0.99454 0.0
O7 O 0.13095 0.44669 0.99244 0.0
O8 O 0.97293 0.42635 0.94505 0.0
O9 O 0.98292 0.36267 0.95418 0.0
O10 O 0.95137 0.32753 0.01726 0.0
O11 O 0.93998 0.37682 0.0451 0.0
O12 O 0.04551 0.46379 0.06971 0.0
O13 O 0.063 0.53548 0.96508 0.0
O14 O 0.11977 0.48886 0.05032 0.0
O15 O 0.1274 0.54921 0.99172 0.0
C16 C 0.95406 0.50248 0.01645 0.0
C17 C 0.11536 0.40042 0.99041 0.0
C18 C 0.92676 0.33365 0.03612 0.0
C19 C 0.96863 0.38525 0.93832 0.0
C20 C 0.09259 0.48001 0.07153 0.0
C21 C 0.10827 0.56355 0.97344 0.0
O22 O 0.97374 0.4931 0.03656 0.0
O23 O 0.57571 0.46869 0.01651 0.0
Zn24 Zn 0.56127 0.52028 0.00354 0.0
O25 O 0.59134 0.57699 0.02793 0.0
Zn26 Zn 0.64491 0.63452 0.00895 0.0
Zn27 Zn 0.61579 0.55748 0.05819 0.0
Zn28 Zn 0.5415 0.58845 0.04329 0.0
O29 O 0.631 0.69145 0.01041 0.0
O30 O 0.55191 0.65047 0.02643 0.0
O31 O 0.58534 0.53899 0.96487 0.0
O32 O 0.64397 0.61925 0.96874 0.0
O33 O 0.71332 0.64837 0.02321 0.0
O34 O 0.68871 0.58473 0.05209 0.0
O35 O 0.60915 0.58461 0.09351 0.0
O36 O 0.48542 0.48619 0.00456 0.0
O37 O 0.54845 0.59984 0.08419 0.0
O38 O 0.47209 0.53101 0.03457 0.0
C39 C 0.56697 0.45306 0.04092 0.0
C40 C 0.58922 0.68908 0.01563 0.0
C41 C 0.72332 0.62221 0.0391 0.0
C42 C 0.61876 0.58018 0.95423 0.0
C43 C 0.57902 0.59837 0.10103 0.0
C44 C 0.45548 0.49364 0.01868 0.0
O45 O 0.57495 0.48257 0.06055 0.0
O46 O 0.49013 0.96232 0.00741 0.0
Zn47 Zn 0.46994 0.01103 0.01696 0.0
O48 O 0.43897 0.02405 0.98636 0.0
Zn49 Zn 0.37147 0.00832 0.99786 0.0
Zn50 Zn 0.4364 0.98369 0.95589 0.0
Zn51 Zn 0.48018 0.09305 0.97487 0.0
O52 O 0.36573 0.06943 0.99686 0.0
O53 O 0.44448 0.12786 0.98527 0.0
O54 O 0.42744 0.98882 0.05069 0.0
O55 O 0.35841 0.98778 0.03747 0.0
O56 O 0.3179 0.95072 0.97576 0.0
O57 O 0.36443 0.93112 0.95016 0.0
O58 O 0.45941 0.02261 0.92097 0.0
O59 O 0.53445 0.07184 0.02647 0.0
O60 O 0.48964 0.10057 0.93405 0.0
O61 O 0.54783 0.12684 0.9941 0.0
C62 C 0.49362 0.94367 0.98518 0.0
C63 C 0.39977 0.11483 0.99256 0.0
C64 C 0.32161 0.9229 0.9582 0.0
C65 C 0.38401 0.98204 0.05586 0.0
C66 C 0.47914 0.06865 0.91531 0.0
C67 C 0.56232 0.11401 0.01525 0.0
O68 O 0.47642 0.9502 0.96298 0.0
O69 O 0.62251 0.83776 0.33746 0.0
Zn70 Zn 0.66981 0.81452 0.32896 0.0
O71 O 0.68174 0.78499 0.36024 0.0
Zn72 Zn 0.65633 0.71489 0.35164 0.0
Zn73 Zn 0.64796 0.79332 0.39097 0.0
Zn74 Zn 0.75293 0.82053 0.3694 0.0
O75 O 0.71396 0.70175 0.35116 0.0
O76 O 0.78024 0.77861 0.35797 0.0
O77 O 0.64359 0.76963 0.29678 0.0
O78 O 0.62774 0.69714 0.31315 0.0
O79 O 0.59961 0.67082 0.3776 0.0
O80 O 0.58899 0.7266 0.39968 0.0
O81 O 0.69054 0.81463 0.42483 0.0
O82 O 0.73298 0.87561 0.31817 0.0
O83 O 0.76507 0.83046 0.41006 0.0
O84 O 0.78987 0.88656 0.34943 0.0
C85 C 0.61075 0.84999 0.35964 0.0
C86 C 0.76156 0.73261 0.35266 0.0
C87 C 0.57532 0.6816 0.39446 0.0
C88 C 0.62726 0.72355 0.29355 0.0
C89 C 0.73605 0.82671 0.42948 0.0
C90 C 0.77686 0.90153 0.32854 0.0
O91 O 0.62211 0.83945 0.38262 0.0
O92 O 0.20318 0.82292 0.30992 0.0
Zn93 Zn 0.20558 0.88487 0.29753 0.0
O94 O 0.23802 0.93771 0.3239 0.0
Zn95 Zn 0.30268 0.99064 0.31031 0.0
Zn96 Zn 0.24522 0.90609 0.35482 0.0
Zn97 Zn 0.1951 0.96145 0.33517 0.0
O98 O 0.30549 0.05713 0.31372 0.0
O99 O 0.22258 0.02813 0.31809 0.0
O100 O 0.23882 0.90595 0.26109 0.0
O101 O 0.30721 0.98005 0.26974 0.0
O102 O 0.35972 0.98627 0.32918 0.0
O103 O 0.31419 0.91766 0.35418 0.0
O104 O 0.23887 0.93512 0.38926 0.0
O105 O 0.13224 0.8621 0.2951 0.0
O106 O 0.19677 0.97128 0.37647 0.0
O107 O 0.12354 0.91264 0.32323 0.0
C108 C 0.18647 0.80487 0.33342 0.0
C109 C 0.2678 0.06348 0.3132 0.0
C110 C 0.35653 0.95189 0.34468 0.0
C111 C 0.27934 0.94494 0.25318 0.0
C112 C 0.21772 0.95945 0.39493 0.0
C113 C 0.1047 0.8752 0.30723 0.0
O114 O 0.19331 0.83287 0.35366 0.0
O115 O 0.21538 0.45829 0.34122 0.0
Zn116 Zn 0.16119 0.40084 0.32002 0.0
O117 O 0.09706 0.37166 0.33979 0.0
Zn118 Zn 0.04607 0.37064 0.31575 0.0
Zn119 Zn 0.10477 0.4099 0.3718 0.0
Zn120 Zn 0.07757 0.30641 0.35348 0.0
O121 O 0.98657 0.30032 0.31149 0.0
O122 O 0.01686 0.25807 0.33263 0.0
O123 O 0.15694 0.42208 0.28138 0.0
O124 O 0.07442 0.39256 0.27789 0.0
O125 O 0.02676 0.42024 0.32842 0.0
O126 O 0.07587 0.45196 0.36497 0.0
O127 O 0.07025 0.36878 0.40469 0.0
O128 O 0.18494 0.35177 0.31816 0.0
O129 O 0.05917 0.29543 0.39387 0.0
O130 O 0.13175 0.29128 0.34605 0.0
C131 C 0.21735 0.47114 0.36598 0.0
C132 C 0.98374 0.25964 0.31799 0.0
C133 C 0.04439 0.45139 0.34804 0.0
C134 C 0.11846 0.41348 0.26735 0.0
C135 C 0.05629 0.3242 0.41104 0.0
C136 C 0.17086 0.31116 0.33088 0.0
O137 O 0.17809 0.45295 0.38089 0.0
O138 O 0.23715 0.12033 0.65863 0.0
Zn139 Zn 0.29235 0.11678 0.63966 0.0
O140 O 0.31773 0.0837 0.6622 0.0
Zn141 Zn 0.30275 0.02169 0.64475 0.0
Zn142 Zn 0.28721 0.07229 0.6976 0.0
Zn143 Zn 0.38952 0.12672 0.6676 0.0
O144 O 0.36744 0.02154 0.63814 0.0
O145 O 0.42428 0.10231 0.64451 0.0
O146 O 0.26843 0.08412 0.60317 0.0
O147 O 0.27123 0.01516 0.60747 0.0
O148 O 0.25326 0.96295 0.66768 0.0
O149 O 0.23861 -0.00057 0.70229 0.0
O150 O 0.33748 0.09187 0.72763 0.0
O151 O 0.346 0.1885 0.63395 0.0
O152 O 0.41158 0.12714 0.70673 0.0
O153 O 0.41193 0.19645 0.65666 0.0
C154 C 0.2307 0.12309 0.684 0.0
C155 C 0.41229 0.05926 0.63605 0.0
C156 C 0.23047 0.96041 0.6898 0.0
C157 C 0.26121 0.04331 0.59353 0.0
C158 C 0.38535 0.11226 0.72846 0.0
C159 C 0.39106 0.21527 0.64284 0.0
O160 O 0.25156 0.11015 0.70186 0.0
O161 O 0.85225 0.12471 0.66349 0.0
Zn162 Zn 0.86579 0.19053 0.64928 0.0
O163 O 0.89777 0.2426 0.67636 0.0
Zn164 Zn 0.96312 0.29595 0.66292 0.0
Zn165 Zn 0.90342 0.21277 0.7089 0.0
Zn166 Zn 0.85483 0.26713 0.68606 0.0
O167 O 0.96382 0.36172 0.66111 0.0
O168 O 0.88075 0.33032 0.66623 0.0
O169 O 0.90425 0.20878 0.61399 0.0
O170 O 0.97284 0.28197 0.62367 0.0
O171 O 0.01942 0.29618 0.68492 0.0
O172 O 0.97424 0.22953 0.71142 0.0
O173 O 0.8896 0.23866 0.74258 0.0
O174 O 0.79634 0.17623 0.64186 0.0
O175 O 0.85813 0.28306 0.72661 0.0
O176 O 0.78334 0.21888 0.67349 0.0
C177 C 0.8425 0.10913 0.68797 0.0
C178 C 0.9247 0.36557 0.65937 0.0
C179 C 0.01663 0.26434 0.70227 0.0
C180 C 0.94651 0.24664 0.60696 0.0
C181 C 0.87245 0.26709 0.74644 0.0
C182 C 0.7671 0.18671 0.65436 0.0
O183 O 0.85611 0.13909 0.70795 0.0
O184 O 0.7774 0.58232 0.69153 0.0
Zn185 Zn 0.77225 0.63762 0.70847 0.0
O186 O 0.74217 0.66277 0.68332 0.0
Zn187 Zn 0.67865 0.65156 0.69797 0.0
Zn188 Zn 0.73354 0.63097 0.64881 0.0
Zn189 Zn 0.78718 0.73244 0.67703 0.0
O190 O 0.67908 0.71646 0.70027 0.0
O191 O 0.76264 0.76877 0.69821 0.0
O192 O 0.73521 0.61705 0.7444 0.0
O193 O 0.67029 0.62724 0.73692 0.0
O194 O 0.62038 0.59835 0.67578 0.0
O195 O 0.66024 0.58036 0.64425 0.0
O196 O 0.75267 0.67844 0.6175 0.0
O197 O 0.84503 0.69002 0.71548 0.0
O198 O 0.78988 0.75234 0.63743 0.0
O199 O 0.85644 0.75331 0.68977 0.0
C200 C 0.78562 0.57767 0.66662 0.0
C201 C 0.71845 0.75955 0.70385 0.0
C202 C 0.61962 0.57275 0.65542 0.0
C203 C 0.69535 0.61553 0.75267 0.0
C204 C 0.7743 0.72566 0.61602 0.0
C205 C 0.87364 0.73341 0.70559 0.0
O206 O 0.77515 0.59852 0.64759 0.0
C207 C 0.37999 0.41922 0.99754 0.0
C208 C 0.40013 0.45986 0.01555 0.0
C209 C 0.32791 0.39171 0.99165 0.0
C210 C 0.29577 0.40579 0.0038 0.0
C211 C 0.31527 0.44367 0.0239 0.0
C212 C 0.36716 0.47007 0.02957 0.0
C213 C 0.30842 0.35017 0.97104 0.0
C214 C 0.28222 0.45943 0.03783 0.0
C215 C 0.19542 0.418 0.9696 0.0
C216 C 0.15401 0.38727 0.98629 0.0
C217 C 0.24093 0.41901 0.97232 0.0
C218 C 0.24485 0.38887 0.99245 0.0
C219 C 0.20083 0.35225 0.00627 0.0
C220 C 0.15547 0.35192 0.00307 0.0
C221 C 0.28653 0.45748 0.95643 0.0
C222 C 0.20305 0.31772 0.02682 0.0
H223 H 0.40503 0.41007 0.98717 0.0
H224 H 0.38215 0.50054 0.04404 0.0
H225 H 0.2679 0.32158 0.97443 0.0
H226 H 0.31228 0.36593 0.95033 0.0
H227 H 0.33092 0.33181 0.97166 0.0
H228 H 0.30252 0.48673 0.05444 0.0
H229 H 0.26928 0.47682 0.02274 0.0
H230 H 0.24806 0.42656 0.04657 0.0
H231 H 0.19368 0.44455 0.95617 0.0
H232 H 0.1231 0.32767 0.01575 0.0
H233 H 0.30838 0.44122 0.94854 0.0
H234 H 0.31189 0.48895 0.97006 0.0
H235 H 0.27561 0.47261 0.93903 0.0
H236 H 0.23076 0.30719 0.02064 0.0
H237 H 0.16527 0.28333 0.02957 0.0
H238 H 0.21531 0.33692 0.04678 0.0
C239 C 0.54462 0.91429 0.00897 0.0
C240 C 0.51799 0.91374 0.98567 0.0
C241 C 0.56382 0.88275 0.01125 0.0
C242 C 0.55608 0.84967 0.98973 0.0
C243 C 0.53225 0.85122 0.9654 0.0
C244 C 0.51345 0.88336 0.96363 0.0
C245 C 0.58909 0.88234 0.03753 0.0
C246 C 0.52353 0.81659 0.94198 0.0
C247 C 0.62059 0.77473 0.99618 0.0
C248 C 0.58202 0.73086 0.00844 0.0
C249 C 0.61255 0.8136 0.98923 0.0
C250 C 0.56497 0.80822 0.9947 0.0
C251 C 0.52584 0.76378 0.00668 0.0
C252 C 0.53486 0.72586 0.01341 0.0
C253 C 0.65502 0.86059 0.97643 0.0
C254 C 0.4745 0.7565 0.01291 0.0
H255 H 0.54923 0.93837 0.02592 0.0
H256 H 0.4934 0.88312 0.94545 0.0
H257 H 0.56341 0.84764 0.04898 0.0
H258 H 0.62447 0.88261 0.03336 0.0
H259 H 0.59831 0.91475 0.05068 0.0
H260 H 0.51236 0.82798 0.92309 0.0
H261 H 0.55812 0.81534 0.93784 0.0
H262 H 0.49284 0.77821 0.94738 0.0
H263 H 0.657 0.77879 0.9921 0.0
H264 H 0.50456 0.6921 0.02271 0.0
H265 H 0.66693 0.89259 0.99038 0.0
H266 H 0.64179 0.86908 0.95732 0.0
H267 H 0.68854 0.85764 0.97182 0.0
H268 H 0.4787 0.78479 0.02791 0.0
H269 H 0.44756 0.71885 0.0213 0.0
H270 H 0.45769 0.76181 0.99419 0.0
C271 C 0.27948 0.84794 0.92867 0.0
C272 C 0.27649 0.87496 0.95054 0.0
C273 C 0.24568 0.79647 0.92663 0.0
C274 C 0.20836 0.77198 0.94694 0.0
C275 C 0.20074 0.80013 0.96673 0.0
C276 C 0.235 0.85167 0.96825 0.0
C277 C 0.25394 0.76781 0.90472 0.0
C278 C 0.16042 0.77525 0.98835 0.0
C279 C 0.11379 0.63301 0.94574 0.0
C280 C 0.1368 0.61563 0.96365 0.0
C281 C 0.13733 0.68373 0.9392 0.0
C282 C 0.18484 0.71765 0.95091 0.0
C283 C 0.20946 0.70007 0.96785 0.0
C284 C 0.18511 0.64919 0.974 0.0
C285 C 0.1102 0.7011 0.9209 0.0
C286 C 0.26068 0.73528 0.98042 0.0
H287 H 0.31086 0.86618 0.9145 0.0
H288 H 0.23212 0.87254 0.98497 0.0
H289 H 0.27487 0.75106 0.91346 0.0
H290 H 0.21731 0.73696 0.89676 0.0
H291 H 0.27646 0.79238 0.88751 0.0
H292 H 0.15376 0.80241 0.99911 0.0
H293 H 0.12414 0.74564 0.97937 0.0
H294 H 0.17253 0.75732 0.00356 0.0
H295 H 0.07648 0.6073 0.9375 0.0
H296 H 0.20325 0.63603 0.98768 0.0
H297 H 0.13679 0.72949 0.90616 0.0
H298 H 0.09401 0.71878 0.93344 0.0
H299 H 0.07879 0.66969 0.90946 0.0
H300 H 0.28853 0.75778 0.96434 0.0
H301 H 0.27549 0.71528 0.99218 0.0
H302 H 0.25787 0.76158 0.9943 0.0
C303 C 0.40705 0.19557 0.98441 0.0
C304 C 0.39215 0.15474 0.0016 0.0
C305 C 0.42268 0.2426 0.99523 0.0
C306 C 0.42499 0.24863 0.02386 0.0
C307 C 0.4033 0.2062 0.041 0.0
C308 C 0.38649 0.15924 0.02953 0.0
C309 C 0.44332 0.28675 0.97618 0.0
C310 C 0.40434 0.21104 0.07157 0.0
C311 C 0.54814 0.36641 0.04048 0.0
C312 C 0.5318 0.3997 0.04462 0.0
C313 C 0.51288 0.31567 0.0363 0.0
C314 C 0.46039 0.29873 0.03525 0.0
C315 C 0.44375 0.33193 0.04122 0.0
C316 C 0.47991 0.38223 0.04607 0.0
C317 C 0.53216 0.28113 0.03064 0.0
C318 C 0.38849 0.31586 0.03985 0.0
H319 H 0.41128 0.19175 0.96279 0.0
H320 H 0.37521 0.12745 0.04279 0.0
H321 H 0.43174 0.31311 0.98282 0.0
H322 H 0.48537 0.30705 0.97637 0.0
H323 H 0.43019 0.275 0.95493 0.0
H324 H 0.37619 0.17524 0.08141 0.0
H325 H 0.44258 0.22188 0.07916 0.0
H326 H 0.39673 0.24044 0.07786 0.0
H327 H 0.5884 0.38051 0.03901 0.0
H328 H 0.46768 0.40868 0.04874 0.0
H329 H 0.52698 0.27102 0.00874 0.0
H330 H 0.51038 0.24612 0.04253 0.0
H331 H 0.57301 0.2986 0.03569 0.0
H332 H 0.37803 0.317 0.01836 0.0
H333 H 0.38078 0.3412 0.05181 0.0
H334 H 0.36373 0.27715 0.04738 0.0
C335 C 0.64781 0.1916 0.01311 0.0
C336 C 0.61425 0.14614 0.02578 0.0
C337 C 0.69895 0.21888 0.02061 0.0
C338 C 0.71668 0.20006 0.04124 0.0
C339 C 0.68252 0.15574 0.0552 0.0
C340 C 0.63159 0.12926 0.0473 0.0
C341 C 0.73445 0.26665 0.00556 0.0
C342 C 0.70008 0.1348 0.07739 0.0
C343 C 0.85404 0.24724 0.02884 0.0
C344 C 0.8766 0.29143 0.04405 0.0
C345 C 0.80162 0.21395 0.02978 0.0
C346 C 0.77166 0.22528 0.04644 0.0
C347 C 0.79499 0.26607 0.06457 0.0
C348 C 0.84747 0.29876 0.06322 0.0
C349 C 0.77795 0.1699 0.01064 0.0
C350 C 0.76424 0.27844 0.08316 0.0
H351 H 0.63458 0.20506 0.99667 0.0
H352 H 0.60581 0.09427 0.0574 0.0
H353 H 0.75604 0.29755 0.0202 0.0
H354 H 0.76231 0.26197 0.99379 0.0
H355 H 0.71404 0.27763 0.99125 0.0
H356 H 0.7203 0.11786 0.06809 0.0
H357 H 0.72701 0.16468 0.09135 0.0
H358 H 0.66785 0.1056 0.08949 0.0
H359 H 0.87644 0.24075 0.01439 0.0
H360 H 0.8649 0.33222 0.0756 0.0
H361 H 0.76015 0.17792 0.99332 0.0
H362 H 0.74778 0.13602 0.02107 0.0
H363 H 0.8064 0.16187 0.00238 0.0
H364 H 0.74781 0.29662 0.07115 0.0
H365 H 0.78787 0.30433 0.09968 0.0
H366 H 0.73237 0.24418 0.09243 0.0
C367 C 0.95538 0.57792 0.03285 0.0
C368 C 0.92903 0.53065 0.02078 0.0
C369 C 0.93215 0.60588 0.0362 0.0
C370 C 0.88097 0.58489 0.02826 0.0
C371 C 0.85442 0.537 0.016 0.0
C372 C 0.87923 0.51088 0.01193 0.0
C373 C 0.96214 0.65755 0.04827 0.0
C374 C 0.79935 0.51267 0.00785 0.0
C375 C 0.78742 0.60963 0.0617 0.0
C376 C 0.7745 0.62964 0.03983 0.0
C377 C 0.82622 0.59948 0.05926 0.0
C378 C 0.85314 0.61044 0.03446 0.0
C379 C 0.84509 0.63715 0.01381 0.0
C380 C 0.80546 0.64635 0.01668 0.0
C381 C 0.83354 0.57112 0.08186 0.0
C382 C 0.8744 0.65108 0.98747 0.0
H383 H -0.00561 0.59331 0.03917 0.0
H384 H 0.85929 0.47432 0.00249 0.0
H385 H 0.9591 0.68461 0.03507 0.0
H386 H 0.9464 0.65812 0.06843 0.0
H387 H 0.00284 0.67026 0.05084 0.0
H388 H 0.7843 0.47511 0.99881 0.0
H389 H 0.77606 0.50883 0.02591 0.0
H390 H 0.79463 0.53636 0.99282 0.0
H391 H 0.76414 0.59765 0.07989 0.0
H392 H 0.79591 0.66227 0.9998 0.0
H393 H 0.87432 0.58592 0.08559 0.0
H394 H 0.81586 0.5314 0.07584 0.0
H395 H 0.81586 0.5727 0.10121 0.0
H396 H 0.91467 0.66328 0.99113 0.0
H397 H 0.87267 0.68129 0.97667 0.0
H398 H 0.85793 0.61799 0.97393 0.0
C399 C 0.83546 0.72548 0.36209 0.0
C400 C 0.79736 0.71829 0.34396 0.0
C401 C 0.88285 0.73685 0.35238 0.0
C402 C 0.89215 0.74256 0.32399 0.0
C403 C 0.85139 0.72793 0.30567 0.0
C404 C 0.80394 0.7155 0.31599 0.0
C405 C 0.92487 0.75036 0.37264 0.0
C406 C 0.85942 0.73288 0.27528 0.0
C407 C 0.01787 0.86052 0.31126 0.0
C408 C 0.04928 0.84176 0.30612 0.0
C409 C 0.96579 0.82824 0.31519 0.0
C410 C 0.94496 0.77589 0.31455 0.0
C411 C 0.97604 0.75673 0.30791 0.0
C412 C 0.02797 0.79004 0.30349 0.0
C413 C 0.93371 0.85032 0.32171 0.0
C414 C 0.95512 0.70127 0.30703 0.0
H415 H 0.83009 0.72772 0.38374 0.0
H416 H 0.77432 0.71029 0.30203 0.0
H417 H 0.95023 0.73746 0.36561 0.0
H418 H 0.94804 0.79156 0.37479 0.0
H419 H 0.90966 0.73402 0.39301 0.0
H420 H 0.82362 0.70768 0.2642 0.0
H421 H 0.87256 0.77182 0.26915 0.0
H422 H 0.88869 0.72461 0.26894 0.0
H423 H 0.03435 0.90048 0.31313 0.0
H424 H 0.05236 0.77541 0.2997 0.0
H425 H 0.92075 0.8419 0.34317 0.0
H426 H 0.89951 0.83357 0.30857 0.0
H427 H 0.9548 0.89146 0.31891 0.0
H428 H 0.94032 0.68462 0.32736 0.0
H429 H 0.98418 0.69248 0.30085 0.0
H430 H 0.92288 0.68306 0.29258 0.0
C431 C 0.18496 0.24201 0.34258 0.0
C432 C 0.19932 0.28541 0.32755 0.0
C433 C 0.20815 0.21443 0.33833 0.0
C434 C 0.24688 0.23058 0.31854 0.0
C435 C 0.26359 0.27577 0.3043 0.0
C436 C 0.23947 0.30267 0.30892 0.0
C437 C 0.1892 0.16647 0.35408 0.0
C438 C 0.30513 0.29446 0.28329 0.0
C439 C 0.30806 0.15362 0.32465 0.0
C440 C 0.27512 0.11296 0.3083 0.0
C441 C 0.30314 0.19564 0.32616 0.0
C442 C 0.26464 0.19647 0.31086 0.0
C443 C 0.23565 0.15797 0.29192 0.0
C444 C 0.24102 0.11645 0.29105 0.0
C445 C 0.33532 0.23637 0.34624 0.0
C446 C 0.19472 0.15761 0.27489 0.0
H447 H 0.15449 0.22864 0.35729 0.0
H448 H 0.25117 0.33642 0.29737 0.0
H449 H 0.17063 0.13425 0.33995 0.0
H450 H 0.22133 0.16605 0.36388 0.0
H451 H 0.16146 0.16112 0.37009 0.0
H452 H 0.32046 0.33428 0.27809 0.0
H453 H 0.33663 0.29013 0.29058 0.0
H454 H 0.28988 0.27207 0.26443 0.0
H455 H 0.33432 0.1507 0.33805 0.0
H456 H 0.21584 0.08493 0.27828 0.0
H457 H 0.31321 0.23048 0.36511 0.0
H458 H 0.34624 0.27357 0.33796 0.0
H459 H 0.37019 0.23632 0.35171 0.0
H460 H 0.16182 0.14848 0.28805 0.0
H461 H 0.18145 0.12955 0.2583 0.0
H462 H 0.20846 0.19485 0.26577 0.0
C463 C 0.95603 0.18813 0.28792 0.0
C464 C 0.9433 0.21229 0.30733 0.0
C465 C 0.92632 0.13639 0.28473 0.0
C466 C 0.88356 0.10886 0.30165 0.0
C467 C 0.86749 0.13398 0.31902 0.0
C468 C 0.89798 0.18584 0.32176 0.0
C469 C 0.94413 0.111 0.26566 0.0
C470 C 0.82149 0.10574 0.33703 0.0
C471 C 0.79335 0.96982 0.29634 0.0
C472 C 0.80995 0.95269 0.31811 0.0
C473 C 0.8185 0.02052 0.28966 0.0
C474 C 0.8613 0.05461 0.305 0.0
C475 C 0.88072 0.03715 0.32547 0.0
C476 C 0.85471 0.98624 0.3318 0.0
C477 C 0.79717 0.03777 0.26749 0.0
C478 C 0.92714 0.0726 0.34189 0.0
H479 H -0.00832 0.20909 0.27706 0.0
H480 H 0.88893 0.20492 0.33702 0.0
H481 H 0.96432 0.09648 0.27753 0.0
H482 H 0.91167 0.07888 0.25527 0.0
H483 H 0.97057 0.13725 0.25004 0.0
H484 H 0.80995 0.1307 0.34613 0.0
H485 H 0.78907 0.07595 0.32538 0.0
H486 H 0.83014 0.08756 0.3538 0.0
H487 H 0.7591 0.94402 0.28535 0.0
H488 H 0.86803 0.97321 0.34841 0.0
H489 H 0.76991 0.00642 0.25431 0.0
H490 H 0.82787 0.06671 0.25457 0.0
H491 H 0.77707 0.05476 0.27688 0.0
H492 H 0.95902 0.09728 0.32817 0.0
H493 H 0.93949 0.05265 0.35555 0.0
H494 H 0.9189 0.09679 0.35453 0.0
C495 C 0.10399 0.73011 0.3455 0.0
C496 C 0.15391 0.75086 0.33636 0.0
C497 C 0.07152 0.67821 0.34738 0.0
C498 C 0.09035 0.64701 0.34075 0.0
C499 C 0.14089 0.6682 0.33133 0.0
C500 C 0.17179 0.72002 0.32877 0.0
C501 C 0.01732 0.65686 0.35627 0.0
C502 C 0.16283 0.63628 0.32458 0.0
C503 C 0.05161 0.52391 0.37222 0.0
C504 C 0.0363 0.49371 0.34892 0.0
C505 C 0.064 0.57346 0.37071 0.0
C506 C 0.05948 0.59249 0.34546 0.0
C507 C 0.03574 0.55976 0.32322 0.0
C508 C 0.02469 0.51045 0.32512 0.0
C509 C 0.08893 0.6069 0.39503 0.0
C510 C 0.02786 0.57825 0.2964 0.0
H511 H 0.09014 0.75451 0.35063 0.0
H512 H 0.21038 0.7366 0.32145 0.0
H513 H -0.00871 0.63283 0.3399 0.0
H514 H 0.00891 0.63292 0.3745 0.0
H515 H 0.00895 0.68643 0.36102 0.0
H516 H 0.20308 0.65887 0.31806 0.0
H517 H 0.16052 0.61384 0.34262 0.0
H518 H 0.14064 0.60987 0.308 0.0
H519 H 0.05914 0.51055 0.39095 0.0
H520 H 0.01183 0.48695 0.30717 0.0
H521 H 0.07576 0.63339 0.39767 0.0
H522 H 0.13055 0.62919 0.39177 0.0
H523 H 0.0814 0.58511 0.41413 0.0
H524 H 0.01741 0.60674 0.29954 0.0
H525 H -0.0021 0.54714 0.2841 0.0
H526 H 0.06365 0.59584 0.28457 0.0
C527 C 0.27746 0.49162 0.40428 0.0
C528 C 0.26725 0.50301 0.37834 0.0
C529 C 0.3271 0.51614 0.41443 0.0
C530 C 0.36671 0.55335 0.39836 0.0
C531 C 0.35587 0.56693 0.37283 0.0
C532 C 0.30624 0.54098 0.36296 0.0
C533 C 0.33724 0.49991 0.44143 0.0
C534 C 0.39696 0.60758 0.3554 0.0
C535 C 0.49547 0.6552 0.41954 0.0
C536 C 0.5252 0.64199 0.40436 0.0
C537 C 0.44288 0.62344 0.42078 0.0
C538 C 0.42014 0.57726 0.40704 0.0
C539 C 0.45067 0.56029 0.39588 0.0
C540 C 0.5032 0.59319 0.39446 0.0
C541 C 0.41159 0.64243 0.43339 0.0
C542 C 0.42754 0.51 0.38229 0.0
H543 H 0.24714 0.46156 0.41595 0.0
H544 H 0.29799 0.54965 0.34293 0.0
H545 H 0.35084 0.47397 0.4377 0.0
H546 H 0.36709 0.53207 0.45311 0.0
H547 H 0.30242 0.48014 0.45406 0.0
H548 H 0.3814 0.61606 0.33717 0.0
H549 H 0.41922 0.64234 0.36741 0.0
H550 H 0.42343 0.59599 0.34844 0.0
H551 H 0.51243 0.69232 0.42811 0.0
H552 H 0.52612 0.58211 0.38344 0.0
H553 H 0.37798 0.61209 0.44403 0.0
H554 H 0.39778 0.65692 0.41706 0.0
H555 H 0.43414 0.67315 0.44803 0.0
H556 H 0.39465 0.48117 0.3941 0.0
H557 H 0.45555 0.49821 0.37996 0.0
H558 H 0.41373 0.51202 0.36173 0.0
C559 C 0.39476 0.90571 0.36405 0.0
C560 C 0.40156 0.94828 0.35055 0.0
C561 C 0.43459 0.89726 0.36708 0.0
C562 C 0.48303 0.93277 0.35689 0.0
C563 C 0.49128 0.97751 0.3449 0.0
C564 C 0.45018 0.98455 0.34157 0.0
C565 C 0.42384 0.84865 0.37963 0.0
C566 C 0.54289 0.01682 0.33455 0.0
C567 C 0.58181 0.90391 0.38033 0.0
C568 C 0.58224 0.8758 0.35831 0.0
C569 C 0.55279 0.92651 0.37933 0.0
C570 C 0.52258 0.91951 0.35611 0.0
C571 C 0.52449 0.89279 0.33345 0.0
C572 C 0.5547 0.87172 0.33474 0.0
C573 C 0.55275 0.95597 0.40355 0.0
C574 C 0.49206 0.88354 0.30851 0.0
H575 H 0.35753 0.87748 0.37131 0.0
H576 H 0.45591 0.01777 0.3314 0.0
H577 H 0.42915 0.82613 0.36411 0.0
H578 H 0.45072 0.85586 0.39648 0.0
H579 H 0.38463 0.82609 0.38771 0.0
H580 H 0.54519 0.05276 0.33045 0.0
H581 H 0.57276 0.02332 0.34946 0.0
H582 H 0.55112 0.00386 0.31536 0.0
H583 H 0.60379 0.9079 0.39841 0.0
H584 H 0.55499 0.85017 0.31761 0.0
H585 H 0.51673 0.93378 0.41492 0.0
H586 H 0.55524 0.99095 0.39682 0.0
H587 H 0.58465 0.96549 0.41767 0.0
H588 H 0.45147 0.85916 0.31399 0.0
H589 H 0.50085 0.8653 0.29188 0.0
H590 H 0.49736 0.91911 0.3007 0.0
C591 C 0.69404 0.12079 0.62752 0.0
C592 C 0.71276 0.1589 0.64715 0.0
C593 C 0.64237 0.09315 0.62093 0.0
C594 C 0.60888 0.10415 0.63419 0.0
C595 C 0.62742 0.14227 0.65415 0.0
C596 C 0.67916 0.16917 0.66038 0.0
C597 C 0.62379 0.0527 0.59964 0.0
C598 C 0.59269 0.15512 0.66877 0.0
C599 C 0.48822 0.08875 0.60813 0.0
C600 C 0.45402 0.05384 0.62683 0.0
C601 C 0.53863 0.10105 0.60765 0.0
C602 C 0.55466 0.07809 0.6266 0.0
C603 C 0.51846 0.03756 0.64263 0.0
C604 C 0.468 0.02571 0.6425 0.0
C605 C 0.57582 0.14376 0.58982 0.0
C606 C 0.53403 0.01156 0.66272 0.0
H607 H 0.71971 0.11235 0.61728 0.0
H608 H 0.69325 0.19833 0.67562 0.0
H609 H 0.59157 0.01724 0.60765 0.0
H610 H 0.60967 0.06327 0.58164 0.0
H611 H 0.65404 0.04604 0.59288 0.0
H612 H 0.61304 0.18492 0.6842 0.0
H613 H 0.57476 0.16787 0.65387 0.0
H614 H 0.56185 0.12156 0.67913 0.0
H615 H 0.47692 0.11029 0.596 0.0
H616 H 0.44132 -0.00115 0.65704 0.0
H617 H 0.60499 0.13689 0.58156 0.0
H618 H 0.59555 0.17839 0.60216 0.0
H619 H 0.55649 0.15012 0.57259 0.0
H620 H 0.56454 0.00683 0.65432 0.0
H621 H 0.50142 0.97439 0.66856 0.0
H622 H 0.54888 0.03459 0.68141 0.0
C623 C 0.95368 0.45515 0.66489 0.0
C624 C 0.92785 0.41125 0.64965 0.0
C625 C 0.93967 0.49108 0.66307 0.0
C626 C 0.89865 0.48189 0.64597 0.0
C627 C 0.87741 0.44077 0.62797 0.0
C628 C 0.89255 0.406 0.62998 0.0
C629 C 0.96451 0.53557 0.68181 0.0
C630 C 0.83367 0.42939 0.6094 0.0
C631 C 0.80443 0.5112 0.67601 0.0
C632 C 0.81261 0.55179 0.66018 0.0
C633 C 0.83238 0.48833 0.67149 0.0
C634 C 0.87054 0.50757 0.65117 0.0
C635 C 0.87937 0.54899 0.6353 0.0
C636 C 0.84974 0.57027 0.63976 0.0
C637 C 0.82074 0.44329 0.68841 0.0
C638 C 0.92072 0.57142 0.6141 0.0
H639 H 0.98083 0.45897 0.68019 0.0
H640 H 0.87273 0.37183 0.6182 0.0
H641 H 0.9689 0.56918 0.67163 0.0
H642 H 0.94029 0.52783 0.70001 0.0
H643 H 0.00229 0.54368 0.68877 0.0
H644 H 0.82774 0.4017 0.59352 0.0
H645 H 0.79847 0.41382 0.62166 0.0
H646 H 0.83977 0.46368 0.59927 0.0
H647 H 0.77584 0.49713 0.69185 0.0
H648 H 0.85679 0.60246 0.62792 0.0
H649 H 0.85477 0.45114 0.70019 0.0
H650 H 0.8105 0.41104 0.67494 0.0
H651 H 0.78909 0.43244 0.70289 0.0
H652 H 0.9581 0.58659 0.62416 0.0
H653 H 0.92095 0.60196 0.60251 0.0
H654 H 0.91632 0.54244 0.59957 0.0
C655 C 0.5319 0.50324 0.66548 0.0
C656 C 0.57149 0.52854 0.64677 0.0
C657 C 0.49339 0.45368 0.66073 0.0
C658 C 0.49477 0.42962 0.63669 0.0
C659 C 0.53031 0.45744 0.61607 0.0
C660 C 0.56861 0.50671 0.62144 0.0
C661 C 0.45533 0.42541 0.68295 0.0
C662 C 0.53184 0.43352 0.58977 0.0
C663 C 0.46836 0.2994 0.64827 0.0
C664 C 0.41853 0.26984 0.6388 0.0
C665 C 0.49359 0.3514 0.64719 0.0
C666 C 0.46846 0.37452 0.63618 0.0
C667 C 0.41886 0.34508 0.6256 0.0
C668 C 0.3943 0.2929 0.62714 0.0
C669 C 0.54682 0.38155 0.65851 0.0
C670 C 0.39107 0.36842 0.61355 0.0
H671 H 0.53356 0.52025 0.68494 0.0
H672 H 0.59849 0.52676 0.60659 0.0
H673 H 0.41713 0.40011 0.67428 0.0
H674 H 0.46674 0.40209 0.69421 0.0
H675 H 0.45306 0.45098 0.69768 0.0
H676 H 0.55373 0.46188 0.57384 0.0
H677 H 0.55028 0.41171 0.59343 0.0
H678 H 0.49302 0.40742 0.58204 0.0
H679 H 0.48748 0.28194 0.65715 0.0
H680 H 0.3557 0.27029 0.61978 0.0
H681 H 0.54791 0.40522 0.67556 0.0
H682 H 0.57318 0.40674 0.64258 0.0
H683 H 0.56097 0.35764 0.6661 0.0
H684 H 0.37718 0.38199 0.63022 0.0
H685 H 0.35791 0.34128 0.6012 0.0
H686 H 0.41656 0.40099 0.6006 0.0
C687 C 0.75366 0.83867 0.72843 0.0
C688 C 0.71469 0.80223 0.71222 0.0
C689 C 0.76417 0.88758 0.7285 0.0
C690 C 0.73433 0.89973 0.71221 0.0
C691 C 0.69014 0.86139 0.69925 0.0
C692 C 0.68086 0.81259 0.69924 0.0
C693 C 0.81135 0.92717 0.7429 0.0
C694 C 0.65608 0.87282 0.68288 0.0
C695 C 0.77909 0.03682 0.7155 0.0
C696 C 0.81233 0.05524 0.69325 0.0
C697 C 0.75002 0.98551 0.72084 0.0
C698 C 0.756 0.9524 0.7041 0.0
C699 C 0.78849 0.97081 0.68113 0.0
C700 C 0.81573 0.02208 0.67577 0.0
C701 C 0.71447 0.96722 0.74489 0.0
C702 C 0.79649 0.93672 0.66294 0.0
H703 H 0.77918 0.83006 0.73885 0.0
H704 H 0.65043 0.78412 0.68689 0.0
H705 H 0.84113 0.94958 0.7276 0.0
H706 H 0.80365 0.95295 0.75427 0.0
H707 H 0.82648 0.91077 0.75734 0.0
H708 H 0.61792 0.83898 0.67999 0.0
H709 H 0.65193 0.90215 0.69291 0.0
H710 H 0.67302 0.88694 0.6625 0.0
H711 H 0.77558 0.06253 0.72867 0.0
H712 H 0.84116 0.03643 0.65846 0.0
H713 H 0.73377 0.96262 0.76271 0.0
H714 H 0.67986 0.93053 0.74063 0.0
H715 H 0.70306 -0.00576 0.75055 0.0
H716 H 0.81336 0.91889 0.67491 0.0
H717 H 0.82192 0.95692 0.64551 0.0
H718 H 0.75968 0.90651 0.65481 0.0
C719 C 0.95894 0.80995 0.70269 0.0
C720 C 0.92866 0.76004 0.71071 0.0
C721 C 0.01166 0.83448 0.7039 0.0
C722 C 0.03481 0.80849 0.71357 0.0
C723 C 0.00458 0.75893 0.72313 0.0
C724 C 0.9516 0.73509 0.72149 0.0
C725 C 0.04252 0.88774 0.69377 0.0
C726 C 0.02784 0.73027 0.73391 0.0
C727 C 0.16194 0.87268 0.68081 0.0
C728 C 0.1884 0.91183 0.69933 0.0
C729 C 0.11289 0.83336 0.68685 0.0
C730 C 0.09061 0.83358 0.71196 0.0
C731 C 0.12046 0.86832 0.73233 0.0
C732 C 0.16916 0.9075 0.72569 0.0
C733 C 0.08261 0.79599 0.66486 0.0
C734 C 0.09869 0.86835 0.75978 0.0
H735 H 0.94144 0.82964 0.69468 0.0
H736 H 0.92834 0.69642 0.72775 0.0
H737 H 0.06862 0.91228 0.70997 0.0
H738 H 0.06597 0.88995 0.67613 0.0
H739 H 0.01841 0.90263 0.68737 0.0
H740 H 0.00071 0.69833 0.74683 0.0
H741 H 0.03869 0.71523 0.71656 0.0
H742 H 0.06258 0.75465 0.74592 0.0
H743 H 0.17715 0.87527 0.6606 0.0
H744 H 0.19033 0.93692 0.74041 0.0
H745 H 0.05769 0.80694 0.65473 0.0
H746 H 0.05806 0.75819 0.67359 0.0
H747 H 0.10755 0.79438 0.64917 0.0
H748 H 0.07694 0.88734 0.75805 0.0
H749 H 0.12904 0.88857 0.77518 0.0
H750 H 0.07238 0.82974 0.76706 0.0
C751 C 0.15972 0.13749 0.67824 0.0
C752 C 0.20299 0.14703 0.69253 0.0
C753 C 0.1357 0.16372 0.68423 0.0
C754 C 0.15664 0.20158 0.70436 0.0
C755 C 0.20036 0.21127 0.71894 0.0
C756 C 0.22271 0.18326 0.71308 0.0
C757 C 0.08813 0.15115 0.6688 0.0
C758 C 0.22462 0.25236 0.73987 0.0
C759 C 0.10483 0.28495 0.69217 0.0
C760 C 0.06175 0.26153 0.70881 0.0
C761 C 0.1402 0.26971 0.69278 0.0
C762 C 0.13148 0.22984 0.71008 0.0
C763 C 0.09169 0.21069 0.72927 0.0
C764 C 0.05766 0.22732 0.72864 0.0
C765 C 0.18371 0.29255 0.67288 0.0
C766 C 0.08105 0.16822 0.74811 0.0
H767 H 0.14478 0.10951 0.66231 0.0
H768 H 0.25693 0.19123 0.72369 0.0
H769 H 0.05694 0.14211 0.68326 0.0
H770 H 0.09485 0.18384 0.65662 0.0
H771 H 0.07549 0.11899 0.65483 0.0
H772 H 0.25498 0.25141 0.75149 0.0
H773 H 0.24143 0.28903 0.72948 0.0
H774 H 0.19596 0.24983 0.7544 0.0
H775 H 0.1088 0.31208 0.67713 0.0
H776 H 0.02517 0.21002 0.74214 0.0
H777 H 0.17419 0.26732 0.65516 0.0
H778 H 0.21859 0.29739 0.68238 0.0
H779 H 0.19163 0.32931 0.66532 0.0
H780 H 0.06366 0.133 0.73627 0.0
H781 H 0.05456 0.16353 0.76472 0.0
H782 H 0.11651 0.17403 0.7573 0.0
C783 C 0.08407 0.3984 0.22008 0.0
C784 C 0.12418 0.42705 0.23807 0.0
C785 C 0.08736 0.41113 0.19245 0.0
C786 C 0.13134 0.45449 0.18258 0.0
C787 C 0.17234 0.4833 0.20057 0.0
C788 C 0.16855 0.46883 0.22807 0.0
C789 C 0.04315 0.37859 0.17393 0.0
C790 C 0.21931 0.53038 0.19103 0.0
C791 C 0.14099 0.46103 0.10523 0.0
C792 C 0.1137 0.48411 0.09908 0.0
C793 C 0.14993 0.45362 0.13248 0.0
C794 C 0.13217 0.47082 0.15389 0.0
C795 C 0.10865 0.49811 0.14754 0.0
C796 C 0.09894 0.50365 0.12025 0.0
C797 C 0.1744 0.42367 0.13826 0.0
C798 C 0.09037 0.51838 0.16961 0.0
H799 H 0.04993 0.36573 0.22763 0.0
H800 H 0.19957 0.4912 0.24194 0.0
H801 H 0.02534 0.39956 0.16694 0.0
H802 H 0.05644 0.36815 0.15559 0.0
H803 H 0.01375 0.34392 0.18421 0.0
H804 H 0.24928 0.54657 0.20692 0.0
H805 H 0.23486 0.52292 0.17255 0.0
H806 H 0.20941 0.55853 0.18541 0.0
H807 H 0.15184 0.44533 0.08888 0.0
H808 H 0.07786 0.52156 0.11547 0.0
H809 H 0.14503 0.38587 0.14538 0.0
H810 H 0.20307 0.4412 0.15468 0.0
H811 H 0.19284 0.41961 0.11989 0.0
H812 H 0.05633 0.48713 0.17951 0.0
H813 H 0.08023 0.54509 0.16144 0.0
H814 H 0.11984 0.53741 0.18553 0.0
C815 C 0.58846 0.65027 0.26163 0.0
C816 C 0.61111 0.70174 0.26595 0.0
C817 C 0.57737 0.63034 0.23517 0.0
C818 C 0.58997 0.66274 0.21254 0.0
C819 C 0.6112 0.71444 0.21683 0.0
C820 C 0.62115 0.73321 0.24344 0.0
C821 C 0.55389 0.57487 0.23138 0.0
C822 C 0.62582 0.75038 0.19326 0.0
C823 C 0.62335 0.6266 0.14576 0.0
C824 C 0.58059 0.61353 0.12972 0.0
C825 C 0.62647 0.64201 0.1728 0.0
C826 C 0.58543 0.64363 0.18434 0.0
C827 C 0.54163 0.62947 0.16849 0.0
C828 C 0.53993 0.61505 0.14124 0.0
C829 C 0.67426 0.65769 0.18883 0.0
C830 C 0.49683 0.62997 0.18026 0.0
H831 H 0.58021 0.62561 0.27888 0.0
H832 H 0.63863 0.77304 0.24648 0.0
H833 H 0.52099 0.55999 0.21735 0.0
H834 H 0.58195 0.56746 0.22201 0.0
H835 H 0.54113 0.55419 0.25096 0.0
H836 H 0.63895 0.78898 0.20007 0.0
H837 H 0.65672 0.75103 0.18145 0.0
H838 H 0.59323 0.738 0.17925 0.0
H839 H 0.65506 0.62577 0.13698 0.0
H840 H 0.50661 0.60461 0.12902 0.0
H841 H 0.66507 0.63504 0.20766 0.0
H842 H 0.69198 0.69728 0.19511 0.0
H843 H 0.70243 0.65358 0.17698 0.0
H844 H 0.48403 0.60754 0.19926 0.0
H845 H 0.46445 0.61495 0.16583 0.0
H846 H 0.50808 0.66868 0.1857 0.0
C847 C 0.32516 0.97768 0.09225 0.0
C848 C 0.36507 0.97142 0.08427 0.0
C849 C 0.31019 0.97258 0.11962 0.0
C850 C 0.33534 0.96037 0.13943 0.0
C851 C 0.37461 0.95253 0.1314 0.0
C852 C 0.38917 0.95839 0.10395 0.0
C853 C 0.26833 0.98151 0.12743 0.0
C854 C 0.40186 0.9388 0.15189 0.0
C855 C 0.33261 -0.00536 0.21334 0.0
C856 C 0.29407 0.94912 0.22413 0.0
C857 C 0.34623 -0.00111 0.18576 0.0
C858 C 0.32109 0.95651 0.16864 0.0
C859 C 0.28245 0.91041 0.17944 0.0
C860 C 0.26925 0.90733 0.20698 0.0
C861 C 0.38737 0.04881 0.1749 0.0
C862 C 0.25514 0.86427 0.1619 0.0
H863 H 0.30652 0.98806 0.07724 0.0
H864 H 0.41992 0.9533 0.09798 0.0
H865 H 0.23762 0.94834 0.1381 0.0
H866 H 0.28322 0.01339 0.14176 0.0
H867 H 0.25187 0.9897 0.1095 0.0
H868 H 0.43015 0.93201 0.14218 0.0
H869 H 0.42166 0.96924 0.167 0.0
H870 H 0.37419 0.90475 0.16322 0.0
H871 H 0.35186 0.02715 0.22637 0.0
H872 H 0.2396 0.8719 0.21513 0.0
H873 H 0.3723 0.06075 0.15793 0.0
H874 H 0.4189 0.0456 0.16659 0.0
H875 H 0.4028 0.07827 0.19078 0.0
H876 H 0.23609 0.87088 0.14468 0.0
H877 H 0.22627 0.83115 0.17348 0.0
H878 H 0.28278 0.85574 0.15307 0.0
C879 C 0.49548 0.13221 0.87928 0.0
C880 C 0.48352 0.08388 0.88631 0.0
C881 C 0.48958 0.1439 0.85242 0.0
C882 C 0.47114 0.10634 0.8322 0.0
C883 C 0.46334 0.05888 0.8387 0.0
C884 C 0.46972 0.04827 0.86564 0.0
C885 C 0.49912 0.1952 0.84624 0.0
C886 C 0.44393 0.01779 0.81775 0.0
C887 C 0.38022 0.1017 0.77892 0.0
C888 C 0.40969 0.11594 0.75516 0.0
C889 C 0.40046 0.10015 0.80415 0.0
C890 C 0.45172 0.1134 0.80587 0.0
C891 C 0.48246 0.12989 0.78225 0.0
C892 C 0.46103 0.13086 0.7571 0.0
C893 C 0.36626 0.08244 0.82882 0.0
C894 C 0.5374 0.14481 0.78336 0.0
H895 H 0.5067 0.16023 0.895 0.0
H896 H 0.46106 0.01101 0.87072 0.0
H897 H 0.51886 0.20909 0.82645 0.0
H898 H 0.46233 0.1933 0.84468 0.0
H899 H 0.52207 0.2225 0.86239 0.0
H900 H 0.44646 0.98559 0.82496 0.0
H901 H 0.40365 0.00435 0.81312 0.0
H902 H 0.46551 0.03188 0.79848 0.0
H903 H 0.34065 0.09053 0.77778 0.0
H904 H 0.48417 0.14207 0.73889 0.0
H905 H 0.38321 0.11049 0.84535 0.0
H906 H 0.36213 0.04731 0.83663 0.0
H907 H 0.3279 0.07551 0.82424 0.0
H908 H 0.55709 0.17113 0.80041 0.0
H909 H 0.55767 0.16251 0.7641 0.0
H910 H 0.5399 0.11133 0.78719 0.0
C911 C 0.96967 0.34352 0.89533 0.0
C912 C 0.94794 0.36458 0.91113 0.0
C913 C 0.95336 0.32803 0.86849 0.0
C914 C 0.91309 0.33205 0.85759 0.0
C915 C 0.88973 0.35155 0.87391 0.0
C916 C 0.90812 0.36849 0.90032 0.0
C917 C 0.98019 0.30869 0.85153 0.0
C918 C 0.8455 0.35466 0.86346 0.0
C919 C 0.906 0.33556 0.78038 0.0
C920 C 0.87429 0.28488 0.77434 0.0
C921 C 0.91788 0.35179 0.8075 0.0
C922 C 0.8962 0.31652 0.82897 0.0
C923 C 0.86124 0.26573 0.82285 0.0
C924 C 0.8516 0.25035 0.79556 0.0
C925 C 0.95632 0.40602 0.81307 0.0
C926 C 0.83582 0.22726 0.84509 0.0
H927 H 0.00081 0.34099 0.90361 0.0
H928 H 0.8911 0.38454 0.91263 0.0
H929 H 0.953 0.26986 0.84498 0.0
H930 H -0.00425 0.33167 0.83284 0.0
H931 H 0.01171 0.30926 0.86277 0.0
H932 H 0.82946 0.36767 0.87933 0.0
H933 H 0.8576 0.38072 0.84594 0.0
H934 H 0.81512 0.31755 0.85608 0.0
H935 H 0.92428 0.362 0.76387 0.0
H936 H 0.82738 0.21106 0.79077 0.0
H937 H -0.00917 0.40935 0.8222 0.0
H938 H 0.94118 0.42147 0.82796 0.0
H939 H 0.96738 0.42912 0.79429 0.0
H940 H 0.86401 0.22067 0.8551 0.0
H941 H 0.80455 0.1911 0.8371 0.0
H942 H 0.82035 0.24086 0.86092 0.0
C943 C 0.63924 0.60662 0.79187 0.0
C944 C 0.68 0.60364 0.78168 0.0
C945 C 0.62731 0.60024 0.81973 0.0
C946 C 0.65671 0.59048 0.83792 0.0
C947 C 0.69677 0.5857 0.82769 0.0
C948 C 0.70797 0.59237 0.79974 0.0
C949 C 0.58422 0.60553 0.82981 0.0
C950 C 0.72879 0.57497 0.8464 0.0
C951 C 0.66288 0.62834 0.91198 0.0
C952 C 0.62852 0.5827 0.92446 0.0
C953 C 0.67235 0.63131 0.88388 0.0
C954 C 0.64704 0.58757 0.86779 0.0
C955 C 0.61245 0.54135 0.88021 0.0
C956 C 0.60354 0.53947 0.90836 0.0
C957 C 0.7094 0.68136 0.87139 0.0
C958 C 0.58485 0.49388 0.86376 0.0
H959 H 0.61728 0.61522 0.77817 0.0
H960 H 0.73943 0.58981 0.79214 0.0
H961 H 0.55713 0.57213 0.84177 0.0
H962 H 0.59918 0.63821 0.84356 0.0
H963 H 0.56332 0.6105 0.8129 0.0
H964 H 0.75655 0.56942 0.83508 0.0
H965 H 0.74984 0.60645 0.86079 0.0
H966 H 0.70431 0.54109 0.85872 0.0
H967 H 0.68236 0.66198 0.92416 0.0
H968 H 0.57699 0.50397 0.91774 0.0
H969 H 0.69016 0.69071 0.85546 0.0
H970 H 0.74067 0.67981 0.86135 0.0
H971 H 0.72597 0.71184 0.88669 0.0
H972 H 0.56187 0.49765 0.84764 0.0
H973 H 0.55942 0.46088 0.87651 0.0
H974 H 0.61255 0.48703 0.85345 0.0
C975 C 0.71901 0.82094 0.47953 0.0
C976 C 0.75256 0.82902 0.45815 0.0
C977 C 0.72896 0.81221 0.50617 0.0
C978 C 0.77375 0.8119 0.51169 0.0
C979 C 0.80988 0.82438 0.49075 0.0
C980 C 0.79881 0.83269 0.46419 0.0
C981 C 0.68944 0.79923 0.52789 0.0
C982 C 0.8585 0.82528 0.4959 0.0
C983 C 0.80043 0.80086 0.58635 0.0
C984 C 0.77861 0.74906 0.58903 0.0
C985 C 0.80096 0.82236 0.56108 0.0
C986 C 0.7788 0.79129 0.53806 0.0
C987 C 0.75815 0.73925 0.54049 0.0
C988 C 0.75848 0.71888 0.56584 0.0
C989 C 0.82387 0.87806 0.55919 0.0
C990 C 0.734 0.70466 0.51649 0.0
H991 H 0.68341 0.81858 0.47522 0.0
H992 H 0.82526 0.83933 0.44792 0.0
H993 H 0.67068 0.75893 0.53287 0.0
H994 H 0.70726 0.82037 0.54683 0.0
H995 H 0.65991 0.80711 0.52126 0.0
H996 H 0.88619 0.84396 0.47912 0.0
H997 H 0.87623 0.84469 0.51528 0.0
H998 H 0.85008 0.78646 0.49775 0.0
H999 H 0.81628 0.82457 0.60409 0.0
H1000 H 0.7417 0.67887 0.56756 0.0
H1001 H 0.79357 0.88625 0.55529 0.0
H1002 H 0.85077 0.89361 0.54188 0.0
H1003 H 0.84412 0.89753 0.57815 0.0
H1004 H 0.70068 0.70607 0.50936 0.0
H1005 H 0.72132 0.66534 0.52155 0.0
H1006 H 0.76117 0.71685 0.49932 0.0
C1007 C 0.17875 0.97566 0.43539 0.0
C1008 C 0.21955 0.97504 0.42347 0.0
C1009 C 0.17948 0.98638 0.46328 0.0
C1010 C 0.22258 -0.00198 0.47921 0.0
C1011 C 0.26453 -0.00081 0.46688 0.0
C1012 C 0.26219 0.98706 0.43931 0.0
C1013 C 0.13366 0.98375 0.47587 0.0
C1014 C 0.3118 0.01268 0.48289 0.0
C1015 C 0.254 0.06807 0.54612 0.0
C1016 C 0.24467 0.03038 0.56485 0.0
C1017 C 0.24456 0.05767 0.51823 0.0
C1018 C 0.22428 0.00819 0.50891 0.0
C1019 C 0.21167 0.96945 0.52794 0.0
C1020 C 0.22263 0.98111 0.55566 0.0
C1021 C 0.25954 0.10021 0.4986 0.0
C1022 C 0.18889 0.91602 0.5189 0.0
H1023 H 0.14562 0.966 0.42318 0.0
H1024 H 0.29401 0.98707 0.43004 0.0
H1025 H 0.1172 0.95385 0.49151 0.0
H1026 H 0.14475 0.01929 0.48632 0.0
H1027 H 0.10396 0.97601 0.46054 0.0
H1028 H 0.34215 0.01469 0.46986 0.0
H1029 H 0.32673 0.04928 0.49304 0.0
H1030 H 0.30264 0.98452 0.49906 0.0
H1031 H 0.27116 0.10629 0.55306 0.0
H1032 H 0.21478 0.95173 0.57007 0.0
H1033 H 0.22839 0.09088 0.48404 0.0
H1034 H 0.2928 0.10672 0.48655 0.0
H1035 H 0.26961 0.13541 0.50922 0.0
H1036 H 0.15711 0.9054 0.50453 0.0
H1037 H 0.17475 0.88961 0.53634 0.0
H1038 H 0.21793 0.91196 0.50798 0.0
C1039 C 0.01401 0.28589 0.5711 0.0
C1040 C 0.96366 0.25119 0.5783 0.0
C1041 C 0.02953 0.29341 0.54374 0.0
C1042 C -0.00635 0.26626 0.52301 0.0
C1043 C 0.94317 0.23007 0.53021 0.0
C1044 C 0.92891 0.22268 0.55775 0.0
C1045 C 0.08394 0.33172 0.53697 0.0
C1046 C 0.90355 0.20089 0.50875 0.0
C1047 C 0.01921 0.33146 0.45458 0.0
C1048 C 0.03761 0.30676 0.43908 0.0
C1049 C 0.00386 0.31785 0.48166 0.0
C1050 C 0.00778 0.27908 0.49383 0.0
C1051 C 0.02579 0.25354 0.47825 0.0
C1052 C 0.04006 0.26737 0.45093 0.0
C1053 C 0.98395 0.34544 0.49734 0.0
C1054 C 0.03115 0.21248 0.49062 0.0
H1055 H 0.04123 0.30775 0.58685 0.0
H1056 H 0.88987 0.19587 0.56308 0.0
H1057 H 0.09978 0.31558 0.52296 0.0
H1058 H 0.08577 0.36384 0.52635 0.0
H1059 H 0.10823 0.34577 0.55542 0.0
H1060 H 0.86709 0.17142 0.51771 0.0
H1061 H 0.89648 0.22663 0.49672 0.0
H1062 H 0.91717 0.18319 0.4944 0.0
H1063 H 0.01679 0.36167 0.44551 0.0
H1064 H 0.05454 0.24835 0.43912 0.0
H1065 H 0.00925 0.36527 0.51483 0.0
H1066 H 0.94586 0.31864 0.50569 0.0
H1067 H 0.98118 0.37315 0.48454 0.0
H1068 H 0.05846 0.22761 0.5078 0.0
H1069 H 0.04455 0.19544 0.47563 0.0
H1070 H -0.00569 0.18282 0.49904 0.0
loop_
_geom_bond_atom_site_label_1
_geom_bond_atom_site_label_2
_geom_bond_distance
_geom_bond_site_symmetry_2
_ccdc_geom_bond_type
O0 Zn1 1.953 . S
O0 C16 1.225 1_556 S
Zn1 O0 1.953 . S
Zn1 O2 1.949 1_656 S
Zn1 O8 1.919 . S
Zn1 O13 1.924 1_655 S
O2 Zn1 1.949 1_454 S
O2 Zn3 1.923 1_454 S
O2 Zn4 1.950 1_455 S
O2 Zn5 1.945 . S
Zn3 O2 1.923 1_656 S
Zn3 O6 1.933 1_655 S
Zn3 O9 1.941 . S
Zn3 O10 1.965 1_556 S
Zn4 O2 1.950 1_655 S
Zn4 O11 1.938 . S
Zn4 O12 1.906 . S
Zn4 O22 1.953 . S
Zn5 O2 1.945 . S
Zn5 O7 1.932 . S
Zn5 O14 1.977 . S
Zn5 O15 1.910 . S
O6 Zn3 1.933 1_455 S
O6 C17 1.226 1_556 S
O7 Zn5 1.932 . S
O7 C17 1.307 . S
O8 Zn1 1.919 . S
O8 C19 1.253 . S
O9 Zn3 1.941 . S
O9 C19 1.283 . S
O10 Zn3 1.965 1_554 S
O10 C18 1.303 . S
O11 Zn4 1.938 . S
O11 C18 1.247 . S
O12 Zn4 1.906 . S
O12 C20 1.304 1_655 S
O13 Zn1 1.924 1_455 S
O13 C21 1.311 1_556 S
O14 Zn5 1.977 . S
O14 C20 1.272 . S
O15 Zn5 1.910 . S
O15 C21 1.231 . S
C16 O0 1.225 1_554 S
C16 O22 1.298 . S
C17 O6 1.226 1_554 S
C17 O7 1.307 . S
C18 O10 1.303 . S
C18 O11 1.247 . S
C19 O8 1.253 . S
C19 O9 1.283 . S
C20 O12 1.304 1_455 S
C20 O14 1.272 . S
C21 O13 1.311 1_554 S
C21 O15 1.231 . S
O22 Zn4 1.953 . S
O22 C16 1.298 . S
O23 Zn24 1.953 . S
O23 C39 1.225 1_556 S
Zn24 O23 1.953 . S
Zn24 O25 1.949 1_556 S
Zn24 O31 1.919 . S
Zn24 O36 1.924 . S
O25 Zn24 1.949 1_554 S
O25 Zn26 1.923 1_554 S
O25 Zn27 1.950 . S
O25 Zn28 1.945 . S
Zn26 O25 1.923 1_556 S
Zn26 O29 1.933 . S
Zn26 O32 1.941 . S
Zn26 O33 1.964 1_556 S
Zn27 O25 1.950 . S
Zn27 O34 1.938 . S
Zn27 O35 1.906 . S
Zn27 O45 1.953 . S
Zn28 O25 1.945 . S
Zn28 O30 1.932 . S
Zn28 O37 1.977 . S
Zn28 O38 1.910 . S
O29 Zn26 1.933 . S
O29 C40 1.211 1_556 S
O30 Zn28 1.932 . S
O30 C40 1.328 . S
O31 Zn24 1.919 . S
O31 C42 1.253 . S
O32 Zn26 1.941 . S
O32 C42 1.283 . S
O33 Zn26 1.964 1_554 S
O33 C41 1.306 . S
O34 Zn27 1.938 . S
O34 C41 1.247 . S
O35 Zn27 1.906 . S
O35 C43 1.304 . S
O36 Zn24 1.924 . S
O36 C44 1.311 1_556 S
O37 Zn28 1.977 . S
O37 C43 1.272 . S
O38 Zn28 1.910 . S
O38 C44 1.231 . S
C39 O23 1.225 1_554 S
C39 O45 1.298 . S
C40 O29 1.211 1_554 S
C40 O30 1.328 . S
C41 O33 1.306 . S
C41 O34 1.247 . S
C42 O31 1.253 . S
C42 O32 1.283 . S
C43 O35 1.304 . S
C43 O37 1.272 . S
C44 O36 1.311 1_554 S
C44 O38 1.231 . S
O45 Zn27 1.953 . S
O45 C39 1.298 . S
O46 Zn47 1.953 1_565 S
O46 C62 1.225 . S
Zn47 O46 1.953 1_545 S
Zn47 O48 1.949 . S
Zn47 O54 1.919 . S
Zn47 O59 1.924 . S
O48 Zn47 1.949 . S
O48 Zn49 1.923 . S
O48 Zn50 1.950 1_544 S
O48 Zn51 1.945 1_554 S
Zn49 O48 1.923 . S
Zn49 O52 1.933 . S
Zn49 O55 1.941 . S
Zn49 O56 1.965 1_545 S
Zn50 O48 1.950 1_566 S
Zn50 O57 1.938 . S
Zn50 O58 1.906 . S
Zn50 O68 1.953 . S
Zn51 O48 1.945 1_556 S
Zn51 O53 1.932 . S
Zn51 O60 1.977 . S
Zn51 O61 1.910 . S
O52 Zn49 1.933 . S
O52 C63 1.226 . S
O53 Zn51 1.932 . S
O53 C63 1.307 1_556 S
O54 Zn47 1.919 . S
O54 C65 1.253 . S
O55 Zn49 1.941 . S
O55 C65 1.283 . S
O56 Zn49 1.965 1_565 S
O56 C64 1.288 1_554 S
O57 Zn50 1.938 . S
O57 C64 1.270 . S
O58 Zn50 1.906 . S
O58 C66 1.304 1_565 S
O59 Zn47 1.924 . S
O59 C67 1.311 . S
O60 Zn51 1.977 . S
O60 C66 1.272 . S
O61 Zn51 1.910 . S
O61 C67 1.231 1_556 S
C62 O46 1.225 . S
C62 O68 1.298 1_554 S
C63 O52 1.226 . S
C63 O53 1.307 1_554 S
C64 O56 1.288 1_556 S
C64 O57 1.270 . S
C65 O54 1.253 . S
C65 O55 1.283 . S
C66 O58 1.304 1_545 S
C66 O60 1.272 . S
C67 O59 1.311 . S
C67 O61 1.231 1_554 S
O68 Zn50 1.953 . S
O68 C62 1.298 1_556 S
O69 Zn70 1.953 . S
O69 C85 1.225 . S
Zn70 O69 1.953 . S
Zn70 O71 1.949 . S
Zn70 O77 1.919 . S
Zn70 O82 1.924 . S
O71 Zn70 1.949 . S
O71 Zn72 1.923 . S
O71 Zn73 1.950 . S
O71 Zn74 1.945 . S
Zn72 O71 1.923 . S
Zn72 O75 1.933 . S
Zn72 O78 1.941 . S
Zn72 O79 1.965 . S
Zn73 O71 1.950 . S
Zn73 O80 1.938 . S
Zn73 O81 1.906 . S
Zn73 O91 1.953 . S
Zn74 O71 1.945 . S
Zn74 O76 1.932 . S
Zn74 O83 1.977 . S
Zn74 O84 1.910 . S
O75 Zn72 1.933 . S
O75 C86 1.226 . S
O76 Zn74 1.932 . S
O76 C86 1.307 . S
O77 Zn70 1.919 . S
O77 C88 1.253 . S
O78 Zn72 1.941 . S
O78 C88 1.283 . S
O79 Zn72 1.965 . S
O79 C87 1.303 . S
O80 Zn73 1.938 . S
O80 C87 1.247 . S
O81 Zn73 1.906 . S
O81 C89 1.304 . S
O82 Zn70 1.924 . S
O82 C90 1.311 . S
O83 Zn74 1.977 . S
O83 C89 1.272 . S
O84 Zn74 1.910 . S
O84 C90 1.231 . S
C85 O69 1.225 . S
C85 O91 1.298 . S
C86 O75 1.226 . S
C86 O76 1.307 . S
C87 O79 1.303 . S
C87 O80 1.247 . S
C88 O77 1.253 . S
C88 O78 1.283 . S
C89 O81 1.304 . S
C89 O83 1.272 . S
C90 O82 1.311 . S
C90 O84 1.231 . S
O91 Zn73 1.953 . S
O91 C85 1.298 . S
O92 Zn93 1.953 . S
O92 C108 1.225 . S
Zn93 O92 1.953 . S
Zn93 O94 1.949 . S
Zn93 O100 1.919 . S
Zn93 O105 1.924 . S
O94 Zn93 1.949 . S
O94 Zn95 1.915 1_565 S
O94 Zn96 1.950 . S
O94 Zn97 1.945 . S
Zn95 O94 1.915 1_545 S
Zn95 O98 1.958 . S
Zn95 O101 1.937 1_545 S
Zn95 O102 1.963 . S
Zn96 O94 1.950 . S
Zn96 O103 1.938 . S
Zn96 O104 1.906 . S
Zn96 O114 1.953 . S
Zn97 O94 1.945 . S
Zn97 O99 1.932 1_565 S
Zn97 O106 1.977 . S
Zn97 O107 1.910 . S
O98 Zn95 1.958 . S
O98 C109 1.226 . S
O99 Zn97 1.932 1_545 S
O99 C109 1.307 . S
O100 Zn93 1.919 . S
O100 C111 1.253 . S
O101 Zn95 1.937 1_565 S
O101 C111 1.283 . S
O102 Zn95 1.963 . S
O102 C110 1.285 1_545 S
O103 Zn96 1.938 . S
O103 C110 1.247 . S
O104 Zn96 1.906 . S
O104 C112 1.304 . S
O105 Zn93 1.924 . S
O105 C113 1.311 . S
O106 Zn97 1.977 . S
O106 C112 1.272 . S
O107 Zn97 1.910 . S
O107 C113 1.231 . S
C108 O92 1.225 . S
C108 O114 1.298 . S
C109 O98 1.226 . S
C109 O99 1.307 . S
C110 O102 1.285 1_565 S
C110 O103 1.247 . S
C111 O100 1.253 . S
C111 O101 1.283 . S
C112 O104 1.304 . S
C112 O106 1.272 . S
C113 O105 1.311 . S
C113 O107 1.231 . S
O114 Zn96 1.953 . S
O114 C108 1.298 . S
O115 Zn116 1.953 . S
O115 C131 1.225 . S
Zn116 O115 1.953 . S
Zn116 O117 1.949 . S
Zn116 O123 1.919 . S
Zn116 O128 1.924 . S
O117 Zn116 1.949 . S
O117 Zn118 1.923 . S
O117 Zn119 1.950 . S
O117 Zn120 1.945 . S
Zn118 O117 1.923 . S
Zn118 O121 1.933 1_455 S
Zn118 O124 1.941 . S
Zn118 O125 1.965 . S
Zn119 O117 1.950 . S
Zn119 O126 1.938 . S
Zn119 O127 1.906 . S
Zn119 O137 1.953 . S
Zn120 O117 1.945 . S
Zn120 O122 1.932 . S
Zn120 O129 1.977 . S
Zn120 O130 1.910 . S
O121 Zn118 1.933 1_655 S
O121 C132 1.226 . S
O122 Zn120 1.932 . S
O122 C132 1.307 1_455 S
O123 Zn116 1.919 . S
O123 C134 1.253 . S
O124 Zn118 1.941 . S
O124 C134 1.283 . S
O125 Zn118 1.965 . S
O125 C133 1.303 . S
O126 Zn119 1.938 . S
O126 C133 1.247 . S
O127 Zn119 1.906 . S
O127 C135 1.304 . S
O128 Zn116 1.924 . S
O128 C136 1.311 . S
O129 Zn120 1.977 . S
O129 C135 1.272 . S
O130 Zn120 1.910 . S
O130 C136 1.231 . S
C131 O115 1.225 . S
C131 O137 1.298 . S
C132 O121 1.226 . S
C132 O122 1.307 1_655 S
C133 O125 1.303 . S
C133 O126 1.247 . S
C134 O123 1.253 . S
C134 O124 1.283 . S
C135 O127 1.304 . S
C135 O129 1.272 . S
C136 O128 1.311 . S
C136 O130 1.231 . S
O137 Zn119 1.953 . S
O137 C131 1.298 . S
O138 Zn139 1.953 . S
O138 C154 1.225 . S
Zn139 O138 1.953 . S
Zn139 O140 1.949 . S
Zn139 O146 1.919 . S
Zn139 O151 1.924 . S
O140 Zn139 1.949 . S
O140 Zn141 1.923 . S
O140 Zn142 1.950 . S
O140 Zn143 1.945 . S
Zn141 O140 1.923 . S
Zn141 O144 1.933 . S
Zn141 O147 1.941 . S
Zn141 O148 1.965 1_545 S
Zn142 O140 1.950 . S
Zn142 O149 1.938 . S
Zn142 O150 1.906 . S
Zn142 O160 1.953 . S
Zn143 O140 1.945 . S
Zn143 O145 1.932 . S
Zn143 O152 1.977 . S
Zn143 O153 1.910 . S
O144 Zn141 1.933 . S
O144 C155 1.226 . S
O145 Zn143 1.932 . S
O145 C155 1.307 . S
O146 Zn139 1.919 . S
O146 C157 1.253 . S
O147 Zn141 1.941 . S
O147 C157 1.283 . S
O148 Zn141 1.965 1_565 S
O148 C156 1.303 . S
O149 Zn142 1.938 . S
O149 C156 1.247 1_545 S
O150 Zn142 1.906 . S
O150 C158 1.304 . S
O151 Zn139 1.924 . S
O151 C159 1.311 . S
O152 Zn143 1.977 . S
O152 C158 1.272 . S
O153 Zn143 1.910 . S
O153 C159 1.231 . S
C154 O138 1.225 . S
C154 O160 1.298 . S
C155 O144 1.226 . S
C155 O145 1.307 . S
C156 O148 1.303 . S
C156 O149 1.247 1_565 S
C157 O146 1.253 . S
C157 O147 1.283 . S
C158 O150 1.304 . S
C158 O152 1.272 . S
C159 O151 1.311 . S
C159 O153 1.231 . S
O160 Zn142 1.953 . S
O160 C154 1.298 . S
O161 Zn162 1.953 . S
O161 C177 1.225 . S
Zn162 O161 1.953 . S
Zn162 O163 1.949 . S
Zn162 O169 1.919 . S
Zn162 O174 1.924 . S
O163 Zn162 1.949 . S
O163 Zn164 1.923 . S
O163 Zn165 1.950 . S
O163 Zn166 1.945 . S
Zn164 O163 1.923 . S
Zn164 O167 1.933 . S
Zn164 O170 1.941 . S
Zn164 O171 1.965 1_655 S
Zn165 O163 1.950 . S
Zn165 O172 1.938 . S
Zn165 O173 1.906 . S
Zn165 O183 1.953 . S
Zn166 O163 1.945 . S
Zn166 O168 1.932 . S
Zn166 O175 1.977 . S
Zn166 O176 1.910 . S
O167 Zn164 1.933 . S
O167 C178 1.226 . S
O168 Zn166 1.932 . S
O168 C178 1.307 . S
O169 Zn162 1.919 . S
O169 C180 1.253 . S
O170 Zn164 1.941 . S
O170 C180 1.283 . S
O171 Zn164 1.965 1_455 S
O171 C179 1.303 . S
O172 Zn165 1.938 . S
O172 C179 1.247 1_655 S
O173 Zn165 1.906 . S
O173 C181 1.304 . S
O174 Zn162 1.924 . S
O174 C182 1.311 . S
O175 Zn166 1.977 . S
O175 C181 1.272 . S
O176 Zn166 1.910 . S
O176 C182 1.231 . S
C177 O161 1.225 . S
C177 O183 1.298 . S
C178 O167 1.226 . S
C178 O168 1.307 . S
C179 O171 1.303 . S
C179 O172 1.247 1_455 S
C180 O169 1.253 . S
C180 O170 1.283 . S
C181 O173 1.304 . S
C181 O175 1.272 . S
C182 O174 1.311 . S
C182 O176 1.231 . S
O183 Zn165 1.953 . S
O183 C177 1.298 . S
O184 Zn185 1.953 . S
O184 C200 1.225 . S
Zn185 O184 1.953 . S
Zn185 O186 1.949 . S
Zn185 O192 1.919 . S
Zn185 O197 1.924 . S
O186 Zn185 1.949 . S
O186 Zn187 1.923 . S
O186 Zn188 1.950 . S
O186 Zn189 1.945 . S
Zn187 O186 1.923 . S
Zn187 O190 1.933 . S
Zn187 O193 1.941 . S
Zn187 O194 1.965 . S
Zn188 O186 1.950 . S
Zn188 O195 1.938 . S
Zn188 O196 1.906 . S
Zn188 O206 1.953 . S
Zn189 O186 1.945 . S
Zn189 O191 1.932 . S
Zn189 O198 1.977 . S
Zn189 O199 1.910 . S
O190 Zn187 1.933 . S
O190 C201 1.226 . S
O191 Zn189 1.932 . S
O191 C201 1.307 . S
O192 Zn185 1.919 . S
O192 C203 1.253 . S
O193 Zn187 1.941 . S
O193 C203 1.283 . S
O194 Zn187 1.965 . S
O194 C202 1.303 . S
O195 Zn188 1.938 . S
O195 C202 1.247 . S
O196 Zn188 1.906 . S
O196 C204 1.304 . S
O197 Zn185 1.924 . S
O197 C205 1.311 . S
O198 Zn189 1.977 . S
O198 C204 1.272 . S
O199 Zn189 1.910 . S
O199 C205 1.231 . S
C200 O184 1.225 . S
C200 O206 1.298 . S
C201 O190 1.226 . S
C201 O191 1.307 . S
C202 O194 1.303 . S
C202 O195 1.247 . S
C203 O192 1.253 . S
C203 O193 1.283 . S
C204 O196 1.304 . S
C204 O198 1.272 . S
C205 O197 1.311 . S
C205 O199 1.231 . S
O206 Zn188 1.953 . S
O206 C200 1.298 . S
C207 C208 1.391 1_556 S
C207 C209 1.394 . S
C207 H223 0.931 . S
C208 C207 1.391 1_554 S
C208 C212 1.376 . S
C209 C207 1.394 . S
C209 C210 1.369 1_556 S
C209 C213 1.531 . S
C210 C209 1.369 1_554 S
C210 C211 1.410 . S
C210 C218 1.503 . S
C211 C210 1.410 . S
C211 C212 1.392 . S
C211 C214 1.511 . S
C212 C208 1.376 . S
C212 C211 1.392 . S
C212 H224 0.929 . S
C213 C209 1.531 . S
C213 H225 0.960 . S
C213 H226 0.962 . S
C213 H227 0.960 . S
C214 C211 1.511 . S
C214 H228 0.961 . S
C214 H229 0.961 . S
C214 H230 0.961 . S
C215 C216 1.370 . S
C215 C217 1.363 . S
C215 H231 0.931 . S
C216 C215 1.370 . S
C216 C220 1.408 1_554 S
C217 C215 1.363 . S
C217 C218 1.370 . S
C217 C221 1.524 . S
C218 C210 1.503 . S
C218 C217 1.370 . S
C218 C219 1.403 1_554 S
C219 C218 1.403 1_556 S
C219 C220 1.404 . S
C219 C222 1.539 . S
C220 C216 1.408 1_556 S
C220 C219 1.404 . S
C220 H232 0.930 . S
C221 C217 1.524 . S
C221 H233 0.956 1_554 S
C221 H234 0.961 . S
C221 H235 0.961 . S
C222 C219 1.539 . S
C222 H236 0.958 . S
C222 H237 0.961 1_556 S
C222 H238 0.960 1_556 S
H223 C207 0.931 . S
H224 C212 0.929 . S
H225 C213 0.960 . S
H226 C213 0.962 . S
H227 C213 0.960 . S
H228 C214 0.961 . S
H229 C214 0.961 . S
H230 C214 0.961 . S
H231 C215 0.931 . S
H232 C220 0.930 . S
H233 C221 0.956 1_556 S
H234 C221 0.961 . S
H235 C221 0.961 . S
H236 C222 0.958 . S
H237 C222 0.961 1_554 S
H238 C222 0.960 1_554 S
C239 C240 1.391 . S
C239 C241 1.394 . S
C239 H255 0.931 . S
C240 C239 1.391 . S
C240 C244 1.376 . S
C241 C239 1.394 . S
C241 C242 1.369 . S
C241 C245 1.531 . S
C242 C241 1.369 . S
C242 C243 1.410 . S
C242 C250 1.503 . S
C243 C242 1.410 . S
C243 C244 1.392 . S
C243 C246 1.507 1_554 S
C244 C240 1.376 . S
C244 C243 1.392 . S
C244 H256 0.929 1_554 S
C245 C241 1.531 . S
C245 H257 0.960 . S
C245 H258 0.991 . S
C245 H259 0.960 . S
C246 C243 1.507 1_556 S
C246 H260 0.985 . S
C246 H261 0.980 . S
C246 H262 0.924 1_556 S
C247 C248 1.352 1_556 S
C247 C249 1.363 . S
C247 H263 0.931 . S
C248 C247 1.352 1_554 S
C248 C252 1.429 . S
C249 C247 1.363 . S
C249 C250 1.370 1_556 S
C249 C253 1.524 . S
C250 C242 1.503 . S
C250 C249 1.370 1_554 S
C250 C251 1.403 . S
C251 C250 1.403 . S
C251 C252 1.404 . S
C251 C254 1.539 . S
C252 C248 1.429 . S
C252 C251 1.404 . S
C252 H264 0.930 . S
C253 C249 1.524 . S
C253 H265 0.956 . S
C253 H266 0.961 . S
C253 H267 0.961 . S
C254 C251 1.539 . S
C254 H268 0.958 . S
C254 H269 0.961 . S
C254 H270 0.960 . S
H255 C239 0.931 . S
H256 C244 0.929 1_556 S
H257 C245 0.960 . S
H258 C245 0.991 . S
H259 C245 0.960 . S
H260 C246 0.985 . S
H261 C246 0.980 . S
H262 C246 0.924 1_554 S
H263 C247 0.931 . S
H264 C252 0.930 . S
H265 C253 0.956 . S
H266 C253 0.961 . S
H267 C253 0.961 . S
H268 C254 0.958 . S
H269 C254 0.961 . S
H270 C254 0.960 . S
C271 C272 1.391 . S
C271 C273 1.394 . S
C271 H287 0.931 . S
C272 C271 1.391 . S
C272 C276 1.376 . S
C273 C271 1.394 . S
C273 C274 1.369 . S
C273 C277 1.531 . S
C274 C273 1.369 . S
C274 C275 1.410 . S
C274 C282 1.503 . S
C275 C274 1.410 . S
C275 C276 1.392 . S
C275 C278 1.511 . S
C276 C272 1.376 . S
C276 C275 1.392 . S
C276 H288 0.926 1_554 S
C277 C273 1.531 . S
C277 H289 0.960 . S
C277 H290 0.962 . S
C277 H291 0.960 . S
C278 C275 1.511 . S
C278 H292 0.961 1_554 S
C278 H293 0.961 1_554 S
C278 H294 0.961 . S
C279 C280 1.370 1_556 S
C279 C281 1.363 . S
C279 H295 0.931 . S
C280 C279 1.370 1_554 S
C280 C284 1.408 . S
C281 C279 1.363 . S
C281 C282 1.370 1_556 S
C281 C285 1.524 . S
C282 C274 1.503 . S
C282 C281 1.370 1_554 S
C282 C283 1.403 . S
C283 C282 1.403 . S
C283 C284 1.404 . S
C283 C286 1.539 . S
C284 C280 1.408 . S
C284 C283 1.404 . S
C284 H296 0.930 . S
C285 C281 1.524 . S
C285 H297 0.956 . S
C285 H298 0.961 . S
C285 H299 0.961 . S
C286 C283 1.539 . S
C286 H300 0.958 . S
C286 H301 0.961 . S
C286 H302 0.960 . S
H287 C271 0.931 . S
H288 C276 0.926 1_556 S
H289 C277 0.960 . S
H290 C277 0.962 . S
H291 C277 0.960 . S
H292 C278 0.961 1_556 S
H293 C278 0.961 1_556 S
H294 C278 0.961 . S
H295 C279 0.931 . S
H296 C284 0.930 . S
H297 C285 0.956 . S
H298 C285 0.961 . S
H299 C285 0.961 . S
H300 C286 0.958 . S
H301 C286 0.961 . S
H302 C286 0.960 . S
C303 C304 1.391 1_556 S
C303 C305 1.394 . S
C303 H319 0.931 . S
C304 C303 1.391 1_554 S
C304 C308 1.376 . S
C305 C303 1.394 . S
C305 C306 1.369 1_556 S
C305 C309 1.531 . S
C306 C305 1.369 1_554 S
C306 C307 1.410 . S
C306 C314 1.503 . S
C307 C306 1.410 . S
C307 C308 1.392 . S
C307 C310 1.511 . S
C308 C304 1.376 . S
C308 C307 1.392 . S
C308 H320 0.929 . S
C309 C305 1.531 . S
C309 H321 0.960 . S
C309 H322 0.962 . S
C309 H323 0.960 . S
C310 C307 1.511 . S
C310 H324 0.961 . S
C310 H325 0.961 . S
C310 H326 0.961 . S
C311 C312 1.370 . S
C311 C313 1.363 . S
C311 H327 0.931 . S
C312 C311 1.370 . S
C312 C316 1.408 1_554 S
C313 C311 1.363 . S
C313 C314 1.370 . S
C313 C317 1.524 . S
C314 C306 1.503 . S
C314 C313 1.370 . S
C314 C315 1.403 1_554 S
C315 C314 1.403 1_556 S
C315 C316 1.404 . S
C315 C318 1.539 . S
C316 C312 1.408 1_556 S
C316 C315 1.404 . S
C316 H328 0.930 . S
C317 C313 1.524 . S
C317 H329 0.956 . S
C317 H330 0.961 . S
C317 H331 0.961 . S
C318 C315 1.539 . S
C318 H332 0.958 . S
C318 H333 0.961 . S
C318 H334 0.960 . S
H319 C303 0.931 . S
H320 C308 0.929 . S
H321 C309 0.960 . S
H322 C309 0.962 . S
H323 C309 0.960 . S
H324 C310 0.961 . S
H325 C310 0.961 . S
H326 C310 0.961 . S
H327 C311 0.931 . S
H328 C316 0.930 . S
H329 C317 0.956 . S
H330 C317 0.961 . S
H331 C317 0.961 . S
H332 C318 0.958 . S
H333 C318 0.961 . S
H334 C318 0.960 . S
C335 C336 1.391 . S
C335 C337 1.394 . S
C335 H351 0.931 . S
C336 C335 1.391 . S
C336 C340 1.376 . S
C337 C335 1.394 . S
C337 C338 1.369 . S
C337 C341 1.531 . S
C338 C337 1.369 . S
C338 C339 1.410 . S
C338 C346 1.503 . S
C339 C338 1.410 . S
C339 C340 1.392 . S
C339 C342 1.516 . S
C340 C336 1.376 . S
C340 C339 1.392 . S
C340 H352 0.929 1_554 S
C341 C337 1.531 . S
C341 H353 0.960 . S
C341 H354 0.962 . S
C341 H355 0.960 . S
C342 C339 1.516 . S
C342 H356 0.947 1_554 S
C342 H357 0.953 1_554 S
C342 H358 0.978 . S
C343 C344 1.370 1_556 S
C343 C345 1.363 . S
C343 H359 0.931 . S
C344 C343 1.370 1_554 S
C344 C348 1.408 . S
C345 C343 1.363 . S
C345 C346 1.370 1_556 S
C345 C349 1.524 . S
C346 C338 1.503 . S
C346 C345 1.370 1_554 S
C346 C347 1.403 . S
C347 C346 1.403 . S
C347 C348 1.404 . S
C347 C350 1.539 . S
C348 C344 1.408 . S
C348 C347 1.404 . S
C348 H360 0.930 . S
C349 C345 1.524 . S
C349 H361 0.956 . S
C349 H362 0.961 . S
C349 H363 0.961 . S
C350 C347 1.539 . S
C350 H364 0.958 . S
C350 H365 0.961 . S
C350 H366 0.960 . S
H351 C335 0.931 . S
H352 C340 0.929 1_556 S
H353 C341 0.960 . S
H354 C341 0.962 . S
H355 C341 0.960 . S
H356 C342 0.947 1_556 S
H357 C342 0.953 1_556 S
H358 C342 0.978 . S
H359 C343 0.931 . S
H360 C348 0.930 . S
H361 C349 0.956 . S
H362 C349 0.961 . S
H363 C349 0.961 . S
H364 C350 0.958 . S
H365 C350 0.961 . S
H366 C350 0.960 . S
C367 C368 1.391 1_556 S
C367 C369 1.394 . S
C367 H383 0.931 . S
C368 C367 1.391 1_554 S
C368 C372 1.376 . S
C369 C367 1.394 . S
C369 C370 1.369 1_556 S
C369 C373 1.531 . S
C370 C369 1.369 1_554 S
C370 C371 1.410 . S
C370 C378 1.503 . S
C371 C370 1.410 . S
C371 C372 1.392 . S
C371 C374 1.511 . S
C372 C368 1.376 . S
C372 C371 1.392 . S
C372 H384 0.929 . S
C373 C369 1.531 . S
C373 H385 0.960 . S
C373 H386 0.962 . S
C373 H387 0.960 . S
C374 C371 1.511 . S
C374 H388 0.961 . S
C374 H389 0.961 . S
C374 H390 0.961 . S
C375 C376 1.370 . S
C375 C377 1.363 . S
C375 H391 0.931 . S
C376 C375 1.370 . S
C376 C380 1.408 1_554 S
C377 C375 1.363 . S
C377 C378 1.370 . S
C377 C381 1.524 . S
C378 C370 1.503 . S
C378 C377 1.370 . S
C378 C379 1.403 1_554 S
C379 C378 1.403 1_556 S
C379 C380 1.404 . S
C379 C382 1.539 . S
C380 C376 1.408 1_556 S
C380 C379 1.404 . S
C380 H392 0.930 . S
C381 C377 1.524 . S
C381 H393 0.956 . S
C381 H394 0.961 . S
C381 H395 0.961 . S
C382 C379 1.539 . S
C382 H396 0.958 . S
C382 H397 0.961 . S
C382 H398 0.960 . S
H383 C367 0.931 . S
H384 C372 0.929 . S
H385 C373 0.960 . S
H386 C373 0.962 . S
H387 C373 0.960 . S
H388 C374 0.961 . S
H389 C374 0.961 . S
H390 C374 0.961 . S
H391 C375 0.931 . S
H392 C380 0.930 . S
H393 C381 0.956 . S
H394 C381 0.961 . S
H395 C381 0.961 . S
H396 C382 0.958 . S
H397 C382 0.961 . S
H398 C382 0.960 . S
C399 C400 1.391 . S
C399 C401 1.394 . S
C399 H415 0.931 . S
C400 C399 1.391 . S
C400 C404 1.376 . S
C401 C399 1.394 . S
C401 C402 1.369 . S
C401 C405 1.531 . S
C402 C401 1.369 . S
C402 C403 1.410 . S
C402 C410 1.503 . S
C403 C402 1.410 . S
C403 C404 1.392 . S
C403 C406 1.511 . S
C404 C400 1.376 . S
C404 C403 1.392 . S
C404 H416 0.929 . S
C405 C401 1.531 . S
C405 H417 0.960 . S
C405 H418 0.962 . S
C405 H419 0.960 . S
C406 C403 1.511 . S
C406 H420 0.961 . S
C406 H421 0.961 . S
C406 H422 0.961 . S
C407 C408 1.370 . S
C407 C409 1.363 . S
C407 H423 0.931 . S
C408 C407 1.370 . S
C408 C412 1.408 . S
C409 C407 1.363 . S
C409 C410 1.370 1_455 S
C409 C413 1.524 1_455 S
C410 C402 1.503 . S
C410 C409 1.370 1_655 S
C410 C411 1.403 1_655 S
C411 C410 1.403 1_455 S
C411 C412 1.404 . S
C411 C414 1.539 1_455 S
C412 C408 1.408 . S
C412 C411 1.404 . S
C412 H424 0.930 . S
C413 C409 1.524 1_655 S
C413 H425 0.956 . S
C413 H426 0.961 . S
C413 H427 0.961 1_655 S
C414 C411 1.539 1_655 S
C414 H428 0.958 . S
C414 H429 0.961 1_655 S
C414 H430 0.960 . S
H415 C399 0.931 . S
H416 C404 0.929 . S
H417 C405 0.960 . S
H418 C405 0.962 . S
H419 C405 0.960 . S
H420 C406 0.961 . S
H421 C406 0.961 . S
H422 C406 0.961 . S
H423 C407 0.931 . S
H424 C412 0.930 . S
H425 C413 0.956 . S
H426 C413 0.961 . S
H427 C413 0.961 1_455 S
H428 C414 0.958 . S
H429 C414 0.961 1_455 S
H430 C414 0.960 . S
C431 C432 1.391 . S
C431 C433 1.394 . S
C431 H447 0.931 . S
C432 C431 1.391 . S
C432 C436 1.376 . S
C433 C431 1.394 . S
C433 C434 1.369 . S
C433 C437 1.531 . S
C434 C433 1.369 . S
C434 C435 1.410 . S
C434 C442 1.503 . S
C435 C434 1.410 . S
C435 C436 1.392 . S
C435 C438 1.511 . S
C436 C432 1.376 . S
C436 C435 1.392 . S
C436 H448 0.929 . S
C437 C433 1.531 . S
C437 H449 0.960 . S
C437 H450 0.962 . S
C437 H451 0.960 . S
C438 C435 1.511 . S
C438 H452 0.961 . S
C438 H453 0.961 . S
C438 H454 0.961 . S
C439 C440 1.370 . S
C439 C441 1.363 . S
C439 H455 0.931 . S
C440 C439 1.370 . S
C440 C444 1.408 . S
C441 C439 1.363 . S
C441 C442 1.370 . S
C441 C445 1.524 . S
C442 C434 1.503 . S
C442 C441 1.370 . S
C442 C443 1.403 . S
C443 C442 1.403 . S
C443 C444 1.404 . S
C443 C446 1.539 . S
C444 C440 1.408 . S
C444 C443 1.404 . S
C444 H456 0.930 . S
C445 C441 1.524 . S
C445 H457 0.956 . S
C445 H458 0.961 . S
C445 H459 0.961 . S
C446 C443 1.539 . S
C446 H460 0.958 . S
C446 H461 0.961 . S
C446 H462 0.960 . S
H447 C431 0.931 . S
H448 C436 0.929 . S
H449 C437 0.960 . S
H450 C437 0.962 . S
H451 C437 0.960 . S
H452 C438 0.961 . S
H453 C438 0.961 . S
H454 C438 0.961 . S
H455 C439 0.931 . S
H456 C444 0.930 . S
H457 C445 0.956 . S
H458 C445 0.961 . S
H459 C445 0.961 . S
H460 C446 0.958 . S
H461 C446 0.961 . S
H462 C446 0.960 . S
C463 C464 1.391 . S
C463 C465 1.394 . S
C463 H479 0.931 . S
C464 C463 1.391 . S
C464 C468 1.376 . S
C465 C463 1.394 . S
C465 C466 1.369 . S
C465 C469 1.531 . S
C466 C465 1.369 . S
C466 C467 1.410 . S
C466 C474 1.503 . S
C467 C466 1.410 . S
C467 C468 1.392 . S
C467 C470 1.511 . S
C468 C464 1.376 . S
C468 C467 1.392 . S
C468 H480 0.929 . S
C469 C465 1.531 . S
C469 H481 0.960 . S
C469 H482 0.962 . S
C469 H483 0.960 . S
C470 C467 1.511 . S
C470 H484 0.961 . S
C470 H485 0.961 . S
C470 H486 0.961 . S
C471 C472 1.370 1_545 S
C471 C473 1.363 . S
C471 H487 0.931 1_545 S
C472 C471 1.370 1_565 S
C472 C476 1.408 . S
C473 C471 1.363 . S
C473 C474 1.370 . S
C473 C477 1.524 . S
C474 C466 1.503 . S
C474 C473 1.370 . S
C474 C475 1.403 . S
C475 C474 1.403 . S
C475 C476 1.404 1_545 S
C475 C478 1.539 . S
C476 C472 1.408 . S
C476 C475 1.404 1_565 S
C476 H488 0.930 . S
C477 C473 1.524 . S
C477 H489 0.956 . S
C477 H490 0.961 . S
C477 H491 0.961 . S
C478 C475 1.539 . S
C478 H492 0.958 . S
C478 H493 0.961 . S
C478 H494 0.960 . S
H479 C463 0.931 . S
H480 C468 0.929 . S
H481 C469 0.960 . S
H482 C469 0.962 . S
H483 C469 0.960 . S
H484 C470 0.961 . S
H485 C470 0.961 . S
H486 C470 0.961 . S
H487 C471 0.931 1_565 S
H488 C476 0.930 . S
H489 C477 0.956 . S
H490 C477 0.961 . S
H491 C477 0.961 . S
H492 C478 0.958 . S
H493 C478 0.961 . S
H494 C478 0.960 . S
C495 C496 1.391 . S
C495 C497 1.394 . S
C495 H511 0.931 . S
C496 C495 1.391 . S
C496 C500 1.376 . S
C497 C495 1.394 . S
C497 C498 1.369 . S
C497 C501 1.531 . S
C498 C497 1.369 . S
C498 C499 1.410 . S
C498 C506 1.503 . S
C499 C498 1.410 . S
C499 C500 1.392 . S
C499 C502 1.511 . S
C500 C496 1.376 . S
C500 C499 1.392 . S
C500 H512 0.929 . S
C501 C497 1.531 . S
C501 H513 0.960 . S
C501 H514 0.962 . S
C501 H515 0.960 . S
C502 C499 1.511 . S
C502 H516 0.961 . S
C502 H517 0.961 . S
C502 H518 0.961 . S
C503 C504 1.370 . S
C503 C505 1.363 . S
C503 H519 0.931 . S
C504 C503 1.370 . S
C504 C508 1.408 . S
C505 C503 1.363 . S
C505 C506 1.370 . S
C505 C509 1.524 . S
C506 C498 1.503 . S
C506 C505 1.370 . S
C506 C507 1.403 . S
C507 C506 1.403 . S
C507 C508 1.404 . S
C507 C510 1.539 . S
C508 C504 1.408 . S
C508 C507 1.404 . S
C508 H520 0.930 . S
C509 C505 1.524 . S
C509 H521 0.956 . S
C509 H522 0.961 . S
C509 H523 0.961 . S
C510 C507 1.539 . S
C510 H524 0.958 . S
C510 H525 0.961 . S
C510 H526 0.960 . S
H511 C495 0.931 . S
H512 C500 0.929 . S
H513 C501 0.960 . S
H514 C501 0.962 . S
H515 C501 0.960 . S
H516 C502 0.961 . S
H517 C502 0.961 . S
H518 C502 0.961 . S
H519 C503 0.931 . S
H520 C508 0.930 . S
H521 C509 0.956 . S
H522 C509 0.961 . S
H523 C509 0.961 . S
H524 C510 0.958 . S
H525 C510 0.961 . S
H526 C510 0.960 . S
C527 C528 1.391 . S
C527 C529 1.394 . S
C527 H543 0.931 . S
C528 C527 1.391 . S
C528 C532 1.376 . S
C529 C527 1.394 . S
C529 C530 1.369 . S
C529 C533 1.531 . S
C530 C529 1.369 . S
C530 C531 1.410 . S
C530 C538 1.503 . S
C531 C530 1.410 . S
C531 C532 1.392 . S
C531 C534 1.511 . S
C532 C528 1.376 . S
C532 C531 1.392 . S
C532 H544 0.929 . S
C533 C529 1.531 . S
C533 H545 0.960 . S
C533 H546 0.962 . S
C533 H547 0.960 . S
C534 C531 1.511 . S
C534 H548 0.961 . S
C534 H549 0.961 . S
C534 H550 0.961 . S
C535 C536 1.370 . S
C535 C537 1.363 . S
C535 H551 0.931 . S
C536 C535 1.370 . S
C536 C540 1.408 . S
C537 C535 1.363 . S
C537 C538 1.370 . S
C537 C541 1.524 . S
C538 C530 1.503 . S
C538 C537 1.370 . S
C538 C539 1.403 . S
C539 C538 1.403 . S
C539 C540 1.404 . S
C539 C542 1.539 . S
C540 C536 1.408 . S
C540 C539 1.404 . S
C540 H552 0.930 . S
C541 C537 1.524 . S
C541 H553 0.956 . S
C541 H554 0.961 . S
C541 H555 0.961 . S
C542 C539 1.539 . S
C542 H556 0.958 . S
C542 H557 0.961 . S
C542 H558 0.960 . S
H543 C527 0.931 . S
H544 C532 0.929 . S
H545 C533 0.960 . S
H546 C533 0.962 . S
H547 C533 0.960 . S
H548 C534 0.961 . S
H549 C534 0.961 . S
H550 C534 0.961 . S
H551 C535 0.931 . S
H552 C540 0.930 . S
H553 C541 0.956 . S
H554 C541 0.961 . S
H555 C541 0.961 . S
H556 C542 0.958 . S
H557 C542 0.961 . S
H558 C542 0.960 . S
C559 C560 1.391 . S
C559 C561 1.394 . S
C559 H575 0.931 . S
C560 C559 1.391 . S
C560 C564 1.376 . S
C561 C559 1.394 . S
C561 C562 1.369 . S
C561 C565 1.531 . S
C562 C561 1.369 . S
C562 C563 1.410 . S
C562 C570 1.503 . S
C563 C562 1.410 . S
C563 C564 1.392 . S
C563 C566 1.511 1_565 S
C564 C560 1.376 . S
C564 C563 1.392 . S
C564 H576 0.929 1_565 S
C565 C561 1.531 . S
C565 H577 0.960 . S
C565 H578 0.962 . S
C565 H579 0.960 . S
C566 C563 1.511 1_545 S
C566 H580 0.961 . S
C566 H581 0.961 1_545 S
C566 H582 0.961 . S
C567 C568 1.370 . S
C567 C569 1.363 . S
C567 H583 0.931 . S
C568 C567 1.370 . S
C568 C572 1.408 . S
C569 C567 1.363 . S
C569 C570 1.370 . S
C569 C573 1.524 . S
C570 C562 1.503 . S
C570 C569 1.370 . S
C570 C571 1.403 . S
C571 C570 1.403 . S
C571 C572 1.404 . S
C571 C574 1.539 . S
C572 C568 1.408 . S
C572 C571 1.404 . S
C572 H584 0.930 . S
C573 C569 1.524 . S
C573 H585 0.956 . S
C573 H586 0.961 . S
C573 H587 0.961 . S
C574 C571 1.539 . S
C574 H588 0.958 . S
C574 H589 0.961 . S
C574 H590 0.960 . S
H575 C559 0.931 . S
H576 C564 0.929 1_545 S
H577 C565 0.960 . S
H578 C565 0.962 . S
H579 C565 0.960 . S
H580 C566 0.961 . S
H581 C566 0.961 1_565 S
H582 C566 0.961 . S
H583 C567 0.931 . S
H584 C572 0.930 . S
H585 C573 0.956 . S
H586 C573 0.961 . S
H587 C573 0.961 . S
H588 C574 0.958 . S
H589 C574 0.961 . S
H590 C574 0.960 . S
C591 C592 1.391 . S
C591 C593 1.394 . S
C591 H607 0.931 . S
C592 C591 1.391 . S
C592 C596 1.376 . S
C593 C591 1.394 . S
C593 C594 1.369 . S
C593 C597 1.531 . S
C594 C593 1.369 . S
C594 C595 1.410 . S
C594 C602 1.503 . S
C595 C594 1.410 . S
C595 C596 1.392 . S
C595 C598 1.511 . S
C596 C592 1.376 . S
C596 C595 1.392 . S
C596 H608 0.929 . S
C597 C593 1.531 . S
C597 H609 0.960 . S
C597 H610 0.962 . S
C597 H611 0.960 . S
C598 C595 1.511 . S
C598 H612 0.961 . S
C598 H613 0.961 . S
C598 H614 0.961 . S
C599 C600 1.370 . S
C599 C601 1.363 . S
C599 H615 0.931 . S
C600 C599 1.370 . S
C600 C604 1.408 . S
C601 C599 1.363 . S
C601 C602 1.370 . S
C601 C605 1.524 . S
C602 C594 1.503 . S
C602 C601 1.370 . S
C602 C603 1.403 . S
C603 C602 1.403 . S
C603 C604 1.404 . S
C603 C606 1.539 . S
C604 C600 1.408 . S
C604 C603 1.404 . S
C604 H616 0.930 . S
C605 C601 1.524 . S
C605 H617 0.956 . S
C605 H618 0.961 . S
C605 H619 0.961 . S
C606 C603 1.539 . S
C606 H620 0.958 . S
C606 H621 0.961 . S
C606 H622 0.960 . S
H607 C591 0.931 . S
H608 C596 0.929 . S
H609 C597 0.960 . S
H610 C597 0.962 . S
H611 C597 0.960 . S
H612 C598 0.961 . S
H613 C598 0.961 . S
H614 C598 0.961 . S
H615 C599 0.931 . S
H616 C604 0.930 . S
H617 C605 0.956 . S
H618 C605 0.961 . S
H619 C605 0.961 . S
H620 C606 0.958 . S
H621 C606 0.961 . S
H622 C606 0.960 . S
C623 C624 1.391 . S
C623 C625 1.394 . S
C623 H639 0.931 . S
C624 C623 1.391 . S
C624 C628 1.376 . S
C625 C623 1.394 . S
C625 C626 1.369 . S
C625 C629 1.531 . S
C626 C625 1.369 . S
C626 C627 1.410 . S
C626 C634 1.503 . S
C627 C626 1.410 . S
C627 C628 1.392 . S
C627 C630 1.511 . S
C628 C624 1.376 . S
C628 C627 1.392 . S
C628 H640 0.929 . S
C629 C625 1.531 . S
C629 H641 0.960 . S
C629 H642 0.962 . S
C629 H643 0.960 . S
C630 C627 1.511 . S
C630 H644 0.961 . S
C630 H645 0.961 . S
C630 H646 0.961 . S
C631 C632 1.370 . S
C631 C633 1.363 . S
C631 H647 0.931 . S
C632 C631 1.370 . S
C632 C636 1.408 . S
C633 C631 1.363 . S
C633 C634 1.370 . S
C633 C637 1.524 . S
C634 C626 1.503 . S
C634 C633 1.370 . S
C634 C635 1.403 . S
C635 C634 1.403 . S
C635 C636 1.404 . S
C635 C638 1.539 . S
C636 C632 1.408 . S
C636 C635 1.404 . S
C636 H648 0.930 . S
C637 C633 1.524 . S
C637 H649 0.956 . S
C637 H650 0.961 . S
C637 H651 0.961 . S
C638 C635 1.539 . S
C638 H652 0.958 . S
C638 H653 0.961 . S
C638 H654 0.960 . S
H639 C623 0.931 . S
H640 C628 0.929 . S
H641 C629 0.960 . S
H642 C629 0.962 . S
H643 C629 0.960 . S
H644 C630 0.961 . S
H645 C630 0.961 . S
H646 C630 0.961 . S
H647 C631 0.931 . S
H648 C636 0.930 . S
H649 C637 0.956 . S
H650 C637 0.961 . S
H651 C637 0.961 . S
H652 C638 0.958 . S
H653 C638 0.961 . S
H654 C638 0.960 . S
C655 C656 1.391 . S
C655 C657 1.394 . S
C655 H671 0.931 . S
C656 C655 1.391 . S
C656 C660 1.376 . S
C657 C655 1.394 . S
C657 C658 1.369 . S
C657 C661 1.531 . S
C658 C657 1.369 . S
C658 C659 1.410 . S
C658 C666 1.503 . S
C659 C658 1.410 . S
C659 C660 1.392 . S
C659 C662 1.511 . S
C660 C656 1.376 . S
C660 C659 1.392 . S
C660 H672 0.929 . S
C661 C657 1.531 . S
C661 H673 0.960 . S
C661 H674 0.962 . S
C661 H675 0.960 . S
C662 C659 1.511 . S
C662 H676 0.961 . S
C662 H677 0.961 . S
C662 H678 0.961 . S
C663 C664 1.370 . S
C663 C665 1.363 . S
C663 H679 0.931 . S
C664 C663 1.370 . S
C664 C668 1.408 . S
C665 C663 1.363 . S
C665 C666 1.370 . S
C665 C669 1.524 . S
C666 C658 1.503 . S
C666 C665 1.370 . S
C666 C667 1.403 . S
C667 C666 1.403 . S
C667 C668 1.404 . S
C667 C670 1.539 . S
C668 C664 1.408 . S
C668 C667 1.404 . S
C668 H680 0.930 . S
C669 C665 1.524 . S
C669 H681 0.956 . S
C669 H682 0.961 . S
C669 H683 0.961 . S
C670 C667 1.539 . S
C670 H684 0.958 . S
C670 H685 0.961 . S
C670 H686 0.960 . S
H671 C655 0.931 . S
H672 C660 0.929 . S
H673 C661 0.960 . S
H674 C661 0.962 . S
H675 C661 0.960 . S
H676 C662 0.961 . S
H677 C662 0.961 . S
H678 C662 0.961 . S
H679 C663 0.931 . S
H680 C668 0.930 . S
H681 C669 0.956 . S
H682 C669 0.961 . S
H683 C669 0.961 . S
H684 C670 0.958 . S
H685 C670 0.961 . S
H686 C670 0.960 . S
C687 C688 1.391 . S
C687 C689 1.394 . S
C687 H703 0.931 . S
C688 C687 1.391 . S
C688 C692 1.376 . S
C689 C687 1.394 . S
C689 C690 1.369 . S
C689 C693 1.531 . S
C690 C689 1.369 . S
C690 C691 1.410 . S
C690 C698 1.503 . S
C691 C690 1.410 . S
C691 C692 1.392 . S
C691 C694 1.511 . S
C692 C688 1.376 . S
C692 C691 1.392 . S
C692 H704 0.929 . S
C693 C689 1.531 . S
C693 H705 0.960 . S
C693 H706 0.962 . S
C693 H707 0.960 . S
C694 C691 1.511 . S
C694 H708 0.961 . S
C694 H709 0.961 . S
C694 H710 0.961 . S
C695 C696 1.370 . S
C695 C697 1.363 1_545 S
C695 H711 0.931 . S
C696 C695 1.370 . S
C696 C700 1.408 . S
C697 C695 1.363 1_565 S
C697 C698 1.370 . S
C697 C701 1.524 . S
C698 C690 1.503 . S
C698 C697 1.370 . S
C698 C699 1.403 1_565 S
C699 C698 1.403 1_545 S
C699 C700 1.404 . S
C699 C702 1.539 1_545 S
C700 C696 1.408 . S
C700 C699 1.404 . S
C700 H712 0.930 . S
C701 C697 1.524 . S
C701 H713 0.956 . S
C701 H714 0.961 . S
C701 H715 0.961 . S
C702 C699 1.539 1_565 S
C702 H716 0.958 . S
C702 H717 0.961 1_565 S
C702 H718 0.960 . S
H703 C687 0.931 . S
H704 C692 0.929 . S
H705 C693 0.960 . S
H706 C693 0.962 . S
H707 C693 0.960 . S
H708 C694 0.961 . S
H709 C694 0.961 . S
H710 C694 0.961 . S
H711 C695 0.931 . S
H712 C700 0.930 . S
H713 C701 0.956 . S
H714 C701 0.961 . S
H715 C701 0.961 . S
H716 C702 0.958 . S
H717 C702 0.961 1_545 S
H718 C702 0.960 . S
C719 C720 1.391 . S
C719 C721 1.394 1_655 S
C719 H735 0.931 . S
C720 C719 1.391 . S
C720 C724 1.376 . S
C721 C719 1.394 1_455 S
C721 C722 1.369 . S
C721 C725 1.531 . S
C722 C721 1.369 . S
C722 C723 1.410 . S
C722 C730 1.503 . S
C723 C722 1.410 . S
C723 C724 1.392 1_455 S
C723 C726 1.511 . S
C724 C720 1.376 . S
C724 C723 1.392 1_655 S
C724 H736 0.929 . S
C725 C721 1.531 . S
C725 H737 0.960 . S
C725 H738 0.962 . S
C725 H739 0.960 . S
C726 C723 1.511 . S
C726 H740 0.961 . S
C726 H741 0.961 . S
C726 H742 0.961 . S
C727 C728 1.370 . S
C727 C729 1.363 . S
C727 H743 0.931 . S
C728 C727 1.370 . S
C728 C732 1.408 . S
C729 C727 1.363 . S
C729 C730 1.370 . S
C729 C733 1.524 . S
C730 C722 1.503 . S
C730 C729 1.370 . S
C730 C731 1.403 . S
C731 C730 1.403 . S
C731 C732 1.404 . S
C731 C734 1.539 . S
C732 C728 1.408 . S
C732 C731 1.404 . S
C732 H744 0.930 1_565 S
C733 C729 1.524 . S
C733 H745 0.956 . S
C733 H746 0.961 . S
C733 H747 0.961 . S
C734 C731 1.539 . S
C734 H748 0.958 . S
C734 H749 0.961 1_565 S
C734 H750 0.960 . S
H735 C719 0.931 . S
H736 C724 0.929 . S
H737 C725 0.960 . S
H738 C725 0.962 . S
H739 C725 0.960 . S
H740 C726 0.961 . S
H741 C726 0.961 . S
H742 C726 0.961 . S
H743 C727 0.931 . S
H744 C732 0.930 1_545 S
H745 C733 0.956 . S
H746 C733 0.961 . S
H747 C733 0.961 . S
H748 C734 0.958 . S
H749 C734 0.961 1_545 S
H750 C734 0.960 . S
C751 C752 1.391 . S
C751 C753 1.394 . S
C751 H767 0.931 . S
C752 C751 1.391 . S
C752 C756 1.376 . S
C753 C751 1.394 . S
C753 C754 1.369 . S
C753 C757 1.531 . S
C754 C753 1.369 . S
C754 C755 1.410 . S
C754 C762 1.503 . S
C755 C754 1.410 . S
C755 C756 1.392 . S
C755 C758 1.511 . S
C756 C752 1.376 . S
C756 C755 1.392 . S
C756 H768 0.929 . S
C757 C753 1.531 . S
C757 H769 0.960 . S
C757 H770 0.962 . S
C757 H771 0.960 . S
C758 C755 1.511 . S
C758 H772 0.961 . S
C758 H773 0.961 . S
C758 H774 0.961 . S
C759 C760 1.370 . S
C759 C761 1.363 . S
C759 H775 0.931 . S
C760 C759 1.370 . S
C760 C764 1.408 . S
C761 C759 1.363 . S
C761 C762 1.370 . S
C761 C765 1.524 . S
C762 C754 1.503 . S
C762 C761 1.370 . S
C762 C763 1.403 . S
C763 C762 1.403 . S
C763 C764 1.404 . S
C763 C766 1.539 . S
C764 C760 1.408 . S
C764 C763 1.404 . S
C764 H776 0.930 . S
C765 C761 1.524 . S
C765 H777 0.956 . S
C765 H778 0.961 . S
C765 H779 0.961 . S
C766 C763 1.539 . S
C766 H780 0.958 . S
C766 H781 0.961 . S
C766 H782 0.960 . S
H767 C751 0.931 . S
H768 C756 0.929 . S
H769 C757 0.960 . S
H770 C757 0.962 . S
H771 C757 0.960 . S
H772 C758 0.961 . S
H773 C758 0.961 . S
H774 C758 0.961 . S
H775 C759 0.931 . S
H776 C764 0.930 . S
H777 C765 0.956 . S
H778 C765 0.961 . S
H779 C765 0.961 . S
H780 C766 0.958 . S
H781 C766 0.961 . S
H782 C766 0.960 . S
C783 C784 1.391 . S
C783 C785 1.394 . S
C783 H799 0.931 . S
C784 C783 1.391 . S
C784 C788 1.376 . S
C785 C783 1.394 . S
C785 C786 1.369 . S
C785 C789 1.531 1_455 S
C786 C785 1.369 . S
C786 C787 1.410 . S
C786 C794 1.503 . S
C787 C786 1.410 . S
C787 C788 1.392 . S
C787 C790 1.511 . S
C788 C784 1.376 . S
C788 C787 1.392 . S
C788 H800 0.929 . S
C789 C785 1.531 1_655 S
C789 H801 0.960 . S
C789 H802 0.962 1_655 S
C789 H803 0.960 . S
C790 C787 1.511 . S
C790 H804 0.961 . S
C790 H805 0.961 . S
C790 H806 0.961 . S
C791 C792 1.370 . S
C791 C793 1.363 . S
C791 H807 0.931 . S
C792 C791 1.370 . S
C792 C796 1.408 . S
C793 C791 1.363 . S
C793 C794 1.370 . S
C793 C797 1.524 . S
C794 C786 1.503 . S
C794 C793 1.370 . S
C794 C795 1.403 . S
C795 C794 1.403 . S
C795 C796 1.404 . S
C795 C798 1.539 1_455 S
C796 C792 1.408 . S
C796 C795 1.404 . S
C796 H808 0.930 1_455 S
C797 C793 1.524 . S
C797 H809 0.956 . S
C797 H810 0.961 . S
C797 H811 0.961 . S
C798 C795 1.539 1_655 S
C798 H812 0.958 . S
C798 H813 0.961 . S
C798 H814 0.960 1_655 S
H799 C783 0.931 . S
H800 C788 0.929 . S
H801 C789 0.960 . S
H802 C789 0.962 1_455 S
H803 C789 0.960 . S
H804 C790 0.961 . S
H805 C790 0.961 . S
H806 C790 0.961 . S
H807 C791 0.931 . S
H808 C796 0.930 1_655 S
H809 C797 0.956 . S
H810 C797 0.961 . S
H811 C797 0.961 . S
H812 C798 0.958 . S
H813 C798 0.961 . S
H814 C798 0.960 1_455 S
C815 C816 1.391 . S
C815 C817 1.394 . S
C815 H831 0.931 . S
C816 C815 1.391 . S
C816 C820 1.376 . S
C817 C815 1.394 . S
C817 C818 1.369 . S
C817 C821 1.531 . S
C818 C817 1.369 . S
C818 C819 1.410 . S
C818 C826 1.503 . S
C819 C818 1.410 . S
C819 C820 1.392 . S
C819 C822 1.511 . S
C820 C816 1.376 . S
C820 C819 1.392 . S
C820 H832 0.929 . S
C821 C817 1.531 . S
C821 H833 0.960 . S
C821 H834 0.962 . S
C821 H835 0.960 . S
C822 C819 1.511 . S
C822 H836 0.961 . S
C822 H837 0.961 . S
C822 H838 0.961 . S
C823 C824 1.370 . S
C823 C825 1.363 . S
C823 H839 0.931 . S
C824 C823 1.370 . S
C824 C828 1.408 . S
C825 C823 1.363 . S
C825 C826 1.370 . S
C825 C829 1.524 . S
C826 C818 1.503 . S
C826 C825 1.370 . S
C826 C827 1.403 . S
C827 C826 1.403 . S
C827 C828 1.404 . S
C827 C830 1.539 . S
C828 C824 1.408 . S
C828 C827 1.404 . S
C828 H840 0.930 . S
C829 C825 1.524 . S
C829 H841 0.956 . S
C829 H842 0.961 . S
C829 H843 0.961 . S
C830 C827 1.539 . S
C830 H844 0.958 . S
C830 H845 0.961 . S
C830 H846 0.960 . S
H831 C815 0.931 . S
H832 C820 0.929 . S
H833 C821 0.960 . S
H834 C821 0.962 . S
H835 C821 0.960 . S
H836 C822 0.961 . S
H837 C822 0.961 . S
H838 C822 0.961 . S
H839 C823 0.931 . S
H840 C828 0.930 . S
H841 C829 0.956 . S
H842 C829 0.961 . S
H843 C829 0.961 . S
H844 C830 0.958 . S
H845 C830 0.961 . S
H846 C830 0.960 . S
C847 C848 1.391 1_565 S
C847 C849 1.394 . S
C847 H863 0.931 . S
C848 C847 1.391 1_545 S
C848 C852 1.376 . S
C849 C847 1.394 . S
C849 C850 1.369 . S
C849 C853 1.531 . S
C850 C849 1.369 . S
C850 C851 1.410 1_565 S
C850 C858 1.503 . S
C851 C850 1.410 1_545 S
C851 C852 1.392 . S
C851 C854 1.511 . S
C852 C848 1.376 . S
C852 C851 1.392 . S
C852 H864 0.929 . S
C853 C849 1.531 . S
C853 H865 0.960 . S
C853 H866 0.962 . S
C853 H867 0.960 . S
C854 C851 1.511 . S
C854 H868 0.961 . S
C854 H869 0.961 . S
C854 H870 0.961 . S
C855 C856 1.370 1_545 S
C855 C857 1.363 . S
C855 H871 0.931 . S
C856 C855 1.370 1_565 S
C856 C860 1.408 . S
C857 C855 1.363 . S
C857 C858 1.370 1_545 S
C857 C861 1.524 . S
C858 C850 1.503 . S
C858 C857 1.370 1_565 S
C858 C859 1.403 . S
C859 C858 1.403 . S
C859 C860 1.404 . S
C859 C862 1.539 . S
C860 C856 1.408 . S
C860 C859 1.404 . S
C860 H872 0.930 . S
C861 C857 1.524 . S
C861 H873 0.956 . S
C861 H874 0.961 . S
C861 H875 0.961 . S
C862 C859 1.539 . S
C862 H876 0.958 . S
C862 H877 0.961 . S
C862 H878 0.960 . S
H863 C847 0.931 . S
H864 C852 0.929 . S
H865 C853 0.960 . S
H866 C853 0.962 . S
H867 C853 0.960 . S
H868 C854 0.961 . S
H869 C854 0.961 . S
H870 C854 0.961 . S
H871 C855 0.931 . S
H872 C860 0.930 . S
H873 C861 0.956 . S
H874 C861 0.961 . S
H875 C861 0.961 . S
H876 C862 0.958 . S
H877 C862 0.961 . S
H878 C862 0.960 . S
C879 C880 1.391 . S
C879 C881 1.394 . S
C879 H895 0.931 . S
C880 C879 1.391 . S
C880 C884 1.376 . S
C881 C879 1.394 . S
C881 C882 1.369 . S
C881 C885 1.531 . S
C882 C881 1.369 . S
C882 C883 1.410 . S
C882 C890 1.503 . S
C883 C882 1.410 . S
C883 C884 1.392 . S
C883 C886 1.511 . S
C884 C880 1.376 . S
C884 C883 1.392 . S
C884 H896 0.929 . S
C885 C881 1.531 . S
C885 H897 0.960 . S
C885 H898 0.962 . S
C885 H899 0.960 . S
C886 C883 1.511 . S
C886 H900 0.961 . S
C886 H901 0.961 . S
C886 H902 0.961 . S
C887 C888 1.370 . S
C887 C889 1.363 . S
C887 H903 0.931 . S
C888 C887 1.370 . S
C888 C892 1.408 . S
C889 C887 1.363 . S
C889 C890 1.370 . S
C889 C893 1.524 1_545 S
C890 C882 1.503 . S
C890 C889 1.370 . S
C890 C891 1.403 . S
C891 C890 1.403 . S
C891 C892 1.404 . S
C891 C894 1.539 . S
C892 C888 1.408 . S
C892 C891 1.404 . S
C892 H904 0.930 . S
C893 C889 1.524 1_565 S
C893 H905 0.956 . S
C893 H906 0.954 . S
C893 H907 0.961 . S
C894 C891 1.539 . S
C894 H908 0.958 . S
C894 H909 0.961 . S
C894 H910 0.960 . S
H895 C879 0.931 . S
H896 C884 0.929 . S
H897 C885 0.960 . S
H898 C885 0.962 . S
H899 C885 0.960 . S
H900 C886 0.961 . S
H901 C886 0.961 . S
H902 C886 0.961 . S
H903 C887 0.931 . S
H904 C892 0.930 . S
H905 C893 0.956 . S
H906 C893 0.954 . S
H907 C893 0.961 . S
H908 C894 0.958 . S
H909 C894 0.961 . S
H910 C894 0.960 . S
C911 C912 1.391 1_455 S
C911 C913 1.394 . S
C911 H927 0.931 . S
C912 C911 1.391 1_655 S
C912 C916 1.376 . S
C913 C911 1.394 . S
C913 C914 1.369 1_455 S
C913 C917 1.531 . S
C914 C913 1.369 1_655 S
C914 C915 1.410 . S
C914 C922 1.503 . S
C915 C914 1.410 . S
C915 C916 1.392 . S
C915 C918 1.511 . S
C916 C912 1.376 . S
C916 C915 1.392 . S
C916 H928 0.929 . S
C917 C913 1.531 . S
C917 H929 0.960 . S
C917 H930 0.962 . S
C917 H931 0.960 . S
C918 C915 1.511 . S
C918 H932 0.961 . S
C918 H933 0.961 . S
C918 H934 0.961 . S
C919 C920 1.370 . S
C919 C921 1.363 . S
C919 H935 0.931 . S
C920 C919 1.370 . S
C920 C924 1.408 . S
C921 C919 1.363 . S
C921 C922 1.370 . S
C921 C925 1.522 1_655 S
C922 C914 1.503 . S
C922 C921 1.370 . S
C922 C923 1.403 . S
C923 C922 1.403 . S
C923 C924 1.404 . S
C923 C926 1.539 . S
C924 C920 1.408 . S
C924 C923 1.404 . S
C924 H936 0.930 . S
C925 C921 1.522 1_455 S
C925 H937 0.979 . S
C925 H938 0.942 1_455 S
C925 H939 0.959 . S
C926 C923 1.539 . S
C926 H940 0.958 . S
C926 H941 0.961 . S
C926 H942 0.960 . S
H927 C911 0.931 . S
H928 C916 0.929 . S
H929 C917 0.960 . S
H930 C917 0.962 . S
H931 C917 0.960 . S
H932 C918 0.961 . S
H933 C918 0.961 . S
H934 C918 0.961 . S
H935 C919 0.931 . S
H936 C924 0.930 . S
H937 C925 0.979 . S
H938 C925 0.942 1_655 S
H939 C925 0.959 . S
H940 C926 0.958 . S
H941 C926 0.961 . S
H942 C926 0.960 . S
C943 C944 1.391 . S
C943 C945 1.394 . S
C943 H959 0.931 . S
C944 C943 1.391 . S
C944 C948 1.376 . S
C945 C943 1.394 . S
C945 C946 1.369 . S
C945 C949 1.531 . S
C946 C945 1.369 . S
C946 C947 1.410 . S
C946 C954 1.503 . S
C947 C946 1.410 . S
C947 C948 1.392 . S
C947 C950 1.511 . S
C948 C944 1.376 . S
C948 C947 1.392 . S
C948 H960 0.929 . S
C949 C945 1.531 . S
C949 H961 0.960 . S
C949 H962 0.962 . S
C949 H963 0.960 . S
C950 C947 1.511 . S
C950 H964 0.961 . S
C950 H965 0.961 . S
C950 H966 0.961 . S
C951 C952 1.370 . S
C951 C953 1.363 . S
C951 H967 0.931 . S
C952 C951 1.370 . S
C952 C956 1.408 . S
C953 C951 1.363 . S
C953 C954 1.370 . S
C953 C957 1.524 . S
C954 C946 1.503 . S
C954 C953 1.370 . S
C954 C955 1.403 . S
C955 C954 1.403 . S
C955 C956 1.404 . S
C955 C958 1.539 . S
C956 C952 1.408 . S
C956 C955 1.404 . S
C956 H968 0.930 . S
C957 C953 1.524 . S
C957 H969 0.956 . S
C957 H970 0.961 . S
C957 H971 0.961 . S
C958 C955 1.539 . S
C958 H972 0.958 . S
C958 H973 0.961 . S
C958 H974 0.960 . S
H959 C943 0.931 . S
H960 C948 0.929 . S
H961 C949 0.960 . S
H962 C949 0.962 . S
H963 C949 0.960 . S
H964 C950 0.961 . S
H965 C950 0.961 . S
H966 C950 0.961 . S
H967 C951 0.931 . S
H968 C956 0.930 . S
H969 C957 0.956 . S
H970 C957 0.961 . S
H971 C957 0.961 . S
H972 C958 0.958 . S
H973 C958 0.961 . S
H974 C958 0.960 . S
C975 C976 1.391 . S
C975 C977 1.394 . S
C975 H991 0.931 . S
C976 C975 1.391 . S
C976 C980 1.376 . S
C977 C975 1.394 . S
C977 C978 1.369 . S
C977 C981 1.531 . S
C978 C977 1.369 . S
C978 C979 1.410 . S
C978 C986 1.503 . S
C979 C978 1.410 . S
C979 C980 1.392 . S
C979 C982 1.511 . S
C980 C976 1.376 . S
C980 C979 1.392 . S
C980 H992 0.929 . S
C981 C977 1.531 . S
C981 H993 0.960 . S
C981 H994 0.962 . S
C981 H995 0.960 . S
C982 C979 1.511 . S
C982 H996 0.961 . S
C982 H997 0.961 . S
C982 H998 0.961 . S
C983 C984 1.370 . S
C983 C985 1.363 . S
C983 H999 0.931 . S
C984 C983 1.370 . S
C984 C988 1.408 . S
C985 C983 1.363 . S
C985 C986 1.370 . S
C985 C989 1.524 . S
C986 C978 1.503 . S
C986 C985 1.370 . S
C986 C987 1.403 . S
C987 C986 1.403 . S
C987 C988 1.404 . S
C987 C990 1.539 . S
C988 C984 1.408 . S
C988 C987 1.404 . S
C988 H1000 0.930 . S
C989 C985 1.524 . S
C989 H1001 0.956 . S
C989 H1002 0.961 . S
C989 H1003 0.961 . S
C990 C987 1.539 . S
C990 H1004 0.958 . S
C990 H1005 0.961 . S
C990 H1006 0.960 . S
H991 C975 0.931 . S
H992 C980 0.929 . S
H993 C981 0.960 . S
H994 C981 0.962 . S
H995 C981 0.960 . S
H996 C982 0.961 . S
H997 C982 0.961 . S
H998 C982 0.961 . S
H999 C983 0.931 . S
H1000 C988 0.930 . S
H1001 C989 0.956 . S
H1002 C989 0.961 . S
H1003 C989 0.961 . S
H1004 C990 0.958 . S
H1005 C990 0.961 . S
H1006 C990 0.960 . S
C1007 C1008 1.391 . S
C1007 C1009 1.394 . S
C1007 H1023 0.931 . S
C1008 C1007 1.391 . S
C1008 C1012 1.376 1_565 S
C1009 C1007 1.394 . S
C1009 C1010 1.369 1_565 S
C1009 C1013 1.531 . S
C1010 C1009 1.369 1_545 S
C1010 C1011 1.410 . S
C1010 C1018 1.503 . S
C1011 C1010 1.410 . S
C1011 C1012 1.392 . S
C1011 C1014 1.511 . S
C1012 C1008 1.376 1_545 S
C1012 C1011 1.392 . S
C1012 H1024 0.929 . S
C1013 C1009 1.531 . S
C1013 H1025 0.960 . S
C1013 H1026 0.962 1_565 S
C1013 H1027 0.960 . S
C1014 C1011 1.511 . S
C1014 H1028 0.961 . S
C1014 H1029 0.961 . S
C1014 H1030 0.961 . S
C1015 C1016 1.370 . S
C1015 C1017 1.363 . S
C1015 H1031 0.931 . S
C1016 C1015 1.370 . S
C1016 C1020 1.408 . S
C1017 C1015 1.363 . S
C1017 C1018 1.370 . S
C1017 C1021 1.524 . S
C1018 C1010 1.503 . S
C1018 C1017 1.370 . S
C1018 C1019 1.403 . S
C1019 C1018 1.403 . S
C1019 C1020 1.404 . S
C1019 C1022 1.539 1_545 S
C1020 C1016 1.408 . S
C1020 C1019 1.404 . S
C1020 H1032 0.930 . S
C1021 C1017 1.524 . S
C1021 H1033 0.956 . S
C1021 H1034 0.961 . S
C1021 H1035 0.961 . S
C1022 C1019 1.539 1_565 S
C1022 H1036 0.958 . S
C1022 H1037 0.961 . S
C1022 H1038 0.960 . S
H1023 C1007 0.931 . S
H1024 C1012 0.929 . S
H1025 C1013 0.960 . S
H1026 C1013 0.962 1_545 S
H1027 C1013 0.960 . S
H1028 C1014 0.961 . S
H1029 C1014 0.961 . S
H1030 C1014 0.961 . S
H1031 C1015 0.931 . S
H1032 C1020 0.930 . S
H1033 C1021 0.956 . S
H1034 C1021 0.961 . S
H1035 C1021 0.961 . S
H1036 C1022 0.958 . S
H1037 C1022 0.961 . S
H1038 C1022 0.960 . S
C1039 C1040 1.391 . S
C1039 C1041 1.394 1_655 S
C1039 H1055 0.931 1_655 S
C1040 C1039 1.391 . S
C1040 C1044 1.376 . S
C1041 C1039 1.394 1_455 S
C1041 C1042 1.367 1_455 S
C1041 C1045 1.531 . S
C1042 C1041 1.367 1_655 S
C1042 C1043 1.419 . S
C1042 C1050 1.497 1_655 S
C1043 C1042 1.419 . S
C1043 C1044 1.392 . S
C1043 C1046 1.511 . S
C1044 C1040 1.376 . S
C1044 C1043 1.392 . S
C1044 H1056 0.929 . S
C1045 C1041 1.531 . S
C1045 H1057 0.960 . S
C1045 H1058 0.962 . S
C1045 H1059 0.960 . S
C1046 C1043 1.511 . S
C1046 H1060 0.961 . S
C1046 H1061 0.961 . S
C1046 H1062 0.961 . S
C1047 C1048 1.370 . S
C1047 C1049 1.363 . S
C1047 H1063 0.931 . S
C1048 C1047 1.370 . S
C1048 C1052 1.408 . S
C1049 C1047 1.363 . S
C1049 C1050 1.370 . S
C1049 C1053 1.524 1_455 S
C1050 C1042 1.497 1_455 S
C1050 C1049 1.370 . S
C1050 C1051 1.403 . S
C1051 C1050 1.403 . S
C1051 C1052 1.404 . S
C1051 C1054 1.539 . S
C1052 C1048 1.408 . S
C1052 C1051 1.404 . S
C1052 H1064 0.930 . S
C1053 C1049 1.524 1_655 S
C1053 H1065 0.956 . S
C1053 H1066 0.961 . S
C1053 H1067 0.961 . S
C1054 C1051 1.539 . S
C1054 H1068 0.958 . S
C1054 H1069 0.961 . S
C1054 H1070 0.960 . S
H1055 C1039 0.931 1_455 S
H1056 C1044 0.929 . S
H1057 C1045 0.960 . S
H1058 C1045 0.962 . S
H1059 C1045 0.960 . S
H1060 C1046 0.961 . S
H1061 C1046 0.961 . S
H1062 C1046 0.961 . S
H1063 C1047 0.931 . S
H1064 C1052 0.930 . S
H1065 C1053 0.956 . S
H1066 C1053 0.961 . S
H1067 C1053 0.961 . S
H1068 C1054 0.958 . S
H1069 C1054 0.961 . S
H1070 C1054 0.960 . S
C208 C44 1.094 . S
C216 C17 1.058 . S
C240 C62 1.316 . S
C248 C40 1.239 . S
C272 C64 1.137 1_554 S
C280 C21 1.133 . S
C304 C63 1.106 . S
C312 C39 1.130 . S
C336 C67 0.717 . S
C344 C18 0.716 . S
C368 C16 1.148 . S
C376 C41 1.140 . S
C400 C86 1.163 . S
C408 C113 1.177 . S
C432 C136 1.314 . S
C440 C109 1.270 . S
C464 C132 0.942 . S
C472 C90 1.001 . S
C496 C108 1.094 . S
C504 C133 1.086 . S
C528 C131 0.785 . S
C536 C87 0.811 . S
C560 C110 0.944 . S
C568 C85 0.922 . S
C592 C182 0.977 . S
C600 C155 0.941 . S
C624 C178 1.352 . S
C632 C200 1.382 . S
C656 C202 1.006 . S
C664 C159 0.992 . S
C688 C201 0.892 . S
C696 C177 0.983 . S
C720 C205 0.761 . S
C728 C156 0.789 . S
C752 C154 1.046 . S
C760 C179 1.017 . S
C784 C134 1.545 . S
C792 C20 1.627 . S
C816 C88 1.725 . S
C824 C43 1.856 . S
C848 C65 1.629 . S
C856 C111 1.619 . S
C880 C66 1.576 . S
C888 C158 1.580 . S
C912 C19 1.620 . S
C920 C181 1.730 . S
C944 C203 1.754 . S
C952 C42 1.756 . S
C976 C89 1.720 . S
C984 C204 1.724 . S
C1008 C112 1.595 . S
C1016 C157 1.533 . S
C1040 C180 1.686 . S
C1048 C135 1.802 . S
