# Generated by pormake.
# Topology unp, (4)-cn, num edge types: 1
# Building blocks:
#     Node 0, Type 0, BuildingBlock: CEKHIL_clean_sbu_0, # of connection points: 4
#     Node 1, Type 0, BuildingBlock: CEKHIL_clean_sbu_0, # of connection points: 4
#     Node 2, Type 0, BuildingBlock: CEKHIL_clean_sbu_0, # of connection points: 4
#     Node 3, Type 0, BuildingBlock: CEKHIL_clean_sbu_0, # of connection points: 4
#     Node 4, Type 0, BuildingBlock: CEKHIL_clean_sbu_0, # of connection points: 4
#     Node 5, Type 0, BuildingBlock: CEKHIL_clean_sbu_0, # of connection points: 4
#     Node 6, Type 0, BuildingBlock: CEKHIL_clean_sbu_0, # of connection points: 4
#     Node 7, Type 0, BuildingBlock: CEKHIL_clean_sbu_0, # of connection points: 4
#     Node 8, Type 0, BuildingBlock: CEKHIL_clean_sbu_0, # of connection points: 4
#     Node 9, Type 0, BuildingBlock: CEKHIL_clean_sbu_0, # of connection points: 4
#     Node 10, Type 0, BuildingBlock: CEKHIL_clean_sbu_0, # of connection points: 4
#     Node 11, Type 0, BuildingBlock: CEKHIL_clean_sbu_0, # of connection points: 4
#     Node 12, Type 0, BuildingBlock: CEKHIL_clean_sbu_0, # of connection points: 4
#     Node 13, Type 0, BuildingBlock: CEKHIL_clean_sbu_0, # of connection points: 4
#     Node 14, Type 0, BuildingBlock: CEKHIL_clean_sbu_0, # of connection points: 4
#     Node 15, Type 0, BuildingBlock: CEKHIL_clean_sbu_0, # of connection points: 4
#     Node 16, Type 0, BuildingBlock: CEKHIL_clean_sbu_0, # of connection points: 4
#     Node 17, Type 0, BuildingBlock: CEKHIL_clean_sbu_0, # of connection points: 4
#     Edge 18, Type (0, 0), BuildingBlock: AJUNOK_clean_linker_0, # of connection points: 2
#     Edge 19, Type (0, 0), BuildingBlock: AJUNOK_clean_linker_0, # of connection points: 2
#     Edge 20, Type (0, 0), BuildingBlock: AJUNOK_clean_linker_0, # of connection points: 2
#     Edge 21, Type (0, 0), BuildingBlock: AJUNOK_clean_linker_0, # of connection points: 2
#     Edge 22, Type (0, 0), BuildingBlock: AJUNOK_clean_linker_0, # of connection points: 2
#     Edge 23, Type (0, 0), BuildingBlock: AJUNOK_clean_linker_0, # of connection points: 2
#     Edge 24, Type (0, 0), BuildingBlock: AJUNOK_clean_linker_0, # of connection points: 2
#     Edge 25, Type (0, 0), BuildingBlock: AJUNOK_clean_linker_0, # of connection points: 2
#     Edge 26, Type (0, 0), BuildingBlock: AJUNOK_clean_linker_0, # of connection points: 2
#     Edge 27, Type (0, 0), BuildingBlock: AJUNOK_clean_linker_0, # of connection points: 2
#     Edge 28, Type (0, 0), BuildingBlock: AJUNOK_clean_linker_0, # of connection points: 2
#     Edge 29, Type (0, 0), BuildingBlock: AJUNOK_clean_linker_0, # of connection points: 2
#     Edge 30, Type (0, 0), BuildingBlock: AJUNOK_clean_linker_0, # of connection points: 2
#     Edge 31, Type (0, 0), BuildingBlock: AJUNOK_clean_linker_0, # of connection points: 2
#     Edge 32, Type (0, 0), BuildingBlock: AJUNOK_clean_linker_0, # of connection points: 2
#     Edge 33, Type (0, 0), BuildingBlock: AJUNOK_clean_linker_0, # of connection points: 2
#     Edge 34, Type (0, 0), BuildingBlock: AJUNOK_clean_linker_0, # of connection points: 2
#     Edge 35, Type (0, 0), BuildingBlock: AJUNOK_clean_linker_0, # of connection points: 2
#     Edge 36, Type (0, 0), BuildingBlock: AJUNOK_clean_linker_0, # of connection points: 2
#     Edge 37, Type (0, 0), BuildingBlock: AJUNOK_clean_linker_0, # of connection points: 2
#     Edge 38, Type (0, 0), BuildingBlock: AJUNOK_clean_linker_0, # of connection points: 2
#     Edge 39, Type (0, 0), BuildingBlock: AJUNOK_clean_linker_0, # of connection points: 2
#     Edge 40, Type (0, 0), BuildingBlock: AJUNOK_clean_linker_0, # of connection points: 2
#     Edge 41, Type (0, 0), BuildingBlock: AJUNOK_clean_linker_0, # of connection points: 2
#     Edge 42, Type (0, 0), BuildingBlock: AJUNOK_clean_linker_0, # of connection points: 2
#     Edge 43, Type (0, 0), BuildingBlock: AJUNOK_clean_linker_0, # of connection points: 2
#     Edge 44, Type (0, 0), BuildingBlock: AJUNOK_clean_linker_0, # of connection points: 2
#     Edge 45, Type (0, 0), BuildingBlock: AJUNOK_clean_linker_0, # of connection points: 2
#     Edge 46, Type (0, 0), BuildingBlock: AJUNOK_clean_linker_0, # of connection points: 2
#     Edge 47, Type (0, 0), BuildingBlock: AJUNOK_clean_linker_0, # of connection points: 2
#     Edge 48, Type (0, 0), BuildingBlock: AJUNOK_clean_linker_0, # of connection points: 2
#     Edge 49, Type (0, 0), BuildingBlock: AJUNOK_clean_linker_0, # of connection points: 2
#     Edge 50, Type (0, 0), BuildingBlock: AJUNOK_clean_linker_0, # of connection points: 2
#     Edge 51, Type (0, 0), BuildingBlock: AJUNOK_clean_linker_0, # of connection points: 2
#     Edge 52, Type (0, 0), BuildingBlock: AJUNOK_clean_linker_0, # of connection points: 2
#     Edge 53, Type (0, 0), BuildingBlock: AJUNOK_clean_linker_0, # of connection points: 2
# Relax obj value: 0.420
# Max RMSD: 0.188
# Mean RMSD: 0.188
data_MOF--net-unp--node1-CEKHIL_clean_sbu_0--edge1-AJUNOK_clean_linker_0
_symmetry_space_group_name_H-M    P1
_symmetry_Int_Tables_number       1
_symmetry_cell_setting            triclinic
loop_
_symmetry_equiv_pos_as_xyz
'x, y, z'
_cell_length_a     35.924343
_cell_length_b     35.88427
_cell_length_c     39.745743
_cell_angle_alpha  90.015847
_cell_angle_beta   89.979449
_cell_angle_gamma 119.87775
loop_
_atom_site_label
_atom_site_type_symbol
_atom_site_fract_x
_atom_site_fract_y
_atom_site_fract_z
_atom_type_partial_charge
Co0 Co 0.18324 0.12354 0.15216 0.0
O1 O 0.23803 0.13816 0.16971 0.0
O2 O 0.21038 0.18148 0.17033 0.0
C3 C 0.14701 0.05728 0.17435 0.0
O4 O 0.1253 0.11607 0.13729 0.0
Co5 Co 0.1436 0.04699 0.10175 0.0
O6 O 0.09261 0.05422 0.10764 0.0
C7 C 0.2139 0.12993 0.0797 0.0
C8 C 0.2421 0.17497 0.17756 0.0
C9 C 0.09242 0.0861 0.12177 0.0
O10 O 0.20935 0.14748 0.10648 0.0
O11 O 0.19503 0.08917 0.07566 0.0
O12 O 0.15453 0.09032 0.19273 0.0
O13 O 0.16679 0.06634 0.14598 0.0
Co14 Co 0.84482 0.01521 0.11279 0.0
O15 O 0.83665 0.06232 0.10001 0.0
O16 O 0.79825 0.01304 0.13825 0.0
C17 C 0.91779 0.05432 0.11604 0.0
O18 O 0.84334 0.96284 0.13407 0.0
Co19 Co 0.89854 0.98519 0.07128 0.0
O20 O 0.89907 0.95769 0.11434 0.0
C21 C 0.81115 0.96367 0.04886 0.0
C22 C 0.80534 0.04713 0.12167 0.0
C23 C 0.86902 0.94774 0.13555 0.0
O24 O 0.80394 0.97874 0.07595 0.0
O25 O 0.84692 0.96567 0.04203 0.0
O26 O 0.8945 0.05383 0.14134 0.0
O27 O 0.89639 0.03365 0.08992 0.0
Co28 Co 0.94236 0.8071 0.13415 0.0
O29 O 0.90884 0.74661 0.12731 0.0
O30 O 0.97449 0.78067 0.14951 0.0
C31 C 0.88926 0.81525 0.15685 0.0
O32 O 0.98643 0.86806 0.14607 0.0
Co33 Co 0.9204 0.8715 0.09994 0.0
O34 O 0.96427 0.91423 0.13127 0.0
C35 C 0.95575 0.82649 0.0603 0.0
C36 C 0.94104 0.74485 0.14045 0.0
C37 C 0.99034 0.90554 0.14634 0.0
O38 O 0.96646 0.81443 0.08732 0.0
O39 O 0.93348 0.84539 0.06015 0.0
O40 O 0.91101 0.80339 0.17582 0.0
O41 O 0.89844 0.81877 0.1253 0.0
Co42 Co 0.15144 0.17287 0.89094 0.0
O43 O 0.1579 0.22742 0.90396 0.0
O44 O 0.19701 0.218 0.86533 0.0
C45 C 0.07843 0.137 0.88795 0.0
O46 O 0.15417 0.12284 0.86912 0.0
Co47 Co 0.10073 0.08937 0.93316 0.0
O48 O 0.10086 0.06133 0.89031 0.0
C49 C 0.18717 0.15734 0.95484 0.0
C50 C 0.18895 0.24424 0.8821 0.0
C51 C 0.12963 0.08188 0.86829 0.0
O52 O 0.19347 0.17859 0.92732 0.0
O53 O 0.15197 0.12337 0.96228 0.0
O54 O 0.10117 0.16055 0.86276 0.0
O55 O 0.10028 0.13851 0.91405 0.0
Co56 Co 0.81313 0.9441 0.84912 0.0
O57 O 0.75782 0.90682 0.83101 0.0
O58 O 0.78723 0.97782 0.83489 0.0
C59 C 0.84795 0.91515 0.82262 0.0
O60 O 0.87167 0.99201 0.86522 0.0
Co61 Co 0.85224 0.90134 0.89414 0.0
O62 O 0.90396 0.95934 0.89061 0.0
C63 C 0.78392 0.91427 0.92119 0.0
C64 C 0.75491 0.94087 0.82593 0.0
C65 C 0.90452 0.99291 0.8792 0.0
O66 O 0.78788 0.93821 0.89576 0.0
O67 O 0.80239 0.89167 0.92266 0.0
O68 O 0.84085 0.94278 0.80689 0.0
O69 O 0.82844 0.90197 0.85097 0.0
Co70 Co 0.05161 0.86711 0.8586 0.0
O71 O 0.08488 0.83977 0.8652 0.0
O72 O 0.02042 0.80966 0.84096 0.0
C73 C 0.10573 0.92958 0.83871 0.0
O74 O 0.00808 0.88476 0.84654 0.0
Co75 Co 0.07166 0.95108 0.89594 0.0
O76 O 0.02895 0.95174 0.8643 0.0
C77 C 0.03401 0.86832 0.93229 0.0
C78 C 0.05339 0.80669 0.8506 0.0
C79 C 0.00385 0.91814 0.84758 0.0
O80 O 0.02507 0.84737 0.90442 0.0
O81 O 0.05631 0.90935 0.93418 0.0
O82 O 0.08505 0.8973 0.81835 0.0
O83 O 0.09493 0.92197 0.86989 0.0
Co84 Co 0.84585 0.46455 0.4704 0.0
O85 O 0.90646 0.49483 0.46485 0.0
O86 O 0.86874 0.52007 0.49123 0.0
C87 C 0.84096 0.4021 0.48663 0.0
O88 O 0.7837 0.44277 0.4818 0.0
Co89 Co 0.78642 0.38257 0.42921 0.0
O90 O 0.74118 0.37637 0.46148 0.0
C91 C 0.82891 0.46838 0.39699 0.0
C92 C 0.90565 0.52561 0.4814 0.0
C93 C 0.74718 0.40831 0.47948 0.0
O94 O 0.83904 0.4872 0.42581 0.0
O95 O 0.8122 0.42771 0.39316 0.0
O96 O 0.8501 0.43212 0.50878 0.0
O97 O 0.83789 0.41197 0.45603 0.0
Co98 Co 0.52957 0.3811 0.4755 0.0
O99 O 0.51283 0.41921 0.49413 0.0
O100 O 0.46935 0.34881 0.48814 0.0
C101 C 0.59189 0.40677 0.50355 0.0
O102 O 0.53862 0.33239 0.45856 0.0
Co103 Co 0.61316 0.42314 0.43261 0.0
O104 O 0.60438 0.36397 0.43479 0.0
C105 C 0.53476 0.41591 0.40461 0.0
C106 C 0.47509 0.38599 0.49791 0.0
C107 C 0.57037 0.33065 0.44507 0.0
O108 O 0.51304 0.39037 0.42879 0.0
O109 O 0.5758 0.43727 0.40446 0.0
O110 O 0.55628 0.37911 0.51814 0.0
O111 O 0.58736 0.42158 0.47535 0.0
Co112 Co 0.64115 0.15286 0.44669 0.0
O113 O 0.59349 0.09715 0.4368 0.0
O114 O 0.64245 0.111 0.47613 0.0
C115 C 0.60334 0.18836 0.4454 0.0
O116 O 0.69416 0.20529 0.46546 0.0
Co117 Co 0.67138 0.22993 0.39721 0.0
O118 O 0.70681 0.26377 0.43578 0.0
C119 C 0.68804 0.15877 0.38233 0.0
C120 C 0.6082 0.08288 0.46038 0.0
C121 C 0.71423 0.24607 0.46064 0.0
O122 O 0.67687 0.14307 0.41212 0.0
O123 O 0.68451 0.19033 0.37124 0.0
O124 O 0.60346 0.16805 0.47252 0.0
O125 O 0.62322 0.18397 0.42018 0.0
Co126 Co 0.79431 0.51859 0.19486 0.0
O127 O 0.8224 0.5797 0.19459 0.0
O128 O 0.85235 0.5407 0.17949 0.0
C129 C 0.73299 0.50632 0.16962 0.0
O130 O 0.77574 0.4558 0.19073 0.0
Co131 Co 0.70901 0.46319 0.23343 0.0
O132 O 0.70868 0.41392 0.20988 0.0
C133 C 0.79045 0.51126 0.27066 0.0
C134 C 0.85563 0.57811 0.18356 0.0
C135 C 0.74247 0.41885 0.19532 0.0
O136 O 0.81193 0.51912 0.24311 0.0
O137 O 0.74949 0.49361 0.27162 0.0
O138 O 0.76657 0.51521 0.15151 0.0
O139 O 0.73918 0.50955 0.20168 0.0
Co140 Co 0.49075 0.30592 0.21773 0.0
O141 O 0.43538 0.26221 0.23324 0.0
O142 O 0.44647 0.30808 0.19196 0.0
C143 C 0.52083 0.26322 0.21757 0.0
O144 O 0.54202 0.35474 0.19377 0.0
Co145 Co 0.57595 0.33629 0.25662 0.0
O146 O 0.60148 0.35542 0.21124 0.0
C147 C 0.51441 0.36487 0.27757 0.0
C148 C 0.41937 0.27653 0.21073 0.0
C149 C 0.58182 0.36618 0.19022 0.0
O150 O 0.48994 0.34699 0.25202 0.0
O151 O 0.548 0.36236 0.28413 0.0
O152 O 0.49811 0.26288 0.1919 0.0
O153 O 0.52284 0.28746 0.24211 0.0
Co154 Co 0.71839 0.19613 0.18959 0.0
O155 O 0.76154 0.18588 0.17152 0.0
O156 O 0.69145 0.13975 0.16876 0.0
C157 C 0.74556 0.26354 0.17051 0.0
O158 O 0.66518 0.19881 0.20423 0.0
Co159 Co 0.74812 0.26798 0.24371 0.0
O160 O 0.68859 0.2571 0.2377 0.0
C161 C 0.74206 0.1863 0.26125 0.0
C162 C 0.73061 0.14885 0.16197 0.0
C163 C 0.65889 0.22578 0.22129 0.0
O164 O 0.72062 0.16974 0.23408 0.0
O165 O 0.76165 0.22675 0.26697 0.0
O166 O 0.72214 0.23144 0.15066 0.0
O167 O 0.75598 0.25353 0.19863 0.0
Co168 Co 0.50776 0.81847 0.78847 0.0
O169 O 0.56348 0.83153 0.77266 0.0
O170 O 0.55134 0.868 0.81198 0.0
C171 C 0.48208 0.74638 0.79146 0.0
O172 O 0.45606 0.81602 0.81192 0.0
Co173 Co 0.42117 0.75603 0.75407 0.0
O174 O 0.39726 0.75412 0.79948 0.0
C175 C 0.47884 0.84392 0.7263 0.0
C176 C 0.57883 0.86365 0.79356 0.0
C177 C 0.41665 0.78786 0.81737 0.0
O178 O 0.50464 0.85549 0.75159 0.0
O179 O 0.44642 0.80618 0.72251 0.0
O180 O 0.50392 0.77082 0.81663 0.0
O181 O 0.4772 0.76618 0.76653 0.0
Co182 Co 0.2013 0.72577 0.79984 0.0
O183 O 0.17349 0.75909 0.79739 0.0
O184 O 0.14327 0.69141 0.8156 0.0
C185 C 0.26282 0.77667 0.82373 0.0
O186 O 0.21936 0.68142 0.80698 0.0
Co187 Co 0.28669 0.75234 0.76228 0.0
O188 O 0.28761 0.70686 0.79054 0.0
C189 C 0.20532 0.7184 0.72462 0.0
C190 C 0.14013 0.72523 0.80935 0.0
C191 C 0.2535 0.67866 0.80513 0.0
O192 O 0.18363 0.70577 0.75214 0.0
O193 O 0.24633 0.74117 0.72372 0.0
O194 O 0.22943 0.75331 0.84244 0.0
O195 O 0.25641 0.77098 0.79181 0.0
Co196 Co 0.2809 0.48324 0.81585 0.0
O197 O 0.23506 0.4288 0.82976 0.0
O198 O 0.30416 0.45103 0.83791 0.0
C199 C 0.25168 0.52248 0.83378 0.0
O200 O 0.33644 0.53923 0.80578 0.0
Co201 Co 0.25826 0.53137 0.76132 0.0
O202 O 0.31822 0.57704 0.77074 0.0
C203 C 0.26611 0.45739 0.74218 0.0
C204 C 0.26416 0.42112 0.84149 0.0
C205 C 0.34572 0.57325 0.78864 0.0
O206 O 0.28417 0.45901 0.77057 0.0
O207 O 0.24628 0.47807 0.73657 0.0
O208 O 0.2724 0.51188 0.85501 0.0
O209 O 0.24519 0.50467 0.80477 0.0
Co210 Co 0.45144 0.84537 0.52228 0.0
O211 O 0.46677 0.90263 0.51068 0.0
O212 O 0.5109 0.876 0.50779 0.0
C213 C 0.3884 0.81483 0.49474 0.0
O214 O 0.44414 0.78577 0.53075 0.0
Co215 Co 0.36866 0.7916 0.56461 0.0
O216 O 0.37566 0.74332 0.54756 0.0
C217 C 0.44655 0.86066 0.59674 0.0
C218 C 0.50421 0.90814 0.50317 0.0
C219 C 0.41141 0.74847 0.53685 0.0
O220 O 0.46901 0.86327 0.57063 0.0
O221 O 0.4056 0.83726 0.59771 0.0
O222 O 0.4234 0.82466 0.47831 0.0
O223 O 0.39368 0.82724 0.5256 0.0
Co224 Co 0.13907 0.61219 0.52616 0.0
O225 O 0.07929 0.57796 0.53605 0.0
O226 O 0.10966 0.63966 0.50762 0.0
C227 C 0.14892 0.55756 0.50954 0.0
O228 O 0.19792 0.65618 0.51001 0.0
Co229 Co 0.20959 0.60078 0.56174 0.0
O230 O 0.24812 0.64018 0.52604 0.0
C231 C 0.164 0.63849 0.59779 0.0
C232 C 0.07528 0.60731 0.51994 0.0
C233 C 0.23606 0.66211 0.50867 0.0
O234 O 0.14845 0.64351 0.57013 0.0
O235 O 0.1851 0.61847 0.59992 0.0
O236 O 0.13429 0.57467 0.48822 0.0
O237 O 0.15434 0.57211 0.53975 0.0
Co238 Co 0.35431 0.51116 0.54415 0.0
O239 O 0.4004 0.49994 0.5516 0.0
O240 O 0.34222 0.45874 0.52136 0.0
C241 C 0.39617 0.58221 0.53253 0.0
O242 O 0.30056 0.51248 0.52976 0.0
Co243 Co 0.34319 0.57602 0.589 0.0
O244 O 0.29999 0.56862 0.55451 0.0
C245 C 0.32617 0.49229 0.61613 0.0
C246 C 0.37853 0.46539 0.53374 0.0
C247 C 0.28525 0.53784 0.53336 0.0
O248 O 0.32542 0.47797 0.58635 0.0
O249 O 0.33677 0.53133 0.62244 0.0
O250 O 0.38699 0.55375 0.50895 0.0
O251 O 0.38245 0.56675 0.56201 0.0
C252 C 0.34508 0.2194 0.22477 0.0
C253 C 0.37239 0.25634 0.20605 0.0
C254 C 0.3013 0.19538 0.21752 0.0
C255 C 0.28304 0.20779 0.19177 0.0
H256 H 0.35788 0.2074 0.24391 0.0
H257 H 0.28204 0.16532 0.23077 0.0
S258 S 0.33887 0.30473 0.1383 0.0
N259 N 0.37693 0.30665 0.16281 0.0
N260 N 0.29409 0.26109 0.14952 0.0
C261 C 0.30895 0.24643 0.17472 0.0
C262 C 0.35386 0.27084 0.18179 0.0
C263 C 0.79474 0.11006 0.11434 0.0
C264 C 0.78041 0.06906 0.12812 0.0
C265 C 0.77584 0.13443 0.12356 0.0
C266 C 0.7414 0.11841 0.14632 0.0
H267 H 0.82221 0.12451 0.09763 0.0
H268 H 0.78963 0.16694 0.11399 0.0
S269 S 0.68844 0.01122 0.18668 0.0
N270 N 0.72707 0.01198 0.1636 0.0
N271 N 0.69133 0.05812 0.18051 0.0
C272 C 0.7246 0.0764 0.15844 0.0
C273 C 0.74423 0.05162 0.14946 0.0
C274 C 0.89459 0.62665 0.13725 0.0
C275 C 0.89268 0.61734 0.17166 0.0
C276 C 0.91568 0.66925 0.12618 0.0
C277 C 0.93604 0.70315 0.14926 0.0
H278 H 0.87539 0.60145 0.11941 0.0
H279 H 0.91242 0.67579 0.10006 0.0
S280 S 0.94728 0.6942 0.24102 0.0
N281 N 0.91761 0.64406 0.22799 0.0
N282 N 0.95915 0.72449 0.20699 0.0
C283 C 0.93939 0.6938 0.18301 0.0
C284 C 0.91699 0.65051 0.19435 0.0
C285 C 0.21202 0.35864 0.87481 0.0
C286 C 0.25079 0.37898 0.85673 0.0
C287 C 0.19342 0.31555 0.88435 0.0
C288 C 0.21244 0.29094 0.87549 0.0
H289 H 0.19513 0.37581 0.88066 0.0
H290 H 0.16284 0.30098 0.89733 0.0
S291 S 0.31607 0.33029 0.83064 0.0
N292 N 0.30937 0.37257 0.83245 0.0
N293 N 0.27403 0.29094 0.84982 0.0
C294 C 0.25233 0.31144 0.85876 0.0
C295 C 0.27167 0.35571 0.84957 0.0
C296 C 0.68593 0.93922 0.83391 0.0
C297 C 0.71474 0.93544 0.81228 0.0
C298 C 0.64188 0.91815 0.82653 0.0
C299 C 0.62558 0.8925 0.79748 0.0
H300 H 0.69684 0.95515 0.85801 0.0
H301 H 0.62029 0.91948 0.8449 0.0
S302 S 0.68985 0.87976 0.73005 0.0
N303 N 0.72542 0.90958 0.75885 0.0
N304 N 0.64289 0.87047 0.74452 0.0
C305 C 0.65488 0.89219 0.77417 0.0
C306 C 0.6995 0.91358 0.78174 0.0
C307 C 0.09811 0.73332 0.85417 0.0
C308 C 0.10296 0.72829 0.81976 0.0
C309 C 0.07666 0.75472 0.86478 0.0
C310 C 0.05875 0.77039 0.84119 0.0
H311 H 0.1153 0.72546 0.87266 0.0
H312 H 0.07766 0.76265 0.8912 0.0
S313 S 0.05548 0.75682 0.74875 0.0
N314 N 0.08336 0.73466 0.76255 0.0
N315 N 0.04104 0.77326 0.7826 0.0
C316 C 0.05831 0.76014 0.80711 0.0
C317 C 0.08116 0.73945 0.79628 0.0
C318 C 0.95683 0.56104 0.52693 0.0
C319 C 0.94589 0.56139 0.49313 0.0
C320 C -0.00013 0.58013 0.53649 0.0
C321 C 0.03266 0.60087 0.51259 0.0
H322 H 0.93232 0.54156 0.54516 0.0
H323 H 0.00746 0.57555 0.56201 0.0
S324 S 0.01961 0.618 0.42247 0.0
N325 N 0.97011 0.58892 0.43687 0.0
N326 N 0.05145 0.6269 0.45511 0.0
C327 C 0.02193 0.60644 0.47975 0.0
C328 C 0.97815 0.58602 0.46989 0.0
C329 C 0.42805 0.4388 0.54893 0.0
C330 C 0.39531 0.43587 0.52782 0.0
C331 C 0.45062 0.41769 0.54094 0.0
C332 C 0.4411 0.39265 0.51172 0.0
H333 H 0.43802 0.4595 0.57086 0.0
H334 H 0.4779 0.42362 0.5564 0.0
S335 S 0.35487 0.36987 0.45038 0.0
N336 N 0.35131 0.40208 0.47831 0.0
N337 N 0.39443 0.36244 0.46327 0.0
C338 C 0.40605 0.38616 0.49197 0.0
C339 C 0.38291 0.40782 0.50005 0.0
C340 C 0.54797 0.00851 0.45205 0.0
C341 C 0.58604 0.03674 0.46911 0.0
C342 C 0.52328 0.96568 0.46193 0.0
C343 C 0.53609 0.94929 0.48877 0.0
H344 H 0.53603 0.01985 0.43178 0.0
H345 H 0.49292 0.94563 0.44935 0.0
S346 S 0.63454 0.00816 0.53999 0.0
N347 N 0.63682 0.04424 0.51297 0.0
N348 N 0.58994 0.96299 0.53115 0.0
C349 C 0.57517 0.97607 0.50483 0.0
C350 C 0.6003 0.02007 0.49506 0.0
C351 C 0.02577 0.06886 0.09116 0.0
C352 C 0.05155 0.08687 0.11975 0.0
C353 C 0.98365 0.06089 0.09001 0.0
C354 C 0.96463 0.06952 0.1177 0.0
H355 H 0.03784 0.05955 0.06966 0.0
H356 H 0.96547 0.04623 0.06734 0.0
S357 S 0.02062 0.12365 0.19661 0.0
N358 N 0.05727 0.11897 0.17479 0.0
N359 N 0.97675 0.10215 0.17319 0.0
C360 C 0.99082 0.09026 0.14574 0.0
C361 C 0.03459 0.09944 0.14657 0.0
C362 C 0.88825 0.91262 0.18033 0.0
C363 C 0.85811 0.91016 0.15667 0.0
C364 C 0.89274 0.87664 0.18709 0.0
C365 C 0.86765 0.83799 0.16956 0.0
H366 H 0.91162 0.94357 0.19037 0.0
H367 H 0.92035 0.88129 0.20147 0.0
S368 S 0.77517 0.81217 0.11416 0.0
N369 N 0.79565 0.8637 0.12302 0.0
N370 N 0.8044 0.79623 0.13522 0.0
C371 C 0.8321 0.83324 0.15133 0.0
C372 C 0.82738 0.86963 0.14472 0.0
C373 C 0.1079 0.97978 0.16209 0.0
C374 C 0.10847 0.01488 0.17829 0.0
C375 C 0.06918 0.94315 0.15381 0.0
C376 C 0.02979 0.94078 0.16097 0.0
H377 H 0.13755 0.982 0.15341 0.0
H378 H 0.0702 0.91795 0.13951 0.0
S379 S 0.01376 0.01936 0.20997 0.0
N380 N 0.06644 0.04167 0.20664 0.0
N381 N 0.9934 0.97293 0.19004 0.0
C382 C 0.02985 0.97373 0.17996 0.0
C383 C 0.06937 0.01073 0.18912 0.0
C384 C 0.10356 0.99012 0.8121 0.0
C385 C 0.12822 0.97462 0.82779 0.0
C386 C 0.1087 0.0302 0.82135 0.0
C387 C 0.13944 0.05583 0.84545 0.0
H388 H 0.0757 0.96862 0.7973 0.0
H389 H 0.0853 0.03876 0.81292 0.0
S390 S 0.22138 0.03567 0.88395 0.0
N391 N 0.19137 0.99231 0.86119 0.0
N392 N 0.20174 0.06809 0.87779 0.0
C393 C 0.16966 0.04436 0.85569 0.0
C394 C 0.16408 0.00351 0.8467 0.0
C395 C 0.01427 0.07323 0.9117 0.0
C396 C 0.03206 0.10411 0.88589 0.0
C397 C 0.97244 0.03871 0.90975 0.0
C398 C 0.9457 0.03391 0.88241 0.0
H399 H 0.03307 0.07466 0.93341 0.0
H400 H 0.96125 0.01497 0.92971 0.0
S401 S 0.97348 0.10987 0.81103 0.0
N402 N 0.01794 0.13018 0.83367 0.0
N403 N 0.93791 0.06594 0.83088 0.0
C404 C 0.96153 0.06632 0.85767 0.0
C405 C 0.00503 0.10118 0.85916 0.0
C406 C 0.92546 0.87698 0.83783 0.0
C407 C 0.96487 0.91475 0.83265 0.0
C408 C 0.88681 0.87549 0.83019 0.0
C409 C 0.88637 0.91146 0.81671 0.0
H410 H 0.92428 0.84959 0.85036 0.0
H411 H 0.85707 0.84727 0.8376 0.0
S412 S 0.98144 0.01347 0.78994 0.0
N413 N 0.00163 0.98578 0.8076 0.0
N414 N 0.92871 0.98272 0.79224 0.0
C415 C 0.92561 0.94737 0.8074 0.0
C416 C 0.96504 0.94919 0.81589 0.0
C417 C 0.70838 0.44729 0.49323 0.0
C418 C 0.70986 0.40889 0.49422 0.0
C419 C 0.67057 0.44754 0.50088 0.0
C420 C 0.63337 0.40968 0.51059 0.0
H421 H 0.73545 0.47667 0.48384 0.0
H422 H 0.66939 0.47672 0.49638 0.0
S423 S 0.62465 0.30386 0.52611 0.0
N424 N 0.67333 0.33383 0.51057 0.0
N425 N 0.60301 0.33507 0.52771 0.0
C426 C 0.63616 0.3725 0.51603 0.0
C427 C 0.6742 0.3718 0.50686 0.0
C428 C 0.59553 0.28505 0.41776 0.0
C429 C 0.56999 0.28918 0.44257 0.0
C430 C 0.60403 0.25115 0.41825 0.0
C431 C 0.58847 0.22029 0.44414 0.0
H432 H 0.61043 0.30915 0.39823 0.0
H433 H 0.62446 0.25044 0.39864 0.0
S434 S 0.51337 0.21173 0.5117 0.0
N435 N 0.52336 0.25562 0.49084 0.0
N436 N 0.54129 0.19259 0.49271 0.0
C437 C 0.5602 0.222 0.46777 0.0
C438 C 0.55033 0.25614 0.46666 0.0
C439 C 0.82649 0.33071 0.47021 0.0
C440 C 0.82204 0.3563 0.49487 0.0
C441 C 0.79225 0.29004 0.46257 0.0
C442 C 0.75321 0.27369 0.47993 0.0
H443 H 0.85367 0.34475 0.45317 0.0
H444 H 0.79437 0.27402 0.44011 0.0
S445 S 0.73428 0.31923 0.5573 0.0
N446 N 0.78216 0.35663 0.54415 0.0
N447 N 0.71742 0.27923 0.52998 0.0
C448 C 0.75191 0.29492 0.50915 0.0
C449 C 0.78691 0.3366 0.51687 0.0
C450 C 0.70901 0.3062 0.16531 0.0
C451 C 0.74742 0.3051 0.16775 0.0
C452 C 0.70739 0.34302 0.17455 0.0
C453 C 0.74475 0.38075 0.18437 0.0
H454 H 0.67941 0.27743 0.1589 0.0
H455 H 0.67659 0.34161 0.17469 0.0
S456 S 0.85417 0.39498 0.1916 0.0
N457 N 0.82371 0.3446 0.1795 0.0
N458 N 0.82189 0.41527 0.19403 0.0
C459 C 0.78398 0.38079 0.18453 0.0
C460 C 0.78509 0.34269 0.17666 0.0
C461 C 0.65612 0.48089 0.17538 0.0
C462 C 0.68882 0.47878 0.15753 0.0
C463 C 0.61665 0.44379 0.18117 0.0
C464 C 0.60915 0.40377 0.16936 0.0
H465 H 0.66322 0.50985 0.18904 0.0
H466 H 0.59469 0.44554 0.19897 0.0
S467 S 0.67729 0.38495 0.10983 0.0
N468 N 0.70598 0.43657 0.11929 0.0
N469 N 0.63182 0.36626 0.13101 0.0
C470 C 0.63822 0.40283 0.14632 0.0
C471 C 0.67817 0.44083 0.1399 0.0
C472 C 0.57003 0.24549 0.24837 0.0
C473 C 0.54929 0.24416 0.21793 0.0
C474 C 0.60315 0.23585 0.24957 0.0
C475 C 0.61664 0.22365 0.22055 0.0
H476 H 0.56223 0.25627 0.2714 0.0
H477 H 0.61985 0.24012 0.27322 0.0
S478 S 0.56867 0.20847 0.13549 0.0
N479 N 0.54162 0.22525 0.15861 0.0
N480 N 0.6033 0.20552 0.16115 0.0
C481 C 0.59366 0.21818 0.1905 0.0
C482 C 0.56013 0.22886 0.18911 0.0
C483 C 0.33974 0.82639 0.81489 0.0
C484 C 0.30735 0.79613 0.836 0.0
C485 C 0.38 0.82939 0.81342 0.0
C486 C 0.38883 0.80218 0.83302 0.0
H487 H 0.33211 0.84347 0.79611 0.0
H488 H 0.40172 0.84839 0.79341 0.0
S489 S 0.32248 0.73351 0.90329 0.0
N490 N 0.29178 0.74966 0.88474 0.0
N491 N 0.36823 0.75584 0.88211 0.0
C492 C 0.3601 0.7786 0.8589 0.0
C493 C 0.31898 0.7756 0.8605 0.0
C494 C 0.21254 0.5611 0.8221 0.0
C495 C 0.2481 0.56129 0.837 0.0
C496 C 0.21385 0.5995 0.81343 0.0
C497 C 0.25141 0.63928 0.81819 0.0
H498 H 0.18449 0.53095 0.8152 0.0
H499 H 0.18626 0.59783 0.80093 0.0
S500 S 0.35069 0.65739 0.86043 0.0
N501 N 0.31944 0.60462 0.86055 0.0
N502 N 0.3233 0.67679 0.84124 0.0
C503 C 0.28623 0.63997 0.83462 0.0
C504 C 0.28414 0.60093 0.84497 0.0
C505 C 0.43699 0.6786 0.76094 0.0
C506 C 0.45686 0.69863 0.79146 0.0
C507 C 0.40387 0.63611 0.75994 0.0
C508 C 0.38956 0.6112 0.78926 0.0
H509 H 0.44476 0.69673 0.73769 0.0
H510 H 0.38726 0.62363 0.73627 0.0
S511 S 0.44118 0.64302 0.87322 0.0
N512 N 0.46689 0.6872 0.8503 0.0
N513 N 0.40536 0.60565 0.84802 0.0
C514 C 0.41368 0.62825 0.81893 0.0
C515 C 0.44716 0.6725 0.82018 0.0
C516 C 0.37975 0.67471 0.5135 0.0
C517 C 0.41385 0.70914 0.53046 0.0
C518 C 0.37779 0.63499 0.50994 0.0
C519 C 0.40806 0.6271 0.52563 0.0
H520 H 0.35325 0.67789 0.50434 0.0
H521 H 0.35032 0.60917 0.49745 0.0
S522 S 0.50388 0.70614 0.57315 0.0
N523 N 0.48034 0.73356 0.56132 0.0
N524 N 0.47394 0.65697 0.55816 0.0
C525 C 0.44293 0.66134 0.54216 0.0
C526 C 0.44638 0.70279 0.54391 0.0
C527 C 0.27274 0.74069 0.5059 0.0
C528 C 0.26902 0.70235 0.49363 0.0
C529 C 0.31045 0.77963 0.50111 0.0
C530 C 0.34553 0.7812 0.48415 0.0
H531 H 0.24827 0.7401 0.52224 0.0
H532 H 0.31394 0.80772 0.51419 0.0
S533 S 0.34402 0.6924 0.43536 0.0
N534 N 0.29742 0.66981 0.45535 0.0
N535 N 0.36931 0.74363 0.4465 0.0
C536 C 0.33926 0.74441 0.46676 0.0
C537 C 0.30066 0.70451 0.47176 0.0
C538 C 0.24786 0.55743 0.49015 0.0
C539 C 0.24605 0.52889 0.51519 0.0
C540 C 0.21126 0.56012 0.48187 0.0
C541 C 0.17278 0.53588 0.49976 0.0
H542 H 0.27838 0.58062 0.47931 0.0
H543 H 0.21509 0.58596 0.46552 0.0
S544 S 0.14946 0.44956 0.56132 0.0
N545 N 0.20084 0.46976 0.55223 0.0
N546 N 0.13262 0.47631 0.53794 0.0
C547 C 0.16917 0.50284 0.52084 0.0
C548 C 0.20601 0.49939 0.52865 0.0
C549 C 0.24351 0.13796 0.02207 0.0
C550 C 0.23206 0.15603 0.04884 0.0
C551 C 0.23738 0.14594 0.98862 0.0
C552 C 0.22012 0.17251 0.98114 0.0
H553 H 0.25112 0.11278 0.02693 0.0
H554 H 0.2397 0.12611 0.96908 0.0
S555 S 0.20105 0.23995 0.0412 0.0
N556 N 0.21512 0.21134 0.06508 0.0
N557 N 0.20363 0.22608 0.002 0.0
C558 C 0.21751 0.19755 0.00711 0.0
C559 C 0.22358 0.1894 0.04125 0.0
C560 C 0.75758 0.89004 0.97934 0.0
C561 C 0.76682 0.92032 0.95349 0.0
C562 C 0.76391 0.9027 0.01315 0.0
C563 C 0.77894 0.94573 0.02201 0.0
H564 H 0.75135 0.85797 0.97333 0.0
H565 H 0.76317 0.88029 0.03179 0.0
S566 S 0.79235 0.03317 0.9652 0.0
N567 N 0.77985 0.99203 0.93993 0.0
N568 N 0.79152 0.01545 0.0037 0.0
C569 C 0.77965 0.97382 0.99718 0.0
C570 C 0.7735 0.96112 0.96265 0.0
C571 C 0.03872 0.85566 0.9931 0.0
C572 C 0.01385 0.84552 0.96364 0.0
C573 C 0.01925 0.84469 0.02485 0.0
C574 C 0.97441 0.8244 0.02797 0.0
H575 H 0.0734 0.87466 0.99165 0.0
H576 H 0.03944 0.85575 0.04703 0.0
S577 S 0.89518 0.7867 0.95848 0.0
N578 N 0.9423 0.80983 0.93939 0.0
N579 N 0.90562 0.79062 -0.00077 0.0
C580 C 0.94922 0.81119 0.99868 0.0
C581 C 0.96902 0.82139 0.96637 0.0
C582 C 0.83931 0.49726 0.30553 0.0
C583 C 0.81213 0.51481 0.30293 0.0
C584 C 0.84836 0.48593 0.33695 0.0
C585 C 0.83153 0.49299 0.36666 0.0
H586 H 0.85 0.48811 0.28311 0.0
H587 H 0.86594 0.46866 0.33781 0.0
S588 S 0.76545 0.54543 0.3736 0.0
N589 N 0.77321 0.54394 0.33276 0.0
N590 N 0.79152 0.52389 0.39197 0.0
C591 C 0.80854 0.51504 0.36465 0.0
C592 C 0.79848 0.52567 0.33264 0.0
C593 C 0.47344 0.3583 0.32866 0.0
C594 C 0.5018 0.38523 0.30372 0.0
C595 C 0.47911 0.37158 0.3624 0.0
C596 C 0.51354 0.412 0.37178 0.0
H597 H 0.45117 0.32483 0.32304 0.0
H598 H 0.46064 0.34777 0.38137 0.0
S599 S 0.58525 0.49926 0.31365 0.0
N600 N 0.55697 0.45741 0.28897 0.0
N601 N 0.56708 0.48306 0.35218 0.0
C602 C 0.53587 0.4419 0.34606 0.0
C603 C 0.53027 0.42821 0.3119 0.0
C604 C 0.75004 0.1673 0.35124 0.0
C605 C 0.70616 0.14112 0.3583 0.0
C606 C 0.76445 0.17604 0.31786 0.0
C607 C 0.73517 0.15864 0.29095 0.0
H608 H 0.77181 0.18701 0.37096 0.0
H609 H 0.79703 0.20159 0.31329 0.0
S610 S 0.62105 0.07357 0.29762 0.0
N611 N 0.63693 0.08703 0.33696 0.0
N612 N 0.66375 0.10286 0.27405 0.0
C613 C 0.69369 0.12464 0.29813 0.0
C614 C 0.67917 0.11589 0.33215 0.0
C615 C 0.50431 0.87484 0.63803 0.0
C616 C 0.46813 0.87822 0.62933 0.0
C617 C 0.51376 0.87212 0.67192 0.0
C618 C 0.48738 0.87289 0.69774 0.0
H619 H 0.52188 0.86852 0.61883 0.0
H620 H 0.53779 0.86317 0.67757 0.0
S621 S 0.39775 0.89491 0.68828 0.0
N622 N 0.41285 0.89312 0.64933 0.0
N623 N 0.4304 0.88723 0.71285 0.0
C624 C 0.4561 0.88375 0.68945 0.0
C625 C 0.44644 0.88656 0.65513 0.0
C626 C 0.14571 0.63605 0.65805 0.0
C627 C 0.16211 0.66018 0.62843 0.0
C628 C 0.15573 0.65607 0.68962 0.0
C629 C 0.18353 0.70061 0.69238 0.0
H630 H 0.1277 0.60126 0.65691 0.0
H631 H 0.14518 0.63608 0.71194 0.0
S632 S 0.23004 0.77835 0.62207 0.0
N633 N 0.20281 0.73106 0.60346 0.0
N634 N 0.22297 0.76877 0.66291 0.0
C635 C 0.19703 0.72538 0.66282 0.0
C636 C 0.18597 0.70507 0.63071 0.0
C637 C 0.26658 0.4392 0.65095 0.0
C638 C 0.31093 0.46289 0.64497 0.0
C639 C 0.25077 0.4293 0.68394 0.0
C640 C 0.27899 0.44315 0.71167 0.0
H641 H 0.2442 0.43349 0.63066 0.0
H642 H 0.21666 0.41635 0.6879 0.0
S643 S 0.39757 0.49514 0.70781 0.0
N644 N 0.3824 0.49149 0.66816 0.0
N645 N 0.35289 0.47242 0.73019 0.0
C646 C 0.323 0.45983 0.70537 0.0
C647 C 0.33903 0.47025 0.67185 0.0
loop_
_geom_bond_atom_site_label_1
_geom_bond_atom_site_label_2
_geom_bond_distance
_geom_bond_site_symmetry_2
_ccdc_geom_bond_type
Co0 O1 2.216 . S
Co0 O2 2.091 . S
Co0 O4 2.004 . S
Co0 O10 2.021 . S
Co0 O12 2.137 . S
Co0 O13 2.244 . S
O1 Co0 2.216 . S
O1 C8 1.247 . S
O2 Co0 2.091 . S
O2 C8 1.261 . S
C3 O12 1.247 . S
C3 O13 1.272 . S
O4 Co0 2.004 . S
O4 C9 1.259 . S
Co5 O6 2.061 . S
Co5 O11 2.052 . S
Co5 O13 2.135 . S
O6 Co5 2.061 . S
O6 C9 1.235 . S
C7 O10 1.238 . S
C7 O11 1.241 . S
C8 O1 1.247 . S
C8 O2 1.261 . S
C9 O4 1.259 . S
C9 O6 1.235 . S
O10 Co0 2.021 . S
O10 C7 1.238 . S
O11 Co5 2.052 . S
O11 C7 1.241 . S
O12 Co0 2.137 . S
O12 C3 1.247 . S
O13 Co0 2.244 . S
O13 C3 1.272 . S
O13 Co5 2.135 . S
Co14 O15 2.216 . S
Co14 O16 2.091 1_545 S
Co14 O18 2.004 1_545 S
Co14 O24 2.021 1_545 S
Co14 O26 2.137 . S
Co14 O27 2.244 . S
O15 Co14 2.216 . S
O15 C22 1.247 . S
O16 Co14 2.091 1_565 S
O16 C22 1.261 1_565 S
C17 O26 1.247 . S
C17 O27 1.272 . S
O18 Co14 2.004 1_565 S
O18 C23 1.259 . S
Co19 O20 2.061 1_545 S
Co19 O25 2.051 . S
Co19 O27 2.135 . S
O20 Co19 2.061 1_565 S
O20 C23 1.235 . S
C21 O24 1.238 . S
C21 O25 1.242 1_565 S
C22 O15 1.247 . S
C22 O16 1.261 1_545 S
C23 O18 1.259 . S
C23 O20 1.235 . S
O24 Co14 2.021 1_565 S
O24 C21 1.238 . S
O25 Co19 2.051 . S
O25 C21 1.242 1_545 S
O26 Co14 2.137 . S
O26 C17 1.247 . S
O27 Co14 2.244 . S
O27 C17 1.272 . S
O27 Co19 2.135 . S
Co28 O29 2.216 . S
Co28 O30 2.091 1_655 S
Co28 O32 2.004 1_655 S
Co28 O38 2.021 1_655 S
Co28 O40 2.137 . S
Co28 O41 2.244 . S
O29 Co28 2.216 . S
O29 C36 1.247 . S
O30 Co28 2.091 1_455 S
O30 C36 1.261 1_455 S
C31 O40 1.247 . S
C31 O41 1.272 . S
O32 Co28 2.004 1_455 S
O32 C37 1.259 . S
Co33 O34 2.061 1_655 S
Co33 O39 2.053 . S
Co33 O41 2.135 . S
O34 Co33 2.061 1_455 S
O34 C37 1.235 . S
C35 O38 1.238 . S
C35 O39 1.241 1_455 S
C36 O29 1.247 . S
C36 O30 1.261 1_655 S
C37 O32 1.259 . S
C37 O34 1.235 . S
O38 Co28 2.021 1_455 S
O38 C35 1.238 . S
O39 Co33 2.053 . S
O39 C35 1.241 1_655 S
O40 Co28 2.137 . S
O40 C31 1.247 . S
O41 Co28 2.244 . S
O41 C31 1.272 . S
O41 Co33 2.135 . S
Co42 O43 2.216 . S
Co42 O44 2.091 . S
Co42 O46 2.004 . S
Co42 O52 2.021 . S
Co42 O54 2.137 . S
Co42 O55 2.244 . S
O43 Co42 2.216 . S
O43 C50 1.247 . S
O44 Co42 2.091 . S
O44 C50 1.261 . S
C45 O54 1.247 . S
C45 O55 1.272 . S
O46 Co42 2.004 . S
O46 C51 1.259 . S
Co47 O48 2.061 . S
Co47 O53 2.052 . S
Co47 O55 2.135 . S
O48 Co47 2.061 . S
O48 C51 1.235 . S
C49 O52 1.238 . S
C49 O53 1.241 . S
C50 O43 1.247 . S
C50 O44 1.261 . S
C51 O46 1.259 . S
C51 O48 1.235 . S
O52 Co42 2.021 . S
O52 C49 1.238 . S
O53 Co47 2.052 . S
O53 C49 1.241 . S
O54 Co42 2.137 . S
O54 C45 1.247 . S
O55 Co42 2.244 . S
O55 C45 1.272 . S
O55 Co47 2.135 . S
Co56 O57 2.216 . S
Co56 O58 2.091 1_565 S
Co56 O60 2.004 1_565 S
Co56 O66 2.021 1_565 S
Co56 O68 2.137 . S
Co56 O69 2.244 . S
O57 Co56 2.216 . S
O57 C64 1.247 . S
O58 Co56 2.091 1_545 S
O58 C64 1.261 1_545 S
C59 O68 1.247 . S
C59 O69 1.272 . S
O60 Co56 2.004 1_545 S
O60 C65 1.259 . S
Co61 O62 2.061 1_565 S
Co61 O67 2.053 . S
Co61 O69 2.135 . S
O62 Co61 2.061 1_545 S
O62 C65 1.235 . S
C63 O66 1.238 . S
C63 O67 1.240 1_545 S
C64 O57 1.247 . S
C64 O58 1.261 1_565 S
C65 O60 1.259 . S
C65 O62 1.235 . S
O66 Co56 2.021 1_545 S
O66 C63 1.238 . S
O67 Co61 2.053 . S
O67 C63 1.240 1_565 S
O68 Co56 2.137 . S
O68 C59 1.247 . S
O69 Co56 2.244 . S
O69 C59 1.272 . S
O69 Co61 2.135 . S
Co70 O71 2.216 . S
Co70 O72 2.091 1_455 S
Co70 O74 2.004 1_455 S
Co70 O80 2.021 1_455 S
Co70 O82 2.137 . S
Co70 O83 2.244 . S
O71 Co70 2.216 . S
O71 C78 1.247 . S
O72 Co70 2.091 1_655 S
O72 C78 1.261 1_655 S
C73 O82 1.247 . S
C73 O83 1.272 . S
O74 Co70 2.004 1_655 S
O74 C79 1.259 . S
Co75 O76 2.061 1_455 S
Co75 O81 2.050 . S
Co75 O83 2.135 . S
O76 Co75 2.061 1_655 S
O76 C79 1.235 . S
C77 O80 1.238 . S
C77 O81 1.242 1_655 S
C78 O71 1.247 . S
C78 O72 1.261 1_455 S
C79 O74 1.259 . S
C79 O76 1.235 . S
O80 Co70 2.021 1_655 S
O80 C77 1.238 . S
O81 Co75 2.050 . S
O81 C77 1.242 1_455 S
O82 Co70 2.137 . S
O82 C73 1.247 . S
O83 Co70 2.244 . S
O83 C73 1.272 . S
O83 Co75 2.135 . S
Co84 O85 2.216 . S
Co84 O86 2.091 . S
Co84 O88 2.004 . S
Co84 O94 2.021 . S
Co84 O96 2.137 . S
Co84 O97 2.244 . S
O85 Co84 2.216 . S
O85 C92 1.247 . S
O86 Co84 2.091 . S
O86 C92 1.261 . S
C87 O96 1.247 . S
C87 O97 1.272 . S
O88 Co84 2.004 . S
O88 C93 1.259 . S
Co89 O90 2.061 . S
Co89 O95 2.052 . S
Co89 O97 2.135 . S
O90 Co89 2.061 . S
O90 C93 1.235 . S
C91 O94 1.238 . S
C91 O95 1.241 . S
C92 O85 1.247 . S
C92 O86 1.261 . S
C93 O88 1.259 . S
C93 O90 1.235 . S
O94 Co84 2.021 . S
O94 C91 1.238 . S
O95 Co89 2.052 . S
O95 C91 1.241 . S
O96 Co84 2.137 . S
O96 C87 1.247 . S
O97 Co84 2.244 . S
O97 C87 1.272 . S
O97 Co89 2.135 . S
Co98 O99 2.216 . S
Co98 O100 2.091 . S
Co98 O102 2.004 . S
Co98 O108 2.021 . S
Co98 O110 2.137 . S
Co98 O111 2.244 . S
O99 Co98 2.216 . S
O99 C106 1.247 . S
O100 Co98 2.091 . S
O100 C106 1.261 . S
C101 O110 1.247 . S
C101 O111 1.272 . S
O102 Co98 2.004 . S
O102 C107 1.259 . S
Co103 O104 2.061 . S
Co103 O109 2.052 . S
Co103 O111 2.135 . S
O104 Co103 2.061 . S
O104 C107 1.235 . S
C105 O108 1.238 . S
C105 O109 1.241 . S
C106 O99 1.247 . S
C106 O100 1.261 . S
C107 O102 1.259 . S
C107 O104 1.235 . S
O108 Co98 2.021 . S
O108 C105 1.238 . S
O109 Co103 2.052 . S
O109 C105 1.241 . S
O110 Co98 2.137 . S
O110 C101 1.247 . S
O111 Co98 2.244 . S
O111 C101 1.272 . S
O111 Co103 2.135 . S
Co112 O113 2.216 . S
Co112 O114 2.091 . S
Co112 O116 2.004 . S
Co112 O122 2.021 . S
Co112 O124 2.137 . S
Co112 O125 2.244 . S
O113 Co112 2.216 . S
O113 C120 1.247 . S
O114 Co112 2.091 . S
O114 C120 1.261 . S
C115 O124 1.247 . S
C115 O125 1.272 . S
O116 Co112 2.004 . S
O116 C121 1.259 . S
Co117 O118 2.061 . S
Co117 O123 2.052 . S
Co117 O125 2.135 . S
O118 Co117 2.061 . S
O118 C121 1.235 . S
C119 O122 1.238 . S
C119 O123 1.241 . S
C120 O113 1.247 . S
C120 O114 1.261 . S
C121 O116 1.259 . S
C121 O118 1.235 . S
O122 Co112 2.021 . S
O122 C119 1.238 . S
O123 Co117 2.052 . S
O123 C119 1.241 . S
O124 Co112 2.137 . S
O124 C115 1.247 . S
O125 Co112 2.244 . S
O125 C115 1.272 . S
O125 Co117 2.135 . S
Co126 O127 2.216 . S
Co126 O128 2.091 . S
Co126 O130 2.004 . S
Co126 O136 2.021 . S
Co126 O138 2.137 . S
Co126 O139 2.244 . S
O127 Co126 2.216 . S
O127 C134 1.247 . S
O128 Co126 2.091 . S
O128 C134 1.261 . S
C129 O138 1.247 . S
C129 O139 1.272 . S
O130 Co126 2.004 . S
O130 C135 1.259 . S
Co131 O132 2.061 . S
Co131 O137 2.052 . S
Co131 O139 2.135 . S
O132 Co131 2.061 . S
O132 C135 1.235 . S
C133 O136 1.238 . S
C133 O137 1.241 . S
C134 O127 1.247 . S
C134 O128 1.261 . S
C135 O130 1.259 . S
C135 O132 1.235 . S
O136 Co126 2.021 . S
O136 C133 1.238 . S
O137 Co131 2.052 . S
O137 C133 1.241 . S
O138 Co126 2.137 . S
O138 C129 1.247 . S
O139 Co126 2.244 . S
O139 C129 1.272 . S
O139 Co131 2.135 . S
Co140 O141 2.216 . S
Co140 O142 2.091 . S
Co140 O144 2.004 . S
Co140 O150 2.021 . S
Co140 O152 2.137 . S
Co140 O153 2.244 . S
O141 Co140 2.216 . S
O141 C148 1.247 . S
O142 Co140 2.091 . S
O142 C148 1.261 . S
C143 O152 1.247 . S
C143 O153 1.272 . S
O144 Co140 2.004 . S
O144 C149 1.259 . S
Co145 O146 2.061 . S
Co145 O151 2.052 . S
Co145 O153 2.135 . S
O146 Co145 2.061 . S
O146 C149 1.235 . S
C147 O150 1.238 . S
C147 O151 1.241 . S
C148 O141 1.247 . S
C148 O142 1.261 . S
C149 O144 1.259 . S
C149 O146 1.235 . S
O150 Co140 2.021 . S
O150 C147 1.238 . S
O151 Co145 2.052 . S
O151 C147 1.241 . S
O152 Co140 2.137 . S
O152 C143 1.247 . S
O153 Co140 2.244 . S
O153 C143 1.272 . S
O153 Co145 2.135 . S
Co154 O155 2.216 . S
Co154 O156 2.091 . S
Co154 O158 2.004 . S
Co154 O164 2.021 . S
Co154 O166 2.137 . S
Co154 O167 2.244 . S
O155 Co154 2.216 . S
O155 C162 1.247 . S
O156 Co154 2.091 . S
O156 C162 1.261 . S
C157 O166 1.247 . S
C157 O167 1.272 . S
O158 Co154 2.004 . S
O158 C163 1.259 . S
Co159 O160 2.061 . S
Co159 O165 2.052 . S
Co159 O167 2.135 . S
O160 Co159 2.061 . S
O160 C163 1.235 . S
C161 O164 1.238 . S
C161 O165 1.241 . S
C162 O155 1.247 . S
C162 O156 1.261 . S
C163 O158 1.259 . S
C163 O160 1.235 . S
O164 Co154 2.021 . S
O164 C161 1.238 . S
O165 Co159 2.052 . S
O165 C161 1.241 . S
O166 Co154 2.137 . S
O166 C157 1.247 . S
O167 Co154 2.244 . S
O167 C157 1.272 . S
O167 Co159 2.135 . S
Co168 O169 2.216 . S
Co168 O170 2.091 . S
Co168 O172 2.004 . S
Co168 O178 2.021 . S
Co168 O180 2.137 . S
Co168 O181 2.244 . S
O169 Co168 2.216 . S
O169 C176 1.247 . S
O170 Co168 2.091 . S
O170 C176 1.261 . S
C171 O180 1.247 . S
C171 O181 1.272 . S
O172 Co168 2.004 . S
O172 C177 1.259 . S
Co173 O174 2.061 . S
Co173 O179 2.052 . S
Co173 O181 2.135 . S
O174 Co173 2.061 . S
O174 C177 1.235 . S
C175 O178 1.238 . S
C175 O179 1.241 . S
C176 O169 1.247 . S
C176 O170 1.261 . S
C177 O172 1.259 . S
C177 O174 1.235 . S
O178 Co168 2.021 . S
O178 C175 1.238 . S
O179 Co173 2.052 . S
O179 C175 1.241 . S
O180 Co168 2.137 . S
O180 C171 1.247 . S
O181 Co168 2.244 . S
O181 C171 1.272 . S
O181 Co173 2.135 . S
Co182 O183 2.216 . S
Co182 O184 2.091 . S
Co182 O186 2.004 . S
Co182 O192 2.021 . S
Co182 O194 2.137 . S
Co182 O195 2.244 . S
O183 Co182 2.216 . S
O183 C190 1.247 . S
O184 Co182 2.091 . S
O184 C190 1.261 . S
C185 O194 1.247 . S
C185 O195 1.272 . S
O186 Co182 2.004 . S
O186 C191 1.259 . S
Co187 O188 2.061 . S
Co187 O193 2.052 . S
Co187 O195 2.135 . S
O188 Co187 2.061 . S
O188 C191 1.235 . S
C189 O192 1.238 . S
C189 O193 1.241 . S
C190 O183 1.247 . S
C190 O184 1.261 . S
C191 O186 1.259 . S
C191 O188 1.235 . S
O192 Co182 2.021 . S
O192 C189 1.238 . S
O193 Co187 2.052 . S
O193 C189 1.241 . S
O194 Co182 2.137 . S
O194 C185 1.247 . S
O195 Co182 2.244 . S
O195 C185 1.272 . S
O195 Co187 2.135 . S
Co196 O197 2.216 . S
Co196 O198 2.091 . S
Co196 O200 2.004 . S
Co196 O206 2.021 . S
Co196 O208 2.137 . S
Co196 O209 2.244 . S
O197 Co196 2.216 . S
O197 C204 1.247 . S
O198 Co196 2.091 . S
O198 C204 1.261 . S
C199 O208 1.247 . S
C199 O209 1.272 . S
O200 Co196 2.004 . S
O200 C205 1.259 . S
Co201 O202 2.061 . S
Co201 O207 2.052 . S
Co201 O209 2.135 . S
O202 Co201 2.061 . S
O202 C205 1.235 . S
C203 O206 1.238 . S
C203 O207 1.241 . S
C204 O197 1.247 . S
C204 O198 1.261 . S
C205 O200 1.259 . S
C205 O202 1.235 . S
O206 Co196 2.021 . S
O206 C203 1.238 . S
O207 Co201 2.052 . S
O207 C203 1.241 . S
O208 Co196 2.137 . S
O208 C199 1.247 . S
O209 Co196 2.244 . S
O209 C199 1.272 . S
O209 Co201 2.135 . S
Co210 O211 2.216 . S
Co210 O212 2.091 . S
Co210 O214 2.004 . S
Co210 O220 2.021 . S
Co210 O222 2.137 . S
Co210 O223 2.244 . S
O211 Co210 2.216 . S
O211 C218 1.247 . S
O212 Co210 2.091 . S
O212 C218 1.261 . S
C213 O222 1.247 . S
C213 O223 1.272 . S
O214 Co210 2.004 . S
O214 C219 1.259 . S
Co215 O216 2.061 . S
Co215 O221 2.052 . S
Co215 O223 2.135 . S
O216 Co215 2.061 . S
O216 C219 1.235 . S
C217 O220 1.238 . S
C217 O221 1.241 . S
C218 O211 1.247 . S
C218 O212 1.261 . S
C219 O214 1.259 . S
C219 O216 1.235 . S
O220 Co210 2.021 . S
O220 C217 1.238 . S
O221 Co215 2.052 . S
O221 C217 1.241 . S
O222 Co210 2.137 . S
O222 C213 1.247 . S
O223 Co210 2.244 . S
O223 C213 1.272 . S
O223 Co215 2.135 . S
Co224 O225 2.216 . S
Co224 O226 2.091 . S
Co224 O228 2.004 . S
Co224 O234 2.021 . S
Co224 O236 2.137 . S
Co224 O237 2.244 . S
O225 Co224 2.216 . S
O225 C232 1.247 . S
O226 Co224 2.091 . S
O226 C232 1.261 . S
C227 O236 1.247 . S
C227 O237 1.272 . S
O228 Co224 2.004 . S
O228 C233 1.259 . S
Co229 O230 2.061 . S
Co229 O235 2.052 . S
Co229 O237 2.135 . S
O230 Co229 2.061 . S
O230 C233 1.235 . S
C231 O234 1.238 . S
C231 O235 1.241 . S
C232 O225 1.247 . S
C232 O226 1.261 . S
C233 O228 1.259 . S
C233 O230 1.235 . S
O234 Co224 2.021 . S
O234 C231 1.238 . S
O235 Co229 2.052 . S
O235 C231 1.241 . S
O236 Co224 2.137 . S
O236 C227 1.247 . S
O237 Co224 2.244 . S
O237 C227 1.272 . S
O237 Co229 2.135 . S
Co238 O239 2.216 . S
Co238 O240 2.091 . S
Co238 O242 2.004 . S
Co238 O248 2.021 . S
Co238 O250 2.137 . S
Co238 O251 2.244 . S
O239 Co238 2.216 . S
O239 C246 1.247 . S
O240 Co238 2.091 . S
O240 C246 1.261 . S
C241 O250 1.247 . S
C241 O251 1.272 . S
O242 Co238 2.004 . S
O242 C247 1.259 . S
Co243 O244 2.061 . S
Co243 O249 2.052 . S
Co243 O251 2.135 . S
O244 Co243 2.061 . S
O244 C247 1.235 . S
C245 O248 1.238 . S
C245 O249 1.241 . S
C246 O239 1.247 . S
C246 O240 1.261 . S
C247 O242 1.259 . S
C247 O244 1.235 . S
O248 Co238 2.021 . S
O248 C245 1.238 . S
O249 Co243 2.052 . S
O249 C245 1.241 . S
O250 Co238 2.137 . S
O250 C241 1.247 . S
O251 Co238 2.244 . S
O251 C241 1.272 . S
O251 Co243 2.135 . S
C252 C253 1.369 . S
C252 C254 1.419 . S
C252 H256 0.930 . S
C253 C252 1.369 . S
C253 C262 1.429 . S
C254 C252 1.419 . S
C254 C255 1.363 . S
C254 H257 0.929 . S
C255 C254 1.363 . S
C255 C261 1.428 . S
H256 C252 0.930 . S
H257 C254 0.929 . S
S258 N259 1.613 . S
S258 N260 1.610 . S
N259 S258 1.613 . S
N259 C262 1.350 . S
N260 S258 1.610 . S
N260 C261 1.351 . S
C261 C255 1.428 . S
C261 N260 1.351 . S
C261 C262 1.434 . S
C262 C253 1.429 . S
C262 N259 1.350 . S
C262 C261 1.434 . S
C263 C264 1.369 . S
C263 C265 1.419 . S
C263 H267 0.930 . S
C264 C263 1.369 . S
C264 C273 1.429 . S
C265 C263 1.419 . S
C265 C266 1.363 . S
C265 H268 0.929 . S
C266 C265 1.363 . S
C266 C272 1.428 . S
H267 C263 0.930 . S
H268 C265 0.929 . S
S269 N270 1.613 . S
S269 N271 1.610 1_565 S
N270 S269 1.613 . S
N270 C273 1.350 1_565 S
N271 S269 1.610 1_545 S
N271 C272 1.351 . S
C272 C266 1.428 . S
C272 N271 1.351 . S
C272 C273 1.434 . S
C273 C264 1.429 . S
C273 N270 1.350 1_545 S
C273 C272 1.434 . S
C274 C275 1.369 . S
C274 C276 1.419 . S
C274 H278 0.930 . S
C275 C274 1.369 . S
C275 C284 1.429 . S
C276 C274 1.419 . S
C276 C277 1.363 . S
C276 H279 0.929 . S
C277 C276 1.363 . S
C277 C283 1.428 . S
H278 C274 0.930 . S
H279 C276 0.929 . S
S280 N281 1.613 . S
S280 N282 1.610 . S
N281 S280 1.613 . S
N281 C284 1.350 . S
N282 S280 1.610 . S
N282 C283 1.351 . S
C283 C277 1.428 . S
C283 N282 1.351 . S
C283 C284 1.434 . S
C284 C275 1.429 . S
C284 N281 1.350 . S
C284 C283 1.434 . S
C285 C286 1.369 . S
C285 C287 1.419 . S
C285 H289 0.930 . S
C286 C285 1.369 . S
C286 C295 1.429 . S
C287 C285 1.419 . S
C287 C288 1.363 . S
C287 H290 0.929 . S
C288 C287 1.363 . S
C288 C294 1.428 . S
H289 C285 0.930 . S
H290 C287 0.929 . S
S291 N292 1.613 . S
S291 N293 1.610 . S
N292 S291 1.613 . S
N292 C295 1.350 . S
N293 S291 1.610 . S
N293 C294 1.351 . S
C294 C288 1.428 . S
C294 N293 1.351 . S
C294 C295 1.434 . S
C295 C286 1.429 . S
C295 N292 1.350 . S
C295 C294 1.434 . S
C296 C297 1.369 . S
C296 C298 1.419 . S
C296 H300 0.930 . S
C297 C296 1.369 . S
C297 C306 1.429 . S
C298 C296 1.419 . S
C298 C299 1.363 . S
C298 H301 0.929 . S
C299 C298 1.363 . S
C299 C305 1.428 . S
H300 C296 0.930 . S
H301 C298 0.929 . S
S302 N303 1.613 . S
S302 N304 1.610 . S
N303 S302 1.613 . S
N303 C306 1.350 . S
N304 S302 1.610 . S
N304 C305 1.351 . S
C305 C299 1.428 . S
C305 N304 1.351 . S
C305 C306 1.434 . S
C306 C297 1.429 . S
C306 N303 1.350 . S
C306 C305 1.434 . S
C307 C308 1.369 . S
C307 C309 1.419 . S
C307 H311 0.930 . S
C308 C307 1.369 . S
C308 C317 1.429 . S
C309 C307 1.419 . S
C309 C310 1.363 . S
C309 H312 0.929 . S
C310 C309 1.363 . S
C310 C316 1.428 . S
H311 C307 0.930 . S
H312 C309 0.929 . S
S313 N314 1.613 . S
S313 N315 1.610 . S
N314 S313 1.613 . S
N314 C317 1.350 . S
N315 S313 1.610 . S
N315 C316 1.351 . S
C316 C310 1.428 . S
C316 N315 1.351 . S
C316 C317 1.434 . S
C317 C308 1.429 . S
C317 N314 1.350 . S
C317 C316 1.434 . S
C318 C319 1.369 . S
C318 C320 1.419 1_655 S
C318 H322 0.930 . S
C319 C318 1.369 . S
C319 C328 1.429 . S
C320 C318 1.419 1_455 S
C320 C321 1.363 . S
C320 H323 0.929 . S
C321 C320 1.363 . S
C321 C327 1.428 . S
H322 C318 0.930 . S
H323 C320 0.929 . S
S324 N325 1.613 . S
S324 N326 1.610 1_655 S
N325 S324 1.613 . S
N325 C328 1.350 . S
N326 S324 1.610 1_455 S
N326 C327 1.351 . S
C327 C321 1.428 . S
C327 N326 1.351 . S
C327 C328 1.434 1_455 S
C328 C319 1.429 . S
C328 N325 1.350 . S
C328 C327 1.434 1_655 S
C329 C330 1.369 . S
C329 C331 1.419 . S
C329 H333 0.930 . S
C330 C329 1.369 . S
C330 C339 1.429 . S
C331 C329 1.419 . S
C331 C332 1.363 . S
C331 H334 0.929 . S
C332 C331 1.363 . S
C332 C338 1.428 . S
H333 C329 0.930 . S
H334 C331 0.929 . S
S335 N336 1.613 . S
S335 N337 1.610 . S
N336 S335 1.613 . S
N336 C339 1.350 . S
N337 S335 1.610 . S
N337 C338 1.351 . S
C338 C332 1.428 . S
C338 N337 1.351 . S
C338 C339 1.434 . S
C339 C330 1.429 . S
C339 N336 1.350 . S
C339 C338 1.434 . S
C340 C341 1.369 . S
C340 C342 1.419 1_545 S
C340 H344 0.930 . S
C341 C340 1.369 . S
C341 C350 1.429 . S
C342 C340 1.419 1_565 S
C342 C343 1.363 . S
C342 H345 0.929 . S
C343 C342 1.363 . S
C343 C349 1.428 . S
H344 C340 0.930 . S
H345 C342 0.929 . S
S346 N347 1.613 1_565 S
S346 N348 1.610 . S
N347 S346 1.613 1_545 S
N347 C350 1.350 . S
N348 S346 1.610 . S
N348 C349 1.351 . S
C349 C343 1.428 . S
C349 N348 1.351 . S
C349 C350 1.434 1_565 S
C350 C341 1.429 . S
C350 N347 1.350 . S
C350 C349 1.434 1_545 S
C351 C352 1.369 . S
C351 C353 1.419 1_455 S
C351 H355 0.930 . S
C352 C351 1.369 . S
C352 C361 1.429 . S
C353 C351 1.419 1_655 S
C353 C354 1.363 . S
C353 H356 0.929 . S
C354 C353 1.363 . S
C354 C360 1.428 . S
H355 C351 0.930 . S
H356 C353 0.929 . S
S357 N358 1.613 . S
S357 N359 1.610 1_455 S
N358 S357 1.613 . S
N358 C361 1.350 . S
N359 S357 1.610 1_655 S
N359 C360 1.351 . S
C360 C354 1.428 . S
C360 N359 1.351 . S
C360 C361 1.434 1_655 S
C361 C352 1.429 . S
C361 N358 1.350 . S
C361 C360 1.434 1_455 S
C362 C363 1.369 . S
C362 C364 1.419 . S
C362 H366 0.930 . S
C363 C362 1.369 . S
C363 C372 1.429 . S
C364 C362 1.419 . S
C364 C365 1.363 . S
C364 H367 0.929 . S
C365 C364 1.363 . S
C365 C371 1.428 . S
H366 C362 0.930 . S
H367 C364 0.929 . S
S368 N369 1.613 . S
S368 N370 1.610 . S
N369 S368 1.613 . S
N369 C372 1.350 . S
N370 S368 1.610 . S
N370 C371 1.351 . S
C371 C365 1.428 . S
C371 N370 1.351 . S
C371 C372 1.434 . S
C372 C363 1.429 . S
C372 N369 1.350 . S
C372 C371 1.434 . S
C373 C374 1.369 . S
C373 C375 1.419 1_545 S
C373 H377 0.930 . S
C374 C373 1.369 . S
C374 C383 1.429 . S
C375 C373 1.419 1_565 S
C375 C376 1.363 . S
C375 H378 0.929 . S
C376 C375 1.363 . S
C376 C382 1.428 . S
H377 C373 0.930 . S
H378 C375 0.929 . S
S379 N380 1.613 1_565 S
S379 N381 1.610 . S
N380 S379 1.613 1_545 S
N380 C383 1.350 . S
N381 S379 1.610 . S
N381 C382 1.351 . S
C382 C376 1.428 . S
C382 N381 1.351 . S
C382 C383 1.434 1_565 S
C383 C374 1.429 . S
C383 N380 1.350 . S
C383 C382 1.434 1_545 S
C384 C385 1.369 . S
C384 C386 1.419 1_565 S
C384 H388 0.930 . S
C385 C384 1.369 . S
C385 C394 1.429 . S
C386 C384 1.419 1_545 S
C386 C387 1.363 . S
C386 H389 0.929 . S
C387 C386 1.363 . S
C387 C393 1.428 . S
H388 C384 0.930 . S
H389 C386 0.929 . S
S390 N391 1.613 . S
S390 N392 1.610 1_565 S
N391 S390 1.613 . S
N391 C394 1.350 . S
N392 S390 1.610 1_545 S
N392 C393 1.351 . S
C393 C387 1.428 . S
C393 N392 1.351 . S
C393 C394 1.434 1_545 S
C394 C385 1.429 . S
C394 N391 1.350 . S
C394 C393 1.434 1_565 S
C395 C396 1.369 . S
C395 C397 1.419 1_455 S
C395 H399 0.930 . S
C396 C395 1.369 . S
C396 C405 1.429 . S
C397 C395 1.419 1_655 S
C397 C398 1.363 . S
C397 H400 0.929 . S
C398 C397 1.363 . S
C398 C404 1.428 . S
H399 C395 0.930 . S
H400 C397 0.929 . S
S401 N402 1.613 1_655 S
S401 N403 1.610 . S
N402 S401 1.613 1_455 S
N402 C405 1.350 . S
N403 S401 1.610 . S
N403 C404 1.351 . S
C404 C398 1.428 . S
C404 N403 1.351 . S
C404 C405 1.434 1_655 S
C405 C396 1.429 . S
C405 N402 1.350 . S
C405 C404 1.434 1_455 S
C406 C407 1.369 . S
C406 C408 1.419 . S
C406 H410 0.930 . S
C407 C406 1.369 . S
C407 C416 1.429 . S
C408 C406 1.419 . S
C408 C409 1.363 . S
C408 H411 0.929 . S
C409 C408 1.363 . S
C409 C415 1.428 . S
H410 C406 0.930 . S
H411 C408 0.929 . S
S412 N413 1.613 . S
S412 N414 1.610 . S
N413 S412 1.613 . S
N413 C416 1.350 . S
N414 S412 1.610 . S
N414 C415 1.351 . S
C415 C409 1.428 . S
C415 N414 1.351 . S
C415 C416 1.434 . S
C416 C407 1.429 . S
C416 N413 1.350 . S
C416 C415 1.434 . S
C417 C418 1.369 . S
C417 C419 1.419 . S
C417 H421 0.930 . S
C418 C417 1.369 . S
C418 C427 1.429 . S
C419 C417 1.419 . S
C419 C420 1.363 . S
C419 H422 0.929 . S
C420 C419 1.363 . S
C420 C426 1.428 . S
H421 C417 0.930 . S
H422 C419 0.929 . S
S423 N424 1.613 . S
S423 N425 1.610 . S
N424 S423 1.613 . S
N424 C427 1.350 . S
N425 S423 1.610 . S
N425 C426 1.351 . S
C426 C420 1.428 . S
C426 N425 1.351 . S
C426 C427 1.434 . S
C427 C418 1.429 . S
C427 N424 1.350 . S
C427 C426 1.434 . S
C428 C429 1.369 . S
C428 C430 1.419 . S
C428 H432 0.930 . S
C429 C428 1.369 . S
C429 C438 1.429 . S
C430 C428 1.419 . S
C430 C431 1.363 . S
C430 H433 0.929 . S
C431 C430 1.363 . S
C431 C437 1.428 . S
H432 C428 0.930 . S
H433 C430 0.929 . S
S434 N435 1.613 . S
S434 N436 1.610 . S
N435 S434 1.613 . S
N435 C438 1.350 . S
N436 S434 1.610 . S
N436 C437 1.351 . S
C437 C431 1.428 . S
C437 N436 1.351 . S
C437 C438 1.434 . S
C438 C429 1.429 . S
C438 N435 1.350 . S
C438 C437 1.434 . S
C439 C440 1.369 . S
C439 C441 1.419 . S
C439 H443 0.930 . S
C440 C439 1.369 . S
C440 C449 1.429 . S
C441 C439 1.419 . S
C441 C442 1.363 . S
C441 H444 0.929 . S
C442 C441 1.363 . S
C442 C448 1.428 . S
H443 C439 0.930 . S
H444 C441 0.929 . S
S445 N446 1.613 . S
S445 N447 1.610 . S
N446 S445 1.613 . S
N446 C449 1.350 . S
N447 S445 1.610 . S
N447 C448 1.351 . S
C448 C442 1.428 . S
C448 N447 1.351 . S
C448 C449 1.434 . S
C449 C440 1.429 . S
C449 N446 1.350 . S
C449 C448 1.434 . S
C450 C451 1.369 . S
C450 C452 1.419 . S
C450 H454 0.930 . S
C451 C450 1.369 . S
C451 C460 1.429 . S
C452 C450 1.419 . S
C452 C453 1.363 . S
C452 H455 0.929 . S
C453 C452 1.363 . S
C453 C459 1.428 . S
H454 C450 0.930 . S
H455 C452 0.929 . S
S456 N457 1.613 . S
S456 N458 1.610 . S
N457 S456 1.613 . S
N457 C460 1.350 . S
N458 S456 1.610 . S
N458 C459 1.351 . S
C459 C453 1.428 . S
C459 N458 1.351 . S
C459 C460 1.434 . S
C460 C451 1.429 . S
C460 N457 1.350 . S
C460 C459 1.434 . S
C461 C462 1.369 . S
C461 C463 1.419 . S
C461 H465 0.930 . S
C462 C461 1.369 . S
C462 C471 1.429 . S
C463 C461 1.419 . S
C463 C464 1.363 . S
C463 H466 0.929 . S
C464 C463 1.363 . S
C464 C470 1.428 . S
H465 C461 0.930 . S
H466 C463 0.929 . S
S467 N468 1.613 . S
S467 N469 1.610 . S
N468 S467 1.613 . S
N468 C471 1.350 . S
N469 S467 1.610 . S
N469 C470 1.351 . S
C470 C464 1.428 . S
C470 N469 1.351 . S
C470 C471 1.434 . S
C471 C462 1.429 . S
C471 N468 1.350 . S
C471 C470 1.434 . S
C472 C473 1.369 . S
C472 C474 1.419 . S
C472 H476 0.930 . S
C473 C472 1.369 . S
C473 C482 1.429 . S
C474 C472 1.419 . S
C474 C475 1.363 . S
C474 H477 0.929 . S
C475 C474 1.363 . S
C475 C481 1.428 . S
H476 C472 0.930 . S
H477 C474 0.929 . S
S478 N479 1.613 . S
S478 N480 1.610 . S
N479 S478 1.613 . S
N479 C482 1.350 . S
N480 S478 1.610 . S
N480 C481 1.351 . S
C481 C475 1.428 . S
C481 N480 1.351 . S
C481 C482 1.434 . S
C482 C473 1.429 . S
C482 N479 1.350 . S
C482 C481 1.434 . S
C483 C484 1.369 . S
C483 C485 1.419 . S
C483 H487 0.930 . S
C484 C483 1.369 . S
C484 C493 1.429 . S
C485 C483 1.419 . S
C485 C486 1.363 . S
C485 H488 0.929 . S
C486 C485 1.363 . S
C486 C492 1.428 . S
H487 C483 0.930 . S
H488 C485 0.929 . S
S489 N490 1.613 . S
S489 N491 1.610 . S
N490 S489 1.613 . S
N490 C493 1.350 . S
N491 S489 1.610 . S
N491 C492 1.351 . S
C492 C486 1.428 . S
C492 N491 1.351 . S
C492 C493 1.434 . S
C493 C484 1.429 . S
C493 N490 1.350 . S
C493 C492 1.434 . S
C494 C495 1.369 . S
C494 C496 1.419 . S
C494 H498 0.930 . S
C495 C494 1.369 . S
C495 C504 1.429 . S
C496 C494 1.419 . S
C496 C497 1.363 . S
C496 H499 0.929 . S
C497 C496 1.363 . S
C497 C503 1.428 . S
H498 C494 0.930 . S
H499 C496 0.929 . S
S500 N501 1.613 . S
S500 N502 1.610 . S
N501 S500 1.613 . S
N501 C504 1.350 . S
N502 S500 1.610 . S
N502 C503 1.351 . S
C503 C497 1.428 . S
C503 N502 1.351 . S
C503 C504 1.434 . S
C504 C495 1.429 . S
C504 N501 1.350 . S
C504 C503 1.434 . S
C505 C506 1.369 . S
C505 C507 1.419 . S
C505 H509 0.930 . S
C506 C505 1.369 . S
C506 C515 1.429 . S
C507 C505 1.419 . S
C507 C508 1.363 . S
C507 H510 0.929 . S
C508 C507 1.363 . S
C508 C514 1.428 . S
H509 C505 0.930 . S
H510 C507 0.929 . S
S511 N512 1.613 . S
S511 N513 1.610 . S
N512 S511 1.613 . S
N512 C515 1.350 . S
N513 S511 1.610 . S
N513 C514 1.351 . S
C514 C508 1.428 . S
C514 N513 1.351 . S
C514 C515 1.434 . S
C515 C506 1.429 . S
C515 N512 1.350 . S
C515 C514 1.434 . S
C516 C517 1.369 . S
C516 C518 1.419 . S
C516 H520 0.930 . S
C517 C516 1.369 . S
C517 C526 1.429 . S
C518 C516 1.419 . S
C518 C519 1.363 . S
C518 H521 0.929 . S
C519 C518 1.363 . S
C519 C525 1.428 . S
H520 C516 0.930 . S
H521 C518 0.929 . S
S522 N523 1.613 . S
S522 N524 1.610 . S
N523 S522 1.613 . S
N523 C526 1.350 . S
N524 S522 1.610 . S
N524 C525 1.351 . S
C525 C519 1.428 . S
C525 N524 1.351 . S
C525 C526 1.434 . S
C526 C517 1.429 . S
C526 N523 1.350 . S
C526 C525 1.434 . S
C527 C528 1.369 . S
C527 C529 1.419 . S
C527 H531 0.930 . S
C528 C527 1.369 . S
C528 C537 1.429 . S
C529 C527 1.419 . S
C529 C530 1.363 . S
C529 H532 0.929 . S
C530 C529 1.363 . S
C530 C536 1.428 . S
H531 C527 0.930 . S
H532 C529 0.929 . S
S533 N534 1.613 . S
S533 N535 1.610 . S
N534 S533 1.613 . S
N534 C537 1.350 . S
N535 S533 1.610 . S
N535 C536 1.351 . S
C536 C530 1.428 . S
C536 N535 1.351 . S
C536 C537 1.434 . S
C537 C528 1.429 . S
C537 N534 1.350 . S
C537 C536 1.434 . S
C538 C539 1.369 . S
C538 C540 1.419 . S
C538 H542 0.930 . S
C539 C538 1.369 . S
C539 C548 1.429 . S
C540 C538 1.419 . S
C540 C541 1.363 . S
C540 H543 0.929 . S
C541 C540 1.363 . S
C541 C547 1.428 . S
H542 C538 0.930 . S
H543 C540 0.929 . S
S544 N545 1.613 . S
S544 N546 1.610 . S
N545 S544 1.613 . S
N545 C548 1.350 . S
N546 S544 1.610 . S
N546 C547 1.351 . S
C547 C541 1.428 . S
C547 N546 1.351 . S
C547 C548 1.434 . S
C548 C539 1.429 . S
C548 N545 1.350 . S
C548 C547 1.434 . S
C549 C550 1.369 . S
C549 C551 1.419 1_554 S
C549 H553 0.930 . S
C550 C549 1.369 . S
C550 C559 1.429 . S
C551 C549 1.419 1_556 S
C551 C552 1.363 . S
C551 H554 0.929 . S
C552 C551 1.363 . S
C552 C558 1.428 . S
H553 C549 0.930 . S
H554 C551 0.929 . S
S555 N556 1.613 1_556 S
S555 N557 1.610 . S
N556 S555 1.613 1_554 S
N556 C559 1.350 . S
N557 S555 1.610 . S
N557 C558 1.351 . S
C558 C552 1.428 . S
C558 N557 1.351 . S
C558 C559 1.434 1_556 S
C559 C550 1.429 . S
C559 N556 1.350 . S
C559 C558 1.434 1_554 S
C560 C561 1.369 1_565 S
C560 C562 1.419 1_556 S
C560 H564 0.930 . S
C561 C560 1.369 1_545 S
C561 C570 1.429 . S
C562 C560 1.419 1_554 S
C562 C563 1.363 . S
C562 H565 0.929 . S
C563 C562 1.363 . S
C563 C569 1.428 1_565 S
H564 C560 0.930 . S
H565 C562 0.929 . S
S566 N567 1.613 1_554 S
S566 N568 1.610 . S
N567 S566 1.613 1_556 S
N567 C570 1.350 . S
N568 S566 1.610 . S
N568 C569 1.351 . S
C569 C563 1.428 1_545 S
C569 N568 1.351 . S
C569 C570 1.434 1_554 S
C570 C561 1.429 . S
C570 N567 1.350 . S
C570 C569 1.434 1_556 S
C571 C572 1.369 1_455 S
C571 C573 1.419 1_556 S
C571 H575 0.930 . S
C572 C571 1.369 1_655 S
C572 C581 1.429 . S
C573 C571 1.419 1_554 S
C573 C574 1.363 . S
C573 H576 0.929 . S
C574 C573 1.363 . S
C574 C580 1.428 1_455 S
H575 C571 0.930 . S
H576 C573 0.929 . S
S577 N578 1.613 1_554 S
S577 N579 1.610 . S
N578 S577 1.613 1_556 S
N578 C581 1.350 . S
N579 S577 1.610 . S
N579 C580 1.351 . S
C580 C574 1.428 1_655 S
C580 N579 1.351 . S
C580 C581 1.434 1_554 S
C581 C572 1.429 . S
C581 N578 1.350 . S
C581 C580 1.434 1_556 S
C582 C583 1.369 . S
C582 C584 1.419 . S
C582 H586 0.930 . S
C583 C582 1.369 . S
C583 C592 1.429 . S
C584 C582 1.419 . S
C584 C585 1.363 . S
C584 H587 0.929 . S
C585 C584 1.363 . S
C585 C591 1.428 . S
H586 C582 0.930 . S
H587 C584 0.929 . S
S588 N589 1.613 . S
S588 N590 1.610 . S
N589 S588 1.613 . S
N589 C592 1.350 . S
N590 S588 1.610 . S
N590 C591 1.351 . S
C591 C585 1.428 . S
C591 N590 1.351 . S
C591 C592 1.434 . S
C592 C583 1.429 . S
C592 N589 1.350 . S
C592 C591 1.434 . S
C593 C594 1.369 . S
C593 C595 1.419 . S
C593 H597 0.930 . S
C594 C593 1.369 . S
C594 C603 1.429 . S
C595 C593 1.419 . S
C595 C596 1.363 . S
C595 H598 0.929 . S
C596 C595 1.363 . S
C596 C602 1.428 . S
H597 C593 0.930 . S
H598 C595 0.929 . S
S599 N600 1.613 . S
S599 N601 1.610 . S
N600 S599 1.613 . S
N600 C603 1.350 . S
N601 S599 1.610 . S
N601 C602 1.351 . S
C602 C596 1.428 . S
C602 N601 1.351 . S
C602 C603 1.434 . S
C603 C594 1.429 . S
C603 N600 1.350 . S
C603 C602 1.434 . S
C604 C605 1.369 . S
C604 C606 1.419 . S
C604 H608 0.930 . S
C605 C604 1.369 . S
C605 C614 1.429 . S
C606 C604 1.419 . S
C606 C607 1.363 . S
C606 H609 0.929 . S
C607 C606 1.363 . S
C607 C613 1.428 . S
H608 C604 0.930 . S
H609 C606 0.929 . S
S610 N611 1.613 . S
S610 N612 1.610 . S
N611 S610 1.613 . S
N611 C614 1.350 . S
N612 S610 1.610 . S
N612 C613 1.351 . S
C613 C607 1.428 . S
C613 N612 1.351 . S
C613 C614 1.434 . S
C614 C605 1.429 . S
C614 N611 1.350 . S
C614 C613 1.434 . S
C615 C616 1.369 . S
C615 C617 1.419 . S
C615 H619 0.930 . S
C616 C615 1.369 . S
C616 C625 1.429 . S
C617 C615 1.419 . S
C617 C618 1.363 . S
C617 H620 0.929 . S
C618 C617 1.363 . S
C618 C624 1.428 . S
H619 C615 0.930 . S
H620 C617 0.929 . S
S621 N622 1.613 . S
S621 N623 1.610 . S
N622 S621 1.613 . S
N622 C625 1.350 . S
N623 S621 1.610 . S
N623 C624 1.351 . S
C624 C618 1.428 . S
C624 N623 1.351 . S
C624 C625 1.434 . S
C625 C616 1.429 . S
C625 N622 1.350 . S
C625 C624 1.434 . S
C626 C627 1.369 . S
C626 C628 1.419 . S
C626 H630 0.930 . S
C627 C626 1.369 . S
C627 C636 1.429 . S
C628 C626 1.419 . S
C628 C629 1.363 . S
C628 H631 0.929 . S
C629 C628 1.363 . S
C629 C635 1.428 . S
H630 C626 0.930 . S
H631 C628 0.929 . S
S632 N633 1.613 . S
S632 N634 1.610 . S
N633 S632 1.613 . S
N633 C636 1.350 . S
N634 S632 1.610 . S
N634 C635 1.351 . S
C635 C629 1.428 . S
C635 N634 1.351 . S
C635 C636 1.434 . S
C636 C627 1.429 . S
C636 N633 1.350 . S
C636 C635 1.434 . S
C637 C638 1.369 . S
C637 C639 1.419 . S
C637 H641 0.930 . S
C638 C637 1.369 . S
C638 C647 1.429 . S
C639 C637 1.419 . S
C639 C640 1.363 . S
C639 H642 0.929 . S
C640 C639 1.363 . S
C640 C646 1.428 . S
H641 C637 0.930 . S
H642 C639 0.929 . S
S643 N644 1.613 . S
S643 N645 1.610 . S
N644 S643 1.613 . S
N644 C647 1.350 . S
N645 S643 1.610 . S
N645 C646 1.351 . S
C646 C640 1.428 . S
C646 N645 1.351 . S
C646 C647 1.434 . S
C647 C638 1.429 . S
C647 N644 1.350 . S
C647 C646 1.434 . S
C253 C148 1.309 . S
C255 C8 1.308 . S
C264 C22 1.309 . S
C266 C162 1.308 . S
C275 C134 1.305 . S
C277 C36 1.311 . S
C286 C204 1.307 . S
C288 C50 1.309 . S
C297 C64 1.309 . S
C299 C176 1.305 . S
C308 C190 1.304 . S
C310 C78 1.310 . S
C319 C92 1.305 . S
C321 C232 1.308 . S
C330 C246 1.311 . S
C332 C106 1.305 . S
C341 C120 1.309 . S
C343 C218 1.308 . S
C352 C9 1.186 . S
C354 C17 1.290 . S
C363 C23 1.186 . S
C365 C31 1.285 . S
C374 C3 1.290 . S
C376 C37 1.186 . S
C385 C73 1.285 . S
C387 C51 1.187 . S
C396 C45 1.290 . S
C398 C65 1.189 . S
C407 C79 1.176 . S
C409 C59 1.287 . S
C418 C93 1.177 . S
C420 C101 1.285 . S
C429 C107 1.181 . S
C431 C115 1.289 . S
C440 C87 1.286 . S
C442 C121 1.177 . S
C451 C157 1.285 . S
C453 C135 1.183 . S
C462 C129 1.288 . S
C464 C149 1.180 . S
C473 C143 1.289 . S
C475 C163 1.181 . S
C484 C185 1.291 . S
C486 C177 1.184 . S
C495 C199 1.287 . S
C497 C191 1.178 . S
C506 C171 1.290 . S
C508 C205 1.183 . S
C517 C219 1.187 . S
C519 C241 1.286 . S
C528 C233 1.178 . S
C530 C213 1.288 . S
C539 C247 1.190 . S
C541 C227 1.286 . S
C550 C7 1.620 . S
C552 C49 1.617 . S
C561 C63 1.613 . S
C563 C21 1.611 . S
C572 C77 1.619 . S
C574 C35 1.616 . S
C583 C133 1.612 . S
C585 C91 1.616 . S
C594 C147 1.615 . S
C596 C105 1.612 . S
C605 C119 1.618 . S
C607 C161 1.618 . S
C616 C217 1.609 . S
C618 C175 1.612 . S
C627 C231 1.619 . S
C629 C189 1.616 . S
C638 C245 1.613 . S
C640 C203 1.616 . S
