# Generated by pormake.
# Topology sxa, (6)-cn, num edge types: 1
# Building blocks:
#     Node 0, Type 0, BuildingBlock: MIDCAF_clean_sbu_0, # of connection points: 6
#     Node 1, Type 0, BuildingBlock: MIDCAF_clean_sbu_0, # of connection points: 6
#     Node 2, Type 0, BuildingBlock: MIDCAF_clean_sbu_0, # of connection points: 6
#     Node 3, Type 0, BuildingBlock: MIDCAF_clean_sbu_0, # of connection points: 6
#     Edge 4, Type (0, 0), BuildingBlock: FUNLAD_clean_linker_1, # of connection points: 2
#     Edge 5, Type (0, 0), BuildingBlock: FUNLAD_clean_linker_1, # of connection points: 2
#     Edge 6, Type (0, 0), BuildingBlock: FUNLAD_clean_linker_1, # of connection points: 2
#     Edge 7, Type (0, 0), BuildingBlock: FUNLAD_clean_linker_1, # of connection points: 2
#     Edge 8, Type (0, 0), BuildingBlock: FUNLAD_clean_linker_1, # of connection points: 2
#     Edge 9, Type (0, 0), BuildingBlock: FUNLAD_clean_linker_1, # of connection points: 2
#     Edge 10, Type (0, 0), BuildingBlock: FUNLAD_clean_linker_1, # of connection points: 2
#     Edge 11, Type (0, 0), BuildingBlock: FUNLAD_clean_linker_1, # of connection points: 2
#     Edge 12, Type (0, 0), BuildingBlock: FUNLAD_clean_linker_1, # of connection points: 2
#     Edge 13, Type (0, 0), BuildingBlock: FUNLAD_clean_linker_1, # of connection points: 2
#     Edge 14, Type (0, 0), BuildingBlock: FUNLAD_clean_linker_1, # of connection points: 2
#     Edge 15, Type (0, 0), BuildingBlock: FUNLAD_clean_linker_1, # of connection points: 2
# Relax obj value: 0.200
# Max RMSD: 0.180
# Mean RMSD: 0.180
data_MOF--net-sxa--node1-MIDCAF_clean_sbu_0--edge1-FUNLAD_clean_linker_1
_symmetry_space_group_name_H-M    P1
_symmetry_Int_Tables_number       1
_symmetry_cell_setting            triclinic
loop_
_symmetry_equiv_pos_as_xyz
'x, y, z'
_cell_length_a     23.174124
_cell_length_b     30.047906
_cell_length_c     19.467915
_cell_angle_alpha  89.769326
_cell_angle_beta   90.264102
_cell_angle_gamma 90.21943
loop_
_atom_site_label
_atom_site_type_symbol
_atom_site_fract_x
_atom_site_fract_y
_atom_site_fract_z
_atom_type_partial_charge
Zn0 Zn 0.94096 0.83169 0.24269 0.0
Zn1 Zn 0.98808 0.68853 0.29959 0.0
Zn2 Zn -0.00758 0.76927 0.2107 0.0
C3 C 0.09465 0.69458 0.24218 0.0
C4 C 0.96965 0.67443 0.15466 0.0
O5 O 0.91335 0.75579 0.27498 0.0
O6 O 0.91075 0.81696 0.33653 0.0
C7 C 0.00772 0.87715 0.16014 0.0
O8 O 0.06857 0.72873 0.21764 0.0
O9 O 0.06907 0.66811 0.2827 0.0
O10 O 0.94281 0.66725 0.21065 0.0
O11 O -1e-05 0.70988 0.14895 0.0
O12 O 0.98191 0.88926 0.21419 0.0
O13 O 0.01245 0.83482 0.14871 0.0
O14 O 0.9713 0.79694 0.11459 0.0
O15 O 0.88829 0.80802 0.16348 0.0
C16 C 0.91655 0.79987 0.10942 0.0
O17 O 0.0575 0.78022 0.28631 0.0
O18 O 0.00436 0.74445 0.36256 0.0
C19 C 0.89254 0.77776 0.32569 0.0
C20 C 0.04701 0.76988 0.34886 0.0
Zn21 Zn 0.49403 0.19274 0.29439 0.0
Zn22 Zn 0.43396 0.31967 0.23632 0.0
Zn23 Zn 0.48531 0.25304 0.20505 0.0
C24 C 0.41019 0.29088 0.1048 0.0
C25 C 0.50986 0.36057 0.15735 0.0
O26 O 0.54201 0.27417 0.28867 0.0
O27 O 0.4948 0.23889 0.37045 0.0
C28 C 0.44309 0.15268 0.18177 0.0
O29 O 0.46414 0.28573 0.11397 0.0
O30 O 0.37958 0.30074 0.1561 0.0
O31 O 0.48641 0.37271 0.21291 0.0
O32 O 0.50938 0.31832 0.14289 0.0
O33 O 0.43177 0.15344 0.24568 0.0
O34 O 0.47281 0.18524 0.15647 0.0
O35 O 0.53977 0.2 0.16943 0.0
O36 O 0.57581 0.17605 0.26751 0.0
C37 C 0.57895 0.17916 0.20295 0.0
O38 O 0.40654 0.24273 0.27103 0.0
O39 O 0.3992 0.30594 0.32722 0.0
C40 C 0.53284 0.26717 0.35273 0.0
C41 C 0.38293 0.26602 0.31854 0.0
Zn42 Zn 0.94027 0.20596 0.75433 0.0
Zn43 Zn 0.02218 0.37041 0.69319 0.0
Zn44 Zn 0.97313 0.27629 0.79008 0.0
C45 C 0.10003 0.32854 0.76817 0.0
C46 C 0.96591 0.38386 0.83276 0.0
O47 O 0.90078 0.28019 0.71398 0.0
O48 O 0.92062 0.21941 0.65632 0.0
C49 C 0.00969 0.17403 0.84808 0.0
O50 O 0.05142 0.30948 0.77531 0.0
O51 O 0.10472 0.36051 0.72591 0.0
O52 O 0.97951 0.40023 0.77453 0.0
O53 O 0.96481 0.34142 0.8424 0.0
O54 O -0.00252 0.15919 0.78885 0.0
O55 O -0.00017 0.21578 0.86009 0.0
O56 O 0.94581 0.2442 0.88112 0.0
O57 O 0.87343 0.21539 0.82397 0.0
C58 C 0.894 0.22932 0.88038 0.0
O59 O 0.03347 0.26436 0.70551 0.0
O60 O -0.00426 0.31528 0.63732 0.0
C61 C 0.89308 0.25555 0.6609 0.0
C62 C 0.02901 0.28202 0.64541 0.0
Zn63 Zn 0.50031 0.83884 0.72757 0.0
Zn64 Zn 0.44546 0.70709 0.77026 0.0
Zn65 Zn 0.48583 0.77404 0.81874 0.0
C66 C 0.39457 0.72445 0.89184 0.0
C67 C 0.51012 0.66723 0.86607 0.0
O68 O 0.55135 0.75454 0.74585 0.0
O69 O 0.51682 0.79057 0.65592 0.0
C70 C 0.44392 0.87234 0.84265 0.0
O71 O 0.44715 0.73649 0.89938 0.0
O72 O 0.37572 0.71706 0.83219 0.0
O73 O 0.49476 0.655 0.80627 0.0
O74 O 0.50501 0.7091 0.88163 0.0
O75 O 0.43275 0.87099 0.77849 0.0
O76 O 0.47418 0.84054 0.86895 0.0
O77 O 0.54351 0.82566 0.8584 0.0
O78 O 0.57656 0.85864 0.76483 0.0
C79 C 0.58106 0.8504 0.82828 0.0
O80 O 0.41785 0.78408 0.73735 0.0
O81 O 0.42074 0.72274 0.6753 0.0
C82 C 0.5524 0.76271 0.68123 0.0
C83 C 0.4013 0.76174 0.68448 0.0
H84 H 0.92904 0.4025 0.93473 0.0
C85 C 0.95328 0.41512 0.89115 0.0
H86 H -0.00198 0.46944 0.84818 0.0
H87 H 0.90291 0.63792 0.99152 0.0
H88 H 0.87645 0.64952 0.87284 0.0
H89 H 0.88477 0.58925 0.78827 0.0
H90 H 0.92186 0.51719 0.82142 0.0
C91 C 0.97343 0.45782 0.89218 0.0
C92 C 0.96245 0.49232 0.94779 0.0
C93 C 0.93936 0.53458 0.92884 0.0
C94 C 0.93425 0.56978 0.97815 0.0
C95 C 0.90986 0.61067 0.95658 0.0
C96 C 0.89341 0.61762 0.88857 0.0
C97 C 0.89841 0.58373 0.84087 0.0
C98 C 0.92037 0.54256 0.8606 0.0
H99 H -0.0024 0.64803 0.05379 0.0
C100 C 0.97142 0.64019 0.09843 0.0
H101 H 0.92103 0.59105 0.14723 0.0
H102 H 0.01599 0.41913 1.00251 0.0
H103 H 0.04657 0.40853 0.12013 0.0
H104 H 0.03444 0.46789 0.20572 0.0
H105 H -0.00768 0.53859 0.17396 0.0
C106 C 0.94531 0.59963 0.10143 0.0
C107 C 0.95246 0.56345 0.04741 0.0
C108 C 0.97541 0.52118 0.06649 0.0
C109 C 0.98121 0.48612 0.01695 0.0
C110 C 0.00801 0.44599 0.0378 0.0
C111 C 0.02644 0.43959 0.10527 0.0
C112 C 0.01969 0.47304 0.15346 0.0
C113 C -0.00502 0.51345 0.13453 0.0
H114 H 0.5203 0.38427 0.04956 0.0
C115 C 0.52279 0.39502 0.10267 0.0
H116 H 0.53242 0.44848 0.17028 0.0
H117 H 0.59317 0.54201 0.86008 0.0
H118 H 0.65854 0.4808 0.8397 0.0
H119 H 0.66793 0.41951 0.92346 0.0
H120 H 0.61112 0.41831 0.02722 0.0
C121 C 0.52989 0.43919 0.1165 0.0
C122 C 0.52747 0.47749 0.06418 0.0
C123 C 0.56283 0.47913 0.00448 0.0
C124 C 0.55917 0.51595 0.95703 0.0
C125 C 0.59399 0.51529 0.89749 0.0
C126 C 0.63207 0.48049 0.88538 0.0
C127 C 0.63726 0.44592 0.93248 0.0
C128 C 0.60361 0.44529 0.99156 0.0
H129 H 0.54241 0.64536 0.96912 0.0
C130 C 0.52527 0.63314 0.92069 0.0
H131 H 0.49709 0.5768 0.86566 0.0
H132 H 0.452 0.48753 0.17106 0.0
H133 H 0.39564 0.55229 0.19774 0.0
H134 H 0.3968 0.61802 0.12247 0.0
H135 H 0.45126 0.61847 0.01703 0.0
C136 C 0.51375 0.5887 0.91453 0.0
C137 C 0.52283 0.55316 0.97013 0.0
C138 C 0.49022 0.55283 0.032 0.0
C139 C 0.4916 0.51504 0.07769 0.0
C140 C 0.45549 0.51552 0.13633 0.0
C141 C 0.42209 0.55241 0.15204 0.0
C142 C 0.42238 0.58933 0.10926 0.0
C143 C 0.45468 0.5893 0.04917 0.0
H144 H 0.40649 0.93991 0.85394 0.0
C145 C 0.43092 0.91455 0.88124 0.0
H146 H 0.47989 0.90053 0.96983 0.0
H147 H 0.55762 0.0897 0.06455 0.0
H148 H 0.64713 0.05753 0.02561 0.0
H149 H 0.6472 0.9869 0.96186 0.0
H150 H 0.55885 0.94706 0.9384 0.0
C151 C 0.45279 0.9249 0.94404 0.0
C152 C 0.44999 0.97125 0.97563 0.0
C153 C 0.50208 0.99512 0.98851 0.0
C154 C 0.50155 0.03718 0.02313 0.0
C155 C 0.55495 0.05865 0.03681 0.0
C156 C 0.60684 0.04044 0.01507 0.0
C157 C 0.60703 1.00054 0.97952 0.0
C158 C 0.55568 0.97793 0.96653 0.0
H159 H 0.41096 0.08335 0.17024 0.0
C160 C 0.43144 0.1105 0.14237 0.0
H161 H 0.47219 0.12925 0.05043 0.0
H162 H 0.34212 0.93524 0.96463 0.0
H163 H 0.25172 0.97011 0.99558 0.0
H164 H 0.25022 0.04533 0.04547 0.0
H165 H 0.33903 0.08592 0.06672 0.0
C166 C 0.44965 0.1027 0.07738 0.0
C167 C 0.44871 0.05692 0.04387 0.0
C168 C 0.39631 0.03382 0.02901 0.0
C169 C 0.39703 0.99084 0.99657 0.0
C170 C 0.34407 0.96825 0.98641 0.0
C171 C 0.29186 0.98782 0.00426 0.0
C172 C 0.291 0.03014 0.03264 0.0
C173 C 0.3424 0.053 0.04497 0.0
H174 H 0.04421 0.89859 0.05922 0.0
C175 C 0.02431 0.91089 0.1058 0.0
H176 H -0.00857 0.96738 0.1563 0.0
H177 H 0.11151 0.12011 0.98253 0.0
H178 H 0.17346 0.11957 0.08292 0.0
H179 H 0.16523 0.0603 0.17021 0.0
H180 H 0.09545 1.00047 0.15712 0.0
C181 C 0.01069 0.95495 0.10941 0.0
C182 C 0.0194 0.98898 0.05194 0.0
C183 C 0.0586 0.0252 0.0607 0.0
C184 C 0.0621 0.06063 0.01087 0.0
C185 C 0.10486 0.09386 0.01975 0.0
C186 C 0.14119 0.09371 0.07695 0.0
C187 C 0.13661 0.06027 0.1261 0.0
C188 C 0.09616 0.02625 0.11815 0.0
H189 H 0.0176 0.15461 0.95841 0.0
C190 C 0.02115 0.14193 0.90645 0.0
H191 H 0.03041 0.08544 0.84452 0.0
H192 H 0.94154 0.92493 0.01422 0.0
H193 H 0.88099 0.92483 0.91272 0.0
H194 H 0.87973 0.98881 0.8337 0.0
H195 H 0.94259 0.05197 0.85205 0.0
C196 C 0.02806 0.09733 0.89705 0.0
C197 C 0.02426 0.06159 0.95299 0.0
C198 C 0.98495 0.0253 0.94439 0.0
C199 C 0.98344 0.98891 0.9925 0.0
C200 C 0.94472 0.95325 0.98011 0.0
C201 C 0.90909 0.95293 0.92236 0.0
C202 C 0.90876 0.98882 0.87743 0.0
C203 C 0.94568 0.02475 0.88833 0.0
H204 H 0.35683 0.81668 0.62857 0.0
C205 C 0.35912 0.78079 0.63471 0.0
H206 H 0.32561 0.71831 0.60717 0.0
H207 H 0.11577 0.84918 0.48633 0.0
H208 H 0.1111 0.88323 0.59898 0.0
H209 H 0.1813 0.86341 0.68954 0.0
H210 H 0.25754 0.81069 0.66763 0.0
C211 C 0.32256 0.75409 0.59944 0.0
C212 C 0.28054 0.76932 0.54515 0.0
C213 C 0.23418 0.79865 0.56013 0.0
C214 C 0.19118 0.808 0.5091 0.0
C215 C 0.14781 0.83948 0.52403 0.0
C216 C 0.14481 0.85942 0.58835 0.0
C217 C 0.18451 0.8484 0.63924 0.0
C218 C 0.22854 0.81828 0.62571 0.0
H219 H 0.07903 0.76638 0.45567 0.0
C220 C 0.09006 0.77802 0.40442 0.0
H221 H 0.15683 0.80123 0.34058 0.0
H222 H 0.36641 0.7164 0.49491 0.0
H223 H 0.36681 0.6783 0.38546 0.0
H224 H 0.28568 0.68652 0.30403 0.0
H225 H 0.20483 0.73409 0.33073 0.0
C226 C 0.14453 0.79193 0.39251 0.0
C227 C 0.19187 0.78567 0.44491 0.0
C228 C 0.23792 0.75617 0.43036 0.0
C229 C 0.28301 0.74925 0.47926 0.0
C230 C 0.32982 0.72146 0.46109 0.0
C231 C 0.3308 0.69953 0.39823 0.0
C232 C 0.2853 0.70431 0.35228 0.0
C233 C 0.23933 0.73211 0.36799 0.0
H234 H 0.07633 0.29999 0.55151 0.0
C235 C 0.07433 0.27537 0.59252 0.0
H236 H 0.11343 0.21872 0.63569 0.0
H237 H 0.22586 0.26209 0.31923 0.0
H238 H 0.12863 0.25286 0.27485 0.0
H239 H 0.04766 0.23606 0.35268 0.0
H240 H 0.06318 0.22947 0.47563 0.0
C241 C 0.11456 0.24304 0.59431 0.0
C242 C 0.16471 0.24294 0.54493 0.0
C243 C 0.1557 0.24405 0.47255 0.0
C244 C 0.20307 0.25154 0.42709 0.0
C245 C 0.19191 0.25537 0.35578 0.0
C246 C 0.13627 0.25013 0.32961 0.0
C247 C 0.09064 0.24082 0.37346 0.0
C248 C 0.10002 0.23761 0.44403 0.0
H249 H 0.32305 0.21269 0.3546 0.0
C250 C 0.33607 0.2471 0.36215 0.0
H251 H 0.32209 0.30642 0.41735 0.0
H252 H 0.19998 0.23527 0.67882 0.0
H253 H 0.29827 0.23736 0.72159 0.0
H254 H 0.37991 0.24798 0.64255 0.0
H255 H 0.36376 0.25602 0.51984 0.0
C256 C 0.30825 0.27228 0.40885 0.0
C257 C 0.26 0.2558 0.45346 0.0
C258 C 0.26965 0.25037 0.52496 0.0
C259 C 0.22227 0.24395 0.57062 0.0
C260 C 0.23393 0.23977 0.64177 0.0
C261 C 0.29024 0.24107 0.66708 0.0
C262 C 0.33625 0.24703 0.62256 0.0
C263 C 0.32635 0.25176 0.55233 0.0
H264 H 0.85913 0.25091 0.55567 0.0
C265 C 0.85196 0.26678 0.60499 0.0
H266 H 0.79344 0.30434 0.6637 0.0
H267 H 0.64527 0.37723 0.41201 0.0
H268 H 0.68541 0.44567 0.45864 0.0
H269 H 0.75859 0.4436 0.551 0.0
H270 H 0.79202 0.37321 0.59781 0.0
C271 C 0.80209 0.28874 0.61459 0.0
C272 C 0.75626 0.29011 0.55955 0.0
C273 C 0.73726 0.33151 0.53234 0.0
C274 C 0.69526 0.33277 0.4784 0.0
C275 C 0.6771 0.37453 0.45266 0.0
C276 C 0.69979 0.41399 0.47893 0.0
C277 C 0.74101 0.41281 0.53099 0.0
C278 C 0.75978 0.37218 0.55747 0.0
H279 H 0.55927 0.27942 0.45977 0.0
C280 C 0.57281 0.28363 0.40672 0.0
H281 H 0.64409 0.29577 0.34179 0.0
H282 H 0.77209 0.20508 0.60869 0.0
H283 H 0.73486 0.1371 0.55896 0.0
H284 H 0.67095 0.13918 0.45736 0.0
H285 H 0.64252 0.20939 0.40634 0.0
C286 C 0.62856 0.29353 0.39426 0.0
C287 C 0.67241 0.29271 0.45115 0.0
C288 C 0.69144 0.25129 0.47811 0.0
C289 C 0.73151 0.25 0.5339 0.0
C290 C 0.74513 0.20814 0.5635 0.0
C291 C 0.72342 0.16875 0.53598 0.0
C292 C 0.68722 0.16992 0.47902 0.0
C293 C 0.67107 0.21056 0.45041 0.0
H294 H 0.81348 0.73723 0.34242 0.0
C295 C 0.84348 0.76011 0.36693 0.0
H296 H 0.86364 0.79817 0.45387 0.0
H297 H 0.62758 0.84525 0.57875 0.0
H298 H 0.66798 0.91717 0.54968 0.0
H299 H 0.75612 0.92319 0.47983 0.0
H300 H 0.80494 0.85746 0.43973 0.0
C301 C 0.83245 0.77563 0.43062 0.0
C302 C 0.77542 0.77043 0.46679 0.0
C303 C 0.74557 0.80943 0.48748 0.0
C304 C 0.69316 0.80605 0.52531 0.0
C305 C 0.66633 0.84569 0.54796 0.0
C306 C 0.6892 0.88733 0.53196 0.0
C307 C 0.73891 0.89071 0.49288 0.0
C308 C 0.76679 0.85246 0.47061 0.0
H309 H 0.63833 0.73198 0.66662 0.0
C310 C 0.60297 0.74831 0.63985 0.0
H311 H 0.57577 0.77966 0.54854 0.0
H312 H 0.82414 0.68877 0.44536 0.0
H313 H 0.78146 0.61686 0.47098 0.0
H314 H 0.68607 0.6113 0.5261 0.0
H315 H 0.63328 0.67775 0.55754 0.0
C316 C 0.61048 0.76183 0.5742 0.0
C317 C 0.66863 0.76375 0.54031 0.0
C318 C 0.69811 0.72474 0.51958 0.0
C319 C 0.75213 0.72802 0.48442 0.0
C320 C 0.78197 0.68838 0.46879 0.0
C321 C 0.75815 0.64683 0.48381 0.0
C322 C 0.7045 0.6437 0.51508 0.0
C323 C 0.6747 0.68208 0.533 0.0
H324 H 0.31195 0.71229 0.94175 0.0
C325 C 0.35833 0.7138 0.95047 0.0
H326 H 0.42632 0.70635 0.02263 0.0
H327 H 0.23591 0.77457 0.23272 0.0
H328 H 0.31354 0.82782 0.25023 0.0
H329 H 0.40487 0.82131 0.18627 0.0
H330 H 0.41869 0.76149 0.1043 0.0
C331 C 0.38014 0.70497 0.01287 0.0
C332 C 0.33958 0.69742 0.07004 0.0
C333 C 0.3341 0.73073 0.12048 0.0
C334 C 0.28213 0.73391 0.15806 0.0
C335 C 0.27525 0.76987 0.20409 0.0
C336 C 0.31936 0.80081 0.21432 0.0
C337 C 0.37072 0.79717 0.17828 0.0
C338 C 0.37807 0.76279 0.13136 0.0
H339 H 0.17615 0.65658 0.24201 0.0
C340 C 0.15405 0.68558 0.22136 0.0
H341 H 0.15843 0.74131 0.15507 0.0
H342 H 0.34506 0.62338 0.98979 0.0
H343 H 0.27064 0.5667 0.97682 0.0
H344 H 0.17911 0.57214 0.04054 0.0
H345 H 0.16186 0.63342 0.11753 0.0
C346 C 0.17966 0.71157 0.17447 0.0
C347 C 0.23754 0.70226 0.1473 0.0
C348 C 0.24621 0.66556 0.10293 0.0
C349 C 0.29791 0.66299 0.06475 0.0
C350 C 0.30593 0.62686 0.01935 0.0
C351 C 0.26369 0.5942 0.01153 0.0
C352 C 0.21229 0.59721 0.04754 0.0
C353 C 0.20316 0.63257 0.09224 0.0
H354 H 0.14117 0.29974 0.85824 0.0
C355 C 0.14917 0.31191 0.80644 0.0
H356 H 0.21001 0.32275 0.72789 0.0
H357 H 0.37608 0.36979 0.97601 0.0
H358 H 0.39116 0.43145 0.89755 0.0
H359 H 0.34364 0.43275 0.78381 0.0
H360 H 0.28031 0.37231 0.74849 0.0
C361 C 0.20222 0.31088 0.77982 0.0
C362 C 0.25078 0.29943 0.82579 0.0
C363 C 0.29073 0.33329 0.84281 0.0
C364 C 0.31915 0.33188 0.9073 0.0
C365 C 0.35469 0.36828 0.92662 0.0
C366 C 0.36347 0.40411 0.88218 0.0
C367 C 0.33662 0.40489 0.81824 0.0
C368 C 0.30022 0.37013 0.79871 0.0
H369 H 0.41695 0.2862 0.99284 0.0
C370 C 0.38716 0.29084 0.03523 0.0
H371 H 0.30027 0.29895 0.0645 0.0
H372 H 0.19105 0.2233 0.79626 0.0
H373 H 0.18356 0.15722 0.86874 0.0
H374 H 0.23494 0.15352 0.98004 0.0
H375 H 0.29345 0.21586 0.01957 0.0
C376 C 0.33112 0.29621 0.02285 0.0
C377 C 0.30934 0.29524 0.95194 0.0
C378 C 0.27688 0.25805 0.92968 0.0
C379 C 0.24775 0.26002 0.86586 0.0
C380 C 0.21403 0.22314 0.84468 0.0
C381 C 0.20954 0.18516 0.88568 0.0
C382 C 0.23837 0.18311 0.94839 0.0
C383 C 0.27166 0.2191 0.97051 0.0
H384 H 0.62194 0.15682 0.11036 0.0
C385 C 0.62812 0.16187 0.16526 0.0
H386 H 0.68905 0.1754 0.24354 0.0
H387 H 0.84596 0.11589 0.97329 0.0
H388 H 0.84718 0.04373 0.03004 0.0
H389 H 0.79222 0.03115 0.1372 0.0
H390 H 0.73668 0.09093 0.18829 0.0
C391 C 0.68175 0.16617 0.19024 0.0
C392 C 0.72749 0.17563 0.13975 0.0
C393 C 0.7587 0.14041 0.11018 0.0
C394 C 0.78952 0.14768 0.04837 0.0
C395 C 0.8212 0.11204 0.01997 0.0
C396 C 0.82221 0.07048 0.05202 0.0
C397 C 0.7913 0.06335 0.11221 0.0
C398 C 0.75952 0.09778 0.14099 0.0
H399 H 0.88223 0.23686 0.99148 0.0
C400 C 0.86421 0.22181 0.94536 0.0
H401 H 0.79954 0.17951 0.90478 0.0
H402 H 0.68104 0.25189 0.19208 0.0
H403 H 0.67975 0.32457 0.13698 0.0
H404 H 0.72656 0.33628 0.02469 0.0
H405 H 0.77538 0.27578 0.96754 0.0
C406 C 0.81659 0.19676 0.94949 0.0
C407 C 0.7879 0.19008 0.01628 0.0
C408 C 0.75905 0.22605 0.04802 0.0
C409 C 0.73034 0.21902 0.11118 0.0
C410 C 0.70242 0.25537 0.14301 0.0
C411 C 0.70155 0.29724 0.11213 0.0
C412 C 0.72802 0.30384 0.04904 0.0
C413 C 0.75634 0.2688 0.01702 0.0
H414 H 0.91576 0.81019 0.99726 0.0
C415 C 0.88894 0.80435 0.04211 0.0
H416 H 0.80454 0.80184 0.08217 0.0
H417 H 0.71914 0.95144 0.88183 0.0
H418 H 0.75392 0.99875 0.97538 0.0
H419 H 0.81074 0.96655 0.07109 0.0
H420 H 0.8346 0.8883 0.07316 0.0
C421 C 0.83153 0.8067 0.03721 0.0
C422 C 0.80413 0.82629 0.97606 0.0
C423 C 0.79056 0.8722 0.97646 0.0
C424 C 0.75675 0.8904 0.92268 0.0
C425 C 0.74385 0.93628 0.92301 0.0
C426 C 0.76359 0.96354 0.97602 0.0
C427 C 0.7955 0.94552 0.02991 0.0
C428 C 0.80896 0.90041 0.03048 0.0
H429 H 0.63231 0.85823 0.92169 0.0
C430 C 0.63187 0.86508 0.86673 0.0
H431 H 0.68277 0.87835 0.77897 0.0
H432 H 0.82761 0.73785 0.95778 0.0
H433 H 0.79366 0.69183 0.86289 0.0
H434 H 0.73637 0.7242 0.76837 0.0
H435 H 0.71037 0.80251 0.76915 0.0
C436 C 0.68153 0.87448 0.83448 0.0
C437 C 0.73516 0.86232 0.87074 0.0
C438 C 0.75378 0.81759 0.86643 0.0
C439 C 0.78785 0.79922 0.91999 0.0
C440 C 0.80223 0.75353 0.91769 0.0
C441 C 0.78336 0.72685 0.86353 0.0
C442 C 0.75071 0.74503 0.81041 0.0
C443 C 0.73593 0.78988 0.81158 0.0
loop_
_geom_bond_atom_site_label_1
_geom_bond_atom_site_label_2
_geom_bond_distance
_geom_bond_site_symmetry_2
_ccdc_geom_bond_type
Zn0 O6 1.920 . S
Zn0 O12 1.898 . S
Zn0 O15 1.905 . S
Zn1 O9 1.905 . S
Zn1 O10 1.898 . S
Zn1 O18 1.920 . S
Zn2 O5 2.080 1_455 S
Zn2 O8 2.114 . S
Zn2 O11 2.120 1_455 S
Zn2 O13 2.120 . S
Zn2 O14 2.114 1_455 S
Zn2 O17 2.080 . S
C3 O8 1.166 . S
C3 O9 1.182 . S
C4 O10 1.167 . S
C4 O11 1.299 1_455 S
O5 Zn2 2.080 1_655 S
O5 C19 1.305 . S
O6 Zn0 1.920 . S
O6 C19 1.234 . S
C7 O12 1.167 . S
C7 O13 1.299 1_655 S
O8 Zn2 2.114 . S
O8 C3 1.166 . S
O9 Zn1 1.905 . S
O9 C3 1.182 . S
O10 Zn1 1.898 . S
O10 C4 1.167 . S
O11 Zn2 2.120 1_655 S
O11 C4 1.299 1_655 S
O12 Zn0 1.898 . S
O12 C7 1.167 . S
O13 Zn2 2.120 . S
O13 C7 1.299 1_455 S
O14 Zn2 2.114 1_655 S
O14 C16 1.166 . S
O15 Zn0 1.905 . S
O15 C16 1.182 . S
C16 O14 1.166 . S
C16 O15 1.182 . S
O17 Zn2 2.080 . S
O17 C20 1.305 . S
O18 Zn1 1.920 . S
O18 C20 1.234 . S
C19 O5 1.305 . S
C19 O6 1.234 . S
C20 O17 1.305 . S
C20 O18 1.234 . S
Zn21 O27 1.920 . S
Zn21 O33 1.898 . S
Zn21 O36 1.905 . S
Zn22 O30 1.905 . S
Zn22 O31 1.898 . S
Zn22 O39 1.920 . S
Zn23 O26 2.080 . S
Zn23 O29 2.114 . S
Zn23 O32 2.120 . S
Zn23 O34 2.120 . S
Zn23 O35 2.114 . S
Zn23 O38 2.080 . S
C24 O29 1.166 . S
C24 O30 1.182 . S
C25 O31 1.167 . S
C25 O32 1.299 . S
O26 Zn23 2.080 . S
O26 C40 1.305 . S
O27 Zn21 1.920 . S
O27 C40 1.234 . S
C28 O33 1.167 . S
C28 O34 1.299 . S
O29 Zn23 2.114 . S
O29 C24 1.166 . S
O30 Zn22 1.905 . S
O30 C24 1.182 . S
O31 Zn22 1.898 . S
O31 C25 1.167 . S
O32 Zn23 2.120 . S
O32 C25 1.299 . S
O33 Zn21 1.898 . S
O33 C28 1.167 . S
O34 Zn23 2.120 . S
O34 C28 1.299 . S
O35 Zn23 2.114 . S
O35 C37 1.166 . S
O36 Zn21 1.905 . S
O36 C37 1.182 . S
C37 O35 1.166 . S
C37 O36 1.182 . S
O38 Zn23 2.080 . S
O38 C41 1.305 . S
O39 Zn22 1.920 . S
O39 C41 1.234 . S
C40 O26 1.305 . S
C40 O27 1.234 . S
C41 O38 1.305 . S
C41 O39 1.234 . S
Zn42 O48 1.920 . S
Zn42 O54 1.898 . S
Zn42 O57 1.905 . S
Zn43 O51 1.905 . S
Zn43 O52 1.898 . S
Zn43 O60 1.920 . S
Zn44 O47 2.080 1_455 S
Zn44 O50 2.114 . S
Zn44 O53 2.120 1_455 S
Zn44 O55 2.120 . S
Zn44 O56 2.114 1_455 S
Zn44 O59 2.080 . S
C45 O50 1.166 . S
C45 O51 1.182 . S
C46 O52 1.167 . S
C46 O53 1.299 1_455 S
O47 Zn44 2.080 1_655 S
O47 C61 1.305 . S
O48 Zn42 1.920 . S
O48 C61 1.234 . S
C49 O54 1.167 . S
C49 O55 1.299 1_655 S
O50 Zn44 2.114 . S
O50 C45 1.166 . S
O51 Zn43 1.905 . S
O51 C45 1.182 . S
O52 Zn43 1.898 . S
O52 C46 1.167 . S
O53 Zn44 2.120 1_655 S
O53 C46 1.299 1_655 S
O54 Zn42 1.898 . S
O54 C49 1.167 . S
O55 Zn44 2.120 . S
O55 C49 1.299 1_455 S
O56 Zn44 2.114 1_655 S
O56 C58 1.166 . S
O57 Zn42 1.905 . S
O57 C58 1.182 . S
C58 O56 1.166 . S
C58 O57 1.182 . S
O59 Zn44 2.080 . S
O59 C62 1.305 . S
O60 Zn43 1.920 . S
O60 C62 1.234 . S
C61 O47 1.305 . S
C61 O48 1.234 . S
C62 O59 1.305 . S
C62 O60 1.234 . S
Zn63 O69 1.920 . S
Zn63 O75 1.898 . S
Zn63 O78 1.905 . S
Zn64 O72 1.905 . S
Zn64 O73 1.898 . S
Zn64 O81 1.920 . S
Zn65 O68 2.080 . S
Zn65 O71 2.114 . S
Zn65 O74 2.120 . S
Zn65 O76 2.120 . S
Zn65 O77 2.114 . S
Zn65 O80 2.080 . S
C66 O71 1.166 . S
C66 O72 1.182 . S
C67 O73 1.167 . S
C67 O74 1.299 . S
O68 Zn65 2.080 . S
O68 C82 1.305 . S
O69 Zn63 1.920 . S
O69 C82 1.234 . S
C70 O75 1.167 . S
C70 O76 1.299 . S
O71 Zn65 2.114 . S
O71 C66 1.166 . S
O72 Zn64 1.905 . S
O72 C66 1.182 . S
O73 Zn64 1.898 . S
O73 C67 1.167 . S
O74 Zn65 2.120 . S
O74 C67 1.299 . S
O75 Zn63 1.898 . S
O75 C70 1.167 . S
O76 Zn65 2.120 . S
O76 C70 1.299 . S
O77 Zn65 2.114 . S
O77 C79 1.166 . S
O78 Zn63 1.905 . S
O78 C79 1.182 . S
C79 O77 1.166 . S
C79 O78 1.182 . S
O80 Zn65 2.080 . S
O80 C83 1.305 . S
O81 Zn64 1.920 . S
O81 C83 1.234 . S
C82 O68 1.305 . S
C82 O69 1.234 . S
C83 O80 1.305 . S
C83 O81 1.234 . S
H84 C85 0.951 . S
C85 H84 0.951 . S
C85 C91 1.265 1_655 S
H86 C91 0.950 . S
H87 C95 0.949 . S
H88 C96 0.950 . S
H89 C97 0.951 . S
H90 C98 0.951 . S
C91 C85 1.265 1_455 S
C91 H86 0.950 . S
C91 C92 1.478 . S
C92 C91 1.478 . S
C92 C93 1.397 . S
C92 C109 1.394 1_456 S
C93 C92 1.397 . S
C93 C94 1.438 1_455 S
C93 C98 1.429 . S
C94 C93 1.438 1_655 S
C94 C95 1.428 . S
C94 C107 1.394 1_556 S
C95 H87 0.949 . S
C95 C94 1.428 . S
C95 C96 1.345 . S
C96 H88 0.950 . S
C96 C95 1.345 . S
C96 C97 1.424 1_655 S
C97 H89 0.951 . S
C97 C96 1.424 1_455 S
C97 C98 1.347 . S
C98 H90 0.951 . S
C98 C93 1.429 . S
C98 C97 1.347 . S
H99 C100 0.951 . S
C100 H99 0.951 . S
C100 C106 1.265 1_455 S
H101 C106 0.950 . S
H102 C110 0.949 . S
H103 C111 0.950 . S
H104 C112 0.951 . S
H105 C113 0.951 . S
C106 C100 1.265 1_655 S
C106 H101 0.950 . S
C106 C107 1.478 . S
C107 C94 1.394 1_554 S
C107 C106 1.478 . S
C107 C108 1.397 . S
C108 C107 1.397 . S
C108 C109 1.438 . S
C108 C113 1.429 . S
C109 C92 1.394 1_654 S
C109 C108 1.438 . S
C109 C110 1.428 1_655 S
C110 H102 0.949 . S
C110 C109 1.428 1_455 S
C110 C111 1.345 1_455 S
C111 H103 0.950 . S
C111 C110 1.345 1_655 S
C111 C112 1.424 . S
C112 H104 0.951 . S
C112 C111 1.424 . S
C112 C113 1.347 . S
C113 H105 0.951 . S
C113 C108 1.429 . S
C113 C112 1.347 . S
H114 C115 0.951 . S
C115 H114 0.951 . S
C115 C121 1.265 . S
H116 C121 0.950 . S
H117 C125 0.949 . S
H118 C126 0.950 . S
H119 C127 0.951 . S
H120 C128 0.951 . S
C121 C115 1.265 . S
C121 H116 0.950 . S
C121 C122 1.478 . S
C122 C121 1.478 . S
C122 C123 1.397 1_554 S
C122 C139 1.394 . S
C123 C122 1.397 1_556 S
C123 C124 1.438 . S
C123 C128 1.429 . S
C124 C123 1.438 . S
C124 C125 1.428 . S
C124 C137 1.394 . S
C125 H117 0.949 . S
C125 C124 1.428 . S
C125 C126 1.345 . S
C126 H118 0.950 . S
C126 C125 1.345 . S
C126 C127 1.424 . S
C127 H119 0.951 . S
C127 C126 1.424 . S
C127 C128 1.347 . S
C128 H120 0.951 . S
C128 C123 1.429 . S
C128 C127 1.347 . S
H129 C130 0.951 . S
C130 H129 0.951 . S
C130 C136 1.265 . S
H131 C136 0.950 . S
H132 C140 0.949 . S
H133 C141 0.950 . S
H134 C142 0.951 . S
H135 C143 0.951 . S
C136 C130 1.265 . S
C136 H131 0.950 . S
C136 C137 1.478 . S
C137 C124 1.394 . S
C137 C136 1.478 . S
C137 C138 1.397 1_556 S
C138 C137 1.397 1_554 S
C138 C139 1.438 . S
C138 C143 1.429 . S
C139 C122 1.394 . S
C139 C138 1.438 . S
C139 C140 1.428 . S
C140 H132 0.949 . S
C140 C139 1.428 . S
C140 C141 1.345 . S
C141 H133 0.950 . S
C141 C140 1.345 . S
C141 C142 1.424 . S
C142 H134 0.951 . S
C142 C141 1.424 . S
C142 C143 1.347 . S
C143 H135 0.951 . S
C143 C138 1.429 . S
C143 C142 1.347 . S
H144 C145 0.951 . S
C145 H144 0.951 . S
C145 C151 1.265 . S
H146 C151 0.950 . S
H147 C155 0.949 . S
H148 C156 0.950 . S
H149 C157 0.951 . S
H150 C158 0.951 1_556 S
C151 C145 1.265 . S
C151 H146 0.950 . S
C151 C152 1.478 . S
C152 C151 1.478 . S
C152 C153 1.397 1_556 S
C152 C169 1.394 . S
C153 C152 1.397 1_554 S
C153 C154 1.438 1_565 S
C153 C158 1.429 . S
C154 C153 1.438 1_545 S
C154 C155 1.428 . S
C154 C167 1.394 . S
C155 H147 0.949 . S
C155 C154 1.428 . S
C155 C156 1.345 . S
C156 H148 0.950 . S
C156 C155 1.345 . S
C156 C157 1.424 1_545 S
C157 H149 0.951 . S
C157 C156 1.424 1_565 S
C157 C158 1.347 . S
C158 H150 0.951 1_554 S
C158 C153 1.429 . S
C158 C157 1.347 . S
H159 C160 0.951 . S
C160 H159 0.951 . S
C160 C166 1.265 . S
H161 C166 0.950 . S
H162 C170 0.949 . S
H163 C171 0.950 . S
H164 C172 0.951 . S
H165 C173 0.951 1_554 S
C166 C160 1.265 . S
C166 H161 0.950 . S
C166 C167 1.478 . S
C167 C154 1.394 . S
C167 C166 1.478 . S
C167 C168 1.397 1_554 S
C168 C167 1.397 1_556 S
C168 C169 1.438 1_545 S
C168 C173 1.429 . S
C169 C152 1.394 . S
C169 C168 1.438 1_565 S
C169 C170 1.428 . S
C170 H162 0.949 . S
C170 C169 1.428 . S
C170 C171 1.345 . S
C171 H163 0.950 . S
C171 C170 1.345 . S
C171 C172 1.424 1_565 S
C172 H164 0.951 . S
C172 C171 1.424 1_545 S
C172 C173 1.347 . S
C173 H165 0.951 1_556 S
C173 C168 1.429 . S
C173 C172 1.347 . S
H174 C175 0.951 . S
C175 H174 0.951 . S
C175 C181 1.265 1_455 S
H176 C181 0.950 . S
H177 C185 0.949 1_455 S
H178 C186 0.950 . S
H179 C187 0.951 . S
H180 C188 0.951 1_565 S
C181 C175 1.265 1_655 S
C181 H176 0.950 . S
C181 C182 1.478 . S
C182 C181 1.478 . S
C182 C183 1.397 1_565 S
C182 C199 1.394 1_654 S
C183 C182 1.397 1_545 S
C183 C184 1.438 . S
C183 C188 1.429 . S
C184 C183 1.438 . S
C184 C185 1.428 . S
C184 C197 1.394 1_654 S
C185 H177 0.949 1_655 S
C185 C184 1.428 . S
C185 C186 1.345 . S
C186 H178 0.950 . S
C186 C185 1.345 . S
C186 C187 1.424 . S
C187 H179 0.951 . S
C187 C186 1.424 . S
C187 C188 1.347 . S
C188 H180 0.951 1_545 S
C188 C183 1.429 . S
C188 C187 1.347 . S
H189 C190 0.951 . S
C190 H189 0.951 . S
C190 C196 1.265 1_655 S
H191 C196 0.950 . S
H192 C200 0.949 . S
H193 C201 0.950 . S
H194 C202 0.951 . S
H195 C203 0.951 1_545 S
C196 C190 1.265 1_455 S
C196 H191 0.950 . S
C196 C197 1.478 . S
C197 C184 1.394 1_456 S
C197 C196 1.478 . S
C197 C198 1.397 1_545 S
C198 C197 1.397 1_565 S
C198 C199 1.438 . S
C198 C203 1.429 . S
C199 C182 1.394 1_456 S
C199 C198 1.438 . S
C199 C200 1.428 . S
C200 H192 0.949 . S
C200 C199 1.428 . S
C200 C201 1.345 . S
C201 H193 0.950 . S
C201 C200 1.345 . S
C201 C202 1.424 . S
C202 H194 0.951 . S
C202 C201 1.424 . S
C202 C203 1.347 . S
C203 H195 0.951 1_565 S
C203 C198 1.429 . S
C203 C202 1.347 . S
H204 C205 0.951 . S
C205 H204 0.951 . S
C205 C211 1.265 . S
H206 C211 0.950 . S
H207 C215 0.949 . S
H208 C216 0.950 . S
H209 C217 0.951 . S
H210 C218 0.951 . S
C211 C205 1.265 . S
C211 H206 0.950 . S
C211 C212 1.478 . S
C212 C211 1.478 . S
C212 C213 1.397 . S
C212 C229 1.394 . S
C213 C212 1.397 . S
C213 C214 1.438 . S
C213 C218 1.429 . S
C214 C213 1.438 . S
C214 C215 1.428 . S
C214 C227 1.394 . S
C215 H207 0.949 . S
C215 C214 1.428 . S
C215 C216 1.345 . S
C216 H208 0.950 . S
C216 C215 1.345 . S
C216 C217 1.424 . S
C217 H209 0.951 . S
C217 C216 1.424 . S
C217 C218 1.347 . S
C218 H210 0.951 . S
C218 C213 1.429 . S
C218 C217 1.347 . S
H219 C220 0.951 . S
C220 H219 0.951 . S
C220 C226 1.265 . S
H221 C226 0.950 . S
H222 C230 0.949 . S
H223 C231 0.950 . S
H224 C232 0.951 . S
H225 C233 0.951 . S
C226 C220 1.265 . S
C226 H221 0.950 . S
C226 C227 1.478 . S
C227 C214 1.394 . S
C227 C226 1.478 . S
C227 C228 1.397 . S
C228 C227 1.397 . S
C228 C229 1.438 . S
C228 C233 1.429 . S
C229 C212 1.394 . S
C229 C228 1.438 . S
C229 C230 1.428 . S
C230 H222 0.949 . S
C230 C229 1.428 . S
C230 C231 1.345 . S
C231 H223 0.950 . S
C231 C230 1.345 . S
C231 C232 1.424 . S
C232 H224 0.951 . S
C232 C231 1.424 . S
C232 C233 1.347 . S
C233 H225 0.951 . S
C233 C228 1.429 . S
C233 C232 1.347 . S
H234 C235 0.951 . S
C235 H234 0.951 . S
C235 C241 1.265 . S
H236 C241 0.950 . S
H237 C245 0.949 . S
H238 C246 0.950 . S
H239 C247 0.951 . S
H240 C248 0.951 . S
C241 C235 1.265 . S
C241 H236 0.950 . S
C241 C242 1.478 . S
C242 C241 1.478 . S
C242 C243 1.397 . S
C242 C259 1.394 . S
C243 C242 1.397 . S
C243 C244 1.438 . S
C243 C248 1.429 . S
C244 C243 1.438 . S
C244 C245 1.428 . S
C244 C257 1.394 . S
C245 H237 0.949 . S
C245 C244 1.428 . S
C245 C246 1.345 . S
C246 H238 0.950 . S
C246 C245 1.345 . S
C246 C247 1.424 . S
C247 H239 0.951 . S
C247 C246 1.424 . S
C247 C248 1.347 . S
C248 H240 0.951 . S
C248 C243 1.429 . S
C248 C247 1.347 . S
H249 C250 0.951 . S
C250 H249 0.951 . S
C250 C256 1.265 . S
H251 C256 0.950 . S
H252 C260 0.949 . S
H253 C261 0.950 . S
H254 C262 0.951 . S
H255 C263 0.951 . S
C256 C250 1.265 . S
C256 H251 0.950 . S
C256 C257 1.478 . S
C257 C244 1.394 . S
C257 C256 1.478 . S
C257 C258 1.397 . S
C258 C257 1.397 . S
C258 C259 1.438 . S
C258 C263 1.429 . S
C259 C242 1.394 . S
C259 C258 1.438 . S
C259 C260 1.428 . S
C260 H252 0.949 . S
C260 C259 1.428 . S
C260 C261 1.345 . S
C261 H253 0.950 . S
C261 C260 1.345 . S
C261 C262 1.424 . S
C262 H254 0.951 . S
C262 C261 1.424 . S
C262 C263 1.347 . S
C263 H255 0.951 . S
C263 C258 1.429 . S
C263 C262 1.347 . S
H264 C265 0.951 . S
C265 H264 0.951 . S
C265 C271 1.265 . S
H266 C271 0.950 . S
H267 C275 0.949 . S
H268 C276 0.950 . S
H269 C277 0.951 . S
H270 C278 0.951 . S
C271 C265 1.265 . S
C271 H266 0.950 . S
C271 C272 1.478 . S
C272 C271 1.478 . S
C272 C273 1.397 . S
C272 C289 1.394 . S
C273 C272 1.397 . S
C273 C274 1.438 . S
C273 C278 1.429 . S
C274 C273 1.438 . S
C274 C275 1.428 . S
C274 C287 1.394 . S
C275 H267 0.949 . S
C275 C274 1.428 . S
C275 C276 1.345 . S
C276 H268 0.950 . S
C276 C275 1.345 . S
C276 C277 1.424 . S
C277 H269 0.951 . S
C277 C276 1.424 . S
C277 C278 1.347 . S
C278 H270 0.951 . S
C278 C273 1.429 . S
C278 C277 1.347 . S
H279 C280 0.951 . S
C280 H279 0.951 . S
C280 C286 1.265 . S
H281 C286 0.950 . S
H282 C290 0.949 . S
H283 C291 0.950 . S
H284 C292 0.951 . S
H285 C293 0.951 . S
C286 C280 1.265 . S
C286 H281 0.950 . S
C286 C287 1.478 . S
C287 C274 1.394 . S
C287 C286 1.478 . S
C287 C288 1.397 . S
C288 C287 1.397 . S
C288 C289 1.438 . S
C288 C293 1.429 . S
C289 C272 1.394 . S
C289 C288 1.438 . S
C289 C290 1.428 . S
C290 H282 0.949 . S
C290 C289 1.428 . S
C290 C291 1.345 . S
C291 H283 0.950 . S
C291 C290 1.345 . S
C291 C292 1.424 . S
C292 H284 0.951 . S
C292 C291 1.424 . S
C292 C293 1.347 . S
C293 H285 0.951 . S
C293 C288 1.429 . S
C293 C292 1.347 . S
H294 C295 0.951 . S
C295 H294 0.951 . S
C295 C301 1.265 . S
H296 C301 0.950 . S
H297 C305 0.949 . S
H298 C306 0.950 . S
H299 C307 0.951 . S
H300 C308 0.951 . S
C301 C295 1.265 . S
C301 H296 0.950 . S
C301 C302 1.478 . S
C302 C301 1.478 . S
C302 C303 1.397 . S
C302 C319 1.394 . S
C303 C302 1.397 . S
C303 C304 1.438 . S
C303 C308 1.429 . S
C304 C303 1.438 . S
C304 C305 1.428 . S
C304 C317 1.394 . S
C305 H297 0.949 . S
C305 C304 1.428 . S
C305 C306 1.345 . S
C306 H298 0.950 . S
C306 C305 1.345 . S
C306 C307 1.424 . S
C307 H299 0.951 . S
C307 C306 1.424 . S
C307 C308 1.347 . S
C308 H300 0.951 . S
C308 C303 1.429 . S
C308 C307 1.347 . S
H309 C310 0.951 . S
C310 H309 0.951 . S
C310 C316 1.265 . S
H311 C316 0.950 . S
H312 C320 0.949 . S
H313 C321 0.950 . S
H314 C322 0.951 . S
H315 C323 0.951 . S
C316 C310 1.265 . S
C316 H311 0.950 . S
C316 C317 1.478 . S
C317 C304 1.394 . S
C317 C316 1.478 . S
C317 C318 1.397 . S
C318 C317 1.397 . S
C318 C319 1.438 . S
C318 C323 1.429 . S
C319 C302 1.394 . S
C319 C318 1.438 . S
C319 C320 1.428 . S
C320 H312 0.949 . S
C320 C319 1.428 . S
C320 C321 1.345 . S
C321 H313 0.950 . S
C321 C320 1.345 . S
C321 C322 1.424 . S
C322 H314 0.951 . S
C322 C321 1.424 . S
C322 C323 1.347 . S
C323 H315 0.951 . S
C323 C318 1.429 . S
C323 C322 1.347 . S
H324 C325 0.951 . S
C325 H324 0.951 . S
C325 C331 1.265 . S
H326 C331 0.950 1_554 S
H327 C335 0.949 . S
H328 C336 0.950 . S
H329 C337 0.951 . S
H330 C338 0.951 . S
C331 C325 1.265 . S
C331 H326 0.950 1_556 S
C331 C332 1.478 . S
C332 C331 1.478 . S
C332 C333 1.397 1_556 S
C332 C349 1.394 . S
C333 C332 1.397 1_554 S
C333 C334 1.438 . S
C333 C338 1.429 . S
C334 C333 1.438 . S
C334 C335 1.428 . S
C334 C347 1.394 . S
C335 H327 0.949 . S
C335 C334 1.428 . S
C335 C336 1.345 . S
C336 H328 0.950 . S
C336 C335 1.345 . S
C336 C337 1.424 . S
C337 H329 0.951 . S
C337 C336 1.424 . S
C337 C338 1.347 . S
C338 H330 0.951 . S
C338 C333 1.429 . S
C338 C337 1.347 . S
H339 C340 0.951 . S
C340 H339 0.951 . S
C340 C346 1.265 . S
H341 C346 0.950 1_556 S
H342 C350 0.949 . S
H343 C351 0.950 . S
H344 C352 0.951 . S
H345 C353 0.951 . S
C346 C340 1.265 . S
C346 H341 0.950 1_554 S
C346 C347 1.478 . S
C347 C334 1.394 . S
C347 C346 1.478 . S
C347 C348 1.397 1_554 S
C348 C347 1.397 1_556 S
C348 C349 1.438 . S
C348 C353 1.429 . S
C349 C332 1.394 . S
C349 C348 1.438 . S
C349 C350 1.428 . S
C350 H342 0.949 . S
C350 C349 1.428 . S
C350 C351 1.345 . S
C351 H343 0.950 . S
C351 C350 1.345 . S
C351 C352 1.424 . S
C352 H344 0.951 . S
C352 C351 1.424 . S
C352 C353 1.347 . S
C353 H345 0.951 . S
C353 C348 1.429 . S
C353 C352 1.347 . S
H354 C355 0.951 . S
C355 H354 0.951 . S
C355 C361 1.265 . S
H356 C361 0.950 . S
H357 C365 0.949 . S
H358 C366 0.950 . S
H359 C367 0.951 . S
H360 C368 0.951 . S
C361 C355 1.265 . S
C361 H356 0.950 . S
C361 C362 1.478 . S
C362 C361 1.478 . S
C362 C363 1.397 . S
C362 C379 1.394 . S
C363 C362 1.397 . S
C363 C364 1.438 1_556 S
C363 C368 1.429 . S
C364 C363 1.438 1_554 S
C364 C365 1.428 . S
C364 C377 1.394 . S
C365 H357 0.949 . S
C365 C364 1.428 . S
C365 C366 1.345 1_554 S
C366 H358 0.950 . S
C366 C365 1.345 1_556 S
C366 C367 1.424 . S
C367 H359 0.951 . S
C367 C366 1.424 . S
C367 C368 1.347 . S
C368 H360 0.951 . S
C368 C363 1.429 . S
C368 C367 1.347 . S
H369 C370 0.951 . S
C370 H369 0.951 . S
C370 C376 1.265 . S
H371 C376 0.950 . S
H372 C380 0.949 . S
H373 C381 0.950 . S
H374 C382 0.951 . S
H375 C383 0.951 . S
C376 C370 1.265 . S
C376 H371 0.950 . S
C376 C377 1.478 . S
C377 C364 1.394 . S
C377 C376 1.478 . S
C377 C378 1.397 . S
C378 C377 1.397 . S
C378 C379 1.438 1_554 S
C378 C383 1.429 . S
C379 C362 1.394 . S
C379 C378 1.438 1_556 S
C379 C380 1.428 . S
C380 H372 0.949 . S
C380 C379 1.428 . S
C380 C381 1.345 1_556 S
C381 H373 0.950 . S
C381 C380 1.345 1_554 S
C381 C382 1.424 . S
C382 H374 0.951 . S
C382 C381 1.424 . S
C382 C383 1.347 . S
C383 H375 0.951 . S
C383 C378 1.429 . S
C383 C382 1.347 . S
H384 C385 0.951 . S
C385 H384 0.951 . S
C385 C391 1.265 . S
H386 C391 0.950 . S
H387 C395 0.949 . S
H388 C396 0.950 . S
H389 C397 0.951 . S
H390 C398 0.951 . S
C391 C385 1.265 . S
C391 H386 0.950 . S
C391 C392 1.478 . S
C392 C391 1.478 . S
C392 C393 1.397 . S
C392 C409 1.394 . S
C393 C392 1.397 . S
C393 C394 1.438 1_554 S
C393 C398 1.429 . S
C394 C393 1.438 1_556 S
C394 C395 1.428 . S
C394 C407 1.394 . S
C395 H387 0.949 . S
C395 C394 1.428 . S
C395 C396 1.345 1_556 S
C396 H388 0.950 . S
C396 C395 1.345 1_554 S
C396 C397 1.424 . S
C397 H389 0.951 . S
C397 C396 1.424 . S
C397 C398 1.347 . S
C398 H390 0.951 . S
C398 C393 1.429 . S
C398 C397 1.347 . S
H399 C400 0.951 . S
C400 H399 0.951 . S
C400 C406 1.265 . S
H401 C406 0.950 . S
H402 C410 0.949 . S
H403 C411 0.950 . S
H404 C412 0.951 . S
H405 C413 0.951 . S
C406 C400 1.265 . S
C406 H401 0.950 . S
C406 C407 1.478 . S
C407 C394 1.394 . S
C407 C406 1.478 . S
C407 C408 1.397 . S
C408 C407 1.397 . S
C408 C409 1.438 1_556 S
C408 C413 1.429 . S
C409 C392 1.394 . S
C409 C408 1.438 1_554 S
C409 C410 1.428 . S
C410 H402 0.949 . S
C410 C409 1.428 . S
C410 C411 1.345 1_554 S
C411 H403 0.950 . S
C411 C410 1.345 1_556 S
C411 C412 1.424 . S
C412 H404 0.951 . S
C412 C411 1.424 . S
C412 C413 1.347 . S
C413 H405 0.951 . S
C413 C408 1.429 . S
C413 C412 1.347 . S
H414 C415 0.951 . S
C415 H414 0.951 . S
C415 C421 1.265 . S
H416 C421 0.950 . S
H417 C425 0.949 . S
H418 C426 0.950 . S
H419 C427 0.951 . S
H420 C428 0.951 . S
C421 C415 1.265 . S
C421 H416 0.950 . S
C421 C422 1.478 . S
C422 C421 1.478 . S
C422 C423 1.397 . S
C422 C439 1.394 . S
C423 C422 1.397 . S
C423 C424 1.438 1_554 S
C423 C428 1.429 . S
C424 C423 1.438 1_556 S
C424 C425 1.428 . S
C424 C437 1.394 . S
C425 H417 0.949 . S
C425 C424 1.428 . S
C425 C426 1.345 1_556 S
C426 H418 0.950 . S
C426 C425 1.345 1_554 S
C426 C427 1.424 . S
C427 H419 0.951 . S
C427 C426 1.424 . S
C427 C428 1.347 . S
C428 H420 0.951 . S
C428 C423 1.429 . S
C428 C427 1.347 . S
H429 C430 0.951 . S
C430 H429 0.951 . S
C430 C436 1.265 . S
H431 C436 0.950 . S
H432 C440 0.949 . S
H433 C441 0.950 . S
H434 C442 0.951 . S
H435 C443 0.951 . S
C436 C430 1.265 . S
C436 H431 0.950 . S
C436 C437 1.478 . S
C437 C424 1.394 . S
C437 C436 1.478 . S
C437 C438 1.397 . S
C438 C437 1.397 . S
C438 C439 1.438 1_556 S
C438 C443 1.429 . S
C439 C422 1.394 . S
C439 C438 1.438 1_554 S
C439 C440 1.428 . S
C440 H432 0.949 . S
C440 C439 1.428 . S
C440 C441 1.345 1_554 S
C441 H433 0.950 . S
C441 C440 1.345 1_556 S
C441 C442 1.424 . S
C442 H434 0.951 . S
C442 C441 1.424 . S
C442 C443 1.347 . S
C443 H435 0.951 . S
C443 C438 1.429 . S
C443 C442 1.347 . S
C85 C46 1.879 1_655 S
C100 C4 1.777 . S
C115 C25 1.776 . S
C130 C67 1.885 . S
C145 C70 1.845 . S
C160 C28 1.828 . S
C175 C7 1.883 1_455 S
C190 C49 1.775 . S
C205 C83 1.753 . S
C220 C20 1.756 . S
C235 C62 1.638 . S
C250 C41 1.673 . S
C265 C61 1.745 . S
C280 C40 1.760 . S
C295 C19 1.640 . S
C310 C82 1.642 . S
C325 C66 0.599 . S
C340 C3 0.611 . S
C355 C45 0.804 . S
C370 C24 0.788 . S
C385 C37 0.803 . S
C400 C58 0.789 . S
C415 C16 0.799 . S
C430 C79 0.793 . S
