# Generated by pormake.
# Topology tfs, (6)-cn, num edge types: 1
# Building blocks:
#     Node 0, Type 0, BuildingBlock: INOVEN_clean_sbu_0, # of connection points: 6
#     Node 1, Type 0, BuildingBlock: INOVEN_clean_sbu_0, # of connection points: 6
#     Node 2, Type 0, BuildingBlock: INOVEN_clean_sbu_0, # of connection points: 6
#     Node 3, Type 0, BuildingBlock: INOVEN_clean_sbu_0, # of connection points: 6
#     Node 4, Type 0, BuildingBlock: INOVEN_clean_sbu_0, # of connection points: 6
#     Node 5, Type 0, BuildingBlock: INOVEN_clean_sbu_0, # of connection points: 6
#     Edge 6, Type (0, 0), BuildingBlock: ZUJKAS_clean_linker_0, # of connection points: 2
#     Edge 7, Type (0, 0), BuildingBlock: ZUJKAS_clean_linker_0, # of connection points: 2
#     Edge 8, Type (0, 0), BuildingBlock: ZUJKAS_clean_linker_0, # of connection points: 2
#     Edge 9, Type (0, 0), BuildingBlock: ZUJKAS_clean_linker_0, # of connection points: 2
#     Edge 10, Type (0, 0), BuildingBlock: ZUJKAS_clean_linker_0, # of connection points: 2
#     Edge 11, Type (0, 0), BuildingBlock: ZUJKAS_clean_linker_0, # of connection points: 2
#     Edge 12, Type (0, 0), BuildingBlock: ZUJKAS_clean_linker_0, # of connection points: 2
#     Edge 13, Type (0, 0), BuildingBlock: ZUJKAS_clean_linker_0, # of connection points: 2
#     Edge 14, Type (0, 0), BuildingBlock: ZUJKAS_clean_linker_0, # of connection points: 2
#     Edge 15, Type (0, 0), BuildingBlock: ZUJKAS_clean_linker_0, # of connection points: 2
#     Edge 16, Type (0, 0), BuildingBlock: ZUJKAS_clean_linker_0, # of connection points: 2
#     Edge 17, Type (0, 0), BuildingBlock: ZUJKAS_clean_linker_0, # of connection points: 2
#     Edge 18, Type (0, 0), BuildingBlock: ZUJKAS_clean_linker_0, # of connection points: 2
#     Edge 19, Type (0, 0), BuildingBlock: ZUJKAS_clean_linker_0, # of connection points: 2
#     Edge 20, Type (0, 0), BuildingBlock: ZUJKAS_clean_linker_0, # of connection points: 2
#     Edge 21, Type (0, 0), BuildingBlock: ZUJKAS_clean_linker_0, # of connection points: 2
#     Edge 22, Type (0, 0), BuildingBlock: ZUJKAS_clean_linker_0, # of connection points: 2
#     Edge 23, Type (0, 0), BuildingBlock: ZUJKAS_clean_linker_0, # of connection points: 2
# Relax obj value: 0.473
# Max RMSD: 0.398
# Mean RMSD: 0.348
data_MOF--net-tfs--node1-INOVEN_clean_sbu_0--edge1-ZUJKAS_clean_linker_0
_symmetry_space_group_name_H-M    P1
_symmetry_Int_Tables_number       1
_symmetry_cell_setting            triclinic
loop_
_symmetry_equiv_pos_as_xyz
'x, y, z'
_cell_length_a     62.795526
_cell_length_b     62.514992
_cell_length_c     16.006095
_cell_angle_alpha  92.733863
_cell_angle_beta   100.75815
_cell_angle_gamma 119.99151
loop_
_atom_site_label
_atom_site_type_symbol
_atom_site_fract_x
_atom_site_fract_y
_atom_site_fract_z
_atom_type_partial_charge
Gd0 Gd 0.18926 0.36795 0.10999 0.0
Gd1 Gd 0.16282 0.39861 0.06141 0.0
C2 C 0.14032 0.35598 0.17879 0.0
C3 C 0.21269 0.3452 0.16403 0.0
C4 C 0.22029 0.33126 0.22141 0.0
C5 C 0.22282 0.31231 0.18289 0.0
C6 C 0.22695 0.33744 0.31166 0.0
C7 C 0.24027 0.30686 0.3233 0.0
C8 C 0.23674 0.32516 0.3624 0.0
C9 C 0.23273 0.30026 0.23314 0.0
C10 C 0.15499 0.35049 0.9556 0.0
C11 C 0.2134 0.41153 -0.00246 0.0
C12 C 0.13929 0.419 0.9836 0.0
C13 C 0.14169 0.44364 0.98187 0.0
C14 C 0.1471 0.45954 0.05777 0.0
C15 C 0.13817 0.45121 0.90196 0.0
C16 C 0.14486 0.49007 0.9732 0.0
C17 C 0.13977 0.4742 0.89758 0.0
C18 C 0.1486 0.48254 0.05341 0.0
C19 C 0.19761 0.41841 0.21435 0.0
O20 O 0.16245 0.35736 0.19694 0.0
O21 O 0.1345 0.36694 0.11684 0.0
O22 O 0.18973 0.3336 0.11439 0.0
O23 O 0.22243 0.36926 0.18701 0.0
O24 O 0.17562 0.34987 0.97087 0.0
O25 O 0.15324 0.36008 0.02288 0.0
O26 O 0.19214 0.4118 0.98357 0.0
O27 O 0.21772 0.3976 0.0497 0.0
O28 O 0.13418 0.40864 0.05207 0.0
O29 O 0.15594 0.41614 0.95425 0.0
O30 O 0.17969 0.42315 0.19156 0.0
O31 O 0.19795 0.40623 0.15011 0.0
H32 H 0.21781 0.30731 0.11328 0.0
H33 H 0.22518 0.35208 0.3426 0.0
H34 H 0.24248 0.33065 0.43183 0.0
H35 H 0.2349 0.28603 0.20128 0.0
H36 H 0.15011 0.45422 0.12033 0.0
H37 H 0.13398 0.43919 0.84267 0.0
H38 H 0.13653 0.47932 0.8348 0.0
H39 H 0.15291 0.49451 0.11288 0.0
Gd40 Gd 0.80454 0.21215 0.86916 0.0
Gd41 Gd 0.85502 0.23087 0.80958 0.0
C42 C 0.84475 0.27017 0.91328 0.0
C43 C 0.76547 0.19104 0.93358 0.0
C44 C 0.74503 0.19554 0.94397 0.0
C45 C 0.72376 0.18743 0.87513 0.0
C46 C 0.74635 0.20766 0.02279 0.0
C47 C 0.70601 0.20424 0.96228 0.0
C48 C 0.72702 0.21199 0.03184 0.0
C49 C 0.70454 0.19177 0.88415 0.0
C50 C 0.80742 0.23291 0.72558 0.0
C51 C 0.81343 0.17346 0.75893 0.0
C52 C 0.89337 0.25261 0.74132 0.0
C53 C 0.90995 0.24797 0.69844 0.0
C54 C 0.9357 0.25898 0.73971 0.0
C55 C 0.90117 0.23507 0.61337 0.0
C56 C 0.94398 0.24594 0.60979 0.0
C57 C 0.91802 0.23407 0.56952 0.0
C58 C 0.95253 0.25788 0.69605 0.0
C59 C 0.85211 0.21021 0.9539 0.0
O60 O 0.82579 0.25161 0.9372 0.0
O61 O 0.85661 0.26635 0.85918 0.0
O62 O 0.76519 0.18419 0.85452 0.0
O63 O 0.78839 0.20698 0.98055 0.0
O64 O 0.79337 0.23325 0.77506 0.0
O65 O 0.81592 0.21921 0.74849 0.0
O66 O 0.83174 0.19229 0.73336 0.0
O67 O 0.80387 0.17683 0.82212 0.0
O68 O 0.89576 0.25163 0.82388 0.0
O69 O 0.86986 0.24331 0.69863 0.0
O70 O 0.86558 0.20942 0.90257 0.0
O71 O 0.84367 0.22403 0.93117 0.0
H72 H 0.72187 0.17769 0.8139 0.0
H73 H 0.76238 0.21389 0.07732 0.0
H74 H 0.72869 0.22171 0.09277 0.0
H75 H 0.68833 0.18509 0.82995 0.0
H76 H 0.94305 0.26934 0.80478 0.0
H77 H 0.88148 0.22648 0.57949 0.0
H78 H 0.91084 0.22458 0.50327 0.0
H79 H 0.97247 0.26752 0.72845 0.0
Gd80 Gd 0.54522 0.74504 0.12904 0.0
Gd81 Gd 0.57928 0.80181 0.13449 0.0
C82 C 0.52216 0.77513 0.02499 0.0
C83 C 0.51632 0.70083 0.16033 0.0
C84 C 0.49176 0.67794 0.12158 0.0
C85 C 0.48527 0.66669 0.03535 0.0
C86 C 0.47453 0.66702 0.17297 0.0
C87 C 0.44458 0.63366 0.0533 0.0
C88 C 0.45116 0.64515 0.13923 0.0
C89 C 0.46187 0.64463 0.0016 0.0
C90 C 0.5618 0.75778 0.98482 0.0
C91 C 0.6038 0.77003 0.21793 0.0
C92 C 0.615 0.84793 0.17462 0.0
C93 C 0.63544 0.87428 0.20799 0.0
C94 C 0.64367 0.8825 0.2976 0.0
C95 C 0.64656 0.89146 0.15335 0.0
C96 C 0.67357 0.92457 0.27822 0.0
C97 C 0.66548 0.91646 0.18823 0.0
C98 C 0.66234 0.90721 0.33207 0.0
C99 C 0.54469 0.78805 0.22909 0.0
O100 O 0.51775 0.75601 0.06663 0.0
O101 O 0.54555 0.794 0.0293 0.0
O102 O 0.53499 0.70635 0.12321 0.0
O103 O 0.51535 0.72039 0.18745 0.0
O104 O 0.54068 0.7377 0.98642 0.0
O105 O 0.57418 0.7685 0.06104 0.0
O106 O 0.60762 0.79012 0.18374 0.0
O107 O 0.58087 0.75108 0.213 0.0
O108 O 0.60705 0.83275 0.23012 0.0
O109 O 0.60341 0.83795 0.09307 0.0
O110 O 0.55099 0.80631 0.18609 0.0
O111 O 0.55798 0.77833 0.22373 0.0
H112 H 0.49822 0.67487 -0.00579 0.0
H113 H 0.47923 0.67538 0.23968 0.0
H114 H 0.43843 0.63694 0.18107 0.0
H115 H 0.45721 0.63626 0.935 0.0
H116 H 0.63545 0.86991 0.34193 0.0
H117 H 0.64059 0.88564 0.08405 0.0
H118 H 0.67381 0.92938 0.14493 0.0
H119 H 0.6675 0.9128 0.40137 0.0
Gd120 Gd 0.84615 0.60061 0.89087 0.0
Gd121 Gd 0.82269 0.6332 0.84174 0.0
C122 C 0.79429 0.58763 0.9421 0.0
C123 C 0.86813 0.57847 0.9658 0.0
C124 C 0.86481 0.55344 0.96721 0.0
C125 C 0.85803 0.53704 0.8909 0.0
C126 C 0.8698 0.54639 0.04694 0.0
C127 C 0.86239 0.50729 0.97462 0.0
C128 C 0.86857 0.52353 0.05072 0.0
C129 C 0.85689 0.51418 0.89462 0.0
C130 C 0.81228 0.58288 0.73398 0.0
C131 C 0.87144 0.64251 0.77662 0.0
C132 C 0.80274 0.65706 0.76969 0.0
C133 C 0.79135 0.6707 0.72835 0.0
C134 C 0.77711 0.67723 0.76972 0.0
C135 C 0.7947 0.67736 0.64729 0.0
C136 C 0.76923 0.6966 0.6485 0.0
C137 C 0.78363 0.69006 0.60749 0.0
C138 C 0.76631 0.69021 0.73051 0.0
C139 C 0.85638 0.65083 -0.00324 0.0
O140 O 0.81586 0.58805 0.9649 0.0
O141 O 0.7911 0.601 0.88462 0.0
O142 O 0.87289 0.58829 0.89628 0.0
O143 O 0.85263 0.5827 -0.00224 0.0
O144 O 0.82961 0.57736 0.75728 0.0
O145 O 0.81192 0.59449 0.79941 0.0
O146 O 0.84961 0.64155 0.75622 0.0
O147 O 0.87644 0.63165 0.84012 0.0
O148 O 0.82333 0.65902 0.75442 0.0
O149 O 0.79292 0.64203 0.82378 0.0
O150 O 0.83781 0.65467 0.97672 0.0
O151 O 0.85774 0.63992 0.93179 0.0
H152 H 0.85394 0.54198 0.82846 0.0
H153 H 0.87514 0.55881 0.1065 0.0
H154 H 0.87316 0.51891 0.1133 0.0
H155 H 0.8517 0.50191 0.83488 0.0
H156 H 0.77451 0.67251 0.83277 0.0
H157 H 0.80554 0.6724 0.61403 0.0
H158 H 0.78596 0.69428 0.54382 0.0
H159 H 0.75579 0.69535 0.76482 0.0
Gd160 Gd 0.16048 0.76803 0.1479 0.0
Gd161 Gd 0.20709 0.7899 0.06906 0.0
C162 C 0.20097 0.82765 0.18534 0.0
C163 C 0.12972 0.75419 0.24881 0.0
C164 C 0.10866 0.75553 0.27209 0.0
C165 C 0.08505 0.74556 0.21303 0.0
C166 C 0.11132 0.76427 0.35796 0.0
C167 C 0.06658 0.75103 0.32756 0.0
C168 C 0.09058 0.76217 0.3854 0.0
C169 C 0.06423 0.74333 0.24052 0.0
C170 C 0.15242 0.78057 -0.00941 0.0
C171 C 0.16863 0.72976 0.04047 0.0
C172 C 0.24014 0.80334 0.97651 0.0
C173 C 0.25986 0.7979 0.96519 0.0
C174 C 0.26925 0.78769 0.02769 0.0
C175 C 0.27092 0.80484 0.89509 0.0
C176 C 0.30171 0.79303 0.95302 0.0
C177 C 0.29161 0.80242 0.88896 0.0
C178 C 0.28996 0.78529 0.02173 0.0
C179 C 0.21451 0.77952 0.23138 0.0
O180 O 0.18536 0.80811 0.21672 0.0
O181 O 0.20761 0.82475 0.11376 0.0
O182 O 0.12496 0.74104 0.17441 0.0
O183 O 0.15228 0.77445 0.26965 0.0
O184 O 0.1348 0.76255 0.01833 0.0
O185 O 0.17249 0.79209 0.04892 0.0
O186 O 0.18412 0.74884 0.00686 0.0
O187 O 0.16075 0.73345 0.10767 0.0
O188 O 0.24438 0.8156 0.05206 0.0
O189 O 0.21644 0.78531 0.94747 0.0
O190 O 0.23202 0.79741 0.20286 0.0
O191 O 0.19546 0.76711 0.16984 0.0
H192 H 0.08238 0.73864 0.1463 0.0
H193 H 0.1292 0.77169 0.40491 0.0
H194 H 0.0931 0.76801 0.4531 0.0
H195 H 0.04612 0.73497 0.19404 0.0
H196 H 0.26103 0.78227 0.08253 0.0
H197 H 0.26393 0.81271 0.84607 0.0
H198 H 0.29984 0.80812 0.83434 0.0
H199 H 0.2973 0.77819 0.07262 0.0
Gd200 Gd 0.426 0.19862 0.79832 0.0
Gd201 Gd 0.46138 0.2543 0.88139 0.0
C202 C 0.40043 0.23114 0.79738 0.0
C203 C 0.40231 0.15036 0.76321 0.0
C204 C 0.37948 0.12765 0.71 0.0
C205 C 0.38106 0.11658 0.63479 0.0
C206 C 0.3571 0.11511 0.73882 0.0
C207 C 0.33894 0.08023 0.62069 0.0
C208 C 0.33699 0.0917 0.69438 0.0
C209 C 0.36108 0.09321 0.59073 0.0
C210 C 0.44061 0.23169 0.69112 0.0
C211 C 0.48676 0.22293 0.87037 0.0
C212 C 0.4869 0.30261 0.91941 0.0
C213 C 0.51311 0.32399 0.93675 0.0
C214 C 0.52097 0.34419 0.00111 0.0
C215 C 0.52991 0.32522 0.88754 0.0
C216 C 0.56159 0.36741 0.96368 0.0
C217 C 0.55396 0.34678 0.9009 0.0
C218 C 0.54497 0.36567 0.0146 0.0
C219 C 0.44598 0.22064 0.98764 0.0
O220 O 0.39569 0.20791 0.78924 0.0
O221 O 0.4236 0.25084 0.82797 0.0
O222 O 0.41932 0.16523 0.72375 0.0
O223 O 0.39965 0.16237 0.82616 0.0
O224 O 0.41865 0.21102 0.6726 0.0
O225 O 0.45458 0.23244 0.75961 0.0
O226 O 0.49045 0.24536 0.86301 0.0
O227 O 0.46386 0.20316 0.86265 0.0
O228 O 0.48125 0.28799 0.97772 0.0
O229 O 0.47644 0.29039 0.84025 0.0
O230 O 0.46841 0.24065 0.00529 0.0
O231 O 0.43239 0.22056 0.91949 0.0
H232 H 0.3982 0.1255 0.61171 0.0
H233 H 0.35538 0.12298 0.79716 0.0
H234 H 0.32013 0.08241 0.71877 0.0
H235 H 0.36356 0.08484 0.53536 0.0
H236 H 0.50831 0.34353 0.03997 0.0
H237 H 0.52426 0.3098 0.83756 0.0
H238 H 0.56624 0.34759 0.86019 0.0
H239 H 0.55043 0.38103 0.06448 0.0
H240 H 0.40503 0.27625 0.77872 0.0
H241 H 0.37295 0.28418 0.70387 0.0
H242 H 0.31733 0.20511 0.65634 0.0
H243 H 0.34975 0.19679 0.72954 0.0
H244 H 0.31546 0.22564 0.51301 0.0
H245 H 0.31622 0.28451 0.78321 0.0
H246 H 0.34751 0.2965 0.76772 0.0
H247 H 0.33103 0.26614 0.79918 0.0
C248 C 0.38589 0.26048 0.754 0.0
C249 C 0.37993 0.23586 0.76132 0.0
C250 C 0.36751 0.26511 0.71126 0.0
C251 C 0.34258 0.24532 0.67612 0.0
C252 C 0.33641 0.2207 0.68376 0.0
H253 H 0.23118 0.28729 0.47146 0.0
H254 H 0.25267 0.26868 0.55552 0.0
C255 C 0.35492 0.21599 0.72604 0.0
C256 C 0.32352 0.25052 0.62775 0.0
H257 H 0.29962 0.2887 0.64047 0.0
C258 C 0.31165 0.23912 0.54122 0.0
C259 C 0.31816 0.26775 0.66485 0.0
C260 C 0.3287 0.2792 0.75912 0.0
C261 C 0.29557 0.24543 0.4897 0.0
C262 C 0.29183 0.26417 0.52507 0.0
C263 C 0.30271 0.27461 0.61277 0.0
C264 C 0.27777 0.27412 0.47177 0.0
C265 C 0.28278 0.23188 0.39799 0.0
C266 C 0.28489 0.28366 0.39744 0.0
C267 C 0.2725 0.29401 0.34917 0.0
C268 C 0.25305 0.29556 0.37507 0.0
C269 C 0.24616 0.28641 0.4502 0.0
C270 C 0.25836 0.2757 0.49797 0.0
H271 H 0.28006 0.21285 0.39109 0.0
H272 H 0.26404 0.23012 0.37599 0.0
H273 H 0.29497 0.24245 0.35495 0.0
H274 H 0.3004 0.28356 0.37748 0.0
H275 H 0.27855 0.30135 0.29243 0.0
H276 H 0.09276 0.34844 0.16201 0.0
H277 H 0.06058 0.32164 0.23551 0.0
H278 H 0.11131 0.30025 0.37105 0.0
H279 H 0.14388 0.32748 0.2995 0.0
H280 H 0.03737 0.26988 0.23556 0.0
H281 H 0.09123 0.32299 0.56682 0.0
H282 H 0.10191 0.3348 0.47237 0.0
H283 H 0.10566 0.31016 0.51135 0.0
C284 C 0.09718 0.33817 0.20777 0.0
C285 C 0.12097 0.34023 0.22496 0.0
C286 C 0.07869 0.32274 0.24945 0.0
C287 C 0.08357 0.30906 0.30928 0.0
C288 C 0.10723 0.31091 0.3262 0.0
H289 H 0.9846 0.23975 0.65875 0.0
H290 H 0.01775 0.24851 0.58227 0.0
C291 C 0.12581 0.32647 0.28492 0.0
C292 C 0.06382 0.2933 0.35426 0.0
H293 H 0.0495 0.29036 0.55032 0.0
C294 C 0.04007 0.27418 0.30456 0.0
C295 C 0.06758 0.29825 0.44465 0.0
C296 C 0.09291 0.31775 0.50216 0.0
C297 C 0.01962 0.2608 0.34213 0.0
C298 C 0.02268 0.2675 0.43125 0.0
C299 C 0.04692 0.28542 0.48179 0.0
C300 C 1.00079 0.25834 0.47176 0.0
C301 C 0.99499 0.23969 0.28555 0.0
C302 C 0.98 0.2606 0.43504 0.0
C303 C 0.96094 0.25529 0.47806 0.0
C304 C 0.96248 0.24813 0.55981 0.0
C305 C 0.98296 0.24531 0.59592 0.0
C306 C 1.00187 0.25027 0.55216 0.0
H307 H 0.99858 0.23013 0.23438 0.0
H308 H 0.9836 0.22558 0.32316 0.0
H309 H 0.98375 0.24742 0.25292 0.0
H310 H 0.97905 0.26765 0.37486 0.0
H311 H 0.94569 0.25813 0.44928 0.0
H312 H 0.79683 0.1596 0.58629 0.0
H313 H 0.77541 0.11744 0.5032 0.0
H314 H 0.78375 0.08843 0.73889 0.0
H315 H 0.8036 0.13054 0.8222 0.0
H316 H 0.78814 0.0854 0.47511 0.0
H317 H 0.71096 0.04169 0.64485 0.0
H318 H 0.73287 0.07501 0.66345 0.0
H319 H 0.74159 0.05475 0.71673 0.0
C320 C 0.79408 0.14415 0.61999 0.0
C321 C 0.80176 0.14813 0.71022 0.0
C322 C 0.78182 0.12006 0.57264 0.0
C323 C 0.77739 0.0995 0.6146 0.0
C324 C 0.78602 0.10372 0.70498 0.0
H325 H 0.71153 0.94193 0.4256 0.0
H326 H 0.73814 0.98483 0.50339 0.0
C327 C 0.79759 0.12777 0.75257 0.0
C328 C 0.76374 0.07383 0.56325 0.0
H329 H 0.71397 0.01418 0.54685 0.0
C330 C 0.77184 0.06991 0.49074 0.0
C331 C 0.74232 0.05349 0.58297 0.0
C332 C 0.73127 0.05648 0.65565 0.0
C333 C 0.75927 0.04632 0.43817 0.0
C334 C 0.73826 0.02609 0.45904 0.0
C335 C 0.73023 0.02982 0.53153 0.0
C336 C 0.72419 1.00075 0.40666 0.0
C337 C 0.76857 0.04302 0.36102 0.0
C338 C 0.70786 0.99562 0.32566 0.0
C339 C 0.69226 0.97098 0.28132 0.0
C340 C 0.69277 0.95111 0.3175 0.0
C341 C 0.71023 0.95667 0.39663 0.0
C342 C 0.72558 0.98119 0.44106 0.0
H343 H 0.78718 0.05959 0.36036 0.0
H344 H 0.7703 0.02618 0.36012 0.0
H345 H 0.75457 0.0401 0.30117 0.0
H346 H 0.70642 0.01052 0.29845 0.0
H347 H 0.67894 0.96738 0.221 0.0
H348 H 0.78758 0.73311 0.54733 0.0
H349 H 0.76618 0.75303 0.47279 0.0
H350 H 0.7016 0.70937 0.57716 0.0
H351 H 0.72241 0.68896 0.64995 0.0
H352 H 0.71942 0.73003 0.34995 0.0
H353 H 0.71742 0.78111 0.63765 0.0
H354 H 0.73787 0.76846 0.6423 0.0
H355 H 0.70507 0.74853 0.64307 0.0
C356 C 0.76877 0.72765 0.5542 0.0
C357 C 0.75679 0.70947 0.60514 0.0
C358 C 0.75667 0.73919 0.51199 0.0
C359 C 0.73253 0.73301 0.52082 0.0
C360 C 0.72051 0.71488 0.57129 0.0
H361 H 0.60278 0.72747 0.25374 0.0
H362 H 0.63815 0.72302 0.32158 0.0
C363 C 0.73249 0.70325 0.61305 0.0
C364 C 0.71916 0.7445 0.47442 0.0
H365 H 0.68729 0.77409 0.50554 0.0
C366 C 0.71283 0.74013 0.38389 0.0
C367 C 0.71089 0.75798 0.5188 0.0
C368 C 0.71838 0.76454 0.61584 0.0
C369 C 0.69691 0.74732 0.33678 0.0
C370 C 0.68712 0.75907 0.38146 0.0
C371 C 0.69478 0.76495 0.47164 0.0
C372 C 0.6664 0.76232 0.33653 0.0
C373 C 0.68977 0.74149 0.23966 0.0
C374 C 0.67068 0.78601 0.32281 0.0
C375 C 0.65042 0.78867 0.28323 0.0
C376 C 0.62561 0.7677 0.25843 0.0
C377 C 0.62158 0.74405 0.27254 0.0
C378 C 0.64178 0.74141 0.31087 0.0
H379 H 0.70253 0.7368 0.21447 0.0
H380 H 0.67008 0.72525 0.21758 0.0
H381 H 0.69037 0.75765 0.21171 0.0
H382 H 0.68962 0.80237 0.34284 0.0
H383 H 0.65412 0.80711 0.27327 0.0
H384 H 0.01963 0.70832 0.28211 0.0
H385 H 0.98463 0.69612 0.35108 0.0
H386 H 0.02696 0.76789 0.51774 0.0
H387 H 0.06213 0.78036 0.44843 0.0
H388 H 0.01142 0.73084 0.60873 0.0
H389 H 0.93041 0.71333 0.35137 0.0
H390 H 0.94324 0.69524 0.31865 0.0
H391 H 0.96234 0.72898 0.33746 0.0
C392 C 0.02126 0.72186 0.33158 0.0
C393 C 0.04383 0.74529 0.36008 0.0
C394 C 1.00114 0.71482 0.37103 0.0
C395 C 1.00305 0.7311 0.43943 0.0
C396 C 0.02505 0.75498 0.46517 0.0
H397 H 0.87312 0.67707 0.67526 0.0
H398 H 0.90534 0.70117 0.59783 0.0
C399 C 0.04519 0.76204 0.42576 0.0
C400 C 0.98356 0.72199 0.49057 0.0
H401 H 0.91976 0.69125 0.47253 0.0
C402 C 0.99138 0.72244 0.57906 0.0
C403 C 0.95746 0.71157 0.45271 0.0
C404 C 0.94794 0.71252 0.35999 0.0
C405 C 0.97383 0.71168 0.62969 0.0
C406 C 0.94753 0.69914 0.59018 0.0
C407 C 0.93978 0.70002 0.50268 0.0
C408 C 0.92792 0.68458 0.63798 0.0
C409 C 0.98386 0.71419 0.72525 0.0
C410 C 0.92945 0.66681 0.68547 0.0
C411 C 0.91138 0.65345 0.73164 0.0
C412 C 0.89087 0.65694 0.72908 0.0
C413 C 0.88881 0.67406 0.67917 0.0
C414 C 0.90721 0.68783 0.63453 0.0
H415 H 1.00278 0.7315 0.74918 0.0
H416 H 0.97088 0.71465 0.76282 0.0
H417 H 0.98621 0.69808 0.73775 0.0
H418 H 0.94448 0.66299 0.68609 0.0
H419 H 0.91318 0.63998 0.76776 0.0
H420 H 0.19703 0.84073 0.34457 0.0
H421 H 0.21523 0.883 0.42265 0.0
H422 H 0.24602 0.91428 0.2089 0.0
H423 H 0.22791 0.87213 0.13012 0.0
H424 H 0.26862 0.92103 0.4641 0.0
H425 H 0.20887 0.95082 0.26421 0.0
H426 H 0.19921 0.9183 0.26404 0.0
H427 H 0.22195 0.93699 0.20534 0.0
C428 C 0.20743 0.85659 0.31369 0.0
C429 C 0.21095 0.8531 0.23094 0.0
C430 C 0.21782 0.8807 0.35849 0.0
C431 C 0.23161 0.90167 0.32092 0.0
C432 C 0.23501 0.89827 0.23822 0.0
H433 H 0.32206 0.06085 0.44807 0.0
H434 H 0.29417 0.01701 0.38146 0.0
C435 C 0.22478 0.87419 0.19356 0.0
C436 C 0.2438 0.92718 0.36999 0.0
H437 H 0.24576 0.98262 0.36594 0.0
C438 C 0.2635 0.93449 0.4435 0.0
C439 C 0.23702 0.94455 0.34236 0.0
C440 C 0.21547 0.9373 0.26506 0.0
C441 C 0.27747 0.95916 0.48819 0.0
C442 C 0.27097 0.97676 0.4599 0.0
C443 C 0.25071 0.96915 0.38766 0.0
C444 C 0.28607 0.00353 0.5005 0.0
C445 C 0.29981 0.96634 0.56248 0.0
C446 C 0.29015 0.01069 0.58918 0.0
C447 C 0.30664 0.03574 0.62796 0.0
C448 C 0.31897 0.05419 0.57839 0.0
C449 C 0.31345 0.04711 0.48863 0.0
C450 C 0.29728 0.02204 0.45024 0.0
H451 H 0.30613 0.95263 0.56105 0.0
H452 H 0.31611 0.98514 0.56174 0.0
H453 H 0.29427 0.9668 0.62412 0.0
H454 H 0.28111 0.99683 0.62889 0.0
H455 H 0.31046 0.0404 0.69723 0.0
H456 H 0.13917 0.68723 0.10061 0.0
H457 H 0.13373 0.64617 0.06781 0.0
H458 H 0.17874 0.67252 0.8811 0.0
H459 H 0.18493 0.71422 0.91527 0.0
H460 H 0.11383 0.61165 0.92027 0.0
H461 H 0.21672 0.64789 0.04406 0.0
H462 H 0.20288 0.66655 0.06021 0.0
H463 H 0.20901 0.66201 0.95754 0.0
C464 C 0.14783 0.68438 0.05206 0.0
C465 C 0.16282 0.70417 0.01148 0.0
C466 C 0.14461 0.6608 0.03324 0.0
C467 C 0.15624 0.65643 0.97333 0.0
C468 C 0.17009 0.6757 0.92904 0.0
H469 H 0.16723 0.5242 0.86945 0.0
H470 H 0.16861 0.56382 0.86009 0.0
C471 C 0.17346 0.69945 0.94822 0.0
C472 C 0.1546 0.63197 0.96108 0.0
H473 H 0.19017 0.60461 -0.00611 0.0
C474 C 0.13053 0.6101 0.93566 0.0
C475 C 0.17643 0.63002 0.98173 0.0
C476 C 0.20272 0.65281 0.01312 0.0
C477 C 0.12766 0.5863 0.93125 0.0
C478 C 0.14944 0.58438 0.95371 0.0
C479 C 0.17354 0.60621 0.97671 0.0
C480 C 0.14767 0.55995 0.95709 0.0
C481 C 0.10136 0.56342 0.90288 0.0
C482 C 0.13568 0.54483 0.01546 0.0
C483 C 0.1348 0.52217 0.02082 0.0
C484 C 0.146 0.51427 0.96813 0.0
C485 C 0.15813 0.52958 0.91007 0.0
C486 C 0.15903 0.55225 0.90486 0.0
H487 H 0.08765 0.56785 0.8657 0.0
H488 H 0.10126 0.54839 0.86263 0.0
H489 H 0.09472 0.55613 0.96067 0.0
H490 H 0.12723 0.55068 0.05754 0.0
H491 H 0.12513 0.51072 0.06567 0.0
H492 H 0.52397 0.23807 0.78615 0.0
H493 H 0.56169 0.23472 0.82188 0.0
H494 H 0.53794 0.20058 0.04184 0.0
H495 H 0.49916 0.2022 0.00162 0.0
H496 H 0.59934 0.256 0.9556 0.0
H497 H 0.55453 0.15315 0.94499 0.0
H498 H 0.5363 0.16726 0.90792 0.0
H499 H 0.54643 0.16796 0.02147 0.0
C500 C 0.52673 0.22951 0.84122 0.0
C501 C 0.50881 0.22013 0.89075 0.0
C502 C 0.54825 0.22767 0.86191 0.0
C503 C 0.55253 0.21706 0.93391 0.0
C504 C 0.5347 0.20806 0.98443 0.0
H505 H 0.6834 0.19857 0.09721 0.0
H506 H 0.64761 0.20392 0.10482 0.0
C507 C 0.51269 0.20914 0.9619 0.0
C508 C 0.57617 0.21642 0.95659 0.0
H509 H 0.59917 0.17732 0.98495 0.0
C510 C 0.59924 0.23877 0.96228 0.0
C511 C 0.57613 0.19401 0.9667 0.0
C512 C 0.55202 0.1692 0.95926 0.0
C513 C 0.62208 0.23915 0.97387 0.0
C514 C 0.62187 0.21662 0.98041 0.0
C515 C 0.59913 0.19453 0.97973 0.0
C516 C 0.64451 0.21506 0.97937 0.0
C517 C 0.64617 0.26359 0.9771 0.0
C518 C 0.65447 0.21958 0.90638 0.0
C519 C 0.67485 0.21668 0.90199 0.0
C520 C 0.68551 0.20895 0.97026 0.0
C521 C 0.67573 0.20478 0.04402 0.0
C522 C 0.65525 0.20768 0.04829 0.0
H523 H 0.64461 0.27991 -0.00285 0.0
H524 H 0.66265 0.26484 0.0222 0.0
H525 H 0.64986 0.26482 0.91181 0.0
H526 H 0.64613 0.22487 0.85191 0.0
H527 H 0.68213 0.22028 0.84472 0.0
H528 H 0.3982 0.62245 0.0745 0.0
H529 H 0.35847 0.58196 0.03254 0.0
H530 H 0.39536 0.55094 0.91294 0.0
H531 H 0.43542 0.59138 0.95596 0.0
H532 H 0.3304 0.54938 0.85828 0.0
H533 H 0.36681 0.50783 0.10468 0.0
H534 H 0.38149 0.54127 0.10915 0.0
H535 H 0.38572 0.52324 0.03051 0.0
C536 C 0.39784 0.60704 0.03895 0.0
C537 C 0.41997 0.60998 0.01932 0.0
C538 C 0.37511 0.58401 0.01454 0.0
C539 C 0.37413 0.5635 0.97044 0.0
C540 C 0.39587 0.56657 0.94752 0.0
H541 H 0.25253 0.40956 0.9523 0.0
H542 H 0.29072 0.44459 0.92318 0.0
C543 C 0.41865 0.58968 0.97164 0.0
C544 C 0.35066 0.53864 0.95363 0.0
H545 H 0.32428 0.48332 0.02947 0.0
C546 C 0.32903 0.53471 0.89464 0.0
C547 C 0.34912 0.5196 0.00077 0.0
C548 C 0.37192 0.52305 0.06527 0.0
C549 C 0.3056 0.5123 0.8827 0.0
C550 C 0.30364 0.49372 0.93358 0.0
C551 C 0.32564 0.49741 0.99022 0.0
C552 C 0.27885 0.47149 0.93578 0.0
C553 C 0.28335 0.50897 0.81563 0.0
C554 C 0.25918 0.47467 0.95059 0.0
C555 C 0.23713 0.45455 0.96418 0.0
C556 C 0.23462 0.43097 0.96672 0.0
C557 C 0.25398 0.42752 0.95034 0.0
C558 C 0.2758 0.44756 0.934 0.0
H559 H 0.2897 0.51885 0.76119 0.0
H560 H 0.26925 0.48892 0.78958 0.0
H561 H 0.27398 0.51739 0.84497 0.0
H562 H 0.26132 0.493 0.95613 0.0
H563 H 0.22277 0.45794 0.97851 0.0
H564 H 0.84351 0.47382 0.08411 0.0
H565 H 0.84397 0.43506 0.09249 0.0
H566 H 0.88073 0.44792 0.88231 0.0
H567 H 0.88098 0.48703 0.87495 0.0
H568 H 0.82119 0.39366 0.95971 0.0
H569 H 0.9249 0.43332 0.06647 0.0
H570 H 0.91061 0.45202 0.07417 0.0
H571 H 0.91546 0.44413 0.9727 0.0
C572 C 0.85198 0.46856 0.04038 0.0
C573 C 0.86225 0.48353 0.97894 0.0
C574 C 0.85214 0.44638 0.04508 0.0
C575 C 0.86275 0.43887 0.98897 0.0
C576 C 0.8729 0.45366 0.92731 0.0
H577 H 0.87316 0.31177 0.84618 0.0
H578 H 0.87842 0.35298 0.87561 0.0
C579 C 0.87271 0.47582 0.92243 0.0
C580 C 0.86196 0.41487 -0.00829 0.0
H581 H 0.89922 0.38927 0.01705 0.0
C582 C 0.83822 0.39265 0.9732 0.0
C583 C 0.88425 0.41372 0.00923 0.0
C584 C 0.91027 0.43707 0.03255 0.0
C585 C 0.83609 0.36917 0.96821 0.0
C586 C 0.85839 0.36796 0.98441 0.0
C587 C 0.88217 0.39025 0.00492 0.0
C588 C 0.85738 0.34376 0.97439 0.0
C589 C 0.80997 0.34592 0.94185 0.0
C590 C 0.8446 0.32517 0.02248 0.0
C591 C 0.84132 0.30143 0.00519 0.0
C592 C 0.85114 0.29605 0.94043 0.0
C593 C 0.86532 0.31524 0.89637 0.0
C594 C 0.86834 0.33884 0.91307 0.0
H595 H 0.79538 0.35015 0.91137 0.0
H596 H 0.80951 0.33173 0.8959 0.0
H597 H 0.80471 0.33761 -0.00013 0.0
H598 H 0.83659 0.3288 0.07178 0.0
H599 H 0.83058 0.28715 0.04108 0.0
H600 H 0.31182 0.75622 -0.00667 0.0
H601 H 0.35032 0.75542 -0.00877 0.0
H602 H 0.3824 0.82654 0.90239 0.0
H603 H 0.34426 0.82782 0.90597 0.0
H604 H 0.37245 0.75896 0.84166 0.0
H605 H 0.43733 0.83579 0.11866 0.0
H606 H 0.40327 0.8192 0.10187 0.0
H607 H 0.41847 0.84218 0.03642 0.0
C608 C 0.32712 0.77181 0.97398 0.0
C609 C 0.32486 0.79209 0.9498 0.0
C610 C 0.34906 0.77125 0.9724 0.0
C611 C 0.36929 0.79102 0.94739 0.0
C612 C 0.36712 0.81122 0.92278 0.0
H613 H 0.52127 0.81599 0.9707 0.0
H614 H 0.48422 0.82079 0.93777 0.0
C615 C 0.34515 0.81176 0.92399 0.0
C616 C 0.39247 0.79027 0.94563 0.0
H617 H 0.45522 0.81764 0.04596 0.0
C618 C 0.39059 0.77185 0.88603 0.0
C619 C 0.41616 0.80728 0.00292 0.0
C620 C 0.41908 0.82717 0.06914 0.0
C621 C 0.41173 0.76985 0.88247 0.0
C622 C 0.43527 0.78629 0.94184 0.0
C623 C 0.43726 0.80511 0.00014 0.0
C624 C 0.45732 0.78281 0.9501 0.0
C625 C 0.40857 0.75018 0.81467 0.0
C626 C 0.45451 0.7598 0.9662 0.0
C627 C 0.47543 0.75691 0.98343 0.0
C628 C 0.49991 0.77715 0.98722 0.0
C629 C 0.50268 0.79997 0.9677 0.0
C630 C 0.48155 0.80279 0.94959 0.0
H631 H 0.39335 0.74602 0.75689 0.0
H632 H 0.42641 0.75609 0.79424 0.0
H633 H 0.40296 0.73255 0.84121 0.0
H634 H 0.43626 0.74428 0.9694 0.0
H635 H 0.47248 0.73904 -0.00174 0.0
H636 H 0.78686 0.54367 0.99006 0.0
H637 H 0.74754 0.5084 0.00866 0.0
H638 H 0.7122 0.55253 0.97772 0.0
H639 H 0.75124 0.58753 0.95376 0.0
H640 H 0.71747 0.49795 0.11299 0.0
H641 H 0.66476 0.49527 0.78912 0.0
H642 H 0.69863 0.51553 0.82635 0.0
H643 H 0.67777 0.5242 0.86012 0.0
C644 C 0.77083 0.54602 0.9882 0.0
C645 C 0.772 0.56826 0.96904 0.0
C646 C 0.7483 0.52578 -0.00118 0.0
C647 C 0.72659 0.52747 -0.00816 0.0
C648 C 0.72837 0.5504 0.97995 0.0
H649 H 0.57113 0.41525 0.98649 0.0
H650 H 0.61144 0.45427 0.00038 0.0
C651 C 0.75075 0.57049 0.96712 0.0
C652 C 0.70196 0.50479 -0.00756 0.0
H653 H 0.64101 0.46659 0.87335 0.0
C654 C 0.70077 0.49114 0.06058 0.0
C655 C 0.68014 0.49567 0.92357 0.0
C656 C 0.68039 0.50827 0.84527 0.0
C657 C 0.67842 0.46879 0.06187 0.0
C658 C 0.65672 0.45989 -0.00665 0.0
C659 C 0.65773 0.4736 0.92593 0.0
C660 C 0.63274 0.43619 0.98951 0.0
C661 C 0.6781 0.45488 0.13657 0.0
C662 C 0.63137 0.4131 0.97824 0.0
C663 C 0.60834 0.39071 0.97044 0.0
C664 C 0.58629 0.39107 0.9738 0.0
C665 C 0.58782 0.41431 0.98517 0.0
C666 C 0.6108 0.43663 -0.00736 0.0
H667 H 0.69435 0.46679 0.19256 0.0
H668 H 0.66018 0.44802 0.15749 0.0
H669 H 0.67925 0.43837 0.11593 0.0
H670 H 0.64803 0.41237 0.97421 0.0
H671 H 0.60781 0.37314 0.96208 0.0
H672 H 0.12949 0.37338 0.89115 0.0
H673 H 0.13362 0.38703 0.75086 0.0
H674 H 0.14358 0.32607 0.67389 0.0
H675 H 0.14529 0.3167 0.81991 0.0
H676 H 0.18666 0.36806 0.70576 0.0
H677 H 0.11515 0.38197 0.49986 0.0
H678 H 0.12658 0.40111 0.60335 0.0
H679 H 0.10903 0.36759 0.5945 0.0
C680 C 0.13275 0.3633 0.84373 0.0
C681 C 0.14021 0.34639 0.86772 0.0
C682 C 0.13417 0.37038 0.7625 0.0
C683 C 0.14049 0.35844 0.70348 0.0
C684 C 0.13992 0.33631 0.72011 0.0
H685 H 0.20724 0.3847 0.28928 0.0
H686 H 0.20133 0.3756 0.43152 0.0
C687 C 0.14079 0.33083 0.80345 0.0
C688 C 0.15582 0.37275 0.64413 0.0
H689 H 0.15806 0.40558 0.47916 0.0
C690 C 0.18011 0.37592 0.65536 0.0
C691 C 0.14818 0.38447 0.58213 0.0
C692 C 0.12323 0.38341 0.56932 0.0
C693 C 0.19632 0.3892 0.60363 0.0
C694 C 0.18802 0.39948 0.53813 0.0
C695 C 0.16437 0.39754 0.52952 0.0
C696 C 0.20176 0.40952 0.4707 0.0
C697 C 0.22212 0.39201 0.61975 0.0
C698 C 0.20611 0.4325 0.4482 0.0
C699 C 0.20901 0.43739 0.36579 0.0
C700 C 0.20765 0.41936 0.30573 0.0
C701 C 0.20803 0.39867 0.33374 0.0
C702 C 0.2047 0.39351 0.41569 0.0
H703 H 0.22918 0.39191 0.68871 0.0
H704 H 0.22068 0.37592 0.58106 0.0
H705 H 0.2362 0.40958 0.60134 0.0
H706 H 0.20431 0.44527 0.49044 0.0
H707 H 0.20916 0.45378 0.34584 0.0
H708 H 0.77411 0.21195 0.57053 0.0
H709 H 0.78838 0.21328 0.43783 0.0
H710 H 0.86241 0.27535 0.56791 0.0
H711 H 0.84781 0.27465 0.69952 0.0
H712 H 0.84905 0.27157 0.38015 0.0
H713 H 0.83596 0.18436 0.49285 0.0
H714 H 0.80703 0.18464 0.46729 0.0
H715 H 0.83274 0.20697 0.55488 0.0
C716 C 0.79282 0.22699 0.56892 0.0
C717 C 0.8101 0.24285 0.64502 0.0
C718 C 0.8011 0.22753 0.49355 0.0
C719 C 0.82673 0.24368 0.49479 0.0
C720 C 0.84267 0.26247 0.56633 0.0
H721 H 0.89498 0.229 0.0818 0.0
H722 H 0.89604 0.23557 0.23549 0.0
C723 C 0.83426 0.26212 0.64139 0.0
C724 C 0.83778 0.23732 0.43114 0.0
H725 H 0.84364 0.18939 0.35122 0.0
C726 C 0.8483 0.25384 0.37443 0.0
C727 C 0.8375 0.21448 0.42607 0.0
C728 C 0.82797 0.19672 0.48918 0.0
C729 C 0.85639 0.24701 0.30733 0.0
C730 C 0.8541 0.22323 0.29802 0.0
C731 C 0.8454 0.20759 0.35879 0.0
C732 C 0.85535 0.21254 0.21626 0.0
C733 C 0.86563 0.26445 0.24307 0.0
C734 C 0.83241 0.19572 0.15681 0.0
C735 C 0.83181 0.19205 0.06976 0.0
C736 C 0.85417 0.20484 0.0418 0.0
C737 C 0.87756 0.21878 0.10262 0.0
C738 C 0.87815 0.2227 0.19005 0.0
H739 H 0.86481 0.28157 0.25669 0.0
H740 H 0.88556 0.27023 0.24472 0.0
H741 H 0.85405 0.25469 0.17676 0.0
H742 H 0.81464 0.18764 0.1761 0.0
H743 H 0.81362 0.18128 0.02349 0.0
H744 H 0.5317 0.73818 0.82412 0.0
H745 H 0.52674 0.76126 0.71232 0.0
H746 H 0.58957 0.83038 0.86733 0.0
H747 H 0.59618 0.80642 0.97625 0.0
H748 H 0.5136 0.79679 0.73024 0.0
H749 H 0.60616 0.83809 0.63786 0.0
H750 H 0.59835 0.81442 0.70592 0.0
H751 H 0.60522 0.84505 0.74697 0.0
C752 C 0.54491 0.75819 0.83351 0.0
C753 C 0.5637 0.77082 0.91021 0.0
C754 C 0.54178 0.77148 0.77034 0.0
C755 C 0.5571 0.7977 0.78302 0.0
C756 C 0.57724 0.81023 0.85669 0.0
H757 H 0.52307 0.8148 0.25953 0.0
H758 H 0.51684 0.82418 0.39948 0.0
C759 C 0.58091 0.79664 0.91902 0.0
C760 C 0.5516 0.81069 0.71538 0.0
H761 H 0.57003 0.82633 0.53021 0.0
C762 C 0.52615 0.80418 0.68721 0.0
C763 C 0.56827 0.82159 0.66122 0.0
C764 C 0.59605 0.8303 0.68906 0.0
C765 C 0.51569 0.80224 0.59989 0.0
C766 C 0.53157 0.80837 0.54277 0.0
C767 C 0.55793 0.82081 0.57511 0.0
C768 C 0.52207 0.79563 0.45311 0.0
C769 C 0.4875 0.79056 0.56762 0.0
C770 C 0.52497 0.77508 0.43549 0.0
C771 C 0.52986 0.77048 0.3573 0.0
C772 C 0.53102 0.78597 0.29595 0.0
C773 C 0.52316 0.8032 0.30761 0.0
C774 C 0.51918 0.80839 0.38691 0.0
H775 H 0.47892 0.79299 0.61937 0.0
H776 H 0.48309 0.79889 0.51208 0.0
H777 H 0.47872 0.7702 0.5455 0.0
H778 H 0.52713 0.765 0.4865 0.0
H779 H 0.5353 0.75673 0.34881 0.0
H780 H 0.8103 0.55721 0.58833 0.0
H781 H 0.82097 0.57618 0.46095 0.0
H782 H 0.81224 0.63651 0.55462 0.0
H783 H 0.79763 0.61511 0.6752 0.0
H784 H 0.80808 0.63252 0.38551 0.0
H785 H 0.89368 0.63062 0.53791 0.0
H786 H 0.86686 0.59994 0.49647 0.0
H787 H 0.86646 0.61886 0.58367 0.0
C788 C 0.80933 0.57378 0.57921 0.0
C789 C 0.80546 0.58621 0.64465 0.0
C790 C 0.81586 0.58485 0.50736 0.0
C791 C 0.81969 0.60886 0.50324 0.0
C792 C 0.81068 0.61857 0.55917 0.0
H793 H 0.87521 0.69362 0.10856 0.0
H794 H 0.88092 0.695 0.26452 0.0
C795 C 0.80261 0.60657 0.62835 0.0
C796 C 0.83616 0.62489 0.44968 0.0
H797 H 0.89328 0.6447 0.40172 0.0
C798 C 0.82687 0.63558 0.38967 0.0
C799 C 0.86096 0.6293 0.45708 0.0
C800 C 0.87268 0.61931 0.52302 0.0
C801 C 0.84061 0.64849 0.33077 0.0
C802 C 0.8648 0.6515 0.33444 0.0
C803 C 0.87491 0.64254 0.3993 0.0
C804 C 0.87669 0.65842 0.26074 0.0
C805 C 0.82792 0.6567 0.26069 0.0
C806 C 0.87764 0.63986 0.2112 0.0
C807 C 0.87578 0.63977 0.12298 0.0
C808 C 0.87224 0.65772 0.08461 0.0
C809 C 0.87696 0.67903 0.13706 0.0
C810 C 0.88001 0.67972 0.22594 0.0
H811 H 0.80792 0.64997 0.26151 0.0
H812 H 0.83822 0.67745 0.2696 0.0
H813 H 0.82808 0.64951 0.19616 0.0
H814 H 0.87613 0.62364 0.2375 0.0
H815 H 0.87334 0.62385 0.08393 0.0
H816 H 0.23885 0.82161 0.35348 0.0
H817 H 0.22507 0.82675 0.48276 0.0
H818 H 0.16899 0.74775 0.43348 0.0
H819 H 0.1827 0.74254 0.30492 0.0
H820 H 0.17519 0.81579 0.47764 0.0
H821 H 0.20172 0.76107 0.68983 0.0
H822 H 0.21484 0.77134 0.59818 0.0
H823 H 0.18396 0.74369 0.58364 0.0
C824 C 0.22427 0.80523 0.37229 0.0
C825 C 0.2118 0.78165 0.31984 0.0
C826 C 0.2162 0.80825 0.44526 0.0
C827 C 0.19599 0.78764 0.46713 0.0
C828 C 0.1848 0.76381 0.41808 0.0
H829 H 0.11416 0.75351 0.84683 0.0
H830 H 0.11651 0.76104 0.69921 0.0
C831 C 0.1927 0.76083 0.34501 0.0
C832 C 0.1854 0.79096 0.538 0.0
H833 H 0.17152 0.76994 0.724 0.0
C834 C 0.17454 0.806 0.53215 0.0
C835 C 0.18454 0.77805 0.60835 0.0
C836 C 0.19712 0.76284 0.62096 0.0
C837 C 0.1623 0.80795 0.5947 0.0
C838 C 0.16102 0.7945 0.66361 0.0
C839 C 0.17206 0.77973 0.66946 0.0
C840 C 0.1513 0.79711 0.73767 0.0
C841 C 0.1506 0.82394 0.5868 0.0
C842 C 0.16885 0.81591 0.80741 0.0
C843 C 0.16801 0.81131 0.89139 0.0
C844 C 0.14921 0.78814 0.90596 0.0
C845 C 0.12915 0.77127 0.83674 0.0
C846 C 0.1302 0.77576 0.75251 0.0
H847 H 0.15135 0.83153 0.5253 0.0
H848 H 0.13052 0.8128 0.59066 0.0
H849 H 0.16078 0.83982 0.64141 0.0
H850 H 0.18526 0.83249 0.79714 0.0
H851 H 0.18329 0.82495 0.94422 0.0
H852 H 0.48742 0.26375 0.66674 0.0
H853 H 0.49212 0.27694 0.52717 0.0
H854 H 0.41513 0.2599 0.46463 0.0
H855 H 0.40972 0.24557 0.6016 0.0
H856 H 0.44702 0.22127 0.49084 0.0
H857 H 0.43985 0.27585 0.23257 0.0
H858 H 0.46188 0.29097 0.33683 0.0
H859 H 0.42867 0.27829 0.32646 0.0
C860 C 0.47195 0.2642 0.6252 0.0
C861 C 0.44758 0.25174 0.63996 0.0
C862 C 0.47479 0.2723 0.54601 0.0
C863 C 0.45287 0.26615 0.48294 0.0
C864 C 0.43165 0.26267 0.51078 0.0
H865 H 0.39714 0.19069 -0.00256 0.0
H866 H 0.38651 0.18022 0.13446 0.0
C867 C 0.42832 0.25388 0.58837 0.0
C868 C 0.44619 0.24747 0.40817 0.0
H869 H 0.42622 0.23361 0.19049 0.0
C870 C 0.44272 0.22409 0.42496 0.0
C871 C 0.43948 0.25072 0.32322 0.0
C872 C 0.44267 0.27529 0.3029 0.0
C873 C 0.43335 0.20411 0.35846 0.0
C874 C 0.42742 0.20759 0.2732 0.0
C875 C 0.43016 0.23072 0.25652 0.0
C876 C 0.42452 0.19057 0.19973 0.0
C877 C 0.43036 0.17964 0.37949 0.0
C878 C 0.44763 0.19432 0.18768 0.0
C879 C 0.45421 0.20152 0.11108 0.0
C880 C 0.43671 0.20263 0.04581 0.0
C881 C 0.41119 0.19096 0.04908 0.0
C882 C 0.40492 0.18438 0.12685 0.0
H883 H 0.42839 0.17744 0.44663 0.0
H884 H 0.41359 0.16353 0.33425 0.0
H885 H 0.44744 0.17918 0.37321 0.0
H886 H 0.46264 0.19778 0.24253 0.0
H887 H 0.47374 0.20937 0.10769 0.0
loop_
_geom_bond_atom_site_label_1
_geom_bond_atom_site_label_2
_geom_bond_distance
_geom_bond_site_symmetry_2
_ccdc_geom_bond_type
Gd0 C3 2.818 . S
Gd0 O20 2.377 1_554 S
Gd0 O22 2.448 1_554 S
Gd0 O23 2.506 . S
Gd0 O24 2.435 1_554 S
Gd0 O25 2.717 1_554 S
Gd0 O27 2.395 1_554 S
Gd0 O31 2.327 . S
Gd1 C12 2.818 . S
Gd1 O21 2.395 1_556 S
Gd1 O25 2.327 . S
Gd1 O26 2.377 1_556 S
Gd1 O28 2.448 1_556 S
Gd1 O29 2.506 . S
Gd1 O30 2.435 1_556 S
Gd1 O31 2.717 1_556 S
C2 O20 1.240 1_554 S
C2 O21 1.240 . S
C3 Gd0 2.818 . S
C3 C4 1.510 . S
C3 O22 1.249 1_554 S
C3 O23 1.252 . S
C4 C3 1.510 . S
C4 C5 1.404 . S
C4 C6 1.352 . S
C5 C4 1.404 . S
C5 C9 1.389 . S
C5 H32 0.930 1_554 S
C6 C4 1.352 . S
C6 C8 1.374 . S
C6 H33 0.931 . S
C7 C8 1.359 . S
C7 C9 1.364 . S
C8 C6 1.374 . S
C8 C7 1.359 . S
C8 H34 0.931 . S
C9 C5 1.389 . S
C9 C7 1.364 . S
C9 H35 0.931 . S
C10 O24 1.256 . S
C10 O25 1.257 . S
C11 O26 1.240 1_556 S
C11 O27 1.240 . S
C12 Gd1 2.818 . S
C12 C13 1.510 . S
C12 O28 1.249 1_556 S
C12 O29 1.252 . S
C13 C12 1.510 . S
C13 C14 1.404 . S
C13 C15 1.352 . S
C14 C13 1.404 . S
C14 C18 1.389 . S
C14 H36 0.930 1_556 S
C15 C13 1.352 . S
C15 C17 1.374 . S
C15 H37 0.931 . S
C16 C17 1.359 . S
C16 C18 1.364 . S
C17 C15 1.374 . S
C17 C16 1.359 . S
C17 H38 0.931 . S
C18 C14 1.389 . S
C18 C16 1.364 . S
C18 H39 0.931 . S
C19 O30 1.256 . S
C19 O31 1.257 . S
O20 Gd0 2.377 1_556 S
O20 C2 1.240 1_556 S
O21 Gd1 2.395 1_554 S
O21 C2 1.240 . S
O22 Gd0 2.448 1_556 S
O22 C3 1.249 1_556 S
O23 Gd0 2.506 . S
O23 C3 1.252 . S
O24 Gd0 2.435 1_556 S
O24 C10 1.256 . S
O25 Gd0 2.717 1_556 S
O25 Gd1 2.327 . S
O25 C10 1.257 . S
O26 Gd1 2.377 1_554 S
O26 C11 1.240 1_554 S
O27 Gd0 2.395 1_556 S
O27 C11 1.240 . S
O28 Gd1 2.448 1_554 S
O28 C12 1.249 1_554 S
O29 Gd1 2.506 . S
O29 C12 1.252 . S
O30 Gd1 2.435 1_554 S
O30 C19 1.256 . S
O31 Gd0 2.327 . S
O31 Gd1 2.717 1_554 S
O31 C19 1.257 . S
H32 C5 0.930 1_556 S
H33 C6 0.931 . S
H34 C8 0.931 . S
H35 C9 0.931 . S
H36 C14 0.930 1_554 S
H37 C15 0.931 . S
H38 C17 0.931 . S
H39 C18 0.931 . S
Gd40 C43 2.818 . S
Gd40 O60 2.377 . S
Gd40 O62 2.448 . S
Gd40 O63 2.506 1_556 S
Gd40 O64 2.435 . S
Gd40 O65 2.717 . S
Gd40 O67 2.395 . S
Gd40 O71 2.327 1_556 S
Gd41 C52 2.818 . S
Gd41 O61 2.395 1_556 S
Gd41 O65 2.327 . S
Gd41 O66 2.377 . S
Gd41 O68 2.448 1_556 S
Gd41 O69 2.506 . S
Gd41 O70 2.435 1_556 S
Gd41 O71 2.717 1_556 S
C42 O60 1.240 1_554 S
C42 O61 1.240 . S
C43 Gd40 2.818 . S
C43 C44 1.510 1_556 S
C43 O62 1.249 . S
C43 O63 1.252 1_556 S
C44 C43 1.510 1_554 S
C44 C45 1.404 1_554 S
C44 C46 1.352 . S
C45 C44 1.404 1_556 S
C45 C49 1.389 . S
C45 H72 0.930 . S
C46 C44 1.352 . S
C46 C48 1.374 . S
C46 H73 0.931 . S
C47 C48 1.359 . S
C47 C49 1.364 1_554 S
C48 C46 1.374 . S
C48 C47 1.359 . S
C48 H74 0.931 . S
C49 C45 1.389 . S
C49 C47 1.364 1_556 S
C49 H75 0.931 . S
C50 O64 1.256 . S
C50 O65 1.257 . S
C51 O66 1.240 . S
C51 O67 1.240 . S
C52 Gd41 2.818 . S
C52 C53 1.510 . S
C52 O68 1.249 1_556 S
C52 O69 1.252 . S
C53 C52 1.510 . S
C53 C54 1.404 . S
C53 C55 1.352 . S
C54 C53 1.404 . S
C54 C58 1.389 . S
C54 H76 0.930 1_556 S
C55 C53 1.352 . S
C55 C57 1.374 . S
C55 H77 0.931 . S
C56 C57 1.359 . S
C56 C58 1.364 . S
C57 C55 1.374 . S
C57 C56 1.359 . S
C57 H78 0.931 . S
C58 C54 1.389 . S
C58 C56 1.364 . S
C58 H79 0.931 1_556 S
C59 O70 1.256 . S
C59 O71 1.257 . S
O60 Gd40 2.377 . S
O60 C42 1.240 1_556 S
O61 Gd41 2.395 1_554 S
O61 C42 1.240 . S
O62 Gd40 2.448 . S
O62 C43 1.249 . S
O63 Gd40 2.506 1_554 S
O63 C43 1.252 1_554 S
O64 Gd40 2.435 . S
O64 C50 1.256 . S
O65 Gd40 2.717 . S
O65 Gd41 2.327 . S
O65 C50 1.257 . S
O66 Gd41 2.377 . S
O66 C51 1.240 . S
O67 Gd40 2.395 . S
O67 C51 1.240 . S
O68 Gd41 2.448 1_554 S
O68 C52 1.249 1_554 S
O69 Gd41 2.506 . S
O69 C52 1.252 . S
O70 Gd41 2.435 1_554 S
O70 C59 1.256 . S
O71 Gd40 2.327 1_554 S
O71 Gd41 2.717 1_554 S
O71 C59 1.257 . S
H72 C45 0.930 . S
H73 C46 0.931 . S
H74 C48 0.931 . S
H75 C49 0.931 . S
H76 C54 0.930 1_554 S
H77 C55 0.931 . S
H78 C57 0.931 . S
H79 C58 0.931 1_554 S
Gd80 C83 2.818 . S
Gd80 O100 2.377 . S
Gd80 O102 2.448 . S
Gd80 O103 2.506 1_556 S
Gd80 O104 2.435 . S
Gd80 O105 2.717 . S
Gd80 O107 2.395 1_556 S
Gd80 O111 2.327 1_556 S
Gd81 C92 2.818 . S
Gd81 O101 2.395 . S
Gd81 O105 2.327 1_554 S
Gd81 O106 2.377 . S
Gd81 O108 2.448 . S
Gd81 O109 2.506 . S
Gd81 O110 2.435 . S
Gd81 O111 2.717 . S
C82 O100 1.240 . S
C82 O101 1.240 1_556 S
C83 Gd80 2.818 . S
C83 C84 1.510 . S
C83 O102 1.249 . S
C83 O103 1.252 1_556 S
C84 C83 1.510 . S
C84 C85 1.404 . S
C84 C86 1.352 . S
C85 C84 1.404 . S
C85 C89 1.389 . S
C85 H112 0.930 . S
C86 C84 1.352 . S
C86 C88 1.374 . S
C86 H113 0.931 1_556 S
C87 C88 1.359 . S
C87 C89 1.364 . S
C88 C86 1.374 . S
C88 C87 1.359 . S
C88 H114 0.931 1_556 S
C89 C85 1.389 . S
C89 C87 1.364 . S
C89 H115 0.931 . S
C90 O104 1.256 . S
C90 O105 1.257 . S
C91 O106 1.240 . S
C91 O107 1.240 . S
C92 Gd81 2.818 . S
C92 C93 1.510 . S
C92 O108 1.249 . S
C92 O109 1.252 . S
C93 C92 1.510 . S
C93 C94 1.404 . S
C93 C95 1.352 . S
C94 C93 1.404 . S
C94 C98 1.389 . S
C94 H116 0.930 . S
C95 C93 1.352 . S
C95 C97 1.374 . S
C95 H117 0.931 1_554 S
C96 C97 1.359 . S
C96 C98 1.364 . S
C97 C95 1.374 . S
C97 C96 1.359 . S
C97 H118 0.931 . S
C98 C94 1.389 . S
C98 C96 1.364 . S
C98 H119 0.931 . S
C99 O110 1.256 . S
C99 O111 1.257 . S
O100 Gd80 2.377 . S
O100 C82 1.240 . S
O101 Gd81 2.395 . S
O101 C82 1.240 1_554 S
O102 Gd80 2.448 . S
O102 C83 1.249 . S
O103 Gd80 2.506 1_554 S
O103 C83 1.252 1_554 S
O104 Gd80 2.435 . S
O104 C90 1.256 . S
O105 Gd80 2.717 . S
O105 Gd81 2.327 1_556 S
O105 C90 1.257 . S
O106 Gd81 2.377 . S
O106 C91 1.240 . S
O107 Gd80 2.395 1_554 S
O107 C91 1.240 . S
O108 Gd81 2.448 . S
O108 C92 1.249 . S
O109 Gd81 2.506 . S
O109 C92 1.252 . S
O110 Gd81 2.435 . S
O110 C99 1.256 . S
O111 Gd80 2.327 1_554 S
O111 Gd81 2.717 . S
O111 C99 1.257 . S
H112 C85 0.930 . S
H113 C86 0.931 1_554 S
H114 C88 0.931 1_554 S
H115 C89 0.931 . S
H116 C94 0.930 . S
H117 C95 0.931 1_556 S
H118 C97 0.931 . S
H119 C98 0.931 . S
Gd120 C123 2.818 1_556 S
Gd120 O140 2.377 . S
Gd120 O142 2.448 . S
Gd120 O143 2.506 1_556 S
Gd120 O144 2.435 . S
Gd120 O145 2.717 . S
Gd120 O147 2.395 . S
Gd120 O151 2.327 1_556 S
Gd121 C132 2.818 . S
Gd121 O141 2.395 . S
Gd121 O145 2.327 . S
Gd121 O146 2.377 . S
Gd121 O148 2.448 . S
Gd121 O149 2.506 . S
Gd121 O150 2.435 1_556 S
Gd121 O151 2.717 1_556 S
C122 O140 1.240 . S
C122 O141 1.240 . S
C123 Gd120 2.818 1_554 S
C123 C124 1.510 . S
C123 O142 1.249 1_554 S
C123 O143 1.252 . S
C124 C123 1.510 . S
C124 C125 1.404 . S
C124 C126 1.352 . S
C125 C124 1.404 . S
C125 C129 1.389 . S
C125 H152 0.930 1_554 S
C126 C124 1.352 . S
C126 C128 1.374 . S
C126 H153 0.931 . S
C127 C128 1.359 . S
C127 C129 1.364 . S
C128 C126 1.374 . S
C128 C127 1.359 . S
C128 H154 0.931 . S
C129 C125 1.389 . S
C129 C127 1.364 . S
C129 H155 0.931 1_554 S
C130 O144 1.256 . S
C130 O145 1.257 . S
C131 O146 1.240 . S
C131 O147 1.240 . S
C132 Gd121 2.818 . S
C132 C133 1.510 . S
C132 O148 1.249 . S
C132 O149 1.252 . S
C133 C132 1.510 . S
C133 C134 1.404 . S
C133 C135 1.352 . S
C134 C133 1.404 . S
C134 C138 1.389 . S
C134 H156 0.930 . S
C135 C133 1.352 . S
C135 C137 1.374 . S
C135 H157 0.931 . S
C136 C137 1.359 . S
C136 C138 1.364 . S
C137 C135 1.374 . S
C137 C136 1.359 . S
C137 H158 0.931 . S
C138 C134 1.389 . S
C138 C136 1.364 . S
C138 H159 0.931 . S
C139 O150 1.256 . S
C139 O151 1.257 . S
O140 Gd120 2.377 . S
O140 C122 1.240 . S
O141 Gd121 2.395 . S
O141 C122 1.240 . S
O142 Gd120 2.448 . S
O142 C123 1.249 1_556 S
O143 Gd120 2.506 1_554 S
O143 C123 1.252 . S
O144 Gd120 2.435 . S
O144 C130 1.256 . S
O145 Gd120 2.717 . S
O145 Gd121 2.327 . S
O145 C130 1.257 . S
O146 Gd121 2.377 . S
O146 C131 1.240 . S
O147 Gd120 2.395 . S
O147 C131 1.240 . S
O148 Gd121 2.448 . S
O148 C132 1.249 . S
O149 Gd121 2.506 . S
O149 C132 1.252 . S
O150 Gd121 2.435 1_554 S
O150 C139 1.256 . S
O151 Gd120 2.327 1_554 S
O151 Gd121 2.717 1_554 S
O151 C139 1.257 . S
H152 C125 0.930 1_556 S
H153 C126 0.931 . S
H154 C128 0.931 . S
H155 C129 0.931 1_556 S
H156 C134 0.930 . S
H157 C135 0.931 . S
H158 C137 0.931 . S
H159 C138 0.931 . S
Gd160 C163 2.818 1_556 S
Gd160 O180 2.377 1_556 S
Gd160 O182 2.448 . S
Gd160 O183 2.506 1_556 S
Gd160 O184 2.435 . S
Gd160 O185 2.717 . S
Gd160 O187 2.395 . S
Gd160 O191 2.327 1_556 S
Gd161 C172 2.818 1_554 S
Gd161 O181 2.395 . S
Gd161 O185 2.327 1_554 S
Gd161 O186 2.377 . S
Gd161 O188 2.448 . S
Gd161 O189 2.506 1_554 S
Gd161 O190 2.435 . S
Gd161 O191 2.717 . S
C162 O180 1.240 . S
C162 O181 1.240 . S
C163 Gd160 2.818 1_554 S
C163 C164 1.510 . S
C163 O182 1.249 1_554 S
C163 O183 1.252 . S
C164 C163 1.510 . S
C164 C165 1.404 1_554 S
C164 C166 1.352 . S
C165 C164 1.404 1_556 S
C165 C169 1.389 1_556 S
C165 H192 0.930 . S
C166 C164 1.352 . S
C166 C168 1.374 . S
C166 H193 0.931 . S
C167 C168 1.359 . S
C167 C169 1.364 . S
C168 C166 1.374 . S
C168 C167 1.359 . S
C168 H194 0.931 . S
C169 C165 1.389 1_554 S
C169 C167 1.364 . S
C169 H195 0.931 1_554 S
C170 O184 1.256 . S
C170 O185 1.257 . S
C171 O186 1.240 1_556 S
C171 O187 1.240 . S
C172 Gd161 2.818 1_556 S
C172 C173 1.510 . S
C172 O188 1.249 1_556 S
C172 O189 1.252 . S
C173 C172 1.510 . S
C173 C174 1.404 1_556 S
C173 C175 1.352 . S
C174 C173 1.404 1_554 S
C174 C178 1.389 . S
C174 H196 0.930 . S
C175 C173 1.352 . S
C175 C177 1.374 . S
C175 H197 0.931 . S
C176 C177 1.359 . S
C176 C178 1.364 1_556 S
C177 C175 1.374 . S
C177 C176 1.359 . S
C177 H198 0.931 . S
C178 C174 1.389 . S
C178 C176 1.364 1_554 S
C178 H199 0.931 . S
C179 O190 1.256 . S
C179 O191 1.257 . S
O180 Gd160 2.377 1_554 S
O180 C162 1.240 . S
O181 Gd161 2.395 . S
O181 C162 1.240 . S
O182 Gd160 2.448 . S
O182 C163 1.249 1_556 S
O183 Gd160 2.506 1_554 S
O183 C163 1.252 . S
O184 Gd160 2.435 . S
O184 C170 1.256 . S
O185 Gd160 2.717 . S
O185 Gd161 2.327 1_556 S
O185 C170 1.257 . S
O186 Gd161 2.377 . S
O186 C171 1.240 1_554 S
O187 Gd160 2.395 . S
O187 C171 1.240 . S
O188 Gd161 2.448 . S
O188 C172 1.249 1_554 S
O189 Gd161 2.506 1_556 S
O189 C172 1.252 . S
O190 Gd161 2.435 . S
O190 C179 1.256 . S
O191 Gd160 2.327 1_554 S
O191 Gd161 2.717 . S
O191 C179 1.257 . S
H192 C165 0.930 . S
H193 C166 0.931 . S
H194 C168 0.931 . S
H195 C169 0.931 1_556 S
H196 C174 0.930 . S
H197 C175 0.931 . S
H198 C177 0.931 . S
H199 C178 0.931 . S
Gd200 C203 2.818 . S
Gd200 O220 2.377 . S
Gd200 O222 2.448 . S
Gd200 O223 2.506 . S
Gd200 O224 2.435 . S
Gd200 O225 2.717 . S
Gd200 O227 2.395 . S
Gd200 O231 2.327 1_556 S
Gd201 C212 2.818 1_556 S
Gd201 O221 2.395 . S
Gd201 O225 2.327 . S
Gd201 O226 2.377 1_556 S
Gd201 O228 2.448 1_556 S
Gd201 O229 2.506 . S
Gd201 O230 2.435 1_556 S
Gd201 O231 2.717 1_556 S
C202 O220 1.240 . S
C202 O221 1.240 . S
C203 Gd200 2.818 . S
C203 C204 1.510 . S
C203 O222 1.249 . S
C203 O223 1.252 . S
C204 C203 1.510 . S
C204 C205 1.404 . S
C204 C206 1.352 . S
C205 C204 1.404 . S
C205 C209 1.389 . S
C205 H232 0.930 . S
C206 C204 1.352 . S
C206 C208 1.374 . S
C206 H233 0.931 . S
C207 C208 1.359 . S
C207 C209 1.364 . S
C208 C206 1.374 . S
C208 C207 1.359 . S
C208 H234 0.931 . S
C209 C205 1.389 . S
C209 C207 1.364 . S
C209 H235 0.931 . S
C210 O224 1.256 . S
C210 O225 1.257 . S
C211 O226 1.245 . S
C211 O227 1.237 1_554 S
C212 Gd201 2.818 1_554 S
C212 C213 1.510 . S
C212 O228 1.249 . S
C212 O229 1.252 1_554 S
C213 C212 1.510 . S
C213 C214 1.404 . S
C213 C215 1.352 1_554 S
C214 C213 1.404 . S
C214 C218 1.389 . S
C214 H236 0.930 . S
C215 C213 1.352 1_556 S
C215 C217 1.374 1_556 S
C215 H237 0.931 . S
C216 C217 1.359 . S
C216 C218 1.364 . S
C217 C215 1.374 1_554 S
C217 C216 1.359 . S
C217 H238 0.931 1_554 S
C218 C214 1.389 . S
C218 C216 1.364 . S
C218 H239 0.931 . S
C219 O230 1.256 . S
C219 O231 1.257 . S
O220 Gd200 2.377 . S
O220 C202 1.240 . S
O221 Gd201 2.395 . S
O221 C202 1.240 . S
O222 Gd200 2.448 . S
O222 C203 1.249 . S
O223 Gd200 2.506 . S
O223 C203 1.252 . S
O224 Gd200 2.435 . S
O224 C210 1.256 . S
O225 Gd200 2.717 . S
O225 Gd201 2.327 . S
O225 C210 1.257 . S
O226 Gd201 2.377 1_554 S
O226 C211 1.245 . S
O227 Gd200 2.395 . S
O227 C211 1.237 1_556 S
O228 Gd201 2.448 1_554 S
O228 C212 1.249 . S
O229 Gd201 2.506 . S
O229 C212 1.252 1_556 S
O230 Gd201 2.435 1_554 S
O230 C219 1.256 . S
O231 Gd200 2.327 1_554 S
O231 Gd201 2.717 1_554 S
O231 C219 1.257 . S
H232 C205 0.930 . S
H233 C206 0.931 . S
H234 C208 0.931 . S
H235 C209 0.931 . S
H236 C214 0.930 . S
H237 C215 0.931 . S
H238 C217 0.931 1_556 S
H239 C218 0.931 . S
H240 C248 0.929 . S
H241 C250 0.930 . S
H242 C252 0.930 . S
H243 C255 0.929 . S
H244 C258 0.930 . S
H245 C260 0.960 . S
H246 C260 0.960 . S
H247 C260 0.960 . S
C248 H240 0.929 . S
C248 C249 1.377 . S
C248 C250 1.384 . S
C249 C248 1.377 . S
C249 C255 1.390 . S
C250 H241 0.930 . S
C250 C248 1.384 . S
C250 C251 1.372 . S
C251 C250 1.372 . S
C251 C252 1.400 . S
C251 C256 1.490 . S
C252 H242 0.930 . S
C252 C251 1.400 . S
C252 C255 1.386 . S
H253 C269 0.930 . S
H254 C270 0.931 . S
C255 H243 0.929 . S
C255 C249 1.390 . S
C255 C252 1.386 . S
C256 C251 1.490 . S
C256 C258 1.395 . S
C256 C259 1.403 . S
H257 C263 0.930 . S
C258 H244 0.930 . S
C258 C256 1.395 . S
C258 C261 1.403 . S
C259 C256 1.403 . S
C259 C260 1.524 . S
C259 C263 1.400 . S
C260 H245 0.960 . S
C260 H246 0.960 . S
C260 H247 0.960 . S
C260 C259 1.524 . S
C261 C258 1.403 . S
C261 C262 1.392 . S
C261 C265 1.495 . S
C262 C261 1.392 . S
C262 C263 1.385 . S
C262 C264 1.478 . S
C263 H257 0.930 . S
C263 C259 1.400 . S
C263 C262 1.385 . S
C264 C262 1.478 . S
C264 C266 1.381 . S
C264 C270 1.383 . S
C265 C261 1.495 . S
C265 H271 0.959 . S
C265 H272 0.961 . S
C265 H273 0.960 . S
C266 C264 1.381 . S
C266 C267 1.394 . S
C266 H274 0.930 . S
C267 C266 1.394 . S
C267 C268 1.383 . S
C267 H275 0.929 . S
C268 C267 1.383 . S
C268 C269 1.377 . S
C269 H253 0.930 . S
C269 C268 1.377 . S
C269 C270 1.379 . S
C270 H254 0.931 . S
C270 C264 1.383 . S
C270 C269 1.379 . S
H271 C265 0.959 . S
H272 C265 0.961 . S
H273 C265 0.960 . S
H274 C266 0.930 . S
H275 C267 0.929 . S
H276 C284 0.929 . S
H277 C286 0.930 . S
H278 C288 0.930 . S
H279 C291 0.929 . S
H280 C294 0.930 . S
H281 C296 0.960 . S
H282 C296 0.960 . S
H283 C296 0.960 . S
C284 H276 0.929 . S
C284 C285 1.377 . S
C284 C286 1.384 . S
C285 C284 1.377 . S
C285 C291 1.390 . S
C286 H277 0.930 . S
C286 C284 1.384 . S
C286 C287 1.372 . S
C287 C286 1.372 . S
C287 C288 1.400 . S
C287 C292 1.490 . S
C288 H278 0.930 . S
C288 C287 1.400 . S
C288 C291 1.386 . S
H289 C305 0.930 . S
H290 C306 0.931 . S
C291 H279 0.929 . S
C291 C285 1.390 . S
C291 C288 1.386 . S
C292 C287 1.490 . S
C292 C294 1.395 . S
C292 C295 1.403 . S
H293 C299 0.930 . S
C294 H280 0.930 . S
C294 C292 1.395 . S
C294 C297 1.403 . S
C295 C292 1.403 . S
C295 C296 1.524 . S
C295 C299 1.400 . S
C296 H281 0.960 . S
C296 H282 0.960 . S
C296 H283 0.960 . S
C296 C295 1.524 . S
C297 C294 1.403 . S
C297 C298 1.392 . S
C297 C301 1.495 1_455 S
C298 C297 1.392 . S
C298 C299 1.385 . S
C298 C300 1.478 . S
C299 H293 0.930 . S
C299 C295 1.400 . S
C299 C298 1.385 . S
C300 C298 1.478 . S
C300 C302 1.381 1_455 S
C300 C306 1.383 . S
C301 C297 1.495 1_655 S
C301 H307 0.959 . S
C301 H308 0.961 . S
C301 H309 0.960 . S
C302 C300 1.381 1_655 S
C302 C303 1.394 . S
C302 H310 0.930 . S
C303 C302 1.394 . S
C303 C304 1.383 . S
C303 H311 0.929 . S
C304 C303 1.383 . S
C304 C305 1.377 1_655 S
C305 H289 0.930 . S
C305 C304 1.377 1_455 S
C305 C306 1.379 . S
C306 H290 0.931 . S
C306 C300 1.383 . S
C306 C305 1.379 . S
H307 C301 0.959 . S
H308 C301 0.961 . S
H309 C301 0.960 . S
H310 C302 0.930 . S
H311 C303 0.929 . S
H312 C320 0.929 . S
H313 C322 0.930 . S
H314 C324 0.930 . S
H315 C327 0.929 . S
H316 C330 0.930 . S
H317 C332 0.960 . S
H318 C332 0.960 . S
H319 C332 0.960 . S
C320 H312 0.929 . S
C320 C321 1.377 . S
C320 C322 1.384 . S
C321 C320 1.377 . S
C321 C327 1.390 . S
C322 H313 0.930 . S
C322 C320 1.384 . S
C322 C323 1.372 . S
C323 C322 1.372 . S
C323 C324 1.400 . S
C323 C328 1.490 . S
C324 H314 0.930 . S
C324 C323 1.400 . S
C324 C327 1.386 . S
H325 C341 0.930 . S
H326 C342 0.931 . S
C327 H315 0.929 . S
C327 C321 1.390 . S
C327 C324 1.386 . S
C328 C323 1.490 . S
C328 C330 1.395 . S
C328 C331 1.403 . S
H329 C335 0.930 . S
C330 H316 0.930 . S
C330 C328 1.395 . S
C330 C333 1.403 . S
C331 C328 1.403 . S
C331 C332 1.524 . S
C331 C335 1.400 . S
C332 H317 0.960 . S
C332 H318 0.960 . S
C332 H319 0.960 . S
C332 C331 1.524 . S
C333 C330 1.403 . S
C333 C334 1.392 . S
C333 C337 1.495 . S
C334 C333 1.392 . S
C334 C335 1.385 . S
C334 C336 1.478 . S
C335 H329 0.930 . S
C335 C331 1.400 . S
C335 C334 1.385 . S
C336 C334 1.478 . S
C336 C338 1.381 . S
C336 C342 1.383 1_545 S
C337 C333 1.495 . S
C337 H343 0.959 . S
C337 H344 0.961 . S
C337 H345 0.960 . S
C338 C336 1.381 . S
C338 C339 1.394 1_545 S
C338 H346 0.930 . S
C339 C338 1.394 1_565 S
C339 C340 1.383 . S
C339 H347 0.929 . S
C340 C339 1.383 . S
C340 C341 1.377 . S
C341 H325 0.930 . S
C341 C340 1.377 . S
C341 C342 1.379 . S
C342 H326 0.931 . S
C342 C336 1.383 1_565 S
C342 C341 1.379 . S
H343 C337 0.959 . S
H344 C337 0.961 . S
H345 C337 0.960 . S
H346 C338 0.930 . S
H347 C339 0.929 . S
H348 C356 0.929 . S
H349 C358 0.930 . S
H350 C360 0.930 . S
H351 C363 0.929 . S
H352 C366 0.930 . S
H353 C368 0.960 . S
H354 C368 0.960 . S
H355 C368 0.960 . S
C356 H348 0.929 . S
C356 C357 1.377 . S
C356 C358 1.384 . S
C357 C356 1.377 . S
C357 C363 1.390 . S
C358 H349 0.930 . S
C358 C356 1.384 . S
C358 C359 1.372 . S
C359 C358 1.372 . S
C359 C360 1.400 . S
C359 C364 1.490 . S
C360 H350 0.930 . S
C360 C359 1.400 . S
C360 C363 1.386 . S
H361 C377 0.930 . S
H362 C378 0.931 . S
C363 H351 0.929 . S
C363 C357 1.390 . S
C363 C360 1.386 . S
C364 C359 1.490 . S
C364 C366 1.395 . S
C364 C367 1.403 . S
H365 C371 0.930 . S
C366 H352 0.930 . S
C366 C364 1.395 . S
C366 C369 1.403 . S
C367 C364 1.403 . S
C367 C368 1.524 . S
C367 C371 1.400 . S
C368 H353 0.960 . S
C368 H354 0.960 . S
C368 H355 0.960 . S
C368 C367 1.524 . S
C369 C366 1.403 . S
C369 C370 1.392 . S
C369 C373 1.495 . S
C370 C369 1.392 . S
C370 C371 1.385 . S
C370 C372 1.478 . S
C371 H365 0.930 . S
C371 C367 1.400 . S
C371 C370 1.385 . S
C372 C370 1.478 . S
C372 C374 1.381 . S
C372 C378 1.383 . S
C373 C369 1.495 . S
C373 H379 0.959 . S
C373 H380 0.961 . S
C373 H381 0.960 . S
C374 C372 1.381 . S
C374 C375 1.394 . S
C374 H382 0.930 . S
C375 C374 1.394 . S
C375 C376 1.383 . S
C375 H383 0.929 . S
C376 C375 1.383 . S
C376 C377 1.377 . S
C377 H361 0.930 . S
C377 C376 1.377 . S
C377 C378 1.379 . S
C378 H362 0.931 . S
C378 C372 1.383 . S
C378 C377 1.379 . S
H379 C373 0.959 . S
H380 C373 0.961 . S
H381 C373 0.960 . S
H382 C374 0.930 . S
H383 C375 0.929 . S
H384 C392 0.929 . S
H385 C394 0.930 . S
H386 C396 0.944 1_455 S
H387 C399 0.929 . S
H388 C402 0.930 . S
H389 C404 0.960 . S
H390 C404 0.960 . S
H391 C404 0.960 . S
C392 H384 0.929 . S
C392 C393 1.385 . S
C392 C394 1.384 . S
C393 C392 1.385 . S
C393 C399 1.397 1_655 S
C394 H385 0.930 . S
C394 C392 1.384 . S
C394 C395 1.372 . S
C395 C394 1.372 . S
C395 C396 1.400 . S
C395 C400 1.490 . S
C396 H386 0.944 1_655 S
C396 C395 1.400 . S
C396 C399 1.386 1_655 S
H397 C413 0.930 . S
H398 C414 0.931 . S
C399 H387 0.929 . S
C399 C393 1.397 1_455 S
C399 C396 1.386 1_455 S
C400 C395 1.490 . S
C400 C402 1.395 . S
C400 C403 1.403 . S
H401 C407 0.930 . S
C402 H388 0.930 . S
C402 C400 1.395 . S
C402 C405 1.403 . S
C403 C400 1.403 . S
C403 C404 1.524 . S
C403 C407 1.400 . S
C404 H389 0.960 . S
C404 H390 0.960 . S
C404 H391 0.960 . S
C404 C403 1.524 . S
C405 C402 1.403 . S
C405 C406 1.392 . S
C405 C409 1.495 . S
C406 C405 1.392 . S
C406 C407 1.385 . S
C406 C408 1.478 . S
C407 H401 0.930 . S
C407 C403 1.400 . S
C407 C406 1.385 . S
C408 C406 1.478 . S
C408 C410 1.381 . S
C408 C414 1.383 . S
C409 C405 1.495 . S
C409 H415 0.959 . S
C409 H416 0.961 . S
C409 H417 0.960 . S
C410 C408 1.381 . S
C410 C411 1.394 . S
C410 H418 0.930 . S
C411 C410 1.394 . S
C411 C412 1.383 . S
C411 H419 0.929 . S
C412 C411 1.383 . S
C412 C413 1.377 . S
C413 H397 0.930 . S
C413 C412 1.377 . S
C413 C414 1.379 . S
C414 H398 0.931 . S
C414 C408 1.383 . S
C414 C413 1.379 . S
H415 C409 0.959 . S
H416 C409 0.961 . S
H417 C409 0.960 . S
H418 C410 0.930 . S
H419 C411 0.929 . S
H420 C428 0.929 . S
H421 C430 0.930 . S
H422 C432 0.930 . S
H423 C435 0.929 . S
H424 C438 0.930 . S
H425 C440 0.960 . S
H426 C440 0.960 . S
H427 C440 0.960 . S
C428 H420 0.929 . S
C428 C429 1.377 . S
C428 C430 1.384 . S
C429 C428 1.377 . S
C429 C435 1.390 . S
C430 H421 0.930 . S
C430 C428 1.384 . S
C430 C431 1.372 . S
C431 C430 1.372 . S
C431 C432 1.400 . S
C431 C436 1.490 . S
C432 H422 0.930 . S
C432 C431 1.400 . S
C432 C435 1.386 . S
H433 C449 0.930 . S
H434 C450 0.931 . S
C435 H423 0.929 . S
C435 C429 1.390 . S
C435 C432 1.386 . S
C436 C431 1.490 . S
C436 C438 1.395 . S
C436 C439 1.403 . S
H437 C443 0.930 . S
C438 H424 0.930 . S
C438 C436 1.395 . S
C438 C441 1.403 . S
C439 C436 1.403 . S
C439 C440 1.524 . S
C439 C443 1.400 . S
C440 H425 0.960 . S
C440 H426 0.960 . S
C440 H427 0.960 . S
C440 C439 1.524 . S
C441 C438 1.403 . S
C441 C442 1.392 . S
C441 C445 1.495 . S
C442 C441 1.392 . S
C442 C443 1.385 . S
C442 C444 1.478 . S
C443 H437 0.930 . S
C443 C439 1.400 . S
C443 C442 1.385 . S
C444 C442 1.478 . S
C444 C446 1.381 . S
C444 C450 1.383 1_565 S
C445 C441 1.495 . S
C445 H451 0.959 . S
C445 H452 0.961 . S
C445 H453 0.960 . S
C446 C444 1.381 . S
C446 C447 1.394 1_565 S
C446 H454 0.930 . S
C447 C446 1.394 1_545 S
C447 C448 1.383 . S
C447 H455 0.929 . S
C448 C447 1.383 . S
C448 C449 1.377 . S
C449 H433 0.930 . S
C449 C448 1.377 . S
C449 C450 1.379 . S
C450 H434 0.931 . S
C450 C444 1.383 1_545 S
C450 C449 1.379 . S
H451 C445 0.959 . S
H452 C445 0.961 . S
H453 C445 0.960 . S
H454 C446 0.930 . S
H455 C447 0.929 . S
H456 C464 0.929 1_554 S
H457 C466 0.930 1_554 S
H458 C468 0.930 . S
H459 C471 0.929 . S
H460 C474 0.930 . S
H461 C476 0.960 . S
H462 C476 0.960 1_554 S
H463 C476 0.960 . S
C464 H456 0.929 1_556 S
C464 C465 1.377 . S
C464 C466 1.384 . S
C465 C464 1.377 . S
C465 C471 1.390 . S
C466 H457 0.930 1_556 S
C466 C464 1.384 . S
C466 C467 1.372 . S
C467 C466 1.372 . S
C467 C468 1.400 . S
C467 C472 1.490 . S
C468 H458 0.930 . S
C468 C467 1.400 . S
C468 C471 1.386 . S
H469 C485 0.930 . S
H470 C486 0.931 . S
C471 H459 0.929 . S
C471 C465 1.390 . S
C471 C468 1.386 . S
C472 C467 1.490 . S
C472 C474 1.395 . S
C472 C475 1.403 . S
H473 C479 0.930 . S
C474 H460 0.930 . S
C474 C472 1.395 . S
C474 C477 1.403 . S
C475 C472 1.403 . S
C475 C476 1.524 . S
C475 C479 1.400 . S
C476 H461 0.960 . S
C476 H462 0.960 1_556 S
C476 H463 0.960 . S
C476 C475 1.524 . S
C477 C474 1.403 . S
C477 C478 1.392 . S
C477 C481 1.495 . S
C478 C477 1.392 . S
C478 C479 1.385 . S
C478 C480 1.478 . S
C479 H473 0.930 . S
C479 C475 1.400 . S
C479 C478 1.385 . S
C480 C478 1.478 . S
C480 C482 1.381 . S
C480 C486 1.383 . S
C481 C477 1.495 . S
C481 H487 0.959 . S
C481 H488 0.961 . S
C481 H489 0.960 . S
C482 C480 1.381 . S
C482 C483 1.394 . S
C482 H490 0.930 . S
C483 C482 1.394 . S
C483 C484 1.383 . S
C483 H491 0.929 . S
C484 C483 1.383 . S
C484 C485 1.377 . S
C485 H469 0.930 . S
C485 C484 1.377 . S
C485 C486 1.379 . S
C486 H470 0.931 . S
C486 C480 1.383 . S
C486 C485 1.379 . S
H487 C481 0.959 . S
H488 C481 0.961 . S
H489 C481 0.960 . S
H490 C482 0.930 . S
H491 C483 0.929 . S
H492 C500 0.929 . S
H493 C502 0.930 . S
H494 C504 0.930 . S
H495 C507 0.929 . S
H496 C510 0.930 . S
H497 C512 0.960 . S
H498 C512 0.960 . S
H499 C512 0.960 . S
C500 H492 0.929 . S
C500 C501 1.377 1_556 S
C500 C502 1.384 . S
C501 C500 1.377 1_554 S
C501 C507 1.390 . S
C502 H493 0.930 . S
C502 C500 1.384 . S
C502 C503 1.372 1_556 S
C503 C502 1.372 1_554 S
C503 C504 1.400 . S
C503 C508 1.490 . S
C504 H494 0.930 . S
C504 C503 1.400 . S
C504 C507 1.386 . S
H505 C521 0.930 . S
H506 C522 0.931 . S
C507 H495 0.929 . S
C507 C501 1.390 . S
C507 C504 1.386 . S
C508 C503 1.490 . S
C508 C510 1.395 1_554 S
C508 C511 1.403 . S
H509 C515 0.930 . S
C510 H496 0.930 . S
C510 C508 1.395 1_556 S
C510 C513 1.403 . S
C511 C508 1.403 . S
C511 C512 1.524 . S
C511 C515 1.400 . S
C512 H497 0.960 . S
C512 H498 0.960 . S
C512 H499 0.960 . S
C512 C511 1.524 . S
C513 C510 1.403 . S
C513 C514 1.392 1_556 S
C513 C517 1.495 . S
C514 C513 1.392 1_554 S
C514 C515 1.385 . S
C514 C516 1.478 . S
C515 H509 0.930 . S
C515 C511 1.400 . S
C515 C514 1.385 . S
C516 C514 1.478 . S
C516 C518 1.381 1_554 S
C516 C522 1.383 . S
C517 C513 1.495 . S
C517 H523 0.959 . S
C517 H524 0.961 1_556 S
C517 H525 0.960 . S
C518 C516 1.381 1_556 S
C518 C519 1.394 . S
C518 H526 0.930 . S
C519 C518 1.394 . S
C519 C520 1.383 1_556 S
C519 H527 0.929 . S
C520 C519 1.383 1_554 S
C520 C521 1.377 . S
C521 H505 0.930 . S
C521 C520 1.377 . S
C521 C522 1.379 . S
C522 H506 0.931 . S
C522 C516 1.383 . S
C522 C521 1.379 . S
H523 C517 0.959 . S
H524 C517 0.961 1_554 S
H525 C517 0.960 . S
H526 C518 0.930 . S
H527 C519 0.929 . S
H528 C536 0.929 . S
H529 C538 0.930 . S
H530 C540 0.930 . S
H531 C543 0.929 . S
H532 C546 0.930 . S
H533 C548 0.960 1_554 S
H534 C548 0.960 1_554 S
H535 C548 0.960 . S
C536 H528 0.929 . S
C536 C537 1.377 . S
C536 C538 1.384 . S
C537 C536 1.377 . S
C537 C543 1.390 . S
C538 H529 0.930 . S
C538 C536 1.384 . S
C538 C539 1.372 . S
C539 C538 1.372 . S
C539 C540 1.400 . S
C539 C544 1.490 . S
C540 H530 0.930 . S
C540 C539 1.400 . S
C540 C543 1.386 . S
H541 C557 0.930 . S
H542 C558 0.931 . S
C543 H531 0.929 . S
C543 C537 1.390 . S
C543 C540 1.386 . S
C544 C539 1.490 . S
C544 C546 1.395 . S
C544 C547 1.403 . S
H545 C551 0.930 . S
C546 H532 0.930 . S
C546 C544 1.395 . S
C546 C549 1.403 . S
C547 C544 1.403 . S
C547 C548 1.524 . S
C547 C551 1.400 . S
C548 H533 0.960 1_556 S
C548 H534 0.960 1_556 S
C548 H535 0.960 . S
C548 C547 1.524 . S
C549 C546 1.403 . S
C549 C550 1.392 . S
C549 C553 1.495 . S
C550 C549 1.392 . S
C550 C551 1.385 . S
C550 C552 1.478 . S
C551 H545 0.930 . S
C551 C547 1.400 . S
C551 C550 1.385 . S
C552 C550 1.478 . S
C552 C554 1.381 1_556 S
C552 C558 1.383 . S
C553 C549 1.495 . S
C553 H559 0.959 . S
C553 H560 0.961 . S
C553 H561 0.960 . S
C554 C552 1.381 1_554 S
C554 C555 1.394 . S
C554 H562 0.930 . S
C555 C554 1.394 . S
C555 C556 1.383 1_554 S
C555 H563 0.929 . S
C556 C555 1.383 1_556 S
C556 C557 1.377 . S
C557 H541 0.930 . S
C557 C556 1.377 . S
C557 C558 1.379 . S
C558 H542 0.931 . S
C558 C552 1.383 . S
C558 C557 1.379 . S
H559 C553 0.959 . S
H560 C553 0.961 . S
H561 C553 0.960 . S
H562 C554 0.930 . S
H563 C555 0.929 . S
H564 C572 0.929 . S
H565 C574 0.930 . S
H566 C576 0.930 1_556 S
H567 C579 0.929 1_556 S
H568 C582 0.930 . S
H569 C584 0.960 . S
H570 C584 0.960 . S
H571 C584 0.960 . S
C572 H564 0.929 . S
C572 C573 1.377 . S
C572 C574 1.384 . S
C573 C572 1.377 . S
C573 C579 1.390 . S
C574 H565 0.930 . S
C574 C572 1.384 . S
C574 C575 1.372 . S
C575 C574 1.372 . S
C575 C576 1.400 . S
C575 C580 1.490 . S
C576 H566 0.930 1_554 S
C576 C575 1.400 . S
C576 C579 1.386 . S
H577 C593 0.930 . S
H578 C594 0.931 . S
C579 H567 0.929 1_554 S
C579 C573 1.390 . S
C579 C576 1.386 . S
C580 C575 1.490 . S
C580 C582 1.395 . S
C580 C583 1.403 . S
H581 C587 0.930 . S
C582 H568 0.930 . S
C582 C580 1.395 . S
C582 C585 1.403 . S
C583 C580 1.403 . S
C583 C584 1.524 . S
C583 C587 1.400 . S
C584 H569 0.960 . S
C584 H570 0.960 . S
C584 H571 0.960 . S
C584 C583 1.524 . S
C585 C582 1.403 . S
C585 C586 1.392 . S
C585 C589 1.495 . S
C586 C585 1.392 . S
C586 C587 1.385 . S
C586 C588 1.478 . S
C587 H581 0.930 . S
C587 C583 1.400 . S
C587 C586 1.385 . S
C588 C586 1.478 . S
C588 C590 1.381 . S
C588 C594 1.383 1_554 S
C589 C585 1.495 . S
C589 H595 0.959 . S
C589 H596 0.961 . S
C589 H597 0.960 . S
C590 C588 1.381 . S
C590 C591 1.394 . S
C590 H598 0.930 . S
C591 C590 1.394 . S
C591 C592 1.383 . S
C591 H599 0.929 . S
C592 C591 1.383 . S
C592 C593 1.377 1_554 S
C593 H577 0.930 . S
C593 C592 1.377 1_556 S
C593 C594 1.379 . S
C594 H578 0.931 . S
C594 C588 1.383 1_556 S
C594 C593 1.379 . S
H595 C589 0.959 . S
H596 C589 0.961 . S
H597 C589 0.960 . S
H598 C590 0.930 . S
H599 C591 0.929 . S
H600 C608 0.929 . S
H601 C610 0.930 . S
H602 C612 0.930 . S
H603 C615 0.929 . S
H604 C618 0.930 . S
H605 C620 0.960 . S
H606 C620 0.960 . S
H607 C620 0.960 . S
C608 H600 0.929 . S
C608 C609 1.377 . S
C608 C610 1.384 . S
C609 C608 1.377 . S
C609 C615 1.390 . S
C610 H601 0.930 . S
C610 C608 1.384 . S
C610 C611 1.372 . S
C611 C610 1.372 . S
C611 C612 1.400 . S
C611 C616 1.490 . S
C612 H602 0.930 . S
C612 C611 1.400 . S
C612 C615 1.386 . S
H613 C629 0.930 . S
H614 C630 0.931 . S
C615 H603 0.929 . S
C615 C609 1.390 . S
C615 C612 1.386 . S
C616 C611 1.490 . S
C616 C618 1.395 . S
C616 C619 1.403 . S
H617 C623 0.930 1_554 S
C618 H604 0.930 . S
C618 C616 1.395 . S
C618 C621 1.403 . S
C619 C616 1.403 . S
C619 C620 1.524 1_556 S
C619 C623 1.400 . S
C620 H605 0.960 . S
C620 H606 0.960 . S
C620 H607 0.960 . S
C620 C619 1.524 1_554 S
C621 C618 1.403 . S
C621 C622 1.392 . S
C621 C625 1.495 . S
C622 C621 1.392 . S
C622 C623 1.385 . S
C622 C624 1.478 . S
C623 H617 0.930 1_556 S
C623 C619 1.400 . S
C623 C622 1.385 . S
C624 C622 1.478 . S
C624 C626 1.381 . S
C624 C630 1.383 . S
C625 C621 1.495 . S
C625 H631 0.959 . S
C625 H632 0.961 . S
C625 H633 0.960 . S
C626 C624 1.381 . S
C626 C627 1.394 . S
C626 H634 0.930 . S
C627 C626 1.394 . S
C627 C628 1.383 . S
C627 H635 0.929 1_556 S
C628 C627 1.383 . S
C628 C629 1.377 . S
C629 H613 0.930 . S
C629 C628 1.377 . S
C629 C630 1.379 . S
C630 H614 0.931 . S
C630 C624 1.383 . S
C630 C629 1.379 . S
H631 C625 0.959 . S
H632 C625 0.961 . S
H633 C625 0.960 . S
H634 C626 0.930 . S
H635 C627 0.929 1_554 S
H636 C644 0.929 . S
H637 C646 0.930 1_556 S
H638 C648 0.930 . S
H639 C651 0.929 . S
H640 C654 0.930 . S
H641 C656 0.960 . S
H642 C656 0.960 . S
H643 C656 0.960 . S
C644 H636 0.929 . S
C644 C645 1.377 1_556 S
C644 C646 1.384 1_556 S
C645 C644 1.377 1_554 S
C645 C651 1.390 . S
C646 H637 0.930 1_554 S
C646 C644 1.384 1_554 S
C646 C647 1.372 . S
C647 C646 1.372 . S
C647 C648 1.400 . S
C647 C652 1.490 . S
C648 H638 0.930 . S
C648 C647 1.400 . S
C648 C651 1.386 . S
H649 C665 0.930 . S
H650 C666 0.931 . S
C651 H639 0.929 . S
C651 C645 1.390 . S
C651 C648 1.386 . S
C652 C647 1.490 . S
C652 C654 1.395 . S
C652 C655 1.403 1_554 S
H653 C659 0.933 . S
C654 H640 0.930 . S
C654 C652 1.395 . S
C654 C657 1.403 . S
C655 C652 1.403 1_556 S
C655 C656 1.524 . S
C655 C659 1.403 . S
C656 H641 0.960 . S
C656 H642 0.960 . S
C656 H643 0.960 . S
C656 C655 1.524 . S
C657 C654 1.403 . S
C657 C658 1.392 . S
C657 C661 1.495 . S
C658 C657 1.392 . S
C658 C659 1.380 1_554 S
C658 C660 1.478 . S
C659 H653 0.933 . S
C659 C655 1.403 . S
C659 C658 1.380 1_556 S
C660 C658 1.478 . S
C660 C662 1.381 . S
C660 C666 1.383 . S
C661 C657 1.495 . S
C661 H667 0.959 . S
C661 H668 0.961 . S
C661 H669 0.960 . S
C662 C660 1.381 . S
C662 C663 1.394 . S
C662 H670 0.930 . S
C663 C662 1.394 . S
C663 C664 1.383 . S
C663 H671 0.929 . S
C664 C663 1.383 . S
C664 C665 1.377 . S
C665 H649 0.930 . S
C665 C664 1.377 . S
C665 C666 1.379 . S
C666 H650 0.931 . S
C666 C660 1.383 . S
C666 C665 1.379 . S
H667 C661 0.959 . S
H668 C661 0.961 . S
H669 C661 0.960 . S
H670 C662 0.930 . S
H671 C663 0.929 . S
H672 C680 0.929 . S
H673 C682 0.930 . S
H674 C684 0.930 . S
H675 C687 0.929 . S
H676 C690 0.930 . S
H677 C692 0.960 . S
H678 C692 0.960 . S
H679 C692 0.960 . S
C680 H672 0.929 . S
C680 C681 1.377 . S
C680 C682 1.384 . S
C681 C680 1.377 . S
C681 C687 1.390 . S
C682 H673 0.930 . S
C682 C680 1.384 . S
C682 C683 1.372 . S
C683 C682 1.372 . S
C683 C684 1.400 . S
C683 C688 1.490 . S
C684 H674 0.930 . S
C684 C683 1.400 . S
C684 C687 1.386 . S
H685 C701 0.930 . S
H686 C702 0.931 . S
C687 H675 0.929 . S
C687 C681 1.390 . S
C687 C684 1.386 . S
C688 C683 1.490 . S
C688 C690 1.395 . S
C688 C691 1.403 . S
H689 C695 0.930 . S
C690 H676 0.930 . S
C690 C688 1.395 . S
C690 C693 1.403 . S
C691 C688 1.403 . S
C691 C692 1.524 . S
C691 C695 1.400 . S
C692 H677 0.960 . S
C692 H678 0.960 . S
C692 H679 0.960 . S
C692 C691 1.524 . S
C693 C690 1.403 . S
C693 C694 1.392 . S
C693 C697 1.495 . S
C694 C693 1.392 . S
C694 C695 1.385 . S
C694 C696 1.478 . S
C695 H689 0.930 . S
C695 C691 1.400 . S
C695 C694 1.385 . S
C696 C694 1.478 . S
C696 C698 1.381 . S
C696 C702 1.383 . S
C697 C693 1.495 . S
C697 H703 0.959 . S
C697 H704 0.961 . S
C697 H705 0.960 . S
C698 C696 1.381 . S
C698 C699 1.394 . S
C698 H706 0.930 . S
C699 C698 1.394 . S
C699 C700 1.383 . S
C699 H707 0.929 . S
C700 C699 1.383 . S
C700 C701 1.377 . S
C701 H685 0.930 . S
C701 C700 1.377 . S
C701 C702 1.379 . S
C702 H686 0.931 . S
C702 C696 1.383 . S
C702 C701 1.379 . S
H703 C697 0.959 . S
H704 C697 0.961 . S
H705 C697 0.960 . S
H706 C698 0.930 . S
H707 C699 0.929 . S
H708 C716 0.929 . S
H709 C718 0.930 . S
H710 C720 0.930 . S
H711 C723 0.929 . S
H712 C726 0.930 . S
H713 C728 0.960 . S
H714 C728 0.960 . S
H715 C728 0.960 . S
C716 H708 0.929 . S
C716 C717 1.377 . S
C716 C718 1.384 . S
C717 C716 1.377 . S
C717 C723 1.390 . S
C718 H709 0.930 . S
C718 C716 1.384 . S
C718 C719 1.372 . S
C719 C718 1.372 . S
C719 C720 1.400 . S
C719 C724 1.490 . S
C720 H710 0.930 . S
C720 C719 1.400 . S
C720 C723 1.386 . S
H721 C737 0.930 . S
H722 C738 0.931 . S
C723 H711 0.929 . S
C723 C717 1.390 . S
C723 C720 1.386 . S
C724 C719 1.490 . S
C724 C726 1.395 . S
C724 C727 1.403 . S
H725 C731 0.930 . S
C726 H712 0.930 . S
C726 C724 1.395 . S
C726 C729 1.403 . S
C727 C724 1.403 . S
C727 C728 1.524 . S
C727 C731 1.400 . S
C728 H713 0.960 . S
C728 H714 0.960 . S
C728 H715 0.960 . S
C728 C727 1.524 . S
C729 C726 1.403 . S
C729 C730 1.392 . S
C729 C733 1.495 . S
C730 C729 1.392 . S
C730 C731 1.385 . S
C730 C732 1.478 . S
C731 H725 0.930 . S
C731 C727 1.400 . S
C731 C730 1.385 . S
C732 C730 1.478 . S
C732 C734 1.381 . S
C732 C738 1.383 . S
C733 C729 1.495 . S
C733 H739 0.959 . S
C733 H740 0.961 . S
C733 H741 0.960 . S
C734 C732 1.381 . S
C734 C735 1.394 . S
C734 H742 0.930 . S
C735 C734 1.394 . S
C735 C736 1.383 . S
C735 H743 0.929 . S
C736 C735 1.383 . S
C736 C737 1.377 . S
C737 H721 0.930 . S
C737 C736 1.377 . S
C737 C738 1.379 . S
C738 H722 0.931 . S
C738 C732 1.383 . S
C738 C737 1.379 . S
H739 C733 0.959 . S
H740 C733 0.961 . S
H741 C733 0.960 . S
H742 C734 0.930 . S
H743 C735 0.929 . S
H744 C752 0.929 . S
H745 C754 0.930 . S
H746 C756 0.930 . S
H747 C759 0.929 . S
H748 C762 0.930 . S
H749 C764 0.960 . S
H750 C764 0.960 . S
H751 C764 0.960 . S
C752 H744 0.929 . S
C752 C753 1.377 . S
C752 C754 1.384 . S
C753 C752 1.377 . S
C753 C759 1.390 . S
C754 H745 0.930 . S
C754 C752 1.384 . S
C754 C755 1.372 . S
C755 C754 1.372 . S
C755 C756 1.400 . S
C755 C760 1.490 . S
C756 H746 0.930 . S
C756 C755 1.400 . S
C756 C759 1.386 . S
H757 C773 0.930 . S
H758 C774 0.931 . S
C759 H747 0.929 . S
C759 C753 1.390 . S
C759 C756 1.386 . S
C760 C755 1.490 . S
C760 C762 1.395 . S
C760 C763 1.403 . S
H761 C767 0.930 . S
C762 H748 0.930 . S
C762 C760 1.395 . S
C762 C765 1.403 . S
C763 C760 1.403 . S
C763 C764 1.524 . S
C763 C767 1.400 . S
C764 H749 0.960 . S
C764 H750 0.960 . S
C764 H751 0.960 . S
C764 C763 1.524 . S
C765 C762 1.403 . S
C765 C766 1.392 . S
C765 C769 1.495 . S
C766 C765 1.392 . S
C766 C767 1.385 . S
C766 C768 1.478 . S
C767 H761 0.930 . S
C767 C763 1.400 . S
C767 C766 1.385 . S
C768 C766 1.478 . S
C768 C770 1.381 . S
C768 C774 1.383 . S
C769 C765 1.495 . S
C769 H775 0.959 . S
C769 H776 0.961 . S
C769 H777 0.960 . S
C770 C768 1.381 . S
C770 C771 1.394 . S
C770 H778 0.930 . S
C771 C770 1.394 . S
C771 C772 1.383 . S
C771 H779 0.929 . S
C772 C771 1.383 . S
C772 C773 1.377 . S
C773 H757 0.930 . S
C773 C772 1.377 . S
C773 C774 1.379 . S
C774 H758 0.931 . S
C774 C768 1.383 . S
C774 C773 1.379 . S
H775 C769 0.959 . S
H776 C769 0.961 . S
H777 C769 0.960 . S
H778 C770 0.930 . S
H779 C771 0.929 . S
H780 C788 0.929 . S
H781 C790 0.930 . S
H782 C792 0.930 . S
H783 C795 0.929 . S
H784 C798 0.930 . S
H785 C800 0.960 . S
H786 C800 0.960 . S
H787 C800 0.960 . S
C788 H780 0.929 . S
C788 C789 1.377 . S
C788 C790 1.384 . S
C789 C788 1.377 . S
C789 C795 1.390 . S
C790 H781 0.930 . S
C790 C788 1.384 . S
C790 C791 1.372 . S
C791 C790 1.372 . S
C791 C792 1.400 . S
C791 C796 1.490 . S
C792 H782 0.930 . S
C792 C791 1.400 . S
C792 C795 1.386 . S
H793 C809 0.930 . S
H794 C810 0.931 . S
C795 H783 0.929 . S
C795 C789 1.390 . S
C795 C792 1.386 . S
C796 C791 1.490 . S
C796 C798 1.395 . S
C796 C799 1.403 . S
H797 C803 0.930 . S
C798 H784 0.930 . S
C798 C796 1.395 . S
C798 C801 1.403 . S
C799 C796 1.403 . S
C799 C800 1.524 . S
C799 C803 1.400 . S
C800 H785 0.960 . S
C800 H786 0.960 . S
C800 H787 0.960 . S
C800 C799 1.524 . S
C801 C798 1.403 . S
C801 C802 1.392 . S
C801 C805 1.495 . S
C802 C801 1.392 . S
C802 C803 1.385 . S
C802 C804 1.478 . S
C803 H797 0.930 . S
C803 C799 1.400 . S
C803 C802 1.385 . S
C804 C802 1.478 . S
C804 C806 1.381 . S
C804 C810 1.383 . S
C805 C801 1.495 . S
C805 H811 0.959 . S
C805 H812 0.961 . S
C805 H813 0.960 . S
C806 C804 1.381 . S
C806 C807 1.394 . S
C806 H814 0.930 . S
C807 C806 1.394 . S
C807 C808 1.383 . S
C807 H815 0.929 . S
C808 C807 1.383 . S
C808 C809 1.377 . S
C809 H793 0.930 . S
C809 C808 1.377 . S
C809 C810 1.379 . S
C810 H794 0.931 . S
C810 C804 1.383 . S
C810 C809 1.379 . S
H811 C805 0.959 . S
H812 C805 0.961 . S
H813 C805 0.960 . S
H814 C806 0.930 . S
H815 C807 0.929 . S
H816 C824 0.929 . S
H817 C826 0.930 . S
H818 C828 0.930 . S
H819 C831 0.929 . S
H820 C834 0.930 . S
H821 C836 0.960 . S
H822 C836 0.960 . S
H823 C836 0.960 . S
C824 H816 0.929 . S
C824 C825 1.377 . S
C824 C826 1.384 . S
C825 C824 1.377 . S
C825 C831 1.390 . S
C826 H817 0.930 . S
C826 C824 1.384 . S
C826 C827 1.372 . S
C827 C826 1.372 . S
C827 C828 1.400 . S
C827 C832 1.490 . S
C828 H818 0.930 . S
C828 C827 1.400 . S
C828 C831 1.386 . S
H829 C845 0.930 . S
H830 C846 0.931 . S
C831 H819 0.929 . S
C831 C825 1.390 . S
C831 C828 1.386 . S
C832 C827 1.490 . S
C832 C834 1.395 . S
C832 C835 1.403 . S
H833 C839 0.930 . S
C834 H820 0.930 . S
C834 C832 1.395 . S
C834 C837 1.403 . S
C835 C832 1.403 . S
C835 C836 1.524 . S
C835 C839 1.400 . S
C836 H821 0.960 . S
C836 H822 0.960 . S
C836 H823 0.960 . S
C836 C835 1.524 . S
C837 C834 1.403 . S
C837 C838 1.392 . S
C837 C841 1.495 . S
C838 C837 1.392 . S
C838 C839 1.385 . S
C838 C840 1.478 . S
C839 H833 0.930 . S
C839 C835 1.400 . S
C839 C838 1.385 . S
C840 C838 1.478 . S
C840 C842 1.381 . S
C840 C846 1.383 . S
C841 C837 1.495 . S
C841 H847 0.959 . S
C841 H848 0.961 . S
C841 H849 0.960 . S
C842 C840 1.381 . S
C842 C843 1.394 . S
C842 H850 0.930 . S
C843 C842 1.394 . S
C843 C844 1.383 . S
C843 H851 0.929 . S
C844 C843 1.383 . S
C844 C845 1.377 . S
C845 H829 0.930 . S
C845 C844 1.377 . S
C845 C846 1.379 . S
C846 H830 0.931 . S
C846 C840 1.383 . S
C846 C845 1.379 . S
H847 C841 0.959 . S
H848 C841 0.961 . S
H849 C841 0.960 . S
H850 C842 0.930 . S
H851 C843 0.929 . S
H852 C860 0.929 . S
H853 C862 0.930 . S
H854 C864 0.930 . S
H855 C867 0.929 . S
H856 C870 0.930 . S
H857 C872 0.960 . S
H858 C872 0.960 . S
H859 C872 0.960 . S
C860 H852 0.929 . S
C860 C861 1.377 . S
C860 C862 1.384 . S
C861 C860 1.377 . S
C861 C867 1.390 . S
C862 H853 0.930 . S
C862 C860 1.384 . S
C862 C863 1.372 . S
C863 C862 1.372 . S
C863 C864 1.400 . S
C863 C868 1.490 . S
C864 H854 0.930 . S
C864 C863 1.400 . S
C864 C867 1.386 . S
H865 C881 0.930 . S
H866 C882 0.931 . S
C867 H855 0.929 . S
C867 C861 1.390 . S
C867 C864 1.386 . S
C868 C863 1.490 . S
C868 C870 1.395 . S
C868 C871 1.403 . S
H869 C875 0.930 . S
C870 H856 0.930 . S
C870 C868 1.395 . S
C870 C873 1.403 . S
C871 C868 1.403 . S
C871 C872 1.524 . S
C871 C875 1.400 . S
C872 H857 0.960 . S
C872 H858 0.960 . S
C872 H859 0.960 . S
C872 C871 1.524 . S
C873 C870 1.403 . S
C873 C874 1.392 . S
C873 C877 1.495 . S
C874 C873 1.392 . S
C874 C875 1.385 . S
C874 C876 1.478 . S
C875 H869 0.930 . S
C875 C871 1.400 . S
C875 C874 1.385 . S
C876 C874 1.478 . S
C876 C878 1.381 . S
C876 C882 1.383 . S
C877 C873 1.495 . S
C877 H883 0.959 . S
C877 H884 0.961 . S
C877 H885 0.960 . S
C878 C876 1.381 . S
C878 C879 1.394 . S
C878 H886 0.930 . S
C879 C878 1.394 . S
C879 C880 1.383 . S
C879 H887 0.929 . S
C880 C879 1.383 . S
C880 C881 1.377 . S
C881 H865 0.930 . S
C881 C880 1.377 . S
C881 C882 1.379 . S
C882 H866 0.931 . S
C882 C876 1.383 . S
C882 C881 1.379 . S
H883 C877 0.959 . S
H884 C877 0.961 . S
H885 C877 0.960 . S
H886 C878 0.930 . S
H887 C879 0.929 . S
C249 C202 3.048 . S
C268 C7 2.928 . S
C285 C2 3.088 . S
C304 C56 2.878 . S
C321 C51 2.960 . S
C340 C96 2.856 . S
C357 C136 2.922 . S
C376 C91 3.061 . S
C393 C167 2.869 1_655 S
C412 C131 3.080 . S
C429 C162 2.965 . S
C448 C207 2.829 . S
C465 C171 2.380 . S
C484 C16 2.374 . S
C501 C211 2.174 . S
C520 C47 2.164 . S
C537 C87 2.184 . S
C556 C11 2.216 . S
C573 C127 2.381 . S
C592 C42 2.379 . S
C609 C176 2.162 . S
C628 C82 2.176 . S
C645 C122 2.214 1_554 S
C664 C216 2.195 . S
C681 C10 0.464 . S
C700 C19 0.546 . S
C717 C50 0.303 . S
C736 C59 0.329 . S
C753 C90 0.580 . S
C772 C99 0.638 . S
C789 C130 0.450 . S
C808 C139 0.380 . S
C825 C179 0.303 . S
C844 C170 0.327 . S
C861 C210 0.602 . S
C880 C219 0.658 . S
