# Generated by pormake.
# Topology uno, (4)-cn, num edge types: 1
# Building blocks:
#     Node 0, Type 0, BuildingBlock: ESEHIV_clean_sbu_0, # of connection points: 4
#     Node 1, Type 0, BuildingBlock: ESEHIV_clean_sbu_0, # of connection points: 4
#     Node 2, Type 0, BuildingBlock: ESEHIV_clean_sbu_0, # of connection points: 4
#     Node 3, Type 0, BuildingBlock: ESEHIV_clean_sbu_0, # of connection points: 4
#     Node 4, Type 0, BuildingBlock: ESEHIV_clean_sbu_0, # of connection points: 4
#     Node 5, Type 0, BuildingBlock: ESEHIV_clean_sbu_0, # of connection points: 4
#     Node 6, Type 0, BuildingBlock: ESEHIV_clean_sbu_0, # of connection points: 4
#     Node 7, Type 0, BuildingBlock: ESEHIV_clean_sbu_0, # of connection points: 4
#     Node 8, Type 0, BuildingBlock: ESEHIV_clean_sbu_0, # of connection points: 4
#     Node 9, Type 0, BuildingBlock: ESEHIV_clean_sbu_0, # of connection points: 4
#     Node 10, Type 0, BuildingBlock: ESEHIV_clean_sbu_0, # of connection points: 4
#     Node 11, Type 0, BuildingBlock: ESEHIV_clean_sbu_0, # of connection points: 4
#     Node 12, Type 0, BuildingBlock: ESEHIV_clean_sbu_0, # of connection points: 4
#     Node 13, Type 0, BuildingBlock: ESEHIV_clean_sbu_0, # of connection points: 4
#     Node 14, Type 0, BuildingBlock: ESEHIV_clean_sbu_0, # of connection points: 4
#     Node 15, Type 0, BuildingBlock: ESEHIV_clean_sbu_0, # of connection points: 4
#     Node 16, Type 0, BuildingBlock: ESEHIV_clean_sbu_0, # of connection points: 4
#     Node 17, Type 0, BuildingBlock: ESEHIV_clean_sbu_0, # of connection points: 4
#     Node 18, Type 0, BuildingBlock: ESEHIV_clean_sbu_0, # of connection points: 4
#     Node 19, Type 0, BuildingBlock: ESEHIV_clean_sbu_0, # of connection points: 4
#     Node 20, Type 0, BuildingBlock: ESEHIV_clean_sbu_0, # of connection points: 4
#     Node 21, Type 0, BuildingBlock: ESEHIV_clean_sbu_0, # of connection points: 4
#     Node 22, Type 0, BuildingBlock: ESEHIV_clean_sbu_0, # of connection points: 4
#     Node 23, Type 0, BuildingBlock: ESEHIV_clean_sbu_0, # of connection points: 4
#     Edge 24, Type (0, 0), BuildingBlock: XUDNAN_clean_linker_2, # of connection points: 2
#     Edge 25, Type (0, 0), BuildingBlock: XUDNAN_clean_linker_2, # of connection points: 2
#     Edge 26, Type (0, 0), BuildingBlock: XUDNAN_clean_linker_2, # of connection points: 2
#     Edge 27, Type (0, 0), BuildingBlock: XUDNAN_clean_linker_2, # of connection points: 2
#     Edge 28, Type (0, 0), BuildingBlock: XUDNAN_clean_linker_2, # of connection points: 2
#     Edge 29, Type (0, 0), BuildingBlock: XUDNAN_clean_linker_2, # of connection points: 2
#     Edge 30, Type (0, 0), BuildingBlock: XUDNAN_clean_linker_2, # of connection points: 2
#     Edge 31, Type (0, 0), BuildingBlock: XUDNAN_clean_linker_2, # of connection points: 2
#     Edge 32, Type (0, 0), BuildingBlock: XUDNAN_clean_linker_2, # of connection points: 2
#     Edge 33, Type (0, 0), BuildingBlock: XUDNAN_clean_linker_2, # of connection points: 2
#     Edge 34, Type (0, 0), BuildingBlock: XUDNAN_clean_linker_2, # of connection points: 2
#     Edge 35, Type (0, 0), BuildingBlock: XUDNAN_clean_linker_2, # of connection points: 2
#     Edge 36, Type (0, 0), BuildingBlock: XUDNAN_clean_linker_2, # of connection points: 2
#     Edge 37, Type (0, 0), BuildingBlock: XUDNAN_clean_linker_2, # of connection points: 2
#     Edge 38, Type (0, 0), BuildingBlock: XUDNAN_clean_linker_2, # of connection points: 2
#     Edge 39, Type (0, 0), BuildingBlock: XUDNAN_clean_linker_2, # of connection points: 2
#     Edge 40, Type (0, 0), BuildingBlock: XUDNAN_clean_linker_2, # of connection points: 2
#     Edge 41, Type (0, 0), BuildingBlock: XUDNAN_clean_linker_2, # of connection points: 2
#     Edge 42, Type (0, 0), BuildingBlock: XUDNAN_clean_linker_2, # of connection points: 2
#     Edge 43, Type (0, 0), BuildingBlock: XUDNAN_clean_linker_2, # of connection points: 2
#     Edge 44, Type (0, 0), BuildingBlock: XUDNAN_clean_linker_2, # of connection points: 2
#     Edge 45, Type (0, 0), BuildingBlock: XUDNAN_clean_linker_2, # of connection points: 2
#     Edge 46, Type (0, 0), BuildingBlock: XUDNAN_clean_linker_2, # of connection points: 2
#     Edge 47, Type (0, 0), BuildingBlock: XUDNAN_clean_linker_2, # of connection points: 2
#     Edge 48, Type (0, 0), BuildingBlock: XUDNAN_clean_linker_2, # of connection points: 2
#     Edge 49, Type (0, 0), BuildingBlock: XUDNAN_clean_linker_2, # of connection points: 2
#     Edge 50, Type (0, 0), BuildingBlock: XUDNAN_clean_linker_2, # of connection points: 2
#     Edge 51, Type (0, 0), BuildingBlock: XUDNAN_clean_linker_2, # of connection points: 2
#     Edge 52, Type (0, 0), BuildingBlock: XUDNAN_clean_linker_2, # of connection points: 2
#     Edge 53, Type (0, 0), BuildingBlock: XUDNAN_clean_linker_2, # of connection points: 2
#     Edge 54, Type (0, 0), BuildingBlock: XUDNAN_clean_linker_2, # of connection points: 2
#     Edge 55, Type (0, 0), BuildingBlock: XUDNAN_clean_linker_2, # of connection points: 2
#     Edge 56, Type (0, 0), BuildingBlock: XUDNAN_clean_linker_2, # of connection points: 2
#     Edge 57, Type (0, 0), BuildingBlock: XUDNAN_clean_linker_2, # of connection points: 2
#     Edge 58, Type (0, 0), BuildingBlock: XUDNAN_clean_linker_2, # of connection points: 2
#     Edge 59, Type (0, 0), BuildingBlock: XUDNAN_clean_linker_2, # of connection points: 2
#     Edge 60, Type (0, 0), BuildingBlock: XUDNAN_clean_linker_2, # of connection points: 2
#     Edge 61, Type (0, 0), BuildingBlock: XUDNAN_clean_linker_2, # of connection points: 2
#     Edge 62, Type (0, 0), BuildingBlock: XUDNAN_clean_linker_2, # of connection points: 2
#     Edge 63, Type (0, 0), BuildingBlock: XUDNAN_clean_linker_2, # of connection points: 2
#     Edge 64, Type (0, 0), BuildingBlock: XUDNAN_clean_linker_2, # of connection points: 2
#     Edge 65, Type (0, 0), BuildingBlock: XUDNAN_clean_linker_2, # of connection points: 2
#     Edge 66, Type (0, 0), BuildingBlock: XUDNAN_clean_linker_2, # of connection points: 2
#     Edge 67, Type (0, 0), BuildingBlock: XUDNAN_clean_linker_2, # of connection points: 2
#     Edge 68, Type (0, 0), BuildingBlock: XUDNAN_clean_linker_2, # of connection points: 2
#     Edge 69, Type (0, 0), BuildingBlock: XUDNAN_clean_linker_2, # of connection points: 2
#     Edge 70, Type (0, 0), BuildingBlock: XUDNAN_clean_linker_2, # of connection points: 2
#     Edge 71, Type (0, 0), BuildingBlock: XUDNAN_clean_linker_2, # of connection points: 2
# Relax obj value: 0.382
# Max RMSD: 0.210
# Mean RMSD: 0.191
data_MOF--net-uno--node1-ESEHIV_clean_sbu_0--edge1-XUDNAN_clean_linker_2
_symmetry_space_group_name_H-M    P1
_symmetry_Int_Tables_number       1
_symmetry_cell_setting            triclinic
loop_
_symmetry_equiv_pos_as_xyz
'x, y, z'
_cell_length_a     56.291697
_cell_length_b     58.470579
_cell_length_c     57.945716
_cell_angle_alpha  90.562416
_cell_angle_beta   89.873399
_cell_angle_gamma 92.727231
loop_
_atom_site_label
_atom_site_type_symbol
_atom_site_fract_x
_atom_site_fract_y
_atom_site_fract_z
_atom_type_partial_charge
Cu0 Cu 0.07211 0.22661 0.26513 0.0
N1 N 0.09018 0.20898 0.28439 0.0
N2 N 0.10712 0.17794 0.29762 0.0
C3 C 0.09583 0.18732 0.27979 0.0
C4 C 0.10865 0.19443 0.31411 0.0
C5 C 0.09813 0.21359 0.30589 0.0
O6 O 0.04733 0.2051 0.25451 0.0
C7 C 0.11404 0.24108 0.24132 0.0
O8 O 0.12424 0.23745 0.26123 0.0
H9 H 0.09106 0.1784 0.26389 0.0
H10 H 0.09607 0.22958 0.31505 0.0
N11 N 0.05835 0.24961 0.28241 0.0
N12 N 0.04519 0.28292 0.29527 0.0
C13 C 0.05736 0.27225 0.27844 0.0
C14 C 0.04636 0.24585 0.30218 0.0
C15 C 0.03826 0.26626 0.31016 0.0
C16 C 0.04962 0.19258 0.23666 0.0
O17 O 0.06716 0.19732 0.22223 0.0
H18 H 0.06548 0.28068 0.26364 0.0
H19 H 0.04354 0.22927 0.31012 0.0
O20 O 0.09152 0.23834 0.23963 0.0
H21 H 0.11683 0.19282 0.33086 0.0
H22 H 0.02762 0.26852 0.32551 0.0
Cu23 Cu 0.0159 0.82493 0.47385 0.0
N24 N 0.02374 0.83151 0.44333 0.0
N25 N 0.02074 0.84471 0.40757 0.0
C26 C 0.01216 0.84539 0.42927 0.0
C27 C 0.03811 0.82964 0.40779 0.0
C28 C 0.03993 0.82149 0.42997 0.0
O29 O 0.98796 0.8043 0.47262 0.0
C30 C 0.02148 0.86869 0.49825 0.0
O31 O 0.01302 0.88397 0.51241 0.0
H32 H 0.99763 0.85564 0.43478 0.0
H33 H 0.05188 0.80884 0.43586 0.0
N34 N 0.04005 0.8104 0.48908 0.0
N35 N 0.07475 0.80302 0.50529 0.0
C36 C 0.06359 0.81592 0.48984 0.0
C37 C 0.03639 0.79334 0.50426 0.0
C38 C 0.05771 0.78878 0.51432 0.0
C39 C 0.97404 0.80105 0.4897 0.0
O40 O 0.97879 0.81173 0.50933 0.0
H41 H 0.07217 0.82964 0.48004 0.0
H42 H 0.01925 0.78522 0.50826 0.0
O43 O 0.00782 0.85193 0.49156 0.0
H44 H 0.04877 0.82504 0.39304 0.0
H45 H 0.06046 0.77612 0.52744 0.0
Cu46 Cu 0.43204 0.76655 0.76176 0.0
N47 N 0.41473 0.77909 0.78576 0.0
N48 N 0.39435 0.80547 0.80446 0.0
C49 C 0.40859 0.80099 0.78636 0.0
C50 C 0.39166 0.78548 0.81589 0.0
C51 C 0.40423 0.76917 0.80424 0.0
O52 O 0.45366 0.79091 0.75099 0.0
C53 C 0.4141 0.74243 0.72168 0.0
O54 O 0.43518 0.73379 0.72034 0.0
H55 H 0.4143 0.81331 0.77347 0.0
H56 H 0.40509 0.75127 0.80853 0.0
N57 N 0.4501 0.74282 0.77194 0.0
N58 N 0.46284 0.70803 0.77883 0.0
C59 C 0.44388 0.72038 0.77381 0.0
C60 C 0.47361 0.74469 0.77614 0.0
C61 C 0.48154 0.72324 0.78032 0.0
C62 C 0.44785 0.80563 0.73629 0.0
O63 O 0.42702 0.80319 0.72615 0.0
H64 H 0.42618 0.71313 0.77033 0.0
H65 H 0.48436 0.7605 0.77534 0.0
O66 O 0.40972 0.75642 0.73791 0.0
H67 H 0.3807 0.78257 0.83105 0.0
H68 H 0.49973 0.71904 0.78371 0.0
Cu69 Cu 0.47128 0.19697 0.94271 0.0
N70 N 0.46849 0.18621 0.91246 0.0
N71 N 0.4699 0.1616 0.88276 0.0
C72 C 0.47252 0.16465 0.90575 0.0
C73 C 0.46404 0.18219 0.87469 0.0
C74 C 0.46316 0.19735 0.8931 0.0
O75 O 0.50152 0.21421 0.94524 0.0
C76 C 0.46221 0.16828 0.98227 0.0
O77 O 0.4597 0.18712 0.99438 0.0
H78 H 0.47775 0.15159 0.91757 0.0
H79 H 0.45905 0.21522 0.89242 0.0
N80 N 0.44602 0.21533 0.95012 0.0
N81 N 0.41204 0.2264 0.96599 0.0
C82 C 0.42566 0.20859 0.96085 0.0
C83 C 0.44519 0.23814 0.94796 0.0
C84 C 0.42428 0.24502 0.9577 0.0
C85 C 0.51022 0.22263 0.96387 0.0
O86 O 0.49866 0.21936 0.98335 0.0
H87 H 0.4215 0.19104 0.96568 0.0
H88 H 0.45914 0.24904 0.94044 0.0
O89 O 0.46908 0.16962 0.96139 0.0
H90 H 0.46038 0.186 0.85685 0.0
H91 H 0.41881 0.26248 0.95888 0.0
Cu92 Cu 0.04288 0.9929 0.2774 0.0
N93 N 0.06716 0.00628 0.29542 0.0
N94 N 0.08501 0.02168 0.32665 0.0
C95 C 0.06601 0.00926 0.31841 0.0
C96 C 0.09877 0.02655 0.30804 0.0
C97 C 0.0876 0.01712 0.28873 0.0
O98 O 0.0273 0.01751 0.26244 0.0
C99 C 0.00687 0.95986 0.29072 0.0
O100 O 0.00161 0.95878 0.26864 0.0
H101 H 0.05131 0.00259 0.32879 0.0
H102 H 0.09359 0.0186 0.27104 0.0
N103 N 0.05516 0.97349 0.2551 0.0
N104 N 0.06011 0.94135 0.23476 0.0
C105 C 0.05345 0.95044 0.25515 0.0
C106 C 0.06371 0.97926 0.23417 0.0
C107 C 0.06684 0.95947 0.22158 0.0
C108 C 0.02043 0.0343 0.2744 0.0
O109 O 0.02108 0.03305 0.29702 0.0
H110 H 0.04652 0.94059 0.26956 0.0
H111 H 0.06616 0.99664 0.22806 0.0
O112 O 0.02239 0.97479 0.2978 0.0
H113 H 0.11535 0.03671 0.30824 0.0
H114 H 0.07216 0.95862 0.20365 0.0
Cu115 Cu 0.27839 0.79539 0.59099 0.0
N116 N 0.2767 0.82175 0.60893 0.0
N117 N 0.27049 0.84407 0.63964 0.0
C118 C 0.27116 0.8224 0.63152 0.0
C119 C 0.2759 0.85754 0.62136 0.0
C120 C 0.27973 0.84369 0.60243 0.0
O121 O 0.25034 0.79232 0.57167 0.0
C122 C 0.29042 0.75154 0.60693 0.0
O123 O 0.29156 0.74571 0.58501 0.0
H124 H 0.26713 0.80722 0.64161 0.0
H125 H 0.28423 0.84918 0.58512 0.0
N126 N 0.30546 0.79729 0.57234 0.0
N127 N 0.34065 0.78793 0.55799 0.0
C128 C 0.32608 0.78736 0.57654 0.0
C129 C 0.30719 0.80498 0.55059 0.0
C130 C 0.32889 0.79923 0.54167 0.0
C131 C 0.22956 0.79389 0.58 0.0
O132 O 0.2269 0.79562 0.60247 0.0
H133 H 0.32955 0.77841 0.59232 0.0
H134 H 0.29313 0.81301 0.54145 0.0
O135 O 0.28197 0.77062 0.61243 0.0
H136 H 0.27715 0.87606 0.62162 0.0
H137 H 0.33503 0.8023 0.52422 0.0
Cu138 Cu 0.45113 0.0039 0.74472 0.0
N139 N 0.4212 0.99512 0.75586 0.0
N140 N 0.39523 0.98037 0.78146 0.0
C141 C 0.41751 0.97999 0.77295 0.0
C142 C 0.38441 0.99633 0.76908 0.0
C143 C 0.4005 0.00536 0.7532 0.0
O144 O 0.46605 0.97613 0.73558 0.0
C145 C 0.47997 0.03827 0.76912 0.0
O146 O 0.48717 0.04575 0.74887 0.0
H147 H 0.4316 0.97052 0.78047 0.0
H148 H 0.39787 0.01955 0.74179 0.0
N149 N 0.44869 0.0231 0.71951 0.0
N150 N 0.44838 0.05564 0.69978 0.0
C151 C 0.44408 0.04545 0.72026 0.0
C152 C 0.45553 0.01881 0.6977 0.0
C153 C 0.45544 0.03891 0.68548 0.0
C154 C 0.48222 0.9668 0.74691 0.0
O155 O 0.49138 0.97733 0.76518 0.0
H156 H 0.43991 0.05447 0.73605 0.0
H157 H 0.46167 0.00258 0.69158 0.0
O158 O 0.46667 0.02011 0.77041 0.0
H159 H 0.36668 0.00205 0.77222 0.0
H160 H 0.46137 0.0413 0.66785 0.0
Cu161 Cu 0.23689 0.24826 0.09858 0.0
N162 N 0.2315 0.22753 0.12253 0.0
N163 N 0.23854 0.20367 0.15148 0.0
C164 C 0.24815 0.21847 0.13582 0.0
C165 C 0.21482 0.20367 0.1478 0.0
C166 C 0.21056 0.21842 0.13006 0.0
O167 O 0.26245 0.23776 0.07911 0.0
C168 C 0.2369 0.28745 0.12931 0.0
O169 O 0.24642 0.30691 0.13719 0.0
H170 H 0.26692 0.22278 0.13385 0.0
H171 H 0.19339 0.22217 0.12308 0.0
N172 N 0.20975 0.24961 0.08034 0.0
N173 N 0.17954 0.26294 0.06038 0.0
C174 C 0.1999 0.26832 0.07194 0.0
C175 C 0.19556 0.23174 0.07335 0.0
C176 C 0.17686 0.2399 0.0611 0.0
C177 C 0.27641 0.25173 0.06834 0.0
O178 O 0.27376 0.27383 0.07074 0.0
H179 H 0.20729 0.28556 0.07469 0.0
H180 H 0.19832 0.21405 0.07741 0.0
O181 O 0.24608 0.27809 0.1117 0.0
H182 H 0.20135 0.19344 0.15685 0.0
H183 H 0.16195 0.22971 0.05414 0.0
Cu184 Cu 0.26582 0.04357 0.27337 0.0
N185 N 0.23348 0.03601 0.27052 0.0
N186 N 0.19504 0.04293 0.27488 0.0
C187 C 0.21692 0.04486 0.28428 0.0
C188 C 0.19789 0.0322 0.2544 0.0
C189 C 0.22166 0.02785 0.25179 0.0
O190 O 0.27518 0.03832 0.30483 0.0
C191 C 0.28813 0.08406 0.25416 0.0
O192 O 0.30733 0.07221 0.2526 0.0
H193 H 0.22123 0.05512 0.29946 0.0
H194 H 0.23002 0.02141 0.23637 0.0
N195 N 0.28411 0.02488 0.25504 0.0
N196 N 0.30311 0.00973 0.22526 0.0
C197 C 0.2853 0.02302 0.23188 0.0
C198 C 0.30157 0.01226 0.26319 0.0
C199 C 0.31338 0.00295 0.24485 0.0
C200 C 0.27087 0.05062 0.32237 0.0
O201 O 0.26033 0.07 0.31976 0.0
H202 H 0.27419 0.03208 0.22017 0.0
H203 H 0.30592 0.01063 0.28125 0.0
O204 O 0.26966 0.07521 0.26382 0.0
H205 H 0.1842 0.02959 0.24141 0.0
H206 H 0.32858 0.99233 0.24579 0.0
Cu207 Cu 0.19489 0.98449 0.50315 0.0
N208 N 0.17182 0.00601 0.50083 0.0
N209 N 0.14598 0.02605 0.48103 0.0
C210 C 0.16603 0.01435 0.48022 0.0
C211 C 0.13894 0.02516 0.50336 0.0
C212 C 0.15493 0.01268 0.51555 0.0
O213 O 0.21675 0.99226 0.47845 0.0
C214 C 0.17162 0.94827 0.47886 0.0
O215 O 0.17728 0.96119 0.46106 0.0
H216 H 0.17527 0.00998 0.46451 0.0
H217 H 0.15339 0.00754 0.53339 0.0
N218 N 0.21126 0.98571 0.53097 0.0
N219 N 0.22324 0.99308 0.56706 0.0
C220 C 0.2075 0.99788 0.55042 0.0
C221 C 0.23002 0.97308 0.53541 0.0
C222 C 0.23744 0.97755 0.55761 0.0
C223 C 0.23216 0.98011 0.46894 0.0
O224 O 0.23499 0.95917 0.47612 0.0
H225 H 0.19322 0.00946 0.55256 0.0
H226 H 0.23758 0.9612 0.52336 0.0
O227 O 0.17883 0.95465 0.4988 0.0
H228 H 0.12277 0.0319 0.51019 0.0
H229 H 0.25211 0.96987 0.56619 0.0
Cu230 Cu 0.2548 0.97688 0.78829 0.0
N231 N 0.28701 0.97161 0.79151 0.0
N232 N 0.31879 0.9516 0.79939 0.0
C233 C 0.29634 0.95612 0.80549 0.0
C234 C 0.32403 0.96543 0.78138 0.0
C235 C 0.30443 0.97778 0.77659 0.0
O236 O 0.24268 0.98636 0.81782 0.0
C237 C 0.24242 0.92887 0.78116 0.0
O238 O 0.25089 0.92518 0.8018 0.0
H239 H 0.28615 0.94673 0.81842 0.0
H240 H 0.3023 0.98889 0.762 0.0
N241 N 0.25132 0.99989 0.76679 0.0
N242 N 0.24487 0.01559 0.7325 0.0
C243 C 0.24534 0.99602 0.74464 0.0
C244 C 0.2547 0.02273 0.769 0.0
C245 C 0.25067 0.03251 0.74781 0.0
C246 C 0.22681 0.97621 0.83013 0.0
O247 O 0.21581 0.95736 0.82242 0.0
H248 H 0.2414 0.97904 0.73766 0.0
H249 H 0.26004 0.03158 0.78477 0.0
O250 O 0.24 0.94933 0.77455 0.0
H251 H 0.34016 0.96529 0.77121 0.0
H252 H 0.25249 0.05056 0.7439 0.0
Cu253 Cu 0.33308 0.98851 0.99736 0.0
N254 N 0.348 0.96927 0.97661 0.0
N255 N 0.35943 0.95479 0.94271 0.0
C256 C 0.34484 0.96909 0.9536 0.0
C257 C 0.37203 0.94537 0.95972 0.0
C258 C 0.36493 0.95436 0.98062 0.0
O259 O 0.30218 0.99379 0.98464 0.0
C260 C 0.36832 0.02401 0.98853 0.0
O261 O 0.37221 0.01233 0.96954 0.0
H262 H 0.33246 0.97977 0.94506 0.0
H263 H 0.37214 0.95088 0.99744 0.0
N264 N 0.32802 0.97416 0.02545 0.0
N265 N 0.32514 0.97006 0.06352 0.0
C266 C 0.33578 0.98185 0.04617 0.0
C267 C 0.31209 0.95684 0.02981 0.0
C268 C 0.3102 0.95432 0.05338 0.0
C269 C 0.29808 0.01009 0.97112 0.0
O270 O 0.31512 0.0256 0.96678 0.0
H271 H 0.3476 0.99685 0.04853 0.0
H272 H 0.30158 0.94767 0.0168 0.0
O273 O 0.35206 0.01689 0.00237 0.0
H274 H 0.38613 0.93364 0.95724 0.0
H275 H 0.29814 0.9425 0.06239 0.0
Cu276 Cu 0.71195 0.2817 0.91945 0.0
N277 N 0.70117 0.25588 0.90284 0.0
N278 N 0.67467 0.2395 0.87837 0.0
C279 C 0.68966 0.25772 0.88271 0.0
C280 C 0.6776 0.22512 0.89611 0.0
C281 C 0.69384 0.23538 0.91131 0.0
O282 O 0.6844 0.28992 0.93724 0.0
C283 C 0.7313 0.32439 0.90154 0.0
O284 O 0.73506 0.33069 0.9231 0.0
H285 H 0.69026 0.27334 0.87282 0.0
H286 H 0.69768 0.22961 0.92853 0.0
N287 N 0.73675 0.27552 0.93935 0.0
N288 N 0.77262 0.27651 0.95579 0.0
C289 C 0.76019 0.28046 0.93644 0.0
C290 C 0.73433 0.26806 0.96116 0.0
C291 C 0.75643 0.26871 0.97138 0.0
C292 C 0.66554 0.29462 0.92659 0.0
O293 O 0.66677 0.29864 0.90435 0.0
H294 H 0.76778 0.28796 0.92092 0.0
H295 H 0.71752 0.26334 0.9693 0.0
O296 O 0.72168 0.30474 0.8971 0.0
H297 H 0.66685 0.2096 0.89919 0.0
H298 H 0.76027 0.26427 0.98904 0.0
Cu299 Cu 0.98424 0.48859 0.231 0.0
N300 N 0.95269 0.49697 0.23121 0.0
N301 N 0.92118 0.51517 0.21885 0.0
C302 C 0.94493 0.51618 0.22179 0.0
C303 C 0.91356 0.49461 0.22716 0.0
C304 C 0.93308 0.48343 0.23484 0.0
O305 O 0.00399 0.51675 0.23284 0.0
C306 C 0.00315 0.46917 0.18818 0.0
O307 O 0.0211 0.48436 0.18852 0.0
H308 H 0.95658 0.5297 0.21507 0.0
H309 H 0.93318 0.46597 0.24082 0.0
N310 N 0.99037 0.47101 0.2567 0.0
N311 N 1.00044 0.4415 0.27833 0.0
C312 C 0.99493 0.44861 0.25693 0.0
C313 C 0.99302 0.47844 0.27859 0.0
C314 C 0.9992 0.46032 0.29197 0.0
C315 C 0.00548 0.53197 0.21728 0.0
O316 O 0.99709 0.52706 0.19658 0.0
H317 H 0.99437 0.43789 0.2416 0.0
H318 H 0.99115 0.49594 0.28426 0.0
O319 O 0.98745 0.46927 0.20395 0.0
H320 H 0.89546 0.48753 0.22627 0.0
H321 H 0.00315 0.46124 0.31022 0.0
Cu322 Cu 0.78451 0.72429 0.41975 0.0
N323 N 0.79486 0.74603 0.39812 0.0
N324 N 0.81864 0.76282 0.37173 0.0
C325 C 0.81251 0.74325 0.38281 0.0
C326 C 0.80395 0.77851 0.3801 0.0
C327 C 0.78936 0.7681 0.39653 0.0
O328 O 0.80981 0.72353 0.44228 0.0
C329 C 0.76995 0.69361 0.38437 0.0
O330 O 0.76519 0.71257 0.3737 0.0
H331 H 0.82089 0.72721 0.38003 0.0
H332 H 0.77638 0.77626 0.4072 0.0
N333 N 0.75708 0.733 0.43481 0.0
N334 N 0.72003 0.7316 0.44866 0.0
C335 C 0.735 0.7233 0.43274 0.0
C336 C 0.75601 0.748 0.45249 0.0
C337 C 0.73315 0.74714 0.46113 0.0
C338 C 0.83021 0.71694 0.43657 0.0
O339 O 0.83306 0.70729 0.41626 0.0
H340 H 0.73034 0.70956 0.42069 0.0
H341 H 0.77106 0.75815 0.4592 0.0
O342 O 0.77849 0.69476 0.4047 0.0
H343 H 0.80442 0.79641 0.37545 0.0
H344 H 0.72678 0.75679 0.47573 0.0
Cu345 Cu 0.96467 0.73051 0.22042 0.0
N346 N 0.94211 0.71551 0.20149 0.0
N347 N 0.91551 0.68741 0.19203 0.0
C348 C 0.93548 0.6933 0.20387 0.0
C349 C 0.90959 0.70668 0.18121 0.0
C350 C 0.92603 0.72408 0.18721 0.0
O351 O 0.98555 0.70682 0.23011 0.0
C352 C 0.9514 0.74713 0.26608 0.0
O353 O 0.97109 0.73938 0.27445 0.0
H354 H 0.94446 0.68194 0.21512 0.0
H355 H 0.92536 0.74197 0.18277 0.0
N356 N 0.98205 0.75304 0.2043 0.0
N357 N 0.0036 0.78522 0.19685 0.0
C358 C 0.99175 0.77274 0.21307 0.0
C359 C 0.98786 0.75299 0.18179 0.0
C360 C 0.00117 0.77282 0.17712 0.0
C361 C 0.98038 0.69238 0.24584 0.0
O362 O 0.96127 0.69474 0.25852 0.0
H363 H 0.99041 0.77758 0.23109 0.0
H364 H 0.98275 0.73947 0.16966 0.0
O365 O 0.94669 0.74491 0.24471 0.0
H366 H 0.89366 0.7085 0.17111 0.0
H367 H 0.00821 0.77781 0.16043 0.0
Cu368 Cu 0.53761 0.2692 0.71588 0.0
N369 N 0.56324 0.28676 0.70428 0.0
N370 N 0.58639 0.31883 0.7016 0.0
C371 C 0.56495 0.30948 0.70772 0.0
C372 C 0.5986 0.301 0.69356 0.0
C373 C 0.58426 0.28119 0.69532 0.0
O374 O 0.51207 0.29027 0.71654 0.0
C375 C 0.55768 0.27051 0.76053 0.0
O376 O 0.55995 0.29261 0.75673 0.0
H377 H 0.55116 0.31851 0.71639 0.0
H378 H 0.58925 0.26391 0.69154 0.0
N379 N 0.5289 0.24452 0.69682 0.0
N380 N 0.51006 0.21186 0.68566 0.0
C381 C 0.51234 0.22815 0.70224 0.0
C382 C 0.53745 0.23854 0.67604 0.0
C383 C 0.52589 0.21826 0.66912 0.0
C384 C 0.50267 0.29951 0.73404 0.0
O385 O 0.50713 0.29197 0.75478 0.0
H386 H 0.50269 0.2279 0.71842 0.0
H387 H 0.55125 0.24809 0.66672 0.0
O388 O 0.54697 0.2576 0.74569 0.0
H389 H 0.61689 0.30189 0.68776 0.0
H390 H 0.52892 0.20898 0.65322 0.0
Cu391 Cu 0.5153 0.49884 0.7225 0.0
N392 N 0.54523 0.48682 0.7248 0.0
N393 N 0.57588 0.46648 0.71358 0.0
C394 C 0.55225 0.4689 0.71224 0.0
C395 C 0.58411 0.48352 0.72775 0.0
C396 C 0.56509 0.49605 0.7347 0.0
O397 O 0.49232 0.47314 0.72173 0.0
C398 C 0.49948 0.52758 0.68582 0.0
O399 O 0.47768 0.52383 0.69349 0.0
H400 H 0.54058 0.45896 0.70081 0.0
H401 H 0.5659 0.5116 0.74499 0.0
N402 N 0.50869 0.51685 0.74809 0.0
N403 N 0.49661 0.54658 0.76864 0.0
C404 C 0.50511 0.53943 0.74816 0.0
C405 C 0.50244 0.50948 0.76927 0.0
C406 C 0.4949 0.52782 0.78202 0.0
C407 C 0.48923 0.45962 0.70459 0.0
O408 O 0.49906 0.46506 0.68468 0.0
H409 H 0.50723 0.55009 0.73305 0.0
H410 H 0.50226 0.4918 0.77465 0.0
O411 O 0.51655 0.51779 0.69531 0.0
H412 H 0.60262 0.48734 0.7319 0.0
H413 H 0.48805 0.5273 0.79948 0.0
Cu414 Cu 0.97532 0.35691 0.00391 0.0
N415 N 0.96877 0.3831 0.9877 0.0
N416 N 0.94958 0.41409 0.978 0.0
C417 C 0.94976 0.3956 0.99169 0.0
C418 C 0.96938 0.4132 0.96487 0.0
C419 C 0.98118 0.39393 0.97085 0.0
O420 O 0.94995 0.33448 0.99653 0.0
C421 C 0.98948 0.38258 0.04247 0.0
O422 O 0.00219 0.39357 0.02667 0.0
H423 H 0.93673 0.39156 0.00497 0.0
H424 H 0.99772 0.38838 0.96368 0.0
N425 N 0.00453 0.34584 0.99512 0.0
N426 N 0.04167 0.33426 0.99751 0.0
C427 C 0.02393 0.34466 0.00851 0.0
C428 C 0.01016 0.33588 0.97493 0.0
C429 C 0.03309 0.32864 0.97637 0.0
C430 C 0.92973 0.33459 0.00636 0.0
O431 O 0.92664 0.34873 0.02375 0.0
H432 H 0.02469 0.35048 0.02628 0.0
H433 H 0.99823 0.33365 0.96039 0.0
O434 O 0.9763 0.36525 0.03641 0.0
H435 H 0.97497 0.42556 0.95194 0.0
H436 H 0.04263 0.31981 0.96301 0.0
Cu437 Cu 0.52136 0.64667 0.50952 0.0
N438 N 0.52132 0.61843 0.49451 0.0
N439 N 0.53517 0.58433 0.48536 0.0
C440 C 0.54038 0.60545 0.49404 0.0
C441 C 0.51178 0.58407 0.48008 0.0
C442 C 0.50326 0.60516 0.4858 0.0
O443 O 0.54796 0.66481 0.49701 0.0
C444 C 0.50739 0.62847 0.55151 0.0
O445 O 0.48786 0.62397 0.5396 0.0
H446 H 0.55735 0.61098 0.50147 0.0
H447 H 0.48499 0.61 0.48483 0.0
N448 N 0.49335 0.66169 0.50464 0.0
N449 N 0.46334 0.68475 0.51089 0.0
C450 C 0.48347 0.67637 0.51944 0.0
C451 C 0.47921 0.6608 0.48596 0.0
C452 C 0.46064 0.67492 0.48978 0.0
C453 C 0.56723 0.67021 0.50756 0.0
O454 O 0.56956 0.66459 0.5293 0.0
H455 H 0.4912 0.68097 0.53601 0.0
H456 H 0.48223 0.65065 0.47063 0.0
O457 O 0.52457 0.6398 0.54199 0.0
H458 H 0.50138 0.56946 0.47335 0.0
H459 H 0.4462 0.6775 0.47795 0.0
Cu460 Cu 0.69072 0.44691 0.53107 0.0
N461 N 0.67931 0.42497 0.55181 0.0
N462 N 0.66415 0.41169 0.58499 0.0
C463 C 0.67204 0.4303 0.5732 0.0
C464 C 0.66654 0.39383 0.57031 0.0
C465 C 0.67606 0.4021 0.54982 0.0
O466 O 0.71418 0.46489 0.54869 0.0
C467 C 0.66485 0.48282 0.51087 0.0
O468 O 0.68571 0.49264 0.506 0.0
H469 H 0.67176 0.44772 0.57964 0.0
H470 H 0.68002 0.39223 0.53452 0.0
N471 N 0.70471 0.43379 0.50529 0.0
N472 N 0.71472 0.42806 0.46842 0.0
C473 C 0.70036 0.43893 0.48317 0.0
C474 C 0.72237 0.41908 0.50462 0.0
C475 C 0.72863 0.41554 0.48185 0.0
C476 C 0.70903 0.48218 0.56084 0.0
O477 O 0.68813 0.49094 0.55847 0.0
H478 H 0.68758 0.45116 0.47808 0.0
H479 H 0.73048 0.41191 0.51965 0.0
O480 O 0.66372 0.46389 0.52152 0.0
H481 H 0.66156 0.37614 0.57401 0.0
H482 H 0.7425 0.4048 0.47571 0.0
Cu483 Cu 0.73974 0.48276 0.7656 0.0
N484 N 0.70743 0.47767 0.76044 0.0
N485 N 0.6735 0.45923 0.74997 0.0
C486 C 0.69676 0.45736 0.75475 0.0
C487 C 0.66943 0.48167 0.75284 0.0
C488 C 0.69047 0.49303 0.75924 0.0
O489 O 0.75321 0.49034 0.73577 0.0
C490 C 0.76229 0.45221 0.79662 0.0
O491 O 0.77079 0.47055 0.8076 0.0
H492 H 0.70604 0.44159 0.75399 0.0
H493 H 0.69337 0.51125 0.76221 0.0
N494 N 0.74449 0.50734 0.78607 0.0
N495 N 0.74504 0.52844 0.81848 0.0
C496 C 0.73801 0.50829 0.80841 0.0
C497 C 0.75559 0.52768 0.78162 0.0
C498 C 0.75601 0.54073 0.80156 0.0
C499 C 0.75368 0.4753 0.7198 0.0
O500 O 0.74828 0.45381 0.72481 0.0
H501 H 0.72917 0.49405 0.81725 0.0
H502 H 0.76312 0.53254 0.76509 0.0
O503 O 0.75068 0.45431 0.77799 0.0
H504 H 0.65266 0.48946 0.74986 0.0
H505 H 0.76394 0.55786 0.80341 0.0
Cu506 Cu 0.80249 0.55522 0.03749 0.0
N507 N 0.82018 0.57471 0.05729 0.0
N508 N 0.84234 0.58211 0.08874 0.0
C509 C 0.82367 0.56986 0.07963 0.0
C510 C 0.85062 0.5957 0.07153 0.0
C511 C 0.83705 0.59093 0.05206 0.0
O512 O 0.77699 0.54087 0.05567 0.0
C513 C 0.82169 0.51418 0.01742 0.0
O514 O 0.80045 0.50394 0.01869 0.0
H515 H 0.81385 0.55626 0.08849 0.0
H516 H 0.84073 0.59719 0.03487 0.0
N517 N 0.78959 0.57033 0.0127 0.0
N518 N 0.77294 0.57385 0.97808 0.0
C519 C 0.77712 0.55966 0.99564 0.0
C520 C 0.7933 0.59214 0.00581 0.0
C521 C 0.78312 0.59433 0.98432 0.0
C522 C 0.77993 0.52447 0.06948 0.0
O523 O 0.80042 0.51461 0.06958 0.0
H524 H 0.77254 0.54146 0.99549 0.0
H525 H 0.80351 0.60525 0.01524 0.0
O526 O 0.8251 0.53457 0.02488 0.0
H527 H 0.86668 0.60663 0.07227 0.0
H528 H 0.78373 0.60957 0.97383 0.0
Cu529 Cu 0.77077 0.51634 0.26447 0.0
N530 N 0.802 0.5257 0.25723 0.0
N531 N 0.83178 0.54672 0.24128 0.0
C532 C 0.80847 0.54023 0.24023 0.0
C533 C 0.84037 0.53542 0.25945 0.0
C534 C 0.82194 0.52249 0.26927 0.0
O535 O 0.75453 0.51019 0.23548 0.0
C536 C 0.7597 0.56142 0.27934 0.0
O537 O 0.76847 0.56824 0.25941 0.0
H538 H 0.79592 0.54717 0.22837 0.0
H539 H 0.82276 0.51241 0.28478 0.0
N540 N 0.77004 0.49002 0.28232 0.0
N541 N 0.75972 0.46667 0.31128 0.0
C542 C 0.75455 0.48563 0.29959 0.0
C543 C 0.78552 0.47319 0.28293 0.0
C544 C 0.77925 0.45877 0.30092 0.0
C545 C 0.73762 0.52111 0.22708 0.0
O546 O 0.7281 0.53728 0.2394 0.0
H547 H 0.74047 0.49681 0.30421 0.0
H548 H 0.80073 0.47195 0.27162 0.0
O549 O 0.75763 0.54011 0.28358 0.0
H550 H 0.85844 0.5371 0.26581 0.0
H551 H 0.78853 0.4439 0.3062 0.0
H552 H 0.23482 0.2693 0.17237 0.0
H553 H 0.19144 0.28536 0.11377 0.0
H554 H 0.15531 0.27206 0.13483 0.0
H555 H 0.19751 0.21863 0.19346 0.0
H556 H 0.20325 0.22684 0.223 0.0
H557 H 0.22516 0.23362 0.20107 0.0
H558 H 0.22445 0.27638 0.21444 0.0
H559 H 0.20161 0.26935 0.23531 0.0
H560 H 0.19676 0.29064 0.21375 0.0
H561 H 0.1237 0.26047 0.16359 0.0
H562 H 0.09887 0.25106 0.19774 0.0
H563 H 0.16274 0.24432 0.23853 0.0
C564 C 0.21772 0.26932 0.16385 0.0
C565 C 0.21586 0.27717 0.14102 0.0
C566 C 0.19326 0.27798 0.13063 0.0
C567 C 0.17263 0.2708 0.14265 0.0
C568 C 0.17496 0.26317 0.1652 0.0
C569 C 0.19695 0.2623 0.1757 0.0
C570 C 0.1944 0.25525 0.20071 0.0
C571 C 0.20576 0.23222 0.20479 0.0
C572 C 0.20492 0.27402 0.217 0.0
C573 C 0.16756 0.25291 0.20278 0.0
C574 C 0.15669 0.2573 0.18205 0.0
C575 C 0.132 0.2568 0.17988 0.0
C576 C 0.11805 0.25153 0.1994 0.0
C577 C 0.12882 0.247 0.22085 0.0
C578 C 0.15392 0.24771 0.22243 0.0
H579 H 0.01833 0.89054 0.40661 0.0
H580 H 0.00792 0.82887 0.36532 0.0
H581 H 0.99681 0.85212 0.33172 0.0
H582 H 0.97187 0.9245 0.38016 0.0
H583 H 0.99027 0.95058 0.38111 0.0
H584 H 0.99373 0.92896 0.40266 0.0
H585 H 0.03855 0.92757 0.3926 0.0
H586 H 0.03524 0.94927 0.37123 0.0
H587 H 0.0473 0.92233 0.36314 0.0
H588 H 0.9888 0.88232 0.30237 0.0
H589 H 0.99087 0.91668 0.27789 0.0
H590 H 0.00939 0.95878 0.33785 0.0
C591 C 0.01314 0.88205 0.39058 0.0
C592 C 0.01348 0.85804 0.38842 0.0
C593 C 0.00749 0.8473 0.36713 0.0
C594 C 0.00102 0.86034 0.34812 0.0
C595 C 0.00095 0.88409 0.35072 0.0
C596 C 0.00721 0.89486 0.37134 0.0
C597 C 0.00869 0.92064 0.36886 0.0
C598 C 0.99002 0.93183 0.3841 0.0
C599 C 0.03394 0.93052 0.37426 0.0
C600 C 0.00279 0.92271 0.3435 0.0
C601 C 0.99774 0.90148 0.33349 0.0
C602 C 0.99267 0.89903 0.31004 0.0
C603 C 0.99373 0.91868 0.29628 0.0
C604 C 1.00028 0.9404 0.30596 0.0
C605 C 0.00417 0.94243 0.33 0.0
H606 H 0.29583 0.76265 0.65261 0.0
H607 H 0.32104 0.71697 0.59939 0.0
H608 H 0.35343 0.70612 0.62514 0.0
H609 H 0.34998 0.78499 0.66819 0.0
H610 H 0.34408 0.7876 0.69867 0.0
H611 H 0.32001 0.7881 0.6784 0.0
H612 H 0.29805 0.75419 0.6991 0.0
H613 H 0.32186 0.75381 0.71982 0.0
H614 H 0.31319 0.72817 0.70383 0.0
H615 H 0.38677 0.70519 0.65421 0.0
H616 H 0.4168 0.71274 0.68477 0.0
H617 H 0.36985 0.75961 0.71835 0.0
C618 C 0.30757 0.74969 0.64663 0.0
C619 C 0.30575 0.74057 0.62398 0.0
C620 C 0.32185 0.72401 0.61674 0.0
C621 C 0.34039 0.71779 0.63124 0.0
C622 C 0.34243 0.72809 0.65301 0.0
C623 C 0.3262 0.74343 0.6608 0.0
C624 C 0.33363 0.75397 0.68379 0.0
C625 C 0.33713 0.78021 0.68214 0.0
C626 C 0.31561 0.74711 0.70276 0.0
C627 C 0.35703 0.74283 0.68735 0.0
C628 C 0.3617 0.72773 0.6696 0.0
C629 C 0.38307 0.71664 0.66841 0.0
C630 C 0.40008 0.72112 0.6858 0.0
C631 C 0.39568 0.7367 0.70403 0.0
C632 C 0.37371 0.74743 0.70482 0.0
H633 H 0.48109 0.15724 0.83708 0.0
H634 H 0.46485 0.11817 0.89895 0.0
H635 H 0.46985 0.08236 0.87721 0.0
H636 H 0.44929 0.11959 0.7983 0.0
H637 H 0.47043 0.12323 0.77506 0.0
H638 H 0.46717 0.14588 0.79591 0.0
H639 H 0.51228 0.14588 0.80475 0.0
H640 H 0.5156 0.12304 0.78405 0.0
H641 H 0.52519 0.11968 0.81343 0.0
H642 H 0.47399 0.05069 0.84843 0.0
H643 H 0.47565 0.02538 0.81417 0.0
H644 H 0.48952 0.0847 0.77087 0.0
C645 C 0.47859 0.14118 0.84608 0.0
C646 C 0.47277 0.14065 0.86985 0.0
C647 C 0.46976 0.11917 0.88092 0.0
C648 C 0.4725 0.09867 0.86869 0.0
C649 C 0.47834 0.09983 0.84536 0.0
C650 C 0.4813 0.12051 0.83412 0.0
C651 C 0.48651 0.11691 0.80868 0.0
C652 C 0.4672 0.127 0.7936 0.0
C653 C 0.51138 0.12697 0.80237 0.0
C654 C 0.48553 0.09097 0.80733 0.0
C655 C 0.48096 0.08148 0.82872 0.0
C656 C 0.47785 0.0579 0.83163 0.0
C657 C 0.47885 0.04366 0.81208 0.0
C658 C 0.48299 0.05303 0.7899 0.0
C659 C 0.48688 0.07698 0.78765 0.0
H660 H 0.17042 0.07047 0.24765 0.0
H661 H 0.17775 0.04776 0.31802 0.0
H662 H 0.15108 0.07772 0.33137 0.0
H663 H 0.176 0.12699 0.25973 0.0
H664 H 0.15505 0.13648 0.23883 0.0
H665 H 0.16977 0.11028 0.23396 0.0
H666 H 0.1292 0.08777 0.22994 0.0
H667 H 0.11418 0.11402 0.2343 0.0
H668 H 0.10727 0.08977 0.2525 0.0
H669 H 0.12942 0.1139 0.33755 0.0
H670 H 0.11294 0.15229 0.33595 0.0
H671 H 0.12112 0.15188 0.2615 0.0
C672 C 0.16544 0.07113 0.26569 0.0
C673 C 0.17566 0.0566 0.28181 0.0
C674 C 0.16974 0.05861 0.30546 0.0
C675 C 0.15468 0.07556 0.31315 0.0
C676 C 0.14576 0.09036 0.29692 0.0
C677 C 0.15071 0.08814 0.27363 0.0
C678 C 0.14145 0.10785 0.26008 0.0
C679 C 0.16178 0.12118 0.24743 0.0
C680 C 0.12186 0.09934 0.24321 0.0
C681 C 0.13135 0.12195 0.27946 0.0
C682 C 0.13366 0.11146 0.30054 0.0
C683 C 0.12715 0.12209 0.32109 0.0
C684 C 0.11804 0.144 0.32004 0.0
C685 C 0.11565 0.1551 0.2986 0.0
C686 C 0.12221 0.14371 0.2781 0.0
H687 H 0.06168 0.87346 0.52418 0.0
H688 H 0.03573 0.87593 0.4543 0.0
H689 H 0.07575 0.88759 0.44045 0.0
H690 H 0.09245 0.9235 0.52215 0.0
H691 H 0.11743 0.91637 0.53966 0.0
H692 H 0.08928 0.90106 0.54323 0.0
H693 H 0.10899 0.86242 0.53544 0.0
H694 H 0.13736 0.87779 0.53235 0.0
H695 H 0.12636 0.85894 0.50961 0.0
H696 H 0.1155 0.90611 0.4352 0.0
H697 H 0.15071 0.93243 0.43896 0.0
H698 H 0.15107 0.92138 0.51292 0.0
C699 C 0.06488 0.8754 0.50585 0.0
C700 C 0.0461 0.87205 0.48991 0.0
C701 C 0.05033 0.87621 0.46629 0.0
C702 C 0.07301 0.88329 0.45841 0.0
C703 C 0.09123 0.88663 0.47452 0.0
C704 C 0.08745 0.88283 0.49781 0.0
C705 C 0.10872 0.89155 0.51194 0.0
C706 C 0.10153 0.90917 0.53031 0.0
C707 C 0.12109 0.87148 0.52299 0.0
C708 C 0.12411 0.90256 0.4932 0.0
C709 C 0.11409 0.89872 0.47166 0.0
C710 C 0.12379 0.90886 0.4519 0.0
C711 C 0.14379 0.92389 0.45423 0.0
C712 C 0.15368 0.92902 0.47624 0.0
C713 C 0.14412 0.91759 0.49583 0.0
H714 H 0.34495 0.92521 0.77154 0.0
H715 H 0.31929 0.93191 0.84172 0.0
H716 H 0.33742 0.89552 0.85176 0.0
H717 H 0.3314 0.86631 0.76691 0.0
H718 H 0.3567 0.86044 0.74906 0.0
H719 H 0.34418 0.88816 0.74829 0.0
H720 H 0.38535 0.90766 0.75867 0.0
H721 H 0.39766 0.87975 0.75899 0.0
H722 H 0.40087 0.89831 0.78386 0.0
H723 H 0.35759 0.857 0.85318 0.0
H724 H 0.3768 0.82039 0.8457 0.0
H725 H 0.38598 0.83906 0.7738 0.0
C726 C 0.34368 0.91942 0.78919 0.0
C727 C 0.33116 0.93167 0.80599 0.0
C728 C 0.32902 0.9229 0.82865 0.0
C729 C 0.33926 0.90225 0.83448 0.0
C730 C 0.35121 0.89044 0.81733 0.0
C731 C 0.35333 0.89875 0.79513 0.0
C732 C 0.36523 0.88213 0.77928 0.0
C733 C 0.34837 0.87377 0.75975 0.0
C734 C 0.38867 0.89266 0.76964 0.0
C735 C 0.36973 0.86319 0.79599 0.0
C736 C 0.36171 0.86822 0.81791 0.0
C737 C 0.36395 0.85295 0.83605 0.0
C738 C 0.37477 0.83213 0.83161 0.0
C739 C 0.38315 0.82676 0.80919 0.0
C740 C 0.38036 0.84261 0.79127 0.0
H741 H 0.40295 0.04447 0.96148 0.0
H742 H 0.36631 0.05183 0.02695 0.0
H743 H 0.39 0.08778 0.03471 0.0
H744 H 0.46132 0.06778 0.9806 0.0
H745 H 0.46723 0.08204 0.95361 0.0
H746 H 0.44884 0.05597 0.95419 0.0
H747 H 0.41488 0.07651 0.93397 0.0
H748 H 0.43325 0.1025 0.9332 0.0
H749 H 0.40428 0.10247 0.94653 0.0
H750 H 0.41574 0.12448 0.03387 0.0
H751 H 0.43972 0.15944 0.02363 0.0
H752 H 0.45966 0.1273 0.95902 0.0
C753 C 0.40005 0.05346 0.9776 0.0
C754 C 0.38279 0.04528 0.99363 0.0
C755 C 0.37945 0.05774 0.0144 0.0
C756 C 0.3929 0.07812 0.01901 0.0
C757 C 0.40971 0.08573 0.00276 0.0
C758 C 0.41329 0.07376 0.98246 0.0
C759 C 0.43135 0.08622 0.96715 0.0
C760 C 0.4535 0.07216 0.96369 0.0
C761 C 0.42027 0.09229 0.94385 0.0
C762 C 0.43695 0.10738 0.98173 0.0
C763 C 0.42454 0.10671 0.00233 0.0
C764 C 0.42578 0.12506 0.01792 0.0
C765 C 0.43951 0.14483 0.01198 0.0
C766 C 0.45169 0.14613 0.99057 0.0
C767 C 0.45084 0.12683 0.97565 0.0
H768 H 0.12796 0.03048 0.34709 0.0
H769 H 0.05198 0.02731 0.36027 0.0
H770 H 0.05952 0.03412 0.40168 0.0
H771 H 0.14331 1.00021 0.39391 0.0
H772 H 0.17041 0.01615 0.40116 0.0
H773 H 0.16007 0.01539 0.37182 0.0
H774 H 0.16031 0.05911 0.37047 0.0
H775 H 0.17076 0.06143 0.39982 0.0
H776 H 0.14393 0.07481 0.39164 0.0
H777 H 0.07531 0.03561 0.4421 0.0
H778 H 0.09811 0.03113 0.47789 0.0
H779 H 0.16377 0.03595 0.43844 0.0
C780 C 0.1129 0.03192 0.35855 0.0
C781 C 0.08939 0.02821 0.35038 0.0
C782 C 0.07017 0.02971 0.36611 0.0
C783 C 0.07426 0.03385 0.38967 0.0
C784 C 0.09766 0.03678 0.39725 0.0
C785 C 0.11667 0.03609 0.38212 0.0
C786 C 0.14009 0.03748 0.39492 0.0
C787 C 0.1543 0.01605 0.39016 0.0
C788 C 0.15463 0.05952 0.38884 0.0
C789 C 0.13127 0.03818 0.41962 0.0
C790 C 0.10677 0.03804 0.42063 0.0
C791 C 0.09455 0.03624 0.44156 0.0
C792 C 0.10769 0.03379 0.46188 0.0
C793 C 0.13282 0.03304 0.46113 0.0
C794 C 0.14462 0.03623 0.43972 0.0
H795 H 0.25207 0.88433 0.65265 0.0
H796 H 0.27592 0.82028 0.67935 0.0
H797 H 0.26661 0.83308 0.71898 0.0
H798 H 0.27777 0.91851 0.69627 0.0
H799 H 0.2546 0.93855 0.69809 0.0
H800 H 0.25999 0.92383 0.67124 0.0
H801 H 0.21663 0.90804 0.66931 0.0
H802 H 0.20967 0.92233 0.69605 0.0
H803 H 0.20407 0.89189 0.69309 0.0
H804 H 0.25769 0.85471 0.75621 0.0
H805 H 0.25143 0.8834 0.78703 0.0
H806 H 0.23297 0.93259 0.73519 0.0
C807 C 0.25528 0.8729 0.66675 0.0
C808 C 0.26464 0.85125 0.66279 0.0
C809 C 0.26842 0.83682 0.68186 0.0
C810 C 0.26321 0.84395 0.70446 0.0
C811 C 0.25404 0.86548 0.70772 0.0
C812 C 0.25012 0.87969 0.68933 0.0
C813 C 0.24169 0.90257 0.69737 0.0
C814 C 0.25955 0.92202 0.69031 0.0
C815 C 0.21653 0.90644 0.6884 0.0
C816 C 0.24164 0.89921 0.72317 0.0
C817 C 0.24874 0.87771 0.72892 0.0
C818 C 0.25177 0.87147 0.75187 0.0
C819 C 0.24808 0.88787 0.76927 0.0
C820 C 0.24151 0.91024 0.7636 0.0
C821 C 0.23761 0.91559 0.74024 0.0
H822 H 0.34865 0.98518 0.90938 0.0
H823 H 0.3784 0.91894 0.9199 0.0
H824 H 0.3873 0.91637 0.87821 0.0
H825 H 0.32193 0.97218 0.8524 0.0
H826 H 0.32919 1.00058 0.84195 0.0
H827 H 0.32337 0.99609 0.87221 0.0
H828 H 0.3638 0.01601 0.88264 0.0
H829 H 0.37003 0.02057 0.85255 0.0
H830 H 0.39058 0.00559 0.87002 0.0
H831 H 0.39709 0.92326 0.83612 0.0
H832 H 0.40581 0.93871 0.79721 0.0
H833 H 0.36792 0.99935 0.81435 0.0
C834 C 0.35643 0.96979 0.90298 0.0
C835 C 0.36279 0.95225 0.91809 0.0
C836 C 0.37357 0.93274 0.90881 0.0
C837 C 0.37854 0.93104 0.8851 0.0
C838 C 0.37246 0.94891 0.87084 0.0
C839 C 0.36141 0.9678 0.87942 0.0
C840 C 0.35806 0.98535 0.86083 0.0
C841 C 0.33155 0.98873 0.85655 0.0
C842 C 0.37142 0.00821 0.86688 0.0
C843 C 0.36934 0.97363 0.84051 0.0
C844 C 0.37759 0.95262 0.84658 0.0
C845 C 0.39043 0.93955 0.83114 0.0
C846 C 0.39528 0.9484 0.80911 0.0
C847 C 0.38725 0.97003 0.80271 0.0
C848 C 0.37369 0.98249 0.81851 0.0
H849 H 0.24862 0.10902 0.24776 0.0
H850 H 0.32382 0.10794 0.23117 0.0
H851 H 0.31987 0.14114 0.20569 0.0
H852 H 0.22926 0.12003 0.19261 0.0
H853 H 0.20604 0.13857 0.20115 0.0
H854 H 0.21541 0.11697 0.22057 0.0
H855 H 0.22411 0.14798 0.25201 0.0
H856 H 0.21474 0.1697 0.23263 0.0
H857 H 0.24382 0.17231 0.24562 0.0
H858 H 0.30685 0.17122 0.17863 0.0
H859 H 0.28623 0.19649 0.15268 0.0
H860 H 0.2194 0.17855 0.18734 0.0
C861 C 0.26443 0.11612 0.23927 0.0
C862 C 0.2866 0.10591 0.24158 0.0
C863 C 0.3067 0.11551 0.22979 0.0
C864 C 0.30463 0.13439 0.21528 0.0
C865 C 0.28237 0.14357 0.21285 0.0
C866 C 0.26266 0.13491 0.2247 0.0
C867 C 0.24042 0.14676 0.21771 0.0
C868 C 0.22169 0.12955 0.20739 0.0
C869 C 0.23018 0.15998 0.23822 0.0
C870 C 0.25061 0.16294 0.19954 0.0
C871 C 0.27485 0.16099 0.19719 0.0
C872 C 0.28793 0.17318 0.18059 0.0
C873 C 0.27593 0.18762 0.16587 0.0
C874 C 0.25097 0.18982 0.16772 0.0
C875 C 0.23837 0.17742 0.18514 0.0
H876 H 0.76993 0.44314 0.84228 0.0
H877 H 0.75297 0.41027 0.77648 0.0
H878 H 0.74646 0.37323 0.7961 0.0
H879 H 0.79905 0.39392 0.869 0.0
H880 H 0.78638 0.39971 0.89693 0.0
H881 H 0.79313 0.42289 0.87734 0.0
H882 H 0.74956 0.43501 0.88035 0.0
H883 H 0.74258 0.41175 0.89969 0.0
H884 H 0.72565 0.41443 0.87357 0.0
H885 H 0.73755 0.34091 0.82303 0.0
H886 H 0.72776 0.31507 0.85533 0.0
H887 H 0.74979 0.36888 0.90402 0.0
C888 C 0.76559 0.42802 0.8319 0.0
C889 C 0.7622 0.42955 0.80779 0.0
C890 C 0.75583 0.40948 0.79493 0.0
C891 C 0.7521 0.38835 0.80592 0.0
C892 C 0.75483 0.38758 0.8298 0.0
C893 C 0.76159 0.40682 0.84264 0.0
C894 C 0.76133 0.40171 0.86826 0.0
C895 C 0.78647 0.40473 0.87848 0.0
C896 C 0.74373 0.41661 0.88121 0.0
C897 C 0.75276 0.37675 0.86783 0.0
C898 C 0.74936 0.3689 0.84545 0.0
C899 C 0.74044 0.34676 0.84062 0.0
C900 C 0.73484 0.33224 0.85914 0.0
C901 C 0.73805 0.33989 0.88227 0.0
C902 C 0.7473 0.36244 0.88657 0.0
H903 H 0.88654 0.50269 0.18824 0.0
H904 H 0.9287 0.56093 0.21476 0.0
H905 H 0.91162 0.58561 0.18506 0.0
H906 H 0.89618 0.5172 0.13 0.0
H907 H 0.86731 0.50649 0.12033 0.0
H908 H 0.88072 0.49418 0.14518 0.0
H909 H 0.84367 0.50277 0.16987 0.0
H910 H 0.83045 0.51478 0.1447 0.0
H911 H 0.83337 0.53149 0.1709 0.0
H912 H 0.89196 0.60297 0.15029 0.0
H913 H 0.87002 0.61191 0.11465 0.0
H914 H 0.84254 0.54139 0.1109 0.0
C915 C 0.89149 0.5208 0.1884 0.0
C916 C 0.90851 0.53008 0.20412 0.0
C917 C 0.91538 0.55367 0.20303 0.0
C918 C 0.90585 0.56773 0.18622 0.0
C919 C 0.88952 0.55788 0.17059 0.0
C920 C 0.8824 0.53495 0.17159 0.0
C921 C 0.86649 0.52797 0.15153 0.0
C922 C 0.8784 0.51043 0.13584 0.0
C923 C 0.84204 0.51871 0.15983 0.0
C924 C 0.86489 0.55071 0.13963 0.0
C925 C 0.87853 0.56775 0.1506 0.0
C926 C 0.88079 0.58988 0.14183 0.0
C927 C 0.86842 0.59476 0.12153 0.0
C928 C 0.85415 0.57752 0.11017 0.0
C929 C 0.85254 0.55524 0.11947 0.0
H930 H 0.76798 0.6853 0.33794 0.0
H931 H 0.76268 0.65154 0.40421 0.0
H932 H 0.75562 0.61421 0.38428 0.0
H933 H 0.72382 0.64911 0.30716 0.0
H934 H 0.74083 0.64913 0.28077 0.0
H935 H 0.74344 0.67335 0.30022 0.0
H936 H 0.78907 0.66944 0.30221 0.0
H937 H 0.78661 0.64534 0.28267 0.0
H938 H 0.80062 0.64244 0.31036 0.0
H939 H 0.75002 0.58057 0.35706 0.0
H940 H 0.75046 0.55264 0.32492 0.0
H941 H 0.76135 0.60833 0.2764 0.0
C942 C 0.76503 0.67008 0.34826 0.0
C943 C 0.76564 0.67128 0.37261 0.0
C944 C 0.76224 0.65096 0.38553 0.0
C945 C 0.75808 0.62973 0.37437 0.0
C946 C 0.75761 0.62914 0.3503 0.0
C947 C 0.76126 0.64875 0.3374 0.0
C948 C 0.76171 0.64328 0.3118 0.0
C949 C 0.74122 0.65438 0.29925 0.0
C950 C 0.78594 0.65055 0.30114 0.0
C951 C 0.75797 0.61747 0.3123 0.0
C952 C 0.75525 0.6097 0.33464 0.0
C953 C 0.75207 0.58647 0.33949 0.0
C954 C 0.75227 0.57074 0.32107 0.0
C955 C 0.75596 0.57827 0.2981 0.0
C956 C 0.7584 0.60201 0.29373 0.0
H957 H 0.86784 0.57555 0.25634 0.0
H958 H 0.82147 0.56054 0.19794 0.0
H959 H 0.83867 0.59463 0.17794 0.0
H960 H 0.86135 0.63513 0.25485 0.0
H961 H 0.89135 0.64261 0.26392 0.0
H962 H 0.87713 0.61587 0.27271 0.0
H963 H 0.91154 0.59292 0.25434 0.0
H964 H 0.92589 0.62028 0.24766 0.0
H965 H 0.92054 0.5994 0.22516 0.0
H966 H 0.85984 0.63204 0.16531 0.0
H967 H 0.88402 0.66831 0.16088 0.0
H968 H 0.91469 0.65854 0.22851 0.0
C969 C 0.86176 0.57897 0.23907 0.0
C970 C 0.84352 0.56512 0.22858 0.0
C971 C 0.8355 0.57082 0.20627 0.0
C972 C 0.84514 0.59017 0.1948 0.0
C973 C 0.86278 0.6037 0.20588 0.0
C974 C 0.87104 0.59827 0.22752 0.0
C975 C 0.88873 0.61646 0.23655 0.0
C976 C 0.87905 0.62821 0.25828 0.0
C977 C 0.91309 0.60664 0.24121 0.0
C978 C 0.88976 0.63255 0.2163 0.0
C979 C 0.87457 0.62512 0.19883 0.0
C980 C 0.87201 0.63785 0.1788 0.0
C981 C 0.8857 0.65847 0.17646 0.0
C982 C 0.90159 0.66617 0.19413 0.0
C983 C 0.90336 0.65296 0.2143 0.0
H984 H 0.63259 0.33637 0.70038 0.0
H985 H 0.55996 0.35494 0.71415 0.0
H986 H 0.57459 0.39259 0.72786 0.0
H987 H 0.659 0.36451 0.74851 0.0
H988 H 0.68562 0.37443 0.73361 0.0
H989 H 0.66962 0.3487 0.72401 0.0
H990 H 0.66617 0.36544 0.68312 0.0
H991 H 0.68215 0.39134 0.69241 0.0
H992 H 0.6532 0.39271 0.67949 0.0
H993 H 0.59693 0.42699 0.74354 0.0
H994 H 0.62557 0.45805 0.75539 0.0
H995 H 0.68344 0.41886 0.7288 0.0
C996 C 0.61962 0.34837 0.70581 0.0
C997 C 0.59501 0.3421 0.70651 0.0
C998 C 0.5789 0.3587 0.71387 0.0
C999 C 0.58702 0.38037 0.72164 0.0
C1000 C 0.61133 0.38564 0.7214 0.0
C1001 C 0.6274 0.37034 0.71326 0.0
C1002 C 0.65265 0.3804 0.71507 0.0
C1003 C 0.66759 0.36616 0.73127 0.0
C1004 C 0.66423 0.38261 0.6911 0.0
C1005 C 0.64813 0.40364 0.72558 0.0
C1006 C 0.62419 0.40617 0.72932 0.0
C1007 C 0.61572 0.42551 0.74017 0.0
C1008 C 0.63212 0.44311 0.74678 0.0
C1009 C 0.65676 0.44113 0.74281 0.0
C1010 C 0.66476 0.421 0.73213 0.0
H1011 H 0.47318 0.60566 0.57729 0.0
H1012 H 0.54837 0.62601 0.57673 0.0
H1013 H 0.55405 0.60358 0.61204 0.0
H1014 H 0.46589 0.60632 0.64063 0.0
H1015 H 0.44528 0.58177 0.64013 0.0
H1016 H 0.44686 0.60099 0.61599 0.0
H1017 H 0.45456 0.56683 0.5886 0.0
H1018 H 0.45329 0.54756 0.61265 0.0
H1019 H 0.47917 0.54907 0.59426 0.0
H1020 H 0.55227 0.57598 0.64485 0.0
H1021 H 0.5428 0.54754 0.67498 0.0
H1022 H 0.46842 0.54583 0.65502 0.0
C1023 C 0.49078 0.60576 0.58481 0.0
C1024 C 0.51035 0.61762 0.57424 0.0
C1025 C 0.53309 0.61719 0.58458 0.0
C1026 C 0.5365 0.60444 0.60459 0.0
C1027 C 0.51694 0.59245 0.61419 0.0
C1028 C 0.49445 0.59326 0.60485 0.0
C1029 C 0.47657 0.57824 0.6181 0.0
C1030 C 0.45753 0.5927 0.62939 0.0
C1031 C 0.46524 0.55931 0.60246 0.0
C1032 C 0.49262 0.5684 0.63605 0.0
C1033 C 0.51583 0.57684 0.63345 0.0
C1034 C 0.53412 0.56948 0.64724 0.0
C1035 C 0.52855 0.5532 0.66422 0.0
C1036 C 0.50483 0.54448 0.66742 0.0
C1037 C 0.48666 0.55231 0.65315 0.0
H1038 H 0.65115 0.27562 0.86246 0.0
H1039 H 0.65375 0.20173 0.85778 0.0
H1040 H 0.62076 0.20087 0.82936 0.0
H1041 H 0.5867 0.2786 0.8561 0.0
H1042 H 0.58993 0.30464 0.83981 0.0
H1043 H 0.61181 0.29831 0.8612 0.0
H1044 H 0.64475 0.30284 0.82966 0.0
H1045 H 0.62268 0.30864 0.80839 0.0
H1046 H 0.64231 0.28555 0.80376 0.0
H1047 H 0.5891 0.20894 0.7993 0.0
H1048 H 0.56298 0.22496 0.76987 0.0
H1049 H 0.58227 0.29356 0.79482 0.0
C1050 C 0.64501 0.25921 0.8554 0.0
C1051 C 0.65531 0.23872 0.86207 0.0
C1052 C 0.64612 0.2176 0.85285 0.0
C1053 C 0.62739 0.21698 0.83677 0.0
C1054 C 0.61791 0.23762 0.83034 0.0
C1055 C 0.62643 0.25831 0.8395 0.0
C1056 C 0.6141 0.27822 0.82921 0.0
C1057 C 0.5998 0.29068 0.84769 0.0
C1058 C 0.63203 0.29477 0.81703 0.0
C1059 C 0.59781 0.26565 0.81217 0.0
C1060 C 0.59992 0.24222 0.81327 0.0
C1061 C 0.58718 0.22724 0.79847 0.0
C1062 C 0.57234 0.23651 0.78183 0.0
C1063 C 0.57053 0.26054 0.78003 0.0
C1064 C 0.58312 0.27513 0.79578 0.0
H1065 H 0.02466 0.46958 0.14534 0.0
H1066 H 0.97485 0.43006 0.18826 0.0
H1067 H 0.96766 0.40245 0.15639 0.0
H1068 H 0.99146 0.4633 0.09381 0.0
H1069 H 0.01689 0.46097 0.07511 0.0
H1070 H 0.01978 0.4767 0.10189 0.0
H1071 H 0.054 0.45139 0.1143 0.0
H1072 H 0.05125 0.4356 0.08749 0.0
H1073 H 0.04914 0.42069 0.11455 0.0
H1074 H 0.96404 0.38021 0.11934 0.0
H1075 H 0.96421 0.36509 0.07937 0.0
H1076 H 0.01594 0.41912 0.06031 0.0
C1077 C 0.01255 0.45492 0.14813 0.0
C1078 C 1.00037 0.45198 0.16932 0.0
C1079 C 0.98436 0.43274 0.17217 0.0
C1080 C 0.98019 0.41688 0.15419 0.0
C1081 C 0.99214 0.42046 0.1334 0.0
C1082 C 0.00803 0.43896 0.13026 0.0
C1083 C 0.01758 0.4394 0.10579 0.0
C1084 C 0.01103 0.4614 0.09343 0.0
C1085 C 0.0446 0.4366 0.10552 0.0
C1086 C 0.00431 0.41849 0.09566 0.0
C1087 C 0.98988 0.4077 0.11192 0.0
C1088 C 0.97541 0.3884 0.10647 0.0
C1089 C 0.9756 0.37994 0.08372 0.0
C1090 C 0.99009 0.39087 0.0667 0.0
C1091 C 0.00473 0.4103 0.07291 0.0
H1092 H 0.85991 0.74049 0.37042 0.0
H1093 H 0.82119 0.79294 0.3364 0.0
H1094 H 0.85347 0.79748 0.30752 0.0
H1095 H 0.9193 0.76558 0.36108 0.0
H1096 H 0.93253 0.73863 0.35528 0.0
H1097 H 0.90735 0.73973 0.37437 0.0
H1098 H 0.88339 0.70969 0.35025 0.0
H1099 H 0.90856 0.70728 0.33134 0.0
H1100 H 0.88004 0.71382 0.31966 0.0
H1101 H 0.88756 0.79311 0.28007 0.0
H1102 H 0.92168 0.78113 0.25669 0.0
H1103 H 0.93906 0.73259 0.3094 0.0
C1104 C 0.85821 0.75297 0.35693 0.0
C1105 C 0.83794 0.76631 0.35556 0.0
C1106 C 0.83662 0.78269 0.33785 0.0
C1107 C 0.85484 0.78535 0.32138 0.0
C1108 C 0.8744 0.77169 0.32306 0.0
C1109 C 0.87628 0.75593 0.34048 0.0
C1110 C 0.89856 0.74256 0.3378 0.0
C1111 C 0.91544 0.74693 0.35835 0.0
C1112 C 0.89225 0.71682 0.33456 0.0
C1113 C 0.90877 0.75301 0.31589 0.0
C1114 C 0.89454 0.76976 0.30765 0.0
C1115 C 0.89909 0.78038 0.28658 0.0
C1116 C 0.91846 0.77346 0.27342 0.0
C1117 C 0.93317 0.75628 0.2815 0.0
C1118 C 0.92851 0.74626 0.30319 0.0
H1119 H 0.62006 0.47526 0.69589 0.0
H1120 H 0.56164 0.42428 0.69787 0.0
H1121 H 0.58207 0.40093 0.66899 0.0
H1122 H 0.62706 0.47467 0.63781 0.0
H1123 H 0.65903 0.47848 0.63739 0.0
H1124 H 0.64252 0.48878 0.6616 0.0
H1125 H 0.66641 0.46418 0.6902 0.0
H1126 H 0.68382 0.45598 0.66569 0.0
H1127 H 0.66966 0.43433 0.68357 0.0
H1128 H 0.60577 0.386 0.63621 0.0
H1129 H 0.62958 0.38177 0.60075 0.0
H1130 H 0.67271 0.44244 0.61979 0.0
C1131 C 0.61199 0.45881 0.69086 0.0
C1132 C 0.58932 0.45153 0.69922 0.0
C1133 C 0.57895 0.43024 0.6916 0.0
C1134 C 0.59053 0.41676 0.67535 0.0
C1135 C 0.61255 0.42475 0.66693 0.0
C1136 C 0.62325 0.44525 0.6745 0.0
C1137 C 0.64538 0.45147 0.66059 0.0
C1138 C 0.64335 0.47471 0.64864 0.0
C1139 C 0.66763 0.45146 0.67592 0.0
C1140 C 0.64478 0.43185 0.64326 0.0
C1141 C 0.62603 0.41635 0.64756 0.0
C1142 C 0.62072 0.39782 0.63283 0.0
C1143 C 0.6344 0.39549 0.61274 0.0
C1144 C 0.65295 0.41181 0.60741 0.0
C1145 C 0.65859 0.42975 0.62333 0.0
H1146 H 0.90302 0.40922 0.99033 0.0
H1147 H 0.95763 0.45903 0.96792 0.0
H1148 H 0.92943 0.48981 0.97271 0.0
H1149 H 0.8523 0.43662 0.96386 0.0
H1150 H 0.83274 0.42949 0.98766 0.0
H1151 H 0.8565 0.41112 0.98031 0.0
H1152 H 0.87245 0.41479 0.02214 0.0
H1153 H 0.84885 0.43321 0.02962 0.0
H1154 H 0.87938 0.44283 0.03425 0.0
H1155 H 0.89701 0.51542 0.98391 0.0
H1156 H 0.86183 0.53423 0.99892 0.0
H1157 H 0.82767 0.46781 0.01353 0.0
C1158 C 0.909 0.42658 0.98625 0.0
C1159 C 0.93257 0.43174 0.97876 0.0
C1160 C 0.93962 0.45464 0.97339 0.0
C1161 C 0.92374 0.47224 0.97616 0.0
C1162 C 0.90081 0.4666 0.98406 0.0
C1163 C 0.89335 0.4443 0.9888 0.0
C1164 C 0.8681 0.44297 0.99803 0.0
C1165 C 0.85142 0.42924 0.98147 0.0
C1166 C 0.86716 0.43286 0.02246 0.0
C1167 C 0.86274 0.46811 0.99835 0.0
C1168 C 0.88186 0.4814 0.99013 0.0
C1169 C 0.88181 0.50519 0.99006 0.0
C1170 C 0.86178 0.5157 0.99873 0.0
C1171 C 0.84198 0.50247 0.00727 0.0
C1172 C 0.84239 0.47834 0.00678 0.0
H1173 H 0.65947 0.52736 0.49786 0.0
H1174 H 0.61989 0.46307 0.51009 0.0
H1175 H 0.58246 0.48145 0.50131 0.0
H1176 H 0.61834 0.56245 0.5248 0.0
H1177 H 0.6223 0.58574 0.5048 0.0
H1178 H 0.64621 0.56704 0.50976 0.0
H1179 H 0.64833 0.55806 0.46593 0.0
H1180 H 0.62438 0.57676 0.46084 0.0
H1181 H 0.62194 0.5474 0.45101 0.0
H1182 H 0.54912 0.50726 0.49348 0.0
H1183 H 0.52226 0.53908 0.48914 0.0
H1184 H 0.58339 0.58661 0.48217 0.0
C1185 C 0.64297 0.51707 0.49834 0.0
C1186 C 0.64262 0.49375 0.50455 0.0
C1187 C 0.6206 0.48097 0.50537 0.0
C1188 C 0.59925 0.49122 0.5003 0.0
C1189 C 0.60016 0.51429 0.49447 0.0
C1190 C 0.62144 0.52709 0.49352 0.0
C1191 C 0.61734 0.55194 0.48834 0.0
C1192 C 0.62659 0.56771 0.50811 0.0
C1193 C 0.62867 0.55895 0.46515 0.0
C1194 C 0.59045 0.55117 0.48701 0.0
C1195 C 0.58089 0.52926 0.49028 0.0
C1196 C 0.5564 0.52447 0.49066 0.0
C1197 C 0.54126 0.54266 0.48805 0.0
C1198 C 0.55067 0.56538 0.48531 0.0
C1199 C 0.57562 0.56948 0.48438 0.0
H1200 H 0.01448 0.07563 0.29554 0.0
H1201 H 0.01961 0.04346 0.22802 0.0
H1202 H 0.02114 0.08156 0.20994 0.0
H1203 H 0.97983 0.12568 0.2778 0.0
H1204 H 0.99642 0.14461 0.29726 0.0
H1205 H 0.99122 0.11485 0.3044 0.0
H1206 H 0.03667 0.11073 0.30908 0.0
H1207 H 0.04197 0.14035 0.30192 0.0
H1208 H 0.05627 0.11857 0.28551 0.0
H1209 H 0.02966 0.12294 0.20002 0.0
H1210 H 0.04291 0.16391 0.19925 0.0
H1211 H 0.03077 0.16884 0.27302 0.0
C1212 C 0.01507 0.0765 0.27689 0.0
C1213 C 0.01676 0.05652 0.26321 0.0
C1214 C 0.01811 0.05851 0.23887 0.0
C1215 C 0.01896 0.0801 0.22843 0.0
C1216 C 0.01821 0.09951 0.24252 0.0
C1217 C 0.01602 0.09788 0.26623 0.0
C1218 C 0.01829 0.12121 0.27776 0.0
C1219 C 0.99505 0.12692 0.29003 0.0
C1220 C 0.03956 0.12279 0.29454 0.0
C1221 C 0.02278 0.13618 0.25693 0.0
C1222 C 0.02256 0.12343 0.23671 0.0
C1223 C 0.02919 0.13321 0.21564 0.0
C1224 C 0.03671 0.15647 0.21534 0.0
C1225 C 0.03738 0.16966 0.23596 0.0
C1226 C 0.02966 0.15944 0.25682 0.0
H1227 H 0.18234 0.79208 0.59179 0.0
H1228 H 0.22998 0.80036 0.53315 0.0
H1229 H 0.19552 0.80566 0.50771 0.0
H1230 H 0.13631 0.75976 0.562 0.0
H1231 H 0.11254 0.7728 0.57743 0.0
H1232 H 0.14106 0.77051 0.59097 0.0
H1233 H 0.14345 0.8144 0.59843 0.0
H1234 H 0.11495 0.81678 0.5848 0.0
H1235 H 0.14043 0.83357 0.57453 0.0
H1236 H 0.15541 0.8108 0.48872 0.0
H1237 H 0.11291 0.81132 0.47744 0.0
H1238 H 0.09215 0.79837 0.54831 0.0
C1239 C 0.18556 0.795 0.5736 0.0
C1240 C 0.20887 0.79584 0.56449 0.0
C1241 C 0.21227 0.79957 0.54054 0.0
C1242 C 0.19282 0.80274 0.52596 0.0
C1243 C 0.17008 0.80202 0.53556 0.0
C1244 C 0.16638 0.798 0.5588 0.0
C1245 C 0.14017 0.79721 0.56473 0.0
C1246 C 0.13205 0.77367 0.57434 0.0
C1247 C 0.13442 0.81665 0.58163 0.0
C1248 C 0.12967 0.80107 0.54117 0.0
C1249 C 0.14716 0.80421 0.52459 0.0
C1250 C 0.14158 0.80826 0.50157 0.0
C1251 C 0.11748 0.80863 0.49531 0.0
C1252 C 0.09937 0.80461 0.51196 0.0
C1253 C 0.10566 0.80113 0.53518 0.0
H1254 H 0.45974 0.93803 0.71568 0.0
H1255 H 0.515 0.94055 0.76783 0.0
H1256 H 0.51756 0.8986 0.76464 0.0
H1257 H 0.42956 0.89431 0.73701 0.0
H1258 H 0.41973 0.87974 0.71087 0.0
H1259 H 0.42659 0.91005 0.71072 0.0
H1260 H 0.45793 0.90657 0.67874 0.0
H1261 H 0.45067 0.87622 0.67706 0.0
H1262 H 0.48102 0.88647 0.68162 0.0
H1263 H 0.50903 0.85644 0.76112 0.0
H1264 H 0.48935 0.81794 0.75879 0.0
H1265 H 0.43843 0.84287 0.71003 0.0
C1266 C 0.47309 0.92992 0.72576 0.0
C1267 C 0.48727 0.94261 0.74192 0.0
C1268 C 0.50405 0.93122 0.75522 0.0
C1269 C 0.50571 0.90739 0.75343 0.0
C1270 C 0.49064 0.89524 0.7381 0.0
C1271 C 0.47482 0.90618 0.72428 0.0
C1272 C 0.45797 0.88916 0.712 0.0
C1273 C 0.43191 0.89355 0.718 0.0
C1274 C 0.46216 0.88963 0.6858 0.0
C1275 C 0.46576 0.867 0.7222 0.0
C1276 C 0.48512 0.87079 0.73663 0.0
C1277 C 0.49419 0.85321 0.74951 0.0
C1278 C 0.48282 0.83137 0.7481 0.0
C1279 C 0.46232 0.82736 0.7342 0.0
C1280 C 0.45421 0.8453 0.72059 0.0
H1281 H 0.31332 0.27669 0.04829 0.0
H1282 H 0.28195 0.20764 0.05333 0.0
H1283 H 0.3127 0.19379 0.0268 0.0
H1284 H 0.32949 0.2742 0.98836 0.0
H1285 H 0.35715 0.2906 0.99221 0.0
H1286 H 0.33252 0.29513 0.01135 0.0
H1287 H 0.359 0.28698 0.04659 0.0
H1288 H 0.38373 0.28257 0.02756 0.0
H1289 H 0.37422 0.26057 0.04759 0.0
H1290 H 0.34662 0.18766 0.99914 0.0
H1291 H 0.38212 0.18922 0.97425 0.0
H1292 H 0.39219 0.2621 0.98868 0.0
C1293 C 0.31285 0.25865 0.0438 0.0
C1294 C 0.29514 0.24326 0.05283 0.0
C1295 C 0.29533 0.21976 0.04665 0.0
C1296 C 0.31269 0.21174 0.03154 0.0
C1297 C 0.32982 0.2274 0.02287 0.0
C1298 C 0.33014 0.25033 0.02891 0.0
C1299 C 0.35081 0.26353 0.01765 0.0
C1300 C 0.34195 0.28195 0.00143 0.0
C1301 C 0.36796 0.27402 0.03594 0.0
C1302 C 0.36203 0.24446 0.00423 0.0
C1303 C 0.34961 0.22378 0.00738 0.0
C1304 C 0.35657 0.20375 0.99668 0.0
C1305 C 0.37693 0.20481 0.98262 0.0
C1306 C 0.39031 0.22576 0.97945 0.0
C1307 C 0.38246 0.24582 0.99038 0.0
H1308 H 0.27535 0.99837 0.18846 0.0
H1309 H 0.34849 0.01024 0.21025 0.0
H1310 H 0.36232 0.00125 0.17077 0.0
H1311 H 0.28622 0.95007 0.15176 0.0
H1312 H 0.26476 0.95725 0.13028 0.0
H1313 H 0.26059 0.96567 0.15994 0.0
H1314 H 0.25808 0.00799 0.14767 0.0
H1315 H 0.26211 0.99969 0.11796 0.0
H1316 H 0.28189 0.02127 0.13094 0.0
H1317 H 0.36799 0.99208 0.12875 0.0
H1318 H 0.36518 0.981 0.08739 0.0
H1319 H 0.28861 0.97246 0.0937 0.0
C1320 C 0.29423 0.99924 0.18474 0.0
C1321 C 0.31092 0.00506 0.20218 0.0
C1322 C 0.33552 0.0057 0.197 0.0
C1323 C 0.34349 1.00071 0.17468 0.0
C1324 C 0.3266 0.9948 0.15786 0.0
C1325 C 0.30249 0.99385 0.16265 0.0
C1326 C 0.28813 0.98618 0.14167 0.0
C1327 C 0.2741 0.96344 0.14619 0.0
C1328 C 0.27158 0.0049 0.13411 0.0
C1329 C 0.30791 0.98309 0.12434 0.0
C1330 C 0.32996 0.98838 0.13396 0.0
C1331 C 0.35086 0.98768 0.12107 0.0
C1332 C 0.34914 0.98143 0.09769 0.0
C1333 C 0.32677 0.97562 0.08765 0.0
C1334 C 0.30595 0.97636 0.10119 0.0
H1335 H 0.22627 0.02101 0.44796 0.0
H1336 H 0.26711 0.95996 0.44363 0.0
H1337 H 0.28627 0.97465 0.40789 0.0
H1338 H 0.21334 0.0238 0.38999 0.0
H1339 H 0.21508 0.0546 0.38863 0.0
H1340 H 0.20751 0.04075 0.41538 0.0
H1341 H 0.24251 0.06344 0.43547 0.0
H1342 H 0.2503 0.07717 0.4086 0.0
H1343 H 0.27219 0.06178 0.424 0.0
H1344 H 0.29718 0.9938 0.37047 0.0
H1345 H 0.29788 0.01484 0.33379 0.0
H1346 H 0.24982 0.06338 0.36288 0.0
C1347 C 0.23964 0.01089 0.43985 0.0
C1348 C 0.24531 0.98936 0.44868 0.0
C1349 C 0.26258 0.97654 0.43724 0.0
C1350 C 0.27363 0.98481 0.41701 0.0
C1351 C 0.2673 0.00596 0.4086 0.0
C1352 C 0.25073 0.01884 0.41972 0.0
C1353 C 0.24526 0.03989 0.40608 0.0
C1354 C 0.21873 0.03973 0.39964 0.0
C1355 C 0.25304 0.06187 0.41933 0.0
C1356 C 0.26069 0.03648 0.38506 0.0
C1357 C 0.27356 0.01701 0.387 0.0
C1358 C 0.2875 0.00926 0.36893 0.0
C1359 C 0.28774 0.02133 0.34814 0.0
C1360 C 0.274 0.04084 0.34553 0.0
C1361 C 0.26089 0.04883 0.3645 0.0
H1362 H 0.24973 0.98265 0.69977 0.0
H1363 H 0.22958 0.05279 0.70954 0.0
H1364 H 0.22134 0.05525 0.66766 0.0
H1365 H 0.27839 0.98902 0.64571 0.0
H1366 H 0.26738 0.96132 0.63545 0.0
H1367 H 0.2717 0.96638 0.66587 0.0
H1368 H 0.22608 0.95414 0.67337 0.0
H1369 H 0.2241 0.94807 0.64288 0.0
H1370 H 0.20397 0.96724 0.6564 0.0
H1371 H 0.21453 0.04896 0.62382 0.0
H1372 H 0.21179 0.03513 0.58317 0.0
H1373 H 0.23609 0.9693 0.60423 0.0
C1374 C 0.24329 0.9985 0.69336 0.0
C1375 C 0.24018 0.01747 0.70812 0.0
C1376 C 0.23228 0.03804 0.69861 0.0
C1377 C 0.22741 0.03955 0.67485 0.0
C1378 C 0.23052 0.02033 0.66089 0.0
C1379 C 0.23828 1.00024 0.66993 0.0
C1380 C 0.24026 0.9819 0.65164 0.0
C1381 C 0.26595 0.9742 0.64955 0.0
C1382 C 0.22257 0.96161 0.65632 0.0
C1383 C 0.23302 0.99487 0.63068 0.0
C1384 C 0.22709 0.01692 0.6362 0.0
C1385 C 0.21922 0.03173 0.61938 0.0
C1386 C 0.2176 0.02373 0.59641 0.0
C1387 C 0.22401 0.00125 0.59056 0.0
C1388 C 0.2316 0.98673 0.60805 0.0
H1389 H 0.24416 0.01604 0.8495 0.0
H1390 H 0.20548 0.95238 0.86586 0.0
H1391 H 0.21116 0.96064 0.90736 0.0
H1392 H 0.28774 0.00982 0.88435 0.0
H1393 H 0.29327 0.03915 0.89349 0.0
H1394 H 0.27915 0.03298 0.86633 0.0
H1395 H 0.24301 0.05618 0.87857 0.0
H1396 H 0.2572 0.0628 0.90588 0.0
H1397 H 0.22764 0.04952 0.90517 0.0
H1398 H 0.23004 0.96997 0.94498 0.0
H1399 H 0.2603 0.97902 0.97467 0.0
H1400 H 0.28764 0.03646 0.93418 0.0
C1401 C 0.23596 0.00434 0.86185 0.0
C1402 C 0.22444 0.98356 0.85449 0.0
C1403 C 0.21422 0.9685 0.8711 0.0
C1404 C 0.21731 0.97311 0.89475 0.0
C1405 C 0.23025 0.99304 0.90145 0.0
C1406 C 0.23903 0.00867 0.88543 0.0
C1407 C 0.256 0.02645 0.89644 0.0
C1408 C 0.28049 0.02714 0.88444 0.0
C1409 C 0.24531 0.05014 0.89652 0.0
C1410 C 0.25725 0.0171 0.92062 0.0
C1411 C 0.24156 0.99838 0.92345 0.0
C1412 C 0.24188 0.98498 0.9432 0.0
C1413 C 0.25927 0.9902 0.95995 0.0
C1414 C 0.27639 0.00845 0.95669 0.0
C1415 C 0.27457 0.02265 0.93731 0.0
H1416 H 0.06693 0.29677 0.98837 0.0
H1417 H 0.06739 0.35956 0.02881 0.0
H1418 H 0.10493 0.3494 0.0473 0.0
H1419 H 0.08672 0.2619 0.03255 0.0
H1420 H 0.10476 0.24464 0.01422 0.0
H1421 H 0.07932 0.25792 0.00247 0.0
H1422 H 0.10606 0.27775 0.9714 0.0
H1423 H 0.13161 0.26445 0.98302 0.0
H1424 H 0.13183 0.29513 0.98019 0.0
H1425 H 0.14104 0.33133 0.06299 0.0
H1426 H 0.17214 0.30604 0.07586 0.0
H1427 H 0.14812 0.25485 0.02531 0.0
C1428 C 0.07523 0.3086 0.00073 0.0
C1429 C 0.06434 0.32901 0.00709 0.0
C1430 C 0.0754 0.34379 0.0238 0.0
C1431 C 0.09678 0.33823 0.03427 0.0
C1432 C 0.10687 0.31781 0.02785 0.0
C1433 C 0.09647 0.30321 0.01148 0.0
C1434 C 0.11006 0.28158 0.00884 0.0
C1435 C 0.09427 0.26026 0.01489 0.0
C1436 C 0.12051 0.27962 0.98441 0.0
C1437 C 0.12945 0.2861 0.02662 0.0
C1438 C 0.12749 0.30722 0.03716 0.0
C1439 C 0.14291 0.31486 0.05468 0.0
C1440 C 0.16063 0.3004 0.06179 0.0
C1441 C 0.16268 0.27847 0.05155 0.0
C1442 C 0.14698 0.27145 0.03354 0.0
H1443 H 0.62341 0.28453 0.90474 0.0
H1444 H 0.65516 0.29125 0.97278 0.0
H1445 H 0.61749 0.27611 0.99018 0.0
H1446 H 0.56122 0.29731 0.92193 0.0
H1447 H 0.54938 0.2765 0.90131 0.0
H1448 H 0.57737 0.29176 0.8958 0.0
H1449 H 0.59665 0.25221 0.89039 0.0
H1450 H 0.56875 0.23744 0.89702 0.0
H1451 H 0.59486 0.23199 0.91367 0.0
H1452 H 0.57731 0.25727 0.99974 0.0
H1453 H 0.53837 0.23587 0.00068 0.0
H1454 H 0.53418 0.23971 0.92604 0.0
C1455 C 0.62224 0.28356 0.92337 0.0
C1456 C 0.64212 0.28942 0.93746 0.0
C1457 C 0.64006 0.28712 0.9617 0.0
C1458 C 0.61875 0.27852 0.97172 0.0
C1459 C 0.59973 0.2722 0.95724 0.0
C1460 C 0.60128 0.27472 0.93358 0.0
C1461 C 0.57916 0.26481 0.92163 0.0
C1462 C 0.566 0.28371 0.90944 0.0
C1463 C 0.58522 0.24547 0.90469 0.0
C1464 C 0.56516 0.25572 0.94219 0.0
C1465 C 0.57711 0.26051 0.96262 0.0
C1466 C 0.56775 0.25356 0.98386 0.0
C1467 C 0.54562 0.24139 0.98422 0.0
C1468 C 0.53325 0.23603 0.96345 0.0
C1469 C 0.54322 0.24343 0.94222 0.0
H1470 H 0.04173 0.31368 0.26027 0.0
H1471 H 0.03685 0.30663 0.33467 0.0
H1472 H 0.02514 0.3465 0.33819 0.0
H1473 H 0.06603 0.37296 0.26113 0.0
H1474 H 0.04959 0.38081 0.23599 0.0
H1475 H 0.0583 0.35177 0.23926 0.0
H1476 H 0.01434 0.33726 0.23465 0.0
H1477 H 0.0055 0.36626 0.23155 0.0
H1478 H 0.99206 0.34831 0.25357 0.0
H1479 H 0.01212 0.38632 0.33378 0.0
H1480 H 1.00032 0.42433 0.32188 0.0
H1481 H 0.01527 0.40671 0.25041 0.0
C1482 C 0.03854 0.32061 0.27731 0.0
C1483 C 0.04002 0.30683 0.29717 0.0
C1484 C 0.03542 0.31659 0.31915 0.0
C1485 C 0.02889 0.33931 0.32136 0.0
C1486 C 0.02715 0.35224 0.30146 0.0
C1487 C 0.03202 0.34337 0.27987 0.0
C1488 C 0.0285 0.36101 0.26129 0.0
C1489 C 0.05201 0.36699 0.24868 0.0
C1490 C 0.00893 0.35271 0.24426 0.0
C1491 C 0.02066 0.38101 0.27585 0.0
C1492 C 0.02002 0.37554 0.29896 0.0
C1493 C 0.01282 0.39094 0.31574 0.0
C1494 C 0.00623 0.41262 0.30876 0.0
C1495 C 0.00697 0.41889 0.28517 0.0
C1496 C 0.01429 0.40267 0.26856 0.0
H1497 H 0.95753 0.77902 0.45053 0.0
H1498 H 0.9411 0.78929 0.52303 0.0
H1499 H 0.90383 0.76568 0.5182 0.0
H1500 H 0.89937 0.7842 0.43096 0.0
H1501 H 0.90037 0.76296 0.40837 0.0
H1502 H 0.92726 0.77844 0.41722 0.0
H1503 H 0.94774 0.74104 0.42613 0.0
H1504 H 0.92153 0.72484 0.41649 0.0
H1505 H 0.93332 0.72021 0.44488 0.0
H1506 H 0.86657 0.74392 0.50454 0.0
H1507 H 0.8327 0.7254 0.48309 0.0
H1508 H 0.87446 0.72827 0.42012 0.0
C1509 C 0.94631 0.77603 0.46551 0.0
C1510 C 0.95231 0.78594 0.4872 0.0
C1511 C 0.93692 0.78184 0.50625 0.0
C1512 C 0.91574 0.7684 0.5037 0.0
C1513 C 0.91026 0.75908 0.48202 0.0
C1514 C 0.92517 0.76266 0.46327 0.0
C1515 C 0.91452 0.75201 0.44151 0.0
C1516 C 0.91014 0.77049 0.42345 0.0
C1517 C 0.93022 0.73341 0.43168 0.0
C1518 C 0.89135 0.74176 0.45093 0.0
C1519 C 0.88911 0.74611 0.4743 0.0
C1520 C 0.86831 0.74002 0.48633 0.0
C1521 C 0.8492 0.72951 0.47406 0.0
C1522 C 0.85119 0.72496 0.45012 0.0
C1523 C 0.8727 0.73084 0.43858 0.0
H1524 H 0.35898 0.77146 0.51783 0.0
H1525 H 0.37053 0.77517 0.59186 0.0
H1526 H 0.40418 0.74995 0.58767 0.0
H1527 H 0.37061 0.71362 0.51056 0.0
H1528 H 0.38566 0.717 0.48324 0.0
H1529 H 0.36354 0.73668 0.49171 0.0
H1530 H 0.39403 0.77086 0.48648 0.0
H1531 H 0.4162 0.7513 0.47771 0.0
H1532 H 0.42211 0.77098 0.50137 0.0
H1533 H 0.43476 0.72213 0.57572 0.0
H1534 H 0.4609 0.69505 0.55687 0.0
H1535 H 0.43043 0.71081 0.49038 0.0
C1536 C 0.36889 0.76751 0.53313 0.0
C1537 C 0.36198 0.77537 0.5552 0.0
C1538 C 0.37524 0.76922 0.57479 0.0
C1539 C 0.39448 0.75497 0.57258 0.0
C1540 C 0.40043 0.74714 0.55064 0.0
C1541 C 0.38818 0.75336 0.53123 0.0
C1542 C 0.39761 0.74193 0.50973 0.0
C1543 C 0.3782 0.72638 0.49814 0.0
C1544 C 0.40812 0.75984 0.49283 0.0
C1545 C 0.41685 0.72803 0.52013 0.0
C1546 C 0.41823 0.73131 0.54373 0.0
C1547 C 0.43408 0.71968 0.55719 0.0
C1548 C 0.44898 0.70435 0.54624 0.0
C1549 C 0.44803 0.70075 0.52199 0.0
C1550 C 0.43168 0.71291 0.50889 0.0
H1551 H 0.02869 0.90885 0.25197 0.0
H1552 H 0.08391 0.9202 0.20037 0.0
H1553 H 0.07633 0.88069 0.18577 0.0
H1554 H 0.04078 0.84882 0.26353 0.0
H1555 H 0.00965 0.84114 0.26746 0.0
H1556 H 0.02096 0.86974 0.27435 0.0
H1557 H 0.98947 0.88575 0.24686 0.0
H1558 H 0.97871 0.85714 0.23955 0.0
H1559 H 0.98864 0.87649 0.2171 0.0
H1560 H 0.06125 0.84057 0.17559 0.0
H1561 H 0.04047 0.80269 0.17107 0.0
H1562 H 0.99524 0.81778 0.22949 0.0
C1563 C 0.03961 0.90298 0.23794 0.0
C1564 C 0.057 0.91774 0.22737 0.0
C1565 C 0.07039 0.90934 0.20864 0.0
C1566 C 0.06629 0.88687 0.2003 0.0
C1567 C 0.04879 0.87295 0.21093 0.0
C1568 C 0.03577 0.88065 0.22944 0.0
C1569 C 0.01743 0.86256 0.23732 0.0
C1570 C 0.02251 0.85512 0.26214 0.0
C1571 C 0.99207 0.87099 0.23506 0.0
C1572 C 0.02191 0.84358 0.2201 0.0
C1573 C 0.04013 0.84988 0.2051 0.0
C1574 C 0.04703 0.83542 0.18731 0.0
C1575 C 0.03498 0.81398 0.18477 0.0
C1576 C 0.01617 0.80716 0.1999 0.0
C1577 C 0.00973 0.82224 0.21784 0.0
H1578 H 0.48153 0.07856 0.67371 0.0
H1579 H 0.42087 0.08769 0.71848 0.0
H1580 H 0.4278 0.12973 0.71633 0.0
H1581 H 0.51792 0.12085 0.69884 0.0
H1582 H 0.5322 0.13044 0.67256 0.0
H1583 H 0.52039 0.10142 0.6747 0.0
H1584 H 0.49458 0.1068 0.63835 0.0
H1585 H 0.50645 0.13587 0.63597 0.0
H1586 H 0.47475 0.13009 0.63747 0.0
H1587 H 0.44374 0.17021 0.71251 0.0
H1588 H 0.46768 0.2063 0.7077 0.0
H1589 H 0.51849 0.17059 0.66602 0.0
C1590 C 0.4692 0.08942 0.68238 0.0
C1591 C 0.45044 0.07994 0.69602 0.0
C1592 C 0.43525 0.09469 0.70787 0.0
C1593 C 0.439 0.11853 0.70666 0.0
C1594 C 0.45802 0.12731 0.6935 0.0
C1595 C 0.47282 0.11321 0.68149 0.0
C1596 C 0.49331 0.12682 0.67043 0.0
C1597 C 0.51737 0.11944 0.6797 0.0
C1598 C 0.49219 0.12477 0.64398 0.0
C1599 C 0.48805 0.15074 0.67854 0.0
C1600 C 0.46747 0.15067 0.6916 0.0
C1601 C 0.45974 0.17051 0.70211 0.0
C1602 C 0.47355 0.19089 0.69943 0.0
C1603 C 0.49496 0.19128 0.68649 0.0
C1604 C 0.50201 0.17095 0.67563 0.0
H1605 H 0.50571 0.32734 0.69652 0.0
H1606 H 0.47543 0.32239 0.76531 0.0
H1607 H 0.46196 0.36191 0.76204 0.0
H1608 H 0.53003 0.38231 0.70338 0.0
H1609 H 0.52522 0.39045 0.67395 0.0
H1610 H 0.52841 0.36085 0.68076 0.0
H1611 H 0.48748 0.35124 0.66097 0.0
H1612 H 0.48427 0.38114 0.65502 0.0
H1613 H 0.4615 0.36531 0.67094 0.0
H1614 H 0.45732 0.40351 0.75363 0.0
H1615 H 0.46339 0.44377 0.74169 0.0
H1616 H 0.49705 0.42148 0.67849 0.0
C1617 C 0.4955 0.33421 0.71062 0.0
C1618 C 0.49127 0.32161 0.73106 0.0
C1619 C 0.47861 0.33161 0.7494 0.0
C1620 C 0.47084 0.35402 0.74765 0.0
C1621 C 0.4759 0.36619 0.72747 0.0
C1622 C 0.48795 0.35659 0.70927 0.0
C1623 C 0.4939 0.37404 0.69072 0.0
C1624 C 0.52098 0.37706 0.687 0.0
C1625 C 0.48101 0.36754 0.66807 0.0
C1626 C 0.484 0.3952 0.70162 0.0
C1627 C 0.47335 0.39026 0.72265 0.0
C1628 C 0.46517 0.40748 0.73699 0.0
C1629 C 0.4687 0.43032 0.73006 0.0
C1630 C 0.48047 0.43578 0.70903 0.0
C1631 C 0.48743 0.41787 0.69434 0.0
H1632 H 0.79278 0.29469 0.99465 0.0
H1633 H 0.80862 0.27061 0.92564 0.0
H1634 H 0.85148 0.28019 0.93218 0.0
H1635 H 0.8337 0.34277 0.99367 0.0
H1636 H 0.84162 0.34098 0.0237 0.0
H1637 H 0.81268 0.33049 0.01413 0.0
H1638 H 0.82007 0.29082 0.03164 0.0
H1639 H 0.8491 0.30118 0.04119 0.0
H1640 H 0.84606 0.27597 0.02309 0.0
H1641 H 0.89244 0.29303 0.94622 0.0
H1642 H 0.92786 0.31126 0.96509 0.0
H1643 H 0.88476 0.32852 0.02442 0.0
C1644 C 0.80535 0.2911 0.98109 0.0
C1645 C 0.79754 0.28166 0.95973 0.0
C1646 C 0.81436 0.2778 0.94211 0.0
C1647 C 0.83868 0.28306 0.94573 0.0
C1648 C 0.8458 0.29239 0.96701 0.0
C1649 C 0.82959 0.29659 0.9843 0.0
C1650 C 0.84159 0.30823 0.00496 0.0
C1651 C 0.83182 0.33202 0.00936 0.0
C1652 C 0.83905 0.29314 0.02649 0.0
C1653 C 0.86709 0.31003 0.99656 0.0
C1654 C 0.86921 0.30052 0.97476 0.0
C1655 C 0.89099 0.30048 0.96331 0.0
C1656 C 0.91104 0.31083 0.97422 0.0
C1657 C 0.90912 0.32133 0.99626 0.0
C1658 C 0.88686 0.3206 0.00762 0.0
H1659 H 0.98674 0.66515 0.20845 0.0
H1660 H 0.99679 0.66876 0.28249 0.0
H1661 H 0.01063 0.6291 0.28199 0.0
H1662 H 0.96056 0.61007 0.20918 0.0
H1663 H 0.97238 0.60126 0.18176 0.0
H1664 H 0.96781 0.63104 0.18738 0.0
H1665 H 0.01215 0.64102 0.17786 0.0
H1666 H 0.01687 0.61119 0.17228 0.0
H1667 H 0.03508 0.6269 0.19314 0.0
H1668 H 0.02006 0.58821 0.27376 0.0
H1669 H 0.01998 0.54828 0.25972 0.0
H1670 H 1.00075 0.57058 0.19128 0.0
C1671 C 0.99271 0.65783 0.22441 0.0
C1672 C 0.99153 0.67011 0.24544 0.0
C1673 C 0.99817 0.65968 0.26619 0.0
C1674 C 0.00606 0.63724 0.26601 0.0
C1675 C 0.0067 0.62539 0.24499 0.0
C1676 C 0.99992 0.63526 0.2246 0.0
C1677 C 0.99883 0.61792 0.20496 0.0
C1678 C 0.9734 0.6149 0.19526 0.0
C1679 C 0.01681 0.62467 0.18594 0.0
C1680 C 0.00596 0.59669 0.21748 0.0
C1681 C 0.01083 0.60145 0.24045 0.0
C1682 C 0.01649 0.58433 0.25576 0.0
C1683 C 0.01645 0.56166 0.24758 0.0
C1684 C 0.01044 0.55621 0.22434 0.0
C1685 C 0.00578 0.57414 0.20903 0.0
H1686 H 0.60928 0.68915 0.52494 0.0
H1687 H 0.57118 0.6753 0.46084 0.0
H1688 H 0.60577 0.69075 0.43887 0.0
H1689 H 0.6392 0.74283 0.50635 0.0
H1690 H 0.66628 0.73749 0.52151 0.0
H1691 H 0.63815 0.72608 0.53232 0.0
H1692 H 0.65417 0.68526 0.53163 0.0
H1693 H 0.6823 0.69651 0.52077 0.0
H1694 H 0.66604 0.67404 0.50514 0.0
H1695 H 0.64554 0.7049 0.42366 0.0
H1696 H 0.68695 0.71937 0.41655 0.0
H1697 H 0.69857 0.72568 0.49028 0.0
C1698 C 0.60813 0.68956 0.5063 0.0
C1699 C 0.5875 0.68099 0.49464 0.0
C1700 C 0.58673 0.68185 0.4702 0.0
C1701 C 0.60632 0.69056 0.45753 0.0
C1702 C 0.62647 0.69861 0.46952 0.0
C1703 C 0.62744 0.69846 0.49336 0.0
C1704 C 0.65136 0.70796 0.50198 0.0
C1705 C 0.64857 0.7299 0.51639 0.0
C1706 C 0.66422 0.68986 0.51568 0.0
C1707 C 0.66378 0.71312 0.47926 0.0
C1708 C 0.64914 0.70751 0.46074 0.0
C1709 C 0.65707 0.70963 0.43801 0.0
C1710 C 0.68058 0.71774 0.43412 0.0
C1711 C 0.69578 0.72384 0.45284 0.0
C1712 C 0.68715 0.72159 0.47566 0.0
H1713 H 0.75383 0.42488 0.44102 0.0
H1714 H 0.67872 0.43834 0.43991 0.0
H1715 H 0.68156 0.44673 0.39833 0.0
H1716 H 0.77259 0.46913 0.40425 0.0
H1717 H 0.79509 0.45347 0.38966 0.0
H1718 H 0.78673 0.4463 0.41878 0.0
H1719 H 0.77697 0.40428 0.4061 0.0
H1720 H 0.78539 0.41132 0.37689 0.0
H1721 H 0.75633 0.39839 0.3828 0.0
H1722 H 0.6932 0.45692 0.35794 0.0
H1723 H 0.71287 0.46786 0.32124 0.0
H1724 H 0.78028 0.44725 0.34821 0.0
C1725 C 0.73786 0.42903 0.43192 0.0
C1726 C 0.71603 0.43095 0.44376 0.0
C1727 C 0.69567 0.43699 0.43129 0.0
C1728 C 0.69707 0.44162 0.40762 0.0
C1729 C 0.71894 0.44001 0.3966 0.0
C1730 C 0.73896 0.43374 0.40828 0.0
C1731 C 0.76062 0.43466 0.39265 0.0
C1732 C 0.77988 0.45192 0.40189 0.0
C1733 C 0.7704 0.41073 0.38942 0.0
C1734 C 0.74974 0.44292 0.37052 0.0
C1735 C 0.72564 0.44574 0.37314 0.0
C1736 C 0.71199 0.45451 0.35558 0.0
C1737 C 0.72332 0.46078 0.33486 0.0
C1738 C 0.74803 0.45828 0.33186 0.0
C1739 C 0.76128 0.44889 0.34985 0.0
H1740 H 0.73343 0.45295 0.58686 0.0
H1741 H 0.71434 0.52371 0.58278 0.0
H1742 H 0.73137 0.53117 0.62162 0.0
H1743 H 0.71394 0.44507 0.64042 0.0
H1744 H 0.73624 0.42647 0.65051 0.0
H1745 H 0.72947 0.42756 0.62027 0.0
H1746 H 0.77315 0.43822 0.61013 0.0
H1747 H 0.78079 0.43639 0.64024 0.0
H1748 H 0.78839 0.46214 0.62448 0.0
H1749 H 0.74519 0.52959 0.66249 0.0
H1750 H 0.75106 0.51869 0.70298 0.0
H1751 H 0.75803 0.44803 0.6814 0.0
C1752 C 0.73389 0.47027 0.59369 0.0
C1753 C 0.7232 0.48796 0.58164 0.0
C1754 C 0.72291 0.5101 0.59161 0.0
C1755 C 0.7326 0.51447 0.61361 0.0
C1756 C 0.74228 0.49644 0.62543 0.0
C1757 C 0.74297 0.47474 0.6158 0.0
C1758 C 0.75057 0.45748 0.63334 0.0
C1759 C 0.73142 0.43801 0.63633 0.0
C1760 C 0.77466 0.44801 0.62665 0.0
C1761 C 0.75284 0.47261 0.65466 0.0
C1762 C 0.74883 0.49515 0.64954 0.0
C1763 C 0.7487 0.51206 0.66664 0.0
C1764 C 0.75208 0.50569 0.68962 0.0
C1765 C 0.75502 0.48249 0.69538 0.0
C1766 C 0.75601 0.46592 0.67754 0.0
H1767 H 0.78787 0.58815 0.93588 0.0
H1768 H 0.73559 0.54401 0.97077 0.0
H1769 H 0.72028 0.52977 0.93301 0.0
H1770 H 0.7512 0.60164 0.88535 0.0
H1771 H 0.77604 0.60057 0.86574 0.0
H1772 H 0.78086 0.60926 0.89536 0.0
H1773 H 0.81115 0.57759 0.89997 0.0
H1774 H 0.80637 0.56878 0.87045 0.0
H1775 H 0.80211 0.54828 0.8933 0.0
H1776 H 0.71253 0.51857 0.89166 0.0
H1777 H 0.71359 0.51026 0.84992 0.0
H1778 H 0.77235 0.56051 0.84221 0.0
C1779 C 0.77278 0.57597 0.93549 0.0
C1780 C 0.76266 0.56734 0.95615 0.0
C1781 C 0.74347 0.55083 0.95507 0.0
C1782 C 0.73463 0.54274 0.93374 0.0
C1783 C 0.74529 0.55127 0.91367 0.0
C1784 C 0.76397 0.5675 0.91435 0.0
C1785 C 0.77359 0.57241 0.89038 0.0
C1786 C 0.77021 0.59746 0.88382 0.0
C1787 C 0.79986 0.5664 0.88842 0.0
C1788 C 0.75766 0.55615 0.87616 0.0
C1789 C 0.74128 0.54433 0.88988 0.0
C1790 C 0.72523 0.5278 0.88073 0.0
C1791 C 0.72611 0.52307 0.85697 0.0
C1792 C 0.74311 0.53463 0.84259 0.0
C1793 C 0.75886 0.55158 0.85246 0.0
H1794 H 0.75529 0.48994 0.19708 0.0
H1795 H 0.70878 0.54689 0.20054 0.0
H1796 H 0.70738 0.54763 0.158 0.0
H1797 H 0.79034 0.51114 0.15792 0.0
H1798 H 0.79648 0.48549 0.14172 0.0
H1799 H 0.78782 0.48351 0.17144 0.0
H1800 H 0.75213 0.45598 0.16145 0.0
H1801 H 0.76092 0.4568 0.13151 0.0
H1802 H 0.73119 0.46374 0.13972 0.0
H1803 H 0.71801 0.54781 0.1162 0.0
H1804 H 0.74051 0.54848 0.0797 0.0
H1805 H 0.78154 0.49239 0.10351 0.0
C1806 C 0.74398 0.50194 0.18892 0.0
C1807 C 0.73213 0.51834 0.20216 0.0
C1808 C 0.71789 0.53405 0.1908 0.0
C1809 C 0.71691 0.53452 0.16659 0.0
C1810 C 0.72995 0.51894 0.154 0.0
C1811 C 0.74292 0.50266 0.16483 0.0
C1812 C 0.7586 0.49051 0.14784 0.0
C1813 C 0.78487 0.49281 0.15515 0.0
C1814 C 0.7502 0.46526 0.14496 0.0
C1815 C 0.75404 0.50382 0.12615 0.0
C1816 C 0.73674 0.5195 0.12981 0.0
C1817 C 0.73117 0.53525 0.11299 0.0
C1818 C 0.74413 0.53552 0.09228 0.0
C1819 C 0.76285 0.52048 0.08872 0.0
C1820 C 0.76718 0.50392 0.10559 0.0
H1821 H 0.49683 0.68195 0.76103 0.0
H1822 H 0.43041 0.67895 0.79898 0.0
H1823 H 0.43233 0.63673 0.80172 0.0
H1824 H 0.48442 0.6307 0.72758 0.0
H1825 H 0.51483 0.62234 0.72767 0.0
H1826 H 0.50842 0.65218 0.72953 0.0
H1827 H 0.53296 0.65627 0.76728 0.0
H1828 H 0.53938 0.62642 0.76558 0.0
H1829 H 0.52567 0.63766 0.79116 0.0
H1830 H 0.44253 0.59495 0.80117 0.0
H1831 H 0.45795 0.55654 0.79412 0.0
H1832 H 0.51659 0.58713 0.75478 0.0
C1833 C 0.48282 0.67237 0.77007 0.0
C1834 C 0.4636 0.68356 0.78006 0.0
C1835 C 0.44525 0.67054 0.79127 0.0
C1836 C 0.44628 0.64666 0.79298 0.0
C1837 C 0.46562 0.63615 0.78306 0.0
C1838 C 0.48338 0.64858 0.77155 0.0
C1839 C 0.50169 0.63317 0.76149 0.0
C1840 C 0.50237 0.63469 0.735 0.0
C1841 C 0.52638 0.63871 0.77202 0.0
C1842 C 0.49159 0.61009 0.76928 0.0
C1843 C 0.47092 0.61216 0.78191 0.0
C1844 C 0.45865 0.59314 0.79123 0.0
C1845 C 0.46759 0.57144 0.78729 0.0
C1846 C 0.48841 0.56896 0.7739 0.0
C1847 C 0.50053 0.58858 0.7649 0.0
loop_
_geom_bond_atom_site_label_1
_geom_bond_atom_site_label_2
_geom_bond_distance
_geom_bond_site_symmetry_2
_ccdc_geom_bond_type
Cu0 N1 1.999 . S
Cu0 O6 1.974 . S
Cu0 N11 1.985 . S
Cu0 O20 1.959 . S
N1 Cu0 1.999 . S
N1 C3 1.263 . S
N1 C5 1.389 . S
N2 C3 1.358 . S
N2 C4 1.400 . S
C3 N1 1.263 . S
C3 N2 1.358 . S
C3 H9 0.930 . S
C4 N2 1.400 . S
C4 C5 1.351 . S
C4 H21 0.930 . S
C5 N1 1.389 . S
C5 C4 1.351 . S
C5 H10 0.930 . S
O6 Cu0 1.974 . S
O6 C16 1.282 . S
C7 O8 1.261 . S
C7 O20 1.251 . S
O8 C7 1.261 . S
H9 C3 0.930 . S
H10 C5 0.930 . S
N11 Cu0 1.985 . S
N11 C13 1.335 . S
N11 C14 1.390 . S
N12 C13 1.345 . S
N12 C15 1.336 . S
C13 N11 1.335 . S
C13 N12 1.345 . S
C13 H18 0.930 . S
C14 N11 1.390 . S
C14 C15 1.346 . S
C14 H19 0.930 . S
C15 N12 1.336 . S
C15 C14 1.346 . S
C15 H22 0.929 . S
C16 O6 1.282 . S
C16 O17 1.216 . S
O17 C16 1.216 . S
H18 C13 0.930 . S
H19 C14 0.930 . S
O20 Cu0 1.959 . S
O20 C7 1.251 . S
H21 C4 0.930 . S
H22 C15 0.929 . S
Cu23 N24 1.989 1_455 S
Cu23 O29 1.974 1_455 S
Cu23 N34 1.985 . S
Cu23 O43 1.959 . S
N24 Cu23 1.989 1_655 S
N24 C26 1.304 . S
N24 C28 1.360 1_655 S
N25 C26 1.358 . S
N25 C27 1.400 1_655 S
C26 N24 1.304 . S
C26 N25 1.358 . S
C26 H32 0.930 . S
C27 N25 1.400 1_455 S
C27 C28 1.351 . S
C27 H44 0.930 . S
C28 N24 1.360 1_455 S
C28 C27 1.351 . S
C28 H33 0.930 . S
O29 Cu23 1.974 1_655 S
O29 C39 1.282 . S
C30 O31 1.261 . S
C30 O43 1.251 . S
O31 C30 1.261 . S
H32 C26 0.930 . S
H33 C28 0.930 . S
N34 Cu23 1.985 . S
N34 C36 1.335 . S
N34 C37 1.390 1_455 S
N35 C36 1.345 . S
N35 C38 1.336 . S
C36 N34 1.335 . S
C36 N35 1.345 . S
C36 H41 0.930 . S
C37 N34 1.390 1_655 S
C37 C38 1.346 1_655 S
C37 H42 0.930 . S
C38 N35 1.336 . S
C38 C37 1.346 1_455 S
C38 H45 0.929 1_455 S
C39 O29 1.282 . S
C39 O40 1.216 . S
O40 C39 1.216 . S
H41 C36 0.930 . S
H42 C37 0.930 . S
O43 Cu23 1.959 . S
O43 C30 1.251 . S
H44 C27 0.930 . S
H45 C38 0.929 1_655 S
Cu46 N47 1.999 . S
Cu46 O52 1.974 . S
Cu46 N57 1.985 . S
Cu46 O66 1.959 . S
N47 Cu46 1.999 . S
N47 C49 1.263 . S
N47 C51 1.389 . S
N48 C49 1.358 . S
N48 C50 1.400 . S
C49 N47 1.263 . S
C49 N48 1.358 . S
C49 H55 0.930 . S
C50 N48 1.400 . S
C50 C51 1.351 . S
C50 H67 0.930 . S
C51 N47 1.389 . S
C51 C50 1.351 . S
C51 H56 0.930 . S
O52 Cu46 1.974 . S
O52 C62 1.282 . S
C53 O54 1.261 . S
C53 O66 1.251 . S
O54 C53 1.261 . S
H55 C49 0.930 . S
H56 C51 0.930 . S
N57 Cu46 1.985 . S
N57 C59 1.335 . S
N57 C60 1.390 . S
N58 C59 1.345 . S
N58 C61 1.336 . S
C59 N57 1.335 . S
C59 N58 1.345 . S
C59 H64 0.930 . S
C60 N57 1.390 . S
C60 C61 1.346 . S
C60 H65 0.930 . S
C61 N58 1.336 . S
C61 C60 1.346 . S
C61 H68 0.929 . S
C62 O52 1.282 . S
C62 O63 1.216 . S
O63 C62 1.216 . S
H64 C59 0.930 . S
H65 C60 0.930 . S
O66 Cu46 1.959 . S
O66 C53 1.251 . S
H67 C50 0.930 . S
H68 C61 0.929 . S
Cu69 N70 1.999 . S
Cu69 O75 1.974 . S
Cu69 N80 1.985 1_556 S
Cu69 O89 1.959 . S
N70 Cu69 1.999 . S
N70 C72 1.263 . S
N70 C74 1.389 . S
N71 C72 1.358 . S
N71 C73 1.400 . S
C72 N70 1.263 . S
C72 N71 1.358 . S
C72 H78 0.930 . S
C73 N71 1.400 . S
C73 C74 1.351 . S
C73 H90 0.930 . S
C74 N70 1.389 . S
C74 C73 1.351 . S
C74 H79 0.930 . S
O75 Cu69 1.974 . S
O75 C85 1.282 . S
C76 O77 1.261 . S
C76 O89 1.251 1_554 S
O77 C76 1.261 . S
H78 C72 0.930 . S
H79 C74 0.930 . S
N80 Cu69 1.985 1_554 S
N80 C82 1.335 . S
N80 C83 1.390 . S
N81 C82 1.345 . S
N81 C84 1.336 . S
C82 N80 1.335 . S
C82 N81 1.345 . S
C82 H87 0.930 . S
C83 N80 1.390 . S
C83 C84 1.346 . S
C83 H88 0.930 . S
C84 N81 1.336 . S
C84 C83 1.346 . S
C84 H91 0.929 . S
C85 O75 1.282 . S
C85 O86 1.216 1_556 S
O86 C85 1.216 1_554 S
H87 C82 0.930 . S
H88 C83 0.930 . S
O89 Cu69 1.959 . S
O89 C76 1.251 1_556 S
H90 C73 0.930 . S
H91 C84 0.929 . S
Cu92 N93 1.999 1_565 S
Cu92 O98 1.974 1_565 S
Cu92 N103 1.985 1_455 S
Cu92 O112 1.959 . S
N93 Cu92 1.999 1_545 S
N93 C95 1.263 . S
N93 C97 1.389 1_545 S
N94 C95 1.358 . S
N94 C96 1.400 . S
C95 N93 1.263 . S
C95 N94 1.358 . S
C95 H101 0.930 . S
C96 N94 1.400 . S
C96 C97 1.351 1_545 S
C96 H113 0.930 1_545 S
C97 N93 1.389 1_565 S
C97 C96 1.351 1_565 S
C97 H102 0.930 . S
O98 Cu92 1.974 1_545 S
O98 C108 1.282 . S
C99 O100 1.261 . S
C99 O112 1.251 1_655 S
O100 C99 1.261 . S
H101 C95 0.930 . S
H102 C97 0.930 . S
N103 Cu92 1.985 1_655 S
N103 C105 1.335 . S
N103 C106 1.390 1_565 S
N104 C105 1.345 . S
N104 C107 1.336 . S
C105 N103 1.335 . S
C105 N104 1.345 . S
C105 H110 0.930 . S
C106 N103 1.390 1_545 S
C106 C107 1.346 1_545 S
C106 H111 0.930 . S
C107 N104 1.336 . S
C107 C106 1.346 1_565 S
C107 H114 0.929 . S
C108 O98 1.282 . S
C108 O109 1.216 1_455 S
O109 C108 1.216 1_655 S
H110 C105 0.930 . S
H111 C106 0.930 . S
O112 Cu92 1.959 . S
O112 C99 1.251 1_455 S
H113 C96 0.930 1_565 S
H114 C107 0.929 . S
Cu115 N116 1.999 . S
Cu115 O121 1.974 . S
Cu115 N126 1.985 . S
Cu115 O135 1.959 . S
N116 Cu115 1.999 . S
N116 C118 1.263 . S
N116 C120 1.389 . S
N117 C118 1.358 . S
N117 C119 1.400 . S
C118 N116 1.263 . S
C118 N117 1.358 . S
C118 H124 0.930 . S
C119 N117 1.400 . S
C119 C120 1.351 . S
C119 H136 0.930 . S
C120 N116 1.389 . S
C120 C119 1.351 . S
C120 H125 0.930 . S
O121 Cu115 1.974 . S
O121 C131 1.282 . S
C122 O123 1.261 . S
C122 O135 1.251 . S
O123 C122 1.261 . S
H124 C118 0.930 . S
H125 C120 0.930 . S
N126 Cu115 1.985 . S
N126 C128 1.335 . S
N126 C129 1.390 . S
N127 C128 1.345 . S
N127 C130 1.336 . S
C128 N126 1.335 . S
C128 N127 1.345 . S
C128 H133 0.930 . S
C129 N126 1.390 . S
C129 C130 1.346 . S
C129 H134 0.930 . S
C130 N127 1.336 . S
C130 C129 1.346 . S
C130 H137 0.929 . S
C131 O121 1.282 . S
C131 O132 1.216 . S
O132 C131 1.216 . S
H133 C128 0.930 . S
H134 C129 0.930 . S
O135 Cu115 1.959 . S
O135 C122 1.251 . S
H136 C119 0.930 . S
H137 C130 0.929 . S
Cu138 N139 1.999 1_545 S
Cu138 O144 1.974 1_545 S
Cu138 N149 1.985 . S
Cu138 O158 1.959 . S
N139 Cu138 1.999 1_565 S
N139 C141 1.263 . S
N139 C143 1.389 1_565 S
N140 C141 1.358 . S
N140 C142 1.400 . S
C141 N139 1.263 . S
C141 N140 1.358 . S
C141 H147 0.930 . S
C142 N140 1.400 . S
C142 C143 1.351 1_565 S
C142 H159 0.930 1_565 S
C143 N139 1.389 1_545 S
C143 C142 1.351 1_545 S
C143 H148 0.930 . S
O144 Cu138 1.974 1_565 S
O144 C154 1.282 . S
C145 O146 1.261 . S
C145 O158 1.251 . S
O146 C145 1.261 . S
H147 C141 0.930 . S
H148 C143 0.930 . S
N149 Cu138 1.985 . S
N149 C151 1.335 . S
N149 C152 1.390 1_545 S
N150 C151 1.345 . S
N150 C153 1.336 . S
C151 N149 1.335 . S
C151 N150 1.345 . S
C151 H156 0.930 . S
C152 N149 1.390 1_565 S
C152 C153 1.346 1_565 S
C152 H157 0.930 . S
C153 N150 1.336 . S
C153 C152 1.346 1_545 S
C153 H160 0.929 . S
C154 O144 1.282 . S
C154 O155 1.216 . S
O155 C154 1.216 . S
H156 C151 0.930 . S
H157 C152 0.930 . S
O158 Cu138 1.959 . S
O158 C145 1.251 . S
H159 C142 0.930 1_545 S
H160 C153 0.929 . S
Cu161 N162 1.999 . S
Cu161 O167 1.974 . S
Cu161 N172 1.985 . S
Cu161 O181 1.959 . S
N162 Cu161 1.999 . S
N162 C164 1.263 . S
N162 C166 1.389 . S
N163 C164 1.358 . S
N163 C165 1.400 . S
C164 N162 1.263 . S
C164 N163 1.358 . S
C164 H170 0.930 . S
C165 N163 1.400 . S
C165 C166 1.351 . S
C165 H182 0.930 . S
C166 N162 1.389 . S
C166 C165 1.351 . S
C166 H171 0.930 . S
O167 Cu161 1.974 . S
O167 C177 1.282 . S
C168 O169 1.261 . S
C168 O181 1.251 . S
O169 C168 1.261 . S
H170 C164 0.930 . S
H171 C166 0.930 . S
N172 Cu161 1.985 . S
N172 C174 1.335 . S
N172 C175 1.390 . S
N173 C174 1.345 . S
N173 C176 1.336 . S
C174 N172 1.335 . S
C174 N173 1.345 . S
C174 H179 0.930 . S
C175 N172 1.390 . S
C175 C176 1.346 . S
C175 H180 0.930 . S
C176 N173 1.336 . S
C176 C175 1.346 . S
C176 H183 0.929 . S
C177 O167 1.282 . S
C177 O178 1.216 . S
O178 C177 1.216 . S
H179 C174 0.930 . S
H180 C175 0.930 . S
O181 Cu161 1.959 . S
O181 C168 1.251 . S
H182 C165 0.930 . S
H183 C176 0.929 . S
Cu184 N185 1.999 . S
Cu184 O190 1.974 . S
Cu184 N195 1.985 . S
Cu184 O204 1.959 . S
N185 Cu184 1.999 . S
N185 C187 1.263 . S
N185 C189 1.389 . S
N186 C187 1.358 . S
N186 C188 1.400 . S
C187 N185 1.263 . S
C187 N186 1.358 . S
C187 H193 0.930 . S
C188 N186 1.400 . S
C188 C189 1.351 . S
C188 H205 0.930 . S
C189 N185 1.389 . S
C189 C188 1.351 . S
C189 H194 0.930 . S
O190 Cu184 1.974 . S
O190 C200 1.282 . S
C191 O192 1.261 . S
C191 O204 1.251 . S
O192 C191 1.261 . S
H193 C187 0.930 . S
H194 C189 0.930 . S
N195 Cu184 1.985 . S
N195 C197 1.335 . S
N195 C198 1.390 . S
N196 C197 1.345 . S
N196 C199 1.336 . S
C197 N195 1.335 . S
C197 N196 1.345 . S
C197 H202 0.930 . S
C198 N195 1.390 . S
C198 C199 1.346 . S
C198 H203 0.930 . S
C199 N196 1.336 . S
C199 C198 1.346 . S
C199 H206 0.929 . S
C200 O190 1.282 . S
C200 O201 1.216 . S
O201 C200 1.216 . S
H202 C197 0.930 . S
H203 C198 0.930 . S
O204 Cu184 1.959 . S
O204 C191 1.251 . S
H205 C188 0.930 . S
H206 C199 0.929 . S
Cu207 N208 1.999 . S
Cu207 O213 1.974 . S
Cu207 N218 1.998 . S
Cu207 O227 1.959 1_545 S
N208 Cu207 1.999 . S
N208 C210 1.263 . S
N208 C212 1.389 . S
N209 C210 1.358 . S
N209 C211 1.400 . S
C210 N208 1.263 . S
C210 N209 1.358 . S
C210 H216 0.930 . S
C211 N209 1.400 . S
C211 C212 1.351 . S
C211 H228 0.930 . S
C212 N208 1.389 . S
C212 C211 1.351 . S
C212 H217 0.930 . S
O213 Cu207 1.974 . S
O213 C223 1.282 . S
C214 O215 1.261 . S
C214 O227 1.251 . S
O215 C214 1.261 . S
H216 C210 0.930 . S
H217 C212 0.930 . S
N218 Cu207 1.998 . S
N218 C220 1.320 1_545 S
N218 C221 1.397 . S
N219 C220 1.345 . S
N219 C222 1.336 . S
C220 N218 1.320 1_565 S
C220 N219 1.345 . S
C220 H225 0.930 . S
C221 N218 1.397 . S
C221 C222 1.346 1_545 S
C221 H226 0.930 . S
C222 N219 1.336 . S
C222 C221 1.346 1_565 S
C222 H229 0.929 . S
C223 O213 1.282 . S
C223 O224 1.216 . S
O224 C223 1.216 . S
H225 C220 0.930 . S
H226 C221 0.930 . S
O227 Cu207 1.959 1_565 S
O227 C214 1.251 . S
H228 C211 0.930 . S
H229 C222 0.929 . S
Cu230 N231 1.999 . S
Cu230 O236 1.974 . S
Cu230 N241 1.985 . S
Cu230 O250 1.959 . S
N231 Cu230 1.999 . S
N231 C233 1.263 . S
N231 C235 1.389 . S
N232 C233 1.358 . S
N232 C234 1.400 . S
C233 N231 1.263 . S
C233 N232 1.358 . S
C233 H239 0.930 . S
C234 N232 1.400 . S
C234 C235 1.351 . S
C234 H251 0.930 . S
C235 N231 1.389 . S
C235 C234 1.351 . S
C235 H240 0.930 . S
O236 Cu230 1.974 . S
O236 C246 1.282 . S
C237 O238 1.261 . S
C237 O250 1.251 . S
O238 C237 1.261 . S
H239 C233 0.930 . S
H240 C235 0.930 . S
N241 Cu230 1.985 . S
N241 C243 1.335 . S
N241 C244 1.390 . S
N242 C243 1.345 . S
N242 C245 1.336 . S
C243 N241 1.335 . S
C243 N242 1.345 . S
C243 H248 0.930 . S
C244 N241 1.390 . S
C244 C245 1.346 . S
C244 H249 0.930 . S
C245 N242 1.336 . S
C245 C244 1.346 . S
C245 H252 0.929 . S
C246 O236 1.282 . S
C246 O247 1.216 . S
O247 C246 1.216 . S
H248 C243 0.930 . S
H249 C244 0.930 . S
O250 Cu230 1.959 . S
O250 C237 1.251 . S
H251 C234 0.930 . S
H252 C245 0.929 . S
Cu253 N254 1.999 1_554 S
Cu253 O259 1.974 1_554 S
Cu253 N264 1.992 . S
Cu253 O273 1.959 1_565 S
N254 Cu253 1.999 1_556 S
N254 C256 1.263 . S
N254 C258 1.389 . S
N255 C256 1.358 . S
N255 C257 1.400 . S
C256 N254 1.263 . S
C256 N255 1.358 . S
C256 H262 0.930 . S
C257 N255 1.400 . S
C257 C258 1.351 . S
C257 H274 0.930 . S
C258 N254 1.389 . S
C258 C257 1.351 . S
C258 H263 0.930 . S
O259 Cu253 1.974 1_556 S
O259 C269 1.282 . S
C260 O261 1.261 1_554 S
C260 O273 1.251 . S
O261 C260 1.261 1_556 S
H262 C256 0.930 . S
H263 C258 0.930 . S
N264 Cu253 1.992 . S
N264 C266 1.326 1_565 S
N264 C267 1.394 . S
N265 C266 1.345 . S
N265 C268 1.336 . S
C266 N264 1.326 1_545 S
C266 N265 1.345 . S
C266 H271 0.930 . S
C267 N264 1.394 . S
C267 C268 1.346 1_565 S
C267 H272 0.930 . S
C268 N265 1.336 . S
C268 C267 1.346 1_545 S
C268 H275 0.929 . S
C269 O259 1.282 . S
C269 O270 1.216 . S
O270 C269 1.216 . S
H271 C266 0.930 . S
H272 C267 0.930 . S
O273 Cu253 1.959 1_545 S
O273 C260 1.251 . S
H274 C257 0.930 . S
H275 C268 0.929 . S
Cu276 N277 1.999 . S
Cu276 O282 1.974 . S
Cu276 N287 1.985 . S
Cu276 O296 1.959 . S
N277 Cu276 1.999 . S
N277 C279 1.263 . S
N277 C281 1.389 . S
N278 C279 1.358 . S
N278 C280 1.400 . S
C279 N277 1.263 . S
C279 N278 1.358 . S
C279 H285 0.930 . S
C280 N278 1.400 . S
C280 C281 1.351 . S
C280 H297 0.930 . S
C281 N277 1.389 . S
C281 C280 1.351 . S
C281 H286 0.930 . S
O282 Cu276 1.974 . S
O282 C292 1.282 . S
C283 O284 1.261 . S
C283 O296 1.251 . S
O284 C283 1.261 . S
H285 C279 0.930 . S
H286 C281 0.930 . S
N287 Cu276 1.985 . S
N287 C289 1.335 . S
N287 C290 1.390 . S
N288 C289 1.345 . S
N288 C291 1.336 . S
C289 N287 1.335 . S
C289 N288 1.345 . S
C289 H294 0.930 . S
C290 N287 1.390 . S
C290 C291 1.346 . S
C290 H295 0.930 . S
C291 N288 1.336 . S
C291 C290 1.346 . S
C291 H298 0.929 . S
C292 O282 1.282 . S
C292 O293 1.216 . S
O293 C292 1.216 . S
H294 C289 0.930 . S
H295 C290 0.930 . S
O296 Cu276 1.959 . S
O296 C283 1.251 . S
H297 C280 0.930 . S
H298 C291 0.929 . S
Cu299 N300 1.999 . S
Cu299 O305 1.974 . S
Cu299 N310 1.985 1_655 S
Cu299 O319 1.959 . S
N300 Cu299 1.999 . S
N300 C302 1.263 . S
N300 C304 1.389 . S
N301 C302 1.358 . S
N301 C303 1.400 . S
C302 N300 1.263 . S
C302 N301 1.358 . S
C302 H308 0.930 . S
C303 N301 1.400 . S
C303 C304 1.351 . S
C303 H320 0.930 . S
C304 N300 1.389 . S
C304 C303 1.351 . S
C304 H309 0.930 . S
O305 Cu299 1.974 . S
O305 C315 1.282 . S
C306 O307 1.261 . S
C306 O319 1.251 1_455 S
O307 C306 1.261 . S
H308 C302 0.930 . S
H309 C304 0.930 . S
N310 Cu299 1.985 1_455 S
N310 C312 1.335 . S
N310 C313 1.390 . S
N311 C312 1.345 . S
N311 C314 1.336 . S
C312 N310 1.335 . S
C312 N311 1.345 . S
C312 H317 0.930 . S
C313 N310 1.390 . S
C313 C314 1.346 . S
C313 H318 0.930 . S
C314 N311 1.336 . S
C314 C313 1.346 . S
C314 H321 0.929 . S
C315 O305 1.282 . S
C315 O316 1.216 1_655 S
O316 C315 1.216 1_455 S
H317 C312 0.930 . S
H318 C313 0.930 . S
O319 Cu299 1.959 . S
O319 C306 1.251 1_655 S
H320 C303 0.930 . S
H321 C314 0.929 . S
Cu322 N323 1.999 . S
Cu322 O328 1.974 . S
Cu322 N333 1.985 . S
Cu322 O342 1.959 . S
N323 Cu322 1.999 . S
N323 C325 1.263 . S
N323 C327 1.389 . S
N324 C325 1.358 . S
N324 C326 1.400 . S
C325 N323 1.263 . S
C325 N324 1.358 . S
C325 H331 0.930 . S
C326 N324 1.400 . S
C326 C327 1.351 . S
C326 H343 0.930 . S
C327 N323 1.389 . S
C327 C326 1.351 . S
C327 H332 0.930 . S
O328 Cu322 1.974 . S
O328 C338 1.282 . S
C329 O330 1.261 . S
C329 O342 1.251 . S
O330 C329 1.261 . S
H331 C325 0.930 . S
H332 C327 0.930 . S
N333 Cu322 1.985 . S
N333 C335 1.335 . S
N333 C336 1.390 . S
N334 C335 1.345 . S
N334 C337 1.336 . S
C335 N333 1.335 . S
C335 N334 1.345 . S
C335 H340 0.930 . S
C336 N333 1.390 . S
C336 C337 1.346 . S
C336 H341 0.930 . S
C337 N334 1.336 . S
C337 C336 1.346 . S
C337 H344 0.929 . S
C338 O328 1.282 . S
C338 O339 1.216 . S
O339 C338 1.216 . S
H340 C335 0.930 . S
H341 C336 0.930 . S
O342 Cu322 1.959 . S
O342 C329 1.251 . S
H343 C326 0.930 . S
H344 C337 0.929 . S
Cu345 N346 1.999 . S
Cu345 O351 1.974 . S
Cu345 N356 1.985 . S
Cu345 O365 1.959 . S
N346 Cu345 1.999 . S
N346 C348 1.263 . S
N346 C350 1.389 . S
N347 C348 1.358 . S
N347 C349 1.400 . S
C348 N346 1.263 . S
C348 N347 1.358 . S
C348 H354 0.930 . S
C349 N347 1.400 . S
C349 C350 1.351 . S
C349 H366 0.930 . S
C350 N346 1.389 . S
C350 C349 1.351 . S
C350 H355 0.930 . S
O351 Cu345 1.974 . S
O351 C361 1.282 . S
C352 O353 1.261 . S
C352 O365 1.251 . S
O353 C352 1.261 . S
H354 C348 0.930 . S
H355 C350 0.930 . S
N356 Cu345 1.985 . S
N356 C358 1.335 . S
N356 C359 1.390 . S
N357 C358 1.345 . S
N357 C360 1.336 . S
C358 N356 1.335 . S
C358 N357 1.345 . S
C358 H363 0.930 . S
C359 N356 1.390 . S
C359 C360 1.346 . S
C359 H364 0.930 . S
C360 N357 1.336 . S
C360 C359 1.346 . S
C360 H367 0.929 . S
C361 O351 1.282 . S
C361 O362 1.216 . S
O362 C361 1.216 . S
H363 C358 0.930 . S
H364 C359 0.930 . S
O365 Cu345 1.959 . S
O365 C352 1.251 . S
H366 C349 0.930 . S
H367 C360 0.929 . S
Cu368 N369 1.999 . S
Cu368 O374 1.974 . S
Cu368 N379 1.985 . S
Cu368 O388 1.959 . S
N369 Cu368 1.999 . S
N369 C371 1.263 . S
N369 C373 1.389 . S
N370 C371 1.358 . S
N370 C372 1.400 . S
C371 N369 1.263 . S
C371 N370 1.358 . S
C371 H377 0.930 . S
C372 N370 1.400 . S
C372 C373 1.351 . S
C372 H389 0.930 . S
C373 N369 1.389 . S
C373 C372 1.351 . S
C373 H378 0.930 . S
O374 Cu368 1.974 . S
O374 C384 1.282 . S
C375 O376 1.261 . S
C375 O388 1.251 . S
O376 C375 1.261 . S
H377 C371 0.930 . S
H378 C373 0.930 . S
N379 Cu368 1.985 . S
N379 C381 1.335 . S
N379 C382 1.390 . S
N380 C381 1.345 . S
N380 C383 1.336 . S
C381 N379 1.335 . S
C381 N380 1.345 . S
C381 H386 0.930 . S
C382 N379 1.390 . S
C382 C383 1.346 . S
C382 H387 0.930 . S
C383 N380 1.336 . S
C383 C382 1.346 . S
C383 H390 0.929 . S
C384 O374 1.282 . S
C384 O385 1.216 . S
O385 C384 1.216 . S
H386 C381 0.930 . S
H387 C382 0.930 . S
O388 Cu368 1.959 . S
O388 C375 1.251 . S
H389 C372 0.930 . S
H390 C383 0.929 . S
Cu391 N392 1.999 . S
Cu391 O397 1.974 . S
Cu391 N402 1.985 . S
Cu391 O411 1.959 . S
N392 Cu391 1.999 . S
N392 C394 1.263 . S
N392 C396 1.389 . S
N393 C394 1.358 . S
N393 C395 1.400 . S
C394 N392 1.263 . S
C394 N393 1.358 . S
C394 H400 0.930 . S
C395 N393 1.400 . S
C395 C396 1.351 . S
C395 H412 0.930 . S
C396 N392 1.389 . S
C396 C395 1.351 . S
C396 H401 0.930 . S
O397 Cu391 1.974 . S
O397 C407 1.282 . S
C398 O399 1.261 . S
C398 O411 1.251 . S
O399 C398 1.261 . S
H400 C394 0.930 . S
H401 C396 0.930 . S
N402 Cu391 1.985 . S
N402 C404 1.335 . S
N402 C405 1.390 . S
N403 C404 1.345 . S
N403 C406 1.336 . S
C404 N402 1.335 . S
C404 N403 1.345 . S
C404 H409 0.930 . S
C405 N402 1.390 . S
C405 C406 1.346 . S
C405 H410 0.930 . S
C406 N403 1.336 . S
C406 C405 1.346 . S
C406 H413 0.929 . S
C407 O397 1.282 . S
C407 O408 1.216 . S
O408 C407 1.216 . S
H409 C404 0.930 . S
H410 C405 0.930 . S
O411 Cu391 1.959 . S
O411 C398 1.251 . S
H412 C395 0.930 . S
H413 C406 0.929 . S
Cu414 N415 1.999 1_455 S
Cu414 O420 1.974 1_455 S
Cu414 N425 1.985 1_556 S
Cu414 O434 1.959 1_556 S
N415 Cu414 1.999 1_655 S
N415 C417 1.263 . S
N415 C419 1.389 . S
N416 C417 1.358 . S
N416 C418 1.400 . S
C417 N415 1.263 . S
C417 N416 1.358 . S
C417 H423 0.930 . S
C418 N416 1.400 . S
C418 C419 1.351 . S
C418 H435 0.930 . S
C419 N415 1.389 . S
C419 C418 1.351 . S
C419 H424 0.939 . S
O420 Cu414 1.974 1_655 S
O420 C430 1.282 . S
C421 O422 1.261 1_455 S
C421 O434 1.251 . S
O422 C421 1.261 1_655 S
H423 C417 0.930 . S
H424 C419 0.939 . S
N425 Cu414 1.985 1_554 S
N425 C427 1.335 . S
N425 C428 1.390 1_554 S
N426 C427 1.345 . S
N426 C429 1.336 . S
C427 N425 1.335 . S
C427 N426 1.345 . S
C427 H432 0.930 . S
C428 N425 1.390 1_556 S
C428 C429 1.346 1_556 S
C428 H433 0.930 . S
C429 N426 1.336 . S
C429 C428 1.346 1_554 S
C429 H436 0.929 . S
C430 O420 1.282 . S
C430 O431 1.216 . S
O431 C430 1.216 . S
H432 C427 0.930 . S
H433 C428 0.930 . S
O434 Cu414 1.959 1_554 S
O434 C421 1.251 . S
H435 C418 0.930 . S
H436 C429 0.929 . S
Cu437 N438 1.999 . S
Cu437 O443 1.974 . S
Cu437 N448 1.985 . S
Cu437 O457 1.959 . S
N438 Cu437 1.999 . S
N438 C440 1.263 . S
N438 C442 1.389 . S
N439 C440 1.358 . S
N439 C441 1.400 . S
C440 N438 1.263 . S
C440 N439 1.358 . S
C440 H446 0.930 . S
C441 N439 1.400 . S
C441 C442 1.351 . S
C441 H458 0.930 . S
C442 N438 1.389 . S
C442 C441 1.351 . S
C442 H447 0.930 . S
O443 Cu437 1.974 . S
O443 C453 1.282 . S
C444 O445 1.261 . S
C444 O457 1.251 . S
O445 C444 1.261 . S
H446 C440 0.930 . S
H447 C442 0.930 . S
N448 Cu437 1.985 . S
N448 C450 1.335 . S
N448 C451 1.390 . S
N449 C450 1.345 . S
N449 C452 1.336 . S
C450 N448 1.335 . S
C450 N449 1.345 . S
C450 H455 0.930 . S
C451 N448 1.390 . S
C451 C452 1.346 . S
C451 H456 0.930 . S
C452 N449 1.336 . S
C452 C451 1.346 . S
C452 H459 0.929 . S
C453 O443 1.282 . S
C453 O454 1.216 . S
O454 C453 1.216 . S
H455 C450 0.930 . S
H456 C451 0.930 . S
O457 Cu437 1.959 . S
O457 C444 1.251 . S
H458 C441 0.930 . S
H459 C452 0.929 . S
Cu460 N461 1.999 . S
Cu460 O466 1.974 . S
Cu460 N471 1.985 . S
Cu460 O480 1.959 . S
N461 Cu460 1.999 . S
N461 C463 1.263 . S
N461 C465 1.389 . S
N462 C463 1.358 . S
N462 C464 1.400 . S
C463 N461 1.263 . S
C463 N462 1.358 . S
C463 H469 0.930 . S
C464 N462 1.400 . S
C464 C465 1.351 . S
C464 H481 0.930 . S
C465 N461 1.389 . S
C465 C464 1.351 . S
C465 H470 0.930 . S
O466 Cu460 1.974 . S
O466 C476 1.282 . S
C467 O468 1.261 . S
C467 O480 1.251 . S
O468 C467 1.261 . S
H469 C463 0.930 . S
H470 C465 0.930 . S
N471 Cu460 1.985 . S
N471 C473 1.335 . S
N471 C474 1.390 . S
N472 C473 1.345 . S
N472 C475 1.336 . S
C473 N471 1.335 . S
C473 N472 1.345 . S
C473 H478 0.930 . S
C474 N471 1.390 . S
C474 C475 1.346 . S
C474 H479 0.930 . S
C475 N472 1.336 . S
C475 C474 1.346 . S
C475 H482 0.929 . S
C476 O466 1.282 . S
C476 O477 1.216 . S
O477 C476 1.216 . S
H478 C473 0.930 . S
H479 C474 0.930 . S
O480 Cu460 1.959 . S
O480 C467 1.251 . S
H481 C464 0.930 . S
H482 C475 0.929 . S
Cu483 N484 1.999 . S
Cu483 O489 1.974 . S
Cu483 N494 1.985 . S
Cu483 O503 1.959 . S
N484 Cu483 1.999 . S
N484 C486 1.263 . S
N484 C488 1.389 . S
N485 C486 1.358 . S
N485 C487 1.400 . S
C486 N484 1.263 . S
C486 N485 1.358 . S
C486 H492 0.930 . S
C487 N485 1.400 . S
C487 C488 1.351 . S
C487 H504 0.930 . S
C488 N484 1.389 . S
C488 C487 1.351 . S
C488 H493 0.930 . S
O489 Cu483 1.974 . S
O489 C499 1.282 . S
C490 O491 1.261 . S
C490 O503 1.251 . S
O491 C490 1.261 . S
H492 C486 0.930 . S
H493 C488 0.930 . S
N494 Cu483 1.985 . S
N494 C496 1.335 . S
N494 C497 1.390 . S
N495 C496 1.345 . S
N495 C498 1.336 . S
C496 N494 1.335 . S
C496 N495 1.345 . S
C496 H501 0.930 . S
C497 N494 1.390 . S
C497 C498 1.346 . S
C497 H502 0.930 . S
C498 N495 1.336 . S
C498 C497 1.346 . S
C498 H505 0.929 . S
C499 O489 1.282 . S
C499 O500 1.216 . S
O500 C499 1.216 . S
H501 C496 0.930 . S
H502 C497 0.930 . S
O503 Cu483 1.959 . S
O503 C490 1.251 . S
H504 C487 0.930 . S
H505 C498 0.929 . S
Cu506 N507 1.999 1_556 S
Cu506 O512 1.974 1_556 S
Cu506 N517 1.985 . S
Cu506 O526 1.959 . S
N507 Cu506 1.999 1_554 S
N507 C509 1.263 . S
N507 C511 1.389 . S
N508 C509 1.358 . S
N508 C510 1.400 . S
C509 N507 1.263 . S
C509 N508 1.358 . S
C509 H515 0.930 . S
C510 N508 1.400 . S
C510 C511 1.351 . S
C510 H527 0.930 . S
C511 N507 1.389 . S
C511 C510 1.351 . S
C511 H516 0.930 . S
O512 Cu506 1.974 1_554 S
O512 C522 1.282 . S
C513 O514 1.261 . S
C513 O526 1.251 . S
O514 C513 1.261 . S
H515 C509 0.930 . S
H516 C511 0.930 . S
N517 Cu506 1.985 . S
N517 C519 1.335 . S
N517 C520 1.390 . S
N518 C519 1.345 . S
N518 C521 1.336 . S
C519 N517 1.335 . S
C519 N518 1.345 . S
C519 H524 0.930 . S
C520 N517 1.390 . S
C520 C521 1.346 . S
C520 H525 0.930 . S
C521 N518 1.336 . S
C521 C520 1.346 . S
C521 H528 0.929 . S
C522 O512 1.282 . S
C522 O523 1.216 . S
O523 C522 1.216 . S
H524 C519 0.930 . S
H525 C520 0.930 . S
O526 Cu506 1.959 . S
O526 C513 1.251 . S
H527 C510 0.930 . S
H528 C521 0.929 . S
Cu529 N530 1.999 . S
Cu529 O535 1.974 . S
Cu529 N540 1.985 . S
Cu529 O549 1.959 . S
N530 Cu529 1.999 . S
N530 C532 1.263 . S
N530 C534 1.389 . S
N531 C532 1.358 . S
N531 C533 1.400 . S
C532 N530 1.263 . S
C532 N531 1.358 . S
C532 H538 0.930 . S
C533 N531 1.400 . S
C533 C534 1.351 . S
C533 H550 0.930 . S
C534 N530 1.389 . S
C534 C533 1.351 . S
C534 H539 0.930 . S
O535 Cu529 1.974 . S
O535 C545 1.282 . S
C536 O537 1.261 . S
C536 O549 1.251 . S
O537 C536 1.261 . S
H538 C532 0.930 . S
H539 C534 0.930 . S
N540 Cu529 1.985 . S
N540 C542 1.335 . S
N540 C543 1.390 . S
N541 C542 1.345 . S
N541 C544 1.336 . S
C542 N540 1.335 . S
C542 N541 1.345 . S
C542 H547 0.930 . S
C543 N540 1.390 . S
C543 C544 1.346 . S
C543 H548 0.930 . S
C544 N541 1.336 . S
C544 C543 1.346 . S
C544 H551 0.929 . S
C545 O535 1.282 . S
C545 O546 1.216 . S
O546 C545 1.216 . S
H547 C542 0.930 . S
H548 C543 0.930 . S
O549 Cu529 1.959 . S
O549 C536 1.251 . S
H550 C533 0.930 . S
H551 C544 0.929 . S
H552 C564 0.930 . S
H553 C566 0.930 . S
H554 C567 0.930 . S
H555 C571 0.959 . S
H556 C571 0.959 . S
H557 C571 0.961 . S
H558 C572 0.960 . S
H559 C572 0.961 . S
H560 C572 0.959 . S
H561 C575 0.929 . S
H562 C576 0.931 . S
H563 C578 0.930 . S
C564 H552 0.930 . S
C564 C565 1.399 . S
C564 C569 1.399 . S
C565 C564 1.399 . S
C565 C566 1.376 . S
C566 H553 0.930 . S
C566 C565 1.376 . S
C566 C567 1.388 . S
C567 H554 0.930 . S
C567 C566 1.388 . S
C567 C568 1.390 . S
C568 C567 1.390 . S
C568 C569 1.394 . S
C568 C574 1.465 . S
C569 C564 1.399 . S
C569 C568 1.394 . S
C569 C570 1.516 . S
C570 C569 1.516 . S
C570 C571 1.502 . S
C570 C572 1.561 . S
C570 C573 1.526 . S
C571 H555 0.959 . S
C571 H556 0.959 . S
C571 H557 0.961 . S
C571 C570 1.502 . S
C572 H558 0.960 . S
C572 H559 0.961 . S
C572 H560 0.959 . S
C572 C570 1.561 . S
C573 C570 1.526 . S
C573 C574 1.396 . S
C573 C578 1.390 . S
C574 C568 1.465 . S
C574 C573 1.396 . S
C574 C575 1.399 . S
C575 H561 0.929 . S
C575 C574 1.399 . S
C575 C576 1.385 . S
C576 H562 0.931 . S
C576 C575 1.385 . S
C576 C577 1.389 . S
C577 C576 1.389 . S
C577 C578 1.387 . S
C578 H563 0.930 . S
C578 C573 1.390 . S
C578 C577 1.387 . S
H579 C591 0.930 . S
H580 C593 0.930 . S
H581 C594 0.930 . S
H582 C598 0.959 . S
H583 C598 0.959 . S
H584 C598 0.961 . S
H585 C599 0.960 . S
H586 C599 0.961 . S
H587 C599 0.959 1_455 S
H588 C602 0.929 . S
H589 C603 0.931 . S
H590 C605 0.930 . S
C591 H579 0.930 . S
C591 C592 1.399 . S
C591 C596 1.399 . S
C592 C591 1.399 . S
C592 C593 1.376 . S
C593 H580 0.930 . S
C593 C592 1.376 . S
C593 C594 1.388 . S
C594 H581 0.930 . S
C594 C593 1.388 . S
C594 C595 1.390 . S
C595 C594 1.390 . S
C595 C596 1.394 . S
C595 C601 1.465 . S
C596 C591 1.399 . S
C596 C595 1.394 . S
C596 C597 1.516 . S
C597 C596 1.516 . S
C597 C598 1.502 . S
C597 C599 1.561 . S
C597 C600 1.526 . S
C598 H582 0.959 . S
C598 H583 0.959 . S
C598 H584 0.961 . S
C598 C597 1.502 . S
C599 H585 0.960 . S
C599 H586 0.961 . S
C599 H587 0.959 1_655 S
C599 C597 1.561 . S
C600 C597 1.526 . S
C600 C601 1.396 . S
C600 C605 1.390 . S
C601 C595 1.465 . S
C601 C600 1.396 . S
C601 C602 1.399 . S
C602 H588 0.929 . S
C602 C601 1.399 . S
C602 C603 1.385 . S
C603 H589 0.931 . S
C603 C602 1.385 . S
C603 C604 1.389 . S
C604 C603 1.389 . S
C604 C605 1.387 . S
C605 H590 0.930 . S
C605 C600 1.390 . S
C605 C604 1.387 . S
H606 C618 0.930 . S
H607 C620 0.930 . S
H608 C621 0.930 . S
H609 C625 0.959 . S
H610 C625 0.959 . S
H611 C625 0.961 . S
H612 C626 0.960 . S
H613 C626 0.961 . S
H614 C626 0.959 . S
H615 C629 0.929 . S
H616 C630 0.931 . S
H617 C632 0.930 . S
C618 H606 0.930 . S
C618 C619 1.399 . S
C618 C623 1.399 . S
C619 C618 1.399 . S
C619 C620 1.376 . S
C620 H607 0.930 . S
C620 C619 1.376 . S
C620 C621 1.388 . S
C621 H608 0.930 . S
C621 C620 1.388 . S
C621 C622 1.390 . S
C622 C621 1.390 . S
C622 C623 1.394 . S
C622 C628 1.465 . S
C623 C618 1.399 . S
C623 C622 1.394 . S
C623 C624 1.516 . S
C624 C623 1.516 . S
C624 C625 1.502 . S
C624 C626 1.561 . S
C624 C627 1.526 . S
C625 H609 0.959 . S
C625 H610 0.959 . S
C625 H611 0.961 . S
C625 C624 1.502 . S
C626 H612 0.960 . S
C626 H613 0.961 . S
C626 H614 0.959 . S
C626 C624 1.561 . S
C627 C624 1.526 . S
C627 C628 1.396 . S
C627 C632 1.390 . S
C628 C622 1.465 . S
C628 C627 1.396 . S
C628 C629 1.399 . S
C629 H615 0.929 . S
C629 C628 1.399 . S
C629 C630 1.385 . S
C630 H616 0.931 . S
C630 C629 1.385 . S
C630 C631 1.389 . S
C631 C630 1.389 . S
C631 C632 1.387 . S
C632 H617 0.930 . S
C632 C627 1.390 . S
C632 C631 1.387 . S
H633 C645 0.930 . S
H634 C647 0.930 . S
H635 C648 0.930 . S
H636 C652 0.959 . S
H637 C652 0.959 . S
H638 C652 0.961 . S
H639 C653 0.960 . S
H640 C653 0.961 . S
H641 C653 0.959 . S
H642 C656 0.929 . S
H643 C657 0.931 . S
H644 C659 0.930 . S
C645 H633 0.930 . S
C645 C646 1.399 . S
C645 C650 1.399 . S
C646 C645 1.399 . S
C646 C647 1.376 . S
C647 H634 0.930 . S
C647 C646 1.376 . S
C647 C648 1.388 . S
C648 H635 0.930 . S
C648 C647 1.388 . S
C648 C649 1.390 . S
C649 C648 1.390 . S
C649 C650 1.394 . S
C649 C655 1.465 . S
C650 C645 1.399 . S
C650 C649 1.394 . S
C650 C651 1.516 . S
C651 C650 1.516 . S
C651 C652 1.502 . S
C651 C653 1.561 . S
C651 C654 1.526 . S
C652 H636 0.959 . S
C652 H637 0.959 . S
C652 H638 0.961 . S
C652 C651 1.502 . S
C653 H639 0.960 . S
C653 H640 0.961 . S
C653 H641 0.959 . S
C653 C651 1.561 . S
C654 C651 1.526 . S
C654 C655 1.396 . S
C654 C659 1.390 . S
C655 C649 1.465 . S
C655 C654 1.396 . S
C655 C656 1.399 . S
C656 H642 0.929 . S
C656 C655 1.399 . S
C656 C657 1.385 . S
C657 H643 0.931 . S
C657 C656 1.385 . S
C657 C658 1.389 . S
C658 C657 1.389 . S
C658 C659 1.387 . S
C659 H644 0.930 . S
C659 C654 1.390 . S
C659 C658 1.387 . S
H660 C672 0.930 . S
H661 C674 0.930 . S
H662 C675 0.930 . S
H663 C679 0.959 . S
H664 C679 0.959 . S
H665 C679 0.961 . S
H666 C680 0.960 . S
H667 C680 0.961 . S
H668 C680 0.959 . S
H669 C683 0.929 . S
H670 C684 0.931 . S
H671 C686 0.930 . S
C672 H660 0.930 . S
C672 C673 1.399 . S
C672 C677 1.399 . S
C673 C672 1.399 . S
C673 C674 1.376 . S
C674 H661 0.930 . S
C674 C673 1.376 . S
C674 C675 1.388 . S
C675 H662 0.930 . S
C675 C674 1.388 . S
C675 C676 1.390 . S
C676 C675 1.390 . S
C676 C677 1.394 . S
C676 C682 1.465 . S
C677 C672 1.399 . S
C677 C676 1.394 . S
C677 C678 1.516 . S
C678 C677 1.516 . S
C678 C679 1.502 . S
C678 C680 1.561 . S
C678 C681 1.526 . S
C679 H663 0.959 . S
C679 H664 0.959 . S
C679 H665 0.961 . S
C679 C678 1.502 . S
C680 H666 0.960 . S
C680 H667 0.961 . S
C680 H668 0.959 . S
C680 C678 1.561 . S
C681 C678 1.526 . S
C681 C682 1.396 . S
C681 C686 1.390 . S
C682 C676 1.465 . S
C682 C681 1.396 . S
C682 C683 1.399 . S
C683 H669 0.929 . S
C683 C682 1.399 . S
C683 C684 1.385 . S
C684 H670 0.931 . S
C684 C683 1.385 . S
C684 C685 1.389 . S
C685 C684 1.389 . S
C685 C686 1.387 . S
C686 H671 0.930 . S
C686 C681 1.390 . S
C686 C685 1.387 . S
H687 C699 0.930 . S
H688 C701 0.930 . S
H689 C702 0.930 . S
H690 C706 0.959 . S
H691 C706 0.959 . S
H692 C706 0.961 . S
H693 C707 0.960 . S
H694 C707 0.961 . S
H695 C707 0.959 . S
H696 C710 0.929 . S
H697 C711 0.931 . S
H698 C713 0.930 . S
C699 H687 0.930 . S
C699 C700 1.399 . S
C699 C704 1.399 . S
C700 C699 1.399 . S
C700 C701 1.376 . S
C701 H688 0.930 . S
C701 C700 1.376 . S
C701 C702 1.388 . S
C702 H689 0.930 . S
C702 C701 1.388 . S
C702 C703 1.390 . S
C703 C702 1.390 . S
C703 C704 1.394 . S
C703 C709 1.465 . S
C704 C699 1.399 . S
C704 C703 1.394 . S
C704 C705 1.516 . S
C705 C704 1.516 . S
C705 C706 1.502 . S
C705 C707 1.561 . S
C705 C708 1.526 . S
C706 H690 0.959 . S
C706 H691 0.959 . S
C706 H692 0.961 . S
C706 C705 1.502 . S
C707 H693 0.960 . S
C707 H694 0.961 . S
C707 H695 0.959 . S
C707 C705 1.561 . S
C708 C705 1.526 . S
C708 C709 1.396 . S
C708 C713 1.390 . S
C709 C703 1.465 . S
C709 C708 1.396 . S
C709 C710 1.399 . S
C710 H696 0.929 . S
C710 C709 1.399 . S
C710 C711 1.385 . S
C711 H697 0.931 . S
C711 C710 1.385 . S
C711 C712 1.389 . S
C712 C711 1.389 . S
C712 C713 1.387 . S
C713 H698 0.930 . S
C713 C708 1.390 . S
C713 C712 1.387 . S
H714 C726 0.930 . S
H715 C728 0.930 . S
H716 C729 0.930 . S
H717 C733 0.959 . S
H718 C733 0.959 . S
H719 C733 0.961 . S
H720 C734 0.960 . S
H721 C734 0.961 . S
H722 C734 0.959 . S
H723 C737 0.929 . S
H724 C738 0.931 . S
H725 C740 0.930 . S
C726 H714 0.930 . S
C726 C727 1.399 . S
C726 C731 1.399 . S
C727 C726 1.399 . S
C727 C728 1.376 . S
C728 H715 0.930 . S
C728 C727 1.376 . S
C728 C729 1.388 . S
C729 H716 0.930 . S
C729 C728 1.388 . S
C729 C730 1.390 . S
C730 C729 1.390 . S
C730 C731 1.394 . S
C730 C736 1.465 . S
C731 C726 1.399 . S
C731 C730 1.394 . S
C731 C732 1.516 . S
C732 C731 1.516 . S
C732 C733 1.502 . S
C732 C734 1.561 . S
C732 C735 1.526 . S
C733 H717 0.959 . S
C733 H718 0.959 . S
C733 H719 0.961 . S
C733 C732 1.502 . S
C734 H720 0.960 . S
C734 H721 0.961 . S
C734 H722 0.959 . S
C734 C732 1.561 . S
C735 C732 1.526 . S
C735 C736 1.396 . S
C735 C740 1.390 . S
C736 C730 1.465 . S
C736 C735 1.396 . S
C736 C737 1.399 . S
C737 H723 0.929 . S
C737 C736 1.399 . S
C737 C738 1.385 . S
C738 H724 0.931 . S
C738 C737 1.385 . S
C738 C739 1.389 . S
C739 C738 1.389 . S
C739 C740 1.387 . S
C740 H725 0.930 . S
C740 C735 1.390 . S
C740 C739 1.387 . S
H741 C753 0.942 . S
H742 C755 0.930 . S
H743 C756 0.930 . S
H744 C760 0.959 . S
H745 C760 0.959 1_556 S
H746 C760 0.961 1_556 S
H747 C761 0.960 . S
H748 C761 0.961 . S
H749 C761 0.959 . S
H750 C764 0.929 . S
H751 C765 0.931 . S
H752 C767 0.930 1_556 S
C753 H741 0.942 . S
C753 C754 1.399 . S
C753 C758 1.399 . S
C754 C753 1.399 . S
C754 C755 1.376 . S
C755 H742 0.930 . S
C755 C754 1.376 . S
C755 C756 1.388 . S
C756 H743 0.930 . S
C756 C755 1.388 . S
C756 C757 1.390 . S
C757 C756 1.390 . S
C757 C758 1.394 . S
C757 C763 1.465 . S
C758 C753 1.399 . S
C758 C757 1.394 . S
C758 C759 1.508 1_554 S
C759 C758 1.508 1_556 S
C759 C760 1.499 1_556 S
C759 C761 1.581 . S
C759 C762 1.518 1_556 S
C760 H744 0.959 . S
C760 H745 0.959 1_554 S
C760 H746 0.961 1_554 S
C760 C759 1.499 1_554 S
C761 H747 0.960 . S
C761 H748 0.961 . S
C761 H749 0.959 . S
C761 C759 1.581 . S
C762 C759 1.518 1_554 S
C762 C763 1.396 . S
C762 C767 1.390 . S
C763 C757 1.465 . S
C763 C762 1.396 . S
C763 C764 1.399 . S
C764 H750 0.929 . S
C764 C763 1.399 . S
C764 C765 1.385 . S
C765 H751 0.931 . S
C765 C764 1.385 . S
C765 C766 1.389 . S
C766 C765 1.389 . S
C766 C767 1.387 . S
C767 H752 0.930 1_554 S
C767 C762 1.390 . S
C767 C766 1.387 . S
H768 C780 0.930 . S
H769 C782 0.920 1_565 S
H770 C783 0.930 1_565 S
H771 C787 0.959 . S
H772 C787 0.959 . S
H773 C787 0.961 . S
H774 C788 0.960 . S
H775 C788 0.961 . S
H776 C788 0.959 . S
H777 C791 0.929 . S
H778 C792 0.931 . S
H779 C794 0.930 . S
C780 H768 0.930 . S
C780 C781 1.399 . S
C780 C785 1.399 . S
C781 C780 1.399 . S
C781 C782 1.376 . S
C782 H769 0.920 1_545 S
C782 C781 1.376 . S
C782 C783 1.388 . S
C783 H770 0.930 1_545 S
C783 C782 1.388 . S
C783 C784 1.390 . S
C784 C783 1.390 . S
C784 C785 1.394 . S
C784 C790 1.465 . S
C785 C780 1.399 . S
C785 C784 1.394 . S
C785 C786 1.516 . S
C786 C785 1.516 . S
C786 C787 1.502 . S
C786 C788 1.561 . S
C786 C789 1.526 . S
C787 H771 0.959 . S
C787 H772 0.959 . S
C787 H773 0.961 . S
C787 C786 1.502 . S
C788 H774 0.960 . S
C788 H775 0.961 . S
C788 H776 0.959 . S
C788 C786 1.561 . S
C789 C786 1.526 . S
C789 C790 1.396 . S
C789 C794 1.390 . S
C790 C784 1.465 . S
C790 C789 1.396 . S
C790 C791 1.399 1_545 S
C791 H777 0.929 . S
C791 C790 1.399 1_565 S
C791 C792 1.385 . S
C792 H778 0.931 . S
C792 C791 1.385 . S
C792 C793 1.389 1_565 S
C793 C792 1.389 1_545 S
C793 C794 1.387 . S
C794 H779 0.930 . S
C794 C789 1.390 . S
C794 C793 1.387 . S
H795 C807 0.930 . S
H796 C809 0.930 . S
H797 C810 0.930 . S
H798 C814 0.959 . S
H799 C814 0.959 . S
H800 C814 0.961 . S
H801 C815 0.960 . S
H802 C815 0.961 . S
H803 C815 0.959 . S
H804 C818 0.929 . S
H805 C819 0.931 . S
H806 C821 0.930 . S
C807 H795 0.930 . S
C807 C808 1.399 . S
C807 C812 1.399 . S
C808 C807 1.399 . S
C808 C809 1.376 . S
C809 H796 0.930 . S
C809 C808 1.376 . S
C809 C810 1.388 . S
C810 H797 0.930 . S
C810 C809 1.388 . S
C810 C811 1.390 . S
C811 C810 1.390 . S
C811 C812 1.394 . S
C811 C817 1.465 . S
C812 C807 1.399 . S
C812 C811 1.394 . S
C812 C813 1.516 . S
C813 C812 1.516 . S
C813 C814 1.502 . S
C813 C815 1.561 . S
C813 C816 1.526 . S
C814 H798 0.959 . S
C814 H799 0.959 . S
C814 H800 0.961 . S
C814 C813 1.502 . S
C815 H801 0.960 . S
C815 H802 0.961 . S
C815 H803 0.959 . S
C815 C813 1.561 . S
C816 C813 1.526 . S
C816 C817 1.396 . S
C816 C821 1.390 . S
C817 C811 1.465 . S
C817 C816 1.396 . S
C817 C818 1.399 . S
C818 H804 0.929 . S
C818 C817 1.399 . S
C818 C819 1.385 . S
C819 H805 0.931 . S
C819 C818 1.385 . S
C819 C820 1.389 . S
C820 C819 1.389 . S
C820 C821 1.387 . S
C821 H806 0.930 . S
C821 C816 1.390 . S
C821 C820 1.387 . S
H822 C834 0.930 1_545 S
H823 C836 0.930 . S
H824 C837 0.930 . S
H825 C841 0.959 1_565 S
H826 C841 0.959 . S
H827 C841 0.961 . S
H828 C842 0.960 . S
H829 C842 0.961 . S
H830 C842 0.959 . S
H831 C845 0.929 . S
H832 C846 0.931 . S
H833 C848 0.930 . S
C834 H822 0.930 1_565 S
C834 C835 1.399 . S
C834 C839 1.399 . S
C835 C834 1.399 . S
C835 C836 1.376 . S
C836 H823 0.930 . S
C836 C835 1.376 . S
C836 C837 1.388 . S
C837 H824 0.930 . S
C837 C836 1.388 . S
C837 C838 1.390 . S
C838 C837 1.390 . S
C838 C839 1.394 . S
C838 C844 1.465 . S
C839 C834 1.399 . S
C839 C838 1.394 . S
C839 C840 1.516 . S
C840 C839 1.516 . S
C840 C841 1.502 1_565 S
C840 C842 1.561 1_565 S
C840 C843 1.526 . S
C841 H825 0.959 1_545 S
C841 H826 0.959 . S
C841 H827 0.961 . S
C841 C840 1.502 1_545 S
C842 H828 0.960 . S
C842 H829 0.961 . S
C842 H830 0.959 . S
C842 C840 1.561 1_545 S
C843 C840 1.526 . S
C843 C844 1.396 . S
C843 C848 1.390 . S
C844 C838 1.465 . S
C844 C843 1.396 . S
C844 C845 1.399 . S
C845 H831 0.929 . S
C845 C844 1.399 . S
C845 C846 1.385 . S
C846 H832 0.931 . S
C846 C845 1.385 . S
C846 C847 1.389 . S
C847 C846 1.389 . S
C847 C848 1.387 . S
C848 H833 0.930 . S
C848 C843 1.390 . S
C848 C847 1.387 . S
H849 C861 0.930 . S
H850 C863 0.930 . S
H851 C864 0.930 . S
H852 C868 0.959 . S
H853 C868 0.959 . S
H854 C868 0.961 . S
H855 C869 0.960 . S
H856 C869 0.961 . S
H857 C869 0.959 . S
H858 C872 0.929 . S
H859 C873 0.931 . S
H860 C875 0.930 . S
C861 H849 0.930 . S
C861 C862 1.399 . S
C861 C866 1.399 . S
C862 C861 1.399 . S
C862 C863 1.376 . S
C863 H850 0.930 . S
C863 C862 1.376 . S
C863 C864 1.388 . S
C864 H851 0.930 . S
C864 C863 1.388 . S
C864 C865 1.390 . S
C865 C864 1.390 . S
C865 C866 1.394 . S
C865 C871 1.465 . S
C866 C861 1.399 . S
C866 C865 1.394 . S
C866 C867 1.516 . S
C867 C866 1.516 . S
C867 C868 1.502 . S
C867 C869 1.561 . S
C867 C870 1.526 . S
C868 H852 0.959 . S
C868 H853 0.959 . S
C868 H854 0.961 . S
C868 C867 1.502 . S
C869 H855 0.960 . S
C869 H856 0.961 . S
C869 H857 0.959 . S
C869 C867 1.561 . S
C870 C867 1.526 . S
C870 C871 1.396 . S
C870 C875 1.390 . S
C871 C865 1.465 . S
C871 C870 1.396 . S
C871 C872 1.399 . S
C872 H858 0.929 . S
C872 C871 1.399 . S
C872 C873 1.385 . S
C873 H859 0.931 . S
C873 C872 1.385 . S
C873 C874 1.389 . S
C874 C873 1.389 . S
C874 C875 1.387 . S
C875 H860 0.930 . S
C875 C870 1.390 . S
C875 C874 1.387 . S
H876 C888 0.930 . S
H877 C890 0.930 . S
H878 C891 0.930 . S
H879 C895 0.959 . S
H880 C895 0.959 . S
H881 C895 0.961 . S
H882 C896 0.960 . S
H883 C896 0.961 . S
H884 C896 0.959 . S
H885 C899 0.929 . S
H886 C900 0.931 . S
H887 C902 0.930 . S
C888 H876 0.930 . S
C888 C889 1.399 . S
C888 C893 1.399 . S
C889 C888 1.399 . S
C889 C890 1.376 . S
C890 H877 0.930 . S
C890 C889 1.376 . S
C890 C891 1.388 . S
C891 H878 0.930 . S
C891 C890 1.388 . S
C891 C892 1.390 . S
C892 C891 1.390 . S
C892 C893 1.394 . S
C892 C898 1.465 . S
C893 C888 1.399 . S
C893 C892 1.394 . S
C893 C894 1.516 . S
C894 C893 1.516 . S
C894 C895 1.502 . S
C894 C896 1.561 . S
C894 C897 1.526 . S
C895 H879 0.959 . S
C895 H880 0.959 . S
C895 H881 0.961 . S
C895 C894 1.502 . S
C896 H882 0.960 . S
C896 H883 0.961 . S
C896 H884 0.959 . S
C896 C894 1.561 . S
C897 C894 1.526 . S
C897 C898 1.396 . S
C897 C902 1.390 . S
C898 C892 1.465 . S
C898 C897 1.396 . S
C898 C899 1.399 . S
C899 H885 0.929 . S
C899 C898 1.399 . S
C899 C900 1.385 . S
C900 H886 0.931 . S
C900 C899 1.385 . S
C900 C901 1.389 . S
C901 C900 1.389 . S
C901 C902 1.387 . S
C902 H887 0.930 . S
C902 C897 1.390 . S
C902 C901 1.387 . S
H903 C915 0.930 . S
H904 C917 0.930 . S
H905 C918 0.930 . S
H906 C922 0.959 . S
H907 C922 0.959 . S
H908 C922 0.961 . S
H909 C923 0.960 . S
H910 C923 0.961 . S
H911 C923 0.959 . S
H912 C926 0.929 . S
H913 C927 0.931 . S
H914 C929 0.930 . S
C915 H903 0.930 . S
C915 C916 1.399 . S
C915 C920 1.399 . S
C916 C915 1.399 . S
C916 C917 1.376 . S
C917 H904 0.930 . S
C917 C916 1.376 . S
C917 C918 1.388 . S
C918 H905 0.930 . S
C918 C917 1.388 . S
C918 C919 1.390 . S
C919 C918 1.390 . S
C919 C920 1.394 . S
C919 C925 1.465 . S
C920 C915 1.399 . S
C920 C919 1.394 . S
C920 C921 1.516 . S
C921 C920 1.516 . S
C921 C922 1.502 . S
C921 C923 1.561 . S
C921 C924 1.526 . S
C922 H906 0.959 . S
C922 H907 0.959 . S
C922 H908 0.961 . S
C922 C921 1.502 . S
C923 H909 0.960 . S
C923 H910 0.961 . S
C923 H911 0.959 . S
C923 C921 1.561 . S
C924 C921 1.526 . S
C924 C925 1.396 . S
C924 C929 1.390 . S
C925 C919 1.465 . S
C925 C924 1.396 . S
C925 C926 1.399 . S
C926 H912 0.929 . S
C926 C925 1.399 . S
C926 C927 1.385 . S
C927 H913 0.931 . S
C927 C926 1.385 . S
C927 C928 1.389 . S
C928 C927 1.389 . S
C928 C929 1.387 . S
C929 H914 0.930 . S
C929 C924 1.390 . S
C929 C928 1.387 . S
H930 C942 0.930 . S
H931 C944 0.930 . S
H932 C945 0.930 . S
H933 C949 0.959 . S
H934 C949 0.959 . S
H935 C949 0.961 . S
H936 C950 0.960 . S
H937 C950 0.961 . S
H938 C950 0.959 . S
H939 C953 0.929 . S
H940 C954 0.931 . S
H941 C956 0.930 . S
C942 H930 0.930 . S
C942 C943 1.399 . S
C942 C947 1.399 . S
C943 C942 1.399 . S
C943 C944 1.376 . S
C944 H931 0.930 . S
C944 C943 1.376 . S
C944 C945 1.388 . S
C945 H932 0.930 . S
C945 C944 1.388 . S
C945 C946 1.390 . S
C946 C945 1.390 . S
C946 C947 1.394 . S
C946 C952 1.465 . S
C947 C942 1.399 . S
C947 C946 1.394 . S
C947 C948 1.516 . S
C948 C947 1.516 . S
C948 C949 1.502 . S
C948 C950 1.561 . S
C948 C951 1.526 . S
C949 H933 0.959 . S
C949 H934 0.959 . S
C949 H935 0.961 . S
C949 C948 1.502 . S
C950 H936 0.960 . S
C950 H937 0.961 . S
C950 H938 0.959 . S
C950 C948 1.561 . S
C951 C948 1.526 . S
C951 C952 1.396 . S
C951 C956 1.390 . S
C952 C946 1.465 . S
C952 C951 1.396 . S
C952 C953 1.399 . S
C953 H939 0.929 . S
C953 C952 1.399 . S
C953 C954 1.385 . S
C954 H940 0.931 . S
C954 C953 1.385 . S
C954 C955 1.389 . S
C955 C954 1.389 . S
C955 C956 1.387 . S
C956 H941 0.930 . S
C956 C951 1.390 . S
C956 C955 1.387 . S
H957 C969 0.930 . S
H958 C971 0.930 . S
H959 C972 0.930 . S
H960 C976 0.959 . S
H961 C976 0.959 . S
H962 C976 0.961 . S
H963 C977 0.960 . S
H964 C977 0.961 . S
H965 C977 0.959 . S
H966 C980 0.929 . S
H967 C981 0.931 . S
H968 C983 0.930 . S
C969 H957 0.930 . S
C969 C970 1.399 . S
C969 C974 1.399 . S
C970 C969 1.399 . S
C970 C971 1.376 . S
C971 H958 0.930 . S
C971 C970 1.376 . S
C971 C972 1.388 . S
C972 H959 0.930 . S
C972 C971 1.388 . S
C972 C973 1.390 . S
C973 C972 1.390 . S
C973 C974 1.394 . S
C973 C979 1.465 . S
C974 C969 1.399 . S
C974 C973 1.394 . S
C974 C975 1.516 . S
C975 C974 1.516 . S
C975 C976 1.502 . S
C975 C977 1.561 . S
C975 C978 1.526 . S
C976 H960 0.959 . S
C976 H961 0.959 . S
C976 H962 0.961 . S
C976 C975 1.502 . S
C977 H963 0.960 . S
C977 H964 0.961 . S
C977 H965 0.959 . S
C977 C975 1.561 . S
C978 C975 1.526 . S
C978 C979 1.396 . S
C978 C983 1.390 . S
C979 C973 1.465 . S
C979 C978 1.396 . S
C979 C980 1.399 . S
C980 H966 0.929 . S
C980 C979 1.399 . S
C980 C981 1.385 . S
C981 H967 0.931 . S
C981 C980 1.385 . S
C981 C982 1.389 . S
C982 C981 1.389 . S
C982 C983 1.387 . S
C983 H968 0.930 . S
C983 C978 1.390 . S
C983 C982 1.387 . S
H984 C996 0.930 . S
H985 C998 0.930 . S
H986 C999 0.930 . S
H987 C1003 0.959 . S
H988 C1003 0.959 . S
H989 C1003 0.961 . S
H990 C1004 0.960 . S
H991 C1004 0.961 . S
H992 C1004 0.959 . S
H993 C1007 0.929 . S
H994 C1008 0.931 . S
H995 C1010 0.930 . S
C996 H984 0.930 . S
C996 C997 1.399 . S
C996 C1001 1.399 . S
C997 C996 1.399 . S
C997 C998 1.376 . S
C998 H985 0.930 . S
C998 C997 1.376 . S
C998 C999 1.388 . S
C999 H986 0.930 . S
C999 C998 1.388 . S
C999 C1000 1.390 . S
C1000 C999 1.390 . S
C1000 C1001 1.394 . S
C1000 C1006 1.465 . S
C1001 C996 1.399 . S
C1001 C1000 1.394 . S
C1001 C1002 1.516 . S
C1002 C1001 1.516 . S
C1002 C1003 1.502 . S
C1002 C1004 1.561 . S
C1002 C1005 1.526 . S
C1003 H987 0.959 . S
C1003 H988 0.959 . S
C1003 H989 0.961 . S
C1003 C1002 1.502 . S
C1004 H990 0.960 . S
C1004 H991 0.961 . S
C1004 H992 0.959 . S
C1004 C1002 1.561 . S
C1005 C1002 1.526 . S
C1005 C1006 1.396 . S
C1005 C1010 1.390 . S
C1006 C1000 1.465 . S
C1006 C1005 1.396 . S
C1006 C1007 1.399 . S
C1007 H993 0.929 . S
C1007 C1006 1.399 . S
C1007 C1008 1.385 . S
C1008 H994 0.931 . S
C1008 C1007 1.385 . S
C1008 C1009 1.389 . S
C1009 C1008 1.389 . S
C1009 C1010 1.387 . S
C1010 H995 0.930 . S
C1010 C1005 1.390 . S
C1010 C1009 1.387 . S
H1011 C1023 0.930 . S
H1012 C1025 0.930 . S
H1013 C1026 0.930 . S
H1014 C1030 0.959 . S
H1015 C1030 0.959 . S
H1016 C1030 0.961 . S
H1017 C1031 0.960 . S
H1018 C1031 0.961 . S
H1019 C1031 0.959 . S
H1020 C1034 0.929 . S
H1021 C1035 0.931 . S
H1022 C1037 0.930 . S
C1023 H1011 0.930 . S
C1023 C1024 1.399 . S
C1023 C1028 1.399 . S
C1024 C1023 1.399 . S
C1024 C1025 1.376 . S
C1025 H1012 0.930 . S
C1025 C1024 1.376 . S
C1025 C1026 1.388 . S
C1026 H1013 0.930 . S
C1026 C1025 1.388 . S
C1026 C1027 1.390 . S
C1027 C1026 1.390 . S
C1027 C1028 1.394 . S
C1027 C1033 1.465 . S
C1028 C1023 1.399 . S
C1028 C1027 1.394 . S
C1028 C1029 1.516 . S
C1029 C1028 1.516 . S
C1029 C1030 1.502 . S
C1029 C1031 1.561 . S
C1029 C1032 1.526 . S
C1030 H1014 0.959 . S
C1030 H1015 0.959 . S
C1030 H1016 0.961 . S
C1030 C1029 1.502 . S
C1031 H1017 0.960 . S
C1031 H1018 0.961 . S
C1031 H1019 0.959 . S
C1031 C1029 1.561 . S
C1032 C1029 1.526 . S
C1032 C1033 1.396 . S
C1032 C1037 1.390 . S
C1033 C1027 1.465 . S
C1033 C1032 1.396 . S
C1033 C1034 1.399 . S
C1034 H1020 0.929 . S
C1034 C1033 1.399 . S
C1034 C1035 1.385 . S
C1035 H1021 0.931 . S
C1035 C1034 1.385 . S
C1035 C1036 1.389 . S
C1036 C1035 1.389 . S
C1036 C1037 1.387 . S
C1037 H1022 0.930 . S
C1037 C1032 1.390 . S
C1037 C1036 1.387 . S
H1038 C1050 0.930 . S
H1039 C1052 0.930 . S
H1040 C1053 0.930 . S
H1041 C1057 0.959 . S
H1042 C1057 0.959 . S
H1043 C1057 0.961 . S
H1044 C1058 0.960 . S
H1045 C1058 0.961 . S
H1046 C1058 0.959 . S
H1047 C1061 0.929 . S
H1048 C1062 0.931 . S
H1049 C1064 0.930 . S
C1050 H1038 0.930 . S
C1050 C1051 1.399 . S
C1050 C1055 1.399 . S
C1051 C1050 1.399 . S
C1051 C1052 1.376 . S
C1052 H1039 0.930 . S
C1052 C1051 1.376 . S
C1052 C1053 1.388 . S
C1053 H1040 0.930 . S
C1053 C1052 1.388 . S
C1053 C1054 1.390 . S
C1054 C1053 1.390 . S
C1054 C1055 1.394 . S
C1054 C1060 1.465 . S
C1055 C1050 1.399 . S
C1055 C1054 1.394 . S
C1055 C1056 1.516 . S
C1056 C1055 1.516 . S
C1056 C1057 1.502 . S
C1056 C1058 1.561 . S
C1056 C1059 1.526 . S
C1057 H1041 0.959 . S
C1057 H1042 0.959 . S
C1057 H1043 0.961 . S
C1057 C1056 1.502 . S
C1058 H1044 0.960 . S
C1058 H1045 0.961 . S
C1058 H1046 0.959 . S
C1058 C1056 1.561 . S
C1059 C1056 1.526 . S
C1059 C1060 1.396 . S
C1059 C1064 1.390 . S
C1060 C1054 1.465 . S
C1060 C1059 1.396 . S
C1060 C1061 1.399 . S
C1061 H1047 0.929 . S
C1061 C1060 1.399 . S
C1061 C1062 1.385 . S
C1062 H1048 0.931 . S
C1062 C1061 1.385 . S
C1062 C1063 1.389 . S
C1063 C1062 1.389 . S
C1063 C1064 1.387 . S
C1064 H1049 0.930 . S
C1064 C1059 1.390 . S
C1064 C1063 1.387 . S
H1065 C1077 0.930 . S
H1066 C1079 0.930 1_655 S
H1067 C1080 0.930 . S
H1068 C1084 0.959 . S
H1069 C1084 0.959 . S
H1070 C1084 0.961 . S
H1071 C1085 0.960 . S
H1072 C1085 0.961 . S
H1073 C1085 0.959 . S
H1074 C1088 0.929 . S
H1075 C1089 0.931 1_655 S
H1076 C1091 0.930 . S
C1077 H1065 0.930 . S
C1077 C1078 1.399 . S
C1077 C1082 1.399 . S
C1078 C1077 1.399 . S
C1078 C1079 1.376 . S
C1079 H1066 0.930 1_455 S
C1079 C1078 1.376 . S
C1079 C1080 1.388 1_455 S
C1080 H1067 0.930 . S
C1080 C1079 1.388 1_655 S
C1080 C1081 1.390 1_655 S
C1081 C1080 1.390 1_455 S
C1081 C1082 1.394 . S
C1081 C1087 1.465 . S
C1082 C1077 1.399 . S
C1082 C1081 1.394 . S
C1082 C1083 1.516 . S
C1083 C1082 1.516 . S
C1083 C1084 1.502 . S
C1083 C1085 1.561 . S
C1083 C1086 1.526 . S
C1084 H1068 0.959 . S
C1084 H1069 0.959 . S
C1084 H1070 0.961 . S
C1084 C1083 1.502 . S
C1085 H1071 0.960 . S
C1085 H1072 0.961 . S
C1085 H1073 0.959 . S
C1085 C1083 1.561 . S
C1086 C1083 1.526 . S
C1086 C1087 1.396 . S
C1086 C1091 1.390 . S
C1087 C1081 1.465 . S
C1087 C1086 1.396 . S
C1087 C1088 1.399 1_455 S
C1088 H1074 0.929 . S
C1088 C1087 1.399 1_655 S
C1088 C1089 1.385 1_655 S
C1089 H1075 0.931 1_455 S
C1089 C1088 1.385 1_455 S
C1089 C1090 1.389 . S
C1090 C1089 1.389 . S
C1090 C1091 1.387 . S
C1091 H1076 0.930 . S
C1091 C1086 1.390 . S
C1091 C1090 1.387 . S
H1092 C1104 0.930 . S
H1093 C1106 0.930 . S
H1094 C1107 0.930 . S
H1095 C1111 0.959 . S
H1096 C1111 0.959 . S
H1097 C1111 0.961 . S
H1098 C1112 0.960 . S
H1099 C1112 0.961 . S
H1100 C1112 0.959 . S
H1101 C1115 0.929 . S
H1102 C1116 0.931 . S
H1103 C1118 0.930 . S
C1104 H1092 0.930 . S
C1104 C1105 1.399 . S
C1104 C1109 1.399 . S
C1105 C1104 1.399 . S
C1105 C1106 1.376 . S
C1106 H1093 0.930 . S
C1106 C1105 1.376 . S
C1106 C1107 1.388 . S
C1107 H1094 0.930 . S
C1107 C1106 1.388 . S
C1107 C1108 1.390 . S
C1108 C1107 1.390 . S
C1108 C1109 1.394 . S
C1108 C1114 1.465 . S
C1109 C1104 1.399 . S
C1109 C1108 1.394 . S
C1109 C1110 1.516 . S
C1110 C1109 1.516 . S
C1110 C1111 1.502 . S
C1110 C1112 1.561 . S
C1110 C1113 1.526 . S
C1111 H1095 0.959 . S
C1111 H1096 0.959 . S
C1111 H1097 0.961 . S
C1111 C1110 1.502 . S
C1112 H1098 0.960 . S
C1112 H1099 0.961 . S
C1112 H1100 0.959 . S
C1112 C1110 1.561 . S
C1113 C1110 1.526 . S
C1113 C1114 1.396 . S
C1113 C1118 1.390 . S
C1114 C1108 1.465 . S
C1114 C1113 1.396 . S
C1114 C1115 1.399 . S
C1115 H1101 0.929 . S
C1115 C1114 1.399 . S
C1115 C1116 1.385 . S
C1116 H1102 0.931 . S
C1116 C1115 1.385 . S
C1116 C1117 1.389 . S
C1117 C1116 1.389 . S
C1117 C1118 1.387 . S
C1118 H1103 0.930 . S
C1118 C1113 1.390 . S
C1118 C1117 1.387 . S
H1119 C1131 0.930 . S
H1120 C1133 0.930 . S
H1121 C1134 0.930 . S
H1122 C1138 0.959 . S
H1123 C1138 0.959 . S
H1124 C1138 0.961 . S
H1125 C1139 0.960 . S
H1126 C1139 0.961 . S
H1127 C1139 0.959 . S
H1128 C1142 0.929 . S
H1129 C1143 0.931 . S
H1130 C1145 0.930 . S
C1131 H1119 0.930 . S
C1131 C1132 1.399 . S
C1131 C1136 1.399 . S
C1132 C1131 1.399 . S
C1132 C1133 1.376 . S
C1133 H1120 0.930 . S
C1133 C1132 1.376 . S
C1133 C1134 1.388 . S
C1134 H1121 0.930 . S
C1134 C1133 1.388 . S
C1134 C1135 1.390 . S
C1135 C1134 1.390 . S
C1135 C1136 1.394 . S
C1135 C1141 1.465 . S
C1136 C1131 1.399 . S
C1136 C1135 1.394 . S
C1136 C1137 1.516 . S
C1137 C1136 1.516 . S
C1137 C1138 1.502 . S
C1137 C1139 1.561 . S
C1137 C1140 1.526 . S
C1138 H1122 0.959 . S
C1138 H1123 0.959 . S
C1138 H1124 0.961 . S
C1138 C1137 1.502 . S
C1139 H1125 0.960 . S
C1139 H1126 0.961 . S
C1139 H1127 0.959 . S
C1139 C1137 1.561 . S
C1140 C1137 1.526 . S
C1140 C1141 1.396 . S
C1140 C1145 1.390 . S
C1141 C1135 1.465 . S
C1141 C1140 1.396 . S
C1141 C1142 1.399 . S
C1142 H1128 0.929 . S
C1142 C1141 1.399 . S
C1142 C1143 1.385 . S
C1143 H1129 0.931 . S
C1143 C1142 1.385 . S
C1143 C1144 1.389 . S
C1144 C1143 1.389 . S
C1144 C1145 1.387 . S
C1145 H1130 0.930 . S
C1145 C1140 1.390 . S
C1145 C1144 1.387 . S
H1146 C1158 0.930 . S
H1147 C1160 0.930 . S
H1148 C1161 0.930 . S
H1149 C1165 0.959 . S
H1150 C1165 0.959 . S
H1151 C1165 0.961 . S
H1152 C1166 0.960 . S
H1153 C1166 0.961 . S
H1154 C1166 0.959 1_554 S
H1155 C1169 0.929 . S
H1156 C1170 0.931 . S
H1157 C1172 0.930 . S
C1158 H1146 0.930 . S
C1158 C1159 1.399 . S
C1158 C1163 1.399 . S
C1159 C1158 1.399 . S
C1159 C1160 1.376 . S
C1160 H1147 0.930 . S
C1160 C1159 1.376 . S
C1160 C1161 1.388 . S
C1161 H1148 0.930 . S
C1161 C1160 1.388 . S
C1161 C1162 1.390 . S
C1162 C1161 1.390 . S
C1162 C1163 1.394 . S
C1162 C1168 1.465 . S
C1163 C1158 1.399 . S
C1163 C1162 1.394 . S
C1163 C1164 1.516 . S
C1164 C1163 1.516 . S
C1164 C1165 1.502 . S
C1164 C1166 1.561 . S
C1164 C1167 1.526 . S
C1165 H1149 0.959 . S
C1165 H1150 0.959 . S
C1165 H1151 0.961 . S
C1165 C1164 1.502 . S
C1166 H1152 0.960 . S
C1166 H1153 0.961 . S
C1166 H1154 0.959 1_556 S
C1166 C1164 1.561 . S
C1167 C1164 1.526 . S
C1167 C1168 1.396 . S
C1167 C1172 1.390 . S
C1168 C1162 1.465 . S
C1168 C1167 1.396 . S
C1168 C1169 1.399 . S
C1169 H1155 0.929 . S
C1169 C1168 1.399 . S
C1169 C1170 1.385 . S
C1170 H1156 0.931 . S
C1170 C1169 1.385 . S
C1170 C1171 1.389 . S
C1171 C1170 1.389 . S
C1171 C1172 1.387 . S
C1172 H1157 0.930 . S
C1172 C1167 1.390 . S
C1172 C1171 1.387 . S
H1173 C1185 0.930 . S
H1174 C1187 0.930 . S
H1175 C1188 0.930 . S
H1176 C1192 0.959 . S
H1177 C1192 0.959 . S
H1178 C1192 0.961 . S
H1179 C1193 0.960 . S
H1180 C1193 0.961 . S
H1181 C1193 0.959 . S
H1182 C1196 0.929 . S
H1183 C1197 0.931 . S
H1184 C1199 0.930 . S
C1185 H1173 0.930 . S
C1185 C1186 1.399 . S
C1185 C1190 1.399 . S
C1186 C1185 1.399 . S
C1186 C1187 1.376 . S
C1187 H1174 0.930 . S
C1187 C1186 1.376 . S
C1187 C1188 1.388 . S
C1188 H1175 0.930 . S
C1188 C1187 1.388 . S
C1188 C1189 1.390 . S
C1189 C1188 1.390 . S
C1189 C1190 1.394 . S
C1189 C1195 1.465 . S
C1190 C1185 1.399 . S
C1190 C1189 1.394 . S
C1190 C1191 1.516 . S
C1191 C1190 1.516 . S
C1191 C1192 1.502 . S
C1191 C1193 1.561 . S
C1191 C1194 1.526 . S
C1192 H1176 0.959 . S
C1192 H1177 0.959 . S
C1192 H1178 0.961 . S
C1192 C1191 1.502 . S
C1193 H1179 0.960 . S
C1193 H1180 0.961 . S
C1193 H1181 0.959 . S
C1193 C1191 1.561 . S
C1194 C1191 1.526 . S
C1194 C1195 1.396 . S
C1194 C1199 1.390 . S
C1195 C1189 1.465 . S
C1195 C1194 1.396 . S
C1195 C1196 1.399 . S
C1196 H1182 0.929 . S
C1196 C1195 1.399 . S
C1196 C1197 1.385 . S
C1197 H1183 0.931 . S
C1197 C1196 1.385 . S
C1197 C1198 1.389 . S
C1198 C1197 1.389 . S
C1198 C1199 1.387 . S
C1199 H1184 0.930 . S
C1199 C1194 1.390 . S
C1199 C1198 1.387 . S
H1200 C1212 0.930 . S
H1201 C1214 0.930 . S
H1202 C1215 0.930 . S
H1203 C1219 0.959 . S
H1204 C1219 0.959 . S
H1205 C1219 0.961 . S
H1206 C1220 0.960 . S
H1207 C1220 0.961 . S
H1208 C1220 0.959 . S
H1209 C1223 0.929 . S
H1210 C1224 0.931 . S
H1211 C1226 0.930 . S
C1212 H1200 0.930 . S
C1212 C1213 1.399 . S
C1212 C1217 1.399 . S
C1213 C1212 1.399 . S
C1213 C1214 1.376 . S
C1214 H1201 0.930 . S
C1214 C1213 1.376 . S
C1214 C1215 1.388 . S
C1215 H1202 0.930 . S
C1215 C1214 1.388 . S
C1215 C1216 1.390 . S
C1216 C1215 1.390 . S
C1216 C1217 1.394 . S
C1216 C1222 1.465 . S
C1217 C1212 1.399 . S
C1217 C1216 1.394 . S
C1217 C1218 1.516 . S
C1218 C1217 1.516 . S
C1218 C1219 1.502 . S
C1218 C1220 1.561 . S
C1218 C1221 1.526 . S
C1219 H1203 0.959 . S
C1219 H1204 0.959 . S
C1219 H1205 0.961 . S
C1219 C1218 1.502 . S
C1220 H1206 0.960 . S
C1220 H1207 0.961 . S
C1220 H1208 0.959 . S
C1220 C1218 1.561 . S
C1221 C1218 1.526 . S
C1221 C1222 1.396 . S
C1221 C1226 1.390 . S
C1222 C1216 1.465 . S
C1222 C1221 1.396 . S
C1222 C1223 1.399 . S
C1223 H1209 0.929 . S
C1223 C1222 1.399 . S
C1223 C1224 1.385 . S
C1224 H1210 0.931 . S
C1224 C1223 1.385 . S
C1224 C1225 1.389 . S
C1225 C1224 1.389 . S
C1225 C1226 1.387 . S
C1226 H1211 0.930 . S
C1226 C1221 1.390 . S
C1226 C1225 1.387 . S
H1227 C1239 0.930 . S
H1228 C1241 0.930 . S
H1229 C1242 0.930 . S
H1230 C1246 0.959 . S
H1231 C1246 0.959 . S
H1232 C1246 0.961 . S
H1233 C1247 0.960 . S
H1234 C1247 0.961 . S
H1235 C1247 0.959 . S
H1236 C1250 0.929 . S
H1237 C1251 0.931 . S
H1238 C1253 0.930 . S
C1239 H1227 0.930 . S
C1239 C1240 1.399 . S
C1239 C1244 1.399 . S
C1240 C1239 1.399 . S
C1240 C1241 1.376 . S
C1241 H1228 0.930 . S
C1241 C1240 1.376 . S
C1241 C1242 1.388 . S
C1242 H1229 0.930 . S
C1242 C1241 1.388 . S
C1242 C1243 1.390 . S
C1243 C1242 1.390 . S
C1243 C1244 1.394 . S
C1243 C1249 1.465 . S
C1244 C1239 1.399 . S
C1244 C1243 1.394 . S
C1244 C1245 1.516 . S
C1245 C1244 1.516 . S
C1245 C1246 1.502 . S
C1245 C1247 1.561 . S
C1245 C1248 1.526 . S
C1246 H1230 0.959 . S
C1246 H1231 0.959 . S
C1246 H1232 0.961 . S
C1246 C1245 1.502 . S
C1247 H1233 0.960 . S
C1247 H1234 0.961 . S
C1247 H1235 0.959 . S
C1247 C1245 1.561 . S
C1248 C1245 1.526 . S
C1248 C1249 1.396 . S
C1248 C1253 1.390 . S
C1249 C1243 1.465 . S
C1249 C1248 1.396 . S
C1249 C1250 1.399 . S
C1250 H1236 0.929 . S
C1250 C1249 1.399 . S
C1250 C1251 1.385 . S
C1251 H1237 0.931 . S
C1251 C1250 1.385 . S
C1251 C1252 1.389 . S
C1252 C1251 1.389 . S
C1252 C1253 1.387 . S
C1253 H1238 0.930 . S
C1253 C1248 1.390 . S
C1253 C1252 1.387 . S
H1254 C1266 0.930 . S
H1255 C1268 0.930 . S
H1256 C1269 0.930 . S
H1257 C1273 0.959 . S
H1258 C1273 0.959 . S
H1259 C1273 0.961 . S
H1260 C1274 0.960 . S
H1261 C1274 0.961 . S
H1262 C1274 0.959 . S
H1263 C1277 0.929 . S
H1264 C1278 0.931 . S
H1265 C1280 0.930 . S
C1266 H1254 0.930 . S
C1266 C1267 1.399 . S
C1266 C1271 1.399 . S
C1267 C1266 1.399 . S
C1267 C1268 1.376 . S
C1268 H1255 0.930 . S
C1268 C1267 1.376 . S
C1268 C1269 1.388 . S
C1269 H1256 0.930 . S
C1269 C1268 1.388 . S
C1269 C1270 1.390 . S
C1270 C1269 1.390 . S
C1270 C1271 1.394 . S
C1270 C1276 1.465 . S
C1271 C1266 1.399 . S
C1271 C1270 1.394 . S
C1271 C1272 1.516 . S
C1272 C1271 1.516 . S
C1272 C1273 1.502 . S
C1272 C1274 1.561 . S
C1272 C1275 1.526 . S
C1273 H1257 0.959 . S
C1273 H1258 0.959 . S
C1273 H1259 0.961 . S
C1273 C1272 1.502 . S
C1274 H1260 0.960 . S
C1274 H1261 0.961 . S
C1274 H1262 0.959 . S
C1274 C1272 1.561 . S
C1275 C1272 1.526 . S
C1275 C1276 1.396 . S
C1275 C1280 1.390 . S
C1276 C1270 1.465 . S
C1276 C1275 1.396 . S
C1276 C1277 1.399 . S
C1277 H1263 0.929 . S
C1277 C1276 1.399 . S
C1277 C1278 1.385 . S
C1278 H1264 0.931 . S
C1278 C1277 1.385 . S
C1278 C1279 1.389 . S
C1279 C1278 1.389 . S
C1279 C1280 1.387 . S
C1280 H1265 0.930 . S
C1280 C1275 1.390 . S
C1280 C1279 1.387 . S
H1281 C1293 0.930 . S
H1282 C1295 0.930 . S
H1283 C1296 0.930 . S
H1284 C1300 0.959 . S
H1285 C1300 0.959 . S
H1286 C1300 0.961 . S
H1287 C1301 0.960 . S
H1288 C1301 0.961 . S
H1289 C1301 0.959 . S
H1290 C1304 0.929 . S
H1291 C1305 0.931 . S
H1292 C1307 0.930 . S
C1293 H1281 0.930 . S
C1293 C1294 1.399 . S
C1293 C1298 1.399 . S
C1294 C1293 1.399 . S
C1294 C1295 1.376 . S
C1295 H1282 0.930 . S
C1295 C1294 1.376 . S
C1295 C1296 1.388 . S
C1296 H1283 0.930 . S
C1296 C1295 1.388 . S
C1296 C1297 1.390 . S
C1297 C1296 1.390 . S
C1297 C1298 1.394 . S
C1297 C1303 1.465 . S
C1298 C1293 1.399 . S
C1298 C1297 1.394 . S
C1298 C1299 1.516 . S
C1299 C1298 1.516 . S
C1299 C1300 1.502 . S
C1299 C1301 1.561 . S
C1299 C1302 1.526 . S
C1300 H1284 0.959 . S
C1300 H1285 0.959 . S
C1300 H1286 0.961 . S
C1300 C1299 1.502 . S
C1301 H1287 0.960 . S
C1301 H1288 0.961 . S
C1301 H1289 0.959 . S
C1301 C1299 1.561 . S
C1302 C1299 1.526 . S
C1302 C1303 1.396 . S
C1302 C1307 1.390 . S
C1303 C1297 1.465 . S
C1303 C1302 1.396 . S
C1303 C1304 1.399 . S
C1304 H1290 0.929 . S
C1304 C1303 1.399 . S
C1304 C1305 1.385 . S
C1305 H1291 0.931 . S
C1305 C1304 1.385 . S
C1305 C1306 1.389 . S
C1306 C1305 1.389 . S
C1306 C1307 1.387 . S
C1307 H1292 0.930 . S
C1307 C1302 1.390 . S
C1307 C1306 1.387 . S
H1308 C1320 0.930 . S
H1309 C1322 0.930 . S
H1310 C1323 0.928 . S
H1311 C1327 0.959 . S
H1312 C1327 0.959 . S
H1313 C1327 0.961 . S
H1314 C1328 0.960 . S
H1315 C1328 0.961 . S
H1316 C1328 0.959 . S
H1317 C1331 0.929 1_565 S
H1318 C1332 0.905 1_565 S
H1319 C1334 0.930 . S
C1320 H1308 0.930 . S
C1320 C1321 1.399 . S
C1320 C1325 1.399 . S
C1321 C1320 1.399 . S
C1321 C1322 1.376 . S
C1322 H1309 0.930 . S
C1322 C1321 1.376 . S
C1322 C1323 1.388 . S
C1323 H1310 0.928 . S
C1323 C1322 1.388 . S
C1323 C1324 1.390 . S
C1324 C1323 1.390 . S
C1324 C1325 1.394 . S
C1324 C1330 1.465 . S
C1325 C1320 1.399 . S
C1325 C1324 1.394 . S
C1325 C1326 1.516 . S
C1326 C1325 1.516 . S
C1326 C1327 1.502 . S
C1326 C1328 1.561 . S
C1326 C1329 1.526 . S
C1327 H1311 0.959 . S
C1327 H1312 0.959 . S
C1327 H1313 0.961 . S
C1327 C1326 1.502 . S
C1328 H1314 0.960 . S
C1328 H1315 0.961 . S
C1328 H1316 0.959 . S
C1328 C1326 1.561 . S
C1329 C1326 1.526 . S
C1329 C1330 1.396 . S
C1329 C1334 1.390 . S
C1330 C1324 1.465 . S
C1330 C1329 1.396 . S
C1330 C1331 1.399 . S
C1331 H1317 0.929 1_545 S
C1331 C1330 1.399 . S
C1331 C1332 1.386 . S
C1332 H1318 0.905 1_545 S
C1332 C1331 1.386 . S
C1332 C1333 1.414 . S
C1333 C1332 1.414 . S
C1333 C1334 1.387 . S
C1334 H1319 0.930 . S
C1334 C1329 1.390 . S
C1334 C1333 1.387 . S
H1335 C1347 0.930 . S
H1336 C1349 0.930 . S
H1337 C1350 0.930 . S
H1338 C1354 0.959 . S
H1339 C1354 0.959 . S
H1340 C1354 0.961 . S
H1341 C1355 0.960 . S
H1342 C1355 0.961 . S
H1343 C1355 0.959 . S
H1344 C1358 0.929 . S
H1345 C1359 0.931 . S
H1346 C1361 0.930 . S
C1347 H1335 0.930 . S
C1347 C1348 1.399 . S
C1347 C1352 1.399 . S
C1348 C1347 1.399 . S
C1348 C1349 1.376 . S
C1349 H1336 0.930 . S
C1349 C1348 1.376 . S
C1349 C1350 1.388 . S
C1350 H1337 0.930 . S
C1350 C1349 1.388 . S
C1350 C1351 1.390 . S
C1351 C1350 1.390 . S
C1351 C1352 1.394 . S
C1351 C1357 1.465 . S
C1352 C1347 1.399 . S
C1352 C1351 1.394 . S
C1352 C1353 1.516 . S
C1353 C1352 1.516 . S
C1353 C1354 1.502 . S
C1353 C1355 1.561 . S
C1353 C1356 1.526 . S
C1354 H1338 0.959 . S
C1354 H1339 0.959 . S
C1354 H1340 0.961 . S
C1354 C1353 1.502 . S
C1355 H1341 0.960 . S
C1355 H1342 0.961 . S
C1355 H1343 0.959 . S
C1355 C1353 1.561 . S
C1356 C1353 1.526 . S
C1356 C1357 1.396 . S
C1356 C1361 1.390 . S
C1357 C1351 1.465 . S
C1357 C1356 1.396 . S
C1357 C1358 1.399 . S
C1358 H1344 0.929 . S
C1358 C1357 1.399 . S
C1358 C1359 1.385 . S
C1359 H1345 0.931 . S
C1359 C1358 1.385 . S
C1359 C1360 1.389 . S
C1360 C1359 1.389 . S
C1360 C1361 1.387 . S
C1361 H1346 0.930 . S
C1361 C1356 1.390 . S
C1361 C1360 1.387 . S
H1362 C1374 0.930 . S
H1363 C1376 0.930 . S
H1364 C1377 0.930 1_545 S
H1365 C1381 0.959 . S
H1366 C1381 0.959 . S
H1367 C1381 0.961 . S
H1368 C1382 0.960 . S
H1369 C1382 0.961 . S
H1370 C1382 0.959 . S
H1371 C1385 0.926 . S
H1372 C1386 0.931 . S
H1373 C1388 0.930 . S
C1374 H1362 0.930 . S
C1374 C1375 1.399 . S
C1374 C1379 1.399 . S
C1375 C1374 1.399 . S
C1375 C1376 1.376 . S
C1376 H1363 0.930 . S
C1376 C1375 1.376 . S
C1376 C1377 1.388 . S
C1377 H1364 0.930 1_565 S
C1377 C1376 1.388 . S
C1377 C1378 1.390 . S
C1378 C1377 1.390 . S
C1378 C1379 1.394 . S
C1378 C1384 1.465 . S
C1379 C1374 1.399 . S
C1379 C1378 1.394 . S
C1379 C1380 1.516 . S
C1380 C1379 1.516 . S
C1380 C1381 1.502 . S
C1380 C1382 1.561 . S
C1380 C1383 1.526 . S
C1381 H1365 0.959 . S
C1381 H1366 0.959 . S
C1381 H1367 0.961 . S
C1381 C1380 1.502 . S
C1382 H1368 0.960 . S
C1382 H1369 0.961 . S
C1382 H1370 0.959 . S
C1382 C1380 1.561 . S
C1383 C1380 1.526 . S
C1383 C1384 1.396 . S
C1383 C1388 1.390 . S
C1384 C1378 1.465 . S
C1384 C1383 1.396 . S
C1384 C1385 1.402 1_565 S
C1385 H1371 0.926 . S
C1385 C1384 1.402 1_545 S
C1385 C1386 1.385 . S
C1386 H1372 0.931 . S
C1386 C1385 1.385 . S
C1386 C1387 1.389 1_545 S
C1387 C1386 1.389 1_565 S
C1387 C1388 1.387 . S
C1388 H1373 0.930 . S
C1388 C1383 1.390 . S
C1388 C1387 1.387 . S
H1389 C1401 0.930 . S
H1390 C1403 0.930 . S
H1391 C1404 0.930 . S
H1392 C1408 0.959 . S
H1393 C1408 0.959 1_545 S
H1394 C1408 0.961 . S
H1395 C1409 0.960 1_545 S
H1396 C1409 0.961 1_545 S
H1397 C1409 0.959 . S
H1398 C1412 0.929 . S
H1399 C1413 0.931 . S
H1400 C1415 0.930 . S
C1401 H1389 0.930 . S
C1401 C1402 1.399 . S
C1401 C1406 1.399 . S
C1402 C1401 1.399 . S
C1402 C1403 1.376 . S
C1403 H1390 0.930 . S
C1403 C1402 1.376 . S
C1403 C1404 1.388 . S
C1404 H1391 0.930 . S
C1404 C1403 1.388 . S
C1404 C1405 1.390 . S
C1405 C1404 1.390 . S
C1405 C1406 1.394 . S
C1405 C1411 1.465 . S
C1406 C1401 1.399 . S
C1406 C1405 1.394 . S
C1406 C1407 1.516 . S
C1407 C1406 1.516 . S
C1407 C1408 1.502 . S
C1407 C1409 1.561 . S
C1407 C1410 1.526 . S
C1408 H1392 0.959 . S
C1408 H1393 0.959 1_565 S
C1408 H1394 0.961 . S
C1408 C1407 1.502 . S
C1409 H1395 0.960 1_565 S
C1409 H1396 0.961 1_565 S
C1409 H1397 0.959 . S
C1409 C1407 1.561 . S
C1410 C1407 1.526 . S
C1410 C1411 1.396 . S
C1410 C1415 1.390 . S
C1411 C1405 1.465 . S
C1411 C1410 1.396 . S
C1411 C1412 1.399 . S
C1412 H1398 0.929 . S
C1412 C1411 1.399 . S
C1412 C1413 1.385 . S
C1413 H1399 0.931 . S
C1413 C1412 1.385 . S
C1413 C1414 1.389 . S
C1414 C1413 1.389 . S
C1414 C1415 1.387 . S
C1415 H1400 0.930 . S
C1415 C1410 1.390 . S
C1415 C1414 1.387 . S
H1416 C1428 0.930 . S
H1417 C1430 0.930 . S
H1418 C1431 0.930 . S
H1419 C1435 0.959 . S
H1420 C1435 0.959 . S
H1421 C1435 0.961 . S
H1422 C1436 0.960 . S
H1423 C1436 0.961 . S
H1424 C1436 0.959 . S
H1425 C1439 0.929 . S
H1426 C1440 0.931 . S
H1427 C1442 0.930 . S
C1428 H1416 0.930 . S
C1428 C1429 1.399 . S
C1428 C1433 1.399 . S
C1429 C1428 1.399 . S
C1429 C1430 1.376 . S
C1430 H1417 0.930 . S
C1430 C1429 1.376 . S
C1430 C1431 1.388 . S
C1431 H1418 0.930 . S
C1431 C1430 1.388 . S
C1431 C1432 1.390 . S
C1432 C1431 1.390 . S
C1432 C1433 1.394 . S
C1432 C1438 1.465 . S
C1433 C1428 1.399 . S
C1433 C1432 1.394 . S
C1433 C1434 1.516 . S
C1434 C1433 1.516 . S
C1434 C1435 1.502 . S
C1434 C1436 1.561 . S
C1434 C1437 1.526 . S
C1435 H1419 0.959 . S
C1435 H1420 0.959 . S
C1435 H1421 0.961 . S
C1435 C1434 1.502 . S
C1436 H1422 0.960 . S
C1436 H1423 0.961 . S
C1436 H1424 0.959 . S
C1436 C1434 1.561 . S
C1437 C1434 1.526 . S
C1437 C1438 1.396 . S
C1437 C1442 1.390 . S
C1438 C1432 1.465 . S
C1438 C1437 1.396 . S
C1438 C1439 1.399 . S
C1439 H1425 0.929 . S
C1439 C1438 1.399 . S
C1439 C1440 1.385 . S
C1440 H1426 0.931 . S
C1440 C1439 1.385 . S
C1440 C1441 1.389 . S
C1441 C1440 1.389 . S
C1441 C1442 1.387 . S
C1442 H1427 0.930 . S
C1442 C1437 1.390 . S
C1442 C1441 1.387 . S
H1443 C1455 0.930 . S
H1444 C1457 0.930 . S
H1445 C1458 0.930 . S
H1446 C1462 0.959 . S
H1447 C1462 0.959 . S
H1448 C1462 0.961 . S
H1449 C1463 0.960 . S
H1450 C1463 0.961 . S
H1451 C1463 0.959 . S
H1452 C1466 0.929 . S
H1453 C1467 0.931 . S
H1454 C1469 0.930 . S
C1455 H1443 0.930 . S
C1455 C1456 1.399 . S
C1455 C1460 1.399 . S
C1456 C1455 1.399 . S
C1456 C1457 1.376 . S
C1457 H1444 0.930 . S
C1457 C1456 1.376 . S
C1457 C1458 1.388 . S
C1458 H1445 0.930 . S
C1458 C1457 1.388 . S
C1458 C1459 1.390 . S
C1459 C1458 1.390 . S
C1459 C1460 1.394 . S
C1459 C1465 1.465 . S
C1460 C1455 1.399 . S
C1460 C1459 1.394 . S
C1460 C1461 1.516 . S
C1461 C1460 1.516 . S
C1461 C1462 1.502 . S
C1461 C1463 1.561 . S
C1461 C1464 1.526 . S
C1462 H1446 0.959 . S
C1462 H1447 0.959 . S
C1462 H1448 0.961 . S
C1462 C1461 1.502 . S
C1463 H1449 0.960 . S
C1463 H1450 0.961 . S
C1463 H1451 0.959 . S
C1463 C1461 1.561 . S
C1464 C1461 1.526 . S
C1464 C1465 1.396 . S
C1464 C1469 1.390 . S
C1465 C1459 1.465 . S
C1465 C1464 1.396 . S
C1465 C1466 1.399 . S
C1466 H1452 0.929 . S
C1466 C1465 1.399 . S
C1466 C1467 1.385 . S
C1467 H1453 0.931 . S
C1467 C1466 1.385 . S
C1467 C1468 1.389 . S
C1468 C1467 1.389 . S
C1468 C1469 1.387 . S
C1469 H1454 0.930 . S
C1469 C1464 1.390 . S
C1469 C1468 1.387 . S
H1470 C1482 0.930 . S
H1471 C1484 0.930 . S
H1472 C1485 0.930 . S
H1473 C1489 0.959 . S
H1474 C1489 0.959 . S
H1475 C1489 0.961 . S
H1476 C1490 0.960 . S
H1477 C1490 0.961 . S
H1478 C1490 0.959 . S
H1479 C1493 0.929 . S
H1480 C1494 0.931 . S
H1481 C1496 0.930 . S
C1482 H1470 0.930 . S
C1482 C1483 1.399 . S
C1482 C1487 1.399 . S
C1483 C1482 1.399 . S
C1483 C1484 1.376 . S
C1484 H1471 0.930 . S
C1484 C1483 1.376 . S
C1484 C1485 1.388 . S
C1485 H1472 0.930 . S
C1485 C1484 1.388 . S
C1485 C1486 1.390 . S
C1486 C1485 1.390 . S
C1486 C1487 1.394 . S
C1486 C1492 1.465 . S
C1487 C1482 1.399 . S
C1487 C1486 1.394 . S
C1487 C1488 1.516 . S
C1488 C1487 1.516 . S
C1488 C1489 1.502 . S
C1488 C1490 1.561 . S
C1488 C1491 1.526 . S
C1489 H1473 0.959 . S
C1489 H1474 0.959 . S
C1489 H1475 0.961 . S
C1489 C1488 1.502 . S
C1490 H1476 0.960 . S
C1490 H1477 0.961 . S
C1490 H1478 0.959 . S
C1490 C1488 1.561 . S
C1491 C1488 1.526 . S
C1491 C1492 1.396 . S
C1491 C1496 1.390 . S
C1492 C1486 1.465 . S
C1492 C1491 1.396 . S
C1492 C1493 1.399 . S
C1493 H1479 0.929 . S
C1493 C1492 1.399 . S
C1493 C1494 1.385 . S
C1494 H1480 0.931 . S
C1494 C1493 1.385 . S
C1494 C1495 1.389 . S
C1495 C1494 1.389 . S
C1495 C1496 1.387 . S
C1496 H1481 0.930 . S
C1496 C1491 1.390 . S
C1496 C1495 1.387 . S
H1497 C1509 0.930 . S
H1498 C1511 0.930 . S
H1499 C1512 0.930 . S
H1500 C1516 0.959 . S
H1501 C1516 0.959 . S
H1502 C1516 0.961 . S
H1503 C1517 0.960 . S
H1504 C1517 0.961 . S
H1505 C1517 0.959 . S
H1506 C1520 0.929 . S
H1507 C1521 0.931 . S
H1508 C1523 0.930 . S
C1509 H1497 0.930 . S
C1509 C1510 1.399 . S
C1509 C1514 1.399 . S
C1510 C1509 1.399 . S
C1510 C1511 1.376 . S
C1511 H1498 0.930 . S
C1511 C1510 1.376 . S
C1511 C1512 1.388 . S
C1512 H1499 0.930 . S
C1512 C1511 1.388 . S
C1512 C1513 1.390 . S
C1513 C1512 1.390 . S
C1513 C1514 1.394 . S
C1513 C1519 1.465 . S
C1514 C1509 1.399 . S
C1514 C1513 1.394 . S
C1514 C1515 1.516 . S
C1515 C1514 1.516 . S
C1515 C1516 1.502 . S
C1515 C1517 1.561 . S
C1515 C1518 1.526 . S
C1516 H1500 0.959 . S
C1516 H1501 0.959 . S
C1516 H1502 0.961 . S
C1516 C1515 1.502 . S
C1517 H1503 0.960 . S
C1517 H1504 0.961 . S
C1517 H1505 0.959 . S
C1517 C1515 1.561 . S
C1518 C1515 1.526 . S
C1518 C1519 1.396 . S
C1518 C1523 1.390 . S
C1519 C1513 1.465 . S
C1519 C1518 1.396 . S
C1519 C1520 1.399 . S
C1520 H1506 0.929 . S
C1520 C1519 1.399 . S
C1520 C1521 1.385 . S
C1521 H1507 0.931 . S
C1521 C1520 1.385 . S
C1521 C1522 1.389 . S
C1522 C1521 1.389 . S
C1522 C1523 1.387 . S
C1523 H1508 0.930 . S
C1523 C1518 1.390 . S
C1523 C1522 1.387 . S
H1524 C1536 0.930 . S
H1525 C1538 0.930 . S
H1526 C1539 0.930 . S
H1527 C1543 0.959 . S
H1528 C1543 0.959 . S
H1529 C1543 0.961 . S
H1530 C1544 0.960 . S
H1531 C1544 0.961 . S
H1532 C1544 0.959 . S
H1533 C1547 0.929 . S
H1534 C1548 0.931 . S
H1535 C1550 0.930 . S
C1536 H1524 0.930 . S
C1536 C1537 1.399 . S
C1536 C1541 1.399 . S
C1537 C1536 1.399 . S
C1537 C1538 1.376 . S
C1538 H1525 0.930 . S
C1538 C1537 1.376 . S
C1538 C1539 1.388 . S
C1539 H1526 0.930 . S
C1539 C1538 1.388 . S
C1539 C1540 1.390 . S
C1540 C1539 1.390 . S
C1540 C1541 1.394 . S
C1540 C1546 1.465 . S
C1541 C1536 1.399 . S
C1541 C1540 1.394 . S
C1541 C1542 1.516 . S
C1542 C1541 1.516 . S
C1542 C1543 1.502 . S
C1542 C1544 1.561 . S
C1542 C1545 1.526 . S
C1543 H1527 0.959 . S
C1543 H1528 0.959 . S
C1543 H1529 0.961 . S
C1543 C1542 1.502 . S
C1544 H1530 0.960 . S
C1544 H1531 0.961 . S
C1544 H1532 0.959 . S
C1544 C1542 1.561 . S
C1545 C1542 1.526 . S
C1545 C1546 1.396 . S
C1545 C1550 1.390 . S
C1546 C1540 1.465 . S
C1546 C1545 1.396 . S
C1546 C1547 1.399 . S
C1547 H1533 0.929 . S
C1547 C1546 1.399 . S
C1547 C1548 1.385 . S
C1548 H1534 0.931 . S
C1548 C1547 1.385 . S
C1548 C1549 1.389 . S
C1549 C1548 1.389 . S
C1549 C1550 1.387 . S
C1550 H1535 0.930 . S
C1550 C1545 1.390 . S
C1550 C1549 1.387 . S
H1551 C1563 0.930 . S
H1552 C1565 0.930 . S
H1553 C1566 0.930 . S
H1554 C1570 0.959 . S
H1555 C1570 0.959 . S
H1556 C1570 0.961 . S
H1557 C1571 0.960 . S
H1558 C1571 0.961 . S
H1559 C1571 0.959 . S
H1560 C1574 0.929 . S
H1561 C1575 0.931 . S
H1562 C1577 0.930 . S
C1563 H1551 0.930 . S
C1563 C1564 1.399 . S
C1563 C1568 1.399 . S
C1564 C1563 1.399 . S
C1564 C1565 1.376 . S
C1565 H1552 0.930 . S
C1565 C1564 1.376 . S
C1565 C1566 1.388 . S
C1566 H1553 0.930 . S
C1566 C1565 1.388 . S
C1566 C1567 1.390 . S
C1567 C1566 1.390 . S
C1567 C1568 1.394 . S
C1567 C1573 1.465 . S
C1568 C1563 1.399 . S
C1568 C1567 1.394 . S
C1568 C1569 1.516 . S
C1569 C1568 1.516 . S
C1569 C1570 1.502 . S
C1569 C1571 1.561 . S
C1569 C1572 1.526 . S
C1570 H1554 0.959 . S
C1570 H1555 0.959 . S
C1570 H1556 0.961 . S
C1570 C1569 1.502 . S
C1571 H1557 0.960 . S
C1571 H1558 0.961 . S
C1571 H1559 0.959 . S
C1571 C1569 1.561 . S
C1572 C1569 1.526 . S
C1572 C1573 1.396 . S
C1572 C1577 1.390 . S
C1573 C1567 1.465 . S
C1573 C1572 1.396 . S
C1573 C1574 1.399 . S
C1574 H1560 0.929 . S
C1574 C1573 1.399 . S
C1574 C1575 1.385 . S
C1575 H1561 0.931 . S
C1575 C1574 1.385 . S
C1575 C1576 1.389 . S
C1576 C1575 1.389 . S
C1576 C1577 1.387 . S
C1577 H1562 0.930 . S
C1577 C1572 1.390 . S
C1577 C1576 1.387 . S
H1578 C1590 0.930 . S
H1579 C1592 0.930 . S
H1580 C1593 0.930 . S
H1581 C1597 0.959 . S
H1582 C1597 0.959 . S
H1583 C1597 0.961 . S
H1584 C1598 0.960 . S
H1585 C1598 0.961 . S
H1586 C1598 0.959 . S
H1587 C1601 0.929 . S
H1588 C1602 0.931 . S
H1589 C1604 0.930 . S
C1590 H1578 0.930 . S
C1590 C1591 1.399 . S
C1590 C1595 1.399 . S
C1591 C1590 1.399 . S
C1591 C1592 1.376 . S
C1592 H1579 0.930 . S
C1592 C1591 1.376 . S
C1592 C1593 1.388 . S
C1593 H1580 0.930 . S
C1593 C1592 1.388 . S
C1593 C1594 1.390 . S
C1594 C1593 1.390 . S
C1594 C1595 1.394 . S
C1594 C1600 1.465 . S
C1595 C1590 1.399 . S
C1595 C1594 1.394 . S
C1595 C1596 1.516 . S
C1596 C1595 1.516 . S
C1596 C1597 1.502 . S
C1596 C1598 1.561 . S
C1596 C1599 1.526 . S
C1597 H1581 0.959 . S
C1597 H1582 0.959 . S
C1597 H1583 0.961 . S
C1597 C1596 1.502 . S
C1598 H1584 0.960 . S
C1598 H1585 0.961 . S
C1598 H1586 0.959 . S
C1598 C1596 1.561 . S
C1599 C1596 1.526 . S
C1599 C1600 1.396 . S
C1599 C1604 1.390 . S
C1600 C1594 1.465 . S
C1600 C1599 1.396 . S
C1600 C1601 1.399 . S
C1601 H1587 0.929 . S
C1601 C1600 1.399 . S
C1601 C1602 1.385 . S
C1602 H1588 0.931 . S
C1602 C1601 1.385 . S
C1602 C1603 1.389 . S
C1603 C1602 1.389 . S
C1603 C1604 1.387 . S
C1604 H1589 0.930 . S
C1604 C1599 1.390 . S
C1604 C1603 1.387 . S
H1605 C1617 0.930 . S
H1606 C1619 0.930 . S
H1607 C1620 0.930 . S
H1608 C1624 0.959 . S
H1609 C1624 0.959 . S
H1610 C1624 0.961 . S
H1611 C1625 0.960 . S
H1612 C1625 0.961 . S
H1613 C1625 0.959 . S
H1614 C1628 0.929 . S
H1615 C1629 0.931 . S
H1616 C1631 0.930 . S
C1617 H1605 0.930 . S
C1617 C1618 1.399 . S
C1617 C1622 1.399 . S
C1618 C1617 1.399 . S
C1618 C1619 1.376 . S
C1619 H1606 0.930 . S
C1619 C1618 1.376 . S
C1619 C1620 1.388 . S
C1620 H1607 0.930 . S
C1620 C1619 1.388 . S
C1620 C1621 1.390 . S
C1621 C1620 1.390 . S
C1621 C1622 1.394 . S
C1621 C1627 1.465 . S
C1622 C1617 1.399 . S
C1622 C1621 1.394 . S
C1622 C1623 1.516 . S
C1623 C1622 1.516 . S
C1623 C1624 1.502 . S
C1623 C1625 1.561 . S
C1623 C1626 1.526 . S
C1624 H1608 0.959 . S
C1624 H1609 0.959 . S
C1624 H1610 0.961 . S
C1624 C1623 1.502 . S
C1625 H1611 0.960 . S
C1625 H1612 0.961 . S
C1625 H1613 0.959 . S
C1625 C1623 1.561 . S
C1626 C1623 1.526 . S
C1626 C1627 1.396 . S
C1626 C1631 1.390 . S
C1627 C1621 1.465 . S
C1627 C1626 1.396 . S
C1627 C1628 1.399 . S
C1628 H1614 0.929 . S
C1628 C1627 1.399 . S
C1628 C1629 1.385 . S
C1629 H1615 0.931 . S
C1629 C1628 1.385 . S
C1629 C1630 1.389 . S
C1630 C1629 1.389 . S
C1630 C1631 1.387 . S
C1631 H1616 0.930 . S
C1631 C1626 1.390 . S
C1631 C1630 1.387 . S
H1632 C1644 0.930 . S
H1633 C1646 0.930 . S
H1634 C1647 0.930 . S
H1635 C1651 0.959 . S
H1636 C1651 0.959 . S
H1637 C1651 0.961 . S
H1638 C1652 0.960 . S
H1639 C1652 0.961 . S
H1640 C1652 0.959 . S
H1641 C1655 0.929 . S
H1642 C1656 0.931 . S
H1643 C1658 0.930 . S
C1644 H1632 0.930 . S
C1644 C1645 1.399 . S
C1644 C1649 1.399 . S
C1645 C1644 1.399 . S
C1645 C1646 1.376 . S
C1646 H1633 0.930 . S
C1646 C1645 1.376 . S
C1646 C1647 1.388 . S
C1647 H1634 0.930 . S
C1647 C1646 1.388 . S
C1647 C1648 1.390 . S
C1648 C1647 1.390 . S
C1648 C1649 1.394 . S
C1648 C1654 1.465 . S
C1649 C1644 1.399 . S
C1649 C1648 1.394 . S
C1649 C1650 1.516 . S
C1650 C1649 1.516 . S
C1650 C1651 1.502 . S
C1650 C1652 1.561 . S
C1650 C1653 1.526 . S
C1651 H1635 0.959 . S
C1651 H1636 0.959 . S
C1651 H1637 0.961 . S
C1651 C1650 1.502 . S
C1652 H1638 0.960 . S
C1652 H1639 0.961 . S
C1652 H1640 0.959 . S
C1652 C1650 1.561 . S
C1653 C1650 1.526 . S
C1653 C1654 1.396 . S
C1653 C1658 1.390 . S
C1654 C1648 1.465 . S
C1654 C1653 1.396 . S
C1654 C1655 1.399 . S
C1655 H1641 0.929 . S
C1655 C1654 1.399 . S
C1655 C1656 1.385 . S
C1656 H1642 0.931 . S
C1656 C1655 1.385 . S
C1656 C1657 1.389 . S
C1657 C1656 1.389 . S
C1657 C1658 1.387 . S
C1658 H1643 0.930 . S
C1658 C1653 1.390 . S
C1658 C1657 1.387 . S
H1659 C1671 0.930 . S
H1660 C1673 0.930 . S
H1661 C1674 0.930 . S
H1662 C1678 0.959 . S
H1663 C1678 0.959 . S
H1664 C1678 0.961 . S
H1665 C1679 0.960 . S
H1666 C1679 0.961 . S
H1667 C1679 0.959 . S
H1668 C1682 0.930 1_455 S
H1669 C1683 0.931 1_455 S
H1670 C1685 0.930 . S
C1671 H1659 0.930 . S
C1671 C1672 1.399 . S
C1671 C1676 1.399 . S
C1672 C1671 1.399 . S
C1672 C1673 1.376 . S
C1673 H1660 0.930 . S
C1673 C1672 1.376 . S
C1673 C1674 1.388 . S
C1674 H1661 0.930 . S
C1674 C1673 1.388 . S
C1674 C1675 1.390 . S
C1675 C1674 1.390 . S
C1675 C1676 1.394 . S
C1675 C1681 1.465 . S
C1676 C1671 1.399 . S
C1676 C1675 1.394 . S
C1676 C1677 1.516 . S
C1677 C1676 1.516 . S
C1677 C1678 1.502 . S
C1677 C1679 1.561 . S
C1677 C1680 1.526 . S
C1678 H1662 0.959 . S
C1678 H1663 0.959 . S
C1678 H1664 0.961 . S
C1678 C1677 1.502 . S
C1679 H1665 0.960 . S
C1679 H1666 0.961 . S
C1679 H1667 0.959 . S
C1679 C1677 1.561 . S
C1680 C1677 1.526 . S
C1680 C1681 1.396 . S
C1680 C1685 1.390 . S
C1681 C1675 1.465 . S
C1681 C1680 1.396 . S
C1681 C1682 1.399 . S
C1682 H1668 0.930 1_655 S
C1682 C1681 1.399 . S
C1682 C1683 1.385 . S
C1683 H1669 0.931 1_655 S
C1683 C1682 1.385 . S
C1683 C1684 1.389 . S
C1684 C1683 1.389 . S
C1684 C1685 1.387 . S
C1685 H1670 0.930 . S
C1685 C1680 1.390 . S
C1685 C1684 1.387 . S
H1686 C1698 0.930 . S
H1687 C1700 0.930 . S
H1688 C1701 0.930 . S
H1689 C1705 0.959 . S
H1690 C1705 0.959 . S
H1691 C1705 0.961 . S
H1692 C1706 0.960 . S
H1693 C1706 0.961 . S
H1694 C1706 0.959 . S
H1695 C1709 0.929 . S
H1696 C1710 0.931 . S
H1697 C1712 0.930 . S
C1698 H1686 0.930 . S
C1698 C1699 1.399 . S
C1698 C1703 1.399 . S
C1699 C1698 1.399 . S
C1699 C1700 1.376 . S
C1700 H1687 0.930 . S
C1700 C1699 1.376 . S
C1700 C1701 1.388 . S
C1701 H1688 0.930 . S
C1701 C1700 1.388 . S
C1701 C1702 1.390 . S
C1702 C1701 1.390 . S
C1702 C1703 1.394 . S
C1702 C1708 1.465 . S
C1703 C1698 1.399 . S
C1703 C1702 1.394 . S
C1703 C1704 1.516 . S
C1704 C1703 1.516 . S
C1704 C1705 1.502 . S
C1704 C1706 1.561 . S
C1704 C1707 1.526 . S
C1705 H1689 0.959 . S
C1705 H1690 0.959 . S
C1705 H1691 0.961 . S
C1705 C1704 1.502 . S
C1706 H1692 0.960 . S
C1706 H1693 0.961 . S
C1706 H1694 0.959 . S
C1706 C1704 1.561 . S
C1707 C1704 1.526 . S
C1707 C1708 1.396 . S
C1707 C1712 1.390 . S
C1708 C1702 1.465 . S
C1708 C1707 1.396 . S
C1708 C1709 1.399 . S
C1709 H1695 0.929 . S
C1709 C1708 1.399 . S
C1709 C1710 1.385 . S
C1710 H1696 0.931 . S
C1710 C1709 1.385 . S
C1710 C1711 1.389 . S
C1711 C1710 1.389 . S
C1711 C1712 1.387 . S
C1712 H1697 0.930 . S
C1712 C1707 1.390 . S
C1712 C1711 1.387 . S
H1713 C1725 0.930 . S
H1714 C1727 0.930 . S
H1715 C1728 0.930 . S
H1716 C1732 0.959 . S
H1717 C1732 0.959 . S
H1718 C1732 0.961 . S
H1719 C1733 0.960 . S
H1720 C1733 0.961 . S
H1721 C1733 0.959 . S
H1722 C1736 0.929 . S
H1723 C1737 0.931 . S
H1724 C1739 0.930 . S
C1725 H1713 0.930 . S
C1725 C1726 1.399 . S
C1725 C1730 1.399 . S
C1726 C1725 1.399 . S
C1726 C1727 1.376 . S
C1727 H1714 0.930 . S
C1727 C1726 1.376 . S
C1727 C1728 1.388 . S
C1728 H1715 0.930 . S
C1728 C1727 1.388 . S
C1728 C1729 1.390 . S
C1729 C1728 1.390 . S
C1729 C1730 1.394 . S
C1729 C1735 1.465 . S
C1730 C1725 1.399 . S
C1730 C1729 1.394 . S
C1730 C1731 1.516 . S
C1731 C1730 1.516 . S
C1731 C1732 1.502 . S
C1731 C1733 1.561 . S
C1731 C1734 1.526 . S
C1732 H1716 0.959 . S
C1732 H1717 0.959 . S
C1732 H1718 0.961 . S
C1732 C1731 1.502 . S
C1733 H1719 0.960 . S
C1733 H1720 0.961 . S
C1733 H1721 0.959 . S
C1733 C1731 1.561 . S
C1734 C1731 1.526 . S
C1734 C1735 1.396 . S
C1734 C1739 1.390 . S
C1735 C1729 1.465 . S
C1735 C1734 1.396 . S
C1735 C1736 1.399 . S
C1736 H1722 0.929 . S
C1736 C1735 1.399 . S
C1736 C1737 1.385 . S
C1737 H1723 0.931 . S
C1737 C1736 1.385 . S
C1737 C1738 1.389 . S
C1738 C1737 1.389 . S
C1738 C1739 1.387 . S
C1739 H1724 0.930 . S
C1739 C1734 1.390 . S
C1739 C1738 1.387 . S
H1740 C1752 0.930 . S
H1741 C1754 0.930 . S
H1742 C1755 0.930 . S
H1743 C1759 0.959 . S
H1744 C1759 0.959 . S
H1745 C1759 0.961 . S
H1746 C1760 0.960 . S
H1747 C1760 0.961 . S
H1748 C1760 0.959 . S
H1749 C1763 0.929 . S
H1750 C1764 0.931 . S
H1751 C1766 0.930 . S
C1752 H1740 0.930 . S
C1752 C1753 1.399 . S
C1752 C1757 1.399 . S
C1753 C1752 1.399 . S
C1753 C1754 1.376 . S
C1754 H1741 0.930 . S
C1754 C1753 1.376 . S
C1754 C1755 1.388 . S
C1755 H1742 0.930 . S
C1755 C1754 1.388 . S
C1755 C1756 1.390 . S
C1756 C1755 1.390 . S
C1756 C1757 1.394 . S
C1756 C1762 1.465 . S
C1757 C1752 1.399 . S
C1757 C1756 1.394 . S
C1757 C1758 1.516 . S
C1758 C1757 1.516 . S
C1758 C1759 1.502 . S
C1758 C1760 1.561 . S
C1758 C1761 1.526 . S
C1759 H1743 0.959 . S
C1759 H1744 0.959 . S
C1759 H1745 0.961 . S
C1759 C1758 1.502 . S
C1760 H1746 0.960 . S
C1760 H1747 0.961 . S
C1760 H1748 0.959 . S
C1760 C1758 1.561 . S
C1761 C1758 1.526 . S
C1761 C1762 1.396 . S
C1761 C1766 1.390 . S
C1762 C1756 1.465 . S
C1762 C1761 1.396 . S
C1762 C1763 1.399 . S
C1763 H1749 0.929 . S
C1763 C1762 1.399 . S
C1763 C1764 1.385 . S
C1764 H1750 0.931 . S
C1764 C1763 1.385 . S
C1764 C1765 1.389 . S
C1765 C1764 1.389 . S
C1765 C1766 1.387 . S
C1766 H1751 0.930 . S
C1766 C1761 1.390 . S
C1766 C1765 1.387 . S
H1767 C1779 0.930 . S
H1768 C1781 0.930 . S
H1769 C1782 0.930 . S
H1770 C1786 0.959 . S
H1771 C1786 0.959 . S
H1772 C1786 0.961 . S
H1773 C1787 0.960 . S
H1774 C1787 0.961 . S
H1775 C1787 0.959 . S
H1776 C1790 0.929 . S
H1777 C1791 0.931 . S
H1778 C1793 0.930 . S
C1779 H1767 0.930 . S
C1779 C1780 1.399 . S
C1779 C1784 1.399 . S
C1780 C1779 1.399 . S
C1780 C1781 1.376 . S
C1781 H1768 0.930 . S
C1781 C1780 1.376 . S
C1781 C1782 1.388 . S
C1782 H1769 0.930 . S
C1782 C1781 1.388 . S
C1782 C1783 1.390 . S
C1783 C1782 1.390 . S
C1783 C1784 1.394 . S
C1783 C1789 1.465 . S
C1784 C1779 1.399 . S
C1784 C1783 1.394 . S
C1784 C1785 1.516 . S
C1785 C1784 1.516 . S
C1785 C1786 1.502 . S
C1785 C1787 1.561 . S
C1785 C1788 1.526 . S
C1786 H1770 0.959 . S
C1786 H1771 0.959 . S
C1786 H1772 0.961 . S
C1786 C1785 1.502 . S
C1787 H1773 0.960 . S
C1787 H1774 0.961 . S
C1787 H1775 0.959 . S
C1787 C1785 1.561 . S
C1788 C1785 1.526 . S
C1788 C1789 1.396 . S
C1788 C1793 1.390 . S
C1789 C1783 1.465 . S
C1789 C1788 1.396 . S
C1789 C1790 1.399 . S
C1790 H1776 0.929 . S
C1790 C1789 1.399 . S
C1790 C1791 1.385 . S
C1791 H1777 0.931 . S
C1791 C1790 1.385 . S
C1791 C1792 1.389 . S
C1792 C1791 1.389 . S
C1792 C1793 1.387 . S
C1793 H1778 0.930 . S
C1793 C1788 1.390 . S
C1793 C1792 1.387 . S
H1794 C1806 0.930 . S
H1795 C1808 0.930 . S
H1796 C1809 0.930 . S
H1797 C1813 0.959 . S
H1798 C1813 0.959 . S
H1799 C1813 0.961 . S
H1800 C1814 0.960 . S
H1801 C1814 0.961 . S
H1802 C1814 0.959 . S
H1803 C1817 0.929 . S
H1804 C1818 0.931 . S
H1805 C1820 0.930 . S
C1806 H1794 0.930 . S
C1806 C1807 1.399 . S
C1806 C1811 1.399 . S
C1807 C1806 1.399 . S
C1807 C1808 1.376 . S
C1808 H1795 0.930 . S
C1808 C1807 1.376 . S
C1808 C1809 1.388 . S
C1809 H1796 0.930 . S
C1809 C1808 1.388 . S
C1809 C1810 1.390 . S
C1810 C1809 1.390 . S
C1810 C1811 1.394 . S
C1810 C1816 1.465 . S
C1811 C1806 1.399 . S
C1811 C1810 1.394 . S
C1811 C1812 1.516 . S
C1812 C1811 1.516 . S
C1812 C1813 1.502 . S
C1812 C1814 1.561 . S
C1812 C1815 1.526 . S
C1813 H1797 0.959 . S
C1813 H1798 0.959 . S
C1813 H1799 0.961 . S
C1813 C1812 1.502 . S
C1814 H1800 0.960 . S
C1814 H1801 0.961 . S
C1814 H1802 0.959 . S
C1814 C1812 1.561 . S
C1815 C1812 1.526 . S
C1815 C1816 1.396 . S
C1815 C1820 1.390 . S
C1816 C1810 1.465 . S
C1816 C1815 1.396 . S
C1816 C1817 1.399 . S
C1817 H1803 0.929 . S
C1817 C1816 1.399 . S
C1817 C1818 1.385 . S
C1818 H1804 0.931 . S
C1818 C1817 1.385 . S
C1818 C1819 1.389 . S
C1819 C1818 1.389 . S
C1819 C1820 1.387 . S
C1820 H1805 0.930 . S
C1820 C1815 1.390 . S
C1820 C1819 1.387 . S
H1821 C1833 0.930 . S
H1822 C1835 0.930 . S
H1823 C1836 0.930 . S
H1824 C1840 0.959 . S
H1825 C1840 0.959 . S
H1826 C1840 0.961 . S
H1827 C1841 0.960 . S
H1828 C1841 0.961 . S
H1829 C1841 0.959 . S
H1830 C1844 0.929 . S
H1831 C1845 0.931 . S
H1832 C1847 0.930 . S
C1833 H1821 0.930 . S
C1833 C1834 1.399 . S
C1833 C1838 1.399 . S
C1834 C1833 1.399 . S
C1834 C1835 1.376 . S
C1835 H1822 0.930 . S
C1835 C1834 1.376 . S
C1835 C1836 1.388 . S
C1836 H1823 0.930 . S
C1836 C1835 1.388 . S
C1836 C1837 1.390 . S
C1837 C1836 1.390 . S
C1837 C1838 1.394 . S
C1837 C1843 1.465 . S
C1838 C1833 1.399 . S
C1838 C1837 1.394 . S
C1838 C1839 1.516 . S
C1839 C1838 1.516 . S
C1839 C1840 1.502 . S
C1839 C1841 1.561 . S
C1839 C1842 1.526 . S
C1840 H1824 0.959 . S
C1840 H1825 0.959 . S
C1840 H1826 0.961 . S
C1840 C1839 1.502 . S
C1841 H1827 0.960 . S
C1841 H1828 0.961 . S
C1841 H1829 0.959 . S
C1841 C1839 1.561 . S
C1842 C1839 1.526 . S
C1842 C1843 1.396 . S
C1842 C1847 1.390 . S
C1843 C1837 1.465 . S
C1843 C1842 1.396 . S
C1843 C1844 1.399 . S
C1844 H1830 0.929 . S
C1844 C1843 1.399 . S
C1844 C1845 1.385 . S
C1845 H1831 0.931 . S
C1845 C1844 1.385 . S
C1845 C1846 1.389 . S
C1846 C1845 1.389 . S
C1846 C1847 1.387 . S
C1847 H1832 0.930 . S
C1847 C1842 1.390 . S
C1847 C1846 1.387 . S
C565 C168 1.705 . S
C577 C7 1.635 . S
C592 N25 0.998 . S
C604 C99 1.158 . S
C619 C122 1.639 . S
C631 C53 1.634 . S
C646 N71 1.196 . S
C658 C145 1.235 . S
C673 N186 0.994 . S
C685 N2 1.073 . S
C700 C30 1.368 . S
C712 C214 1.303 . S
C727 N232 1.020 . S
C739 N48 1.100 . S
C754 C260 1.231 . S
C766 C76 1.262 . S
C781 N94 0.574 . S
C793 N209 0.563 . S
C808 N117 1.282 . S
C820 C237 1.350 . S
C835 N255 0.521 . S
C847 N140 0.794 . S
C862 C191 1.474 . S
C874 N163 1.341 . S
C889 C490 1.705 . S
C901 C283 1.711 . S
C916 N301 0.770 . S
C928 N508 0.838 . S
C943 C329 1.645 . S
C955 C536 1.669 . S
C970 N531 0.820 . S
C982 N347 0.882 . S
C997 N370 0.903 . S
C1009 N485 0.734 . S
C1024 C444 1.374 . S
C1036 C398 1.315 . S
C1051 N278 1.289 . S
C1063 C375 1.261 . S
C1078 C306 1.221 . S
C1090 C421 1.247 . S
C1105 N324 1.304 . S
C1117 C352 1.445 . S
C1132 N393 0.765 . S
C1144 N462 0.911 . S
C1159 N416 0.895 . S
C1171 C513 1.027 . S
C1186 C467 1.034 . S
C1198 N439 0.974 . S
C1213 C108 2.558 . S
C1225 C16 2.375 . S
C1240 C131 1.857 . S
C1252 N35 1.826 . S
C1267 C154 2.692 . S
C1279 C62 2.632 . S
C1294 C177 2.230 . S
C1306 N81 2.248 . S
C1321 N196 2.333 . S
C1333 N265 2.399 . S
C1348 C223 2.099 . S
C1360 C200 2.233 . S
C1375 N242 2.072 . S
C1387 N219 2.146 . S
C1402 C246 1.655 . S
C1414 C269 1.646 . S
C1429 N426 2.270 . S
C1441 N173 2.230 . S
C1456 C292 2.157 . S
C1468 C85 2.197 . S
C1483 N12 2.273 . S
C1495 N311 2.230 . S
C1510 C39 2.512 . S
C1522 C338 2.473 . S
C1537 N127 2.082 . S
C1549 N449 2.119 . S
C1564 N104 1.398 . S
C1576 N357 1.408 . S
C1591 N150 1.424 . S
C1603 N380 1.476 . S
C1618 C384 2.049 . S
C1630 C407 2.234 . S
C1645 N288 1.767 . S
C1657 C430 1.687 . S
C1672 C361 1.994 . S
C1684 C315 2.154 . S
C1699 C453 2.201 . S
C1711 N334 2.324 . S
C1726 N472 2.209 . S
C1738 N541 2.148 . S
C1753 C476 2.229 . S
C1765 C499 2.390 . S
C1780 N518 2.470 . S
C1792 N495 2.415 . S
C1807 C545 1.702 . S
C1819 C522 1.575 . S
C1834 N58 2.510 . S
C1846 N403 2.437 . S
