# Generated by pormake.
# Topology ske, (6)-cn, num edge types: 1
# Building blocks:
#     Node 0, Type 0, BuildingBlock: BETDAH_clean_sbu_0, # of connection points: 6
#     Node 1, Type 0, BuildingBlock: BETDAH_clean_sbu_0, # of connection points: 6
#     Node 2, Type 0, BuildingBlock: BETDAH_clean_sbu_0, # of connection points: 6
#     Node 3, Type 0, BuildingBlock: BETDAH_clean_sbu_0, # of connection points: 6
#     Node 4, Type 0, BuildingBlock: BETDAH_clean_sbu_0, # of connection points: 6
#     Node 5, Type 0, BuildingBlock: BETDAH_clean_sbu_0, # of connection points: 6
#     Node 6, Type 0, BuildingBlock: BETDAH_clean_sbu_0, # of connection points: 6
#     Node 7, Type 0, BuildingBlock: BETDAH_clean_sbu_0, # of connection points: 6
#     Edge 8, Type (0, 0), BuildingBlock: XIVTED_clean_linker_0, # of connection points: 2
#     Edge 9, Type (0, 0), BuildingBlock: XIVTED_clean_linker_0, # of connection points: 2
#     Edge 10, Type (0, 0), BuildingBlock: XIVTED_clean_linker_0, # of connection points: 2
#     Edge 11, Type (0, 0), BuildingBlock: XIVTED_clean_linker_0, # of connection points: 2
#     Edge 12, Type (0, 0), BuildingBlock: XIVTED_clean_linker_0, # of connection points: 2
#     Edge 13, Type (0, 0), BuildingBlock: XIVTED_clean_linker_0, # of connection points: 2
#     Edge 14, Type (0, 0), BuildingBlock: XIVTED_clean_linker_0, # of connection points: 2
#     Edge 15, Type (0, 0), BuildingBlock: XIVTED_clean_linker_0, # of connection points: 2
#     Edge 16, Type (0, 0), BuildingBlock: XIVTED_clean_linker_0, # of connection points: 2
#     Edge 17, Type (0, 0), BuildingBlock: XIVTED_clean_linker_0, # of connection points: 2
#     Edge 18, Type (0, 0), BuildingBlock: XIVTED_clean_linker_0, # of connection points: 2
#     Edge 19, Type (0, 0), BuildingBlock: XIVTED_clean_linker_0, # of connection points: 2
#     Edge 20, Type (0, 0), BuildingBlock: XIVTED_clean_linker_0, # of connection points: 2
#     Edge 21, Type (0, 0), BuildingBlock: XIVTED_clean_linker_0, # of connection points: 2
#     Edge 22, Type (0, 0), BuildingBlock: XIVTED_clean_linker_0, # of connection points: 2
#     Edge 23, Type (0, 0), BuildingBlock: XIVTED_clean_linker_0, # of connection points: 2
#     Edge 24, Type (0, 0), BuildingBlock: XIVTED_clean_linker_0, # of connection points: 2
#     Edge 25, Type (0, 0), BuildingBlock: XIVTED_clean_linker_0, # of connection points: 2
#     Edge 26, Type (0, 0), BuildingBlock: XIVTED_clean_linker_0, # of connection points: 2
#     Edge 27, Type (0, 0), BuildingBlock: XIVTED_clean_linker_0, # of connection points: 2
#     Edge 28, Type (0, 0), BuildingBlock: XIVTED_clean_linker_0, # of connection points: 2
#     Edge 29, Type (0, 0), BuildingBlock: XIVTED_clean_linker_0, # of connection points: 2
#     Edge 30, Type (0, 0), BuildingBlock: XIVTED_clean_linker_0, # of connection points: 2
#     Edge 31, Type (0, 0), BuildingBlock: XIVTED_clean_linker_0, # of connection points: 2
# Relax obj value: 0.206
# Max RMSD: 0.210
# Mean RMSD: 0.203
data_MOF--net-ske--node1-BETDAH_clean_sbu_0--edge1-XIVTED_clean_linker_0
_symmetry_space_group_name_H-M    P1
_symmetry_Int_Tables_number       1
_symmetry_cell_setting            triclinic
loop_
_symmetry_equiv_pos_as_xyz
'x, y, z'
_cell_length_a     103.60698
_cell_length_b     29.128546
_cell_length_c     15.681907
_cell_angle_alpha  90.387363
_cell_angle_beta   89.8509
_cell_angle_gamma 83.762858
loop_
_atom_site_label
_atom_site_type_symbol
_atom_site_fract_x
_atom_site_fract_y
_atom_site_fract_z
_atom_type_partial_charge
Ho0 Ho 0.15447 0.25779 0.5359 0.0
Ho1 Ho 0.12541 0.24884 0.54216 0.0
C2 C 0.14052 0.2477 0.71853 0.0
C3 C 0.17782 0.28205 0.54769 0.0
C4 C 0.19023 0.27499 0.59547 0.0
C5 C 0.19483 0.31274 0.63733 0.0
C6 C 0.20732 0.30902 0.67238 0.0
C7 C 0.2156 0.26746 0.66603 0.0
C8 C 0.21081 0.22918 0.6266 0.0
C9 C 0.1983 0.2329 0.59159 0.0
C10 C 0.14811 0.17 0.52195 0.0
C11 C 0.13988 0.2546 0.3604 0.0
C12 C 0.10211 0.2237 0.53294 0.0
C13 C 0.08826 0.23795 0.51261 0.0
C14 C 0.08203 0.21328 0.45054 0.0
C15 C 0.0685 0.22003 0.44107 0.0
C16 C 0.06086 0.25133 0.49416 0.0
C17 C 0.06717 0.27753 0.55365 0.0
C18 C 0.08069 0.27096 0.56278 0.0
C19 C 0.13152 0.33763 0.54781 0.0
O20 O 0.15011 0.26431 0.67717 0.0
O21 O 0.13096 0.23106 0.677 0.0
O22 O 0.1747 0.24825 0.49931 0.0
O23 O 0.16773 0.30427 0.58584 0.0
O24 O 0.15794 0.18494 0.4842 0.0
O25 O 0.14277 0.20098 0.57068 0.0
O26 O 0.13071 0.23588 0.40289 0.0
O27 O 0.1489 0.27483 0.40118 0.0
O28 O 0.1069 0.24176 0.60069 0.0
O29 O 0.11055 0.21746 0.47065 0.0
O30 O 0.12115 0.32418 0.58125 0.0
O31 O 0.13712 0.30476 0.50492 0.0
H32 H 0.1889 0.34571 0.64073 0.0
H33 H 0.21055 0.33902 0.70351 0.0
H34 H 0.2169 0.19674 0.61966 0.0
H35 H 0.19513 0.20319 0.55912 0.0
H36 H 0.08757 0.18716 0.41182 0.0
H37 H 0.06399 0.199 0.39505 0.0
H38 H 0.06161 0.30247 0.59463 0.0
H39 H 0.08513 0.29051 0.6115 0.0
Ho40 Ho 0.8694 0.25632 0.53355 0.0
Ho41 Ho 0.89858 0.26774 0.53742 0.0
C42 C 0.88363 0.26549 0.71532 0.0
C43 C 0.84651 0.22828 0.54607 0.0
C44 C 0.83388 0.23655 0.59154 0.0
C45 C 0.82881 0.1994 0.63157 0.0
C46 C 0.81622 0.20448 0.66574 0.0
C47 C 0.80834 0.24687 0.66032 0.0
C48 C 0.81358 0.28447 0.62237 0.0
C49 C 0.82619 0.2794 0.5884 0.0
C50 C 0.87492 0.34537 0.52579 0.0
C51 C 0.88377 0.26397 0.35755 0.0
C52 C 0.92157 0.29531 0.52555 0.0
C53 C 0.93553 0.28096 0.50882 0.0
C54 C 0.94223 0.30648 0.45107 0.0
C55 C 0.95578 0.29894 0.44382 0.0
C56 C 0.96298 0.26584 0.49473 0.0
C57 C 0.9562 0.23895 0.55004 0.0
C58 C 0.94263 0.24639 0.55701 0.0
C59 C 0.89298 0.17833 0.53949 0.0
O60 O 0.87408 0.24873 0.67358 0.0
O61 O 0.89316 0.2828 0.67444 0.0
O62 O 0.84946 0.25969 0.49232 0.0
O63 O 0.85659 0.21005 0.58901 0.0
O64 O 0.86455 0.33071 0.49461 0.0
O65 O 0.88094 0.31361 0.5689 0.0
O66 O 0.89265 0.28371 0.40103 0.0
O67 O 0.87504 0.24187 0.3972 0.0
O68 O 0.91661 0.28129 0.59608 0.0
O69 O 0.91346 0.29621 0.46178 0.0
O70 O 0.90341 0.19219 0.57156 0.0
O71 O 0.88707 0.21125 0.49913 0.0
H72 H 0.83445 0.16586 0.63404 0.0
H73 H 0.81251 0.1746 0.69353 0.0
H74 H 0.80788 0.31782 0.61819 0.0
H75 H 0.82979 0.30877 0.55793 0.0
H76 H 0.93701 0.33369 0.41392 0.0
H77 H 0.96064 0.3206 0.40118 0.0
H78 H 0.9614 0.21266 0.58921 0.0
H79 H 0.93777 0.22612 0.6022 0.0
Ho80 Ho 0.12542 0.74847 0.48581 0.0
Ho81 Ho 0.15443 0.75874 0.49514 0.0
C82 C 0.13915 0.75639 0.67022 0.0
C83 C 0.10215 0.7229 0.49004 0.0
C84 C 0.08862 0.73192 0.52125 0.0
C85 C 0.08141 0.6943 0.53181 0.0
C86 C 0.06802 0.70125 0.5471 0.0
C87 C 0.06147 0.74616 0.5524 0.0
C88 C 0.06887 0.78391 0.5455 0.0
C89 C 0.08229 0.77688 0.52981 0.0
C90 C 0.13154 0.837 0.48071 0.0
C91 C 0.14094 0.74788 0.31136 0.0
C92 C 0.17756 0.78507 0.48473 0.0
C93 C 0.19008 0.77824 0.43758 0.0
C94 C 0.19546 0.81697 0.40597 0.0
C95 C 0.20801 0.81272 0.37121 0.0
C96 C 0.21556 0.76953 0.36752 0.0
C97 C 0.21 0.73048 0.39695 0.0
C98 C 0.19742 0.73476 0.43156 0.0
C99 C 0.14851 0.67026 0.50424 0.0
O100 O 0.12969 0.73977 0.62688 0.0
O101 O 0.14869 0.77438 0.63082 0.0
O102 O 0.10606 0.75175 0.43468 0.0
O103 O 0.11129 0.70758 0.54335 0.0
O104 O 0.12182 0.8225 0.44111 0.0
O105 O 0.13683 0.8051 0.52643 0.0
O106 O 0.15023 0.7657 0.35398 0.0
O107 O 0.13152 0.72976 0.35173 0.0
O108 O 0.17456 0.75146 0.53323 0.0
O109 O 0.16746 0.80613 0.44582 0.0
O110 O 0.15856 0.68506 0.5395 0.0
O111 O 0.14298 0.70158 0.45786 0.0
H112 H 0.08605 0.65932 0.52441 0.0
H113 H 0.06273 0.67124 0.55076 0.0
H114 H 0.06426 0.819 0.55068 0.0
H115 H 0.08763 0.80653 0.52166 0.0
H116 H 0.19009 0.85097 0.41074 0.0
H117 H 0.21196 0.84367 0.35024 0.0
H118 H 0.21543 0.69656 0.39397 0.0
H119 H 0.19358 0.70417 0.45545 0.0
Ho120 Ho 0.89954 0.76584 0.48901 0.0
Ho121 Ho 0.87027 0.7559 0.49531 0.0
C122 C 0.88519 0.76011 0.67154 0.0
C123 C 0.92261 0.79291 0.49501 0.0
C124 C 0.93618 0.78458 0.52568 0.0
C125 C 0.94247 0.82262 0.55145 0.0
C126 C 0.95588 0.81792 0.56591 0.0
C127 C 0.96335 0.77497 0.55489 0.0
C128 C 0.95692 0.73632 0.53322 0.0
C129 C 0.94347 0.74109 0.51844 0.0
C130 C 0.89356 0.67693 0.48652 0.0
C131 C 0.8844 0.76365 0.31285 0.0
C132 C 0.84714 0.72967 0.48357 0.0
C133 C 0.83457 0.73724 0.43744 0.0
C134 C 0.83011 0.70048 0.39173 0.0
C135 C 0.81755 0.70443 0.35754 0.0
C136 C 0.80907 0.74522 0.3686 0.0
C137 C 0.81371 0.78256 0.41213 0.0
C138 C 0.82628 0.77861 0.44625 0.0
C139 C 0.8763 0.84443 0.50299 0.0
O140 O 0.8947 0.77671 0.62896 0.0
O141 O 0.87577 0.74155 0.6315 0.0
O142 O 0.91888 0.76457 0.43745 0.0
O143 O 0.91338 0.8072 0.54914 0.0
O144 O 0.90393 0.69031 0.45284 0.0
O145 O 0.88779 0.71011 0.5281 0.0
O146 O 0.87487 0.74705 0.35497 0.0
O147 O 0.89388 0.78142 0.3534 0.0
O148 O 0.85017 0.7623 0.53506 0.0
O149 O 0.85723 0.70942 0.44248 0.0
O150 O 0.866 0.83045 0.53648 0.0
O151 O 0.88201 0.81216 0.45853 0.0
H152 H 0.93709 0.85656 0.55696 0.0
H153 H 0.96044 0.84827 0.58398 0.0
H154 H 0.96235 0.70276 0.5237 0.0
H155 H 0.9389 0.71117 0.49806 0.0
H156 H 0.83622 0.66806 0.38445 0.0
H157 H 0.81445 0.67519 0.32322 0.0
H158 H 0.80746 0.81436 0.4228 0.0
H159 H 0.82934 0.80754 0.48178 0.0
Ho160 Ho 0.65467 0.75773 0.04113 0.0
Ho161 Ho 0.6254 0.74754 0.04728 0.0
C162 C 0.64055 0.74966 0.22349 0.0
C163 C 0.67773 0.78449 0.05323 0.0
C164 C 0.69028 0.77702 0.09966 0.0
C165 C 0.6947 0.81383 0.14542 0.0
C166 C 0.70723 0.80995 0.18002 0.0
C167 C 0.71573 0.76917 0.16934 0.0
C168 C 0.71113 0.73176 0.12577 0.0
C169 C 0.69858 0.73565 0.09124 0.0
C170 C 0.64881 0.66911 0.03305 0.0
C171 C 0.63979 0.75297 0.86484 0.0
C172 C 0.60232 0.72045 0.04172 0.0
C173 C 0.58876 0.72937 1.01169 0.0
C174 C 0.5817 0.69156 0.99801 0.0
C175 C 0.56831 0.69814 0.98326 0.0
C176 C 0.5616 0.74286 0.98165 0.0
C177 C 0.56884 0.78087 0.99194 0.0
C178 C 0.58227 0.7742 1.00706 0.0
C179 C 0.63142 0.83653 0.04907 0.0
O180 O 0.65006 0.76639 0.18146 0.0
O181 O 0.63107 0.73189 0.18287 0.0
O182 O 0.67477 0.75186 1.0015 0.0
O183 O 0.6676 0.80451 0.09423 0.0
O184 O 0.65911 0.68337 1.00014 0.0
O185 O 0.64296 0.70115 0.07753 0.0
O186 O 0.63029 0.73628 0.90747 0.0
O187 O 0.64917 0.7718 0.90483 0.0
O188 O 0.60612 0.74848 0.0996 0.0
O189 O 0.61148 0.7067 0.98674 0.0
O190 O 0.62104 0.82334 0.08287 0.0
O191 O 0.63713 0.80312 1.00792 0.0
H192 H 0.68858 0.84626 0.15243 0.0
H193 H 0.7103 0.83923 0.21437 0.0
H194 H 0.71739 0.69996 0.11538 0.0
H195 H 0.69556 0.70667 0.05572 0.0
H196 H 0.58646 0.65665 1.00238 0.0
H197 H 0.56315 0.66792 0.97696 0.0
H198 H 0.56411 0.81585 0.98968 0.0
H199 H 0.58749 0.80398 0.0177 0.0
Ho200 Ho 0.37041 0.75605 0.04057 0.0
Ho201 Ho 0.39947 0.76557 0.04727 0.0
C202 C 0.38423 0.76658 0.22336 0.0
C203 C 0.34702 0.73206 0.05241 0.0
C204 C 0.33463 0.73891 0.10106 0.0
C205 C 0.32927 0.70016 0.1328 0.0
C206 C 0.31678 0.70445 0.16841 0.0
C207 C 0.30926 0.74768 0.17282 0.0
C208 C 0.31481 0.78675 0.14344 0.0
C209 C 0.32733 0.78244 0.10798 0.0
C210 C 0.37672 0.84374 0.02731 0.0
C211 C 0.38538 0.75675 0.86444 0.0
C212 C 0.42263 0.79181 0.04109 0.0
C213 C 0.43622 0.78377 1.01005 0.0
C214 C 0.44247 0.822 0.98557 0.0
C215 C 0.45591 0.8177 0.97173 0.0
C216 C 0.46345 0.77493 0.98208 0.0
C217 C 0.45707 0.73605 1.00223 0.0
C218 C 0.4436 0.74044 0.01644 0.0
C219 C 0.39339 0.67673 0.05207 0.0
O220 O 0.3747 0.74973 0.18165 0.0
O221 O 0.39377 0.78354 0.18225 0.0
O222 O 0.35015 0.76626 1.00589 0.0
O223 O 0.3571 0.70936 0.08882 0.0
O224 O 0.36705 0.82829 0.98859 0.0
O225 O 0.382 0.81321 0.07642 0.0
O226 O 0.39486 0.77402 0.90653 0.0
O227 O 0.376 0.73855 0.90526 0.0
O228 O 0.41887 0.76315 0.09734 0.0
O229 O 0.4134 0.80674 0.98809 0.0
O230 O 0.4036 0.69066 0.08675 0.0
O231 O 0.38783 0.70925 1.00897 0.0
H232 H 0.33459 0.66612 0.12733 0.0
H233 H 0.31282 0.67349 0.18934 0.0
H234 H 0.30941 0.8207 0.14698 0.0
H235 H 0.33115 0.81305 0.084 0.0
H236 H 0.43703 0.85583 0.9808 0.0
H237 H 0.46043 0.84821 0.95485 0.0
H238 H 0.46256 0.70264 1.01116 0.0
H239 H 0.43906 0.71038 0.03588 0.0
Ho240 Ho 0.62496 0.24763 0.99157 0.0
Ho241 Ho 0.65415 0.25835 0.99409 0.0
C242 C 0.63978 0.2531 0.17156 0.0
C243 C 0.60188 0.22076 1.00173 0.0
C244 C 0.58811 0.23362 0.02645 0.0
C245 C 0.58202 0.2044 0.08071 0.0
C246 C 0.56855 0.21084 0.09352 0.0
C247 C 0.56081 0.24655 0.05186 0.0
C248 C 0.56702 0.27702 1.00036 0.0
C249 C 0.5805 0.27063 0.98774 0.0
C250 C 0.63068 0.3369 0.98902 0.0
C251 C 0.63977 0.24879 0.81336 0.0
C252 C 0.67714 0.28543 0.98014 0.0
C253 C 0.6897 0.27706 0.93373 0.0
C254 C 0.69475 0.31419 0.89357 0.0
C255 C 0.70731 0.30904 0.85889 0.0
C256 C 0.71518 0.2666 0.86395 0.0
C257 C 0.70994 0.22899 0.90191 0.0
C258 C 0.69735 0.23413 0.93639 0.0
C259 C 0.64838 0.16958 1.0031 0.0
O260 O 0.63052 0.23462 0.12954 0.0
O261 O 0.64876 0.27346 0.13069 0.0
O262 O 0.60627 0.24121 0.93551 0.0
O263 O 0.6106 0.21319 0.06165 0.0
O264 O 0.62024 0.32308 0.95721 0.0
O265 O 0.63663 0.304 0.02927 0.0
O266 O 0.64931 0.26607 0.85426 0.0
O267 O 0.63041 0.23108 0.85522 0.0
O268 O 0.6742 0.25383 0.03348 0.0
O269 O 0.66703 0.30431 0.93834 0.0
O270 O 0.65877 0.18403 0.03437 0.0
O271 O 0.64248 0.20137 0.95947 0.0
H272 H 0.58762 0.1754 0.11084 0.0
H273 H 0.56419 0.18719 0.13491 0.0
H274 H 0.56141 0.30466 0.96654 0.0
H275 H 0.58486 0.29362 0.94494 0.0
H276 H 0.68913 0.34778 0.89147 0.0
H277 H 0.71102 0.33892 0.83109 0.0
H278 H 0.71562 0.1956 0.9058 0.0
H279 H 0.69377 0.20477 0.96696 0.0
Ho280 Ho 0.39857 0.26601 0.98669 0.0
Ho281 Ho 0.36968 0.256 0.99611 0.0
C282 C 0.38469 0.25991 0.17089 0.0
C283 C 0.42196 0.29049 0.99228 0.0
C284 C 0.43559 0.27861 0.02009 0.0
C285 C 0.4415 0.31008 0.07125 0.0
C286 C 0.45491 0.30422 0.08572 0.0
C287 C 0.46281 0.26685 0.04886 0.0
C288 C 0.45678 0.23424 1.00066 0.0
C289 C 0.44335 0.24006 0.98637 0.0
C290 C 0.39251 0.17721 0.98206 0.0
C291 C 0.38319 0.26666 0.81239 0.0
C292 C 0.34657 0.2296 0.9852 0.0
C293 C 0.33413 0.23642 0.93767 0.0
C294 C 0.32953 0.19854 0.89626 0.0
C295 C 0.31705 0.20216 0.86106 0.0
C296 C 0.30878 0.24376 0.8668 0.0
C297 C 0.31357 0.28217 0.90581 0.0
C298 C 0.32607 0.27855 0.94092 0.0
C299 C 0.37552 0.34463 1.00694 0.0
O300 O 0.39403 0.27702 0.12738 0.0
O301 O 0.37532 0.2409 0.13146 0.0
O302 O 0.41762 0.26574 0.93112 0.0
O303 O 0.41306 0.30339 0.04951 0.0
O304 O 0.40225 0.19146 0.94238 0.0
O305 O 0.38718 0.20958 0.02747 0.0
O306 O 0.37392 0.2487 0.85476 0.0
O307 O 0.39257 0.28483 0.85313 0.0
O308 O 0.34953 0.26325 0.03452 0.0
O309 O 0.35673 0.20838 0.94619 0.0
O310 O 0.36545 0.32972 0.04183 0.0
O311 O 0.38111 0.31331 0.95978 0.0
H312 H 0.4358 0.34032 0.09741 0.0
H313 H 0.45913 0.3296 0.12448 0.0
H314 H 0.4625 0.20526 0.97049 0.0
H315 H 0.43916 0.21533 0.94594 0.0
H316 H 0.33547 0.16557 0.89325 0.0
H317 H 0.31383 0.17206 0.83025 0.0
H318 H 0.30748 0.31466 0.91228 0.0
H319 H 0.32925 0.30839 0.97294 0.0
H320 H 0.23265 0.33338 0.65572 0.0
H321 H 0.29172 0.17788 0.87729 0.0
H322 H 0.23003 0.19507 0.7462 0.0
H323 H 0.29439 0.316 0.78591 0.0
H324 H 0.26924 0.18333 0.82869 0.0
H325 H 0.25514 0.32788 0.70411 0.0
C326 C 0.23673 0.30195 0.68646 0.0
C327 C 0.22931 0.26469 0.69702 0.0
C328 C 0.27474 0.21245 0.81912 0.0
C329 C 0.25531 0.25792 0.75162 0.0
C330 C 0.28765 0.20926 0.84631 0.0
C331 C 0.29508 0.24648 0.83559 0.0
C332 C 0.2691 0.2532 0.78076 0.0
C333 C 0.28907 0.28655 0.79654 0.0
C334 C 0.24965 0.29873 0.71352 0.0
C335 C 0.23534 0.22454 0.73574 0.0
N336 N 0.27648 0.28881 0.77061 0.0
N337 N 0.24793 0.22227 0.76159 0.0
H338 H 0.73672 0.21948 0.93764 0.0
H339 H 0.78679 0.29381 0.58624 0.0
H340 H 0.72517 0.30421 0.72037 0.0
H341 H 0.79832 0.20936 0.80389 0.0
H342 H 0.76426 0.29854 0.63489 0.0
H343 H 0.75925 0.21473 0.88887 0.0
C344 C 0.73887 0.23675 0.8792 0.0
C345 C 0.72894 0.26223 0.83309 0.0
C346 C 0.77171 0.27903 0.67215 0.0
C347 C 0.7549 0.25745 0.77732 0.0
C348 C 0.78463 0.27659 0.64473 0.0
C349 C 0.79456 0.2512 0.69099 0.0
C350 C 0.7686 0.25595 0.74661 0.0
C351 C 0.79103 0.2289 0.76546 0.0
C352 C 0.75179 0.2343 0.8517 0.0
C353 C 0.73246 0.2846 0.75868 0.0
N354 N 0.77839 0.23181 0.79084 0.0
N355 N 0.74511 0.28167 0.73322 0.0
H356 H 0.29908 0.70193 0.30647 0.0
H357 H 0.22577 0.81506 0.23378 0.0
H358 H 0.28794 0.80186 0.11085 0.0
H359 H 0.23688 0.71561 0.43026 0.0
H360 H 0.24845 0.81065 0.18801 0.0
H361 H 0.27641 0.70637 0.35254 0.0
C362 C 0.29189 0.72477 0.27298 0.0
C363 C 0.29552 0.75154 0.20445 0.0
C364 C 0.24593 0.78972 0.24106 0.0
C365 C 0.2694 0.75697 0.25749 0.0
C366 C 0.23295 0.79235 0.26754 0.0
C367 C 0.22931 0.7657 0.33623 0.0
C368 C 0.25544 0.76028 0.28347 0.0
C369 C 0.23912 0.73637 0.37635 0.0
C370 C 0.27892 0.72741 0.29963 0.0
C371 C 0.28571 0.781 0.16465 0.0
N372 N 0.25169 0.73456 0.34958 0.0
N373 N 0.27315 0.78281 0.19153 0.0
H374 H 0.73235 0.83678 0.16768 0.0
H375 H 0.79243 0.67767 0.37068 0.0
H376 H 0.73063 0.69502 0.2411 0.0
H377 H 0.79414 0.81944 0.29734 0.0
H378 H 0.76991 0.68323 0.32267 0.0
H379 H 0.75485 0.83127 0.21604 0.0
C380 C 0.73663 0.80456 0.19465 0.0
C381 C 0.72946 0.76635 0.20038 0.0
C382 C 0.77521 0.71314 0.31695 0.0
C383 C 0.75547 0.75962 0.25493 0.0
C384 C 0.78814 0.70991 0.3438 0.0
C385 C 0.79532 0.74809 0.33795 0.0
C386 C 0.76929 0.75489 0.28379 0.0
C387 C 0.78903 0.78919 0.30412 0.0
C388 C 0.74955 0.80136 0.22171 0.0
C389 C 0.73574 0.72528 0.23437 0.0
N390 N 0.77643 0.79145 0.27837 0.0
N391 N 0.74834 0.72305 0.26029 0.0
H392 H 0.12724 0.90276 0.35838 0.0
H393 H 0.13723 0.1197 0.64529 0.0
H394 H 0.14136 0.88273 0.61521 0.0
H395 H 0.15203 0.11039 0.3879 0.0
H396 H 0.13333 0.03771 0.63652 0.0
H397 H 0.13109 0.98454 0.36834 0.0
C398 C 0.13112 0.91566 0.41687 0.0
C399 C 0.13405 0.88604 0.48592 0.0
C400 C 0.1374 0.05384 0.58209 0.0
C401 C 0.13807 0.97944 0.49852 0.0
C402 C 0.13955 0.1005 0.58682 0.0
C403 C 0.14501 0.12161 0.51727 0.0
C404 C 0.14033 0.02877 0.50636 0.0
C405 C 0.14788 0.09523 0.44305 0.0
C406 C 0.13332 0.96214 0.4224 0.0
C407 C 0.13906 0.90443 0.56035 0.0
N408 N 0.14538 0.05032 0.43914 0.0
N409 N 0.14077 0.95014 0.56514 0.0
H410 H 0.85789 0.42137 0.49487 0.0
H411 H 0.91015 0.59938 0.45178 0.0
H412 H 0.89816 0.38076 0.55227 0.0
H413 H 0.87126 0.64277 0.53996 0.0
H414 H 0.90586 0.51846 0.46606 0.0
H415 H 0.86243 0.50218 0.48901 0.0
C416 C 0.8677 0.42949 0.50629 0.0
C417 C 0.87767 0.39433 0.5244 0.0
C418 C 0.89829 0.54573 0.48235 0.0
C419 C 0.88297 0.48671 0.51597 0.0
C420 C 0.90069 0.59189 0.47384 0.0
C421 C 0.89102 0.6279 0.49446 0.0
C422 C 0.88602 0.53541 0.50962 0.0
C423 C 0.87897 0.61613 0.52307 0.0
C424 C 0.87026 0.47561 0.5032 0.0
C425 C 0.8902 0.40686 0.5386 0.0
N426 N 0.87676 0.57094 0.52892 0.0
N427 N 0.89253 0.45199 0.53313 0.0
H428 H 0.89925 0.87953 0.4644 0.0
H429 H 0.87052 0.14409 0.49075 0.0
H430 H 0.85974 0.92072 0.54259 0.0
H431 H 0.90982 0.10076 0.5682 0.0
H432 H 0.86653 0.0626 0.47944 0.0
H433 H 0.90358 0.96107 0.47217 0.0
C434 C 0.89149 0.90569 0.48277 0.0
C435 C 0.87914 0.89333 0.50337 0.0
C436 C 0.87603 0.07102 0.49884 0.0
C437 C 0.88392 0.98639 0.51036 0.0
C438 C 0.8783 0.11746 0.50535 0.0
C439 C 0.89047 0.12923 0.53129 0.0
C440 C 0.8861 0.03603 0.51602 0.0
C441 C 0.90026 0.09321 0.5486 0.0
C442 C 0.89397 0.95209 0.4874 0.0
C443 C 0.86942 0.92868 0.52656 0.0
N444 N 0.89791 0.04825 0.54 0.0
N445 N 0.87197 0.97354 0.52872 0.0
H446 H 0.12573 0.63468 0.464 0.0
H447 H 0.15389 0.37093 0.49545 0.0
H448 H 0.16488 0.59475 0.54845 0.0
H449 H 0.11486 0.41566 0.57934 0.0
H450 H 0.15798 0.45215 0.48291 0.0
H451 H 0.1213 0.55339 0.47428 0.0
C452 C 0.13339 0.60883 0.4843 0.0
C453 C 0.14566 0.62145 0.50597 0.0
C454 C 0.14853 0.44407 0.50405 0.0
C455 C 0.14078 0.52874 0.51564 0.0
C456 C 0.1462 0.39782 0.51133 0.0
C457 C 0.13408 0.38655 0.53946 0.0
C458 C 0.13854 0.47934 0.52249 0.0
C459 C 0.12439 0.42285 0.55812 0.0
C460 C 0.13085 0.56262 0.49033 0.0
C461 C 0.15527 0.58655 0.53156 0.0
N462 N 0.12678 0.46764 0.54859 0.0
N463 N 0.15267 0.54179 0.53494 0.0
H464 H 0.66563 0.59353 0.99394 0.0
H465 H 0.61368 0.41411 0.96122 0.0
H466 H 0.62586 0.63297 0.06824 0.0
H467 H 0.65309 0.3717 0.03766 0.0
H468 H 0.61781 0.49524 0.97742 0.0
H469 H 0.66118 0.5127 0.98711 0.0
C470 C 0.65594 0.58518 1.00884 0.0
C471 C 0.64609 0.62007 0.03175 0.0
C472 C 0.62553 0.46812 0.99074 0.0
C473 C 0.64088 0.52755 0.02221 0.0
C474 C 0.62322 0.42186 0.98109 0.0
C475 C 0.63309 0.38607 0.99786 0.0
C476 C 0.6379 0.47876 1.01518 0.0
C477 C 0.64524 0.39817 0.02378 0.0
C478 C 0.65344 0.53901 1.00515 0.0
C479 C 0.63373 0.60715 0.05041 0.0
N480 N 0.64734 0.44343 0.03071 0.0
N481 N 0.63142 0.56196 0.04424 0.0
H482 H 0.37396 0.8989 0.88839 0.0
H483 H 0.38232 0.13451 0.11807 0.0
H484 H 0.3867 0.89797 0.14982 0.0
H485 H 0.39772 0.10802 0.86476 0.0
H486 H 0.3794 0.05202 0.13092 0.0
H487 H 0.37833 0.97988 0.87727 0.0
C488 C 0.3777 0.91581 0.94341 0.0
C489 C 0.38001 0.8918 0.02006 0.0
C490 C 0.38343 0.06441 0.0727 0.0
C491 C 0.38465 0.9846 1.00844 0.0
C492 C 0.38502 0.11138 0.06505 0.0
C493 C 0.39029 0.12799 0.9902 0.0
C494 C 0.38675 0.03421 1.00402 0.0
C495 C 0.39367 0.09652 0.92358 0.0
C496 C 0.38021 0.96186 0.93691 0.0
C497 C 0.38487 0.91526 0.08946 0.0
N498 N 0.39169 0.05125 0.93156 0.0
N499 N 0.38684 0.96066 0.08247 0.0
H500 H 0.35855 0.41996 0.04541 0.0
H501 H 0.41008 0.59967 0.08642 0.0
H502 H 0.39843 0.3809 0.97331 0.0
H503 H 0.37132 0.64183 0.99691 0.0
H504 H 0.406 0.51849 0.07001 0.0
H505 H 0.36294 0.50094 0.05249 0.0
C506 C 0.36824 0.42845 0.03106 0.0
C507 C 0.37815 0.39368 1.00857 0.0
C508 C 0.39842 0.54559 0.05396 0.0
C509 C 0.38328 0.48618 0.01856 0.0
C510 C 0.40069 0.59186 0.06371 0.0
C511 C 0.39099 0.62757 0.04335 0.0
C512 C 0.38623 0.53492 0.02586 0.0
C513 C 0.37904 0.61542 1.01377 0.0
C514 C 0.37071 0.47465 0.03487 0.0
C515 C 0.39052 0.40668 0.99062 0.0
N516 N 0.37693 0.57016 1.00688 0.0
N517 N 0.39279 0.45187 0.99706 0.0
H518 H 0.62512 0.13469 0.97435 0.0
H519 H 0.65376 0.86975 0.9948 0.0
H520 H 0.66517 0.09334 0.03688 0.0
H521 H 0.61487 0.9147 0.08101 0.0
H522 H 0.65783 0.95099 0.98124 0.0
H523 H 0.62076 0.0533 0.98441 0.0
C524 C 0.63299 0.10849 0.9896 0.0
C525 C 0.64551 0.12074 1.00506 0.0
C526 C 0.64841 0.94298 1.0031 0.0
C527 C 0.64067 0.02788 1.015 0.0
C528 C 0.64609 0.89669 1.01089 0.0
C529 C 0.63401 0.88545 0.03987 0.0
C530 C 0.63846 0.97835 0.02217 0.0
C531 C 0.62436 0.92183 0.05903 0.0
C532 C 0.6305 0.0622 0.99565 0.0
C533 C 0.65537 0.08543 0.02479 0.0
N534 N 0.62675 0.96662 0.04921 0.0
N535 N 0.65277 0.04065 0.0285 0.0
H536 H 0.15727 0.28919 0.253 0.0
H537 H 0.12294 0.21323 0.82517 0.0
H538 H 0.12289 0.21764 0.25163 0.0
H539 H 0.15809 0.28046 0.82812 0.0
H540 H 0.12275 0.21441 0.9809 0.0
H541 H 0.15761 0.28655 0.09755 0.0
C542 C 0.14976 0.27295 0.22012 0.0
C543 C 0.14001 0.25365 0.26577 0.0
C544 C 0.13052 0.22881 0.94753 0.0
C545 C 0.14038 0.25045 0.08694 0.0
C546 C 0.13065 0.22813 0.85843 0.0
C547 C 0.14056 0.24679 0.81316 0.0
C548 C 0.14034 0.24839 0.99207 0.0
C549 C 0.15026 0.26563 0.86008 0.0
C550 C 0.14998 0.27142 0.13112 0.0
C551 C 0.13058 0.23303 0.21928 0.0
N552 N 0.14989 0.26602 0.94682 0.0
N553 N 0.131 0.232 0.1325 0.0
H554 H 0.90087 0.30221 0.25205 0.0
H555 H 0.8658 0.23248 0.82204 0.0
H556 H 0.86684 0.22885 0.24687 0.0
H557 H 0.90095 0.29972 0.82509 0.0
H558 H 0.86576 0.23275 0.9777 0.0
H559 H 0.9008 0.30344 0.09609 0.0
C560 C 0.89337 0.28639 0.21826 0.0
C561 C 0.88385 0.26534 0.26293 0.0
C562 C 0.87349 0.24749 0.9444 0.0
C563 C 0.88372 0.26669 0.08398 0.0
C564 C 0.87351 0.24741 0.8553 0.0
C565 C 0.8834 0.26612 0.81004 0.0
C566 C 0.88341 0.26647 0.98904 0.0
C567 C 0.89312 0.2849 0.85705 0.0
C568 C 0.89335 0.28709 0.12909 0.0
C569 C 0.87439 0.24542 0.21542 0.0
N570 N 0.89288 0.28459 0.94383 0.0
N571 N 0.87457 0.2466 0.12874 0.0
H572 H 0.15862 0.78181 0.20451 0.0
H573 H 0.12149 0.7216 0.77647 0.0
H574 H 0.1235 0.71438 0.20223 0.0
H575 H 0.15661 0.78897 0.77995 0.0
H576 H 0.122 0.71868 0.93231 0.0
H577 H 0.15811 0.78413 0.04881 0.0
C578 C 0.15083 0.7673 0.17138 0.0
C579 C 0.14109 0.74784 0.21677 0.0
C580 C 0.12959 0.73415 0.89893 0.0
C581 C 0.14042 0.75061 0.03811 0.0
C582 C 0.12928 0.73592 0.80986 0.0
C583 C 0.13901 0.75559 0.76479 0.0
C584 C 0.1397 0.75214 0.94343 0.0
C585 C 0.14889 0.77348 0.81174 0.0
C586 C 0.15053 0.76873 0.08235 0.0
C587 C 0.13123 0.72969 0.17012 0.0
N588 N 0.14898 0.77129 0.89829 0.0
N589 N 0.13113 0.73159 0.08349 0.0
H590 H 0.90302 0.7937 0.77795 0.0
H591 H 0.86642 0.73137 0.2061 0.0
H592 H 0.86756 0.72828 0.78101 0.0
H593 H 0.90204 0.7958 0.20373 0.0
H594 H 0.8666 0.73054 0.05036 0.0
H595 H 0.9028 0.7951 0.93379 0.0
C596 C 0.89519 0.77956 0.81126 0.0
C597 C 0.8853 0.76079 0.76607 0.0
C598 C 0.87438 0.74491 0.08389 0.0
C599 C 0.88498 0.7624 0.94482 0.0
C600 C 0.87427 0.74545 0.17296 0.0
C601 C 0.88423 0.76372 0.21832 0.0
C602 C 0.88451 0.76275 0.03958 0.0
C603 C 0.89415 0.7814 0.17163 0.0
C604 C 0.89507 0.78041 0.90035 0.0
C605 C 0.87541 0.74306 0.81293 0.0
N606 N 0.89404 0.78044 0.08494 0.0
N607 N 0.8755 0.74431 0.89959 0.0
H608 H 0.65853 0.78187 0.3303 0.0
H609 H 0.62201 0.71906 0.75846 0.0
H610 H 0.62293 0.7173 0.33258 0.0
H611 H 0.65739 0.78489 0.75533 0.0
H612 H 0.62223 0.71763 0.60261 0.0
H613 H 0.65836 0.78254 0.48603 0.0
C614 C 0.65068 0.76773 0.36342 0.0
C615 C 0.64073 0.74948 0.31803 0.0
C616 C 0.62994 0.7324 0.63603 0.0
C617 C 0.64047 0.75025 0.49679 0.0
C618 C 0.62982 0.73327 0.72514 0.0
C619 C 0.63969 0.75218 0.77031 0.0
C620 C 0.64001 0.75054 0.59155 0.0
C621 C 0.64957 0.77 0.72343 0.0
C622 C 0.65059 0.76817 0.45249 0.0
C623 C 0.63082 0.7317 0.3647 0.0
N624 N 0.64947 0.76873 0.63677 0.0
N625 N 0.63094 0.73257 0.4514 0.0
H626 H 0.36777 0.72308 0.75716 0.0
H627 H 0.40188 0.80037 0.33038 0.0
H628 H 0.40266 0.79182 0.75575 0.0
H629 H 0.36671 0.73327 0.33242 0.0
H630 H 0.40227 0.79789 0.48587 0.0
H631 H 0.36731 0.72625 0.60181 0.0
C632 C 0.37538 0.73874 0.72429 0.0
C633 C 0.38529 0.75717 0.76988 0.0
C634 C 0.39444 0.7838 0.45238 0.0
C635 C 0.38476 0.76107 0.5913 0.0
C636 C 0.39419 0.78525 0.36341 0.0
C637 C 0.38423 0.767 0.31796 0.0
C638 C 0.38468 0.76387 0.49662 0.0
C639 C 0.37457 0.74782 0.36458 0.0
C640 C 0.37508 0.7406 0.63538 0.0
C641 C 0.39484 0.77708 0.72345 0.0
N642 N 0.37505 0.74669 0.45125 0.0
N643 N 0.39433 0.77853 0.6368 0.0
H644 H 0.6572 0.28752 0.2794 0.0
H645 H 0.62221 0.21425 0.70622 0.0
H646 H 0.62265 0.2169 0.27983 0.0
H647 H 0.6573 0.2818 0.70424 0.0
H648 H 0.62218 0.21479 0.55041 0.0
H649 H 0.65731 0.28581 0.43493 0.0
C650 C 0.64962 0.27166 0.31208 0.0
C651 C 0.63989 0.25236 0.26616 0.0
C652 C 0.6299 0.22943 0.58404 0.0
C653 C 0.63998 0.25026 0.44497 0.0
C654 C 0.62993 0.22912 0.67316 0.0
C655 C 0.63978 0.248 0.71871 0.0
C656 C 0.63977 0.24883 0.53981 0.0
C657 C 0.64951 0.26682 0.67207 0.0
C658 C 0.6497 0.27067 0.4011 0.0
C659 C 0.63034 0.23224 0.31237 0.0
N660 N 0.64925 0.26679 0.58535 0.0
N661 N 0.63063 0.23175 0.39913 0.0
H662 H 0.40216 0.29591 0.27722 0.0
H663 H 0.36551 0.23289 0.70516 0.0
H664 H 0.36735 0.22677 0.28052 0.0
H665 H 0.40053 0.30084 0.70364 0.0
H666 H 0.3659 0.23139 0.54939 0.0
H667 H 0.40171 0.29858 0.43322 0.0
C668 C 0.39444 0.28119 0.3106 0.0
C669 C 0.38479 0.26105 0.26546 0.0
C670 C 0.37349 0.24672 0.5831 0.0
C671 C 0.38418 0.26415 0.44423 0.0
C672 C 0.37326 0.24767 0.67219 0.0
C673 C 0.383 0.26704 0.71781 0.0
C674 C 0.38354 0.26524 0.53901 0.0
C675 C 0.39281 0.28557 0.67133 0.0
C676 C 0.39418 0.2828 0.39975 0.0
C677 C 0.37501 0.24264 0.31238 0.0
N678 N 0.39283 0.28415 0.58462 0.0
N679 N 0.37496 0.24466 0.39898 0.0
H680 H 0.04487 0.25184 0.35365 0.0
H681 H 0.97957 0.25418 0.63086 0.0
H682 H 0.04377 0.25708 0.62862 0.0
H683 H 0.97955 0.26831 0.35712 0.0
H684 H 1.00323 0.25044 0.62979 0.0
H685 H 0.02114 0.254 0.35227 0.0
C686 C 0.03965 0.25344 0.41372 0.0
C687 C 0.04637 0.25448 0.49136 0.0
C688 C 0.99807 0.25428 0.56985 0.0
C689 C 0.01916 0.25683 0.49024 0.0
C690 C 0.98453 0.256 0.57031 0.0
C691 C 0.97749 0.26144 0.49391 0.0
C692 C 1.00473 0.25781 0.49239 0.0
C693 C 0.98453 0.26451 0.41768 0.0
C694 C 0.02609 0.25484 0.41287 0.0
C695 C 0.03904 0.25693 0.56716 0.0
N696 N 0.99773 0.26259 0.41884 0.0
N697 N 0.02589 0.25785 0.56466 0.0
H698 H 0.98009 0.70578 0.62698 0.0
H699 H 0.04444 0.81336 0.47805 0.0
H700 H 0.97975 0.83547 0.49525 0.0
H701 H 0.04516 0.69479 0.64244 0.0
H702 H 0.02077 0.8216 0.48361 0.0
H703 H 1.00387 0.69997 0.63126 0.0
C704 C 0.98499 0.73304 0.59898 0.0
C705 C 0.97784 0.77126 0.56097 0.0
C706 C 0.0261 0.79389 0.51885 0.0
C707 C 1.00513 0.76483 0.56569 0.0
C708 C 0.03968 0.78934 0.51631 0.0
C709 C 0.04695 0.75326 0.55983 0.0
C710 C 0.01961 0.76201 0.56482 0.0
C711 C 0.04006 0.72273 0.60667 0.0
C712 C 0.99858 0.72981 0.60183 0.0
C713 C 0.98478 0.80569 0.5264 0.0
N714 N 0.02683 0.72767 0.60758 0.0
N715 N 0.99798 0.80154 0.52927 0.0
H716 H 0.54568 0.69222 0.88629 0.0
H717 H 0.47948 0.83582 0.0457 0.0
H718 H 0.5442 0.80811 0.06053 0.0
H719 H 0.48058 0.70652 0.90863 0.0
H720 H 0.50316 0.82976 0.04057 0.0
H721 H 0.52195 0.70026 0.88355 0.0
C722 C 0.54042 0.71937 0.92408 0.0
C723 C 0.54709 0.7494 0.97404 0.0
C724 C 0.49824 0.80274 1.01135 0.0
C725 C 0.51975 0.7591 0.97013 0.0
C726 C 0.48468 0.80633 1.01367 0.0
C727 C 0.47795 0.77174 0.97714 0.0
C728 C 0.50525 0.76434 0.97185 0.0
C729 C 0.48531 0.73388 0.93815 0.0
C730 C 0.52683 0.72401 0.92215 0.0
C731 C 0.53961 0.78446 0.02008 0.0
N732 N 0.49854 0.73125 0.93637 0.0
N733 N 0.5264 0.78823 0.01712 0.0
H734 H 0.48016 0.18867 0.0671 0.0
H735 H 0.54342 0.32535 0.05995 0.0
H736 H 0.47864 0.33689 0.04697 0.0
H737 H 0.54495 0.17665 0.05742 0.0
H738 H 0.51971 0.33043 0.06326 0.0
H739 H 0.50386 0.18379 0.07177 0.0
C740 C 0.48477 0.22023 0.06363 0.0
C741 C 0.47728 0.26328 0.05658 0.0
C742 C 0.52524 0.29668 0.06233 0.0
C743 C 0.50456 0.2579 0.06265 0.0
C744 C 0.53881 0.29372 0.06005 0.0
C745 C 0.5463 0.25048 0.05837 0.0
C746 C 0.51901 0.25613 0.06294 0.0
C747 C 0.53968 0.21079 0.05996 0.0
C748 C 0.49834 0.21741 0.06669 0.0
C749 C 0.48391 0.30296 0.05373 0.0
N750 N 0.52646 0.21459 0.06193 0.0
N751 N 0.49711 0.29928 0.05653 0.0
loop_
_geom_bond_atom_site_label_1
_geom_bond_atom_site_label_2
_geom_bond_distance
_geom_bond_site_symmetry_2
_ccdc_geom_bond_type
Ho0 C3 2.811 . S
Ho0 O20 2.322 . S
Ho0 O22 2.378 . S
Ho0 O23 2.524 . S
Ho0 O24 2.381 . S
Ho0 O25 2.669 . S
Ho0 O27 2.346 . S
Ho0 O31 2.305 . S
Ho1 C12 2.811 . S
Ho1 O21 2.346 . S
Ho1 O25 2.305 . S
Ho1 O26 2.322 . S
Ho1 O28 2.378 . S
Ho1 O29 2.524 . S
Ho1 O30 2.381 . S
Ho1 O31 2.669 . S
C2 O20 1.259 . S
C2 O21 1.268 . S
C3 Ho0 2.811 . S
C3 C4 1.488 . S
C3 O22 1.215 . S
C3 O23 1.289 . S
C4 C3 1.488 . S
C4 C5 1.348 . S
C4 C9 1.413 . S
C5 C4 1.348 . S
C5 C6 1.442 . S
C5 H32 0.930 . S
C6 C5 1.442 . S
C6 C7 1.381 . S
C6 H33 0.931 . S
C7 C6 1.381 . S
C7 C8 1.321 . S
C8 C7 1.321 . S
C8 C9 1.403 . S
C8 H34 0.934 . S
C9 C4 1.413 . S
C9 C8 1.403 . S
C9 H35 0.930 . S
C10 O24 1.275 . S
C10 O25 1.256 . S
C11 O26 1.259 . S
C11 O27 1.268 . S
C12 Ho1 2.811 . S
C12 C13 1.488 . S
C12 O28 1.215 . S
C12 O29 1.289 . S
C13 C12 1.488 . S
C13 C14 1.348 . S
C13 C18 1.413 . S
C14 C13 1.348 . S
C14 C15 1.442 . S
C14 H36 0.930 . S
C15 C14 1.442 . S
C15 C16 1.381 . S
C15 H37 0.931 . S
C16 C15 1.381 . S
C16 C17 1.321 . S
C17 C16 1.321 . S
C17 C18 1.403 . S
C17 H38 0.934 . S
C18 C13 1.413 . S
C18 C17 1.403 . S
C18 H39 0.930 . S
C19 O30 1.275 . S
C19 O31 1.256 . S
O20 Ho0 2.322 . S
O20 C2 1.259 . S
O21 Ho1 2.346 . S
O21 C2 1.268 . S
O22 Ho0 2.378 . S
O22 C3 1.215 . S
O23 Ho0 2.524 . S
O23 C3 1.289 . S
O24 Ho0 2.381 . S
O24 C10 1.275 . S
O25 Ho0 2.669 . S
O25 Ho1 2.305 . S
O25 C10 1.256 . S
O26 Ho1 2.322 . S
O26 C11 1.259 . S
O27 Ho0 2.346 . S
O27 C11 1.268 . S
O28 Ho1 2.378 . S
O28 C12 1.215 . S
O29 Ho1 2.524 . S
O29 C12 1.289 . S
O30 Ho1 2.381 . S
O30 C19 1.275 . S
O31 Ho0 2.305 . S
O31 Ho1 2.669 . S
O31 C19 1.256 . S
H32 C5 0.930 . S
H33 C6 0.931 . S
H34 C8 0.934 . S
H35 C9 0.930 . S
H36 C14 0.930 . S
H37 C15 0.931 . S
H38 C17 0.934 . S
H39 C18 0.930 . S
Ho40 C43 2.811 . S
Ho40 O60 2.322 . S
Ho40 O62 2.378 . S
Ho40 O63 2.524 . S
Ho40 O64 2.381 . S
Ho40 O65 2.669 . S
Ho40 O67 2.346 . S
Ho40 O71 2.305 . S
Ho41 C52 2.811 . S
Ho41 O61 2.346 . S
Ho41 O65 2.305 . S
Ho41 O66 2.322 . S
Ho41 O68 2.378 . S
Ho41 O69 2.524 . S
Ho41 O70 2.381 . S
Ho41 O71 2.669 . S
C42 O60 1.259 . S
C42 O61 1.268 . S
C43 Ho40 2.811 . S
C43 C44 1.488 . S
C43 O62 1.215 . S
C43 O63 1.289 . S
C44 C43 1.488 . S
C44 C45 1.348 . S
C44 C49 1.413 . S
C45 C44 1.348 . S
C45 C46 1.442 . S
C45 H72 0.930 . S
C46 C45 1.442 . S
C46 C47 1.381 . S
C46 H73 0.931 . S
C47 C46 1.381 . S
C47 C48 1.321 . S
C48 C47 1.321 . S
C48 C49 1.403 . S
C48 H74 0.934 . S
C49 C44 1.413 . S
C49 C48 1.403 . S
C49 H75 0.930 . S
C50 O64 1.275 . S
C50 O65 1.256 . S
C51 O66 1.259 . S
C51 O67 1.268 . S
C52 Ho41 2.811 . S
C52 C53 1.488 . S
C52 O68 1.215 . S
C52 O69 1.289 . S
C53 C52 1.488 . S
C53 C54 1.348 . S
C53 C58 1.413 . S
C54 C53 1.348 . S
C54 C55 1.442 . S
C54 H76 0.930 . S
C55 C54 1.442 . S
C55 C56 1.381 . S
C55 H77 0.931 . S
C56 C55 1.381 . S
C56 C57 1.321 . S
C57 C56 1.321 . S
C57 C58 1.403 . S
C57 H78 0.934 . S
C58 C53 1.413 . S
C58 C57 1.403 . S
C58 H79 0.930 . S
C59 O70 1.275 . S
C59 O71 1.256 . S
O60 Ho40 2.322 . S
O60 C42 1.259 . S
O61 Ho41 2.346 . S
O61 C42 1.268 . S
O62 Ho40 2.378 . S
O62 C43 1.215 . S
O63 Ho40 2.524 . S
O63 C43 1.289 . S
O64 Ho40 2.381 . S
O64 C50 1.275 . S
O65 Ho40 2.669 . S
O65 Ho41 2.305 . S
O65 C50 1.256 . S
O66 Ho41 2.322 . S
O66 C51 1.259 . S
O67 Ho40 2.346 . S
O67 C51 1.268 . S
O68 Ho41 2.378 . S
O68 C52 1.215 . S
O69 Ho41 2.524 . S
O69 C52 1.289 . S
O70 Ho41 2.381 . S
O70 C59 1.275 . S
O71 Ho40 2.305 . S
O71 Ho41 2.669 . S
O71 C59 1.256 . S
H72 C45 0.930 . S
H73 C46 0.931 . S
H74 C48 0.934 . S
H75 C49 0.930 . S
H76 C54 0.930 . S
H77 C55 0.931 . S
H78 C57 0.934 . S
H79 C58 0.930 . S
Ho80 C83 2.811 . S
Ho80 O100 2.322 . S
Ho80 O102 2.378 . S
Ho80 O103 2.524 . S
Ho80 O104 2.381 . S
Ho80 O105 2.669 . S
Ho80 O107 2.346 . S
Ho80 O111 2.305 . S
Ho81 C92 2.811 . S
Ho81 O101 2.346 . S
Ho81 O105 2.305 . S
Ho81 O106 2.322 . S
Ho81 O108 2.378 . S
Ho81 O109 2.524 . S
Ho81 O110 2.381 . S
Ho81 O111 2.669 . S
C82 O100 1.259 . S
C82 O101 1.268 . S
C83 Ho80 2.811 . S
C83 C84 1.488 . S
C83 O102 1.215 . S
C83 O103 1.289 . S
C84 C83 1.488 . S
C84 C85 1.348 . S
C84 C89 1.413 . S
C85 C84 1.348 . S
C85 C86 1.442 . S
C85 H112 0.930 . S
C86 C85 1.442 . S
C86 C87 1.381 . S
C86 H113 0.931 . S
C87 C86 1.381 . S
C87 C88 1.321 . S
C88 C87 1.321 . S
C88 C89 1.403 . S
C88 H114 0.934 . S
C89 C84 1.413 . S
C89 C88 1.403 . S
C89 H115 0.930 . S
C90 O104 1.275 . S
C90 O105 1.256 . S
C91 O106 1.259 . S
C91 O107 1.268 . S
C92 Ho81 2.811 . S
C92 C93 1.488 . S
C92 O108 1.215 . S
C92 O109 1.289 . S
C93 C92 1.488 . S
C93 C94 1.348 . S
C93 C98 1.413 . S
C94 C93 1.348 . S
C94 C95 1.442 . S
C94 H116 0.930 . S
C95 C94 1.442 . S
C95 C96 1.381 . S
C95 H117 0.931 . S
C96 C95 1.381 . S
C96 C97 1.321 . S
C97 C96 1.321 . S
C97 C98 1.403 . S
C97 H118 0.934 . S
C98 C93 1.413 . S
C98 C97 1.403 . S
C98 H119 0.930 . S
C99 O110 1.275 . S
C99 O111 1.256 . S
O100 Ho80 2.322 . S
O100 C82 1.259 . S
O101 Ho81 2.346 . S
O101 C82 1.268 . S
O102 Ho80 2.378 . S
O102 C83 1.215 . S
O103 Ho80 2.524 . S
O103 C83 1.289 . S
O104 Ho80 2.381 . S
O104 C90 1.275 . S
O105 Ho80 2.669 . S
O105 Ho81 2.305 . S
O105 C90 1.256 . S
O106 Ho81 2.322 . S
O106 C91 1.259 . S
O107 Ho80 2.346 . S
O107 C91 1.268 . S
O108 Ho81 2.378 . S
O108 C92 1.215 . S
O109 Ho81 2.524 . S
O109 C92 1.289 . S
O110 Ho81 2.381 . S
O110 C99 1.275 . S
O111 Ho80 2.305 . S
O111 Ho81 2.669 . S
O111 C99 1.256 . S
H112 C85 0.930 . S
H113 C86 0.931 . S
H114 C88 0.934 . S
H115 C89 0.930 . S
H116 C94 0.930 . S
H117 C95 0.931 . S
H118 C97 0.934 . S
H119 C98 0.930 . S
Ho120 C123 2.811 . S
Ho120 O140 2.322 . S
Ho120 O142 2.378 . S
Ho120 O143 2.524 . S
Ho120 O144 2.381 . S
Ho120 O145 2.669 . S
Ho120 O147 2.346 . S
Ho120 O151 2.305 . S
Ho121 C132 2.811 . S
Ho121 O141 2.346 . S
Ho121 O145 2.305 . S
Ho121 O146 2.322 . S
Ho121 O148 2.378 . S
Ho121 O149 2.524 . S
Ho121 O150 2.381 . S
Ho121 O151 2.669 . S
C122 O140 1.259 . S
C122 O141 1.268 . S
C123 Ho120 2.811 . S
C123 C124 1.488 . S
C123 O142 1.215 . S
C123 O143 1.289 . S
C124 C123 1.488 . S
C124 C125 1.348 . S
C124 C129 1.413 . S
C125 C124 1.348 . S
C125 C126 1.442 . S
C125 H152 0.930 . S
C126 C125 1.442 . S
C126 C127 1.381 . S
C126 H153 0.931 . S
C127 C126 1.381 . S
C127 C128 1.321 . S
C128 C127 1.321 . S
C128 C129 1.403 . S
C128 H154 0.934 . S
C129 C124 1.413 . S
C129 C128 1.403 . S
C129 H155 0.930 . S
C130 O144 1.275 . S
C130 O145 1.256 . S
C131 O146 1.259 . S
C131 O147 1.268 . S
C132 Ho121 2.811 . S
C132 C133 1.488 . S
C132 O148 1.215 . S
C132 O149 1.289 . S
C133 C132 1.488 . S
C133 C134 1.348 . S
C133 C138 1.413 . S
C134 C133 1.348 . S
C134 C135 1.442 . S
C134 H156 0.930 . S
C135 C134 1.442 . S
C135 C136 1.381 . S
C135 H157 0.931 . S
C136 C135 1.381 . S
C136 C137 1.321 . S
C137 C136 1.321 . S
C137 C138 1.403 . S
C137 H158 0.934 . S
C138 C133 1.413 . S
C138 C137 1.403 . S
C138 H159 0.930 . S
C139 O150 1.275 . S
C139 O151 1.256 . S
O140 Ho120 2.322 . S
O140 C122 1.259 . S
O141 Ho121 2.346 . S
O141 C122 1.268 . S
O142 Ho120 2.378 . S
O142 C123 1.215 . S
O143 Ho120 2.524 . S
O143 C123 1.289 . S
O144 Ho120 2.381 . S
O144 C130 1.275 . S
O145 Ho120 2.669 . S
O145 Ho121 2.305 . S
O145 C130 1.256 . S
O146 Ho121 2.322 . S
O146 C131 1.259 . S
O147 Ho120 2.346 . S
O147 C131 1.268 . S
O148 Ho121 2.378 . S
O148 C132 1.215 . S
O149 Ho121 2.524 . S
O149 C132 1.289 . S
O150 Ho121 2.381 . S
O150 C139 1.275 . S
O151 Ho120 2.305 . S
O151 Ho121 2.669 . S
O151 C139 1.256 . S
H152 C125 0.930 . S
H153 C126 0.931 . S
H154 C128 0.934 . S
H155 C129 0.930 . S
H156 C134 0.930 . S
H157 C135 0.931 . S
H158 C137 0.934 . S
H159 C138 0.930 . S
Ho160 C163 2.811 1_556 S
Ho160 O180 2.322 1_556 S
Ho160 O182 2.378 1_556 S
Ho160 O183 2.524 1_556 S
Ho160 O184 2.381 . S
Ho160 O185 2.669 . S
Ho160 O187 2.346 . S
Ho160 O191 2.305 1_556 S
Ho161 C172 2.811 1_554 S
Ho161 O181 2.346 . S
Ho161 O185 2.305 1_554 S
Ho161 O186 2.322 1_554 S
Ho161 O188 2.378 1_554 S
Ho161 O189 2.524 1_554 S
Ho161 O190 2.381 . S
Ho161 O191 2.669 . S
C162 O180 1.259 . S
C162 O181 1.268 . S
C163 Ho160 2.811 1_554 S
C163 C164 1.488 . S
C163 O182 1.215 . S
C163 O183 1.289 . S
C164 C163 1.488 . S
C164 C165 1.348 . S
C164 C169 1.413 . S
C165 C164 1.348 . S
C165 C166 1.442 . S
C165 H192 0.930 . S
C166 C165 1.442 . S
C166 C167 1.381 . S
C166 H193 0.931 . S
C167 C166 1.381 . S
C167 C168 1.321 . S
C168 C167 1.321 . S
C168 C169 1.403 . S
C168 H194 0.934 . S
C169 C164 1.413 . S
C169 C168 1.403 . S
C169 H195 0.930 . S
C170 O184 1.275 . S
C170 O185 1.256 . S
C171 O186 1.259 . S
C171 O187 1.268 . S
C172 Ho161 2.811 1_556 S
C172 C173 1.488 . S
C172 O188 1.215 . S
C172 O189 1.289 . S
C173 C172 1.488 . S
C173 C174 1.348 . S
C173 C178 1.413 . S
C174 C173 1.348 . S
C174 C175 1.442 . S
C174 H196 0.930 . S
C175 C174 1.442 . S
C175 C176 1.381 . S
C175 H197 0.931 . S
C176 C175 1.381 . S
C176 C177 1.321 . S
C177 C176 1.321 . S
C177 C178 1.403 . S
C177 H198 0.934 . S
C178 C173 1.413 . S
C178 C177 1.403 . S
C178 H199 0.930 . S
C179 O190 1.275 . S
C179 O191 1.256 . S
O180 Ho160 2.322 1_554 S
O180 C162 1.259 . S
O181 Ho161 2.346 . S
O181 C162 1.268 . S
O182 Ho160 2.378 1_554 S
O182 C163 1.215 . S
O183 Ho160 2.524 1_554 S
O183 C163 1.289 . S
O184 Ho160 2.381 . S
O184 C170 1.275 . S
O185 Ho160 2.669 . S
O185 Ho161 2.305 1_556 S
O185 C170 1.256 . S
O186 Ho161 2.322 1_556 S
O186 C171 1.259 . S
O187 Ho160 2.346 . S
O187 C171 1.268 . S
O188 Ho161 2.378 1_556 S
O188 C172 1.215 . S
O189 Ho161 2.524 1_556 S
O189 C172 1.289 . S
O190 Ho161 2.381 . S
O190 C179 1.275 . S
O191 Ho160 2.305 1_554 S
O191 Ho161 2.669 . S
O191 C179 1.256 . S
H192 C165 0.930 . S
H193 C166 0.931 . S
H194 C168 0.934 . S
H195 C169 0.930 . S
H196 C174 0.930 . S
H197 C175 0.931 . S
H198 C177 0.934 . S
H199 C178 0.930 . S
Ho200 C203 2.811 1_556 S
Ho200 O220 2.322 1_556 S
Ho200 O222 2.378 1_556 S
Ho200 O223 2.524 1_556 S
Ho200 O224 2.381 . S
Ho200 O225 2.669 . S
Ho200 O227 2.346 . S
Ho200 O231 2.305 1_556 S
Ho201 C212 2.811 1_554 S
Ho201 O221 2.346 . S
Ho201 O225 2.305 1_554 S
Ho201 O226 2.322 1_554 S
Ho201 O228 2.378 1_554 S
Ho201 O229 2.524 1_554 S
Ho201 O230 2.381 . S
Ho201 O231 2.669 . S
C202 O220 1.259 . S
C202 O221 1.268 . S
C203 Ho200 2.811 1_554 S
C203 C204 1.488 . S
C203 O222 1.215 . S
C203 O223 1.289 . S
C204 C203 1.488 . S
C204 C205 1.348 . S
C204 C209 1.413 . S
C205 C204 1.348 . S
C205 C206 1.442 . S
C205 H232 0.930 . S
C206 C205 1.442 . S
C206 C207 1.381 . S
C206 H233 0.931 . S
C207 C206 1.381 . S
C207 C208 1.321 . S
C208 C207 1.321 . S
C208 C209 1.403 . S
C208 H234 0.934 . S
C209 C204 1.413 . S
C209 C208 1.403 . S
C209 H235 0.930 . S
C210 O224 1.275 . S
C210 O225 1.256 . S
C211 O226 1.259 . S
C211 O227 1.268 . S
C212 Ho201 2.811 1_556 S
C212 C213 1.488 . S
C212 O228 1.215 . S
C212 O229 1.289 . S
C213 C212 1.488 . S
C213 C214 1.348 . S
C213 C218 1.413 . S
C214 C213 1.348 . S
C214 C215 1.442 . S
C214 H236 0.930 . S
C215 C214 1.442 . S
C215 C216 1.381 . S
C215 H237 0.931 . S
C216 C215 1.381 . S
C216 C217 1.321 . S
C217 C216 1.321 . S
C217 C218 1.403 . S
C217 H238 0.934 . S
C218 C213 1.413 . S
C218 C217 1.403 . S
C218 H239 0.930 . S
C219 O230 1.275 . S
C219 O231 1.256 . S
O220 Ho200 2.322 1_554 S
O220 C202 1.259 . S
O221 Ho201 2.346 . S
O221 C202 1.268 . S
O222 Ho200 2.378 1_554 S
O222 C203 1.215 . S
O223 Ho200 2.524 1_554 S
O223 C203 1.289 . S
O224 Ho200 2.381 . S
O224 C210 1.275 . S
O225 Ho200 2.669 . S
O225 Ho201 2.305 1_556 S
O225 C210 1.256 . S
O226 Ho201 2.322 1_556 S
O226 C211 1.259 . S
O227 Ho200 2.346 . S
O227 C211 1.268 . S
O228 Ho201 2.378 1_556 S
O228 C212 1.215 . S
O229 Ho201 2.524 1_556 S
O229 C212 1.289 . S
O230 Ho201 2.381 . S
O230 C219 1.275 . S
O231 Ho200 2.305 1_554 S
O231 Ho201 2.669 . S
O231 C219 1.256 . S
H232 C205 0.930 . S
H233 C206 0.931 . S
H234 C208 0.934 . S
H235 C209 0.930 . S
H236 C214 0.930 . S
H237 C215 0.931 . S
H238 C217 0.934 . S
H239 C218 0.930 . S
Ho240 C243 2.811 1_556 S
Ho240 O260 2.322 1_556 S
Ho240 O262 2.378 1_556 S
Ho240 O263 2.524 1_556 S
Ho240 O264 2.381 . S
Ho240 O265 2.669 . S
Ho240 O267 2.346 . S
Ho240 O271 2.305 1_556 S
Ho241 C252 2.811 1_554 S
Ho241 O261 2.346 . S
Ho241 O265 2.305 1_554 S
Ho241 O266 2.322 1_554 S
Ho241 O268 2.378 1_554 S
Ho241 O269 2.524 1_554 S
Ho241 O270 2.381 . S
Ho241 O271 2.669 . S
C242 O260 1.259 . S
C242 O261 1.268 . S
C243 Ho240 2.811 1_554 S
C243 C244 1.488 . S
C243 O262 1.215 . S
C243 O263 1.289 . S
C244 C243 1.488 . S
C244 C245 1.348 . S
C244 C249 1.413 . S
C245 C244 1.348 . S
C245 C246 1.442 . S
C245 H272 0.930 . S
C246 C245 1.442 . S
C246 C247 1.381 . S
C246 H273 0.931 . S
C247 C246 1.381 . S
C247 C248 1.321 . S
C248 C247 1.321 . S
C248 C249 1.403 . S
C248 H274 0.934 . S
C249 C244 1.413 . S
C249 C248 1.403 . S
C249 H275 0.930 . S
C250 O264 1.275 . S
C250 O265 1.256 . S
C251 O266 1.259 . S
C251 O267 1.268 . S
C252 Ho241 2.811 1_556 S
C252 C253 1.488 . S
C252 O268 1.215 . S
C252 O269 1.289 . S
C253 C252 1.488 . S
C253 C254 1.348 . S
C253 C258 1.413 . S
C254 C253 1.348 . S
C254 C255 1.442 . S
C254 H276 0.930 . S
C255 C254 1.442 . S
C255 C256 1.381 . S
C255 H277 0.931 . S
C256 C255 1.381 . S
C256 C257 1.321 . S
C257 C256 1.321 . S
C257 C258 1.403 . S
C257 H278 0.934 . S
C258 C253 1.413 . S
C258 C257 1.403 . S
C258 H279 0.930 . S
C259 O270 1.275 . S
C259 O271 1.256 . S
O260 Ho240 2.322 1_554 S
O260 C242 1.259 . S
O261 Ho241 2.346 . S
O261 C242 1.268 . S
O262 Ho240 2.378 1_554 S
O262 C243 1.215 . S
O263 Ho240 2.524 1_554 S
O263 C243 1.289 . S
O264 Ho240 2.381 . S
O264 C250 1.275 . S
O265 Ho240 2.669 . S
O265 Ho241 2.305 1_556 S
O265 C250 1.256 . S
O266 Ho241 2.322 1_556 S
O266 C251 1.259 . S
O267 Ho240 2.346 . S
O267 C251 1.268 . S
O268 Ho241 2.378 1_556 S
O268 C252 1.215 . S
O269 Ho241 2.524 1_556 S
O269 C252 1.289 . S
O270 Ho241 2.381 . S
O270 C259 1.275 . S
O271 Ho240 2.305 1_554 S
O271 Ho241 2.669 . S
O271 C259 1.256 . S
H272 C245 0.930 . S
H273 C246 0.931 . S
H274 C248 0.934 . S
H275 C249 0.930 . S
H276 C254 0.930 . S
H277 C255 0.931 . S
H278 C257 0.934 . S
H279 C258 0.930 . S
Ho280 C283 2.811 1_556 S
Ho280 O300 2.322 1_556 S
Ho280 O302 2.378 1_556 S
Ho280 O303 2.524 1_556 S
Ho280 O304 2.381 . S
Ho280 O305 2.669 . S
Ho280 O307 2.346 . S
Ho280 O311 2.305 1_556 S
Ho281 C292 2.811 1_554 S
Ho281 O301 2.346 . S
Ho281 O305 2.305 1_554 S
Ho281 O306 2.322 1_554 S
Ho281 O308 2.378 1_554 S
Ho281 O309 2.524 1_554 S
Ho281 O310 2.381 . S
Ho281 O311 2.669 . S
C282 O300 1.259 . S
C282 O301 1.268 . S
C283 Ho280 2.811 1_554 S
C283 C284 1.488 . S
C283 O302 1.215 . S
C283 O303 1.289 . S
C284 C283 1.488 . S
C284 C285 1.348 . S
C284 C289 1.413 . S
C285 C284 1.348 . S
C285 C286 1.442 . S
C285 H312 0.930 . S
C286 C285 1.442 . S
C286 C287 1.381 . S
C286 H313 0.931 . S
C287 C286 1.381 . S
C287 C288 1.321 . S
C288 C287 1.321 . S
C288 C289 1.403 . S
C288 H314 0.934 . S
C289 C284 1.413 . S
C289 C288 1.403 . S
C289 H315 0.930 . S
C290 O304 1.275 . S
C290 O305 1.256 . S
C291 O306 1.259 . S
C291 O307 1.268 . S
C292 Ho281 2.811 1_556 S
C292 C293 1.488 . S
C292 O308 1.215 . S
C292 O309 1.289 . S
C293 C292 1.488 . S
C293 C294 1.348 . S
C293 C298 1.413 . S
C294 C293 1.348 . S
C294 C295 1.442 . S
C294 H316 0.930 . S
C295 C294 1.442 . S
C295 C296 1.381 . S
C295 H317 0.931 . S
C296 C295 1.381 . S
C296 C297 1.321 . S
C297 C296 1.321 . S
C297 C298 1.403 . S
C297 H318 0.934 . S
C298 C293 1.413 . S
C298 C297 1.403 . S
C298 H319 0.930 . S
C299 O310 1.275 . S
C299 O311 1.256 . S
O300 Ho280 2.322 1_554 S
O300 C282 1.259 . S
O301 Ho281 2.346 . S
O301 C282 1.268 . S
O302 Ho280 2.378 1_554 S
O302 C283 1.215 . S
O303 Ho280 2.524 1_554 S
O303 C283 1.289 . S
O304 Ho280 2.381 . S
O304 C290 1.275 . S
O305 Ho280 2.669 . S
O305 Ho281 2.305 1_556 S
O305 C290 1.256 . S
O306 Ho281 2.322 1_556 S
O306 C291 1.259 . S
O307 Ho280 2.346 . S
O307 C291 1.268 . S
O308 Ho281 2.378 1_556 S
O308 C292 1.215 . S
O309 Ho281 2.524 1_556 S
O309 C292 1.289 . S
O310 Ho281 2.381 . S
O310 C299 1.275 . S
O311 Ho280 2.305 1_554 S
O311 Ho281 2.669 . S
O311 C299 1.256 . S
H312 C285 0.930 . S
H313 C286 0.931 . S
H314 C288 0.934 . S
H315 C289 0.930 . S
H316 C294 0.930 . S
H317 C295 0.931 . S
H318 C297 0.934 . S
H319 C298 0.930 . S
H320 C326 0.930 . S
H321 C330 0.930 . S
H322 C335 0.929 . S
H323 C333 0.929 . S
H324 C328 0.929 . S
H325 C334 0.929 . S
C326 H320 0.930 . S
C326 C327 1.367 . S
C326 C334 1.378 . S
C327 C326 1.367 . S
C327 C335 1.433 . S
C328 H324 0.929 . S
C328 C330 1.378 . S
C328 C332 1.350 . S
C329 C332 1.463 . S
C329 C334 1.350 . S
C329 N337 1.427 . S
C330 H321 0.930 . S
C330 C328 1.378 . S
C330 C331 1.367 . S
C331 C330 1.367 . S
C331 C333 1.433 . S
C332 C328 1.350 . S
C332 C329 1.463 . S
C332 N336 1.427 . S
C333 H323 0.929 . S
C333 C331 1.433 . S
C333 N336 1.384 . S
C334 H325 0.929 . S
C334 C326 1.378 . S
C334 C329 1.350 . S
C335 H322 0.929 . S
C335 C327 1.433 . S
C335 N337 1.384 . S
N336 C332 1.427 . S
N336 C333 1.384 . S
N337 C329 1.427 . S
N337 C335 1.384 . S
H338 C344 0.930 . S
H339 C348 0.930 . S
H340 C353 0.929 . S
H341 C351 0.929 . S
H342 C346 0.929 . S
H343 C352 0.929 . S
C344 H338 0.930 . S
C344 C345 1.367 . S
C344 C352 1.378 . S
C345 C344 1.367 . S
C345 C353 1.433 . S
C346 H342 0.929 . S
C346 C348 1.378 . S
C346 C350 1.350 . S
C347 C350 1.463 . S
C347 C352 1.350 . S
C347 N355 1.427 . S
C348 H339 0.930 . S
C348 C346 1.378 . S
C348 C349 1.367 . S
C349 C348 1.367 . S
C349 C351 1.433 . S
C350 C346 1.350 . S
C350 C347 1.463 . S
C350 N354 1.427 . S
C351 H341 0.929 . S
C351 C349 1.433 . S
C351 N354 1.384 . S
C352 H343 0.929 . S
C352 C344 1.378 . S
C352 C347 1.350 . S
C353 H340 0.929 . S
C353 C345 1.433 . S
C353 N355 1.384 . S
N354 C350 1.427 . S
N354 C351 1.384 . S
N355 C347 1.427 . S
N355 C353 1.384 . S
H356 C362 0.930 . S
H357 C366 0.930 . S
H358 C371 0.929 . S
H359 C369 0.929 . S
H360 C364 0.929 . S
H361 C370 0.929 . S
C362 H356 0.930 . S
C362 C363 1.367 . S
C362 C370 1.378 . S
C363 C362 1.367 . S
C363 C371 1.433 . S
C364 H360 0.929 . S
C364 C366 1.378 . S
C364 C368 1.350 . S
C365 C368 1.463 . S
C365 C370 1.350 . S
C365 N373 1.427 . S
C366 H357 0.930 . S
C366 C364 1.378 . S
C366 C367 1.367 . S
C367 C366 1.367 . S
C367 C369 1.433 . S
C368 C364 1.350 . S
C368 C365 1.463 . S
C368 N372 1.427 . S
C369 H359 0.929 . S
C369 C367 1.433 . S
C369 N372 1.384 . S
C370 H361 0.929 . S
C370 C362 1.378 . S
C370 C365 1.350 . S
C371 H358 0.929 . S
C371 C363 1.433 . S
C371 N373 1.384 . S
N372 C368 1.427 . S
N372 C369 1.384 . S
N373 C365 1.427 . S
N373 C371 1.384 . S
H374 C380 0.930 . S
H375 C384 0.930 . S
H376 C389 0.929 . S
H377 C387 0.929 . S
H378 C382 0.929 . S
H379 C388 0.929 . S
C380 H374 0.930 . S
C380 C381 1.367 . S
C380 C388 1.378 . S
C381 C380 1.367 . S
C381 C389 1.433 . S
C382 H378 0.929 . S
C382 C384 1.378 . S
C382 C386 1.350 . S
C383 C386 1.463 . S
C383 C388 1.350 . S
C383 N391 1.427 . S
C384 H375 0.930 . S
C384 C382 1.378 . S
C384 C385 1.367 . S
C385 C384 1.367 . S
C385 C387 1.433 . S
C386 C382 1.350 . S
C386 C383 1.463 . S
C386 N390 1.427 . S
C387 H377 0.929 . S
C387 C385 1.433 . S
C387 N390 1.384 . S
C388 H379 0.929 . S
C388 C380 1.378 . S
C388 C383 1.350 . S
C389 H376 0.929 . S
C389 C381 1.433 . S
C389 N391 1.384 . S
N390 C386 1.427 . S
N390 C387 1.384 . S
N391 C383 1.427 . S
N391 C389 1.384 . S
H392 C398 0.930 . S
H393 C402 0.930 . S
H394 C407 0.929 . S
H395 C405 0.929 . S
H396 C400 0.929 . S
H397 C406 0.929 . S
C398 H392 0.930 . S
C398 C399 1.367 . S
C398 C406 1.378 . S
C399 C398 1.367 . S
C399 C407 1.433 . S
C400 H396 0.929 . S
C400 C402 1.378 . S
C400 C404 1.350 . S
C401 C404 1.463 1_565 S
C401 C406 1.350 . S
C401 N409 1.427 . S
C402 H393 0.930 . S
C402 C400 1.378 . S
C402 C403 1.367 . S
C403 C402 1.367 . S
C403 C405 1.433 . S
C404 C400 1.350 . S
C404 C401 1.463 1_545 S
C404 N408 1.427 . S
C405 H395 0.929 . S
C405 C403 1.433 . S
C405 N408 1.384 . S
C406 H397 0.929 . S
C406 C398 1.378 . S
C406 C401 1.350 . S
C407 H394 0.929 . S
C407 C399 1.433 . S
C407 N409 1.384 . S
N408 C404 1.427 . S
N408 C405 1.384 . S
N409 C401 1.427 . S
N409 C407 1.384 . S
H410 C416 0.930 . S
H411 C420 0.930 . S
H412 C425 0.929 . S
H413 C423 0.929 . S
H414 C418 0.929 . S
H415 C424 0.929 . S
C416 H410 0.930 . S
C416 C417 1.367 . S
C416 C424 1.378 . S
C417 C416 1.367 . S
C417 C425 1.433 . S
C418 H414 0.929 . S
C418 C420 1.378 . S
C418 C422 1.350 . S
C419 C422 1.463 . S
C419 C424 1.350 . S
C419 N427 1.427 . S
C420 H411 0.930 . S
C420 C418 1.378 . S
C420 C421 1.367 . S
C421 C420 1.367 . S
C421 C423 1.433 . S
C422 C418 1.350 . S
C422 C419 1.463 . S
C422 N426 1.427 . S
C423 H413 0.929 . S
C423 C421 1.433 . S
C423 N426 1.384 . S
C424 H415 0.929 . S
C424 C416 1.378 . S
C424 C419 1.350 . S
C425 H412 0.929 . S
C425 C417 1.433 . S
C425 N427 1.384 . S
N426 C422 1.427 . S
N426 C423 1.384 . S
N427 C419 1.427 . S
N427 C425 1.384 . S
H428 C434 0.930 . S
H429 C438 0.930 . S
H430 C443 0.929 . S
H431 C441 0.929 . S
H432 C436 0.929 . S
H433 C442 0.929 . S
C434 H428 0.930 . S
C434 C435 1.367 . S
C434 C442 1.378 . S
C435 C434 1.367 . S
C435 C443 1.433 . S
C436 H432 0.929 . S
C436 C438 1.378 . S
C436 C440 1.350 . S
C437 C440 1.463 1_565 S
C437 C442 1.350 . S
C437 N445 1.427 . S
C438 H429 0.930 . S
C438 C436 1.378 . S
C438 C439 1.367 . S
C439 C438 1.367 . S
C439 C441 1.433 . S
C440 C436 1.350 . S
C440 C437 1.463 1_545 S
C440 N444 1.427 . S
C441 H431 0.929 . S
C441 C439 1.433 . S
C441 N444 1.384 . S
C442 H433 0.929 . S
C442 C434 1.378 . S
C442 C437 1.350 . S
C443 H430 0.929 . S
C443 C435 1.433 . S
C443 N445 1.384 . S
N444 C440 1.427 . S
N444 C441 1.384 . S
N445 C437 1.427 . S
N445 C443 1.384 . S
H446 C452 0.930 . S
H447 C456 0.930 . S
H448 C461 0.929 . S
H449 C459 0.929 . S
H450 C454 0.929 . S
H451 C460 0.929 . S
C452 H446 0.930 . S
C452 C453 1.367 . S
C452 C460 1.378 . S
C453 C452 1.367 . S
C453 C461 1.433 . S
C454 H450 0.929 . S
C454 C456 1.378 . S
C454 C458 1.350 . S
C455 C458 1.463 . S
C455 C460 1.350 . S
C455 N463 1.427 . S
C456 H447 0.930 . S
C456 C454 1.378 . S
C456 C457 1.367 . S
C457 C456 1.367 . S
C457 C459 1.433 . S
C458 C454 1.350 . S
C458 C455 1.463 . S
C458 N462 1.427 . S
C459 H449 0.929 . S
C459 C457 1.433 . S
C459 N462 1.384 . S
C460 H451 0.929 . S
C460 C452 1.378 . S
C460 C455 1.350 . S
C461 H448 0.929 . S
C461 C453 1.433 . S
C461 N463 1.384 . S
N462 C458 1.427 . S
N462 C459 1.384 . S
N463 C455 1.427 . S
N463 C461 1.384 . S
H464 C470 0.930 . S
H465 C474 0.931 . S
H466 C479 0.930 . S
H467 C477 0.929 . S
H468 C472 0.929 . S
H469 C478 0.929 . S
C470 H464 0.930 . S
C470 C471 1.367 . S
C470 C478 1.378 . S
C471 C470 1.367 . S
C471 C479 1.433 1_556 S
C472 H468 0.929 . S
C472 C474 1.378 . S
C472 C476 1.349 1_554 S
C473 C476 1.463 . S
C473 C478 1.350 . S
C473 N481 1.427 1_556 S
C474 H465 0.931 . S
C474 C472 1.378 . S
C474 C475 1.366 1_554 S
C475 C474 1.366 1_556 S
C475 C477 1.433 . S
C476 C472 1.349 1_556 S
C476 C473 1.463 . S
C476 N480 1.427 . S
C477 H467 0.929 . S
C477 C475 1.433 . S
C477 N480 1.384 . S
C478 H469 0.929 . S
C478 C470 1.378 . S
C478 C473 1.350 . S
C479 H466 0.930 . S
C479 C471 1.433 1_554 S
C479 N481 1.384 . S
N480 C476 1.427 . S
N480 C477 1.384 . S
N481 C473 1.427 1_554 S
N481 C479 1.384 . S
H482 C488 0.930 . S
H483 C492 0.930 . S
H484 C497 0.929 . S
H485 C495 0.929 . S
H486 C490 0.929 . S
H487 C496 0.929 . S
C488 H482 0.930 . S
C488 C489 1.367 . S
C488 C496 1.378 . S
C489 C488 1.367 . S
C489 C497 1.433 1_556 S
C490 H486 0.929 . S
C490 C492 1.378 . S
C490 C494 1.350 1_554 S
C491 C494 1.463 1_565 S
C491 C496 1.350 . S
C491 N499 1.427 1_556 S
C492 H483 0.930 . S
C492 C490 1.378 . S
C492 C493 1.367 1_554 S
C493 C492 1.367 1_556 S
C493 C495 1.433 . S
C494 C490 1.350 1_556 S
C494 C491 1.463 1_545 S
C494 N498 1.427 . S
C495 H485 0.929 . S
C495 C493 1.433 . S
C495 N498 1.384 . S
C496 H487 0.929 . S
C496 C488 1.378 . S
C496 C491 1.350 . S
C497 H484 0.929 . S
C497 C489 1.433 1_554 S
C497 N499 1.384 . S
N498 C494 1.427 . S
N498 C495 1.384 . S
N499 C491 1.427 1_554 S
N499 C497 1.384 . S
H500 C506 0.930 . S
H501 C510 0.930 . S
H502 C515 0.929 . S
H503 C513 0.929 . S
H504 C508 0.929 . S
H505 C514 0.929 . S
C506 H500 0.930 . S
C506 C507 1.367 1_556 S
C506 C514 1.378 . S
C507 C506 1.367 1_554 S
C507 C515 1.433 . S
C508 H504 0.929 . S
C508 C510 1.378 . S
C508 C512 1.350 . S
C509 C512 1.463 . S
C509 C514 1.350 1_554 S
C509 N517 1.427 . S
C510 H501 0.930 . S
C510 C508 1.378 . S
C510 C511 1.367 . S
C511 C510 1.367 . S
C511 C513 1.433 1_554 S
C512 C508 1.350 . S
C512 C509 1.463 . S
C512 N516 1.427 1_554 S
C513 H503 0.929 . S
C513 C511 1.433 1_556 S
C513 N516 1.384 . S
C514 H505 0.929 . S
C514 C506 1.378 . S
C514 C509 1.350 1_556 S
C515 H502 0.929 . S
C515 C507 1.433 . S
C515 N517 1.384 . S
N516 C512 1.427 1_556 S
N516 C513 1.384 . S
N517 C509 1.427 . S
N517 C515 1.384 . S
H518 C524 0.930 . S
H519 C528 0.930 . S
H520 C533 0.929 . S
H521 C531 0.929 . S
H522 C526 0.929 . S
H523 C532 0.929 . S
C524 H518 0.930 . S
C524 C525 1.367 1_556 S
C524 C532 1.378 . S
C525 C524 1.367 1_554 S
C525 C533 1.433 . S
C526 H522 0.929 . S
C526 C528 1.378 . S
C526 C530 1.350 . S
C527 C530 1.463 1_545 S
C527 C532 1.350 1_554 S
C527 N535 1.427 . S
C528 H519 0.930 . S
C528 C526 1.378 . S
C528 C529 1.367 . S
C529 C528 1.367 . S
C529 C531 1.433 1_554 S
C530 C526 1.350 . S
C530 C527 1.463 1_565 S
C530 N534 1.427 1_554 S
C531 H521 0.929 . S
C531 C529 1.433 1_556 S
C531 N534 1.384 . S
C532 H523 0.929 . S
C532 C524 1.378 . S
C532 C527 1.350 1_556 S
C533 H520 0.929 . S
C533 C525 1.433 . S
C533 N535 1.384 . S
N534 C530 1.427 1_556 S
N534 C531 1.384 . S
N535 C527 1.427 . S
N535 C533 1.384 . S
H536 C542 0.930 . S
H537 C546 0.930 . S
H538 C551 0.929 . S
H539 C549 0.929 . S
H540 C544 0.929 . S
H541 C550 0.929 . S
C542 H536 0.930 . S
C542 C543 1.367 . S
C542 C550 1.378 . S
C543 C542 1.367 . S
C543 C551 1.433 . S
C544 H540 0.929 . S
C544 C546 1.378 . S
C544 C548 1.350 . S
C545 C548 1.463 . S
C545 C550 1.350 1_556 S
C545 N553 1.427 1_556 S
C546 H537 0.930 . S
C546 C544 1.378 . S
C546 C547 1.367 . S
C547 C546 1.367 . S
C547 C549 1.433 . S
C548 C544 1.350 . S
C548 C545 1.463 . S
C548 N552 1.427 . S
C549 H539 0.929 . S
C549 C547 1.433 . S
C549 N552 1.384 . S
C550 H541 0.929 . S
C550 C542 1.378 . S
C550 C545 1.350 1_554 S
C551 H538 0.929 . S
C551 C543 1.433 . S
C551 N553 1.384 . S
N552 C548 1.427 . S
N552 C549 1.384 . S
N553 C545 1.427 1_554 S
N553 C551 1.384 . S
H554 C560 0.930 . S
H555 C564 0.930 . S
H556 C569 0.929 . S
H557 C567 0.929 . S
H558 C562 0.929 . S
H559 C568 0.929 1_556 S
C560 H554 0.930 . S
C560 C561 1.367 . S
C560 C568 1.378 . S
C561 C560 1.367 . S
C561 C569 1.433 . S
C562 H558 0.929 . S
C562 C564 1.378 . S
C562 C566 1.350 . S
C563 C566 1.463 . S
C563 C568 1.350 1_556 S
C563 N571 1.427 1_556 S
C564 H555 0.930 . S
C564 C562 1.378 . S
C564 C565 1.367 . S
C565 C564 1.367 . S
C565 C567 1.433 . S
C566 C562 1.350 . S
C566 C563 1.463 . S
C566 N570 1.427 . S
C567 H557 0.929 . S
C567 C565 1.433 . S
C567 N570 1.384 . S
C568 H559 0.929 1_554 S
C568 C560 1.378 . S
C568 C563 1.350 1_554 S
C569 H556 0.929 . S
C569 C561 1.433 . S
C569 N571 1.384 . S
N570 C566 1.427 . S
N570 C567 1.384 . S
N571 C563 1.427 1_554 S
N571 C569 1.384 . S
H572 C578 0.930 . S
H573 C582 0.930 . S
H574 C587 0.929 . S
H575 C585 0.929 . S
H576 C580 0.929 1_554 S
H577 C586 0.929 . S
C578 H572 0.930 . S
C578 C579 1.367 . S
C578 C586 1.378 . S
C579 C578 1.367 . S
C579 C587 1.433 . S
C580 H576 0.929 1_556 S
C580 C582 1.378 . S
C580 C584 1.350 1_556 S
C581 C584 1.463 . S
C581 C586 1.350 . S
C581 N589 1.427 . S
C582 H573 0.930 . S
C582 C580 1.378 . S
C582 C583 1.367 . S
C583 C582 1.367 . S
C583 C585 1.433 . S
C584 C580 1.350 1_554 S
C584 C581 1.463 . S
C584 N588 1.427 1_554 S
C585 H575 0.929 . S
C585 C583 1.433 . S
C585 N588 1.384 . S
C586 H577 0.929 . S
C586 C578 1.378 . S
C586 C581 1.350 . S
C587 H574 0.929 . S
C587 C579 1.433 . S
C587 N589 1.384 . S
N588 C584 1.427 1_556 S
N588 C585 1.384 . S
N589 C581 1.427 . S
N589 C587 1.384 . S
H590 C596 0.930 . S
H591 C600 0.930 . S
H592 C605 0.929 . S
H593 C603 0.929 . S
H594 C598 0.929 . S
H595 C604 0.929 1_554 S
C596 H590 0.930 . S
C596 C597 1.367 . S
C596 C604 1.378 . S
C597 C596 1.367 . S
C597 C605 1.433 . S
C598 H594 0.929 . S
C598 C600 1.378 . S
C598 C602 1.350 . S
C599 C602 1.463 . S
C599 C604 1.350 1_554 S
C599 N607 1.427 1_554 S
C600 H591 0.930 . S
C600 C598 1.378 . S
C600 C601 1.367 . S
C601 C600 1.367 . S
C601 C603 1.433 . S
C602 C598 1.350 . S
C602 C599 1.463 . S
C602 N606 1.427 . S
C603 H593 0.929 . S
C603 C601 1.433 . S
C603 N606 1.384 . S
C604 H595 0.929 1_556 S
C604 C596 1.378 . S
C604 C599 1.350 1_556 S
C605 H592 0.929 . S
C605 C597 1.433 . S
C605 N607 1.384 . S
N606 C602 1.427 . S
N606 C603 1.384 . S
N607 C599 1.427 1_556 S
N607 C605 1.384 . S
H608 C614 0.930 . S
H609 C618 0.930 . S
H610 C623 0.929 . S
H611 C621 0.929 . S
H612 C616 0.929 . S
H613 C622 0.929 . S
C614 H608 0.930 . S
C614 C615 1.367 . S
C614 C622 1.378 . S
C615 C614 1.367 . S
C615 C623 1.433 . S
C616 H612 0.929 . S
C616 C618 1.378 . S
C616 C620 1.350 . S
C617 C620 1.463 . S
C617 C622 1.350 . S
C617 N625 1.427 . S
C618 H609 0.930 . S
C618 C616 1.378 . S
C618 C619 1.367 . S
C619 C618 1.367 . S
C619 C621 1.433 . S
C620 C616 1.350 . S
C620 C617 1.463 . S
C620 N624 1.427 . S
C621 H611 0.929 . S
C621 C619 1.433 . S
C621 N624 1.384 . S
C622 H613 0.929 . S
C622 C614 1.378 . S
C622 C617 1.350 . S
C623 H610 0.929 . S
C623 C615 1.433 . S
C623 N625 1.384 . S
N624 C620 1.427 . S
N624 C621 1.384 . S
N625 C617 1.427 . S
N625 C623 1.384 . S
H626 C632 0.930 . S
H627 C636 0.930 . S
H628 C641 0.929 . S
H629 C639 0.929 . S
H630 C634 0.929 . S
H631 C640 0.929 . S
C632 H626 0.930 . S
C632 C633 1.367 . S
C632 C640 1.378 . S
C633 C632 1.367 . S
C633 C641 1.433 . S
C634 H630 0.929 . S
C634 C636 1.378 . S
C634 C638 1.350 . S
C635 C638 1.463 . S
C635 C640 1.350 . S
C635 N643 1.427 . S
C636 H627 0.930 . S
C636 C634 1.378 . S
C636 C637 1.367 . S
C637 C636 1.367 . S
C637 C639 1.433 . S
C638 C634 1.350 . S
C638 C635 1.463 . S
C638 N642 1.427 . S
C639 H629 0.929 . S
C639 C637 1.433 . S
C639 N642 1.384 . S
C640 H631 0.929 . S
C640 C632 1.378 . S
C640 C635 1.350 . S
C641 H628 0.929 . S
C641 C633 1.433 . S
C641 N643 1.384 . S
N642 C638 1.427 . S
N642 C639 1.384 . S
N643 C635 1.427 . S
N643 C641 1.384 . S
H644 C650 0.930 . S
H645 C654 0.930 . S
H646 C659 0.929 . S
H647 C657 0.929 . S
H648 C652 0.929 . S
H649 C658 0.929 . S
C650 H644 0.930 . S
C650 C651 1.367 . S
C650 C658 1.378 . S
C651 C650 1.367 . S
C651 C659 1.433 . S
C652 H648 0.929 . S
C652 C654 1.378 . S
C652 C656 1.350 . S
C653 C656 1.463 . S
C653 C658 1.350 . S
C653 N661 1.427 . S
C654 H645 0.930 . S
C654 C652 1.378 . S
C654 C655 1.367 . S
C655 C654 1.367 . S
C655 C657 1.433 . S
C656 C652 1.350 . S
C656 C653 1.463 . S
C656 N660 1.427 . S
C657 H647 0.929 . S
C657 C655 1.433 . S
C657 N660 1.384 . S
C658 H649 0.929 . S
C658 C650 1.378 . S
C658 C653 1.350 . S
C659 H646 0.929 . S
C659 C651 1.433 . S
C659 N661 1.384 . S
N660 C656 1.427 . S
N660 C657 1.384 . S
N661 C653 1.427 . S
N661 C659 1.384 . S
H662 C668 0.930 . S
H663 C672 0.930 . S
H664 C677 0.929 . S
H665 C675 0.929 . S
H666 C670 0.929 . S
H667 C676 0.929 . S
C668 H662 0.930 . S
C668 C669 1.367 . S
C668 C676 1.378 . S
C669 C668 1.367 . S
C669 C677 1.433 . S
C670 H666 0.929 . S
C670 C672 1.378 . S
C670 C674 1.350 . S
C671 C674 1.463 . S
C671 C676 1.350 . S
C671 N679 1.427 . S
C672 H663 0.930 . S
C672 C670 1.378 . S
C672 C673 1.367 . S
C673 C672 1.367 . S
C673 C675 1.433 . S
C674 C670 1.350 . S
C674 C671 1.463 . S
C674 N678 1.427 . S
C675 H665 0.929 . S
C675 C673 1.433 . S
C675 N678 1.384 . S
C676 H667 0.929 . S
C676 C668 1.378 . S
C676 C671 1.350 . S
C677 H664 0.929 . S
C677 C669 1.433 . S
C677 N679 1.384 . S
N678 C674 1.427 . S
N678 C675 1.384 . S
N679 C671 1.427 . S
N679 C677 1.384 . S
H680 C686 0.930 . S
H681 C690 0.930 . S
H682 C695 0.929 . S
H683 C693 0.929 . S
H684 C688 0.929 . S
H685 C694 0.929 . S
C686 H680 0.930 . S
C686 C687 1.367 . S
C686 C694 1.378 . S
C687 C686 1.367 . S
C687 C695 1.433 . S
C688 H684 0.929 . S
C688 C690 1.378 . S
C688 C692 1.350 . S
C689 C692 1.463 1_455 S
C689 C694 1.350 . S
C689 N697 1.427 . S
C690 H681 0.930 . S
C690 C688 1.378 . S
C690 C691 1.367 . S
C691 C690 1.367 . S
C691 C693 1.433 . S
C692 C688 1.350 . S
C692 C689 1.463 1_655 S
C692 N696 1.427 . S
C693 H683 0.929 . S
C693 C691 1.433 . S
C693 N696 1.384 . S
C694 H685 0.929 . S
C694 C686 1.378 . S
C694 C689 1.350 . S
C695 H682 0.929 . S
C695 C687 1.433 . S
C695 N697 1.384 . S
N696 C692 1.427 . S
N696 C693 1.384 . S
N697 C689 1.427 . S
N697 C695 1.384 . S
H698 C704 0.930 . S
H699 C708 0.930 . S
H700 C713 0.929 . S
H701 C711 0.929 . S
H702 C706 0.929 . S
H703 C712 0.929 . S
C704 H698 0.930 . S
C704 C705 1.367 . S
C704 C712 1.378 . S
C705 C704 1.367 . S
C705 C713 1.433 . S
C706 H702 0.929 . S
C706 C708 1.378 . S
C706 C710 1.350 . S
C707 C710 1.463 1_655 S
C707 C712 1.350 . S
C707 N715 1.427 . S
C708 H699 0.930 . S
C708 C706 1.378 . S
C708 C709 1.367 . S
C709 C708 1.367 . S
C709 C711 1.433 . S
C710 C706 1.350 . S
C710 C707 1.463 1_455 S
C710 N714 1.427 . S
C711 H701 0.929 . S
C711 C709 1.433 . S
C711 N714 1.384 . S
C712 H703 0.929 . S
C712 C704 1.378 . S
C712 C707 1.350 . S
C713 H700 0.929 . S
C713 C705 1.433 . S
C713 N715 1.384 . S
N714 C710 1.427 . S
N714 C711 1.384 . S
N715 C707 1.427 . S
N715 C713 1.384 . S
H716 C722 0.930 . S
H717 C726 0.930 . S
H718 C731 0.929 . S
H719 C729 0.929 . S
H720 C724 0.929 . S
H721 C730 0.929 . S
C722 H716 0.930 . S
C722 C723 1.367 . S
C722 C730 1.378 . S
C723 C722 1.367 . S
C723 C731 1.433 . S
C724 H720 0.929 . S
C724 C726 1.378 . S
C724 C728 1.350 . S
C725 C728 1.463 . S
C725 C730 1.350 . S
C725 N733 1.427 . S
C726 H717 0.930 . S
C726 C724 1.378 . S
C726 C727 1.367 . S
C727 C726 1.367 . S
C727 C729 1.433 . S
C728 C724 1.350 . S
C728 C725 1.463 . S
C728 N732 1.427 . S
C729 H719 0.929 . S
C729 C727 1.433 . S
C729 N732 1.384 . S
C730 H721 0.929 . S
C730 C722 1.378 . S
C730 C725 1.350 . S
C731 H718 0.929 . S
C731 C723 1.433 . S
C731 N733 1.384 . S
N732 C728 1.427 . S
N732 C729 1.384 . S
N733 C725 1.427 . S
N733 C731 1.384 . S
H734 C740 0.930 . S
H735 C744 0.930 . S
H736 C749 0.929 . S
H737 C747 0.929 . S
H738 C742 0.929 . S
H739 C748 0.929 . S
C740 H734 0.930 . S
C740 C741 1.367 . S
C740 C748 1.378 . S
C741 C740 1.367 . S
C741 C749 1.433 . S
C742 H738 0.929 . S
C742 C744 1.378 . S
C742 C746 1.350 . S
C743 C746 1.463 . S
C743 C748 1.350 . S
C743 N751 1.427 . S
C744 H735 0.930 . S
C744 C742 1.378 . S
C744 C745 1.367 . S
C745 C744 1.367 . S
C745 C747 1.433 . S
C746 C742 1.350 . S
C746 C743 1.463 . S
C746 N750 1.427 . S
C747 H737 0.929 . S
C747 C745 1.433 . S
C747 N750 1.384 . S
C748 H739 0.929 . S
C748 C740 1.378 . S
C748 C743 1.350 . S
C749 H736 0.929 . S
C749 C741 1.433 . S
C749 N751 1.384 . S
N750 C746 1.427 . S
N750 C747 1.384 . S
N751 C743 1.427 . S
N751 C749 1.384 . S
C327 C7 1.680 . S
C331 C296 1.679 . S
C345 C256 1.678 . S
C349 C47 1.677 . S
C363 C207 1.683 . S
C367 C96 1.682 . S
C381 C167 1.680 . S
C385 C136 1.680 . S
C399 C90 1.566 . S
C403 C10 1.579 . S
C417 C50 1.578 . S
C421 C130 1.567 . S
C435 C139 1.590 . S
C439 C59 1.580 . S
C453 C99 1.590 . S
C457 C19 1.580 . S
C471 C170 1.443 . S
C475 C250 1.443 . S
C489 C210 1.447 . S
C493 C290 1.449 . S
C507 C299 1.445 . S
C511 C219 1.444 . S
C525 C259 1.454 . S
C529 C179 1.453 . S
C543 C11 2.069 . S
C547 C2 2.069 . S
C561 C51 2.079 . S
C565 C42 2.079 . S
C579 C91 2.079 . S
C583 C82 2.079 . S
C597 C122 2.075 . S
C601 C131 2.075 . S
C615 C162 2.074 . S
C619 C171 2.074 . S
C633 C211 2.076 . S
C637 C202 2.076 . S
C651 C242 2.070 . S
C655 C251 2.070 . S
C669 C282 2.075 . S
C673 C291 2.075 . S
C687 C16 2.321 . S
C691 C56 2.313 . S
C705 C127 2.320 . S
C709 C87 2.313 . S
C723 C176 2.320 . S
C727 C216 2.315 . S
C741 C287 2.317 . S
C745 C247 2.318 . S
