# Generated by pormake.
# Topology ecv, (8)-cn, num edge types: 1
# Building blocks:
#     Node 0, Type 0, BuildingBlock: TAGTUT_clean_sbu_3, # of connection points: 8
#     Node 1, Type 0, BuildingBlock: TAGTUT_clean_sbu_3, # of connection points: 8
#     Node 2, Type 0, BuildingBlock: TAGTUT_clean_sbu_3, # of connection points: 8
#     Node 3, Type 0, BuildingBlock: TAGTUT_clean_sbu_3, # of connection points: 8
#     Node 4, Type 0, BuildingBlock: TAGTUT_clean_sbu_3, # of connection points: 8
#     Node 5, Type 0, BuildingBlock: TAGTUT_clean_sbu_3, # of connection points: 8
#     Node 6, Type 0, BuildingBlock: TAGTUT_clean_sbu_3, # of connection points: 8
#     Node 7, Type 0, BuildingBlock: TAGTUT_clean_sbu_3, # of connection points: 8
#     Node 8, Type 0, BuildingBlock: TAGTUT_clean_sbu_3, # of connection points: 8
#     Node 9, Type 0, BuildingBlock: TAGTUT_clean_sbu_3, # of connection points: 8
#     Node 10, Type 0, BuildingBlock: TAGTUT_clean_sbu_3, # of connection points: 8
#     Node 11, Type 0, BuildingBlock: TAGTUT_clean_sbu_3, # of connection points: 8
#     Node 12, Type 0, BuildingBlock: TAGTUT_clean_sbu_3, # of connection points: 8
#     Node 13, Type 0, BuildingBlock: TAGTUT_clean_sbu_3, # of connection points: 8
#     Node 14, Type 0, BuildingBlock: TAGTUT_clean_sbu_3, # of connection points: 8
#     Node 15, Type 0, BuildingBlock: TAGTUT_clean_sbu_3, # of connection points: 8
#     Edge 16, Type (0, 0), BuildingBlock: XIVTED_clean_linker_0, # of connection points: 2
#     Edge 17, Type (0, 0), BuildingBlock: XIVTED_clean_linker_0, # of connection points: 2
#     Edge 18, Type (0, 0), BuildingBlock: XIVTED_clean_linker_0, # of connection points: 2
#     Edge 19, Type (0, 0), BuildingBlock: XIVTED_clean_linker_0, # of connection points: 2
#     Edge 20, Type (0, 0), BuildingBlock: XIVTED_clean_linker_0, # of connection points: 2
#     Edge 21, Type (0, 0), BuildingBlock: XIVTED_clean_linker_0, # of connection points: 2
#     Edge 22, Type (0, 0), BuildingBlock: XIVTED_clean_linker_0, # of connection points: 2
#     Edge 23, Type (0, 0), BuildingBlock: XIVTED_clean_linker_0, # of connection points: 2
#     Edge 24, Type (0, 0), BuildingBlock: XIVTED_clean_linker_0, # of connection points: 2
#     Edge 25, Type (0, 0), BuildingBlock: XIVTED_clean_linker_0, # of connection points: 2
#     Edge 26, Type (0, 0), BuildingBlock: XIVTED_clean_linker_0, # of connection points: 2
#     Edge 27, Type (0, 0), BuildingBlock: XIVTED_clean_linker_0, # of connection points: 2
#     Edge 28, Type (0, 0), BuildingBlock: XIVTED_clean_linker_0, # of connection points: 2
#     Edge 29, Type (0, 0), BuildingBlock: XIVTED_clean_linker_0, # of connection points: 2
#     Edge 30, Type (0, 0), BuildingBlock: XIVTED_clean_linker_0, # of connection points: 2
#     Edge 31, Type (0, 0), BuildingBlock: XIVTED_clean_linker_0, # of connection points: 2
#     Edge 32, Type (0, 0), BuildingBlock: XIVTED_clean_linker_0, # of connection points: 2
#     Edge 33, Type (0, 0), BuildingBlock: XIVTED_clean_linker_0, # of connection points: 2
#     Edge 34, Type (0, 0), BuildingBlock: XIVTED_clean_linker_0, # of connection points: 2
#     Edge 35, Type (0, 0), BuildingBlock: XIVTED_clean_linker_0, # of connection points: 2
#     Edge 36, Type (0, 0), BuildingBlock: XIVTED_clean_linker_0, # of connection points: 2
#     Edge 37, Type (0, 0), BuildingBlock: XIVTED_clean_linker_0, # of connection points: 2
#     Edge 38, Type (0, 0), BuildingBlock: XIVTED_clean_linker_0, # of connection points: 2
#     Edge 39, Type (0, 0), BuildingBlock: XIVTED_clean_linker_0, # of connection points: 2
#     Edge 40, Type (0, 0), BuildingBlock: XIVTED_clean_linker_0, # of connection points: 2
#     Edge 41, Type (0, 0), BuildingBlock: XIVTED_clean_linker_0, # of connection points: 2
#     Edge 42, Type (0, 0), BuildingBlock: XIVTED_clean_linker_0, # of connection points: 2
#     Edge 43, Type (0, 0), BuildingBlock: XIVTED_clean_linker_0, # of connection points: 2
#     Edge 44, Type (0, 0), BuildingBlock: XIVTED_clean_linker_0, # of connection points: 2
#     Edge 45, Type (0, 0), BuildingBlock: XIVTED_clean_linker_0, # of connection points: 2
#     Edge 46, Type (0, 0), BuildingBlock: XIVTED_clean_linker_0, # of connection points: 2
#     Edge 47, Type (0, 0), BuildingBlock: XIVTED_clean_linker_0, # of connection points: 2
#     Edge 48, Type (0, 0), BuildingBlock: XIVTED_clean_linker_0, # of connection points: 2
#     Edge 49, Type (0, 0), BuildingBlock: XIVTED_clean_linker_0, # of connection points: 2
#     Edge 50, Type (0, 0), BuildingBlock: XIVTED_clean_linker_0, # of connection points: 2
#     Edge 51, Type (0, 0), BuildingBlock: XIVTED_clean_linker_0, # of connection points: 2
#     Edge 52, Type (0, 0), BuildingBlock: XIVTED_clean_linker_0, # of connection points: 2
#     Edge 53, Type (0, 0), BuildingBlock: XIVTED_clean_linker_0, # of connection points: 2
#     Edge 54, Type (0, 0), BuildingBlock: XIVTED_clean_linker_0, # of connection points: 2
#     Edge 55, Type (0, 0), BuildingBlock: XIVTED_clean_linker_0, # of connection points: 2
#     Edge 56, Type (0, 0), BuildingBlock: XIVTED_clean_linker_0, # of connection points: 2
#     Edge 57, Type (0, 0), BuildingBlock: XIVTED_clean_linker_0, # of connection points: 2
#     Edge 58, Type (0, 0), BuildingBlock: XIVTED_clean_linker_0, # of connection points: 2
#     Edge 59, Type (0, 0), BuildingBlock: XIVTED_clean_linker_0, # of connection points: 2
#     Edge 60, Type (0, 0), BuildingBlock: XIVTED_clean_linker_0, # of connection points: 2
#     Edge 61, Type (0, 0), BuildingBlock: XIVTED_clean_linker_0, # of connection points: 2
#     Edge 62, Type (0, 0), BuildingBlock: XIVTED_clean_linker_0, # of connection points: 2
#     Edge 63, Type (0, 0), BuildingBlock: XIVTED_clean_linker_0, # of connection points: 2
#     Edge 64, Type (0, 0), BuildingBlock: XIVTED_clean_linker_0, # of connection points: 2
#     Edge 65, Type (0, 0), BuildingBlock: XIVTED_clean_linker_0, # of connection points: 2
#     Edge 66, Type (0, 0), BuildingBlock: XIVTED_clean_linker_0, # of connection points: 2
#     Edge 67, Type (0, 0), BuildingBlock: XIVTED_clean_linker_0, # of connection points: 2
#     Edge 68, Type (0, 0), BuildingBlock: XIVTED_clean_linker_0, # of connection points: 2
#     Edge 69, Type (0, 0), BuildingBlock: XIVTED_clean_linker_0, # of connection points: 2
#     Edge 70, Type (0, 0), BuildingBlock: XIVTED_clean_linker_0, # of connection points: 2
#     Edge 71, Type (0, 0), BuildingBlock: XIVTED_clean_linker_0, # of connection points: 2
#     Edge 72, Type (0, 0), BuildingBlock: XIVTED_clean_linker_0, # of connection points: 2
#     Edge 73, Type (0, 0), BuildingBlock: XIVTED_clean_linker_0, # of connection points: 2
#     Edge 74, Type (0, 0), BuildingBlock: XIVTED_clean_linker_0, # of connection points: 2
#     Edge 75, Type (0, 0), BuildingBlock: XIVTED_clean_linker_0, # of connection points: 2
#     Edge 76, Type (0, 0), BuildingBlock: XIVTED_clean_linker_0, # of connection points: 2
#     Edge 77, Type (0, 0), BuildingBlock: XIVTED_clean_linker_0, # of connection points: 2
#     Edge 78, Type (0, 0), BuildingBlock: XIVTED_clean_linker_0, # of connection points: 2
#     Edge 79, Type (0, 0), BuildingBlock: XIVTED_clean_linker_0, # of connection points: 2
# Relax obj value: 0.120
# Max RMSD: 0.209
# Mean RMSD: 0.191
data_MOF--net-ecv--node1-TAGTUT_clean_sbu_3--edge1-XIVTED_clean_linker_0
_symmetry_space_group_name_H-M    P1
_symmetry_Int_Tables_number       1
_symmetry_cell_setting            triclinic
loop_
_symmetry_equiv_pos_as_xyz
'x, y, z'
_cell_length_a     21.847179
_cell_length_b     24.115257
_cell_length_c     121.23934
_cell_angle_alpha  88.347996
_cell_angle_beta   89.962507
_cell_angle_gamma 89.958812
loop_
_atom_site_label
_atom_site_type_symbol
_atom_site_fract_x
_atom_site_fract_y
_atom_site_fract_z
_atom_type_partial_charge
C0 C 0.01992 0.07694 0.46354 0.0
C1 C 0.21122 0.2057 0.46343 0.0
C2 C 0.16938 0.23621 0.43098 0.0
Mg3 Mg 0.95046 0.02537 0.44222 0.0
Mg4 Mg 0.02416 0.99237 0.41932 0.0
O5 O 0.00676 0.04595 0.42981 0.0
Mg6 Mg 0.07153 0.08122 0.4384 0.0
O7 O 0.13109 0.12017 0.4481 0.0
Mg8 Mg 0.07825 0.18822 0.45103 0.0
Mg9 Mg 0.20759 0.13578 0.44208 0.0
C10 C 0.11514 0.08652 0.41165 0.0
O11 O 0.1417 0.0073 0.43809 0.0
O12 O 0.87979 0.00825 0.42831 0.0
O13 O 0.23277 0.05107 0.43881 0.0
O14 O 0.98438 0.93567 0.44183 0.0
O15 O 0.93235 0.98664 0.41304 0.0
O16 O 0.04861 0.91775 0.42811 0.0
O17 O 0.00819 0.15822 0.43874 0.0
O18 O 0.91971 0.11532 0.44199 0.0
C19 C 0.95035 0.15998 0.44049 0.0
C20 C 0.88189 -0.00407 0.41806 0.0
O21 O 0.11166 0.10881 0.42117 0.0
O22 O 0.15282 0.21037 0.46309 0.0
O23 O 0.09002 0.03982 0.40964 0.0
O24 O 0.13074 0.24671 0.43856 0.0
O25 O 0.2424 0.1813 0.45601 0.0
O26 O 0.17902 0.18635 0.4286 0.0
O27 O 0.02749 0.04859 0.45479 0.0
O28 O 0.03314 0.12874 0.46358 0.0
C29 C 0.01984 0.90237 0.43682 0.0
C30 C 0.2008 0.00673 0.43799 0.0
C31 C 0.94628 0.07957 0.83312 0.0
C32 C 0.8893 0.2483 0.85542 0.0
C33 C 0.02759 0.33477 0.83478 0.0
Mg34 Mg 0.07139 0.04632 0.82206 0.0
Mg35 Mg 0.20346 0.09537 0.83035 0.0
O36 O 0.1272 0.11297 0.82444 0.0
Mg37 Mg 0.07052 0.15483 0.83423 0.0
O38 O 0.00874 0.19305 0.84301 0.0
Mg39 Mg 0.95071 0.21391 0.83089 0.0
Mg40 Mg 0.03132 0.24779 0.85293 0.0
C41 C 0.20266 0.2248 0.83397 0.0
O42 O 0.11191 0.12759 0.85134 0.0
O43 O 0.14376 0.02004 0.80988 0.0
O44 O 0.09671 0.19937 0.86252 0.0
O45 O 0.12292 0.98721 0.83454 0.0
O46 O 0.23492 0.04727 0.81656 0.0
O47 O 0.17466 0.04681 0.8441 0.0
O48 O 0.02481 0.18713 0.81798 0.0
O49 O 0.02732 0.10615 0.80942 0.0
C50 C 0.01573 0.15832 0.80934 0.0
C51 C 0.20228 0.02279 0.80936 0.0
O52 O 0.14358 0.22618 0.83398 0.0
O53 O 0.88364 0.23505 0.84526 0.0
O54 O 0.23284 0.17935 0.83326 0.0
O55 O 0.98895 0.30221 0.83038 0.0
O56 O 0.94158 0.25696 0.85984 0.0
O57 O 0.057 0.32011 0.84346 0.0
O58 O 0.00441 0.08039 0.83447 0.0
O59 O 0.9163 0.12474 0.83174 0.0
C60 C 0.16267 -0.00293 0.84196 0.0
C61 C 0.11845 0.15108 0.86068 0.0
C62 C 0.00431 0.79663 0.57844 0.0
C63 C 0.95052 0.87174 0.61705 0.0
C64 C 0.77795 0.92069 0.6017 0.0
Mg65 Mg 0.95674 0.83131 0.55396 0.0
Mg66 Mg 0.91328 0.95876 0.54752 0.0
O67 O 0.90399 0.89797 0.55717 0.0
Mg68 Mg 0.91678 0.90373 0.5735 0.0
O69 O 0.92843 0.90056 0.58991 0.0
Mg70 Mg 0.88541 0.82866 0.59356 0.0
Mg71 Mg 0.91031 0.95999 0.59906 0.0
C72 C 0.8296 0.0118 0.56597 0.0
O73 O 0.98522 0.979 0.5733 0.0
O74 O 0.90958 0.83075 0.53728 0.0
O75 O 0.96444 0.02053 0.58943 0.0
O76 O 0.0304 0.8849 0.5442 0.0
O77 O 0.88377 0.91895 0.53263 0.0
O78 O 0.00877 0.97301 0.54678 0.0
O79 O 0.84846 0.83059 0.57568 0.0
O80 O 0.87928 0.7795 0.56171 0.0
C81 C 0.84354 0.78711 0.56989 0.0
C82 C 0.88639 0.86711 0.5306 0.0
O83 O 0.84112 0.97284 0.57322 0.0
O84 O 0.92916 0.83328 0.61102 0.0
O85 O 0.85526 0.01433 0.55643 0.0
O86 O 0.79907 0.87275 0.59959 0.0
O87 O 0.94854 0.92316 0.61403 0.0
O88 O 0.81189 0.96383 0.60123 0.0
O89 O 0.9941 0.83841 0.57187 0.0
O90 O 0.97088 0.78733 0.58697 0.0
C91 C 0.03893 0.93644 0.54174 0.0
C92 C 0.99284 0.01875 0.58012 0.0
C93 C 0.84316 0.95217 0.20254 0.0
C94 C 0.88966 0.87404 0.24206 0.0
C95 C 0.03909 0.80324 0.23044 0.0
Mg96 Mg 0.88379 0.90967 0.17887 0.0
Mg97 Mg 0.90988 0.77825 0.17345 0.0
O98 O 0.92696 0.83788 0.18259 0.0
Mg99 Mg 0.91594 0.83538 0.19902 0.0
O100 O 0.90365 0.84188 0.21539 0.0
Mg101 Mg 0.95721 0.90836 0.21833 0.0
Mg102 Mg 0.91318 0.78136 0.22513 0.0
C103 C 0.99239 0.72017 0.1925 0.0
O104 O 0.84019 0.76684 0.19955 0.0
O105 O 0.9273 0.90476 0.1614 0.0
O106 O 0.85363 0.72605 0.21643 0.0
O107 O 0.7976 0.86511 0.1729 0.0
O108 O 0.94851 0.81512 0.15849 0.0
O109 O 0.81149 0.77416 0.17119 0.0
O110 O 0.9934 0.90048 0.20038 0.0
O111 O 0.96924 0.95122 0.18528 0.0
C112 C 0.00319 0.94203 0.19374 0.0
C113 C 0.94961 0.86648 0.15543 0.0
O114 O 0.98438 0.76004 0.19928 0.0
O115 O 0.91194 0.90997 0.23518 0.0
O116 O 0.96428 0.71814 0.18317 0.0
O117 O 0.03149 0.85484 0.22794 0.0
O118 O 0.88635 0.82211 0.24012 0.0
O119 O 0.00874 0.7671 0.22534 0.0
O120 O 0.8477 0.90837 0.19683 0.0
O121 O 0.87926 0.96005 0.21065 0.0
C122 C 0.77706 0.81704 0.17072 0.0
C123 C 0.82799 0.72849 0.20689 0.0
C124 C 0.02099 0.57916 0.96382 0.0
C125 C 0.2059 0.71595 0.96229 0.0
C126 C 0.15568 0.74408 0.9304 0.0
Mg127 Mg 0.95097 0.52396 0.94281 0.0
Mg128 Mg 0.0241 0.49062 0.91978 0.0
O129 O 0.00672 0.54428 0.93026 0.0
Mg130 Mg 0.07064 0.58275 0.93859 0.0
O131 O 0.12923 0.62588 0.94784 0.0
Mg132 Mg 0.07208 0.69195 0.95069 0.0
Mg133 Mg 0.20267 0.64536 0.94089 0.0
C134 C 0.11463 0.58466 0.91185 0.0
O135 O 0.14357 0.51216 0.93859 0.0
O136 O 0.88011 0.5034 0.92914 0.0
O137 O 0.23188 0.56062 0.93785 0.0
O138 O 0.98815 0.43511 0.94285 0.0
O139 O 0.93202 0.48261 0.91377 0.0
O140 O 0.05109 0.41753 0.92891 0.0
O141 O 0.00387 0.6574 0.93864 0.0
O142 O 0.91659 0.61314 0.94215 0.0
C143 C 0.94605 0.65822 0.94037 0.0
C144 C 0.88171 0.49076 0.91891 0.0
O145 O 0.11143 0.60709 0.92134 0.0
O146 O 0.14726 0.71837 0.96223 0.0
O147 O 0.08802 0.53877 0.90973 0.0
O148 O 0.11705 0.75385 0.93799 0.0
O149 O 0.23706 0.69255 0.95472 0.0
O150 O 0.16363 0.69436 0.92783 0.0
O151 O 0.02804 0.5507 0.95509 0.0
O152 O 0.03243 0.6313 0.96366 0.0
C153 C 0.02432 0.40237 0.93785 0.0
C154 C 0.20244 0.51446 0.93786 0.0
C155 C 0.94522 0.5843 0.33208 0.0
C156 C 0.89006 0.74964 0.3556 0.0
C157 C 0.02925 0.8379 0.33595 0.0
Mg158 Mg 0.07002 0.55066 0.32086 0.0
Mg159 Mg 0.20105 0.5968 0.33041 0.0
O160 O 0.12729 0.6166 0.32367 0.0
Mg161 Mg 0.07063 0.65812 0.33357 0.0
O162 O 0.00926 0.69504 0.34269 0.0
Mg163 Mg 0.95116 0.71872 0.33079 0.0
Mg164 Mg 0.03171 0.74689 0.35322 0.0
C165 C 0.20196 0.72662 0.33411 0.0
O166 O 0.11498 0.63035 0.35031 0.0
O167 O 0.14475 0.52358 0.30899 0.0
O168 O 0.09634 0.69681 0.36256 0.0
O169 O 0.11641 0.48725 0.33304 0.0
O170 O 0.23406 0.55102 0.31646 0.0
O171 O 0.16547 0.54455 0.34335 0.0
O172 O 0.02457 0.69299 0.31757 0.0
O173 O 0.02848 0.61338 0.30852 0.0
C174 C 0.01598 0.66533 0.30875 0.0
C175 C 0.2035 0.52625 0.309 0.0
O176 O 0.14308 0.72855 0.33359 0.0
O177 O 0.88428 0.73811 0.34534 0.0
O178 O 0.23173 0.68069 0.33383 0.0
O179 O 0.99061 0.80681 0.33114 0.0
O180 O 0.9424 0.75633 0.36011 0.0
O181 O 0.05847 0.82078 0.34448 0.0
O182 O 0.00342 0.5844 0.3334 0.0
O183 O 0.91567 0.62987 0.33101 0.0
C184 C 0.15614 0.4954 0.34051 0.0
C185 C 0.12109 0.65089 0.35992 0.0
C186 C 0.00261 0.29496 0.07808 0.0
C187 C 0.94989 0.37108 0.11657 0.0
C188 C 0.77766 0.42124 0.10131 0.0
Mg189 Mg 0.95688 0.33072 0.05344 0.0
Mg190 Mg 0.91202 0.458 0.04723 0.0
O191 O 0.90316 0.39667 0.05669 0.0
Mg192 Mg 0.91608 0.40245 0.07302 0.0
O193 O 0.92776 0.3995 0.08943 0.0
Mg194 Mg 0.88402 0.32807 0.09312 0.0
Mg195 Mg 0.91059 0.45933 0.09854 0.0
C196 C 0.82786 0.51014 0.06562 0.0
O197 O 0.98473 0.47732 0.07274 0.0
O198 O 0.91387 0.33112 0.03623 0.0
O199 O 0.96529 0.51933 0.08886 0.0
O200 O 0.03123 0.38545 0.04416 0.0
O201 O 0.88475 0.41901 0.03217 0.0
O202 O 0.0074 0.47337 0.04664 0.0
O203 O 0.84805 0.32983 0.07513 0.0
O204 O 0.878 0.27904 0.06101 0.0
C205 C 0.84266 0.28664 0.06927 0.0
C206 C 0.89078 0.36802 0.02962 0.0
O207 O 0.84032 0.47127 0.07283 0.0
O208 O 0.92769 0.33272 0.11061 0.0
O209 O 0.8531 0.5131 0.05605 0.0
O210 O 0.79797 0.37307 0.09912 0.0
O211 O 0.94878 0.42241 0.11349 0.0
O212 O 0.81228 0.46395 0.10084 0.0
O213 O 0.99288 0.33676 0.07148 0.0
O214 O 0.96904 0.28612 0.0866 0.0
C215 C 0.03938 0.43719 0.04184 0.0
C216 C 0.99321 0.51709 0.07951 0.0
C217 C 0.00383 0.43841 0.69474 0.0
C218 C 0.94872 0.36371 0.65627 0.0
C219 C 0.77652 0.31511 0.67174 0.0
Mg220 Mg 0.9592 0.40273 0.7194 0.0
Mg221 Mg 0.91497 0.27529 0.72566 0.0
O222 O 0.9048 0.33687 0.71628 0.0
Mg223 Mg 0.91658 0.33135 0.69987 0.0
O224 O 0.92728 0.33473 0.68344 0.0
Mg225 Mg 0.88435 0.4068 0.67987 0.0
Mg226 Mg 0.90891 0.27541 0.67428 0.0
C227 C 0.82925 0.22347 0.70746 0.0
O228 O 0.9848 0.25591 0.69989 0.0
O229 O 0.91743 0.4021 0.73671 0.0
O230 O 0.96336 0.21452 0.68378 0.0
O231 O 0.03467 0.34844 0.72846 0.0
O232 O 0.8889 0.31411 0.74083 0.0
O233 O 0.01058 0.26125 0.72563 0.0
O234 O 0.84887 0.40469 0.69793 0.0
O235 O 0.87991 0.4548 0.71206 0.0
C236 C 0.84407 0.44774 0.70386 0.0
C237 C 0.89491 0.36511 0.74336 0.0
O238 O 0.84059 0.26258 0.70023 0.0
O239 O 0.92743 0.40221 0.66231 0.0
O240 O 0.85557 0.22046 0.71692 0.0
O241 O 0.79769 0.36295 0.67391 0.0
O242 O 0.94685 0.31231 0.65929 0.0
O243 O 0.81044 0.27191 0.67219 0.0
O244 O 0.99384 0.39653 0.70129 0.0
O245 O 0.97005 0.44789 0.68628 0.0
C246 C 0.04124 0.29664 0.73087 0.0
C247 C 0.99214 0.2162 0.69304 0.0
C248 C 0.52021 0.08174 0.9643 0.0
C249 C 0.70898 0.21816 0.96197 0.0
C250 C 0.65778 0.24218 0.93029 0.0
Mg251 Mg 0.45003 0.02537 0.94336 0.0
Mg252 Mg 0.52325 0.99082 0.92041 0.0
O253 O 0.50582 0.04503 0.93079 0.0
Mg254 Mg 0.56998 0.08303 0.93913 0.0
O255 O 0.62916 0.12576 0.94833 0.0
Mg256 Mg 0.57368 0.19324 0.95091 0.0
Mg257 Mg 0.70269 0.14289 0.94125 0.0
C258 C 0.61496 0.0835 0.91245 0.0
O259 O 0.64131 0.01109 0.93929 0.0
O260 O 0.37923 0.00466 0.92965 0.0
O261 O 0.73069 0.05769 0.93842 0.0
O262 O 0.48688 0.93644 0.94355 0.0
O263 O 0.43134 0.983 0.91434 0.0
O264 O 0.54967 0.91794 0.92964 0.0
O265 O 0.50413 0.1585 0.93905 0.0
O266 O 0.41663 0.11447 0.94256 0.0
C267 C 0.44625 0.15947 0.94079 0.0
C268 C 0.38098 0.99165 0.91943 0.0
O269 O 0.61154 0.10603 0.92192 0.0
O270 O 0.65035 0.22166 0.96211 0.0
O271 O 0.58785 0.03791 0.9103 0.0
O272 O 0.6196 0.2529 0.9379 0.0
O273 O 0.73858 0.1912 0.95469 0.0
O274 O 0.66615 0.19214 0.92797 0.0
O275 O 0.52687 0.05265 0.95564 0.0
O276 O 0.53321 0.13367 0.9641 0.0
C277 C 0.52287 0.90331 0.93861 0.0
C278 C 0.70019 0.01212 0.93854 0.0
C279 C 0.51681 0.15816 0.30861 0.0
C280 C 0.70621 0.02689 0.30963 0.0
C281 C 0.66487 0.00389 0.34237 0.0
Mg282 Mg 0.44831 0.21478 0.32955 0.0
Mg283 Mg 0.52365 0.25226 0.35199 0.0
O284 O 0.50474 0.19632 0.34207 0.0
Mg285 Mg 0.56868 0.15838 0.33368 0.0
O286 O 0.62747 0.11673 0.32427 0.0
Mg287 Mg 0.57378 0.04871 0.32197 0.0
Mg288 Mg 0.70403 0.10157 0.33031 0.0
C289 C 0.61313 0.15802 0.36028 0.0
O290 O 0.63981 0.23137 0.33336 0.0
O291 O 0.37863 0.23624 0.34342 0.0
O292 O 0.73045 0.18662 0.33288 0.0
O293 O 0.48466 0.30362 0.32882 0.0
O294 O 0.43222 0.26029 0.35839 0.0
O295 O 0.54906 0.32415 0.34232 0.0
O296 O 0.50448 0.08233 0.33402 0.0
O297 O 0.41602 0.12521 0.3307 0.0
C298 C 0.44653 0.08061 0.33244 0.0
C299 C 0.38137 0.25042 0.35356 0.0
O300 O 0.60873 0.13384 0.35098 0.0
O301 O 0.64779 0.02289 0.31009 0.0
O302 O 0.58926 0.2057 0.36195 0.0
O303 O 0.62588 0.99252 0.33491 0.0
O304 O 0.7379 0.05275 0.31676 0.0
O305 O 0.67624 0.05406 0.34426 0.0
O306 O 0.5246 0.1878 0.31716 0.0
O307 O 0.52931 0.10615 0.30892 0.0
C308 C 0.52151 0.33733 0.33336 0.0
C309 C 0.6989 0.23141 0.33341 0.0
C310 C 0.5033 0.79635 0.07842 0.0
C311 C 0.44894 0.87406 0.11663 0.0
C312 C 0.27654 0.92203 0.10113 0.0
Mg313 Mg 0.45799 0.82954 0.0538 0.0
Mg314 Mg 0.41518 0.95653 0.04696 0.0
O315 O 0.4037 0.89591 0.0566 0.0
Mg316 Mg 0.41582 0.903 0.07297 0.0
O317 O 0.42678 0.90117 0.0894 0.0
Mg318 Mg 0.38403 0.82937 0.09324 0.0
Mg319 Mg 0.40907 0.96127 0.09841 0.0
C320 C 0.32848 0.01009 0.06489 0.0
O321 O 0.48411 0.978 0.07262 0.0
O322 O 0.41458 0.8279 0.03678 0.0
O323 O 0.46387 0.02088 0.08862 0.0
O324 O 0.53299 0.88312 0.0444 0.0
O325 O 0.39108 0.91618 0.03178 0.0
O326 O 0.51061 0.97058 0.04732 0.0
O327 O 0.34802 0.83007 0.07526 0.0
O328 O 0.37919 0.77819 0.0614 0.0
C329 C 0.34317 0.78637 0.06953 0.0
C330 C 0.39409 0.86426 0.0298 0.0
O331 O 0.34005 0.97187 0.0723 0.0
O332 O 0.42732 0.83524 0.11072 0.0
O333 O 0.35485 0.01213 0.05541 0.0
O334 O 0.29759 0.87398 0.09908 0.0
O335 O 0.44731 0.92527 0.11346 0.0
O336 O 0.31056 0.96513 0.1006 0.0
O337 O 0.49308 0.83778 0.07177 0.0
O338 O 0.46971 0.78738 0.08693 0.0
C339 C 0.54132 0.93488 0.04216 0.0
C340 C 0.4922 0.01815 0.07932 0.0
C341 C 0.34376 0.94811 0.70282 0.0
C342 C 0.38778 0.86843 0.74215 0.0
C343 C 0.54 0.79852 0.73073 0.0
Mg344 Mg 0.38465 0.90616 0.67916 0.0
Mg345 Mg 0.41162 0.775 0.67365 0.0
O346 O 0.42857 0.83467 0.6828 0.0
Mg347 Mg 0.4172 0.83171 0.69921 0.0
O348 O 0.40451 0.83756 0.71553 0.0
Mg349 Mg 0.45727 0.9041 0.71869 0.0
Mg350 Mg 0.41378 0.77673 0.72518 0.0
C351 C 0.49432 0.71696 0.69267 0.0
O352 O 0.34169 0.76269 0.69956 0.0
O353 O 0.42811 0.90182 0.6617 0.0
O354 O 0.35522 0.72126 0.71636 0.0
O355 O 0.29883 0.86121 0.67317 0.0
O356 O 0.44971 0.81232 0.6587 0.0
O357 O 0.31326 0.77035 0.67143 0.0
O358 O 0.49447 0.89732 0.70073 0.0
O359 O 0.46971 0.94799 0.68566 0.0
C360 C 0.50379 0.93906 0.6941 0.0
C361 C 0.45049 0.86375 0.65568 0.0
O362 O 0.48601 0.75672 0.69947 0.0
O363 O 0.41056 0.90478 0.73541 0.0
O364 O 0.46636 0.71494 0.68333 0.0
O365 O 0.53094 0.85011 0.72837 0.0
O366 O 0.38507 0.81659 0.74012 0.0
O367 O 0.50919 0.7619 0.72584 0.0
O368 O 0.34846 0.9044 0.69709 0.0
O369 O 0.37968 0.9559 0.71096 0.0
C370 C 0.27857 0.81306 0.67099 0.0
C371 C 0.32972 0.72391 0.70682 0.0
C372 C 0.44018 0.64945 0.44019 0.0
C373 C 0.39054 0.48246 0.41705 0.0
C374 C 0.53151 0.39752 0.43726 0.0
Mg375 Mg 0.56266 0.68507 0.45179 0.0
Mg376 Mg 0.69588 0.64166 0.44289 0.0
O377 O 0.62171 0.62043 0.44928 0.0
Mg378 Mg 0.56748 0.57762 0.43927 0.0
O379 O 0.50789 0.53913 0.43007 0.0
Mg380 Mg 0.44932 0.51517 0.44189 0.0
Mg381 Mg 0.53203 0.48719 0.41966 0.0
C382 C 0.7009 0.51168 0.43942 0.0
O383 O 0.61289 0.60562 0.42261 0.0
O384 O 0.63423 0.71266 0.46402 0.0
O385 O 0.5964 0.53816 0.41046 0.0
O386 O 0.61043 0.74782 0.43965 0.0
O387 O 0.72577 0.68998 0.45674 0.0
O388 O 0.66361 0.69215 0.42945 0.0
O389 O 0.52079 0.54261 0.45522 0.0
O390 O 0.5206 0.62263 0.46411 0.0
C391 C 0.51031 0.57031 0.46395 0.0
C392 C 0.69295 0.71235 0.4642 0.0
O393 O 0.64199 0.5087 0.43962 0.0
O394 O 0.38407 0.49392 0.42729 0.0
O395 O 0.72951 0.55815 0.43983 0.0
O396 O 0.4915 0.428 0.44191 0.0
O397 O 0.44324 0.4764 0.41261 0.0
O398 O 0.56019 0.41442 0.42865 0.0
O399 O 0.49848 0.65013 0.43903 0.0
O400 O 0.4115 0.60349 0.44135 0.0
C401 C 0.64877 0.7409 0.43187 0.0
C402 C 0.62011 0.58458 0.41305 0.0
C403 C 0.4472 0.57871 0.83209 0.0
C404 C 0.38688 0.74702 0.85442 0.0
C405 C 0.52781 0.83372 0.83479 0.0
Mg406 Mg 0.57533 0.54491 0.82194 0.0
Mg407 Mg 0.70573 0.59597 0.83096 0.0
O408 O 0.63019 0.61215 0.82458 0.0
Mg409 Mg 0.57116 0.65364 0.83405 0.0
O410 O 0.50779 0.69137 0.84253 0.0
Mg411 Mg 0.45205 0.71296 0.83013 0.0
Mg412 Mg 0.5291 0.74567 0.85265 0.0
C413 C 0.70221 0.72534 0.83448 0.0
O414 O 0.60972 0.62631 0.85137 0.0
O415 O 0.65154 0.51675 0.81049 0.0
O416 O 0.59289 0.69747 0.8626 0.0
O417 O 0.62331 0.48601 0.83489 0.0
O418 O 0.74042 0.54805 0.81743 0.0
O419 O 0.67312 0.54692 0.84438 0.0
O420 O 0.52839 0.68609 0.81758 0.0
O421 O 0.53447 0.60526 0.80897 0.0
C422 C 0.52195 0.65733 0.80885 0.0
C423 C 0.71014 0.52062 0.81034 0.0
O424 O 0.64318 0.7256 0.83422 0.0
O425 O 0.38256 0.73366 0.84423 0.0
O426 O 0.73349 0.68041 0.83396 0.0
O427 O 0.49003 0.8014 0.83009 0.0
O428 O 0.43854 0.75545 0.85907 0.0
O429 O 0.55644 0.81824 0.8435 0.0
O430 O 0.5051 0.57912 0.8338 0.0
O431 O 0.41776 0.6241 0.83063 0.0
C432 C 0.66358 0.49688 0.84215 0.0
C433 C 0.61497 0.64932 0.86077 0.0
C434 C 0.50488 0.2971 0.57946 0.0
C435 C 0.44933 0.37474 0.61757 0.0
C436 C 0.27686 0.42209 0.60212 0.0
Mg437 Mg 0.45957 0.32938 0.55477 0.0
Mg438 Mg 0.41355 0.4556 0.54762 0.0
O439 O 0.4051 0.39564 0.55753 0.0
Mg440 Mg 0.41688 0.40314 0.57389 0.0
O441 O 0.42735 0.4016 0.59033 0.0
Mg442 Mg 0.38476 0.32975 0.59419 0.0
Mg443 Mg 0.4093 0.46164 0.59933 0.0
C444 C 0.32764 0.5089 0.56575 0.0
O445 O 0.48477 0.47897 0.57356 0.0
O446 O 0.41489 0.32628 0.53792 0.0
O447 O 0.46354 0.52162 0.58956 0.0
O448 O 0.53344 0.38313 0.54506 0.0
O449 O 0.38769 0.41338 0.53272 0.0
O450 O 0.50892 0.47058 0.54755 0.0
O451 O 0.34905 0.3298 0.5762 0.0
O452 O 0.38183 0.27772 0.5625 0.0
C453 C 0.34517 0.28579 0.57053 0.0
C454 C 0.39204 0.36135 0.53093 0.0
O455 O 0.34048 0.4712 0.57318 0.0
O456 O 0.42778 0.33591 0.61167 0.0
O457 O 0.35306 0.51085 0.55618 0.0
O458 O 0.29793 0.37405 0.60004 0.0
O459 O 0.44771 0.42593 0.61439 0.0
O460 O 0.31085 0.4652 0.60157 0.0
O461 O 0.49501 0.33837 0.57274 0.0
O462 O 0.47074 0.28826 0.5879 0.0
C463 C 0.53969 0.43475 0.54243 0.0
C464 C 0.49215 0.51924 0.58028 0.0
C465 C 0.34298 0.45151 0.2032 0.0
C466 C 0.38965 0.36654 0.24254 0.0
C467 C 0.53887 0.29885 0.23036 0.0
Mg468 Mg 0.38427 0.4115 0.17924 0.0
Mg469 Mg 0.41006 0.28052 0.17347 0.0
O470 O 0.4277 0.33961 0.18272 0.0
Mg471 Mg 0.41598 0.33544 0.19912 0.0
O472 O 0.40312 0.33997 0.21548 0.0
Mg473 Mg 0.45683 0.40563 0.21891 0.0
Mg474 Mg 0.41231 0.27794 0.22475 0.0
C475 C 0.49232 0.22074 0.19228 0.0
O476 O 0.34014 0.26683 0.19913 0.0
O477 O 0.42803 0.40779 0.16171 0.0
O478 O 0.35396 0.22352 0.21573 0.0
O479 O 0.29795 0.36741 0.17313 0.0
O480 O 0.44836 0.31815 0.15859 0.0
O481 O 0.31176 0.27656 0.17125 0.0
O482 O 0.49305 0.40064 0.20087 0.0
O483 O 0.46956 0.4524 0.18587 0.0
C484 C 0.50307 0.44271 0.19436 0.0
C485 C 0.44992 0.36966 0.15564 0.0
O486 O 0.48438 0.26015 0.19916 0.0
O487 O 0.41322 0.40387 0.23609 0.0
O488 O 0.46421 0.21937 0.18295 0.0
O489 O 0.53136 0.35066 0.22805 0.0
O490 O 0.38391 0.31575 0.23986 0.0
O491 O 0.50781 0.26313 0.22527 0.0
O492 O 0.34814 0.40862 0.19723 0.0
O493 O 0.37829 0.4582 0.21149 0.0
C494 C 0.27737 0.31946 0.17087 0.0
C495 C 0.32833 0.22724 0.20621 0.0
H496 H 0.25281 0.24176 0.41433 0.0
H497 H 0.50341 0.34042 0.45674 0.0
H498 H 0.21606 0.30272 0.4468 0.0
H499 H 0.54356 0.31222 0.42275 0.0
H500 H 0.40433 0.29653 0.45455 0.0
H501 H 0.36223 0.25405 0.41754 0.0
C502 C 0.2676 0.25982 0.42196 0.0
C503 C 0.22526 0.27008 0.43039 0.0
C504 C 0.43523 0.29849 0.44759 0.0
C505 C 0.35006 0.28151 0.43432 0.0
C506 C 0.49294 0.32191 0.44892 0.0
C507 C 0.52625 0.33735 0.43943 0.0
C508 C 0.41577 0.28575 0.43691 0.0
C509 C 0.51457 0.30708 0.42995 0.0
C510 C 0.33009 0.26521 0.42391 0.0
C511 C 0.24691 0.29354 0.4401 0.0
N512 N 0.45754 0.28615 0.42856 0.0
N513 N 0.30799 0.29733 0.4419 0.0
H514 H 0.98524 0.8455 0.45589 0.0
H515 H 0.7236 0.7601 0.41423 0.0
H516 H 0.01828 0.82067 0.42147 0.0
H517 H 0.69408 0.8069 0.44785 0.0
H518 H 0.83355 0.77447 0.41665 0.0
H519 H 0.88329 0.8067 0.45393 0.0
C520 C 0.97241 0.82884 0.44801 0.0
C521 C 0.0061 0.84299 0.43849 0.0
C522 C 0.8029 0.7821 0.42346 0.0
C523 C 0.89143 0.79808 0.43616 0.0
C524 C 0.74013 0.77536 0.42198 0.0
C525 C 0.70015 0.77999 0.43097 0.0
C526 C 0.82517 0.79472 0.43395 0.0
C527 C 0.72338 0.80138 0.44076 0.0
C528 C 0.91319 0.80847 0.44681 0.0
C529 C 0.99027 0.81585 0.42881 0.0
N530 N 0.7847 0.80651 0.44209 0.0
N531 N 0.93182 0.798 0.42761 0.0
H532 H 0.24642 0.98929 0.8585 0.0
H533 H 0.49358 0.88884 0.81546 0.0
H534 H 0.20598 0.92825 0.82621 0.0
H535 H 0.53665 0.91952 0.84925 0.0
H536 H 0.39358 0.9307 0.81797 0.0
H537 H 0.35523 0.97489 0.85505 0.0
C538 C 0.26023 0.97067 0.85087 0.0
C539 C 0.21711 0.96125 0.84254 0.0
C540 C 0.42531 0.92973 0.82481 0.0
C541 C 0.34132 0.9474 0.83832 0.0
C542 C 0.48348 0.90748 0.82328 0.0
C543 C 0.51858 0.89355 0.83265 0.0
C544 C 0.40679 0.94288 0.83552 0.0
C545 C 0.50682 0.9237 0.84215 0.0
C546 C 0.32243 0.9641 0.84877 0.0
C547 C 0.23752 0.93697 0.83282 0.0
N548 N 0.44946 0.94365 0.8437 0.0
N549 N 0.29839 0.93212 0.83087 0.0
H550 H 0.04071 0.42273 0.84853 0.0
H551 H 0.70375 0.42552 0.82646 0.0
H552 H 0.99275 0.3876 0.81515 0.0
H553 H 0.75452 0.49663 0.85742 0.0
H554 H 0.81162 0.41301 0.82221 0.0
H555 H 0.94242 0.46823 0.85086 0.0
C556 C 0.01078 0.42706 0.84143 0.0
C557 C 0.01976 0.3944 0.83218 0.0
C558 C 0.79916 0.4311 0.82997 0.0
C559 C 0.90938 0.44665 0.8346 0.0
C560 C 0.73741 0.43674 0.83256 0.0
C561 C 0.72015 0.46373 0.84218 0.0
C562 C 0.84366 0.4511 0.8372 0.0
C563 C 0.76599 0.4765 0.84982 0.0
C564 C 0.95371 0.45175 0.8429 0.0
C565 C 0.98358 0.4073 0.8229 0.0
N566 N 0.82582 0.47096 0.84709 0.0
N567 N 0.92696 0.42867 0.82453 0.0
H568 H 0.51039 0.61672 0.59092 0.0
H569 H 0.82386 0.68956 0.55947 0.0
H570 H 0.58355 0.52026 0.56451 0.0
H571 H 0.74707 0.79182 0.58465 0.0
H572 H 0.73695 0.62696 0.56145 0.0
H573 H 0.59537 0.6816 0.58863 0.0
C574 C 0.54397 0.6093 0.58455 0.0
C575 C 0.53955 0.56251 0.57791 0.0
C576 C 0.73902 0.66295 0.56658 0.0
C577 C 0.63802 0.637 0.57535 0.0
C578 C 0.78896 0.69881 0.5655 0.0
C579 C 0.79314 0.74638 0.57191 0.0
C580 C 0.69236 0.6743 0.57414 0.0
C581 C 0.74611 0.75572 0.57956 0.0
C582 C 0.59273 0.64647 0.58328 0.0
C583 C 0.58465 0.55563 0.5698 0.0
N584 N 0.69769 0.72013 0.58044 0.0
N585 N 0.63208 0.59217 0.5688 0.0
H586 H 0.01075 0.11582 0.5909 0.0
H587 H 0.32649 0.18788 0.5602 0.0
H588 H 0.08455 0.02017 0.56442 0.0
H589 H 0.24738 0.29111 0.585 0.0
H590 H 0.23925 0.12556 0.56196 0.0
H591 H 0.09597 0.18055 0.5888 0.0
C592 C 0.04453 0.10857 0.58456 0.0
C593 C 0.04027 0.06203 0.57785 0.0
C594 C 0.24088 0.16171 0.56705 0.0
C595 C 0.13897 0.13631 0.57551 0.0
C596 C 0.29101 0.19739 0.5661 0.0
C597 C 0.29463 0.24516 0.57247 0.0
C598 C 0.19349 0.17341 0.57444 0.0
C599 C 0.24687 0.25485 0.57994 0.0
C600 C 0.09341 0.14565 0.5834 0.0
C601 C 0.08558 0.05534 0.56977 0.0
N602 N 0.1983 0.2194 0.5807 0.0
N603 N 0.13315 0.09177 0.56888 0.0
H604 H 0.82349 0.04971 0.21294 0.0
H605 H 0.5113 0.12427 0.18131 0.0
H606 H 0.74677 0.94749 0.18778 0.0
H607 H 0.58279 0.21845 0.20817 0.0
H608 H 0.59616 0.05908 0.18356 0.0
H609 H 0.73666 0.11243 0.21096 0.0
C610 C 0.78862 0.0405 0.20692 0.0
C611 C 0.79278 0.99291 0.20051 0.0
C612 C 0.59314 0.09377 0.18902 0.0
C613 C 0.69212 0.06514 0.19828 0.0
C614 C 0.54449 0.13111 0.18777 0.0
C615 C 0.53966 0.17733 0.19455 0.0
C616 C 0.63789 0.10255 0.19707 0.0
C617 C 0.58422 0.18351 0.20277 0.0
C618 C 0.73872 0.07642 0.20584 0.0
C619 C 0.74581 0.9836 0.19287 0.0
N620 N 0.63156 0.14685 0.20375 0.0
N621 N 0.69744 0.0193 0.19198 0.0
H622 H 0.01194 0.6234 0.18168 0.0
H623 H 0.32194 0.54787 0.21399 0.0
H624 H 0.0825 0.71852 0.20848 0.0
H625 H 0.24823 0.44837 0.18811 0.0
H626 H 0.23522 0.61083 0.21192 0.0
H627 H 0.09677 0.55841 0.18408 0.0
C628 C 0.04492 0.63051 0.18815 0.0
C629 C 0.03981 0.67693 0.19487 0.0
C630 C 0.23795 0.57536 0.20666 0.0
C631 C 0.13809 0.60231 0.19758 0.0
C632 C 0.28775 0.53931 0.2078 0.0
C633 C 0.29272 0.49242 0.20121 0.0
C634 C 0.19226 0.56485 0.19887 0.0
C635 C 0.24664 0.48391 0.19336 0.0
C636 C 0.0936 0.59328 0.18949 0.0
C637 C 0.08415 0.68342 0.20313 0.0
N638 N 0.19837 0.51965 0.19243 0.0
N639 N 0.13152 0.64681 0.20419 0.0
H640 H 0.535 0.81595 0.92458 0.0
H641 H 0.1961 0.81631 0.94599 0.0
H642 H 0.48498 0.84927 0.95796 0.0
H643 H 0.24753 0.74347 0.91522 0.0
H644 H 0.30385 0.83094 0.95003 0.0
H645 H 0.43565 0.77315 0.92181 0.0
C646 C 0.50426 0.81186 0.93157 0.0
C647 C 0.51327 0.84358 0.94097 0.0
C648 C 0.29153 0.81128 0.94243 0.0
C649 C 0.40179 0.79405 0.93806 0.0
C650 C 0.22984 0.80458 0.93993 0.0
C651 C 0.21287 0.77646 0.93043 0.0
C652 C 0.3362 0.79023 0.93534 0.0
C653 C 0.25885 0.7635 0.92282 0.0
C654 C 0.44666 0.78874 0.92985 0.0
C655 C 0.47597 0.83061 0.95011 0.0
N656 N 0.31863 0.76935 0.92554 0.0
N657 N 0.41896 0.8107 0.94824 0.0
H658 H 0.74416 0.24524 0.91411 0.0
H659 H 0.98887 0.34778 0.9572 0.0
H660 H 0.70308 0.31096 0.94598 0.0
H661 H 0.03354 0.3162 0.92347 0.0
H662 H 0.89025 0.30265 0.95479 0.0
H663 H 0.85325 0.25656 0.91783 0.0
C664 C 0.75807 0.26348 0.92176 0.0
C665 C 0.71461 0.27496 0.92992 0.0
C666 C 0.92213 0.30454 0.94794 0.0
C667 C 0.83881 0.28632 0.93438 0.0
C668 C 0.97946 0.32858 0.94941 0.0
C669 C 0.0146 0.34256 0.94004 0.0
C670 C 0.90415 0.29082 0.93723 0.0
C671 C 0.00372 0.3118 0.93058 0.0
C672 C 0.82028 0.26866 0.92399 0.0
C673 C 0.73492 0.30006 0.93956 0.0
N674 N 0.94692 0.29064 0.92906 0.0
N675 N 0.79575 0.30369 0.94164 0.0
H676 H 0.5336 0.4278 0.34655 0.0
H677 H 0.19643 0.42933 0.32385 0.0
H678 H 0.48712 0.38731 0.31338 0.0
H679 H 0.24642 0.48807 0.35585 0.0
H680 H 0.30447 0.41832 0.31948 0.0
H681 H 0.43442 0.47209 0.34857 0.0
C682 C 0.5037 0.43059 0.33942 0.0
C683 C 0.51336 0.39659 0.33039 0.0
C684 C 0.29184 0.43362 0.32748 0.0
C685 C 0.40204 0.44753 0.33244 0.0
C686 C 0.23002 0.43847 0.33011 0.0
C687 C 0.21261 0.46216 0.34007 0.0
C688 C 0.33618 0.45106 0.33501 0.0
C689 C 0.2582 0.47163 0.34793 0.0
C690 C 0.44613 0.45455 0.34072 0.0
C691 C 0.47732 0.40786 0.32101 0.0
N692 N 0.31807 0.46713 0.34517 0.0
N693 N 0.42022 0.42854 0.32248 0.0
H694 H 0.747 -0.00122 0.35924 0.0
H695 H -0.0028 0.89658 0.31694 0.0
H696 H 0.71031 0.93351 0.32714 0.0
H697 H 0.03727 0.92029 0.35113 0.0
H698 H 0.89835 0.94073 0.31938 0.0
H699 H 0.85635 0.98399 0.35625 0.0
C700 C 0.76171 0.97921 0.35176 0.0
C701 C 0.71952 0.9685 0.34334 0.0
C702 C 0.92925 0.93768 0.32633 0.0
C703 C 0.84419 0.9544 0.33964 0.0
C704 C 0.9868 0.91413 0.32486 0.0
C705 C 0.02063 0.89805 0.33424 0.0
C706 C 0.90986 0.94935 0.33707 0.0
C707 C 0.00844 0.92651 0.34394 0.0
C708 C 0.82418 0.97239 0.34992 0.0
C709 C 0.74106 0.94311 0.33382 0.0
N710 N 0.95148 0.94755 0.34542 0.0
N711 N 0.80212 0.93816 0.33211 0.0
H712 H 0.58107 0.01849 0.06315 0.0
H713 H 0.74964 0.2911 0.08465 0.0
H714 H 0.51432 0.11442 0.09018 0.0
H715 H 0.81881 0.19088 0.05846 0.0
H716 H 0.66227 0.22791 0.08668 0.0
H717 H 0.66603 0.08375 0.0608 0.0
C718 C 0.58363 0.05361 0.06849 0.0
C719 C 0.54016 0.0607 0.07687 0.0
C720 C 0.69672 0.21969 0.08051 0.0
C721 C 0.63837 0.13535 0.07436 0.0
C722 C 0.74685 0.25566 0.07939 0.0
C723 C 0.79191 0.24649 0.07137 0.0
C724 C 0.69141 0.1742 0.07356 0.0
C725 C 0.7854 0.19986 0.06475 0.0
C726 C 0.63258 0.09069 0.06721 0.0
C727 C 0.54667 0.1069 0.08362 0.0
N728 N 0.7362 0.16573 0.06597 0.0
N729 N 0.59483 0.14218 0.08224 0.0
H730 H 0.08081 0.5189 0.06309 0.0
H731 H 0.24987 0.79082 0.08487 0.0
H732 H 0.01612 0.61244 0.09062 0.0
H733 H 0.31937 0.69068 0.0587 0.0
H734 H 0.16253 0.72753 0.08687 0.0
H735 H 0.16559 0.58446 0.06075 0.0
C736 C 0.08382 0.55352 0.06856 0.0
C737 C 0.04101 0.55983 0.07708 0.0
C738 C 0.19704 0.71935 0.08072 0.0
C739 C 0.1389 0.63486 0.07455 0.0
C740 C 0.24714 0.75539 0.07961 0.0
C741 C 0.29233 0.74626 0.07161 0.0
C742 C 0.19185 0.67385 0.07376 0.0
C743 C 0.2859 0.69963 0.06499 0.0
C744 C 0.13264 0.59078 0.06727 0.0
C745 C 0.04798 0.60549 0.08395 0.0
N746 N 0.23672 0.66545 0.06619 0.0
N747 N 0.09595 0.64097 0.08257 0.0
H748 H 0.5148 0.62059 0.68177 0.0
H749 H 0.82242 0.54383 0.71472 0.0
H750 H 0.58344 0.71498 0.70884 0.0
H751 H 0.74995 0.4449 0.68865 0.0
H752 H 0.73593 0.60702 0.71253 0.0
H753 H 0.59937 0.55545 0.68433 0.0
C754 C 0.54731 0.62751 0.68833 0.0
C755 C 0.54173 0.67376 0.69508 0.0
C756 C 0.73889 0.57161 0.70726 0.0
C757 C 0.6397 0.59895 0.69797 0.0
C758 C 0.78857 0.53544 0.70847 0.0
C759 C 0.79382 0.48866 0.70186 0.0
C760 C 0.69366 0.56133 0.69937 0.0
C761 C 0.74814 0.48034 0.69392 0.0
C762 C 0.59583 0.59019 0.68975 0.0
C763 C 0.58548 0.68002 0.70345 0.0
N764 N 0.70003 0.51621 0.69291 0.0
N765 N 0.63271 0.64332 0.7046 0.0
H766 H 0.01016 0.11928 0.68218 0.0
H767 H 0.32492 0.04614 0.71308 0.0
H768 H 0.08396 0.21455 0.70868 0.0
H769 H 0.24654 0.94298 0.68824 0.0
H770 H 0.23798 0.10876 0.71121 0.0
H771 H 0.09529 0.05426 0.68427 0.0
C772 C 0.0439 0.12639 0.68852 0.0
C773 C 0.03963 0.17286 0.69525 0.0
C774 C 0.23969 0.07257 0.70613 0.0
C775 C 0.13818 0.09829 0.69759 0.0
C776 C 0.28965 0.0367 0.70715 0.0
C777 C 0.29337 0.98886 0.70081 0.0
C778 C 0.19256 0.06099 0.69869 0.0
C779 C 0.24591 0.97929 0.69328 0.0
C780 C 0.09272 0.08915 0.68968 0.0
C781 C 0.08492 0.1794 0.70333 0.0
N782 N 0.19747 0.01493 0.69245 0.0
N783 N 0.13239 0.14283 0.70421 0.0
H784 H 0.32273 0.99207 0.43401 0.0
H785 H 0.3166 0.66214 0.44305 0.0
H786 H 0.15716 0.89961 0.44083 0.0
H787 H 0.48156 0.7566 0.43692 0.0
H788 H 0.25732 0.74788 0.442 0.0
H789 H 0.3805 0.90582 0.43452 0.0
C790 C 0.29826 0.95358 0.43556 0.0
C791 C 0.23469 0.95338 0.4374 0.0
C792 C 0.30647 0.74993 0.4409 0.0
C793 C 0.30137 0.85376 0.43804 0.0
C794 C 0.34056 0.70092 0.44153 0.0
C795 C 0.40447 0.70197 0.44009 0.0
C796 C 0.33624 0.80067 0.43881 0.0
C797 C 0.43258 0.75363 0.43812 0.0
C798 C 0.33152 0.9042 0.43586 0.0
C799 C 0.20589 0.90192 0.4393 0.0
N800 N 0.39831 0.80081 0.43752 0.0
N801 N 0.23948 0.85422 0.43962 0.0
H802 H 0.9944 0.2666 0.43681 0.0
H803 H 0.66136 0.40432 0.44248 0.0
H804 H 0.8289 0.17569 0.44456 0.0
H805 H 0.82475 0.50046 0.43606 0.0
H806 H 0.72296 0.32001 0.44278 0.0
H807 H 0.93445 0.35297 0.43633 0.0
C808 C 0.94572 0.26474 0.43847 0.0
C809 C 0.91683 0.21363 0.44072 0.0
C810 C 0.74545 0.3595 0.44126 0.0
C811 C 0.84795 0.31209 0.4401 0.0
C812 C 0.71006 0.40776 0.44101 0.0
C813 C 0.73759 0.45975 0.43916 0.0
C814 C 0.80915 0.36293 0.43968 0.0
C815 C 0.80138 0.46138 0.43752 0.0
C816 C 0.91148 0.31402 0.43816 0.0
C817 C 0.85345 0.21387 0.44277 0.0
N818 N 0.83495 0.41375 0.43782 0.0
N819 N 0.82136 0.26208 0.44238 0.0
H820 H 0.32521 0.2364 0.83791 0.0
H821 H 0.32528 0.56564 0.828 0.0
H822 H 0.16259 0.33252 0.8307 0.0
H823 H 0.48823 0.47145 0.83606 0.0
H824 H 0.26582 0.48051 0.82881 0.0
H825 H 0.38541 0.32149 0.83735 0.0
C826 C 0.30193 0.27543 0.83626 0.0
C827 C 0.23841 0.27711 0.83436 0.0
C828 C 0.31455 0.47827 0.83039 0.0
C829 C 0.30773 0.37511 0.83366 0.0
C830 C 0.34882 0.52699 0.8299 0.0
C831 C 0.41217 0.52594 0.83197 0.0
C832 C 0.34348 0.42763 0.83297 0.0
C833 C 0.43966 0.47436 0.83438 0.0
C834 C 0.33654 0.32408 0.83594 0.0
C835 C 0.21114 0.3291 0.83231 0.0
N836 N 0.40512 0.42729 0.83483 0.0
N837 N 0.24596 0.37593 0.83198 0.0
H838 H 0.65934 0.83181 0.83093 0.0
H839 H 0.9902 0.97319 0.83661 0.0
H840 H 0.82417 0.74002 0.83869 0.0
H841 H 0.82377 0.06451 0.82976 0.0
H842 H 0.93057 0.88707 0.83731 0.0
H843 H 0.71878 0.9177 0.83069 0.0
C844 C 0.70777 0.82969 0.83273 0.0
C845 C 0.73647 0.77847 0.83491 0.0
C846 C 0.90719 0.92601 0.83564 0.0
C847 C 0.80539 0.87673 0.83443 0.0
C848 C 0.94129 0.97519 0.8352 0.0
C849 C 0.91213 0.02631 0.83312 0.0
C850 C 0.84345 0.92793 0.83397 0.0
C851 C 0.84845 0.02622 0.8314 0.0
C852 C 0.7419 0.87877 0.8325 0.0
C853 C 0.79988 0.77841 0.83695 0.0
N854 N 0.8164 0.97797 0.83187 0.0
N855 N 0.83211 0.82663 0.83664 0.0
H856 H 0.53797 0.20932 0.59279 0.0
H857 H 0.80482 0.10529 0.55351 0.0
H858 H 0.58574 0.29232 0.56192 0.0
H859 H 0.75105 0.01931 0.58373 0.0
H860 H 0.72808 0.1758 0.55682 0.0
H861 H 0.61821 0.14185 0.58987 0.0
C862 C 0.56531 0.2135 0.58536 0.0
C863 C 0.55471 0.25674 0.57755 0.0
C864 C 0.73307 0.14165 0.56275 0.0
C865 C 0.64748 0.17883 0.57419 0.0
C866 C 0.77698 0.10112 0.56088 0.0
C867 C 0.78446 0.05584 0.56835 0.0
C868 C 0.696 0.13722 0.57215 0.0
C869 C 0.74713 0.05334 0.57776 0.0
C870 C 0.61133 0.17473 0.58372 0.0
C871 C 0.59212 0.25976 0.56815 0.0
N872 N 0.70437 0.09339 0.57938 0.0
N873 N 0.63684 0.2212 0.56672 0.0
H874 H 0.2525 0.51768 0.58389 0.0
H875 H 0.08254 0.79227 0.56053 0.0
H876 H 0.29716 0.5992 0.55272 0.0
H877 H 0.03942 0.70891 0.59158 0.0
H878 H 0.16308 0.72316 0.55756 0.0
H879 H 0.17547 0.58914 0.58701 0.0
C880 C 0.2464 0.55061 0.57773 0.0
C881 C 0.28146 0.55219 0.56804 0.0
C882 C 0.13588 0.7202 0.56502 0.0
C883 C 0.19309 0.63412 0.5715 0.0
C884 C 0.08997 0.75965 0.56671 0.0
C885 C 0.05393 0.75642 0.57628 0.0
C886 C 0.14573 0.67742 0.57298 0.0
C887 C 0.06568 0.71315 0.58403 0.0
C888 C 0.20227 0.5914 0.5795 0.0
C889 C 0.27116 0.59594 0.56032 0.0
N890 N 0.11035 0.6755 0.58221 0.0
N891 N 0.22795 0.635 0.56221 0.0
H892 H 0.58278 0.44557 0.21207 0.0
H893 H 0.75177 0.72089 0.18888 0.0
H894 H 0.53719 0.53131 0.18138 0.0
H895 H 0.79904 0.63702 0.21968 0.0
H896 H 0.67437 0.64982 0.1858 0.0
H897 H 0.66401 0.51401 0.21495 0.0
C898 C 0.58978 0.47858 0.20595 0.0
C899 C 0.55288 0.48265 0.1965 0.0
C900 C 0.70184 0.64695 0.19322 0.0
C901 C 0.64547 0.56086 0.1997 0.0
C902 C 0.74618 0.68751 0.19496 0.0
C903 C 0.78201 0.68519 0.20456 0.0
C904 C 0.69322 0.60375 0.20113 0.0
C905 C 0.77239 0.64087 0.21218 0.0
C906 C 0.6361 0.51763 0.20759 0.0
C907 C 0.56412 0.52639 0.18883 0.0
N908 N 0.72893 0.60209 0.21031 0.0
N909 N 0.6092 0.56363 0.19061 0.0
H910 H 0.24859 0.22328 0.1886 0.0
H911 H 0.08561 0.94355 0.211 0.0
H912 H 0.3038 0.13224 0.21816 0.0
H913 H 0.03437 0.03233 0.18093 0.0
H914 H 0.16702 0.0118 0.21371 0.0
H915 H 0.1709 0.15238 0.18541 0.0
C916 C 0.24474 0.18835 0.19437 0.0
C917 C 0.28274 0.184 0.20367 0.0
C918 C 0.13788 0.01616 0.20651 0.0
C919 C 0.19373 0.10294 0.20015 0.0
C920 C 0.0914 0.97723 0.20498 0.0
C921 C 0.05293 0.98216 0.19575 0.0
C922 C 0.14578 0.06022 0.19876 0.0
C923 C 0.06266 0.02674 0.18821 0.0
C924 C 0.20024 0.14794 0.19258 0.0
C925 C 0.27535 0.13777 0.21091 0.0
N926 N 0.10794 0.06393 0.18989 0.0
N927 N 0.2317 0.09927 0.20901 0.0
H928 H 0.3257 0.50282 0.9342 0.0
H929 H 0.32416 0.1737 0.94459 0.0
H930 H 0.1626 0.40682 0.94105 0.0
H931 H 0.48808 0.26631 0.93653 0.0
H932 H 0.26532 0.25916 0.94349 0.0
H933 H 0.38593 0.4175 0.93494 0.0
C934 C 0.30233 0.46382 0.9358 0.0
C935 C 0.23867 0.46225 0.93756 0.0
C936 C 0.31414 0.26101 0.94197 0.0
C937 C 0.30797 0.36407 0.93848 0.0
C938 C 0.34807 0.21207 0.94263 0.0
C939 C 0.41152 0.21255 0.94066 0.0
C940 C 0.34349 0.31134 0.93932 0.0
C941 C 0.43942 0.26383 0.93814 0.0
C942 C 0.33695 0.41505 0.93624 0.0
C943 C 0.21131 0.41027 0.93958 0.0
N944 N 0.40521 0.31116 0.93753 0.0
N945 N 0.2461 0.36341 0.94002 0.0
H946 H 0.98933 0.76451 0.9365 0.0
H947 H 0.65773 0.90539 0.94186 0.0
H948 H 0.82367 0.67341 0.94399 0.0
H949 H 0.82298 -0.00209 0.93481 0.0
H950 H 0.71768 0.81974 0.94227 0.0
H951 H 0.92949 0.85055 0.93574 0.0
C952 C 0.94056 0.76254 0.93805 0.0
C953 C 0.91172 0.71149 0.94034 0.0
C954 C 0.74081 0.85879 0.9406 0.0
C955 C 0.84271 0.80983 0.93939 0.0
C956 C 0.70643 0.90777 0.9403 0.0
C957 C 0.73507 0.95916 0.93827 0.0
C958 C 0.80447 0.86101 0.93888 0.0
C959 C 0.79871 0.95942 0.93644 0.0
C960 C 0.90632 0.81168 0.93758 0.0
C961 C 0.84815 0.71164 0.94221 0.0
N962 N 0.83116 0.91125 0.93681 0.0
N963 N 0.81594 0.75987 0.94168 0.0
H964 H 0.16026 0.83343 0.33107 0.0
H965 H 0.49149 0.97451 0.3362 0.0
H966 H 0.32516 0.73972 0.33777 0.0
H967 H 0.32439 0.06442 0.32912 0.0
H968 H 0.43239 0.88789 0.33701 0.0
H969 H 0.22028 0.91864 0.33083 0.0
C970 C 0.20893 0.83071 0.33262 0.0
C971 C 0.2374 0.77913 0.33451 0.0
C972 C 0.40882 0.92666 0.33527 0.0
C973 C 0.30708 0.87694 0.33404 0.0
C974 C 0.44259 0.9761 0.33477 0.0
C975 C 0.41305 0.02697 0.33257 0.0
C976 C 0.34511 0.92816 0.33356 0.0
C977 C 0.34942 0.02639 0.33083 0.0
C978 C 0.2434 0.87948 0.3324 0.0
C979 C 0.30108 0.77844 0.33627 0.0
N980 N 0.31778 0.97797 0.33137 0.0
N981 N 0.33374 0.82651 0.33597 0.0
H982 H 0.98811 0.47743 0.33513 0.0
H983 H 0.65556 0.33826 0.33028 0.0
H984 H 0.82235 0.57057 0.32879 0.0
H985 H 0.82128 0.24583 0.33704 0.0
H986 H 0.71545 0.4241 0.3299 0.0
H987 H 0.92771 0.39191 0.33572 0.0
C988 C 0.93919 0.47995 0.3338 0.0
C989 C 0.91047 0.53141 0.3319 0.0
C990 C 0.73862 0.38499 0.3315 0.0
C991 C 0.84079 0.43363 0.33265 0.0
C992 C 0.70428 0.33597 0.3318 0.0
C993 C 0.73315 0.28459 0.33372 0.0
C994 C 0.80237 0.38267 0.33313 0.0
C995 C 0.79683 0.28431 0.33547 0.0
C996 C 0.90461 0.4311 0.33417 0.0
C997 C 0.84668 0.53197 0.33028 0.0
N998 N 0.82916 0.33242 0.33511 0.0
N999 N 0.81411 0.48398 0.33071 0.0
H1000 H 0.58407 0.79381 0.06089 0.0
H1001 H 0.74991 0.51566 0.08347 0.0
H1002 H 0.53601 0.70686 0.09132 0.0
H1003 H 0.80106 0.60366 0.05332 0.0
H1004 H 0.67245 0.58676 0.08671 0.0
H1005 H 0.66516 0.72525 0.05803 0.0
C1006 C 0.5905 0.76048 0.06695 0.0
C1007 C 0.55298 0.75614 0.07633 0.0
C1008 C 0.70083 0.59051 0.0794 0.0
C1009 C 0.64549 0.67771 0.07315 0.0
C1010 C 0.74521 0.54997 0.07758 0.0
C1011 C 0.78209 0.55343 0.06811 0.0
C1012 C 0.69325 0.63478 0.07169 0.0
C1013 C 0.77355 0.59886 0.06072 0.0
C1014 C 0.63678 0.72136 0.06534 0.0
C1015 C 0.56352 0.71198 0.08394 0.0
N1016 N 0.73004 0.63755 0.06265 0.0
N1017 N 0.6086 0.67461 0.08217 0.0
H1018 H 0.30119 0.10137 0.05191 0.0
H1019 H 0.03584 0.20708 0.09134 0.0
H1020 H 0.25068 0.01902 0.0827 0.0
H1021 H 0.08276 0.28989 0.0604 0.0
H1022 H 0.11585 0.13963 0.08837 0.0
H1023 H 0.2238 0.17168 0.05504 0.0
C1024 C 0.27393 0.09796 0.05937 0.0
C1025 C 0.28257 0.0538 0.06706 0.0
C1026 C 0.10886 0.17244 0.08221 0.0
C1027 C 0.19342 0.13488 0.07065 0.0
C1028 C 0.06292 0.21121 0.08387 0.0
C1029 C 0.05216 0.25444 0.07607 0.0
C1030 C 0.1448 0.17645 0.07266 0.0
C1031 C 0.08929 0.25734 0.06663 0.0
C1032 C 0.22966 0.13836 0.06113 0.0
C1033 C 0.24588 0.05217 0.07656 0.0
N1034 N 0.13397 0.21874 0.06518 0.0
N1035 N 0.20282 0.09205 0.07807 0.0
H1036 H 0.53487 0.02847 0.68105 0.0
H1037 H 0.80474 0.12975 0.71985 0.0
H1038 H 0.58578 0.94283 0.71147 0.0
H1039 H 0.74941 0.21705 0.68987 0.0
H1040 H 0.72748 0.05972 0.71662 0.0
H1041 H 0.61498 0.0959 0.68397 0.0
C1042 C 0.56286 0.0237 0.68838 0.0
C1043 C 0.55322 0.97968 0.69606 0.0
C1044 C 0.73223 0.09406 0.71073 0.0
C1045 C 0.64588 0.05758 0.69941 0.0
C1046 C 0.77644 0.13432 0.71255 0.0
C1047 C 0.78365 0.17981 0.70513 0.0
C1048 C 0.69459 0.09899 0.70141 0.0
C1049 C 0.7457 0.18284 0.69581 0.0
C1050 C 0.60881 0.06246 0.69002 0.0
C1051 C 0.59142 0.97599 0.70535 0.0
N1052 N 0.70267 0.14304 0.69424 0.0
N1053 N 0.63608 0.01454 0.70677 0.0
H1054 H 0.08539 0.44063 0.71218 0.0
H1055 H 0.25174 0.71739 0.68901 0.0
H1056 H 0.03657 0.52758 0.68179 0.0
H1057 H 0.30309 0.63095 0.71932 0.0
H1058 H 0.17414 0.64632 0.68598 0.0
H1059 H 0.16707 0.50884 0.71487 0.0
C1060 C 0.09177 0.47387 0.70609 0.0
C1061 C 0.05385 0.47832 0.69678 0.0
C1062 C 0.20258 0.6429 0.69328 0.0
C1063 C 0.14698 0.55628 0.69976 0.0
C1064 C 0.24705 0.68344 0.69498 0.0
C1065 C 0.284 0.68044 0.70443 0.0
C1066 C 0.19499 0.59906 0.70109 0.0
C1067 C 0.27551 0.63539 0.71193 0.0
C1068 C 0.13837 0.51278 0.70761 0.0
C1069 C 0.06433 0.52235 0.68913 0.0
N1070 N 0.2319 0.59669 0.71011 0.0
N1071 N 0.1097 0.55946 0.6908 0.0
H1072 H 0.15872 0.04329 0.39258 0.0
H1073 H 0.35661 0.29738 0.37344 0.0
H1074 H 0.14089 0.19807 0.40926 0.0
H1075 H 0.28349 0.18293 0.35011 0.0
H1076 H 0.28227 0.26288 0.38715 0.0
H1077 H 0.21082 0.09242 0.37739 0.0
C1078 C 0.16617 0.08753 0.39312 0.0
C1079 C 0.14736 0.11619 0.40246 0.0
C1080 C 0.28166 0.24636 0.37894 0.0
C1081 C 0.20705 0.17263 0.38505 0.0
C1082 C 0.32384 0.26615 0.3711 0.0
C1083 C 0.32658 0.24275 0.36063 0.0
C1084 C 0.24321 0.20198 0.37636 0.0
C1085 C 0.28307 0.20226 0.35806 0.0
C1086 C 0.19559 0.11557 0.3844 0.0
C1087 C 0.15757 0.17371 0.40257 0.0
N1088 N 0.24419 0.18219 0.36596 0.0
N1089 N 0.18753 0.19997 0.39407 0.0
H1090 H 0.66062 0.20374 0.37882 0.0
H1091 H 0.85355 0.94792 0.39849 0.0
H1092 H 0.63397 0.04634 0.36351 0.0
H1093 H 0.78688 0.06641 0.42165 0.0
H1094 H 0.77797 0.98249 0.38501 0.0
H1095 H 0.7133 0.15574 0.39412 0.0
C1096 C 0.66621 0.15915 0.37861 0.0
C1097 C 0.64497 0.12929 0.36961 0.0
C1098 C 0.77903 -8e-05 0.39315 0.0
C1099 C 0.70516 0.07425 0.3871 0.0
C1100 C 0.82191 0.98012 0.40084 0.0
C1101 C 0.82666 0.0045 0.41119 0.0
C1102 C 0.74202 0.04534 0.39573 0.0
C1103 C 0.7847 0.04628 0.4138 0.0
C1104 C 0.69594 0.13179 0.38738 0.0
C1105 C 0.65268 0.07142 0.36992 0.0
N1106 N 0.74511 0.06634 0.40602 0.0
N1107 N 0.683 0.04581 0.37843 0.0
H1108 H 0.28457 0.06043 0.92318 0.0
H1109 H 0.13704 0.03862 0.8635 0.0
H1110 H 0.35294 0.94353 0.89984 0.0
H1111 H 0.1662 0.19392 0.87947 0.0
H1112 H 0.19084 0.99045 0.87869 0.0
H1113 H 0.21108 0.09436 0.90934 0.0
C1114 C 0.2827 0.04046 0.9153 0.0
C1115 C 0.32538 -0.00059 0.91262 0.0
C1116 C 0.18544 0.03508 0.8788 0.0
C1117 C 0.24181 0.03841 0.89679 0.0
C1118 C 0.15596 0.0628 0.87003 0.0
C1119 C 0.14967 0.12079 0.8699 0.0
C1120 C 0.20677 0.06538 0.8877 0.0
C1121 C 0.17094 0.14934 0.87908 0.0
C1122 C 0.24129 0.0604 0.90737 0.0
C1123 C 0.32116 0.97557 0.9022 0.0
N1124 N 0.19857 0.12136 0.8876 0.0
N1125 N 0.28046 -0.00424 0.89461 0.0
H1126 H 0.58687 0.09304 0.89049 0.0
H1127 H 0.87985 0.28156 0.87674 0.0
H1128 H 0.72448 0.13671 0.91416 0.0
H1129 H 0.77868 0.19791 0.85155 0.0
H1130 H 0.80711 0.24656 0.8905 0.0
H1131 H 0.64446 0.14429 0.87606 0.0
C1132 C 0.62906 0.11366 0.89265 0.0
C1133 C 0.65026 0.112 0.90358 0.0
C1134 C 0.80033 0.23648 0.88193 0.0
C1135 C 0.71565 0.17091 0.88723 0.0
C1136 C 0.84155 0.25688 0.87404 0.0
C1137 C 0.83618 0.24183 0.86297 0.0
C1138 C 0.7532 0.20078 0.87877 0.0
C1139 C 0.78501 0.21027 0.85999 0.0
C1140 C 0.6616 0.1431 0.88445 0.0
C1141 C 0.70522 0.13899 0.90594 0.0
N1142 N 0.74598 0.19001 0.86788 0.0
N1143 N 0.73593 0.1674 0.89785 0.0
H1144 H 0.49304 0.96693 0.64928 0.0
H1145 H 0.68641 0.84493 0.59967 0.0
H1146 H 0.48389 0.79775 0.63869 0.0
H1147 H 0.72649 0.00194 0.61426 0.0
H1148 H 0.59352 0.83788 0.61072 0.0
H1149 H 0.5605 0.9895 0.63365 0.0
C1150 C 0.50424 0.93474 0.64357 0.0
C1151 C 0.48338 0.8801 0.64539 0.0
C1152 C 0.62206 0.87433 0.6114 0.0
C1153 C 0.56048 0.90581 0.6275 0.0
C1154 C 0.67509 0.87853 0.60505 0.0
C1155 C 0.71504 0.92358 0.60621 0.0
C1156 C 0.60883 0.91526 0.61904 0.0
C1157 C 0.69734 0.96623 0.61319 0.0
C1158 C 0.54294 0.94768 0.63467 0.0
C1159 C 0.49949 0.84021 0.63771 0.0
N1160 N 0.64602 0.96055 0.61951 0.0
N1161 N 0.5374 0.85376 0.62917 0.0
H1162 H 0.97841 0.93781 0.6343 0.0
H1163 H 0.22801 0.72979 0.65884 0.0
H1164 H -0.00128 0.77028 0.62323 0.0
H1165 H 0.18677 0.88928 0.67232 0.0
H1166 H 0.13494 0.73714 0.64761 0.0
H1167 H 0.04528 0.91532 0.64988 0.0
C1168 C -0.00362 0.89605 0.63522 0.0
C1169 C 0.98349 0.85611 0.62736 0.0
C1170 C 0.14569 0.77001 0.65319 0.0
C1171 C 0.06109 0.8301 0.64516 0.0
C1172 C 0.19868 0.76567 0.65966 0.0
C1173 C 0.21596 0.80952 0.66636 0.0
C1174 C 0.11005 0.81858 0.65343 0.0
C1175 C 0.17601 0.85494 0.6671 0.0
C1176 C 0.03456 0.88313 0.64414 0.0
C1177 C 0.00762 0.80248 0.62906 0.0
N1178 N 0.12562 0.85867 0.66059 0.0
N1179 N 0.04609 0.79129 0.63767 0.0
H1180 H 0.72573 0.73334 0.15878 0.0
H1181 H 0.47772 0.94137 0.13365 0.0
H1182 H 0.68606 0.89424 0.17177 0.0
H1183 H 0.49635 0.77273 0.12313 0.0
H1184 H 0.54473 0.91969 0.14925 0.0
H1185 H 0.63276 0.74062 0.14752 0.0
C1186 C 0.69677 0.76955 0.15948 0.0
C1187 C 0.71447 0.81376 0.16606 0.0
C1188 C 0.5336 0.88709 0.14363 0.0
C1189 C 0.60866 0.82271 0.15309 0.0
C1190 C 0.49534 0.89955 0.13469 0.0
C1191 C 0.48193 0.85904 0.12698 0.0
C1192 C 0.55968 0.83394 0.14481 0.0
C1193 C 0.50564 0.80536 0.12884 0.0
C1194 C 0.64384 0.77384 0.153 0.0
C1195 C 0.67498 0.85959 0.16666 0.0
N1196 N 0.54419 0.79461 0.13746 0.0
N1197 N 0.62463 0.86324 0.16013 0.0
H1198 H 0.99259 0.96941 0.14893 0.0
H1199 H 0.1849 0.8462 0.09927 0.0
H1200 H 0.98319 0.79992 0.13852 0.0
H1201 H 0.22547 0.00354 0.11369 0.0
H1202 H 0.0925 0.83926 0.11046 0.0
H1203 H 0.06011 0.99145 0.13327 0.0
C1204 C 0.00376 0.93703 0.14325 0.0
C1205 C 0.98275 0.88248 0.14514 0.0
C1206 C 0.12103 0.87575 0.11107 0.0
C1207 C 0.05992 0.9076 0.12721 0.0
C1208 C 0.17377 0.8799 0.10464 0.0
C1209 C 0.21373 0.92504 0.1057 0.0
C1210 C 0.10807 0.91684 0.1187 0.0
C1211 C 0.19629 0.96779 0.11267 0.0
C1212 C 0.0425 0.94968 0.13434 0.0
C1213 C -0.00114 0.84234 0.1375 0.0
N1214 N 0.14525 0.96218 0.11907 0.0
N1215 N 0.03678 0.85561 0.12894 0.0
H1216 H 0.37329 0.78575 0.87524 0.0
H1217 H 0.08737 0.58996 0.88982 0.0
H1218 H 0.27856 0.69265 0.85061 0.0
H1219 H 0.22109 0.64301 0.91338 0.0
H1220 H 0.14347 0.64087 0.87517 0.0
H1221 H 0.30021 0.75193 0.88906 0.0
C1222 C 0.33624 0.75924 0.87266 0.0
C1223 C 0.33285 0.74121 0.86176 0.0
C1224 C 0.15999 0.64191 0.88358 0.0
C1225 C 0.24955 0.70153 0.87764 0.0
C1226 C 0.12831 0.61266 0.89192 0.0
C1227 C 0.14884 0.61363 0.90288 0.0
C1228 C 0.2125 0.67225 0.88625 0.0
C1229 C 0.20219 0.64332 0.90515 0.0
C1230 C 0.29485 0.73954 0.8806 0.0
C1231 C 0.28327 0.70738 0.85892 0.0
N1232 N 0.23209 0.67152 0.89692 0.0
N1233 N 0.24408 0.68784 0.86685 0.0
H1234 H 0.78419 0.55776 0.92297 0.0
H1235 H 0.63392 0.53684 0.86351 0.0
H1236 H 0.8538 0.44357 0.89921 0.0
H1237 H 0.66164 0.69179 0.87969 0.0
H1238 H 0.68919 0.48871 0.87852 0.0
H1239 H 0.70924 0.59117 0.90935 0.0
C1240 C 0.78235 0.53826 0.91503 0.0
C1241 C 0.82576 0.49817 0.91217 0.0
C1242 C 0.68308 0.53325 0.87873 0.0
C1243 C 0.74046 0.53654 0.8966 0.0
C1244 C 0.65282 0.56098 0.87005 0.0
C1245 C 0.64587 0.6189 0.87001 0.0
C1246 C 0.70438 0.56342 0.88765 0.0
C1247 C 0.66692 0.64728 0.87923 0.0
C1248 C 0.74007 0.5579 0.90724 0.0
C1249 C 0.8215 0.47489 0.90171 0.0
N1250 N 0.69528 0.61928 0.88767 0.0
N1251 N 0.77992 0.49477 0.89424 0.0
H1252 H 0.22924 0.59603 0.35743 0.0
H1253 H 0.27765 0.52803 0.4212 0.0
H1254 H 0.09412 0.63692 0.3818 0.0
H1255 H 0.3834 0.45303 0.39547 0.0
H1256 H 0.20555 0.56305 0.40724 0.0
H1257 H 0.28547 0.54246 0.37153 0.0
C1258 C 0.21075 0.59261 0.3657 0.0
C1259 C 0.15634 0.61967 0.36841 0.0
C1260 C 0.24392 0.53802 0.40469 0.0
C1261 C 0.22064 0.55911 0.38465 0.0
C1262 C 0.28485 0.51748 0.41268 0.0
C1263 C 0.33747 0.48843 0.4095 0.0
C1264 C 0.25603 0.52969 0.39347 0.0
C1265 C 0.34418 0.47612 0.39831 0.0
C1266 C 0.2429 0.56224 0.37377 0.0
C1267 C 0.13591 0.61634 0.37939 0.0
N1268 N 0.30468 0.4977 0.39069 0.0
N1269 N 0.16808 0.58655 0.38713 0.0
H1270 H 0.7271 0.6416 0.41551 0.0
H1271 H 0.7784 0.70166 0.35153 0.0
H1272 H 0.59411 0.59621 0.39113 0.0
H1273 H 0.88121 0.78169 0.37698 0.0
H1274 H 0.70597 0.66774 0.36557 0.0
H1275 H 0.78306 0.69448 0.40128 0.0
C1276 C 0.70896 0.64388 0.4072 0.0
C1277 C 0.6552 0.61577 0.40453 0.0
C1278 C 0.74377 0.69362 0.36803 0.0
C1279 C 0.71949 0.67521 0.38813 0.0
C1280 C 0.78486 0.7135 0.36 0.0
C1281 C 0.83673 0.7437 0.36309 0.0
C1282 C 0.755 0.70375 0.37921 0.0
C1283 C 0.84257 0.75766 0.37422 0.0
C1284 C 0.74107 0.67376 0.39905 0.0
C1285 C 0.63537 0.61763 0.39352 0.0
N1286 N 0.80296 0.73671 0.38189 0.0
N1287 N 0.66754 0.64685 0.3857 0.0
H1288 H 0.49597 0.47196 0.14941 0.0
H1289 H 0.68498 0.34626 0.09958 0.0
H1290 H 0.48058 0.30373 0.13849 0.0
H1291 H 0.72793 0.50345 0.11385 0.0
H1292 H 0.59251 0.34075 0.11078 0.0
H1293 H 0.56397 0.49326 0.13376 0.0
C1294 C 0.50591 0.43976 0.14362 0.0
C1295 C 0.48311 0.38571 0.14536 0.0
C1296 C 0.6216 0.37689 0.11136 0.0
C1297 C 0.56085 0.40992 0.12746 0.0
C1298 C 0.6744 0.38021 0.10493 0.0
C1299 C 0.71502 0.42489 0.10594 0.0
C1300 C 0.60925 0.41832 0.11895 0.0
C1301 C 0.69825 0.468 0.11288 0.0
C1302 C 0.54493 0.45195 0.13472 0.0
C1303 C 0.49768 0.34574 0.13758 0.0
N1304 N 0.64715 0.46318 0.11929 0.0
N1305 N 0.53591 0.35854 0.12905 0.0
H1306 H 0.18555 0.39556 0.17246 0.0
H1307 H -0.00548 0.26866 0.12309 0.0
H1308 H 0.22662 0.2371 0.15852 0.0
H1309 H 0.98155 0.43795 0.13351 0.0
H1310 H 0.0623 0.24766 0.13876 0.0
H1311 H 0.09299 0.40136 0.16131 0.0
C1312 C 0.17455 0.36142 0.1672 0.0
C1313 C 0.21468 0.31628 0.16626 0.0
C1314 C 0.04384 0.28915 0.1377 0.0
C1315 C 0.1088 0.32314 0.15331 0.0
C1316 C 0.00494 0.30118 0.12878 0.0
C1317 C 0.98291 0.3554 0.12689 0.0
C1318 C 0.0604 0.33153 0.14482 0.0
C1319 C -0.00193 0.39578 0.13453 0.0
C1320 C 0.12169 0.3649 0.16079 0.0
C1321 C 0.19736 0.27293 0.15943 0.0
N1322 N 0.03619 0.38313 0.14309 0.0
N1323 N 0.14621 0.27789 0.15305 0.0
H1324 H 0.47923 0.44228 0.63451 0.0
H1325 H 0.72401 0.23183 0.65986 0.0
H1326 H 0.49529 0.27306 0.62419 0.0
H1327 H 0.68659 0.39338 0.67275 0.0
H1328 H 0.63118 0.24001 0.64859 0.0
H1329 H 0.54588 0.4202 0.65014 0.0
C1330 C 0.4962 0.40026 0.6356 0.0
C1331 C 0.48219 0.35969 0.62794 0.0
C1332 C 0.64271 0.27318 0.65405 0.0
C1333 C 0.55949 0.33412 0.6458 0.0
C1334 C 0.69556 0.26838 0.66054 0.0
C1335 C 0.71387 0.31247 0.6671 0.0
C1336 C 0.60824 0.32247 0.65411 0.0
C1337 C 0.67503 0.35877 0.66766 0.0
C1338 C 0.53425 0.38758 0.64456 0.0
C1339 C 0.50508 0.30576 0.62986 0.0
N1340 N 0.62476 0.36292 0.66112 0.0
N1341 N 0.54342 0.29477 0.6385 0.0
H1342 H 0.22497 0.50572 0.61403 0.0
H1343 H 0.97653 0.29738 0.63904 0.0
H1344 H 0.18638 0.34444 0.60116 0.0
H1345 H -0.00305 0.46507 0.64999 0.0
H1346 H 0.04354 0.31942 0.62345 0.0
H1347 H 0.13205 0.49823 0.62533 0.0
C1348 C 0.19625 0.46938 0.61336 0.0
C1349 C 0.21424 0.42516 0.6068 0.0
C1350 C 0.03283 0.35174 0.62916 0.0
C1351 C 0.10846 0.41597 0.61981 0.0
C1352 C -0.00546 0.33909 0.63809 0.0
C1353 C 0.98162 0.37919 0.64592 0.0
C1354 C 0.05944 0.40469 0.6281 0.0
C1355 C 0.00584 0.43275 0.64418 0.0
C1356 C 0.14335 0.46497 0.61987 0.0
C1357 C 0.17507 0.37914 0.60625 0.0
N1358 N 0.0444 0.44368 0.63556 0.0
N1359 N 0.12472 0.3754 0.6128 0.0
H1360 H 0.33136 0.26518 0.5288 0.0
H1361 H 0.32504 0.25265 0.46431 0.0
H1362 H 0.39851 0.40719 0.50998 0.0
H1363 H 0.16745 0.20976 0.4842 0.0
H1364 H 0.37283 0.2941 0.48061 0.0
H1365 H 0.29109 0.22689 0.51185 0.0
C1366 C 0.33774 0.28813 0.52106 0.0
C1367 C 0.36761 0.33947 0.52071 0.0
C1368 C 0.32776 0.27563 0.4813 0.0
C1369 C 0.32305 0.29552 0.50142 0.0
C1370 C 0.30091 0.25191 0.4721 0.0
C1371 C 0.24244 0.22837 0.47298 0.0
C1372 C 0.29631 0.27371 0.49138 0.0
C1373 C 0.21248 0.22798 0.48319 0.0
C1374 C 0.31479 0.26636 0.51146 0.0
C1375 C 0.37488 0.36775 0.51052 0.0
N1376 N 0.24006 0.24987 0.49205 0.0
N1377 N 0.35295 0.34509 0.50117 0.0
H1378 H 0.04875 0.86819 0.52382 0.0
H1379 H 0.98417 0.12391 0.48261 0.0
H1380 H 0.06127 0.03982 0.53274 0.0
H1381 H 0.04445 0.96753 0.46999 0.0
H1382 H -0.00174 0.08714 0.50132 0.0
H1383 H 0.04118 0.89813 0.50435 0.0
C1384 C 0.05199 0.91204 0.52172 0.0
C1385 C 0.05533 0.95153 0.53006 0.0
C1386 C 0.00812 0.06058 0.49449 0.0
C1387 C 0.04435 0.98588 0.50774 0.0
C1388 C -0.00063 0.08136 0.48376 0.0
C1389 C 0.01357 0.04906 0.47463 0.0
C1390 C 0.03085 0.00665 0.49627 0.0
C1391 C 0.03272 -0.00602 0.47674 0.0
C1392 C 0.04681 0.92904 0.51057 0.0
C1393 C 0.05841 0.00774 0.5267 0.0
N1394 N 0.04117 0.97455 0.48735 0.0
N1395 N 0.05179 0.02312 0.51588 0.0
H1396 H 0.3164 0.95843 0.74405 0.0
H1397 H 0.31856 0.98113 0.80806 0.0
H1398 H 0.39944 0.82457 0.76312 0.0
H1399 H 0.15335 0.00807 0.78917 0.0
H1400 H 0.36568 0.9383 0.79188 0.0
H1401 H 0.27255 -0.00573 0.76097 0.0
C1402 C 0.32534 0.93674 0.75184 0.0
C1403 C 0.36088 0.88847 0.7523 0.0
C1404 C 0.319 0.95337 0.7914 0.0
C1405 C 0.31238 0.92962 0.77152 0.0
C1406 C 0.29243 0.97785 0.80054 0.0
C1407 C 0.23216 -0.00236 0.79991 0.0
C1408 C 0.28535 0.95071 0.7816 0.0
C1409 C 0.19984 0.99293 0.79001 0.0
C1410 C 0.30035 0.95704 0.76142 0.0
C1411 C 0.37146 0.86163 0.76253 0.0
N1412 N 0.22715 0.9705 0.78117 0.0
N1413 N 0.34761 0.88298 0.77186 0.0
H1414 H 0.9788 0.11106 0.79036 0.0
H1415 H 0.0515 0.36458 0.74886 0.0
H1416 H 0.04202 0.26702 0.80269 0.0
H1417 H 0.05615 0.19248 0.74002 0.0
H1418 H 0.04155 0.33519 0.76833 0.0
H1419 H 0.99295 0.14698 0.77159 0.0
C1420 C -0.00532 0.15335 0.78914 0.0
C1421 C 0.00969 0.18575 0.7982 0.0
C1422 C 0.04586 0.304 0.76213 0.0
C1423 C 0.02705 0.22718 0.77649 0.0
C1424 C 0.05236 0.32066 0.75098 0.0
C1425 C 0.05443 0.28097 0.74266 0.0
C1426 C 0.04089 0.24732 0.76498 0.0
C1427 C 0.05441 0.22472 0.74605 0.0
C1428 C 0.00343 0.17364 0.77837 0.0
C1429 C 0.02969 0.24048 0.79599 0.0
N1430 N 0.04675 0.20974 0.75686 0.0
N1431 N 0.03819 0.2594 0.78535 0.0
H1432 H 0.80638 0.76014 0.46474 0.0
H1433 H 0.8168 0.77591 0.52892 0.0
H1434 H 0.64772 0.72277 0.48483 0.0
H1435 H 0.89322 0.91232 0.50964 0.0
H1436 H 0.77016 0.74055 0.51223 0.0
H1437 H 0.85482 0.8031 0.48074 0.0
C1438 C 0.78195 0.7611 0.4725 0.0
C1439 C 0.72321 0.73817 0.47352 0.0
C1440 C 0.79709 0.77825 0.51168 0.0
C1441 C 0.77796 0.78556 0.49162 0.0
C1442 C 0.82376 0.79825 0.52113 0.0
C1443 C 0.8583 0.84706 0.52056 0.0
C1444 C 0.80636 0.80657 0.50158 0.0
C1445 C 0.86614 0.87478 0.51033 0.0
C1446 C 0.80926 0.78573 0.48153 0.0
C1447 C 0.69301 0.74026 0.4837 0.0
N1448 N 0.84066 0.85373 0.50112 0.0
N1449 N 0.72111 0.76298 0.49241 0.0
H1450 H 0.82482 0.96785 0.24437 0.0
H1451 H 0.82159 0.98277 0.30859 0.0
H1452 H 0.89853 0.82769 0.26292 0.0
H1453 H 0.65962 0.01622 0.28919 0.0
H1454 H 0.86956 0.94106 0.29233 0.0
H1455 H 0.78296 0.00397 0.26141 0.0
C1456 C 0.83228 0.94487 0.25206 0.0
C1457 C 0.86446 0.89467 0.25232 0.0
C1458 C 0.82342 0.95737 0.29175 0.0
C1459 C 0.81813 0.93614 0.2717 0.0
C1460 C 0.79642 0.98123 0.30093 0.0
C1461 C 0.7368 0.00245 0.30017 0.0
C1462 C 0.79085 0.95682 0.2818 0.0
C1463 C 0.70557 -0.00012 0.29011 0.0
C1464 C 0.80842 0.96537 0.26172 0.0
C1465 C 0.8731 0.86626 0.26246 0.0
N1466 N 0.73329 0.97804 0.28127 0.0
N1467 N 0.85028 0.88772 0.27187 0.0
H1468 H 0.97391 0.62107 0.28987 0.0
H1469 H 0.05042 0.87213 0.24827 0.0
H1470 H 0.04613 0.77353 0.30232 0.0
H1471 H 0.05613 0.69964 0.23972 0.0
H1472 H 0.04124 0.84348 0.26779 0.0
H1473 H 0.98802 0.65737 0.27112 0.0
C1474 C 0.99169 0.66275 0.28868 0.0
C1475 C 0.00932 0.69397 0.29775 0.0
C1476 C 0.04568 0.81208 0.26164 0.0
C1477 C 0.02667 0.73574 0.27608 0.0
C1478 C 0.05173 0.8283 0.25046 0.0
C1479 C 0.05371 0.78826 0.2422 0.0
C1480 C 0.04089 0.75551 0.26458 0.0
C1481 C 0.05435 0.73214 0.24569 0.0
C1482 C 0.00044 0.6832 0.27793 0.0
C1483 C 0.03172 0.74797 0.2956 0.0
N1484 N 0.04689 0.71759 0.25652 0.0
N1485 N 0.04019 0.76708 0.28497 0.0
H1486 H 0.40359 0.91404 0.00924 0.0
H1487 H 0.15841 0.72942 0.98262 0.0
H1488 H 0.33311 0.76898 0.02664 0.0
H1489 H 0.32454 0.75414 0.96375 0.0
H1490 H 0.20897 0.76723 0.99862 0.0
H1491 H 0.36302 0.87756 0.99186 0.0
C1492 C 0.37953 0.87476 0.00937 0.0
C1493 C 0.37109 0.84439 0.0193 0.0
C1494 C 0.23404 0.76467 0.99093 0.0
C1495 C 0.32494 0.80369 0.99982 0.0
C1496 C 0.20538 0.74337 0.9818 0.0
C1497 C 0.23731 0.73912 0.97182 0.0
C1498 C 0.29457 0.78293 0.99004 0.0
C1499 C 0.29837 0.75717 0.97129 0.0
C1500 C 0.35715 0.85394 0.99952 0.0
C1501 C 0.34043 0.79348 0.01913 0.0
N1502 N 0.3252 0.77899 0.98031 0.0
N1503 N 0.31755 0.77507 0.00955 0.0
H1504 H 0.0377 0.46786 0.9698 0.0
H1505 H 0.07087 0.54008 0.03367 0.0
H1506 H 0.0004 0.62767 0.9835 0.0
H1507 H 0.04651 0.37137 0.02357 0.0
H1508 H 0.06594 0.57118 0.01436 0.0
H1509 H 0.05344 0.42961 0.98868 0.0
C1510 C 0.03171 0.49469 0.97673 0.0
C1511 C 0.01796 0.55131 0.97498 0.0
C1512 C 0.06256 0.52721 0.01634 0.0
C1513 C 0.03818 0.50824 0.99652 0.0
C1514 C 0.06639 0.5093 0.02738 0.0
C1515 C 0.05872 0.45301 0.03036 0.0
C1516 C 0.05114 0.48873 0.0081 0.0
C1517 C 0.05287 0.41519 0.02175 0.0
C1518 C 0.04141 0.47294 0.98749 0.0
C1519 C 0.0114 0.58397 0.98434 0.0
N1520 N 0.04833 0.43378 0.01103 0.0
N1521 N 0.0222 0.56221 0.99461 0.0
H1522 H 0.32252 0.54151 0.30248 0.0
H1523 H 0.30536 0.31464 0.25594 0.0
H1524 H 0.16083 0.44482 0.29595 0.0
H1525 H 0.42682 0.45582 0.25404 0.0
H1526 H 0.26584 0.34758 0.27348 0.0
H1527 H 0.37492 0.4956 0.28737 0.0
C1528 C 0.29819 0.51052 0.29791 0.0
C1529 C 0.23693 0.49769 0.3003 0.0
C1530 C 0.30145 0.371 0.26923 0.0
C1531 C 0.29659 0.4448 0.28325 0.0
C1532 C 0.32404 0.35224 0.25926 0.0
C1533 C 0.36852 0.38318 0.25347 0.0
C1534 C 0.32423 0.42047 0.27345 0.0
C1535 C 0.39157 0.43139 0.25816 0.0
C1536 C 0.32805 0.48444 0.28932 0.0
C1537 C 0.2077 0.45677 0.29422 0.0
N1538 N 0.36896 0.44874 0.26788 0.0
N1539 N 0.23779 0.43184 0.28594 0.0
H1540 H 0.67098 0.30732 0.97332 0.0
H1541 H 0.92561 0.27534 0.01887 0.0
H1542 H 0.82417 0.19591 0.96988 0.0
H1543 H 0.81337 0.42224 0.01523 0.0
H1544 H 0.88955 0.24511 1.00098 0.0
H1545 H 0.72281 0.35031 0.98864 0.0
C1546 C 0.71574 0.29206 0.97577 0.0
C1547 C 0.74296 0.24735 0.97049 0.0
C1548 C 0.87333 0.28421 1.00405 0.0
C1549 C 0.8023 0.29622 0.98802 0.0
C1550 C 0.89341 0.30127 0.0143 0.0
C1551 C 0.87157 0.35093 0.01861 0.0
C1552 C 0.83045 0.31662 0.99817 0.0
C1553 C 0.83089 0.38343 0.01225 0.0
C1554 C 0.74545 0.31689 0.98447 0.0
C1555 C 0.80146 0.22997 0.97383 0.0
N1556 N 0.81095 0.3653 1.00239 0.0
N1557 N 0.8289 0.25391 0.98255 0.0
H1558 H 0.66986 0.43326 0.79865 0.0
H1559 H 0.93231 0.45623 0.75429 0.0
H1560 H 0.82636 0.54008 0.80266 0.0
H1561 H 0.81466 0.31284 0.75752 0.0
H1562 H 0.89466 0.48799 0.77198 0.0
H1563 H 0.72218 0.38857 0.78354 0.0
C1564 C 0.71536 0.44724 0.79635 0.0
C1565 C 0.74348 0.4911 0.80176 0.0
C1566 C 0.87759 0.44929 0.76887 0.0
C1567 C 0.80345 0.44015 0.7845 0.0
C1568 C 0.89863 0.43136 0.75874 0.0
C1569 C 0.87566 0.38235 0.75437 0.0
C1570 C 0.83259 0.41843 0.77455 0.0
C1571 C 0.8331 0.35114 0.76057 0.0
C1572 C 0.74536 0.42139 0.78779 0.0
C1573 C 0.8029 0.50677 0.79862 0.0
N1574 N 0.81218 0.37017 0.7703 0.0
N1575 N 0.83068 0.4818 0.79005 0.0
H1576 H 0.49243 0.13054 0.98365 0.0
H1577 H 0.54921 0.86874 0.0239 0.0
H1578 H 0.53945 0.97136 0.97062 0.0
H1579 H 0.56428 0.03899 0.03362 0.0
H1580 H 0.54143 0.90098 1.00459 0.0
H1581 H 0.50686 0.0925 1.00225 0.0
C1582 C 0.50492 0.08721 0.98468 0.0
C1583 C 0.51521 0.05439 0.97547 0.0
C1584 C 0.54766 0.9311 0.01094 0.0
C1585 C 0.53283 0.01042 0.99698 0.0
C1586 C 0.55297 0.91276 0.022 0.0
C1587 C 0.55713 0.95119 0.03052 0.0
C1588 C 0.54601 0.98825 0.00837 0.0
C1589 C 0.56081 0.00771 0.02742 0.0
C1590 C 0.51382 0.06564 0.99535 0.0
C1591 C 0.53089 -0.00169 0.97744 0.0
N1592 N 0.55417 0.02442 0.01668 0.0
N1593 N 0.53956 0.97813 0.98799 0.0
H1594 H 0.48711 0.10836 0.28946 0.0
H1595 H 0.54944 0.36598 0.24841 0.0
H1596 H 0.53799 0.26769 0.30194 0.0
H1597 H 0.55964 0.19471 0.23914 0.0
H1598 H 0.54144 0.33524 0.26781 0.0
H1599 H 0.50214 0.14457 0.27074 0.0
C1600 C 0.50051 0.15137 0.28828 0.0
C1601 C 0.5117 0.18475 0.29738 0.0
C1602 C 0.54662 0.30453 0.26153 0.0
C1603 C 0.53006 0.22657 0.27572 0.0
C1604 C 0.55209 0.32199 0.25043 0.0
C1605 C 0.55492 0.28289 0.24201 0.0
C1606 C 0.54353 0.2476 0.26426 0.0
C1607 C 0.55722 0.22649 0.24526 0.0
C1608 C 0.50979 0.17187 0.27754 0.0
C1609 C 0.52864 0.24036 0.29521 0.0
N1610 N 0.55048 0.21067 0.25605 0.0
N1611 N 0.53764 0.25948 0.2846 0.0
H1612 H 0.53734 0.76873 0.80283 0.0
H1613 H 0.57195 0.69597 0.73902 0.0
H1614 H 0.50098 0.60864 0.7892 0.0
H1615 H 0.54524 0.86467 0.74897 0.0
H1616 H 0.5665 0.66516 0.75834 0.0
H1617 H 0.55237 0.80695 0.78393 0.0
C1618 C 0.53138 0.74183 0.79591 0.0
C1619 C 0.51819 0.68512 0.79769 0.0
C1620 C 0.56269 0.70907 0.75632 0.0
C1621 C 0.53762 0.72818 0.77611 0.0
C1622 C 0.56681 0.72683 0.74528 0.0
C1623 C 0.55868 0.78302 0.74226 0.0
C1624 C 0.55056 0.74761 0.76453 0.0
C1625 C 0.55198 0.82093 0.75083 0.0
C1626 C 0.54069 0.76357 0.78513 0.0
C1627 C 0.51162 0.65239 0.78834 0.0
N1628 N 0.54724 0.80249 0.76156 0.0
N1629 N 0.52207 0.67414 0.77805 0.0
H1630 H 0.5503 0.36536 0.52464 0.0
H1631 H 0.46795 0.61436 0.48287 0.0
H1632 H 0.55403 0.5382 0.53295 0.0
H1633 H 0.54273 0.46268 0.47046 0.0
H1634 H 0.48323 0.57862 0.50163 0.0
H1635 H 0.53955 0.3933 0.50509 0.0
C1636 C 0.55081 0.40913 0.52238 0.0
C1637 C 0.55279 0.44946 0.53058 0.0
C1638 C 0.49596 0.55283 0.49483 0.0
C1639 C 0.53815 0.48139 0.5082 0.0
C1640 C 0.48655 0.57296 0.48407 0.0
C1641 C 0.50455 0.54183 0.475 0.0
C1642 C 0.5232 0.5007 0.49669 0.0
C1643 C 0.52802 0.48819 0.47717 0.0
C1644 C 0.54388 0.42494 0.5112 0.0
C1645 C 0.55232 0.50548 0.52703 0.0
N1646 N 0.53709 0.4694 0.48781 0.0
N1647 N 0.54402 0.51961 0.51619 0.0
loop_
_geom_bond_atom_site_label_1
_geom_bond_atom_site_label_2
_geom_bond_distance
_geom_bond_site_symmetry_2
_ccdc_geom_bond_type
C0 O27 1.312 . S
C0 O28 1.208 . S
C1 O22 1.331 . S
C1 O25 1.244 . S
C2 O24 1.264 . S
C2 O26 1.273 . S
Mg3 O5 1.936 1_655 S
Mg3 O12 2.081 . S
Mg3 O14 2.039 . S
Mg3 O18 2.031 . S
Mg3 O27 2.291 1_655 S
Mg4 O5 1.963 . S
Mg4 O15 1.942 1_455 S
Mg4 O16 1.955 1_545 S
Mg4 O23 1.986 . S
O5 Mg3 1.936 1_455 S
O5 Mg4 1.963 . S
O5 Mg6 1.915 . S
Mg6 O5 1.915 . S
Mg6 O7 1.915 . S
Mg6 O11 2.013 . S
Mg6 O17 2.114 . S
Mg6 O21 2.013 . S
Mg6 O27 2.114 . S
O7 Mg6 1.915 . S
O7 Mg8 1.936 . S
O7 Mg9 1.963 . S
Mg8 O7 1.936 . S
Mg8 O17 2.291 . S
Mg8 O22 2.081 . S
Mg8 O24 2.023 . S
Mg8 O28 2.031 . S
Mg9 O7 1.963 . S
Mg9 O13 1.986 . S
Mg9 O25 1.942 . S
Mg9 O26 1.955 . S
C10 O21 1.191 . S
C10 O23 1.307 . S
O11 Mg6 2.013 . S
O11 C30 1.191 . S
O12 Mg3 2.081 . S
O12 C20 1.331 . S
O13 Mg9 1.986 . S
O13 C30 1.307 . S
O14 Mg3 2.039 . S
O14 C29 1.253 1_545 S
O15 Mg4 1.942 1_655 S
O15 C20 1.244 . S
O16 Mg4 1.955 1_565 S
O16 C29 1.273 1_455 S
O17 Mg6 2.114 . S
O17 Mg8 2.291 . S
O17 C19 1.312 1_455 S
O18 Mg3 2.031 . S
O18 C19 1.208 . S
C19 O17 1.312 1_655 S
C19 O18 1.208 . S
C20 O12 1.331 . S
C20 O15 1.244 . S
O21 Mg6 2.013 . S
O21 C10 1.191 . S
O22 C1 1.331 . S
O22 Mg8 2.081 . S
O23 Mg4 1.986 . S
O23 C10 1.307 . S
O24 C2 1.264 . S
O24 Mg8 2.023 . S
O25 C1 1.244 . S
O25 Mg9 1.942 . S
O26 C2 1.273 . S
O26 Mg9 1.955 . S
O27 C0 1.312 . S
O27 Mg3 2.291 1_455 S
O27 Mg6 2.114 . S
O28 C0 1.208 . S
O28 Mg8 2.031 . S
C29 O14 1.253 1_565 S
C29 O16 1.273 1_655 S
C30 O11 1.191 . S
C30 O13 1.307 . S
C31 O58 1.312 1_655 S
C31 O59 1.208 . S
C32 O53 1.331 . S
C32 O56 1.244 . S
C33 O55 1.264 . S
C33 O57 1.273 1_655 S
Mg34 O36 1.936 . S
Mg34 O43 2.081 . S
Mg34 O45 2.023 1_545 S
Mg34 O49 2.031 . S
Mg34 O58 2.291 . S
Mg35 O36 1.963 . S
Mg35 O46 1.942 . S
Mg35 O47 1.955 . S
Mg35 O54 1.986 . S
O36 Mg34 1.936 . S
O36 Mg35 1.963 . S
O36 Mg37 1.915 . S
Mg37 O36 1.915 . S
Mg37 O38 1.915 . S
Mg37 O42 2.013 . S
Mg37 O48 2.114 . S
Mg37 O52 2.013 . S
Mg37 O58 2.114 . S
O38 Mg37 1.915 . S
O38 Mg39 1.936 1_455 S
O38 Mg40 1.963 . S
Mg39 O38 1.936 1_655 S
Mg39 O48 2.291 1_655 S
Mg39 O53 2.081 . S
Mg39 O55 2.023 . S
Mg39 O59 2.031 . S
Mg40 O38 1.963 . S
Mg40 O44 1.986 . S
Mg40 O56 1.942 1_455 S
Mg40 O57 1.955 . S
C41 O52 1.191 . S
C41 O54 1.307 . S
O42 Mg37 2.013 . S
O42 C61 1.191 . S
O43 Mg34 2.081 . S
O43 C51 1.331 . S
O44 Mg40 1.986 . S
O44 C61 1.307 . S
O45 Mg34 2.023 1_565 S
O45 C60 1.264 . S
O46 Mg35 1.942 . S
O46 C51 1.244 . S
O47 Mg35 1.955 . S
O47 C60 1.273 1_545 S
O48 Mg37 2.114 . S
O48 Mg39 2.291 1_455 S
O48 C50 1.312 . S
O49 Mg34 2.031 . S
O49 C50 1.208 . S
C50 O48 1.312 . S
C50 O49 1.208 . S
C51 O43 1.331 . S
C51 O46 1.244 . S
O52 Mg37 2.013 . S
O52 C41 1.191 . S
O53 C32 1.331 . S
O53 Mg39 2.081 . S
O54 Mg35 1.986 . S
O54 C41 1.307 . S
O55 C33 1.264 . S
O55 Mg39 2.023 . S
O56 C32 1.244 . S
O56 Mg40 1.942 1_655 S
O57 C33 1.273 1_455 S
O57 Mg40 1.955 . S
O58 C31 1.312 1_455 S
O58 Mg34 2.291 . S
O58 Mg37 2.114 . S
O59 C31 1.208 . S
O59 Mg39 2.031 . S
C60 O45 1.264 . S
C60 O47 1.273 1_565 S
C61 O42 1.191 . S
C61 O44 1.307 . S
C62 O89 1.312 1_455 S
C62 O90 1.208 1_455 S
C63 O84 1.331 1_455 S
C63 O87 1.244 1_455 S
C64 O86 1.264 . S
C64 O88 1.273 . S
Mg65 O67 1.936 . S
Mg65 O74 2.081 . S
Mg65 O76 2.023 . S
Mg65 O80 2.031 . S
Mg65 O89 2.291 . S
Mg66 O67 1.963 . S
Mg66 O77 1.942 . S
Mg66 O78 1.955 . S
Mg66 O85 1.986 . S
O67 Mg65 1.936 . S
O67 Mg66 1.963 . S
O67 Mg68 1.915 . S
Mg68 O67 1.915 . S
Mg68 O69 1.915 . S
Mg68 O73 2.013 . S
Mg68 O79 2.114 . S
Mg68 O83 2.013 . S
Mg68 O89 2.114 . S
O69 Mg68 1.915 . S
O69 Mg70 1.936 . S
O69 Mg71 1.963 . S
Mg70 O69 1.936 . S
Mg70 O79 2.291 . S
Mg70 O84 2.081 . S
Mg70 O86 2.023 . S
Mg70 O90 2.031 . S
Mg71 O69 1.963 . S
Mg71 O75 1.986 . S
Mg71 O87 1.942 . S
Mg71 O88 1.955 . S
C72 O83 1.191 . S
C72 O85 1.307 . S
O73 Mg68 2.013 . S
O73 C92 1.191 1_655 S
O74 Mg65 2.081 . S
O74 C82 1.331 . S
O75 Mg71 1.986 . S
O75 C92 1.306 1_655 S
O76 Mg65 2.023 . S
O76 C91 1.264 . S
O77 Mg66 1.942 . S
O77 C82 1.244 . S
O78 Mg66 1.955 . S
O78 C91 1.273 . S
O79 Mg68 2.114 . S
O79 Mg70 2.291 . S
O79 C81 1.312 . S
O80 Mg65 2.031 . S
O80 C81 1.208 . S
C81 O79 1.312 . S
C81 O80 1.208 . S
C82 O74 1.331 . S
C82 O77 1.244 . S
O83 Mg68 2.013 . S
O83 C72 1.191 . S
O84 C63 1.331 1_655 S
O84 Mg70 2.081 . S
O85 Mg66 1.986 . S
O85 C72 1.307 . S
O86 C64 1.264 . S
O86 Mg70 2.023 . S
O87 C63 1.244 1_655 S
O87 Mg71 1.942 . S
O88 C64 1.273 . S
O88 Mg71 1.955 . S
O89 C62 1.312 1_655 S
O89 Mg65 2.291 . S
O89 Mg68 2.114 . S
O90 C62 1.208 1_655 S
O90 Mg70 2.031 . S
C91 O76 1.264 . S
C91 O78 1.273 . S
C92 O73 1.191 1_455 S
C92 O75 1.306 1_455 S
C93 O120 1.312 . S
C93 O121 1.208 . S
C94 O115 1.331 . S
C94 O118 1.244 . S
C95 O117 1.264 . S
C95 O119 1.273 . S
Mg96 O98 1.936 . S
Mg96 O105 2.081 . S
Mg96 O107 2.023 . S
Mg96 O111 2.031 . S
Mg96 O120 2.291 . S
Mg97 O98 1.963 . S
Mg97 O108 1.942 . S
Mg97 O109 1.955 . S
Mg97 O116 1.986 . S
O98 Mg96 1.936 . S
O98 Mg97 1.963 . S
O98 Mg99 1.915 . S
Mg99 O98 1.915 . S
Mg99 O100 1.915 . S
Mg99 O104 2.013 . S
Mg99 O110 2.114 . S
Mg99 O114 2.013 . S
Mg99 O120 2.114 . S
O100 Mg99 1.915 . S
O100 Mg101 1.936 . S
O100 Mg102 1.963 . S
Mg101 O100 1.936 . S
Mg101 O110 2.291 . S
Mg101 O115 2.081 . S
Mg101 O117 2.023 . S
Mg101 O121 2.031 . S
Mg102 O100 1.963 . S
Mg102 O106 1.986 . S
Mg102 O118 1.942 . S
Mg102 O119 1.955 . S
C103 O114 1.192 1_455 S
C103 O116 1.307 1_455 S
O104 Mg99 2.013 . S
O104 C123 1.191 . S
O105 Mg96 2.081 . S
O105 C113 1.331 1_655 S
O106 Mg102 1.986 . S
O106 C123 1.307 . S
O107 Mg96 2.023 . S
O107 C122 1.264 . S
O108 Mg97 1.942 . S
O108 C113 1.244 1_655 S
O109 Mg97 1.955 . S
O109 C122 1.273 . S
O110 Mg99 2.114 . S
O110 Mg101 2.291 . S
O110 C112 1.312 1_655 S
O111 Mg96 2.031 . S
O111 C112 1.208 1_655 S
C112 O110 1.312 1_455 S
C112 O111 1.208 1_455 S
C113 O105 1.331 1_455 S
C113 O108 1.244 1_455 S
O114 Mg99 2.013 . S
O114 C103 1.192 1_655 S
O115 C94 1.331 . S
O115 Mg101 2.081 . S
O116 Mg97 1.986 . S
O116 C103 1.307 1_655 S
O117 C95 1.264 . S
O117 Mg101 2.023 . S
O118 C94 1.244 . S
O118 Mg102 1.942 . S
O119 C95 1.273 . S
O119 Mg102 1.955 . S
O120 C93 1.312 . S
O120 Mg96 2.291 . S
O120 Mg99 2.114 . S
O121 C93 1.208 . S
O121 Mg101 2.031 . S
C122 O107 1.264 . S
C122 O109 1.273 . S
C123 O104 1.191 . S
C123 O106 1.307 . S
C124 O151 1.312 . S
C124 O152 1.208 . S
C125 O146 1.331 . S
C125 O149 1.244 . S
C126 O148 1.264 . S
C126 O150 1.273 . S
Mg127 O129 1.936 1_655 S
Mg127 O136 2.081 . S
Mg127 O138 2.023 . S
Mg127 O142 2.031 . S
Mg127 O151 2.291 1_655 S
Mg128 O129 1.963 . S
Mg128 O139 1.942 1_455 S
Mg128 O140 1.955 . S
Mg128 O147 1.986 . S
O129 Mg127 1.936 1_455 S
O129 Mg128 1.963 . S
O129 Mg130 1.915 . S
Mg130 O129 1.915 . S
Mg130 O131 1.915 . S
Mg130 O135 2.013 . S
Mg130 O141 2.114 . S
Mg130 O145 2.013 . S
Mg130 O151 2.114 . S
O131 Mg130 1.915 . S
O131 Mg132 1.936 . S
O131 Mg133 1.963 . S
Mg132 O131 1.936 . S
Mg132 O141 2.291 . S
Mg132 O146 2.081 . S
Mg132 O148 2.023 . S
Mg132 O152 2.031 . S
Mg133 O131 1.963 . S
Mg133 O137 1.986 . S
Mg133 O149 1.942 . S
Mg133 O150 1.955 . S
C134 O145 1.191 . S
C134 O147 1.307 . S
O135 Mg130 2.013 . S
O135 C154 1.191 . S
O136 Mg127 2.081 . S
O136 C144 1.331 . S
O137 Mg133 1.986 . S
O137 C154 1.307 . S
O138 Mg127 2.023 . S
O138 C153 1.264 . S
O139 Mg128 1.942 1_655 S
O139 C144 1.244 . S
O140 Mg128 1.955 . S
O140 C153 1.273 1_455 S
O141 Mg130 2.114 . S
O141 Mg132 2.291 . S
O141 C143 1.312 1_455 S
O142 Mg127 2.031 . S
O142 C143 1.208 . S
C143 O141 1.312 1_655 S
C143 O142 1.208 . S
C144 O136 1.331 . S
C144 O139 1.244 . S
O145 Mg130 2.013 . S
O145 C134 1.191 . S
O146 C125 1.331 . S
O146 Mg132 2.081 . S
O147 Mg128 1.986 . S
O147 C134 1.307 . S
O148 C126 1.264 . S
O148 Mg132 2.023 . S
O149 C125 1.244 . S
O149 Mg133 1.942 . S
O150 C126 1.273 . S
O150 Mg133 1.955 . S
O151 C124 1.312 . S
O151 Mg127 2.291 1_455 S
O151 Mg130 2.114 . S
O152 C124 1.208 . S
O152 Mg132 2.031 . S
C153 O138 1.264 . S
C153 O140 1.273 1_655 S
C154 O135 1.191 . S
C154 O137 1.307 . S
C155 O182 1.312 1_655 S
C155 O183 1.208 . S
C156 O177 1.331 . S
C156 O180 1.244 . S
C157 O179 1.264 . S
C157 O181 1.273 1_655 S
Mg158 O160 1.936 . S
Mg158 O167 2.081 . S
Mg158 O169 2.023 . S
Mg158 O173 2.031 . S
Mg158 O182 2.291 . S
Mg159 O160 1.963 . S
Mg159 O170 1.942 . S
Mg159 O171 1.955 . S
Mg159 O178 1.986 . S
O160 Mg158 1.936 . S
O160 Mg159 1.963 . S
O160 Mg161 1.915 . S
Mg161 O160 1.915 . S
Mg161 O162 1.915 . S
Mg161 O166 2.013 . S
Mg161 O172 2.114 . S
Mg161 O176 2.013 . S
Mg161 O182 2.114 . S
O162 Mg161 1.915 . S
O162 Mg163 1.936 1_455 S
O162 Mg164 1.963 . S
Mg163 O162 1.936 1_655 S
Mg163 O172 2.291 1_655 S
Mg163 O177 2.081 . S
Mg163 O179 2.023 . S
Mg163 O183 2.031 . S
Mg164 O162 1.963 . S
Mg164 O168 1.986 . S
Mg164 O180 1.942 1_455 S
Mg164 O181 1.955 . S
C165 O176 1.191 . S
C165 O178 1.307 . S
O166 Mg161 2.013 . S
O166 C185 1.191 . S
O167 Mg158 2.081 . S
O167 C175 1.331 . S
O168 Mg164 1.986 . S
O168 C185 1.307 . S
O169 Mg158 2.023 . S
O169 C184 1.264 . S
O170 Mg159 1.942 . S
O170 C175 1.244 . S
O171 Mg159 1.955 . S
O171 C184 1.273 . S
O172 Mg161 2.114 . S
O172 Mg163 2.291 1_455 S
O172 C174 1.312 . S
O173 Mg158 2.031 . S
O173 C174 1.208 . S
C174 O172 1.312 . S
C174 O173 1.208 . S
C175 O167 1.331 . S
C175 O170 1.244 . S
O176 Mg161 2.013 . S
O176 C165 1.191 . S
O177 C156 1.331 . S
O177 Mg163 2.081 . S
O178 Mg159 1.986 . S
O178 C165 1.307 . S
O179 C157 1.264 . S
O179 Mg163 2.023 . S
O180 C156 1.244 . S
O180 Mg164 1.942 1_655 S
O181 C157 1.273 1_455 S
O181 Mg164 1.955 . S
O182 C155 1.312 1_455 S
O182 Mg158 2.291 . S
O182 Mg161 2.114 . S
O183 C155 1.208 . S
O183 Mg163 2.031 . S
C184 O169 1.264 . S
C184 O171 1.273 . S
C185 O166 1.191 . S
C185 O168 1.307 . S
C186 O213 1.312 1_455 S
C186 O214 1.208 1_455 S
C187 O208 1.331 1_455 S
C187 O211 1.244 1_455 S
C188 O210 1.264 . S
C188 O212 1.273 . S
Mg189 O191 1.936 . S
Mg189 O198 2.081 . S
Mg189 O200 2.023 . S
Mg189 O204 2.031 . S
Mg189 O213 2.291 . S
Mg190 O191 1.963 . S
Mg190 O201 1.942 . S
Mg190 O202 1.955 . S
Mg190 O209 1.986 . S
O191 Mg189 1.936 . S
O191 Mg190 1.963 . S
O191 Mg192 1.915 . S
Mg192 O191 1.915 . S
Mg192 O193 1.915 . S
Mg192 O197 2.013 . S
Mg192 O203 2.114 . S
Mg192 O207 2.013 . S
Mg192 O213 2.114 . S
O193 Mg192 1.915 . S
O193 Mg194 1.936 . S
O193 Mg195 1.963 . S
Mg194 O193 1.936 . S
Mg194 O203 2.291 . S
Mg194 O208 2.081 . S
Mg194 O210 2.023 . S
Mg194 O214 2.031 . S
Mg195 O193 1.963 . S
Mg195 O199 1.986 . S
Mg195 O211 1.942 . S
Mg195 O212 1.955 . S
C196 O207 1.191 . S
C196 O209 1.307 . S
O197 Mg192 2.013 . S
O197 C216 1.192 1_655 S
O198 Mg189 2.081 . S
O198 C206 1.331 . S
O199 Mg195 1.986 . S
O199 C216 1.307 1_655 S
O200 Mg189 2.023 . S
O200 C215 1.264 . S
O201 Mg190 1.942 . S
O201 C206 1.244 . S
O202 Mg190 1.955 . S
O202 C215 1.273 . S
O203 Mg192 2.114 . S
O203 Mg194 2.291 . S
O203 C205 1.312 . S
O204 Mg189 2.031 . S
O204 C205 1.208 . S
C205 O203 1.312 . S
C205 O204 1.208 . S
C206 O198 1.331 . S
C206 O201 1.244 . S
O207 Mg192 2.013 . S
O207 C196 1.191 . S
O208 C187 1.331 1_655 S
O208 Mg194 2.081 . S
O209 Mg190 1.986 . S
O209 C196 1.307 . S
O210 C188 1.264 . S
O210 Mg194 2.023 . S
O211 C187 1.244 1_655 S
O211 Mg195 1.942 . S
O212 C188 1.273 . S
O212 Mg195 1.955 . S
O213 C186 1.312 1_655 S
O213 Mg189 2.291 . S
O213 Mg192 2.114 . S
O214 C186 1.208 1_655 S
O214 Mg194 2.031 . S
C215 O200 1.264 . S
C215 O202 1.273 . S
C216 O197 1.192 1_455 S
C216 O199 1.307 1_455 S
C217 O244 1.312 1_455 S
C217 O245 1.208 1_455 S
C218 O239 1.331 1_455 S
C218 O242 1.244 1_455 S
C219 O241 1.264 . S
C219 O243 1.273 . S
Mg220 O222 1.936 . S
Mg220 O229 2.081 . S
Mg220 O231 2.023 . S
Mg220 O235 2.031 . S
Mg220 O244 2.291 . S
Mg221 O222 1.963 . S
Mg221 O232 1.942 . S
Mg221 O233 1.955 . S
Mg221 O240 1.986 . S
O222 Mg220 1.936 . S
O222 Mg221 1.963 . S
O222 Mg223 1.915 . S
Mg223 O222 1.915 . S
Mg223 O224 1.915 . S
Mg223 O228 2.013 . S
Mg223 O234 2.114 . S
Mg223 O238 2.013 . S
Mg223 O244 2.114 . S
O224 Mg223 1.915 . S
O224 Mg225 1.936 . S
O224 Mg226 1.963 . S
Mg225 O224 1.936 . S
Mg225 O234 2.291 . S
Mg225 O239 2.081 . S
Mg225 O241 2.023 . S
Mg225 O245 2.031 . S
Mg226 O224 1.963 . S
Mg226 O230 1.986 . S
Mg226 O242 1.942 . S
Mg226 O243 1.955 . S
C227 O238 1.191 . S
C227 O240 1.307 . S
O228 Mg223 2.013 . S
O228 C247 1.191 1_655 S
O229 Mg220 2.081 . S
O229 C237 1.331 . S
O230 Mg226 1.986 . S
O230 C247 1.306 1_655 S
O231 Mg220 2.023 . S
O231 C246 1.264 . S
O232 Mg221 1.942 . S
O232 C237 1.244 . S
O233 Mg221 1.955 . S
O233 C246 1.273 . S
O234 Mg223 2.114 . S
O234 Mg225 2.291 . S
O234 C236 1.312 . S
O235 Mg220 2.031 . S
O235 C236 1.208 . S
C236 O234 1.312 . S
C236 O235 1.208 . S
C237 O229 1.331 . S
C237 O232 1.244 . S
O238 Mg223 2.013 . S
O238 C227 1.191 . S
O239 C218 1.331 1_655 S
O239 Mg225 2.081 . S
O240 Mg221 1.986 . S
O240 C227 1.307 . S
O241 C219 1.264 . S
O241 Mg225 2.023 . S
O242 C218 1.244 1_655 S
O242 Mg226 1.942 . S
O243 C219 1.273 . S
O243 Mg226 1.955 . S
O244 C217 1.312 1_655 S
O244 Mg220 2.291 . S
O244 Mg223 2.114 . S
O245 C217 1.208 1_655 S
O245 Mg225 2.031 . S
C246 O231 1.264 . S
C246 O233 1.273 . S
C247 O228 1.191 1_455 S
C247 O230 1.306 1_455 S
C248 O275 1.312 . S
C248 O276 1.208 . S
C249 O270 1.331 . S
C249 O273 1.244 . S
C250 O272 1.264 . S
C250 O274 1.273 . S
Mg251 O253 1.936 . S
Mg251 O260 2.081 . S
Mg251 O262 2.036 . S
Mg251 O266 2.031 . S
Mg251 O275 2.291 . S
Mg252 O253 1.963 . S
Mg252 O263 1.942 . S
Mg252 O264 1.955 1_545 S
Mg252 O271 1.986 . S
O253 Mg251 1.936 . S
O253 Mg252 1.963 . S
O253 Mg254 1.915 . S
Mg254 O253 1.915 . S
Mg254 O255 1.915 . S
Mg254 O259 2.013 . S
Mg254 O265 2.114 . S
Mg254 O269 2.013 . S
Mg254 O275 2.114 . S
O255 Mg254 1.915 . S
O255 Mg256 1.936 . S
O255 Mg257 1.963 . S
Mg256 O255 1.936 . S
Mg256 O265 2.291 . S
Mg256 O270 2.081 . S
Mg256 O272 2.023 . S
Mg256 O276 2.031 . S
Mg257 O255 1.963 . S
Mg257 O261 1.986 . S
Mg257 O273 1.942 . S
Mg257 O274 1.955 . S
C258 O269 1.191 . S
C258 O271 1.307 . S
O259 Mg254 2.013 . S
O259 C278 1.191 . S
O260 Mg251 2.081 . S
O260 C268 1.331 . S
O261 Mg257 1.986 . S
O261 C278 1.307 . S
O262 Mg251 2.036 . S
O262 C277 1.255 1_545 S
O263 Mg252 1.942 . S
O263 C268 1.244 . S
O264 Mg252 1.955 1_565 S
O264 C277 1.273 . S
O265 Mg254 2.114 . S
O265 Mg256 2.291 . S
O265 C267 1.312 . S
O266 Mg251 2.031 . S
O266 C267 1.208 . S
C267 O265 1.312 . S
C267 O266 1.208 . S
C268 O260 1.331 . S
C268 O263 1.244 . S
O269 Mg254 2.013 . S
O269 C258 1.191 . S
O270 C249 1.331 . S
O270 Mg256 2.081 . S
O271 Mg252 1.986 . S
O271 C258 1.307 . S
O272 C250 1.264 . S
O272 Mg256 2.023 . S
O273 C249 1.244 . S
O273 Mg257 1.942 . S
O274 C250 1.273 . S
O274 Mg257 1.955 . S
O275 C248 1.312 . S
O275 Mg251 2.291 . S
O275 Mg254 2.114 . S
O276 C248 1.208 . S
O276 Mg256 2.031 . S
C277 O262 1.255 1_565 S
C277 O264 1.273 . S
C278 O259 1.191 . S
C278 O261 1.307 . S
C279 O306 1.312 . S
C279 O307 1.208 . S
C280 O301 1.331 . S
C280 O304 1.244 . S
C281 O303 1.264 . S
C281 O305 1.273 1_565 S
Mg282 O284 1.936 . S
Mg282 O291 2.081 . S
Mg282 O293 2.023 . S
Mg282 O297 2.031 . S
Mg282 O306 2.291 . S
Mg283 O284 1.963 . S
Mg283 O294 1.942 . S
Mg283 O295 1.955 . S
Mg283 O302 1.986 . S
O284 Mg282 1.936 . S
O284 Mg283 1.963 . S
O284 Mg285 1.915 . S
Mg285 O284 1.915 . S
Mg285 O286 1.915 . S
Mg285 O290 2.013 . S
Mg285 O296 2.114 . S
Mg285 O300 2.013 . S
Mg285 O306 2.114 . S
O286 Mg285 1.915 . S
O286 Mg287 1.936 . S
O286 Mg288 1.963 . S
Mg287 O286 1.936 . S
Mg287 O296 2.291 . S
Mg287 O301 2.081 . S
Mg287 O303 2.023 1_545 S
Mg287 O307 2.031 . S
Mg288 O286 1.963 . S
Mg288 O292 1.986 . S
Mg288 O304 1.942 . S
Mg288 O305 1.955 . S
C289 O300 1.191 . S
C289 O302 1.307 . S
O290 Mg285 2.013 . S
O290 C309 1.191 . S
O291 Mg282 2.081 . S
O291 C299 1.331 . S
O292 Mg288 1.986 . S
O292 C309 1.307 . S
O293 Mg282 2.023 . S
O293 C308 1.264 . S
O294 Mg283 1.942 . S
O294 C299 1.244 . S
O295 Mg283 1.955 . S
O295 C308 1.273 . S
O296 Mg285 2.114 . S
O296 Mg287 2.291 . S
O296 C298 1.312 . S
O297 Mg282 2.031 . S
O297 C298 1.208 . S
C298 O296 1.312 . S
C298 O297 1.208 . S
C299 O291 1.331 . S
C299 O294 1.244 . S
O300 Mg285 2.013 . S
O300 C289 1.191 . S
O301 C280 1.331 . S
O301 Mg287 2.081 . S
O302 Mg283 1.986 . S
O302 C289 1.307 . S
O303 C281 1.264 . S
O303 Mg287 2.023 1_565 S
O304 C280 1.244 . S
O304 Mg288 1.942 . S
O305 C281 1.273 1_545 S
O305 Mg288 1.955 . S
O306 C279 1.312 . S
O306 Mg282 2.291 . S
O306 Mg285 2.114 . S
O307 C279 1.208 . S
O307 Mg287 2.031 . S
C308 O293 1.264 . S
C308 O295 1.273 . S
C309 O290 1.191 . S
C309 O292 1.307 . S
C310 O337 1.312 . S
C310 O338 1.208 . S
C311 O332 1.331 . S
C311 O335 1.244 . S
C312 O334 1.264 . S
C312 O336 1.273 . S
Mg313 O315 1.936 . S
Mg313 O322 2.081 . S
Mg313 O324 2.023 . S
Mg313 O328 2.031 . S
Mg313 O337 2.291 . S
Mg314 O315 1.963 . S
Mg314 O325 1.942 . S
Mg314 O326 1.955 . S
Mg314 O333 1.986 . S
O315 Mg313 1.936 . S
O315 Mg314 1.963 . S
O315 Mg316 1.915 . S
Mg316 O315 1.915 . S
Mg316 O317 1.915 . S
Mg316 O321 2.013 . S
Mg316 O327 2.114 . S
Mg316 O331 2.013 . S
Mg316 O337 2.114 . S
O317 Mg316 1.915 . S
O317 Mg318 1.936 . S
O317 Mg319 1.963 . S
Mg318 O317 1.936 . S
Mg318 O327 2.291 . S
Mg318 O332 2.081 . S
Mg318 O334 2.023 . S
Mg318 O338 2.031 . S
Mg319 O317 1.963 . S
Mg319 O323 1.986 . S
Mg319 O335 1.942 . S
Mg319 O336 1.955 . S
C320 O331 1.191 . S
C320 O333 1.307 . S
O321 Mg316 2.013 . S
O321 C340 1.191 . S
O322 Mg313 2.081 . S
O322 C330 1.331 . S
O323 Mg319 1.986 . S
O323 C340 1.307 . S
O324 Mg313 2.023 . S
O324 C339 1.264 . S
O325 Mg314 1.942 . S
O325 C330 1.244 . S
O326 Mg314 1.955 . S
O326 C339 1.273 . S
O327 Mg316 2.114 . S
O327 Mg318 2.291 . S
O327 C329 1.312 . S
O328 Mg313 2.031 . S
O328 C329 1.208 . S
C329 O327 1.312 . S
C329 O328 1.208 . S
C330 O322 1.331 . S
C330 O325 1.244 . S
O331 Mg316 2.013 . S
O331 C320 1.191 . S
O332 C311 1.331 . S
O332 Mg318 2.081 . S
O333 Mg314 1.986 . S
O333 C320 1.307 . S
O334 C312 1.264 . S
O334 Mg318 2.023 . S
O335 C311 1.244 . S
O335 Mg319 1.942 . S
O336 C312 1.273 . S
O336 Mg319 1.955 . S
O337 C310 1.312 . S
O337 Mg313 2.291 . S
O337 Mg316 2.114 . S
O338 C310 1.208 . S
O338 Mg318 2.031 . S
C339 O324 1.264 . S
C339 O326 1.273 . S
C340 O321 1.191 . S
C340 O323 1.307 . S
C341 O368 1.312 . S
C341 O369 1.208 . S
C342 O363 1.331 . S
C342 O366 1.244 . S
C343 O365 1.264 . S
C343 O367 1.273 . S
Mg344 O346 1.936 . S
Mg344 O353 2.081 . S
Mg344 O355 2.023 . S
Mg344 O359 2.031 . S
Mg344 O368 2.291 . S
Mg345 O346 1.963 . S
Mg345 O356 1.942 . S
Mg345 O357 1.955 . S
Mg345 O364 1.986 . S
O346 Mg344 1.936 . S
O346 Mg345 1.963 . S
O346 Mg347 1.915 . S
Mg347 O346 1.915 . S
Mg347 O348 1.915 . S
Mg347 O352 2.013 . S
Mg347 O358 2.114 . S
Mg347 O362 2.013 . S
Mg347 O368 2.114 . S
O348 Mg347 1.915 . S
O348 Mg349 1.936 . S
O348 Mg350 1.963 . S
Mg349 O348 1.936 . S
Mg349 O358 2.291 . S
Mg349 O363 2.081 . S
Mg349 O365 2.023 . S
Mg349 O369 2.031 . S
Mg350 O348 1.963 . S
Mg350 O354 1.986 . S
Mg350 O366 1.942 . S
Mg350 O367 1.955 . S
C351 O362 1.191 . S
C351 O364 1.307 . S
O352 Mg347 2.013 . S
O352 C371 1.191 . S
O353 Mg344 2.081 . S
O353 C361 1.331 . S
O354 Mg350 1.986 . S
O354 C371 1.307 . S
O355 Mg344 2.023 . S
O355 C370 1.264 . S
O356 Mg345 1.942 . S
O356 C361 1.244 . S
O357 Mg345 1.955 . S
O357 C370 1.273 . S
O358 Mg347 2.114 . S
O358 Mg349 2.291 . S
O358 C360 1.312 . S
O359 Mg344 2.031 . S
O359 C360 1.208 . S
C360 O358 1.312 . S
C360 O359 1.208 . S
C361 O353 1.331 . S
C361 O356 1.244 . S
O362 Mg347 2.013 . S
O362 C351 1.191 . S
O363 C342 1.331 . S
O363 Mg349 2.081 . S
O364 Mg345 1.986 . S
O364 C351 1.307 . S
O365 C343 1.264 . S
O365 Mg349 2.023 . S
O366 C342 1.244 . S
O366 Mg350 1.942 . S
O367 C343 1.273 . S
O367 Mg350 1.955 . S
O368 C341 1.312 . S
O368 Mg344 2.291 . S
O368 Mg347 2.114 . S
O369 C341 1.208 . S
O369 Mg349 2.031 . S
C370 O355 1.264 . S
C370 O357 1.273 . S
C371 O352 1.191 . S
C371 O354 1.307 . S
C372 O399 1.312 . S
C372 O400 1.208 . S
C373 O394 1.331 . S
C373 O397 1.244 . S
C374 O396 1.264 . S
C374 O398 1.273 . S
Mg375 O377 1.936 . S
Mg375 O384 2.081 . S
Mg375 O386 2.023 . S
Mg375 O390 2.031 . S
Mg375 O399 2.291 . S
Mg376 O377 1.963 . S
Mg376 O387 1.942 . S
Mg376 O388 1.955 . S
Mg376 O395 1.986 . S
O377 Mg375 1.936 . S
O377 Mg376 1.963 . S
O377 Mg378 1.915 . S
Mg378 O377 1.915 . S
Mg378 O379 1.915 . S
Mg378 O383 2.013 . S
Mg378 O389 2.114 . S
Mg378 O393 2.013 . S
Mg378 O399 2.114 . S
O379 Mg378 1.915 . S
O379 Mg380 1.936 . S
O379 Mg381 1.963 . S
Mg380 O379 1.936 . S
Mg380 O389 2.291 . S
Mg380 O394 2.081 . S
Mg380 O396 2.023 . S
Mg380 O400 2.031 . S
Mg381 O379 1.963 . S
Mg381 O385 1.986 . S
Mg381 O397 1.942 . S
Mg381 O398 1.955 . S
C382 O393 1.191 . S
C382 O395 1.307 . S
O383 Mg378 2.013 . S
O383 C402 1.191 . S
O384 Mg375 2.081 . S
O384 C392 1.331 . S
O385 Mg381 1.986 . S
O385 C402 1.307 . S
O386 Mg375 2.023 . S
O386 C401 1.264 . S
O387 Mg376 1.942 . S
O387 C392 1.244 . S
O388 Mg376 1.955 . S
O388 C401 1.273 . S
O389 Mg378 2.114 . S
O389 Mg380 2.291 . S
O389 C391 1.312 . S
O390 Mg375 2.031 . S
O390 C391 1.208 . S
C391 O389 1.312 . S
C391 O390 1.208 . S
C392 O384 1.331 . S
C392 O387 1.244 . S
O393 Mg378 2.013 . S
O393 C382 1.191 . S
O394 C373 1.331 . S
O394 Mg380 2.081 . S
O395 Mg376 1.986 . S
O395 C382 1.307 . S
O396 C374 1.264 . S
O396 Mg380 2.023 . S
O397 C373 1.244 . S
O397 Mg381 1.942 . S
O398 C374 1.273 . S
O398 Mg381 1.955 . S
O399 C372 1.312 . S
O399 Mg375 2.291 . S
O399 Mg378 2.114 . S
O400 C372 1.208 . S
O400 Mg380 2.031 . S
C401 O386 1.264 . S
C401 O388 1.273 . S
C402 O383 1.191 . S
C402 O385 1.307 . S
C403 O430 1.312 . S
C403 O431 1.208 . S
C404 O425 1.331 . S
C404 O428 1.244 . S
C405 O427 1.264 . S
C405 O429 1.273 . S
Mg406 O408 1.936 . S
Mg406 O415 2.081 . S
Mg406 O417 2.023 . S
Mg406 O421 2.031 . S
Mg406 O430 2.291 . S
Mg407 O408 1.963 . S
Mg407 O418 1.942 . S
Mg407 O419 1.955 . S
Mg407 O426 1.986 . S
O408 Mg406 1.936 . S
O408 Mg407 1.963 . S
O408 Mg409 1.915 . S
Mg409 O408 1.915 . S
Mg409 O410 1.915 . S
Mg409 O414 2.013 . S
Mg409 O420 2.114 . S
Mg409 O424 2.013 . S
Mg409 O430 2.114 . S
O410 Mg409 1.915 . S
O410 Mg411 1.936 . S
O410 Mg412 1.963 . S
Mg411 O410 1.936 . S
Mg411 O420 2.291 . S
Mg411 O425 2.081 . S
Mg411 O427 2.023 . S
Mg411 O431 2.031 . S
Mg412 O410 1.963 . S
Mg412 O416 1.986 . S
Mg412 O428 1.942 . S
Mg412 O429 1.955 . S
C413 O424 1.191 . S
C413 O426 1.307 . S
O414 Mg409 2.013 . S
O414 C433 1.191 . S
O415 Mg406 2.081 . S
O415 C423 1.331 . S
O416 Mg412 1.986 . S
O416 C433 1.307 . S
O417 Mg406 2.023 . S
O417 C432 1.264 . S
O418 Mg407 1.942 . S
O418 C423 1.244 . S
O419 Mg407 1.955 . S
O419 C432 1.273 . S
O420 Mg409 2.114 . S
O420 Mg411 2.291 . S
O420 C422 1.312 . S
O421 Mg406 2.031 . S
O421 C422 1.208 . S
C422 O420 1.312 . S
C422 O421 1.208 . S
C423 O415 1.331 . S
C423 O418 1.244 . S
O424 Mg409 2.013 . S
O424 C413 1.191 . S
O425 C404 1.331 . S
O425 Mg411 2.081 . S
O426 Mg407 1.986 . S
O426 C413 1.307 . S
O427 C405 1.264 . S
O427 Mg411 2.023 . S
O428 C404 1.244 . S
O428 Mg412 1.942 . S
O429 C405 1.273 . S
O429 Mg412 1.955 . S
O430 C403 1.312 . S
O430 Mg406 2.291 . S
O430 Mg409 2.114 . S
O431 C403 1.208 . S
O431 Mg411 2.031 . S
C432 O417 1.264 . S
C432 O419 1.273 . S
C433 O414 1.191 . S
C433 O416 1.307 . S
C434 O461 1.312 . S
C434 O462 1.208 . S
C435 O456 1.331 . S
C435 O459 1.244 . S
C436 O458 1.264 . S
C436 O460 1.273 . S
Mg437 O439 1.936 . S
Mg437 O446 2.081 . S
Mg437 O448 2.023 . S
Mg437 O452 2.031 . S
Mg437 O461 2.291 . S
Mg438 O439 1.963 . S
Mg438 O449 1.942 . S
Mg438 O450 1.955 . S
Mg438 O457 1.986 . S
O439 Mg437 1.936 . S
O439 Mg438 1.963 . S
O439 Mg440 1.915 . S
Mg440 O439 1.915 . S
Mg440 O441 1.915 . S
Mg440 O445 2.013 . S
Mg440 O451 2.114 . S
Mg440 O455 2.013 . S
Mg440 O461 2.114 . S
O441 Mg440 1.915 . S
O441 Mg442 1.936 . S
O441 Mg443 1.963 . S
Mg442 O441 1.936 . S
Mg442 O451 2.291 . S
Mg442 O456 2.081 . S
Mg442 O458 2.023 . S
Mg442 O462 2.031 . S
Mg443 O441 1.963 . S
Mg443 O447 1.986 . S
Mg443 O459 1.942 . S
Mg443 O460 1.955 . S
C444 O455 1.191 . S
C444 O457 1.307 . S
O445 Mg440 2.013 . S
O445 C464 1.191 . S
O446 Mg437 2.081 . S
O446 C454 1.331 . S
O447 Mg443 1.986 . S
O447 C464 1.307 . S
O448 Mg437 2.023 . S
O448 C463 1.264 . S
O449 Mg438 1.942 . S
O449 C454 1.244 . S
O450 Mg438 1.955 . S
O450 C463 1.273 . S
O451 Mg440 2.114 . S
O451 Mg442 2.291 . S
O451 C453 1.312 . S
O452 Mg437 2.031 . S
O452 C453 1.208 . S
C453 O451 1.312 . S
C453 O452 1.208 . S
C454 O446 1.331 . S
C454 O449 1.244 . S
O455 Mg440 2.013 . S
O455 C444 1.191 . S
O456 C435 1.331 . S
O456 Mg442 2.081 . S
O457 Mg438 1.986 . S
O457 C444 1.307 . S
O458 C436 1.264 . S
O458 Mg442 2.023 . S
O459 C435 1.244 . S
O459 Mg443 1.942 . S
O460 C436 1.273 . S
O460 Mg443 1.955 . S
O461 C434 1.312 . S
O461 Mg437 2.291 . S
O461 Mg440 2.114 . S
O462 C434 1.208 . S
O462 Mg442 2.031 . S
C463 O448 1.264 . S
C463 O450 1.273 . S
C464 O445 1.191 . S
C464 O447 1.307 . S
C465 O492 1.312 . S
C465 O493 1.208 . S
C466 O487 1.331 . S
C466 O490 1.244 . S
C467 O489 1.264 . S
C467 O491 1.273 . S
Mg468 O470 1.936 . S
Mg468 O477 2.081 . S
Mg468 O479 2.023 . S
Mg468 O483 2.031 . S
Mg468 O492 2.291 . S
Mg469 O470 1.963 . S
Mg469 O480 1.942 . S
Mg469 O481 1.955 . S
Mg469 O488 1.986 . S
O470 Mg468 1.936 . S
O470 Mg469 1.963 . S
O470 Mg471 1.915 . S
Mg471 O470 1.915 . S
Mg471 O472 1.915 . S
Mg471 O476 2.013 . S
Mg471 O482 2.114 . S
Mg471 O486 2.013 . S
Mg471 O492 2.114 . S
O472 Mg471 1.915 . S
O472 Mg473 1.936 . S
O472 Mg474 1.963 . S
Mg473 O472 1.936 . S
Mg473 O482 2.291 . S
Mg473 O487 2.081 . S
Mg473 O489 2.023 . S
Mg473 O493 2.031 . S
Mg474 O472 1.963 . S
Mg474 O478 1.986 . S
Mg474 O490 1.942 . S
Mg474 O491 1.955 . S
C475 O486 1.191 . S
C475 O488 1.307 . S
O476 Mg471 2.013 . S
O476 C495 1.191 . S
O477 Mg468 2.081 . S
O477 C485 1.331 . S
O478 Mg474 1.986 . S
O478 C495 1.307 . S
O479 Mg468 2.023 . S
O479 C494 1.264 . S
O480 Mg469 1.942 . S
O480 C485 1.244 . S
O481 Mg469 1.955 . S
O481 C494 1.273 . S
O482 Mg471 2.114 . S
O482 Mg473 2.291 . S
O482 C484 1.312 . S
O483 Mg468 2.031 . S
O483 C484 1.208 . S
C484 O482 1.312 . S
C484 O483 1.208 . S
C485 O477 1.331 . S
C485 O480 1.244 . S
O486 Mg471 2.013 . S
O486 C475 1.191 . S
O487 C466 1.331 . S
O487 Mg473 2.081 . S
O488 Mg469 1.986 . S
O488 C475 1.307 . S
O489 C467 1.264 . S
O489 Mg473 2.023 . S
O490 C466 1.244 . S
O490 Mg474 1.942 . S
O491 C467 1.273 . S
O491 Mg474 1.955 . S
O492 C465 1.312 . S
O492 Mg468 2.291 . S
O492 Mg471 2.114 . S
O493 C465 1.208 . S
O493 Mg473 2.031 . S
C494 O479 1.264 . S
C494 O481 1.273 . S
C495 O476 1.191 . S
C495 O478 1.307 . S
H496 C502 0.930 . S
H497 C506 0.930 . S
H498 C511 0.929 . S
H499 C509 0.929 . S
H500 C504 0.929 . S
H501 C510 0.929 . S
C502 H496 0.930 . S
C502 C503 1.367 . S
C502 C510 1.378 . S
C503 C502 1.367 . S
C503 C511 1.433 . S
C504 H500 0.929 . S
C504 C506 1.378 . S
C504 C508 1.350 . S
C505 C508 1.463 . S
C505 C510 1.350 . S
C505 N513 1.427 . S
C506 H497 0.930 . S
C506 C504 1.378 . S
C506 C507 1.367 . S
C507 C506 1.367 . S
C507 C509 1.433 . S
C508 C504 1.350 . S
C508 C505 1.463 . S
C508 N512 1.427 . S
C509 H499 0.929 . S
C509 C507 1.433 . S
C509 N512 1.384 . S
C510 H501 0.929 . S
C510 C502 1.378 . S
C510 C505 1.350 . S
C511 H498 0.929 . S
C511 C503 1.433 . S
C511 N513 1.384 . S
N512 C508 1.427 . S
N512 C509 1.384 . S
N513 C505 1.427 . S
N513 C511 1.384 . S
H514 C520 0.930 1_455 S
H515 C524 0.930 . S
H516 C529 0.929 . S
H517 C527 0.929 . S
H518 C522 0.929 . S
H519 C528 0.929 . S
C520 H514 0.930 1_655 S
C520 C521 1.367 . S
C520 C528 1.378 . S
C521 C520 1.367 . S
C521 C529 1.433 . S
C522 H518 0.929 . S
C522 C524 1.378 . S
C522 C526 1.350 . S
C523 C526 1.463 . S
C523 C528 1.350 . S
C523 N531 1.427 . S
C524 H515 0.930 . S
C524 C522 1.378 . S
C524 C525 1.367 . S
C525 C524 1.367 . S
C525 C527 1.433 . S
C526 C522 1.350 . S
C526 C523 1.463 . S
C526 N530 1.427 . S
C527 H517 0.929 . S
C527 C525 1.433 . S
C527 N530 1.384 . S
C528 H519 0.929 . S
C528 C520 1.378 . S
C528 C523 1.350 . S
C529 H516 0.929 . S
C529 C521 1.433 . S
C529 N531 1.384 . S
N530 C526 1.427 . S
N530 C527 1.384 . S
N531 C523 1.427 . S
N531 C529 1.384 . S
H532 C538 0.930 . S
H533 C542 0.930 . S
H534 C547 0.929 1_545 S
H535 C545 0.929 . S
H536 C540 0.929 . S
H537 C546 0.929 . S
C538 H532 0.930 . S
C538 C539 1.367 . S
C538 C546 1.378 . S
C539 C538 1.367 . S
C539 C547 1.433 . S
C540 H536 0.929 . S
C540 C542 1.378 . S
C540 C544 1.350 . S
C541 C544 1.463 . S
C541 C546 1.350 . S
C541 N549 1.427 . S
C542 H533 0.930 . S
C542 C540 1.378 . S
C542 C543 1.367 . S
C543 C542 1.367 . S
C543 C545 1.433 . S
C544 C540 1.350 . S
C544 C541 1.463 . S
C544 N548 1.427 . S
C545 H535 0.929 . S
C545 C543 1.433 . S
C545 N548 1.384 . S
C546 H537 0.929 . S
C546 C538 1.378 . S
C546 C541 1.350 . S
C547 H534 0.929 1_565 S
C547 C539 1.433 . S
C547 N549 1.384 . S
N548 C544 1.427 . S
N548 C545 1.384 . S
N549 C541 1.427 . S
N549 C547 1.384 . S
H550 C556 0.930 1_455 S
H551 C560 0.930 . S
H552 C565 0.929 . S
H553 C563 0.929 . S
H554 C558 0.929 . S
H555 C564 0.929 . S
C556 H550 0.930 1_655 S
C556 C557 1.367 . S
C556 C564 1.378 . S
C557 C556 1.367 . S
C557 C565 1.433 . S
C558 H554 0.929 . S
C558 C560 1.378 . S
C558 C562 1.350 . S
C559 C562 1.463 . S
C559 C564 1.350 . S
C559 N567 1.427 . S
C560 H551 0.930 . S
C560 C558 1.378 . S
C560 C561 1.367 . S
C561 C560 1.367 . S
C561 C563 1.433 . S
C562 C558 1.350 . S
C562 C559 1.463 . S
C562 N566 1.427 . S
C563 H553 0.929 . S
C563 C561 1.433 . S
C563 N566 1.384 . S
C564 H555 0.929 . S
C564 C556 1.378 . S
C564 C559 1.350 . S
C565 H552 0.929 . S
C565 C557 1.433 . S
C565 N567 1.384 . S
N566 C562 1.427 . S
N566 C563 1.384 . S
N567 C559 1.427 . S
N567 C565 1.384 . S
H568 C574 0.930 . S
H569 C578 0.930 . S
H570 C583 0.929 . S
H571 C581 0.929 . S
H572 C576 0.929 . S
H573 C582 0.929 . S
C574 H568 0.930 . S
C574 C575 1.367 . S
C574 C582 1.378 . S
C575 C574 1.367 . S
C575 C583 1.433 . S
C576 H572 0.929 . S
C576 C578 1.378 . S
C576 C580 1.350 . S
C577 C580 1.463 . S
C577 C582 1.350 . S
C577 N585 1.427 . S
C578 H569 0.930 . S
C578 C576 1.378 . S
C578 C579 1.367 . S
C579 C578 1.367 . S
C579 C581 1.433 . S
C580 C576 1.350 . S
C580 C577 1.463 . S
C580 N584 1.427 . S
C581 H571 0.929 . S
C581 C579 1.433 . S
C581 N584 1.384 . S
C582 H573 0.929 . S
C582 C574 1.378 . S
C582 C577 1.350 . S
C583 H570 0.929 . S
C583 C575 1.433 . S
C583 N585 1.384 . S
N584 C580 1.427 . S
N584 C581 1.384 . S
N585 C577 1.427 . S
N585 C583 1.384 . S
H586 C592 0.930 . S
H587 C596 0.930 . S
H588 C601 0.929 1_565 S
H589 C599 0.929 . S
H590 C594 0.929 . S
H591 C600 0.929 . S
C592 H586 0.930 . S
C592 C593 1.367 . S
C592 C600 1.378 . S
C593 C592 1.367 . S
C593 C601 1.433 . S
C594 H590 0.929 . S
C594 C596 1.378 . S
C594 C598 1.350 . S
C595 C598 1.463 . S
C595 C600 1.350 . S
C595 N603 1.427 . S
C596 H587 0.930 . S
C596 C594 1.378 . S
C596 C597 1.367 . S
C597 C596 1.367 . S
C597 C599 1.433 . S
C598 C594 1.350 . S
C598 C595 1.463 . S
C598 N602 1.427 . S
C599 H589 0.929 . S
C599 C597 1.433 . S
C599 N602 1.384 . S
C600 H591 0.929 . S
C600 C592 1.378 . S
C600 C595 1.350 . S
C601 H588 0.929 1_545 S
C601 C593 1.433 . S
C601 N603 1.384 . S
N602 C598 1.427 . S
N602 C599 1.384 . S
N603 C595 1.427 . S
N603 C601 1.384 . S
H604 C610 0.930 . S
H605 C614 0.930 . S
H606 C619 0.929 . S
H607 C617 0.929 . S
H608 C612 0.929 . S
H609 C618 0.929 . S
C610 H604 0.930 . S
C610 C611 1.367 . S
C610 C618 1.378 . S
C611 C610 1.367 . S
C611 C619 1.433 . S
C612 H608 0.929 . S
C612 C614 1.378 . S
C612 C616 1.350 . S
C613 C616 1.463 . S
C613 C618 1.350 . S
C613 N621 1.427 . S
C614 H605 0.930 . S
C614 C612 1.378 . S
C614 C615 1.367 . S
C615 C614 1.367 . S
C615 C617 1.433 . S
C616 C612 1.350 . S
C616 C613 1.463 . S
C616 N620 1.427 . S
C617 H607 0.929 . S
C617 C615 1.433 . S
C617 N620 1.384 . S
C618 H609 0.929 . S
C618 C610 1.378 . S
C618 C613 1.350 . S
C619 H606 0.929 . S
C619 C611 1.433 . S
C619 N621 1.384 . S
N620 C616 1.427 . S
N620 C617 1.384 . S
N621 C613 1.427 . S
N621 C619 1.384 . S
H622 C628 0.930 1_655 S
H623 C632 0.930 . S
H624 C637 0.929 . S
H625 C635 0.929 . S
H626 C630 0.929 . S
H627 C636 0.929 . S
C628 H622 0.930 1_455 S
C628 C629 1.367 . S
C628 C636 1.378 . S
C629 C628 1.367 . S
C629 C637 1.433 . S
C630 H626 0.929 . S
C630 C632 1.378 . S
C630 C634 1.350 . S
C631 C634 1.463 . S
C631 C636 1.350 . S
C631 N639 1.427 . S
C632 H623 0.930 . S
C632 C630 1.378 . S
C632 C633 1.367 . S
C633 C632 1.367 . S
C633 C635 1.433 . S
C634 C630 1.350 . S
C634 C631 1.463 . S
C634 N638 1.427 . S
C635 H625 0.929 . S
C635 C633 1.433 . S
C635 N638 1.384 . S
C636 H627 0.929 . S
C636 C628 1.378 . S
C636 C631 1.350 . S
C637 H624 0.929 . S
C637 C629 1.433 . S
C637 N639 1.384 . S
N638 C634 1.427 . S
N638 C635 1.384 . S
N639 C631 1.427 . S
N639 C637 1.384 . S
H640 C646 0.930 . S
H641 C650 0.930 . S
H642 C655 0.929 . S
H643 C653 0.929 . S
H644 C648 0.929 . S
H645 C654 0.929 . S
C646 H640 0.930 . S
C646 C647 1.367 . S
C646 C654 1.378 . S
C647 C646 1.367 . S
C647 C655 1.433 . S
C648 H644 0.929 . S
C648 C650 1.378 . S
C648 C652 1.350 . S
C649 C652 1.463 . S
C649 C654 1.350 . S
C649 N657 1.427 . S
C650 H641 0.930 . S
C650 C648 1.378 . S
C650 C651 1.367 . S
C651 C650 1.367 . S
C651 C653 1.433 . S
C652 C648 1.350 . S
C652 C649 1.463 . S
C652 N656 1.427 . S
C653 H643 0.929 . S
C653 C651 1.433 . S
C653 N656 1.384 . S
C654 H645 0.929 . S
C654 C646 1.378 . S
C654 C649 1.350 . S
C655 H642 0.929 . S
C655 C647 1.433 . S
C655 N657 1.384 . S
N656 C652 1.427 . S
N656 C653 1.384 . S
N657 C649 1.427 . S
N657 C655 1.384 . S
H658 C664 0.930 . S
H659 C668 0.930 . S
H660 C673 0.929 . S
H661 C671 0.929 1_455 S
H662 C666 0.929 . S
H663 C672 0.929 . S
C664 H658 0.930 . S
C664 C665 1.367 . S
C664 C672 1.378 . S
C665 C664 1.367 . S
C665 C673 1.433 . S
C666 H662 0.929 . S
C666 C668 1.378 . S
C666 C670 1.350 . S
C667 C670 1.463 . S
C667 C672 1.350 . S
C667 N675 1.427 . S
C668 H659 0.930 . S
C668 C666 1.378 . S
C668 C669 1.367 . S
C669 C668 1.367 . S
C669 C671 1.433 . S
C670 C666 1.350 . S
C670 C667 1.463 . S
C670 N674 1.427 . S
C671 H661 0.929 1_655 S
C671 C669 1.433 . S
C671 N674 1.384 . S
C672 H663 0.929 . S
C672 C664 1.378 . S
C672 C667 1.350 . S
C673 H660 0.929 . S
C673 C665 1.433 . S
C673 N675 1.384 . S
N674 C670 1.427 . S
N674 C671 1.384 . S
N675 C667 1.427 . S
N675 C673 1.384 . S
H676 C682 0.930 . S
H677 C686 0.930 . S
H678 C691 0.929 . S
H679 C689 0.929 . S
H680 C684 0.929 . S
H681 C690 0.929 . S
C682 H676 0.930 . S
C682 C683 1.367 . S
C682 C690 1.378 . S
C683 C682 1.367 . S
C683 C691 1.433 . S
C684 H680 0.929 . S
C684 C686 1.378 . S
C684 C688 1.350 . S
C685 C688 1.463 . S
C685 C690 1.350 . S
C685 N693 1.427 . S
C686 H677 0.930 . S
C686 C684 1.378 . S
C686 C687 1.367 . S
C687 C686 1.367 . S
C687 C689 1.433 . S
C688 C684 1.350 . S
C688 C685 1.463 . S
C688 N692 1.427 . S
C689 H679 0.929 . S
C689 C687 1.433 . S
C689 N692 1.384 . S
C690 H681 0.929 . S
C690 C682 1.378 . S
C690 C685 1.350 . S
C691 H678 0.929 . S
C691 C683 1.433 . S
C691 N693 1.384 . S
N692 C688 1.427 . S
N692 C689 1.384 . S
N693 C685 1.427 . S
N693 C691 1.384 . S
H694 C700 0.930 . S
H695 C704 0.930 . S
H696 C709 0.929 . S
H697 C707 0.929 . S
H698 C702 0.929 . S
H699 C708 0.929 . S
C700 H694 0.930 . S
C700 C701 1.367 . S
C700 C708 1.378 . S
C701 C700 1.367 . S
C701 C709 1.433 . S
C702 H698 0.929 . S
C702 C704 1.378 . S
C702 C706 1.350 . S
C703 C706 1.463 . S
C703 C708 1.350 . S
C703 N711 1.427 . S
C704 H695 0.930 . S
C704 C702 1.378 . S
C704 C705 1.367 . S
C705 C704 1.367 . S
C705 C707 1.433 . S
C706 C702 1.350 . S
C706 C703 1.463 . S
C706 N710 1.427 . S
C707 H697 0.929 . S
C707 C705 1.433 . S
C707 N710 1.384 . S
C708 H699 0.929 . S
C708 C700 1.378 . S
C708 C703 1.350 . S
C709 H696 0.929 . S
C709 C701 1.433 . S
C709 N711 1.384 . S
N710 C706 1.427 . S
N710 C707 1.384 . S
N711 C703 1.427 . S
N711 C709 1.384 . S
H712 C718 0.930 . S
H713 C722 0.930 . S
H714 C727 0.929 . S
H715 C725 0.929 . S
H716 C720 0.929 . S
H717 C726 0.929 . S
C718 H712 0.930 . S
C718 C719 1.367 . S
C718 C726 1.378 . S
C719 C718 1.367 . S
C719 C727 1.433 . S
C720 H716 0.929 . S
C720 C722 1.378 . S
C720 C724 1.350 . S
C721 C724 1.463 . S
C721 C726 1.350 . S
C721 N729 1.427 . S
C722 H713 0.930 . S
C722 C720 1.378 . S
C722 C723 1.367 . S
C723 C722 1.367 . S
C723 C725 1.433 . S
C724 C720 1.350 . S
C724 C721 1.463 . S
C724 N728 1.427 . S
C725 H715 0.929 . S
C725 C723 1.433 . S
C725 N728 1.384 . S
C726 H717 0.929 . S
C726 C718 1.378 . S
C726 C721 1.350 . S
C727 H714 0.929 . S
C727 C719 1.433 . S
C727 N729 1.384 . S
N728 C724 1.427 . S
N728 C725 1.384 . S
N729 C721 1.427 . S
N729 C727 1.384 . S
H730 C736 0.930 . S
H731 C740 0.930 . S
H732 C745 0.929 . S
H733 C743 0.929 . S
H734 C738 0.929 . S
H735 C744 0.929 . S
C736 H730 0.930 . S
C736 C737 1.367 . S
C736 C744 1.378 . S
C737 C736 1.367 . S
C737 C745 1.433 . S
C738 H734 0.929 . S
C738 C740 1.378 . S
C738 C742 1.350 . S
C739 C742 1.463 . S
C739 C744 1.350 . S
C739 N747 1.427 . S
C740 H731 0.930 . S
C740 C738 1.378 . S
C740 C741 1.367 . S
C741 C740 1.367 . S
C741 C743 1.433 . S
C742 C738 1.350 . S
C742 C739 1.463 . S
C742 N746 1.427 . S
C743 H733 0.929 . S
C743 C741 1.433 . S
C743 N746 1.384 . S
C744 H735 0.929 . S
C744 C736 1.378 . S
C744 C739 1.350 . S
C745 H732 0.929 . S
C745 C737 1.433 . S
C745 N747 1.384 . S
N746 C742 1.427 . S
N746 C743 1.384 . S
N747 C739 1.427 . S
N747 C745 1.384 . S
H748 C754 0.930 . S
H749 C758 0.930 . S
H750 C763 0.929 . S
H751 C761 0.929 . S
H752 C756 0.929 . S
H753 C762 0.929 . S
C754 H748 0.930 . S
C754 C755 1.367 . S
C754 C762 1.378 . S
C755 C754 1.367 . S
C755 C763 1.433 . S
C756 H752 0.929 . S
C756 C758 1.378 . S
C756 C760 1.350 . S
C757 C760 1.463 . S
C757 C762 1.350 . S
C757 N765 1.427 . S
C758 H749 0.930 . S
C758 C756 1.378 . S
C758 C759 1.367 . S
C759 C758 1.367 . S
C759 C761 1.433 . S
C760 C756 1.350 . S
C760 C757 1.463 . S
C760 N764 1.427 . S
C761 H751 0.929 . S
C761 C759 1.433 . S
C761 N764 1.384 . S
C762 H753 0.929 . S
C762 C754 1.378 . S
C762 C757 1.350 . S
C763 H750 0.929 . S
C763 C755 1.433 . S
C763 N765 1.384 . S
N764 C760 1.427 . S
N764 C761 1.384 . S
N765 C757 1.427 . S
N765 C763 1.384 . S
H766 C772 0.930 1_655 S
H767 C776 0.930 . S
H768 C781 0.929 . S
H769 C779 0.929 1_565 S
H770 C774 0.929 . S
H771 C780 0.929 . S
C772 H766 0.930 1_455 S
C772 C773 1.367 . S
C772 C780 1.378 . S
C773 C772 1.367 . S
C773 C781 1.433 . S
C774 H770 0.929 . S
C774 C776 1.378 . S
C774 C778 1.350 . S
C775 C778 1.463 . S
C775 C780 1.350 . S
C775 N783 1.427 . S
C776 H767 0.930 . S
C776 C774 1.378 . S
C776 C777 1.367 . S
C777 C776 1.367 . S
C777 C779 1.433 . S
C778 C774 1.350 . S
C778 C775 1.463 . S
C778 N782 1.427 . S
C779 H769 0.929 1_545 S
C779 C777 1.433 . S
C779 N782 1.384 . S
C780 H771 0.929 . S
C780 C772 1.378 . S
C780 C775 1.350 . S
C781 H768 0.929 . S
C781 C773 1.433 . S
C781 N783 1.384 . S
N782 C778 1.427 . S
N782 C779 1.384 . S
N783 C775 1.427 . S
N783 C781 1.384 . S
H784 C790 0.930 . S
H785 C794 0.930 . S
H786 C799 0.929 . S
H787 C797 0.929 . S
H788 C792 0.929 . S
H789 C798 0.929 . S
C790 H784 0.930 . S
C790 C791 1.367 . S
C790 C798 1.378 . S
C791 C790 1.367 . S
C791 C799 1.433 . S
C792 H788 0.929 . S
C792 C794 1.378 . S
C792 C796 1.350 . S
C793 C796 1.463 . S
C793 C798 1.350 . S
C793 N801 1.427 . S
C794 H785 0.930 . S
C794 C792 1.378 . S
C794 C795 1.367 . S
C795 C794 1.367 . S
C795 C797 1.433 . S
C796 C792 1.350 . S
C796 C793 1.463 . S
C796 N800 1.427 . S
C797 H787 0.929 . S
C797 C795 1.433 . S
C797 N800 1.384 . S
C798 H789 0.929 . S
C798 C790 1.378 . S
C798 C793 1.350 . S
C799 H786 0.929 . S
C799 C791 1.433 . S
C799 N801 1.384 . S
N800 C796 1.427 . S
N800 C797 1.384 . S
N801 C793 1.427 . S
N801 C799 1.384 . S
H802 C808 0.930 . S
H803 C812 0.930 . S
H804 C817 0.929 . S
H805 C815 0.929 . S
H806 C810 0.929 . S
H807 C816 0.929 . S
C808 H802 0.930 . S
C808 C809 1.367 . S
C808 C816 1.378 . S
C809 C808 1.367 . S
C809 C817 1.433 . S
C810 H806 0.929 . S
C810 C812 1.378 . S
C810 C814 1.350 . S
C811 C814 1.463 . S
C811 C816 1.350 . S
C811 N819 1.427 . S
C812 H803 0.930 . S
C812 C810 1.378 . S
C812 C813 1.367 . S
C813 C812 1.367 . S
C813 C815 1.433 . S
C814 C810 1.350 . S
C814 C811 1.463 . S
C814 N818 1.427 . S
C815 H805 0.929 . S
C815 C813 1.433 . S
C815 N818 1.384 . S
C816 H807 0.929 . S
C816 C808 1.378 . S
C816 C811 1.350 . S
C817 H804 0.929 . S
C817 C809 1.433 . S
C817 N819 1.384 . S
N818 C814 1.427 . S
N818 C815 1.384 . S
N819 C811 1.427 . S
N819 C817 1.384 . S
H820 C826 0.930 . S
H821 C830 0.930 . S
H822 C835 0.929 . S
H823 C833 0.929 . S
H824 C828 0.929 . S
H825 C834 0.929 . S
C826 H820 0.930 . S
C826 C827 1.367 . S
C826 C834 1.378 . S
C827 C826 1.367 . S
C827 C835 1.433 . S
C828 H824 0.929 . S
C828 C830 1.378 . S
C828 C832 1.350 . S
C829 C832 1.463 . S
C829 C834 1.350 . S
C829 N837 1.427 . S
C830 H821 0.930 . S
C830 C828 1.378 . S
C830 C831 1.367 . S
C831 C830 1.367 . S
C831 C833 1.433 . S
C832 C828 1.350 . S
C832 C829 1.463 . S
C832 N836 1.427 . S
C833 H823 0.929 . S
C833 C831 1.433 . S
C833 N836 1.384 . S
C834 H825 0.929 . S
C834 C826 1.378 . S
C834 C829 1.350 . S
C835 H822 0.929 . S
C835 C827 1.433 . S
C835 N837 1.384 . S
N836 C832 1.427 . S
N836 C833 1.384 . S
N837 C829 1.427 . S
N837 C835 1.384 . S
H838 C844 0.930 . S
H839 C848 0.930 . S
H840 C853 0.929 . S
H841 C851 0.926 1_545 S
H842 C846 0.929 . S
H843 C852 0.929 . S
C844 H838 0.930 . S
C844 C845 1.367 . S
C844 C852 1.378 . S
C845 C844 1.367 . S
C845 C853 1.433 . S
C846 H842 0.929 . S
C846 C848 1.378 . S
C846 C850 1.350 . S
C847 C850 1.463 . S
C847 C852 1.350 . S
C847 N855 1.427 . S
C848 H839 0.930 . S
C848 C846 1.378 . S
C848 C849 1.367 . S
C849 C848 1.367 . S
C849 C851 1.434 . S
C850 C846 1.350 . S
C850 C847 1.463 . S
C850 N854 1.427 . S
C851 H841 0.926 1_565 S
C851 C849 1.434 . S
C851 N854 1.386 . S
C852 H843 0.929 . S
C852 C844 1.378 . S
C852 C847 1.350 . S
C853 H840 0.929 . S
C853 C845 1.433 . S
C853 N855 1.384 . S
N854 C850 1.427 . S
N854 C851 1.386 . S
N855 C847 1.427 . S
N855 C853 1.384 . S
H856 C862 0.930 . S
H857 C866 0.930 1_565 S
H858 C871 0.929 . S
H859 C869 0.929 . S
H860 C864 0.929 . S
H861 C870 0.929 . S
C862 H856 0.930 . S
C862 C863 1.367 . S
C862 C870 1.378 . S
C863 C862 1.367 . S
C863 C871 1.433 . S
C864 H860 0.929 . S
C864 C866 1.378 . S
C864 C868 1.350 . S
C865 C868 1.463 . S
C865 C870 1.350 . S
C865 N873 1.427 . S
C866 H857 0.930 1_545 S
C866 C864 1.378 . S
C866 C867 1.367 . S
C867 C866 1.367 . S
C867 C869 1.433 . S
C868 C864 1.350 . S
C868 C865 1.463 . S
C868 N872 1.427 . S
C869 H859 0.929 . S
C869 C867 1.433 . S
C869 N872 1.384 . S
C870 H861 0.929 . S
C870 C862 1.378 . S
C870 C865 1.350 . S
C871 H858 0.929 . S
C871 C863 1.433 . S
C871 N873 1.384 . S
N872 C868 1.427 . S
N872 C869 1.384 . S
N873 C865 1.427 . S
N873 C871 1.384 . S
H874 C880 0.930 . S
H875 C884 0.930 . S
H876 C889 0.929 . S
H877 C887 0.929 . S
H878 C882 0.929 . S
H879 C888 0.929 . S
C880 H874 0.930 . S
C880 C881 1.367 . S
C880 C888 1.378 . S
C881 C880 1.367 . S
C881 C889 1.433 . S
C882 H878 0.929 . S
C882 C884 1.378 . S
C882 C886 1.350 . S
C883 C886 1.463 . S
C883 C888 1.350 . S
C883 N891 1.427 . S
C884 H875 0.930 . S
C884 C882 1.378 . S
C884 C885 1.367 . S
C885 C884 1.367 . S
C885 C887 1.433 . S
C886 C882 1.350 . S
C886 C883 1.463 . S
C886 N890 1.427 . S
C887 H877 0.929 . S
C887 C885 1.433 . S
C887 N890 1.384 . S
C888 H879 0.929 . S
C888 C880 1.378 . S
C888 C883 1.350 . S
C889 H876 0.929 . S
C889 C881 1.433 . S
C889 N891 1.384 . S
N890 C886 1.427 . S
N890 C887 1.384 . S
N891 C883 1.427 . S
N891 C889 1.384 . S
H892 C898 0.930 . S
H893 C902 0.930 . S
H894 C907 0.929 . S
H895 C905 0.929 . S
H896 C900 0.929 . S
H897 C906 0.929 . S
C898 H892 0.930 . S
C898 C899 1.367 . S
C898 C906 1.378 . S
C899 C898 1.367 . S
C899 C907 1.433 . S
C900 H896 0.929 . S
C900 C902 1.378 . S
C900 C904 1.350 . S
C901 C904 1.463 . S
C901 C906 1.350 . S
C901 N909 1.427 . S
C902 H893 0.930 . S
C902 C900 1.378 . S
C902 C903 1.367 . S
C903 C902 1.367 . S
C903 C905 1.433 . S
C904 C900 1.350 . S
C904 C901 1.463 . S
C904 N908 1.427 . S
C905 H895 0.929 . S
C905 C903 1.433 . S
C905 N908 1.384 . S
C906 H897 0.929 . S
C906 C898 1.378 . S
C906 C901 1.350 . S
C907 H894 0.929 . S
C907 C899 1.433 . S
C907 N909 1.384 . S
N908 C904 1.427 . S
N908 C905 1.384 . S
N909 C901 1.427 . S
N909 C907 1.384 . S
H910 C916 0.930 . S
H911 C920 0.930 . S
H912 C925 0.929 . S
H913 C923 0.929 1_565 S
H914 C918 0.929 . S
H915 C924 0.929 . S
C916 H910 0.930 . S
C916 C917 1.367 . S
C916 C924 1.378 . S
C917 C916 1.367 . S
C917 C925 1.433 . S
C918 H914 0.929 . S
C918 C920 1.378 . S
C918 C922 1.350 . S
C919 C922 1.463 . S
C919 C924 1.350 . S
C919 N927 1.427 . S
C920 H911 0.930 . S
C920 C918 1.378 . S
C920 C921 1.367 . S
C921 C920 1.367 . S
C921 C923 1.433 . S
C922 C918 1.350 . S
C922 C919 1.463 . S
C922 N926 1.427 . S
C923 H913 0.929 1_545 S
C923 C921 1.433 . S
C923 N926 1.384 . S
C924 H915 0.929 . S
C924 C916 1.378 . S
C924 C919 1.350 . S
C925 H912 0.929 . S
C925 C917 1.433 . S
C925 N927 1.384 . S
N926 C922 1.427 . S
N926 C923 1.384 . S
N927 C919 1.427 . S
N927 C925 1.384 . S
H928 C934 0.930 . S
H929 C938 0.930 . S
H930 C943 0.929 . S
H931 C941 0.929 . S
H932 C936 0.929 . S
H933 C942 0.929 . S
C934 H928 0.930 . S
C934 C935 1.367 . S
C934 C942 1.378 . S
C935 C934 1.367 . S
C935 C943 1.433 . S
C936 H932 0.929 . S
C936 C938 1.378 . S
C936 C940 1.350 . S
C937 C940 1.463 . S
C937 C942 1.350 . S
C937 N945 1.427 . S
C938 H929 0.930 . S
C938 C936 1.378 . S
C938 C939 1.367 . S
C939 C938 1.367 . S
C939 C941 1.433 . S
C940 C936 1.350 . S
C940 C937 1.463 . S
C940 N944 1.427 . S
C941 H931 0.929 . S
C941 C939 1.433 . S
C941 N944 1.384 . S
C942 H933 0.929 . S
C942 C934 1.378 . S
C942 C937 1.350 . S
C943 H930 0.929 . S
C943 C935 1.433 . S
C943 N945 1.384 . S
N944 C940 1.427 . S
N944 C941 1.384 . S
N945 C937 1.427 . S
N945 C943 1.384 . S
H946 C952 0.930 1_455 S
H947 C956 0.930 . S
H948 C961 0.929 . S
H949 C959 0.929 1_545 S
H950 C954 0.929 . S
H951 C960 0.929 . S
C952 H946 0.930 1_655 S
C952 C953 1.367 . S
C952 C960 1.378 . S
C953 C952 1.367 . S
C953 C961 1.433 . S
C954 H950 0.929 . S
C954 C956 1.378 . S
C954 C958 1.350 . S
C955 C958 1.463 . S
C955 C960 1.350 . S
C955 N963 1.427 . S
C956 H947 0.930 . S
C956 C954 1.378 . S
C956 C957 1.367 . S
C957 C956 1.367 . S
C957 C959 1.433 . S
C958 C954 1.350 . S
C958 C955 1.463 . S
C958 N962 1.427 . S
C959 H949 0.929 1_565 S
C959 C957 1.433 . S
C959 N962 1.384 . S
C960 H951 0.929 . S
C960 C952 1.378 . S
C960 C955 1.350 . S
C961 H948 0.929 . S
C961 C953 1.433 . S
C961 N963 1.384 . S
N962 C958 1.427 . S
N962 C959 1.384 . S
N963 C955 1.427 . S
N963 C961 1.384 . S
H964 C970 0.930 . S
H965 C974 0.930 . S
H966 C979 0.929 . S
H967 C977 0.929 . S
H968 C972 0.929 . S
H969 C978 0.929 . S
C970 H964 0.930 . S
C970 C971 1.367 . S
C970 C978 1.378 . S
C971 C970 1.367 . S
C971 C979 1.433 . S
C972 H968 0.929 . S
C972 C974 1.378 . S
C972 C976 1.350 . S
C973 C976 1.463 . S
C973 C978 1.350 . S
C973 N981 1.427 . S
C974 H965 0.930 . S
C974 C972 1.378 . S
C974 C975 1.367 . S
C975 C974 1.367 . S
C975 C977 1.433 . S
C976 C972 1.350 . S
C976 C973 1.463 . S
C976 N980 1.427 . S
C977 H967 0.929 . S
C977 C975 1.433 . S
C977 N980 1.384 . S
C978 H969 0.929 . S
C978 C970 1.378 . S
C978 C973 1.350 . S
C979 H966 0.929 . S
C979 C971 1.433 . S
C979 N981 1.384 . S
N980 C976 1.427 . S
N980 C977 1.384 . S
N981 C973 1.427 . S
N981 C979 1.384 . S
H982 C988 0.930 . S
H983 C992 0.930 . S
H984 C997 0.929 . S
H985 C995 0.929 . S
H986 C990 0.929 . S
H987 C996 0.929 . S
C988 H982 0.930 . S
C988 C989 1.367 . S
C988 C996 1.378 . S
C989 C988 1.367 . S
C989 C997 1.433 . S
C990 H986 0.929 . S
C990 C992 1.378 . S
C990 C994 1.350 . S
C991 C994 1.463 . S
C991 C996 1.350 . S
C991 N999 1.427 . S
C992 H983 0.930 . S
C992 C990 1.378 . S
C992 C993 1.367 . S
C993 C992 1.367 . S
C993 C995 1.433 . S
C994 C990 1.350 . S
C994 C991 1.463 . S
C994 N998 1.427 . S
C995 H985 0.929 . S
C995 C993 1.433 . S
C995 N998 1.384 . S
C996 H987 0.929 . S
C996 C988 1.378 . S
C996 C991 1.350 . S
C997 H984 0.929 . S
C997 C989 1.433 . S
C997 N999 1.384 . S
N998 C994 1.427 . S
N998 C995 1.384 . S
N999 C991 1.427 . S
N999 C997 1.384 . S
H1000 C1006 0.930 . S
H1001 C1010 0.930 . S
H1002 C1015 0.929 . S
H1003 C1013 0.929 . S
H1004 C1008 0.929 . S
H1005 C1014 0.929 . S
C1006 H1000 0.930 . S
C1006 C1007 1.367 . S
C1006 C1014 1.378 . S
C1007 C1006 1.367 . S
C1007 C1015 1.433 . S
C1008 H1004 0.929 . S
C1008 C1010 1.378 . S
C1008 C1012 1.350 . S
C1009 C1012 1.463 . S
C1009 C1014 1.350 . S
C1009 N1017 1.427 . S
C1010 H1001 0.930 . S
C1010 C1008 1.378 . S
C1010 C1011 1.367 . S
C1011 C1010 1.367 . S
C1011 C1013 1.433 . S
C1012 C1008 1.350 . S
C1012 C1009 1.463 . S
C1012 N1016 1.427 . S
C1013 H1003 0.929 . S
C1013 C1011 1.433 . S
C1013 N1016 1.384 . S
C1014 H1005 0.929 . S
C1014 C1006 1.378 . S
C1014 C1009 1.350 . S
C1015 H1002 0.929 . S
C1015 C1007 1.433 . S
C1015 N1017 1.384 . S
N1016 C1012 1.427 . S
N1016 C1013 1.384 . S
N1017 C1009 1.427 . S
N1017 C1015 1.384 . S
H1018 C1024 0.930 1_565 S
H1019 C1028 0.930 . S
H1020 C1033 0.929 . S
H1021 C1031 0.929 . S
H1022 C1026 0.929 . S
H1023 C1032 0.929 . S
C1024 H1018 0.930 1_545 S
C1024 C1025 1.367 . S
C1024 C1032 1.378 . S
C1025 C1024 1.367 . S
C1025 C1033 1.433 . S
C1026 H1022 0.929 . S
C1026 C1028 1.378 . S
C1026 C1030 1.350 . S
C1027 C1030 1.463 . S
C1027 C1032 1.350 . S
C1027 N1035 1.427 . S
C1028 H1019 0.930 . S
C1028 C1026 1.378 . S
C1028 C1029 1.367 . S
C1029 C1028 1.367 . S
C1029 C1031 1.433 . S
C1030 C1026 1.350 . S
C1030 C1027 1.463 . S
C1030 N1034 1.427 . S
C1031 H1021 0.929 . S
C1031 C1029 1.433 . S
C1031 N1034 1.384 . S
C1032 H1023 0.929 . S
C1032 C1024 1.378 . S
C1032 C1027 1.350 . S
C1033 H1020 0.929 . S
C1033 C1025 1.433 . S
C1033 N1035 1.384 . S
N1034 C1030 1.427 . S
N1034 C1031 1.384 . S
N1035 C1027 1.427 . S
N1035 C1033 1.384 . S
H1036 C1042 0.930 . S
H1037 C1046 0.930 . S
H1038 C1051 0.929 1_565 S
H1039 C1049 0.929 . S
H1040 C1044 0.929 . S
H1041 C1050 0.929 . S
C1042 H1036 0.930 . S
C1042 C1043 1.367 . S
C1042 C1050 1.378 . S
C1043 C1042 1.367 . S
C1043 C1051 1.433 . S
C1044 H1040 0.929 . S
C1044 C1046 1.378 . S
C1044 C1048 1.350 . S
C1045 C1048 1.463 . S
C1045 C1050 1.350 . S
C1045 N1053 1.427 . S
C1046 H1037 0.930 . S
C1046 C1044 1.378 . S
C1046 C1047 1.367 . S
C1047 C1046 1.367 . S
C1047 C1049 1.433 . S
C1048 C1044 1.350 . S
C1048 C1045 1.463 . S
C1048 N1052 1.427 . S
C1049 H1039 0.929 . S
C1049 C1047 1.433 . S
C1049 N1052 1.384 . S
C1050 H1041 0.929 . S
C1050 C1042 1.378 . S
C1050 C1045 1.350 . S
C1051 H1038 0.929 1_545 S
C1051 C1043 1.433 . S
C1051 N1053 1.384 . S
N1052 C1048 1.427 . S
N1052 C1049 1.384 . S
N1053 C1045 1.427 . S
N1053 C1051 1.384 . S
H1054 C1060 0.930 . S
H1055 C1064 0.930 . S
H1056 C1069 0.929 1_655 S
H1057 C1067 0.929 . S
H1058 C1062 0.929 . S
H1059 C1068 0.929 . S
C1060 H1054 0.930 . S
C1060 C1061 1.367 . S
C1060 C1068 1.378 . S
C1061 C1060 1.367 . S
C1061 C1069 1.433 . S
C1062 H1058 0.929 . S
C1062 C1064 1.378 . S
C1062 C1066 1.350 . S
C1063 C1066 1.463 . S
C1063 C1068 1.350 . S
C1063 N1071 1.427 . S
C1064 H1055 0.930 . S
C1064 C1062 1.378 . S
C1064 C1065 1.367 . S
C1065 C1064 1.367 . S
C1065 C1067 1.433 . S
C1066 C1062 1.350 . S
C1066 C1063 1.463 . S
C1066 N1070 1.427 . S
C1067 H1057 0.929 . S
C1067 C1065 1.433 . S
C1067 N1070 1.384 . S
C1068 H1059 0.929 . S
C1068 C1060 1.378 . S
C1068 C1063 1.350 . S
C1069 H1056 0.929 1_455 S
C1069 C1061 1.433 . S
C1069 N1071 1.384 . S
N1070 C1066 1.427 . S
N1070 C1067 1.384 . S
N1071 C1063 1.427 . S
N1071 C1069 1.384 . S
H1072 C1078 0.930 . S
H1073 C1082 0.930 . S
H1074 C1087 0.929 . S
H1075 C1085 0.929 . S
H1076 C1080 0.929 . S
H1077 C1086 0.929 . S
C1078 H1072 0.930 . S
C1078 C1079 1.367 . S
C1078 C1086 1.378 . S
C1079 C1078 1.367 . S
C1079 C1087 1.433 . S
C1080 H1076 0.929 . S
C1080 C1082 1.378 . S
C1080 C1084 1.350 . S
C1081 C1084 1.463 . S
C1081 C1086 1.350 . S
C1081 N1089 1.427 . S
C1082 H1073 0.930 . S
C1082 C1080 1.378 . S
C1082 C1083 1.367 . S
C1083 C1082 1.367 . S
C1083 C1085 1.433 . S
C1084 C1080 1.350 . S
C1084 C1081 1.463 . S
C1084 N1088 1.427 . S
C1085 H1075 0.929 . S
C1085 C1083 1.433 . S
C1085 N1088 1.384 . S
C1086 H1077 0.929 . S
C1086 C1078 1.378 . S
C1086 C1081 1.350 . S
C1087 H1074 0.929 . S
C1087 C1079 1.433 . S
C1087 N1089 1.384 . S
N1088 C1084 1.427 . S
N1088 C1085 1.384 . S
N1089 C1081 1.427 . S
N1089 C1087 1.384 . S
H1090 C1096 0.930 . S
H1091 C1100 0.930 . S
H1092 C1105 0.929 . S
H1093 C1103 0.929 . S
H1094 C1098 0.929 . S
H1095 C1104 0.929 . S
C1096 H1090 0.930 . S
C1096 C1097 1.367 . S
C1096 C1104 1.378 . S
C1097 C1096 1.367 . S
C1097 C1105 1.433 . S
C1098 H1094 0.929 . S
C1098 C1100 1.378 . S
C1098 C1102 1.350 . S
C1099 C1102 1.463 . S
C1099 C1104 1.350 . S
C1099 N1107 1.427 . S
C1100 H1091 0.930 . S
C1100 C1098 1.378 . S
C1100 C1101 1.367 . S
C1101 C1100 1.367 . S
C1101 C1103 1.433 . S
C1102 C1098 1.350 . S
C1102 C1099 1.463 . S
C1102 N1106 1.427 . S
C1103 H1093 0.929 . S
C1103 C1101 1.433 . S
C1103 N1106 1.384 . S
C1104 H1095 0.929 . S
C1104 C1096 1.378 . S
C1104 C1099 1.350 . S
C1105 H1092 0.929 . S
C1105 C1097 1.433 . S
C1105 N1107 1.384 . S
N1106 C1102 1.427 . S
N1106 C1103 1.384 . S
N1107 C1099 1.427 . S
N1107 C1105 1.384 . S
H1108 C1114 0.930 . S
H1109 C1118 0.930 . S
H1110 C1123 0.929 . S
H1111 C1121 0.929 . S
H1112 C1116 0.929 . S
H1113 C1122 0.929 . S
C1114 H1108 0.930 . S
C1114 C1115 1.367 . S
C1114 C1122 1.378 . S
C1115 C1114 1.367 . S
C1115 C1123 1.433 . S
C1116 H1112 0.929 . S
C1116 C1118 1.378 . S
C1116 C1120 1.350 . S
C1117 C1120 1.463 . S
C1117 C1122 1.350 . S
C1117 N1125 1.427 . S
C1118 H1109 0.930 . S
C1118 C1116 1.378 . S
C1118 C1119 1.367 . S
C1119 C1118 1.367 . S
C1119 C1121 1.433 . S
C1120 C1116 1.350 . S
C1120 C1117 1.463 . S
C1120 N1124 1.427 . S
C1121 H1111 0.929 . S
C1121 C1119 1.433 . S
C1121 N1124 1.384 . S
C1122 H1113 0.929 . S
C1122 C1114 1.378 . S
C1122 C1117 1.350 . S
C1123 H1110 0.929 . S
C1123 C1115 1.433 . S
C1123 N1125 1.384 . S
N1124 C1120 1.427 . S
N1124 C1121 1.384 . S
N1125 C1117 1.427 . S
N1125 C1123 1.384 . S
H1126 C1132 0.930 . S
H1127 C1136 0.930 . S
H1128 C1141 0.929 . S
H1129 C1139 0.929 . S
H1130 C1134 0.929 . S
H1131 C1140 0.929 . S
C1132 H1126 0.930 . S
C1132 C1133 1.367 . S
C1132 C1140 1.378 . S
C1133 C1132 1.367 . S
C1133 C1141 1.433 . S
C1134 H1130 0.929 . S
C1134 C1136 1.378 . S
C1134 C1138 1.350 . S
C1135 C1138 1.463 . S
C1135 C1140 1.350 . S
C1135 N1143 1.427 . S
C1136 H1127 0.930 . S
C1136 C1134 1.378 . S
C1136 C1137 1.367 . S
C1137 C1136 1.367 . S
C1137 C1139 1.433 . S
C1138 C1134 1.350 . S
C1138 C1135 1.463 . S
C1138 N1142 1.427 . S
C1139 H1129 0.929 . S
C1139 C1137 1.433 . S
C1139 N1142 1.384 . S
C1140 H1131 0.929 . S
C1140 C1132 1.378 . S
C1140 C1135 1.350 . S
C1141 H1128 0.929 . S
C1141 C1133 1.433 . S
C1141 N1143 1.384 . S
N1142 C1138 1.427 . S
N1142 C1139 1.384 . S
N1143 C1135 1.427 . S
N1143 C1141 1.384 . S
H1144 C1150 0.930 . S
H1145 C1154 0.930 . S
H1146 C1159 0.929 . S
H1147 C1157 0.929 . S
H1148 C1152 0.929 . S
H1149 C1158 0.929 . S
C1150 H1144 0.930 . S
C1150 C1151 1.367 . S
C1150 C1158 1.378 . S
C1151 C1150 1.367 . S
C1151 C1159 1.433 . S
C1152 H1148 0.929 . S
C1152 C1154 1.378 . S
C1152 C1156 1.350 . S
C1153 C1156 1.463 . S
C1153 C1158 1.350 . S
C1153 N1161 1.427 . S
C1154 H1145 0.930 . S
C1154 C1152 1.378 . S
C1154 C1155 1.367 . S
C1155 C1154 1.367 . S
C1155 C1157 1.433 . S
C1156 C1152 1.350 . S
C1156 C1153 1.463 . S
C1156 N1160 1.427 . S
C1157 H1147 0.929 . S
C1157 C1155 1.433 . S
C1157 N1160 1.384 . S
C1158 H1149 0.929 . S
C1158 C1150 1.378 . S
C1158 C1153 1.350 . S
C1159 H1146 0.929 . S
C1159 C1151 1.433 . S
C1159 N1161 1.384 . S
N1160 C1156 1.427 . S
N1160 C1157 1.384 . S
N1161 C1153 1.427 . S
N1161 C1159 1.384 . S
H1162 C1168 0.930 . S
H1163 C1172 0.930 . S
H1164 C1177 0.929 . S
H1165 C1175 0.929 . S
H1166 C1170 0.929 . S
H1167 C1176 0.929 . S
C1168 H1162 0.930 . S
C1168 C1169 1.367 . S
C1168 C1176 1.378 . S
C1169 C1168 1.367 . S
C1169 C1177 1.433 . S
C1170 H1166 0.929 . S
C1170 C1172 1.378 . S
C1170 C1174 1.350 . S
C1171 C1174 1.463 . S
C1171 C1176 1.350 . S
C1171 N1179 1.427 . S
C1172 H1163 0.930 . S
C1172 C1170 1.378 . S
C1172 C1173 1.367 . S
C1173 C1172 1.367 . S
C1173 C1175 1.433 . S
C1174 C1170 1.350 . S
C1174 C1171 1.463 . S
C1174 N1178 1.427 . S
C1175 H1165 0.929 . S
C1175 C1173 1.433 . S
C1175 N1178 1.384 . S
C1176 H1167 0.929 . S
C1176 C1168 1.378 . S
C1176 C1171 1.350 . S
C1177 H1164 0.929 . S
C1177 C1169 1.433 . S
C1177 N1179 1.384 . S
N1178 C1174 1.427 . S
N1178 C1175 1.384 . S
N1179 C1171 1.427 . S
N1179 C1177 1.384 . S
H1180 C1186 0.930 . S
H1181 C1190 0.930 . S
H1182 C1195 0.929 . S
H1183 C1193 0.929 . S
H1184 C1188 0.929 . S
H1185 C1194 0.929 . S
C1186 H1180 0.930 . S
C1186 C1187 1.367 . S
C1186 C1194 1.378 . S
C1187 C1186 1.367 . S
C1187 C1195 1.433 . S
C1188 H1184 0.929 . S
C1188 C1190 1.378 . S
C1188 C1192 1.350 . S
C1189 C1192 1.463 . S
C1189 C1194 1.350 . S
C1189 N1197 1.427 . S
C1190 H1181 0.930 . S
C1190 C1188 1.378 . S
C1190 C1191 1.367 . S
C1191 C1190 1.367 . S
C1191 C1193 1.433 . S
C1192 C1188 1.350 . S
C1192 C1189 1.463 . S
C1192 N1196 1.427 . S
C1193 H1183 0.929 . S
C1193 C1191 1.433 . S
C1193 N1196 1.384 . S
C1194 H1185 0.929 . S
C1194 C1186 1.378 . S
C1194 C1189 1.350 . S
C1195 H1182 0.929 . S
C1195 C1187 1.433 . S
C1195 N1197 1.384 . S
N1196 C1192 1.427 . S
N1196 C1193 1.384 . S
N1197 C1189 1.427 . S
N1197 C1195 1.384 . S
H1198 C1204 0.930 . S
H1199 C1208 0.930 . S
H1200 C1213 0.929 . S
H1201 C1211 0.929 . S
H1202 C1206 0.929 . S
H1203 C1212 0.929 . S
C1204 H1198 0.930 . S
C1204 C1205 1.367 . S
C1204 C1212 1.378 . S
C1205 C1204 1.367 . S
C1205 C1213 1.433 . S
C1206 H1202 0.929 . S
C1206 C1208 1.378 . S
C1206 C1210 1.350 . S
C1207 C1210 1.463 . S
C1207 C1212 1.350 . S
C1207 N1215 1.427 . S
C1208 H1199 0.930 . S
C1208 C1206 1.378 . S
C1208 C1209 1.367 . S
C1209 C1208 1.367 . S
C1209 C1211 1.433 . S
C1210 C1206 1.350 . S
C1210 C1207 1.463 . S
C1210 N1214 1.427 . S
C1211 H1201 0.929 . S
C1211 C1209 1.433 . S
C1211 N1214 1.384 . S
C1212 H1203 0.929 . S
C1212 C1204 1.378 . S
C1212 C1207 1.350 . S
C1213 H1200 0.929 . S
C1213 C1205 1.433 . S
C1213 N1215 1.384 . S
N1214 C1210 1.427 . S
N1214 C1211 1.384 . S
N1215 C1207 1.427 . S
N1215 C1213 1.384 . S
H1216 C1222 0.930 . S
H1217 C1226 0.930 . S
H1218 C1231 0.929 . S
H1219 C1229 0.929 . S
H1220 C1224 0.929 . S
H1221 C1230 0.929 . S
C1222 H1216 0.930 . S
C1222 C1223 1.367 . S
C1222 C1230 1.378 . S
C1223 C1222 1.367 . S
C1223 C1231 1.433 . S
C1224 H1220 0.929 . S
C1224 C1226 1.378 . S
C1224 C1228 1.350 . S
C1225 C1228 1.463 . S
C1225 C1230 1.350 . S
C1225 N1233 1.427 . S
C1226 H1217 0.930 . S
C1226 C1224 1.378 . S
C1226 C1227 1.367 . S
C1227 C1226 1.367 . S
C1227 C1229 1.433 . S
C1228 C1224 1.350 . S
C1228 C1225 1.463 . S
C1228 N1232 1.427 . S
C1229 H1219 0.929 . S
C1229 C1227 1.433 . S
C1229 N1232 1.384 . S
C1230 H1221 0.929 . S
C1230 C1222 1.378 . S
C1230 C1225 1.350 . S
C1231 H1218 0.929 . S
C1231 C1223 1.433 . S
C1231 N1233 1.384 . S
N1232 C1228 1.427 . S
N1232 C1229 1.384 . S
N1233 C1225 1.427 . S
N1233 C1231 1.384 . S
H1234 C1240 0.930 . S
H1235 C1244 0.930 . S
H1236 C1249 0.929 . S
H1237 C1247 0.929 . S
H1238 C1242 0.929 . S
H1239 C1248 0.929 . S
C1240 H1234 0.930 . S
C1240 C1241 1.367 . S
C1240 C1248 1.378 . S
C1241 C1240 1.367 . S
C1241 C1249 1.433 . S
C1242 H1238 0.929 . S
C1242 C1244 1.378 . S
C1242 C1246 1.350 . S
C1243 C1246 1.463 . S
C1243 C1248 1.350 . S
C1243 N1251 1.427 . S
C1244 H1235 0.930 . S
C1244 C1242 1.378 . S
C1244 C1245 1.367 . S
C1245 C1244 1.367 . S
C1245 C1247 1.433 . S
C1246 C1242 1.350 . S
C1246 C1243 1.463 . S
C1246 N1250 1.427 . S
C1247 H1237 0.929 . S
C1247 C1245 1.433 . S
C1247 N1250 1.384 . S
C1248 H1239 0.929 . S
C1248 C1240 1.378 . S
C1248 C1243 1.350 . S
C1249 H1236 0.929 . S
C1249 C1241 1.433 . S
C1249 N1251 1.384 . S
N1250 C1246 1.427 . S
N1250 C1247 1.384 . S
N1251 C1243 1.427 . S
N1251 C1249 1.384 . S
H1252 C1258 0.930 . S
H1253 C1262 0.930 . S
H1254 C1267 0.929 . S
H1255 C1265 0.929 . S
H1256 C1260 0.929 . S
H1257 C1266 0.929 . S
C1258 H1252 0.930 . S
C1258 C1259 1.367 . S
C1258 C1266 1.378 . S
C1259 C1258 1.367 . S
C1259 C1267 1.433 . S
C1260 H1256 0.929 . S
C1260 C1262 1.378 . S
C1260 C1264 1.350 . S
C1261 C1264 1.463 . S
C1261 C1266 1.350 . S
C1261 N1269 1.427 . S
C1262 H1253 0.930 . S
C1262 C1260 1.378 . S
C1262 C1263 1.367 . S
C1263 C1262 1.367 . S
C1263 C1265 1.433 . S
C1264 C1260 1.350 . S
C1264 C1261 1.463 . S
C1264 N1268 1.427 . S
C1265 H1255 0.929 . S
C1265 C1263 1.433 . S
C1265 N1268 1.384 . S
C1266 H1257 0.929 . S
C1266 C1258 1.378 . S
C1266 C1261 1.350 . S
C1267 H1254 0.929 . S
C1267 C1259 1.433 . S
C1267 N1269 1.384 . S
N1268 C1264 1.427 . S
N1268 C1265 1.384 . S
N1269 C1261 1.427 . S
N1269 C1267 1.384 . S
H1270 C1276 0.930 . S
H1271 C1280 0.930 . S
H1272 C1285 0.929 . S
H1273 C1283 0.929 . S
H1274 C1278 0.929 . S
H1275 C1284 0.929 . S
C1276 H1270 0.930 . S
C1276 C1277 1.367 . S
C1276 C1284 1.378 . S
C1277 C1276 1.367 . S
C1277 C1285 1.433 . S
C1278 H1274 0.929 . S
C1278 C1280 1.378 . S
C1278 C1282 1.350 . S
C1279 C1282 1.463 . S
C1279 C1284 1.350 . S
C1279 N1287 1.427 . S
C1280 H1271 0.930 . S
C1280 C1278 1.378 . S
C1280 C1281 1.367 . S
C1281 C1280 1.367 . S
C1281 C1283 1.433 . S
C1282 C1278 1.350 . S
C1282 C1279 1.463 . S
C1282 N1286 1.427 . S
C1283 H1273 0.929 . S
C1283 C1281 1.433 . S
C1283 N1286 1.384 . S
C1284 H1275 0.929 . S
C1284 C1276 1.378 . S
C1284 C1279 1.350 . S
C1285 H1272 0.929 . S
C1285 C1277 1.433 . S
C1285 N1287 1.384 . S
N1286 C1282 1.427 . S
N1286 C1283 1.384 . S
N1287 C1279 1.427 . S
N1287 C1285 1.384 . S
H1288 C1294 0.930 . S
H1289 C1298 0.930 . S
H1290 C1303 0.929 . S
H1291 C1301 0.929 . S
H1292 C1296 0.929 . S
H1293 C1302 0.929 . S
C1294 H1288 0.930 . S
C1294 C1295 1.367 . S
C1294 C1302 1.378 . S
C1295 C1294 1.367 . S
C1295 C1303 1.433 . S
C1296 H1292 0.929 . S
C1296 C1298 1.378 . S
C1296 C1300 1.350 . S
C1297 C1300 1.463 . S
C1297 C1302 1.350 . S
C1297 N1305 1.427 . S
C1298 H1289 0.930 . S
C1298 C1296 1.378 . S
C1298 C1299 1.367 . S
C1299 C1298 1.367 . S
C1299 C1301 1.433 . S
C1300 C1296 1.350 . S
C1300 C1297 1.463 . S
C1300 N1304 1.427 . S
C1301 H1291 0.929 . S
C1301 C1299 1.433 . S
C1301 N1304 1.384 . S
C1302 H1293 0.929 . S
C1302 C1294 1.378 . S
C1302 C1297 1.350 . S
C1303 H1290 0.929 . S
C1303 C1295 1.433 . S
C1303 N1305 1.384 . S
N1304 C1300 1.427 . S
N1304 C1301 1.384 . S
N1305 C1297 1.427 . S
N1305 C1303 1.384 . S
H1306 C1312 0.930 . S
H1307 C1316 0.930 . S
H1308 C1321 0.929 . S
H1309 C1319 0.929 . S
H1310 C1314 0.929 . S
H1311 C1320 0.929 . S
C1312 H1306 0.930 . S
C1312 C1313 1.367 . S
C1312 C1320 1.378 . S
C1313 C1312 1.367 . S
C1313 C1321 1.433 . S
C1314 H1310 0.929 . S
C1314 C1316 1.378 . S
C1314 C1318 1.350 . S
C1315 C1318 1.463 . S
C1315 C1320 1.350 . S
C1315 N1323 1.427 . S
C1316 H1307 0.930 . S
C1316 C1314 1.378 . S
C1316 C1317 1.367 . S
C1317 C1316 1.367 . S
C1317 C1319 1.433 . S
C1318 C1314 1.350 . S
C1318 C1315 1.463 . S
C1318 N1322 1.427 . S
C1319 H1309 0.929 . S
C1319 C1317 1.433 . S
C1319 N1322 1.384 . S
C1320 H1311 0.929 . S
C1320 C1312 1.378 . S
C1320 C1315 1.350 . S
C1321 H1308 0.929 . S
C1321 C1313 1.433 . S
C1321 N1323 1.384 . S
N1322 C1318 1.427 . S
N1322 C1319 1.384 . S
N1323 C1315 1.427 . S
N1323 C1321 1.384 . S
H1324 C1330 0.930 . S
H1325 C1334 0.930 . S
H1326 C1339 0.929 . S
H1327 C1337 0.929 . S
H1328 C1332 0.929 . S
H1329 C1338 0.929 . S
C1330 H1324 0.930 . S
C1330 C1331 1.367 . S
C1330 C1338 1.378 . S
C1331 C1330 1.367 . S
C1331 C1339 1.433 . S
C1332 H1328 0.929 . S
C1332 C1334 1.378 . S
C1332 C1336 1.350 . S
C1333 C1336 1.463 . S
C1333 C1338 1.350 . S
C1333 N1341 1.427 . S
C1334 H1325 0.930 . S
C1334 C1332 1.378 . S
C1334 C1335 1.367 . S
C1335 C1334 1.367 . S
C1335 C1337 1.433 . S
C1336 C1332 1.350 . S
C1336 C1333 1.463 . S
C1336 N1340 1.427 . S
C1337 H1327 0.929 . S
C1337 C1335 1.433 . S
C1337 N1340 1.384 . S
C1338 H1329 0.929 . S
C1338 C1330 1.378 . S
C1338 C1333 1.350 . S
C1339 H1326 0.929 . S
C1339 C1331 1.433 . S
C1339 N1341 1.384 . S
N1340 C1336 1.427 . S
N1340 C1337 1.384 . S
N1341 C1333 1.427 . S
N1341 C1339 1.384 . S
H1342 C1348 0.930 . S
H1343 C1352 0.930 . S
H1344 C1357 0.929 . S
H1345 C1355 0.929 . S
H1346 C1350 0.929 . S
H1347 C1356 0.929 . S
C1348 H1342 0.930 . S
C1348 C1349 1.367 . S
C1348 C1356 1.378 . S
C1349 C1348 1.367 . S
C1349 C1357 1.433 . S
C1350 H1346 0.929 . S
C1350 C1352 1.378 . S
C1350 C1354 1.350 . S
C1351 C1354 1.463 . S
C1351 C1356 1.350 . S
C1351 N1359 1.427 . S
C1352 H1343 0.930 . S
C1352 C1350 1.378 . S
C1352 C1353 1.367 . S
C1353 C1352 1.367 . S
C1353 C1355 1.433 . S
C1354 C1350 1.350 . S
C1354 C1351 1.463 . S
C1354 N1358 1.427 . S
C1355 H1345 0.929 . S
C1355 C1353 1.433 . S
C1355 N1358 1.384 . S
C1356 H1347 0.929 . S
C1356 C1348 1.378 . S
C1356 C1351 1.350 . S
C1357 H1344 0.929 . S
C1357 C1349 1.433 . S
C1357 N1359 1.384 . S
N1358 C1354 1.427 . S
N1358 C1355 1.384 . S
N1359 C1351 1.427 . S
N1359 C1357 1.384 . S
H1360 C1366 0.930 . S
H1361 C1370 0.930 . S
H1362 C1375 0.929 . S
H1363 C1373 0.929 . S
H1364 C1368 0.929 . S
H1365 C1374 0.929 . S
C1366 H1360 0.930 . S
C1366 C1367 1.367 . S
C1366 C1374 1.378 . S
C1367 C1366 1.367 . S
C1367 C1375 1.433 . S
C1368 H1364 0.929 . S
C1368 C1370 1.378 . S
C1368 C1372 1.350 . S
C1369 C1372 1.463 . S
C1369 C1374 1.350 . S
C1369 N1377 1.427 . S
C1370 H1361 0.930 . S
C1370 C1368 1.378 . S
C1370 C1371 1.367 . S
C1371 C1370 1.367 . S
C1371 C1373 1.433 . S
C1372 C1368 1.350 . S
C1372 C1369 1.463 . S
C1372 N1376 1.427 . S
C1373 H1363 0.929 . S
C1373 C1371 1.433 . S
C1373 N1376 1.384 . S
C1374 H1365 0.929 . S
C1374 C1366 1.378 . S
C1374 C1369 1.350 . S
C1375 H1362 0.929 . S
C1375 C1367 1.433 . S
C1375 N1377 1.384 . S
N1376 C1372 1.427 . S
N1376 C1373 1.384 . S
N1377 C1369 1.427 . S
N1377 C1375 1.384 . S
H1378 C1384 0.930 . S
H1379 C1388 0.930 . S
H1380 C1393 0.929 . S
H1381 C1391 0.929 1_565 S
H1382 C1386 0.929 . S
H1383 C1392 0.929 . S
C1384 H1378 0.930 . S
C1384 C1385 1.367 1_655 S
C1384 C1392 1.378 . S
C1385 C1384 1.367 1_455 S
C1385 C1393 1.433 . S
C1386 H1382 0.929 . S
C1386 C1388 1.378 . S
C1386 C1390 1.363 . S
C1387 C1390 1.455 1_565 S
C1387 C1392 1.350 1_455 S
C1387 N1395 1.427 . S
C1388 H1379 0.930 . S
C1388 C1386 1.378 . S
C1388 C1389 1.367 . S
C1389 C1388 1.367 . S
C1389 C1391 1.433 1_455 S
C1390 C1386 1.363 . S
C1390 C1387 1.455 1_545 S
C1390 N1394 1.421 1_445 S
C1391 H1381 0.929 1_545 S
C1391 C1389 1.433 1_655 S
C1391 N1394 1.384 1_545 S
C1392 H1383 0.929 . S
C1392 C1384 1.378 . S
C1392 C1387 1.350 1_655 S
C1393 H1380 0.929 . S
C1393 C1385 1.433 . S
C1393 N1395 1.384 . S
N1394 C1390 1.421 1_665 S
N1394 C1391 1.384 1_565 S
N1395 C1387 1.427 . S
N1395 C1393 1.384 . S
H1396 C1402 0.930 . S
H1397 C1406 0.930 . S
H1398 C1411 0.929 . S
H1399 C1409 0.929 . S
H1400 C1404 0.929 . S
H1401 C1410 0.929 . S
C1402 H1396 0.930 . S
C1402 C1403 1.367 . S
C1402 C1410 1.378 1_565 S
C1403 C1402 1.367 . S
C1403 C1411 1.433 . S
C1404 H1400 0.929 . S
C1404 C1406 1.378 1_565 S
C1404 C1408 1.350 1_565 S
C1405 C1408 1.463 1_565 S
C1405 C1410 1.350 1_565 S
C1405 N1413 1.427 . S
C1406 H1397 0.930 . S
C1406 C1404 1.378 1_545 S
C1406 C1407 1.367 . S
C1407 C1406 1.367 . S
C1407 C1409 1.433 . S
C1408 C1404 1.350 1_545 S
C1408 C1405 1.463 1_545 S
C1408 N1412 1.427 . S
C1409 H1399 0.929 . S
C1409 C1407 1.433 . S
C1409 N1412 1.384 . S
C1410 H1401 0.929 . S
C1410 C1402 1.378 1_545 S
C1410 C1405 1.350 1_545 S
C1411 H1398 0.929 . S
C1411 C1403 1.433 . S
C1411 N1413 1.384 . S
N1412 C1408 1.427 . S
N1412 C1409 1.384 . S
N1413 C1405 1.427 . S
N1413 C1411 1.384 . S
H1414 C1420 0.930 . S
H1415 C1424 0.930 . S
H1416 C1429 0.929 . S
H1417 C1427 0.930 . S
H1418 C1422 0.929 . S
H1419 C1428 0.929 . S
C1420 H1414 0.930 . S
C1420 C1421 1.367 1_655 S
C1420 C1428 1.378 . S
C1421 C1420 1.367 1_455 S
C1421 C1429 1.433 . S
C1422 H1418 0.929 . S
C1422 C1424 1.378 . S
C1422 C1426 1.350 . S
C1423 C1426 1.463 . S
C1423 C1428 1.350 1_455 S
C1423 N1431 1.427 . S
C1424 H1415 0.930 . S
C1424 C1422 1.378 . S
C1424 C1425 1.367 . S
C1425 C1424 1.367 . S
C1425 C1427 1.432 1_455 S
C1426 C1422 1.350 . S
C1426 C1423 1.463 . S
C1426 N1430 1.427 1_455 S
C1427 H1417 0.930 . S
C1427 C1425 1.432 1_655 S
C1427 N1430 1.384 . S
C1428 H1419 0.929 . S
C1428 C1420 1.378 . S
C1428 C1423 1.350 1_655 S
C1429 H1416 0.929 . S
C1429 C1421 1.433 . S
C1429 N1431 1.384 . S
N1430 C1426 1.427 1_655 S
N1430 C1427 1.384 . S
N1431 C1423 1.427 . S
N1431 C1429 1.384 . S
H1432 C1438 0.930 . S
H1433 C1442 0.930 . S
H1434 C1447 0.929 . S
H1435 C1445 0.929 . S
H1436 C1440 0.929 . S
H1437 C1446 0.929 . S
C1438 H1432 0.930 . S
C1438 C1439 1.367 . S
C1438 C1446 1.378 . S
C1439 C1438 1.367 . S
C1439 C1447 1.433 . S
C1440 H1436 0.929 . S
C1440 C1442 1.378 . S
C1440 C1444 1.350 . S
C1441 C1444 1.463 . S
C1441 C1446 1.350 . S
C1441 N1449 1.427 . S
C1442 H1433 0.930 . S
C1442 C1440 1.378 . S
C1442 C1443 1.367 . S
C1443 C1442 1.367 . S
C1443 C1445 1.433 . S
C1444 C1440 1.350 . S
C1444 C1441 1.463 . S
C1444 N1448 1.427 . S
C1445 H1435 0.929 . S
C1445 C1443 1.433 . S
C1445 N1448 1.384 . S
C1446 H1437 0.929 . S
C1446 C1438 1.378 . S
C1446 C1441 1.350 . S
C1447 H1434 0.929 . S
C1447 C1439 1.433 . S
C1447 N1449 1.384 . S
N1448 C1444 1.427 . S
N1448 C1445 1.384 . S
N1449 C1441 1.427 . S
N1449 C1447 1.384 . S
H1450 C1456 0.930 . S
H1451 C1460 0.930 . S
H1452 C1465 0.929 . S
H1453 C1463 0.929 . S
H1454 C1458 0.929 . S
H1455 C1464 0.929 . S
C1456 H1450 0.930 . S
C1456 C1457 1.367 . S
C1456 C1464 1.378 1_565 S
C1457 C1456 1.367 . S
C1457 C1465 1.433 . S
C1458 H1454 0.929 . S
C1458 C1460 1.378 1_565 S
C1458 C1462 1.350 1_565 S
C1459 C1462 1.463 1_565 S
C1459 C1464 1.350 1_565 S
C1459 N1467 1.427 . S
C1460 H1451 0.930 . S
C1460 C1458 1.378 1_545 S
C1460 C1461 1.367 . S
C1461 C1460 1.367 . S
C1461 C1463 1.433 . S
C1462 C1458 1.350 1_545 S
C1462 C1459 1.463 1_545 S
C1462 N1466 1.427 . S
C1463 H1453 0.929 . S
C1463 C1461 1.433 . S
C1463 N1466 1.384 . S
C1464 H1455 0.929 . S
C1464 C1456 1.378 1_545 S
C1464 C1459 1.350 1_545 S
C1465 H1452 0.929 . S
C1465 C1457 1.433 . S
C1465 N1467 1.384 . S
N1466 C1462 1.427 . S
N1466 C1463 1.384 . S
N1467 C1459 1.427 . S
N1467 C1465 1.384 . S
H1468 C1474 0.930 . S
H1469 C1478 0.930 . S
H1470 C1483 0.929 . S
H1471 C1481 0.929 1_655 S
H1472 C1476 0.929 . S
H1473 C1482 0.929 . S
C1474 H1468 0.930 . S
C1474 C1475 1.367 1_655 S
C1474 C1482 1.378 . S
C1475 C1474 1.367 1_455 S
C1475 C1483 1.433 . S
C1476 H1472 0.929 . S
C1476 C1478 1.378 . S
C1476 C1480 1.350 . S
C1477 C1480 1.463 . S
C1477 C1482 1.350 1_455 S
C1477 N1485 1.427 . S
C1478 H1469 0.930 . S
C1478 C1476 1.378 . S
C1478 C1479 1.367 . S
C1479 C1478 1.367 . S
C1479 C1481 1.433 . S
C1480 C1476 1.350 . S
C1480 C1477 1.463 . S
C1480 N1484 1.427 . S
C1481 H1471 0.929 1_455 S
C1481 C1479 1.433 . S
C1481 N1484 1.384 . S
C1482 H1473 0.929 . S
C1482 C1474 1.378 . S
C1482 C1477 1.350 1_655 S
C1483 H1470 0.929 . S
C1483 C1475 1.433 . S
C1483 N1485 1.384 . S
N1484 C1480 1.427 . S
N1484 C1481 1.384 . S
N1485 C1477 1.427 . S
N1485 C1483 1.384 . S
H1486 C1492 0.930 . S
H1487 C1496 0.930 . S
H1488 C1501 0.929 . S
H1489 C1499 0.929 . S
H1490 C1494 0.929 1_554 S
H1491 C1500 0.929 1_556 S
C1492 H1486 0.930 . S
C1492 C1493 1.367 . S
C1492 C1500 1.378 . S
C1493 C1492 1.367 . S
C1493 C1501 1.433 . S
C1494 H1490 0.929 1_556 S
C1494 C1496 1.378 . S
C1494 C1498 1.350 . S
C1495 C1498 1.463 1_554 S
C1495 C1500 1.350 . S
C1495 N1503 1.427 . S
C1496 H1487 0.930 . S
C1496 C1494 1.378 . S
C1496 C1497 1.367 . S
C1497 C1496 1.367 . S
C1497 C1499 1.433 . S
C1498 C1494 1.350 . S
C1498 C1495 1.463 1_556 S
C1498 N1502 1.427 . S
C1499 H1489 0.929 . S
C1499 C1497 1.433 . S
C1499 N1502 1.384 . S
C1500 H1491 0.929 1_554 S
C1500 C1492 1.378 . S
C1500 C1495 1.350 . S
C1501 H1488 0.929 . S
C1501 C1493 1.433 . S
C1501 N1503 1.384 . S
N1502 C1498 1.427 . S
N1502 C1499 1.384 . S
N1503 C1495 1.427 . S
N1503 C1501 1.384 . S
H1504 C1510 0.930 . S
H1505 C1514 0.930 . S
H1506 C1519 0.929 . S
H1507 C1517 0.929 . S
H1508 C1512 0.929 . S
H1509 C1518 0.929 . S
C1510 H1504 0.930 . S
C1510 C1511 1.367 . S
C1510 C1518 1.378 . S
C1511 C1510 1.367 . S
C1511 C1519 1.433 1_455 S
C1512 H1508 0.929 . S
C1512 C1514 1.378 . S
C1512 C1516 1.343 1_654 S
C1513 C1516 1.473 . S
C1513 C1518 1.350 . S
C1513 N1521 1.427 1_455 S
C1514 H1505 0.930 . S
C1514 C1512 1.378 . S
C1514 C1515 1.367 1_655 S
C1515 C1514 1.367 1_455 S
C1515 C1517 1.433 . S
C1516 C1512 1.343 1_456 S
C1516 C1513 1.473 . S
C1516 N1520 1.424 1_556 S
C1517 H1507 0.929 . S
C1517 C1515 1.433 . S
C1517 N1520 1.384 . S
C1518 H1509 0.929 . S
C1518 C1510 1.378 . S
C1518 C1513 1.350 . S
C1519 H1506 0.929 . S
C1519 C1511 1.433 1_655 S
C1519 N1521 1.384 . S
N1520 C1516 1.424 1_554 S
N1520 C1517 1.384 . S
N1521 C1513 1.427 1_655 S
N1521 C1519 1.384 . S
H1522 C1528 0.930 . S
H1523 C1532 0.930 . S
H1524 C1537 0.929 . S
H1525 C1535 0.929 . S
H1526 C1530 0.929 . S
H1527 C1536 0.929 . S
C1528 H1522 0.930 . S
C1528 C1529 1.367 . S
C1528 C1536 1.378 . S
C1529 C1528 1.367 . S
C1529 C1537 1.433 . S
C1530 H1526 0.929 . S
C1530 C1532 1.378 . S
C1530 C1534 1.350 . S
C1531 C1534 1.463 . S
C1531 C1536 1.350 . S
C1531 N1539 1.427 . S
C1532 H1523 0.930 . S
C1532 C1530 1.378 . S
C1532 C1533 1.367 . S
C1533 C1532 1.367 . S
C1533 C1535 1.433 . S
C1534 C1530 1.350 . S
C1534 C1531 1.463 . S
C1534 N1538 1.427 . S
C1535 H1525 0.929 . S
C1535 C1533 1.433 . S
C1535 N1538 1.384 . S
C1536 H1527 0.929 . S
C1536 C1528 1.378 . S
C1536 C1531 1.350 . S
C1537 H1524 0.929 . S
C1537 C1529 1.433 . S
C1537 N1539 1.384 . S
N1538 C1534 1.427 . S
N1538 C1535 1.384 . S
N1539 C1531 1.427 . S
N1539 C1537 1.384 . S
H1540 C1546 0.930 . S
H1541 C1550 0.930 . S
H1542 C1555 0.929 . S
H1543 C1553 0.929 . S
H1544 C1548 0.929 . S
H1545 C1554 0.929 . S
C1546 H1540 0.930 . S
C1546 C1547 1.367 . S
C1546 C1554 1.378 . S
C1547 C1546 1.367 . S
C1547 C1555 1.433 . S
C1548 H1544 0.929 . S
C1548 C1550 1.378 . S
C1548 C1552 1.350 . S
C1549 C1552 1.463 1_556 S
C1549 C1554 1.350 . S
C1549 N1557 1.427 . S
C1550 H1541 0.930 . S
C1550 C1548 1.378 . S
C1550 C1551 1.367 . S
C1551 C1550 1.367 . S
C1551 C1553 1.433 . S
C1552 C1548 1.350 . S
C1552 C1549 1.463 1_554 S
C1552 N1556 1.427 . S
C1553 H1543 0.929 . S
C1553 C1551 1.433 . S
C1553 N1556 1.384 . S
C1554 H1545 0.929 . S
C1554 C1546 1.378 . S
C1554 C1549 1.350 . S
C1555 H1542 0.929 . S
C1555 C1547 1.433 . S
C1555 N1557 1.384 . S
N1556 C1552 1.427 . S
N1556 C1553 1.384 . S
N1557 C1549 1.427 . S
N1557 C1555 1.384 . S
H1558 C1564 0.930 . S
H1559 C1568 0.930 . S
H1560 C1573 0.929 . S
H1561 C1571 0.929 . S
H1562 C1566 0.929 . S
H1563 C1572 0.929 . S
C1564 H1558 0.930 . S
C1564 C1565 1.367 . S
C1564 C1572 1.378 . S
C1565 C1564 1.367 . S
C1565 C1573 1.433 . S
C1566 H1562 0.929 . S
C1566 C1568 1.378 . S
C1566 C1570 1.350 . S
C1567 C1570 1.463 . S
C1567 C1572 1.350 . S
C1567 N1575 1.427 . S
C1568 H1559 0.930 . S
C1568 C1566 1.378 . S
C1568 C1569 1.367 . S
C1569 C1568 1.367 . S
C1569 C1571 1.433 . S
C1570 C1566 1.350 . S
C1570 C1567 1.463 . S
C1570 N1574 1.427 . S
C1571 H1561 0.929 . S
C1571 C1569 1.433 . S
C1571 N1574 1.384 . S
C1572 H1563 0.929 . S
C1572 C1564 1.378 . S
C1572 C1567 1.350 . S
C1573 H1560 0.929 . S
C1573 C1565 1.433 . S
C1573 N1575 1.384 . S
N1574 C1570 1.427 . S
N1574 C1571 1.384 . S
N1575 C1567 1.427 . S
N1575 C1573 1.384 . S
H1576 C1582 0.930 . S
H1577 C1586 0.930 . S
H1578 C1591 0.929 . S
H1579 C1589 0.929 . S
H1580 C1584 0.917 1_556 S
H1581 C1590 0.929 . S
C1582 H1576 0.930 . S
C1582 C1583 1.367 . S
C1582 C1590 1.378 . S
C1583 C1582 1.367 . S
C1583 C1591 1.433 . S
C1584 H1580 0.917 1_554 S
C1584 C1586 1.378 . S
C1584 C1588 1.342 1_554 S
C1585 C1588 1.487 . S
C1585 C1590 1.347 1_565 S
C1585 N1593 1.426 1_565 S
C1586 H1577 0.930 . S
C1586 C1584 1.378 . S
C1586 C1587 1.367 . S
C1587 C1586 1.367 . S
C1587 C1589 1.433 . S
C1588 C1584 1.342 1_556 S
C1588 C1585 1.487 . S
C1588 N1592 1.416 1_556 S
C1589 H1579 0.929 . S
C1589 C1587 1.433 . S
C1589 N1592 1.384 . S
C1590 H1581 0.929 . S
C1590 C1582 1.378 . S
C1590 C1585 1.347 1_545 S
C1591 H1578 0.929 . S
C1591 C1583 1.433 . S
C1591 N1593 1.384 . S
N1592 C1588 1.416 1_554 S
N1592 C1589 1.384 . S
N1593 C1585 1.426 1_545 S
N1593 C1591 1.384 . S
H1594 C1600 0.930 . S
H1595 C1604 0.930 . S
H1596 C1609 0.929 . S
H1597 C1607 0.929 . S
H1598 C1602 0.929 . S
H1599 C1608 0.929 . S
C1600 H1594 0.930 . S
C1600 C1601 1.367 . S
C1600 C1608 1.378 . S
C1601 C1600 1.367 . S
C1601 C1609 1.433 . S
C1602 H1598 0.929 . S
C1602 C1604 1.378 . S
C1602 C1606 1.350 . S
C1603 C1606 1.463 . S
C1603 C1608 1.350 . S
C1603 N1611 1.427 . S
C1604 H1595 0.930 . S
C1604 C1602 1.378 . S
C1604 C1605 1.367 . S
C1605 C1604 1.367 . S
C1605 C1607 1.433 . S
C1606 C1602 1.350 . S
C1606 C1603 1.463 . S
C1606 N1610 1.427 . S
C1607 H1597 0.929 . S
C1607 C1605 1.433 . S
C1607 N1610 1.384 . S
C1608 H1599 0.929 . S
C1608 C1600 1.378 . S
C1608 C1603 1.350 . S
C1609 H1596 0.929 . S
C1609 C1601 1.433 . S
C1609 N1611 1.384 . S
N1610 C1606 1.427 . S
N1610 C1607 1.384 . S
N1611 C1603 1.427 . S
N1611 C1609 1.384 . S
H1612 C1618 0.930 . S
H1613 C1622 0.930 . S
H1614 C1627 0.929 . S
H1615 C1625 0.929 . S
H1616 C1620 0.929 . S
H1617 C1626 0.929 . S
C1618 H1612 0.930 . S
C1618 C1619 1.367 . S
C1618 C1626 1.378 . S
C1619 C1618 1.367 . S
C1619 C1627 1.433 . S
C1620 H1616 0.929 . S
C1620 C1622 1.378 . S
C1620 C1624 1.350 . S
C1621 C1624 1.463 . S
C1621 C1626 1.350 . S
C1621 N1629 1.427 . S
C1622 H1613 0.930 . S
C1622 C1620 1.378 . S
C1622 C1623 1.367 . S
C1623 C1622 1.367 . S
C1623 C1625 1.433 . S
C1624 C1620 1.350 . S
C1624 C1621 1.463 . S
C1624 N1628 1.427 . S
C1625 H1615 0.929 . S
C1625 C1623 1.433 . S
C1625 N1628 1.384 . S
C1626 H1617 0.929 . S
C1626 C1618 1.378 . S
C1626 C1621 1.350 . S
C1627 H1614 0.929 . S
C1627 C1619 1.433 . S
C1627 N1629 1.384 . S
N1628 C1624 1.427 . S
N1628 C1625 1.384 . S
N1629 C1621 1.427 . S
N1629 C1627 1.384 . S
H1630 C1636 0.930 . S
H1631 C1640 0.930 . S
H1632 C1645 0.929 . S
H1633 C1643 0.929 . S
H1634 C1638 0.929 . S
H1635 C1644 0.929 . S
C1636 H1630 0.930 . S
C1636 C1637 1.367 . S
C1636 C1644 1.378 . S
C1637 C1636 1.367 . S
C1637 C1645 1.433 . S
C1638 H1634 0.929 . S
C1638 C1640 1.378 . S
C1638 C1642 1.350 . S
C1639 C1642 1.463 . S
C1639 C1644 1.350 . S
C1639 N1647 1.427 . S
C1640 H1631 0.930 . S
C1640 C1638 1.378 . S
C1640 C1641 1.367 . S
C1641 C1640 1.367 . S
C1641 C1643 1.433 . S
C1642 C1638 1.350 . S
C1642 C1639 1.463 . S
C1642 N1646 1.427 . S
C1643 H1633 0.929 . S
C1643 C1641 1.433 . S
C1643 N1646 1.384 . S
C1644 H1635 0.929 . S
C1644 C1636 1.378 . S
C1644 C1639 1.350 . S
C1645 H1632 0.929 . S
C1645 C1637 1.433 . S
C1645 N1647 1.384 . S
N1646 C1642 1.427 . S
N1646 C1643 1.384 . S
N1647 C1639 1.427 . S
N1647 C1645 1.384 . S
C503 C2 0.642 . S
C507 C374 0.654 . S
C521 C29 0.655 . S
C525 C401 0.643 . S
C539 C60 0.640 . S
C543 C405 0.651 . S
C557 C33 0.646 . S
C561 C432 0.633 . S
C575 C464 1.714 . S
C579 C81 1.697 . S
C593 C92 1.713 1_545 S
C597 C453 1.694 . S
C611 C93 1.694 1_545 S
C615 C475 1.712 . S
C629 C103 1.715 . S
C633 C465 1.697 . S
C647 C277 0.639 . S
C651 C126 0.625 . S
C665 C250 0.611 . S
C669 C153 0.618 . S
C683 C308 0.653 . S
C687 C184 0.640 . S
C701 C281 0.634 . S
C705 C157 0.643 . S
C719 C340 1.721 1_545 S
C723 C205 1.704 . S
C737 C216 1.720 . S
C741 C329 1.704 . S
C755 C351 1.717 . S
C759 C236 1.699 . S
C773 C247 1.717 . S
C777 C341 1.697 1_545 S
C791 C30 1.736 1_565 S
C795 C372 1.695 . S
C809 C19 1.706 . S
C813 C382 1.746 . S
C827 C41 1.736 . S
C831 C403 1.695 . S
C845 C413 1.749 . S
C849 C31 1.711 1_565 S
C863 C434 1.694 . S
C867 C72 1.728 1_545 S
C881 C444 1.732 . S
C885 C62 1.696 . S
C899 C484 1.703 . S
C903 C123 1.736 . S
C917 C495 1.728 . S
C921 C112 1.692 1_545 S
C935 C154 1.743 . S
C939 C267 1.705 . S
C953 C143 1.708 . S
C957 C278 1.747 1_565 S
C971 C165 1.741 . S
C975 C298 1.700 1_565 S
C989 C155 1.700 . S
C993 C309 1.740 . S
C1007 C310 1.700 . S
C1011 C196 1.735 . S
C1025 C320 1.729 1_545 S
C1029 C186 1.695 . S
C1043 C360 1.687 1_545 S
C1047 C227 1.723 . S
C1061 C217 1.702 . S
C1065 C371 1.735 . S
C1079 C10 1.608 . S
C1083 C299 1.641 . S
C1097 C289 1.609 . S
C1101 C20 1.642 . S
C1115 C268 1.650 . S
C1119 C61 1.621 . S
C1133 C258 1.613 . S
C1137 C32 1.645 . S
C1151 C361 1.762 . S
C1155 C64 1.771 . S
C1169 C63 1.756 . S
C1173 C370 1.767 . S
C1187 C122 1.770 . S
C1191 C311 1.759 . S
C1205 C113 1.764 . S
C1209 C312 1.773 . S
C1223 C404 1.650 . S
C1227 C134 1.621 . S
C1241 C144 1.650 . S
C1245 C433 1.621 . S
C1259 C185 1.617 . S
C1263 C373 1.646 . S
C1277 C402 1.620 . S
C1281 C156 1.649 . S
C1295 C485 1.759 . S
C1299 C188 1.768 . S
C1313 C494 1.766 . S
C1317 C187 1.756 . S
C1331 C435 1.757 . S
C1335 C219 1.768 . S
C1349 C436 1.772 . S
C1353 C218 1.762 . S
C1367 C454 1.282 . S
C1371 C1 1.268 . S
C1385 C91 1.742 1_455 S
C1389 C0 1.927 . S
C1403 C342 1.276 . S
C1407 C51 1.263 . S
C1421 C50 1.931 . S
C1425 C246 1.752 1_455 S
C1439 C392 1.263 . S
C1443 C82 1.277 . S
C1457 C94 1.273 . S
C1461 C280 1.261 . S
C1475 C174 1.931 . S
C1479 C95 1.751 1_455 S
C1493 C330 1.279 . S
C1497 C125 1.286 . S
C1511 C124 1.928 . S
C1515 C215 1.736 1_455 S
C1529 C175 1.283 . S
C1533 C466 1.287 . S
C1547 C249 1.271 . S
C1551 C206 1.262 . S
C1565 C423 1.267 . S
C1569 C237 1.262 . S
C1583 C248 1.937 . S
C1587 C339 1.757 . S
C1601 C279 1.930 . S
C1605 C467 1.749 . S
C1619 C422 1.932 . S
C1623 C343 1.739 . S
C1637 C463 1.740 . S
C1641 C391 1.927 . S
