# Generated by pormake.
# Topology sqp, (5)-cn, num edge types: 1
# Building blocks:
#     Node 0, Type 0, BuildingBlock: XOMCOT_clean_sbu_1, # of connection points: 5
#     Node 1, Type 0, BuildingBlock: XOMCOT_clean_sbu_1, # of connection points: 5
#     Node 2, Type 0, BuildingBlock: XOMCOT_clean_sbu_1, # of connection points: 5
#     Node 3, Type 0, BuildingBlock: XOMCOT_clean_sbu_1, # of connection points: 5
#     Edge 4, Type (0, 0), BuildingBlock: XIVTED_clean_linker_0, # of connection points: 2
#     Edge 5, Type (0, 0), BuildingBlock: XIVTED_clean_linker_0, # of connection points: 2
#     Edge 6, Type (0, 0), BuildingBlock: XIVTED_clean_linker_0, # of connection points: 2
#     Edge 7, Type (0, 0), BuildingBlock: XIVTED_clean_linker_0, # of connection points: 2
#     Edge 8, Type (0, 0), BuildingBlock: XIVTED_clean_linker_0, # of connection points: 2
#     Edge 9, Type (0, 0), BuildingBlock: XIVTED_clean_linker_0, # of connection points: 2
#     Edge 10, Type (0, 0), BuildingBlock: XIVTED_clean_linker_0, # of connection points: 2
#     Edge 11, Type (0, 0), BuildingBlock: XIVTED_clean_linker_0, # of connection points: 2
#     Edge 12, Type (0, 0), BuildingBlock: XIVTED_clean_linker_0, # of connection points: 2
#     Edge 13, Type (0, 0), BuildingBlock: XIVTED_clean_linker_0, # of connection points: 2
# Relax obj value: 0.083
# Max RMSD: 0.168
# Mean RMSD: 0.168
data_MOF--net-sqp--node1-XOMCOT_clean_sbu_1--edge1-XIVTED_clean_linker_0
_symmetry_space_group_name_H-M    P1
_symmetry_Int_Tables_number       1
_symmetry_cell_setting            triclinic
loop_
_symmetry_equiv_pos_as_xyz
'x, y, z'
_cell_length_a     24.620381
_cell_length_b     17.612282
_cell_length_c     49.61959
_cell_angle_alpha  90.035838
_cell_angle_beta   99.773251
_cell_angle_gamma 90.040265
loop_
_atom_site_label
_atom_site_type_symbol
_atom_site_fract_x
_atom_site_fract_y
_atom_site_fract_z
_atom_type_partial_charge
C0 C 0.99366 0.28863 0.29375 0.0
C1 C 0.94843 0.33503 0.28796 0.0
N2 N 0.90346 0.29142 0.28021 0.0
N3 N 0.97789 0.21572 0.28952 0.0
C4 C 0.92256 0.21911 0.28152 0.0
H5 H 0.03557 0.30723 0.30056 0.0
Co6 Co 0.02693 0.13377 0.29479 0.0
C7 C 0.96411 0.99739 0.2692 0.0
O8 O -0.00098 0.94975 0.28318 0.0
N9 N 0.0786 1.05299 0.30057 0.0
C10 C 0.14195 0.9701 0.31978 0.0
C11 C 0.10321 1.02234 0.32454 0.0
C12 C 0.10375 1.01855 0.2816 0.0
N13 N 0.14228 0.96778 0.29272 0.0
O14 O 0.05645 0.16479 0.26321 0.0
H15 H 0.09476 1.03734 0.3445 0.0
H16 H 0.09461 1.03155 0.26 0.0
O17 O 0.97132 1.06907 0.27246 0.0
C18 C 0.0993 0.20389 0.27222 0.0
O19 O 0.11444 0.21015 0.29884 0.0
N20 N 0.00207 0.11094 0.32719 0.0
C21 C 0.99341 1.08666 0.38174 0.0
C22 C 0.96218 1.04308 0.36087 0.0
C23 C 0.96689 1.05638 0.33351 0.0
C24 C 0.02944 0.15704 0.34695 0.0
C25 C 0.02625 0.14551 0.37428 0.0
H26 H 0.94341 1.02158 0.3179 0.0
H27 H 0.05694 0.20013 0.34152 0.0
H28 H 0.89672 0.16953 0.27712 0.0
H29 H 0.94909 0.39639 0.28885 0.0
H30 H 0.16788 0.93661 0.33512 0.0
H31 H 0.9352 0.99828 0.36563 0.0
H32 H 0.05188 0.18009 0.38942 0.0
C33 C 0.03458 0.21494 0.64565 0.0
C34 C 0.07793 0.26511 0.65215 0.0
N35 N 0.10713 0.24528 0.67663 0.0
N36 N 0.03643 0.16365 0.66594 0.0
C37 C 0.08058 0.1842 0.6846 0.0
H38 H 0.00465 0.21439 0.62698 0.0
Co39 Co 0.99095 1.07843 0.66695 0.0
C40 C 0.05631 0.98798 0.71079 0.0
O41 O 0.0132 0.97772 0.72276 0.0
N42 N 0.94616 0.99209 0.66818 0.0
C43 C 0.91785 0.87203 0.66674 0.0
C44 C 0.96059 0.91975 0.66381 0.0
C45 C 0.89422 0.98684 0.67351 0.0
N46 N 0.87599 0.91419 0.67292 0.0
O47 O 0.96569 0.11995 0.69824 0.0
H48 H 0.0002 0.9026 0.65921 0.0
H49 H 0.87028 1.03536 0.67784 0.0
O50 O 0.05186 1.02631 0.68877 0.0
C51 C 0.929 0.16826 0.68844 0.0
O52 O 0.91837 0.17708 0.66175 0.0
N53 N 0.011 1.04299 0.63482 0.0
C54 C 0.02789 1.01138 0.5821 0.0
C55 C 0.07289 1.0166 0.60359 0.0
C56 C 0.06346 1.03184 0.63013 0.0
C57 C 0.96714 1.03801 0.61411 0.0
C58 C 0.97455 1.02068 0.58771 0.0
H59 H 0.09814 1.03859 0.64653 0.0
H60 H 0.9261 1.04998 0.61803 0.0
H61 H 0.09334 0.15435 0.70366 0.0
H62 H 0.08824 0.31072 0.63931 0.0
H63 H 0.91852 0.81073 0.66539 0.0
H64 H 0.11472 1.01126 0.59973 0.0
H65 H 0.93902 1.01931 0.57149 0.0
C66 C 0.50682 0.73896 0.80352 0.0
C67 C 0.464 0.78951 0.79772 0.0
N68 N 0.42252 0.75495 0.78105 0.0
N69 N 0.49276 0.673 0.79032 0.0
C70 C 0.44082 0.68433 0.7769 0.0
H71 H 0.54581 0.7496 0.81665 0.0
Co72 Co 0.53981 0.58951 0.79213 0.0
C73 C 0.46595 0.45655 0.77465 0.0
O74 O 0.49678 0.41237 0.79223 0.0
N75 N 0.58994 0.50543 0.79458 0.0
C76 C 0.64408 0.40751 0.80997 0.0
C77 C 0.60362 0.45564 0.81546 0.0
C78 C 0.62351 0.48563 0.77672 0.0
N79 N 0.657 0.42659 0.78561 0.0
O80 O 0.55987 0.61997 0.75799 0.0
H81 H 0.58502 0.4525 0.83362 0.0
H82 H 0.6245 0.51502 0.75774 0.0
O83 O 0.47872 0.52664 0.77298 0.0
C84 C 0.59788 0.66956 0.76379 0.0
O85 O 0.61607 0.68499 0.78965 0.0
N86 N 0.52412 0.56886 0.82663 0.0
C87 C 0.51735 0.56546 0.88191 0.0
C88 C 0.47377 0.53743 0.86245 0.0
C89 C 0.4775 0.54106 0.83457 0.0
C90 C 0.56618 0.59695 0.84534 0.0
C91 C 0.56399 0.59501 0.87303 0.0
H92 H 0.44258 0.52392 0.81961 0.0
H93 H 0.6019 0.62109 0.83851 0.0
H94 H 0.41706 0.64243 0.76402 0.0
H95 H 0.46306 0.84688 0.80548 0.0
H96 H 0.66203 0.36154 0.82294 0.0
H97 H 0.43659 0.51586 0.86866 0.0
H98 H 0.59846 0.61712 0.8874 0.0
C99 C 0.50699 0.78231 0.1678 0.0
C100 C 0.55122 0.83008 0.17456 0.0
N101 N 0.59537 0.78868 0.18581 0.0
N102 N 0.52261 0.71066 0.17458 0.0
C103 C 0.57677 0.7161 0.18541 0.0
H104 H 0.46596 0.7988 0.15823 0.0
Co105 Co 0.47418 0.6286 0.16811 0.0
C106 C 0.53453 0.49157 0.19448 0.0
O107 O 0.49993 0.44506 0.17965 0.0
N108 N 0.42285 0.54794 0.161 0.0
C109 C 0.35845 0.46786 0.14066 0.0
C110 C 0.3995 0.51772 0.13671 0.0
C111 C 0.39503 0.51546 0.17927 0.0
N112 N 0.35542 0.46713 0.16747 0.0
O113 O 0.44115 0.65955 0.19874 0.0
H114 H 0.40967 0.53284 0.11708 0.0
H115 H 0.40334 0.52785 0.20093 0.0
O116 O 0.52825 0.56352 0.19153 0.0
C117 C 0.39685 0.69501 0.1892 0.0
O118 O 0.38364 0.70235 0.16252 0.0
N119 N 0.50253 0.60594 0.13657 0.0
C120 C 0.52276 0.58942 0.08346 0.0
C121 C 0.54844 0.54122 0.10429 0.0
C122 C 0.53833 0.55113 0.13103 0.0
C123 C 0.47838 0.65388 0.11658 0.0
C124 C 0.48804 0.6469 0.08996 0.0
H125 H 0.55872 0.51409 0.14677 0.0
H126 H 0.44969 0.69635 0.12124 0.0
H127 H 0.60189 0.66785 0.1929 0.0
H128 H 0.55062 0.89065 0.17099 0.0
H129 H 0.33118 0.43761 0.12483 0.0
H130 H 0.57595 0.49661 0.09993 0.0
H131 H 0.46691 0.68464 0.07439 0.0
H132 H 0.98962 0.94636 0.406 0.0
H133 H 0.08698 0.10786 0.55584 0.0
H134 H 0.00267 0.18596 0.42493 0.0
H135 H 0.98258 0.90998 0.54292 0.0
H136 H 0.07988 0.12118 0.5062 0.0
H137 H 0.00455 0.91879 0.45517 0.0
C138 C 0.99494 0.99321 0.42035 0.0
C139 C -0.00456 1.06871 0.41117 0.0
C140 C 0.05938 1.07407 0.5143 0.0
C141 C 0.01487 1.03701 0.46716 0.0
C142 C 0.06406 1.06586 0.54252 0.0
C143 C 0.03535 1.00776 0.55328 0.0
C144 C 0.02636 1.02324 0.49687 0.0
C145 C 0.00527 0.95549 0.53522 0.0
C146 C 0.00409 0.97723 0.44835 0.0
C147 C 0.00342 0.12683 0.43088 0.0
N148 N 0.00128 0.9646 0.50776 0.0
N149 N 0.01346 0.10971 0.45789 0.0
H150 H 0.5109 0.45963 0.05248 0.0
H151 H 0.53794 0.68672 0.91567 0.0
H152 H 0.54869 0.69817 0.04905 0.0
H153 H 0.49126 0.4506 0.91502 0.0
H154 H 0.54394 0.68923 0.96505 0.0
H155 H 0.50849 0.45101 0.00282 0.0
C156 C 0.51968 0.50973 0.04131 0.0
C157 C 0.5298 0.57978 0.0547 0.0
C158 C 0.53221 0.63672 0.95425 0.0
C159 C 0.52618 0.57082 -0.00175 0.0
C160 C 0.5287 0.63537 0.92604 0.0
C161 C 0.51445 0.56821 0.91138 0.0
C162 C 0.52147 0.57034 0.96809 0.0
C163 C 0.50218 0.50352 0.92569 0.0
C164 C 0.51772 0.50502 0.01301 0.0
C165 C 0.54027 0.64327 0.03939 0.0
N166 N 0.5063 0.50599 0.9534 0.0
N167 N 0.53793 0.63732 0.012 0.0
H168 H 0.16073 0.32912 0.28538 0.0
H169 H 0.29847 0.33753 0.15114 0.0
H170 H 0.11046 0.17348 0.21861 0.0
H171 H 0.31829 0.51143 0.21338 0.0
H172 H 0.23023 0.2746 0.1744 0.0
H173 H 0.21935 0.3944 0.2584 0.0
C174 C 0.16197 0.30872 0.26489 0.0
C175 C 0.13098 0.24546 0.25426 0.0
C176 C 0.24954 0.32665 0.18283 0.0
C177 C 0.1988 0.32027 0.22302 0.0
C178 C 0.28842 0.36261 0.16959 0.0
C179 C 0.31485 0.42935 0.18053 0.0
C180 C 0.23718 0.35776 0.20714 0.0
C181 C 0.30031 0.45918 0.20452 0.0
C182 C 0.19545 0.34631 0.2494 0.0
C183 C 0.13373 0.22221 0.22747 0.0
N184 N 0.26275 0.42309 0.21699 0.0
N185 N 0.16766 0.25929 0.21276 0.0
H186 H 0.8599 0.42833 0.29081 0.0
H187 H 0.56713 0.34304 0.19845 0.0
H188 H 0.81844 0.21571 0.24892 0.0
H189 H 0.61895 0.56698 0.22764 0.0
H190 H 0.65457 0.29202 0.22172 0.0
H191 H 0.76824 0.47597 0.27242 0.0
C192 C 0.83176 0.39147 0.27773 0.0
C193 C 0.84767 0.3179 0.2712 0.0
C194 C 0.64681 0.35228 0.22314 0.0
C195 C 0.74166 0.37233 0.25033 0.0
C196 C 0.59669 0.38163 0.2099 0.0
C197 C 0.58566 0.45982 0.21079 0.0
C198 C 0.68645 0.40118 0.23757 0.0
C199 C 0.62574 0.50657 0.22611 0.0
C200 C 0.77915 0.41881 0.26733 0.0
C201 C 0.80836 0.27253 0.25467 0.0
N202 N 0.67441 0.47659 0.23879 0.0
N203 N 0.75739 0.3006 0.24474 0.0
H204 H 0.69125 0.70761 0.19846 0.0
H205 H 0.87571 1.07721 0.24161 0.0
H206 H 0.62622 0.93573 0.19733 0.0
H207 H 0.93338 0.84872 0.26033 0.0
H208 H 0.78685 1.02587 0.21976 0.0
H209 H 0.78271 0.75795 0.21641 0.0
C210 C 0.69578 0.76806 0.20194 0.0
C211 C 0.65021 0.8171 0.1962 0.0
C212 C 0.81903 0.98697 0.2286 0.0
C213 C 0.75557 0.87528 0.21646 0.0
C214 C 0.86987 1.01631 0.24109 0.0
C215 C 0.91196 0.96742 0.25328 0.0
C216 C 0.81024 0.90805 0.22802 0.0
C217 C 0.90207 0.88876 0.25147 0.0
C218 C 0.74828 0.79682 0.21211 0.0
C219 C 0.65957 0.89526 0.20094 0.0
N220 N 0.85224 0.86158 0.23921 0.0
N221 N 0.71098 0.9217 0.21074 0.0
H222 H 0.12125 0.91952 0.24008 0.0
H223 H 0.41544 0.71875 0.2452 0.0
H224 H 0.24405 0.91181 0.31327 0.0
H225 H 0.29207 0.74292 0.17273 0.0
H226 H 0.35199 0.78024 0.27191 0.0
H227 H 0.18235 0.84656 0.2162 0.0
C228 C 0.16117 0.90278 0.25113 0.0
C229 C 0.17757 0.92247 0.27868 0.0
C230 C 0.33894 0.77162 0.25017 0.0
C231 C 0.24803 0.83786 0.25146 0.0
C232 C 0.37502 0.7364 0.23499 0.0
C233 C 0.35926 0.72642 0.20668 0.0
C234 C 0.28686 0.79637 0.23687 0.0
C235 C 0.3064 0.75021 0.19444 0.0
C236 C 0.19605 0.8606 0.23752 0.0
C237 C 0.22948 0.89754 0.29208 0.0
N238 N 0.27237 0.78414 0.20954 0.0
N239 N 0.263 0.85686 0.27831 0.0
H240 H 0.40265 0.89914 0.76388 0.0
H241 H 0.07642 0.86594 0.74539 0.0
H242 H 0.32273 0.6855 0.77354 0.0
H243 H 0.15803 1.0295 0.70124 0.0
H244 H 0.16609 0.8066 0.76215 0.0
H245 H 0.3126 0.95595 0.74687 0.0
C246 C 0.366 0.86434 0.76243 0.0
C247 C 0.36991 0.78767 0.77008 0.0
C248 C 0.16414 0.85547 0.74878 0.0
C249 C 0.26695 0.85222 0.75097 0.0
C250 C 0.11318 0.88961 0.73938 0.0
C251 C 0.10985 0.95273 0.72193 0.0
C252 C 0.21204 0.88573 0.74111 0.0
C253 C 0.1587 0.98082 0.71461 0.0
C254 C 0.31477 0.89658 0.75263 0.0
C255 C 0.3213 0.74468 0.76761 0.0
N256 N 0.2078 0.94747 0.72438 0.0
N257 N 0.27161 0.77774 0.75849 0.0
H258 H 0.14536 0.38911 0.67147 0.0
H259 H 0.42525 0.31281 0.77649 0.0
H260 H 0.18701 0.17661 0.71313 0.0
H261 H 0.38716 0.52925 0.73703 0.0
H262 H 0.33836 0.2627 0.75246 0.0
H263 H 0.23336 0.44197 0.69433 0.0
C264 C 0.17289 0.35345 0.68534 0.0
C265 C 0.15832 0.27818 0.69038 0.0
C266 C 0.34882 0.32119 0.74898 0.0
C267 C 0.25924 0.3386 0.71673 0.0
C268 C 0.3987 0.35001 0.76271 0.0
C269 C 0.41372 0.42573 0.75896 0.0
C270 C 0.31316 0.36813 0.7312 0.0
C271 C 0.37729 0.47074 0.74073 0.0
C272 C 0.22309 0.38383 0.69847 0.0
C273 C 0.19567 0.23513 0.70884 0.0
N274 N 0.32867 0.44132 0.72757 0.0
N275 N 0.24418 0.26586 0.72123 0.0
H276 H 0.92 0.14704 0.74283 0.0
H277 H 0.66685 0.43623 0.73184 0.0
H278 H 0.86038 0.28555 0.67225 0.0
H279 H 0.74318 0.33717 0.80864 0.0
H280 H 0.73703 0.37749 0.70984 0.0
H281 H 0.85558 0.21287 0.76786 0.0
C282 C 0.89389 0.19163 0.73273 0.0
C283 C 0.89525 0.2104 0.70538 0.0
C284 C 0.73856 0.36872 0.73155 0.0
C285 C 0.82155 0.28495 0.73356 0.0
C286 C 0.6984 0.40267 0.74422 0.0
C287 C 0.69862 0.392 0.77226 0.0
C288 C 0.77933 0.32307 0.74688 0.0
C289 C 0.74053 0.34639 0.78693 0.0
C290 C 0.85708 0.22896 0.74694 0.0
C291 C 0.86043 0.26847 0.69321 0.0
N292 N 0.77905 0.31343 0.77406 0.0
N293 N 0.82494 0.30316 0.70729 0.0
H294 H 0.62749 0.61438 0.71626 0.0
H295 H 0.80926 0.98535 0.70348 0.0
H296 H 0.62686 0.81681 0.76507 0.0
H297 H 0.82572 0.77837 0.65889 0.0
H298 H 0.72944 0.93152 0.7194 0.0
H299 H 0.68698 0.68011 0.68841 0.0
C300 C 0.63865 0.67318 0.72059 0.0
C301 C 0.62281 0.71028 0.74302 0.0
C302 C 0.7502 0.89796 0.70594 0.0
C303 C 0.69074 0.78514 0.71175 0.0
C304 C 0.7958 0.929 0.69667 0.0
C305 C 0.82512 0.88611 0.68009 0.0
C306 C 0.73365 0.82317 0.69878 0.0
C307 C 0.80541 0.81296 0.67218 0.0
C308 C 0.6729 0.71046 0.70491 0.0
C309 C 0.63877 0.78607 0.74808 0.0
N310 N 0.76132 0.7835 0.68182 0.0
N311 N 0.67212 0.82071 0.73276 0.0
loop_
_geom_bond_atom_site_label_1
_geom_bond_atom_site_label_2
_geom_bond_distance
_geom_bond_site_symmetry_2
_ccdc_geom_bond_type
C0 C1 1.351 . S
C0 N3 1.368 . S
C0 H5 0.931 1_655 S
C1 C0 1.351 . S
C1 N2 1.373 . S
C1 H29 0.930 . S
N2 C1 1.373 . S
N2 C4 1.340 . S
N3 C0 1.368 . S
N3 C4 1.321 . S
N3 Co6 2.135 1_655 S
C4 N2 1.340 . S
C4 N3 1.321 . S
C4 H28 0.930 . S
H5 C0 0.931 1_455 S
Co6 N3 2.135 1_455 S
Co6 N9 2.121 1_545 S
Co6 O14 2.055 . S
Co6 O17 2.039 1_445 S
Co6 N20 2.140 . S
C7 O8 1.227 . S
C7 O17 1.265 . S
O8 C7 1.227 . S
N9 Co6 2.121 1_565 S
N9 C11 1.375 . S
N9 C12 1.313 . S
C10 C11 1.338 . S
C10 N13 1.377 . S
C10 H30 0.930 . S
C11 N9 1.375 . S
C11 C10 1.338 . S
C11 H15 0.931 . S
C12 N9 1.313 . S
C12 N13 1.344 . S
C12 H16 0.930 . S
N13 C10 1.377 . S
N13 C12 1.344 . S
O14 Co6 2.055 . S
O14 C18 1.253 . S
H15 C11 0.931 . S
H16 C12 0.930 . S
O17 Co6 2.039 1_665 S
O17 C7 1.265 . S
C18 O14 1.253 . S
C18 O19 1.227 . S
O19 C18 1.227 . S
N20 Co6 2.140 . S
N20 C23 1.346 1_455 S
N20 C24 1.345 1_545 S
C21 C22 1.387 1_465 S
C21 C25 1.391 . S
C22 C21 1.387 1_645 S
C22 C23 1.369 . S
C22 H31 0.929 . S
C23 N20 1.346 1_655 S
C23 C22 1.369 . S
C23 H26 0.928 . S
C24 N20 1.345 1_565 S
C24 C25 1.371 . S
C24 H27 0.931 . S
C25 C21 1.391 . S
C25 C24 1.371 . S
C25 H32 0.930 . S
H26 C23 0.928 . S
H27 C24 0.931 . S
H28 C4 0.930 . S
H29 C1 0.930 . S
H30 C10 0.930 . S
H31 C22 0.929 . S
H32 C25 0.930 . S
C33 C34 1.351 . S
C33 N36 1.368 . S
C33 H38 0.931 . S
C34 C33 1.351 . S
C34 N35 1.373 . S
C34 H62 0.930 . S
N35 C34 1.373 . S
N35 C37 1.340 . S
N36 C33 1.368 . S
N36 C37 1.321 . S
N36 Co39 2.135 . S
C37 N35 1.340 . S
C37 N36 1.321 . S
C37 H61 0.930 . S
H38 C33 0.931 . S
Co39 N36 2.135 . S
Co39 N42 2.121 1_445 S
Co39 O47 2.055 1_455 S
Co39 O50 2.039 1_545 S
Co39 N53 2.140 . S
C40 O41 1.227 . S
C40 O50 1.265 . S
O41 C40 1.227 . S
N42 Co39 2.121 1_665 S
N42 C44 1.375 . S
N42 C45 1.313 . S
C43 C44 1.338 . S
C43 N46 1.377 . S
C43 H63 0.930 . S
C44 N42 1.375 . S
C44 C43 1.338 . S
C44 H48 0.931 1_655 S
C45 N42 1.313 . S
C45 N46 1.344 . S
C45 H49 0.930 . S
N46 C43 1.377 . S
N46 C45 1.344 . S
O47 Co39 2.055 1_655 S
O47 C51 1.253 . S
H48 C44 0.931 1_455 S
H49 C45 0.930 . S
O50 Co39 2.039 1_565 S
O50 C40 1.265 . S
C51 O47 1.253 . S
C51 O52 1.227 . S
O52 C51 1.227 . S
N53 Co39 2.140 . S
N53 C56 1.346 . S
N53 C57 1.345 1_445 S
C54 C55 1.387 1_565 S
C54 C58 1.391 1_455 S
C55 C54 1.387 1_545 S
C55 C56 1.369 . S
C55 H64 0.929 . S
C56 N53 1.346 . S
C56 C55 1.369 . S
C56 H59 0.928 . S
C57 N53 1.345 1_665 S
C57 C58 1.371 . S
C57 H60 0.931 . S
C58 C54 1.391 1_655 S
C58 C57 1.371 . S
C58 H65 0.930 . S
H59 C56 0.928 . S
H60 C57 0.931 . S
H61 C37 0.930 . S
H62 C34 0.930 . S
H63 C43 0.930 . S
H64 C55 0.929 . S
H65 C58 0.930 . S
C66 C67 1.351 . S
C66 N69 1.368 . S
C66 H71 0.931 . S
C67 C66 1.351 . S
C67 N68 1.373 . S
C67 H95 0.930 . S
N68 C67 1.373 . S
N68 C70 1.340 . S
N69 C66 1.368 . S
N69 C70 1.321 . S
N69 Co72 2.135 . S
C70 N68 1.340 . S
C70 N69 1.321 . S
C70 H94 0.930 . S
H71 C66 0.931 . S
Co72 N69 2.135 . S
Co72 N75 2.121 . S
Co72 O80 2.055 . S
Co72 O83 2.039 . S
Co72 N86 2.140 . S
C73 O74 1.227 . S
C73 O83 1.265 . S
O74 C73 1.227 . S
N75 Co72 2.121 . S
N75 C77 1.375 . S
N75 C78 1.313 . S
C76 C77 1.338 . S
C76 N79 1.377 . S
C76 H96 0.930 . S
C77 N75 1.375 . S
C77 C76 1.338 . S
C77 H81 0.931 . S
C78 N75 1.313 . S
C78 N79 1.344 . S
C78 H82 0.930 . S
N79 C76 1.377 . S
N79 C78 1.344 . S
O80 Co72 2.055 . S
O80 C84 1.253 . S
H81 C77 0.931 . S
H82 C78 0.930 . S
O83 Co72 2.039 . S
O83 C73 1.265 . S
C84 O80 1.253 . S
C84 O85 1.227 . S
O85 C84 1.227 . S
N86 Co72 2.140 . S
N86 C89 1.346 . S
N86 C90 1.345 . S
C87 C88 1.387 . S
C87 C91 1.391 . S
C88 C87 1.387 . S
C88 C89 1.369 . S
C88 H97 0.929 . S
C89 N86 1.346 . S
C89 C88 1.369 . S
C89 H92 0.928 . S
C90 N86 1.345 . S
C90 C91 1.371 . S
C90 H93 0.931 . S
C91 C87 1.391 . S
C91 C90 1.371 . S
C91 H98 0.930 . S
H92 C89 0.928 . S
H93 C90 0.931 . S
H94 C70 0.930 . S
H95 C67 0.930 . S
H96 C76 0.930 . S
H97 C88 0.929 . S
H98 C91 0.930 . S
C99 C100 1.351 . S
C99 N102 1.368 . S
C99 H104 0.931 . S
C100 C99 1.351 . S
C100 N101 1.373 . S
C100 H128 0.930 . S
N101 C100 1.373 . S
N101 C103 1.340 . S
N102 C99 1.368 . S
N102 C103 1.321 . S
N102 Co105 2.135 . S
C103 N101 1.340 . S
C103 N102 1.321 . S
C103 H127 0.930 . S
H104 C99 0.931 . S
Co105 N102 2.135 . S
Co105 N108 2.121 . S
Co105 O113 2.055 . S
Co105 O116 2.039 . S
Co105 N119 2.140 . S
C106 O107 1.227 . S
C106 O116 1.265 . S
O107 C106 1.227 . S
N108 Co105 2.121 . S
N108 C110 1.375 . S
N108 C111 1.313 . S
C109 C110 1.338 . S
C109 N112 1.377 . S
C109 H129 0.930 . S
C110 N108 1.375 . S
C110 C109 1.338 . S
C110 H114 0.931 . S
C111 N108 1.313 . S
C111 N112 1.344 . S
C111 H115 0.930 . S
N112 C109 1.377 . S
N112 C111 1.344 . S
O113 Co105 2.055 . S
O113 C117 1.253 . S
H114 C110 0.931 . S
H115 C111 0.930 . S
O116 Co105 2.039 . S
O116 C106 1.265 . S
C117 O113 1.253 . S
C117 O118 1.227 . S
O118 C117 1.227 . S
N119 Co105 2.140 . S
N119 C122 1.346 . S
N119 C123 1.345 . S
C120 C121 1.387 . S
C120 C124 1.391 . S
C121 C120 1.387 . S
C121 C122 1.369 . S
C121 H130 0.929 . S
C122 N119 1.346 . S
C122 C121 1.369 . S
C122 H125 0.928 . S
C123 N119 1.345 . S
C123 C124 1.371 . S
C123 H126 0.931 . S
C124 C120 1.391 . S
C124 C123 1.371 . S
C124 H131 0.930 . S
H125 C122 0.928 . S
H126 C123 0.931 . S
H127 C103 0.930 . S
H128 C100 0.930 . S
H129 C109 0.930 . S
H130 C121 0.929 . S
H131 C124 0.930 . S
H132 C138 0.930 . S
H133 C142 0.930 . S
H134 C147 0.929 . S
H135 C145 0.929 . S
H136 C140 0.929 . S
H137 C146 0.929 . S
C138 H132 0.930 . S
C138 C139 1.367 1_655 S
C138 C146 1.378 . S
C139 C138 1.367 1_455 S
C139 C147 1.433 1_565 S
C140 H136 0.929 . S
C140 C142 1.378 . S
C140 C144 1.349 . S
C141 C144 1.463 1_565 S
C141 C146 1.350 1_455 S
C141 N149 1.427 1_565 S
C142 H133 0.930 . S
C142 C140 1.378 . S
C142 C143 1.360 1_545 S
C143 C142 1.360 1_565 S
C143 C145 1.440 1_455 S
C144 C140 1.349 . S
C144 C141 1.463 1_545 S
C144 N148 1.428 1_445 S
C145 H135 0.929 . S
C145 C143 1.440 1_655 S
C145 N148 1.384 . S
C146 H137 0.929 . S
C146 C138 1.378 . S
C146 C141 1.350 1_655 S
C147 H134 0.929 . S
C147 C139 1.433 1_545 S
C147 N149 1.384 . S
N148 C144 1.428 1_665 S
N148 C145 1.384 . S
N149 C141 1.427 1_545 S
N149 C147 1.384 . S
H150 C156 0.930 . S
H151 C160 0.930 . S
H152 C165 0.929 . S
H153 C163 0.929 . S
H154 C158 0.929 . S
H155 C164 0.929 . S
C156 H150 0.930 . S
C156 C157 1.367 . S
C156 C164 1.378 . S
C157 C156 1.367 . S
C157 C165 1.433 . S
C158 H154 0.929 . S
C158 C160 1.378 . S
C158 C162 1.350 . S
C159 C162 1.463 1_554 S
C159 C164 1.350 . S
C159 N167 1.427 . S
C160 H151 0.930 . S
C160 C158 1.378 . S
C160 C161 1.367 . S
C161 C160 1.367 . S
C161 C163 1.433 . S
C162 C158 1.350 . S
C162 C159 1.463 1_556 S
C162 N166 1.427 . S
C163 H153 0.929 . S
C163 C161 1.433 . S
C163 N166 1.384 . S
C164 H155 0.929 . S
C164 C156 1.378 . S
C164 C159 1.350 . S
C165 H152 0.929 . S
C165 C157 1.433 . S
C165 N167 1.384 . S
N166 C162 1.427 . S
N166 C163 1.384 . S
N167 C159 1.427 . S
N167 C165 1.384 . S
H168 C174 0.930 . S
H169 C178 0.930 . S
H170 C183 0.929 . S
H171 C181 0.929 . S
H172 C176 0.929 . S
H173 C182 0.929 . S
C174 H168 0.930 . S
C174 C175 1.367 . S
C174 C182 1.378 . S
C175 C174 1.367 . S
C175 C183 1.433 . S
C176 H172 0.929 . S
C176 C178 1.378 . S
C176 C180 1.350 . S
C177 C180 1.463 . S
C177 C182 1.350 . S
C177 N185 1.427 . S
C178 H169 0.930 . S
C178 C176 1.378 . S
C178 C179 1.367 . S
C179 C178 1.367 . S
C179 C181 1.433 . S
C180 C176 1.350 . S
C180 C177 1.463 . S
C180 N184 1.427 . S
C181 H171 0.929 . S
C181 C179 1.433 . S
C181 N184 1.384 . S
C182 H173 0.929 . S
C182 C174 1.378 . S
C182 C177 1.350 . S
C183 H170 0.929 . S
C183 C175 1.433 . S
C183 N185 1.384 . S
N184 C180 1.427 . S
N184 C181 1.384 . S
N185 C177 1.427 . S
N185 C183 1.384 . S
H186 C192 0.930 . S
H187 C196 0.930 . S
H188 C201 0.929 . S
H189 C199 0.929 . S
H190 C194 0.929 . S
H191 C200 0.929 . S
C192 H186 0.930 . S
C192 C193 1.367 . S
C192 C200 1.378 . S
C193 C192 1.367 . S
C193 C201 1.433 . S
C194 H190 0.929 . S
C194 C196 1.378 . S
C194 C198 1.350 . S
C195 C198 1.463 . S
C195 C200 1.350 . S
C195 N203 1.427 . S
C196 H187 0.930 . S
C196 C194 1.378 . S
C196 C197 1.367 . S
C197 C196 1.367 . S
C197 C199 1.433 . S
C198 C194 1.350 . S
C198 C195 1.463 . S
C198 N202 1.427 . S
C199 H189 0.929 . S
C199 C197 1.433 . S
C199 N202 1.384 . S
C200 H191 0.929 . S
C200 C192 1.378 . S
C200 C195 1.350 . S
C201 H188 0.929 . S
C201 C193 1.433 . S
C201 N203 1.384 . S
N202 C198 1.427 . S
N202 C199 1.384 . S
N203 C195 1.427 . S
N203 C201 1.384 . S
H204 C210 0.930 . S
H205 C214 0.930 . S
H206 C219 0.929 . S
H207 C217 0.929 . S
H208 C212 0.929 . S
H209 C218 0.929 . S
C210 H204 0.930 . S
C210 C211 1.367 . S
C210 C218 1.378 . S
C211 C210 1.367 . S
C211 C219 1.433 . S
C212 H208 0.929 . S
C212 C214 1.378 . S
C212 C216 1.350 . S
C213 C216 1.463 . S
C213 C218 1.350 . S
C213 N221 1.427 . S
C214 H205 0.930 . S
C214 C212 1.378 . S
C214 C215 1.367 . S
C215 C214 1.367 . S
C215 C217 1.433 . S
C216 C212 1.350 . S
C216 C213 1.463 . S
C216 N220 1.427 . S
C217 H207 0.929 . S
C217 C215 1.433 . S
C217 N220 1.384 . S
C218 H209 0.929 . S
C218 C210 1.378 . S
C218 C213 1.350 . S
C219 H206 0.929 . S
C219 C211 1.433 . S
C219 N221 1.384 . S
N220 C216 1.427 . S
N220 C217 1.384 . S
N221 C213 1.427 . S
N221 C219 1.384 . S
H222 C228 0.930 . S
H223 C232 0.930 . S
H224 C237 0.929 . S
H225 C235 0.929 . S
H226 C230 0.929 . S
H227 C236 0.929 . S
C228 H222 0.930 . S
C228 C229 1.367 . S
C228 C236 1.378 . S
C229 C228 1.367 . S
C229 C237 1.433 . S
C230 H226 0.929 . S
C230 C232 1.378 . S
C230 C234 1.350 . S
C231 C234 1.463 . S
C231 C236 1.350 . S
C231 N239 1.427 . S
C232 H223 0.930 . S
C232 C230 1.378 . S
C232 C233 1.367 . S
C233 C232 1.367 . S
C233 C235 1.433 . S
C234 C230 1.350 . S
C234 C231 1.463 . S
C234 N238 1.427 . S
C235 H225 0.929 . S
C235 C233 1.433 . S
C235 N238 1.384 . S
C236 H227 0.929 . S
C236 C228 1.378 . S
C236 C231 1.350 . S
C237 H224 0.929 . S
C237 C229 1.433 . S
C237 N239 1.384 . S
N238 C234 1.427 . S
N238 C235 1.384 . S
N239 C231 1.427 . S
N239 C237 1.384 . S
H240 C246 0.930 . S
H241 C250 0.930 . S
H242 C255 0.929 . S
H243 C253 0.929 . S
H244 C248 0.929 . S
H245 C254 0.929 . S
C246 H240 0.930 . S
C246 C247 1.367 . S
C246 C254 1.378 . S
C247 C246 1.367 . S
C247 C255 1.433 . S
C248 H244 0.929 . S
C248 C250 1.378 . S
C248 C252 1.350 . S
C249 C252 1.463 . S
C249 C254 1.350 . S
C249 N257 1.427 . S
C250 H241 0.930 . S
C250 C248 1.378 . S
C250 C251 1.367 . S
C251 C250 1.367 . S
C251 C253 1.433 . S
C252 C248 1.350 . S
C252 C249 1.463 . S
C252 N256 1.427 . S
C253 H243 0.929 . S
C253 C251 1.433 . S
C253 N256 1.384 . S
C254 H245 0.929 . S
C254 C246 1.378 . S
C254 C249 1.350 . S
C255 H242 0.929 . S
C255 C247 1.433 . S
C255 N257 1.384 . S
N256 C252 1.427 . S
N256 C253 1.384 . S
N257 C249 1.427 . S
N257 C255 1.384 . S
H258 C264 0.930 . S
H259 C268 0.930 . S
H260 C273 0.929 . S
H261 C271 0.929 . S
H262 C266 0.929 . S
H263 C272 0.929 . S
C264 H258 0.930 . S
C264 C265 1.367 . S
C264 C272 1.378 . S
C265 C264 1.367 . S
C265 C273 1.433 . S
C266 H262 0.929 . S
C266 C268 1.378 . S
C266 C270 1.350 . S
C267 C270 1.463 . S
C267 C272 1.350 . S
C267 N275 1.427 . S
C268 H259 0.930 . S
C268 C266 1.378 . S
C268 C269 1.367 . S
C269 C268 1.367 . S
C269 C271 1.433 . S
C270 C266 1.350 . S
C270 C267 1.463 . S
C270 N274 1.427 . S
C271 H261 0.929 . S
C271 C269 1.433 . S
C271 N274 1.384 . S
C272 H263 0.929 . S
C272 C264 1.378 . S
C272 C267 1.350 . S
C273 H260 0.929 . S
C273 C265 1.433 . S
C273 N275 1.384 . S
N274 C270 1.427 . S
N274 C271 1.384 . S
N275 C267 1.427 . S
N275 C273 1.384 . S
H276 C282 0.930 . S
H277 C286 0.930 . S
H278 C291 0.929 . S
H279 C289 0.929 . S
H280 C284 0.929 . S
H281 C290 0.929 . S
C282 H276 0.930 . S
C282 C283 1.367 . S
C282 C290 1.378 . S
C283 C282 1.367 . S
C283 C291 1.433 . S
C284 H280 0.929 . S
C284 C286 1.378 . S
C284 C288 1.350 . S
C285 C288 1.463 . S
C285 C290 1.350 . S
C285 N293 1.427 . S
C286 H277 0.930 . S
C286 C284 1.378 . S
C286 C287 1.367 . S
C287 C286 1.367 . S
C287 C289 1.433 . S
C288 C284 1.350 . S
C288 C285 1.463 . S
C288 N292 1.427 . S
C289 H279 0.929 . S
C289 C287 1.433 . S
C289 N292 1.384 . S
C290 H281 0.929 . S
C290 C282 1.378 . S
C290 C285 1.350 . S
C291 H278 0.929 . S
C291 C283 1.433 . S
C291 N293 1.384 . S
N292 C288 1.427 . S
N292 C289 1.384 . S
N293 C285 1.427 . S
N293 C291 1.384 . S
H294 C300 0.930 . S
H295 C304 0.930 . S
H296 C309 0.929 . S
H297 C307 0.929 . S
H298 C302 0.929 . S
H299 C308 0.929 . S
C300 H294 0.930 . S
C300 C301 1.367 . S
C300 C308 1.378 . S
C301 C300 1.367 . S
C301 C309 1.433 . S
C302 H298 0.929 . S
C302 C304 1.378 . S
C302 C306 1.350 . S
C303 C306 1.463 . S
C303 C308 1.350 . S
C303 N311 1.427 . S
C304 H295 0.930 . S
C304 C302 1.378 . S
C304 C305 1.367 . S
C305 C304 1.367 . S
C305 C307 1.433 . S
C306 C302 1.350 . S
C306 C303 1.463 . S
C306 N310 1.427 . S
C307 H297 0.929 . S
C307 C305 1.433 . S
C307 N310 1.384 . S
C308 H299 0.929 . S
C308 C300 1.378 . S
C308 C303 1.350 . S
C309 H296 0.929 . S
C309 C301 1.433 . S
C309 N311 1.384 . S
N310 C306 1.427 . S
N310 C307 1.384 . S
N311 C303 1.427 . S
N311 C309 1.384 . S
C139 C21 1.493 . S
C143 C54 1.493 . S
C157 C120 1.493 . S
C161 C87 1.493 . S
C175 C18 1.531 . S
C179 N112 1.490 . S
C193 N2 1.392 . S
C197 C106 1.431 . S
C211 N101 1.387 . S
C215 C7 1.438 . S
C229 N13 1.484 . S
C233 C117 1.536 . S
C247 N68 1.392 . S
C251 C40 1.434 . S
C265 N35 1.387 . S
C269 C73 1.434 . S
C283 C51 1.534 . S
C287 N79 1.493 . S
C301 C84 1.534 . S
C305 N46 1.495 . S
