# Generated by pormake.
# Topology sog, (5)-cn, num edge types: 1
# Building blocks:
#     Node 0, Type 0, BuildingBlock: XOMCOT_clean_sbu_0, # of connection points: 5
#     Node 1, Type 0, BuildingBlock: XOMCOT_clean_sbu_0, # of connection points: 5
#     Node 2, Type 0, BuildingBlock: XOMCOT_clean_sbu_0, # of connection points: 5
#     Node 3, Type 0, BuildingBlock: XOMCOT_clean_sbu_0, # of connection points: 5
#     Node 4, Type 0, BuildingBlock: XOMCOT_clean_sbu_0, # of connection points: 5
#     Node 5, Type 0, BuildingBlock: XOMCOT_clean_sbu_0, # of connection points: 5
#     Node 6, Type 0, BuildingBlock: XOMCOT_clean_sbu_0, # of connection points: 5
#     Node 7, Type 0, BuildingBlock: XOMCOT_clean_sbu_0, # of connection points: 5
#     Node 8, Type 0, BuildingBlock: XOMCOT_clean_sbu_0, # of connection points: 5
#     Node 9, Type 0, BuildingBlock: XOMCOT_clean_sbu_0, # of connection points: 5
#     Node 10, Type 0, BuildingBlock: XOMCOT_clean_sbu_0, # of connection points: 5
#     Node 11, Type 0, BuildingBlock: XOMCOT_clean_sbu_0, # of connection points: 5
#     Node 12, Type 0, BuildingBlock: XOMCOT_clean_sbu_0, # of connection points: 5
#     Node 13, Type 0, BuildingBlock: XOMCOT_clean_sbu_0, # of connection points: 5
#     Node 14, Type 0, BuildingBlock: XOMCOT_clean_sbu_0, # of connection points: 5
#     Node 15, Type 0, BuildingBlock: XOMCOT_clean_sbu_0, # of connection points: 5
#     Node 16, Type 0, BuildingBlock: XOMCOT_clean_sbu_0, # of connection points: 5
#     Node 17, Type 0, BuildingBlock: XOMCOT_clean_sbu_0, # of connection points: 5
#     Node 18, Type 0, BuildingBlock: XOMCOT_clean_sbu_0, # of connection points: 5
#     Node 19, Type 0, BuildingBlock: XOMCOT_clean_sbu_0, # of connection points: 5
#     Node 20, Type 0, BuildingBlock: XOMCOT_clean_sbu_0, # of connection points: 5
#     Node 21, Type 0, BuildingBlock: XOMCOT_clean_sbu_0, # of connection points: 5
#     Node 22, Type 0, BuildingBlock: XOMCOT_clean_sbu_0, # of connection points: 5
#     Node 23, Type 0, BuildingBlock: XOMCOT_clean_sbu_0, # of connection points: 5
#     Node 24, Type 0, BuildingBlock: XOMCOT_clean_sbu_0, # of connection points: 5
#     Node 25, Type 0, BuildingBlock: XOMCOT_clean_sbu_0, # of connection points: 5
#     Node 26, Type 0, BuildingBlock: XOMCOT_clean_sbu_0, # of connection points: 5
#     Node 27, Type 0, BuildingBlock: XOMCOT_clean_sbu_0, # of connection points: 5
#     Node 28, Type 0, BuildingBlock: XOMCOT_clean_sbu_0, # of connection points: 5
#     Node 29, Type 0, BuildingBlock: XOMCOT_clean_sbu_0, # of connection points: 5
#     Node 30, Type 0, BuildingBlock: XOMCOT_clean_sbu_0, # of connection points: 5
#     Node 31, Type 0, BuildingBlock: XOMCOT_clean_sbu_0, # of connection points: 5
#     Edge 32, Type (0, 0), BuildingBlock: AJUNOK_clean_linker_0, # of connection points: 2
#     Edge 33, Type (0, 0), BuildingBlock: AJUNOK_clean_linker_0, # of connection points: 2
#     Edge 34, Type (0, 0), BuildingBlock: AJUNOK_clean_linker_0, # of connection points: 2
#     Edge 35, Type (0, 0), BuildingBlock: AJUNOK_clean_linker_0, # of connection points: 2
#     Edge 36, Type (0, 0), BuildingBlock: AJUNOK_clean_linker_0, # of connection points: 2
#     Edge 37, Type (0, 0), BuildingBlock: AJUNOK_clean_linker_0, # of connection points: 2
#     Edge 38, Type (0, 0), BuildingBlock: AJUNOK_clean_linker_0, # of connection points: 2
#     Edge 39, Type (0, 0), BuildingBlock: AJUNOK_clean_linker_0, # of connection points: 2
#     Edge 40, Type (0, 0), BuildingBlock: AJUNOK_clean_linker_0, # of connection points: 2
#     Edge 41, Type (0, 0), BuildingBlock: AJUNOK_clean_linker_0, # of connection points: 2
#     Edge 42, Type (0, 0), BuildingBlock: AJUNOK_clean_linker_0, # of connection points: 2
#     Edge 43, Type (0, 0), BuildingBlock: AJUNOK_clean_linker_0, # of connection points: 2
#     Edge 44, Type (0, 0), BuildingBlock: AJUNOK_clean_linker_0, # of connection points: 2
#     Edge 45, Type (0, 0), BuildingBlock: AJUNOK_clean_linker_0, # of connection points: 2
#     Edge 46, Type (0, 0), BuildingBlock: AJUNOK_clean_linker_0, # of connection points: 2
#     Edge 47, Type (0, 0), BuildingBlock: AJUNOK_clean_linker_0, # of connection points: 2
#     Edge 48, Type (0, 0), BuildingBlock: AJUNOK_clean_linker_0, # of connection points: 2
#     Edge 49, Type (0, 0), BuildingBlock: AJUNOK_clean_linker_0, # of connection points: 2
#     Edge 50, Type (0, 0), BuildingBlock: AJUNOK_clean_linker_0, # of connection points: 2
#     Edge 51, Type (0, 0), BuildingBlock: AJUNOK_clean_linker_0, # of connection points: 2
#     Edge 52, Type (0, 0), BuildingBlock: AJUNOK_clean_linker_0, # of connection points: 2
#     Edge 53, Type (0, 0), BuildingBlock: AJUNOK_clean_linker_0, # of connection points: 2
#     Edge 54, Type (0, 0), BuildingBlock: AJUNOK_clean_linker_0, # of connection points: 2
#     Edge 55, Type (0, 0), BuildingBlock: AJUNOK_clean_linker_0, # of connection points: 2
#     Edge 56, Type (0, 0), BuildingBlock: AJUNOK_clean_linker_0, # of connection points: 2
#     Edge 57, Type (0, 0), BuildingBlock: AJUNOK_clean_linker_0, # of connection points: 2
#     Edge 58, Type (0, 0), BuildingBlock: AJUNOK_clean_linker_0, # of connection points: 2
#     Edge 59, Type (0, 0), BuildingBlock: AJUNOK_clean_linker_0, # of connection points: 2
#     Edge 60, Type (0, 0), BuildingBlock: AJUNOK_clean_linker_0, # of connection points: 2
#     Edge 61, Type (0, 0), BuildingBlock: AJUNOK_clean_linker_0, # of connection points: 2
#     Edge 62, Type (0, 0), BuildingBlock: AJUNOK_clean_linker_0, # of connection points: 2
#     Edge 63, Type (0, 0), BuildingBlock: AJUNOK_clean_linker_0, # of connection points: 2
#     Edge 64, Type (0, 0), BuildingBlock: AJUNOK_clean_linker_0, # of connection points: 2
#     Edge 65, Type (0, 0), BuildingBlock: AJUNOK_clean_linker_0, # of connection points: 2
#     Edge 66, Type (0, 0), BuildingBlock: AJUNOK_clean_linker_0, # of connection points: 2
#     Edge 67, Type (0, 0), BuildingBlock: AJUNOK_clean_linker_0, # of connection points: 2
#     Edge 68, Type (0, 0), BuildingBlock: AJUNOK_clean_linker_0, # of connection points: 2
#     Edge 69, Type (0, 0), BuildingBlock: AJUNOK_clean_linker_0, # of connection points: 2
#     Edge 70, Type (0, 0), BuildingBlock: AJUNOK_clean_linker_0, # of connection points: 2
#     Edge 71, Type (0, 0), BuildingBlock: AJUNOK_clean_linker_0, # of connection points: 2
#     Edge 72, Type (0, 0), BuildingBlock: AJUNOK_clean_linker_0, # of connection points: 2
#     Edge 73, Type (0, 0), BuildingBlock: AJUNOK_clean_linker_0, # of connection points: 2
#     Edge 74, Type (0, 0), BuildingBlock: AJUNOK_clean_linker_0, # of connection points: 2
#     Edge 75, Type (0, 0), BuildingBlock: AJUNOK_clean_linker_0, # of connection points: 2
#     Edge 76, Type (0, 0), BuildingBlock: AJUNOK_clean_linker_0, # of connection points: 2
#     Edge 77, Type (0, 0), BuildingBlock: AJUNOK_clean_linker_0, # of connection points: 2
#     Edge 78, Type (0, 0), BuildingBlock: AJUNOK_clean_linker_0, # of connection points: 2
#     Edge 79, Type (0, 0), BuildingBlock: AJUNOK_clean_linker_0, # of connection points: 2
#     Edge 80, Type (0, 0), BuildingBlock: AJUNOK_clean_linker_0, # of connection points: 2
#     Edge 81, Type (0, 0), BuildingBlock: AJUNOK_clean_linker_0, # of connection points: 2
#     Edge 82, Type (0, 0), BuildingBlock: AJUNOK_clean_linker_0, # of connection points: 2
#     Edge 83, Type (0, 0), BuildingBlock: AJUNOK_clean_linker_0, # of connection points: 2
#     Edge 84, Type (0, 0), BuildingBlock: AJUNOK_clean_linker_0, # of connection points: 2
#     Edge 85, Type (0, 0), BuildingBlock: AJUNOK_clean_linker_0, # of connection points: 2
#     Edge 86, Type (0, 0), BuildingBlock: AJUNOK_clean_linker_0, # of connection points: 2
#     Edge 87, Type (0, 0), BuildingBlock: AJUNOK_clean_linker_0, # of connection points: 2
#     Edge 88, Type (0, 0), BuildingBlock: AJUNOK_clean_linker_0, # of connection points: 2
#     Edge 89, Type (0, 0), BuildingBlock: AJUNOK_clean_linker_0, # of connection points: 2
#     Edge 90, Type (0, 0), BuildingBlock: AJUNOK_clean_linker_0, # of connection points: 2
#     Edge 91, Type (0, 0), BuildingBlock: AJUNOK_clean_linker_0, # of connection points: 2
#     Edge 92, Type (0, 0), BuildingBlock: AJUNOK_clean_linker_0, # of connection points: 2
#     Edge 93, Type (0, 0), BuildingBlock: AJUNOK_clean_linker_0, # of connection points: 2
#     Edge 94, Type (0, 0), BuildingBlock: AJUNOK_clean_linker_0, # of connection points: 2
#     Edge 95, Type (0, 0), BuildingBlock: AJUNOK_clean_linker_0, # of connection points: 2
#     Edge 96, Type (0, 0), BuildingBlock: AJUNOK_clean_linker_0, # of connection points: 2
#     Edge 97, Type (0, 0), BuildingBlock: AJUNOK_clean_linker_0, # of connection points: 2
#     Edge 98, Type (0, 0), BuildingBlock: AJUNOK_clean_linker_0, # of connection points: 2
#     Edge 99, Type (0, 0), BuildingBlock: AJUNOK_clean_linker_0, # of connection points: 2
#     Edge 100, Type (0, 0), BuildingBlock: AJUNOK_clean_linker_0, # of connection points: 2
#     Edge 101, Type (0, 0), BuildingBlock: AJUNOK_clean_linker_0, # of connection points: 2
#     Edge 102, Type (0, 0), BuildingBlock: AJUNOK_clean_linker_0, # of connection points: 2
#     Edge 103, Type (0, 0), BuildingBlock: AJUNOK_clean_linker_0, # of connection points: 2
#     Edge 104, Type (0, 0), BuildingBlock: AJUNOK_clean_linker_0, # of connection points: 2
#     Edge 105, Type (0, 0), BuildingBlock: AJUNOK_clean_linker_0, # of connection points: 2
#     Edge 106, Type (0, 0), BuildingBlock: AJUNOK_clean_linker_0, # of connection points: 2
#     Edge 107, Type (0, 0), BuildingBlock: AJUNOK_clean_linker_0, # of connection points: 2
#     Edge 108, Type (0, 0), BuildingBlock: AJUNOK_clean_linker_0, # of connection points: 2
#     Edge 109, Type (0, 0), BuildingBlock: AJUNOK_clean_linker_0, # of connection points: 2
#     Edge 110, Type (0, 0), BuildingBlock: AJUNOK_clean_linker_0, # of connection points: 2
#     Edge 111, Type (0, 0), BuildingBlock: AJUNOK_clean_linker_0, # of connection points: 2
# Relax obj value: 0.174
# Max RMSD: 0.192
# Mean RMSD: 0.191
data_MOF--net-sog--node1-XOMCOT_clean_sbu_0--edge1-AJUNOK_clean_linker_0
_symmetry_space_group_name_H-M    P1
_symmetry_Int_Tables_number       1
_symmetry_cell_setting            triclinic
loop_
_symmetry_equiv_pos_as_xyz
'x, y, z'
_cell_length_a     62.167892
_cell_length_b     13.442684
_cell_length_c     90.534026
_cell_angle_alpha  90.012601
_cell_angle_beta   90.058604
_cell_angle_gamma 89.977612
loop_
_atom_site_label
_atom_site_type_symbol
_atom_site_fract_x
_atom_site_fract_y
_atom_site_fract_z
_atom_type_partial_charge
Co0 Co 0.45363 0.17646 0.04296 0.0
C1 C 0.45069 0.95738 0.04601 0.0
C2 C 0.42309 0.01689 0.03501 0.0
C3 C 0.42192 0.91452 0.03457 0.0
N4 N 0.4409 0.0441 0.04256 0.0
N5 N 0.43929 0.87756 0.04157 0.0
H6 H 0.46687 0.95168 0.05018 0.0
H7 H 0.41236 0.06763 0.02938 0.0
C8 C 0.40783 0.219 0.05063 0.0
O9 O 0.4087 0.14137 0.05943 0.0
N10 N 0.46635 0.30728 0.04292 0.0
C11 C 0.48531 0.33329 0.04901 0.0
C12 C 0.48669 0.43563 0.04921 0.0
C13 C 0.45659 0.39356 0.03933 0.0
N14 N 0.4685 0.47304 0.04326 0.0
C15 C 0.46688 0.11085 0.07182 0.0
C16 C 0.44441 0.25107 0.0879 0.0
C17 C 0.45534 0.17535 0.09546 0.0
C18 C 0.46734 0.10697 0.08721 0.0
C19 C 0.44461 0.2528 0.07245 0.0
N20 N 0.45443 0.17871 0.06456 0.0
H21 H 0.47708 0.06063 0.06583 0.0
H22 H 0.43671 0.31367 0.06687 0.0
H23 H 0.49678 0.28171 0.05372 0.0
H24 H 0.44051 0.39879 0.03482 0.0
O25 O 0.48144 0.11784 0.03944 0.0
O26 O 0.45875 0.16346 0.02188 0.0
O27 O 0.42403 0.24038 0.04256 0.0
C28 C 0.47697 0.12155 0.02544 0.0
H29 H 0.40978 0.8708 0.02896 0.0
H30 H 0.49975 0.47905 0.05379 0.0
H31 H 0.43558 0.30785 0.09383 0.0
H32 H 0.47727 0.05151 0.09259 0.0
Co33 Co 0.79792 0.11268 0.04399 0.0
C34 C 0.79984 0.33184 0.04529 0.0
C35 C 0.83073 0.27127 0.0401 0.0
C36 C 0.83174 0.37352 0.03878 0.0
N37 N 0.81074 0.24499 0.04445 0.0
N38 N 0.81215 0.41089 0.04184 0.0
H39 H 0.78287 0.33744 0.04757 0.0
H40 H 0.84336 0.22018 0.03701 0.0
C41 C 0.84301 0.0498 0.05334 0.0
O42 O 0.84307 0.11286 0.06443 0.0
N43 N 0.78537 0.98159 0.04305 0.0
C44 C 0.7662 0.95206 0.0484 0.0
C45 C 0.76507 0.84962 0.04747 0.0
C46 C 0.79551 0.89761 0.03883 0.0
N47 N 0.78361 0.81608 0.04154 0.0
C48 C 0.78426 0.18413 0.07243 0.0
C49 C 0.80286 0.03515 0.08913 0.0
C50 C 0.79322 0.11593 0.09633 0.0
C51 C 0.78318 0.18918 0.08781 0.0
C52 C 0.80317 0.03208 0.07367 0.0
N53 N 0.79533 0.10978 0.06552 0.0
H54 H 0.776 0.24 0.06613 0.0
H55 H 0.81024 0.96826 0.06829 0.0
H56 H 0.75443 1.00089 0.05338 0.0
H57 H 0.81165 0.89513 0.03439 0.0
O58 O 0.77027 0.1713 0.03911 0.0
O59 O 0.79494 0.12609 0.02285 0.0
O60 O 0.82723 0.04709 0.04432 0.0
C61 C 0.77627 0.1667 0.02535 0.0
H62 H 0.84539 0.41641 0.03498 0.0
H63 H 0.75226 0.80315 0.05169 0.0
H64 H 0.81005 0.97506 0.09539 0.0
H65 H 0.77492 0.25096 0.09299 0.0
Co66 Co 0.45188 0.1063 0.21149 0.0
C67 C 0.45034 0.3231 0.21057 0.0
C68 C 0.42068 0.26379 0.21898 0.0
C69 C 0.41979 0.36623 0.21969 0.0
N70 N 0.43981 0.23751 0.21317 0.0
N71 N 0.43854 0.40241 0.21451 0.0
H72 H 0.4665 0.32739 0.20617 0.0
H73 H 0.40858 0.21238 0.22288 0.0
C74 C 0.41507 0.98864 0.19966 0.0
O75 O 0.42835 0.96176 0.1891 0.0
N76 N 0.46419 0.97299 0.21058 0.0
C77 C 0.48469 0.94443 0.20793 0.0
C78 C 0.4859 0.84195 0.20856 0.0
C79 C 0.45383 0.88781 0.21394 0.0
N80 N 0.46627 0.80705 0.21205 0.0
C81 C 0.47192 0.10907 0.18255 0.0
C82 C 0.43603 0.17638 0.16747 0.0
C83 C 0.45457 0.15228 0.15955 0.0
C84 C 0.4728 0.11994 0.16721 0.0
C85 C 0.43578 0.16351 0.18277 0.0
N86 N 0.45322 0.12513 0.19008 0.0
H87 H 0.4864 0.08928 0.18829 0.0
H88 H 0.42123 0.18165 0.18871 0.0
H89 H 0.4981 0.99381 0.20603 0.0
H90 H 0.43756 0.88404 0.21806 0.0
O91 O 0.47962 0.16052 0.21654 0.0
O92 O 0.4558 0.10554 0.23275 0.0
O93 O 0.42171 0.04658 0.20998 0.0
C94 C 0.47425 0.14888 0.2303 0.0
H95 H 0.40679 0.41055 0.22417 0.0
H96 H 0.49997 0.7967 0.20646 0.0
H97 H 0.42176 0.20308 0.16185 0.0
H98 H 0.48759 0.10353 0.16138 0.0
Co99 Co 0.79788 0.1626 0.21264 0.0
C100 C 0.80037 0.94303 0.21096 0.0
C101 C 0.83094 1.00491 0.2167 0.0
C102 C 0.83237 0.90254 0.21746 0.0
N103 N 0.81091 0.03056 0.21233 0.0
N104 N 0.81303 0.8642 0.2139 0.0
H105 H 0.78329 0.93627 0.20902 0.0
H106 H 0.8434 0.05628 0.22 0.0
C107 C 0.84311 0.2264 0.20384 0.0
O108 O 0.84359 0.16279 0.19282 0.0
N109 N 0.7851 0.29356 0.21337 0.0
C110 C 0.766 0.32195 0.20777 0.0
C111 C 0.7648 0.42444 0.20831 0.0
C112 C 0.7951 0.37844 0.21738 0.0
N113 N 0.78318 0.45972 0.21431 0.0
C114 C 0.7846 0.09072 0.18416 0.0
C115 C 0.80335 0.23911 0.16747 0.0
C116 C 0.79358 0.15866 0.16027 0.0
C117 C 0.78352 0.08562 0.16879 0.0
C118 C 0.80368 0.24224 0.18293 0.0
N119 N 0.7957 0.16493 0.19109 0.0
H120 H 0.77626 0.0351 0.19045 0.0
H121 H 0.81076 0.30603 0.18832 0.0
H122 H 0.75432 0.2722 0.20288 0.0
H123 H 0.8114 0.38138 0.22147 0.0
O124 O 0.77028 0.10325 0.21717 0.0
O125 O 0.79444 0.1494 0.23378 0.0
O126 O 0.82709 0.22888 0.21262 0.0
C127 C 0.77589 0.10829 0.23101 0.0
H128 H 0.84637 0.86005 0.22076 0.0
H129 H 0.75178 0.46959 0.20405 0.0
H130 H 0.81059 0.29904 0.16121 0.0
H131 H 0.77518 0.02406 0.1636 0.0
Co132 Co 0.55077 0.85806 0.96318 0.0
C133 C 0.55326 0.07753 0.96092 0.0
C134 C 0.58279 0.01609 0.96891 0.0
C135 C 0.58416 0.11828 0.9696 0.0
N136 N 0.56361 0.9902 0.96302 0.0
N137 N 0.5655 0.15634 0.96458 0.0
H138 H 0.53656 0.08419 0.95785 0.0
H139 H 0.59444 0.96474 0.97343 0.0
C140 C 0.59581 0.80962 0.95387 0.0
O141 O 0.5946 0.88327 0.94436 0.0
N142 N 0.53815 0.72727 0.96386 0.0
C143 C 0.51945 0.69764 0.95774 0.0
C144 C 0.51871 0.59499 0.95803 0.0
C145 C 0.54832 0.64324 0.96796 0.0
N146 N 0.53705 0.56149 0.96424 0.0
C147 C 0.53701 0.92648 0.93453 0.0
C148 C 0.55663 0.77844 0.91821 0.0
C149 C 0.54642 0.8568 0.91079 0.0
C150 C 0.53595 0.92972 0.91914 0.0
C151 C 0.55708 0.77757 0.93365 0.0
N152 N 0.54862 0.85476 0.94162 0.0
H153 H 0.52815 0.98106 0.94067 0.0
H154 H 0.56453 0.7152 0.93917 0.0
H155 H 0.50791 0.7467 0.95255 0.0
H156 H 0.56413 0.64138 0.97295 0.0
O157 O 0.52315 0.91683 0.96757 0.0
O158 O 0.54721 0.87163 0.98431 0.0
O159 O 0.58028 0.79353 0.96277 0.0
C160 C 0.52869 0.91287 0.98141 0.0
H161 H 0.59719 0.16084 0.9744 0.0
H162 H 0.50638 0.54854 0.95314 0.0
H163 H 0.56408 0.71817 0.91213 0.0
H164 H 0.52722 0.98961 0.91382 0.0
Co165 Co 0.20686 0.93736 0.96247 0.0
C166 C 0.20192 0.72004 0.95903 0.0
C167 C 0.17953 0.77823 0.97474 0.0
C168 C 0.17886 0.67568 0.97533 0.0
N169 N 0.19375 0.80636 0.9643 0.0
N170 N 0.19303 0.63916 0.96544 0.0
H171 H 0.21574 0.71597 0.95188 0.0
H172 H 0.17136 0.82866 0.98217 0.0
C173 C 0.15866 0.98664 0.96061 0.0
O174 O 0.15374 0.89833 0.95542 0.0
N175 N 0.2201 0.06722 0.96089 0.0
C176 C 0.23666 0.0931 0.95212 0.0
C177 C 0.23793 0.19562 0.95165 0.0
C178 C 0.21185 0.15396 0.96587 0.0
N179 N 0.22211 0.23361 0.96016 0.0
C180 C 0.22112 0.87295 0.9338 0.0
C181 C 0.19027 0.96977 0.91726 0.0
C182 C 0.20534 0.90984 0.90996 0.0
C183 C 0.22102 0.8617 0.91846 0.0
C184 C 0.19117 0.98027 0.93259 0.0
N185 N 0.20585 0.92874 0.94084 0.0
H186 H 0.23377 0.83706 0.93996 0.0
H187 H 0.18018 0.03162 0.93754 0.0
H188 H 0.24635 0.04142 0.94584 0.0
H189 H 0.19767 0.15918 0.97275 0.0
O190 O 0.23459 0.87573 0.96591 0.0
O191 O 0.21328 0.93312 0.98344 0.0
O192 O 0.17812 1.0088 0.96368 0.0
C193 C 0.23089 0.88615 0.97994 0.0
H194 H 0.16952 0.63161 0.983 0.0
H195 H 0.24917 0.23872 0.94515 0.0
H196 H 0.17778 1.00847 0.91121 0.0
H197 H 0.23337 0.81678 0.91328 0.0
Co198 Co 0.54564 0.91481 0.79435 0.0
C199 C 0.54943 0.69568 0.79687 0.0
C200 C 0.57605 0.75748 0.78509 0.0
C201 C 0.57699 0.65514 0.78401 0.0
N202 N 0.55895 0.78332 0.79343 0.0
N203 N 0.56004 0.61657 0.7913 0.0
H204 H 0.53384 0.68919 0.80197 0.0
H205 H 0.58631 0.80934 0.7793 0.0
C206 C 0.59275 0.9664 0.79964 0.0
O207 O 0.59577 0.88505 0.8074 0.0
N208 N 0.53234 0.04491 0.79486 0.0
C209 C 0.5153 0.07315 0.80302 0.0
C210 C 0.51399 0.1757 0.80278 0.0
C211 C 0.54088 0.13008 0.78957 0.0
N212 N 0.53017 0.21138 0.79436 0.0
C213 C 0.53183 0.84547 0.82286 0.0
C214 C 0.55754 0.96893 0.83967 0.0
C215 C 0.54526 0.89596 0.84677 0.0
C216 C 0.53179 0.83575 0.83821 0.0
C217 C 0.55691 0.97671 0.82428 0.0
N218 N 0.54525 0.91114 0.81596 0.0
H219 H 0.52074 0.80086 0.81659 0.0
H220 H 0.56556 0.03661 0.81918 0.0
H221 H 0.50541 0.02327 0.80946 0.0
H222 H 0.55564 0.13294 0.78327 0.0
O223 O 0.51815 0.85314 0.79043 0.0
O224 O 0.54067 0.90584 0.77325 0.0
O225 O 0.57449 0.98491 0.79382 0.0
C226 C 0.52286 0.85961 0.77648 0.0
H227 H 0.58876 0.61297 0.77782 0.0
H228 H 0.50261 0.22069 0.80887 0.0
H229 H 0.56728 0.02054 0.84598 0.0
H230 H 0.52142 0.78096 0.84333 0.0
Co231 Co 0.20089 0.85455 0.7935 0.0
C232 C 0.19825 0.07326 0.79677 0.0
C233 C 0.16859 0.01387 0.78868 0.0
C234 C 0.16735 0.11643 0.78843 0.0
N235 N 0.18789 0.98651 0.79421 0.0
N236 N 0.18604 0.15326 0.79361 0.0
H237 H 0.21511 0.07888 0.79944 0.0
H238 H 0.15674 0.96352 0.78417 0.0
C239 C 0.15548 0.79702 0.80219 0.0
O240 O 0.15541 0.86399 0.81277 0.0
N241 N 0.21375 0.72371 0.79253 0.0
C242 C 0.23338 0.69761 0.79751 0.0
C243 C 0.23478 0.59519 0.79767 0.0
C244 C 0.20359 0.63715 0.78959 0.0
N245 N 0.21589 0.55755 0.79288 0.0
C246 C 0.21609 0.91928 0.82175 0.0
C247 C 0.19463 0.78128 0.83882 0.0
C248 C 0.20548 0.85977 0.84585 0.0
C249 C 0.21726 0.92589 0.83707 0.0
C250 C 0.19431 0.77621 0.82335 0.0
N251 N 0.20339 0.85 0.81502 0.0
H252 H 0.22567 0.96978 0.81536 0.0
H253 H 0.1863 0.71424 0.81813 0.0
H254 H 0.24539 0.74915 0.80153 0.0
H255 H 0.18702 0.63162 0.78604 0.0
O256 O 0.22829 0.91463 0.78918 0.0
O257 O 0.20434 0.87154 0.77231 0.0
O258 O 0.1716 0.789 0.79355 0.0
C259 C 0.22271 0.91373 0.77537 0.0
H260 H 0.15413 0.16037 0.78417 0.0
H261 H 0.24838 0.552 0.80149 0.0
H262 H 0.18609 0.72566 0.84517 0.0
H263 H 0.2273 0.98282 0.84199 0.0
Co264 Co 0.45338 0.66682 0.54343 0.0
C265 C 0.45127 0.44792 0.54559 0.0
C266 C 0.42088 0.50821 0.53906 0.0
C267 C 0.41993 0.40592 0.5379 0.0
N268 N 0.44049 0.53477 0.54415 0.0
N269 N 0.43922 0.36868 0.54179 0.0
H270 H 0.46808 0.44242 0.54839 0.0
H271 H 0.40862 0.55922 0.53529 0.0
C272 C 0.40811 0.72636 0.55267 0.0
O273 O 0.40811 0.66028 0.56336 0.0
N274 N 0.466 0.79765 0.54228 0.0
C275 C 0.48521 0.82688 0.54765 0.0
C276 C 0.48634 0.92933 0.54686 0.0
C277 C 0.45584 0.88191 0.5382 0.0
N278 N 0.46777 0.96332 0.541 0.0
C279 C 0.46862 0.60079 0.5717 0.0
C280 C 0.4485 0.74437 0.58857 0.0
C281 C 0.4596 0.66727 0.59578 0.0
C282 C 0.47033 0.59691 0.58705 0.0
C283 C 0.44775 0.74692 0.57312 0.0
N284 N 0.45632 0.6713 0.56491 0.0
H285 H 0.4775 0.54745 0.56532 0.0
H286 H 0.43979 0.80873 0.56781 0.0
H287 H 0.49696 0.77783 0.55262 0.0
H288 H 0.43965 0.88462 0.53383 0.0
O289 O 0.4809 0.60736 0.53856 0.0
O290 O 0.45614 0.65144 0.52228 0.0
O291 O 0.42407 0.73258 0.54385 0.0
C292 C 0.47476 0.61028 0.52483 0.0
H293 H 0.40664 0.36289 0.53353 0.0
H294 H 0.49917 0.97545 0.55116 0.0
H295 H 0.43999 0.80104 0.59473 0.0
H296 H 0.47998 0.53879 0.59203 0.0
Co297 Co 0.79614 0.59283 0.54414 0.0
C298 C 0.7983 0.81233 0.54553 0.0
C299 C 0.82872 0.75114 0.53928 0.0
C300 C 0.82996 0.85342 0.53842 0.0
N301 N 0.80896 0.72513 0.54413 0.0
N302 N 0.81073 0.89121 0.54234 0.0
H303 H 0.78137 0.81886 0.54799 0.0
H304 H 0.841 0.70006 0.5356 0.0
C305 C 0.84168 0.53469 0.5525 0.0
O306 O 0.84176 0.60108 0.56316 0.0
N307 N 0.7835 0.46182 0.5437 0.0
C308 C 0.76479 0.43245 0.54981 0.0
C309 C 0.76384 0.32978 0.54937 0.0
C310 C 0.79349 0.37753 0.53947 0.0
N311 N 0.78206 0.29602 0.54305 0.0
C312 C 0.78404 0.66559 0.57271 0.0
C313 C 0.80353 0.51867 0.58932 0.0
C314 C 0.79391 0.59945 0.59654 0.0
C315 C 0.78363 0.67212 0.58806 0.0
C316 C 0.80326 0.5143 0.57386 0.0
N317 N 0.79488 0.59092 0.56572 0.0
H318 H 0.77536 0.7205 0.56651 0.0
H319 H 0.81023 0.45032 0.56845 0.0
H320 H 0.75333 0.48165 0.55504 0.0
H321 H 0.80928 0.375 0.53448 0.0
O322 O 0.76835 0.65135 0.54034 0.0
O323 O 0.79153 0.60693 0.52303 0.0
O324 O 0.82558 0.52759 0.54379 0.0
C325 C 0.77323 0.6487 0.5264 0.0
H326 H 0.84347 0.89617 0.53437 0.0
H327 H 0.75147 0.28344 0.55419 0.0
H328 H 0.81104 0.45934 0.59557 0.0
H329 H 0.77553 0.73434 0.59326 0.0
Co330 Co 0.45609 0.58036 0.71226 0.0
C331 C 0.45215 0.79896 0.70953 0.0
C332 C 0.42601 0.73758 0.72187 0.0
C333 C 0.42518 0.83992 0.72295 0.0
N334 N 0.44275 0.71154 0.71322 0.0
N335 N 0.44185 0.87832 0.71533 0.0
H336 H 0.46744 0.80485 0.704 0.0
H337 H 0.41597 0.68576 0.72786 0.0
C338 C 0.40876 0.52942 0.70659 0.0
O339 O 0.40507 0.61428 0.69987 0.0
N340 N 0.46943 0.45035 0.71164 0.0
C341 C 0.48652 0.42226 0.70352 0.0
C342 C 0.48784 0.31968 0.70373 0.0
C343 C 0.46086 0.36505 0.71687 0.0
N344 N 0.47162 0.28384 0.71209 0.0
C345 C 0.47281 0.64932 0.68451 0.0
C346 C 0.44526 0.54455 0.66636 0.0
C347 C 0.45939 0.61342 0.65995 0.0
C348 C 0.47386 0.66326 0.66924 0.0
C349 C 0.44511 0.53121 0.68168 0.0
N350 N 0.45776 0.58813 0.69068 0.0
H351 H 0.48438 0.68746 0.69131 0.0
H352 H 0.43493 0.47406 0.68609 0.0
H353 H 0.49651 0.47224 0.69716 0.0
H354 H 0.44607 0.36208 0.72313 0.0
O355 O 0.48329 0.6418 0.7173 0.0
O356 O 0.45969 0.58539 0.73349 0.0
O357 O 0.42733 0.50952 0.71182 0.0
C358 C 0.47766 0.63227 0.73105 0.0
H359 H 0.41366 0.88218 0.72934 0.0
H360 H 0.49928 0.27479 0.69766 0.0
H361 H 0.43427 0.50141 0.65964 0.0
H362 H 0.48611 0.71194 0.66478 0.0
Co363 Co 0.80291 0.64148 0.71269 0.0
C364 C 0.80538 0.42244 0.71011 0.0
C365 C 0.83572 0.48218 0.7168 0.0
C366 C 0.83698 0.37952 0.71709 0.0
N367 N 0.81593 0.50934 0.7121 0.0
N368 N 0.81786 0.34261 0.71274 0.0
H369 H 0.78832 0.4165 0.70808 0.0
H370 H 0.84802 0.53261 0.72066 0.0
C371 C 0.84816 0.70472 0.70426 0.0
O372 O 0.84855 0.6412 0.69323 0.0
N373 N 0.79003 0.77241 0.71358 0.0
C374 C 0.77036 0.79857 0.7087 0.0
C375 C 0.76892 0.90098 0.70866 0.0
C376 C 0.80017 0.85894 0.71659 0.0
N377 N 0.78784 0.93861 0.71341 0.0
C378 C 0.78921 0.57362 0.68424 0.0
C379 C 0.80804 0.72138 0.6675 0.0
C380 C 0.79736 0.64314 0.66036 0.0
C381 C 0.78752 0.56989 0.66893 0.0
C382 C 0.80906 0.72299 0.68297 0.0
N383 N 0.80091 0.64601 0.69113 0.0
H384 H 0.78064 0.5188 0.6905 0.0
H385 H 0.8166 0.78568 0.68834 0.0
H386 H 0.75832 0.74713 0.70469 0.0
H387 H 0.81673 0.86448 0.72014 0.0
O388 O 0.77537 0.58166 0.71662 0.0
O389 O 0.79888 0.62443 0.73383 0.0
O390 O 0.83214 0.70745 0.71305 0.0
C391 C 0.78056 0.58258 0.73052 0.0
H392 H 0.85061 0.33559 0.7207 0.0
H393 H 0.75523 0.94413 0.70498 0.0
H394 H 0.81525 0.78115 0.6612 0.0
H395 H 0.77864 0.50963 0.66381 0.0
Co396 Co 0.54787 0.36085 0.46098 0.0
C397 C 0.55124 0.57718 0.45848 0.0
C398 C 0.57814 0.51843 0.47052 0.0
C399 C 0.5789 0.62123 0.47107 0.0
N400 N 0.56075 0.49137 0.46261 0.0
N401 N 0.56194 0.65785 0.46347 0.0
H402 H 0.53589 0.58011 0.45285 0.0
H403 H 0.58878 0.46733 0.47616 0.0
C404 C 0.58236 0.22708 0.45016 0.0
O405 O 0.5681 0.20292 0.44005 0.0
N406 N 0.53454 0.22893 0.46 0.0
C407 C 0.51559 0.20109 0.454 0.0
C408 C 0.51403 0.09881 0.45445 0.0
C409 C 0.54331 0.14309 0.46505 0.0
N410 N 0.53174 0.06245 0.46113 0.0
C411 C 0.52812 0.38568 0.43223 0.0
C412 C 0.566 0.41801 0.41702 0.0
C413 C 0.54667 0.41326 0.40915 0.0
C414 C 0.52746 0.40038 0.41695 0.0
C415 C 0.56585 0.40438 0.4323 0.0
N416 N 0.54728 0.38027 0.43958 0.0
H417 H 0.51316 0.38177 0.43814 0.0
H418 H 0.58082 0.41183 0.43826 0.0
H419 H 0.50349 0.25019 0.44961 0.0
H420 H 0.55857 0.13883 0.47077 0.0
O421 O 0.52047 0.41965 0.46552 0.0
O422 O 0.54313 0.36165 0.48226 0.0
O423 O 0.57745 0.29338 0.45988 0.0
C424 C 0.52503 0.40711 0.47937 0.0
H425 H 0.59059 0.66548 0.47702 0.0
H426 H 0.50099 0.05457 0.45001 0.0
H427 H 0.58107 0.43251 0.41143 0.0
H428 H 0.51211 0.4007 0.41128 0.0
Co429 Co 0.20843 0.44184 0.46282 0.0
C430 C 0.20429 0.22347 0.45965 0.0
C431 C 0.17879 0.28337 0.47274 0.0
C432 C 0.17782 0.18076 0.47339 0.0
N433 N 0.19521 0.31045 0.46386 0.0
N434 N 0.19389 0.14339 0.46508 0.0
H435 H 0.21953 0.21786 0.4541 0.0
H436 H 0.16911 0.33451 0.47912 0.0
C437 C 0.16105 0.49109 0.45715 0.0
O438 O 0.15766 0.406 0.45042 0.0
N439 N 0.22165 0.57195 0.46211 0.0
C440 C 0.23931 0.59832 0.45446 0.0
C441 C 0.24062 0.70083 0.45424 0.0
C442 C 0.21274 0.65829 0.46668 0.0
N443 N 0.2237 0.7383 0.46176 0.0
C444 C 0.22465 0.37163 0.43502 0.0
C445 C 0.19812 0.48187 0.41687 0.0
C446 C 0.21195 0.41165 0.41048 0.0
C447 C 0.22552 0.35708 0.41978 0.0
C448 C 0.19765 0.49338 0.43224 0.0
N449 N 0.20992 0.43441 0.44122 0.0
H450 H 0.23606 0.33219 0.44178 0.0
H451 H 0.18768 0.55111 0.43674 0.0
H452 H 0.24978 0.54696 0.44873 0.0
H453 H 0.19771 0.66297 0.47266 0.0
O454 O 0.23583 0.38127 0.4676 0.0
O455 O 0.21245 0.4366 0.48404 0.0
O456 O 0.17952 0.51186 0.46248 0.0
C457 C 0.23053 0.39088 0.48141 0.0
H458 H 0.1668 0.13723 0.48 0.0
H459 H 0.25269 0.74429 0.44854 0.0
H460 H 0.18794 0.52841 0.41004 0.0
H461 H 0.23664 0.30262 0.41538 0.0
Co462 Co 0.54657 0.42068 0.29281 0.0
C463 C 0.54904 0.20081 0.29482 0.0
C464 C 0.57988 0.26249 0.28984 0.0
C465 C 0.58127 0.16015 0.28901 0.0
N466 N 0.55968 0.28844 0.29379 0.0
N467 N 0.56177 0.12187 0.29207 0.0
H468 H 0.53188 0.19418 0.29646 0.0
H469 H 0.59251 0.31357 0.28679 0.0
C470 C 0.59106 0.48618 0.30192 0.0
O471 O 0.59051 0.42496 0.31323 0.0
N472 N 0.53368 0.55145 0.29126 0.0
C473 C 0.51424 0.57987 0.29625 0.0
C474 C 0.51299 0.68227 0.29558 0.0
C475 C 0.54381 0.63642 0.28743 0.0
N476 N 0.53168 0.71768 0.29011 0.0
C477 C 0.53619 0.35236 0.32204 0.0
C478 C 0.55088 0.51759 0.33716 0.0
C479 C 0.544 0.43436 0.34514 0.0
C480 C 0.53605 0.35215 0.33743 0.0
C481 C 0.55099 0.51416 0.32171 0.0
N482 N 0.54482 0.42985 0.31433 0.0
H483 H 0.52925 0.28992 0.31641 0.0
H484 H 0.55679 0.57821 0.31572 0.0
H485 H 0.50236 0.5303 0.30093 0.0
H486 H 0.56037 0.63964 0.28388 0.0
O487 O 0.51893 0.36019 0.28907 0.0
O488 O 0.54256 0.40032 0.2718 0.0
O489 O 0.57584 0.48659 0.29244 0.0
C490 C 0.52415 0.35967 0.27517 0.0
H491 H 0.59538 0.1177 0.28595 0.0
H492 H 0.49973 0.72735 0.29948 0.0
H493 H 0.55673 0.58332 0.3428 0.0
H494 H 0.5298 0.28807 0.34328 0.0
Co495 Co 0.20629 0.32673 0.29441 0.0
C496 C 0.20283 0.5462 0.29673 0.0
C497 C 0.17506 0.48392 0.28633 0.0
C498 C 0.17402 0.58626 0.28516 0.0
N499 N 0.19297 0.4584 0.29388 0.0
N500 N 0.19166 0.62506 0.29163 0.0
H501 H 0.21892 0.55309 0.30102 0.0
H502 H 0.16422 0.43183 0.28109 0.0
C503 C 0.15965 0.27434 0.30149 0.0
O504 O 0.15723 0.35504 0.3095 0.0
N505 N 0.21954 0.19652 0.29449 0.0
C506 C 0.23716 0.1681 0.30204 0.0
C507 C 0.23849 0.0656 0.30163 0.0
C508 C 0.21067 0.11157 0.28936 0.0
N509 N 0.22174 0.03015 0.2937 0.0
C510 C 0.22191 0.39834 0.32227 0.0
C511 C 0.1986 0.27233 0.34021 0.0
C512 C 0.21124 0.34663 0.34676 0.0
C513 C 0.22319 0.40927 0.33755 0.0
C514 C 0.1977 0.26443 0.32479 0.0
N515 N 0.20831 0.33078 0.31597 0.0
H516 H 0.23221 0.44379 0.31556 0.0
H517 H 0.18872 0.20392 0.32005 0.0
H518 H 0.2475 0.21779 0.3082 0.0
H519 H 0.1955 0.10895 0.28352 0.0
O520 O 0.23359 0.38765 0.28958 0.0
O521 O 0.20972 0.33552 0.27319 0.0
O522 O 0.17738 0.25683 0.29489 0.0
C523 C 0.22784 0.38094 0.27581 0.0
H524 H 0.16165 0.62827 0.27951 0.0
H525 H 0.25032 0.02046 0.3073 0.0
H526 H 0.18969 0.22005 0.34694 0.0
H527 H 0.23335 0.46716 0.34208 0.0
Co528 Co 0.95277 0.16928 0.54373 0.0
C529 C 0.9503 0.95075 0.54657 0.0
C530 C 0.92082 0.01069 0.53819 0.0
C531 C 0.91968 0.90835 0.53762 0.0
N532 N 0.93989 0.03752 0.54413 0.0
N533 N 0.93832 0.8713 0.54284 0.0
H534 H 0.96688 0.94489 0.54998 0.0
H535 H 0.90917 0.06135 0.53351 0.0
C536 C 0.90689 0.22339 0.5519 0.0
O537 O 0.90667 0.15404 0.56213 0.0
N538 N 0.96552 0.30002 0.54301 0.0
C539 C 0.98435 0.32883 0.54902 0.0
C540 C 0.98527 0.43151 0.54885 0.0
C541 C 0.9554 0.38477 0.53912 0.0
N542 N 0.96688 0.46602 0.54282 0.0
C543 C 0.96793 0.1046 0.57201 0.0
C544 C 0.94432 0.23463 0.58912 0.0
C545 C 0.95574 0.15765 0.59615 0.0
C546 C 0.96869 0.09631 0.58734 0.0
C547 C 0.94477 0.24282 0.57369 0.0
N548 N 0.95482 0.17226 0.56528 0.0
H549 H 0.97815 0.05671 0.5656 0.0
H550 H 0.93653 0.30447 0.56855 0.0
H551 H 0.9959 0.27917 0.55407 0.0
H552 H 0.9395 0.38763 0.53428 0.0
O553 O 0.98031 0.10959 0.53952 0.0
O554 O 0.9566 0.15327 0.52253 0.0
O555 O 0.92334 0.2347 0.54363 0.0
C556 C 0.97488 0.11049 0.52568 0.0
H557 H 0.90682 0.86491 0.53277 0.0
H558 H 0.99775 0.47726 0.55369 0.0
H559 H 0.93481 0.28715 0.5954 0.0
H560 H 0.97943 0.04197 0.5922 0.0
Co561 Co 0.30286 0.12155 0.54415 0.0
C562 C 0.30479 0.34086 0.54569 0.0
C563 C 0.33563 0.28039 0.54036 0.0
C564 C 0.33662 0.38262 0.53905 0.0
N565 N 0.31569 0.25396 0.5448 0.0
N566 N 0.31706 0.41993 0.5422 0.0
H567 H 0.28782 0.34652 0.54801 0.0
H568 H 0.34822 0.22943 0.53716 0.0
C569 C 0.34785 0.05852 0.5532 0.0
O570 O 0.34767 0.12138 0.56432 0.0
N571 N 0.29028 0.99054 0.54298 0.0
C572 C 0.27109 0.96099 0.54831 0.0
C573 C 0.26996 0.85858 0.54738 0.0
C574 C 0.30043 0.90653 0.53878 0.0
N575 N 0.28851 0.82502 0.54148 0.0
C576 C 0.28992 0.19 0.57278 0.0
C577 C 0.30717 0.03548 0.58904 0.0
C578 C 0.29751 0.11535 0.59646 0.0
C579 C 0.28832 0.19181 0.58813 0.0
C580 C 0.30813 0.03597 0.57358 0.0
N581 N 0.30075 0.11582 0.56567 0.0
H582 H 0.28209 0.248 0.56666 0.0
H583 H 0.31515 0.97276 0.568 0.0
H584 H 0.25933 0.00974 0.55332 0.0
H585 H 0.31659 0.90395 0.5344 0.0
O586 O 0.27514 0.18016 0.54006 0.0
O587 O 0.29899 0.13887 0.52302 0.0
O588 O 0.33223 0.05623 0.54403 0.0
C589 C 0.28042 0.17878 0.52618 0.0
H590 H 0.35022 0.42551 0.53516 0.0
H591 H 0.25715 0.81213 0.55161 0.0
H592 H 0.31377 0.9731 0.59511 0.0
H593 H 0.28016 0.25339 0.59344 0.0
Co594 Co 0.9515 0.10508 0.71308 0.0
C595 C 0.94932 0.32403 0.7112 0.0
C596 C 0.91944 0.26383 0.71873 0.0
C597 C 0.91855 0.36614 0.7199 0.0
N598 N 0.93866 0.23726 0.71301 0.0
N599 N 0.93753 0.40327 0.71537 0.0
H600 H 0.96589 0.32951 0.70782 0.0
H601 H 0.90745 0.21284 0.72286 0.0
C602 C 0.90565 0.04644 0.7053 0.0
O603 O 0.9048 0.11407 0.69484 0.0
N604 N 0.96411 0.97405 0.71357 0.0
C605 C 0.98287 0.94482 0.70753 0.0
C606 C 0.98408 0.84236 0.70828 0.0
C607 C 0.95428 0.88984 0.71799 0.0
N608 N 0.96599 0.80846 0.71478 0.0
C609 C 0.96496 0.17212 0.68447 0.0
C610 C 0.94309 0.03229 0.66796 0.0
C611 C 0.95433 0.10801 0.66053 0.0
C612 C 0.9659 0.17651 0.66909 0.0
C613 C 0.94337 0.02831 0.68341 0.0
N614 N 0.95279 0.10231 0.6915 0.0
H615 H 0.97448 0.22414 0.69067 0.0
H616 H 0.9356 0.9665 0.68882 0.0
H617 H 0.99426 0.99391 0.7022 0.0
H618 H 0.93847 0.88715 0.72295 0.0
O619 O 0.97934 0.16338 0.71692 0.0
O620 O 0.95611 0.11929 0.73419 0.0
O621 O 0.92218 0.03964 0.71361 0.0
C622 C 0.97455 0.1597 0.73087 0.0
H623 H 0.90557 0.40927 0.72465 0.0
H624 H 0.99658 0.79618 0.70357 0.0
H625 H 0.93378 0.97729 0.66203 0.0
H626 H 0.97575 0.2333 0.66398 0.0
Co627 Co 0.29381 0.18432 0.71263 0.0
C628 C 0.29629 0.96563 0.7106 0.0
C629 C 0.32386 0.0248 0.72169 0.0
C630 C 0.32439 0.92241 0.72279 0.0
N631 N 0.30645 0.05204 0.7137 0.0
N632 N 0.30683 0.88603 0.71597 0.0
H633 H 0.28068 0.96043 0.7055 0.0
H634 H 0.3346 0.07573 0.72726 0.0
C635 C 0.34102 0.22838 0.70669 0.0
O636 O 0.34253 0.1486 0.69837 0.0
N637 N 0.28106 0.31511 0.71193 0.0
C638 C 0.26328 0.34317 0.7045 0.0
C639 C 0.26177 0.44566 0.705 0.0
C640 C 0.28994 0.4 0.71697 0.0
N641 N 0.27866 0.48081 0.71276 0.0
C642 C 0.2798 0.11404 0.68418 0.0
C643 C 0.30595 0.23514 0.66734 0.0
C644 C 0.29388 0.16099 0.66031 0.0
C645 C 0.28009 0.10239 0.66885 0.0
C646 C 0.30495 0.24502 0.68271 0.0
N647 N 0.29323 0.17982 0.69104 0.0
H648 H 0.26851 0.0707 0.69045 0.0
H649 H 0.31357 0.3056 0.68781 0.0
H650 H 0.25284 0.29318 0.69847 0.0
H651 H 0.30468 0.40312 0.72328 0.0
O652 O 0.26594 0.12606 0.71686 0.0
O653 O 0.28918 0.17804 0.73368 0.0
O654 O 0.3232 0.24982 0.71296 0.0
C655 C 0.27098 0.1343 0.73076 0.0
H656 H 0.33591 0.87863 0.72897 0.0
H657 H 0.24996 0.49102 0.69933 0.0
H658 H 0.31589 0.28569 0.66101 0.0
H659 H 0.26979 0.04714 0.66376 0.0
Co660 Co 0.04499 0.83157 0.46309 0.0
C661 C 0.04767 0.04992 0.46055 0.0
C662 C 0.07493 0.99115 0.47205 0.0
C663 C 0.07545 0.09357 0.47305 0.0
N664 N 0.05772 0.96363 0.4639 0.0
N665 N 0.05808 0.12974 0.46598 0.0
H666 H 0.0322 0.05488 0.45524 0.0
H667 H 0.08549 0.94039 0.47782 0.0
C668 C 0.0922 0.78767 0.45699 0.0
O669 O 0.09354 0.86752 0.44868 0.0
N670 N 0.03216 0.701 0.46262 0.0
C671 C 0.01419 0.67328 0.45538 0.0
C672 C 0.01271 0.5708 0.45577 0.0
C673 C 0.04119 0.61587 0.46744 0.0
N674 N 0.02982 0.53524 0.46328 0.0
C675 C 0.02985 0.89836 0.43477 0.0
C676 C 0.05576 0.7781 0.41762 0.0
C677 C 0.0426 0.84865 0.41061 0.0
C678 C 0.02917 0.90753 0.41942 0.0
C679 C 0.05568 0.77041 0.43303 0.0
N680 N 0.04394 0.83489 0.44149 0.0
H681 H 0.01864 0.94133 0.44118 0.0
H682 H 0.06502 0.7119 0.43806 0.0
H683 H 0.00361 0.72351 0.44951 0.0
H684 H 0.05613 0.61245 0.47352 0.0
O685 O 0.01723 0.89054 0.46747 0.0
O686 O 0.04064 0.83933 0.48421 0.0
O687 O 0.07441 0.76569 0.46328 0.0
C688 C 0.02242 0.88321 0.48135 0.0
H689 H 0.08678 0.13752 0.47937 0.0
H690 H 0.00078 0.5258 0.45018 0.0
H691 H 0.06624 0.72983 0.41131 0.0
H692 H 0.01801 0.9598 0.41448 0.0
Co693 Co 0.70067 0.91069 0.46325 0.0
C694 C 0.69743 0.69216 0.46005 0.0
C695 C 0.67055 0.75152 0.47187 0.0
C696 C 0.66937 0.64911 0.47224 0.0
N697 N 0.68795 0.7787 0.46393 0.0
N698 N 0.68629 0.61219 0.46474 0.0
H699 H 0.71324 0.68678 0.45528 0.0
H700 H 0.66015 0.80236 0.47776 0.0
C701 C 0.65449 0.9516 0.45547 0.0
O702 O 0.65478 0.87167 0.44711 0.0
N703 N 0.71336 0.0415 0.4629 0.0
C704 C 0.73208 0.06748 0.45651 0.0
C705 C 0.73336 0.16989 0.45616 0.0
C706 C 0.70363 0.12781 0.46651 0.0
N707 N 0.71533 0.20732 0.46233 0.0
C708 C 0.71652 0.84357 0.4351 0.0
C709 C 0.6912 0.96434 0.41763 0.0
C710 C 0.70394 0.89141 0.41078 0.0
C711 C 0.71749 0.83398 0.41977 0.0
C712 C 0.69127 0.97343 0.43302 0.0
N713 N 0.70237 0.9075 0.44165 0.0
H714 H 0.7276 0.8007 0.44165 0.0
H715 H 0.68227 0.03358 0.43792 0.0
H716 H 0.74346 0.01576 0.45174 0.0
H717 H 0.68773 0.13293 0.47129 0.0
O718 O 0.72833 0.85229 0.46786 0.0
O719 O 0.70468 0.903 0.48446 0.0
O720 O 0.67114 0.97514 0.46296 0.0
C721 C 0.72303 0.85992 0.4817 0.0
H722 H 0.65753 0.60529 0.47811 0.0
H723 H 0.74624 0.21331 0.45137 0.0
H724 H 0.68111 0.01375 0.4112 0.0
H725 H 0.72902 0.78273 0.41504 0.0
Co726 Co 0.04282 0.94157 0.29438 0.0
C727 C 0.04533 0.72314 0.29656 0.0
C728 C 0.07234 0.78204 0.28483 0.0
C729 C 0.07284 0.67967 0.28378 0.0
N730 N 0.05532 0.80936 0.29317 0.0
N731 N 0.05562 0.64351 0.291 0.0
H732 H 0.03 0.71809 0.30203 0.0
H733 H 0.08281 0.83297 0.27904 0.0
C734 C 0.09016 0.98183 0.30053 0.0
O735 O 0.09146 0.90009 0.30843 0.0
N736 N 0.03023 0.07252 0.2952 0.0
C737 C 0.01211 0.10008 0.30226 0.0
C738 C 0.01055 0.20255 0.3018 0.0
C739 C 0.0393 0.15765 0.29044 0.0
N740 N 0.02776 0.23817 0.29443 0.0
C741 C 0.02744 0.87197 0.32243 0.0
C742 C 0.05446 0.98379 0.34004 0.0
C743 C 0.04143 0.91132 0.34669 0.0
C744 C 0.02713 0.8582 0.3377 0.0
C745 C 0.05399 0.99619 0.32468 0.0
N746 N 0.04181 0.9351 0.31596 0.0
H747 H 0.01582 0.83235 0.31588 0.0
H748 H 0.06343 0.05531 0.31993 0.0
H749 H 0.00139 0.04971 0.30795 0.0
H750 H 0.05433 0.16115 0.28449 0.0
O751 O 0.01497 0.88434 0.28985 0.0
O752 O 0.03835 0.9367 0.27321 0.0
O753 O 0.07235 1.00615 0.29443 0.0
C754 C 0.02006 0.89331 0.27599 0.0
H755 H 0.08405 0.63572 0.27737 0.0
H756 H 0.99843 0.24751 0.30719 0.0
H757 H 0.0651 0.02986 0.34659 0.0
H758 H 0.01562 0.80683 0.34242 0.0
Co759 Co 0.70141 0.85217 0.29375 0.0
C760 C 0.69905 0.07105 0.29627 0.0
C761 C 0.66968 0.01102 0.28777 0.0
C762 C 0.6685 0.11328 0.28717 0.0
N763 N 0.68867 0.98426 0.29385 0.0
N764 N 0.68706 0.15039 0.29249 0.0
H765 H 0.71562 0.07699 0.29971 0.0
H766 H 0.65809 0.96037 0.28302 0.0
C767 C 0.65536 0.80083 0.30143 0.0
O768 O 0.65536 0.86981 0.31171 0.0
N769 N 0.71403 0.72123 0.29326 0.0
C770 C 0.73274 0.69229 0.29945 0.0
C771 C 0.73367 0.58967 0.29922 0.0
C772 C 0.704 0.63671 0.28921 0.0
N773 N 0.71541 0.55543 0.29299 0.0
C774 C 0.71487 0.91699 0.32257 0.0
C775 C 0.69295 0.77525 0.33869 0.0
C776 C 0.70426 0.84978 0.34632 0.0
C777 C 0.7158 0.91951 0.33797 0.0
C778 C 0.69306 0.77368 0.32323 0.0
N779 N 0.70261 0.8483 0.31534 0.0
H780 H 0.72445 0.96944 0.31651 0.0
H781 H 0.68509 0.71303 0.31764 0.0
H782 H 0.74419 0.74184 0.30462 0.0
H783 H 0.68821 0.63404 0.28421 0.0
O784 O 0.72923 0.91064 0.28999 0.0
O785 O 0.706 0.86682 0.27266 0.0
O786 O 0.67187 0.78819 0.29324 0.0
C787 C 0.72438 0.90779 0.27603 0.0
H788 H 0.65568 0.15662 0.28225 0.0
H789 H 0.74605 0.54375 0.30416 0.0
H790 H 0.68373 0.7194 0.3445 0.0
H791 H 0.72561 0.97568 0.34328 0.0
Co792 Co 0.94713 0.65093 0.04393 0.0
C793 C 0.94429 0.43167 0.04646 0.0
C794 C 0.91461 0.49346 0.03878 0.0
C795 C 0.91325 0.39115 0.03806 0.0
N796 N 0.93401 0.51922 0.04431 0.0
N797 N 0.93206 0.35271 0.04278 0.0
H798 H 0.96107 0.42504 0.04937 0.0
H799 H 0.90272 0.54487 0.03459 0.0
C800 C 0.90149 0.71126 0.05211 0.0
O801 O 0.90071 0.6432 0.06252 0.0
N802 N 0.96005 0.78161 0.04323 0.0
C803 C 0.97889 0.80969 0.04927 0.0
C804 C 0.9801 0.91221 0.04893 0.0
C805 C 0.9502 0.86685 0.03918 0.0
N806 N 0.96198 0.94791 0.04261 0.0
C807 C 0.96182 0.5849 0.07224 0.0
C808 C 0.9398 0.72133 0.08924 0.0
C809 C 0.95108 0.64435 0.09638 0.0
C810 C 0.96317 0.57927 0.08757 0.0
C811 C 0.93972 0.72688 0.07379 0.0
N812 N 0.94909 0.65392 0.06547 0.0
H813 H 0.97143 0.53432 0.06584 0.0
H814 H 0.93175 0.789 0.06857 0.0
H815 H 0.99032 0.75965 0.05438 0.0
H816 H 0.93406 0.8702 0.03478 0.0
O817 O 0.97463 0.59066 0.03982 0.0
O818 O 0.95114 0.63522 0.02273 0.0
O819 O 0.91793 0.71784 0.04373 0.0
C820 C 0.96942 0.59264 0.02594 0.0
H821 H 0.89974 0.34879 0.0339 0.0
H822 H 0.99289 0.9571 0.05355 0.0
H823 H 0.93088 0.77628 0.09547 0.0
H824 H 0.97377 0.52438 0.09242 0.0
Co825 Co 0.30148 0.62959 0.04462 0.0
C826 C 0.30436 0.84613 0.04677 0.0
C827 C 0.33259 0.78665 0.0364 0.0
C828 C 0.33302 0.88929 0.03525 0.0
N829 N 0.31456 0.76006 0.04361 0.0
N830 N 0.31503 0.92615 0.04155 0.0
H831 H 0.28884 0.8495 0.05215 0.0
H832 H 0.34383 0.73511 0.03144 0.0
C833 C 0.33503 0.49102 0.05556 0.0
O834 O 0.32022 0.46427 0.06511 0.0
N835 N 0.2881 0.49795 0.04498 0.0
C836 C 0.27017 0.46622 0.05193 0.0
C837 C 0.26882 0.36415 0.0506 0.0
C838 C 0.29662 0.41489 0.03885 0.0
N839 N 0.28566 0.33192 0.04255 0.0
C840 C 0.27994 0.66084 0.07256 0.0
C841 C 0.31684 0.67616 0.08941 0.0
C842 C 0.29686 0.6835 0.09653 0.0
C843 C 0.27823 0.67776 0.08777 0.0
C844 C 0.31776 0.66352 0.07414 0.0
N845 N 0.29952 0.64741 0.06603 0.0
H846 H 0.26548 0.66189 0.06599 0.0
H847 H 0.33333 0.66556 0.06888 0.0
H848 H 0.25903 0.51201 0.05796 0.0
H849 H 0.31138 0.4143 0.03252 0.0
O850 O 0.27439 0.6892 0.03915 0.0
O851 O 0.29829 0.6316 0.02325 0.0
O852 O 0.33087 0.56126 0.04632 0.0
C853 C 0.2801 0.67766 0.02547 0.0
H854 H 0.34489 0.93285 0.02937 0.0
H855 H 0.25709 0.31688 0.05596 0.0
H856 H 0.3318 0.679 0.0955 0.0
H857 H 0.26243 0.6875 0.09258 0.0
Co858 Co 0.94771 0.62007 0.21352 0.0
C859 C 0.94498 0.83845 0.20991 0.0
C860 C 0.9157 0.77963 0.21869 0.0
C861 C 0.91454 0.88215 0.21894 0.0
N862 N 0.93469 0.7519 0.21275 0.0
N863 N 0.93299 0.91872 0.21335 0.0
H864 H 0.96171 0.84359 0.20688 0.0
H865 H 0.90408 0.72956 0.22353 0.0
C866 C 0.90201 0.56287 0.20556 0.0
O867 O 0.90166 0.6304 0.19507 0.0
N868 N 0.96065 0.4893 0.21455 0.0
C869 C 0.98022 0.46336 0.20946 0.0
C870 C 0.98166 0.36097 0.20927 0.0
C871 C 0.95057 0.4026 0.21754 0.0
N872 N 0.96287 0.32313 0.21416 0.0
C873 C 0.96188 0.68036 0.18466 0.0
C874 C 0.93986 0.5378 0.16877 0.0
C875 C 0.95139 0.61095 0.161 0.0
C876 C 0.96303 0.68095 0.16927 0.0
C877 C 0.93996 0.53748 0.18421 0.0
N878 N 0.94943 0.61292 0.19197 0.0
H879 H 0.97144 0.73335 0.19066 0.0
H880 H 0.93198 0.4773 0.18987 0.0
H881 H 0.99213 0.51498 0.20534 0.0
H882 H 0.93405 0.39686 0.22115 0.0
O883 O 0.9753 0.68078 0.2174 0.0
O884 O 0.95183 0.63853 0.23461 0.0
O885 O 0.91839 0.55449 0.21399 0.0
C886 C 0.97013 0.68022 0.2313 0.0
H887 H 0.90158 0.92625 0.22351 0.0
H888 H 0.99522 0.31792 0.20535 0.0
H889 H 0.93042 0.48203 0.1631 0.0
H890 H 0.97306 0.73598 0.16391 0.0
Co891 Co 0.29737 0.66894 0.21372 0.0
C892 C 0.29916 0.44946 0.21169 0.0
C893 C 0.33013 0.50929 0.21677 0.0
C894 C 0.33104 0.40715 0.21817 0.0
N895 N 0.31018 0.53626 0.21237 0.0
N896 N 0.3114 0.37016 0.21519 0.0
H897 H 0.28212 0.44431 0.20949 0.0
H898 H 0.34277 0.55998 0.21999 0.0
C899 C 0.341 0.72734 0.20319 0.0
O900 O 0.33896 0.66032 0.19271 0.0
N901 N 0.28473 0.79957 0.21591 0.0
C902 C 0.26511 0.82925 0.21134 0.0
C903 C 0.26397 0.9315 0.21248 0.0
C904 C 0.29507 0.88341 0.21999 0.0
N905 N 0.28291 0.96504 0.21779 0.0
C906 C 0.28778 0.60276 0.1839 0.0
C907 C 0.29853 0.77837 0.16995 0.0
C908 C 0.29325 0.69562 0.16121 0.0
C909 C 0.28747 0.6074 0.16849 0.0
C910 C 0.29958 0.76915 0.18531 0.0
N911 N 0.29484 0.6811 0.19217 0.0
H912 H 0.2824 0.53543 0.18904 0.0
H913 H 0.30473 0.83294 0.19162 0.0
H914 H 0.25308 0.78088 0.20655 0.0
H915 H 0.3116 0.88586 0.22371 0.0
O916 O 0.2698 0.60941 0.21788 0.0
O917 O 0.29428 0.6467 0.23477 0.0
O918 O 0.32679 0.73389 0.21332 0.0
C919 C 0.27559 0.60772 0.23169 0.0
H920 H 0.34462 0.36419 0.22211 0.0
H921 H 0.25088 0.97795 0.20864 0.0
H922 H 0.3019 0.85013 0.16508 0.0
H923 H 0.28295 0.54141 0.16238 0.0
Co924 Co 0.04241 0.32842 0.96334 0.0
C925 C 0.045 0.54689 0.96067 0.0
C926 C 0.07246 0.4894 0.97212 0.0
C927 C 0.07344 0.59201 0.97234 0.0
N928 N 0.0549 0.46091 0.9644 0.0
N929 N 0.05606 0.62728 0.96518 0.0
H930 H 0.02929 0.5517 0.95566 0.0
H931 H 0.08312 0.43959 0.97798 0.0
C932 C 0.09007 0.28425 0.95825 0.0
O933 O 0.09182 0.36298 0.94973 0.0
N934 N 0.02965 0.19754 0.96246 0.0
C935 C 0.01164 0.17066 0.95517 0.0
C936 C 0.01035 0.068 0.95504 0.0
C937 C 0.03888 0.11163 0.96678 0.0
N938 N 0.02767 0.03169 0.96219 0.0
C939 C 0.02771 0.39562 0.935 0.0
C940 C 0.0554 0.28402 0.91789 0.0
C941 C 0.04227 0.35503 0.91094 0.0
C942 C 0.02761 0.40783 0.9197 0.0
C943 C 0.05459 0.27247 0.93326 0.0
N944 N 0.04204 0.33341 0.94174 0.0
H945 H 0.01595 0.43568 0.94136 0.0
H946 H 0.06405 0.21414 0.93822 0.0
H947 H 0.0009 0.22177 0.94962 0.0
H948 H 0.05382 0.10709 0.97279 0.0
O949 O 0.01446 0.38673 0.96742 0.0
O950 O 0.03741 0.33478 0.9844 0.0
O951 O 0.07191 0.26285 0.96407 0.0
C952 C 0.01923 0.37838 0.98136 0.0
H953 H 0.08517 0.63709 0.97811 0.0
H954 H 0.99841 0.02352 0.94936 0.0
H955 H 0.06637 0.2382 0.91157 0.0
H956 H 0.01595 0.45773 0.91479 0.0
Co957 Co 0.70244 0.40173 0.96041 0.0
C958 C 0.69943 0.18435 0.95895 0.0
C959 C 0.67106 0.24622 0.96883 0.0
C960 C 0.67002 0.14366 0.96977 0.0
N961 N 0.68956 0.27124 0.96207 0.0
N962 N 0.68803 0.10515 0.96369 0.0
H963 H 0.71528 0.1794 0.95406 0.0
H964 H 0.65959 0.29865 0.97331 0.0
C965 C 0.66798 0.53548 0.94955 0.0
O966 O 0.68217 0.56086 0.93948 0.0
N967 N 0.71558 0.53379 0.95941 0.0
C968 C 0.73393 0.56403 0.95284 0.0
C969 C 0.73527 0.66623 0.95378 0.0
C970 C 0.70691 0.6179 0.9651 0.0
N971 N 0.71809 0.70016 0.96134 0.0
C972 C 0.72253 0.37357 0.93191 0.0
C973 C 0.68483 0.34505 0.91626 0.0
C974 C 0.70436 0.34682 0.90863 0.0
C975 C 0.72345 0.35791 0.91666 0.0
C976 C 0.68471 0.35929 0.93153 0.0
N977 N 0.70324 0.38162 0.93902 0.0
H978 H 0.73737 0.3761 0.93801 0.0
H979 H 0.66958 0.3533 0.93732 0.0
H980 H 0.74565 0.51689 0.94761 0.0
H981 H 0.69184 0.61944 0.97104 0.0
O982 O 0.72987 0.34388 0.96518 0.0
O983 O 0.70698 0.402 0.98172 0.0
O984 O 0.67289 0.46871 0.95918 0.0
C985 C 0.72518 0.3571 0.979 0.0
H986 H 0.65717 0.10114 0.97477 0.0
H987 H 0.74769 0.71229 0.94895 0.0
H988 H 0.66983 0.33184 0.9105 0.0
H989 H 0.73893 0.35515 0.91119 0.0
Co990 Co 0.04839 0.41398 0.79426 0.0
C991 C 0.05102 0.19527 0.79718 0.0
C992 C 0.08049 0.25484 0.78885 0.0
C993 C 0.08175 0.15228 0.78855 0.0
N994 N 0.06132 0.282 0.79457 0.0
N995 N 0.06319 0.11538 0.7939 0.0
H996 H 0.03422 0.18961 0.80003 0.0
H997 H 0.09226 0.30537 0.78429 0.0
C998 C 0.09416 0.47015 0.80268 0.0
O999 O 0.09458 0.40249 0.81315 0.0
N1000 N 0.03561 0.54494 0.79367 0.0
C1001 C 0.01617 0.57114 0.79896 0.0
C1002 C 0.01481 0.67356 0.79911 0.0
C1003 C 0.04568 0.63131 0.79053 0.0
N1004 N 0.03352 0.71099 0.79399 0.0
C1005 C 0.0335 0.3472 0.82263 0.0
C1006 C 0.05529 0.48516 0.83956 0.0
C1007 C 0.04382 0.40927 0.84674 0.0
C1008 C 0.03232 0.34162 0.838 0.0
C1009 C 0.05556 0.48939 0.8241 0.0
N1010 N 0.04615 0.41627 0.81582 0.0
H1011 H 0.02386 0.29661 0.81626 0.0
H1012 H 0.06371 0.55077 0.81885 0.0
H1013 H 0.00429 0.51966 0.80316 0.0
H1014 H 0.06209 0.63658 0.78667 0.0
O1015 O 0.02081 0.35463 0.78961 0.0
O1016 O 0.04502 0.40098 0.77311 0.0
O1017 O 0.07769 0.47926 0.79436 0.0
C1018 C 0.0265 0.35944 0.7758 0.0
H1019 H 0.0949 0.10839 0.7842 0.0
H1020 H 0.00136 0.71692 0.80312 0.0
H1021 H 0.06437 0.53988 0.84572 0.0
H1022 H 0.02235 0.28474 0.84298 0.0
Co1023 Co 0.70832 0.30901 0.7924 0.0
C1024 C 0.70648 0.52914 0.79371 0.0
C1025 C 0.676 0.47024 0.78714 0.0
C1026 C 0.67489 0.57284 0.78672 0.0
N1027 N 0.69564 0.44239 0.79208 0.0
N1028 N 0.69416 0.60895 0.79081 0.0
H1029 H 0.72344 0.5349 0.79617 0.0
H1030 H 0.66365 0.42038 0.78319 0.0
C1031 C 0.6622 0.25749 0.79996 0.0
O1032 O 0.66192 0.32908 0.80985 0.0
N1033 N 0.72121 0.17798 0.79229 0.0
C1034 C 0.73959 0.15007 0.79905 0.0
C1035 C 0.74095 0.04748 0.79875 0.0
C1036 C 0.71186 0.09271 0.78778 0.0
N1037 N 0.72341 0.01221 0.79176 0.0
C1038 C 0.71881 0.38338 0.82139 0.0
C1039 C 0.70007 0.23017 0.83715 0.0
C1040 C 0.70835 0.31219 0.84478 0.0
C1041 C 0.71823 0.38837 0.83677 0.0
C1042 C 0.70066 0.22903 0.8217 0.0
N1043 N 0.70899 0.30759 0.81397 0.0
H1044 H 0.72737 0.44033 0.81553 0.0
H1045 H 0.69412 0.16541 0.81596 0.0
H1046 H 0.75046 0.20023 0.80467 0.0
H1047 H 0.6965 0.0889 0.78226 0.0
O1048 O 0.73619 0.36766 0.78848 0.0
O1049 O 0.71281 0.32048 0.7714 0.0
O1050 O 0.67893 0.24329 0.79203 0.0
C1051 C 0.73112 0.36255 0.77454 0.0
H1052 H 0.66146 0.61722 0.78289 0.0
H1053 H 0.75304 1.00217 0.80412 0.0
H1054 H 0.69277 0.16876 0.84305 0.0
H1055 H 0.72554 0.45103 0.84239 0.0
C1056 C 0.4576 0.25448 0.12059 0.0
C1057 C 0.45472 0.16869 0.11185 0.0
C1058 C 0.45751 0.24899 0.13608 0.0
C1059 C 0.45463 0.15758 0.1433 0.0
H1060 H 0.46027 0.32611 0.11543 0.0
H1061 H 0.45988 0.31635 0.14245 0.0
S1062 S 0.44484 0.91292 0.1258 0.0
N1063 N 0.44759 0.99052 0.11179 0.0
N1064 N 0.44795 0.98073 0.14087 0.0
C1065 C 0.45145 0.07177 0.1348 0.0
C1066 C 0.45138 0.07717 0.11908 0.0
C1067 C 0.77428 0.13204 0.12062 0.0
C1068 C 0.79363 0.12485 0.11265 0.0
C1069 C 0.77438 0.14321 0.13604 0.0
C1070 C 0.79382 0.15 0.14395 0.0
H1071 H 0.75899 0.12816 0.1149 0.0
H1072 H 0.75915 0.14734 0.14182 0.0
S1073 S 0.84875 0.13698 0.12819 0.0
N1074 N 0.83267 0.12561 0.11374 0.0
N1075 N 0.83284 0.14861 0.1427 0.0
C1076 C 0.81324 0.14388 0.13608 0.0
C1077 C 0.81314 0.13068 0.12043 0.0
C1078 C 0.52702 0.87622 0.8867 0.0
C1079 C 0.54645 0.8629 0.89443 0.0
C1080 C 0.52675 0.88602 0.87128 0.0
C1081 C 0.54593 0.88444 0.86306 0.0
H1082 H 0.51189 0.87883 0.89262 0.0
H1083 H 0.51144 0.89641 0.86576 0.0
S1084 S 0.60102 0.85096 0.87802 0.0
N1085 N 0.58534 0.8481 0.89273 0.0
N1086 N 0.58484 0.86689 0.86373 0.0
C1087 C 0.56546 0.87091 0.87064 0.0
C1088 C 0.56571 0.85981 0.88633 0.0
C1089 C 0.2075 0.7916 0.87171 0.0
C1090 C 0.20475 0.87328 0.86217 0.0
C1091 C 0.20763 0.80406 0.88711 0.0
C1092 C 0.205 0.89863 0.89359 0.0
H1093 H 0.20992 0.71767 0.86725 0.0
H1094 H 0.20972 0.73891 0.89401 0.0
S1095 S 0.19684 0.13647 0.87349 0.0
N1096 N 0.19847 0.05161 0.86036 0.0
N1097 N 0.19984 0.07556 0.88918 0.0
C1098 C 0.20215 0.98082 0.88416 0.0
C1099 C 0.20178 0.96803 0.86852 0.0
C1100 C 0.45737 0.54894 0.63394 0.0
C1101 C 0.4595 0.63015 0.64364 0.0
C1102 C 0.45732 0.56219 0.6186 0.0
C1103 C 0.45966 0.65713 0.6122 0.0
H1104 H 0.4559 0.474 0.63821 0.0
H1105 H 0.45526 0.49708 0.61169 0.0
S1106 S 0.46579 0.89491 0.63267 0.0
N1107 N 0.46335 0.80985 0.64571 0.0
N1108 N 0.46463 0.83391 0.61687 0.0
C1109 C 0.46194 0.73916 0.62175 0.0
C1110 C 0.46162 0.72584 0.63743 0.0
C1111 C 0.81516 0.62811 0.63567 0.0
C1112 C 0.79622 0.63683 0.64405 0.0
C1113 C 0.8143 0.61359 0.62031 0.0
C1114 C 0.79447 0.60892 0.61284 0.0
H1115 H 0.83071 0.63053 0.64107 0.0
H1116 H 0.82922 0.60727 0.61421 0.0
S1117 S 0.74035 0.62909 0.62973 0.0
N1118 N 0.75715 0.64032 0.64378 0.0
N1119 N 0.75554 0.6144 0.61493 0.0
C1120 C 0.77546 0.61853 0.62109 0.0
C1121 C 0.77633 0.63209 0.6367 0.0
C1122 C 0.53435 0.49362 0.38561 0.0
C1123 C 0.54663 0.42034 0.39284 0.0
C1124 C 0.53396 0.49969 0.37012 0.0
C1125 C 0.54549 0.43138 0.36143 0.0
H1126 H 0.52506 0.54664 0.39198 0.0
H1127 H 0.52424 0.55667 0.36491 0.0
S1128 S 0.58006 0.22608 0.37502 0.0
N1129 N 0.5707 0.27906 0.39017 0.0
N1130 N 0.5697 0.28952 0.3611 0.0
C1131 C 0.55785 0.35819 0.36854 0.0
C1132 C 0.5585 0.35293 0.38425 0.0
C1133 C 0.19265 0.3644 0.37119 0.0
C1134 C 0.21191 0.35962 0.36307 0.0
C1135 C 0.1928 0.38231 0.38647 0.0
C1136 C 0.21223 0.3954 0.39423 0.0
H1137 H 0.1773 0.356 0.36565 0.0
H1138 H 0.17759 0.385 0.39227 0.0
S1139 S 0.26711 0.3882 0.37814 0.0
N1140 N 0.25098 0.36677 0.364 0.0
N1141 N 0.25124 0.40328 0.39258 0.0
C1142 C 0.23161 0.39032 0.38624 0.0
C1143 C 0.23146 0.37184 0.37071 0.0
C1144 C 0.95352 0.21252 0.63748 0.0
C1145 C 0.95413 0.11737 0.64404 0.0
C1146 C 0.95397 0.22486 0.6221 0.0
C1147 C 0.95465 0.14256 0.61251 0.0
H1148 H 0.95267 0.27872 0.64427 0.0
H1149 H 0.95412 0.29987 0.61776 0.0
S1150 S 0.95531 0.87665 0.62387 0.0
N1151 N 0.95563 0.93893 0.63956 0.0
N1152 N 0.95442 0.96169 0.61075 0.0
C1153 C 0.95457 0.04671 0.61889 0.0
C1154 C 0.95473 0.03421 0.63458 0.0
C1155 C 0.27716 0.1357 0.62011 0.0
C1156 C 0.29686 0.12031 0.61282 0.0
C1157 C 0.27629 0.14763 0.63549 0.0
C1158 C 0.29514 0.14637 0.64409 0.0
H1159 H 0.26231 0.13896 0.61386 0.0
H1160 H 0.2608 0.15986 0.64066 0.0
S1161 S 0.35069 0.10717 0.63037 0.0
N1162 N 0.33559 0.10301 0.61536 0.0
N1163 N 0.33399 0.12619 0.64427 0.0
C1164 C 0.31491 0.13026 0.63696 0.0
C1165 C 0.31576 0.11681 0.62132 0.0
C1166 C 0.043 0.95833 0.38818 0.0
C1167 C 0.0427 0.86182 0.39425 0.0
C1168 C 0.04277 0.97369 0.37286 0.0
C1169 C 0.04223 0.89316 0.36293 0.0
H1170 H 0.04349 0.02285 0.39535 0.0
H1171 H 0.04267 0.04941 0.36877 0.0
S1172 S 0.0417 0.62539 0.37306 0.0
N1173 N 0.04168 0.68435 0.38906 0.0
N1174 N 0.04219 0.71299 0.3603 0.0
C1175 C 0.04222 0.79615 0.36884 0.0
C1176 C 0.04229 0.78054 0.38446 0.0
C1177 C 0.70263 0.9511 0.36961 0.0
C1178 C 0.70399 0.85698 0.3628 0.0
C1179 C 0.70264 0.96143 0.38502 0.0
C1180 C 0.70372 0.87802 0.39438 0.0
H1181 H 0.70143 0.01793 0.36298 0.0
H1182 H 0.70206 0.03583 0.38959 0.0
S1183 S 0.70697 0.61413 0.3823 0.0
N1184 N 0.70686 0.67836 0.36677 0.0
N1185 N 0.70525 0.69721 0.39566 0.0
C1186 C 0.7047 0.78313 0.38776 0.0
C1187 C 0.70515 0.77273 0.37203 0.0
C1188 C 0.95086 0.7097 0.1374 0.0
C1189 C 0.95123 0.61626 0.14448 0.0
C1190 C 0.95085 0.71806 0.12197 0.0
C1191 C 0.95077 0.63335 0.11283 0.0
H1192 H 0.95045 0.77764 0.14383 0.0
H1193 H 0.95116 0.79192 0.11721 0.0
S1194 S 0.95096 0.37047 0.12567 0.0
N1195 N 0.95208 0.4367 0.14099 0.0
N1196 N 0.94985 0.45218 0.1121 0.0
C1197 C 0.95061 0.5392 0.11974 0.0
C1198 C 0.95131 0.53071 0.13548 0.0
C1199 C 0.27943 0.64321 0.12085 0.0
C1200 C 0.2954 0.69489 0.11294 0.0
C1201 C 0.27851 0.64654 0.13631 0.0
C1202 C 0.29378 0.69993 0.14467 0.0
H1203 H 0.26777 0.59756 0.1151 0.0
H1204 H 0.26572 0.60589 0.14173 0.0
S1205 S 0.33817 0.85366 0.12929 0.0
N1206 N 0.32564 0.80935 0.11464 0.0
N1207 N 0.32531 0.80737 0.14365 0.0
C1208 C 0.30965 0.7535 0.13688 0.0
C1209 C 0.31016 0.75269 0.12108 0.0
C1210 C 0.04544 0.30344 0.86958 0.0
C1211 C 0.04382 0.39875 0.86318 0.0
C1212 C 0.04507 0.29008 0.88494 0.0
C1213 C 0.04325 0.37152 0.89463 0.0
H1214 H 0.04706 0.23812 0.86266 0.0
H1215 H 0.04588 0.21496 0.88922 0.0
S1216 S 0.03924 0.63729 0.88364 0.0
N1217 N 0.04017 0.57621 0.86784 0.0
N1218 N 0.04085 0.55178 0.89668 0.0
C1219 C 0.04207 0.46756 0.88841 0.0
C1220 C 0.04209 0.48103 0.87273 0.0
C1221 C 0.71729 0.2508 0.87016 0.0
C1222 C 0.70661 0.31945 0.86102 0.0
C1223 C 0.71658 0.26006 0.8856 0.0
C1224 C 0.7048 0.337 0.89235 0.0
H1225 H 0.72657 0.19086 0.86532 0.0
H1226 H 0.72521 0.20654 0.89232 0.0
S1227 S 0.67368 0.53402 0.87324 0.0
N1228 N 0.68382 0.46598 0.85974 0.0
N1229 N 0.68211 0.48221 0.88875 0.0
C1230 C 0.69378 0.40496 0.88331 0.0
C1231 C 0.6948 0.39652 0.86763 0.0
C1232 C 0.49774 0.02159 0.98879 0.0
C1233 C 0.51554 0.96281 0.99294 0.0
C1234 C 0.48563 0.07415 0.99929 0.0
C1235 C 0.49082 0.07042 0.0144 0.0
H1236 H 0.49317 0.02794 0.97728 0.0
H1237 H 0.47204 0.11771 0.99552 0.0
S1238 S 0.53567 0.9259 0.03115 0.0
N1239 N 0.53757 0.90322 0.01329 0.0
N1240 N 0.51495 1.00159 0.03302 0.0
C1241 C 0.50858 0.01178 0.01873 0.0
C1242 C 0.52088 0.95812 0.00802 0.0
C1243 C 0.74405 0.26397 0.01666 0.0
C1244 C 0.76338 0.21371 0.01336 0.0
C1245 C 0.73205 0.31244 0.00561 0.0
C1246 C 0.7389 0.31279 0.9908 0.0
H1247 H 0.73813 0.26635 0.0279 0.0
H1248 H 0.71719 0.34892 0.0087 0.0
S1249 S 0.78858 0.19352 0.9763 0.0
N1250 N 0.78886 0.16843 0.99414 0.0
N1251 N 0.76655 0.25928 0.97349 0.0
C1252 C 0.7583 0.26349 0.98738 0.0
C1253 C 0.77045 0.21403 0.9986 0.0
C1254 C 0.5057 0.25127 0.23847 0.0
C1255 C 0.48722 0.19609 0.24221 0.0
C1256 C 0.51731 0.30481 0.24912 0.0
C1257 C 0.51093 0.30584 0.26402 0.0
H1258 H 0.51119 0.25452 0.22712 0.0
H1259 H 0.5314 0.34582 0.24561 0.0
S1260 S 0.46401 0.17147 0.27979 0.0
N1261 N 0.46332 0.14441 0.26201 0.0
N1262 N 0.48507 0.24465 0.28205 0.0
C1263 C 0.49259 0.25014 0.26798 0.0
C1264 C 0.48078 0.19536 0.2571 0.0
C1265 C 0.74494 1.00107 0.2389 0.0
C1266 C 0.76271 0.06073 0.24276 0.0
C1267 C 0.73285 0.95081 0.24967 0.0
C1268 C 0.73805 0.9578 0.26477 0.0
H1269 H 0.74038 0.99214 0.22743 0.0
H1270 H 0.71931 0.90615 0.2461 0.0
S1271 S 0.7826 0.10741 0.28082 0.0
N1272 N 0.78457 0.12572 0.26285 0.0
N1273 N 0.76198 0.03168 0.28304 0.0
C1274 C 0.75571 0.01783 0.2688 0.0
C1275 C 0.76799 0.06914 0.25783 0.0
C1276 C 0.23812 0.83756 0.00618 0.0
C1277 C 0.24437 0.83534 0.99127 0.0
C1278 C 0.24946 0.78422 0.01699 0.0
C1279 C 0.26764 0.72639 0.01341 0.0
H1280 H 0.22419 0.88016 0.00959 0.0
H1281 H 0.24396 0.78944 0.02832 0.0
S1282 S 0.29069 0.69443 0.97591 0.0
N1283 N 0.26994 0.76927 0.97342 0.0
N1284 N 0.29132 0.66988 0.99377 0.0
C1285 C 0.2741 0.72324 0.99853 0.0
C1286 C 0.26249 0.77752 0.98747 0.0
C1287 C 0.5063 0.75106 0.73935 0.0
C1288 C 0.48943 0.68555 0.74299 0.0
C1289 C 0.51659 0.80891 0.75016 0.0
C1290 C 0.51043 0.80404 0.76509 0.0
H1291 H 0.51151 0.75881 0.72799 0.0
H1292 H 0.52958 0.85741 0.74676 0.0
S1293 S 0.46742 0.6429 0.78056 0.0
N1294 N 0.46721 0.61846 0.7627 0.0
N1295 N 0.48647 0.72679 0.78299 0.0
C1296 C 0.4936 0.73864 0.76891 0.0
C1297 C 0.48316 0.67951 0.75789 0.0
C1298 C 0.23989 0.0275 0.73866 0.0
C1299 C 0.25821 0.08375 0.74245 0.0
C1300 C 0.22869 0.97149 0.74927 0.0
C1301 C 0.23541 0.969 0.76411 0.0
H1302 H 0.23428 0.02536 0.72733 0.0
H1303 H 0.21468 0.92977 0.74578 0.0
S1304 S 0.282 0.10594 0.77996 0.0
N1305 N 0.28219 0.13529 0.76227 0.0
N1306 N 0.26136 0.03029 0.78212 0.0
C1307 C 0.25359 0.02581 0.76809 0.0
C1308 C 0.2649 0.08314 0.75731 0.0
C1309 C 0.50713 0.51354 0.51641 0.0
C1310 C 0.48738 0.55998 0.51302 0.0
C1311 C 0.51892 0.46158 0.50563 0.0
C1312 C 0.51143 0.45374 0.491 0.0
H1313 H 0.51358 0.51704 0.52752 0.0
H1314 H 0.53415 0.42862 0.50875 0.0
S1315 S 0.46033 0.55922 0.47643 0.0
N1316 N 0.46072 0.59273 0.49396 0.0
N1317 N 0.48266 0.49527 0.4738 0.0
C1318 C 0.49158 0.49887 0.48751 0.0
C1319 C 0.47964 0.55193 0.49846 0.0
C1320 C 0.75324 0.74774 0.48944 0.0
C1321 C 0.73605 0.81078 0.49341 0.0
C1322 C 0.76492 0.69446 0.50011 0.0
C1323 C 0.75988 0.70161 0.51522 0.0
H1324 H 0.7576 0.73825 0.47794 0.0
H1325 H 0.778 0.64726 0.49647 0.0
S1326 S 0.717 0.86004 0.53155 0.0
N1327 N 0.71505 0.87954 0.5136 0.0
N1328 N 0.73687 0.7798 0.53364 0.0
C1329 C 0.74286 0.76522 0.51936 0.0
C1330 C 0.73101 0.81967 0.50848 0.0
C1331 C 0.76118 0.47718 0.76724 0.0
C1332 C 0.74413 0.41395 0.76307 0.0
C1333 C 0.77267 0.53268 0.75672 0.0
C1334 C 0.7675 0.52767 0.7416 0.0
H1335 H 0.76555 0.48506 0.77877 0.0
H1336 H 0.78567 0.57994 0.76049 0.0
S1337 S 0.72476 0.37051 0.7248 0.0
N1338 N 0.72308 0.34778 0.74267 0.0
N1339 N 0.74444 0.45186 0.72297 0.0
C1340 C 0.75057 0.46415 0.73727 0.0
C1341 C 0.73897 0.40737 0.74797 0.0
C1342 C 0.27492 0.24343 0.50043 0.0
C1343 C 0.26706 0.2304 0.51487 0.0
C1344 C 0.26322 0.29734 0.48983 0.0
C1345 C 0.24321 0.34091 0.49322 0.0
H1346 H 0.29033 0.21248 0.49728 0.0
H1347 H 0.26995 0.30452 0.47885 0.0
S1348 S 0.21518 0.32713 0.52935 0.0
N1349 N 0.23774 0.26476 0.53194 0.0
N1350 N 0.21587 0.36563 0.51205 0.0
C1351 C 0.23511 0.32823 0.5076 0.0
C1352 C 0.24699 0.27309 0.5184 0.0
C1353 C 0.27173 0.53079 0.25679 0.0
C1354 C 0.26272 0.55319 0.24292 0.0
C1355 C 0.26054 0.4731 0.26718 0.0
C1356 C 0.2399 0.435 0.26413 0.0
H1357 H 0.28768 0.55694 0.25962 0.0
H1358 H 0.26816 0.45841 0.27773 0.0
S1359 S 0.20873 0.47512 0.22964 0.0
N1360 N 0.2316 0.53442 0.22683 0.0
N1361 N 0.21063 0.42664 0.24634 0.0
C1362 C 0.23061 0.45758 0.25036 0.0
C1363 C 0.24199 0.51646 0.23977 0.0
C1364 C 0.99179 0.99332 0.48912 0.0
C1365 C 0.00979 0.93508 0.49301 0.0
C1366 C 0.98082 0.05106 0.49965 0.0
C1367 C 0.98743 0.05335 0.51452 0.0
H1368 H 0.98628 0.99583 0.47777 0.0
H1369 H 0.96707 0.0943 0.49608 0.0
S1370 S 0.03287 0.90975 0.53067 0.0
N1371 N 0.03314 0.88034 0.51297 0.0
N1372 N 0.01272 0.98844 0.53269 0.0
C1373 C 0.00519 0.99404 0.51861 0.0
C1374 C 0.01629 0.93501 0.5079 0.0
C1375 C 0.98139 0.21595 0.7569 0.0
C1376 C 0.98843 0.20818 0.74218 0.0
C1377 C 0.99363 0.26637 0.76759 0.0
C1378 C 0.01341 0.31141 0.76402 0.0
H1379 H 0.96619 0.18354 0.76022 0.0
H1380 H 0.98749 0.26967 0.77877 0.0
S1381 S 0.03933 0.31136 0.72708 0.0
N1382 N 0.01671 0.24925 0.72463 0.0
N1383 N 0.03959 0.34371 0.74466 0.0
C1384 C 0.02069 0.30401 0.74934 0.0
C1385 C 0.00825 0.25248 0.73846 0.0
C1386 C 0.98883 0.78762 0.26809 0.0
C1387 C 0.00703 0.84446 0.26424 0.0
C1388 C 0.97722 0.73367 0.25745 0.0
C1389 C 0.98332 0.73398 0.24249 0.0
H1390 H 0.98362 0.78339 0.27948 0.0
H1391 H 0.96335 0.6913 0.26102 0.0
S1392 S 0.02938 0.87327 0.22646 0.0
N1393 N 0.03031 0.89926 0.24427 0.0
N1394 N 0.00859 0.79836 0.22431 0.0
C1395 C 0.00138 0.7913 0.23844 0.0
C1396 C 0.01317 0.84642 0.24928 0.0
C1397 C 0.98892 0.49102 0.98895 0.0
C1398 C 0.00607 0.42784 0.99296 0.0
C1399 C 0.97733 0.54503 0.99961 0.0
C1400 C 0.98248 0.53861 0.01472 0.0
H1401 H 0.98455 0.50009 0.97745 0.0
H1402 H 0.96427 0.5924 0.99595 0.0
S1403 S 0.02543 0.38073 0.03114 0.0
N1404 N 0.02718 0.36003 0.01322 0.0
N1405 N 0.00562 0.46124 0.03316 0.0
C1406 C 0.99948 0.47493 0.01889 0.0
C1407 C 0.01119 0.41967 0.00805 0.0
C1408 C 0.44255 0.71033 0.03038 0.0
C1409 C 0.44618 0.77532 0.04231 0.0
C1410 C 0.45007 0.61194 0.03072 0.0
C1411 C 0.46157 0.57524 0.04295 0.0
H1412 H 0.4342 0.73623 0.02062 0.0
H1413 H 0.44709 0.56434 0.02129 0.0
S1414 S 0.47317 0.71209 0.07764 0.0
N1415 N 0.46057 0.79381 0.06712 0.0
N1416 N 0.47476 0.60922 0.06772 0.0
C1417 C 0.46491 0.63882 0.05506 0.0
C1418 C 0.45719 0.73874 0.05475 0.0
C1419 C 0.81171 0.68927 0.04566 0.0
C1420 C 0.7909 0.71466 0.04077 0.0
C1421 C 0.81874 0.59009 0.04567 0.0
C1422 C 0.80523 0.51301 0.04075 0.0
H1423 H 0.82239 0.7462 0.04989 0.0
H1424 H 0.8346 0.57318 0.04993 0.0
S1425 S 0.7506 0.54326 0.0247 0.0
N1426 N 0.75771 0.65689 0.02963 0.0
N1427 N 0.77101 0.47073 0.02924 0.0
C1428 C 0.78476 0.53828 0.0352 0.0
C1429 C 0.77756 0.63906 0.03533 0.0
C1430 C 0.47233 0.63165 0.21901 0.0
C1431 C 0.45928 0.70518 0.21256 0.0
C1432 C 0.46545 0.53236 0.21969 0.0
C1433 C 0.44529 0.50413 0.214 0.0
H1434 H 0.48779 0.65136 0.22369 0.0
H1435 H 0.47578 0.47739 0.22481 0.0
S1436 S 0.40664 0.66428 0.19418 0.0
N1437 N 0.42628 0.74022 0.19905 0.0
N1438 N 0.41331 0.55397 0.2007 0.0
C1439 C 0.43237 0.57605 0.20727 0.0
C1440 C 0.43939 0.67659 0.20645 0.0
C1441 C 0.7839 0.62914 0.2037 0.0
C1442 C 0.79039 0.56186 0.21475 0.0
C1443 C 0.79159 0.7271 0.20345 0.0
C1444 C 0.80618 0.76176 0.21415 0.0
H1445 H 0.77313 0.60549 0.19499 0.0
H1446 H 0.78625 0.77608 0.19468 0.0
S1447 S 0.827 0.61833 0.2461 0.0
N1448 N 0.8114 0.53899 0.23719 0.0
N1449 N 0.82603 0.72284 0.23654 0.0
C1450 C 0.81269 0.69588 0.22535 0.0
C1451 C 0.80474 0.59612 0.22569 0.0
C1452 C 0.53774 0.28424 0.96907 0.0
C1453 C 0.55881 0.25878 0.96478 0.0
C1454 C 0.53074 0.3834 0.96892 0.0
C1455 C 0.5446 0.46039 0.96456 0.0
H1456 H 0.52664 0.22716 0.97268 0.0
H1457 H 0.51446 0.40029 0.97234 0.0
S1458 S 0.60058 0.43169 0.951 0.0
N1459 N 0.59298 0.31757 0.95525 0.0
N1460 N 0.57988 0.50401 0.95492 0.0
C1461 C 0.56562 0.43582 0.96009 0.0
C1462 C 0.57272 0.33495 0.96024 0.0
C1463 C 0.20778 0.37395 0.97485 0.0
C1464 C 0.21534 0.33623 0.96132 0.0
C1465 C 0.20036 0.4724 0.97612 0.0
C1466 C 0.20002 0.53693 0.96385 0.0
H1467 H 0.20782 0.32709 0.98458 0.0
H1468 H 0.19519 0.49854 0.98684 0.0
S1469 S 0.21557 0.47065 0.92552 0.0
N1470 N 0.22048 0.36889 0.93517 0.0
N1471 N 0.20635 0.553 0.93748 0.0
C1472 C 0.20706 0.49925 0.95017 0.0
C1473 C 0.21476 0.3993 0.94892 0.0
C1474 C 0.54264 0.4773 0.80451 0.0
C1475 C 0.55284 0.51426 0.79177 0.0
C1476 C 0.53494 0.37921 0.80518 0.0
C1477 C 0.53708 0.31382 0.79312 0.0
H1478 H 0.54085 0.52441 0.81413 0.0
H1479 H 0.52772 0.35372 0.81537 0.0
S1480 S 0.56051 0.37653 0.75662 0.0
N1481 N 0.56327 0.47939 0.76641 0.0
N1482 N 0.5489 0.29519 0.76771 0.0
C1483 C 0.54686 0.35031 0.7802 0.0
C1484 C 0.55472 0.45031 0.77952 0.0
C1485 C 0.18729 0.32098 0.78235 0.0
C1486 C 0.19305 0.25551 0.79381 0.0
C1487 C 0.19501 0.41912 0.78204 0.0
C1488 C 0.20882 0.45532 0.79314 0.0
H1489 H 0.1771 0.29557 0.77341 0.0
H1490 H 0.19034 0.46689 0.77295 0.0
S1491 S 0.2266 0.31687 0.82646 0.0
N1492 N 0.212 0.23591 0.8171 0.0
N1493 N 0.22646 0.41997 0.81655 0.0
C1494 C 0.21428 0.39119 0.80484 0.0
C1495 C 0.2064 0.29148 0.80516 0.0
C1496 C 0.43257 0.18917 0.54518 0.0
C1497 C 0.44626 0.26675 0.54073 0.0
C1498 C 0.43957 0.08993 0.54501 0.0
C1499 C 0.46052 0.06492 0.54038 0.0
H1500 H 0.41656 0.2057 0.54918 0.0
H1501 H 0.42872 0.03262 0.54889 0.0
S1502 S 0.50141 0.23822 0.52556 0.0
N1503 N 0.48088 0.3103 0.52999 0.0
N1504 N 0.49408 0.12399 0.52999 0.0
C1505 C 0.47406 0.14119 0.53542 0.0
C1506 C 0.46692 0.24206 0.53549 0.0
C1507 C 0.7833 0.01963 0.53705 0.0
C1508 C 0.804 0.99362 0.54212 0.0
C1509 C 0.77617 0.1187 0.53736 0.0
C1510 C 0.78956 0.19489 0.54265 0.0
H1511 H 0.77259 0.96305 0.53275 0.0
H1512 H 0.7602 0.13618 0.53335 0.0
S1513 S 0.84403 0.16379 0.55867 0.0
N1514 N 0.83704 0.05062 0.55352 0.0
N1515 N 0.82377 0.23692 0.55406 0.0
C1516 C 0.81014 0.16964 0.54792 0.0
C1517 C 0.81734 0.06896 0.54763 0.0
C1518 C 0.45918 0.01763 0.70202 0.0
C1519 C 0.44913 0.98061 0.71482 0.0
C1520 C 0.46686 0.1158 0.70131 0.0
C1521 C 0.4648 0.18128 0.71337 0.0
H1522 H 0.46085 0.97058 0.69238 0.0
H1523 H 0.47397 0.14135 0.69108 0.0
S1524 S 0.4419 0.11858 0.75001 0.0
N1525 N 0.43907 0.01562 0.74026 0.0
N1526 N 0.4533 0.19998 0.73884 0.0
C1527 C 0.4552 0.14476 0.72634 0.0
C1528 C 0.44741 0.04465 0.72709 0.0
C1529 C 0.8094 0.07589 0.72401 0.0
C1530 C 0.79495 0.04085 0.71319 0.0
C1531 C 0.81723 0.17388 0.72367 0.0
C1532 C 0.8109 0.24035 0.7125 0.0
H1533 H 0.81451 0.02736 0.73288 0.0
H1534 H 0.82794 0.19842 0.73238 0.0
S1535 S 0.77551 0.18271 0.68063 0.0
N1536 N 0.77611 0.07869 0.69031 0.0
N1537 N 0.79069 0.26246 0.68977 0.0
C1538 C 0.7969 0.20566 0.70143 0.0
C1539 C 0.78895 0.10611 0.70176 0.0
C1540 C 0.5577 0.82549 0.47459 0.0
C1541 C 0.55486 0.76018 0.46257 0.0
C1542 C 0.54992 0.92374 0.47413 0.0
C1543 C 0.53888 0.9602 0.46167 0.0
H1544 H 0.56562 0.79996 0.48454 0.0
H1545 H 0.55235 0.97135 0.48363 0.0
S1546 S 0.52963 0.8234 0.42662 0.0
N1547 N 0.54188 0.74208 0.4374 0.0
N1548 N 0.52719 0.92575 0.43656 0.0
C1549 C 0.53641 0.89642 0.44946 0.0
C1550 C 0.54441 0.79678 0.4499 0.0
C1551 C 0.19921 0.97616 0.47615 0.0
C1552 C 0.20085 0.04093 0.46397 0.0
C1553 C 0.20691 0.87786 0.4754 0.0
C1554 C 0.21666 0.8407 0.46249 0.0
H1555 H 0.1923 1.00212 0.48642 0.0
H1556 H 0.20544 0.83071 0.48504 0.0
S1557 S 0.22238 0.97616 0.427 0.0
N1558 N 0.21129 0.05799 0.43826 0.0
N1559 N 0.2258 0.87416 0.43688 0.0
C1560 C 0.21795 0.90405 0.45015 0.0
C1561 C 0.21003 1.00377 0.45089 0.0
C1562 C 0.5395 0.98444 0.30159 0.0
C1563 C 0.55482 0.01956 0.29142 0.0
C1564 C 0.53177 0.88662 0.30093 0.0
C1565 C 0.53893 0.81985 0.29001 0.0
H1566 H 0.53364 0.0329 0.31025 0.0
H1567 H 0.52043 0.86263 0.30927 0.0
S1568 S 0.5776 0.87754 0.25998 0.0
N1569 N 0.57607 0.98154 0.26963 0.0
N1570 N 0.56138 0.79797 0.26826 0.0
C1571 C 0.554 0.85457 0.2796 0.0
C1572 C 0.56198 0.9542 0.28034 0.0
C1573 C 0.21007 0.76422 0.3042 0.0
C1574 C 0.19883 0.72743 0.29185 0.0
C1575 C 0.21784 0.86222 0.30461 0.0
C1576 C 0.21474 0.92773 0.29266 0.0
H1577 H 0.21264 0.71701 0.31373 0.0
H1578 H 0.22587 0.88752 0.31453 0.0
S1579 S 0.18822 0.86555 0.2571 0.0
N1580 N 0.18625 0.76259 0.26696 0.0
N1581 N 0.2008 0.9467 0.26774 0.0
C1582 C 0.20388 0.89142 0.28012 0.0
C1583 C 0.19593 0.79147 0.27971 0.0
C1584 C 0.9732 0.64457 0.5382 0.0
C1585 C 0.95945 0.56745 0.54272 0.0
C1586 C 0.9662 0.74387 0.53817 0.0
C1587 C 0.94523 0.76918 0.54272 0.0
H1588 H 0.98938 0.62767 0.53454 0.0
H1589 H 0.97716 0.80113 0.53442 0.0
S1590 S 0.90409 0.59685 0.55729 0.0
N1591 N 0.92457 0.52416 0.553 0.0
N1592 N 0.91149 0.71079 0.55285 0.0
C1593 C 0.93153 0.6931 0.54751 0.0
C1594 C 0.93862 0.59221 0.54755 0.0
C1595 C 0.32362 0.59923 0.54589 0.0
C1596 C 0.31012 0.52195 0.54104 0.0
C1597 C 0.3166 0.69843 0.54575 0.0
C1598 C 0.29582 0.72362 0.5408 0.0
H1599 H 0.33947 0.58248 0.55018 0.0
H1600 H 0.32728 0.75553 0.54994 0.0
S1601 S 0.25555 0.55164 0.52488 0.0
N1602 N 0.27592 0.47919 0.52953 0.0
N1603 N 0.26267 0.66547 0.52969 0.0
C1604 C 0.28249 0.6478 0.53544 0.0
C1605 C 0.28966 0.54699 0.53543 0.0
C1606 C 0.93061 0.58249 0.71193 0.0
C1607 C 0.9446 0.50522 0.71609 0.0
C1608 C 0.9376 0.6817 0.71175 0.0
C1609 C 0.95883 0.70692 0.71572 0.0
H1610 H 0.91435 0.56571 0.70843 0.0
H1611 H 0.9265 0.7388 0.70812 0.0
S1612 S 0.00065 0.53461 0.72962 0.0
N1613 N 0.97988 0.46222 0.72588 0.0
N1614 N 0.99304 0.64855 0.72522 0.0
C1615 C 0.9727 0.63099 0.7204 0.0
C1616 C 0.96557 0.53016 0.72069 0.0
C1617 C 0.31389 0.70802 0.71186 0.0
C1618 C 0.29959 0.78439 0.71575 0.0
C1619 C 0.30689 0.60913 0.71089 0.0
C1620 C 0.28546 0.58282 0.71401 0.0
H1621 H 0.33043 0.72544 0.70916 0.0
H1622 H 0.31813 0.55327 0.70722 0.0
S1623 S 0.24215 0.754 0.72587 0.0
N1624 N 0.26327 0.82676 0.72348 0.0
N1625 N 0.25026 0.64028 0.72176 0.0
C1626 C 0.27109 0.65822 0.71814 0.0
C1627 C 0.27815 0.75912 0.71904 0.0
C1628 C 0.06514 0.30813 0.46226 0.0
C1629 C 0.05075 0.2313 0.46576 0.0
C1630 C 0.05814 0.40713 0.46145 0.0
C1631 C 0.03663 0.4331 0.46437 0.0
H1632 H 0.08177 0.29105 0.45976 0.0
H1633 H 0.0695 0.4634 0.45811 0.0
S1634 S 0.99304 0.26056 0.47524 0.0
N1635 N 0.01424 0.18811 0.47291 0.0
N1636 N 0.00124 0.37471 0.47153 0.0
C1637 C 0.02217 0.3572 0.46811 0.0
C1638 C 0.02922 0.25621 0.46883 0.0
C1639 C 0.68999 0.44464 0.47576 0.0
C1640 C 0.69312 0.50987 0.4638 0.0
C1641 C 0.69746 0.34619 0.47524 0.0
C1642 C 0.70843 0.30958 0.46279 0.0
H1643 H 0.68209 0.47037 0.4857 0.0
H1644 H 0.69487 0.29849 0.4847 0.0
S1645 S 0.71863 0.44696 0.42796 0.0
N1646 N 0.70647 0.52858 0.43873 0.0
N1647 N 0.72062 0.34394 0.43781 0.0
C1648 C 0.71129 0.37338 0.45065 0.0
C1649 C 0.7036 0.47337 0.45114 0.0
C1650 C 0.05588 0.36699 0.29616 0.0
C1651 C 0.03442 0.34039 0.2932 0.0
C1652 C 0.06281 0.46588 0.29514 0.0
C1653 C 0.0484 0.542 0.29138 0.0
H1654 H 0.06725 0.31134 0.29969 0.0
H1655 H 0.0794 0.48349 0.29769 0.0
S1656 S 0.9908 0.5113 0.28164 0.0
N1657 N 0.99904 0.39761 0.28568 0.0
N1658 N 0.01193 0.58422 0.28393 0.0
C1659 C 0.02691 0.51663 0.28826 0.0
C1660 C 0.01992 0.41568 0.28918 0.0
C1661 C 0.71492 0.27803 0.28811 0.0
C1662 C 0.69389 0.25254 0.29247 0.0
C1663 C 0.72188 0.37729 0.28828 0.0
C1664 C 0.70801 0.45412 0.29274 0.0
H1665 H 0.72597 0.22095 0.28442 0.0
H1666 H 0.73811 0.39439 0.28477 0.0
S1667 S 0.65239 0.42433 0.30679 0.0
N1668 N 0.65991 0.31051 0.30234 0.0
N1669 N 0.67292 0.49714 0.30272 0.0
C1670 C 0.6871 0.42925 0.29736 0.0
C1671 C 0.68005 0.32839 0.29719 0.0
C1672 C 0.96042 0.11637 0.05357 0.0
C1673 C 0.95483 0.05015 0.04215 0.0
C1674 C 0.95273 0.21445 0.05374 0.0
C1675 C 0.93906 0.25032 0.04254 0.0
H1676 H 0.97046 0.09169 0.06263 0.0
H1677 H 0.95731 0.2625 0.06281 0.0
S1678 S 0.92115 0.10994 0.00946 0.0
N1679 N 0.93583 0.0295 0.01886 0.0
N1680 N 0.92132 0.21361 0.01924 0.0
C1681 C 0.93358 0.18548 0.03094 0.0
C1682 C 0.94148 0.08559 0.03073 0.0
C1683 C 0.32198 0.10713 0.04328 0.0
C1684 C 0.30752 0.02795 0.04112 0.0
C1685 C 0.31485 0.2064 0.04332 0.0
C1686 C 0.29298 0.2303 0.04118 0.0
H1687 H 0.33884 0.09201 0.0453 0.0
H1688 H 0.32643 0.26462 0.04549 0.0
S1689 S 0.24918 0.05176 0.03296 0.0
N1690 N 0.27068 0.98124 0.03527 0.0
N1691 N 0.25735 0.16735 0.03555 0.0
C1692 C 0.27853 0.15215 0.03849 0.0
C1693 C 0.28577 0.05119 0.0384 0.0
C1694 C 0.93458 0.08603 0.22476 0.0
C1695 C 0.9401 0.0209 0.21319 0.0
C1696 C 0.94228 0.18421 0.22508 0.0
C1697 C 0.95583 0.22084 0.21388 0.0
H1698 H 0.92459 0.0604 0.23377 0.0
H1699 H 0.93778 0.23169 0.23423 0.0
S1700 S 0.97299 0.08352 0.18033 0.0
N1701 N 0.95859 1.00218 0.18974 0.0
N1702 N 0.97302 0.1863 0.19032 0.0
C1703 C 0.96108 0.15706 0.2021 0.0
C1704 C 0.95321 0.05729 0.20176 0.0
C1705 C 0.31773 0.19029 0.2119 0.0
C1706 C 0.30441 0.26839 0.21669 0.0
C1707 C 0.31079 0.09108 0.21256 0.0
C1708 C 0.29027 0.06654 0.21803 0.0
H1709 H 0.3334 0.20635 0.20727 0.0
H1710 H 0.32131 0.03342 0.20836 0.0
S1711 S 0.25048 0.24133 0.23383 0.0
N1712 N 0.27059 0.31306 0.22851 0.0
N1713 N 0.25753 0.12665 0.22946 0.0
C1714 C 0.27711 0.14334 0.2233 0.0
C1715 C 0.28418 0.24426 0.22272 0.0
C1716 C 0.02144 0.8556 0.9686 0.0
C1717 C 0.03473 0.92992 0.96265 0.0
C1718 C 0.02849 0.75639 0.96942 0.0
C1719 C 0.04904 0.72892 0.96432 0.0
H1720 H 0.00568 0.87481 0.97281 0.0
H1721 H 0.01798 0.7009 0.97422 0.0
S1722 S 0.08827 0.89228 0.94558 0.0
N1723 N 0.06824 0.96728 0.95006 0.0
N1724 N 0.08158 0.78117 0.95186 0.0
C1725 C 0.06215 0.80192 0.95797 0.0
C1726 C 0.05496 0.90245 0.95705 0.0
C1727 C 0.71476 0.86924 0.95079 0.0
C1728 C 0.71089 0.80225 0.96245 0.0
C1729 C 0.70702 0.96724 0.95123 0.0
C1730 C 0.695 1.00253 0.96331 0.0
H1731 H 0.72348 0.84523 0.94109 0.0
H1732 H 0.71026 0.01566 0.94194 0.0
S1733 S 0.68183 0.85966 0.9972 0.0
N1734 N 0.69517 0.77992 0.98678 0.0
N1735 N 0.6806 0.96397 0.9876 0.0
C1736 C 0.69119 0.93677 0.97513 0.0
C1737 C 0.69913 0.83682 0.97469 0.0
C1738 C 0.05395 0.84904 0.7827 0.0
C1739 C 0.04061 0.81317 0.79407 0.0
C1740 C 0.06164 0.94726 0.7828 0.0
C1741 C 0.05628 0.01306 0.79431 0.0
H1742 H 0.05828 0.80098 0.77357 0.0
H1743 H 0.07146 0.97249 0.77367 0.0
S1744 S 0.02413 0.95254 0.82759 0.0
N1745 N 0.02392 0.84908 0.81776 0.0
N1746 N 0.03829 0.03333 0.81791 0.0
C1747 C 0.04343 0.97738 0.80592 0.0
C1748 C 0.0356 0.87761 0.80581 0.0
C1749 C 0.72692 0.83857 0.7833 0.0
C1750 C 0.71605 0.91099 0.79161 0.0
C1751 C 0.71957 0.73969 0.78296 0.0
C1752 C 0.70107 0.71092 0.79084 0.0
H1753 H 0.74104 0.85889 0.77699 0.0
H1754 H 0.72827 0.68538 0.77645 0.0
S1755 S 0.66898 0.86971 0.81588 0.0
N1756 N 0.68745 0.94529 0.80909 0.0
N1757 N 0.67324 0.76034 0.80807 0.0
C1758 C 0.6904 0.78232 0.7994 0.0
C1759 C 0.69802 0.88228 0.7999 0.0
C1760 C 0.36709 0.42345 0.04163 0.0
C1761 C 0.35504 0.43039 0.05476 0.0
C1762 C 0.38425 0.35537 0.04032 0.0
C1763 C 0.38978 0.29103 0.05203 0.0
H1764 H 0.36283 0.46857 0.03215 0.0
H1765 H 0.39293 0.35154 0.02997 0.0
S1766 S 0.36517 0.28917 0.08939 0.0
N1767 N 0.35141 0.37383 0.08018 0.0
N1768 N 0.38311 0.24581 0.07762 0.0
C1769 C 0.37837 0.30013 0.06537 0.0
C1770 C 0.36119 0.36983 0.06675 0.0
C1771 C 0.86438 0.91636 0.06586 0.0
C1772 C 0.85881 0.96729 0.05283 0.0
C1773 C 0.87746 0.83102 0.06547 0.0
C1774 C 0.88581 0.79463 0.05206 0.0
H1775 H 0.85816 0.94119 0.07641 0.0
H1776 H 0.88147 0.79473 0.07579 0.0
S1777 S 0.87621 0.90215 0.01489 0.0
N1778 N 0.86245 0.97487 0.02616 0.0
N1779 N 0.88767 0.81705 0.02545 0.0
C1780 C 0.88051 0.84564 0.03898 0.0
C1781 C 0.86683 0.93113 0.03936 0.0
C1782 C 0.36759 0.84381 0.21514 0.0
C1783 C 0.35849 0.80217 0.20229 0.0
C1784 C 0.38516 0.90975 0.21431 0.0
C1785 C 0.39405 0.93679 0.20058 0.0
H1786 H 0.36165 0.82224 0.22592 0.0
H1787 H 0.39248 0.93558 0.22447 0.0
S1788 S 0.37364 0.86234 0.16367 0.0
N1789 N 0.35799 0.80285 0.17543 0.0
N1790 N 0.39072 0.92649 0.17388 0.0
C1791 C 0.38406 0.90119 0.18768 0.0
C1792 C 0.36636 0.83396 0.18852 0.0
C1793 C 0.86674 0.35237 0.19152 0.0
C1794 C 0.85893 0.30891 0.2046 0.0
C1795 C 0.87994 0.43724 0.19191 0.0
C1796 C 0.88617 0.48055 0.20541 0.0
H1797 H 0.86222 0.32205 0.18087 0.0
H1798 H 0.88573 0.46769 0.18158 0.0
S1799 S 0.87032 0.39494 0.24275 0.0
N1800 N 0.85825 0.31641 0.23142 0.0
N1801 N 0.88372 0.47331 0.23214 0.0
C1802 C 0.87868 0.43725 0.21855 0.0
C1803 C 0.86487 0.35227 0.21815 0.0
C1804 C 0.63805 0.61522 0.96415 0.0
C1805 C 0.64792 0.59508 0.95048 0.0
C1806 C 0.621 0.68404 0.96521 0.0
C1807 C 0.61352 0.73597 0.95269 0.0
H1808 H 0.64397 0.58024 0.97413 0.0
H1809 H 0.61402 0.6986 0.97595 0.0
S1810 S 0.63184 0.69901 0.91408 0.0
N1811 N 0.64731 0.62465 0.92397 0.0
N1812 N 0.61578 0.75434 0.92604 0.0
C1813 C 0.62267 0.71314 0.93892 0.0
C1814 C 0.63973 0.64264 0.93781 0.0
C1815 C 0.1213 0.0451 0.96611 0.0
C1816 C 0.14204 0.06619 0.96092 0.0
C1817 C 0.10495 0.11719 0.96574 0.0
C1818 C 0.10842 0.21289 0.95979 0.0
H1819 H 0.11766 0.97207 0.97051 0.0
H1820 H 0.08936 0.09633 0.96989 0.0
S1821 S 0.16059 0.30812 0.94572 0.0
N1822 N 0.16573 0.1922 0.95059 0.0
N1823 N 0.13491 0.32634 0.94946 0.0
C1824 C 0.12937 0.23591 0.95499 0.0
C1825 C 0.14617 0.16303 0.95566 0.0
C1826 C 0.64757 0.08662 0.79506 0.0
C1827 C 0.64389 0.18666 0.79895 0.0
C1828 C 0.63098 0.01579 0.79532 0.0
C1829 C 0.60986 0.04301 0.79897 0.0
H1830 H 0.66351 0.06192 0.79216 0.0
H1831 H 0.63467 0.93924 0.79256 0.0
S1832 S 0.59113 0.29723 0.80865 0.0
N1833 N 0.61723 0.31009 0.8059 0.0
N1834 N 0.58583 0.17851 0.80571 0.0
C1835 C 0.6057 0.14373 0.80222 0.0
C1836 C 0.62274 0.21515 0.80239 0.0
C1837 C 0.1184 0.59121 0.81552 0.0
C1838 C 0.1106 0.54987 0.80227 0.0
C1839 C 0.13225 0.67386 0.81541 0.0
C1840 C 0.13916 0.71674 0.80205 0.0
H1841 H 0.11334 0.56107 0.82605 0.0
H1842 H 0.13798 0.70294 0.82586 0.0
S1843 S 0.12366 0.63536 0.76439 0.0
N1844 N 0.11066 0.55853 0.77547 0.0
N1845 N 0.13739 0.71097 0.77527 0.0
C1846 C 0.13171 0.67525 0.78875 0.0
C1847 C 0.11722 0.59272 0.78886 0.0
C1848 C 0.38425 0.84761 0.56584 0.0
C1849 C 0.39192 0.80754 0.55248 0.0
C1850 C 0.37066 0.93125 0.56599 0.0
C1851 C 0.36387 0.97673 0.55278 0.0
H1852 H 0.3892 0.81565 0.57629 0.0
H1853 H 0.36505 0.95913 0.57654 0.0
S1854 S 0.37909 0.89968 0.51488 0.0
N1855 N 0.39181 0.82015 0.52571 0.0
N1856 N 0.36567 0.97477 0.52599 0.0
C1857 C 0.3712 0.93661 0.53936 0.0
C1858 C 0.3854 0.85287 0.53921 0.0
C1859 C 0.86682 0.41707 0.56523 0.0
C1860 C 0.85861 0.457 0.552 0.0
C1861 C 0.88212 0.34008 0.56509 0.0
C1862 C 0.88993 0.30085 0.55171 0.0
H1863 H 0.86117 0.44464 0.57578 0.0
H1864 H 0.88807 0.31191 0.57553 0.0
S1865 S 0.87384 0.38023 0.51409 0.0
N1866 N 0.85937 0.45122 0.52519 0.0
N1867 N 0.88854 0.30846 0.52494 0.0
C1868 C 0.88203 0.34078 0.53843 0.0
C1869 C 0.86618 0.41793 0.53857 0.0
C1870 C 0.35466 0.40181 0.71095 0.0
C1871 C 0.35895 0.30198 0.70721 0.0
C1872 C 0.37071 0.47519 0.7105 0.0
C1873 C 0.39198 0.45095 0.70682 0.0
H1874 H 0.33866 0.42394 0.71406 0.0
H1875 H 0.36648 0.55117 0.71326 0.0
S1876 S 0.41224 0.19989 0.69678 0.0
N1877 N 0.38635 0.18283 0.69992 0.0
N1878 N 0.41675 0.31934 0.69967 0.0
C1879 C 0.39675 0.35091 0.70347 0.0
C1880 C 0.38022 0.27678 0.70352 0.0
C1881 C 0.87011 0.83557 0.69164 0.0
C1882 C 0.86373 0.78819 0.70479 0.0
C1883 C 0.8829 0.9218 0.69193 0.0
C1884 C 0.89014 0.96264 0.70536 0.0
H1885 H 0.86474 0.8073 0.68105 0.0
H1886 H 0.88758 0.95526 0.68153 0.0
S1887 S 0.8782 0.86586 0.74281 0.0
N1888 N 0.86547 0.78892 0.73158 0.0
N1889 N 0.8902 0.94837 0.7321 0.0
C1890 C 0.88408 0.91523 0.71856 0.0
C1891 C 0.87068 0.82884 0.71827 0.0
C1892 C 0.6307 0.08657 0.46586 0.0
C1893 C 0.63664 0.02451 0.45399 0.0
C1894 C 0.61368 0.15545 0.46451 0.0
C1895 C 0.60227 0.16569 0.45115 0.0
H1896 H 0.63891 0.08016 0.47638 0.0
H1897 H 0.60906 0.19861 0.47409 0.0
S1898 S 0.61401 0.03223 0.41606 0.0
N1899 N 0.63124 0.98531 0.42806 0.0
N1900 N 0.59991 0.11527 0.42534 0.0
C1901 C 0.60895 0.10772 0.43899 0.0
C1902 C 0.62593 0.03699 0.44045 0.0
C1903 C 0.10647 0.61528 0.4615 0.0
C1904 C 0.11037 0.71512 0.45756 0.0
C1905 C 0.1228 0.54303 0.46113 0.0
C1906 C 0.14398 0.56846 0.45735 0.0
H1907 H 0.09057 0.59223 0.4647 0.0
H1908 H 0.11887 0.46698 0.46403 0.0
S1909 S 0.16323 0.82005 0.44673 0.0
N1910 N 0.13731 0.83548 0.44994 0.0
N1911 N 0.16819 0.70124 0.44985 0.0
C1912 C 0.14835 0.66854 0.45379 0.0
C1913 C 0.13154 0.74147 0.45376 0.0
C1914 C 0.61433 0.61161 0.31459 0.0
C1915 C 0.60743 0.56621 0.3014 0.0
C1916 C 0.62922 0.69017 0.31444 0.0
C1917 C 0.63806 0.72501 0.30111 0.0
H1918 H 0.60805 0.58683 0.32512 0.0
H1919 H 0.63429 0.72188 0.32488 0.0
S1920 S 0.625 0.63287 0.26356 0.0
N1921 N 0.61005 0.56402 0.27464 0.0
N1922 N 0.63862 0.70921 0.27439 0.0
C1923 C 0.63125 0.68056 0.28785 0.0
C1924 C 0.61573 0.60206 0.28798 0.0
C1925 C 0.12099 0.22656 0.29835 0.0
C1926 C 0.14236 0.19823 0.30104 0.0
C1927 C 0.10446 0.15543 0.29774 0.0
C1928 C 0.10842 0.05368 0.30029 0.0
H1929 H 0.11705 0.3041 0.2965 0.0
H1930 H 0.08835 0.18056 0.29549 0.0
S1931 S 0.16169 0.94114 0.30812 0.0
N1932 N 0.16674 0.06102 0.30621 0.0
N1933 N 0.13553 0.92848 0.3056 0.0
C1934 C 0.12976 0.02447 0.30307 0.0
C1935 C 0.14672 0.09646 0.30331 0.0
loop_
_geom_bond_atom_site_label_1
_geom_bond_atom_site_label_2
_geom_bond_distance
_geom_bond_site_symmetry_2
_ccdc_geom_bond_type
Co0 N4 2.148 . S
Co0 N10 2.128 . S
Co0 N20 2.194 . S
Co0 O25 2.351 . S
Co0 O26 2.155 . S
Co0 O27 2.096 . S
C1 N4 1.301 1_565 S
C1 N5 1.328 . S
C1 H6 0.930 . S
C2 C3 1.333 1_545 S
C2 N4 1.317 . S
C2 H7 0.930 . S
C3 C2 1.333 1_565 S
C3 N5 1.350 . S
C3 H29 0.931 . S
N4 Co0 2.148 . S
N4 C1 1.301 1_545 S
N4 C2 1.317 . S
N5 C1 1.328 . S
N5 C3 1.350 . S
H6 C1 0.930 . S
H7 C2 0.930 . S
C8 O9 1.224 . S
C8 O27 1.247 . S
O9 C8 1.224 . S
N10 Co0 2.128 . S
N10 C11 1.355 . S
N10 C13 1.311 . S
C11 N10 1.355 . S
C11 C12 1.363 . S
C11 H23 0.929 . S
C12 C11 1.363 . S
C12 N14 1.375 . S
C12 H30 0.931 . S
C13 N10 1.311 . S
C13 N14 1.347 . S
C13 H24 0.929 . S
N14 C12 1.375 . S
N14 C13 1.347 . S
C15 C18 1.365 . S
C15 N20 1.328 . S
C15 H21 0.929 . S
C16 C17 1.362 . S
C16 C19 1.378 . S
C16 H31 0.929 . S
C17 C16 1.362 . S
C17 C18 1.366 . S
C18 C15 1.365 . S
C18 C17 1.366 . S
C18 H32 0.930 . S
C19 C16 1.378 . S
C19 N20 1.315 . S
C19 H22 0.930 . S
N20 Co0 2.194 . S
N20 C15 1.328 . S
N20 C19 1.315 . S
H21 C15 0.929 . S
H22 C19 0.930 . S
H23 C11 0.929 . S
H24 C13 0.929 . S
O25 Co0 2.351 . S
O25 C28 1.244 . S
O26 Co0 2.155 . S
O26 C28 1.240 . S
O27 Co0 2.096 . S
O27 C8 1.247 . S
C28 O25 1.244 . S
C28 O26 1.240 . S
H29 C3 0.931 . S
H30 C12 0.931 . S
H31 C16 0.929 . S
H32 C18 0.930 . S
Co33 N37 2.148 . S
Co33 N43 2.128 1_545 S
Co33 N53 2.194 . S
Co33 O58 2.351 . S
Co33 O59 2.155 . S
Co33 O60 2.096 . S
C34 N37 1.301 . S
C34 N38 1.328 . S
C34 H39 0.930 . S
C35 C36 1.333 . S
C35 N37 1.317 . S
C35 H40 0.930 . S
C36 C35 1.333 . S
C36 N38 1.350 . S
C36 H62 0.931 . S
N37 Co33 2.148 . S
N37 C34 1.301 . S
N37 C35 1.317 . S
N38 C34 1.328 . S
N38 C36 1.350 . S
H39 C34 0.930 . S
H40 C35 0.930 . S
C41 O42 1.224 . S
C41 O60 1.247 1_565 S
O42 C41 1.224 . S
N43 Co33 2.128 1_565 S
N43 C44 1.355 . S
N43 C46 1.311 . S
C44 N43 1.355 . S
C44 C45 1.363 . S
C44 H56 0.929 . S
C45 C44 1.363 . S
C45 N47 1.375 . S
C45 H63 0.931 . S
C46 N43 1.311 . S
C46 N47 1.347 . S
C46 H57 0.929 . S
N47 C45 1.375 . S
N47 C46 1.347 . S
C48 C51 1.365 . S
C48 N53 1.328 . S
C48 H54 0.929 . S
C49 C50 1.362 . S
C49 C52 1.378 . S
C49 H64 0.929 . S
C50 C49 1.362 . S
C50 C51 1.366 . S
C51 C48 1.365 . S
C51 C50 1.366 . S
C51 H65 0.930 . S
C52 C49 1.378 . S
C52 N53 1.315 . S
C52 H55 0.930 . S
N53 Co33 2.194 . S
N53 C48 1.328 . S
N53 C52 1.315 . S
H54 C48 0.929 . S
H55 C52 0.930 . S
H56 C44 0.929 . S
H57 C46 0.929 . S
O58 Co33 2.351 . S
O58 C61 1.244 . S
O59 Co33 2.155 . S
O59 C61 1.240 . S
O60 Co33 2.096 . S
O60 C41 1.247 1_545 S
C61 O58 1.244 . S
C61 O59 1.240 . S
H62 C36 0.931 . S
H63 C45 0.931 . S
H64 C49 0.929 . S
H65 C51 0.930 . S
Co66 N70 2.148 . S
Co66 N76 2.128 1_545 S
Co66 N86 2.194 . S
Co66 O91 2.351 . S
Co66 O92 2.155 . S
Co66 O93 2.096 . S
C67 N70 1.301 . S
C67 N71 1.328 . S
C67 H72 0.930 . S
C68 C69 1.333 . S
C68 N70 1.317 . S
C68 H73 0.930 . S
C69 C68 1.333 . S
C69 N71 1.350 . S
C69 H95 0.931 . S
N70 Co66 2.148 . S
N70 C67 1.301 . S
N70 C68 1.317 . S
N71 C67 1.328 . S
N71 C69 1.350 . S
H72 C67 0.930 . S
H73 C68 0.930 . S
C74 O75 1.224 . S
C74 O93 1.247 1_565 S
O75 C74 1.224 . S
N76 Co66 2.128 1_565 S
N76 C77 1.355 . S
N76 C79 1.311 . S
C77 N76 1.355 . S
C77 C78 1.363 . S
C77 H89 0.929 . S
C78 C77 1.363 . S
C78 N80 1.375 . S
C78 H96 0.931 . S
C79 N76 1.311 . S
C79 N80 1.347 . S
C79 H90 0.929 . S
N80 C78 1.375 . S
N80 C79 1.347 . S
C81 C84 1.365 . S
C81 N86 1.328 . S
C81 H87 0.929 . S
C82 C83 1.362 . S
C82 C85 1.378 . S
C82 H97 0.929 . S
C83 C82 1.362 . S
C83 C84 1.366 . S
C84 C81 1.365 . S
C84 C83 1.366 . S
C84 H98 0.930 . S
C85 C82 1.378 . S
C85 N86 1.315 . S
C85 H88 0.930 . S
N86 Co66 2.194 . S
N86 C81 1.328 . S
N86 C85 1.315 . S
H87 C81 0.929 . S
H88 C85 0.930 . S
H89 C77 0.929 . S
H90 C79 0.929 . S
O91 Co66 2.351 . S
O91 C94 1.244 . S
O92 Co66 2.155 . S
O92 C94 1.240 . S
O93 Co66 2.096 . S
O93 C74 1.247 1_545 S
C94 O91 1.244 . S
C94 O92 1.240 . S
H95 C69 0.931 . S
H96 C78 0.931 . S
H97 C82 0.929 . S
H98 C84 0.930 . S
Co99 N103 2.148 . S
Co99 N109 2.128 . S
Co99 N119 2.194 . S
Co99 O124 2.351 . S
Co99 O125 2.155 . S
Co99 O126 2.096 . S
C100 N103 1.301 1_565 S
C100 N104 1.328 . S
C100 H105 0.930 . S
C101 C102 1.333 1_545 S
C101 N103 1.317 . S
C101 H106 0.930 . S
C102 C101 1.333 1_565 S
C102 N104 1.350 . S
C102 H128 0.931 . S
N103 Co99 2.148 . S
N103 C100 1.301 1_545 S
N103 C101 1.317 . S
N104 C100 1.328 . S
N104 C102 1.350 . S
H105 C100 0.930 . S
H106 C101 0.930 . S
C107 O108 1.224 . S
C107 O126 1.247 . S
O108 C107 1.224 . S
N109 Co99 2.128 . S
N109 C110 1.355 . S
N109 C112 1.311 . S
C110 N109 1.355 . S
C110 C111 1.363 . S
C110 H122 0.929 . S
C111 C110 1.363 . S
C111 N113 1.375 . S
C111 H129 0.931 . S
C112 N109 1.311 . S
C112 N113 1.347 . S
C112 H123 0.929 . S
N113 C111 1.375 . S
N113 C112 1.347 . S
C114 C117 1.365 . S
C114 N119 1.328 . S
C114 H120 0.929 . S
C115 C116 1.362 . S
C115 C118 1.378 . S
C115 H130 0.929 . S
C116 C115 1.362 . S
C116 C117 1.366 . S
C117 C114 1.365 . S
C117 C116 1.366 . S
C117 H131 0.930 . S
C118 C115 1.378 . S
C118 N119 1.315 . S
C118 H121 0.930 . S
N119 Co99 2.194 . S
N119 C114 1.328 . S
N119 C118 1.315 . S
H120 C114 0.929 . S
H121 C118 0.930 . S
H122 C110 0.929 . S
H123 C112 0.929 . S
O124 Co99 2.351 . S
O124 C127 1.244 . S
O125 Co99 2.155 . S
O125 C127 1.240 . S
O126 Co99 2.096 . S
O126 C107 1.247 . S
C127 O124 1.244 . S
C127 O125 1.240 . S
H128 C102 0.931 . S
H129 C111 0.931 . S
H130 C115 0.929 . S
H131 C117 0.930 . S
Co132 N136 2.148 . S
Co132 N142 2.128 . S
Co132 N152 2.194 . S
Co132 O157 2.351 . S
Co132 O158 2.155 . S
Co132 O159 2.096 . S
C133 N136 1.301 1_545 S
C133 N137 1.328 . S
C133 H138 0.930 . S
C134 C135 1.333 1_565 S
C134 N136 1.317 . S
C134 H139 0.930 . S
C135 C134 1.333 1_545 S
C135 N137 1.350 . S
C135 H161 0.931 . S
N136 Co132 2.148 . S
N136 C133 1.301 1_565 S
N136 C134 1.317 . S
N137 C133 1.328 . S
N137 C135 1.350 . S
H138 C133 0.930 . S
H139 C134 0.930 . S
C140 O141 1.224 . S
C140 O159 1.247 . S
O141 C140 1.224 . S
N142 Co132 2.128 . S
N142 C143 1.355 . S
N142 C145 1.311 . S
C143 N142 1.355 . S
C143 C144 1.363 . S
C143 H155 0.929 . S
C144 C143 1.363 . S
C144 N146 1.375 . S
C144 H162 0.931 . S
C145 N142 1.311 . S
C145 N146 1.347 . S
C145 H156 0.929 . S
N146 C144 1.375 . S
N146 C145 1.347 . S
C147 C150 1.365 . S
C147 N152 1.328 . S
C147 H153 0.929 . S
C148 C149 1.362 . S
C148 C151 1.378 . S
C148 H163 0.929 . S
C149 C148 1.362 . S
C149 C150 1.366 . S
C150 C147 1.365 . S
C150 C149 1.366 . S
C150 H164 0.930 . S
C151 C148 1.378 . S
C151 N152 1.315 . S
C151 H154 0.930 . S
N152 Co132 2.194 . S
N152 C147 1.328 . S
N152 C151 1.315 . S
H153 C147 0.929 . S
H154 C151 0.930 . S
H155 C143 0.929 . S
H156 C145 0.929 . S
O157 Co132 2.351 . S
O157 C160 1.244 . S
O158 Co132 2.155 . S
O158 C160 1.240 . S
O159 Co132 2.096 . S
O159 C140 1.247 . S
C160 O157 1.244 . S
C160 O158 1.240 . S
H161 C135 0.931 . S
H162 C144 0.931 . S
H163 C148 0.929 . S
H164 C150 0.930 . S
Co165 N169 2.148 . S
Co165 N175 2.128 1_565 S
Co165 N185 2.194 . S
Co165 O190 2.351 . S
Co165 O191 2.155 . S
Co165 O192 2.096 . S
C166 N169 1.301 . S
C166 N170 1.328 . S
C166 H171 0.930 . S
C167 C168 1.333 . S
C167 N169 1.317 . S
C167 H172 0.930 . S
C168 C167 1.333 . S
C168 N170 1.350 . S
C168 H194 0.931 . S
N169 Co165 2.148 . S
N169 C166 1.301 . S
N169 C167 1.317 . S
N170 C166 1.328 . S
N170 C168 1.350 . S
H171 C166 0.930 . S
H172 C167 0.930 . S
C173 O174 1.224 . S
C173 O192 1.247 1_545 S
O174 C173 1.224 . S
N175 Co165 2.128 1_545 S
N175 C176 1.355 . S
N175 C178 1.311 . S
C176 N175 1.355 . S
C176 C177 1.363 . S
C176 H188 0.929 . S
C177 C176 1.363 . S
C177 N179 1.375 . S
C177 H195 0.931 . S
C178 N175 1.311 . S
C178 N179 1.347 . S
C178 H189 0.929 . S
N179 C177 1.375 . S
N179 C178 1.347 . S
C180 C183 1.365 . S
C180 N185 1.328 . S
C180 H186 0.929 . S
C181 C182 1.362 . S
C181 C184 1.378 . S
C181 H196 0.929 . S
C182 C181 1.362 . S
C182 C183 1.366 . S
C183 C180 1.365 . S
C183 C182 1.366 . S
C183 H197 0.930 . S
C184 C181 1.378 . S
C184 N185 1.315 . S
C184 H187 0.930 . S
N185 Co165 2.194 . S
N185 C180 1.328 . S
N185 C184 1.315 . S
H186 C180 0.929 . S
H187 C184 0.930 . S
H188 C176 0.929 . S
H189 C178 0.929 . S
O190 Co165 2.351 . S
O190 C193 1.244 . S
O191 Co165 2.155 . S
O191 C193 1.240 . S
O192 Co165 2.096 . S
O192 C173 1.247 1_565 S
C193 O190 1.244 . S
C193 O191 1.240 . S
H194 C168 0.931 . S
H195 C177 0.931 . S
H196 C181 0.929 . S
H197 C183 0.930 . S
Co198 N202 2.148 . S
Co198 N208 2.128 1_565 S
Co198 N218 2.194 . S
Co198 O223 2.351 . S
Co198 O224 2.155 . S
Co198 O225 2.096 . S
C199 N202 1.301 . S
C199 N203 1.328 . S
C199 H204 0.930 . S
C200 C201 1.333 . S
C200 N202 1.317 . S
C200 H205 0.930 . S
C201 C200 1.333 . S
C201 N203 1.350 . S
C201 H227 0.931 . S
N202 Co198 2.148 . S
N202 C199 1.301 . S
N202 C200 1.317 . S
N203 C199 1.328 . S
N203 C201 1.350 . S
H204 C199 0.930 . S
H205 C200 0.930 . S
C206 O207 1.224 . S
C206 O225 1.247 1_545 S
O207 C206 1.224 . S
N208 Co198 2.128 1_545 S
N208 C209 1.355 . S
N208 C211 1.311 . S
C209 N208 1.355 . S
C209 C210 1.363 . S
C209 H221 0.929 . S
C210 C209 1.363 . S
C210 N212 1.375 . S
C210 H228 0.931 . S
C211 N208 1.311 . S
C211 N212 1.347 . S
C211 H222 0.929 . S
N212 C210 1.375 . S
N212 C211 1.347 . S
C213 C216 1.365 . S
C213 N218 1.328 . S
C213 H219 0.929 . S
C214 C215 1.362 . S
C214 C217 1.378 . S
C214 H229 0.929 . S
C215 C214 1.362 . S
C215 C216 1.366 . S
C216 C213 1.365 . S
C216 C215 1.366 . S
C216 H230 0.930 . S
C217 C214 1.378 . S
C217 N218 1.315 . S
C217 H220 0.930 . S
N218 Co198 2.194 . S
N218 C213 1.328 . S
N218 C217 1.315 . S
H219 C213 0.929 . S
H220 C217 0.930 . S
H221 C209 0.929 . S
H222 C211 0.929 . S
O223 Co198 2.351 . S
O223 C226 1.244 . S
O224 Co198 2.155 . S
O224 C226 1.240 . S
O225 Co198 2.096 . S
O225 C206 1.247 1_565 S
C226 O223 1.244 . S
C226 O224 1.240 . S
H227 C201 0.931 . S
H228 C210 0.931 . S
H229 C214 0.929 . S
H230 C216 0.930 . S
Co231 N235 2.148 . S
Co231 N241 2.128 . S
Co231 N251 2.194 . S
Co231 O256 2.351 . S
Co231 O257 2.155 . S
Co231 O258 2.096 . S
C232 N235 1.301 1_545 S
C232 N236 1.328 . S
C232 H237 0.930 . S
C233 C234 1.333 1_565 S
C233 N235 1.317 . S
C233 H238 0.930 . S
C234 C233 1.333 1_545 S
C234 N236 1.350 . S
C234 H260 0.931 . S
N235 Co231 2.148 . S
N235 C232 1.301 1_565 S
N235 C233 1.317 . S
N236 C232 1.328 . S
N236 C234 1.350 . S
H237 C232 0.930 . S
H238 C233 0.930 . S
C239 O240 1.224 . S
C239 O258 1.247 . S
O240 C239 1.224 . S
N241 Co231 2.128 . S
N241 C242 1.355 . S
N241 C244 1.311 . S
C242 N241 1.355 . S
C242 C243 1.363 . S
C242 H254 0.929 . S
C243 C242 1.363 . S
C243 N245 1.375 . S
C243 H261 0.931 . S
C244 N241 1.311 . S
C244 N245 1.347 . S
C244 H255 0.929 . S
N245 C243 1.375 . S
N245 C244 1.347 . S
C246 C249 1.365 . S
C246 N251 1.328 . S
C246 H252 0.929 . S
C247 C248 1.362 . S
C247 C250 1.378 . S
C247 H262 0.929 . S
C248 C247 1.362 . S
C248 C249 1.366 . S
C249 C246 1.365 . S
C249 C248 1.366 . S
C249 H263 0.930 . S
C250 C247 1.378 . S
C250 N251 1.315 . S
C250 H253 0.930 . S
N251 Co231 2.194 . S
N251 C246 1.328 . S
N251 C250 1.315 . S
H252 C246 0.929 . S
H253 C250 0.930 . S
H254 C242 0.929 . S
H255 C244 0.929 . S
O256 Co231 2.351 . S
O256 C259 1.244 . S
O257 Co231 2.155 . S
O257 C259 1.240 . S
O258 Co231 2.096 . S
O258 C239 1.247 . S
C259 O256 1.244 . S
C259 O257 1.240 . S
H260 C234 0.931 . S
H261 C243 0.931 . S
H262 C247 0.929 . S
H263 C249 0.930 . S
Co264 N268 2.148 . S
Co264 N274 2.128 . S
Co264 N284 2.194 . S
Co264 O289 2.351 . S
Co264 O290 2.155 . S
Co264 O291 2.096 . S
C265 N268 1.301 . S
C265 N269 1.328 . S
C265 H270 0.930 . S
C266 C267 1.333 . S
C266 N268 1.317 . S
C266 H271 0.930 . S
C267 C266 1.333 . S
C267 N269 1.350 . S
C267 H293 0.931 . S
N268 Co264 2.148 . S
N268 C265 1.301 . S
N268 C266 1.317 . S
N269 C265 1.328 . S
N269 C267 1.350 . S
H270 C265 0.930 . S
H271 C266 0.930 . S
C272 O273 1.224 . S
C272 O291 1.247 . S
O273 C272 1.224 . S
N274 Co264 2.128 . S
N274 C275 1.355 . S
N274 C277 1.311 . S
C275 N274 1.355 . S
C275 C276 1.363 . S
C275 H287 0.929 . S
C276 C275 1.363 . S
C276 N278 1.375 . S
C276 H294 0.931 . S
C277 N274 1.311 . S
C277 N278 1.347 . S
C277 H288 0.929 . S
N278 C276 1.375 . S
N278 C277 1.347 . S
C279 C282 1.365 . S
C279 N284 1.328 . S
C279 H285 0.929 . S
C280 C281 1.362 . S
C280 C283 1.378 . S
C280 H295 0.929 . S
C281 C280 1.362 . S
C281 C282 1.366 . S
C282 C279 1.365 . S
C282 C281 1.366 . S
C282 H296 0.930 . S
C283 C280 1.378 . S
C283 N284 1.315 . S
C283 H286 0.930 . S
N284 Co264 2.194 . S
N284 C279 1.328 . S
N284 C283 1.315 . S
H285 C279 0.929 . S
H286 C283 0.930 . S
H287 C275 0.929 . S
H288 C277 0.929 . S
O289 Co264 2.351 . S
O289 C292 1.244 . S
O290 Co264 2.155 . S
O290 C292 1.240 . S
O291 Co264 2.096 . S
O291 C272 1.247 . S
C292 O289 1.244 . S
C292 O290 1.240 . S
H293 C267 0.931 . S
H294 C276 0.931 . S
H295 C280 0.929 . S
H296 C282 0.930 . S
Co297 N301 2.148 . S
Co297 N307 2.128 . S
Co297 N317 2.194 . S
Co297 O322 2.351 . S
Co297 O323 2.155 . S
Co297 O324 2.096 . S
C298 N301 1.301 . S
C298 N302 1.328 . S
C298 H303 0.930 . S
C299 C300 1.333 . S
C299 N301 1.317 . S
C299 H304 0.930 . S
C300 C299 1.333 . S
C300 N302 1.350 . S
C300 H326 0.931 . S
N301 Co297 2.148 . S
N301 C298 1.301 . S
N301 C299 1.317 . S
N302 C298 1.328 . S
N302 C300 1.350 . S
H303 C298 0.930 . S
H304 C299 0.930 . S
C305 O306 1.224 . S
C305 O324 1.247 . S
O306 C305 1.224 . S
N307 Co297 2.128 . S
N307 C308 1.355 . S
N307 C310 1.311 . S
C308 N307 1.355 . S
C308 C309 1.363 . S
C308 H320 0.929 . S
C309 C308 1.363 . S
C309 N311 1.375 . S
C309 H327 0.931 . S
C310 N307 1.311 . S
C310 N311 1.347 . S
C310 H321 0.929 . S
N311 C309 1.375 . S
N311 C310 1.347 . S
C312 C315 1.365 . S
C312 N317 1.328 . S
C312 H318 0.929 . S
C313 C314 1.362 . S
C313 C316 1.378 . S
C313 H328 0.929 . S
C314 C313 1.362 . S
C314 C315 1.366 . S
C315 C312 1.365 . S
C315 C314 1.366 . S
C315 H329 0.930 . S
C316 C313 1.378 . S
C316 N317 1.315 . S
C316 H319 0.930 . S
N317 Co297 2.194 . S
N317 C312 1.328 . S
N317 C316 1.315 . S
H318 C312 0.929 . S
H319 C316 0.930 . S
H320 C308 0.929 . S
H321 C310 0.929 . S
O322 Co297 2.351 . S
O322 C325 1.244 . S
O323 Co297 2.155 . S
O323 C325 1.240 . S
O324 Co297 2.096 . S
O324 C305 1.247 . S
C325 O322 1.244 . S
C325 O323 1.240 . S
H326 C300 0.931 . S
H327 C309 0.931 . S
H328 C313 0.929 . S
H329 C315 0.930 . S
Co330 N334 2.148 . S
Co330 N340 2.128 . S
Co330 N350 2.194 . S
Co330 O355 2.351 . S
Co330 O356 2.155 . S
Co330 O357 2.096 . S
C331 N334 1.301 . S
C331 N335 1.328 . S
C331 H336 0.930 . S
C332 C333 1.333 . S
C332 N334 1.317 . S
C332 H337 0.930 . S
C333 C332 1.333 . S
C333 N335 1.350 . S
C333 H359 0.931 . S
N334 Co330 2.148 . S
N334 C331 1.301 . S
N334 C332 1.317 . S
N335 C331 1.328 . S
N335 C333 1.350 . S
H336 C331 0.930 . S
H337 C332 0.930 . S
C338 O339 1.224 . S
C338 O357 1.247 . S
O339 C338 1.224 . S
N340 Co330 2.128 . S
N340 C341 1.355 . S
N340 C343 1.311 . S
C341 N340 1.355 . S
C341 C342 1.363 . S
C341 H353 0.929 . S
C342 C341 1.363 . S
C342 N344 1.375 . S
C342 H360 0.931 . S
C343 N340 1.311 . S
C343 N344 1.347 . S
C343 H354 0.929 . S
N344 C342 1.375 . S
N344 C343 1.347 . S
C345 C348 1.365 . S
C345 N350 1.328 . S
C345 H351 0.929 . S
C346 C347 1.362 . S
C346 C349 1.378 . S
C346 H361 0.929 . S
C347 C346 1.362 . S
C347 C348 1.366 . S
C348 C345 1.365 . S
C348 C347 1.366 . S
C348 H362 0.930 . S
C349 C346 1.378 . S
C349 N350 1.315 . S
C349 H352 0.930 . S
N350 Co330 2.194 . S
N350 C345 1.328 . S
N350 C349 1.315 . S
H351 C345 0.929 . S
H352 C349 0.930 . S
H353 C341 0.929 . S
H354 C343 0.929 . S
O355 Co330 2.351 . S
O355 C358 1.244 . S
O356 Co330 2.155 . S
O356 C358 1.240 . S
O357 Co330 2.096 . S
O357 C338 1.247 . S
C358 O355 1.244 . S
C358 O356 1.240 . S
H359 C333 0.931 . S
H360 C342 0.931 . S
H361 C346 0.929 . S
H362 C348 0.930 . S
Co363 N367 2.148 . S
Co363 N373 2.128 . S
Co363 N383 2.194 . S
Co363 O388 2.351 . S
Co363 O389 2.155 . S
Co363 O390 2.096 . S
C364 N367 1.301 . S
C364 N368 1.328 . S
C364 H369 0.930 . S
C365 C366 1.333 . S
C365 N367 1.317 . S
C365 H370 0.930 . S
C366 C365 1.333 . S
C366 N368 1.350 . S
C366 H392 0.931 . S
N367 Co363 2.148 . S
N367 C364 1.301 . S
N367 C365 1.317 . S
N368 C364 1.328 . S
N368 C366 1.350 . S
H369 C364 0.930 . S
H370 C365 0.930 . S
C371 O372 1.224 . S
C371 O390 1.247 . S
O372 C371 1.224 . S
N373 Co363 2.128 . S
N373 C374 1.355 . S
N373 C376 1.311 . S
C374 N373 1.355 . S
C374 C375 1.363 . S
C374 H386 0.929 . S
C375 C374 1.363 . S
C375 N377 1.375 . S
C375 H393 0.931 . S
C376 N373 1.311 . S
C376 N377 1.347 . S
C376 H387 0.929 . S
N377 C375 1.375 . S
N377 C376 1.347 . S
C378 C381 1.365 . S
C378 N383 1.328 . S
C378 H384 0.929 . S
C379 C380 1.362 . S
C379 C382 1.378 . S
C379 H394 0.929 . S
C380 C379 1.362 . S
C380 C381 1.366 . S
C381 C378 1.365 . S
C381 C380 1.366 . S
C381 H395 0.930 . S
C382 C379 1.378 . S
C382 N383 1.315 . S
C382 H385 0.930 . S
N383 Co363 2.194 . S
N383 C378 1.328 . S
N383 C382 1.315 . S
H384 C378 0.929 . S
H385 C382 0.930 . S
H386 C374 0.929 . S
H387 C376 0.929 . S
O388 Co363 2.351 . S
O388 C391 1.244 . S
O389 Co363 2.155 . S
O389 C391 1.240 . S
O390 Co363 2.096 . S
O390 C371 1.247 . S
C391 O388 1.244 . S
C391 O389 1.240 . S
H392 C366 0.931 . S
H393 C375 0.931 . S
H394 C379 0.929 . S
H395 C381 0.930 . S
Co396 N400 2.148 . S
Co396 N406 2.128 . S
Co396 N416 2.194 . S
Co396 O421 2.351 . S
Co396 O422 2.155 . S
Co396 O423 2.096 . S
C397 N400 1.301 . S
C397 N401 1.328 . S
C397 H402 0.930 . S
C398 C399 1.333 . S
C398 N400 1.317 . S
C398 H403 0.930 . S
C399 C398 1.333 . S
C399 N401 1.350 . S
C399 H425 0.931 . S
N400 Co396 2.148 . S
N400 C397 1.301 . S
N400 C398 1.317 . S
N401 C397 1.328 . S
N401 C399 1.350 . S
H402 C397 0.930 . S
H403 C398 0.930 . S
C404 O405 1.224 . S
C404 O423 1.247 . S
O405 C404 1.224 . S
N406 Co396 2.128 . S
N406 C407 1.355 . S
N406 C409 1.311 . S
C407 N406 1.355 . S
C407 C408 1.363 . S
C407 H419 0.929 . S
C408 C407 1.363 . S
C408 N410 1.375 . S
C408 H426 0.931 . S
C409 N406 1.311 . S
C409 N410 1.347 . S
C409 H420 0.929 . S
N410 C408 1.375 . S
N410 C409 1.347 . S
C411 C414 1.365 . S
C411 N416 1.328 . S
C411 H417 0.929 . S
C412 C413 1.362 . S
C412 C415 1.378 . S
C412 H427 0.929 . S
C413 C412 1.362 . S
C413 C414 1.366 . S
C414 C411 1.365 . S
C414 C413 1.366 . S
C414 H428 0.930 . S
C415 C412 1.378 . S
C415 N416 1.315 . S
C415 H418 0.930 . S
N416 Co396 2.194 . S
N416 C411 1.328 . S
N416 C415 1.315 . S
H417 C411 0.929 . S
H418 C415 0.930 . S
H419 C407 0.929 . S
H420 C409 0.929 . S
O421 Co396 2.351 . S
O421 C424 1.244 . S
O422 Co396 2.155 . S
O422 C424 1.240 . S
O423 Co396 2.096 . S
O423 C404 1.247 . S
C424 O421 1.244 . S
C424 O422 1.240 . S
H425 C399 0.931 . S
H426 C408 0.931 . S
H427 C412 0.929 . S
H428 C414 0.930 . S
Co429 N433 2.148 . S
Co429 N439 2.128 . S
Co429 N449 2.194 . S
Co429 O454 2.351 . S
Co429 O455 2.155 . S
Co429 O456 2.096 . S
C430 N433 1.301 . S
C430 N434 1.328 . S
C430 H435 0.930 . S
C431 C432 1.333 . S
C431 N433 1.317 . S
C431 H436 0.930 . S
C432 C431 1.333 . S
C432 N434 1.350 . S
C432 H458 0.931 . S
N433 Co429 2.148 . S
N433 C430 1.301 . S
N433 C431 1.317 . S
N434 C430 1.328 . S
N434 C432 1.350 . S
H435 C430 0.930 . S
H436 C431 0.930 . S
C437 O438 1.224 . S
C437 O456 1.247 . S
O438 C437 1.224 . S
N439 Co429 2.128 . S
N439 C440 1.355 . S
N439 C442 1.311 . S
C440 N439 1.355 . S
C440 C441 1.363 . S
C440 H452 0.929 . S
C441 C440 1.363 . S
C441 N443 1.375 . S
C441 H459 0.931 . S
C442 N439 1.311 . S
C442 N443 1.347 . S
C442 H453 0.929 . S
N443 C441 1.375 . S
N443 C442 1.347 . S
C444 C447 1.365 . S
C444 N449 1.328 . S
C444 H450 0.929 . S
C445 C446 1.362 . S
C445 C448 1.378 . S
C445 H460 0.929 . S
C446 C445 1.362 . S
C446 C447 1.366 . S
C447 C444 1.365 . S
C447 C446 1.366 . S
C447 H461 0.930 . S
C448 C445 1.378 . S
C448 N449 1.315 . S
C448 H451 0.930 . S
N449 Co429 2.194 . S
N449 C444 1.328 . S
N449 C448 1.315 . S
H450 C444 0.929 . S
H451 C448 0.930 . S
H452 C440 0.929 . S
H453 C442 0.929 . S
O454 Co429 2.351 . S
O454 C457 1.244 . S
O455 Co429 2.155 . S
O455 C457 1.240 . S
O456 Co429 2.096 . S
O456 C437 1.247 . S
C457 O454 1.244 . S
C457 O455 1.240 . S
H458 C432 0.931 . S
H459 C441 0.931 . S
H460 C445 0.929 . S
H461 C447 0.930 . S
Co462 N466 2.148 . S
Co462 N472 2.128 . S
Co462 N482 2.194 . S
Co462 O487 2.351 . S
Co462 O488 2.155 . S
Co462 O489 2.096 . S
C463 N466 1.301 . S
C463 N467 1.328 . S
C463 H468 0.930 . S
C464 C465 1.333 . S
C464 N466 1.317 . S
C464 H469 0.930 . S
C465 C464 1.333 . S
C465 N467 1.350 . S
C465 H491 0.931 . S
N466 Co462 2.148 . S
N466 C463 1.301 . S
N466 C464 1.317 . S
N467 C463 1.328 . S
N467 C465 1.350 . S
H468 C463 0.930 . S
H469 C464 0.930 . S
C470 O471 1.224 . S
C470 O489 1.247 . S
O471 C470 1.224 . S
N472 Co462 2.128 . S
N472 C473 1.355 . S
N472 C475 1.311 . S
C473 N472 1.355 . S
C473 C474 1.363 . S
C473 H485 0.929 . S
C474 C473 1.363 . S
C474 N476 1.375 . S
C474 H492 0.931 . S
C475 N472 1.311 . S
C475 N476 1.347 . S
C475 H486 0.929 . S
N476 C474 1.375 . S
N476 C475 1.347 . S
C477 C480 1.365 . S
C477 N482 1.328 . S
C477 H483 0.929 . S
C478 C479 1.362 . S
C478 C481 1.378 . S
C478 H493 0.929 . S
C479 C478 1.362 . S
C479 C480 1.366 . S
C480 C477 1.365 . S
C480 C479 1.366 . S
C480 H494 0.930 . S
C481 C478 1.378 . S
C481 N482 1.315 . S
C481 H484 0.930 . S
N482 Co462 2.194 . S
N482 C477 1.328 . S
N482 C481 1.315 . S
H483 C477 0.929 . S
H484 C481 0.930 . S
H485 C473 0.929 . S
H486 C475 0.929 . S
O487 Co462 2.351 . S
O487 C490 1.244 . S
O488 Co462 2.155 . S
O488 C490 1.240 . S
O489 Co462 2.096 . S
O489 C470 1.247 . S
C490 O487 1.244 . S
C490 O488 1.240 . S
H491 C465 0.931 . S
H492 C474 0.931 . S
H493 C478 0.929 . S
H494 C480 0.930 . S
Co495 N499 2.148 . S
Co495 N505 2.128 . S
Co495 N515 2.194 . S
Co495 O520 2.351 . S
Co495 O521 2.155 . S
Co495 O522 2.096 . S
C496 N499 1.301 . S
C496 N500 1.328 . S
C496 H501 0.930 . S
C497 C498 1.333 . S
C497 N499 1.317 . S
C497 H502 0.930 . S
C498 C497 1.333 . S
C498 N500 1.350 . S
C498 H524 0.931 . S
N499 Co495 2.148 . S
N499 C496 1.301 . S
N499 C497 1.317 . S
N500 C496 1.328 . S
N500 C498 1.350 . S
H501 C496 0.930 . S
H502 C497 0.930 . S
C503 O504 1.224 . S
C503 O522 1.247 . S
O504 C503 1.224 . S
N505 Co495 2.128 . S
N505 C506 1.355 . S
N505 C508 1.311 . S
C506 N505 1.355 . S
C506 C507 1.363 . S
C506 H518 0.929 . S
C507 C506 1.363 . S
C507 N509 1.375 . S
C507 H525 0.931 . S
C508 N505 1.311 . S
C508 N509 1.347 . S
C508 H519 0.929 . S
N509 C507 1.375 . S
N509 C508 1.347 . S
C510 C513 1.365 . S
C510 N515 1.328 . S
C510 H516 0.929 . S
C511 C512 1.362 . S
C511 C514 1.378 . S
C511 H526 0.929 . S
C512 C511 1.362 . S
C512 C513 1.366 . S
C513 C510 1.365 . S
C513 C512 1.366 . S
C513 H527 0.930 . S
C514 C511 1.378 . S
C514 N515 1.315 . S
C514 H517 0.930 . S
N515 Co495 2.194 . S
N515 C510 1.328 . S
N515 C514 1.315 . S
H516 C510 0.929 . S
H517 C514 0.930 . S
H518 C506 0.929 . S
H519 C508 0.929 . S
O520 Co495 2.351 . S
O520 C523 1.244 . S
O521 Co495 2.155 . S
O521 C523 1.240 . S
O522 Co495 2.096 . S
O522 C503 1.247 . S
C523 O520 1.244 . S
C523 O521 1.240 . S
H524 C498 0.931 . S
H525 C507 0.931 . S
H526 C511 0.929 . S
H527 C513 0.930 . S
Co528 N532 2.148 . S
Co528 N538 2.128 . S
Co528 N548 2.194 . S
Co528 O553 2.351 . S
Co528 O554 2.155 . S
Co528 O555 2.096 . S
C529 N532 1.301 1_565 S
C529 N533 1.328 . S
C529 H534 0.930 . S
C530 C531 1.333 1_545 S
C530 N532 1.317 . S
C530 H535 0.930 . S
C531 C530 1.333 1_565 S
C531 N533 1.350 . S
C531 H557 0.931 . S
N532 Co528 2.148 . S
N532 C529 1.301 1_545 S
N532 C530 1.317 . S
N533 C529 1.328 . S
N533 C531 1.350 . S
H534 C529 0.930 . S
H535 C530 0.930 . S
C536 O537 1.224 . S
C536 O555 1.247 . S
O537 C536 1.224 . S
N538 Co528 2.128 . S
N538 C539 1.355 . S
N538 C541 1.311 . S
C539 N538 1.355 . S
C539 C540 1.363 . S
C539 H551 0.929 . S
C540 C539 1.363 . S
C540 N542 1.375 . S
C540 H558 0.931 . S
C541 N538 1.311 . S
C541 N542 1.347 . S
C541 H552 0.929 . S
N542 C540 1.375 . S
N542 C541 1.347 . S
C543 C546 1.365 . S
C543 N548 1.328 . S
C543 H549 0.929 . S
C544 C545 1.362 . S
C544 C547 1.378 . S
C544 H559 0.929 . S
C545 C544 1.362 . S
C545 C546 1.366 . S
C546 C543 1.365 . S
C546 C545 1.366 . S
C546 H560 0.930 1_655 S
C547 C544 1.378 . S
C547 N548 1.315 . S
C547 H550 0.930 . S
N548 Co528 2.194 . S
N548 C543 1.328 . S
N548 C547 1.315 . S
H549 C543 0.929 . S
H550 C547 0.930 . S
H551 C539 0.929 . S
H552 C541 0.929 . S
O553 Co528 2.351 . S
O553 C556 1.244 . S
O554 Co528 2.155 . S
O554 C556 1.240 . S
O555 Co528 2.096 . S
O555 C536 1.247 . S
C556 O553 1.244 . S
C556 O554 1.240 . S
H557 C531 0.931 . S
H558 C540 0.931 . S
H559 C544 0.929 . S
H560 C546 0.930 1_455 S
Co561 N565 2.148 . S
Co561 N571 2.128 1_545 S
Co561 N581 2.194 . S
Co561 O586 2.351 . S
Co561 O587 2.155 . S
Co561 O588 2.096 . S
C562 N565 1.301 . S
C562 N566 1.328 . S
C562 H567 0.930 . S
C563 C564 1.333 . S
C563 N565 1.317 . S
C563 H568 0.930 . S
C564 C563 1.333 . S
C564 N566 1.350 . S
C564 H590 0.931 . S
N565 Co561 2.148 . S
N565 C562 1.301 . S
N565 C563 1.317 . S
N566 C562 1.328 . S
N566 C564 1.350 . S
H567 C562 0.930 . S
H568 C563 0.930 . S
C569 O570 1.224 . S
C569 O588 1.247 1_565 S
O570 C569 1.224 . S
N571 Co561 2.128 1_565 S
N571 C572 1.355 . S
N571 C574 1.311 . S
C572 N571 1.355 . S
C572 C573 1.363 . S
C572 H584 0.929 . S
C573 C572 1.363 . S
C573 N575 1.375 . S
C573 H591 0.931 . S
C574 N571 1.311 . S
C574 N575 1.347 . S
C574 H585 0.929 . S
N575 C573 1.375 . S
N575 C574 1.347 . S
C576 C579 1.365 . S
C576 N581 1.328 . S
C576 H582 0.929 . S
C577 C578 1.362 . S
C577 C580 1.378 . S
C577 H592 0.929 . S
C578 C577 1.362 . S
C578 C579 1.366 . S
C579 C576 1.365 . S
C579 C578 1.366 . S
C579 H593 0.930 . S
C580 C577 1.378 . S
C580 N581 1.315 . S
C580 H583 0.930 . S
N581 Co561 2.194 . S
N581 C576 1.328 . S
N581 C580 1.315 . S
H582 C576 0.929 . S
H583 C580 0.930 . S
H584 C572 0.929 . S
H585 C574 0.929 . S
O586 Co561 2.351 . S
O586 C589 1.244 . S
O587 Co561 2.155 . S
O587 C589 1.240 . S
O588 Co561 2.096 . S
O588 C569 1.247 1_545 S
C589 O586 1.244 . S
C589 O587 1.240 . S
H590 C564 0.931 . S
H591 C573 0.931 . S
H592 C577 0.929 . S
H593 C579 0.930 . S
Co594 N598 2.148 . S
Co594 N604 2.128 1_545 S
Co594 N614 2.194 . S
Co594 O619 2.351 . S
Co594 O620 2.155 . S
Co594 O621 2.096 . S
C595 N598 1.301 . S
C595 N599 1.328 . S
C595 H600 0.930 . S
C596 C597 1.333 . S
C596 N598 1.317 . S
C596 H601 0.930 . S
C597 C596 1.333 . S
C597 N599 1.350 . S
C597 H623 0.931 . S
N598 Co594 2.148 . S
N598 C595 1.301 . S
N598 C596 1.317 . S
N599 C595 1.328 . S
N599 C597 1.350 . S
H600 C595 0.930 . S
H601 C596 0.930 . S
C602 O603 1.224 . S
C602 O621 1.247 1_565 S
O603 C602 1.224 . S
N604 Co594 2.128 1_565 S
N604 C605 1.355 . S
N604 C607 1.311 . S
C605 N604 1.355 . S
C605 C606 1.363 . S
C605 H617 0.929 . S
C606 C605 1.363 . S
C606 N608 1.375 . S
C606 H624 0.931 . S
C607 N604 1.311 . S
C607 N608 1.347 . S
C607 H618 0.929 . S
N608 C606 1.375 . S
N608 C607 1.347 . S
C609 C612 1.365 . S
C609 N614 1.328 . S
C609 H615 0.929 . S
C610 C611 1.362 . S
C610 C613 1.378 . S
C610 H625 0.929 . S
C611 C610 1.362 . S
C611 C612 1.366 . S
C612 C609 1.365 . S
C612 C611 1.366 . S
C612 H626 0.930 1_655 S
C613 C610 1.378 . S
C613 N614 1.315 . S
C613 H616 0.930 . S
N614 Co594 2.194 . S
N614 C609 1.328 . S
N614 C613 1.315 . S
H615 C609 0.929 . S
H616 C613 0.930 . S
H617 C605 0.929 . S
H618 C607 0.929 . S
O619 Co594 2.351 . S
O619 C622 1.244 . S
O620 Co594 2.155 . S
O620 C622 1.240 . S
O621 Co594 2.096 . S
O621 C602 1.247 1_545 S
C622 O619 1.244 . S
C622 O620 1.240 . S
H623 C597 0.931 . S
H624 C606 0.931 . S
H625 C610 0.929 . S
H626 C612 0.930 1_455 S
Co627 N631 2.148 . S
Co627 N637 2.128 . S
Co627 N647 2.194 . S
Co627 O652 2.351 . S
Co627 O653 2.155 . S
Co627 O654 2.096 . S
C628 N631 1.301 1_565 S
C628 N632 1.328 . S
C628 H633 0.930 . S
C629 C630 1.333 1_545 S
C629 N631 1.317 . S
C629 H634 0.930 . S
C630 C629 1.333 1_565 S
C630 N632 1.350 . S
C630 H656 0.931 . S
N631 Co627 2.148 . S
N631 C628 1.301 1_545 S
N631 C629 1.317 . S
N632 C628 1.328 . S
N632 C630 1.350 . S
H633 C628 0.930 . S
H634 C629 0.930 . S
C635 O636 1.224 . S
C635 O654 1.247 . S
O636 C635 1.224 . S
N637 Co627 2.128 . S
N637 C638 1.355 . S
N637 C640 1.311 . S
C638 N637 1.355 . S
C638 C639 1.363 . S
C638 H650 0.929 . S
C639 C638 1.363 . S
C639 N641 1.375 . S
C639 H657 0.931 . S
C640 N637 1.311 . S
C640 N641 1.347 . S
C640 H651 0.929 . S
N641 C639 1.375 . S
N641 C640 1.347 . S
C642 C645 1.365 . S
C642 N647 1.328 . S
C642 H648 0.929 . S
C643 C644 1.362 . S
C643 C646 1.378 . S
C643 H658 0.929 . S
C644 C643 1.362 . S
C644 C645 1.366 . S
C645 C642 1.365 . S
C645 C644 1.366 . S
C645 H659 0.930 . S
C646 C643 1.378 . S
C646 N647 1.315 . S
C646 H649 0.930 . S
N647 Co627 2.194 . S
N647 C642 1.328 . S
N647 C646 1.315 . S
H648 C642 0.929 . S
H649 C646 0.930 . S
H650 C638 0.929 . S
H651 C640 0.929 . S
O652 Co627 2.351 . S
O652 C655 1.244 . S
O653 Co627 2.155 . S
O653 C655 1.240 . S
O654 Co627 2.096 . S
O654 C635 1.247 . S
C655 O652 1.244 . S
C655 O653 1.240 . S
H656 C630 0.931 . S
H657 C639 0.931 . S
H658 C643 0.929 . S
H659 C645 0.930 . S
Co660 N664 2.148 . S
Co660 N670 2.128 . S
Co660 N680 2.194 . S
Co660 O685 2.351 . S
Co660 O686 2.155 . S
Co660 O687 2.096 . S
C661 N664 1.301 1_545 S
C661 N665 1.328 . S
C661 H666 0.930 . S
C662 C663 1.333 1_565 S
C662 N664 1.317 . S
C662 H667 0.930 . S
C663 C662 1.333 1_545 S
C663 N665 1.350 . S
C663 H689 0.931 . S
N664 Co660 2.148 . S
N664 C661 1.301 1_565 S
N664 C662 1.317 . S
N665 C661 1.328 . S
N665 C663 1.350 . S
H666 C661 0.930 . S
H667 C662 0.930 . S
C668 O669 1.224 . S
C668 O687 1.247 . S
O669 C668 1.224 . S
N670 Co660 2.128 . S
N670 C671 1.355 . S
N670 C673 1.311 . S
C671 N670 1.355 . S
C671 C672 1.363 . S
C671 H683 0.929 . S
C672 C671 1.363 . S
C672 N674 1.375 . S
C672 H690 0.931 . S
C673 N670 1.311 . S
C673 N674 1.347 . S
C673 H684 0.929 . S
N674 C672 1.375 . S
N674 C673 1.347 . S
C675 C678 1.365 . S
C675 N680 1.328 . S
C675 H681 0.929 . S
C676 C677 1.362 . S
C676 C679 1.378 . S
C676 H691 0.929 . S
C677 C676 1.362 . S
C677 C678 1.366 . S
C678 C675 1.365 . S
C678 C677 1.366 . S
C678 H692 0.930 1_455 S
C679 C676 1.378 . S
C679 N680 1.315 . S
C679 H682 0.930 . S
N680 Co660 2.194 . S
N680 C675 1.328 . S
N680 C679 1.315 . S
H681 C675 0.929 . S
H682 C679 0.930 . S
H683 C671 0.929 . S
H684 C673 0.929 . S
O685 Co660 2.351 . S
O685 C688 1.244 . S
O686 Co660 2.155 . S
O686 C688 1.240 . S
O687 Co660 2.096 . S
O687 C668 1.247 . S
C688 O685 1.244 . S
C688 O686 1.240 . S
H689 C663 0.931 . S
H690 C672 0.931 . S
H691 C676 0.929 . S
H692 C678 0.930 1_655 S
Co693 N697 2.148 . S
Co693 N703 2.128 1_565 S
Co693 N713 2.194 . S
Co693 O718 2.351 . S
Co693 O719 2.155 . S
Co693 O720 2.096 . S
C694 N697 1.301 . S
C694 N698 1.328 . S
C694 H699 0.930 . S
C695 C696 1.333 . S
C695 N697 1.317 . S
C695 H700 0.930 . S
C696 C695 1.333 . S
C696 N698 1.350 . S
C696 H722 0.931 . S
N697 Co693 2.148 . S
N697 C694 1.301 . S
N697 C695 1.317 . S
N698 C694 1.328 . S
N698 C696 1.350 . S
H699 C694 0.930 . S
H700 C695 0.930 . S
C701 O702 1.224 . S
C701 O720 1.247 1_545 S
O702 C701 1.224 . S
N703 Co693 2.128 1_545 S
N703 C704 1.355 . S
N703 C706 1.311 . S
C704 N703 1.355 . S
C704 C705 1.363 . S
C704 H716 0.929 . S
C705 C704 1.363 . S
C705 N707 1.375 . S
C705 H723 0.931 . S
C706 N703 1.311 . S
C706 N707 1.347 . S
C706 H717 0.929 . S
N707 C705 1.375 . S
N707 C706 1.347 . S
C708 C711 1.365 . S
C708 N713 1.328 . S
C708 H714 0.929 . S
C709 C710 1.362 . S
C709 C712 1.378 . S
C709 H724 0.929 . S
C710 C709 1.362 . S
C710 C711 1.366 . S
C711 C708 1.365 . S
C711 C710 1.366 . S
C711 H725 0.930 . S
C712 C709 1.378 . S
C712 N713 1.315 . S
C712 H715 0.930 . S
N713 Co693 2.194 . S
N713 C708 1.328 . S
N713 C712 1.315 . S
H714 C708 0.929 . S
H715 C712 0.930 . S
H716 C704 0.929 . S
H717 C706 0.929 . S
O718 Co693 2.351 . S
O718 C721 1.244 . S
O719 Co693 2.155 . S
O719 C721 1.240 . S
O720 Co693 2.096 . S
O720 C701 1.247 1_565 S
C721 O718 1.244 . S
C721 O719 1.240 . S
H722 C696 0.931 . S
H723 C705 0.931 . S
H724 C709 0.929 . S
H725 C711 0.930 . S
Co726 N730 2.148 . S
Co726 N736 2.128 1_565 S
Co726 N746 2.194 . S
Co726 O751 2.351 . S
Co726 O752 2.155 . S
Co726 O753 2.096 . S
C727 N730 1.301 . S
C727 N731 1.328 . S
C727 H732 0.930 . S
C728 C729 1.333 . S
C728 N730 1.317 . S
C728 H733 0.930 . S
C729 C728 1.333 . S
C729 N731 1.350 . S
C729 H755 0.931 . S
N730 Co726 2.148 . S
N730 C727 1.301 . S
N730 C728 1.317 . S
N731 C727 1.328 . S
N731 C729 1.350 . S
H732 C727 0.930 . S
H733 C728 0.930 . S
C734 O735 1.224 . S
C734 O753 1.247 1_545 S
O735 C734 1.224 . S
N736 Co726 2.128 1_545 S
N736 C737 1.355 . S
N736 C739 1.311 . S
C737 N736 1.355 . S
C737 C738 1.363 . S
C737 H749 0.929 . S
C738 C737 1.363 . S
C738 N740 1.375 . S
C738 H756 0.931 . S
C739 N736 1.311 . S
C739 N740 1.347 . S
C739 H750 0.929 . S
N740 C738 1.375 . S
N740 C739 1.347 . S
C741 C744 1.365 . S
C741 N746 1.328 . S
C741 H747 0.929 . S
C742 C743 1.362 . S
C742 C745 1.378 . S
C742 H757 0.929 . S
C743 C742 1.362 . S
C743 C744 1.366 . S
C744 C741 1.365 . S
C744 C743 1.366 . S
C744 H758 0.930 1_455 S
C745 C742 1.378 . S
C745 N746 1.315 . S
C745 H748 0.930 . S
N746 Co726 2.194 . S
N746 C741 1.328 . S
N746 C745 1.315 . S
H747 C741 0.929 . S
H748 C745 0.930 . S
H749 C737 0.929 . S
H750 C739 0.929 . S
O751 Co726 2.351 . S
O751 C754 1.244 . S
O752 Co726 2.155 . S
O752 C754 1.240 . S
O753 Co726 2.096 . S
O753 C734 1.247 1_565 S
C754 O751 1.244 . S
C754 O752 1.240 . S
H755 C729 0.931 . S
H756 C738 0.931 . S
H757 C742 0.929 . S
H758 C744 0.930 1_655 S
Co759 N763 2.148 . S
Co759 N769 2.128 . S
Co759 N779 2.194 . S
Co759 O784 2.351 . S
Co759 O785 2.155 . S
Co759 O786 2.096 . S
C760 N763 1.301 1_545 S
C760 N764 1.328 . S
C760 H765 0.930 . S
C761 C762 1.333 1_565 S
C761 N763 1.317 . S
C761 H766 0.930 . S
C762 C761 1.333 1_545 S
C762 N764 1.350 . S
C762 H788 0.931 . S
N763 Co759 2.148 . S
N763 C760 1.301 1_565 S
N763 C761 1.317 . S
N764 C760 1.328 . S
N764 C762 1.350 . S
H765 C760 0.930 . S
H766 C761 0.930 . S
C767 O768 1.224 . S
C767 O786 1.247 . S
O768 C767 1.224 . S
N769 Co759 2.128 . S
N769 C770 1.355 . S
N769 C772 1.311 . S
C770 N769 1.355 . S
C770 C771 1.363 . S
C770 H782 0.929 . S
C771 C770 1.363 . S
C771 N773 1.375 . S
C771 H789 0.931 . S
C772 N769 1.311 . S
C772 N773 1.347 . S
C772 H783 0.929 . S
N773 C771 1.375 . S
N773 C772 1.347 . S
C774 C777 1.365 . S
C774 N779 1.328 . S
C774 H780 0.929 . S
C775 C776 1.362 . S
C775 C778 1.378 . S
C775 H790 0.929 . S
C776 C775 1.362 . S
C776 C777 1.366 . S
C777 C774 1.365 . S
C777 C776 1.366 . S
C777 H791 0.930 . S
C778 C775 1.378 . S
C778 N779 1.315 . S
C778 H781 0.930 . S
N779 Co759 2.194 . S
N779 C774 1.328 . S
N779 C778 1.315 . S
H780 C774 0.929 . S
H781 C778 0.930 . S
H782 C770 0.929 . S
H783 C772 0.929 . S
O784 Co759 2.351 . S
O784 C787 1.244 . S
O785 Co759 2.155 . S
O785 C787 1.240 . S
O786 Co759 2.096 . S
O786 C767 1.247 . S
C787 O784 1.244 . S
C787 O785 1.240 . S
H788 C762 0.931 . S
H789 C771 0.931 . S
H790 C775 0.929 . S
H791 C777 0.930 . S
Co792 N796 2.148 . S
Co792 N802 2.128 . S
Co792 N812 2.194 . S
Co792 O817 2.351 . S
Co792 O818 2.155 . S
Co792 O819 2.096 . S
C793 N796 1.301 . S
C793 N797 1.328 . S
C793 H798 0.930 . S
C794 C795 1.333 . S
C794 N796 1.317 . S
C794 H799 0.930 . S
C795 C794 1.333 . S
C795 N797 1.350 . S
C795 H821 0.931 . S
N796 Co792 2.148 . S
N796 C793 1.301 . S
N796 C794 1.317 . S
N797 C793 1.328 . S
N797 C795 1.350 . S
H798 C793 0.930 . S
H799 C794 0.930 . S
C800 O801 1.224 . S
C800 O819 1.247 . S
O801 C800 1.224 . S
N802 Co792 2.128 . S
N802 C803 1.355 . S
N802 C805 1.311 . S
C803 N802 1.355 . S
C803 C804 1.363 . S
C803 H815 0.929 . S
C804 C803 1.363 . S
C804 N806 1.375 . S
C804 H822 0.931 . S
C805 N802 1.311 . S
C805 N806 1.347 . S
C805 H816 0.929 . S
N806 C804 1.375 . S
N806 C805 1.347 . S
C807 C810 1.365 . S
C807 N812 1.328 . S
C807 H813 0.929 . S
C808 C809 1.362 . S
C808 C811 1.378 . S
C808 H823 0.929 . S
C809 C808 1.362 . S
C809 C810 1.366 . S
C810 C807 1.365 . S
C810 C809 1.366 . S
C810 H824 0.930 1_655 S
C811 C808 1.378 . S
C811 N812 1.315 . S
C811 H814 0.930 . S
N812 Co792 2.194 . S
N812 C807 1.328 . S
N812 C811 1.315 . S
H813 C807 0.929 . S
H814 C811 0.930 . S
H815 C803 0.929 . S
H816 C805 0.929 . S
O817 Co792 2.351 . S
O817 C820 1.244 . S
O818 Co792 2.155 . S
O818 C820 1.240 . S
O819 Co792 2.096 . S
O819 C800 1.247 . S
C820 O817 1.244 . S
C820 O818 1.240 . S
H821 C795 0.931 . S
H822 C804 0.931 . S
H823 C808 0.929 . S
H824 C810 0.930 1_455 S
Co825 N829 2.148 . S
Co825 N835 2.128 . S
Co825 N845 2.194 . S
Co825 O850 2.351 . S
Co825 O851 2.155 . S
Co825 O852 2.096 . S
C826 N829 1.301 . S
C826 N830 1.328 . S
C826 H831 0.930 . S
C827 C828 1.333 . S
C827 N829 1.317 . S
C827 H832 0.930 . S
C828 C827 1.333 . S
C828 N830 1.350 . S
C828 H854 0.931 . S
N829 Co825 2.148 . S
N829 C826 1.301 . S
N829 C827 1.317 . S
N830 C826 1.328 . S
N830 C828 1.350 . S
H831 C826 0.930 . S
H832 C827 0.930 . S
C833 O834 1.224 . S
C833 O852 1.247 . S
O834 C833 1.224 . S
N835 Co825 2.128 . S
N835 C836 1.355 . S
N835 C838 1.311 . S
C836 N835 1.355 . S
C836 C837 1.363 . S
C836 H848 0.929 . S
C837 C836 1.363 . S
C837 N839 1.375 . S
C837 H855 0.931 . S
C838 N835 1.311 . S
C838 N839 1.347 . S
C838 H849 0.929 . S
N839 C837 1.375 . S
N839 C838 1.347 . S
C840 C843 1.365 . S
C840 N845 1.328 . S
C840 H846 0.929 . S
C841 C842 1.362 . S
C841 C844 1.378 . S
C841 H856 0.929 . S
C842 C841 1.362 . S
C842 C843 1.366 . S
C843 C840 1.365 . S
C843 C842 1.366 . S
C843 H857 0.930 . S
C844 C841 1.378 . S
C844 N845 1.315 . S
C844 H847 0.930 . S
N845 Co825 2.194 . S
N845 C840 1.328 . S
N845 C844 1.315 . S
H846 C840 0.929 . S
H847 C844 0.930 . S
H848 C836 0.929 . S
H849 C838 0.929 . S
O850 Co825 2.351 . S
O850 C853 1.244 . S
O851 Co825 2.155 . S
O851 C853 1.240 . S
O852 Co825 2.096 . S
O852 C833 1.247 . S
C853 O850 1.244 . S
C853 O851 1.240 . S
H854 C828 0.931 . S
H855 C837 0.931 . S
H856 C841 0.929 . S
H857 C843 0.930 . S
Co858 N862 2.148 . S
Co858 N868 2.128 . S
Co858 N878 2.194 . S
Co858 O883 2.351 . S
Co858 O884 2.155 . S
Co858 O885 2.096 . S
C859 N862 1.301 . S
C859 N863 1.328 . S
C859 H864 0.930 . S
C860 C861 1.333 . S
C860 N862 1.317 . S
C860 H865 0.930 . S
C861 C860 1.333 . S
C861 N863 1.350 . S
C861 H887 0.931 . S
N862 Co858 2.148 . S
N862 C859 1.301 . S
N862 C860 1.317 . S
N863 C859 1.328 . S
N863 C861 1.350 . S
H864 C859 0.930 . S
H865 C860 0.930 . S
C866 O867 1.224 . S
C866 O885 1.247 . S
O867 C866 1.224 . S
N868 Co858 2.128 . S
N868 C869 1.355 . S
N868 C871 1.311 . S
C869 N868 1.355 . S
C869 C870 1.363 . S
C869 H881 0.929 . S
C870 C869 1.363 . S
C870 N872 1.375 . S
C870 H888 0.931 . S
C871 N868 1.311 . S
C871 N872 1.347 . S
C871 H882 0.929 . S
N872 C870 1.375 . S
N872 C871 1.347 . S
C873 C876 1.365 . S
C873 N878 1.328 . S
C873 H879 0.929 . S
C874 C875 1.362 . S
C874 C877 1.378 . S
C874 H889 0.929 . S
C875 C874 1.362 . S
C875 C876 1.366 . S
C876 C873 1.365 . S
C876 C875 1.366 . S
C876 H890 0.930 1_655 S
C877 C874 1.378 . S
C877 N878 1.315 . S
C877 H880 0.930 . S
N878 Co858 2.194 . S
N878 C873 1.328 . S
N878 C877 1.315 . S
H879 C873 0.929 . S
H880 C877 0.930 . S
H881 C869 0.929 . S
H882 C871 0.929 . S
O883 Co858 2.351 . S
O883 C886 1.244 . S
O884 Co858 2.155 . S
O884 C886 1.240 . S
O885 Co858 2.096 . S
O885 C866 1.247 . S
C886 O883 1.244 . S
C886 O884 1.240 . S
H887 C861 0.931 . S
H888 C870 0.931 . S
H889 C874 0.929 . S
H890 C876 0.930 1_455 S
Co891 N895 2.148 . S
Co891 N901 2.128 . S
Co891 N911 2.194 . S
Co891 O916 2.351 . S
Co891 O917 2.155 . S
Co891 O918 2.096 . S
C892 N895 1.301 . S
C892 N896 1.328 . S
C892 H897 0.930 . S
C893 C894 1.333 . S
C893 N895 1.317 . S
C893 H898 0.930 . S
C894 C893 1.333 . S
C894 N896 1.350 . S
C894 H920 0.931 . S
N895 Co891 2.148 . S
N895 C892 1.301 . S
N895 C893 1.317 . S
N896 C892 1.328 . S
N896 C894 1.350 . S
H897 C892 0.930 . S
H898 C893 0.930 . S
C899 O900 1.224 . S
C899 O918 1.247 . S
O900 C899 1.224 . S
N901 Co891 2.128 . S
N901 C902 1.355 . S
N901 C904 1.311 . S
C902 N901 1.355 . S
C902 C903 1.363 . S
C902 H914 0.929 . S
C903 C902 1.363 . S
C903 N905 1.375 . S
C903 H921 0.931 . S
C904 N901 1.311 . S
C904 N905 1.347 . S
C904 H915 0.929 . S
N905 C903 1.375 . S
N905 C904 1.347 . S
C906 C909 1.365 . S
C906 N911 1.328 . S
C906 H912 0.929 . S
C907 C908 1.362 . S
C907 C910 1.378 . S
C907 H922 0.929 . S
C908 C907 1.362 . S
C908 C909 1.366 . S
C909 C906 1.365 . S
C909 C908 1.366 . S
C909 H923 0.930 . S
C910 C907 1.378 . S
C910 N911 1.315 . S
C910 H913 0.930 . S
N911 Co891 2.194 . S
N911 C906 1.328 . S
N911 C910 1.315 . S
H912 C906 0.929 . S
H913 C910 0.930 . S
H914 C902 0.929 . S
H915 C904 0.929 . S
O916 Co891 2.351 . S
O916 C919 1.244 . S
O917 Co891 2.155 . S
O917 C919 1.240 . S
O918 Co891 2.096 . S
O918 C899 1.247 . S
C919 O916 1.244 . S
C919 O917 1.240 . S
H920 C894 0.931 . S
H921 C903 0.931 . S
H922 C907 0.929 . S
H923 C909 0.930 . S
Co924 N928 2.148 . S
Co924 N934 2.128 . S
Co924 N944 2.194 . S
Co924 O949 2.351 . S
Co924 O950 2.155 . S
Co924 O951 2.096 . S
C925 N928 1.301 . S
C925 N929 1.328 . S
C925 H930 0.930 . S
C926 C927 1.333 . S
C926 N928 1.317 . S
C926 H931 0.930 . S
C927 C926 1.333 . S
C927 N929 1.350 . S
C927 H953 0.931 . S
N928 Co924 2.148 . S
N928 C925 1.301 . S
N928 C926 1.317 . S
N929 C925 1.328 . S
N929 C927 1.350 . S
H930 C925 0.930 . S
H931 C926 0.930 . S
C932 O933 1.224 . S
C932 O951 1.247 . S
O933 C932 1.224 . S
N934 Co924 2.128 . S
N934 C935 1.355 . S
N934 C937 1.311 . S
C935 N934 1.355 . S
C935 C936 1.363 . S
C935 H947 0.929 . S
C936 C935 1.363 . S
C936 N938 1.375 . S
C936 H954 0.931 . S
C937 N934 1.311 . S
C937 N938 1.347 . S
C937 H948 0.929 . S
N938 C936 1.375 . S
N938 C937 1.347 . S
C939 C942 1.365 . S
C939 N944 1.328 . S
C939 H945 0.929 . S
C940 C941 1.362 . S
C940 C943 1.378 . S
C940 H955 0.929 . S
C941 C940 1.362 . S
C941 C942 1.366 . S
C942 C939 1.365 . S
C942 C941 1.366 . S
C942 H956 0.930 1_455 S
C943 C940 1.378 . S
C943 N944 1.315 . S
C943 H946 0.930 . S
N944 Co924 2.194 . S
N944 C939 1.328 . S
N944 C943 1.315 . S
H945 C939 0.929 . S
H946 C943 0.930 . S
H947 C935 0.929 . S
H948 C937 0.929 . S
O949 Co924 2.351 . S
O949 C952 1.244 . S
O950 Co924 2.155 . S
O950 C952 1.240 . S
O951 Co924 2.096 . S
O951 C932 1.247 . S
C952 O949 1.244 . S
C952 O950 1.240 . S
H953 C927 0.931 . S
H954 C936 0.931 . S
H955 C940 0.929 . S
H956 C942 0.930 1_655 S
Co957 N961 2.148 . S
Co957 N967 2.128 . S
Co957 N977 2.194 . S
Co957 O982 2.351 . S
Co957 O983 2.155 . S
Co957 O984 2.096 . S
C958 N961 1.301 . S
C958 N962 1.328 . S
C958 H963 0.930 . S
C959 C960 1.333 . S
C959 N961 1.317 . S
C959 H964 0.930 . S
C960 C959 1.333 . S
C960 N962 1.350 . S
C960 H986 0.931 . S
N961 Co957 2.148 . S
N961 C958 1.301 . S
N961 C959 1.317 . S
N962 C958 1.328 . S
N962 C960 1.350 . S
H963 C958 0.930 . S
H964 C959 0.930 . S
C965 O966 1.224 . S
C965 O984 1.247 . S
O966 C965 1.224 . S
N967 Co957 2.128 . S
N967 C968 1.355 . S
N967 C970 1.311 . S
C968 N967 1.355 . S
C968 C969 1.363 . S
C968 H980 0.929 . S
C969 C968 1.363 . S
C969 N971 1.375 . S
C969 H987 0.931 . S
C970 N967 1.311 . S
C970 N971 1.347 . S
C970 H981 0.929 . S
N971 C969 1.375 . S
N971 C970 1.347 . S
C972 C975 1.365 . S
C972 N977 1.328 . S
C972 H978 0.929 . S
C973 C974 1.362 . S
C973 C976 1.378 . S
C973 H988 0.929 . S
C974 C973 1.362 . S
C974 C975 1.366 . S
C975 C972 1.365 . S
C975 C974 1.366 . S
C975 H989 0.930 . S
C976 C973 1.378 . S
C976 N977 1.315 . S
C976 H979 0.930 . S
N977 Co957 2.194 . S
N977 C972 1.328 . S
N977 C976 1.315 . S
H978 C972 0.929 . S
H979 C976 0.930 . S
H980 C968 0.929 . S
H981 C970 0.929 . S
O982 Co957 2.351 . S
O982 C985 1.244 . S
O983 Co957 2.155 . S
O983 C985 1.240 . S
O984 Co957 2.096 . S
O984 C965 1.247 . S
C985 O982 1.244 . S
C985 O983 1.240 . S
H986 C960 0.931 . S
H987 C969 0.931 . S
H988 C973 0.929 . S
H989 C975 0.930 . S
Co990 N994 2.148 . S
Co990 N1000 2.128 . S
Co990 N1010 2.194 . S
Co990 O1015 2.351 . S
Co990 O1016 2.155 . S
Co990 O1017 2.096 . S
C991 N994 1.301 . S
C991 N995 1.328 . S
C991 H996 0.930 . S
C992 C993 1.333 . S
C992 N994 1.317 . S
C992 H997 0.930 . S
C993 C992 1.333 . S
C993 N995 1.350 . S
C993 H1019 0.931 . S
N994 Co990 2.148 . S
N994 C991 1.301 . S
N994 C992 1.317 . S
N995 C991 1.328 . S
N995 C993 1.350 . S
H996 C991 0.930 . S
H997 C992 0.930 . S
C998 O999 1.224 . S
C998 O1017 1.247 . S
O999 C998 1.224 . S
N1000 Co990 2.128 . S
N1000 C1001 1.355 . S
N1000 C1003 1.311 . S
C1001 N1000 1.355 . S
C1001 C1002 1.363 . S
C1001 H1013 0.929 . S
C1002 C1001 1.363 . S
C1002 N1004 1.375 . S
C1002 H1020 0.931 . S
C1003 N1000 1.311 . S
C1003 N1004 1.347 . S
C1003 H1014 0.929 . S
N1004 C1002 1.375 . S
N1004 C1003 1.347 . S
C1005 C1008 1.365 . S
C1005 N1010 1.328 . S
C1005 H1011 0.929 . S
C1006 C1007 1.362 . S
C1006 C1009 1.378 . S
C1006 H1021 0.929 . S
C1007 C1006 1.362 . S
C1007 C1008 1.366 . S
C1008 C1005 1.365 . S
C1008 C1007 1.366 . S
C1008 H1022 0.930 1_455 S
C1009 C1006 1.378 . S
C1009 N1010 1.315 . S
C1009 H1012 0.930 . S
N1010 Co990 2.194 . S
N1010 C1005 1.328 . S
N1010 C1009 1.315 . S
H1011 C1005 0.929 . S
H1012 C1009 0.930 . S
H1013 C1001 0.929 . S
H1014 C1003 0.929 . S
O1015 Co990 2.351 . S
O1015 C1018 1.244 . S
O1016 Co990 2.155 . S
O1016 C1018 1.240 . S
O1017 Co990 2.096 . S
O1017 C998 1.247 . S
C1018 O1015 1.244 . S
C1018 O1016 1.240 . S
H1019 C993 0.931 . S
H1020 C1002 0.931 . S
H1021 C1006 0.929 . S
H1022 C1008 0.930 1_655 S
Co1023 N1027 2.148 . S
Co1023 N1033 2.128 . S
Co1023 N1043 2.194 . S
Co1023 O1048 2.351 . S
Co1023 O1049 2.155 . S
Co1023 O1050 2.096 . S
C1024 N1027 1.301 . S
C1024 N1028 1.328 . S
C1024 H1029 0.930 . S
C1025 C1026 1.333 . S
C1025 N1027 1.317 . S
C1025 H1030 0.930 . S
C1026 C1025 1.333 . S
C1026 N1028 1.350 . S
C1026 H1052 0.931 . S
N1027 Co1023 2.148 . S
N1027 C1024 1.301 . S
N1027 C1025 1.317 . S
N1028 C1024 1.328 . S
N1028 C1026 1.350 . S
H1029 C1024 0.930 . S
H1030 C1025 0.930 . S
C1031 O1032 1.224 . S
C1031 O1050 1.247 . S
O1032 C1031 1.224 . S
N1033 Co1023 2.128 . S
N1033 C1034 1.355 . S
N1033 C1036 1.311 . S
C1034 N1033 1.355 . S
C1034 C1035 1.363 . S
C1034 H1046 0.929 . S
C1035 C1034 1.363 . S
C1035 N1037 1.375 . S
C1035 H1053 0.931 . S
C1036 N1033 1.311 . S
C1036 N1037 1.347 . S
C1036 H1047 0.929 . S
N1037 C1035 1.375 . S
N1037 C1036 1.347 . S
C1038 C1041 1.365 . S
C1038 N1043 1.328 . S
C1038 H1044 0.929 . S
C1039 C1040 1.362 . S
C1039 C1042 1.378 . S
C1039 H1054 0.929 . S
C1040 C1039 1.362 . S
C1040 C1041 1.366 . S
C1041 C1038 1.365 . S
C1041 C1040 1.366 . S
C1041 H1055 0.930 . S
C1042 C1039 1.378 . S
C1042 N1043 1.315 . S
C1042 H1045 0.930 . S
N1043 Co1023 2.194 . S
N1043 C1038 1.328 . S
N1043 C1042 1.315 . S
H1044 C1038 0.929 . S
H1045 C1042 0.930 . S
H1046 C1034 0.929 . S
H1047 C1036 0.929 . S
O1048 Co1023 2.351 . S
O1048 C1051 1.244 . S
O1049 Co1023 2.155 . S
O1049 C1051 1.240 . S
O1050 Co1023 2.096 . S
O1050 C1031 1.247 . S
C1051 O1048 1.244 . S
C1051 O1049 1.240 . S
H1052 C1026 0.931 . S
H1053 C1035 0.931 . S
H1054 C1039 0.929 . S
H1055 C1041 0.930 . S
C1056 C1057 1.369 . S
C1056 C1058 1.419 . S
C1056 H1060 0.930 . S
C1057 C1056 1.369 . S
C1057 C1066 1.429 . S
C1058 C1056 1.419 . S
C1058 C1059 1.363 . S
C1058 H1061 0.929 . S
C1059 C1058 1.363 . S
C1059 C1065 1.428 . S
H1060 C1056 0.930 . S
H1061 C1058 0.929 . S
S1062 N1063 1.613 1_565 S
S1062 N1064 1.610 . S
N1063 S1062 1.613 1_545 S
N1063 C1066 1.350 . S
N1064 S1062 1.610 . S
N1064 C1065 1.351 1_565 S
C1065 C1059 1.428 . S
C1065 N1064 1.351 1_545 S
C1065 C1066 1.434 . S
C1066 C1057 1.429 . S
C1066 N1063 1.350 . S
C1066 C1065 1.434 . S
C1067 C1068 1.369 . S
C1067 C1069 1.419 . S
C1067 H1071 0.930 . S
C1068 C1067 1.369 . S
C1068 C1077 1.429 . S
C1069 C1067 1.419 . S
C1069 C1070 1.363 . S
C1069 H1072 0.929 . S
C1070 C1069 1.363 . S
C1070 C1076 1.428 . S
H1071 C1067 0.930 . S
H1072 C1069 0.929 . S
S1073 N1074 1.613 . S
S1073 N1075 1.610 . S
N1074 S1073 1.613 . S
N1074 C1077 1.350 . S
N1075 S1073 1.610 . S
N1075 C1076 1.351 . S
C1076 C1070 1.428 . S
C1076 N1075 1.351 . S
C1076 C1077 1.434 . S
C1077 C1068 1.429 . S
C1077 N1074 1.350 . S
C1077 C1076 1.434 . S
C1078 C1079 1.369 . S
C1078 C1080 1.419 . S
C1078 H1082 0.930 . S
C1079 C1078 1.369 . S
C1079 C1088 1.429 . S
C1080 C1078 1.419 . S
C1080 C1081 1.363 . S
C1080 H1083 0.929 . S
C1081 C1080 1.363 . S
C1081 C1087 1.428 . S
H1082 C1078 0.930 . S
H1083 C1080 0.929 . S
S1084 N1085 1.613 . S
S1084 N1086 1.610 . S
N1085 S1084 1.613 . S
N1085 C1088 1.350 . S
N1086 S1084 1.610 . S
N1086 C1087 1.351 . S
C1087 C1081 1.428 . S
C1087 N1086 1.351 . S
C1087 C1088 1.434 . S
C1088 C1079 1.429 . S
C1088 N1085 1.350 . S
C1088 C1087 1.434 . S
C1089 C1090 1.369 . S
C1089 C1091 1.419 . S
C1089 H1093 0.930 . S
C1090 C1089 1.369 . S
C1090 C1099 1.429 . S
C1091 C1089 1.419 . S
C1091 C1092 1.363 . S
C1091 H1094 0.929 . S
C1092 C1091 1.363 . S
C1092 C1098 1.428 . S
H1093 C1089 0.930 . S
H1094 C1091 0.929 . S
S1095 N1096 1.613 . S
S1095 N1097 1.610 . S
N1096 S1095 1.613 . S
N1096 C1099 1.350 1_545 S
N1097 S1095 1.610 . S
N1097 C1098 1.351 1_545 S
C1098 C1092 1.428 . S
C1098 N1097 1.351 1_565 S
C1098 C1099 1.434 . S
C1099 C1090 1.429 . S
C1099 N1096 1.350 1_565 S
C1099 C1098 1.434 . S
C1100 C1101 1.369 . S
C1100 C1102 1.419 . S
C1100 H1104 0.930 . S
C1101 C1100 1.369 . S
C1101 C1110 1.429 . S
C1102 C1100 1.419 . S
C1102 C1103 1.363 . S
C1102 H1105 0.929 . S
C1103 C1102 1.363 . S
C1103 C1109 1.428 . S
H1104 C1100 0.930 . S
H1105 C1102 0.929 . S
S1106 N1107 1.613 . S
S1106 N1108 1.610 . S
N1107 S1106 1.613 . S
N1107 C1110 1.350 . S
N1108 S1106 1.610 . S
N1108 C1109 1.351 . S
C1109 C1103 1.428 . S
C1109 N1108 1.351 . S
C1109 C1110 1.434 . S
C1110 C1101 1.429 . S
C1110 N1107 1.350 . S
C1110 C1109 1.434 . S
C1111 C1112 1.369 . S
C1111 C1113 1.419 . S
C1111 H1115 0.930 . S
C1112 C1111 1.369 . S
C1112 C1121 1.429 . S
C1113 C1111 1.419 . S
C1113 C1114 1.363 . S
C1113 H1116 0.929 . S
C1114 C1113 1.363 . S
C1114 C1120 1.428 . S
H1115 C1111 0.930 . S
H1116 C1113 0.929 . S
S1117 N1118 1.613 . S
S1117 N1119 1.610 . S
N1118 S1117 1.613 . S
N1118 C1121 1.350 . S
N1119 S1117 1.610 . S
N1119 C1120 1.351 . S
C1120 C1114 1.428 . S
C1120 N1119 1.351 . S
C1120 C1121 1.434 . S
C1121 C1112 1.429 . S
C1121 N1118 1.350 . S
C1121 C1120 1.434 . S
C1122 C1123 1.369 . S
C1122 C1124 1.419 . S
C1122 H1126 0.930 . S
C1123 C1122 1.369 . S
C1123 C1132 1.429 . S
C1124 C1122 1.419 . S
C1124 C1125 1.363 . S
C1124 H1127 0.929 . S
C1125 C1124 1.363 . S
C1125 C1131 1.428 . S
H1126 C1122 0.930 . S
H1127 C1124 0.929 . S
S1128 N1129 1.613 . S
S1128 N1130 1.610 . S
N1129 S1128 1.613 . S
N1129 C1132 1.350 . S
N1130 S1128 1.610 . S
N1130 C1131 1.351 . S
C1131 C1125 1.428 . S
C1131 N1130 1.351 . S
C1131 C1132 1.434 . S
C1132 C1123 1.429 . S
C1132 N1129 1.350 . S
C1132 C1131 1.434 . S
C1133 C1134 1.369 . S
C1133 C1135 1.419 . S
C1133 H1137 0.930 . S
C1134 C1133 1.369 . S
C1134 C1143 1.429 . S
C1135 C1133 1.419 . S
C1135 C1136 1.363 . S
C1135 H1138 0.929 . S
C1136 C1135 1.363 . S
C1136 C1142 1.428 . S
H1137 C1133 0.930 . S
H1138 C1135 0.929 . S
S1139 N1140 1.613 . S
S1139 N1141 1.610 . S
N1140 S1139 1.613 . S
N1140 C1143 1.350 . S
N1141 S1139 1.610 . S
N1141 C1142 1.351 . S
C1142 C1136 1.428 . S
C1142 N1141 1.351 . S
C1142 C1143 1.434 . S
C1143 C1134 1.429 . S
C1143 N1140 1.350 . S
C1143 C1142 1.434 . S
C1144 C1145 1.369 . S
C1144 C1146 1.419 . S
C1144 H1148 0.930 . S
C1145 C1144 1.369 . S
C1145 C1154 1.429 . S
C1146 C1144 1.419 . S
C1146 C1147 1.363 . S
C1146 H1149 0.929 . S
C1147 C1146 1.363 . S
C1147 C1153 1.428 . S
H1148 C1144 0.930 . S
H1149 C1146 0.929 . S
S1150 N1151 1.613 . S
S1150 N1152 1.610 . S
N1151 S1150 1.613 . S
N1151 C1154 1.350 1_565 S
N1152 S1150 1.610 . S
N1152 C1153 1.351 1_565 S
C1153 C1147 1.428 . S
C1153 N1152 1.351 1_545 S
C1153 C1154 1.434 . S
C1154 C1145 1.429 . S
C1154 N1151 1.350 1_545 S
C1154 C1153 1.434 . S
C1155 C1156 1.369 . S
C1155 C1157 1.419 . S
C1155 H1159 0.930 . S
C1156 C1155 1.369 . S
C1156 C1165 1.429 . S
C1157 C1155 1.419 . S
C1157 C1158 1.363 . S
C1157 H1160 0.929 . S
C1158 C1157 1.363 . S
C1158 C1164 1.428 . S
H1159 C1155 0.930 . S
H1160 C1157 0.929 . S
S1161 N1162 1.613 . S
S1161 N1163 1.610 . S
N1162 S1161 1.613 . S
N1162 C1165 1.350 . S
N1163 S1161 1.610 . S
N1163 C1164 1.351 . S
C1164 C1158 1.428 . S
C1164 N1163 1.351 . S
C1164 C1165 1.434 . S
C1165 C1156 1.429 . S
C1165 N1162 1.350 . S
C1165 C1164 1.434 . S
C1166 C1167 1.369 . S
C1166 C1168 1.419 . S
C1166 H1170 0.930 . S
C1167 C1166 1.369 . S
C1167 C1176 1.429 . S
C1168 C1166 1.419 . S
C1168 C1169 1.363 . S
C1168 H1171 0.929 . S
C1169 C1168 1.363 . S
C1169 C1175 1.428 . S
H1170 C1166 0.930 . S
H1171 C1168 0.929 . S
S1172 N1173 1.613 . S
S1172 N1174 1.610 . S
N1173 S1172 1.613 . S
N1173 C1176 1.350 1_655 S
N1174 S1172 1.610 . S
N1174 C1175 1.351 1_655 S
C1175 C1169 1.428 . S
C1175 N1174 1.351 1_455 S
C1175 C1176 1.434 . S
C1176 C1167 1.429 . S
C1176 N1173 1.350 1_455 S
C1176 C1175 1.434 . S
C1177 C1178 1.369 . S
C1177 C1179 1.419 . S
C1177 H1181 0.930 . S
C1178 C1177 1.369 . S
C1178 C1187 1.429 . S
C1179 C1177 1.419 . S
C1179 C1180 1.363 . S
C1179 H1182 0.929 1_565 S
C1180 C1179 1.363 . S
C1180 C1186 1.428 . S
H1181 C1177 0.930 . S
H1182 C1179 0.929 1_545 S
S1183 N1184 1.613 . S
S1183 N1185 1.610 . S
N1184 S1183 1.613 . S
N1184 C1187 1.350 . S
N1185 S1183 1.610 . S
N1185 C1186 1.351 . S
C1186 C1180 1.428 . S
C1186 N1185 1.351 . S
C1186 C1187 1.434 . S
C1187 C1178 1.429 . S
C1187 N1184 1.350 . S
C1187 C1186 1.434 . S
C1188 C1189 1.369 . S
C1188 C1190 1.419 . S
C1188 H1192 0.930 1_655 S
C1189 C1188 1.369 . S
C1189 C1198 1.429 . S
C1190 C1188 1.419 . S
C1190 C1191 1.363 . S
C1190 H1193 0.929 1_655 S
C1191 C1190 1.363 . S
C1191 C1197 1.428 . S
H1192 C1188 0.930 1_455 S
H1193 C1190 0.929 1_455 S
S1194 N1195 1.613 . S
S1194 N1196 1.610 . S
N1195 S1194 1.613 . S
N1195 C1198 1.350 . S
N1196 S1194 1.610 . S
N1196 C1197 1.351 . S
C1197 C1191 1.428 . S
C1197 N1196 1.351 . S
C1197 C1198 1.434 . S
C1198 C1189 1.429 . S
C1198 N1195 1.350 . S
C1198 C1197 1.434 . S
C1199 C1200 1.369 . S
C1199 C1201 1.419 . S
C1199 H1203 0.930 . S
C1200 C1199 1.369 . S
C1200 C1209 1.429 . S
C1201 C1199 1.419 . S
C1201 C1202 1.363 . S
C1201 H1204 0.929 . S
C1202 C1201 1.363 . S
C1202 C1208 1.428 . S
H1203 C1199 0.930 . S
H1204 C1201 0.929 . S
S1205 N1206 1.613 . S
S1205 N1207 1.610 . S
N1206 S1205 1.613 . S
N1206 C1209 1.350 . S
N1207 S1205 1.610 . S
N1207 C1208 1.351 . S
C1208 C1202 1.428 . S
C1208 N1207 1.351 . S
C1208 C1209 1.434 . S
C1209 C1200 1.429 . S
C1209 N1206 1.350 . S
C1209 C1208 1.434 . S
C1210 C1211 1.369 . S
C1210 C1212 1.419 . S
C1210 H1214 0.930 1_455 S
C1211 C1210 1.369 . S
C1211 C1220 1.429 . S
C1212 C1210 1.419 . S
C1212 C1213 1.363 . S
C1212 H1215 0.929 1_455 S
C1213 C1212 1.363 . S
C1213 C1219 1.428 . S
H1214 C1210 0.930 1_655 S
H1215 C1212 0.929 1_655 S
S1216 N1217 1.613 . S
S1216 N1218 1.610 . S
N1217 S1216 1.613 . S
N1217 C1220 1.350 . S
N1218 S1216 1.610 . S
N1218 C1219 1.351 . S
C1219 C1213 1.428 . S
C1219 N1218 1.351 . S
C1219 C1220 1.434 . S
C1220 C1211 1.429 . S
C1220 N1217 1.350 . S
C1220 C1219 1.434 . S
C1221 C1222 1.369 . S
C1221 C1223 1.419 . S
C1221 H1225 0.930 . S
C1222 C1221 1.369 . S
C1222 C1231 1.429 . S
C1223 C1221 1.419 . S
C1223 C1224 1.363 . S
C1223 H1226 0.929 . S
C1224 C1223 1.363 . S
C1224 C1230 1.428 . S
H1225 C1221 0.930 . S
H1226 C1223 0.929 . S
S1227 N1228 1.613 . S
S1227 N1229 1.610 . S
N1228 S1227 1.613 . S
N1228 C1231 1.350 . S
N1229 S1227 1.610 . S
N1229 C1230 1.351 . S
C1230 C1224 1.428 . S
C1230 N1229 1.351 . S
C1230 C1231 1.434 . S
C1231 C1222 1.429 . S
C1231 N1228 1.350 . S
C1231 C1230 1.434 . S
C1232 C1233 1.369 1_545 S
C1232 C1234 1.419 . S
C1232 H1236 0.930 . S
C1233 C1232 1.369 1_565 S
C1233 C1242 1.429 1_556 S
C1234 C1232 1.419 . S
C1234 C1235 1.363 1_556 S
C1234 H1237 0.929 . S
C1235 C1234 1.363 1_554 S
C1235 C1241 1.428 1_545 S
H1236 C1232 0.930 . S
H1237 C1234 0.929 . S
S1238 N1239 1.613 . S
S1238 N1240 1.610 . S
N1239 S1238 1.613 . S
N1239 C1242 1.350 . S
N1240 S1238 1.610 . S
N1240 C1241 1.351 . S
C1241 C1235 1.428 1_565 S
C1241 N1240 1.351 . S
C1241 C1242 1.434 . S
C1242 C1233 1.429 1_554 S
C1242 N1239 1.350 . S
C1242 C1241 1.434 . S
C1243 C1244 1.369 . S
C1243 C1245 1.419 . S
C1243 H1247 0.930 . S
C1244 C1243 1.369 . S
C1244 C1253 1.429 1_554 S
C1245 C1243 1.419 . S
C1245 C1246 1.363 1_554 S
C1245 H1248 0.929 . S
C1246 C1245 1.363 1_556 S
C1246 C1252 1.428 . S
H1247 C1243 0.930 . S
H1248 C1245 0.929 . S
S1249 N1250 1.613 . S
S1249 N1251 1.610 . S
N1250 S1249 1.613 . S
N1250 C1253 1.350 . S
N1251 S1249 1.610 . S
N1251 C1252 1.351 . S
C1252 C1246 1.428 . S
C1252 N1251 1.351 . S
C1252 C1253 1.434 . S
C1253 C1244 1.429 1_556 S
C1253 N1250 1.350 . S
C1253 C1252 1.434 . S
C1254 C1255 1.369 . S
C1254 C1256 1.419 . S
C1254 H1258 0.930 . S
C1255 C1254 1.369 . S
C1255 C1264 1.429 . S
C1256 C1254 1.419 . S
C1256 C1257 1.363 . S
C1256 H1259 0.929 . S
C1257 C1256 1.363 . S
C1257 C1263 1.428 . S
H1258 C1254 0.930 . S
H1259 C1256 0.929 . S
S1260 N1261 1.613 . S
S1260 N1262 1.610 . S
N1261 S1260 1.613 . S
N1261 C1264 1.350 . S
N1262 S1260 1.610 . S
N1262 C1263 1.351 . S
C1263 C1257 1.428 . S
C1263 N1262 1.351 . S
C1263 C1264 1.434 . S
C1264 C1255 1.429 . S
C1264 N1261 1.350 . S
C1264 C1263 1.434 . S
C1265 C1266 1.369 . S
C1265 C1267 1.419 1_545 S
C1265 H1269 0.930 . S
C1266 C1265 1.369 . S
C1266 C1275 1.429 . S
C1267 C1265 1.419 1_565 S
C1267 C1268 1.363 . S
C1267 H1270 0.929 . S
C1268 C1267 1.363 . S
C1268 C1274 1.428 . S
H1269 C1265 0.930 . S
H1270 C1267 0.929 . S
S1271 N1272 1.613 . S
S1271 N1273 1.610 . S
N1272 S1271 1.613 . S
N1272 C1275 1.350 1_565 S
N1273 S1271 1.610 . S
N1273 C1274 1.351 . S
C1274 C1268 1.428 . S
C1274 N1273 1.351 . S
C1274 C1275 1.434 1_565 S
C1275 C1266 1.429 . S
C1275 N1272 1.350 1_545 S
C1275 C1274 1.434 1_545 S
C1276 C1277 1.369 1_554 S
C1276 C1278 1.419 . S
C1276 H1280 0.930 . S
C1277 C1276 1.369 1_556 S
C1277 C1286 1.429 . S
C1278 C1276 1.419 . S
C1278 C1279 1.363 . S
C1278 H1281 0.929 . S
C1279 C1278 1.363 . S
C1279 C1285 1.428 1_554 S
H1280 C1276 0.930 . S
H1281 C1278 0.929 . S
S1282 N1283 1.613 . S
S1282 N1284 1.610 . S
N1283 S1282 1.613 . S
N1283 C1286 1.350 . S
N1284 S1282 1.610 . S
N1284 C1285 1.351 . S
C1285 C1279 1.428 1_556 S
C1285 N1284 1.351 . S
C1285 C1286 1.434 . S
C1286 C1277 1.429 . S
C1286 N1283 1.350 . S
C1286 C1285 1.434 . S
C1287 C1288 1.369 . S
C1287 C1289 1.419 . S
C1287 H1291 0.930 . S
C1288 C1287 1.369 . S
C1288 C1297 1.429 . S
C1289 C1287 1.419 . S
C1289 C1290 1.363 . S
C1289 H1292 0.929 . S
C1290 C1289 1.363 . S
C1290 C1296 1.428 . S
H1291 C1287 0.930 . S
H1292 C1289 0.929 . S
S1293 N1294 1.613 . S
S1293 N1295 1.610 . S
N1294 S1293 1.613 . S
N1294 C1297 1.350 . S
N1295 S1293 1.610 . S
N1295 C1296 1.351 . S
C1296 C1290 1.428 . S
C1296 N1295 1.351 . S
C1296 C1297 1.434 . S
C1297 C1288 1.429 . S
C1297 N1294 1.350 . S
C1297 C1296 1.434 . S
C1298 C1299 1.369 . S
C1298 C1300 1.419 1_545 S
C1298 H1302 0.930 . S
C1299 C1298 1.369 . S
C1299 C1308 1.429 . S
C1300 C1298 1.419 1_565 S
C1300 C1301 1.363 . S
C1300 H1303 0.929 . S
C1301 C1300 1.363 . S
C1301 C1307 1.428 . S
H1302 C1298 0.930 . S
H1303 C1300 0.929 . S
S1304 N1305 1.613 1_565 S
S1304 N1306 1.610 . S
N1305 S1304 1.613 1_545 S
N1305 C1308 1.350 . S
N1306 S1304 1.610 . S
N1306 C1307 1.351 . S
C1307 C1301 1.428 . S
C1307 N1306 1.351 . S
C1307 C1308 1.434 1_565 S
C1308 C1299 1.429 . S
C1308 N1305 1.350 . S
C1308 C1307 1.434 1_545 S
C1309 C1310 1.369 . S
C1309 C1311 1.419 . S
C1309 H1313 0.930 . S
C1310 C1309 1.369 . S
C1310 C1319 1.429 . S
C1311 C1309 1.419 . S
C1311 C1312 1.363 . S
C1311 H1314 0.929 . S
C1312 C1311 1.363 . S
C1312 C1318 1.428 . S
H1313 C1309 0.930 . S
H1314 C1311 0.929 . S
S1315 N1316 1.613 . S
S1315 N1317 1.610 . S
N1316 S1315 1.613 . S
N1316 C1319 1.350 . S
N1317 S1315 1.610 . S
N1317 C1318 1.351 . S
C1318 C1312 1.428 . S
C1318 N1317 1.351 . S
C1318 C1319 1.434 . S
C1319 C1310 1.429 . S
C1319 N1316 1.350 . S
C1319 C1318 1.434 . S
C1320 C1321 1.369 . S
C1320 C1322 1.419 . S
C1320 H1324 0.930 . S
C1321 C1320 1.369 . S
C1321 C1330 1.429 . S
C1322 C1320 1.419 . S
C1322 C1323 1.363 . S
C1322 H1325 0.929 . S
C1323 C1322 1.363 . S
C1323 C1329 1.428 . S
H1324 C1320 0.930 . S
H1325 C1322 0.929 . S
S1326 N1327 1.613 . S
S1326 N1328 1.610 . S
N1327 S1326 1.613 . S
N1327 C1330 1.350 . S
N1328 S1326 1.610 . S
N1328 C1329 1.351 . S
C1329 C1323 1.428 . S
C1329 N1328 1.351 . S
C1329 C1330 1.434 . S
C1330 C1321 1.429 . S
C1330 N1327 1.350 . S
C1330 C1329 1.434 . S
C1331 C1332 1.369 . S
C1331 C1333 1.419 . S
C1331 H1335 0.930 . S
C1332 C1331 1.369 . S
C1332 C1341 1.429 . S
C1333 C1331 1.419 . S
C1333 C1334 1.363 . S
C1333 H1336 0.929 . S
C1334 C1333 1.363 . S
C1334 C1340 1.428 . S
H1335 C1331 0.930 . S
H1336 C1333 0.929 . S
S1337 N1338 1.613 . S
S1337 N1339 1.610 . S
N1338 S1337 1.613 . S
N1338 C1341 1.350 . S
N1339 S1337 1.610 . S
N1339 C1340 1.351 . S
C1340 C1334 1.428 . S
C1340 N1339 1.351 . S
C1340 C1341 1.434 . S
C1341 C1332 1.429 . S
C1341 N1338 1.350 . S
C1341 C1340 1.434 . S
C1342 C1343 1.369 . S
C1342 C1344 1.419 . S
C1342 H1346 0.930 . S
C1343 C1342 1.369 . S
C1343 C1352 1.429 . S
C1344 C1342 1.419 . S
C1344 C1345 1.363 . S
C1344 H1347 0.929 . S
C1345 C1344 1.363 . S
C1345 C1351 1.428 . S
H1346 C1342 0.930 . S
H1347 C1344 0.929 . S
S1348 N1349 1.613 . S
S1348 N1350 1.610 . S
N1349 S1348 1.613 . S
N1349 C1352 1.350 . S
N1350 S1348 1.610 . S
N1350 C1351 1.351 . S
C1351 C1345 1.428 . S
C1351 N1350 1.351 . S
C1351 C1352 1.434 . S
C1352 C1343 1.429 . S
C1352 N1349 1.350 . S
C1352 C1351 1.434 . S
C1353 C1354 1.369 . S
C1353 C1355 1.419 . S
C1353 H1357 0.930 . S
C1354 C1353 1.369 . S
C1354 C1363 1.429 . S
C1355 C1353 1.419 . S
C1355 C1356 1.363 . S
C1355 H1358 0.929 . S
C1356 C1355 1.363 . S
C1356 C1362 1.428 . S
H1357 C1353 0.930 . S
H1358 C1355 0.929 . S
S1359 N1360 1.613 . S
S1359 N1361 1.610 . S
N1360 S1359 1.613 . S
N1360 C1363 1.350 . S
N1361 S1359 1.610 . S
N1361 C1362 1.351 . S
C1362 C1356 1.428 . S
C1362 N1361 1.351 . S
C1362 C1363 1.434 . S
C1363 C1354 1.429 . S
C1363 N1360 1.350 . S
C1363 C1362 1.434 . S
C1364 C1365 1.369 1_645 S
C1364 C1366 1.419 . S
C1364 H1368 0.930 . S
C1365 C1364 1.369 1_465 S
C1365 C1374 1.429 . S
C1366 C1364 1.419 . S
C1366 C1367 1.363 . S
C1366 H1369 0.929 . S
C1367 C1366 1.363 . S
C1367 C1373 1.428 1_645 S
H1368 C1364 0.930 . S
H1369 C1366 0.929 . S
S1370 N1371 1.613 . S
S1370 N1372 1.610 . S
N1371 S1370 1.613 . S
N1371 C1374 1.350 . S
N1372 S1370 1.610 . S
N1372 C1373 1.351 . S
C1373 C1367 1.428 1_465 S
C1373 N1372 1.351 . S
C1373 C1374 1.434 . S
C1374 C1365 1.429 . S
C1374 N1371 1.350 . S
C1374 C1373 1.434 . S
C1375 C1376 1.369 . S
C1375 C1377 1.419 . S
C1375 H1379 0.930 . S
C1376 C1375 1.369 . S
C1376 C1385 1.429 1_655 S
C1377 C1375 1.419 . S
C1377 C1378 1.363 1_655 S
C1377 H1380 0.929 . S
C1378 C1377 1.363 1_455 S
C1378 C1384 1.428 . S
H1379 C1375 0.930 . S
H1380 C1377 0.929 . S
S1381 N1382 1.613 . S
S1381 N1383 1.610 . S
N1382 S1381 1.613 . S
N1382 C1385 1.350 . S
N1383 S1381 1.610 . S
N1383 C1384 1.351 . S
C1384 C1378 1.428 . S
C1384 N1383 1.351 . S
C1384 C1385 1.434 . S
C1385 C1376 1.429 1_455 S
C1385 N1382 1.350 . S
C1385 C1384 1.434 . S
C1386 C1387 1.369 1_655 S
C1386 C1388 1.419 . S
C1386 H1390 0.930 . S
C1387 C1386 1.369 1_455 S
C1387 C1396 1.429 . S
C1388 C1386 1.419 . S
C1388 C1389 1.363 . S
C1388 H1391 0.929 . S
C1389 C1388 1.363 . S
C1389 C1395 1.428 1_655 S
H1390 C1386 0.930 . S
H1391 C1388 0.929 . S
S1392 N1393 1.613 . S
S1392 N1394 1.610 . S
N1393 S1392 1.613 . S
N1393 C1396 1.350 . S
N1394 S1392 1.610 . S
N1394 C1395 1.351 . S
C1395 C1389 1.428 1_455 S
C1395 N1394 1.351 . S
C1395 C1396 1.434 . S
C1396 C1387 1.429 . S
C1396 N1393 1.350 . S
C1396 C1395 1.434 . S
C1397 C1398 1.369 . S
C1397 C1399 1.419 . S
C1397 H1401 0.930 . S
C1398 C1397 1.369 . S
C1398 C1407 1.429 1_456 S
C1399 C1397 1.419 . S
C1399 C1400 1.363 1_456 S
C1399 H1402 0.929 . S
C1400 C1399 1.363 1_654 S
C1400 C1406 1.428 . S
H1401 C1397 0.930 . S
H1402 C1399 0.929 . S
S1403 N1404 1.613 . S
S1403 N1405 1.610 . S
N1404 S1403 1.613 . S
N1404 C1407 1.350 . S
N1405 S1403 1.610 . S
N1405 C1406 1.351 . S
C1406 C1400 1.428 . S
C1406 N1405 1.351 . S
C1406 C1407 1.434 . S
C1407 C1398 1.429 1_654 S
C1407 N1404 1.350 . S
C1407 C1406 1.434 . S
C1408 C1409 1.369 . S
C1408 C1410 1.419 . S
C1408 H1412 0.930 . S
C1409 C1408 1.369 . S
C1409 C1418 1.429 . S
C1410 C1408 1.419 . S
C1410 C1411 1.363 . S
C1410 H1413 0.929 . S
C1411 C1410 1.363 . S
C1411 C1417 1.428 . S
H1412 C1408 0.930 . S
H1413 C1410 0.929 . S
S1414 N1415 1.613 . S
S1414 N1416 1.610 . S
N1415 S1414 1.613 . S
N1415 C1418 1.350 . S
N1416 S1414 1.610 . S
N1416 C1417 1.351 . S
C1417 C1411 1.428 . S
C1417 N1416 1.351 . S
C1417 C1418 1.434 . S
C1418 C1409 1.429 . S
C1418 N1415 1.350 . S
C1418 C1417 1.434 . S
C1419 C1420 1.369 . S
C1419 C1421 1.419 . S
C1419 H1423 0.930 . S
C1420 C1419 1.369 . S
C1420 C1429 1.429 . S
C1421 C1419 1.419 . S
C1421 C1422 1.363 . S
C1421 H1424 0.929 . S
C1422 C1421 1.363 . S
C1422 C1428 1.428 . S
H1423 C1419 0.930 . S
H1424 C1421 0.929 . S
S1425 N1426 1.613 . S
S1425 N1427 1.610 . S
N1426 S1425 1.613 . S
N1426 C1429 1.350 . S
N1427 S1425 1.610 . S
N1427 C1428 1.351 . S
C1428 C1422 1.428 . S
C1428 N1427 1.351 . S
C1428 C1429 1.434 . S
C1429 C1420 1.429 . S
C1429 N1426 1.350 . S
C1429 C1428 1.434 . S
C1430 C1431 1.369 . S
C1430 C1432 1.419 . S
C1430 H1434 0.930 . S
C1431 C1430 1.369 . S
C1431 C1440 1.429 . S
C1432 C1430 1.419 . S
C1432 C1433 1.363 . S
C1432 H1435 0.929 . S
C1433 C1432 1.363 . S
C1433 C1439 1.428 . S
H1434 C1430 0.930 . S
H1435 C1432 0.929 . S
S1436 N1437 1.613 . S
S1436 N1438 1.610 . S
N1437 S1436 1.613 . S
N1437 C1440 1.350 . S
N1438 S1436 1.610 . S
N1438 C1439 1.351 . S
C1439 C1433 1.428 . S
C1439 N1438 1.351 . S
C1439 C1440 1.434 . S
C1440 C1431 1.429 . S
C1440 N1437 1.350 . S
C1440 C1439 1.434 . S
C1441 C1442 1.369 . S
C1441 C1443 1.419 . S
C1441 H1445 0.930 . S
C1442 C1441 1.369 . S
C1442 C1451 1.429 . S
C1443 C1441 1.419 . S
C1443 C1444 1.363 . S
C1443 H1446 0.929 . S
C1444 C1443 1.363 . S
C1444 C1450 1.428 . S
H1445 C1441 0.930 . S
H1446 C1443 0.929 . S
S1447 N1448 1.613 . S
S1447 N1449 1.610 . S
N1448 S1447 1.613 . S
N1448 C1451 1.350 . S
N1449 S1447 1.610 . S
N1449 C1450 1.351 . S
C1450 C1444 1.428 . S
C1450 N1449 1.351 . S
C1450 C1451 1.434 . S
C1451 C1442 1.429 . S
C1451 N1448 1.350 . S
C1451 C1450 1.434 . S
C1452 C1453 1.369 . S
C1452 C1454 1.419 . S
C1452 H1456 0.930 . S
C1453 C1452 1.369 . S
C1453 C1462 1.429 . S
C1454 C1452 1.419 . S
C1454 C1455 1.363 . S
C1454 H1457 0.929 . S
C1455 C1454 1.363 . S
C1455 C1461 1.428 . S
H1456 C1452 0.930 . S
H1457 C1454 0.929 . S
S1458 N1459 1.613 . S
S1458 N1460 1.610 . S
N1459 S1458 1.613 . S
N1459 C1462 1.350 . S
N1460 S1458 1.610 . S
N1460 C1461 1.351 . S
C1461 C1455 1.428 . S
C1461 N1460 1.351 . S
C1461 C1462 1.434 . S
C1462 C1453 1.429 . S
C1462 N1459 1.350 . S
C1462 C1461 1.434 . S
C1463 C1464 1.369 . S
C1463 C1465 1.419 . S
C1463 H1467 0.930 . S
C1464 C1463 1.369 . S
C1464 C1473 1.429 . S
C1465 C1463 1.419 . S
C1465 C1466 1.363 . S
C1465 H1468 0.929 . S
C1466 C1465 1.363 . S
C1466 C1472 1.428 . S
H1467 C1463 0.930 . S
H1468 C1465 0.929 . S
S1469 N1470 1.613 . S
S1469 N1471 1.610 . S
N1470 S1469 1.613 . S
N1470 C1473 1.350 . S
N1471 S1469 1.610 . S
N1471 C1472 1.351 . S
C1472 C1466 1.428 . S
C1472 N1471 1.351 . S
C1472 C1473 1.434 . S
C1473 C1464 1.429 . S
C1473 N1470 1.350 . S
C1473 C1472 1.434 . S
C1474 C1475 1.369 . S
C1474 C1476 1.419 . S
C1474 H1478 0.930 . S
C1475 C1474 1.369 . S
C1475 C1484 1.429 . S
C1476 C1474 1.419 . S
C1476 C1477 1.363 . S
C1476 H1479 0.929 . S
C1477 C1476 1.363 . S
C1477 C1483 1.428 . S
H1478 C1474 0.930 . S
H1479 C1476 0.929 . S
S1480 N1481 1.613 . S
S1480 N1482 1.610 . S
N1481 S1480 1.613 . S
N1481 C1484 1.350 . S
N1482 S1480 1.610 . S
N1482 C1483 1.351 . S
C1483 C1477 1.428 . S
C1483 N1482 1.351 . S
C1483 C1484 1.434 . S
C1484 C1475 1.429 . S
C1484 N1481 1.350 . S
C1484 C1483 1.434 . S
C1485 C1486 1.369 . S
C1485 C1487 1.419 . S
C1485 H1489 0.930 . S
C1486 C1485 1.369 . S
C1486 C1495 1.429 . S
C1487 C1485 1.419 . S
C1487 C1488 1.363 . S
C1487 H1490 0.929 . S
C1488 C1487 1.363 . S
C1488 C1494 1.428 . S
H1489 C1485 0.930 . S
H1490 C1487 0.929 . S
S1491 N1492 1.613 . S
S1491 N1493 1.610 . S
N1492 S1491 1.613 . S
N1492 C1495 1.350 . S
N1493 S1491 1.610 . S
N1493 C1494 1.351 . S
C1494 C1488 1.428 . S
C1494 N1493 1.351 . S
C1494 C1495 1.434 . S
C1495 C1486 1.429 . S
C1495 N1492 1.350 . S
C1495 C1494 1.434 . S
C1496 C1497 1.369 . S
C1496 C1498 1.419 . S
C1496 H1500 0.930 . S
C1497 C1496 1.369 . S
C1497 C1506 1.429 . S
C1498 C1496 1.419 . S
C1498 C1499 1.363 . S
C1498 H1501 0.929 . S
C1499 C1498 1.363 . S
C1499 C1505 1.428 . S
H1500 C1496 0.930 . S
H1501 C1498 0.929 . S
S1502 N1503 1.613 . S
S1502 N1504 1.610 . S
N1503 S1502 1.613 . S
N1503 C1506 1.350 . S
N1504 S1502 1.610 . S
N1504 C1505 1.351 . S
C1505 C1499 1.428 . S
C1505 N1504 1.351 . S
C1505 C1506 1.434 . S
C1506 C1497 1.429 . S
C1506 N1503 1.350 . S
C1506 C1505 1.434 . S
C1507 C1508 1.369 . S
C1507 C1509 1.419 1_565 S
C1507 H1511 0.930 . S
C1508 C1507 1.369 . S
C1508 C1517 1.429 1_565 S
C1509 C1507 1.419 1_545 S
C1509 C1510 1.363 . S
C1509 H1512 0.929 . S
C1510 C1509 1.363 . S
C1510 C1516 1.428 . S
H1511 C1507 0.930 . S
H1512 C1509 0.929 . S
S1513 N1514 1.613 . S
S1513 N1515 1.610 . S
N1514 S1513 1.613 . S
N1514 C1517 1.350 . S
N1515 S1513 1.610 . S
N1515 C1516 1.351 . S
C1516 C1510 1.428 . S
C1516 N1515 1.351 . S
C1516 C1517 1.434 . S
C1517 C1508 1.429 1_545 S
C1517 N1514 1.350 . S
C1517 C1516 1.434 . S
C1518 C1519 1.369 1_545 S
C1518 C1520 1.419 . S
C1518 H1522 0.930 . S
C1519 C1518 1.369 1_565 S
C1519 C1528 1.429 1_565 S
C1520 C1518 1.419 . S
C1520 C1521 1.363 . S
C1520 H1523 0.929 . S
C1521 C1520 1.363 . S
C1521 C1527 1.428 . S
H1522 C1518 0.930 . S
H1523 C1520 0.929 . S
S1524 N1525 1.613 1_545 S
S1524 N1526 1.610 . S
N1525 S1524 1.613 1_565 S
N1525 C1528 1.350 1_565 S
N1526 S1524 1.610 . S
N1526 C1527 1.351 . S
C1527 C1521 1.428 . S
C1527 N1526 1.351 . S
C1527 C1528 1.434 . S
C1528 C1519 1.429 1_545 S
C1528 N1525 1.350 1_545 S
C1528 C1527 1.434 . S
C1529 C1530 1.369 . S
C1529 C1531 1.419 . S
C1529 H1533 0.930 . S
C1530 C1529 1.369 . S
C1530 C1539 1.429 . S
C1531 C1529 1.419 . S
C1531 C1532 1.363 . S
C1531 H1534 0.929 . S
C1532 C1531 1.363 . S
C1532 C1538 1.428 . S
H1533 C1529 0.930 . S
H1534 C1531 0.929 . S
S1535 N1536 1.613 . S
S1535 N1537 1.610 . S
N1536 S1535 1.613 . S
N1536 C1539 1.350 . S
N1537 S1535 1.610 . S
N1537 C1538 1.351 . S
C1538 C1532 1.428 . S
C1538 N1537 1.351 . S
C1538 C1539 1.434 . S
C1539 C1530 1.429 . S
C1539 N1536 1.350 . S
C1539 C1538 1.434 . S
C1540 C1541 1.369 . S
C1540 C1542 1.419 . S
C1540 H1544 0.930 . S
C1541 C1540 1.369 . S
C1541 C1550 1.429 . S
C1542 C1540 1.419 . S
C1542 C1543 1.363 . S
C1542 H1545 0.929 . S
C1543 C1542 1.363 . S
C1543 C1549 1.428 . S
H1544 C1540 0.930 . S
H1545 C1542 0.929 . S
S1546 N1547 1.613 . S
S1546 N1548 1.610 . S
N1547 S1546 1.613 . S
N1547 C1550 1.350 . S
N1548 S1546 1.610 . S
N1548 C1549 1.351 . S
C1549 C1543 1.428 . S
C1549 N1548 1.351 . S
C1549 C1550 1.434 . S
C1550 C1541 1.429 . S
C1550 N1547 1.350 . S
C1550 C1549 1.434 . S
C1551 C1552 1.369 1_565 S
C1551 C1553 1.419 . S
C1551 H1555 0.930 . S
C1552 C1551 1.369 1_545 S
C1552 C1561 1.429 . S
C1553 C1551 1.419 . S
C1553 C1554 1.363 . S
C1553 H1556 0.929 . S
C1554 C1553 1.363 . S
C1554 C1560 1.428 . S
H1555 C1551 0.930 . S
H1556 C1553 0.929 . S
S1557 N1558 1.613 . S
S1557 N1559 1.610 1_545 S
N1558 S1557 1.613 . S
N1558 C1561 1.350 . S
N1559 S1557 1.610 1_565 S
N1559 C1560 1.351 . S
C1560 C1554 1.428 . S
C1560 N1559 1.351 . S
C1560 C1561 1.434 1_565 S
C1561 C1552 1.429 . S
C1561 N1558 1.350 . S
C1561 C1560 1.434 1_545 S
C1562 C1563 1.369 1_565 S
C1562 C1564 1.419 . S
C1562 H1566 0.930 1_565 S
C1563 C1562 1.369 1_545 S
C1563 C1572 1.429 1_545 S
C1564 C1562 1.419 . S
C1564 C1565 1.363 . S
C1564 H1567 0.929 . S
C1565 C1564 1.363 . S
C1565 C1571 1.428 . S
H1566 C1562 0.930 1_545 S
H1567 C1564 0.929 . S
S1568 N1569 1.613 . S
S1568 N1570 1.610 . S
N1569 S1568 1.613 . S
N1569 C1572 1.350 . S
N1570 S1568 1.610 . S
N1570 C1571 1.351 . S
C1571 C1565 1.428 . S
C1571 N1570 1.351 . S
C1571 C1572 1.434 . S
C1572 C1563 1.429 1_565 S
C1572 N1569 1.350 . S
C1572 C1571 1.434 . S
C1573 C1574 1.369 . S
C1573 C1575 1.419 . S
C1573 H1577 0.930 . S
C1574 C1573 1.369 . S
C1574 C1583 1.429 . S
C1575 C1573 1.419 . S
C1575 C1576 1.363 . S
C1575 H1578 0.929 . S
C1576 C1575 1.363 . S
C1576 C1582 1.428 . S
H1577 C1573 0.930 . S
H1578 C1575 0.929 . S
S1579 N1580 1.613 . S
S1579 N1581 1.610 . S
N1580 S1579 1.613 . S
N1580 C1583 1.350 . S
N1581 S1579 1.610 . S
N1581 C1582 1.351 . S
C1582 C1576 1.428 . S
C1582 N1581 1.351 . S
C1582 C1583 1.434 . S
C1583 C1574 1.429 . S
C1583 N1580 1.350 . S
C1583 C1582 1.434 . S
C1584 C1585 1.369 . S
C1584 C1586 1.419 . S
C1584 H1588 0.930 . S
C1585 C1584 1.369 . S
C1585 C1594 1.429 . S
C1586 C1584 1.419 . S
C1586 C1587 1.363 . S
C1586 H1589 0.929 . S
C1587 C1586 1.363 . S
C1587 C1593 1.428 . S
H1588 C1584 0.930 . S
H1589 C1586 0.929 . S
S1590 N1591 1.613 . S
S1590 N1592 1.610 . S
N1591 S1590 1.613 . S
N1591 C1594 1.350 . S
N1592 S1590 1.610 . S
N1592 C1593 1.351 . S
C1593 C1587 1.428 . S
C1593 N1592 1.351 . S
C1593 C1594 1.434 . S
C1594 C1585 1.429 . S
C1594 N1591 1.350 . S
C1594 C1593 1.434 . S
C1595 C1596 1.369 . S
C1595 C1597 1.419 . S
C1595 H1599 0.930 . S
C1596 C1595 1.369 . S
C1596 C1605 1.429 . S
C1597 C1595 1.419 . S
C1597 C1598 1.363 . S
C1597 H1600 0.929 . S
C1598 C1597 1.363 . S
C1598 C1604 1.428 . S
H1599 C1595 0.930 . S
H1600 C1597 0.929 . S
S1601 N1602 1.613 . S
S1601 N1603 1.610 . S
N1602 S1601 1.613 . S
N1602 C1605 1.350 . S
N1603 S1601 1.610 . S
N1603 C1604 1.351 . S
C1604 C1598 1.428 . S
C1604 N1603 1.351 . S
C1604 C1605 1.434 . S
C1605 C1596 1.429 . S
C1605 N1602 1.350 . S
C1605 C1604 1.434 . S
C1606 C1607 1.369 . S
C1606 C1608 1.419 . S
C1606 H1610 0.930 . S
C1607 C1606 1.369 . S
C1607 C1616 1.429 . S
C1608 C1606 1.419 . S
C1608 C1609 1.363 . S
C1608 H1611 0.929 . S
C1609 C1608 1.363 . S
C1609 C1615 1.428 . S
H1610 C1606 0.930 . S
H1611 C1608 0.929 . S
S1612 N1613 1.613 . S
S1612 N1614 1.610 . S
N1613 S1612 1.613 . S
N1613 C1616 1.350 . S
N1614 S1612 1.610 . S
N1614 C1615 1.351 . S
C1615 C1609 1.428 . S
C1615 N1614 1.351 . S
C1615 C1616 1.434 . S
C1616 C1607 1.429 . S
C1616 N1613 1.350 . S
C1616 C1615 1.434 . S
C1617 C1618 1.369 . S
C1617 C1619 1.419 . S
C1617 H1621 0.930 . S
C1618 C1617 1.369 . S
C1618 C1627 1.429 . S
C1619 C1617 1.419 . S
C1619 C1620 1.363 . S
C1619 H1622 0.929 . S
C1620 C1619 1.363 . S
C1620 C1626 1.428 . S
H1621 C1617 0.930 . S
H1622 C1619 0.929 . S
S1623 N1624 1.613 . S
S1623 N1625 1.610 . S
N1624 S1623 1.613 . S
N1624 C1627 1.350 . S
N1625 S1623 1.610 . S
N1625 C1626 1.351 . S
C1626 C1620 1.428 . S
C1626 N1625 1.351 . S
C1626 C1627 1.434 . S
C1627 C1618 1.429 . S
C1627 N1624 1.350 . S
C1627 C1626 1.434 . S
C1628 C1629 1.369 . S
C1628 C1630 1.419 . S
C1628 H1632 0.930 . S
C1629 C1628 1.369 . S
C1629 C1638 1.429 . S
C1630 C1628 1.419 . S
C1630 C1631 1.363 . S
C1630 H1633 0.929 . S
C1631 C1630 1.363 . S
C1631 C1637 1.428 . S
H1632 C1628 0.930 . S
H1633 C1630 0.929 . S
S1634 N1635 1.613 . S
S1634 N1636 1.610 . S
N1635 S1634 1.613 . S
N1635 C1638 1.350 . S
N1636 S1634 1.610 . S
N1636 C1637 1.351 . S
C1637 C1631 1.428 . S
C1637 N1636 1.351 . S
C1637 C1638 1.434 . S
C1638 C1629 1.429 . S
C1638 N1635 1.350 . S
C1638 C1637 1.434 . S
C1639 C1640 1.369 . S
C1639 C1641 1.419 . S
C1639 H1643 0.930 . S
C1640 C1639 1.369 . S
C1640 C1649 1.429 . S
C1641 C1639 1.419 . S
C1641 C1642 1.363 . S
C1641 H1644 0.929 . S
C1642 C1641 1.363 . S
C1642 C1648 1.428 . S
H1643 C1639 0.930 . S
H1644 C1641 0.929 . S
S1645 N1646 1.613 . S
S1645 N1647 1.610 . S
N1646 S1645 1.613 . S
N1646 C1649 1.350 . S
N1647 S1645 1.610 . S
N1647 C1648 1.351 . S
C1648 C1642 1.428 . S
C1648 N1647 1.351 . S
C1648 C1649 1.434 . S
C1649 C1640 1.429 . S
C1649 N1646 1.350 . S
C1649 C1648 1.434 . S
C1650 C1651 1.369 . S
C1650 C1652 1.419 . S
C1650 H1654 0.930 . S
C1651 C1650 1.369 . S
C1651 C1660 1.429 . S
C1652 C1650 1.419 . S
C1652 C1653 1.363 . S
C1652 H1655 0.929 . S
C1653 C1652 1.363 . S
C1653 C1659 1.428 . S
H1654 C1650 0.930 . S
H1655 C1652 0.929 . S
S1656 N1657 1.613 1_655 S
S1656 N1658 1.610 1_655 S
N1657 S1656 1.613 1_455 S
N1657 C1660 1.350 . S
N1658 S1656 1.610 1_455 S
N1658 C1659 1.351 . S
C1659 C1653 1.428 . S
C1659 N1658 1.351 . S
C1659 C1660 1.434 . S
C1660 C1651 1.429 . S
C1660 N1657 1.350 . S
C1660 C1659 1.434 . S
C1661 C1662 1.369 . S
C1661 C1663 1.419 . S
C1661 H1665 0.930 . S
C1662 C1661 1.369 . S
C1662 C1671 1.429 . S
C1663 C1661 1.419 . S
C1663 C1664 1.363 . S
C1663 H1666 0.929 . S
C1664 C1663 1.363 . S
C1664 C1670 1.428 . S
H1665 C1661 0.930 . S
H1666 C1663 0.929 . S
S1667 N1668 1.613 . S
S1667 N1669 1.610 . S
N1668 S1667 1.613 . S
N1668 C1671 1.350 . S
N1669 S1667 1.610 . S
N1669 C1670 1.351 . S
C1670 C1664 1.428 . S
C1670 N1669 1.351 . S
C1670 C1671 1.434 . S
C1671 C1662 1.429 . S
C1671 N1668 1.350 . S
C1671 C1670 1.434 . S
C1672 C1673 1.369 . S
C1672 C1674 1.419 . S
C1672 H1676 0.930 . S
C1673 C1672 1.369 . S
C1673 C1682 1.429 . S
C1674 C1672 1.419 . S
C1674 C1675 1.363 . S
C1674 H1677 0.929 . S
C1675 C1674 1.363 . S
C1675 C1681 1.428 . S
H1676 C1672 0.930 . S
H1677 C1674 0.929 . S
S1678 N1679 1.613 . S
S1678 N1680 1.610 . S
N1679 S1678 1.613 . S
N1679 C1682 1.350 . S
N1680 S1678 1.610 . S
N1680 C1681 1.351 . S
C1681 C1675 1.428 . S
C1681 N1680 1.351 . S
C1681 C1682 1.434 . S
C1682 C1673 1.429 . S
C1682 N1679 1.350 . S
C1682 C1681 1.434 . S
C1683 C1684 1.369 1_545 S
C1683 C1685 1.419 . S
C1683 H1687 0.930 . S
C1684 C1683 1.369 1_565 S
C1684 C1693 1.429 1_565 S
C1685 C1683 1.419 . S
C1685 C1686 1.363 . S
C1685 H1688 0.929 . S
C1686 C1685 1.363 . S
C1686 C1692 1.428 . S
H1687 C1683 0.930 . S
H1688 C1685 0.929 . S
S1689 N1690 1.613 1_545 S
S1689 N1691 1.610 . S
N1690 S1689 1.613 1_565 S
N1690 C1693 1.350 1_565 S
N1691 S1689 1.610 . S
N1691 C1692 1.351 . S
C1692 C1686 1.428 . S
C1692 N1691 1.351 . S
C1692 C1693 1.434 . S
C1693 C1684 1.429 1_545 S
C1693 N1690 1.350 1_545 S
C1693 C1692 1.434 . S
C1694 C1695 1.369 1_545 S
C1694 C1696 1.419 . S
C1694 H1698 0.930 . S
C1695 C1694 1.369 1_565 S
C1695 C1704 1.429 . S
C1696 C1694 1.419 . S
C1696 C1697 1.363 . S
C1696 H1699 0.929 . S
C1697 C1696 1.363 . S
C1697 C1703 1.428 . S
H1698 C1694 0.930 . S
H1699 C1696 0.929 . S
S1700 N1701 1.653 . S
S1700 N1702 1.623 1_565 S
N1701 S1700 1.653 . S
N1701 C1704 1.350 . S
N1702 S1700 1.623 1_545 S
N1702 C1703 1.351 . S
C1703 C1697 1.428 . S
C1703 N1702 1.351 . S
C1703 C1704 1.434 1_545 S
C1704 C1695 1.429 . S
C1704 N1701 1.350 . S
C1704 C1703 1.434 1_565 S
C1705 C1706 1.369 . S
C1705 C1707 1.419 . S
C1705 H1709 0.930 . S
C1706 C1705 1.369 . S
C1706 C1715 1.429 . S
C1707 C1705 1.419 . S
C1707 C1708 1.363 . S
C1707 H1710 0.929 . S
C1708 C1707 1.363 . S
C1708 C1714 1.428 . S
H1709 C1705 0.930 . S
H1710 C1707 0.929 . S
S1711 N1712 1.613 . S
S1711 N1713 1.610 . S
N1712 S1711 1.613 . S
N1712 C1715 1.350 . S
N1713 S1711 1.610 . S
N1713 C1714 1.351 . S
C1714 C1708 1.428 . S
C1714 N1713 1.351 . S
C1714 C1715 1.434 . S
C1715 C1706 1.429 . S
C1715 N1712 1.350 . S
C1715 C1714 1.434 . S
C1716 C1717 1.369 . S
C1716 C1718 1.419 . S
C1716 H1720 0.930 . S
C1717 C1716 1.369 . S
C1717 C1726 1.429 . S
C1718 C1716 1.419 . S
C1718 C1719 1.363 . S
C1718 H1721 0.929 . S
C1719 C1718 1.363 . S
C1719 C1725 1.428 . S
H1720 C1716 0.930 . S
H1721 C1718 0.929 . S
S1722 N1723 1.613 . S
S1722 N1724 1.610 . S
N1723 S1722 1.613 . S
N1723 C1726 1.350 . S
N1724 S1722 1.610 . S
N1724 C1725 1.351 . S
C1725 C1719 1.428 . S
C1725 N1724 1.351 . S
C1725 C1726 1.434 . S
C1726 C1717 1.429 . S
C1726 N1723 1.350 . S
C1726 C1725 1.434 . S
C1727 C1728 1.369 . S
C1727 C1729 1.419 . S
C1727 H1731 0.930 . S
C1728 C1727 1.369 . S
C1728 C1737 1.429 . S
C1729 C1727 1.419 . S
C1729 C1730 1.363 1_565 S
C1729 H1732 0.929 1_565 S
C1730 C1729 1.363 1_545 S
C1730 C1736 1.428 1_545 S
H1731 C1727 0.930 . S
H1732 C1729 0.929 1_545 S
S1733 N1734 1.613 . S
S1733 N1735 1.610 . S
N1734 S1733 1.613 . S
N1734 C1737 1.350 . S
N1735 S1733 1.610 . S
N1735 C1736 1.351 . S
C1736 C1730 1.428 1_565 S
C1736 N1735 1.351 . S
C1736 C1737 1.434 . S
C1737 C1728 1.429 . S
C1737 N1734 1.350 . S
C1737 C1736 1.434 . S
C1738 C1739 1.369 . S
C1738 C1740 1.419 . S
C1738 H1742 0.930 . S
C1739 C1738 1.369 . S
C1739 C1748 1.429 . S
C1740 C1738 1.419 . S
C1740 C1741 1.363 1_565 S
C1740 H1743 0.929 . S
C1741 C1740 1.363 1_545 S
C1741 C1747 1.428 . S
H1742 C1738 0.930 . S
H1743 C1740 0.929 . S
S1744 N1745 1.613 . S
S1744 N1746 1.610 1_565 S
N1745 S1744 1.613 . S
N1745 C1748 1.350 . S
N1746 S1744 1.610 1_545 S
N1746 C1747 1.351 . S
C1747 C1741 1.428 . S
C1747 N1746 1.351 . S
C1747 C1748 1.434 1_545 S
C1748 C1739 1.429 . S
C1748 N1745 1.350 . S
C1748 C1747 1.434 1_565 S
C1749 C1750 1.369 . S
C1749 C1751 1.419 . S
C1749 H1753 0.930 . S
C1750 C1749 1.369 . S
C1750 C1759 1.429 . S
C1751 C1749 1.419 . S
C1751 C1752 1.363 . S
C1751 H1754 0.929 . S
C1752 C1751 1.363 . S
C1752 C1758 1.428 . S
H1753 C1749 0.930 . S
H1754 C1751 0.929 . S
S1755 N1756 1.613 . S
S1755 N1757 1.610 . S
N1756 S1755 1.613 . S
N1756 C1759 1.350 . S
N1757 S1755 1.610 . S
N1757 C1758 1.351 . S
C1758 C1752 1.428 . S
C1758 N1757 1.351 . S
C1758 C1759 1.434 . S
C1759 C1750 1.429 . S
C1759 N1756 1.350 . S
C1759 C1758 1.434 . S
C1760 C1761 1.369 . S
C1760 C1762 1.419 . S
C1760 H1764 0.930 . S
C1761 C1760 1.369 . S
C1761 C1770 1.429 . S
C1762 C1760 1.419 . S
C1762 C1763 1.363 . S
C1762 H1765 0.929 . S
C1763 C1762 1.363 . S
C1763 C1769 1.428 . S
H1764 C1760 0.930 . S
H1765 C1762 0.929 . S
S1766 N1767 1.613 . S
S1766 N1768 1.610 . S
N1767 S1766 1.613 . S
N1767 C1770 1.350 . S
N1768 S1766 1.610 . S
N1768 C1769 1.351 . S
C1769 C1763 1.428 . S
C1769 N1768 1.351 . S
C1769 C1770 1.434 . S
C1770 C1761 1.429 . S
C1770 N1767 1.350 . S
C1770 C1769 1.434 . S
C1771 C1772 1.369 . S
C1771 C1773 1.419 . S
C1771 H1775 0.930 . S
C1772 C1771 1.369 . S
C1772 C1781 1.429 . S
C1773 C1771 1.419 . S
C1773 C1774 1.363 . S
C1773 H1776 0.929 . S
C1774 C1773 1.363 . S
C1774 C1780 1.428 . S
H1775 C1771 0.930 . S
H1776 C1773 0.929 . S
S1777 N1778 1.613 1_556 S
S1777 N1779 1.610 1_556 S
N1778 S1777 1.613 1_554 S
N1778 C1781 1.350 . S
N1779 S1777 1.610 1_554 S
N1779 C1780 1.351 . S
C1780 C1774 1.428 . S
C1780 N1779 1.351 . S
C1780 C1781 1.434 . S
C1781 C1772 1.429 . S
C1781 N1778 1.350 . S
C1781 C1780 1.434 . S
C1782 C1783 1.369 . S
C1782 C1784 1.419 . S
C1782 H1786 0.930 . S
C1783 C1782 1.369 . S
C1783 C1792 1.429 . S
C1784 C1782 1.419 . S
C1784 C1785 1.363 . S
C1784 H1787 0.929 . S
C1785 C1784 1.363 . S
C1785 C1791 1.428 . S
H1786 C1782 0.930 . S
H1787 C1784 0.929 . S
S1788 N1789 1.613 1_545 S
S1788 N1790 1.610 . S
N1789 S1788 1.613 1_565 S
N1789 C1792 1.350 . S
N1790 S1788 1.610 . S
N1790 C1791 1.351 1_545 S
C1791 C1785 1.428 . S
C1791 N1790 1.351 1_565 S
C1791 C1792 1.434 . S
C1792 C1783 1.429 . S
C1792 N1789 1.350 . S
C1792 C1791 1.434 . S
C1793 C1794 1.369 . S
C1793 C1795 1.419 . S
C1793 H1797 0.930 . S
C1794 C1793 1.369 . S
C1794 C1803 1.429 . S
C1795 C1793 1.419 . S
C1795 C1796 1.363 . S
C1795 H1798 0.929 . S
C1796 C1795 1.363 . S
C1796 C1802 1.428 . S
H1797 C1793 0.930 . S
H1798 C1795 0.929 . S
S1799 N1800 1.613 . S
S1799 N1801 1.610 . S
N1800 S1799 1.613 . S
N1800 C1803 1.350 . S
N1801 S1799 1.610 . S
N1801 C1802 1.351 . S
C1802 C1796 1.428 . S
C1802 N1801 1.351 . S
C1802 C1803 1.434 . S
C1803 C1794 1.429 . S
C1803 N1800 1.350 . S
C1803 C1802 1.434 . S
C1804 C1805 1.369 . S
C1804 C1806 1.419 . S
C1804 H1808 0.930 . S
C1805 C1804 1.369 . S
C1805 C1814 1.429 . S
C1806 C1804 1.419 . S
C1806 C1807 1.363 . S
C1806 H1809 0.929 . S
C1807 C1806 1.363 . S
C1807 C1813 1.428 . S
H1808 C1804 0.930 . S
H1809 C1806 0.929 . S
S1810 N1811 1.613 . S
S1810 N1812 1.610 . S
N1811 S1810 1.613 . S
N1811 C1814 1.350 . S
N1812 S1810 1.610 . S
N1812 C1813 1.351 . S
C1813 C1807 1.428 . S
C1813 N1812 1.351 . S
C1813 C1814 1.434 . S
C1814 C1805 1.429 . S
C1814 N1811 1.350 . S
C1814 C1813 1.434 . S
C1815 C1816 1.369 . S
C1815 C1817 1.419 . S
C1815 H1819 0.930 1_545 S
C1816 C1815 1.369 . S
C1816 C1825 1.429 . S
C1817 C1815 1.419 . S
C1817 C1818 1.363 . S
C1817 H1820 0.929 . S
C1818 C1817 1.363 . S
C1818 C1824 1.428 . S
H1819 C1815 0.930 1_565 S
H1820 C1817 0.929 . S
S1821 N1822 1.613 . S
S1821 N1823 1.610 . S
N1822 S1821 1.613 . S
N1822 C1825 1.350 . S
N1823 S1821 1.610 . S
N1823 C1824 1.351 . S
C1824 C1818 1.428 . S
C1824 N1823 1.351 . S
C1824 C1825 1.434 . S
C1825 C1816 1.429 . S
C1825 N1822 1.350 . S
C1825 C1824 1.434 . S
C1826 C1827 1.369 . S
C1826 C1828 1.419 . S
C1826 H1830 0.930 . S
C1827 C1826 1.369 . S
C1827 C1836 1.429 . S
C1828 C1826 1.419 . S
C1828 C1829 1.363 . S
C1828 H1831 0.929 1_545 S
C1829 C1828 1.363 . S
C1829 C1835 1.428 . S
H1830 C1826 0.930 . S
H1831 C1828 0.929 1_565 S
S1832 N1833 1.613 . S
S1832 N1834 1.610 . S
N1833 S1832 1.613 . S
N1833 C1836 1.350 . S
N1834 S1832 1.610 . S
N1834 C1835 1.351 . S
C1835 C1829 1.428 . S
C1835 N1834 1.351 . S
C1835 C1836 1.434 . S
C1836 C1827 1.429 . S
C1836 N1833 1.350 . S
C1836 C1835 1.434 . S
C1837 C1838 1.369 . S
C1837 C1839 1.419 . S
C1837 H1841 0.930 . S
C1838 C1837 1.369 . S
C1838 C1847 1.429 . S
C1839 C1837 1.419 . S
C1839 C1840 1.363 . S
C1839 H1842 0.929 . S
C1840 C1839 1.363 . S
C1840 C1846 1.428 . S
H1841 C1837 0.930 . S
H1842 C1839 0.929 . S
S1843 N1844 1.613 . S
S1843 N1845 1.610 . S
N1844 S1843 1.613 . S
N1844 C1847 1.350 . S
N1845 S1843 1.610 . S
N1845 C1846 1.351 . S
C1846 C1840 1.428 . S
C1846 N1845 1.351 . S
C1846 C1847 1.434 . S
C1847 C1838 1.429 . S
C1847 N1844 1.350 . S
C1847 C1846 1.434 . S
C1848 C1849 1.369 . S
C1848 C1850 1.419 . S
C1848 H1852 0.930 . S
C1849 C1848 1.369 . S
C1849 C1858 1.429 . S
C1850 C1848 1.419 . S
C1850 C1851 1.363 . S
C1850 H1853 0.929 . S
C1851 C1850 1.363 . S
C1851 C1857 1.428 . S
H1852 C1848 0.930 . S
H1853 C1850 0.929 . S
S1854 N1855 1.613 1_545 S
S1854 N1856 1.610 . S
N1855 S1854 1.613 1_565 S
N1855 C1858 1.350 . S
N1856 S1854 1.610 . S
N1856 C1857 1.351 1_545 S
C1857 C1851 1.428 . S
C1857 N1856 1.351 1_565 S
C1857 C1858 1.434 . S
C1858 C1849 1.429 . S
C1858 N1855 1.350 . S
C1858 C1857 1.434 . S
C1859 C1860 1.369 . S
C1859 C1861 1.419 . S
C1859 H1863 0.930 . S
C1860 C1859 1.369 . S
C1860 C1869 1.429 . S
C1861 C1859 1.419 . S
C1861 C1862 1.363 . S
C1861 H1864 0.929 . S
C1862 C1861 1.363 . S
C1862 C1868 1.428 . S
H1863 C1859 0.930 . S
H1864 C1861 0.929 . S
S1865 N1866 1.613 . S
S1865 N1867 1.610 . S
N1866 S1865 1.613 . S
N1866 C1869 1.350 . S
N1867 S1865 1.610 . S
N1867 C1868 1.351 . S
C1868 C1862 1.428 . S
C1868 N1867 1.351 . S
C1868 C1869 1.434 . S
C1869 C1860 1.429 . S
C1869 N1866 1.350 . S
C1869 C1868 1.434 . S
C1870 C1871 1.369 . S
C1870 C1872 1.419 . S
C1870 H1874 0.930 . S
C1871 C1870 1.369 . S
C1871 C1880 1.429 . S
C1872 C1870 1.419 . S
C1872 C1873 1.363 . S
C1872 H1875 0.929 . S
C1873 C1872 1.363 . S
C1873 C1879 1.428 . S
H1874 C1870 0.930 . S
H1875 C1872 0.929 . S
S1876 N1877 1.613 . S
S1876 N1878 1.610 . S
N1877 S1876 1.613 . S
N1877 C1880 1.350 . S
N1878 S1876 1.610 . S
N1878 C1879 1.351 . S
C1879 C1873 1.428 . S
C1879 N1878 1.351 . S
C1879 C1880 1.434 . S
C1880 C1871 1.429 . S
C1880 N1877 1.350 . S
C1880 C1879 1.434 . S
C1881 C1882 1.369 . S
C1881 C1883 1.419 . S
C1881 H1885 0.930 . S
C1882 C1881 1.369 . S
C1882 C1891 1.429 . S
C1883 C1881 1.419 . S
C1883 C1884 1.363 . S
C1883 H1886 0.929 1_565 S
C1884 C1883 1.363 . S
C1884 C1890 1.428 . S
H1885 C1881 0.930 . S
H1886 C1883 0.929 1_545 S
S1887 N1888 1.613 . S
S1887 N1889 1.610 . S
N1888 S1887 1.613 . S
N1888 C1891 1.350 . S
N1889 S1887 1.610 . S
N1889 C1890 1.351 . S
C1890 C1884 1.428 . S
C1890 N1889 1.351 . S
C1890 C1891 1.434 . S
C1891 C1882 1.429 . S
C1891 N1888 1.350 . S
C1891 C1890 1.434 . S
C1892 C1893 1.369 . S
C1892 C1894 1.419 . S
C1892 H1896 0.930 . S
C1893 C1892 1.369 . S
C1893 C1902 1.429 . S
C1894 C1892 1.419 . S
C1894 C1895 1.363 . S
C1894 H1897 0.929 . S
C1895 C1894 1.363 . S
C1895 C1901 1.428 . S
H1896 C1892 0.930 . S
H1897 C1894 0.929 . S
S1898 N1899 1.613 . S
S1898 N1900 1.610 . S
N1899 S1898 1.613 . S
N1899 C1902 1.350 . S
N1900 S1898 1.610 . S
N1900 C1901 1.351 . S
C1901 C1895 1.428 . S
C1901 N1900 1.351 . S
C1901 C1902 1.434 . S
C1902 C1893 1.429 . S
C1902 N1899 1.350 . S
C1902 C1901 1.434 . S
C1903 C1904 1.369 . S
C1903 C1905 1.419 . S
C1903 H1907 0.930 . S
C1904 C1903 1.369 . S
C1904 C1913 1.429 . S
C1905 C1903 1.419 . S
C1905 C1906 1.363 . S
C1905 H1908 0.929 . S
C1906 C1905 1.363 . S
C1906 C1912 1.428 . S
H1907 C1903 0.930 . S
H1908 C1905 0.929 . S
S1909 N1910 1.613 . S
S1909 N1911 1.610 . S
N1910 S1909 1.613 . S
N1910 C1913 1.350 . S
N1911 S1909 1.610 . S
N1911 C1912 1.351 . S
C1912 C1906 1.428 . S
C1912 N1911 1.351 . S
C1912 C1913 1.434 . S
C1913 C1904 1.429 . S
C1913 N1910 1.350 . S
C1913 C1912 1.434 . S
C1914 C1915 1.369 . S
C1914 C1916 1.419 . S
C1914 H1918 0.930 . S
C1915 C1914 1.369 . S
C1915 C1924 1.429 . S
C1916 C1914 1.419 . S
C1916 C1917 1.363 . S
C1916 H1919 0.929 . S
C1917 C1916 1.363 . S
C1917 C1923 1.428 . S
H1918 C1914 0.930 . S
H1919 C1916 0.929 . S
S1920 N1921 1.613 . S
S1920 N1922 1.610 . S
N1921 S1920 1.613 . S
N1921 C1924 1.350 . S
N1922 S1920 1.610 . S
N1922 C1923 1.351 . S
C1923 C1917 1.428 . S
C1923 N1922 1.351 . S
C1923 C1924 1.434 . S
C1924 C1915 1.429 . S
C1924 N1921 1.350 . S
C1924 C1923 1.434 . S
C1925 C1926 1.369 . S
C1925 C1927 1.419 . S
C1925 H1929 0.930 . S
C1926 C1925 1.369 . S
C1926 C1935 1.429 . S
C1927 C1925 1.419 . S
C1927 C1928 1.363 . S
C1927 H1930 0.929 . S
C1928 C1927 1.363 . S
C1928 C1934 1.428 . S
H1929 C1925 0.930 . S
H1930 C1927 0.929 . S
S1931 N1932 1.613 1_565 S
S1931 N1933 1.610 . S
N1932 S1931 1.613 1_545 S
N1932 C1935 1.350 . S
N1933 S1931 1.610 . S
N1933 C1934 1.351 1_565 S
C1934 C1928 1.428 . S
C1934 N1933 1.351 1_545 S
C1934 C1935 1.434 . S
C1935 C1926 1.429 . S
C1935 N1932 1.350 . S
C1935 C1934 1.434 . S
C1057 C17 1.566 . S
C1059 C83 1.569 . S
C1068 C50 1.565 . S
C1070 C116 1.565 . S
C1079 C149 1.564 . S
C1081 C215 1.565 . S
C1090 C248 1.565 . S
C1092 C182 1.568 . S
C1101 C347 1.566 . S
C1103 C281 1.569 . S
C1112 C380 1.568 . S
C1114 C314 1.569 . S
C1123 C413 1.567 . S
C1125 C479 1.565 . S
C1134 C512 1.570 . S
C1136 C446 1.568 . S
C1145 C611 1.570 . S
C1147 C545 1.567 . S
C1156 C578 1.566 . S
C1158 C644 1.565 . S
C1167 C677 1.569 . S
C1169 C743 1.567 . S
C1178 C776 1.567 . S
C1180 C710 1.565 . S
C1189 C875 1.567 . S
C1191 C809 1.565 . S
C1200 C842 1.565 . S
C1202 C908 1.565 . S
C1211 C1007 1.565 . S
C1213 C941 1.565 . S
C1222 C1040 1.564 . S
C1224 C974 1.567 . S
C1233 C160 1.373 . S
C1235 C28 1.367 . S
C1244 C61 1.373 . S
C1246 C985 1.366 . S
C1255 C94 1.364 . S
C1257 C490 1.374 . S
C1266 C127 1.364 . S
C1268 C787 1.374 . S
C1277 C193 1.368 . S
C1279 C853 1.370 . S
C1288 C358 1.365 . S
C1290 C226 1.372 . S
C1299 C655 1.363 . S
C1301 C259 1.374 . S
C1310 C292 1.368 . S
C1312 C424 1.370 . S
C1321 C721 1.368 . S
C1323 C325 1.371 . S
C1332 C1051 1.373 . S
C1334 C391 1.366 . S
C1343 C589 1.370 . S
C1345 C457 1.370 . S
C1354 C919 1.375 . S
C1356 C523 1.365 . S
C1365 C688 1.371 . S
C1367 C556 1.368 . S
C1376 C622 1.375 . S
C1378 C1018 1.365 . S
C1387 C754 1.371 . S
C1389 C886 1.368 . S
C1398 C952 1.375 . S
C1400 C820 1.365 . S
C1409 N5 1.349 . S
C1411 N14 1.349 . S
C1420 N47 1.350 . S
C1422 N38 1.348 . S
C1431 N80 1.349 . S
C1433 N71 1.350 . S
C1442 N113 1.350 . S
C1444 N104 1.350 . S
C1453 N137 1.350 . S
C1455 N146 1.349 . S
C1464 N179 1.349 . S
C1466 N170 1.349 . S
C1475 N203 1.349 . S
C1477 N212 1.350 . S
C1486 N236 1.349 . S
C1488 N245 1.349 . S
C1497 N269 1.348 . S
C1499 N278 1.350 1_545 S
C1508 N302 1.350 . S
C1510 N311 1.349 . S
C1519 N335 1.349 . S
C1521 N344 1.350 . S
C1530 N377 1.349 1_545 S
C1532 N368 1.349 . S
C1541 N401 1.350 . S
C1543 N410 1.349 1_565 S
C1552 N434 1.349 . S
C1554 N443 1.350 . S
C1563 N467 1.349 . S
C1565 N476 1.350 . S
C1574 N500 1.349 . S
C1576 N509 1.350 1_565 S
C1585 N542 1.349 . S
C1587 N533 1.350 . S
C1596 N566 1.349 . S
C1598 N575 1.350 . S
C1607 N599 1.349 . S
C1609 N608 1.350 . S
C1618 N632 1.348 . S
C1620 N641 1.350 . S
C1629 N665 1.348 . S
C1631 N674 1.350 . S
C1640 N698 1.350 . S
C1642 N707 1.349 . S
C1651 N740 1.351 . S
C1653 N731 1.349 . S
C1662 N764 1.350 . S
C1664 N773 1.349 . S
C1673 N806 1.350 1_545 S
C1675 N797 1.349 . S
C1684 N830 1.349 . S
C1686 N839 1.350 . S
C1695 N863 1.348 . S
C1697 N872 1.350 . S
C1706 N896 1.348 . S
C1708 N905 1.350 1_545 S
C1717 N938 1.349 1_565 S
C1719 N929 1.350 . S
C1728 N971 1.349 . S
C1730 N962 1.350 . S
C1739 N1004 1.350 . S
C1741 N995 1.349 . S
C1750 N1037 1.349 1_565 S
C1752 N1028 1.350 . S
C1761 C833 1.541 . S
C1763 C8 1.539 . S
C1772 C41 1.542 . S
C1774 C800 1.544 . S
C1783 C899 1.538 . S
C1785 C74 1.541 . S
C1794 C107 1.539 . S
C1796 C866 1.544 . S
C1805 C965 1.539 . S
C1807 C140 1.540 . S
C1816 C173 1.540 . S
C1818 C932 1.544 . S
C1827 C1031 1.543 . S
C1829 C206 1.539 . S
C1838 C998 1.542 . S
C1840 C239 1.544 . S
C1849 C272 1.538 . S
C1851 C569 1.542 . S
C1860 C305 1.543 . S
C1862 C536 1.543 . S
C1871 C635 1.544 . S
C1873 C338 1.540 . S
C1882 C371 1.544 . S
C1884 C602 1.541 . S
C1893 C701 1.538 . S
C1895 C404 1.541 . S
C1904 C668 1.543 . S
C1906 C437 1.539 . S
C1915 C470 1.545 . S
C1917 C767 1.542 . S
C1926 C503 1.538 . S
C1928 C734 1.542 . S
