# Generated by pormake.
# Topology snk, (6)-cn, num edge types: 1
# Building blocks:
#     Node 0, Type 0, BuildingBlock: INOVEN_clean_sbu_0, # of connection points: 6
#     Node 1, Type 0, BuildingBlock: INOVEN_clean_sbu_0, # of connection points: 6
#     Node 2, Type 0, BuildingBlock: INOVEN_clean_sbu_0, # of connection points: 6
#     Node 3, Type 0, BuildingBlock: INOVEN_clean_sbu_0, # of connection points: 6
#     Node 4, Type 0, BuildingBlock: INOVEN_clean_sbu_0, # of connection points: 6
#     Node 5, Type 0, BuildingBlock: INOVEN_clean_sbu_0, # of connection points: 6
#     Node 6, Type 0, BuildingBlock: INOVEN_clean_sbu_0, # of connection points: 6
#     Node 7, Type 0, BuildingBlock: INOVEN_clean_sbu_0, # of connection points: 6
#     Edge 8, Type (0, 0), BuildingBlock: EYOCIG_clean_linker_4, # of connection points: 2
#     Edge 9, Type (0, 0), BuildingBlock: EYOCIG_clean_linker_4, # of connection points: 2
#     Edge 10, Type (0, 0), BuildingBlock: EYOCIG_clean_linker_4, # of connection points: 2
#     Edge 11, Type (0, 0), BuildingBlock: EYOCIG_clean_linker_4, # of connection points: 2
#     Edge 12, Type (0, 0), BuildingBlock: EYOCIG_clean_linker_4, # of connection points: 2
#     Edge 13, Type (0, 0), BuildingBlock: EYOCIG_clean_linker_4, # of connection points: 2
#     Edge 14, Type (0, 0), BuildingBlock: EYOCIG_clean_linker_4, # of connection points: 2
#     Edge 15, Type (0, 0), BuildingBlock: EYOCIG_clean_linker_4, # of connection points: 2
#     Edge 16, Type (0, 0), BuildingBlock: EYOCIG_clean_linker_4, # of connection points: 2
#     Edge 17, Type (0, 0), BuildingBlock: EYOCIG_clean_linker_4, # of connection points: 2
#     Edge 18, Type (0, 0), BuildingBlock: EYOCIG_clean_linker_4, # of connection points: 2
#     Edge 19, Type (0, 0), BuildingBlock: EYOCIG_clean_linker_4, # of connection points: 2
#     Edge 20, Type (0, 0), BuildingBlock: EYOCIG_clean_linker_4, # of connection points: 2
#     Edge 21, Type (0, 0), BuildingBlock: EYOCIG_clean_linker_4, # of connection points: 2
#     Edge 22, Type (0, 0), BuildingBlock: EYOCIG_clean_linker_4, # of connection points: 2
#     Edge 23, Type (0, 0), BuildingBlock: EYOCIG_clean_linker_4, # of connection points: 2
#     Edge 24, Type (0, 0), BuildingBlock: EYOCIG_clean_linker_4, # of connection points: 2
#     Edge 25, Type (0, 0), BuildingBlock: EYOCIG_clean_linker_4, # of connection points: 2
#     Edge 26, Type (0, 0), BuildingBlock: EYOCIG_clean_linker_4, # of connection points: 2
#     Edge 27, Type (0, 0), BuildingBlock: EYOCIG_clean_linker_4, # of connection points: 2
#     Edge 28, Type (0, 0), BuildingBlock: EYOCIG_clean_linker_4, # of connection points: 2
#     Edge 29, Type (0, 0), BuildingBlock: EYOCIG_clean_linker_4, # of connection points: 2
#     Edge 30, Type (0, 0), BuildingBlock: EYOCIG_clean_linker_4, # of connection points: 2
#     Edge 31, Type (0, 0), BuildingBlock: EYOCIG_clean_linker_4, # of connection points: 2
# Relax obj value: 0.088
# Max RMSD: 0.165
# Mean RMSD: 0.130
data_MOF--net-snk--node1-INOVEN_clean_sbu_0--edge1-EYOCIG_clean_linker_4
_symmetry_space_group_name_H-M    P1
_symmetry_Int_Tables_number       1
_symmetry_cell_setting            triclinic
loop_
_symmetry_equiv_pos_as_xyz
'x, y, z'
_cell_length_a     28.925258
_cell_length_b     28.918838
_cell_length_c     22.358287
_cell_angle_alpha  95.007155
_cell_angle_beta   94.995602
_cell_angle_gamma 89.847373
loop_
_atom_site_label
_atom_site_type_symbol
_atom_site_fract_x
_atom_site_fract_y
_atom_site_fract_z
_atom_type_partial_charge
Gd0 Gd 1.00108 0.97751 0.45125 0.0
Gd1 Gd 0.01432 0.03788 0.57486 0.0
C2 C 0.0688 0.06961 0.46854 0.0
C3 C 0.9888 0.95003 0.33744 0.0
C4 C 0.99912 0.96511 0.27813 0.0
C5 C 0.01984 0.93361 0.2371 0.0
C6 C 0.98591 0.00904 0.26004 0.0
C7 C 0.00925 0.98737 0.15936 0.0
C8 C 0.9909 0.02002 0.201 0.0
C9 C 0.0249 0.94466 0.17822 0.0
C10 C 0.06099 0.94453 0.53517 0.0
C11 C 0.94667 0.94573 0.55762 0.0
C12 C 0.02655 0.06573 0.68858 0.0
C13 C 0.01634 0.05094 0.74808 0.0
C14 C 0.99585 0.08269 0.78904 0.0
C15 C 0.02948 1.00706 0.76641 0.0
C16 C 1.00647 0.02923 0.86714 0.0
C17 C 0.02463 0.99636 0.8256 0.0
C18 C 0.9909 0.0719 0.84805 0.0
C19 C 0.95435 0.07061 0.49067 0.0
O20 O 0.04292 0.0396 0.43229 0.0
O21 O 0.06847 0.07282 0.52796 0.0
O22 O 0.02405 0.93709 0.37278 0.0
O23 O 0.95774 0.97356 0.3668 0.0
O24 O 0.0358 0.91798 0.49536 0.0
O25 O 0.05631 0.98671 0.52591 0.0
O26 O 0.97256 0.97575 0.59387 0.0
O27 O 0.94696 0.94255 0.4982 0.0
O28 O 0.99124 0.07844 0.65316 0.0
O29 O 0.05762 0.04212 0.65935 0.0
O30 O 0.97955 0.09731 0.53029 0.0
O31 O 0.95915 0.02856 0.50035 0.0
H32 H 0.0307 0.89972 0.24995 0.0
H33 H 0.9704 0.03432 0.29082 0.0
H34 H 0.979 0.0534 0.18736 0.0
H35 H 0.03953 0.91918 0.14685 0.0
H36 H 0.98507 0.11655 0.776 0.0
H37 H 0.04479 0.9816 0.73569 0.0
H38 H 0.03644 0.963 0.8394 0.0
H39 H 0.97641 0.09755 0.87935 0.0
Gd40 Gd 0.27963 0.75004 0.70433 0.0
Gd41 Gd 0.23547 0.76492 0.82237 0.0
C42 C 0.19247 0.82153 0.717 0.0
C43 C 0.29401 0.7329 0.59277 0.0
C44 C 0.28148 0.75131 0.53427 0.0
C45 C 0.31498 0.77544 0.50713 0.0
C46 C 0.23872 0.73964 0.50154 0.0
C47 C 0.267 0.76772 0.4129 0.0
C48 C 0.23157 0.74789 0.44099 0.0
C49 C 0.30773 0.78368 0.44654 0.0
C50 C 0.32006 0.81572 0.78369 0.0
C51 C 0.32247 0.69323 0.80955 0.0
C52 C 0.22117 0.78197 0.93396 0.0
C53 C 0.23405 0.76356 0.99237 0.0
C54 C 0.20081 0.73921 0.01969 0.0
C55 C 0.27691 0.7753 0.02479 0.0
C56 C 0.24926 0.74681 0.11356 0.0
C57 C 0.28443 0.76688 0.08525 0.0
C58 C 0.20844 0.73081 0.0802 0.0
C59 C 0.19517 0.69925 0.74282 0.0
O60 O 0.21705 0.79457 0.68099 0.0
O61 O 0.19717 0.82084 0.77605 0.0
O62 O 0.32242 0.75792 0.63133 0.0
O63 O 0.26102 0.71278 0.61785 0.0
O64 O 0.34323 0.78835 0.74837 0.0
O65 O 0.27714 0.80897 0.77326 0.0
O66 O 0.29803 0.7203 0.84562 0.0
O67 O 0.31769 0.69393 0.75051 0.0
O68 O 0.19285 0.75677 0.89548 0.0
O69 O 0.25392 0.80237 0.90876 0.0
O70 O 0.17189 0.72658 0.77805 0.0
O71 O 0.23803 0.70604 0.75358 0.0
H72 H 0.34804 0.78512 0.53151 0.0
H73 H 0.21198 0.72144 0.52132 0.0
H74 H 0.19981 0.73573 0.41515 0.0
H75 H 0.33523 0.79934 0.42508 0.0
H76 H 0.16768 0.72947 0.99555 0.0
H77 H 0.30345 0.79366 1.00485 0.0
H78 H 0.31626 0.77909 0.11087 0.0
H79 H 0.18113 0.71497 0.10183 0.0
Gd80 Gd 0.51537 0.98593 0.07235 0.0
Gd81 Gd 0.49984 0.02925 0.95413 0.0
C82 C 0.44302 0.07228 0.05908 0.0
C83 C 0.53259 0.97227 0.18412 0.0
C84 C 0.51392 0.98502 0.24241 0.0
C85 C 0.48965 0.95165 0.2696 0.0
C86 C 0.52544 0.02792 0.2749 0.0
C87 C 0.497 1.00002 0.36354 0.0
C88 C 0.51692 0.03533 0.33533 0.0
C89 C 0.48116 0.95917 0.33009 0.0
C90 C 0.44975 0.94453 0.99376 0.0
C91 C 0.57223 0.9429 0.96736 0.0
C92 C 0.48261 0.04321 0.84246 0.0
C93 C 0.5013 0.03095 0.78407 0.0
C94 C 0.52558 0.06461 0.75737 0.0
C95 C 0.48972 0.98831 0.75097 0.0
C96 C 0.51812 0.01702 0.66281 0.0
C97 C 0.49818 0.98143 0.69048 0.0
C98 C 0.53401 0.05762 0.69682 0.0
C99 C 0.56524 0.07068 0.03318 0.0
O100 O 0.47048 0.04836 0.09528 0.0
O101 O 0.44341 0.06699 1.00003 0.0
O102 O 0.50788 0.94345 0.14576 0.0
O103 O 0.55247 1.00524 0.15874 0.0
O104 O 0.47758 0.92179 0.02902 0.0
O105 O 0.45611 0.98755 1.00372 0.0
O106 O 0.54486 0.96693 0.93117 0.0
O107 O 0.57169 0.94802 0.02641 0.0
O108 O 0.50709 0.07207 0.88102 0.0
O109 O 0.46301 0.00991 0.86756 0.0
O110 O 0.53743 0.09345 0.99792 0.0
O111 O 0.55899 0.02769 0.02276 0.0
H112 H 0.48007 0.91849 0.2454 0.0
H113 H 0.54373 0.05456 0.25506 0.0
H114 H 0.529 0.06719 0.36104 0.0
H115 H 0.46544 0.93175 0.35164 0.0
H116 H 0.5352 0.09759 0.78202 0.0
H117 H 0.47141 0.96147 0.77041 0.0
H118 H 0.48607 0.94976 0.66434 0.0
H119 H 0.54975 0.08525 0.67567 0.0
Gd120 Gd 0.28818 0.26429 0.32515 0.0
Gd121 Gd 0.22767 0.25129 0.20154 0.0
C122 C 0.19584 0.19691 0.30794 0.0
C123 C 0.31578 0.27667 0.43892 0.0
C124 C 0.30076 0.26652 0.49833 0.0
C125 C 0.33235 0.24615 0.53958 0.0
C126 C 0.25675 0.27957 0.51626 0.0
C127 C 0.27844 0.25675 0.61717 0.0
C128 C 0.24575 0.27476 0.57532 0.0
C129 C 0.32127 0.24127 0.59851 0.0
C130 C 0.32072 0.20412 0.24114 0.0
C131 C 0.32012 0.31848 0.21871 0.0
C132 C 0.19982 0.23922 0.08783 0.0
C133 C 0.21463 0.24952 0.02837 0.0
C134 C 0.18297 0.27021 0.98753 0.0
C135 C 0.25845 0.23627 1.00993 0.0
C136 C 0.23636 0.25963 0.90936 0.0
C137 C 0.26915 0.24122 0.95076 0.0
C138 C 0.19376 0.27528 0.92856 0.0
C139 C 0.19537 0.31151 0.28579 0.0
O140 O 0.22597 0.22267 0.34417 0.0
O141 O 0.19257 0.19727 0.24852 0.0
O142 O 0.32857 0.24131 0.40362 0.0
O143 O 0.29229 0.30773 0.40954 0.0
O144 O 0.34746 0.22915 0.28091 0.0
O145 O 0.27861 0.20909 0.25049 0.0
O146 O 0.28997 0.29274 0.1825 0.0
O147 O 0.32336 0.3182 0.27813 0.0
O148 O 0.18713 0.2745 0.12334 0.0
O149 O 0.22337 0.20807 0.11697 0.0
O150 O 0.1685 0.28646 0.24621 0.0
O151 O 0.23737 0.30644 0.27604 0.0
H152 H 0.3663 0.23541 0.52682 0.0
H153 H 0.2314 0.29479 0.48532 0.0
H154 H 0.21229 0.28651 0.5888 0.0
H155 H 0.3468 0.22688 0.63004 0.0
H156 H 0.14915 0.28109 1.00065 0.0
H157 H 0.28387 0.22082 0.04057 0.0
H158 H 0.30247 0.22934 0.93688 0.0
H159 H 0.16817 0.28995 0.89737 0.0
Gd160 Gd 0.77962 0.24979 0.20372 0.0
Gd161 Gd 0.73629 0.2658 0.32195 0.0
C162 C 0.69385 0.32288 0.21695 0.0
C163 C 0.7931 0.23223 0.09193 0.0
C164 C 0.78065 0.25104 0.03366 0.0
C165 C 0.81411 0.27556 1.00693 0.0
C166 C 0.73794 0.23948 1.00076 0.0
C167 C 0.76614 0.26852 0.91267 0.0
C168 C 0.73077 0.24828 0.94041 0.0
C169 C 0.80683 0.28433 0.94652 0.0
C170 C 0.82155 0.31503 0.28243 0.0
C171 C 0.82226 0.19296 0.30887 0.0
C172 C 0.7222 0.28317 0.43358 0.0
C173 C 0.73465 0.26471 0.49206 0.0
C174 C 0.70105 0.24069 0.51917 0.0
C175 C 0.77743 0.27623 0.52478 0.0
C176 C 0.74904 0.24822 0.61339 0.0
C177 C 0.78454 0.26793 0.58531 0.0
C178 C 0.70827 0.23241 0.57975 0.0
C179 C 0.69452 0.20058 0.24291 0.0
O180 O 0.71769 0.29529 0.18079 0.0
O181 O 0.69894 0.32241 0.276 0.0
O182 O 0.82226 0.25653 0.13029 0.0
O183 O 0.75983 0.21285 0.11733 0.0
O184 O 0.84405 0.28707 0.24703 0.0
O185 O 0.77849 0.30906 0.27241 0.0
O186 O 0.79846 0.22063 0.34501 0.0
O187 O 0.81702 0.19326 0.2498 0.0
O188 O 0.69357 0.25832 0.39511 0.0
O189 O 0.75528 0.30302 0.40838 0.0
O190 O 0.67189 0.22866 0.27801 0.0
O191 O 0.73753 0.20653 0.2534 0.0
H192 H 0.84714 0.28518 0.03143 0.0
H193 H 0.71125 0.22098 0.02023 0.0
H194 H 0.69904 0.23621 0.9144 0.0
H195 H 0.8343 0.30028 0.92532 0.0
H196 H 0.66796 0.23112 0.49479 0.0
H197 H 0.80424 0.29435 0.50502 0.0
H198 H 0.81635 0.27997 0.61116 0.0
H199 H 0.6807 0.21684 0.6012 0.0
Gd200 Gd 0.78778 0.76413 0.82469 0.0
Gd201 Gd 0.72723 0.75108 0.70114 0.0
C202 C 0.69549 0.69671 0.80755 0.0
C203 C 0.81541 0.77635 0.93847 0.0
C204 C 0.80043 0.76602 0.99785 0.0
C205 C 0.83196 0.74529 0.03883 0.0
C206 C 0.75655 0.77926 0.01605 0.0
C207 C 0.77827 0.75589 0.11669 0.0
C208 C 0.74563 0.77428 0.07511 0.0
C209 C 0.82096 0.74023 0.09775 0.0
C210 C 0.82029 0.70391 0.74067 0.0
C211 C 0.81958 0.81844 0.71823 0.0
C212 C 0.69938 0.7388 0.58743 0.0
C213 C 0.71424 0.74891 0.52792 0.0
C214 C 0.68252 0.7692 0.48676 0.0
C215 C 0.7582 0.73587 0.50979 0.0
C216 C 0.7362 0.75864 0.4089 0.0
C217 C 0.76902 0.74064 0.45063 0.0
C218 C 0.69342 0.77407 0.42777 0.0
C219 C 0.69477 0.81115 0.78546 0.0
O220 O 0.72562 0.72248 0.84375 0.0
O221 O 0.69219 0.69705 0.74813 0.0
O222 O 0.82827 0.7411 0.90305 0.0
O223 O 0.79185 0.80742 0.9092 0.0
O224 O 0.84703 0.729 0.78036 0.0
O225 O 0.77818 0.70889 0.75007 0.0
O226 O 0.78944 0.79266 0.68203 0.0
O227 O 0.82286 0.81812 0.77765 0.0
O228 O 0.68673 0.77417 0.62281 0.0
O229 O 0.72289 0.7077 0.6167 0.0
O230 O 0.66798 0.78609 0.7458 0.0
O231 O 0.7368 0.80621 0.77571 0.0
H232 H 0.86583 0.73442 0.02589 0.0
H233 H 0.73123 0.79476 0.98533 0.0
H234 H 0.71227 0.78617 0.0888 0.0
H235 H 0.84645 0.72556 0.12907 0.0
H236 H 0.64859 0.7799 0.49964 0.0
H237 H 0.78366 0.72073 0.54068 0.0
H238 H 0.80246 0.72894 0.43701 0.0
H239 H 0.6678 0.78843 0.39634 0.0
Gd240 Gd 0.50119 0.47742 0.95132 0.0
Gd241 Gd 0.51433 0.53788 0.07499 0.0
C242 C 0.56854 0.56977 0.96851 0.0
C243 C 0.48864 0.44977 0.83757 0.0
C244 C 0.49886 0.46454 0.77807 0.0
C245 C 0.51922 0.43275 0.73704 0.0
C246 C 0.48584 0.50847 0.7598 0.0
C247 C 0.5087 0.48628 0.65901 0.0
C248 C 0.49067 0.51918 0.70061 0.0
C249 C 0.52415 0.44354 0.67802 0.0
C250 C 0.56162 0.44498 0.03512 0.0
C251 C 0.44714 0.44542 0.05784 0.0
C252 C 0.52652 0.56553 0.18875 0.0
C253 C 0.51616 0.55051 0.24807 0.0
C254 C 0.4955 0.58204 0.28914 0.0
C255 C 0.52927 0.50654 0.26611 0.0
C256 C 0.50598 0.52818 0.3668 0.0
C257 C 0.52426 0.49554 0.32512 0.0
C258 C 0.49042 0.57096 0.34801 0.0
C259 C 0.45404 0.57028 0.99096 0.0
O260 O 0.54277 0.53964 0.93229 0.0
O261 O 0.56824 0.57302 0.02794 0.0
O262 O 0.52389 0.43677 0.87286 0.0
O263 O 0.45777 0.47357 0.86695 0.0
O264 O 0.53653 0.41819 0.99548 0.0
O265 O 0.55651 0.48708 0.02578 0.0
O266 O 0.47293 0.47554 0.09404 0.0
O267 O 0.44734 0.44222 0.99842 0.0
O268 O 0.49129 0.57841 0.15333 0.0
O269 O 0.55761 0.54197 0.15948 0.0
O270 O 0.47911 0.59711 0.03057 0.0
O271 O 0.4591 0.52824 1.0006 0.0
H272 H 0.5299 0.39884 0.75002 0.0
H273 H 0.47063 0.53398 0.79056 0.0
H274 H 0.47896 0.55259 0.68686 0.0
H275 H 0.53853 0.41786 0.64667 0.0
H276 H 0.48471 0.61596 0.27629 0.0
H277 H 0.5447 0.48122 0.23532 0.0
H278 H 0.53607 0.46212 0.3387 0.0
H279 H 0.47582 0.59645 0.37942 0.0
Gd280 Gd 0.01584 0.48587 0.57247 0.0
Gd281 Gd 0.99993 0.52918 0.45416 0.0
C282 C 0.94297 0.57182 0.55925 0.0
C283 C 0.0333 0.47239 0.68425 0.0
C284 C 0.01439 0.48483 0.74247 0.0
C285 C 0.98992 0.45133 0.7692 0.0
C286 C 0.0258 0.5276 0.77534 0.0
C287 C 0.99679 0.49937 0.86342 0.0
C288 C 0.01695 0.53478 0.83567 0.0
C289 C 0.98109 0.45862 0.82959 0.0
C290 C 0.95053 0.44407 0.49378 0.0
C291 C 0.07278 0.4432 0.46739 0.0
C292 C 0.98244 0.54308 0.34251 0.0
C293 C 1.00096 0.53076 0.28404 0.0
C294 C 0.02496 0.56444 0.25703 0.0
C295 C 0.98949 0.48799 0.25119 0.0
C296 C 0.01743 0.51659 0.16268 0.0
C297 C 0.99777 0.481 0.19065 0.0
C298 C 0.03322 0.55734 0.19643 0.0
C299 C 0.06545 0.57066 0.53294 0.0
O300 O 0.9705 0.54794 0.59542 0.0
O301 O 0.94345 0.56671 0.5002 0.0
O302 O 0.00908 0.44318 0.64585 0.0
O303 O 0.05267 0.50569 0.6589 0.0
O304 O 0.97842 0.4215 0.52918 0.0
O305 O 0.95661 0.48712 0.50379 0.0
O306 O 0.04517 0.46701 0.43119 0.0
O307 O 0.07238 0.44843 0.52646 0.0
O308 O 1.00703 0.57194 0.38095 0.0
O309 O 0.9629 0.50981 0.36775 0.0
O310 O 0.03752 0.59343 0.49783 0.0
O311 O 0.05919 0.52768 0.52258 0.0
H312 H 0.98041 0.41826 0.74472 0.0
H313 H 0.04425 0.55433 0.75587 0.0
H314 H 0.02893 0.56656 0.86166 0.0
H315 H 0.9652 0.43112 0.8508 0.0
H316 H 0.03449 0.59752 0.28149 0.0
H317 H 0.97139 0.46113 0.27087 0.0
H318 H 0.98574 0.44922 0.16472 0.0
H319 H 0.04874 0.58497 0.17505 0.0
C320 C 0.11921 0.12218 0.40833 0.0
C321 C 0.09765 0.09999 0.44001 0.0
C322 C 0.14337 0.14644 0.36819 0.0
C323 C 0.1655 0.16803 0.3365 0.0
C324 C 0.11165 0.90806 0.62257 0.0
C325 C 0.08942 0.92735 0.58408 0.0
C326 C 0.13801 0.88073 0.66212 0.0
C327 C 0.16205 0.85472 0.69035 0.0
C328 C 0.36139 0.87505 0.86758 0.0
C329 C 0.34092 0.84851 0.82992 0.0
C330 C 0.38943 0.90272 0.91149 0.0
C331 C 0.41648 0.9232 0.94849 0.0
C332 C 0.38377 0.12679 0.11376 0.0
C333 C 0.40975 0.1027 0.08557 0.0
C334 C 0.35665 0.1533 0.15343 0.0
C335 C 0.33762 0.17564 0.19208 0.0
C336 C 0.89625 0.89315 0.61782 0.0
C337 C 0.91782 0.91535 0.58616 0.0
C338 C 0.87207 0.86889 0.65793 0.0
C339 C 0.84992 0.8473 0.68963 0.0
C340 C 0.90323 0.10652 0.40321 0.0
C341 C 0.92569 0.08749 0.44176 0.0
C342 C 0.87665 0.13364 0.36364 0.0
C343 C 0.85259 0.15966 0.33546 0.0
C344 C 0.65248 0.14071 0.16022 0.0
C345 C 0.6731 0.16752 0.19741 0.0
C346 C 0.62468 0.11269 0.1164 0.0
C347 C 0.59809 0.09199 0.07901 0.0
C348 C 0.65893 0.86208 0.87317 0.0
C349 C 0.678 0.83973 0.83455 0.0
C350 C 0.63168 0.88854 0.91275 0.0
C351 C 0.60559 0.91256 0.94088 0.0
C352 C 0.61887 0.62226 0.90817 0.0
C353 C 0.59735 0.60013 0.93994 0.0
C354 C 0.64301 0.64639 0.86792 0.0
C355 C 0.66513 0.6679 0.83614 0.0
C356 C 0.63953 0.38225 0.16221 0.0
C357 C 0.66354 0.35621 0.19042 0.0
C358 C 0.61289 0.40927 0.12258 0.0
C359 C 0.59033 0.42817 0.08401 0.0
C360 C 0.89154 0.40186 0.41014 0.0
C361 C 0.91797 0.4225 0.44777 0.0
C362 C 0.86383 0.37412 0.36591 0.0
C363 C 0.84317 0.34763 0.32834 0.0
C364 C 0.85624 0.65264 0.65336 0.0
C365 C 0.83718 0.67518 0.69183 0.0
C366 C 0.88345 0.62607 0.61388 0.0
C367 C 0.90957 0.60208 0.58577 0.0
C368 C 0.37272 0.36872 0.15841 0.0
C369 C 0.35054 0.34723 0.19015 0.0
C370 C 0.39688 0.39286 0.11818 0.0
C371 C 0.41837 0.41502 0.08643 0.0
C372 C 0.40304 0.60624 0.9035 0.0
C373 C 0.42541 0.58706 0.94197 0.0
C374 C 0.37666 0.63366 0.86411 0.0
C375 C 0.35272 0.65985 0.83607 0.0
C376 C 0.15408 0.63979 0.65896 0.0
C377 C 0.17449 0.66637 0.6966 0.0
C378 C 0.12598 0.61219 0.61508 0.0
C379 C 0.09884 0.59184 0.57812 0.0
C380 C 0.15972 0.36266 0.37338 0.0
C381 C 0.17871 0.3402 0.33481 0.0
C382 C 0.13246 0.38913 0.41288 0.0
C383 C 0.10626 0.41305 0.44093 0.0
C384 C 1.00714 0.01282 0.98247 0.0
C385 C 1.00673 0.02053 0.93004 0.0
C386 C 0.0087 1.00415 0.04418 0.0
C387 C 0.00905 0.99629 0.09654 0.0
C388 C 0.26054 0.76075 0.29469 0.0
C389 C 0.26451 0.76444 0.34865 0.0
C390 C 0.25624 0.75348 0.23178 0.0
C391 C 0.25207 0.74994 0.17781 0.0
C392 C 0.51123 0.01102 0.54463 0.0
C393 C 0.51493 0.01486 0.59859 0.0
C394 C 0.50385 1.0068 0.48174 0.0
C395 C 0.50022 1.0027 0.42778 0.0
C396 C 0.25303 0.25903 0.79412 0.0
C397 C 0.24506 0.25947 0.84646 0.0
C398 C 0.26172 0.25737 0.7324 0.0
C399 C 0.26936 0.25707 0.67996 0.0
C400 C 0.75969 0.26232 0.79449 0.0
C401 C 0.7637 0.26569 0.84845 0.0
C402 C 0.75547 0.25514 0.73158 0.0
C403 C 0.75153 0.25148 0.67762 0.0
C404 C 0.75294 0.75791 0.29366 0.0
C405 C 0.74507 0.75835 0.34605 0.0
C406 C 0.76162 0.7563 0.23193 0.0
C407 C 0.76933 0.75605 0.17952 0.0
C408 C 0.50797 0.50289 0.54375 0.0
C409 C 0.50843 0.49505 0.59613 0.0
C410 C 0.5064 0.51152 0.48202 0.0
C411 C 0.50618 0.51916 0.42959 0.0
C412 C 1.00305 0.50593 0.98159 0.0
C413 C 0.99964 0.50184 0.92764 0.0
C414 C 0.01035 0.51024 0.04449 0.0
C415 C 0.0141 0.51421 0.09845 0.0
loop_
_geom_bond_atom_site_label_1
_geom_bond_atom_site_label_2
_geom_bond_distance
_geom_bond_site_symmetry_2
_ccdc_geom_bond_type
Gd0 C3 2.818 1_655 S
Gd0 O20 2.377 1_665 S
Gd0 O22 2.448 1_655 S
Gd0 O23 2.506 . S
Gd0 O24 2.435 1_655 S
Gd0 O25 2.717 1_655 S
Gd0 O27 2.395 . S
Gd0 O31 2.327 1_565 S
Gd1 C12 2.818 1_455 S
Gd1 O21 2.395 . S
Gd1 O25 2.327 1_545 S
Gd1 O26 2.377 1_445 S
Gd1 O28 2.448 1_455 S
Gd1 O29 2.506 . S
Gd1 O30 2.435 1_455 S
Gd1 O31 2.717 1_455 S
C2 O20 1.240 . S
C2 O21 1.240 . S
C3 Gd0 2.818 1_455 S
C3 C4 1.510 . S
C3 O22 1.249 . S
C3 O23 1.252 1_455 S
C4 C3 1.510 . S
C4 C5 1.404 . S
C4 C6 1.352 . S
C5 C4 1.404 . S
C5 C9 1.389 . S
C5 H32 0.930 . S
C6 C4 1.352 . S
C6 C8 1.374 . S
C6 H33 0.931 1_465 S
C7 C8 1.359 . S
C7 C9 1.364 . S
C8 C6 1.374 . S
C8 C7 1.359 . S
C8 H34 0.934 1_565 S
C9 C5 1.389 . S
C9 C7 1.364 . S
C9 H35 0.931 . S
C10 O24 1.256 . S
C10 O25 1.257 . S
C11 O26 1.240 . S
C11 O27 1.240 . S
C12 Gd1 2.818 1_655 S
C12 C13 1.510 . S
C12 O28 1.249 . S
C12 O29 1.252 1_655 S
C13 C12 1.510 . S
C13 C14 1.404 . S
C13 C15 1.352 . S
C14 C13 1.404 . S
C14 C18 1.389 . S
C14 H36 0.930 . S
C15 C13 1.352 . S
C15 C17 1.374 . S
C15 H37 0.931 1_645 S
C16 C17 1.359 . S
C16 C18 1.364 . S
C17 C15 1.374 . S
C17 C16 1.359 . S
C17 H38 0.933 1_545 S
C18 C14 1.389 . S
C18 C16 1.364 . S
C18 H39 0.931 . S
C19 O30 1.256 . S
C19 O31 1.257 . S
O20 Gd0 2.377 1_445 S
O20 C2 1.240 . S
O21 Gd1 2.395 . S
O21 C2 1.240 . S
O22 Gd0 2.448 1_455 S
O22 C3 1.249 . S
O23 Gd0 2.506 . S
O23 C3 1.252 1_655 S
O24 Gd0 2.435 1_455 S
O24 C10 1.256 . S
O25 Gd0 2.717 1_455 S
O25 Gd1 2.327 1_565 S
O25 C10 1.257 . S
O26 Gd1 2.377 1_665 S
O26 C11 1.240 . S
O27 Gd0 2.395 . S
O27 C11 1.240 . S
O28 Gd1 2.448 1_655 S
O28 C12 1.249 . S
O29 Gd1 2.506 . S
O29 C12 1.252 1_455 S
O30 Gd1 2.435 1_655 S
O30 C19 1.256 . S
O31 Gd0 2.327 1_545 S
O31 Gd1 2.717 1_655 S
O31 C19 1.257 . S
H32 C5 0.930 . S
H33 C6 0.931 1_645 S
H34 C8 0.934 1_545 S
H35 C9 0.931 . S
H36 C14 0.930 . S
H37 C15 0.931 1_465 S
H38 C17 0.933 1_565 S
H39 C18 0.931 . S
Gd40 C43 2.818 . S
Gd40 O60 2.377 . S
Gd40 O62 2.448 . S
Gd40 O63 2.506 . S
Gd40 O64 2.435 . S
Gd40 O65 2.717 . S
Gd40 O67 2.395 . S
Gd40 O71 2.327 . S
Gd41 C52 2.818 . S
Gd41 O61 2.395 . S
Gd41 O65 2.327 . S
Gd41 O66 2.377 . S
Gd41 O68 2.448 . S
Gd41 O69 2.506 . S
Gd41 O70 2.435 . S
Gd41 O71 2.717 . S
C42 O60 1.240 . S
C42 O61 1.240 . S
C43 Gd40 2.818 . S
C43 C44 1.510 . S
C43 O62 1.249 . S
C43 O63 1.252 . S
C44 C43 1.510 . S
C44 C45 1.404 . S
C44 C46 1.352 . S
C45 C44 1.404 . S
C45 C49 1.389 . S
C45 H72 0.930 . S
C46 C44 1.352 . S
C46 C48 1.374 . S
C46 H73 0.931 . S
C47 C48 1.359 . S
C47 C49 1.364 . S
C48 C46 1.374 . S
C48 C47 1.359 . S
C48 H74 0.931 . S
C49 C45 1.389 . S
C49 C47 1.364 . S
C49 H75 0.931 . S
C50 O64 1.256 . S
C50 O65 1.257 . S
C51 O66 1.240 . S
C51 O67 1.240 . S
C52 Gd41 2.818 . S
C52 C53 1.510 . S
C52 O68 1.249 . S
C52 O69 1.252 . S
C53 C52 1.510 . S
C53 C54 1.404 1_556 S
C53 C55 1.352 1_556 S
C54 C53 1.404 1_554 S
C54 C58 1.389 . S
C54 H76 0.930 1_554 S
C55 C53 1.352 1_554 S
C55 C57 1.374 . S
C55 H77 0.931 . S
C56 C57 1.359 . S
C56 C58 1.364 . S
C57 C55 1.374 . S
C57 C56 1.359 . S
C57 H78 0.931 . S
C58 C54 1.389 . S
C58 C56 1.364 . S
C58 H79 0.931 . S
C59 O70 1.256 . S
C59 O71 1.257 . S
O60 Gd40 2.377 . S
O60 C42 1.240 . S
O61 Gd41 2.395 . S
O61 C42 1.240 . S
O62 Gd40 2.448 . S
O62 C43 1.249 . S
O63 Gd40 2.506 . S
O63 C43 1.252 . S
O64 Gd40 2.435 . S
O64 C50 1.256 . S
O65 Gd40 2.717 . S
O65 Gd41 2.327 . S
O65 C50 1.257 . S
O66 Gd41 2.377 . S
O66 C51 1.240 . S
O67 Gd40 2.395 . S
O67 C51 1.240 . S
O68 Gd41 2.448 . S
O68 C52 1.249 . S
O69 Gd41 2.506 . S
O69 C52 1.252 . S
O70 Gd41 2.435 . S
O70 C59 1.256 . S
O71 Gd40 2.327 . S
O71 Gd41 2.717 . S
O71 C59 1.257 . S
H72 C45 0.930 . S
H73 C46 0.931 . S
H74 C48 0.931 . S
H75 C49 0.931 . S
H76 C54 0.930 1_556 S
H77 C55 0.931 . S
H78 C57 0.931 . S
H79 C58 0.931 . S
Gd80 C83 2.818 . S
Gd80 O100 2.377 1_565 S
Gd80 O102 2.448 . S
Gd80 O103 2.506 1_565 S
Gd80 O104 2.435 . S
Gd80 O105 2.717 1_554 S
Gd80 O107 2.395 1_554 S
Gd80 O111 2.327 1_565 S
Gd81 C92 2.818 . S
Gd81 O101 2.395 1_556 S
Gd81 O105 2.327 1_545 S
Gd81 O106 2.377 1_545 S
Gd81 O108 2.448 . S
Gd81 O109 2.506 1_545 S
Gd81 O110 2.435 . S
Gd81 O111 2.717 1_556 S
C82 O100 1.240 . S
C82 O101 1.240 . S
C83 Gd80 2.818 . S
C83 C84 1.510 . S
C83 O102 1.249 . S
C83 O103 1.252 1_565 S
C84 C83 1.510 . S
C84 C85 1.404 . S
C84 C86 1.352 1_565 S
C85 C84 1.404 . S
C85 C89 1.389 . S
C85 H112 0.930 . S
C86 C84 1.352 1_545 S
C86 C88 1.374 . S
C86 H113 0.931 . S
C87 C88 1.359 1_565 S
C87 C89 1.364 . S
C88 C86 1.374 . S
C88 C87 1.359 1_545 S
C88 H114 0.931 . S
C89 C85 1.389 . S
C89 C87 1.364 . S
C89 H115 0.931 . S
C90 O104 1.256 1_556 S
C90 O105 1.257 . S
C91 O106 1.240 . S
C91 O107 1.240 . S
C92 Gd81 2.818 . S
C92 C93 1.510 . S
C92 O108 1.249 . S
C92 O109 1.252 1_545 S
C93 C92 1.510 . S
C93 C94 1.404 . S
C93 C95 1.352 1_545 S
C94 C93 1.404 . S
C94 C98 1.389 . S
C94 H116 0.930 . S
C95 C93 1.352 1_565 S
C95 C97 1.374 . S
C95 H117 0.931 . S
C96 C97 1.359 1_545 S
C96 C98 1.364 . S
C97 C95 1.374 . S
C97 C96 1.359 1_565 S
C97 H118 0.931 . S
C98 C94 1.389 . S
C98 C96 1.364 . S
C98 H119 0.931 . S
C99 O110 1.256 1_554 S
C99 O111 1.257 . S
O100 Gd80 2.377 1_545 S
O100 C82 1.240 . S
O101 Gd81 2.395 1_554 S
O101 C82 1.240 . S
O102 Gd80 2.448 . S
O102 C83 1.249 . S
O103 Gd80 2.506 1_545 S
O103 C83 1.252 1_545 S
O104 Gd80 2.435 . S
O104 C90 1.256 1_554 S
O105 Gd80 2.717 1_556 S
O105 Gd81 2.327 1_565 S
O105 C90 1.257 . S
O106 Gd81 2.377 1_565 S
O106 C91 1.240 . S
O107 Gd80 2.395 1_556 S
O107 C91 1.240 . S
O108 Gd81 2.448 . S
O108 C92 1.249 . S
O109 Gd81 2.506 1_565 S
O109 C92 1.252 1_565 S
O110 Gd81 2.435 . S
O110 C99 1.256 1_556 S
O111 Gd80 2.327 1_545 S
O111 Gd81 2.717 1_554 S
O111 C99 1.257 . S
H112 C85 0.930 . S
H113 C86 0.931 . S
H114 C88 0.931 . S
H115 C89 0.931 . S
H116 C94 0.930 . S
H117 C95 0.931 . S
H118 C97 0.931 . S
H119 C98 0.931 . S
Gd120 C123 2.818 . S
Gd120 O140 2.377 . S
Gd120 O142 2.448 . S
Gd120 O143 2.506 . S
Gd120 O144 2.435 . S
Gd120 O145 2.717 . S
Gd120 O147 2.395 . S
Gd120 O151 2.327 . S
Gd121 C132 2.818 . S
Gd121 O141 2.395 . S
Gd121 O145 2.327 . S
Gd121 O146 2.377 . S
Gd121 O148 2.448 . S
Gd121 O149 2.506 . S
Gd121 O150 2.435 . S
Gd121 O151 2.717 . S
C122 O140 1.240 . S
C122 O141 1.240 . S
C123 Gd120 2.818 . S
C123 C124 1.510 . S
C123 O142 1.249 . S
C123 O143 1.252 . S
C124 C123 1.510 . S
C124 C125 1.404 . S
C124 C126 1.352 . S
C125 C124 1.404 . S
C125 C129 1.389 . S
C125 H152 0.930 . S
C126 C124 1.352 . S
C126 C128 1.374 . S
C126 H153 0.931 . S
C127 C128 1.359 . S
C127 C129 1.364 . S
C128 C126 1.374 . S
C128 C127 1.359 . S
C128 H154 0.931 . S
C129 C125 1.389 . S
C129 C127 1.364 . S
C129 H155 0.931 . S
C130 O144 1.256 . S
C130 O145 1.257 . S
C131 O146 1.240 . S
C131 O147 1.240 . S
C132 Gd121 2.818 . S
C132 C133 1.510 1_554 S
C132 O148 1.249 . S
C132 O149 1.252 . S
C133 C132 1.510 1_556 S
C133 C134 1.404 . S
C133 C135 1.352 . S
C134 C133 1.404 . S
C134 C138 1.389 . S
C134 H156 0.930 . S
C135 C133 1.352 . S
C135 C137 1.374 . S
C135 H157 0.931 . S
C136 C137 1.359 . S
C136 C138 1.364 . S
C137 C135 1.374 . S
C137 C136 1.359 . S
C137 H158 0.931 . S
C138 C134 1.389 . S
C138 C136 1.364 . S
C138 H159 0.931 . S
C139 O150 1.256 . S
C139 O151 1.257 . S
O140 Gd120 2.377 . S
O140 C122 1.240 . S
O141 Gd121 2.395 . S
O141 C122 1.240 . S
O142 Gd120 2.448 . S
O142 C123 1.249 . S
O143 Gd120 2.506 . S
O143 C123 1.252 . S
O144 Gd120 2.435 . S
O144 C130 1.256 . S
O145 Gd120 2.717 . S
O145 Gd121 2.327 . S
O145 C130 1.257 . S
O146 Gd121 2.377 . S
O146 C131 1.240 . S
O147 Gd120 2.395 . S
O147 C131 1.240 . S
O148 Gd121 2.448 . S
O148 C132 1.249 . S
O149 Gd121 2.506 . S
O149 C132 1.252 . S
O150 Gd121 2.435 . S
O150 C139 1.256 . S
O151 Gd120 2.327 . S
O151 Gd121 2.717 . S
O151 C139 1.257 . S
H152 C125 0.930 . S
H153 C126 0.931 . S
H154 C128 0.931 . S
H155 C129 0.931 . S
H156 C134 0.930 . S
H157 C135 0.931 . S
H158 C137 0.931 . S
H159 C138 0.931 . S
Gd160 C163 2.818 . S
Gd160 O180 2.377 . S
Gd160 O182 2.448 . S
Gd160 O183 2.506 . S
Gd160 O184 2.435 . S
Gd160 O185 2.717 . S
Gd160 O187 2.395 . S
Gd160 O191 2.327 . S
Gd161 C172 2.818 . S
Gd161 O181 2.395 . S
Gd161 O185 2.327 . S
Gd161 O186 2.377 . S
Gd161 O188 2.448 . S
Gd161 O189 2.506 . S
Gd161 O190 2.435 . S
Gd161 O191 2.717 . S
C162 O180 1.240 . S
C162 O181 1.240 . S
C163 Gd160 2.818 . S
C163 C164 1.510 . S
C163 O182 1.249 . S
C163 O183 1.252 . S
C164 C163 1.510 . S
C164 C165 1.404 1_554 S
C164 C166 1.352 1_554 S
C165 C164 1.404 1_556 S
C165 C169 1.389 . S
C165 H192 0.930 1_556 S
C166 C164 1.352 1_556 S
C166 C168 1.374 . S
C166 H193 0.931 . S
C167 C168 1.359 . S
C167 C169 1.364 . S
C168 C166 1.374 . S
C168 C167 1.359 . S
C168 H194 0.931 . S
C169 C165 1.389 . S
C169 C167 1.364 . S
C169 H195 0.931 . S
C170 O184 1.256 . S
C170 O185 1.257 . S
C171 O186 1.240 . S
C171 O187 1.240 . S
C172 Gd161 2.818 . S
C172 C173 1.510 . S
C172 O188 1.249 . S
C172 O189 1.252 . S
C173 C172 1.510 . S
C173 C174 1.404 . S
C173 C175 1.352 . S
C174 C173 1.404 . S
C174 C178 1.389 . S
C174 H196 0.930 . S
C175 C173 1.352 . S
C175 C177 1.374 . S
C175 H197 0.931 . S
C176 C177 1.359 . S
C176 C178 1.364 . S
C177 C175 1.374 . S
C177 C176 1.359 . S
C177 H198 0.931 . S
C178 C174 1.389 . S
C178 C176 1.364 . S
C178 H199 0.931 . S
C179 O190 1.256 . S
C179 O191 1.257 . S
O180 Gd160 2.377 . S
O180 C162 1.240 . S
O181 Gd161 2.395 . S
O181 C162 1.240 . S
O182 Gd160 2.448 . S
O182 C163 1.249 . S
O183 Gd160 2.506 . S
O183 C163 1.252 . S
O184 Gd160 2.435 . S
O184 C170 1.256 . S
O185 Gd160 2.717 . S
O185 Gd161 2.327 . S
O185 C170 1.257 . S
O186 Gd161 2.377 . S
O186 C171 1.240 . S
O187 Gd160 2.395 . S
O187 C171 1.240 . S
O188 Gd161 2.448 . S
O188 C172 1.249 . S
O189 Gd161 2.506 . S
O189 C172 1.252 . S
O190 Gd161 2.435 . S
O190 C179 1.256 . S
O191 Gd160 2.327 . S
O191 Gd161 2.717 . S
O191 C179 1.257 . S
H192 C165 0.930 1_554 S
H193 C166 0.931 . S
H194 C168 0.931 . S
H195 C169 0.931 . S
H196 C174 0.930 . S
H197 C175 0.931 . S
H198 C177 0.931 . S
H199 C178 0.931 . S
Gd200 C203 2.818 . S
Gd200 O220 2.377 . S
Gd200 O222 2.448 . S
Gd200 O223 2.506 . S
Gd200 O224 2.435 . S
Gd200 O225 2.717 . S
Gd200 O227 2.395 . S
Gd200 O231 2.327 . S
Gd201 C212 2.818 . S
Gd201 O221 2.395 . S
Gd201 O225 2.327 . S
Gd201 O226 2.377 . S
Gd201 O228 2.448 . S
Gd201 O229 2.506 . S
Gd201 O230 2.435 . S
Gd201 O231 2.717 . S
C202 O220 1.240 . S
C202 O221 1.240 . S
C203 Gd200 2.818 . S
C203 C204 1.510 1_556 S
C203 O222 1.249 . S
C203 O223 1.252 . S
C204 C203 1.510 1_554 S
C204 C205 1.404 . S
C204 C206 1.352 . S
C205 C204 1.404 . S
C205 C209 1.389 . S
C205 H232 0.930 . S
C206 C204 1.352 . S
C206 C208 1.374 . S
C206 H233 0.931 . S
C207 C208 1.359 . S
C207 C209 1.364 . S
C208 C206 1.374 . S
C208 C207 1.359 . S
C208 H234 0.931 . S
C209 C205 1.389 . S
C209 C207 1.364 . S
C209 H235 0.931 . S
C210 O224 1.256 . S
C210 O225 1.257 . S
C211 O226 1.240 . S
C211 O227 1.240 . S
C212 Gd201 2.818 . S
C212 C213 1.510 . S
C212 O228 1.249 . S
C212 O229 1.252 . S
C213 C212 1.510 . S
C213 C214 1.404 . S
C213 C215 1.352 . S
C214 C213 1.404 . S
C214 C218 1.389 . S
C214 H236 0.930 . S
C215 C213 1.352 . S
C215 C217 1.374 . S
C215 H237 0.931 . S
C216 C217 1.359 . S
C216 C218 1.364 . S
C217 C215 1.374 . S
C217 C216 1.359 . S
C217 H238 0.931 . S
C218 C214 1.389 . S
C218 C216 1.364 . S
C218 H239 0.931 . S
C219 O230 1.256 . S
C219 O231 1.257 . S
O220 Gd200 2.377 . S
O220 C202 1.240 . S
O221 Gd201 2.395 . S
O221 C202 1.240 . S
O222 Gd200 2.448 . S
O222 C203 1.249 . S
O223 Gd200 2.506 . S
O223 C203 1.252 . S
O224 Gd200 2.435 . S
O224 C210 1.256 . S
O225 Gd200 2.717 . S
O225 Gd201 2.327 . S
O225 C210 1.257 . S
O226 Gd201 2.377 . S
O226 C211 1.240 . S
O227 Gd200 2.395 . S
O227 C211 1.240 . S
O228 Gd201 2.448 . S
O228 C212 1.249 . S
O229 Gd201 2.506 . S
O229 C212 1.252 . S
O230 Gd201 2.435 . S
O230 C219 1.256 . S
O231 Gd200 2.327 . S
O231 Gd201 2.717 . S
O231 C219 1.257 . S
H232 C205 0.930 . S
H233 C206 0.931 . S
H234 C208 0.931 . S
H235 C209 0.931 . S
H236 C214 0.930 . S
H237 C215 0.931 . S
H238 C217 0.931 . S
H239 C218 0.931 . S
Gd240 C243 2.818 . S
Gd240 O260 2.377 . S
Gd240 O262 2.448 . S
Gd240 O263 2.506 . S
Gd240 O264 2.435 . S
Gd240 O265 2.717 1_556 S
Gd240 O267 2.395 . S
Gd240 O271 2.327 . S
Gd241 C252 2.818 . S
Gd241 O261 2.395 . S
Gd241 O265 2.327 . S
Gd241 O266 2.377 . S
Gd241 O268 2.448 . S
Gd241 O269 2.506 . S
Gd241 O270 2.435 . S
Gd241 O271 2.717 1_554 S
C242 O260 1.240 . S
C242 O261 1.240 1_556 S
C243 Gd240 2.818 . S
C243 C244 1.510 . S
C243 O262 1.249 . S
C243 O263 1.252 . S
C244 C243 1.510 . S
C244 C245 1.404 . S
C244 C246 1.352 . S
C245 C244 1.404 . S
C245 C249 1.389 . S
C245 H272 0.930 . S
C246 C244 1.352 . S
C246 C248 1.374 . S
C246 H273 0.931 . S
C247 C248 1.359 . S
C247 C249 1.364 . S
C248 C246 1.374 . S
C248 C247 1.359 . S
C248 H274 0.931 . S
C249 C245 1.389 . S
C249 C247 1.364 . S
C249 H275 0.931 . S
C250 O264 1.256 1_554 S
C250 O265 1.257 . S
C251 O266 1.240 . S
C251 O267 1.240 1_554 S
C252 Gd241 2.818 . S
C252 C253 1.510 . S
C252 O268 1.249 . S
C252 O269 1.252 . S
C253 C252 1.510 . S
C253 C254 1.404 . S
C253 C255 1.352 . S
C254 C253 1.404 . S
C254 C258 1.389 . S
C254 H276 0.930 . S
C255 C253 1.352 . S
C255 C257 1.374 . S
C255 H277 0.931 . S
C256 C257 1.359 . S
C256 C258 1.364 . S
C257 C255 1.374 . S
C257 C256 1.359 . S
C257 H278 0.931 . S
C258 C254 1.389 . S
C258 C256 1.364 . S
C258 H279 0.931 . S
C259 O270 1.256 1_556 S
C259 O271 1.257 . S
O260 Gd240 2.377 . S
O260 C242 1.240 . S
O261 Gd241 2.395 . S
O261 C242 1.240 1_554 S
O262 Gd240 2.448 . S
O262 C243 1.249 . S
O263 Gd240 2.506 . S
O263 C243 1.252 . S
O264 Gd240 2.435 . S
O264 C250 1.256 1_556 S
O265 Gd240 2.717 1_554 S
O265 Gd241 2.327 . S
O265 C250 1.257 . S
O266 Gd241 2.377 . S
O266 C251 1.240 . S
O267 Gd240 2.395 . S
O267 C251 1.240 1_556 S
O268 Gd241 2.448 . S
O268 C252 1.249 . S
O269 Gd241 2.506 . S
O269 C252 1.252 . S
O270 Gd241 2.435 . S
O270 C259 1.256 1_554 S
O271 Gd240 2.327 . S
O271 Gd241 2.717 1_556 S
O271 C259 1.257 . S
H272 C245 0.930 . S
H273 C246 0.931 . S
H274 C248 0.931 . S
H275 C249 0.931 . S
H276 C254 0.930 . S
H277 C255 0.931 . S
H278 C257 0.931 . S
H279 C258 0.931 . S
Gd280 C283 2.818 1_455 S
Gd280 O300 2.377 1_455 S
Gd280 O302 2.448 1_455 S
Gd280 O303 2.506 . S
Gd280 O304 2.435 1_455 S
Gd280 O305 2.717 1_455 S
Gd280 O307 2.395 . S
Gd280 O311 2.327 . S
Gd281 C292 2.818 1_655 S
Gd281 O301 2.395 . S
Gd281 O305 2.327 . S
Gd281 O306 2.377 1_655 S
Gd281 O308 2.448 1_655 S
Gd281 O309 2.506 . S
Gd281 O310 2.435 1_655 S
Gd281 O311 2.717 1_655 S
C282 O300 1.240 . S
C282 O301 1.240 . S
C283 Gd280 2.818 1_655 S
C283 C284 1.510 . S
C283 O302 1.249 . S
C283 O303 1.252 1_655 S
C284 C283 1.510 . S
C284 C285 1.404 . S
C284 C286 1.356 . S
C285 C284 1.404 . S
C285 C289 1.389 . S
C285 H312 0.930 . S
C286 C284 1.356 . S
C286 C288 1.381 . S
C286 H313 0.920 1_655 S
C287 C288 1.359 . S
C287 C289 1.364 . S
C288 C286 1.381 . S
C288 C287 1.359 . S
C288 H314 0.929 1_655 S
C289 C285 1.389 . S
C289 C287 1.364 . S
C289 H315 0.931 . S
C290 O304 1.256 . S
C290 O305 1.257 . S
C291 O306 1.240 . S
C291 O307 1.240 . S
C292 Gd281 2.818 1_455 S
C292 C293 1.510 . S
C292 O308 1.249 . S
C292 O309 1.252 1_455 S
C293 C292 1.510 . S
C293 C294 1.404 . S
C293 C295 1.352 . S
C294 C293 1.404 . S
C294 C298 1.389 . S
C294 H316 0.930 . S
C295 C293 1.352 . S
C295 C297 1.374 . S
C295 H317 0.931 1_455 S
C296 C297 1.359 . S
C296 C298 1.364 . S
C297 C295 1.374 . S
C297 C296 1.359 . S
C297 H318 0.930 1_455 S
C298 C294 1.389 . S
C298 C296 1.364 . S
C298 H319 0.931 . S
C299 O310 1.256 . S
C299 O311 1.257 . S
O300 Gd280 2.377 1_655 S
O300 C282 1.240 . S
O301 Gd281 2.395 . S
O301 C282 1.240 . S
O302 Gd280 2.448 1_655 S
O302 C283 1.249 . S
O303 Gd280 2.506 . S
O303 C283 1.252 1_455 S
O304 Gd280 2.435 1_655 S
O304 C290 1.256 . S
O305 Gd280 2.717 1_655 S
O305 Gd281 2.327 . S
O305 C290 1.257 . S
O306 Gd281 2.377 1_455 S
O306 C291 1.240 . S
O307 Gd280 2.395 . S
O307 C291 1.240 . S
O308 Gd281 2.448 1_455 S
O308 C292 1.249 . S
O309 Gd281 2.506 . S
O309 C292 1.252 1_655 S
O310 Gd281 2.435 1_455 S
O310 C299 1.256 . S
O311 Gd280 2.327 . S
O311 Gd281 2.717 1_455 S
O311 C299 1.257 . S
H312 C285 0.930 . S
H313 C286 0.920 1_455 S
H314 C288 0.929 1_455 S
H315 C289 0.931 . S
H316 C294 0.930 . S
H317 C295 0.931 1_655 S
H318 C297 0.930 1_655 S
H319 C298 0.931 . S
C320 C321 1.170 . S
C320 C322 1.380 . S
C321 C320 1.170 . S
C322 C320 1.380 . S
C322 C323 1.170 . S
C323 C322 1.170 . S
C324 C325 1.170 . S
C324 C326 1.380 . S
C325 C324 1.170 . S
C326 C324 1.380 . S
C326 C327 1.170 . S
C327 C326 1.170 . S
C328 C329 1.170 . S
C328 C330 1.380 . S
C329 C328 1.170 . S
C330 C328 1.380 . S
C330 C331 1.170 . S
C331 C330 1.170 . S
C332 C333 1.170 . S
C332 C334 1.380 . S
C333 C332 1.170 . S
C334 C332 1.380 . S
C334 C335 1.170 . S
C335 C334 1.170 . S
C336 C337 1.170 . S
C336 C338 1.380 . S
C337 C336 1.170 . S
C338 C336 1.380 . S
C338 C339 1.170 . S
C339 C338 1.170 . S
C340 C341 1.170 . S
C340 C342 1.380 . S
C341 C340 1.170 . S
C342 C340 1.380 . S
C342 C343 1.170 . S
C343 C342 1.170 . S
C344 C345 1.170 . S
C344 C346 1.380 . S
C345 C344 1.170 . S
C346 C344 1.380 . S
C346 C347 1.170 . S
C347 C346 1.170 . S
C348 C349 1.170 . S
C348 C350 1.380 . S
C349 C348 1.170 . S
C350 C348 1.380 . S
C350 C351 1.170 . S
C351 C350 1.170 . S
C352 C353 1.170 . S
C352 C354 1.380 . S
C353 C352 1.170 . S
C354 C352 1.380 . S
C354 C355 1.170 . S
C355 C354 1.170 . S
C356 C357 1.170 . S
C356 C358 1.380 . S
C357 C356 1.170 . S
C358 C356 1.380 . S
C358 C359 1.170 . S
C359 C358 1.170 . S
C360 C361 1.170 . S
C360 C362 1.380 . S
C361 C360 1.170 . S
C362 C360 1.380 . S
C362 C363 1.170 . S
C363 C362 1.170 . S
C364 C365 1.170 . S
C364 C366 1.380 . S
C365 C364 1.170 . S
C366 C364 1.380 . S
C366 C367 1.170 . S
C367 C366 1.170 . S
C368 C369 1.170 . S
C368 C370 1.380 . S
C369 C368 1.170 . S
C370 C368 1.380 . S
C370 C371 1.170 . S
C371 C370 1.170 . S
C372 C373 1.170 . S
C372 C374 1.380 . S
C373 C372 1.170 . S
C374 C372 1.380 . S
C374 C375 1.170 . S
C375 C374 1.170 . S
C376 C377 1.170 . S
C376 C378 1.380 . S
C377 C376 1.170 . S
C378 C376 1.380 . S
C378 C379 1.170 . S
C379 C378 1.170 . S
C380 C381 1.170 . S
C380 C382 1.380 . S
C381 C380 1.170 . S
C382 C380 1.380 . S
C382 C383 1.170 . S
C383 C382 1.170 . S
C384 C385 1.170 . S
C384 C386 1.380 1_646 S
C385 C384 1.170 . S
C386 C384 1.380 1_464 S
C386 C387 1.170 . S
C387 C386 1.170 . S
C388 C389 1.170 . S
C388 C390 1.380 . S
C389 C388 1.170 . S
C390 C388 1.380 . S
C390 C391 1.170 . S
C391 C390 1.170 . S
C392 C393 1.170 . S
C392 C394 1.380 . S
C393 C392 1.170 . S
C394 C392 1.380 . S
C394 C395 1.170 1_545 S
C395 C394 1.170 1_565 S
C396 C397 1.170 . S
C396 C398 1.380 . S
C397 C396 1.170 . S
C398 C396 1.380 . S
C398 C399 1.170 . S
C399 C398 1.170 . S
C400 C401 1.170 . S
C400 C402 1.380 . S
C401 C400 1.170 . S
C402 C400 1.380 . S
C402 C403 1.170 . S
C403 C402 1.170 . S
C404 C405 1.170 . S
C404 C406 1.380 . S
C405 C404 1.170 . S
C406 C404 1.380 . S
C406 C407 1.170 . S
C407 C406 1.170 . S
C408 C409 1.170 . S
C408 C410 1.380 . S
C409 C408 1.170 . S
C410 C408 1.380 . S
C410 C411 1.170 . S
C411 C410 1.170 . S
C412 C413 1.170 . S
C412 C414 1.380 1_656 S
C413 C412 1.170 . S
C414 C412 1.380 1_454 S
C414 C415 1.170 . S
C415 C414 1.170 . S
C321 C2 1.944 . S
C323 C122 1.943 . S
C325 C10 1.520 . S
C327 C42 1.550 . S
C329 C50 1.041 . S
C331 C90 1.033 . S
C333 C82 1.547 . S
C335 C130 1.519 . S
C337 C11 1.946 . S
C339 C211 1.949 . S
C341 C19 1.525 . S
C343 C171 1.550 . S
C345 C179 1.028 . S
C347 C99 1.034 . S
C349 C219 1.535 . S
C351 C91 1.549 . S
C353 C242 1.945 . S
C355 C202 1.945 . S
C357 C162 1.546 . S
C359 C250 1.538 . S
C361 C290 1.026 . S
C363 C170 1.027 . S
C365 C210 1.542 . S
C367 C282 1.544 . S
C369 C131 1.948 . S
C371 C251 1.947 . S
C373 C259 1.530 . S
C375 C51 1.545 . S
C377 C59 1.054 . S
C379 C299 1.034 . S
C381 C139 1.541 . S
C383 C291 1.539 . S
C385 C16 1.750 . S
C387 C7 1.729 . S
C389 C47 1.441 . S
C391 C56 1.465 . S
C393 C96 1.466 . S
C395 C87 1.462 . S
C397 C136 1.753 . S
C399 C127 1.711 . S
C401 C167 1.479 . S
C403 C176 1.438 . S
C405 C216 1.735 . S
C407 C207 1.746 . S
C409 C247 1.733 . S
C411 C256 1.721 . S
C413 C287 1.479 . S
C415 C296 1.442 . S
