# Generated by pormake.
# Topology una, (4)-cn, num edge types: 1
# Building blocks:
#     Node 0, Type 0, BuildingBlock: UXUYUI_clean_sbu_0, # of connection points: 4
#     Node 1, Type 0, BuildingBlock: UXUYUI_clean_sbu_0, # of connection points: 4
#     Node 2, Type 0, BuildingBlock: UXUYUI_clean_sbu_0, # of connection points: 4
#     Node 3, Type 0, BuildingBlock: UXUYUI_clean_sbu_0, # of connection points: 4
#     Node 4, Type 0, BuildingBlock: UXUYUI_clean_sbu_0, # of connection points: 4
#     Node 5, Type 0, BuildingBlock: UXUYUI_clean_sbu_0, # of connection points: 4
#     Node 6, Type 0, BuildingBlock: UXUYUI_clean_sbu_0, # of connection points: 4
#     Node 7, Type 0, BuildingBlock: UXUYUI_clean_sbu_0, # of connection points: 4
#     Node 8, Type 0, BuildingBlock: UXUYUI_clean_sbu_0, # of connection points: 4
#     Node 9, Type 0, BuildingBlock: UXUYUI_clean_sbu_0, # of connection points: 4
#     Node 10, Type 0, BuildingBlock: UXUYUI_clean_sbu_0, # of connection points: 4
#     Node 11, Type 0, BuildingBlock: UXUYUI_clean_sbu_0, # of connection points: 4
#     Edge 12, Type (0, 0), BuildingBlock: XUDNAN_clean_linker_2, # of connection points: 2
#     Edge 13, Type (0, 0), BuildingBlock: XUDNAN_clean_linker_2, # of connection points: 2
#     Edge 14, Type (0, 0), BuildingBlock: XUDNAN_clean_linker_2, # of connection points: 2
#     Edge 15, Type (0, 0), BuildingBlock: XUDNAN_clean_linker_2, # of connection points: 2
#     Edge 16, Type (0, 0), BuildingBlock: XUDNAN_clean_linker_2, # of connection points: 2
#     Edge 17, Type (0, 0), BuildingBlock: XUDNAN_clean_linker_2, # of connection points: 2
#     Edge 18, Type (0, 0), BuildingBlock: XUDNAN_clean_linker_2, # of connection points: 2
#     Edge 19, Type (0, 0), BuildingBlock: XUDNAN_clean_linker_2, # of connection points: 2
#     Edge 20, Type (0, 0), BuildingBlock: XUDNAN_clean_linker_2, # of connection points: 2
#     Edge 21, Type (0, 0), BuildingBlock: XUDNAN_clean_linker_2, # of connection points: 2
#     Edge 22, Type (0, 0), BuildingBlock: XUDNAN_clean_linker_2, # of connection points: 2
#     Edge 23, Type (0, 0), BuildingBlock: XUDNAN_clean_linker_2, # of connection points: 2
#     Edge 24, Type (0, 0), BuildingBlock: XUDNAN_clean_linker_2, # of connection points: 2
#     Edge 25, Type (0, 0), BuildingBlock: XUDNAN_clean_linker_2, # of connection points: 2
#     Edge 26, Type (0, 0), BuildingBlock: XUDNAN_clean_linker_2, # of connection points: 2
#     Edge 27, Type (0, 0), BuildingBlock: XUDNAN_clean_linker_2, # of connection points: 2
#     Edge 28, Type (0, 0), BuildingBlock: XUDNAN_clean_linker_2, # of connection points: 2
#     Edge 29, Type (0, 0), BuildingBlock: XUDNAN_clean_linker_2, # of connection points: 2
#     Edge 30, Type (0, 0), BuildingBlock: XUDNAN_clean_linker_2, # of connection points: 2
#     Edge 31, Type (0, 0), BuildingBlock: XUDNAN_clean_linker_2, # of connection points: 2
#     Edge 32, Type (0, 0), BuildingBlock: XUDNAN_clean_linker_2, # of connection points: 2
#     Edge 33, Type (0, 0), BuildingBlock: XUDNAN_clean_linker_2, # of connection points: 2
#     Edge 34, Type (0, 0), BuildingBlock: XUDNAN_clean_linker_2, # of connection points: 2
#     Edge 35, Type (0, 0), BuildingBlock: XUDNAN_clean_linker_2, # of connection points: 2
# Relax obj value: 0.208
# Max RMSD: 0.213
# Mean RMSD: 0.213
data_MOF--net-una--node1-UXUYUI_clean_sbu_0--edge1-XUDNAN_clean_linker_2
_symmetry_space_group_name_H-M    P1
_symmetry_Int_Tables_number       1
_symmetry_cell_setting            triclinic
loop_
_symmetry_equiv_pos_as_xyz
'x, y, z'
_cell_length_a     82.889933
_cell_length_b     82.864374
_cell_length_c     32.224867
_cell_angle_alpha  90.015696
_cell_angle_beta   89.965686
_cell_angle_gamma 119.98756
loop_
_atom_site_label
_atom_site_type_symbol
_atom_site_fract_x
_atom_site_fract_y
_atom_site_fract_z
_atom_type_partial_charge
Li0 Li 0.13185 0.45687 0.04707 0.0
Li1 Li 0.13451 0.43073 0.07532 0.0
Li2 Li 0.14402 0.44021 0.00583 0.0
Li3 Li 0.11108 0.42322 0.02221 0.0
C4 C 0.17117 0.45804 0.07063 0.0
N5 N 0.20359 0.46174 0.10378 0.0
C6 C 0.17695 0.44533 0.06014 0.0
C7 C 0.18189 0.47263 0.09793 0.0
C8 C 0.19338 0.44745 0.07722 0.0
C9 C 0.19824 0.47427 0.11436 0.0
C10 C 0.10451 0.43183 0.11592 0.0
C11 C 0.08061 0.41231 0.16486 0.0
N12 N 0.08779 0.4265 0.19282 0.0
C13 C 0.11141 0.44632 0.14485 0.0
C14 C 0.08878 0.41477 0.12572 0.0
C15 C 0.10287 0.44332 0.18367 0.0
C16 C 0.12228 0.48381 0.0285 0.0
N17 N 0.13254 0.47987 0.05514 0.0
C18 C 0.14395 0.50929 0.08889 0.0
C19 C 0.14321 0.49211 0.08512 0.0
C20 C 0.13382 0.5139 0.06111 0.0
C21 C 0.1228 0.50087 0.03078 0.0
H22 H 0.11387 0.47376 0.00506 0.0
H23 H 0.15125 0.4886 0.10584 0.0
C24 C 0.14777 0.41088 0.12493 0.0
N25 N 0.14281 0.42427 0.12503 0.0
C26 C 0.15883 0.41015 0.15683 0.0
C27 C 0.15899 0.43657 0.18891 0.0
C28 C 0.14784 0.4367 0.1567 0.0
C29 C 0.16516 0.4236 0.18841 0.0
H30 H 0.14455 0.40176 0.09851 0.0
H31 H 0.14469 0.44784 0.15505 0.0
C32 C 0.1303 0.45351 0.95101 0.0
N33 N 0.14277 0.46705 0.87213 0.0
C34 C 0.12289 0.44178 0.91664 0.0
C35 C 0.14398 0.47214 0.94531 0.0
C36 C 0.1294 0.44889 0.87699 0.0
C37 C 0.15012 0.47872 0.90517 0.0
C38 C 0.11969 0.39547 0.03326 0.0
C39 C 0.12089 0.38316 0.00548 0.0
C40 C 0.10835 0.38849 0.06831 0.0
C41 C 0.11069 0.36402 0.0133 0.0
C42 C 0.09838 0.36928 0.07509 0.0
N43 N 0.09973 0.35754 0.04765 0.0
C44 C 0.17761 0.46085 0.96111 0.0
C45 C 0.1569 0.43093 0.9337 0.0
C46 C 0.19013 0.46447 0.92869 0.0
N47 N 0.1614 0.44431 0.96296 0.0
C48 C 0.16896 0.434 0.90056 0.0
C49 C 0.18584 0.45098 0.89769 0.0
H50 H 0.1807 0.47133 0.98459 0.0
H51 H 0.14375 0.41805 0.93567 0.0
C52 C 0.07339 0.41098 0.0131 0.0
N53 N 0.08699 0.40753 0.00034 0.0
C54 C 0.05643 0.4031 0.99209 0.0
C55 C 0.06744 0.38751 0.94638 0.0
C56 C 0.08424 0.3957 0.96839 0.0
C57 C 0.05355 0.39174 0.9573 0.0
H58 H 0.07612 0.42072 0.03813 0.0
H59 H 0.09549 0.39358 0.95831 0.0
O60 O 0.15465 0.45569 0.05587 0.0
O61 O 0.1125 0.43464 0.07746 0.0
O62 O 0.12457 0.44667 0.99015 0.0
O63 O 0.12928 0.41421 0.02545 0.0
H64 H 0.16865 0.43375 0.03965 0.0
H65 H 0.17753 0.48248 0.10669 0.0
H66 H 0.19794 0.43765 0.06959 0.0
H67 H 0.20663 0.48544 0.1357 0.0
H68 H 0.06851 0.39914 0.17293 0.0
H69 H 0.12332 0.45973 0.13751 0.0
H70 H 0.08283 0.40357 0.10325 0.0
H71 H 0.1082 0.45437 0.20649 0.0
H72 H 0.1527 0.51903 0.11253 0.0
H73 H 0.11462 0.50383 0.00911 0.0
H74 H 0.16362 0.40017 0.15495 0.0
H75 H 0.16368 0.44724 0.21263 0.0
H76 H 0.11238 0.4273 0.92056 0.0
H77 H 0.14999 0.48135 0.97167 0.0
H78 H 0.12386 0.43995 0.85011 0.0
H79 H 0.16078 0.49307 0.90029 0.0
H80 H 0.12956 0.38833 0.97808 0.0
H81 H 0.1075 0.39784 0.09033 0.0
H82 H 0.11146 0.35433 0.99202 0.0
H83 H 0.0896 0.36371 0.10222 0.0
H84 H 0.20305 0.47765 0.92807 0.0
H85 H 0.1649 0.42333 0.87703 0.0
H86 H 0.046 0.40653 0.00183 0.0
H87 H 0.06586 0.37899 0.91951 0.0
Li88 Li 0.67728 0.13181 0.20901 0.0
Li89 Li 0.70712 0.13722 0.22955 0.0
Li90 Li 0.70344 0.14574 0.16079 0.0
Li91 Li 0.68963 0.11273 0.18057 0.0
C92 C 0.69791 0.17079 0.20479 0.0
N93 N 0.69241 0.20036 0.1876 0.0
C94 C 0.70819 0.18768 0.2258 0.0
C95 C 0.68484 0.16894 0.17495 0.0
C96 C 0.7052 0.20246 0.21669 0.0
C97 C 0.68226 0.18405 0.16674 0.0
C98 C 0.6771 0.11286 0.27966 0.0
C99 C 0.66099 0.09463 0.3399 0.0
N100 N 0.66551 0.11057 0.36095 0.0
C101 C 0.68159 0.12906 0.30189 0.0
C102 C 0.66672 0.0955 0.29878 0.0
C103 C 0.67561 0.12761 0.34295 0.0
C104 C 0.63846 0.11903 0.20976 0.0
N105 N 0.65519 0.13192 0.22579 0.0
C106 C 0.64115 0.14734 0.26031 0.0
C107 C 0.65668 0.14561 0.25157 0.0
C108 C 0.62385 0.13464 0.24308 0.0
C109 C 0.62244 0.12005 0.21834 0.0
H110 H 0.63767 0.10826 0.18946 0.0
H111 H 0.67006 0.15557 0.2644 0.0
C112 C 0.7388 0.16425 0.26893 0.0
N113 N 0.7251 0.14623 0.27334 0.0
C114 C 0.75257 0.17276 0.29911 0.0
C115 C 0.73805 0.14393 0.33787 0.0
C116 C 0.72459 0.13591 0.30666 0.0
C117 C 0.75221 0.16269 0.33452 0.0
H118 H 0.73898 0.17202 0.24179 0.0
H119 H 0.71366 0.12152 0.30922 0.0
C120 C 0.67442 0.11895 0.11021 0.0
N121 N 0.66783 0.10588 0.02957 0.0
C122 C 0.68871 0.11912 0.08677 0.0
C123 C 0.65679 0.11212 0.09265 0.0
C124 C 0.68509 0.11245 0.04607 0.0
C125 C 0.65373 0.1056 0.05181 0.0
C126 C 0.73055 0.13009 0.19283 0.0
C127 C 0.74907 0.14349 0.18482 0.0
C128 C 0.7266 0.11498 0.21864 0.0
C129 C 0.76335 0.14164 0.20304 0.0
C130 C 0.74127 0.11361 0.23623 0.0
N131 N 0.75919 0.12687 0.22817 0.0
C132 C 0.73345 0.17574 0.12088 0.0
C133 C 0.70465 0.16498 0.08621 0.0
C134 C 0.74272 0.18924 0.09039 0.0
N135 N 0.71484 0.16375 0.11786 0.0
C136 C 0.71333 0.1783 0.05511 0.0
C137 C 0.73265 0.19054 0.05677 0.0
H138 H 0.74105 0.1749 0.1472 0.0
H139 H 0.68978 0.15566 0.08505 0.0
C140 C 0.66468 0.07645 0.15141 0.0
N141 N 0.68302 0.08914 0.15667 0.0
C142 C 0.65932 0.06067 0.12679 0.0
C143 C 0.69183 0.07094 0.11496 0.0
C144 C 0.69654 0.0866 0.13935 0.0
C145 C 0.673 0.05792 0.10745 0.0
H146 H 0.65421 0.07911 0.16454 0.0
H147 H 0.711 0.09714 0.14275 0.0
O148 O 0.70083 0.15627 0.21337 0.0
O149 O 0.68269 0.11382 0.23932 0.0
O150 O 0.67745 0.12492 0.15054 0.0
O151 O 0.7163 0.13187 0.17636 0.0
H152 H 0.71837 0.18933 0.24894 0.0
H153 H 0.67671 0.15599 0.1584 0.0
H154 H 0.71306 0.21562 0.23275 0.0
H155 H 0.67218 0.1828 0.14378 0.0
H156 H 0.65294 0.08128 0.35508 0.0
H157 H 0.68971 0.14263 0.28778 0.0
H158 H 0.66311 0.08283 0.28196 0.0
H159 H 0.67901 0.14004 0.36051 0.0
H160 H 0.64269 0.15867 0.27986 0.0
H161 H 0.60929 0.11004 0.20446 0.0
H162 H 0.76341 0.1871 0.29462 0.0
H163 H 0.73711 0.13565 0.3647 0.0
H164 H 0.70244 0.12427 0.09987 0.0
H165 H 0.64556 0.11183 0.11045 0.0
H166 H 0.69601 0.11246 0.02762 0.0
H167 H 0.64014 0.10027 0.03782 0.0
H168 H 0.75243 0.15522 0.16482 0.0
H169 H 0.71233 0.10456 0.22546 0.0
H170 H 0.77775 0.15194 0.19722 0.0
H171 H 0.7384 0.10206 0.25645 0.0
H172 H 0.75757 0.19866 0.0933 0.0
H173 H 0.70505 0.17881 0.02968 0.0
H174 H 0.64464 0.05122 0.12143 0.0
H175 H 0.70288 0.06933 0.10129 0.0
Li176 Li 0.57316 0.70182 0.42118 0.0
Li177 Li 0.54814 0.67286 0.39195 0.0
Li178 Li 0.58114 0.68946 0.36107 0.0
Li179 Li 0.56117 0.70292 0.35464 0.0
C180 C 0.57614 0.67021 0.4503 0.0
N181 N 0.58405 0.65512 0.51846 0.0
C182 C 0.56206 0.65914 0.47842 0.0
C183 C 0.59415 0.67323 0.45632 0.0
C184 C 0.56637 0.65175 0.51285 0.0
C185 C 0.59789 0.66559 0.49112 0.0
C186 C 0.54429 0.7073 0.43179 0.0
C187 C 0.53247 0.71358 0.49458 0.0
N188 N 0.54011 0.73174 0.48313 0.0
C189 C 0.5521 0.72608 0.42081 0.0
C190 C 0.53444 0.70102 0.46908 0.0
C191 C 0.54978 0.73818 0.44708 0.0
C192 C 0.58933 0.73424 0.47179 0.0
N193 N 0.58074 0.7153 0.47293 0.0
C194 C 0.5743 0.71531 0.54522 0.0
C195 C 0.57381 0.70584 0.50902 0.0
C196 C 0.5816 0.73469 0.54418 0.0
C197 C 0.58993 0.74427 0.50725 0.0
H198 H 0.59421 0.74145 0.44253 0.0
H199 H 0.56647 0.69084 0.50912 0.0
C200 C 0.52383 0.63532 0.37287 0.0
N201 N 0.52656 0.64915 0.39956 0.0
C202 C 0.50757 0.61798 0.37508 0.0
C203 C 0.49746 0.62931 0.43292 0.0
C204 C 0.51386 0.64647 0.42939 0.0
C205 C 0.49405 0.61486 0.4052 0.0
H206 H 0.53417 0.63789 0.34936 0.0
H207 H 0.51633 0.65771 0.45003 0.0
C208 C 0.60643 0.72636 0.37724 0.0
N209 N 0.64447 0.74749 0.38891 0.0
C210 C 0.61721 0.74151 0.35128 0.0
C211 C 0.61498 0.722 0.40918 0.0
C212 C 0.63643 0.75201 0.35765 0.0
C213 C 0.63423 0.73284 0.41461 0.0
C214 C 0.54781 0.67719 0.29666 0.0
C215 C 0.55794 0.683 0.25968 0.0
C216 C 0.52867 0.67074 0.29632 0.0
C217 C 0.54875 0.68237 0.22287 0.0
C218 C 0.52 0.67032 0.25886 0.0
N219 N 0.53013 0.67611 0.22323 0.0
C220 C 0.59963 0.66963 0.33979 0.0
C221 C 0.60839 0.69696 0.30047 0.0
C222 C 0.61087 0.66532 0.3152 0.0
N223 N 0.59854 0.68516 0.33184 0.0
C224 C 0.61978 0.69319 0.27511 0.0
C225 C 0.62097 0.67705 0.28198 0.0
H226 H 0.5914 0.66035 0.36457 0.0
H227 H 0.60691 0.70897 0.29426 0.0
C228 C 0.53812 0.71568 0.31944 0.0
N229 N 0.55482 0.71638 0.31672 0.0
C230 C 0.53372 0.72587 0.29177 0.0
C231 C 0.56349 0.73666 0.25817 0.0
C232 C 0.56741 0.72648 0.28682 0.0
C233 C 0.54653 0.73656 0.26074 0.0
H234 H 0.52828 0.70731 0.34327 0.0
H235 H 0.5805 0.72658 0.28527 0.0
O236 O 0.57208 0.6772 0.4159 0.0
O237 O 0.5469 0.69535 0.40699 0.0
O238 O 0.58763 0.71581 0.37089 0.0
O239 O 0.55664 0.67827 0.33322 0.0
H240 H 0.54801 0.65647 0.47401 0.0
H241 H 0.6051 0.68125 0.43421 0.0
H242 H 0.55564 0.64333 0.53509 0.0
H243 H 0.61178 0.6679 0.49627 0.0
H244 H 0.52499 0.70891 0.52362 0.0
H245 H 0.5603 0.7314 0.39285 0.0
H246 H 0.52867 0.68671 0.47875 0.0
H247 H 0.55584 0.75274 0.43901 0.0
H248 H 0.56794 0.70735 0.57312 0.0
H249 H 0.5955 0.75916 0.50475 0.0
H250 H 0.50558 0.60715 0.35337 0.0
H251 H 0.48731 0.62758 0.45628 0.0
H252 H 0.6108 0.74507 0.32636 0.0
H253 H 0.60682 0.71049 0.42979 0.0
H254 H 0.64496 0.76375 0.33772 0.0
H255 H 0.64101 0.72962 0.43928 0.0
H256 H 0.57278 0.68812 0.2595 0.0
H257 H 0.52067 0.66634 0.32478 0.0
H258 H 0.55643 0.68692 0.19404 0.0
H259 H 0.50522 0.66546 0.25814 0.0
H260 H 0.6115 0.65284 0.32191 0.0
H261 H 0.62703 0.70247 0.24948 0.0
H262 H 0.52043 0.72533 0.29443 0.0
H263 H 0.57377 0.74484 0.23483 0.0
Li264 Li 0.8698 0.54613 0.53783 0.0
Li265 Li 0.86163 0.56894 0.5555 0.0
Li266 Li 0.85549 0.55766 0.48551 0.0
Li267 Li 0.8889 0.57905 0.51193 0.0
C268 C 0.83192 0.53554 0.56828 0.0
N269 N 0.80722 0.52254 0.63415 0.0
C270 C 0.83747 0.53218 0.60672 0.0
C271 C 0.8137 0.53204 0.56324 0.0
C272 C 0.82482 0.52565 0.63965 0.0
C273 C 0.80145 0.52555 0.59694 0.0
C274 C 0.89239 0.57627 0.60747 0.0
C275 C 0.90994 0.60242 0.65299 0.0
N276 N 0.90669 0.59046 0.68497 0.0
C277 C 0.88956 0.56422 0.64057 0.0
C278 C 0.90297 0.59551 0.61349 0.0
C279 C 0.89678 0.57168 0.67959 0.0
C280 C 0.88935 0.52715 0.55201 0.0
N281 N 0.87199 0.52501 0.55124 0.0
C282 C 0.85813 0.49214 0.5608 0.0
C283 C 0.8565 0.50799 0.55559 0.0
C284 C 0.87586 0.49385 0.56066 0.0
C285 C 0.89162 0.51164 0.55651 0.0
H286 H 0.90138 0.54085 0.54777 0.0
H287 H 0.84285 0.50662 0.55368 0.0
C288 C 0.83492 0.57758 0.57925 0.0
N289 N 0.84911 0.576 0.59606 0.0
C290 C 0.82271 0.58009 0.60433 0.0
C291 C 0.83941 0.57886 0.66443 0.0
C292 C 0.85169 0.57682 0.6379 0.0
C293 C 0.82441 0.58016 0.64769 0.0
H294 H 0.83249 0.57594 0.54622 0.0
H295 H 0.86259 0.57492 0.65097 0.0
C296 C 0.8776 0.54041 0.45937 0.0
N297 N 0.87648 0.50995 0.42155 0.0
C298 C 0.89406 0.54127 0.4461 0.0
C299 C 0.86056 0.52408 0.45334 0.0
C300 C 0.8932 0.52572 0.42704 0.0
C301 C 0.86029 0.50882 0.43418 0.0
C302 C 0.86529 0.59872 0.50705 0.0
C303 C 0.8526 0.60018 0.48104 0.0
C304 C 0.87499 0.61245 0.53691 0.0
C305 C 0.84965 0.61528 0.48569 0.0
C306 C 0.87165 0.62732 0.54062 0.0
N307 N 0.85915 0.62842 0.51516 0.0
C308 C 0.82286 0.54937 0.44223 0.0
C309 C 0.8476 0.55236 0.39992 0.0
C310 C 0.81162 0.5461 0.40749 0.0
N311 N 0.84041 0.5523 0.43786 0.0
C312 C 0.8369 0.54928 0.36425 0.0
C313 C 0.81865 0.54616 0.36774 0.0
H314 H 0.81774 0.54999 0.47263 0.0
H315 H 0.86177 0.55514 0.39733 0.0
C316 C 0.92595 0.59228 0.48779 0.0
N317 N 0.91273 0.59726 0.49225 0.0
C318 C 0.94219 0.6036 0.46533 0.0
C319 C 0.93147 0.62559 0.45514 0.0
C320 C 0.91533 0.61372 0.47728 0.0
C321 C 0.94491 0.6203 0.44761 0.0
H322 H 0.92342 0.57903 0.49984 0.0
H323 H 0.90451 0.61727 0.48085 0.0
O324 O 0.84444 0.54263 0.53622 0.0
O325 O 0.88556 0.56922 0.569 0.0
O326 O 0.87816 0.55524 0.47945 0.0
O327 O 0.86812 0.58386 0.50321 0.0
H328 H 0.85147 0.53476 0.61115 0.0
H329 H 0.80905 0.53444 0.53382 0.0
H330 H 0.82901 0.52314 0.66962 0.0
H331 H 0.78736 0.52294 0.59353 0.0
H332 H 0.91804 0.6173 0.65816 0.0
H333 H 0.88196 0.54929 0.63616 0.0
H334 H 0.90595 0.60501 0.58785 0.0
H335 H 0.89456 0.56252 0.70556 0.0
H336 H 0.84566 0.47862 0.56331 0.0
H337 H 0.90552 0.51351 0.55638 0.0
H338 H 0.81168 0.5814 0.58964 0.0
H339 H 0.84118 0.57853 0.69764 0.0
H340 H 0.90737 0.55378 0.45058 0.0
H341 H 0.8477 0.5231 0.46387 0.0
H342 H 0.90584 0.52617 0.41669 0.0
H343 H 0.84721 0.49606 0.4295 0.0
H344 H 0.84504 0.58974 0.4576 0.0
H345 H 0.88482 0.61152 0.55728 0.0
H346 H 0.83981 0.61655 0.46589 0.0
H347 H 0.87898 0.63798 0.56378 0.0
H348 H 0.79761 0.54364 0.41177 0.0
H349 H 0.84305 0.54984 0.33425 0.0
H350 H 0.95197 0.59876 0.46012 0.0
H351 H 0.93309 0.63849 0.44294 0.0
Li352 Li 0.29667 0.86817 0.74475 0.0
Li353 Li 0.3259 0.87503 0.71611 0.0
Li354 Li 0.30869 0.89077 0.68799 0.0
Li355 Li 0.29786 0.85677 0.67706 0.0
C356 C 0.31917 0.90144 0.77955 0.0
N357 N 0.31745 0.91844 0.85182 0.0
C358 C 0.32262 0.8958 0.8178 0.0
C359 C 0.31497 0.9158 0.77798 0.0
C360 C 0.32162 0.90453 0.85401 0.0
C361 C 0.31416 0.92421 0.81489 0.0
C362 C 0.31406 0.8426 0.74932 0.0
C363 C 0.3331 0.82813 0.74603 0.0
N364 N 0.33401 0.82835 0.78817 0.0
C365 C 0.31528 0.84275 0.79262 0.0
C366 C 0.32307 0.83524 0.72583 0.0
C367 C 0.32537 0.83542 0.81166 0.0
C368 C 0.27257 0.84163 0.80131 0.0
N369 N 0.28049 0.86012 0.79277 0.0
C370 C 0.2633 0.86381 0.84814 0.0
C371 C 0.27584 0.87118 0.81497 0.0
C372 C 0.25529 0.84482 0.85824 0.0
C373 C 0.26009 0.83372 0.83416 0.0
H374 H 0.27586 0.83291 0.78233 0.0
H375 H 0.28149 0.88561 0.80653 0.0
C376 C 0.36035 0.87956 0.69118 0.0
N377 N 0.35034 0.87869 0.72534 0.0
C378 C 0.37678 0.87896 0.69512 0.0
C379 C 0.3731 0.87793 0.76961 0.0
C380 C 0.35673 0.87864 0.76419 0.0
C381 C 0.38302 0.87748 0.73467 0.0
H382 H 0.35529 0.88012 0.6607 0.0
H383 H 0.34866 0.87818 0.79093 0.0
C384 C 0.26658 0.86465 0.70804 0.0
N385 N 0.23233 0.85543 0.74127 0.0
C386 C 0.25268 0.84597 0.71137 0.0
C387 C 0.26306 0.87866 0.72126 0.0
C388 C 0.23546 0.8416 0.72839 0.0
C389 C 0.24564 0.8737 0.73802 0.0
C390 C 0.32112 0.87412 0.61671 0.0
C391 C 0.31642 0.88277 0.58554 0.0
C392 C 0.3251 0.8601 0.60609 0.0
C393 C 0.31559 0.87712 0.54436 0.0
C394 C 0.32407 0.85481 0.56458 0.0
N395 N 0.31936 0.86336 0.53482 0.0
C396 C 0.32871 0.92784 0.66069 0.0
C397 C 0.29734 0.91129 0.63783 0.0
C398 C 0.33239 0.94281 0.63479 0.0
N399 N 0.31153 0.91239 0.66109 0.0
C400 C 0.30043 0.9259 0.61126 0.0
C401 C 0.31828 0.94173 0.60875 0.0
H402 H 0.3398 0.92813 0.67898 0.0
H403 H 0.28391 0.89867 0.63821 0.0
C404 C 0.28491 0.82084 0.64205 0.0
N405 N 0.28483 0.83713 0.63857 0.0
C406 C 0.27578 0.80678 0.61264 0.0
C407 C 0.26614 0.82634 0.57748 0.0
C408 C 0.27556 0.84005 0.60741 0.0
C409 C 0.26626 0.80946 0.57967 0.0
H410 H 0.29212 0.81876 0.66753 0.0
H411 H 0.27558 0.8531 0.60578 0.0
O412 O 0.32024 0.8932 0.74371 0.0
O413 O 0.30441 0.84991 0.73002 0.0
O414 O 0.28369 0.86918 0.69263 0.0
O415 O 0.32153 0.87911 0.65741 0.0
H416 H 0.32581 0.88467 0.81955 0.0
H417 H 0.3123 0.92034 0.7486 0.0
H418 H 0.32413 0.90023 0.88387 0.0
H419 H 0.31087 0.9353 0.81418 0.0
H420 H 0.34025 0.82254 0.72818 0.0
H421 H 0.30879 0.84873 0.81143 0.0
H422 H 0.32266 0.83534 0.69233 0.0
H423 H 0.32646 0.83551 0.84512 0.0
H424 H 0.25969 0.87282 0.86519 0.0
H425 H 0.25444 0.81906 0.84081 0.0
H426 H 0.38426 0.87917 0.66737 0.0
H427 H 0.37739 0.87679 0.80069 0.0
H428 H 0.25526 0.83499 0.70138 0.0
H429 H 0.27376 0.89318 0.71911 0.0
H430 H 0.2246 0.8272 0.73148 0.0
H431 H 0.24274 0.88438 0.74865 0.0
H432 H 0.31337 0.89366 0.59296 0.0
H433 H 0.32863 0.85314 0.62974 0.0
H434 H 0.31189 0.88365 0.51999 0.0
H435 H 0.32694 0.84387 0.55604 0.0
H436 H 0.3464 0.95463 0.63346 0.0
H437 H 0.28915 0.92456 0.59193 0.0
H438 H 0.27637 0.79407 0.61546 0.0
H439 H 0.25866 0.82889 0.55319 0.0
Li440 Li 0.45314 0.3196 0.88841 0.0
Li441 Li 0.42748 0.29202 0.92247 0.0
Li442 Li 0.43619 0.28908 0.8527 0.0
Li443 Li 0.41954 0.3053 0.86597 0.0
C444 C 0.45562 0.28246 0.91578 0.0
N445 N 0.46261 0.25477 0.94176 0.0
C446 C 0.44132 0.26386 0.91599 0.0
C447 C 0.47346 0.28698 0.92887 0.0
C448 C 0.44513 0.25006 0.92922 0.0
C449 C 0.47672 0.27278 0.94186 0.0
C450 C 0.42869 0.32082 0.95988 0.0
C451 C 0.4081 0.31624 0.01723 0.0
N452 N 0.42312 0.32626 0.0421 0.0
C453 C 0.44392 0.33116 0.98597 0.0
C454 C 0.41062 0.31338 0.97557 0.0
C455 C 0.44082 0.33373 0.02744 0.0
C456 C 0.47647 0.35806 0.90338 0.0
N457 N 0.47625 0.34195 0.89412 0.0
C458 C 0.50944 0.35798 0.88973 0.0
C459 C 0.49224 0.34157 0.88748 0.0
C460 C 0.51013 0.37485 0.89932 0.0
C461 C 0.49338 0.37476 0.90657 0.0
H462 H 0.46348 0.35794 0.90806 0.0
H463 H 0.49159 0.32855 0.87975 0.0
C464 C 0.40504 0.2627 0.97899 0.0
N465 N 0.4209 0.27947 0.97483 0.0
C466 C 0.40144 0.25258 0.01589 0.0
C467 C 0.43037 0.27733 0.04368 0.0
C468 C 0.43358 0.28677 0.00605 0.0
C469 C 0.41423 0.25992 0.04874 0.0
H470 H 0.39551 0.25687 0.9532 0.0
H471 H 0.4465 0.29965 0.00124 0.0
C472 C 0.44898 0.31504 0.79232 0.0
N473 N 0.46259 0.31676 0.71314 0.0
C474 C 0.43742 0.30288 0.76151 0.0
C475 C 0.46742 0.32818 0.78273 0.0
C476 C 0.44457 0.30393 0.72172 0.0
C477 C 0.47405 0.32881 0.74255 0.0
C478 C 0.39267 0.27151 0.86334 0.0
C479 C 0.38723 0.2648 0.82298 0.0
C480 C 0.37962 0.27148 0.89085 0.0
C481 C 0.36883 0.25832 0.8107 0.0
C482 C 0.36136 0.2649 0.8774 0.0
N483 N 0.35639 0.25853 0.83793 0.0
C484 C 0.42631 0.25484 0.8144 0.0
C485 C 0.45662 0.27912 0.79701 0.0
C486 C 0.42868 0.24223 0.79016 0.0
N487 N 0.4401 0.27292 0.81706 0.0
C488 C 0.45946 0.26705 0.77174 0.0
C489 C 0.44538 0.24834 0.76831 0.0
H490 H 0.41354 0.25012 0.83166 0.0
H491 H 0.46761 0.2934 0.80076 0.0
C492 C 0.3993 0.32439 0.86637 0.0
N493 N 0.40303 0.31292 0.84325 0.0
C494 C 0.39018 0.33304 0.84868 0.0
C495 C 0.38823 0.31737 0.7841 0.0
C496 C 0.39742 0.30905 0.80303 0.0
C497 C 0.385 0.32999 0.80665 0.0
H498 H 0.4042 0.32757 0.89799 0.0
H499 H 0.40081 0.3002 0.78497 0.0
O500 O 0.45222 0.29626 0.90323 0.0
O501 O 0.43144 0.31798 0.91926 0.0
O502 O 0.4423 0.3142 0.83159 0.0
O503 O 0.4107 0.27821 0.87579 0.0
H504 H 0.4274 0.2601 0.90623 0.0
H505 H 0.48466 0.30132 0.92908 0.0
H506 H 0.43419 0.23562 0.92956 0.0
H507 H 0.49046 0.27607 0.95207 0.0
H508 H 0.39419 0.31049 0.02979 0.0
H509 H 0.458 0.33685 0.97459 0.0
H510 H 0.39867 0.30546 0.95583 0.0
H511 H 0.45248 0.34158 0.04803 0.0
H512 H 0.52208 0.35749 0.88413 0.0
H513 H 0.49335 0.38753 0.91361 0.0
H514 H 0.38892 0.2391 0.01862 0.0
H515 H 0.44076 0.28323 0.06798 0.0
H516 H 0.42322 0.29244 0.76847 0.0
H517 H 0.47652 0.33782 0.80602 0.0
H518 H 0.43583 0.29447 0.69772 0.0
H519 H 0.4883 0.33889 0.73474 0.0
H520 H 0.39713 0.26481 0.80112 0.0
H521 H 0.38354 0.2765 0.92225 0.0
H522 H 0.36447 0.2532 0.77948 0.0
H523 H 0.35114 0.26487 0.89835 0.0
H524 H 0.41751 0.22789 0.78825 0.0
H525 H 0.47262 0.27217 0.75572 0.0
H526 H 0.38782 0.34254 0.86733 0.0
H527 H 0.38471 0.31478 0.75149 0.0
Li528 Li 0.57525 0.88287 0.89087 0.0
Li529 Li 0.55511 0.85153 0.91688 0.0
Li530 Li 0.567 0.85665 0.84539 0.0
Li531 Li 0.54315 0.86426 0.86602 0.0
C532 C 0.59925 0.87218 0.91045 0.0
N533 N 0.63561 0.89312 0.93756 0.0
C534 C 0.6034 0.87273 0.95264 0.0
C535 C 0.61358 0.88217 0.88203 0.0
C536 C 0.62187 0.88342 0.96573 0.0
C537 C 0.63187 0.89271 0.89636 0.0
C538 C 0.54069 0.88036 0.93387 0.0
C539 C 0.51038 0.87586 0.95123 0.0
N540 N 0.5177 0.89465 0.95234 0.0
C541 C 0.54789 0.89963 0.93516 0.0
C542 C 0.52178 0.86836 0.94202 0.0
C543 C 0.53605 0.90657 0.94461 0.0
C544 C 0.60213 0.9219 0.88359 0.0
N545 N 0.59351 0.90699 0.90943 0.0
C546 C 0.60789 0.92627 0.96859 0.0
C547 C 0.59619 0.90886 0.95113 0.0
C548 C 0.61668 0.94209 0.943 0.0
C549 C 0.61387 0.93969 0.89982 0.0
H550 H 0.59943 0.92007 0.8506 0.0
H551 H 0.58881 0.89681 0.97099 0.0
C552 C 0.56036 0.82792 0.97052 0.0
N553 N 0.54963 0.83581 0.96398 0.0
C554 C 0.55749 0.81685 0.00544 0.0
C555 C 0.53204 0.82159 0.02533 0.0
C556 C 0.53563 0.83284 0.99038 0.0
C557 C 0.5432 0.8136 0.03363 0.0
H558 H 0.57137 0.83048 0.94887 0.0
H559 H 0.52725 0.8392 0.98437 0.0
C560 C 0.57004 0.88218 0.79196 0.0
N561 N 0.57786 0.88566 0.70802 0.0
C562 C 0.55557 0.87565 0.76301 0.0
C563 C 0.58848 0.89065 0.77825 0.0
C564 C 0.55981 0.8775 0.7207 0.0
C565 C 0.59215 0.89223 0.73567 0.0
C566 C 0.53228 0.82159 0.87778 0.0
C567 C 0.54062 0.8107 0.87184 0.0
C568 C 0.51522 0.81408 0.89859 0.0
C569 C 0.53172 0.79241 0.88671 0.0
C570 C 0.50678 0.79574 0.91304 0.0
N571 N 0.51513 0.78538 0.90684 0.0
C572 C 0.58777 0.84263 0.80026 0.0
C573 C 0.55843 0.83605 0.77371 0.0
C574 C 0.58865 0.83037 0.77153 0.0
N575 N 0.57262 0.84492 0.8012 0.0
C576 C 0.5587 0.82371 0.74478 0.0
C577 C 0.57365 0.82027 0.74431 0.0
H578 H 0.59861 0.84941 0.82324 0.0
H579 H 0.54633 0.83772 0.77592 0.0
C580 C 0.52242 0.88145 0.84088 0.0
N581 N 0.52188 0.86489 0.84591 0.0
C582 C 0.507 0.88193 0.82488 0.0
C583 C 0.491 0.84837 0.81864 0.0
C584 C 0.50665 0.84853 0.83501 0.0
C585 C 0.49108 0.86522 0.81325 0.0
H586 H 0.53491 0.89429 0.84888 0.0
H587 H 0.50675 0.83562 0.8384 0.0
O588 O 0.58121 0.86207 0.89708 0.0
O589 O 0.55202 0.87326 0.92426 0.0
O590 O 0.56617 0.88024 0.83352 0.0
O591 O 0.54106 0.83971 0.86462 0.0
H592 H 0.59246 0.8652 0.97512 0.0
H593 H 0.6106 0.88186 0.8493 0.0
H594 H 0.62528 0.88408 0.99832 0.0
H595 H 0.6431 0.90057 0.87472 0.0
H596 H 0.4957 0.86673 0.95725 0.0
H597 H 0.56242 0.90916 0.92864 0.0
H598 H 0.51585 0.85343 0.94028 0.0
H599 H 0.54143 0.92145 0.94563 0.0
H600 H 0.60983 0.92733 0.00191 0.0
H601 H 0.62012 0.95149 0.8789 0.0
H602 H 0.56669 0.81131 0.01066 0.0
H603 H 0.52063 0.81922 0.04557 0.0
H604 H 0.54121 0.86904 0.77305 0.0
H605 H 0.59985 0.89592 0.80023 0.0
H606 H 0.54875 0.8724 0.69795 0.0
H607 H 0.60636 0.89868 0.72461 0.0
H608 H 0.55395 0.81634 0.85643 0.0
H609 H 0.50873 0.82241 0.90417 0.0
H610 H 0.53805 0.78385 0.88243 0.0
H611 H 0.49363 0.78979 0.92938 0.0
H612 H 0.60032 0.82793 0.77237 0.0
H613 H 0.54693 0.8163 0.72414 0.0
H614 H 0.50771 0.89523 0.82065 0.0
H615 H 0.47897 0.83518 0.81026 0.0
Li616 Li 0.70521 0.56291 0.05118 0.0
Li617 Li 0.68943 0.57987 0.03217 0.0
Li618 Li 0.67638 0.5481 0.00774 0.0
Li619 Li 0.70611 0.57314 0.98127 0.0
C620 C 0.67262 0.56118 0.09984 0.0
N621 N 0.65932 0.57255 0.16567 0.0
C622 C 0.68498 0.57386 0.12889 0.0
C623 C 0.65349 0.55417 0.10445 0.0
C624 C 0.67798 0.57947 0.1619 0.0
C625 C 0.64704 0.56011 0.13791 0.0
C626 C 0.73029 0.60452 0.01416 0.0
C627 C 0.74036 0.63157 0.97069 0.0
N628 N 0.75834 0.63574 0.97561 0.0
C629 C 0.74886 0.60909 0.01891 0.0
C630 C 0.72598 0.61585 0.98997 0.0
C631 C 0.76284 0.62493 0.99912 0.0
C632 C 0.73632 0.56145 0.07777 0.0
N633 N 0.71936 0.55831 0.09051 0.0
C634 C 0.72318 0.54746 0.15635 0.0
C635 C 0.71255 0.55128 0.12875 0.0
C636 C 0.74075 0.55056 0.14396 0.0
C637 C 0.74728 0.55756 0.10408 0.0
H638 H 0.74118 0.56673 0.04686 0.0
H639 H 0.6988 0.54843 0.13763 0.0
C640 C 0.66543 0.59432 0.05109 0.0
N641 N 0.68317 0.59753 0.0537 0.0
C642 C 0.66036 0.60593 0.07194 0.0
C643 C 0.69205 0.62425 0.09643 0.0
C644 C 0.69647 0.61225 0.07537 0.0
C645 C 0.67373 0.62102 0.0954 0.0
H646 H 0.65509 0.58235 0.03403 0.0
H647 H 0.71036 0.61425 0.0777 0.0
C648 C 0.70248 0.53355 0.01072 0.0
N649 N 0.70752 0.50446 0.03561 0.0
C650 C 0.71621 0.5309 0.99209 0.0
C651 C 0.69122 0.52132 0.04182 0.0
C652 C 0.71855 0.51613 0.00515 0.0
C653 C 0.69401 0.50673 0.05402 0.0
C654 C 0.67384 0.56502 0.93621 0.0
C655 C 0.67743 0.55259 0.91425 0.0
C656 C 0.66284 0.57153 0.91819 0.0
C657 C 0.66997 0.54692 0.87453 0.0
C658 C 0.65564 0.56554 0.87838 0.0
N659 N 0.65933 0.55346 0.85757 0.0
C660 C 0.63724 0.52275 0.99739 0.0
C661 C 0.65733 0.51259 0.97095 0.0
C662 C 0.62164 0.50659 0.98254 0.0
N663 N 0.65465 0.52539 0.99151 0.0
C664 C 0.64223 0.4963 0.95583 0.0
C665 C 0.62408 0.49317 0.96109 0.0
H666 H 0.63549 0.5334 0.01262 0.0
H667 H 0.67124 0.51517 0.9652 0.0
C668 C 0.73706 0.57831 0.93668 0.0
N669 N 0.72236 0.58125 0.93417 0.0
C670 C 0.74825 0.58103 0.90206 0.0
C671 C 0.72968 0.59091 0.86352 0.0
C672 C 0.71896 0.58818 0.89909 0.0
C673 C 0.74419 0.58678 0.86445 0.0
H674 H 0.73967 0.57322 0.96532 0.0
H675 H 0.7075 0.59089 0.89815 0.0
O676 O 0.67927 0.55603 0.06654 0.0
O677 O 0.71635 0.5888 0.03227 0.0
O678 O 0.70028 0.54826 0.99933 0.0
O679 O 0.6807 0.57062 0.97544 0.0
H680 H 0.69985 0.57961 0.12548 0.0
H681 H 0.64373 0.54434 0.08232 0.0
H682 H 0.6874 0.58941 0.18438 0.0
H683 H 0.63228 0.55488 0.14174 0.0
H684 H 0.73723 0.64042 0.9517 0.0
H685 H 0.75242 0.60046 0.03752 0.0
H686 H 0.71165 0.6124 0.98572 0.0
H687 H 0.77727 0.62861 0.00239 0.0
H688 H 0.71762 0.54185 0.18675 0.0
H689 H 0.7608 0.56021 0.09355 0.0
H690 H 0.64611 0.60302 0.07007 0.0
H691 H 0.70273 0.63549 0.11466 0.0
H692 H 0.72496 0.5401 0.96778 0.0
H693 H 0.68056 0.5232 0.05667 0.0
H694 H 0.72916 0.51394 0.99107 0.0
H695 H 0.68548 0.49723 0.07819 0.0
H696 H 0.68595 0.54742 0.92751 0.0
H697 H 0.65987 0.58109 0.93487 0.0
H698 H 0.67267 0.53733 0.85719 0.0
H699 H 0.64711 0.57047 0.86406 0.0
H700 H 0.60792 0.50489 0.98675 0.0
H701 H 0.64482 0.4863 0.93994 0.0
H702 H 0.75927 0.57765 0.90412 0.0
H703 H 0.72632 0.59566 0.83525 0.0
Li704 Li 0.1505 0.70769 0.23674 0.0
Li705 Li 0.11857 0.69593 0.22129 0.0
Li706 Li 0.13677 0.68292 0.18501 0.0
Li707 Li 0.14178 0.71501 0.17105 0.0
C708 C 0.13467 0.6758 0.27998 0.0
N709 N 0.14428 0.6641 0.35143 0.0
C710 C 0.13471 0.68373 0.31832 0.0
C711 C 0.13956 0.66192 0.27805 0.0
C712 C 0.13962 0.67765 0.35406 0.0
C713 C 0.14434 0.65619 0.3145 0.0
C714 C 0.12786 0.72912 0.24549 0.0
C715 C 0.1048 0.73872 0.24167 0.0
N716 N 0.10597 0.74133 0.28347 0.0
C717 C 0.12884 0.73192 0.28844 0.0
C718 C 0.11576 0.73258 0.22192 0.0
C719 C 0.11767 0.7381 0.30703 0.0
C720 C 0.17454 0.73556 0.29185 0.0
N721 N 0.16961 0.71818 0.27822 0.0
C722 C 0.19055 0.71626 0.32629 0.0
C723 C 0.17789 0.70881 0.29355 0.0
C724 C 0.19501 0.73371 0.34269 0.0
C725 C 0.18717 0.74358 0.32436 0.0
H726 H 0.1684 0.74308 0.27791 0.0
H727 H 0.17439 0.69536 0.28099 0.0
C728 C 0.07924 0.68214 0.21934 0.0
N729 N 0.09444 0.68848 0.24427 0.0
C730 C 0.06162 0.67619 0.23653 0.0
C731 C 0.0757 0.68355 0.30457 0.0
C732 C 0.09291 0.68918 0.28614 0.0
C733 C 0.05967 0.67676 0.27982 0.0
H734 H 0.08073 0.68145 0.18617 0.0
H735 H 0.10508 0.69419 0.30542 0.0
C736 C 0.17881 0.71582 0.18655 0.0
N737 N 0.2167 0.73452 0.20115 0.0
C738 C 0.18883 0.73529 0.1867 0.0
C739 C 0.18803 0.70584 0.19368 0.0
C740 C 0.20799 0.74449 0.19419 0.0
C741 C 0.20721 0.71556 0.20103 0.0
C742 C 0.11509 0.6926 0.12093 0.0
C743 C 0.12096 0.68565 0.08828 0.0
C744 C 0.10577 0.70235 0.11225 0.0
C745 C 0.1176 0.68879 0.04742 0.0
C746 C 0.10269 0.70521 0.07098 0.0
N747 N 0.10863 0.69844 0.03969 0.0
C748 C 0.12266 0.6444 0.17197 0.0
C749 C 0.15007 0.66445 0.13424 0.0
C750 C 0.12254 0.62873 0.15551 0.0
N751 N 0.13641 0.66178 0.16143 0.0
C752 C 0.15035 0.6492 0.11663 0.0
C753 C 0.13652 0.63106 0.12744 0.0
H754 H 0.11192 0.64273 0.19351 0.0
H755 H 0.16073 0.67846 0.12618 0.0
C756 C 0.15109 0.75012 0.13475 0.0
N757 N 0.15058 0.73363 0.12877 0.0
C758 C 0.16041 0.76472 0.1065 0.0
C759 C 0.16828 0.74502 0.06624 0.0
C760 C 0.15878 0.73081 0.09517 0.0
C761 C 0.16952 0.76242 0.07211 0.0
H762 H 0.14502 0.75228 0.16234 0.0
H763 H 0.1587 0.71778 0.0919 0.0
O764 O 0.1298 0.68147 0.24456 0.0
O765 O 0.13847 0.72277 0.2267 0.0
O766 O 0.15999 0.70658 0.18028 0.0
O767 O 0.11863 0.69003 0.16113 0.0
H768 H 0.13164 0.69492 0.3204 0.0
H769 H 0.13982 0.65573 0.24875 0.0
H770 H 0.13989 0.68381 0.38382 0.0
H771 H 0.14817 0.64548 0.3134 0.0
H772 H 0.09532 0.74136 0.22378 0.0
H773 H 0.13781 0.72898 0.30744 0.0
H774 H 0.11472 0.7304 0.18876 0.0
H775 H 0.11821 0.74021 0.34024 0.0
H776 H 0.19662 0.70839 0.33891 0.0
H777 H 0.19022 0.75709 0.33597 0.0
H778 H 0.04964 0.67082 0.21621 0.0
H779 H 0.07501 0.6846 0.33794 0.0
H780 H 0.18186 0.7432 0.18158 0.0
H781 H 0.18042 0.69076 0.19408 0.0
H782 H 0.21592 0.75955 0.1946 0.0
H783 H 0.21453 0.70804 0.20681 0.0
H784 H 0.12819 0.67808 0.09437 0.0
H785 H 0.10099 0.70769 0.13708 0.0
H786 H 0.12217 0.68359 0.02186 0.0
H787 H 0.09556 0.71281 0.06383 0.0
H788 H 0.11153 0.61496 0.16425 0.0
H789 H 0.16142 0.65157 0.09527 0.0
H790 H 0.16089 0.77784 0.11218 0.0
H791 H 0.17539 0.74267 0.04077 0.0
Li792 Li 0.44261 0.14189 0.41685 0.0
Li793 Li 0.41995 0.11129 0.3842 0.0
Li794 Li 0.4533 0.13118 0.35942 0.0
Li795 Li 0.43115 0.14096 0.34748 0.0
C796 C 0.44877 0.11723 0.45373 0.0
N797 N 0.45807 0.11546 0.53531 0.0
C798 C 0.4358 0.10355 0.48029 0.0
C799 C 0.46655 0.12985 0.46857 0.0
C800 C 0.44075 0.10292 0.52144 0.0
C801 C 0.47096 0.12878 0.50994 0.0
C802 C 0.40367 0.13761 0.39456 0.0
C803 C 0.37402 0.13195 0.36864 0.0
N804 N 0.37835 0.14941 0.38055 0.0
C805 C 0.4078 0.15545 0.40679 0.0
C806 C 0.38664 0.12571 0.37549 0.0
C807 C 0.39482 0.16118 0.39932 0.0
C808 C 0.46209 0.17179 0.47457 0.0
N809 N 0.44748 0.15431 0.46869 0.0
C810 C 0.43655 0.15359 0.53758 0.0
C811 C 0.43479 0.14518 0.49913 0.0
C812 C 0.45142 0.1717 0.54468 0.0
C813 C 0.46437 0.18079 0.51263 0.0
H814 H 0.47177 0.17887 0.44953 0.0
H815 H 0.4231 0.13143 0.49317 0.0
C816 C 0.39956 0.07167 0.38135 0.0
N817 N 0.40042 0.08711 0.39826 0.0
C818 C 0.38684 0.054 0.39667 0.0
C819 C 0.37612 0.06853 0.44616 0.0
C820 C 0.38882 0.08586 0.42951 0.0
C821 C 0.37524 0.05235 0.43015 0.0
H822 H 0.40919 0.07314 0.35701 0.0
H823 H 0.39007 0.09843 0.4428 0.0
C824 C 0.47408 0.16717 0.35179 0.0
N825 N 0.50912 0.18794 0.31713 0.0
C826 C 0.47603 0.17295 0.31041 0.0
C827 C 0.48997 0.17205 0.37556 0.0
C828 C 0.49386 0.18345 0.29348 0.0
C829 C 0.50755 0.1825 0.35745 0.0
C830 C 0.42043 0.11414 0.28939 0.0
C831 C 0.42945 0.12468 0.25421 0.0
C832 C 0.40184 0.09994 0.28663 0.0
C833 C 0.41968 0.12087 0.21682 0.0
C834 C 0.39257 0.09653 0.24865 0.0
N835 N 0.4016 0.10699 0.21483 0.0
C836 C 0.48413 0.12499 0.36293 0.0
C837 C 0.47975 0.13559 0.29793 0.0
C838 C 0.50062 0.1261 0.34891 0.0
N839 N 0.47431 0.13012 0.33772 0.0
C840 C 0.49628 0.1372 0.28287 0.0
C841 C 0.50708 0.13272 0.30873 0.0
H842 H 0.47941 0.12045 0.39425 0.0
H843 H 0.47163 0.13936 0.27828 0.0
C844 C 0.43441 0.17399 0.31804 0.0
N845 N 0.42384 0.15525 0.31274 0.0
C846 C 0.43081 0.18613 0.29523 0.0
C847 C 0.40493 0.15955 0.26272 0.0
C848 C 0.40898 0.14788 0.28649 0.0
C849 C 0.416 0.17897 0.26683 0.0
H850 H 0.44572 0.17958 0.34015 0.0
H851 H 0.40011 0.13298 0.28419 0.0
O852 O 0.44406 0.11835 0.41355 0.0
O853 O 0.41642 0.13197 0.4004 0.0
O854 O 0.45672 0.15659 0.36875 0.0
O855 O 0.42981 0.11743 0.32615 0.0
H856 H 0.42205 0.09355 0.46936 0.0
H857 H 0.47677 0.1405 0.4485 0.0
H858 H 0.43081 0.09246 0.54236 0.0
H859 H 0.48462 0.13857 0.52189 0.0
H860 H 0.36083 0.12295 0.35368 0.0
H861 H 0.42099 0.16483 0.42144 0.0
H862 H 0.38333 0.11189 0.36565 0.0
H863 H 0.39787 0.175 0.40835 0.0
H864 H 0.42601 0.14621 0.56102 0.0
H865 H 0.47605 0.19474 0.51684 0.0
H866 H 0.38669 0.04185 0.38381 0.0
H867 H 0.36735 0.0678 0.47188 0.0
H868 H 0.46393 0.16908 0.29126 0.0
H869 H 0.48877 0.16769 0.40754 0.0
H870 H 0.49556 0.1879 0.26144 0.0
H871 H 0.51996 0.18626 0.37543 0.0
H872 H 0.44372 0.13589 0.25584 0.0
H873 H 0.3946 0.09169 0.31353 0.0
H874 H 0.42646 0.129 0.18942 0.0
H875 H 0.37817 0.08561 0.2461 0.0
H876 H 0.50861 0.12255 0.36978 0.0
H877 H 0.50071 0.14216 0.25152 0.0
H878 H 0.43977 0.201 0.29935 0.0
H879 H 0.39314 0.15345 0.24179 0.0
Li880 Li 0.29429 0.43598 0.56494 0.0
Li881 Li 0.30826 0.41788 0.54914 0.0
Li882 Li 0.32164 0.45011 0.52073 0.0
Li883 Li 0.29045 0.42388 0.49635 0.0
C884 C 0.32192 0.43921 0.6201 0.0
N885 N 0.32632 0.43228 0.70197 0.0
C886 C 0.30714 0.4247 0.64166 0.0
C887 C 0.33892 0.45018 0.64017 0.0
C888 C 0.30965 0.42143 0.68303 0.0
C889 C 0.34088 0.44646 0.68158 0.0
C890 C 0.27095 0.39064 0.54001 0.0
C891 C 0.26469 0.36459 0.49604 0.0
N892 N 0.25101 0.35297 0.52253 0.0
C893 C 0.25677 0.37846 0.56671 0.0
C894 C 0.27491 0.38368 0.50432 0.0
C895 C 0.24687 0.35945 0.55737 0.0
C896 C 0.26361 0.42973 0.61371 0.0
N897 N 0.28201 0.44178 0.60714 0.0
C898 C 0.2825 0.46192 0.66072 0.0
C899 C 0.29157 0.45761 0.62989 0.0
C900 C 0.26349 0.4497 0.66836 0.0
C901 C 0.25403 0.43342 0.64442 0.0
H902 H 0.25639 0.4173 0.59493 0.0
H903 H 0.30624 0.46687 0.62398 0.0
C904 C 0.33578 0.41035 0.57138 0.0
N905 N 0.31695 0.40247 0.57214 0.0
C906 C 0.34456 0.40319 0.59599 0.0
C907 C 0.31432 0.37915 0.61979 0.0
C908 C 0.3061 0.38691 0.59493 0.0
C909 C 0.33382 0.38775 0.62159 0.0
H910 H 0.34404 0.42296 0.55368 0.0
H911 H 0.29122 0.38126 0.59614 0.0
C912 C 0.29031 0.46043 0.52172 0.0
N913 N 0.27454 0.48163 0.54446 0.0
C914 C 0.27106 0.45302 0.5187 0.0
C915 C 0.30156 0.47864 0.536 0.0
C916 C 0.26335 0.46396 0.53045 0.0
C917 C 0.29332 0.48913 0.5474 0.0
C918 C 0.32368 0.4223 0.46003 0.0
C919 C 0.33268 0.43511 0.42805 0.0
C920 C 0.32329 0.40524 0.45958 0.0
C921 C 0.34092 0.43052 0.39578 0.0
C922 C 0.33171 0.40117 0.42676 0.0
N923 N 0.34026 0.41379 0.3958 0.0
C924 C 0.36036 0.47579 0.5188 0.0
C925 C 0.34199 0.48203 0.47228 0.0
C926 C 0.37664 0.49107 0.50364 0.0
N927 N 0.34354 0.47158 0.50278 0.0
C928 C 0.35788 0.49733 0.45604 0.0
C929 C 0.37551 0.50193 0.47149 0.0
H930 H 0.36113 0.46708 0.54284 0.0
H931 H 0.32839 0.47825 0.46008 0.0
C932 C 0.25605 0.40798 0.45261 0.0
N933 N 0.27491 0.41696 0.4486 0.0
C934 C 0.24497 0.40781 0.41965 0.0
C935 C 0.27288 0.42514 0.37857 0.0
C936 C 0.28338 0.42499 0.4122 0.0
C937 C 0.25351 0.41719 0.38266 0.0
H938 H 0.24972 0.40222 0.48234 0.0
H939 H 0.29838 0.43252 0.41026 0.0
O940 O 0.32002 0.44237 0.5792 0.0
O941 O 0.28078 0.40925 0.54915 0.0
O942 O 0.29806 0.44977 0.51146 0.0
O943 O 0.3158 0.42667 0.49227 0.0
H944 H 0.29393 0.41593 0.62656 0.0
H945 H 0.35053 0.46139 0.62381 0.0
H946 H 0.29835 0.41022 0.70003 0.0
H947 H 0.35398 0.45482 0.69748 0.0
H948 H 0.26761 0.35903 0.4685 0.0
H949 H 0.25354 0.38363 0.5945 0.0
H950 H 0.28561 0.39288 0.48302 0.0
H951 H 0.23591 0.34986 0.57784 0.0
H952 H 0.29032 0.47452 0.67879 0.0
H953 H 0.23932 0.42375 0.64904 0.0
H954 H 0.35963 0.41015 0.59642 0.0
H955 H 0.30561 0.36736 0.63949 0.0
H956 H 0.26216 0.43891 0.50792 0.0
H957 H 0.31648 0.48451 0.53872 0.0
H958 H 0.24846 0.45837 0.52856 0.0
H959 H 0.30183 0.50321 0.55875 0.0
H960 H 0.33322 0.44842 0.42801 0.0
H961 H 0.31662 0.39525 0.48435 0.0
H962 H 0.34786 0.44028 0.37074 0.0
H963 H 0.33147 0.38801 0.42597 0.0
H964 H 0.38998 0.49405 0.51612 0.0
H965 H 0.35638 0.50547 0.43163 0.0
H966 H 0.23011 0.40172 0.42423 0.0
H967 H 0.27998 0.43239 0.35047 0.0
Li968 Li 0.88775 0.30932 0.70399 0.0
Li969 Li 0.85484 0.29669 0.72179 0.0
Li970 Li 0.86376 0.29037 0.65176 0.0
Li971 Li 0.86826 0.32093 0.67018 0.0
C972 C 0.87416 0.27072 0.71697 0.0
N973 N 0.88649 0.24611 0.73539 0.0
C974 C 0.87157 0.26304 0.75671 0.0
C975 C 0.88269 0.26557 0.68639 0.0
C976 C 0.878 0.25072 0.76548 0.0
C977 C 0.88891 0.25319 0.69635 0.0
C978 C 0.87308 0.32712 0.7684 0.0
C979 C 0.85561 0.3344 0.81741 0.0
N980 N 0.86741 0.33562 0.84813 0.0
C981 C 0.88512 0.32861 0.80042 0.0
C982 C 0.8583 0.33021 0.7769 0.0
C983 C 0.88199 0.33286 0.84052 0.0
C984 C 0.92534 0.33463 0.71266 0.0
N985 N 0.91188 0.31777 0.72678 0.0
C986 C 0.93192 0.31838 0.7809 0.0
C987 C 0.91497 0.30933 0.75956 0.0
C988 C 0.94566 0.33632 0.76849 0.0
C989 C 0.94245 0.34413 0.73295 0.0
H990 H 0.9224 0.34113 0.68692 0.0
H991 H 0.90389 0.29622 0.77106 0.0
C992 C 0.81896 0.27938 0.75796 0.0
N993 N 0.83732 0.28597 0.76569 0.0
C994 C 0.80584 0.27105 0.78962 0.0
C995 C 0.83079 0.27645 0.83656 0.0
C996 C 0.8434 0.28463 0.80399 0.0
C997 C 0.8117 0.26942 0.82953 0.0
H998 H 0.81446 0.28034 0.72704 0.0
H999 H 0.85807 0.28988 0.80922 0.0
C1000 C 0.89819 0.31497 0.6141 0.0
N1001 N 0.92185 0.31494 0.55359 0.0
C1002 C 0.89927 0.32307 0.57539 0.0
C1003 C 0.90944 0.30721 0.62226 0.0
C1004 C 0.91122 0.32281 0.54513 0.0
C1005 C 0.92123 0.30724 0.59123 0.0
C1006 C 0.83345 0.30239 0.64604 0.0
C1007 C 0.83039 0.29926 0.60341 0.0
C1008 C 0.82551 0.31138 0.66744 0.0
C1009 C 0.81964 0.30543 0.58278 0.0
C1010 C 0.81488 0.31737 0.6457 0.0
N1011 N 0.81221 0.31431 0.60416 0.0
C1012 C 0.84548 0.25376 0.62151 0.0
C1013 C 0.85819 0.2766 0.56849 0.0
C1014 C 0.83696 0.23959 0.59207 0.0
N1015 N 0.85572 0.27185 0.60934 0.0
C1016 C 0.84973 0.26288 0.538 0.0
C1017 C 0.8387 0.24412 0.54971 0.0
H1018 H 0.84335 0.2504 0.6542 0.0
H1019 H 0.86589 0.29108 0.55957 0.0
C1020 C 0.8718 0.35657 0.67574 0.0
N1021 N 0.86897 0.34275 0.64889 0.0
C1022 C 0.87312 0.37304 0.66112 0.0
C1023 C 0.86873 0.36083 0.59135 0.0
C1024 C 0.86734 0.34452 0.60739 0.0
C1025 C 0.87175 0.37538 0.61837 0.0
H1026 H 0.87338 0.35498 0.70847 0.0
H1027 H 0.86509 0.33332 0.58671 0.0
O1028 O 0.8678 0.28271 0.70783 0.0
O1029 O 0.87579 0.32274 0.72899 0.0
O1030 O 0.88664 0.31523 0.64415 0.0
O1031 O 0.84422 0.29675 0.66666 0.0
H1032 H 0.86477 0.26663 0.78063 0.0
H1033 H 0.88428 0.27086 0.65513 0.0
H1034 H 0.87622 0.2448 0.7962 0.0
H1035 H 0.89559 0.24914 0.67299 0.0
H1036 H 0.84414 0.33669 0.82442 0.0
H1037 H 0.89674 0.32647 0.79451 0.0
H1038 H 0.84892 0.32926 0.75256 0.0
H1039 H 0.89116 0.33397 0.8656 0.0
H1040 H 0.93372 0.31196 0.80844 0.0
H1041 H 0.95276 0.35783 0.72201 0.0
H1042 H 0.79123 0.26554 0.78265 0.0
H1043 H 0.83595 0.27567 0.86692 0.0
H1044 H 0.89088 0.32938 0.56864 0.0
H1045 H 0.90925 0.30138 0.65235 0.0
H1046 H 0.91206 0.32889 0.51494 0.0
H1047 H 0.92995 0.3012 0.59714 0.0
H1048 H 0.83633 0.29227 0.58634 0.0
H1049 H 0.82757 0.31377 0.70045 0.0
H1050 H 0.81726 0.30319 0.54974 0.0
H1051 H 0.80876 0.32445 0.66186 0.0
H1052 H 0.82834 0.22534 0.60244 0.0
H1053 H 0.85143 0.26695 0.50564 0.0
H1054 H 0.87572 0.38403 0.68293 0.0
H1055 H 0.86744 0.36204 0.55821 0.0
H1056 H 0.16702 0.39671 0.23556 0.0
H1057 H 0.19737 0.45557 0.20475 0.0
H1058 H 0.22324 0.45989 0.24979 0.0
H1059 H 0.18115 0.40242 0.34351 0.0
H1060 H 0.18307 0.3817 0.34504 0.0
H1061 H 0.16686 0.38303 0.30997 0.0
H1062 H 0.18209 0.37561 0.24818 0.0
H1063 H 0.1984 0.37433 0.28304 0.0
H1064 H 0.20678 0.38998 0.23931 0.0
H1065 H 0.24592 0.45801 0.29638 0.0
H1066 H 0.26373 0.45046 0.346 0.0
H1067 H 0.21894 0.39287 0.34904 0.0
C1068 C 0.17912 0.41048 0.23847 0.0
C1069 C 0.18015 0.42586 0.21702 0.0
C1070 C 0.19617 0.44368 0.22149 0.0
C1071 C 0.21099 0.44625 0.24674 0.0
C1072 C 0.20957 0.43087 0.2675 0.0
C1073 C 0.19403 0.41335 0.26404 0.0
C1074 C 0.19605 0.39933 0.29061 0.0
C1075 C 0.18088 0.39114 0.32428 0.0
C1076 C 0.19582 0.3839 0.26367 0.0
C1077 C 0.21516 0.41174 0.30936 0.0
C1078 C 0.2227 0.42983 0.29522 0.0
C1079 C 0.24021 0.44389 0.30765 0.0
C1080 C 0.25028 0.43942 0.3356 0.0
C1081 C 0.24283 0.42104 0.35105 0.0
C1082 C 0.22499 0.40703 0.33772 0.0
H1083 H 0.81795 0.24604 0.4861 0.0
H1084 H 0.83446 0.20915 0.54337 0.0
H1085 H 0.81469 0.18431 0.49349 0.0
H1086 H 0.7708 0.21184 0.46947 0.0
H1087 H 0.76893 0.22133 0.42055 0.0
H1088 H 0.7852 0.23641 0.45911 0.0
H1089 H 0.81216 0.24756 0.40589 0.0
H1090 H 0.79595 0.23255 0.36709 0.0
H1091 H 0.8161 0.23062 0.37966 0.0
H1092 H 0.79238 0.16329 0.43788 0.0
H1093 H 0.76934 0.14784 0.38179 0.0
H1094 H 0.7669 0.19849 0.36342 0.0
C1095 C 0.8177 0.23286 0.48765 0.0
C1096 C 0.82787 0.22956 0.51832 0.0
C1097 C 0.82676 0.21195 0.52008 0.0
C1098 C 0.81562 0.1978 0.49184 0.0
C1099 C 0.80563 0.20148 0.46221 0.0
C1100 C 0.80657 0.21859 0.46 0.0
C1101 C 0.79391 0.21881 0.42647 0.0
C1102 C 0.77882 0.2223 0.44502 0.0
C1103 C 0.80521 0.23324 0.39278 0.0
C1104 C 0.78565 0.19913 0.41014 0.0
C1105 C 0.79261 0.18935 0.43096 0.0
C1106 C 0.78684 0.17083 0.42139 0.0
C1107 C 0.77364 0.16213 0.38967 0.0
C1108 C 0.76628 0.17191 0.36801 0.0
C1109 C 0.77244 0.19066 0.3787 0.0
H1110 H 0.60512 0.77 0.57585 0.0
H1111 H 0.55001 0.72155 0.59073 0.0
H1112 H 0.54301 0.73772 0.64557 0.0
H1113 H 0.61267 0.78358 0.6857 0.0
H1114 H 0.62424 0.80817 0.67448 0.0
H1115 H 0.62567 0.79237 0.63819 0.0
H1116 H 0.61278 0.80438 0.58004 0.0
H1117 H 0.61126 0.82016 0.61613 0.0
H1118 H 0.5909 0.80369 0.5877 0.0
H1119 H 0.54091 0.75929 0.69523 0.0
H1120 H 0.54411 0.78521 0.7386 0.0
H1121 H 0.60034 0.82035 0.69248 0.0
C1122 C 0.59165 0.76274 0.59093 0.0
C1123 C 0.57825 0.74433 0.57932 0.0
C1124 C 0.56074 0.7354 0.59972 0.0
C1125 C 0.55655 0.74453 0.63076 0.0
C1126 C 0.56997 0.76264 0.64123 0.0
C1127 C 0.5872 0.77168 0.62218 0.0
C1128 C 0.59879 0.79143 0.63853 0.0
C1129 C 0.61639 0.79403 0.66054 0.0
C1130 C 0.60372 0.80576 0.60351 0.0
C1131 C 0.58523 0.79211 0.6692 0.0
C1132 C 0.56873 0.77529 0.67019 0.0
C1133 C 0.55379 0.77252 0.6949 0.0
C1134 C 0.5557 0.78736 0.71919 0.0
C1135 C 0.57241 0.80481 0.71868 0.0
C1136 C 0.58745 0.80712 0.69365 0.0
H1137 H 0.82859 0.59632 0.72539 0.0
H1138 H 0.78692 0.56375 0.63224 0.0
H1139 H 0.76285 0.5645 0.67503 0.0
H1140 H 0.79918 0.57213 0.81212 0.0
H1141 H 0.80828 0.59251 0.84469 0.0
H1142 H 0.82278 0.59087 0.80521 0.0
H1143 H 0.82867 0.62215 0.77384 0.0
H1144 H 0.81407 0.62381 0.81309 0.0
H1145 H 0.80912 0.62474 0.75896 0.0
H1146 H 0.74301 0.5682 0.72748 0.0
H1147 H 0.72806 0.57197 0.79002 0.0
H1148 H 0.78173 0.60028 0.8519 0.0
C1149 C 0.81442 0.58931 0.71392 0.0
C1150 C 0.80989 0.58041 0.67469 0.0
C1151 C 0.79105 0.57133 0.66127 0.0
C1152 C 0.77716 0.57153 0.68554 0.0
C1153 C 0.78215 0.5806 0.72362 0.0
C1154 C 0.80024 0.58911 0.73811 0.0
C1155 C 0.80154 0.59685 0.78143 0.0
C1156 C 0.80834 0.58753 0.81271 0.0
C1157 C 0.8141 0.61816 0.78183 0.0
C1158 C 0.78133 0.59119 0.78898 0.0
C1159 C 0.77047 0.58209 0.75491 0.0
C1160 C 0.75135 0.57537 0.75435 0.0
C1161 C 0.74302 0.5777 0.78991 0.0
C1162 C 0.75374 0.58651 0.8257 0.0
C1163 C 0.77319 0.59349 0.82497 0.0
H1164 H 0.2239 0.81014 0.86307 0.0
H1165 H 0.25724 0.86057 0.93447 0.0
H1166 H 0.23692 0.84592 0.9952 0.0
H1167 H 0.17871 0.79713 0.91045 0.0
H1168 H 0.17119 0.77262 0.90975 0.0
H1169 H 0.18704 0.78783 0.8706 0.0
H1170 H 0.21048 0.77696 0.88975 0.0
H1171 H 0.19475 0.76178 0.92894 0.0
H1172 H 0.21826 0.77896 0.94271 0.0
H1173 H 0.21477 0.82477 0.04994 0.0
H1174 H 0.19278 0.79885 0.09443 0.0
H1175 H 0.17399 0.76211 0.98738 0.0
C1176 C 0.22692 0.81818 0.89137 0.0
C1177 C 0.24221 0.83656 0.89386 0.0
C1178 C 0.24547 0.8466 0.93148 0.0
C1179 C 0.23404 0.83836 0.96624 0.0
C1180 C 0.21935 0.82009 0.96289 0.0
C1181 C 0.21572 0.81015 0.92635 0.0
C1182 C 0.19979 0.79037 0.93153 0.0
C1183 C 0.1832 0.78678 0.90394 0.0
C1184 C 0.20621 0.77619 0.92272 0.0
C1185 C 0.19533 0.79056 0.97703 0.0
C1186 C 0.20662 0.8079 0.99444 0.0
C1187 C 0.20566 0.81122 0.03649 0.0
C1188 C 0.19302 0.7964 0.06149 0.0
C1189 C 0.1815 0.77841 0.04446 0.0
C1190 C 0.18259 0.77564 0.00147 0.0
H1191 H 0.40797 0.17654 0.18357 0.0
H1192 H 0.41664 0.2108 0.29239 0.0
H1193 H 0.41436 0.23408 0.2489 0.0
H1194 H 0.43504 0.21274 0.11573 0.0
H1195 H 0.42019 0.20279 0.0711 0.0
H1196 H 0.42042 0.18782 0.11122 0.0
H1197 H 0.38471 0.17293 0.12017 0.0
H1198 H 0.38436 0.18782 0.07985 0.0
H1199 H 0.37488 0.18765 0.13032 0.0
H1200 H 0.41463 0.25513 0.19299 0.0
H1201 H 0.4164 0.27205 0.12837 0.0
H1202 H 0.40658 0.22387 0.05598 0.0
C1203 C 0.40888 0.1887 0.1984 0.0
C1204 C 0.41251 0.19187 0.24138 0.0
C1205 C 0.41405 0.20817 0.25946 0.0
C1206 C 0.41265 0.22142 0.23507 0.0
C1207 C 0.40953 0.2181 0.19265 0.0
C1208 C 0.40749 0.20207 0.17447 0.0
C1209 C 0.40541 0.20246 0.1278 0.0
C1210 C 0.42121 0.2014 0.10515 0.0
C1211 C 0.38619 0.18678 0.11371 0.0
C1212 C 0.4071 0.22141 0.12252 0.0
C1213 C 0.40936 0.23016 0.16036 0.0
C1214 C 0.41254 0.24831 0.16324 0.0
C1215 C 0.4136 0.25783 0.12646 0.0
C1216 C 0.4114 0.24916 0.0874 0.0
C1217 C 0.40786 0.23064 0.08553 0.0
H1218 H 0.131 0.53194 0.12983 0.0
H1219 H 0.13926 0.53738 0.9965 0.0
H1220 H 0.14092 0.56799 0.99894 0.0
H1221 H 0.10173 0.55239 0.13551 0.0
H1222 H 0.11124 0.56406 0.18412 0.0
H1223 H 0.11111 0.54277 0.17208 0.0
H1224 H 0.1468 0.55934 0.18375 0.0
H1225 H 0.14702 0.58067 0.19595 0.0
H1226 H 0.1618 0.58034 0.1553 0.0
H1227 H 0.14211 0.59811 0.01595 0.0
H1228 H 0.14162 0.62529 0.04614 0.0
H1229 H 0.13188 0.59996 0.16816 0.0
C1230 C 0.1333 0.53966 0.10124 0.0
C1231 C 0.13502 0.53234 0.06296 0.0
C1232 C 0.13775 0.5427 0.02608 0.0
C1233 C 0.1388 0.56011 0.02719 0.0
C1234 C 0.13696 0.5669 0.06539 0.0
C1235 C 0.13419 0.55698 0.10173 0.0
C1236 C 0.13225 0.56727 0.13854 0.0
C1237 C 0.11293 0.55595 0.15874 0.0
C1238 C 0.1479 0.5722 0.17025 0.0
C1239 C 0.13443 0.58453 0.11722 0.0
C1240 C 0.13724 0.58409 0.07506 0.0
C1241 C 0.13989 0.59861 0.04891 0.0
C1242 C 0.13967 0.614 0.06632 0.0
C1243 C 0.13667 0.61468 0.10941 0.0
C1244 C 0.13398 0.5997 0.13504 0.0
H1245 H 0.58901 0.10954 0.27244 0.0
H1246 H 0.62251 0.16611 0.22714 0.0
H1247 H 0.59594 0.17139 0.23715 0.0
H1248 H 0.54495 0.1003 0.22814 0.0
H1249 H 0.53142 0.08734 0.27249 0.0
H1250 H 0.55278 0.08768 0.26005 0.0
H1251 H 0.56526 0.09974 0.334 0.0
H1252 H 0.54395 0.09944 0.34665 0.0
H1253 H 0.56599 0.12061 0.35261 0.0
H1254 H 0.56594 0.17054 0.25148 0.0
H1255 H 0.53476 0.16426 0.27342 0.0
H1256 H 0.52093 0.10873 0.31273 0.0
C1257 C 0.59062 0.12296 0.26439 0.0
C1258 C 0.60771 0.13743 0.24892 0.0
C1259 C 0.6095 0.15491 0.2392 0.0
C1260 C 0.5945 0.158 0.24461 0.0
C1261 C 0.57786 0.14351 0.26016 0.0
C1262 C 0.57584 0.12638 0.27026 0.0
C1263 C 0.55667 0.11348 0.2881 0.0
C1264 C 0.54582 0.09618 0.26054 0.0
C1265 C 0.55806 0.108 0.33301 0.0
C1266 C 0.54826 0.12604 0.28643 0.0
C1267 C 0.56068 0.14323 0.26978 0.0
C1268 C 0.55609 0.15714 0.26459 0.0
C1269 C 0.53835 0.15343 0.27694 0.0
C1270 C 0.5255 0.13603 0.29465 0.0
C1271 C 0.53056 0.12219 0.29947 0.0
H1272 H 0.40621 0.52888 0.5128 0.0
H1273 H 0.38339 0.51058 0.38936 0.0
H1274 H 0.41156 0.53702 0.35895 0.0
H1275 H 0.42698 0.57765 0.49351 0.0
H1276 H 0.44728 0.584 0.52492 0.0
H1277 H 0.42558 0.56331 0.53698 0.0
H1278 H 0.4418 0.54353 0.53252 0.0
H1279 H 0.46357 0.56417 0.52049 0.0
H1280 H 0.45434 0.5444 0.48606 0.0
H1281 H 0.44198 0.56554 0.34198 0.0
H1282 H 0.47224 0.5948 0.33969 0.0
H1283 H 0.47536 0.59452 0.47413 0.0
C1284 C 0.40723 0.53034 0.47936 0.0
C1285 C 0.3926 0.5177 0.45342 0.0
C1286 C 0.39434 0.52023 0.40983 0.0
C1287 C 0.41033 0.53513 0.39226 0.0
C1288 C 0.42445 0.54738 0.4187 0.0
C1289 C 0.42306 0.54519 0.4613 0.0
C1290 C 0.44004 0.56061 0.48277 0.0
C1291 C 0.43464 0.57207 0.51121 0.0
C1292 C 0.45056 0.5527 0.50688 0.0
C1293 C 0.45113 0.57187 0.44558 0.0
C1294 C 0.44194 0.56392 0.40892 0.0
C1295 C 0.44936 0.57185 0.37048 0.0
C1296 C 0.4666 0.58841 0.36948 0.0
C1297 C 0.47619 0.59691 0.4067 0.0
C1298 C 0.46831 0.58843 0.44518 0.0
H1299 H 0.85891 0.46473 0.61534 0.0
H1300 H 0.89714 0.48511 0.51112 0.0
H1301 H 0.89982 0.45671 0.51358 0.0
H1302 H 0.88221 0.4445 0.67081 0.0
H1303 H 0.86091 0.42488 0.68945 0.0
H1304 H 0.86187 0.4467 0.67903 0.0
H1305 H 0.83373 0.42993 0.62915 0.0
H1306 H 0.83272 0.40807 0.63932 0.0
H1307 H 0.83486 0.41633 0.58675 0.0
H1308 H 0.89776 0.42579 0.52653 0.0
H1309 H 0.89271 0.39545 0.55189 0.0
H1310 H 0.85626 0.39556 0.64846 0.0
C1311 C 0.86779 0.46316 0.59299 0.0
C1312 C 0.87783 0.47707 0.56303 0.0
C1313 C 0.88948 0.47467 0.53456 0.0
C1314 C 0.891 0.45856 0.53557 0.0
C1315 C 0.88086 0.44506 0.56542 0.0
C1316 C 0.86961 0.44726 0.59384 0.0
C1317 C 0.86054 0.43088 0.62336 0.0
C1318 C 0.86676 0.43712 0.66832 0.0
C1319 C 0.8392 0.4207 0.61939 0.0
C1320 C 0.86839 0.41908 0.607 0.0
C1321 C 0.87998 0.42745 0.5734 0.0
C1322 C 0.88873 0.41911 0.55285 0.0
C1323 C 0.88569 0.40185 0.56729 0.0
C1324 C 0.87411 0.39318 0.60212 0.0
C1325 C 0.86532 0.40194 0.62201 0.0
H1326 H 0.41144 0.8925 0.79232 0.0
H1327 H 0.39038 0.85455 0.68749 0.0
H1328 H 0.41622 0.84816 0.69502 0.0
H1329 H 0.46055 0.91124 0.77042 0.0
H1330 H 0.46693 0.91244 0.82427 0.0
H1331 H 0.44711 0.91464 0.80991 0.0
H1332 H 0.42613 0.88734 0.85903 0.0
H1333 H 0.44588 0.88506 0.87357 0.0
H1334 H 0.42522 0.86526 0.85313 0.0
H1335 H 0.44351 0.84497 0.71491 0.0
H1336 H 0.47103 0.84552 0.74569 0.0
H1337 H 0.47439 0.88514 0.83832 0.0
C1338 C 0.41228 0.88286 0.77096 0.0
C1339 C 0.39898 0.87418 0.73903 0.0
C1340 C 0.40061 0.86168 0.71163 0.0
C1341 C 0.41517 0.85785 0.71581 0.0
C1342 C 0.42802 0.86662 0.74755 0.0
C1343 C 0.42678 0.87888 0.77463 0.0
C1344 C 0.44231 0.88616 0.80647 0.0
C1345 C 0.45498 0.90738 0.80251 0.0
C1346 C 0.43441 0.88062 0.85066 0.0
C1347 C 0.45234 0.87594 0.79318 0.0
C1348 C 0.44385 0.86475 0.75911 0.0
C1349 C 0.45032 0.85369 0.74158 0.0
C1350 C 0.46587 0.85401 0.75942 0.0
C1351 C 0.4748 0.86532 0.79444 0.0
C1352 C 0.46796 0.8765 0.81131 0.0
H1353 H 0.52287 0.4019 0.95953 0.0
H1354 H 0.5381 0.38754 0.84211 0.0
H1355 H 0.56831 0.41691 0.84388 0.0
H1356 H 0.54463 0.45172 0.94153 0.0
H1357 H 0.55248 0.45781 0.99436 0.0
H1358 H 0.53173 0.436 0.9832 0.0
H1359 H 0.54563 0.41817 0.02119 0.0
H1360 H 0.56639 0.43991 0.03258 0.0
H1361 H 0.56808 0.42176 0.00557 0.0
H1362 H 0.59667 0.44758 0.85824 0.0
H1363 H 0.62233 0.47689 0.88604 0.0
H1364 H 0.58937 0.47095 0.9958 0.0
C1365 C 0.53252 0.40506 0.93405 0.0
C1366 C 0.52819 0.39251 0.90061 0.0
C1367 C 0.54125 0.39693 0.86813 0.0
C1368 C 0.55836 0.4136 0.86874 0.0
C1369 C 0.56224 0.42566 0.90217 0.0
C1370 C 0.54977 0.42157 0.93438 0.0
C1371 C 0.55773 0.4366 0.96745 0.0
C1372 C 0.54594 0.44609 0.97188 0.0
C1373 C 0.55957 0.42863 0.00916 0.0
C1374 C 0.57665 0.44973 0.94882 0.0
C1375 C 0.57886 0.4432 0.91101 0.0
C1376 C 0.59516 0.45279 0.88792 0.0
C1377 C 0.60971 0.46937 0.90416 0.0
C1378 C 0.60799 0.47616 0.94337 0.0
C1379 C 0.59109 0.46625 0.96564 0.0
H1380 H 0.23921 0.42564 0.72627 0.0
H1381 H 0.26538 0.48305 0.68461 0.0
H1382 H 0.24853 0.48979 0.73909 0.0
H1383 H 0.1944 0.42014 0.74929 0.0
H1384 H 0.19074 0.40594 0.79456 0.0
H1385 H 0.20499 0.40575 0.75257 0.0
H1386 H 0.23234 0.41479 0.80369 0.0
H1387 H 0.21816 0.41497 0.84585 0.0
H1388 H 0.24041 0.43533 0.83541 0.0
H1389 H 0.22818 0.48995 0.79702 0.0
H1390 H 0.2065 0.48381 0.85524 0.0
H1391 H 0.19443 0.42645 0.85998 0.0
C1392 C 0.24131 0.4396 0.72845 0.0
C1393 C 0.25356 0.45383 0.70121 0.0
C1394 C 0.25617 0.472 0.70544 0.0
C1395 C 0.2466 0.47593 0.73612 0.0
C1396 C 0.23458 0.46155 0.76239 0.0
C1397 C 0.23197 0.44378 0.75898 0.0
C1398 C 0.2184 0.43085 0.79127 0.0
C1399 C 0.20111 0.41472 0.77068 0.0
C1400 C 0.2279 0.42356 0.8208 0.0
C1401 C 0.21366 0.44409 0.81322 0.0
C1402 C 0.22311 0.46172 0.79609 0.0
C1403 C 0.22081 0.47623 0.8109 0.0
C1404 C 0.20855 0.47263 0.84417 0.0
C1405 C 0.1988 0.45467 0.86242 0.0
C1406 C 0.20148 0.44028 0.84654 0.0
H1407 H 0.76566 0.19934 0.01923 0.0
H1408 H 0.72131 0.21274 0.01837 0.0
H1409 H 0.73704 0.23503 0.96104 0.0
H1410 H 0.80356 0.24599 0.99777 0.0
H1411 H 0.81579 0.23791 0.96525 0.0
H1412 H 0.80125 0.22347 0.00692 0.0
H1413 H 0.7826 0.19661 0.95484 0.0
H1414 H 0.79705 0.21097 0.91303 0.0
H1415 H 0.77212 0.20078 0.91013 0.0
H1416 H 0.75743 0.25542 0.90282 0.0
H1417 H 0.78079 0.27216 0.84794 0.0
H1418 H 0.81141 0.24495 0.8871 0.0
C1419 C 0.75938 0.20715 0.0074 0.0
C1420 C 0.74229 0.20436 0.0233 0.0
C1421 C 0.73432 0.21457 0.00639 0.0
C1422 C 0.7432 0.22732 0.97402 0.0
C1423 C 0.76 0.22967 0.95895 0.0
C1424 C 0.768 0.21987 0.97511 0.0
C1425 C 0.78586 0.22454 0.95272 0.0
C1426 C 0.8026 0.23351 0.98244 0.0
C1427 C 0.7843 0.20719 0.93142 0.0
C1428 C 0.78664 0.23846 0.9213 0.0
C1429 C 0.77164 0.24129 0.92543 0.0
C1430 C 0.76925 0.25333 0.89933 0.0
C1431 C 0.78251 0.26268 0.86812 0.0
C1432 C 0.79795 0.2599 0.86326 0.0
C1433 C 0.79996 0.24764 0.8904 0.0
H1434 H 0.55088 0.73905 0.17635 0.0
H1435 H 0.53351 0.76009 0.28021 0.0
H1436 H 0.52894 0.78089 0.23269 0.0
H1437 H 0.57663 0.78162 0.12366 0.0
H1438 H 0.56973 0.77189 0.07237 0.0
H1439 H 0.57036 0.75775 0.11402 0.0
H1440 H 0.53579 0.73316 0.10042 0.0
H1441 H 0.53507 0.74719 0.05854 0.0
H1442 H 0.51846 0.74024 0.10036 0.0
H1443 H 0.52913 0.80137 0.17498 0.0
H1444 H 0.53255 0.81899 0.11095 0.0
H1445 H 0.54793 0.78315 0.04385 0.0
C1446 C 0.54598 0.74795 0.18897 0.0
C1447 C 0.54254 0.74801 0.23187 0.0
C1448 C 0.53604 0.75973 0.24733 0.0
C1449 C 0.53346 0.77162 0.22063 0.0
C1450 C 0.53723 0.7714 0.17855 0.0
C1451 C 0.54314 0.75972 0.16272 0.0
C1452 C 0.54661 0.76249 0.11646 0.0
C1453 C 0.56704 0.76882 0.10604 0.0
C1454 C 0.53318 0.74471 0.09254 0.0
C1455 C 0.54221 0.77791 0.10894 0.0
C1456 C 0.53679 0.78282 0.14509 0.0
C1457 C 0.53301 0.7974 0.14629 0.0
C1458 C 0.53488 0.80726 0.10957 0.0
C1459 C 0.54037 0.80245 0.07198 0.0
C1460 C 0.54386 0.78738 0.07191 0.0
H1461 H 0.79499 0.55977 0.35394 0.0
H1462 H 0.81664 0.52708 0.29626 0.0
H1463 H 0.79858 0.5241 0.23295 0.0
H1464 H 0.74826 0.53316 0.31147 0.0
H1465 H 0.74585 0.55346 0.30503 0.0
H1466 H 0.76036 0.5528 0.34585 0.0
H1467 H 0.78828 0.58339 0.31801 0.0
H1468 H 0.7739 0.58412 0.27707 0.0
H1469 H 0.79534 0.58461 0.26463 0.0
H1470 H 0.7791 0.52581 0.17494 0.0
H1471 H 0.75884 0.53128 0.12746 0.0
H1472 H 0.74903 0.56156 0.22471 0.0
C1473 C 0.79572 0.55168 0.32836 0.0
C1474 C 0.80727 0.54366 0.33016 0.0
C1475 C 0.8081 0.53357 0.29547 0.0
C1476 C 0.7978 0.53169 0.25947 0.0
C1477 C 0.78663 0.53985 0.25879 0.0
C1478 C 0.78544 0.54954 0.29243 0.0
C1479 C 0.77259 0.55717 0.2837 0.0
C1480 C 0.75577 0.54863 0.31327 0.0
C1481 C 0.78317 0.57859 0.28598 0.0
C1482 C 0.76684 0.5504 0.23972 0.0
C1483 C 0.77511 0.54047 0.22582 0.0
C1484 C 0.77243 0.53343 0.18558 0.0
C1485 C 0.761 0.53666 0.15884 0.0
C1486 C 0.75235 0.54673 0.17263 0.0
C1487 C 0.75525 0.55356 0.21365 0.0
H1488 H 0.22241 0.76976 0.35753 0.0
H1489 H 0.19389 0.71465 0.41293 0.0
H1490 H 0.21106 0.72768 0.4783 0.0
H1491 H 0.26743 0.78654 0.4112 0.0
H1492 H 0.271 0.80973 0.41703 0.0
H1493 H 0.25813 0.79567 0.37322 0.0
H1494 H 0.23026 0.80011 0.39288 0.0
H1495 H 0.24295 0.81403 0.43688 0.0
H1496 H 0.22033 0.79372 0.44414 0.0
H1497 H 0.2286 0.7472 0.53973 0.0
H1498 H 0.24608 0.77159 0.5919 0.0
H1499 H 0.26362 0.81387 0.4959 0.0
C1500 C 0.21996 0.76039 0.38325 0.0
C1501 C 0.20687 0.74118 0.38011 0.0
C1502 C 0.20408 0.72936 0.41441 0.0
C1503 C 0.2137 0.73665 0.45173 0.0
C1504 C 0.22615 0.75573 0.45408 0.0
C1505 C 0.22945 0.76741 0.42062 0.0
C1506 C 0.24273 0.78754 0.4319 0.0
C1507 C 0.2609 0.79532 0.40685 0.0
C1508 C 0.23351 0.79955 0.42611 0.0
C1509 C 0.24594 0.78542 0.47727 0.0
C1510 C 0.23638 0.76696 0.48942 0.0
C1511 C 0.23642 0.76168 0.53043 0.0
C1512 C 0.24646 0.77564 0.55982 0.0
C1513 C 0.25632 0.79468 0.54807 0.0
C1514 C 0.25614 0.79949 0.50606 0.0
H1515 H 0.45695 0.25291 0.68746 0.0
H1516 H 0.4392 0.21388 0.79008 0.0
H1517 H 0.44162 0.19094 0.74528 0.0
H1518 H 0.43108 0.21979 0.61105 0.0
H1519 H 0.44827 0.23049 0.57064 0.0
H1520 H 0.44717 0.24454 0.61188 0.0
H1521 H 0.4819 0.25664 0.62907 0.0
H1522 H 0.48311 0.24258 0.58782 0.0
H1523 H 0.48957 0.24019 0.63988 0.0
H1524 H 0.44407 0.17166 0.68852 0.0
H1525 H 0.44512 0.1568 0.62297 0.0
H1526 H 0.46024 0.20803 0.55661 0.0
C1527 C 0.45397 0.23967 0.70063 0.0
C1528 C 0.44801 0.23514 0.7422 0.0
C1529 C 0.44376 0.21755 0.75823 0.0
C1530 C 0.4452 0.2045 0.73313 0.0
C1531 C 0.45086 0.20928 0.69207 0.0
C1532 C 0.45514 0.22642 0.67586 0.0
C1533 C 0.45947 0.22751 0.62993 0.0
C1534 C 0.44567 0.23077 0.60439 0.0
C1535 C 0.47972 0.24263 0.62118 0.0
C1536 C 0.45663 0.2082 0.6227 0.0
C1537 C 0.4519 0.198 0.65905 0.0
C1538 C 0.44786 0.17954 0.65989 0.0
C1539 C 0.44838 0.17119 0.62247 0.0
C1540 C 0.45275 0.18123 0.58463 0.0
C1541 C 0.45719 0.20008 0.58506 0.0
H1542 H 0.03101 0.35766 0.91977 0.0
H1543 H 0.0394 0.41353 0.93222 0.0
H1544 H 0.01309 0.40534 0.88503 0.0
H1545 H 0.01897 0.35202 0.81126 0.0
H1546 H 0.00144 0.32778 0.81573 0.0
H1547 H 0.02086 0.33779 0.8511 0.0
H1548 H 0.99811 0.32703 0.91352 0.0
H1549 H 0.97862 0.31694 0.87834 0.0
H1550 H 0.98059 0.33384 0.91624 0.0
H1551 H 0.98658 0.39171 0.83599 0.0
H1552 H 0.96008 0.37277 0.78986 0.0
H1553 H 0.96834 0.32546 0.80797 0.0
C1554 C 0.02727 0.36813 0.91254 0.0
C1555 C 0.03716 0.38619 0.93004 0.0
C1556 C 0.03182 0.39951 0.91991 0.0
C1557 C 0.01698 0.39505 0.89284 0.0
C1558 C 0.00756 0.37719 0.87612 0.0
C1559 C 0.01236 0.36388 0.88565 0.0
C1560 C 0.99972 0.34568 0.86347 0.0
C1561 C 0.01092 0.34052 0.83362 0.0
C1562 C 0.9886 0.32994 0.89477 0.0
C1563 C 0.98715 0.35092 0.83996 0.0
C1564 C 0.99204 0.36921 0.84764 0.0
C1565 C 0.98263 0.37738 0.82958 0.0
C1566 C 0.96768 0.36654 0.80312 0.0
C1567 C 0.96224 0.34768 0.79491 0.0
C1568 C 0.97215 0.33981 0.81368 0.0
H1569 H 0.61007 0.95543 0.01536 0.0
H1570 H 0.64914 0.9716 0.91276 0.0
H1571 H 0.66774 0.00294 0.94355 0.0
H1572 H 0.61149 0.99884 0.02768 0.0
H1573 H 0.61024 0.99757 0.08352 0.0
H1574 H 0.59993 0.97649 0.0532 0.0
H1575 H 0.61957 0.96513 0.093 0.0
H1576 H 0.6299 0.98614 0.12355 0.0
H1577 H 0.64454 0.97975 0.09487 0.0
H1578 H 0.68181 0.03265 0.98524 0.0
H1579 H 0.69055 0.05836 0.03476 0.0
H1580 H 0.64324 0.02201 0.11227 0.0
C1581 C 0.62266 0.96543 0.99951 0.0
C1582 C 0.62812 0.96096 0.96155 0.0
C1583 C 0.6445 0.9747 0.94155 0.0
C1584 C 0.65523 0.99251 0.95894 0.0
C1585 C 0.64945 0.99636 0.99643 0.0
C1586 C 0.63358 0.98318 0.01654 0.0
C1587 C 0.6304 0.9908 0.05654 0.0
C1588 C 0.61192 0.99094 0.05512 0.0
C1589 C 0.63115 0.9798 0.09421 0.0
C1590 C 0.64695 0.01039 0.05579 0.0
C1591 C 0.65774 0.01333 0.02083 0.0
C1592 C 0.67357 0.03044 0.01294 0.0
C1593 C 0.6785 0.04493 0.04153 0.0
C1594 C 0.66773 0.04224 0.07785 0.0
C1595 C 0.65175 0.02464 0.08483 0.0
H1596 H 0.64227 0.60996 0.14256 0.0
H1597 H 0.69364 0.659 0.10458 0.0
H1598 H 0.68596 0.6786 0.14874 0.0
H1599 H 0.61391 0.63205 0.14486 0.0
H1600 H 0.60081 0.61909 0.18966 0.0
H1601 H 0.61031 0.60905 0.15456 0.0
H1602 H 0.62743 0.6039 0.21592 0.0
H1603 H 0.61813 0.61408 0.25115 0.0
H1604 H 0.64295 0.62343 0.24783 0.0
H1605 H 0.67295 0.6928 0.19805 0.0
H1606 H 0.65516 0.70066 0.24753 0.0
H1607 H 0.61191 0.64244 0.25189 0.0
C1608 C 0.65177 0.62486 0.14301 0.0
C1609 C 0.66857 0.63294 0.12006 0.0
C1610 C 0.68079 0.65246 0.1222 0.0
C1611 C 0.67652 0.66372 0.14708 0.0
C1612 C 0.65996 0.65527 0.16964 0.0
C1613 C 0.64774 0.6363 0.1677 0.0
C1614 C 0.63095 0.63068 0.19531 0.0
C1615 C 0.61293 0.62222 0.16955 0.0
C1616 C 0.62981 0.61723 0.22958 0.0
C1617 C 0.63565 0.64945 0.2131 0.0
C1618 C 0.65245 0.66345 0.19794 0.0
C1619 C 0.65972 0.68196 0.20996 0.0
C1620 C 0.64947 0.6863 0.23796 0.0
C1621 C 0.63211 0.6722 0.25364 0.0
C1622 C 0.62524 0.65353 0.24101 0.0
H1623 H 0.04645 0.65726 0.35273 0.0
H1624 H 0.03078 0.68112 0.25126 0.0
H1625 H 5e-05 0.67 0.284 0.0
H1626 H 0.0023 0.61665 0.36715 0.0
H1627 H 0.00411 0.61675 0.42289 0.0
H1628 H 0.02485 0.62665 0.39151 0.0
H1629 H 0.03781 0.65791 0.43119 0.0
H1630 H 0.0171 0.64811 0.46274 0.0
H1631 H 0.02411 0.66926 0.43403 0.0
H1632 H 0.97077 0.65561 0.32716 0.0
H1633 H 0.94509 0.63889 0.37681 0.0
H1634 H 0.98078 0.62626 0.45238 0.0
C1635 C 0.0367 0.6604 0.33754 0.0
C1636 C 0.04111 0.67011 0.29933 0.0
C1637 C 0.02769 0.67351 0.28021 0.0
C1638 C 0.01024 0.66737 0.29874 0.0
C1639 C 0.00644 0.65794 0.33648 0.0
C1640 C 0.01931 0.6545 0.3557 0.0
C1641 C 0.01174 0.64393 0.39595 0.0
C1642 C 0.01069 0.62487 0.39425 0.0
C1643 C 0.02339 0.6555 0.43318 0.0
C1644 C 0.99252 0.64181 0.39626 0.0
C1645 C 0.98974 0.65 0.36173 0.0
C1646 C 0.97286 0.64934 0.35458 0.0
C1647 C 0.95839 0.63992 0.38328 0.0
C1648 C 0.96085 0.63134 0.41896 0.0
C1649 C 0.9783 0.63252 0.42546 0.0
H1650 H 0.37265 0.04415 0.5128 0.0
H1651 H 0.3513 0.01922 0.39241 0.0
H1652 H 0.33246 0.98839 0.42589 0.0
H1653 H 0.37786 0.00734 0.55213 0.0
H1654 H 0.37129 0.00915 0.60451 0.0
H1655 H 0.38167 0.02939 0.57154 0.0
H1656 H 0.35337 0.03408 0.58372 0.0
H1657 H 0.34289 0.01384 0.61682 0.0
H1658 H 0.33022 0.01523 0.57283 0.0
H1659 H 0.317 0.9602 0.47235 0.0
H1660 H 0.30749 0.93643 0.52737 0.0
H1661 H 0.33949 0.9798 0.61735 0.0
C1662 C 0.36371 0.03225 0.49361 0.0
C1663 C 0.36322 0.03404 0.4501 0.0
C1664 C 0.35181 0.01809 0.42582 0.0
C1665 C 0.34102 0.00059 0.44458 0.0
C1666 C 0.34192 0.99929 0.48758 0.0
C1667 C 0.35304 0.01469 0.51177 0.0
C1668 C 0.35252 0.00936 0.55692 0.0
C1669 C 0.37199 0.01409 0.57215 0.0
C1670 C 0.34425 0.01868 0.58417 0.0
C1671 C 0.33953 0.98851 0.55434 0.0
C1672 C 0.33337 0.98301 0.51418 0.0
C1673 C 0.3216 0.96437 0.50396 0.0
C1674 C 0.31618 0.95098 0.5355 0.0
C1675 C 0.32265 0.95625 0.57673 0.0
C1676 C 0.33433 0.97533 0.58615 0.0
H1677 H 0.32733 0.35241 0.63914 0.0
H1678 H 0.36093 0.41037 0.67552 0.0
H1679 H 0.37645 0.40156 0.72885 0.0
H1680 H 0.32143 0.33252 0.74251 0.0
H1681 H 0.32335 0.31286 0.72523 0.0
H1682 H 0.31426 0.32351 0.69075 0.0
H1683 H 0.33926 0.32857 0.63597 0.0
H1684 H 0.34838 0.31789 0.67022 0.0
H1685 H 0.36353 0.341 0.65034 0.0
H1686 H 0.38857 0.38683 0.77736 0.0
H1687 H 0.39799 0.36722 0.81586 0.0
H1688 H 0.35696 0.31856 0.7483 0.0
C1689 C 0.33789 0.36318 0.65854 0.0
C1690 C 0.34303 0.38208 0.65313 0.0
C1691 C 0.35699 0.39585 0.67882 0.0
C1692 C 0.36577 0.39097 0.70938 0.0
C1693 C 0.36049 0.37226 0.71383 0.0
C1694 C 0.34698 0.35857 0.68904 0.0
C1695 C 0.3445 0.3396 0.69939 0.0
C1696 C 0.32471 0.32634 0.71543 0.0
C1697 C 0.34921 0.33128 0.66174 0.0
C1698 C 0.35882 0.34483 0.73363 0.0
C1699 C 0.36772 0.36373 0.74169 0.0
C1700 C 0.38163 0.37199 0.77155 0.0
C1701 C 0.38679 0.36069 0.7935 0.0
C1702 C 0.37812 0.34131 0.78541 0.0
C1703 C 0.36386 0.33332 0.75517 0.0
loop_
_geom_bond_atom_site_label_1
_geom_bond_atom_site_label_2
_geom_bond_distance
_geom_bond_site_symmetry_2
_ccdc_geom_bond_type
Li0 N17 1.990 . S
Li0 O60 1.956 . S
Li0 O61 1.970 . S
Li0 O62 1.961 1_554 S
Li1 N25 1.990 . S
Li1 O60 1.970 . S
Li1 O61 1.956 . S
Li1 O63 1.961 . S
Li2 N47 1.990 . S
Li2 O60 1.961 1_556 S
Li2 O62 1.956 . S
Li2 O63 1.970 1_556 S
Li3 N53 1.990 . S
Li3 O61 1.961 . S
Li3 O62 1.970 1_554 S
Li3 O63 1.956 . S
C4 C6 1.348 . S
C4 C7 1.356 . S
C4 O60 1.325 . S
N5 C8 1.314 . S
N5 C9 1.279 . S
C6 C4 1.348 . S
C6 C8 1.353 . S
C6 H64 0.929 . S
C7 C4 1.356 . S
C7 C9 1.358 . S
C7 H65 0.920 1_554 S
C8 N5 1.314 . S
C8 C6 1.353 . S
C8 H66 0.930 . S
C9 N5 1.279 . S
C9 C7 1.358 . S
C9 H67 0.930 . S
C10 C13 1.348 . S
C10 C14 1.356 . S
C10 O61 1.325 . S
C11 N12 1.279 . S
C11 C14 1.358 . S
C11 H68 0.930 . S
N12 C11 1.279 . S
N12 C15 1.314 . S
C13 C10 1.348 . S
C13 C15 1.353 . S
C13 H69 0.929 . S
C14 C10 1.356 . S
C14 C11 1.358 . S
C14 H70 0.930 . S
C15 N12 1.314 . S
C15 C13 1.353 . S
C15 H71 0.930 . S
C16 N17 1.314 . S
C16 C21 1.353 . S
C16 H22 0.930 . S
N17 Li0 1.990 . S
N17 C16 1.314 . S
N17 C19 1.279 . S
C18 C19 1.358 . S
C18 C20 1.356 . S
C18 H72 0.930 . S
C19 N17 1.279 . S
C19 C18 1.358 . S
C19 H23 0.930 . S
C20 C18 1.356 . S
C20 C21 1.348 . S
C21 C16 1.353 . S
C21 C20 1.348 . S
C21 H73 0.929 . S
H22 C16 0.930 . S
H23 C19 0.930 . S
C24 N25 1.314 . S
C24 C26 1.353 . S
C24 H30 0.930 . S
N25 Li1 1.990 . S
N25 C24 1.314 . S
N25 C28 1.279 . S
C26 C24 1.353 . S
C26 C29 1.348 . S
C26 H74 0.929 . S
C27 C28 1.358 . S
C27 C29 1.356 . S
C27 H75 0.930 . S
C28 N25 1.279 . S
C28 C27 1.358 . S
C28 H31 0.930 . S
C29 C26 1.348 . S
C29 C27 1.356 . S
H30 C24 0.930 . S
H31 C28 0.930 . S
C32 C34 1.348 . S
C32 C35 1.356 . S
C32 O62 1.325 . S
N33 C36 1.314 . S
N33 C37 1.279 . S
C34 C32 1.348 . S
C34 C36 1.353 . S
C34 H76 0.929 . S
C35 C32 1.356 . S
C35 C37 1.358 . S
C35 H77 0.930 . S
C36 N33 1.314 . S
C36 C34 1.353 . S
C36 H78 0.930 . S
C37 N33 1.279 . S
C37 C35 1.358 . S
C37 H79 0.930 . S
C38 C39 1.348 1_554 S
C38 C40 1.356 . S
C38 O63 1.325 . S
C39 C38 1.348 1_556 S
C39 C41 1.353 . S
C39 H80 0.929 . S
C40 C38 1.356 . S
C40 C42 1.358 . S
C40 H81 0.930 . S
C41 C39 1.353 . S
C41 N43 1.332 . S
C41 H82 0.930 . S
C42 C40 1.358 . S
C42 N43 1.257 1_554 S
C42 H83 0.930 . S
N43 C41 1.332 . S
N43 C42 1.257 1_556 S
C44 C46 1.353 . S
C44 N47 1.314 . S
C44 H50 0.930 . S
C45 N47 1.279 . S
C45 C48 1.358 . S
C45 H51 0.930 . S
C46 C44 1.353 . S
C46 C49 1.348 . S
C46 H84 0.929 . S
N47 Li2 1.990 . S
N47 C44 1.314 . S
N47 C45 1.279 . S
C48 C45 1.358 . S
C48 C49 1.356 . S
C48 H85 0.930 . S
C49 C46 1.348 . S
C49 C48 1.356 . S
H50 C44 0.930 . S
H51 C45 0.930 . S
C52 N53 1.314 . S
C52 C54 1.353 . S
C52 H58 0.930 . S
N53 Li3 1.990 . S
N53 C52 1.314 . S
N53 C56 1.279 1_554 S
C54 C52 1.353 . S
C54 C57 1.348 1_554 S
C54 H86 0.929 . S
C55 C56 1.358 . S
C55 C57 1.356 . S
C55 H87 0.930 . S
C56 N53 1.279 1_556 S
C56 C55 1.358 . S
C56 H59 0.930 . S
C57 C54 1.348 1_556 S
C57 C55 1.356 . S
H58 C52 0.930 . S
H59 C56 0.930 . S
O60 Li0 1.956 . S
O60 Li1 1.970 . S
O60 Li2 1.961 1_554 S
O60 C4 1.325 . S
O61 Li0 1.970 . S
O61 Li1 1.956 . S
O61 Li3 1.961 . S
O61 C10 1.325 . S
O62 Li0 1.961 1_556 S
O62 Li2 1.956 . S
O62 Li3 1.970 1_556 S
O62 C32 1.325 . S
O63 Li1 1.961 . S
O63 Li2 1.970 1_554 S
O63 Li3 1.956 . S
O63 C38 1.325 . S
H64 C6 0.929 . S
H65 C7 0.920 1_556 S
H66 C8 0.930 . S
H67 C9 0.930 . S
H68 C11 0.930 . S
H69 C13 0.929 . S
H70 C14 0.930 . S
H71 C15 0.930 . S
H72 C18 0.930 . S
H73 C21 0.929 . S
H74 C26 0.929 . S
H75 C27 0.930 . S
H76 C34 0.929 . S
H77 C35 0.930 . S
H78 C36 0.930 . S
H79 C37 0.930 . S
H80 C39 0.929 . S
H81 C40 0.930 . S
H82 C41 0.930 . S
H83 C42 0.930 . S
H84 C46 0.929 . S
H85 C48 0.930 . S
H86 C54 0.929 . S
H87 C55 0.930 . S
Li88 N105 1.990 . S
Li88 O148 1.956 . S
Li88 O149 1.970 . S
Li88 O150 1.961 . S
Li89 N113 1.990 . S
Li89 O148 1.970 . S
Li89 O149 1.956 . S
Li89 O151 1.961 . S
Li90 N135 1.990 . S
Li90 O148 1.961 . S
Li90 O150 1.956 . S
Li90 O151 1.970 . S
Li91 N141 1.990 . S
Li91 O149 1.961 . S
Li91 O150 1.970 . S
Li91 O151 1.956 . S
C92 C94 1.348 . S
C92 C95 1.356 . S
C92 O148 1.325 . S
N93 C96 1.314 . S
N93 C97 1.279 . S
C94 C92 1.348 . S
C94 C96 1.353 . S
C94 H152 0.929 . S
C95 C92 1.356 . S
C95 C97 1.358 . S
C95 H153 0.930 . S
C96 N93 1.314 . S
C96 C94 1.353 . S
C96 H154 0.930 . S
C97 N93 1.279 . S
C97 C95 1.358 . S
C97 H155 0.930 . S
C98 C101 1.348 . S
C98 C102 1.356 . S
C98 O149 1.325 . S
C99 N100 1.279 . S
C99 C102 1.358 . S
C99 H156 0.930 . S
N100 C99 1.279 . S
N100 C103 1.314 . S
C101 C98 1.348 . S
C101 C103 1.353 . S
C101 H157 0.929 . S
C102 C98 1.356 . S
C102 C99 1.358 . S
C102 H158 0.930 . S
C103 N100 1.314 . S
C103 C101 1.353 . S
C103 H159 0.930 . S
C104 N105 1.314 . S
C104 C109 1.353 . S
C104 H110 0.930 . S
N105 Li88 1.990 . S
N105 C104 1.314 . S
N105 C107 1.279 . S
C106 C107 1.358 . S
C106 C108 1.356 . S
C106 H160 0.930 . S
C107 N105 1.279 . S
C107 C106 1.358 . S
C107 H111 0.930 . S
C108 C106 1.356 . S
C108 C109 1.348 . S
C109 C104 1.353 . S
C109 C108 1.348 . S
C109 H161 0.929 . S
H110 C104 0.930 . S
H111 C107 0.930 . S
C112 N113 1.314 . S
C112 C114 1.353 . S
C112 H118 0.930 . S
N113 Li89 1.990 . S
N113 C112 1.314 . S
N113 C116 1.279 . S
C114 C112 1.353 . S
C114 C117 1.348 . S
C114 H162 0.929 . S
C115 C116 1.358 . S
C115 C117 1.356 . S
C115 H163 0.930 . S
C116 N113 1.279 . S
C116 C115 1.358 . S
C116 H119 0.930 . S
C117 C114 1.348 . S
C117 C115 1.356 . S
H118 C112 0.930 . S
H119 C116 0.930 . S
C120 C122 1.348 . S
C120 C123 1.356 . S
C120 O150 1.325 . S
N121 C124 1.314 . S
N121 C125 1.279 . S
C122 C120 1.348 . S
C122 C124 1.353 . S
C122 H164 0.929 . S
C123 C120 1.356 . S
C123 C125 1.358 . S
C123 H165 0.930 . S
C124 N121 1.314 . S
C124 C122 1.353 . S
C124 H166 0.930 . S
C125 N121 1.279 . S
C125 C123 1.358 . S
C125 H167 0.930 . S
C126 C127 1.348 . S
C126 C128 1.356 . S
C126 O151 1.325 . S
C127 C126 1.348 . S
C127 C129 1.353 . S
C127 H168 0.929 . S
C128 C126 1.356 . S
C128 C130 1.358 . S
C128 H169 0.930 . S
C129 C127 1.353 . S
C129 N131 1.314 . S
C129 H170 0.930 . S
C130 C128 1.358 . S
C130 N131 1.279 . S
C130 H171 0.930 . S
N131 C129 1.314 . S
N131 C130 1.279 . S
C132 C134 1.353 . S
C132 N135 1.314 . S
C132 H138 0.930 . S
C133 N135 1.279 . S
C133 C136 1.358 . S
C133 H139 0.930 . S
C134 C132 1.353 . S
C134 C137 1.348 . S
C134 H172 0.929 . S
N135 Li90 1.990 . S
N135 C132 1.314 . S
N135 C133 1.279 . S
C136 C133 1.358 . S
C136 C137 1.356 . S
C136 H173 0.930 . S
C137 C134 1.348 . S
C137 C136 1.356 . S
H138 C132 0.930 . S
H139 C133 0.930 . S
C140 N141 1.314 . S
C140 C142 1.353 . S
C140 H146 0.930 . S
N141 Li91 1.990 . S
N141 C140 1.314 . S
N141 C144 1.279 . S
C142 C140 1.353 . S
C142 C145 1.348 . S
C142 H174 0.929 . S
C143 C144 1.358 . S
C143 C145 1.356 . S
C143 H175 0.930 . S
C144 N141 1.279 . S
C144 C143 1.358 . S
C144 H147 0.930 . S
C145 C142 1.348 . S
C145 C143 1.356 . S
H146 C140 0.930 . S
H147 C144 0.930 . S
O148 Li88 1.956 . S
O148 Li89 1.970 . S
O148 Li90 1.961 . S
O148 C92 1.325 . S
O149 Li88 1.970 . S
O149 Li89 1.956 . S
O149 Li91 1.961 . S
O149 C98 1.325 . S
O150 Li88 1.961 . S
O150 Li90 1.956 . S
O150 Li91 1.970 . S
O150 C120 1.325 . S
O151 Li89 1.961 . S
O151 Li90 1.970 . S
O151 Li91 1.956 . S
O151 C126 1.325 . S
H152 C94 0.929 . S
H153 C95 0.930 . S
H154 C96 0.930 . S
H155 C97 0.930 . S
H156 C99 0.930 . S
H157 C101 0.929 . S
H158 C102 0.930 . S
H159 C103 0.930 . S
H160 C106 0.930 . S
H161 C109 0.929 . S
H162 C114 0.929 . S
H163 C115 0.930 . S
H164 C122 0.929 . S
H165 C123 0.930 . S
H166 C124 0.930 . S
H167 C125 0.930 . S
H168 C127 0.929 . S
H169 C128 0.930 . S
H170 C129 0.930 . S
H171 C130 0.930 . S
H172 C134 0.929 . S
H173 C136 0.930 . S
H174 C142 0.929 . S
H175 C143 0.930 . S
Li176 N193 1.990 . S
Li176 O236 1.956 . S
Li176 O237 1.970 . S
Li176 O238 1.961 . S
Li177 N201 1.990 . S
Li177 O236 1.970 . S
Li177 O237 1.956 . S
Li177 O239 1.961 . S
Li178 N223 1.990 . S
Li178 O236 1.961 . S
Li178 O238 1.956 . S
Li178 O239 1.970 . S
Li179 N229 1.990 . S
Li179 O237 1.961 . S
Li179 O238 1.970 . S
Li179 O239 1.956 . S
C180 C182 1.348 . S
C180 C183 1.356 . S
C180 O236 1.325 . S
N181 C184 1.314 . S
N181 C185 1.279 . S
C182 C180 1.348 . S
C182 C184 1.353 . S
C182 H240 0.929 . S
C183 C180 1.356 . S
C183 C185 1.358 . S
C183 H241 0.930 . S
C184 N181 1.314 . S
C184 C182 1.353 . S
C184 H242 0.930 . S
C185 N181 1.279 . S
C185 C183 1.358 . S
C185 H243 0.930 . S
C186 C189 1.348 . S
C186 C190 1.356 . S
C186 O237 1.325 . S
C187 N188 1.279 . S
C187 C190 1.358 . S
C187 H244 0.930 . S
N188 C187 1.279 . S
N188 C191 1.314 . S
C189 C186 1.348 . S
C189 C191 1.353 . S
C189 H245 0.929 . S
C190 C186 1.356 . S
C190 C187 1.358 . S
C190 H246 0.930 . S
C191 N188 1.314 . S
C191 C189 1.353 . S
C191 H247 0.930 . S
C192 N193 1.314 . S
C192 C197 1.353 . S
C192 H198 0.930 . S
N193 Li176 1.990 . S
N193 C192 1.314 . S
N193 C195 1.279 . S
C194 C195 1.358 . S
C194 C196 1.356 . S
C194 H248 0.930 . S
C195 N193 1.279 . S
C195 C194 1.358 . S
C195 H199 0.930 . S
C196 C194 1.356 . S
C196 C197 1.348 . S
C197 C192 1.353 . S
C197 C196 1.348 . S
C197 H249 0.929 . S
H198 C192 0.930 . S
H199 C195 0.930 . S
C200 N201 1.314 . S
C200 C202 1.353 . S
C200 H206 0.930 . S
N201 Li177 1.990 . S
N201 C200 1.314 . S
N201 C204 1.279 . S
C202 C200 1.353 . S
C202 C205 1.348 . S
C202 H250 0.929 . S
C203 C204 1.358 . S
C203 C205 1.356 . S
C203 H251 0.930 . S
C204 N201 1.279 . S
C204 C203 1.358 . S
C204 H207 0.930 . S
C205 C202 1.348 . S
C205 C203 1.356 . S
H206 C200 0.930 . S
H207 C204 0.930 . S
C208 C210 1.348 . S
C208 C211 1.356 . S
C208 O238 1.325 . S
N209 C212 1.314 . S
N209 C213 1.279 . S
C210 C208 1.348 . S
C210 C212 1.353 . S
C210 H252 0.929 . S
C211 C208 1.356 . S
C211 C213 1.358 . S
C211 H253 0.930 . S
C212 N209 1.314 . S
C212 C210 1.353 . S
C212 H254 0.930 . S
C213 N209 1.279 . S
C213 C211 1.358 . S
C213 H255 0.930 . S
C214 C215 1.348 . S
C214 C216 1.356 . S
C214 O239 1.325 . S
C215 C214 1.348 . S
C215 C217 1.353 . S
C215 H256 0.929 . S
C216 C214 1.356 . S
C216 C218 1.358 . S
C216 H257 0.930 . S
C217 C215 1.353 . S
C217 N219 1.314 . S
C217 H258 0.930 . S
C218 C216 1.358 . S
C218 N219 1.279 . S
C218 H259 0.930 . S
N219 C217 1.314 . S
N219 C218 1.279 . S
C220 C222 1.353 . S
C220 N223 1.314 . S
C220 H226 0.930 . S
C221 N223 1.279 . S
C221 C224 1.358 . S
C221 H227 0.930 . S
C222 C220 1.353 . S
C222 C225 1.348 . S
C222 H260 0.929 . S
N223 Li178 1.990 . S
N223 C220 1.314 . S
N223 C221 1.279 . S
C224 C221 1.358 . S
C224 C225 1.356 . S
C224 H261 0.930 . S
C225 C222 1.348 . S
C225 C224 1.356 . S
H226 C220 0.930 . S
H227 C221 0.930 . S
C228 N229 1.314 . S
C228 C230 1.353 . S
C228 H234 0.930 . S
N229 Li179 1.990 . S
N229 C228 1.314 . S
N229 C232 1.279 . S
C230 C228 1.353 . S
C230 C233 1.348 . S
C230 H262 0.929 . S
C231 C232 1.358 . S
C231 C233 1.356 . S
C231 H263 0.930 . S
C232 N229 1.279 . S
C232 C231 1.358 . S
C232 H235 0.930 . S
C233 C230 1.348 . S
C233 C231 1.356 . S
H234 C228 0.930 . S
H235 C232 0.930 . S
O236 Li176 1.956 . S
O236 Li177 1.970 . S
O236 Li178 1.961 . S
O236 C180 1.325 . S
O237 Li176 1.970 . S
O237 Li177 1.956 . S
O237 Li179 1.961 . S
O237 C186 1.325 . S
O238 Li176 1.961 . S
O238 Li178 1.956 . S
O238 Li179 1.970 . S
O238 C208 1.325 . S
O239 Li177 1.961 . S
O239 Li178 1.970 . S
O239 Li179 1.956 . S
O239 C214 1.325 . S
H240 C182 0.929 . S
H241 C183 0.930 . S
H242 C184 0.930 . S
H243 C185 0.930 . S
H244 C187 0.930 . S
H245 C189 0.929 . S
H246 C190 0.930 . S
H247 C191 0.930 . S
H248 C194 0.930 . S
H249 C197 0.929 . S
H250 C202 0.929 . S
H251 C203 0.930 . S
H252 C210 0.929 . S
H253 C211 0.930 . S
H254 C212 0.930 . S
H255 C213 0.930 . S
H256 C215 0.929 . S
H257 C216 0.930 . S
H258 C217 0.930 . S
H259 C218 0.930 . S
H260 C222 0.929 . S
H261 C224 0.930 . S
H262 C230 0.929 . S
H263 C231 0.930 . S
Li264 N281 1.990 . S
Li264 O324 1.956 . S
Li264 O325 1.970 . S
Li264 O326 1.961 . S
Li265 N289 1.990 . S
Li265 O324 1.970 . S
Li265 O325 1.956 . S
Li265 O327 1.961 . S
Li266 N311 1.990 . S
Li266 O324 1.961 . S
Li266 O326 1.956 . S
Li266 O327 1.970 . S
Li267 N317 1.990 . S
Li267 O325 1.961 . S
Li267 O326 1.970 . S
Li267 O327 1.956 . S
C268 C270 1.348 . S
C268 C271 1.356 . S
C268 O324 1.325 . S
N269 C272 1.314 . S
N269 C273 1.279 . S
C270 C268 1.348 . S
C270 C272 1.353 . S
C270 H328 0.929 . S
C271 C268 1.356 . S
C271 C273 1.358 . S
C271 H329 0.930 . S
C272 N269 1.314 . S
C272 C270 1.353 . S
C272 H330 0.930 . S
C273 N269 1.279 . S
C273 C271 1.358 . S
C273 H331 0.930 . S
C274 C277 1.348 . S
C274 C278 1.356 . S
C274 O325 1.325 . S
C275 N276 1.279 . S
C275 C278 1.358 . S
C275 H332 0.930 . S
N276 C275 1.279 . S
N276 C279 1.314 . S
C277 C274 1.348 . S
C277 C279 1.353 . S
C277 H333 0.929 . S
C278 C274 1.356 . S
C278 C275 1.358 . S
C278 H334 0.930 . S
C279 N276 1.314 . S
C279 C277 1.353 . S
C279 H335 0.930 . S
C280 N281 1.314 . S
C280 C285 1.353 . S
C280 H286 0.930 . S
N281 Li264 1.990 . S
N281 C280 1.314 . S
N281 C283 1.279 . S
C282 C283 1.358 . S
C282 C284 1.356 . S
C282 H336 0.930 . S
C283 N281 1.279 . S
C283 C282 1.358 . S
C283 H287 0.930 . S
C284 C282 1.356 . S
C284 C285 1.348 . S
C285 C280 1.353 . S
C285 C284 1.348 . S
C285 H337 0.929 . S
H286 C280 0.930 . S
H287 C283 0.930 . S
C288 N289 1.314 . S
C288 C290 1.353 . S
C288 H294 0.930 . S
N289 Li265 1.990 . S
N289 C288 1.314 . S
N289 C292 1.279 . S
C290 C288 1.353 . S
C290 C293 1.348 . S
C290 H338 0.929 . S
C291 C292 1.358 . S
C291 C293 1.356 . S
C291 H339 0.930 . S
C292 N289 1.279 . S
C292 C291 1.358 . S
C292 H295 0.930 . S
C293 C290 1.348 . S
C293 C291 1.356 . S
H294 C288 0.930 . S
H295 C292 0.930 . S
C296 C298 1.348 . S
C296 C299 1.356 . S
C296 O326 1.325 . S
N297 C300 1.314 . S
N297 C301 1.279 . S
C298 C296 1.348 . S
C298 C300 1.353 . S
C298 H340 0.929 . S
C299 C296 1.356 . S
C299 C301 1.358 . S
C299 H341 0.930 . S
C300 N297 1.314 . S
C300 C298 1.353 . S
C300 H342 0.930 . S
C301 N297 1.279 . S
C301 C299 1.358 . S
C301 H343 0.930 . S
C302 C303 1.348 . S
C302 C304 1.356 . S
C302 O327 1.325 . S
C303 C302 1.348 . S
C303 C305 1.353 . S
C303 H344 0.929 . S
C304 C302 1.356 . S
C304 C306 1.358 . S
C304 H345 0.930 . S
C305 C303 1.353 . S
C305 N307 1.314 . S
C305 H346 0.930 . S
C306 C304 1.358 . S
C306 N307 1.279 . S
C306 H347 0.930 . S
N307 C305 1.314 . S
N307 C306 1.279 . S
C308 C310 1.353 . S
C308 N311 1.314 . S
C308 H314 0.930 . S
C309 N311 1.279 . S
C309 C312 1.358 . S
C309 H315 0.930 . S
C310 C308 1.353 . S
C310 C313 1.348 . S
C310 H348 0.929 . S
N311 Li266 1.990 . S
N311 C308 1.314 . S
N311 C309 1.279 . S
C312 C309 1.358 . S
C312 C313 1.356 . S
C312 H349 0.930 . S
C313 C310 1.348 . S
C313 C312 1.356 . S
H314 C308 0.930 . S
H315 C309 0.930 . S
C316 N317 1.314 . S
C316 C318 1.353 . S
C316 H322 0.930 . S
N317 Li267 1.990 . S
N317 C316 1.314 . S
N317 C320 1.279 . S
C318 C316 1.353 . S
C318 C321 1.348 . S
C318 H350 0.929 . S
C319 C320 1.358 . S
C319 C321 1.356 . S
C319 H351 0.930 . S
C320 N317 1.279 . S
C320 C319 1.358 . S
C320 H323 0.930 . S
C321 C318 1.348 . S
C321 C319 1.356 . S
H322 C316 0.930 . S
H323 C320 0.930 . S
O324 Li264 1.956 . S
O324 Li265 1.970 . S
O324 Li266 1.961 . S
O324 C268 1.325 . S
O325 Li264 1.970 . S
O325 Li265 1.956 . S
O325 Li267 1.961 . S
O325 C274 1.325 . S
O326 Li264 1.961 . S
O326 Li266 1.956 . S
O326 Li267 1.970 . S
O326 C296 1.325 . S
O327 Li265 1.961 . S
O327 Li266 1.970 . S
O327 Li267 1.956 . S
O327 C302 1.325 . S
H328 C270 0.929 . S
H329 C271 0.930 . S
H330 C272 0.930 . S
H331 C273 0.930 . S
H332 C275 0.930 . S
H333 C277 0.929 . S
H334 C278 0.930 . S
H335 C279 0.930 . S
H336 C282 0.930 . S
H337 C285 0.929 . S
H338 C290 0.929 . S
H339 C291 0.930 . S
H340 C298 0.929 . S
H341 C299 0.930 . S
H342 C300 0.930 . S
H343 C301 0.930 . S
H344 C303 0.929 . S
H345 C304 0.930 . S
H346 C305 0.930 . S
H347 C306 0.930 . S
H348 C310 0.929 . S
H349 C312 0.930 . S
H350 C318 0.929 . S
H351 C319 0.930 . S
Li352 N369 1.990 . S
Li352 O412 1.956 . S
Li352 O413 1.970 . S
Li352 O414 1.961 . S
Li353 N377 1.990 . S
Li353 O412 1.970 . S
Li353 O413 1.956 . S
Li353 O415 1.961 . S
Li354 N399 1.990 . S
Li354 O412 1.961 . S
Li354 O414 1.956 . S
Li354 O415 1.970 . S
Li355 N405 1.990 . S
Li355 O413 1.961 . S
Li355 O414 1.970 . S
Li355 O415 1.956 . S
C356 C358 1.348 . S
C356 C359 1.356 . S
C356 O412 1.325 . S
N357 C360 1.314 . S
N357 C361 1.279 . S
C358 C356 1.348 . S
C358 C360 1.353 . S
C358 H416 0.929 . S
C359 C356 1.356 . S
C359 C361 1.358 . S
C359 H417 0.930 . S
C360 N357 1.314 . S
C360 C358 1.353 . S
C360 H418 0.930 . S
C361 N357 1.279 . S
C361 C359 1.358 . S
C361 H419 0.930 . S
C362 C365 1.348 . S
C362 C366 1.356 . S
C362 O413 1.325 . S
C363 N364 1.279 . S
C363 C366 1.358 . S
C363 H420 0.930 . S
N364 C363 1.279 . S
N364 C367 1.314 . S
C365 C362 1.348 . S
C365 C367 1.353 . S
C365 H421 0.929 . S
C366 C362 1.356 . S
C366 C363 1.358 . S
C366 H422 0.930 . S
C367 N364 1.314 . S
C367 C365 1.353 . S
C367 H423 0.930 . S
C368 N369 1.314 . S
C368 C373 1.353 . S
C368 H374 0.930 . S
N369 Li352 1.990 . S
N369 C368 1.314 . S
N369 C371 1.279 . S
C370 C371 1.358 . S
C370 C372 1.356 . S
C370 H424 0.930 . S
C371 N369 1.279 . S
C371 C370 1.358 . S
C371 H375 0.930 . S
C372 C370 1.356 . S
C372 C373 1.348 . S
C373 C368 1.353 . S
C373 C372 1.348 . S
C373 H425 0.929 . S
H374 C368 0.930 . S
H375 C371 0.930 . S
C376 N377 1.314 . S
C376 C378 1.353 . S
C376 H382 0.930 . S
N377 Li353 1.990 . S
N377 C376 1.314 . S
N377 C380 1.279 . S
C378 C376 1.353 . S
C378 C381 1.348 . S
C378 H426 0.929 . S
C379 C380 1.358 . S
C379 C381 1.356 . S
C379 H427 0.930 . S
C380 N377 1.279 . S
C380 C379 1.358 . S
C380 H383 0.930 . S
C381 C378 1.348 . S
C381 C379 1.356 . S
H382 C376 0.930 . S
H383 C380 0.930 . S
C384 C386 1.348 . S
C384 C387 1.356 . S
C384 O414 1.325 . S
N385 C388 1.314 . S
N385 C389 1.279 . S
C386 C384 1.348 . S
C386 C388 1.353 . S
C386 H428 0.929 . S
C387 C384 1.356 . S
C387 C389 1.358 . S
C387 H429 0.930 . S
C388 N385 1.314 . S
C388 C386 1.353 . S
C388 H430 0.930 . S
C389 N385 1.279 . S
C389 C387 1.358 . S
C389 H431 0.930 . S
C390 C391 1.348 . S
C390 C392 1.356 . S
C390 O415 1.325 . S
C391 C390 1.348 . S
C391 C393 1.353 . S
C391 H432 0.929 . S
C392 C390 1.356 . S
C392 C394 1.358 . S
C392 H433 0.930 . S
C393 C391 1.353 . S
C393 N395 1.314 . S
C393 H434 0.930 . S
C394 C392 1.358 . S
C394 N395 1.279 . S
C394 H435 0.930 . S
N395 C393 1.314 . S
N395 C394 1.279 . S
C396 C398 1.353 . S
C396 N399 1.314 . S
C396 H402 0.930 . S
C397 N399 1.279 . S
C397 C400 1.358 . S
C397 H403 0.930 . S
C398 C396 1.353 . S
C398 C401 1.348 . S
C398 H436 0.929 . S
N399 Li354 1.990 . S
N399 C396 1.314 . S
N399 C397 1.279 . S
C400 C397 1.358 . S
C400 C401 1.356 . S
C400 H437 0.930 . S
C401 C398 1.348 . S
C401 C400 1.356 . S
H402 C396 0.930 . S
H403 C397 0.930 . S
C404 N405 1.314 . S
C404 C406 1.353 . S
C404 H410 0.930 . S
N405 Li355 1.990 . S
N405 C404 1.314 . S
N405 C408 1.279 . S
C406 C404 1.353 . S
C406 C409 1.348 . S
C406 H438 0.929 . S
C407 C408 1.358 . S
C407 C409 1.356 . S
C407 H439 0.930 . S
C408 N405 1.279 . S
C408 C407 1.358 . S
C408 H411 0.930 . S
C409 C406 1.348 . S
C409 C407 1.356 . S
H410 C404 0.930 . S
H411 C408 0.930 . S
O412 Li352 1.956 . S
O412 Li353 1.970 . S
O412 Li354 1.961 . S
O412 C356 1.325 . S
O413 Li352 1.970 . S
O413 Li353 1.956 . S
O413 Li355 1.961 . S
O413 C362 1.325 . S
O414 Li352 1.961 . S
O414 Li354 1.956 . S
O414 Li355 1.970 . S
O414 C384 1.325 . S
O415 Li353 1.961 . S
O415 Li354 1.970 . S
O415 Li355 1.956 . S
O415 C390 1.325 . S
H416 C358 0.929 . S
H417 C359 0.930 . S
H418 C360 0.930 . S
H419 C361 0.930 . S
H420 C363 0.930 . S
H421 C365 0.929 . S
H422 C366 0.930 . S
H423 C367 0.930 . S
H424 C370 0.930 . S
H425 C373 0.929 . S
H426 C378 0.929 . S
H427 C379 0.930 . S
H428 C386 0.929 . S
H429 C387 0.930 . S
H430 C388 0.930 . S
H431 C389 0.930 . S
H432 C391 0.929 . S
H433 C392 0.930 . S
H434 C393 0.930 . S
H435 C394 0.930 . S
H436 C398 0.929 . S
H437 C400 0.930 . S
H438 C406 0.929 . S
H439 C407 0.930 . S
Li440 N457 1.990 . S
Li440 O500 1.956 . S
Li440 O501 1.970 . S
Li440 O502 1.961 . S
Li441 N465 1.990 . S
Li441 O500 1.970 . S
Li441 O501 1.956 . S
Li441 O503 1.961 . S
Li442 N487 1.990 . S
Li442 O500 1.961 . S
Li442 O502 1.956 . S
Li442 O503 1.970 . S
Li443 N493 1.990 . S
Li443 O501 1.961 . S
Li443 O502 1.970 . S
Li443 O503 1.956 . S
C444 C446 1.348 . S
C444 C447 1.356 . S
C444 O500 1.325 . S
N445 C448 1.314 . S
N445 C449 1.279 . S
C446 C444 1.348 . S
C446 C448 1.353 . S
C446 H504 0.929 . S
C447 C444 1.356 . S
C447 C449 1.358 . S
C447 H505 0.930 . S
C448 N445 1.314 . S
C448 C446 1.353 . S
C448 H506 0.930 . S
C449 N445 1.279 . S
C449 C447 1.358 . S
C449 H507 0.930 . S
C450 C453 1.348 . S
C450 C454 1.356 . S
C450 O501 1.325 . S
C451 N452 1.279 1_556 S
C451 C454 1.358 . S
C451 H508 0.930 . S
N452 C451 1.279 1_554 S
N452 C455 1.314 1_554 S
C453 C450 1.348 . S
C453 C455 1.353 . S
C453 H509 0.929 . S
C454 C450 1.356 . S
C454 C451 1.358 . S
C454 H510 0.930 . S
C455 N452 1.314 1_556 S
C455 C453 1.353 . S
C455 H511 0.930 1_556 S
C456 N457 1.314 . S
C456 C461 1.353 . S
C456 H462 0.930 . S
N457 Li440 1.990 . S
N457 C456 1.314 . S
N457 C459 1.279 . S
C458 C459 1.358 . S
C458 C460 1.356 . S
C458 H512 0.930 . S
C459 N457 1.279 . S
C459 C458 1.358 . S
C459 H463 0.930 . S
C460 C458 1.356 . S
C460 C461 1.348 . S
C461 C456 1.353 . S
C461 C460 1.348 . S
C461 H513 0.929 . S
H462 C456 0.930 . S
H463 C459 0.930 . S
C464 N465 1.314 . S
C464 C466 1.353 . S
C464 H470 0.930 . S
N465 Li441 1.990 . S
N465 C464 1.314 . S
N465 C468 1.279 . S
C466 C464 1.353 . S
C466 C469 1.348 1_556 S
C466 H514 0.929 . S
C467 C468 1.358 1_554 S
C467 C469 1.356 . S
C467 H515 0.930 . S
C468 N465 1.279 . S
C468 C467 1.358 1_556 S
C468 H471 0.930 . S
C469 C466 1.348 1_554 S
C469 C467 1.356 . S
H470 C464 0.930 . S
H471 C468 0.930 . S
C472 C474 1.348 . S
C472 C475 1.356 . S
C472 O502 1.325 . S
N473 C476 1.314 . S
N473 C477 1.279 . S
C474 C472 1.348 . S
C474 C476 1.353 . S
C474 H516 0.929 . S
C475 C472 1.356 . S
C475 C477 1.358 . S
C475 H517 0.930 . S
C476 N473 1.314 . S
C476 C474 1.353 . S
C476 H518 0.930 . S
C477 N473 1.279 . S
C477 C475 1.358 . S
C477 H519 0.930 . S
C478 C479 1.348 . S
C478 C480 1.356 . S
C478 O503 1.325 . S
C479 C478 1.348 . S
C479 C481 1.353 . S
C479 H520 0.929 . S
C480 C478 1.356 . S
C480 C482 1.358 . S
C480 H521 0.930 . S
C481 C479 1.353 . S
C481 N483 1.314 . S
C481 H522 0.930 . S
C482 C480 1.358 . S
C482 N483 1.279 . S
C482 H523 0.930 . S
N483 C481 1.314 . S
N483 C482 1.279 . S
C484 C486 1.353 . S
C484 N487 1.314 . S
C484 H490 0.930 . S
C485 N487 1.279 . S
C485 C488 1.358 . S
C485 H491 0.930 . S
C486 C484 1.353 . S
C486 C489 1.348 . S
C486 H524 0.929 . S
N487 Li442 1.990 . S
N487 C484 1.314 . S
N487 C485 1.279 . S
C488 C485 1.358 . S
C488 C489 1.356 . S
C488 H525 0.930 . S
C489 C486 1.348 . S
C489 C488 1.356 . S
H490 C484 0.930 . S
H491 C485 0.930 . S
C492 N493 1.314 . S
C492 C494 1.353 . S
C492 H498 0.930 . S
N493 Li443 1.990 . S
N493 C492 1.314 . S
N493 C496 1.279 . S
C494 C492 1.353 . S
C494 C497 1.348 . S
C494 H526 0.929 . S
C495 C496 1.358 . S
C495 C497 1.356 . S
C495 H527 0.930 . S
C496 N493 1.279 . S
C496 C495 1.358 . S
C496 H499 0.930 . S
C497 C494 1.348 . S
C497 C495 1.356 . S
H498 C492 0.930 . S
H499 C496 0.930 . S
O500 Li440 1.956 . S
O500 Li441 1.970 . S
O500 Li442 1.961 . S
O500 C444 1.325 . S
O501 Li440 1.970 . S
O501 Li441 1.956 . S
O501 Li443 1.961 . S
O501 C450 1.325 . S
O502 Li440 1.961 . S
O502 Li442 1.956 . S
O502 Li443 1.970 . S
O502 C472 1.325 . S
O503 Li441 1.961 . S
O503 Li442 1.970 . S
O503 Li443 1.956 . S
O503 C478 1.325 . S
H504 C446 0.929 . S
H505 C447 0.930 . S
H506 C448 0.930 . S
H507 C449 0.930 . S
H508 C451 0.930 . S
H509 C453 0.929 . S
H510 C454 0.930 . S
H511 C455 0.930 1_554 S
H512 C458 0.930 . S
H513 C461 0.929 . S
H514 C466 0.929 . S
H515 C467 0.930 . S
H516 C474 0.929 . S
H517 C475 0.930 . S
H518 C476 0.930 . S
H519 C477 0.930 . S
H520 C479 0.929 . S
H521 C480 0.930 . S
H522 C481 0.930 . S
H523 C482 0.930 . S
H524 C486 0.929 . S
H525 C488 0.930 . S
H526 C494 0.929 . S
H527 C495 0.930 . S
Li528 N545 1.990 . S
Li528 O588 1.956 . S
Li528 O589 1.970 . S
Li528 O590 1.961 . S
Li529 N553 1.990 . S
Li529 O588 1.970 . S
Li529 O589 1.956 . S
Li529 O591 1.961 . S
Li530 N575 1.990 . S
Li530 O588 1.961 . S
Li530 O590 1.956 . S
Li530 O591 1.970 . S
Li531 N581 1.990 . S
Li531 O589 1.961 . S
Li531 O590 1.970 . S
Li531 O591 1.956 . S
C532 C534 1.348 . S
C532 C535 1.356 . S
C532 O588 1.325 . S
N533 C536 1.314 . S
N533 C537 1.279 . S
C534 C532 1.348 . S
C534 C536 1.353 . S
C534 H592 0.929 . S
C535 C532 1.356 . S
C535 C537 1.358 . S
C535 H593 0.930 . S
C536 N533 1.314 . S
C536 C534 1.353 . S
C536 H594 0.930 . S
C537 N533 1.279 . S
C537 C535 1.358 . S
C537 H595 0.930 . S
C538 C541 1.348 . S
C538 C542 1.356 . S
C538 O589 1.325 . S
C539 N540 1.279 . S
C539 C542 1.358 1_554 S
C539 H596 0.930 . S
N540 C539 1.279 . S
N540 C543 1.314 . S
C541 C538 1.348 . S
C541 C543 1.353 1_556 S
C541 H597 0.929 . S
C542 C538 1.356 . S
C542 C539 1.358 1_556 S
C542 H598 0.930 . S
C543 N540 1.314 . S
C543 C541 1.353 1_554 S
C543 H599 0.930 . S
C544 N545 1.314 . S
C544 C549 1.353 . S
C544 H550 0.930 . S
N545 Li528 1.990 . S
N545 C544 1.314 . S
N545 C547 1.279 . S
C546 C547 1.358 . S
C546 C548 1.356 . S
C546 H600 0.930 . S
C547 N545 1.279 . S
C547 C546 1.358 . S
C547 H551 0.930 . S
C548 C546 1.356 . S
C548 C549 1.348 . S
C549 C544 1.353 . S
C549 C548 1.348 . S
C549 H601 0.929 . S
H550 C544 0.930 . S
H551 C547 0.930 . S
C552 N553 1.314 . S
C552 C554 1.353 . S
C552 H558 0.930 . S
N553 Li529 1.990 . S
N553 C552 1.314 . S
N553 C556 1.295 . S
C554 C552 1.353 . S
C554 C557 1.348 1_556 S
C554 H602 0.929 . S
C555 C556 1.346 1_554 S
C555 C557 1.356 . S
C555 H603 0.930 . S
C556 N553 1.295 . S
C556 C555 1.346 1_556 S
C556 H559 0.927 1_556 S
C557 C554 1.348 1_554 S
C557 C555 1.356 . S
H558 C552 0.930 . S
H559 C556 0.927 1_554 S
C560 C562 1.348 . S
C560 C563 1.356 . S
C560 O590 1.325 . S
N561 C564 1.314 . S
N561 C565 1.279 . S
C562 C560 1.348 . S
C562 C564 1.353 . S
C562 H604 0.929 . S
C563 C560 1.356 . S
C563 C565 1.358 . S
C563 H605 0.930 . S
C564 N561 1.314 . S
C564 C562 1.353 . S
C564 H606 0.930 . S
C565 N561 1.279 . S
C565 C563 1.358 . S
C565 H607 0.930 . S
C566 C567 1.348 . S
C566 C568 1.356 . S
C566 O591 1.325 . S
C567 C566 1.348 . S
C567 C569 1.353 . S
C567 H608 0.929 . S
C568 C566 1.356 . S
C568 C570 1.358 . S
C568 H609 0.930 . S
C569 C567 1.353 . S
C569 N571 1.314 . S
C569 H610 0.930 . S
C570 C568 1.358 . S
C570 N571 1.279 . S
C570 H611 0.930 . S
N571 C569 1.314 . S
N571 C570 1.279 . S
C572 C574 1.353 . S
C572 N575 1.314 . S
C572 H578 0.930 . S
C573 N575 1.279 . S
C573 C576 1.358 . S
C573 H579 0.930 . S
C574 C572 1.353 . S
C574 C577 1.348 . S
C574 H612 0.929 . S
N575 Li530 1.990 . S
N575 C572 1.314 . S
N575 C573 1.279 . S
C576 C573 1.358 . S
C576 C577 1.356 . S
C576 H613 0.930 . S
C577 C574 1.348 . S
C577 C576 1.356 . S
H578 C572 0.930 . S
H579 C573 0.930 . S
C580 N581 1.314 . S
C580 C582 1.353 . S
C580 H586 0.930 . S
N581 Li531 1.990 . S
N581 C580 1.314 . S
N581 C584 1.279 . S
C582 C580 1.353 . S
C582 C585 1.348 . S
C582 H614 0.929 . S
C583 C584 1.358 . S
C583 C585 1.356 . S
C583 H615 0.930 . S
C584 N581 1.279 . S
C584 C583 1.358 . S
C584 H587 0.930 . S
C585 C582 1.348 . S
C585 C583 1.356 . S
H586 C580 0.930 . S
H587 C584 0.930 . S
O588 Li528 1.956 . S
O588 Li529 1.970 . S
O588 Li530 1.961 . S
O588 C532 1.325 . S
O589 Li528 1.970 . S
O589 Li529 1.956 . S
O589 Li531 1.961 . S
O589 C538 1.325 . S
O590 Li528 1.961 . S
O590 Li530 1.956 . S
O590 Li531 1.970 . S
O590 C560 1.325 . S
O591 Li529 1.961 . S
O591 Li530 1.970 . S
O591 Li531 1.956 . S
O591 C566 1.325 . S
H592 C534 0.929 . S
H593 C535 0.930 . S
H594 C536 0.930 . S
H595 C537 0.930 . S
H596 C539 0.930 . S
H597 C541 0.929 . S
H598 C542 0.930 . S
H599 C543 0.930 . S
H600 C546 0.930 . S
H601 C549 0.929 . S
H602 C554 0.929 . S
H603 C555 0.930 . S
H604 C562 0.929 . S
H605 C563 0.930 . S
H606 C564 0.930 . S
H607 C565 0.930 . S
H608 C567 0.929 . S
H609 C568 0.930 . S
H610 C569 0.930 . S
H611 C570 0.930 . S
H612 C574 0.929 . S
H613 C576 0.930 . S
H614 C582 0.929 . S
H615 C583 0.930 . S
Li616 N633 1.990 . S
Li616 O676 1.956 . S
Li616 O677 1.970 . S
Li616 O678 1.961 . S
Li617 N641 1.990 . S
Li617 O676 1.970 . S
Li617 O677 1.956 . S
Li617 O679 1.958 . S
Li618 N663 1.990 . S
Li618 O676 1.961 . S
Li618 O678 1.956 . S
Li618 O679 1.969 . S
Li619 N669 1.990 . S
Li619 O677 1.961 1_556 S
Li619 O678 1.970 1_556 S
Li619 O679 1.956 1_556 S
C620 C622 1.348 . S
C620 C623 1.356 . S
C620 O676 1.325 . S
N621 C624 1.314 . S
N621 C625 1.279 . S
C622 C620 1.348 . S
C622 C624 1.353 . S
C622 H680 0.929 . S
C623 C620 1.356 . S
C623 C625 1.358 . S
C623 H681 0.930 . S
C624 N621 1.314 . S
C624 C622 1.353 . S
C624 H682 0.930 . S
C625 N621 1.279 . S
C625 C623 1.358 . S
C625 H683 0.930 . S
C626 C629 1.348 . S
C626 C630 1.356 . S
C626 O677 1.325 . S
C627 N628 1.279 . S
C627 C630 1.358 . S
C627 H684 0.930 . S
N628 C627 1.279 . S
N628 C631 1.314 . S
C629 C626 1.348 . S
C629 C631 1.353 . S
C629 H685 0.929 . S
C630 C626 1.356 . S
C630 C627 1.358 . S
C630 H686 0.930 . S
C631 N628 1.314 . S
C631 C629 1.353 . S
C631 H687 0.930 . S
C632 N633 1.314 . S
C632 C637 1.353 . S
C632 H638 0.930 . S
N633 Li616 1.990 . S
N633 C632 1.314 . S
N633 C635 1.279 . S
C634 C635 1.358 . S
C634 C636 1.356 . S
C634 H688 0.930 . S
C635 N633 1.279 . S
C635 C634 1.358 . S
C635 H639 0.930 . S
C636 C634 1.356 . S
C636 C637 1.348 . S
C637 C632 1.353 . S
C637 C636 1.348 . S
C637 H689 0.929 . S
H638 C632 0.930 . S
H639 C635 0.930 . S
C640 N641 1.314 . S
C640 C642 1.353 . S
C640 H646 0.930 . S
N641 Li617 1.990 . S
N641 C640 1.314 . S
N641 C644 1.279 . S
C642 C640 1.353 . S
C642 C645 1.348 . S
C642 H690 0.929 . S
C643 C644 1.358 . S
C643 C645 1.356 . S
C643 H691 0.930 . S
C644 N641 1.279 . S
C644 C643 1.358 . S
C644 H647 0.930 . S
C645 C642 1.348 . S
C645 C643 1.356 . S
H646 C640 0.930 . S
H647 C644 0.930 . S
C648 C650 1.348 1_554 S
C648 C651 1.356 . S
C648 O678 1.325 . S
N649 C652 1.327 . S
N649 C653 1.262 1_556 S
C650 C648 1.348 1_556 S
C650 C652 1.353 . S
C650 H692 0.929 . S
C651 C648 1.356 . S
C651 C653 1.358 . S
C651 H693 0.930 . S
C652 N649 1.327 . S
C652 C650 1.353 . S
C652 H694 0.930 . S
C653 N649 1.262 1_554 S
C653 C651 1.358 . S
C653 H695 0.930 . S
C654 C655 1.348 . S
C654 C656 1.356 . S
C654 O679 1.327 1_556 S
C655 C654 1.348 . S
C655 C657 1.353 . S
C655 H696 0.929 . S
C656 C654 1.356 . S
C656 C658 1.358 . S
C656 H697 0.930 . S
C657 C655 1.353 . S
C657 N659 1.314 . S
C657 H698 0.930 . S
C658 C656 1.358 . S
C658 N659 1.279 . S
C658 H699 0.930 . S
N659 C657 1.314 . S
N659 C658 1.279 . S
C660 C662 1.353 . S
C660 N663 1.314 . S
C660 H666 0.930 . S
C661 N663 1.279 . S
C661 C664 1.358 1_554 S
C661 H667 0.930 1_554 S
C662 C660 1.353 . S
C662 C665 1.348 . S
C662 H700 0.929 . S
N663 Li618 1.990 . S
N663 C660 1.314 . S
N663 C661 1.279 . S
C664 C661 1.358 1_556 S
C664 C665 1.356 1_556 S
C664 H701 0.930 . S
C665 C662 1.348 . S
C665 C664 1.356 1_554 S
H666 C660 0.930 . S
H667 C661 0.930 1_556 S
C668 N669 1.314 . S
C668 C670 1.353 . S
C668 H674 0.930 . S
N669 Li619 1.990 . S
N669 C668 1.314 . S
N669 C672 1.279 . S
C670 C668 1.353 . S
C670 C673 1.348 . S
C670 H702 0.929 . S
C671 C672 1.358 . S
C671 C673 1.356 . S
C671 H703 0.930 . S
C672 N669 1.279 . S
C672 C671 1.358 . S
C672 H675 0.930 . S
C673 C670 1.348 . S
C673 C671 1.356 . S
H674 C668 0.930 . S
H675 C672 0.930 . S
O676 Li616 1.956 . S
O676 Li617 1.970 . S
O676 Li618 1.961 . S
O676 C620 1.325 . S
O677 Li616 1.970 . S
O677 Li617 1.956 . S
O677 Li619 1.961 1_554 S
O677 C626 1.325 . S
O678 Li616 1.961 . S
O678 Li618 1.956 . S
O678 Li619 1.970 1_554 S
O678 C648 1.325 . S
O679 Li617 1.958 . S
O679 Li618 1.969 . S
O679 Li619 1.956 1_554 S
O679 C654 1.327 1_554 S
H680 C622 0.929 . S
H681 C623 0.930 . S
H682 C624 0.930 . S
H683 C625 0.930 . S
H684 C627 0.930 . S
H685 C629 0.929 . S
H686 C630 0.930 . S
H687 C631 0.930 . S
H688 C634 0.930 . S
H689 C637 0.929 . S
H690 C642 0.929 . S
H691 C643 0.930 . S
H692 C650 0.929 . S
H693 C651 0.930 . S
H694 C652 0.930 . S
H695 C653 0.930 . S
H696 C655 0.929 . S
H697 C656 0.930 . S
H698 C657 0.930 . S
H699 C658 0.930 . S
H700 C662 0.929 . S
H701 C664 0.930 . S
H702 C670 0.929 . S
H703 C671 0.930 . S
Li704 N721 1.990 . S
Li704 O764 1.956 . S
Li704 O765 1.970 . S
Li704 O766 1.961 . S
Li705 N729 1.990 . S
Li705 O764 1.970 . S
Li705 O765 1.956 . S
Li705 O767 1.961 . S
Li706 N751 1.990 . S
Li706 O764 1.961 . S
Li706 O766 1.956 . S
Li706 O767 1.970 . S
Li707 N757 1.990 . S
Li707 O765 1.961 . S
Li707 O766 1.970 . S
Li707 O767 1.956 . S
C708 C710 1.348 . S
C708 C711 1.356 . S
C708 O764 1.325 . S
N709 C712 1.314 . S
N709 C713 1.279 . S
C710 C708 1.348 . S
C710 C712 1.353 . S
C710 H768 0.929 . S
C711 C708 1.356 . S
C711 C713 1.358 . S
C711 H769 0.930 . S
C712 N709 1.314 . S
C712 C710 1.353 . S
C712 H770 0.930 . S
C713 N709 1.279 . S
C713 C711 1.358 . S
C713 H771 0.930 . S
C714 C717 1.348 . S
C714 C718 1.356 . S
C714 O765 1.325 . S
C715 N716 1.279 . S
C715 C718 1.358 . S
C715 H772 0.930 . S
N716 C715 1.279 . S
N716 C719 1.314 . S
C717 C714 1.348 . S
C717 C719 1.353 . S
C717 H773 0.929 . S
C718 C714 1.356 . S
C718 C715 1.358 . S
C718 H774 0.930 . S
C719 N716 1.314 . S
C719 C717 1.353 . S
C719 H775 0.930 . S
C720 N721 1.314 . S
C720 C725 1.353 . S
C720 H726 0.930 . S
N721 Li704 1.990 . S
N721 C720 1.314 . S
N721 C723 1.279 . S
C722 C723 1.358 . S
C722 C724 1.356 . S
C722 H776 0.930 . S
C723 N721 1.279 . S
C723 C722 1.358 . S
C723 H727 0.930 . S
C724 C722 1.356 . S
C724 C725 1.348 . S
C725 C720 1.353 . S
C725 C724 1.348 . S
C725 H777 0.929 . S
H726 C720 0.930 . S
H727 C723 0.930 . S
C728 N729 1.314 . S
C728 C730 1.353 . S
C728 H734 0.930 . S
N729 Li705 1.990 . S
N729 C728 1.314 . S
N729 C732 1.279 . S
C730 C728 1.353 . S
C730 C733 1.348 . S
C730 H778 0.929 . S
C731 C732 1.358 . S
C731 C733 1.356 . S
C731 H779 0.930 . S
C732 N729 1.279 . S
C732 C731 1.358 . S
C732 H735 0.930 . S
C733 C730 1.348 . S
C733 C731 1.356 . S
H734 C728 0.930 . S
H735 C732 0.930 . S
C736 C738 1.348 . S
C736 C739 1.356 . S
C736 O766 1.325 . S
N737 C740 1.314 . S
N737 C741 1.279 . S
C738 C736 1.348 . S
C738 C740 1.353 . S
C738 H780 0.929 . S
C739 C736 1.356 . S
C739 C741 1.358 . S
C739 H781 0.930 . S
C740 N737 1.314 . S
C740 C738 1.353 . S
C740 H782 0.930 . S
C741 N737 1.279 . S
C741 C739 1.358 . S
C741 H783 0.930 . S
C742 C743 1.348 . S
C742 C744 1.356 . S
C742 O767 1.325 . S
C743 C742 1.348 . S
C743 C745 1.353 . S
C743 H784 0.929 . S
C744 C742 1.356 . S
C744 C746 1.358 . S
C744 H785 0.930 . S
C745 C743 1.353 . S
C745 N747 1.314 . S
C745 H786 0.930 . S
C746 C744 1.358 . S
C746 N747 1.279 . S
C746 H787 0.930 . S
N747 C745 1.314 . S
N747 C746 1.279 . S
C748 C750 1.353 . S
C748 N751 1.314 . S
C748 H754 0.930 . S
C749 N751 1.279 . S
C749 C752 1.358 . S
C749 H755 0.930 . S
C750 C748 1.353 . S
C750 C753 1.348 . S
C750 H788 0.929 . S
N751 Li706 1.990 . S
N751 C748 1.314 . S
N751 C749 1.279 . S
C752 C749 1.358 . S
C752 C753 1.356 . S
C752 H789 0.930 . S
C753 C750 1.348 . S
C753 C752 1.356 . S
H754 C748 0.930 . S
H755 C749 0.930 . S
C756 N757 1.314 . S
C756 C758 1.353 . S
C756 H762 0.930 . S
N757 Li707 1.990 . S
N757 C756 1.314 . S
N757 C760 1.279 . S
C758 C756 1.353 . S
C758 C761 1.348 . S
C758 H790 0.929 . S
C759 C760 1.358 . S
C759 C761 1.356 . S
C759 H791 0.930 . S
C760 N757 1.279 . S
C760 C759 1.358 . S
C760 H763 0.930 . S
C761 C758 1.348 . S
C761 C759 1.356 . S
H762 C756 0.930 . S
H763 C760 0.930 . S
O764 Li704 1.956 . S
O764 Li705 1.970 . S
O764 Li706 1.961 . S
O764 C708 1.325 . S
O765 Li704 1.970 . S
O765 Li705 1.956 . S
O765 Li707 1.961 . S
O765 C714 1.325 . S
O766 Li704 1.961 . S
O766 Li706 1.956 . S
O766 Li707 1.970 . S
O766 C736 1.325 . S
O767 Li705 1.961 . S
O767 Li706 1.970 . S
O767 Li707 1.956 . S
O767 C742 1.325 . S
H768 C710 0.929 . S
H769 C711 0.930 . S
H770 C712 0.930 . S
H771 C713 0.930 . S
H772 C715 0.930 . S
H773 C717 0.929 . S
H774 C718 0.930 . S
H775 C719 0.930 . S
H776 C722 0.930 . S
H777 C725 0.929 . S
H778 C730 0.929 . S
H779 C731 0.930 . S
H780 C738 0.929 . S
H781 C739 0.930 . S
H782 C740 0.930 . S
H783 C741 0.930 . S
H784 C743 0.929 . S
H785 C744 0.930 . S
H786 C745 0.930 . S
H787 C746 0.930 . S
H788 C750 0.929 . S
H789 C752 0.930 . S
H790 C758 0.929 . S
H791 C759 0.930 . S
Li792 N809 1.990 . S
Li792 O852 1.956 . S
Li792 O853 1.970 . S
Li792 O854 1.961 . S
Li793 N817 1.990 . S
Li793 O852 1.970 . S
Li793 O853 1.956 . S
Li793 O855 1.961 . S
Li794 N839 1.990 . S
Li794 O852 1.961 . S
Li794 O854 1.956 . S
Li794 O855 1.970 . S
Li795 N845 1.990 . S
Li795 O853 1.961 . S
Li795 O854 1.970 . S
Li795 O855 1.956 . S
C796 C798 1.348 . S
C796 C799 1.356 . S
C796 O852 1.325 . S
N797 C800 1.314 . S
N797 C801 1.279 . S
C798 C796 1.348 . S
C798 C800 1.353 . S
C798 H856 0.929 . S
C799 C796 1.356 . S
C799 C801 1.358 . S
C799 H857 0.930 . S
C800 N797 1.314 . S
C800 C798 1.353 . S
C800 H858 0.930 . S
C801 N797 1.279 . S
C801 C799 1.358 . S
C801 H859 0.930 . S
C802 C805 1.348 . S
C802 C806 1.356 . S
C802 O853 1.325 . S
C803 N804 1.279 . S
C803 C806 1.358 . S
C803 H860 0.930 . S
N804 C803 1.279 . S
N804 C807 1.314 . S
C805 C802 1.348 . S
C805 C807 1.353 . S
C805 H861 0.929 . S
C806 C802 1.356 . S
C806 C803 1.358 . S
C806 H862 0.930 . S
C807 N804 1.314 . S
C807 C805 1.353 . S
C807 H863 0.930 . S
C808 N809 1.314 . S
C808 C813 1.353 . S
C808 H814 0.930 . S
N809 Li792 1.990 . S
N809 C808 1.314 . S
N809 C811 1.279 . S
C810 C811 1.358 . S
C810 C812 1.356 . S
C810 H864 0.930 . S
C811 N809 1.279 . S
C811 C810 1.358 . S
C811 H815 0.930 . S
C812 C810 1.356 . S
C812 C813 1.348 . S
C813 C808 1.353 . S
C813 C812 1.348 . S
C813 H865 0.929 . S
H814 C808 0.930 . S
H815 C811 0.930 . S
C816 N817 1.314 . S
C816 C818 1.353 . S
C816 H822 0.930 . S
N817 Li793 1.990 . S
N817 C816 1.314 . S
N817 C820 1.279 . S
C818 C816 1.353 . S
C818 C821 1.348 . S
C818 H866 0.929 . S
C819 C820 1.358 . S
C819 C821 1.356 . S
C819 H867 0.930 . S
C820 N817 1.279 . S
C820 C819 1.358 . S
C820 H823 0.930 . S
C821 C818 1.348 . S
C821 C819 1.356 . S
H822 C816 0.930 . S
H823 C820 0.930 . S
C824 C826 1.348 . S
C824 C827 1.356 . S
C824 O854 1.325 . S
N825 C828 1.314 . S
N825 C829 1.279 . S
C826 C824 1.348 . S
C826 C828 1.353 . S
C826 H868 0.929 . S
C827 C824 1.356 . S
C827 C829 1.358 . S
C827 H869 0.930 . S
C828 N825 1.314 . S
C828 C826 1.353 . S
C828 H870 0.930 . S
C829 N825 1.279 . S
C829 C827 1.358 . S
C829 H871 0.930 . S
C830 C831 1.348 . S
C830 C832 1.356 . S
C830 O855 1.325 . S
C831 C830 1.348 . S
C831 C833 1.353 . S
C831 H872 0.929 . S
C832 C830 1.356 . S
C832 C834 1.358 . S
C832 H873 0.930 . S
C833 C831 1.353 . S
C833 N835 1.314 . S
C833 H874 0.930 . S
C834 C832 1.358 . S
C834 N835 1.279 . S
C834 H875 0.930 . S
N835 C833 1.314 . S
N835 C834 1.279 . S
C836 C838 1.353 . S
C836 N839 1.314 . S
C836 H842 0.930 . S
C837 N839 1.279 . S
C837 C840 1.358 . S
C837 H843 0.930 . S
C838 C836 1.353 . S
C838 C841 1.348 . S
C838 H876 0.929 . S
N839 Li794 1.990 . S
N839 C836 1.314 . S
N839 C837 1.279 . S
C840 C837 1.358 . S
C840 C841 1.356 . S
C840 H877 0.930 . S
C841 C838 1.348 . S
C841 C840 1.356 . S
H842 C836 0.930 . S
H843 C837 0.930 . S
C844 N845 1.314 . S
C844 C846 1.353 . S
C844 H850 0.930 . S
N845 Li795 1.990 . S
N845 C844 1.314 . S
N845 C848 1.279 . S
C846 C844 1.353 . S
C846 C849 1.348 . S
C846 H878 0.929 . S
C847 C848 1.358 . S
C847 C849 1.356 . S
C847 H879 0.930 . S
C848 N845 1.279 . S
C848 C847 1.358 . S
C848 H851 0.930 . S
C849 C846 1.348 . S
C849 C847 1.356 . S
H850 C844 0.930 . S
H851 C848 0.930 . S
O852 Li792 1.956 . S
O852 Li793 1.970 . S
O852 Li794 1.961 . S
O852 C796 1.325 . S
O853 Li792 1.970 . S
O853 Li793 1.956 . S
O853 Li795 1.961 . S
O853 C802 1.325 . S
O854 Li792 1.961 . S
O854 Li794 1.956 . S
O854 Li795 1.970 . S
O854 C824 1.325 . S
O855 Li793 1.961 . S
O855 Li794 1.970 . S
O855 Li795 1.956 . S
O855 C830 1.325 . S
H856 C798 0.929 . S
H857 C799 0.930 . S
H858 C800 0.930 . S
H859 C801 0.930 . S
H860 C803 0.930 . S
H861 C805 0.929 . S
H862 C806 0.930 . S
H863 C807 0.930 . S
H864 C810 0.930 . S
H865 C813 0.929 . S
H866 C818 0.929 . S
H867 C819 0.930 . S
H868 C826 0.929 . S
H869 C827 0.930 . S
H870 C828 0.930 . S
H871 C829 0.930 . S
H872 C831 0.929 . S
H873 C832 0.930 . S
H874 C833 0.930 . S
H875 C834 0.930 . S
H876 C838 0.929 . S
H877 C840 0.930 . S
H878 C846 0.929 . S
H879 C847 0.930 . S
Li880 N897 1.990 . S
Li880 O940 1.956 . S
Li880 O941 1.970 . S
Li880 O942 1.961 . S
Li881 N905 1.990 . S
Li881 O940 1.970 . S
Li881 O941 1.956 . S
Li881 O943 1.961 . S
Li882 N927 1.990 . S
Li882 O940 1.961 . S
Li882 O942 1.956 . S
Li882 O943 1.970 . S
Li883 N933 1.990 . S
Li883 O941 1.961 . S
Li883 O942 1.970 . S
Li883 O943 1.956 . S
C884 C886 1.348 . S
C884 C887 1.356 . S
C884 O940 1.325 . S
N885 C888 1.314 . S
N885 C889 1.279 . S
C886 C884 1.348 . S
C886 C888 1.353 . S
C886 H944 0.929 . S
C887 C884 1.356 . S
C887 C889 1.358 . S
C887 H945 0.930 . S
C888 N885 1.314 . S
C888 C886 1.353 . S
C888 H946 0.930 . S
C889 N885 1.279 . S
C889 C887 1.358 . S
C889 H947 0.930 . S
C890 C893 1.348 . S
C890 C894 1.356 . S
C890 O941 1.325 . S
C891 N892 1.279 . S
C891 C894 1.358 . S
C891 H948 0.930 . S
N892 C891 1.279 . S
N892 C895 1.314 . S
C893 C890 1.348 . S
C893 C895 1.353 . S
C893 H949 0.929 . S
C894 C890 1.356 . S
C894 C891 1.358 . S
C894 H950 0.930 . S
C895 N892 1.314 . S
C895 C893 1.353 . S
C895 H951 0.930 . S
C896 N897 1.314 . S
C896 C901 1.353 . S
C896 H902 0.930 . S
N897 Li880 1.990 . S
N897 C896 1.314 . S
N897 C899 1.279 . S
C898 C899 1.358 . S
C898 C900 1.356 . S
C898 H952 0.930 . S
C899 N897 1.279 . S
C899 C898 1.358 . S
C899 H903 0.930 . S
C900 C898 1.356 . S
C900 C901 1.348 . S
C901 C896 1.353 . S
C901 C900 1.348 . S
C901 H953 0.929 . S
H902 C896 0.930 . S
H903 C899 0.930 . S
C904 N905 1.314 . S
C904 C906 1.353 . S
C904 H910 0.930 . S
N905 Li881 1.990 . S
N905 C904 1.314 . S
N905 C908 1.279 . S
C906 C904 1.353 . S
C906 C909 1.348 . S
C906 H954 0.929 . S
C907 C908 1.358 . S
C907 C909 1.356 . S
C907 H955 0.930 . S
C908 N905 1.279 . S
C908 C907 1.358 . S
C908 H911 0.930 . S
C909 C906 1.348 . S
C909 C907 1.356 . S
H910 C904 0.930 . S
H911 C908 0.930 . S
C912 C914 1.348 . S
C912 C915 1.356 . S
C912 O942 1.325 . S
N913 C916 1.314 . S
N913 C917 1.279 . S
C914 C912 1.348 . S
C914 C916 1.353 . S
C914 H956 0.929 . S
C915 C912 1.356 . S
C915 C917 1.358 . S
C915 H957 0.930 . S
C916 N913 1.314 . S
C916 C914 1.353 . S
C916 H958 0.930 . S
C917 N913 1.279 . S
C917 C915 1.358 . S
C917 H959 0.930 . S
C918 C919 1.348 . S
C918 C920 1.356 . S
C918 O943 1.325 . S
C919 C918 1.348 . S
C919 C921 1.353 . S
C919 H960 0.929 . S
C920 C918 1.356 . S
C920 C922 1.358 . S
C920 H961 0.930 . S
C921 C919 1.353 . S
C921 N923 1.314 . S
C921 H962 0.930 . S
C922 C920 1.358 . S
C922 N923 1.279 . S
C922 H963 0.930 . S
N923 C921 1.314 . S
N923 C922 1.279 . S
C924 C926 1.353 . S
C924 N927 1.314 . S
C924 H930 0.930 . S
C925 N927 1.279 . S
C925 C928 1.358 . S
C925 H931 0.930 . S
C926 C924 1.353 . S
C926 C929 1.348 . S
C926 H964 0.929 . S
N927 Li882 1.990 . S
N927 C924 1.314 . S
N927 C925 1.279 . S
C928 C925 1.358 . S
C928 C929 1.356 . S
C928 H965 0.930 . S
C929 C926 1.348 . S
C929 C928 1.356 . S
H930 C924 0.930 . S
H931 C925 0.930 . S
C932 N933 1.314 . S
C932 C934 1.353 . S
C932 H938 0.930 . S
N933 Li883 1.990 . S
N933 C932 1.314 . S
N933 C936 1.279 . S
C934 C932 1.353 . S
C934 C937 1.348 . S
C934 H966 0.929 . S
C935 C936 1.358 . S
C935 C937 1.356 . S
C935 H967 0.930 . S
C936 N933 1.279 . S
C936 C935 1.358 . S
C936 H939 0.930 . S
C937 C934 1.348 . S
C937 C935 1.356 . S
H938 C932 0.930 . S
H939 C936 0.930 . S
O940 Li880 1.956 . S
O940 Li881 1.970 . S
O940 Li882 1.961 . S
O940 C884 1.325 . S
O941 Li880 1.970 . S
O941 Li881 1.956 . S
O941 Li883 1.961 . S
O941 C890 1.325 . S
O942 Li880 1.961 . S
O942 Li882 1.956 . S
O942 Li883 1.970 . S
O942 C912 1.325 . S
O943 Li881 1.961 . S
O943 Li882 1.970 . S
O943 Li883 1.956 . S
O943 C918 1.325 . S
H944 C886 0.929 . S
H945 C887 0.930 . S
H946 C888 0.930 . S
H947 C889 0.930 . S
H948 C891 0.930 . S
H949 C893 0.929 . S
H950 C894 0.930 . S
H951 C895 0.930 . S
H952 C898 0.930 . S
H953 C901 0.929 . S
H954 C906 0.929 . S
H955 C907 0.930 . S
H956 C914 0.929 . S
H957 C915 0.930 . S
H958 C916 0.930 . S
H959 C917 0.930 . S
H960 C919 0.929 . S
H961 C920 0.930 . S
H962 C921 0.930 . S
H963 C922 0.930 . S
H964 C926 0.929 . S
H965 C928 0.930 . S
H966 C934 0.929 . S
H967 C935 0.930 . S
Li968 N985 1.990 . S
Li968 O1028 1.956 . S
Li968 O1029 1.970 . S
Li968 O1030 1.961 . S
Li969 N993 1.990 . S
Li969 O1028 1.970 . S
Li969 O1029 1.956 . S
Li969 O1031 1.961 . S
Li970 N1015 1.990 . S
Li970 O1028 1.961 . S
Li970 O1030 1.956 . S
Li970 O1031 1.970 . S
Li971 N1021 1.990 . S
Li971 O1029 1.961 . S
Li971 O1030 1.970 . S
Li971 O1031 1.956 . S
C972 C974 1.348 . S
C972 C975 1.356 . S
C972 O1028 1.325 . S
N973 C976 1.314 . S
N973 C977 1.279 . S
C974 C972 1.348 . S
C974 C976 1.353 . S
C974 H1032 0.929 . S
C975 C972 1.356 . S
C975 C977 1.358 . S
C975 H1033 0.930 . S
C976 N973 1.314 . S
C976 C974 1.353 . S
C976 H1034 0.930 . S
C977 N973 1.279 . S
C977 C975 1.358 . S
C977 H1035 0.930 . S
C978 C981 1.348 . S
C978 C982 1.356 . S
C978 O1029 1.325 . S
C979 N980 1.279 . S
C979 C982 1.358 . S
C979 H1036 0.930 . S
N980 C979 1.279 . S
N980 C983 1.314 . S
C981 C978 1.348 . S
C981 C983 1.353 . S
C981 H1037 0.929 . S
C982 C978 1.356 . S
C982 C979 1.358 . S
C982 H1038 0.930 . S
C983 N980 1.314 . S
C983 C981 1.353 . S
C983 H1039 0.930 . S
C984 N985 1.314 . S
C984 C989 1.353 . S
C984 H990 0.930 . S
N985 Li968 1.990 . S
N985 C984 1.314 . S
N985 C987 1.279 . S
C986 C987 1.358 . S
C986 C988 1.356 . S
C986 H1040 0.930 . S
C987 N985 1.279 . S
C987 C986 1.358 . S
C987 H991 0.930 . S
C988 C986 1.356 . S
C988 C989 1.348 . S
C989 C984 1.353 . S
C989 C988 1.348 . S
C989 H1041 0.929 . S
H990 C984 0.930 . S
H991 C987 0.930 . S
C992 N993 1.314 . S
C992 C994 1.353 . S
C992 H998 0.930 . S
N993 Li969 1.990 . S
N993 C992 1.314 . S
N993 C996 1.279 . S
C994 C992 1.353 . S
C994 C997 1.348 . S
C994 H1042 0.929 . S
C995 C996 1.358 . S
C995 C997 1.356 . S
C995 H1043 0.930 . S
C996 N993 1.279 . S
C996 C995 1.358 . S
C996 H999 0.930 . S
C997 C994 1.348 . S
C997 C995 1.356 . S
H998 C992 0.930 . S
H999 C996 0.930 . S
C1000 C1002 1.348 . S
C1000 C1003 1.356 . S
C1000 O1030 1.325 . S
N1001 C1004 1.314 . S
N1001 C1005 1.279 . S
C1002 C1000 1.348 . S
C1002 C1004 1.353 . S
C1002 H1044 0.929 . S
C1003 C1000 1.356 . S
C1003 C1005 1.358 . S
C1003 H1045 0.930 . S
C1004 N1001 1.314 . S
C1004 C1002 1.353 . S
C1004 H1046 0.930 . S
C1005 N1001 1.279 . S
C1005 C1003 1.358 . S
C1005 H1047 0.930 . S
C1006 C1007 1.348 . S
C1006 C1008 1.356 . S
C1006 O1031 1.325 . S
C1007 C1006 1.348 . S
C1007 C1009 1.353 . S
C1007 H1048 0.929 . S
C1008 C1006 1.356 . S
C1008 C1010 1.358 . S
C1008 H1049 0.930 . S
C1009 C1007 1.353 . S
C1009 N1011 1.314 . S
C1009 H1050 0.930 . S
C1010 C1008 1.358 . S
C1010 N1011 1.279 . S
C1010 H1051 0.930 . S
N1011 C1009 1.314 . S
N1011 C1010 1.279 . S
C1012 C1014 1.353 . S
C1012 N1015 1.314 . S
C1012 H1018 0.930 . S
C1013 N1015 1.279 . S
C1013 C1016 1.358 . S
C1013 H1019 0.930 . S
C1014 C1012 1.353 . S
C1014 C1017 1.348 . S
C1014 H1052 0.929 . S
N1015 Li970 1.990 . S
N1015 C1012 1.314 . S
N1015 C1013 1.279 . S
C1016 C1013 1.358 . S
C1016 C1017 1.356 . S
C1016 H1053 0.930 . S
C1017 C1014 1.348 . S
C1017 C1016 1.356 . S
H1018 C1012 0.930 . S
H1019 C1013 0.930 . S
C1020 N1021 1.314 . S
C1020 C1022 1.353 . S
C1020 H1026 0.930 . S
N1021 Li971 1.990 . S
N1021 C1020 1.314 . S
N1021 C1024 1.279 . S
C1022 C1020 1.353 . S
C1022 C1025 1.348 . S
C1022 H1054 0.929 . S
C1023 C1024 1.358 . S
C1023 C1025 1.356 . S
C1023 H1055 0.930 . S
C1024 N1021 1.279 . S
C1024 C1023 1.358 . S
C1024 H1027 0.930 . S
C1025 C1022 1.348 . S
C1025 C1023 1.356 . S
H1026 C1020 0.930 . S
H1027 C1024 0.930 . S
O1028 Li968 1.956 . S
O1028 Li969 1.970 . S
O1028 Li970 1.961 . S
O1028 C972 1.325 . S
O1029 Li968 1.970 . S
O1029 Li969 1.956 . S
O1029 Li971 1.961 . S
O1029 C978 1.325 . S
O1030 Li968 1.961 . S
O1030 Li970 1.956 . S
O1030 Li971 1.970 . S
O1030 C1000 1.325 . S
O1031 Li969 1.961 . S
O1031 Li970 1.970 . S
O1031 Li971 1.956 . S
O1031 C1006 1.325 . S
H1032 C974 0.929 . S
H1033 C975 0.930 . S
H1034 C976 0.930 . S
H1035 C977 0.930 . S
H1036 C979 0.930 . S
H1037 C981 0.929 . S
H1038 C982 0.930 . S
H1039 C983 0.930 . S
H1040 C986 0.930 . S
H1041 C989 0.929 . S
H1042 C994 0.929 . S
H1043 C995 0.930 . S
H1044 C1002 0.929 . S
H1045 C1003 0.930 . S
H1046 C1004 0.930 . S
H1047 C1005 0.930 . S
H1048 C1007 0.929 . S
H1049 C1008 0.930 . S
H1050 C1009 0.930 . S
H1051 C1010 0.930 . S
H1052 C1014 0.929 . S
H1053 C1016 0.930 . S
H1054 C1022 0.929 . S
H1055 C1023 0.930 . S
H1056 C1068 0.930 . S
H1057 C1070 0.930 . S
H1058 C1071 0.930 . S
H1059 C1075 0.959 . S
H1060 C1075 0.959 . S
H1061 C1075 0.961 . S
H1062 C1076 0.960 . S
H1063 C1076 0.961 . S
H1064 C1076 0.959 . S
H1065 C1079 0.929 . S
H1066 C1080 0.931 . S
H1067 C1082 0.930 . S
C1068 H1056 0.930 . S
C1068 C1069 1.399 . S
C1068 C1073 1.399 . S
C1069 C1068 1.399 . S
C1069 C1070 1.376 . S
C1070 H1057 0.930 . S
C1070 C1069 1.376 . S
C1070 C1071 1.388 . S
C1071 H1058 0.930 . S
C1071 C1070 1.388 . S
C1071 C1072 1.390 . S
C1072 C1071 1.390 . S
C1072 C1073 1.394 . S
C1072 C1078 1.465 . S
C1073 C1068 1.399 . S
C1073 C1072 1.394 . S
C1073 C1074 1.516 . S
C1074 C1073 1.516 . S
C1074 C1075 1.502 . S
C1074 C1076 1.561 . S
C1074 C1077 1.526 . S
C1075 H1059 0.959 . S
C1075 H1060 0.959 . S
C1075 H1061 0.961 . S
C1075 C1074 1.502 . S
C1076 H1062 0.960 . S
C1076 H1063 0.961 . S
C1076 H1064 0.959 . S
C1076 C1074 1.561 . S
C1077 C1074 1.526 . S
C1077 C1078 1.396 . S
C1077 C1082 1.390 . S
C1078 C1072 1.465 . S
C1078 C1077 1.396 . S
C1078 C1079 1.399 . S
C1079 H1065 0.929 . S
C1079 C1078 1.399 . S
C1079 C1080 1.385 . S
C1080 H1066 0.931 . S
C1080 C1079 1.385 . S
C1080 C1081 1.389 . S
C1081 C1080 1.389 . S
C1081 C1082 1.387 . S
C1082 H1067 0.930 . S
C1082 C1077 1.390 . S
C1082 C1081 1.387 . S
H1083 C1095 0.930 . S
H1084 C1097 0.930 . S
H1085 C1098 0.930 . S
H1086 C1102 0.959 . S
H1087 C1102 0.959 . S
H1088 C1102 0.961 . S
H1089 C1103 0.960 . S
H1090 C1103 0.961 . S
H1091 C1103 0.959 . S
H1092 C1106 0.929 . S
H1093 C1107 0.931 . S
H1094 C1109 0.930 . S
C1095 H1083 0.930 . S
C1095 C1096 1.399 . S
C1095 C1100 1.399 . S
C1096 C1095 1.399 . S
C1096 C1097 1.376 . S
C1097 H1084 0.930 . S
C1097 C1096 1.376 . S
C1097 C1098 1.388 . S
C1098 H1085 0.930 . S
C1098 C1097 1.388 . S
C1098 C1099 1.390 . S
C1099 C1098 1.390 . S
C1099 C1100 1.394 . S
C1099 C1105 1.465 . S
C1100 C1095 1.399 . S
C1100 C1099 1.394 . S
C1100 C1101 1.516 . S
C1101 C1100 1.516 . S
C1101 C1102 1.502 . S
C1101 C1103 1.561 . S
C1101 C1104 1.526 . S
C1102 H1086 0.959 . S
C1102 H1087 0.959 . S
C1102 H1088 0.961 . S
C1102 C1101 1.502 . S
C1103 H1089 0.960 . S
C1103 H1090 0.961 . S
C1103 H1091 0.959 . S
C1103 C1101 1.561 . S
C1104 C1101 1.526 . S
C1104 C1105 1.396 . S
C1104 C1109 1.390 . S
C1105 C1099 1.465 . S
C1105 C1104 1.396 . S
C1105 C1106 1.399 . S
C1106 H1092 0.929 . S
C1106 C1105 1.399 . S
C1106 C1107 1.385 . S
C1107 H1093 0.931 . S
C1107 C1106 1.385 . S
C1107 C1108 1.389 . S
C1108 C1107 1.389 . S
C1108 C1109 1.387 . S
C1109 H1094 0.930 . S
C1109 C1104 1.390 . S
C1109 C1108 1.387 . S
H1110 C1122 0.930 . S
H1111 C1124 0.930 . S
H1112 C1125 0.930 . S
H1113 C1129 0.959 . S
H1114 C1129 0.959 . S
H1115 C1129 0.961 . S
H1116 C1130 0.960 . S
H1117 C1130 0.961 . S
H1118 C1130 0.959 . S
H1119 C1133 0.929 . S
H1120 C1134 0.931 . S
H1121 C1136 0.930 . S
C1122 H1110 0.930 . S
C1122 C1123 1.399 . S
C1122 C1127 1.399 . S
C1123 C1122 1.399 . S
C1123 C1124 1.376 . S
C1124 H1111 0.930 . S
C1124 C1123 1.376 . S
C1124 C1125 1.388 . S
C1125 H1112 0.930 . S
C1125 C1124 1.388 . S
C1125 C1126 1.390 . S
C1126 C1125 1.390 . S
C1126 C1127 1.394 . S
C1126 C1132 1.465 . S
C1127 C1122 1.399 . S
C1127 C1126 1.394 . S
C1127 C1128 1.516 . S
C1128 C1127 1.516 . S
C1128 C1129 1.502 . S
C1128 C1130 1.561 . S
C1128 C1131 1.526 . S
C1129 H1113 0.959 . S
C1129 H1114 0.959 . S
C1129 H1115 0.961 . S
C1129 C1128 1.502 . S
C1130 H1116 0.960 . S
C1130 H1117 0.961 . S
C1130 H1118 0.959 . S
C1130 C1128 1.561 . S
C1131 C1128 1.526 . S
C1131 C1132 1.396 . S
C1131 C1136 1.390 . S
C1132 C1126 1.465 . S
C1132 C1131 1.396 . S
C1132 C1133 1.399 . S
C1133 H1119 0.929 . S
C1133 C1132 1.399 . S
C1133 C1134 1.385 . S
C1134 H1120 0.931 . S
C1134 C1133 1.385 . S
C1134 C1135 1.389 . S
C1135 C1134 1.389 . S
C1135 C1136 1.387 . S
C1136 H1121 0.930 . S
C1136 C1131 1.390 . S
C1136 C1135 1.387 . S
H1137 C1149 0.930 . S
H1138 C1151 0.930 . S
H1139 C1152 0.930 . S
H1140 C1156 0.959 . S
H1141 C1156 0.959 . S
H1142 C1156 0.961 . S
H1143 C1157 0.960 . S
H1144 C1157 0.961 . S
H1145 C1157 0.959 . S
H1146 C1160 0.929 . S
H1147 C1161 0.931 . S
H1148 C1163 0.930 . S
C1149 H1137 0.930 . S
C1149 C1150 1.399 . S
C1149 C1154 1.399 . S
C1150 C1149 1.399 . S
C1150 C1151 1.376 . S
C1151 H1138 0.930 . S
C1151 C1150 1.376 . S
C1151 C1152 1.388 . S
C1152 H1139 0.930 . S
C1152 C1151 1.388 . S
C1152 C1153 1.390 . S
C1153 C1152 1.390 . S
C1153 C1154 1.394 . S
C1153 C1159 1.465 . S
C1154 C1149 1.399 . S
C1154 C1153 1.394 . S
C1154 C1155 1.516 . S
C1155 C1154 1.516 . S
C1155 C1156 1.502 . S
C1155 C1157 1.561 . S
C1155 C1158 1.526 . S
C1156 H1140 0.959 . S
C1156 H1141 0.959 . S
C1156 H1142 0.961 . S
C1156 C1155 1.502 . S
C1157 H1143 0.960 . S
C1157 H1144 0.961 . S
C1157 H1145 0.959 . S
C1157 C1155 1.561 . S
C1158 C1155 1.526 . S
C1158 C1159 1.396 . S
C1158 C1163 1.390 . S
C1159 C1153 1.465 . S
C1159 C1158 1.396 . S
C1159 C1160 1.399 . S
C1160 H1146 0.929 . S
C1160 C1159 1.399 . S
C1160 C1161 1.385 . S
C1161 H1147 0.931 . S
C1161 C1160 1.385 . S
C1161 C1162 1.389 . S
C1162 C1161 1.389 . S
C1162 C1163 1.387 . S
C1163 H1148 0.930 . S
C1163 C1158 1.390 . S
C1163 C1162 1.387 . S
H1164 C1176 0.930 . S
H1165 C1178 0.930 . S
H1166 C1179 0.930 . S
H1167 C1183 0.959 1_554 S
H1168 C1183 0.959 . S
H1169 C1183 0.961 . S
H1170 C1184 0.960 . S
H1171 C1184 0.961 . S
H1172 C1184 0.959 . S
H1173 C1187 0.929 . S
H1174 C1188 0.931 . S
H1175 C1190 0.930 1_554 S
C1176 H1164 0.930 . S
C1176 C1177 1.399 . S
C1176 C1181 1.399 . S
C1177 C1176 1.399 . S
C1177 C1178 1.376 . S
C1178 H1165 0.930 . S
C1178 C1177 1.376 . S
C1178 C1179 1.388 . S
C1179 H1166 0.930 . S
C1179 C1178 1.388 . S
C1179 C1180 1.390 . S
C1180 C1179 1.390 . S
C1180 C1181 1.394 . S
C1180 C1186 1.465 . S
C1181 C1176 1.399 . S
C1181 C1180 1.394 . S
C1181 C1182 1.516 . S
C1182 C1181 1.516 . S
C1182 C1183 1.502 . S
C1182 C1184 1.561 . S
C1182 C1185 1.526 . S
C1183 H1167 0.959 1_556 S
C1183 H1168 0.959 . S
C1183 H1169 0.961 . S
C1183 C1182 1.502 . S
C1184 H1170 0.960 . S
C1184 H1171 0.961 . S
C1184 H1172 0.959 . S
C1184 C1182 1.561 . S
C1185 C1182 1.526 . S
C1185 C1186 1.396 . S
C1185 C1190 1.390 . S
C1186 C1180 1.465 . S
C1186 C1185 1.396 . S
C1186 C1187 1.399 . S
C1187 H1173 0.929 . S
C1187 C1186 1.399 . S
C1187 C1188 1.385 1_556 S
C1188 H1174 0.931 . S
C1188 C1187 1.385 1_554 S
C1188 C1189 1.389 . S
C1189 C1188 1.389 . S
C1189 C1190 1.387 1_554 S
C1190 H1175 0.930 1_556 S
C1190 C1185 1.390 . S
C1190 C1189 1.387 1_556 S
H1191 C1203 0.930 . S
H1192 C1205 0.930 . S
H1193 C1206 0.930 . S
H1194 C1210 0.959 . S
H1195 C1210 0.959 . S
H1196 C1210 0.961 . S
H1197 C1211 0.960 . S
H1198 C1211 0.961 . S
H1199 C1211 0.959 . S
H1200 C1214 0.929 . S
H1201 C1215 0.931 . S
H1202 C1217 0.930 . S
C1203 H1191 0.930 . S
C1203 C1204 1.399 . S
C1203 C1208 1.399 . S
C1204 C1203 1.399 . S
C1204 C1205 1.376 . S
C1205 H1192 0.930 . S
C1205 C1204 1.376 . S
C1205 C1206 1.388 . S
C1206 H1193 0.930 . S
C1206 C1205 1.388 . S
C1206 C1207 1.390 . S
C1207 C1206 1.390 . S
C1207 C1208 1.394 . S
C1207 C1213 1.465 . S
C1208 C1203 1.399 . S
C1208 C1207 1.394 . S
C1208 C1209 1.516 . S
C1209 C1208 1.516 . S
C1209 C1210 1.502 . S
C1209 C1211 1.561 . S
C1209 C1212 1.526 . S
C1210 H1194 0.959 . S
C1210 H1195 0.959 . S
C1210 H1196 0.961 . S
C1210 C1209 1.502 . S
C1211 H1197 0.960 . S
C1211 H1198 0.961 . S
C1211 H1199 0.959 . S
C1211 C1209 1.561 . S
C1212 C1209 1.526 . S
C1212 C1213 1.396 . S
C1212 C1217 1.390 . S
C1213 C1207 1.465 . S
C1213 C1212 1.396 . S
C1213 C1214 1.399 . S
C1214 H1200 0.929 . S
C1214 C1213 1.399 . S
C1214 C1215 1.385 . S
C1215 H1201 0.931 . S
C1215 C1214 1.385 . S
C1215 C1216 1.389 . S
C1216 C1215 1.389 . S
C1216 C1217 1.387 . S
C1217 H1202 0.930 . S
C1217 C1212 1.390 . S
C1217 C1216 1.387 . S
H1218 C1230 0.930 . S
H1219 C1232 0.930 . S
H1220 C1233 0.930 . S
H1221 C1237 0.959 . S
H1222 C1237 0.959 . S
H1223 C1237 0.961 . S
H1224 C1238 0.960 . S
H1225 C1238 0.961 . S
H1226 C1238 0.959 . S
H1227 C1241 0.929 . S
H1228 C1242 0.931 . S
H1229 C1244 0.930 . S
C1230 H1218 0.930 . S
C1230 C1231 1.399 . S
C1230 C1235 1.399 . S
C1231 C1230 1.399 . S
C1231 C1232 1.376 . S
C1232 H1219 0.930 . S
C1232 C1231 1.376 . S
C1232 C1233 1.388 . S
C1233 H1220 0.930 . S
C1233 C1232 1.388 . S
C1233 C1234 1.390 . S
C1234 C1233 1.390 . S
C1234 C1235 1.394 . S
C1234 C1240 1.465 . S
C1235 C1230 1.399 . S
C1235 C1234 1.394 . S
C1235 C1236 1.516 . S
C1236 C1235 1.516 . S
C1236 C1237 1.502 . S
C1236 C1238 1.561 . S
C1236 C1239 1.526 . S
C1237 H1221 0.959 . S
C1237 H1222 0.959 . S
C1237 H1223 0.961 . S
C1237 C1236 1.502 . S
C1238 H1224 0.960 . S
C1238 H1225 0.961 . S
C1238 H1226 0.959 . S
C1238 C1236 1.561 . S
C1239 C1236 1.526 . S
C1239 C1240 1.396 . S
C1239 C1244 1.390 . S
C1240 C1234 1.465 . S
C1240 C1239 1.396 . S
C1240 C1241 1.399 . S
C1241 H1227 0.929 . S
C1241 C1240 1.399 . S
C1241 C1242 1.385 . S
C1242 H1228 0.931 . S
C1242 C1241 1.385 . S
C1242 C1243 1.389 . S
C1243 C1242 1.389 . S
C1243 C1244 1.387 . S
C1244 H1229 0.930 . S
C1244 C1239 1.390 . S
C1244 C1243 1.387 . S
H1245 C1257 0.930 . S
H1246 C1259 0.930 . S
H1247 C1260 0.930 . S
H1248 C1264 0.959 . S
H1249 C1264 0.959 . S
H1250 C1264 0.961 . S
H1251 C1265 0.960 . S
H1252 C1265 0.961 . S
H1253 C1265 0.959 . S
H1254 C1268 0.929 . S
H1255 C1269 0.931 . S
H1256 C1271 0.930 . S
C1257 H1245 0.930 . S
C1257 C1258 1.399 . S
C1257 C1262 1.399 . S
C1258 C1257 1.399 . S
C1258 C1259 1.376 . S
C1259 H1246 0.930 . S
C1259 C1258 1.376 . S
C1259 C1260 1.388 . S
C1260 H1247 0.930 . S
C1260 C1259 1.388 . S
C1260 C1261 1.390 . S
C1261 C1260 1.390 . S
C1261 C1262 1.394 . S
C1261 C1267 1.465 . S
C1262 C1257 1.399 . S
C1262 C1261 1.394 . S
C1262 C1263 1.516 . S
C1263 C1262 1.516 . S
C1263 C1264 1.502 . S
C1263 C1265 1.561 . S
C1263 C1266 1.526 . S
C1264 H1248 0.959 . S
C1264 H1249 0.959 . S
C1264 H1250 0.961 . S
C1264 C1263 1.502 . S
C1265 H1251 0.960 . S
C1265 H1252 0.961 . S
C1265 H1253 0.959 . S
C1265 C1263 1.561 . S
C1266 C1263 1.526 . S
C1266 C1267 1.396 . S
C1266 C1271 1.390 . S
C1267 C1261 1.465 . S
C1267 C1266 1.396 . S
C1267 C1268 1.399 . S
C1268 H1254 0.929 . S
C1268 C1267 1.399 . S
C1268 C1269 1.385 . S
C1269 H1255 0.931 . S
C1269 C1268 1.385 . S
C1269 C1270 1.389 . S
C1270 C1269 1.389 . S
C1270 C1271 1.387 . S
C1271 H1256 0.930 . S
C1271 C1266 1.390 . S
C1271 C1270 1.387 . S
H1272 C1284 0.930 . S
H1273 C1286 0.930 . S
H1274 C1287 0.930 . S
H1275 C1291 0.959 . S
H1276 C1291 0.959 . S
H1277 C1291 0.961 . S
H1278 C1292 0.960 . S
H1279 C1292 0.961 . S
H1280 C1292 0.959 . S
H1281 C1295 0.929 . S
H1282 C1296 0.931 . S
H1283 C1298 0.930 . S
C1284 H1272 0.930 . S
C1284 C1285 1.399 . S
C1284 C1289 1.399 . S
C1285 C1284 1.399 . S
C1285 C1286 1.376 . S
C1286 H1273 0.930 . S
C1286 C1285 1.376 . S
C1286 C1287 1.388 . S
C1287 H1274 0.930 . S
C1287 C1286 1.388 . S
C1287 C1288 1.390 . S
C1288 C1287 1.390 . S
C1288 C1289 1.394 . S
C1288 C1294 1.465 . S
C1289 C1284 1.399 . S
C1289 C1288 1.394 . S
C1289 C1290 1.516 . S
C1290 C1289 1.516 . S
C1290 C1291 1.502 . S
C1290 C1292 1.561 . S
C1290 C1293 1.526 . S
C1291 H1275 0.959 . S
C1291 H1276 0.959 . S
C1291 H1277 0.961 . S
C1291 C1290 1.502 . S
C1292 H1278 0.960 . S
C1292 H1279 0.961 . S
C1292 H1280 0.959 . S
C1292 C1290 1.561 . S
C1293 C1290 1.526 . S
C1293 C1294 1.396 . S
C1293 C1298 1.390 . S
C1294 C1288 1.465 . S
C1294 C1293 1.396 . S
C1294 C1295 1.399 . S
C1295 H1281 0.929 . S
C1295 C1294 1.399 . S
C1295 C1296 1.385 . S
C1296 H1282 0.931 . S
C1296 C1295 1.385 . S
C1296 C1297 1.389 . S
C1297 C1296 1.389 . S
C1297 C1298 1.387 . S
C1298 H1283 0.930 . S
C1298 C1293 1.390 . S
C1298 C1297 1.387 . S
H1299 C1311 0.930 . S
H1300 C1313 0.930 . S
H1301 C1314 0.930 . S
H1302 C1318 0.959 . S
H1303 C1318 0.959 . S
H1304 C1318 0.961 . S
H1305 C1319 0.960 . S
H1306 C1319 0.961 . S
H1307 C1319 0.959 . S
H1308 C1322 0.929 . S
H1309 C1323 0.931 . S
H1310 C1325 0.930 . S
C1311 H1299 0.930 . S
C1311 C1312 1.399 . S
C1311 C1316 1.399 . S
C1312 C1311 1.399 . S
C1312 C1313 1.376 . S
C1313 H1300 0.930 . S
C1313 C1312 1.376 . S
C1313 C1314 1.388 . S
C1314 H1301 0.930 . S
C1314 C1313 1.388 . S
C1314 C1315 1.390 . S
C1315 C1314 1.390 . S
C1315 C1316 1.394 . S
C1315 C1321 1.465 . S
C1316 C1311 1.399 . S
C1316 C1315 1.394 . S
C1316 C1317 1.516 . S
C1317 C1316 1.516 . S
C1317 C1318 1.502 . S
C1317 C1319 1.561 . S
C1317 C1320 1.526 . S
C1318 H1302 0.959 . S
C1318 H1303 0.959 . S
C1318 H1304 0.961 . S
C1318 C1317 1.502 . S
C1319 H1305 0.960 . S
C1319 H1306 0.961 . S
C1319 H1307 0.959 . S
C1319 C1317 1.561 . S
C1320 C1317 1.526 . S
C1320 C1321 1.396 . S
C1320 C1325 1.390 . S
C1321 C1315 1.465 . S
C1321 C1320 1.396 . S
C1321 C1322 1.399 . S
C1322 H1308 0.929 . S
C1322 C1321 1.399 . S
C1322 C1323 1.385 . S
C1323 H1309 0.931 . S
C1323 C1322 1.385 . S
C1323 C1324 1.389 . S
C1324 C1323 1.389 . S
C1324 C1325 1.387 . S
C1325 H1310 0.930 . S
C1325 C1320 1.390 . S
C1325 C1324 1.387 . S
H1326 C1338 0.930 . S
H1327 C1340 0.930 . S
H1328 C1341 0.930 . S
H1329 C1345 0.959 . S
H1330 C1345 0.959 . S
H1331 C1345 0.961 . S
H1332 C1346 0.960 . S
H1333 C1346 0.961 . S
H1334 C1346 0.959 . S
H1335 C1349 0.929 . S
H1336 C1350 0.931 . S
H1337 C1352 0.930 . S
C1338 H1326 0.930 . S
C1338 C1339 1.399 . S
C1338 C1343 1.399 . S
C1339 C1338 1.399 . S
C1339 C1340 1.376 . S
C1340 H1327 0.930 . S
C1340 C1339 1.376 . S
C1340 C1341 1.388 . S
C1341 H1328 0.930 . S
C1341 C1340 1.388 . S
C1341 C1342 1.390 . S
C1342 C1341 1.390 . S
C1342 C1343 1.394 . S
C1342 C1348 1.465 . S
C1343 C1338 1.399 . S
C1343 C1342 1.394 . S
C1343 C1344 1.516 . S
C1344 C1343 1.516 . S
C1344 C1345 1.502 . S
C1344 C1346 1.561 . S
C1344 C1347 1.526 . S
C1345 H1329 0.959 . S
C1345 H1330 0.959 . S
C1345 H1331 0.961 . S
C1345 C1344 1.502 . S
C1346 H1332 0.960 . S
C1346 H1333 0.961 . S
C1346 H1334 0.959 . S
C1346 C1344 1.561 . S
C1347 C1344 1.526 . S
C1347 C1348 1.396 . S
C1347 C1352 1.390 . S
C1348 C1342 1.465 . S
C1348 C1347 1.396 . S
C1348 C1349 1.399 . S
C1349 H1335 0.929 . S
C1349 C1348 1.399 . S
C1349 C1350 1.385 . S
C1350 H1336 0.931 . S
C1350 C1349 1.385 . S
C1350 C1351 1.389 . S
C1351 C1350 1.389 . S
C1351 C1352 1.387 . S
C1352 H1337 0.930 . S
C1352 C1347 1.390 . S
C1352 C1351 1.387 . S
H1353 C1365 0.930 . S
H1354 C1367 0.930 . S
H1355 C1368 0.930 . S
H1356 C1372 0.959 . S
H1357 C1372 0.959 1_554 S
H1358 C1372 0.961 . S
H1359 C1373 0.960 . S
H1360 C1373 0.961 . S
H1361 C1373 0.959 . S
H1362 C1376 0.929 . S
H1363 C1377 0.931 . S
H1364 C1379 0.942 . S
C1365 H1353 0.930 . S
C1365 C1366 1.399 . S
C1365 C1370 1.399 . S
C1366 C1365 1.399 . S
C1366 C1367 1.376 . S
C1367 H1354 0.930 . S
C1367 C1366 1.376 . S
C1367 C1368 1.388 . S
C1368 H1355 0.930 . S
C1368 C1367 1.388 . S
C1368 C1369 1.390 . S
C1369 C1368 1.390 . S
C1369 C1370 1.394 . S
C1369 C1375 1.465 . S
C1370 C1365 1.399 . S
C1370 C1369 1.394 . S
C1370 C1371 1.516 . S
C1371 C1370 1.516 . S
C1371 C1372 1.502 . S
C1371 C1373 1.561 1_556 S
C1371 C1374 1.526 . S
C1372 H1356 0.959 . S
C1372 H1357 0.959 1_556 S
C1372 H1358 0.961 . S
C1372 C1371 1.502 . S
C1373 H1359 0.960 . S
C1373 H1360 0.961 . S
C1373 H1361 0.959 . S
C1373 C1371 1.561 1_554 S
C1374 C1371 1.526 . S
C1374 C1375 1.396 . S
C1374 C1379 1.382 1_556 S
C1375 C1369 1.465 . S
C1375 C1374 1.396 . S
C1375 C1376 1.399 . S
C1376 H1362 0.929 . S
C1376 C1375 1.399 . S
C1376 C1377 1.385 . S
C1377 H1363 0.931 . S
C1377 C1376 1.385 . S
C1377 C1378 1.389 . S
C1378 C1377 1.389 . S
C1378 C1379 1.382 1_556 S
C1379 H1364 0.942 . S
C1379 C1374 1.382 1_554 S
C1379 C1378 1.382 1_554 S
H1380 C1392 0.930 . S
H1381 C1394 0.930 . S
H1382 C1395 0.930 . S
H1383 C1399 0.959 . S
H1384 C1399 0.959 . S
H1385 C1399 0.961 . S
H1386 C1400 0.960 . S
H1387 C1400 0.961 . S
H1388 C1400 0.959 . S
H1389 C1403 0.929 . S
H1390 C1404 0.931 . S
H1391 C1406 0.930 . S
C1392 H1380 0.930 . S
C1392 C1393 1.399 . S
C1392 C1397 1.399 . S
C1393 C1392 1.399 . S
C1393 C1394 1.376 . S
C1394 H1381 0.930 . S
C1394 C1393 1.376 . S
C1394 C1395 1.388 . S
C1395 H1382 0.930 . S
C1395 C1394 1.388 . S
C1395 C1396 1.390 . S
C1396 C1395 1.390 . S
C1396 C1397 1.394 . S
C1396 C1402 1.465 . S
C1397 C1392 1.399 . S
C1397 C1396 1.394 . S
C1397 C1398 1.516 . S
C1398 C1397 1.516 . S
C1398 C1399 1.502 . S
C1398 C1400 1.561 . S
C1398 C1401 1.526 . S
C1399 H1383 0.959 . S
C1399 H1384 0.959 . S
C1399 H1385 0.961 . S
C1399 C1398 1.502 . S
C1400 H1386 0.960 . S
C1400 H1387 0.961 . S
C1400 H1388 0.959 . S
C1400 C1398 1.561 . S
C1401 C1398 1.526 . S
C1401 C1402 1.396 . S
C1401 C1406 1.390 . S
C1402 C1396 1.465 . S
C1402 C1401 1.396 . S
C1402 C1403 1.399 . S
C1403 H1389 0.929 . S
C1403 C1402 1.399 . S
C1403 C1404 1.385 . S
C1404 H1390 0.931 . S
C1404 C1403 1.385 . S
C1404 C1405 1.389 . S
C1405 C1404 1.389 . S
C1405 C1406 1.387 . S
C1406 H1391 0.930 . S
C1406 C1401 1.390 . S
C1406 C1405 1.387 . S
H1407 C1419 0.930 . S
H1408 C1421 0.930 . S
H1409 C1422 0.930 . S
H1410 C1426 0.959 . S
H1411 C1426 0.959 . S
H1412 C1426 0.961 1_554 S
H1413 C1427 0.960 . S
H1414 C1427 0.961 . S
H1415 C1427 0.959 . S
H1416 C1430 0.929 . S
H1417 C1431 0.931 . S
H1418 C1433 0.930 . S
C1419 H1407 0.930 . S
C1419 C1420 1.399 . S
C1419 C1424 1.399 1_554 S
C1420 C1419 1.399 . S
C1420 C1421 1.376 . S
C1421 H1408 0.930 . S
C1421 C1420 1.376 . S
C1421 C1422 1.388 1_554 S
C1422 H1409 0.930 . S
C1422 C1421 1.388 1_556 S
C1422 C1423 1.390 . S
C1423 C1422 1.390 . S
C1423 C1424 1.394 . S
C1423 C1429 1.465 . S
C1424 C1419 1.399 1_556 S
C1424 C1423 1.394 . S
C1424 C1425 1.516 . S
C1425 C1424 1.516 . S
C1425 C1426 1.502 . S
C1425 C1427 1.561 . S
C1425 C1428 1.526 . S
C1426 H1410 0.959 . S
C1426 H1411 0.959 . S
C1426 H1412 0.961 1_556 S
C1426 C1425 1.502 . S
C1427 H1413 0.960 . S
C1427 H1414 0.961 . S
C1427 H1415 0.959 . S
C1427 C1425 1.561 . S
C1428 C1425 1.526 . S
C1428 C1429 1.396 . S
C1428 C1433 1.390 . S
C1429 C1423 1.465 . S
C1429 C1428 1.396 . S
C1429 C1430 1.399 . S
C1430 H1416 0.929 . S
C1430 C1429 1.399 . S
C1430 C1431 1.385 . S
C1431 H1417 0.931 . S
C1431 C1430 1.385 . S
C1431 C1432 1.389 . S
C1432 C1431 1.389 . S
C1432 C1433 1.387 . S
C1433 H1418 0.930 . S
C1433 C1428 1.390 . S
C1433 C1432 1.387 . S
H1434 C1446 0.930 . S
H1435 C1448 0.930 . S
H1436 C1449 0.930 . S
H1437 C1453 0.959 . S
H1438 C1453 0.959 . S
H1439 C1453 0.961 . S
H1440 C1454 0.960 . S
H1441 C1454 0.961 . S
H1442 C1454 0.959 . S
H1443 C1457 0.929 . S
H1444 C1458 0.931 . S
H1445 C1460 0.930 . S
C1446 H1434 0.930 . S
C1446 C1447 1.399 . S
C1446 C1451 1.399 . S
C1447 C1446 1.399 . S
C1447 C1448 1.376 . S
C1448 H1435 0.930 . S
C1448 C1447 1.376 . S
C1448 C1449 1.388 . S
C1449 H1436 0.930 . S
C1449 C1448 1.388 . S
C1449 C1450 1.390 . S
C1450 C1449 1.390 . S
C1450 C1451 1.394 . S
C1450 C1456 1.465 . S
C1451 C1446 1.399 . S
C1451 C1450 1.394 . S
C1451 C1452 1.516 . S
C1452 C1451 1.516 . S
C1452 C1453 1.502 . S
C1452 C1454 1.561 . S
C1452 C1455 1.526 . S
C1453 H1437 0.959 . S
C1453 H1438 0.959 . S
C1453 H1439 0.961 . S
C1453 C1452 1.502 . S
C1454 H1440 0.960 . S
C1454 H1441 0.961 . S
C1454 H1442 0.959 . S
C1454 C1452 1.561 . S
C1455 C1452 1.526 . S
C1455 C1456 1.396 . S
C1455 C1460 1.390 . S
C1456 C1450 1.465 . S
C1456 C1455 1.396 . S
C1456 C1457 1.399 . S
C1457 H1443 0.929 . S
C1457 C1456 1.399 . S
C1457 C1458 1.385 . S
C1458 H1444 0.931 . S
C1458 C1457 1.385 . S
C1458 C1459 1.389 . S
C1459 C1458 1.389 . S
C1459 C1460 1.387 . S
C1460 H1445 0.930 . S
C1460 C1455 1.390 . S
C1460 C1459 1.387 . S
H1461 C1473 0.930 . S
H1462 C1475 0.930 . S
H1463 C1476 0.930 . S
H1464 C1480 0.959 . S
H1465 C1480 0.959 . S
H1466 C1480 0.961 . S
H1467 C1481 0.960 . S
H1468 C1481 0.961 . S
H1469 C1481 0.959 . S
H1470 C1484 0.929 . S
H1471 C1485 0.931 . S
H1472 C1487 0.930 . S
C1473 H1461 0.930 . S
C1473 C1474 1.399 . S
C1473 C1478 1.399 . S
C1474 C1473 1.399 . S
C1474 C1475 1.376 . S
C1475 H1462 0.930 . S
C1475 C1474 1.376 . S
C1475 C1476 1.388 . S
C1476 H1463 0.930 . S
C1476 C1475 1.388 . S
C1476 C1477 1.390 . S
C1477 C1476 1.390 . S
C1477 C1478 1.394 . S
C1477 C1483 1.465 . S
C1478 C1473 1.399 . S
C1478 C1477 1.394 . S
C1478 C1479 1.516 . S
C1479 C1478 1.516 . S
C1479 C1480 1.502 . S
C1479 C1481 1.561 . S
C1479 C1482 1.526 . S
C1480 H1464 0.959 . S
C1480 H1465 0.959 . S
C1480 H1466 0.961 . S
C1480 C1479 1.502 . S
C1481 H1467 0.960 . S
C1481 H1468 0.961 . S
C1481 H1469 0.959 . S
C1481 C1479 1.561 . S
C1482 C1479 1.526 . S
C1482 C1483 1.396 . S
C1482 C1487 1.390 . S
C1483 C1477 1.465 . S
C1483 C1482 1.396 . S
C1483 C1484 1.399 . S
C1484 H1470 0.929 . S
C1484 C1483 1.399 . S
C1484 C1485 1.385 . S
C1485 H1471 0.931 . S
C1485 C1484 1.385 . S
C1485 C1486 1.389 . S
C1486 C1485 1.389 . S
C1486 C1487 1.387 . S
C1487 H1472 0.930 . S
C1487 C1482 1.390 . S
C1487 C1486 1.387 . S
H1488 C1500 0.930 . S
H1489 C1502 0.930 . S
H1490 C1503 0.930 . S
H1491 C1507 0.959 . S
H1492 C1507 0.959 . S
H1493 C1507 0.961 . S
H1494 C1508 0.960 . S
H1495 C1508 0.961 . S
H1496 C1508 0.959 . S
H1497 C1511 0.929 . S
H1498 C1512 0.931 . S
H1499 C1514 0.930 . S
C1500 H1488 0.930 . S
C1500 C1501 1.399 . S
C1500 C1505 1.399 . S
C1501 C1500 1.399 . S
C1501 C1502 1.376 . S
C1502 H1489 0.930 . S
C1502 C1501 1.376 . S
C1502 C1503 1.388 . S
C1503 H1490 0.930 . S
C1503 C1502 1.388 . S
C1503 C1504 1.390 . S
C1504 C1503 1.390 . S
C1504 C1505 1.394 . S
C1504 C1510 1.465 . S
C1505 C1500 1.399 . S
C1505 C1504 1.394 . S
C1505 C1506 1.516 . S
C1506 C1505 1.516 . S
C1506 C1507 1.502 . S
C1506 C1508 1.561 . S
C1506 C1509 1.526 . S
C1507 H1491 0.959 . S
C1507 H1492 0.959 . S
C1507 H1493 0.961 . S
C1507 C1506 1.502 . S
C1508 H1494 0.960 . S
C1508 H1495 0.961 . S
C1508 H1496 0.959 . S
C1508 C1506 1.561 . S
C1509 C1506 1.526 . S
C1509 C1510 1.396 . S
C1509 C1514 1.390 . S
C1510 C1504 1.465 . S
C1510 C1509 1.396 . S
C1510 C1511 1.399 . S
C1511 H1497 0.929 . S
C1511 C1510 1.399 . S
C1511 C1512 1.385 . S
C1512 H1498 0.931 . S
C1512 C1511 1.385 . S
C1512 C1513 1.389 . S
C1513 C1512 1.389 . S
C1513 C1514 1.387 . S
C1514 H1499 0.930 . S
C1514 C1509 1.390 . S
C1514 C1513 1.387 . S
H1515 C1527 0.930 . S
H1516 C1529 0.930 . S
H1517 C1530 0.930 . S
H1518 C1534 0.959 . S
H1519 C1534 0.959 . S
H1520 C1534 0.961 . S
H1521 C1535 0.960 . S
H1522 C1535 0.961 . S
H1523 C1535 0.959 . S
H1524 C1538 0.929 . S
H1525 C1539 0.931 . S
H1526 C1541 0.930 . S
C1527 H1515 0.930 . S
C1527 C1528 1.399 . S
C1527 C1532 1.399 . S
C1528 C1527 1.399 . S
C1528 C1529 1.376 . S
C1529 H1516 0.930 . S
C1529 C1528 1.376 . S
C1529 C1530 1.388 . S
C1530 H1517 0.930 . S
C1530 C1529 1.388 . S
C1530 C1531 1.390 . S
C1531 C1530 1.390 . S
C1531 C1532 1.394 . S
C1531 C1537 1.465 . S
C1532 C1527 1.399 . S
C1532 C1531 1.394 . S
C1532 C1533 1.516 . S
C1533 C1532 1.516 . S
C1533 C1534 1.502 . S
C1533 C1535 1.561 . S
C1533 C1536 1.526 . S
C1534 H1518 0.959 . S
C1534 H1519 0.959 . S
C1534 H1520 0.961 . S
C1534 C1533 1.502 . S
C1535 H1521 0.960 . S
C1535 H1522 0.961 . S
C1535 H1523 0.959 . S
C1535 C1533 1.561 . S
C1536 C1533 1.526 . S
C1536 C1537 1.396 . S
C1536 C1541 1.390 . S
C1537 C1531 1.465 . S
C1537 C1536 1.396 . S
C1537 C1538 1.399 . S
C1538 H1524 0.929 . S
C1538 C1537 1.399 . S
C1538 C1539 1.385 . S
C1539 H1525 0.931 . S
C1539 C1538 1.385 . S
C1539 C1540 1.389 . S
C1540 C1539 1.389 . S
C1540 C1541 1.387 . S
C1541 H1526 0.930 . S
C1541 C1536 1.390 . S
C1541 C1540 1.387 . S
H1542 C1554 0.930 . S
H1543 C1556 0.930 . S
H1544 C1557 0.930 . S
H1545 C1561 0.959 1_455 S
H1546 C1561 0.959 . S
H1547 C1561 0.942 1_455 S
H1548 C1562 0.960 . S
H1549 C1562 0.961 . S
H1550 C1562 0.959 . S
H1551 C1565 0.931 . S
H1552 C1566 0.931 . S
H1553 C1568 0.930 . S
C1554 H1542 0.930 . S
C1554 C1555 1.399 . S
C1554 C1559 1.399 . S
C1555 C1554 1.399 . S
C1555 C1556 1.376 . S
C1556 H1543 0.930 . S
C1556 C1555 1.376 . S
C1556 C1557 1.388 . S
C1557 H1544 0.930 . S
C1557 C1556 1.388 . S
C1557 C1558 1.390 . S
C1558 C1557 1.390 . S
C1558 C1559 1.394 . S
C1558 C1564 1.465 1_455 S
C1559 C1554 1.399 . S
C1559 C1558 1.394 . S
C1559 C1560 1.516 1_455 S
C1560 C1559 1.516 1_655 S
C1560 C1561 1.502 . S
C1560 C1562 1.561 . S
C1560 C1563 1.526 . S
C1561 H1545 0.959 1_655 S
C1561 H1546 0.959 . S
C1561 H1547 0.942 1_655 S
C1561 C1560 1.502 . S
C1562 H1548 0.960 . S
C1562 H1549 0.961 . S
C1562 H1550 0.959 . S
C1562 C1560 1.561 . S
C1563 C1560 1.526 . S
C1563 C1564 1.396 . S
C1563 C1568 1.390 . S
C1564 C1558 1.465 1_655 S
C1564 C1563 1.396 . S
C1564 C1565 1.399 . S
C1565 H1551 0.931 . S
C1565 C1564 1.399 . S
C1565 C1566 1.385 . S
C1566 H1552 0.931 . S
C1566 C1565 1.385 . S
C1566 C1567 1.389 . S
C1567 C1566 1.389 . S
C1567 C1568 1.387 . S
C1568 H1553 0.930 . S
C1568 C1563 1.390 . S
C1568 C1567 1.387 . S
H1569 C1581 0.930 1_554 S
H1570 C1583 0.930 . S
H1571 C1584 0.930 . S
H1572 C1588 0.959 . S
H1573 C1588 0.959 . S
H1574 C1588 0.961 . S
H1575 C1589 0.960 . S
H1576 C1589 0.961 . S
H1577 C1589 0.959 . S
H1578 C1592 0.929 . S
H1579 C1593 0.931 . S
H1580 C1595 0.930 . S
C1581 H1569 0.930 1_556 S
C1581 C1582 1.399 . S
C1581 C1586 1.399 1_556 S
C1582 C1581 1.399 . S
C1582 C1583 1.376 . S
C1583 H1570 0.930 . S
C1583 C1582 1.376 . S
C1583 C1584 1.388 1_565 S
C1584 H1571 0.930 . S
C1584 C1583 1.388 1_545 S
C1584 C1585 1.395 1_556 S
C1585 C1584 1.395 1_554 S
C1585 C1586 1.360 1_545 S
C1585 C1591 1.491 . S
C1586 C1581 1.399 1_554 S
C1586 C1585 1.360 1_565 S
C1586 C1587 1.516 . S
C1587 C1586 1.516 . S
C1587 C1588 1.502 . S
C1587 C1589 1.561 . S
C1587 C1590 1.526 1_565 S
C1588 H1572 0.959 . S
C1588 H1573 0.959 . S
C1588 H1574 0.961 . S
C1588 C1587 1.502 . S
C1589 H1575 0.960 . S
C1589 H1576 0.961 . S
C1589 H1577 0.959 . S
C1589 C1587 1.561 . S
C1590 C1587 1.526 1_545 S
C1590 C1591 1.396 . S
C1590 C1595 1.390 . S
C1591 C1585 1.491 . S
C1591 C1590 1.396 . S
C1591 C1592 1.399 . S
C1592 H1578 0.929 . S
C1592 C1591 1.399 . S
C1592 C1593 1.385 . S
C1593 H1579 0.931 . S
C1593 C1592 1.385 . S
C1593 C1594 1.389 . S
C1594 C1593 1.389 . S
C1594 C1595 1.387 . S
C1595 H1580 0.930 . S
C1595 C1590 1.390 . S
C1595 C1594 1.387 . S
H1596 C1608 0.930 . S
H1597 C1610 0.930 . S
H1598 C1611 0.930 . S
H1599 C1615 0.959 . S
H1600 C1615 0.959 . S
H1601 C1615 0.961 . S
H1602 C1616 0.960 . S
H1603 C1616 0.961 . S
H1604 C1616 0.959 . S
H1605 C1619 0.929 . S
H1606 C1620 0.931 . S
H1607 C1622 0.930 . S
C1608 H1596 0.930 . S
C1608 C1609 1.399 . S
C1608 C1613 1.399 . S
C1609 C1608 1.399 . S
C1609 C1610 1.376 . S
C1610 H1597 0.930 . S
C1610 C1609 1.376 . S
C1610 C1611 1.388 . S
C1611 H1598 0.930 . S
C1611 C1610 1.388 . S
C1611 C1612 1.390 . S
C1612 C1611 1.390 . S
C1612 C1613 1.394 . S
C1612 C1618 1.465 . S
C1613 C1608 1.399 . S
C1613 C1612 1.394 . S
C1613 C1614 1.516 . S
C1614 C1613 1.516 . S
C1614 C1615 1.502 . S
C1614 C1616 1.561 . S
C1614 C1617 1.526 . S
C1615 H1599 0.959 . S
C1615 H1600 0.959 . S
C1615 H1601 0.961 . S
C1615 C1614 1.502 . S
C1616 H1602 0.960 . S
C1616 H1603 0.961 . S
C1616 H1604 0.959 . S
C1616 C1614 1.561 . S
C1617 C1614 1.526 . S
C1617 C1618 1.396 . S
C1617 C1622 1.390 . S
C1618 C1612 1.465 . S
C1618 C1617 1.396 . S
C1618 C1619 1.399 . S
C1619 H1605 0.929 . S
C1619 C1618 1.399 . S
C1619 C1620 1.385 . S
C1620 H1606 0.931 . S
C1620 C1619 1.385 . S
C1620 C1621 1.389 . S
C1621 C1620 1.389 . S
C1621 C1622 1.387 . S
C1622 H1607 0.930 . S
C1622 C1617 1.390 . S
C1622 C1621 1.387 . S
H1623 C1635 0.930 . S
H1624 C1637 0.930 . S
H1625 C1638 0.930 . S
H1626 C1642 0.959 . S
H1627 C1642 0.959 . S
H1628 C1642 0.961 . S
H1629 C1643 0.960 . S
H1630 C1643 0.961 . S
H1631 C1643 0.959 . S
H1632 C1646 0.929 . S
H1633 C1647 0.931 . S
H1634 C1649 0.930 . S
C1635 H1623 0.930 . S
C1635 C1636 1.399 . S
C1635 C1640 1.399 . S
C1636 C1635 1.399 . S
C1636 C1637 1.376 . S
C1637 H1624 0.930 . S
C1637 C1636 1.376 . S
C1637 C1638 1.388 1_455 S
C1638 H1625 0.930 . S
C1638 C1637 1.388 1_655 S
C1638 C1639 1.391 . S
C1639 C1638 1.391 . S
C1639 C1640 1.388 1_655 S
C1639 C1645 1.469 . S
C1640 C1635 1.399 . S
C1640 C1639 1.388 1_455 S
C1640 C1641 1.516 . S
C1641 C1640 1.516 . S
C1641 C1642 1.502 . S
C1641 C1643 1.561 . S
C1641 C1644 1.526 1_455 S
C1642 H1626 0.959 . S
C1642 H1627 0.959 . S
C1642 H1628 0.961 . S
C1642 C1641 1.502 . S
C1643 H1629 0.960 . S
C1643 H1630 0.961 . S
C1643 H1631 0.959 . S
C1643 C1641 1.561 . S
C1644 C1641 1.526 1_655 S
C1644 C1645 1.396 . S
C1644 C1649 1.390 . S
C1645 C1639 1.469 . S
C1645 C1644 1.396 . S
C1645 C1646 1.399 . S
C1646 H1632 0.929 . S
C1646 C1645 1.399 . S
C1646 C1647 1.385 . S
C1647 H1633 0.931 . S
C1647 C1646 1.385 . S
C1647 C1648 1.389 . S
C1648 C1647 1.389 . S
C1648 C1649 1.387 . S
C1649 H1634 0.930 . S
C1649 C1644 1.390 . S
C1649 C1648 1.387 . S
H1650 C1662 0.930 . S
H1651 C1664 0.930 . S
H1652 C1665 0.937 . S
H1653 C1669 0.959 . S
H1654 C1669 0.959 . S
H1655 C1669 0.961 . S
H1656 C1670 0.960 . S
H1657 C1670 0.961 . S
H1658 C1670 0.959 . S
H1659 C1673 0.929 . S
H1660 C1674 0.931 . S
H1661 C1676 0.930 . S
C1662 H1650 0.930 . S
C1662 C1663 1.399 . S
C1662 C1667 1.399 . S
C1663 C1662 1.399 . S
C1663 C1664 1.376 . S
C1664 H1651 0.930 . S
C1664 C1663 1.376 . S
C1664 C1665 1.379 1_545 S
C1665 H1652 0.937 . S
C1665 C1664 1.379 1_565 S
C1665 C1666 1.392 1_565 S
C1666 C1665 1.392 1_545 S
C1666 C1667 1.394 . S
C1666 C1672 1.465 1_545 S
C1667 C1662 1.399 . S
C1667 C1666 1.394 . S
C1667 C1668 1.516 . S
C1668 C1667 1.516 . S
C1668 C1669 1.502 . S
C1668 C1670 1.561 . S
C1668 C1671 1.526 1_545 S
C1669 H1653 0.959 . S
C1669 H1654 0.959 . S
C1669 H1655 0.961 . S
C1669 C1668 1.502 . S
C1670 H1656 0.960 . S
C1670 H1657 0.961 . S
C1670 H1658 0.959 . S
C1670 C1668 1.561 . S
C1671 C1668 1.526 1_565 S
C1671 C1672 1.396 . S
C1671 C1676 1.390 . S
C1672 C1666 1.465 1_565 S
C1672 C1671 1.396 . S
C1672 C1673 1.399 . S
C1673 H1659 0.929 . S
C1673 C1672 1.399 . S
C1673 C1674 1.385 . S
C1674 H1660 0.931 . S
C1674 C1673 1.385 . S
C1674 C1675 1.389 . S
C1675 C1674 1.389 . S
C1675 C1676 1.387 . S
C1676 H1661 0.930 . S
C1676 C1671 1.390 . S
C1676 C1675 1.387 . S
H1677 C1689 0.930 . S
H1678 C1691 0.930 . S
H1679 C1692 0.930 . S
H1680 C1696 0.959 . S
H1681 C1696 0.959 . S
H1682 C1696 0.961 . S
H1683 C1697 0.960 . S
H1684 C1697 0.961 . S
H1685 C1697 0.959 . S
H1686 C1700 0.929 . S
H1687 C1701 0.931 . S
H1688 C1703 0.930 . S
C1689 H1677 0.930 . S
C1689 C1690 1.399 . S
C1689 C1694 1.399 . S
C1690 C1689 1.399 . S
C1690 C1691 1.376 . S
C1691 H1678 0.930 . S
C1691 C1690 1.376 . S
C1691 C1692 1.388 . S
C1692 H1679 0.930 . S
C1692 C1691 1.388 . S
C1692 C1693 1.390 . S
C1693 C1692 1.390 . S
C1693 C1694 1.394 . S
C1693 C1699 1.465 . S
C1694 C1689 1.399 . S
C1694 C1693 1.394 . S
C1694 C1695 1.516 . S
C1695 C1694 1.516 . S
C1695 C1696 1.502 . S
C1695 C1697 1.561 . S
C1695 C1698 1.526 . S
C1696 H1680 0.959 . S
C1696 H1681 0.959 . S
C1696 H1682 0.961 . S
C1696 C1695 1.502 . S
C1697 H1683 0.960 . S
C1697 H1684 0.961 . S
C1697 H1685 0.959 . S
C1697 C1695 1.561 . S
C1698 C1695 1.526 . S
C1698 C1699 1.396 . S
C1698 C1703 1.390 . S
C1699 C1693 1.465 . S
C1699 C1698 1.396 . S
C1699 C1700 1.399 . S
C1700 H1686 0.929 . S
C1700 C1699 1.399 . S
C1700 C1701 1.385 . S
C1701 H1687 0.931 . S
C1701 C1700 1.385 . S
C1701 C1702 1.389 . S
C1702 C1701 1.389 . S
C1702 C1703 1.387 . S
C1703 H1688 0.930 . S
C1703 C1698 1.390 . S
C1703 C1702 1.387 . S
C1069 C29 1.255 . S
C1081 C937 1.287 . S
C1096 C1017 1.300 . S
C1108 C117 1.331 . S
C1123 C196 1.256 . S
C1135 C577 1.283 . S
C1150 C293 1.255 . S
C1162 C673 1.298 . S
C1177 C372 1.258 . S
C1189 C761 1.278 . S
C1204 C849 1.285 . S
C1216 C469 1.329 . S
C1231 C20 1.650 . S
C1243 C753 1.627 . S
C1258 C108 1.631 . S
C1270 C841 1.646 . S
C1285 C929 1.627 . S
C1297 C205 1.650 . S
C1312 C284 1.648 . S
C1324 C1025 1.630 . S
C1339 C381 1.647 . S
C1351 C585 1.631 . S
C1366 C460 1.645 . S
C1378 C665 1.633 1_556 S
C1393 C900 0.577 . S
C1405 C49 0.578 . S
C1420 C137 0.576 . S
C1432 C997 0.578 . S
C1447 C233 0.569 . S
C1459 C557 0.566 . S
C1474 C313 0.574 . S
C1486 C636 0.576 . S
C1501 C724 0.564 . S
C1513 C409 0.566 . S
C1528 C489 0.573 . S
C1540 C812 0.570 . S
C1555 C57 1.737 . S
C1567 C988 1.750 . S
C1582 C548 1.787 . S
C1594 C145 1.719 . S
C1609 C645 1.746 . S
C1621 C225 1.766 . S
C1636 C733 1.785 . S
C1648 C321 1.722 . S
C1663 C821 1.780 . S
C1675 C401 1.731 . S
C1690 C909 1.738 . S
C1702 C497 1.749 . S
