# Generated by pormake.
# Topology mer, (4)-cn, num edge types: 1
# Building blocks:
#     Node 0, Type 0, BuildingBlock: ESEHIV_clean_sbu_0, # of connection points: 4
#     Node 1, Type 0, BuildingBlock: ESEHIV_clean_sbu_0, # of connection points: 4
#     Node 2, Type 0, BuildingBlock: ESEHIV_clean_sbu_0, # of connection points: 4
#     Node 3, Type 0, BuildingBlock: ESEHIV_clean_sbu_0, # of connection points: 4
#     Node 4, Type 0, BuildingBlock: ESEHIV_clean_sbu_0, # of connection points: 4
#     Node 5, Type 0, BuildingBlock: ESEHIV_clean_sbu_0, # of connection points: 4
#     Node 6, Type 0, BuildingBlock: ESEHIV_clean_sbu_0, # of connection points: 4
#     Node 7, Type 0, BuildingBlock: ESEHIV_clean_sbu_0, # of connection points: 4
#     Node 8, Type 0, BuildingBlock: ESEHIV_clean_sbu_0, # of connection points: 4
#     Node 9, Type 0, BuildingBlock: ESEHIV_clean_sbu_0, # of connection points: 4
#     Node 10, Type 0, BuildingBlock: ESEHIV_clean_sbu_0, # of connection points: 4
#     Node 11, Type 0, BuildingBlock: ESEHIV_clean_sbu_0, # of connection points: 4
#     Node 12, Type 0, BuildingBlock: ESEHIV_clean_sbu_0, # of connection points: 4
#     Node 13, Type 0, BuildingBlock: ESEHIV_clean_sbu_0, # of connection points: 4
#     Node 14, Type 0, BuildingBlock: ESEHIV_clean_sbu_0, # of connection points: 4
#     Node 15, Type 0, BuildingBlock: ESEHIV_clean_sbu_0, # of connection points: 4
#     Node 16, Type 0, BuildingBlock: ESEHIV_clean_sbu_0, # of connection points: 4
#     Node 17, Type 0, BuildingBlock: ESEHIV_clean_sbu_0, # of connection points: 4
#     Node 18, Type 0, BuildingBlock: ESEHIV_clean_sbu_0, # of connection points: 4
#     Node 19, Type 0, BuildingBlock: ESEHIV_clean_sbu_0, # of connection points: 4
#     Node 20, Type 0, BuildingBlock: ESEHIV_clean_sbu_0, # of connection points: 4
#     Node 21, Type 0, BuildingBlock: ESEHIV_clean_sbu_0, # of connection points: 4
#     Node 22, Type 0, BuildingBlock: ESEHIV_clean_sbu_0, # of connection points: 4
#     Node 23, Type 0, BuildingBlock: ESEHIV_clean_sbu_0, # of connection points: 4
#     Node 24, Type 0, BuildingBlock: ESEHIV_clean_sbu_0, # of connection points: 4
#     Node 25, Type 0, BuildingBlock: ESEHIV_clean_sbu_0, # of connection points: 4
#     Node 26, Type 0, BuildingBlock: ESEHIV_clean_sbu_0, # of connection points: 4
#     Node 27, Type 0, BuildingBlock: ESEHIV_clean_sbu_0, # of connection points: 4
#     Node 28, Type 0, BuildingBlock: ESEHIV_clean_sbu_0, # of connection points: 4
#     Node 29, Type 0, BuildingBlock: ESEHIV_clean_sbu_0, # of connection points: 4
#     Node 30, Type 0, BuildingBlock: ESEHIV_clean_sbu_0, # of connection points: 4
#     Node 31, Type 0, BuildingBlock: ESEHIV_clean_sbu_0, # of connection points: 4
#     Edge 32, Type (0, 0), BuildingBlock: KIFKEQ_clean_linker_1, # of connection points: 2
#     Edge 33, Type (0, 0), BuildingBlock: KIFKEQ_clean_linker_1, # of connection points: 2
#     Edge 34, Type (0, 0), BuildingBlock: KIFKEQ_clean_linker_1, # of connection points: 2
#     Edge 35, Type (0, 0), BuildingBlock: KIFKEQ_clean_linker_1, # of connection points: 2
#     Edge 36, Type (0, 0), BuildingBlock: KIFKEQ_clean_linker_1, # of connection points: 2
#     Edge 37, Type (0, 0), BuildingBlock: KIFKEQ_clean_linker_1, # of connection points: 2
#     Edge 38, Type (0, 0), BuildingBlock: KIFKEQ_clean_linker_1, # of connection points: 2
#     Edge 39, Type (0, 0), BuildingBlock: KIFKEQ_clean_linker_1, # of connection points: 2
#     Edge 40, Type (0, 0), BuildingBlock: KIFKEQ_clean_linker_1, # of connection points: 2
#     Edge 41, Type (0, 0), BuildingBlock: KIFKEQ_clean_linker_1, # of connection points: 2
#     Edge 42, Type (0, 0), BuildingBlock: KIFKEQ_clean_linker_1, # of connection points: 2
#     Edge 43, Type (0, 0), BuildingBlock: KIFKEQ_clean_linker_1, # of connection points: 2
#     Edge 44, Type (0, 0), BuildingBlock: KIFKEQ_clean_linker_1, # of connection points: 2
#     Edge 45, Type (0, 0), BuildingBlock: KIFKEQ_clean_linker_1, # of connection points: 2
#     Edge 46, Type (0, 0), BuildingBlock: KIFKEQ_clean_linker_1, # of connection points: 2
#     Edge 47, Type (0, 0), BuildingBlock: KIFKEQ_clean_linker_1, # of connection points: 2
#     Edge 48, Type (0, 0), BuildingBlock: KIFKEQ_clean_linker_1, # of connection points: 2
#     Edge 49, Type (0, 0), BuildingBlock: KIFKEQ_clean_linker_1, # of connection points: 2
#     Edge 50, Type (0, 0), BuildingBlock: KIFKEQ_clean_linker_1, # of connection points: 2
#     Edge 51, Type (0, 0), BuildingBlock: KIFKEQ_clean_linker_1, # of connection points: 2
#     Edge 52, Type (0, 0), BuildingBlock: KIFKEQ_clean_linker_1, # of connection points: 2
#     Edge 53, Type (0, 0), BuildingBlock: KIFKEQ_clean_linker_1, # of connection points: 2
#     Edge 54, Type (0, 0), BuildingBlock: KIFKEQ_clean_linker_1, # of connection points: 2
#     Edge 55, Type (0, 0), BuildingBlock: KIFKEQ_clean_linker_1, # of connection points: 2
#     Edge 56, Type (0, 0), BuildingBlock: KIFKEQ_clean_linker_1, # of connection points: 2
#     Edge 57, Type (0, 0), BuildingBlock: KIFKEQ_clean_linker_1, # of connection points: 2
#     Edge 58, Type (0, 0), BuildingBlock: KIFKEQ_clean_linker_1, # of connection points: 2
#     Edge 59, Type (0, 0), BuildingBlock: KIFKEQ_clean_linker_1, # of connection points: 2
#     Edge 60, Type (0, 0), BuildingBlock: KIFKEQ_clean_linker_1, # of connection points: 2
#     Edge 61, Type (0, 0), BuildingBlock: KIFKEQ_clean_linker_1, # of connection points: 2
#     Edge 62, Type (0, 0), BuildingBlock: KIFKEQ_clean_linker_1, # of connection points: 2
#     Edge 63, Type (0, 0), BuildingBlock: KIFKEQ_clean_linker_1, # of connection points: 2
#     Edge 64, Type (0, 0), BuildingBlock: KIFKEQ_clean_linker_1, # of connection points: 2
#     Edge 65, Type (0, 0), BuildingBlock: KIFKEQ_clean_linker_1, # of connection points: 2
#     Edge 66, Type (0, 0), BuildingBlock: KIFKEQ_clean_linker_1, # of connection points: 2
#     Edge 67, Type (0, 0), BuildingBlock: KIFKEQ_clean_linker_1, # of connection points: 2
#     Edge 68, Type (0, 0), BuildingBlock: KIFKEQ_clean_linker_1, # of connection points: 2
#     Edge 69, Type (0, 0), BuildingBlock: KIFKEQ_clean_linker_1, # of connection points: 2
#     Edge 70, Type (0, 0), BuildingBlock: KIFKEQ_clean_linker_1, # of connection points: 2
#     Edge 71, Type (0, 0), BuildingBlock: KIFKEQ_clean_linker_1, # of connection points: 2
#     Edge 72, Type (0, 0), BuildingBlock: KIFKEQ_clean_linker_1, # of connection points: 2
#     Edge 73, Type (0, 0), BuildingBlock: KIFKEQ_clean_linker_1, # of connection points: 2
#     Edge 74, Type (0, 0), BuildingBlock: KIFKEQ_clean_linker_1, # of connection points: 2
#     Edge 75, Type (0, 0), BuildingBlock: KIFKEQ_clean_linker_1, # of connection points: 2
#     Edge 76, Type (0, 0), BuildingBlock: KIFKEQ_clean_linker_1, # of connection points: 2
#     Edge 77, Type (0, 0), BuildingBlock: KIFKEQ_clean_linker_1, # of connection points: 2
#     Edge 78, Type (0, 0), BuildingBlock: KIFKEQ_clean_linker_1, # of connection points: 2
#     Edge 79, Type (0, 0), BuildingBlock: KIFKEQ_clean_linker_1, # of connection points: 2
#     Edge 80, Type (0, 0), BuildingBlock: KIFKEQ_clean_linker_1, # of connection points: 2
#     Edge 81, Type (0, 0), BuildingBlock: KIFKEQ_clean_linker_1, # of connection points: 2
#     Edge 82, Type (0, 0), BuildingBlock: KIFKEQ_clean_linker_1, # of connection points: 2
#     Edge 83, Type (0, 0), BuildingBlock: KIFKEQ_clean_linker_1, # of connection points: 2
#     Edge 84, Type (0, 0), BuildingBlock: KIFKEQ_clean_linker_1, # of connection points: 2
#     Edge 85, Type (0, 0), BuildingBlock: KIFKEQ_clean_linker_1, # of connection points: 2
#     Edge 86, Type (0, 0), BuildingBlock: KIFKEQ_clean_linker_1, # of connection points: 2
#     Edge 87, Type (0, 0), BuildingBlock: KIFKEQ_clean_linker_1, # of connection points: 2
#     Edge 88, Type (0, 0), BuildingBlock: KIFKEQ_clean_linker_1, # of connection points: 2
#     Edge 89, Type (0, 0), BuildingBlock: KIFKEQ_clean_linker_1, # of connection points: 2
#     Edge 90, Type (0, 0), BuildingBlock: KIFKEQ_clean_linker_1, # of connection points: 2
#     Edge 91, Type (0, 0), BuildingBlock: KIFKEQ_clean_linker_1, # of connection points: 2
#     Edge 92, Type (0, 0), BuildingBlock: KIFKEQ_clean_linker_1, # of connection points: 2
#     Edge 93, Type (0, 0), BuildingBlock: KIFKEQ_clean_linker_1, # of connection points: 2
#     Edge 94, Type (0, 0), BuildingBlock: KIFKEQ_clean_linker_1, # of connection points: 2
#     Edge 95, Type (0, 0), BuildingBlock: KIFKEQ_clean_linker_1, # of connection points: 2
# Relax obj value: 0.084
# Max RMSD: 0.220
# Mean RMSD: 0.220
data_MOF--net-mer--node1-ESEHIV_clean_sbu_0--edge1-KIFKEQ_clean_linker_1
_symmetry_space_group_name_H-M    P1
_symmetry_Int_Tables_number       1
_symmetry_cell_setting            triclinic
loop_
_symmetry_equiv_pos_as_xyz
'x, y, z'
_cell_length_a     71.634278
_cell_length_b     71.673851
_cell_length_c     55.373164
_cell_angle_alpha  89.972981
_cell_angle_beta   89.902765
_cell_angle_gamma 89.830864
loop_
_atom_site_label
_atom_site_type_symbol
_atom_site_fract_x
_atom_site_fract_y
_atom_site_fract_z
_atom_type_partial_charge
Cu0 Cu 0.12976 0.3068 0.40831 0.0
N1 N 0.13575 0.28162 0.41213 0.0
N2 N 0.151 0.25469 0.41687 0.0
C3 C 0.15241 0.27288 0.41079 0.0
C4 C 0.13286 0.25192 0.42224 0.0
C5 C 0.12352 0.26853 0.41931 0.0
O6 O 0.14561 0.31941 0.38451 0.0
C7 C 0.14556 0.31601 0.45292 0.0
O8 O 0.16044 0.30887 0.44248 0.0
H9 H 0.16535 0.27979 0.40613 0.0
H10 H 0.10884 0.27101 0.42261 0.0
N11 N 0.1056 0.30776 0.39597 0.0
N12 N 0.07486 0.30455 0.39128 0.0
C13 C 0.08903 0.30567 0.40728 0.0
C14 C 0.10167 0.30815 0.37223 0.0
C15 C 0.08276 0.30615 0.36927 0.0
C16 C 0.15195 0.31103 0.36587 0.0
O17 O 0.14939 0.29299 0.36359 0.0
H18 H 0.08749 0.3041 0.42663 0.0
H19 H 0.11195 0.30917 0.35798 0.0
O20 O 0.1307 0.3178 0.44052 0.0
H21 H 0.12679 0.23878 0.42782 0.0
H22 H 0.07538 0.30565 0.35224 0.0
Cu23 Cu 0.71324 0.13502 0.40237 0.0
N24 N 0.73888 0.13823 0.39885 0.0
N25 N 0.76676 0.15205 0.39766 0.0
C26 C 0.74887 0.15331 0.40525 0.0
C27 C 0.76805 0.13552 0.38612 0.0
C28 C 0.75082 0.12701 0.38691 0.0
O29 O 0.7016 0.1511 0.37835 0.0
C30 C 0.69244 0.13363 0.44631 0.0
O31 O 0.68101 0.12302 0.43391 0.0
H32 H 0.74293 0.16532 0.41433 0.0
H33 H 0.74709 0.11385 0.37871 0.0
N34 N 0.70739 0.11026 0.39506 0.0
N35 N 0.70625 0.07908 0.39592 0.0
C36 C 0.71238 0.09468 0.40712 0.0
C37 C 0.69796 0.10432 0.37555 0.0
C38 C 0.69717 0.08516 0.37608 0.0
C39 C 0.6843 0.151 0.37318 0.0
O40 O 0.67282 0.14108 0.38649 0.0
H41 H 0.72047 0.09483 0.4236 0.0
H42 H 0.69247 0.11325 0.36152 0.0
O43 O 0.70652 0.14074 0.43571 0.0
H44 H 0.78048 0.13007 0.37747 0.0
H45 H 0.69102 0.07638 0.36234 0.0
Cu46 Cu 0.88627 0.69415 0.40062 0.0
N47 N 0.88379 0.71988 0.39665 0.0
N48 N 0.87164 0.7486 0.3974 0.0
C49 C 0.86977 0.73075 0.40482 0.0
C50 C 0.88747 0.74895 0.38416 0.0
C51 C 0.89486 0.73119 0.38361 0.0
O52 O 0.87329 0.68181 0.37432 0.0
C53 C 0.88747 0.69247 0.45035 0.0
O54 O 0.90193 0.70316 0.4459 0.0
H55 H 0.85836 0.7256 0.41575 0.0
H56 H 0.90719 0.72673 0.37387 0.0
N57 N 0.9113 0.68705 0.39772 0.0
N58 N 0.94254 0.68685 0.39768 0.0
C59 C 0.92691 0.69704 0.40174 0.0
C60 C 0.91722 0.67004 0.39088 0.0
C61 C 0.93642 0.66986 0.39081 0.0
C62 C 0.8575 0.68673 0.36593 0.0
O63 O 0.84788 0.69983 0.37695 0.0
H64 H 0.92677 0.71138 0.40779 0.0
H65 H 0.90813 0.6586 0.38612 0.0
O66 O 0.87758 0.6869 0.43269 0.0
H67 H 0.89297 0.76102 0.37483 0.0
H68 H 0.94515 0.65819 0.38558 0.0
Cu69 Cu 0.31922 0.87848 0.41274 0.0
N70 N 0.29404 0.87609 0.40478 0.0
N71 N 0.26546 0.86398 0.40137 0.0
C72 C 0.28248 0.86227 0.41161 0.0
C73 C 0.26635 0.87959 0.38776 0.0
C74 C 0.28401 0.88698 0.38983 0.0
O75 O 0.3342 0.86436 0.38954 0.0
C76 C 0.337 0.87576 0.45858 0.0
O77 O 0.3512 0.8834 0.44731 0.0
H78 H 0.28663 0.85104 0.42353 0.0
H79 H 0.28933 0.89916 0.3806 0.0
N80 N 0.32661 0.90319 0.40867 0.0
N81 N 0.32681 0.93417 0.40485 0.0
C82 C 0.31709 0.91918 0.41257 0.0
C83 C 0.34286 0.90832 0.39848 0.0
C84 C 0.34302 0.92739 0.39603 0.0
C85 C 0.32859 0.85027 0.37759 0.0
O86 O 0.31265 0.84241 0.38332 0.0
H87 H 0.30303 0.91973 0.41974 0.0
H88 H 0.35362 0.89873 0.39255 0.0
O89 O 0.32247 0.87156 0.44655 0.0
H90 H 0.25526 0.88491 0.3764 0.0
H91 H 0.35402 0.93563 0.38794 0.0
Cu92 Cu 0.12728 0.72512 0.67193 0.0
N93 N 0.13551 0.74946 0.66774 0.0
N94 N 0.15348 0.77481 0.66574 0.0
C95 C 0.15283 0.75633 0.6706 0.0
C96 C 0.13585 0.77962 0.65965 0.0
C97 C 0.12484 0.76396 0.66087 0.0
O98 O 0.14215 0.71308 0.69697 0.0
C99 C 0.14314 0.71008 0.62931 0.0
O100 O 0.15898 0.71304 0.64058 0.0
H101 H 0.16468 0.74788 0.67589 0.0
H102 H 0.11005 0.76318 0.65715 0.0
N103 N 0.10282 0.7266 0.68313 0.0
N104 N 0.07182 0.72452 0.68631 0.0
C105 C 0.08697 0.72089 0.67245 0.0
C106 C 0.09761 0.73405 0.70436 0.0
C107 C 0.07853 0.73279 0.70641 0.0
C108 C 0.13561 0.69918 0.70852 0.0
O109 O 0.11987 0.69171 0.70122 0.0
H110 H 0.08658 0.71438 0.65483 0.0
H111 H 0.10712 0.73989 0.71748 0.0
O112 O 0.12788 0.71317 0.64041 0.0
H113 H 0.13111 0.79352 0.65507 0.0
H114 H 0.07031 0.73728 0.72177 0.0
Cu115 Cu 0.3054 0.13196 0.67247 0.0
N116 N 0.28009 0.13465 0.67954 0.0
N117 N 0.25206 0.14823 0.6829 0.0
C118 C 0.26941 0.14938 0.67343 0.0
C119 C 0.25182 0.13197 0.69525 0.0
C120 C 0.26916 0.12366 0.69321 0.0
O121 O 0.31965 0.14453 0.69747 0.0
C122 C 0.32354 0.13624 0.62699 0.0
O123 O 0.33677 0.12605 0.63681 0.0
H124 H 0.27445 0.16087 0.66257 0.0
H125 H 0.27366 0.11081 0.70168 0.0
N126 N 0.31285 0.107 0.67386 0.0
N127 N 0.31483 0.07602 0.67082 0.0
C128 C 0.30365 0.09115 0.66843 0.0
C129 C 0.33017 0.10163 0.68018 0.0
C130 C 0.33147 0.08259 0.6782 0.0
C131 C 0.31561 0.16016 0.70705 0.0
O132 O 0.30205 0.17032 0.69794 0.0
H133 H 0.28925 0.09071 0.66257 0.0
H134 H 0.34117 0.11103 0.68561 0.0
O135 O 0.30965 0.14126 0.63985 0.0
H136 H 0.2402 0.12677 0.70578 0.0
H137 H 0.34363 0.07415 0.68226 0.0
Cu138 Cu 0.88121 0.30072 0.66916 0.0
N139 N 0.86619 0.28118 0.65844 0.0
N140 N 0.84983 0.25478 0.6561 0.0
C141 C 0.85708 0.26786 0.67096 0.0
C142 C 0.8545 0.26015 0.63355 0.0
C143 C 0.86462 0.27632 0.63507 0.0
O144 O 0.87173 0.31272 0.69843 0.0
C145 C 0.87031 0.32341 0.62976 0.0
O146 O 0.85344 0.32061 0.63837 0.0
H147 H 0.85646 0.26734 0.69048 0.0
H148 H 0.87095 0.28374 0.62017 0.0
N149 N 0.90445 0.29043 0.67627 0.0
N150 N 0.93524 0.28602 0.67914 0.0
C151 C 0.92145 0.29792 0.67268 0.0
C152 C 0.90755 0.2733 0.68535 0.0
C153 C 0.92651 0.27053 0.68714 0.0
C154 C 0.85465 0.31375 0.70475 0.0
O155 O 0.84172 0.30723 0.69025 0.0
H156 H 0.92363 0.31166 0.66508 0.0
H157 H 0.89674 0.26349 0.69023 0.0
O158 O 0.88427 0.3175 0.64177 0.0
H159 H 0.85097 0.25282 0.6171 0.0
H160 H 0.93333 0.25815 0.6941 0.0
Cu161 Cu 0.73175 0.88369 0.68842 0.0
N162 N 0.75629 0.8754 0.69099 0.0
N163 N 0.78137 0.85687 0.6911 0.0
C164 C 0.76312 0.85843 0.68535 0.0
C165 C 0.78618 0.8735 0.70062 0.0
C166 C 0.77068 0.8849 0.70049 0.0
O167 O 0.7163 0.86735 0.70818 0.0
C168 C 0.71903 0.87085 0.64254 0.0
O169 O 0.71631 0.85496 0.65382 0.0
H170 H 0.75473 0.84733 0.67782 0.0
H171 H 0.76988 0.89906 0.70717 0.0
N172 N 0.73056 0.90737 0.70215 0.0
N173 N 0.72708 0.93794 0.70796 0.0
C174 C 0.7284 0.92413 0.69145 0.0
C175 C 0.73084 0.91075 0.72604 0.0
C176 C 0.7286 0.92958 0.72969 0.0
C177 C 0.70112 0.87321 0.7175 0.0
O178 O 0.69439 0.88942 0.71056 0.0
H179 H 0.72726 0.92609 0.67213 0.0
H180 H 0.73223 0.90014 0.73982 0.0
O181 O 0.72492 0.88483 0.65444 0.0
H182 H 0.79992 0.87719 0.70712 0.0
H183 H 0.72806 0.93662 0.74698 0.0
Cu184 Cu 0.88188 0.69459 0.66902 0.0
N185 N 0.88029 0.72037 0.66535 0.0
N186 N 0.86825 0.74914 0.66532 0.0
C187 C 0.8678 0.73204 0.67558 0.0
C188 C 0.88157 0.74817 0.6481 0.0
C189 C 0.88886 0.7304 0.64807 0.0
O190 O 0.86984 0.68719 0.69898 0.0
C191 C 0.87873 0.67096 0.62762 0.0
O192 O 0.89218 0.6612 0.63766 0.0
H193 H 0.85771 0.72771 0.68902 0.0
H194 H 0.89885 0.72484 0.63529 0.0
N195 N 0.90681 0.68731 0.6724 0.0
N196 N 0.93802 0.68697 0.67331 0.0
C197 C 0.92256 0.69653 0.66659 0.0
C198 C 0.91248 0.67152 0.68329 0.0
C199 C 0.93166 0.67121 0.68379 0.0
C200 C 0.85258 0.68568 0.70393 0.0
O201 O 0.84007 0.68873 0.68705 0.0
H202 H 0.92271 0.71004 0.65795 0.0
H203 H 0.90321 0.66111 0.69077 0.0
O204 O 0.87133 0.68432 0.63941 0.0
H205 H 0.88527 0.75928 0.63577 0.0
H206 H 0.94021 0.66051 0.69205 0.0
Cu207 Cu 0.31114 0.88415 0.68602 0.0
N208 N 0.28597 0.87888 0.69065 0.0
N209 N 0.25811 0.86511 0.68916 0.0
C210 C 0.27609 0.86449 0.68179 0.0
C211 C 0.25668 0.88052 0.70305 0.0
C212 C 0.27389 0.88896 0.70395 0.0
O213 O 0.32576 0.87099 0.71042 0.0
C214 C 0.32985 0.88695 0.64045 0.0
O215 O 0.3391 0.90058 0.65077 0.0
H216 H 0.28196 0.85384 0.67017 0.0
H217 H 0.27742 0.9015 0.71378 0.0
N218 N 0.31424 0.90948 0.69244 0.0
N219 N 0.31131 0.94048 0.69226 0.0
C220 C 0.30856 0.92454 0.67976 0.0
C221 C 0.32081 0.91617 0.71345 0.0
C222 C 0.31903 0.93525 0.71341 0.0
C223 C 0.32147 0.85522 0.71945 0.0
O224 O 0.3076 0.84572 0.71012 0.0
H225 H 0.30196 0.92377 0.66221 0.0
H226 H 0.32602 0.90765 0.7281 0.0
O227 O 0.31791 0.87788 0.65279 0.0
H228 H 0.24419 0.88514 0.71234 0.0
H229 H 0.32305 0.94459 0.72784 0.0
Cu230 Cu 0.12826 0.29649 0.67856 0.0
N231 N 0.13396 0.27114 0.67683 0.0
N232 N 0.14958 0.24408 0.67582 0.0
C233 C 0.15084 0.26284 0.67808 0.0
C234 C 0.13119 0.24057 0.6731 0.0
C235 C 0.12163 0.25725 0.67373 0.0
O236 O 0.14485 0.30848 0.70165 0.0
C237 C 0.14388 0.31121 0.63498 0.0
O238 O 0.15984 0.31023 0.64657 0.0
H239 H 0.16375 0.27046 0.68024 0.0
H240 H 0.1067 0.25916 0.67206 0.0
N241 N 0.10419 0.29893 0.69107 0.0
N242 N 0.07319 0.30069 0.69487 0.0
C243 C 0.08768 0.29825 0.67948 0.0
C244 C 0.10001 0.30174 0.71447 0.0
C245 C 0.08095 0.30289 0.71688 0.0
C246 C 0.14174 0.32516 0.70848 0.0
O247 O 0.12897 0.33499 0.69711 0.0
H248 H 0.08634 0.2961 0.66021 0.0
H249 H 0.11018 0.30275 0.72883 0.0
O250 O 0.12892 0.30673 0.64596 0.0
H251 H 0.12499 0.2269 0.67115 0.0
H252 H 0.07336 0.30477 0.73363 0.0
Cu253 Cu 0.71085 0.12946 0.67299 0.0
N254 N 0.73657 0.13216 0.67029 0.0
N255 N 0.76411 0.14672 0.67105 0.0
C256 C 0.7461 0.14706 0.67825 0.0
C257 C 0.76595 0.1308 0.65818 0.0
C258 C 0.7489 0.12189 0.65764 0.0
O259 O 0.70341 0.14594 0.69911 0.0
C260 C 0.69374 0.12313 0.62736 0.0
O261 O 0.69245 0.10588 0.63516 0.0
H262 H 0.73965 0.15825 0.6884 0.0
H263 H 0.74553 0.10939 0.64767 0.0
N264 N 0.70463 0.10546 0.68344 0.0
N265 N 0.70504 0.07506 0.69203 0.0
C266 C 0.71288 0.08887 0.67892 0.0
C267 C 0.69115 0.10186 0.69974 0.0
C268 C 0.69141 0.08317 0.70514 0.0
C269 C 0.6869 0.15112 0.70427 0.0
O270 O 0.67322 0.14734 0.68929 0.0
H271 H 0.7247 0.08701 0.66697 0.0
H272 H 0.68202 0.1122 0.70768 0.0
O273 O 0.70012 0.13562 0.64149 0.0
H274 H 0.77839 0.12642 0.6486 0.0
H275 H 0.68241 0.07608 0.71788 0.0
Cu276 Cu 0.88147 0.30423 0.407 0.0
N277 N 0.87848 0.27863 0.41138 0.0
N278 N 0.86483 0.25068 0.41304 0.0
C279 C 0.86401 0.26815 0.40394 0.0
C280 C 0.88044 0.25017 0.42664 0.0
C281 C 0.88881 0.26743 0.42559 0.0
O282 O 0.8649 0.31215 0.38106 0.0
C283 C 0.88691 0.32611 0.45006 0.0
O284 O 0.90281 0.3312 0.44027 0.0
H285 H 0.8526 0.27353 0.39317 0.0
H286 H 0.90113 0.27176 0.43533 0.0
N287 N 0.90582 0.30924 0.39644 0.0
N288 N 0.93678 0.30932 0.39123 0.0
C289 C 0.92245 0.30358 0.40533 0.0
C290 C 0.90989 0.31885 0.37624 0.0
C291 C 0.92886 0.31898 0.37303 0.0
C292 C 0.86298 0.32924 0.37531 0.0
O293 O 0.87035 0.34203 0.38934 0.0
H294 H 0.92401 0.29507 0.42135 0.0
H295 H 0.89976 0.32506 0.36424 0.0
O296 O 0.87577 0.31584 0.43808 0.0
H297 H 0.88524 0.23829 0.43702 0.0
H298 H 0.93625 0.32562 0.3583 0.0
Cu299 Cu 0.73881 0.88897 0.41692 0.0
N300 N 0.7625 0.87828 0.41991 0.0
N301 N 0.78669 0.85848 0.42078 0.0
C302 C 0.76837 0.86071 0.41547 0.0
C303 C 0.79243 0.87532 0.42872 0.0
C304 C 0.77753 0.88741 0.42824 0.0
O305 O 0.7241 0.87652 0.39204 0.0
C306 C 0.7268 0.87297 0.46059 0.0
O307 O 0.73266 0.85762 0.45001 0.0
H308 H 0.7593 0.84978 0.40893 0.0
H309 H 0.77758 0.9019 0.43366 0.0
N310 N 0.74241 0.91372 0.40751 0.0
N311 N 0.74114 0.94481 0.40482 0.0
C312 C 0.73383 0.92939 0.41527 0.0
C313 C 0.75543 0.91942 0.39163 0.0
C314 C 0.75468 0.93852 0.38992 0.0
C315 C 0.73115 0.87374 0.37118 0.0
O316 O 0.74863 0.87841 0.36734 0.0
H317 H 0.72278 0.9295 0.42862 0.0
H318 H 0.765 0.91028 0.38218 0.0
O319 O 0.72719 0.8882 0.44876 0.0
H320 H 0.80647 0.87881 0.43425 0.0
H321 H 0.76335 0.94709 0.37839 0.0
Cu322 Cu 0.1323 0.7249 0.40308 0.0
N323 N 0.13987 0.74966 0.40604 0.0
N324 N 0.15724 0.7755 0.40787 0.0
C325 C 0.15717 0.75684 0.40412 0.0
C326 C 0.13924 0.78012 0.41214 0.0
C327 C 0.12861 0.76419 0.41102 0.0
O328 O 0.14791 0.71238 0.37916 0.0
C329 C 0.14762 0.71454 0.44784 0.0
O330 O 0.16272 0.7218 0.43821 0.0
H331 H 0.16945 0.74846 0.40048 0.0
H332 H 0.11368 0.76322 0.41365 0.0
N333 N 0.10802 0.72532 0.39102 0.0
N334 N 0.07709 0.72308 0.38675 0.0
C335 C 0.09181 0.72054 0.40171 0.0
C336 C 0.10346 0.73102 0.36867 0.0
C337 C 0.08445 0.72964 0.36596 0.0
C338 C 0.14217 0.69769 0.3686 0.0
O339 O 0.12657 0.68996 0.37604 0.0
H340 H 0.09086 0.71549 0.4201 0.0
H341 H 0.11336 0.73576 0.35526 0.0
O342 O 0.13291 0.71348 0.43505 0.0
H343 H 0.13401 0.79404 0.41556 0.0
H344 H 0.07674 0.73289 0.3497 0.0
Cu345 Cu 0.29288 0.12404 0.40398 0.0
N346 N 0.26805 0.13132 0.40691 0.0
N347 N 0.24223 0.14875 0.40996 0.0
C348 C 0.26109 0.14874 0.40859 0.0
C349 C 0.23729 0.13058 0.40897 0.0
C350 C 0.25322 0.11991 0.40712 0.0
O351 O 0.30489 0.14005 0.38027 0.0
C352 C 0.30602 0.14061 0.44668 0.0
O353 O 0.30101 0.156 0.43552 0.0
H354 H 0.26974 0.16106 0.40888 0.0
H355 H 0.25395 0.10487 0.40577 0.0
N356 N 0.29295 0.09984 0.39167 0.0
N357 N 0.29402 0.06883 0.38735 0.0
C358 C 0.29544 0.08334 0.40292 0.0
C359 C 0.2898 0.0957 0.36839 0.0
C360 C 0.29055 0.07669 0.36561 0.0
C361 C 0.31926 0.13441 0.36881 0.0
O362 O 0.32717 0.11861 0.37523 0.0
H363 H 0.29803 0.08207 0.42209 0.0
H364 H 0.28725 0.10591 0.35436 0.0
O365 O 0.30448 0.1251 0.43567 0.0
H366 H 0.22319 0.12525 0.40912 0.0
H367 H 0.289 0.06935 0.34868 0.0
Cu368 Cu 0.63017 0.80896 0.91164 0.0
N369 N 0.63237 0.78325 0.9067 0.0
N370 N 0.64439 0.75446 0.90536 0.0
C371 C 0.64681 0.7722 0.91299 0.0
C372 C 0.62777 0.75438 0.89394 0.0
C373 C 0.62046 0.77217 0.89466 0.0
O374 O 0.6428 0.82192 0.88541 0.0
C375 C 0.62966 0.80911 0.96147 0.0
O376 O 0.61571 0.79782 0.95686 0.0
H377 H 0.65895 0.77714 0.92264 0.0
H378 H 0.60762 0.7768 0.88632 0.0
N379 N 0.60517 0.81629 0.90961 0.0
N380 N 0.57395 0.81668 0.91023 0.0
C381 C 0.58955 0.80641 0.91401 0.0
C382 C 0.59929 0.83334 0.90291 0.0
C383 C 0.58009 0.83364 0.90324 0.0
C384 C 0.65853 0.81742 0.87636 0.0
O385 O 0.66846 0.80415 0.88654 0.0
H386 H 0.58965 0.79205 0.92001 0.0
H387 H 0.60839 0.84472 0.89787 0.0
O388 O 0.63908 0.81557 0.94382 0.0
H389 H 0.6217 0.74249 0.88484 0.0
H390 H 0.57137 0.84533 0.89809 0.0
Cu391 Cu 0.18907 0.63413 0.91109 0.0
N392 N 0.21484 0.63619 0.91515 0.0
N393 N 0.24332 0.64878 0.91683 0.0
C394 C 0.22644 0.64918 0.90595 0.0
C395 C 0.24231 0.63496 0.93332 0.0
C396 C 0.22474 0.62732 0.93232 0.0
O397 O 0.18104 0.64635 0.88146 0.0
C398 C 0.16595 0.63516 0.95344 0.0
O399 O 0.15802 0.62024 0.94439 0.0
H400 H 0.22221 0.65956 0.89285 0.0
H401 H 0.21918 0.61688 0.94443 0.0
N402 N 0.18228 0.60919 0.90699 0.0
N403 N 0.18109 0.57807 0.90735 0.0
C404 C 0.19121 0.5933 0.91315 0.0
C405 C 0.16622 0.60375 0.89659 0.0
C406 C 0.16538 0.5846 0.89694 0.0
C407 C 0.18137 0.66347 0.87541 0.0
O408 O 0.18721 0.67604 0.89089 0.0
H409 H 0.20471 0.59283 0.92181 0.0
H410 H 0.15578 0.61316 0.88943 0.0
O411 O 0.17806 0.6439 0.94091 0.0
H412 H 0.25324 0.63115 0.94588 0.0
H413 H 0.15425 0.57612 0.88968 0.0
Cu414 Cu 0.38269 0.21984 0.90421 0.0
N415 N 0.37722 0.24502 0.90788 0.0
N416 N 0.36186 0.27206 0.91027 0.0
C417 C 0.36093 0.25389 0.90395 0.0
C418 C 0.37944 0.27467 0.91831 0.0
C419 C 0.38887 0.25796 0.9168 0.0
O420 O 0.36632 0.20899 0.88 0.0
C421 C 0.36573 0.21086 0.948 0.0
O422 O 0.35153 0.21916 0.93749 0.0
H423 H 0.3485 0.247 0.89739 0.0
H424 H 0.40314 0.2553 0.92219 0.0
N425 N 0.40694 0.2183 0.89231 0.0
N426 N 0.43754 0.21362 0.88814 0.0
C427 C 0.42292 0.21361 0.9036 0.0
C428 C 0.41164 0.22159 0.86918 0.0
C429 C 0.43048 0.21863 0.86651 0.0
C430 C 0.3714 0.19414 0.86918 0.0
O431 O 0.38637 0.1853 0.87678 0.0
H432 H 0.42375 0.20988 0.92252 0.0
H433 H 0.40193 0.22566 0.85519 0.0
O434 O 0.38066 0.20836 0.93592 0.0
H435 H 0.38509 0.28771 0.92485 0.0
H436 H 0.43842 0.22012 0.84997 0.0
Cu437 Cu 0.79102 0.37964 0.90209 0.0
N438 N 0.76552 0.37479 0.90331 0.0
N439 N 0.73808 0.36016 0.90505 0.0
C440 C 0.75669 0.35827 0.90172 0.0
C441 C 0.73516 0.37854 0.90879 0.0
C442 C 0.75209 0.38751 0.90769 0.0
O443 O 0.80234 0.36379 0.87732 0.0
C444 C 0.81343 0.3836 0.94567 0.0
O445 O 0.82319 0.3963 0.93417 0.0
H446 H 0.76383 0.34512 0.89891 0.0
H447 H 0.75452 0.40226 0.91028 0.0
N448 N 0.79325 0.40444 0.89213 0.0
N449 N 0.79225 0.43551 0.89066 0.0
C450 C 0.79383 0.42038 0.90507 0.0
C451 C 0.79123 0.40977 0.86898 0.0
C452 C 0.7906 0.42891 0.868 0.0
C453 C 0.81774 0.36819 0.86729 0.0
O454 O 0.82704 0.38258 0.87563 0.0
H455 H 0.79436 0.42091 0.9246 0.0
H456 H 0.78955 0.4003 0.85394 0.0
O457 O 0.8004 0.37506 0.93466 0.0
H458 H 0.72174 0.38505 0.91207 0.0
H459 H 0.78873 0.43736 0.85198 0.0
Cu460 Cu 0.63012 0.21595 0.17156 0.0
N461 N 0.63776 0.23998 0.16406 0.0
N462 N 0.65503 0.26561 0.16009 0.0
C463 C 0.65304 0.24914 0.17165 0.0
C464 C 0.64044 0.26685 0.1448 0.0
C465 C 0.6298 0.25101 0.14733 0.0
O466 O 0.64544 0.20602 0.19756 0.0
C467 C 0.62083 0.19168 0.13121 0.0
O468 O 0.60481 0.18832 0.1419 0.0
H469 H 0.66289 0.24352 0.18458 0.0
H470 H 0.6174 0.24748 0.13719 0.0
N471 N 0.60574 0.21746 0.18348 0.0
N472 N 0.57504 0.22173 0.18828 0.0
C473 C 0.58922 0.22008 0.17223 0.0
C474 C 0.60181 0.21765 0.20724 0.0
C475 C 0.58298 0.22017 0.21026 0.0
C476 C 0.64147 0.19025 0.20676 0.0
O477 O 0.62836 0.18014 0.19663 0.0
H478 H 0.58768 0.22111 0.15284 0.0
H479 H 0.61205 0.21626 0.22146 0.0
O480 O 0.63291 0.2018 0.14172 0.0
H481 H 0.63777 0.2783 0.13251 0.0
H482 H 0.57565 0.22055 0.22736 0.0
Cu483 Cu 0.78554 0.6288 0.17172 0.0
N484 N 0.76115 0.63756 0.16993 0.0
N485 N 0.73589 0.65577 0.1717 0.0
C486 C 0.7547 0.65502 0.17332 0.0
C487 C 0.73039 0.63815 0.16702 0.0
C488 C 0.74601 0.62697 0.1659 0.0
O489 O 0.79963 0.64412 0.19421 0.0
C490 C 0.79982 0.6431 0.12815 0.0
O491 O 0.7986 0.65904 0.13979 0.0
H492 H 0.76356 0.66679 0.17749 0.0
H493 H 0.74634 0.61209 0.16264 0.0
N494 N 0.78437 0.60509 0.18525 0.0
N495 N 0.78797 0.57485 0.19341 0.0
C496 C 0.7902 0.58844 0.17673 0.0
C497 C 0.77814 0.60185 0.20777 0.0
C498 C 0.78036 0.58325 0.21288 0.0
C499 C 0.81407 0.63724 0.20426 0.0
O500 O 0.82047 0.62108 0.19666 0.0
H501 H 0.79647 0.58645 0.15911 0.0
H502 H 0.77268 0.61246 0.21977 0.0
O503 O 0.79574 0.6281 0.13923 0.0
H504 H 0.71611 0.63367 0.16447 0.0
H505 H 0.77669 0.5764 0.22965 0.0
Cu506 Cu 0.39527 0.78794 0.18185 0.0
N507 N 0.38683 0.76354 0.18517 0.0
N508 N 0.36771 0.73901 0.1861 0.0
C509 C 0.36901 0.75774 0.184 0.0
C510 C 0.38543 0.73286 0.18873 0.0
C511 C 0.39718 0.74803 0.18816 0.0
O512 O 0.38067 0.80287 0.20462 0.0
C513 C 0.39813 0.80797 0.13586 0.0
O514 O 0.40826 0.82064 0.14683 0.0
H515 H 0.35733 0.76704 0.18089 0.0
H516 H 0.41224 0.74775 0.18947 0.0
N517 N 0.42025 0.78823 0.19173 0.0
N518 N 0.45065 0.79411 0.1961 0.0
C519 C 0.43584 0.79483 0.18102 0.0
C520 C 0.42554 0.78292 0.21401 0.0
C521 C 0.44421 0.78658 0.2168 0.0
C522 C 0.38793 0.81586 0.21716 0.0
O523 O 0.40492 0.82146 0.21203 0.0
H524 H 0.43622 0.80075 0.16305 0.0
H525 H 0.41621 0.77736 0.22758 0.0
O526 O 0.39161 0.7943 0.14786 0.0
H527 H 0.38962 0.71843 0.19081 0.0
H528 H 0.45238 0.78422 0.23295 0.0
Cu529 Cu 0.21818 0.38712 0.17666 0.0
N530 N 0.24329 0.38027 0.17745 0.0
N531 N 0.26982 0.36386 0.17979 0.0
C532 C 0.25094 0.3632 0.1803 0.0
C533 C 0.27408 0.38202 0.17641 0.0
C534 C 0.25773 0.39205 0.17495 0.0
O535 O 0.20461 0.3711 0.19936 0.0
C536 C 0.19546 0.39108 0.13341 0.0
O537 O 0.18281 0.39926 0.147 0.0
H538 H 0.24282 0.35065 0.18294 0.0
H539 H 0.25641 0.40693 0.17213 0.0
N540 N 0.21723 0.41168 0.18801 0.0
N541 N 0.21832 0.44274 0.1913 0.0
C542 C 0.21621 0.4281 0.1761 0.0
C543 C 0.22006 0.41614 0.21131 0.0
C544 C 0.22064 0.4352 0.21342 0.0
C545 C 0.19113 0.3774 0.21207 0.0
O546 O 0.1845 0.39413 0.20746 0.0
H547 H 0.2149 0.42928 0.15669 0.0
H548 H 0.22209 0.40611 0.22567 0.0
O549 O 0.21042 0.38499 0.14301 0.0
H550 H 0.28801 0.38765 0.17467 0.0
H551 H 0.22293 0.44293 0.22994 0.0
Cu552 Cu 0.38249 0.20775 0.17714 0.0
N553 N 0.37832 0.23268 0.18546 0.0
N554 N 0.36411 0.26027 0.19013 0.0
C555 C 0.36338 0.24323 0.17974 0.0
C556 C 0.38025 0.26042 0.20271 0.0
C557 C 0.38896 0.24339 0.19981 0.0
O558 O 0.36951 0.19209 0.20037 0.0
C559 C 0.37922 0.21553 0.12796 0.0
O560 O 0.38745 0.23099 0.13482 0.0
H561 H 0.35192 0.23823 0.16883 0.0
H562 H 0.40196 0.23899 0.20795 0.0
N563 N 0.40762 0.20168 0.18094 0.0
N564 N 0.43869 0.20236 0.18303 0.0
C565 C 0.42319 0.21127 0.17518 0.0
C566 C 0.41354 0.18623 0.19244 0.0
C567 C 0.43266 0.18664 0.19384 0.0
C568 C 0.35381 0.19564 0.21013 0.0
O569 O 0.34376 0.2097 0.2022 0.0
H570 H 0.42313 0.22477 0.16641 0.0
H571 H 0.40449 0.17562 0.19985 0.0
O572 O 0.37541 0.20316 0.14372 0.0
H573 H 0.38542 0.27196 0.21335 0.0
H574 H 0.44148 0.17631 0.20244 0.0
Cu575 Cu 0.80626 0.3833 0.17388 0.0
N576 N 0.78079 0.37833 0.17399 0.0
N577 N 0.75376 0.36299 0.17417 0.0
C578 C 0.77237 0.36177 0.17067 0.0
C579 C 0.75035 0.38098 0.17986 0.0
C580 C 0.76707 0.39041 0.17969 0.0
O581 O 0.81813 0.36505 0.19497 0.0
C582 C 0.81523 0.36929 0.12729 0.0
O583 O 0.81067 0.35317 0.1369 0.0
H584 H 0.7798 0.34896 0.16667 0.0
H585 H 0.76913 0.40498 0.18395 0.0
N586 N 0.80938 0.40651 0.18847 0.0
N587 N 0.80833 0.43703 0.19634 0.0
C588 C 0.80731 0.42375 0.17906 0.0
C589 C 0.8118 0.40902 0.21233 0.0
C590 C 0.81126 0.42778 0.21722 0.0
C591 C 0.83419 0.36799 0.20397 0.0
O592 O 0.84431 0.38169 0.19521 0.0
H593 H 0.80414 0.42642 0.16026 0.0
H594 H 0.81314 0.39791 0.22543 0.0
O595 O 0.81518 0.38379 0.14058 0.0
H596 H 0.73677 0.38686 0.1839 0.0
H597 H 0.81254 0.43411 0.23488 0.0
Cu598 Cu 0.63944 0.82121 0.18488 0.0
N599 N 0.63993 0.79539 0.18868 0.0
N600 N 0.65073 0.76616 0.18896 0.0
C601 C 0.65484 0.78428 0.18508 0.0
C602 C 0.63254 0.76589 0.1953 0.0
C603 C 0.62592 0.78396 0.19521 0.0
O604 O 0.65603 0.83186 0.20918 0.0
C605 C 0.63884 0.83823 0.13826 0.0
O606 O 0.62648 0.84954 0.14799 0.0
H607 H 0.66834 0.7894 0.17936 0.0
H608 H 0.61192 0.78842 0.19972 0.0
N609 N 0.6152 0.82997 0.19042 0.0
N610 N 0.58405 0.83257 0.19042 0.0
C611 C 0.59905 0.82334 0.18145 0.0
C612 C 0.61036 0.84396 0.20532 0.0
C613 C 0.59122 0.84558 0.20542 0.0
C614 C 0.65313 0.82699 0.23103 0.0
O615 O 0.63934 0.81546 0.23563 0.0
H616 H 0.59839 0.81185 0.16883 0.0
H617 H 0.62008 0.85213 0.21582 0.0
O618 O 0.6469 0.82615 0.15154 0.0
H619 H 0.62465 0.75354 0.19999 0.0
H620 H 0.58325 0.85518 0.21646 0.0
Cu621 Cu 0.20578 0.63452 0.16836 0.0
N622 N 0.22449 0.65061 0.15752 0.0
N623 N 0.25045 0.66771 0.15511 0.0
C624 C 0.23855 0.65858 0.16993 0.0
C625 C 0.24355 0.66542 0.13266 0.0
C626 C 0.22765 0.65484 0.1342 0.0
O627 O 0.19433 0.64326 0.19835 0.0
C628 C 0.18087 0.64641 0.13222 0.0
O629 O 0.18333 0.6627 0.14258 0.0
H630 H 0.24041 0.65709 0.18923 0.0
H631 H 0.21927 0.65007 0.11922 0.0
N632 N 0.21712 0.61154 0.17446 0.0
N633 N 0.22413 0.58113 0.17549 0.0
C634 C 0.2117 0.59421 0.16814 0.0
C635 C 0.23336 0.60935 0.18626 0.0
C636 C 0.23772 0.59067 0.18692 0.0
C637 C 0.19381 0.66023 0.20514 0.0
O638 O 0.20042 0.67324 0.19079 0.0
H639 H 0.19906 0.59129 0.15815 0.0
H640 H 0.24145 0.62059 0.1939 0.0
O641 O 0.18814 0.63199 0.14189 0.0
H642 H 0.24968 0.67083 0.11621 0.0
H643 H 0.24981 0.58458 0.19561 0.0
Cu644 Cu 0.38406 0.78026 0.90926 0.0
N645 N 0.37405 0.75646 0.90505 0.0
N646 N 0.35374 0.73301 0.90184 0.0
C647 C 0.35615 0.75114 0.90778 0.0
C648 C 0.37077 0.72673 0.89527 0.0
C649 C 0.38326 0.74119 0.89733 0.0
O650 O 0.36997 0.79708 0.88833 0.0
C651 C 0.38779 0.80162 0.95327 0.0
O652 O 0.39299 0.81554 0.93939 0.0
H653 H 0.34507 0.76045 0.9135 0.0
H654 H 0.39803 0.74062 0.89334 0.0
N655 N 0.40867 0.7795 0.89819 0.0
N656 N 0.43972 0.78142 0.89523 0.0
C657 C 0.42469 0.78335 0.90988 0.0
C658 C 0.41369 0.7751 0.87549 0.0
C659 C 0.43278 0.77624 0.8736 0.0
C660 C 0.37773 0.81051 0.87707 0.0
O661 O 0.395 0.81499 0.88246 0.0
H662 H 0.42529 0.78743 0.92868 0.0
H663 H 0.40404 0.77151 0.86124 0.0
O664 O 0.38317 0.78618 0.94365 0.0
H665 H 0.37401 0.71262 0.88965 0.0
H666 H 0.44085 0.77392 0.85733 0.0
Cu667 Cu 0.20736 0.38678 0.90527 0.0
N668 N 0.23298 0.38296 0.90348 0.0
N669 N 0.26086 0.36897 0.90324 0.0
C670 C 0.24227 0.36679 0.90634 0.0
C671 C 0.26324 0.38726 0.89822 0.0
C672 C 0.24602 0.39583 0.89838 0.0
O673 O 0.19601 0.36997 0.88188 0.0
C674 C 0.18776 0.39178 0.95064 0.0
O675 O 0.17761 0.40432 0.93936 0.0
H676 H 0.23549 0.35375 0.91076 0.0
H677 H 0.24318 0.4104 0.89477 0.0
N678 N 0.20306 0.41118 0.89486 0.0
N679 N 0.20215 0.44225 0.89247 0.0
C680 C 0.2037 0.42734 0.90728 0.0
C681 C 0.20118 0.4161 0.87153 0.0
C682 C 0.20054 0.43521 0.87 0.0
C683 C 0.17978 0.37278 0.87325 0.0
O684 O 0.16925 0.38587 0.88283 0.0
H685 H 0.20598 0.4282 0.92657 0.0
H686 H 0.20083 0.4064 0.85658 0.0
O687 O 0.2 0.38255 0.93888 0.0
H688 H 0.2764 0.39395 0.89423 0.0
H689 H 0.19907 0.44333 0.85362 0.0
Cu690 Cu 0.62843 0.20452 0.90777 0.0
N691 N 0.62881 0.23044 0.90795 0.0
N692 N 0.64142 0.25894 0.90725 0.0
C693 C 0.64434 0.24056 0.91126 0.0
C694 C 0.62315 0.26034 0.90137 0.0
C695 C 0.61543 0.24271 0.90173 0.0
O696 O 0.64494 0.19759 0.88146 0.0
C697 C 0.62851 0.18232 0.95068 0.0
O698 O 0.61694 0.17147 0.93887 0.0
H699 H 0.65764 0.23434 0.91589 0.0
H700 H 0.60132 0.23904 0.89676 0.0
N701 N 0.60471 0.19573 0.90005 0.0
N702 N 0.57394 0.19088 0.89896 0.0
C703 C 0.58798 0.20055 0.90937 0.0
C704 C 0.60112 0.18271 0.88324 0.0
C705 C 0.58222 0.17968 0.88251 0.0
C706 C 0.6507 0.18137 0.87584 0.0
O707 O 0.64733 0.16727 0.89035 0.0
H708 H 0.58618 0.21086 0.92346 0.0
H709 H 0.61152 0.17599 0.87204 0.0
O710 O 0.63586 0.19616 0.93984 0.0
H711 H 0.61602 0.27301 0.89607 0.0
H712 H 0.5751 0.17035 0.87027 0.0
Cu713 Cu 0.78811 0.62775 0.90219 0.0
N714 N 0.7625 0.63234 0.90332 0.0
N715 N 0.73541 0.64781 0.90476 0.0
C716 C 0.75419 0.64919 0.90454 0.0
C717 C 0.73176 0.62937 0.90347 0.0
C718 C 0.74852 0.61986 0.90265 0.0
O719 O 0.79888 0.64463 0.87846 0.0
C720 C 0.797 0.64554 0.94653 0.0
O721 O 0.78996 0.6604 0.93604 0.0
H722 H 0.76177 0.66222 0.90475 0.0
H723 H 0.7504 0.6049 0.90158 0.0
N724 N 0.79244 0.60337 0.89161 0.0
N725 N 0.79619 0.57247 0.89085 0.0
C726 C 0.79035 0.58727 0.90393 0.0
C727 C 0.79954 0.59848 0.86999 0.0
C728 C 0.80199 0.57945 0.86953 0.0
C729 C 0.81584 0.64344 0.87179 0.0
O730 O 0.82707 0.632 0.88335 0.0
H731 H 0.78504 0.58646 0.92222 0.0
H732 H 0.80287 0.6081 0.85559 0.0
O733 O 0.7983 0.63044 0.93455 0.0
H734 H 0.71798 0.6232 0.90341 0.0
H735 H 0.80741 0.57131 0.8546 0.0
H736 H 0.25036 0.18523 0.40051 0.0
H737 H 0.20583 0.14883 0.42401 0.0
H738 H 0.22953 0.21189 0.40411 0.0
H739 H 0.18483 0.1752 0.42602 0.0
H740 H 0.15466 0.2268 0.4491 0.0
H741 H 0.17795 0.20199 0.44885 0.0
H742 H 0.2033 0.22624 0.38527 0.0
H743 H 0.18026 0.25146 0.38626 0.0
C744 C 0.23619 0.18281 0.40645 0.0
C745 C 0.2299 0.1647 0.41194 0.0
C746 C 0.22414 0.19815 0.40822 0.0
C747 C 0.20546 0.19577 0.41538 0.0
C748 C 0.19919 0.17768 0.42085 0.0
C749 C 0.21125 0.16241 0.4193 0.0
C750 C 0.16528 0.22681 0.43516 0.0
C751 C 0.1656 0.2409 0.41757 0.0
C752 C 0.17858 0.21257 0.43491 0.0
C753 C 0.19237 0.2119 0.41681 0.0
C754 C 0.19301 0.22637 0.39962 0.0
C755 C 0.17981 0.2408 0.4001 0.0
H756 H 0.77168 0.17598 0.43482 0.0
H757 H 0.79419 0.15981 0.36556 0.0
H758 H 0.79576 0.19998 0.43845 0.0
H759 H 0.81827 0.18376 0.36919 0.0
H760 H 0.84326 0.24364 0.37407 0.0
H761 H 0.81938 0.21944 0.37026 0.0
H762 H 0.83123 0.20088 0.44283 0.0
H763 H 0.85502 0.22506 0.44663 0.0
C764 C 0.78175 0.1776 0.42038 0.0
C765 C 0.78109 0.16601 0.39994 0.0
C766 C 0.79559 0.19122 0.42252 0.0
C767 C 0.80888 0.19372 0.40409 0.0
C768 C 0.80815 0.18221 0.38359 0.0
C769 C 0.79448 0.1684 0.38162 0.0
C770 C 0.84071 0.2344 0.38918 0.0
C771 C 0.85103 0.23621 0.41061 0.0
C772 C 0.82716 0.22049 0.38696 0.0
C773 C 0.82345 0.2083 0.40626 0.0
C774 C 0.83372 0.21015 0.42772 0.0
C775 C 0.84745 0.22388 0.42981 0.0
H776 H 0.83408 0.74688 0.40329 0.0
H777 H 0.88049 0.78512 0.40085 0.0
H778 H 0.81265 0.77307 0.40977 0.0
H779 H 0.85912 0.81126 0.40692 0.0
H780 H 0.81859 0.85042 0.44503 0.0
H781 H 0.8387 0.8234 0.43976 0.0
H782 H 0.80063 0.80111 0.38685 0.0
H783 H 0.7805 0.82845 0.39176 0.0
C784 C 0.83971 0.76085 0.40429 0.0
C785 C 0.85899 0.76394 0.40162 0.0
C786 C 0.82743 0.77585 0.40774 0.0
C787 C 0.83421 0.79421 0.40888 0.0
C788 C 0.85349 0.79725 0.40635 0.0
C789 C 0.86572 0.78231 0.40267 0.0
C790 C 0.8145 0.83991 0.43208 0.0
C791 C 0.79798 0.84182 0.41859 0.0
C792 C 0.82605 0.82437 0.42913 0.0
C793 C 0.82134 0.81022 0.41275 0.0
C794 C 0.80456 0.81176 0.39974 0.0
C795 C 0.79302 0.82742 0.40258 0.0
H796 H 0.15999 0.80931 0.42972 0.0
H797 H 0.1907 0.77008 0.38555 0.0
H798 H 0.1863 0.83063 0.42853 0.0
H799 H 0.21715 0.7914 0.38466 0.0
H800 H 0.26715 0.82668 0.40944 0.0
H801 H 0.24102 0.80498 0.41174 0.0
H802 H 0.20259 0.85043 0.39887 0.0
H803 H 0.22869 0.87219 0.39716 0.0
C804 C 0.17226 0.80524 0.41959 0.0
C805 C 0.17309 0.78794 0.4076 0.0
C806 C 0.18739 0.81749 0.41896 0.0
C807 C 0.2038 0.81274 0.40644 0.0
C808 C 0.20477 0.79538 0.3947 0.0
C809 C 0.18959 0.78314 0.39524 0.0
C810 C 0.25312 0.83208 0.40739 0.0
C811 C 0.25001 0.85119 0.40318 0.0
C812 C 0.23816 0.8196 0.40843 0.0
C813 C 0.21973 0.82597 0.40545 0.0
C814 C 0.21661 0.8451 0.40144 0.0
C815 C 0.23157 0.85755 0.40024 0.0
H816 H 0.18482 0.76987 0.69265 0.0
H817 H 0.15842 0.80765 0.64225 0.0
H818 H 0.2109 0.79142 0.6967 0.0
H819 H 0.18434 0.82923 0.64658 0.0
H820 H 0.22111 0.87212 0.686 0.0
H821 H 0.19628 0.84958 0.67914 0.0
H822 H 0.23727 0.80547 0.67346 0.0
H823 H 0.26213 0.82804 0.68087 0.0
C824 C 0.18464 0.78262 0.68221 0.0
C825 C 0.16939 0.78706 0.66728 0.0
C826 C 0.1996 0.79499 0.68455 0.0
C827 C 0.19959 0.81207 0.67209 0.0
C828 C 0.18458 0.81631 0.65675 0.0
C829 C 0.16969 0.80394 0.65432 0.0
C830 C 0.22482 0.85761 0.68337 0.0
C831 C 0.24357 0.85186 0.68404 0.0
C832 C 0.21062 0.84473 0.67919 0.0
C833 C 0.21483 0.82575 0.67573 0.0
C834 C 0.2336 0.81998 0.67623 0.0
C835 C 0.24783 0.83292 0.68023 0.0
H836 H 0.25593 0.18551 0.6757 0.0
H837 H 0.21477 0.14246 0.68708 0.0
H838 H 0.23121 0.2088 0.67329 0.0
H839 H 0.19005 0.16589 0.68556 0.0
H840 H 0.14984 0.2097 0.65533 0.0
H841 H 0.1747 0.18653 0.6569 0.0
H842 H 0.20837 0.22438 0.69892 0.0
H843 H 0.18345 0.2476 0.69737 0.0
C844 C 0.24162 0.18097 0.67758 0.0
C845 C 0.23737 0.16204 0.68147 0.0
C846 C 0.22743 0.19439 0.67651 0.0
C847 C 0.20863 0.18925 0.67926 0.0
C848 C 0.20437 0.17032 0.68311 0.0
C849 C 0.21856 0.1569 0.68423 0.0
C850 C 0.16246 0.21306 0.66509 0.0
C851 C 0.16456 0.23054 0.67631 0.0
C852 C 0.17674 0.19975 0.66598 0.0
C853 C 0.19352 0.20354 0.67811 0.0
C854 C 0.19572 0.22108 0.68916 0.0
C855 C 0.18142 0.23441 0.68826 0.0
H856 H 0.75731 0.1835 0.6797 0.0
H857 H 0.80187 0.14369 0.66806 0.0
H858 H 0.77983 0.20866 0.6804 0.0
H859 H 0.82447 0.16909 0.66854 0.0
H860 H 0.85076 0.22174 0.63284 0.0
H861 H 0.83117 0.19471 0.64046 0.0
H862 H 0.80652 0.22279 0.70179 0.0
H863 H 0.82601 0.25017 0.6937 0.0
C864 C 0.77192 0.17998 0.67778 0.0
C865 C 0.77769 0.16146 0.67362 0.0
C866 C 0.78488 0.1945 0.67822 0.0
C867 C 0.80393 0.1909 0.67443 0.0
C868 C 0.80984 0.17233 0.67119 0.0
C869 C 0.79687 0.15778 0.67084 0.0
C870 C 0.84121 0.22213 0.648 0.0
C871 C 0.83971 0.23816 0.66247 0.0
C872 C 0.83015 0.20654 0.65256 0.0
C873 C 0.81724 0.20662 0.67168 0.0
C874 C 0.81623 0.22239 0.68678 0.0
C875 C 0.82745 0.23799 0.68229 0.0
H876 H 0.8555 0.77394 0.63238 0.0
H877 H 0.85199 0.75874 0.70769 0.0
H878 H 0.83386 0.79969 0.63931 0.0
H879 H 0.83007 0.78451 0.71462 0.0
H880 H 0.81031 0.84655 0.7195 0.0
H881 H 0.83112 0.81985 0.7137 0.0
H882 H 0.79998 0.8039 0.65032 0.0
H883 H 0.77929 0.83074 0.65599 0.0
C884 C 0.85019 0.77618 0.65046 0.0
C885 C 0.85554 0.76439 0.66955 0.0
C886 C 0.83763 0.79079 0.65436 0.0
C887 C 0.83025 0.79406 0.67748 0.0
C888 C 0.83563 0.78235 0.69663 0.0
C889 C 0.84806 0.76756 0.69266 0.0
C890 C 0.80796 0.83737 0.7043 0.0
C891 C 0.79323 0.84078 0.68811 0.0
C892 C 0.81974 0.822 0.70112 0.0
C893 C 0.81718 0.80983 0.68154 0.0
C894 C 0.80236 0.81314 0.66547 0.0
C895 C 0.79044 0.8284 0.66881 0.0
H896 H 0.68211 0.7564 0.90507 0.0
H897 H 0.63613 0.71782 0.90934 0.0
H898 H 0.70409 0.73041 0.90556 0.0
H899 H 0.65803 0.69174 0.91056 0.0
H900 H 0.70105 0.64904 0.88458 0.0
H901 H 0.67892 0.67492 0.88564 0.0
H902 H 0.71741 0.70657 0.92946 0.0
H903 H 0.73966 0.68082 0.9277 0.0
C904 C 0.67673 0.74236 0.90654 0.0
C905 C 0.6574 0.73915 0.90712 0.0
C906 C 0.68932 0.72741 0.90686 0.0
C907 C 0.6829 0.70888 0.90803 0.0
C908 C 0.66352 0.70575 0.90913 0.0
C909 C 0.65094 0.72069 0.90855 0.0
C910 C 0.70469 0.66149 0.89455 0.0
C911 C 0.72212 0.66293 0.90596 0.0
C912 C 0.69199 0.67634 0.89526 0.0
C913 C 0.69632 0.69292 0.90765 0.0
C914 C 0.71369 0.6942 0.91935 0.0
C915 C 0.72646 0.67943 0.9184 0.0
H916 H 0.25438 0.66569 0.8755 0.0
H917 H 0.2662 0.66173 0.95172 0.0
H918 H 0.28038 0.68763 0.87069 0.0
H919 H 0.29206 0.68347 0.94698 0.0
H920 H 0.32514 0.73692 0.93345 0.0
H921 H 0.29715 0.7175 0.9362 0.0
H922 H 0.31592 0.68551 0.87469 0.0
H923 H 0.34382 0.70496 0.87191 0.0
C924 C 0.26248 0.66958 0.89119 0.0
C925 C 0.25837 0.66189 0.91392 0.0
C926 C 0.27738 0.68203 0.88845 0.0
C927 C 0.28821 0.68727 0.90848 0.0
C928 C 0.28386 0.67982 0.93126 0.0
C929 C 0.26919 0.6672 0.93392 0.0
C930 C 0.32315 0.72589 0.92036 0.0
C931 C 0.33671 0.72237 0.90257 0.0
C932 C 0.30722 0.71471 0.92202 0.0
C933 C 0.3044 0.69996 0.9057 0.0
C934 C 0.31766 0.69684 0.88742 0.0
C935 C 0.3337 0.70785 0.88598 0.0
H936 H 0.35735 0.30177 0.93985 0.0
H937 H 0.3327 0.27315 0.87924 0.0
H938 H 0.33252 0.32498 0.93857 0.0
H939 H 0.30789 0.29653 0.8777 0.0
H940 H 0.25667 0.33158 0.89713 0.0
H941 H 0.28087 0.30775 0.89961 0.0
H942 H 0.32196 0.35036 0.91374 0.0
H943 H 0.29767 0.37406 0.91245 0.0
C944 C 0.34672 0.30054 0.92608 0.0
C945 C 0.34705 0.28567 0.90956 0.0
C946 C 0.33247 0.31385 0.92534 0.0
C947 C 0.31825 0.31267 0.90796 0.0
C948 C 0.31849 0.29771 0.89153 0.0
C949 C 0.33271 0.28433 0.89237 0.0
C950 C 0.27081 0.33587 0.90107 0.0
C951 C 0.27517 0.3548 0.90462 0.0
C952 C 0.28474 0.3222 0.90219 0.0
C953 C 0.30336 0.32713 0.90684 0.0
C954 C 0.30772 0.34604 0.9104 0.0
C955 C 0.2938 0.35968 0.90935 0.0
H956 H 0.67922 0.25501 0.90425 0.0
H957 H 0.63539 0.2964 0.90995 0.0
H958 H 0.70242 0.27946 0.9044 0.0
H959 H 0.65869 0.32099 0.90863 0.0
H960 H 0.70622 0.35945 0.93133 0.0
H961 H 0.68274 0.33497 0.93205 0.0
H962 H 0.71487 0.30353 0.87982 0.0
H963 H 0.73854 0.32792 0.87962 0.0
C964 C 0.67443 0.26928 0.9056 0.0
C965 C 0.65527 0.27359 0.90722 0.0
C966 C 0.68782 0.28339 0.9053 0.0
C967 C 0.68249 0.30225 0.90641 0.0
C968 C 0.66336 0.30661 0.90802 0.0
C969 C 0.64994 0.29247 0.90849 0.0
C970 C 0.70819 0.34736 0.9199 0.0
C971 C 0.72423 0.34562 0.9054 0.0
C972 C 0.6947 0.33333 0.92025 0.0
C973 C 0.69684 0.31725 0.90596 0.0
C974 C 0.71288 0.31556 0.89138 0.0
C975 C 0.72646 0.32954 0.89121 0.0
H976 H 0.6734 0.27472 0.20097 0.0
H977 H 0.67069 0.28601 0.12451 0.0
H978 H 0.69844 0.29778 0.20508 0.0
H979 H 0.6957 0.30892 0.12854 0.0
H980 H 0.7541 0.3338 0.14334 0.0
H981 H 0.73074 0.30901 0.14036 0.0
H982 H 0.69987 0.3338 0.19925 0.0
H983 H 0.72318 0.35858 0.20214 0.0
C984 C 0.67828 0.28204 0.18506 0.0
C985 C 0.67008 0.2787 0.16246 0.0
C986 C 0.69248 0.29526 0.18742 0.0
C987 C 0.69896 0.30509 0.16711 0.0
C988 C 0.69103 0.30145 0.14444 0.0
C989 C 0.67663 0.28848 0.14217 0.0
C990 C 0.74239 0.33383 0.15573 0.0
C991 C 0.74037 0.34812 0.17289 0.0
C992 C 0.72901 0.31975 0.15395 0.0
C993 C 0.71354 0.31953 0.16959 0.0
C994 C 0.71174 0.33359 0.18709 0.0
C995 C 0.72495 0.34783 0.1886 0.0
H996 H 0.7009 0.65627 0.18994 0.0
H997 H 0.74399 0.69163 0.16059 0.0
H998 H 0.68046 0.6832 0.19459 0.0
H999 H 0.72341 0.71866 0.16467 0.0
H1000 H 0.68796 0.76558 0.19711 0.0
H1001 H 0.70895 0.73887 0.19347 0.0
H1002 H 0.66256 0.7045 0.17128 0.0
H1003 H 0.64161 0.73112 0.1755 0.0
C1004 C 0.70593 0.6698 0.18426 0.0
C1005 C 0.72401 0.67183 0.17481 0.0
C1006 C 0.6942 0.68526 0.18686 0.0
C1007 C 0.70021 0.70313 0.17986 0.0
C1008 C 0.71839 0.70517 0.17056 0.0
C1009 C 0.73019 0.68969 0.16817 0.0
C1010 C 0.68231 0.75232 0.19134 0.0
C1011 C 0.66314 0.75042 0.18665 0.0
C1012 C 0.69433 0.73702 0.1892 0.0
C1013 C 0.68747 0.71949 0.18211 0.0
C1014 C 0.66829 0.71767 0.17725 0.0
C1015 C 0.65626 0.73293 0.17961 0.0
H1016 H 0.25825 0.68595 0.19678 0.0
H1017 H 0.28151 0.67044 0.12765 0.0
H1018 H 0.28715 0.70254 0.20661 0.0
H1019 H 0.31002 0.6872 0.13715 0.0
H1020 H 0.36517 0.70344 0.16994 0.0
H1021 H 0.33687 0.68514 0.16478 0.0
H1022 H 0.30394 0.73109 0.19211 0.0
H1023 H 0.33238 0.74928 0.19788 0.0
C1024 C 0.26956 0.686 0.18378 0.0
C1025 C 0.26757 0.677 0.16139 0.0
C1026 C 0.28601 0.6956 0.1893 0.0
C1027 C 0.30085 0.69615 0.17265 0.0
C1028 C 0.29893 0.68687 0.15047 0.0
C1029 C 0.28249 0.67745 0.1449 0.0
C1030 C 0.35196 0.70955 0.17522 0.0
C1031 C 0.35104 0.72787 0.18421 0.0
C1032 C 0.33571 0.69912 0.17205 0.0
C1033 C 0.31817 0.70672 0.1779 0.0
C1034 C 0.31727 0.72482 0.18757 0.0
C1035 C 0.33353 0.73531 0.19062 0.0
H1036 H 0.26395 0.32739 0.16876 0.0
H1037 H 0.30539 0.36554 0.19612 0.0
H1038 H 0.2864 0.30178 0.17192 0.0
H1039 H 0.32793 0.3402 0.19846 0.0
H1040 H 0.35768 0.28746 0.22322 0.0
H1041 H 0.33429 0.31209 0.22132 0.0
H1042 H 0.31527 0.29091 0.15265 0.0
H1043 H 0.33873 0.26622 0.15454 0.0
C1044 C 0.2778 0.33032 0.17553 0.0
C1045 C 0.28286 0.34856 0.18212 0.0
C1046 C 0.29073 0.31568 0.17709 0.0
C1047 C 0.30899 0.31893 0.1854 0.0
C1048 C 0.31395 0.33714 0.19221 0.0
C1049 C 0.30106 0.35174 0.1906 0.0
C1050 C 0.34865 0.28812 0.20759 0.0
C1051 C 0.35019 0.27486 0.18898 0.0
C1052 C 0.3352 0.30225 0.20653 0.0
C1053 C 0.32292 0.30352 0.18681 0.0
C1054 C 0.32433 0.29019 0.16827 0.0
C1055 C 0.33781 0.27604 0.16933 0.0
H1056 H 0.96166 0.30462 0.35529 0.0
H1057 H 0.95642 0.30529 0.43293 0.0
H1058 H 0.99513 0.30093 0.35879 0.0
H1059 H 0.99035 0.30093 0.43661 0.0
H1060 H 0.05341 0.32068 0.42576 0.0
H1061 H 0.01923 0.31905 0.42872 0.0
H1062 H 0.01862 0.27894 0.37047 0.0
H1063 H 0.05245 0.28117 0.36716 0.0
C1064 C 0.96769 0.30387 0.37317 0.0
C1065 C 0.95642 0.30545 0.39383 0.0
C1066 C 0.98691 0.30148 0.37521 0.0
C1067 C 0.99547 0.30052 0.398 0.0
C1068 C 0.98419 0.30171 0.4188 0.0
C1069 C 0.96478 0.30404 0.41672 0.0
C1070 C 0.04588 0.3113 0.41399 0.0
C1071 C 0.0554 0.30133 0.39593 0.0
C1072 C 0.02636 0.3103 0.41568 0.0
C1073 C 0.01616 0.29915 0.39948 0.0
C1074 C 0.02598 0.28807 0.38277 0.0
C1075 C 0.04533 0.28928 0.38088 0.0
H1076 H 0.6852 0.04899 0.38473 0.0
H1077 H 0.73565 0.06547 0.42145 0.0
H1078 H 0.69322 0.01632 0.39086 0.0
H1079 H 0.74336 0.03274 0.42843 0.0
H1080 H 0.7633 0.97511 0.40063 0.0
H1081 H 0.75389 0.00766 0.40244 0.0
H1082 H 0.69751 0.991 0.4197 0.0
H1083 H 0.7069 0.95821 0.41707 0.0
C1084 C 0.69792 0.04565 0.39433 0.0
C1085 C 0.70992 0.05988 0.40226 0.0
C1086 C 0.7024 0.02689 0.39814 0.0
C1087 C 0.71901 0.02188 0.40999 0.0
C1088 C 0.73058 0.03612 0.41893 0.0
C1089 C 0.72607 0.0549 0.41514 0.0
C1090 C 0.74889 0.97835 0.40481 0.0
C1091 C 0.73579 0.96404 0.40837 0.0
C1092 C 0.74354 0.99706 0.40618 0.0
C1093 C 0.72492 1.00198 0.41117 0.0
C1094 C 0.71192 0.98768 0.41558 0.0
C1095 C 0.71732 0.9689 0.41428 0.0
H1096 H 0.04717 0.73885 0.36475 0.0
H1097 H 0.06262 0.6986 0.41931 0.0
H1098 H 0.01458 0.7306 0.36981 0.0
H1099 H 0.02977 0.69094 0.42524 0.0
H1100 H 0.9732 0.66503 0.40408 0.0
H1101 H 1.00564 0.67477 0.4037 0.0
H1102 H 0.98817 0.73223 0.39618 0.0
H1103 H 0.95569 0.72238 0.39533 0.0
C1104 C 0.04363 0.72829 0.37793 0.0
C1105 C 0.05762 0.71923 0.39138 0.0
C1106 C 0.02485 0.72375 0.3811 0.0
C1107 C 0.01949 0.71006 0.3979 0.0
C1108 C 0.03341 0.70138 0.4119 0.0
C1109 C 0.05226 0.70591 0.40869 0.0
C1110 C 0.97622 0.67974 0.4022 0.0
C1111 C 0.96174 0.69286 0.39942 0.0
C1112 C 0.99488 0.68537 0.40234 0.0
C1113 C 0.99958 0.70429 0.39981 0.0
C1114 C 0.98509 0.7175 0.39782 0.0
C1115 C 0.96641 0.71186 0.3976 0.0
H1116 H 0.30738 0.95334 0.43878 0.0
H1117 H 0.33226 0.95801 0.36806 0.0
H1118 H 0.2977 0.98633 0.43667 0.0
H1119 H 0.32244 0.9906 0.36577 0.0
H1120 H 0.28234 0.03988 0.35956 0.0
H1121 H 0.28914 0.00699 0.36529 0.0
H1122 H 0.31682 0.01933 0.43247 0.0
H1123 H 0.31072 0.0526 0.42644 0.0
C1124 C 0.31064 0.96141 0.42279 0.0
C1125 C 0.32061 0.95324 0.40362 0.0
C1126 C 0.30523 0.98021 0.42164 0.0
C1127 C 0.30932 0.99091 0.40104 0.0
C1128 C 0.31905 0.98261 0.38179 0.0
C1129 C 0.32476 0.96404 0.38316 0.0
C1130 C 0.29 0.03578 0.37551 0.0
C1131 C 0.29632 0.04913 0.39224 0.0
C1132 C 0.29374 0.01685 0.37885 0.0
C1133 C 0.3036 0.01071 0.3992 0.0
C1134 C 0.3091 0.02377 0.41666 0.0
C1135 C 0.30559 0.04283 0.41316 0.0
H1136 H 0.05865 0.69722 0.65693 0.0
H1137 H 0.04115 0.74186 0.70428 0.0
H1138 H 0.02608 0.68891 0.65022 0.0
H1139 H 0.00876 0.73307 0.69847 0.0
H1140 H 0.95108 0.72247 0.67012 0.0
H1141 H 0.98358 0.73229 0.66974 0.0
H1142 H 1.00118 0.67464 0.67311 0.0
H1143 H 0.96874 0.66481 0.67236 0.0
C1144 C 0.04789 0.70535 0.66577 0.0
C1145 C 0.05257 0.72013 0.6813 0.0
C1146 C 0.02921 0.70046 0.66213 0.0
C1147 C 0.01479 0.71025 0.6739 0.0
C1148 C 0.01947 0.72533 0.68891 0.0
C1149 C 0.0381 0.73022 0.69253 0.0
C1150 C 0.96185 0.71186 0.67031 0.0
C1151 C 0.95723 0.69283 0.67148 0.0
C1152 C 0.98051 0.71751 0.67037 0.0
C1153 C 0.99501 0.70427 0.6716 0.0
C1154 C 0.9904 0.68522 0.67196 0.0
C1155 C 0.97175 0.67958 0.67186 0.0
H1156 H 0.29778 0.9678 0.72074 0.0
H1157 H 0.31519 0.95569 0.64782 0.0
H1158 H 0.29463 1.00076 0.71054 0.0
H1159 H 0.31205 0.98887 0.63743 0.0
H1160 H 0.33667 0.04968 0.65078 0.0
H1161 H 0.33166 0.01603 0.65168 0.0
H1162 H 0.27778 0.02478 0.68499 0.0
H1163 H 0.28292 0.05864 0.684 0.0
C1164 C 0.30067 0.97221 0.70241 0.0
C1165 C 0.30695 0.9593 0.68513 0.0
C1166 C 0.29867 0.99104 0.69648 0.0
C1167 C 0.30314 0.99741 0.6732 0.0
C1168 C 0.30857 0.98434 0.65555 0.0
C1169 C 0.3103 0.9654 0.66142 0.0
C1170 C 0.32362 0.04439 0.65784 0.0
C1171 C 0.31026 0.05666 0.66755 0.0
C1172 C 0.32066 0.02515 0.65817 0.0
C1173 C 0.30437 0.01777 0.66852 0.0
C1174 C 0.29051 0.03011 0.67702 0.0
C1175 C 0.29338 0.04943 0.67634 0.0
H1176 H 0.04576 0.31932 0.7183 0.0
H1177 H 0.05596 0.2812 0.65937 0.0
H1178 H 0.01226 0.31665 0.71181 0.0
H1179 H 0.02234 0.27885 0.65244 0.0
H1180 H 0.96232 0.25995 0.67339 0.0
H1181 H 0.99595 0.2648 0.67462 0.0
H1182 H 0.98703 0.32405 0.68322 0.0
H1183 H 0.9533 0.31911 0.68262 0.0
C1184 C 0.04084 0.31045 0.70385 0.0
C1185 C 0.05351 0.30033 0.6895 0.0
C1186 C 0.02164 0.30909 0.69995 0.0
C1187 C 0.01463 0.29749 0.68165 0.0
C1188 C 0.02731 0.28776 0.66683 0.0
C1189 C 0.04657 0.28924 0.67065 0.0
C1190 C 0.96752 0.27401 0.67558 0.0
C1191 C 0.95511 0.28912 0.67815 0.0
C1192 C 0.9868 0.27682 0.67597 0.0
C1193 C 0.99416 0.29481 0.67906 0.0
C1194 C 0.98178 0.31 0.68103 0.0
C1195 C 0.96246 0.30719 0.68049 0.0
H1196 H 0.71276 0.05204 0.65465 0.0
H1197 H 0.70941 0.05476 0.73224 0.0
H1198 H 0.71826 0.01828 0.65698 0.0
H1199 H 0.71583 0.02149 0.73495 0.0
H1200 H 0.7045 0.96041 0.73356 0.0
H1201 H 0.69991 0.99374 0.72831 0.0
H1202 H 0.7384 0.99323 0.66801 0.0
H1203 H 0.7422 0.95942 0.67284 0.0
C1204 C 0.71359 0.04539 0.67218 0.0
C1205 C 0.71045 0.05579 0.69326 0.0
C1206 C 0.71676 0.02611 0.67358 0.0
C1207 C 0.71713 0.01702 0.69615 0.0
C1208 C 0.71499 0.02781 0.71721 0.0
C1209 C 0.71147 0.04689 0.71575 0.0
C1210 C 0.71194 0.96746 0.71919 0.0
C1211 C 0.72383 0.95746 0.70376 0.0
C1212 C 0.70945 0.9866 0.71623 0.0
C1213 C 0.7191 0.99636 0.69804 0.0
C1214 C 0.73067 0.98621 0.68214 0.0
C1215 C 0.7329 0.96689 0.68489 0.0
H1216 H 0.56082 0.78121 0.90698 0.0
H1217 H 0.54333 0.83841 0.91727 0.0
H1218 H 0.52833 0.7714 0.90714 0.0
H1219 H 0.51085 0.82871 0.91627 0.0
H1220 H 0.45359 0.80458 0.92964 0.0
H1221 H 0.48637 0.8119 0.93689 0.0
H1222 H 0.50246 0.77396 0.87986 0.0
H1223 H 0.46992 0.76609 0.8734 0.0
C1224 C 0.5501 0.7917 0.90949 0.0
C1225 C 0.55477 0.81065 0.91189 0.0
C1226 C 0.53142 0.78608 0.90932 0.0
C1227 C 0.51694 0.79928 0.9115 0.0
C1228 C 0.52162 0.81814 0.91474 0.0
C1229 C 0.54029 0.82375 0.91496 0.0
C1230 C 0.46414 0.79756 0.91897 0.0
C1231 C 0.45908 0.78487 0.90078 0.0
C1232 C 0.48294 0.8019 0.92295 0.0
C1233 C 0.49707 0.7936 0.90887 0.0
C1234 C 0.492 0.78049 0.89122 0.0
C1235 C 0.47327 0.77616 0.88727 0.0
H1236 H 0.21731 0.47041 0.86693 0.0
H1237 H 0.18696 0.458 0.93231 0.0
H1238 H 0.21429 0.50374 0.87507 0.0
H1239 H 0.18393 0.4915 0.9406 0.0
H1240 H 0.15782 0.54973 0.9179 0.0
H1241 H 0.1654 0.51651 0.91851 0.0
H1242 H 0.22324 0.52941 0.90434 0.0
H1243 H 0.21556 0.56275 0.90365 0.0
C1244 C 0.21016 0.47486 0.88318 0.0
C1245 C 0.20219 0.46169 0.89886 0.0
C1246 C 0.2086 0.49391 0.88798 0.0
C1247 C 0.19884 0.5002 0.90844 0.0
C1248 C 0.19145 0.48701 0.92464 0.0
C1249 C 0.19326 0.4679 0.91999 0.0
C1250 C 0.17217 0.54545 0.91516 0.0
C1251 C 0.18607 0.55876 0.91048 0.0
C1252 C 0.17655 0.52647 0.91576 0.0
C1253 C 0.1949 0.52039 0.91141 0.0
C1254 C 0.20896 0.53373 0.90764 0.0
C1255 C 0.2046 0.55278 0.90738 0.0
H1256 H 0.45721 0.22118 0.92873 0.0
H1257 H 0.46106 0.1953 0.85856 0.0
H1258 H 0.49047 0.21455 0.93566 0.0
H1259 H 0.49401 0.18874 0.86533 0.0
H1260 H 0.5476 0.16451 0.89195 0.0
H1261 H 0.5139 0.16889 0.89278 0.0
H1262 H 0.52134 0.22583 0.91612 0.0
H1263 H 0.55523 0.22156 0.91494 0.0
C1264 C 0.46513 0.2139 0.91496 0.0
C1265 C 0.45665 0.20882 0.89307 0.0
C1266 C 0.48412 0.21023 0.91884 0.0
C1267 C 0.49477 0.20109 0.90106 0.0
C1268 C 0.4861 0.19563 0.87946 0.0
C1269 C 0.4673 0.19953 0.87548 0.0
C1270 C 0.5421 0.17796 0.89733 0.0
C1271 C 0.55413 0.1928 0.90289 0.0
C1272 C 0.52279 0.18042 0.89791 0.0
C1273 C 0.51504 0.19775 0.90421 0.0
C1274 C 0.52697 0.21228 0.9113 0.0
C1275 C 0.54636 0.20984 0.91061 0.0
H1276 H 0.81659 0.4541 0.91881 0.0
H1277 H 0.76616 0.46032 0.87727 0.0
H1278 H 0.81768 0.48814 0.92481 0.0
H1279 H 0.76685 0.4941 0.88373 0.0
H1280 H 0.76835 0.55374 0.91299 0.0
H1281 H 0.76657 0.51978 0.91898 0.0
H1282 H 0.82215 0.51377 0.88975 0.0
H1283 H 0.82367 0.54753 0.8833 0.0
C1284 C 0.80551 0.46275 0.91159 0.0
C1285 C 0.79135 0.45479 0.89753 0.0
C1286 C 0.80614 0.48212 0.91492 0.0
C1287 C 0.79231 0.49367 0.90477 0.0
C1288 C 0.77755 0.4855 0.89196 0.0
C1289 C 0.7772 0.46626 0.88814 0.0
C1290 C 0.78027 0.54513 0.90836 0.0
C1291 C 0.79609 0.5531 0.89756 0.0
C1292 C 0.77925 0.52579 0.91171 0.0
C1293 C 0.79426 0.51423 0.90488 0.0
C1294 C 0.81049 0.52238 0.89539 0.0
C1295 C 0.81131 0.54162 0.89153 0.0
H1296 H 0.46363 0.20032 0.21896 0.0
H1297 H 0.45665 0.21843 0.14527 0.0
H1298 H 0.49654 0.20864 0.21737 0.0
H1299 H 0.49002 0.22673 0.14346 0.0
H1300 H 0.55552 0.20834 0.15001 0.0
H1301 H 0.5214 0.20709 0.14643 0.0
H1302 H 0.516 0.23821 0.2128 0.0
H1303 H 0.54985 0.23965 0.21621 0.0
C1304 C 0.4692 0.20619 0.20244 0.0
C1305 C 0.4577 0.20869 0.18222 0.0
C1306 C 0.48798 0.21108 0.20156 0.0
C1307 C 0.49581 0.21839 0.18031 0.0
C1308 C 0.4843 0.2211 0.16004 0.0
C1309 C 0.46529 0.21649 0.1611 0.0
C1310 C 0.54702 0.21533 0.16344 0.0
C1311 C 0.55534 0.22373 0.18367 0.0
C1312 C 0.52752 0.21463 0.16139 0.0
C1313 C 0.51611 0.2223 0.17956 0.0
C1314 C 0.52448 0.2319 0.19876 0.0
C1315 C 0.54385 0.23264 0.20076 0.0
H1316 H 0.7855 0.55251 0.15403 0.0
H1317 H 0.80205 0.55346 0.22886 0.0
H1318 H 0.79085 0.51866 0.15286 0.0
H1319 H 0.80781 0.52004 0.22771 0.0
H1320 H 0.7918 0.45971 0.22872 0.0
H1321 H 0.7879 0.49326 0.22609 0.0
H1322 H 0.81392 0.49305 0.15561 0.0
H1323 H 0.81755 0.45902 0.15822 0.0
C1324 C 0.79058 0.5455 0.17006 0.0
C1325 C 0.79305 0.55547 0.19166 0.0
C1326 C 0.79366 0.52618 0.16942 0.0
C1327 C 0.7994 0.51659 0.19034 0.0
C1328 C 0.80285 0.52687 0.21148 0.0
C1329 C 0.7996 0.54602 0.21216 0.0
C1330 C 0.79681 0.4668 0.21272 0.0
C1331 C 0.80526 0.45679 0.19385 0.0
C1332 C 0.79461 0.48606 0.21121 0.0
C1333 C 0.80095 0.49591 0.19084 0.0
C1334 C 0.80888 0.48586 0.17154 0.0
C1335 C 0.81098 0.46643 0.17301 0.0
H1336 H 0.47166 0.7914 0.15551 0.0
H1337 H 0.47136 0.81307 0.22814 0.0
H1338 H 0.50414 0.80195 0.15045 0.0
H1339 H 0.50344 0.8237 0.22315 0.0
H1340 H 0.55444 0.85546 0.19906 0.0
H1341 H 0.52152 0.84733 0.19754 0.0
H1342 H 0.53578 0.79253 0.17104 0.0
H1343 H 0.56884 0.80032 0.1732 0.0
C1344 C 0.47849 0.79861 0.17021 0.0
C1345 C 0.46913 0.80134 0.19225 0.0
C1346 C 0.49702 0.80453 0.1674 0.0
C1347 C 0.50626 0.81366 0.18641 0.0
C1348 C 0.49663 0.81685 0.20813 0.0
C1349 C 0.47834 0.81064 0.21106 0.0
C1350 C 0.55069 0.84164 0.19295 0.0
C1351 C 0.56449 0.82847 0.18671 0.0
C1352 C 0.53177 0.83705 0.19194 0.0
C1353 C 0.52612 0.81927 0.18434 0.0
C1354 C 0.53975 0.8064 0.17681 0.0
C1355 C 0.55874 0.81091 0.17808 0.0
H1356 H 0.19899 0.46174 0.15695 0.0
H1357 H 0.24057 0.46803 0.2126 0.0
H1358 H 0.2002 0.49554 0.14912 0.0
H1359 H 0.24166 0.50139 0.20512 0.0
H1360 H 0.25318 0.55705 0.17287 0.0
H1361 H 0.25186 0.52315 0.17314 0.0
H1362 H 0.19165 0.52553 0.17175 0.0
H1363 H 0.19296 0.55969 0.17161 0.0
C1364 C 0.20846 0.47031 0.16732 0.0
C1365 C 0.21959 0.46229 0.18548 0.0
C1366 C 0.20906 0.48961 0.16299 0.0
C1367 C 0.22106 0.50111 0.17647 0.0
C1368 C 0.23242 0.49293 0.19423 0.0
C1369 C 0.23166 0.47381 0.1987 0.0
C1370 C 0.23964 0.5504 0.1726 0.0
C1371 C 0.22317 0.56112 0.17271 0.0
C1372 C 0.23889 0.53095 0.17266 0.0
C1373 C 0.22165 0.52166 0.17281 0.0
C1374 C 0.20515 0.5323 0.17153 0.0
C1375 C 0.2059 0.55186 0.17149 0.0
H1376 H 0.11692 0.32905 0.48163 0.0
H1377 H 0.17408 0.30984 0.48455 0.0
H1378 H 0.11628 0.33105 0.52569 0.0
H1379 H 0.17326 0.31116 0.52827 0.0
H1380 H 0.17222 0.32496 0.60694 0.0
H1381 H 0.17245 0.32954 0.56333 0.0
H1382 H 0.11515 0.31105 0.55974 0.0
H1383 H 0.11474 0.3072 0.60342 0.0
C1384 C 0.12939 0.32539 0.49163 0.0
C1385 C 0.14553 0.31924 0.47948 0.0
C1386 C 0.12898 0.32638 0.51695 0.0
C1387 C 0.14468 0.32116 0.53075 0.0
C1388 C 0.16097 0.31558 0.51844 0.0
C1389 C 0.1614 0.31471 0.49322 0.0
C1390 C 0.1596 0.32208 0.59687 0.0
C1391 C 0.14351 0.31559 0.60872 0.0
C1392 C 0.15976 0.32459 0.57178 0.0
C1393 C 0.14388 0.32048 0.55778 0.0
C1394 C 0.12759 0.31459 0.5698 0.0
C1395 C 0.12738 0.31226 0.59493 0.0
H1396 H 0.70072 0.15557 0.60234 0.0
H1397 H 0.67905 0.09981 0.59352 0.0
H1398 H 0.6982 0.16062 0.55877 0.0
H1399 H 0.67692 0.10467 0.55023 0.0
H1400 H 0.66363 0.12092 0.47428 0.0
H1401 H 0.66139 0.12089 0.51818 0.0
H1402 H 0.71407 0.14986 0.52262 0.0
H1403 H 0.71609 0.1503 0.47866 0.0
C1404 C 0.69521 0.14448 0.59118 0.0
C1405 C 0.69017 0.12725 0.60146 0.0
C1406 C 0.69391 0.14731 0.56617 0.0
C1407 C 0.68745 0.13303 0.55088 0.0
C1408 C 0.68174 0.11609 0.56137 0.0
C1409 C 0.68308 0.11326 0.58628 0.0
C1410 C 0.67463 0.1275 0.48458 0.0
C1411 C 0.69012 0.13547 0.47289 0.0
C1412 C 0.67339 0.12739 0.50981 0.0
C1413 C 0.68764 0.13518 0.52404 0.0
C1414 C 0.70274 0.14387 0.5123 0.0
C1415 C 0.70395 0.14404 0.48704 0.0
H1416 H 0.85415 0.68176 0.47119 0.0
H1417 H 0.91274 0.68952 0.48633 0.0
H1418 H 0.84885 0.67329 0.51382 0.0
H1419 H 0.90754 0.68077 0.52823 0.0
H1420 H 0.89702 0.64852 0.59544 0.0
H1421 H 0.89675 0.65095 0.55156 0.0
H1422 H 0.8531 0.69241 0.55561 0.0
H1423 H 0.85342 0.69021 0.59974 0.0
C1424 C 0.86588 0.68145 0.48351 0.0
C1425 C 0.88384 0.68636 0.47548 0.0
C1426 C 0.86284 0.67667 0.50783 0.0
C1427 C 0.87782 0.67624 0.52422 0.0
C1428 C 0.89578 0.68076 0.51594 0.0
C1429 C 0.89872 0.6859 0.49196 0.0
C1430 C 0.88703 0.65785 0.58707 0.0
C1431 C 0.87544 0.66938 0.6012 0.0
C1432 C 0.88692 0.65925 0.5619 0.0
C1433 C 0.87506 0.67202 0.55024 0.0
C1434 C 0.86235 0.68242 0.56416 0.0
C1435 C 0.86259 0.68118 0.58943 0.0
H1436 H 0.31379 0.85928 0.61321 0.0
H1437 H 0.35126 0.90622 0.60806 0.0
H1438 H 0.31659 0.8543 0.56975 0.0
H1439 H 0.35361 0.90164 0.56468 0.0
H1440 H 0.36616 0.88171 0.48947 0.0
H1441 H 0.36552 0.88233 0.53345 0.0
H1442 H 0.30699 0.86793 0.53246 0.0
H1443 H 0.30781 0.86674 0.4885 0.0
C1444 C 0.32267 0.86852 0.60284 0.0
C1445 C 0.3323 0.88316 0.6142 0.0
C1446 C 0.32418 0.86574 0.57784 0.0
C1447 C 0.3353 0.87757 0.56353 0.0
C1448 C 0.34515 0.89202 0.57504 0.0
C1449 C 0.34371 0.89474 0.6 0.0
C1450 C 0.3532 0.87845 0.49863 0.0
C1451 C 0.33702 0.87426 0.48538 0.0
C1452 C 0.35279 0.87895 0.52391 0.0
C1453 C 0.33615 0.87539 0.53666 0.0
C1454 C 0.32012 0.87057 0.52339 0.0
C1455 C 0.32057 0.86996 0.49809 0.0
H1456 H 0.17517 0.72023 0.48094 0.0
H1457 H 0.11918 0.69869 0.4742 0.0
H1458 H 0.17369 0.71615 0.52434 0.0
H1459 H 0.11792 0.69384 0.51785 0.0
H1460 H 0.11393 0.71308 0.59766 0.0
H1461 H 0.11508 0.71129 0.55381 0.0
H1462 H 0.17338 0.6958 0.55736 0.0
H1463 H 0.17237 0.69842 0.60121 0.0
C1464 C 0.16263 0.71427 0.48867 0.0
C1465 C 0.14725 0.70989 0.47402 0.0
C1466 C 0.16182 0.71178 0.51369 0.0
C1467 C 0.14566 0.70467 0.52485 0.0
C1468 C 0.13049 0.69965 0.51005 0.0
C1469 C 0.13125 0.70229 0.48495 0.0
C1470 C 0.12694 0.70904 0.58911 0.0
C1471 C 0.14312 0.70609 0.60297 0.0
C1472 C 0.12759 0.70792 0.56386 0.0
C1473 C 0.14439 0.70362 0.55181 0.0
C1474 C 0.16029 0.69962 0.56586 0.0
C1475 C 0.15969 0.70097 0.59107 0.0
H1476 H 0.318 0.11171 0.47526 0.0
H1477 H 0.30604 0.17082 0.47681 0.0
H1478 H 0.32409 0.1123 0.51862 0.0
H1479 H 0.31223 0.17139 0.5201 0.0
H1480 H 0.2987 0.15696 0.60049 0.0
H1481 H 0.29649 0.15905 0.5566 0.0
H1482 H 0.3458 0.12468 0.54953 0.0
H1483 H 0.34799 0.12247 0.59339 0.0
C1484 C 0.31688 0.12487 0.48477 0.0
C1485 C 0.31144 0.14119 0.47254 0.0
C1486 C 0.32046 0.12523 0.50961 0.0
C1487 C 0.31856 0.14189 0.52284 0.0
C1488 C 0.3136 0.1583 0.51049 0.0
C1489 C 0.31016 0.15797 0.48563 0.0
C1490 C 0.30922 0.15005 0.5896 0.0
C1491 C 0.32346 0.13947 0.6005 0.0
C1492 C 0.30799 0.1513 0.56443 0.0
C1493 C 0.3209 0.14192 0.54956 0.0
C1494 C 0.33549 0.13186 0.56047 0.0
C1495 C 0.33681 0.13072 0.58563 0.0
H1496 H 0.85684 0.31521 0.47722 0.0
H1497 H 0.90858 0.34582 0.4818 0.0
H1498 H 0.85267 0.31825 0.52066 0.0
H1499 H 0.9042 0.3492 0.52528 0.0
H1500 H 0.90277 0.32511 0.60353 0.0
H1501 H 0.90596 0.32901 0.56005 0.0
H1502 H 0.84659 0.33872 0.55425 0.0
H1503 H 0.84333 0.3344 0.59773 0.0
C1504 C 0.86717 0.3229 0.48741 0.0
C1505 C 0.88312 0.33014 0.47597 0.0
C1506 C 0.86473 0.32473 0.51239 0.0
C1507 C 0.87815 0.33389 0.52661 0.0
C1508 C 0.89372 0.34181 0.51499 0.0
C1509 C 0.89617 0.33997 0.49 0.0
C1510 C 0.89043 0.32843 0.59308 0.0
C1511 C 0.87276 0.32926 0.60417 0.0
C1512 C 0.89227 0.33073 0.56808 0.0
C1513 C 0.8765 0.33397 0.55351 0.0
C1514 C 0.85899 0.33587 0.56482 0.0
C1515 C 0.85714 0.33355 0.58982 0.0
H1516 H 0.70444 0.84469 0.61191 0.0
H1517 H 0.72897 0.89967 0.61268 0.0
H1518 H 0.70322 0.84564 0.56795 0.0
H1519 H 0.72837 0.90038 0.56874 0.0
H1520 H 0.71502 0.90215 0.48909 0.0
H1521 H 0.71027 0.90213 0.53278 0.0
H1522 H 0.72422 0.84345 0.53508 0.0
H1523 H 0.72832 0.84337 0.49157 0.0
C1524 C 0.70953 0.85702 0.60272 0.0
C1525 C 0.71691 0.87205 0.61587 0.0
C1526 C 0.70894 0.85752 0.57744 0.0
C1527 C 0.71586 0.87302 0.56462 0.0
C1528 C 0.7227 0.88829 0.57787 0.0
C1529 C 0.72316 0.88784 0.60315 0.0
C1530 C 0.71681 0.8892 0.4989 0.0
C1531 C 0.72212 0.87278 0.48677 0.0
C1532 C 0.71423 0.88921 0.52402 0.0
C1533 C 0.71696 0.87282 0.53764 0.0
C1534 C 0.72171 0.8563 0.52531 0.0
C1535 C 0.72419 0.85628 0.50025 0.0
H1536 H 0.61758 0.85604 0.10446 0.0
H1537 H 0.66428 0.81812 0.11148 0.0
H1538 H 0.61728 0.85077 0.06097 0.0
H1539 H 0.66408 0.81314 0.06765 0.0
H1540 H 0.66195 0.82292 0.98187 0.0
H1541 H 0.66663 0.83215 1.02432 0.0
H1542 H 0.60926 0.81843 1.03992 0.0
H1543 H 0.6047 0.80889 0.99821 0.0
C1544 C 0.62805 0.84689 0.09672 0.0
C1545 C 0.64084 0.83736 0.11155 0.0
C1546 C 0.62784 0.84386 0.07179 0.0
C1547 C 0.64058 0.83147 0.06101 0.0
C1548 C 0.65416 0.82283 0.07552 0.0
C1549 C 0.65421 0.82564 0.1006 0.0
C1550 C 0.65039 0.82192 0.99443 0.0
C1551 C 0.63298 0.81513 0.98672 0.0
C1552 C 0.65308 0.82713 1.01865 0.0
C1553 C 0.63826 0.82611 1.0353 0.0
C1554 C 0.62087 0.81953 1.02743 0.0
C1555 C 0.61831 0.81396 1.00354 0.0
H1556 H 0.14429 0.61669 0.98633 0.0
H1557 H 0.18241 0.66305 0.97981 0.0
H1558 H 0.14419 0.62035 1.03008 0.0
H1559 H 0.18237 0.6666 1.02363 0.0
H1560 H 0.17495 0.61532 0.10447 0.0
H1561 H 0.16795 0.61426 0.06142 0.0
H1562 H 0.1636 0.67435 0.05989 0.0
H1563 H 0.1707 0.67546 0.10294 0.0
C1564 C 0.15242 0.62787 0.99416 0.0
C1565 C 0.16349 0.63949 0.9795 0.0
C1566 C 0.15244 0.62987 1.01929 0.0
C1567 C 0.16342 0.64362 1.03038 0.0
C1568 C 0.17365 0.65593 1.01566 0.0
C1569 C 0.17372 0.65386 0.99051 0.0
C1570 C 0.17216 0.62829 0.09508 0.0
C1571 C 0.17352 0.64548 0.10718 0.0
C1572 C 0.16808 0.62769 0.07038 0.0
C1573 C 0.16537 0.64424 0.05716 0.0
C1574 C 0.16587 0.66137 0.06949 0.0
C1575 C 0.16981 0.66197 0.09422 0.0
H1576 H 0.37221 0.24228 0.09457 0.0
H1577 H 0.37692 0.18255 0.1029 0.0
H1578 H 0.36706 0.23837 0.05133 0.0
H1579 H 0.37221 0.17868 0.05916 0.0
H1580 H 0.39128 0.19189 0.97584 0.0
H1581 H 0.39259 0.19069 1.02009 0.0
H1582 H 0.34116 0.22196 1.02417 0.0
H1583 H 0.33955 0.22291 0.98023 0.0
C1584 C 0.37207 0.2283 0.08715 0.0
C1585 C 0.37494 0.21272 0.10209 0.0
C1586 C 0.36906 0.22607 0.06243 0.0
C1587 C 0.36923 0.20823 0.05197 0.0
C1588 C 0.37203 0.19257 0.06684 0.0
C1589 C 0.37462 0.19478 0.0918 0.0
C1590 C 0.38006 0.19817 0.98618 0.0
C1591 C 0.36539 0.20761 0.97448 0.0
C1592 C 0.38079 0.19742 1.01148 0.0
C1593 C 0.36703 0.20634 1.02546 0.0
C1594 C 0.35198 0.21506 1.01378 0.0
C1595 C 0.35107 0.21555 0.98859 0.0
H1596 H 0.82098 0.40099 0.1004 0.0
H1597 H 0.81609 0.34114 0.09393 0.0
H1598 H 0.82249 0.40369 0.05651 0.0
H1599 H 0.818 0.34381 0.05014 0.0
H1600 H 0.79555 0.35838 0.97463 0.0
H1601 H 0.79814 0.35462 1.01812 0.0
H1602 H 0.84039 0.39746 1.02015 0.0
H1603 H 0.83753 0.40151 0.97647 0.0
C1604 C 0.82052 0.38837 0.08966 0.0
C1605 C 0.81826 0.37085 0.10076 0.0
C1606 C 0.82147 0.38991 0.06444 0.0
C1607 C 0.82021 0.37398 0.04967 0.0
C1608 C 0.81867 0.35642 0.06086 0.0
C1609 C 0.81769 0.35488 0.08604 0.0
C1610 C 0.80553 0.36692 0.98426 0.0
C1611 C 0.81629 0.38029 0.97196 0.0
C1612 C 0.8071 0.36468 1.00927 0.0
C1613 C 0.81948 0.37573 1.02277 0.0
C1614 C 0.83055 0.38885 1.01041 0.0
C1615 C 0.829 0.39108 0.98532 0.0
H1616 H 0.65303 0.19436 0.1048 0.0
H1617 H 0.59558 0.17667 0.09959 0.0
H1618 H 0.65711 0.18909 0.06167 0.0
H1619 H 0.59949 0.17191 0.05632 0.0
H1620 H 0.6136 0.15539 0.98006 0.0
H1621 H 0.61362 0.1545 1.0241 0.0
H1622 H 0.64737 0.20435 1.02553 0.0
H1623 H 0.64776 0.20495 0.98165 0.0
C1624 C 0.6413 0.18919 0.0945 0.0
C1625 C 0.62393 0.18608 0.10568 0.0
C1626 C 0.6436 0.18628 0.06969 0.0
C1627 C 0.62858 0.18029 0.05535 0.0
C1628 C 0.61145 0.17636 0.06675 0.0
C1629 C 0.60917 0.17917 0.09162 0.0
C1630 C 0.62129 0.16599 0.98977 0.0
C1631 C 0.63059 0.1803 0.97726 0.0
C1632 C 0.62117 0.16555 1.01506 0.0
C1633 C 0.63034 0.17944 1.02848 0.0
C1634 C 0.64032 0.19328 1.0159 0.0
C1635 C 0.64048 0.19369 0.99064 0.0
H1636 H 0.81162 0.672 0.09974 0.0
H1637 H 0.79597 0.6139 0.09668 0.0
H1638 H 0.81428 0.67271 0.05588 0.0
H1639 H 0.79796 0.61475 0.05282 0.0
H1640 H 0.81278 0.61775 0.9739 0.0
H1641 H 0.81682 0.61711 1.01763 0.0
H1642 H 0.79382 0.67281 1.02238 0.0
H1643 H 0.79041 0.67366 0.97876 0.0
C1644 C 0.80885 0.65934 0.08972 0.0
C1645 C 0.80346 0.64293 0.10175 0.0
C1646 C 0.81024 0.65977 0.06451 0.0
C1647 C 0.80613 0.64385 0.05065 0.0
C1648 C 0.80145 0.62724 0.0628 0.0
C1649 C 0.80021 0.62677 0.08802 0.0
C1650 C 0.80883 0.62995 0.98427 0.0
C1651 C 0.8012 0.64573 0.97279 0.0
C1652 C 0.81102 0.62954 1.0094 0.0
C1653 C 0.80553 0.64485 1.0237 0.0
C1654 C 0.79846 0.66084 1.01206 0.0
C1655 C 0.79639 0.66129 0.98695 0.0
H1656 H 0.39364 0.83321 0.98031 0.0
H1657 H 0.38305 0.77415 0.987 0.0
H1658 H 0.39491 0.8359 1.02423 0.0
H1659 H 0.385 0.77665 1.03066 0.0
H1660 H 0.37331 0.7879 0.109 0.0
H1661 H 0.36968 0.7875 0.06536 0.0
H1662 H 0.41335 0.82866 0.05852 0.0
H1663 H 0.41644 0.82956 0.10239 0.0
C1664 C 0.39162 0.82078 0.99113 0.0
C1665 C 0.38819 0.80347 0.98005 0.0
C1666 C 0.39248 0.8223 1.01637 0.0
C1667 C 0.39004 0.80651 1.03121 0.0
C1668 C 0.38658 0.78922 1.02002 0.0
C1669 C 0.38558 0.78774 0.99485 0.0
C1670 C 0.38206 0.79698 0.09822 0.0
C1671 C 0.39523 0.80871 0.10927 0.0
C1672 C 0.38008 0.79665 0.07308 0.0
C1673 C 0.39136 0.80787 0.05817 0.0
C1674 C 0.40425 0.81994 0.06929 0.0
C1675 C 0.4061 0.82041 0.09452 0.0
H1676 H 0.20367 0.36492 0.97929 0.0
H1677 H 0.16939 0.4145 0.98267 0.0
H1678 H 0.20397 0.36333 1.02322 0.0
H1679 H 0.17026 0.41338 1.02661 0.0
H1680 H 0.16439 0.39981 0.10651 0.0
H1681 H 0.16085 0.39837 0.06269 0.0
H1682 H 0.21771 0.37863 0.05618 0.0
H1683 H 0.22095 0.37943 0.09979 0.0
C1684 C 0.19615 0.37547 0.9894 0.0
C1685 C 0.18656 0.38987 0.97738 0.0
C1686 C 0.19644 0.37466 1.01468 0.0
C1687 C 0.18732 0.38835 1.02869 0.0
C1688 C 0.17728 0.40245 1.01659 0.0
C1689 C 0.17685 0.40315 0.99129 0.0
C1690 C 0.17608 0.39504 0.09571 0.0
C1691 C 0.19294 0.38973 0.10676 0.0
C1692 C 0.1741 0.39432 0.07051 0.0
C1693 C 0.18898 0.38837 0.05568 0.0
C1694 C 0.20578 0.38294 0.06686 0.0
C1695 C 0.2077 0.38353 0.09199 0.0
H1696 H 0.17824 0.39299 0.25352 0.0
H1697 H 0.19103 0.33973 0.22124 0.0
H1698 H 0.17051 0.37776 0.29126 0.0
H1699 H 0.1818 0.32405 0.25849 0.0
H1700 H 0.1786 0.3001 0.33363 0.0
H1701 H 0.18866 0.31619 0.29714 0.0
H1702 H 0.15003 0.36112 0.31315 0.0
H1703 H 0.14131 0.34559 0.35048 0.0
C1704 C 0.17898 0.3779 0.25437 0.0
C1705 C 0.18514 0.36755 0.23434 0.0
C1706 C 0.17442 0.36907 0.2761 0.0
C1707 C 0.17535 0.34949 0.27833 0.0
C1708 C 0.18124 0.33913 0.25798 0.0
C1709 C 0.18634 0.34807 0.2364 0.0
C1710 C 0.17257 0.31361 0.32946 0.0
C1711 C 0.15935 0.32169 0.34503 0.0
C1712 C 0.17812 0.32277 0.30828 0.0
C1713 C 0.17013 0.34005 0.30167 0.0
C1714 C 0.15694 0.34812 0.31755 0.0
C1715 C 0.15183 0.33919 0.33907 0.0
H1716 H 0.66579 0.20963 0.23565 0.0
H1717 H 0.6345 0.15827 0.23199 0.0
H1718 H 0.67592 0.20161 0.27647 0.0
H1719 H 0.64484 0.15016 0.27251 0.0
H1720 H 0.64913 0.15019 0.35394 0.0
H1721 H 0.63943 0.16025 0.31382 0.0
H1722 H 0.69532 0.17973 0.29919 0.0
H1723 H 0.70497 0.16997 0.33949 0.0
C1724 C 0.66125 0.19653 0.24341 0.0
C1725 C 0.64928 0.18462 0.23052 0.0
C1726 C 0.66708 0.19192 0.26683 0.0
C1727 C 0.66102 0.17533 0.27792 0.0
C1728 C 0.64945 0.16323 0.26475 0.0
C1729 C 0.64367 0.16781 0.24138 0.0
C1730 C 0.65931 0.15683 0.34231 0.0
C1731 C 0.67786 0.15918 0.34996 0.0
C1732 C 0.65379 0.16244 0.31919 0.0
C1733 C 0.66665 0.17057 0.30311 0.0
C1734 C 0.68502 0.1736 0.31111 0.0
C1735 C 0.69056 0.16796 0.33424 0.0
H1736 H 0.80556 0.67119 0.22463 0.0
H1737 H 0.83948 0.62193 0.23506 0.0
H1738 H 0.81632 0.68342 0.26333 0.0
H1739 H 0.84954 0.63364 0.27396 0.0
H1740 H 0.87758 0.66619 0.33344 0.0
H1741 H 0.86799 0.65557 0.29374 0.0
H1742 H 0.81308 0.6791 0.30552 0.0
H1743 H 0.82304 0.69048 0.34495 0.0
C1744 C 0.81536 0.66301 0.23513 0.0
C1745 C 0.8217 0.64561 0.22667 0.0
C1746 C 0.82139 0.66992 0.25746 0.0
C1747 C 0.83376 0.65951 0.27199 0.0
C1748 C 0.84028 0.64225 0.26324 0.0
C1749 C 0.83443 0.63546 0.24086 0.0
C1750 C 0.86341 0.66902 0.32765 0.0
C1751 C 0.85106 0.67914 0.34245 0.0
C1752 C 0.85786 0.66286 0.30482 0.0
C1753 C 0.83971 0.66641 0.29625 0.0
C1754 C 0.82727 0.67637 0.31123 0.0
C1755 C 0.83291 0.68274 0.33399 0.0
H1756 H 0.35184 0.80986 0.23212 0.0
H1757 H 0.40337 0.83608 0.25375 0.0
H1758 H 0.33783 0.81829 0.27081 0.0
H1759 H 0.3898 0.84369 0.2927 0.0
H1760 H 0.35537 0.86967 0.35294 0.0
H1761 H 0.36888 0.86238 0.31377 0.0
H1762 H 0.33785 0.81074 0.31203 0.0
H1763 H 0.32366 0.81856 0.35078 0.0
C1764 C 0.36017 0.81747 0.2451 0.0
C1765 C 0.37871 0.82235 0.23973 0.0
C1766 C 0.35221 0.82213 0.26746 0.0
C1767 C 0.36266 0.83158 0.28518 0.0
C1768 C 0.38113 0.83669 0.27954 0.0
C1769 C 0.38898 0.83226 0.25711 0.0
C1770 C 0.35156 0.85666 0.34432 0.0
C1771 C 0.33844 0.84468 0.35507 0.0
C1772 C 0.35936 0.85243 0.32178 0.0
C1773 C 0.35447 0.83597 0.30945 0.0
C1774 C 0.3417 0.82375 0.32058 0.0
C1775 C 0.3337 0.82811 0.343 0.0
H1776 H 0.179 0.69862 0.85546 0.0
H1777 H 0.17081 0.64033 0.83879 0.0
H1778 H 0.16911 0.70692 0.81456 0.0
H1779 H 0.16146 0.64855 0.79804 0.0
H1780 H 0.12414 0.67083 0.73785 0.0
H1781 H 0.13571 0.66261 0.77766 0.0
H1782 H 0.17783 0.70541 0.77204 0.0
H1783 H 0.1659 0.71398 0.73218 0.0
C1784 C 0.17518 0.68758 0.84309 0.0
C1785 C 0.17558 0.66882 0.85055 0.0
C1786 C 0.16965 0.69233 0.81956 0.0
C1787 C 0.1644 0.67842 0.80294 0.0
C1788 C 0.16507 0.65967 0.81039 0.0
C1789 C 0.17053 0.65495 0.83383 0.0
C1790 C 0.13598 0.67842 0.74494 0.0
C1791 C 0.14408 0.69307 0.73173 0.0
C1792 C 0.14268 0.67364 0.76782 0.0
C1793 C 0.15772 0.68334 0.77818 0.0
C1794 C 0.16607 0.69779 0.76479 0.0
C1795 C 0.15935 0.70259 0.74182 0.0
H1796 H 0.33658 0.13827 0.73688 0.0
H1797 H 0.31439 0.1941 0.72993 0.0
H1798 H 0.34894 0.14597 0.77636 0.0
H1799 H 0.32763 0.20222 0.76912 0.0
H1800 H 0.33804 0.20615 0.85018 0.0
H1801 H 0.32458 0.19798 0.8111 0.0
H1802 H 0.37202 0.16225 0.79649 0.0
H1803 H 0.38483 0.16967 0.83578 0.0
C1804 C 0.33463 0.15233 0.7436 0.0
C1805 C 0.32453 0.16559 0.73017 0.0
C1806 C 0.3418 0.15681 0.76631 0.0
C1807 C 0.33937 0.17477 0.77613 0.0
C1808 C 0.32953 0.18814 0.76246 0.0
C1809 C 0.32209 0.18356 0.73983 0.0
C1810 C 0.34544 0.19638 0.83868 0.0
C1811 C 0.36244 0.18847 0.8462 0.0
C1812 C 0.33783 0.19183 0.81613 0.0
C1813 C 0.34718 0.17945 0.80042 0.0
C1814 C 0.36416 0.17153 0.80813 0.0
C1815 C 0.37159 0.17585 0.83074 0.0
H1816 H 0.81958 0.31976 0.72321 0.0
H1817 H 0.87799 0.32506 0.74106 0.0
H1818 H 0.81115 0.33204 0.76282 0.0
H1819 H 0.86959 0.33681 0.78089 0.0
H1820 H 0.84807 0.37663 0.83938 0.0
H1821 H 0.85691 0.36338 0.8006 0.0
H1822 H 0.81065 0.32498 0.80505 0.0
H1823 H 0.80146 0.33869 0.84367 0.0
C1824 C 0.83064 0.32348 0.7356 0.0
C1825 C 0.84948 0.32148 0.72882 0.0
C1826 C 0.8258 0.33038 0.75845 0.0
C1827 C 0.83965 0.33542 0.77523 0.0
C1828 C 0.8585 0.33336 0.76842 0.0
C1829 C 0.86334 0.32653 0.74554 0.0
C1830 C 0.83983 0.36526 0.83223 0.0
C1831 C 0.82401 0.35877 0.84471 0.0
C1832 C 0.84498 0.35757 0.80994 0.0
C1833 C 0.8345 0.3431 0.7995 0.0
C1834 C 0.81889 0.33631 0.81227 0.0
C1835 C 0.81371 0.34406 0.83456 0.0
H1836 H 0.6747 0.88666 0.74854 0.0
H1837 H 0.70994 0.83867 0.73575 0.0
H1838 H 0.66461 0.87335 0.78665 0.0
H1839 H 0.69917 0.82483 0.77355 0.0
H1840 H 0.69288 0.81501 0.85465 0.0
H1841 H 0.70235 0.82782 0.81572 0.0
H1842 H 0.64689 0.85052 0.80586 0.0
H1843 H 0.63777 0.83846 0.84515 0.0
C1844 C 0.68 0.87305 0.75361 0.0
C1845 C 0.69316 0.86376 0.73905 0.0
C1846 C 0.67415 0.86534 0.77554 0.0
C1847 C 0.6811 0.84799 0.78344 0.0
C1848 C 0.69379 0.83839 0.76841 0.0
C1849 C 0.69982 0.84622 0.74656 0.0
C1850 C 0.68277 0.82286 0.84422 0.0
C1851 C 0.66461 0.82581 0.85313 0.0
C1852 C 0.68813 0.83006 0.82173 0.0
C1853 C 0.6754 0.8402 0.80742 0.0
C1854 C 0.65723 0.8431 0.81642 0.0
C1855 C 0.65195 0.83611 0.839 0.0
H1856 H 0.81765 0.6766 0.72094 0.0
H1857 H 0.87476 0.684 0.74386 0.0
H1858 H 0.80899 0.66784 0.76211 0.0
H1859 H 0.86607 0.67592 0.78492 0.0
H1860 H 0.84905 0.63874 0.8482 0.0
H1861 H 0.85752 0.64964 0.80812 0.0
H1862 H 0.8048 0.67879 0.80268 0.0
H1863 H 0.79606 0.66733 0.84263 0.0
C1864 C 0.82832 0.6765 0.73477 0.0
C1865 C 0.84692 0.68085 0.729 0.0
C1866 C 0.82335 0.67161 0.75845 0.0
C1867 C 0.83684 0.67107 0.77694 0.0
C1868 C 0.85535 0.6758 0.77116 0.0
C1869 C 0.86033 0.68053 0.74754 0.0
C1870 C 0.83933 0.64765 0.83861 0.0
C1871 C 0.82186 0.65212 0.84868 0.0
C1872 C 0.84422 0.65398 0.81557 0.0
C1873 C 0.83183 0.66508 0.80198 0.0
C1874 C 0.81457 0.67002 0.81238 0.0
C1875 C 0.80963 0.66359 0.83542 0.0
H1876 H 0.34218 0.80473 0.86016 0.0
H1877 H 0.39296 0.83482 0.84457 0.0
H1878 H 0.32869 0.81597 0.82241 0.0
H1879 H 0.37981 0.84546 0.80656 0.0
H1880 H 0.34511 0.87468 0.74892 0.0
H1881 H 0.35774 0.86508 0.78777 0.0
H1882 H 0.33117 0.81134 0.78008 0.0
H1883 H 0.31799 0.82124 0.7416 0.0
C1884 C 0.35044 0.81383 0.84876 0.0
C1885 C 0.36866 0.81886 0.85546 0.0
C1886 C 0.34278 0.82012 0.82695 0.0
C1887 C 0.35319 0.83151 0.81117 0.0
C1888 C 0.37124 0.83691 0.81825 0.0
C1889 C 0.37883 0.83074 0.84012 0.0
C1890 C 0.34207 0.86076 0.75542 0.0
C1891 C 0.33054 0.84873 0.74208 0.0
C1892 C 0.34936 0.85522 0.77775 0.0
C1893 C 0.34545 0.83743 0.78728 0.0
C1894 C 0.3342 0.82528 0.77366 0.0
C1895 C 0.32678 0.83089 0.75141 0.0
H1896 H 0.13763 0.35987 0.72819 0.0
H1897 H 0.16334 0.30625 0.74145 0.0
H1898 H 0.14714 0.37035 0.7681 0.0
H1899 H 0.17254 0.31664 0.7817 0.0
H1900 H 0.14661 0.3764 0.84932 0.0
H1901 H 0.13857 0.36461 0.80947 0.0
H1902 H 0.19242 0.33762 0.80438 0.0
H1903 H 0.20034 0.34911 0.84456 0.0
C1904 C 0.14543 0.35034 0.73954 0.0
C1905 C 0.14965 0.33218 0.73157 0.0
C1906 C 0.15073 0.35629 0.76258 0.0
C1907 C 0.16036 0.34426 0.77836 0.0
C1908 C 0.16521 0.32632 0.77005 0.0
C1909 C 0.15992 0.32036 0.74693 0.0
C1910 C 0.15668 0.36778 0.83986 0.0
C1911 C 0.17415 0.36377 0.8502 0.0
C1912 C 0.15214 0.36116 0.81684 0.0
C1913 C 0.16494 0.35038 0.80346 0.0
C1914 C 0.18217 0.34581 0.81415 0.0
C1915 C 0.18672 0.35242 0.83723 0.0
H1916 H 0.65475 0.16746 0.72117 0.0
H1917 H 0.70982 0.14987 0.74359 0.0
H1918 H 0.64731 0.17577 0.76302 0.0
H1919 H 0.70221 0.15787 0.78527 0.0
H1920 H 0.66861 0.15028 0.85823 0.0
H1921 H 0.67839 0.14439 0.81648 0.0
H1922 H 0.65888 0.19912 0.79584 0.0
H1923 H 0.6494 0.20519 0.83741 0.0
C1924 C 0.66531 0.16554 0.73493 0.0
C1925 C 0.68287 0.15803 0.72899 0.0
C1926 C 0.66106 0.1703 0.75886 0.0
C1927 C 0.67416 0.16733 0.77738 0.0
C1928 C 0.69181 0.16015 0.77139 0.0
C1929 C 0.69618 0.15571 0.74746 0.0
C1930 C 0.66662 0.16113 0.84485 0.0
C1931 C 0.65825 0.17819 0.8512 0.0
C1932 C 0.67223 0.15777 0.82098 0.0
C1933 C 0.66927 0.17128 0.80293 0.0
C1934 C 0.66117 0.18842 0.80935 0.0
C1935 C 0.65588 0.19191 0.83323 0.0
H1936 H 0.86487 0.37519 0.23168 0.0
H1937 H 0.81471 0.34187 0.23014 0.0
H1938 H 0.87072 0.36518 0.27301 0.0
H1939 H 0.82057 0.33195 0.27169 0.0
H1940 H 0.84885 0.30614 0.34025 0.0
H1941 H 0.8422 0.31396 0.29815 0.0
H1942 H 0.85588 0.37153 0.31242 0.0
H1943 H 0.86264 0.36377 0.35433 0.0
C1944 C 0.85521 0.36552 0.24 0.0
C1945 C 0.83926 0.35943 0.22754 0.0
C1946 C 0.85847 0.35993 0.26383 0.0
C1947 C 0.84594 0.34802 0.27583 0.0
C1948 C 0.8305 0.34114 0.26299 0.0
C1949 C 0.82716 0.34682 0.23915 0.0
C1950 C 0.85021 0.32052 0.33449 0.0
C1951 C 0.85637 0.33431 0.35071 0.0
C1952 C 0.8464 0.32499 0.31033 0.0
C1953 C 0.84879 0.34331 0.30181 0.0
C1954 C 0.85428 0.3572 0.31826 0.0
C1955 C 0.85796 0.35277 0.34239 0.0
H1956 H 0.65079 0.81732 0.27853 0.0
H1957 H 0.68182 0.85249 0.22955 0.0
H1958 H 0.66956 0.82832 0.31206 0.0
H1959 H 0.70044 0.86392 0.26343 0.0
H1960 H 0.74274 0.86527 0.32543 0.0
H1961 H 0.72411 0.85421 0.29166 0.0
H1962 H 0.67487 0.85513 0.33682 0.0
H1963 H 0.69365 0.8658 0.37083 0.0
C1964 C 0.66157 0.8275 0.27489 0.0
C1965 C 0.66478 0.83401 0.25127 0.0
C1966 C 0.67229 0.83392 0.29424 0.0
C1967 C 0.68651 0.84709 0.29058 0.0
C1968 C 0.68976 0.85362 0.26692 0.0
C1969 C 0.67902 0.84714 0.24748 0.0
C1970 C 0.72795 0.86306 0.32823 0.0
C1971 C 0.71972 0.8664 0.35093 0.0
C1972 C 0.71722 0.85685 0.30874 0.0
C1973 C 0.69794 0.85382 0.31138 0.0
C1974 C 0.68972 0.85707 0.33414 0.0
C1975 C 0.70048 0.86326 0.35367 0.0
H1976 H 0.17322 0.71174 0.34586 0.0
H1977 H 0.13178 0.6683 0.34027 0.0
H1978 H 0.18641 0.70213 0.30712 0.0
H1979 H 0.14462 0.65902 0.30138 0.0
H1980 H 0.18158 0.6367 0.24086 0.0
H1981 H 0.17063 0.64489 0.28121 0.0
H1982 H 0.17853 0.70329 0.26492 0.0
H1983 H 0.18991 0.69507 0.22482 0.0
C1984 C 0.16699 0.70007 0.33647 0.0
C1985 C 0.1514 0.69083 0.34622 0.0
C1986 C 0.17445 0.69465 0.31412 0.0
C1987 C 0.16651 0.67987 0.30093 0.0
C1988 C 0.15125 0.67032 0.31106 0.0
C1989 C 0.14382 0.67571 0.33339 0.0
C1990 C 0.18096 0.65129 0.24586 0.0
C1991 C 0.1866 0.66522 0.22952 0.0
C1992 C 0.17462 0.65601 0.26902 0.0
C1993 C 0.1737 0.67477 0.27645 0.0
C1994 C 0.17933 0.68868 0.26005 0.0
C1995 C 0.18571 0.68397 0.23692 0.0
H1996 H 0.34285 0.12113 0.33413 0.0
H1997 H 0.30885 0.16899 0.35226 0.0
H1998 H 0.35047 0.13514 0.29546 0.0
H1999 H 0.31717 0.18351 0.31387 0.0
H2000 H 0.32005 0.19654 0.23353 0.0
H2001 H 0.31192 0.18182 0.27186 0.0
H2002 H 0.36754 0.15851 0.27637 0.0
H2003 H 0.37529 0.17245 0.23771 0.0
C2004 C 0.33726 0.13483 0.33005 0.0
C2005 C 0.32526 0.14395 0.34633 0.0
C2006 C 0.34169 0.14293 0.30781 0.0
C2007 C 0.33444 0.1605 0.30134 0.0
C2008 C 0.32274 0.16981 0.31793 0.0
C2009 C 0.31812 0.16158 0.34009 0.0
C2010 C 0.33045 0.18808 0.24261 0.0
C2011 C 0.34828 0.18561 0.23247 0.0
C2012 C 0.32586 0.1798 0.26475 0.0
C2013 C 0.33908 0.16901 0.27743 0.0
C2014 C 0.35685 0.16642 0.26707 0.0
C2015 C 0.36134 0.17449 0.24483 0.0
loop_
_geom_bond_atom_site_label_1
_geom_bond_atom_site_label_2
_geom_bond_distance
_geom_bond_site_symmetry_2
_ccdc_geom_bond_type
Cu0 N1 1.999 . S
Cu0 O6 1.974 . S
Cu0 N11 1.985 . S
Cu0 O20 1.959 . S
N1 Cu0 1.999 . S
N1 C3 1.263 . S
N1 C5 1.389 . S
N2 C3 1.358 . S
N2 C4 1.400 . S
C3 N1 1.263 . S
C3 N2 1.358 . S
C3 H9 0.930 . S
C4 N2 1.400 . S
C4 C5 1.351 . S
C4 H21 0.930 . S
C5 N1 1.389 . S
C5 C4 1.351 . S
C5 H10 0.930 . S
O6 Cu0 1.974 . S
O6 C16 1.282 . S
C7 O8 1.261 . S
C7 O20 1.251 . S
O8 C7 1.261 . S
H9 C3 0.930 . S
H10 C5 0.930 . S
N11 Cu0 1.985 . S
N11 C13 1.335 . S
N11 C14 1.390 . S
N12 C13 1.345 . S
N12 C15 1.336 . S
C13 N11 1.335 . S
C13 N12 1.345 . S
C13 H18 0.930 . S
C14 N11 1.390 . S
C14 C15 1.346 . S
C14 H19 0.930 . S
C15 N12 1.336 . S
C15 C14 1.346 . S
C15 H22 0.929 . S
C16 O6 1.282 . S
C16 O17 1.216 . S
O17 C16 1.216 . S
H18 C13 0.930 . S
H19 C14 0.930 . S
O20 Cu0 1.959 . S
O20 C7 1.251 . S
H21 C4 0.930 . S
H22 C15 0.929 . S
Cu23 N24 1.999 . S
Cu23 O29 1.974 . S
Cu23 N34 1.985 . S
Cu23 O43 1.959 . S
N24 Cu23 1.999 . S
N24 C26 1.263 . S
N24 C28 1.389 . S
N25 C26 1.358 . S
N25 C27 1.400 . S
C26 N24 1.263 . S
C26 N25 1.358 . S
C26 H32 0.930 . S
C27 N25 1.400 . S
C27 C28 1.351 . S
C27 H44 0.930 . S
C28 N24 1.389 . S
C28 C27 1.351 . S
C28 H33 0.930 . S
O29 Cu23 1.974 . S
O29 C39 1.282 . S
C30 O31 1.261 . S
C30 O43 1.251 . S
O31 C30 1.261 . S
H32 C26 0.930 . S
H33 C28 0.930 . S
N34 Cu23 1.985 . S
N34 C36 1.335 . S
N34 C37 1.390 . S
N35 C36 1.345 . S
N35 C38 1.336 . S
C36 N34 1.335 . S
C36 N35 1.345 . S
C36 H41 0.930 . S
C37 N34 1.390 . S
C37 C38 1.346 . S
C37 H42 0.930 . S
C38 N35 1.336 . S
C38 C37 1.346 . S
C38 H45 0.929 . S
C39 O29 1.282 . S
C39 O40 1.216 . S
O40 C39 1.216 . S
H41 C36 0.930 . S
H42 C37 0.930 . S
O43 Cu23 1.959 . S
O43 C30 1.251 . S
H44 C27 0.930 . S
H45 C38 0.929 . S
Cu46 N47 1.999 . S
Cu46 O52 1.974 . S
Cu46 N57 1.985 . S
Cu46 O66 1.959 . S
N47 Cu46 1.999 . S
N47 C49 1.263 . S
N47 C51 1.389 . S
N48 C49 1.358 . S
N48 C50 1.400 . S
C49 N47 1.263 . S
C49 N48 1.358 . S
C49 H55 0.930 . S
C50 N48 1.400 . S
C50 C51 1.351 . S
C50 H67 0.930 . S
C51 N47 1.389 . S
C51 C50 1.351 . S
C51 H56 0.930 . S
O52 Cu46 1.974 . S
O52 C62 1.282 . S
C53 O54 1.261 . S
C53 O66 1.251 . S
O54 C53 1.261 . S
H55 C49 0.930 . S
H56 C51 0.930 . S
N57 Cu46 1.985 . S
N57 C59 1.335 . S
N57 C60 1.390 . S
N58 C59 1.345 . S
N58 C61 1.336 . S
C59 N57 1.335 . S
C59 N58 1.345 . S
C59 H64 0.930 . S
C60 N57 1.390 . S
C60 C61 1.346 . S
C60 H65 0.930 . S
C61 N58 1.336 . S
C61 C60 1.346 . S
C61 H68 0.929 . S
C62 O52 1.282 . S
C62 O63 1.216 . S
O63 C62 1.216 . S
H64 C59 0.930 . S
H65 C60 0.930 . S
O66 Cu46 1.959 . S
O66 C53 1.251 . S
H67 C50 0.930 . S
H68 C61 0.929 . S
Cu69 N70 1.999 . S
Cu69 O75 1.974 . S
Cu69 N80 1.985 . S
Cu69 O89 1.959 . S
N70 Cu69 1.999 . S
N70 C72 1.263 . S
N70 C74 1.389 . S
N71 C72 1.358 . S
N71 C73 1.400 . S
C72 N70 1.263 . S
C72 N71 1.358 . S
C72 H78 0.930 . S
C73 N71 1.400 . S
C73 C74 1.351 . S
C73 H90 0.930 . S
C74 N70 1.389 . S
C74 C73 1.351 . S
C74 H79 0.930 . S
O75 Cu69 1.974 . S
O75 C85 1.282 . S
C76 O77 1.261 . S
C76 O89 1.251 . S
O77 C76 1.261 . S
H78 C72 0.930 . S
H79 C74 0.930 . S
N80 Cu69 1.985 . S
N80 C82 1.335 . S
N80 C83 1.390 . S
N81 C82 1.345 . S
N81 C84 1.336 . S
C82 N80 1.335 . S
C82 N81 1.345 . S
C82 H87 0.930 . S
C83 N80 1.390 . S
C83 C84 1.346 . S
C83 H88 0.930 . S
C84 N81 1.336 . S
C84 C83 1.346 . S
C84 H91 0.929 . S
C85 O75 1.282 . S
C85 O86 1.216 . S
O86 C85 1.216 . S
H87 C82 0.930 . S
H88 C83 0.930 . S
O89 Cu69 1.959 . S
O89 C76 1.251 . S
H90 C73 0.930 . S
H91 C84 0.929 . S
Cu92 N93 1.999 . S
Cu92 O98 1.974 . S
Cu92 N103 1.985 . S
Cu92 O112 1.959 . S
N93 Cu92 1.999 . S
N93 C95 1.263 . S
N93 C97 1.389 . S
N94 C95 1.358 . S
N94 C96 1.400 . S
C95 N93 1.263 . S
C95 N94 1.358 . S
C95 H101 0.930 . S
C96 N94 1.400 . S
C96 C97 1.351 . S
C96 H113 0.930 . S
C97 N93 1.389 . S
C97 C96 1.351 . S
C97 H102 0.930 . S
O98 Cu92 1.974 . S
O98 C108 1.282 . S
C99 O100 1.261 . S
C99 O112 1.251 . S
O100 C99 1.261 . S
H101 C95 0.930 . S
H102 C97 0.930 . S
N103 Cu92 1.985 . S
N103 C105 1.335 . S
N103 C106 1.390 . S
N104 C105 1.345 . S
N104 C107 1.336 . S
C105 N103 1.335 . S
C105 N104 1.345 . S
C105 H110 0.930 . S
C106 N103 1.390 . S
C106 C107 1.346 . S
C106 H111 0.930 . S
C107 N104 1.336 . S
C107 C106 1.346 . S
C107 H114 0.929 . S
C108 O98 1.282 . S
C108 O109 1.216 . S
O109 C108 1.216 . S
H110 C105 0.930 . S
H111 C106 0.930 . S
O112 Cu92 1.959 . S
O112 C99 1.251 . S
H113 C96 0.930 . S
H114 C107 0.929 . S
Cu115 N116 1.999 . S
Cu115 O121 1.974 . S
Cu115 N126 1.985 . S
Cu115 O135 1.959 . S
N116 Cu115 1.999 . S
N116 C118 1.263 . S
N116 C120 1.389 . S
N117 C118 1.358 . S
N117 C119 1.400 . S
C118 N116 1.263 . S
C118 N117 1.358 . S
C118 H124 0.930 . S
C119 N117 1.400 . S
C119 C120 1.351 . S
C119 H136 0.930 . S
C120 N116 1.389 . S
C120 C119 1.351 . S
C120 H125 0.930 . S
O121 Cu115 1.974 . S
O121 C131 1.282 . S
C122 O123 1.261 . S
C122 O135 1.251 . S
O123 C122 1.261 . S
H124 C118 0.930 . S
H125 C120 0.930 . S
N126 Cu115 1.985 . S
N126 C128 1.335 . S
N126 C129 1.390 . S
N127 C128 1.345 . S
N127 C130 1.336 . S
C128 N126 1.335 . S
C128 N127 1.345 . S
C128 H133 0.930 . S
C129 N126 1.390 . S
C129 C130 1.346 . S
C129 H134 0.930 . S
C130 N127 1.336 . S
C130 C129 1.346 . S
C130 H137 0.929 . S
C131 O121 1.282 . S
C131 O132 1.216 . S
O132 C131 1.216 . S
H133 C128 0.930 . S
H134 C129 0.930 . S
O135 Cu115 1.959 . S
O135 C122 1.251 . S
H136 C119 0.930 . S
H137 C130 0.929 . S
Cu138 N139 1.999 . S
Cu138 O144 1.974 . S
Cu138 N149 1.985 . S
Cu138 O158 1.959 . S
N139 Cu138 1.999 . S
N139 C141 1.263 . S
N139 C143 1.389 . S
N140 C141 1.358 . S
N140 C142 1.400 . S
C141 N139 1.263 . S
C141 N140 1.358 . S
C141 H147 0.930 . S
C142 N140 1.400 . S
C142 C143 1.351 . S
C142 H159 0.930 . S
C143 N139 1.389 . S
C143 C142 1.351 . S
C143 H148 0.930 . S
O144 Cu138 1.974 . S
O144 C154 1.282 . S
C145 O146 1.261 . S
C145 O158 1.251 . S
O146 C145 1.261 . S
H147 C141 0.930 . S
H148 C143 0.930 . S
N149 Cu138 1.985 . S
N149 C151 1.335 . S
N149 C152 1.390 . S
N150 C151 1.345 . S
N150 C153 1.336 . S
C151 N149 1.335 . S
C151 N150 1.345 . S
C151 H156 0.930 . S
C152 N149 1.390 . S
C152 C153 1.346 . S
C152 H157 0.930 . S
C153 N150 1.336 . S
C153 C152 1.346 . S
C153 H160 0.929 . S
C154 O144 1.282 . S
C154 O155 1.216 . S
O155 C154 1.216 . S
H156 C151 0.930 . S
H157 C152 0.930 . S
O158 Cu138 1.959 . S
O158 C145 1.251 . S
H159 C142 0.930 . S
H160 C153 0.929 . S
Cu161 N162 1.999 . S
Cu161 O167 1.974 . S
Cu161 N172 1.985 . S
Cu161 O181 1.959 . S
N162 Cu161 1.999 . S
N162 C164 1.263 . S
N162 C166 1.389 . S
N163 C164 1.358 . S
N163 C165 1.400 . S
C164 N162 1.263 . S
C164 N163 1.358 . S
C164 H170 0.930 . S
C165 N163 1.400 . S
C165 C166 1.351 . S
C165 H182 0.930 . S
C166 N162 1.389 . S
C166 C165 1.351 . S
C166 H171 0.930 . S
O167 Cu161 1.974 . S
O167 C177 1.282 . S
C168 O169 1.261 . S
C168 O181 1.251 . S
O169 C168 1.261 . S
H170 C164 0.930 . S
H171 C166 0.930 . S
N172 Cu161 1.985 . S
N172 C174 1.335 . S
N172 C175 1.390 . S
N173 C174 1.345 . S
N173 C176 1.336 . S
C174 N172 1.335 . S
C174 N173 1.345 . S
C174 H179 0.930 . S
C175 N172 1.390 . S
C175 C176 1.346 . S
C175 H180 0.930 . S
C176 N173 1.336 . S
C176 C175 1.346 . S
C176 H183 0.929 . S
C177 O167 1.282 . S
C177 O178 1.216 . S
O178 C177 1.216 . S
H179 C174 0.930 . S
H180 C175 0.930 . S
O181 Cu161 1.959 . S
O181 C168 1.251 . S
H182 C165 0.930 . S
H183 C176 0.929 . S
Cu184 N185 1.999 . S
Cu184 O190 1.974 . S
Cu184 N195 1.985 . S
Cu184 O204 1.959 . S
N185 Cu184 1.999 . S
N185 C187 1.263 . S
N185 C189 1.389 . S
N186 C187 1.358 . S
N186 C188 1.400 . S
C187 N185 1.263 . S
C187 N186 1.358 . S
C187 H193 0.930 . S
C188 N186 1.400 . S
C188 C189 1.351 . S
C188 H205 0.930 . S
C189 N185 1.389 . S
C189 C188 1.351 . S
C189 H194 0.930 . S
O190 Cu184 1.974 . S
O190 C200 1.282 . S
C191 O192 1.261 . S
C191 O204 1.251 . S
O192 C191 1.261 . S
H193 C187 0.930 . S
H194 C189 0.930 . S
N195 Cu184 1.985 . S
N195 C197 1.335 . S
N195 C198 1.390 . S
N196 C197 1.345 . S
N196 C199 1.336 . S
C197 N195 1.335 . S
C197 N196 1.345 . S
C197 H202 0.930 . S
C198 N195 1.390 . S
C198 C199 1.346 . S
C198 H203 0.930 . S
C199 N196 1.336 . S
C199 C198 1.346 . S
C199 H206 0.929 . S
C200 O190 1.282 . S
C200 O201 1.216 . S
O201 C200 1.216 . S
H202 C197 0.930 . S
H203 C198 0.930 . S
O204 Cu184 1.959 . S
O204 C191 1.251 . S
H205 C188 0.930 . S
H206 C199 0.929 . S
Cu207 N208 1.999 . S
Cu207 O213 1.974 . S
Cu207 N218 1.985 . S
Cu207 O227 1.959 . S
N208 Cu207 1.999 . S
N208 C210 1.263 . S
N208 C212 1.389 . S
N209 C210 1.358 . S
N209 C211 1.400 . S
C210 N208 1.263 . S
C210 N209 1.358 . S
C210 H216 0.930 . S
C211 N209 1.400 . S
C211 C212 1.351 . S
C211 H228 0.930 . S
C212 N208 1.389 . S
C212 C211 1.351 . S
C212 H217 0.930 . S
O213 Cu207 1.974 . S
O213 C223 1.282 . S
C214 O215 1.261 . S
C214 O227 1.251 . S
O215 C214 1.261 . S
H216 C210 0.930 . S
H217 C212 0.930 . S
N218 Cu207 1.985 . S
N218 C220 1.335 . S
N218 C221 1.390 . S
N219 C220 1.345 . S
N219 C222 1.336 . S
C220 N218 1.335 . S
C220 N219 1.345 . S
C220 H225 0.930 . S
C221 N218 1.390 . S
C221 C222 1.346 . S
C221 H226 0.930 . S
C222 N219 1.336 . S
C222 C221 1.346 . S
C222 H229 0.929 . S
C223 O213 1.282 . S
C223 O224 1.216 . S
O224 C223 1.216 . S
H225 C220 0.930 . S
H226 C221 0.930 . S
O227 Cu207 1.959 . S
O227 C214 1.251 . S
H228 C211 0.930 . S
H229 C222 0.929 . S
Cu230 N231 1.999 . S
Cu230 O236 1.974 . S
Cu230 N241 1.985 . S
Cu230 O250 1.959 . S
N231 Cu230 1.999 . S
N231 C233 1.263 . S
N231 C235 1.389 . S
N232 C233 1.358 . S
N232 C234 1.400 . S
C233 N231 1.263 . S
C233 N232 1.358 . S
C233 H239 0.930 . S
C234 N232 1.400 . S
C234 C235 1.351 . S
C234 H251 0.930 . S
C235 N231 1.389 . S
C235 C234 1.351 . S
C235 H240 0.930 . S
O236 Cu230 1.974 . S
O236 C246 1.282 . S
C237 O238 1.261 . S
C237 O250 1.251 . S
O238 C237 1.261 . S
H239 C233 0.930 . S
H240 C235 0.930 . S
N241 Cu230 1.985 . S
N241 C243 1.335 . S
N241 C244 1.390 . S
N242 C243 1.345 . S
N242 C245 1.336 . S
C243 N241 1.335 . S
C243 N242 1.345 . S
C243 H248 0.930 . S
C244 N241 1.390 . S
C244 C245 1.346 . S
C244 H249 0.930 . S
C245 N242 1.336 . S
C245 C244 1.346 . S
C245 H252 0.929 . S
C246 O236 1.282 . S
C246 O247 1.216 . S
O247 C246 1.216 . S
H248 C243 0.930 . S
H249 C244 0.930 . S
O250 Cu230 1.959 . S
O250 C237 1.251 . S
H251 C234 0.930 . S
H252 C245 0.929 . S
Cu253 N254 1.999 . S
Cu253 O259 1.974 . S
Cu253 N264 1.985 . S
Cu253 O273 1.959 . S
N254 Cu253 1.999 . S
N254 C256 1.263 . S
N254 C258 1.389 . S
N255 C256 1.358 . S
N255 C257 1.400 . S
C256 N254 1.263 . S
C256 N255 1.358 . S
C256 H262 0.930 . S
C257 N255 1.400 . S
C257 C258 1.351 . S
C257 H274 0.930 . S
C258 N254 1.389 . S
C258 C257 1.351 . S
C258 H263 0.930 . S
O259 Cu253 1.974 . S
O259 C269 1.282 . S
C260 O261 1.261 . S
C260 O273 1.251 . S
O261 C260 1.261 . S
H262 C256 0.930 . S
H263 C258 0.930 . S
N264 Cu253 1.985 . S
N264 C266 1.335 . S
N264 C267 1.390 . S
N265 C266 1.345 . S
N265 C268 1.336 . S
C266 N264 1.335 . S
C266 N265 1.345 . S
C266 H271 0.930 . S
C267 N264 1.390 . S
C267 C268 1.346 . S
C267 H272 0.930 . S
C268 N265 1.336 . S
C268 C267 1.346 . S
C268 H275 0.929 . S
C269 O259 1.282 . S
C269 O270 1.216 . S
O270 C269 1.216 . S
H271 C266 0.930 . S
H272 C267 0.930 . S
O273 Cu253 1.959 . S
O273 C260 1.251 . S
H274 C257 0.930 . S
H275 C268 0.929 . S
Cu276 N277 1.999 . S
Cu276 O282 1.974 . S
Cu276 N287 1.985 . S
Cu276 O296 1.959 . S
N277 Cu276 1.999 . S
N277 C279 1.263 . S
N277 C281 1.389 . S
N278 C279 1.358 . S
N278 C280 1.400 . S
C279 N277 1.263 . S
C279 N278 1.358 . S
C279 H285 0.930 . S
C280 N278 1.400 . S
C280 C281 1.351 . S
C280 H297 0.930 . S
C281 N277 1.389 . S
C281 C280 1.351 . S
C281 H286 0.930 . S
O282 Cu276 1.974 . S
O282 C292 1.282 . S
C283 O284 1.261 . S
C283 O296 1.251 . S
O284 C283 1.261 . S
H285 C279 0.930 . S
H286 C281 0.930 . S
N287 Cu276 1.985 . S
N287 C289 1.335 . S
N287 C290 1.390 . S
N288 C289 1.345 . S
N288 C291 1.336 . S
C289 N287 1.335 . S
C289 N288 1.345 . S
C289 H294 0.930 . S
C290 N287 1.390 . S
C290 C291 1.346 . S
C290 H295 0.930 . S
C291 N288 1.336 . S
C291 C290 1.346 . S
C291 H298 0.929 . S
C292 O282 1.282 . S
C292 O293 1.216 . S
O293 C292 1.216 . S
H294 C289 0.930 . S
H295 C290 0.930 . S
O296 Cu276 1.959 . S
O296 C283 1.251 . S
H297 C280 0.930 . S
H298 C291 0.929 . S
Cu299 N300 1.999 . S
Cu299 O305 1.974 . S
Cu299 N310 1.985 . S
Cu299 O319 1.959 . S
N300 Cu299 1.999 . S
N300 C302 1.263 . S
N300 C304 1.389 . S
N301 C302 1.358 . S
N301 C303 1.400 . S
C302 N300 1.263 . S
C302 N301 1.358 . S
C302 H308 0.930 . S
C303 N301 1.400 . S
C303 C304 1.351 . S
C303 H320 0.930 . S
C304 N300 1.389 . S
C304 C303 1.351 . S
C304 H309 0.930 . S
O305 Cu299 1.974 . S
O305 C315 1.282 . S
C306 O307 1.261 . S
C306 O319 1.251 . S
O307 C306 1.261 . S
H308 C302 0.930 . S
H309 C304 0.930 . S
N310 Cu299 1.985 . S
N310 C312 1.335 . S
N310 C313 1.390 . S
N311 C312 1.345 . S
N311 C314 1.336 . S
C312 N310 1.335 . S
C312 N311 1.345 . S
C312 H317 0.930 . S
C313 N310 1.390 . S
C313 C314 1.346 . S
C313 H318 0.930 . S
C314 N311 1.336 . S
C314 C313 1.346 . S
C314 H321 0.929 . S
C315 O305 1.282 . S
C315 O316 1.216 . S
O316 C315 1.216 . S
H317 C312 0.930 . S
H318 C313 0.930 . S
O319 Cu299 1.959 . S
O319 C306 1.251 . S
H320 C303 0.930 . S
H321 C314 0.929 . S
Cu322 N323 1.999 . S
Cu322 O328 1.974 . S
Cu322 N333 1.985 . S
Cu322 O342 1.959 . S
N323 Cu322 1.999 . S
N323 C325 1.263 . S
N323 C327 1.389 . S
N324 C325 1.358 . S
N324 C326 1.400 . S
C325 N323 1.263 . S
C325 N324 1.358 . S
C325 H331 0.930 . S
C326 N324 1.400 . S
C326 C327 1.351 . S
C326 H343 0.930 . S
C327 N323 1.389 . S
C327 C326 1.351 . S
C327 H332 0.930 . S
O328 Cu322 1.974 . S
O328 C338 1.282 . S
C329 O330 1.261 . S
C329 O342 1.251 . S
O330 C329 1.261 . S
H331 C325 0.930 . S
H332 C327 0.930 . S
N333 Cu322 1.985 . S
N333 C335 1.335 . S
N333 C336 1.390 . S
N334 C335 1.345 . S
N334 C337 1.336 . S
C335 N333 1.335 . S
C335 N334 1.345 . S
C335 H340 0.930 . S
C336 N333 1.390 . S
C336 C337 1.346 . S
C336 H341 0.930 . S
C337 N334 1.336 . S
C337 C336 1.346 . S
C337 H344 0.929 . S
C338 O328 1.282 . S
C338 O339 1.216 . S
O339 C338 1.216 . S
H340 C335 0.930 . S
H341 C336 0.930 . S
O342 Cu322 1.959 . S
O342 C329 1.251 . S
H343 C326 0.930 . S
H344 C337 0.929 . S
Cu345 N346 1.999 . S
Cu345 O351 1.974 . S
Cu345 N356 1.985 . S
Cu345 O365 1.959 . S
N346 Cu345 1.999 . S
N346 C348 1.263 . S
N346 C350 1.389 . S
N347 C348 1.358 . S
N347 C349 1.400 . S
C348 N346 1.263 . S
C348 N347 1.358 . S
C348 H354 0.930 . S
C349 N347 1.400 . S
C349 C350 1.351 . S
C349 H366 0.930 . S
C350 N346 1.389 . S
C350 C349 1.351 . S
C350 H355 0.930 . S
O351 Cu345 1.974 . S
O351 C361 1.282 . S
C352 O353 1.261 . S
C352 O365 1.251 . S
O353 C352 1.261 . S
H354 C348 0.930 . S
H355 C350 0.930 . S
N356 Cu345 1.985 . S
N356 C358 1.335 . S
N356 C359 1.390 . S
N357 C358 1.345 . S
N357 C360 1.336 . S
C358 N356 1.335 . S
C358 N357 1.345 . S
C358 H363 0.930 . S
C359 N356 1.390 . S
C359 C360 1.346 . S
C359 H364 0.930 . S
C360 N357 1.336 . S
C360 C359 1.346 . S
C360 H367 0.929 . S
C361 O351 1.282 . S
C361 O362 1.216 . S
O362 C361 1.216 . S
H363 C358 0.930 . S
H364 C359 0.930 . S
O365 Cu345 1.959 . S
O365 C352 1.251 . S
H366 C349 0.930 . S
H367 C360 0.929 . S
Cu368 N369 1.999 . S
Cu368 O374 1.974 . S
Cu368 N379 1.985 . S
Cu368 O388 1.959 . S
N369 Cu368 1.999 . S
N369 C371 1.263 . S
N369 C373 1.389 . S
N370 C371 1.358 . S
N370 C372 1.400 . S
C371 N369 1.263 . S
C371 N370 1.358 . S
C371 H377 0.930 . S
C372 N370 1.400 . S
C372 C373 1.351 . S
C372 H389 0.930 . S
C373 N369 1.389 . S
C373 C372 1.351 . S
C373 H378 0.930 . S
O374 Cu368 1.974 . S
O374 C384 1.282 . S
C375 O376 1.261 . S
C375 O388 1.251 . S
O376 C375 1.261 . S
H377 C371 0.930 . S
H378 C373 0.930 . S
N379 Cu368 1.985 . S
N379 C381 1.335 . S
N379 C382 1.390 . S
N380 C381 1.345 . S
N380 C383 1.336 . S
C381 N379 1.335 . S
C381 N380 1.345 . S
C381 H386 0.930 . S
C382 N379 1.390 . S
C382 C383 1.346 . S
C382 H387 0.930 . S
C383 N380 1.336 . S
C383 C382 1.346 . S
C383 H390 0.929 . S
C384 O374 1.282 . S
C384 O385 1.216 . S
O385 C384 1.216 . S
H386 C381 0.930 . S
H387 C382 0.930 . S
O388 Cu368 1.959 . S
O388 C375 1.251 . S
H389 C372 0.930 . S
H390 C383 0.929 . S
Cu391 N392 1.999 . S
Cu391 O397 1.974 . S
Cu391 N402 1.985 . S
Cu391 O411 1.959 . S
N392 Cu391 1.999 . S
N392 C394 1.263 . S
N392 C396 1.389 . S
N393 C394 1.358 . S
N393 C395 1.400 . S
C394 N392 1.263 . S
C394 N393 1.358 . S
C394 H400 0.930 . S
C395 N393 1.400 . S
C395 C396 1.351 . S
C395 H412 0.930 . S
C396 N392 1.389 . S
C396 C395 1.351 . S
C396 H401 0.930 . S
O397 Cu391 1.974 . S
O397 C407 1.282 . S
C398 O399 1.261 . S
C398 O411 1.251 . S
O399 C398 1.261 . S
H400 C394 0.930 . S
H401 C396 0.930 . S
N402 Cu391 1.985 . S
N402 C404 1.335 . S
N402 C405 1.390 . S
N403 C404 1.345 . S
N403 C406 1.336 . S
C404 N402 1.335 . S
C404 N403 1.345 . S
C404 H409 0.930 . S
C405 N402 1.390 . S
C405 C406 1.346 . S
C405 H410 0.930 . S
C406 N403 1.336 . S
C406 C405 1.346 . S
C406 H413 0.929 . S
C407 O397 1.282 . S
C407 O408 1.216 . S
O408 C407 1.216 . S
H409 C404 0.930 . S
H410 C405 0.930 . S
O411 Cu391 1.959 . S
O411 C398 1.251 . S
H412 C395 0.930 . S
H413 C406 0.929 . S
Cu414 N415 1.999 . S
Cu414 O420 1.974 . S
Cu414 N425 1.985 . S
Cu414 O434 1.959 . S
N415 Cu414 1.999 . S
N415 C417 1.263 . S
N415 C419 1.389 . S
N416 C417 1.358 . S
N416 C418 1.400 . S
C417 N415 1.263 . S
C417 N416 1.358 . S
C417 H423 0.930 . S
C418 N416 1.400 . S
C418 C419 1.351 . S
C418 H435 0.930 . S
C419 N415 1.389 . S
C419 C418 1.351 . S
C419 H424 0.930 . S
O420 Cu414 1.974 . S
O420 C430 1.282 . S
C421 O422 1.261 . S
C421 O434 1.251 . S
O422 C421 1.261 . S
H423 C417 0.930 . S
H424 C419 0.930 . S
N425 Cu414 1.985 . S
N425 C427 1.335 . S
N425 C428 1.390 . S
N426 C427 1.345 . S
N426 C429 1.336 . S
C427 N425 1.335 . S
C427 N426 1.345 . S
C427 H432 0.930 . S
C428 N425 1.390 . S
C428 C429 1.346 . S
C428 H433 0.930 . S
C429 N426 1.336 . S
C429 C428 1.346 . S
C429 H436 0.929 . S
C430 O420 1.282 . S
C430 O431 1.216 . S
O431 C430 1.216 . S
H432 C427 0.930 . S
H433 C428 0.930 . S
O434 Cu414 1.959 . S
O434 C421 1.251 . S
H435 C418 0.930 . S
H436 C429 0.929 . S
Cu437 N438 1.999 . S
Cu437 O443 1.974 . S
Cu437 N448 1.985 . S
Cu437 O457 1.959 . S
N438 Cu437 1.999 . S
N438 C440 1.263 . S
N438 C442 1.389 . S
N439 C440 1.358 . S
N439 C441 1.400 . S
C440 N438 1.263 . S
C440 N439 1.358 . S
C440 H446 0.930 . S
C441 N439 1.400 . S
C441 C442 1.351 . S
C441 H458 0.930 . S
C442 N438 1.389 . S
C442 C441 1.351 . S
C442 H447 0.930 . S
O443 Cu437 1.974 . S
O443 C453 1.282 . S
C444 O445 1.261 . S
C444 O457 1.251 . S
O445 C444 1.261 . S
H446 C440 0.930 . S
H447 C442 0.930 . S
N448 Cu437 1.985 . S
N448 C450 1.335 . S
N448 C451 1.390 . S
N449 C450 1.345 . S
N449 C452 1.336 . S
C450 N448 1.335 . S
C450 N449 1.345 . S
C450 H455 0.930 . S
C451 N448 1.390 . S
C451 C452 1.346 . S
C451 H456 0.930 . S
C452 N449 1.336 . S
C452 C451 1.346 . S
C452 H459 0.929 . S
C453 O443 1.282 . S
C453 O454 1.216 . S
O454 C453 1.216 . S
H455 C450 0.930 . S
H456 C451 0.930 . S
O457 Cu437 1.959 . S
O457 C444 1.251 . S
H458 C441 0.930 . S
H459 C452 0.929 . S
Cu460 N461 1.999 . S
Cu460 O466 1.974 . S
Cu460 N471 1.985 . S
Cu460 O480 1.959 . S
N461 Cu460 1.999 . S
N461 C463 1.263 . S
N461 C465 1.389 . S
N462 C463 1.358 . S
N462 C464 1.400 . S
C463 N461 1.263 . S
C463 N462 1.358 . S
C463 H469 0.930 . S
C464 N462 1.400 . S
C464 C465 1.351 . S
C464 H481 0.930 . S
C465 N461 1.389 . S
C465 C464 1.351 . S
C465 H470 0.930 . S
O466 Cu460 1.974 . S
O466 C476 1.282 . S
C467 O468 1.261 . S
C467 O480 1.251 . S
O468 C467 1.261 . S
H469 C463 0.930 . S
H470 C465 0.930 . S
N471 Cu460 1.985 . S
N471 C473 1.335 . S
N471 C474 1.390 . S
N472 C473 1.345 . S
N472 C475 1.336 . S
C473 N471 1.335 . S
C473 N472 1.345 . S
C473 H478 0.930 . S
C474 N471 1.390 . S
C474 C475 1.346 . S
C474 H479 0.930 . S
C475 N472 1.336 . S
C475 C474 1.346 . S
C475 H482 0.929 . S
C476 O466 1.282 . S
C476 O477 1.216 . S
O477 C476 1.216 . S
H478 C473 0.930 . S
H479 C474 0.930 . S
O480 Cu460 1.959 . S
O480 C467 1.251 . S
H481 C464 0.930 . S
H482 C475 0.929 . S
Cu483 N484 1.999 . S
Cu483 O489 1.974 . S
Cu483 N494 1.985 . S
Cu483 O503 1.959 . S
N484 Cu483 1.999 . S
N484 C486 1.263 . S
N484 C488 1.389 . S
N485 C486 1.358 . S
N485 C487 1.400 . S
C486 N484 1.263 . S
C486 N485 1.358 . S
C486 H492 0.930 . S
C487 N485 1.400 . S
C487 C488 1.351 . S
C487 H504 0.930 . S
C488 N484 1.389 . S
C488 C487 1.351 . S
C488 H493 0.930 . S
O489 Cu483 1.974 . S
O489 C499 1.282 . S
C490 O491 1.261 . S
C490 O503 1.251 . S
O491 C490 1.261 . S
H492 C486 0.930 . S
H493 C488 0.930 . S
N494 Cu483 1.985 . S
N494 C496 1.335 . S
N494 C497 1.390 . S
N495 C496 1.345 . S
N495 C498 1.336 . S
C496 N494 1.335 . S
C496 N495 1.345 . S
C496 H501 0.930 . S
C497 N494 1.390 . S
C497 C498 1.346 . S
C497 H502 0.930 . S
C498 N495 1.336 . S
C498 C497 1.346 . S
C498 H505 0.929 . S
C499 O489 1.282 . S
C499 O500 1.216 . S
O500 C499 1.216 . S
H501 C496 0.930 . S
H502 C497 0.930 . S
O503 Cu483 1.959 . S
O503 C490 1.251 . S
H504 C487 0.930 . S
H505 C498 0.929 . S
Cu506 N507 1.999 . S
Cu506 O512 1.974 . S
Cu506 N517 1.985 . S
Cu506 O526 1.959 . S
N507 Cu506 1.999 . S
N507 C509 1.263 . S
N507 C511 1.389 . S
N508 C509 1.358 . S
N508 C510 1.400 . S
C509 N507 1.263 . S
C509 N508 1.358 . S
C509 H515 0.930 . S
C510 N508 1.400 . S
C510 C511 1.351 . S
C510 H527 0.930 . S
C511 N507 1.389 . S
C511 C510 1.351 . S
C511 H516 0.930 . S
O512 Cu506 1.974 . S
O512 C522 1.282 . S
C513 O514 1.261 . S
C513 O526 1.251 . S
O514 C513 1.261 . S
H515 C509 0.930 . S
H516 C511 0.930 . S
N517 Cu506 1.985 . S
N517 C519 1.335 . S
N517 C520 1.390 . S
N518 C519 1.345 . S
N518 C521 1.336 . S
C519 N517 1.335 . S
C519 N518 1.345 . S
C519 H524 0.930 . S
C520 N517 1.390 . S
C520 C521 1.346 . S
C520 H525 0.930 . S
C521 N518 1.336 . S
C521 C520 1.346 . S
C521 H528 0.929 . S
C522 O512 1.282 . S
C522 O523 1.216 . S
O523 C522 1.216 . S
H524 C519 0.930 . S
H525 C520 0.930 . S
O526 Cu506 1.959 . S
O526 C513 1.251 . S
H527 C510 0.930 . S
H528 C521 0.929 . S
Cu529 N530 1.999 . S
Cu529 O535 1.974 . S
Cu529 N540 1.985 . S
Cu529 O549 1.959 . S
N530 Cu529 1.999 . S
N530 C532 1.263 . S
N530 C534 1.389 . S
N531 C532 1.358 . S
N531 C533 1.400 . S
C532 N530 1.263 . S
C532 N531 1.358 . S
C532 H538 0.930 . S
C533 N531 1.400 . S
C533 C534 1.351 . S
C533 H550 0.930 . S
C534 N530 1.389 . S
C534 C533 1.351 . S
C534 H539 0.930 . S
O535 Cu529 1.974 . S
O535 C545 1.282 . S
C536 O537 1.261 . S
C536 O549 1.251 . S
O537 C536 1.261 . S
H538 C532 0.930 . S
H539 C534 0.930 . S
N540 Cu529 1.985 . S
N540 C542 1.335 . S
N540 C543 1.390 . S
N541 C542 1.345 . S
N541 C544 1.336 . S
C542 N540 1.335 . S
C542 N541 1.345 . S
C542 H547 0.930 . S
C543 N540 1.390 . S
C543 C544 1.346 . S
C543 H548 0.930 . S
C544 N541 1.336 . S
C544 C543 1.346 . S
C544 H551 0.929 . S
C545 O535 1.282 . S
C545 O546 1.216 . S
O546 C545 1.216 . S
H547 C542 0.930 . S
H548 C543 0.930 . S
O549 Cu529 1.959 . S
O549 C536 1.251 . S
H550 C533 0.930 . S
H551 C544 0.929 . S
Cu552 N553 1.999 . S
Cu552 O558 1.974 . S
Cu552 N563 1.985 . S
Cu552 O572 1.959 . S
N553 Cu552 1.999 . S
N553 C555 1.263 . S
N553 C557 1.389 . S
N554 C555 1.358 . S
N554 C556 1.400 . S
C555 N553 1.263 . S
C555 N554 1.358 . S
C555 H561 0.930 . S
C556 N554 1.400 . S
C556 C557 1.351 . S
C556 H573 0.930 . S
C557 N553 1.389 . S
C557 C556 1.351 . S
C557 H562 0.930 . S
O558 Cu552 1.974 . S
O558 C568 1.282 . S
C559 O560 1.261 . S
C559 O572 1.251 . S
O560 C559 1.261 . S
H561 C555 0.930 . S
H562 C557 0.930 . S
N563 Cu552 1.985 . S
N563 C565 1.335 . S
N563 C566 1.390 . S
N564 C565 1.345 . S
N564 C567 1.336 . S
C565 N563 1.335 . S
C565 N564 1.345 . S
C565 H570 0.930 . S
C566 N563 1.390 . S
C566 C567 1.346 . S
C566 H571 0.930 . S
C567 N564 1.336 . S
C567 C566 1.346 . S
C567 H574 0.929 . S
C568 O558 1.282 . S
C568 O569 1.216 . S
O569 C568 1.216 . S
H570 C565 0.930 . S
H571 C566 0.930 . S
O572 Cu552 1.959 . S
O572 C559 1.251 . S
H573 C556 0.930 . S
H574 C567 0.929 . S
Cu575 N576 1.999 . S
Cu575 O581 1.974 . S
Cu575 N586 1.985 . S
Cu575 O595 1.959 . S
N576 Cu575 1.999 . S
N576 C578 1.263 . S
N576 C580 1.389 . S
N577 C578 1.358 . S
N577 C579 1.400 . S
C578 N576 1.263 . S
C578 N577 1.358 . S
C578 H584 0.930 . S
C579 N577 1.400 . S
C579 C580 1.351 . S
C579 H596 0.930 . S
C580 N576 1.389 . S
C580 C579 1.351 . S
C580 H585 0.930 . S
O581 Cu575 1.974 . S
O581 C591 1.282 . S
C582 O583 1.261 . S
C582 O595 1.251 . S
O583 C582 1.261 . S
H584 C578 0.930 . S
H585 C580 0.930 . S
N586 Cu575 1.985 . S
N586 C588 1.335 . S
N586 C589 1.390 . S
N587 C588 1.345 . S
N587 C590 1.336 . S
C588 N586 1.335 . S
C588 N587 1.345 . S
C588 H593 0.930 . S
C589 N586 1.390 . S
C589 C590 1.346 . S
C589 H594 0.930 . S
C590 N587 1.336 . S
C590 C589 1.346 . S
C590 H597 0.929 . S
C591 O581 1.282 . S
C591 O592 1.216 . S
O592 C591 1.216 . S
H593 C588 0.930 . S
H594 C589 0.930 . S
O595 Cu575 1.959 . S
O595 C582 1.251 . S
H596 C579 0.930 . S
H597 C590 0.929 . S
Cu598 N599 1.999 . S
Cu598 O604 1.974 . S
Cu598 N609 1.985 . S
Cu598 O618 1.959 . S
N599 Cu598 1.999 . S
N599 C601 1.263 . S
N599 C603 1.389 . S
N600 C601 1.358 . S
N600 C602 1.400 . S
C601 N599 1.263 . S
C601 N600 1.358 . S
C601 H607 0.930 . S
C602 N600 1.400 . S
C602 C603 1.351 . S
C602 H619 0.930 . S
C603 N599 1.389 . S
C603 C602 1.351 . S
C603 H608 0.930 . S
O604 Cu598 1.974 . S
O604 C614 1.282 . S
C605 O606 1.261 . S
C605 O618 1.251 . S
O606 C605 1.261 . S
H607 C601 0.930 . S
H608 C603 0.930 . S
N609 Cu598 1.985 . S
N609 C611 1.335 . S
N609 C612 1.390 . S
N610 C611 1.345 . S
N610 C613 1.336 . S
C611 N609 1.335 . S
C611 N610 1.345 . S
C611 H616 0.930 . S
C612 N609 1.390 . S
C612 C613 1.346 . S
C612 H617 0.930 . S
C613 N610 1.336 . S
C613 C612 1.346 . S
C613 H620 0.929 . S
C614 O604 1.282 . S
C614 O615 1.216 . S
O615 C614 1.216 . S
H616 C611 0.930 . S
H617 C612 0.930 . S
O618 Cu598 1.959 . S
O618 C605 1.251 . S
H619 C602 0.930 . S
H620 C613 0.929 . S
Cu621 N622 1.999 . S
Cu621 O627 1.974 . S
Cu621 N632 1.985 . S
Cu621 O641 1.959 . S
N622 Cu621 1.999 . S
N622 C624 1.263 . S
N622 C626 1.389 . S
N623 C624 1.358 . S
N623 C625 1.400 . S
C624 N622 1.263 . S
C624 N623 1.358 . S
C624 H630 0.930 . S
C625 N623 1.400 . S
C625 C626 1.351 . S
C625 H642 0.930 . S
C626 N622 1.389 . S
C626 C625 1.351 . S
C626 H631 0.930 . S
O627 Cu621 1.974 . S
O627 C637 1.282 . S
C628 O629 1.261 . S
C628 O641 1.251 . S
O629 C628 1.261 . S
H630 C624 0.930 . S
H631 C626 0.930 . S
N632 Cu621 1.985 . S
N632 C634 1.335 . S
N632 C635 1.390 . S
N633 C634 1.345 . S
N633 C636 1.336 . S
C634 N632 1.335 . S
C634 N633 1.345 . S
C634 H639 0.930 . S
C635 N632 1.390 . S
C635 C636 1.346 . S
C635 H640 0.930 . S
C636 N633 1.336 . S
C636 C635 1.346 . S
C636 H643 0.929 . S
C637 O627 1.282 . S
C637 O638 1.216 . S
O638 C637 1.216 . S
H639 C634 0.930 . S
H640 C635 0.930 . S
O641 Cu621 1.959 . S
O641 C628 1.251 . S
H642 C625 0.930 . S
H643 C636 0.929 . S
Cu644 N645 1.999 . S
Cu644 O650 1.974 . S
Cu644 N655 1.985 . S
Cu644 O664 1.959 . S
N645 Cu644 1.999 . S
N645 C647 1.263 . S
N645 C649 1.389 . S
N646 C647 1.358 . S
N646 C648 1.400 . S
C647 N645 1.263 . S
C647 N646 1.358 . S
C647 H653 0.930 . S
C648 N646 1.400 . S
C648 C649 1.351 . S
C648 H665 0.930 . S
C649 N645 1.389 . S
C649 C648 1.351 . S
C649 H654 0.930 . S
O650 Cu644 1.974 . S
O650 C660 1.282 . S
C651 O652 1.261 . S
C651 O664 1.251 . S
O652 C651 1.261 . S
H653 C647 0.930 . S
H654 C649 0.930 . S
N655 Cu644 1.985 . S
N655 C657 1.335 . S
N655 C658 1.390 . S
N656 C657 1.345 . S
N656 C659 1.336 . S
C657 N655 1.335 . S
C657 N656 1.345 . S
C657 H662 0.930 . S
C658 N655 1.390 . S
C658 C659 1.346 . S
C658 H663 0.930 . S
C659 N656 1.336 . S
C659 C658 1.346 . S
C659 H666 0.929 . S
C660 O650 1.282 . S
C660 O661 1.216 . S
O661 C660 1.216 . S
H662 C657 0.930 . S
H663 C658 0.930 . S
O664 Cu644 1.959 . S
O664 C651 1.251 . S
H665 C648 0.930 . S
H666 C659 0.929 . S
Cu667 N668 1.999 . S
Cu667 O673 1.974 . S
Cu667 N678 1.985 . S
Cu667 O687 1.959 . S
N668 Cu667 1.999 . S
N668 C670 1.263 . S
N668 C672 1.389 . S
N669 C670 1.358 . S
N669 C671 1.400 . S
C670 N668 1.263 . S
C670 N669 1.358 . S
C670 H676 0.930 . S
C671 N669 1.400 . S
C671 C672 1.351 . S
C671 H688 0.930 . S
C672 N668 1.389 . S
C672 C671 1.351 . S
C672 H677 0.930 . S
O673 Cu667 1.974 . S
O673 C683 1.282 . S
C674 O675 1.261 . S
C674 O687 1.251 . S
O675 C674 1.261 . S
H676 C670 0.930 . S
H677 C672 0.930 . S
N678 Cu667 1.985 . S
N678 C680 1.335 . S
N678 C681 1.390 . S
N679 C680 1.345 . S
N679 C682 1.336 . S
C680 N678 1.335 . S
C680 N679 1.345 . S
C680 H685 0.930 . S
C681 N678 1.390 . S
C681 C682 1.346 . S
C681 H686 0.930 . S
C682 N679 1.336 . S
C682 C681 1.346 . S
C682 H689 0.929 . S
C683 O673 1.282 . S
C683 O684 1.216 . S
O684 C683 1.216 . S
H685 C680 0.930 . S
H686 C681 0.930 . S
O687 Cu667 1.959 . S
O687 C674 1.251 . S
H688 C671 0.930 . S
H689 C682 0.929 . S
Cu690 N691 1.999 . S
Cu690 O696 1.974 . S
Cu690 N701 1.985 . S
Cu690 O710 1.959 . S
N691 Cu690 1.999 . S
N691 C693 1.263 . S
N691 C695 1.389 . S
N692 C693 1.358 . S
N692 C694 1.400 . S
C693 N691 1.263 . S
C693 N692 1.358 . S
C693 H699 0.930 . S
C694 N692 1.400 . S
C694 C695 1.351 . S
C694 H711 0.930 . S
C695 N691 1.389 . S
C695 C694 1.351 . S
C695 H700 0.930 . S
O696 Cu690 1.974 . S
O696 C706 1.282 . S
C697 O698 1.261 . S
C697 O710 1.251 . S
O698 C697 1.261 . S
H699 C693 0.930 . S
H700 C695 0.930 . S
N701 Cu690 1.985 . S
N701 C703 1.335 . S
N701 C704 1.390 . S
N702 C703 1.345 . S
N702 C705 1.336 . S
C703 N701 1.335 . S
C703 N702 1.345 . S
C703 H708 0.930 . S
C704 N701 1.390 . S
C704 C705 1.346 . S
C704 H709 0.930 . S
C705 N702 1.336 . S
C705 C704 1.346 . S
C705 H712 0.929 . S
C706 O696 1.282 . S
C706 O707 1.216 . S
O707 C706 1.216 . S
H708 C703 0.930 . S
H709 C704 0.930 . S
O710 Cu690 1.959 . S
O710 C697 1.251 . S
H711 C694 0.930 . S
H712 C705 0.929 . S
Cu713 N714 1.999 . S
Cu713 O719 1.974 . S
Cu713 N724 1.985 . S
Cu713 O733 1.959 . S
N714 Cu713 1.999 . S
N714 C716 1.263 . S
N714 C718 1.389 . S
N715 C716 1.358 . S
N715 C717 1.400 . S
C716 N714 1.263 . S
C716 N715 1.358 . S
C716 H722 0.930 . S
C717 N715 1.400 . S
C717 C718 1.351 . S
C717 H734 0.930 . S
C718 N714 1.389 . S
C718 C717 1.351 . S
C718 H723 0.930 . S
O719 Cu713 1.974 . S
O719 C729 1.282 . S
C720 O721 1.261 . S
C720 O733 1.251 . S
O721 C720 1.261 . S
H722 C716 0.930 . S
H723 C718 0.930 . S
N724 Cu713 1.985 . S
N724 C726 1.335 . S
N724 C727 1.390 . S
N725 C726 1.345 . S
N725 C728 1.336 . S
C726 N724 1.335 . S
C726 N725 1.345 . S
C726 H731 0.930 . S
C727 N724 1.390 . S
C727 C728 1.346 . S
C727 H732 0.930 . S
C728 N725 1.336 . S
C728 C727 1.346 . S
C728 H735 0.929 . S
C729 O719 1.282 . S
C729 O730 1.216 . S
O730 C729 1.216 . S
H731 C726 0.930 . S
H732 C727 0.930 . S
O733 Cu713 1.959 . S
O733 C720 1.251 . S
H734 C717 0.930 . S
H735 C728 0.929 . S
H736 C744 0.950 . S
H737 C749 0.950 . S
H738 C746 0.950 . S
H739 C748 0.950 . S
H740 C750 0.950 . S
H741 C752 0.950 . S
H742 C754 0.950 . S
H743 C755 0.950 . S
C744 H736 0.950 . S
C744 C745 1.386 . S
C744 C746 1.391 . S
C745 C744 1.386 . S
C745 C749 1.393 . S
C746 H738 0.950 . S
C746 C744 1.391 . S
C746 C747 1.400 . S
C747 C746 1.400 . S
C747 C748 1.398 . S
C747 C753 1.491 . S
C748 H739 0.950 . S
C748 C747 1.398 . S
C748 C749 1.391 . S
C749 H737 0.950 . S
C749 C745 1.393 . S
C749 C748 1.391 . S
C750 H740 0.950 . S
C750 C751 1.386 . S
C750 C752 1.391 . S
C751 C750 1.386 . S
C751 C755 1.393 . S
C752 H741 0.950 . S
C752 C750 1.391 . S
C752 C753 1.400 . S
C753 C747 1.491 . S
C753 C752 1.400 . S
C753 C754 1.398 . S
C754 H742 0.950 . S
C754 C753 1.398 . S
C754 C755 1.391 . S
C755 H743 0.950 . S
C755 C751 1.393 . S
C755 C754 1.391 . S
H756 C764 0.950 . S
H757 C769 0.950 . S
H758 C766 0.950 . S
H759 C768 0.950 . S
H760 C770 0.950 . S
H761 C772 0.950 . S
H762 C774 0.950 . S
H763 C775 0.950 . S
C764 H756 0.950 . S
C764 C765 1.386 . S
C764 C766 1.391 . S
C765 C764 1.386 . S
C765 C769 1.393 . S
C766 H758 0.950 . S
C766 C764 1.391 . S
C766 C767 1.400 . S
C767 C766 1.400 . S
C767 C768 1.398 . S
C767 C773 1.491 . S
C768 H759 0.950 . S
C768 C767 1.398 . S
C768 C769 1.391 . S
C769 H757 0.950 . S
C769 C765 1.393 . S
C769 C768 1.391 . S
C770 H760 0.950 . S
C770 C771 1.386 . S
C770 C772 1.391 . S
C771 C770 1.386 . S
C771 C775 1.393 . S
C772 H761 0.950 . S
C772 C770 1.391 . S
C772 C773 1.400 . S
C773 C767 1.491 . S
C773 C772 1.400 . S
C773 C774 1.398 . S
C774 H762 0.950 . S
C774 C773 1.398 . S
C774 C775 1.391 . S
C775 H763 0.950 . S
C775 C771 1.393 . S
C775 C774 1.391 . S
H776 C784 0.950 . S
H777 C789 0.950 . S
H778 C786 0.950 . S
H779 C788 0.950 . S
H780 C790 0.950 . S
H781 C792 0.950 . S
H782 C794 0.950 . S
H783 C795 0.950 . S
C784 H776 0.950 . S
C784 C785 1.386 . S
C784 C786 1.391 . S
C785 C784 1.386 . S
C785 C789 1.393 . S
C786 H778 0.950 . S
C786 C784 1.391 . S
C786 C787 1.400 . S
C787 C786 1.400 . S
C787 C788 1.398 . S
C787 C793 1.491 . S
C788 H779 0.950 . S
C788 C787 1.398 . S
C788 C789 1.391 . S
C789 H777 0.950 . S
C789 C785 1.393 . S
C789 C788 1.391 . S
C790 H780 0.950 . S
C790 C791 1.386 . S
C790 C792 1.391 . S
C791 C790 1.386 . S
C791 C795 1.393 . S
C792 H781 0.950 . S
C792 C790 1.391 . S
C792 C793 1.400 . S
C793 C787 1.491 . S
C793 C792 1.400 . S
C793 C794 1.398 . S
C794 H782 0.950 . S
C794 C793 1.398 . S
C794 C795 1.391 . S
C795 H783 0.950 . S
C795 C791 1.393 . S
C795 C794 1.391 . S
H796 C804 0.950 . S
H797 C809 0.950 . S
H798 C806 0.950 . S
H799 C808 0.950 . S
H800 C810 0.950 . S
H801 C812 0.950 . S
H802 C814 0.950 . S
H803 C815 0.950 . S
C804 H796 0.950 . S
C804 C805 1.386 . S
C804 C806 1.391 . S
C805 C804 1.386 . S
C805 C809 1.393 . S
C806 H798 0.950 . S
C806 C804 1.391 . S
C806 C807 1.400 . S
C807 C806 1.400 . S
C807 C808 1.398 . S
C807 C813 1.491 . S
C808 H799 0.950 . S
C808 C807 1.398 . S
C808 C809 1.391 . S
C809 H797 0.950 . S
C809 C805 1.393 . S
C809 C808 1.391 . S
C810 H800 0.950 . S
C810 C811 1.386 . S
C810 C812 1.391 . S
C811 C810 1.386 . S
C811 C815 1.393 . S
C812 H801 0.950 . S
C812 C810 1.391 . S
C812 C813 1.400 . S
C813 C807 1.491 . S
C813 C812 1.400 . S
C813 C814 1.398 . S
C814 H802 0.950 . S
C814 C813 1.398 . S
C814 C815 1.391 . S
C815 H803 0.950 . S
C815 C811 1.393 . S
C815 C814 1.391 . S
H816 C824 0.950 . S
H817 C829 0.950 . S
H818 C826 0.950 . S
H819 C828 0.950 . S
H820 C830 0.950 . S
H821 C832 0.950 . S
H822 C834 0.950 . S
H823 C835 0.950 . S
C824 H816 0.950 . S
C824 C825 1.386 . S
C824 C826 1.391 . S
C825 C824 1.386 . S
C825 C829 1.393 . S
C826 H818 0.950 . S
C826 C824 1.391 . S
C826 C827 1.400 . S
C827 C826 1.400 . S
C827 C828 1.398 . S
C827 C833 1.491 . S
C828 H819 0.950 . S
C828 C827 1.398 . S
C828 C829 1.391 . S
C829 H817 0.950 . S
C829 C825 1.393 . S
C829 C828 1.391 . S
C830 H820 0.950 . S
C830 C831 1.386 . S
C830 C832 1.391 . S
C831 C830 1.386 . S
C831 C835 1.393 . S
C832 H821 0.950 . S
C832 C830 1.391 . S
C832 C833 1.400 . S
C833 C827 1.491 . S
C833 C832 1.400 . S
C833 C834 1.398 . S
C834 H822 0.950 . S
C834 C833 1.398 . S
C834 C835 1.391 . S
C835 H823 0.950 . S
C835 C831 1.393 . S
C835 C834 1.391 . S
H836 C844 0.950 . S
H837 C849 0.950 . S
H838 C846 0.950 . S
H839 C848 0.950 . S
H840 C850 0.950 . S
H841 C852 0.950 . S
H842 C854 0.950 . S
H843 C855 0.950 . S
C844 H836 0.950 . S
C844 C845 1.386 . S
C844 C846 1.391 . S
C845 C844 1.386 . S
C845 C849 1.393 . S
C846 H838 0.950 . S
C846 C844 1.391 . S
C846 C847 1.400 . S
C847 C846 1.400 . S
C847 C848 1.398 . S
C847 C853 1.491 . S
C848 H839 0.950 . S
C848 C847 1.398 . S
C848 C849 1.391 . S
C849 H837 0.950 . S
C849 C845 1.393 . S
C849 C848 1.391 . S
C850 H840 0.950 . S
C850 C851 1.386 . S
C850 C852 1.391 . S
C851 C850 1.386 . S
C851 C855 1.393 . S
C852 H841 0.950 . S
C852 C850 1.391 . S
C852 C853 1.400 . S
C853 C847 1.491 . S
C853 C852 1.400 . S
C853 C854 1.398 . S
C854 H842 0.950 . S
C854 C853 1.398 . S
C854 C855 1.391 . S
C855 H843 0.950 . S
C855 C851 1.393 . S
C855 C854 1.391 . S
H856 C864 0.950 . S
H857 C869 0.950 . S
H858 C866 0.950 . S
H859 C868 0.950 . S
H860 C870 0.950 . S
H861 C872 0.950 . S
H862 C874 0.950 . S
H863 C875 0.950 . S
C864 H856 0.950 . S
C864 C865 1.386 . S
C864 C866 1.391 . S
C865 C864 1.386 . S
C865 C869 1.393 . S
C866 H858 0.950 . S
C866 C864 1.391 . S
C866 C867 1.400 . S
C867 C866 1.400 . S
C867 C868 1.398 . S
C867 C873 1.491 . S
C868 H859 0.950 . S
C868 C867 1.398 . S
C868 C869 1.391 . S
C869 H857 0.950 . S
C869 C865 1.393 . S
C869 C868 1.391 . S
C870 H860 0.950 . S
C870 C871 1.386 . S
C870 C872 1.391 . S
C871 C870 1.386 . S
C871 C875 1.393 . S
C872 H861 0.950 . S
C872 C870 1.391 . S
C872 C873 1.400 . S
C873 C867 1.491 . S
C873 C872 1.400 . S
C873 C874 1.398 . S
C874 H862 0.950 . S
C874 C873 1.398 . S
C874 C875 1.391 . S
C875 H863 0.950 . S
C875 C871 1.393 . S
C875 C874 1.391 . S
H876 C884 0.950 . S
H877 C889 0.950 . S
H878 C886 0.950 . S
H879 C888 0.950 . S
H880 C890 0.950 . S
H881 C892 0.950 . S
H882 C894 0.950 . S
H883 C895 0.950 . S
C884 H876 0.950 . S
C884 C885 1.386 . S
C884 C886 1.391 . S
C885 C884 1.386 . S
C885 C889 1.393 . S
C886 H878 0.950 . S
C886 C884 1.391 . S
C886 C887 1.400 . S
C887 C886 1.400 . S
C887 C888 1.398 . S
C887 C893 1.491 . S
C888 H879 0.950 . S
C888 C887 1.398 . S
C888 C889 1.391 . S
C889 H877 0.950 . S
C889 C885 1.393 . S
C889 C888 1.391 . S
C890 H880 0.950 . S
C890 C891 1.386 . S
C890 C892 1.391 . S
C891 C890 1.386 . S
C891 C895 1.393 . S
C892 H881 0.950 . S
C892 C890 1.391 . S
C892 C893 1.400 . S
C893 C887 1.491 . S
C893 C892 1.400 . S
C893 C894 1.398 . S
C894 H882 0.950 . S
C894 C893 1.398 . S
C894 C895 1.391 . S
C895 H883 0.950 . S
C895 C891 1.393 . S
C895 C894 1.391 . S
H896 C904 0.950 . S
H897 C909 0.950 . S
H898 C906 0.950 . S
H899 C908 0.950 . S
H900 C910 0.950 . S
H901 C912 0.950 . S
H902 C914 0.950 . S
H903 C915 0.950 . S
C904 H896 0.950 . S
C904 C905 1.386 . S
C904 C906 1.391 . S
C905 C904 1.386 . S
C905 C909 1.393 . S
C906 H898 0.950 . S
C906 C904 1.391 . S
C906 C907 1.400 . S
C907 C906 1.400 . S
C907 C908 1.398 . S
C907 C913 1.491 . S
C908 H899 0.950 . S
C908 C907 1.398 . S
C908 C909 1.391 . S
C909 H897 0.950 . S
C909 C905 1.393 . S
C909 C908 1.391 . S
C910 H900 0.950 . S
C910 C911 1.386 . S
C910 C912 1.391 . S
C911 C910 1.386 . S
C911 C915 1.393 . S
C912 H901 0.950 . S
C912 C910 1.391 . S
C912 C913 1.400 . S
C913 C907 1.491 . S
C913 C912 1.400 . S
C913 C914 1.398 . S
C914 H902 0.950 . S
C914 C913 1.398 . S
C914 C915 1.391 . S
C915 H903 0.950 . S
C915 C911 1.393 . S
C915 C914 1.391 . S
H916 C924 0.950 . S
H917 C929 0.950 . S
H918 C926 0.950 . S
H919 C928 0.950 . S
H920 C930 0.950 . S
H921 C932 0.950 . S
H922 C934 0.950 . S
H923 C935 0.950 . S
C924 H916 0.950 . S
C924 C925 1.386 . S
C924 C926 1.391 . S
C925 C924 1.386 . S
C925 C929 1.393 . S
C926 H918 0.950 . S
C926 C924 1.391 . S
C926 C927 1.400 . S
C927 C926 1.400 . S
C927 C928 1.398 . S
C927 C933 1.491 . S
C928 H919 0.950 . S
C928 C927 1.398 . S
C928 C929 1.391 . S
C929 H917 0.950 . S
C929 C925 1.393 . S
C929 C928 1.391 . S
C930 H920 0.950 . S
C930 C931 1.386 . S
C930 C932 1.391 . S
C931 C930 1.386 . S
C931 C935 1.393 . S
C932 H921 0.950 . S
C932 C930 1.391 . S
C932 C933 1.400 . S
C933 C927 1.491 . S
C933 C932 1.400 . S
C933 C934 1.398 . S
C934 H922 0.950 . S
C934 C933 1.398 . S
C934 C935 1.391 . S
C935 H923 0.950 . S
C935 C931 1.393 . S
C935 C934 1.391 . S
H936 C944 0.950 . S
H937 C949 0.950 . S
H938 C946 0.950 . S
H939 C948 0.950 . S
H940 C950 0.950 . S
H941 C952 0.950 . S
H942 C954 0.950 . S
H943 C955 0.950 . S
C944 H936 0.950 . S
C944 C945 1.386 . S
C944 C946 1.391 . S
C945 C944 1.386 . S
C945 C949 1.393 . S
C946 H938 0.950 . S
C946 C944 1.391 . S
C946 C947 1.400 . S
C947 C946 1.400 . S
C947 C948 1.398 . S
C947 C953 1.491 . S
C948 H939 0.950 . S
C948 C947 1.398 . S
C948 C949 1.391 . S
C949 H937 0.950 . S
C949 C945 1.393 . S
C949 C948 1.391 . S
C950 H940 0.950 . S
C950 C951 1.386 . S
C950 C952 1.391 . S
C951 C950 1.386 . S
C951 C955 1.393 . S
C952 H941 0.950 . S
C952 C950 1.391 . S
C952 C953 1.400 . S
C953 C947 1.491 . S
C953 C952 1.400 . S
C953 C954 1.398 . S
C954 H942 0.950 . S
C954 C953 1.398 . S
C954 C955 1.391 . S
C955 H943 0.950 . S
C955 C951 1.393 . S
C955 C954 1.391 . S
H956 C964 0.950 . S
H957 C969 0.950 . S
H958 C966 0.950 . S
H959 C968 0.950 . S
H960 C970 0.950 . S
H961 C972 0.950 . S
H962 C974 0.950 . S
H963 C975 0.950 . S
C964 H956 0.950 . S
C964 C965 1.386 . S
C964 C966 1.391 . S
C965 C964 1.386 . S
C965 C969 1.393 . S
C966 H958 0.950 . S
C966 C964 1.391 . S
C966 C967 1.400 . S
C967 C966 1.400 . S
C967 C968 1.398 . S
C967 C973 1.491 . S
C968 H959 0.950 . S
C968 C967 1.398 . S
C968 C969 1.391 . S
C969 H957 0.950 . S
C969 C965 1.393 . S
C969 C968 1.391 . S
C970 H960 0.950 . S
C970 C971 1.386 . S
C970 C972 1.391 . S
C971 C970 1.386 . S
C971 C975 1.393 . S
C972 H961 0.950 . S
C972 C970 1.391 . S
C972 C973 1.400 . S
C973 C967 1.491 . S
C973 C972 1.400 . S
C973 C974 1.398 . S
C974 H962 0.950 . S
C974 C973 1.398 . S
C974 C975 1.391 . S
C975 H963 0.950 . S
C975 C971 1.393 . S
C975 C974 1.391 . S
H976 C984 0.950 . S
H977 C989 0.950 . S
H978 C986 0.950 . S
H979 C988 0.950 . S
H980 C990 0.950 . S
H981 C992 0.950 . S
H982 C994 0.950 . S
H983 C995 0.950 . S
C984 H976 0.950 . S
C984 C985 1.386 . S
C984 C986 1.391 . S
C985 C984 1.386 . S
C985 C989 1.393 . S
C986 H978 0.950 . S
C986 C984 1.391 . S
C986 C987 1.400 . S
C987 C986 1.400 . S
C987 C988 1.398 . S
C987 C993 1.491 . S
C988 H979 0.950 . S
C988 C987 1.398 . S
C988 C989 1.391 . S
C989 H977 0.950 . S
C989 C985 1.393 . S
C989 C988 1.391 . S
C990 H980 0.950 . S
C990 C991 1.386 . S
C990 C992 1.391 . S
C991 C990 1.386 . S
C991 C995 1.393 . S
C992 H981 0.950 . S
C992 C990 1.391 . S
C992 C993 1.400 . S
C993 C987 1.491 . S
C993 C992 1.400 . S
C993 C994 1.398 . S
C994 H982 0.950 . S
C994 C993 1.398 . S
C994 C995 1.391 . S
C995 H983 0.950 . S
C995 C991 1.393 . S
C995 C994 1.391 . S
H996 C1004 0.950 . S
H997 C1009 0.950 . S
H998 C1006 0.950 . S
H999 C1008 0.950 . S
H1000 C1010 0.950 . S
H1001 C1012 0.950 . S
H1002 C1014 0.950 . S
H1003 C1015 0.950 . S
C1004 H996 0.950 . S
C1004 C1005 1.386 . S
C1004 C1006 1.391 . S
C1005 C1004 1.386 . S
C1005 C1009 1.393 . S
C1006 H998 0.950 . S
C1006 C1004 1.391 . S
C1006 C1007 1.400 . S
C1007 C1006 1.400 . S
C1007 C1008 1.398 . S
C1007 C1013 1.491 . S
C1008 H999 0.950 . S
C1008 C1007 1.398 . S
C1008 C1009 1.391 . S
C1009 H997 0.950 . S
C1009 C1005 1.393 . S
C1009 C1008 1.391 . S
C1010 H1000 0.950 . S
C1010 C1011 1.386 . S
C1010 C1012 1.391 . S
C1011 C1010 1.386 . S
C1011 C1015 1.393 . S
C1012 H1001 0.950 . S
C1012 C1010 1.391 . S
C1012 C1013 1.400 . S
C1013 C1007 1.491 . S
C1013 C1012 1.400 . S
C1013 C1014 1.398 . S
C1014 H1002 0.950 . S
C1014 C1013 1.398 . S
C1014 C1015 1.391 . S
C1015 H1003 0.950 . S
C1015 C1011 1.393 . S
C1015 C1014 1.391 . S
H1016 C1024 0.950 . S
H1017 C1029 0.950 . S
H1018 C1026 0.950 . S
H1019 C1028 0.950 . S
H1020 C1030 0.950 . S
H1021 C1032 0.950 . S
H1022 C1034 0.950 . S
H1023 C1035 0.950 . S
C1024 H1016 0.950 . S
C1024 C1025 1.386 . S
C1024 C1026 1.391 . S
C1025 C1024 1.386 . S
C1025 C1029 1.393 . S
C1026 H1018 0.950 . S
C1026 C1024 1.391 . S
C1026 C1027 1.400 . S
C1027 C1026 1.400 . S
C1027 C1028 1.398 . S
C1027 C1033 1.491 . S
C1028 H1019 0.950 . S
C1028 C1027 1.398 . S
C1028 C1029 1.391 . S
C1029 H1017 0.950 . S
C1029 C1025 1.393 . S
C1029 C1028 1.391 . S
C1030 H1020 0.950 . S
C1030 C1031 1.386 . S
C1030 C1032 1.391 . S
C1031 C1030 1.386 . S
C1031 C1035 1.393 . S
C1032 H1021 0.950 . S
C1032 C1030 1.391 . S
C1032 C1033 1.400 . S
C1033 C1027 1.491 . S
C1033 C1032 1.400 . S
C1033 C1034 1.398 . S
C1034 H1022 0.950 . S
C1034 C1033 1.398 . S
C1034 C1035 1.391 . S
C1035 H1023 0.950 . S
C1035 C1031 1.393 . S
C1035 C1034 1.391 . S
H1036 C1044 0.950 . S
H1037 C1049 0.950 . S
H1038 C1046 0.950 . S
H1039 C1048 0.950 . S
H1040 C1050 0.950 . S
H1041 C1052 0.950 . S
H1042 C1054 0.950 . S
H1043 C1055 0.950 . S
C1044 H1036 0.950 . S
C1044 C1045 1.386 . S
C1044 C1046 1.391 . S
C1045 C1044 1.386 . S
C1045 C1049 1.393 . S
C1046 H1038 0.950 . S
C1046 C1044 1.391 . S
C1046 C1047 1.400 . S
C1047 C1046 1.400 . S
C1047 C1048 1.398 . S
C1047 C1053 1.491 . S
C1048 H1039 0.950 . S
C1048 C1047 1.398 . S
C1048 C1049 1.391 . S
C1049 H1037 0.950 . S
C1049 C1045 1.393 . S
C1049 C1048 1.391 . S
C1050 H1040 0.950 . S
C1050 C1051 1.386 . S
C1050 C1052 1.391 . S
C1051 C1050 1.386 . S
C1051 C1055 1.393 . S
C1052 H1041 0.950 . S
C1052 C1050 1.391 . S
C1052 C1053 1.400 . S
C1053 C1047 1.491 . S
C1053 C1052 1.400 . S
C1053 C1054 1.398 . S
C1054 H1042 0.950 . S
C1054 C1053 1.398 . S
C1054 C1055 1.391 . S
C1055 H1043 0.950 . S
C1055 C1051 1.393 . S
C1055 C1054 1.391 . S
H1056 C1064 0.950 . S
H1057 C1069 0.950 . S
H1058 C1066 0.950 . S
H1059 C1068 0.950 . S
H1060 C1070 0.950 . S
H1061 C1072 0.950 . S
H1062 C1074 0.950 . S
H1063 C1075 0.950 . S
C1064 H1056 0.950 . S
C1064 C1065 1.386 . S
C1064 C1066 1.391 . S
C1065 C1064 1.386 . S
C1065 C1069 1.393 . S
C1066 H1058 0.950 . S
C1066 C1064 1.391 . S
C1066 C1067 1.400 . S
C1067 C1066 1.400 . S
C1067 C1068 1.398 . S
C1067 C1073 1.491 1_655 S
C1068 H1059 0.950 . S
C1068 C1067 1.398 . S
C1068 C1069 1.391 . S
C1069 H1057 0.950 . S
C1069 C1065 1.393 . S
C1069 C1068 1.391 . S
C1070 H1060 0.950 . S
C1070 C1071 1.386 . S
C1070 C1072 1.391 . S
C1071 C1070 1.386 . S
C1071 C1075 1.393 . S
C1072 H1061 0.950 . S
C1072 C1070 1.391 . S
C1072 C1073 1.400 . S
C1073 C1067 1.491 1_455 S
C1073 C1072 1.400 . S
C1073 C1074 1.398 . S
C1074 H1062 0.950 . S
C1074 C1073 1.398 . S
C1074 C1075 1.391 . S
C1075 H1063 0.950 . S
C1075 C1071 1.393 . S
C1075 C1074 1.391 . S
H1076 C1084 0.950 . S
H1077 C1089 0.950 . S
H1078 C1086 0.950 . S
H1079 C1088 0.950 . S
H1080 C1090 0.950 . S
H1081 C1092 0.950 . S
H1082 C1094 0.950 . S
H1083 C1095 0.950 . S
C1084 H1076 0.950 . S
C1084 C1085 1.386 . S
C1084 C1086 1.391 . S
C1085 C1084 1.386 . S
C1085 C1089 1.393 . S
C1086 H1078 0.950 . S
C1086 C1084 1.391 . S
C1086 C1087 1.400 . S
C1087 C1086 1.400 . S
C1087 C1088 1.398 . S
C1087 C1093 1.491 1_545 S
C1088 H1079 0.950 . S
C1088 C1087 1.398 . S
C1088 C1089 1.391 . S
C1089 H1077 0.950 . S
C1089 C1085 1.393 . S
C1089 C1088 1.391 . S
C1090 H1080 0.950 . S
C1090 C1091 1.386 . S
C1090 C1092 1.391 . S
C1091 C1090 1.386 . S
C1091 C1095 1.393 . S
C1092 H1081 0.950 . S
C1092 C1090 1.391 . S
C1092 C1093 1.400 . S
C1093 C1087 1.491 1_565 S
C1093 C1092 1.400 . S
C1093 C1094 1.398 . S
C1094 H1082 0.950 . S
C1094 C1093 1.398 . S
C1094 C1095 1.391 . S
C1095 H1083 0.950 . S
C1095 C1091 1.393 . S
C1095 C1094 1.391 . S
H1096 C1104 0.950 . S
H1097 C1109 0.950 . S
H1098 C1106 0.950 . S
H1099 C1108 0.950 . S
H1100 C1110 0.950 . S
H1101 C1112 0.950 . S
H1102 C1114 0.950 . S
H1103 C1115 0.950 . S
C1104 H1096 0.950 . S
C1104 C1105 1.386 . S
C1104 C1106 1.391 . S
C1105 C1104 1.386 . S
C1105 C1109 1.393 . S
C1106 H1098 0.950 . S
C1106 C1104 1.391 . S
C1106 C1107 1.400 . S
C1107 C1106 1.400 . S
C1107 C1108 1.398 . S
C1107 C1113 1.491 1_455 S
C1108 H1099 0.950 . S
C1108 C1107 1.398 . S
C1108 C1109 1.391 . S
C1109 H1097 0.950 . S
C1109 C1105 1.393 . S
C1109 C1108 1.391 . S
C1110 H1100 0.950 . S
C1110 C1111 1.386 . S
C1110 C1112 1.391 . S
C1111 C1110 1.386 . S
C1111 C1115 1.393 . S
C1112 H1101 0.950 . S
C1112 C1110 1.391 . S
C1112 C1113 1.400 . S
C1113 C1107 1.491 1_655 S
C1113 C1112 1.400 . S
C1113 C1114 1.398 . S
C1114 H1102 0.950 . S
C1114 C1113 1.398 . S
C1114 C1115 1.391 . S
C1115 H1103 0.950 . S
C1115 C1111 1.393 . S
C1115 C1114 1.391 . S
H1116 C1124 0.950 . S
H1117 C1129 0.950 . S
H1118 C1126 0.950 . S
H1119 C1128 0.950 . S
H1120 C1130 0.950 . S
H1121 C1132 0.950 . S
H1122 C1134 0.950 . S
H1123 C1135 0.950 . S
C1124 H1116 0.950 . S
C1124 C1125 1.386 . S
C1124 C1126 1.391 . S
C1125 C1124 1.386 . S
C1125 C1129 1.393 . S
C1126 H1118 0.950 . S
C1126 C1124 1.391 . S
C1126 C1127 1.400 . S
C1127 C1126 1.400 . S
C1127 C1128 1.398 . S
C1127 C1133 1.491 1_565 S
C1128 H1119 0.950 . S
C1128 C1127 1.398 . S
C1128 C1129 1.391 . S
C1129 H1117 0.950 . S
C1129 C1125 1.393 . S
C1129 C1128 1.391 . S
C1130 H1120 0.950 . S
C1130 C1131 1.386 . S
C1130 C1132 1.391 . S
C1131 C1130 1.386 . S
C1131 C1135 1.393 . S
C1132 H1121 0.950 . S
C1132 C1130 1.391 . S
C1132 C1133 1.400 . S
C1133 C1127 1.491 1_545 S
C1133 C1132 1.400 . S
C1133 C1134 1.398 . S
C1134 H1122 0.950 . S
C1134 C1133 1.398 . S
C1134 C1135 1.391 . S
C1135 H1123 0.950 . S
C1135 C1131 1.393 . S
C1135 C1134 1.391 . S
H1136 C1144 0.950 . S
H1137 C1149 0.950 . S
H1138 C1146 0.950 . S
H1139 C1148 0.950 . S
H1140 C1150 0.950 . S
H1141 C1152 0.950 . S
H1142 C1154 0.950 . S
H1143 C1155 0.950 . S
C1144 H1136 0.950 . S
C1144 C1145 1.386 . S
C1144 C1146 1.391 . S
C1145 C1144 1.386 . S
C1145 C1149 1.393 . S
C1146 H1138 0.950 . S
C1146 C1144 1.391 . S
C1146 C1147 1.400 . S
C1147 C1146 1.400 . S
C1147 C1148 1.398 . S
C1147 C1153 1.491 1_455 S
C1148 H1139 0.950 . S
C1148 C1147 1.398 . S
C1148 C1149 1.391 . S
C1149 H1137 0.950 . S
C1149 C1145 1.393 . S
C1149 C1148 1.391 . S
C1150 H1140 0.950 . S
C1150 C1151 1.386 . S
C1150 C1152 1.391 . S
C1151 C1150 1.386 . S
C1151 C1155 1.393 . S
C1152 H1141 0.950 . S
C1152 C1150 1.391 . S
C1152 C1153 1.400 . S
C1153 C1147 1.491 1_655 S
C1153 C1152 1.400 . S
C1153 C1154 1.398 . S
C1154 H1142 0.950 . S
C1154 C1153 1.398 . S
C1154 C1155 1.391 . S
C1155 H1143 0.950 . S
C1155 C1151 1.393 . S
C1155 C1154 1.391 . S
H1156 C1164 0.950 . S
H1157 C1169 0.950 . S
H1158 C1166 0.950 . S
H1159 C1168 0.950 . S
H1160 C1170 0.950 . S
H1161 C1172 0.950 . S
H1162 C1174 0.950 . S
H1163 C1175 0.950 . S
C1164 H1156 0.950 . S
C1164 C1165 1.386 . S
C1164 C1166 1.391 . S
C1165 C1164 1.386 . S
C1165 C1169 1.393 . S
C1166 H1158 0.950 . S
C1166 C1164 1.391 . S
C1166 C1167 1.400 . S
C1167 C1166 1.400 . S
C1167 C1168 1.398 . S
C1167 C1173 1.491 1_565 S
C1168 H1159 0.950 . S
C1168 C1167 1.398 . S
C1168 C1169 1.391 . S
C1169 H1157 0.950 . S
C1169 C1165 1.393 . S
C1169 C1168 1.391 . S
C1170 H1160 0.950 . S
C1170 C1171 1.386 . S
C1170 C1172 1.391 . S
C1171 C1170 1.386 . S
C1171 C1175 1.393 . S
C1172 H1161 0.950 . S
C1172 C1170 1.391 . S
C1172 C1173 1.400 . S
C1173 C1167 1.491 1_545 S
C1173 C1172 1.400 . S
C1173 C1174 1.398 . S
C1174 H1162 0.950 . S
C1174 C1173 1.398 . S
C1174 C1175 1.391 . S
C1175 H1163 0.950 . S
C1175 C1171 1.393 . S
C1175 C1174 1.391 . S
H1176 C1184 0.950 . S
H1177 C1189 0.950 . S
H1178 C1186 0.950 . S
H1179 C1188 0.950 . S
H1180 C1190 0.950 . S
H1181 C1192 0.950 . S
H1182 C1194 0.950 . S
H1183 C1195 0.950 . S
C1184 H1176 0.950 . S
C1184 C1185 1.386 . S
C1184 C1186 1.391 . S
C1185 C1184 1.386 . S
C1185 C1189 1.393 . S
C1186 H1178 0.950 . S
C1186 C1184 1.391 . S
C1186 C1187 1.400 . S
C1187 C1186 1.400 . S
C1187 C1188 1.398 . S
C1187 C1193 1.491 1_455 S
C1188 H1179 0.950 . S
C1188 C1187 1.398 . S
C1188 C1189 1.391 . S
C1189 H1177 0.950 . S
C1189 C1185 1.393 . S
C1189 C1188 1.391 . S
C1190 H1180 0.950 . S
C1190 C1191 1.386 . S
C1190 C1192 1.391 . S
C1191 C1190 1.386 . S
C1191 C1195 1.393 . S
C1192 H1181 0.950 . S
C1192 C1190 1.391 . S
C1192 C1193 1.400 . S
C1193 C1187 1.491 1_655 S
C1193 C1192 1.400 . S
C1193 C1194 1.398 . S
C1194 H1182 0.950 . S
C1194 C1193 1.398 . S
C1194 C1195 1.391 . S
C1195 H1183 0.950 . S
C1195 C1191 1.393 . S
C1195 C1194 1.391 . S
H1196 C1204 0.950 . S
H1197 C1209 0.950 . S
H1198 C1206 0.950 . S
H1199 C1208 0.950 . S
H1200 C1210 0.950 . S
H1201 C1212 0.950 . S
H1202 C1214 0.950 . S
H1203 C1215 0.950 . S
C1204 H1196 0.950 . S
C1204 C1205 1.386 . S
C1204 C1206 1.391 . S
C1205 C1204 1.386 . S
C1205 C1209 1.393 . S
C1206 H1198 0.950 . S
C1206 C1204 1.391 . S
C1206 C1207 1.400 . S
C1207 C1206 1.400 . S
C1207 C1208 1.398 . S
C1207 C1213 1.491 1_545 S
C1208 H1199 0.950 . S
C1208 C1207 1.398 . S
C1208 C1209 1.391 . S
C1209 H1197 0.950 . S
C1209 C1205 1.393 . S
C1209 C1208 1.391 . S
C1210 H1200 0.950 . S
C1210 C1211 1.386 . S
C1210 C1212 1.391 . S
C1211 C1210 1.386 . S
C1211 C1215 1.393 . S
C1212 H1201 0.950 . S
C1212 C1210 1.391 . S
C1212 C1213 1.400 . S
C1213 C1207 1.491 1_565 S
C1213 C1212 1.400 . S
C1213 C1214 1.398 . S
C1214 H1202 0.950 . S
C1214 C1213 1.398 . S
C1214 C1215 1.391 . S
C1215 H1203 0.950 . S
C1215 C1211 1.393 . S
C1215 C1214 1.391 . S
H1216 C1224 0.950 . S
H1217 C1229 0.950 . S
H1218 C1226 0.950 . S
H1219 C1228 0.950 . S
H1220 C1230 0.950 . S
H1221 C1232 0.950 . S
H1222 C1234 0.950 . S
H1223 C1235 0.950 . S
C1224 H1216 0.950 . S
C1224 C1225 1.386 . S
C1224 C1226 1.391 . S
C1225 C1224 1.386 . S
C1225 C1229 1.393 . S
C1226 H1218 0.950 . S
C1226 C1224 1.391 . S
C1226 C1227 1.400 . S
C1227 C1226 1.400 . S
C1227 C1228 1.398 . S
C1227 C1233 1.491 . S
C1228 H1219 0.950 . S
C1228 C1227 1.398 . S
C1228 C1229 1.391 . S
C1229 H1217 0.950 . S
C1229 C1225 1.393 . S
C1229 C1228 1.391 . S
C1230 H1220 0.950 . S
C1230 C1231 1.386 . S
C1230 C1232 1.391 . S
C1231 C1230 1.386 . S
C1231 C1235 1.393 . S
C1232 H1221 0.950 . S
C1232 C1230 1.391 . S
C1232 C1233 1.400 . S
C1233 C1227 1.491 . S
C1233 C1232 1.400 . S
C1233 C1234 1.398 . S
C1234 H1222 0.950 . S
C1234 C1233 1.398 . S
C1234 C1235 1.391 . S
C1235 H1223 0.950 . S
C1235 C1231 1.393 . S
C1235 C1234 1.391 . S
H1236 C1244 0.950 . S
H1237 C1249 0.950 . S
H1238 C1246 0.950 . S
H1239 C1248 0.950 . S
H1240 C1250 0.950 . S
H1241 C1252 0.950 . S
H1242 C1254 0.950 . S
H1243 C1255 0.950 . S
C1244 H1236 0.950 . S
C1244 C1245 1.386 . S
C1244 C1246 1.391 . S
C1245 C1244 1.386 . S
C1245 C1249 1.393 . S
C1246 H1238 0.950 . S
C1246 C1244 1.391 . S
C1246 C1247 1.400 . S
C1247 C1246 1.400 . S
C1247 C1248 1.398 . S
C1247 C1253 1.491 . S
C1248 H1239 0.950 . S
C1248 C1247 1.398 . S
C1248 C1249 1.391 . S
C1249 H1237 0.950 . S
C1249 C1245 1.393 . S
C1249 C1248 1.391 . S
C1250 H1240 0.950 . S
C1250 C1251 1.386 . S
C1250 C1252 1.391 . S
C1251 C1250 1.386 . S
C1251 C1255 1.393 . S
C1252 H1241 0.950 . S
C1252 C1250 1.391 . S
C1252 C1253 1.400 . S
C1253 C1247 1.491 . S
C1253 C1252 1.400 . S
C1253 C1254 1.398 . S
C1254 H1242 0.950 . S
C1254 C1253 1.398 . S
C1254 C1255 1.391 . S
C1255 H1243 0.950 . S
C1255 C1251 1.393 . S
C1255 C1254 1.391 . S
H1256 C1264 0.950 . S
H1257 C1269 0.950 . S
H1258 C1266 0.950 . S
H1259 C1268 0.950 . S
H1260 C1270 0.950 . S
H1261 C1272 0.950 . S
H1262 C1274 0.950 . S
H1263 C1275 0.950 . S
C1264 H1256 0.950 . S
C1264 C1265 1.386 . S
C1264 C1266 1.391 . S
C1265 C1264 1.386 . S
C1265 C1269 1.393 . S
C1266 H1258 0.950 . S
C1266 C1264 1.391 . S
C1266 C1267 1.400 . S
C1267 C1266 1.400 . S
C1267 C1268 1.398 . S
C1267 C1273 1.491 . S
C1268 H1259 0.950 . S
C1268 C1267 1.398 . S
C1268 C1269 1.391 . S
C1269 H1257 0.950 . S
C1269 C1265 1.393 . S
C1269 C1268 1.391 . S
C1270 H1260 0.950 . S
C1270 C1271 1.386 . S
C1270 C1272 1.391 . S
C1271 C1270 1.386 . S
C1271 C1275 1.393 . S
C1272 H1261 0.950 . S
C1272 C1270 1.391 . S
C1272 C1273 1.400 . S
C1273 C1267 1.491 . S
C1273 C1272 1.400 . S
C1273 C1274 1.398 . S
C1274 H1262 0.950 . S
C1274 C1273 1.398 . S
C1274 C1275 1.391 . S
C1275 H1263 0.950 . S
C1275 C1271 1.393 . S
C1275 C1274 1.391 . S
H1276 C1284 0.950 . S
H1277 C1289 0.950 . S
H1278 C1286 0.950 . S
H1279 C1288 0.950 . S
H1280 C1290 0.950 . S
H1281 C1292 0.950 . S
H1282 C1294 0.950 . S
H1283 C1295 0.950 . S
C1284 H1276 0.950 . S
C1284 C1285 1.386 . S
C1284 C1286 1.391 . S
C1285 C1284 1.386 . S
C1285 C1289 1.393 . S
C1286 H1278 0.950 . S
C1286 C1284 1.391 . S
C1286 C1287 1.400 . S
C1287 C1286 1.400 . S
C1287 C1288 1.398 . S
C1287 C1293 1.491 . S
C1288 H1279 0.950 . S
C1288 C1287 1.398 . S
C1288 C1289 1.391 . S
C1289 H1277 0.950 . S
C1289 C1285 1.393 . S
C1289 C1288 1.391 . S
C1290 H1280 0.950 . S
C1290 C1291 1.386 . S
C1290 C1292 1.391 . S
C1291 C1290 1.386 . S
C1291 C1295 1.393 . S
C1292 H1281 0.950 . S
C1292 C1290 1.391 . S
C1292 C1293 1.400 . S
C1293 C1287 1.491 . S
C1293 C1292 1.400 . S
C1293 C1294 1.398 . S
C1294 H1282 0.950 . S
C1294 C1293 1.398 . S
C1294 C1295 1.391 . S
C1295 H1283 0.950 . S
C1295 C1291 1.393 . S
C1295 C1294 1.391 . S
H1296 C1304 0.950 . S
H1297 C1309 0.950 . S
H1298 C1306 0.950 . S
H1299 C1308 0.950 . S
H1300 C1310 0.950 . S
H1301 C1312 0.950 . S
H1302 C1314 0.950 . S
H1303 C1315 0.950 . S
C1304 H1296 0.950 . S
C1304 C1305 1.386 . S
C1304 C1306 1.391 . S
C1305 C1304 1.386 . S
C1305 C1309 1.393 . S
C1306 H1298 0.950 . S
C1306 C1304 1.391 . S
C1306 C1307 1.400 . S
C1307 C1306 1.400 . S
C1307 C1308 1.398 . S
C1307 C1313 1.491 . S
C1308 H1299 0.950 . S
C1308 C1307 1.398 . S
C1308 C1309 1.391 . S
C1309 H1297 0.950 . S
C1309 C1305 1.393 . S
C1309 C1308 1.391 . S
C1310 H1300 0.950 . S
C1310 C1311 1.386 . S
C1310 C1312 1.391 . S
C1311 C1310 1.386 . S
C1311 C1315 1.393 . S
C1312 H1301 0.950 . S
C1312 C1310 1.391 . S
C1312 C1313 1.400 . S
C1313 C1307 1.491 . S
C1313 C1312 1.400 . S
C1313 C1314 1.398 . S
C1314 H1302 0.950 . S
C1314 C1313 1.398 . S
C1314 C1315 1.391 . S
C1315 H1303 0.950 . S
C1315 C1311 1.393 . S
C1315 C1314 1.391 . S
H1316 C1324 0.950 . S
H1317 C1329 0.950 . S
H1318 C1326 0.950 . S
H1319 C1328 0.950 . S
H1320 C1330 0.950 . S
H1321 C1332 0.950 . S
H1322 C1334 0.950 . S
H1323 C1335 0.950 . S
C1324 H1316 0.950 . S
C1324 C1325 1.386 . S
C1324 C1326 1.391 . S
C1325 C1324 1.386 . S
C1325 C1329 1.393 . S
C1326 H1318 0.950 . S
C1326 C1324 1.391 . S
C1326 C1327 1.400 . S
C1327 C1326 1.400 . S
C1327 C1328 1.398 . S
C1327 C1333 1.491 . S
C1328 H1319 0.950 . S
C1328 C1327 1.398 . S
C1328 C1329 1.391 . S
C1329 H1317 0.950 . S
C1329 C1325 1.393 . S
C1329 C1328 1.391 . S
C1330 H1320 0.950 . S
C1330 C1331 1.386 . S
C1330 C1332 1.391 . S
C1331 C1330 1.386 . S
C1331 C1335 1.393 . S
C1332 H1321 0.950 . S
C1332 C1330 1.391 . S
C1332 C1333 1.400 . S
C1333 C1327 1.491 . S
C1333 C1332 1.400 . S
C1333 C1334 1.398 . S
C1334 H1322 0.950 . S
C1334 C1333 1.398 . S
C1334 C1335 1.391 . S
C1335 H1323 0.950 . S
C1335 C1331 1.393 . S
C1335 C1334 1.391 . S
H1336 C1344 0.950 . S
H1337 C1349 0.950 . S
H1338 C1346 0.950 . S
H1339 C1348 0.950 . S
H1340 C1350 0.950 . S
H1341 C1352 0.950 . S
H1342 C1354 0.950 . S
H1343 C1355 0.950 . S
C1344 H1336 0.950 . S
C1344 C1345 1.386 . S
C1344 C1346 1.391 . S
C1345 C1344 1.386 . S
C1345 C1349 1.393 . S
C1346 H1338 0.950 . S
C1346 C1344 1.391 . S
C1346 C1347 1.400 . S
C1347 C1346 1.400 . S
C1347 C1348 1.398 . S
C1347 C1353 1.491 . S
C1348 H1339 0.950 . S
C1348 C1347 1.398 . S
C1348 C1349 1.391 . S
C1349 H1337 0.950 . S
C1349 C1345 1.393 . S
C1349 C1348 1.391 . S
C1350 H1340 0.950 . S
C1350 C1351 1.386 . S
C1350 C1352 1.391 . S
C1351 C1350 1.386 . S
C1351 C1355 1.393 . S
C1352 H1341 0.950 . S
C1352 C1350 1.391 . S
C1352 C1353 1.400 . S
C1353 C1347 1.491 . S
C1353 C1352 1.400 . S
C1353 C1354 1.398 . S
C1354 H1342 0.950 . S
C1354 C1353 1.398 . S
C1354 C1355 1.391 . S
C1355 H1343 0.950 . S
C1355 C1351 1.393 . S
C1355 C1354 1.391 . S
H1356 C1364 0.950 . S
H1357 C1369 0.950 . S
H1358 C1366 0.950 . S
H1359 C1368 0.950 . S
H1360 C1370 0.950 . S
H1361 C1372 0.950 . S
H1362 C1374 0.950 . S
H1363 C1375 0.950 . S
C1364 H1356 0.950 . S
C1364 C1365 1.386 . S
C1364 C1366 1.391 . S
C1365 C1364 1.386 . S
C1365 C1369 1.393 . S
C1366 H1358 0.950 . S
C1366 C1364 1.391 . S
C1366 C1367 1.400 . S
C1367 C1366 1.400 . S
C1367 C1368 1.398 . S
C1367 C1373 1.491 . S
C1368 H1359 0.950 . S
C1368 C1367 1.398 . S
C1368 C1369 1.391 . S
C1369 H1357 0.950 . S
C1369 C1365 1.393 . S
C1369 C1368 1.391 . S
C1370 H1360 0.950 . S
C1370 C1371 1.386 . S
C1370 C1372 1.391 . S
C1371 C1370 1.386 . S
C1371 C1375 1.393 . S
C1372 H1361 0.950 . S
C1372 C1370 1.391 . S
C1372 C1373 1.400 . S
C1373 C1367 1.491 . S
C1373 C1372 1.400 . S
C1373 C1374 1.398 . S
C1374 H1362 0.950 . S
C1374 C1373 1.398 . S
C1374 C1375 1.391 . S
C1375 H1363 0.950 . S
C1375 C1371 1.393 . S
C1375 C1374 1.391 . S
H1376 C1384 0.950 . S
H1377 C1389 0.950 . S
H1378 C1386 0.950 . S
H1379 C1388 0.950 . S
H1380 C1390 0.950 . S
H1381 C1392 0.950 . S
H1382 C1394 0.950 . S
H1383 C1395 0.950 . S
C1384 H1376 0.950 . S
C1384 C1385 1.386 . S
C1384 C1386 1.391 . S
C1385 C1384 1.386 . S
C1385 C1389 1.393 . S
C1386 H1378 0.950 . S
C1386 C1384 1.391 . S
C1386 C1387 1.400 . S
C1387 C1386 1.400 . S
C1387 C1388 1.398 . S
C1387 C1393 1.491 . S
C1388 H1379 0.950 . S
C1388 C1387 1.398 . S
C1388 C1389 1.391 . S
C1389 H1377 0.950 . S
C1389 C1385 1.393 . S
C1389 C1388 1.391 . S
C1390 H1380 0.950 . S
C1390 C1391 1.386 . S
C1390 C1392 1.391 . S
C1391 C1390 1.386 . S
C1391 C1395 1.393 . S
C1392 H1381 0.950 . S
C1392 C1390 1.391 . S
C1392 C1393 1.400 . S
C1393 C1387 1.491 . S
C1393 C1392 1.400 . S
C1393 C1394 1.398 . S
C1394 H1382 0.950 . S
C1394 C1393 1.398 . S
C1394 C1395 1.391 . S
C1395 H1383 0.950 . S
C1395 C1391 1.393 . S
C1395 C1394 1.391 . S
H1396 C1404 0.950 . S
H1397 C1409 0.950 . S
H1398 C1406 0.950 . S
H1399 C1408 0.950 . S
H1400 C1410 0.950 . S
H1401 C1412 0.950 . S
H1402 C1414 0.950 . S
H1403 C1415 0.950 . S
C1404 H1396 0.950 . S
C1404 C1405 1.386 . S
C1404 C1406 1.391 . S
C1405 C1404 1.386 . S
C1405 C1409 1.393 . S
C1406 H1398 0.950 . S
C1406 C1404 1.391 . S
C1406 C1407 1.400 . S
C1407 C1406 1.400 . S
C1407 C1408 1.398 . S
C1407 C1413 1.491 . S
C1408 H1399 0.950 . S
C1408 C1407 1.398 . S
C1408 C1409 1.391 . S
C1409 H1397 0.950 . S
C1409 C1405 1.393 . S
C1409 C1408 1.391 . S
C1410 H1400 0.950 . S
C1410 C1411 1.386 . S
C1410 C1412 1.391 . S
C1411 C1410 1.386 . S
C1411 C1415 1.393 . S
C1412 H1401 0.950 . S
C1412 C1410 1.391 . S
C1412 C1413 1.400 . S
C1413 C1407 1.491 . S
C1413 C1412 1.400 . S
C1413 C1414 1.398 . S
C1414 H1402 0.950 . S
C1414 C1413 1.398 . S
C1414 C1415 1.391 . S
C1415 H1403 0.950 . S
C1415 C1411 1.393 . S
C1415 C1414 1.391 . S
H1416 C1424 0.950 . S
H1417 C1429 0.950 . S
H1418 C1426 0.950 . S
H1419 C1428 0.950 . S
H1420 C1430 0.950 . S
H1421 C1432 0.950 . S
H1422 C1434 0.950 . S
H1423 C1435 0.950 . S
C1424 H1416 0.950 . S
C1424 C1425 1.386 . S
C1424 C1426 1.391 . S
C1425 C1424 1.386 . S
C1425 C1429 1.393 . S
C1426 H1418 0.950 . S
C1426 C1424 1.391 . S
C1426 C1427 1.400 . S
C1427 C1426 1.400 . S
C1427 C1428 1.398 . S
C1427 C1433 1.491 . S
C1428 H1419 0.950 . S
C1428 C1427 1.398 . S
C1428 C1429 1.391 . S
C1429 H1417 0.950 . S
C1429 C1425 1.393 . S
C1429 C1428 1.391 . S
C1430 H1420 0.950 . S
C1430 C1431 1.386 . S
C1430 C1432 1.391 . S
C1431 C1430 1.386 . S
C1431 C1435 1.393 . S
C1432 H1421 0.950 . S
C1432 C1430 1.391 . S
C1432 C1433 1.400 . S
C1433 C1427 1.491 . S
C1433 C1432 1.400 . S
C1433 C1434 1.398 . S
C1434 H1422 0.950 . S
C1434 C1433 1.398 . S
C1434 C1435 1.391 . S
C1435 H1423 0.950 . S
C1435 C1431 1.393 . S
C1435 C1434 1.391 . S
H1436 C1444 0.950 . S
H1437 C1449 0.950 . S
H1438 C1446 0.950 . S
H1439 C1448 0.950 . S
H1440 C1450 0.950 . S
H1441 C1452 0.950 . S
H1442 C1454 0.950 . S
H1443 C1455 0.950 . S
C1444 H1436 0.950 . S
C1444 C1445 1.386 . S
C1444 C1446 1.391 . S
C1445 C1444 1.386 . S
C1445 C1449 1.393 . S
C1446 H1438 0.950 . S
C1446 C1444 1.391 . S
C1446 C1447 1.400 . S
C1447 C1446 1.400 . S
C1447 C1448 1.398 . S
C1447 C1453 1.491 . S
C1448 H1439 0.950 . S
C1448 C1447 1.398 . S
C1448 C1449 1.391 . S
C1449 H1437 0.950 . S
C1449 C1445 1.393 . S
C1449 C1448 1.391 . S
C1450 H1440 0.950 . S
C1450 C1451 1.386 . S
C1450 C1452 1.391 . S
C1451 C1450 1.386 . S
C1451 C1455 1.393 . S
C1452 H1441 0.950 . S
C1452 C1450 1.391 . S
C1452 C1453 1.400 . S
C1453 C1447 1.491 . S
C1453 C1452 1.400 . S
C1453 C1454 1.398 . S
C1454 H1442 0.950 . S
C1454 C1453 1.398 . S
C1454 C1455 1.391 . S
C1455 H1443 0.950 . S
C1455 C1451 1.393 . S
C1455 C1454 1.391 . S
H1456 C1464 0.950 . S
H1457 C1469 0.950 . S
H1458 C1466 0.950 . S
H1459 C1468 0.950 . S
H1460 C1470 0.950 . S
H1461 C1472 0.950 . S
H1462 C1474 0.950 . S
H1463 C1475 0.950 . S
C1464 H1456 0.950 . S
C1464 C1465 1.386 . S
C1464 C1466 1.391 . S
C1465 C1464 1.386 . S
C1465 C1469 1.393 . S
C1466 H1458 0.950 . S
C1466 C1464 1.391 . S
C1466 C1467 1.400 . S
C1467 C1466 1.400 . S
C1467 C1468 1.398 . S
C1467 C1473 1.491 . S
C1468 H1459 0.950 . S
C1468 C1467 1.398 . S
C1468 C1469 1.391 . S
C1469 H1457 0.950 . S
C1469 C1465 1.393 . S
C1469 C1468 1.391 . S
C1470 H1460 0.950 . S
C1470 C1471 1.386 . S
C1470 C1472 1.391 . S
C1471 C1470 1.386 . S
C1471 C1475 1.393 . S
C1472 H1461 0.950 . S
C1472 C1470 1.391 . S
C1472 C1473 1.400 . S
C1473 C1467 1.491 . S
C1473 C1472 1.400 . S
C1473 C1474 1.398 . S
C1474 H1462 0.950 . S
C1474 C1473 1.398 . S
C1474 C1475 1.391 . S
C1475 H1463 0.950 . S
C1475 C1471 1.393 . S
C1475 C1474 1.391 . S
H1476 C1484 0.950 . S
H1477 C1489 0.950 . S
H1478 C1486 0.950 . S
H1479 C1488 0.950 . S
H1480 C1490 0.950 . S
H1481 C1492 0.950 . S
H1482 C1494 0.950 . S
H1483 C1495 0.950 . S
C1484 H1476 0.950 . S
C1484 C1485 1.386 . S
C1484 C1486 1.391 . S
C1485 C1484 1.386 . S
C1485 C1489 1.393 . S
C1486 H1478 0.950 . S
C1486 C1484 1.391 . S
C1486 C1487 1.400 . S
C1487 C1486 1.400 . S
C1487 C1488 1.398 . S
C1487 C1493 1.491 . S
C1488 H1479 0.950 . S
C1488 C1487 1.398 . S
C1488 C1489 1.391 . S
C1489 H1477 0.950 . S
C1489 C1485 1.393 . S
C1489 C1488 1.391 . S
C1490 H1480 0.950 . S
C1490 C1491 1.386 . S
C1490 C1492 1.391 . S
C1491 C1490 1.386 . S
C1491 C1495 1.393 . S
C1492 H1481 0.950 . S
C1492 C1490 1.391 . S
C1492 C1493 1.400 . S
C1493 C1487 1.491 . S
C1493 C1492 1.400 . S
C1493 C1494 1.398 . S
C1494 H1482 0.950 . S
C1494 C1493 1.398 . S
C1494 C1495 1.391 . S
C1495 H1483 0.950 . S
C1495 C1491 1.393 . S
C1495 C1494 1.391 . S
H1496 C1504 0.950 . S
H1497 C1509 0.950 . S
H1498 C1506 0.950 . S
H1499 C1508 0.950 . S
H1500 C1510 0.950 . S
H1501 C1512 0.950 . S
H1502 C1514 0.950 . S
H1503 C1515 0.950 . S
C1504 H1496 0.950 . S
C1504 C1505 1.386 . S
C1504 C1506 1.391 . S
C1505 C1504 1.386 . S
C1505 C1509 1.393 . S
C1506 H1498 0.950 . S
C1506 C1504 1.391 . S
C1506 C1507 1.400 . S
C1507 C1506 1.400 . S
C1507 C1508 1.398 . S
C1507 C1513 1.491 . S
C1508 H1499 0.950 . S
C1508 C1507 1.398 . S
C1508 C1509 1.391 . S
C1509 H1497 0.950 . S
C1509 C1505 1.393 . S
C1509 C1508 1.391 . S
C1510 H1500 0.950 . S
C1510 C1511 1.386 . S
C1510 C1512 1.391 . S
C1511 C1510 1.386 . S
C1511 C1515 1.393 . S
C1512 H1501 0.950 . S
C1512 C1510 1.391 . S
C1512 C1513 1.400 . S
C1513 C1507 1.491 . S
C1513 C1512 1.400 . S
C1513 C1514 1.398 . S
C1514 H1502 0.950 . S
C1514 C1513 1.398 . S
C1514 C1515 1.391 . S
C1515 H1503 0.950 . S
C1515 C1511 1.393 . S
C1515 C1514 1.391 . S
H1516 C1524 0.950 . S
H1517 C1529 0.950 . S
H1518 C1526 0.950 . S
H1519 C1528 0.950 . S
H1520 C1530 0.950 . S
H1521 C1532 0.950 . S
H1522 C1534 0.950 . S
H1523 C1535 0.950 . S
C1524 H1516 0.950 . S
C1524 C1525 1.386 . S
C1524 C1526 1.391 . S
C1525 C1524 1.386 . S
C1525 C1529 1.393 . S
C1526 H1518 0.950 . S
C1526 C1524 1.391 . S
C1526 C1527 1.400 . S
C1527 C1526 1.400 . S
C1527 C1528 1.398 . S
C1527 C1533 1.491 . S
C1528 H1519 0.950 . S
C1528 C1527 1.398 . S
C1528 C1529 1.391 . S
C1529 H1517 0.950 . S
C1529 C1525 1.393 . S
C1529 C1528 1.391 . S
C1530 H1520 0.950 . S
C1530 C1531 1.386 . S
C1530 C1532 1.391 . S
C1531 C1530 1.386 . S
C1531 C1535 1.393 . S
C1532 H1521 0.950 . S
C1532 C1530 1.391 . S
C1532 C1533 1.400 . S
C1533 C1527 1.491 . S
C1533 C1532 1.400 . S
C1533 C1534 1.398 . S
C1534 H1522 0.950 . S
C1534 C1533 1.398 . S
C1534 C1535 1.391 . S
C1535 H1523 0.950 . S
C1535 C1531 1.393 . S
C1535 C1534 1.391 . S
H1536 C1544 0.950 . S
H1537 C1549 0.950 . S
H1538 C1546 0.950 . S
H1539 C1548 0.950 . S
H1540 C1550 0.950 . S
H1541 C1552 0.950 . S
H1542 C1554 0.950 . S
H1543 C1555 0.950 . S
C1544 H1536 0.950 . S
C1544 C1545 1.386 . S
C1544 C1546 1.391 . S
C1545 C1544 1.386 . S
C1545 C1549 1.393 . S
C1546 H1538 0.950 . S
C1546 C1544 1.391 . S
C1546 C1547 1.400 . S
C1547 C1546 1.400 . S
C1547 C1548 1.398 . S
C1547 C1553 1.491 1_554 S
C1548 H1539 0.950 . S
C1548 C1547 1.398 . S
C1548 C1549 1.391 . S
C1549 H1537 0.950 . S
C1549 C1545 1.393 . S
C1549 C1548 1.391 . S
C1550 H1540 0.950 . S
C1550 C1551 1.386 . S
C1550 C1552 1.391 . S
C1551 C1550 1.386 . S
C1551 C1555 1.393 . S
C1552 H1541 0.950 . S
C1552 C1550 1.391 . S
C1552 C1553 1.400 . S
C1553 C1547 1.491 1_556 S
C1553 C1552 1.400 . S
C1553 C1554 1.398 . S
C1554 H1542 0.950 . S
C1554 C1553 1.398 . S
C1554 C1555 1.391 . S
C1555 H1543 0.950 . S
C1555 C1551 1.393 . S
C1555 C1554 1.391 . S
H1556 C1564 0.950 . S
H1557 C1569 0.950 . S
H1558 C1566 0.950 . S
H1559 C1568 0.950 . S
H1560 C1570 0.950 . S
H1561 C1572 0.950 . S
H1562 C1574 0.950 . S
H1563 C1575 0.950 . S
C1564 H1556 0.950 . S
C1564 C1565 1.386 . S
C1564 C1566 1.391 . S
C1565 C1564 1.386 . S
C1565 C1569 1.393 . S
C1566 H1558 0.950 . S
C1566 C1564 1.391 . S
C1566 C1567 1.400 . S
C1567 C1566 1.400 . S
C1567 C1568 1.398 . S
C1567 C1573 1.491 1_556 S
C1568 H1559 0.950 . S
C1568 C1567 1.398 . S
C1568 C1569 1.391 . S
C1569 H1557 0.950 . S
C1569 C1565 1.393 . S
C1569 C1568 1.391 . S
C1570 H1560 0.950 . S
C1570 C1571 1.386 . S
C1570 C1572 1.391 . S
C1571 C1570 1.386 . S
C1571 C1575 1.393 . S
C1572 H1561 0.950 . S
C1572 C1570 1.391 . S
C1572 C1573 1.400 . S
C1573 C1567 1.491 1_554 S
C1573 C1572 1.400 . S
C1573 C1574 1.398 . S
C1574 H1562 0.950 . S
C1574 C1573 1.398 . S
C1574 C1575 1.391 . S
C1575 H1563 0.950 . S
C1575 C1571 1.393 . S
C1575 C1574 1.391 . S
H1576 C1584 0.950 . S
H1577 C1589 0.950 . S
H1578 C1586 0.950 . S
H1579 C1588 0.950 . S
H1580 C1590 0.950 . S
H1581 C1592 0.950 . S
H1582 C1594 0.950 . S
H1583 C1595 0.950 . S
C1584 H1576 0.950 . S
C1584 C1585 1.386 . S
C1584 C1586 1.391 . S
C1585 C1584 1.386 . S
C1585 C1589 1.393 . S
C1586 H1578 0.950 . S
C1586 C1584 1.391 . S
C1586 C1587 1.400 . S
C1587 C1586 1.400 . S
C1587 C1588 1.398 . S
C1587 C1593 1.491 1_554 S
C1588 H1579 0.950 . S
C1588 C1587 1.398 . S
C1588 C1589 1.391 . S
C1589 H1577 0.950 . S
C1589 C1585 1.393 . S
C1589 C1588 1.391 . S
C1590 H1580 0.950 . S
C1590 C1591 1.386 . S
C1590 C1592 1.391 . S
C1591 C1590 1.386 . S
C1591 C1595 1.393 . S
C1592 H1581 0.950 . S
C1592 C1590 1.391 . S
C1592 C1593 1.400 . S
C1593 C1587 1.491 1_556 S
C1593 C1592 1.400 . S
C1593 C1594 1.398 . S
C1594 H1582 0.950 . S
C1594 C1593 1.398 . S
C1594 C1595 1.391 . S
C1595 H1583 0.950 . S
C1595 C1591 1.393 . S
C1595 C1594 1.391 . S
H1596 C1604 0.950 . S
H1597 C1609 0.950 . S
H1598 C1606 0.950 . S
H1599 C1608 0.950 . S
H1600 C1610 0.950 . S
H1601 C1612 0.950 . S
H1602 C1614 0.950 . S
H1603 C1615 0.950 . S
C1604 H1596 0.950 . S
C1604 C1605 1.386 . S
C1604 C1606 1.391 . S
C1605 C1604 1.386 . S
C1605 C1609 1.393 . S
C1606 H1598 0.950 . S
C1606 C1604 1.391 . S
C1606 C1607 1.400 . S
C1607 C1606 1.400 . S
C1607 C1608 1.398 . S
C1607 C1613 1.491 1_554 S
C1608 H1599 0.950 . S
C1608 C1607 1.398 . S
C1608 C1609 1.391 . S
C1609 H1597 0.950 . S
C1609 C1605 1.393 . S
C1609 C1608 1.391 . S
C1610 H1600 0.950 . S
C1610 C1611 1.386 . S
C1610 C1612 1.391 . S
C1611 C1610 1.386 . S
C1611 C1615 1.393 . S
C1612 H1601 0.950 . S
C1612 C1610 1.391 . S
C1612 C1613 1.400 . S
C1613 C1607 1.491 1_556 S
C1613 C1612 1.400 . S
C1613 C1614 1.398 . S
C1614 H1602 0.950 . S
C1614 C1613 1.398 . S
C1614 C1615 1.391 . S
C1615 H1603 0.950 . S
C1615 C1611 1.393 . S
C1615 C1614 1.391 . S
H1616 C1624 0.950 . S
H1617 C1629 0.950 . S
H1618 C1626 0.950 . S
H1619 C1628 0.950 . S
H1620 C1630 0.950 . S
H1621 C1632 0.950 . S
H1622 C1634 0.950 . S
H1623 C1635 0.950 . S
C1624 H1616 0.950 . S
C1624 C1625 1.386 . S
C1624 C1626 1.391 . S
C1625 C1624 1.386 . S
C1625 C1629 1.393 . S
C1626 H1618 0.950 . S
C1626 C1624 1.391 . S
C1626 C1627 1.400 . S
C1627 C1626 1.400 . S
C1627 C1628 1.398 . S
C1627 C1633 1.491 1_554 S
C1628 H1619 0.950 . S
C1628 C1627 1.398 . S
C1628 C1629 1.391 . S
C1629 H1617 0.950 . S
C1629 C1625 1.393 . S
C1629 C1628 1.391 . S
C1630 H1620 0.950 . S
C1630 C1631 1.386 . S
C1630 C1632 1.391 . S
C1631 C1630 1.386 . S
C1631 C1635 1.393 . S
C1632 H1621 0.950 . S
C1632 C1630 1.391 . S
C1632 C1633 1.400 . S
C1633 C1627 1.491 1_556 S
C1633 C1632 1.400 . S
C1633 C1634 1.398 . S
C1634 H1622 0.950 . S
C1634 C1633 1.398 . S
C1634 C1635 1.391 . S
C1635 H1623 0.950 . S
C1635 C1631 1.393 . S
C1635 C1634 1.391 . S
H1636 C1644 0.950 . S
H1637 C1649 0.950 . S
H1638 C1646 0.950 . S
H1639 C1648 0.950 . S
H1640 C1650 0.950 . S
H1641 C1652 0.950 . S
H1642 C1654 0.950 . S
H1643 C1655 0.950 . S
C1644 H1636 0.950 . S
C1644 C1645 1.386 . S
C1644 C1646 1.391 . S
C1645 C1644 1.386 . S
C1645 C1649 1.393 . S
C1646 H1638 0.950 . S
C1646 C1644 1.391 . S
C1646 C1647 1.400 . S
C1647 C1646 1.400 . S
C1647 C1648 1.398 . S
C1647 C1653 1.491 1_554 S
C1648 H1639 0.950 . S
C1648 C1647 1.398 . S
C1648 C1649 1.391 . S
C1649 H1637 0.950 . S
C1649 C1645 1.393 . S
C1649 C1648 1.391 . S
C1650 H1640 0.950 . S
C1650 C1651 1.386 . S
C1650 C1652 1.391 . S
C1651 C1650 1.386 . S
C1651 C1655 1.393 . S
C1652 H1641 0.950 . S
C1652 C1650 1.391 . S
C1652 C1653 1.400 . S
C1653 C1647 1.491 1_556 S
C1653 C1652 1.400 . S
C1653 C1654 1.398 . S
C1654 H1642 0.950 . S
C1654 C1653 1.398 . S
C1654 C1655 1.391 . S
C1655 H1643 0.950 . S
C1655 C1651 1.393 . S
C1655 C1654 1.391 . S
H1656 C1664 0.950 . S
H1657 C1669 0.950 . S
H1658 C1666 0.950 . S
H1659 C1668 0.950 . S
H1660 C1670 0.950 . S
H1661 C1672 0.950 . S
H1662 C1674 0.950 . S
H1663 C1675 0.950 . S
C1664 H1656 0.950 . S
C1664 C1665 1.386 . S
C1664 C1666 1.391 . S
C1665 C1664 1.386 . S
C1665 C1669 1.393 . S
C1666 H1658 0.950 . S
C1666 C1664 1.391 . S
C1666 C1667 1.400 . S
C1667 C1666 1.400 . S
C1667 C1668 1.398 . S
C1667 C1673 1.491 1_556 S
C1668 H1659 0.950 . S
C1668 C1667 1.398 . S
C1668 C1669 1.391 . S
C1669 H1657 0.950 . S
C1669 C1665 1.393 . S
C1669 C1668 1.391 . S
C1670 H1660 0.950 . S
C1670 C1671 1.386 . S
C1670 C1672 1.391 . S
C1671 C1670 1.386 . S
C1671 C1675 1.393 . S
C1672 H1661 0.950 . S
C1672 C1670 1.391 . S
C1672 C1673 1.400 . S
C1673 C1667 1.491 1_554 S
C1673 C1672 1.400 . S
C1673 C1674 1.398 . S
C1674 H1662 0.950 . S
C1674 C1673 1.398 . S
C1674 C1675 1.391 . S
C1675 H1663 0.950 . S
C1675 C1671 1.393 . S
C1675 C1674 1.391 . S
H1676 C1684 0.950 . S
H1677 C1689 0.950 . S
H1678 C1686 0.950 . S
H1679 C1688 0.950 . S
H1680 C1690 0.950 . S
H1681 C1692 0.950 . S
H1682 C1694 0.950 . S
H1683 C1695 0.950 . S
C1684 H1676 0.950 . S
C1684 C1685 1.386 . S
C1684 C1686 1.391 . S
C1685 C1684 1.386 . S
C1685 C1689 1.393 . S
C1686 H1678 0.950 . S
C1686 C1684 1.391 . S
C1686 C1687 1.400 . S
C1687 C1686 1.400 . S
C1687 C1688 1.398 . S
C1687 C1693 1.491 1_556 S
C1688 H1679 0.950 . S
C1688 C1687 1.398 . S
C1688 C1689 1.391 . S
C1689 H1677 0.950 . S
C1689 C1685 1.393 . S
C1689 C1688 1.391 . S
C1690 H1680 0.950 . S
C1690 C1691 1.386 . S
C1690 C1692 1.391 . S
C1691 C1690 1.386 . S
C1691 C1695 1.393 . S
C1692 H1681 0.950 . S
C1692 C1690 1.391 . S
C1692 C1693 1.400 . S
C1693 C1687 1.491 1_554 S
C1693 C1692 1.400 . S
C1693 C1694 1.398 . S
C1694 H1682 0.950 . S
C1694 C1693 1.398 . S
C1694 C1695 1.391 . S
C1695 H1683 0.950 . S
C1695 C1691 1.393 . S
C1695 C1694 1.391 . S
H1696 C1704 0.950 . S
H1697 C1709 0.950 . S
H1698 C1706 0.950 . S
H1699 C1708 0.950 . S
H1700 C1710 0.950 . S
H1701 C1712 0.950 . S
H1702 C1714 0.950 . S
H1703 C1715 0.950 . S
C1704 H1696 0.950 . S
C1704 C1705 1.386 . S
C1704 C1706 1.391 . S
C1705 C1704 1.386 . S
C1705 C1709 1.393 . S
C1706 H1698 0.950 . S
C1706 C1704 1.391 . S
C1706 C1707 1.400 . S
C1707 C1706 1.400 . S
C1707 C1708 1.398 . S
C1707 C1713 1.491 . S
C1708 H1699 0.950 . S
C1708 C1707 1.398 . S
C1708 C1709 1.391 . S
C1709 H1697 0.950 . S
C1709 C1705 1.393 . S
C1709 C1708 1.391 . S
C1710 H1700 0.950 . S
C1710 C1711 1.386 . S
C1710 C1712 1.391 . S
C1711 C1710 1.386 . S
C1711 C1715 1.393 . S
C1712 H1701 0.950 . S
C1712 C1710 1.391 . S
C1712 C1713 1.400 . S
C1713 C1707 1.491 . S
C1713 C1712 1.400 . S
C1713 C1714 1.398 . S
C1714 H1702 0.950 . S
C1714 C1713 1.398 . S
C1714 C1715 1.391 . S
C1715 H1703 0.950 . S
C1715 C1711 1.393 . S
C1715 C1714 1.391 . S
H1716 C1724 0.950 . S
H1717 C1729 0.950 . S
H1718 C1726 0.950 . S
H1719 C1728 0.950 . S
H1720 C1730 0.950 . S
H1721 C1732 0.950 . S
H1722 C1734 0.950 . S
H1723 C1735 0.950 . S
C1724 H1716 0.950 . S
C1724 C1725 1.386 . S
C1724 C1726 1.391 . S
C1725 C1724 1.386 . S
C1725 C1729 1.393 . S
C1726 H1718 0.950 . S
C1726 C1724 1.391 . S
C1726 C1727 1.400 . S
C1727 C1726 1.400 . S
C1727 C1728 1.398 . S
C1727 C1733 1.491 . S
C1728 H1719 0.950 . S
C1728 C1727 1.398 . S
C1728 C1729 1.391 . S
C1729 H1717 0.950 . S
C1729 C1725 1.393 . S
C1729 C1728 1.391 . S
C1730 H1720 0.950 . S
C1730 C1731 1.386 . S
C1730 C1732 1.391 . S
C1731 C1730 1.386 . S
C1731 C1735 1.393 . S
C1732 H1721 0.950 . S
C1732 C1730 1.391 . S
C1732 C1733 1.400 . S
C1733 C1727 1.491 . S
C1733 C1732 1.400 . S
C1733 C1734 1.398 . S
C1734 H1722 0.950 . S
C1734 C1733 1.398 . S
C1734 C1735 1.391 . S
C1735 H1723 0.950 . S
C1735 C1731 1.393 . S
C1735 C1734 1.391 . S
H1736 C1744 0.950 . S
H1737 C1749 0.950 . S
H1738 C1746 0.950 . S
H1739 C1748 0.950 . S
H1740 C1750 0.950 . S
H1741 C1752 0.950 . S
H1742 C1754 0.950 . S
H1743 C1755 0.950 . S
C1744 H1736 0.950 . S
C1744 C1745 1.386 . S
C1744 C1746 1.391 . S
C1745 C1744 1.386 . S
C1745 C1749 1.393 . S
C1746 H1738 0.950 . S
C1746 C1744 1.391 . S
C1746 C1747 1.400 . S
C1747 C1746 1.400 . S
C1747 C1748 1.398 . S
C1747 C1753 1.491 . S
C1748 H1739 0.950 . S
C1748 C1747 1.398 . S
C1748 C1749 1.391 . S
C1749 H1737 0.950 . S
C1749 C1745 1.393 . S
C1749 C1748 1.391 . S
C1750 H1740 0.950 . S
C1750 C1751 1.386 . S
C1750 C1752 1.391 . S
C1751 C1750 1.386 . S
C1751 C1755 1.393 . S
C1752 H1741 0.950 . S
C1752 C1750 1.391 . S
C1752 C1753 1.400 . S
C1753 C1747 1.491 . S
C1753 C1752 1.400 . S
C1753 C1754 1.398 . S
C1754 H1742 0.950 . S
C1754 C1753 1.398 . S
C1754 C1755 1.391 . S
C1755 H1743 0.950 . S
C1755 C1751 1.393 . S
C1755 C1754 1.391 . S
H1756 C1764 0.950 . S
H1757 C1769 0.950 . S
H1758 C1766 0.950 . S
H1759 C1768 0.950 . S
H1760 C1770 0.950 . S
H1761 C1772 0.950 . S
H1762 C1774 0.950 . S
H1763 C1775 0.950 . S
C1764 H1756 0.950 . S
C1764 C1765 1.386 . S
C1764 C1766 1.391 . S
C1765 C1764 1.386 . S
C1765 C1769 1.393 . S
C1766 H1758 0.950 . S
C1766 C1764 1.391 . S
C1766 C1767 1.400 . S
C1767 C1766 1.400 . S
C1767 C1768 1.398 . S
C1767 C1773 1.491 . S
C1768 H1759 0.950 . S
C1768 C1767 1.398 . S
C1768 C1769 1.391 . S
C1769 H1757 0.950 . S
C1769 C1765 1.393 . S
C1769 C1768 1.391 . S
C1770 H1760 0.950 . S
C1770 C1771 1.386 . S
C1770 C1772 1.391 . S
C1771 C1770 1.386 . S
C1771 C1775 1.393 . S
C1772 H1761 0.950 . S
C1772 C1770 1.391 . S
C1772 C1773 1.400 . S
C1773 C1767 1.491 . S
C1773 C1772 1.400 . S
C1773 C1774 1.398 . S
C1774 H1762 0.950 . S
C1774 C1773 1.398 . S
C1774 C1775 1.391 . S
C1775 H1763 0.950 . S
C1775 C1771 1.393 . S
C1775 C1774 1.391 . S
H1776 C1784 0.950 . S
H1777 C1789 0.950 . S
H1778 C1786 0.950 . S
H1779 C1788 0.950 . S
H1780 C1790 0.950 . S
H1781 C1792 0.950 . S
H1782 C1794 0.950 . S
H1783 C1795 0.950 . S
C1784 H1776 0.950 . S
C1784 C1785 1.386 . S
C1784 C1786 1.391 . S
C1785 C1784 1.386 . S
C1785 C1789 1.393 . S
C1786 H1778 0.950 . S
C1786 C1784 1.391 . S
C1786 C1787 1.400 . S
C1787 C1786 1.400 . S
C1787 C1788 1.398 . S
C1787 C1793 1.491 . S
C1788 H1779 0.950 . S
C1788 C1787 1.398 . S
C1788 C1789 1.391 . S
C1789 H1777 0.950 . S
C1789 C1785 1.393 . S
C1789 C1788 1.391 . S
C1790 H1780 0.950 . S
C1790 C1791 1.386 . S
C1790 C1792 1.391 . S
C1791 C1790 1.386 . S
C1791 C1795 1.393 . S
C1792 H1781 0.950 . S
C1792 C1790 1.391 . S
C1792 C1793 1.400 . S
C1793 C1787 1.491 . S
C1793 C1792 1.400 . S
C1793 C1794 1.398 . S
C1794 H1782 0.950 . S
C1794 C1793 1.398 . S
C1794 C1795 1.391 . S
C1795 H1783 0.950 . S
C1795 C1791 1.393 . S
C1795 C1794 1.391 . S
H1796 C1804 0.950 . S
H1797 C1809 0.950 . S
H1798 C1806 0.950 . S
H1799 C1808 0.950 . S
H1800 C1810 0.950 . S
H1801 C1812 0.950 . S
H1802 C1814 0.950 . S
H1803 C1815 0.950 . S
C1804 H1796 0.950 . S
C1804 C1805 1.386 . S
C1804 C1806 1.391 . S
C1805 C1804 1.386 . S
C1805 C1809 1.393 . S
C1806 H1798 0.950 . S
C1806 C1804 1.391 . S
C1806 C1807 1.400 . S
C1807 C1806 1.400 . S
C1807 C1808 1.398 . S
C1807 C1813 1.491 . S
C1808 H1799 0.950 . S
C1808 C1807 1.398 . S
C1808 C1809 1.391 . S
C1809 H1797 0.950 . S
C1809 C1805 1.393 . S
C1809 C1808 1.391 . S
C1810 H1800 0.950 . S
C1810 C1811 1.386 . S
C1810 C1812 1.391 . S
C1811 C1810 1.386 . S
C1811 C1815 1.393 . S
C1812 H1801 0.950 . S
C1812 C1810 1.391 . S
C1812 C1813 1.400 . S
C1813 C1807 1.491 . S
C1813 C1812 1.400 . S
C1813 C1814 1.398 . S
C1814 H1802 0.950 . S
C1814 C1813 1.398 . S
C1814 C1815 1.391 . S
C1815 H1803 0.950 . S
C1815 C1811 1.393 . S
C1815 C1814 1.391 . S
H1816 C1824 0.950 . S
H1817 C1829 0.950 . S
H1818 C1826 0.950 . S
H1819 C1828 0.950 . S
H1820 C1830 0.950 . S
H1821 C1832 0.950 . S
H1822 C1834 0.950 . S
H1823 C1835 0.950 . S
C1824 H1816 0.950 . S
C1824 C1825 1.386 . S
C1824 C1826 1.391 . S
C1825 C1824 1.386 . S
C1825 C1829 1.393 . S
C1826 H1818 0.950 . S
C1826 C1824 1.391 . S
C1826 C1827 1.400 . S
C1827 C1826 1.400 . S
C1827 C1828 1.398 . S
C1827 C1833 1.491 . S
C1828 H1819 0.950 . S
C1828 C1827 1.398 . S
C1828 C1829 1.391 . S
C1829 H1817 0.950 . S
C1829 C1825 1.393 . S
C1829 C1828 1.391 . S
C1830 H1820 0.950 . S
C1830 C1831 1.386 . S
C1830 C1832 1.391 . S
C1831 C1830 1.386 . S
C1831 C1835 1.393 . S
C1832 H1821 0.950 . S
C1832 C1830 1.391 . S
C1832 C1833 1.400 . S
C1833 C1827 1.491 . S
C1833 C1832 1.400 . S
C1833 C1834 1.398 . S
C1834 H1822 0.950 . S
C1834 C1833 1.398 . S
C1834 C1835 1.391 . S
C1835 H1823 0.950 . S
C1835 C1831 1.393 . S
C1835 C1834 1.391 . S
H1836 C1844 0.950 . S
H1837 C1849 0.950 . S
H1838 C1846 0.950 . S
H1839 C1848 0.950 . S
H1840 C1850 0.950 . S
H1841 C1852 0.950 . S
H1842 C1854 0.950 . S
H1843 C1855 0.950 . S
C1844 H1836 0.950 . S
C1844 C1845 1.386 . S
C1844 C1846 1.391 . S
C1845 C1844 1.386 . S
C1845 C1849 1.393 . S
C1846 H1838 0.950 . S
C1846 C1844 1.391 . S
C1846 C1847 1.400 . S
C1847 C1846 1.400 . S
C1847 C1848 1.398 . S
C1847 C1853 1.491 . S
C1848 H1839 0.950 . S
C1848 C1847 1.398 . S
C1848 C1849 1.391 . S
C1849 H1837 0.950 . S
C1849 C1845 1.393 . S
C1849 C1848 1.391 . S
C1850 H1840 0.950 . S
C1850 C1851 1.386 . S
C1850 C1852 1.391 . S
C1851 C1850 1.386 . S
C1851 C1855 1.393 . S
C1852 H1841 0.950 . S
C1852 C1850 1.391 . S
C1852 C1853 1.400 . S
C1853 C1847 1.491 . S
C1853 C1852 1.400 . S
C1853 C1854 1.398 . S
C1854 H1842 0.950 . S
C1854 C1853 1.398 . S
C1854 C1855 1.391 . S
C1855 H1843 0.950 . S
C1855 C1851 1.393 . S
C1855 C1854 1.391 . S
H1856 C1864 0.950 . S
H1857 C1869 0.950 . S
H1858 C1866 0.950 . S
H1859 C1868 0.950 . S
H1860 C1870 0.950 . S
H1861 C1872 0.950 . S
H1862 C1874 0.950 . S
H1863 C1875 0.950 . S
C1864 H1856 0.950 . S
C1864 C1865 1.386 . S
C1864 C1866 1.391 . S
C1865 C1864 1.386 . S
C1865 C1869 1.393 . S
C1866 H1858 0.950 . S
C1866 C1864 1.391 . S
C1866 C1867 1.400 . S
C1867 C1866 1.400 . S
C1867 C1868 1.398 . S
C1867 C1873 1.491 . S
C1868 H1859 0.950 . S
C1868 C1867 1.398 . S
C1868 C1869 1.391 . S
C1869 H1857 0.950 . S
C1869 C1865 1.393 . S
C1869 C1868 1.391 . S
C1870 H1860 0.950 . S
C1870 C1871 1.386 . S
C1870 C1872 1.391 . S
C1871 C1870 1.386 . S
C1871 C1875 1.393 . S
C1872 H1861 0.950 . S
C1872 C1870 1.391 . S
C1872 C1873 1.400 . S
C1873 C1867 1.491 . S
C1873 C1872 1.400 . S
C1873 C1874 1.398 . S
C1874 H1862 0.950 . S
C1874 C1873 1.398 . S
C1874 C1875 1.391 . S
C1875 H1863 0.950 . S
C1875 C1871 1.393 . S
C1875 C1874 1.391 . S
H1876 C1884 0.950 . S
H1877 C1889 0.950 . S
H1878 C1886 0.950 . S
H1879 C1888 0.950 . S
H1880 C1890 0.950 . S
H1881 C1892 0.950 . S
H1882 C1894 0.950 . S
H1883 C1895 0.950 . S
C1884 H1876 0.950 . S
C1884 C1885 1.386 . S
C1884 C1886 1.391 . S
C1885 C1884 1.386 . S
C1885 C1889 1.393 . S
C1886 H1878 0.950 . S
C1886 C1884 1.391 . S
C1886 C1887 1.400 . S
C1887 C1886 1.400 . S
C1887 C1888 1.398 . S
C1887 C1893 1.491 . S
C1888 H1879 0.950 . S
C1888 C1887 1.398 . S
C1888 C1889 1.391 . S
C1889 H1877 0.950 . S
C1889 C1885 1.393 . S
C1889 C1888 1.391 . S
C1890 H1880 0.950 . S
C1890 C1891 1.386 . S
C1890 C1892 1.391 . S
C1891 C1890 1.386 . S
C1891 C1895 1.393 . S
C1892 H1881 0.950 . S
C1892 C1890 1.391 . S
C1892 C1893 1.400 . S
C1893 C1887 1.491 . S
C1893 C1892 1.400 . S
C1893 C1894 1.398 . S
C1894 H1882 0.950 . S
C1894 C1893 1.398 . S
C1894 C1895 1.391 . S
C1895 H1883 0.950 . S
C1895 C1891 1.393 . S
C1895 C1894 1.391 . S
H1896 C1904 0.950 . S
H1897 C1909 0.950 . S
H1898 C1906 0.950 . S
H1899 C1908 0.950 . S
H1900 C1910 0.950 . S
H1901 C1912 0.950 . S
H1902 C1914 0.950 . S
H1903 C1915 0.950 . S
C1904 H1896 0.950 . S
C1904 C1905 1.386 . S
C1904 C1906 1.391 . S
C1905 C1904 1.386 . S
C1905 C1909 1.393 . S
C1906 H1898 0.950 . S
C1906 C1904 1.391 . S
C1906 C1907 1.400 . S
C1907 C1906 1.400 . S
C1907 C1908 1.398 . S
C1907 C1913 1.491 . S
C1908 H1899 0.950 . S
C1908 C1907 1.398 . S
C1908 C1909 1.391 . S
C1909 H1897 0.950 . S
C1909 C1905 1.393 . S
C1909 C1908 1.391 . S
C1910 H1900 0.950 . S
C1910 C1911 1.386 . S
C1910 C1912 1.391 . S
C1911 C1910 1.386 . S
C1911 C1915 1.393 . S
C1912 H1901 0.950 . S
C1912 C1910 1.391 . S
C1912 C1913 1.400 . S
C1913 C1907 1.491 . S
C1913 C1912 1.400 . S
C1913 C1914 1.398 . S
C1914 H1902 0.950 . S
C1914 C1913 1.398 . S
C1914 C1915 1.391 . S
C1915 H1903 0.950 . S
C1915 C1911 1.393 . S
C1915 C1914 1.391 . S
H1916 C1924 0.950 . S
H1917 C1929 0.950 . S
H1918 C1926 0.950 . S
H1919 C1928 0.950 . S
H1920 C1930 0.950 . S
H1921 C1932 0.950 . S
H1922 C1934 0.950 . S
H1923 C1935 0.950 . S
C1924 H1916 0.950 . S
C1924 C1925 1.386 . S
C1924 C1926 1.391 . S
C1925 C1924 1.386 . S
C1925 C1929 1.393 . S
C1926 H1918 0.950 . S
C1926 C1924 1.391 . S
C1926 C1927 1.400 . S
C1927 C1926 1.400 . S
C1927 C1928 1.398 . S
C1927 C1933 1.491 . S
C1928 H1919 0.950 . S
C1928 C1927 1.398 . S
C1928 C1929 1.391 . S
C1929 H1917 0.950 . S
C1929 C1925 1.393 . S
C1929 C1928 1.391 . S
C1930 H1920 0.950 . S
C1930 C1931 1.386 . S
C1930 C1932 1.391 . S
C1931 C1930 1.386 . S
C1931 C1935 1.393 . S
C1932 H1921 0.950 . S
C1932 C1930 1.391 . S
C1932 C1933 1.400 . S
C1933 C1927 1.491 . S
C1933 C1932 1.400 . S
C1933 C1934 1.398 . S
C1934 H1922 0.950 . S
C1934 C1933 1.398 . S
C1934 C1935 1.391 . S
C1935 H1923 0.950 . S
C1935 C1931 1.393 . S
C1935 C1934 1.391 . S
H1936 C1944 0.950 . S
H1937 C1949 0.950 . S
H1938 C1946 0.950 . S
H1939 C1948 0.950 . S
H1940 C1950 0.950 . S
H1941 C1952 0.950 . S
H1942 C1954 0.950 . S
H1943 C1955 0.950 . S
C1944 H1936 0.950 . S
C1944 C1945 1.386 . S
C1944 C1946 1.391 . S
C1945 C1944 1.386 . S
C1945 C1949 1.393 . S
C1946 H1938 0.950 . S
C1946 C1944 1.391 . S
C1946 C1947 1.400 . S
C1947 C1946 1.400 . S
C1947 C1948 1.398 . S
C1947 C1953 1.491 . S
C1948 H1939 0.950 . S
C1948 C1947 1.398 . S
C1948 C1949 1.391 . S
C1949 H1937 0.950 . S
C1949 C1945 1.393 . S
C1949 C1948 1.391 . S
C1950 H1940 0.950 . S
C1950 C1951 1.386 . S
C1950 C1952 1.391 . S
C1951 C1950 1.386 . S
C1951 C1955 1.393 . S
C1952 H1941 0.950 . S
C1952 C1950 1.391 . S
C1952 C1953 1.400 . S
C1953 C1947 1.491 . S
C1953 C1952 1.400 . S
C1953 C1954 1.398 . S
C1954 H1942 0.950 . S
C1954 C1953 1.398 . S
C1954 C1955 1.391 . S
C1955 H1943 0.950 . S
C1955 C1951 1.393 . S
C1955 C1954 1.391 . S
H1956 C1964 0.950 . S
H1957 C1969 0.950 . S
H1958 C1966 0.950 . S
H1959 C1968 0.950 . S
H1960 C1970 0.950 . S
H1961 C1972 0.950 . S
H1962 C1974 0.950 . S
H1963 C1975 0.950 . S
C1964 H1956 0.950 . S
C1964 C1965 1.386 . S
C1964 C1966 1.391 . S
C1965 C1964 1.386 . S
C1965 C1969 1.393 . S
C1966 H1958 0.950 . S
C1966 C1964 1.391 . S
C1966 C1967 1.400 . S
C1967 C1966 1.400 . S
C1967 C1968 1.398 . S
C1967 C1973 1.491 . S
C1968 H1959 0.950 . S
C1968 C1967 1.398 . S
C1968 C1969 1.391 . S
C1969 H1957 0.950 . S
C1969 C1965 1.393 . S
C1969 C1968 1.391 . S
C1970 H1960 0.950 . S
C1970 C1971 1.386 . S
C1970 C1972 1.391 . S
C1971 C1970 1.386 . S
C1971 C1975 1.393 . S
C1972 H1961 0.950 . S
C1972 C1970 1.391 . S
C1972 C1973 1.400 . S
C1973 C1967 1.491 . S
C1973 C1972 1.400 . S
C1973 C1974 1.398 . S
C1974 H1962 0.950 . S
C1974 C1973 1.398 . S
C1974 C1975 1.391 . S
C1975 H1963 0.950 . S
C1975 C1971 1.393 . S
C1975 C1974 1.391 . S
H1976 C1984 0.950 . S
H1977 C1989 0.950 . S
H1978 C1986 0.950 . S
H1979 C1988 0.950 . S
H1980 C1990 0.950 . S
H1981 C1992 0.950 . S
H1982 C1994 0.950 . S
H1983 C1995 0.950 . S
C1984 H1976 0.950 . S
C1984 C1985 1.386 . S
C1984 C1986 1.391 . S
C1985 C1984 1.386 . S
C1985 C1989 1.393 . S
C1986 H1978 0.950 . S
C1986 C1984 1.391 . S
C1986 C1987 1.400 . S
C1987 C1986 1.400 . S
C1987 C1988 1.398 . S
C1987 C1993 1.491 . S
C1988 H1979 0.950 . S
C1988 C1987 1.398 . S
C1988 C1989 1.391 . S
C1989 H1977 0.950 . S
C1989 C1985 1.393 . S
C1989 C1988 1.391 . S
C1990 H1980 0.950 . S
C1990 C1991 1.386 . S
C1990 C1992 1.391 . S
C1991 C1990 1.386 . S
C1991 C1995 1.393 . S
C1992 H1981 0.950 . S
C1992 C1990 1.391 . S
C1992 C1993 1.400 . S
C1993 C1987 1.491 . S
C1993 C1992 1.400 . S
C1993 C1994 1.398 . S
C1994 H1982 0.950 . S
C1994 C1993 1.398 . S
C1994 C1995 1.391 . S
C1995 H1983 0.950 . S
C1995 C1991 1.393 . S
C1995 C1994 1.391 . S
H1996 C2004 0.950 . S
H1997 C2009 0.950 . S
H1998 C2006 0.950 . S
H1999 C2008 0.950 . S
H2000 C2010 0.950 . S
H2001 C2012 0.950 . S
H2002 C2014 0.950 . S
H2003 C2015 0.950 . S
C2004 H1996 0.950 . S
C2004 C2005 1.386 . S
C2004 C2006 1.391 . S
C2005 C2004 1.386 . S
C2005 C2009 1.393 . S
C2006 H1998 0.950 . S
C2006 C2004 1.391 . S
C2006 C2007 1.400 . S
C2007 C2006 1.400 . S
C2007 C2008 1.398 . S
C2007 C2013 1.491 . S
C2008 H1999 0.950 . S
C2008 C2007 1.398 . S
C2008 C2009 1.391 . S
C2009 H1997 0.950 . S
C2009 C2005 1.393 . S
C2009 C2008 1.391 . S
C2010 H2000 0.950 . S
C2010 C2011 1.386 . S
C2010 C2012 1.391 . S
C2011 C2010 1.386 . S
C2011 C2015 1.393 . S
C2012 H2001 0.950 . S
C2012 C2010 1.391 . S
C2012 C2013 1.400 . S
C2013 C2007 1.491 . S
C2013 C2012 1.400 . S
C2013 C2014 1.398 . S
C2014 H2002 0.950 . S
C2014 C2013 1.398 . S
C2014 C2015 1.391 . S
C2015 H2003 0.950 . S
C2015 C2011 1.393 . S
C2015 C2014 1.391 . S
C745 N347 1.949 . S
C751 N2 1.962 . S
C765 N25 1.949 . S
C771 N278 1.962 . S
C785 N48 1.969 . S
C791 N301 1.942 . S
C805 N324 1.961 . S
C811 N71 1.950 . S
C825 N94 1.961 . S
C831 N209 1.950 . S
C845 N117 1.969 . S
C851 N232 1.942 . S
C865 N255 1.960 . S
C871 N140 1.951 . S
C885 N186 1.959 . S
C891 N163 1.952 . S
C905 N370 1.961 . S
C911 N715 1.950 . S
C925 N393 1.968 . S
C931 N646 1.943 . S
C945 N416 1.942 . S
C951 N669 1.969 . S
C965 N692 1.941 . S
C971 N439 1.969 . S
C985 N462 1.966 . S
C991 N577 1.945 . S
C1005 N485 1.950 . S
C1011 N600 1.961 . S
C1025 N623 1.947 . S
C1031 N508 1.964 . S
C1045 N531 1.951 . S
C1051 N554 1.960 . S
C1065 N288 2.044 . S
C1071 N12 2.040 . S
C1085 N35 2.040 . S
C1091 N311 2.044 . S
C1105 N334 2.041 . S
C1111 N58 2.042 . S
C1125 N81 2.042 . S
C1131 N357 2.042 . S
C1145 N104 2.038 . S
C1151 N196 2.046 . S
C1165 N219 2.042 . S
C1171 N127 2.042 . S
C1185 N242 2.050 . S
C1191 N150 2.033 . S
C1205 N265 2.036 . S
C1211 N173 2.048 . S
C1225 N380 2.044 . S
C1231 N656 2.040 . S
C1245 N679 2.040 . S
C1251 N403 2.044 . S
C1265 N426 2.049 . S
C1271 N702 2.035 . S
C1285 N449 2.034 . S
C1291 N725 2.050 . S
C1305 N564 2.043 . S
C1311 N472 2.041 . S
C1325 N495 2.042 . S
C1331 N587 2.042 . S
C1345 N518 2.050 . S
C1351 N610 2.033 . S
C1365 N541 2.041 . S
C1371 N633 2.043 . S
C1385 C7 1.579 . S
C1391 C237 1.582 . S
C1405 C260 1.585 . S
C1411 C30 1.575 . S
C1425 C53 1.576 . S
C1431 C191 1.584 . S
C1445 C214 1.587 . S
C1451 C76 1.574 . S
C1465 C329 1.577 . S
C1471 C99 1.584 . S
C1485 C352 1.579 . S
C1491 C122 1.582 . S
C1505 C283 1.583 . S
C1511 C145 1.577 . S
C1525 C168 1.584 . S
C1531 C306 1.576 . S
C1545 C605 1.574 . S
C1551 C375 1.587 . S
C1565 C398 1.585 . S
C1571 C628 1.575 . S
C1585 C559 1.581 . S
C1591 C421 1.579 . S
C1605 C582 1.578 . S
C1611 C444 1.582 . S
C1625 C467 1.577 . S
C1631 C697 1.583 . S
C1645 C490 1.585 . S
C1651 C720 1.575 . S
C1665 C651 1.576 . S
C1671 C513 1.585 . S
C1685 C674 1.586 . S
C1691 C536 1.574 . S
C1705 C545 1.536 . S
C1711 C16 1.529 . S
C1725 C476 1.546 . S
C1731 C39 1.548 . S
C1745 C499 1.543 . S
C1751 C62 1.549 . S
C1765 C522 1.538 . S
C1771 C85 1.548 . S
C1785 C407 1.548 . S
C1791 C108 1.538 . S
C1805 C131 1.530 . S
C1811 C430 1.533 . S
C1825 C154 1.548 . S
C1831 C453 1.546 . S
C1845 C177 1.544 . S
C1851 C384 1.532 . S
C1865 C200 1.534 . S
C1871 C729 1.546 . S
C1885 C660 1.545 . S
C1891 C223 1.532 . S
C1905 C246 1.535 . S
C1911 C683 1.547 . S
C1925 C269 1.534 . S
C1931 C706 1.546 . S
C1945 C591 1.548 . S
C1951 C292 1.545 . S
C1965 C614 1.530 . S
C1971 C315 1.541 . S
C1985 C338 1.535 . S
C1991 C637 1.530 . S
C2005 C361 1.543 . S
C2011 C568 1.549 . S
