# Generated by pormake.
# Topology unm, (4)-cn, num edge types: 1
# Building blocks:
#     Node 0, Type 0, BuildingBlock: QUQFOY_clean_sbu_1, # of connection points: 4
#     Node 1, Type 0, BuildingBlock: QUQFOY_clean_sbu_1, # of connection points: 4
#     Node 2, Type 0, BuildingBlock: QUQFOY_clean_sbu_1, # of connection points: 4
#     Node 3, Type 0, BuildingBlock: QUQFOY_clean_sbu_1, # of connection points: 4
#     Node 4, Type 0, BuildingBlock: QUQFOY_clean_sbu_1, # of connection points: 4
#     Node 5, Type 0, BuildingBlock: QUQFOY_clean_sbu_1, # of connection points: 4
#     Node 6, Type 0, BuildingBlock: QUQFOY_clean_sbu_1, # of connection points: 4
#     Node 7, Type 0, BuildingBlock: QUQFOY_clean_sbu_1, # of connection points: 4
#     Edge 8, Type (0, 0), BuildingBlock: MIFKUJ_clean_linker_0, # of connection points: 2
#     Edge 9, Type (0, 0), BuildingBlock: MIFKUJ_clean_linker_0, # of connection points: 2
#     Edge 10, Type (0, 0), BuildingBlock: MIFKUJ_clean_linker_0, # of connection points: 2
#     Edge 11, Type (0, 0), BuildingBlock: MIFKUJ_clean_linker_0, # of connection points: 2
#     Edge 12, Type (0, 0), BuildingBlock: MIFKUJ_clean_linker_0, # of connection points: 2
#     Edge 13, Type (0, 0), BuildingBlock: MIFKUJ_clean_linker_0, # of connection points: 2
#     Edge 14, Type (0, 0), BuildingBlock: MIFKUJ_clean_linker_0, # of connection points: 2
#     Edge 15, Type (0, 0), BuildingBlock: MIFKUJ_clean_linker_0, # of connection points: 2
#     Edge 16, Type (0, 0), BuildingBlock: MIFKUJ_clean_linker_0, # of connection points: 2
#     Edge 17, Type (0, 0), BuildingBlock: MIFKUJ_clean_linker_0, # of connection points: 2
#     Edge 18, Type (0, 0), BuildingBlock: MIFKUJ_clean_linker_0, # of connection points: 2
#     Edge 19, Type (0, 0), BuildingBlock: MIFKUJ_clean_linker_0, # of connection points: 2
#     Edge 20, Type (0, 0), BuildingBlock: MIFKUJ_clean_linker_0, # of connection points: 2
#     Edge 21, Type (0, 0), BuildingBlock: MIFKUJ_clean_linker_0, # of connection points: 2
#     Edge 22, Type (0, 0), BuildingBlock: MIFKUJ_clean_linker_0, # of connection points: 2
#     Edge 23, Type (0, 0), BuildingBlock: MIFKUJ_clean_linker_0, # of connection points: 2
# Relax obj value: 0.178
# Max RMSD: 0.175
# Mean RMSD: 0.175
data_MOF--net-unm--node1-QUQFOY_clean_sbu_1--edge1-MIFKUJ_clean_linker_0
_symmetry_space_group_name_H-M    P1
_symmetry_Int_Tables_number       1
_symmetry_cell_setting            triclinic
loop_
_symmetry_equiv_pos_as_xyz
'x, y, z'
_cell_length_a     35.419867
_cell_length_b     35.434456
_cell_length_c     57.294964
_cell_angle_alpha  89.996945
_cell_angle_beta   90.015959
_cell_angle_gamma 89.914306
loop_
_atom_site_label
_atom_site_type_symbol
_atom_site_fract_x
_atom_site_fract_y
_atom_site_fract_z
_atom_type_partial_charge
O0 O 0.19982 0.27184 0.12661 0.0
Cd1 Cd 0.19242 0.29838 0.15824 0.0
Cd2 Cd 0.12653 0.25054 0.1566 0.0
O3 O 0.15287 0.23087 0.12696 0.0
O4 O 0.24202 0.3234 0.16342 0.0
O5 O 0.21909 0.27979 0.18711 0.0
C6 C 0.24604 0.30276 0.18176 0.0
C7 C 0.08699 0.21085 0.17803 0.0
C8 C 0.18176 0.24492 0.11713 0.0
C9 C 0.11731 0.33633 0.15832 0.0
O10 O 0.10332 0.30363 0.15591 0.0
O11 O 0.15273 0.34081 0.1603 0.0
O12 O 0.0792 0.22063 0.15696 0.0
O13 O 0.11914 0.2212 0.18651 0.0
O14 O 0.19477 0.71042 0.62712 0.0
Cd15 Cd 0.17071 0.70706 0.66 0.0
Cd16 Cd 0.21145 0.63722 0.65794 0.0
O17 O 0.23438 0.66234 0.62902 0.0
O18 O 0.15088 0.75889 0.66549 0.0
O19 O 0.19504 0.73267 0.68749 0.0
C20 C 0.17382 0.76142 0.68287 0.0
C21 C 0.24745 0.59265 0.67841 0.0
C22 C 0.22124 0.6908 0.61826 0.0
C23 C 0.12566 0.63661 0.66063 0.0
O24 O 0.15634 0.6198 0.65585 0.0
O25 O 0.12518 0.67172 0.66498 0.0
O26 O 0.23627 0.58688 0.65738 0.0
O27 O 0.24015 0.62509 0.68763 0.0
O28 O 0.80276 0.73294 0.12425 0.0
Cd29 Cd 0.80451 0.70625 0.15625 0.0
Cd30 Cd 0.8755 0.74794 0.15661 0.0
O31 O 0.8526 0.77019 0.12664 0.0
O32 O 0.75232 0.68624 0.15993 0.0
O33 O 0.77779 0.72693 0.18458 0.0
C34 C 0.74922 0.70656 0.17847 0.0
C35 C 0.92173 0.78274 0.17649 0.0
C36 C 0.82389 0.7583 0.11558 0.0
C37 C 0.8751 0.66112 0.15757 0.0
O38 O 0.89209 0.69247 0.15571 0.0
O39 O 0.83938 0.6599 0.15921 0.0
O40 O 0.92683 0.77047 0.15564 0.0
O41 O 0.88892 0.77767 0.18576 0.0
O42 O 0.76683 0.29788 0.63143 0.0
Cd43 Cd 0.78104 0.30367 0.66641 0.0
Cd44 Cd 0.73423 0.36328 0.65902 0.0
O45 O 0.71399 0.33068 0.63242 0.0
O46 O 0.81043 0.25732 0.67405 0.0
O47 O 0.75418 0.26966 0.68912 0.0
C48 C 0.78279 0.2472 0.68722 0.0
C49 C 0.69739 0.40557 0.68019 0.0
C50 C 0.73616 0.30834 0.6218 0.0
C51 C 0.81499 0.37872 0.66586 0.0
O52 O 0.78615 0.38719 0.65388 0.0
O53 O 0.81647 0.34723 0.67637 0.0
O54 O 0.70284 0.40964 0.65813 0.0
O55 O 0.70961 0.37499 0.6899 0.0
O56 O 0.70302 0.22386 0.36751 0.0
Cd57 Cd 0.69817 0.19617 0.3359 0.0
Cd58 Cd 0.6263 0.23559 0.33977 0.0
O59 O 0.65248 0.26046 0.36771 0.0
O60 O 0.74936 0.17341 0.33304 0.0
O61 O 0.72631 0.21369 0.30725 0.0
C62 C 0.75379 0.1924 0.3141 0.0
C63 C 0.58085 0.26912 0.31849 0.0
C64 C 0.683 0.24932 0.3771 0.0
C65 C 0.62814 0.14982 0.33916 0.0
O66 O 0.6106 0.18024 0.34355 0.0
O67 O 0.6629 0.15012 0.3338 0.0
O68 O 0.57548 0.25957 0.33988 0.0
O69 O 0.61336 0.26171 0.30937 0.0
O70 O 0.3021 0.20936 0.86887 0.0
Cd71 Cd 0.32832 0.20776 0.83693 0.0
Cd72 Cd 0.28507 0.13795 0.83436 0.0
O73 O 0.26451 0.15998 0.86523 0.0
O74 O 0.34525 0.2604 0.83106 0.0
O75 O 0.30376 0.23071 0.80872 0.0
C76 C 0.32283 0.2609 0.81332 0.0
C77 C 0.24711 0.09324 0.81533 0.0
C78 C 0.27636 0.18809 0.87689 0.0
C79 C 0.37245 0.13754 0.83232 0.0
O80 O 0.34065 0.12106 0.83259 0.0
O81 O 0.37461 0.17322 0.83365 0.0
O82 O 0.26213 0.08679 0.83534 0.0
O83 O 0.25184 0.1263 0.80636 0.0
O84 O 0.30231 0.76734 0.36653 0.0
Cd85 Cd 0.31279 0.78796 0.33327 0.0
Cd86 Cd 0.37507 0.74308 0.34227 0.0
O87 O 0.34275 0.72007 0.36818 0.0
O88 O 0.26591 0.81752 0.32729 0.0
O89 O 0.28297 0.76868 0.30574 0.0
C90 C 0.25891 0.79517 0.31013 0.0
C91 C 0.41588 0.70895 0.31854 0.0
C92 C 0.31539 0.73842 0.37694 0.0
C93 C 0.38715 0.82525 0.33846 0.0
O94 O 0.39751 0.79528 0.3487 0.0
O95 O 0.35541 0.82682 0.32822 0.0
O96 O 0.42172 0.71223 0.34064 0.0
O97 O 0.38454 0.72197 0.3102 0.0
O98 O 0.74488 0.79189 0.86452 0.0
Cd99 Cd 0.71512 0.80066 0.834 0.0
Cd100 Cd 0.76234 0.86067 0.83395 0.0
O101 O 0.79177 0.83169 0.85908 0.0
O102 O 0.6872 0.75238 0.82995 0.0
O103 O 0.72931 0.77309 0.80451 0.0
C104 C 0.70574 0.74726 0.81087 0.0
C105 C 0.78958 0.89399 0.80342 0.0
C106 C 0.77625 0.80578 0.871 0.0
C107 C 0.68057 0.87617 0.84079 0.0
O108 O 0.71399 0.88737 0.84467 0.0
O109 O 0.67462 0.84264 0.83386 0.0
O110 O 0.79507 0.90364 0.82483 0.0
O111 O 0.77143 0.86305 0.79935 0.0
H112 H 0.14407 0.19591 0.08835 0.0
H113 H 0.15748 0.18293 0.04725 0.0
H114 H 0.25669 0.25312 0.05103 0.0
H115 H 0.2434 0.26658 0.09194 0.0
H116 H 0.21127 0.27255 0.01498 0.0
H117 H 0.26374 0.15755 0.04697 0.0
H118 H 0.26198 0.09864 0.06986 0.0
H119 H 0.17183 0.05706 0.0269 0.0
H120 H 0.17272 0.11596 0.00393 0.0
H121 H 0.30533 0.23533 0.90987 0.0
H122 H 0.28529 0.24234 0.95025 0.0
H123 H 0.19476 0.16315 0.93862 0.0
H124 H 0.21552 0.15496 0.89818 0.0
H125 H 0.22911 0.14728 0.97794 0.0
H126 H 0.17803 0.25957 0.94459 0.0
H127 H 0.17808 0.31835 0.92155 0.0
H128 H 0.26232 0.36536 0.96689 0.0
H129 H 0.26317 0.30667 0.99002 0.0
C130 C 0.1691 0.20808 0.08055 0.0
C131 C 0.19252 0.23251 0.09339 0.0
C132 C 0.17673 0.20059 0.05706 0.0
C133 C 0.20802 0.21716 0.04611 0.0
C134 C 0.23226 0.24026 0.05914 0.0
C135 C 0.22466 0.2478 0.08255 0.0
C136 C 0.21439 0.21257 0.02074 0.0
C137 C 0.21561 0.2452 0.0069 0.0
C138 C 0.21847 0.17677 0.01013 0.0
C139 C 0.21803 0.14133 0.02389 0.0
C140 C 0.24333 0.13598 0.04253 0.0
C141 C 0.24253 0.10256 0.05549 0.0
C142 C 0.21674 0.07417 0.04988 0.0
C143 C 0.19175 0.0791 0.03125 0.0
C144 C 0.19241 0.11247 0.01824 0.0
C145 C 0.28088 0.21968 0.91577 0.0
C146 C 0.26195 0.19466 0.90077 0.0
C147 C 0.26936 0.22383 0.93889 0.0
C148 C 0.23818 0.20367 0.9474 0.0
C149 C 0.21887 0.17902 0.93241 0.0
C150 C 0.23067 0.1745 0.90929 0.0
C151 C 0.22689 0.20739 0.97221 0.0
C152 C 0.22453 0.17464 0.98596 0.0
C153 C 0.22142 0.24311 0.98275 0.0
C154 C 0.22084 0.27858 0.96895 0.0
C155 C 0.19675 0.28234 0.94956 0.0
C156 C 0.19659 0.31567 0.9365 0.0
C157 C 0.22024 0.34554 0.94273 0.0
C158 C 0.24403 0.34219 0.96207 0.0
C159 C 0.24432 0.30892 0.97519 0.0
H160 H 0.22008 0.37131 0.93258 0.0
H161 H 0.21616 0.04833 0.05994 0.0
H162 H 0.27478 0.6527 0.59319 0.0
H163 H 0.29091 0.66118 0.55216 0.0
H164 H 0.21388 0.75533 0.54778 0.0
H165 H 0.19706 0.74674 0.58881 0.0
H166 H 0.20267 0.70626 0.51279 0.0
H167 H 0.30909 0.76898 0.54674 0.0
H168 H 0.36414 0.77599 0.57273 0.0
H169 H 0.41796 0.68139 0.53969 0.0
H170 H 0.36299 0.67348 0.5137 0.0
H171 H 0.26055 0.77458 0.40194 0.0
H172 H 0.24402 0.7648 0.44276 0.0
H173 H 0.32209 0.67142 0.44655 0.0
H174 H 0.33943 0.68145 0.40571 0.0
H175 H 0.33275 0.71954 0.48184 0.0
H176 H 0.22622 0.65729 0.44757 0.0
H177 H 0.17125 0.6509 0.42146 0.0
H178 H 0.11762 0.74513 0.45501 0.0
H179 H 0.17251 0.75242 0.48113 0.0
C180 C 0.2616 0.67557 0.58363 0.0
C181 C 0.2345 0.69897 0.59429 0.0
C182 C 0.27096 0.68042 0.56017 0.0
C183 C 0.25368 0.70896 0.54694 0.0
C184 C 0.22746 0.73307 0.55768 0.0
C185 C 0.21803 0.72822 0.58116 0.0
C186 C 0.26149 0.71229 0.52163 0.0
C187 C 0.23106 0.70973 0.50601 0.0
C188 C 0.29863 0.71572 0.51282 0.0
C189 C 0.33174 0.72042 0.52842 0.0
C190 C 0.33252 0.74947 0.54515 0.0
C191 C 0.36374 0.75364 0.55985 0.0
C192 C 0.39448 0.72909 0.5579 0.0
C193 C 0.39411 0.70036 0.5412 0.0
C194 C 0.36294 0.69605 0.52646 0.0
C195 C 0.27383 0.75155 0.4113 0.0
C196 C 0.30145 0.72888 0.40056 0.0
C197 C 0.26424 0.74594 0.43466 0.0
C198 C 0.28172 0.7173 0.44768 0.0
C199 C 0.30832 0.69375 0.43681 0.0
C200 C 0.31805 0.69941 0.41343 0.0
C201 C 0.27393 0.7135 0.47298 0.0
C202 C 0.30437 0.71599 0.4886 0.0
C203 C 0.23679 0.71005 0.48179 0.0
C204 C 0.20364 0.7056 0.46618 0.0
C205 C 0.20283 0.67683 0.44927 0.0
C206 C 0.17166 0.67301 0.43449 0.0
C207 C 0.141 0.69765 0.43654 0.0
C208 C 0.14141 0.72609 0.45343 0.0
C209 C 0.17252 0.73005 0.46824 0.0
H210 H 0.1169 0.69465 0.42507 0.0
H211 H 0.41863 0.73237 0.5693 0.0
H212 H 0.76999 0.73327 0.08519 0.0
H213 H 0.76781 0.74353 0.04312 0.0
H214 H 0.86253 0.81941 0.04799 0.0
H215 H 0.86505 0.80941 0.09023 0.0
H216 H 0.80613 0.84307 0.01606 0.0
H217 H 0.88066 0.73327 0.03319 0.0
H218 H 0.89372 0.67184 0.05175 0.0
H219 H 0.79927 0.62288 0.01588 0.0
H220 H 0.78528 0.68421 -0.00262 0.0
H221 H 0.83575 0.838 0.89426 0.0
H222 H 0.85139 0.83025 0.93557 0.0
H223 H 0.76553 0.74464 0.94194 0.0
H224 H 0.75024 0.7516 0.90072 0.0
H225 H 0.82525 0.7276 0.96837 0.0
H226 H 0.74648 0.83687 0.9546 0.0
H227 H 0.73041 0.89808 0.93663 0.0
H228 H 0.82988 0.94764 0.96649 0.0
H229 H 0.84681 0.88653 0.98438 0.0
C230 C 0.78996 0.75272 0.07746 0.0
C231 C 0.81802 0.77014 0.09107 0.0
C232 C 0.78876 0.75839 0.05338 0.0
C233 C 0.81551 0.78158 0.04248 0.0
C234 C 0.84184 0.80117 0.05613 0.0
C235 C 0.8432 0.7954 0.08025 0.0
C236 C 0.81731 0.78336 0.01672 0.0
C237 C 0.81096 0.818 0.0056 0.0
C238 C 0.82314 0.75047 0.00317 0.0
C239 C 0.83175 0.71342 0.01405 0.0
C240 C 0.86251 0.70947 0.02939 0.0
C241 C 0.8701 0.67466 0.03988 0.0
C242 C 0.84729 0.64349 0.03503 0.0
C243 C 0.8169 0.64706 0.01963 0.0
C244 C 0.80914 0.68183 0.00912 0.0
C245 C 0.82084 0.81686 0.90431 0.0
C246 C 0.79135 0.79581 0.89427 0.0
C247 C 0.82965 0.81265 0.92795 0.0
C248 C 0.80899 0.78752 0.94192 0.0
C249 C 0.78164 0.7644 0.93152 0.0
C250 C 0.77289 0.76849 0.90792 0.0
C251 C 0.81342 0.78722 0.96763 0.0
C252 C 0.82095 0.75281 0.97879 0.0
C253 C 0.80838 0.82028 0.98121 0.0
C254 C 0.79814 0.85705 0.97058 0.0
C255 C 0.76507 0.86076 0.95718 0.0
C256 C 0.75578 0.89543 0.94703 0.0
C257 C 0.77917 0.9267 0.95036 0.0
C258 C 0.81184 0.92337 0.96389 0.0
C259 C 0.82129 0.88874 0.97404 0.0
H260 H 0.77193 0.95352 0.94249 0.0
H261 H 0.85321 0.61657 0.04318 0.0
H262 H 0.7459 0.23157 0.40254 0.0
H263 H 0.75663 0.24392 0.44391 0.0
H264 H 0.65309 0.30793 0.44709 0.0
H265 H 0.64227 0.29618 0.40561 0.0
H266 H 0.70859 0.33942 0.47387 0.0
H267 H 0.65299 0.21693 0.46266 0.0
H268 H 0.64849 0.15307 0.4458 0.0
H269 H 0.756 0.12415 0.47552 0.0
H270 H 0.7614 0.18807 0.49229 0.0
H271 H 0.67583 0.32952 0.59499 0.0
H272 H 0.66777 0.32005 0.55308 0.0
H273 H 0.77131 0.25593 0.5508 0.0
H274 H 0.77947 0.26485 0.59279 0.0
H275 H 0.71664 0.22481 0.52351 0.0
H276 H 0.77164 0.34719 0.53536 0.0
H277 H 0.7758 0.41102 0.55229 0.0
H278 H 0.66911 0.44015 0.52152 0.0
H279 H 0.66405 0.37627 0.50467 0.0
C280 C 0.72572 0.24886 0.41189 0.0
C281 C 0.69294 0.26245 0.40083 0.0
C282 C 0.73184 0.25575 0.43557 0.0
C283 C 0.70521 0.27609 0.44863 0.0
C284 C 0.67384 0.29193 0.43732 0.0
C285 C 0.66772 0.28515 0.41361 0.0
C286 C 0.70872 0.27866 0.47431 0.0
C287 C 0.70996 0.3144 0.48476 0.0
C288 C 0.71109 0.24594 0.48843 0.0
C289 C 0.70777 0.2074 0.47853 0.0
C290 C 0.6758 0.19704 0.46546 0.0
C291 C 0.67307 0.16083 0.45594 0.0
C292 C 0.70199 0.1346 0.45953 0.0
C293 C 0.73365 0.14451 0.47272 0.0
C294 C 0.73655 0.18072 0.48225 0.0
C295 C 0.69665 0.31294 0.58567 0.0
C296 C 0.7285 0.29824 0.59721 0.0
C297 C 0.69209 0.30776 0.5617 0.0
C298 C 0.71935 0.28796 0.54881 0.0
C299 C 0.7501 0.27152 0.56044 0.0
C300 C 0.7547 0.27667 0.58444 0.0
C301 C 0.71654 0.28557 0.52309 0.0
C302 C 0.71537 0.24985 0.51263 0.0
C303 C 0.7142 0.31831 0.50898 0.0
C304 C 0.7173 0.35683 0.51894 0.0
C305 C 0.74893 0.36712 0.53234 0.0
C306 C 0.75147 0.40332 0.54191 0.0
C307 C 0.72269 0.42959 0.53803 0.0
C308 C 0.69136 0.41975 0.52453 0.0
C309 C 0.68865 0.38356 0.51495 0.0
H310 H 0.72471 0.45761 0.54545 0.0
H311 H 0.69982 0.10657 0.45215 0.0
H312 H 0.25739 0.27916 0.22675 0.0
H313 H 0.31628 0.2823 0.24931 0.0
H314 H 0.37267 0.3332 0.19057 0.0
H315 H 0.31392 0.33104 0.16814 0.0
H316 H 0.40982 0.26706 0.21244 0.0
H317 H 0.3563 0.38876 0.23055 0.0
H318 H 0.30606 0.4318 0.244 0.0
H319 H 0.30505 0.37692 0.31082 0.0
H320 H 0.35493 0.33316 0.29764 0.0
H321 H 0.58154 0.29305 0.27285 0.0
H322 H 0.52661 0.30835 0.24859 0.0
H323 H 0.45344 0.29179 0.30793 0.0
H324 H 0.50795 0.27818 0.3323 0.0
H325 H 0.42616 0.34576 0.28335 0.0
H326 H 0.4717 0.22079 0.26623 0.0
H327 H 0.51861 0.17302 0.25433 0.0
H328 H 0.53087 0.22759 0.18784 0.0
H329 H 0.48434 0.27598 0.19949 0.0
C330 C 0.28231 0.29117 0.21871 0.0
C331 C 0.28107 0.3049 0.19571 0.0
C332 C 0.31581 0.29304 0.23161 0.0
C333 C 0.34865 0.30809 0.22156 0.0
C334 C 0.34755 0.32158 0.19859 0.0
C335 C 0.31395 0.3204 0.18586 0.0
C336 C 0.38448 0.30875 0.23481 0.0
C337 C 0.41375 0.28471 0.22773 0.0
C338 C 0.38899 0.33109 0.25504 0.0
C339 C 0.35909 0.35745 0.26302 0.0
C340 C 0.34512 0.38563 0.24804 0.0
C341 C 0.31676 0.41021 0.25563 0.0
C342 C 0.3023 0.40703 0.27823 0.0
C343 C 0.31624 0.37932 0.2933 0.0
C344 C 0.34458 0.35465 0.28579 0.0
C345 C 0.5538 0.29345 0.28079 0.0
C346 C 0.54909 0.28403 0.30443 0.0
C347 C 0.52239 0.30192 0.26688 0.0
C348 C 0.48573 0.30033 0.27628 0.0
C349 C 0.48132 0.29309 0.3002 0.0
C350 C 0.51263 0.28518 0.31413 0.0
C351 C 0.45171 0.30368 0.26119 0.0
C352 C 0.4226 0.32839 0.26792 0.0
C353 C 0.44699 0.28129 0.24089 0.0
C354 C 0.47492 0.25224 0.23383 0.0
C355 C 0.48462 0.22274 0.24914 0.0
C356 C 0.5111 0.19554 0.24243 0.0
C357 C 0.52781 0.19734 0.22037 0.0
C358 C 0.51797 0.22629 0.20495 0.0
C359 C 0.49155 0.2536 0.21158 0.0
H360 H 0.54829 0.17624 0.21521 0.0
H361 H 0.28035 0.42609 0.28407 0.0
H362 H 0.1441 0.83008 0.67175 0.0
H363 H 0.14844 0.88876 0.69403 0.0
H364 H 0.21183 0.83119 0.74756 0.0
H365 H 0.20807 0.77227 0.7252 0.0
H366 H 0.15085 0.87986 0.76403 0.0
H367 H 0.25898 0.88154 0.7119 0.0
H368 H 0.28953 0.87835 0.67328 0.0
H369 H 0.22425 0.97348 0.65014 0.0
H370 H 0.19291 0.97689 0.68856 0.0
H371 H 0.24227 0.01981 0.82848 0.0
H372 H 0.22031 0.96674 0.80554 0.0
H373 H 0.18718 0.04242 0.75013 0.0
H374 H 0.21092 0.09609 0.77286 0.0
H375 H 0.22446 0.98739 0.73244 0.0
H376 H 0.12089 0.99172 0.78464 0.0
H377 H 0.08761 0.99584 0.82234 0.0
H378 H 0.13853 0.89169 0.84431 0.0
H379 H 0.17255 0.88718 0.80687 0.0
C380 C 0.15888 0.82982 0.6883 0.0
C381 C 0.17586 0.79657 0.69671 0.0
C382 C 0.16134 0.86338 0.70097 0.0
C383 C 0.18051 0.86424 0.72236 0.0
C384 C 0.19685 0.83098 0.73107 0.0
C385 C 0.19484 0.79745 0.71824 0.0
C386 C 0.18438 0.90009 0.73537 0.0
C387 C 0.16717 0.90335 0.7573 0.0
C388 C 0.20433 0.93113 0.72603 0.0
C389 C 0.2233 0.92919 0.703 0.0
C390 C 0.25089 0.90156 0.69851 0.0
C391 C 0.2684 0.89975 0.67667 0.0
C392 C 0.25875 0.92562 0.65924 0.0
C393 C 0.23165 0.95342 0.66364 0.0
C394 C 0.21402 0.95531 0.68545 0.0
C395 C 0.22976 0.02542 0.81158 0.0
C396 C 0.2284 0.06225 0.80248 0.0
C397 C 0.21689 0.9949 0.79849 0.0
C398 C 0.2015 0.00045 0.77618 0.0
C399 C 0.19885 0.0374 0.76733 0.0
C400 C 0.21226 0.06807 0.78035 0.0
C401 C 0.19151 0.96726 0.76155 0.0
C402 C 0.20758 0.96433 0.73921 0.0
C403 C 0.16996 0.93674 0.77039 0.0
C404 C 0.14947 0.93924 0.79296 0.0
C405 C 0.12521 0.96981 0.79756 0.0
C406 C 0.10617 0.9722 0.81889 0.0
C407 C 0.111 0.94408 0.83572 0.0
C408 C 0.13482 0.91346 0.83125 0.0
C409 C 0.15394 0.91094 0.80996 0.0
H410 H 0.09624 0.94599 0.85222 0.0
H411 H 0.27234 0.92418 0.64235 0.0
H412 H 0.48779 0.69119 0.33116 0.0
H413 H 0.54249 0.68625 0.30554 0.0
H414 H 0.47011 0.69438 0.24529 0.0
H415 H 0.41482 0.70038 0.27087 0.0
H416 H 0.53932 0.63727 0.24591 0.0
H417 H 0.50076 0.76842 0.25538 0.0
H418 H 0.48152 0.82294 0.27938 0.0
H419 H 0.58641 0.81741 0.31682 0.0
H420 H 0.60591 0.76229 0.29336 0.0
H421 H 0.67962 0.68458 0.16378 0.0
H422 H 0.62139 0.68176 0.1864 0.0
H423 H 0.68087 0.7228 0.24707 0.0
H424 H 0.73899 0.72739 0.22406 0.0
H425 H 0.61595 0.7545 0.24586 0.0
H426 H 0.65645 0.62629 0.23863 0.0
H427 H 0.67726 0.56847 0.21839 0.0
H428 H 0.57252 0.56467 0.18072 0.0
H429 H 0.55127 0.62277 0.20052 0.0
C430 C 0.48321 0.69101 0.31246 0.0
C431 C 0.44692 0.69658 0.30304 0.0
C432 C 0.51459 0.68826 0.29788 0.0
C433 C 0.51023 0.69043 0.27363 0.0
C434 C 0.47387 0.69275 0.26402 0.0
C435 C 0.44237 0.69612 0.27865 0.0
C436 C 0.54399 0.69408 0.25869 0.0
C437 C 0.55585 0.66302 0.2455 0.0
C438 C 0.566 0.72733 0.25897 0.0
C439 C 0.5546 0.76094 0.27279 0.0
C440 C 0.51956 0.77857 0.26889 0.0
C441 C 0.50863 0.80963 0.28237 0.0
C442 C 0.53267 0.82356 0.29967 0.0
C443 C 0.56777 0.80654 0.30345 0.0
C444 C 0.57877 0.77539 0.29006 0.0
C445 C 0.68028 0.69309 0.18194 0.0
C446 C 0.71391 0.70598 0.19221 0.0
C447 C 0.64698 0.69124 0.19491 0.0
C448 C 0.64679 0.70121 0.21864 0.0
C449 C 0.68026 0.71479 0.22882 0.0
C450 C 0.71348 0.71736 0.21569 0.0
C451 C 0.6117 0.69757 0.23275 0.0
C452 C 0.59953 0.72869 0.24597 0.0
C453 C 0.58977 0.66406 0.23281 0.0
C454 C 0.60244 0.62909 0.22089 0.0
C455 C 0.63797 0.61328 0.2259 0.0
C456 C 0.64983 0.58043 0.21453 0.0
C457 C 0.62627 0.56297 0.19823 0.0
C458 C 0.59076 0.57826 0.19332 0.0
C459 C 0.57878 0.61113 0.20463 0.0
H460 H 0.6355 0.53754 0.18945 0.0
H461 H 0.52415 0.8476 0.31009 0.0
H462 H 0.72386 0.19939 0.69458 0.0
H463 H 0.72665 0.13515 0.71014 0.0
H464 H 0.8463 0.14807 0.72245 0.0
H465 H 0.84387 0.2111 0.70518 0.0
H466 H 0.83763 0.08348 0.70685 0.0
H467 H 0.77261 0.15093 0.76723 0.0
H468 H 0.72342 0.19195 0.78415 0.0
H469 H 0.63787 0.11325 0.76309 0.0
H470 H 0.68653 0.07199 0.74574 0.0
H471 H 0.84436 0.94782 0.80277 0.0
H472 H 0.84591 0.00365 0.77755 0.0
H473 H 0.75196 0.96008 0.73812 0.0
H474 H 0.75101 0.90355 0.76278 0.0
H475 H 0.74583 0.03646 0.7653 0.0
H476 H 0.81733 0.967 0.70767 0.0
H477 H 0.87047 0.92742 0.6944 0.0
H478 H 0.949 0.0127 0.7161 0.0
H479 H 0.89633 0.05257 0.72982 0.0
C480 C 0.75061 0.18851 0.70084 0.0
C481 C 0.7836 0.21014 0.69887 0.0
C482 C 0.75223 0.15183 0.70982 0.0
C483 C 0.78661 0.1367 0.71791 0.0
C484 C 0.81943 0.15881 0.71628 0.0
C485 C 0.81802 0.19495 0.70659 0.0
C486 C 0.78872 0.09768 0.72761 0.0
C487 C 0.8177 0.07352 0.71982 0.0
C488 C 0.76248 0.08406 0.74429 0.0
C489 C 0.73318 0.10861 0.75493 0.0
C490 C 0.74329 0.1425 0.76607 0.0
C491 C 0.7155 0.16577 0.77575 0.0
C492 C 0.67754 0.1553 0.7746 0.0
C493 C 0.66728 0.12138 0.76391 0.0
C494 C 0.69495 0.09803 0.75416 0.0
C495 C 0.82502 0.94947 0.78815 0.0
C496 C 0.7976 0.92138 0.78469 0.0
C497 C 0.82586 0.98138 0.77384 0.0
C498 C 0.7989 0.98593 0.75614 0.0
C499 C 0.77304 0.95688 0.75168 0.0
C500 C 0.77275 0.92451 0.76566 0.0
C501 C 0.79466 0.02298 0.7446 0.0
C502 C 0.76541 0.04667 0.75217 0.0
C503 C 0.8212 0.03649 0.72829 0.0
C504 C 0.85289 0.0126 0.71999 0.0
C505 C 0.84594 0.97715 0.70983 0.0
C506 C 0.87598 0.95471 0.70217 0.0
C507 C 0.91309 0.96749 0.70446 0.0
C508 C 0.92024 0.00281 0.71436 0.0
C509 C 0.8903 0.02536 0.72205 0.0
H510 H 0.93631 0.95008 0.69852 0.0
H511 H 0.65609 0.17348 0.78199 0.0
H512 H 0.766 0.20805 0.26793 0.0
H513 H 0.82563 0.20169 0.24635 0.0
H514 H 0.88171 0.16529 0.30925 0.0
H515 H 0.82223 0.17053 0.33075 0.0
H516 H 0.91707 0.22831 0.28045 0.0
H517 H 0.86868 0.1007 0.2767 0.0
H518 H 0.81987 0.05308 0.26825 0.0
H519 H 0.81732 0.08797 0.1965 0.0
H520 H 0.86574 0.13623 0.20461 0.0
H521 H 0.08994 0.1943 0.22484 0.0
H522 H 0.03603 0.18026 0.25013 0.0
H523 H 0.96288 0.17711 0.18992 0.0
H524 H 0.01651 0.18954 0.16463 0.0
H525 H 0.93768 0.1296 0.2203 0.0
H526 H 0.97712 0.25926 0.22213 0.0
H527 H 0.02174 0.31182 0.22785 0.0
H528 H 0.03638 0.27978 0.29958 0.0
H529 H 0.99218 0.22668 0.29417 0.0
C530 C 0.79106 0.1987 0.27712 0.0
C531 C 0.78953 0.18971 0.30098 0.0
C532 C 0.82496 0.19496 0.26479 0.0
C533 C 0.85783 0.18287 0.27627 0.0
C534 C 0.85653 0.17454 0.30014 0.0
C535 C 0.82255 0.17748 0.31234 0.0
C536 C 0.89381 0.1795 0.26342 0.0
C537 C 0.92198 0.20637 0.26758 0.0
C538 C 0.89948 0.15146 0.24625 0.0
C539 C 0.87054 0.12233 0.24132 0.0
C540 C 0.85745 0.09847 0.25917 0.0
C541 C 0.82991 0.07131 0.25443 0.0
C542 C 0.81543 0.06757 0.23187 0.0
C543 C 0.82853 0.09093 0.21398 0.0
C544 C 0.85604 0.11817 0.21863 0.0
C545 C 0.06258 0.18947 0.21695 0.0
C546 C 0.05739 0.19365 0.19277 0.0
C547 C 0.03172 0.18175 0.23144 0.0
C548 C 0.9952 0.17875 0.22198 0.0
C549 C 0.99067 0.1796 0.19767 0.0
C550 C 0.02146 0.18685 0.18321 0.0
C551 C 0.96124 0.1786 0.23719 0.0
C552 C 0.93323 0.15123 0.23342 0.0
C553 C 0.95525 0.20682 0.25435 0.0
C554 C 0.98174 0.23875 0.25767 0.0
C555 C 0.99008 0.26327 0.23907 0.0
C556 C 0.01525 0.29317 0.24227 0.0
C557 C 0.03198 0.29906 0.26405 0.0
C558 C 0.02347 0.27512 0.28271 0.0
C559 C 0.99836 0.24512 0.27959 0.0
H560 H 0.05146 0.32224 0.2665 0.0
H561 H 0.79411 0.04651 0.22823 0.0
H562 H 0.25892 0.52049 0.66393 0.0
H563 H 0.27668 0.46625 0.68765 0.0
H564 H 0.29162 0.53868 0.74737 0.0
H565 H 0.27314 0.59358 0.72373 0.0
H566 H 0.34965 0.47667 0.73924 0.0
H567 H 0.21542 0.49906 0.74713 0.0
H568 H 0.15135 0.5108 0.73191 0.0
H569 H 0.15483 0.40589 0.69448 0.0
H570 H 0.21925 0.39383 0.70916 0.0
H571 H 0.3449 0.33215 0.82474 0.0
H572 H 0.33643 0.38979 0.80207 0.0
H573 H 0.28404 0.32558 0.74686 0.0
H574 H 0.29102 0.26791 0.77 0.0
H575 H 0.24559 0.38584 0.7534 0.0
H576 H 0.37751 0.36176 0.74367 0.0
H577 H 0.443 0.34874 0.75589 0.0
H578 H 0.44621 0.45375 0.79323 0.0
H579 H 0.38053 0.46718 0.78148 0.0
C580 C 0.26656 0.52517 0.682 0.0
C581 C 0.26431 0.56137 0.69201 0.0
C582 C 0.27665 0.49406 0.69552 0.0
C583 C 0.28503 0.49851 0.71924 0.0
C584 C 0.28516 0.53481 0.72904 0.0
C585 C 0.27459 0.56608 0.71554 0.0
C586 C 0.29077 0.46473 0.73396 0.0
C587 C 0.32689 0.457 0.74272 0.0
C588 C 0.2612 0.43869 0.73774 0.0
C589 C 0.22232 0.44574 0.72906 0.0
C590 C 0.20267 0.47866 0.73548 0.0
C591 C 0.16627 0.48534 0.72698 0.0
C592 C 0.14906 0.45915 0.71219 0.0
C593 C 0.16821 0.42618 0.70591 0.0
C594 C 0.20466 0.4194 0.71433 0.0
C595 C 0.33173 0.33026 0.80771 0.0
C596 C 0.31871 0.29547 0.7991 0.0
C597 C 0.3271 0.36326 0.79469 0.0
C598 C 0.31017 0.36206 0.77254 0.0
C599 C 0.29724 0.32727 0.76389 0.0
C600 C 0.3013 0.29431 0.77709 0.0
C601 C 0.30476 0.39724 0.75876 0.0
C602 C 0.26855 0.40535 0.7501 0.0
C603 C 0.33446 0.42329 0.75478 0.0
C604 C 0.37396 0.41529 0.76189 0.0
C605 C 0.39207 0.38194 0.75464 0.0
C606 C 0.42925 0.37451 0.76145 0.0
C607 C 0.44872 0.40035 0.77538 0.0
C608 C 0.43108 0.43373 0.78247 0.0
C609 C 0.39389 0.44128 0.77572 0.0
H610 H 0.4775 0.39455 0.78063 0.0
H611 H 0.12086 0.46437 0.70563 0.0
H612 H 0.19562 0.83379 0.32261 0.0
H613 H 0.13682 0.84036 0.30058 0.0
H614 H 0.18409 0.77418 0.24459 0.0
H615 H 0.24296 0.76669 0.2668 0.0
H616 H 0.14414 0.84745 0.23221 0.0
H617 H 0.12944 0.73006 0.27569 0.0
H618 H 0.12929 0.69238 0.31188 0.0
H619 H 0.04363 0.76439 0.3408 0.0
H620 H 0.0437 0.80284 0.30487 0.0
H621 H 0.99482 0.78619 0.1625 0.0
H622 H 0.04989 0.79873 0.18629 0.0
H623 H 0.97812 0.82587 0.24484 0.0
H624 H 0.92231 0.81126 0.22116 0.0
H625 H 0.02888 0.78076 0.25891 0.0
H626 H 0.036 0.89402 0.21555 0.0
H627 H 0.03546 0.93555 0.18103 0.0
H628 H 0.13337 0.87897 0.15396 0.0
H629 H 0.13422 0.83671 0.18815 0.0
C630 C 0.1936 0.82071 0.30557 0.0
C631 C 0.22386 0.79965 0.29642 0.0
C632 C 0.16 0.82451 0.29305 0.0
C633 C 0.15627 0.80778 0.27102 0.0
C634 C 0.18662 0.78736 0.26158 0.0
C635 C 0.22007 0.78296 0.2743 0.0
C636 C 0.12024 0.81073 0.25814 0.0
C637 C 0.11891 0.83268 0.23782 0.0
C638 C 0.08711 0.79284 0.26622 0.0
C639 C 0.08691 0.76958 0.28772 0.0
C640 C 0.11084 0.73807 0.28986 0.0
C641 C 0.11072 0.71653 0.3103 0.0
C642 C 0.08656 0.72606 0.32866 0.0
C643 C 0.06239 0.75709 0.32658 0.0
C644 C 0.06244 0.77874 0.30618 0.0
C645 C 0.99053 0.79556 0.1803 0.0
C646 C 0.9541 0.7976 0.18996 0.0
C647 C 0.02224 0.80305 0.1939 0.0
C648 C 0.01838 0.81377 0.21736 0.0
C649 C 0.98189 0.81766 0.22678 0.0
C650 C 0.94999 0.80953 0.21321 0.0
C651 C 0.05253 0.81697 0.23238 0.0
C652 C 0.0537 0.79615 0.25325 0.0
C653 C 0.08531 0.8366 0.22501 0.0
C654 C 0.08502 0.86202 0.20439 0.0
C655 C 0.05728 0.89024 0.20217 0.0
C656 C 0.05694 0.91395 0.18266 0.0
C657 C 0.08433 0.90986 0.1653 0.0
C658 C 0.11217 0.8821 0.16743 0.0
C659 C 0.11263 0.8583 0.18689 0.0
H660 H 0.08401 0.92824 0.15021 0.0
H661 H 0.0865 0.70935 0.34448 0.0
H662 H 0.68057 0.47612 0.66459 0.0
H663 H 0.67534 0.53322 0.68806 0.0
H664 H 0.67929 0.46668 0.75096 0.0
H665 H 0.68569 0.40897 0.72757 0.0
H666 H 0.62364 0.53818 0.74608 0.0
H667 H 0.75382 0.49325 0.74193 0.0
H668 H 0.80946 0.46975 0.72047 0.0
H669 H 0.81116 0.57088 0.67922 0.0
H670 H 0.75487 0.59455 0.70003 0.0
H671 H 0.67493 0.68126 0.82575 0.0
H672 H 0.66782 0.62262 0.804 0.0
H673 H 0.71661 0.67542 0.74319 0.0
H674 H 0.72547 0.73387 0.76537 0.0
H675 H 0.74431 0.60928 0.74689 0.0
H676 H 0.6181 0.65654 0.74951 0.0
H677 H 0.55997 0.68168 0.76741 0.0
H678 H 0.54782 0.58017 0.80763 0.0
H679 H 0.60618 0.5546 0.79019 0.0
C680 C 0.67935 0.47333 0.6834 0.0
C681 C 0.684 0.43796 0.69423 0.0
C682 C 0.67643 0.50608 0.69676 0.0
C683 C 0.67744 0.50403 0.72114 0.0
C684 C 0.67857 0.46864 0.7321 0.0
C685 C 0.68215 0.43575 0.71872 0.0
C686 C 0.68151 0.53906 0.73486 0.0
C687 C 0.65009 0.55357 0.74666 0.0
C688 C 0.71574 0.55953 0.73473 0.0
C689 C 0.74978 0.54543 0.72233 0.0
C690 C 0.76573 0.51025 0.72807 0.0
C691 C 0.79743 0.49694 0.71606 0.0
C692 C 0.81374 0.51875 0.69844 0.0
C693 C 0.79841 0.55396 0.69283 0.0
C694 C 0.76659 0.56733 0.70471 0.0
C695 C 0.684 0.68047 0.8077 0.0
C696 C 0.70059 0.71223 0.79722 0.0
C697 C 0.6797 0.64692 0.79522 0.0
C698 C 0.69094 0.64466 0.77176 0.0
C699 C 0.7076 0.67642 0.76124 0.0
C700 C 0.71258 0.70984 0.7739 0.0
C701 C 0.68634 0.60886 0.75847 0.0
C702 C 0.71774 0.5941 0.74656 0.0
C703 C 0.65183 0.58853 0.75818 0.0
C704 C 0.61672 0.60382 0.76871 0.0
C705 C 0.60319 0.63969 0.7623 0.0
C706 C 0.57017 0.654 0.77234 0.0
C707 C 0.55027 0.63258 0.78869 0.0
C708 C 0.56329 0.59675 0.79499 0.0
C709 C 0.59632 0.58233 0.78501 0.0
H710 H 0.52471 0.6437 0.79644 0.0
H711 H 0.83832 0.50844 0.68921 0.0
H712 H 0.85102 0.58813 0.16428 0.0
H713 H 0.88999 0.53083 0.16439 0.0
H714 H 0.98924 0.59796 0.15125 0.0
H715 H 0.95091 0.6549 0.15093 0.0
H716 H 0.98683 0.53649 0.1234 0.0
H717 H 0.97155 0.56543 0.20505 0.0
H718 H 0.93554 0.57835 0.241 0.0
H719 H 0.88282 0.46958 0.23618 0.0
H720 H 0.91816 0.45622 0.19999 0.0
H721 H 0.13528 0.41121 0.15392 0.0
H722 H 0.09159 0.46491 0.15374 0.0
H723 H 0.99778 0.38922 0.16395 0.0
H724 H 0.04099 0.33553 0.16414 0.0
H725 H 0.99437 0.45232 0.19248 0.0
H726 H 0.01202 0.42248 0.11162 0.0
H727 H 0.0486 0.40969 0.07588 0.0
H728 H 0.09728 0.52046 0.07934 0.0
H729 H 0.06138 0.53372 0.11533 0.0
C730 C 0.88113 0.59063 0.1614 0.0
C731 C 0.89783 0.62609 0.15766 0.0
C732 C 0.90333 0.55793 0.16153 0.0
C733 C 0.94249 0.56028 0.15795 0.0
C734 C 0.95907 0.59555 0.154 0.0
C735 C 0.93705 0.62811 0.15393 0.0
C736 C 0.96661 0.52619 0.15829 0.0
C737 C 0.98874 0.51827 0.13858 0.0
C738 C 0.96841 0.50204 0.17792 0.0
C739 C 0.94714 0.51001 0.19966 0.0
C740 C 0.95201 0.5444 0.21154 0.0
C741 C 0.93178 0.55178 0.23198 0.0
C742 C 0.90681 0.52485 0.24083 0.0
C743 C 0.90211 0.49044 0.22928 0.0
C744 C 0.92225 0.48295 0.20881 0.0
C745 C 0.10537 0.40604 0.15621 0.0
C746 C 0.09157 0.36914 0.15888 0.0
C747 C 0.08048 0.43668 0.15603 0.0
C748 C 0.0415 0.43086 0.15864 0.0
C749 C 0.02776 0.3942 0.16187 0.0
C750 C 0.05252 0.36359 0.16184 0.0
C751 C 0.01492 0.46299 0.15771 0.0
C752 C 0.9923 0.47047 0.17727 0.0
C753 C 0.0127 0.4868 0.13797 0.0
C754 C 0.0343 0.47894 0.11631 0.0
C755 C 0.03078 0.44399 0.10488 0.0
C756 C 0.05134 0.43668 0.08455 0.0
C757 C 0.07533 0.46421 0.07538 0.0
C758 C 0.07873 0.49914 0.08649 0.0
C759 C 0.05826 0.50658 0.10685 0.0
H760 H 0.09121 0.4585 0.05963 0.0
H761 H 0.89118 0.53061 0.25667 0.0
H762 H 0.82993 0.43654 0.63624 0.0
H763 H 0.88118 0.48207 0.63849 0.0
H764 H 0.92067 0.42987 0.70209 0.0
H765 H 0.87007 0.38297 0.69933 0.0
H766 H 0.89915 0.53427 0.66723 0.0
H767 H 0.01675 0.43965 0.7058 0.0
H768 H 0.03553 0.37258 0.70708 0.0
H769 H 0.97699 0.35245 0.64264 0.0
H770 H 0.95834 0.41948 0.64081 0.0
H771 H 0.06309 0.64878 0.6877 0.0
H772 H 0.00831 0.60699 0.69181 0.0
H773 H 0.0548 0.533 0.63922 0.0
H774 H 0.11001 0.57348 0.63596 0.0
H775 H 0.03256 0.49275 0.67292 0.0
H776 H 0.97809 0.59619 0.62989 0.0
H777 H 0.95992 0.66231 0.62241 0.0
H778 H 0.89294 0.66316 0.68487 0.0
H779 H 0.91114 0.59717 0.69289 0.0
C780 C 0.8496 0.43463 0.65068 0.0
C781 C 0.84628 0.40597 0.66749 0.0
C782 C 0.87877 0.46082 0.65201 0.0
C783 C 0.90497 0.45926 0.67035 0.0
C784 C 0.90119 0.4312 0.68754 0.0
C785 C 0.87232 0.40445 0.68596 0.0
C786 C 0.93658 0.48661 0.67091 0.0
C787 C 0.92834 0.52522 0.66858 0.0
C788 C 0.97467 0.47482 0.67247 0.0
C789 C 0.98568 0.43444 0.67338 0.0
C790 C 0.00791 0.42089 0.69191 0.0
C791 C 0.01855 0.3829 0.69272 0.0
C792 C 0.00729 0.35823 0.67502 0.0
C793 C 0.98552 0.37154 0.65641 0.0
C794 C 0.97487 0.40952 0.65549 0.0
C795 C 0.06127 0.62376 0.6769 0.0
C796 C 0.09072 0.61421 0.66158 0.0
C797 C 0.03001 0.59994 0.67922 0.0
C798 C 0.02737 0.56684 0.66579 0.0
C799 C 0.05633 0.55812 0.64997 0.0
C800 C 0.0878 0.58136 0.64803 0.0
C801 C 0.99525 0.54036 0.66845 0.0
C802 C 0.00338 0.50191 0.67174 0.0
C803 C 0.95715 0.55219 0.66688 0.0
C804 C 0.94643 0.59193 0.66217 0.0
C805 C 0.95979 0.6106 0.64215 0.0
C806 C 0.94943 0.64803 0.63779 0.0
C807 C 0.92542 0.66697 0.6532 0.0
C808 C 0.91164 0.64849 0.67298 0.0
C809 C 0.92197 0.61108 0.67745 0.0
H810 H 0.9174 0.69594 0.64978 0.0
H811 H 0.01555 0.32883 0.67568 0.0
H812 H 0.56574 0.13453 0.3648 0.0
H813 H 0.5282 0.077 0.36466 0.0
H814 H 0.60409 0.02754 0.31418 0.0
H815 H 0.64289 0.08471 0.31514 0.0
H816 H 0.48897 0.04827 0.33241 0.0
H817 H 0.60124 0.93119 0.31801 0.0
H818 H 0.66792 0.91812 0.32759 0.0
H819 H 0.66058 0.99161 0.38701 0.0
H820 H 0.59376 0.00471 0.37798 0.0
H821 H 0.39099 0.88061 0.30552 0.0
H822 H 0.43542 0.93333 0.30408 0.0
H823 H 0.48502 0.8962 0.36902 0.0
H824 H 0.44206 0.84243 0.36982 0.0
H825 H 0.53811 0.91813 0.34237 0.0
H826 H 0.41868 0.97115 0.36515 0.0
H827 H 0.35062 0.98481 0.36153 0.0
H828 H 0.37028 0.04115 0.2963 0.0
H829 H 0.43842 0.0274 0.29941 0.0
C830 C 0.57465 0.11123 0.35385 0.0
C831 C 0.60716 0.11401 0.33996 0.0
C832 C 0.55311 0.07841 0.35372 0.0
C833 C 0.56328 0.04789 0.33943 0.0
C834 C 0.59601 0.05045 0.32566 0.0
C835 C 0.61809 0.08312 0.32615 0.0
C836 C 0.53855 0.01422 0.33842 0.0
C837 C 0.49979 0.01982 0.33461 0.0
C838 C 0.55251 0.9771 0.34146 0.0
C839 C 0.59265 0.9693 0.34712 0.0
C840 C 0.61386 0.9445 0.33314 0.0
C841 C 0.65167 0.93708 0.33848 0.0
C842 C 0.66852 0.95415 0.35783 0.0
C843 C 0.64755 0.97855 0.37195 0.0
C844 C 0.60972 0.98602 0.36672 0.0
C845 C 0.41133 0.88385 0.31949 0.0
C846 C 0.41289 0.85778 0.33792 0.0
C847 C 0.43668 0.91395 0.31867 0.0
C848 C 0.46316 0.91911 0.33665 0.0
C849 C 0.46491 0.8928 0.35493 0.0
C850 C 0.44019 0.86224 0.35546 0.0
C851 C 0.48852 0.95233 0.33682 0.0
C852 C 0.52739 0.94661 0.34018 0.0
C853 C 0.4745 0.98952 0.33428 0.0
C854 C 0.43357 0.99791 0.3324 0.0
C855 C 0.40844 0.98623 0.34996 0.0
C856 C 0.36986 0.99402 0.34801 0.0
C857 C 0.35612 0.01374 0.32867 0.0
C858 C 0.38095 0.02582 0.31126 0.0
C859 C 0.41955 0.01806 0.31311 0.0
H860 H 0.32624 0.01974 0.32719 0.0
H861 H 0.6978 0.94839 0.36193 0.0
H862 H 0.44458 0.1571 0.84494 0.0
H863 H 0.49948 0.11509 0.84756 0.0
H864 H 0.43278 0.02341 0.82011 0.0
H865 H 0.37791 0.0647 0.81804 0.0
H866 H 0.46848 0.00193 0.85808 0.0
H867 H 0.50314 0.06887 0.78724 0.0
H868 H 0.51745 0.12535 0.76367 0.0
H869 H 0.60622 0.15531 0.81122 0.0
H870 H 0.59243 0.09905 0.83504 0.0
H871 H 0.60655 0.86563 0.82875 0.0
H872 H 0.55596 0.91254 0.82925 0.0
H873 H 0.6325 0.99476 0.85825 0.0
H874 H 0.6834 0.94831 0.85743 0.0
H875 H 0.59427 0.02397 0.82267 0.0
H876 H 0.56352 0.95532 0.89177 0.0
H877 H 0.55033 0.89901 0.91568 0.0
H878 H 0.45442 0.87315 0.87275 0.0
H879 H 0.46734 0.92903 0.84836 0.0
C880 C 0.44185 0.12812 0.83918 0.0
C881 C 0.40691 0.11411 0.83145 0.0
C882 C 0.47322 0.10417 0.84064 0.0
C883 C 0.4702 0.06611 0.83402 0.0
C884 C 0.43567 0.05259 0.82548 0.0
C885 C 0.40435 0.07627 0.82427 0.0
C886 C 0.50212 0.03951 0.83706 0.0
C887 C 0.49587 0.00654 0.8501 0.0
C888 C 0.53823 0.04621 0.82741 0.0
C889 C 0.5465 0.07999 0.81304 0.0
C890 C 0.52556 0.08764 0.79273 0.0
C891 C 0.53367 0.11955 0.77928 0.0
C892 C 0.56271 0.14393 0.78594 0.0
C893 C 0.58378 0.13639 0.80603 0.0
C894 C 0.5759 0.10446 0.81948 0.0
C895 C 0.61253 0.89355 0.83548 0.0
C896 C 0.649 0.90324 0.84301 0.0
C897 C 0.58356 0.92031 0.83581 0.0
C898 C 0.59045 0.95706 0.84393 0.0
C899 C 0.62663 0.96658 0.85188 0.0
C900 C 0.65563 0.93992 0.85146 0.0
C901 C 0.56029 0.98598 0.84319 0.0
C902 C 0.56692 0.01943 0.83072 0.0
C903 C 0.52454 0.97981 0.85344 0.0
C904 C 0.5166 0.94621 0.86811 0.0
C905 C 0.53979 0.93747 0.88731 0.0
C906 C 0.53233 0.90565 0.90097 0.0
C907 C 0.50161 0.88247 0.89571 0.0
C908 C 0.47822 0.89112 0.87679 0.0
C909 C 0.48558 0.92288 0.86306 0.0
H910 H 0.49588 0.85786 0.90631 0.0
H911 H 0.56896 0.16861 0.77551 0.0
loop_
_geom_bond_atom_site_label_1
_geom_bond_atom_site_label_2
_geom_bond_distance
_geom_bond_site_symmetry_2
_ccdc_geom_bond_type
O0 Cd1 2.223 . S
O0 C8 1.315 . S
Cd1 O0 2.223 . S
Cd1 O4 2.297 . S
Cd1 O5 2.439 . S
Cd1 O11 2.240 . S
Cd2 O3 2.240 . S
Cd2 O10 2.223 . S
Cd2 O12 2.297 . S
Cd2 O13 2.439 . S
O3 Cd2 2.240 . S
O3 C8 1.279 . S
O4 Cd1 2.297 . S
O4 C6 1.247 . S
O5 Cd1 2.439 . S
O5 C6 1.208 . S
C6 O4 1.247 . S
C6 O5 1.208 . S
C7 O12 1.247 . S
C7 O13 1.208 . S
C8 O0 1.315 . S
C8 O3 1.279 . S
C9 O10 1.315 . S
C9 O11 1.279 . S
O10 Cd2 2.223 . S
O10 C9 1.315 . S
O11 Cd1 2.240 . S
O11 C9 1.279 . S
O12 Cd2 2.297 . S
O12 C7 1.247 . S
O13 Cd2 2.439 . S
O13 C7 1.208 . S
O14 Cd15 2.223 . S
O14 C22 1.315 . S
Cd15 O14 2.223 . S
Cd15 O18 2.297 . S
Cd15 O19 2.439 . S
Cd15 O25 2.240 . S
Cd16 O17 2.240 . S
Cd16 O24 2.223 . S
Cd16 O26 2.297 . S
Cd16 O27 2.439 . S
O17 Cd16 2.240 . S
O17 C22 1.279 . S
O18 Cd15 2.297 . S
O18 C20 1.247 . S
O19 Cd15 2.439 . S
O19 C20 1.208 . S
C20 O18 1.247 . S
C20 O19 1.208 . S
C21 O26 1.247 . S
C21 O27 1.208 . S
C22 O14 1.315 . S
C22 O17 1.279 . S
C23 O24 1.315 . S
C23 O25 1.279 . S
O24 Cd16 2.223 . S
O24 C23 1.315 . S
O25 Cd15 2.240 . S
O25 C23 1.279 . S
O26 Cd16 2.297 . S
O26 C21 1.247 . S
O27 Cd16 2.439 . S
O27 C21 1.208 . S
O28 Cd29 2.223 . S
O28 C36 1.315 . S
Cd29 O28 2.223 . S
Cd29 O32 2.297 . S
Cd29 O33 2.439 . S
Cd29 O39 2.240 . S
Cd30 O31 2.240 . S
Cd30 O38 2.223 . S
Cd30 O40 2.297 . S
Cd30 O41 2.439 . S
O31 Cd30 2.240 . S
O31 C36 1.279 . S
O32 Cd29 2.297 . S
O32 C34 1.247 . S
O33 Cd29 2.439 . S
O33 C34 1.208 . S
C34 O32 1.247 . S
C34 O33 1.208 . S
C35 O40 1.247 . S
C35 O41 1.208 . S
C36 O28 1.315 . S
C36 O31 1.279 . S
C37 O38 1.315 . S
C37 O39 1.279 . S
O38 Cd30 2.223 . S
O38 C37 1.315 . S
O39 Cd29 2.240 . S
O39 C37 1.279 . S
O40 Cd30 2.297 . S
O40 C35 1.247 . S
O41 Cd30 2.439 . S
O41 C35 1.208 . S
O42 Cd43 2.223 . S
O42 C50 1.315 . S
Cd43 O42 2.223 . S
Cd43 O46 2.297 . S
Cd43 O47 2.439 . S
Cd43 O53 2.240 . S
Cd44 O45 2.240 . S
Cd44 O52 2.223 . S
Cd44 O54 2.297 . S
Cd44 O55 2.439 . S
O45 Cd44 2.240 . S
O45 C50 1.279 . S
O46 Cd43 2.297 . S
O46 C48 1.247 . S
O47 Cd43 2.439 . S
O47 C48 1.208 . S
C48 O46 1.247 . S
C48 O47 1.208 . S
C49 O54 1.247 . S
C49 O55 1.208 . S
C50 O42 1.315 . S
C50 O45 1.279 . S
C51 O52 1.315 . S
C51 O53 1.279 . S
O52 Cd44 2.223 . S
O52 C51 1.315 . S
O53 Cd43 2.240 . S
O53 C51 1.279 . S
O54 Cd44 2.297 . S
O54 C49 1.247 . S
O55 Cd44 2.439 . S
O55 C49 1.208 . S
O56 Cd57 2.223 . S
O56 C64 1.315 . S
Cd57 O56 2.223 . S
Cd57 O60 2.297 . S
Cd57 O61 2.439 . S
Cd57 O67 2.240 . S
Cd58 O59 2.240 . S
Cd58 O66 2.223 . S
Cd58 O68 2.297 . S
Cd58 O69 2.439 . S
O59 Cd58 2.240 . S
O59 C64 1.279 . S
O60 Cd57 2.297 . S
O60 C62 1.247 . S
O61 Cd57 2.439 . S
O61 C62 1.208 . S
C62 O60 1.247 . S
C62 O61 1.208 . S
C63 O68 1.247 . S
C63 O69 1.208 . S
C64 O56 1.315 . S
C64 O59 1.279 . S
C65 O66 1.315 . S
C65 O67 1.279 . S
O66 Cd58 2.223 . S
O66 C65 1.315 . S
O67 Cd57 2.240 . S
O67 C65 1.279 . S
O68 Cd58 2.297 . S
O68 C63 1.247 . S
O69 Cd58 2.439 . S
O69 C63 1.208 . S
O70 Cd71 2.223 . S
O70 C78 1.315 . S
Cd71 O70 2.223 . S
Cd71 O74 2.297 . S
Cd71 O75 2.439 . S
Cd71 O81 2.240 . S
Cd72 O73 2.240 . S
Cd72 O80 2.223 . S
Cd72 O82 2.297 . S
Cd72 O83 2.439 . S
O73 Cd72 2.240 . S
O73 C78 1.279 . S
O74 Cd71 2.297 . S
O74 C76 1.247 . S
O75 Cd71 2.439 . S
O75 C76 1.208 . S
C76 O74 1.247 . S
C76 O75 1.208 . S
C77 O82 1.247 . S
C77 O83 1.208 . S
C78 O70 1.315 . S
C78 O73 1.279 . S
C79 O80 1.315 . S
C79 O81 1.279 . S
O80 Cd72 2.223 . S
O80 C79 1.315 . S
O81 Cd71 2.240 . S
O81 C79 1.279 . S
O82 Cd72 2.297 . S
O82 C77 1.247 . S
O83 Cd72 2.439 . S
O83 C77 1.208 . S
O84 Cd85 2.223 . S
O84 C92 1.315 . S
Cd85 O84 2.223 . S
Cd85 O88 2.297 . S
Cd85 O89 2.439 . S
Cd85 O95 2.240 . S
Cd86 O87 2.240 . S
Cd86 O94 2.223 . S
Cd86 O96 2.297 . S
Cd86 O97 2.439 . S
O87 Cd86 2.240 . S
O87 C92 1.279 . S
O88 Cd85 2.297 . S
O88 C90 1.247 . S
O89 Cd85 2.439 . S
O89 C90 1.208 . S
C90 O88 1.247 . S
C90 O89 1.208 . S
C91 O96 1.247 . S
C91 O97 1.208 . S
C92 O84 1.315 . S
C92 O87 1.279 . S
C93 O94 1.315 . S
C93 O95 1.279 . S
O94 Cd86 2.223 . S
O94 C93 1.315 . S
O95 Cd85 2.240 . S
O95 C93 1.279 . S
O96 Cd86 2.297 . S
O96 C91 1.247 . S
O97 Cd86 2.439 . S
O97 C91 1.208 . S
O98 Cd99 2.223 . S
O98 C106 1.315 . S
Cd99 O98 2.223 . S
Cd99 O102 2.297 . S
Cd99 O103 2.439 . S
Cd99 O109 2.240 . S
Cd100 O101 2.240 . S
Cd100 O108 2.223 . S
Cd100 O110 2.297 . S
Cd100 O111 2.439 . S
O101 Cd100 2.240 . S
O101 C106 1.279 . S
O102 Cd99 2.297 . S
O102 C104 1.247 . S
O103 Cd99 2.439 . S
O103 C104 1.208 . S
C104 O102 1.247 . S
C104 O103 1.208 . S
C105 O110 1.247 . S
C105 O111 1.208 . S
C106 O98 1.315 . S
C106 O101 1.279 . S
C107 O108 1.315 . S
C107 O109 1.279 . S
O108 Cd100 2.223 . S
O108 C107 1.315 . S
O109 Cd99 2.240 . S
O109 C107 1.279 . S
O110 Cd100 2.297 . S
O110 C105 1.247 . S
O111 Cd100 2.439 . S
O111 C105 1.208 . S
H112 C130 0.951 . S
H113 C132 0.951 . S
H114 C134 0.950 . S
H115 C135 0.950 . S
H116 C137 0.950 . S
H117 C140 0.950 . S
H118 C141 0.950 . S
H119 C143 0.950 1_556 S
H120 C144 0.950 . S
H121 C145 0.951 . S
H122 C147 0.951 . S
H123 C149 0.950 . S
H124 C150 0.950 . S
H125 C152 0.950 . S
H126 C155 0.950 . S
H127 C156 0.950 . S
H128 C158 0.950 1_554 S
H129 C159 0.950 . S
C130 H112 0.951 . S
C130 C131 1.366 . S
C130 C132 1.388 . S
C131 C130 1.366 . S
C131 C135 1.385 . S
C132 H113 0.951 . S
C132 C130 1.388 . S
C132 C133 1.366 . S
C133 C132 1.366 . S
C133 C134 1.414 . S
C133 C136 1.499 . S
C134 H114 0.950 . S
C134 C133 1.414 . S
C134 C135 1.374 . S
C135 H115 0.950 . S
C135 C131 1.385 . S
C135 C134 1.374 . S
C136 C133 1.499 . S
C136 C137 1.373 . S
C136 C138 1.389 . S
C137 H116 0.950 . S
C137 C136 1.373 . S
C137 C153 1.377 1_554 S
C138 C136 1.389 . S
C138 C139 1.524 . S
C138 C152 1.377 1_554 S
C139 C138 1.524 . S
C139 C140 1.397 . S
C139 C144 1.363 1_554 S
C140 H117 0.950 . S
C140 C139 1.397 . S
C140 C141 1.334 . S
C141 H118 0.950 . S
C141 C140 1.334 . S
C141 C142 1.287 . S
C142 C141 1.287 . S
C142 C143 1.524 . S
C142 H161 0.913 . S
C143 H119 0.950 1_554 S
C143 C142 1.524 . S
C143 C144 1.415 1_554 S
C144 H120 0.950 . S
C144 C139 1.363 1_556 S
C144 C143 1.415 1_556 S
C145 H121 0.951 . S
C145 C146 1.366 . S
C145 C147 1.388 . S
C146 C145 1.366 . S
C146 C150 1.385 . S
C147 H122 0.951 . S
C147 C145 1.388 . S
C147 C148 1.366 . S
C148 C147 1.366 . S
C148 C149 1.414 . S
C148 C151 1.499 . S
C149 H123 0.950 . S
C149 C148 1.414 . S
C149 C150 1.374 . S
C150 H124 0.950 . S
C150 C146 1.385 . S
C150 C149 1.374 . S
C151 C148 1.499 . S
C151 C152 1.373 . S
C151 C153 1.389 . S
C152 H125 0.950 . S
C152 C138 1.377 1_556 S
C152 C151 1.373 . S
C153 C137 1.377 1_556 S
C153 C151 1.389 . S
C153 C154 1.524 . S
C154 C153 1.524 . S
C154 C155 1.397 . S
C154 C159 1.363 1_556 S
C155 H126 0.950 . S
C155 C154 1.397 . S
C155 C156 1.334 . S
C156 H127 0.950 . S
C156 C155 1.334 . S
C156 C157 1.287 . S
C157 C156 1.287 . S
C157 C158 1.524 . S
C157 H160 0.999 . S
C158 H128 0.950 1_556 S
C158 C157 1.524 . S
C158 C159 1.415 1_556 S
C159 H129 0.950 . S
C159 C154 1.363 1_554 S
C159 C158 1.415 1_554 S
H160 C157 0.999 . S
H161 C142 0.913 . S
H162 C180 0.951 . S
H163 C182 0.951 . S
H164 C184 0.950 . S
H165 C185 0.950 . S
H166 C187 0.950 . S
H167 C190 0.950 . S
H168 C191 0.950 . S
H169 C193 0.950 . S
H170 C194 0.950 . S
H171 C195 0.951 . S
H172 C197 0.951 . S
H173 C199 0.950 . S
H174 C200 0.950 . S
H175 C202 0.950 . S
H176 C205 0.950 . S
H177 C206 0.950 . S
H178 C208 0.950 . S
H179 C209 0.950 . S
C180 H162 0.951 . S
C180 C181 1.366 . S
C180 C182 1.388 . S
C181 C180 1.366 . S
C181 C185 1.385 . S
C182 H163 0.951 . S
C182 C180 1.388 . S
C182 C183 1.366 . S
C183 C182 1.366 . S
C183 C184 1.414 . S
C183 C186 1.499 . S
C184 H164 0.950 . S
C184 C183 1.414 . S
C184 C185 1.374 . S
C185 H165 0.950 . S
C185 C181 1.385 . S
C185 C184 1.374 . S
C186 C183 1.499 . S
C186 C187 1.373 . S
C186 C188 1.389 . S
C187 H166 0.950 . S
C187 C186 1.373 . S
C187 C203 1.377 . S
C188 C186 1.389 . S
C188 C189 1.524 . S
C188 C202 1.377 . S
C189 C188 1.524 . S
C189 C190 1.397 . S
C189 C194 1.363 . S
C190 H167 0.950 . S
C190 C189 1.397 . S
C190 C191 1.334 . S
C191 H168 0.950 . S
C191 C190 1.334 . S
C191 C192 1.287 . S
C192 C191 1.287 . S
C192 C193 1.524 . S
C192 H211 0.913 . S
C193 H169 0.950 . S
C193 C192 1.524 . S
C193 C194 1.415 . S
C194 H170 0.950 . S
C194 C189 1.363 . S
C194 C193 1.415 . S
C195 H171 0.951 . S
C195 C196 1.366 . S
C195 C197 1.388 . S
C196 C195 1.366 . S
C196 C200 1.385 . S
C197 H172 0.951 . S
C197 C195 1.388 . S
C197 C198 1.366 . S
C198 C197 1.366 . S
C198 C199 1.414 . S
C198 C201 1.499 . S
C199 H173 0.950 . S
C199 C198 1.414 . S
C199 C200 1.374 . S
C200 H174 0.950 . S
C200 C196 1.385 . S
C200 C199 1.374 . S
C201 C198 1.499 . S
C201 C202 1.373 . S
C201 C203 1.389 . S
C202 H175 0.950 . S
C202 C188 1.377 . S
C202 C201 1.373 . S
C203 C187 1.377 . S
C203 C201 1.389 . S
C203 C204 1.524 . S
C204 C203 1.524 . S
C204 C205 1.397 . S
C204 C209 1.363 . S
C205 H176 0.950 . S
C205 C204 1.397 . S
C205 C206 1.334 . S
C206 H177 0.950 . S
C206 C205 1.334 . S
C206 C207 1.287 . S
C207 C206 1.287 . S
C207 C208 1.524 . S
C207 H210 0.999 . S
C208 H178 0.950 . S
C208 C207 1.524 . S
C208 C209 1.415 . S
C209 H179 0.950 . S
C209 C204 1.363 . S
C209 C208 1.415 . S
H210 C207 0.999 . S
H211 C192 0.913 . S
H212 C230 0.951 . S
H213 C232 0.951 . S
H214 C234 0.950 . S
H215 C235 0.950 . S
H216 C237 0.950 . S
H217 C240 0.950 . S
H218 C241 0.950 . S
H219 C243 0.950 . S
H220 C244 0.950 . S
H221 C245 0.951 . S
H222 C247 0.951 . S
H223 C249 0.950 . S
H224 C250 0.950 . S
H225 C252 0.950 . S
H226 C255 0.950 . S
H227 C256 0.950 . S
H228 C258 0.950 . S
H229 C259 0.950 . S
C230 H212 0.951 . S
C230 C231 1.366 . S
C230 C232 1.388 . S
C231 C230 1.366 . S
C231 C235 1.385 . S
C232 H213 0.951 . S
C232 C230 1.388 . S
C232 C233 1.366 . S
C233 C232 1.366 . S
C233 C234 1.414 . S
C233 C236 1.499 . S
C234 H214 0.950 . S
C234 C233 1.414 . S
C234 C235 1.374 . S
C235 H215 0.950 . S
C235 C231 1.385 . S
C235 C234 1.374 . S
C236 C233 1.499 . S
C236 C237 1.373 . S
C236 C238 1.389 . S
C237 H216 0.950 . S
C237 C236 1.373 . S
C237 C253 1.377 1_554 S
C238 C236 1.389 . S
C238 C239 1.524 . S
C238 C252 1.377 1_554 S
C239 C238 1.524 . S
C239 C240 1.397 . S
C239 C244 1.363 . S
C240 H217 0.950 . S
C240 C239 1.397 . S
C240 C241 1.334 . S
C241 H218 0.950 . S
C241 C240 1.334 . S
C241 C242 1.287 . S
C242 C241 1.287 . S
C242 C243 1.524 . S
C242 H261 0.913 . S
C243 H219 0.950 . S
C243 C242 1.524 . S
C243 C244 1.415 . S
C244 H220 0.950 . S
C244 C239 1.363 . S
C244 C243 1.415 . S
C245 H221 0.951 . S
C245 C246 1.366 . S
C245 C247 1.388 . S
C246 C245 1.366 . S
C246 C250 1.385 . S
C247 H222 0.951 . S
C247 C245 1.388 . S
C247 C248 1.366 . S
C248 C247 1.366 . S
C248 C249 1.414 . S
C248 C251 1.499 . S
C249 H223 0.950 . S
C249 C248 1.414 . S
C249 C250 1.374 . S
C250 H224 0.950 . S
C250 C246 1.385 . S
C250 C249 1.374 . S
C251 C248 1.499 . S
C251 C252 1.373 . S
C251 C253 1.389 . S
C252 H225 0.950 . S
C252 C238 1.377 1_556 S
C252 C251 1.373 . S
C253 C237 1.377 1_556 S
C253 C251 1.389 . S
C253 C254 1.524 . S
C254 C253 1.524 . S
C254 C255 1.397 . S
C254 C259 1.363 . S
C255 H226 0.950 . S
C255 C254 1.397 . S
C255 C256 1.334 . S
C256 H227 0.950 . S
C256 C255 1.334 . S
C256 C257 1.287 . S
C257 C256 1.287 . S
C257 C258 1.524 . S
C257 H260 0.999 . S
C258 H228 0.950 . S
C258 C257 1.524 . S
C258 C259 1.415 . S
C259 H229 0.950 . S
C259 C254 1.363 . S
C259 C258 1.415 . S
H260 C257 0.999 . S
H261 C242 0.913 . S
H262 C280 0.951 . S
H263 C282 0.951 . S
H264 C284 0.950 . S
H265 C285 0.950 . S
H266 C287 0.950 . S
H267 C290 0.950 . S
H268 C291 0.950 . S
H269 C293 0.950 . S
H270 C294 0.950 . S
H271 C295 0.951 . S
H272 C297 0.951 . S
H273 C299 0.950 . S
H274 C300 0.950 . S
H275 C302 0.950 . S
H276 C305 0.950 . S
H277 C306 0.950 . S
H278 C308 0.950 . S
H279 C309 0.950 . S
C280 H262 0.951 . S
C280 C281 1.366 . S
C280 C282 1.388 . S
C281 C280 1.366 . S
C281 C285 1.385 . S
C282 H263 0.951 . S
C282 C280 1.388 . S
C282 C283 1.366 . S
C283 C282 1.366 . S
C283 C284 1.414 . S
C283 C286 1.499 . S
C284 H264 0.950 . S
C284 C283 1.414 . S
C284 C285 1.374 . S
C285 H265 0.950 . S
C285 C281 1.385 . S
C285 C284 1.374 . S
C286 C283 1.499 . S
C286 C287 1.373 . S
C286 C288 1.389 . S
C287 H266 0.950 . S
C287 C286 1.373 . S
C287 C303 1.377 . S
C288 C286 1.389 . S
C288 C289 1.524 . S
C288 C302 1.377 . S
C289 C288 1.524 . S
C289 C290 1.397 . S
C289 C294 1.363 . S
C290 H267 0.950 . S
C290 C289 1.397 . S
C290 C291 1.334 . S
C291 H268 0.950 . S
C291 C290 1.334 . S
C291 C292 1.287 . S
C292 C291 1.287 . S
C292 C293 1.524 . S
C292 H311 0.913 . S
C293 H269 0.950 . S
C293 C292 1.524 . S
C293 C294 1.415 . S
C294 H270 0.950 . S
C294 C289 1.363 . S
C294 C293 1.415 . S
C295 H271 0.951 . S
C295 C296 1.366 . S
C295 C297 1.388 . S
C296 C295 1.366 . S
C296 C300 1.385 . S
C297 H272 0.951 . S
C297 C295 1.388 . S
C297 C298 1.366 . S
C298 C297 1.366 . S
C298 C299 1.414 . S
C298 C301 1.499 . S
C299 H273 0.950 . S
C299 C298 1.414 . S
C299 C300 1.374 . S
C300 H274 0.950 . S
C300 C296 1.385 . S
C300 C299 1.374 . S
C301 C298 1.499 . S
C301 C302 1.373 . S
C301 C303 1.389 . S
C302 H275 0.950 . S
C302 C288 1.377 . S
C302 C301 1.373 . S
C303 C287 1.377 . S
C303 C301 1.389 . S
C303 C304 1.524 . S
C304 C303 1.524 . S
C304 C305 1.397 . S
C304 C309 1.363 . S
C305 H276 0.950 . S
C305 C304 1.397 . S
C305 C306 1.334 . S
C306 H277 0.950 . S
C306 C305 1.334 . S
C306 C307 1.287 . S
C307 C306 1.287 . S
C307 C308 1.524 . S
C307 H310 0.999 . S
C308 H278 0.950 . S
C308 C307 1.524 . S
C308 C309 1.415 . S
C309 H279 0.950 . S
C309 C304 1.363 . S
C309 C308 1.415 . S
H310 C307 0.999 . S
H311 C292 0.913 . S
H312 C330 0.951 . S
H313 C332 0.951 . S
H314 C334 0.950 . S
H315 C335 0.950 . S
H316 C337 0.950 . S
H317 C340 0.950 . S
H318 C341 0.950 . S
H319 C343 0.950 . S
H320 C344 0.950 . S
H321 C345 0.951 . S
H322 C347 0.951 . S
H323 C349 0.950 . S
H324 C350 0.950 . S
H325 C352 0.950 . S
H326 C355 0.950 . S
H327 C356 0.950 . S
H328 C358 0.950 . S
H329 C359 0.950 . S
C330 H312 0.951 . S
C330 C331 1.366 . S
C330 C332 1.388 . S
C331 C330 1.366 . S
C331 C335 1.385 . S
C332 H313 0.951 . S
C332 C330 1.388 . S
C332 C333 1.366 . S
C333 C332 1.366 . S
C333 C334 1.414 . S
C333 C336 1.499 . S
C334 H314 0.950 . S
C334 C333 1.414 . S
C334 C335 1.374 . S
C335 H315 0.950 . S
C335 C331 1.385 . S
C335 C334 1.374 . S
C336 C333 1.499 . S
C336 C337 1.373 . S
C336 C338 1.389 . S
C337 H316 0.950 . S
C337 C336 1.373 . S
C337 C353 1.377 . S
C338 C336 1.389 . S
C338 C339 1.524 . S
C338 C352 1.377 . S
C339 C338 1.524 . S
C339 C340 1.397 . S
C339 C344 1.363 . S
C340 H317 0.950 . S
C340 C339 1.397 . S
C340 C341 1.334 . S
C341 H318 0.950 . S
C341 C340 1.334 . S
C341 C342 1.287 . S
C342 C341 1.287 . S
C342 C343 1.524 . S
C342 H361 0.913 . S
C343 H319 0.950 . S
C343 C342 1.524 . S
C343 C344 1.415 . S
C344 H320 0.950 . S
C344 C339 1.363 . S
C344 C343 1.415 . S
C345 H321 0.951 . S
C345 C346 1.366 . S
C345 C347 1.388 . S
C346 C345 1.366 . S
C346 C350 1.385 . S
C347 H322 0.951 . S
C347 C345 1.388 . S
C347 C348 1.366 . S
C348 C347 1.366 . S
C348 C349 1.414 . S
C348 C351 1.499 . S
C349 H323 0.950 . S
C349 C348 1.414 . S
C349 C350 1.374 . S
C350 H324 0.950 . S
C350 C346 1.385 . S
C350 C349 1.374 . S
C351 C348 1.499 . S
C351 C352 1.373 . S
C351 C353 1.389 . S
C352 H325 0.950 . S
C352 C338 1.377 . S
C352 C351 1.373 . S
C353 C337 1.377 . S
C353 C351 1.389 . S
C353 C354 1.524 . S
C354 C353 1.524 . S
C354 C355 1.397 . S
C354 C359 1.363 . S
C355 H326 0.950 . S
C355 C354 1.397 . S
C355 C356 1.334 . S
C356 H327 0.950 . S
C356 C355 1.334 . S
C356 C357 1.287 . S
C357 C356 1.287 . S
C357 C358 1.524 . S
C357 H360 0.999 . S
C358 H328 0.950 . S
C358 C357 1.524 . S
C358 C359 1.415 . S
C359 H329 0.950 . S
C359 C354 1.363 . S
C359 C358 1.415 . S
H360 C357 0.999 . S
H361 C342 0.913 . S
H362 C380 0.951 . S
H363 C382 0.951 . S
H364 C384 0.950 . S
H365 C385 0.950 . S
H366 C387 0.950 . S
H367 C390 0.950 . S
H368 C391 0.950 . S
H369 C393 0.950 . S
H370 C394 0.950 . S
H371 C395 0.951 . S
H372 C397 0.951 . S
H373 C399 0.950 . S
H374 C400 0.950 . S
H375 C402 0.950 . S
H376 C405 0.950 . S
H377 C406 0.950 . S
H378 C408 0.950 . S
H379 C409 0.950 . S
C380 H362 0.951 . S
C380 C381 1.366 . S
C380 C382 1.388 . S
C381 C380 1.366 . S
C381 C385 1.385 . S
C382 H363 0.951 . S
C382 C380 1.388 . S
C382 C383 1.366 . S
C383 C382 1.366 . S
C383 C384 1.414 . S
C383 C386 1.499 . S
C384 H364 0.950 . S
C384 C383 1.414 . S
C384 C385 1.374 . S
C385 H365 0.950 . S
C385 C381 1.385 . S
C385 C384 1.374 . S
C386 C383 1.499 . S
C386 C387 1.373 . S
C386 C388 1.389 . S
C387 H366 0.950 . S
C387 C386 1.373 . S
C387 C403 1.377 . S
C388 C386 1.389 . S
C388 C389 1.524 . S
C388 C402 1.377 . S
C389 C388 1.524 . S
C389 C390 1.397 . S
C389 C394 1.363 . S
C390 H367 0.950 . S
C390 C389 1.397 . S
C390 C391 1.334 . S
C391 H368 0.950 . S
C391 C390 1.334 . S
C391 C392 1.287 . S
C392 C391 1.287 . S
C392 C393 1.524 . S
C392 H411 0.913 . S
C393 H369 0.950 . S
C393 C392 1.524 . S
C393 C394 1.415 . S
C394 H370 0.950 . S
C394 C389 1.363 . S
C394 C393 1.415 . S
C395 H371 0.951 . S
C395 C396 1.366 . S
C395 C397 1.388 1_545 S
C396 C395 1.366 . S
C396 C400 1.385 . S
C397 H372 0.951 . S
C397 C395 1.388 1_565 S
C397 C398 1.366 . S
C398 C397 1.366 . S
C398 C399 1.414 1_565 S
C398 C401 1.499 . S
C399 H373 0.950 . S
C399 C398 1.414 1_545 S
C399 C400 1.374 . S
C400 H374 0.950 . S
C400 C396 1.385 . S
C400 C399 1.374 . S
C401 C398 1.499 . S
C401 C402 1.373 . S
C401 C403 1.389 . S
C402 H375 0.950 . S
C402 C388 1.377 . S
C402 C401 1.373 . S
C403 C387 1.377 . S
C403 C401 1.389 . S
C403 C404 1.524 . S
C404 C403 1.524 . S
C404 C405 1.397 . S
C404 C409 1.363 . S
C405 H376 0.950 . S
C405 C404 1.397 . S
C405 C406 1.334 . S
C406 H377 0.950 . S
C406 C405 1.334 . S
C406 C407 1.287 . S
C407 C406 1.287 . S
C407 C408 1.524 . S
C407 H410 0.999 . S
C408 H378 0.950 . S
C408 C407 1.524 . S
C408 C409 1.415 . S
C409 H379 0.950 . S
C409 C404 1.363 . S
C409 C408 1.415 . S
H410 C407 0.999 . S
H411 C392 0.913 . S
H412 C430 0.951 . S
H413 C432 0.951 . S
H414 C434 0.950 . S
H415 C435 0.950 . S
H416 C437 0.950 . S
H417 C440 0.950 . S
H418 C441 0.950 . S
H419 C443 0.950 . S
H420 C444 0.950 . S
H421 C445 0.951 . S
H422 C447 0.951 . S
H423 C449 0.950 . S
H424 C450 0.950 . S
H425 C452 0.950 . S
H426 C455 0.950 . S
H427 C456 0.950 . S
H428 C458 0.950 . S
H429 C459 0.950 . S
C430 H412 0.951 . S
C430 C431 1.366 . S
C430 C432 1.388 . S
C431 C430 1.366 . S
C431 C435 1.385 . S
C432 H413 0.951 . S
C432 C430 1.388 . S
C432 C433 1.366 . S
C433 C432 1.366 . S
C433 C434 1.414 . S
C433 C436 1.499 . S
C434 H414 0.950 . S
C434 C433 1.414 . S
C434 C435 1.374 . S
C435 H415 0.950 . S
C435 C431 1.385 . S
C435 C434 1.374 . S
C436 C433 1.499 . S
C436 C437 1.373 . S
C436 C438 1.389 . S
C437 H416 0.950 . S
C437 C436 1.373 . S
C437 C453 1.377 . S
C438 C436 1.389 . S
C438 C439 1.524 . S
C438 C452 1.377 . S
C439 C438 1.524 . S
C439 C440 1.397 . S
C439 C444 1.363 . S
C440 H417 0.950 . S
C440 C439 1.397 . S
C440 C441 1.334 . S
C441 H418 0.950 . S
C441 C440 1.334 . S
C441 C442 1.287 . S
C442 C441 1.287 . S
C442 C443 1.524 . S
C442 H461 0.913 . S
C443 H419 0.950 . S
C443 C442 1.524 . S
C443 C444 1.415 . S
C444 H420 0.950 . S
C444 C439 1.363 . S
C444 C443 1.415 . S
C445 H421 0.951 . S
C445 C446 1.366 . S
C445 C447 1.388 . S
C446 C445 1.366 . S
C446 C450 1.385 . S
C447 H422 0.951 . S
C447 C445 1.388 . S
C447 C448 1.366 . S
C448 C447 1.366 . S
C448 C449 1.414 . S
C448 C451 1.499 . S
C449 H423 0.950 . S
C449 C448 1.414 . S
C449 C450 1.374 . S
C450 H424 0.950 . S
C450 C446 1.385 . S
C450 C449 1.374 . S
C451 C448 1.499 . S
C451 C452 1.373 . S
C451 C453 1.389 . S
C452 H425 0.950 . S
C452 C438 1.377 . S
C452 C451 1.373 . S
C453 C437 1.377 . S
C453 C451 1.389 . S
C453 C454 1.524 . S
C454 C453 1.524 . S
C454 C455 1.397 . S
C454 C459 1.363 . S
C455 H426 0.950 . S
C455 C454 1.397 . S
C455 C456 1.334 . S
C456 H427 0.950 . S
C456 C455 1.334 . S
C456 C457 1.287 . S
C457 C456 1.287 . S
C457 C458 1.524 . S
C457 H460 0.999 . S
C458 H428 0.950 . S
C458 C457 1.524 . S
C458 C459 1.415 . S
C459 H429 0.950 . S
C459 C454 1.363 . S
C459 C458 1.415 . S
H460 C457 0.999 . S
H461 C442 0.913 . S
H462 C480 0.951 . S
H463 C482 0.951 . S
H464 C484 0.950 . S
H465 C485 0.950 . S
H466 C487 0.950 . S
H467 C490 0.950 . S
H468 C491 0.950 . S
H469 C493 0.950 . S
H470 C494 0.950 . S
H471 C495 0.951 . S
H472 C497 0.951 . S
H473 C499 0.950 . S
H474 C500 0.950 . S
H475 C502 0.950 . S
H476 C505 0.952 . S
H477 C506 0.950 . S
H478 C508 0.950 . S
H479 C509 0.950 . S
C480 H462 0.951 . S
C480 C481 1.366 . S
C480 C482 1.388 . S
C481 C480 1.366 . S
C481 C485 1.385 . S
C482 H463 0.951 . S
C482 C480 1.388 . S
C482 C483 1.366 . S
C483 C482 1.366 . S
C483 C484 1.414 . S
C483 C486 1.499 . S
C484 H464 0.950 . S
C484 C483 1.414 . S
C484 C485 1.374 . S
C485 H465 0.950 . S
C485 C481 1.385 . S
C485 C484 1.374 . S
C486 C483 1.499 . S
C486 C487 1.373 . S
C486 C488 1.389 . S
C487 H466 0.950 . S
C487 C486 1.373 . S
C487 C503 1.377 . S
C488 C486 1.389 . S
C488 C489 1.524 . S
C488 C502 1.377 . S
C489 C488 1.524 . S
C489 C490 1.397 . S
C489 C494 1.363 . S
C490 H467 0.950 . S
C490 C489 1.397 . S
C490 C491 1.334 . S
C491 H468 0.950 . S
C491 C490 1.334 . S
C491 C492 1.287 . S
C492 C491 1.287 . S
C492 C493 1.524 . S
C492 H511 0.913 . S
C493 H469 0.950 . S
C493 C492 1.524 . S
C493 C494 1.415 . S
C494 H470 0.950 . S
C494 C489 1.363 . S
C494 C493 1.415 . S
C495 H471 0.951 . S
C495 C496 1.366 . S
C495 C497 1.388 1_565 S
C496 C495 1.366 . S
C496 C500 1.385 . S
C497 H472 0.951 . S
C497 C495 1.388 1_545 S
C497 C498 1.366 . S
C498 C497 1.366 . S
C498 C499 1.414 . S
C498 C501 1.499 . S
C499 H473 0.950 . S
C499 C498 1.414 . S
C499 C500 1.374 1_545 S
C500 H474 0.950 . S
C500 C496 1.385 . S
C500 C499 1.374 1_565 S
C501 C498 1.499 . S
C501 C502 1.373 . S
C501 C503 1.389 . S
C502 H475 0.950 . S
C502 C488 1.377 . S
C502 C501 1.373 . S
C503 C487 1.377 . S
C503 C501 1.389 . S
C503 C504 1.524 . S
C504 C503 1.524 . S
C504 C505 1.397 . S
C504 C509 1.363 . S
C505 H476 0.952 . S
C505 C504 1.397 . S
C505 C506 1.334 1_545 S
C506 H477 0.950 . S
C506 C505 1.334 1_565 S
C506 C507 1.287 . S
C507 C506 1.287 . S
C507 C508 1.524 1_565 S
C507 H510 0.999 . S
C508 H478 0.950 . S
C508 C507 1.524 1_545 S
C508 C509 1.415 . S
C509 H479 0.950 . S
C509 C504 1.363 . S
C509 C508 1.415 . S
H510 C507 0.999 . S
H511 C492 0.913 . S
H512 C530 0.951 . S
H513 C532 0.951 . S
H514 C534 0.950 . S
H515 C535 0.950 . S
H516 C537 0.950 . S
H517 C540 0.950 . S
H518 C541 0.950 . S
H519 C543 0.950 . S
H520 C544 0.950 . S
H521 C545 0.951 . S
H522 C547 0.951 . S
H523 C549 0.950 . S
H524 C550 0.950 . S
H525 C552 0.950 . S
H526 C555 0.950 . S
H527 C556 0.950 . S
H528 C558 0.950 . S
H529 C559 0.950 . S
C530 H512 0.951 . S
C530 C531 1.366 . S
C530 C532 1.388 . S
C531 C530 1.366 . S
C531 C535 1.385 . S
C532 H513 0.951 . S
C532 C530 1.388 . S
C532 C533 1.366 . S
C533 C532 1.366 . S
C533 C534 1.414 . S
C533 C536 1.499 . S
C534 H514 0.950 . S
C534 C533 1.414 . S
C534 C535 1.374 . S
C535 H515 0.950 . S
C535 C531 1.385 . S
C535 C534 1.374 . S
C536 C533 1.499 . S
C536 C537 1.373 . S
C536 C538 1.389 . S
C537 H516 0.950 . S
C537 C536 1.373 . S
C537 C553 1.377 . S
C538 C536 1.389 . S
C538 C539 1.524 . S
C538 C552 1.377 . S
C539 C538 1.524 . S
C539 C540 1.397 . S
C539 C544 1.363 . S
C540 H517 0.950 . S
C540 C539 1.397 . S
C540 C541 1.334 . S
C541 H518 0.950 . S
C541 C540 1.334 . S
C541 C542 1.287 . S
C542 C541 1.287 . S
C542 C543 1.524 . S
C542 H561 0.913 . S
C543 H519 0.950 . S
C543 C542 1.524 . S
C543 C544 1.415 . S
C544 H520 0.950 . S
C544 C539 1.363 . S
C544 C543 1.415 . S
C545 H521 0.951 . S
C545 C546 1.366 . S
C545 C547 1.388 . S
C546 C545 1.366 . S
C546 C550 1.385 . S
C547 H522 0.951 . S
C547 C545 1.388 . S
C547 C548 1.366 1_455 S
C548 C547 1.366 1_655 S
C548 C549 1.414 . S
C548 C551 1.499 . S
C549 H523 0.950 . S
C549 C548 1.414 . S
C549 C550 1.374 1_655 S
C550 H524 0.950 . S
C550 C546 1.385 . S
C550 C549 1.374 1_455 S
C551 C548 1.499 . S
C551 C552 1.373 . S
C551 C553 1.389 . S
C552 H525 0.950 . S
C552 C538 1.377 . S
C552 C551 1.373 . S
C553 C537 1.377 . S
C553 C551 1.389 . S
C553 C554 1.524 . S
C554 C553 1.524 . S
C554 C555 1.397 . S
C554 C559 1.363 . S
C555 H526 0.950 . S
C555 C554 1.397 . S
C555 C556 1.334 . S
C556 H527 0.950 . S
C556 C555 1.334 . S
C556 C557 1.287 . S
C557 C556 1.287 . S
C557 C558 1.524 . S
C557 H560 0.999 1_655 S
C558 H528 0.950 . S
C558 C557 1.524 . S
C558 C559 1.415 . S
C559 H529 0.950 . S
C559 C554 1.363 . S
C559 C558 1.415 . S
H560 C557 0.999 1_455 S
H561 C542 0.913 . S
H562 C580 0.951 . S
H563 C582 0.951 . S
H564 C584 0.950 . S
H565 C585 0.950 . S
H566 C587 0.950 . S
H567 C590 0.950 . S
H568 C591 0.950 . S
H569 C593 0.950 . S
H570 C594 0.950 . S
H571 C595 0.951 . S
H572 C597 0.951 . S
H573 C599 0.950 . S
H574 C600 0.950 . S
H575 C602 0.950 . S
H576 C605 0.950 . S
H577 C606 0.950 . S
H578 C608 0.950 . S
H579 C609 0.950 . S
C580 H562 0.951 . S
C580 C581 1.366 . S
C580 C582 1.388 . S
C581 C580 1.366 . S
C581 C585 1.385 . S
C582 H563 0.951 . S
C582 C580 1.388 . S
C582 C583 1.366 . S
C583 C582 1.366 . S
C583 C584 1.414 . S
C583 C586 1.499 . S
C584 H564 0.950 . S
C584 C583 1.414 . S
C584 C585 1.374 . S
C585 H565 0.950 . S
C585 C581 1.385 . S
C585 C584 1.374 . S
C586 C583 1.499 . S
C586 C587 1.373 . S
C586 C588 1.389 . S
C587 H566 0.950 . S
C587 C586 1.373 . S
C587 C603 1.377 . S
C588 C586 1.389 . S
C588 C589 1.524 . S
C588 C602 1.377 . S
C589 C588 1.524 . S
C589 C590 1.397 . S
C589 C594 1.363 . S
C590 H567 0.950 . S
C590 C589 1.397 . S
C590 C591 1.334 . S
C591 H568 0.950 . S
C591 C590 1.334 . S
C591 C592 1.287 . S
C592 C591 1.287 . S
C592 C593 1.524 . S
C592 H611 0.913 . S
C593 H569 0.950 . S
C593 C592 1.524 . S
C593 C594 1.415 . S
C594 H570 0.950 . S
C594 C589 1.363 . S
C594 C593 1.415 . S
C595 H571 0.951 . S
C595 C596 1.366 . S
C595 C597 1.388 . S
C596 C595 1.366 . S
C596 C600 1.385 . S
C597 H572 0.951 . S
C597 C595 1.388 . S
C597 C598 1.366 . S
C598 C597 1.366 . S
C598 C599 1.414 . S
C598 C601 1.499 . S
C599 H573 0.950 . S
C599 C598 1.414 . S
C599 C600 1.374 . S
C600 H574 0.950 . S
C600 C596 1.385 . S
C600 C599 1.374 . S
C601 C598 1.499 . S
C601 C602 1.373 . S
C601 C603 1.389 . S
C602 H575 0.950 . S
C602 C588 1.377 . S
C602 C601 1.373 . S
C603 C587 1.377 . S
C603 C601 1.389 . S
C603 C604 1.524 . S
C604 C603 1.524 . S
C604 C605 1.397 . S
C604 C609 1.363 . S
C605 H576 0.950 . S
C605 C604 1.397 . S
C605 C606 1.334 . S
C606 H577 0.950 . S
C606 C605 1.334 . S
C606 C607 1.287 . S
C607 C606 1.287 . S
C607 C608 1.524 . S
C607 H610 0.999 . S
C608 H578 0.950 . S
C608 C607 1.524 . S
C608 C609 1.415 . S
C609 H579 0.950 . S
C609 C604 1.363 . S
C609 C608 1.415 . S
H610 C607 0.999 . S
H611 C592 0.913 . S
H612 C630 0.951 . S
H613 C632 0.951 . S
H614 C634 0.950 . S
H615 C635 0.950 . S
H616 C637 0.950 . S
H617 C640 0.950 . S
H618 C641 0.950 . S
H619 C643 0.950 . S
H620 C644 0.950 . S
H621 C645 0.951 . S
H622 C647 0.951 . S
H623 C649 0.950 . S
H624 C650 0.950 . S
H625 C652 0.950 . S
H626 C655 0.950 . S
H627 C656 0.950 . S
H628 C658 0.950 . S
H629 C659 0.950 . S
C630 H612 0.951 . S
C630 C631 1.366 . S
C630 C632 1.388 . S
C631 C630 1.366 . S
C631 C635 1.385 . S
C632 H613 0.951 . S
C632 C630 1.388 . S
C632 C633 1.366 . S
C633 C632 1.366 . S
C633 C634 1.414 . S
C633 C636 1.499 . S
C634 H614 0.950 . S
C634 C633 1.414 . S
C634 C635 1.374 . S
C635 H615 0.950 . S
C635 C631 1.385 . S
C635 C634 1.374 . S
C636 C633 1.499 . S
C636 C637 1.373 . S
C636 C638 1.389 . S
C637 H616 0.950 . S
C637 C636 1.373 . S
C637 C653 1.377 . S
C638 C636 1.389 . S
C638 C639 1.524 . S
C638 C652 1.377 . S
C639 C638 1.524 . S
C639 C640 1.397 . S
C639 C644 1.363 . S
C640 H617 0.950 . S
C640 C639 1.397 . S
C640 C641 1.334 . S
C641 H618 0.950 . S
C641 C640 1.334 . S
C641 C642 1.287 . S
C642 C641 1.287 . S
C642 C643 1.524 . S
C642 H661 0.913 . S
C643 H619 0.950 . S
C643 C642 1.524 . S
C643 C644 1.415 . S
C644 H620 0.950 . S
C644 C639 1.363 . S
C644 C643 1.415 . S
C645 H621 0.951 . S
C645 C646 1.366 . S
C645 C647 1.388 1_655 S
C646 C645 1.366 . S
C646 C650 1.385 . S
C647 H622 0.951 . S
C647 C645 1.388 1_455 S
C647 C648 1.366 . S
C648 C647 1.366 . S
C648 C649 1.414 1_455 S
C648 C651 1.499 . S
C649 H623 0.950 . S
C649 C648 1.414 1_655 S
C649 C650 1.374 . S
C650 H624 0.950 . S
C650 C646 1.385 . S
C650 C649 1.374 . S
C651 C648 1.499 . S
C651 C652 1.373 . S
C651 C653 1.389 . S
C652 H625 0.950 . S
C652 C638 1.377 . S
C652 C651 1.373 . S
C653 C637 1.377 . S
C653 C651 1.389 . S
C653 C654 1.524 . S
C654 C653 1.524 . S
C654 C655 1.397 . S
C654 C659 1.363 . S
C655 H626 0.950 . S
C655 C654 1.397 . S
C655 C656 1.334 . S
C656 H627 0.950 . S
C656 C655 1.334 . S
C656 C657 1.287 . S
C657 C656 1.287 . S
C657 C658 1.524 . S
C657 H660 0.999 . S
C658 H628 0.950 . S
C658 C657 1.524 . S
C658 C659 1.415 . S
C659 H629 0.950 . S
C659 C654 1.363 . S
C659 C658 1.415 . S
H660 C657 0.999 . S
H661 C642 0.913 . S
H662 C680 0.951 . S
H663 C682 0.951 . S
H664 C684 0.950 . S
H665 C685 0.950 . S
H666 C687 0.950 . S
H667 C690 0.950 . S
H668 C691 0.950 . S
H669 C693 0.950 . S
H670 C694 0.950 . S
H671 C695 0.951 . S
H672 C697 0.951 . S
H673 C699 0.950 . S
H674 C700 0.950 . S
H675 C702 0.950 . S
H676 C705 0.950 . S
H677 C706 0.950 . S
H678 C708 0.950 . S
H679 C709 0.950 . S
C680 H662 0.951 . S
C680 C681 1.366 . S
C680 C682 1.388 . S
C681 C680 1.366 . S
C681 C685 1.385 . S
C682 H663 0.951 . S
C682 C680 1.388 . S
C682 C683 1.366 . S
C683 C682 1.366 . S
C683 C684 1.414 . S
C683 C686 1.499 . S
C684 H664 0.950 . S
C684 C683 1.414 . S
C684 C685 1.374 . S
C685 H665 0.950 . S
C685 C681 1.385 . S
C685 C684 1.374 . S
C686 C683 1.499 . S
C686 C687 1.373 . S
C686 C688 1.389 . S
C687 H666 0.950 . S
C687 C686 1.373 . S
C687 C703 1.377 . S
C688 C686 1.389 . S
C688 C689 1.524 . S
C688 C702 1.377 . S
C689 C688 1.524 . S
C689 C690 1.397 . S
C689 C694 1.363 . S
C690 H667 0.950 . S
C690 C689 1.397 . S
C690 C691 1.334 . S
C691 H668 0.950 . S
C691 C690 1.334 . S
C691 C692 1.287 . S
C692 C691 1.287 . S
C692 C693 1.524 . S
C692 H711 0.913 . S
C693 H669 0.950 . S
C693 C692 1.524 . S
C693 C694 1.415 . S
C694 H670 0.950 . S
C694 C689 1.363 . S
C694 C693 1.415 . S
C695 H671 0.951 . S
C695 C696 1.366 . S
C695 C697 1.388 . S
C696 C695 1.366 . S
C696 C700 1.385 . S
C697 H672 0.951 . S
C697 C695 1.388 . S
C697 C698 1.366 . S
C698 C697 1.366 . S
C698 C699 1.414 . S
C698 C701 1.499 . S
C699 H673 0.950 . S
C699 C698 1.414 . S
C699 C700 1.374 . S
C700 H674 0.950 . S
C700 C696 1.385 . S
C700 C699 1.374 . S
C701 C698 1.499 . S
C701 C702 1.373 . S
C701 C703 1.389 . S
C702 H675 0.950 . S
C702 C688 1.377 . S
C702 C701 1.373 . S
C703 C687 1.377 . S
C703 C701 1.389 . S
C703 C704 1.524 . S
C704 C703 1.524 . S
C704 C705 1.397 . S
C704 C709 1.363 . S
C705 H676 0.950 . S
C705 C704 1.397 . S
C705 C706 1.334 . S
C706 H677 0.950 . S
C706 C705 1.334 . S
C706 C707 1.287 . S
C707 C706 1.287 . S
C707 C708 1.524 . S
C707 H710 0.999 . S
C708 H678 0.950 . S
C708 C707 1.524 . S
C708 C709 1.415 . S
C709 H679 0.950 . S
C709 C704 1.363 . S
C709 C708 1.415 . S
H710 C707 0.999 . S
H711 C692 0.913 . S
H712 C730 0.951 . S
H713 C732 0.951 . S
H714 C734 0.950 . S
H715 C735 0.950 . S
H716 C737 0.950 . S
H717 C740 0.950 . S
H718 C741 0.950 . S
H719 C743 0.950 . S
H720 C744 0.950 . S
H721 C745 0.951 . S
H722 C747 0.951 . S
H723 C749 0.950 . S
H724 C750 0.950 . S
H725 C752 0.950 . S
H726 C755 0.950 . S
H727 C756 0.950 . S
H728 C758 0.950 . S
H729 C759 0.950 . S
C730 H712 0.951 . S
C730 C731 1.366 . S
C730 C732 1.388 . S
C731 C730 1.366 . S
C731 C735 1.385 . S
C732 H713 0.951 . S
C732 C730 1.388 . S
C732 C733 1.366 . S
C733 C732 1.366 . S
C733 C734 1.414 . S
C733 C736 1.499 . S
C734 H714 0.950 . S
C734 C733 1.414 . S
C734 C735 1.374 . S
C735 H715 0.950 . S
C735 C731 1.385 . S
C735 C734 1.374 . S
C736 C733 1.499 . S
C736 C737 1.373 . S
C736 C738 1.389 . S
C737 H716 0.950 . S
C737 C736 1.373 . S
C737 C753 1.377 1_655 S
C738 C736 1.389 . S
C738 C739 1.524 . S
C738 C752 1.377 1_655 S
C739 C738 1.524 . S
C739 C740 1.397 . S
C739 C744 1.363 . S
C740 H717 0.950 . S
C740 C739 1.397 . S
C740 C741 1.334 . S
C741 H718 0.950 . S
C741 C740 1.334 . S
C741 C742 1.287 . S
C742 C741 1.287 . S
C742 C743 1.524 . S
C742 H761 0.913 . S
C743 H719 0.950 . S
C743 C742 1.524 . S
C743 C744 1.415 . S
C744 H720 0.950 . S
C744 C739 1.363 . S
C744 C743 1.415 . S
C745 H721 0.951 . S
C745 C746 1.366 . S
C745 C747 1.388 . S
C746 C745 1.366 . S
C746 C750 1.385 . S
C747 H722 0.951 . S
C747 C745 1.388 . S
C747 C748 1.366 . S
C748 C747 1.366 . S
C748 C749 1.414 . S
C748 C751 1.499 . S
C749 H723 0.950 . S
C749 C748 1.414 . S
C749 C750 1.374 . S
C750 H724 0.950 . S
C750 C746 1.385 . S
C750 C749 1.374 . S
C751 C748 1.499 . S
C751 C752 1.373 . S
C751 C753 1.389 . S
C752 H725 0.950 . S
C752 C738 1.377 1_455 S
C752 C751 1.373 . S
C753 C737 1.377 1_455 S
C753 C751 1.389 . S
C753 C754 1.524 . S
C754 C753 1.524 . S
C754 C755 1.397 . S
C754 C759 1.363 . S
C755 H726 0.950 . S
C755 C754 1.397 . S
C755 C756 1.334 . S
C756 H727 0.950 . S
C756 C755 1.334 . S
C756 C757 1.287 . S
C757 C756 1.287 . S
C757 C758 1.524 . S
C757 H760 0.999 . S
C758 H728 0.950 . S
C758 C757 1.524 . S
C758 C759 1.415 . S
C759 H729 0.950 . S
C759 C754 1.363 . S
C759 C758 1.415 . S
H760 C757 0.999 . S
H761 C742 0.913 . S
H762 C780 0.951 . S
H763 C782 0.951 . S
H764 C784 0.950 . S
H765 C785 0.950 . S
H766 C787 0.950 . S
H767 C790 0.950 1_655 S
H768 C791 0.950 . S
H769 C793 0.950 . S
H770 C794 0.950 . S
H771 C795 0.951 . S
H772 C797 0.951 . S
H773 C799 0.950 . S
H774 C800 0.950 . S
H775 C802 0.950 . S
H776 C805 0.950 1_455 S
H777 C806 0.950 . S
H778 C808 0.950 . S
H779 C809 0.950 . S
C780 H762 0.951 . S
C780 C781 1.366 . S
C780 C782 1.388 . S
C781 C780 1.366 . S
C781 C785 1.385 . S
C782 H763 0.951 . S
C782 C780 1.388 . S
C782 C783 1.366 . S
C783 C782 1.366 . S
C783 C784 1.414 . S
C783 C786 1.499 . S
C784 H764 0.950 . S
C784 C783 1.414 . S
C784 C785 1.374 . S
C785 H765 0.950 . S
C785 C781 1.385 . S
C785 C784 1.374 . S
C786 C783 1.499 . S
C786 C787 1.373 . S
C786 C788 1.389 1_655 S
C787 H766 0.950 . S
C787 C786 1.373 . S
C787 C803 1.377 . S
C788 C786 1.389 1_455 S
C788 C789 1.524 . S
C788 C802 1.377 . S
C789 C788 1.524 . S
C789 C790 1.397 . S
C789 C794 1.363 . S
C790 H767 0.950 1_455 S
C790 C789 1.397 . S
C790 C791 1.334 . S
C791 H768 0.950 . S
C791 C790 1.334 . S
C791 C792 1.287 . S
C792 C791 1.287 . S
C792 C793 1.524 . S
C792 H811 0.913 . S
C793 H769 0.950 . S
C793 C792 1.524 . S
C793 C794 1.415 . S
C794 H770 0.950 . S
C794 C789 1.363 . S
C794 C793 1.415 . S
C795 H771 0.951 . S
C795 C796 1.366 . S
C795 C797 1.388 . S
C796 C795 1.366 . S
C796 C800 1.385 . S
C797 H772 0.951 . S
C797 C795 1.388 . S
C797 C798 1.366 . S
C798 C797 1.366 . S
C798 C799 1.414 . S
C798 C801 1.499 . S
C799 H773 0.950 . S
C799 C798 1.414 . S
C799 C800 1.374 . S
C800 H774 0.950 . S
C800 C796 1.385 . S
C800 C799 1.374 . S
C801 C798 1.499 . S
C801 C802 1.373 . S
C801 C803 1.389 1_455 S
C802 H775 0.950 . S
C802 C788 1.377 . S
C802 C801 1.373 . S
C803 C787 1.377 . S
C803 C801 1.389 1_655 S
C803 C804 1.524 . S
C804 C803 1.524 . S
C804 C805 1.397 . S
C804 C809 1.363 . S
C805 H776 0.950 1_655 S
C805 C804 1.397 . S
C805 C806 1.334 . S
C806 H777 0.950 . S
C806 C805 1.334 . S
C806 C807 1.287 . S
C807 C806 1.287 . S
C807 C808 1.524 . S
C807 H810 0.999 . S
C808 H778 0.950 . S
C808 C807 1.524 . S
C808 C809 1.415 . S
C809 H779 0.950 . S
C809 C804 1.363 . S
C809 C808 1.415 . S
H810 C807 0.999 . S
H811 C792 0.913 . S
H812 C830 0.951 . S
H813 C832 0.951 . S
H814 C834 0.950 . S
H815 C835 0.950 . S
H816 C837 0.950 . S
H817 C840 0.950 . S
H818 C841 0.950 . S
H819 C843 0.950 . S
H820 C844 0.950 . S
H821 C845 0.951 . S
H822 C847 0.951 . S
H823 C849 0.950 . S
H824 C850 0.950 . S
H825 C852 0.950 . S
H826 C855 0.950 . S
H827 C856 0.950 . S
H828 C858 0.950 . S
H829 C859 0.950 . S
C830 H812 0.951 . S
C830 C831 1.366 . S
C830 C832 1.388 . S
C831 C830 1.366 . S
C831 C835 1.385 . S
C832 H813 0.951 . S
C832 C830 1.388 . S
C832 C833 1.366 . S
C833 C832 1.366 . S
C833 C834 1.414 . S
C833 C836 1.499 . S
C834 H814 0.950 . S
C834 C833 1.414 . S
C834 C835 1.374 . S
C835 H815 0.950 . S
C835 C831 1.385 . S
C835 C834 1.374 . S
C836 C833 1.499 . S
C836 C837 1.373 . S
C836 C838 1.389 1_545 S
C837 H816 0.950 . S
C837 C836 1.373 . S
C837 C853 1.377 . S
C838 C836 1.389 1_565 S
C838 C839 1.524 . S
C838 C852 1.377 . S
C839 C838 1.524 . S
C839 C840 1.397 . S
C839 C844 1.363 . S
C840 H817 0.950 . S
C840 C839 1.397 . S
C840 C841 1.334 . S
C841 H818 0.950 . S
C841 C840 1.334 . S
C841 C842 1.287 . S
C842 C841 1.287 . S
C842 C843 1.524 . S
C842 H861 0.913 . S
C843 H819 0.950 . S
C843 C842 1.524 . S
C843 C844 1.415 . S
C844 H820 0.950 . S
C844 C839 1.363 . S
C844 C843 1.415 . S
C845 H821 0.951 . S
C845 C846 1.366 . S
C845 C847 1.388 . S
C846 C845 1.366 . S
C846 C850 1.385 . S
C847 H822 0.951 . S
C847 C845 1.388 . S
C847 C848 1.366 . S
C848 C847 1.366 . S
C848 C849 1.414 . S
C848 C851 1.499 . S
C849 H823 0.950 . S
C849 C848 1.414 . S
C849 C850 1.374 . S
C850 H824 0.950 . S
C850 C846 1.385 . S
C850 C849 1.374 . S
C851 C848 1.499 . S
C851 C852 1.373 . S
C851 C853 1.389 1_565 S
C852 H825 0.950 . S
C852 C838 1.377 . S
C852 C851 1.373 . S
C853 C837 1.377 . S
C853 C851 1.389 1_545 S
C853 C854 1.524 . S
C854 C853 1.524 . S
C854 C855 1.397 . S
C854 C859 1.363 . S
C855 H826 0.950 . S
C855 C854 1.397 . S
C855 C856 1.334 . S
C856 H827 0.950 . S
C856 C855 1.334 . S
C856 C857 1.287 . S
C857 C856 1.287 . S
C857 C858 1.524 . S
C857 H860 0.999 . S
C858 H828 0.950 . S
C858 C857 1.524 . S
C858 C859 1.415 . S
C859 H829 0.950 . S
C859 C854 1.363 . S
C859 C858 1.415 . S
H860 C857 0.999 . S
H861 C842 0.913 . S
H862 C880 0.951 . S
H863 C882 0.951 . S
H864 C884 0.950 . S
H865 C885 0.950 . S
H866 C887 0.950 . S
H867 C890 0.950 . S
H868 C891 0.950 . S
H869 C893 0.950 . S
H870 C894 0.950 . S
H871 C895 0.951 . S
H872 C897 0.951 . S
H873 C899 0.950 . S
H874 C900 0.950 . S
H875 C902 0.950 . S
H876 C905 0.950 . S
H877 C906 0.950 . S
H878 C908 0.950 . S
H879 C909 0.950 . S
C880 H862 0.951 . S
C880 C881 1.366 . S
C880 C882 1.388 . S
C881 C880 1.366 . S
C881 C885 1.385 . S
C882 H863 0.951 . S
C882 C880 1.388 . S
C882 C883 1.366 . S
C883 C882 1.366 . S
C883 C884 1.414 . S
C883 C886 1.499 . S
C884 H864 0.950 . S
C884 C883 1.414 . S
C884 C885 1.374 . S
C885 H865 0.950 . S
C885 C881 1.385 . S
C885 C884 1.374 . S
C886 C883 1.499 . S
C886 C887 1.373 1_545 S
C886 C888 1.389 . S
C887 H866 0.950 . S
C887 C886 1.373 1_565 S
C887 C903 1.377 . S
C888 C886 1.389 . S
C888 C889 1.524 . S
C888 C902 1.377 . S
C889 C888 1.524 . S
C889 C890 1.397 . S
C889 C894 1.363 . S
C890 H867 0.950 . S
C890 C889 1.397 . S
C890 C891 1.334 . S
C891 H868 0.950 . S
C891 C890 1.334 . S
C891 C892 1.287 . S
C892 C891 1.287 . S
C892 C893 1.524 . S
C892 H911 0.913 . S
C893 H869 0.950 . S
C893 C892 1.524 . S
C893 C894 1.415 . S
C894 H870 0.950 . S
C894 C889 1.363 . S
C894 C893 1.415 . S
C895 H871 0.951 . S
C895 C896 1.366 . S
C895 C897 1.388 . S
C896 C895 1.366 . S
C896 C900 1.385 . S
C897 H872 0.951 . S
C897 C895 1.388 . S
C897 C898 1.366 . S
C898 C897 1.366 . S
C898 C899 1.414 . S
C898 C901 1.499 . S
C899 H873 0.950 . S
C899 C898 1.414 . S
C899 C900 1.374 . S
C900 H874 0.950 . S
C900 C896 1.385 . S
C900 C899 1.374 . S
C901 C898 1.499 . S
C901 C902 1.373 1_565 S
C901 C903 1.389 . S
C902 H875 0.950 . S
C902 C888 1.377 . S
C902 C901 1.373 1_545 S
C903 C887 1.377 . S
C903 C901 1.389 . S
C903 C904 1.524 . S
C904 C903 1.524 . S
C904 C905 1.397 . S
C904 C909 1.363 . S
C905 H876 0.950 . S
C905 C904 1.397 . S
C905 C906 1.334 . S
C906 H877 0.950 . S
C906 C905 1.334 . S
C906 C907 1.287 . S
C907 C906 1.287 . S
C907 C908 1.524 . S
C907 H910 0.999 . S
C908 H878 0.950 . S
C908 C907 1.524 . S
C908 C909 1.415 . S
C909 H879 0.950 . S
C909 C904 1.363 . S
C909 C908 1.415 . S
H910 C907 0.999 . S
H911 C892 0.913 . S
C131 C8 1.490 . S
C146 C78 1.490 . S
C181 C22 1.491 . S
C196 C92 1.491 . S
C231 C36 1.490 . S
C246 C106 1.490 . S
C281 C64 1.490 . S
C296 C50 1.490 . S
C331 C6 1.488 . S
C346 C63 1.491 . S
C381 C20 1.487 . S
C396 C77 1.491 . S
C431 C91 1.491 . S
C446 C34 1.488 . S
C481 C48 1.487 . S
C496 C105 1.491 . S
C531 C62 1.488 . S
C546 C7 1.491 . S
C581 C21 1.491 . S
C596 C76 1.488 . S
C631 C90 1.487 . S
C646 C35 1.491 . S
C681 C49 1.491 . S
C696 C104 1.488 . S
C731 C37 0.756 . S
C746 C9 0.754 . S
C781 C51 0.754 . S
C796 C23 0.753 . S
C831 C65 0.753 . S
C846 C93 0.754 . S
C881 C79 0.754 . S
C896 C107 0.753 . S
