# Generated by pormake.
# Topology gis, (4)-cn, num edge types: 1
# Building blocks:
#     Node 0, Type 0, BuildingBlock: TATPOV_clean_sbu_0, # of connection points: 4
#     Node 1, Type 0, BuildingBlock: TATPOV_clean_sbu_0, # of connection points: 4
#     Node 2, Type 0, BuildingBlock: TATPOV_clean_sbu_0, # of connection points: 4
#     Node 3, Type 0, BuildingBlock: TATPOV_clean_sbu_0, # of connection points: 4
#     Node 4, Type 0, BuildingBlock: TATPOV_clean_sbu_0, # of connection points: 4
#     Node 5, Type 0, BuildingBlock: TATPOV_clean_sbu_0, # of connection points: 4
#     Node 6, Type 0, BuildingBlock: TATPOV_clean_sbu_0, # of connection points: 4
#     Node 7, Type 0, BuildingBlock: TATPOV_clean_sbu_0, # of connection points: 4
#     Node 8, Type 0, BuildingBlock: TATPOV_clean_sbu_0, # of connection points: 4
#     Node 9, Type 0, BuildingBlock: TATPOV_clean_sbu_0, # of connection points: 4
#     Node 10, Type 0, BuildingBlock: TATPOV_clean_sbu_0, # of connection points: 4
#     Node 11, Type 0, BuildingBlock: TATPOV_clean_sbu_0, # of connection points: 4
#     Node 12, Type 0, BuildingBlock: TATPOV_clean_sbu_0, # of connection points: 4
#     Node 13, Type 0, BuildingBlock: TATPOV_clean_sbu_0, # of connection points: 4
#     Node 14, Type 0, BuildingBlock: TATPOV_clean_sbu_0, # of connection points: 4
#     Node 15, Type 0, BuildingBlock: TATPOV_clean_sbu_0, # of connection points: 4
#     Edge 16, Type (0, 0), BuildingBlock: XIVTED_clean_linker_0, # of connection points: 2
#     Edge 17, Type (0, 0), BuildingBlock: XIVTED_clean_linker_0, # of connection points: 2
#     Edge 18, Type (0, 0), BuildingBlock: XIVTED_clean_linker_0, # of connection points: 2
#     Edge 19, Type (0, 0), BuildingBlock: XIVTED_clean_linker_0, # of connection points: 2
#     Edge 20, Type (0, 0), BuildingBlock: XIVTED_clean_linker_0, # of connection points: 2
#     Edge 21, Type (0, 0), BuildingBlock: XIVTED_clean_linker_0, # of connection points: 2
#     Edge 22, Type (0, 0), BuildingBlock: XIVTED_clean_linker_0, # of connection points: 2
#     Edge 23, Type (0, 0), BuildingBlock: XIVTED_clean_linker_0, # of connection points: 2
#     Edge 24, Type (0, 0), BuildingBlock: XIVTED_clean_linker_0, # of connection points: 2
#     Edge 25, Type (0, 0), BuildingBlock: XIVTED_clean_linker_0, # of connection points: 2
#     Edge 26, Type (0, 0), BuildingBlock: XIVTED_clean_linker_0, # of connection points: 2
#     Edge 27, Type (0, 0), BuildingBlock: XIVTED_clean_linker_0, # of connection points: 2
#     Edge 28, Type (0, 0), BuildingBlock: XIVTED_clean_linker_0, # of connection points: 2
#     Edge 29, Type (0, 0), BuildingBlock: XIVTED_clean_linker_0, # of connection points: 2
#     Edge 30, Type (0, 0), BuildingBlock: XIVTED_clean_linker_0, # of connection points: 2
#     Edge 31, Type (0, 0), BuildingBlock: XIVTED_clean_linker_0, # of connection points: 2
#     Edge 32, Type (0, 0), BuildingBlock: XIVTED_clean_linker_0, # of connection points: 2
#     Edge 33, Type (0, 0), BuildingBlock: XIVTED_clean_linker_0, # of connection points: 2
#     Edge 34, Type (0, 0), BuildingBlock: XIVTED_clean_linker_0, # of connection points: 2
#     Edge 35, Type (0, 0), BuildingBlock: XIVTED_clean_linker_0, # of connection points: 2
#     Edge 36, Type (0, 0), BuildingBlock: XIVTED_clean_linker_0, # of connection points: 2
#     Edge 37, Type (0, 0), BuildingBlock: XIVTED_clean_linker_0, # of connection points: 2
#     Edge 38, Type (0, 0), BuildingBlock: XIVTED_clean_linker_0, # of connection points: 2
#     Edge 39, Type (0, 0), BuildingBlock: XIVTED_clean_linker_0, # of connection points: 2
#     Edge 40, Type (0, 0), BuildingBlock: XIVTED_clean_linker_0, # of connection points: 2
#     Edge 41, Type (0, 0), BuildingBlock: XIVTED_clean_linker_0, # of connection points: 2
#     Edge 42, Type (0, 0), BuildingBlock: XIVTED_clean_linker_0, # of connection points: 2
#     Edge 43, Type (0, 0), BuildingBlock: XIVTED_clean_linker_0, # of connection points: 2
#     Edge 44, Type (0, 0), BuildingBlock: XIVTED_clean_linker_0, # of connection points: 2
#     Edge 45, Type (0, 0), BuildingBlock: XIVTED_clean_linker_0, # of connection points: 2
#     Edge 46, Type (0, 0), BuildingBlock: XIVTED_clean_linker_0, # of connection points: 2
#     Edge 47, Type (0, 0), BuildingBlock: XIVTED_clean_linker_0, # of connection points: 2
# Relax obj value: 0.143
# Max RMSD: 0.161
# Mean RMSD: 0.141
data_MOF--net-gis--node1-TATPOV_clean_sbu_0--edge1-XIVTED_clean_linker_0
_symmetry_space_group_name_H-M    P1
_symmetry_Int_Tables_number       1
_symmetry_cell_setting            triclinic
loop_
_symmetry_equiv_pos_as_xyz
'x, y, z'
_cell_length_a     47.060027
_cell_length_b     47.064042
_cell_length_c     47.046656
_cell_angle_alpha  91.667001
_cell_angle_beta   91.610779
_cell_angle_gamma 90.087746
loop_
_atom_site_label
_atom_site_type_symbol
_atom_site_fract_x
_atom_site_fract_y
_atom_site_fract_z
_atom_type_partial_charge
Zn0 Zn 0.1419 0.64308 0.05877 0.0
Zn1 Zn 0.14995 0.62123 0.11068 0.0
O2 O 0.17389 0.59633 0.08346 0.0
O3 O 0.16832 0.61446 0.04111 0.0
O4 O 0.15951 0.60513 0.1491 0.0
O5 O 0.15671 0.68104 0.07361 0.0
O6 O 0.1614 0.66332 0.11627 0.0
C7 C 0.1793 0.59599 0.05704 0.0
C8 C 0.0902 0.62259 0.08454 0.0
O9 O 0.10682 0.61625 0.10525 0.0
O10 O 0.10007 0.6337 0.06264 0.0
C11 C 0.16258 0.57859 0.15251 0.0
O12 O 0.15797 0.56092 0.13073 0.0
C13 C 0.16311 0.68427 0.09982 0.0
Zn14 Zn 0.66919 0.8891 0.46798 0.0
Zn15 Zn 0.68998 0.90294 0.41713 0.0
O16 O 0.70743 0.93286 0.44544 0.0
O17 O 0.69442 0.91875 0.48739 0.0
O18 O 0.70696 0.91253 0.3794 0.0
O19 O 0.6824 0.84877 0.46262 0.0
O20 O 0.69914 0.86015 0.42121 0.0
C21 C 0.70773 0.936 0.47244 0.0
C22 C 0.62637 0.90803 0.42726 0.0
O23 O 0.64754 0.90948 0.41111 0.0
O24 O 0.62986 0.90028 0.45272 0.0
C25 C 0.69559 0.93054 0.36294 0.0
O26 O 0.67237 0.94375 0.37071 0.0
C27 C 0.69457 0.84163 0.43986 0.0
Zn28 Zn 0.34468 0.41103 0.56476 0.0
Zn29 Zn 0.32072 0.42386 0.61388 0.0
O30 O 0.30467 0.45501 0.58715 0.0
O31 O 0.32333 0.4423 0.54617 0.0
O32 O 0.30119 0.43096 0.65131 0.0
O33 O 0.32787 0.37201 0.56297 0.0
O34 O 0.30836 0.382 0.60404 0.0
C35 C 0.30771 0.45869 0.56063 0.0
C36 C 0.38572 0.42708 0.60884 0.0
O37 O 0.36363 0.42956 0.62385 0.0
O38 O 0.38328 0.41914 0.58293 0.0
C39 C 0.30687 0.41387 0.67113 0.0
O40 O 0.32566 0.39372 0.66663 0.0
C41 C 0.31261 0.3647 0.58322 0.0
Zn42 Zn 0.86857 0.07539 0.79141 0.0
Zn43 Zn 0.85124 0.05778 0.8426 0.0
O44 O 0.82431 0.03785 0.81313 0.0
O45 O 0.83874 0.05118 0.77144 0.0
O46 O 0.83512 0.04526 0.87951 0.0
O47 O 0.90616 0.05752 0.80082 0.0
O48 O 0.89299 0.04426 0.8431 0.0
C49 C 0.82201 0.03692 0.78607 0.0
C50 C 0.85073 0.12128 0.82819 0.0
O51 O 0.84673 0.10093 0.84489 0.0
O52 O 0.86007 0.11626 0.80356 0.0
C53 C 0.83735 0.0593 0.903 0.0
O54 O 0.8522 0.08297 0.9044 0.0
C55 C 0.9117 0.0456 0.82411 0.0
Zn56 Zn 0.17663 0.36797 0.95869 0.0
Zn57 Zn 0.18602 0.38482 0.90664 0.0
O58 O 0.20577 0.41455 0.93402 0.0
O59 O 0.20285 0.39726 0.97675 0.0
O60 O 0.20168 0.39314 0.86812 0.0
O61 O 0.18894 0.32758 0.95185 0.0
O62 O 0.19588 0.34216 0.90868 0.0
C63 C 0.21116 0.41656 0.96075 0.0
C64 C 0.12624 0.38828 0.92589 0.0
O65 O 0.1428 0.39115 0.90515 0.0
O66 O 0.13586 0.37948 0.94952 0.0
C67 C 0.19732 0.41384 0.85178 0.0
O68 O 0.17951 0.43402 0.85919 0.0
C69 C 0.19612 0.32231 0.92656 0.0
Zn70 Zn 0.83058 0.90153 0.07768 0.0
Zn71 Zn 0.81299 0.92627 0.12524 0.0
O72 O 0.79797 0.95394 0.09439 0.0
O73 O 0.80929 0.93009 0.05527 0.0
O74 O 0.79886 0.94082 0.16302 0.0
O75 O 0.81154 0.86481 0.08512 0.0
O76 O 0.79701 0.88505 0.12491 0.0
C77 C 0.79789 0.9514 0.06728 0.0
C78 C 0.87655 0.9222 0.11432 0.0
O79 O 0.85629 0.92926 0.13046 0.0
O80 O 0.87125 0.90987 0.09045 0.0
C81 C 0.77245 0.94294 0.16759 0.0
O82 O 0.7541 0.93834 0.14638 0.0
C83 C 0.798 0.86357 0.10786 0.0
Zn84 Zn 0.36021 0.58242 0.29743 0.0
Zn85 Zn 0.34171 0.58384 0.34974 0.0
O86 O 0.30897 0.56603 0.32415 0.0
O87 O 0.3267 0.56076 0.28156 0.0
O88 O 0.32853 0.57959 0.39009 0.0
O89 O 0.39581 0.56192 0.30775 0.0
O90 O 0.38195 0.56508 0.35197 0.0
C91 C 0.30631 0.55778 0.29813 0.0
C92 C 0.35163 0.63962 0.32179 0.0
O93 O 0.34435 0.62665 0.34386 0.0
O94 O 0.35901 0.6256 0.29977 0.0
C95 C 0.30309 0.57434 0.39683 0.0
O96 O 0.28303 0.57279 0.37687 0.0
C97 C 0.40044 0.55766 0.33386 0.0
Zn98 Zn 0.61027 0.10723 0.68939 0.0
Zn99 Zn 0.63535 0.10264 0.6384 0.0
O100 O 0.6537 0.07329 0.66478 0.0
O101 O 0.63287 0.07541 0.706 0.0
O102 O 0.65621 0.09428 0.60229 0.0
O103 O 0.57307 0.09854 0.66907 0.0
O104 O 0.59335 0.09595 0.6274 0.0
C105 C 0.65107 0.06432 0.68986 0.0
C106 C 0.63854 0.15882 0.67159 0.0
O107 O 0.64388 0.14433 0.64909 0.0
O108 O 0.62538 0.14762 0.6916 0.0
C109 C 0.68293 0.09028 0.60391 0.0
O110 O 0.6964 0.0946 0.6285 0.0
C111 C 0.57123 0.0948 0.64232 0.0
Zn112 Zn 0.86923 0.35672 0.9538 0.0
Zn113 Zn 0.85452 0.38319 0.90582 0.0
O114 O 0.83214 0.40119 0.93902 0.0
O115 O 0.84243 0.37865 0.97824 0.0
O116 O 0.83751 0.40543 0.87347 0.0
O117 O 0.8567 0.31976 0.93498 0.0
O118 O 0.84584 0.34118 0.89509 0.0
C119 C 0.82876 0.39781 0.96552 0.0
C120 C 0.91591 0.38591 0.92672 0.0
O121 O 0.89756 0.39174 0.90731 0.0
O122 O 0.90875 0.37217 0.94818 0.0
C123 C 0.84049 0.40154 0.84687 0.0
O124 O 0.85739 0.38128 0.83768 0.0
C125 C 0.84773 0.3186 0.90935 0.0
Zn126 Zn 0.32375 0.11573 0.52974 0.0
Zn127 Zn 0.31017 0.09883 0.58221 0.0
O128 O 0.29351 0.0673 0.55531 0.0
O129 O 0.30188 0.08244 0.51248 0.0
O130 O 0.30176 0.08572 0.6215 0.0
O131 O 0.30436 0.15299 0.53788 0.0
O132 O 0.29449 0.13998 0.58112 0.0
C133 C 0.29185 0.06385 0.52836 0.0
C134 C 0.37232 0.10241 0.56532 0.0
O135 O 0.35301 0.09759 0.58292 0.0
O136 O 0.36577 0.1107 0.54059 0.0
C137 C 0.30401 0.0597 0.62782 0.0
O138 O 0.31084 0.0408 0.60809 0.0
C139 C 0.29395 0.15858 0.56192 0.0
Zn140 Zn 0.65173 0.598 0.33471 0.0
Zn141 Zn 0.66674 0.57505 0.3838 0.0
O142 O 0.6963 0.55838 0.35572 0.0
O143 O 0.68102 0.57498 0.31468 0.0
O144 O 0.67538 0.5555 0.4208 0.0
O145 O 0.61221 0.58269 0.33567 0.0
O146 O 0.62404 0.56417 0.37677 0.0
C147 C 0.69831 0.56006 0.32883 0.0
C148 C 0.67151 0.63938 0.37751 0.0
O149 O 0.67405 0.61761 0.39292 0.0
O150 O 0.66226 0.6366 0.35202 0.0
C151 C 0.67119 0.52882 0.42151 0.0
O152 O 0.66293 0.51508 0.39799 0.0
C153 C 0.60567 0.56844 0.3569 0.0
Zn154 Zn 0.12849 0.92974 0.20422 0.0
Zn155 Zn 0.14221 0.94677 0.15149 0.0
O156 O 0.16865 0.96987 0.17879 0.0
O157 O 0.15628 0.95838 0.22172 0.0
O158 O 0.15155 0.96062 0.11257 0.0
O159 O 0.08751 0.94017 0.19638 0.0
O160 O 0.09906 0.9528 0.15349 0.0
C161 C 0.17186 0.97247 0.2057 0.0
C162 C 0.15178 0.88513 0.16742 0.0
O163 O 0.15274 0.90487 0.14952 0.0
O164 O 0.14252 0.89022 0.19212 0.0
C165 C 0.1764 0.96855 0.10631 0.0
O166 O 0.19701 0.96775 0.12569 0.0
C167 C 0.08034 0.94924 0.17215 0.0
Zn168 Zn 0.82015 0.62293 0.06942 0.0
Zn169 Zn 0.822 0.60481 0.12231 0.0
O170 O 0.80226 0.57267 0.0977 0.0
O171 O 0.79926 0.5887 0.05428 0.0
O172 O 0.81914 0.59107 0.1625 0.0
O173 O 0.79827 0.65744 0.08068 0.0
O174 O 0.8024 0.64436 0.12514 0.0
C175 C 0.79464 0.56928 0.07157 0.0
C176 C 0.8775 0.61514 0.093 0.0
O177 O 0.86477 0.60741 0.11507 0.0
O178 O 0.86323 0.62285 0.0713 0.0
C179 C 0.8174 0.56496 0.16856 0.0
O180 O 0.81909 0.54544 0.14816 0.0
C181 C 0.79395 0.66214 0.10679 0.0
Zn182 Zn 0.16225 0.08213 0.80703 0.0
Zn183 Zn 0.17826 0.05905 0.85571 0.0
O184 O 0.20812 0.04282 0.82778 0.0
O185 O 0.19172 0.05952 0.78715 0.0
O186 O 0.18561 0.03955 0.89272 0.0
O187 O 0.12304 0.06626 0.80796 0.0
O188 O 0.13617 0.04726 0.84843 0.0
C189 C 0.20947 0.04471 0.80085 0.0
C190 C 0.18134 0.12344 0.84999 0.0
O191 O 0.18432 0.10164 0.86524 0.0
O192 O 0.1723 0.1207 0.82444 0.0
C193 C 0.20208 0.04772 0.91323 0.0
O194 O 0.218 0.07039 0.91057 0.0
C195 C 0.11736 0.05138 0.829 0.0
Zn196 Zn 0.62822 0.42251 0.71859 0.0
Zn197 Zn 0.64776 0.42984 0.66776 0.0
O198 O 0.67855 0.44544 0.69668 0.0
O199 O 0.65913 0.44544 0.73861 0.0
O200 O 0.66089 0.44349 0.62987 0.0
O201 O 0.5893 0.43809 0.71024 0.0
O202 O 0.60552 0.44279 0.66731 0.0
C203 C 0.6802 0.45063 0.72345 0.0
C204 C 0.64467 0.37023 0.68681 0.0
O205 O 0.6501 0.38654 0.6665 0.0
O206 O 0.63576 0.38054 0.71014 0.0
C207 C 0.65389 0.4308 0.60648 0.0
O208 O 0.63884 0.40729 0.60695 0.0
C209 C 0.58513 0.44468 0.6846 0.0
Zn210 Zn 0.39319 0.90359 0.29527 0.0
Zn211 Zn 0.36705 0.90982 0.34588 0.0
O212 O 0.3478 0.9365 0.3178 0.0
O213 O 0.36824 0.93299 0.27647 0.0
O214 O 0.34385 0.91928 0.38002 0.0
O215 O 0.42954 0.91553 0.31643 0.0
O216 O 0.40834 0.91902 0.35759 0.0
C217 C 0.34963 0.94408 0.29218 0.0
C218 C 0.36763 0.85169 0.31633 0.0
O219 O 0.36082 0.86748 0.33749 0.0
O220 O 0.38072 0.8621 0.29582 0.0
C221 C 0.34642 0.91173 0.40566 0.0
O222 O 0.36715 0.89459 0.41313 0.0
C223 C 0.43073 0.92045 0.34308 0.0
H224 H 0.17117 0.86625 0.1159 0.0
H225 H 0.16617 0.70238 0.15584 0.0
H226 H 0.15152 0.83726 0.19939 0.0
H227 H 0.17436 0.73209 0.07048 0.0
H228 H 0.16939 0.7516 0.17391 0.0
H229 H 0.18068 0.81725 0.10082 0.0
C230 C 0.16906 0.84963 0.13116 0.0
C231 C 0.16015 0.85588 0.15886 0.0
C232 C 0.17081 0.74728 0.15126 0.0
C233 C 0.17099 0.79963 0.14166 0.0
C234 C 0.16912 0.71918 0.14094 0.0
C235 C 0.1696 0.71313 0.11156 0.0
C236 C 0.1731 0.76944 0.13207 0.0
C237 C 0.17351 0.73577 0.09326 0.0
C238 C 0.1745 0.82162 0.12251 0.0
C239 C 0.15805 0.83343 0.17774 0.0
N240 N 0.17484 0.76291 0.10379 0.0
N241 N 0.16319 0.80627 0.16871 0.0
H242 H 0.44428 0.9202 0.40025 0.0
H243 H 0.61136 0.92566 0.37405 0.0
H244 H 0.48118 0.93143 0.31831 0.0
H245 H 0.57579 0.90606 0.45484 0.0
H246 H 0.56359 0.93425 0.35497 0.0
H247 H 0.49204 0.92179 0.42228 0.0
C248 C 0.46236 0.92341 0.38695 0.0
C249 C 0.45876 0.92535 0.35735 0.0
C250 C 0.56621 0.92822 0.37692 0.0
C251 C 0.51335 0.92699 0.38235 0.0
C252 C 0.59352 0.92327 0.38785 0.0
C253 C 0.5976 0.91482 0.41602 0.0
C254 C 0.54272 0.92463 0.39423 0.0
C255 C 0.57364 0.91232 0.43293 0.0
C256 C 0.48961 0.92419 0.39952 0.0
C257 C 0.48295 0.92951 0.34117 0.0
N258 N 0.54719 0.91701 0.4217 0.0
N259 N 0.50919 0.92997 0.35385 0.0
H260 H 0.29509 0.33435 0.53626 0.0
H261 H 0.29281 0.1872 0.61377 0.0
H262 H 0.30222 0.32938 0.62755 0.0
H263 H 0.27523 0.19747 0.52418 0.0
H264 H 0.28906 0.23893 0.62122 0.0
H265 H 0.28088 0.28468 0.53308 0.0
C266 C 0.29339 0.32276 0.55571 0.0
C267 C 0.3002 0.33583 0.58216 0.0
C268 C 0.28541 0.22977 0.60005 0.0
C269 C 0.28441 0.27849 0.57873 0.0
C270 C 0.28737 0.20023 0.59582 0.0
C271 C 0.2848 0.18811 0.56822 0.0
C272 C 0.28087 0.24709 0.5765 0.0
C273 C 0.27787 0.20596 0.54573 0.0
C274 C 0.2852 0.29435 0.55392 0.0
C275 C 0.29725 0.31997 0.60673 0.0
N276 N 0.27654 0.2345 0.55031 0.0
N277 N 0.29009 0.29188 0.6044 0.0
H278 H 0.08341 0.0316 0.78554 0.0
H279 H 0.94346 0.04473 0.87413 0.0
H280 H 0.08575 0.04508 0.87661 0.0
H281 H 0.94595 0.02229 0.78471 0.0
H282 H 0.99504 0.03662 0.87817 0.0
H283 H 0.03323 0.01964 0.78714 0.0
C284 C 0.0733 0.0317 0.80596 0.0
C285 C 0.08848 0.03972 0.83091 0.0
C286 C 0.98414 0.03285 0.85783 0.0
C287 C 0.03073 0.02675 0.83297 0.0
C288 C 0.95475 0.03736 0.85557 0.0
C289 C 0.9407 0.03471 0.82893 0.0
C290 C -0.00075 0.02563 0.83327 0.0
C291 C 0.95615 0.02514 0.80553 0.0
C292 C 0.04463 0.02482 0.80693 0.0
C293 C 0.07459 0.03913 0.85689 0.0
N294 N 0.98459 0.02131 0.80817 0.0
N295 N 0.04622 0.03338 0.85721 0.0
H296 H 0.19672 0.27421 0.95826 0.0
H297 H 0.18761 0.17202 0.82066 0.0
H298 H 0.20686 0.30258 0.87265 0.0
H299 H 0.19134 0.14037 0.9059 0.0
H300 H 0.197 0.21974 0.83987 0.0
H301 H 0.1978 0.22496 0.94028 0.0
C302 C 0.1996 0.27012 0.93575 0.0
C303 C 0.20135 0.29262 0.91688 0.0
C304 C 0.19597 0.20239 0.85443 0.0
C305 C 0.20228 0.2363 0.89618 0.0
C306 C 0.19046 0.17509 0.84347 0.0
C307 C 0.18838 0.15217 0.86173 0.0
C308 C 0.19915 0.20702 0.88395 0.0
C309 C 0.19262 0.15745 0.89107 0.0
C310 C 0.20016 0.24197 0.92551 0.0
C311 C 0.20519 0.28598 0.88797 0.0
N312 N 0.19752 0.18441 0.90132 0.0
N313 N 0.20517 0.25846 0.87849 0.0
H314 H 0.92305 0.92081 0.08091 0.0
H315 H 0.03515 0.94967 0.20763 0.0
H316 H 0.89776 0.93992 0.16688 0.0
H317 H 0.05593 0.95465 0.11909 0.0
H318 H 0.98479 0.94655 0.19367 0.0
H319 H 0.97204 0.93245 0.09494 0.0
C320 C 0.9278 0.92741 0.10278 0.0
C321 C 0.90628 0.9292 0.12281 0.0
C322 C 0.00036 0.94871 0.17735 0.0
C323 C 0.96243 0.94264 0.139 0.0
C324 C 0.02911 0.95052 0.18528 0.0
C325 C 0.04982 0.95216 0.16447 0.0
C326 C 0.9923 0.94814 0.14839 0.0
C327 C 0.04073 0.95332 0.13586 0.0
C328 C 0.95577 0.93426 0.11072 0.0
C329 C 0.9137 0.93816 0.15077 0.0
N330 N 0.01267 0.95088 0.12864 0.0
N331 N 0.94123 0.94433 0.15811 0.0
H332 H 0.33824 0.67779 0.36484 0.0
H333 H 0.37524 0.81283 0.27297 0.0
H334 H 0.36488 0.67319 0.27773 0.0
H335 H 0.34703 0.82 0.35944 0.0
H336 H 0.36918 0.76154 0.27411 0.0
H337 H 0.33936 0.7298 0.36323 0.0
C338 C 0.34426 0.68767 0.34539 0.0
C339 C 0.35161 0.67106 0.32143 0.0
C340 C 0.36416 0.77428 0.29283 0.0
C341 C 0.35287 0.73044 0.31944 0.0
C342 C 0.36761 0.80364 0.29219 0.0
C343 C 0.36179 0.82078 0.31621 0.0
C344 C 0.35497 0.76179 0.31773 0.0
C345 C 0.35182 0.8076 0.34044 0.0
C346 C 0.34486 0.71734 0.34448 0.0
C347 C 0.35916 0.68504 0.29678 0.0
N348 N 0.34889 0.77885 0.34065 0.0
N349 N 0.35966 0.71383 0.29648 0.0
H350 H 0.52313 0.07758 0.66738 0.0
H351 H 0.42046 0.113 0.53534 0.0
H352 H 0.55476 0.10272 0.58658 0.0
H353 H 0.39251 0.08174 0.61537 0.0
H354 H 0.46991 0.10693 0.5519 0.0
H355 H 0.47528 0.07591 0.64675 0.0
C356 C 0.52 0.08257 0.64517 0.0
C357 C 0.54289 0.09059 0.62873 0.0
C358 C 0.45288 0.10126 0.56569 0.0
C359 C 0.48793 0.08903 0.60494 0.0
C360 C 0.4247 0.10478 0.5563 0.0
C361 C 0.40232 0.09814 0.57411 0.0
C362 C 0.45859 0.09107 0.59304 0.0
C363 C 0.40901 0.08741 0.60098 0.0
C364 C 0.49262 0.0816 0.63337 0.0
C365 C 0.53763 0.0965 0.59999 0.0
N366 N 0.43649 0.08436 0.60962 0.0
N367 N 0.51056 0.09594 0.58904 0.0
H368 H 0.85635 0.17036 0.79857 0.0
H369 H 0.8349 0.26988 0.93591 0.0
H370 H 0.83256 0.13969 0.88023 0.0
H371 H 0.84645 0.30319 0.8525 0.0
H372 H 0.83078 0.22223 0.91474 0.0
H373 H 0.85014 0.21916 0.81667 0.0
C374 C 0.84965 0.17385 0.82023 0.0
C375 C 0.84527 0.15087 0.83801 0.0
C376 C 0.83392 0.23992 0.90094 0.0
C377 C 0.83816 0.20663 0.85879 0.0
C378 C 0.8363 0.26717 0.91304 0.0
C379 C 0.84132 0.29048 0.89596 0.0
C380 C 0.83699 0.23578 0.87152 0.0
C381 C 0.84264 0.28576 0.86643 0.0
C382 C 0.84604 0.20172 0.83051 0.0
C383 C 0.83642 0.15669 0.8658 0.0
N384 N 0.8409 0.25883 0.85515 0.0
N385 N 0.8334 0.18396 0.87538 0.0
H386 H 0.6903 0.65502 0.4317 0.0
H387 H 0.69239 0.79759 0.47645 0.0
H388 H 0.67192 0.68912 0.349 0.0
H389 H 0.70711 0.81582 0.38868 0.0
H390 H 0.69113 0.74712 0.46398 0.0
H391 H 0.70288 0.70281 0.44957 0.0
C392 C 0.68873 0.67256 0.41735 0.0
C393 C 0.6796 0.66805 0.38891 0.0
C394 C 0.69549 0.76193 0.44751 0.0
C395 C 0.69352 0.72301 0.4093 0.0
C396 C 0.69606 0.79092 0.45463 0.0
C397 C 0.69966 0.81106 0.43354 0.0
C398 C 0.69845 0.75292 0.41902 0.0
C399 C 0.70425 0.80111 0.40565 0.0
C400 C 0.69576 0.69995 0.42762 0.0
C401 C 0.67846 0.69155 0.37118 0.0
N402 N 0.70304 0.77279 0.39913 0.0
N403 N 0.68525 0.71794 0.38168 0.0
H404 H 0.8048 0.69372 0.15596 0.0
H405 H 0.76427 0.83078 0.07305 0.0
H406 H 0.7565 0.69401 0.07671 0.0
H407 H 0.80255 0.83453 0.15734 0.0
H408 H 0.75165 0.78125 0.07955 0.0
H409 H 0.79504 0.74465 0.16276 0.0
C410 C 0.79139 0.7043 0.14048 0.0
C411 C 0.78197 0.68991 0.11542 0.0
C412 C 0.7623 0.79289 0.09696 0.0
C413 C 0.77104 0.74791 0.12281 0.0
C414 C 0.76943 0.82119 0.09321 0.0
C415 C 0.78465 0.83645 0.11459 0.0
C416 C 0.77139 0.77941 0.1219 0.0
C417 C 0.79081 0.82327 0.14037 0.0
C418 C 0.78593 0.73339 0.14428 0.0
C419 C 0.76469 0.70453 0.09603 0.0
N420 N 0.7848 0.79518 0.14308 0.0
N421 N 0.76019 0.73278 0.0999 0.0
H422 H 0.65563 0.33811 0.63836 0.0
H423 H 0.6411 0.19222 0.71976 0.0
H424 H 0.64263 0.33142 0.72842 0.0
H425 H 0.65222 0.19502 0.62911 0.0
H426 H 0.64718 0.24346 0.72333 0.0
H427 H 0.6593 0.28608 0.6344 0.0
C428 C 0.65373 0.32576 0.65729 0.0
C429 C 0.6485 0.33912 0.6837 0.0
C430 C 0.6485 0.23296 0.70262 0.0
C431 C 0.65279 0.27987 0.67936 0.0
C432 C 0.64504 0.20363 0.70058 0.0
C433 C 0.64582 0.18935 0.67405 0.0
C434 C 0.65248 0.24836 0.67791 0.0
C435 C 0.65136 0.20523 0.64998 0.0
C436 C 0.65583 0.29611 0.65502 0.0
C437 C 0.64633 0.32211 0.70755 0.0
N438 N 0.65414 0.23401 0.65243 0.0
N439 N 0.64836 0.29347 0.70476 0.0
H440 H 0.09179 0.39044 0.8773 0.0
H441 H 0.95251 0.39955 0.97025 0.0
H442 H 0.09077 0.40108 0.96868 0.0
H443 H 0.94782 0.39075 0.87874 0.0
H444 H 0.00351 0.40648 0.96834 0.0
H445 H 0.03971 0.3962 0.87552 0.0
C446 C 0.0807 0.39435 0.89688 0.0
C447 C 0.09555 0.39482 0.92322 0.0
C448 C 0.99149 0.40329 0.94854 0.0
C449 C 0.03639 0.40148 0.92135 0.0
C450 C 0.96229 0.39934 0.94966 0.0
C451 C 0.94602 0.39426 0.92465 0.0
C452 C 0.00485 0.40162 0.92221 0.0
C453 C 0.95972 0.39456 0.89852 0.0
C454 C 0.05104 0.39758 0.89587 0.0
C455 C 0.08019 0.40003 0.94794 0.0
N456 N 0.98852 0.39769 0.89796 0.0
N457 N 0.05159 0.40296 0.94638 0.0
H458 H 0.57188 0.56415 0.40345 0.0
H459 H 0.43684 0.52551 0.30283 0.0
H460 H 0.57301 0.54785 0.31283 0.0
H461 H 0.42926 0.56753 0.38498 0.0
H462 H 0.48752 0.51929 0.31255 0.0
H463 H 0.52069 0.55256 0.40239 0.0
C464 C 0.56148 0.55753 0.3835 0.0
C465 C 0.57645 0.55726 0.35811 0.0
C466 C 0.47474 0.52946 0.32869 0.0
C467 C 0.51853 0.54379 0.35681 0.0
C468 C 0.44577 0.53292 0.3232 0.0
C469 C 0.42893 0.54755 0.3429 0.0
C470 C 0.48717 0.54101 0.35393 0.0
C471 C 0.44156 0.55632 0.36913 0.0
C472 C 0.53236 0.55106 0.3829 0.0
C473 C 0.56211 0.54868 0.33281 0.0
N474 N 0.47014 0.55345 0.37369 0.0
N475 N 0.53399 0.54243 0.33279 0.0
H476 H 0.56675 0.45279 0.62959 0.0
H477 H 0.4017 0.4386 0.66487 0.0
H478 H 0.53628 0.4481 0.71506 0.0
H479 H 0.43527 0.43139 0.5805 0.0
H480 H 0.4499 0.44866 0.68387 0.0
H481 H 0.51762 0.45274 0.61154 0.0
C482 C 0.54976 0.45225 0.64463 0.0
C483 C 0.55575 0.45013 0.67389 0.0
C484 C 0.44662 0.445 0.66119 0.0
C485 C 0.4993 0.44963 0.65326 0.0
C486 C 0.41913 0.43923 0.65034 0.0
C487 C 0.41442 0.43387 0.62107 0.0
C488 C 0.46949 0.4456 0.6426 0.0
C489 C 0.43783 0.43509 0.60324 0.0
C490 C 0.52166 0.45202 0.63428 0.0
C491 C 0.53273 0.44952 0.69231 0.0
N492 N 0.46426 0.44074 0.61428 0.0
N493 N 0.50555 0.44897 0.68168 0.0
H494 H 0.05959 0.60498 0.12998 0.0
H495 H 0.91026 0.62837 0.04838 0.0
H496 H 0.04979 0.63096 0.04297 0.0
H497 H 0.9165 0.60124 0.13524 0.0
H498 H 0.96171 0.62801 0.0464 0.0
H499 H 0.00768 0.60165 0.13255 0.0
C500 C 0.04659 0.60978 0.11138 0.0
C501 C 0.0591 0.6184 0.08625 0.0
C502 C 0.95194 0.62209 0.06594 0.0
C503 C -0.00016 0.61476 0.08912 0.0
C504 C 0.92245 0.62234 0.06712 0.0
C505 C 0.90894 0.61491 0.09207 0.0
C506 C 0.96833 0.61442 0.08989 0.0
C507 C 0.92601 0.60719 0.11559 0.0
C508 C 0.01697 0.60794 0.1129 0.0
C509 C 0.04119 0.62437 0.06284 0.0
N510 N 0.95487 0.6072 0.11395 0.0
N511 N 0.01257 0.62253 0.06491 0.0
H512 H 0.20191 0.5494 0.0832 0.0
H513 H 0.21945 0.46754 0.93523 0.0
H514 H 0.19463 0.58882 0.00159 0.0
H515 H 0.22579 0.42775 0.01669 0.0
H516 H 0.22253 0.51403 0.95955 0.0
H517 H 0.2219 0.50719 0.0599 0.0
C518 C 0.20493 0.54939 0.06046 0.0
C519 C 0.19596 0.57246 0.04425 0.0
C520 C 0.22385 0.49512 0.97209 0.0
C521 C 0.21866 0.52411 0.0174 0.0
C522 C 0.22228 0.46851 0.95817 0.0
C523 C 0.22158 0.44369 0.97397 0.0
C524 C 0.22454 0.49687 0.00199 0.0
C525 C 0.22558 0.44633 0.00365 0.0
C526 C 0.21636 0.52525 0.04715 0.0
C527 C 0.20073 0.57134 0.01489 0.0
N528 N 0.22627 0.47243 0.01672 0.0
N529 N 0.21131 0.5474 0.00237 0.0
H530 H 0.67061 0.95779 0.31814 0.0
H531 H 0.80373 0.93909 0.21732 0.0
H532 H 0.74799 0.91518 0.3436 0.0
H533 H 0.71834 0.95364 0.18514 0.0
H534 H 0.78585 0.93888 0.26562 0.0
H535 H 0.69009 0.96449 0.27111 0.0
C536 C 0.69177 0.95 0.31392 0.0
C537 C 0.70765 0.93575 0.33481 0.0
C538 C 0.77108 0.94231 0.24799 0.0
C539 C 0.73009 0.94357 0.2811 0.0
C540 C 0.78128 0.94262 0.22041 0.0
C541 C 0.76247 0.94621 0.19709 0.0
C542 C 0.74192 0.94594 0.25236 0.0
C543 C 0.73358 0.95062 0.20245 0.0
C544 C 0.70282 0.95378 0.28705 0.0
C545 C 0.73493 0.9261 0.3281 0.0
N546 N 0.72417 0.9503 0.22952 0.0
N547 N 0.7453 0.93022 0.30183 0.0
H548 H 0.26392 0.45852 0.52206 0.0
H549 H 0.33654 0.58237 0.445 0.0
H550 H 0.32628 0.5132 0.56425 0.0
H551 H 0.25616 0.54664 0.41542 0.0
H552 H 0.32983 0.56138 0.49122 0.0
H553 H 0.25606 0.49434 0.48602 0.0
C554 C 0.27503 0.47868 0.52434 0.0
C555 C 0.29548 0.48321 0.5462 0.0
C556 C 0.31338 0.55857 0.47482 0.0
C557 C 0.28789 0.52356 0.50436 0.0
C558 C 0.31727 0.57046 0.44836 0.0
C559 C 0.29711 0.56585 0.42614 0.0
C560 C 0.28943 0.54146 0.47895 0.0
C561 C 0.27239 0.55051 0.43183 0.0
C562 C 0.27079 0.49902 0.50365 0.0
C563 C 0.31001 0.50922 0.54788 0.0
N564 N 0.26952 0.53838 0.45748 0.0
N565 N 0.30642 0.5282 0.52682 0.0
H566 H 0.65223 0.04072 0.74242 0.0
H567 H 0.81602 0.02089 0.73 0.0
H568 H 0.69723 0.04113 0.6637 0.0
H569 H 0.77172 0.02127 0.80907 0.0
H570 H 0.77119 0.01142 0.70429 0.0
H571 H 0.69279 0.01737 0.76502 0.0
C572 C 0.6704 0.03536 0.7297 0.0
C573 C 0.67181 0.04386 0.70143 0.0
C574 C 0.7713 0.01289 0.72731 0.0
C575 C 0.71838 0.01745 0.72725 0.0
C576 C 0.79692 0.0183 0.74201 0.0
C577 C 0.79735 0.02288 0.77161 0.0
C578 C 0.74593 0.01269 0.74232 0.0
C579 C 0.77219 0.01855 0.78616 0.0
C580 C 0.69356 0.02197 0.74263 0.0
C581 C 0.69555 0.03571 0.6858 0.0
N582 N 0.74729 0.01449 0.7713 0.0
N583 N 0.71821 0.02358 0.69912 0.0
H584 H 0.79569 0.44123 0.94561 0.0
H585 H 0.79774 0.5176 0.09714 0.0
H586 H 0.82218 0.40084 0.02319 0.0
H587 H 0.76999 0.55699 0.01947 0.0
H588 H 0.79466 0.47117 0.07262 0.0
H589 H 0.77472 0.47964 0.97388 0.0
C590 C 0.79671 0.44019 0.96858 0.0
C591 C 0.81137 0.41816 0.98204 0.0
C592 C 0.78862 0.48992 0.06111 0.0
C593 C 0.78767 0.46224 0.01457 0.0
C594 C 0.79023 0.51645 0.07517 0.0
C595 C 0.78494 0.54126 0.06009 0.0
C596 C 0.78182 0.48834 0.0318 0.0
C597 C 0.77501 0.53845 0.03173 0.0
C598 C 0.78469 0.46214 0.98475 0.0
C599 C 0.81157 0.41769 0.01189 0.0
N600 N 0.77435 0.51253 0.01834 0.0
N601 N 0.80043 0.43971 0.02716 0.0
H602 H 0.26371 0.06368 0.8038 0.0
H603 H 0.28687 0.00735 0.64463 0.0
H604 H 0.20832 0.00305 0.75988 0.0
H605 H 0.30812 0.09163 0.67711 0.0
H606 H 0.27267 0.99458 0.69247 0.0
H607 H 0.29576 0.0612 0.76358 0.0
C608 C 0.25916 0.04865 0.78638 0.0
C609 C 0.23352 0.03347 0.785 0.0
C610 C 0.28096 0.01566 0.68912 0.0
C611 C 0.26938 0.03111 0.73892 0.0
C612 C 0.28898 0.02299 0.66191 0.0
C613 C 0.29814 0.05075 0.65688 0.0
C614 C 0.28271 0.03607 0.71145 0.0
C615 C 0.30063 0.07016 0.68 0.0
C616 C 0.27717 0.04758 0.76328 0.0
C617 C 0.22807 0.01491 0.76166 0.0
N618 N 0.2928 0.06251 0.70627 0.0
N619 N 0.24563 0.01456 0.73923 0.0
H620 H 0.68588 0.55061 0.47479 0.0
H621 H 0.645 0.40792 0.55277 0.0
H622 H 0.66055 0.47267 0.43042 0.0
H623 H 0.6776 0.48302 0.59745 0.0
H624 H 0.65263 0.43077 0.50767 0.0
H625 H 0.68509 0.52582 0.5198 0.0
C626 C 0.68036 0.52825 0.47447 0.0
C627 C 0.67309 0.51377 0.44876 0.0
C628 C 0.6583 0.44221 0.52732 0.0
C629 C 0.67199 0.48529 0.50025 0.0
C630 C 0.65393 0.42916 0.55312 0.0
C631 C 0.6605 0.44361 0.57899 0.0
C632 C 0.66914 0.47005 0.52729 0.0
C633 C 0.67215 0.47107 0.57805 0.0
C634 C 0.67991 0.5141 0.50019 0.0
C635 C 0.66618 0.48477 0.44968 0.0
N636 N 0.67589 0.48347 0.55265 0.0
N637 N 0.66562 0.47158 0.47498 0.0
H638 H 0.34331 0.9614 0.23711 0.0
H639 H 0.1823 0.98876 0.26132 0.0
H640 H 0.30622 0.97061 0.31977 0.0
H641 H 0.22005 0.9881 0.17877 0.0
H642 H 0.22922 0.9964 0.28343 0.0
H643 H 0.30147 0.98415 0.2161 0.0
C644 C 0.32664 0.9687 0.25093 0.0
C645 C 0.32785 0.96325 0.28011 0.0
C646 C 0.22723 0.99529 0.26043 0.0
C647 C 0.2798 0.98906 0.25619 0.0
C648 C 0.20037 0.99102 0.24779 0.0
C649 C 0.19741 0.98679 0.21822 0.0
C650 C 0.25129 0.9947 0.24338 0.0
C651 C 0.22144 0.99056 0.20171 0.0
C652 C 0.30273 0.98176 0.23893 0.0
C653 C 0.30587 0.97367 0.29705 0.0
N654 N 0.24753 0.99344 0.21456 0.0
N655 N 0.28249 0.98552 0.28475 0.0
H656 H 0.73168 0.05896 0.60693 0.0
H657 H 0.70531 0.98949 0.45186 0.0
H658 H 0.66632 0.08627 0.54764 0.0
H659 H 0.73274 0.94277 0.52517 0.0
H660 H 0.70856 0.03371 0.48073 0.0
H661 H 0.74888 0.02555 0.5705 0.0
C662 C 0.72143 0.05853 0.58601 0.0
C663 C 0.69719 0.07503 0.58042 0.0
C664 C 0.71474 0.01384 0.49017 0.0
C665 C 0.71698 0.03712 0.53877 0.0
C666 C 0.71315 0.98867 0.4737 0.0
C667 C 0.71846 0.9625 0.48634 0.0
C668 C 0.72218 0.0127 0.51921 0.0
C669 C 0.72821 0.96255 0.51477 0.0
C670 C 0.73124 0.03941 0.56532 0.0
C671 C 0.68479 0.07358 0.55294 0.0
N672 N 0.72944 0.98726 0.53039 0.0
N673 N 0.69464 0.05467 0.53319 0.0
H674 H 0.31405 0.37979 0.71671 0.0
H675 H 0.19261 0.45326 0.80963 0.0
H676 H 0.26472 0.45106 0.68755 0.0
H677 H 0.23816 0.3774 0.8327 0.0
H678 H 0.21962 0.45458 0.76579 0.0
H679 H 0.28766 0.38064 0.76046 0.0
C680 C 0.29771 0.39572 0.71952 0.0
C681 C 0.29159 0.41534 0.69831 0.0
C682 C 0.22365 0.43767 0.78049 0.0
C683 C 0.26101 0.41638 0.74864 0.0
C684 C 0.20824 0.4369 0.80552 0.0
C685 C 0.21306 0.41517 0.82493 0.0
C686 C 0.2441 0.41664 0.77491 0.0
C687 C 0.23361 0.39455 0.81843 0.0
C688 C 0.28256 0.39616 0.74456 0.0
C689 C 0.27015 0.43551 0.7033 0.0
N690 N 0.24832 0.39583 0.79409 0.0
N691 N 0.25559 0.43548 0.72793 0.0
H692 H 0.79787 0.01692 0.90539 0.0
H693 H 0.81189 0.00762 0.07328 0.0
H694 H 0.84482 0.07782 0.95866 0.0
H695 H 0.76659 0.94729 0.01823 0.0
H696 H 0.81426 0.04016 0.03359 0.0
H697 H 0.77774 0.99724 0.9477 0.0
C698 C 0.80388 0.02625 0.92602 0.0
C699 C 0.8235 0.0487 0.92851 0.0
C700 C 0.80301 0.02018 0.03043 0.0
C701 C 0.80051 0.02615 0.97727 0.0
C702 C 0.80127 0.00182 0.05321 0.0
C703 C 0.78922 0.97473 0.04883 0.0
C704 C 0.79263 0.01118 0.00329 0.0
C705 C 0.77622 0.96797 0.02233 0.0
C706 C 0.79223 0.01509 0.95022 0.0
C707 C 0.83005 0.06026 0.95578 0.0
N708 N 0.77873 0.98583 1.00042 0.0
N709 N 0.81891 0.04857 0.97916 0.0
H710 H 0.1871 0.52689 0.162 0.0
H711 H 0.25433 0.57865 0.31236 0.0
H712 H 0.16769 0.60694 0.20412 0.0
H713 H 0.29501 0.52052 0.25389 0.0
H714 H 0.21156 0.57742 0.28128 0.0
H715 H 0.21561 0.51367 0.20385 0.0
C716 C 0.18832 0.54145 0.18026 0.0
C717 C 0.17546 0.56831 0.17936 0.0
C718 C 0.22958 0.5643 0.27574 0.0
C719 C 0.20785 0.55318 0.22728 0.0
C720 C 0.25386 0.56476 0.29359 0.0
C721 C 0.27829 0.54994 0.28541 0.0
C722 C 0.22978 0.54864 0.24986 0.0
C723 C 0.27667 0.53249 0.26074 0.0
C724 C 0.20463 0.53388 0.2041 0.0
C725 C 0.17766 0.58622 0.20372 0.0
N726 N 0.25296 0.5326 0.24361 0.0
N727 N 0.19385 0.57847 0.22659 0.0
H728 H 0.26632 0.0527 0.47659 0.0
H729 H 0.35256 0.91173 0.46406 0.0
H730 H 0.3024 0.01161 0.54988 0.0
H731 H 0.29896 0.94364 0.39625 0.0
H732 H 0.32772 0.94267 0.49791 0.0
H733 H 0.26974 0.0081 0.44924 0.0
C734 C 0.27409 0.03397 0.48715 0.0
C735 C 0.28444 0.03587 0.51535 0.0
C736 C 0.32099 0.94243 0.47571 0.0
C737 C 0.28967 0.98505 0.48393 0.0
C738 C 0.33522 0.92479 0.45636 0.0
C739 C 0.32836 0.92568 0.42718 0.0
C740 C 0.29998 0.96118 0.46569 0.0
C741 C 0.30548 0.94278 0.41846 0.0
C742 C 0.27624 0.0085 0.47151 0.0
C743 C 0.29429 0.01101 0.5281 0.0
N744 N 0.29249 0.9602 0.43752 0.0
N745 N 0.29747 0.98678 0.51205 0.0
H746 H 0.8226 0.59654 0.21822 0.0
H747 H 0.69694 0.52124 0.28519 0.0
H748 H 0.79208 0.51565 0.18417 0.0
H749 H 0.75391 0.57437 0.33653 0.0
H750 H 0.73389 0.515 0.25002 0.0
H751 H 0.80062 0.58658 0.26337 0.0
C752 C 0.81169 0.57647 0.22041 0.0
C753 C 0.80878 0.55709 0.19728 0.0
C754 C 0.73874 0.52723 0.26941 0.0
C755 C 0.78325 0.54575 0.2487 0.0
C756 C 0.71771 0.53061 0.28953 0.0
C757 C 0.72262 0.54811 0.31375 0.0
C758 C 0.76436 0.54243 0.27308 0.0
C759 C 0.74956 0.56041 0.31821 0.0
C760 C 0.79928 0.57072 0.24624 0.0
C761 C 0.79465 0.53129 0.20138 0.0
N762 N 0.76924 0.55798 0.29764 0.0
N763 N 0.78183 0.52665 0.22638 0.0
H764 H 0.22374 0.99619 0.08847 0.0
H765 H 0.16602 0.00522 0.92755 0.0
H766 H 0.14178 0.96439 0.05867 0.0
H767 H 0.23474 0.05781 0.96191 0.0
H768 H 0.16114 0.98457 0.97406 0.0
H769 H 0.23195 0.01383 0.0409 0.0
C770 C 0.20752 0.99282 0.07192 0.0
C771 C 0.18197 0.97887 0.07758 0.0
C772 C 0.17736 0.00055 0.97142 0.0
C773 C 0.19136 0.99882 0.02316 0.0
C774 C 0.18027 0.0123 0.94481 0.0
C775 C 0.20074 0.03345 0.94081 0.0
C776 C 0.19515 0.00981 0.99428 0.0
C777 C 0.21859 0.04168 0.96404 0.0
C778 C 0.21221 0.00296 0.04482 0.0
C779 C 0.16171 0.97514 0.05533 0.0
N780 N 0.21535 0.02987 0.98983 0.0
N781 N 0.16687 0.985 0.02911 0.0
H782 H 0.73323 0.44099 0.70255 0.0
H783 H 0.8025 0.44375 0.85935 0.0
H784 H 0.69081 0.47144 0.77761 0.0
H785 H 0.83655 0.39584 0.78849 0.0
H786 H 0.76783 0.46512 0.827 0.0
H787 H 0.77724 0.43641 0.731 0.0
C788 C 0.73335 0.44761 0.7248 0.0
C789 C 0.70815 0.45618 0.73783 0.0
C790 C 0.78311 0.4502 0.81845 0.0
C791 C 0.75833 0.4506 0.77052 0.0
C792 C 0.80295 0.43794 0.83692 0.0
C793 C 0.82219 0.41751 0.82673 0.0
C794 C 0.78237 0.44203 0.78951 0.0
C795 C 0.82191 0.41119 0.79736 0.0
C796 C 0.75845 0.44469 0.74108 0.0
C797 C 0.70963 0.46436 0.76677 0.0
N798 N 0.80207 0.42314 0.77982 0.0
N799 N 0.73416 0.46098 0.78221 0.0
loop_
_geom_bond_atom_site_label_1
_geom_bond_atom_site_label_2
_geom_bond_distance
_geom_bond_site_symmetry_2
_ccdc_geom_bond_type
Zn0 O3 2.031 . S
Zn0 O5 2.049 . S
Zn0 O10 2.067 . S
Zn1 O2 1.962 . S
Zn1 O4 1.986 . S
Zn1 O6 1.996 . S
Zn1 O9 1.943 . S
O2 Zn1 1.962 . S
O2 C7 1.254 . S
O3 Zn0 2.031 . S
O3 C7 1.269 . S
O4 Zn1 1.986 . S
O4 C11 1.262 . S
O5 Zn0 2.049 . S
O5 C13 1.260 . S
O6 Zn1 1.996 . S
O6 C13 1.257 . S
C7 O2 1.254 . S
C7 O3 1.269 . S
C8 O9 1.249 . S
C8 O10 1.270 . S
O9 Zn1 1.943 . S
O9 C8 1.249 . S
O10 Zn0 2.067 . S
O10 C8 1.270 . S
C11 O4 1.262 . S
C11 O12 1.232 . S
O12 C11 1.232 . S
C13 O5 1.260 . S
C13 O6 1.257 . S
Zn14 O17 2.031 . S
Zn14 O19 2.049 . S
Zn14 O24 2.067 . S
Zn15 O16 1.962 . S
Zn15 O18 1.986 . S
Zn15 O20 1.996 . S
Zn15 O23 1.943 . S
O16 Zn15 1.962 . S
O16 C21 1.254 . S
O17 Zn14 2.031 . S
O17 C21 1.269 . S
O18 Zn15 1.986 . S
O18 C25 1.262 . S
O19 Zn14 2.049 . S
O19 C27 1.260 . S
O20 Zn15 1.996 . S
O20 C27 1.257 . S
C21 O16 1.254 . S
C21 O17 1.269 . S
C22 O23 1.249 . S
C22 O24 1.270 . S
O23 Zn15 1.943 . S
O23 C22 1.249 . S
O24 Zn14 2.067 . S
O24 C22 1.270 . S
C25 O18 1.262 . S
C25 O26 1.232 . S
O26 C25 1.232 . S
C27 O19 1.260 . S
C27 O20 1.257 . S
Zn28 O31 2.031 . S
Zn28 O33 2.049 . S
Zn28 O38 2.067 . S
Zn29 O30 1.962 . S
Zn29 O32 1.986 . S
Zn29 O34 1.996 . S
Zn29 O37 1.943 . S
O30 Zn29 1.962 . S
O30 C35 1.254 . S
O31 Zn28 2.031 . S
O31 C35 1.269 . S
O32 Zn29 1.986 . S
O32 C39 1.262 . S
O33 Zn28 2.049 . S
O33 C41 1.260 . S
O34 Zn29 1.996 . S
O34 C41 1.257 . S
C35 O30 1.254 . S
C35 O31 1.269 . S
C36 O37 1.249 . S
C36 O38 1.270 . S
O37 Zn29 1.943 . S
O37 C36 1.249 . S
O38 Zn28 2.067 . S
O38 C36 1.270 . S
C39 O32 1.262 . S
C39 O40 1.232 . S
O40 C39 1.232 . S
C41 O33 1.260 . S
C41 O34 1.257 . S
Zn42 O45 2.031 . S
Zn42 O47 2.049 . S
Zn42 O52 2.067 . S
Zn43 O44 1.962 . S
Zn43 O46 1.986 . S
Zn43 O48 1.996 . S
Zn43 O51 1.943 . S
O44 Zn43 1.962 . S
O44 C49 1.254 . S
O45 Zn42 2.031 . S
O45 C49 1.269 . S
O46 Zn43 1.986 . S
O46 C53 1.262 . S
O47 Zn42 2.049 . S
O47 C55 1.260 . S
O48 Zn43 1.996 . S
O48 C55 1.257 . S
C49 O44 1.254 . S
C49 O45 1.269 . S
C50 O51 1.249 . S
C50 O52 1.270 . S
O51 Zn43 1.943 . S
O51 C50 1.249 . S
O52 Zn42 2.067 . S
O52 C50 1.270 . S
C53 O46 1.262 . S
C53 O54 1.232 . S
O54 C53 1.232 . S
C55 O47 1.260 . S
C55 O48 1.257 . S
Zn56 O59 2.031 . S
Zn56 O61 2.049 . S
Zn56 O66 2.067 . S
Zn57 O58 1.962 . S
Zn57 O60 1.986 . S
Zn57 O62 1.996 . S
Zn57 O65 1.943 . S
O58 Zn57 1.962 . S
O58 C63 1.254 . S
O59 Zn56 2.031 . S
O59 C63 1.269 . S
O60 Zn57 1.986 . S
O60 C67 1.262 . S
O61 Zn56 2.049 . S
O61 C69 1.260 . S
O62 Zn57 1.996 . S
O62 C69 1.257 . S
C63 O58 1.254 . S
C63 O59 1.269 . S
C64 O65 1.249 . S
C64 O66 1.270 . S
O65 Zn57 1.943 . S
O65 C64 1.249 . S
O66 Zn56 2.067 . S
O66 C64 1.270 . S
C67 O60 1.262 . S
C67 O68 1.232 . S
O68 C67 1.232 . S
C69 O61 1.260 . S
C69 O62 1.257 . S
Zn70 O73 2.031 . S
Zn70 O75 2.049 . S
Zn70 O80 2.067 . S
Zn71 O72 1.962 . S
Zn71 O74 1.986 . S
Zn71 O76 1.996 . S
Zn71 O79 1.943 . S
O72 Zn71 1.962 . S
O72 C77 1.254 . S
O73 Zn70 2.031 . S
O73 C77 1.269 . S
O74 Zn71 1.986 . S
O74 C81 1.262 . S
O75 Zn70 2.049 . S
O75 C83 1.260 . S
O76 Zn71 1.996 . S
O76 C83 1.257 . S
C77 O72 1.254 . S
C77 O73 1.269 . S
C78 O79 1.249 . S
C78 O80 1.270 . S
O79 Zn71 1.943 . S
O79 C78 1.249 . S
O80 Zn70 2.067 . S
O80 C78 1.270 . S
C81 O74 1.262 . S
C81 O82 1.232 . S
O82 C81 1.232 . S
C83 O75 1.260 . S
C83 O76 1.257 . S
Zn84 O87 2.031 . S
Zn84 O89 2.049 . S
Zn84 O94 2.067 . S
Zn85 O86 1.962 . S
Zn85 O88 1.986 . S
Zn85 O90 1.996 . S
Zn85 O93 1.943 . S
O86 Zn85 1.962 . S
O86 C91 1.254 . S
O87 Zn84 2.031 . S
O87 C91 1.269 . S
O88 Zn85 1.986 . S
O88 C95 1.262 . S
O89 Zn84 2.049 . S
O89 C97 1.260 . S
O90 Zn85 1.996 . S
O90 C97 1.257 . S
C91 O86 1.254 . S
C91 O87 1.269 . S
C92 O93 1.249 . S
C92 O94 1.270 . S
O93 Zn85 1.943 . S
O93 C92 1.249 . S
O94 Zn84 2.067 . S
O94 C92 1.270 . S
C95 O88 1.262 . S
C95 O96 1.232 . S
O96 C95 1.232 . S
C97 O89 1.260 . S
C97 O90 1.257 . S
Zn98 O101 2.031 . S
Zn98 O103 2.049 . S
Zn98 O108 2.067 . S
Zn99 O100 1.962 . S
Zn99 O102 1.986 . S
Zn99 O104 1.996 . S
Zn99 O107 1.943 . S
O100 Zn99 1.962 . S
O100 C105 1.254 . S
O101 Zn98 2.031 . S
O101 C105 1.269 . S
O102 Zn99 1.986 . S
O102 C109 1.262 . S
O103 Zn98 2.049 . S
O103 C111 1.260 . S
O104 Zn99 1.996 . S
O104 C111 1.257 . S
C105 O100 1.254 . S
C105 O101 1.269 . S
C106 O107 1.249 . S
C106 O108 1.270 . S
O107 Zn99 1.943 . S
O107 C106 1.249 . S
O108 Zn98 2.067 . S
O108 C106 1.270 . S
C109 O102 1.262 . S
C109 O110 1.232 . S
O110 C109 1.232 . S
C111 O103 1.260 . S
C111 O104 1.257 . S
Zn112 O115 2.031 . S
Zn112 O117 2.049 . S
Zn112 O122 2.067 . S
Zn113 O114 1.962 . S
Zn113 O116 1.986 . S
Zn113 O118 1.996 . S
Zn113 O121 1.943 . S
O114 Zn113 1.962 . S
O114 C119 1.254 . S
O115 Zn112 2.031 . S
O115 C119 1.269 . S
O116 Zn113 1.986 . S
O116 C123 1.262 . S
O117 Zn112 2.049 . S
O117 C125 1.260 . S
O118 Zn113 1.996 . S
O118 C125 1.257 . S
C119 O114 1.254 . S
C119 O115 1.269 . S
C120 O121 1.249 . S
C120 O122 1.270 . S
O121 Zn113 1.943 . S
O121 C120 1.249 . S
O122 Zn112 2.067 . S
O122 C120 1.270 . S
C123 O116 1.262 . S
C123 O124 1.232 . S
O124 C123 1.232 . S
C125 O117 1.260 . S
C125 O118 1.257 . S
Zn126 O129 2.031 . S
Zn126 O131 2.049 . S
Zn126 O136 2.067 . S
Zn127 O128 1.962 . S
Zn127 O130 1.986 . S
Zn127 O132 1.996 . S
Zn127 O135 1.943 . S
O128 Zn127 1.962 . S
O128 C133 1.254 . S
O129 Zn126 2.031 . S
O129 C133 1.269 . S
O130 Zn127 1.986 . S
O130 C137 1.262 . S
O131 Zn126 2.049 . S
O131 C139 1.260 . S
O132 Zn127 1.996 . S
O132 C139 1.257 . S
C133 O128 1.254 . S
C133 O129 1.269 . S
C134 O135 1.249 . S
C134 O136 1.270 . S
O135 Zn127 1.943 . S
O135 C134 1.249 . S
O136 Zn126 2.067 . S
O136 C134 1.270 . S
C137 O130 1.262 . S
C137 O138 1.232 . S
O138 C137 1.232 . S
C139 O131 1.260 . S
C139 O132 1.257 . S
Zn140 O143 2.031 . S
Zn140 O145 2.049 . S
Zn140 O150 2.067 . S
Zn141 O142 1.962 . S
Zn141 O144 1.986 . S
Zn141 O146 1.996 . S
Zn141 O149 1.943 . S
O142 Zn141 1.962 . S
O142 C147 1.254 . S
O143 Zn140 2.031 . S
O143 C147 1.269 . S
O144 Zn141 1.986 . S
O144 C151 1.262 . S
O145 Zn140 2.049 . S
O145 C153 1.260 . S
O146 Zn141 1.996 . S
O146 C153 1.257 . S
C147 O142 1.254 . S
C147 O143 1.269 . S
C148 O149 1.249 . S
C148 O150 1.270 . S
O149 Zn141 1.943 . S
O149 C148 1.249 . S
O150 Zn140 2.067 . S
O150 C148 1.270 . S
C151 O144 1.262 . S
C151 O152 1.232 . S
O152 C151 1.232 . S
C153 O145 1.260 . S
C153 O146 1.257 . S
Zn154 O157 2.031 . S
Zn154 O159 2.049 . S
Zn154 O164 2.067 . S
Zn155 O156 1.962 . S
Zn155 O158 1.986 . S
Zn155 O160 1.996 . S
Zn155 O163 1.943 . S
O156 Zn155 1.962 . S
O156 C161 1.254 . S
O157 Zn154 2.031 . S
O157 C161 1.269 . S
O158 Zn155 1.986 . S
O158 C165 1.262 . S
O159 Zn154 2.049 . S
O159 C167 1.260 . S
O160 Zn155 1.996 . S
O160 C167 1.257 . S
C161 O156 1.254 . S
C161 O157 1.269 . S
C162 O163 1.249 . S
C162 O164 1.270 . S
O163 Zn155 1.943 . S
O163 C162 1.249 . S
O164 Zn154 2.067 . S
O164 C162 1.270 . S
C165 O158 1.262 . S
C165 O166 1.232 . S
O166 C165 1.232 . S
C167 O159 1.260 . S
C167 O160 1.257 . S
Zn168 O171 2.031 . S
Zn168 O173 2.049 . S
Zn168 O178 2.067 . S
Zn169 O170 1.962 . S
Zn169 O172 1.986 . S
Zn169 O174 1.996 . S
Zn169 O177 1.943 . S
O170 Zn169 1.962 . S
O170 C175 1.254 . S
O171 Zn168 2.031 . S
O171 C175 1.269 . S
O172 Zn169 1.986 . S
O172 C179 1.262 . S
O173 Zn168 2.049 . S
O173 C181 1.260 . S
O174 Zn169 1.996 . S
O174 C181 1.257 . S
C175 O170 1.254 . S
C175 O171 1.269 . S
C176 O177 1.249 . S
C176 O178 1.270 . S
O177 Zn169 1.943 . S
O177 C176 1.249 . S
O178 Zn168 2.067 . S
O178 C176 1.270 . S
C179 O172 1.262 . S
C179 O180 1.232 . S
O180 C179 1.232 . S
C181 O173 1.260 . S
C181 O174 1.257 . S
Zn182 O185 2.031 . S
Zn182 O187 2.049 . S
Zn182 O192 2.067 . S
Zn183 O184 1.962 . S
Zn183 O186 1.986 . S
Zn183 O188 1.996 . S
Zn183 O191 1.943 . S
O184 Zn183 1.962 . S
O184 C189 1.254 . S
O185 Zn182 2.031 . S
O185 C189 1.269 . S
O186 Zn183 1.986 . S
O186 C193 1.262 . S
O187 Zn182 2.049 . S
O187 C195 1.260 . S
O188 Zn183 1.996 . S
O188 C195 1.257 . S
C189 O184 1.254 . S
C189 O185 1.269 . S
C190 O191 1.249 . S
C190 O192 1.270 . S
O191 Zn183 1.943 . S
O191 C190 1.249 . S
O192 Zn182 2.067 . S
O192 C190 1.270 . S
C193 O186 1.262 . S
C193 O194 1.232 . S
O194 C193 1.232 . S
C195 O187 1.260 . S
C195 O188 1.257 . S
Zn196 O199 2.031 . S
Zn196 O201 2.049 . S
Zn196 O206 2.067 . S
Zn197 O198 1.962 . S
Zn197 O200 1.986 . S
Zn197 O202 1.996 . S
Zn197 O205 1.943 . S
O198 Zn197 1.962 . S
O198 C203 1.254 . S
O199 Zn196 2.031 . S
O199 C203 1.269 . S
O200 Zn197 1.986 . S
O200 C207 1.262 . S
O201 Zn196 2.049 . S
O201 C209 1.260 . S
O202 Zn197 1.996 . S
O202 C209 1.257 . S
C203 O198 1.254 . S
C203 O199 1.269 . S
C204 O205 1.249 . S
C204 O206 1.270 . S
O205 Zn197 1.943 . S
O205 C204 1.249 . S
O206 Zn196 2.067 . S
O206 C204 1.270 . S
C207 O200 1.262 . S
C207 O208 1.232 . S
O208 C207 1.232 . S
C209 O201 1.260 . S
C209 O202 1.257 . S
Zn210 O213 2.031 . S
Zn210 O215 2.049 . S
Zn210 O220 2.067 . S
Zn211 O212 1.962 . S
Zn211 O214 1.986 . S
Zn211 O216 1.996 . S
Zn211 O219 1.943 . S
O212 Zn211 1.962 . S
O212 C217 1.254 . S
O213 Zn210 2.031 . S
O213 C217 1.269 . S
O214 Zn211 1.986 . S
O214 C221 1.262 . S
O215 Zn210 2.049 . S
O215 C223 1.260 . S
O216 Zn211 1.996 . S
O216 C223 1.257 . S
C217 O212 1.254 . S
C217 O213 1.269 . S
C218 O219 1.249 . S
C218 O220 1.270 . S
O219 Zn211 1.943 . S
O219 C218 1.249 . S
O220 Zn210 2.067 . S
O220 C218 1.270 . S
C221 O214 1.262 . S
C221 O222 1.232 . S
O222 C221 1.232 . S
C223 O215 1.260 . S
C223 O216 1.257 . S
H224 C230 0.930 . S
H225 C234 0.930 . S
H226 C239 0.929 . S
H227 C237 0.929 . S
H228 C232 0.929 . S
H229 C238 0.929 . S
C230 H224 0.930 . S
C230 C231 1.367 . S
C230 C238 1.378 . S
C231 C230 1.367 . S
C231 C239 1.433 . S
C232 H228 0.929 . S
C232 C234 1.378 . S
C232 C236 1.350 . S
C233 C236 1.463 . S
C233 C238 1.350 . S
C233 N241 1.427 . S
C234 H225 0.930 . S
C234 C232 1.378 . S
C234 C235 1.367 . S
C235 C234 1.367 . S
C235 C237 1.433 . S
C236 C232 1.350 . S
C236 C233 1.463 . S
C236 N240 1.427 . S
C237 H227 0.929 . S
C237 C235 1.433 . S
C237 N240 1.384 . S
C238 H229 0.929 . S
C238 C230 1.378 . S
C238 C233 1.350 . S
C239 H226 0.929 . S
C239 C231 1.433 . S
C239 N241 1.384 . S
N240 C236 1.427 . S
N240 C237 1.384 . S
N241 C233 1.427 . S
N241 C239 1.384 . S
H242 C248 0.930 . S
H243 C252 0.930 . S
H244 C257 0.929 . S
H245 C255 0.929 . S
H246 C250 0.929 . S
H247 C256 0.929 . S
C248 H242 0.930 . S
C248 C249 1.367 . S
C248 C256 1.378 . S
C249 C248 1.367 . S
C249 C257 1.433 . S
C250 H246 0.929 . S
C250 C252 1.378 . S
C250 C254 1.350 . S
C251 C254 1.463 . S
C251 C256 1.350 . S
C251 N259 1.427 . S
C252 H243 0.930 . S
C252 C250 1.378 . S
C252 C253 1.367 . S
C253 C252 1.367 . S
C253 C255 1.433 . S
C254 C250 1.350 . S
C254 C251 1.463 . S
C254 N258 1.427 . S
C255 H245 0.929 . S
C255 C253 1.433 . S
C255 N258 1.384 . S
C256 H247 0.929 . S
C256 C248 1.378 . S
C256 C251 1.350 . S
C257 H244 0.929 . S
C257 C249 1.433 . S
C257 N259 1.384 . S
N258 C254 1.427 . S
N258 C255 1.384 . S
N259 C251 1.427 . S
N259 C257 1.384 . S
H260 C266 0.930 . S
H261 C270 0.930 . S
H262 C275 0.929 . S
H263 C273 0.929 . S
H264 C268 0.929 . S
H265 C274 0.929 . S
C266 H260 0.930 . S
C266 C267 1.367 . S
C266 C274 1.378 . S
C267 C266 1.367 . S
C267 C275 1.433 . S
C268 H264 0.929 . S
C268 C270 1.378 . S
C268 C272 1.350 . S
C269 C272 1.463 . S
C269 C274 1.350 . S
C269 N277 1.427 . S
C270 H261 0.930 . S
C270 C268 1.378 . S
C270 C271 1.367 . S
C271 C270 1.367 . S
C271 C273 1.433 . S
C272 C268 1.350 . S
C272 C269 1.463 . S
C272 N276 1.427 . S
C273 H263 0.929 . S
C273 C271 1.433 . S
C273 N276 1.384 . S
C274 H265 0.929 . S
C274 C266 1.378 . S
C274 C269 1.350 . S
C275 H262 0.929 . S
C275 C267 1.433 . S
C275 N277 1.384 . S
N276 C272 1.427 . S
N276 C273 1.384 . S
N277 C269 1.427 . S
N277 C275 1.384 . S
H278 C284 0.930 . S
H279 C288 0.930 . S
H280 C293 0.929 . S
H281 C291 0.929 . S
H282 C286 0.929 . S
H283 C292 0.929 . S
C284 H278 0.930 . S
C284 C285 1.367 . S
C284 C292 1.378 . S
C285 C284 1.367 . S
C285 C293 1.433 . S
C286 H282 0.929 . S
C286 C288 1.378 . S
C286 C290 1.350 . S
C287 C290 1.463 1_455 S
C287 C292 1.350 . S
C287 N295 1.427 . S
C288 H279 0.930 . S
C288 C286 1.378 . S
C288 C289 1.367 . S
C289 C288 1.367 . S
C289 C291 1.433 . S
C290 C286 1.350 . S
C290 C287 1.463 1_655 S
C290 N294 1.427 . S
C291 H281 0.929 . S
C291 C289 1.433 . S
C291 N294 1.384 . S
C292 H283 0.929 . S
C292 C284 1.378 . S
C292 C287 1.350 . S
C293 H280 0.929 . S
C293 C285 1.433 . S
C293 N295 1.384 . S
N294 C290 1.427 . S
N294 C291 1.384 . S
N295 C287 1.427 . S
N295 C293 1.384 . S
H296 C302 0.930 . S
H297 C306 0.930 . S
H298 C311 0.929 . S
H299 C309 0.929 . S
H300 C304 0.929 . S
H301 C310 0.929 . S
C302 H296 0.930 . S
C302 C303 1.367 . S
C302 C310 1.378 . S
C303 C302 1.367 . S
C303 C311 1.433 . S
C304 H300 0.929 . S
C304 C306 1.378 . S
C304 C308 1.350 . S
C305 C308 1.463 . S
C305 C310 1.350 . S
C305 N313 1.427 . S
C306 H297 0.930 . S
C306 C304 1.378 . S
C306 C307 1.367 . S
C307 C306 1.367 . S
C307 C309 1.433 . S
C308 C304 1.350 . S
C308 C305 1.463 . S
C308 N312 1.427 . S
C309 H299 0.929 . S
C309 C307 1.433 . S
C309 N312 1.384 . S
C310 H301 0.929 . S
C310 C302 1.378 . S
C310 C305 1.350 . S
C311 H298 0.929 . S
C311 C303 1.433 . S
C311 N313 1.384 . S
N312 C308 1.427 . S
N312 C309 1.384 . S
N313 C305 1.427 . S
N313 C311 1.384 . S
H314 C320 0.930 . S
H315 C324 0.930 . S
H316 C329 0.929 . S
H317 C327 0.929 . S
H318 C322 0.929 . S
H319 C328 0.929 . S
C320 H314 0.930 . S
C320 C321 1.367 . S
C320 C328 1.378 . S
C321 C320 1.367 . S
C321 C329 1.433 . S
C322 H318 0.929 . S
C322 C324 1.378 . S
C322 C326 1.350 . S
C323 C326 1.463 1_655 S
C323 C328 1.350 . S
C323 N331 1.427 . S
C324 H315 0.930 . S
C324 C322 1.378 . S
C324 C325 1.367 . S
C325 C324 1.367 . S
C325 C327 1.433 . S
C326 C322 1.350 . S
C326 C323 1.463 1_455 S
C326 N330 1.427 . S
C327 H317 0.929 . S
C327 C325 1.433 . S
C327 N330 1.384 . S
C328 H319 0.929 . S
C328 C320 1.378 . S
C328 C323 1.350 . S
C329 H316 0.929 . S
C329 C321 1.433 . S
C329 N331 1.384 . S
N330 C326 1.427 . S
N330 C327 1.384 . S
N331 C323 1.427 . S
N331 C329 1.384 . S
H332 C338 0.930 . S
H333 C342 0.930 . S
H334 C347 0.929 . S
H335 C345 0.929 . S
H336 C340 0.929 . S
H337 C346 0.929 . S
C338 H332 0.930 . S
C338 C339 1.367 . S
C338 C346 1.378 . S
C339 C338 1.367 . S
C339 C347 1.433 . S
C340 H336 0.929 . S
C340 C342 1.378 . S
C340 C344 1.350 . S
C341 C344 1.463 . S
C341 C346 1.350 . S
C341 N349 1.427 . S
C342 H333 0.930 . S
C342 C340 1.378 . S
C342 C343 1.367 . S
C343 C342 1.367 . S
C343 C345 1.433 . S
C344 C340 1.350 . S
C344 C341 1.463 . S
C344 N348 1.427 . S
C345 H335 0.929 . S
C345 C343 1.433 . S
C345 N348 1.384 . S
C346 H337 0.929 . S
C346 C338 1.378 . S
C346 C341 1.350 . S
C347 H334 0.929 . S
C347 C339 1.433 . S
C347 N349 1.384 . S
N348 C344 1.427 . S
N348 C345 1.384 . S
N349 C341 1.427 . S
N349 C347 1.384 . S
H350 C356 0.930 . S
H351 C360 0.930 . S
H352 C365 0.929 . S
H353 C363 0.929 . S
H354 C358 0.929 . S
H355 C364 0.929 . S
C356 H350 0.930 . S
C356 C357 1.367 . S
C356 C364 1.378 . S
C357 C356 1.367 . S
C357 C365 1.433 . S
C358 H354 0.929 . S
C358 C360 1.378 . S
C358 C362 1.350 . S
C359 C362 1.463 . S
C359 C364 1.350 . S
C359 N367 1.427 . S
C360 H351 0.930 . S
C360 C358 1.378 . S
C360 C361 1.367 . S
C361 C360 1.367 . S
C361 C363 1.433 . S
C362 C358 1.350 . S
C362 C359 1.463 . S
C362 N366 1.427 . S
C363 H353 0.929 . S
C363 C361 1.433 . S
C363 N366 1.384 . S
C364 H355 0.929 . S
C364 C356 1.378 . S
C364 C359 1.350 . S
C365 H352 0.929 . S
C365 C357 1.433 . S
C365 N367 1.384 . S
N366 C362 1.427 . S
N366 C363 1.384 . S
N367 C359 1.427 . S
N367 C365 1.384 . S
H368 C374 0.930 . S
H369 C378 0.930 . S
H370 C383 0.929 . S
H371 C381 0.929 . S
H372 C376 0.929 . S
H373 C382 0.929 . S
C374 H368 0.930 . S
C374 C375 1.367 . S
C374 C382 1.378 . S
C375 C374 1.367 . S
C375 C383 1.433 . S
C376 H372 0.929 . S
C376 C378 1.378 . S
C376 C380 1.350 . S
C377 C380 1.463 . S
C377 C382 1.350 . S
C377 N385 1.427 . S
C378 H369 0.930 . S
C378 C376 1.378 . S
C378 C379 1.367 . S
C379 C378 1.367 . S
C379 C381 1.433 . S
C380 C376 1.350 . S
C380 C377 1.463 . S
C380 N384 1.427 . S
C381 H371 0.929 . S
C381 C379 1.433 . S
C381 N384 1.384 . S
C382 H373 0.929 . S
C382 C374 1.378 . S
C382 C377 1.350 . S
C383 H370 0.929 . S
C383 C375 1.433 . S
C383 N385 1.384 . S
N384 C380 1.427 . S
N384 C381 1.384 . S
N385 C377 1.427 . S
N385 C383 1.384 . S
H386 C392 0.930 . S
H387 C396 0.930 . S
H388 C401 0.929 . S
H389 C399 0.929 . S
H390 C394 0.929 . S
H391 C400 0.929 . S
C392 H386 0.930 . S
C392 C393 1.367 . S
C392 C400 1.378 . S
C393 C392 1.367 . S
C393 C401 1.433 . S
C394 H390 0.929 . S
C394 C396 1.378 . S
C394 C398 1.350 . S
C395 C398 1.463 . S
C395 C400 1.350 . S
C395 N403 1.427 . S
C396 H387 0.930 . S
C396 C394 1.378 . S
C396 C397 1.367 . S
C397 C396 1.367 . S
C397 C399 1.433 . S
C398 C394 1.350 . S
C398 C395 1.463 . S
C398 N402 1.427 . S
C399 H389 0.929 . S
C399 C397 1.433 . S
C399 N402 1.384 . S
C400 H391 0.929 . S
C400 C392 1.378 . S
C400 C395 1.350 . S
C401 H388 0.929 . S
C401 C393 1.433 . S
C401 N403 1.384 . S
N402 C398 1.427 . S
N402 C399 1.384 . S
N403 C395 1.427 . S
N403 C401 1.384 . S
H404 C410 0.930 . S
H405 C414 0.930 . S
H406 C419 0.929 . S
H407 C417 0.929 . S
H408 C412 0.929 . S
H409 C418 0.929 . S
C410 H404 0.930 . S
C410 C411 1.367 . S
C410 C418 1.378 . S
C411 C410 1.367 . S
C411 C419 1.433 . S
C412 H408 0.929 . S
C412 C414 1.378 . S
C412 C416 1.350 . S
C413 C416 1.463 . S
C413 C418 1.350 . S
C413 N421 1.427 . S
C414 H405 0.930 . S
C414 C412 1.378 . S
C414 C415 1.367 . S
C415 C414 1.367 . S
C415 C417 1.433 . S
C416 C412 1.350 . S
C416 C413 1.463 . S
C416 N420 1.427 . S
C417 H407 0.929 . S
C417 C415 1.433 . S
C417 N420 1.384 . S
C418 H409 0.929 . S
C418 C410 1.378 . S
C418 C413 1.350 . S
C419 H406 0.929 . S
C419 C411 1.433 . S
C419 N421 1.384 . S
N420 C416 1.427 . S
N420 C417 1.384 . S
N421 C413 1.427 . S
N421 C419 1.384 . S
H422 C428 0.930 . S
H423 C432 0.930 . S
H424 C437 0.929 . S
H425 C435 0.929 . S
H426 C430 0.929 . S
H427 C436 0.929 . S
C428 H422 0.930 . S
C428 C429 1.367 . S
C428 C436 1.378 . S
C429 C428 1.367 . S
C429 C437 1.433 . S
C430 H426 0.929 . S
C430 C432 1.378 . S
C430 C434 1.350 . S
C431 C434 1.463 . S
C431 C436 1.350 . S
C431 N439 1.427 . S
C432 H423 0.930 . S
C432 C430 1.378 . S
C432 C433 1.367 . S
C433 C432 1.367 . S
C433 C435 1.433 . S
C434 C430 1.350 . S
C434 C431 1.463 . S
C434 N438 1.427 . S
C435 H425 0.929 . S
C435 C433 1.433 . S
C435 N438 1.384 . S
C436 H427 0.929 . S
C436 C428 1.378 . S
C436 C431 1.350 . S
C437 H424 0.929 . S
C437 C429 1.433 . S
C437 N439 1.384 . S
N438 C434 1.427 . S
N438 C435 1.384 . S
N439 C431 1.427 . S
N439 C437 1.384 . S
H440 C446 0.930 . S
H441 C450 0.930 . S
H442 C455 0.929 . S
H443 C453 0.929 . S
H444 C448 0.929 . S
H445 C454 0.929 . S
C446 H440 0.930 . S
C446 C447 1.367 . S
C446 C454 1.378 . S
C447 C446 1.367 . S
C447 C455 1.433 . S
C448 H444 0.929 . S
C448 C450 1.378 . S
C448 C452 1.350 . S
C449 C452 1.463 1_455 S
C449 C454 1.350 . S
C449 N457 1.427 . S
C450 H441 0.930 . S
C450 C448 1.378 . S
C450 C451 1.367 . S
C451 C450 1.367 . S
C451 C453 1.433 . S
C452 C448 1.350 . S
C452 C449 1.463 1_655 S
C452 N456 1.427 . S
C453 H443 0.929 . S
C453 C451 1.433 . S
C453 N456 1.384 . S
C454 H445 0.929 . S
C454 C446 1.378 . S
C454 C449 1.350 . S
C455 H442 0.929 . S
C455 C447 1.433 . S
C455 N457 1.384 . S
N456 C452 1.427 . S
N456 C453 1.384 . S
N457 C449 1.427 . S
N457 C455 1.384 . S
H458 C464 0.930 . S
H459 C468 0.930 . S
H460 C473 0.929 . S
H461 C471 0.929 . S
H462 C466 0.929 . S
H463 C472 0.929 . S
C464 H458 0.930 . S
C464 C465 1.367 . S
C464 C472 1.378 . S
C465 C464 1.367 . S
C465 C473 1.433 . S
C466 H462 0.929 . S
C466 C468 1.378 . S
C466 C470 1.350 . S
C467 C470 1.463 . S
C467 C472 1.350 . S
C467 N475 1.427 . S
C468 H459 0.930 . S
C468 C466 1.378 . S
C468 C469 1.367 . S
C469 C468 1.367 . S
C469 C471 1.433 . S
C470 C466 1.350 . S
C470 C467 1.463 . S
C470 N474 1.427 . S
C471 H461 0.929 . S
C471 C469 1.433 . S
C471 N474 1.384 . S
C472 H463 0.929 . S
C472 C464 1.378 . S
C472 C467 1.350 . S
C473 H460 0.929 . S
C473 C465 1.433 . S
C473 N475 1.384 . S
N474 C470 1.427 . S
N474 C471 1.384 . S
N475 C467 1.427 . S
N475 C473 1.384 . S
H476 C482 0.930 . S
H477 C486 0.930 . S
H478 C491 0.929 . S
H479 C489 0.929 . S
H480 C484 0.929 . S
H481 C490 0.929 . S
C482 H476 0.930 . S
C482 C483 1.367 . S
C482 C490 1.378 . S
C483 C482 1.367 . S
C483 C491 1.433 . S
C484 H480 0.929 . S
C484 C486 1.378 . S
C484 C488 1.350 . S
C485 C488 1.463 . S
C485 C490 1.350 . S
C485 N493 1.427 . S
C486 H477 0.930 . S
C486 C484 1.378 . S
C486 C487 1.367 . S
C487 C486 1.367 . S
C487 C489 1.433 . S
C488 C484 1.350 . S
C488 C485 1.463 . S
C488 N492 1.427 . S
C489 H479 0.929 . S
C489 C487 1.433 . S
C489 N492 1.384 . S
C490 H481 0.929 . S
C490 C482 1.378 . S
C490 C485 1.350 . S
C491 H478 0.929 . S
C491 C483 1.433 . S
C491 N493 1.384 . S
N492 C488 1.427 . S
N492 C489 1.384 . S
N493 C485 1.427 . S
N493 C491 1.384 . S
H494 C500 0.930 . S
H495 C504 0.930 . S
H496 C509 0.929 . S
H497 C507 0.929 . S
H498 C502 0.929 . S
H499 C508 0.929 . S
C500 H494 0.930 . S
C500 C501 1.367 . S
C500 C508 1.378 . S
C501 C500 1.367 . S
C501 C509 1.433 . S
C502 H498 0.929 . S
C502 C504 1.378 . S
C502 C506 1.350 . S
C503 C506 1.463 1_455 S
C503 C508 1.350 . S
C503 N511 1.427 . S
C504 H495 0.930 . S
C504 C502 1.378 . S
C504 C505 1.367 . S
C505 C504 1.367 . S
C505 C507 1.433 . S
C506 C502 1.350 . S
C506 C503 1.463 1_655 S
C506 N510 1.427 . S
C507 H497 0.929 . S
C507 C505 1.433 . S
C507 N510 1.384 . S
C508 H499 0.929 . S
C508 C500 1.378 . S
C508 C503 1.350 . S
C509 H496 0.929 . S
C509 C501 1.433 . S
C509 N511 1.384 . S
N510 C506 1.427 . S
N510 C507 1.384 . S
N511 C503 1.427 . S
N511 C509 1.384 . S
H512 C518 0.930 . S
H513 C522 0.930 . S
H514 C527 0.929 . S
H515 C525 0.929 . S
H516 C520 0.929 . S
H517 C526 0.929 . S
C518 H512 0.930 . S
C518 C519 1.367 . S
C518 C526 1.378 . S
C519 C518 1.367 . S
C519 C527 1.433 . S
C520 H516 0.929 . S
C520 C522 1.378 . S
C520 C524 1.350 . S
C521 C524 1.463 1_554 S
C521 C526 1.350 . S
C521 N529 1.427 . S
C522 H513 0.930 . S
C522 C520 1.378 . S
C522 C523 1.367 . S
C523 C522 1.367 . S
C523 C525 1.433 . S
C524 C520 1.350 . S
C524 C521 1.463 1_556 S
C524 N528 1.427 . S
C525 H515 0.929 . S
C525 C523 1.433 . S
C525 N528 1.384 . S
C526 H517 0.929 . S
C526 C518 1.378 . S
C526 C521 1.350 . S
C527 H514 0.929 . S
C527 C519 1.433 . S
C527 N529 1.384 . S
N528 C524 1.427 . S
N528 C525 1.384 . S
N529 C521 1.427 . S
N529 C527 1.384 . S
H530 C536 0.930 . S
H531 C540 0.930 . S
H532 C545 0.929 . S
H533 C543 0.929 . S
H534 C538 0.929 . S
H535 C544 0.929 . S
C536 H530 0.930 . S
C536 C537 1.367 . S
C536 C544 1.378 . S
C537 C536 1.367 . S
C537 C545 1.433 . S
C538 H534 0.929 . S
C538 C540 1.378 . S
C538 C542 1.350 . S
C539 C542 1.463 . S
C539 C544 1.350 . S
C539 N547 1.427 . S
C540 H531 0.930 . S
C540 C538 1.378 . S
C540 C541 1.367 . S
C541 C540 1.367 . S
C541 C543 1.433 . S
C542 C538 1.350 . S
C542 C539 1.463 . S
C542 N546 1.427 . S
C543 H533 0.929 . S
C543 C541 1.433 . S
C543 N546 1.384 . S
C544 H535 0.929 . S
C544 C536 1.378 . S
C544 C539 1.350 . S
C545 H532 0.929 . S
C545 C537 1.433 . S
C545 N547 1.384 . S
N546 C542 1.427 . S
N546 C543 1.384 . S
N547 C539 1.427 . S
N547 C545 1.384 . S
H548 C554 0.930 . S
H549 C558 0.930 . S
H550 C563 0.929 . S
H551 C561 0.929 . S
H552 C556 0.929 . S
H553 C562 0.929 . S
C554 H548 0.930 . S
C554 C555 1.367 . S
C554 C562 1.378 . S
C555 C554 1.367 . S
C555 C563 1.433 . S
C556 H552 0.929 . S
C556 C558 1.378 . S
C556 C560 1.350 . S
C557 C560 1.463 . S
C557 C562 1.350 . S
C557 N565 1.427 . S
C558 H549 0.930 . S
C558 C556 1.378 . S
C558 C559 1.367 . S
C559 C558 1.367 . S
C559 C561 1.433 . S
C560 C556 1.350 . S
C560 C557 1.463 . S
C560 N564 1.427 . S
C561 H551 0.929 . S
C561 C559 1.433 . S
C561 N564 1.384 . S
C562 H553 0.929 . S
C562 C554 1.378 . S
C562 C557 1.350 . S
C563 H550 0.929 . S
C563 C555 1.433 . S
C563 N565 1.384 . S
N564 C560 1.427 . S
N564 C561 1.384 . S
N565 C557 1.427 . S
N565 C563 1.384 . S
H566 C572 0.930 . S
H567 C576 0.930 . S
H568 C581 0.929 . S
H569 C579 0.929 . S
H570 C574 0.929 . S
H571 C580 0.929 . S
C572 H566 0.930 . S
C572 C573 1.367 . S
C572 C580 1.378 . S
C573 C572 1.367 . S
C573 C581 1.433 . S
C574 H570 0.929 . S
C574 C576 1.378 . S
C574 C578 1.350 . S
C575 C578 1.463 . S
C575 C580 1.350 . S
C575 N583 1.427 . S
C576 H567 0.930 . S
C576 C574 1.378 . S
C576 C577 1.367 . S
C577 C576 1.367 . S
C577 C579 1.433 . S
C578 C574 1.350 . S
C578 C575 1.463 . S
C578 N582 1.427 . S
C579 H569 0.929 . S
C579 C577 1.433 . S
C579 N582 1.384 . S
C580 H571 0.929 . S
C580 C572 1.378 . S
C580 C575 1.350 . S
C581 H568 0.929 . S
C581 C573 1.433 . S
C581 N583 1.384 . S
N582 C578 1.427 . S
N582 C579 1.384 . S
N583 C575 1.427 . S
N583 C581 1.384 . S
H584 C590 0.930 . S
H585 C594 0.930 . S
H586 C599 0.929 . S
H587 C597 0.929 . S
H588 C592 0.929 . S
H589 C598 0.929 . S
C590 H584 0.930 . S
C590 C591 1.367 . S
C590 C598 1.378 . S
C591 C590 1.367 . S
C591 C599 1.433 . S
C592 H588 0.929 . S
C592 C594 1.378 . S
C592 C596 1.350 . S
C593 C596 1.463 1_556 S
C593 C598 1.350 . S
C593 N601 1.427 . S
C594 H585 0.930 . S
C594 C592 1.378 . S
C594 C595 1.367 . S
C595 C594 1.367 . S
C595 C597 1.433 . S
C596 C592 1.350 . S
C596 C593 1.463 1_554 S
C596 N600 1.427 . S
C597 H587 0.929 . S
C597 C595 1.433 . S
C597 N600 1.384 . S
C598 H589 0.929 . S
C598 C590 1.378 . S
C598 C593 1.350 . S
C599 H586 0.929 . S
C599 C591 1.433 . S
C599 N601 1.384 . S
N600 C596 1.427 . S
N600 C597 1.384 . S
N601 C593 1.427 . S
N601 C599 1.384 . S
H602 C608 0.930 . S
H603 C612 0.930 . S
H604 C617 0.929 . S
H605 C615 0.929 . S
H606 C610 0.929 . S
H607 C616 0.929 . S
C608 H602 0.930 . S
C608 C609 1.367 . S
C608 C616 1.378 . S
C609 C608 1.367 . S
C609 C617 1.433 . S
C610 H606 0.929 . S
C610 C612 1.378 . S
C610 C614 1.350 . S
C611 C614 1.463 . S
C611 C616 1.350 . S
C611 N619 1.427 . S
C612 H603 0.930 . S
C612 C610 1.378 . S
C612 C613 1.367 . S
C613 C612 1.367 . S
C613 C615 1.433 . S
C614 C610 1.350 . S
C614 C611 1.463 . S
C614 N618 1.427 . S
C615 H605 0.929 . S
C615 C613 1.433 . S
C615 N618 1.384 . S
C616 H607 0.929 . S
C616 C608 1.378 . S
C616 C611 1.350 . S
C617 H604 0.929 . S
C617 C609 1.433 . S
C617 N619 1.384 . S
N618 C614 1.427 . S
N618 C615 1.384 . S
N619 C611 1.427 . S
N619 C617 1.384 . S
H620 C626 0.930 . S
H621 C630 0.930 . S
H622 C635 0.929 . S
H623 C633 0.929 . S
H624 C628 0.929 . S
H625 C634 0.929 . S
C626 H620 0.930 . S
C626 C627 1.367 . S
C626 C634 1.378 . S
C627 C626 1.367 . S
C627 C635 1.433 . S
C628 H624 0.929 . S
C628 C630 1.378 . S
C628 C632 1.350 . S
C629 C632 1.463 . S
C629 C634 1.350 . S
C629 N637 1.427 . S
C630 H621 0.930 . S
C630 C628 1.378 . S
C630 C631 1.367 . S
C631 C630 1.367 . S
C631 C633 1.433 . S
C632 C628 1.350 . S
C632 C629 1.463 . S
C632 N636 1.427 . S
C633 H623 0.929 . S
C633 C631 1.433 . S
C633 N636 1.384 . S
C634 H625 0.929 . S
C634 C626 1.378 . S
C634 C629 1.350 . S
C635 H622 0.929 . S
C635 C627 1.433 . S
C635 N637 1.384 . S
N636 C632 1.427 . S
N636 C633 1.384 . S
N637 C629 1.427 . S
N637 C635 1.384 . S
H638 C644 0.930 . S
H639 C648 0.930 . S
H640 C653 0.929 . S
H641 C651 0.929 . S
H642 C646 0.929 . S
H643 C652 0.929 . S
C644 H638 0.930 . S
C644 C645 1.367 . S
C644 C652 1.378 . S
C645 C644 1.367 . S
C645 C653 1.433 . S
C646 H642 0.929 . S
C646 C648 1.378 . S
C646 C650 1.350 . S
C647 C650 1.463 . S
C647 C652 1.350 . S
C647 N655 1.427 . S
C648 H639 0.930 . S
C648 C646 1.378 . S
C648 C649 1.367 . S
C649 C648 1.367 . S
C649 C651 1.433 . S
C650 C646 1.350 . S
C650 C647 1.463 . S
C650 N654 1.427 . S
C651 H641 0.929 . S
C651 C649 1.433 . S
C651 N654 1.384 . S
C652 H643 0.929 . S
C652 C644 1.378 . S
C652 C647 1.350 . S
C653 H640 0.929 . S
C653 C645 1.433 . S
C653 N655 1.384 . S
N654 C650 1.427 . S
N654 C651 1.384 . S
N655 C647 1.427 . S
N655 C653 1.384 . S
H656 C662 0.930 . S
H657 C666 0.930 . S
H658 C671 0.929 . S
H659 C669 0.929 . S
H660 C664 0.929 . S
H661 C670 0.929 . S
C662 H656 0.930 . S
C662 C663 1.367 . S
C662 C670 1.378 . S
C663 C662 1.367 . S
C663 C671 1.433 . S
C664 H660 0.929 . S
C664 C666 1.378 . S
C664 C668 1.350 . S
C665 C668 1.463 1_545 S
C665 C670 1.350 . S
C665 N673 1.427 . S
C666 H657 0.930 . S
C666 C664 1.378 . S
C666 C667 1.367 . S
C667 C666 1.367 . S
C667 C669 1.433 . S
C668 C664 1.350 . S
C668 C665 1.463 1_565 S
C668 N672 1.427 . S
C669 H659 0.929 . S
C669 C667 1.433 . S
C669 N672 1.384 . S
C670 H661 0.929 . S
C670 C662 1.378 . S
C670 C665 1.350 . S
C671 H658 0.929 . S
C671 C663 1.433 . S
C671 N673 1.384 . S
N672 C668 1.427 . S
N672 C669 1.384 . S
N673 C665 1.427 . S
N673 C671 1.384 . S
H674 C680 0.930 . S
H675 C684 0.930 . S
H676 C689 0.929 . S
H677 C687 0.929 . S
H678 C682 0.929 . S
H679 C688 0.929 . S
C680 H674 0.930 . S
C680 C681 1.367 . S
C680 C688 1.378 . S
C681 C680 1.367 . S
C681 C689 1.433 . S
C682 H678 0.929 . S
C682 C684 1.378 . S
C682 C686 1.350 . S
C683 C686 1.463 . S
C683 C688 1.350 . S
C683 N691 1.427 . S
C684 H675 0.930 . S
C684 C682 1.378 . S
C684 C685 1.367 . S
C685 C684 1.367 . S
C685 C687 1.433 . S
C686 C682 1.350 . S
C686 C683 1.463 . S
C686 N690 1.427 . S
C687 H677 0.929 . S
C687 C685 1.433 . S
C687 N690 1.384 . S
C688 H679 0.929 . S
C688 C680 1.378 . S
C688 C683 1.350 . S
C689 H676 0.929 . S
C689 C681 1.433 . S
C689 N691 1.384 . S
N690 C686 1.427 . S
N690 C687 1.384 . S
N691 C683 1.427 . S
N691 C689 1.384 . S
H692 C698 0.930 . S
H693 C702 0.930 . S
H694 C707 0.929 . S
H695 C705 0.929 . S
H696 C700 0.929 1_545 S
H697 C706 0.929 1_565 S
C698 H692 0.930 . S
C698 C699 1.367 . S
C698 C706 1.378 . S
C699 C698 1.367 . S
C699 C707 1.433 . S
C700 H696 0.929 1_565 S
C700 C702 1.378 . S
C700 C704 1.350 . S
C701 C704 1.463 1_546 S
C701 C706 1.350 . S
C701 N709 1.427 . S
C702 H693 0.930 . S
C702 C700 1.378 . S
C702 C703 1.367 . S
C703 C702 1.367 . S
C703 C705 1.433 . S
C704 C700 1.350 . S
C704 C701 1.463 1_564 S
C704 N708 1.427 . S
C705 H695 0.929 . S
C705 C703 1.433 . S
C705 N708 1.384 . S
C706 H697 0.929 1_545 S
C706 C698 1.378 . S
C706 C701 1.350 . S
C707 H694 0.929 . S
C707 C699 1.433 . S
C707 N709 1.384 . S
N708 C704 1.427 . S
N708 C705 1.384 . S
N709 C701 1.427 . S
N709 C707 1.384 . S
H710 C716 0.930 . S
H711 C720 0.930 . S
H712 C725 0.929 . S
H713 C723 0.929 . S
H714 C718 0.929 . S
H715 C724 0.929 . S
C716 H710 0.930 . S
C716 C717 1.367 . S
C716 C724 1.378 . S
C717 C716 1.367 . S
C717 C725 1.433 . S
C718 H714 0.929 . S
C718 C720 1.378 . S
C718 C722 1.350 . S
C719 C722 1.463 . S
C719 C724 1.350 . S
C719 N727 1.427 . S
C720 H711 0.930 . S
C720 C718 1.378 . S
C720 C721 1.367 . S
C721 C720 1.367 . S
C721 C723 1.433 . S
C722 C718 1.350 . S
C722 C719 1.463 . S
C722 N726 1.427 . S
C723 H713 0.929 . S
C723 C721 1.433 . S
C723 N726 1.384 . S
C724 H715 0.929 . S
C724 C716 1.378 . S
C724 C719 1.350 . S
C725 H712 0.929 . S
C725 C717 1.433 . S
C725 N727 1.384 . S
N726 C722 1.427 . S
N726 C723 1.384 . S
N727 C719 1.427 . S
N727 C725 1.384 . S
H728 C734 0.930 . S
H729 C738 0.930 . S
H730 C743 0.929 . S
H731 C741 0.929 . S
H732 C736 0.929 . S
H733 C742 0.929 . S
C734 H728 0.930 . S
C734 C735 1.367 . S
C734 C742 1.378 . S
C735 C734 1.367 . S
C735 C743 1.433 . S
C736 H732 0.929 . S
C736 C738 1.378 . S
C736 C740 1.350 . S
C737 C740 1.463 1_545 S
C737 C742 1.350 . S
C737 N745 1.428 . S
C738 H729 0.930 . S
C738 C736 1.378 . S
C738 C739 1.367 . S
C739 C738 1.367 . S
C739 C741 1.433 . S
C740 C736 1.350 . S
C740 C737 1.463 1_565 S
C740 N744 1.427 1_565 S
C741 H731 0.929 . S
C741 C739 1.433 . S
C741 N744 1.384 1_565 S
C742 H733 0.929 . S
C742 C734 1.378 . S
C742 C737 1.350 . S
C743 H730 0.929 . S
C743 C735 1.433 . S
C743 N745 1.385 . S
N744 C740 1.427 1_545 S
N744 C741 1.384 1_545 S
N745 C737 1.428 . S
N745 C743 1.385 . S
H746 C752 0.930 . S
H747 C756 0.930 . S
H748 C761 0.929 . S
H749 C759 0.929 . S
H750 C754 0.929 . S
H751 C760 0.929 . S
C752 H746 0.930 . S
C752 C753 1.367 . S
C752 C760 1.378 . S
C753 C752 1.367 . S
C753 C761 1.433 . S
C754 H750 0.929 . S
C754 C756 1.378 . S
C754 C758 1.350 . S
C755 C758 1.463 . S
C755 C760 1.350 . S
C755 N763 1.427 . S
C756 H747 0.930 . S
C756 C754 1.378 . S
C756 C757 1.367 . S
C757 C756 1.367 . S
C757 C759 1.433 . S
C758 C754 1.350 . S
C758 C755 1.463 . S
C758 N762 1.427 . S
C759 H749 0.929 . S
C759 C757 1.433 . S
C759 N762 1.384 . S
C760 H751 0.929 . S
C760 C752 1.378 . S
C760 C755 1.350 . S
C761 H748 0.929 . S
C761 C753 1.433 . S
C761 N763 1.384 . S
N762 C758 1.427 . S
N762 C759 1.384 . S
N763 C755 1.427 . S
N763 C761 1.384 . S
H764 C770 0.930 . S
H765 C774 0.930 . S
H766 C779 0.929 . S
H767 C777 0.929 . S
H768 C772 0.929 1_565 S
H769 C778 0.929 1_545 S
C770 H764 0.930 . S
C770 C771 1.367 . S
C770 C778 1.378 . S
C771 C770 1.367 . S
C771 C779 1.433 . S
C772 H768 0.929 1_545 S
C772 C774 1.378 . S
C772 C776 1.350 . S
C773 C776 1.463 1_564 S
C773 C778 1.350 . S
C773 N781 1.427 . S
C774 H765 0.930 . S
C774 C772 1.378 . S
C774 C775 1.367 . S
C775 C774 1.367 . S
C775 C777 1.433 . S
C776 C772 1.350 . S
C776 C773 1.463 1_546 S
C776 N780 1.427 . S
C777 H767 0.929 . S
C777 C775 1.433 . S
C777 N780 1.384 . S
C778 H769 0.929 1_565 S
C778 C770 1.378 . S
C778 C773 1.350 . S
C779 H766 0.929 . S
C779 C771 1.433 . S
C779 N781 1.384 . S
N780 C776 1.427 . S
N780 C777 1.384 . S
N781 C773 1.427 . S
N781 C779 1.384 . S
H782 C788 0.930 . S
H783 C792 0.930 . S
H784 C797 0.929 . S
H785 C795 0.929 . S
H786 C790 0.929 . S
H787 C796 0.929 . S
C788 H782 0.930 . S
C788 C789 1.367 . S
C788 C796 1.378 . S
C789 C788 1.367 . S
C789 C797 1.433 . S
C790 H786 0.929 . S
C790 C792 1.378 . S
C790 C794 1.350 . S
C791 C794 1.463 . S
C791 C796 1.350 . S
C791 N799 1.427 . S
C792 H783 0.930 . S
C792 C790 1.378 . S
C792 C793 1.367 . S
C793 C792 1.367 . S
C793 C795 1.433 . S
C794 C790 1.350 . S
C794 C791 1.463 . S
C794 N798 1.427 . S
C795 H785 0.929 . S
C795 C793 1.433 . S
C795 N798 1.384 . S
C796 H787 0.929 . S
C796 C788 1.378 . S
C796 C791 1.350 . S
C797 H784 0.929 . S
C797 C789 1.433 . S
C797 N799 1.384 . S
N798 C794 1.427 . S
N798 C795 1.384 . S
N799 C791 1.427 . S
N799 C797 1.384 . S
C231 C162 1.301 . S
C235 C13 1.302 . S
C249 C223 1.365 . S
C253 C22 1.373 . S
C267 C41 1.220 . S
C271 C139 1.220 . S
C285 C195 1.198 . S
C289 C55 1.213 . S
C303 C69 1.419 . S
C307 C190 1.416 . S
C321 C78 1.379 . S
C325 C167 1.387 . S
C339 C92 1.466 . S
C343 C218 1.462 . S
C357 C111 1.337 . S
C361 C134 1.356 . S
C375 C50 1.276 . S
C379 C125 1.270 . S
C393 C148 1.410 . S
C397 C27 1.398 . S
C411 C181 1.248 . S
C415 C83 1.235 . S
C429 C204 1.487 . S
C433 C106 1.479 . S
C447 C64 1.403 . S
C451 C120 1.425 . S
C465 C153 1.268 . S
C469 C97 1.248 . S
C483 C209 1.444 . S
C487 C36 1.443 . S
C501 C8 1.391 . S
C505 C176 1.399 . S
C519 C7 1.185 . S
C523 C63 1.189 . S
C537 C25 1.070 . S
C541 C81 1.064 . S
C555 C35 1.229 . S
C559 C95 1.240 . S
C573 C105 1.268 . S
C577 C49 1.265 . S
C591 C119 1.184 . S
C595 C175 1.177 . S
C609 C189 1.172 . S
C613 C137 1.191 . S
C627 C151 1.119 . S
C631 C207 1.125 . S
C645 C217 1.276 . S
C649 C161 1.275 . S
C663 C109 1.213 . S
C667 C21 1.193 . S
C681 C39 1.158 . S
C685 C67 1.161 . S
C699 C53 1.218 . S
C703 C77 1.215 . S
C717 C11 1.122 . S
C721 C91 1.108 . S
C735 C133 1.189 . S
C739 C221 1.208 . S
C753 C179 1.275 . S
C757 C147 1.267 . S
C771 C165 1.101 . S
C775 C193 1.095 . S
C789 C203 1.122 . S
C793 C123 1.124 . S
