# Generated by pormake.
# Topology atn, (4)-cn, num edge types: 1
# Building blocks:
#     Node 0, Type 0, BuildingBlock: ICAMEG_clean_sbu_1, # of connection points: 4
#     Node 1, Type 0, BuildingBlock: ICAMEG_clean_sbu_1, # of connection points: 4
#     Node 2, Type 0, BuildingBlock: ICAMEG_clean_sbu_1, # of connection points: 4
#     Node 3, Type 0, BuildingBlock: ICAMEG_clean_sbu_1, # of connection points: 4
#     Node 4, Type 0, BuildingBlock: ICAMEG_clean_sbu_1, # of connection points: 4
#     Node 5, Type 0, BuildingBlock: ICAMEG_clean_sbu_1, # of connection points: 4
#     Node 6, Type 0, BuildingBlock: ICAMEG_clean_sbu_1, # of connection points: 4
#     Node 7, Type 0, BuildingBlock: ICAMEG_clean_sbu_1, # of connection points: 4
#     Node 8, Type 0, BuildingBlock: ICAMEG_clean_sbu_1, # of connection points: 4
#     Node 9, Type 0, BuildingBlock: ICAMEG_clean_sbu_1, # of connection points: 4
#     Node 10, Type 0, BuildingBlock: ICAMEG_clean_sbu_1, # of connection points: 4
#     Node 11, Type 0, BuildingBlock: ICAMEG_clean_sbu_1, # of connection points: 4
#     Node 12, Type 0, BuildingBlock: ICAMEG_clean_sbu_1, # of connection points: 4
#     Node 13, Type 0, BuildingBlock: ICAMEG_clean_sbu_1, # of connection points: 4
#     Node 14, Type 0, BuildingBlock: ICAMEG_clean_sbu_1, # of connection points: 4
#     Node 15, Type 0, BuildingBlock: ICAMEG_clean_sbu_1, # of connection points: 4
#     Edge 16, Type (0, 0), BuildingBlock: CIFDUS_clean_linker_0, # of connection points: 2
#     Edge 17, Type (0, 0), BuildingBlock: CIFDUS_clean_linker_0, # of connection points: 2
#     Edge 18, Type (0, 0), BuildingBlock: CIFDUS_clean_linker_0, # of connection points: 2
#     Edge 19, Type (0, 0), BuildingBlock: CIFDUS_clean_linker_0, # of connection points: 2
#     Edge 20, Type (0, 0), BuildingBlock: CIFDUS_clean_linker_0, # of connection points: 2
#     Edge 21, Type (0, 0), BuildingBlock: CIFDUS_clean_linker_0, # of connection points: 2
#     Edge 22, Type (0, 0), BuildingBlock: CIFDUS_clean_linker_0, # of connection points: 2
#     Edge 23, Type (0, 0), BuildingBlock: CIFDUS_clean_linker_0, # of connection points: 2
#     Edge 24, Type (0, 0), BuildingBlock: CIFDUS_clean_linker_0, # of connection points: 2
#     Edge 25, Type (0, 0), BuildingBlock: CIFDUS_clean_linker_0, # of connection points: 2
#     Edge 26, Type (0, 0), BuildingBlock: CIFDUS_clean_linker_0, # of connection points: 2
#     Edge 27, Type (0, 0), BuildingBlock: CIFDUS_clean_linker_0, # of connection points: 2
#     Edge 28, Type (0, 0), BuildingBlock: CIFDUS_clean_linker_0, # of connection points: 2
#     Edge 29, Type (0, 0), BuildingBlock: CIFDUS_clean_linker_0, # of connection points: 2
#     Edge 30, Type (0, 0), BuildingBlock: CIFDUS_clean_linker_0, # of connection points: 2
#     Edge 31, Type (0, 0), BuildingBlock: CIFDUS_clean_linker_0, # of connection points: 2
#     Edge 32, Type (0, 0), BuildingBlock: CIFDUS_clean_linker_0, # of connection points: 2
#     Edge 33, Type (0, 0), BuildingBlock: CIFDUS_clean_linker_0, # of connection points: 2
#     Edge 34, Type (0, 0), BuildingBlock: CIFDUS_clean_linker_0, # of connection points: 2
#     Edge 35, Type (0, 0), BuildingBlock: CIFDUS_clean_linker_0, # of connection points: 2
#     Edge 36, Type (0, 0), BuildingBlock: CIFDUS_clean_linker_0, # of connection points: 2
#     Edge 37, Type (0, 0), BuildingBlock: CIFDUS_clean_linker_0, # of connection points: 2
#     Edge 38, Type (0, 0), BuildingBlock: CIFDUS_clean_linker_0, # of connection points: 2
#     Edge 39, Type (0, 0), BuildingBlock: CIFDUS_clean_linker_0, # of connection points: 2
#     Edge 40, Type (0, 0), BuildingBlock: CIFDUS_clean_linker_0, # of connection points: 2
#     Edge 41, Type (0, 0), BuildingBlock: CIFDUS_clean_linker_0, # of connection points: 2
#     Edge 42, Type (0, 0), BuildingBlock: CIFDUS_clean_linker_0, # of connection points: 2
#     Edge 43, Type (0, 0), BuildingBlock: CIFDUS_clean_linker_0, # of connection points: 2
#     Edge 44, Type (0, 0), BuildingBlock: CIFDUS_clean_linker_0, # of connection points: 2
#     Edge 45, Type (0, 0), BuildingBlock: CIFDUS_clean_linker_0, # of connection points: 2
#     Edge 46, Type (0, 0), BuildingBlock: CIFDUS_clean_linker_0, # of connection points: 2
#     Edge 47, Type (0, 0), BuildingBlock: CIFDUS_clean_linker_0, # of connection points: 2
# Relax obj value: 0.026
# Max RMSD: 0.061
# Mean RMSD: 0.061
data_MOF--net-atn--node1-ICAMEG_clean_sbu_1--edge1-CIFDUS_clean_linker_0
_symmetry_space_group_name_H-M    P1
_symmetry_Int_Tables_number       1
_symmetry_cell_setting            triclinic
loop_
_symmetry_equiv_pos_as_xyz
'x, y, z'
_cell_length_a     54.530232
_cell_length_b     54.485072
_cell_length_c     26.375217
_cell_angle_alpha  90.022205
_cell_angle_beta   89.972574
_cell_angle_gamma 90.0142
loop_
_atom_site_label
_atom_site_type_symbol
_atom_site_fract_x
_atom_site_fract_y
_atom_site_fract_z
_atom_type_partial_charge
Co0 Co 0.18489 0.34979 0.01089 0.0
Co1 Co 0.22978 0.39256 0.03967 0.0
O2 O 0.20134 0.38157 0.99968 0.0
C3 C 0.19639 0.34769 0.90167 0.0
O4 O 0.21834 0.35621 0.91203 0.0
C5 C 0.199 0.43921 0.02466 0.0
O6 O 0.18026 0.42692 1.00656 0.0
O7 O 0.2117 0.38603 0.10458 0.0
O8 O 0.18842 0.35332 0.08546 0.0
H9 H 0.29113 0.38547 0.18092 0.0
H10 H 0.16066 0.38692 0.9461 0.0
O11 O 0.1806 0.34501 0.93662 0.0
H12 H 0.10293 0.37188 0.08665 0.0
H13 H 0.12055 0.28524 0.979 0.0
H14 H 0.19395 0.30724 0.07829 0.0
H15 H 0.14213 0.34952 0.08194 0.0
H16 H 0.14105 0.3251 0.96606 0.0
O17 O 0.21809 0.42788 0.04017 0.0
H18 H 0.25593 0.37241 0.12879 0.0
H19 H 0.26374 0.43569 0.03614 0.0
H20 H 0.17389 0.26728 0.09278 0.0
H21 H 0.12145 0.40945 0.9488 0.0
H22 H 0.13692 0.25605 0.04291 0.0
H23 H 0.09232 0.40208 0.01961 0.0
O24 O 0.21674 0.33179 1.00705 0.0
H25 H 0.23855 0.42338 0.8606 0.0
H26 H 0.28021 0.38145 1.00186 0.0
H27 H 0.30235 0.388 0.9216 0.0
H28 H 0.28154 0.40922 0.85026 0.0
H29 H 0.217 0.4161 0.94115 0.0
H30 H 0.29885 0.44955 0.08758 0.0
H31 H 0.31283 0.42431 0.16045 0.0
O32 O 0.24362 0.35845 0.04005 0.0
C33 C 0.19745 0.36839 0.11724 0.0
C34 C 0.28524 0.39661 0.14923 0.0
C35 C 0.28954 0.43259 0.0969 0.0
N36 N 0.25779 0.40324 0.07942 0.0
C37 C 0.26534 0.38929 0.11952 0.0
C38 C 0.26957 0.4247 0.06803 0.0
C39 C 0.29739 0.41841 0.13775 0.0
C40 C 0.14801 0.38351 0.97687 0.0
N41 N 0.15379 0.36707 0.01408 0.0
C42 C 0.12586 0.39637 0.97827 0.0
C43 C 0.10955 0.39225 0.01804 0.0
C44 C 0.11551 0.37535 0.05572 0.0
C45 C 0.13783 0.36285 0.05308 0.0
C46 C 0.13662 0.28994 1.00103 0.0
C47 C 0.17778 0.30255 0.05665 0.0
C48 C 0.14834 0.31246 0.99379 0.0
N49 N 0.16859 0.31857 0.02164 0.0
C50 C 0.16654 0.27987 0.06493 0.0
C51 C 0.14581 0.27357 0.0369 0.0
C52 C 0.23811 0.33722 0.02309 0.0
C53 C 0.24787 0.41426 0.89152 0.0
C54 C 0.27097 0.39062 0.97106 0.0
C55 C 0.28364 0.39434 0.92568 0.0
C56 C 0.27197 0.40626 0.88569 0.0
N57 N 0.24737 0.39865 0.9767 0.0
C58 C 0.2358 0.41024 0.93749 0.0
Co59 Co 0.66285 0.17589 0.01318 0.0
Co60 Co 0.6241 0.22483 0.03998 0.0
O61 O 0.63298 0.19535 1.00104 0.0
C62 C 0.66694 0.18951 0.9057 0.0
O63 O 0.65951 0.21159 0.91831 0.0
C64 C 0.57645 0.19545 0.03173 0.0
O65 O 0.58838 0.17501 0.02268 0.0
O66 O 0.62989 0.20714 0.10578 0.0
O67 O 0.65827 0.17863 0.08738 0.0
H68 H 0.63613 0.28723 0.17796 0.0
H69 H 0.62535 0.15591 0.94311 0.0
O70 O 0.66861 0.17271 0.93889 0.0
H71 H 0.63131 0.09563 0.08196 0.0
H72 H 0.7215 0.10629 0.98023 0.0
H73 H 0.70464 0.17944 0.08475 0.0
H74 H 0.65717 0.13274 0.08201 0.0
H75 H 0.68415 0.13086 0.96609 0.0
O76 O 0.58819 0.21522 0.04128 0.0
H77 H 0.64658 0.25074 0.12693 0.0
H78 H 0.58299 0.26123 0.03658 0.0
H79 H 0.7421 0.15527 0.10047 0.0
H80 H 0.59939 0.11883 0.94115 0.0
H81 H 0.75074 0.1184 0.04797 0.0
H82 H 0.6022 0.08844 0.01107 0.0
O83 O 0.68387 0.20581 0.01365 0.0
H84 H 0.5927 0.23291 0.86146 0.0
H85 H 0.63695 0.27445 0.99994 0.0
H86 H 0.63129 0.29581 0.91842 0.0
H87 H 0.60894 0.27503 0.84847 0.0
H88 H 0.59916 0.21211 0.94326 0.0
H89 H 0.57171 0.29764 0.08697 0.0
H90 H 0.59844 0.31093 0.15811 0.0
O91 O 0.6591 0.23653 0.03829 0.0
C92 C 0.64496 0.19027 0.11883 0.0
C93 C 0.62436 0.28164 0.14701 0.0
C94 C 0.58817 0.28746 0.09601 0.0
N95 N 0.61544 0.25387 0.07876 0.0
C96 C 0.6302 0.26103 0.11792 0.0
C97 C 0.59459 0.26674 0.06777 0.0
C98 C 0.60319 0.29492 0.13589 0.0
C99 C 0.62685 0.14264 0.97339 0.0
N100 N 0.64274 0.14651 0.01263 0.0
C101 C 0.61203 0.12174 0.9722 0.0
C102 C 0.61359 0.10471 0.01149 0.0
C103 C 0.62989 0.10876 0.05132 0.0
C104 C 0.6444 0.12988 0.05127 0.0
C105 C 0.71792 0.12229 1.00341 0.0
C106 C 0.7082 0.16334 0.06193 0.0
C107 C 0.69682 0.13631 0.99552 0.0
N108 N 0.69213 0.15647 0.02481 0.0
C109 C 0.72947 0.14976 0.07093 0.0
C110 C 0.73432 0.12909 0.04144 0.0
C111 C 0.68013 0.22814 0.02575 0.0
C112 C 0.60244 0.24217 0.89166 0.0
C113 C 0.62746 0.26519 0.96955 0.0
C114 C 0.62417 0.27744 0.92355 0.0
C115 C 0.6116 0.26578 0.88436 0.0
N116 N 0.61851 0.242 0.97643 0.0
C117 C 0.60607 0.23051 0.93821 0.0
Co118 Co 0.84035 0.66836 0.01465 0.0
Co119 Co 0.79231 0.6286 0.03994 0.0
O120 O 0.82149 0.63838 1.00163 0.0
C121 C 0.82689 0.67236 0.90725 0.0
O122 O 0.80489 0.66473 0.9199 0.0
C123 C 0.82443 0.58372 0.04677 0.0
O124 O 0.84286 0.59747 0.06165 0.0
O125 O 0.80965 0.63435 0.10615 0.0
O126 O 0.83753 0.66347 0.08868 0.0
H127 H 0.72878 0.63743 0.17662 0.0
H128 H 0.86024 0.63025 0.94592 0.0
O129 O 0.84365 0.67431 0.94046 0.0
H130 H 0.9208 0.63778 0.08387 0.0
H131 H 0.90903 0.72826 0.98324 0.0
H132 H 0.836 0.70988 0.08685 0.0
H133 H 0.88379 0.66378 0.08289 0.0
H134 H 0.88509 0.69053 0.96832 0.0
O135 O 0.8035 0.59334 0.03858 0.0
H136 H 0.76507 0.64964 0.12672 0.0
H137 H 0.75807 0.58577 0.03547 0.0
H138 H 0.85953 0.74771 0.10337 0.0
H139 H 0.8971 0.60399 0.9452 0.0
H140 H 0.89634 0.75711 0.05133 0.0
H141 H 0.92765 0.60763 0.01463 0.0
O142 O 0.81004 0.68879 0.01523 0.0
H143 H 0.78521 0.59737 0.8612 0.0
H144 H 0.74267 0.64083 0.99957 0.0
H145 H 0.72165 0.63501 0.91767 0.0
H146 H 0.74296 0.61309 0.84777 0.0
H147 H 0.80564 0.60394 0.94349 0.0
H148 H 0.72186 0.57276 0.08466 0.0
H149 H 0.70692 0.59873 0.15566 0.0
O150 O 0.77972 0.66337 0.03964 0.0
C151 C 0.82615 0.64972 0.1197 0.0
C152 C 0.73506 0.626 0.14566 0.0
C153 C 0.73121 0.58968 0.0941 0.0
N154 N 0.76357 0.61854 0.07801 0.0
C155 C 0.75555 0.63286 0.11719 0.0
C156 C 0.75177 0.59711 0.06649 0.0
C157 C 0.72283 0.60427 0.13392 0.0
C158 C 0.87357 0.63207 0.97602 0.0
N159 N 0.86993 0.6486 0.01426 0.0
C160 C 0.89435 0.6171 0.97551 0.0
C161 C 0.91147 0.61913 0.01451 0.0
C162 C 0.90763 0.63603 0.05339 0.0
C163 C 0.88661 0.65067 0.05269 0.0
C164 C 0.89305 0.72435 1.00622 0.0
C165 C 0.85207 0.71378 0.06424 0.0
C166 C 0.87939 0.70305 0.99788 0.0
N167 N 0.85926 0.69793 0.02693 0.0
C168 C 0.86529 0.73526 0.07368 0.0
C169 C 0.88592 0.74053 0.04444 0.0
C170 C 0.78779 0.6846 0.02737 0.0
C171 C 0.77575 0.60699 0.89132 0.0
C172 C 0.75215 0.63159 0.96913 0.0
C173 C 0.74011 0.62818 0.92295 0.0
C174 C 0.75205 0.61584 0.88379 0.0
N175 N 0.77545 0.62302 0.97614 0.0
C176 C 0.78721 0.61073 0.93804 0.0
Co177 Co 0.34779 0.83467 0.00906 0.0
Co178 Co 0.38965 0.79434 0.05939 0.0
O179 O 0.37983 0.81854 0.00856 0.0
C180 C 0.35136 0.81501 0.90553 0.0
O181 O 0.3595 0.79438 0.92491 0.0
C182 C 0.43308 0.8287 0.05616 0.0
O183 O 0.41862 0.84764 0.06354 0.0
O184 O 0.3812 0.81778 0.11554 0.0
O185 O 0.34794 0.83666 0.08422 0.0
H186 H 0.38017 0.74579 0.22003 0.0
H187 H 0.38806 0.85476 0.94626 0.0
O188 O 0.34653 0.83324 0.93386 0.0
H189 H 0.36521 0.92165 0.06309 0.0
H190 H 0.28404 0.89379 0.94468 0.0
H191 H 0.30243 0.82925 0.07006 0.0
H192 H 0.34333 0.88206 0.06543 0.0
H193 H 0.32468 0.87393 0.94638 0.0
O194 O 0.42432 0.80701 0.05608 0.0
H195 H 0.36772 0.77557 0.15448 0.0
H196 H 0.43377 0.76254 0.07339 0.0
H197 H 0.26162 0.84876 0.06997 0.0
H198 H 0.41032 0.89415 0.94231 0.0
H199 H 0.25221 0.88128 1.00693 0.0
H200 H 0.39895 0.92791 1.00112 0.0
O201 O 0.33087 0.80239 0.01207 0.0
H202 H 0.42691 0.77068 0.89201 0.0
H203 H 0.37959 0.74127 0.03922 0.0
H204 H 0.38883 0.71273 0.96928 0.0
H205 H 0.41274 0.72737 0.89502 0.0
H206 H 0.4169 0.79869 0.96242 0.0
H207 H 0.44701 0.73275 0.13822 0.0
H208 H 0.42008 0.72414 0.21209 0.0
O209 O 0.35556 0.77993 0.06179 0.0
C210 C 0.36239 0.83163 0.12063 0.0
C211 C 0.39203 0.74933 0.18794 0.0
C212 C 0.42956 0.74204 0.14206 0.0
N213 N 0.39991 0.77066 0.11 0.0
C214 C 0.38505 0.76612 0.15065 0.0
C215 C 0.42199 0.75898 0.10554 0.0
C216 C 0.41444 0.73721 0.18349 0.0
C217 C 0.3829 0.86944 0.97171 0.0
N218 N 0.36439 0.86613 1.00595 0.0
C219 C 0.39561 0.89167 0.96941 0.0
C220 C 0.38925 0.91059 1.00246 0.0
C221 C 0.37033 0.90708 0.03726 0.0
C222 C 0.35805 0.88459 0.03852 0.0
C223 C 0.28794 0.87969 0.97242 0.0
C224 C 0.29853 0.84351 0.04274 0.0
C225 C 0.3109 0.86836 0.97352 0.0
N226 N 0.31598 0.85061 0.00859 0.0
C227 C 0.27536 0.85444 0.04278 0.0
C228 C 0.27009 0.87267 1.00736 0.0
C229 C 0.33547 0.78309 0.03761 0.0
C230 C 0.4165 0.76406 0.92417 0.0
C231 C 0.38976 0.74785 1.00687 0.0
C232 C 0.39507 0.73157 0.96747 0.0
C233 C 0.40851 0.73978 0.92585 0.0
N234 N 0.3976 0.77166 1.00494 0.0
C235 C 0.41085 0.77982 0.96428 0.0
Co236 Co 0.17663 0.66673 0.00785 0.0
Co237 Co 0.22486 0.62872 0.97413 0.0
O238 O 0.19606 0.63671 0.015 0.0
C239 C 0.19268 0.66635 0.11482 0.0
O240 O 0.21432 0.66002 0.09744 0.0
C241 C 0.19294 0.58386 0.96462 0.0
O242 O 0.17415 0.59793 0.95343 0.0
O243 O 0.20663 0.63643 0.90993 0.0
O244 O 0.17814 0.66435 0.93189 0.0
H245 H 0.28646 0.64271 0.8355 0.0
H246 H 0.15844 0.6262 0.07263 0.0
O247 O 0.17497 0.6699 0.08407 0.0
H248 H 0.09528 0.63745 0.94092 0.0
H249 H 0.10827 0.72449 0.05489 0.0
H250 H 0.17864 0.71045 0.94101 0.0
H251 H 0.13209 0.66375 0.94253 0.0
H252 H 0.13296 0.6867 0.06189 0.0
O253 O 0.21409 0.59333 0.97128 0.0
H254 H 0.25067 0.65281 0.88885 0.0
H255 H 0.25978 0.58648 0.97126 0.0
H256 H 0.15432 0.74839 0.93237 0.0
H257 H 0.12182 0.59959 0.07267 0.0
H258 H 0.11885 0.7556 0.98962 0.0
H259 H 0.08995 0.60512 1.00638 0.0
O260 O 0.20656 0.68764 1.0077 0.0
H261 H 0.23516 0.5913 0.14701 0.0
H262 H 0.27443 0.64144 0.01425 0.0
H263 H 0.29664 0.63329 0.0939 0.0
H264 H 0.277 0.60801 0.16094 0.0
H265 H 0.21347 0.60022 0.06712 0.0
H266 H 0.29554 0.57558 0.9186 0.0
H267 H 0.30915 0.60384 0.85027 0.0
O268 O 0.237 0.66357 0.97854 0.0
C269 C 0.18972 0.65181 0.89863 0.0
C270 C 0.28075 0.63028 0.86527 0.0
C271 C 0.28583 0.59258 0.91185 0.0
N272 N 0.25326 0.62035 0.93333 0.0
C273 C 0.26055 0.63594 0.89567 0.0
C274 C 0.26552 0.59883 0.94146 0.0
C275 C 0.29346 0.60846 0.87353 0.0
C276 C 0.14454 0.62884 0.04394 0.0
N277 N 0.14733 0.64657 0.0078 0.0
C278 C 0.12389 0.61366 0.04403 0.0
C279 C 0.10604 0.61675 1.00679 0.0
C280 C 0.10902 0.63488 0.97002 0.0
C281 C 0.12993 0.64968 0.97107 0.0
C282 C 0.12365 0.72154 0.02968 0.0
C283 C 0.16314 0.7134 0.96585 0.0
C284 C 0.13774 0.70021 0.03355 0.0
N285 N 0.15712 0.69633 1.00168 0.0
C286 C 0.14948 0.73494 0.96087 0.0
C287 C 0.1296 0.73898 0.99303 0.0
C288 C 0.22869 0.68421 0.99388 0.0
C289 C 0.24392 0.60232 0.11808 0.0
C290 C 0.26569 0.6306 0.0434 0.0
C291 C 0.2784 0.62594 0.08833 0.0
C292 C 0.26738 0.61173 0.1259 0.0
N293 N 0.24264 0.62141 0.03608 0.0
C294 C 0.23176 0.60736 0.07266 0.0
Co295 Co 0.34974 0.1749 0.01426 0.0
Co296 Co 0.38797 0.21971 0.96529 0.0
O297 O 0.37998 0.1943 0.01505 0.0
C298 C 0.35033 0.19668 0.11619 0.0
O299 O 0.35735 0.21747 0.09567 0.0
C300 C 0.43248 0.18701 0.96606 0.0
O301 O 0.4182 0.1677 0.96189 0.0
O302 O 0.37972 0.19704 0.90744 0.0
O303 O 0.35125 0.17172 0.93972 0.0
H304 H 0.37334 0.27076 0.80976 0.0
H305 H 0.39072 0.16032 0.08146 0.0
O306 O 0.34717 0.17765 0.08914 0.0
H307 H 0.3775 0.08963 0.96788 0.0
H308 H 0.29183 0.11041 0.08037 0.0
H309 H 0.3051 0.17395 0.95008 0.0
H310 H 0.35154 0.12654 0.96108 0.0
H311 H 0.33004 0.13465 0.07918 0.0
O312 O 0.42325 0.2085 0.96499 0.0
H313 H 0.36339 0.23935 0.87394 0.0
H314 H 0.43057 0.25348 0.94999 0.0
H315 H 0.26671 0.15001 0.94961 0.0
H316 H 0.41701 0.1237 0.08986 0.0
H317 H 0.25988 0.11798 0.01512 0.0
H318 H 0.4105 0.08805 0.03269 0.0
O319 O 0.32931 0.20496 1.0074 0.0
H320 H 0.42624 0.24191 0.13254 0.0
H321 H 0.37686 0.2721 0.98901 0.0
H322 H 0.38588 0.29986 0.0605 0.0
H323 H 0.41079 0.2848 0.13292 0.0
H324 H 0.41645 0.21469 0.06064 0.0
H325 H 0.44133 0.28488 0.88644 0.0
H326 H 0.41256 0.29378 0.81582 0.0
O327 O 0.35322 0.23247 0.96717 0.0
C328 C 0.36367 0.18002 0.90274 0.0
C329 C 0.38599 0.26711 0.84045 0.0
C330 C 0.42417 0.275 0.88343 0.0
N331 N 0.39629 0.24472 0.91583 0.0
C332 C 0.38042 0.2494 0.87696 0.0
C333 C 0.41801 0.25714 0.91922 0.0
C334 C 0.40801 0.27999 0.84383 0.0
C335 C 0.38765 0.14479 0.05676 0.0
N336 N 0.36957 0.14553 0.02096 0.0
C337 C 0.40265 0.12414 0.06156 0.0
C338 C 0.39901 0.10416 0.02942 0.0
C339 C 0.38051 0.10505 0.99303 0.0
C340 C 0.3659 0.12602 0.98927 0.0
C341 C 0.29461 0.12428 0.05156 0.0
C342 C 0.30233 0.15994 0.97851 0.0
C343 C 0.31619 0.13809 0.05074 0.0
N344 N 0.31987 0.15557 0.01435 0.0
C345 C 0.28052 0.14648 0.97814 0.0
C346 C 0.2767 0.12853 0.01493 0.0
C347 C 0.33277 0.2258 0.98663 0.0
C348 C 0.41534 0.24868 0.10124 0.0
C349 C 0.38746 0.26535 0.02064 0.0
C350 C 0.39264 0.28118 0.06088 0.0
C351 C 0.40665 0.27273 0.10145 0.0
N352 N 0.39592 0.24174 0.02081 0.0
C353 C 0.40979 0.23337 0.06034 0.0
Co354 Co 0.82961 0.35048 1.00718 0.0
Co355 Co 0.786 0.39316 0.97083 0.0
O356 O 0.81347 0.38267 0.01378 0.0
C357 C 0.81498 0.35279 0.11539 0.0
O358 O 0.79367 0.36087 0.09945 0.0
C359 C 0.81739 0.43938 0.98472 0.0
O360 O 0.83575 0.42686 1.00372 0.0
O361 O 0.80532 0.38526 0.90835 0.0
O362 O 0.82792 0.35247 0.93082 0.0
H363 H 0.72749 0.38425 0.82492 0.0
H364 H 0.85325 0.38838 0.07134 0.0
O365 O 0.83177 0.34765 0.0834 0.0
H366 H 0.91332 0.36978 0.93691 0.0
H367 H 0.8917 0.28587 0.05332 0.0
H368 H 0.82194 0.30668 0.94245 0.0
H369 H 0.87354 0.34832 0.93972 0.0
H370 H 0.87148 0.32624 0.05995 0.0
O371 O 0.79817 0.42831 0.96899 0.0
H372 H 0.76144 0.37175 0.88097 0.0
H373 H 0.75258 0.43669 0.96822 0.0
H374 H 0.84176 0.26617 0.93424 0.0
H375 H 0.89298 0.41003 0.07044 0.0
H376 H 0.8769 0.25555 0.98996 0.0
H377 H 0.9233 0.40084 1.00271 0.0
O378 O 0.79751 0.33292 0.00924 0.0
H379 H 0.77379 0.42777 0.14608 0.0
H380 H 0.73481 0.38297 1.0052 0.0
H381 H 0.71113 0.39121 0.08288 0.0
H382 H 0.73058 0.41388 0.154 0.0
H383 H 0.7969 0.41874 0.06817 0.0
H384 H 0.7187 0.45001 0.91282 0.0
H385 H 0.70588 0.42366 0.84067 0.0
O386 O 0.77177 0.3592 0.97154 0.0
C387 C 0.81951 0.3673 0.89742 0.0
C388 C 0.73288 0.39588 0.85628 0.0
C389 C 0.72798 0.4328 0.90556 0.0
N390 N 0.75897 0.40343 0.9279 0.0
C391 C 0.75206 0.38887 0.8882 0.0
C392 C 0.74725 0.42521 0.93668 0.0
C393 C 0.72078 0.418 0.86511 0.0
C394 C 0.86642 0.38415 0.04199 0.0
N395 N 0.86102 0.36719 1.00551 0.0
C396 C 0.88886 0.39653 0.04156 0.0
C397 C 0.90584 0.39139 1.00351 0.0
C398 C 0.90024 0.374 0.96653 0.0
C399 C 0.87761 0.362 0.96815 0.0
C400 C 0.87644 0.2903 0.02876 0.0
C401 C 0.83733 0.30224 0.96659 0.0
C402 C 0.86488 0.31311 0.03241 0.0
N403 N 0.84567 0.31886 1.00134 0.0
C404 C 0.84843 0.27925 0.96187 0.0
C405 C 0.86813 0.2733 0.99319 0.0
C406 C 0.77665 0.33821 0.99046 0.0
C407 C 0.76505 0.41802 0.11522 0.0
C408 C 0.74347 0.39273 0.03596 0.0
C409 C 0.72993 0.39743 0.07985 0.0
C410 C 0.74083 0.41016 0.11971 0.0
N411 N 0.7672 0.40058 0.03166 0.0
C412 C 0.77802 0.41302 0.07072 0.0
Co413 Co 0.66482 0.83334 0.00889 0.0
Co414 Co 0.62245 0.78957 0.97201 0.0
O415 O 0.63277 0.81698 0.01533 0.0
C416 C 0.66254 0.81819 0.11664 0.0
O417 O 0.65463 0.79689 0.10012 0.0
C418 C 0.57629 0.82098 0.98543 0.0
O419 O 0.58897 0.83998 1.00112 0.0
O420 O 0.63002 0.80926 0.90989 0.0
O421 O 0.66279 0.83187 0.93248 0.0
H422 H 0.6313 0.73185 0.82456 0.0
H423 H 0.62684 0.85657 0.0735 0.0
O424 O 0.66763 0.83521 0.08513 0.0
H425 H 0.64511 0.91724 0.94004 0.0
H426 H 0.72909 0.89563 0.05608 0.0
H427 H 0.70859 0.82615 0.94393 0.0
H428 H 0.66671 0.87752 0.94212 0.0
H429 H 0.68885 0.87515 0.06239 0.0
O430 O 0.58724 0.80142 0.97119 0.0
H431 H 0.64367 0.76572 0.88112 0.0
H432 H 0.57942 0.75551 0.96973 0.0
H433 H 0.74896 0.84623 0.93602 0.0
H434 H 0.60506 0.89624 0.07334 0.0
H435 H 0.75943 0.88123 0.99239 0.0
H436 H 0.61408 0.92686 1.00611 0.0
O437 O 0.68252 0.80132 0.01046 0.0
H438 H 0.58802 0.77638 0.14697 0.0
H439 H 0.63343 0.73837 1.00573 0.0
H440 H 0.62556 0.7144 0.08319 0.0
H441 H 0.6026 0.73336 0.15449 0.0
H442 H 0.59668 0.79982 0.06925 0.0
H443 H 0.56624 0.72171 0.91386 0.0
H444 H 0.59231 0.70961 0.84076 0.0
O445 O 0.6565 0.7756 0.97192 0.0
C446 C 0.64794 0.82354 0.89905 0.0
C447 C 0.61979 0.73694 0.85632 0.0
C448 C 0.58326 0.73127 0.90638 0.0
N449 N 0.6123 0.7626 0.9287 0.0
C450 C 0.62672 0.75607 0.88852 0.0
C451 C 0.59076 0.75051 0.93776 0.0
C452 C 0.59791 0.72448 0.8654 0.0
C453 C 0.63101 0.86988 0.04438 0.0
N454 N 0.64796 0.86469 0.00777 0.0
C455 C 0.61855 0.89228 0.04436 0.0
C456 C 0.62359 0.90943 1.00658 0.0
C457 C 0.64097 0.90403 0.96946 0.0
C458 C 0.65305 0.88144 0.97066 0.0
C459 C 0.72473 0.88043 0.03123 0.0
C460 C 0.71295 0.84148 0.96834 0.0
C461 C 0.70199 0.86874 0.0347 0.0
N462 N 0.69632 0.84961 1.00328 0.0
C463 C 0.73587 0.85273 0.9638 0.0
C464 C 0.74174 0.87235 0.99548 0.0
C465 C 0.6774 0.78051 0.99116 0.0
C466 C 0.59792 0.76786 0.11605 0.0
C467 C 0.62356 0.74683 0.0366 0.0
C468 C 0.61907 0.73312 0.08035 0.0
C469 C 0.60616 0.74375 0.12031 0.0
N470 N 0.61537 0.77047 0.03257 0.0
C471 C 0.60273 0.78101 0.07169 0.0
Co472 Co 0.68164 0.85017 0.51164 0.0
Co473 Co 0.72462 0.89327 0.54728 0.0
O474 O 0.69757 0.88222 0.50437 0.0
C475 C 0.69655 0.85224 0.40378 0.0
O476 O 0.71782 0.86027 0.42012 0.0
C477 C 0.69003 0.93651 0.54897 0.0
O478 O 0.67164 0.92192 0.56026 0.0
O479 O 0.70509 0.88591 0.60982 0.0
O480 O 0.68322 0.85251 0.58794 0.0
H481 H 0.783 0.88733 0.69402 0.0
H482 H 0.65862 0.88878 0.44857 0.0
O483 O 0.67961 0.84711 0.43545 0.0
H484 H 0.59775 0.86939 0.58097 0.0
H485 H 0.62001 0.78501 0.46603 0.0
H486 H 0.68945 0.80669 0.5771 0.0
H487 H 0.6373 0.84751 0.57782 0.0
H488 H 0.64001 0.8255 0.45899 0.0
O489 O 0.71165 0.92786 0.54477 0.0
H490 H 0.7494 0.87343 0.63838 0.0
H491 H 0.75677 0.9377 0.54851 0.0
H492 H 0.66986 0.76608 0.58575 0.0
H493 H 0.6192 0.91099 0.45002 0.0
H494 H 0.63488 0.75503 0.52993 0.0
H495 H 0.58847 0.90137 0.51667 0.0
O496 O 0.7139 0.83294 0.51017 0.0
H497 H 0.73734 0.92741 0.37222 0.0
H498 H 0.77584 0.88246 0.51344 0.0
H499 H 0.7996 0.89026 0.4356 0.0
H500 H 0.78036 0.91296 0.3643 0.0
H501 H 0.71413 0.91887 0.45046 0.0
H502 H 0.79031 0.95237 0.60339 0.0
H503 H 0.8037 0.92707 0.67664 0.0
O504 O 0.73918 0.85939 0.54904 0.0
C505 C 0.69124 0.86771 0.62107 0.0
C506 C 0.77738 0.89849 0.66214 0.0
C507 C 0.78146 0.93501 0.61131 0.0
N508 N 0.75123 0.90465 0.59007 0.0
C509 C 0.75841 0.89069 0.63043 0.0
C510 C 0.7624 0.92663 0.58045 0.0
C511 C 0.78897 0.9208 0.65239 0.0
C512 C 0.64525 0.88437 0.47744 0.0
N513 N 0.65022 0.86683 0.51297 0.0
C514 C 0.623 0.89706 0.47817 0.0
C515 C 0.60579 0.89167 0.51562 0.0
C516 C 0.61099 0.87375 0.55174 0.0
C517 C 0.63344 0.86147 0.54986 0.0
C518 C 0.6352 0.78963 0.49064 0.0
C519 C 0.67413 0.80206 0.55293 0.0
C520 C 0.64663 0.8125 0.48675 0.0
N521 N 0.66574 0.81849 0.51789 0.0
C522 C 0.66316 0.77902 0.55789 0.0
C523 C 0.64355 0.77282 0.52651 0.0
C524 C 0.73457 0.83837 0.52977 0.0
C525 C 0.74594 0.91754 0.40305 0.0
C526 C 0.76726 0.89214 0.48248 0.0
C527 C 0.78085 0.89662 0.43855 0.0
C528 C 0.77006 0.90939 0.39859 0.0
N529 N 0.74359 0.90014 0.48656 0.0
C530 C 0.73292 0.91274 0.44757 0.0
Co531 Co 0.16558 0.68693 0.51071 0.0
Co532 Co 0.12293 0.73028 0.54652 0.0
O533 O 0.13369 0.7031 0.50368 0.0
C534 C 0.16297 0.70174 0.40299 0.0
O535 O 0.15525 0.72311 0.41947 0.0
C536 C 0.07983 0.69565 0.549 0.0
O537 O 0.09456 0.67737 0.56018 0.0
O538 O 0.13033 0.71075 0.60895 0.0
O539 O 0.16345 0.68854 0.58702 0.0
H540 H 0.12951 0.78878 0.69309 0.0
H541 H 0.12667 0.66407 0.4481 0.0
O542 O 0.16832 0.68483 0.43454 0.0
H543 H 0.1459 0.6032 0.58057 0.0
H544 H 0.23005 0.62472 0.4644 0.0
H545 H 0.20927 0.69446 0.57563 0.0
H546 H 0.16804 0.64263 0.57706 0.0
H547 H 0.18975 0.64506 0.45778 0.0
O548 O 0.08833 0.71734 0.54458 0.0
H549 H 0.14312 0.75509 0.63727 0.0
H550 H 0.07865 0.76258 0.54828 0.0
H551 H 0.2497 0.67453 0.58385 0.0
H552 H 0.1042 0.62477 0.44994 0.0
H553 H 0.2603 0.6394 0.52794 0.0
H554 H 0.11374 0.59404 0.51662 0.0
O555 O 0.18305 0.71908 0.50897 0.0
H556 H 0.0882 0.74287 0.37197 0.0
H557 H 0.13375 0.78147 0.51233 0.0
H558 H 0.12574 0.80517 0.43452 0.0
H559 H 0.10275 0.78589 0.36365 0.0
H560 H 0.09697 0.71972 0.45015 0.0
H561 H 0.06427 0.79622 0.60334 0.0
H562 H 0.08982 0.80959 0.67625 0.0
O563 O 0.15689 0.74478 0.54763 0.0
C564 C 0.1483 0.69663 0.62014 0.0
C565 C 0.11825 0.78317 0.66135 0.0
C566 C 0.08162 0.78732 0.61102 0.0
N567 N 0.11179 0.75699 0.58937 0.0
C568 C 0.12589 0.76415 0.62954 0.0
C569 C 0.08983 0.76822 0.58005 0.0
C570 C 0.09597 0.79482 0.65191 0.0
C571 C 0.13105 0.6507 0.47697 0.0
N572 N 0.1487 0.6556 0.51231 0.0
C573 C 0.11822 0.62852 0.47793 0.0
C574 C 0.12356 0.6113 0.5154 0.0
C575 C 0.14158 0.61643 0.55131 0.0
C576 C 0.15402 0.63882 0.54922 0.0
C577 C 0.22563 0.63998 0.48904 0.0
C578 C 0.2137 0.67908 0.55143 0.0
C579 C 0.20287 0.65159 0.4854 0.0
N580 N 0.19712 0.67079 0.51659 0.0
C581 C 0.23664 0.66792 0.55614 0.0
C582 C 0.24259 0.64822 0.52472 0.0
C583 C 0.17783 0.73991 0.52823 0.0
C584 C 0.09821 0.7515 0.4026 0.0
C585 C 0.12395 0.77287 0.48154 0.0
C586 C 0.11935 0.78643 0.43764 0.0
C587 C 0.10641 0.77561 0.39793 0.0
N588 N 0.11592 0.7492 0.48582 0.0
C589 C 0.10314 0.73851 0.44708 0.0
Co590 Co 0.33938 0.16177 0.50097 0.0
Co591 Co 0.29262 0.12605 0.55105 0.0
O592 O 0.31855 0.13233 0.50106 0.0
C593 C 0.31721 0.16192 0.39952 0.0
O594 O 0.2963 0.15568 0.42051 0.0
C595 C 0.32124 0.07827 0.54347 0.0
O596 O 0.34153 0.09019 0.53309 0.0
O597 O 0.31558 0.1338 0.60857 0.0
O598 O 0.34267 0.1604 0.57556 0.0
H599 H 0.24286 0.14521 0.70633 0.0
H600 H 0.35237 0.12064 0.4325 0.0
O601 O 0.33649 0.1643 0.4261 0.0
H602 H 0.42333 0.13021 0.54665 0.0
H603 H 0.40636 0.21638 0.43341 0.0
H604 H 0.34262 0.20657 0.56455 0.0
H605 H 0.38744 0.15745 0.55452 0.0
H606 H 0.38031 0.17937 0.43525 0.0
O607 O 0.30167 0.09006 0.55426 0.0
H608 H 0.27465 0.15263 0.64154 0.0
H609 H 0.25596 0.08595 0.5676 0.0
H610 H 0.36838 0.24378 0.56436 0.0
H611 H 0.38805 0.0932 0.42282 0.0
H612 H 0.40053 0.24886 0.49842 0.0
H613 H 0.42381 0.09783 0.48033 0.0
O614 O 0.31042 0.18374 0.50771 0.0
H615 H 0.26901 0.08746 0.38485 0.0
H616 H 0.24087 0.13938 0.52649 0.0
H617 H 0.2129 0.13105 0.45512 0.0
H618 H 0.22691 0.10485 0.38365 0.0
H619 H 0.29648 0.09659 0.45656 0.0
H620 H 0.22413 0.07769 0.63181 0.0
H621 H 0.21735 0.1075 0.70171 0.0
O622 O 0.28156 0.16131 0.54724 0.0
C623 C 0.33354 0.1488 0.61286 0.0
C624 C 0.2456 0.13211 0.67601 0.0
C625 C 0.23513 0.09419 0.63424 0.0
N626 N 0.26712 0.11978 0.60076 0.0
C627 C 0.26354 0.13623 0.63916 0.0
C628 C 0.25326 0.09891 0.59811 0.0
C629 C 0.23132 0.11093 0.67343 0.0
C630 C 0.36797 0.12293 0.4573 0.0
N631 N 0.36781 0.14062 0.49402 0.0
C632 C 0.38807 0.10727 0.4518 0.0
C633 C 0.40811 0.10985 0.48414 0.0
C634 C 0.40784 0.12798 0.52141 0.0
C635 C 0.38741 0.14329 0.52584 0.0
C636 C 0.39245 0.21435 0.46241 0.0
C637 C 0.35667 0.20858 0.53593 0.0
C638 C 0.37763 0.19346 0.4636 0.0
N639 N 0.36009 0.19073 0.50023 0.0
C640 C 0.37116 0.22972 0.53593 0.0
C641 C 0.38918 0.23257 0.4989 0.0
C642 C 0.2893 0.18135 0.52772 0.0
C643 C 0.26268 0.09888 0.41578 0.0
C644 C 0.24718 0.12816 0.49533 0.0
C645 C 0.23121 0.12339 0.45514 0.0
C646 C 0.23907 0.10867 0.41509 0.0
N647 N 0.27034 0.11858 0.49569 0.0
C648 C 0.27813 0.10404 0.45663 0.0
Co649 Co 0.84818 0.3338 0.50957 0.0
Co650 Co 0.89203 0.29141 0.54712 0.0
O651 O 0.88071 0.31834 0.50352 0.0
C652 C 0.85103 0.31868 0.40158 0.0
O653 O 0.85969 0.29764 0.41783 0.0
C654 C 0.93713 0.32366 0.52901 0.0
O655 O 0.92471 0.33859 0.49973 0.0
O656 O 0.88275 0.31041 0.60915 0.0
O657 O 0.84989 0.3326 0.58592 0.0
H658 H 0.88387 0.23241 0.69247 0.0
H659 H 0.88542 0.35816 0.44494 0.0
O660 O 0.84546 0.33547 0.43329 0.0
H661 H 0.86533 0.41833 0.57833 0.0
H662 H 0.78225 0.39408 0.46131 0.0
H663 H 0.80436 0.32527 0.57375 0.0
H664 H 0.84487 0.378 0.57618 0.0
H665 H 0.82312 0.37487 0.45572 0.0
O666 O 0.92656 0.30558 0.55096 0.0
H667 H 0.87042 0.26555 0.63521 0.0
H668 H 0.93753 0.2609 0.55389 0.0
H669 H 0.76336 0.34408 0.5809 0.0
H670 H 0.90611 0.39842 0.44525 0.0
H671 H 0.75208 0.37874 0.52439 0.0
H672 H 0.89616 0.4288 0.51243 0.0
O673 O 0.83159 0.30125 0.50824 0.0
H674 H 0.92674 0.27891 0.37122 0.0
H675 H 0.88549 0.23935 0.51588 0.0
H676 H 0.89526 0.21491 0.44013 0.0
H677 H 0.91622 0.23461 0.3671 0.0
H678 H 0.91619 0.30269 0.44699 0.0
H679 H 0.95179 0.22788 0.61059 0.0
H680 H 0.92483 0.21334 0.68034 0.0
O681 O 0.85861 0.2757 0.54464 0.0
C682 C 0.86456 0.32434 0.61967 0.0
C683 C 0.89575 0.23853 0.66212 0.0
C684 C 0.93389 0.23602 0.61623 0.0
N685 N 0.90309 0.26505 0.59104 0.0
C686 C 0.88821 0.25723 0.62948 0.0
C687 C 0.92575 0.25479 0.58436 0.0
C688 C 0.91875 0.22786 0.65533 0.0
C689 C 0.8809 0.37133 0.47413 0.0
N690 N 0.86407 0.36566 0.51067 0.0
C691 C 0.89272 0.39408 0.47419 0.0
C692 C 0.88715 0.4111 0.51193 0.0
C693 C 0.86989 0.40522 0.54896 0.0
C694 C 0.85846 0.38229 0.54772 0.0
C695 C 0.78697 0.37903 0.48622 0.0
C696 C 0.79964 0.34046 0.54928 0.0
C697 C 0.81006 0.36805 0.48317 0.0
N698 N 0.81618 0.3491 0.51468 0.0
C699 C 0.77638 0.35099 0.55339 0.0
C700 C 0.77005 0.37042 0.52163 0.0
C701 C 0.83745 0.28033 0.52608 0.0
C702 C 0.91788 0.27002 0.40304 0.0
C703 C 0.89463 0.24815 0.48447 0.0
C704 C 0.90014 0.23416 0.44158 0.0
C705 C 0.91189 0.24521 0.40066 0.0
N706 N 0.9008 0.27246 0.48696 0.0
C707 C 0.9121 0.28342 0.4466 0.0
Co708 Co 0.67449 0.16757 0.50207 0.0
Co709 Co 0.72301 0.12837 0.47476 0.0
O710 O 0.6936 0.13741 0.51378 0.0
C711 C 0.68792 0.17098 0.60986 0.0
O712 O 0.70991 0.16321 0.59753 0.0
C713 C 0.69364 0.08069 0.48434 0.0
O714 O 0.67379 0.09245 0.49842 0.0
O715 O 0.70542 0.13464 0.40907 0.0
O716 O 0.67716 0.1632 0.42778 0.0
H717 H 0.78565 0.14045 0.33737 0.0
H718 H 0.65398 0.13009 0.5716 0.0
O719 O 0.6713 0.1731 0.57641 0.0
H720 H 0.59395 0.13724 0.43264 0.0
H721 H 0.6056 0.22695 0.53564 0.0
H722 H 0.67861 0.20962 0.43121 0.0
H723 H 0.63135 0.16265 0.43304 0.0
H724 H 0.62971 0.18924 0.54933 0.0
O725 O 0.71298 0.09257 0.47222 0.0
H726 H 0.74928 0.15106 0.38853 0.0
H727 H 0.75878 0.08669 0.47713 0.0
H728 H 0.6549 0.24744 0.41595 0.0
H729 H 0.6166 0.10459 0.57313 0.0
H730 H 0.6181 0.25631 0.4684 0.0
H731 H 0.58633 0.108 0.50315 0.0
O732 O 0.70465 0.18823 0.50211 0.0
H733 H 0.73064 0.09621 0.65293 0.0
H734 H 0.77276 0.14032 0.515 0.0
H735 H 0.79407 0.134 0.59631 0.0
H736 H 0.77301 0.1117 0.66599 0.0
H737 H 0.7099 0.10334 0.5714 0.0
H738 H 0.79506 0.07524 0.42659 0.0
H739 H 0.80879 0.10227 0.35627 0.0
O740 O 0.73512 0.16323 0.47731 0.0
C741 C 0.68862 0.14981 0.39621 0.0
C742 C 0.77988 0.12854 0.36797 0.0
C743 C 0.78513 0.09192 0.41798 0.0
N744 N 0.75195 0.11957 0.43587 0.0
C745 C 0.75934 0.13449 0.39714 0.0
C746 C 0.7645 0.09844 0.44632 0.0
C747 C 0.79284 0.10711 0.37856 0.0
C748 C 0.64078 0.13185 0.54128 0.0
N749 N 0.64489 0.1478 0.50224 0.0
C750 C 0.6197 0.11728 0.54223 0.0
C751 C 0.60274 0.11917 0.50291 0.0
C752 C 0.60702 0.13555 0.4633 0.0
C753 C 0.62831 0.1498 0.46359 0.0
C754 C 0.62157 0.22327 0.51248 0.0
C755 C 0.66254 0.21328 0.454 0.0
C756 C 0.63532 0.20197 0.52012 0.0
N757 N 0.65545 0.19715 0.49085 0.0
C758 C 0.64922 0.23476 0.44527 0.0
C759 C 0.62859 0.23973 0.47474 0.0
C760 C 0.72697 0.18431 0.49023 0.0
C761 C 0.74004 0.1059 0.62283 0.0
C762 C 0.76338 0.13084 0.54524 0.0
C763 C 0.77559 0.12717 0.59114 0.0
C764 C 0.76379 0.11464 0.63017 0.0
N765 N 0.74007 0.12225 0.53825 0.0
C766 C 0.72842 0.10988 0.57638 0.0
Co767 Co 0.84939 0.67703 0.50354 0.0
Co768 Co 0.88766 0.72639 0.47668 0.0
O769 O 0.87915 0.69674 0.51541 0.0
C770 C 0.84558 0.69085 0.61091 0.0
O771 O 0.85297 0.7129 0.59803 0.0
C772 C 0.93568 0.69767 0.48527 0.0
O773 O 0.92421 0.67753 0.49866 0.0
O774 O 0.88158 0.70884 0.4109 0.0
O775 O 0.85389 0.67964 0.4293 0.0
H776 H 0.87442 0.78913 0.33997 0.0
H777 H 0.88704 0.65738 0.57366 0.0
O778 O 0.84376 0.67398 0.57787 0.0
H779 H 0.88141 0.59689 0.43503 0.0
H780 H 0.79129 0.60704 0.53725 0.0
H781 H 0.8075 0.6801 0.43212 0.0
H782 H 0.85533 0.63384 0.43486 0.0
H783 H 0.82846 0.63195 0.55108 0.0
O784 O 0.92355 0.71695 0.47384 0.0
H785 H 0.86445 0.75247 0.39086 0.0
H786 H 0.92873 0.76286 0.47918 0.0
H787 H 0.77021 0.65559 0.41671 0.0
H788 H 0.91321 0.62047 0.57575 0.0
H789 H 0.76191 0.61877 0.46951 0.0
H790 H 0.91056 0.58998 0.50593 0.0
O791 O 0.82812 0.70677 0.50305 0.0
H792 H 0.91996 0.73426 0.65467 0.0
H793 H 0.87483 0.77584 0.51754 0.0
H794 H 0.88091 0.79711 0.59904 0.0
H795 H 0.9037 0.77633 0.66831 0.0
H796 H 0.9131 0.71354 0.57294 0.0
H797 H 0.93954 0.79945 0.42891 0.0
H798 H 0.91222 0.81287 0.35887 0.0
O799 O 0.85266 0.73788 0.47958 0.0
C800 C 0.86692 0.69161 0.39787 0.0
C801 C 0.88644 0.78349 0.37046 0.0
C802 C 0.92301 0.78926 0.42031 0.0
N803 N 0.89593 0.75557 0.43805 0.0
C804 C 0.88086 0.76279 0.39948 0.0
C805 C 0.91685 0.76845 0.4485 0.0
C806 C 0.90767 0.79679 0.38105 0.0
C807 C 0.88561 0.64407 0.54342 0.0
N808 N 0.8697 0.6478 0.50417 0.0
C809 C 0.90055 0.62326 0.54468 0.0
C810 C 0.89909 0.60618 0.50546 0.0
C811 C 0.88276 0.61007 0.46562 0.0
C812 C 0.86813 0.6311 0.4656 0.0
C813 C 0.79472 0.62302 0.51393 0.0
C814 C 0.80409 0.66402 0.45506 0.0
C815 C 0.81572 0.63722 0.52165 0.0
N816 N 0.82024 0.65736 0.49219 0.0
C817 C 0.78291 0.65025 0.44625 0.0
C818 C 0.77825 0.62961 0.47591 0.0
C819 C 0.83171 0.72923 0.49179 0.0
C820 C 0.91006 0.74355 0.62474 0.0
C821 C 0.88457 0.76659 0.54758 0.0
C822 C 0.88808 0.77878 0.5936 0.0
C823 C 0.90089 0.76712 0.63241 0.0
N824 N 0.89358 0.74344 0.54029 0.0
C825 C 0.90622 0.73194 0.57818 0.0
Co826 Co 0.34032 0.85165 0.52069 0.0
Co827 Co 0.29519 0.89016 0.47383 0.0
O828 O 0.32077 0.88178 0.52286 0.0
C829 C 0.31824 0.85087 0.62243 0.0
O830 O 0.29751 0.85809 0.60204 0.0
C831 C 0.32822 0.93443 0.47489 0.0
O832 O 0.34736 0.91999 0.47018 0.0
O833 O 0.31742 0.88201 0.41521 0.0
O834 O 0.34384 0.85422 0.44627 0.0
H835 H 0.24324 0.87652 0.31923 0.0
H836 H 0.35412 0.89211 0.59003 0.0
O837 O 0.33732 0.84807 0.59539 0.0
H838 H 0.42576 0.88036 0.47848 0.0
H839 H 0.40479 0.79314 0.58439 0.0
H840 H 0.34186 0.80796 0.4537 0.0
H841 H 0.38915 0.85416 0.46949 0.0
H842 H 0.38033 0.83122 0.58522 0.0
O843 O 0.30665 0.92539 0.47396 0.0
H844 H 0.27486 0.86606 0.38252 0.0
H845 H 0.26166 0.93307 0.46022 0.0
H846 H 0.36606 0.76973 0.45117 0.0
H847 H 0.39044 0.91862 0.60068 0.0
H848 H 0.39778 0.76213 0.51688 0.0
H849 H 0.42656 0.91287 0.54452 0.0
O850 O 0.31037 0.83106 0.51222 0.0
H851 H 0.27418 0.92783 0.64239 0.0
H852 H 0.24296 0.87908 0.49873 0.0
H853 H 0.2157 0.88791 0.5711 0.0
H854 H 0.23128 0.91251 0.64359 0.0
H855 H 0.3009 0.91826 0.56959 0.0
H856 H 0.23003 0.94433 0.3976 0.0
H857 H 0.22058 0.9159 0.32659 0.0
O858 O 0.28226 0.85551 0.47536 0.0
C859 C 0.33495 0.86659 0.4098 0.0
C860 C 0.24714 0.88902 0.35009 0.0
C861 C 0.23976 0.9271 0.39403 0.0
N862 N 0.26998 0.89885 0.42517 0.0
C863 C 0.26497 0.88317 0.3861 0.0
C864 C 0.25774 0.92065 0.42929 0.0
C865 C 0.23445 0.91113 0.35421 0.0
C866 C 0.36984 0.88938 0.56571 0.0
N867 N 0.36951 0.8716 0.52917 0.0
C868 C 0.39032 0.90449 0.57181 0.0
C869 C 0.41057 0.90128 0.54025 0.0
C870 C 0.41012 0.88306 0.50315 0.0
C871 C 0.3893 0.86833 0.4981 0.0
C872 C 0.39105 0.79627 0.55549 0.0
C873 C 0.35575 0.80485 0.48223 0.0
C874 C 0.37711 0.81777 0.55583 0.0
N875 N 0.35981 0.82188 0.51932 0.0
C876 C 0.36934 0.78314 0.48068 0.0
C877 C 0.38712 0.77887 0.51759 0.0
C878 C 0.28923 0.83478 0.49301 0.0
C879 C 0.26718 0.91709 0.61105 0.0
C880 C 0.24994 0.88958 0.53035 0.0
C881 C 0.23438 0.89464 0.5711 0.0
C882 C 0.24312 0.90846 0.61172 0.0
N883 N 0.27355 0.89798 0.53005 0.0
C884 C 0.2822 0.91166 0.56964 0.0
Co885 Co 0.1725 0.33415 0.49876 0.0
Co886 Co 0.12754 0.29178 0.46781 0.0
O887 O 0.13999 0.3191 0.50936 0.0
C888 C 0.17346 0.32235 0.60812 0.0
O889 O 0.16383 0.30084 0.5978 0.0
C890 C 0.0827 0.32402 0.48916 0.0
O891 O 0.09541 0.33899 0.51787 0.0
O892 O 0.1353 0.31023 0.40413 0.0
O893 O 0.1693 0.33126 0.42396 0.0
H894 H 0.13227 0.23147 0.32403 0.0
H895 H 0.13637 0.35994 0.56343 0.0
O896 O 0.17715 0.33792 0.57315 0.0
H897 H 0.15473 0.41745 0.4242 0.0
H898 H 0.23991 0.39517 0.53315 0.0
H899 H 0.21494 0.32315 0.43229 0.0
H900 H 0.17524 0.37722 0.42864 0.0
H901 H 0.19902 0.37665 0.54478 0.0
O902 O 0.09302 0.30597 0.46664 0.0
H903 H 0.14706 0.2651 0.37869 0.0
H904 H 0.08187 0.26131 0.46658 0.0
H905 H 0.25592 0.34123 0.41914 0.0
H906 H 0.11564 0.40015 0.56092 0.0
H907 H 0.26864 0.3775 0.46981 0.0
H908 H 0.1247 0.42918 0.49078 0.0
O909 O 0.18869 0.30141 0.50218 0.0
H910 H 0.09751 0.28095 0.64781 0.0
H911 H 0.13446 0.2399 0.49996 0.0
H912 H 0.12641 0.21612 0.5774 0.0
H913 H 0.10761 0.23657 0.65206 0.0
H914 H 0.10629 0.30406 0.57026 0.0
H915 H 0.06628 0.22782 0.41254 0.0
H916 H 0.0916 0.2126 0.34082 0.0
O917 O 0.16093 0.27598 0.46771 0.0
C918 C 0.1537 0.32351 0.39192 0.0
C919 C 0.1211 0.23789 0.35526 0.0
C920 C 0.08404 0.23587 0.40488 0.0
N921 N 0.11543 0.26505 0.42598 0.0
C922 C 0.12941 0.25687 0.38643 0.0
C923 C 0.09293 0.25491 0.43523 0.0
C924 C 0.09827 0.22733 0.36467 0.0
C925 C 0.14046 0.3725 0.53288 0.0
N926 N 0.1568 0.3661 0.49592 0.0
C927 C 0.12864 0.39524 0.53162 0.0
C928 C 0.13372 0.4115 0.49224 0.0
C929 C 0.15053 0.40491 0.45482 0.0
C930 C 0.16197 0.38202 0.45732 0.0
C931 C 0.23456 0.3794 0.51077 0.0
C932 C 0.22028 0.33903 0.45425 0.0
C933 C 0.21144 0.3688 0.51725 0.0
N934 N 0.20452 0.34895 0.48896 0.0
C935 C 0.24354 0.34914 0.44674 0.0
C936 C 0.25067 0.36948 0.47521 0.0
C937 C 0.18228 0.28038 0.48556 0.0
C938 C 0.10541 0.27173 0.61531 0.0
C939 C 0.12621 0.24902 0.53204 0.0
C940 C 0.1217 0.2354 0.57591 0.0
C941 C 0.11116 0.24687 0.61775 0.0
N942 N 0.12019 0.27337 0.52947 0.0
C943 C 0.11017 0.28475 0.57076 0.0
H944 H 0.22393 0.55253 0.01287 0.0
H945 H 0.1543 0.55462 0.93549 0.0
H946 H 0.14936 0.51035 0.94873 0.0
H947 H 0.1655 0.47061 0.98061 0.0
H948 H 0.23464 0.46979 0.06044 0.0
H949 H 0.23887 0.5138 0.04816 0.0
C950 C 0.20767 0.54335 0.99867 0.0
C951 C 0.18966 0.55695 0.97263 0.0
C952 C 0.20479 0.51799 1.00704 0.0
C953 C 0.16854 0.54467 0.9554 0.0
C954 C 0.1657 0.51931 0.96302 0.0
C955 C 0.18138 0.48007 0.99575 0.0
C956 C 0.19981 0.46659 0.02109 0.0
C957 C 0.18376 0.50571 0.98866 0.0
C958 C 0.22022 0.47939 0.0404 0.0
C959 C 0.22271 0.50468 0.03337 0.0
H960 H 0.46424 0.22157 1.00131 0.0
H961 H 0.46108 0.1458 0.95433 0.0
H962 H 0.50499 0.14129 0.9718 0.0
H963 H 0.54471 0.15922 0.99938 0.0
H964 H 0.54658 0.23478 0.0488 0.0
H965 H 0.50297 0.23882 0.03176 0.0
C966 C 0.47311 0.20405 0.99458 0.0
C967 C 0.45929 0.18413 0.97591 0.0
C968 C 0.49828 0.20148 1.00544 0.0
C969 C 0.47119 0.1615 0.96837 0.0
C970 C 0.49635 0.1589 0.97845 0.0
C971 C 0.53556 0.17652 1.00682 0.0
C972 C 0.54923 0.19669 0.02516 0.0
C973 C 0.51014 0.17879 0.99698 0.0
C974 C 0.53684 0.21893 0.03446 0.0
C975 C 0.51177 0.22131 0.02464 0.0
H976 H 0.85076 0.47025 0.03064 0.0
H977 H 0.78289 0.47048 0.94626 0.0
H978 H 0.77922 0.51458 0.95818 0.0
H979 H 0.79414 0.55303 0.99488 0.0
H980 H 0.86237 0.55396 0.07753 0.0
H981 H 0.86698 0.5097 0.06384 0.0
C982 C 0.8353 0.47997 0.01438 0.0
C983 C 0.81704 0.46678 0.98787 0.0
C984 C 0.83322 0.50563 0.02138 0.0
C985 C 0.79716 0.47988 0.96718 0.0
C986 C 0.795 0.50521 0.974 0.0
C987 C 0.81005 0.54361 0.01005 0.0
C988 C 0.82775 0.55688 0.03773 0.0
C989 C 0.8127 0.51823 1.0016 0.0
C990 C 0.84839 0.54428 0.05629 0.0
C991 C 0.85104 0.51892 0.04845 0.0
H992 H 0.54564 0.85608 0.02667 0.0
H993 H 0.54515 0.78441 0.95655 0.0
H994 H 0.50149 0.7806 0.97281 0.0
H995 H 0.46355 0.79652 0.0094 0.0
H996 H 0.4624 0.86869 0.07649 0.0
H997 H 0.50636 0.87334 0.05891 0.0
C998 C 0.53595 0.83974 0.01448 0.0
C999 C 0.549 0.82046 0.99081 0.0
C1000 C 0.51047 0.83762 0.02376 0.0
C1001 C 0.53591 0.79948 0.97525 0.0
C1002 C 0.51081 0.79723 0.98457 0.0
C1003 C 0.47286 0.8133 0.02034 0.0
C1004 C 0.45966 0.83211 0.04486 0.0
C1005 C 0.49797 0.81599 0.0094 0.0
C1006 C 0.47206 0.85386 0.05781 0.0
C1007 C 0.49724 0.85652 0.04774 0.0
H1008 H 0.65959 0.0486 0.52421 0.0
H1009 H 0.73128 0.05102 0.45466 0.0
H1010 H 0.73629 1.00722 0.46873 0.0
H1011 H 0.72133 0.96835 0.50312 0.0
H1012 H 0.64944 0.96465 0.571 0.0
H1013 H 0.64357 0.00861 0.55515 0.0
C1014 C 0.6762 0.03952 0.51166 0.0
C1015 C 0.69509 0.05338 0.48868 0.0
C1016 C 0.67907 0.01402 0.51991 0.0
C1017 C 0.71647 0.0411 0.47277 0.0
C1018 C 0.71941 0.01594 0.48085 0.0
C1019 C 0.70435 0.97709 0.51463 0.0
C1020 C 0.68597 0.96314 0.5388 0.0
C1021 C 0.70101 1.00227 0.50494 0.0
C1022 C 0.66397 0.97487 0.55257 0.0
C1023 C 0.6606 1.00005 0.54348 0.0
H1024 H 0.96819 0.66389 0.52449 0.0
H1025 H 0.9648 0.73583 0.4561 0.0
H1026 H 0.00852 0.74138 0.47005 0.0
H1027 H 0.04758 0.72678 0.50397 0.0
H1028 H 0.05221 0.65467 0.57076 0.0
H1029 H 0.00836 0.64829 0.55506 0.0
C1030 C 0.97704 0.68068 0.51216 0.0
C1031 C 0.96294 0.69947 0.48954 0.0
C1032 C 1.00248 0.68385 0.52037 0.0
C1033 C 0.97492 0.72108 0.47394 0.0
C1034 C 1.00003 0.72433 0.48194 0.0
C1035 C 0.03906 0.70964 0.51529 0.0
C1036 C 0.05324 0.69134 0.53909 0.0
C1037 C 0.01393 0.70601 0.50569 0.0
C1038 C 0.04181 0.66914 0.55263 0.0
C1039 C 0.01668 0.66548 0.54361 0.0
H1040 H 0.35709 0.04636 0.5101 0.0
H1041 H 0.28178 0.04861 0.5607 0.0
H1042 H 0.27733 1.00507 0.54298 0.0
H1043 H 0.29412 0.96632 0.51144 0.0
H1044 H 0.3696 0.96275 0.46308 0.0
H1045 H 0.37457 1.00658 0.48144 0.0
C1046 C 0.33977 0.03729 0.51771 0.0
C1047 C 0.3198 0.05104 0.53667 0.0
C1048 C 0.33725 0.01192 0.50739 0.0
C1049 C 0.29751 0.03879 0.54607 0.0
C1050 C 0.29488 0.01376 0.5358 0.0
C1051 C 0.31167 0.97509 0.50461 0.0
C1052 C 0.33138 0.96119 0.48528 0.0
C1053 C 0.3145 1.00019 0.51599 0.0
C1054 C 0.35406 0.97294 0.47762 0.0
C1055 C 0.35692 0.99804 0.48821 0.0
H1056 H 0.05173 0.3257 0.56959 0.0
H1057 H 0.053 0.32552 0.40633 0.0
H1058 H 0.00804 0.32734 0.40427 0.0
H1059 H 0.96819 0.32775 0.44917 0.0
H1060 H 0.96683 0.32237 0.61206 0.0
H1061 H 0.01181 0.32398 0.61439 0.0
C1062 C 0.04208 0.32632 0.53365 0.0
C1063 C 0.05559 0.32596 0.48811 0.0
C1064 C 0.0162 0.32629 0.53287 0.0
C1065 C 0.04296 0.32605 0.44177 0.0
C1066 C 0.01727 0.32705 0.44064 0.0
C1067 C 0.9778 0.3272 0.48515 0.0
C1068 C 0.96427 0.32542 0.53051 0.0
C1069 C 1.00368 0.32706 0.48594 0.0
C1070 C 0.97689 0.32398 0.57678 0.0
C1071 C 1.00259 0.32487 0.57806 0.0
H1072 H 0.23497 0.28865 0.99462 0.0
H1073 H 0.28668 0.34362 0.0449 0.0
H1074 H 0.32021 0.31478 0.03438 0.0
H1075 H 0.33526 0.27393 0.01164 0.0
H1076 H 0.28414 0.21748 0.96833 0.0
H1077 H 0.25012 0.24676 0.97542 0.0
C1078 C 0.25355 0.29433 1.00337 0.0
C1079 C 0.25812 0.31858 0.01976 0.0
C1080 C 0.27298 0.27736 0.99827 0.0
C1081 C 0.28241 0.32534 0.0315 0.0
C1082 C 0.30174 0.3088 0.02556 0.0
C1083 C 0.31676 0.26814 1.00292 0.0
C1084 C 0.31232 0.24373 0.98836 0.0
C1085 C 0.29729 0.28483 0.00869 0.0
C1086 C 0.28805 0.23626 0.97908 0.0
C1087 C 0.2686 0.25299 0.98328 0.0
H1088 H 0.77887 0.28988 0.021 0.0
H1089 H 0.72868 0.34462 0.96374 0.0
H1090 H 0.69479 0.31605 0.97215 0.0
H1091 H 0.67897 0.27574 0.99595 0.0
H1092 H 0.72857 0.21942 0.04686 0.0
H1093 H 0.763 0.24825 0.04061 0.0
C1094 C 0.76054 0.29556 0.01026 0.0
C1095 C 0.75648 0.3197 0.9926 0.0
C1096 C 0.74092 0.27874 0.01418 0.0
C1097 C 0.73254 0.32645 0.97822 0.0
C1098 C 0.71301 0.31005 0.98291 0.0
C1099 C 0.69722 0.2698 1.00618 0.0
C1100 C 0.70105 0.24557 0.02266 0.0
C1101 C 0.71693 0.28625 1.00118 0.0
C1102 C 0.72506 0.23802 0.03434 0.0
C1103 C 0.74476 0.25451 0.03073 0.0
H1104 H 0.74039 0.68309 0.9963 0.0
H1105 H 0.79583 0.73292 0.05046 0.0
H1106 H 0.76683 0.76717 0.04412 0.0
H1107 H 0.72538 0.78285 0.02333 0.0
H1108 H 0.67149 0.73261 0.96274 0.0
H1109 H 0.70017 0.69881 0.97139 0.0
C1110 C 0.74608 0.70135 1.00725 0.0
C1111 C 0.77012 0.70531 0.02465 0.0
C1112 C 0.72955 0.72099 1.00213 0.0
C1113 C 0.77737 0.72933 0.03725 0.0
C1114 C 0.76079 0.74892 0.03357 0.0
C1115 C 0.7199 0.76454 0.01189 0.0
C1116 C 0.69598 0.76042 0.99322 0.0
C1117 C 0.73678 0.74499 0.01598 0.0
C1118 C 0.6895 0.7365 0.97799 0.0
C1119 C 0.70595 0.71703 0.98283 0.0
H1120 H 0.27395 0.68446 0.03641 0.0
H1121 H 0.22135 0.7312 0.96229 0.0
H1122 H 0.24944 0.76615 0.96991 0.0
H1123 H 0.28927 0.78319 0.99671 0.0
H1124 H 0.34036 0.73678 0.0771 0.0
H1125 H 0.31257 0.70207 0.06814 0.0
C1126 C 0.26879 0.70223 0.02145 0.0
C1127 C 0.24586 0.70517 0.99787 0.0
C1128 C 0.28473 0.72235 0.02734 0.0
C1129 C 0.23902 0.72849 0.98018 0.0
C1130 C 0.25506 0.74845 0.98461 0.0
C1131 C 0.29434 0.76553 0.01252 0.0
C1132 C 0.31725 0.76266 0.0367 0.0
C1133 C 0.278 0.7456 0.00809 0.0
C1134 C 0.32316 0.73962 0.05753 0.0
C1135 C 0.30722 0.71966 0.05248 0.0
H1136 H 0.83255 0.77641 0.52432 0.0
H1137 H 0.78343 0.72045 0.46959 0.0
H1138 H 0.74883 0.74902 0.47673 0.0
H1139 H 0.73272 0.79031 0.4978 0.0
H1140 H 0.78232 0.84479 0.55843 0.0
H1141 H 0.8164 0.81642 0.54973 0.0
C1142 C 0.81436 0.77051 0.51345 0.0
C1143 C 0.8107 0.74647 0.49559 0.0
C1144 C 0.79455 0.7868 0.5189 0.0
C1145 C 0.78679 0.73892 0.48314 0.0
C1146 C 0.767 0.75525 0.48726 0.0
C1147 C 0.75096 0.79598 0.50927 0.0
C1148 C 0.75482 0.81997 0.52795 0.0
C1149 C 0.77066 0.7793 0.50506 0.0
C1150 C 0.77864 0.82671 0.54322 0.0
C1151 C 0.79826 0.81044 0.53833 0.0
H1152 H 0.24154 0.83707 0.52134 0.0
H1153 H 0.29704 0.78637 0.47116 0.0
H1154 H 0.26765 0.75238 0.47743 0.0
H1155 H 0.22598 0.73716 0.49752 0.0
H1156 H 0.17189 0.78817 0.55439 0.0
H1157 H 0.20085 0.82179 0.54519 0.0
C1158 C 0.24709 0.81867 0.511 0.0
C1159 C 0.27126 0.81434 0.49469 0.0
C1160 C 0.23034 0.79918 0.51625 0.0
C1161 C 0.27845 0.79019 0.48329 0.0
C1162 C 0.26166 0.77076 0.487 0.0
C1163 C 0.2205 0.75561 0.508 0.0
C1164 C 0.19647 0.75998 0.52587 0.0
C1165 C 0.23752 0.77502 0.50358 0.0
C1166 C 0.18999 0.78408 0.53986 0.0
C1167 C 0.2066 0.80344 0.53466 0.0
H1168 H 0.2414 0.18065 0.50055 0.0
H1169 H 0.29939 0.22974 0.54521 0.0
H1170 H 0.27161 0.26489 0.53617 0.0
H1171 H 0.23064 0.28157 0.51513 0.0
H1172 H 0.17396 0.23193 0.46417 0.0
H1173 H 0.20136 0.19724 0.47606 0.0
C1174 C 0.24784 0.19897 0.50914 0.0
C1175 C 0.27225 0.20251 0.52468 0.0
C1176 C 0.232 0.21907 0.50232 0.0
C1177 C 0.28059 0.22652 0.53374 0.0
C1178 C 0.26472 0.24661 0.52843 0.0
C1179 C 0.22426 0.26319 0.50649 0.0
C1180 C 0.19998 0.25955 0.48943 0.0
C1181 C 0.24036 0.24312 0.51257 0.0
C1182 C 0.19231 0.2355 0.47793 0.0
C1183 C 0.20802 0.21552 0.48471 0.0
H1184 H 0.78863 0.28294 0.50095 0.0
H1185 H 0.84499 0.23154 0.54526 0.0
H1186 H 0.81635 0.19766 0.53546 0.0
H1187 H 0.77546 0.18233 0.514 0.0
H1188 H 0.71791 0.23326 0.47591 0.0
H1189 H 0.74681 0.26752 0.48349 0.0
C1190 C 0.79468 0.26434 0.50854 0.0
C1191 C 0.81921 0.25995 0.52312 0.0
C1192 C 0.77788 0.24478 0.50377 0.0
C1193 C 0.82645 0.23566 0.53342 0.0
C1194 C 0.81003 0.21616 0.52785 0.0
C1195 C 0.76922 0.20085 0.50696 0.0
C1196 C 0.74458 0.2051 0.49378 0.0
C1197 C 0.78576 0.22046 0.51274 0.0
C1198 C 0.73679 0.22941 0.48593 0.0
C1199 C 0.75331 0.24902 0.4903 0.0
H1200 H 0.18681 0.35636 0.3544 0.0
H1201 H 0.13038 0.30551 0.30745 0.0
H1202 H 0.13883 0.3154 0.21873 0.0
H1203 H 0.16295 0.33731 0.1552 0.0
H1204 H 0.21814 0.38955 0.20181 0.0
H1205 H 0.2092 0.38027 0.29074 0.0
C1206 C 0.17606 0.34759 0.32502 0.0
C1207 C 0.15785 0.33021 0.33793 0.0
C1208 C 0.18081 0.35357 0.27418 0.0
C1209 C 0.14439 0.31898 0.29888 0.0
C1210 C 0.14926 0.32461 0.2481 0.0
C1211 C 0.1729 0.34701 0.18455 0.0
C1212 C 0.1912 0.36425 0.17148 0.0
C1213 C 0.16751 0.34176 0.2354 0.0
C1214 C 0.20391 0.37633 0.21052 0.0
C1215 C 0.19885 0.37096 0.26139 0.0
H1216 H 0.65438 0.18074 0.35656 0.0
H1217 H 0.70821 0.12644 0.31303 0.0
H1218 H 0.69836 0.13349 0.22375 0.0
H1219 H 0.67571 0.15595 0.15869 0.0
H1220 H 0.62267 0.21105 0.2021 0.0
H1221 H 0.63101 0.20251 0.2915 0.0
C1222 C 0.66396 0.17025 0.32779 0.0
C1223 C 0.6821 0.15301 0.34184 0.0
C1224 C 0.65836 0.17454 0.27663 0.0
C1225 C 0.6942 0.13976 0.30358 0.0
C1226 C 0.68858 0.14382 0.25249 0.0
C1227 C 0.66576 0.16609 0.18747 0.0
C1228 C 0.64852 0.18421 0.17334 0.0
C1229 C 0.67085 0.1613 0.23866 0.0
C1230 C 0.63596 0.19702 0.21161 0.0
C1231 C 0.64078 0.19217 0.26277 0.0
H1232 H 0.83664 0.65693 0.35757 0.0
H1233 H 0.88968 0.71224 0.31517 0.0
H1234 H 0.88239 0.70308 0.22568 0.0
H1235 H 0.86 0.68072 0.16023 0.0
H1236 H 0.80606 0.62625 0.20232 0.0
H1237 H 0.81493 0.63381 0.29193 0.0
C1238 C 0.84681 0.66698 0.32898 0.0
C1239 C 0.86374 0.68534 0.34341 0.0
C1240 C 0.84234 0.66181 0.27769 0.0
C1241 C 0.8766 0.69804 0.30542 0.0
C1242 C 0.8724 0.69283 0.25421 0.0
C1243 C 0.85018 0.6703 0.18875 0.0
C1244 C 0.83228 0.65289 0.17423 0.0
C1245 C 0.85515 0.67493 0.24001 0.0
C1246 C 0.8199 0.6397 0.21216 0.0
C1247 C 0.82493 0.64406 0.26342 0.0
H1248 H 0.31628 0.87967 0.31718 0.0
H1249 H 0.37628 0.84053 0.38698 0.0
H1250 H 0.39078 0.82728 0.30444 0.0
H1251 H 0.3852 0.82435 0.2122 0.0
H1252 H 0.32461 0.86277 0.14267 0.0
H1253 H 0.31194 0.87851 0.22456 0.0
C1254 C 0.33273 0.86856 0.31433 0.0
C1255 C 0.34503 0.86121 0.35858 0.0
C1256 C 0.34091 0.86054 0.26645 0.0
C1257 C 0.36628 0.84659 0.35386 0.0
C1258 C 0.37464 0.83885 0.30648 0.0
C1259 C 0.36936 0.83632 0.21486 0.0
C1260 C 0.35598 0.84217 0.17098 0.0
C1261 C 0.36188 0.84532 0.2625 0.0
C1262 C 0.33542 0.85777 0.1755 0.0
C1263 C 0.32803 0.86687 0.22252 0.0
H1264 H 0.18206 0.66445 0.65964 0.0
H1265 H 0.1235 0.71335 0.7039 0.0
H1266 H 0.13061 0.70331 0.79284 0.0
H1267 H 0.15401 0.68154 0.85864 0.0
H1268 H 0.21247 0.63247 0.81459 0.0
H1269 H 0.20463 0.64162 0.72543 0.0
C1270 C 0.17072 0.67287 0.68858 0.0
C1271 C 0.15222 0.68971 0.67451 0.0
C1272 C 0.17487 0.66698 0.74002 0.0
C1273 C 0.13783 0.70032 0.71308 0.0
C1274 C 0.14191 0.6946 0.76418 0.0
C1275 C 0.16501 0.67267 0.82967 0.0
C1276 C 0.18387 0.65627 0.8439 0.0
C1277 C 0.16045 0.67806 0.77818 0.0
C1278 C 0.1978 0.64508 0.80529 0.0
C1279 C 0.19337 0.65038 0.75407 0.0
H1280 H 0.319 0.1314 0.70571 0.0
H1281 H 0.37151 0.17983 0.63464 0.0
H1282 H 0.38626 0.19292 0.71708 0.0
H1283 H 0.38284 0.19274 0.81004 0.0
H1284 H 0.33064 0.14386 0.88086 0.0
H1285 H 0.31762 0.12905 0.79855 0.0
C1286 C 0.33384 0.1446 0.70818 0.0
C1287 C 0.34387 0.15462 0.66368 0.0
C1288 C 0.34238 0.15224 0.75603 0.0
C1289 C 0.3632 0.17175 0.66797 0.0
C1290 C 0.37172 0.17937 0.71529 0.0
C1291 C 0.36881 0.17867 0.80753 0.0
C1292 C 0.35775 0.16971 0.85195 0.0
C1293 C 0.36122 0.17005 0.75968 0.0
C1294 C 0.33956 0.15137 0.84763 0.0
C1295 C 0.33197 0.14279 0.80036 0.0
H1296 H 0.85354 0.33523 0.85848 0.0
H1297 H 0.79989 0.38915 0.81285 0.0
H1298 H 0.8091 0.38088 0.72387 0.0
H1299 H 0.83174 0.35778 0.65844 0.0
H1300 H 0.88623 0.30475 0.70433 0.0
H1301 H 0.87733 0.31337 0.79322 0.0
C1302 C 0.84391 0.34534 0.82923 0.0
C1303 C 0.82599 0.36287 0.84294 0.0
C1304 C 0.84943 0.34063 0.7778 0.0
C1305 C 0.81381 0.37564 0.80395 0.0
C1306 C 0.81904 0.37088 0.75282 0.0
C1307 C 0.84182 0.34816 0.68776 0.0
C1308 C 0.85971 0.33058 0.67411 0.0
C1309 C 0.83673 0.35333 0.73921 0.0
C1310 C 0.87245 0.31841 0.71316 0.0
C1311 C 0.86732 0.32329 0.76425 0.0
H1312 H 0.67991 0.85772 0.86007 0.0
H1313 H 0.62609 0.80389 0.81456 0.0
H1314 H 0.63442 0.81294 0.72561 0.0
H1315 H 0.65764 0.8353 0.6602 0.0
H1316 H 0.71061 0.88998 0.70549 0.0
H1317 H 0.70182 0.88144 0.79454 0.0
C1318 C 0.66984 0.84803 0.83084 0.0
C1319 C 0.65233 0.83008 0.8446 0.0
C1320 C 0.67459 0.85345 0.77937 0.0
C1321 C 0.63959 0.81783 0.80564 0.0
C1322 C 0.64439 0.82296 0.75452 0.0
C1323 C 0.6672 0.84551 0.6894 0.0
C1324 C 0.68483 0.86332 0.67558 0.0
C1325 C 0.66194 0.84063 0.74086 0.0
C1326 C 0.69691 0.87626 0.71449 0.0
C1327 C 0.69193 0.87133 0.76565 0.0
H1328 H 0.86374 0.71177 0.69611 0.0
H1329 H 0.81221 0.65743 0.64321 0.0
H1330 H 0.80086 0.64768 0.7305 0.0
H1331 H 0.80622 0.65401 0.82203 0.0
H1332 H 0.86017 0.70592 0.87502 0.0
H1333 H 0.86995 0.71726 0.78771 0.0
C1334 C 0.84994 0.69792 0.70387 0.0
C1335 C 0.83874 0.68541 0.66361 0.0
C1336 C 0.844 0.69193 0.7541 0.0
C1337 C 0.82113 0.66723 0.67384 0.0
C1338 C 0.8146 0.66167 0.72364 0.0
C1339 C 0.82 0.66789 0.8143 0.0
C1340 C 0.83238 0.67921 0.85458 0.0
C1341 C 0.82599 0.67383 0.76408 0.0
C1342 C 0.85047 0.69692 0.84437 0.0
C1343 C 0.85604 0.70344 0.79456 0.0
H1344 H 0.34901 0.81902 0.66753 0.0
H1345 H 0.29099 0.8707 0.69888 0.0
H1346 H 0.296 0.86367 0.79004 0.0
H1347 H 0.31807 0.8441 0.86019 0.0
H1348 H 0.37478 0.791 0.82876 0.0
H1349 H 0.36903 0.79722 0.73752 0.0
C1350 C 0.33744 0.82871 0.69438 0.0
C1351 C 0.31986 0.84556 0.6769 0.0
C1352 C 0.34023 0.82434 0.74631 0.0
C1353 C 0.30464 0.85767 0.71173 0.0
C1354 C 0.30757 0.85371 0.76368 0.0
C1355 C 0.32915 0.83388 0.8333 0.0
C1356 C 0.34704 0.81735 0.85081 0.0
C1357 C 0.32549 0.83731 0.7813 0.0
C1358 C 0.36095 0.80383 0.81588 0.0
C1359 C 0.35771 0.80745 0.7639 0.0
H1360 H 0.15515 0.30465 0.6967 0.0
H1361 H 0.209 0.35455 0.63548 0.0
H1362 H 0.22158 0.36623 0.72082 0.0
H1363 H 0.21678 0.36295 0.81315 0.0
H1364 H 0.16124 0.31493 0.87436 0.0
H1365 H 0.14987 0.30189 0.78912 0.0
C1366 C 0.16971 0.31796 0.7022 0.0
C1367 C 0.18112 0.32869 0.66004 0.0
C1368 C 0.17653 0.32503 0.75143 0.0
C1369 C 0.19981 0.34613 0.66749 0.0
C1370 C 0.20707 0.3528 0.71625 0.0
C1371 C 0.20227 0.34957 0.80772 0.0
C1372 C 0.1899 0.33993 0.84985 0.0
C1373 C 0.19548 0.34248 0.75852 0.0
C1374 C 0.17096 0.32276 0.8424 0.0
C1375 C 0.16447 0.31522 0.79369 0.0
H1376 H 0.64982 0.21071 0.81986 0.0
H1377 H 0.70019 0.1557 0.87443 0.0
H1378 H 0.71222 0.14591 0.78755 0.0
H1379 H 0.70776 0.15237 0.69578 0.0
H1380 H 0.65497 0.20503 0.64114 0.0
H1381 H 0.64458 0.2164 0.7281 0.0
C1382 C 0.66351 0.19669 0.81258 0.0
C1383 C 0.67418 0.18401 0.8532 0.0
C1384 C 0.66987 0.19071 0.76254 0.0
C1385 C 0.69166 0.16563 0.84353 0.0
C1386 C 0.69859 0.16006 0.79395 0.0
C1387 C 0.69411 0.16642 0.70309 0.0
C1388 C 0.68222 0.17792 0.66242 0.0
C1389 C 0.68774 0.17239 0.75313 0.0
C1390 C 0.6643 0.19587 0.67208 0.0
C1391 C 0.65837 0.20241 0.72171 0.0
H1392 H 0.81997 0.35088 0.35531 0.0
H1393 H 0.87446 0.29557 0.3237 0.0
H1394 H 0.86894 0.30187 0.23262 0.0
H1395 H 0.84814 0.32268 0.16156 0.0
H1396 H 0.79162 0.3759 0.19329 0.0
H1397 H 0.79841 0.37088 0.28431 0.0
C1398 C 0.8307 0.34029 0.32846 0.0
C1399 C 0.84767 0.32284 0.34635 0.0
C1400 C 0.82702 0.34361 0.27602 0.0
C1401 C 0.86122 0.30906 0.31101 0.0
C1402 C 0.85811 0.31268 0.25887 0.0
C1403 C 0.83739 0.33324 0.18843 0.0
C1404 C 0.81945 0.34971 0.17058 0.0
C1405 C 0.841 0.32984 0.24088 0.0
C1406 C 0.80548 0.36304 0.20594 0.0
C1407 C 0.80938 0.36022 0.25805 0.0
H1408 H 0.69275 0.85088 0.16383 0.0
H1409 H 0.63906 0.79455 0.19367 0.0
H1410 H 0.64395 0.80079 0.28492 0.0
H1411 H 0.66403 0.82178 0.35666 0.0
H1412 H 0.7199 0.87595 0.32674 0.0
H1413 H 0.71362 0.87108 0.23552 0.0
C1414 C 0.68205 0.84006 0.19035 0.0
C1415 C 0.6655 0.82234 0.17193 0.0
C1416 C 0.68539 0.84333 0.24289 0.0
C1417 C 0.65199 0.80825 0.2068 0.0
C1418 C 0.65474 0.81184 0.25903 0.0
C1419 C 0.67474 0.83258 0.33013 0.0
C1420 C 0.69235 0.84927 0.34852 0.0
C1421 C 0.67146 0.82925 0.27758 0.0
C1422 C 0.70629 0.86292 0.31363 0.0
C1423 C 0.70268 0.86018 0.26142 0.0
H1424 H 0.19282 0.66919 0.35462 0.0
H1425 H 0.13781 0.72447 0.32721 0.0
H1426 H 0.14106 0.71751 0.23586 0.0
H1427 H 0.16017 0.69626 0.16327 0.0
H1428 H 0.21754 0.64343 0.19055 0.0
H1429 H 0.21272 0.64879 0.28204 0.0
C1430 C 0.18149 0.67963 0.32861 0.0
C1431 C 0.16505 0.69726 0.34769 0.0
C1432 C 0.1839 0.67597 0.27598 0.0
C1433 C 0.15069 0.71086 0.3135 0.0
C1434 C 0.15249 0.70685 0.26123 0.0
C1435 C 0.17149 0.68583 0.18932 0.0
C1436 C 0.1891 0.66939 0.17017 0.0
C1437 C 0.16911 0.68953 0.24197 0.0
C1438 C 0.20389 0.65625 0.20434 0.0
C1439 C 0.20113 0.65928 0.25668 0.0
H1440 H 0.3472 0.19432 0.35406 0.0
H1441 H 0.29043 0.14116 0.32357 0.0
H1442 H 0.29541 0.14787 0.23224 0.0
H1443 H 0.31733 0.16742 0.16177 0.0
H1444 H 0.37257 0.22216 0.19232 0.0
H1445 H 0.36667 0.21642 0.2837 0.0
C1446 C 0.33589 0.18426 0.32733 0.0
C1447 C 0.31871 0.16705 0.34503 0.0
C1448 C 0.33861 0.1885 0.27534 0.0
C1449 C 0.30378 0.15446 0.31046 0.0
C1450 C 0.30669 0.15823 0.25844 0.0
C1451 C 0.32801 0.17814 0.18853 0.0
C1452 C 0.34557 0.19495 0.1708 0.0
C1453 C 0.32426 0.17497 0.24057 0.0
C1454 C 0.35898 0.20911 0.20544 0.0
C1455 C 0.35568 0.20576 0.25748 0.0
loop_
_geom_bond_atom_site_label_1
_geom_bond_atom_site_label_2
_geom_bond_distance
_geom_bond_site_symmetry_2
_ccdc_geom_bond_type
Co0 O2 2.143 . S
Co0 O8 2.074 1_556 S
Co0 O11 2.093 . S
Co0 O24 2.097 . S
Co0 N41 2.151 . S
Co0 N49 2.214 . S
Co1 O2 2.160 1_554 S
Co1 O7 2.058 . S
Co1 O17 2.057 . S
Co1 O32 2.037 . S
Co1 N36 2.145 . S
Co1 N57 2.257 1_554 S
O2 Co0 2.143 . S
O2 Co1 2.160 1_556 S
C3 O4 1.278 . S
C3 O11 1.224 . S
O4 C3 1.278 . S
C5 O6 1.245 1_554 S
C5 O17 1.232 . S
O6 C5 1.245 1_556 S
O7 Co1 2.058 . S
O7 C33 1.269 . S
O8 Co0 2.074 1_554 S
O8 C33 1.257 . S
H9 C34 0.930 . S
H10 C40 0.930 . S
O11 Co0 2.093 . S
O11 C3 1.224 . S
H12 C44 0.929 . S
H13 C46 0.930 . S
H14 C47 0.930 . S
H15 C45 0.929 . S
H16 C48 0.928 . S
O17 Co1 2.057 . S
O17 C5 1.232 . S
H18 C37 0.929 . S
H19 C38 0.929 . S
H20 C50 0.931 . S
H21 C42 0.929 . S
H22 C51 0.930 . S
H23 C43 0.931 . S
O24 Co0 2.097 . S
O24 C52 1.214 1_556 S
H25 C53 0.929 . S
H26 C54 0.929 . S
H27 C55 0.930 . S
H28 C56 0.929 . S
H29 C58 0.930 . S
H30 C35 0.930 . S
H31 C39 0.930 . S
O32 Co1 2.037 . S
O32 C52 1.234 . S
C33 O7 1.269 . S
C33 O8 1.257 . S
C34 H9 0.930 . S
C34 C37 1.388 . S
C34 C39 1.418 . S
C35 H30 0.930 . S
C35 C38 1.404 . S
C35 C39 1.353 . S
N36 Co1 2.145 . S
N36 C37 1.397 . S
N36 C38 1.334 . S
C37 H18 0.929 . S
C37 C34 1.388 . S
C37 N36 1.397 . S
C38 H19 0.929 . S
C38 C35 1.404 . S
C38 N36 1.334 . S
C39 H31 0.930 . S
C39 C34 1.418 . S
C39 C35 1.353 . S
C40 H10 0.930 . S
C40 N41 1.330 . S
C40 C42 1.446 . S
N41 Co0 2.151 . S
N41 C40 1.330 . S
N41 C45 1.418 1_556 S
C42 H21 0.929 . S
C42 C40 1.446 . S
C42 C43 1.332 . S
C43 H23 0.931 . S
C43 C42 1.332 . S
C43 C44 1.267 1_556 S
C44 H12 0.929 . S
C44 C43 1.267 1_554 S
C44 C45 1.251 . S
C45 H15 0.929 . S
C45 N41 1.418 1_554 S
C45 C44 1.251 . S
C46 H13 0.930 . S
C46 C48 1.406 . S
C46 C51 1.261 1_556 S
C47 H14 0.930 . S
C47 N49 1.325 1_554 S
C47 C50 1.357 . S
C48 H16 0.928 . S
C48 C46 1.406 . S
C48 N49 1.261 . S
N49 Co0 2.214 . S
N49 C47 1.325 1_556 S
N49 C48 1.261 . S
C50 H20 0.931 . S
C50 C47 1.357 . S
C50 C51 1.312 . S
C51 H22 0.930 . S
C51 C46 1.261 1_554 S
C51 C50 1.312 . S
C52 O24 1.214 1_554 S
C52 O32 1.234 . S
C53 H25 0.929 . S
C53 C56 1.391 . S
C53 C58 1.391 . S
C54 H26 0.929 . S
C54 C55 1.390 . S
C54 N57 1.391 . S
C55 H27 0.930 . S
C55 C54 1.390 . S
C55 C56 1.392 . S
C56 H28 0.929 . S
C56 C53 1.391 . S
C56 C55 1.392 . S
N57 Co1 2.257 1_556 S
N57 C54 1.391 . S
N57 C58 1.388 . S
C58 H29 0.930 . S
C58 C53 1.391 . S
C58 N57 1.388 . S
Co59 O61 2.143 . S
Co59 O67 2.074 1_556 S
Co59 O70 2.093 . S
Co59 O83 2.097 . S
Co59 N100 2.151 . S
Co59 N108 2.214 . S
Co60 O61 2.160 1_554 S
Co60 O66 2.058 . S
Co60 O76 2.057 . S
Co60 O91 2.037 . S
Co60 N95 2.145 . S
Co60 N116 2.257 1_554 S
O61 Co59 2.143 . S
O61 Co60 2.160 1_556 S
C62 O63 1.278 . S
C62 O70 1.224 . S
O63 C62 1.278 . S
C64 O65 1.245 1_554 S
C64 O76 1.232 . S
O65 C64 1.245 1_556 S
O66 Co60 2.058 . S
O66 C92 1.269 . S
O67 Co59 2.074 1_554 S
O67 C92 1.257 . S
H68 C93 0.930 . S
H69 C99 0.930 . S
O70 Co59 2.093 . S
O70 C62 1.224 . S
H71 C103 0.929 . S
H72 C105 0.930 . S
H73 C106 0.930 . S
H74 C104 0.929 . S
H75 C107 0.928 . S
O76 Co60 2.057 . S
O76 C64 1.232 . S
H77 C96 0.929 . S
H78 C97 0.929 . S
H79 C109 0.931 . S
H80 C101 0.929 . S
H81 C110 0.930 . S
H82 C102 0.931 . S
O83 Co59 2.097 . S
O83 C111 1.214 1_556 S
H84 C112 0.929 . S
H85 C113 0.929 . S
H86 C114 0.930 . S
H87 C115 0.929 . S
H88 C117 0.930 . S
H89 C94 0.930 . S
H90 C98 0.930 . S
O91 Co60 2.037 . S
O91 C111 1.234 . S
C92 O66 1.269 . S
C92 O67 1.257 . S
C93 H68 0.930 . S
C93 C96 1.388 . S
C93 C98 1.418 . S
C94 H89 0.930 . S
C94 C97 1.404 . S
C94 C98 1.353 . S
N95 Co60 2.145 . S
N95 C96 1.397 . S
N95 C97 1.334 . S
C96 H77 0.929 . S
C96 C93 1.388 . S
C96 N95 1.397 . S
C97 H78 0.929 . S
C97 C94 1.404 . S
C97 N95 1.334 . S
C98 H90 0.930 . S
C98 C93 1.418 . S
C98 C94 1.353 . S
C99 H69 0.930 . S
C99 N100 1.330 . S
C99 C101 1.446 . S
N100 Co59 2.151 . S
N100 C99 1.330 . S
N100 C104 1.418 1_556 S
C101 H80 0.929 . S
C101 C99 1.446 . S
C101 C102 1.332 . S
C102 H82 0.931 . S
C102 C101 1.332 . S
C102 C103 1.267 1_556 S
C103 H71 0.929 . S
C103 C102 1.267 1_554 S
C103 C104 1.251 . S
C104 H74 0.929 . S
C104 N100 1.418 1_554 S
C104 C103 1.251 . S
C105 H72 0.930 . S
C105 C107 1.406 . S
C105 C110 1.261 1_556 S
C106 H73 0.930 . S
C106 N108 1.325 1_554 S
C106 C109 1.357 . S
C107 H75 0.928 . S
C107 C105 1.406 . S
C107 N108 1.261 . S
N108 Co59 2.214 . S
N108 C106 1.325 1_556 S
N108 C107 1.261 . S
C109 H79 0.931 . S
C109 C106 1.357 . S
C109 C110 1.312 . S
C110 H81 0.930 . S
C110 C105 1.261 1_554 S
C110 C109 1.312 . S
C111 O83 1.214 1_554 S
C111 O91 1.234 . S
C112 H84 0.929 . S
C112 C115 1.391 . S
C112 C117 1.391 . S
C113 H85 0.929 . S
C113 C114 1.390 . S
C113 N116 1.391 . S
C114 H86 0.930 . S
C114 C113 1.390 . S
C114 C115 1.392 . S
C115 H87 0.929 . S
C115 C112 1.391 . S
C115 C114 1.392 . S
N116 Co60 2.257 1_556 S
N116 C113 1.391 . S
N116 C117 1.388 . S
C117 H88 0.930 . S
C117 C112 1.391 . S
C117 N116 1.388 . S
Co118 O120 2.143 . S
Co118 O126 2.074 1_556 S
Co118 O129 2.093 . S
Co118 O142 2.097 . S
Co118 N159 2.151 . S
Co118 N167 2.214 . S
Co119 O120 2.160 1_554 S
Co119 O125 2.058 . S
Co119 O135 2.057 . S
Co119 O150 2.037 . S
Co119 N154 2.145 . S
Co119 N175 2.257 1_554 S
O120 Co118 2.143 . S
O120 Co119 2.160 1_556 S
C121 O122 1.278 . S
C121 O129 1.224 . S
O122 C121 1.278 . S
C123 O124 1.245 1_554 S
C123 O135 1.232 . S
O124 C123 1.245 1_556 S
O125 Co119 2.058 . S
O125 C151 1.269 . S
O126 Co118 2.074 1_554 S
O126 C151 1.257 . S
H127 C152 0.930 . S
H128 C158 0.930 . S
O129 Co118 2.093 . S
O129 C121 1.224 . S
H130 C162 0.929 . S
H131 C164 0.930 . S
H132 C165 0.930 . S
H133 C163 0.929 . S
H134 C166 0.928 . S
O135 Co119 2.057 . S
O135 C123 1.232 . S
H136 C155 0.929 . S
H137 C156 0.929 . S
H138 C168 0.931 . S
H139 C160 0.929 . S
H140 C169 0.930 . S
H141 C161 0.931 . S
O142 Co118 2.097 . S
O142 C170 1.214 1_556 S
H143 C171 0.929 . S
H144 C172 0.929 . S
H145 C173 0.930 . S
H146 C174 0.929 . S
H147 C176 0.930 . S
H148 C153 0.930 . S
H149 C157 0.930 . S
O150 Co119 2.037 . S
O150 C170 1.234 . S
C151 O125 1.269 . S
C151 O126 1.257 . S
C152 H127 0.930 . S
C152 C155 1.388 . S
C152 C157 1.418 . S
C153 H148 0.930 . S
C153 C156 1.404 . S
C153 C157 1.353 . S
N154 Co119 2.145 . S
N154 C155 1.397 . S
N154 C156 1.334 . S
C155 H136 0.929 . S
C155 C152 1.388 . S
C155 N154 1.397 . S
C156 H137 0.929 . S
C156 C153 1.404 . S
C156 N154 1.334 . S
C157 H149 0.930 . S
C157 C152 1.418 . S
C157 C153 1.353 . S
C158 H128 0.930 . S
C158 N159 1.330 . S
C158 C160 1.446 . S
N159 Co118 2.151 . S
N159 C158 1.330 . S
N159 C163 1.418 1_556 S
C160 H139 0.929 . S
C160 C158 1.446 . S
C160 C161 1.332 . S
C161 H141 0.931 . S
C161 C160 1.332 . S
C161 C162 1.267 1_556 S
C162 H130 0.929 . S
C162 C161 1.267 1_554 S
C162 C163 1.251 . S
C163 H133 0.929 . S
C163 N159 1.418 1_554 S
C163 C162 1.251 . S
C164 H131 0.930 . S
C164 C166 1.406 . S
C164 C169 1.261 1_556 S
C165 H132 0.930 . S
C165 N167 1.325 1_554 S
C165 C168 1.357 . S
C166 H134 0.928 . S
C166 C164 1.406 . S
C166 N167 1.261 . S
N167 Co118 2.214 . S
N167 C165 1.325 1_556 S
N167 C166 1.261 . S
C168 H138 0.931 . S
C168 C165 1.357 . S
C168 C169 1.312 . S
C169 H140 0.930 . S
C169 C164 1.261 1_554 S
C169 C168 1.312 . S
C170 O142 1.214 1_554 S
C170 O150 1.234 . S
C171 H143 0.929 . S
C171 C174 1.391 . S
C171 C176 1.391 . S
C172 H144 0.929 . S
C172 C173 1.390 . S
C172 N175 1.391 . S
C173 H145 0.930 . S
C173 C172 1.390 . S
C173 C174 1.392 . S
C174 H146 0.929 . S
C174 C171 1.391 . S
C174 C173 1.392 . S
N175 Co119 2.257 1_556 S
N175 C172 1.391 . S
N175 C176 1.388 . S
C176 H147 0.930 . S
C176 C171 1.391 . S
C176 N175 1.388 . S
Co177 O179 2.143 . S
Co177 O185 2.074 1_556 S
Co177 O188 2.093 . S
Co177 O201 2.097 . S
Co177 N218 2.151 . S
Co177 N226 2.214 . S
Co178 O179 2.160 1_554 S
Co178 O184 2.058 . S
Co178 O194 2.057 . S
Co178 O209 2.037 . S
Co178 N213 2.145 . S
Co178 N234 2.257 1_554 S
O179 Co177 2.143 . S
O179 Co178 2.160 1_556 S
C180 O181 1.278 . S
C180 O188 1.224 . S
O181 C180 1.278 . S
C182 O183 1.245 1_554 S
C182 O194 1.232 . S
O183 C182 1.245 1_556 S
O184 Co178 2.058 . S
O184 C210 1.269 . S
O185 Co177 2.074 1_554 S
O185 C210 1.257 . S
H186 C211 0.930 . S
H187 C217 0.930 . S
O188 Co177 2.093 . S
O188 C180 1.224 . S
H189 C221 0.929 . S
H190 C223 0.930 . S
H191 C224 0.930 . S
H192 C222 0.929 . S
H193 C225 0.928 . S
O194 Co178 2.057 . S
O194 C182 1.232 . S
H195 C214 0.929 . S
H196 C215 0.929 . S
H197 C227 0.931 . S
H198 C219 0.929 . S
H199 C228 0.930 . S
H200 C220 0.931 . S
O201 Co177 2.097 . S
O201 C229 1.214 1_556 S
H202 C230 0.929 . S
H203 C231 0.929 . S
H204 C232 0.930 . S
H205 C233 0.929 . S
H206 C235 0.930 . S
H207 C212 0.930 . S
H208 C216 0.930 . S
O209 Co178 2.037 . S
O209 C229 1.234 . S
C210 O184 1.269 . S
C210 O185 1.257 . S
C211 H186 0.930 . S
C211 C214 1.388 . S
C211 C216 1.418 . S
C212 H207 0.930 . S
C212 C215 1.404 . S
C212 C216 1.353 . S
N213 Co178 2.145 . S
N213 C214 1.397 . S
N213 C215 1.334 . S
C214 H195 0.929 . S
C214 C211 1.388 . S
C214 N213 1.397 . S
C215 H196 0.929 . S
C215 C212 1.404 . S
C215 N213 1.334 . S
C216 H208 0.930 . S
C216 C211 1.418 . S
C216 C212 1.353 . S
C217 H187 0.930 . S
C217 N218 1.330 . S
C217 C219 1.446 . S
N218 Co177 2.151 . S
N218 C217 1.330 . S
N218 C222 1.418 1_556 S
C219 H198 0.929 . S
C219 C217 1.446 . S
C219 C220 1.332 . S
C220 H200 0.931 . S
C220 C219 1.332 . S
C220 C221 1.267 1_556 S
C221 H189 0.929 . S
C221 C220 1.267 1_554 S
C221 C222 1.251 . S
C222 H192 0.929 . S
C222 N218 1.418 1_554 S
C222 C221 1.251 . S
C223 H190 0.930 . S
C223 C225 1.406 . S
C223 C228 1.261 1_556 S
C224 H191 0.930 . S
C224 N226 1.325 1_554 S
C224 C227 1.357 . S
C225 H193 0.928 . S
C225 C223 1.406 . S
C225 N226 1.261 . S
N226 Co177 2.214 . S
N226 C224 1.325 1_556 S
N226 C225 1.261 . S
C227 H197 0.931 . S
C227 C224 1.357 . S
C227 C228 1.312 . S
C228 H199 0.930 . S
C228 C223 1.261 1_554 S
C228 C227 1.312 . S
C229 O201 1.214 1_554 S
C229 O209 1.234 . S
C230 H202 0.929 . S
C230 C233 1.391 . S
C230 C235 1.391 . S
C231 H203 0.929 . S
C231 C232 1.390 . S
C231 N234 1.391 . S
C232 H204 0.930 . S
C232 C231 1.390 . S
C232 C233 1.392 . S
C233 H205 0.929 . S
C233 C230 1.391 . S
C233 C232 1.392 . S
N234 Co178 2.257 1_556 S
N234 C231 1.391 . S
N234 C235 1.388 . S
C235 H206 0.930 . S
C235 C230 1.391 . S
C235 N234 1.388 . S
Co236 O238 2.143 . S
Co236 O244 2.074 1_554 S
Co236 O247 2.093 . S
Co236 O260 2.097 . S
Co236 N277 2.151 . S
Co236 N285 2.214 . S
Co237 O238 2.160 1_556 S
Co237 O243 2.058 . S
Co237 O253 2.057 . S
Co237 O268 2.037 . S
Co237 N272 2.145 . S
Co237 N293 2.257 1_556 S
O238 Co236 2.143 . S
O238 Co237 2.160 1_554 S
C239 O240 1.278 . S
C239 O247 1.224 . S
O240 C239 1.278 . S
C241 O242 1.245 1_556 S
C241 O253 1.232 . S
O242 C241 1.245 1_554 S
O243 Co237 2.058 . S
O243 C269 1.269 . S
O244 Co236 2.074 1_556 S
O244 C269 1.257 . S
H245 C270 0.930 . S
H246 C276 0.930 . S
O247 Co236 2.093 . S
O247 C239 1.224 . S
H248 C280 0.929 . S
H249 C282 0.930 . S
H250 C283 0.930 . S
H251 C281 0.929 . S
H252 C284 0.928 . S
O253 Co237 2.057 . S
O253 C241 1.232 . S
H254 C273 0.929 . S
H255 C274 0.929 . S
H256 C286 0.931 . S
H257 C278 0.929 . S
H258 C287 0.930 . S
H259 C279 0.931 . S
O260 Co236 2.097 . S
O260 C288 1.214 1_554 S
H261 C289 0.929 . S
H262 C290 0.929 . S
H263 C291 0.930 . S
H264 C292 0.929 . S
H265 C294 0.930 . S
H266 C271 0.930 . S
H267 C275 0.930 . S
O268 Co237 2.037 . S
O268 C288 1.234 . S
C269 O243 1.269 . S
C269 O244 1.257 . S
C270 H245 0.930 . S
C270 C273 1.388 . S
C270 C275 1.418 . S
C271 H266 0.930 . S
C271 C274 1.404 . S
C271 C275 1.353 . S
N272 Co237 2.145 . S
N272 C273 1.397 . S
N272 C274 1.334 . S
C273 H254 0.929 . S
C273 C270 1.388 . S
C273 N272 1.397 . S
C274 H255 0.929 . S
C274 C271 1.404 . S
C274 N272 1.334 . S
C275 H267 0.930 . S
C275 C270 1.418 . S
C275 C271 1.353 . S
C276 H246 0.930 . S
C276 N277 1.330 . S
C276 C278 1.446 . S
N277 Co236 2.151 . S
N277 C276 1.330 . S
N277 C281 1.418 1_554 S
C278 H257 0.929 . S
C278 C276 1.446 . S
C278 C279 1.332 . S
C279 H259 0.931 . S
C279 C278 1.332 . S
C279 C280 1.267 1_554 S
C280 H248 0.929 . S
C280 C279 1.267 1_556 S
C280 C281 1.251 . S
C281 H251 0.929 . S
C281 N277 1.418 1_556 S
C281 C280 1.251 . S
C282 H249 0.930 . S
C282 C284 1.406 . S
C282 C287 1.261 1_554 S
C283 H250 0.930 . S
C283 N285 1.325 1_556 S
C283 C286 1.357 . S
C284 H252 0.928 . S
C284 C282 1.406 . S
C284 N285 1.261 . S
N285 Co236 2.214 . S
N285 C283 1.325 1_554 S
N285 C284 1.261 . S
C286 H256 0.931 . S
C286 C283 1.357 . S
C286 C287 1.312 . S
C287 H258 0.930 . S
C287 C282 1.261 1_556 S
C287 C286 1.312 . S
C288 O260 1.214 1_556 S
C288 O268 1.234 . S
C289 H261 0.929 . S
C289 C292 1.391 . S
C289 C294 1.391 . S
C290 H262 0.929 . S
C290 C291 1.390 . S
C290 N293 1.391 . S
C291 H263 0.930 . S
C291 C290 1.390 . S
C291 C292 1.392 . S
C292 H264 0.929 . S
C292 C289 1.391 . S
C292 C291 1.392 . S
N293 Co237 2.257 1_554 S
N293 C290 1.391 . S
N293 C294 1.388 . S
C294 H265 0.930 . S
C294 C289 1.391 . S
C294 N293 1.388 . S
Co295 O297 2.143 . S
Co295 O303 2.074 1_554 S
Co295 O306 2.093 . S
Co295 O319 2.097 . S
Co295 N336 2.151 . S
Co295 N344 2.214 . S
Co296 O297 2.160 1_556 S
Co296 O302 2.058 . S
Co296 O312 2.057 . S
Co296 O327 2.037 . S
Co296 N331 2.145 . S
Co296 N352 2.257 1_556 S
O297 Co295 2.143 . S
O297 Co296 2.160 1_554 S
C298 O299 1.278 . S
C298 O306 1.224 . S
O299 C298 1.278 . S
C300 O301 1.245 1_556 S
C300 O312 1.232 . S
O301 C300 1.245 1_554 S
O302 Co296 2.058 . S
O302 C328 1.269 . S
O303 Co295 2.074 1_556 S
O303 C328 1.257 . S
H304 C329 0.930 . S
H305 C335 0.930 . S
O306 Co295 2.093 . S
O306 C298 1.224 . S
H307 C339 0.929 . S
H308 C341 0.930 . S
H309 C342 0.930 . S
H310 C340 0.929 . S
H311 C343 0.928 . S
O312 Co296 2.057 . S
O312 C300 1.232 . S
H313 C332 0.929 . S
H314 C333 0.929 . S
H315 C345 0.931 . S
H316 C337 0.929 . S
H317 C346 0.930 . S
H318 C338 0.931 . S
O319 Co295 2.097 . S
O319 C347 1.214 1_554 S
H320 C348 0.929 . S
H321 C349 0.929 . S
H322 C350 0.930 . S
H323 C351 0.929 . S
H324 C353 0.930 . S
H325 C330 0.930 . S
H326 C334 0.930 . S
O327 Co296 2.037 . S
O327 C347 1.234 . S
C328 O302 1.269 . S
C328 O303 1.257 . S
C329 H304 0.930 . S
C329 C332 1.388 . S
C329 C334 1.418 . S
C330 H325 0.930 . S
C330 C333 1.404 . S
C330 C334 1.353 . S
N331 Co296 2.145 . S
N331 C332 1.397 . S
N331 C333 1.334 . S
C332 H313 0.929 . S
C332 C329 1.388 . S
C332 N331 1.397 . S
C333 H314 0.929 . S
C333 C330 1.404 . S
C333 N331 1.334 . S
C334 H326 0.930 . S
C334 C329 1.418 . S
C334 C330 1.353 . S
C335 H305 0.930 . S
C335 N336 1.330 . S
C335 C337 1.446 . S
N336 Co295 2.151 . S
N336 C335 1.330 . S
N336 C340 1.418 1_554 S
C337 H316 0.929 . S
C337 C335 1.446 . S
C337 C338 1.332 . S
C338 H318 0.931 . S
C338 C337 1.332 . S
C338 C339 1.267 1_554 S
C339 H307 0.929 . S
C339 C338 1.267 1_556 S
C339 C340 1.251 . S
C340 H310 0.929 . S
C340 N336 1.418 1_556 S
C340 C339 1.251 . S
C341 H308 0.930 . S
C341 C343 1.406 . S
C341 C346 1.261 1_554 S
C342 H309 0.930 . S
C342 N344 1.325 1_556 S
C342 C345 1.357 . S
C343 H311 0.928 . S
C343 C341 1.406 . S
C343 N344 1.261 . S
N344 Co295 2.214 . S
N344 C342 1.325 1_554 S
N344 C343 1.261 . S
C345 H315 0.931 . S
C345 C342 1.357 . S
C345 C346 1.312 . S
C346 H317 0.930 . S
C346 C341 1.261 1_556 S
C346 C345 1.312 . S
C347 O319 1.214 1_556 S
C347 O327 1.234 . S
C348 H320 0.929 . S
C348 C351 1.391 . S
C348 C353 1.391 . S
C349 H321 0.929 . S
C349 C350 1.390 . S
C349 N352 1.391 . S
C350 H322 0.930 . S
C350 C349 1.390 . S
C350 C351 1.392 . S
C351 H323 0.929 . S
C351 C348 1.391 . S
C351 C350 1.392 . S
N352 Co296 2.257 1_554 S
N352 C349 1.391 . S
N352 C353 1.388 . S
C353 H324 0.930 . S
C353 C348 1.391 . S
C353 N352 1.388 . S
Co354 O356 2.143 . S
Co354 O362 2.074 1_554 S
Co354 O365 2.093 . S
Co354 O378 2.097 . S
Co354 N395 2.151 . S
Co354 N403 2.214 . S
Co355 O356 2.160 1_556 S
Co355 O361 2.058 . S
Co355 O371 2.057 . S
Co355 O386 2.037 . S
Co355 N390 2.145 . S
Co355 N411 2.257 1_556 S
O356 Co354 2.143 . S
O356 Co355 2.160 1_554 S
C357 O358 1.278 . S
C357 O365 1.224 . S
O358 C357 1.278 . S
C359 O360 1.245 1_556 S
C359 O371 1.232 . S
O360 C359 1.245 1_554 S
O361 Co355 2.058 . S
O361 C387 1.269 . S
O362 Co354 2.074 1_556 S
O362 C387 1.257 . S
H363 C388 0.930 . S
H364 C394 0.930 . S
O365 Co354 2.093 . S
O365 C357 1.224 . S
H366 C398 0.929 . S
H367 C400 0.930 . S
H368 C401 0.930 . S
H369 C399 0.929 . S
H370 C402 0.928 . S
O371 Co355 2.057 . S
O371 C359 1.232 . S
H372 C391 0.929 . S
H373 C392 0.929 . S
H374 C404 0.931 . S
H375 C396 0.929 . S
H376 C405 0.930 . S
H377 C397 0.931 . S
O378 Co354 2.097 . S
O378 C406 1.214 1_554 S
H379 C407 0.929 . S
H380 C408 0.929 . S
H381 C409 0.930 . S
H382 C410 0.929 . S
H383 C412 0.930 . S
H384 C389 0.930 . S
H385 C393 0.930 . S
O386 Co355 2.037 . S
O386 C406 1.234 . S
C387 O361 1.269 . S
C387 O362 1.257 . S
C388 H363 0.930 . S
C388 C391 1.388 . S
C388 C393 1.418 . S
C389 H384 0.930 . S
C389 C392 1.404 . S
C389 C393 1.353 . S
N390 Co355 2.145 . S
N390 C391 1.397 . S
N390 C392 1.334 . S
C391 H372 0.929 . S
C391 C388 1.388 . S
C391 N390 1.397 . S
C392 H373 0.929 . S
C392 C389 1.404 . S
C392 N390 1.334 . S
C393 H385 0.930 . S
C393 C388 1.418 . S
C393 C389 1.353 . S
C394 H364 0.930 . S
C394 N395 1.330 . S
C394 C396 1.446 . S
N395 Co354 2.151 . S
N395 C394 1.330 . S
N395 C399 1.418 1_554 S
C396 H375 0.929 . S
C396 C394 1.446 . S
C396 C397 1.332 . S
C397 H377 0.931 . S
C397 C396 1.332 . S
C397 C398 1.267 1_554 S
C398 H366 0.929 . S
C398 C397 1.267 1_556 S
C398 C399 1.251 . S
C399 H369 0.929 . S
C399 N395 1.418 1_556 S
C399 C398 1.251 . S
C400 H367 0.930 . S
C400 C402 1.406 . S
C400 C405 1.261 1_554 S
C401 H368 0.930 . S
C401 N403 1.325 1_556 S
C401 C404 1.357 . S
C402 H370 0.928 . S
C402 C400 1.406 . S
C402 N403 1.261 . S
N403 Co354 2.214 . S
N403 C401 1.325 1_554 S
N403 C402 1.261 . S
C404 H374 0.931 . S
C404 C401 1.357 . S
C404 C405 1.312 . S
C405 H376 0.930 . S
C405 C400 1.261 1_556 S
C405 C404 1.312 . S
C406 O378 1.214 1_556 S
C406 O386 1.234 . S
C407 H379 0.929 . S
C407 C410 1.391 . S
C407 C412 1.391 . S
C408 H380 0.929 . S
C408 C409 1.390 . S
C408 N411 1.391 . S
C409 H381 0.930 . S
C409 C408 1.390 . S
C409 C410 1.392 . S
C410 H382 0.929 . S
C410 C407 1.391 . S
C410 C409 1.392 . S
N411 Co355 2.257 1_554 S
N411 C408 1.391 . S
N411 C412 1.388 . S
C412 H383 0.930 . S
C412 C407 1.391 . S
C412 N411 1.388 . S
Co413 O415 2.143 . S
Co413 O421 2.074 1_554 S
Co413 O424 2.093 . S
Co413 O437 2.097 . S
Co413 N454 2.151 . S
Co413 N462 2.214 . S
Co414 O415 2.160 1_556 S
Co414 O420 2.058 . S
Co414 O430 2.057 . S
Co414 O445 2.037 . S
Co414 N449 2.145 . S
Co414 N470 2.257 1_556 S
O415 Co413 2.143 . S
O415 Co414 2.160 1_554 S
C416 O417 1.278 . S
C416 O424 1.224 . S
O417 C416 1.278 . S
C418 O419 1.245 1_556 S
C418 O430 1.232 . S
O419 C418 1.245 1_554 S
O420 Co414 2.058 . S
O420 C446 1.269 . S
O421 Co413 2.074 1_556 S
O421 C446 1.257 . S
H422 C447 0.930 . S
H423 C453 0.930 . S
O424 Co413 2.093 . S
O424 C416 1.224 . S
H425 C457 0.929 . S
H426 C459 0.930 . S
H427 C460 0.930 . S
H428 C458 0.929 . S
H429 C461 0.928 . S
O430 Co414 2.057 . S
O430 C418 1.232 . S
H431 C450 0.929 . S
H432 C451 0.929 . S
H433 C463 0.931 . S
H434 C455 0.929 . S
H435 C464 0.930 . S
H436 C456 0.931 . S
O437 Co413 2.097 . S
O437 C465 1.214 1_554 S
H438 C466 0.929 . S
H439 C467 0.929 . S
H440 C468 0.930 . S
H441 C469 0.929 . S
H442 C471 0.930 . S
H443 C448 0.930 . S
H444 C452 0.930 . S
O445 Co414 2.037 . S
O445 C465 1.234 . S
C446 O420 1.269 . S
C446 O421 1.257 . S
C447 H422 0.930 . S
C447 C450 1.388 . S
C447 C452 1.418 . S
C448 H443 0.930 . S
C448 C451 1.404 . S
C448 C452 1.353 . S
N449 Co414 2.145 . S
N449 C450 1.397 . S
N449 C451 1.334 . S
C450 H431 0.929 . S
C450 C447 1.388 . S
C450 N449 1.397 . S
C451 H432 0.929 . S
C451 C448 1.404 . S
C451 N449 1.334 . S
C452 H444 0.930 . S
C452 C447 1.418 . S
C452 C448 1.353 . S
C453 H423 0.930 . S
C453 N454 1.330 . S
C453 C455 1.446 . S
N454 Co413 2.151 . S
N454 C453 1.330 . S
N454 C458 1.418 1_554 S
C455 H434 0.929 . S
C455 C453 1.446 . S
C455 C456 1.332 . S
C456 H436 0.931 . S
C456 C455 1.332 . S
C456 C457 1.267 1_554 S
C457 H425 0.929 . S
C457 C456 1.267 1_556 S
C457 C458 1.251 . S
C458 H428 0.929 . S
C458 N454 1.418 1_556 S
C458 C457 1.251 . S
C459 H426 0.930 . S
C459 C461 1.406 . S
C459 C464 1.261 1_554 S
C460 H427 0.930 . S
C460 N462 1.325 1_556 S
C460 C463 1.357 . S
C461 H429 0.928 . S
C461 C459 1.406 . S
C461 N462 1.261 . S
N462 Co413 2.214 . S
N462 C460 1.325 1_554 S
N462 C461 1.261 . S
C463 H433 0.931 . S
C463 C460 1.357 . S
C463 C464 1.312 . S
C464 H435 0.930 . S
C464 C459 1.261 1_556 S
C464 C463 1.312 . S
C465 O437 1.214 1_556 S
C465 O445 1.234 . S
C466 H438 0.929 . S
C466 C469 1.391 . S
C466 C471 1.391 . S
C467 H439 0.929 . S
C467 C468 1.390 . S
C467 N470 1.391 . S
C468 H440 0.930 . S
C468 C467 1.390 . S
C468 C469 1.392 . S
C469 H441 0.929 . S
C469 C466 1.391 . S
C469 C468 1.392 . S
N470 Co414 2.257 1_554 S
N470 C467 1.391 . S
N470 C471 1.388 . S
C471 H442 0.930 . S
C471 C466 1.391 . S
C471 N470 1.388 . S
Co472 O474 2.143 . S
Co472 O480 2.074 . S
Co472 O483 2.093 . S
Co472 O496 2.097 . S
Co472 N513 2.151 . S
Co472 N521 2.214 . S
Co473 O474 2.160 . S
Co473 O479 2.058 . S
Co473 O489 2.057 . S
Co473 O504 2.037 . S
Co473 N508 2.145 . S
Co473 N529 2.257 . S
O474 Co472 2.143 . S
O474 Co473 2.160 . S
C475 O476 1.278 . S
C475 O483 1.224 . S
O476 C475 1.278 . S
C477 O478 1.245 . S
C477 O489 1.232 . S
O478 C477 1.245 . S
O479 Co473 2.058 . S
O479 C505 1.269 . S
O480 Co472 2.074 . S
O480 C505 1.257 . S
H481 C506 0.930 . S
H482 C512 0.930 . S
O483 Co472 2.093 . S
O483 C475 1.224 . S
H484 C516 0.929 . S
H485 C518 0.930 . S
H486 C519 0.930 . S
H487 C517 0.929 . S
H488 C520 0.928 . S
O489 Co473 2.057 . S
O489 C477 1.232 . S
H490 C509 0.929 . S
H491 C510 0.929 . S
H492 C522 0.931 . S
H493 C514 0.929 . S
H494 C523 0.930 . S
H495 C515 0.931 . S
O496 Co472 2.097 . S
O496 C524 1.214 . S
H497 C525 0.929 . S
H498 C526 0.929 . S
H499 C527 0.930 . S
H500 C528 0.929 . S
H501 C530 0.930 . S
H502 C507 0.930 . S
H503 C511 0.930 . S
O504 Co473 2.037 . S
O504 C524 1.234 . S
C505 O479 1.269 . S
C505 O480 1.257 . S
C506 H481 0.930 . S
C506 C509 1.388 . S
C506 C511 1.418 . S
C507 H502 0.930 . S
C507 C510 1.404 . S
C507 C511 1.353 . S
N508 Co473 2.145 . S
N508 C509 1.397 . S
N508 C510 1.334 . S
C509 H490 0.929 . S
C509 C506 1.388 . S
C509 N508 1.397 . S
C510 H491 0.929 . S
C510 C507 1.404 . S
C510 N508 1.334 . S
C511 H503 0.930 . S
C511 C506 1.418 . S
C511 C507 1.353 . S
C512 H482 0.930 . S
C512 N513 1.330 . S
C512 C514 1.446 . S
N513 Co472 2.151 . S
N513 C512 1.330 . S
N513 C517 1.418 . S
C514 H493 0.929 . S
C514 C512 1.446 . S
C514 C515 1.332 . S
C515 H495 0.931 . S
C515 C514 1.332 . S
C515 C516 1.267 . S
C516 H484 0.929 . S
C516 C515 1.267 . S
C516 C517 1.251 . S
C517 H487 0.929 . S
C517 N513 1.418 . S
C517 C516 1.251 . S
C518 H485 0.930 . S
C518 C520 1.406 . S
C518 C523 1.261 . S
C519 H486 0.930 . S
C519 N521 1.325 . S
C519 C522 1.357 . S
C520 H488 0.928 . S
C520 C518 1.406 . S
C520 N521 1.261 . S
N521 Co472 2.214 . S
N521 C519 1.325 . S
N521 C520 1.261 . S
C522 H492 0.931 . S
C522 C519 1.357 . S
C522 C523 1.312 . S
C523 H494 0.930 . S
C523 C518 1.261 . S
C523 C522 1.312 . S
C524 O496 1.214 . S
C524 O504 1.234 . S
C525 H497 0.929 . S
C525 C528 1.391 . S
C525 C530 1.391 . S
C526 H498 0.929 . S
C526 C527 1.390 . S
C526 N529 1.391 . S
C527 H499 0.930 . S
C527 C526 1.390 . S
C527 C528 1.392 . S
C528 H500 0.929 . S
C528 C525 1.391 . S
C528 C527 1.392 . S
N529 Co473 2.257 . S
N529 C526 1.391 . S
N529 C530 1.388 . S
C530 H501 0.930 . S
C530 C525 1.391 . S
C530 N529 1.388 . S
Co531 O533 2.143 . S
Co531 O539 2.074 . S
Co531 O542 2.093 . S
Co531 O555 2.097 . S
Co531 N572 2.151 . S
Co531 N580 2.214 . S
Co532 O533 2.160 . S
Co532 O538 2.058 . S
Co532 O548 2.057 . S
Co532 O563 2.037 . S
Co532 N567 2.145 . S
Co532 N588 2.257 . S
O533 Co531 2.143 . S
O533 Co532 2.160 . S
C534 O535 1.278 . S
C534 O542 1.224 . S
O535 C534 1.278 . S
C536 O537 1.245 . S
C536 O548 1.232 . S
O537 C536 1.245 . S
O538 Co532 2.058 . S
O538 C564 1.269 . S
O539 Co531 2.074 . S
O539 C564 1.257 . S
H540 C565 0.930 . S
H541 C571 0.930 . S
O542 Co531 2.093 . S
O542 C534 1.224 . S
H543 C575 0.929 . S
H544 C577 0.930 . S
H545 C578 0.930 . S
H546 C576 0.929 . S
H547 C579 0.928 . S
O548 Co532 2.057 . S
O548 C536 1.232 . S
H549 C568 0.929 . S
H550 C569 0.929 . S
H551 C581 0.931 . S
H552 C573 0.929 . S
H553 C582 0.930 . S
H554 C574 0.931 . S
O555 Co531 2.097 . S
O555 C583 1.214 . S
H556 C584 0.929 . S
H557 C585 0.929 . S
H558 C586 0.930 . S
H559 C587 0.929 . S
H560 C589 0.930 . S
H561 C566 0.930 . S
H562 C570 0.930 . S
O563 Co532 2.037 . S
O563 C583 1.234 . S
C564 O538 1.269 . S
C564 O539 1.257 . S
C565 H540 0.930 . S
C565 C568 1.388 . S
C565 C570 1.418 . S
C566 H561 0.930 . S
C566 C569 1.404 . S
C566 C570 1.353 . S
N567 Co532 2.145 . S
N567 C568 1.397 . S
N567 C569 1.334 . S
C568 H549 0.929 . S
C568 C565 1.388 . S
C568 N567 1.397 . S
C569 H550 0.929 . S
C569 C566 1.404 . S
C569 N567 1.334 . S
C570 H562 0.930 . S
C570 C565 1.418 . S
C570 C566 1.353 . S
C571 H541 0.930 . S
C571 N572 1.330 . S
C571 C573 1.446 . S
N572 Co531 2.151 . S
N572 C571 1.330 . S
N572 C576 1.418 . S
C573 H552 0.929 . S
C573 C571 1.446 . S
C573 C574 1.332 . S
C574 H554 0.931 . S
C574 C573 1.332 . S
C574 C575 1.267 . S
C575 H543 0.929 . S
C575 C574 1.267 . S
C575 C576 1.251 . S
C576 H546 0.929 . S
C576 N572 1.418 . S
C576 C575 1.251 . S
C577 H544 0.930 . S
C577 C579 1.406 . S
C577 C582 1.261 . S
C578 H545 0.930 . S
C578 N580 1.325 . S
C578 C581 1.357 . S
C579 H547 0.928 . S
C579 C577 1.406 . S
C579 N580 1.261 . S
N580 Co531 2.214 . S
N580 C578 1.325 . S
N580 C579 1.261 . S
C581 H551 0.931 . S
C581 C578 1.357 . S
C581 C582 1.312 . S
C582 H553 0.930 . S
C582 C577 1.261 . S
C582 C581 1.312 . S
C583 O555 1.214 . S
C583 O563 1.234 . S
C584 H556 0.929 . S
C584 C587 1.391 . S
C584 C589 1.391 . S
C585 H557 0.929 . S
C585 C586 1.390 . S
C585 N588 1.391 . S
C586 H558 0.930 . S
C586 C585 1.390 . S
C586 C587 1.392 . S
C587 H559 0.929 . S
C587 C584 1.391 . S
C587 C586 1.392 . S
N588 Co532 2.257 . S
N588 C585 1.391 . S
N588 C589 1.388 . S
C589 H560 0.930 . S
C589 C584 1.391 . S
C589 N588 1.388 . S
Co590 O592 2.143 . S
Co590 O598 2.074 . S
Co590 O601 2.093 . S
Co590 O614 2.097 . S
Co590 N631 2.151 . S
Co590 N639 2.214 . S
Co591 O592 2.160 . S
Co591 O597 2.058 . S
Co591 O607 2.057 . S
Co591 O622 2.037 . S
Co591 N626 2.145 . S
Co591 N647 2.257 . S
O592 Co590 2.143 . S
O592 Co591 2.160 . S
C593 O594 1.278 . S
C593 O601 1.224 . S
O594 C593 1.278 . S
C595 O596 1.245 . S
C595 O607 1.232 . S
O596 C595 1.245 . S
O597 Co591 2.058 . S
O597 C623 1.269 . S
O598 Co590 2.074 . S
O598 C623 1.257 . S
H599 C624 0.930 . S
H600 C630 0.930 . S
O601 Co590 2.093 . S
O601 C593 1.224 . S
H602 C634 0.929 . S
H603 C636 0.930 . S
H604 C637 0.930 . S
H605 C635 0.929 . S
H606 C638 0.928 . S
O607 Co591 2.057 . S
O607 C595 1.232 . S
H608 C627 0.929 . S
H609 C628 0.929 . S
H610 C640 0.931 . S
H611 C632 0.929 . S
H612 C641 0.930 . S
H613 C633 0.931 . S
O614 Co590 2.097 . S
O614 C642 1.214 . S
H615 C643 0.929 . S
H616 C644 0.929 . S
H617 C645 0.930 . S
H618 C646 0.929 . S
H619 C648 0.930 . S
H620 C625 0.930 . S
H621 C629 0.930 . S
O622 Co591 2.037 . S
O622 C642 1.234 . S
C623 O597 1.269 . S
C623 O598 1.257 . S
C624 H599 0.930 . S
C624 C627 1.388 . S
C624 C629 1.418 . S
C625 H620 0.930 . S
C625 C628 1.404 . S
C625 C629 1.353 . S
N626 Co591 2.145 . S
N626 C627 1.397 . S
N626 C628 1.334 . S
C627 H608 0.929 . S
C627 C624 1.388 . S
C627 N626 1.397 . S
C628 H609 0.929 . S
C628 C625 1.404 . S
C628 N626 1.334 . S
C629 H621 0.930 . S
C629 C624 1.418 . S
C629 C625 1.353 . S
C630 H600 0.930 . S
C630 N631 1.330 . S
C630 C632 1.446 . S
N631 Co590 2.151 . S
N631 C630 1.330 . S
N631 C635 1.418 . S
C632 H611 0.929 . S
C632 C630 1.446 . S
C632 C633 1.332 . S
C633 H613 0.931 . S
C633 C632 1.332 . S
C633 C634 1.267 . S
C634 H602 0.929 . S
C634 C633 1.267 . S
C634 C635 1.251 . S
C635 H605 0.929 . S
C635 N631 1.418 . S
C635 C634 1.251 . S
C636 H603 0.930 . S
C636 C638 1.406 . S
C636 C641 1.261 . S
C637 H604 0.930 . S
C637 N639 1.325 . S
C637 C640 1.357 . S
C638 H606 0.928 . S
C638 C636 1.406 . S
C638 N639 1.261 . S
N639 Co590 2.214 . S
N639 C637 1.325 . S
N639 C638 1.261 . S
C640 H610 0.931 . S
C640 C637 1.357 . S
C640 C641 1.312 . S
C641 H612 0.930 . S
C641 C636 1.261 . S
C641 C640 1.312 . S
C642 O614 1.214 . S
C642 O622 1.234 . S
C643 H615 0.929 . S
C643 C646 1.391 . S
C643 C648 1.391 . S
C644 H616 0.929 . S
C644 C645 1.390 . S
C644 N647 1.391 . S
C645 H617 0.930 . S
C645 C644 1.390 . S
C645 C646 1.392 . S
C646 H618 0.929 . S
C646 C643 1.391 . S
C646 C645 1.392 . S
N647 Co591 2.257 . S
N647 C644 1.391 . S
N647 C648 1.388 . S
C648 H619 0.930 . S
C648 C643 1.391 . S
C648 N647 1.388 . S
Co649 O651 2.143 . S
Co649 O657 2.074 . S
Co649 O660 2.093 . S
Co649 O673 2.097 . S
Co649 N690 2.151 . S
Co649 N698 2.214 . S
Co650 O651 2.160 . S
Co650 O656 2.058 . S
Co650 O666 2.057 . S
Co650 O681 2.037 . S
Co650 N685 2.145 . S
Co650 N706 2.257 . S
O651 Co649 2.143 . S
O651 Co650 2.160 . S
C652 O653 1.278 . S
C652 O660 1.224 . S
O653 C652 1.278 . S
C654 O655 1.245 . S
C654 O666 1.232 . S
O655 C654 1.245 . S
O656 Co650 2.058 . S
O656 C682 1.269 . S
O657 Co649 2.074 . S
O657 C682 1.257 . S
H658 C683 0.930 . S
H659 C689 0.930 . S
O660 Co649 2.093 . S
O660 C652 1.224 . S
H661 C693 0.929 . S
H662 C695 0.930 . S
H663 C696 0.930 . S
H664 C694 0.929 . S
H665 C697 0.928 . S
O666 Co650 2.057 . S
O666 C654 1.232 . S
H667 C686 0.929 . S
H668 C687 0.929 . S
H669 C699 0.931 . S
H670 C691 0.929 . S
H671 C700 0.930 . S
H672 C692 0.931 . S
O673 Co649 2.097 . S
O673 C701 1.214 . S
H674 C702 0.929 . S
H675 C703 0.929 . S
H676 C704 0.930 . S
H677 C705 0.929 . S
H678 C707 0.930 . S
H679 C684 0.930 . S
H680 C688 0.930 . S
O681 Co650 2.037 . S
O681 C701 1.234 . S
C682 O656 1.269 . S
C682 O657 1.257 . S
C683 H658 0.930 . S
C683 C686 1.388 . S
C683 C688 1.418 . S
C684 H679 0.930 . S
C684 C687 1.404 . S
C684 C688 1.353 . S
N685 Co650 2.145 . S
N685 C686 1.397 . S
N685 C687 1.334 . S
C686 H667 0.929 . S
C686 C683 1.388 . S
C686 N685 1.397 . S
C687 H668 0.929 . S
C687 C684 1.404 . S
C687 N685 1.334 . S
C688 H680 0.930 . S
C688 C683 1.418 . S
C688 C684 1.353 . S
C689 H659 0.930 . S
C689 N690 1.330 . S
C689 C691 1.446 . S
N690 Co649 2.151 . S
N690 C689 1.330 . S
N690 C694 1.418 . S
C691 H670 0.929 . S
C691 C689 1.446 . S
C691 C692 1.332 . S
C692 H672 0.931 . S
C692 C691 1.332 . S
C692 C693 1.267 . S
C693 H661 0.929 . S
C693 C692 1.267 . S
C693 C694 1.251 . S
C694 H664 0.929 . S
C694 N690 1.418 . S
C694 C693 1.251 . S
C695 H662 0.930 . S
C695 C697 1.406 . S
C695 C700 1.261 . S
C696 H663 0.930 . S
C696 N698 1.325 . S
C696 C699 1.357 . S
C697 H665 0.928 . S
C697 C695 1.406 . S
C697 N698 1.261 . S
N698 Co649 2.214 . S
N698 C696 1.325 . S
N698 C697 1.261 . S
C699 H669 0.931 . S
C699 C696 1.357 . S
C699 C700 1.312 . S
C700 H671 0.930 . S
C700 C695 1.261 . S
C700 C699 1.312 . S
C701 O673 1.214 . S
C701 O681 1.234 . S
C702 H674 0.929 . S
C702 C705 1.391 . S
C702 C707 1.391 . S
C703 H675 0.929 . S
C703 C704 1.390 . S
C703 N706 1.391 . S
C704 H676 0.930 . S
C704 C703 1.390 . S
C704 C705 1.392 . S
C705 H677 0.929 . S
C705 C702 1.391 . S
C705 C704 1.392 . S
N706 Co650 2.257 . S
N706 C703 1.391 . S
N706 C707 1.388 . S
C707 H678 0.930 . S
C707 C702 1.391 . S
C707 N706 1.388 . S
Co708 O710 2.143 . S
Co708 O716 2.074 . S
Co708 O719 2.093 . S
Co708 O732 2.097 . S
Co708 N749 2.151 . S
Co708 N757 2.214 . S
Co709 O710 2.160 . S
Co709 O715 2.058 . S
Co709 O725 2.057 . S
Co709 O740 2.037 . S
Co709 N744 2.145 . S
Co709 N765 2.257 . S
O710 Co708 2.143 . S
O710 Co709 2.160 . S
C711 O712 1.278 . S
C711 O719 1.224 . S
O712 C711 1.278 . S
C713 O714 1.245 . S
C713 O725 1.232 . S
O714 C713 1.245 . S
O715 Co709 2.058 . S
O715 C741 1.269 . S
O716 Co708 2.074 . S
O716 C741 1.257 . S
H717 C742 0.930 . S
H718 C748 0.930 . S
O719 Co708 2.093 . S
O719 C711 1.224 . S
H720 C752 0.929 . S
H721 C754 0.930 . S
H722 C755 0.930 . S
H723 C753 0.929 . S
H724 C756 0.928 . S
O725 Co709 2.057 . S
O725 C713 1.232 . S
H726 C745 0.929 . S
H727 C746 0.929 . S
H728 C758 0.931 . S
H729 C750 0.929 . S
H730 C759 0.930 . S
H731 C751 0.931 . S
O732 Co708 2.097 . S
O732 C760 1.214 . S
H733 C761 0.929 . S
H734 C762 0.929 . S
H735 C763 0.930 . S
H736 C764 0.929 . S
H737 C766 0.930 . S
H738 C743 0.930 . S
H739 C747 0.930 . S
O740 Co709 2.037 . S
O740 C760 1.234 . S
C741 O715 1.269 . S
C741 O716 1.257 . S
C742 H717 0.930 . S
C742 C745 1.388 . S
C742 C747 1.418 . S
C743 H738 0.930 . S
C743 C746 1.404 . S
C743 C747 1.353 . S
N744 Co709 2.145 . S
N744 C745 1.397 . S
N744 C746 1.334 . S
C745 H726 0.929 . S
C745 C742 1.388 . S
C745 N744 1.397 . S
C746 H727 0.929 . S
C746 C743 1.404 . S
C746 N744 1.334 . S
C747 H739 0.930 . S
C747 C742 1.418 . S
C747 C743 1.353 . S
C748 H718 0.930 . S
C748 N749 1.330 . S
C748 C750 1.446 . S
N749 Co708 2.151 . S
N749 C748 1.330 . S
N749 C753 1.418 . S
C750 H729 0.929 . S
C750 C748 1.446 . S
C750 C751 1.332 . S
C751 H731 0.931 . S
C751 C750 1.332 . S
C751 C752 1.267 . S
C752 H720 0.929 . S
C752 C751 1.267 . S
C752 C753 1.251 . S
C753 H723 0.929 . S
C753 N749 1.418 . S
C753 C752 1.251 . S
C754 H721 0.930 . S
C754 C756 1.406 . S
C754 C759 1.261 . S
C755 H722 0.930 . S
C755 N757 1.325 . S
C755 C758 1.357 . S
C756 H724 0.928 . S
C756 C754 1.406 . S
C756 N757 1.261 . S
N757 Co708 2.214 . S
N757 C755 1.325 . S
N757 C756 1.261 . S
C758 H728 0.931 . S
C758 C755 1.357 . S
C758 C759 1.312 . S
C759 H730 0.930 . S
C759 C754 1.261 . S
C759 C758 1.312 . S
C760 O732 1.214 . S
C760 O740 1.234 . S
C761 H733 0.929 . S
C761 C764 1.391 . S
C761 C766 1.391 . S
C762 H734 0.929 . S
C762 C763 1.390 . S
C762 N765 1.391 . S
C763 H735 0.930 . S
C763 C762 1.390 . S
C763 C764 1.392 . S
C764 H736 0.929 . S
C764 C761 1.391 . S
C764 C763 1.392 . S
N765 Co709 2.257 . S
N765 C762 1.391 . S
N765 C766 1.388 . S
C766 H737 0.930 . S
C766 C761 1.391 . S
C766 N765 1.388 . S
Co767 O769 2.143 . S
Co767 O775 2.074 . S
Co767 O778 2.093 . S
Co767 O791 2.097 . S
Co767 N808 2.151 . S
Co767 N816 2.214 . S
Co768 O769 2.160 . S
Co768 O774 2.058 . S
Co768 O784 2.057 . S
Co768 O799 2.037 . S
Co768 N803 2.145 . S
Co768 N824 2.257 . S
O769 Co767 2.143 . S
O769 Co768 2.160 . S
C770 O771 1.278 . S
C770 O778 1.224 . S
O771 C770 1.278 . S
C772 O773 1.245 . S
C772 O784 1.232 . S
O773 C772 1.245 . S
O774 Co768 2.058 . S
O774 C800 1.269 . S
O775 Co767 2.074 . S
O775 C800 1.257 . S
H776 C801 0.930 . S
H777 C807 0.930 . S
O778 Co767 2.093 . S
O778 C770 1.224 . S
H779 C811 0.929 . S
H780 C813 0.930 . S
H781 C814 0.930 . S
H782 C812 0.929 . S
H783 C815 0.928 . S
O784 Co768 2.057 . S
O784 C772 1.232 . S
H785 C804 0.929 . S
H786 C805 0.929 . S
H787 C817 0.931 . S
H788 C809 0.929 . S
H789 C818 0.930 . S
H790 C810 0.931 . S
O791 Co767 2.097 . S
O791 C819 1.214 . S
H792 C820 0.929 . S
H793 C821 0.929 . S
H794 C822 0.930 . S
H795 C823 0.929 . S
H796 C825 0.930 . S
H797 C802 0.930 . S
H798 C806 0.930 . S
O799 Co768 2.037 . S
O799 C819 1.234 . S
C800 O774 1.269 . S
C800 O775 1.257 . S
C801 H776 0.930 . S
C801 C804 1.388 . S
C801 C806 1.418 . S
C802 H797 0.930 . S
C802 C805 1.404 . S
C802 C806 1.353 . S
N803 Co768 2.145 . S
N803 C804 1.397 . S
N803 C805 1.334 . S
C804 H785 0.929 . S
C804 C801 1.388 . S
C804 N803 1.397 . S
C805 H786 0.929 . S
C805 C802 1.404 . S
C805 N803 1.334 . S
C806 H798 0.930 . S
C806 C801 1.418 . S
C806 C802 1.353 . S
C807 H777 0.930 . S
C807 N808 1.330 . S
C807 C809 1.446 . S
N808 Co767 2.151 . S
N808 C807 1.330 . S
N808 C812 1.418 . S
C809 H788 0.929 . S
C809 C807 1.446 . S
C809 C810 1.332 . S
C810 H790 0.931 . S
C810 C809 1.332 . S
C810 C811 1.267 . S
C811 H779 0.929 . S
C811 C810 1.267 . S
C811 C812 1.251 . S
C812 H782 0.929 . S
C812 N808 1.418 . S
C812 C811 1.251 . S
C813 H780 0.930 . S
C813 C815 1.406 . S
C813 C818 1.261 . S
C814 H781 0.930 . S
C814 N816 1.325 . S
C814 C817 1.357 . S
C815 H783 0.928 . S
C815 C813 1.406 . S
C815 N816 1.261 . S
N816 Co767 2.214 . S
N816 C814 1.325 . S
N816 C815 1.261 . S
C817 H787 0.931 . S
C817 C814 1.357 . S
C817 C818 1.312 . S
C818 H789 0.930 . S
C818 C813 1.261 . S
C818 C817 1.312 . S
C819 O791 1.214 . S
C819 O799 1.234 . S
C820 H792 0.929 . S
C820 C823 1.391 . S
C820 C825 1.391 . S
C821 H793 0.929 . S
C821 C822 1.390 . S
C821 N824 1.391 . S
C822 H794 0.930 . S
C822 C821 1.390 . S
C822 C823 1.392 . S
C823 H795 0.929 . S
C823 C820 1.391 . S
C823 C822 1.392 . S
N824 Co768 2.257 . S
N824 C821 1.391 . S
N824 C825 1.388 . S
C825 H796 0.930 . S
C825 C820 1.391 . S
C825 N824 1.388 . S
Co826 O828 2.143 . S
Co826 O834 2.074 . S
Co826 O837 2.093 . S
Co826 O850 2.097 . S
Co826 N867 2.151 . S
Co826 N875 2.214 . S
Co827 O828 2.160 . S
Co827 O833 2.058 . S
Co827 O843 2.057 . S
Co827 O858 2.037 . S
Co827 N862 2.145 . S
Co827 N883 2.257 . S
O828 Co826 2.143 . S
O828 Co827 2.160 . S
C829 O830 1.278 . S
C829 O837 1.224 . S
O830 C829 1.278 . S
C831 O832 1.245 . S
C831 O843 1.232 . S
O832 C831 1.245 . S
O833 Co827 2.058 . S
O833 C859 1.269 . S
O834 Co826 2.074 . S
O834 C859 1.257 . S
H835 C860 0.930 . S
H836 C866 0.930 . S
O837 Co826 2.093 . S
O837 C829 1.224 . S
H838 C870 0.929 . S
H839 C872 0.930 . S
H840 C873 0.930 . S
H841 C871 0.929 . S
H842 C874 0.928 . S
O843 Co827 2.057 . S
O843 C831 1.232 . S
H844 C863 0.929 . S
H845 C864 0.929 . S
H846 C876 0.931 . S
H847 C868 0.929 . S
H848 C877 0.930 . S
H849 C869 0.931 . S
O850 Co826 2.097 . S
O850 C878 1.214 . S
H851 C879 0.929 . S
H852 C880 0.929 . S
H853 C881 0.930 . S
H854 C882 0.929 . S
H855 C884 0.930 . S
H856 C861 0.930 . S
H857 C865 0.930 . S
O858 Co827 2.037 . S
O858 C878 1.234 . S
C859 O833 1.269 . S
C859 O834 1.257 . S
C860 H835 0.930 . S
C860 C863 1.388 . S
C860 C865 1.418 . S
C861 H856 0.930 . S
C861 C864 1.404 . S
C861 C865 1.353 . S
N862 Co827 2.145 . S
N862 C863 1.397 . S
N862 C864 1.334 . S
C863 H844 0.929 . S
C863 C860 1.388 . S
C863 N862 1.397 . S
C864 H845 0.929 . S
C864 C861 1.404 . S
C864 N862 1.334 . S
C865 H857 0.930 . S
C865 C860 1.418 . S
C865 C861 1.353 . S
C866 H836 0.930 . S
C866 N867 1.330 . S
C866 C868 1.446 . S
N867 Co826 2.151 . S
N867 C866 1.330 . S
N867 C871 1.418 . S
C868 H847 0.929 . S
C868 C866 1.446 . S
C868 C869 1.332 . S
C869 H849 0.931 . S
C869 C868 1.332 . S
C869 C870 1.267 . S
C870 H838 0.929 . S
C870 C869 1.267 . S
C870 C871 1.251 . S
C871 H841 0.929 . S
C871 N867 1.418 . S
C871 C870 1.251 . S
C872 H839 0.930 . S
C872 C874 1.406 . S
C872 C877 1.261 . S
C873 H840 0.930 . S
C873 N875 1.325 . S
C873 C876 1.357 . S
C874 H842 0.928 . S
C874 C872 1.406 . S
C874 N875 1.261 . S
N875 Co826 2.214 . S
N875 C873 1.325 . S
N875 C874 1.261 . S
C876 H846 0.931 . S
C876 C873 1.357 . S
C876 C877 1.312 . S
C877 H848 0.930 . S
C877 C872 1.261 . S
C877 C876 1.312 . S
C878 O850 1.214 . S
C878 O858 1.234 . S
C879 H851 0.929 . S
C879 C882 1.391 . S
C879 C884 1.391 . S
C880 H852 0.929 . S
C880 C881 1.390 . S
C880 N883 1.391 . S
C881 H853 0.930 . S
C881 C880 1.390 . S
C881 C882 1.392 . S
C882 H854 0.929 . S
C882 C879 1.391 . S
C882 C881 1.392 . S
N883 Co827 2.257 . S
N883 C880 1.391 . S
N883 C884 1.388 . S
C884 H855 0.930 . S
C884 C879 1.391 . S
C884 N883 1.388 . S
Co885 O887 2.143 . S
Co885 O893 2.074 . S
Co885 O896 2.093 . S
Co885 O909 2.097 . S
Co885 N926 2.151 . S
Co885 N934 2.214 . S
Co886 O887 2.160 . S
Co886 O892 2.058 . S
Co886 O902 2.057 . S
Co886 O917 2.037 . S
Co886 N921 2.145 . S
Co886 N942 2.257 . S
O887 Co885 2.143 . S
O887 Co886 2.160 . S
C888 O889 1.278 . S
C888 O896 1.224 . S
O889 C888 1.278 . S
C890 O891 1.245 . S
C890 O902 1.232 . S
O891 C890 1.245 . S
O892 Co886 2.058 . S
O892 C918 1.269 . S
O893 Co885 2.074 . S
O893 C918 1.257 . S
H894 C919 0.930 . S
H895 C925 0.930 . S
O896 Co885 2.093 . S
O896 C888 1.224 . S
H897 C929 0.929 . S
H898 C931 0.930 . S
H899 C932 0.930 . S
H900 C930 0.929 . S
H901 C933 0.928 . S
O902 Co886 2.057 . S
O902 C890 1.232 . S
H903 C922 0.929 . S
H904 C923 0.929 . S
H905 C935 0.931 . S
H906 C927 0.929 . S
H907 C936 0.930 . S
H908 C928 0.931 . S
O909 Co885 2.097 . S
O909 C937 1.214 . S
H910 C938 0.929 . S
H911 C939 0.929 . S
H912 C940 0.930 . S
H913 C941 0.929 . S
H914 C943 0.930 . S
H915 C920 0.930 . S
H916 C924 0.930 . S
O917 Co886 2.037 . S
O917 C937 1.234 . S
C918 O892 1.269 . S
C918 O893 1.257 . S
C919 H894 0.930 . S
C919 C922 1.388 . S
C919 C924 1.418 . S
C920 H915 0.930 . S
C920 C923 1.404 . S
C920 C924 1.353 . S
N921 Co886 2.145 . S
N921 C922 1.397 . S
N921 C923 1.334 . S
C922 H903 0.929 . S
C922 C919 1.388 . S
C922 N921 1.397 . S
C923 H904 0.929 . S
C923 C920 1.404 . S
C923 N921 1.334 . S
C924 H916 0.930 . S
C924 C919 1.418 . S
C924 C920 1.353 . S
C925 H895 0.930 . S
C925 N926 1.330 . S
C925 C927 1.446 . S
N926 Co885 2.151 . S
N926 C925 1.330 . S
N926 C930 1.418 . S
C927 H906 0.929 . S
C927 C925 1.446 . S
C927 C928 1.332 . S
C928 H908 0.931 . S
C928 C927 1.332 . S
C928 C929 1.267 . S
C929 H897 0.929 . S
C929 C928 1.267 . S
C929 C930 1.251 . S
C930 H900 0.929 . S
C930 N926 1.418 . S
C930 C929 1.251 . S
C931 H898 0.930 . S
C931 C933 1.406 . S
C931 C936 1.261 . S
C932 H899 0.930 . S
C932 N934 1.325 . S
C932 C935 1.357 . S
C933 H901 0.928 . S
C933 C931 1.406 . S
C933 N934 1.261 . S
N934 Co885 2.214 . S
N934 C932 1.325 . S
N934 C933 1.261 . S
C935 H905 0.931 . S
C935 C932 1.357 . S
C935 C936 1.312 . S
C936 H907 0.930 . S
C936 C931 1.261 . S
C936 C935 1.312 . S
C937 O909 1.214 . S
C937 O917 1.234 . S
C938 H910 0.929 . S
C938 C941 1.391 . S
C938 C943 1.391 . S
C939 H911 0.929 . S
C939 C940 1.390 . S
C939 N942 1.391 . S
C940 H912 0.930 . S
C940 C939 1.390 . S
C940 C941 1.392 . S
C941 H913 0.929 . S
C941 C938 1.391 . S
C941 C940 1.392 . S
N942 Co886 2.257 . S
N942 C939 1.391 . S
N942 C943 1.388 . S
C943 H914 0.930 . S
C943 C938 1.391 . S
C943 N942 1.388 . S
H944 C950 0.930 . S
H945 C953 0.930 . S
H946 C954 0.930 . S
H947 C955 0.930 . S
H948 C958 0.930 . S
H949 C959 0.930 . S
C950 H944 0.930 . S
C950 C951 1.355 . S
C950 C952 1.415 . S
C951 C950 1.355 . S
C951 C953 1.419 1_556 S
C952 C950 1.415 . S
C952 C957 1.425 1_556 S
C952 C959 1.409 . S
C953 H945 0.930 . S
C953 C951 1.419 1_554 S
C953 C954 1.362 . S
C954 H946 0.930 . S
C954 C953 1.362 . S
C954 C957 1.409 . S
C955 H947 0.930 . S
C955 C956 1.355 . S
C955 C957 1.415 . S
C956 C955 1.355 . S
C956 C958 1.419 1_554 S
C957 C952 1.425 1_554 S
C957 C954 1.409 . S
C957 C955 1.415 . S
C958 H948 0.930 . S
C958 C956 1.419 1_556 S
C958 C959 1.362 . S
C959 H949 0.930 . S
C959 C952 1.409 . S
C959 C958 1.362 . S
H960 C966 0.930 . S
H961 C969 0.930 . S
H962 C970 0.930 . S
H963 C971 0.930 . S
H964 C974 0.930 . S
H965 C975 0.930 . S
C966 H960 0.930 . S
C966 C967 1.355 . S
C966 C968 1.415 1_556 S
C967 C966 1.355 . S
C967 C969 1.419 . S
C968 C966 1.415 1_554 S
C968 C973 1.425 1_554 S
C968 C975 1.409 . S
C969 H961 0.930 . S
C969 C967 1.419 . S
C969 C970 1.362 . S
C970 H962 0.930 . S
C970 C969 1.362 . S
C970 C973 1.410 . S
C971 H963 0.930 . S
C971 C972 1.355 . S
C971 C973 1.414 1_554 S
C972 C971 1.355 . S
C972 C974 1.419 . S
C973 C968 1.425 1_556 S
C973 C970 1.410 . S
C973 C971 1.414 1_556 S
C974 H964 0.930 . S
C974 C972 1.419 . S
C974 C975 1.362 . S
C975 H965 0.930 . S
C975 C968 1.409 . S
C975 C974 1.362 . S
H976 C982 0.930 . S
H977 C985 0.930 . S
H978 C986 0.930 . S
H979 C987 0.930 . S
H980 C990 0.930 . S
H981 C991 0.930 . S
C982 H976 0.930 . S
C982 C983 1.355 1_554 S
C982 C984 1.415 . S
C983 C982 1.355 1_556 S
C983 C985 1.419 . S
C984 C982 1.415 . S
C984 C989 1.425 1_554 S
C984 C991 1.409 . S
C985 H977 0.930 . S
C985 C983 1.419 . S
C985 C986 1.362 . S
C986 H978 0.930 . S
C986 C985 1.362 . S
C986 C989 1.409 . S
C987 H979 0.930 . S
C987 C988 1.355 1_556 S
C987 C989 1.415 . S
C988 C987 1.355 1_554 S
C988 C990 1.419 . S
C989 C984 1.425 1_556 S
C989 C986 1.409 . S
C989 C987 1.415 . S
C990 H980 0.930 . S
C990 C988 1.419 . S
C990 C991 1.362 . S
C991 H981 0.930 . S
C991 C984 1.409 . S
C991 C990 1.362 . S
H992 C998 0.930 . S
H993 C1001 0.930 . S
H994 C1002 0.930 . S
H995 C1003 0.930 . S
H996 C1006 0.930 . S
H997 C1007 0.930 . S
C998 H992 0.930 . S
C998 C999 1.355 . S
C998 C1000 1.415 . S
C999 C998 1.355 . S
C999 C1001 1.419 1_556 S
C1000 C998 1.415 . S
C1000 C1005 1.425 1_556 S
C1000 C1007 1.409 . S
C1001 H993 0.930 . S
C1001 C999 1.419 1_554 S
C1001 C1002 1.362 . S
C1002 H994 0.930 . S
C1002 C1001 1.362 . S
C1002 C1005 1.409 . S
C1003 H995 0.930 . S
C1003 C1004 1.355 . S
C1003 C1005 1.415 . S
C1004 C1003 1.355 . S
C1004 C1006 1.419 1_554 S
C1005 C1000 1.425 1_554 S
C1005 C1002 1.409 . S
C1005 C1003 1.415 . S
C1006 H996 0.930 . S
C1006 C1004 1.419 1_556 S
C1006 C1007 1.362 . S
C1007 H997 0.930 . S
C1007 C1000 1.409 . S
C1007 C1006 1.362 . S
H1008 C1014 0.930 . S
H1009 C1017 0.930 . S
H1010 C1018 0.930 . S
H1011 C1019 0.930 . S
H1012 C1022 0.930 . S
H1013 C1023 0.930 . S
C1014 H1008 0.930 . S
C1014 C1015 1.355 . S
C1014 C1016 1.415 . S
C1015 C1014 1.355 . S
C1015 C1017 1.419 . S
C1016 C1014 1.415 . S
C1016 C1021 1.425 1_545 S
C1016 C1023 1.409 1_545 S
C1017 H1009 0.930 . S
C1017 C1015 1.419 . S
C1017 C1018 1.362 . S
C1018 H1010 0.930 . S
C1018 C1017 1.362 . S
C1018 C1021 1.409 1_545 S
C1019 H1011 0.930 . S
C1019 C1020 1.355 . S
C1019 C1021 1.415 . S
C1020 C1019 1.355 . S
C1020 C1022 1.419 . S
C1021 C1016 1.425 1_565 S
C1021 C1018 1.409 1_565 S
C1021 C1019 1.415 . S
C1022 H1012 0.930 . S
C1022 C1020 1.419 . S
C1022 C1023 1.362 . S
C1023 H1013 0.930 . S
C1023 C1016 1.409 1_565 S
C1023 C1022 1.362 . S
H1024 C1030 0.930 . S
H1025 C1033 0.930 . S
H1026 C1034 0.930 . S
H1027 C1035 0.930 . S
H1028 C1038 0.930 . S
H1029 C1039 0.930 . S
C1030 H1024 0.930 . S
C1030 C1031 1.355 . S
C1030 C1032 1.415 . S
C1031 C1030 1.355 . S
C1031 C1033 1.419 . S
C1032 C1030 1.415 . S
C1032 C1037 1.425 1_655 S
C1032 C1039 1.409 1_655 S
C1033 H1025 0.930 . S
C1033 C1031 1.419 . S
C1033 C1034 1.362 . S
C1034 H1026 0.930 . S
C1034 C1033 1.362 . S
C1034 C1037 1.409 1_655 S
C1035 H1027 0.930 . S
C1035 C1036 1.355 . S
C1035 C1037 1.415 . S
C1036 C1035 1.355 . S
C1036 C1038 1.419 . S
C1037 C1032 1.425 1_455 S
C1037 C1034 1.409 1_455 S
C1037 C1035 1.415 . S
C1038 H1028 0.930 . S
C1038 C1036 1.419 . S
C1038 C1039 1.362 . S
C1039 H1029 0.930 . S
C1039 C1032 1.409 1_455 S
C1039 C1038 1.362 . S
H1040 C1046 0.930 . S
H1041 C1049 0.930 . S
H1042 C1050 0.930 . S
H1043 C1051 0.930 . S
H1044 C1054 0.930 . S
H1045 C1055 0.930 . S
C1046 H1040 0.930 . S
C1046 C1047 1.355 . S
C1046 C1048 1.415 . S
C1047 C1046 1.355 . S
C1047 C1049 1.419 . S
C1048 C1046 1.415 . S
C1048 C1053 1.425 1_545 S
C1048 C1055 1.409 1_545 S
C1049 H1041 0.930 . S
C1049 C1047 1.419 . S
C1049 C1050 1.362 . S
C1050 H1042 0.930 . S
C1050 C1049 1.362 . S
C1050 C1053 1.409 1_545 S
C1051 H1043 0.930 . S
C1051 C1052 1.355 . S
C1051 C1053 1.415 . S
C1052 C1051 1.355 . S
C1052 C1054 1.419 . S
C1053 C1048 1.425 1_565 S
C1053 C1050 1.409 1_565 S
C1053 C1051 1.415 . S
C1054 H1044 0.930 . S
C1054 C1052 1.419 . S
C1054 C1055 1.362 . S
C1055 H1045 0.930 . S
C1055 C1048 1.409 1_565 S
C1055 C1054 1.362 . S
H1056 C1062 0.930 . S
H1057 C1065 0.930 . S
H1058 C1066 0.930 . S
H1059 C1067 0.930 . S
H1060 C1070 0.930 . S
H1061 C1071 0.930 . S
C1062 H1056 0.930 . S
C1062 C1063 1.355 . S
C1062 C1064 1.415 . S
C1063 C1062 1.355 . S
C1063 C1065 1.419 . S
C1064 C1062 1.415 . S
C1064 C1069 1.425 1_455 S
C1064 C1071 1.409 1_455 S
C1065 H1057 0.930 . S
C1065 C1063 1.419 . S
C1065 C1066 1.362 . S
C1066 H1058 0.930 . S
C1066 C1065 1.362 . S
C1066 C1069 1.409 1_455 S
C1067 H1059 0.930 . S
C1067 C1068 1.355 . S
C1067 C1069 1.415 . S
C1068 C1067 1.355 . S
C1068 C1070 1.419 . S
C1069 C1064 1.425 1_655 S
C1069 C1066 1.409 1_655 S
C1069 C1067 1.415 . S
C1070 H1060 0.930 . S
C1070 C1068 1.419 . S
C1070 C1071 1.362 . S
C1071 H1061 0.930 . S
C1071 C1064 1.409 1_655 S
C1071 C1070 1.362 . S
H1072 C1078 0.930 . S
H1073 C1081 0.930 . S
H1074 C1082 0.930 . S
H1075 C1083 0.930 . S
H1076 C1086 0.930 . S
H1077 C1087 0.930 . S
C1078 H1072 0.930 . S
C1078 C1079 1.355 . S
C1078 C1080 1.415 . S
C1079 C1078 1.355 . S
C1079 C1081 1.419 1_554 S
C1080 C1078 1.415 . S
C1080 C1085 1.425 1_554 S
C1080 C1087 1.409 . S
C1081 H1073 0.930 . S
C1081 C1079 1.419 1_556 S
C1081 C1082 1.362 . S
C1082 H1074 0.930 . S
C1082 C1081 1.362 . S
C1082 C1085 1.409 . S
C1083 H1075 0.930 . S
C1083 C1084 1.355 . S
C1083 C1085 1.415 . S
C1084 C1083 1.355 . S
C1084 C1086 1.419 1_556 S
C1085 C1080 1.425 1_556 S
C1085 C1082 1.409 . S
C1085 C1083 1.415 . S
C1086 H1076 0.930 . S
C1086 C1084 1.419 1_554 S
C1086 C1087 1.362 . S
C1087 H1077 0.930 . S
C1087 C1080 1.409 . S
C1087 C1086 1.362 . S
H1088 C1094 0.930 . S
H1089 C1097 0.930 . S
H1090 C1098 0.930 . S
H1091 C1099 0.930 . S
H1092 C1102 0.930 . S
H1093 C1103 0.930 . S
C1094 H1088 0.930 . S
C1094 C1095 1.355 1_554 S
C1094 C1096 1.415 . S
C1095 C1094 1.355 1_556 S
C1095 C1097 1.419 . S
C1096 C1094 1.415 . S
C1096 C1101 1.425 1_554 S
C1096 C1103 1.409 . S
C1097 H1089 0.930 . S
C1097 C1095 1.419 . S
C1097 C1098 1.362 . S
C1098 H1090 0.930 . S
C1098 C1097 1.362 . S
C1098 C1101 1.409 . S
C1099 H1091 0.930 . S
C1099 C1100 1.355 1_556 S
C1099 C1101 1.415 . S
C1100 C1099 1.355 1_554 S
C1100 C1102 1.419 . S
C1101 C1096 1.425 1_556 S
C1101 C1098 1.409 . S
C1101 C1099 1.415 . S
C1102 H1092 0.930 . S
C1102 C1100 1.419 . S
C1102 C1103 1.362 . S
C1103 H1093 0.930 . S
C1103 C1096 1.409 . S
C1103 C1102 1.362 . S
H1104 C1110 0.930 . S
H1105 C1113 0.930 . S
H1106 C1114 0.930 . S
H1107 C1115 0.930 . S
H1108 C1118 0.930 . S
H1109 C1119 0.930 . S
C1110 H1104 0.930 . S
C1110 C1111 1.355 . S
C1110 C1112 1.415 . S
C1111 C1110 1.355 . S
C1111 C1113 1.419 1_554 S
C1112 C1110 1.415 . S
C1112 C1117 1.425 1_554 S
C1112 C1119 1.409 . S
C1113 H1105 0.930 . S
C1113 C1111 1.419 1_556 S
C1113 C1114 1.362 . S
C1114 H1106 0.930 . S
C1114 C1113 1.362 . S
C1114 C1117 1.409 . S
C1115 H1107 0.930 . S
C1115 C1116 1.355 . S
C1115 C1117 1.415 . S
C1116 C1115 1.355 . S
C1116 C1118 1.419 1_556 S
C1117 C1112 1.425 1_556 S
C1117 C1114 1.409 . S
C1117 C1115 1.415 . S
C1118 H1108 0.930 . S
C1118 C1116 1.419 1_554 S
C1118 C1119 1.362 . S
C1119 H1109 0.930 . S
C1119 C1112 1.409 . S
C1119 C1118 1.362 . S
H1120 C1126 0.930 . S
H1121 C1129 0.930 . S
H1122 C1130 0.930 . S
H1123 C1131 0.930 . S
H1124 C1134 0.930 . S
H1125 C1135 0.930 . S
C1126 H1120 0.930 . S
C1126 C1127 1.355 1_554 S
C1126 C1128 1.415 . S
C1127 C1126 1.355 1_556 S
C1127 C1129 1.419 . S
C1128 C1126 1.415 . S
C1128 C1133 1.425 1_554 S
C1128 C1135 1.409 . S
C1129 H1121 0.930 . S
C1129 C1127 1.419 . S
C1129 C1130 1.362 . S
C1130 H1122 0.930 . S
C1130 C1129 1.362 . S
C1130 C1133 1.409 . S
C1131 H1123 0.930 . S
C1131 C1132 1.355 1_556 S
C1131 C1133 1.415 . S
C1132 C1131 1.355 1_554 S
C1132 C1134 1.419 . S
C1133 C1128 1.425 1_556 S
C1133 C1130 1.409 . S
C1133 C1131 1.415 . S
C1134 H1124 0.930 . S
C1134 C1132 1.419 . S
C1134 C1135 1.362 . S
C1135 H1125 0.930 . S
C1135 C1128 1.409 . S
C1135 C1134 1.362 . S
H1136 C1142 0.930 . S
H1137 C1145 0.930 . S
H1138 C1146 0.930 . S
H1139 C1147 0.930 . S
H1140 C1150 0.930 . S
H1141 C1151 0.930 . S
C1142 H1136 0.930 . S
C1142 C1143 1.355 . S
C1142 C1144 1.415 . S
C1143 C1142 1.355 . S
C1143 C1145 1.419 . S
C1144 C1142 1.415 . S
C1144 C1149 1.425 . S
C1144 C1151 1.409 . S
C1145 H1137 0.930 . S
C1145 C1143 1.419 . S
C1145 C1146 1.362 . S
C1146 H1138 0.930 . S
C1146 C1145 1.362 . S
C1146 C1149 1.409 . S
C1147 H1139 0.930 . S
C1147 C1148 1.355 . S
C1147 C1149 1.415 . S
C1148 C1147 1.355 . S
C1148 C1150 1.419 . S
C1149 C1144 1.425 . S
C1149 C1146 1.409 . S
C1149 C1147 1.415 . S
C1150 H1140 0.930 . S
C1150 C1148 1.419 . S
C1150 C1151 1.362 . S
C1151 H1141 0.930 . S
C1151 C1144 1.409 . S
C1151 C1150 1.362 . S
H1152 C1158 0.930 . S
H1153 C1161 0.930 . S
H1154 C1162 0.930 . S
H1155 C1163 0.930 . S
H1156 C1166 0.930 . S
H1157 C1167 0.930 . S
C1158 H1152 0.930 . S
C1158 C1159 1.355 . S
C1158 C1160 1.415 . S
C1159 C1158 1.355 . S
C1159 C1161 1.419 . S
C1160 C1158 1.415 . S
C1160 C1165 1.425 . S
C1160 C1167 1.409 . S
C1161 H1153 0.930 . S
C1161 C1159 1.419 . S
C1161 C1162 1.362 . S
C1162 H1154 0.930 . S
C1162 C1161 1.362 . S
C1162 C1165 1.409 . S
C1163 H1155 0.930 . S
C1163 C1164 1.355 . S
C1163 C1165 1.415 . S
C1164 C1163 1.355 . S
C1164 C1166 1.419 . S
C1165 C1160 1.425 . S
C1165 C1162 1.409 . S
C1165 C1163 1.415 . S
C1166 H1156 0.930 . S
C1166 C1164 1.419 . S
C1166 C1167 1.362 . S
C1167 H1157 0.930 . S
C1167 C1160 1.409 . S
C1167 C1166 1.362 . S
H1168 C1174 0.930 . S
H1169 C1177 0.930 . S
H1170 C1178 0.930 . S
H1171 C1179 0.930 . S
H1172 C1182 0.930 . S
H1173 C1183 0.930 . S
C1174 H1168 0.930 . S
C1174 C1175 1.355 . S
C1174 C1176 1.415 . S
C1175 C1174 1.355 . S
C1175 C1177 1.419 . S
C1176 C1174 1.415 . S
C1176 C1181 1.425 . S
C1176 C1183 1.409 . S
C1177 H1169 0.930 . S
C1177 C1175 1.419 . S
C1177 C1178 1.362 . S
C1178 H1170 0.930 . S
C1178 C1177 1.362 . S
C1178 C1181 1.409 . S
C1179 H1171 0.930 . S
C1179 C1180 1.355 . S
C1179 C1181 1.415 . S
C1180 C1179 1.355 . S
C1180 C1182 1.419 . S
C1181 C1176 1.425 . S
C1181 C1178 1.409 . S
C1181 C1179 1.415 . S
C1182 H1172 0.930 . S
C1182 C1180 1.419 . S
C1182 C1183 1.362 . S
C1183 H1173 0.930 . S
C1183 C1176 1.409 . S
C1183 C1182 1.362 . S
H1184 C1190 0.930 . S
H1185 C1193 0.930 . S
H1186 C1194 0.930 . S
H1187 C1195 0.930 . S
H1188 C1198 0.930 . S
H1189 C1199 0.930 . S
C1190 H1184 0.930 . S
C1190 C1191 1.355 . S
C1190 C1192 1.415 . S
C1191 C1190 1.355 . S
C1191 C1193 1.419 . S
C1192 C1190 1.415 . S
C1192 C1197 1.425 . S
C1192 C1199 1.409 . S
C1193 H1185 0.930 . S
C1193 C1191 1.419 . S
C1193 C1194 1.362 . S
C1194 H1186 0.930 . S
C1194 C1193 1.362 . S
C1194 C1197 1.409 . S
C1195 H1187 0.930 . S
C1195 C1196 1.355 . S
C1195 C1197 1.415 . S
C1196 C1195 1.355 . S
C1196 C1198 1.419 . S
C1197 C1192 1.425 . S
C1197 C1194 1.409 . S
C1197 C1195 1.415 . S
C1198 H1188 0.930 . S
C1198 C1196 1.419 . S
C1198 C1199 1.362 . S
C1199 H1189 0.930 . S
C1199 C1192 1.409 . S
C1199 C1198 1.362 . S
H1200 C1206 0.930 . S
H1201 C1209 0.930 . S
H1202 C1210 0.930 . S
H1203 C1211 0.930 . S
H1204 C1214 0.930 . S
H1205 C1215 0.930 . S
C1206 H1200 0.930 . S
C1206 C1207 1.355 . S
C1206 C1208 1.415 . S
C1207 C1206 1.355 . S
C1207 C1209 1.419 . S
C1208 C1206 1.415 . S
C1208 C1213 1.425 . S
C1208 C1215 1.409 . S
C1209 H1201 0.930 . S
C1209 C1207 1.419 . S
C1209 C1210 1.362 . S
C1210 H1202 0.930 . S
C1210 C1209 1.362 . S
C1210 C1213 1.409 . S
C1211 H1203 0.930 . S
C1211 C1212 1.355 . S
C1211 C1213 1.415 . S
C1212 C1211 1.355 . S
C1212 C1214 1.419 . S
C1213 C1208 1.425 . S
C1213 C1210 1.409 . S
C1213 C1211 1.415 . S
C1214 H1204 0.930 . S
C1214 C1212 1.419 . S
C1214 C1215 1.362 . S
C1215 H1205 0.930 . S
C1215 C1208 1.409 . S
C1215 C1214 1.362 . S
H1216 C1222 0.930 . S
H1217 C1225 0.930 . S
H1218 C1226 0.930 . S
H1219 C1227 0.930 . S
H1220 C1230 0.930 . S
H1221 C1231 0.930 . S
C1222 H1216 0.930 . S
C1222 C1223 1.355 . S
C1222 C1224 1.415 . S
C1223 C1222 1.355 . S
C1223 C1225 1.419 . S
C1224 C1222 1.415 . S
C1224 C1229 1.425 . S
C1224 C1231 1.409 . S
C1225 H1217 0.930 . S
C1225 C1223 1.419 . S
C1225 C1226 1.362 . S
C1226 H1218 0.930 . S
C1226 C1225 1.362 . S
C1226 C1229 1.409 . S
C1227 H1219 0.930 . S
C1227 C1228 1.355 . S
C1227 C1229 1.415 . S
C1228 C1227 1.355 . S
C1228 C1230 1.419 . S
C1229 C1224 1.425 . S
C1229 C1226 1.409 . S
C1229 C1227 1.415 . S
C1230 H1220 0.930 . S
C1230 C1228 1.419 . S
C1230 C1231 1.362 . S
C1231 H1221 0.930 . S
C1231 C1224 1.409 . S
C1231 C1230 1.362 . S
H1232 C1238 0.930 . S
H1233 C1241 0.930 . S
H1234 C1242 0.930 . S
H1235 C1243 0.930 . S
H1236 C1246 0.930 . S
H1237 C1247 0.930 . S
C1238 H1232 0.930 . S
C1238 C1239 1.355 . S
C1238 C1240 1.415 . S
C1239 C1238 1.355 . S
C1239 C1241 1.419 . S
C1240 C1238 1.415 . S
C1240 C1245 1.425 . S
C1240 C1247 1.409 . S
C1241 H1233 0.930 . S
C1241 C1239 1.419 . S
C1241 C1242 1.362 . S
C1242 H1234 0.930 . S
C1242 C1241 1.362 . S
C1242 C1245 1.409 . S
C1243 H1235 0.930 . S
C1243 C1244 1.355 . S
C1243 C1245 1.415 . S
C1244 C1243 1.355 . S
C1244 C1246 1.419 . S
C1245 C1240 1.425 . S
C1245 C1242 1.409 . S
C1245 C1243 1.415 . S
C1246 H1236 0.930 . S
C1246 C1244 1.419 . S
C1246 C1247 1.362 . S
C1247 H1237 0.930 . S
C1247 C1240 1.409 . S
C1247 C1246 1.362 . S
H1248 C1254 0.930 . S
H1249 C1257 0.930 . S
H1250 C1258 0.930 . S
H1251 C1259 0.930 . S
H1252 C1262 0.930 . S
H1253 C1263 0.930 . S
C1254 H1248 0.930 . S
C1254 C1255 1.355 . S
C1254 C1256 1.415 . S
C1255 C1254 1.355 . S
C1255 C1257 1.419 . S
C1256 C1254 1.415 . S
C1256 C1261 1.425 . S
C1256 C1263 1.409 . S
C1257 H1249 0.930 . S
C1257 C1255 1.419 . S
C1257 C1258 1.362 . S
C1258 H1250 0.930 . S
C1258 C1257 1.362 . S
C1258 C1261 1.409 . S
C1259 H1251 0.930 . S
C1259 C1260 1.355 . S
C1259 C1261 1.415 . S
C1260 C1259 1.355 . S
C1260 C1262 1.419 . S
C1261 C1256 1.425 . S
C1261 C1258 1.409 . S
C1261 C1259 1.415 . S
C1262 H1252 0.930 . S
C1262 C1260 1.419 . S
C1262 C1263 1.362 . S
C1263 H1253 0.930 . S
C1263 C1256 1.409 . S
C1263 C1262 1.362 . S
H1264 C1270 0.930 . S
H1265 C1273 0.930 . S
H1266 C1274 0.930 . S
H1267 C1275 0.930 . S
H1268 C1278 0.930 . S
H1269 C1279 0.930 . S
C1270 H1264 0.930 . S
C1270 C1271 1.355 . S
C1270 C1272 1.415 . S
C1271 C1270 1.355 . S
C1271 C1273 1.419 . S
C1272 C1270 1.415 . S
C1272 C1277 1.425 . S
C1272 C1279 1.409 . S
C1273 H1265 0.930 . S
C1273 C1271 1.419 . S
C1273 C1274 1.362 . S
C1274 H1266 0.930 . S
C1274 C1273 1.362 . S
C1274 C1277 1.409 . S
C1275 H1267 0.930 . S
C1275 C1276 1.355 . S
C1275 C1277 1.415 . S
C1276 C1275 1.355 . S
C1276 C1278 1.419 . S
C1277 C1272 1.425 . S
C1277 C1274 1.409 . S
C1277 C1275 1.415 . S
C1278 H1268 0.930 . S
C1278 C1276 1.419 . S
C1278 C1279 1.362 . S
C1279 H1269 0.930 . S
C1279 C1272 1.409 . S
C1279 C1278 1.362 . S
H1280 C1286 0.930 . S
H1281 C1289 0.930 . S
H1282 C1290 0.930 . S
H1283 C1291 0.930 . S
H1284 C1294 0.930 . S
H1285 C1295 0.930 . S
C1286 H1280 0.930 . S
C1286 C1287 1.355 . S
C1286 C1288 1.415 . S
C1287 C1286 1.355 . S
C1287 C1289 1.419 . S
C1288 C1286 1.415 . S
C1288 C1293 1.425 . S
C1288 C1295 1.409 . S
C1289 H1281 0.930 . S
C1289 C1287 1.419 . S
C1289 C1290 1.362 . S
C1290 H1282 0.930 . S
C1290 C1289 1.362 . S
C1290 C1293 1.409 . S
C1291 H1283 0.930 . S
C1291 C1292 1.355 . S
C1291 C1293 1.415 . S
C1292 C1291 1.355 . S
C1292 C1294 1.419 . S
C1293 C1288 1.425 . S
C1293 C1290 1.409 . S
C1293 C1291 1.415 . S
C1294 H1284 0.930 . S
C1294 C1292 1.419 . S
C1294 C1295 1.362 . S
C1295 H1285 0.930 . S
C1295 C1288 1.409 . S
C1295 C1294 1.362 . S
H1296 C1302 0.930 . S
H1297 C1305 0.930 . S
H1298 C1306 0.930 . S
H1299 C1307 0.930 . S
H1300 C1310 0.930 . S
H1301 C1311 0.930 . S
C1302 H1296 0.930 . S
C1302 C1303 1.355 . S
C1302 C1304 1.415 . S
C1303 C1302 1.355 . S
C1303 C1305 1.419 . S
C1304 C1302 1.415 . S
C1304 C1309 1.425 . S
C1304 C1311 1.409 . S
C1305 H1297 0.930 . S
C1305 C1303 1.419 . S
C1305 C1306 1.362 . S
C1306 H1298 0.930 . S
C1306 C1305 1.362 . S
C1306 C1309 1.409 . S
C1307 H1299 0.930 . S
C1307 C1308 1.355 . S
C1307 C1309 1.415 . S
C1308 C1307 1.355 . S
C1308 C1310 1.419 . S
C1309 C1304 1.425 . S
C1309 C1306 1.409 . S
C1309 C1307 1.415 . S
C1310 H1300 0.930 . S
C1310 C1308 1.419 . S
C1310 C1311 1.362 . S
C1311 H1301 0.930 . S
C1311 C1304 1.409 . S
C1311 C1310 1.362 . S
H1312 C1318 0.930 . S
H1313 C1321 0.930 . S
H1314 C1322 0.930 . S
H1315 C1323 0.930 . S
H1316 C1326 0.930 . S
H1317 C1327 0.930 . S
C1318 H1312 0.930 . S
C1318 C1319 1.355 . S
C1318 C1320 1.415 . S
C1319 C1318 1.355 . S
C1319 C1321 1.419 . S
C1320 C1318 1.415 . S
C1320 C1325 1.425 . S
C1320 C1327 1.409 . S
C1321 H1313 0.930 . S
C1321 C1319 1.419 . S
C1321 C1322 1.362 . S
C1322 H1314 0.930 . S
C1322 C1321 1.362 . S
C1322 C1325 1.409 . S
C1323 H1315 0.930 . S
C1323 C1324 1.355 . S
C1323 C1325 1.415 . S
C1324 C1323 1.355 . S
C1324 C1326 1.419 . S
C1325 C1320 1.425 . S
C1325 C1322 1.409 . S
C1325 C1323 1.415 . S
C1326 H1316 0.930 . S
C1326 C1324 1.419 . S
C1326 C1327 1.362 . S
C1327 H1317 0.930 . S
C1327 C1320 1.409 . S
C1327 C1326 1.362 . S
H1328 C1334 0.930 . S
H1329 C1337 0.930 . S
H1330 C1338 0.930 . S
H1331 C1339 0.930 . S
H1332 C1342 0.930 . S
H1333 C1343 0.930 . S
C1334 H1328 0.930 . S
C1334 C1335 1.355 . S
C1334 C1336 1.415 . S
C1335 C1334 1.355 . S
C1335 C1337 1.419 . S
C1336 C1334 1.415 . S
C1336 C1341 1.425 . S
C1336 C1343 1.409 . S
C1337 H1329 0.930 . S
C1337 C1335 1.419 . S
C1337 C1338 1.362 . S
C1338 H1330 0.930 . S
C1338 C1337 1.362 . S
C1338 C1341 1.409 . S
C1339 H1331 0.930 . S
C1339 C1340 1.355 . S
C1339 C1341 1.415 . S
C1340 C1339 1.355 . S
C1340 C1342 1.419 . S
C1341 C1336 1.425 . S
C1341 C1338 1.409 . S
C1341 C1339 1.415 . S
C1342 H1332 0.930 . S
C1342 C1340 1.419 . S
C1342 C1343 1.362 . S
C1343 H1333 0.930 . S
C1343 C1336 1.409 . S
C1343 C1342 1.362 . S
H1344 C1350 0.930 . S
H1345 C1353 0.930 . S
H1346 C1354 0.930 . S
H1347 C1355 0.930 . S
H1348 C1358 0.930 . S
H1349 C1359 0.930 . S
C1350 H1344 0.930 . S
C1350 C1351 1.355 . S
C1350 C1352 1.415 . S
C1351 C1350 1.355 . S
C1351 C1353 1.419 . S
C1352 C1350 1.415 . S
C1352 C1357 1.425 . S
C1352 C1359 1.409 . S
C1353 H1345 0.930 . S
C1353 C1351 1.419 . S
C1353 C1354 1.362 . S
C1354 H1346 0.930 . S
C1354 C1353 1.362 . S
C1354 C1357 1.409 . S
C1355 H1347 0.930 . S
C1355 C1356 1.355 . S
C1355 C1357 1.415 . S
C1356 C1355 1.355 . S
C1356 C1358 1.419 . S
C1357 C1352 1.425 . S
C1357 C1354 1.409 . S
C1357 C1355 1.415 . S
C1358 H1348 0.930 . S
C1358 C1356 1.419 . S
C1358 C1359 1.362 . S
C1359 H1349 0.930 . S
C1359 C1352 1.409 . S
C1359 C1358 1.362 . S
H1360 C1366 0.930 . S
H1361 C1369 0.930 . S
H1362 C1370 0.930 . S
H1363 C1371 0.930 . S
H1364 C1374 0.930 . S
H1365 C1375 0.930 . S
C1366 H1360 0.930 . S
C1366 C1367 1.355 . S
C1366 C1368 1.415 . S
C1367 C1366 1.355 . S
C1367 C1369 1.419 . S
C1368 C1366 1.415 . S
C1368 C1373 1.425 . S
C1368 C1375 1.409 . S
C1369 H1361 0.930 . S
C1369 C1367 1.419 . S
C1369 C1370 1.362 . S
C1370 H1362 0.930 . S
C1370 C1369 1.362 . S
C1370 C1373 1.409 . S
C1371 H1363 0.930 . S
C1371 C1372 1.355 . S
C1371 C1373 1.415 . S
C1372 C1371 1.355 . S
C1372 C1374 1.419 . S
C1373 C1368 1.425 . S
C1373 C1370 1.409 . S
C1373 C1371 1.415 . S
C1374 H1364 0.930 . S
C1374 C1372 1.419 . S
C1374 C1375 1.362 . S
C1375 H1365 0.930 . S
C1375 C1368 1.409 . S
C1375 C1374 1.362 . S
H1376 C1382 0.930 . S
H1377 C1385 0.930 . S
H1378 C1386 0.930 . S
H1379 C1387 0.930 . S
H1380 C1390 0.930 . S
H1381 C1391 0.930 . S
C1382 H1376 0.930 . S
C1382 C1383 1.355 . S
C1382 C1384 1.415 . S
C1383 C1382 1.355 . S
C1383 C1385 1.419 . S
C1384 C1382 1.415 . S
C1384 C1389 1.425 . S
C1384 C1391 1.409 . S
C1385 H1377 0.930 . S
C1385 C1383 1.419 . S
C1385 C1386 1.362 . S
C1386 H1378 0.930 . S
C1386 C1385 1.362 . S
C1386 C1389 1.409 . S
C1387 H1379 0.930 . S
C1387 C1388 1.355 . S
C1387 C1389 1.415 . S
C1388 C1387 1.355 . S
C1388 C1390 1.419 . S
C1389 C1384 1.425 . S
C1389 C1386 1.409 . S
C1389 C1387 1.415 . S
C1390 H1380 0.930 . S
C1390 C1388 1.419 . S
C1390 C1391 1.362 . S
C1391 H1381 0.930 . S
C1391 C1384 1.409 . S
C1391 C1390 1.362 . S
H1392 C1398 0.930 . S
H1393 C1401 0.930 . S
H1394 C1402 0.930 . S
H1395 C1403 0.930 . S
H1396 C1406 0.930 . S
H1397 C1407 0.930 . S
C1398 H1392 0.930 . S
C1398 C1399 1.355 . S
C1398 C1400 1.415 . S
C1399 C1398 1.355 . S
C1399 C1401 1.419 . S
C1400 C1398 1.415 . S
C1400 C1405 1.425 . S
C1400 C1407 1.409 . S
C1401 H1393 0.930 . S
C1401 C1399 1.419 . S
C1401 C1402 1.362 . S
C1402 H1394 0.930 . S
C1402 C1401 1.362 . S
C1402 C1405 1.409 . S
C1403 H1395 0.930 . S
C1403 C1404 1.355 . S
C1403 C1405 1.415 . S
C1404 C1403 1.355 . S
C1404 C1406 1.419 . S
C1405 C1400 1.425 . S
C1405 C1402 1.409 . S
C1405 C1403 1.415 . S
C1406 H1396 0.930 . S
C1406 C1404 1.419 . S
C1406 C1407 1.362 . S
C1407 H1397 0.930 . S
C1407 C1400 1.409 . S
C1407 C1406 1.362 . S
H1408 C1414 0.930 . S
H1409 C1417 0.930 . S
H1410 C1418 0.930 . S
H1411 C1419 0.930 . S
H1412 C1422 0.930 . S
H1413 C1423 0.930 . S
C1414 H1408 0.930 . S
C1414 C1415 1.355 . S
C1414 C1416 1.415 . S
C1415 C1414 1.355 . S
C1415 C1417 1.419 . S
C1416 C1414 1.415 . S
C1416 C1421 1.425 . S
C1416 C1423 1.409 . S
C1417 H1409 0.930 . S
C1417 C1415 1.419 . S
C1417 C1418 1.362 . S
C1418 H1410 0.930 . S
C1418 C1417 1.362 . S
C1418 C1421 1.409 . S
C1419 H1411 0.930 . S
C1419 C1420 1.355 . S
C1419 C1421 1.415 . S
C1420 C1419 1.355 . S
C1420 C1422 1.419 . S
C1421 C1416 1.425 . S
C1421 C1418 1.409 . S
C1421 C1419 1.415 . S
C1422 H1412 0.930 . S
C1422 C1420 1.419 . S
C1422 C1423 1.362 . S
C1423 H1413 0.930 . S
C1423 C1416 1.409 . S
C1423 C1422 1.362 . S
H1424 C1430 0.930 . S
H1425 C1433 0.930 . S
H1426 C1434 0.930 . S
H1427 C1435 0.930 . S
H1428 C1438 0.930 . S
H1429 C1439 0.930 . S
C1430 H1424 0.930 . S
C1430 C1431 1.355 . S
C1430 C1432 1.415 . S
C1431 C1430 1.355 . S
C1431 C1433 1.419 . S
C1432 C1430 1.415 . S
C1432 C1437 1.425 . S
C1432 C1439 1.409 . S
C1433 H1425 0.930 . S
C1433 C1431 1.419 . S
C1433 C1434 1.362 . S
C1434 H1426 0.930 . S
C1434 C1433 1.362 . S
C1434 C1437 1.409 . S
C1435 H1427 0.930 . S
C1435 C1436 1.355 . S
C1435 C1437 1.415 . S
C1436 C1435 1.355 . S
C1436 C1438 1.419 . S
C1437 C1432 1.425 . S
C1437 C1434 1.409 . S
C1437 C1435 1.415 . S
C1438 H1428 0.930 . S
C1438 C1436 1.419 . S
C1438 C1439 1.362 . S
C1439 H1429 0.930 . S
C1439 C1432 1.409 . S
C1439 C1438 1.362 . S
H1440 C1446 0.930 . S
H1441 C1449 0.930 . S
H1442 C1450 0.930 . S
H1443 C1451 0.930 . S
H1444 C1454 0.930 . S
H1445 C1455 0.930 . S
C1446 H1440 0.930 . S
C1446 C1447 1.355 . S
C1446 C1448 1.415 . S
C1447 C1446 1.355 . S
C1447 C1449 1.419 . S
C1448 C1446 1.415 . S
C1448 C1453 1.425 . S
C1448 C1455 1.409 . S
C1449 H1441 0.930 . S
C1449 C1447 1.419 . S
C1449 C1450 1.362 . S
C1450 H1442 0.930 . S
C1450 C1449 1.362 . S
C1450 C1453 1.409 . S
C1451 H1443 0.930 . S
C1451 C1452 1.355 . S
C1451 C1453 1.415 . S
C1452 C1451 1.355 . S
C1452 C1454 1.419 . S
C1453 C1448 1.425 . S
C1453 C1450 1.409 . S
C1453 C1451 1.415 . S
C1454 H1444 0.930 . S
C1454 C1452 1.419 . S
C1454 C1455 1.362 . S
C1455 H1445 0.930 . S
C1455 C1448 1.409 . S
C1455 C1454 1.362 . S
C951 C241 1.557 . S
C956 C5 1.554 . S
C967 C300 1.559 . S
C972 C64 1.556 . S
C983 C359 1.557 . S
C988 C123 1.559 . S
C999 C418 1.552 . S
C1004 C182 1.554 . S
C1015 C713 1.557 . S
C1020 C477 1.559 . S
C1031 C772 1.556 . S
C1036 C536 1.559 . S
C1047 C595 1.555 . S
C1052 C831 1.558 . S
C1063 C890 1.560 . S
C1068 C654 1.560 . S
C1079 C52 1.581 . S
C1084 C347 1.584 . S
C1095 C406 1.602 . S
C1100 C111 1.606 . S
C1111 C170 1.585 . S
C1116 C465 1.581 . S
C1127 C288 1.600 . S
C1132 C229 1.595 . S
C1143 C819 1.601 . S
C1148 C524 1.597 . S
C1159 C878 1.602 . S
C1164 C583 1.598 . S
C1175 C642 1.589 . S
C1180 C937 1.585 . S
C1191 C701 1.596 . S
C1196 C760 1.601 . S
C1207 C918 1.750 . S
C1212 C33 1.757 . S
C1223 C741 1.747 . S
C1228 C92 1.747 . S
C1239 C800 1.750 . S
C1244 C151 1.745 . S
C1255 C859 1.752 . S
C1260 C210 1.757 . S
C1271 C564 1.754 . S
C1276 C269 1.746 . S
C1287 C623 1.757 . S
C1292 C328 1.750 . S
C1303 C387 1.753 . S
C1308 C682 1.745 . S
C1319 C446 1.749 . S
C1324 C505 1.745 . S
C1335 C770 1.168 . S
C1340 C121 1.122 . S
C1351 C829 1.137 . S
C1356 C180 1.148 . S
C1367 C888 1.171 . S
C1372 C3 1.132 . S
C1383 C62 1.134 . S
C1388 C711 1.169 . S
C1399 C652 1.120 . S
C1404 C357 1.172 . S
C1415 C416 1.124 . S
C1420 C475 1.164 . S
C1431 C534 1.126 . S
C1436 C239 1.161 . S
C1447 C593 1.126 . S
C1452 C298 1.160 . S
