# Generated by pormake.
# Topology ato, (4)-cn, num edge types: 1
# Building blocks:
#     Node 0, Type 0, BuildingBlock: QUQFOY_clean_sbu_3, # of connection points: 4
#     Node 1, Type 0, BuildingBlock: QUQFOY_clean_sbu_3, # of connection points: 4
#     Node 2, Type 0, BuildingBlock: QUQFOY_clean_sbu_3, # of connection points: 4
#     Node 3, Type 0, BuildingBlock: QUQFOY_clean_sbu_3, # of connection points: 4
#     Node 4, Type 0, BuildingBlock: QUQFOY_clean_sbu_3, # of connection points: 4
#     Node 5, Type 0, BuildingBlock: QUQFOY_clean_sbu_3, # of connection points: 4
#     Node 6, Type 0, BuildingBlock: QUQFOY_clean_sbu_3, # of connection points: 4
#     Node 7, Type 0, BuildingBlock: QUQFOY_clean_sbu_3, # of connection points: 4
#     Node 8, Type 0, BuildingBlock: QUQFOY_clean_sbu_3, # of connection points: 4
#     Node 9, Type 0, BuildingBlock: QUQFOY_clean_sbu_3, # of connection points: 4
#     Node 10, Type 0, BuildingBlock: QUQFOY_clean_sbu_3, # of connection points: 4
#     Node 11, Type 0, BuildingBlock: QUQFOY_clean_sbu_3, # of connection points: 4
#     Node 12, Type 0, BuildingBlock: QUQFOY_clean_sbu_3, # of connection points: 4
#     Node 13, Type 0, BuildingBlock: QUQFOY_clean_sbu_3, # of connection points: 4
#     Node 14, Type 0, BuildingBlock: QUQFOY_clean_sbu_3, # of connection points: 4
#     Node 15, Type 0, BuildingBlock: QUQFOY_clean_sbu_3, # of connection points: 4
#     Node 16, Type 0, BuildingBlock: QUQFOY_clean_sbu_3, # of connection points: 4
#     Node 17, Type 0, BuildingBlock: QUQFOY_clean_sbu_3, # of connection points: 4
#     Node 18, Type 0, BuildingBlock: QUQFOY_clean_sbu_3, # of connection points: 4
#     Node 19, Type 0, BuildingBlock: QUQFOY_clean_sbu_3, # of connection points: 4
#     Node 20, Type 0, BuildingBlock: QUQFOY_clean_sbu_3, # of connection points: 4
#     Node 21, Type 0, BuildingBlock: QUQFOY_clean_sbu_3, # of connection points: 4
#     Node 22, Type 0, BuildingBlock: QUQFOY_clean_sbu_3, # of connection points: 4
#     Node 23, Type 0, BuildingBlock: QUQFOY_clean_sbu_3, # of connection points: 4
#     Node 24, Type 0, BuildingBlock: QUQFOY_clean_sbu_3, # of connection points: 4
#     Node 25, Type 0, BuildingBlock: QUQFOY_clean_sbu_3, # of connection points: 4
#     Node 26, Type 0, BuildingBlock: QUQFOY_clean_sbu_3, # of connection points: 4
#     Node 27, Type 0, BuildingBlock: QUQFOY_clean_sbu_3, # of connection points: 4
#     Node 28, Type 0, BuildingBlock: QUQFOY_clean_sbu_3, # of connection points: 4
#     Node 29, Type 0, BuildingBlock: QUQFOY_clean_sbu_3, # of connection points: 4
#     Node 30, Type 0, BuildingBlock: QUQFOY_clean_sbu_3, # of connection points: 4
#     Node 31, Type 0, BuildingBlock: QUQFOY_clean_sbu_3, # of connection points: 4
#     Node 32, Type 0, BuildingBlock: QUQFOY_clean_sbu_3, # of connection points: 4
#     Node 33, Type 0, BuildingBlock: QUQFOY_clean_sbu_3, # of connection points: 4
#     Node 34, Type 0, BuildingBlock: QUQFOY_clean_sbu_3, # of connection points: 4
#     Node 35, Type 0, BuildingBlock: QUQFOY_clean_sbu_3, # of connection points: 4
#     Edge 36, Type (0, 0), BuildingBlock: KIFKEQ_clean_linker_1, # of connection points: 2
#     Edge 37, Type (0, 0), BuildingBlock: KIFKEQ_clean_linker_1, # of connection points: 2
#     Edge 38, Type (0, 0), BuildingBlock: KIFKEQ_clean_linker_1, # of connection points: 2
#     Edge 39, Type (0, 0), BuildingBlock: KIFKEQ_clean_linker_1, # of connection points: 2
#     Edge 40, Type (0, 0), BuildingBlock: KIFKEQ_clean_linker_1, # of connection points: 2
#     Edge 41, Type (0, 0), BuildingBlock: KIFKEQ_clean_linker_1, # of connection points: 2
#     Edge 42, Type (0, 0), BuildingBlock: KIFKEQ_clean_linker_1, # of connection points: 2
#     Edge 43, Type (0, 0), BuildingBlock: KIFKEQ_clean_linker_1, # of connection points: 2
#     Edge 44, Type (0, 0), BuildingBlock: KIFKEQ_clean_linker_1, # of connection points: 2
#     Edge 45, Type (0, 0), BuildingBlock: KIFKEQ_clean_linker_1, # of connection points: 2
#     Edge 46, Type (0, 0), BuildingBlock: KIFKEQ_clean_linker_1, # of connection points: 2
#     Edge 47, Type (0, 0), BuildingBlock: KIFKEQ_clean_linker_1, # of connection points: 2
#     Edge 48, Type (0, 0), BuildingBlock: KIFKEQ_clean_linker_1, # of connection points: 2
#     Edge 49, Type (0, 0), BuildingBlock: KIFKEQ_clean_linker_1, # of connection points: 2
#     Edge 50, Type (0, 0), BuildingBlock: KIFKEQ_clean_linker_1, # of connection points: 2
#     Edge 51, Type (0, 0), BuildingBlock: KIFKEQ_clean_linker_1, # of connection points: 2
#     Edge 52, Type (0, 0), BuildingBlock: KIFKEQ_clean_linker_1, # of connection points: 2
#     Edge 53, Type (0, 0), BuildingBlock: KIFKEQ_clean_linker_1, # of connection points: 2
#     Edge 54, Type (0, 0), BuildingBlock: KIFKEQ_clean_linker_1, # of connection points: 2
#     Edge 55, Type (0, 0), BuildingBlock: KIFKEQ_clean_linker_1, # of connection points: 2
#     Edge 56, Type (0, 0), BuildingBlock: KIFKEQ_clean_linker_1, # of connection points: 2
#     Edge 57, Type (0, 0), BuildingBlock: KIFKEQ_clean_linker_1, # of connection points: 2
#     Edge 58, Type (0, 0), BuildingBlock: KIFKEQ_clean_linker_1, # of connection points: 2
#     Edge 59, Type (0, 0), BuildingBlock: KIFKEQ_clean_linker_1, # of connection points: 2
#     Edge 60, Type (0, 0), BuildingBlock: KIFKEQ_clean_linker_1, # of connection points: 2
#     Edge 61, Type (0, 0), BuildingBlock: KIFKEQ_clean_linker_1, # of connection points: 2
#     Edge 62, Type (0, 0), BuildingBlock: KIFKEQ_clean_linker_1, # of connection points: 2
#     Edge 63, Type (0, 0), BuildingBlock: KIFKEQ_clean_linker_1, # of connection points: 2
#     Edge 64, Type (0, 0), BuildingBlock: KIFKEQ_clean_linker_1, # of connection points: 2
#     Edge 65, Type (0, 0), BuildingBlock: KIFKEQ_clean_linker_1, # of connection points: 2
#     Edge 66, Type (0, 0), BuildingBlock: KIFKEQ_clean_linker_1, # of connection points: 2
#     Edge 67, Type (0, 0), BuildingBlock: KIFKEQ_clean_linker_1, # of connection points: 2
#     Edge 68, Type (0, 0), BuildingBlock: KIFKEQ_clean_linker_1, # of connection points: 2
#     Edge 69, Type (0, 0), BuildingBlock: KIFKEQ_clean_linker_1, # of connection points: 2
#     Edge 70, Type (0, 0), BuildingBlock: KIFKEQ_clean_linker_1, # of connection points: 2
#     Edge 71, Type (0, 0), BuildingBlock: KIFKEQ_clean_linker_1, # of connection points: 2
#     Edge 72, Type (0, 0), BuildingBlock: KIFKEQ_clean_linker_1, # of connection points: 2
#     Edge 73, Type (0, 0), BuildingBlock: KIFKEQ_clean_linker_1, # of connection points: 2
#     Edge 74, Type (0, 0), BuildingBlock: KIFKEQ_clean_linker_1, # of connection points: 2
#     Edge 75, Type (0, 0), BuildingBlock: KIFKEQ_clean_linker_1, # of connection points: 2
#     Edge 76, Type (0, 0), BuildingBlock: KIFKEQ_clean_linker_1, # of connection points: 2
#     Edge 77, Type (0, 0), BuildingBlock: KIFKEQ_clean_linker_1, # of connection points: 2
#     Edge 78, Type (0, 0), BuildingBlock: KIFKEQ_clean_linker_1, # of connection points: 2
#     Edge 79, Type (0, 0), BuildingBlock: KIFKEQ_clean_linker_1, # of connection points: 2
#     Edge 80, Type (0, 0), BuildingBlock: KIFKEQ_clean_linker_1, # of connection points: 2
#     Edge 81, Type (0, 0), BuildingBlock: KIFKEQ_clean_linker_1, # of connection points: 2
#     Edge 82, Type (0, 0), BuildingBlock: KIFKEQ_clean_linker_1, # of connection points: 2
#     Edge 83, Type (0, 0), BuildingBlock: KIFKEQ_clean_linker_1, # of connection points: 2
#     Edge 84, Type (0, 0), BuildingBlock: KIFKEQ_clean_linker_1, # of connection points: 2
#     Edge 85, Type (0, 0), BuildingBlock: KIFKEQ_clean_linker_1, # of connection points: 2
#     Edge 86, Type (0, 0), BuildingBlock: KIFKEQ_clean_linker_1, # of connection points: 2
#     Edge 87, Type (0, 0), BuildingBlock: KIFKEQ_clean_linker_1, # of connection points: 2
#     Edge 88, Type (0, 0), BuildingBlock: KIFKEQ_clean_linker_1, # of connection points: 2
#     Edge 89, Type (0, 0), BuildingBlock: KIFKEQ_clean_linker_1, # of connection points: 2
#     Edge 90, Type (0, 0), BuildingBlock: KIFKEQ_clean_linker_1, # of connection points: 2
#     Edge 91, Type (0, 0), BuildingBlock: KIFKEQ_clean_linker_1, # of connection points: 2
#     Edge 92, Type (0, 0), BuildingBlock: KIFKEQ_clean_linker_1, # of connection points: 2
#     Edge 93, Type (0, 0), BuildingBlock: KIFKEQ_clean_linker_1, # of connection points: 2
#     Edge 94, Type (0, 0), BuildingBlock: KIFKEQ_clean_linker_1, # of connection points: 2
#     Edge 95, Type (0, 0), BuildingBlock: KIFKEQ_clean_linker_1, # of connection points: 2
#     Edge 96, Type (0, 0), BuildingBlock: KIFKEQ_clean_linker_1, # of connection points: 2
#     Edge 97, Type (0, 0), BuildingBlock: KIFKEQ_clean_linker_1, # of connection points: 2
#     Edge 98, Type (0, 0), BuildingBlock: KIFKEQ_clean_linker_1, # of connection points: 2
#     Edge 99, Type (0, 0), BuildingBlock: KIFKEQ_clean_linker_1, # of connection points: 2
#     Edge 100, Type (0, 0), BuildingBlock: KIFKEQ_clean_linker_1, # of connection points: 2
#     Edge 101, Type (0, 0), BuildingBlock: KIFKEQ_clean_linker_1, # of connection points: 2
#     Edge 102, Type (0, 0), BuildingBlock: KIFKEQ_clean_linker_1, # of connection points: 2
#     Edge 103, Type (0, 0), BuildingBlock: KIFKEQ_clean_linker_1, # of connection points: 2
#     Edge 104, Type (0, 0), BuildingBlock: KIFKEQ_clean_linker_1, # of connection points: 2
#     Edge 105, Type (0, 0), BuildingBlock: KIFKEQ_clean_linker_1, # of connection points: 2
#     Edge 106, Type (0, 0), BuildingBlock: KIFKEQ_clean_linker_1, # of connection points: 2
#     Edge 107, Type (0, 0), BuildingBlock: KIFKEQ_clean_linker_1, # of connection points: 2
# Relax obj value: 0.073
# Max RMSD: 0.088
# Mean RMSD: 0.088
data_MOF--net-ato--node1-QUQFOY_clean_sbu_3--edge1-KIFKEQ_clean_linker_1
_symmetry_space_group_name_H-M    P1
_symmetry_Int_Tables_number       1
_symmetry_cell_setting            triclinic
loop_
_symmetry_equiv_pos_as_xyz
'x, y, z'
_cell_length_a     107.34938
_cell_length_b     107.49977
_cell_length_c     25.202186
_cell_angle_alpha  89.944416
_cell_angle_beta   90.049955
_cell_angle_gamma 120.03753
loop_
_atom_site_label
_atom_site_type_symbol
_atom_site_fract_x
_atom_site_fract_y
_atom_site_fract_z
_atom_type_partial_charge
C0 C 0.22034 0.06621 0.21317 0.0
O1 O 0.22 0.06387 0.16365 0.0
Cd2 Cd 0.2273 0.04904 0.11996 0.0
O3 O 0.22466 0.0601 0.24582 0.0
Cd4 Cd 0.2326 0.04197 0.2393 0.0
C5 C 0.262 0.06439 0.16679 0.0
O6 O 0.21569 0.02766 0.17104 0.0
O7 O 0.23186 0.02206 0.18813 0.0
O8 O 0.21911 0.0317 0.3205 0.0
C9 C 0.22062 0.01936 0.16258 0.0
O10 O 0.25355 0.06158 0.12743 0.0
C11 C 0.22852 0.02945 0.34178 0.0
O12 O 0.2571 0.05933 0.21267 0.0
O13 O 0.24017 0.03366 0.31637 0.0
C14 C 0.91171 0.15497 0.2173 0.0
O15 O 0.91555 0.15757 0.16905 0.0
Cd16 Cd 0.93142 0.18039 0.13175 0.0
O17 O 0.91707 0.16486 0.2523 0.0
Cd18 Cd 0.9367 0.19065 0.25368 0.0
C19 C 0.91657 0.20023 0.17988 0.0
O20 O 0.95185 0.18893 0.18714 0.0
O21 O 0.95742 0.21053 0.2069 0.0
O22 O 0.94702 0.18584 0.33106 0.0
C23 C 0.96038 0.20223 0.18106 0.0
O24 O 0.91952 0.19468 0.14066 0.0
C25 C 0.94818 0.19626 0.35845 0.0
O26 O 0.92088 0.19967 0.22648 0.0
O27 O 0.94328 0.20377 0.33803 0.0
C28 C 0.82633 0.7539 0.19175 0.0
O29 O 0.82352 0.75305 0.14252 0.0
Cd30 Cd 0.8005 0.74327 0.10309 0.0
O31 O 0.81627 0.74954 0.2261 0.0
Cd32 Cd 0.7896 0.73948 0.22186 0.0
C33 C 0.78402 0.70952 0.15934 0.0
O34 O 0.7894 0.75429 0.14992 0.0
O35 O 0.76904 0.73545 0.16629 0.0
O36 O 0.79169 0.75439 0.29785 0.0
C37 C 0.77602 0.74716 0.14117 0.0
O38 O 0.78845 0.71728 0.11775 0.0
C39 C 0.7805 0.74481 0.32117 0.0
O40 O 0.7843 0.71506 0.20427 0.0
O41 O 0.77395 0.73249 0.29963 0.0
C42 C 0.06146 0.2276 0.75289 0.0
O43 O 0.06163 0.2273 0.8032 0.0
Cd44 Cd 0.0512 0.23715 0.86039 0.0
O45 O 0.05426 0.23225 0.72807 0.0
Cd46 Cd 0.03633 0.23951 0.75373 0.0
C47 C 0.06308 0.27055 0.80308 0.0
O48 O 0.02681 0.22576 0.83469 0.0
O49 O 0.02194 0.24272 0.82222 0.0
O50 O 0.01856 0.22172 0.6949 0.0
C51 C 0.02032 0.2322 0.85019 0.0
O52 O 0.06322 0.26295 0.84171 0.0
C53 C 0.01656 0.23048 0.66754 0.0
O54 O 0.05471 0.26472 0.76362 0.0
O55 O 0.02417 0.24372 0.67915 0.0
C56 C 0.74795 0.82102 0.74778 0.0
O57 O 0.7485 0.81905 0.7972 0.0
Cd58 Cd 0.74039 0.7966 0.83979 0.0
O59 O 0.74326 0.81053 0.7154 0.0
Cd60 Cd 0.73512 0.7844 0.72226 0.0
C61 C 0.70574 0.77812 0.79017 0.0
O62 O 0.75134 0.78574 0.7916 0.0
O63 O 0.73281 0.76483 0.77952 0.0
O64 O 0.75006 0.78801 0.64521 0.0
C65 C 0.74477 0.77248 0.80252 0.0
O66 O 0.71417 0.78307 0.82996 0.0
C67 C 0.74129 0.77631 0.62257 0.0
O68 O 0.7106 0.77838 0.74381 0.0
O69 O 0.72922 0.76858 0.64507 0.0
C70 C 0.14986 0.91471 0.74335 0.0
O71 O 0.14949 0.91551 0.79354 0.0
Cd72 Cd 0.16977 0.92917 0.84943 0.0
O73 O 0.16148 0.92241 0.71772 0.0
Cd74 Cd 0.18611 0.94234 0.73885 0.0
C75 C 0.1933 0.91876 0.80045 0.0
O76 O 0.18046 0.9527 0.81415 0.0
O77 O 0.20291 0.95972 0.80252 0.0
O78 O 0.18344 0.95549 0.66578 0.0
C79 C 0.19338 0.96077 0.82848 0.0
O80 O 0.18552 0.91889 0.83841 0.0
C81 C 0.19571 0.95949 0.64567 0.0
O82 O 0.19477 0.92578 0.75789 0.0
O83 O 0.20338 0.95503 0.66785 0.0
C84 C 0.74742 0.90905 0.74403 0.0
O85 O 0.74698 0.90857 0.79432 0.0
Cd86 Cd 0.73817 0.92021 0.85024 0.0
O87 O 0.74381 0.91693 0.71811 0.0
Cd88 Cd 0.73723 0.93542 0.7423 0.0
C89 C 0.70527 0.91028 0.79228 0.0
O90 O 0.75117 0.94448 0.82311 0.0
O91 O 0.73519 0.9507 0.80994 0.0
O92 O 0.75548 0.95256 0.6829 0.0
C93 C 0.74548 0.95175 0.83798 0.0
O94 O 0.7125 0.90978 0.83155 0.0
C95 C 0.747 0.95496 0.6554 0.0
O96 O 0.71158 0.91821 0.75225 0.0
O97 O 0.73371 0.94786 0.66725 0.0
C98 C 0.07259 0.82133 0.74402 0.0
O99 O 0.07532 0.8215 0.79308 0.0
Cd100 Cd 0.06176 0.80312 0.85606 0.0
O101 O 0.06183 0.81059 0.72278 0.0
Cd102 Cd 0.0427 0.78664 0.75428 0.0
C103 C 0.06617 0.77662 0.799 0.0
O104 O 0.03709 0.7945 0.83679 0.0
O105 O 0.02726 0.77156 0.82616 0.0
O106 O 0.02563 0.78917 0.69938 0.0
C107 C 0.02846 0.78197 0.85371 0.0
O108 O 0.0683 0.78508 0.83762 0.0
C109 C 0.02168 0.77787 0.6723 0.0
O110 O 0.05795 0.77557 0.76063 0.0
O111 O 0.02777 0.77059 0.68256 0.0
C112 C 0.15213 0.23358 0.75753 0.0
O113 O 0.15433 0.23479 0.80726 0.0
Cd114 Cd 0.17669 0.24397 0.85148 0.0
O115 O 0.16248 0.23708 0.72506 0.0
Cd116 Cd 0.18873 0.24536 0.73378 0.0
C117 C 0.19622 0.27688 0.7901 0.0
O118 O 0.18665 0.23112 0.81059 0.0
O119 O 0.20838 0.24686 0.79014 0.0
O120 O 0.1861 0.22834 0.66568 0.0
C121 C 0.19994 0.23644 0.81947 0.0
O122 O 0.19031 0.26962 0.83185 0.0
C123 C 0.19644 0.23731 0.63707 0.0
O124 O 0.19653 0.27068 0.74748 0.0
O125 O 0.20294 0.25032 0.65239 0.0
C126 C 0.92212 0.76624 0.22241 0.0
O127 O 0.92603 0.76799 0.17415 0.0
Cd128 Cd 0.94076 0.75974 0.13433 0.0
O129 O 0.92697 0.76075 0.25559 0.0
Cd130 Cd 0.94534 0.75312 0.25459 0.0
C131 C 0.92332 0.72464 0.17805 0.0
O132 O 0.96173 0.76936 0.18799 0.0
O133 O 0.96452 0.75146 0.20828 0.0
O134 O 0.9568 0.76685 0.33399 0.0
C135 C 0.96885 0.76298 0.18216 0.0
O136 O 0.92695 0.73337 0.13919 0.0
C137 C 0.95608 0.75637 0.35984 0.0
O138 O 0.92789 0.72914 0.22476 0.0
O139 O 0.94977 0.74415 0.3374 0.0
C140 C 0.22322 0.15598 0.22384 0.0
O141 O 0.22238 0.1564 0.17372 0.0
Cd142 Cd 0.23338 0.17774 0.12209 0.0
O143 O 0.2291 0.16745 0.25143 0.0
Cd144 Cd 0.23821 0.19344 0.23448 0.0
C145 C 0.26759 0.19578 0.17713 0.0
O146 O 0.2238 0.19142 0.15818 0.0
O147 O 0.24166 0.21267 0.17224 0.0
O148 O 0.2214 0.19227 0.30017 0.0
C149 C 0.23057 0.20454 0.14512 0.0
O150 O 0.25932 0.18921 0.13812 0.0
C151 C 0.23048 0.20272 0.32802 0.0
O152 O 0.26266 0.1983 0.21922 0.0
O153 O 0.24356 0.20876 0.31335 0.0
C154 C 0.82004 0.06276 0.20009 0.0
O155 O 0.81649 0.05934 0.15193 0.0
Cd156 Cd 0.79426 0.04075 0.11819 0.0
O157 O 0.8113 0.05581 0.23755 0.0
Cd158 Cd 0.78637 0.03466 0.24222 0.0
C159 C 0.77182 0.05135 0.17262 0.0
O160 O 0.78909 0.02077 0.17293 0.0
O161 O 0.76733 0.0128 0.19858 0.0
O162 O 0.7922 0.0247 0.3187 0.0
C163 C 0.77602 0.01109 0.16978 0.0
O164 O 0.7772 0.04919 0.13103 0.0
C165 C 0.78192 0.02352 0.3473 0.0
O166 O 0.77422 0.04788 0.21825 0.0
O167 O 0.77415 0.02823 0.32789 0.0
C168 C 0.88775 0.40214 0.52389 0.0
O169 O 0.88842 0.40034 0.47439 0.0
Cd170 Cd 0.89573 0.38536 0.43191 0.0
O171 O 0.89106 0.39539 0.55752 0.0
Cd172 Cd 0.89876 0.377 0.55114 0.0
C173 C 0.92949 0.39952 0.48523 0.0
O174 O 0.88278 0.36339 0.47907 0.0
O175 O 0.89874 0.35766 0.49848 0.0
O176 O 0.88448 0.36534 0.63014 0.0
C177 C 0.88781 0.35514 0.47122 0.0
O178 O 0.92179 0.3971 0.44386 0.0
C179 C 0.89403 0.36338 0.65193 0.0
O180 O 0.92371 0.3943 0.52995 0.0
O181 O 0.90599 0.36839 0.62799 0.0
C182 C 0.57763 0.48513 0.54699 0.0
O183 O 0.5799 0.4867 0.49737 0.0
Cd184 Cd 0.59365 0.509 0.45274 0.0
O185 O 0.58359 0.49579 0.57861 0.0
Cd186 Cd 0.60233 0.52165 0.57076 0.0
C187 C 0.57919 0.52875 0.50482 0.0
O188 O 0.6158 0.5194 0.49884 0.0
O189 O 0.62118 0.5411 0.51633 0.0
O190 O 0.61515 0.51828 0.64297 0.0
C191 C 0.62375 0.53266 0.48961 0.0
O192 O 0.58122 0.52271 0.46492 0.0
C193 C 0.61665 0.52881 0.67053 0.0
O194 O 0.585 0.52923 0.54945 0.0
O195 O 0.61089 0.53582 0.65269 0.0
C196 C 0.48446 0.08254 0.53254 0.0
O197 O 0.48174 0.08195 0.48327 0.0
Cd198 Cd 0.45909 0.07381 0.44277 0.0
O199 O 0.47451 0.07888 0.56699 0.0
Cd200 Cd 0.44823 0.07097 0.56459 0.0
C201 C 0.44043 0.04022 0.50055 0.0
O202 O 0.44986 0.08607 0.492 0.0
O203 O 0.4282 0.07016 0.51221 0.0
O204 O 0.45238 0.08765 0.63603 0.0
C205 C 0.43656 0.08096 0.48423 0.0
O206 O 0.44575 0.04801 0.45942 0.0
C207 C 0.44197 0.07886 0.66478 0.0
O208 O 0.44055 0.04583 0.54525 0.0
O209 O 0.43476 0.066 0.64816 0.0
C210 C 0.72893 0.55958 0.07876 0.0
O211 O 0.72821 0.55907 0.12905 0.0
Cd212 Cd 0.71614 0.56811 0.18165 0.0
O213 O 0.72185 0.56401 0.05186 0.0
Cd214 Cd 0.70343 0.57103 0.07081 0.0
C215 C 0.72929 0.60176 0.12563 0.0
O216 O 0.69229 0.55663 0.14889 0.0
O217 O 0.68758 0.57361 0.13451 0.0
O218 O 0.68728 0.55376 0.00678 0.0
C219 C 0.6854 0.56284 0.16212 0.0
O220 O 0.72861 0.59403 0.16509 0.0
C221 C 0.68552 0.56267 0.97934 0.0
O222 O 0.72168 0.59611 0.0843 0.0
O223 O 0.69258 0.57578 -0.0067 0.0
C224 C 0.41393 0.1613 0.08455 0.0
O225 O 0.41288 0.1596 0.13454 0.0
Cd226 Cd 0.40278 0.1378 0.1827 0.0
O227 O 0.40982 0.1506 0.05339 0.0
Cd228 Cd 0.40059 0.12423 0.0647 0.0
C229 C 0.36963 0.11896 0.12055 0.0
O230 O 0.41402 0.12613 0.14328 0.0
O231 O 0.39766 0.10455 0.12421 0.0
O232 O 0.41797 0.12562 0.00028 0.0
C233 C 0.40793 0.11291 0.1543 0.0
O234 O 0.37718 0.12511 0.16153 0.0
C235 C 0.40898 0.11549 0.971 0.0
O236 O 0.37546 0.11774 0.07828 0.0
O237 O 0.39579 0.1097 0.984 0.0
C238 C 0.81988 0.24864 0.05776 0.0
O239 O 0.81926 0.25045 0.10724 0.0
Cd240 Cd 0.83957 0.26488 0.16162 0.0
O241 O 0.83157 0.25593 0.03207 0.0
Cd242 Cd 0.85586 0.27688 0.0508 0.0
C243 C 0.86327 0.25411 0.11634 0.0
O244 O 0.85007 0.288 0.12314 0.0
O245 O 0.87253 0.29487 0.1137 0.0
O246 O 0.85209 0.28869 0.97559 0.0
C247 C 0.86292 0.2962 0.13791 0.0
O248 O 0.85532 0.25454 0.15302 0.0
C249 C 0.86446 0.29325 0.95545 0.0
O250 O 0.86497 0.26083 0.07281 0.0
O251 O 0.87274 0.28968 0.97853 0.0
C252 C 0.41821 0.25092 0.07381 0.0
O253 O 0.41989 0.25237 0.12368 0.0
Cd254 Cd 0.40938 0.26276 0.17796 0.0
O255 O 0.41195 0.2565 0.04843 0.0
Cd256 Cd 0.40368 0.2738 0.07057 0.0
C257 C 0.37466 0.2469 0.12766 0.0
O258 O 0.41872 0.28654 0.14634 0.0
O259 O 0.39914 0.28733 0.13808 0.0
O260 O 0.41931 0.28894 0.00065 0.0
C261 C 0.41097 0.29162 0.16207 0.0
O262 O 0.38311 0.24862 0.16611 0.0
C263 C 0.41017 0.2916 0.97954 0.0
O264 O 0.37946 0.25413 0.08502 0.0
O265 O 0.39765 0.28556 -0.00021 0.0
C266 C 0.73796 0.15617 0.07996 0.0
O267 O 0.73926 0.15563 0.12989 0.0
Cd268 Cd 0.72182 0.13902 0.19112 0.0
O269 O 0.72673 0.14685 0.05575 0.0
Cd270 Cd 0.70467 0.1244 0.08202 0.0
C271 C 0.72242 0.1096 0.14495 0.0
O272 O 0.69929 0.13488 0.1582 0.0
O273 O 0.6848 0.11231 0.14418 0.0
O274 O 0.6933 0.12905 0.00706 0.0
C275 C 0.68802 0.1234 0.17143 0.0
O276 O 0.72448 0.11808 0.1834 0.0
C277 C 0.68704 0.11623 -0.01014 0.0
O278 O 0.71642 0.11029 0.10225 0.0
O279 O 0.68942 0.10732 0.01452 0.0
C280 C 0.82207 0.57561 0.07715 0.0
O281 O 0.8213 0.57693 0.12687 0.0
Cd282 Cd 0.84068 0.58471 0.18803 0.0
O283 O 0.83377 0.57821 0.05491 0.0
Cd284 Cd 0.85858 0.58538 0.08449 0.0
C285 C 0.86447 0.61735 0.13123 0.0
O286 O 0.85174 0.57106 0.16523 0.0
O287 O 0.87445 0.58565 0.1547 0.0
O288 O 0.85617 0.56799 0.01868 0.0
C289 C 0.86445 0.57584 0.18201 0.0
O290 O 0.8563 0.61017 0.16961 0.0
C291 C 0.86857 0.57557 -0.00142 0.0
O292 O 0.86665 0.61103 0.09257 0.0
O293 O 0.87644 0.58805 0.01783 0.0
C294 C 0.58023 0.0944 0.55276 0.0
O295 O 0.58302 0.09599 0.5034 0.0
Cd296 Cd 0.59961 0.09156 0.45586 0.0
O297 O 0.58694 0.09056 0.58451 0.0
Cd298 Cd 0.6076 0.08622 0.5767 0.0
C299 C 0.58813 0.05694 0.4974 0.0
O300 O 0.62026 0.10423 0.50974 0.0
O301 O 0.62989 0.0915 0.52945 0.0
O302 O 0.61667 0.09861 0.66089 0.0
C303 C 0.63038 0.10166 0.50235 0.0
O304 O 0.58973 0.06544 0.45937 0.0
C305 C 0.61924 0.0892 0.68017 0.0
O306 O 0.593 0.06178 0.54353 0.0
O307 O 0.61574 0.0781 0.65217 0.0
C308 C 0.88417 0.49023 0.55705 0.0
O309 O 0.88251 0.49229 0.50857 0.0
Cd310 Cd 0.89118 0.51509 0.46744 0.0
O311 O 0.88999 0.50067 0.58968 0.0
Cd312 Cd 0.89838 0.52689 0.58629 0.0
C313 C 0.92643 0.53219 0.50969 0.0
O314 O 0.88141 0.52622 0.52123 0.0
O315 O 0.89922 0.54722 0.53801 0.0
O316 O 0.88604 0.52409 0.67008 0.0
C317 C 0.88746 0.53963 0.51369 0.0
O318 O 0.91761 0.52717 0.47105 0.0
C319 C 0.89624 0.53529 0.6912 0.0
O320 O 0.92207 0.53255 0.55631 0.0
O321 O 0.90768 0.54227 0.66423 0.0
C322 C 0.48735 0.39514 0.53726 0.0
O323 O 0.48468 0.39171 0.48867 0.0
Cd324 Cd 0.46161 0.37691 0.45124 0.0
O325 O 0.47727 0.39006 0.57158 0.0
Cd326 Cd 0.45087 0.37252 0.57092 0.0
C327 C 0.44504 0.39521 0.49729 0.0
O328 O 0.45126 0.35616 0.50626 0.0
O329 O 0.43046 0.35388 0.52021 0.0
O330 O 0.45473 0.36306 0.65283 0.0
C331 C 0.43784 0.34912 0.49819 0.0
O332 O 0.44951 0.39108 0.45798 0.0
C333 C 0.44334 0.36115 0.67533 0.0
O334 O 0.44521 0.3908 0.54406 0.0
O335 O 0.4357 0.36515 0.65013 0.0
C336 C 0.55794 0.73279 0.8764 0.0
O337 O 0.55796 0.72897 0.82875 0.0
Cd338 Cd 0.56398 0.71181 0.7976 0.0
O339 O 0.56131 0.72719 0.91445 0.0
Cd340 Cd 0.56835 0.70832 0.92136 0.0
C341 C 0.59832 0.72726 0.84721 0.0
O342 O 0.55167 0.69219 0.85629 0.0
O343 O 0.56815 0.68746 0.8786 0.0
O344 O 0.55341 0.6984 -0.00033 0.0
C345 C 0.55672 0.68384 0.85267 0.0
O346 O 0.59002 0.72296 0.80699 0.0
C347 C 0.56295 0.69778 0.02751 0.0
O348 O 0.59325 0.7245 0.89418 0.0
O349 O 0.57537 0.70289 0.00699 0.0
C350 C 0.24202 0.81908 0.86661 0.0
O351 O 0.24484 0.82271 0.81822 0.0
Cd352 Cd 0.26143 0.84553 0.78364 0.0
O353 O 0.24851 0.82818 0.90366 0.0
Cd354 Cd 0.26797 0.85408 0.9073 0.0
C355 C 0.24781 0.86528 0.84108 0.0
O356 O 0.28189 0.85203 0.83721 0.0
O357 O 0.28889 0.87379 0.85975 0.0
O358 O 0.27886 0.8486 0.98158 0.0
C359 C 0.29103 0.86519 0.83212 0.0
O360 O 0.25048 0.86029 0.79951 0.0
C361 C 0.28052 0.85898 0.01046 0.0
O362 O 0.25221 0.86383 0.88642 0.0
O363 O 0.27558 0.86671 -0.00746 0.0
C364 C 0.15686 0.42117 0.88533 0.0
O365 O 0.15446 0.42205 0.83655 0.0
Cd366 Cd 0.13137 0.41264 0.79725 0.0
O367 O 0.14665 0.41574 0.91906 0.0
Cd368 Cd 0.12033 0.40713 0.91798 0.0
C369 C 0.11413 0.37799 0.8469 0.0
O370 O 0.12082 0.42307 0.85018 0.0
O371 O 0.09965 0.40582 0.86927 0.0
O372 O 0.12406 0.42219 -0.00575 0.0
C373 C 0.1074 0.41726 0.84332 0.0
O374 O 0.11922 0.38642 0.80719 0.0
C375 C 0.11386 0.4126 0.02171 0.0
O376 O 0.11391 0.38282 0.89281 0.0
O377 O 0.10694 0.40008 0.00173 0.0
C378 C 0.39555 0.89186 0.41816 0.0
O379 O 0.39489 0.89173 0.46847 0.0
Cd380 Cd 0.38149 0.89929 0.52104 0.0
O381 O 0.3878 0.89527 0.39021 0.0
Cd382 Cd 0.36826 0.90086 0.4082 0.0
C383 C 0.39206 0.93244 0.46482 0.0
O384 O 0.35779 0.88668 0.48749 0.0
O385 O 0.35189 0.90274 0.47124 0.0
O386 O 0.35201 0.88313 0.3449 0.0
C387 C 0.35045 0.89246 0.50026 0.0
O388 O 0.39188 0.92502 0.50458 0.0
C389 C 0.35015 0.8919 0.31689 0.0
O390 O 0.38504 0.92637 0.42275 0.0
O391 O 0.35723 0.90506 0.3301 0.0
C392 C 0.08162 0.49231 0.41859 0.0
O393 O 0.08114 0.4925 0.4689 0.0
Cd394 Cd 0.07061 0.47196 0.52492 0.0
O395 O 0.07725 0.48055 0.39351 0.0
Cd396 Cd 0.06892 0.4551 0.4177 0.0
C397 C 0.03768 0.45128 0.46338 0.0
O398 O 0.082 0.45894 0.49959 0.0
O399 O 0.06528 0.43709 0.48555 0.0
O400 O 0.08692 0.45527 0.35995 0.0
C401 C 0.07553 0.44597 0.5146 0.0
O402 O 0.04497 0.45869 0.50308 0.0
C403 C 0.07824 0.44465 0.33183 0.0
O404 O 0.04378 0.44881 0.42472 0.0
O405 O 0.06492 0.439 0.34263 0.0
C406 C 0.48372 0.58481 0.42451 0.0
O407 O 0.48363 0.58401 0.4748 0.0
Cd408 Cd 0.50397 0.59433 0.53181 0.0
O409 O 0.49541 0.59244 0.39915 0.0
Cd410 Cd 0.52095 0.60976 0.42287 0.0
C411 C 0.52531 0.58278 0.47075 0.0
O412 O 0.51665 0.61853 0.50464 0.0
O413 O 0.53876 0.62454 0.49109 0.0
O414 O 0.52044 0.62747 0.36517 0.0
C415 C 0.52957 0.62533 0.52026 0.0
O416 O 0.51777 0.5826 0.51009 0.0
C417 C 0.5311 0.62963 0.33685 0.0
O418 O 0.52767 0.59118 0.43152 0.0
O419 O 0.53696 0.62216 0.34746 0.0
C420 C 0.07391 0.57279 0.40826 0.0
O421 O 0.07234 0.57004 0.45754 0.0
Cd422 Cd 0.06533 0.58148 0.52207 0.0
O423 O 0.07208 0.58263 0.38828 0.0
Cd424 Cd 0.0662 0.60063 0.42386 0.0
C425 C 0.0334 0.57512 0.46607 0.0
O426 O 0.08016 0.60649 0.50573 0.0
O427 O 0.06576 0.61493 0.4981 0.0
O428 O 0.08435 0.61676 0.36212 0.0
C429 C 0.07547 0.61429 0.52452 0.0
O430 O 0.0401 0.57317 0.50395 0.0
C431 C 0.07701 0.62201 0.34329 0.0
O432 O 0.04025 0.58395 0.4288 0.0
O433 O 0.06436 0.61711 0.36137 0.0
C434 C 0.39942 0.49832 0.39316 0.0
O435 O 0.40035 0.49896 0.44338 0.0
Cd436 Cd 0.38903 0.47926 0.50309 0.0
O437 O 0.39129 0.48655 0.36927 0.0
Cd438 Cd 0.37314 0.46176 0.39762 0.0
C439 C 0.39905 0.45618 0.44746 0.0
O440 O 0.36451 0.4676 0.47778 0.0
O441 O 0.3579 0.44525 0.46687 0.0
O442 O 0.35771 0.46335 0.33115 0.0
C443 C 0.35717 0.45477 0.49405 0.0
O444 O 0.3996 0.46412 0.48596 0.0
C445 C 0.35355 0.45106 0.31115 0.0
O446 O 0.39087 0.45409 0.40778 0.0
O447 O 0.35884 0.44379 0.3305 0.0
C448 C 0.48963 0.90719 0.40377 0.0
O449 O 0.48961 0.90861 0.45371 0.0
Cd450 Cd 0.50979 0.91664 0.51105 0.0
O451 O 0.50101 0.90976 0.37892 0.0
Cd452 Cd 0.52623 0.91699 0.40435 0.0
C453 C 0.53315 0.9492 0.45296 0.0
O454 O 0.52079 0.90317 0.48585 0.0
O455 O 0.54325 0.91834 0.47243 0.0
O456 O 0.5248 0.89847 0.34604 0.0
C457 C 0.53372 0.90837 0.50074 0.0
O458 O 0.52533 0.94203 0.49205 0.0
C459 C 0.53568 0.90666 0.31804 0.0
O460 O 0.53482 0.94284 0.41321 0.0
O461 O 0.54214 0.91998 0.32918 0.0
C462 C 0.24928 0.42511 0.86332 0.0
O463 O 0.25232 0.42538 0.81448 0.0
Cd464 Cd 0.26862 0.41905 0.77674 0.0
O465 O 0.25542 0.42145 0.89839 0.0
Cd466 Cd 0.27433 0.41446 0.89841 0.0
C467 C 0.2534 0.38468 0.82523 0.0
O468 O 0.28926 0.43156 0.83173 0.0
O469 O 0.29542 0.41603 0.85265 0.0
O470 O 0.28298 0.42757 0.98155 0.0
C471 C 0.2981 0.42715 0.82636 0.0
O472 O 0.2565 0.39286 0.78492 0.0
C473 C 0.28501 0.41813 0.00382 0.0
O474 O 0.25788 0.38988 0.87125 0.0
O475 O 0.28148 0.40673 0.97779 0.0
C476 C 0.55535 0.82274 0.87671 0.0
O477 O 0.55408 0.8247 0.82778 0.0
Cd478 Cd 0.56311 0.84749 0.78632 0.0
O479 O 0.56073 0.83324 0.90919 0.0
Cd480 Cd 0.56874 0.8594 0.9051 0.0
C481 C 0.59788 0.86505 0.83476 0.0
O482 O 0.55284 0.85884 0.83588 0.0
O483 O 0.5706 0.87982 0.85385 0.0
O484 O 0.55383 0.85682 0.98118 0.0
C485 C 0.55909 0.87225 0.828 0.0
O486 O 0.58939 0.85969 0.79534 0.0
C487 C 0.5637 0.86701 0.00783 0.0
O488 O 0.5931 0.86564 0.88038 0.0
O489 O 0.57622 0.87335 0.98758 0.0
C490 C 0.15719 0.72184 0.8873 0.0
O491 O 0.15482 0.71742 0.83962 0.0
Cd492 Cd 0.13218 0.70022 0.8028 0.0
O493 O 0.14723 0.71652 0.92203 0.0
Cd494 Cd 0.1218 0.69663 0.92458 0.0
C495 C 0.11195 0.71519 0.84206 0.0
O496 O 0.12387 0.68054 0.86264 0.0
O497 O 0.10227 0.67469 0.88419 0.0
O498 O 0.12634 0.68954 0.01097 0.0
C499 C 0.11055 0.67166 0.85862 0.0
O500 O 0.11733 0.71175 0.80362 0.0
C501 C 0.11504 0.68828 0.0323 0.0
O502 O 0.11289 0.71165 0.88947 0.0
O503 O 0.10726 0.69149 0.00401 0.0
H504 H 0.18 0.96558 0.5767 0.0
H505 H 0.22355 0.97633 0.61368 0.0
H506 H 0.18884 0.98324 0.50562 0.0
H507 H 0.23255 -0.00542 0.54426 0.0
H508 H 0.24183 0.01522 0.37849 0.0
H509 H 0.23429 -0.00168 0.4521 0.0
H510 H 0.20086 0.00809 0.49089 0.0
H511 H 0.20798 0.0244 0.41547 0.0
C512 C 0.19148 0.97178 0.56966 0.0
C513 C 0.20108 0.96957 0.60058 0.0
C514 C 0.19659 0.98203 0.52929 0.0
C515 C 0.21145 0.99052 0.51952 0.0
C516 C 0.22104 0.98816 0.55019 0.0
C517 C 0.21589 0.97772 0.59006 0.0
C518 C 0.23299 0.01388 0.40323 0.0
C519 C 0.22541 0.02103 0.3911 0.0
C520 C 0.22867 0.0042 0.44556 0.0
C521 C 0.21682 0.00165 0.47712 0.0
C522 C 0.20977 0.00945 0.46655 0.0
C523 C 0.21393 0.01893 0.42369 0.0
H524 H -0.00377 0.20282 0.64619 0.0
H525 H 0.01198 0.24646 0.59369 0.0
H526 H 0.97806 0.19408 0.57677 0.0
H527 H -0.00592 0.23766 0.52275 0.0
H528 H 0.96134 0.18319 0.40621 0.0
H529 H 0.97707 0.19141 0.48304 0.0
H530 H 0.96871 0.2265 0.5032 0.0
H531 H 0.95324 0.21848 0.42483 0.0
C532 C -0.00413 0.21055 0.61954 0.0
C533 C 0.00561 0.22533 0.6251 0.0
C534 C 0.98547 0.20553 0.57964 0.0
C535 C 0.98464 0.21515 0.54396 0.0
C536 C -0.00572 0.22997 0.54998 0.0
C537 C 0.00463 0.23501 0.59029 0.0
C538 C 0.9627 0.19256 0.42736 0.0
C539 C 0.95609 0.20022 0.4093 0.0
C540 C 0.97169 0.19725 0.47165 0.0
C541 C 0.97423 0.20967 0.49921 0.0
C542 C 0.96718 0.21704 0.48233 0.0
C543 C 0.95821 0.21237 0.43775 0.0
H544 H 0.75288 0.73071 0.35704 0.0
H545 H 0.79492 0.76689 0.39056 0.0
H546 H 0.74256 0.73822 0.42739 0.0
H547 H 0.78486 0.77398 0.4631 0.0
H548 H 0.7619 0.79275 0.55064 0.0
H549 H 0.77091 0.78458 0.47798 0.0
H550 H 0.74023 0.74045 0.51807 0.0
H551 H 0.73069 0.74877 0.58864 0.0
C552 C 0.75996 0.74009 0.38035 0.0
C553 C 0.77468 0.74826 0.36829 0.0
C554 C 0.75406 0.7444 0.42083 0.0
C555 C 0.76281 0.75683 0.45077 0.0
C556 C 0.77768 0.7646 0.43998 0.0
C557 C 0.78351 0.76046 0.39882 0.0
C558 C 0.75696 0.78131 0.54328 0.0
C559 C 0.7456 0.77139 0.57512 0.0
C560 C 0.76224 0.7766 0.50207 0.0
C561 C 0.7565 0.76182 0.49252 0.0
C562 C 0.74485 0.75191 0.5237 0.0
C563 C 0.73937 0.75666 0.56425 0.0
H564 H 0.77498 0.974 0.6318 0.0
H565 H 0.73146 0.96064 0.58317 0.0
H566 H 0.78423 -0.00778 0.56255 0.0
H567 H 0.74072 0.97858 0.51258 0.0
H568 H 0.76082 0.01955 0.41738 0.0
H569 H 0.75288 0.00401 0.49537 0.0
H570 H 0.7864 -0.00637 0.46831 0.0
H571 H 0.79458 0.00947 0.39162 0.0
C572 C 0.76739 0.97489 0.60604 0.0
C573 C 0.75249 0.96583 0.6127 0.0
C574 C 0.77269 0.98532 0.56624 0.0
C575 C 0.76323 0.98686 0.53192 0.0
C576 C 0.74831 0.97784 0.53885 0.0
C577 C 0.743 0.96747 0.57896 0.0
C578 C 0.76662 0.01412 0.42867 0.0
C579 C 0.77829 0.01568 0.39826 0.0
C580 C 0.76199 0.00512 0.47305 0.0
C581 C 0.76889 -0.00256 0.48776 0.0
C582 C 0.78092 -0.00053 0.45848 0.0
C583 C 0.78559 0.00853 0.41434 0.0
H584 H 0.0042 0.78898 0.65441 0.0
H585 H 0.01393 0.75693 0.59699 0.0
H586 H 0.9864 0.78262 0.58451 0.0
H587 H -0.00359 0.75088 0.52567 0.0
H588 H 0.95684 0.73614 0.42367 0.0
H589 H 0.97122 0.74035 0.50382 0.0
H590 H 0.98674 0.7859 0.49091 0.0
H591 H 0.9721 0.78165 0.41217 0.0
C592 C 0.00256 0.78059 0.62671 0.0
C593 C 0.01055 0.77354 0.63084 0.0
C594 C -0.00762 0.77698 0.58654 0.0
C595 C -0.00995 0.76632 0.5492 0.0
C596 C -0.00219 0.75902 0.55414 0.0
C597 C 0.00793 0.76255 0.59471 0.0
C598 C 0.96316 0.74702 0.43852 0.0
C599 C 0.96339 0.75857 0.41153 0.0
C600 C 0.97148 0.74944 0.48416 0.0
C601 C 0.98021 0.76346 0.50359 0.0
C602 C 0.98001 0.77493 0.47752 0.0
C603 C 0.97166 0.77251 0.43214 0.0
H604 H 0.20303 0.19306 0.36057 0.0
H605 H 0.24718 0.22411 0.39841 0.0
H606 H 0.19483 0.20192 0.4333 0.0
H607 H 0.23895 0.23276 0.47272 0.0
H608 H 0.21787 0.25395 0.56689 0.0
H609 H 0.2263 0.24577 0.49183 0.0
H610 H 0.19449 0.20179 0.52807 0.0
H611 H 0.18584 0.20995 0.60168 0.0
C612 C 0.21101 0.2017 0.38481 0.0
C613 C 0.22576 0.20785 0.37389 0.0
C614 C 0.2063 0.20675 0.42668 0.0
C615 C 0.21623 0.21801 0.45896 0.0
C616 C 0.23102 0.22418 0.44817 0.0
C617 C 0.23574 0.21915 0.40593 0.0
C618 C 0.21262 0.24255 0.55844 0.0
C619 C 0.20115 0.2326 0.59 0.0
C620 C 0.21753 0.23786 0.51579 0.0
C621 C 0.21108 0.22313 0.50401 0.0
C622 C 0.19956 0.21322 0.53551 0.0
C623 C 0.19463 0.21791 0.57787 0.0
H624 H 0.87217 0.35591 0.72255 0.0
H625 H 0.90869 0.3506 0.68937 0.0
H626 H 0.86565 0.33934 0.797 0.0
H627 H 0.9018 0.33345 0.76185 0.0
H628 H 0.89202 0.3116 0.92363 0.0
H629 H 0.89991 0.32962 0.85358 0.0
H630 H 0.85548 0.31471 0.81268 0.0
H631 H 0.8477 0.29728 0.88449 0.0
C632 C 0.87881 0.35121 0.73131 0.0
C633 C 0.89091 0.35452 0.70018 0.0
C634 C 0.875 0.34158 0.77362 0.0
C635 C 0.88306 0.33484 0.78511 0.0
C636 C 0.89541 0.33851 0.75471 0.0
C637 C 0.89936 0.34833 0.71298 0.0
C638 C 0.88397 0.31214 0.89933 0.0
C639 C 0.86925 0.30308 0.90951 0.0
C640 C 0.88848 0.32245 0.85907 0.0
C641 C 0.87835 0.32376 0.8276 0.0
C642 C 0.86361 0.31432 0.83693 0.0
C643 C 0.85912 0.3042 0.87771 0.0
H644 H 0.62194 0.55078 0.73866 0.0
H645 H 0.63182 0.51698 0.71117 0.0
H646 H 0.63817 0.55895 0.815 0.0
H647 H 0.64829 0.52536 0.78585 0.0
H648 H 0.66656 0.5351 0.95126 0.0
H649 H 0.64898 0.52675 0.88 0.0
H650 H 0.66366 0.57073 0.83446 0.0
H651 H 0.68101 0.57912 0.90733 0.0
C652 C 0.62752 0.54507 0.74906 0.0
C653 C 0.62558 0.53323 0.71901 0.0
C654 C 0.63692 0.54982 0.79245 0.0
C655 C 0.64457 0.54284 0.80646 0.0
C656 C 0.64242 0.53087 0.77675 0.0
C657 C 0.633 0.52609 0.73371 0.0
C658 C 0.66608 0.543 0.926 0.0
C659 C 0.67523 0.55777 0.93469 0.0
C660 C 0.65601 0.53821 0.885 0.0
C661 C 0.65494 0.54806 0.85134 0.0
C662 C 0.66408 0.56286 0.8601 0.0
C663 C 0.67411 0.56767 0.90151 0.0
H664 H 0.41999 0.06282 0.73395 0.0
H665 H 0.45442 0.10609 0.70366 0.0
H666 H 0.41208 0.07152 0.80897 0.0
H667 H 0.44631 0.11482 0.77717 0.0
H668 H 0.43656 0.1241 0.94236 0.0
H669 H 0.44478 0.11466 0.87146 0.0
H670 H 0.40066 0.08565 0.82591 0.0
H671 H 0.3924 0.09483 0.89827 0.0
C672 C 0.42591 0.07416 0.74349 0.0
C673 C 0.43784 0.08376 0.71296 0.0
C674 C 0.4213 0.07917 0.78611 0.0
C675 C 0.42851 0.09389 0.79894 0.0
C676 C 0.44061 0.1034 0.76892 0.0
C677 C 0.44524 0.0984 0.72658 0.0
C678 C 0.4286 0.11575 0.9171 0.0
C679 C 0.41383 0.11024 0.92579 0.0
C680 C 0.43332 0.11036 0.87631 0.0
C681 C 0.42339 0.09939 0.84293 0.0
C682 C 0.4086 0.09394 0.8514 0.0
C683 C 0.40386 0.09929 0.89251 0.0
H684 H 0.41592 0.34595 0.71283 0.0
H685 H 0.45981 0.35818 0.75065 0.0
H686 H 0.40747 0.32936 0.78759 0.0
H687 H 0.45153 0.34227 0.82729 0.0
H688 H 0.43255 0.29974 0.91175 0.0
H689 H 0.44034 0.31757 0.84158 0.0
H690 H 0.40543 0.32522 0.87944 0.0
H691 H 0.39721 0.3067 0.94799 0.0
C692 C 0.42378 0.34537 0.73811 0.0
C693 C 0.4385 0.35322 0.72576 0.0
C694 C 0.41895 0.33588 0.78109 0.0
C695 C 0.42879 0.33424 0.81306 0.0
C696 C 0.4436 0.34287 0.80257 0.0
C697 C 0.44838 0.35213 0.75903 0.0
C698 C 0.42649 0.30517 0.90479 0.0
C699 C 0.41427 0.30184 0.93517 0.0
C700 C 0.43105 0.31554 0.86496 0.0
C701 C 0.42367 0.32305 0.85523 0.0
C702 C 0.41131 0.31958 0.8854 0.0
C703 C 0.4066 0.30899 0.92473 0.0
H704 H 0.68314 0.13344 0.92042 0.0
H705 H 0.66785 0.0889 0.95852 0.0
H706 H 0.66576 0.12608 0.84839 0.0
H707 H 0.65002 0.0815 0.88789 0.0
H708 H 0.63165 0.07428 0.7187 0.0
H709 H 0.64774 0.08047 0.7944 0.0
H710 H 0.6408 0.11581 0.83144 0.0
H711 H 0.62517 0.10995 0.75421 0.0
C712 C 0.67601 0.12207 0.91348 0.0
C713 C 0.67688 0.11175 0.94493 0.0
C714 C 0.66594 0.11784 0.87254 0.0
C715 C 0.65638 0.10318 0.86255 0.0
C716 C 0.65732 0.09287 0.89401 0.0
C717 C 0.66751 0.09711 0.93458 0.0
C718 C 0.63342 0.08326 0.74342 0.0
C719 C 0.62724 0.0917 0.73035 0.0
C720 C 0.64262 0.08679 0.78697 0.0
C721 C 0.64571 0.09874 0.81876 0.0
C722 C 0.63894 0.10675 0.80707 0.0
C723 C 0.62987 0.10331 0.76313 0.0
H724 H 0.91115 0.56269 0.72866 0.0
H725 H 0.8767 0.52018 0.76839 0.0
H726 H 0.90524 0.57246 0.80541 0.0
H727 H 0.87126 0.52974 0.84697 0.0
H728 H 0.85214 0.55301 0.93405 0.0
H729 H 0.86007 0.54315 0.86391 0.0
H730 H 0.90436 0.57482 0.89776 0.0
H731 H 0.89625 0.58516 0.96645 0.0
C732 C 0.90255 0.55538 0.7547 0.0
C733 C 0.89427 0.54071 0.74234 0.0
C734 C 0.89918 0.56097 0.79888 0.0
C735 C 0.8876 0.55194 0.83208 0.0
C736 C 0.87996 0.53709 0.82144 0.0
C737 C 0.88315 0.53157 0.77672 0.0
C738 C 0.86357 0.55788 0.92642 0.0
C739 C 0.87358 0.56987 0.95555 0.0
C740 C 0.86815 0.55213 0.88654 0.0
C741 C 0.88289 0.55805 0.87541 0.0
C742 C 0.89292 0.57007 0.90477 0.0
C743 C 0.8883 0.57598 0.94421 0.0
H744 H 0.55169 0.63486 0.2622 0.0
H745 H 0.52287 0.64932 0.31617 0.0
H746 H 0.56017 0.65277 0.1914 0.0
H747 H 0.53165 0.66748 0.2468 0.0
H748 H 0.53677 0.68415 0.07593 0.0
H749 H 0.52977 0.66849 0.15292 0.0
H750 H 0.57375 0.67822 0.17255 0.0
H751 H 0.5807 0.69363 0.09415 0.0
C752 C 0.54725 0.64193 0.25916 0.0
C753 C 0.53652 0.64059 0.2944 0.0
C754 C 0.5522 0.65228 0.21891 0.0
C755 C 0.54658 0.66157 0.21335 0.0
C756 C 0.53604 0.66037 0.24936 0.0
C757 C 0.53104 0.64997 0.28924 0.0
C758 C 0.545 0.68312 0.09706 0.0
C759 C 0.55928 0.69008 0.07879 0.0
C760 C 0.54099 0.67416 0.1414 0.0
C761 C 0.55118 0.672 0.16877 0.0
C762 C 0.56559 0.67945 0.1518 0.0
C763 C 0.5696 0.68839 0.10721 0.0
H764 H 0.34539 0.90811 0.24482 0.0
H765 H 0.3311 0.8642 0.28977 0.0
H766 H 0.32762 0.8996 0.17352 0.0
H767 H 0.31305 0.85569 0.21988 0.0
H768 H 0.28595 0.88052 0.08075 0.0
H769 H 0.3022 0.88815 0.15685 0.0
H770 H 0.3112 0.85387 0.12591 0.0
H771 H 0.29466 0.84601 0.05126 0.0
C772 C 0.33843 0.89665 0.23954 0.0
C773 C 0.3397 0.88683 0.27267 0.0
C774 C 0.32815 0.89176 0.19903 0.0
C775 C 0.31886 0.87695 0.19102 0.0
C776 C 0.32015 0.86716 0.22437 0.0
C777 C 0.33048 0.87204 0.26456 0.0
C778 C 0.29124 0.8745 0.09076 0.0
C779 C 0.28903 0.86268 0.05997 0.0
C780 C 0.30067 0.87896 0.13403 0.0
C781 C 0.30812 0.87171 0.14725 0.0
C782 C 0.30553 0.85962 0.11732 0.0
C783 C 0.29607 0.85513 0.07433 0.0
H784 H 0.06247 0.42428 0.25713 0.0
H785 H 0.10602 0.4523 0.31106 0.0
H786 H 0.07156 0.41564 0.18574 0.0
H787 H 0.11504 0.44337 0.2411 0.0
H788 H 0.09163 0.39487 0.08727 0.0
H789 H 0.0832 0.40177 0.16589 0.0
H790 H 0.11763 0.44565 0.14698 0.0
H791 H 0.12624 0.43871 0.06986 0.0
C792 C 0.07396 0.4285 0.25396 0.0
C793 C 0.08354 0.43907 0.28928 0.0
C794 C 0.07916 0.42347 0.21339 0.0
C795 C 0.09403 0.42885 0.20763 0.0
C796 C 0.10355 0.43918 0.24384 0.0
C797 C 0.09837 0.44428 0.28403 0.0
C798 C 0.0975 0.40594 0.10049 0.0
C799 C 0.10958 0.41625 0.07236 0.0
C800 C 0.0926 0.40991 0.1452 0.0
C801 C 0.09969 0.42428 0.16253 0.0
C802 C 0.11202 0.43446 0.1352 0.0
C803 C 0.11693 0.43049 0.09076 0.0
H804 H 0.10031 0.62933 0.28108 0.0
H805 H 0.06739 0.64019 0.31342 0.0
H806 H 0.11005 0.6474 0.21179 0.0
H807 H 0.0776 0.65892 0.24566 0.0
H808 H 0.08805 0.67598 0.07355 0.0
H809 H 0.07931 0.66141 0.15326 0.0
H810 H 0.12278 0.67187 0.19168 0.0
H811 H 0.13134 0.68579 0.11004 0.0
C812 C 0.09527 0.63575 0.27378 0.0
C813 C 0.08303 0.6333 0.3023 0.0
C814 C 0.10096 0.64625 0.23438 0.0
C815 C 0.0947 0.65474 0.22315 0.0
C816 C 0.08259 0.65246 0.25263 0.0
C817 C 0.07675 0.64176 0.29154 0.0
C818 C 0.09576 0.67535 0.09951 0.0
C819 C 0.11034 0.68184 0.08532 0.0
C820 C 0.09076 0.66703 0.14547 0.0
C821 C 0.10029 0.66523 0.17865 0.0
C822 C 0.11506 0.67265 0.16628 0.0
C823 C 0.12001 0.68074 0.11977 0.0
H824 H 0.33653 0.4231 0.2811 0.0
H825 H 0.34608 0.46629 0.2454 0.0
H826 H 0.31791 0.41377 0.21286 0.0
H827 H 0.32812 0.45716 0.17541 0.0
H828 H 0.28835 0.43789 0.07851 0.0
H829 H 0.30351 0.44471 0.15731 0.0
H830 H 0.31472 0.4122 0.12091 0.0
H831 H 0.29892 0.40491 0.04412 0.0
C832 C 0.33474 0.4306 0.25817 0.0
C833 C 0.34274 0.44541 0.26839 0.0
C834 C 0.3241 0.42527 0.21897 0.0
C835 C 0.32142 0.43468 0.1886 0.0
C836 C 0.32958 0.44953 0.19876 0.0
C837 C 0.34002 0.45481 0.23851 0.0
C838 C 0.29386 0.43206 0.08805 0.0
C839 C 0.29254 0.42095 0.05512 0.0
C840 C 0.30268 0.43604 0.13289 0.0
C841 C 0.3106 0.42921 0.14507 0.0
C842 C 0.30872 0.41764 0.11326 0.0
C843 C 0.29969 0.41348 0.06901 0.0
H844 H 0.52607 0.87851 0.29653 0.0
H845 H 0.55649 0.92144 0.24333 0.0
H846 H 0.53384 0.86851 0.22612 0.0
H847 H 0.56398 0.9114 0.17144 0.0
H848 H 0.58233 0.88892 0.0727 0.0
H849 H 0.57631 0.89831 0.15083 0.0
H850 H 0.53153 0.86595 0.13218 0.0
H851 H 0.53759 0.85637 0.05552 0.0
C852 C 0.53438 0.88582 0.26956 0.0
C853 C 0.5406 0.90077 0.2752 0.0
C854 C 0.5388 0.88008 0.22905 0.0
C855 C 0.54947 0.88913 0.19286 0.0
C856 C 0.55586 0.90411 0.199 0.0
C857 C 0.55149 0.90987 0.2399 0.0
C858 C 0.57124 0.88371 0.08582 0.0
C859 C 0.56043 0.87192 0.05794 0.0
C860 C 0.56777 0.88916 0.13027 0.0
C861 C 0.55342 0.88293 0.14764 0.0
C862 C 0.54271 0.8709 0.12042 0.0
C863 C 0.54618 0.86544 0.07624 0.0
H864 H 0.22003 0.9784 0.86975 0.0
H865 H 0.17475 0.96187 0.89921 0.0
H866 H 0.22588 -0.00842 0.95318 0.0
H867 H 0.1806 0.97481 0.98323 0.0
H868 H 0.23086 0.00206 0.12843 0.0
H869 H 0.22367 0.98714 0.0488 0.0
H870 H 0.19185 -0.00054 0.01476 0.0
H871 H 0.19878 0.01407 0.09474 0.0
C872 C 0.21133 0.97757 0.89411 0.0
C873 C 0.19694 0.96914 0.87797 0.0
C874 C 0.21467 0.98501 0.94209 0.0
C875 C 0.20369 0.98414 0.97489 0.0
C876 C 0.18929 0.97577 0.95856 0.0
C877 C 0.18595 0.96836 0.91051 0.0
C878 C 0.22222 0.00143 0.10422 0.0
C879 C 0.21544 0.00928 0.11756 0.0
C880 C 0.21818 -0.00701 0.05848 0.0
C881 C 0.20729 -0.00775 0.02533 0.0
C882 C 0.20019 -0.00028 0.03974 0.0
C883 C 0.20421 0.00814 0.08544 0.0
H884 H 0.97791 0.23004 0.14873 0.0
H885 H 0.96681 0.18625 0.1153 0.0
H886 H -0.00616 0.23822 0.07155 0.0
H887 H 0.98232 0.19431 0.03793 0.0
H888 H 0.01958 0.21363 0.92524 0.0
H889 H 0.00695 0.20758 0.00976 0.0
H890 H -0.00894 0.23657 0.97537 0.0
H891 H 0.00409 0.24296 0.89128 0.0
C892 C 0.97895 0.22219 0.12517 0.0
C893 C 0.97107 0.20751 0.13785 0.0
C894 C -0.01201 0.22685 0.08082 0.0
C895 C -0.01072 0.2169 0.04849 0.0
C896 C 0.98172 0.20228 0.06233 0.0
C897 C 0.97275 0.19765 0.10656 0.0
C898 C 0.01342 0.21874 0.93576 0.0
C899 C 0.01271 0.22868 0.90148 0.0
C900 C 0.00616 0.21525 0.98415 0.0
C901 C -0.00205 0.22154 -0.00084 0.0
C902 C -0.00255 0.23168 0.96526 0.0
C903 C 0.0048 0.23524 0.91691 0.0
H904 H 0.7716 0.78302 0.84237 0.0
H905 H 0.72731 0.75045 0.86846 0.0
H906 H 0.77845 0.77625 0.92478 0.0
H907 H 0.73392 0.74418 0.9527 0.0
H908 H 0.75348 0.72841 0.07966 0.0
H909 H 0.74573 0.73364 -0.00423 0.0
H910 H 0.77679 0.77879 0.01585 0.0
H911 H 0.78504 0.77334 0.09786 0.0
C912 C 0.76335 0.77439 0.86589 0.0
C913 C 0.74896 0.76726 0.84928 0.0
C914 C 0.76721 0.77061 0.91344 0.0
C915 C 0.7567 0.75984 0.94607 0.0
C916 C 0.74233 0.75243 0.92849 0.0
C917 C 0.73852 0.75602 0.88026 0.0
C918 C 0.75851 0.73946 0.06622 0.0
C919 C 0.76991 0.75049 0.09481 0.0
C920 C 0.75407 0.74248 0.0182 0.0
C921 C 0.76077 0.75662 -0.00152 0.0
C922 C 0.77168 0.76771 0.02883 0.0
C923 C 0.77631 0.76465 0.07615 0.0
H924 H 0.73455 0.9675 0.88192 0.0
H925 H 0.76526 0.95333 0.9094 0.0
H926 H 0.74134 0.9804 0.9662 0.0
H927 H 0.77181 0.96597 -0.00604 0.0
H928 H 0.74825 -0.00787 0.14093 0.0
H929 H 0.74024 0.97652 0.06297 0.0
H930 H 0.78452 0.99098 0.02221 0.0
H931 H 0.79249 0.00631 0.10024 0.0
C932 C 0.74269 0.96708 0.90608 0.0
C933 C 0.74945 0.9595 0.88895 0.0
C934 C 0.74647 0.97436 0.95451 0.0
C935 C 0.75709 0.97417 0.98665 0.0
C936 C 0.76371 0.96643 0.96974 0.0
C937 C 0.75993 0.95918 0.92136 0.0
C938 C 0.75624 -0.0082 0.11566 0.0
C939 C 0.77099 0.00049 0.12642 0.0
C940 C 0.75166 0.98296 0.07089 0.0
C941 C 0.76176 0.98262 0.03635 0.0
C942 C 0.77648 0.99091 0.04834 0.0
C943 C 0.78104 -0.00025 0.09292 0.0
H944 H 0.03054 0.80233 0.92338 0.0
H945 H 0.00935 0.75639 0.89935 0.0
H946 H 0.01776 0.79853 0.00713 0.0
H947 H -0.00364 0.75261 0.98252 0.0
H948 H 0.98409 0.74985 0.15503 0.0
H949 H -0.00013 0.75507 0.07853 0.0
H950 H -0.00688 0.79017 0.03519 0.0
H951 H 0.97761 0.78515 0.11212 0.0
C952 C 0.02315 0.79142 0.93598 0.0
C953 C 0.02089 0.77965 0.90475 0.0
C954 C 0.0158 0.78925 0.98385 0.0
C955 C 0.00606 0.77527 0.0014 0.0
C956 C 0.00396 0.76351 0.97044 0.0
C957 C 0.01131 0.76567 0.92261 0.0
C958 C 0.98612 0.75879 0.1295 0.0
C959 C 0.97954 0.76703 0.1393 0.0
C960 C -0.00492 0.76172 0.08554 0.0
C961 C -0.00238 0.77295 0.0506 0.0
C962 C -0.00853 0.78152 0.06162 0.0
C963 C 0.98253 0.7786 0.10557 0.0
H964 H 0.24255 0.23207 0.10741 0.0
H965 H 0.20986 0.18825 0.07355 0.0
H966 H 0.23565 0.24009 0.02741 0.0
H967 H 0.20328 0.19616 -0.00653 0.0
H968 H 0.1835 0.21668 0.89355 0.0
H969 H 0.19144 0.20954 0.97206 0.0
H970 H 0.23577 0.23871 0.92971 0.0
H971 H 0.22775 0.2462 0.85118 0.0
C972 C 0.23395 0.22417 0.08279 0.0
C973 C 0.22666 0.20956 0.0969 0.0
C974 C 0.23008 0.22873 0.03687 0.0
C975 C 0.21888 0.21876 0.00436 0.0
C976 C 0.21178 0.20414 0.01821 0.0
C977 C 0.21559 0.1996 0.06403 0.0
C978 C 0.19495 0.22157 0.9008 0.0
C979 C 0.20502 0.23197 0.86614 0.0
C980 C 0.1995 0.21742 0.94571 0.0
C981 C 0.21423 0.22349 0.95688 0.0
C982 C 0.22434 0.23394 0.92232 0.0
C983 C 0.21977 0.23815 0.87726 0.0
H984 H 0.89829 0.33788 0.43903 0.0
H985 H 0.86683 0.35032 0.39974 0.0
H986 H 0.89181 0.32317 0.359 0.0
H987 H 0.8606 0.3359 0.31936 0.0
H988 H 0.88935 0.31389 0.18082 0.0
H989 H 0.89476 0.32743 0.26336 0.0
H990 H 0.84936 0.31123 0.28826 0.0
H991 H 0.84397 0.29794 0.20515 0.0
C992 C 0.88995 0.33741 0.41345 0.0
C993 C 0.88311 0.3453 0.42546 0.0
C994 C 0.88632 0.32908 0.36747 0.0
C995 C 0.87578 0.32849 0.3327 0.0
C996 C 0.86867 0.33605 0.34559 0.0
C997 C 0.87228 0.34435 0.39154 0.0
C998 C 0.88054 0.31328 0.20382 0.0
C999 C 0.86624 0.30488 0.18655 0.0
C1000 C 0.88362 0.32092 0.2513 0.0
C1001 C 0.87248 0.32031 0.28245 0.0
C1002 C 0.85819 0.31201 0.26487 0.0
C1003 C 0.8551 0.30439 0.21734 0.0
H1004 H 0.66878 0.5736 0.19927 0.0
H1005 H 0.68279 0.54323 0.23598 0.0
H1006 H 0.65451 0.5668 0.28062 0.0
H1007 H 0.66891 0.53676 0.31768 0.0
H1008 H 0.64113 0.5603 0.45548 0.0
H1009 H 0.65674 0.56816 0.37739 0.0
H1010 H 0.64392 0.52397 0.34258 0.0
H1011 H 0.62872 0.5162 0.42085 0.0
C1012 C 0.66886 0.56554 0.22485 0.0
C1013 C 0.6768 0.55887 0.21115 0.0
C1014 C 0.66079 0.56173 0.27158 0.0
C1015 C 0.66057 0.55123 0.30547 0.0
C1016 C 0.66868 0.54472 0.29197 0.0
C1017 C 0.67666 0.54846 0.24523 0.0
C1018 C 0.64177 0.55231 0.43128 0.0
C1019 C 0.63373 0.53765 0.44421 0.0
C1020 C 0.65061 0.55679 0.38644 0.0
C1021 C 0.65155 0.54668 0.35386 0.0
C1022 C 0.64361 0.53205 0.3673 0.0
C1023 C 0.63483 0.52759 0.41204 0.0
H1024 H 0.42597 0.1295 0.23247 0.0
H1025 H 0.39719 0.08522 0.18894 0.0
H1026 H 0.43166 0.12173 0.31485 0.0
H1027 H 0.40324 0.07738 0.27142 0.0
H1028 H 0.45284 0.10273 0.41665 0.0
H1029 H 0.4451 0.11001 0.33808 0.0
H1030 H 0.40101 0.07752 0.36948 0.0
H1031 H 0.40886 0.06993 0.44828 0.0
C1032 C 0.42091 0.11808 0.2404 0.0
C1033 C 0.41123 0.10795 0.20407 0.0
C1034 C 0.4242 0.11364 0.28758 0.0
C1035 C 0.41799 0.09895 0.29937 0.0
C1036 C 0.40809 0.08878 0.26354 0.0
C1037 C 0.40472 0.09325 0.21622 0.0
C1038 C 0.44147 0.09716 0.40709 0.0
C1039 C 0.43145 0.08575 0.43861 0.0
C1040 C 0.43703 0.10139 0.36215 0.0
C1041 C 0.42244 0.09438 0.34775 0.0
C1042 C 0.41234 0.08303 0.37946 0.0
C1043 C 0.41682 0.07876 0.42467 0.0
H1044 H 0.39216 0.29408 0.22774 0.0
H1045 H 0.43709 0.30734 0.20882 0.0
H1046 H 0.39738 0.30624 0.31321 0.0
H1047 H 0.44254 0.32022 0.2926 0.0
H1048 H 0.44787 0.33197 0.46316 0.0
H1049 H 0.44036 0.31694 0.38413 0.0
H1050 H 0.40795 0.32877 0.35369 0.0
H1051 H 0.41494 0.34304 0.43459 0.0
C1052 C 0.4032 0.2998 0.24159 0.0
C1053 C 0.41424 0.29979 0.21186 0.0
C1054 C 0.40621 0.3068 0.29051 0.0
C1055 C 0.42038 0.31416 0.31017 0.0
C1056 C 0.43144 0.31436 0.27957 0.0
C1057 C 0.42838 0.30712 0.23123 0.0
C1058 C 0.43897 0.3311 0.43993 0.0
C1059 C 0.43201 0.33866 0.45467 0.0
C1060 C 0.43476 0.32264 0.39433 0.0
C1061 C 0.42373 0.32185 0.36178 0.0
C1062 C 0.41639 0.32899 0.3779 0.0
C1063 C 0.42041 0.33721 0.42423 0.0
H1064 H 0.69806 0.14 0.26021 0.0
H1065 H 0.65987 0.10465 0.19125 0.0
H1066 H 0.68494 0.13694 0.34346 0.0
H1067 H 0.64673 0.10197 0.27372 0.0
H1068 H 0.62676 0.11436 0.4149 0.0
H1069 H 0.64144 0.12174 0.33436 0.0
H1070 H 0.67088 0.11047 0.40678 0.0
H1071 H 0.65599 0.10265 0.48711 0.0
C1072 C 0.68682 0.13177 0.26261 0.0
C1073 C 0.67994 0.12252 0.21961 0.0
C1074 C 0.67939 0.13002 0.31005 0.0
C1075 C 0.66491 0.11928 0.31436 0.0
C1076 C 0.65789 0.11038 0.27083 0.0
C1077 C 0.6654 0.11188 0.22395 0.0
C1078 C 0.63648 0.11367 0.41399 0.0
C1079 C 0.64022 0.10785 0.45698 0.0
C1080 C 0.64482 0.11787 0.36801 0.0
C1081 C 0.6572 0.11665 0.36494 0.0
C1082 C 0.66139 0.11157 0.40878 0.0
C1083 C 0.65287 0.10706 0.45439 0.0
H1084 H 0.86492 0.52502 0.44609 0.0
H1085 H 0.89961 0.5677 0.483 0.0
H1086 H 0.85895 0.53435 0.36812 0.0
H1087 H 0.8934 0.57712 0.40549 0.0
H1088 H 0.84484 0.55732 0.2534 0.0
H1089 H 0.8496 0.54944 0.33788 0.0
H1090 H 0.89533 0.57553 0.30993 0.0
H1091 H 0.89057 0.58369 0.2261 0.0
C1092 C 0.87112 0.53644 0.43802 0.0
C1093 C 0.88281 0.54561 0.47036 0.0
C1094 C 0.86766 0.5418 0.39345 0.0
C1095 C 0.87577 0.55645 0.38042 0.0
C1096 C 0.88711 0.56573 0.41401 0.0
C1097 C 0.8906 0.56036 0.45857 0.0
C1098 C 0.85591 0.5614 0.26538 0.0
C1099 C 0.86734 0.57108 0.23309 0.0
C1100 C 0.85863 0.55685 0.3137 0.0
C1101 C 0.87284 0.56186 0.33059 0.0
C1102 C 0.88426 0.57165 0.29843 0.0
C1103 C 0.88154 0.57623 0.2502 0.0
H1104 H 0.51113 0.62345 0.59778 0.0
H1105 H 0.5564 0.64267 0.56147 0.0
H1106 H 0.51705 0.6353 0.68374 0.0
H1107 H 0.56236 0.65493 0.64715 0.0
H1108 H 0.53336 0.67524 0.7895 0.0
H1109 H 0.52662 0.65967 0.71252 0.0
H1110 H 0.56171 0.65183 0.74351 0.0
H1111 H 0.56873 0.66782 0.8204 0.0
C1112 C 0.52236 0.63025 0.60815 0.0
C1113 C 0.53332 0.63228 0.57273 0.0
C1114 C 0.52575 0.63704 0.65738 0.0
C1115 C 0.54016 0.64613 0.67208 0.0
C1116 C 0.55115 0.64786 0.63721 0.0
C1117 C 0.54775 0.64096 0.58799 0.0
C1118 C 0.53955 0.67007 0.78035 0.0
C1119 C 0.55165 0.67285 0.81068 0.0
C1120 C 0.53563 0.66107 0.73635 0.0
C1121 C 0.54367 0.65457 0.72179 0.0
C1122 C 0.55544 0.65686 0.7534 0.0
C1123 C 0.55938 0.66591 0.79758 0.0
H1124 H 0.29697 0.84858 0.76819 0.0
H1125 H 0.30868 0.89275 0.79704 0.0
H1126 H 0.31222 0.85588 0.69018 0.0
H1127 H 0.32433 0.90016 0.71896 0.0
H1128 H 0.33382 0.90312 0.53808 0.0
H1129 H 0.32091 0.89743 0.62232 0.0
H1130 H 0.33701 0.8689 0.66191 0.0
H1131 H 0.34959 0.87429 0.57733 0.0
C1132 C 0.30297 0.8599 0.75824 0.0
C1133 C 0.30156 0.87009 0.78847 0.0
C1134 C 0.31179 0.86409 0.71367 0.0
C1135 C 0.31945 0.87859 0.69835 0.0
C1136 C 0.3184 0.88888 0.7295 0.0
C1137 C 0.30954 0.88466 0.77433 0.0
C1138 C 0.33458 0.89563 0.56481 0.0
C1139 C 0.34259 0.88904 0.55097 0.0
C1140 C 0.32731 0.89248 0.61324 0.0
C1141 C 0.32795 0.88272 0.64871 0.0
C1142 C 0.33616 0.87632 0.63509 0.0
C1143 C 0.34337 0.87942 0.58666 0.0
H1144 H 0.12232 0.44021 0.77865 0.0
H1145 H 0.0794 0.40509 0.80987 0.0
H1146 H 0.1135 0.44709 0.70202 0.0
H1147 H 0.07042 0.41228 0.73332 0.0
H1148 H 0.09265 0.46375 0.59255 0.0
H1149 H 0.09885 0.45713 0.67661 0.0
H1150 H 0.07241 0.41219 0.63662 0.0
H1151 H 0.06582 0.41886 0.55289 0.0
C1152 C 0.11094 0.43407 0.76955 0.0
C1153 C 0.10156 0.42206 0.80008 0.0
C1154 C 0.10586 0.43808 0.72577 0.0
C1155 C 0.09125 0.43024 0.71162 0.0
C1156 C 0.08176 0.41843 0.74295 0.0
C1157 C 0.08688 0.41438 0.7869 0.0
C1158 C 0.08811 0.45245 0.60176 0.0
C1159 C 0.07888 0.44181 0.56599 0.0
C1160 C 0.09169 0.44866 0.64988 0.0
C1161 C 0.08623 0.43414 0.66304 0.0
C1162 C 0.07667 0.42347 0.62784 0.0
C1163 C 0.07299 0.42728 0.57975 0.0
H1164 H 0.12603 0.66553 0.78839 0.0
H1165 H 0.08247 0.65305 0.83354 0.0
H1166 H 0.11698 0.65009 0.71062 0.0
H1167 H 0.07341 0.63738 0.75616 0.0
H1168 H 0.09511 0.61364 0.59171 0.0
H1169 H 0.10291 0.62534 0.67802 0.0
H1170 H 0.0743 0.64248 0.66101 0.0
H1171 H 0.06634 0.63062 0.57541 0.0
C1172 C 0.11451 0.65927 0.78226 0.0
C1173 C 0.10497 0.66064 0.81662 0.0
C1174 C 0.10932 0.65038 0.73782 0.0
C1175 C 0.0945 0.64267 0.72699 0.0
C1176 C 0.08491 0.64342 0.76303 0.0
C1177 C 0.09009 0.65231 0.80747 0.0
C1178 C 0.09046 0.61986 0.60656 0.0
C1179 C 0.08016 0.62126 0.57677 0.0
C1180 C 0.09494 0.62657 0.65589 0.0
C1181 C 0.08917 0.63477 0.67634 0.0
C1182 C 0.07876 0.63603 0.64673 0.0
C1183 C 0.0743 0.62934 0.59746 0.0
H1184 H 0.30406 0.44919 0.75888 0.0
H1185 H 0.31626 0.41749 0.79645 0.0
H1186 H 0.31951 0.45644 0.68112 0.0
H1187 H 0.33203 0.425 0.71896 0.0
H1188 H 0.34074 0.42831 0.53851 0.0
H1189 H 0.32808 0.42262 0.6231 0.0
H1190 H 0.34425 0.46782 0.65088 0.0
H1191 H 0.35665 0.4735 0.56568 0.0
C1192 C 0.31023 0.44393 0.75099 0.0
C1193 C 0.30885 0.43267 0.78341 0.0
C1194 C 0.31915 0.44815 0.70656 0.0
C1195 C 0.3269 0.44122 0.69372 0.0
C1196 C 0.32599 0.43037 0.72744 0.0
C1197 C 0.31705 0.42614 0.77195 0.0
C1198 C 0.3416 0.43703 0.56272 0.0
C1199 C 0.3496 0.45133 0.54537 0.0
C1200 C 0.33447 0.43378 0.61139 0.0
C1201 C 0.33521 0.44478 0.64369 0.0
C1202 C 0.34336 0.45911 0.62657 0.0
C1203 C 0.35047 0.46235 0.57784 0.0
H1204 H 0.57165 0.9003 0.79617 0.0
H1205 H 0.53664 0.85772 0.7602 0.0
H1206 H 0.56521 0.9098 0.71932 0.0
H1207 H 0.53046 0.8671 0.68303 0.0
H1208 H 0.56042 0.91662 0.54079 0.0
H1209 H 0.56617 0.90853 0.62295 0.0
H1210 H 0.52079 0.88214 0.65698 0.0
H1211 H 0.51506 0.88992 0.57437 0.0
C1212 C 0.56255 0.893 0.77201 0.0
C1213 C 0.55467 0.87827 0.78407 0.0
C1214 C 0.55893 0.89841 0.72784 0.0
C1215 C 0.54737 0.88919 0.69499 0.0
C1216 C 0.53931 0.87452 0.7079 0.0
C1217 C 0.5429 0.86913 0.752 0.0
C1218 C 0.55169 0.90912 0.56592 0.0
C1219 C 0.5373 0.90382 0.55099 0.0
C1220 C 0.55498 0.90456 0.61316 0.0
C1221 C 0.54393 0.89467 0.64641 0.0
C1222 C 0.52954 0.8896 0.63183 0.0
C1223 C 0.52626 0.8941 0.58457 0.0
H1224 H 0.35414 0.12213 0.19975 0.0
H1225 H 0.34931 0.1012 0.04858 0.0
H1226 H 0.32813 0.11006 0.20907 0.0
H1227 H 0.3232 0.08884 0.0586 0.0
H1228 H 0.28332 0.07164 0.24016 0.0
H1229 H 0.30917 0.08575 0.22647 0.0
H1230 H 0.30226 0.09201 0.06201 0.0
H1231 H 0.27633 0.07759 0.07533 0.0
C1232 C 0.34753 0.11498 0.16838 0.0
C1233 C 0.35382 0.11254 0.1236 0.0
C1234 C 0.33261 0.108 0.1739 0.0
C1235 C 0.3236 0.09836 0.13492 0.0
C1236 C 0.32985 0.09629 0.0892 0.0
C1237 C 0.34481 0.10333 0.08355 0.0
C1238 C 0.28728 0.07605 0.20109 0.0
C1239 C 0.27773 0.07344 0.15884 0.0
C1240 C 0.30212 0.08423 0.19332 0.0
C1241 C 0.30778 0.09004 0.14315 0.0
C1242 C 0.29824 0.08755 0.10098 0.0
C1243 C 0.28338 0.07934 0.10873 0.0
H1244 H 0.8607 0.23714 0.20124 0.0
H1245 H 0.88264 0.25222 0.05098 0.0
H1246 H 0.87308 0.22369 0.21615 0.0
H1247 H 0.89527 0.23901 0.0666 0.0
H1248 H 0.90443 0.20222 0.08712 0.0
H1249 H 0.89115 0.21475 0.0716 0.0
H1250 H 0.89692 0.2279 0.23597 0.0
H1251 H 0.90992 0.21507 0.25189 0.0
C1252 C 0.8682 0.23763 0.17143 0.0
C1253 C 0.87069 0.24579 0.12491 0.0
C1254 C 0.87535 0.22997 0.18016 0.0
C1255 C 0.8852 0.23031 0.14267 0.0
C1256 C 0.88762 0.23838 0.09598 0.0
C1257 C 0.88043 0.24602 0.08716 0.0
C1258 C 0.90284 0.20774 0.12004 0.0
C1259 C 0.90826 0.20764 0.17078 0.0
C1260 C 0.8953 0.215 0.11102 0.0
C1261 C 0.89301 0.22237 0.15248 0.0
C1262 C 0.89833 0.22218 0.2033 0.0
C1263 C 0.90585 0.21488 0.21237 0.0
H1264 H 0.73169 0.62202 0.05403 0.0
H1265 H 0.74828 0.61726 0.20441 0.0
H1266 H 0.74615 0.64805 0.06213 0.0
H1267 H 0.76299 0.64326 0.2118 0.0
H1268 H 0.77128 0.68927 0.2373 0.0
H1269 H 0.75915 0.66327 0.22789 0.0
H1270 H 0.77062 0.66807 0.0618 0.0
H1271 H 0.78248 0.69409 0.07083 0.0
C1272 C 0.73854 0.62651 0.08852 0.0
C1273 C 0.73874 0.61755 0.12874 0.0
C1274 C 0.7469 0.64144 0.09301 0.0
C1275 C 0.75569 0.64773 0.13772 0.0
C1276 C 0.75616 0.63876 0.17727 0.0
C1277 C 0.74777 0.62384 0.17288 0.0
C1278 C 0.77133 0.6848 0.19885 0.0
C1279 C 0.77777 0.69377 0.15475 0.0
C1280 C 0.76443 0.66988 0.19352 0.0
C1281 C 0.76386 0.66359 0.14401 0.0
C1282 C 0.77067 0.67257 0.10027 0.0
C1283 C 0.77754 0.6875 0.10556 0.0
H1284 H 0.06383 0.29059 0.73381 0.0
H1285 H 0.08306 0.28638 0.87861 0.0
H1286 H 0.07733 0.31666 0.74315 0.0
H1287 H 0.09672 0.31241 0.88724 0.0
H1288 H 0.11232 0.36371 0.75466 0.0
H1289 H 0.10142 0.33784 0.7418 0.0
H1290 H 0.091 0.33101 0.90872 0.0
H1291 H 0.1021 0.35681 0.92187 0.0
C1292 C 0.07107 0.29521 0.76723 0.0
C1293 C 0.07225 0.28638 0.80572 0.0
C1294 C 0.07886 0.31016 0.77244 0.0
C1295 C 0.08801 0.31659 0.81619 0.0
C1296 C 0.08957 0.30777 0.8536 0.0
C1297 C 0.08178 0.29285 0.84846 0.0
C1298 C 0.10779 0.3567 0.7887 0.0
C1299 C 0.10805 0.36234 0.8393 0.0
C1300 C 0.10148 0.34187 0.78123 0.0
C1301 C 0.09534 0.33238 0.8242 0.0
C1302 C 0.09582 0.33804 0.8749 0.0
C1303 C 0.10211 0.35285 0.88238 0.0
H1304 H 0.68517 0.77383 0.71684 0.0
H1305 H 0.69094 0.76765 0.88248 0.0
H1306 H 0.65931 0.76266 0.7308 0.0
H1307 H 0.6651 0.7558 0.89603 0.0
H1308 H 0.61912 0.74526 0.91674 0.0
H1309 H 0.64504 0.75868 0.90241 0.0
H1310 H 0.6389 0.74034 0.74524 0.0
H1311 H 0.61303 0.72761 0.75873 0.0
C1312 C 0.68089 0.77 0.75616 0.0
C1313 C 0.69008 0.77161 0.79853 0.0
C1314 C 0.66605 0.7635 0.76418 0.0
C1315 C 0.66003 0.75822 0.81455 0.0
C1316 C 0.6693 0.75994 0.85692 0.0
C1317 C 0.68414 0.76666 0.84909 0.0
C1318 C 0.62335 0.74416 0.87911 0.0
C1319 C 0.61405 0.7354 0.83888 0.0
C1320 C 0.63822 0.75179 0.87092 0.0
C1321 C 0.64415 0.75061 0.82264 0.0
C1322 C 0.63478 0.74179 0.78251 0.0
C1323 C 0.61991 0.73438 0.79037 0.0
H1324 H 0.19158 0.90138 0.88295 0.0
H1325 H 0.21243 0.91768 0.73166 0.0
H1326 H 0.20443 0.88819 0.8932 0.0
H1327 H 0.22551 0.90478 0.74259 0.0
H1328 H 0.23495 0.86816 0.75214 0.0
H1329 H 0.22144 0.88063 0.74295 0.0
H1330 H 0.22849 0.89223 0.90886 0.0
H1331 H 0.24177 0.87941 0.9185 0.0
C1332 C 0.19893 0.90219 0.85193 0.0
C1333 C 0.20095 0.91058 0.80641 0.0
C1334 C 0.20636 0.89469 0.858 0.0
C1335 C 0.21601 0.89543 0.81875 0.0
C1336 C 0.21801 0.90381 0.77323 0.0
C1337 C 0.21055 0.91127 0.76708 0.0
C1338 C 0.23363 0.87335 0.78677 0.0
C1339 C 0.23949 0.87281 0.83607 0.0
C1340 C 0.22594 0.88058 0.78138 0.0
C1341 C 0.22395 0.8875 0.82507 0.0
C1342 C 0.2297 0.88688 0.87453 0.0
C1343 C 0.23738 0.87959 0.87999 0.0
H1344 H 0.68842 0.89158 0.86952 0.0
H1345 H 0.68605 0.91063 0.72141 0.0
H1346 H 0.66238 0.8797 0.87801 0.0
H1347 H 0.65997 0.89892 0.73056 0.0
H1348 H 0.61199 0.86581 0.74322 0.0
H1349 H 0.63776 0.87555 0.73091 0.0
H1350 H 0.64491 0.88723 0.89671 0.0
H1351 H 0.61918 0.87729 0.90935 0.0
C1352 C 0.68235 0.8932 0.83861 0.0
C1353 C 0.68935 0.90215 0.79493 0.0
C1354 C 0.66742 0.88645 0.84369 0.0
C1355 C 0.65912 0.88848 0.80526 0.0
C1356 C 0.66605 0.89705 0.76067 0.0
C1357 C 0.68101 0.90381 0.75554 0.0
C1358 C 0.61905 0.87041 0.77712 0.0
C1359 C 0.61351 0.87077 0.8273 0.0
C1360 C 0.63383 0.87605 0.76996 0.0
C1361 C 0.64338 0.88215 0.81282 0.0
C1362 C 0.63782 0.88242 0.86303 0.0
C1363 C 0.62306 0.87679 0.8702 0.0
H1364 H 0.06252 0.75506 0.73061 0.0
H1365 H 0.08609 0.77846 0.87003 0.0
H1366 H 0.07341 0.73979 0.73774 0.0
H1367 H 0.09696 0.76347 0.87645 0.0
H1368 H 0.09891 0.72365 0.91464 0.0
H1369 H 0.08776 0.73819 0.90006 0.0
H1370 H 0.09735 0.74054 0.73274 0.0
H1371 H 0.10844 0.7257 0.74709 0.0
C1372 C 0.07008 0.75702 0.76241 0.0
C1373 C 0.07329 0.76786 0.80011 0.0
C1374 C 0.07634 0.74833 0.76635 0.0
C1375 C 0.08587 0.75032 0.8081 0.0
C1376 C 0.08941 0.76147 0.84454 0.0
C1377 C 0.0832 0.77011 0.84066 0.0
C1378 C 0.09864 0.7272 0.87463 0.0
C1379 C 0.10469 0.7236 0.8321 0.0
C1380 C 0.09229 0.7356 0.86635 0.0
C1381 C 0.09184 0.74064 0.81537 0.0
C1382 C 0.09752 0.73675 0.77243 0.0
C1383 C 0.10392 0.72832 0.78074 0.0
H1384 H 0.21387 0.29629 0.71565 0.0
H1385 H 0.19479 0.29336 0.86949 0.0
H1386 H 0.2272 0.32241 0.72301 0.0
H1387 H 0.20779 0.31942 0.87613 0.0
H1388 H 0.24674 0.36396 0.90034 0.0
H1389 H 0.23228 0.33807 0.88967 0.0
H1390 H 0.22501 0.34375 0.72498 0.0
H1391 H 0.23983 0.36972 0.73525 0.0
C1392 C 0.21236 0.30121 0.7507 0.0
C1393 C 0.20337 0.29273 0.79219 0.0
C1394 C 0.21996 0.31619 0.75481 0.0
C1395 C 0.21866 0.323 0.80038 0.0
C1396 C 0.20927 0.31451 0.84099 0.0
C1397 C 0.20175 0.29956 0.83703 0.0
C1398 C 0.24206 0.35971 0.86183 0.0
C1399 C 0.24446 0.36892 0.81864 0.0
C1400 C 0.23367 0.34485 0.8558 0.0
C1401 C 0.22742 0.33883 0.80653 0.0
C1402 C 0.2298 0.34804 0.76332 0.0
C1403 C 0.23824 0.36292 0.76929 0.0
H1404 H 0.9123 0.71076 0.08358 0.0
H1405 H 0.91304 0.70315 0.25177 0.0
H1406 H 0.89712 0.68494 0.069 0.0
H1407 H 0.89815 0.67747 0.23698 0.0
H1408 H 0.88534 0.63677 0.06429 0.0
H1409 H 0.8989 0.66291 0.07336 0.0
H1410 H 0.87368 0.65991 0.21129 0.0
H1411 H 0.86035 0.63391 0.20299 0.0
C1412 C 0.90923 0.70361 0.11743 0.0
C1413 C 0.91389 0.70904 0.16887 0.0
C1414 C 0.9006 0.68882 0.10899 0.0
C1415 C 0.8964 0.67918 0.15183 0.0
C1416 C 0.901 0.68463 0.20322 0.0
C1417 C 0.90963 0.69937 0.21165 0.0
C1418 C 0.88262 0.64171 0.09627 0.0
C1419 C 0.87188 0.63323 0.13326 0.0
C1420 C 0.89034 0.65668 0.10131 0.0
C1421 C 0.88746 0.66345 0.1434 0.0
C1422 C 0.87635 0.65499 0.17908 0.0
C1423 C 0.86867 0.64008 0.17412 0.0
H1424 H 0.35347 0.24059 0.05462 0.0
H1425 H 0.36033 0.23113 0.21524 0.0
H1426 H 0.32759 0.22653 0.06803 0.0
H1427 H 0.33437 0.21684 0.22823 0.0
H1428 H 0.28166 0.19196 0.09394 0.0
H1429 H 0.30749 0.20228 0.08248 0.0
H1430 H 0.31476 0.22217 0.23688 0.0
H1431 H 0.2889 0.21165 0.2489 0.0
C1432 C 0.34947 0.23535 0.09255 0.0
C1433 C 0.35899 0.2371 0.13397 0.0
C1434 C 0.33462 0.22721 0.10013 0.0
C1435 C 0.32893 0.22063 0.1493 0.0
C1436 C 0.33843 0.22195 0.19015 0.0
C1437 C 0.35331 0.23007 0.18255 0.0
C1438 C 0.28874 0.19843 0.12572 0.0
C1439 C 0.2832 0.20109 0.17217 0.0
C1440 C 0.30356 0.20438 0.119 0.0
C1441 C 0.31317 0.21313 0.15857 0.0
C1442 C 0.30762 0.21537 0.20584 0.0
C1443 C 0.29279 0.20941 0.21259 0.0
H1444 H 0.72023 0.08957 0.07228 0.0
H1445 H 0.73686 0.10653 0.22824 0.0
H1446 H 0.73047 0.07381 0.07899 0.0
H1447 H 0.74735 0.09119 0.23416 0.0
H1448 H 0.75581 0.0546 0.24989 0.0
H1449 H 0.74196 0.06683 0.2429 0.0
H1450 H 0.75409 0.07622 0.07796 0.0
H1451 H 0.76758 0.06362 0.08447 0.0
C1452 C 0.72601 0.0899 0.10801 0.0
C1453 C 0.72777 0.09935 0.1496 0.0
C1454 C 0.73194 0.08093 0.11173 0.0
C1455 C 0.73975 0.08126 0.15707 0.0
C1456 C 0.74121 0.09048 0.19903 0.0
C1457 C 0.73526 0.09938 0.19541 0.0
C1458 C 0.75545 0.05919 0.21205 0.0
C1459 C 0.7629 0.05823 0.16787 0.0
C1460 C 0.74755 0.06624 0.20808 0.0
C1461 C 0.74699 0.07259 0.15996 0.0
C1462 C 0.75414 0.0713 0.11543 0.0
C1463 C 0.76197 0.06417 0.1193 0.0
H1464 H 0.01816 0.43304 0.39032 0.0
H1465 H 0.02138 0.45535 0.53689 0.0
H1466 H -0.008 0.42141 0.3946 0.0
H1467 H -0.00471 0.44394 0.54047 0.0
H1468 H 0.94564 0.41219 0.39645 0.0
H1469 H 0.97179 0.42584 0.38932 0.0
H1470 H 0.97538 0.41984 0.55702 0.0
H1471 H 0.94929 0.40646 0.56448 0.0
C1472 C 0.01331 0.43559 0.42311 0.0
C1473 C 0.02187 0.44504 0.46349 0.0
C1474 C -0.00168 0.42898 0.42541 0.0
C1475 C -0.00843 0.43168 0.46808 0.0
C1476 C 0.00015 0.44144 0.50757 0.0
C1477 C 0.01512 0.44804 0.50533 0.0
C1478 C 0.952 0.41385 0.43188 0.0
C1479 C 0.94536 0.4082 0.48104 0.0
C1480 C 0.96699 0.4216 0.42769 0.0
C1481 C 0.97566 0.42391 0.47257 0.0
C1482 C 0.96901 0.41842 0.52181 0.0
C1483 C 0.95404 0.41067 0.52602 0.0
H1484 H 0.57208 0.54218 0.58119 0.0
H1485 H 0.56614 0.53096 0.41471 0.0
H1486 H 0.55824 0.55431 0.57055 0.0
H1487 H 0.55208 0.54294 0.4044 0.0
H1488 H 0.52168 0.56305 0.54641 0.0
H1489 H 0.5337 0.54903 0.5529 0.0
H1490 H 0.55605 0.56758 0.40595 0.0
H1491 H 0.54383 0.58151 0.39883 0.0
C1492 C 0.56774 0.5422 0.5424 0.0
C1493 C 0.57026 0.53561 0.49881 0.0
C1494 C 0.55973 0.54909 0.53637 0.0
C1495 C 0.55405 0.54957 0.48662 0.0
C1496 C 0.55644 0.54288 0.4431 0.0
C1497 C 0.56443 0.53595 0.44914 0.0
C1498 C 0.52908 0.5641 0.5152 0.0
C1499 C 0.53187 0.5735 0.47226 0.0
C1500 C 0.53603 0.5561 0.51913 0.0
C1501 C 0.54593 0.5573 0.48024 0.0
C1502 C 0.54839 0.56635 0.43639 0.0
C1503 C 0.54144 0.57438 0.43243 0.0
H1504 H 0.42641 0.01972 0.57708 0.0
H1505 H 0.43983 0.025 0.41292 0.0
H1506 H 0.41524 -0.00627 0.56768 0.0
H1507 H 0.42896 -0.00089 0.40402 0.0
H1508 H 0.40902 0.94892 0.54663 0.0
H1509 H 0.42129 0.97495 0.5551 0.0
H1510 H 0.40522 0.97795 0.40117 0.0
H1511 H 0.39319 0.95192 0.39208 0.0
C1512 C 0.42707 0.01536 0.53913 0.0
C1513 C 0.43397 0.02445 0.49573 0.0
C1514 C 0.42073 0.00046 0.53382 0.0
C1515 C 0.42119 -0.00565 0.48505 0.0
C1516 C 0.42823 0.00346 0.44188 0.0
C1517 C 0.43453 0.01832 0.44713 0.0
C1518 C 0.40816 0.95512 0.51441 0.0
C1519 C 0.40009 0.94831 0.46868 0.0
C1520 C 0.41512 0.97005 0.51947 0.0
C1521 C 0.41417 0.97852 0.47897 0.0
C1522 C 0.4063 0.97174 0.43287 0.0
C1523 C 0.39935 0.95681 0.42775 0.0
H1524 H 0.58228 0.03577 0.56966 0.0
H1525 H 0.57636 0.04245 0.40446 0.0
H1526 H 0.56902 0.00994 0.55576 0.0
H1527 H 0.56286 0.01646 0.39086 0.0
H1528 H 0.55252 0.96874 0.38183 0.0
H1529 H 0.56597 -0.00505 0.39036 0.0
H1530 H 0.54404 -0.00832 0.53777 0.0
H1531 H 0.53083 0.96571 0.52986 0.0
C1532 C 0.57815 0.03175 0.53035 0.0
C1533 C 0.58034 0.04121 0.48825 0.0
C1534 C 0.57047 0.01692 0.52247 0.0
C1535 C 0.56479 0.01116 0.47231 0.0
C1536 C 0.56718 0.02059 0.42988 0.0
C1537 C 0.57485 0.03547 0.43779 0.0
C1538 C 0.55052 0.97364 0.41587 0.0
C1539 C 0.54068 0.9651 0.45536 0.0
C1540 C 0.55819 0.98864 0.42064 0.0
C1541 C 0.55618 -0.00465 0.46506 0.0
C1542 C 0.54605 0.98682 0.50364 0.0
C1543 C 0.53841 0.97191 0.49888 0.0
H1544 H 0.94786 0.54235 0.58362 0.0
H1545 H 0.94019 0.53468 0.41516 0.0
H1546 H 0.97341 0.55182 0.56924 0.0
H1547 H 0.96589 0.54403 0.40099 0.0
H1548 H 0.01565 0.5544 0.53581 0.0
H1549 H -0.01034 0.54314 0.543 0.0
H1550 H -0.01105 0.56726 0.40699 0.0
H1551 H 0.01507 0.57844 0.39908 0.0
C1552 C 0.9516 0.54261 0.5435 0.0
C1553 C 0.94196 0.53774 0.50055 0.0
C1554 C 0.96626 0.54796 0.53533 0.0
C1555 C 0.97165 0.54859 0.48402 0.0
C1556 C 0.96205 0.54376 0.44093 0.0
C1557 C 0.94733 0.53834 0.44913 0.0
C1558 C 0.00999 0.55726 0.5071 0.0
C1559 C 0.01748 0.56745 0.46718 0.0
C1560 C -0.00492 0.55084 0.51142 0.0
C1561 C -0.01271 0.55446 0.476 0.0
C1562 C -0.00533 0.56421 0.43473 0.0
C1563 C 0.00963 0.57066 0.43036 0.0
H1564 H 0.41893 0.45961 0.52236 0.0
H1565 H 0.39815 0.43578 0.37997 0.0
H1566 H 0.43123 0.44592 0.53216 0.0
H1567 H 0.41026 0.42187 0.39055 0.0
H1568 H 0.43405 0.40573 0.57101 0.0
H1569 H 0.4241 0.42139 0.55617 0.0
H1570 H 0.43357 0.42306 0.38886 0.0
H1571 H 0.44328 0.40712 0.40343 0.0
C1572 C 0.41702 0.45149 0.49299 0.0
C1573 C 0.40746 0.44871 0.45059 0.0
C1574 C 0.42402 0.44359 0.49881 0.0
C1575 C 0.4216 0.43271 0.46248 0.0
C1576 C 0.41244 0.43026 0.419 0.0
C1577 C 0.40545 0.4382 0.41308 0.0
C1578 C 0.43407 0.40946 0.53105 0.0
C1579 C 0.43943 0.40512 0.4884 0.0
C1580 C 0.42845 0.41853 0.5226 0.0
C1581 C 0.42808 0.4235 0.47134 0.0
C1582 C 0.43357 0.41929 0.42872 0.0
C1583 C 0.43919 0.4102 0.43716 0.0
H1584 H 0.22586 0.07976 0.31007 0.0
H1585 H 0.20567 0.07643 0.15828 0.0
H1586 H 0.22232 0.09987 0.33377 0.0
H1587 H 0.20255 0.09646 0.18079 0.0
H1588 H 0.1974 0.13182 0.21251 0.0
H1589 H 0.19221 0.10739 0.23061 0.0
H1590 H 0.23406 0.12437 0.3039 0.0
H1591 H 0.23869 0.14873 0.28892 0.0
C1592 C 0.22044 0.08314 0.28223 0.0
C1593 C 0.2163 0.07672 0.23189 0.0
C1594 C 0.21845 0.09467 0.29572 0.0
C1595 C 0.21223 0.09988 0.25917 0.0
C1596 C 0.20718 0.09269 0.21048 0.0
C1597 C 0.20917 0.08127 0.1971 0.0
C1598 C 0.20517 0.13024 0.23455 0.0
C1599 C 0.2185 0.142 0.24872 0.0
C1600 C 0.20228 0.11629 0.24461 0.0
C1601 C 0.21293 0.11391 0.26695 0.0
C1602 C 0.22561 0.12576 0.28657 0.0
C1603 C 0.22832 0.13974 0.27783 0.0
H1604 H 0.84154 0.07777 0.12959 0.0
H1605 H 0.83126 0.0758 0.29638 0.0
H1606 H 0.86469 0.09877 0.14535 0.0
H1607 H 0.85496 0.09699 0.31248 0.0
H1608 H 0.88916 0.14689 0.28565 0.0
H1609 H 0.86758 0.12304 0.29077 0.0
H1610 H 0.88758 0.10632 0.18611 0.0
H1611 H 0.9087 0.13016 0.17923 0.0
C1612 C 0.84427 0.08172 0.16989 0.0
C1613 C 0.83448 0.0751 0.21169 0.0
C1614 C 0.85768 0.09373 0.17905 0.0
C1615 C 0.86176 0.09947 0.23032 0.0
C1616 C 0.85209 0.0928 0.27253 0.0
C1617 C 0.83857 0.08066 0.26332 0.0
C1618 C 0.88902 0.13799 0.26495 0.0
C1619 C 0.90039 0.14033 0.23124 0.0
C1620 C 0.8767 0.12434 0.26795 0.0
C1621 C 0.87575 0.11289 0.23777 0.0
C1622 C 0.88782 0.11502 0.20858 0.0
C1623 C 0.89993 0.12864 0.20482 0.0
H1624 H 0.89987 0.75057 0.28987 0.0
H1625 H 0.91806 0.78789 0.18821 0.0
H1626 H 0.87742 0.75102 0.29442 0.0
H1627 H 0.89598 0.78896 0.19524 0.0
H1628 H 0.85 0.76718 0.12921 0.0
H1629 H 0.87437 0.77372 0.15087 0.0
H1630 H 0.86186 0.76056 0.31353 0.0
H1631 H 0.83696 0.75347 0.29099 0.0
C1632 C 0.89925 0.75923 0.27038 0.0
C1633 C 0.91051 0.76901 0.23774 0.0
C1634 C 0.8864 0.75955 0.27313 0.0
C1635 C 0.88474 0.7698 0.24394 0.0
C1636 C 0.89672 0.78063 0.21674 0.0
C1637 C 0.9094 0.78009 0.21294 0.0
C1638 C 0.85239 0.76579 0.16983 0.0
C1639 C 0.84146 0.75957 0.20815 0.0
C1640 C 0.8665 0.76976 0.18254 0.0
C1641 C 0.87016 0.76772 0.23409 0.0
C1642 C 0.85938 0.76216 0.27332 0.0
C1643 C 0.84514 0.75815 0.26048 0.0
H1644 H 0.0618 0.20266 0.75815 0.0
H1645 H 0.0832 0.24472 0.68653 0.0
H1646 H 0.08236 0.19972 0.73724 0.0
H1647 H 0.10421 0.24231 0.66859 0.0
H1648 H 0.1433 0.23816 0.6605 0.0
H1649 H 0.11884 0.23248 0.63652 0.0
H1650 H 0.10356 0.21174 0.78875 0.0
H1651 H 0.12754 0.21711 0.81164 0.0
C1652 C 0.07074 0.21105 0.73622 0.0
C1653 C 0.0711 0.22396 0.72439 0.0
C1654 C 0.08256 0.20945 0.72459 0.0
C1655 C 0.09514 0.22099 0.70303 0.0
C1656 C 0.09474 0.23321 0.68529 0.0
C1657 C 0.08272 0.23464 0.69567 0.0
C1658 C 0.13458 0.23207 0.68803 0.0
C1659 C 0.13734 0.22831 0.73832 0.0
C1660 C 0.12061 0.22886 0.67441 0.0
C1661 C 0.10921 0.22169 0.71068 0.0
C1662 C 0.11193 0.21706 0.75927 0.0
C1663 C 0.12579 0.22033 0.77287 0.0
H1664 H 0.76395 0.84605 0.80061 0.0
H1665 H 0.74133 0.82898 0.65284 0.0
H1666 H 0.7673 0.86937 0.77874 0.0
H1667 H 0.74501 0.85275 0.6299 0.0
H1668 H 0.77313 0.91027 0.74692 0.0
H1669 H 0.77735 0.89049 0.72662 0.0
H1670 H 0.73404 0.86593 0.66503 0.0
H1671 H 0.73028 0.88613 0.68255 0.0
C1672 C 0.75996 0.84737 0.76275 0.0
C1673 C 0.75211 0.83561 0.72897 0.0
C1674 C 0.76206 0.86086 0.74975 0.0
C1675 C 0.75638 0.86298 0.70251 0.0
C1676 C 0.74939 0.85143 0.66681 0.0
C1677 C 0.74733 0.83785 0.67986 0.0
C1678 C 0.76481 0.90087 0.72672 0.0
C1679 C 0.75138 0.89956 0.71649 0.0
C1680 C 0.76715 0.8895 0.71549 0.0
C1681 C 0.75588 0.87645 0.69578 0.0
C1682 C 0.74297 0.8758 0.68012 0.0
C1683 C 0.74077 0.88735 0.69025 0.0
H1684 H 0.12201 0.90479 0.77021 0.0
H1685 H 0.14876 0.89921 0.65597 0.0
H1686 H 0.1014 0.88222 0.74202 0.0
H1687 H 0.12806 0.87637 0.62808 0.0
H1688 H 0.10041 0.83094 0.72139 0.0
H1689 H 0.11799 0.8552 0.69348 0.0
H1690 H 0.0839 0.86503 0.67217 0.0
H1691 H 0.06622 0.84045 0.69928 0.0
C1692 C 0.12334 0.89895 0.73776 0.0
C1693 C 0.13699 0.90354 0.71598 0.0
C1694 C 0.11151 0.88609 0.72119 0.0
C1695 C 0.11319 0.87748 0.68323 0.0
C1696 C 0.12652 0.88281 0.65753 0.0
C1697 C 0.13834 0.89585 0.67349 0.0
C1698 C 0.09666 0.83811 0.70831 0.0
C1699 C 0.08209 0.83399 0.71241 0.0
C1700 C 0.10668 0.85196 0.69201 0.0
C1701 C 0.1023 0.86202 0.68094 0.0
C1702 C 0.08752 0.85746 0.68042 0.0
C1703 C 0.07744 0.84345 0.69581 0.0
H1704 H 0.89044 0.41395 0.6232 0.0
H1705 H 0.87548 0.41406 0.46402 0.0
H1706 H 0.88579 0.43335 0.64744 0.0
H1707 H 0.87126 0.43337 0.48737 0.0
H1708 H 0.86068 0.46521 0.52849 0.0
H1709 H 0.85768 0.44125 0.53588 0.0
H1710 H 0.89721 0.45875 0.62595 0.0
H1711 H 0.89966 0.48257 0.62106 0.0
C1712 C 0.88599 0.41796 0.59369 0.0
C1713 C 0.8835 0.41261 0.54152 0.0
C1714 C 0.88337 0.42908 0.60749 0.0
C1715 C 0.87814 0.43493 0.56945 0.0
C1716 C 0.87502 0.42901 0.51815 0.0
C1717 C 0.87764 0.41801 0.50445 0.0
C1718 C 0.86843 0.46379 0.55142 0.0
C1719 C 0.88051 0.47567 0.57347 0.0
C1720 C 0.86678 0.45012 0.55543 0.0
C1721 C 0.87745 0.44816 0.58002 0.0
C1722 C 0.88878 0.45985 0.60672 0.0
C1723 C 0.89024 0.47352 0.60379 0.0
H1724 H 0.51127 0.40553 0.476 0.0
H1725 H 0.4971 0.40908 0.63287 0.0
H1726 H 0.53479 0.42568 0.49403 0.0
H1727 H 0.52115 0.42924 0.65201 0.0
H1728 H 0.55487 0.47787 0.6123 0.0
H1729 H 0.53419 0.45378 0.62372 0.0
H1730 H 0.55675 0.43602 0.539 0.0
H1731 H 0.5769 0.46021 0.52465 0.0
C1732 C 0.51328 0.41044 0.51493 0.0
C1733 C 0.50222 0.40586 0.55263 0.0
C1734 C 0.5269 0.42194 0.52564 0.0
C1735 C 0.52993 0.42917 0.57456 0.0
C1736 C 0.51913 0.42403 0.61368 0.0
C1737 C 0.50538 0.41245 0.60282 0.0
C1738 C 0.55549 0.46873 0.59754 0.0
C1739 C 0.56724 0.47078 0.5668 0.0
C1740 C 0.54368 0.45491 0.60425 0.0
C1741 C 0.54364 0.44297 0.58102 0.0
C1742 C 0.55623 0.44501 0.55586 0.0
C1743 C 0.56781 0.45882 0.54793 0.0
H1744 H 0.57603 0.11665 0.53175 0.0
H1745 H 0.55766 0.0762 0.61498 0.0
H1746 H 0.55371 0.11708 0.54313 0.0
H1747 H 0.53491 0.07611 0.62381 0.0
H1748 H 0.49443 0.07931 0.62955 0.0
H1749 H 0.51915 0.08542 0.65132 0.0
H1750 H 0.53256 0.10241 0.49299 0.0
H1751 H 0.50836 0.0967 0.47205 0.0
C1752 C 0.56727 0.10801 0.55358 0.0
C1753 C 0.56838 0.0963 0.57187 0.0
C1754 C 0.55447 0.1082 0.55987 0.0
C1755 C 0.5424 0.09642 0.58291 0.0
C1756 C 0.544 0.08536 0.6059 0.0
C1757 C 0.55699 0.08536 0.60071 0.0
C1758 C 0.50277 0.0846 0.59993 0.0
C1759 C 0.49942 0.08738 0.5489 0.0
C1760 C 0.51688 0.08804 0.61231 0.0
C1761 C 0.52785 0.09446 0.57403 0.0
C1762 C 0.52451 0.09776 0.52393 0.0
C1763 C 0.51052 0.09429 0.5116 0.0
H1764 H 0.73884 0.54231 0.11415 0.0
H1765 H 0.74323 0.57078 0.98546 0.0
H1766 H 0.76091 0.54319 0.08717 0.0
H1767 H 0.7655 0.57163 0.95789 0.0
H1768 H 0.81272 0.59246 0.03466 0.0
H1769 H 0.78797 0.58469 0.00944 0.0
H1770 H 0.77706 0.54034 0.02682 0.0
H1771 H 0.80192 0.54832 0.05301 0.0
C1772 C 0.74429 0.54836 0.07889 0.0
C1773 C 0.73955 0.55676 0.0527 0.0
C1774 C 0.7569 0.54877 0.06298 0.0
C1775 C 0.7651 0.55769 0.02085 0.0
C1776 C 0.75948 0.56481 -0.00908 0.0
C1777 C 0.74672 0.56428 0.00659 0.0
C1778 C 0.80514 0.58107 0.03069 0.0
C1779 C 0.80903 0.57095 0.04573 0.0
C1780 C 0.79097 0.57657 0.01598 0.0
C1781 C 0.7805 0.56188 0.01684 0.0
C1782 C 0.78487 0.55173 0.02635 0.0
C1783 C 0.79905 0.55626 0.0411 0.0
H1784 H 0.40893 0.16947 0.98691 0.0
H1785 H 0.43128 0.18623 0.13525 0.0
H1786 H 0.41436 0.1937 0.96133 0.0
H1787 H 0.43632 0.20997 0.11106 0.0
H1788 H 0.44347 0.25112 0.08062 0.0
H1789 H 0.44714 0.231 0.06035 0.0
H1790 H 0.40445 0.20799 -0.00775 0.0
H1791 H 0.40135 0.22858 0.00918 0.0
C1792 C 0.41528 0.17837 0.01341 0.0
C1793 C 0.41942 0.17595 0.06353 0.0
C1794 C 0.41834 0.19221 -0.00107 0.0
C1795 C 0.42566 0.20382 0.03423 0.0
C1796 C 0.43082 0.20145 0.0823 0.0
C1797 C 0.42774 0.18772 0.09668 0.0
C1798 C 0.43518 0.24198 0.05917 0.0
C1799 C 0.42206 0.2412 0.04716 0.0
C1800 C 0.4372 0.23042 0.04786 0.0
C1801 C 0.42588 0.21764 0.02655 0.0
C1802 C 0.41341 0.2176 0.00879 0.0
C1803 C 0.41157 0.22938 0.01868 0.0
H1804 H 0.73546 0.17397 0.00927 0.0
H1805 H 0.76641 0.16569 0.08702 0.0
H1806 H 0.7551 0.19728 0.97822 0.0
H1807 H 0.78595 0.18856 0.05451 0.0
H1808 H 0.8195 0.22914 0.98819 0.0
H1809 H 0.79864 0.20549 0.96897 0.0
H1810 H 0.77113 0.21763 0.05152 0.0
H1811 H 0.79195 0.24098 0.07215 0.0
C1812 C 0.74649 0.1769 0.01777 0.0
C1813 C 0.74953 0.16823 0.05077 0.0
C1814 C 0.75767 0.19016 0.0 0.0
C1815 C 0.77198 0.19461 0.01379 0.0
C1816 C 0.77502 0.18527 0.04267 0.0
C1817 C 0.76387 0.17227 0.06164 0.0
C1818 C 0.80889 0.22693 0.00022 0.0
C1819 C 0.80726 0.23672 0.03215 0.0
C1820 C 0.797 0.21344 -0.01076 0.0
C1821 C 0.78335 0.2098 0.00892 0.0
C1822 C 0.78152 0.22025 0.03545 0.0
C1823 C 0.79343 0.23355 0.04757 0.0
H1824 H 0.55937 0.74643 0.97071 0.0
H1825 H 0.54848 0.74506 0.80479 0.0
H1826 H 0.55524 0.76666 0.98382 0.0
H1827 H 0.54483 0.76523 0.81735 0.0
H1828 H 0.53314 0.79742 0.84269 0.0
H1829 H 0.5303 0.77366 0.85501 0.0
H1830 H 0.56733 0.79184 0.95895 0.0
H1831 H 0.5696 0.81549 0.94876 0.0
C1832 C 0.55598 0.75033 0.93724 0.0
C1833 C 0.55437 0.7442 0.88663 0.0
C1834 C 0.55366 0.76194 0.94471 0.0
C1835 C 0.54964 0.76755 0.90174 0.0
C1836 C 0.5476 0.76105 0.8517 0.0
C1837 C 0.54988 0.74953 0.84431 0.0
C1838 C 0.54039 0.79622 0.86941 0.0
C1839 C 0.55172 0.80825 0.89413 0.0
C1840 C 0.53884 0.78265 0.87625 0.0
C1841 C 0.54886 0.78092 0.90668 0.0
C1842 C 0.55942 0.79277 0.93527 0.0
C1843 C 0.56076 0.80634 0.92933 0.0
H1844 H 0.16332 0.74354 0.95728 0.0
H1845 H 0.18296 0.72795 0.84632 0.0
H1846 H 0.18575 0.76661 0.96186 0.0
H1847 H 0.20551 0.75064 0.85269 0.0
H1848 H 0.23057 0.80688 0.96388 0.0
H1849 H 0.21174 0.78195 0.98097 0.0
H1850 H 0.21001 0.7728 0.81331 0.0
H1851 H 0.22868 0.79716 0.79656 0.0
C1852 C 0.1726 0.74489 0.93541 0.0
C1853 C 0.17138 0.73415 0.90054 0.0
C1854 C 0.18545 0.75807 0.93817 0.0
C1855 C 0.19728 0.76056 0.90659 0.0
C1856 C 0.19645 0.74919 0.87629 0.0
C1857 C 0.18357 0.73618 0.87276 0.0
C1858 C 0.22623 0.79945 0.93092 0.0
C1859 C 0.23109 0.80404 0.87886 0.0
C1860 C 0.21545 0.78521 0.94069 0.0
C1861 C 0.2095 0.77535 0.8986 0.0
C1862 C 0.21458 0.77997 0.84689 0.0
C1863 C 0.22522 0.79407 0.83719 0.0
H1864 H 0.18101 0.44523 0.85454 0.0
H1865 H 0.16596 0.40725 0.95125 0.0
H1866 H 0.20567 0.45016 0.86381 0.0
H1867 H 0.19052 0.41159 0.95796 0.0
H1868 H 0.23645 0.42188 0.96082 0.0
H1869 H 0.21569 0.42468 0.98114 0.0
H1870 H 0.21566 0.43802 0.8192 0.0
H1871 H 0.23636 0.4357 0.79972 0.0
C1872 C 0.18308 0.4381 0.87861 0.0
C1873 C 0.17168 0.42576 0.9015 0.0
C1874 C 0.19715 0.44085 0.8837 0.0
C1875 C 0.20002 0.43103 0.91023 0.0
C1876 C 0.18873 0.41939 0.93731 0.0
C1877 C 0.17464 0.41684 0.93331 0.0
C1878 C 0.23214 0.42568 0.93001 0.0
C1879 C 0.23794 0.42838 0.87847 0.0
C1880 C 0.22023 0.42724 0.94159 0.0
C1881 C 0.21397 0.43156 0.90187 0.0
C1882 C 0.22029 0.43493 0.8512 0.0
C1883 C 0.23212 0.43341 0.83975 0.0
H1884 H 0.40969 0.90277 0.3242 0.0
H1885 H 0.40649 0.87577 0.4565 0.0
H1886 H 0.43192 0.90359 0.29588 0.0
H1887 H 0.4285 0.87662 0.42881 0.0
H1888 H 0.4684 0.87988 0.38701 0.0
H1889 H 0.44331 0.87236 0.36682 0.0
H1890 H 0.4553 0.91678 0.34195 0.0
H1891 H 0.48032 0.92409 0.36094 0.0
C1892 C 0.41347 0.89663 0.34614 0.0
C1893 C 0.40656 0.88943 0.3931 0.0
C1894 C 0.42621 0.89714 0.33007 0.0
C1895 C 0.43207 0.89031 0.36039 0.0
C1896 C 0.42428 0.88191 0.40418 0.0
C1897 C 0.4117 0.88154 0.42047 0.0
C1898 C 0.46569 0.88789 0.37472 0.0
C1899 C 0.47613 0.90251 0.37532 0.0
C1900 C 0.45135 0.88364 0.36349 0.0
C1901 C 0.44727 0.89399 0.35366 0.0
C1902 C 0.45806 0.90851 0.3489 0.0
C1903 C 0.47239 0.91274 0.35993 0.0
H1904 H 0.05568 0.54741 0.36291 0.0
H1905 H 0.10068 0.5784 0.3823 0.0
H1906 H 0.06173 0.52925 0.33742 0.0
H1907 H 0.10694 0.56032 0.3557 0.0
H1908 H 0.10072 0.51929 0.45061 0.0
H1909 H 0.10233 0.54128 0.41851 0.0
H1910 H 0.07341 0.51786 0.28968 0.0
H1911 H 0.0718 0.49564 0.32244 0.0
C1912 C 0.06691 0.55048 0.35885 0.0
C1913 C 0.07773 0.56414 0.37467 0.0
C1914 C 0.07043 0.54012 0.34399 0.0
C1915 C 0.08483 0.54328 0.34553 0.0
C1916 C 0.09575 0.55754 0.35485 0.0
C1917 C 0.0922 0.56789 0.36984 0.0
C1918 C 0.09511 0.51892 0.41436 0.0
C1919 C 0.08586 0.50577 0.38977 0.0
C1920 C 0.09615 0.53158 0.39547 0.0
C1921 C 0.08779 0.53128 0.35197 0.0
C1922 C 0.07984 0.51837 0.32366 0.0
C1923 C 0.07894 0.50567 0.34232 0.0
H1924 H 0.45694 0.57657 0.45975 0.0
H1925 H 0.47978 0.57274 0.32563 0.0
H1926 H 0.43455 0.55739 0.42514 0.0
H1927 H 0.45707 0.55337 0.28988 0.0
H1928 H 0.39609 0.52148 0.38199 0.0
H1929 H 0.41547 0.54583 0.36267 0.0
H1930 H 0.44354 0.52906 0.32451 0.0
H1931 H 0.42389 0.50477 0.34126 0.0
C1932 C 0.45707 0.57187 0.42188 0.0
C1933 C 0.4701 0.57588 0.39601 0.0
C1934 C 0.44417 0.56095 0.4015 0.0
C1935 C 0.44399 0.55368 0.35487 0.0
C1936 C 0.45688 0.55866 0.32619 0.0
C1937 C 0.46986 0.56976 0.34653 0.0
C1938 C 0.4062 0.52302 0.36668 0.0
C1939 C 0.40867 0.51143 0.36331 0.0
C1940 C 0.41732 0.53694 0.35597 0.0
C1941 C 0.43118 0.53944 0.3437 0.0
C1942 C 0.43303 0.52757 0.3338 0.0
C1943 C 0.4218 0.51363 0.34356 0.0
loop_
_geom_bond_atom_site_label_1
_geom_bond_atom_site_label_2
_geom_bond_distance
_geom_bond_site_symmetry_2
_ccdc_geom_bond_type
C0 O1 1.306 . S
C0 O3 1.160 . S
O1 C0 1.306 . S
O1 Cd2 2.228 . S
Cd2 O1 2.228 . S
Cd2 O6 2.273 . S
Cd2 O10 2.277 . S
O3 C0 1.160 . S
O3 Cd4 2.203 . S
Cd4 O3 2.203 . S
Cd4 O6 2.411 . S
Cd4 O7 2.333 . S
Cd4 O8 2.352 . S
Cd4 O12 2.277 . S
Cd4 O13 2.356 . S
C5 O10 1.209 . S
C5 O12 1.226 . S
O6 Cd2 2.273 . S
O6 Cd4 2.411 . S
O6 C9 1.320 . S
O7 Cd4 2.333 . S
O7 C9 1.214 . S
O8 Cd4 2.352 . S
O8 C11 1.258 . S
C9 O6 1.320 . S
C9 O7 1.214 . S
O10 Cd2 2.277 . S
O10 C5 1.209 . S
C11 O8 1.258 . S
C11 O13 1.282 . S
O12 Cd4 2.277 . S
O12 C5 1.226 . S
O13 Cd4 2.356 . S
O13 C11 1.282 . S
C14 O15 1.306 . S
C14 O17 1.160 . S
O15 C14 1.306 . S
O15 Cd16 2.228 . S
Cd16 O15 2.228 . S
Cd16 O20 2.273 . S
Cd16 O24 2.277 . S
O17 C14 1.160 . S
O17 Cd18 2.203 . S
Cd18 O17 2.203 . S
Cd18 O20 2.411 . S
Cd18 O21 2.333 . S
Cd18 O22 2.352 . S
Cd18 O26 2.277 . S
Cd18 O27 2.356 . S
C19 O24 1.209 . S
C19 O26 1.226 . S
O20 Cd16 2.273 . S
O20 Cd18 2.411 . S
O20 C23 1.320 . S
O21 Cd18 2.333 . S
O21 C23 1.214 . S
O22 Cd18 2.352 . S
O22 C25 1.258 . S
C23 O20 1.320 . S
C23 O21 1.214 . S
O24 Cd16 2.277 . S
O24 C19 1.209 . S
C25 O22 1.258 . S
C25 O27 1.282 . S
O26 Cd18 2.277 . S
O26 C19 1.226 . S
O27 Cd18 2.356 . S
O27 C25 1.282 . S
C28 O29 1.306 . S
C28 O31 1.160 . S
O29 C28 1.306 . S
O29 Cd30 2.228 . S
Cd30 O29 2.228 . S
Cd30 O34 2.273 . S
Cd30 O38 2.277 . S
O31 C28 1.160 . S
O31 Cd32 2.203 . S
Cd32 O31 2.203 . S
Cd32 O34 2.411 . S
Cd32 O35 2.333 . S
Cd32 O36 2.352 . S
Cd32 O40 2.277 . S
Cd32 O41 2.356 . S
C33 O38 1.209 . S
C33 O40 1.226 . S
O34 Cd30 2.273 . S
O34 Cd32 2.411 . S
O34 C37 1.320 . S
O35 Cd32 2.333 . S
O35 C37 1.214 . S
O36 Cd32 2.352 . S
O36 C39 1.258 . S
C37 O34 1.320 . S
C37 O35 1.214 . S
O38 Cd30 2.277 . S
O38 C33 1.209 . S
C39 O36 1.258 . S
C39 O41 1.282 . S
O40 Cd32 2.277 . S
O40 C33 1.226 . S
O41 Cd32 2.356 . S
O41 C39 1.282 . S
C42 O43 1.306 . S
C42 O45 1.160 . S
O43 C42 1.306 . S
O43 Cd44 2.228 . S
Cd44 O43 2.228 . S
Cd44 O48 2.273 . S
Cd44 O52 2.277 . S
O45 C42 1.160 . S
O45 Cd46 2.203 . S
Cd46 O45 2.203 . S
Cd46 O48 2.411 . S
Cd46 O49 2.333 . S
Cd46 O50 2.352 . S
Cd46 O54 2.277 . S
Cd46 O55 2.356 . S
C47 O52 1.209 . S
C47 O54 1.226 . S
O48 Cd44 2.273 . S
O48 Cd46 2.411 . S
O48 C51 1.320 . S
O49 Cd46 2.333 . S
O49 C51 1.214 . S
O50 Cd46 2.352 . S
O50 C53 1.258 . S
C51 O48 1.320 . S
C51 O49 1.214 . S
O52 Cd44 2.277 . S
O52 C47 1.209 . S
C53 O50 1.258 . S
C53 O55 1.282 . S
O54 Cd46 2.277 . S
O54 C47 1.226 . S
O55 Cd46 2.356 . S
O55 C53 1.282 . S
C56 O57 1.306 . S
C56 O59 1.160 . S
O57 C56 1.306 . S
O57 Cd58 2.228 . S
Cd58 O57 2.228 . S
Cd58 O62 2.273 . S
Cd58 O66 2.277 . S
O59 C56 1.160 . S
O59 Cd60 2.203 . S
Cd60 O59 2.203 . S
Cd60 O62 2.411 . S
Cd60 O63 2.333 . S
Cd60 O64 2.352 . S
Cd60 O68 2.277 . S
Cd60 O69 2.356 . S
C61 O66 1.209 . S
C61 O68 1.226 . S
O62 Cd58 2.273 . S
O62 Cd60 2.411 . S
O62 C65 1.320 . S
O63 Cd60 2.333 . S
O63 C65 1.214 . S
O64 Cd60 2.352 . S
O64 C67 1.258 . S
C65 O62 1.320 . S
C65 O63 1.214 . S
O66 Cd58 2.277 . S
O66 C61 1.209 . S
C67 O64 1.258 . S
C67 O69 1.282 . S
O68 Cd60 2.277 . S
O68 C61 1.226 . S
O69 Cd60 2.356 . S
O69 C67 1.282 . S
C70 O71 1.306 . S
C70 O73 1.160 . S
O71 C70 1.306 . S
O71 Cd72 2.228 . S
Cd72 O71 2.228 . S
Cd72 O76 2.273 . S
Cd72 O80 2.277 . S
O73 C70 1.160 . S
O73 Cd74 2.203 . S
Cd74 O73 2.203 . S
Cd74 O76 2.411 . S
Cd74 O77 2.333 . S
Cd74 O78 2.352 . S
Cd74 O82 2.277 . S
Cd74 O83 2.356 . S
C75 O80 1.209 . S
C75 O82 1.226 . S
O76 Cd72 2.273 . S
O76 Cd74 2.411 . S
O76 C79 1.320 . S
O77 Cd74 2.333 . S
O77 C79 1.214 . S
O78 Cd74 2.352 . S
O78 C81 1.258 . S
C79 O76 1.320 . S
C79 O77 1.214 . S
O80 Cd72 2.277 . S
O80 C75 1.209 . S
C81 O78 1.258 . S
C81 O83 1.282 . S
O82 Cd74 2.277 . S
O82 C75 1.226 . S
O83 Cd74 2.356 . S
O83 C81 1.282 . S
C84 O85 1.306 . S
C84 O87 1.160 . S
O85 C84 1.306 . S
O85 Cd86 2.228 . S
Cd86 O85 2.228 . S
Cd86 O90 2.273 . S
Cd86 O94 2.277 . S
O87 C84 1.160 . S
O87 Cd88 2.203 . S
Cd88 O87 2.203 . S
Cd88 O90 2.411 . S
Cd88 O91 2.333 . S
Cd88 O92 2.352 . S
Cd88 O96 2.277 . S
Cd88 O97 2.356 . S
C89 O94 1.209 . S
C89 O96 1.226 . S
O90 Cd86 2.273 . S
O90 Cd88 2.411 . S
O90 C93 1.320 . S
O91 Cd88 2.333 . S
O91 C93 1.214 . S
O92 Cd88 2.352 . S
O92 C95 1.258 . S
C93 O90 1.320 . S
C93 O91 1.214 . S
O94 Cd86 2.277 . S
O94 C89 1.209 . S
C95 O92 1.258 . S
C95 O97 1.282 . S
O96 Cd88 2.277 . S
O96 C89 1.226 . S
O97 Cd88 2.356 . S
O97 C95 1.282 . S
C98 O99 1.306 . S
C98 O101 1.160 . S
O99 C98 1.306 . S
O99 Cd100 2.228 . S
Cd100 O99 2.228 . S
Cd100 O104 2.273 . S
Cd100 O108 2.277 . S
O101 C98 1.160 . S
O101 Cd102 2.203 . S
Cd102 O101 2.203 . S
Cd102 O104 2.411 . S
Cd102 O105 2.333 . S
Cd102 O106 2.352 . S
Cd102 O110 2.277 . S
Cd102 O111 2.356 . S
C103 O108 1.209 . S
C103 O110 1.226 . S
O104 Cd100 2.273 . S
O104 Cd102 2.411 . S
O104 C107 1.320 . S
O105 Cd102 2.333 . S
O105 C107 1.214 . S
O106 Cd102 2.352 . S
O106 C109 1.258 . S
C107 O104 1.320 . S
C107 O105 1.214 . S
O108 Cd100 2.277 . S
O108 C103 1.209 . S
C109 O106 1.258 . S
C109 O111 1.282 . S
O110 Cd102 2.277 . S
O110 C103 1.226 . S
O111 Cd102 2.356 . S
O111 C109 1.282 . S
C112 O113 1.306 . S
C112 O115 1.160 . S
O113 C112 1.306 . S
O113 Cd114 2.228 . S
Cd114 O113 2.228 . S
Cd114 O118 2.273 . S
Cd114 O122 2.277 . S
O115 C112 1.160 . S
O115 Cd116 2.203 . S
Cd116 O115 2.203 . S
Cd116 O118 2.411 . S
Cd116 O119 2.333 . S
Cd116 O120 2.352 . S
Cd116 O124 2.277 . S
Cd116 O125 2.356 . S
C117 O122 1.209 . S
C117 O124 1.226 . S
O118 Cd114 2.273 . S
O118 Cd116 2.411 . S
O118 C121 1.320 . S
O119 Cd116 2.333 . S
O119 C121 1.214 . S
O120 Cd116 2.352 . S
O120 C123 1.258 . S
C121 O118 1.320 . S
C121 O119 1.214 . S
O122 Cd114 2.277 . S
O122 C117 1.209 . S
C123 O120 1.258 . S
C123 O125 1.282 . S
O124 Cd116 2.277 . S
O124 C117 1.226 . S
O125 Cd116 2.356 . S
O125 C123 1.282 . S
C126 O127 1.306 . S
C126 O129 1.160 . S
O127 C126 1.306 . S
O127 Cd128 2.228 . S
Cd128 O127 2.228 . S
Cd128 O132 2.273 . S
Cd128 O136 2.277 . S
O129 C126 1.160 . S
O129 Cd130 2.203 . S
Cd130 O129 2.203 . S
Cd130 O132 2.411 . S
Cd130 O133 2.333 . S
Cd130 O134 2.352 . S
Cd130 O138 2.277 . S
Cd130 O139 2.356 . S
C131 O136 1.209 . S
C131 O138 1.226 . S
O132 Cd128 2.273 . S
O132 Cd130 2.411 . S
O132 C135 1.320 . S
O133 Cd130 2.333 . S
O133 C135 1.214 . S
O134 Cd130 2.352 . S
O134 C137 1.258 . S
C135 O132 1.320 . S
C135 O133 1.214 . S
O136 Cd128 2.277 . S
O136 C131 1.209 . S
C137 O134 1.258 . S
C137 O139 1.282 . S
O138 Cd130 2.277 . S
O138 C131 1.226 . S
O139 Cd130 2.356 . S
O139 C137 1.282 . S
C140 O141 1.306 . S
C140 O143 1.160 . S
O141 C140 1.306 . S
O141 Cd142 2.228 . S
Cd142 O141 2.228 . S
Cd142 O146 2.273 . S
Cd142 O150 2.277 . S
O143 C140 1.160 . S
O143 Cd144 2.203 . S
Cd144 O143 2.203 . S
Cd144 O146 2.411 . S
Cd144 O147 2.333 . S
Cd144 O148 2.352 . S
Cd144 O152 2.277 . S
Cd144 O153 2.356 . S
C145 O150 1.209 . S
C145 O152 1.226 . S
O146 Cd142 2.273 . S
O146 Cd144 2.411 . S
O146 C149 1.320 . S
O147 Cd144 2.333 . S
O147 C149 1.214 . S
O148 Cd144 2.352 . S
O148 C151 1.258 . S
C149 O146 1.320 . S
C149 O147 1.214 . S
O150 Cd142 2.277 . S
O150 C145 1.209 . S
C151 O148 1.258 . S
C151 O153 1.282 . S
O152 Cd144 2.277 . S
O152 C145 1.226 . S
O153 Cd144 2.356 . S
O153 C151 1.282 . S
C154 O155 1.306 . S
C154 O157 1.160 . S
O155 C154 1.306 . S
O155 Cd156 2.228 . S
Cd156 O155 2.228 . S
Cd156 O160 2.273 . S
Cd156 O164 2.277 . S
O157 C154 1.160 . S
O157 Cd158 2.203 . S
Cd158 O157 2.203 . S
Cd158 O160 2.411 . S
Cd158 O161 2.333 . S
Cd158 O162 2.352 . S
Cd158 O166 2.277 . S
Cd158 O167 2.356 . S
C159 O164 1.209 . S
C159 O166 1.226 . S
O160 Cd156 2.273 . S
O160 Cd158 2.411 . S
O160 C163 1.320 . S
O161 Cd158 2.333 . S
O161 C163 1.214 . S
O162 Cd158 2.352 . S
O162 C165 1.258 . S
C163 O160 1.320 . S
C163 O161 1.214 . S
O164 Cd156 2.277 . S
O164 C159 1.209 . S
C165 O162 1.258 . S
C165 O167 1.282 . S
O166 Cd158 2.277 . S
O166 C159 1.226 . S
O167 Cd158 2.356 . S
O167 C165 1.282 . S
C168 O169 1.306 . S
C168 O171 1.160 . S
O169 C168 1.306 . S
O169 Cd170 2.228 . S
Cd170 O169 2.228 . S
Cd170 O174 2.273 . S
Cd170 O178 2.277 . S
O171 C168 1.160 . S
O171 Cd172 2.203 . S
Cd172 O171 2.203 . S
Cd172 O174 2.411 . S
Cd172 O175 2.333 . S
Cd172 O176 2.352 . S
Cd172 O180 2.277 . S
Cd172 O181 2.356 . S
C173 O178 1.209 . S
C173 O180 1.226 . S
O174 Cd170 2.273 . S
O174 Cd172 2.411 . S
O174 C177 1.320 . S
O175 Cd172 2.333 . S
O175 C177 1.214 . S
O176 Cd172 2.352 . S
O176 C179 1.258 . S
C177 O174 1.320 . S
C177 O175 1.214 . S
O178 Cd170 2.277 . S
O178 C173 1.209 . S
C179 O176 1.258 . S
C179 O181 1.282 . S
O180 Cd172 2.277 . S
O180 C173 1.226 . S
O181 Cd172 2.356 . S
O181 C179 1.282 . S
C182 O183 1.306 . S
C182 O185 1.160 . S
O183 C182 1.306 . S
O183 Cd184 2.228 . S
Cd184 O183 2.228 . S
Cd184 O188 2.273 . S
Cd184 O192 2.277 . S
O185 C182 1.160 . S
O185 Cd186 2.203 . S
Cd186 O185 2.203 . S
Cd186 O188 2.411 . S
Cd186 O189 2.333 . S
Cd186 O190 2.352 . S
Cd186 O194 2.277 . S
Cd186 O195 2.356 . S
C187 O192 1.209 . S
C187 O194 1.226 . S
O188 Cd184 2.273 . S
O188 Cd186 2.411 . S
O188 C191 1.320 . S
O189 Cd186 2.333 . S
O189 C191 1.214 . S
O190 Cd186 2.352 . S
O190 C193 1.258 . S
C191 O188 1.320 . S
C191 O189 1.214 . S
O192 Cd184 2.277 . S
O192 C187 1.209 . S
C193 O190 1.258 . S
C193 O195 1.282 . S
O194 Cd186 2.277 . S
O194 C187 1.226 . S
O195 Cd186 2.356 . S
O195 C193 1.282 . S
C196 O197 1.306 . S
C196 O199 1.160 . S
O197 C196 1.306 . S
O197 Cd198 2.228 . S
Cd198 O197 2.228 . S
Cd198 O202 2.273 . S
Cd198 O206 2.277 . S
O199 C196 1.160 . S
O199 Cd200 2.203 . S
Cd200 O199 2.203 . S
Cd200 O202 2.411 . S
Cd200 O203 2.333 . S
Cd200 O204 2.352 . S
Cd200 O208 2.277 . S
Cd200 O209 2.356 . S
C201 O206 1.209 . S
C201 O208 1.226 . S
O202 Cd198 2.273 . S
O202 Cd200 2.411 . S
O202 C205 1.320 . S
O203 Cd200 2.333 . S
O203 C205 1.214 . S
O204 Cd200 2.352 . S
O204 C207 1.258 . S
C205 O202 1.320 . S
C205 O203 1.214 . S
O206 Cd198 2.277 . S
O206 C201 1.209 . S
C207 O204 1.258 . S
C207 O209 1.282 . S
O208 Cd200 2.277 . S
O208 C201 1.226 . S
O209 Cd200 2.356 . S
O209 C207 1.282 . S
C210 O211 1.306 . S
C210 O213 1.160 . S
O211 C210 1.306 . S
O211 Cd212 2.228 . S
Cd212 O211 2.228 . S
Cd212 O216 2.273 . S
Cd212 O220 2.277 . S
O213 C210 1.160 . S
O213 Cd214 2.203 . S
Cd214 O213 2.203 . S
Cd214 O216 2.411 . S
Cd214 O217 2.333 . S
Cd214 O218 2.352 . S
Cd214 O222 2.277 . S
Cd214 O223 2.356 1_554 S
C215 O220 1.209 . S
C215 O222 1.226 . S
O216 Cd212 2.273 . S
O216 Cd214 2.411 . S
O216 C219 1.320 . S
O217 Cd214 2.333 . S
O217 C219 1.214 . S
O218 Cd214 2.352 . S
O218 C221 1.258 1_554 S
C219 O216 1.320 . S
C219 O217 1.214 . S
O220 Cd212 2.277 . S
O220 C215 1.209 . S
C221 O218 1.258 1_556 S
C221 O223 1.282 . S
O222 Cd214 2.277 . S
O222 C215 1.226 . S
O223 Cd214 2.356 1_556 S
O223 C221 1.282 . S
C224 O225 1.306 . S
C224 O227 1.160 . S
O225 C224 1.306 . S
O225 Cd226 2.228 . S
Cd226 O225 2.228 . S
Cd226 O230 2.273 . S
Cd226 O234 2.277 . S
O227 C224 1.160 . S
O227 Cd228 2.203 . S
Cd228 O227 2.203 . S
Cd228 O230 2.411 . S
Cd228 O231 2.333 . S
Cd228 O232 2.352 . S
Cd228 O236 2.277 . S
Cd228 O237 2.356 1_554 S
C229 O234 1.209 . S
C229 O236 1.226 . S
O230 Cd226 2.273 . S
O230 Cd228 2.411 . S
O230 C233 1.320 . S
O231 Cd228 2.333 . S
O231 C233 1.214 . S
O232 Cd228 2.352 . S
O232 C235 1.258 1_554 S
C233 O230 1.320 . S
C233 O231 1.214 . S
O234 Cd226 2.277 . S
O234 C229 1.209 . S
C235 O232 1.258 1_556 S
C235 O237 1.282 . S
O236 Cd228 2.277 . S
O236 C229 1.226 . S
O237 Cd228 2.356 1_556 S
O237 C235 1.282 . S
C238 O239 1.306 . S
C238 O241 1.160 . S
O239 C238 1.306 . S
O239 Cd240 2.228 . S
Cd240 O239 2.228 . S
Cd240 O244 2.273 . S
Cd240 O248 2.277 . S
O241 C238 1.160 . S
O241 Cd242 2.203 . S
Cd242 O241 2.203 . S
Cd242 O244 2.411 . S
Cd242 O245 2.333 . S
Cd242 O246 2.352 . S
Cd242 O250 2.277 . S
Cd242 O251 2.356 1_554 S
C243 O248 1.209 . S
C243 O250 1.226 . S
O244 Cd240 2.273 . S
O244 Cd242 2.411 . S
O244 C247 1.320 . S
O245 Cd242 2.333 . S
O245 C247 1.214 . S
O246 Cd242 2.352 . S
O246 C249 1.258 1_554 S
C247 O244 1.320 . S
C247 O245 1.214 . S
O248 Cd240 2.277 . S
O248 C243 1.209 . S
C249 O246 1.258 1_556 S
C249 O251 1.282 . S
O250 Cd242 2.277 . S
O250 C243 1.226 . S
O251 Cd242 2.356 1_556 S
O251 C249 1.282 . S
C252 O253 1.306 . S
C252 O255 1.160 . S
O253 C252 1.306 . S
O253 Cd254 2.228 . S
Cd254 O253 2.228 . S
Cd254 O258 2.273 . S
Cd254 O262 2.277 . S
O255 C252 1.160 . S
O255 Cd256 2.203 . S
Cd256 O255 2.203 . S
Cd256 O258 2.411 . S
Cd256 O259 2.333 . S
Cd256 O260 2.352 . S
Cd256 O264 2.277 . S
Cd256 O265 2.356 1_554 S
C257 O262 1.209 . S
C257 O264 1.226 . S
O258 Cd254 2.273 . S
O258 Cd256 2.411 . S
O258 C261 1.320 . S
O259 Cd256 2.333 . S
O259 C261 1.214 . S
O260 Cd256 2.352 . S
O260 C263 1.258 1_554 S
C261 O258 1.320 . S
C261 O259 1.214 . S
O262 Cd254 2.277 . S
O262 C257 1.209 . S
C263 O260 1.258 1_556 S
C263 O265 1.282 . S
O264 Cd256 2.277 . S
O264 C257 1.226 . S
O265 Cd256 2.356 1_556 S
O265 C263 1.282 . S
C266 O267 1.306 . S
C266 O269 1.160 . S
O267 C266 1.306 . S
O267 Cd268 2.228 . S
Cd268 O267 2.228 . S
Cd268 O272 2.273 . S
Cd268 O276 2.277 . S
O269 C266 1.160 . S
O269 Cd270 2.203 . S
Cd270 O269 2.203 . S
Cd270 O272 2.411 . S
Cd270 O273 2.333 . S
Cd270 O274 2.352 . S
Cd270 O278 2.277 . S
Cd270 O279 2.356 1_554 S
C271 O276 1.209 . S
C271 O278 1.226 . S
O272 Cd268 2.273 . S
O272 Cd270 2.411 . S
O272 C275 1.320 . S
O273 Cd270 2.333 . S
O273 C275 1.214 . S
O274 Cd270 2.352 . S
O274 C277 1.258 1_554 S
C275 O272 1.320 . S
C275 O273 1.214 . S
O276 Cd268 2.277 . S
O276 C271 1.209 . S
C277 O274 1.258 1_556 S
C277 O279 1.282 . S
O278 Cd270 2.277 . S
O278 C271 1.226 . S
O279 Cd270 2.356 1_556 S
O279 C277 1.282 . S
C280 O281 1.306 . S
C280 O283 1.160 . S
O281 C280 1.306 . S
O281 Cd282 2.228 . S
Cd282 O281 2.228 . S
Cd282 O286 2.273 . S
Cd282 O290 2.277 . S
O283 C280 1.160 . S
O283 Cd284 2.203 . S
Cd284 O283 2.203 . S
Cd284 O286 2.411 . S
Cd284 O287 2.333 . S
Cd284 O288 2.352 . S
Cd284 O292 2.277 . S
Cd284 O293 2.356 1_554 S
C285 O290 1.209 . S
C285 O292 1.226 . S
O286 Cd282 2.273 . S
O286 Cd284 2.411 . S
O286 C289 1.320 . S
O287 Cd284 2.333 . S
O287 C289 1.214 . S
O288 Cd284 2.352 . S
O288 C291 1.258 1_554 S
C289 O286 1.320 . S
C289 O287 1.214 . S
O290 Cd282 2.277 . S
O290 C285 1.209 . S
C291 O288 1.258 1_556 S
C291 O293 1.282 . S
O292 Cd284 2.277 . S
O292 C285 1.226 . S
O293 Cd284 2.356 1_556 S
O293 C291 1.282 . S
C294 O295 1.306 . S
C294 O297 1.160 . S
O295 C294 1.306 . S
O295 Cd296 2.228 . S
Cd296 O295 2.228 . S
Cd296 O300 2.273 . S
Cd296 O304 2.277 . S
O297 C294 1.160 . S
O297 Cd298 2.203 . S
Cd298 O297 2.203 . S
Cd298 O300 2.411 . S
Cd298 O301 2.333 . S
Cd298 O302 2.352 . S
Cd298 O306 2.277 . S
Cd298 O307 2.356 . S
C299 O304 1.209 . S
C299 O306 1.226 . S
O300 Cd296 2.273 . S
O300 Cd298 2.411 . S
O300 C303 1.320 . S
O301 Cd298 2.333 . S
O301 C303 1.214 . S
O302 Cd298 2.352 . S
O302 C305 1.258 . S
C303 O300 1.320 . S
C303 O301 1.214 . S
O304 Cd296 2.277 . S
O304 C299 1.209 . S
C305 O302 1.258 . S
C305 O307 1.282 . S
O306 Cd298 2.277 . S
O306 C299 1.226 . S
O307 Cd298 2.356 . S
O307 C305 1.282 . S
C308 O309 1.306 . S
C308 O311 1.160 . S
O309 C308 1.306 . S
O309 Cd310 2.228 . S
Cd310 O309 2.228 . S
Cd310 O314 2.273 . S
Cd310 O318 2.277 . S
O311 C308 1.160 . S
O311 Cd312 2.203 . S
Cd312 O311 2.203 . S
Cd312 O314 2.411 . S
Cd312 O315 2.333 . S
Cd312 O316 2.352 . S
Cd312 O320 2.277 . S
Cd312 O321 2.356 . S
C313 O318 1.209 . S
C313 O320 1.226 . S
O314 Cd310 2.273 . S
O314 Cd312 2.411 . S
O314 C317 1.320 . S
O315 Cd312 2.333 . S
O315 C317 1.214 . S
O316 Cd312 2.352 . S
O316 C319 1.258 . S
C317 O314 1.320 . S
C317 O315 1.214 . S
O318 Cd310 2.277 . S
O318 C313 1.209 . S
C319 O316 1.258 . S
C319 O321 1.282 . S
O320 Cd312 2.277 . S
O320 C313 1.226 . S
O321 Cd312 2.356 . S
O321 C319 1.282 . S
C322 O323 1.306 . S
C322 O325 1.160 . S
O323 C322 1.306 . S
O323 Cd324 2.228 . S
Cd324 O323 2.228 . S
Cd324 O328 2.273 . S
Cd324 O332 2.277 . S
O325 C322 1.160 . S
O325 Cd326 2.203 . S
Cd326 O325 2.203 . S
Cd326 O328 2.411 . S
Cd326 O329 2.333 . S
Cd326 O330 2.352 . S
Cd326 O334 2.277 . S
Cd326 O335 2.356 . S
C327 O332 1.209 . S
C327 O334 1.226 . S
O328 Cd324 2.273 . S
O328 Cd326 2.411 . S
O328 C331 1.320 . S
O329 Cd326 2.333 . S
O329 C331 1.214 . S
O330 Cd326 2.352 . S
O330 C333 1.258 . S
C331 O328 1.320 . S
C331 O329 1.214 . S
O332 Cd324 2.277 . S
O332 C327 1.209 . S
C333 O330 1.258 . S
C333 O335 1.282 . S
O334 Cd326 2.277 . S
O334 C327 1.226 . S
O335 Cd326 2.356 . S
O335 C333 1.282 . S
C336 O337 1.306 . S
C336 O339 1.160 . S
O337 C336 1.306 . S
O337 Cd338 2.228 . S
Cd338 O337 2.228 . S
Cd338 O342 2.273 . S
Cd338 O346 2.277 . S
O339 C336 1.160 . S
O339 Cd340 2.203 . S
Cd340 O339 2.203 . S
Cd340 O342 2.411 . S
Cd340 O343 2.333 . S
Cd340 O344 2.352 . S
Cd340 O348 2.277 . S
Cd340 O349 2.356 1_556 S
C341 O346 1.209 . S
C341 O348 1.226 . S
O342 Cd338 2.273 . S
O342 Cd340 2.411 . S
O342 C345 1.320 . S
O343 Cd340 2.333 . S
O343 C345 1.214 . S
O344 Cd340 2.352 . S
O344 C347 1.258 1_556 S
C345 O342 1.320 . S
C345 O343 1.214 . S
O346 Cd338 2.277 . S
O346 C341 1.209 . S
C347 O344 1.258 1_554 S
C347 O349 1.282 . S
O348 Cd340 2.277 . S
O348 C341 1.226 . S
O349 Cd340 2.356 1_554 S
O349 C347 1.282 . S
C350 O351 1.306 . S
C350 O353 1.160 . S
O351 C350 1.306 . S
O351 Cd352 2.228 . S
Cd352 O351 2.228 . S
Cd352 O356 2.273 . S
Cd352 O360 2.277 . S
O353 C350 1.160 . S
O353 Cd354 2.203 . S
Cd354 O353 2.203 . S
Cd354 O356 2.411 . S
Cd354 O357 2.333 . S
Cd354 O358 2.352 . S
Cd354 O362 2.277 . S
Cd354 O363 2.356 1_556 S
C355 O360 1.209 . S
C355 O362 1.226 . S
O356 Cd352 2.273 . S
O356 Cd354 2.411 . S
O356 C359 1.320 . S
O357 Cd354 2.333 . S
O357 C359 1.214 . S
O358 Cd354 2.352 . S
O358 C361 1.258 1_556 S
C359 O356 1.320 . S
C359 O357 1.214 . S
O360 Cd352 2.277 . S
O360 C355 1.209 . S
C361 O358 1.258 1_554 S
C361 O363 1.282 . S
O362 Cd354 2.277 . S
O362 C355 1.226 . S
O363 Cd354 2.356 1_554 S
O363 C361 1.282 . S
C364 O365 1.306 . S
C364 O367 1.160 . S
O365 C364 1.306 . S
O365 Cd366 2.228 . S
Cd366 O365 2.228 . S
Cd366 O370 2.273 . S
Cd366 O374 2.277 . S
O367 C364 1.160 . S
O367 Cd368 2.203 . S
Cd368 O367 2.203 . S
Cd368 O370 2.411 . S
Cd368 O371 2.333 . S
Cd368 O372 2.352 . S
Cd368 O376 2.277 . S
Cd368 O377 2.356 1_556 S
C369 O374 1.209 . S
C369 O376 1.226 . S
O370 Cd366 2.273 . S
O370 Cd368 2.411 . S
O370 C373 1.320 . S
O371 Cd368 2.333 . S
O371 C373 1.214 . S
O372 Cd368 2.352 . S
O372 C375 1.258 1_556 S
C373 O370 1.320 . S
C373 O371 1.214 . S
O374 Cd366 2.277 . S
O374 C369 1.209 . S
C375 O372 1.258 1_554 S
C375 O377 1.282 . S
O376 Cd368 2.277 . S
O376 C369 1.226 . S
O377 Cd368 2.356 1_554 S
O377 C375 1.282 . S
C378 O379 1.306 . S
C378 O381 1.160 . S
O379 C378 1.306 . S
O379 Cd380 2.228 . S
Cd380 O379 2.228 . S
Cd380 O384 2.273 . S
Cd380 O388 2.277 . S
O381 C378 1.160 . S
O381 Cd382 2.203 . S
Cd382 O381 2.203 . S
Cd382 O384 2.411 . S
Cd382 O385 2.333 . S
Cd382 O386 2.352 . S
Cd382 O390 2.277 . S
Cd382 O391 2.356 . S
C383 O388 1.209 . S
C383 O390 1.226 . S
O384 Cd380 2.273 . S
O384 Cd382 2.411 . S
O384 C387 1.320 . S
O385 Cd382 2.333 . S
O385 C387 1.214 . S
O386 Cd382 2.352 . S
O386 C389 1.258 . S
C387 O384 1.320 . S
C387 O385 1.214 . S
O388 Cd380 2.277 . S
O388 C383 1.209 . S
C389 O386 1.258 . S
C389 O391 1.282 . S
O390 Cd382 2.277 . S
O390 C383 1.226 . S
O391 Cd382 2.356 . S
O391 C389 1.282 . S
C392 O393 1.306 . S
C392 O395 1.160 . S
O393 C392 1.306 . S
O393 Cd394 2.228 . S
Cd394 O393 2.228 . S
Cd394 O398 2.273 . S
Cd394 O402 2.277 . S
O395 C392 1.160 . S
O395 Cd396 2.203 . S
Cd396 O395 2.203 . S
Cd396 O398 2.411 . S
Cd396 O399 2.333 . S
Cd396 O400 2.352 . S
Cd396 O404 2.277 . S
Cd396 O405 2.356 . S
C397 O402 1.209 . S
C397 O404 1.226 . S
O398 Cd394 2.273 . S
O398 Cd396 2.411 . S
O398 C401 1.320 . S
O399 Cd396 2.333 . S
O399 C401 1.214 . S
O400 Cd396 2.352 . S
O400 C403 1.258 . S
C401 O398 1.320 . S
C401 O399 1.214 . S
O402 Cd394 2.277 . S
O402 C397 1.209 . S
C403 O400 1.258 . S
C403 O405 1.282 . S
O404 Cd396 2.277 . S
O404 C397 1.226 . S
O405 Cd396 2.356 . S
O405 C403 1.282 . S
C406 O407 1.306 . S
C406 O409 1.160 . S
O407 C406 1.306 . S
O407 Cd408 2.228 . S
Cd408 O407 2.228 . S
Cd408 O412 2.273 . S
Cd408 O416 2.277 . S
O409 C406 1.160 . S
O409 Cd410 2.203 . S
Cd410 O409 2.203 . S
Cd410 O412 2.411 . S
Cd410 O413 2.333 . S
Cd410 O414 2.352 . S
Cd410 O418 2.277 . S
Cd410 O419 2.356 . S
C411 O416 1.209 . S
C411 O418 1.226 . S
O412 Cd408 2.273 . S
O412 Cd410 2.411 . S
O412 C415 1.320 . S
O413 Cd410 2.333 . S
O413 C415 1.214 . S
O414 Cd410 2.352 . S
O414 C417 1.258 . S
C415 O412 1.320 . S
C415 O413 1.214 . S
O416 Cd408 2.277 . S
O416 C411 1.209 . S
C417 O414 1.258 . S
C417 O419 1.282 . S
O418 Cd410 2.277 . S
O418 C411 1.226 . S
O419 Cd410 2.356 . S
O419 C417 1.282 . S
C420 O421 1.306 . S
C420 O423 1.160 . S
O421 C420 1.306 . S
O421 Cd422 2.228 . S
Cd422 O421 2.228 . S
Cd422 O426 2.273 . S
Cd422 O430 2.277 . S
O423 C420 1.160 . S
O423 Cd424 2.203 . S
Cd424 O423 2.203 . S
Cd424 O426 2.411 . S
Cd424 O427 2.333 . S
Cd424 O428 2.352 . S
Cd424 O432 2.277 . S
Cd424 O433 2.356 . S
C425 O430 1.209 . S
C425 O432 1.226 . S
O426 Cd422 2.273 . S
O426 Cd424 2.411 . S
O426 C429 1.320 . S
O427 Cd424 2.333 . S
O427 C429 1.214 . S
O428 Cd424 2.352 . S
O428 C431 1.258 . S
C429 O426 1.320 . S
C429 O427 1.214 . S
O430 Cd422 2.277 . S
O430 C425 1.209 . S
C431 O428 1.258 . S
C431 O433 1.282 . S
O432 Cd424 2.277 . S
O432 C425 1.226 . S
O433 Cd424 2.356 . S
O433 C431 1.282 . S
C434 O435 1.306 . S
C434 O437 1.160 . S
O435 C434 1.306 . S
O435 Cd436 2.228 . S
Cd436 O435 2.228 . S
Cd436 O440 2.273 . S
Cd436 O444 2.277 . S
O437 C434 1.160 . S
O437 Cd438 2.203 . S
Cd438 O437 2.203 . S
Cd438 O440 2.411 . S
Cd438 O441 2.333 . S
Cd438 O442 2.352 . S
Cd438 O446 2.277 . S
Cd438 O447 2.356 . S
C439 O444 1.209 . S
C439 O446 1.226 . S
O440 Cd436 2.273 . S
O440 Cd438 2.411 . S
O440 C443 1.320 . S
O441 Cd438 2.333 . S
O441 C443 1.214 . S
O442 Cd438 2.352 . S
O442 C445 1.258 . S
C443 O440 1.320 . S
C443 O441 1.214 . S
O444 Cd436 2.277 . S
O444 C439 1.209 . S
C445 O442 1.258 . S
C445 O447 1.282 . S
O446 Cd438 2.277 . S
O446 C439 1.226 . S
O447 Cd438 2.356 . S
O447 C445 1.282 . S
C448 O449 1.306 . S
C448 O451 1.160 . S
O449 C448 1.306 . S
O449 Cd450 2.228 . S
Cd450 O449 2.228 . S
Cd450 O454 2.273 . S
Cd450 O458 2.277 . S
O451 C448 1.160 . S
O451 Cd452 2.203 . S
Cd452 O451 2.203 . S
Cd452 O454 2.411 . S
Cd452 O455 2.333 . S
Cd452 O456 2.352 . S
Cd452 O460 2.277 . S
Cd452 O461 2.356 . S
C453 O458 1.209 . S
C453 O460 1.226 . S
O454 Cd450 2.273 . S
O454 Cd452 2.411 . S
O454 C457 1.320 . S
O455 Cd452 2.333 . S
O455 C457 1.214 . S
O456 Cd452 2.352 . S
O456 C459 1.258 . S
C457 O454 1.320 . S
C457 O455 1.214 . S
O458 Cd450 2.277 . S
O458 C453 1.209 . S
C459 O456 1.258 . S
C459 O461 1.282 . S
O460 Cd452 2.277 . S
O460 C453 1.226 . S
O461 Cd452 2.356 . S
O461 C459 1.282 . S
C462 O463 1.306 . S
C462 O465 1.160 . S
O463 C462 1.306 . S
O463 Cd464 2.228 . S
Cd464 O463 2.228 . S
Cd464 O468 2.273 . S
Cd464 O472 2.277 . S
O465 C462 1.160 . S
O465 Cd466 2.203 . S
Cd466 O465 2.203 . S
Cd466 O468 2.411 . S
Cd466 O469 2.333 . S
Cd466 O470 2.352 . S
Cd466 O474 2.277 . S
Cd466 O475 2.356 1_556 S
C467 O472 1.209 . S
C467 O474 1.226 . S
O468 Cd464 2.273 . S
O468 Cd466 2.411 . S
O468 C471 1.320 . S
O469 Cd466 2.333 . S
O469 C471 1.214 . S
O470 Cd466 2.352 . S
O470 C473 1.258 1_556 S
C471 O468 1.320 . S
C471 O469 1.214 . S
O472 Cd464 2.277 . S
O472 C467 1.209 . S
C473 O470 1.258 1_554 S
C473 O475 1.282 . S
O474 Cd466 2.277 . S
O474 C467 1.226 . S
O475 Cd466 2.356 1_554 S
O475 C473 1.282 . S
C476 O477 1.306 . S
C476 O479 1.160 . S
O477 C476 1.306 . S
O477 Cd478 2.228 . S
Cd478 O477 2.228 . S
Cd478 O482 2.273 . S
Cd478 O486 2.277 . S
O479 C476 1.160 . S
O479 Cd480 2.203 . S
Cd480 O479 2.203 . S
Cd480 O482 2.411 . S
Cd480 O483 2.333 . S
Cd480 O484 2.352 . S
Cd480 O488 2.277 . S
Cd480 O489 2.356 1_556 S
C481 O486 1.209 . S
C481 O488 1.226 . S
O482 Cd478 2.273 . S
O482 Cd480 2.411 . S
O482 C485 1.320 . S
O483 Cd480 2.333 . S
O483 C485 1.214 . S
O484 Cd480 2.352 . S
O484 C487 1.258 1_556 S
C485 O482 1.320 . S
C485 O483 1.214 . S
O486 Cd478 2.277 . S
O486 C481 1.209 . S
C487 O484 1.258 1_554 S
C487 O489 1.282 . S
O488 Cd480 2.277 . S
O488 C481 1.226 . S
O489 Cd480 2.356 1_554 S
O489 C487 1.282 . S
C490 O491 1.306 . S
C490 O493 1.160 . S
O491 C490 1.306 . S
O491 Cd492 2.228 . S
Cd492 O491 2.228 . S
Cd492 O496 2.273 . S
Cd492 O500 2.277 . S
O493 C490 1.160 . S
O493 Cd494 2.203 . S
Cd494 O493 2.203 . S
Cd494 O496 2.411 . S
Cd494 O497 2.333 . S
Cd494 O498 2.352 . S
Cd494 O502 2.277 . S
Cd494 O503 2.356 1_556 S
C495 O500 1.209 . S
C495 O502 1.226 . S
O496 Cd492 2.273 . S
O496 Cd494 2.411 . S
O496 C499 1.320 . S
O497 Cd494 2.333 . S
O497 C499 1.214 . S
O498 Cd494 2.352 . S
O498 C501 1.258 1_556 S
C499 O496 1.320 . S
C499 O497 1.214 . S
O500 Cd492 2.277 . S
O500 C495 1.209 . S
C501 O498 1.258 1_554 S
C501 O503 1.282 . S
O502 Cd494 2.277 . S
O502 C495 1.226 . S
O503 Cd494 2.356 1_554 S
O503 C501 1.282 . S
H504 C512 0.950 . S
H505 C517 0.950 . S
H506 C514 0.950 . S
H507 C516 0.951 . S
H508 C518 0.950 . S
H509 C520 0.950 . S
H510 C522 0.951 . S
H511 C523 0.950 . S
C512 H504 0.950 . S
C512 C513 1.386 . S
C512 C514 1.391 . S
C513 C512 1.386 . S
C513 C517 1.393 . S
C514 H506 0.950 . S
C514 C512 1.391 . S
C514 C515 1.400 . S
C515 C514 1.400 . S
C515 C516 1.398 . S
C515 C521 1.491 1_565 S
C516 H507 0.951 . S
C516 C515 1.398 . S
C516 C517 1.391 . S
C517 H505 0.950 . S
C517 C513 1.393 . S
C517 C516 1.391 . S
C518 H508 0.950 . S
C518 C519 1.386 . S
C518 C520 1.391 . S
C519 C518 1.386 . S
C519 C523 1.393 . S
C520 H509 0.950 . S
C520 C518 1.391 . S
C520 C521 1.400 . S
C521 C515 1.491 1_545 S
C521 C520 1.400 . S
C521 C522 1.398 . S
C522 H510 0.951 . S
C522 C521 1.398 . S
C522 C523 1.391 . S
C523 H511 0.950 . S
C523 C519 1.393 . S
C523 C522 1.391 . S
H524 C532 0.950 . S
H525 C537 0.950 . S
H526 C534 0.951 1_655 S
H527 C536 0.950 . S
H528 C538 0.950 . S
H529 C540 0.951 1_455 S
H530 C542 0.950 . S
H531 C543 0.950 . S
C532 H524 0.950 . S
C532 C533 1.386 . S
C532 C534 1.390 . S
C533 C532 1.386 . S
C533 C537 1.393 . S
C534 H526 0.951 1_455 S
C534 C532 1.390 . S
C534 C535 1.400 . S
C535 C534 1.400 . S
C535 C536 1.398 . S
C535 C541 1.491 1_455 S
C536 H527 0.950 . S
C536 C535 1.398 . S
C536 C537 1.391 . S
C537 H525 0.950 . S
C537 C533 1.393 . S
C537 C536 1.391 . S
C538 H528 0.950 . S
C538 C539 1.386 . S
C538 C540 1.390 . S
C539 C538 1.386 . S
C539 C543 1.393 . S
C540 H529 0.951 1_655 S
C540 C538 1.390 . S
C540 C541 1.400 . S
C541 C535 1.491 1_655 S
C541 C540 1.400 . S
C541 C542 1.398 . S
C542 H530 0.950 . S
C542 C541 1.398 . S
C542 C543 1.391 . S
C543 H531 0.950 . S
C543 C539 1.393 . S
C543 C542 1.391 . S
H544 C552 0.950 . S
H545 C557 0.950 . S
H546 C554 0.950 . S
H547 C556 0.950 . S
H548 C558 0.950 . S
H549 C560 0.950 . S
H550 C562 0.950 . S
H551 C563 0.950 . S
C552 H544 0.950 . S
C552 C553 1.386 . S
C552 C554 1.391 . S
C553 C552 1.386 . S
C553 C557 1.393 . S
C554 H546 0.950 . S
C554 C552 1.391 . S
C554 C555 1.400 . S
C555 C554 1.400 . S
C555 C556 1.398 . S
C555 C561 1.491 . S
C556 H547 0.950 . S
C556 C555 1.398 . S
C556 C557 1.391 . S
C557 H545 0.950 . S
C557 C553 1.393 . S
C557 C556 1.391 . S
C558 H548 0.950 . S
C558 C559 1.386 . S
C558 C560 1.391 . S
C559 C558 1.386 . S
C559 C563 1.393 . S
C560 H549 0.950 . S
C560 C558 1.391 . S
C560 C561 1.400 . S
C561 C555 1.491 . S
C561 C560 1.400 . S
C561 C562 1.398 . S
C562 H550 0.950 . S
C562 C561 1.398 . S
C562 C563 1.391 . S
C563 H551 0.950 . S
C563 C559 1.393 . S
C563 C562 1.391 . S
H564 C572 0.950 . S
H565 C577 0.950 . S
H566 C574 0.950 . S
H567 C576 0.950 1_545 S
H568 C578 0.950 . S
H569 C580 0.950 . S
H570 C582 0.950 1_565 S
H571 C583 0.950 . S
C572 H564 0.950 . S
C572 C573 1.386 . S
C572 C574 1.391 . S
C573 C572 1.386 . S
C573 C577 1.393 . S
C574 H566 0.950 . S
C574 C572 1.391 . S
C574 C575 1.400 . S
C575 C574 1.400 . S
C575 C576 1.398 . S
C575 C581 1.491 1_565 S
C576 H567 0.950 1_565 S
C576 C575 1.398 . S
C576 C577 1.391 . S
C577 H565 0.950 . S
C577 C573 1.393 . S
C577 C576 1.391 . S
C578 H568 0.950 . S
C578 C579 1.386 . S
C578 C580 1.391 . S
C579 C578 1.386 . S
C579 C583 1.393 . S
C580 H569 0.950 . S
C580 C578 1.391 . S
C580 C581 1.400 . S
C581 C575 1.491 1_545 S
C581 C580 1.400 . S
C581 C582 1.398 . S
C582 H570 0.950 1_545 S
C582 C581 1.398 . S
C582 C583 1.391 . S
C583 H571 0.950 . S
C583 C579 1.393 . S
C583 C582 1.391 . S
H584 C592 0.950 . S
H585 C597 0.950 . S
H586 C594 0.950 . S
H587 C596 0.950 . S
H588 C598 0.950 . S
H589 C600 0.950 . S
H590 C602 0.950 . S
H591 C603 0.950 . S
C592 H584 0.950 . S
C592 C593 1.386 . S
C592 C594 1.391 . S
C593 C592 1.386 . S
C593 C597 1.393 . S
C594 H586 0.950 . S
C594 C592 1.391 . S
C594 C595 1.400 . S
C595 C594 1.400 . S
C595 C596 1.398 . S
C595 C601 1.491 1_455 S
C596 H587 0.950 . S
C596 C595 1.398 . S
C596 C597 1.391 . S
C597 H585 0.950 . S
C597 C593 1.393 . S
C597 C596 1.391 . S
C598 H588 0.950 . S
C598 C599 1.386 . S
C598 C600 1.391 . S
C599 C598 1.386 . S
C599 C603 1.393 . S
C600 H589 0.950 . S
C600 C598 1.391 . S
C600 C601 1.400 . S
C601 C595 1.491 1_655 S
C601 C600 1.400 . S
C601 C602 1.398 . S
C602 H590 0.950 . S
C602 C601 1.398 . S
C602 C603 1.391 . S
C603 H591 0.950 . S
C603 C599 1.393 . S
C603 C602 1.391 . S
H604 C612 0.950 . S
H605 C617 0.950 . S
H606 C614 0.950 . S
H607 C616 0.950 . S
H608 C618 0.950 . S
H609 C620 0.950 . S
H610 C622 0.950 . S
H611 C623 0.950 . S
C612 H604 0.950 . S
C612 C613 1.386 . S
C612 C614 1.391 . S
C613 C612 1.386 . S
C613 C617 1.393 . S
C614 H606 0.950 . S
C614 C612 1.391 . S
C614 C615 1.400 . S
C615 C614 1.400 . S
C615 C616 1.398 . S
C615 C621 1.491 . S
C616 H607 0.950 . S
C616 C615 1.398 . S
C616 C617 1.391 . S
C617 H605 0.950 . S
C617 C613 1.393 . S
C617 C616 1.391 . S
C618 H608 0.950 . S
C618 C619 1.386 . S
C618 C620 1.391 . S
C619 C618 1.386 . S
C619 C623 1.393 . S
C620 H609 0.950 . S
C620 C618 1.391 . S
C620 C621 1.400 . S
C621 C615 1.491 . S
C621 C620 1.400 . S
C621 C622 1.398 . S
C622 H610 0.950 . S
C622 C621 1.398 . S
C622 C623 1.391 . S
C623 H611 0.950 . S
C623 C619 1.393 . S
C623 C622 1.391 . S
H624 C632 0.950 . S
H625 C637 0.950 . S
H626 C634 0.950 . S
H627 C636 0.950 . S
H628 C638 0.950 . S
H629 C640 0.950 . S
H630 C642 0.950 . S
H631 C643 0.950 . S
C632 H624 0.950 . S
C632 C633 1.386 . S
C632 C634 1.391 . S
C633 C632 1.386 . S
C633 C637 1.393 . S
C634 H626 0.950 . S
C634 C632 1.391 . S
C634 C635 1.400 . S
C635 C634 1.400 . S
C635 C636 1.398 . S
C635 C641 1.491 . S
C636 H627 0.950 . S
C636 C635 1.398 . S
C636 C637 1.391 . S
C637 H625 0.950 . S
C637 C633 1.393 . S
C637 C636 1.391 . S
C638 H628 0.950 . S
C638 C639 1.386 . S
C638 C640 1.391 . S
C639 C638 1.386 . S
C639 C643 1.393 . S
C640 H629 0.950 . S
C640 C638 1.391 . S
C640 C641 1.400 . S
C641 C635 1.491 . S
C641 C640 1.400 . S
C641 C642 1.398 . S
C642 H630 0.950 . S
C642 C641 1.398 . S
C642 C643 1.391 . S
C643 H631 0.950 . S
C643 C639 1.393 . S
C643 C642 1.391 . S
H644 C652 0.950 . S
H645 C657 0.950 . S
H646 C654 0.950 . S
H647 C656 0.950 . S
H648 C658 0.950 . S
H649 C660 0.950 . S
H650 C662 0.950 . S
H651 C663 0.950 . S
C652 H644 0.950 . S
C652 C653 1.386 . S
C652 C654 1.391 . S
C653 C652 1.386 . S
C653 C657 1.393 . S
C654 H646 0.950 . S
C654 C652 1.391 . S
C654 C655 1.400 . S
C655 C654 1.400 . S
C655 C656 1.398 . S
C655 C661 1.491 . S
C656 H647 0.950 . S
C656 C655 1.398 . S
C656 C657 1.391 . S
C657 H645 0.950 . S
C657 C653 1.393 . S
C657 C656 1.391 . S
C658 H648 0.950 . S
C658 C659 1.386 . S
C658 C660 1.391 . S
C659 C658 1.386 . S
C659 C663 1.393 . S
C660 H649 0.950 . S
C660 C658 1.391 . S
C660 C661 1.400 . S
C661 C655 1.491 . S
C661 C660 1.400 . S
C661 C662 1.398 . S
C662 H650 0.950 . S
C662 C661 1.398 . S
C662 C663 1.391 . S
C663 H651 0.950 . S
C663 C659 1.393 . S
C663 C662 1.391 . S
H664 C672 0.950 . S
H665 C677 0.950 . S
H666 C674 0.950 . S
H667 C676 0.950 . S
H668 C678 0.950 . S
H669 C680 0.950 . S
H670 C682 0.950 . S
H671 C683 0.950 . S
C672 H664 0.950 . S
C672 C673 1.386 . S
C672 C674 1.391 . S
C673 C672 1.386 . S
C673 C677 1.393 . S
C674 H666 0.950 . S
C674 C672 1.391 . S
C674 C675 1.400 . S
C675 C674 1.400 . S
C675 C676 1.398 . S
C675 C681 1.491 . S
C676 H667 0.950 . S
C676 C675 1.398 . S
C676 C677 1.391 . S
C677 H665 0.950 . S
C677 C673 1.393 . S
C677 C676 1.391 . S
C678 H668 0.950 . S
C678 C679 1.386 . S
C678 C680 1.391 . S
C679 C678 1.386 . S
C679 C683 1.393 . S
C680 H669 0.950 . S
C680 C678 1.391 . S
C680 C681 1.400 . S
C681 C675 1.491 . S
C681 C680 1.400 . S
C681 C682 1.398 . S
C682 H670 0.950 . S
C682 C681 1.398 . S
C682 C683 1.391 . S
C683 H671 0.950 . S
C683 C679 1.393 . S
C683 C682 1.391 . S
H684 C692 0.950 . S
H685 C697 0.950 . S
H686 C694 0.950 . S
H687 C696 0.950 . S
H688 C698 0.950 . S
H689 C700 0.950 . S
H690 C702 0.950 . S
H691 C703 0.950 . S
C692 H684 0.950 . S
C692 C693 1.386 . S
C692 C694 1.391 . S
C693 C692 1.386 . S
C693 C697 1.393 . S
C694 H686 0.950 . S
C694 C692 1.391 . S
C694 C695 1.400 . S
C695 C694 1.400 . S
C695 C696 1.398 . S
C695 C701 1.491 . S
C696 H687 0.950 . S
C696 C695 1.398 . S
C696 C697 1.391 . S
C697 H685 0.950 . S
C697 C693 1.393 . S
C697 C696 1.391 . S
C698 H688 0.950 . S
C698 C699 1.386 . S
C698 C700 1.391 . S
C699 C698 1.386 . S
C699 C703 1.393 . S
C700 H689 0.950 . S
C700 C698 1.391 . S
C700 C701 1.400 . S
C701 C695 1.491 . S
C701 C700 1.400 . S
C701 C702 1.398 . S
C702 H690 0.950 . S
C702 C701 1.398 . S
C702 C703 1.391 . S
C703 H691 0.950 . S
C703 C699 1.393 . S
C703 C702 1.391 . S
H704 C712 0.950 . S
H705 C717 0.950 . S
H706 C714 0.950 . S
H707 C716 0.950 . S
H708 C718 0.950 . S
H709 C720 0.950 . S
H710 C722 0.950 . S
H711 C723 0.950 . S
C712 H704 0.950 . S
C712 C713 1.386 . S
C712 C714 1.391 . S
C713 C712 1.386 . S
C713 C717 1.393 . S
C714 H706 0.950 . S
C714 C712 1.391 . S
C714 C715 1.400 . S
C715 C714 1.400 . S
C715 C716 1.398 . S
C715 C721 1.491 . S
C716 H707 0.950 . S
C716 C715 1.398 . S
C716 C717 1.391 . S
C717 H705 0.950 . S
C717 C713 1.393 . S
C717 C716 1.391 . S
C718 H708 0.950 . S
C718 C719 1.386 . S
C718 C720 1.391 . S
C719 C718 1.386 . S
C719 C723 1.393 . S
C720 H709 0.950 . S
C720 C718 1.391 . S
C720 C721 1.400 . S
C721 C715 1.491 . S
C721 C720 1.400 . S
C721 C722 1.398 . S
C722 H710 0.950 . S
C722 C721 1.398 . S
C722 C723 1.391 . S
C723 H711 0.950 . S
C723 C719 1.393 . S
C723 C722 1.391 . S
H724 C732 0.950 . S
H725 C737 0.950 . S
H726 C734 0.950 . S
H727 C736 0.950 . S
H728 C738 0.950 . S
H729 C740 0.950 . S
H730 C742 0.950 . S
H731 C743 0.950 . S
C732 H724 0.950 . S
C732 C733 1.386 . S
C732 C734 1.391 . S
C733 C732 1.386 . S
C733 C737 1.393 . S
C734 H726 0.950 . S
C734 C732 1.391 . S
C734 C735 1.400 . S
C735 C734 1.400 . S
C735 C736 1.398 . S
C735 C741 1.491 . S
C736 H727 0.950 . S
C736 C735 1.398 . S
C736 C737 1.391 . S
C737 H725 0.950 . S
C737 C733 1.393 . S
C737 C736 1.391 . S
C738 H728 0.950 . S
C738 C739 1.386 . S
C738 C740 1.391 . S
C739 C738 1.386 . S
C739 C743 1.393 . S
C740 H729 0.950 . S
C740 C738 1.391 . S
C740 C741 1.400 . S
C741 C735 1.491 . S
C741 C740 1.400 . S
C741 C742 1.398 . S
C742 H730 0.950 . S
C742 C741 1.398 . S
C742 C743 1.391 . S
C743 H731 0.950 . S
C743 C739 1.393 . S
C743 C742 1.391 . S
H744 C752 0.950 . S
H745 C757 0.950 . S
H746 C754 0.950 . S
H747 C756 0.950 . S
H748 C758 0.950 . S
H749 C760 0.950 . S
H750 C762 0.950 . S
H751 C763 0.950 . S
C752 H744 0.950 . S
C752 C753 1.386 . S
C752 C754 1.391 . S
C753 C752 1.386 . S
C753 C757 1.393 . S
C754 H746 0.950 . S
C754 C752 1.391 . S
C754 C755 1.400 . S
C755 C754 1.400 . S
C755 C756 1.398 . S
C755 C761 1.491 . S
C756 H747 0.950 . S
C756 C755 1.398 . S
C756 C757 1.391 . S
C757 H745 0.950 . S
C757 C753 1.393 . S
C757 C756 1.391 . S
C758 H748 0.950 . S
C758 C759 1.386 . S
C758 C760 1.391 . S
C759 C758 1.386 . S
C759 C763 1.393 . S
C760 H749 0.950 . S
C760 C758 1.391 . S
C760 C761 1.400 . S
C761 C755 1.491 . S
C761 C760 1.400 . S
C761 C762 1.398 . S
C762 H750 0.950 . S
C762 C761 1.398 . S
C762 C763 1.391 . S
C763 H751 0.950 . S
C763 C759 1.393 . S
C763 C762 1.391 . S
H764 C772 0.950 . S
H765 C777 0.950 . S
H766 C774 0.950 . S
H767 C776 0.950 . S
H768 C778 0.950 . S
H769 C780 0.950 . S
H770 C782 0.950 . S
H771 C783 0.950 . S
C772 H764 0.950 . S
C772 C773 1.386 . S
C772 C774 1.391 . S
C773 C772 1.386 . S
C773 C777 1.393 . S
C774 H766 0.950 . S
C774 C772 1.391 . S
C774 C775 1.400 . S
C775 C774 1.400 . S
C775 C776 1.398 . S
C775 C781 1.491 . S
C776 H767 0.950 . S
C776 C775 1.398 . S
C776 C777 1.391 . S
C777 H765 0.950 . S
C777 C773 1.393 . S
C777 C776 1.391 . S
C778 H768 0.950 . S
C778 C779 1.386 . S
C778 C780 1.391 . S
C779 C778 1.386 . S
C779 C783 1.393 . S
C780 H769 0.950 . S
C780 C778 1.391 . S
C780 C781 1.400 . S
C781 C775 1.491 . S
C781 C780 1.400 . S
C781 C782 1.398 . S
C782 H770 0.950 . S
C782 C781 1.398 . S
C782 C783 1.391 . S
C783 H771 0.950 . S
C783 C779 1.393 . S
C783 C782 1.391 . S
H784 C792 0.950 . S
H785 C797 0.950 . S
H786 C794 0.950 . S
H787 C796 0.950 . S
H788 C798 0.950 . S
H789 C800 0.950 . S
H790 C802 0.950 . S
H791 C803 0.950 . S
C792 H784 0.950 . S
C792 C793 1.386 . S
C792 C794 1.391 . S
C793 C792 1.386 . S
C793 C797 1.393 . S
C794 H786 0.950 . S
C794 C792 1.391 . S
C794 C795 1.400 . S
C795 C794 1.400 . S
C795 C796 1.398 . S
C795 C801 1.491 . S
C796 H787 0.950 . S
C796 C795 1.398 . S
C796 C797 1.391 . S
C797 H785 0.950 . S
C797 C793 1.393 . S
C797 C796 1.391 . S
C798 H788 0.950 . S
C798 C799 1.386 . S
C798 C800 1.391 . S
C799 C798 1.386 . S
C799 C803 1.393 . S
C800 H789 0.950 . S
C800 C798 1.391 . S
C800 C801 1.400 . S
C801 C795 1.491 . S
C801 C800 1.400 . S
C801 C802 1.398 . S
C802 H790 0.950 . S
C802 C801 1.398 . S
C802 C803 1.391 . S
C803 H791 0.950 . S
C803 C799 1.393 . S
C803 C802 1.391 . S
H804 C812 0.950 . S
H805 C817 0.950 . S
H806 C814 0.950 . S
H807 C816 0.950 . S
H808 C818 0.950 . S
H809 C820 0.950 . S
H810 C822 0.950 . S
H811 C823 0.950 . S
C812 H804 0.950 . S
C812 C813 1.386 . S
C812 C814 1.391 . S
C813 C812 1.386 . S
C813 C817 1.393 . S
C814 H806 0.950 . S
C814 C812 1.391 . S
C814 C815 1.400 . S
C815 C814 1.400 . S
C815 C816 1.398 . S
C815 C821 1.491 . S
C816 H807 0.950 . S
C816 C815 1.398 . S
C816 C817 1.391 . S
C817 H805 0.950 . S
C817 C813 1.393 . S
C817 C816 1.391 . S
C818 H808 0.950 . S
C818 C819 1.386 . S
C818 C820 1.391 . S
C819 C818 1.386 . S
C819 C823 1.393 . S
C820 H809 0.950 . S
C820 C818 1.391 . S
C820 C821 1.400 . S
C821 C815 1.491 . S
C821 C820 1.400 . S
C821 C822 1.398 . S
C822 H810 0.950 . S
C822 C821 1.398 . S
C822 C823 1.391 . S
C823 H811 0.950 . S
C823 C819 1.393 . S
C823 C822 1.391 . S
H824 C832 0.950 . S
H825 C837 0.950 . S
H826 C834 0.950 . S
H827 C836 0.950 . S
H828 C838 0.950 . S
H829 C840 0.950 . S
H830 C842 0.950 . S
H831 C843 0.950 . S
C832 H824 0.950 . S
C832 C833 1.386 . S
C832 C834 1.391 . S
C833 C832 1.386 . S
C833 C837 1.393 . S
C834 H826 0.950 . S
C834 C832 1.391 . S
C834 C835 1.400 . S
C835 C834 1.400 . S
C835 C836 1.398 . S
C835 C841 1.491 . S
C836 H827 0.950 . S
C836 C835 1.398 . S
C836 C837 1.391 . S
C837 H825 0.950 . S
C837 C833 1.393 . S
C837 C836 1.391 . S
C838 H828 0.950 . S
C838 C839 1.386 . S
C838 C840 1.391 . S
C839 C838 1.386 . S
C839 C843 1.393 . S
C840 H829 0.950 . S
C840 C838 1.391 . S
C840 C841 1.400 . S
C841 C835 1.491 . S
C841 C840 1.400 . S
C841 C842 1.398 . S
C842 H830 0.950 . S
C842 C841 1.398 . S
C842 C843 1.391 . S
C843 H831 0.950 . S
C843 C839 1.393 . S
C843 C842 1.391 . S
H844 C852 0.950 . S
H845 C857 0.950 . S
H846 C854 0.950 . S
H847 C856 0.950 . S
H848 C858 0.950 . S
H849 C860 0.950 . S
H850 C862 0.950 . S
H851 C863 0.950 . S
C852 H844 0.950 . S
C852 C853 1.386 . S
C852 C854 1.391 . S
C853 C852 1.386 . S
C853 C857 1.393 . S
C854 H846 0.950 . S
C854 C852 1.391 . S
C854 C855 1.400 . S
C855 C854 1.400 . S
C855 C856 1.398 . S
C855 C861 1.491 . S
C856 H847 0.950 . S
C856 C855 1.398 . S
C856 C857 1.391 . S
C857 H845 0.950 . S
C857 C853 1.393 . S
C857 C856 1.391 . S
C858 H848 0.950 . S
C858 C859 1.386 . S
C858 C860 1.391 . S
C859 C858 1.386 . S
C859 C863 1.393 . S
C860 H849 0.950 . S
C860 C858 1.391 . S
C860 C861 1.400 . S
C861 C855 1.491 . S
C861 C860 1.400 . S
C861 C862 1.398 . S
C862 H850 0.950 . S
C862 C861 1.398 . S
C862 C863 1.391 . S
C863 H851 0.950 . S
C863 C859 1.393 . S
C863 C862 1.391 . S
H864 C872 0.950 . S
H865 C877 0.950 . S
H866 C874 1.027 . S
H867 C876 0.950 1_554 S
H868 C878 0.950 . S
H869 C880 1.027 . S
H870 C882 0.950 1_556 S
H871 C883 0.950 . S
C872 H864 0.950 . S
C872 C873 1.386 . S
C872 C874 1.347 1_565 S
C873 C872 1.386 . S
C873 C877 1.393 . S
C874 H866 1.027 . S
C874 C872 1.347 1_545 S
C874 C875 1.375 1_545 S
C875 C874 1.375 1_565 S
C875 C876 1.398 . S
C875 C881 1.491 1_566 S
C876 H867 0.950 1_556 S
C876 C875 1.398 . S
C876 C877 1.391 . S
C877 H865 0.950 . S
C877 C873 1.393 . S
C877 C876 1.391 . S
C878 H868 0.950 . S
C878 C879 1.386 . S
C878 C880 1.347 1_545 S
C879 C878 1.386 . S
C879 C883 1.393 . S
C880 H869 1.027 . S
C880 C878 1.347 1_565 S
C880 C881 1.375 1_565 S
C881 C875 1.491 1_544 S
C881 C880 1.375 1_545 S
C881 C882 1.398 . S
C882 H870 0.950 1_554 S
C882 C881 1.398 . S
C882 C883 1.391 . S
C883 H871 0.950 . S
C883 C879 1.393 . S
C883 C882 1.391 . S
H884 C892 0.950 . S
H885 C897 0.950 . S
H886 C894 0.950 1_556 S
H887 C896 0.950 1_455 S
H888 C898 0.950 . S
H889 C900 0.950 1_554 S
H890 C902 0.950 1_655 S
H891 C903 0.950 . S
C892 H884 0.950 . S
C892 C893 1.386 . S
C892 C894 1.391 . S
C893 C892 1.386 . S
C893 C897 1.393 . S
C894 H886 0.950 1_554 S
C894 C892 1.391 . S
C894 C895 1.400 . S
C895 C894 1.400 . S
C895 C896 1.398 . S
C895 C901 1.491 1_654 S
C896 H887 0.950 1_655 S
C896 C895 1.398 . S
C896 C897 1.391 . S
C897 H885 0.950 . S
C897 C893 1.393 . S
C897 C896 1.391 . S
C898 H888 0.950 . S
C898 C899 1.386 . S
C898 C900 1.391 . S
C899 C898 1.386 . S
C899 C903 1.393 . S
C900 H889 0.950 1_556 S
C900 C898 1.391 . S
C900 C901 1.400 . S
C901 C895 1.491 1_456 S
C901 C900 1.400 . S
C901 C902 1.398 . S
C902 H890 0.950 1_455 S
C902 C901 1.398 . S
C902 C903 1.391 . S
C903 H891 0.950 . S
C903 C899 1.393 . S
C903 C902 1.391 . S
H904 C912 0.950 . S
H905 C917 0.950 . S
H906 C914 0.950 . S
H907 C916 0.950 1_554 S
H908 C918 0.950 . S
H909 C920 0.950 . S
H910 C922 0.950 1_556 S
H911 C923 0.950 . S
C912 H904 0.950 . S
C912 C913 1.386 . S
C912 C914 1.391 . S
C913 C912 1.386 . S
C913 C917 1.393 . S
C914 H906 0.950 . S
C914 C912 1.391 . S
C914 C915 1.400 . S
C915 C914 1.400 . S
C915 C916 1.398 . S
C915 C921 1.491 1_556 S
C916 H907 0.950 1_556 S
C916 C915 1.398 . S
C916 C917 1.391 . S
C917 H905 0.950 . S
C917 C913 1.393 . S
C917 C916 1.391 . S
C918 H908 0.950 . S
C918 C919 1.386 . S
C918 C920 1.391 . S
C919 C918 1.386 . S
C919 C923 1.393 . S
C920 H909 0.950 . S
C920 C918 1.391 . S
C920 C921 1.400 . S
C921 C915 1.491 1_554 S
C921 C920 1.400 . S
C921 C922 1.398 . S
C922 H910 0.950 1_554 S
C922 C921 1.398 . S
C922 C923 1.391 . S
C923 H911 0.950 . S
C923 C919 1.393 . S
C923 C922 1.391 . S
H924 C932 0.950 . S
H925 C937 0.950 . S
H926 C934 0.995 . S
H927 C936 0.950 1_554 S
H928 C938 0.950 . S
H929 C940 0.995 . S
H930 C942 0.950 1_556 S
H931 C943 0.950 . S
C932 H924 0.950 . S
C932 C933 1.386 . S
C932 C934 1.368 1_565 S
C933 C932 1.386 . S
C933 C937 1.393 . S
C934 H926 0.995 . S
C934 C932 1.368 1_545 S
C934 C935 1.381 1_545 S
C935 C934 1.381 1_565 S
C935 C936 1.398 . S
C935 C941 1.491 1_566 S
C936 H927 0.950 1_556 S
C936 C935 1.398 . S
C936 C937 1.391 . S
C937 H925 0.950 . S
C937 C933 1.393 . S
C937 C936 1.391 . S
C938 H928 0.950 . S
C938 C939 1.386 . S
C938 C940 1.368 1_545 S
C939 C938 1.386 . S
C939 C943 1.393 . S
C940 H929 0.995 . S
C940 C938 1.368 1_565 S
C940 C941 1.381 1_565 S
C941 C935 1.491 1_544 S
C941 C940 1.381 1_545 S
C941 C942 1.398 . S
C942 H930 0.950 1_554 S
C942 C941 1.398 . S
C942 C943 1.391 . S
C943 H931 0.950 . S
C943 C939 1.393 . S
C943 C942 1.391 . S
H944 C952 0.950 . S
H945 C957 0.950 . S
H946 C954 0.950 1_655 S
H947 C956 0.950 . S
H948 C958 0.950 . S
H949 C960 0.950 1_455 S
H950 C962 0.950 . S
H951 C963 0.950 . S
C952 H944 0.950 . S
C952 C953 1.386 . S
C952 C954 1.391 . S
C953 C952 1.386 . S
C953 C957 1.393 . S
C954 H946 0.950 1_455 S
C954 C952 1.391 . S
C954 C955 1.400 . S
C955 C954 1.400 . S
C955 C956 1.398 . S
C955 C961 1.491 1_456 S
C956 H947 0.950 . S
C956 C955 1.398 . S
C956 C957 1.391 . S
C957 H945 0.950 . S
C957 C953 1.393 . S
C957 C956 1.391 . S
C958 H948 0.950 . S
C958 C959 1.386 . S
C958 C960 1.391 . S
C959 C958 1.386 . S
C959 C963 1.393 . S
C960 H949 0.950 1_655 S
C960 C958 1.391 . S
C960 C961 1.400 . S
C961 C955 1.491 1_654 S
C961 C960 1.400 . S
C961 C962 1.398 . S
C962 H950 0.950 . S
C962 C961 1.398 . S
C962 C963 1.391 . S
C963 H951 0.950 . S
C963 C959 1.393 . S
C963 C962 1.391 . S
H964 C972 0.950 . S
H965 C977 0.950 . S
H966 C974 0.950 . S
H967 C976 0.950 . S
H968 C978 0.950 . S
H969 C980 0.950 . S
H970 C982 0.950 . S
H971 C983 0.950 . S
C972 H964 0.950 . S
C972 C973 1.386 . S
C972 C974 1.391 . S
C973 C972 1.386 . S
C973 C977 1.393 . S
C974 H966 0.950 . S
C974 C972 1.391 . S
C974 C975 1.400 . S
C975 C974 1.400 . S
C975 C976 1.398 . S
C975 C981 1.491 1_554 S
C976 H967 0.950 . S
C976 C975 1.398 . S
C976 C977 1.391 . S
C977 H965 0.950 . S
C977 C973 1.393 . S
C977 C976 1.391 . S
C978 H968 0.950 . S
C978 C979 1.386 . S
C978 C980 1.391 . S
C979 C978 1.386 . S
C979 C983 1.393 . S
C980 H969 0.950 . S
C980 C978 1.391 . S
C980 C981 1.400 . S
C981 C975 1.491 1_556 S
C981 C980 1.400 . S
C981 C982 1.398 . S
C982 H970 0.950 . S
C982 C981 1.398 . S
C982 C983 1.391 . S
C983 H971 0.950 . S
C983 C979 1.393 . S
C983 C982 1.391 . S
H984 C992 0.950 . S
H985 C997 0.950 . S
H986 C994 0.950 . S
H987 C996 0.950 . S
H988 C998 0.950 . S
H989 C1000 0.950 . S
H990 C1002 0.950 . S
H991 C1003 0.950 . S
C992 H984 0.950 . S
C992 C993 1.386 . S
C992 C994 1.391 . S
C993 C992 1.386 . S
C993 C997 1.393 . S
C994 H986 0.950 . S
C994 C992 1.391 . S
C994 C995 1.400 . S
C995 C994 1.400 . S
C995 C996 1.398 . S
C995 C1001 1.491 . S
C996 H987 0.950 . S
C996 C995 1.398 . S
C996 C997 1.391 . S
C997 H985 0.950 . S
C997 C993 1.393 . S
C997 C996 1.391 . S
C998 H988 0.950 . S
C998 C999 1.386 . S
C998 C1000 1.391 . S
C999 C998 1.386 . S
C999 C1003 1.393 . S
C1000 H989 0.950 . S
C1000 C998 1.391 . S
C1000 C1001 1.400 . S
C1001 C995 1.491 . S
C1001 C1000 1.400 . S
C1001 C1002 1.398 . S
C1002 H990 0.950 . S
C1002 C1001 1.398 . S
C1002 C1003 1.391 . S
C1003 H991 0.950 . S
C1003 C999 1.393 . S
C1003 C1002 1.391 . S
H1004 C1012 0.950 . S
H1005 C1017 0.950 . S
H1006 C1014 0.950 . S
H1007 C1016 0.950 . S
H1008 C1018 0.950 . S
H1009 C1020 0.950 . S
H1010 C1022 0.950 . S
H1011 C1023 0.950 . S
C1012 H1004 0.950 . S
C1012 C1013 1.386 . S
C1012 C1014 1.391 . S
C1013 C1012 1.386 . S
C1013 C1017 1.393 . S
C1014 H1006 0.950 . S
C1014 C1012 1.391 . S
C1014 C1015 1.400 . S
C1015 C1014 1.400 . S
C1015 C1016 1.398 . S
C1015 C1021 1.491 . S
C1016 H1007 0.950 . S
C1016 C1015 1.398 . S
C1016 C1017 1.391 . S
C1017 H1005 0.950 . S
C1017 C1013 1.393 . S
C1017 C1016 1.391 . S
C1018 H1008 0.950 . S
C1018 C1019 1.386 . S
C1018 C1020 1.391 . S
C1019 C1018 1.386 . S
C1019 C1023 1.393 . S
C1020 H1009 0.950 . S
C1020 C1018 1.391 . S
C1020 C1021 1.400 . S
C1021 C1015 1.491 . S
C1021 C1020 1.400 . S
C1021 C1022 1.398 . S
C1022 H1010 0.950 . S
C1022 C1021 1.398 . S
C1022 C1023 1.391 . S
C1023 H1011 0.950 . S
C1023 C1019 1.393 . S
C1023 C1022 1.391 . S
H1024 C1032 0.950 . S
H1025 C1037 0.950 . S
H1026 C1034 0.950 . S
H1027 C1036 0.950 . S
H1028 C1038 0.950 . S
H1029 C1040 0.950 . S
H1030 C1042 0.950 . S
H1031 C1043 0.950 . S
C1032 H1024 0.950 . S
C1032 C1033 1.386 . S
C1032 C1034 1.391 . S
C1033 C1032 1.386 . S
C1033 C1037 1.393 . S
C1034 H1026 0.950 . S
C1034 C1032 1.391 . S
C1034 C1035 1.400 . S
C1035 C1034 1.400 . S
C1035 C1036 1.398 . S
C1035 C1041 1.491 . S
C1036 H1027 0.950 . S
C1036 C1035 1.398 . S
C1036 C1037 1.391 . S
C1037 H1025 0.950 . S
C1037 C1033 1.393 . S
C1037 C1036 1.391 . S
C1038 H1028 0.950 . S
C1038 C1039 1.386 . S
C1038 C1040 1.391 . S
C1039 C1038 1.386 . S
C1039 C1043 1.393 . S
C1040 H1029 0.950 . S
C1040 C1038 1.391 . S
C1040 C1041 1.400 . S
C1041 C1035 1.491 . S
C1041 C1040 1.400 . S
C1041 C1042 1.398 . S
C1042 H1030 0.950 . S
C1042 C1041 1.398 . S
C1042 C1043 1.391 . S
C1043 H1031 0.950 . S
C1043 C1039 1.393 . S
C1043 C1042 1.391 . S
H1044 C1052 0.950 . S
H1045 C1057 0.950 . S
H1046 C1054 0.950 . S
H1047 C1056 0.950 . S
H1048 C1058 0.950 . S
H1049 C1060 0.950 . S
H1050 C1062 0.950 . S
H1051 C1063 0.950 . S
C1052 H1044 0.950 . S
C1052 C1053 1.386 . S
C1052 C1054 1.391 . S
C1053 C1052 1.386 . S
C1053 C1057 1.393 . S
C1054 H1046 0.950 . S
C1054 C1052 1.391 . S
C1054 C1055 1.400 . S
C1055 C1054 1.400 . S
C1055 C1056 1.398 . S
C1055 C1061 1.491 . S
C1056 H1047 0.950 . S
C1056 C1055 1.398 . S
C1056 C1057 1.391 . S
C1057 H1045 0.950 . S
C1057 C1053 1.393 . S
C1057 C1056 1.391 . S
C1058 H1048 0.950 . S
C1058 C1059 1.386 . S
C1058 C1060 1.391 . S
C1059 C1058 1.386 . S
C1059 C1063 1.393 . S
C1060 H1049 0.950 . S
C1060 C1058 1.391 . S
C1060 C1061 1.400 . S
C1061 C1055 1.491 . S
C1061 C1060 1.400 . S
C1061 C1062 1.398 . S
C1062 H1050 0.950 . S
C1062 C1061 1.398 . S
C1062 C1063 1.391 . S
C1063 H1051 0.950 . S
C1063 C1059 1.393 . S
C1063 C1062 1.391 . S
H1064 C1072 0.950 . S
H1065 C1077 0.950 . S
H1066 C1074 0.950 . S
H1067 C1076 0.950 . S
H1068 C1078 0.950 . S
H1069 C1080 0.950 . S
H1070 C1082 0.950 . S
H1071 C1083 0.950 . S
C1072 H1064 0.950 . S
C1072 C1073 1.386 . S
C1072 C1074 1.391 . S
C1073 C1072 1.386 . S
C1073 C1077 1.393 . S
C1074 H1066 0.950 . S
C1074 C1072 1.391 . S
C1074 C1075 1.400 . S
C1075 C1074 1.400 . S
C1075 C1076 1.398 . S
C1075 C1081 1.491 . S
C1076 H1067 0.950 . S
C1076 C1075 1.398 . S
C1076 C1077 1.391 . S
C1077 H1065 0.950 . S
C1077 C1073 1.393 . S
C1077 C1076 1.391 . S
C1078 H1068 0.950 . S
C1078 C1079 1.386 . S
C1078 C1080 1.391 . S
C1079 C1078 1.386 . S
C1079 C1083 1.393 . S
C1080 H1069 0.950 . S
C1080 C1078 1.391 . S
C1080 C1081 1.400 . S
C1081 C1075 1.491 . S
C1081 C1080 1.400 . S
C1081 C1082 1.398 . S
C1082 H1070 0.950 . S
C1082 C1081 1.398 . S
C1082 C1083 1.391 . S
C1083 H1071 0.950 . S
C1083 C1079 1.393 . S
C1083 C1082 1.391 . S
H1084 C1092 0.950 . S
H1085 C1097 0.950 . S
H1086 C1094 0.950 . S
H1087 C1096 0.950 . S
H1088 C1098 0.950 . S
H1089 C1100 0.950 . S
H1090 C1102 0.950 . S
H1091 C1103 0.950 . S
C1092 H1084 0.950 . S
C1092 C1093 1.386 . S
C1092 C1094 1.391 . S
C1093 C1092 1.386 . S
C1093 C1097 1.393 . S
C1094 H1086 0.950 . S
C1094 C1092 1.391 . S
C1094 C1095 1.400 . S
C1095 C1094 1.400 . S
C1095 C1096 1.398 . S
C1095 C1101 1.491 . S
C1096 H1087 0.950 . S
C1096 C1095 1.398 . S
C1096 C1097 1.391 . S
C1097 H1085 0.950 . S
C1097 C1093 1.393 . S
C1097 C1096 1.391 . S
C1098 H1088 0.950 . S
C1098 C1099 1.386 . S
C1098 C1100 1.391 . S
C1099 C1098 1.386 . S
C1099 C1103 1.393 . S
C1100 H1089 0.950 . S
C1100 C1098 1.391 . S
C1100 C1101 1.400 . S
C1101 C1095 1.491 . S
C1101 C1100 1.400 . S
C1101 C1102 1.398 . S
C1102 H1090 0.950 . S
C1102 C1101 1.398 . S
C1102 C1103 1.391 . S
C1103 H1091 0.950 . S
C1103 C1099 1.393 . S
C1103 C1102 1.391 . S
H1104 C1112 0.950 . S
H1105 C1117 0.950 . S
H1106 C1114 0.950 . S
H1107 C1116 0.950 . S
H1108 C1118 0.950 . S
H1109 C1120 0.950 . S
H1110 C1122 0.950 . S
H1111 C1123 0.950 . S
C1112 H1104 0.950 . S
C1112 C1113 1.386 . S
C1112 C1114 1.391 . S
C1113 C1112 1.386 . S
C1113 C1117 1.393 . S
C1114 H1106 0.950 . S
C1114 C1112 1.391 . S
C1114 C1115 1.400 . S
C1115 C1114 1.400 . S
C1115 C1116 1.398 . S
C1115 C1121 1.491 . S
C1116 H1107 0.950 . S
C1116 C1115 1.398 . S
C1116 C1117 1.391 . S
C1117 H1105 0.950 . S
C1117 C1113 1.393 . S
C1117 C1116 1.391 . S
C1118 H1108 0.950 . S
C1118 C1119 1.386 . S
C1118 C1120 1.391 . S
C1119 C1118 1.386 . S
C1119 C1123 1.393 . S
C1120 H1109 0.950 . S
C1120 C1118 1.391 . S
C1120 C1121 1.400 . S
C1121 C1115 1.491 . S
C1121 C1120 1.400 . S
C1121 C1122 1.398 . S
C1122 H1110 0.950 . S
C1122 C1121 1.398 . S
C1122 C1123 1.391 . S
C1123 H1111 0.950 . S
C1123 C1119 1.393 . S
C1123 C1122 1.391 . S
H1124 C1132 0.950 . S
H1125 C1137 0.950 . S
H1126 C1134 0.950 . S
H1127 C1136 0.950 . S
H1128 C1138 0.950 . S
H1129 C1140 0.950 . S
H1130 C1142 0.950 . S
H1131 C1143 0.950 . S
C1132 H1124 0.950 . S
C1132 C1133 1.386 . S
C1132 C1134 1.391 . S
C1133 C1132 1.386 . S
C1133 C1137 1.393 . S
C1134 H1126 0.950 . S
C1134 C1132 1.391 . S
C1134 C1135 1.400 . S
C1135 C1134 1.400 . S
C1135 C1136 1.398 . S
C1135 C1141 1.491 . S
C1136 H1127 0.950 . S
C1136 C1135 1.398 . S
C1136 C1137 1.391 . S
C1137 H1125 0.950 . S
C1137 C1133 1.393 . S
C1137 C1136 1.391 . S
C1138 H1128 0.950 . S
C1138 C1139 1.386 . S
C1138 C1140 1.391 . S
C1139 C1138 1.386 . S
C1139 C1143 1.393 . S
C1140 H1129 0.950 . S
C1140 C1138 1.391 . S
C1140 C1141 1.400 . S
C1141 C1135 1.491 . S
C1141 C1140 1.400 . S
C1141 C1142 1.398 . S
C1142 H1130 0.950 . S
C1142 C1141 1.398 . S
C1142 C1143 1.391 . S
C1143 H1131 0.950 . S
C1143 C1139 1.393 . S
C1143 C1142 1.391 . S
H1144 C1152 0.950 . S
H1145 C1157 0.950 . S
H1146 C1154 0.950 . S
H1147 C1156 0.950 . S
H1148 C1158 0.950 . S
H1149 C1160 0.950 . S
H1150 C1162 0.950 . S
H1151 C1163 0.950 . S
C1152 H1144 0.950 . S
C1152 C1153 1.386 . S
C1152 C1154 1.391 . S
C1153 C1152 1.386 . S
C1153 C1157 1.393 . S
C1154 H1146 0.950 . S
C1154 C1152 1.391 . S
C1154 C1155 1.400 . S
C1155 C1154 1.400 . S
C1155 C1156 1.398 . S
C1155 C1161 1.491 . S
C1156 H1147 0.950 . S
C1156 C1155 1.398 . S
C1156 C1157 1.391 . S
C1157 H1145 0.950 . S
C1157 C1153 1.393 . S
C1157 C1156 1.391 . S
C1158 H1148 0.950 . S
C1158 C1159 1.386 . S
C1158 C1160 1.391 . S
C1159 C1158 1.386 . S
C1159 C1163 1.393 . S
C1160 H1149 0.950 . S
C1160 C1158 1.391 . S
C1160 C1161 1.400 . S
C1161 C1155 1.491 . S
C1161 C1160 1.400 . S
C1161 C1162 1.398 . S
C1162 H1150 0.950 . S
C1162 C1161 1.398 . S
C1162 C1163 1.391 . S
C1163 H1151 0.950 . S
C1163 C1159 1.393 . S
C1163 C1162 1.391 . S
H1164 C1172 0.950 . S
H1165 C1177 0.950 . S
H1166 C1174 0.950 . S
H1167 C1176 0.950 . S
H1168 C1178 0.950 . S
H1169 C1180 0.950 . S
H1170 C1182 0.950 . S
H1171 C1183 0.950 . S
C1172 H1164 0.950 . S
C1172 C1173 1.386 . S
C1172 C1174 1.391 . S
C1173 C1172 1.386 . S
C1173 C1177 1.393 . S
C1174 H1166 0.950 . S
C1174 C1172 1.391 . S
C1174 C1175 1.400 . S
C1175 C1174 1.400 . S
C1175 C1176 1.398 . S
C1175 C1181 1.491 . S
C1176 H1167 0.950 . S
C1176 C1175 1.398 . S
C1176 C1177 1.391 . S
C1177 H1165 0.950 . S
C1177 C1173 1.393 . S
C1177 C1176 1.391 . S
C1178 H1168 0.950 . S
C1178 C1179 1.386 . S
C1178 C1180 1.391 . S
C1179 C1178 1.386 . S
C1179 C1183 1.393 . S
C1180 H1169 0.950 . S
C1180 C1178 1.391 . S
C1180 C1181 1.400 . S
C1181 C1175 1.491 . S
C1181 C1180 1.400 . S
C1181 C1182 1.398 . S
C1182 H1170 0.950 . S
C1182 C1181 1.398 . S
C1182 C1183 1.391 . S
C1183 H1171 0.950 . S
C1183 C1179 1.393 . S
C1183 C1182 1.391 . S
H1184 C1192 0.950 . S
H1185 C1197 0.950 . S
H1186 C1194 0.950 . S
H1187 C1196 0.950 . S
H1188 C1198 0.950 . S
H1189 C1200 0.950 . S
H1190 C1202 0.950 . S
H1191 C1203 0.950 . S
C1192 H1184 0.950 . S
C1192 C1193 1.386 . S
C1192 C1194 1.391 . S
C1193 C1192 1.386 . S
C1193 C1197 1.393 . S
C1194 H1186 0.950 . S
C1194 C1192 1.391 . S
C1194 C1195 1.400 . S
C1195 C1194 1.400 . S
C1195 C1196 1.398 . S
C1195 C1201 1.491 . S
C1196 H1187 0.950 . S
C1196 C1195 1.398 . S
C1196 C1197 1.391 . S
C1197 H1185 0.950 . S
C1197 C1193 1.393 . S
C1197 C1196 1.391 . S
C1198 H1188 0.950 . S
C1198 C1199 1.386 . S
C1198 C1200 1.391 . S
C1199 C1198 1.386 . S
C1199 C1203 1.393 . S
C1200 H1189 0.950 . S
C1200 C1198 1.391 . S
C1200 C1201 1.400 . S
C1201 C1195 1.491 . S
C1201 C1200 1.400 . S
C1201 C1202 1.398 . S
C1202 H1190 0.950 . S
C1202 C1201 1.398 . S
C1202 C1203 1.391 . S
C1203 H1191 0.950 . S
C1203 C1199 1.393 . S
C1203 C1202 1.391 . S
H1204 C1212 0.950 . S
H1205 C1217 0.950 . S
H1206 C1214 0.950 . S
H1207 C1216 0.950 . S
H1208 C1218 0.950 . S
H1209 C1220 0.950 . S
H1210 C1222 0.950 . S
H1211 C1223 0.950 . S
C1212 H1204 0.950 . S
C1212 C1213 1.386 . S
C1212 C1214 1.391 . S
C1213 C1212 1.386 . S
C1213 C1217 1.393 . S
C1214 H1206 0.950 . S
C1214 C1212 1.391 . S
C1214 C1215 1.400 . S
C1215 C1214 1.400 . S
C1215 C1216 1.398 . S
C1215 C1221 1.491 . S
C1216 H1207 0.950 . S
C1216 C1215 1.398 . S
C1216 C1217 1.391 . S
C1217 H1205 0.950 . S
C1217 C1213 1.393 . S
C1217 C1216 1.391 . S
C1218 H1208 0.950 . S
C1218 C1219 1.386 . S
C1218 C1220 1.391 . S
C1219 C1218 1.386 . S
C1219 C1223 1.393 . S
C1220 H1209 0.950 . S
C1220 C1218 1.391 . S
C1220 C1221 1.400 . S
C1221 C1215 1.491 . S
C1221 C1220 1.400 . S
C1221 C1222 1.398 . S
C1222 H1210 0.950 . S
C1222 C1221 1.398 . S
C1222 C1223 1.391 . S
C1223 H1211 0.950 . S
C1223 C1219 1.393 . S
C1223 C1222 1.391 . S
H1224 C1232 0.950 . S
H1225 C1237 0.950 . S
H1226 C1234 0.950 . S
H1227 C1236 0.950 . S
H1228 C1238 0.950 . S
H1229 C1240 0.950 . S
H1230 C1242 0.950 . S
H1231 C1243 0.950 . S
C1232 H1224 0.950 . S
C1232 C1233 1.386 . S
C1232 C1234 1.391 . S
C1233 C1232 1.386 . S
C1233 C1237 1.393 . S
C1234 H1226 0.950 . S
C1234 C1232 1.391 . S
C1234 C1235 1.400 . S
C1235 C1234 1.400 . S
C1235 C1236 1.398 . S
C1235 C1241 1.491 . S
C1236 H1227 0.950 . S
C1236 C1235 1.398 . S
C1236 C1237 1.391 . S
C1237 H1225 0.950 . S
C1237 C1233 1.393 . S
C1237 C1236 1.391 . S
C1238 H1228 0.950 . S
C1238 C1239 1.386 . S
C1238 C1240 1.391 . S
C1239 C1238 1.386 . S
C1239 C1243 1.393 . S
C1240 H1229 0.950 . S
C1240 C1238 1.391 . S
C1240 C1241 1.400 . S
C1241 C1235 1.491 . S
C1241 C1240 1.400 . S
C1241 C1242 1.398 . S
C1242 H1230 0.950 . S
C1242 C1241 1.398 . S
C1242 C1243 1.391 . S
C1243 H1231 0.950 . S
C1243 C1239 1.393 . S
C1243 C1242 1.391 . S
H1244 C1252 0.950 . S
H1245 C1257 0.950 . S
H1246 C1254 0.950 . S
H1247 C1256 0.950 . S
H1248 C1258 0.950 . S
H1249 C1260 0.950 . S
H1250 C1262 0.950 . S
H1251 C1263 0.950 . S
C1252 H1244 0.950 . S
C1252 C1253 1.386 . S
C1252 C1254 1.391 . S
C1253 C1252 1.386 . S
C1253 C1257 1.393 . S
C1254 H1246 0.950 . S
C1254 C1252 1.391 . S
C1254 C1255 1.400 . S
C1255 C1254 1.400 . S
C1255 C1256 1.398 . S
C1255 C1261 1.491 . S
C1256 H1247 0.950 . S
C1256 C1255 1.398 . S
C1256 C1257 1.391 . S
C1257 H1245 0.950 . S
C1257 C1253 1.393 . S
C1257 C1256 1.391 . S
C1258 H1248 0.950 . S
C1258 C1259 1.386 . S
C1258 C1260 1.391 . S
C1259 C1258 1.386 . S
C1259 C1263 1.393 . S
C1260 H1249 0.950 . S
C1260 C1258 1.391 . S
C1260 C1261 1.400 . S
C1261 C1255 1.491 . S
C1261 C1260 1.400 . S
C1261 C1262 1.398 . S
C1262 H1250 0.950 . S
C1262 C1261 1.398 . S
C1262 C1263 1.391 . S
C1263 H1251 0.950 . S
C1263 C1259 1.393 . S
C1263 C1262 1.391 . S
H1264 C1272 0.950 . S
H1265 C1277 0.950 . S
H1266 C1274 0.950 . S
H1267 C1276 0.950 . S
H1268 C1278 0.950 . S
H1269 C1280 0.950 . S
H1270 C1282 0.950 . S
H1271 C1283 0.950 . S
C1272 H1264 0.950 . S
C1272 C1273 1.386 . S
C1272 C1274 1.391 . S
C1273 C1272 1.386 . S
C1273 C1277 1.393 . S
C1274 H1266 0.950 . S
C1274 C1272 1.391 . S
C1274 C1275 1.400 . S
C1275 C1274 1.400 . S
C1275 C1276 1.398 . S
C1275 C1281 1.491 . S
C1276 H1267 0.950 . S
C1276 C1275 1.398 . S
C1276 C1277 1.391 . S
C1277 H1265 0.950 . S
C1277 C1273 1.393 . S
C1277 C1276 1.391 . S
C1278 H1268 0.950 . S
C1278 C1279 1.386 . S
C1278 C1280 1.391 . S
C1279 C1278 1.386 . S
C1279 C1283 1.393 . S
C1280 H1269 0.950 . S
C1280 C1278 1.391 . S
C1280 C1281 1.400 . S
C1281 C1275 1.491 . S
C1281 C1280 1.400 . S
C1281 C1282 1.398 . S
C1282 H1270 0.950 . S
C1282 C1281 1.398 . S
C1282 C1283 1.391 . S
C1283 H1271 0.950 . S
C1283 C1279 1.393 . S
C1283 C1282 1.391 . S
H1284 C1292 0.950 . S
H1285 C1297 0.950 . S
H1286 C1294 0.950 . S
H1287 C1296 0.950 . S
H1288 C1298 0.950 . S
H1289 C1300 0.950 . S
H1290 C1302 0.950 . S
H1291 C1303 0.950 . S
C1292 H1284 0.950 . S
C1292 C1293 1.386 . S
C1292 C1294 1.391 . S
C1293 C1292 1.386 . S
C1293 C1297 1.393 . S
C1294 H1286 0.950 . S
C1294 C1292 1.391 . S
C1294 C1295 1.400 . S
C1295 C1294 1.400 . S
C1295 C1296 1.398 . S
C1295 C1301 1.491 . S
C1296 H1287 0.950 . S
C1296 C1295 1.398 . S
C1296 C1297 1.391 . S
C1297 H1285 0.950 . S
C1297 C1293 1.393 . S
C1297 C1296 1.391 . S
C1298 H1288 0.950 . S
C1298 C1299 1.386 . S
C1298 C1300 1.391 . S
C1299 C1298 1.386 . S
C1299 C1303 1.393 . S
C1300 H1289 0.950 . S
C1300 C1298 1.391 . S
C1300 C1301 1.400 . S
C1301 C1295 1.491 . S
C1301 C1300 1.400 . S
C1301 C1302 1.398 . S
C1302 H1290 0.950 . S
C1302 C1301 1.398 . S
C1302 C1303 1.391 . S
C1303 H1291 0.950 . S
C1303 C1299 1.393 . S
C1303 C1302 1.391 . S
H1304 C1312 0.950 . S
H1305 C1317 0.950 . S
H1306 C1314 0.950 . S
H1307 C1316 0.950 . S
H1308 C1318 0.950 . S
H1309 C1320 0.950 . S
H1310 C1322 0.950 . S
H1311 C1323 0.950 . S
C1312 H1304 0.950 . S
C1312 C1313 1.386 . S
C1312 C1314 1.391 . S
C1313 C1312 1.386 . S
C1313 C1317 1.393 . S
C1314 H1306 0.950 . S
C1314 C1312 1.391 . S
C1314 C1315 1.400 . S
C1315 C1314 1.400 . S
C1315 C1316 1.398 . S
C1315 C1321 1.491 . S
C1316 H1307 0.950 . S
C1316 C1315 1.398 . S
C1316 C1317 1.391 . S
C1317 H1305 0.950 . S
C1317 C1313 1.393 . S
C1317 C1316 1.391 . S
C1318 H1308 0.950 . S
C1318 C1319 1.386 . S
C1318 C1320 1.391 . S
C1319 C1318 1.386 . S
C1319 C1323 1.393 . S
C1320 H1309 0.950 . S
C1320 C1318 1.391 . S
C1320 C1321 1.400 . S
C1321 C1315 1.491 . S
C1321 C1320 1.400 . S
C1321 C1322 1.398 . S
C1322 H1310 0.950 . S
C1322 C1321 1.398 . S
C1322 C1323 1.391 . S
C1323 H1311 0.950 . S
C1323 C1319 1.393 . S
C1323 C1322 1.391 . S
H1324 C1332 0.950 . S
H1325 C1337 0.950 . S
H1326 C1334 0.950 . S
H1327 C1336 0.950 . S
H1328 C1338 0.950 . S
H1329 C1340 0.950 . S
H1330 C1342 0.950 . S
H1331 C1343 0.950 . S
C1332 H1324 0.950 . S
C1332 C1333 1.386 . S
C1332 C1334 1.391 . S
C1333 C1332 1.386 . S
C1333 C1337 1.393 . S
C1334 H1326 0.950 . S
C1334 C1332 1.391 . S
C1334 C1335 1.400 . S
C1335 C1334 1.400 . S
C1335 C1336 1.398 . S
C1335 C1341 1.491 . S
C1336 H1327 0.950 . S
C1336 C1335 1.398 . S
C1336 C1337 1.391 . S
C1337 H1325 0.950 . S
C1337 C1333 1.393 . S
C1337 C1336 1.391 . S
C1338 H1328 0.950 . S
C1338 C1339 1.386 . S
C1338 C1340 1.391 . S
C1339 C1338 1.386 . S
C1339 C1343 1.393 . S
C1340 H1329 0.950 . S
C1340 C1338 1.391 . S
C1340 C1341 1.400 . S
C1341 C1335 1.491 . S
C1341 C1340 1.400 . S
C1341 C1342 1.398 . S
C1342 H1330 0.950 . S
C1342 C1341 1.398 . S
C1342 C1343 1.391 . S
C1343 H1331 0.950 . S
C1343 C1339 1.393 . S
C1343 C1342 1.391 . S
H1344 C1352 0.950 . S
H1345 C1357 0.950 . S
H1346 C1354 0.950 . S
H1347 C1356 0.950 . S
H1348 C1358 0.950 . S
H1349 C1360 0.950 . S
H1350 C1362 0.950 . S
H1351 C1363 0.950 . S
C1352 H1344 0.950 . S
C1352 C1353 1.386 . S
C1352 C1354 1.391 . S
C1353 C1352 1.386 . S
C1353 C1357 1.393 . S
C1354 H1346 0.950 . S
C1354 C1352 1.391 . S
C1354 C1355 1.400 . S
C1355 C1354 1.400 . S
C1355 C1356 1.398 . S
C1355 C1361 1.491 . S
C1356 H1347 0.950 . S
C1356 C1355 1.398 . S
C1356 C1357 1.391 . S
C1357 H1345 0.950 . S
C1357 C1353 1.393 . S
C1357 C1356 1.391 . S
C1358 H1348 0.950 . S
C1358 C1359 1.386 . S
C1358 C1360 1.391 . S
C1359 C1358 1.386 . S
C1359 C1363 1.393 . S
C1360 H1349 0.950 . S
C1360 C1358 1.391 . S
C1360 C1361 1.400 . S
C1361 C1355 1.491 . S
C1361 C1360 1.400 . S
C1361 C1362 1.398 . S
C1362 H1350 0.950 . S
C1362 C1361 1.398 . S
C1362 C1363 1.391 . S
C1363 H1351 0.950 . S
C1363 C1359 1.393 . S
C1363 C1362 1.391 . S
H1364 C1372 0.950 . S
H1365 C1377 0.950 . S
H1366 C1374 0.950 . S
H1367 C1376 0.950 . S
H1368 C1378 0.950 . S
H1369 C1380 0.950 . S
H1370 C1382 0.950 . S
H1371 C1383 0.950 . S
C1372 H1364 0.950 . S
C1372 C1373 1.386 . S
C1372 C1374 1.391 . S
C1373 C1372 1.386 . S
C1373 C1377 1.393 . S
C1374 H1366 0.950 . S
C1374 C1372 1.391 . S
C1374 C1375 1.400 . S
C1375 C1374 1.400 . S
C1375 C1376 1.398 . S
C1375 C1381 1.491 . S
C1376 H1367 0.950 . S
C1376 C1375 1.398 . S
C1376 C1377 1.391 . S
C1377 H1365 0.950 . S
C1377 C1373 1.393 . S
C1377 C1376 1.391 . S
C1378 H1368 0.950 . S
C1378 C1379 1.386 . S
C1378 C1380 1.391 . S
C1379 C1378 1.386 . S
C1379 C1383 1.393 . S
C1380 H1369 0.950 . S
C1380 C1378 1.391 . S
C1380 C1381 1.400 . S
C1381 C1375 1.491 . S
C1381 C1380 1.400 . S
C1381 C1382 1.398 . S
C1382 H1370 0.950 . S
C1382 C1381 1.398 . S
C1382 C1383 1.391 . S
C1383 H1371 0.950 . S
C1383 C1379 1.393 . S
C1383 C1382 1.391 . S
H1384 C1392 0.950 . S
H1385 C1397 0.950 . S
H1386 C1394 0.950 . S
H1387 C1396 0.950 . S
H1388 C1398 0.950 . S
H1389 C1400 0.950 . S
H1390 C1402 0.950 . S
H1391 C1403 0.950 . S
C1392 H1384 0.950 . S
C1392 C1393 1.386 . S
C1392 C1394 1.391 . S
C1393 C1392 1.386 . S
C1393 C1397 1.393 . S
C1394 H1386 0.950 . S
C1394 C1392 1.391 . S
C1394 C1395 1.400 . S
C1395 C1394 1.400 . S
C1395 C1396 1.398 . S
C1395 C1401 1.491 . S
C1396 H1387 0.950 . S
C1396 C1395 1.398 . S
C1396 C1397 1.391 . S
C1397 H1385 0.950 . S
C1397 C1393 1.393 . S
C1397 C1396 1.391 . S
C1398 H1388 0.950 . S
C1398 C1399 1.386 . S
C1398 C1400 1.391 . S
C1399 C1398 1.386 . S
C1399 C1403 1.393 . S
C1400 H1389 0.950 . S
C1400 C1398 1.391 . S
C1400 C1401 1.400 . S
C1401 C1395 1.491 . S
C1401 C1400 1.400 . S
C1401 C1402 1.398 . S
C1402 H1390 0.950 . S
C1402 C1401 1.398 . S
C1402 C1403 1.391 . S
C1403 H1391 0.950 . S
C1403 C1399 1.393 . S
C1403 C1402 1.391 . S
H1404 C1412 0.950 . S
H1405 C1417 0.950 . S
H1406 C1414 0.950 . S
H1407 C1416 0.950 . S
H1408 C1418 0.950 . S
H1409 C1420 0.950 . S
H1410 C1422 0.950 . S
H1411 C1423 0.950 . S
C1412 H1404 0.950 . S
C1412 C1413 1.386 . S
C1412 C1414 1.391 . S
C1413 C1412 1.386 . S
C1413 C1417 1.393 . S
C1414 H1406 0.950 . S
C1414 C1412 1.391 . S
C1414 C1415 1.400 . S
C1415 C1414 1.400 . S
C1415 C1416 1.398 . S
C1415 C1421 1.491 . S
C1416 H1407 0.950 . S
C1416 C1415 1.398 . S
C1416 C1417 1.391 . S
C1417 H1405 0.950 . S
C1417 C1413 1.393 . S
C1417 C1416 1.391 . S
C1418 H1408 0.950 . S
C1418 C1419 1.386 . S
C1418 C1420 1.391 . S
C1419 C1418 1.386 . S
C1419 C1423 1.393 . S
C1420 H1409 0.950 . S
C1420 C1418 1.391 . S
C1420 C1421 1.400 . S
C1421 C1415 1.491 . S
C1421 C1420 1.400 . S
C1421 C1422 1.398 . S
C1422 H1410 0.950 . S
C1422 C1421 1.398 . S
C1422 C1423 1.391 . S
C1423 H1411 0.950 . S
C1423 C1419 1.393 . S
C1423 C1422 1.391 . S
H1424 C1432 0.950 . S
H1425 C1437 0.950 . S
H1426 C1434 0.950 . S
H1427 C1436 0.950 . S
H1428 C1438 0.950 . S
H1429 C1440 0.950 . S
H1430 C1442 0.950 . S
H1431 C1443 0.950 . S
C1432 H1424 0.950 . S
C1432 C1433 1.386 . S
C1432 C1434 1.391 . S
C1433 C1432 1.386 . S
C1433 C1437 1.393 . S
C1434 H1426 0.950 . S
C1434 C1432 1.391 . S
C1434 C1435 1.400 . S
C1435 C1434 1.400 . S
C1435 C1436 1.398 . S
C1435 C1441 1.491 . S
C1436 H1427 0.950 . S
C1436 C1435 1.398 . S
C1436 C1437 1.391 . S
C1437 H1425 0.950 . S
C1437 C1433 1.393 . S
C1437 C1436 1.391 . S
C1438 H1428 0.950 . S
C1438 C1439 1.386 . S
C1438 C1440 1.391 . S
C1439 C1438 1.386 . S
C1439 C1443 1.393 . S
C1440 H1429 0.950 . S
C1440 C1438 1.391 . S
C1440 C1441 1.400 . S
C1441 C1435 1.491 . S
C1441 C1440 1.400 . S
C1441 C1442 1.398 . S
C1442 H1430 0.950 . S
C1442 C1441 1.398 . S
C1442 C1443 1.391 . S
C1443 H1431 0.950 . S
C1443 C1439 1.393 . S
C1443 C1442 1.391 . S
H1444 C1452 0.950 . S
H1445 C1457 0.950 . S
H1446 C1454 0.950 . S
H1447 C1456 0.950 . S
H1448 C1458 0.950 . S
H1449 C1460 0.950 . S
H1450 C1462 0.950 . S
H1451 C1463 0.950 . S
C1452 H1444 0.950 . S
C1452 C1453 1.386 . S
C1452 C1454 1.391 . S
C1453 C1452 1.386 . S
C1453 C1457 1.393 . S
C1454 H1446 0.950 . S
C1454 C1452 1.391 . S
C1454 C1455 1.400 . S
C1455 C1454 1.400 . S
C1455 C1456 1.398 . S
C1455 C1461 1.491 . S
C1456 H1447 0.950 . S
C1456 C1455 1.398 . S
C1456 C1457 1.391 . S
C1457 H1445 0.950 . S
C1457 C1453 1.393 . S
C1457 C1456 1.391 . S
C1458 H1448 0.950 . S
C1458 C1459 1.386 . S
C1458 C1460 1.391 . S
C1459 C1458 1.386 . S
C1459 C1463 1.393 . S
C1460 H1449 0.950 . S
C1460 C1458 1.391 . S
C1460 C1461 1.400 . S
C1461 C1455 1.491 . S
C1461 C1460 1.400 . S
C1461 C1462 1.398 . S
C1462 H1450 0.950 . S
C1462 C1461 1.398 . S
C1462 C1463 1.391 . S
C1463 H1451 0.950 . S
C1463 C1459 1.393 . S
C1463 C1462 1.391 . S
H1464 C1472 0.950 . S
H1465 C1477 0.950 . S
H1466 C1474 0.950 . S
H1467 C1476 0.950 . S
H1468 C1478 0.950 . S
H1469 C1480 0.950 . S
H1470 C1482 0.950 . S
H1471 C1483 0.950 . S
C1472 H1464 0.950 . S
C1472 C1473 1.386 . S
C1472 C1474 1.391 . S
C1473 C1472 1.386 . S
C1473 C1477 1.393 . S
C1474 H1466 0.950 . S
C1474 C1472 1.391 . S
C1474 C1475 1.400 . S
C1475 C1474 1.400 . S
C1475 C1476 1.398 . S
C1475 C1481 1.491 1_455 S
C1476 H1467 0.950 . S
C1476 C1475 1.398 . S
C1476 C1477 1.391 . S
C1477 H1465 0.950 . S
C1477 C1473 1.393 . S
C1477 C1476 1.391 . S
C1478 H1468 0.950 . S
C1478 C1479 1.386 . S
C1478 C1480 1.391 . S
C1479 C1478 1.386 . S
C1479 C1483 1.393 . S
C1480 H1469 0.950 . S
C1480 C1478 1.391 . S
C1480 C1481 1.400 . S
C1481 C1475 1.491 1_655 S
C1481 C1480 1.400 . S
C1481 C1482 1.398 . S
C1482 H1470 0.950 . S
C1482 C1481 1.398 . S
C1482 C1483 1.391 . S
C1483 H1471 0.950 . S
C1483 C1479 1.393 . S
C1483 C1482 1.391 . S
H1484 C1492 0.950 . S
H1485 C1497 0.950 . S
H1486 C1494 0.950 . S
H1487 C1496 0.950 . S
H1488 C1498 0.950 . S
H1489 C1500 0.950 . S
H1490 C1502 0.950 . S
H1491 C1503 0.950 . S
C1492 H1484 0.950 . S
C1492 C1493 1.386 . S
C1492 C1494 1.391 . S
C1493 C1492 1.386 . S
C1493 C1497 1.393 . S
C1494 H1486 0.950 . S
C1494 C1492 1.391 . S
C1494 C1495 1.400 . S
C1495 C1494 1.400 . S
C1495 C1496 1.398 . S
C1495 C1501 1.491 . S
C1496 H1487 0.950 . S
C1496 C1495 1.398 . S
C1496 C1497 1.391 . S
C1497 H1485 0.950 . S
C1497 C1493 1.393 . S
C1497 C1496 1.391 . S
C1498 H1488 0.950 . S
C1498 C1499 1.386 . S
C1498 C1500 1.391 . S
C1499 C1498 1.386 . S
C1499 C1503 1.393 . S
C1500 H1489 0.950 . S
C1500 C1498 1.391 . S
C1500 C1501 1.400 . S
C1501 C1495 1.491 . S
C1501 C1500 1.400 . S
C1501 C1502 1.398 . S
C1502 H1490 0.950 . S
C1502 C1501 1.398 . S
C1502 C1503 1.391 . S
C1503 H1491 0.950 . S
C1503 C1499 1.393 . S
C1503 C1502 1.391 . S
H1504 C1512 0.950 . S
H1505 C1517 0.950 . S
H1506 C1514 0.950 . S
H1507 C1516 0.950 . S
H1508 C1518 0.950 . S
H1509 C1520 0.950 . S
H1510 C1522 0.950 . S
H1511 C1523 0.950 . S
C1512 H1504 0.950 . S
C1512 C1513 1.386 . S
C1512 C1514 1.391 . S
C1513 C1512 1.386 . S
C1513 C1517 1.393 . S
C1514 H1506 0.950 . S
C1514 C1512 1.391 . S
C1514 C1515 1.400 . S
C1515 C1514 1.400 . S
C1515 C1516 1.398 . S
C1515 C1521 1.491 1_545 S
C1516 H1507 0.950 . S
C1516 C1515 1.398 . S
C1516 C1517 1.391 . S
C1517 H1505 0.950 . S
C1517 C1513 1.393 . S
C1517 C1516 1.391 . S
C1518 H1508 0.950 . S
C1518 C1519 1.386 . S
C1518 C1520 1.391 . S
C1519 C1518 1.386 . S
C1519 C1523 1.393 . S
C1520 H1509 0.950 . S
C1520 C1518 1.391 . S
C1520 C1521 1.400 . S
C1521 C1515 1.491 1_565 S
C1521 C1520 1.400 . S
C1521 C1522 1.398 . S
C1522 H1510 0.950 . S
C1522 C1521 1.398 . S
C1522 C1523 1.391 . S
C1523 H1511 0.950 . S
C1523 C1519 1.393 . S
C1523 C1522 1.391 . S
H1524 C1532 0.950 . S
H1525 C1537 0.950 . S
H1526 C1534 0.950 . S
H1527 C1536 0.950 . S
H1528 C1538 0.950 . S
H1529 C1540 0.950 . S
H1530 C1542 0.950 . S
H1531 C1543 0.950 . S
C1532 H1524 0.950 . S
C1532 C1533 1.386 . S
C1532 C1534 1.391 . S
C1533 C1532 1.386 . S
C1533 C1537 1.393 . S
C1534 H1526 0.950 . S
C1534 C1532 1.391 . S
C1534 C1535 1.400 . S
C1535 C1534 1.400 . S
C1535 C1536 1.398 . S
C1535 C1541 1.491 1_545 S
C1536 H1527 0.950 . S
C1536 C1535 1.398 . S
C1536 C1537 1.391 . S
C1537 H1525 0.950 . S
C1537 C1533 1.393 . S
C1537 C1536 1.391 . S
C1538 H1528 0.950 . S
C1538 C1539 1.386 . S
C1538 C1540 1.391 . S
C1539 C1538 1.386 . S
C1539 C1543 1.393 . S
C1540 H1529 0.950 . S
C1540 C1538 1.391 . S
C1540 C1541 1.400 . S
C1541 C1535 1.491 1_565 S
C1541 C1540 1.400 . S
C1541 C1542 1.398 . S
C1542 H1530 0.950 . S
C1542 C1541 1.398 . S
C1542 C1543 1.391 . S
C1543 H1531 0.950 . S
C1543 C1539 1.393 . S
C1543 C1542 1.391 . S
H1544 C1552 0.950 . S
H1545 C1557 0.950 . S
H1546 C1554 0.950 . S
H1547 C1556 0.950 . S
H1548 C1558 0.950 . S
H1549 C1560 0.950 . S
H1550 C1562 0.950 . S
H1551 C1563 0.950 . S
C1552 H1544 0.950 . S
C1552 C1553 1.386 . S
C1552 C1554 1.391 . S
C1553 C1552 1.386 . S
C1553 C1557 1.393 . S
C1554 H1546 0.950 . S
C1554 C1552 1.391 . S
C1554 C1555 1.400 . S
C1555 C1554 1.400 . S
C1555 C1556 1.398 . S
C1555 C1561 1.491 1_655 S
C1556 H1547 0.950 . S
C1556 C1555 1.398 . S
C1556 C1557 1.391 . S
C1557 H1545 0.950 . S
C1557 C1553 1.393 . S
C1557 C1556 1.391 . S
C1558 H1548 0.950 . S
C1558 C1559 1.386 . S
C1558 C1560 1.391 . S
C1559 C1558 1.386 . S
C1559 C1563 1.393 . S
C1560 H1549 0.950 . S
C1560 C1558 1.391 . S
C1560 C1561 1.400 . S
C1561 C1555 1.491 1_455 S
C1561 C1560 1.400 . S
C1561 C1562 1.398 . S
C1562 H1550 0.950 . S
C1562 C1561 1.398 . S
C1562 C1563 1.391 . S
C1563 H1551 0.950 . S
C1563 C1559 1.393 . S
C1563 C1562 1.391 . S
H1564 C1572 0.950 . S
H1565 C1577 0.950 . S
H1566 C1574 0.950 . S
H1567 C1576 0.950 . S
H1568 C1578 0.950 . S
H1569 C1580 0.950 . S
H1570 C1582 0.950 . S
H1571 C1583 0.950 . S
C1572 H1564 0.950 . S
C1572 C1573 1.386 . S
C1572 C1574 1.391 . S
C1573 C1572 1.386 . S
C1573 C1577 1.393 . S
C1574 H1566 0.950 . S
C1574 C1572 1.391 . S
C1574 C1575 1.400 . S
C1575 C1574 1.400 . S
C1575 C1576 1.398 . S
C1575 C1581 1.491 . S
C1576 H1567 0.950 . S
C1576 C1575 1.398 . S
C1576 C1577 1.391 . S
C1577 H1565 0.950 . S
C1577 C1573 1.393 . S
C1577 C1576 1.391 . S
C1578 H1568 0.950 . S
C1578 C1579 1.386 . S
C1578 C1580 1.391 . S
C1579 C1578 1.386 . S
C1579 C1583 1.393 . S
C1580 H1569 0.950 . S
C1580 C1578 1.391 . S
C1580 C1581 1.400 . S
C1581 C1575 1.491 . S
C1581 C1580 1.400 . S
C1581 C1582 1.398 . S
C1582 H1570 0.950 . S
C1582 C1581 1.398 . S
C1582 C1583 1.391 . S
C1583 H1571 0.950 . S
C1583 C1579 1.393 . S
C1583 C1582 1.391 . S
H1584 C1592 0.950 . S
H1585 C1597 0.950 . S
H1586 C1594 0.950 . S
H1587 C1596 0.950 . S
H1588 C1598 0.950 . S
H1589 C1600 0.950 . S
H1590 C1602 0.950 . S
H1591 C1603 0.950 . S
C1592 H1584 0.950 . S
C1592 C1593 1.386 . S
C1592 C1594 1.391 . S
C1593 C1592 1.386 . S
C1593 C1597 1.393 . S
C1594 H1586 0.950 . S
C1594 C1592 1.391 . S
C1594 C1595 1.400 . S
C1595 C1594 1.400 . S
C1595 C1596 1.398 . S
C1595 C1601 1.491 . S
C1596 H1587 0.950 . S
C1596 C1595 1.398 . S
C1596 C1597 1.391 . S
C1597 H1585 0.950 . S
C1597 C1593 1.393 . S
C1597 C1596 1.391 . S
C1598 H1588 0.950 . S
C1598 C1599 1.386 . S
C1598 C1600 1.391 . S
C1599 C1598 1.386 . S
C1599 C1603 1.393 . S
C1600 H1589 0.950 . S
C1600 C1598 1.391 . S
C1600 C1601 1.400 . S
C1601 C1595 1.491 . S
C1601 C1600 1.400 . S
C1601 C1602 1.398 . S
C1602 H1590 0.950 . S
C1602 C1601 1.398 . S
C1602 C1603 1.391 . S
C1603 H1591 0.950 . S
C1603 C1599 1.393 . S
C1603 C1602 1.391 . S
H1604 C1612 0.950 . S
H1605 C1617 0.950 . S
H1606 C1614 0.950 . S
H1607 C1616 0.950 . S
H1608 C1618 0.950 . S
H1609 C1620 0.950 . S
H1610 C1622 0.950 . S
H1611 C1623 0.950 . S
C1612 H1604 0.950 . S
C1612 C1613 1.386 . S
C1612 C1614 1.391 . S
C1613 C1612 1.386 . S
C1613 C1617 1.393 . S
C1614 H1606 0.950 . S
C1614 C1612 1.391 . S
C1614 C1615 1.400 . S
C1615 C1614 1.400 . S
C1615 C1616 1.398 . S
C1615 C1621 1.491 . S
C1616 H1607 0.950 . S
C1616 C1615 1.398 . S
C1616 C1617 1.391 . S
C1617 H1605 0.950 . S
C1617 C1613 1.393 . S
C1617 C1616 1.391 . S
C1618 H1608 0.950 . S
C1618 C1619 1.386 . S
C1618 C1620 1.391 . S
C1619 C1618 1.386 . S
C1619 C1623 1.393 . S
C1620 H1609 0.950 . S
C1620 C1618 1.391 . S
C1620 C1621 1.400 . S
C1621 C1615 1.491 . S
C1621 C1620 1.400 . S
C1621 C1622 1.398 . S
C1622 H1610 0.950 . S
C1622 C1621 1.398 . S
C1622 C1623 1.391 . S
C1623 H1611 0.950 . S
C1623 C1619 1.393 . S
C1623 C1622 1.391 . S
H1624 C1632 0.950 . S
H1625 C1637 0.950 . S
H1626 C1634 0.950 . S
H1627 C1636 0.950 . S
H1628 C1638 0.950 . S
H1629 C1640 0.950 . S
H1630 C1642 0.950 . S
H1631 C1643 0.950 . S
C1632 H1624 0.950 . S
C1632 C1633 1.386 . S
C1632 C1634 1.391 . S
C1633 C1632 1.386 . S
C1633 C1637 1.393 . S
C1634 H1626 0.950 . S
C1634 C1632 1.391 . S
C1634 C1635 1.400 . S
C1635 C1634 1.400 . S
C1635 C1636 1.398 . S
C1635 C1641 1.491 . S
C1636 H1627 0.950 . S
C1636 C1635 1.398 . S
C1636 C1637 1.391 . S
C1637 H1625 0.950 . S
C1637 C1633 1.393 . S
C1637 C1636 1.391 . S
C1638 H1628 0.950 . S
C1638 C1639 1.386 . S
C1638 C1640 1.391 . S
C1639 C1638 1.386 . S
C1639 C1643 1.393 . S
C1640 H1629 0.950 . S
C1640 C1638 1.391 . S
C1640 C1641 1.400 . S
C1641 C1635 1.491 . S
C1641 C1640 1.400 . S
C1641 C1642 1.398 . S
C1642 H1630 0.950 . S
C1642 C1641 1.398 . S
C1642 C1643 1.391 . S
C1643 H1631 0.950 . S
C1643 C1639 1.393 . S
C1643 C1642 1.391 . S
H1644 C1652 0.950 . S
H1645 C1657 0.950 . S
H1646 C1654 0.950 . S
H1647 C1656 0.950 . S
H1648 C1658 0.950 . S
H1649 C1660 0.950 . S
H1650 C1662 0.950 . S
H1651 C1663 0.950 . S
C1652 H1644 0.950 . S
C1652 C1653 1.386 . S
C1652 C1654 1.391 . S
C1653 C1652 1.386 . S
C1653 C1657 1.393 . S
C1654 H1646 0.950 . S
C1654 C1652 1.391 . S
C1654 C1655 1.400 . S
C1655 C1654 1.400 . S
C1655 C1656 1.398 . S
C1655 C1661 1.491 . S
C1656 H1647 0.950 . S
C1656 C1655 1.398 . S
C1656 C1657 1.391 . S
C1657 H1645 0.950 . S
C1657 C1653 1.393 . S
C1657 C1656 1.391 . S
C1658 H1648 0.950 . S
C1658 C1659 1.386 . S
C1658 C1660 1.391 . S
C1659 C1658 1.386 . S
C1659 C1663 1.393 . S
C1660 H1649 0.950 . S
C1660 C1658 1.391 . S
C1660 C1661 1.400 . S
C1661 C1655 1.491 . S
C1661 C1660 1.400 . S
C1661 C1662 1.398 . S
C1662 H1650 0.950 . S
C1662 C1661 1.398 . S
C1662 C1663 1.391 . S
C1663 H1651 0.950 . S
C1663 C1659 1.393 . S
C1663 C1662 1.391 . S
H1664 C1672 0.950 . S
H1665 C1677 0.950 . S
H1666 C1674 0.950 . S
H1667 C1676 0.950 . S
H1668 C1678 0.950 . S
H1669 C1680 0.950 . S
H1670 C1682 0.950 . S
H1671 C1683 0.950 . S
C1672 H1664 0.950 . S
C1672 C1673 1.386 . S
C1672 C1674 1.391 . S
C1673 C1672 1.386 . S
C1673 C1677 1.393 . S
C1674 H1666 0.950 . S
C1674 C1672 1.391 . S
C1674 C1675 1.400 . S
C1675 C1674 1.400 . S
C1675 C1676 1.398 . S
C1675 C1681 1.491 . S
C1676 H1667 0.950 . S
C1676 C1675 1.398 . S
C1676 C1677 1.391 . S
C1677 H1665 0.950 . S
C1677 C1673 1.393 . S
C1677 C1676 1.391 . S
C1678 H1668 0.950 . S
C1678 C1679 1.386 . S
C1678 C1680 1.391 . S
C1679 C1678 1.386 . S
C1679 C1683 1.393 . S
C1680 H1669 0.950 . S
C1680 C1678 1.391 . S
C1680 C1681 1.400 . S
C1681 C1675 1.491 . S
C1681 C1680 1.400 . S
C1681 C1682 1.398 . S
C1682 H1670 0.950 . S
C1682 C1681 1.398 . S
C1682 C1683 1.391 . S
C1683 H1671 0.950 . S
C1683 C1679 1.393 . S
C1683 C1682 1.391 . S
H1684 C1692 0.950 . S
H1685 C1697 0.950 . S
H1686 C1694 0.950 . S
H1687 C1696 0.950 . S
H1688 C1698 0.950 . S
H1689 C1700 0.950 . S
H1690 C1702 0.950 . S
H1691 C1703 0.950 . S
C1692 H1684 0.950 . S
C1692 C1693 1.386 . S
C1692 C1694 1.391 . S
C1693 C1692 1.386 . S
C1693 C1697 1.393 . S
C1694 H1686 0.950 . S
C1694 C1692 1.391 . S
C1694 C1695 1.400 . S
C1695 C1694 1.400 . S
C1695 C1696 1.398 . S
C1695 C1701 1.491 . S
C1696 H1687 0.950 . S
C1696 C1695 1.398 . S
C1696 C1697 1.391 . S
C1697 H1685 0.950 . S
C1697 C1693 1.393 . S
C1697 C1696 1.391 . S
C1698 H1688 0.950 . S
C1698 C1699 1.386 . S
C1698 C1700 1.391 . S
C1699 C1698 1.386 . S
C1699 C1703 1.393 . S
C1700 H1689 0.950 . S
C1700 C1698 1.391 . S
C1700 C1701 1.400 . S
C1701 C1695 1.491 . S
C1701 C1700 1.400 . S
C1701 C1702 1.398 . S
C1702 H1690 0.950 . S
C1702 C1701 1.398 . S
C1702 C1703 1.391 . S
C1703 H1691 0.950 . S
C1703 C1699 1.393 . S
C1703 C1702 1.391 . S
H1704 C1712 0.950 . S
H1705 C1717 0.950 . S
H1706 C1714 0.950 . S
H1707 C1716 0.950 . S
H1708 C1718 0.950 . S
H1709 C1720 0.950 . S
H1710 C1722 0.950 . S
H1711 C1723 0.950 . S
C1712 H1704 0.950 . S
C1712 C1713 1.386 . S
C1712 C1714 1.391 . S
C1713 C1712 1.386 . S
C1713 C1717 1.393 . S
C1714 H1706 0.950 . S
C1714 C1712 1.391 . S
C1714 C1715 1.400 . S
C1715 C1714 1.400 . S
C1715 C1716 1.398 . S
C1715 C1721 1.491 . S
C1716 H1707 0.950 . S
C1716 C1715 1.398 . S
C1716 C1717 1.391 . S
C1717 H1705 0.950 . S
C1717 C1713 1.393 . S
C1717 C1716 1.391 . S
C1718 H1708 0.950 . S
C1718 C1719 1.386 . S
C1718 C1720 1.391 . S
C1719 C1718 1.386 . S
C1719 C1723 1.393 . S
C1720 H1709 0.950 . S
C1720 C1718 1.391 . S
C1720 C1721 1.400 . S
C1721 C1715 1.491 . S
C1721 C1720 1.400 . S
C1721 C1722 1.398 . S
C1722 H1710 0.950 . S
C1722 C1721 1.398 . S
C1722 C1723 1.391 . S
C1723 H1711 0.950 . S
C1723 C1719 1.393 . S
C1723 C1722 1.391 . S
H1724 C1732 0.950 . S
H1725 C1737 0.950 . S
H1726 C1734 0.950 . S
H1727 C1736 0.950 . S
H1728 C1738 0.950 . S
H1729 C1740 0.950 . S
H1730 C1742 0.950 . S
H1731 C1743 0.950 . S
C1732 H1724 0.950 . S
C1732 C1733 1.386 . S
C1732 C1734 1.391 . S
C1733 C1732 1.386 . S
C1733 C1737 1.393 . S
C1734 H1726 0.950 . S
C1734 C1732 1.391 . S
C1734 C1735 1.400 . S
C1735 C1734 1.400 . S
C1735 C1736 1.398 . S
C1735 C1741 1.491 . S
C1736 H1727 0.950 . S
C1736 C1735 1.398 . S
C1736 C1737 1.391 . S
C1737 H1725 0.950 . S
C1737 C1733 1.393 . S
C1737 C1736 1.391 . S
C1738 H1728 0.950 . S
C1738 C1739 1.386 . S
C1738 C1740 1.391 . S
C1739 C1738 1.386 . S
C1739 C1743 1.393 . S
C1740 H1729 0.950 . S
C1740 C1738 1.391 . S
C1740 C1741 1.400 . S
C1741 C1735 1.491 . S
C1741 C1740 1.400 . S
C1741 C1742 1.398 . S
C1742 H1730 0.950 . S
C1742 C1741 1.398 . S
C1742 C1743 1.391 . S
C1743 H1731 0.950 . S
C1743 C1739 1.393 . S
C1743 C1742 1.391 . S
H1744 C1752 0.950 . S
H1745 C1757 0.950 . S
H1746 C1754 0.950 . S
H1747 C1756 0.950 . S
H1748 C1758 0.950 . S
H1749 C1760 0.950 . S
H1750 C1762 0.950 . S
H1751 C1763 0.950 . S
C1752 H1744 0.950 . S
C1752 C1753 1.386 . S
C1752 C1754 1.391 . S
C1753 C1752 1.386 . S
C1753 C1757 1.393 . S
C1754 H1746 0.950 . S
C1754 C1752 1.391 . S
C1754 C1755 1.400 . S
C1755 C1754 1.400 . S
C1755 C1756 1.398 . S
C1755 C1761 1.491 . S
C1756 H1747 0.950 . S
C1756 C1755 1.398 . S
C1756 C1757 1.391 . S
C1757 H1745 0.950 . S
C1757 C1753 1.393 . S
C1757 C1756 1.391 . S
C1758 H1748 0.950 . S
C1758 C1759 1.386 . S
C1758 C1760 1.391 . S
C1759 C1758 1.386 . S
C1759 C1763 1.393 . S
C1760 H1749 0.950 . S
C1760 C1758 1.391 . S
C1760 C1761 1.400 . S
C1761 C1755 1.491 . S
C1761 C1760 1.400 . S
C1761 C1762 1.398 . S
C1762 H1750 0.950 . S
C1762 C1761 1.398 . S
C1762 C1763 1.391 . S
C1763 H1751 0.950 . S
C1763 C1759 1.393 . S
C1763 C1762 1.391 . S
H1764 C1772 0.950 . S
H1765 C1777 0.950 . S
H1766 C1774 0.950 . S
H1767 C1776 0.950 . S
H1768 C1778 0.950 . S
H1769 C1780 0.950 . S
H1770 C1782 0.950 . S
H1771 C1783 0.950 . S
C1772 H1764 0.950 . S
C1772 C1773 1.386 . S
C1772 C1774 1.391 . S
C1773 C1772 1.386 . S
C1773 C1777 1.393 . S
C1774 H1766 0.950 . S
C1774 C1772 1.391 . S
C1774 C1775 1.400 . S
C1775 C1774 1.400 . S
C1775 C1776 1.398 . S
C1775 C1781 1.491 . S
C1776 H1767 0.950 . S
C1776 C1775 1.398 . S
C1776 C1777 1.391 . S
C1777 H1765 0.950 . S
C1777 C1773 1.393 . S
C1777 C1776 1.391 . S
C1778 H1768 0.950 . S
C1778 C1779 1.386 . S
C1778 C1780 1.391 . S
C1779 C1778 1.386 . S
C1779 C1783 1.393 . S
C1780 H1769 0.950 . S
C1780 C1778 1.391 . S
C1780 C1781 1.400 . S
C1781 C1775 1.491 . S
C1781 C1780 1.400 . S
C1781 C1782 1.398 . S
C1782 H1770 0.950 . S
C1782 C1781 1.398 . S
C1782 C1783 1.391 . S
C1783 H1771 0.950 . S
C1783 C1779 1.393 . S
C1783 C1782 1.391 . S
H1784 C1792 0.950 . S
H1785 C1797 0.950 . S
H1786 C1794 0.950 . S
H1787 C1796 0.950 . S
H1788 C1798 0.950 . S
H1789 C1800 0.950 . S
H1790 C1802 0.950 . S
H1791 C1803 0.950 . S
C1792 H1784 0.950 . S
C1792 C1793 1.386 . S
C1792 C1794 1.391 . S
C1793 C1792 1.386 . S
C1793 C1797 1.393 . S
C1794 H1786 0.950 . S
C1794 C1792 1.391 . S
C1794 C1795 1.400 . S
C1795 C1794 1.400 . S
C1795 C1796 1.398 . S
C1795 C1801 1.491 . S
C1796 H1787 0.950 . S
C1796 C1795 1.398 . S
C1796 C1797 1.391 . S
C1797 H1785 0.950 . S
C1797 C1793 1.393 . S
C1797 C1796 1.391 . S
C1798 H1788 0.950 . S
C1798 C1799 1.386 . S
C1798 C1800 1.391 . S
C1799 C1798 1.386 . S
C1799 C1803 1.393 . S
C1800 H1789 0.950 . S
C1800 C1798 1.391 . S
C1800 C1801 1.400 . S
C1801 C1795 1.491 . S
C1801 C1800 1.400 . S
C1801 C1802 1.398 . S
C1802 H1790 0.950 . S
C1802 C1801 1.398 . S
C1802 C1803 1.391 . S
C1803 H1791 0.950 . S
C1803 C1799 1.393 . S
C1803 C1802 1.391 . S
H1804 C1812 0.950 . S
H1805 C1817 0.950 . S
H1806 C1814 0.950 . S
H1807 C1816 0.950 . S
H1808 C1818 0.950 . S
H1809 C1820 0.950 . S
H1810 C1822 0.950 . S
H1811 C1823 0.950 . S
C1812 H1804 0.950 . S
C1812 C1813 1.386 . S
C1812 C1814 1.391 . S
C1813 C1812 1.386 . S
C1813 C1817 1.393 . S
C1814 H1806 0.950 . S
C1814 C1812 1.391 . S
C1814 C1815 1.400 . S
C1815 C1814 1.400 . S
C1815 C1816 1.398 . S
C1815 C1821 1.491 . S
C1816 H1807 0.950 . S
C1816 C1815 1.398 . S
C1816 C1817 1.391 . S
C1817 H1805 0.950 . S
C1817 C1813 1.393 . S
C1817 C1816 1.391 . S
C1818 H1808 0.950 . S
C1818 C1819 1.386 . S
C1818 C1820 1.391 . S
C1819 C1818 1.386 . S
C1819 C1823 1.393 . S
C1820 H1809 0.950 . S
C1820 C1818 1.391 . S
C1820 C1821 1.400 . S
C1821 C1815 1.491 . S
C1821 C1820 1.400 . S
C1821 C1822 1.398 . S
C1822 H1810 0.950 . S
C1822 C1821 1.398 . S
C1822 C1823 1.391 . S
C1823 H1811 0.950 . S
C1823 C1819 1.393 . S
C1823 C1822 1.391 . S
H1824 C1832 0.950 1_554 S
H1825 C1837 0.950 . S
H1826 C1834 0.950 1_554 S
H1827 C1836 0.950 . S
H1828 C1838 0.950 . S
H1829 C1840 0.950 . S
H1830 C1842 0.950 1_554 S
H1831 C1843 0.950 1_554 S
C1832 H1824 0.950 1_556 S
C1832 C1833 1.386 . S
C1832 C1834 1.391 . S
C1833 C1832 1.386 . S
C1833 C1837 1.393 . S
C1834 H1826 0.950 1_556 S
C1834 C1832 1.391 . S
C1834 C1835 1.400 . S
C1835 C1834 1.400 . S
C1835 C1836 1.398 . S
C1835 C1841 1.491 . S
C1836 H1827 0.950 . S
C1836 C1835 1.398 . S
C1836 C1837 1.391 . S
C1837 H1825 0.950 . S
C1837 C1833 1.393 . S
C1837 C1836 1.391 . S
C1838 H1828 0.950 . S
C1838 C1839 1.386 . S
C1838 C1840 1.391 . S
C1839 C1838 1.386 . S
C1839 C1843 1.393 . S
C1840 H1829 0.950 . S
C1840 C1838 1.391 . S
C1840 C1841 1.400 . S
C1841 C1835 1.491 . S
C1841 C1840 1.400 . S
C1841 C1842 1.398 . S
C1842 H1830 0.950 1_556 S
C1842 C1841 1.398 . S
C1842 C1843 1.391 . S
C1843 H1831 0.950 1_556 S
C1843 C1839 1.393 . S
C1843 C1842 1.391 . S
H1844 C1852 0.950 . S
H1845 C1857 0.950 . S
H1846 C1854 0.950 . S
H1847 C1856 0.950 . S
H1848 C1858 0.950 . S
H1849 C1860 0.950 . S
H1850 C1862 0.950 . S
H1851 C1863 0.950 . S
C1852 H1844 0.950 . S
C1852 C1853 1.386 . S
C1852 C1854 1.391 . S
C1853 C1852 1.386 . S
C1853 C1857 1.393 . S
C1854 H1846 0.950 . S
C1854 C1852 1.391 . S
C1854 C1855 1.400 . S
C1855 C1854 1.400 . S
C1855 C1856 1.398 . S
C1855 C1861 1.491 . S
C1856 H1847 0.950 . S
C1856 C1855 1.398 . S
C1856 C1857 1.391 . S
C1857 H1845 0.950 . S
C1857 C1853 1.393 . S
C1857 C1856 1.391 . S
C1858 H1848 0.950 . S
C1858 C1859 1.386 . S
C1858 C1860 1.391 . S
C1859 C1858 1.386 . S
C1859 C1863 1.393 . S
C1860 H1849 0.950 . S
C1860 C1858 1.391 . S
C1860 C1861 1.400 . S
C1861 C1855 1.491 . S
C1861 C1860 1.400 . S
C1861 C1862 1.398 . S
C1862 H1850 0.950 . S
C1862 C1861 1.398 . S
C1862 C1863 1.391 . S
C1863 H1851 0.950 . S
C1863 C1859 1.393 . S
C1863 C1862 1.391 . S
H1864 C1872 0.950 . S
H1865 C1877 0.950 1_554 S
H1866 C1874 0.950 . S
H1867 C1876 0.950 1_554 S
H1868 C1878 0.950 1_554 S
H1869 C1880 0.950 1_554 S
H1870 C1882 0.950 . S
H1871 C1883 0.950 . S
C1872 H1864 0.950 . S
C1872 C1873 1.386 . S
C1872 C1874 1.391 . S
C1873 C1872 1.386 . S
C1873 C1877 1.393 . S
C1874 H1866 0.950 . S
C1874 C1872 1.391 . S
C1874 C1875 1.400 . S
C1875 C1874 1.400 . S
C1875 C1876 1.398 . S
C1875 C1881 1.491 . S
C1876 H1867 0.950 1_556 S
C1876 C1875 1.398 . S
C1876 C1877 1.391 . S
C1877 H1865 0.950 1_556 S
C1877 C1873 1.393 . S
C1877 C1876 1.391 . S
C1878 H1868 0.950 1_556 S
C1878 C1879 1.386 . S
C1878 C1880 1.391 . S
C1879 C1878 1.386 . S
C1879 C1883 1.393 . S
C1880 H1869 0.950 1_556 S
C1880 C1878 1.391 . S
C1880 C1881 1.400 . S
C1881 C1875 1.491 . S
C1881 C1880 1.400 . S
C1881 C1882 1.398 . S
C1882 H1870 0.950 . S
C1882 C1881 1.398 . S
C1882 C1883 1.391 . S
C1883 H1871 0.950 . S
C1883 C1879 1.393 . S
C1883 C1882 1.391 . S
H1884 C1892 0.950 . S
H1885 C1897 0.950 . S
H1886 C1894 0.950 . S
H1887 C1896 0.950 . S
H1888 C1898 0.950 . S
H1889 C1900 0.950 . S
H1890 C1902 0.950 . S
H1891 C1903 0.950 . S
C1892 H1884 0.950 . S
C1892 C1893 1.386 . S
C1892 C1894 1.391 . S
C1893 C1892 1.386 . S
C1893 C1897 1.393 . S
C1894 H1886 0.950 . S
C1894 C1892 1.391 . S
C1894 C1895 1.400 . S
C1895 C1894 1.400 . S
C1895 C1896 1.398 . S
C1895 C1901 1.491 . S
C1896 H1887 0.950 . S
C1896 C1895 1.398 . S
C1896 C1897 1.391 . S
C1897 H1885 0.950 . S
C1897 C1893 1.393 . S
C1897 C1896 1.391 . S
C1898 H1888 0.950 . S
C1898 C1899 1.386 . S
C1898 C1900 1.391 . S
C1899 C1898 1.386 . S
C1899 C1903 1.393 . S
C1900 H1889 0.950 . S
C1900 C1898 1.391 . S
C1900 C1901 1.400 . S
C1901 C1895 1.491 . S
C1901 C1900 1.400 . S
C1901 C1902 1.398 . S
C1902 H1890 0.950 . S
C1902 C1901 1.398 . S
C1902 C1903 1.391 . S
C1903 H1891 0.950 . S
C1903 C1899 1.393 . S
C1903 C1902 1.391 . S
H1904 C1912 0.950 . S
H1905 C1917 0.950 . S
H1906 C1914 0.950 . S
H1907 C1916 0.950 . S
H1908 C1918 0.950 . S
H1909 C1920 0.950 . S
H1910 C1922 0.950 . S
H1911 C1923 0.950 . S
C1912 H1904 0.950 . S
C1912 C1913 1.386 . S
C1912 C1914 1.391 . S
C1913 C1912 1.386 . S
C1913 C1917 1.393 . S
C1914 H1906 0.950 . S
C1914 C1912 1.391 . S
C1914 C1915 1.400 . S
C1915 C1914 1.400 . S
C1915 C1916 1.398 . S
C1915 C1921 1.491 . S
C1916 H1907 0.950 . S
C1916 C1915 1.398 . S
C1916 C1917 1.391 . S
C1917 H1905 0.950 . S
C1917 C1913 1.393 . S
C1917 C1916 1.391 . S
C1918 H1908 0.950 . S
C1918 C1919 1.386 . S
C1918 C1920 1.391 . S
C1919 C1918 1.386 . S
C1919 C1923 1.393 . S
C1920 H1909 0.950 . S
C1920 C1918 1.391 . S
C1920 C1921 1.400 . S
C1921 C1915 1.491 . S
C1921 C1920 1.400 . S
C1921 C1922 1.398 . S
C1922 H1910 0.950 . S
C1922 C1921 1.398 . S
C1922 C1923 1.391 . S
C1923 H1911 0.950 . S
C1923 C1919 1.393 . S
C1923 C1922 1.391 . S
H1924 C1932 0.950 . S
H1925 C1937 0.950 . S
H1926 C1934 0.950 . S
H1927 C1936 0.950 . S
H1928 C1938 0.950 . S
H1929 C1940 0.950 . S
H1930 C1942 0.950 . S
H1931 C1943 0.950 . S
C1932 H1924 0.950 . S
C1932 C1933 1.386 . S
C1932 C1934 1.391 . S
C1933 C1932 1.386 . S
C1933 C1937 1.393 . S
C1934 H1926 0.950 . S
C1934 C1932 1.391 . S
C1934 C1935 1.400 . S
C1935 C1934 1.400 . S
C1935 C1936 1.398 . S
C1935 C1941 1.491 . S
C1936 H1927 0.950 . S
C1936 C1935 1.398 . S
C1936 C1937 1.391 . S
C1937 H1925 0.950 . S
C1937 C1933 1.393 . S
C1937 C1936 1.391 . S
C1938 H1928 0.950 . S
C1938 C1939 1.386 . S
C1938 C1940 1.391 . S
C1939 C1938 1.386 . S
C1939 C1943 1.393 . S
C1940 H1929 0.950 . S
C1940 C1938 1.391 . S
C1940 C1941 1.400 . S
C1941 C1935 1.491 . S
C1941 C1940 1.400 . S
C1941 C1942 1.398 . S
C1942 H1930 0.950 . S
C1942 C1941 1.398 . S
C1942 C1943 1.391 . S
C1943 H1931 0.950 . S
C1943 C1939 1.393 . S
C1943 C1942 1.391 . S
C513 C81 1.480 . S
C519 C11 1.477 . S
C533 C53 1.473 . S
C539 C25 1.487 . S
C553 C39 1.475 . S
C559 C67 1.488 . S
C573 C95 1.475 . S
C579 C165 1.487 . S
C593 C109 1.481 . S
C599 C137 1.484 . S
C613 C151 1.485 . S
C619 C123 1.478 . S
C633 C179 1.485 . S
C639 C249 1.473 . S
C653 C193 1.476 . S
C659 C221 1.487 . S
C673 C207 1.483 . S
C679 C235 1.481 . S
C693 C333 1.476 . S
C699 C263 1.481 . S
C713 C277 1.474 . S
C719 C305 1.488 . S
C733 C319 1.478 . S
C739 C291 1.478 . S
C753 C417 1.482 . S
C759 C347 1.483 . S
C773 C389 1.487 . S
C779 C361 1.473 . S
C793 C403 1.487 . S
C799 C375 1.473 . S
C813 C431 1.473 . S
C819 C501 1.488 . S
C833 C445 1.486 . S
C839 C473 1.473 . S
C853 C459 1.479 . S
C859 C487 1.485 . S
C873 C79 1.588 . S
C879 C9 1.584 . S
C893 C23 1.584 . S
C899 C51 1.587 . S
C913 C65 1.588 . S
C919 C37 1.585 . S
C933 C93 1.584 . S
C939 C163 1.588 . S
C953 C107 1.584 . S
C959 C135 1.587 . S
C973 C149 1.588 . S
C979 C121 1.585 . S
C993 C177 1.588 . S
C999 C247 1.584 . S
C1013 C219 1.588 . S
C1019 C191 1.584 . S
C1033 C233 1.584 . S
C1039 C205 1.588 . S
C1053 C261 1.588 . S
C1059 C331 1.584 . S
C1073 C275 1.587 . S
C1079 C303 1.584 . S
C1093 C317 1.588 . S
C1099 C289 1.584 . S
C1113 C415 1.584 . S
C1119 C345 1.588 . S
C1133 C359 1.587 . S
C1139 C387 1.586 . S
C1153 C373 1.584 . S
C1159 C401 1.588 . S
C1173 C499 1.588 . S
C1179 C429 1.584 . S
C1193 C471 1.585 . S
C1199 C443 1.585 . S
C1213 C485 1.584 . S
C1219 C457 1.589 . S
C1233 C229 1.639 . S
C1239 C5 1.639 . S
C1253 C243 1.639 . S
C1259 C19 1.639 . S
C1273 C215 1.641 . S
C1279 C33 1.641 . S
C1293 C47 1.642 . S
C1299 C369 1.642 . S
C1313 C61 1.639 . S
C1319 C341 1.639 . S
C1333 C75 1.639 . S
C1339 C355 1.639 . S
C1353 C89 1.640 . S
C1359 C481 1.640 . S
C1373 C103 1.640 . S
C1379 C495 1.640 . S
C1393 C117 1.641 . S
C1399 C467 1.641 . S
C1413 C131 1.642 . S
C1419 C285 1.642 . S
C1433 C257 1.640 . S
C1439 C145 1.639 . S
C1453 C271 1.639 . S
C1459 C159 1.639 . S
C1473 C397 1.642 . S
C1479 C173 1.642 . S
C1493 C187 1.642 . S
C1499 C411 1.642 . S
C1513 C201 1.642 . S
C1519 C383 1.641 . S
C1533 C299 1.640 . S
C1539 C453 1.640 . S
C1553 C313 1.639 . S
C1559 C425 1.639 . S
C1573 C439 1.642 . S
C1579 C327 1.642 . S
C1593 C0 1.303 . S
C1599 C140 1.323 . S
C1613 C154 1.316 . S
C1619 C14 1.310 . S
C1633 C126 1.319 . S
C1639 C28 1.307 . S
C1653 C42 1.323 . S
C1659 C112 1.303 . S
C1673 C56 1.307 . S
C1679 C84 1.319 . S
C1693 C70 1.317 . S
C1699 C98 1.309 . S
C1713 C168 1.304 . S
C1719 C308 1.323 . S
C1733 C322 1.305 . S
C1739 C182 1.321 . S
C1753 C294 1.308 . S
C1759 C196 1.318 . S
C1773 C210 1.320 . S
C1779 C280 1.306 . S
C1793 C224 1.303 . S
C1799 C252 1.323 . S
C1813 C266 1.307 . S
C1819 C238 1.318 . S
C1833 C336 1.306 . S
C1839 C476 1.321 . S
C1853 C490 1.316 . S
C1859 C350 1.310 . S
C1873 C364 1.319 . S
C1879 C462 1.307 . S
C1893 C378 1.303 . S
C1899 C448 1.323 . S
C1913 C420 1.323 . S
C1919 C392 1.303 . S
C1933 C406 1.317 . S
C1939 C434 1.308 . S
