# Generated by pormake.
# Topology ull, (4)-cn, num edge types: 1
# Building blocks:
#     Node 0, Type 0, BuildingBlock: QUQFOY_clean_sbu_1, # of connection points: 4
#     Node 1, Type 0, BuildingBlock: QUQFOY_clean_sbu_1, # of connection points: 4
#     Node 2, Type 0, BuildingBlock: QUQFOY_clean_sbu_1, # of connection points: 4
#     Node 3, Type 0, BuildingBlock: QUQFOY_clean_sbu_1, # of connection points: 4
#     Node 4, Type 0, BuildingBlock: QUQFOY_clean_sbu_1, # of connection points: 4
#     Node 5, Type 0, BuildingBlock: QUQFOY_clean_sbu_1, # of connection points: 4
#     Node 6, Type 0, BuildingBlock: QUQFOY_clean_sbu_1, # of connection points: 4
#     Node 7, Type 0, BuildingBlock: QUQFOY_clean_sbu_1, # of connection points: 4
#     Node 8, Type 0, BuildingBlock: QUQFOY_clean_sbu_1, # of connection points: 4
#     Node 9, Type 0, BuildingBlock: QUQFOY_clean_sbu_1, # of connection points: 4
#     Node 10, Type 0, BuildingBlock: QUQFOY_clean_sbu_1, # of connection points: 4
#     Node 11, Type 0, BuildingBlock: QUQFOY_clean_sbu_1, # of connection points: 4
#     Node 12, Type 0, BuildingBlock: QUQFOY_clean_sbu_1, # of connection points: 4
#     Node 13, Type 0, BuildingBlock: QUQFOY_clean_sbu_1, # of connection points: 4
#     Node 14, Type 0, BuildingBlock: QUQFOY_clean_sbu_1, # of connection points: 4
#     Node 15, Type 0, BuildingBlock: QUQFOY_clean_sbu_1, # of connection points: 4
#     Node 16, Type 0, BuildingBlock: QUQFOY_clean_sbu_1, # of connection points: 4
#     Node 17, Type 0, BuildingBlock: QUQFOY_clean_sbu_1, # of connection points: 4
#     Node 18, Type 0, BuildingBlock: QUQFOY_clean_sbu_1, # of connection points: 4
#     Node 19, Type 0, BuildingBlock: QUQFOY_clean_sbu_1, # of connection points: 4
#     Node 20, Type 0, BuildingBlock: QUQFOY_clean_sbu_1, # of connection points: 4
#     Node 21, Type 0, BuildingBlock: QUQFOY_clean_sbu_1, # of connection points: 4
#     Node 22, Type 0, BuildingBlock: QUQFOY_clean_sbu_1, # of connection points: 4
#     Node 23, Type 0, BuildingBlock: QUQFOY_clean_sbu_1, # of connection points: 4
#     Node 24, Type 0, BuildingBlock: QUQFOY_clean_sbu_1, # of connection points: 4
#     Node 25, Type 0, BuildingBlock: QUQFOY_clean_sbu_1, # of connection points: 4
#     Node 26, Type 0, BuildingBlock: QUQFOY_clean_sbu_1, # of connection points: 4
#     Node 27, Type 0, BuildingBlock: QUQFOY_clean_sbu_1, # of connection points: 4
#     Node 28, Type 0, BuildingBlock: QUQFOY_clean_sbu_1, # of connection points: 4
#     Node 29, Type 0, BuildingBlock: QUQFOY_clean_sbu_1, # of connection points: 4
#     Node 30, Type 0, BuildingBlock: QUQFOY_clean_sbu_1, # of connection points: 4
#     Node 31, Type 0, BuildingBlock: QUQFOY_clean_sbu_1, # of connection points: 4
#     Node 32, Type 0, BuildingBlock: QUQFOY_clean_sbu_1, # of connection points: 4
#     Node 33, Type 0, BuildingBlock: QUQFOY_clean_sbu_1, # of connection points: 4
#     Node 34, Type 0, BuildingBlock: QUQFOY_clean_sbu_1, # of connection points: 4
#     Node 35, Type 0, BuildingBlock: QUQFOY_clean_sbu_1, # of connection points: 4
#     Node 36, Type 0, BuildingBlock: QUQFOY_clean_sbu_1, # of connection points: 4
#     Node 37, Type 0, BuildingBlock: QUQFOY_clean_sbu_1, # of connection points: 4
#     Node 38, Type 0, BuildingBlock: QUQFOY_clean_sbu_1, # of connection points: 4
#     Node 39, Type 0, BuildingBlock: QUQFOY_clean_sbu_1, # of connection points: 4
#     Node 40, Type 0, BuildingBlock: QUQFOY_clean_sbu_1, # of connection points: 4
#     Node 41, Type 0, BuildingBlock: QUQFOY_clean_sbu_1, # of connection points: 4
#     Node 42, Type 0, BuildingBlock: QUQFOY_clean_sbu_1, # of connection points: 4
#     Node 43, Type 0, BuildingBlock: QUQFOY_clean_sbu_1, # of connection points: 4
#     Node 44, Type 0, BuildingBlock: QUQFOY_clean_sbu_1, # of connection points: 4
#     Node 45, Type 0, BuildingBlock: QUQFOY_clean_sbu_1, # of connection points: 4
#     Node 46, Type 0, BuildingBlock: QUQFOY_clean_sbu_1, # of connection points: 4
#     Node 47, Type 0, BuildingBlock: QUQFOY_clean_sbu_1, # of connection points: 4
#     Edge 48, Type (0, 0), BuildingBlock: UVAHIK_clean_linker_0, # of connection points: 2
#     Edge 49, Type (0, 0), BuildingBlock: UVAHIK_clean_linker_0, # of connection points: 2
#     Edge 50, Type (0, 0), BuildingBlock: UVAHIK_clean_linker_0, # of connection points: 2
#     Edge 51, Type (0, 0), BuildingBlock: UVAHIK_clean_linker_0, # of connection points: 2
#     Edge 52, Type (0, 0), BuildingBlock: UVAHIK_clean_linker_0, # of connection points: 2
#     Edge 53, Type (0, 0), BuildingBlock: UVAHIK_clean_linker_0, # of connection points: 2
#     Edge 54, Type (0, 0), BuildingBlock: UVAHIK_clean_linker_0, # of connection points: 2
#     Edge 55, Type (0, 0), BuildingBlock: UVAHIK_clean_linker_0, # of connection points: 2
#     Edge 56, Type (0, 0), BuildingBlock: UVAHIK_clean_linker_0, # of connection points: 2
#     Edge 57, Type (0, 0), BuildingBlock: UVAHIK_clean_linker_0, # of connection points: 2
#     Edge 58, Type (0, 0), BuildingBlock: UVAHIK_clean_linker_0, # of connection points: 2
#     Edge 59, Type (0, 0), BuildingBlock: UVAHIK_clean_linker_0, # of connection points: 2
#     Edge 60, Type (0, 0), BuildingBlock: UVAHIK_clean_linker_0, # of connection points: 2
#     Edge 61, Type (0, 0), BuildingBlock: UVAHIK_clean_linker_0, # of connection points: 2
#     Edge 62, Type (0, 0), BuildingBlock: UVAHIK_clean_linker_0, # of connection points: 2
#     Edge 63, Type (0, 0), BuildingBlock: UVAHIK_clean_linker_0, # of connection points: 2
#     Edge 64, Type (0, 0), BuildingBlock: UVAHIK_clean_linker_0, # of connection points: 2
#     Edge 65, Type (0, 0), BuildingBlock: UVAHIK_clean_linker_0, # of connection points: 2
#     Edge 66, Type (0, 0), BuildingBlock: UVAHIK_clean_linker_0, # of connection points: 2
#     Edge 67, Type (0, 0), BuildingBlock: UVAHIK_clean_linker_0, # of connection points: 2
#     Edge 68, Type (0, 0), BuildingBlock: UVAHIK_clean_linker_0, # of connection points: 2
#     Edge 69, Type (0, 0), BuildingBlock: UVAHIK_clean_linker_0, # of connection points: 2
#     Edge 70, Type (0, 0), BuildingBlock: UVAHIK_clean_linker_0, # of connection points: 2
#     Edge 71, Type (0, 0), BuildingBlock: UVAHIK_clean_linker_0, # of connection points: 2
#     Edge 72, Type (0, 0), BuildingBlock: UVAHIK_clean_linker_0, # of connection points: 2
#     Edge 73, Type (0, 0), BuildingBlock: UVAHIK_clean_linker_0, # of connection points: 2
#     Edge 74, Type (0, 0), BuildingBlock: UVAHIK_clean_linker_0, # of connection points: 2
#     Edge 75, Type (0, 0), BuildingBlock: UVAHIK_clean_linker_0, # of connection points: 2
#     Edge 76, Type (0, 0), BuildingBlock: UVAHIK_clean_linker_0, # of connection points: 2
#     Edge 77, Type (0, 0), BuildingBlock: UVAHIK_clean_linker_0, # of connection points: 2
#     Edge 78, Type (0, 0), BuildingBlock: UVAHIK_clean_linker_0, # of connection points: 2
#     Edge 79, Type (0, 0), BuildingBlock: UVAHIK_clean_linker_0, # of connection points: 2
#     Edge 80, Type (0, 0), BuildingBlock: UVAHIK_clean_linker_0, # of connection points: 2
#     Edge 81, Type (0, 0), BuildingBlock: UVAHIK_clean_linker_0, # of connection points: 2
#     Edge 82, Type (0, 0), BuildingBlock: UVAHIK_clean_linker_0, # of connection points: 2
#     Edge 83, Type (0, 0), BuildingBlock: UVAHIK_clean_linker_0, # of connection points: 2
#     Edge 84, Type (0, 0), BuildingBlock: UVAHIK_clean_linker_0, # of connection points: 2
#     Edge 85, Type (0, 0), BuildingBlock: UVAHIK_clean_linker_0, # of connection points: 2
#     Edge 86, Type (0, 0), BuildingBlock: UVAHIK_clean_linker_0, # of connection points: 2
#     Edge 87, Type (0, 0), BuildingBlock: UVAHIK_clean_linker_0, # of connection points: 2
#     Edge 88, Type (0, 0), BuildingBlock: UVAHIK_clean_linker_0, # of connection points: 2
#     Edge 89, Type (0, 0), BuildingBlock: UVAHIK_clean_linker_0, # of connection points: 2
#     Edge 90, Type (0, 0), BuildingBlock: UVAHIK_clean_linker_0, # of connection points: 2
#     Edge 91, Type (0, 0), BuildingBlock: UVAHIK_clean_linker_0, # of connection points: 2
#     Edge 92, Type (0, 0), BuildingBlock: UVAHIK_clean_linker_0, # of connection points: 2
#     Edge 93, Type (0, 0), BuildingBlock: UVAHIK_clean_linker_0, # of connection points: 2
#     Edge 94, Type (0, 0), BuildingBlock: UVAHIK_clean_linker_0, # of connection points: 2
#     Edge 95, Type (0, 0), BuildingBlock: UVAHIK_clean_linker_0, # of connection points: 2
#     Edge 96, Type (0, 0), BuildingBlock: UVAHIK_clean_linker_0, # of connection points: 2
#     Edge 97, Type (0, 0), BuildingBlock: UVAHIK_clean_linker_0, # of connection points: 2
#     Edge 98, Type (0, 0), BuildingBlock: UVAHIK_clean_linker_0, # of connection points: 2
#     Edge 99, Type (0, 0), BuildingBlock: UVAHIK_clean_linker_0, # of connection points: 2
#     Edge 100, Type (0, 0), BuildingBlock: UVAHIK_clean_linker_0, # of connection points: 2
#     Edge 101, Type (0, 0), BuildingBlock: UVAHIK_clean_linker_0, # of connection points: 2
#     Edge 102, Type (0, 0), BuildingBlock: UVAHIK_clean_linker_0, # of connection points: 2
#     Edge 103, Type (0, 0), BuildingBlock: UVAHIK_clean_linker_0, # of connection points: 2
#     Edge 104, Type (0, 0), BuildingBlock: UVAHIK_clean_linker_0, # of connection points: 2
#     Edge 105, Type (0, 0), BuildingBlock: UVAHIK_clean_linker_0, # of connection points: 2
#     Edge 106, Type (0, 0), BuildingBlock: UVAHIK_clean_linker_0, # of connection points: 2
#     Edge 107, Type (0, 0), BuildingBlock: UVAHIK_clean_linker_0, # of connection points: 2
#     Edge 108, Type (0, 0), BuildingBlock: UVAHIK_clean_linker_0, # of connection points: 2
#     Edge 109, Type (0, 0), BuildingBlock: UVAHIK_clean_linker_0, # of connection points: 2
#     Edge 110, Type (0, 0), BuildingBlock: UVAHIK_clean_linker_0, # of connection points: 2
#     Edge 111, Type (0, 0), BuildingBlock: UVAHIK_clean_linker_0, # of connection points: 2
#     Edge 112, Type (0, 0), BuildingBlock: UVAHIK_clean_linker_0, # of connection points: 2
#     Edge 113, Type (0, 0), BuildingBlock: UVAHIK_clean_linker_0, # of connection points: 2
#     Edge 114, Type (0, 0), BuildingBlock: UVAHIK_clean_linker_0, # of connection points: 2
#     Edge 115, Type (0, 0), BuildingBlock: UVAHIK_clean_linker_0, # of connection points: 2
#     Edge 116, Type (0, 0), BuildingBlock: UVAHIK_clean_linker_0, # of connection points: 2
#     Edge 117, Type (0, 0), BuildingBlock: UVAHIK_clean_linker_0, # of connection points: 2
#     Edge 118, Type (0, 0), BuildingBlock: UVAHIK_clean_linker_0, # of connection points: 2
#     Edge 119, Type (0, 0), BuildingBlock: UVAHIK_clean_linker_0, # of connection points: 2
#     Edge 120, Type (0, 0), BuildingBlock: UVAHIK_clean_linker_0, # of connection points: 2
#     Edge 121, Type (0, 0), BuildingBlock: UVAHIK_clean_linker_0, # of connection points: 2
#     Edge 122, Type (0, 0), BuildingBlock: UVAHIK_clean_linker_0, # of connection points: 2
#     Edge 123, Type (0, 0), BuildingBlock: UVAHIK_clean_linker_0, # of connection points: 2
#     Edge 124, Type (0, 0), BuildingBlock: UVAHIK_clean_linker_0, # of connection points: 2
#     Edge 125, Type (0, 0), BuildingBlock: UVAHIK_clean_linker_0, # of connection points: 2
#     Edge 126, Type (0, 0), BuildingBlock: UVAHIK_clean_linker_0, # of connection points: 2
#     Edge 127, Type (0, 0), BuildingBlock: UVAHIK_clean_linker_0, # of connection points: 2
#     Edge 128, Type (0, 0), BuildingBlock: UVAHIK_clean_linker_0, # of connection points: 2
#     Edge 129, Type (0, 0), BuildingBlock: UVAHIK_clean_linker_0, # of connection points: 2
#     Edge 130, Type (0, 0), BuildingBlock: UVAHIK_clean_linker_0, # of connection points: 2
#     Edge 131, Type (0, 0), BuildingBlock: UVAHIK_clean_linker_0, # of connection points: 2
#     Edge 132, Type (0, 0), BuildingBlock: UVAHIK_clean_linker_0, # of connection points: 2
#     Edge 133, Type (0, 0), BuildingBlock: UVAHIK_clean_linker_0, # of connection points: 2
#     Edge 134, Type (0, 0), BuildingBlock: UVAHIK_clean_linker_0, # of connection points: 2
#     Edge 135, Type (0, 0), BuildingBlock: UVAHIK_clean_linker_0, # of connection points: 2
#     Edge 136, Type (0, 0), BuildingBlock: UVAHIK_clean_linker_0, # of connection points: 2
#     Edge 137, Type (0, 0), BuildingBlock: UVAHIK_clean_linker_0, # of connection points: 2
#     Edge 138, Type (0, 0), BuildingBlock: UVAHIK_clean_linker_0, # of connection points: 2
#     Edge 139, Type (0, 0), BuildingBlock: UVAHIK_clean_linker_0, # of connection points: 2
#     Edge 140, Type (0, 0), BuildingBlock: UVAHIK_clean_linker_0, # of connection points: 2
#     Edge 141, Type (0, 0), BuildingBlock: UVAHIK_clean_linker_0, # of connection points: 2
#     Edge 142, Type (0, 0), BuildingBlock: UVAHIK_clean_linker_0, # of connection points: 2
#     Edge 143, Type (0, 0), BuildingBlock: UVAHIK_clean_linker_0, # of connection points: 2
# Relax obj value: 0.007
# Max RMSD: 0.068
# Mean RMSD: 0.068
data_MOF--net-ull--node1-QUQFOY_clean_sbu_1--edge1-UVAHIK_clean_linker_0
_symmetry_space_group_name_H-M    P1
_symmetry_Int_Tables_number       1
_symmetry_cell_setting            triclinic
loop_
_symmetry_equiv_pos_as_xyz
'x, y, z'
_cell_length_a     81.418701
_cell_length_b     81.442519
_cell_length_c     81.439337
_cell_angle_alpha  89.985827
_cell_angle_beta   90.004473
_cell_angle_gamma 89.993008
loop_
_atom_site_label
_atom_site_type_symbol
_atom_site_fract_x
_atom_site_fract_y
_atom_site_fract_z
_atom_type_partial_charge
O0 O 0.00728 0.33761 0.20289 0.0
Cd1 Cd 0.00797 0.3585 0.18848 0.0
Cd2 Cd 0.02099 0.33712 0.1667 0.0
O3 O 0.02064 0.32092 0.18625 0.0
O4 O 0.00714 0.37713 0.20439 0.0
O5 O 0.02882 0.37176 0.18893 0.0
C6 C 0.02213 0.3804 0.20044 0.0
C7 C 0.04426 0.33958 0.14995 0.0
C8 C 0.01361 0.32365 0.19992 0.0
C9 C 0.98795 0.35213 0.15849 0.0
O10 O 0.99886 0.34145 0.15524 0.0
O11 O 0.98956 0.36144 0.17095 0.0
O12 O 0.03489 0.32684 0.14936 0.0
O13 O 0.04073 0.35085 0.16054 0.0
O14 O 0.66575 0.00454 0.20364 0.0
Cd15 Cd 0.6449 0.00663 0.18938 0.0
Cd16 Cd 0.66595 0.02118 0.16877 0.0
O17 O 0.68146 0.02098 0.18896 0.0
O18 O 0.62594 0.00603 0.20491 0.0
O19 O 0.63265 0.02803 0.19043 0.0
C20 C 0.62344 0.0213 0.20148 0.0
C21 C 0.66365 0.04458 0.15213 0.0
C22 C 0.67922 0.01219 0.20168 0.0
C23 C 0.65172 0.98817 0.15891 0.0
O24 O 0.6626 0.99915 0.15663 0.0
O25 O 0.64182 0.98935 0.17094 0.0
O26 O 0.67663 0.03552 0.152 0.0
O27 O 0.65206 0.04071 0.16224 0.0
O28 O 0.99687 0.66615 0.20259 0.0
Cd29 Cd 0.99572 0.64534 0.18811 0.0
Cd30 Cd 0.98284 0.66697 0.16656 0.0
O31 O 0.98349 0.68307 0.18619 0.0
O32 O 0.99648 0.62657 0.20387 0.0
O33 O 0.97465 0.63244 0.18879 0.0
C34 C 0.98137 0.62359 0.20014 0.0
C35 C 0.95948 0.66469 0.14989 0.0
C36 C 0.99066 0.68019 0.19977 0.0
C37 C 0.01567 0.65168 0.15809 0.0
O38 O 0.00489 0.66254 0.15497 0.0
O39 O 0.01396 0.64226 0.17045 0.0
O40 O 0.9689 0.67739 0.14932 0.0
O41 O 0.96299 0.65337 0.16044 0.0
O42 O 0.33942 1.00011 0.20228 0.0
Cd43 Cd 0.35996 0.99783 0.18756 0.0
Cd44 Cd 0.33819 0.9841 0.16684 0.0
O45 O 0.32261 0.98544 0.18689 0.0
O46 O 0.37956 0.99735 0.20234 0.0
O47 O 0.37083 0.97574 0.18831 0.0
C48 C 0.38086 0.98192 0.19896 0.0
C49 C 0.34006 0.96048 0.15052 0.0
C50 C 0.32549 0.99344 0.19999 0.0
C51 C 0.35371 0.0163 0.15665 0.0
O52 O 0.34257 0.00562 0.15432 0.0
O53 O 0.36331 0.01504 0.16892 0.0
O54 O 0.3273 0.96984 0.15015 0.0
O55 O 0.35156 0.96408 0.16084 0.0
O56 O 0.01058 0.66814 0.80182 0.0
Cd57 Cd 0.01092 0.64741 0.81646 0.0
Cd58 Cd 0.02396 0.66877 0.83813 0.0
O59 O 0.02405 0.68479 0.81842 0.0
O60 O 0.01016 0.62852 0.80086 0.0
O61 O 0.03174 0.63411 0.81638 0.0
C62 C 0.02512 0.62528 0.80498 0.0
C63 C 0.047 0.66587 0.85513 0.0
C64 C 0.01709 0.68203 0.80471 0.0
C65 C 0.99069 0.65429 0.84617 0.0
O66 O 1.00166 0.66491 0.84941 0.0
O67 O 0.99235 0.64482 0.83385 0.0
O68 O 0.03793 0.67884 0.85556 0.0
O69 O 0.04333 0.65464 0.84454 0.0
O70 O 0.34027 0.00328 0.80208 0.0
Cd71 Cd 0.36107 0.00534 0.81641 0.0
Cd72 Cd 0.33996 0.02022 0.83685 0.0
O73 O 0.3244 0.01962 0.81669 0.0
O74 O 0.38003 0.00469 0.80087 0.0
O75 O 0.37335 0.0267 0.81535 0.0
C76 C 0.38253 0.01997 0.80428 0.0
C77 C 0.34236 0.04397 0.85295 0.0
C78 C 0.32675 0.01085 0.80398 0.0
C79 C 0.35433 0.9874 0.8473 0.0
O80 O 0.34353 0.99848 0.84947 0.0
O81 O 0.36406 0.98825 0.8351 0.0
O82 O 0.32937 0.03493 0.85336 0.0
O83 O 0.35389 0.03987 0.84286 0.0
O84 O 0.99934 0.33984 0.80253 0.0
Cd85 Cd 0.99751 0.36046 0.81715 0.0
Cd86 Cd 0.98341 0.339 0.83768 0.0
O87 O 0.98338 0.32374 0.81731 0.0
O88 O 0.99806 0.37958 0.80181 0.0
O89 O 0.97614 0.37278 0.81637 0.0
C90 C 0.9828 0.38206 0.80534 0.0
C91 C 0.96013 0.34142 0.85446 0.0
C92 C 0.99184 0.32628 0.80442 0.0
C93 C 0.01647 0.35323 0.84732 0.0
O94 O 0.00559 0.34226 0.8496 0.0
O95 O 0.01506 0.36329 0.83544 0.0
O96 O 0.96909 0.32838 0.85451 0.0
O97 O 0.96404 0.35302 0.84436 0.0
O98 O 0.66436 1.00073 0.80153 0.0
Cd99 Cd 0.6437 0.99896 0.81611 0.0
Cd100 Cd 0.66508 0.9847 0.83657 0.0
O101 O 0.68034 0.98453 0.8162 0.0
O102 O 0.62459 0.99952 0.80076 0.0
O103 O 0.63137 0.9776 0.81534 0.0
C104 C 0.6221 0.98427 0.8043 0.0
C105 C 0.66253 0.96164 0.85363 0.0
C106 C 0.67786 0.99309 0.80336 0.0
C107 C 0.65099 0.01781 0.84626 0.0
O108 O 0.66196 0.00691 0.84845 0.0
O109 O 0.64087 0.01646 0.83443 0.0
O110 O 0.67563 0.97053 0.85355 0.0
O111 O 0.651 0.96542 0.8434 0.0
O112 O 0.20428 0.00834 0.33859 0.0
Cd113 Cd 0.18949 0.00889 0.3592 0.0
Cd114 Cd 0.16808 0.02215 0.3377 0.0
O115 O 0.1879 0.0219 0.3218 0.0
O116 O 0.20492 0.00813 0.37825 0.0
O117 O 0.18961 0.02979 0.37234 0.0
C118 C 0.2009 0.02315 0.38131 0.0
C119 C 0.15147 0.04549 0.34032 0.0
C120 C 0.20153 0.01483 0.32466 0.0
C121 C 0.15956 0.989 0.35221 0.0
O122 O 0.15646 1.00001 0.34159 0.0
O123 O 0.17189 0.9905 0.36171 0.0
O124 O 0.15096 0.03633 0.32742 0.0
O125 O 0.16189 0.0417 0.35166 0.0
O126 O 0.99674 0.20197 0.33772 0.0
Cd127 Cd 0.99597 0.18734 0.35844 0.0
Cd128 Cd 0.98303 0.16588 0.3368 0.0
O129 O 0.98335 0.1856 0.32079 0.0
O130 O 0.99683 0.20308 0.37721 0.0
O131 O 0.97512 0.1877 0.37172 0.0
C132 C 0.98183 0.19912 0.38046 0.0
C133 C 0.95982 0.14908 0.33936 0.0
C134 C 0.99043 0.19921 0.3237 0.0
C135 C 0.01604 0.15751 0.35173 0.0
O136 O 0.00518 0.15441 0.34095 0.0
O137 O 0.01437 0.16981 0.36123 0.0
O138 O 0.96906 0.14861 0.32651 0.0
O139 O 0.96343 0.15962 0.35066 0.0
O140 O 0.80262 0.99824 0.33867 0.0
Cd141 Cd 0.81697 0.99532 0.35936 0.0
Cd142 Cd 0.83722 0.98102 0.33808 0.0
O143 O 0.81672 0.98129 0.32295 0.0
O144 O 0.80202 0.99503 0.37882 0.0
O145 O 0.81571 0.97319 0.37009 0.0
C146 C 0.80513 0.97953 0.38008 0.0
C147 C 0.85422 0.95788 0.34028 0.0
C148 C 0.80425 0.99044 0.32525 0.0
C149 C 0.84744 0.0137 0.35261 0.0
O150 O 0.84935 0.00307 0.34133 0.0
O151 O 0.83572 0.01221 0.36282 0.0
O152 O 0.85403 0.96685 0.32724 0.0
O153 O 0.8441 0.96158 0.35191 0.0
O154 O 0.00913 0.80163 0.33726 0.0
Cd155 Cd 0.01003 0.816 0.35813 0.0
Cd156 Cd 0.02397 0.83743 0.33689 0.0
O157 O 0.0231 0.81788 0.32068 0.0
O158 O 0.00877 0.80015 0.3768 0.0
O159 O 0.03083 0.8151 0.37146 0.0
C160 C 0.02385 0.80376 0.38011 0.0
C161 C 0.04764 0.85363 0.3394 0.0
C162 C 0.01566 0.80441 0.32336 0.0
C163 C 0.99109 0.84666 0.35176 0.0
O164 O 1.00222 0.84961 0.34121 0.0
O165 O 0.99214 0.83405 0.36095 0.0
O166 O 0.03834 0.85439 0.32661 0.0
O167 O 0.04383 0.84312 0.35067 0.0
O168 O 0.20342 1.00077 0.66598 0.0
Cd169 Cd 0.1888 0.99895 0.64536 0.0
Cd170 Cd 0.16839 0.98454 0.66665 0.0
O171 O 0.18875 0.98457 0.68194 0.0
O172 O 0.20406 0.99945 0.62616 0.0
O173 O 0.18952 0.97756 0.6331 0.0
C174 C 0.2005 0.9842 0.62374 0.0
C175 C 0.15185 0.96112 0.66399 0.0
C176 C 0.20157 0.99316 0.67949 0.0
C177 C 0.15845 0.01759 0.65267 0.0
O178 O 0.15625 0.00661 0.66356 0.0
O179 O 0.17037 0.01636 0.64263 0.0
O180 O 0.15172 0.96994 0.67713 0.0
O181 O 0.16191 0.96526 0.65244 0.0
O182 O 0.00405 0.20307 0.66629 0.0
Cd183 Cd 0.00695 0.1883 0.6459 0.0
Cd184 Cd 0.02098 0.16824 0.66769 0.0
O185 O 0.02036 0.18887 0.68261 0.0
O186 O 0.00728 0.2029 0.62615 0.0
O187 O 0.0291 0.18935 0.63517 0.0
C188 C 0.02278 0.19976 0.62497 0.0
C189 C 0.04459 0.15189 0.66555 0.0
C190 C 0.01151 0.20148 0.67993 0.0
C191 C 0.9885 0.15778 0.65298 0.0
O192 O 0.99909 0.15588 0.66431 0.0
O193 O 0.99002 0.16949 0.64275 0.0
O194 O 0.03561 0.15182 0.67859 0.0
O195 O 0.04053 0.1618 0.65385 0.0
O196 O 0.80136 0.00514 0.6654 0.0
Cd197 Cd 0.81623 0.00801 0.64507 0.0
Cd198 Cd 0.83609 0.02223 0.66687 0.0
O199 O 0.81536 0.02168 0.68164 0.0
O200 O 0.80174 0.0084 0.62523 0.0
O201 O 0.81527 0.03017 0.63437 0.0
C202 C 0.8049 0.0239 0.62411 0.0
C203 C 0.8526 0.04574 0.66483 0.0
C204 C 0.80282 0.01273 0.67897 0.0
C205 C 0.84675 0.9897 0.65242 0.0
O206 O 0.8485 1.00035 0.6637 0.0
O207 O 0.83511 0.99112 0.64208 0.0
O208 O 0.85245 0.03681 0.6779 0.0
O209 O 0.84279 0.04171 0.65304 0.0
O210 O 0.99955 0.80359 0.66651 0.0
Cd211 Cd 0.99729 0.81841 0.64604 0.0
Cd212 Cd 0.98419 0.83921 0.66798 0.0
O213 O 0.98536 0.81917 0.68356 0.0
O214 O 0.99692 0.8036 0.62645 0.0
O215 O 0.97528 0.81772 0.63496 0.0
C216 C 0.98151 0.80705 0.62501 0.0
C217 C 0.96054 0.85547 0.66585 0.0
C218 C 0.99314 0.80595 0.68056 0.0
C219 C 0.01652 0.84883 0.65251 0.0
O220 O 0.00596 0.85135 0.66372 0.0
O221 O 0.01485 0.83672 0.64276 0.0
O222 O 0.96982 0.85596 0.67867 0.0
O223 O 0.96433 0.84519 0.65439 0.0
O224 O 0.34085 0.20296 0.0037 0.0
Cd225 Cd 0.36162 0.18852 0.00553 0.0
Cd226 Cd 0.34032 0.1679 0.01964 0.0
O227 O 0.32487 0.18814 0.01975 0.0
O228 O 0.38064 0.20399 0.00505 0.0
O229 O 0.37394 0.18927 0.0269 0.0
C230 C 0.38316 0.20037 0.02028 0.0
C231 C 0.34296 0.15084 0.04269 0.0
C232 C 0.32731 0.201 0.01122 0.0
C233 C 0.35459 0.15838 0.98656 0.0
O234 O 0.34361 0.15608 0.99743 0.0
O235 O 0.36462 0.17028 0.98798 0.0
O236 O 0.32988 0.15082 0.03378 0.0
O237 O 0.35442 0.16116 0.03895 0.0
O238 O 0.33949 0.80084 1.00066 0.0
Cd239 Cd 0.36018 0.8153 0.99849 0.0
Cd240 Cd 0.33875 0.83545 0.98375 0.0
O241 O 0.32341 0.81513 0.98421 0.0
O242 O 0.37922 0.79988 0.99918 0.0
O243 O 0.37247 0.81426 0.97712 0.0
C244 C 0.38172 0.80326 0.98389 0.0
C245 C 0.3411 0.85215 0.96042 0.0
C246 C 0.32593 0.80251 0.99309 0.0
C247 C 0.35309 0.84592 0.01657 0.0
O248 O 0.34213 0.84787 0.00561 0.0
O249 O 0.36311 0.83397 0.01557 0.0
O250 O 0.32805 0.85216 0.96937 0.0
O251 O 0.35266 0.84197 0.96424 0.0
O252 O 0.20345 0.33847 0.99936 0.0
Cd253 Cd 0.18877 0.35903 0.99728 0.0
Cd254 Cd 0.16847 0.33746 0.98307 0.0
O255 O 0.18888 0.32223 0.98335 0.0
O256 O 0.204 0.37824 0.99788 0.0
O257 O 0.18963 0.3713 0.97588 0.0
C258 C 0.20053 0.38068 0.9826 0.0
C259 C 0.15196 0.33993 0.95961 0.0
C260 C 0.20167 0.32486 0.99193 0.0
C261 C 0.1584 0.35183 0.01591 0.0
O262 O 0.15627 0.3408 0.00507 0.0
O263 O 0.1703 0.36188 0.0146 0.0
O264 O 0.15182 0.32685 0.96854 0.0
O265 O 0.16202 0.35151 0.96365 0.0
O266 O 0.66666 0.20262 1.00105 0.0
Cd267 Cd 0.6457 0.18853 0.99886 0.0
Cd268 Cd 0.66662 0.16776 0.98436 0.0
O269 O 0.68228 0.18784 0.98461 0.0
O270 O 0.62684 0.2042 0.9994 0.0
O271 O 0.63357 0.18972 0.97741 0.0
C272 C 0.6244 0.20082 0.98411 0.0
C273 C 0.66402 0.15134 0.96084 0.0
C274 C 0.68013 0.20057 0.99341 0.0
C275 C 0.6522 0.15792 0.0173 0.0
O276 O 0.66312 0.15557 0.00637 0.0
O277 O 0.64241 0.17005 0.01608 0.0
O278 O 0.67704 0.15097 0.96985 0.0
O279 O 0.65256 0.16155 0.96486 0.0
O280 O 0.80262 0.66763 0.9955 0.0
Cd281 Cd 0.81729 0.64694 0.99457 0.0
Cd282 Cd 0.83864 0.66853 0.98135 0.0
O283 O 0.8189 0.68452 0.98194 0.0
O284 O 0.80171 0.62803 0.99549 0.0
O285 O 0.81673 0.63388 0.97362 0.0
C286 C 0.80547 0.62497 0.9804 0.0
C287 C 0.85508 0.66606 0.95787 0.0
C288 C 0.80534 0.68162 0.98914 0.0
C289 C 0.84743 0.65362 0.01426 0.0
O290 O 0.85044 0.66437 0.00334 0.0
O291 O 0.83506 0.64417 0.01275 0.0
O292 O 0.85569 0.67888 0.96713 0.0
O293 O 0.84463 0.65473 0.96162 0.0
O294 O 0.66695 0.80274 0.00576 0.0
Cd295 Cd 0.64611 0.81715 0.00713 0.0
Cd296 Cd 0.66743 0.83841 0.02107 0.0
O297 O 0.68358 0.81882 0.01988 0.0
O298 O 0.62721 0.80154 0.00644 0.0
O299 O 0.63352 0.81631 0.02835 0.0
C300 C 0.62448 0.80512 0.02164 0.0
C301 C 0.66516 0.8544 0.04488 0.0
C302 C 0.68088 0.80545 0.01227 0.0
C303 C 0.65218 0.84805 0.98851 0.0
O304 O 0.66289 0.85084 0.99952 0.0
O305 O 0.643 0.83544 0.98952 0.0
O306 O 0.67788 0.85522 0.0355 0.0
O307 O 0.65385 0.84394 0.04109 0.0
O308 O 0.2036 0.66406 0.00734 0.0
Cd309 Cd 0.18908 0.64341 0.00949 0.0
Cd310 Cd 0.16875 0.66482 0.02385 0.0
O311 O 0.18906 0.68017 0.02351 0.0
O312 O 0.20445 0.62433 0.00879 0.0
O313 O 0.19017 0.63116 0.03088 0.0
C314 C 0.20113 0.62188 0.0241 0.0
C315 C 0.15225 0.66243 0.04733 0.0
C316 C 0.2018 0.67765 0.01481 0.0
C317 C 0.15868 0.65056 0.99094 0.0
O318 O 0.15652 0.66152 1.00185 0.0
O319 O 0.17059 0.64051 0.99219 0.0
O320 O 0.15211 0.67547 0.03835 0.0
O321 O 0.1623 0.65083 0.04332 0.0
O322 O 0.80186 0.33897 0.00541 0.0
Cd323 Cd 0.81587 0.36 0.00742 0.0
Cd324 Cd 0.83673 0.3393 0.02213 0.0
O325 O 0.81676 0.3235 0.02188 0.0
O326 O 0.80005 0.37873 0.00681 0.0
O327 O 0.81479 0.37235 0.02875 0.0
C328 C 0.80355 0.38136 0.02205 0.0
C329 C 0.85311 0.34182 0.04569 0.0
C330 C 0.804 0.32555 0.01309 0.0
C331 C 0.84654 0.35356 0.98909 0.0
O332 O 0.84897 0.3428 1.00015 0.0
O333 O 0.83431 0.36324 0.99014 0.0
O334 O 0.85352 0.32886 0.03662 0.0
O335 O 0.84291 0.35329 0.0417 0.0
O336 O 0.50721 0.83926 0.70267 0.0
Cd337 Cd 0.50819 0.85996 0.68804 0.0
Cd338 Cd 0.52148 0.83841 0.66671 0.0
O339 O 0.5209 0.82242 0.68645 0.0
O340 O 0.5073 0.87888 0.7036 0.0
O341 O 0.52916 0.87302 0.68857 0.0
C342 C 0.52238 0.88194 0.69981 0.0
C343 C 0.54488 0.84078 0.65013 0.0
C344 C 0.51361 0.82527 0.69997 0.0
C345 C 0.48852 0.85323 0.65794 0.0
O346 O 0.49946 0.8425 0.65495 0.0
O347 O 0.49001 0.86272 0.67027 0.0
O348 O 0.5356 0.82797 0.64964 0.0
O349 O 0.54121 0.85216 0.66055 0.0
O350 O 0.16768 0.50587 0.70301 0.0
Cd351 Cd 0.14675 0.50811 0.68891 0.0
Cd352 Cd 0.16777 0.52235 0.66811 0.0
O353 O 0.18345 0.52212 0.68819 0.0
O354 O 0.1279 0.50763 0.70458 0.0
O355 O 0.13464 0.52958 0.69003 0.0
C356 C 0.12547 0.52292 0.70114 0.0
C357 C 0.16526 0.54574 0.65147 0.0
C358 C 0.18121 0.51338 0.70095 0.0
C359 C 0.15323 0.48941 0.65851 0.0
O360 O 0.1642 0.50027 0.65609 0.0
O361 O 0.1434 0.49077 0.67058 0.0
O362 O 0.17824 0.53668 0.65119 0.0
O363 O 0.15379 0.54186 0.66172 0.0
O364 O 0.49619 0.16701 0.70402 0.0
Cd365 Cd 0.49566 0.14626 0.68942 0.0
Cd366 Cd 0.48228 0.16772 0.6679 0.0
O367 O 0.4827 0.18378 0.68757 0.0
O368 O 0.49697 0.12752 0.70518 0.0
O369 O 0.47505 0.1326 0.68995 0.0
C370 C 0.48201 0.12399 0.70133 0.0
C371 C 0.45883 0.16515 0.65141 0.0
C372 C 0.48979 0.18096 0.7012 0.0
C373 C 0.5154 0.1531 0.65932 0.0
O374 O 0.50435 0.16368 0.65619 0.0
O375 O 0.51399 0.14372 0.67175 0.0
O376 O 0.46808 0.17798 0.65079 0.0
O377 O 0.4626 0.15384 0.66188 0.0
O378 O 0.83775 0.49637 0.70285 0.0
Cd379 Cd 0.85864 0.49563 0.68847 0.0
Cd380 Cd 0.83741 0.48184 0.66693 0.0
O381 O 0.82128 0.48231 0.68655 0.0
O382 O 0.87742 0.49659 0.7042 0.0
O383 O 0.87178 0.47473 0.68909 0.0
C384 C 0.88058 0.48153 0.70042 0.0
C385 C 0.83983 0.45869 0.65 0.0
C386 C 0.8239 0.48972 0.70005 0.0
C387 C 0.85217 0.51488 0.65807 0.0
O388 O 0.84159 0.50379 0.65511 0.0
O389 O 0.86147 0.51369 0.67059 0.0
O390 O 0.82702 0.46798 0.64962 0.0
O391 O 0.85111 0.4621 0.66063 0.0
O392 O 0.50522 0.16495 0.30204 0.0
Cd393 Cd 0.50714 0.14443 0.31679 0.0
Cd394 Cd 0.52126 0.16604 0.33709 0.0
O395 O 0.52124 0.18117 0.31662 0.0
O396 O 0.50659 0.12519 0.3016 0.0
O397 O 0.52852 0.13211 0.31609 0.0
C398 C 0.52184 0.12274 0.30515 0.0
C399 C 0.54447 0.16369 0.35396 0.0
C400 C 0.51271 0.17853 0.30379 0.0
C401 C 0.48826 0.15183 0.34693 0.0
O402 O 0.49911 0.16286 0.34907 0.0
O403 O 0.48966 0.14168 0.33513 0.0
O404 O 0.53556 0.17677 0.35385 0.0
O405 O 0.54059 0.15204 0.34392 0.0
O406 O 0.83855 0.50803 0.30403 0.0
Cd407 Cd 0.85941 0.50915 0.31841 0.0
Cd408 Cd 0.83815 0.52293 0.33985 0.0
O409 O 0.82196 0.52202 0.32026 0.0
O410 O 0.87821 0.50828 0.30269 0.0
O411 O 0.87227 0.53022 0.31757 0.0
C412 C 0.88115 0.52343 0.30629 0.0
C413 C 0.84064 0.5466 0.35604 0.0
C414 C 0.82463 0.51455 0.3068 0.0
C415 C 0.85319 0.49014 0.34906 0.0
O416 O 0.84255 0.50118 0.35201 0.0
O417 O 0.86239 0.49129 0.33647 0.0
O418 O 0.82785 0.5373 0.35681 0.0
O419 O 0.8519 0.5428 0.34553 0.0
O420 O 0.49582 0.83841 0.30164 0.0
Cd421 Cd 0.4941 0.85879 0.31664 0.0
Cd422 Cd 0.48067 0.83695 0.33739 0.0
O423 O 0.48156 0.82146 0.31727 0.0
O424 O 0.4942 0.87849 0.30197 0.0
O425 O 0.47239 0.87045 0.3161 0.0
C426 C 0.47885 0.88032 0.30548 0.0
C427 C 0.45705 0.83931 0.35367 0.0
C428 C 0.48924 0.82444 0.30399 0.0
C429 C 0.51332 0.85174 0.34697 0.0
O430 O 0.50252 0.84078 0.34953 0.0
O431 O 0.51183 0.86154 0.33487 0.0
O432 O 0.46617 0.82637 0.35409 0.0
O433 O 0.46099 0.85079 0.34345 0.0
O434 O 0.1674 0.49608 0.30133 0.0
Cd435 Cd 0.14636 0.49564 0.31553 0.0
Cd436 Cd 0.16746 0.48243 0.33735 0.0
O437 O 0.18383 0.48233 0.31792 0.0
O438 O 0.12787 0.49663 0.29944 0.0
O439 O 0.13285 0.47494 0.31503 0.0
C440 C 0.12438 0.48169 0.30342 0.0
C441 C 0.16423 0.45968 0.35466 0.0
C442 C 0.18126 0.48951 0.30429 0.0
C443 C 0.15292 0.51575 0.3453 0.0
O444 O 0.16354 0.50477 0.34852 0.0
O445 O 0.14347 0.51414 0.33295 0.0
O446 O 0.17723 0.46871 0.35512 0.0
O447 O 0.15324 0.46312 0.34374 0.0
O448 O 0.70276 0.50796 0.83814 0.0
Cd449 Cd 0.68819 0.50926 0.85886 0.0
Cd450 Cd 0.66693 0.52257 0.8373 0.0
O451 O 0.68659 0.52163 0.82123 0.0
O452 O 0.70378 0.50854 0.87777 0.0
O453 O 0.68887 0.5304 0.8716 0.0
C454 C 0.7001 0.5237 0.8806 0.0
C455 C 0.65078 0.54627 0.83972 0.0
C456 C 0.70006 0.51426 0.82411 0.0
C457 C 0.65785 0.48984 0.85242 0.0
O458 O 0.65491 0.50074 0.84163 0.0
O459 O 0.67026 0.49127 0.86183 0.0
O460 O 0.65 0.53695 0.82695 0.0
O461 O 0.66124 0.54244 0.85103 0.0
O462 O 0.49655 0.70366 0.8375 0.0
Cd463 Cd 0.49624 0.68911 0.8583 0.0
Cd464 Cd 0.48308 0.66742 0.83692 0.0
O465 O 0.48312 0.68707 0.82082 0.0
O466 O 0.49734 0.70494 0.87698 0.0
O467 O 0.47563 0.68942 0.87195 0.0
C468 C 0.48243 0.70092 0.88052 0.0
C469 C 0.45999 0.65047 0.83963 0.0
C470 C 0.49009 0.70076 0.82358 0.0
C471 C 0.51634 0.6593 0.85146 0.0
O472 O 0.50533 0.65607 0.84088 0.0
O473 O 0.51478 0.67168 0.86088 0.0
O474 O 0.46918 0.65002 0.82675 0.0
O475 O 0.46358 0.66106 0.85089 0.0
O476 O 0.30284 0.4991 0.83918 0.0
Cd477 Cd 0.31688 0.49691 0.86016 0.0
Cd478 Cd 0.33758 0.48218 0.83939 0.0
O479 O 0.31756 0.48254 0.82365 0.0
O480 O 0.30121 0.49751 0.879 0.0
O481 O 0.31569 0.47549 0.87233 0.0
C482 C 0.3046 0.48222 0.88149 0.0
C483 C 0.35395 0.45862 0.84197 0.0
C484 C 0.30488 0.49143 0.82574 0.0
C485 C 0.34755 0.51516 0.85362 0.0
O486 O 0.34989 0.50413 0.84282 0.0
O487 O 0.33539 0.51409 0.86338 0.0
O488 O 0.35432 0.46763 0.82896 0.0
O489 O 0.34376 0.46265 0.85343 0.0
O490 O 0.5081 0.30183 0.83958 0.0
Cd491 Cd 0.50919 0.3165 0.86026 0.0
Cd492 Cd 0.52224 0.33783 0.83859 0.0
O493 O 0.5216 0.31808 0.82261 0.0
O494 O 0.50857 0.30098 0.87924 0.0
O495 O 0.53029 0.31612 0.87312 0.0
C496 C 0.52366 0.30486 0.88215 0.0
C497 C 0.54565 0.35441 0.84094 0.0
C498 C 0.51438 0.30455 0.82554 0.0
C499 C 0.48937 0.34654 0.85362 0.0
O500 O 0.50022 0.34954 0.84281 0.0
O501 O 0.49097 0.33422 0.86312 0.0
O502 O 0.53632 0.35495 0.82816 0.0
O503 O 0.54201 0.34394 0.85229 0.0
O504 O 0.70384 0.4968 0.16838 0.0
Cd505 Cd 0.68934 0.49614 0.14755 0.0
Cd506 Cd 0.66767 0.48322 0.16905 0.0
O507 O 0.68724 0.48361 0.18525 0.0
O508 O 0.7052 0.4971 0.12888 0.0
O509 O 0.68976 0.47539 0.13412 0.0
C510 C 0.70123 0.48215 0.12548 0.0
C511 C 0.65098 0.45995 0.16633 0.0
C512 C 0.70092 0.49058 0.1824 0.0
C513 C 0.65945 0.51625 0.15408 0.0
O514 O 0.6562 0.50536 0.16478 0.0
O515 O 0.67186 0.51459 0.14471 0.0
O516 O 0.65032 0.4692 0.17916 0.0
O517 O 0.66163 0.46359 0.15515 0.0
O518 O 0.50881 0.70354 0.16573 0.0
Cd519 Cd 0.50996 0.68869 0.14519 0.0
Cd520 Cd 0.52362 0.66777 0.1669 0.0
O521 O 0.52275 0.68765 0.18269 0.0
O522 O 0.5091 0.70401 0.12606 0.0
O523 O 0.53103 0.68922 0.13231 0.0
C524 C 0.52425 0.70032 0.12319 0.0
C525 C 0.54729 0.65155 0.16462 0.0
C526 C 0.51528 0.70104 0.17972 0.0
C527 C 0.49077 0.65835 0.15223 0.0
O528 O 0.50179 0.65562 0.16294 0.0
O529 O 0.49202 0.67064 0.14264 0.0
O530 O 0.53805 0.65102 0.17746 0.0
O531 O 0.54342 0.66182 0.15316 0.0
O532 O 0.30423 0.50727 0.16803 0.0
Cd533 Cd 0.3188 0.50815 0.14727 0.0
Cd534 Cd 0.34033 0.52113 0.16884 0.0
O535 O 0.32064 0.52066 0.18491 0.0
O536 O 0.30308 0.50723 0.12846 0.0
O537 O 0.3182 0.52907 0.13413 0.0
C538 C 0.30687 0.52229 0.12532 0.0
C539 C 0.35681 0.54456 0.16604 0.0
C540 C 0.30703 0.51356 0.18204 0.0
C541 C 0.34882 0.48822 0.15382 0.0
O542 O 0.35194 0.49905 0.16462 0.0
O543 O 0.33646 0.48989 0.14438 0.0
O544 O 0.35754 0.53536 0.17891 0.0
O545 O 0.34622 0.54076 0.15485 0.0
O546 O 0.50055 0.3009 0.16499 0.0
Cd547 Cd 0.49855 0.31558 0.14442 0.0
Cd548 Cd 0.48399 0.33581 0.16584 0.0
O549 O 0.48435 0.31542 0.18108 0.0
O550 O 0.49927 0.30039 0.12518 0.0
O551 O 0.4772 0.3147 0.13206 0.0
C552 C 0.48399 0.30383 0.12269 0.0
C553 C 0.46044 0.35224 0.16362 0.0
C554 C 0.49302 0.30267 0.17855 0.0
C555 C 0.51694 0.34605 0.15174 0.0
O556 O 0.50593 0.34816 0.16263 0.0
O557 O 0.51583 0.33411 0.14172 0.0
O558 O 0.46945 0.35232 0.17663 0.0
O559 O 0.46446 0.3423 0.15194 0.0
O560 O 0.83901 0.70424 0.50869 0.0
Cd561 Cd 0.85958 0.68945 0.51038 0.0
Cd562 Cd 0.83786 0.66842 0.52354 0.0
O563 O 0.82219 0.68842 0.52292 0.0
O564 O 0.87911 0.70433 0.51054 0.0
O565 O 0.87111 0.6899 0.53217 0.0
C566 C 0.8809 0.70069 0.52587 0.0
C567 C 0.8401 0.65144 0.54667 0.0
C568 C 0.82506 0.70175 0.51528 0.0
C569 C 0.85288 0.65934 0.49081 0.0
O570 O 0.84184 0.65668 0.50151 0.0
O571 O 0.86266 0.67142 0.4925 0.0
O572 O 0.82724 0.65126 0.53744 0.0
O573 O 0.85151 0.6619 0.54322 0.0
O574 O 0.83781 0.30068 0.49891 0.0
Cd575 Cd 0.85892 0.31455 0.49696 0.0
Cd576 Cd 0.83822 0.33537 0.48206 0.0
O577 O 0.82243 0.31537 0.48217 0.0
O578 O 0.87754 0.29864 0.49773 0.0
O579 O 0.87138 0.31332 0.47569 0.0
C580 C 0.88029 0.30207 0.4825 0.0
C581 C 0.84073 0.35244 0.45898 0.0
C582 C 0.82444 0.30271 0.4911 0.0
C583 C 0.85254 0.34524 0.51511 0.0
O584 O 0.84174 0.34753 0.50406 0.0
O585 O 0.86224 0.33303 0.51415 0.0
O586 O 0.82773 0.35248 0.468 0.0
O587 O 0.85215 0.34202 0.46257 0.0
O588 O 0.70183 0.83817 0.49659 0.0
Cd589 Cd 0.68677 0.8585 0.49472 0.0
Cd590 Cd 0.66596 0.83643 0.48182 0.0
O591 O 0.68616 0.82101 0.48263 0.0
O592 O 0.70145 0.87818 0.49446 0.0
O593 O 0.68717 0.86986 0.47285 0.0
C594 C 0.69785 0.8798 0.4791 0.0
C595 C 0.64944 0.83865 0.45835 0.0
C596 C 0.6995 0.82413 0.49016 0.0
C597 C 0.65663 0.85169 0.51431 0.0
O598 O 0.65404 0.84051 0.50374 0.0
O599 O 0.66866 0.86152 0.51252 0.0
O600 O 0.64911 0.82576 0.46754 0.0
O601 O 0.65971 0.85014 0.46212 0.0
O602 O 0.16693 0.70199 0.49649 0.0
Cd603 Cd 0.1462 0.68738 0.49577 0.0
Cd604 Cd 0.16767 0.66598 0.48242 0.0
O605 O 0.18374 0.68566 0.48291 0.0
O606 O 0.12744 0.70313 0.49684 0.0
O607 O 0.13284 0.68794 0.47498 0.0
C608 C 0.12414 0.69933 0.48181 0.0
C609 C 0.16492 0.64968 0.45886 0.0
C610 C 0.1809 0.69923 0.49007 0.0
C611 C 0.15299 0.65726 0.51546 0.0
O612 O 0.16362 0.65419 0.50444 0.0
O613 O 0.14356 0.66966 0.51402 0.0
O614 O 0.1778 0.64893 0.46804 0.0
O615 O 0.15367 0.66016 0.46277 0.0
O616 O 0.30097 0.1675 0.49742 0.0
Cd617 Cd 0.31572 0.14685 0.49696 0.0
Cd618 Cd 0.33721 0.16829 0.48369 0.0
O619 O 0.3174 0.1842 0.4838 0.0
O620 O 0.30024 0.12786 0.49776 0.0
O621 O 0.31557 0.13366 0.47609 0.0
C622 C 0.30425 0.12474 0.48275 0.0
C623 C 0.3539 0.16555 0.46042 0.0
C624 C 0.30375 0.18139 0.49086 0.0
C625 C 0.34567 0.15379 0.51685 0.0
O626 O 0.34878 0.16442 0.50585 0.0
O627 O 0.33333 0.14431 0.51534 0.0
O628 O 0.3544 0.17849 0.46952 0.0
O629 O 0.34343 0.15425 0.46421 0.0
O630 O 0.16454 0.30221 0.50651 0.0
Cd631 Cd 0.14401 0.31692 0.50888 0.0
Cd632 Cd 0.16577 0.33772 0.52261 0.0
O633 O 0.18145 0.31779 0.52089 0.0
O634 O 0.12439 0.30216 0.50929 0.0
O635 O 0.13307 0.31616 0.53094 0.0
C636 C 0.12303 0.30556 0.52471 0.0
C637 C 0.16431 0.35373 0.54648 0.0
C638 C 0.17856 0.30463 0.51296 0.0
C639 C 0.15006 0.34797 0.49051 0.0
O640 O 0.1611 0.35043 0.50127 0.0
O641 O 0.14066 0.33553 0.49165 0.0
O642 O 0.1769 0.35423 0.5369 0.0
O643 O 0.15271 0.34351 0.5429 0.0
O644 O 0.70123 0.16559 0.50528 0.0
Cd645 Cd 0.6869 0.14491 0.50835 0.0
Cd646 Cd 0.66658 0.16618 0.52275 0.0
O647 O 0.68697 0.18144 0.52198 0.0
O648 O 0.70181 0.1254 0.50863 0.0
O649 O 0.68823 0.13422 0.5305 0.0
C650 C 0.69875 0.12416 0.52414 0.0
C651 C 0.65035 0.16409 0.54647 0.0
C652 C 0.69948 0.17912 0.51289 0.0
C653 C 0.65608 0.15144 0.49026 0.0
O654 O 0.65407 0.16265 0.50095 0.0
O655 O 0.66801 0.14144 0.49159 0.0
O656 O 0.65013 0.17703 0.53736 0.0
O657 O 0.66033 0.15243 0.54245 0.0
O658 O 0.30075 0.83847 0.50818 0.0
Cd659 Cd 0.31535 0.85921 0.50904 0.0
Cd660 Cd 0.33673 0.83782 0.52243 0.0
O661 O 0.31708 0.82174 0.52188 0.0
O662 O 0.29979 0.87816 0.50824 0.0
O663 O 0.31498 0.87228 0.52999 0.0
C664 C 0.3037 0.88123 0.52329 0.0
C665 C 0.3532 0.84048 0.54588 0.0
C666 C 0.30354 0.82451 0.5146 0.0
C667 C 0.34546 0.85245 0.48938 0.0
O668 O 0.34852 0.84183 0.50041 0.0
O669 O 0.33307 0.86189 0.4908 0.0
O670 O 0.35383 0.82761 0.53669 0.0
O671 O 0.34271 0.85175 0.54208 0.0
C672 C 0.10863 0.45574 0.2977 0.0
C673 C 0.11193 0.47228 0.294 0.0
C674 C 0.0981 0.44648 0.28773 0.0
C675 C 0.08188 0.44498 0.24544 0.0
H676 H 0.05059 0.41404 0.2636 0.0
C677 C 0.04828 0.39582 0.20617 0.0
C678 C 0.03168 0.39279 0.2098 0.0
C679 C 0.05765 0.40628 0.21612 0.0
C680 C 0.05918 0.42271 0.25832 0.0
H681 H 0.10632 0.49217 0.27717 0.0
H682 H 0.08794 0.47607 0.25991 0.0
H683 H 0.06725 0.43081 0.28202 0.0
H684 H 0.01178 0.3988 0.22649 0.0
H685 H 0.02807 0.41705 0.24371 0.0
H686 H 0.07377 0.43691 0.22174 0.0
C687 C 0.09365 0.47019 0.27038 0.0
C688 C 0.06885 0.4322 0.26889 0.0
C689 C 0.1041 0.47945 0.28038 0.0
C690 C 0.02455 0.40082 0.22333 0.0
C691 C 0.03392 0.41119 0.23331 0.0
C692 C 0.07228 0.4354 0.23487 0.0
C693 C 0.0907 0.45353 0.27379 0.0
C694 C 0.0803 0.44348 0.26259 0.0
C695 C 0.05064 0.41387 0.22997 0.0
C696 C 0.0608 0.42417 0.24118 0.0
H697 H 0.1145 0.44982 0.30807 0.0
H698 H 0.09617 0.43365 0.29065 0.0
H699 H 0.09071 0.4534 0.24017 0.0
H700 H 0.05418 0.3898 0.19588 0.0
H701 H 0.07053 0.40799 0.21326 0.0
C702 C 0.60957 0.04803 0.20827 0.0
C703 C 0.61122 0.03104 0.21086 0.0
C704 C 0.59926 0.05744 0.21831 0.0
C705 C 0.56482 0.05449 0.24815 0.0
H706 H 0.58096 0.0968 0.2628 0.0
C707 C 0.52428 0.10096 0.28354 0.0
C708 C 0.53164 0.11042 0.29596 0.0
C709 C 0.53375 0.09061 0.27363 0.0
C710 C 0.57633 0.08495 0.25896 0.0
H711 H 0.60294 0.01058 0.22578 0.0
H712 H 0.58508 0.02696 0.24327 0.0
H713 H 0.59754 0.0803 0.24415 0.0
H714 H 0.55471 0.11598 0.30805 0.0
H715 H 0.57121 0.09773 0.29091 0.0
H716 H 0.54374 0.05901 0.26322 0.0
C717 C 0.59163 0.03302 0.23341 0.0
C718 C 0.58573 0.07558 0.24806 0.0
C719 C 0.60194 0.02362 0.22339 0.0
C720 C 0.54864 0.10889 0.29858 0.0
C721 C 0.55812 0.09853 0.28865 0.0
C722 C 0.5554 0.06387 0.25905 0.0
C723 C 0.59033 0.0501 0.23116 0.0
C724 C 0.58011 0.06022 0.2425 0.0
C725 C 0.55083 0.08944 0.27588 0.0
C726 C 0.56103 0.07923 0.2646 0.0
H727 H 0.61653 0.05414 0.19872 0.0
H728 H 0.59835 0.07052 0.21605 0.0
H729 H 0.56003 0.04278 0.24404 0.0
H730 H 0.51122 0.10187 0.28113 0.0
H731 H 0.52772 0.08393 0.26383 0.0
C732 C 0.97928 0.60217 0.22215 0.0
C733 C 0.97175 0.61131 0.20958 0.0
C734 C 0.96998 0.59192 0.23232 0.0
C735 C 0.92762 0.58624 0.24748 0.0
H736 H 0.94428 0.54439 0.26294 0.0
C737 C 0.89515 0.55001 0.29919 0.0
C738 C 0.8934 0.53301 0.29678 0.0
C739 C 0.90536 0.5593 0.28893 0.0
C740 C 0.9394 0.55601 0.25869 0.0
H741 H 0.94856 0.61642 0.19752 0.0
H742 H 0.93234 0.59835 0.21514 0.0
H743 H 0.96027 0.56037 0.24329 0.0
H744 H 0.90144 0.51238 0.28197 0.0
H745 H 0.91916 0.52853 0.26412 0.0
H746 H 0.90662 0.58175 0.26265 0.0
C747 C 0.94543 0.59931 0.21729 0.0
C748 C 0.94864 0.56524 0.24752 0.0
C749 C 0.95475 0.60956 0.20709 0.0
C750 C 0.90252 0.52544 0.28422 0.0
C751 C 0.91274 0.53471 0.27399 0.0
C752 C 0.91839 0.57702 0.25867 0.0
C753 C 0.95289 0.59055 0.2302 0.0
C754 C 0.94287 0.58048 0.24176 0.0
C755 C 0.9141 0.5518 0.27604 0.0
C756 C 0.92415 0.56178 0.26443 0.0
H757 H 0.99233 0.60326 0.22446 0.0
H758 H 0.97612 0.58549 0.24221 0.0
H759 H 0.92288 0.598 0.24349 0.0
H760 H 0.88831 0.55624 0.30875 0.0
H761 H 0.90632 0.57239 0.29103 0.0
C762 C 0.45184 0.88967 0.29421 0.0
C763 C 0.46871 0.89241 0.29643 0.0
C764 C 0.44263 0.89983 0.28384 0.0
C765 C 0.44797 0.93074 0.25007 0.0
H766 H 0.40119 0.93677 0.25656 0.0
C767 C 0.40617 0.97829 0.21611 0.0
C768 C 0.39248 0.9714 0.20818 0.0
C769 C 0.41612 0.96867 0.22631 0.0
C770 C 0.41425 0.93511 0.2546 0.0
H771 H 0.48903 0.9084 0.29024 0.0
H772 H 0.47286 0.92674 0.27302 0.0
H773 H 0.41698 0.9211 0.27659 0.0
H774 H 0.37856 0.94899 0.20457 0.0
H775 H 0.3957 0.93231 0.22285 0.0
H776 H 0.44512 0.94551 0.2284 0.0
C777 C 0.46676 0.91634 0.27861 0.0
C778 C 0.42333 0.92603 0.26602 0.0
C779 C 0.47604 0.90594 0.28867 0.0
C780 C 0.38911 0.95461 0.21041 0.0
C781 C 0.39882 0.9451 0.22093 0.0
C782 C 0.43893 0.94015 0.23888 0.0
C783 C 0.44998 0.91324 0.2757 0.0
C784 C 0.44034 0.92355 0.26387 0.0
C785 C 0.41231 0.95209 0.22909 0.0
C786 C 0.42197 0.94227 0.24097 0.0
H787 H 0.44588 0.87922 0.29988 0.0
H788 H 0.42987 0.89674 0.2818 0.0
H789 H 0.46091 0.92889 0.24766 0.0
H790 H 0.40904 0.9912 0.21464 0.0
H791 H 0.42646 0.97431 0.23251 0.0
C792 C 0.112 0.54977 0.70819 0.0
C793 C 0.11337 0.53274 0.7106 0.0
C794 C 0.10182 0.55924 0.71831 0.0
C795 C 0.06719 0.55656 0.74789 0.0
H796 H 0.0841 0.59831 0.7633 0.0
C797 C 0.02732 0.60365 0.7832 0.0
C798 C 0.03471 0.61274 0.79588 0.0
C799 C 0.03666 0.59315 0.77335 0.0
C800 C 0.07925 0.58662 0.75925 0.0
H801 H 0.10474 0.51224 0.72527 0.0
H802 H 0.08707 0.52872 0.74289 0.0
H803 H 0.10049 0.58171 0.74456 0.0
H804 H 0.05769 0.61747 0.80849 0.0
H805 H 0.07398 0.59896 0.79141 0.0
H806 H 0.04606 0.56135 0.7628 0.0
C807 C 0.09375 0.53478 0.73312 0.0
C808 C 0.08856 0.5772 0.7483 0.0
C809 C 0.10395 0.52533 0.72303 0.0
C810 C 0.0516 0.61066 0.79882 0.0
C811 C 0.06097 0.60016 0.78893 0.0
C812 C 0.05787 0.566 0.75882 0.0
C813 C 0.09274 0.55189 0.73105 0.0
C814 C 0.08265 0.56205 0.74247 0.0
C815 C 0.05366 0.59146 0.7759 0.0
C816 C 0.06377 0.58116 0.76464 0.0
H817 H 0.11908 0.55588 0.69873 0.0
H818 H 0.10113 0.57236 0.7162 0.0
H819 H 0.0622 0.54502 0.74357 0.0
H820 H 0.01435 0.60498 0.78055 0.0
H821 H 0.03064 0.58678 0.76335 0.0
C822 C 0.39725 0.04644 0.79827 0.0
C823 C 0.39469 0.02972 0.79482 0.0
C824 C 0.40753 0.05596 0.78829 0.0
C825 C 0.42416 0.0576 0.74622 0.0
H826 H 0.4542 0.08975 0.76438 0.0
C827 C 0.45629 0.10782 0.70698 0.0
C828 C 0.47279 0.11133 0.71066 0.0
C829 C 0.44721 0.09708 0.7169 0.0
C830 C 0.44595 0.08075 0.7591 0.0
H831 H 0.4013 0.00981 0.77839 0.0
H832 H 0.41922 0.02639 0.76107 0.0
H833 H 0.43797 0.07254 0.7828 0.0
H834 H 0.49281 0.10589 0.72741 0.0
H835 H 0.47701 0.08717 0.74459 0.0
H836 H 0.43216 0.06581 0.72251 0.0
C837 C 0.41315 0.03218 0.77139 0.0
C838 C 0.43654 0.071 0.76967 0.0
C839 C 0.40297 0.02265 0.78141 0.0
C840 C 0.48012 0.1035 0.72421 0.0
C841 C 0.47103 0.09286 0.73416 0.0
C842 C 0.43349 0.06744 0.73564 0.0
C843 C 0.41539 0.049 0.77457 0.0
C844 C 0.42554 0.05929 0.76336 0.0
C845 C 0.4544 0.08969 0.73077 0.0
C846 C 0.44452 0.07911 0.74196 0.0
H847 H 0.39102 0.05228 0.80847 0.0
H848 H 0.40891 0.0689 0.79102 0.0
H849 H 0.41567 0.04883 0.74095 0.0
H850 H 0.45025 0.11367 0.69667 0.0
H851 H 0.4344 0.09497 0.714 0.0
C852 C 0.89511 0.45512 0.70713 0.0
C853 C 0.89302 0.47205 0.70979 0.0
C854 C 0.90554 0.4459 0.71723 0.0
C855 C 0.91902 0.42802 0.74719 0.0
H856 H 0.96053 0.44534 0.76283 0.0
C857 C 0.95594 0.3956 0.79843 0.0
C858 C 0.97298 0.39424 0.796 0.0
C859 C 0.94644 0.40578 0.78831 0.0
C860 C 0.94901 0.44027 0.75852 0.0
H861 H 0.90069 0.49263 0.72486 0.0
H862 H 0.91878 0.47659 0.74244 0.0
H863 H 0.9442 0.46124 0.74338 0.0
H864 H 0.99345 0.40293 0.78133 0.0
H865 H 0.97693 0.42057 0.76372 0.0
H866 H 0.92395 0.40693 0.76209 0.0
C867 C 0.91247 0.47042 0.7325 0.0
C868 C 0.93957 0.44946 0.74747 0.0
C869 C 0.90203 0.47963 0.72243 0.0
C870 C 0.98037 0.40371 0.78359 0.0
C871 C 0.97089 0.41389 0.7735 0.0
C872 C 0.92844 0.41885 0.75826 0.0
C873 C 0.91417 0.45339 0.73021 0.0
C874 C 0.92445 0.44345 0.74166 0.0
C875 C 0.95376 0.41485 0.77555 0.0
C876 C 0.94356 0.42485 0.76407 0.0
H877 H 0.88837 0.4489 0.6975 0.0
H878 H 0.90676 0.43286 0.71495 0.0
H879 H 0.90735 0.42309 0.74315 0.0
H880 H 0.94985 0.38849 0.80788 0.0
H881 H 0.93332 0.40643 0.79042 0.0
C882 C 0.60049 0.98183 0.7825 0.0
C883 C 0.60991 0.97445 0.79496 0.0
C884 C 0.59031 0.97235 0.77243 0.0
C885 C 0.58523 0.92987 0.75736 0.0
H886 H 0.54291 0.94573 0.74235 0.0
C887 C 0.54885 0.8964 0.70642 0.0
C888 C 0.53191 0.89441 0.70909 0.0
C889 C 0.55811 0.90686 0.71645 0.0
C890 C 0.55466 0.94108 0.74648 0.0
H891 H 0.61557 0.95135 0.80694 0.0
H892 H 0.59762 0.93483 0.7895 0.0
H893 H 0.55885 0.96208 0.76174 0.0
H894 H 0.51134 0.90227 0.72409 0.0
H895 H 0.52745 0.9204 0.74155 0.0
H896 H 0.58092 0.90873 0.74235 0.0
C897 C 0.59832 0.94793 0.78735 0.0
C898 C 0.56388 0.95053 0.75749 0.0
C899 C 0.6085 0.95743 0.79745 0.0
C900 C 0.52436 0.90353 0.72165 0.0
C901 C 0.5336 0.914 0.73165 0.0
C902 C 0.57603 0.92044 0.74633 0.0
C903 C 0.58929 0.95524 0.77455 0.0
C904 C 0.57928 0.94504 0.76309 0.0
C905 C 0.55064 0.91561 0.72936 0.0
C906 C 0.56062 0.92591 0.74075 0.0
H907 H 0.60131 0.9949 0.7802 0.0
H908 H 0.58366 0.97838 0.76262 0.0
H909 H 0.59713 0.92535 0.76122 0.0
H910 H 0.55505 0.88957 0.69684 0.0
H911 H 0.57116 0.90801 0.71416 0.0
C912 C 0.20724 0.04974 0.39562 0.0
C913 C 0.21 0.03279 0.39381 0.0
C914 C 0.21719 0.05914 0.40604 0.0
C915 C 0.24704 0.05625 0.44044 0.0
H916 H 0.26195 0.09839 0.42404 0.0
C917 C 0.28255 0.10301 0.48057 0.0
C918 C 0.29512 0.11224 0.47314 0.0
C919 C 0.27263 0.09258 0.47122 0.0
C920 C 0.25803 0.08658 0.42875 0.0
H921 H 0.22502 0.01236 0.40198 0.0
H922 H 0.24232 0.02872 0.42007 0.0
H923 H 0.24316 0.0819 0.40758 0.0
H924 H 0.30745 0.11728 0.45008 0.0
H925 H 0.29024 0.09891 0.43378 0.0
H926 H 0.26213 0.06083 0.46149 0.0
C927 C 0.23243 0.03476 0.41354 0.0
C928 C 0.24706 0.07723 0.41941 0.0
C929 C 0.22253 0.02538 0.4031 0.0
C930 C 0.29787 0.11037 0.4562 0.0
C931 C 0.28791 0.09994 0.44683 0.0
C932 C 0.25799 0.06563 0.4498 0.0
C933 C 0.23008 0.05181 0.41493 0.0
C934 C 0.24142 0.06194 0.42513 0.0
C935 C 0.27499 0.09112 0.45418 0.0
C936 C 0.26364 0.08091 0.44407 0.0
H937 H 0.19769 0.05584 0.38866 0.0
H938 H 0.21486 0.07219 0.40703 0.0
H939 H 0.24286 0.04459 0.44528 0.0
H940 H 0.28005 0.10418 0.49358 0.0
H941 H 0.26272 0.08609 0.47727 0.0
C942 C 0.90054 0.27901 0.48006 0.0
C943 C 0.89247 0.29249 0.47289 0.0
C944 C 0.91083 0.26895 0.47069 0.0
C945 C 0.93498 0.26731 0.43236 0.0
H946 H 0.93054 0.22015 0.43744 0.0
C947 C 0.97941 0.22196 0.40092 0.0
C948 C 0.97231 0.2084 0.39293 0.0
C949 C 0.97004 0.23188 0.41134 0.0
C950 C 0.93189 0.23328 0.43584 0.0
H951 H 0.88926 0.30622 0.45029 0.0
H952 H 0.90733 0.28871 0.43395 0.0
H953 H 0.91364 0.23855 0.45404 0.0
H954 H 0.94987 0.19435 0.39005 0.0
H955 H 0.93352 0.21163 0.40836 0.0
H956 H 0.95308 0.26205 0.41402 0.0
C957 C 0.90571 0.28595 0.44686 0.0
C958 C 0.92232 0.24384 0.44546 0.0
C959 C 0.89532 0.29596 0.45622 0.0
C960 C 0.95574 0.20467 0.39605 0.0
C961 C 0.94637 0.21456 0.40657 0.0
C962 C 0.94463 0.25677 0.42283 0.0
C963 C 0.91339 0.27217 0.45393 0.0
C964 C 0.92373 0.26098 0.44381 0.0
C965 C 0.95335 0.22845 0.41411 0.0
C966 C 0.94319 0.23962 0.42443 0.0
H967 H 0.89864 0.27598 0.49287 0.0
H968 H 0.91675 0.2586 0.47658 0.0
H969 H 0.93644 0.28045 0.43086 0.0
H970 H 0.99214 0.22519 0.39883 0.0
H971 H 0.97586 0.24233 0.41717 0.0
C972 C 0.71488 0.90522 0.47583 0.0
C973 C 0.70691 0.89166 0.46873 0.0
C974 C 0.72502 0.91535 0.46634 0.0
C975 C 0.75309 0.91398 0.43255 0.0
H976 H 0.74669 0.96088 0.42775 0.0
C977 C 0.79323 0.95245 0.38836 0.0
C978 C 0.79575 0.96917 0.3917 0.0
C979 C 0.78266 0.94308 0.39815 0.0
C980 C 0.74894 0.94786 0.4292 0.0
H981 H 0.70313 0.8782 0.44607 0.0
H982 H 0.72129 0.89565 0.42961 0.0
H983 H 0.72729 0.94483 0.44396 0.0
H984 H 0.78983 0.98901 0.40836 0.0
H985 H 0.77225 0.97253 0.42606 0.0
H986 H 0.77507 0.91686 0.41857 0.0
C987 C 0.71946 0.89852 0.44247 0.0
C988 C 0.73767 0.93868 0.43837 0.0
C989 C 0.709 0.88863 0.45186 0.0
C990 C 0.78803 0.97616 0.40543 0.0
C991 C 0.77777 0.96671 0.41547 0.0
C992 C 0.76458 0.92319 0.42371 0.0
C993 C 0.72768 0.91185 0.44967 0.0
C994 C 0.73958 0.92165 0.44 0.0
C995 C 0.7746 0.95009 0.41178 0.0
C996 C 0.76264 0.94029 0.42176 0.0
H997 H 0.71352 0.90783 0.4888 0.0
H998 H 0.73127 0.92555 0.47215 0.0
H999 H 0.75492 0.90086 0.43384 0.0
H1000 H 0.79885 0.94676 0.37773 0.0
H1001 H 0.78042 0.93047 0.39461 0.0
C1002 C 0.04977 0.79761 0.39575 0.0
C1003 C 0.03315 0.79421 0.39254 0.0
C1004 C 0.0589 0.78749 0.40626 0.0
C1005 C 0.05978 0.7452 0.42247 0.0
H1006 H 0.09105 0.76282 0.45373 0.0
C1007 C 0.10864 0.70526 0.45576 0.0
C1008 C 0.11173 0.70878 0.47238 0.0
C1009 C 0.09823 0.71534 0.44647 0.0
C1010 C 0.08228 0.7577 0.44514 0.0
H1011 H 0.01298 0.77776 0.39827 0.0
H1012 H 0.02885 0.76023 0.4166 0.0
H1013 H 0.0745 0.78154 0.43714 0.0
H1014 H 0.10587 0.72538 0.49237 0.0
H1015 H 0.08771 0.74284 0.47622 0.0
H1016 H 0.06754 0.72136 0.43049 0.0
C1017 C 0.03489 0.77059 0.41085 0.0
C1018 C 0.07292 0.76843 0.43552 0.0
C1019 C 0.02576 0.78074 0.40044 0.0
C1020 C 0.1038 0.72231 0.4796 0.0
C1021 C 0.09348 0.73242 0.47031 0.0
C1022 C 0.06923 0.73447 0.43201 0.0
C1023 C 0.05163 0.77369 0.41372 0.0
C1024 C 0.06153 0.76232 0.42408 0.0
C1025 C 0.09076 0.72921 0.45357 0.0
C1026 C 0.08057 0.74058 0.44348 0.0
H1027 H 0.05586 0.80785 0.38984 0.0
H1028 H 0.07179 0.79017 0.40813 0.0
H1029 H 0.05125 0.74008 0.41364 0.0
H1030 H 0.1146 0.69497 0.44979 0.0
H1031 H 0.09648 0.71258 0.43358 0.0
C1032 C 0.22215 0.98165 0.60199 0.0
C1033 C 0.20973 0.97433 0.61151 0.0
C1034 C 0.23211 0.97211 0.59174 0.0
C1035 C 0.24696 0.92956 0.58657 0.0
H1036 H 0.26162 0.94527 0.54408 0.0
C1037 C 0.29739 0.89577 0.54978 0.0
C1038 C 0.29455 0.89375 0.53287 0.0
C1039 C 0.2875 0.9063 0.55911 0.0
C1040 C 0.25759 0.94066 0.55589 0.0
H1041 H 0.19771 0.95129 0.61728 0.0
H1042 H 0.21494 0.93468 0.59922 0.0
H1043 H 0.24248 0.96175 0.56019 0.0
H1044 H 0.27936 0.90162 0.51244 0.0
H1045 H 0.26213 0.91987 0.52867 0.0
H1046 H 0.26182 0.90833 0.58216 0.0
C1047 C 0.21715 0.94777 0.59989 0.0
C1048 C 0.24671 0.95018 0.56519 0.0
C1049 C 0.20717 0.95732 0.61014 0.0
C1050 C 0.28193 0.9029 0.52543 0.0
C1051 C 0.27207 0.91344 0.53474 0.0
C1052 C 0.25785 0.92005 0.57729 0.0
C1053 C 0.22991 0.95501 0.59075 0.0
C1054 C 0.24124 0.94475 0.58065 0.0
C1055 C 0.27455 0.91508 0.55175 0.0
C1056 C 0.2633 0.92546 0.56181 0.0
H1057 H 0.22451 0.99471 0.60278 0.0
H1058 H 0.24189 0.9781 0.585 0.0
H1059 H 0.24319 0.92508 0.59851 0.0
H1060 H 0.30701 0.88891 0.5559 0.0
H1061 H 0.28992 0.90747 0.57213 0.0
C1062 C 0.02624 0.21652 0.59939 0.0
C1063 C 0.0332 0.20892 0.61321 0.0
C1064 C 0.03576 0.22658 0.58921 0.0
C1065 C 0.07939 0.23927 0.58071 0.0
H1066 H 0.05805 0.27652 0.56006 0.0
C1067 C 0.11443 0.29426 0.55198 0.0
C1068 C 0.11126 0.29644 0.53516 0.0
C1069 C 0.10453 0.28388 0.56145 0.0
C1070 C 0.06412 0.26614 0.56575 0.0
H1071 H 0.05562 0.2058 0.62717 0.0
H1072 H 0.07204 0.22386 0.61001 0.0
H1073 H 0.04185 0.25743 0.5765 0.0
H1074 H 0.09483 0.29003 0.51521 0.0
H1075 H 0.0771 0.2724 0.53199 0.0
H1076 H 0.1018 0.24862 0.57045 0.0
C1077 C 0.0594 0.2217 0.60654 0.0
C1078 C 0.05485 0.25505 0.57506 0.0
C1079 C 0.04995 0.21134 0.61648 0.0
C1080 C 0.09756 0.28859 0.52815 0.0
C1081 C 0.08742 0.27853 0.53772 0.0
C1082 C 0.0887 0.25058 0.57172 0.0
C1083 C 0.05242 0.22964 0.59282 0.0
C1084 C 0.06231 0.24138 0.58266 0.0
C1085 C 0.09103 0.27581 0.55436 0.0
C1086 C 0.08114 0.26407 0.56413 0.0
H1087 H 0.01336 0.21481 0.59652 0.0
H1088 H 0.02996 0.23202 0.57856 0.0
H1089 H 0.08564 0.22878 0.58597 0.0
H1090 H 0.12496 0.30004 0.5577 0.0
H1091 H 0.10749 0.28201 0.57428 0.0
C1092 C 0.79341 0.05114 0.61568 0.0
C1093 C 0.79577 0.03437 0.61237 0.0
C1094 C 0.78301 0.06061 0.6058 0.0
C1095 C 0.76546 0.06511 0.56531 0.0
H1096 H 0.72794 0.08503 0.5868 0.0
C1097 C 0.71576 0.09873 0.52748 0.0
C1098 C 0.70805 0.11246 0.5345 0.0
C1099 C 0.72587 0.08856 0.53696 0.0
C1100 C 0.73847 0.07985 0.58056 0.0
H1101 H 0.78965 0.01453 0.59571 0.0
H1102 H 0.77199 0.03132 0.57801 0.0
H1103 H 0.74778 0.06948 0.60294 0.0
H1104 H 0.70481 0.12628 0.55698 0.0
H1105 H 0.72298 0.10915 0.57333 0.0
H1106 H 0.7568 0.07597 0.54308 0.0
C1107 C 0.778 0.03701 0.58843 0.0
C1108 C 0.74978 0.07084 0.58985 0.0
C1109 C 0.78808 0.02743 0.59855 0.0
C1110 C 0.71044 0.11566 0.55126 0.0
C1111 C 0.72085 0.10573 0.56067 0.0
C1112 C 0.75437 0.07444 0.55605 0.0
C1113 C 0.7751 0.05359 0.59218 0.0
C1114 C 0.76334 0.06336 0.5823 0.0
C1115 C 0.72888 0.09209 0.55364 0.0
C1116 C 0.74064 0.08193 0.56351 0.0
H1117 H 0.79906 0.05681 0.62631 0.0
H1118 H 0.78101 0.0734 0.60887 0.0
H1119 H 0.77589 0.0595 0.55923 0.0
H1120 H 0.71407 0.0959 0.51459 0.0
H1121 H 0.73138 0.07798 0.53112 0.0
C1122 C 0.90639 0.71763 0.52895 0.0
C1123 C 0.89285 0.70975 0.53614 0.0
C1124 C 0.91667 0.72769 0.53836 0.0
C1125 C 0.92597 0.74011 0.58191 0.0
H1126 H 0.94551 0.77788 0.56043 0.0
C1127 C 0.95425 0.79565 0.61652 0.0
C1128 C 0.97107 0.79787 0.61329 0.0
C1129 C 0.9448 0.78516 0.60671 0.0
C1130 C 0.94013 0.76735 0.56654 0.0
H1131 H 0.8795 0.70612 0.55885 0.0
H1132 H 0.89681 0.72421 0.57508 0.0
H1133 H 0.92905 0.75865 0.54444 0.0
H1134 H 0.991 0.79141 0.59687 0.0
H1135 H 0.97424 0.77362 0.57929 0.0
H1136 H 0.93653 0.74949 0.60416 0.0
C1137 C 0.90001 0.72225 0.56233 0.0
C1138 C 0.93081 0.75619 0.55738 0.0
C1139 C 0.88998 0.71187 0.553 0.0
C1140 C 0.97807 0.78995 0.59964 0.0
C1141 C 0.96851 0.77979 0.58959 0.0
C1142 C 0.93496 0.75151 0.59111 0.0
C1143 C 0.91342 0.7305 0.55513 0.0
C1144 C 0.92361 0.74233 0.5649 0.0
C1145 C 0.95189 0.77703 0.59326 0.0
C1146 C 0.94215 0.76519 0.58349 0.0
H1147 H 0.90896 0.71614 0.51598 0.0
H1148 H 0.92709 0.73336 0.53237 0.0
H1149 H 0.92103 0.7295 0.58818 0.0
H1150 H 0.94854 0.80147 0.62703 0.0
H1151 H 0.93198 0.78325 0.60973 0.0
C1152 C 0.48178 0.28224 0.10086 0.0
C1153 C 0.47429 0.29459 0.11032 0.0
C1154 C 0.47242 0.27231 0.09043 0.0
C1155 C 0.42994 0.25744 0.08449 0.0
H1156 H 0.4465 0.24283 0.04231 0.0
C1157 C 0.397 0.20692 0.04708 0.0
C1158 C 0.39539 0.20965 0.03012 0.0
C1159 C 0.40728 0.21689 0.05661 0.0
C1160 C 0.44164 0.24685 0.05402 0.0
H1161 H 0.45113 0.30652 0.11582 0.0
H1162 H 0.43482 0.28935 0.09744 0.0
H1163 H 0.46263 0.26199 0.05873 0.0
H1164 H 0.40371 0.22474 0.0098 0.0
H1165 H 0.42151 0.24211 0.02637 0.0
H1166 H 0.40882 0.24256 0.07965 0.0
C1167 C 0.44791 0.28716 0.09829 0.0
C1168 C 0.45097 0.25773 0.06351 0.0
C1169 C 0.45729 0.29711 0.10873 0.0
C1170 C 0.40468 0.22224 0.02282 0.0
C1171 C 0.41496 0.23219 0.03233 0.0
C1172 C 0.42063 0.24655 0.07501 0.0
C1173 C 0.45532 0.27447 0.08919 0.0
C1174 C 0.44524 0.26318 0.07887 0.0
C1175 C 0.4162 0.22981 0.0494 0.0
C1176 C 0.42635 0.24111 0.05965 0.0
H1177 H 0.49484 0.27991 0.10182 0.0
H1178 H 0.47853 0.26257 0.08375 0.0
H1179 H 0.42523 0.26118 0.09635 0.0
H1180 H 0.39003 0.19731 0.0531 0.0
H1181 H 0.40814 0.21452 0.06967 0.0
C1182 C 0.39649 0.79728 0.95745 0.0
C1183 C 0.39395 0.79387 0.97418 0.0
C1184 C 0.40687 0.78735 0.94799 0.0
C1185 C 0.42393 0.74544 0.94655 0.0
H1186 H 0.45386 0.76377 0.91439 0.0
C1187 C 0.45662 0.70634 0.89661 0.0
C1188 C 0.47309 0.71018 0.89313 0.0
C1189 C 0.4474 0.7162 0.90729 0.0
C1190 C 0.44565 0.75845 0.9234 0.0
H1191 H 0.40069 0.77758 0.99417 0.0
H1192 H 0.41879 0.76036 0.97769 0.0
H1193 H 0.43739 0.7821 0.93147 0.0
H1194 H 0.49291 0.72716 0.89854 0.0
H1195 H 0.47688 0.74425 0.91714 0.0
H1196 H 0.43221 0.72179 0.93849 0.0
C1197 C 0.41263 0.7706 0.97184 0.0
C1198 C 0.43609 0.76896 0.93307 0.0
C1199 C 0.40235 0.78057 0.98132 0.0
C1200 C 0.48025 0.72384 0.90091 0.0
C1201 C 0.47102 0.73373 0.91149 0.0
C1202 C 0.4334 0.73492 0.93679 0.0
C1203 C 0.41486 0.77373 0.95502 0.0
C1204 C 0.42514 0.76259 0.94479 0.0
C1205 C 0.45443 0.73018 0.91462 0.0
C1206 C 0.4444 0.7413 0.92512 0.0
H1207 H 0.39018 0.8074 0.95156 0.0
H1208 H 0.40824 0.79005 0.93503 0.0
H1209 H 0.41548 0.74012 0.95534 0.0
H1210 H 0.45071 0.69594 0.89079 0.0
H1211 H 0.43462 0.71317 0.90937 0.0
C1212 C 0.29773 0.45548 0.89529 0.0
C1213 C 0.29514 0.47247 0.89364 0.0
C1214 C 0.28765 0.44605 0.90556 0.0
C1215 C 0.25766 0.44898 0.93985 0.0
H1216 H 0.24313 0.40664 0.92366 0.0
C1217 C 0.20722 0.39451 0.95583 0.0
C1218 C 0.20977 0.39298 0.97284 0.0
C1219 C 0.21718 0.40488 0.94639 0.0
C1220 C 0.24693 0.4185 0.92831 0.0
H1221 H 0.28016 0.49292 0.90183 0.0
H1222 H 0.26258 0.47651 0.9196 0.0
H1223 H 0.26182 0.42318 0.90716 0.0
H1224 H 0.22452 0.40154 0.99331 0.0
H1225 H 0.24188 0.41949 0.97688 0.0
H1226 H 0.24251 0.44443 0.96086 0.0
C1227 C 0.27248 0.47046 0.9131 0.0
C1228 C 0.25785 0.42789 0.91894 0.0
C1229 C 0.28255 0.47987 0.90285 0.0
C1230 C 0.22217 0.40245 0.98025 0.0
C1231 C 0.23211 0.41281 0.97082 0.0
C1232 C 0.24674 0.43958 0.94923 0.0
C1233 C 0.27475 0.45339 0.91442 0.0
C1234 C 0.26337 0.44325 0.92459 0.0
C1235 C 0.22992 0.41398 0.95373 0.0
C1236 C 0.24122 0.42421 0.94358 0.0
H1237 H 0.30733 0.44938 0.88839 0.0
H1238 H 0.28992 0.43298 0.90648 0.0
H1239 H 0.26174 0.46069 0.94465 0.0
H1240 H 0.19777 0.38741 0.94973 0.0
H1241 H 0.21497 0.40568 0.9333 0.0
C1242 C 0.60295 0.2228 0.98174 0.0
C1243 C 0.6123 0.21031 0.97432 0.0
C1244 C 0.59275 0.2329 0.9723 0.0
C1245 C 0.5873 0.24792 0.92982 0.0
H1246 H 0.54502 0.26274 0.94596 0.0
C1247 C 0.5503 0.29848 0.8964 0.0
C1248 C 0.53336 0.29569 0.89456 0.0
C1249 C 0.55972 0.28856 0.90683 0.0
C1250 C 0.55676 0.25866 0.94123 0.0
H1251 H 0.61783 0.19834 0.95119 0.0
H1252 H 0.59984 0.21583 0.93475 0.0
H1253 H 0.5612 0.2435 0.96226 0.0
H1254 H 0.51297 0.28059 0.90267 0.0
H1255 H 0.52935 0.26331 0.92075 0.0
H1256 H 0.58273 0.26282 0.90865 0.0
C1257 C 0.60062 0.21798 0.94785 0.0
C1258 C 0.56612 0.24774 0.95065 0.0
C1259 C 0.61082 0.20786 0.9573 0.0
C1260 C 0.52598 0.28311 0.90381 0.0
C1261 C 0.53538 0.27323 0.91425 0.0
C1262 C 0.57796 0.25886 0.92042 0.0
C1263 C 0.59162 0.23078 0.9552 0.0
C1264 C 0.5815 0.2422 0.94506 0.0
C1265 C 0.55242 0.27564 0.9157 0.0
C1266 C 0.56256 0.26437 0.92598 0.0
H1267 H 0.60383 0.22507 0.99481 0.0
H1268 H 0.58614 0.24271 0.97837 0.0
H1269 H 0.59918 0.24409 0.92522 0.0
H1270 H 0.55638 0.30807 0.88947 0.0
H1271 H 0.57277 0.29094 0.90785 0.0
C1272 C 0.707 0.55038 0.89449 0.0
C1273 C 0.70951 0.53338 0.89284 0.0
C1274 C 0.71717 0.55976 0.90469 0.0
C1275 C 0.74734 0.55681 0.93883 0.0
H1276 H 0.7624 0.59876 0.92207 0.0
C1277 C 0.79868 0.61068 0.9539 0.0
C1278 C 0.79613 0.61256 0.97087 0.0
C1279 C 0.78855 0.60031 0.94464 0.0
C1280 C 0.75845 0.587 0.92687 0.0
H1281 H 0.72438 0.51285 0.90106 0.0
H1282 H 0.74209 0.52918 0.91876 0.0
H1283 H 0.74334 0.58233 0.90587 0.0
H1284 H 0.78126 0.60458 0.99148 0.0
H1285 H 0.76363 0.5866 0.97538 0.0
H1286 H 0.76268 0.56137 0.9597 0.0
C1287 C 0.7322 0.53528 0.91228 0.0
C1288 C 0.74731 0.57768 0.91769 0.0
C1289 C 0.72206 0.52591 0.90206 0.0
C1290 C 0.7836 0.6034 0.97845 0.0
C1291 C 0.77351 0.59303 0.96921 0.0
C1292 C 0.75846 0.56615 0.94803 0.0
C1293 C 0.73007 0.55237 0.91352 0.0
C1294 C 0.74161 0.56246 0.92354 0.0
C1295 C 0.77567 0.59155 0.95214 0.0
C1296 C 0.76416 0.58137 0.94217 0.0
H1297 H 0.69744 0.55652 0.88757 0.0
H1298 H 0.71501 0.57285 0.90557 0.0
H1299 H 0.74313 0.54521 0.94377 0.0
H1300 H 0.80822 0.61754 0.94768 0.0
H1301 H 0.79073 0.59926 0.93157 0.0
C1302 C 0.52632 0.72201 0.10145 0.0
C1303 C 0.53385 0.70956 0.11075 0.0
C1304 C 0.53562 0.73203 0.09104 0.0
C1305 C 0.55695 0.74691 0.06418 0.0
H1306 H 0.59906 0.76206 0.08044 0.0
C1307 C 0.60306 0.78312 0.0239 0.0
C1308 C 0.61226 0.7957 0.03134 0.0
C1309 C 0.59283 0.773 0.03329 0.0
C1310 C 0.58726 0.75807 0.07577 0.0
H1311 H 0.55703 0.69753 0.11597 0.0
H1312 H 0.57324 0.71487 0.09764 0.0
H1313 H 0.58277 0.74313 0.09692 0.0
H1314 H 0.6175 0.80782 0.05446 0.0
H1315 H 0.59948 0.79029 0.07082 0.0
H1316 H 0.56132 0.7621 0.04316 0.0
C1317 C 0.56015 0.71706 0.09859 0.0
C1318 C 0.57802 0.74702 0.08512 0.0
C1319 C 0.55083 0.70701 0.10899 0.0
C1320 C 0.6106 0.79824 0.04833 0.0
C1321 C 0.60038 0.78809 0.05774 0.0
C1322 C 0.56621 0.75795 0.05481 0.0
C1323 C 0.5527 0.72986 0.08968 0.0
C1324 C 0.56273 0.74129 0.07946 0.0
C1325 C 0.59155 0.77518 0.05037 0.0
C1326 C 0.58149 0.7637 0.06049 0.0
H1327 H 0.51327 0.72436 0.10253 0.0
H1328 H 0.52948 0.74184 0.0845 0.0
H1329 H 0.54529 0.74267 0.05937 0.0
H1330 H 0.60408 0.78078 0.01085 0.0
H1331 H 0.58636 0.76311 0.02721 0.0
C1332 C 0.20835 0.60834 0.05088 0.0
C1333 C 0.21061 0.60972 0.03382 0.0
C1334 C 0.21858 0.59818 0.06026 0.0
C1335 C 0.24839 0.56373 0.05734 0.0
H1336 H 0.26408 0.58081 0.09892 0.0
C1337 C 0.2848 0.52425 0.10395 0.0
C1338 C 0.29748 0.5318 0.11292 0.0
C1339 C 0.27468 0.53349 0.09359 0.0
C1340 C 0.25996 0.57591 0.08727 0.0
H1341 H 0.2251 0.60109 0.0132 0.0
H1342 H 0.24291 0.58347 0.02952 0.0
H1343 H 0.245 0.597 0.08251 0.0
H1344 H 0.3098 0.55493 0.11759 0.0
H1345 H 0.29228 0.57103 0.09931 0.0
H1346 H 0.26359 0.54276 0.06197 0.0
C1347 C 0.23317 0.59013 0.03567 0.0
C1348 C 0.24881 0.5851 0.07796 0.0
C1349 C 0.22297 0.60029 0.0263 0.0
C1350 C 0.30014 0.54873 0.11087 0.0
C1351 C 0.29 0.55798 0.10051 0.0
C1352 C 0.25953 0.55452 0.06666 0.0
C1353 C 0.23128 0.58913 0.05281 0.0
C1354 C 0.24287 0.57913 0.06288 0.0
C1355 C 0.27697 0.55052 0.09193 0.0
C1356 C 0.26546 0.56049 0.08175 0.0
H1357 H 0.19894 0.61542 0.05706 0.0
H1358 H 0.2166 0.59751 0.07339 0.0
H1359 H 0.244 0.55869 0.04585 0.0
H1360 H 0.28236 0.51124 0.10527 0.0
H1361 H 0.2647 0.52734 0.08731 0.0
C1362 C 0.70672 0.45622 0.10961 0.0
C1363 C 0.71051 0.47273 0.11293 0.0
C1364 C 0.71656 0.44696 0.09896 0.0
C1365 C 0.75874 0.44529 0.08252 0.0
H1366 H 0.74029 0.41476 0.05101 0.0
C1367 C 0.79764 0.39622 0.04846 0.0
C1368 C 0.79408 0.39352 0.03178 0.0
C1369 C 0.7877 0.40657 0.05795 0.0
C1370 C 0.74564 0.42331 0.05968 0.0
H1371 H 0.72738 0.49257 0.10725 0.0
H1372 H 0.74443 0.47647 0.08869 0.0
H1373 H 0.72201 0.43151 0.06789 0.0
H1374 H 0.7775 0.39992 0.01192 0.0
H1375 H 0.76027 0.41797 0.02845 0.0
H1376 H 0.78237 0.43713 0.07429 0.0
C1377 C 0.73397 0.47062 0.09446 0.0
C1378 C 0.73516 0.43279 0.06945 0.0
C1379 C 0.7241 0.47988 0.10501 0.0
C1380 C 0.7806 0.40171 0.02473 0.0
C1381 C 0.77063 0.41196 0.03424 0.0
C1382 C 0.76922 0.43573 0.07283 0.0
C1383 C 0.73047 0.45398 0.09148 0.0
C1384 C 0.74157 0.44393 0.08097 0.0
C1385 C 0.77393 0.41436 0.051 0.0
C1386 C 0.7628 0.42464 0.06127 0.0
H1387 H 0.69638 0.45032 0.11554 0.0
H1388 H 0.71358 0.43415 0.097 0.0
H1389 H 0.76409 0.45361 0.09141 0.0
H1390 H 0.80789 0.39007 0.05429 0.0
H1391 H 0.79052 0.40807 0.07086 0.0
C1392 C 0.99529 0.22818 0.31472 0.0
C1393 C 0.99192 0.21177 0.31064 0.0
C1394 C 0.99759 0.23995 0.30246 0.0
C1395 C 0.99168 0.24759 0.2576 0.0
H1396 H 0.0232 0.28235 0.26578 0.0
C1397 C 0.01367 0.29384 0.20781 0.0
C1398 C 0.01231 0.31044 0.21236 0.0
C1399 C 0.01153 0.2814 0.21949 0.0
C1400 C 0.01433 0.27273 0.26336 0.0
H1401 H 0.98824 0.19484 0.29044 0.0
H1402 H 0.99283 0.21522 0.269 0.0
H1403 H 0.01868 0.26133 0.28656 0.0
H1404 H 0.00806 0.32701 0.23277 0.0
H1405 H 0.00477 0.30529 0.25319 0.0
H1406 H 0.98778 0.25892 0.23413 0.0
C1407 C 0.99328 0.21916 0.28168 0.0
C1408 C 0.01162 0.26072 0.27531 0.0
C1409 C 0.9907 0.20742 0.29399 0.0
C1410 C 0.00914 0.31434 0.22887 0.0
C1411 C 0.00732 0.30192 0.24058 0.0
C1412 C 0.99461 0.25947 0.24554 0.0
C1413 C 0.99688 0.23558 0.28575 0.0
C1414 C 1.0001 0.24808 0.27271 0.0
C1415 C 0.00833 0.28534 0.23598 0.0
C1416 C 0.00583 0.27225 0.24838 0.0
H1417 H 0.99615 0.23196 0.32745 0.0
H1418 H 0.99989 0.25251 0.30614 0.0
H1419 H 0.98256 0.23823 0.25519 0.0
H1420 H 0.01603 0.29044 0.19517 0.0
H1421 H 0.01246 0.26869 0.21566 0.0
C1422 C 0.77921 0.00419 0.31375 0.0
C1423 C 0.79174 0.9924 0.31214 0.0
C1424 C 0.76762 0.00642 0.30129 0.0
C1425 C 0.74814 0.98561 0.26638 0.0
H1426 H 0.73558 0.02971 0.25344 0.0
C1427 C 0.69083 0.99893 0.22692 0.0
C1428 C 0.69245 0.01038 0.21409 0.0
C1429 C 0.70342 0.99678 0.23838 0.0
C1430 C 0.73905 0.01733 0.25684 0.0
H1431 H 0.80178 0.97361 0.29615 0.0
H1432 H 0.78141 0.97743 0.27443 0.0
H1433 H 0.75687 0.02579 0.27424 0.0
H1434 H 0.70858 0.02868 0.20338 0.0
H1435 H 0.73054 0.02499 0.22353 0.0
H1436 H 0.73029 0.97714 0.24902 0.0
C1437 C 0.7806 0.98493 0.28538 0.0
C1438 C 0.75112 0.01508 0.26885 0.0
C1439 C 0.7923 0.98279 0.2978 0.0
C1440 C 0.70692 0.01976 0.21311 0.0
C1441 C 0.71948 0.0177 0.22468 0.0
C1442 C 0.73597 0.98785 0.25447 0.0
C1443 C 0.76818 0.99683 0.28696 0.0
C1444 C 0.75574 0.99919 0.27381 0.0
C1445 C 0.7179 0.0061 0.23738 0.0
C1446 C 0.73122 0.00374 0.24963 0.0
H1447 H 0.7784 0.01183 0.32461 0.0
H1448 H 0.75808 0.01554 0.30297 0.0
H1449 H 0.75136 0.97322 0.27001 0.0
H1450 H 0.67987 0.99148 0.22807 0.0
H1451 H 0.70174 0.9879 0.24815 0.0
C1452 C 0.9958 0.68935 0.22863 0.0
C1453 C 0.99239 0.69335 0.21221 0.0
C1454 C 0.99831 0.70168 0.24029 0.0
C1455 C 0.993 0.74668 0.24755 0.0
H1456 H 0.02446 0.73834 0.28234 0.0
C1457 C 0.0157 0.79642 0.29357 0.0
C1458 C 0.0142 0.79196 0.31018 0.0
C1459 C 0.01342 0.78473 0.28116 0.0
C1460 C 0.01562 0.74081 0.27271 0.0
H1461 H 0.98886 0.71344 0.19512 0.0
H1462 H 0.99383 0.735 0.21528 0.0
H1463 H 0.01965 0.71748 0.26147 0.0
H1464 H 0.00953 0.77169 0.32682 0.0
H1465 H 0.006 0.75124 0.30517 0.0
H1466 H 0.98941 0.77028 0.25873 0.0
C1467 C 0.99414 0.72234 0.21933 0.0
C1468 C 0.01273 0.72881 0.26079 0.0
C1469 C 0.99135 0.70997 0.20772 0.0
C1470 C 0.01073 0.77552 0.31414 0.0
C1471 C 0.00877 0.7638 0.30177 0.0
C1472 C 0.99611 0.7588 0.25934 0.0
C1473 C 0.99778 0.71837 0.23577 0.0
C1474 C 1.00122 0.73147 0.24815 0.0
C1475 C 0.00994 0.76832 0.28517 0.0
C1476 C 0.0073 0.75589 0.27213 0.0
H1477 H 0.99651 0.67665 0.23252 0.0
H1478 H 1.00062 0.69807 0.25287 0.0
H1479 H 0.98388 0.74915 0.2382 0.0
H1480 H 0.01829 0.80901 0.29013 0.0
H1481 H 0.01446 0.78849 0.26845 0.0
C1482 C 0.20979 0.01483 0.29498 0.0
C1483 C 0.21415 0.01365 0.31163 0.0
C1484 C 0.22162 0.01267 0.28269 0.0
C1485 C 0.26386 0.99582 0.2763 0.0
H1486 H 0.26085 0.01928 0.23497 0.0
C1487 C 0.31668 0.99921 0.22888 0.0
C1488 C 0.31251 0.99523 0.21261 0.0
C1489 C 0.30446 1.00115 0.24079 0.0
C1490 C 0.26176 0.01258 0.24643 0.0
H1491 H 0.23442 0.00994 0.32847 0.0
H1492 H 0.25513 0.00697 0.3072 0.0
H1493 H 0.2402 0.02397 0.25618 0.0
H1494 H 0.29225 0.99029 0.19603 0.0
H1495 H 0.27085 0.9941 0.21684 0.0
H1496 H 0.2858 0.98493 0.26664 0.0
C1497 C 0.24251 0.00889 0.30349 0.0
C1498 C 0.24989 0.01518 0.25858 0.0
C1499 C 0.23064 0.01074 0.31574 0.0
C1500 C 0.29585 0.99329 0.20848 0.0
C1501 C 0.28361 0.99555 0.22034 0.0
C1502 C 0.27586 0.99346 0.26426 0.0
C1503 C 0.23815 0.00957 0.28677 0.0
C1504 C 0.25077 0.00684 0.27372 0.0
C1505 C 0.28782 0.99945 0.2366 0.0
C1506 C 0.27492 1.0018 0.24922 0.0
H1507 H 0.19715 0.01694 0.29142 0.0
H1508 H 0.21768 0.01305 0.27 0.0
H1509 H 0.2648 0.98883 0.28756 0.0
H1510 H 0.3294 1.00075 0.23246 0.0
H1511 H 0.30801 0.00423 0.25323 0.0
C1512 C 0.01318 0.69115 0.77562 0.0
C1513 C 0.01606 0.69515 0.79216 0.0
C1514 C 0.0115 0.7035 0.76382 0.0
C1515 C 0.99826 0.74567 0.75855 0.0
H1516 H 0.02305 0.74434 0.71794 0.0
C1517 C 0.99367 0.79764 0.71022 0.0
C1518 C 0.99521 0.79342 0.69357 0.0
C1519 C 0.99652 0.78596 0.7225 0.0
C1520 C 0.01579 0.74479 0.72907 0.0
H1521 H 0.01943 0.71525 0.8093 0.0
H1522 H 0.01606 0.73688 0.78865 0.0
H1523 H 0.02763 0.72337 0.73879 0.0
H1524 H 1.00041 0.77349 0.67672 0.0
H1525 H 0.00462 0.75297 0.69799 0.0
H1526 H 0.9859 0.76663 0.74871 0.0
C1527 C 0.01527 0.72415 0.78487 0.0
C1528 C 0.01855 0.73282 0.74106 0.0
C1529 C 0.01729 0.71178 0.79664 0.0
C1530 C 0.99928 0.77717 0.68945 0.0
C1531 C 1.00184 0.76543 0.7017 0.0
C1532 C 0.99528 0.75749 0.74644 0.0
C1533 C 0.01233 0.72011 0.76836 0.0
C1534 C 0.00979 0.73313 0.75589 0.0
C1535 C 1.00071 0.76968 0.71843 0.0
C1536 C 0.00398 0.7572 0.73148 0.0
H1537 H 0.01221 0.67846 0.77177 0.0
H1538 H 0.00915 0.70007 0.75118 0.0
H1539 H 0.99122 0.74606 0.76983 0.0
H1540 H 0.99068 0.8101 0.71379 0.0
H1541 H 0.99577 0.78983 0.7352 0.0
C1542 C 0.22802 0.00486 0.69003 0.0
C1543 C 0.21432 0.99462 0.69244 0.0
C1544 C 0.23994 0.00655 0.70225 0.0
C1545 C 0.26806 1.00068 0.72581 0.0
H1546 H 0.25542 0.00342 0.77162 0.0
C1547 C 0.31597 0.99872 0.77783 0.0
C1548 C 0.31368 0.00918 0.79138 0.0
C1549 C 0.3037 0.9969 0.76599 0.0
C1550 C 0.25915 0.00281 0.75887 0.0
H1551 H 0.20248 0.97808 0.70965 0.0
H1552 H 0.22346 0.98086 0.7309 0.0
H1553 H 0.2343 1.00046 0.75056 0.0
H1554 H 0.2966 0.02597 0.80303 0.0
H1555 H 0.27524 0.023 0.78219 0.0
H1556 H 0.29285 0.00341 0.73402 0.0
C1557 C 0.22484 0.98776 0.71962 0.0
C1558 C 0.24705 1.0009 0.74681 0.0
C1559 C 0.21286 0.98609 0.70739 0.0
C1560 C 0.29878 0.01779 0.79278 0.0
C1561 C 0.28648 0.016 0.78088 0.0
C1562 C 0.28014 0.0026 0.73784 0.0
C1563 C 0.23854 0.99802 0.71719 0.0
C1564 C 0.25136 0.99983 0.73012 0.0
C1565 C 0.28881 0.00555 0.76732 0.0
C1566 C 0.27585 0.00368 0.75454 0.0
H1567 H 0.22951 0.0117 0.67874 0.0
H1568 H 0.25018 0.01476 0.70004 0.0
H1569 H 0.27186 0.99971 0.7131 0.0
H1570 H 0.32725 0.9918 0.77638 0.0
H1571 H 0.30582 0.98855 0.75587 0.0
C1572 C 0.99892 0.22761 0.69026 0.0
C1573 C 0.00957 0.21424 0.69279 0.0
C1574 C 0.9968 0.23953 0.70242 0.0
C1575 C 1.0022 0.24698 0.74698 0.0
H1576 H 0.99841 0.29265 0.73406 0.0
C1577 C 0.98492 0.29835 0.79315 0.0
C1578 C 0.99331 0.31336 0.79165 0.0
C1579 C 0.98664 0.28614 0.78116 0.0
C1580 C 0.99956 0.27997 0.73792 0.0
H1581 H 0.02641 0.20302 0.71012 0.0
H1582 H 0.02291 0.22399 0.73123 0.0
H1583 H 1.00252 0.2717 0.71318 0.0
H1584 H 0.01015 0.32725 0.77634 0.0
H1585 H 0.0133 0.30598 0.75567 0.0
H1586 H 0.99966 0.25535 0.77178 0.0
C1587 C 0.01599 0.2251 0.71993 0.0
C1588 C 1.00172 0.26791 0.7259 0.0
C1589 C 0.01808 0.21313 0.70777 0.0
C1590 C 0.00343 0.31588 0.77788 0.0
C1591 C 0.00517 0.30369 0.76594 0.0
C1592 C 1.00006 0.25906 0.75902 0.0
C1593 C 0.00531 0.23845 0.7174 0.0
C1594 C 0.00308 0.25126 0.73027 0.0
C1595 C 0.9968 0.28866 0.76741 0.0
C1596 C 0.99876 0.27572 0.75463 0.0
H1597 H 0.99208 0.22883 0.67892 0.0
H1598 H 0.98829 0.24949 0.70013 0.0
H1599 H 0.00301 0.23426 0.75078 0.0
H1600 H 0.97701 0.296 0.80358 0.0
H1601 H 0.97986 0.27479 0.78259 0.0
C1602 C 0.77666 1.00013 0.68925 0.0
C1603 C 0.79 0.01081 0.69178 0.0
C1604 C 0.76471 0.99801 0.70138 0.0
C1605 C 0.75719 0.0034 0.74593 0.0
H1606 H 0.71153 0.99957 0.73298 0.0
C1607 C 0.68828 0.00465 0.77681 0.0
C1608 C 0.69078 0.99453 0.79058 0.0
C1609 C 0.70047 0.00637 0.76487 0.0
C1610 C 0.7242 1.00073 0.73684 0.0
H1611 H 0.80114 0.0277 0.70911 0.0
H1612 H 0.78013 0.02418 0.73019 0.0
H1613 H 0.7325 0.0037 0.71211 0.0
H1614 H 0.70812 0.97817 0.80249 0.0
H1615 H 0.72934 0.981 0.7815 0.0
H1616 H 0.7488 1.00084 0.77072 0.0
C1617 C 0.77906 0.01725 0.71889 0.0
C1618 C 0.73627 0.0029 0.72483 0.0
C1619 C 0.79105 0.01935 0.70675 0.0
C1620 C 0.70578 0.9861 0.79207 0.0
C1621 C 0.718 0.9878 0.78008 0.0
C1622 C 0.7451 1.00124 0.75796 0.0
C1623 C 0.76574 0.00654 0.71635 0.0
C1624 C 0.75292 0.00427 0.72921 0.0
C1625 C 0.71549 0.99798 0.76633 0.0
C1626 C 0.72845 0.99992 0.75356 0.0
H1627 H 0.77549 0.99327 0.67792 0.0
H1628 H 0.75478 0.98947 0.69909 0.0
H1629 H 0.76991 0.00422 0.74973 0.0
H1630 H 0.67692 0.0114 0.77528 0.0
H1631 H 0.6982 0.01451 0.7546 0.0
C1632 C 0.22802 0.31453 0.00405 0.0
C1633 C 0.21446 0.31198 0.99366 0.0
C1634 C 0.23999 0.3024 0.006 0.0
C1635 C 0.26833 0.27899 1.00072 0.0
H1636 H 0.25599 0.23309 0.00338 0.0
C1637 C 0.31662 0.2273 0.99933 0.0
C1638 C 0.31426 0.21365 0.00964 0.0
C1639 C 0.30431 0.23911 0.99747 0.0
C1640 C 0.25963 0.24587 0.0028 0.0
H1641 H 0.20294 0.29458 0.97711 0.0
H1642 H 0.22401 0.27348 0.98031 0.0
H1643 H 0.23476 0.25399 1.00007 0.0
H1644 H 0.29706 0.20179 0.02616 0.0
H1645 H 0.27564 0.22257 0.02311 0.0
H1646 H 0.29313 0.27097 0.00385 0.0
C1647 C 0.22523 0.28481 0.98715 0.0
C1648 C 0.24747 0.25784 1.00069 0.0
C1649 C 0.2132 0.29696 0.98523 0.0
C1650 C 0.29928 0.21213 0.0181 0.0
C1651 C 0.28696 0.22399 0.01626 0.0
C1652 C 0.28046 0.26705 0.00286 0.0
C1653 C 0.23878 0.28739 0.99756 0.0
C1654 C 0.25167 0.27456 0.99963 0.0
C1655 C 0.28932 0.23763 0.00591 0.0
C1656 C 0.27629 0.25033 0.0039 0.0
H1657 H 0.22937 0.32589 0.01083 0.0
H1658 H 0.2501 0.30472 0.01433 0.0
H1659 H 0.27206 0.29172 0.99977 0.0
H1660 H 0.32795 0.22884 0.99253 0.0
H1661 H 0.30648 0.24929 0.98919 0.0
C1662 C 0.22801 0.68811 0.00255 0.0
C1663 C 0.21446 0.69063 0.01296 0.0
C1664 C 0.23983 0.70036 1.00043 0.0
C1665 C 0.26788 0.72416 0.00534 0.0
H1666 H 0.25494 0.76985 1.00192 0.0
C1667 C 0.31551 0.77642 0.00562 0.0
C1668 C 0.31299 0.78981 0.99501 0.0
C1669 C 0.30333 0.76454 0.00778 0.0
C1670 C 0.25875 0.75714 0.00271 0.0
H1671 H 0.20279 0.70807 0.02937 0.0
H1672 H 0.22359 0.72938 0.02585 0.0
H1673 H 0.23399 0.74874 0.00568 0.0
H1674 H 0.29563 0.80114 0.97828 0.0
H1675 H 0.27443 0.78021 0.98185 0.0
H1676 H 0.29257 0.73244 1.00198 0.0
C1677 C 0.22493 0.71798 0.01914 0.0
C1678 C 0.24675 0.74505 0.00508 0.0
C1679 C 0.21305 0.70571 0.02124 0.0
C1680 C 0.29797 0.791 0.98656 0.0
C1681 C 0.28577 0.77906 0.9887 0.0
C1682 C 0.27985 0.73622 0.00294 0.0
C1683 C 0.23846 0.71545 0.0087 0.0
C1684 C 0.25118 0.7284 0.00641 0.0
C1685 C 0.28832 0.76567 0.99933 0.0
C1686 C 0.27546 0.75286 1.00163 0.0
H1687 H 0.22947 0.67669 0.99589 0.0
H1688 H 0.24993 0.69806 0.99209 0.0
H1689 H 0.27177 0.7115 0.00649 0.0
H1690 H 0.32687 0.77514 0.01242 0.0
H1691 H 0.30563 0.75457 0.01627 0.0
C1692 C 0.77894 0.31353 0.99986 0.0
C1693 C 0.79174 0.31217 0.01138 0.0
C1694 C 0.76757 0.30084 0.99786 0.0
C1695 C 0.74917 0.26559 0.01905 0.0
H1696 H 0.73595 0.25248 0.9752 0.0
C1697 C 0.69193 0.2257 0.00669 0.0
C1698 C 0.69341 0.21292 0.99516 0.0
C1699 C 0.70452 0.23718 0.00869 0.0
C1700 C 0.7396 0.25592 0.98752 0.0
H1701 H 0.80251 0.29639 0.02995 0.0
H1702 H 0.7825 0.27425 0.02655 0.0
H1703 H 0.75701 0.27356 0.9787 0.0
H1704 H 0.70931 0.20231 0.97661 0.0
H1705 H 0.73127 0.2225 0.98004 0.0
H1706 H 0.7317 0.24801 0.02787 0.0
C1707 C 0.78132 0.28519 0.01907 0.0
C1708 C 0.75155 0.26809 0.98953 0.0
C1709 C 0.7928 0.29785 0.02097 0.0
C1710 C 0.70776 0.21199 0.98559 0.0
C1711 C 0.72032 0.22359 0.98751 0.0
C1712 C 0.73712 0.25352 0.01704 0.0
C1713 C 0.76862 0.28652 0.00743 0.0
C1714 C 0.75639 0.27314 0.00532 0.0
C1715 C 0.71886 0.23626 0.99914 0.0
C1716 C 0.73212 0.24862 1.00125 0.0
H1717 H 0.77774 0.32437 0.99225 0.0
H1718 H 0.75781 0.30233 0.98895 0.0
H1719 H 0.75256 0.26929 0.03137 0.0
H1720 H 0.68107 0.2268 0.01428 0.0
H1721 H 0.70293 0.24692 0.0176 0.0
C1722 C 0.79713 0.71134 0.98948 0.0
C1723 C 0.79278 0.69469 0.99065 0.0
C1724 C 0.78537 0.72363 0.99198 0.0
C1725 C 0.74357 0.72996 0.00988 0.0
H1726 H 0.74575 0.77125 0.98627 0.0
C1727 C 0.69013 0.77661 0.00707 0.0
C1728 C 0.69406 0.79302 0.01068 0.0
C1729 C 0.70251 0.76488 0.00516 0.0
C1730 C 0.74509 0.75981 0.99303 0.0
H1731 H 0.77256 0.67786 0.99471 0.0
H1732 H 0.75197 0.69915 0.9983 0.0
H1733 H 0.76646 0.75018 0.98119 0.0
H1734 H 0.71409 0.81003 0.01503 0.0
H1735 H 0.7358 0.78951 0.01128 0.0
H1736 H 0.7218 0.73948 0.02122 0.0
C1737 C 0.76455 0.70284 0.99611 0.0
C1738 C 0.75699 0.74774 0.99019 0.0
C1739 C 0.77635 0.69059 0.99391 0.0
C1740 C 0.71068 0.79746 0.01232 0.0
C1741 C 0.72309 0.78577 0.01009 0.0
C1742 C 0.73154 0.74192 0.01249 0.0
C1743 C 0.76892 0.71956 0.99544 0.0
C1744 C 0.75638 0.73259 0.99854 0.0
C1745 C 0.71911 0.76938 0.00652 0.0
C1746 C 0.73217 0.75694 0.00407 0.0
H1747 H 0.80973 0.71488 0.9871 0.0
H1748 H 0.78932 0.73632 0.99158 0.0
H1749 H 0.74286 0.71869 0.01689 0.0
H1750 H 0.67745 0.77279 0.00576 0.0
H1751 H 0.69913 0.75234 1.00232 0.0
C1752 C 0.48991 0.70882 0.79382 0.0
C1753 C 0.49122 0.71329 0.81045 0.0
C1754 C 0.492 0.72058 0.78145 0.0
C1755 C 0.48904 0.76447 0.77294 0.0
H1756 H 0.52122 0.75663 0.73873 0.0
C1757 C 0.50834 0.81615 0.72883 0.0
C1758 C 0.51196 0.81215 0.71245 0.0
C1759 C 0.50593 0.80382 0.74051 0.0
C1760 C 0.51197 0.75895 0.748 0.0
H1761 H 0.49529 0.73364 0.82714 0.0
H1762 H 0.49848 0.7542 0.80553 0.0
H1763 H 0.51588 0.73545 0.75925 0.0
H1764 H 0.51596 0.79205 0.69549 0.0
H1765 H 0.51117 0.7705 0.7157 0.0
H1766 H 0.4847 0.78771 0.76161 0.0
C1767 C 0.49601 0.74159 0.80209 0.0
C1768 C 0.50898 0.74681 0.75979 0.0
C1769 C 0.49425 0.72981 0.81444 0.0
C1770 C 0.51331 0.79553 0.70805 0.0
C1771 C 0.51062 0.78316 0.71969 0.0
C1772 C 0.49182 0.7765 0.76102 0.0
C1773 C 0.49508 0.73707 0.78548 0.0
C1774 C 0.49762 0.74954 0.77247 0.0
C1775 C 0.50677 0.78713 0.73608 0.0
C1776 C 0.50348 0.77402 0.74848 0.0
H1777 H 0.48766 0.69618 0.79036 0.0
H1778 H 0.49114 0.71681 0.76872 0.0
H1779 H 0.48008 0.7668 0.78249 0.0
H1780 H 0.50738 0.82886 0.73265 0.0
H1781 H 0.50345 0.80744 0.75306 0.0
C1782 C 0.29361 0.48382 0.79798 0.0
C1783 C 0.29265 0.49334 0.81236 0.0
C1784 C 0.28218 0.48596 0.78531 0.0
C1785 C 0.25286 0.51602 0.76832 0.0
H1786 H 0.23244 0.47809 0.74805 0.0
C1787 C 0.20897 0.52085 0.71232 0.0
C1788 C 0.19449 0.51148 0.71328 0.0
C1789 C 0.22154 0.51872 0.72387 0.0
C1790 C 0.23803 0.4888 0.75361 0.0
H1791 H 0.27886 0.51258 0.82464 0.0
H1792 H 0.25903 0.51628 0.80258 0.0
H1793 H 0.25327 0.47416 0.76929 0.0
H1794 H 0.18193 0.4925 0.72718 0.0
H1795 H 0.20382 0.48881 0.7472 0.0
H1796 H 0.23746 0.53066 0.75279 0.0
C1797 C 0.26868 0.50724 0.80106 0.0
C1798 C 0.25006 0.48654 0.76566 0.0
C1799 C 0.27999 0.50502 0.81376 0.0
C1800 C 0.19289 0.49995 0.72604 0.0
C1801 C 0.20549 0.49772 0.73747 0.0
C1802 C 0.24094 0.51827 0.75616 0.0
C1803 C 0.26964 0.49776 0.78668 0.0
C1804 C 0.25747 0.50013 0.77328 0.0
C1805 C 0.21997 0.50706 0.73651 0.0
C1806 C 0.23325 0.50469 0.74881 0.0
H1807 H 0.3032 0.47473 0.7965 0.0
H1808 H 0.28329 0.47853 0.77434 0.0
H1809 H 0.25848 0.52673 0.77385 0.0
H1810 H 0.21061 0.52983 0.70264 0.0
H1811 H 0.2326 0.52603 0.72276 0.0
C1812 C 0.50912 0.27566 0.81649 0.0
C1813 C 0.51266 0.29205 0.81244 0.0
C1814 C 0.50664 0.26396 0.8042 0.0
C1815 C 0.51232 0.25647 0.75927 0.0
H1816 H 0.48057 0.22191 0.76741 0.0
C1817 C 0.48978 0.21071 0.70931 0.0
C1818 C 0.4911 0.19407 0.71373 0.0
C1819 C 0.49201 0.22306 0.72106 0.0
C1820 C 0.4895 0.23147 0.765 0.0
H1821 H 0.51646 0.309 0.79229 0.0
H1822 H 0.51155 0.28877 0.7708 0.0
H1823 H 0.48535 0.24277 0.78828 0.0
H1824 H 0.49535 0.17734 0.73402 0.0
H1825 H 0.4988 0.1989 0.75458 0.0
H1826 H 0.51601 0.24524 0.73572 0.0
C1827 C 0.51111 0.28478 0.78347 0.0
C1828 C 0.49236 0.24339 0.77701 0.0
C1829 C 0.51386 0.29644 0.7958 0.0
C1830 C 0.4943 0.19004 0.73021 0.0
C1831 C 0.49621 0.20236 0.742 0.0
C1832 C 0.50923 0.24468 0.74715 0.0
C1833 C 0.50734 0.26838 0.78749 0.0
C1834 C 0.50397 0.25596 0.77441 0.0
C1835 C 0.49526 0.21899 0.73751 0.0
C1836 C 0.49792 0.23198 0.74998 0.0
H1837 H 0.50827 0.27184 0.82921 0.0
H1838 H 0.50422 0.25141 0.80785 0.0
H1839 H 0.52151 0.26576 0.75686 0.0
H1840 H 0.4874 0.2142 0.6967 0.0
H1841 H 0.49113 0.23579 0.71732 0.0
C1842 C 0.81464 0.49439 0.72897 0.0
C1843 C 0.81071 0.49103 0.7125 0.0
C1844 C 0.80224 0.49624 0.74069 0.0
C1845 C 0.75984 0.50892 0.74568 0.0
H1846 H 0.76174 0.48504 0.78681 0.0
C1847 C 0.70809 0.51361 0.79435 0.0
C1848 C 0.71251 0.51244 0.81099 0.0
C1849 C 0.71972 0.5108 0.78201 0.0
C1850 C 0.76112 0.49204 0.77553 0.0
H1851 H 0.7907 0.487 0.6954 0.0
H1852 H 0.76896 0.49065 0.7159 0.0
H1853 H 0.78267 0.48033 0.76598 0.0
H1854 H 0.73274 0.50805 0.82772 0.0
H1855 H 0.75313 0.50392 0.80634 0.0
H1856 H 0.73872 0.52115 0.75535 0.0
C1857 C 0.78168 0.49169 0.71969 0.0
C1858 C 0.77307 0.48922 0.76355 0.0
C1859 C 0.7941 0.48951 0.70801 0.0
C1860 C 0.7289 0.50887 0.81501 0.0
C1861 C 0.74058 0.50635 0.8027 0.0
C1862 C 0.74802 0.51197 0.75777 0.0
C1863 C 0.78565 0.49508 0.73613 0.0
C1864 C 0.77258 0.49765 0.74854 0.0
C1865 C 0.73613 0.50702 0.78601 0.0
C1866 C 0.74853 0.50363 0.77292 0.0
H1867 H 0.82731 0.4956 0.73283 0.0
H1868 H 0.80562 0.49894 0.75327 0.0
H1869 H 0.7593 0.5157 0.73424 0.0
H1870 H 0.69552 0.51623 0.79086 0.0
H1871 H 0.71571 0.51122 0.76934 0.0
C1872 C 0.50083 0.1888 0.27732 0.0
C1873 C 0.5111 0.19139 0.29096 0.0
C1874 C 0.49894 0.20094 0.26535 0.0
C1875 C 0.50405 0.24553 0.25805 0.0
H1876 H 0.50114 0.23257 0.21233 0.0
C1877 C 0.48625 0.29129 0.20648 0.0
C1878 C 0.49474 0.28996 0.1915 0.0
C1879 C 0.48821 0.27938 0.21873 0.0
C1880 C 0.50206 0.23644 0.22502 0.0
H1881 H 0.52753 0.20881 0.30261 0.0
H1882 H 0.52443 0.22992 0.28154 0.0
H1883 H 0.50532 0.21176 0.23334 0.0
H1884 H 0.51202 0.27504 0.17774 0.0
H1885 H 0.51557 0.2545 0.19909 0.0
H1886 H 0.50118 0.27029 0.24964 0.0
C1887 C 0.51764 0.21857 0.28026 0.0
C1888 C 0.50426 0.22447 0.23711 0.0
C1889 C 0.5195 0.20642 0.29229 0.0
C1890 C 0.5052 0.27643 0.18907 0.0
C1891 C 0.50718 0.26458 0.20131 0.0
C1892 C 0.50187 0.25754 0.24594 0.0
C1893 C 0.50732 0.21597 0.26663 0.0
C1894 C 0.50525 0.22884 0.25378 0.0
C1895 C 0.49871 0.26587 0.21629 0.0
C1896 C 0.50086 0.25314 0.22926 0.0
H1897 H 0.49408 0.17743 0.27592 0.0
H1898 H 0.49069 0.1986 0.25518 0.0
H1899 H 0.50458 0.24933 0.27078 0.0
H1900 H 0.47807 0.30153 0.20876 0.0
H1901 H 0.48133 0.28066 0.23004 0.0
C1902 C 0.79483 0.51465 0.29879 0.0
C1903 C 0.81145 0.51306 0.29435 0.0
C1904 C 0.78243 0.51241 0.28708 0.0
C1905 C 0.77407 0.51466 0.24314 0.0
H1906 H 0.73924 0.48327 0.25143 0.0
C1907 C 0.72985 0.49532 0.19161 0.0
C1908 C 0.71338 0.49211 0.19558 0.0
C1909 C 0.74152 0.49767 0.20396 0.0
C1910 C 0.74869 0.49229 0.24897 0.0
H1911 H 0.82809 0.50827 0.27411 0.0
H1912 H 0.80645 0.50481 0.25364 0.0
H1913 H 0.7598 0.48861 0.27259 0.0
H1914 H 0.69623 0.48875 0.21565 0.0
H1915 H 0.71643 0.49345 0.23724 0.0
H1916 H 0.76291 0.51879 0.21979 0.0
C1917 C 0.80304 0.50762 0.26619 0.0
C1918 C 0.7605 0.49528 0.26111 0.0
C1919 C 0.8154 0.50953 0.27793 0.0
C1920 C 0.70886 0.49109 0.2122 0.0
C1921 C 0.7205 0.49373 0.22458 0.0
C1922 C 0.76214 0.51188 0.23112 0.0
C1923 C 0.78643 0.50889 0.27068 0.0
C1924 C 0.7734 0.50636 0.25822 0.0
C1925 C 0.73699 0.49719 0.22064 0.0
C1926 C 0.74938 0.50049 0.23376 0.0
H1927 H 0.7914 0.51729 0.31136 0.0
H1928 H 0.76971 0.51354 0.29082 0.0
H1929 H 0.78379 0.5234 0.24068 0.0
H1930 H 0.73376 0.49601 0.17891 0.0
H1931 H 0.75414 0.49984 0.20037 0.0
C1932 C 0.51469 0.70935 0.20939 0.0
C1933 C 0.51353 0.71364 0.19272 0.0
C1934 C 0.51192 0.72109 0.22163 0.0
C1935 C 0.49333 0.76263 0.22778 0.0
H1936 H 0.51649 0.76063 0.26933 0.0
C1937 C 0.49471 0.81571 0.27502 0.0
C1938 C 0.49098 0.8115 0.29134 0.0
C1939 C 0.49691 0.80351 0.26315 0.0
C1940 C 0.50986 0.76124 0.25781 0.0
H1941 H 0.50921 0.73372 0.1758 0.0
H1942 H 0.50519 0.75432 0.19701 0.0
H1943 H 0.52218 0.74013 0.24823 0.0
H1944 H 0.48667 0.79118 0.30802 0.0
H1945 H 0.49094 0.76982 0.28727 0.0
H1946 H 0.48152 0.78416 0.23727 0.0
C1947 C 0.50756 0.74179 0.20076 0.0
C1948 C 0.51304 0.74946 0.24572 0.0
C1949 C 0.51002 0.73 0.18855 0.0
C1950 C 0.48946 0.79481 0.29553 0.0
C1951 C 0.49199 0.7826 0.28371 0.0
C1952 C 0.49039 0.77455 0.23976 0.0
C1953 C 0.50822 0.73748 0.2175 0.0
C1954 C 0.50483 0.74999 0.23049 0.0
C1955 C 0.49573 0.78685 0.26741 0.0
C1956 C 0.49862 0.77397 0.25488 0.0
H1957 H 0.51725 0.69681 0.21299 0.0
H1958 H 0.51231 0.71718 0.23433 0.0
H1959 H 0.48643 0.76328 0.21644 0.0
H1960 H 0.49592 0.82845 0.2714 0.0
H1961 H 0.49986 0.8071 0.25068 0.0
C1962 C 0.2988 0.51338 0.21177 0.0
C1963 C 0.29445 0.51217 0.1951 0.0
C1964 C 0.28697 0.51113 0.22405 0.0
C1965 C 0.24297 0.51388 0.23214 0.0
H1966 H 0.25057 0.48173 0.26644 0.0
C1967 C 0.1908 0.49441 0.27551 0.0
C1968 C 0.19457 0.49091 0.29197 0.0
C1969 C 0.2033 0.49676 0.26399 0.0
C1970 C 0.24831 0.49096 0.25714 0.0
H1971 H 0.27423 0.50805 0.17825 0.0
H1972 H 0.25355 0.50457 0.19968 0.0
H1973 H 0.27198 0.48718 0.24616 0.0
H1974 H 0.21443 0.487 0.30925 0.0
H1975 H 0.23628 0.49169 0.28932 0.0
H1976 H 0.21958 0.5181 0.24319 0.0
C1977 C 0.26613 0.50709 0.20323 0.0
C1978 C 0.26058 0.49402 0.24549 0.0
C1979 C 0.27798 0.50902 0.19097 0.0
C1980 C 0.21114 0.48957 0.29662 0.0
C1981 C 0.22367 0.49221 0.28514 0.0
C1982 C 0.23082 0.51103 0.24391 0.0
C1983 C 0.27053 0.50797 0.21988 0.0
C1984 C 0.25794 0.50537 0.23278 0.0
C1985 C 0.21992 0.49599 0.26868 0.0
C1986 C 0.2332 0.49937 0.25647 0.0
H1987 H 0.3114 0.51572 0.21533 0.0
H1988 H 0.29065 0.51195 0.23681 0.0
H1989 H 0.24071 0.52284 0.22257 0.0
H1990 H 0.17815 0.49535 0.2715 0.0
H1991 H 0.19985 0.49918 0.25138 0.0
C1992 C 0.79535 0.70991 0.51496 0.0
C1993 C 0.81198 0.71427 0.51352 0.0
C1994 C 0.783 0.72156 0.51227 0.0
C1995 C 0.77628 0.76292 0.49349 0.0
H1996 H 0.73513 0.7608 0.51738 0.0
C1997 C 0.72861 0.81566 0.4953 0.0
C1998 C 0.71227 0.81129 0.49185 0.0
C1999 C 0.74062 0.80357 0.49739 0.0
C2000 C 0.74653 0.76145 0.51054 0.0
H2001 H 0.82873 0.73438 0.50872 0.0
H2002 H 0.80733 0.75484 0.50481 0.0
H2003 H 0.75649 0.7405 0.52284 0.0
H2004 H 0.69569 0.79082 0.48794 0.0
H2005 H 0.71669 0.76965 0.49202 0.0
H2006 H 0.76641 0.7843 0.48169 0.0
C2007 C 0.80369 0.74232 0.50737 0.0
C2008 C 0.75877 0.74978 0.5136 0.0
C2009 C 0.81601 0.73061 0.50976 0.0
C2010 C 0.70819 0.79456 0.49052 0.0
C2011 C 0.72016 0.78246 0.49294 0.0
C2012 C 0.76415 0.77475 0.49067 0.0
C2013 C 0.78699 0.73793 0.50835 0.0
C2014 C 0.77385 0.75034 0.50512 0.0
C2015 C 0.73648 0.78687 0.49639 0.0
C2016 C 0.74917 0.77411 0.49916 0.0
H2017 H 0.79185 0.69738 0.51772 0.0
H2018 H 0.77033 0.71758 0.5129 0.0
H2019 H 0.78749 0.7636 0.48639 0.0
H2020 H 0.73214 0.82844 0.49636 0.0
H2021 H 0.75311 0.80728 0.50013 0.0
C2022 C 0.71115 0.20675 0.52024 0.0
C2023 C 0.71188 0.19231 0.5108 0.0
C2024 C 0.72276 0.21923 0.51802 0.0
C2025 C 0.75243 0.23565 0.48796 0.0
H2026 H 0.77278 0.25591 0.52594 0.0
C2027 C 0.79675 0.29137 0.48329 0.0
C2028 C 0.8111 0.29041 0.49286 0.0
C2029 C 0.78412 0.27986 0.4853 0.0
C2030 C 0.76722 0.25034 0.51521 0.0
H2031 H 0.7254 0.17973 0.49157 0.0
H2032 H 0.74557 0.20149 0.48773 0.0
H2033 H 0.75175 0.23488 0.52982 0.0
H2034 H 0.82339 0.27654 0.51204 0.0
H2035 H 0.80142 0.25659 0.51552 0.0
H2036 H 0.76808 0.25097 0.47336 0.0
C2037 C 0.73597 0.20319 0.49677 0.0
C2038 C 0.75508 0.23841 0.51744 0.0
C2039 C 0.72446 0.19067 0.49908 0.0
C2040 C 0.81252 0.27768 0.50445 0.0
C2041 C 0.79988 0.26629 0.50654 0.0
C2042 C 0.76449 0.24768 0.48573 0.0
C2043 C 0.73526 0.21762 0.50621 0.0
C2044 C 0.74766 0.23081 0.50384 0.0
C2045 C 0.78552 0.26725 0.49703 0.0
C2046 C 0.77214 0.25504 0.49934 0.0
H2047 H 0.70162 0.20843 0.52936 0.0
H2048 H 0.72183 0.23025 0.5254 0.0
H2049 H 0.74683 0.23013 0.47724 0.0
H2050 H 0.79524 0.30102 0.47427 0.0
H2051 H 0.77316 0.28097 0.47785 0.0
C2052 C 0.27473 0.8152 0.50933 0.0
C2053 C 0.29114 0.81131 0.51296 0.0
C2054 C 0.26314 0.80279 0.50688 0.0
C2055 C 0.256 0.75783 0.5127 0.0
H2056 H 0.22152 0.76557 0.48075 0.0
C2057 C 0.21062 0.70748 0.49015 0.0
C2058 C 0.19395 0.71182 0.49142 0.0
C2059 C 0.22291 0.7193 0.49238 0.0
C2060 C 0.23107 0.76327 0.48973 0.0
H2061 H 0.30826 0.79132 0.51692 0.0
H2062 H 0.28821 0.76963 0.51205 0.0
H2063 H 0.24221 0.78662 0.48554 0.0
H2064 H 0.1771 0.73203 0.4956 0.0
H2065 H 0.19855 0.7527 0.49905 0.0
H2066 H 0.24494 0.73421 0.51644 0.0
C2067 C 0.28412 0.78227 0.51153 0.0
C2068 C 0.24288 0.77538 0.4926 0.0
C2069 C 0.29567 0.79471 0.51427 0.0
C2070 C 0.18983 0.72828 0.49459 0.0
C2071 C 0.20209 0.74013 0.4965 0.0
C2072 C 0.24432 0.7456 0.5096 0.0
C2073 C 0.2677 0.78613 0.50767 0.0
C2074 C 0.25542 0.77294 0.50428 0.0
C2075 C 0.21874 0.73573 0.49558 0.0
C2076 C 0.23165 0.74829 0.49822 0.0
H2077 H 0.27081 0.82788 0.5084 0.0
H2078 H 0.25056 0.80632 0.50439 0.0
H2079 H 0.26527 0.75553 0.52195 0.0
H2080 H 0.21418 0.69488 0.48779 0.0
H2081 H 0.23567 0.71563 0.49153 0.0
C2082 C 0.20828 0.29652 0.51256 0.0
C2083 C 0.19167 0.29219 0.51088 0.0
C2084 C 0.22066 0.2849 0.50988 0.0
C2085 C 0.22768 0.24361 0.49102 0.0
H2086 H 0.26812 0.24533 0.51611 0.0
C2087 C 0.27458 0.19031 0.4947 0.0
C2088 C 0.29111 0.19442 0.49185 0.0
C2089 C 0.26267 0.20258 0.49621 0.0
C2090 C 0.25693 0.24481 0.50893 0.0
H2091 H 0.17497 0.27217 0.50555 0.0
H2092 H 0.1964 0.25175 0.50163 0.0
H2093 H 0.24681 0.26581 0.52096 0.0
H2094 H 0.30811 0.21462 0.48835 0.0
H2095 H 0.28726 0.23612 0.49143 0.0
H2096 H 0.23768 0.22213 0.47952 0.0
C2097 C 0.20001 0.26424 0.50439 0.0
C2098 C 0.24471 0.25658 0.51164 0.0
C2099 C 0.18767 0.27593 0.50678 0.0
C2100 C 0.29546 0.21108 0.49048 0.0
C2101 C 0.28358 0.22337 0.49232 0.0
C2102 C 0.23977 0.23168 0.48855 0.0
C2103 C 0.21671 0.26857 0.50573 0.0
C2104 C 0.22987 0.25614 0.50274 0.0
C2105 C 0.26709 0.21922 0.49521 0.0
C2106 C 0.2545 0.23216 0.49749 0.0
H2107 H 0.21176 0.309 0.51558 0.0
H2108 H 0.23332 0.28884 0.51076 0.0
H2109 H 0.21665 0.24302 0.48362 0.0
H2110 H 0.27084 0.1776 0.49577 0.0
H2111 H 0.25005 0.19907 0.49852 0.0
C2112 C 0.06113 0.32905 0.12656 0.0
C2113 C 0.0581 0.34139 0.13823 0.0
C2114 C 0.0734 0.33099 0.11475 0.0
C2115 C 0.09783 0.36264 0.09324 0.0
H2116 H 0.12244 0.32465 0.07845 0.0
C2117 C 0.14858 0.36469 0.04237 0.0
C2118 C 0.14742 0.3522 0.03048 0.0
C2119 C 0.13863 0.36433 0.05644 0.0
C2120 C 0.11562 0.33537 0.08241 0.0
H2121 H 0.06585 0.36537 0.14681 0.0
H2122 H 0.08754 0.36867 0.12625 0.0
H2123 H 0.10399 0.32211 0.10184 0.0
H2124 H 0.13466 0.32969 0.02402 0.0
H2125 H 0.11754 0.32907 0.04843 0.0
H2126 H 0.10957 0.37584 0.07365 0.0
C2127 C 0.08022 0.35757 0.12614 0.0
C2128 C 0.10501 0.33392 0.0958 0.0
C2129 C 0.06787 0.35563 0.13799 0.0
C2130 C 0.13595 0.33951 0.03289 0.0
C2131 C 0.12619 0.33907 0.04696 0.0
C2132 C 0.10858 0.36412 0.07987 0.0
C2133 C 0.08307 0.34529 0.1143 0.0
C2134 C 0.09567 0.34742 0.10116 0.0
C2135 C 0.1275 0.35137 0.05898 0.0
C2136 C 0.1173 0.35039 0.07409 0.0
H2137 H 0.0538 0.31796 0.12631 0.0
H2138 H 0.075 0.3214 0.10568 0.0
H2139 H 0.09074 0.37326 0.09694 0.0
H2140 H 0.15727 0.37465 0.04089 0.0
H2141 H 0.13992 0.37397 0.06551 0.0
C2142 C 0.67447 0.06155 0.12894 0.0
C2143 C 0.66193 0.05839 0.14037 0.0
C2144 C 0.67261 0.07373 0.11702 0.0
C2145 C 0.64096 0.09766 0.09483 0.0
H2146 H 0.67895 0.12238 0.08021 0.0
C2147 C 0.63918 0.14822 0.04372 0.0
C2148 C 0.65171 0.14696 0.03188 0.0
C2149 C 0.63945 0.13833 0.05783 0.0
C2150 C 0.66823 0.11553 0.08412 0.0
H2151 H 0.63767 0.06586 0.14842 0.0
H2152 H 0.63451 0.08741 0.12771 0.0
H2153 H 0.68137 0.10416 0.10379 0.0
H2154 H 0.67421 0.13409 0.02555 0.0
H2155 H 0.67469 0.11709 0.05006 0.0
H2156 H 0.62788 0.10919 0.07503 0.0
C2157 C 0.64571 0.08025 0.12784 0.0
C2158 C 0.66961 0.10504 0.09762 0.0
C2159 C 0.64757 0.06797 0.13979 0.0
C2160 C 0.66435 0.13545 0.03438 0.0
C2161 C 0.66471 0.12576 0.04851 0.0
C2162 C 0.63954 0.10831 0.08136 0.0
C2163 C 0.65817 0.08319 0.11622 0.0
C2164 C 0.65611 0.09566 0.10293 0.0
C2165 C 0.65237 0.12717 0.06047 0.0
C2166 C 0.65327 0.11706 0.07565 0.0
H2167 H 0.68567 0.05436 0.12895 0.0
H2168 H 0.68235 0.07539 0.10813 0.0
H2169 H 0.63033 0.09055 0.09847 0.0
H2170 H 0.62926 0.15694 0.04217 0.0
H2171 H 0.62979 0.13969 0.06687 0.0
C2172 C 0.93581 0.64874 0.13789 0.0
C2173 C 0.94562 0.66295 0.13818 0.0
C2174 C 0.92348 0.64685 0.126 0.0
C2175 C 0.89896 0.67062 0.09548 0.0
H2176 H 0.89444 0.62875 0.07324 0.0
C2177 C 0.86973 0.66534 0.03182 0.0
C2178 C 0.85797 0.65297 0.02914 0.0
C2179 C 0.87909 0.6656 0.04616 0.0
C2180 C 0.89541 0.64045 0.07949 0.0
H2181 H 0.95001 0.68639 0.12629 0.0
H2182 H 0.92887 0.68303 0.1056 0.0
H2183 H 0.91297 0.63118 0.09679 0.0
H2184 H 0.84718 0.63088 0.03939 0.0
H2185 H 0.86388 0.6312 0.0645 0.0
H2186 H 0.88187 0.68001 0.07785 0.0
C2187 C 0.9304 0.67343 0.11467 0.0
C2188 C 0.90599 0.64185 0.09301 0.0
C2189 C 0.94265 0.67531 0.12652 0.0
C2190 C 0.85611 0.64059 0.04107 0.0
C2191 C 0.86568 0.64075 0.05542 0.0
C2192 C 0.88853 0.66924 0.08193 0.0
C2193 C 0.9207 0.65915 0.11416 0.0
C2194 C 0.90817 0.65707 0.10095 0.0
C2195 C 0.87709 0.65342 0.0582 0.0
C2196 C 0.8869 0.65424 0.07357 0.0
H2197 H 0.93779 0.63898 0.14671 0.0
H2198 H 0.91614 0.63577 0.12608 0.0
H2199 H 0.89997 0.68242 0.10152 0.0
H2200 H 0.87156 0.67507 0.02294 0.0
H2201 H 0.88797 0.67536 0.04782 0.0
C2202 C 0.34156 0.86976 0.03212 0.0
C2203 C 0.35359 0.85745 0.0307 0.0
C2204 C 0.34147 0.88043 0.04551 0.0
C2205 C 0.35644 0.88532 0.08817 0.0
H2206 H 0.34312 0.93045 0.08082 0.0
C2207 C 0.35593 0.93681 0.13845 0.0
C2208 C 0.34188 0.94688 0.13854 0.0
C2209 C 0.35825 0.92517 0.12597 0.0
C2210 C 0.34676 0.91786 0.08309 0.0
H2211 H 0.37506 0.84681 0.04235 0.0
H2212 H 0.37507 0.86575 0.06571 0.0
H2213 H 0.3463 0.91204 0.05753 0.0
H2214 H 0.31899 0.95215 0.12593 0.0
H2215 H 0.3231 0.932 0.10428 0.0
H2216 H 0.357 0.89139 0.11384 0.0
C2217 C 0.36556 0.86694 0.05649 0.0
C2218 C 0.34856 0.90727 0.06974 0.0
C2219 C 0.36562 0.85616 0.04305 0.0
C2220 C 0.32999 0.94467 0.12622 0.0
C2221 C 0.33238 0.93318 0.11373 0.0
C2222 C 0.35477 0.89601 0.10157 0.0
C2223 C 0.35347 0.87924 0.05786 0.0
C2224 C 0.35308 0.89077 0.0721 0.0
C2225 C 0.34666 0.92352 0.11328 0.0
C2226 C 0.34958 0.9123 0.09917 0.0
H2227 H 0.33201 0.87108 0.02295 0.0
H2228 H 0.33175 0.88948 0.04628 0.0
H2229 H 0.35983 0.87267 0.09046 0.0
H2230 H 0.36532 0.9382 0.14777 0.0
H2231 H 0.36939 0.91789 0.12592 0.0
C2232 C 0.07012 0.64932 0.86736 0.0
C2233 C 0.06061 0.66374 0.86705 0.0
C2234 C 0.08221 0.64706 0.87943 0.0
C2235 C 0.10675 0.66998 0.91055 0.0
H2236 H 0.11029 0.62769 0.93219 0.0
C2237 C 0.13635 0.6631 0.97396 0.0
C2238 C 0.14777 0.65035 0.97631 0.0
C2239 C 0.12679 0.66379 0.95976 0.0
C2240 C 0.10957 0.63951 0.92613 0.0
H2241 H 0.05651 0.68714 0.87909 0.0
H2242 H 0.07723 0.68313 0.9001 0.0
H2243 H 0.09196 0.63085 0.90858 0.0
H2244 H 0.1577 0.62804 0.96568 0.0
H2245 H 0.14069 0.62917 0.94084 0.0
H2246 H 0.12393 0.67875 0.92839 0.0
C2247 C 0.07565 0.67365 0.89092 0.0
C2248 C 0.09912 0.64133 0.91257 0.0
C2249 C 0.06365 0.67592 0.87888 0.0
C2250 C 0.14905 0.63804 0.96425 0.0
C2251 C 0.1393 0.63865 0.95005 0.0
C2252 C 0.11706 0.66819 0.92414 0.0
C2253 C 0.08504 0.65917 0.89144 0.0
C2254 C 0.09733 0.65669 0.90481 0.0
C2255 C 0.12826 0.6517 0.94756 0.0
C2256 C 0.11836 0.65303 0.93227 0.0
H2257 H 0.06809 0.63969 0.85842 0.0
H2258 H 0.08933 0.63582 0.87935 0.0
H2259 H 0.10602 0.68188 0.90466 0.0
H2260 H 0.13497 0.67279 0.98296 0.0
H2261 H 0.1182 0.67385 0.95832 0.0
C2262 C 0.3316 0.06159 0.87568 0.0
C2263 C 0.34417 0.05803 0.8644 0.0
C2264 C 0.33357 0.07398 0.88736 0.0
C2265 C 0.36541 0.09776 0.90935 0.0
H2266 H 0.32774 0.12335 0.92324 0.0
C2267 C 0.36761 0.14857 0.96017 0.0
C2268 C 0.35494 0.14755 0.97188 0.0
C2269 C 0.36728 0.1387 0.94604 0.0
C2270 C 0.33837 0.11627 0.91953 0.0
H2271 H 0.36857 0.065 0.85635 0.0
H2272 H 0.37192 0.08691 0.87664 0.0
H2273 H 0.32522 0.10486 0.8999 0.0
H2274 H 0.33209 0.13518 0.97794 0.0
H2275 H 0.33152 0.11821 0.95343 0.0
H2276 H 0.3785 0.10928 0.92913 0.0
C2277 C 0.36061 0.07991 0.87658 0.0
C2278 C 0.33693 0.10563 0.90616 0.0
C2279 C 0.35865 0.06743 0.86486 0.0
C2280 C 0.34206 0.13634 0.96922 0.0
C2281 C 0.34165 0.12667 0.95508 0.0
C2282 C 0.36689 0.10855 0.92268 0.0
C2283 C 0.34813 0.08325 0.88806 0.0
C2284 C 0.3503 0.09591 0.90113 0.0
C2285 C 0.35416 0.12781 0.94327 0.0
C2286 C 0.35326 0.11762 0.92814 0.0
H2287 H 0.32031 0.05455 0.87576 0.0
H2288 H 0.32379 0.07596 0.89615 0.0
H2289 H 0.37594 0.09039 0.90592 0.0
H2290 H 0.37771 0.15706 0.96185 0.0
H2291 H 0.37708 0.13984 0.93713 0.0
C2292 C 0.86917 0.34142 0.97222 0.0
C2293 C 0.85755 0.35399 0.97454 0.0
C2294 C 0.87892 0.34099 0.95813 0.0
C2295 C 0.89633 0.36591 0.92508 0.0
H2296 H 0.90073 0.32391 0.90307 0.0
C2297 C 0.93676 0.35756 0.86677 0.0
C2298 C 0.94636 0.34321 0.86627 0.0
C2299 C 0.9245 0.35948 0.87872 0.0
C2300 C 0.89978 0.33571 0.90912 0.0
H2301 H 0.84743 0.37625 0.96397 0.0
H2302 H 0.86479 0.3756 0.93935 0.0
H2303 H 0.88245 0.32646 0.92658 0.0
H2304 H 0.95047 0.31958 0.87785 0.0
H2305 H 0.92948 0.32299 0.89869 0.0
H2306 H 0.91409 0.37504 0.90794 0.0
C2307 C 0.86619 0.36604 0.94849 0.0
C2308 C 0.88925 0.33717 0.92258 0.0
C2309 C 0.85624 0.36638 0.96256 0.0
C2310 C 0.94326 0.33075 0.87779 0.0
C2311 C 0.9311 0.33268 0.88972 0.0
C2312 C 0.90702 0.36442 0.91166 0.0
C2313 C 0.87746 0.35318 0.94603 0.0
C2314 C 0.88762 0.35219 0.9309 0.0
C2315 C 0.9216 0.34709 0.89044 0.0
C2316 C 0.90911 0.34921 0.9037 0.0
H2317 H 0.87057 0.33167 0.98116 0.0
H2318 H 0.88767 0.33106 0.95672 0.0
H2319 H 0.89537 0.37762 0.9313 0.0
H2320 H 0.93884 0.3674 0.85806 0.0
H2321 H 0.91731 0.37066 0.87878 0.0
C2322 C 0.66225 0.87249 0.97288 0.0
C2323 C 0.65101 0.85945 0.97429 0.0
C2324 C 0.66176 0.88309 0.95945 0.0
C2325 C 0.64688 0.88689 0.91665 0.0
H2326 H 0.65792 0.93265 0.92384 0.0
C2327 C 0.6465 0.93819 0.86596 0.0
C2328 C 0.66049 0.94834 0.86591 0.0
C2329 C 0.64411 0.92666 0.87855 0.0
C2330 C 0.65487 0.91989 0.92162 0.0
H2331 H 0.63034 0.84744 0.96257 0.0
H2332 H 0.62929 0.86626 0.9391 0.0
H2333 H 0.6552 0.91428 0.94723 0.0
H2334 H 0.68313 0.95399 0.87881 0.0
H2335 H 0.67886 0.9341 0.90068 0.0
H2336 H 0.64647 0.89277 0.89092 0.0
C2337 C 0.63864 0.86808 0.94838 0.0
C2338 C 0.65336 0.90932 0.93503 0.0
C2339 C 0.63918 0.85736 0.96188 0.0
C2340 C 0.6722 0.94642 0.87845 0.0
C2341 C 0.66972 0.93508 0.89107 0.0
C2342 C 0.64824 0.89757 0.90319 0.0
C2343 C 0.64994 0.88111 0.94702 0.0
C2344 C 0.64976 0.89258 0.93273 0.0
C2345 C 0.65554 0.92526 0.89141 0.0
C2346 C 0.65263 0.91409 0.90555 0.0
H2347 H 0.67165 0.87445 0.98209 0.0
H2348 H 0.67091 0.89271 0.95869 0.0
H2349 H 0.64419 0.87407 0.9144 0.0
H2350 H 0.63726 0.93936 0.85647 0.0
H2351 H 0.63307 0.91924 0.87852 0.0
C2352 C 0.12836 0.06273 0.32976 0.0
C2353 C 0.13984 0.05939 0.34221 0.0
C2354 C 0.11661 0.07505 0.33175 0.0
C2355 C 0.09474 0.09896 0.36352 0.0
H2356 H 0.08033 0.124 0.32566 0.0
C2357 C 0.04279 0.14886 0.36493 0.0
C2358 C 0.03103 0.14712 0.35237 0.0
C2359 C 0.0572 0.13938 0.36481 0.0
C2360 C 0.08421 0.11709 0.33635 0.0
H2361 H 0.14815 0.06665 0.36643 0.0
H2362 H 0.12768 0.08843 0.36983 0.0
H2363 H 0.10394 0.10582 0.32324 0.0
H2364 H 0.0252 0.13386 0.32997 0.0
H2365 H 0.05019 0.11762 0.32974 0.0
H2366 H 0.07481 0.11033 0.37656 0.0
C2367 C 0.12767 0.08132 0.3586 0.0
C2368 C 0.09772 0.10663 0.33496 0.0
C2369 C 0.13947 0.06892 0.35661 0.0
C2370 C 0.03394 0.13559 0.33984 0.0
C2371 C 0.04835 0.12633 0.33962 0.0
C2372 C 0.08126 0.10959 0.36494 0.0
C2373 C 0.11602 0.08446 0.34622 0.0
C2374 C 0.1029 0.09707 0.34839 0.0
C2375 C 0.0602 0.12819 0.352 0.0
C2376 C 0.0756 0.11842 0.35124 0.0
H2377 H 0.1282 0.05559 0.31854 0.0
H2378 H 0.10768 0.07687 0.32207 0.0
H2379 H 0.09831 0.09173 0.37409 0.0
H2380 H 0.04092 0.15761 0.37477 0.0
H2381 H 0.06614 0.14105 0.37451 0.0
C2382 C 0.93655 0.13682 0.35567 0.0
C2383 C 0.9461 0.13725 0.34128 0.0
C2384 C 0.92439 0.1248 0.35774 0.0
C2385 C 0.89968 0.09417 0.33438 0.0
H2386 H 0.89613 0.07184 0.3763 0.0
C2387 C 0.86973 0.03084 0.34021 0.0
C2388 C 0.85841 0.02828 0.35301 0.0
C2389 C 0.87935 0.045 0.33973 0.0
C2390 C 0.89684 0.0781 0.36459 0.0
H2391 H 0.95018 0.12549 0.31773 0.0
H2392 H 0.9293 0.10458 0.3214 0.0
H2393 H 0.91455 0.09542 0.3735 0.0
H2394 H 0.8487 0.0385 0.37561 0.0
H2395 H 0.86581 0.06329 0.37484 0.0
H2396 H 0.88239 0.07658 0.32534 0.0
C2397 C 0.93093 0.11363 0.33101 0.0
C2398 C 0.90736 0.09164 0.36298 0.0
C2399 C 0.94302 0.1256 0.32893 0.0
C2400 C 0.85728 0.04009 0.36557 0.0
C2401 C 0.86709 0.05426 0.36516 0.0
C2402 C 0.88931 0.08061 0.33596 0.0
C2403 C 0.92151 0.11298 0.34547 0.0
C2404 C 0.90915 0.09964 0.34775 0.0
C2405 C 0.87803 0.05697 0.35207 0.0
C2406 C 0.888 0.07223 0.35098 0.0
H2407 H 0.93862 0.14562 0.36542 0.0
H2408 H 0.91725 0.12477 0.36896 0.0
H2409 H 0.90042 0.10026 0.32258 0.0
H2410 H 0.87099 0.02202 0.33034 0.0
H2411 H 0.88787 0.0466 0.32963 0.0
C2412 C 0.87906 0.94279 0.33039 0.0
C2413 C 0.8666 0.94464 0.34219 0.0
C2414 C 0.89184 0.93163 0.33283 0.0
C2415 C 0.90476 0.89451 0.3546 0.0
H2416 H 0.94847 0.91201 0.34743 0.0
C2417 C 0.96419 0.85561 0.36444 0.0
C2418 C 0.97666 0.85782 0.35268 0.0
C2419 C 0.95047 0.86607 0.36473 0.0
C2420 C 0.93637 0.90683 0.34933 0.0
H2421 H 0.85745 0.93565 0.36554 0.0
H2422 H 0.87979 0.91584 0.36967 0.0
H2423 H 0.92472 0.92987 0.34445 0.0
H2424 H 0.98434 0.87272 0.33194 0.0
H2425 H 0.96057 0.89051 0.33224 0.0
H2426 H 0.91643 0.8713 0.35899 0.0
C2427 C 0.87963 0.92318 0.35858 0.0
C2428 C 0.92275 0.91711 0.34766 0.0
C2429 C 0.86687 0.93454 0.35622 0.0
C2430 C 0.97509 0.87069 0.34128 0.0
C2431 C 0.96144 0.88102 0.34152 0.0
C2432 C 0.91844 0.88413 0.35611 0.0
C2433 C 0.89243 0.92191 0.34707 0.0
C2434 C 0.90679 0.91102 0.35 0.0
C2435 C 0.94895 0.87893 0.35326 0.0
C2436 C 0.93441 0.8901 0.35318 0.0
H2437 H 0.87923 0.95032 0.31942 0.0
H2438 H 0.90141 0.93074 0.32363 0.0
H2439 H 0.89258 0.8895 0.35646 0.0
H2440 H 0.96499 0.84581 0.37339 0.0
H2441 H 0.94116 0.86416 0.37402 0.0
C2442 C 0.15092 0.96209 0.36505 0.0
C2443 C 0.14915 0.97402 0.35267 0.0
C2444 C 0.14145 0.94768 0.36474 0.0
C2445 C 0.11915 0.92104 0.33594 0.0
H2446 H 0.094 0.90629 0.37357 0.0
C2447 C 0.06495 0.87672 0.32896 0.0
C2448 C 0.06164 0.86514 0.34131 0.0
C2449 C 0.07727 0.88845 0.33103 0.0
C2450 C 0.10118 0.91004 0.36303 0.0
H2451 H 0.13584 0.98016 0.33037 0.0
H2452 H 0.11962 0.95516 0.32981 0.0
H2453 H 0.1125 0.92982 0.3763 0.0
H2454 H 0.06897 0.8566 0.36544 0.0
H2455 H 0.09076 0.87702 0.36898 0.0
H2456 H 0.10794 0.90143 0.3226 0.0
C2457 C 0.12834 0.95687 0.33971 0.0
C2458 C 0.11174 0.92355 0.3646 0.0
C2459 C 0.13759 0.97128 0.34011 0.0
C2460 C 0.07122 0.86535 0.35568 0.0
C2461 C 0.08362 0.87713 0.35776 0.0
C2462 C 0.10875 0.9075 0.3344 0.0
C2463 C 0.13024 0.94484 0.35191 0.0
C2464 C 0.1205 0.92944 0.35095 0.0
C2465 C 0.08672 0.88892 0.34549 0.0
C2466 C 0.09927 0.90207 0.34779 0.0
H2467 H 0.15969 0.96382 0.3749 0.0
H2468 H 0.14316 0.9386 0.37431 0.0
H2469 H 0.126 0.9251 0.32529 0.0
H2470 H 0.05778 0.87699 0.31776 0.0
H2471 H 0.07905 0.89748 0.32143 0.0
C2472 C 0.03418 0.87097 0.66435 0.0
C2473 C 0.03127 0.85956 0.65172 0.0
C2474 C 0.04847 0.8804 0.66452 0.0
C2475 C 0.08109 0.89772 0.63918 0.0
H2476 H 0.10426 0.90069 0.68069 0.0
C2477 C 0.13951 0.93805 0.64746 0.0
C2478 C 0.14018 0.94726 0.66205 0.0
C2479 C 0.12763 0.92574 0.64542 0.0
C2480 C 0.09789 0.90012 0.66903 0.0
H2481 H 0.041 0.8495 0.62906 0.0
H2482 H 0.06602 0.86634 0.62925 0.0
H2483 H 0.08058 0.88261 0.67821 0.0
H2484 H 0.12899 0.95061 0.686 0.0
H2485 H 0.1083 0.92951 0.68238 0.0
H2486 H 0.09806 0.9157 0.63016 0.0
C2487 C 0.05717 0.8678 0.63906 0.0
C2488 C 0.08435 0.88971 0.6676 0.0
C2489 C 0.04287 0.85815 0.63898 0.0
C2490 C 0.12892 0.94371 0.67463 0.0
C2491 C 0.11707 0.93149 0.67258 0.0
C2492 C 0.0946 0.90829 0.64064 0.0
C2493 C 0.06021 0.87882 0.652 0.0
C2494 C 0.07558 0.88864 0.65279 0.0
C2495 C 0.11618 0.92239 0.65793 0.0
C2496 C 0.10295 0.90989 0.65571 0.0
H2497 H 0.02555 0.87245 0.67436 0.0
H2498 H 0.05035 0.88898 0.67451 0.0
H2499 H 0.07452 0.89717 0.62763 0.0
H2500 H 0.14802 0.94049 0.63753 0.0
H2501 H 0.12742 0.91887 0.63404 0.0
C2502 C 0.13623 0.03464 0.66531 0.0
C2503 C 0.14752 0.0322 0.65246 0.0
C2504 C 0.1265 0.04874 0.66588 0.0
C2505 C 0.10854 0.08157 0.641 0.0
H2506 H 0.1046 0.10377 0.68294 0.0
C2507 C 0.06802 0.13972 0.64943 0.0
C2508 C 0.05851 0.14025 0.66383 0.0
C2509 C 0.08034 0.12785 0.6475 0.0
C2510 C 0.10543 0.09766 0.67116 0.0
H2511 H 0.15711 0.04261 0.6299 0.0
H2512 H 0.13981 0.06726 0.6308 0.0
H2513 H 0.12296 0.08032 0.68028 0.0
H2514 H 0.05468 0.12884 0.6876 0.0
H2515 H 0.07582 0.10813 0.68418 0.0
H2516 H 0.0906 0.0986 0.63201 0.0
C2517 C 0.13864 0.05819 0.64046 0.0
C2518 C 0.116 0.08424 0.66963 0.0
C2519 C 0.14856 0.0441 0.63997 0.0
C2520 C 0.06181 0.12886 0.67637 0.0
C2521 C 0.07405 0.11701 0.67444 0.0
C2522 C 0.09783 0.09496 0.64256 0.0
C2523 C 0.12767 0.06074 0.65356 0.0
C2524 C 0.11746 0.07585 0.65463 0.0
C2525 C 0.08342 0.11623 0.65994 0.0
C2526 C 0.09591 0.10299 0.65776 0.0
H2527 H 0.13504 0.02576 0.67514 0.0
H2528 H 0.11798 0.05021 0.67599 0.0
H2529 H 0.10936 0.07529 0.62931 0.0
H2530 H 0.06579 0.14833 0.63953 0.0
H2531 H 0.08744 0.12776 0.63626 0.0
C2532 C 0.97116 0.13567 0.66544 0.0
C2533 C 0.97391 0.14682 0.65253 0.0
C2534 C 0.95698 0.12607 0.66585 0.0
C2535 C 0.92428 0.10825 0.64068 0.0
H2536 H 0.90132 0.10525 0.6823 0.0
C2537 C 0.8653 0.06885 0.64867 0.0
C2538 C 0.86441 0.05951 0.66317 0.0
C2539 C 0.8774 0.08097 0.64679 0.0
C2540 C 0.90763 0.10582 0.67061 0.0
H2541 H 0.964 0.15624 0.62967 0.0
H2542 H 0.9392 0.13915 0.6303 0.0
H2543 H 0.92513 0.12315 0.67977 0.0
H2544 H 0.87539 0.05579 0.68716 0.0
H2545 H 0.89647 0.07657 0.68382 0.0
H2546 H 0.90708 0.09051 0.63164 0.0
C2547 C 0.94809 0.138 0.64013 0.0
C2548 C 0.92127 0.11612 0.66916 0.0
C2549 C 0.96227 0.14779 0.63979 0.0
C2550 C 0.87565 0.06279 0.67585 0.0
C2551 C 0.88772 0.07482 0.67397 0.0
C2552 C 0.91068 0.0978 0.64216 0.0
C2553 C 0.94519 0.12722 0.65331 0.0
C2554 C 0.92992 0.11725 0.65428 0.0
C2555 C 0.88887 0.084 0.65937 0.0
C2556 C 0.90236 0.09623 0.65724 0.0
H2557 H 0.97984 0.13454 0.67546 0.0
H2558 H 0.95524 0.11768 0.67603 0.0
H2559 H 0.93075 0.10882 0.62907 0.0
H2560 H 0.85683 0.06664 0.63867 0.0
H2561 H 0.87778 0.08792 0.63547 0.0
C2562 C 0.94337 0.87861 0.67648 0.0
C2563 C 0.94659 0.86707 0.66407 0.0
C2564 C 0.93113 0.89045 0.67446 0.0
C2565 C 0.90738 0.91227 0.64246 0.0
H2566 H 0.88223 0.92715 0.68005 0.0
C2567 C 0.85686 0.96334 0.63959 0.0
C2568 C 0.85781 0.97519 0.65213 0.0
C2569 C 0.86678 0.94925 0.64009 0.0
C2570 C 0.8892 0.92317 0.66944 0.0
H2571 H 0.93918 0.8587 0.63991 0.0
H2572 H 0.91755 0.87928 0.63647 0.0
H2573 H 0.90051 0.90366 0.68287 0.0
H2574 H 0.87019 0.98158 0.67488 0.0
H2575 H 0.88727 0.95715 0.67574 0.0
H2576 H 0.89596 0.93192 0.62909 0.0
C2577 C 0.92469 0.87929 0.64769 0.0
C2578 C 0.89972 0.90972 0.67106 0.0
C2579 C 0.937 0.86742 0.64971 0.0
C2580 C 0.86906 0.97273 0.66501 0.0
C2581 C 0.8788 0.95865 0.66559 0.0
C2582 C 0.89673 0.9257 0.64082 0.0
C2583 C 0.9217 0.89106 0.65999 0.0
C2584 C 0.90924 0.9043 0.6577 0.0
C2585 C 0.87767 0.94666 0.65325 0.0
C2586 C 0.88781 0.93151 0.6544 0.0
H2587 H 0.95056 0.87877 0.68767 0.0
H2588 H 0.92941 0.89945 0.68409 0.0
H2589 H 0.91461 0.90854 0.63194 0.0
H2590 H 0.84834 0.96485 0.62949 0.0
H2591 H 0.86565 0.9402 0.63042 0.0
C2592 C 0.34345 0.03192 0.13229 0.0
C2593 C 0.3549 0.03042 0.14514 0.0
C2594 C 0.34394 0.0453 0.12161 0.0
C2595 C 0.3592 0.08788 0.1174 0.0
H2596 H 0.34744 0.08063 0.07182 0.0
C2597 C 0.35913 0.13851 0.06606 0.0
C2598 C 0.34508 0.13857 0.05599 0.0
C2599 C 0.3616 0.12592 0.07758 0.0
C2600 C 0.35068 0.08287 0.08453 0.0
H2601 H 0.37595 0.0419 0.15672 0.0
H2602 H 0.37697 0.06527 0.13777 0.0
H2603 H 0.35022 0.05729 0.09024 0.0
H2604 H 0.32238 0.1257 0.05052 0.0
H2605 H 0.32675 0.10385 0.0704 0.0
H2606 H 0.35972 0.11359 0.11143 0.0
C2607 C 0.36747 0.05611 0.13615 0.0
C2608 C 0.35224 0.06949 0.09512 0.0
C2609 C 0.36695 0.04267 0.14695 0.0
C2610 C 0.33337 0.12604 0.05801 0.0
C2611 C 0.33591 0.11344 0.06934 0.0
C2612 C 0.35778 0.10132 0.1067 0.0
C2613 C 0.35596 0.05756 0.12333 0.0
C2614 C 0.35611 0.07181 0.1118 0.0
C2615 C 0.35016 0.11308 0.07907 0.0
C2616 C 0.35312 0.09895 0.09024 0.0
H2617 H 0.3339 0.02284 0.13054 0.0
H2618 H 0.33463 0.04614 0.11215 0.0
H2619 H 0.3621 0.09015 0.13017 0.0
H2620 H 0.36838 0.14799 0.06481 0.0
H2621 H 0.37269 0.12594 0.08491 0.0
C2622 C 0.34303 0.9718 0.87123 0.0
C2623 C 0.35494 0.97325 0.8588 0.0
C2624 C 0.34299 0.95833 0.88181 0.0
C2625 C 0.35795 0.91555 0.88621 0.0
H2626 H 0.34455 0.92235 0.9314 0.0
C2627 C 0.35733 0.86468 0.93721 0.0
C2628 C 0.34312 0.86437 0.94705 0.0
C2629 C 0.35976 0.87733 0.92576 0.0
C2630 C 0.34823 0.92024 0.91879 0.0
H2631 H 0.37626 0.96159 0.8479 0.0
H2632 H 0.37638 0.93812 0.86669 0.0
H2633 H 0.34774 0.94586 0.91326 0.0
H2634 H 0.3201 0.87681 0.95214 0.0
H2635 H 0.3244 0.89877 0.93236 0.0
H2636 H 0.35856 0.88981 0.89201 0.0
C2637 C 0.36691 0.94736 0.86804 0.0
C2638 C 0.35002 0.93372 0.90835 0.0
C2639 C 0.36691 0.96087 0.85733 0.0
C2640 C 0.33121 0.87667 0.94483 0.0
C2641 C 0.33371 0.88934 0.93356 0.0
C2642 C 0.3563 0.90203 0.89676 0.0
C2643 C 0.35492 0.94592 0.88043 0.0
C2644 C 0.35455 0.93156 0.89182 0.0
C2645 C 0.34812 0.88998 0.9241 0.0
C2646 C 0.35109 0.90423 0.91306 0.0
H2647 H 0.33352 0.98098 0.87269 0.0
H2648 H 0.33334 0.95752 0.89093 0.0
H2649 H 0.36134 0.91339 0.87354 0.0
H2650 H 0.36674 0.85539 0.93862 0.0
H2651 H 0.37099 0.87753 0.91863 0.0
C2652 C 0.04301 0.36607 0.85697 0.0
C2653 C 0.0312 0.35349 0.85808 0.0
C2654 C 0.05723 0.36562 0.8667 0.0
C2655 C 0.0838 0.33645 0.88871 0.0
H2656 H 0.09819 0.37386 0.91437 0.0
C2657 C 0.12884 0.32929 0.94243 0.0
C2658 C 0.14022 0.34181 0.9458 0.0
C2659 C 0.1169 0.33133 0.9303 0.0
C2660 C 0.09454 0.36337 0.90706 0.0
H2661 H 0.02508 0.3307 0.87052 0.0
H2662 H 0.04977 0.32991 0.88724 0.0
H2663 H 0.07465 0.37663 0.8959 0.0
H2664 H 0.1482 0.36621 0.93874 0.0
H2665 H 0.12745 0.36969 0.91727 0.0
H2666 H 0.10355 0.32313 0.89973 0.0
C2667 C 0.0481 0.34007 0.87881 0.0
C2668 C 0.08101 0.36497 0.89651 0.0
C2669 C 0.03387 0.3406 0.86928 0.0
C2670 C 0.1396 0.35632 0.93646 0.0
C2671 C 0.12763 0.35837 0.92424 0.0
C2672 C 0.09736 0.33489 0.8991 0.0
C2673 C 0.06002 0.35247 0.87755 0.0
C2674 C 0.07528 0.35141 0.88752 0.0
C2675 C 0.11603 0.34593 0.92109 0.0
C2676 C 0.10269 0.3482 0.90872 0.0
H2677 H 0.04134 0.37618 0.84849 0.0
H2678 H 0.06623 0.37534 0.86546 0.0
H2679 H 0.07987 0.32586 0.88168 0.0
H2680 H 0.12889 0.31798 0.94943 0.0
H2681 H 0.10803 0.32159 0.92848 0.0
C2682 C 0.6746 0.12837 0.94343 0.0
C2683 C 0.66212 0.13978 0.94688 0.0
C2684 C 0.67257 0.11665 0.93108 0.0
C2685 C 0.64065 0.09488 0.90718 0.0
H2686 H 0.6783 0.08074 0.88169 0.0
C2687 C 0.63815 0.04425 0.85621 0.0
C2688 C 0.65075 0.03245 0.85715 0.0
C2689 C 0.63858 0.05832 0.86615 0.0
C2690 C 0.66768 0.08452 0.88874 0.0
H2691 H 0.63781 0.14801 0.9398 0.0
H2692 H 0.63436 0.12765 0.91797 0.0
H2693 H 0.68095 0.10401 0.90025 0.0
H2694 H 0.67357 0.02619 0.86948 0.0
H2695 H 0.67431 0.05061 0.88658 0.0
H2696 H 0.62744 0.07524 0.89555 0.0
C2697 C 0.64564 0.12764 0.92501 0.0
C2698 C 0.66919 0.09784 0.89943 0.0
C2699 C 0.64766 0.13939 0.93745 0.0
C2700 C 0.66365 0.03498 0.86837 0.0
C2701 C 0.66416 0.04906 0.87811 0.0
C2702 C 0.63911 0.08159 0.89635 0.0
C2703 C 0.65804 0.11604 0.92175 0.0
C2704 C 0.65582 0.10298 0.90909 0.0
C2705 C 0.65172 0.06096 0.87704 0.0
C2706 C 0.65272 0.07604 0.88731 0.0
H2707 H 0.68587 0.12824 0.9505 0.0
H2708 H 0.68229 0.10777 0.92917 0.0
H2709 H 0.63013 0.09839 0.9145 0.0
H2710 H 0.62803 0.04267 0.84772 0.0
H2711 H 0.62883 0.06731 0.86505 0.0
C2712 C 0.96379 0.6413 0.85462 0.0
C2713 C 0.97562 0.65378 0.85644 0.0
C2714 C 0.94934 0.6415 0.86403 0.0
C2715 C 0.92238 0.67006 0.88629 0.0
H2716 H 0.90804 0.6323 0.91148 0.0
C2717 C 0.87816 0.67664 0.94061 0.0
C2718 C 0.86665 0.66422 0.94391 0.0
C2719 C 0.8899 0.67467 0.92828 0.0
C2720 C 0.91167 0.64288 0.90429 0.0
H2721 H 0.9815 0.67615 0.86972 0.0
H2722 H 0.95643 0.67652 0.88583 0.0
H2723 H 0.93156 0.62978 0.89294 0.0
H2724 H 0.85826 0.64005 0.93655 0.0
H2725 H 0.8787 0.63667 0.91475 0.0
H2726 H 0.90268 0.68323 0.89756 0.0
C2727 C 0.95826 0.66663 0.87713 0.0
C2728 C 0.92518 0.64143 0.89371 0.0
C2729 C 0.97271 0.66633 0.86794 0.0
C2730 C 0.86696 0.64986 0.93432 0.0
C2731 C 0.87874 0.64788 0.9219 0.0
C2732 C 0.90885 0.67148 0.89673 0.0
C2733 C 0.94635 0.65432 0.87521 0.0
C2734 C 0.93092 0.65513 0.88493 0.0
C2735 C 0.89044 0.66023 0.91881 0.0
C2736 C 0.90358 0.65805 0.90622 0.0
H2737 H 0.96565 0.63144 0.84589 0.0
H2738 H 0.94035 0.63185 0.86231 0.0
H2739 H 0.92634 0.68075 0.87944 0.0
H2740 H 0.87836 0.68783 0.94779 0.0
H2741 H 0.89886 0.68433 0.9265 0.0
C2742 C 0.63905 0.96157 0.14924 0.0
C2743 C 0.65142 0.97357 0.14797 0.0
C2744 C 0.63953 0.94744 0.13939 0.0
C2745 C 0.66871 0.92155 0.11664 0.0
H2746 H 0.63108 0.90672 0.09155 0.0
C2747 C 0.67566 0.87746 0.0622 0.0
C2748 C 0.66334 0.86583 0.05895 0.0
C2749 C 0.67362 0.88916 0.07456 0.0
C2750 C 0.64163 0.91049 0.0987 0.0
H2751 H 0.67385 0.98018 0.13512 0.0
H2752 H 0.67468 0.95566 0.11817 0.0
H2753 H 0.62823 0.93004 0.11027 0.0
H2754 H 0.6393 0.85716 0.06644 0.0
H2755 H 0.63583 0.8775 0.08829 0.0
H2756 H 0.68217 0.90216 0.10519 0.0
C2757 C 0.66467 0.95709 0.12683 0.0
C2758 C 0.63999 0.92389 0.10939 0.0
C2759 C 0.66411 0.97122 0.13649 0.0
C2760 C 0.64904 0.86595 0.06863 0.0
C2761 C 0.647 0.87769 0.08107 0.0
C2762 C 0.67032 0.90812 0.1061 0.0
C2763 C 0.6525 0.94496 0.12826 0.0
C2764 C 0.65363 0.92979 0.11817 0.0
C2765 C 0.65922 0.88954 0.08409 0.0
C2766 C 0.65692 0.90265 0.09668 0.0
H2767 H 0.6291 0.963 0.15794 0.0
H2768 H 0.62998 0.93828 0.14075 0.0
H2769 H 0.67936 0.92561 0.12351 0.0
H2770 H 0.68681 0.8778 0.05494 0.0
H2771 H 0.68319 0.89823 0.07629 0.0
C2772 C 0.0337 0.66342 0.13618 0.0
C2773 C 0.03066 0.65091 0.1477 0.0
C2774 C 0.04816 0.66357 0.127 0.0
C2775 C 0.08109 0.63816 0.11048 0.0
H2776 H 0.10418 0.6797 0.10729 0.0
C2777 C 0.13983 0.64614 0.07054 0.0
C2778 C 0.14053 0.66064 0.06118 0.0
C2779 C 0.12787 0.64421 0.0828 0.0
C2780 C 0.09784 0.66802 0.10792 0.0
H2781 H 0.04037 0.62846 0.15826 0.0
H2782 H 0.06569 0.62859 0.14184 0.0
H2783 H 0.08029 0.67735 0.12512 0.0
H2784 H 0.12936 0.68455 0.05754 0.0
H2785 H 0.10855 0.68113 0.07854 0.0
H2786 H 0.09829 0.62899 0.09279 0.0
C2787 C 0.0568 0.63833 0.14011 0.0
C2788 C 0.08418 0.66668 0.1182 0.0
C2789 C 0.04234 0.63829 0.14951 0.0
C2790 C 0.12925 0.67325 0.06455 0.0
C2791 C 0.11734 0.67131 0.07672 0.0
C2792 C 0.09472 0.63954 0.10004 0.0
C2793 C 0.05994 0.65114 0.12895 0.0
C2794 C 0.07544 0.65185 0.11933 0.0
C2795 C 0.11638 0.65674 0.08595 0.0
C2796 C 0.10305 0.65461 0.09836 0.0
H2797 H 0.02502 0.67335 0.13441 0.0
H2798 H 0.05012 0.67345 0.11832 0.0
H2799 H 0.07455 0.6266 0.11108 0.0
H2800 H 0.14834 0.63618 0.06824 0.0
H2801 H 0.12762 0.63289 0.08977 0.0
C2802 C 0.96128 0.36549 0.14985 0.0
C2803 C 0.97298 0.35289 0.14808 0.0
C2804 C 0.94691 0.3655 0.14031 0.0
C2805 C 0.91978 0.33733 0.11783 0.0
H2806 H 0.90619 0.37518 0.09236 0.0
C2807 C 0.87594 0.33106 0.06318 0.0
C2808 C 0.86463 0.34362 0.0597 0.0
C2809 C 0.88761 0.33296 0.07559 0.0
C2810 C 0.90961 0.36458 0.09962 0.0
H2811 H 0.97873 0.3305 0.13476 0.0
H2812 H 0.95379 0.33048 0.11843 0.0
H2813 H 0.92957 0.37744 0.11112 0.0
H2814 H 0.85654 0.36797 0.06681 0.0
H2815 H 0.87685 0.37121 0.08875 0.0
H2816 H 0.90001 0.32438 0.10644 0.0
C2817 C 0.95566 0.34032 0.12718 0.0
C2818 C 0.92303 0.36589 0.11033 0.0
C2819 C 0.97004 0.34042 0.13649 0.0
C2820 C 0.86508 0.35805 0.06918 0.0
C2821 C 0.87679 0.35995 0.08168 0.0
C2822 C 0.90633 0.33605 0.10728 0.0
C2823 C 0.94387 0.35276 0.12905 0.0
C2824 C 0.92851 0.35214 0.11921 0.0
C2825 C 0.88828 0.34745 0.08497 0.0
C2826 C 0.90133 0.34952 0.09768 0.0
H2827 H 0.96318 0.37529 0.15864 0.0
H2828 H 0.93801 0.37524 0.14199 0.0
H2829 H 0.92354 0.32661 0.12476 0.0
H2830 H 0.87602 0.31981 0.05609 0.0
H2831 H 0.89641 0.32318 0.07752 0.0
C2832 C 0.6346 0.83982 0.53211 0.0
C2833 C 0.64604 0.85243 0.52915 0.0
C2834 C 0.62526 0.83965 0.54646 0.0
C2835 C 0.60838 0.86508 0.5793 0.0
H2836 H 0.60485 0.82344 0.60217 0.0
C2837 C 0.56828 0.85696 0.63791 0.0
C2838 C 0.55874 0.84257 0.63843 0.0
C2839 C 0.58057 0.85889 0.62599 0.0
C2840 C 0.60558 0.83515 0.59589 0.0
H2841 H 0.65626 0.87501 0.53889 0.0
H2842 H 0.63959 0.8748 0.56402 0.0
H2843 H 0.62285 0.82581 0.57842 0.0
H2844 H 0.55483 0.81885 0.62696 0.0
H2845 H 0.57592 0.82227 0.60623 0.0
H2846 H 0.59065 0.87426 0.59646 0.0
C2847 C 0.63803 0.86502 0.55515 0.0
C2848 C 0.61595 0.8365 0.5823 0.0
C2849 C 0.64758 0.86511 0.54079 0.0
C2850 C 0.56197 0.83007 0.62699 0.0
C2851 C 0.57419 0.832 0.61512 0.0
C2852 C 0.59787 0.86369 0.59287 0.0
C2853 C 0.62696 0.85212 0.55822 0.0
C2854 C 0.6172 0.85137 0.57363 0.0
C2855 C 0.5836 0.84646 0.61437 0.0
C2856 C 0.59607 0.84858 0.60111 0.0
H2857 H 0.63302 0.82986 0.52345 0.0
H2858 H 0.61663 0.82969 0.54835 0.0
H2859 H 0.60907 0.87667 0.57282 0.0
H2860 H 0.56609 0.86683 0.64655 0.0
H2861 H 0.58768 0.87013 0.62588 0.0
C2862 C 0.149 0.56909 0.63927 0.0
C2863 C 0.16339 0.55955 0.63972 0.0
C2864 C 0.14699 0.58136 0.62733 0.0
C2865 C 0.17056 0.60618 0.59686 0.0
H2866 H 0.12868 0.61006 0.57449 0.0
C2867 C 0.16495 0.63513 0.53307 0.0
C2868 C 0.15246 0.64676 0.53038 0.0
C2869 C 0.16532 0.62581 0.54744 0.0
C2870 C 0.14038 0.60926 0.58077 0.0
H2871 H 0.18703 0.55558 0.62808 0.0
H2872 H 0.18347 0.5766 0.6073 0.0
H2873 H 0.13131 0.59162 0.59808 0.0
H2874 H 0.13028 0.65737 0.54063 0.0
H2875 H 0.1308 0.64073 0.56578 0.0
H2876 H 0.17976 0.62334 0.57921 0.0
C2877 C 0.1738 0.57491 0.61628 0.0
C2878 C 0.1419 0.59873 0.59432 0.0
C2879 C 0.17581 0.56274 0.62818 0.0
C2880 C 0.14009 0.64854 0.54232 0.0
C2881 C 0.14035 0.63901 0.55669 0.0
C2882 C 0.16907 0.61655 0.58328 0.0
C2883 C 0.15934 0.58434 0.6156 0.0
C2884 C 0.15712 0.59679 0.60232 0.0
C2885 C 0.15313 0.62773 0.55948 0.0
C2886 C 0.15407 0.61796 0.57488 0.0
H2887 H 0.13918 0.56694 0.64799 0.0
H2888 H 0.13576 0.58848 0.6273 0.0
H2889 H 0.18236 0.60535 0.60295 0.0
H2890 H 0.17469 0.63337 0.52418 0.0
H2891 H 0.17518 0.61704 0.54912 0.0
C2892 C 0.36772 0.16577 0.53454 0.0
C2893 C 0.35614 0.15324 0.53179 0.0
C2894 C 0.37711 0.16603 0.54886 0.0
C2895 C 0.39403 0.14073 0.58174 0.0
H2896 H 0.39836 0.18251 0.60416 0.0
C2897 C 0.43521 0.14898 0.63961 0.0
C2898 C 0.44485 0.16331 0.63986 0.0
C2899 C 0.42272 0.14704 0.6279 0.0
C2900 C 0.3974 0.17077 0.59801 0.0
H2901 H 0.34568 0.13092 0.54187 0.0
H2902 H 0.36245 0.13126 0.56695 0.0
H2903 H 0.37996 0.18013 0.58072 0.0
H2904 H 0.44877 0.18689 0.62809 0.0
H2905 H 0.42735 0.18345 0.60771 0.0
H2906 H 0.41195 0.13151 0.59869 0.0
C2907 C 0.36407 0.14092 0.55794 0.0
C2908 C 0.38681 0.1694 0.5846 0.0
C2909 C 0.35446 0.14076 0.54362 0.0
C2910 C 0.44155 0.17573 0.62834 0.0
C2911 C 0.42914 0.17379 0.61667 0.0
C2912 C 0.40478 0.14212 0.59512 0.0
C2913 C 0.37533 0.15371 0.56079 0.0
C2914 C 0.38527 0.15448 0.57608 0.0
C2915 C 0.4196 0.1594 0.61621 0.0
C2916 C 0.40688 0.15728 0.60319 0.0
H2917 H 0.3694 0.17559 0.52574 0.0
H2918 H 0.38587 0.1759 0.55058 0.0
H2919 H 0.39313 0.12909 0.57537 0.0
H2920 H 0.43744 0.13918 0.64832 0.0
H2921 H 0.41551 0.13587 0.62801 0.0
C2922 C 0.86509 0.35498 0.54177 0.0
C2923 C 0.85324 0.35669 0.52931 0.0
C2924 C 0.86522 0.3657 0.55527 0.0
C2925 C 0.84926 0.40643 0.5686 0.0
H2926 H 0.85661 0.39 0.61269 0.0
C2927 C 0.83024 0.44347 0.62515 0.0
C2928 C 0.84188 0.44536 0.63776 0.0
C2929 C 0.83278 0.43215 0.61254 0.0
C2930 C 0.8547 0.39477 0.60043 0.0
H2931 H 0.83217 0.37101 0.5214 0.0
H2932 H 0.83222 0.38929 0.54482 0.0
H2933 H 0.85929 0.37139 0.58921 0.0
H2934 H 0.86504 0.43632 0.64733 0.0
H2935 H 0.86936 0.41627 0.62525 0.0
H2936 H 0.84423 0.42965 0.57979 0.0
C2937 C 0.84167 0.37996 0.5441 0.0
C2938 C 0.85628 0.38414 0.58696 0.0
C2939 C 0.84158 0.36935 0.53066 0.0
C2940 C 0.85585 0.43517 0.63779 0.0
C2941 C 0.85831 0.42368 0.62518 0.0
C2942 C 0.84754 0.41696 0.58201 0.0
C2943 C 0.8535 0.37834 0.55658 0.0
C2944 C 0.85328 0.38979 0.57089 0.0
C2945 C 0.84695 0.42233 0.61224 0.0
C2946 C 0.84996 0.4112 0.59809 0.0
H2947 H 0.87425 0.34536 0.54112 0.0
H2948 H 0.87459 0.36416 0.56458 0.0
H2949 H 0.84729 0.41135 0.5564 0.0
H2950 H 0.81932 0.45105 0.62475 0.0
H2951 H 0.82367 0.4312 0.60288 0.0
C2952 C 0.5612 0.17445 0.37736 0.0
C2953 C 0.55809 0.1619 0.36594 0.0
C2954 C 0.57312 0.17249 0.38951 0.0
C2955 C 0.59624 0.14062 0.41228 0.0
H2956 H 0.62116 0.17831 0.42725 0.0
C2957 C 0.64619 0.13832 0.46396 0.0
C2958 C 0.64504 0.15092 0.47574 0.0
C2959 C 0.63638 0.13865 0.4498 0.0
C2960 C 0.61425 0.16768 0.42325 0.0
H2961 H 0.56541 0.13752 0.35814 0.0
H2962 H 0.58653 0.13419 0.37926 0.0
H2963 H 0.60338 0.18092 0.40337 0.0
H2964 H 0.63237 0.17356 0.48193 0.0
H2965 H 0.61548 0.17414 0.45734 0.0
H2966 H 0.60728 0.12742 0.43227 0.0
C2967 C 0.57951 0.14547 0.37894 0.0
C2968 C 0.60401 0.16917 0.40957 0.0
C2969 C 0.56749 0.14743 0.36676 0.0
C2970 C 0.63366 0.16366 0.47315 0.0
C2971 C 0.62403 0.16407 0.45898 0.0
C2972 C 0.60664 0.13909 0.42592 0.0
C2973 C 0.58239 0.15794 0.39057 0.0
C2974 C 0.59456 0.15577 0.40411 0.0
C2975 C 0.62539 0.1517 0.44705 0.0
C2976 C 0.61547 0.15272 0.43175 0.0
H2977 H 0.55414 0.18573 0.37717 0.0
H2978 H 0.57473 0.18225 0.39839 0.0
H2979 H 0.58906 0.13007 0.40853 0.0
H2980 H 0.65482 0.12833 0.46557 0.0
H2981 H 0.63769 0.12895 0.4408 0.0
C2982 C 0.85696 0.57014 0.36778 0.0
C2983 C 0.84255 0.56062 0.36752 0.0
C2984 C 0.85903 0.58257 0.37953 0.0
C2985 C 0.83561 0.60795 0.4096 0.0
H2986 H 0.87737 0.61159 0.43225 0.0
C2987 C 0.84089 0.63727 0.47316 0.0
C2988 C 0.8535 0.64875 0.47597 0.0
C2989 C 0.84059 0.62789 0.45885 0.0
C2990 C 0.86571 0.61086 0.42588 0.0
H2991 H 0.81893 0.55689 0.37927 0.0
H2992 H 0.82258 0.57822 0.39971 0.0
H2993 H 0.87471 0.59297 0.4088 0.0
H2994 H 0.87597 0.65898 0.46597 0.0
H2995 H 0.87555 0.64224 0.44089 0.0
H2996 H 0.82646 0.62538 0.427 0.0
C2997 C 0.83222 0.57637 0.39074 0.0
C2998 C 0.86418 0.60023 0.41242 0.0
C2999 C 0.83016 0.56401 0.37904 0.0
C3000 C 0.86606 0.65029 0.46419 0.0
C3001 C 0.86585 0.64069 0.44986 0.0
C3002 C 0.83711 0.61844 0.42308 0.0
C3003 C 0.84671 0.58576 0.39125 0.0
C3004 C 0.84899 0.59836 0.40435 0.0
C3005 C 0.85295 0.62958 0.44695 0.0
C3006 C 0.85206 0.61975 0.4316 0.0
H3007 H 0.86675 0.56783 0.35908 0.0
H3008 H 0.87028 0.58966 0.37946 0.0
H3009 H 0.82385 0.60717 0.40345 0.0
H3010 H 0.831 0.63569 0.48192 0.0
H3011 H 0.83063 0.61924 0.45709 0.0
C3012 C 0.35413 0.86521 0.46244 0.0
C3013 C 0.35595 0.85291 0.47446 0.0
C3014 C 0.36362 0.86485 0.44805 0.0
C3015 C 0.38596 0.83595 0.42159 0.0
H3016 H 0.41102 0.87352 0.40655 0.0
C3017 C 0.43985 0.82881 0.37684 0.0
C3018 C 0.44312 0.84118 0.36527 0.0
C3019 C 0.42762 0.83089 0.38867 0.0
C3020 C 0.40387 0.86298 0.41038 0.0
H3021 H 0.36937 0.83074 0.48077 0.0
H3022 H 0.38563 0.83008 0.4558 0.0
H3023 H 0.39259 0.87636 0.43013 0.0
H3024 H 0.43577 0.86535 0.35683 0.0
H3025 H 0.41413 0.86888 0.37738 0.0
H3026 H 0.39711 0.82251 0.40201 0.0
C3027 C 0.37685 0.83995 0.45744 0.0
C3028 C 0.39335 0.86462 0.42392 0.0
C3029 C 0.36758 0.84042 0.47183 0.0
C3030 C 0.43357 0.85558 0.36558 0.0
C3031 C 0.42125 0.85765 0.37744 0.0
C3032 C 0.39632 0.83434 0.40802 0.0
C3033 C 0.37489 0.85205 0.44531 0.0
C3034 C 0.38462 0.851 0.4299 0.0
C3035 C 0.41821 0.84538 0.38923 0.0
C3036 C 0.40575 0.84771 0.40248 0.0
H3037 H 0.34529 0.87502 0.46408 0.0
H3038 H 0.36187 0.87433 0.43889 0.0
H3039 H 0.37914 0.82531 0.42574 0.0
H3040 H 0.44701 0.8176 0.37704 0.0
H3041 H 0.42588 0.82128 0.3977 0.0
C3042 C 0.1727 0.44508 0.38028 0.0
C3043 C 0.16165 0.44663 0.36711 0.0
C3044 C 0.16965 0.43402 0.393 0.0
C3045 C 0.14793 0.39657 0.40481 0.0
H3046 H 0.15273 0.41418 0.44879 0.0
C3047 C 0.13734 0.35709 0.46369 0.0
C3048 C 0.14885 0.35945 0.47637 0.0
C3049 C 0.13696 0.36772 0.45011 0.0
C3050 C 0.15147 0.40899 0.43662 0.0
H3051 H 0.13899 0.43727 0.35669 0.0
H3052 H 0.13381 0.4176 0.37896 0.0
H3053 H 0.15623 0.43216 0.4252 0.0
H3054 H 0.16895 0.3749 0.48463 0.0
H3055 H 0.16847 0.39302 0.46112 0.0
H3056 H 0.1437 0.37323 0.41627 0.0
C3057 C 0.14478 0.42511 0.37938 0.0
C3058 C 0.15344 0.41933 0.42309 0.0
C3059 C 0.14774 0.43637 0.36667 0.0
C3060 C 0.15983 0.37272 0.4752 0.0
C3061 C 0.15949 0.38324 0.4617 0.0
C3062 C 0.14611 0.38613 0.4184 0.0
C3063 C 0.15555 0.42409 0.39284 0.0
C3064 C 0.15202 0.41319 0.40705 0.0
C3065 C 0.14807 0.38092 0.44895 0.0
C3066 C 0.14821 0.39216 0.43448 0.0
H3067 H 0.18355 0.45274 0.38102 0.0
H3068 H 0.1783 0.43332 0.40309 0.0
H3069 H 0.14679 0.39152 0.39256 0.0
H3070 H 0.12871 0.34699 0.46419 0.0
H3071 H 0.12793 0.36564 0.44058 0.0
C3072 C 0.63925 0.57001 0.85588 0.0
C3073 C 0.63939 0.56037 0.84155 0.0
C3074 C 0.62763 0.58258 0.85785 0.0
C3075 C 0.59775 0.60806 0.83427 0.0
H3076 H 0.57516 0.61217 0.876 0.0
C3077 C 0.53416 0.63739 0.83946 0.0
C3078 C 0.53136 0.64895 0.85198 0.0
C3079 C 0.54855 0.6281 0.83916 0.0
C3080 C 0.58152 0.61131 0.86435 0.0
H3081 H 0.62757 0.55657 0.81798 0.0
H3082 H 0.60734 0.57813 0.82148 0.0
H3083 H 0.59849 0.59337 0.87348 0.0
H3084 H 0.54144 0.6595 0.87426 0.0
H3085 H 0.56663 0.64289 0.87386 0.0
H3086 H 0.58043 0.62551 0.82499 0.0
C3087 C 0.61631 0.57627 0.83112 0.0
C3088 C 0.59491 0.60058 0.8629 0.0
C3089 C 0.62789 0.56378 0.82915 0.0
C3090 C 0.54322 0.65072 0.86443 0.0
C3091 C 0.55761 0.64121 0.86423 0.0
C3092 C 0.58434 0.61864 0.8357 0.0
C3093 C 0.61593 0.58578 0.84553 0.0
C3094 C 0.60295 0.59853 0.84772 0.0
C3095 C 0.5605 0.62997 0.85144 0.0
C3096 C 0.57584 0.62011 0.85064 0.0
H3097 H 0.64795 0.5677 0.86567 0.0
H3098 H 0.62779 0.58976 0.86904 0.0
H3099 H 0.60389 0.60713 0.82251 0.0
H3100 H 0.52534 0.63564 0.82966 0.0
H3101 H 0.5503 0.61935 0.82929 0.0
C3102 C 0.43663 0.63833 0.85591 0.0
C3103 C 0.44633 0.63858 0.84162 0.0
C3104 C 0.42447 0.6263 0.85803 0.0
C3105 C 0.40018 0.59521 0.8348 0.0
H3106 H 0.39588 0.57372 0.87709 0.0
C3107 C 0.37021 0.53194 0.84143 0.0
C3108 C 0.35854 0.52972 0.85397 0.0
C3109 C 0.37986 0.54609 0.84084 0.0
C3110 C 0.39681 0.57974 0.86527 0.0
H3111 H 0.45073 0.62647 0.8183 0.0
H3112 H 0.4299 0.60553 0.82207 0.0
H3113 H 0.41434 0.59725 0.87416 0.0
H3114 H 0.34825 0.54052 0.87603 0.0
H3115 H 0.36542 0.56525 0.87511 0.0
H3116 H 0.38307 0.5774 0.82581 0.0
C3117 C 0.43138 0.61473 0.83155 0.0
C3118 C 0.40735 0.59325 0.86358 0.0
C3119 C 0.44344 0.62672 0.82943 0.0
C3120 C 0.3571 0.54185 0.8662 0.0
C3121 C 0.36694 0.55599 0.8657 0.0
C3122 C 0.3898 0.58166 0.83647 0.0
C3123 C 0.42177 0.61428 0.8459 0.0
C3124 C 0.4094 0.60096 0.84823 0.0
C3125 C 0.37823 0.55835 0.85284 0.0
C3126 C 0.38822 0.57358 0.85163 0.0
H3127 H 0.43855 0.64729 0.86554 0.0
H3128 H 0.4172 0.62644 0.86916 0.0
H3129 H 0.40111 0.60106 0.8229 0.0
H3130 H 0.37172 0.52288 0.83181 0.0
H3131 H 0.38865 0.54743 0.83094 0.0
C3132 C 0.37689 0.44119 0.83134 0.0
C3133 C 0.36553 0.44467 0.84386 0.0
C3134 C 0.38866 0.4289 0.83336 0.0
C3135 C 0.41078 0.4053 0.86526 0.0
H3136 H 0.42513 0.38004 0.82754 0.0
C3137 C 0.4627 0.35535 0.86685 0.0
C3138 C 0.47444 0.35701 0.85427 0.0
C3139 C 0.44831 0.36487 0.86671 0.0
C3140 C 0.42126 0.38701 0.83819 0.0
H3141 H 0.35745 0.43766 0.86824 0.0
H3142 H 0.37792 0.41591 0.87168 0.0
H3143 H 0.40146 0.39814 0.82505 0.0
H3144 H 0.48027 0.37018 0.83181 0.0
H3145 H 0.45532 0.38648 0.83154 0.0
H3146 H 0.43076 0.39404 0.87832 0.0
C3147 C 0.37783 0.4229 0.86037 0.0
C3148 C 0.40773 0.39744 0.83676 0.0
C3149 C 0.36602 0.43529 0.85835 0.0
C3150 C 0.47154 0.36851 0.84171 0.0
C3151 C 0.45716 0.37781 0.84147 0.0
C3152 C 0.42429 0.39471 0.86672 0.0
C3153 C 0.38939 0.41963 0.84792 0.0
C3154 C 0.40256 0.40707 0.85014 0.0
C3155 C 0.44531 0.37602 0.85386 0.0
C3156 C 0.42991 0.38579 0.85306 0.0
H3157 H 0.37695 0.44822 0.82005 0.0
H3158 H 0.39751 0.42699 0.82362 0.0
H3159 H 0.40724 0.4126 0.87579 0.0
H3160 H 0.46455 0.34663 0.87672 0.0
H3161 H 0.43937 0.36325 0.87642 0.0
C3162 C 0.56926 0.36638 0.857 0.0
C3163 C 0.55951 0.3661 0.84274 0.0
C3164 C 0.58158 0.37826 0.85895 0.0
C3165 C 0.60621 0.4088 0.83531 0.0
H3166 H 0.61059 0.43096 0.87723 0.0
C3167 C 0.63539 0.47243 0.84078 0.0
C3168 C 0.64721 0.47503 0.85312 0.0
C3169 C 0.626 0.45812 0.84051 0.0
C3170 C 0.60965 0.42473 0.86552 0.0
H3171 H 0.55524 0.37799 0.81927 0.0
H3172 H 0.57638 0.39867 0.82274 0.0
H3173 H 0.59206 0.40742 0.87469 0.0
H3174 H 0.65803 0.4647 0.87515 0.0
H3175 H 0.64126 0.43964 0.87481 0.0
H3176 H 0.62332 0.42644 0.82601 0.0
C3177 C 0.57479 0.3896 0.83234 0.0
C3178 C 0.59907 0.41122 0.86405 0.0
C3179 C 0.56256 0.37776 0.83038 0.0
C3180 C 0.64907 0.46308 0.86547 0.0
C3181 C 0.63946 0.44876 0.8653 0.0
C3182 C 0.61663 0.42234 0.83675 0.0
C3183 C 0.58443 0.3901 0.84667 0.0
C3184 C 0.59695 0.40331 0.84882 0.0
C3185 C 0.62802 0.44604 0.85264 0.0
C3186 C 0.61821 0.43067 0.85176 0.0
H3187 H 0.56722 0.35757 0.86675 0.0
H3188 H 0.58887 0.37817 0.87007 0.0
H3189 H 0.60524 0.40277 0.8235 0.0
H3190 H 0.63356 0.48134 0.83107 0.0
H3191 H 0.61709 0.4565 0.83076 0.0
C3192 C 0.53365 0.36858 0.16427 0.0
C3193 C 0.53147 0.35709 0.15156 0.0
C3194 C 0.54771 0.37835 0.16493 0.0
C3195 C 0.58108 0.39594 0.1405 0.0
H3196 H 0.60238 0.40033 0.18287 0.0
C3197 C 0.63918 0.43646 0.15002 0.0
C3198 C 0.63927 0.44614 0.16431 0.0
C3199 C 0.62731 0.42416 0.14786 0.0
C3200 C 0.59653 0.39937 0.17097 0.0
H3201 H 0.54227 0.34722 0.12931 0.0
H3202 H 0.56687 0.36458 0.13038 0.0
H3203 H 0.57898 0.38197 0.1799 0.0
H3204 H 0.62705 0.45034 0.18761 0.0
H3205 H 0.6064 0.42924 0.18379 0.0
H3206 H 0.59834 0.41375 0.13169 0.0
C3207 C 0.55763 0.36588 0.13986 0.0
C3208 C 0.58313 0.38881 0.16927 0.0
C3209 C 0.54357 0.35592 0.13927 0.0
C3210 C 0.62743 0.44308 0.17648 0.0
C3211 C 0.6156 0.43086 0.17432 0.0
C3212 C 0.59445 0.40665 0.14223 0.0
C3213 C 0.55994 0.37702 0.15285 0.0
C3214 C 0.57505 0.3872 0.1541 0.0
C3215 C 0.61529 0.42128 0.15996 0.0
C3216 C 0.60214 0.40874 0.15759 0.0
H3217 H 0.52461 0.36988 0.17393 0.0
H3218 H 0.549 0.38701 0.17495 0.0
H3219 H 0.57506 0.395 0.12868 0.0
H3220 H 0.64813 0.43851 0.1404 0.0
H3221 H 0.62755 0.41691 0.13671 0.0
C3222 C 0.65093 0.543 0.14081 0.0
C3223 C 0.6491 0.53126 0.15337 0.0
C3224 C 0.64148 0.55742 0.14087 0.0
C3225 C 0.61913 0.58455 0.16916 0.0
H3226 H 0.59388 0.59854 0.1313 0.0
C3227 C 0.56471 0.6287 0.17543 0.0
C3228 C 0.56133 0.64006 0.16289 0.0
C3229 C 0.5771 0.617 0.17355 0.0
C3230 C 0.60109 0.595 0.1419 0.0
H3231 H 0.63573 0.52549 0.17573 0.0
H3232 H 0.61954 0.55052 0.17585 0.0
H3233 H 0.61247 0.57503 0.12897 0.0
H3234 H 0.56861 0.64823 0.13862 0.0
H3235 H 0.59049 0.62787 0.13541 0.0
H3236 H 0.60785 0.60434 0.18217 0.0
C3237 C 0.62829 0.54864 0.16601 0.0
C3238 C 0.6117 0.58151 0.14056 0.0
C3239 C 0.63752 0.53422 0.16585 0.0
C3240 C 0.5709 0.63965 0.14852 0.0
C3241 C 0.58337 0.6279 0.14663 0.0
C3242 C 0.60868 0.59807 0.17047 0.0
C3243 C 0.63024 0.56047 0.15362 0.0
C3244 C 0.62049 0.57589 0.1543 0.0
C3245 C 0.58654 0.61634 0.15909 0.0
C3246 C 0.59916 0.60322 0.157 0.0
H3247 H 0.65972 0.54109 0.13101 0.0
H3248 H 0.64322 0.56635 0.13116 0.0
H3249 H 0.626 0.58069 0.17988 0.0
H3250 H 0.55755 0.62858 0.18664 0.0
H3251 H 0.57893 0.60814 0.18329 0.0
C3252 C 0.46395 0.64915 0.13955 0.0
C3253 C 0.47604 0.64757 0.15181 0.0
C3254 C 0.44975 0.63937 0.13996 0.0
C3255 C 0.42391 0.61639 0.16897 0.0
H3256 H 0.40898 0.59135 0.13135 0.0
C3257 C 0.38015 0.56174 0.17617 0.0
C3258 C 0.36838 0.55849 0.16398 0.0
C3259 C 0.39183 0.57409 0.174 0.0
C3260 C 0.41278 0.59848 0.1419 0.0
H3261 H 0.48271 0.63425 0.17395 0.0
H3262 H 0.45808 0.61748 0.17466 0.0
H3263 H 0.43221 0.61021 0.12843 0.0
H3264 H 0.35948 0.56594 0.14002 0.0
H3265 H 0.3798 0.58779 0.13631 0.0
H3266 H 0.40466 0.60478 0.1825 0.0
C3267 C 0.4595 0.6263 0.1648 0.0
C3268 C 0.42612 0.60925 0.14022 0.0
C3269 C 0.47369 0.63587 0.1643 0.0
C3270 C 0.36838 0.56813 0.14965 0.0
C3271 C 0.3801 0.58058 0.14748 0.0
C3272 C 0.41055 0.60577 0.17062 0.0
C3273 C 0.44729 0.62802 0.15275 0.0
C3274 C 0.43207 0.618 0.15385 0.0
C3275 C 0.39205 0.58364 0.1596 0.0
C3276 C 0.40506 0.59634 0.15723 0.0
H3277 H 0.46538 0.65803 0.12975 0.0
H3278 H 0.44052 0.64095 0.1305 0.0
H3279 H 0.42801 0.62321 0.17962 0.0
H3280 H 0.38059 0.55451 0.18733 0.0
H3281 H 0.40099 0.57585 0.18348 0.0
C3282 C 0.44312 0.37506 0.17465 0.0
C3283 C 0.44652 0.36389 0.16195 0.0
C3284 C 0.43087 0.38692 0.17285 0.0
C3285 C 0.4073 0.4096 0.14132 0.0
H3286 H 0.38224 0.42361 0.1793 0.0
C3287 C 0.35753 0.46164 0.14038 0.0
C3288 C 0.35923 0.47326 0.15306 0.0
C3289 C 0.36701 0.44724 0.14038 0.0
C3290 C 0.38916 0.41985 0.16858 0.0
H3291 H 0.4394 0.35622 0.13748 0.0
H3292 H 0.41773 0.37683 0.13441 0.0
H3293 H 0.40024 0.39984 0.18144 0.0
H3294 H 0.37241 0.47884 0.17558 0.0
H3295 H 0.38865 0.45383 0.17561 0.0
H3296 H 0.39608 0.42977 0.12853 0.0
C3297 C 0.42475 0.37654 0.1457 0.0
C3298 C 0.39953 0.40625 0.1698 0.0
C3299 C 0.43709 0.36465 0.1475 0.0
C3300 C 0.37072 0.47021 0.16561 0.0
C3301 C 0.37998 0.4558 0.16571 0.0
C3302 C 0.39676 0.42317 0.14005 0.0
C3303 C 0.42158 0.38792 0.15832 0.0
C3304 C 0.40909 0.40119 0.15633 0.0
C3305 C 0.37816 0.44408 0.15319 0.0
C3306 C 0.38791 0.42866 0.1538 0.0
H3307 H 0.45018 0.37491 0.18593 0.0
H3308 H 0.42904 0.39562 0.18273 0.0
H3309 H 0.41454 0.40615 0.13072 0.0
H3310 H 0.34881 0.46362 0.13053 0.0
H3311 H 0.36536 0.4384 0.13058 0.0
C3312 C 0.84171 0.5309 0.63407 0.0
C3313 C 0.85305 0.52937 0.647 0.0
C3314 C 0.84193 0.54456 0.62375 0.0
C3315 C 0.85616 0.58762 0.62072 0.0
H3316 H 0.84516 0.58111 0.57484 0.0
C3317 C 0.85597 0.63913 0.57024 0.0
C3318 C 0.84208 0.63912 0.55996 0.0
C3319 C 0.85843 0.62644 0.58165 0.0
C3320 C 0.84818 0.58314 0.58764 0.0
H3321 H 0.87361 0.54114 0.65915 0.0
H3322 H 0.8742 0.56502 0.64084 0.0
H3323 H 0.84824 0.55744 0.59278 0.0
H3324 H 0.81963 0.62605 0.554 0.0
H3325 H 0.82399 0.604 0.57368 0.0
H3326 H 0.85621 0.61346 0.61531 0.0
C3327 C 0.86498 0.55564 0.63887 0.0
C3328 C 0.84991 0.56957 0.59796 0.0
C3329 C 0.86471 0.54191 0.6493 0.0
C3330 C 0.83049 0.62645 0.56167 0.0
C3331 C 0.83303 0.61374 0.57288 0.0
C3332 C 0.85459 0.60125 0.61029 0.0
C3333 C 0.85359 0.5571 0.62593 0.0
C3334 C 0.85352 0.57161 0.61473 0.0
C3335 C 0.84715 0.61342 0.58279 0.0
C3336 C 0.85021 0.59914 0.59373 0.0
H3337 H 0.83244 0.5216 0.63196 0.0
H3338 H 0.83272 0.54538 0.6142 0.0
H3339 H 0.85886 0.58968 0.63357 0.0
H3340 H 0.86513 0.64873 0.56924 0.0
H3341 H 0.86942 0.6265 0.58914 0.0
C3342 C 0.84291 0.47408 0.37313 0.0
C3343 C 0.85419 0.47567 0.36015 0.0
C3344 C 0.84316 0.46035 0.38335 0.0
C3345 C 0.85739 0.41721 0.38589 0.0
H3346 H 0.84609 0.42309 0.43178 0.0
C3347 C 0.85692 0.36507 0.43578 0.0
C3348 C 0.84287 0.36489 0.44585 0.0
C3349 C 0.85948 0.37791 0.42456 0.0
C3350 C 0.84921 0.42124 0.41898 0.0
H3351 H 0.87472 0.46397 0.34787 0.0
H3352 H 0.87536 0.43999 0.36603 0.0
H3353 H 0.84925 0.44701 0.41418 0.0
H3354 H 0.82026 0.3778 0.4516 0.0
H3355 H 0.82482 0.4001 0.43227 0.0
H3356 H 0.85745 0.3913 0.39097 0.0
C3357 C 0.86615 0.44935 0.3681 0.0
C3358 C 0.85097 0.43495 0.40885 0.0
C3359 C 0.86586 0.46315 0.35776 0.0
C3360 C 0.83124 0.37753 0.4441 0.0
C3361 C 0.83389 0.39039 0.43308 0.0
C3362 C 0.85578 0.40344 0.39613 0.0
C3363 C 0.85479 0.44779 0.38105 0.0
C3364 C 0.85468 0.43314 0.39207 0.0
C3365 C 0.84815 0.39089 0.4234 0.0
C3366 C 0.8513 0.40533 0.41269 0.0
H3367 H 0.83364 0.48337 0.37531 0.0
H3368 H 0.83396 0.45946 0.39292 0.0
H3369 H 0.86016 0.41532 0.37303 0.0
H3370 H 0.8661 0.3555 0.43682 0.0
H3371 H 0.87059 0.37799 0.41724 0.0
C3372 C 0.54009 0.86459 0.35605 0.0
C3373 C 0.52812 0.85222 0.35765 0.0
C3374 C 0.55442 0.8642 0.36563 0.0
C3375 C 0.58083 0.83513 0.38791 0.0
H3376 H 0.59606 0.87273 0.41281 0.0
C3377 C 0.62607 0.8281 0.44145 0.0
C3378 C 0.63769 0.84047 0.44454 0.0
C3379 C 0.61411 0.83015 0.42934 0.0
C3380 C 0.59217 0.86218 0.4057 0.0
H3381 H 0.52181 0.82989 0.37083 0.0
H3382 H 0.54667 0.8292 0.38727 0.0
H3383 H 0.57239 0.87557 0.3945 0.0
H3384 H 0.64607 0.8646 0.43701 0.0
H3385 H 0.62528 0.86808 0.41559 0.0
H3386 H 0.60046 0.82168 0.39898 0.0
C3387 C 0.54505 0.83914 0.37857 0.0
C3388 C 0.57858 0.86383 0.39526 0.0
C3389 C 0.53072 0.83963 0.3692 0.0
C3390 C 0.63729 0.85483 0.43494 0.0
C3391 C 0.62529 0.85687 0.42275 0.0
C3392 C 0.59446 0.83352 0.3982 0.0
C3393 C 0.55715 0.8513 0.3768 0.0
C3394 C 0.57254 0.8502 0.38656 0.0
C3395 C 0.61345 0.8446 0.41989 0.0
C3396 C 0.60008 0.84691 0.40756 0.0
H3397 H 0.53847 0.87447 0.34729 0.0
H3398 H 0.56355 0.87373 0.36401 0.0
H3399 H 0.57666 0.82449 0.38111 0.0
H3400 H 0.62595 0.81692 0.44865 0.0
H3401 H 0.60505 0.82054 0.42774 0.0
C3402 C 0.17534 0.62679 0.44127 0.0
C3403 C 0.16295 0.63827 0.44479 0.0
C3404 C 0.17329 0.61526 0.42875 0.0
C3405 C 0.14143 0.59395 0.40446 0.0
H3406 H 0.17924 0.57984 0.37919 0.0
C3407 C 0.13987 0.54256 0.35399 0.0
C3408 C 0.15238 0.53075 0.35567 0.0
C3409 C 0.14004 0.55691 0.36356 0.0
C3410 C 0.16856 0.58365 0.38615 0.0
H3411 H 0.13876 0.64682 0.43766 0.0
H3412 H 0.13525 0.62675 0.41555 0.0
H3413 H 0.18174 0.60315 0.39773 0.0
H3414 H 0.1748 0.52479 0.36887 0.0
H3415 H 0.17512 0.54966 0.38525 0.0
H3416 H 0.12833 0.57424 0.39279 0.0
C3417 C 0.14649 0.62657 0.42266 0.0
C3418 C 0.17 0.59697 0.39683 0.0
C3419 C 0.14854 0.63814 0.43526 0.0
C3420 C 0.16495 0.53357 0.36719 0.0
C3421 C 0.16522 0.54791 0.37654 0.0
C3422 C 0.13996 0.58065 0.39362 0.0
C3423 C 0.15882 0.61491 0.41932 0.0
C3424 C 0.15659 0.60203 0.40648 0.0
C3425 C 0.15286 0.5598 0.37477 0.0
C3426 C 0.15364 0.5751 0.3847 0.0
H3427 H 0.18657 0.62646 0.44839 0.0
H3428 H 0.18293 0.60632 0.42678 0.0
H3429 H 0.13087 0.59743 0.41175 0.0
H3430 H 0.13 0.54076 0.34525 0.0
H3431 H 0.13035 0.56588 0.36196 0.0
C3432 C 0.47107 0.16446 0.36903 0.0
C3433 C 0.4736 0.1516 0.35779 0.0
C3434 C 0.45693 0.16501 0.37869 0.0
C3435 C 0.42406 0.14015 0.39656 0.0
H3436 H 0.40188 0.18214 0.4003 0.0
C3437 C 0.3659 0.14914 0.43709 0.0
C3438 C 0.36559 0.16356 0.44659 0.0
C3439 C 0.37775 0.14703 0.42477 0.0
C3440 C 0.40798 0.17035 0.39952 0.0
H3441 H 0.46331 0.12897 0.34821 0.0
H3442 H 0.43857 0.12985 0.36538 0.0
H3443 H 0.42532 0.17936 0.38195 0.0
H3444 H 0.37738 0.18715 0.4504 0.0
H3445 H 0.398 0.18341 0.42925 0.0
H3446 H 0.407 0.13127 0.41454 0.0
C3447 C 0.4476 0.13953 0.36657 0.0
C3448 C 0.42139 0.16875 0.38896 0.0
C3449 C 0.46175 0.13906 0.35673 0.0
C3450 C 0.37718 0.17591 0.44329 0.0
C3451 C 0.38899 0.1738 0.43104 0.0
C3452 C 0.41066 0.14178 0.40726 0.0
C3453 C 0.44496 0.15265 0.37748 0.0
C3454 C 0.42979 0.15374 0.38759 0.0
C3455 C 0.38952 0.15931 0.42166 0.0
C3456 C 0.40266 0.157 0.40911 0.0
H3457 H 0.47992 0.17432 0.37024 0.0
H3458 H 0.45538 0.17513 0.38717 0.0
H3459 H 0.43033 0.12845 0.39581 0.0
H3460 H 0.35714 0.13939 0.43932 0.0
H3461 H 0.37768 0.13579 0.41768 0.0
C3462 C 0.16534 0.47212 0.63618 0.0
C3463 C 0.15275 0.47471 0.64772 0.0
C3464 C 0.16575 0.45785 0.62671 0.0
C3465 C 0.1407 0.42452 0.61001 0.0
H3466 H 0.18268 0.40242 0.60579 0.0
C3467 C 0.14873 0.36576 0.57033 0.0
C3468 C 0.1629 0.36531 0.56047 0.0
C3469 C 0.14699 0.37773 0.58259 0.0
C3470 C 0.17089 0.40848 0.60671 0.0
H3471 H 0.13043 0.46441 0.65799 0.0
H3472 H 0.13104 0.43946 0.64114 0.0
H3473 H 0.18023 0.42625 0.62366 0.0
H3474 H 0.18648 0.37688 0.55599 0.0
H3475 H 0.18338 0.39772 0.57703 0.0
H3476 H 0.13147 0.40706 0.59262 0.0
C3477 C 0.14063 0.44854 0.63957 0.0
C3478 C 0.16948 0.42213 0.61699 0.0
C3479 C 0.14031 0.4628 0.64923 0.0
C3480 C 0.17543 0.3768 0.5634 0.0
C3481 C 0.17368 0.38874 0.57557 0.0
C3482 C 0.14213 0.4109 0.59958 0.0
C3483 C 0.15351 0.44582 0.62839 0.0
C3484 C 0.15446 0.43049 0.61853 0.0
C3485 C 0.15939 0.38949 0.58525 0.0
C3486 C 0.15734 0.4029 0.59756 0.0
H3487 H 0.17512 0.481 0.63463 0.0
H3488 H 0.17568 0.45624 0.61801 0.0
H3489 H 0.12898 0.43076 0.6109 0.0
H3490 H 0.13885 0.35708 0.56839 0.0
H3491 H 0.1359 0.37781 0.58993 0.0
C3492 C 0.62746 0.175 0.56379 0.0
C3493 C 0.63881 0.16244 0.56048 0.0
C3494 C 0.61571 0.17316 0.57614 0.0
C3495 C 0.59374 0.14152 0.60027 0.0
H3496 H 0.57921 0.17953 0.62497 0.0
C3497 C 0.54219 0.14012 0.65052 0.0
C3498 C 0.53031 0.15256 0.64881 0.0
C3499 C 0.55651 0.14031 0.64091 0.0
C3500 C 0.58312 0.1688 0.61816 0.0
H3501 H 0.64693 0.13817 0.56785 0.0
H3502 H 0.62651 0.13505 0.58968 0.0
H3503 H 0.60277 0.1819 0.60671 0.0
H3504 H 0.52418 0.17486 0.63551 0.0
H3505 H 0.54903 0.17522 0.61903 0.0
H3506 H 0.57393 0.12848 0.61184 0.0
C3507 C 0.62657 0.14625 0.58252 0.0
C3508 C 0.5966 0.17016 0.60763 0.0
C3509 C 0.63835 0.14809 0.57008 0.0
C3510 C 0.53302 0.16507 0.6372 0.0
C3511 C 0.54734 0.16536 0.62781 0.0
C3512 C 0.5803 0.14013 0.61095 0.0
C3513 C 0.615 0.15873 0.58561 0.0
C3514 C 0.60184 0.15666 0.59821 0.0
C3515 C 0.55931 0.15308 0.62962 0.0
C3516 C 0.57461 0.15387 0.61969 0.0
H3517 H 0.62739 0.18619 0.55659 0.0
H3518 H 0.60685 0.18292 0.57791 0.0
H3519 H 0.59733 0.13089 0.59314 0.0
H3520 H 0.54048 0.1303 0.65933 0.0
H3521 H 0.56554 0.13068 0.64255 0.0
C3522 C 0.46168 0.86617 0.64919 0.0
C3523 C 0.47362 0.85378 0.64742 0.0
C3524 C 0.44731 0.8659 0.63966 0.0
C3525 C 0.42073 0.83715 0.61728 0.0
H3526 H 0.406 0.87477 0.5921 0.0
C3527 C 0.37643 0.83012 0.56308 0.0
C3528 C 0.3648 0.84244 0.55979 0.0
C3529 C 0.38819 0.83222 0.57537 0.0
C3530 C 0.40975 0.86422 0.59928 0.0
H3531 H 0.47981 0.83155 0.63404 0.0
H3532 H 0.45488 0.83107 0.61771 0.0
H3533 H 0.42952 0.87751 0.61064 0.0
H3534 H 0.35624 0.86656 0.56713 0.0
H3535 H 0.37671 0.87014 0.58886 0.0
H3536 H 0.40114 0.82379 0.60604 0.0
C3537 C 0.45656 0.84093 0.62648 0.0
C3538 C 0.42324 0.8658 0.60987 0.0
C3539 C 0.47093 0.84129 0.6358 0.0
C3540 C 0.36503 0.85682 0.56935 0.0
C3541 C 0.37683 0.85893 0.58172 0.0
C3542 C 0.40721 0.8356 0.60685 0.0
C3543 C 0.44452 0.85311 0.62839 0.0
C3544 C 0.42912 0.85215 0.61864 0.0
C3545 C 0.38864 0.84668 0.58481 0.0
C3546 C 0.40179 0.84898 0.59737 0.0
H3547 H 0.46337 0.87597 0.65801 0.0
H3548 H 0.43821 0.87545 0.64137 0.0
H3549 H 0.42479 0.82649 0.62413 0.0
H3550 H 0.37669 0.81892 0.55592 0.0
H3551 H 0.39724 0.82263 0.57714 0.0
loop_
_geom_bond_atom_site_label_1
_geom_bond_atom_site_label_2
_geom_bond_distance
_geom_bond_site_symmetry_2
_ccdc_geom_bond_type
O0 Cd1 2.223 . S
O0 C8 1.315 . S
Cd1 O0 2.223 . S
Cd1 O4 2.297 . S
Cd1 O5 2.439 . S
Cd1 O11 2.240 . S
Cd2 O3 2.240 . S
Cd2 O10 2.223 . S
Cd2 O12 2.297 . S
Cd2 O13 2.439 . S
O3 Cd2 2.240 . S
O3 C8 1.279 . S
O4 Cd1 2.297 . S
O4 C6 1.247 . S
O5 Cd1 2.439 . S
O5 C6 1.208 . S
C6 O4 1.247 . S
C6 O5 1.208 . S
C7 O12 1.247 . S
C7 O13 1.208 . S
C8 O0 1.315 . S
C8 O3 1.279 . S
C9 O10 1.315 . S
C9 O11 1.279 . S
O10 Cd2 2.223 . S
O10 C9 1.315 . S
O11 Cd1 2.240 . S
O11 C9 1.279 . S
O12 Cd2 2.297 . S
O12 C7 1.247 . S
O13 Cd2 2.439 . S
O13 C7 1.208 . S
O14 Cd15 2.223 . S
O14 C22 1.315 . S
Cd15 O14 2.223 . S
Cd15 O18 2.297 . S
Cd15 O19 2.439 . S
Cd15 O25 2.240 . S
Cd16 O17 2.240 . S
Cd16 O24 2.223 . S
Cd16 O26 2.297 . S
Cd16 O27 2.439 . S
O17 Cd16 2.240 . S
O17 C22 1.279 . S
O18 Cd15 2.297 . S
O18 C20 1.247 . S
O19 Cd15 2.439 . S
O19 C20 1.208 . S
C20 O18 1.247 . S
C20 O19 1.208 . S
C21 O26 1.247 . S
C21 O27 1.208 . S
C22 O14 1.315 . S
C22 O17 1.279 . S
C23 O24 1.315 . S
C23 O25 1.279 . S
O24 Cd16 2.223 . S
O24 C23 1.315 . S
O25 Cd15 2.240 . S
O25 C23 1.279 . S
O26 Cd16 2.297 . S
O26 C21 1.247 . S
O27 Cd16 2.439 . S
O27 C21 1.208 . S
O28 Cd29 2.223 . S
O28 C36 1.315 . S
Cd29 O28 2.223 . S
Cd29 O32 2.297 . S
Cd29 O33 2.439 . S
Cd29 O39 2.240 . S
Cd30 O31 2.240 . S
Cd30 O38 2.223 . S
Cd30 O40 2.297 . S
Cd30 O41 2.439 . S
O31 Cd30 2.240 . S
O31 C36 1.279 . S
O32 Cd29 2.297 . S
O32 C34 1.247 . S
O33 Cd29 2.439 . S
O33 C34 1.208 . S
C34 O32 1.247 . S
C34 O33 1.208 . S
C35 O40 1.247 . S
C35 O41 1.208 . S
C36 O28 1.315 . S
C36 O31 1.279 . S
C37 O38 1.315 . S
C37 O39 1.279 . S
O38 Cd30 2.223 . S
O38 C37 1.315 . S
O39 Cd29 2.240 . S
O39 C37 1.279 . S
O40 Cd30 2.297 . S
O40 C35 1.247 . S
O41 Cd30 2.439 . S
O41 C35 1.208 . S
O42 Cd43 2.223 . S
O42 C50 1.315 . S
Cd43 O42 2.223 . S
Cd43 O46 2.297 . S
Cd43 O47 2.439 . S
Cd43 O53 2.240 . S
Cd44 O45 2.240 . S
Cd44 O52 2.223 . S
Cd44 O54 2.297 . S
Cd44 O55 2.439 . S
O45 Cd44 2.240 . S
O45 C50 1.279 . S
O46 Cd43 2.297 . S
O46 C48 1.247 . S
O47 Cd43 2.439 . S
O47 C48 1.208 . S
C48 O46 1.247 . S
C48 O47 1.208 . S
C49 O54 1.247 . S
C49 O55 1.208 . S
C50 O42 1.315 . S
C50 O45 1.279 . S
C51 O52 1.315 . S
C51 O53 1.279 . S
O52 Cd44 2.223 . S
O52 C51 1.315 . S
O53 Cd43 2.240 . S
O53 C51 1.279 . S
O54 Cd44 2.297 . S
O54 C49 1.247 . S
O55 Cd44 2.439 . S
O55 C49 1.208 . S
O56 Cd57 2.223 . S
O56 C64 1.315 . S
Cd57 O56 2.223 . S
Cd57 O60 2.297 . S
Cd57 O61 2.439 . S
Cd57 O67 2.240 . S
Cd58 O59 2.240 . S
Cd58 O66 2.223 . S
Cd58 O68 2.297 . S
Cd58 O69 2.439 . S
O59 Cd58 2.240 . S
O59 C64 1.279 . S
O60 Cd57 2.297 . S
O60 C62 1.247 . S
O61 Cd57 2.439 . S
O61 C62 1.208 . S
C62 O60 1.247 . S
C62 O61 1.208 . S
C63 O68 1.247 . S
C63 O69 1.208 . S
C64 O56 1.315 . S
C64 O59 1.279 . S
C65 O66 1.315 . S
C65 O67 1.279 . S
O66 Cd58 2.223 . S
O66 C65 1.315 . S
O67 Cd57 2.240 . S
O67 C65 1.279 . S
O68 Cd58 2.297 . S
O68 C63 1.247 . S
O69 Cd58 2.439 . S
O69 C63 1.208 . S
O70 Cd71 2.223 . S
O70 C78 1.315 . S
Cd71 O70 2.223 . S
Cd71 O74 2.297 . S
Cd71 O75 2.439 . S
Cd71 O81 2.240 . S
Cd72 O73 2.240 . S
Cd72 O80 2.223 . S
Cd72 O82 2.297 . S
Cd72 O83 2.439 . S
O73 Cd72 2.240 . S
O73 C78 1.279 . S
O74 Cd71 2.297 . S
O74 C76 1.247 . S
O75 Cd71 2.439 . S
O75 C76 1.208 . S
C76 O74 1.247 . S
C76 O75 1.208 . S
C77 O82 1.247 . S
C77 O83 1.208 . S
C78 O70 1.315 . S
C78 O73 1.279 . S
C79 O80 1.315 . S
C79 O81 1.279 . S
O80 Cd72 2.223 . S
O80 C79 1.315 . S
O81 Cd71 2.240 . S
O81 C79 1.279 . S
O82 Cd72 2.297 . S
O82 C77 1.247 . S
O83 Cd72 2.439 . S
O83 C77 1.208 . S
O84 Cd85 2.223 . S
O84 C92 1.315 . S
Cd85 O84 2.223 . S
Cd85 O88 2.297 . S
Cd85 O89 2.439 . S
Cd85 O95 2.240 . S
Cd86 O87 2.240 . S
Cd86 O94 2.223 . S
Cd86 O96 2.297 . S
Cd86 O97 2.439 . S
O87 Cd86 2.240 . S
O87 C92 1.279 . S
O88 Cd85 2.297 . S
O88 C90 1.247 . S
O89 Cd85 2.439 . S
O89 C90 1.208 . S
C90 O88 1.247 . S
C90 O89 1.208 . S
C91 O96 1.247 . S
C91 O97 1.208 . S
C92 O84 1.315 . S
C92 O87 1.279 . S
C93 O94 1.315 . S
C93 O95 1.279 . S
O94 Cd86 2.223 . S
O94 C93 1.315 . S
O95 Cd85 2.240 . S
O95 C93 1.279 . S
O96 Cd86 2.297 . S
O96 C91 1.247 . S
O97 Cd86 2.439 . S
O97 C91 1.208 . S
O98 Cd99 2.223 . S
O98 C106 1.315 . S
Cd99 O98 2.223 . S
Cd99 O102 2.297 . S
Cd99 O103 2.439 . S
Cd99 O109 2.240 . S
Cd100 O101 2.240 . S
Cd100 O108 2.223 . S
Cd100 O110 2.297 . S
Cd100 O111 2.439 . S
O101 Cd100 2.240 . S
O101 C106 1.279 . S
O102 Cd99 2.297 . S
O102 C104 1.247 . S
O103 Cd99 2.439 . S
O103 C104 1.208 . S
C104 O102 1.247 . S
C104 O103 1.208 . S
C105 O110 1.247 . S
C105 O111 1.208 . S
C106 O98 1.315 . S
C106 O101 1.279 . S
C107 O108 1.315 . S
C107 O109 1.279 . S
O108 Cd100 2.223 . S
O108 C107 1.315 . S
O109 Cd99 2.240 . S
O109 C107 1.279 . S
O110 Cd100 2.297 . S
O110 C105 1.247 . S
O111 Cd100 2.439 . S
O111 C105 1.208 . S
O112 Cd113 2.223 . S
O112 C120 1.315 . S
Cd113 O112 2.223 . S
Cd113 O116 2.297 . S
Cd113 O117 2.439 . S
Cd113 O123 2.240 . S
Cd114 O115 2.240 . S
Cd114 O122 2.223 . S
Cd114 O124 2.297 . S
Cd114 O125 2.439 . S
O115 Cd114 2.240 . S
O115 C120 1.279 . S
O116 Cd113 2.297 . S
O116 C118 1.247 . S
O117 Cd113 2.439 . S
O117 C118 1.208 . S
C118 O116 1.247 . S
C118 O117 1.208 . S
C119 O124 1.247 . S
C119 O125 1.208 . S
C120 O112 1.315 . S
C120 O115 1.279 . S
C121 O122 1.315 . S
C121 O123 1.279 . S
O122 Cd114 2.223 . S
O122 C121 1.315 . S
O123 Cd113 2.240 . S
O123 C121 1.279 . S
O124 Cd114 2.297 . S
O124 C119 1.247 . S
O125 Cd114 2.439 . S
O125 C119 1.208 . S
O126 Cd127 2.223 . S
O126 C134 1.315 . S
Cd127 O126 2.223 . S
Cd127 O130 2.297 . S
Cd127 O131 2.439 . S
Cd127 O137 2.240 . S
Cd128 O129 2.240 . S
Cd128 O136 2.223 . S
Cd128 O138 2.297 . S
Cd128 O139 2.439 . S
O129 Cd128 2.240 . S
O129 C134 1.279 . S
O130 Cd127 2.297 . S
O130 C132 1.247 . S
O131 Cd127 2.439 . S
O131 C132 1.208 . S
C132 O130 1.247 . S
C132 O131 1.208 . S
C133 O138 1.247 . S
C133 O139 1.208 . S
C134 O126 1.315 . S
C134 O129 1.279 . S
C135 O136 1.315 . S
C135 O137 1.279 . S
O136 Cd128 2.223 . S
O136 C135 1.315 . S
O137 Cd127 2.240 . S
O137 C135 1.279 . S
O138 Cd128 2.297 . S
O138 C133 1.247 . S
O139 Cd128 2.439 . S
O139 C133 1.208 . S
O140 Cd141 2.223 . S
O140 C148 1.315 . S
Cd141 O140 2.223 . S
Cd141 O144 2.297 . S
Cd141 O145 2.439 . S
Cd141 O151 2.240 . S
Cd142 O143 2.240 . S
Cd142 O150 2.223 . S
Cd142 O152 2.297 . S
Cd142 O153 2.439 . S
O143 Cd142 2.240 . S
O143 C148 1.279 . S
O144 Cd141 2.297 . S
O144 C146 1.247 . S
O145 Cd141 2.439 . S
O145 C146 1.208 . S
C146 O144 1.247 . S
C146 O145 1.208 . S
C147 O152 1.247 . S
C147 O153 1.208 . S
C148 O140 1.315 . S
C148 O143 1.279 . S
C149 O150 1.315 . S
C149 O151 1.279 . S
O150 Cd142 2.223 . S
O150 C149 1.315 . S
O151 Cd141 2.240 . S
O151 C149 1.279 . S
O152 Cd142 2.297 . S
O152 C147 1.247 . S
O153 Cd142 2.439 . S
O153 C147 1.208 . S
O154 Cd155 2.223 . S
O154 C162 1.315 . S
Cd155 O154 2.223 . S
Cd155 O158 2.297 . S
Cd155 O159 2.439 . S
Cd155 O165 2.240 . S
Cd156 O157 2.240 . S
Cd156 O164 2.223 . S
Cd156 O166 2.297 . S
Cd156 O167 2.439 . S
O157 Cd156 2.240 . S
O157 C162 1.279 . S
O158 Cd155 2.297 . S
O158 C160 1.247 . S
O159 Cd155 2.439 . S
O159 C160 1.208 . S
C160 O158 1.247 . S
C160 O159 1.208 . S
C161 O166 1.247 . S
C161 O167 1.208 . S
C162 O154 1.315 . S
C162 O157 1.279 . S
C163 O164 1.315 . S
C163 O165 1.279 . S
O164 Cd156 2.223 . S
O164 C163 1.315 . S
O165 Cd155 2.240 . S
O165 C163 1.279 . S
O166 Cd156 2.297 . S
O166 C161 1.247 . S
O167 Cd156 2.439 . S
O167 C161 1.208 . S
O168 Cd169 2.223 . S
O168 C176 1.315 . S
Cd169 O168 2.223 . S
Cd169 O172 2.297 . S
Cd169 O173 2.439 . S
Cd169 O179 2.240 . S
Cd170 O171 2.240 . S
Cd170 O178 2.223 . S
Cd170 O180 2.297 . S
Cd170 O181 2.439 . S
O171 Cd170 2.240 . S
O171 C176 1.279 . S
O172 Cd169 2.297 . S
O172 C174 1.247 . S
O173 Cd169 2.439 . S
O173 C174 1.208 . S
C174 O172 1.247 . S
C174 O173 1.208 . S
C175 O180 1.247 . S
C175 O181 1.208 . S
C176 O168 1.315 . S
C176 O171 1.279 . S
C177 O178 1.315 . S
C177 O179 1.279 . S
O178 Cd170 2.223 . S
O178 C177 1.315 . S
O179 Cd169 2.240 . S
O179 C177 1.279 . S
O180 Cd170 2.297 . S
O180 C175 1.247 . S
O181 Cd170 2.439 . S
O181 C175 1.208 . S
O182 Cd183 2.223 . S
O182 C190 1.315 . S
Cd183 O182 2.223 . S
Cd183 O186 2.297 . S
Cd183 O187 2.439 . S
Cd183 O193 2.240 . S
Cd184 O185 2.240 . S
Cd184 O192 2.223 . S
Cd184 O194 2.297 . S
Cd184 O195 2.439 . S
O185 Cd184 2.240 . S
O185 C190 1.279 . S
O186 Cd183 2.297 . S
O186 C188 1.247 . S
O187 Cd183 2.439 . S
O187 C188 1.208 . S
C188 O186 1.247 . S
C188 O187 1.208 . S
C189 O194 1.247 . S
C189 O195 1.208 . S
C190 O182 1.315 . S
C190 O185 1.279 . S
C191 O192 1.315 . S
C191 O193 1.279 . S
O192 Cd184 2.223 . S
O192 C191 1.315 . S
O193 Cd183 2.240 . S
O193 C191 1.279 . S
O194 Cd184 2.297 . S
O194 C189 1.247 . S
O195 Cd184 2.439 . S
O195 C189 1.208 . S
O196 Cd197 2.223 . S
O196 C204 1.315 . S
Cd197 O196 2.223 . S
Cd197 O200 2.297 . S
Cd197 O201 2.439 . S
Cd197 O207 2.240 . S
Cd198 O199 2.240 . S
Cd198 O206 2.223 . S
Cd198 O208 2.297 . S
Cd198 O209 2.439 . S
O199 Cd198 2.240 . S
O199 C204 1.279 . S
O200 Cd197 2.297 . S
O200 C202 1.247 . S
O201 Cd197 2.439 . S
O201 C202 1.208 . S
C202 O200 1.247 . S
C202 O201 1.208 . S
C203 O208 1.247 . S
C203 O209 1.208 . S
C204 O196 1.315 . S
C204 O199 1.279 . S
C205 O206 1.315 . S
C205 O207 1.279 . S
O206 Cd198 2.223 . S
O206 C205 1.315 . S
O207 Cd197 2.240 . S
O207 C205 1.279 . S
O208 Cd198 2.297 . S
O208 C203 1.247 . S
O209 Cd198 2.439 . S
O209 C203 1.208 . S
O210 Cd211 2.223 . S
O210 C218 1.315 . S
Cd211 O210 2.223 . S
Cd211 O214 2.297 . S
Cd211 O215 2.439 . S
Cd211 O221 2.240 . S
Cd212 O213 2.240 . S
Cd212 O220 2.223 . S
Cd212 O222 2.297 . S
Cd212 O223 2.439 . S
O213 Cd212 2.240 . S
O213 C218 1.279 . S
O214 Cd211 2.297 . S
O214 C216 1.247 . S
O215 Cd211 2.439 . S
O215 C216 1.208 . S
C216 O214 1.247 . S
C216 O215 1.208 . S
C217 O222 1.247 . S
C217 O223 1.208 . S
C218 O210 1.315 . S
C218 O213 1.279 . S
C219 O220 1.315 . S
C219 O221 1.279 . S
O220 Cd212 2.223 . S
O220 C219 1.315 . S
O221 Cd211 2.240 . S
O221 C219 1.279 . S
O222 Cd212 2.297 . S
O222 C217 1.247 . S
O223 Cd212 2.439 . S
O223 C217 1.208 . S
O224 Cd225 2.223 . S
O224 C232 1.315 . S
Cd225 O224 2.223 . S
Cd225 O228 2.297 . S
Cd225 O229 2.439 . S
Cd225 O235 2.240 . S
Cd226 O227 2.240 . S
Cd226 O234 2.223 . S
Cd226 O236 2.297 . S
Cd226 O237 2.439 . S
O227 Cd226 2.240 . S
O227 C232 1.279 . S
O228 Cd225 2.297 . S
O228 C230 1.247 . S
O229 Cd225 2.439 . S
O229 C230 1.208 . S
C230 O228 1.247 . S
C230 O229 1.208 . S
C231 O236 1.247 . S
C231 O237 1.208 . S
C232 O224 1.315 . S
C232 O227 1.279 . S
C233 O234 1.315 . S
C233 O235 1.279 . S
O234 Cd226 2.223 . S
O234 C233 1.315 . S
O235 Cd225 2.240 . S
O235 C233 1.279 . S
O236 Cd226 2.297 . S
O236 C231 1.247 . S
O237 Cd226 2.439 . S
O237 C231 1.208 . S
O238 Cd239 2.223 . S
O238 C246 1.315 . S
Cd239 O238 2.223 . S
Cd239 O242 2.297 . S
Cd239 O243 2.439 . S
Cd239 O249 2.240 . S
Cd240 O241 2.240 . S
Cd240 O248 2.223 . S
Cd240 O250 2.297 . S
Cd240 O251 2.439 . S
O241 Cd240 2.240 . S
O241 C246 1.279 . S
O242 Cd239 2.297 . S
O242 C244 1.247 . S
O243 Cd239 2.439 . S
O243 C244 1.208 . S
C244 O242 1.247 . S
C244 O243 1.208 . S
C245 O250 1.247 . S
C245 O251 1.208 . S
C246 O238 1.315 . S
C246 O241 1.279 . S
C247 O248 1.315 . S
C247 O249 1.279 . S
O248 Cd240 2.223 . S
O248 C247 1.315 . S
O249 Cd239 2.240 . S
O249 C247 1.279 . S
O250 Cd240 2.297 . S
O250 C245 1.247 . S
O251 Cd240 2.439 . S
O251 C245 1.208 . S
O252 Cd253 2.223 . S
O252 C260 1.315 . S
Cd253 O252 2.223 . S
Cd253 O256 2.297 . S
Cd253 O257 2.439 . S
Cd253 O263 2.240 . S
Cd254 O255 2.240 . S
Cd254 O262 2.223 . S
Cd254 O264 2.297 . S
Cd254 O265 2.439 . S
O255 Cd254 2.240 . S
O255 C260 1.279 . S
O256 Cd253 2.297 . S
O256 C258 1.247 . S
O257 Cd253 2.439 . S
O257 C258 1.208 . S
C258 O256 1.247 . S
C258 O257 1.208 . S
C259 O264 1.247 . S
C259 O265 1.208 . S
C260 O252 1.315 . S
C260 O255 1.279 . S
C261 O262 1.315 . S
C261 O263 1.279 . S
O262 Cd254 2.223 . S
O262 C261 1.315 . S
O263 Cd253 2.240 . S
O263 C261 1.279 . S
O264 Cd254 2.297 . S
O264 C259 1.247 . S
O265 Cd254 2.439 . S
O265 C259 1.208 . S
O266 Cd267 2.223 . S
O266 C274 1.315 . S
Cd267 O266 2.223 . S
Cd267 O270 2.297 . S
Cd267 O271 2.439 . S
Cd267 O277 2.240 . S
Cd268 O269 2.240 . S
Cd268 O276 2.223 . S
Cd268 O278 2.297 . S
Cd268 O279 2.439 . S
O269 Cd268 2.240 . S
O269 C274 1.279 . S
O270 Cd267 2.297 . S
O270 C272 1.247 . S
O271 Cd267 2.439 . S
O271 C272 1.208 . S
C272 O270 1.247 . S
C272 O271 1.208 . S
C273 O278 1.247 . S
C273 O279 1.208 . S
C274 O266 1.315 . S
C274 O269 1.279 . S
C275 O276 1.315 . S
C275 O277 1.279 . S
O276 Cd268 2.223 . S
O276 C275 1.315 . S
O277 Cd267 2.240 . S
O277 C275 1.279 . S
O278 Cd268 2.297 . S
O278 C273 1.247 . S
O279 Cd268 2.439 . S
O279 C273 1.208 . S
O280 Cd281 2.223 . S
O280 C288 1.315 . S
Cd281 O280 2.223 . S
Cd281 O284 2.297 . S
Cd281 O285 2.439 . S
Cd281 O291 2.240 . S
Cd282 O283 2.240 . S
Cd282 O290 2.223 . S
Cd282 O292 2.297 . S
Cd282 O293 2.439 . S
O283 Cd282 2.240 . S
O283 C288 1.279 . S
O284 Cd281 2.297 . S
O284 C286 1.247 . S
O285 Cd281 2.439 . S
O285 C286 1.208 . S
C286 O284 1.247 . S
C286 O285 1.208 . S
C287 O292 1.247 . S
C287 O293 1.208 . S
C288 O280 1.315 . S
C288 O283 1.279 . S
C289 O290 1.315 . S
C289 O291 1.279 . S
O290 Cd282 2.223 . S
O290 C289 1.315 . S
O291 Cd281 2.240 . S
O291 C289 1.279 . S
O292 Cd282 2.297 . S
O292 C287 1.247 . S
O293 Cd282 2.439 . S
O293 C287 1.208 . S
O294 Cd295 2.223 . S
O294 C302 1.315 . S
Cd295 O294 2.223 . S
Cd295 O298 2.297 . S
Cd295 O299 2.439 . S
Cd295 O305 2.240 . S
Cd296 O297 2.240 . S
Cd296 O304 2.223 . S
Cd296 O306 2.297 . S
Cd296 O307 2.439 . S
O297 Cd296 2.240 . S
O297 C302 1.279 . S
O298 Cd295 2.297 . S
O298 C300 1.247 . S
O299 Cd295 2.439 . S
O299 C300 1.208 . S
C300 O298 1.247 . S
C300 O299 1.208 . S
C301 O306 1.247 . S
C301 O307 1.208 . S
C302 O294 1.315 . S
C302 O297 1.279 . S
C303 O304 1.315 . S
C303 O305 1.279 . S
O304 Cd296 2.223 . S
O304 C303 1.315 . S
O305 Cd295 2.240 . S
O305 C303 1.279 . S
O306 Cd296 2.297 . S
O306 C301 1.247 . S
O307 Cd296 2.439 . S
O307 C301 1.208 . S
O308 Cd309 2.223 . S
O308 C316 1.315 . S
Cd309 O308 2.223 . S
Cd309 O312 2.297 . S
Cd309 O313 2.439 . S
Cd309 O319 2.240 . S
Cd310 O311 2.240 . S
Cd310 O318 2.223 . S
Cd310 O320 2.297 . S
Cd310 O321 2.439 . S
O311 Cd310 2.240 . S
O311 C316 1.279 . S
O312 Cd309 2.297 . S
O312 C314 1.247 . S
O313 Cd309 2.439 . S
O313 C314 1.208 . S
C314 O312 1.247 . S
C314 O313 1.208 . S
C315 O320 1.247 . S
C315 O321 1.208 . S
C316 O308 1.315 . S
C316 O311 1.279 . S
C317 O318 1.315 . S
C317 O319 1.279 . S
O318 Cd310 2.223 . S
O318 C317 1.315 . S
O319 Cd309 2.240 . S
O319 C317 1.279 . S
O320 Cd310 2.297 . S
O320 C315 1.247 . S
O321 Cd310 2.439 . S
O321 C315 1.208 . S
O322 Cd323 2.223 . S
O322 C330 1.315 . S
Cd323 O322 2.223 . S
Cd323 O326 2.297 . S
Cd323 O327 2.439 . S
Cd323 O333 2.240 . S
Cd324 O325 2.240 . S
Cd324 O332 2.223 . S
Cd324 O334 2.297 . S
Cd324 O335 2.439 . S
O325 Cd324 2.240 . S
O325 C330 1.279 . S
O326 Cd323 2.297 . S
O326 C328 1.247 . S
O327 Cd323 2.439 . S
O327 C328 1.208 . S
C328 O326 1.247 . S
C328 O327 1.208 . S
C329 O334 1.247 . S
C329 O335 1.208 . S
C330 O322 1.315 . S
C330 O325 1.279 . S
C331 O332 1.315 . S
C331 O333 1.279 . S
O332 Cd324 2.223 . S
O332 C331 1.315 . S
O333 Cd323 2.240 . S
O333 C331 1.279 . S
O334 Cd324 2.297 . S
O334 C329 1.247 . S
O335 Cd324 2.439 . S
O335 C329 1.208 . S
O336 Cd337 2.223 . S
O336 C344 1.315 . S
Cd337 O336 2.223 . S
Cd337 O340 2.297 . S
Cd337 O341 2.439 . S
Cd337 O347 2.240 . S
Cd338 O339 2.240 . S
Cd338 O346 2.223 . S
Cd338 O348 2.297 . S
Cd338 O349 2.439 . S
O339 Cd338 2.240 . S
O339 C344 1.279 . S
O340 Cd337 2.297 . S
O340 C342 1.247 . S
O341 Cd337 2.439 . S
O341 C342 1.208 . S
C342 O340 1.247 . S
C342 O341 1.208 . S
C343 O348 1.247 . S
C343 O349 1.208 . S
C344 O336 1.315 . S
C344 O339 1.279 . S
C345 O346 1.315 . S
C345 O347 1.279 . S
O346 Cd338 2.223 . S
O346 C345 1.315 . S
O347 Cd337 2.240 . S
O347 C345 1.279 . S
O348 Cd338 2.297 . S
O348 C343 1.247 . S
O349 Cd338 2.439 . S
O349 C343 1.208 . S
O350 Cd351 2.223 . S
O350 C358 1.315 . S
Cd351 O350 2.223 . S
Cd351 O354 2.297 . S
Cd351 O355 2.439 . S
Cd351 O361 2.240 . S
Cd352 O353 2.240 . S
Cd352 O360 2.223 . S
Cd352 O362 2.297 . S
Cd352 O363 2.439 . S
O353 Cd352 2.240 . S
O353 C358 1.279 . S
O354 Cd351 2.297 . S
O354 C356 1.247 . S
O355 Cd351 2.439 . S
O355 C356 1.208 . S
C356 O354 1.247 . S
C356 O355 1.208 . S
C357 O362 1.247 . S
C357 O363 1.208 . S
C358 O350 1.315 . S
C358 O353 1.279 . S
C359 O360 1.315 . S
C359 O361 1.279 . S
O360 Cd352 2.223 . S
O360 C359 1.315 . S
O361 Cd351 2.240 . S
O361 C359 1.279 . S
O362 Cd352 2.297 . S
O362 C357 1.247 . S
O363 Cd352 2.439 . S
O363 C357 1.208 . S
O364 Cd365 2.223 . S
O364 C372 1.315 . S
Cd365 O364 2.223 . S
Cd365 O368 2.297 . S
Cd365 O369 2.439 . S
Cd365 O375 2.240 . S
Cd366 O367 2.240 . S
Cd366 O374 2.223 . S
Cd366 O376 2.297 . S
Cd366 O377 2.439 . S
O367 Cd366 2.240 . S
O367 C372 1.279 . S
O368 Cd365 2.297 . S
O368 C370 1.247 . S
O369 Cd365 2.439 . S
O369 C370 1.208 . S
C370 O368 1.247 . S
C370 O369 1.208 . S
C371 O376 1.247 . S
C371 O377 1.208 . S
C372 O364 1.315 . S
C372 O367 1.279 . S
C373 O374 1.315 . S
C373 O375 1.279 . S
O374 Cd366 2.223 . S
O374 C373 1.315 . S
O375 Cd365 2.240 . S
O375 C373 1.279 . S
O376 Cd366 2.297 . S
O376 C371 1.247 . S
O377 Cd366 2.439 . S
O377 C371 1.208 . S
O378 Cd379 2.223 . S
O378 C386 1.315 . S
Cd379 O378 2.223 . S
Cd379 O382 2.297 . S
Cd379 O383 2.439 . S
Cd379 O389 2.240 . S
Cd380 O381 2.240 . S
Cd380 O388 2.223 . S
Cd380 O390 2.297 . S
Cd380 O391 2.439 . S
O381 Cd380 2.240 . S
O381 C386 1.279 . S
O382 Cd379 2.297 . S
O382 C384 1.247 . S
O383 Cd379 2.439 . S
O383 C384 1.208 . S
C384 O382 1.247 . S
C384 O383 1.208 . S
C385 O390 1.247 . S
C385 O391 1.208 . S
C386 O378 1.315 . S
C386 O381 1.279 . S
C387 O388 1.315 . S
C387 O389 1.279 . S
O388 Cd380 2.223 . S
O388 C387 1.315 . S
O389 Cd379 2.240 . S
O389 C387 1.279 . S
O390 Cd380 2.297 . S
O390 C385 1.247 . S
O391 Cd380 2.439 . S
O391 C385 1.208 . S
O392 Cd393 2.223 . S
O392 C400 1.315 . S
Cd393 O392 2.223 . S
Cd393 O396 2.297 . S
Cd393 O397 2.439 . S
Cd393 O403 2.240 . S
Cd394 O395 2.240 . S
Cd394 O402 2.223 . S
Cd394 O404 2.297 . S
Cd394 O405 2.439 . S
O395 Cd394 2.240 . S
O395 C400 1.279 . S
O396 Cd393 2.297 . S
O396 C398 1.247 . S
O397 Cd393 2.439 . S
O397 C398 1.208 . S
C398 O396 1.247 . S
C398 O397 1.208 . S
C399 O404 1.247 . S
C399 O405 1.208 . S
C400 O392 1.315 . S
C400 O395 1.279 . S
C401 O402 1.315 . S
C401 O403 1.279 . S
O402 Cd394 2.223 . S
O402 C401 1.315 . S
O403 Cd393 2.240 . S
O403 C401 1.279 . S
O404 Cd394 2.297 . S
O404 C399 1.247 . S
O405 Cd394 2.439 . S
O405 C399 1.208 . S
O406 Cd407 2.223 . S
O406 C414 1.315 . S
Cd407 O406 2.223 . S
Cd407 O410 2.297 . S
Cd407 O411 2.439 . S
Cd407 O417 2.240 . S
Cd408 O409 2.240 . S
Cd408 O416 2.223 . S
Cd408 O418 2.297 . S
Cd408 O419 2.439 . S
O409 Cd408 2.240 . S
O409 C414 1.279 . S
O410 Cd407 2.297 . S
O410 C412 1.247 . S
O411 Cd407 2.439 . S
O411 C412 1.208 . S
C412 O410 1.247 . S
C412 O411 1.208 . S
C413 O418 1.247 . S
C413 O419 1.208 . S
C414 O406 1.315 . S
C414 O409 1.279 . S
C415 O416 1.315 . S
C415 O417 1.279 . S
O416 Cd408 2.223 . S
O416 C415 1.315 . S
O417 Cd407 2.240 . S
O417 C415 1.279 . S
O418 Cd408 2.297 . S
O418 C413 1.247 . S
O419 Cd408 2.439 . S
O419 C413 1.208 . S
O420 Cd421 2.223 . S
O420 C428 1.315 . S
Cd421 O420 2.223 . S
Cd421 O424 2.297 . S
Cd421 O425 2.439 . S
Cd421 O431 2.240 . S
Cd422 O423 2.240 . S
Cd422 O430 2.223 . S
Cd422 O432 2.297 . S
Cd422 O433 2.439 . S
O423 Cd422 2.240 . S
O423 C428 1.279 . S
O424 Cd421 2.297 . S
O424 C426 1.247 . S
O425 Cd421 2.439 . S
O425 C426 1.208 . S
C426 O424 1.247 . S
C426 O425 1.208 . S
C427 O432 1.247 . S
C427 O433 1.208 . S
C428 O420 1.315 . S
C428 O423 1.279 . S
C429 O430 1.315 . S
C429 O431 1.279 . S
O430 Cd422 2.223 . S
O430 C429 1.315 . S
O431 Cd421 2.240 . S
O431 C429 1.279 . S
O432 Cd422 2.297 . S
O432 C427 1.247 . S
O433 Cd422 2.439 . S
O433 C427 1.208 . S
O434 Cd435 2.223 . S
O434 C442 1.315 . S
Cd435 O434 2.223 . S
Cd435 O438 2.297 . S
Cd435 O439 2.439 . S
Cd435 O445 2.240 . S
Cd436 O437 2.240 . S
Cd436 O444 2.223 . S
Cd436 O446 2.297 . S
Cd436 O447 2.439 . S
O437 Cd436 2.240 . S
O437 C442 1.279 . S
O438 Cd435 2.297 . S
O438 C440 1.247 . S
O439 Cd435 2.439 . S
O439 C440 1.208 . S
C440 O438 1.247 . S
C440 O439 1.208 . S
C441 O446 1.247 . S
C441 O447 1.208 . S
C442 O434 1.315 . S
C442 O437 1.279 . S
C443 O444 1.315 . S
C443 O445 1.279 . S
O444 Cd436 2.223 . S
O444 C443 1.315 . S
O445 Cd435 2.240 . S
O445 C443 1.279 . S
O446 Cd436 2.297 . S
O446 C441 1.247 . S
O447 Cd436 2.439 . S
O447 C441 1.208 . S
O448 Cd449 2.223 . S
O448 C456 1.315 . S
Cd449 O448 2.223 . S
Cd449 O452 2.297 . S
Cd449 O453 2.439 . S
Cd449 O459 2.240 . S
Cd450 O451 2.240 . S
Cd450 O458 2.223 . S
Cd450 O460 2.297 . S
Cd450 O461 2.439 . S
O451 Cd450 2.240 . S
O451 C456 1.279 . S
O452 Cd449 2.297 . S
O452 C454 1.247 . S
O453 Cd449 2.439 . S
O453 C454 1.208 . S
C454 O452 1.247 . S
C454 O453 1.208 . S
C455 O460 1.247 . S
C455 O461 1.208 . S
C456 O448 1.315 . S
C456 O451 1.279 . S
C457 O458 1.315 . S
C457 O459 1.279 . S
O458 Cd450 2.223 . S
O458 C457 1.315 . S
O459 Cd449 2.240 . S
O459 C457 1.279 . S
O460 Cd450 2.297 . S
O460 C455 1.247 . S
O461 Cd450 2.439 . S
O461 C455 1.208 . S
O462 Cd463 2.223 . S
O462 C470 1.315 . S
Cd463 O462 2.223 . S
Cd463 O466 2.297 . S
Cd463 O467 2.439 . S
Cd463 O473 2.240 . S
Cd464 O465 2.240 . S
Cd464 O472 2.223 . S
Cd464 O474 2.297 . S
Cd464 O475 2.439 . S
O465 Cd464 2.240 . S
O465 C470 1.279 . S
O466 Cd463 2.297 . S
O466 C468 1.247 . S
O467 Cd463 2.439 . S
O467 C468 1.208 . S
C468 O466 1.247 . S
C468 O467 1.208 . S
C469 O474 1.247 . S
C469 O475 1.208 . S
C470 O462 1.315 . S
C470 O465 1.279 . S
C471 O472 1.315 . S
C471 O473 1.279 . S
O472 Cd464 2.223 . S
O472 C471 1.315 . S
O473 Cd463 2.240 . S
O473 C471 1.279 . S
O474 Cd464 2.297 . S
O474 C469 1.247 . S
O475 Cd464 2.439 . S
O475 C469 1.208 . S
O476 Cd477 2.223 . S
O476 C484 1.315 . S
Cd477 O476 2.223 . S
Cd477 O480 2.297 . S
Cd477 O481 2.439 . S
Cd477 O487 2.240 . S
Cd478 O479 2.240 . S
Cd478 O486 2.223 . S
Cd478 O488 2.297 . S
Cd478 O489 2.439 . S
O479 Cd478 2.240 . S
O479 C484 1.279 . S
O480 Cd477 2.297 . S
O480 C482 1.247 . S
O481 Cd477 2.439 . S
O481 C482 1.208 . S
C482 O480 1.247 . S
C482 O481 1.208 . S
C483 O488 1.247 . S
C483 O489 1.208 . S
C484 O476 1.315 . S
C484 O479 1.279 . S
C485 O486 1.315 . S
C485 O487 1.279 . S
O486 Cd478 2.223 . S
O486 C485 1.315 . S
O487 Cd477 2.240 . S
O487 C485 1.279 . S
O488 Cd478 2.297 . S
O488 C483 1.247 . S
O489 Cd478 2.439 . S
O489 C483 1.208 . S
O490 Cd491 2.223 . S
O490 C498 1.315 . S
Cd491 O490 2.223 . S
Cd491 O494 2.297 . S
Cd491 O495 2.439 . S
Cd491 O501 2.240 . S
Cd492 O493 2.240 . S
Cd492 O500 2.223 . S
Cd492 O502 2.297 . S
Cd492 O503 2.439 . S
O493 Cd492 2.240 . S
O493 C498 1.279 . S
O494 Cd491 2.297 . S
O494 C496 1.247 . S
O495 Cd491 2.439 . S
O495 C496 1.208 . S
C496 O494 1.247 . S
C496 O495 1.208 . S
C497 O502 1.247 . S
C497 O503 1.208 . S
C498 O490 1.315 . S
C498 O493 1.279 . S
C499 O500 1.315 . S
C499 O501 1.279 . S
O500 Cd492 2.223 . S
O500 C499 1.315 . S
O501 Cd491 2.240 . S
O501 C499 1.279 . S
O502 Cd492 2.297 . S
O502 C497 1.247 . S
O503 Cd492 2.439 . S
O503 C497 1.208 . S
O504 Cd505 2.223 . S
O504 C512 1.315 . S
Cd505 O504 2.223 . S
Cd505 O508 2.297 . S
Cd505 O509 2.439 . S
Cd505 O515 2.240 . S
Cd506 O507 2.240 . S
Cd506 O514 2.223 . S
Cd506 O516 2.297 . S
Cd506 O517 2.439 . S
O507 Cd506 2.240 . S
O507 C512 1.279 . S
O508 Cd505 2.297 . S
O508 C510 1.247 . S
O509 Cd505 2.439 . S
O509 C510 1.208 . S
C510 O508 1.247 . S
C510 O509 1.208 . S
C511 O516 1.247 . S
C511 O517 1.208 . S
C512 O504 1.315 . S
C512 O507 1.279 . S
C513 O514 1.315 . S
C513 O515 1.279 . S
O514 Cd506 2.223 . S
O514 C513 1.315 . S
O515 Cd505 2.240 . S
O515 C513 1.279 . S
O516 Cd506 2.297 . S
O516 C511 1.247 . S
O517 Cd506 2.439 . S
O517 C511 1.208 . S
O518 Cd519 2.223 . S
O518 C526 1.315 . S
Cd519 O518 2.223 . S
Cd519 O522 2.297 . S
Cd519 O523 2.439 . S
Cd519 O529 2.240 . S
Cd520 O521 2.240 . S
Cd520 O528 2.223 . S
Cd520 O530 2.297 . S
Cd520 O531 2.439 . S
O521 Cd520 2.240 . S
O521 C526 1.279 . S
O522 Cd519 2.297 . S
O522 C524 1.247 . S
O523 Cd519 2.439 . S
O523 C524 1.208 . S
C524 O522 1.247 . S
C524 O523 1.208 . S
C525 O530 1.247 . S
C525 O531 1.208 . S
C526 O518 1.315 . S
C526 O521 1.279 . S
C527 O528 1.315 . S
C527 O529 1.279 . S
O528 Cd520 2.223 . S
O528 C527 1.315 . S
O529 Cd519 2.240 . S
O529 C527 1.279 . S
O530 Cd520 2.297 . S
O530 C525 1.247 . S
O531 Cd520 2.439 . S
O531 C525 1.208 . S
O532 Cd533 2.223 . S
O532 C540 1.315 . S
Cd533 O532 2.223 . S
Cd533 O536 2.297 . S
Cd533 O537 2.439 . S
Cd533 O543 2.240 . S
Cd534 O535 2.240 . S
Cd534 O542 2.223 . S
Cd534 O544 2.297 . S
Cd534 O545 2.439 . S
O535 Cd534 2.240 . S
O535 C540 1.279 . S
O536 Cd533 2.297 . S
O536 C538 1.247 . S
O537 Cd533 2.439 . S
O537 C538 1.208 . S
C538 O536 1.247 . S
C538 O537 1.208 . S
C539 O544 1.247 . S
C539 O545 1.208 . S
C540 O532 1.315 . S
C540 O535 1.279 . S
C541 O542 1.315 . S
C541 O543 1.279 . S
O542 Cd534 2.223 . S
O542 C541 1.315 . S
O543 Cd533 2.240 . S
O543 C541 1.279 . S
O544 Cd534 2.297 . S
O544 C539 1.247 . S
O545 Cd534 2.439 . S
O545 C539 1.208 . S
O546 Cd547 2.223 . S
O546 C554 1.315 . S
Cd547 O546 2.223 . S
Cd547 O550 2.297 . S
Cd547 O551 2.439 . S
Cd547 O557 2.240 . S
Cd548 O549 2.240 . S
Cd548 O556 2.223 . S
Cd548 O558 2.297 . S
Cd548 O559 2.439 . S
O549 Cd548 2.240 . S
O549 C554 1.279 . S
O550 Cd547 2.297 . S
O550 C552 1.247 . S
O551 Cd547 2.439 . S
O551 C552 1.208 . S
C552 O550 1.247 . S
C552 O551 1.208 . S
C553 O558 1.247 . S
C553 O559 1.208 . S
C554 O546 1.315 . S
C554 O549 1.279 . S
C555 O556 1.315 . S
C555 O557 1.279 . S
O556 Cd548 2.223 . S
O556 C555 1.315 . S
O557 Cd547 2.240 . S
O557 C555 1.279 . S
O558 Cd548 2.297 . S
O558 C553 1.247 . S
O559 Cd548 2.439 . S
O559 C553 1.208 . S
O560 Cd561 2.223 . S
O560 C568 1.315 . S
Cd561 O560 2.223 . S
Cd561 O564 2.297 . S
Cd561 O565 2.439 . S
Cd561 O571 2.240 . S
Cd562 O563 2.240 . S
Cd562 O570 2.223 . S
Cd562 O572 2.297 . S
Cd562 O573 2.439 . S
O563 Cd562 2.240 . S
O563 C568 1.279 . S
O564 Cd561 2.297 . S
O564 C566 1.247 . S
O565 Cd561 2.439 . S
O565 C566 1.208 . S
C566 O564 1.247 . S
C566 O565 1.208 . S
C567 O572 1.247 . S
C567 O573 1.208 . S
C568 O560 1.315 . S
C568 O563 1.279 . S
C569 O570 1.315 . S
C569 O571 1.279 . S
O570 Cd562 2.223 . S
O570 C569 1.315 . S
O571 Cd561 2.240 . S
O571 C569 1.279 . S
O572 Cd562 2.297 . S
O572 C567 1.247 . S
O573 Cd562 2.439 . S
O573 C567 1.208 . S
O574 Cd575 2.223 . S
O574 C582 1.315 . S
Cd575 O574 2.223 . S
Cd575 O578 2.297 . S
Cd575 O579 2.439 . S
Cd575 O585 2.240 . S
Cd576 O577 2.240 . S
Cd576 O584 2.223 . S
Cd576 O586 2.297 . S
Cd576 O587 2.439 . S
O577 Cd576 2.240 . S
O577 C582 1.279 . S
O578 Cd575 2.297 . S
O578 C580 1.247 . S
O579 Cd575 2.439 . S
O579 C580 1.208 . S
C580 O578 1.247 . S
C580 O579 1.208 . S
C581 O586 1.247 . S
C581 O587 1.208 . S
C582 O574 1.315 . S
C582 O577 1.279 . S
C583 O584 1.315 . S
C583 O585 1.279 . S
O584 Cd576 2.223 . S
O584 C583 1.315 . S
O585 Cd575 2.240 . S
O585 C583 1.279 . S
O586 Cd576 2.297 . S
O586 C581 1.247 . S
O587 Cd576 2.439 . S
O587 C581 1.208 . S
O588 Cd589 2.223 . S
O588 C596 1.315 . S
Cd589 O588 2.223 . S
Cd589 O592 2.297 . S
Cd589 O593 2.439 . S
Cd589 O599 2.240 . S
Cd590 O591 2.240 . S
Cd590 O598 2.223 . S
Cd590 O600 2.297 . S
Cd590 O601 2.439 . S
O591 Cd590 2.240 . S
O591 C596 1.279 . S
O592 Cd589 2.297 . S
O592 C594 1.247 . S
O593 Cd589 2.439 . S
O593 C594 1.208 . S
C594 O592 1.247 . S
C594 O593 1.208 . S
C595 O600 1.247 . S
C595 O601 1.208 . S
C596 O588 1.315 . S
C596 O591 1.279 . S
C597 O598 1.315 . S
C597 O599 1.279 . S
O598 Cd590 2.223 . S
O598 C597 1.315 . S
O599 Cd589 2.240 . S
O599 C597 1.279 . S
O600 Cd590 2.297 . S
O600 C595 1.247 . S
O601 Cd590 2.439 . S
O601 C595 1.208 . S
O602 Cd603 2.223 . S
O602 C610 1.315 . S
Cd603 O602 2.223 . S
Cd603 O606 2.297 . S
Cd603 O607 2.439 . S
Cd603 O613 2.240 . S
Cd604 O605 2.240 . S
Cd604 O612 2.223 . S
Cd604 O614 2.297 . S
Cd604 O615 2.439 . S
O605 Cd604 2.240 . S
O605 C610 1.279 . S
O606 Cd603 2.297 . S
O606 C608 1.247 . S
O607 Cd603 2.439 . S
O607 C608 1.208 . S
C608 O606 1.247 . S
C608 O607 1.208 . S
C609 O614 1.247 . S
C609 O615 1.208 . S
C610 O602 1.315 . S
C610 O605 1.279 . S
C611 O612 1.315 . S
C611 O613 1.279 . S
O612 Cd604 2.223 . S
O612 C611 1.315 . S
O613 Cd603 2.240 . S
O613 C611 1.279 . S
O614 Cd604 2.297 . S
O614 C609 1.247 . S
O615 Cd604 2.439 . S
O615 C609 1.208 . S
O616 Cd617 2.223 . S
O616 C624 1.315 . S
Cd617 O616 2.223 . S
Cd617 O620 2.297 . S
Cd617 O621 2.439 . S
Cd617 O627 2.240 . S
Cd618 O619 2.240 . S
Cd618 O626 2.223 . S
Cd618 O628 2.297 . S
Cd618 O629 2.439 . S
O619 Cd618 2.240 . S
O619 C624 1.279 . S
O620 Cd617 2.297 . S
O620 C622 1.247 . S
O621 Cd617 2.439 . S
O621 C622 1.208 . S
C622 O620 1.247 . S
C622 O621 1.208 . S
C623 O628 1.247 . S
C623 O629 1.208 . S
C624 O616 1.315 . S
C624 O619 1.279 . S
C625 O626 1.315 . S
C625 O627 1.279 . S
O626 Cd618 2.223 . S
O626 C625 1.315 . S
O627 Cd617 2.240 . S
O627 C625 1.279 . S
O628 Cd618 2.297 . S
O628 C623 1.247 . S
O629 Cd618 2.439 . S
O629 C623 1.208 . S
O630 Cd631 2.223 . S
O630 C638 1.315 . S
Cd631 O630 2.223 . S
Cd631 O634 2.297 . S
Cd631 O635 2.439 . S
Cd631 O641 2.240 . S
Cd632 O633 2.240 . S
Cd632 O640 2.223 . S
Cd632 O642 2.297 . S
Cd632 O643 2.439 . S
O633 Cd632 2.240 . S
O633 C638 1.279 . S
O634 Cd631 2.297 . S
O634 C636 1.247 . S
O635 Cd631 2.439 . S
O635 C636 1.208 . S
C636 O634 1.247 . S
C636 O635 1.208 . S
C637 O642 1.247 . S
C637 O643 1.208 . S
C638 O630 1.315 . S
C638 O633 1.279 . S
C639 O640 1.315 . S
C639 O641 1.279 . S
O640 Cd632 2.223 . S
O640 C639 1.315 . S
O641 Cd631 2.240 . S
O641 C639 1.279 . S
O642 Cd632 2.297 . S
O642 C637 1.247 . S
O643 Cd632 2.439 . S
O643 C637 1.208 . S
O644 Cd645 2.223 . S
O644 C652 1.315 . S
Cd645 O644 2.223 . S
Cd645 O648 2.297 . S
Cd645 O649 2.439 . S
Cd645 O655 2.240 . S
Cd646 O647 2.240 . S
Cd646 O654 2.223 . S
Cd646 O656 2.297 . S
Cd646 O657 2.439 . S
O647 Cd646 2.240 . S
O647 C652 1.279 . S
O648 Cd645 2.297 . S
O648 C650 1.247 . S
O649 Cd645 2.439 . S
O649 C650 1.208 . S
C650 O648 1.247 . S
C650 O649 1.208 . S
C651 O656 1.247 . S
C651 O657 1.208 . S
C652 O644 1.315 . S
C652 O647 1.279 . S
C653 O654 1.315 . S
C653 O655 1.279 . S
O654 Cd646 2.223 . S
O654 C653 1.315 . S
O655 Cd645 2.240 . S
O655 C653 1.279 . S
O656 Cd646 2.297 . S
O656 C651 1.247 . S
O657 Cd646 2.439 . S
O657 C651 1.208 . S
O658 Cd659 2.223 . S
O658 C666 1.315 . S
Cd659 O658 2.223 . S
Cd659 O662 2.297 . S
Cd659 O663 2.439 . S
Cd659 O669 2.240 . S
Cd660 O661 2.240 . S
Cd660 O668 2.223 . S
Cd660 O670 2.297 . S
Cd660 O671 2.439 . S
O661 Cd660 2.240 . S
O661 C666 1.279 . S
O662 Cd659 2.297 . S
O662 C664 1.247 . S
O663 Cd659 2.439 . S
O663 C664 1.208 . S
C664 O662 1.247 . S
C664 O663 1.208 . S
C665 O670 1.247 . S
C665 O671 1.208 . S
C666 O658 1.315 . S
C666 O661 1.279 . S
C667 O668 1.315 . S
C667 O669 1.279 . S
O668 Cd660 2.223 . S
O668 C667 1.315 . S
O669 Cd659 2.240 . S
O669 C667 1.279 . S
O670 Cd660 2.297 . S
O670 C665 1.247 . S
O671 Cd660 2.439 . S
O671 C665 1.208 . S
C672 C673 1.349 . S
C672 C674 1.327 . S
C672 H697 0.950 . S
C673 C672 1.349 . S
C673 C689 1.349 . S
C674 C672 1.327 . S
C674 C693 1.429 . S
C674 H698 0.950 . S
C675 C692 1.574 . S
C675 C694 1.368 . S
C675 H699 0.949 . S
H676 C680 0.949 . S
C677 C678 1.349 . S
C677 C679 1.327 . S
C677 H700 0.950 . S
C678 C677 1.349 . S
C678 C690 1.349 . S
C679 C677 1.327 . S
C679 C695 1.429 . S
C679 H701 0.950 . S
C680 H676 0.949 . S
C680 C688 1.574 . S
C680 C696 1.368 . S
H681 C689 0.950 . S
H682 C687 0.950 . S
H683 C688 0.949 . S
H684 C690 0.950 . S
H685 C691 0.950 . S
H686 C692 0.949 . S
C687 H682 0.950 . S
C687 C689 1.327 . S
C687 C693 1.429 . S
C688 C680 1.574 . S
C688 H683 0.949 . S
C688 C694 1.368 . S
C689 C673 1.349 . S
C689 H681 0.950 . S
C689 C687 1.327 . S
C690 C678 1.349 . S
C690 H684 0.950 . S
C690 C691 1.327 . S
C691 H685 0.950 . S
C691 C690 1.327 . S
C691 C695 1.429 . S
C692 C675 1.574 . S
C692 H686 0.949 . S
C692 C696 1.368 . S
C693 C674 1.429 . S
C693 C687 1.429 . S
C693 C694 1.523 . S
C694 C675 1.368 . S
C694 C688 1.368 . S
C694 C693 1.523 . S
C695 C679 1.429 . S
C695 C691 1.429 . S
C695 C696 1.523 . S
C696 C680 1.368 . S
C696 C692 1.368 . S
C696 C695 1.523 . S
H697 C672 0.950 . S
H698 C674 0.950 . S
H699 C675 0.949 . S
H700 C677 0.950 . S
H701 C679 0.950 . S
C702 C703 1.349 . S
C702 C704 1.327 . S
C702 H727 0.950 . S
C703 C702 1.349 . S
C703 C719 1.349 . S
C704 C702 1.327 . S
C704 C723 1.429 . S
C704 H728 0.950 . S
C705 C722 1.574 . S
C705 C724 1.368 . S
C705 H729 0.949 . S
H706 C710 0.949 . S
C707 C708 1.349 . S
C707 C709 1.327 . S
C707 H730 0.950 . S
C708 C707 1.349 . S
C708 C720 1.349 . S
C709 C707 1.327 . S
C709 C725 1.429 . S
C709 H731 0.950 . S
C710 H706 0.949 . S
C710 C718 1.574 . S
C710 C726 1.368 . S
H711 C719 0.950 . S
H712 C717 0.950 . S
H713 C718 0.949 . S
H714 C720 0.950 . S
H715 C721 0.950 . S
H716 C722 0.949 . S
C717 H712 0.950 . S
C717 C719 1.327 . S
C717 C723 1.429 . S
C718 C710 1.574 . S
C718 H713 0.949 . S
C718 C724 1.368 . S
C719 C703 1.349 . S
C719 H711 0.950 . S
C719 C717 1.327 . S
C720 C708 1.349 . S
C720 H714 0.950 . S
C720 C721 1.327 . S
C721 H715 0.950 . S
C721 C720 1.327 . S
C721 C725 1.429 . S
C722 C705 1.574 . S
C722 H716 0.949 . S
C722 C726 1.368 . S
C723 C704 1.429 . S
C723 C717 1.429 . S
C723 C724 1.523 . S
C724 C705 1.368 . S
C724 C718 1.368 . S
C724 C723 1.523 . S
C725 C709 1.429 . S
C725 C721 1.429 . S
C725 C726 1.523 . S
C726 C710 1.368 . S
C726 C722 1.368 . S
C726 C725 1.523 . S
H727 C702 0.950 . S
H728 C704 0.950 . S
H729 C705 0.949 . S
H730 C707 0.950 . S
H731 C709 0.950 . S
C732 C733 1.349 . S
C732 C734 1.327 . S
C732 H757 0.950 . S
C733 C732 1.349 . S
C733 C749 1.349 . S
C734 C732 1.327 . S
C734 C753 1.429 . S
C734 H758 0.950 . S
C735 C752 1.574 . S
C735 C754 1.368 . S
C735 H759 0.949 . S
H736 C740 0.949 . S
C737 C738 1.349 . S
C737 C739 1.327 . S
C737 H760 0.950 . S
C738 C737 1.349 . S
C738 C750 1.349 . S
C739 C737 1.327 . S
C739 C755 1.429 . S
C739 H761 0.950 . S
C740 H736 0.949 . S
C740 C748 1.574 . S
C740 C756 1.368 . S
H741 C749 0.950 . S
H742 C747 0.950 . S
H743 C748 0.949 . S
H744 C750 0.950 . S
H745 C751 0.950 . S
H746 C752 0.949 . S
C747 H742 0.950 . S
C747 C749 1.327 . S
C747 C753 1.429 . S
C748 C740 1.574 . S
C748 H743 0.949 . S
C748 C754 1.368 . S
C749 C733 1.349 . S
C749 H741 0.950 . S
C749 C747 1.327 . S
C750 C738 1.349 . S
C750 H744 0.950 . S
C750 C751 1.327 . S
C751 H745 0.950 . S
C751 C750 1.327 . S
C751 C755 1.429 . S
C752 C735 1.574 . S
C752 H746 0.949 . S
C752 C756 1.368 . S
C753 C734 1.429 . S
C753 C747 1.429 . S
C753 C754 1.523 . S
C754 C735 1.368 . S
C754 C748 1.368 . S
C754 C753 1.523 . S
C755 C739 1.429 . S
C755 C751 1.429 . S
C755 C756 1.523 . S
C756 C740 1.368 . S
C756 C752 1.368 . S
C756 C755 1.523 . S
H757 C732 0.950 . S
H758 C734 0.950 . S
H759 C735 0.949 . S
H760 C737 0.950 . S
H761 C739 0.950 . S
C762 C763 1.349 . S
C762 C764 1.327 . S
C762 H787 0.950 . S
C763 C762 1.349 . S
C763 C779 1.349 . S
C764 C762 1.327 . S
C764 C783 1.429 . S
C764 H788 0.950 . S
C765 C782 1.574 . S
C765 C784 1.368 . S
C765 H789 0.949 . S
H766 C770 0.949 . S
C767 C768 1.349 . S
C767 C769 1.327 . S
C767 H790 0.950 . S
C768 C767 1.349 . S
C768 C780 1.349 . S
C769 C767 1.327 . S
C769 C785 1.429 . S
C769 H791 0.950 . S
C770 H766 0.949 . S
C770 C778 1.574 . S
C770 C786 1.368 . S
H771 C779 0.950 . S
H772 C777 0.950 . S
H773 C778 0.949 . S
H774 C780 0.950 . S
H775 C781 0.950 . S
H776 C782 0.949 . S
C777 H772 0.950 . S
C777 C779 1.327 . S
C777 C783 1.429 . S
C778 C770 1.574 . S
C778 H773 0.949 . S
C778 C784 1.368 . S
C779 C763 1.349 . S
C779 H771 0.950 . S
C779 C777 1.327 . S
C780 C768 1.349 . S
C780 H774 0.950 . S
C780 C781 1.327 . S
C781 H775 0.950 . S
C781 C780 1.327 . S
C781 C785 1.429 . S
C782 C765 1.574 . S
C782 H776 0.949 . S
C782 C786 1.368 . S
C783 C764 1.429 . S
C783 C777 1.429 . S
C783 C784 1.523 . S
C784 C765 1.368 . S
C784 C778 1.368 . S
C784 C783 1.523 . S
C785 C769 1.429 . S
C785 C781 1.429 . S
C785 C786 1.523 . S
C786 C770 1.368 . S
C786 C782 1.368 . S
C786 C785 1.523 . S
H787 C762 0.950 . S
H788 C764 0.950 . S
H789 C765 0.949 . S
H790 C767 0.950 . S
H791 C769 0.950 . S
C792 C793 1.349 . S
C792 C794 1.327 . S
C792 H817 0.950 . S
C793 C792 1.349 . S
C793 C809 1.349 . S
C794 C792 1.327 . S
C794 C813 1.429 . S
C794 H818 0.950 . S
C795 C812 1.574 . S
C795 C814 1.368 . S
C795 H819 0.949 . S
H796 C800 0.949 . S
C797 C798 1.349 . S
C797 C799 1.327 . S
C797 H820 0.950 . S
C798 C797 1.349 . S
C798 C810 1.349 . S
C799 C797 1.327 . S
C799 C815 1.429 . S
C799 H821 0.950 . S
C800 H796 0.949 . S
C800 C808 1.574 . S
C800 C816 1.368 . S
H801 C809 0.950 . S
H802 C807 0.950 . S
H803 C808 0.949 . S
H804 C810 0.950 . S
H805 C811 0.950 . S
H806 C812 0.949 . S
C807 H802 0.950 . S
C807 C809 1.327 . S
C807 C813 1.429 . S
C808 C800 1.574 . S
C808 H803 0.949 . S
C808 C814 1.368 . S
C809 C793 1.349 . S
C809 H801 0.950 . S
C809 C807 1.327 . S
C810 C798 1.349 . S
C810 H804 0.950 . S
C810 C811 1.327 . S
C811 H805 0.950 . S
C811 C810 1.327 . S
C811 C815 1.429 . S
C812 C795 1.574 . S
C812 H806 0.949 . S
C812 C816 1.368 . S
C813 C794 1.429 . S
C813 C807 1.429 . S
C813 C814 1.523 . S
C814 C795 1.368 . S
C814 C808 1.368 . S
C814 C813 1.523 . S
C815 C799 1.429 . S
C815 C811 1.429 . S
C815 C816 1.523 . S
C816 C800 1.368 . S
C816 C812 1.368 . S
C816 C815 1.523 . S
H817 C792 0.950 . S
H818 C794 0.950 . S
H819 C795 0.949 . S
H820 C797 0.950 . S
H821 C799 0.950 . S
C822 C823 1.349 . S
C822 C824 1.327 . S
C822 H847 0.950 . S
C823 C822 1.349 . S
C823 C839 1.349 . S
C824 C822 1.327 . S
C824 C843 1.429 . S
C824 H848 0.950 . S
C825 C842 1.574 . S
C825 C844 1.368 . S
C825 H849 0.949 . S
H826 C830 0.949 . S
C827 C828 1.349 . S
C827 C829 1.327 . S
C827 H850 0.950 . S
C828 C827 1.349 . S
C828 C840 1.349 . S
C829 C827 1.327 . S
C829 C845 1.429 . S
C829 H851 0.950 . S
C830 H826 0.949 . S
C830 C838 1.574 . S
C830 C846 1.368 . S
H831 C839 0.950 . S
H832 C837 0.950 . S
H833 C838 0.949 . S
H834 C840 0.950 . S
H835 C841 0.950 . S
H836 C842 0.949 . S
C837 H832 0.950 . S
C837 C839 1.327 . S
C837 C843 1.429 . S
C838 C830 1.574 . S
C838 H833 0.949 . S
C838 C844 1.368 . S
C839 C823 1.349 . S
C839 H831 0.950 . S
C839 C837 1.327 . S
C840 C828 1.349 . S
C840 H834 0.950 . S
C840 C841 1.327 . S
C841 H835 0.950 . S
C841 C840 1.327 . S
C841 C845 1.429 . S
C842 C825 1.574 . S
C842 H836 0.949 . S
C842 C846 1.368 . S
C843 C824 1.429 . S
C843 C837 1.429 . S
C843 C844 1.523 . S
C844 C825 1.368 . S
C844 C838 1.368 . S
C844 C843 1.523 . S
C845 C829 1.429 . S
C845 C841 1.429 . S
C845 C846 1.523 . S
C846 C830 1.368 . S
C846 C842 1.368 . S
C846 C845 1.523 . S
H847 C822 0.950 . S
H848 C824 0.950 . S
H849 C825 0.949 . S
H850 C827 0.950 . S
H851 C829 0.950 . S
C852 C853 1.349 . S
C852 C854 1.327 . S
C852 H877 0.950 . S
C853 C852 1.349 . S
C853 C869 1.349 . S
C854 C852 1.327 . S
C854 C873 1.429 . S
C854 H878 0.950 . S
C855 C872 1.574 . S
C855 C874 1.368 . S
C855 H879 0.949 . S
H856 C860 0.949 . S
C857 C858 1.349 . S
C857 C859 1.327 . S
C857 H880 0.950 . S
C858 C857 1.349 . S
C858 C870 1.349 . S
C859 C857 1.327 . S
C859 C875 1.429 . S
C859 H881 0.950 . S
C860 H856 0.949 . S
C860 C868 1.574 . S
C860 C876 1.368 . S
H861 C869 0.950 . S
H862 C867 0.950 . S
H863 C868 0.949 . S
H864 C870 0.950 . S
H865 C871 0.950 . S
H866 C872 0.949 . S
C867 H862 0.950 . S
C867 C869 1.327 . S
C867 C873 1.429 . S
C868 C860 1.574 . S
C868 H863 0.949 . S
C868 C874 1.368 . S
C869 C853 1.349 . S
C869 H861 0.950 . S
C869 C867 1.327 . S
C870 C858 1.349 . S
C870 H864 0.950 . S
C870 C871 1.327 . S
C871 H865 0.950 . S
C871 C870 1.327 . S
C871 C875 1.429 . S
C872 C855 1.574 . S
C872 H866 0.949 . S
C872 C876 1.368 . S
C873 C854 1.429 . S
C873 C867 1.429 . S
C873 C874 1.523 . S
C874 C855 1.368 . S
C874 C868 1.368 . S
C874 C873 1.523 . S
C875 C859 1.429 . S
C875 C871 1.429 . S
C875 C876 1.523 . S
C876 C860 1.368 . S
C876 C872 1.368 . S
C876 C875 1.523 . S
H877 C852 0.950 . S
H878 C854 0.950 . S
H879 C855 0.949 . S
H880 C857 0.950 . S
H881 C859 0.950 . S
C882 C883 1.349 . S
C882 C884 1.327 . S
C882 H907 0.950 . S
C883 C882 1.349 . S
C883 C899 1.349 . S
C884 C882 1.327 . S
C884 C903 1.429 . S
C884 H908 0.950 . S
C885 C902 1.574 . S
C885 C904 1.368 . S
C885 H909 0.949 . S
H886 C890 0.949 . S
C887 C888 1.349 . S
C887 C889 1.327 . S
C887 H910 0.950 . S
C888 C887 1.349 . S
C888 C900 1.349 . S
C889 C887 1.327 . S
C889 C905 1.429 . S
C889 H911 0.950 . S
C890 H886 0.949 . S
C890 C898 1.574 . S
C890 C906 1.368 . S
H891 C899 0.950 . S
H892 C897 0.950 . S
H893 C898 0.949 . S
H894 C900 0.950 . S
H895 C901 0.950 . S
H896 C902 0.949 . S
C897 H892 0.950 . S
C897 C899 1.327 . S
C897 C903 1.429 . S
C898 C890 1.574 . S
C898 H893 0.949 . S
C898 C904 1.368 . S
C899 C883 1.349 . S
C899 H891 0.950 . S
C899 C897 1.327 . S
C900 C888 1.349 . S
C900 H894 0.950 . S
C900 C901 1.327 . S
C901 H895 0.950 . S
C901 C900 1.327 . S
C901 C905 1.429 . S
C902 C885 1.574 . S
C902 H896 0.949 . S
C902 C906 1.368 . S
C903 C884 1.429 . S
C903 C897 1.429 . S
C903 C904 1.523 . S
C904 C885 1.368 . S
C904 C898 1.368 . S
C904 C903 1.523 . S
C905 C889 1.429 . S
C905 C901 1.429 . S
C905 C906 1.523 . S
C906 C890 1.368 . S
C906 C902 1.368 . S
C906 C905 1.523 . S
H907 C882 0.950 . S
H908 C884 0.950 . S
H909 C885 0.949 . S
H910 C887 0.950 . S
H911 C889 0.950 . S
C912 C913 1.349 . S
C912 C914 1.327 . S
C912 H937 0.950 . S
C913 C912 1.349 . S
C913 C929 1.349 . S
C914 C912 1.327 . S
C914 C933 1.429 . S
C914 H938 0.950 . S
C915 C932 1.574 . S
C915 C934 1.368 . S
C915 H939 0.949 . S
H916 C920 0.949 . S
C917 C918 1.349 . S
C917 C919 1.327 . S
C917 H940 0.950 . S
C918 C917 1.349 . S
C918 C930 1.349 . S
C919 C917 1.327 . S
C919 C935 1.429 . S
C919 H941 0.950 . S
C920 H916 0.949 . S
C920 C928 1.574 . S
C920 C936 1.368 . S
H921 C929 0.950 . S
H922 C927 0.950 . S
H923 C928 0.949 . S
H924 C930 0.950 . S
H925 C931 0.950 . S
H926 C932 0.949 . S
C927 H922 0.950 . S
C927 C929 1.327 . S
C927 C933 1.429 . S
C928 C920 1.574 . S
C928 H923 0.949 . S
C928 C934 1.368 . S
C929 C913 1.349 . S
C929 H921 0.950 . S
C929 C927 1.327 . S
C930 C918 1.349 . S
C930 H924 0.950 . S
C930 C931 1.327 . S
C931 H925 0.950 . S
C931 C930 1.327 . S
C931 C935 1.429 . S
C932 C915 1.574 . S
C932 H926 0.949 . S
C932 C936 1.368 . S
C933 C914 1.429 . S
C933 C927 1.429 . S
C933 C934 1.523 . S
C934 C915 1.368 . S
C934 C928 1.368 . S
C934 C933 1.523 . S
C935 C919 1.429 . S
C935 C931 1.429 . S
C935 C936 1.523 . S
C936 C920 1.368 . S
C936 C932 1.368 . S
C936 C935 1.523 . S
H937 C912 0.950 . S
H938 C914 0.950 . S
H939 C915 0.949 . S
H940 C917 0.950 . S
H941 C919 0.950 . S
C942 C943 1.349 . S
C942 C944 1.327 . S
C942 H967 0.950 . S
C943 C942 1.349 . S
C943 C959 1.349 . S
C944 C942 1.327 . S
C944 C963 1.429 . S
C944 H968 0.950 . S
C945 C962 1.574 . S
C945 C964 1.368 . S
C945 H969 0.949 . S
H946 C950 0.949 . S
C947 C948 1.349 . S
C947 C949 1.327 . S
C947 H970 0.950 . S
C948 C947 1.349 . S
C948 C960 1.349 . S
C949 C947 1.327 . S
C949 C965 1.429 . S
C949 H971 0.950 . S
C950 H946 0.949 . S
C950 C958 1.574 . S
C950 C966 1.368 . S
H951 C959 0.950 . S
H952 C957 0.950 . S
H953 C958 0.949 . S
H954 C960 0.950 . S
H955 C961 0.950 . S
H956 C962 0.949 . S
C957 H952 0.950 . S
C957 C959 1.327 . S
C957 C963 1.429 . S
C958 C950 1.574 . S
C958 H953 0.949 . S
C958 C964 1.368 . S
C959 C943 1.349 . S
C959 H951 0.950 . S
C959 C957 1.327 . S
C960 C948 1.349 . S
C960 H954 0.950 . S
C960 C961 1.327 . S
C961 H955 0.950 . S
C961 C960 1.327 . S
C961 C965 1.429 . S
C962 C945 1.574 . S
C962 H956 0.949 . S
C962 C966 1.368 . S
C963 C944 1.429 . S
C963 C957 1.429 . S
C963 C964 1.523 . S
C964 C945 1.368 . S
C964 C958 1.368 . S
C964 C963 1.523 . S
C965 C949 1.429 . S
C965 C961 1.429 . S
C965 C966 1.523 . S
C966 C950 1.368 . S
C966 C962 1.368 . S
C966 C965 1.523 . S
H967 C942 0.950 . S
H968 C944 0.950 . S
H969 C945 0.949 . S
H970 C947 0.950 . S
H971 C949 0.950 . S
C972 C973 1.349 . S
C972 C974 1.327 . S
C972 H997 0.950 . S
C973 C972 1.349 . S
C973 C989 1.349 . S
C974 C972 1.327 . S
C974 C993 1.429 . S
C974 H998 0.950 . S
C975 C992 1.574 . S
C975 C994 1.368 . S
C975 H999 0.949 . S
H976 C980 0.949 . S
C977 C978 1.349 . S
C977 C979 1.327 . S
C977 H1000 0.950 . S
C978 C977 1.349 . S
C978 C990 1.349 . S
C979 C977 1.327 . S
C979 C995 1.429 . S
C979 H1001 0.950 . S
C980 H976 0.949 . S
C980 C988 1.574 . S
C980 C996 1.368 . S
H981 C989 0.950 . S
H982 C987 0.950 . S
H983 C988 0.949 . S
H984 C990 0.950 . S
H985 C991 0.950 . S
H986 C992 0.949 . S
C987 H982 0.950 . S
C987 C989 1.327 . S
C987 C993 1.429 . S
C988 C980 1.574 . S
C988 H983 0.949 . S
C988 C994 1.368 . S
C989 C973 1.349 . S
C989 H981 0.950 . S
C989 C987 1.327 . S
C990 C978 1.349 . S
C990 H984 0.950 . S
C990 C991 1.327 . S
C991 H985 0.950 . S
C991 C990 1.327 . S
C991 C995 1.429 . S
C992 C975 1.574 . S
C992 H986 0.949 . S
C992 C996 1.368 . S
C993 C974 1.429 . S
C993 C987 1.429 . S
C993 C994 1.523 . S
C994 C975 1.368 . S
C994 C988 1.368 . S
C994 C993 1.523 . S
C995 C979 1.429 . S
C995 C991 1.429 . S
C995 C996 1.523 . S
C996 C980 1.368 . S
C996 C992 1.368 . S
C996 C995 1.523 . S
H997 C972 0.950 . S
H998 C974 0.950 . S
H999 C975 0.949 . S
H1000 C977 0.950 . S
H1001 C979 0.950 . S
C1002 C1003 1.349 . S
C1002 C1004 1.327 . S
C1002 H1027 0.950 . S
C1003 C1002 1.349 . S
C1003 C1019 1.349 . S
C1004 C1002 1.327 . S
C1004 C1023 1.429 . S
C1004 H1028 0.950 . S
C1005 C1022 1.574 . S
C1005 C1024 1.368 . S
C1005 H1029 0.949 . S
H1006 C1010 0.949 . S
C1007 C1008 1.349 . S
C1007 C1009 1.327 . S
C1007 H1030 0.950 . S
C1008 C1007 1.349 . S
C1008 C1020 1.349 . S
C1009 C1007 1.327 . S
C1009 C1025 1.429 . S
C1009 H1031 0.950 . S
C1010 H1006 0.949 . S
C1010 C1018 1.574 . S
C1010 C1026 1.368 . S
H1011 C1019 0.950 . S
H1012 C1017 0.950 . S
H1013 C1018 0.949 . S
H1014 C1020 0.950 . S
H1015 C1021 0.950 . S
H1016 C1022 0.949 . S
C1017 H1012 0.950 . S
C1017 C1019 1.327 . S
C1017 C1023 1.429 . S
C1018 C1010 1.574 . S
C1018 H1013 0.949 . S
C1018 C1024 1.368 . S
C1019 C1003 1.349 . S
C1019 H1011 0.950 . S
C1019 C1017 1.327 . S
C1020 C1008 1.349 . S
C1020 H1014 0.950 . S
C1020 C1021 1.327 . S
C1021 H1015 0.950 . S
C1021 C1020 1.327 . S
C1021 C1025 1.429 . S
C1022 C1005 1.574 . S
C1022 H1016 0.949 . S
C1022 C1026 1.368 . S
C1023 C1004 1.429 . S
C1023 C1017 1.429 . S
C1023 C1024 1.523 . S
C1024 C1005 1.368 . S
C1024 C1018 1.368 . S
C1024 C1023 1.523 . S
C1025 C1009 1.429 . S
C1025 C1021 1.429 . S
C1025 C1026 1.523 . S
C1026 C1010 1.368 . S
C1026 C1022 1.368 . S
C1026 C1025 1.523 . S
H1027 C1002 0.950 . S
H1028 C1004 0.950 . S
H1029 C1005 0.949 . S
H1030 C1007 0.950 . S
H1031 C1009 0.950 . S
C1032 C1033 1.349 . S
C1032 C1034 1.327 . S
C1032 H1057 0.950 . S
C1033 C1032 1.349 . S
C1033 C1049 1.349 . S
C1034 C1032 1.327 . S
C1034 C1053 1.429 . S
C1034 H1058 0.950 . S
C1035 C1052 1.574 . S
C1035 C1054 1.368 . S
C1035 H1059 0.949 . S
H1036 C1040 0.949 . S
C1037 C1038 1.349 . S
C1037 C1039 1.327 . S
C1037 H1060 0.950 . S
C1038 C1037 1.349 . S
C1038 C1050 1.349 . S
C1039 C1037 1.327 . S
C1039 C1055 1.429 . S
C1039 H1061 0.950 . S
C1040 H1036 0.949 . S
C1040 C1048 1.574 . S
C1040 C1056 1.368 . S
H1041 C1049 0.950 . S
H1042 C1047 0.950 . S
H1043 C1048 0.949 . S
H1044 C1050 0.950 . S
H1045 C1051 0.950 . S
H1046 C1052 0.949 . S
C1047 H1042 0.950 . S
C1047 C1049 1.327 . S
C1047 C1053 1.429 . S
C1048 C1040 1.574 . S
C1048 H1043 0.949 . S
C1048 C1054 1.368 . S
C1049 C1033 1.349 . S
C1049 H1041 0.950 . S
C1049 C1047 1.327 . S
C1050 C1038 1.349 . S
C1050 H1044 0.950 . S
C1050 C1051 1.327 . S
C1051 H1045 0.950 . S
C1051 C1050 1.327 . S
C1051 C1055 1.429 . S
C1052 C1035 1.574 . S
C1052 H1046 0.949 . S
C1052 C1056 1.368 . S
C1053 C1034 1.429 . S
C1053 C1047 1.429 . S
C1053 C1054 1.523 . S
C1054 C1035 1.368 . S
C1054 C1048 1.368 . S
C1054 C1053 1.523 . S
C1055 C1039 1.429 . S
C1055 C1051 1.429 . S
C1055 C1056 1.523 . S
C1056 C1040 1.368 . S
C1056 C1052 1.368 . S
C1056 C1055 1.523 . S
H1057 C1032 0.950 . S
H1058 C1034 0.950 . S
H1059 C1035 0.949 . S
H1060 C1037 0.950 . S
H1061 C1039 0.950 . S
C1062 C1063 1.349 . S
C1062 C1064 1.327 . S
C1062 H1087 0.950 . S
C1063 C1062 1.349 . S
C1063 C1079 1.349 . S
C1064 C1062 1.327 . S
C1064 C1083 1.429 . S
C1064 H1088 0.950 . S
C1065 C1082 1.574 . S
C1065 C1084 1.368 . S
C1065 H1089 0.949 . S
H1066 C1070 0.949 . S
C1067 C1068 1.349 . S
C1067 C1069 1.327 . S
C1067 H1090 0.950 . S
C1068 C1067 1.349 . S
C1068 C1080 1.349 . S
C1069 C1067 1.327 . S
C1069 C1085 1.429 . S
C1069 H1091 0.950 . S
C1070 H1066 0.949 . S
C1070 C1078 1.574 . S
C1070 C1086 1.368 . S
H1071 C1079 0.950 . S
H1072 C1077 0.950 . S
H1073 C1078 0.949 . S
H1074 C1080 0.950 . S
H1075 C1081 0.950 . S
H1076 C1082 0.949 . S
C1077 H1072 0.950 . S
C1077 C1079 1.327 . S
C1077 C1083 1.429 . S
C1078 C1070 1.574 . S
C1078 H1073 0.949 . S
C1078 C1084 1.368 . S
C1079 C1063 1.349 . S
C1079 H1071 0.950 . S
C1079 C1077 1.327 . S
C1080 C1068 1.349 . S
C1080 H1074 0.950 . S
C1080 C1081 1.327 . S
C1081 H1075 0.950 . S
C1081 C1080 1.327 . S
C1081 C1085 1.429 . S
C1082 C1065 1.574 . S
C1082 H1076 0.949 . S
C1082 C1086 1.368 . S
C1083 C1064 1.429 . S
C1083 C1077 1.429 . S
C1083 C1084 1.523 . S
C1084 C1065 1.368 . S
C1084 C1078 1.368 . S
C1084 C1083 1.523 . S
C1085 C1069 1.429 . S
C1085 C1081 1.429 . S
C1085 C1086 1.523 . S
C1086 C1070 1.368 . S
C1086 C1082 1.368 . S
C1086 C1085 1.523 . S
H1087 C1062 0.950 . S
H1088 C1064 0.950 . S
H1089 C1065 0.949 . S
H1090 C1067 0.950 . S
H1091 C1069 0.950 . S
C1092 C1093 1.349 . S
C1092 C1094 1.327 . S
C1092 H1117 0.950 . S
C1093 C1092 1.349 . S
C1093 C1109 1.349 . S
C1094 C1092 1.327 . S
C1094 C1113 1.429 . S
C1094 H1118 0.950 . S
C1095 C1112 1.574 . S
C1095 C1114 1.368 . S
C1095 H1119 0.949 . S
H1096 C1100 0.949 . S
C1097 C1098 1.349 . S
C1097 C1099 1.327 . S
C1097 H1120 0.950 . S
C1098 C1097 1.349 . S
C1098 C1110 1.349 . S
C1099 C1097 1.327 . S
C1099 C1115 1.429 . S
C1099 H1121 0.950 . S
C1100 H1096 0.949 . S
C1100 C1108 1.574 . S
C1100 C1116 1.368 . S
H1101 C1109 0.950 . S
H1102 C1107 0.950 . S
H1103 C1108 0.949 . S
H1104 C1110 0.950 . S
H1105 C1111 0.950 . S
H1106 C1112 0.949 . S
C1107 H1102 0.950 . S
C1107 C1109 1.327 . S
C1107 C1113 1.429 . S
C1108 C1100 1.574 . S
C1108 H1103 0.949 . S
C1108 C1114 1.368 . S
C1109 C1093 1.349 . S
C1109 H1101 0.950 . S
C1109 C1107 1.327 . S
C1110 C1098 1.349 . S
C1110 H1104 0.950 . S
C1110 C1111 1.327 . S
C1111 H1105 0.950 . S
C1111 C1110 1.327 . S
C1111 C1115 1.429 . S
C1112 C1095 1.574 . S
C1112 H1106 0.949 . S
C1112 C1116 1.368 . S
C1113 C1094 1.429 . S
C1113 C1107 1.429 . S
C1113 C1114 1.523 . S
C1114 C1095 1.368 . S
C1114 C1108 1.368 . S
C1114 C1113 1.523 . S
C1115 C1099 1.429 . S
C1115 C1111 1.429 . S
C1115 C1116 1.523 . S
C1116 C1100 1.368 . S
C1116 C1112 1.368 . S
C1116 C1115 1.523 . S
H1117 C1092 0.950 . S
H1118 C1094 0.950 . S
H1119 C1095 0.949 . S
H1120 C1097 0.950 . S
H1121 C1099 0.950 . S
C1122 C1123 1.349 . S
C1122 C1124 1.327 . S
C1122 H1147 0.950 . S
C1123 C1122 1.349 . S
C1123 C1139 1.349 . S
C1124 C1122 1.327 . S
C1124 C1143 1.429 . S
C1124 H1148 0.950 . S
C1125 C1142 1.574 . S
C1125 C1144 1.368 . S
C1125 H1149 0.949 . S
H1126 C1130 0.949 . S
C1127 C1128 1.349 . S
C1127 C1129 1.327 . S
C1127 H1150 0.950 . S
C1128 C1127 1.349 . S
C1128 C1140 1.349 . S
C1129 C1127 1.327 . S
C1129 C1145 1.429 . S
C1129 H1151 0.950 . S
C1130 H1126 0.949 . S
C1130 C1138 1.574 . S
C1130 C1146 1.368 . S
H1131 C1139 0.950 . S
H1132 C1137 0.950 . S
H1133 C1138 0.949 . S
H1134 C1140 0.950 . S
H1135 C1141 0.950 . S
H1136 C1142 0.949 . S
C1137 H1132 0.950 . S
C1137 C1139 1.327 . S
C1137 C1143 1.429 . S
C1138 C1130 1.574 . S
C1138 H1133 0.949 . S
C1138 C1144 1.368 . S
C1139 C1123 1.349 . S
C1139 H1131 0.950 . S
C1139 C1137 1.327 . S
C1140 C1128 1.349 . S
C1140 H1134 0.950 . S
C1140 C1141 1.327 . S
C1141 H1135 0.950 . S
C1141 C1140 1.327 . S
C1141 C1145 1.429 . S
C1142 C1125 1.574 . S
C1142 H1136 0.949 . S
C1142 C1146 1.368 . S
C1143 C1124 1.429 . S
C1143 C1137 1.429 . S
C1143 C1144 1.523 . S
C1144 C1125 1.368 . S
C1144 C1138 1.368 . S
C1144 C1143 1.523 . S
C1145 C1129 1.429 . S
C1145 C1141 1.429 . S
C1145 C1146 1.523 . S
C1146 C1130 1.368 . S
C1146 C1142 1.368 . S
C1146 C1145 1.523 . S
H1147 C1122 0.950 . S
H1148 C1124 0.950 . S
H1149 C1125 0.949 . S
H1150 C1127 0.950 . S
H1151 C1129 0.950 . S
C1152 C1153 1.349 . S
C1152 C1154 1.327 . S
C1152 H1177 0.950 . S
C1153 C1152 1.349 . S
C1153 C1169 1.349 . S
C1154 C1152 1.327 . S
C1154 C1173 1.429 . S
C1154 H1178 0.950 . S
C1155 C1172 1.574 . S
C1155 C1174 1.368 . S
C1155 H1179 0.949 . S
H1156 C1160 0.949 . S
C1157 C1158 1.349 . S
C1157 C1159 1.327 . S
C1157 H1180 0.950 . S
C1158 C1157 1.349 . S
C1158 C1170 1.349 . S
C1159 C1157 1.327 . S
C1159 C1175 1.429 . S
C1159 H1181 0.950 . S
C1160 H1156 0.949 . S
C1160 C1168 1.574 . S
C1160 C1176 1.368 . S
H1161 C1169 0.950 . S
H1162 C1167 0.950 . S
H1163 C1168 0.949 . S
H1164 C1170 0.950 . S
H1165 C1171 0.950 . S
H1166 C1172 0.949 . S
C1167 H1162 0.950 . S
C1167 C1169 1.327 . S
C1167 C1173 1.429 . S
C1168 C1160 1.574 . S
C1168 H1163 0.949 . S
C1168 C1174 1.368 . S
C1169 C1153 1.349 . S
C1169 H1161 0.950 . S
C1169 C1167 1.327 . S
C1170 C1158 1.349 . S
C1170 H1164 0.950 . S
C1170 C1171 1.327 . S
C1171 H1165 0.950 . S
C1171 C1170 1.327 . S
C1171 C1175 1.429 . S
C1172 C1155 1.574 . S
C1172 H1166 0.949 . S
C1172 C1176 1.368 . S
C1173 C1154 1.429 . S
C1173 C1167 1.429 . S
C1173 C1174 1.523 . S
C1174 C1155 1.368 . S
C1174 C1168 1.368 . S
C1174 C1173 1.523 . S
C1175 C1159 1.429 . S
C1175 C1171 1.429 . S
C1175 C1176 1.523 . S
C1176 C1160 1.368 . S
C1176 C1172 1.368 . S
C1176 C1175 1.523 . S
H1177 C1152 0.950 . S
H1178 C1154 0.950 . S
H1179 C1155 0.949 . S
H1180 C1157 0.950 . S
H1181 C1159 0.950 . S
C1182 C1183 1.349 . S
C1182 C1184 1.327 . S
C1182 H1207 0.950 . S
C1183 C1182 1.349 . S
C1183 C1199 1.349 . S
C1184 C1182 1.327 . S
C1184 C1203 1.429 . S
C1184 H1208 0.950 . S
C1185 C1202 1.574 . S
C1185 C1204 1.368 . S
C1185 H1209 0.949 . S
H1186 C1190 0.949 . S
C1187 C1188 1.349 . S
C1187 C1189 1.327 . S
C1187 H1210 0.950 . S
C1188 C1187 1.349 . S
C1188 C1200 1.349 . S
C1189 C1187 1.327 . S
C1189 C1205 1.429 . S
C1189 H1211 0.950 . S
C1190 H1186 0.949 . S
C1190 C1198 1.574 . S
C1190 C1206 1.368 . S
H1191 C1199 0.950 . S
H1192 C1197 0.950 . S
H1193 C1198 0.949 . S
H1194 C1200 0.950 . S
H1195 C1201 0.950 . S
H1196 C1202 0.949 . S
C1197 H1192 0.950 . S
C1197 C1199 1.327 . S
C1197 C1203 1.429 . S
C1198 C1190 1.574 . S
C1198 H1193 0.949 . S
C1198 C1204 1.368 . S
C1199 C1183 1.349 . S
C1199 H1191 0.950 . S
C1199 C1197 1.327 . S
C1200 C1188 1.349 . S
C1200 H1194 0.950 . S
C1200 C1201 1.327 . S
C1201 H1195 0.950 . S
C1201 C1200 1.327 . S
C1201 C1205 1.429 . S
C1202 C1185 1.574 . S
C1202 H1196 0.949 . S
C1202 C1206 1.368 . S
C1203 C1184 1.429 . S
C1203 C1197 1.429 . S
C1203 C1204 1.523 . S
C1204 C1185 1.368 . S
C1204 C1198 1.368 . S
C1204 C1203 1.523 . S
C1205 C1189 1.429 . S
C1205 C1201 1.429 . S
C1205 C1206 1.523 . S
C1206 C1190 1.368 . S
C1206 C1202 1.368 . S
C1206 C1205 1.523 . S
H1207 C1182 0.950 . S
H1208 C1184 0.950 . S
H1209 C1185 0.949 . S
H1210 C1187 0.950 . S
H1211 C1189 0.950 . S
C1212 C1213 1.349 . S
C1212 C1214 1.327 . S
C1212 H1237 0.950 . S
C1213 C1212 1.349 . S
C1213 C1229 1.349 . S
C1214 C1212 1.327 . S
C1214 C1233 1.429 . S
C1214 H1238 0.950 . S
C1215 C1232 1.574 . S
C1215 C1234 1.368 . S
C1215 H1239 0.949 . S
H1216 C1220 0.949 . S
C1217 C1218 1.349 . S
C1217 C1219 1.327 . S
C1217 H1240 0.950 . S
C1218 C1217 1.349 . S
C1218 C1230 1.349 . S
C1219 C1217 1.327 . S
C1219 C1235 1.429 . S
C1219 H1241 0.950 . S
C1220 H1216 0.949 . S
C1220 C1228 1.574 . S
C1220 C1236 1.368 . S
H1221 C1229 0.950 . S
H1222 C1227 0.950 . S
H1223 C1228 0.949 . S
H1224 C1230 0.950 . S
H1225 C1231 0.950 . S
H1226 C1232 0.949 . S
C1227 H1222 0.950 . S
C1227 C1229 1.327 . S
C1227 C1233 1.429 . S
C1228 C1220 1.574 . S
C1228 H1223 0.949 . S
C1228 C1234 1.368 . S
C1229 C1213 1.349 . S
C1229 H1221 0.950 . S
C1229 C1227 1.327 . S
C1230 C1218 1.349 . S
C1230 H1224 0.950 . S
C1230 C1231 1.327 . S
C1231 H1225 0.950 . S
C1231 C1230 1.327 . S
C1231 C1235 1.429 . S
C1232 C1215 1.574 . S
C1232 H1226 0.949 . S
C1232 C1236 1.368 . S
C1233 C1214 1.429 . S
C1233 C1227 1.429 . S
C1233 C1234 1.523 . S
C1234 C1215 1.368 . S
C1234 C1228 1.368 . S
C1234 C1233 1.523 . S
C1235 C1219 1.429 . S
C1235 C1231 1.429 . S
C1235 C1236 1.523 . S
C1236 C1220 1.368 . S
C1236 C1232 1.368 . S
C1236 C1235 1.523 . S
H1237 C1212 0.950 . S
H1238 C1214 0.950 . S
H1239 C1215 0.949 . S
H1240 C1217 0.950 . S
H1241 C1219 0.950 . S
C1242 C1243 1.349 . S
C1242 C1244 1.327 . S
C1242 H1267 0.950 . S
C1243 C1242 1.349 . S
C1243 C1259 1.349 . S
C1244 C1242 1.327 . S
C1244 C1263 1.429 . S
C1244 H1268 0.950 . S
C1245 C1262 1.574 . S
C1245 C1264 1.368 . S
C1245 H1269 0.949 . S
H1246 C1250 0.949 . S
C1247 C1248 1.349 . S
C1247 C1249 1.327 . S
C1247 H1270 0.950 . S
C1248 C1247 1.349 . S
C1248 C1260 1.349 . S
C1249 C1247 1.327 . S
C1249 C1265 1.429 . S
C1249 H1271 0.950 . S
C1250 H1246 0.949 . S
C1250 C1258 1.574 . S
C1250 C1266 1.368 . S
H1251 C1259 0.950 . S
H1252 C1257 0.950 . S
H1253 C1258 0.949 . S
H1254 C1260 0.950 . S
H1255 C1261 0.950 . S
H1256 C1262 0.949 . S
C1257 H1252 0.950 . S
C1257 C1259 1.327 . S
C1257 C1263 1.429 . S
C1258 C1250 1.574 . S
C1258 H1253 0.949 . S
C1258 C1264 1.368 . S
C1259 C1243 1.349 . S
C1259 H1251 0.950 . S
C1259 C1257 1.327 . S
C1260 C1248 1.349 . S
C1260 H1254 0.950 . S
C1260 C1261 1.327 . S
C1261 H1255 0.950 . S
C1261 C1260 1.327 . S
C1261 C1265 1.429 . S
C1262 C1245 1.574 . S
C1262 H1256 0.949 . S
C1262 C1266 1.368 . S
C1263 C1244 1.429 . S
C1263 C1257 1.429 . S
C1263 C1264 1.523 . S
C1264 C1245 1.368 . S
C1264 C1258 1.368 . S
C1264 C1263 1.523 . S
C1265 C1249 1.429 . S
C1265 C1261 1.429 . S
C1265 C1266 1.523 . S
C1266 C1250 1.368 . S
C1266 C1262 1.368 . S
C1266 C1265 1.523 . S
H1267 C1242 0.950 . S
H1268 C1244 0.950 . S
H1269 C1245 0.949 . S
H1270 C1247 0.950 . S
H1271 C1249 0.950 . S
C1272 C1273 1.349 . S
C1272 C1274 1.327 . S
C1272 H1297 0.950 . S
C1273 C1272 1.349 . S
C1273 C1289 1.349 . S
C1274 C1272 1.327 . S
C1274 C1293 1.429 . S
C1274 H1298 0.950 . S
C1275 C1292 1.574 . S
C1275 C1294 1.368 . S
C1275 H1299 0.949 . S
H1276 C1280 0.949 . S
C1277 C1278 1.349 . S
C1277 C1279 1.327 . S
C1277 H1300 0.950 . S
C1278 C1277 1.349 . S
C1278 C1290 1.349 . S
C1279 C1277 1.327 . S
C1279 C1295 1.429 . S
C1279 H1301 0.950 . S
C1280 H1276 0.949 . S
C1280 C1288 1.574 . S
C1280 C1296 1.368 . S
H1281 C1289 0.950 . S
H1282 C1287 0.950 . S
H1283 C1288 0.949 . S
H1284 C1290 0.950 . S
H1285 C1291 0.950 . S
H1286 C1292 0.949 . S
C1287 H1282 0.950 . S
C1287 C1289 1.327 . S
C1287 C1293 1.429 . S
C1288 C1280 1.574 . S
C1288 H1283 0.949 . S
C1288 C1294 1.368 . S
C1289 C1273 1.349 . S
C1289 H1281 0.950 . S
C1289 C1287 1.327 . S
C1290 C1278 1.349 . S
C1290 H1284 0.950 . S
C1290 C1291 1.327 . S
C1291 H1285 0.950 . S
C1291 C1290 1.327 . S
C1291 C1295 1.429 . S
C1292 C1275 1.574 . S
C1292 H1286 0.949 . S
C1292 C1296 1.368 . S
C1293 C1274 1.429 . S
C1293 C1287 1.429 . S
C1293 C1294 1.523 . S
C1294 C1275 1.368 . S
C1294 C1288 1.368 . S
C1294 C1293 1.523 . S
C1295 C1279 1.429 . S
C1295 C1291 1.429 . S
C1295 C1296 1.523 . S
C1296 C1280 1.368 . S
C1296 C1292 1.368 . S
C1296 C1295 1.523 . S
H1297 C1272 0.950 . S
H1298 C1274 0.950 . S
H1299 C1275 0.949 . S
H1300 C1277 0.950 . S
H1301 C1279 0.950 . S
C1302 C1303 1.349 . S
C1302 C1304 1.327 . S
C1302 H1327 0.950 . S
C1303 C1302 1.349 . S
C1303 C1319 1.349 . S
C1304 C1302 1.327 . S
C1304 C1323 1.429 . S
C1304 H1328 0.950 . S
C1305 C1322 1.574 . S
C1305 C1324 1.368 . S
C1305 H1329 0.949 . S
H1306 C1310 0.949 . S
C1307 C1308 1.349 . S
C1307 C1309 1.327 . S
C1307 H1330 0.950 . S
C1308 C1307 1.349 . S
C1308 C1320 1.349 . S
C1309 C1307 1.327 . S
C1309 C1325 1.429 . S
C1309 H1331 0.950 . S
C1310 H1306 0.949 . S
C1310 C1318 1.574 . S
C1310 C1326 1.368 . S
H1311 C1319 0.950 . S
H1312 C1317 0.950 . S
H1313 C1318 0.949 . S
H1314 C1320 0.950 . S
H1315 C1321 0.950 . S
H1316 C1322 0.949 . S
C1317 H1312 0.950 . S
C1317 C1319 1.327 . S
C1317 C1323 1.429 . S
C1318 C1310 1.574 . S
C1318 H1313 0.949 . S
C1318 C1324 1.368 . S
C1319 C1303 1.349 . S
C1319 H1311 0.950 . S
C1319 C1317 1.327 . S
C1320 C1308 1.349 . S
C1320 H1314 0.950 . S
C1320 C1321 1.327 . S
C1321 H1315 0.950 . S
C1321 C1320 1.327 . S
C1321 C1325 1.429 . S
C1322 C1305 1.574 . S
C1322 H1316 0.949 . S
C1322 C1326 1.368 . S
C1323 C1304 1.429 . S
C1323 C1317 1.429 . S
C1323 C1324 1.523 . S
C1324 C1305 1.368 . S
C1324 C1318 1.368 . S
C1324 C1323 1.523 . S
C1325 C1309 1.429 . S
C1325 C1321 1.429 . S
C1325 C1326 1.523 . S
C1326 C1310 1.368 . S
C1326 C1322 1.368 . S
C1326 C1325 1.523 . S
H1327 C1302 0.950 . S
H1328 C1304 0.950 . S
H1329 C1305 0.949 . S
H1330 C1307 0.950 . S
H1331 C1309 0.950 . S
C1332 C1333 1.349 . S
C1332 C1334 1.327 . S
C1332 H1357 0.950 . S
C1333 C1332 1.349 . S
C1333 C1349 1.349 . S
C1334 C1332 1.327 . S
C1334 C1353 1.429 . S
C1334 H1358 0.950 . S
C1335 C1352 1.574 . S
C1335 C1354 1.368 . S
C1335 H1359 0.949 . S
H1336 C1340 0.949 . S
C1337 C1338 1.349 . S
C1337 C1339 1.327 . S
C1337 H1360 0.950 . S
C1338 C1337 1.349 . S
C1338 C1350 1.349 . S
C1339 C1337 1.327 . S
C1339 C1355 1.429 . S
C1339 H1361 0.950 . S
C1340 H1336 0.949 . S
C1340 C1348 1.574 . S
C1340 C1356 1.368 . S
H1341 C1349 0.950 . S
H1342 C1347 0.950 . S
H1343 C1348 0.949 . S
H1344 C1350 0.950 . S
H1345 C1351 0.950 . S
H1346 C1352 0.949 . S
C1347 H1342 0.950 . S
C1347 C1349 1.327 . S
C1347 C1353 1.429 . S
C1348 C1340 1.574 . S
C1348 H1343 0.949 . S
C1348 C1354 1.368 . S
C1349 C1333 1.349 . S
C1349 H1341 0.950 . S
C1349 C1347 1.327 . S
C1350 C1338 1.349 . S
C1350 H1344 0.950 . S
C1350 C1351 1.327 . S
C1351 H1345 0.950 . S
C1351 C1350 1.327 . S
C1351 C1355 1.429 . S
C1352 C1335 1.574 . S
C1352 H1346 0.949 . S
C1352 C1356 1.368 . S
C1353 C1334 1.429 . S
C1353 C1347 1.429 . S
C1353 C1354 1.523 . S
C1354 C1335 1.368 . S
C1354 C1348 1.368 . S
C1354 C1353 1.523 . S
C1355 C1339 1.429 . S
C1355 C1351 1.429 . S
C1355 C1356 1.523 . S
C1356 C1340 1.368 . S
C1356 C1352 1.368 . S
C1356 C1355 1.523 . S
H1357 C1332 0.950 . S
H1358 C1334 0.950 . S
H1359 C1335 0.949 . S
H1360 C1337 0.950 . S
H1361 C1339 0.950 . S
C1362 C1363 1.349 . S
C1362 C1364 1.327 . S
C1362 H1387 0.950 . S
C1363 C1362 1.349 . S
C1363 C1379 1.349 . S
C1364 C1362 1.327 . S
C1364 C1383 1.429 . S
C1364 H1388 0.950 . S
C1365 C1382 1.574 . S
C1365 C1384 1.368 . S
C1365 H1389 0.949 . S
H1366 C1370 0.949 . S
C1367 C1368 1.349 . S
C1367 C1369 1.327 . S
C1367 H1390 0.950 . S
C1368 C1367 1.349 . S
C1368 C1380 1.349 . S
C1369 C1367 1.327 . S
C1369 C1385 1.429 . S
C1369 H1391 0.950 . S
C1370 H1366 0.949 . S
C1370 C1378 1.574 . S
C1370 C1386 1.368 . S
H1371 C1379 0.950 . S
H1372 C1377 0.950 . S
H1373 C1378 0.949 . S
H1374 C1380 0.950 . S
H1375 C1381 0.950 . S
H1376 C1382 0.949 . S
C1377 H1372 0.950 . S
C1377 C1379 1.327 . S
C1377 C1383 1.429 . S
C1378 C1370 1.574 . S
C1378 H1373 0.949 . S
C1378 C1384 1.368 . S
C1379 C1363 1.349 . S
C1379 H1371 0.950 . S
C1379 C1377 1.327 . S
C1380 C1368 1.349 . S
C1380 H1374 0.950 . S
C1380 C1381 1.327 . S
C1381 H1375 0.950 . S
C1381 C1380 1.327 . S
C1381 C1385 1.429 . S
C1382 C1365 1.574 . S
C1382 H1376 0.949 . S
C1382 C1386 1.368 . S
C1383 C1364 1.429 . S
C1383 C1377 1.429 . S
C1383 C1384 1.523 . S
C1384 C1365 1.368 . S
C1384 C1378 1.368 . S
C1384 C1383 1.523 . S
C1385 C1369 1.429 . S
C1385 C1381 1.429 . S
C1385 C1386 1.523 . S
C1386 C1370 1.368 . S
C1386 C1382 1.368 . S
C1386 C1385 1.523 . S
H1387 C1362 0.950 . S
H1388 C1364 0.950 . S
H1389 C1365 0.949 . S
H1390 C1367 0.950 . S
H1391 C1369 0.950 . S
C1392 C1393 1.349 . S
C1392 C1394 1.327 . S
C1392 H1417 0.950 . S
C1393 C1392 1.349 . S
C1393 C1409 1.349 . S
C1394 C1392 1.327 . S
C1394 C1413 1.429 . S
C1394 H1418 0.950 . S
C1395 C1412 1.571 1_655 S
C1395 C1414 1.368 . S
C1395 H1419 0.949 . S
H1396 C1400 0.949 . S
C1397 C1398 1.349 . S
C1397 C1399 1.327 . S
C1397 H1420 0.950 . S
C1398 C1397 1.349 . S
C1398 C1410 1.349 . S
C1399 C1397 1.327 . S
C1399 C1415 1.429 . S
C1399 H1421 0.950 . S
C1400 H1396 0.949 . S
C1400 C1408 1.571 1_455 S
C1400 C1416 1.368 . S
H1401 C1409 0.950 . S
H1402 C1407 0.950 . S
H1403 C1408 0.949 . S
H1404 C1410 0.950 . S
H1405 C1411 0.950 . S
H1406 C1412 0.949 . S
C1407 H1402 0.950 . S
C1407 C1409 1.327 . S
C1407 C1413 1.429 . S
C1408 C1400 1.571 1_655 S
C1408 H1403 0.949 . S
C1408 C1414 1.371 . S
C1409 C1393 1.349 . S
C1409 H1401 0.950 . S
C1409 C1407 1.327 . S
C1410 C1398 1.349 . S
C1410 H1404 0.950 . S
C1410 C1411 1.327 . S
C1411 H1405 0.950 . S
C1411 C1410 1.327 . S
C1411 C1415 1.429 . S
C1412 C1395 1.571 1_455 S
C1412 H1406 0.949 . S
C1412 C1416 1.371 . S
C1413 C1394 1.429 . S
C1413 C1407 1.429 . S
C1413 C1414 1.523 . S
C1414 C1395 1.368 . S
C1414 C1408 1.371 . S
C1414 C1413 1.523 . S
C1415 C1399 1.429 . S
C1415 C1411 1.429 . S
C1415 C1416 1.523 . S
C1416 C1400 1.368 . S
C1416 C1412 1.371 . S
C1416 C1415 1.523 . S
H1417 C1392 0.950 . S
H1418 C1394 0.950 . S
H1419 C1395 0.949 . S
H1420 C1397 0.950 . S
H1421 C1399 0.950 . S
C1422 C1423 1.349 . S
C1422 C1424 1.327 . S
C1422 H1447 0.950 . S
C1423 C1422 1.349 . S
C1423 C1439 1.349 . S
C1424 C1422 1.327 . S
C1424 C1443 1.429 . S
C1424 H1448 0.950 1_565 S
C1425 C1442 1.574 . S
C1425 C1444 1.368 . S
C1425 H1449 0.949 . S
H1426 C1430 0.949 . S
C1427 C1428 1.349 . S
C1427 C1429 1.327 . S
C1427 H1450 0.950 . S
C1428 C1427 1.349 . S
C1428 C1440 1.349 . S
C1429 C1427 1.327 . S
C1429 C1445 1.429 . S
C1429 H1451 0.950 1_545 S
C1430 H1426 0.949 . S
C1430 C1438 1.574 . S
C1430 C1446 1.368 . S
H1431 C1439 0.950 . S
H1432 C1437 0.950 . S
H1433 C1438 0.949 . S
H1434 C1440 0.950 . S
H1435 C1441 0.950 . S
H1436 C1442 0.949 . S
C1437 H1432 0.950 . S
C1437 C1439 1.327 . S
C1437 C1443 1.429 . S
C1438 C1430 1.574 . S
C1438 H1433 0.949 . S
C1438 C1444 1.368 1_545 S
C1439 C1423 1.349 . S
C1439 H1431 0.950 . S
C1439 C1437 1.327 . S
C1440 C1428 1.349 . S
C1440 H1434 0.950 . S
C1440 C1441 1.327 . S
C1441 H1435 0.950 . S
C1441 C1440 1.327 . S
C1441 C1445 1.429 . S
C1442 C1425 1.574 . S
C1442 H1436 0.949 . S
C1442 C1446 1.368 1_565 S
C1443 C1424 1.429 . S
C1443 C1437 1.429 . S
C1443 C1444 1.523 . S
C1444 C1425 1.368 . S
C1444 C1438 1.368 1_565 S
C1444 C1443 1.523 . S
C1445 C1429 1.429 . S
C1445 C1441 1.429 . S
C1445 C1446 1.523 . S
C1446 C1430 1.368 . S
C1446 C1442 1.368 1_545 S
C1446 C1445 1.523 . S
H1447 C1422 0.950 . S
H1448 C1424 0.950 1_545 S
H1449 C1425 0.949 . S
H1450 C1427 0.950 . S
H1451 C1429 0.950 1_565 S
C1452 C1453 1.349 . S
C1452 C1454 1.327 . S
C1452 H1477 0.950 . S
C1453 C1452 1.349 . S
C1453 C1469 1.349 . S
C1454 C1452 1.327 . S
C1454 C1473 1.429 . S
C1454 H1478 0.950 . S
C1455 C1472 1.574 . S
C1455 C1474 1.368 . S
C1455 H1479 0.949 . S
H1456 C1460 0.949 . S
C1457 C1458 1.349 . S
C1457 C1459 1.327 . S
C1457 H1480 0.950 . S
C1458 C1457 1.349 . S
C1458 C1470 1.349 . S
C1459 C1457 1.327 . S
C1459 C1475 1.429 . S
C1459 H1481 0.950 . S
C1460 H1456 0.949 . S
C1460 C1468 1.574 . S
C1460 C1476 1.368 . S
H1461 C1469 0.950 . S
H1462 C1467 0.950 . S
H1463 C1468 0.949 . S
H1464 C1470 0.950 . S
H1465 C1471 0.950 . S
H1466 C1472 0.949 . S
C1467 H1462 0.950 . S
C1467 C1469 1.327 . S
C1467 C1473 1.429 . S
C1468 C1460 1.574 . S
C1468 H1463 0.949 . S
C1468 C1474 1.368 1_455 S
C1469 C1453 1.349 . S
C1469 H1461 0.950 . S
C1469 C1467 1.327 . S
C1470 C1458 1.349 . S
C1470 H1464 0.950 . S
C1470 C1471 1.327 . S
C1471 H1465 0.950 . S
C1471 C1470 1.327 . S
C1471 C1475 1.429 . S
C1472 C1455 1.574 . S
C1472 H1466 0.949 . S
C1472 C1476 1.368 1_655 S
C1473 C1454 1.429 . S
C1473 C1467 1.429 . S
C1473 C1474 1.523 . S
C1474 C1455 1.368 . S
C1474 C1468 1.368 1_655 S
C1474 C1473 1.523 . S
C1475 C1459 1.429 . S
C1475 C1471 1.429 . S
C1475 C1476 1.523 . S
C1476 C1460 1.368 . S
C1476 C1472 1.368 1_455 S
C1476 C1475 1.523 . S
H1477 C1452 0.950 . S
H1478 C1454 0.950 . S
H1479 C1455 0.949 . S
H1480 C1457 0.950 . S
H1481 C1459 0.950 . S
C1482 C1483 1.349 . S
C1482 C1484 1.327 . S
C1482 H1507 0.950 . S
C1483 C1482 1.349 . S
C1483 C1499 1.349 . S
C1484 C1482 1.327 . S
C1484 C1503 1.429 . S
C1484 H1508 0.950 1_545 S
C1485 C1502 1.574 . S
C1485 C1504 1.368 . S
C1485 H1509 0.949 . S
H1486 C1490 0.949 . S
C1487 C1488 1.349 . S
C1487 C1489 1.327 . S
C1487 H1510 0.950 . S
C1488 C1487 1.349 . S
C1488 C1500 1.349 . S
C1489 C1487 1.327 . S
C1489 C1505 1.429 . S
C1489 H1511 0.950 1_565 S
C1490 H1486 0.949 . S
C1490 C1498 1.574 . S
C1490 C1506 1.368 . S
H1491 C1499 0.950 . S
H1492 C1497 0.950 . S
H1493 C1498 0.949 . S
H1494 C1500 0.950 . S
H1495 C1501 0.950 . S
H1496 C1502 0.949 . S
C1497 H1492 0.950 . S
C1497 C1499 1.327 . S
C1497 C1503 1.429 . S
C1498 C1490 1.574 . S
C1498 H1493 0.949 . S
C1498 C1504 1.368 1_565 S
C1499 C1483 1.349 . S
C1499 H1491 0.950 . S
C1499 C1497 1.327 . S
C1500 C1488 1.349 . S
C1500 H1494 0.950 . S
C1500 C1501 1.327 . S
C1501 H1495 0.950 . S
C1501 C1500 1.327 . S
C1501 C1505 1.429 . S
C1502 C1485 1.574 . S
C1502 H1496 0.949 . S
C1502 C1506 1.368 1_545 S
C1503 C1484 1.429 . S
C1503 C1497 1.429 . S
C1503 C1504 1.523 . S
C1504 C1485 1.368 . S
C1504 C1498 1.368 1_545 S
C1504 C1503 1.523 . S
C1505 C1489 1.429 . S
C1505 C1501 1.429 . S
C1505 C1506 1.523 . S
C1506 C1490 1.368 . S
C1506 C1502 1.368 1_565 S
C1506 C1505 1.523 . S
H1507 C1482 0.950 . S
H1508 C1484 0.950 1_565 S
H1509 C1485 0.949 . S
H1510 C1487 0.950 . S
H1511 C1489 0.950 1_545 S
C1512 C1513 1.349 . S
C1512 C1514 1.327 . S
C1512 H1537 0.950 . S
C1513 C1512 1.349 . S
C1513 C1529 1.349 . S
C1514 C1512 1.327 . S
C1514 C1533 1.429 . S
C1514 H1538 0.950 . S
C1515 C1532 1.607 . S
C1515 C1534 1.335 1_655 S
C1515 H1539 0.955 . S
H1516 C1520 0.955 . S
C1517 C1518 1.349 . S
C1517 C1519 1.327 . S
C1517 H1540 0.950 . S
C1518 C1517 1.349 . S
C1518 C1530 1.349 . S
C1519 C1517 1.327 . S
C1519 C1535 1.429 . S
C1519 H1541 0.950 . S
C1520 H1516 0.955 . S
C1520 C1528 1.607 . S
C1520 C1536 1.335 1_455 S
H1521 C1529 0.950 . S
H1522 C1527 0.950 . S
H1523 C1528 0.949 . S
H1524 C1530 0.950 . S
H1525 C1531 0.950 . S
H1526 C1532 0.949 . S
C1527 H1522 0.950 . S
C1527 C1529 1.327 . S
C1527 C1533 1.429 . S
C1528 C1520 1.607 . S
C1528 H1523 0.949 . S
C1528 C1534 1.368 . S
C1529 C1513 1.349 . S
C1529 H1521 0.950 . S
C1529 C1527 1.327 . S
C1530 C1518 1.349 . S
C1530 H1524 0.950 . S
C1530 C1531 1.327 . S
C1531 H1525 0.950 . S
C1531 C1530 1.327 . S
C1531 C1535 1.429 . S
C1532 C1515 1.607 . S
C1532 H1526 0.949 . S
C1532 C1536 1.368 . S
C1533 C1514 1.429 . S
C1533 C1527 1.429 . S
C1533 C1534 1.523 . S
C1534 C1515 1.335 1_455 S
C1534 C1528 1.368 . S
C1534 C1533 1.523 . S
C1535 C1519 1.429 . S
C1535 C1531 1.429 . S
C1535 C1536 1.523 . S
C1536 C1520 1.335 1_655 S
C1536 C1532 1.368 . S
C1536 C1535 1.523 . S
H1537 C1512 0.950 . S
H1538 C1514 0.950 . S
H1539 C1515 0.955 . S
H1540 C1517 0.950 . S
H1541 C1519 0.950 . S
C1542 C1543 1.349 . S
C1542 C1544 1.327 . S
C1542 H1567 0.950 . S
C1543 C1542 1.349 . S
C1543 C1559 1.349 . S
C1544 C1542 1.327 . S
C1544 C1563 1.429 . S
C1544 H1568 0.950 1_565 S
C1545 C1562 1.574 . S
C1545 C1564 1.368 . S
C1545 H1569 0.949 . S
H1546 C1550 0.949 . S
C1547 C1548 1.349 . S
C1547 C1549 1.327 . S
C1547 H1570 0.950 . S
C1548 C1547 1.349 . S
C1548 C1560 1.349 . S
C1549 C1547 1.327 . S
C1549 C1565 1.429 . S
C1549 H1571 0.950 1_545 S
C1550 H1546 0.949 . S
C1550 C1558 1.574 . S
C1550 C1566 1.368 . S
H1551 C1559 0.950 . S
H1552 C1557 0.950 . S
H1553 C1558 0.949 . S
H1554 C1560 0.950 . S
H1555 C1561 0.950 . S
H1556 C1562 0.949 . S
C1557 H1552 0.950 . S
C1557 C1559 1.327 . S
C1557 C1563 1.429 . S
C1558 C1550 1.574 . S
C1558 H1553 0.949 . S
C1558 C1564 1.368 1_545 S
C1559 C1543 1.349 . S
C1559 H1551 0.950 . S
C1559 C1557 1.327 . S
C1560 C1548 1.349 . S
C1560 H1554 0.950 . S
C1560 C1561 1.327 . S
C1561 H1555 0.950 . S
C1561 C1560 1.327 . S
C1561 C1565 1.429 . S
C1562 C1545 1.574 . S
C1562 H1556 0.949 . S
C1562 C1566 1.368 1_565 S
C1563 C1544 1.429 . S
C1563 C1557 1.429 . S
C1563 C1564 1.523 . S
C1564 C1545 1.368 . S
C1564 C1558 1.368 1_565 S
C1564 C1563 1.523 . S
C1565 C1549 1.429 . S
C1565 C1561 1.429 . S
C1565 C1566 1.523 . S
C1566 C1550 1.368 . S
C1566 C1562 1.368 1_545 S
C1566 C1565 1.523 . S
H1567 C1542 0.950 . S
H1568 C1544 0.950 1_545 S
H1569 C1545 0.949 . S
H1570 C1547 0.950 . S
H1571 C1549 0.950 1_565 S
C1572 C1573 1.349 . S
C1572 C1574 1.327 . S
C1572 H1597 0.950 . S
C1573 C1572 1.349 . S
C1573 C1589 1.349 . S
C1574 C1572 1.327 . S
C1574 C1593 1.429 . S
C1574 H1598 0.950 . S
C1575 C1592 1.574 1_455 S
C1575 C1594 1.368 . S
C1575 H1599 0.949 . S
H1576 C1580 0.949 . S
C1577 C1578 1.349 . S
C1577 C1579 1.327 . S
C1577 H1600 0.950 . S
C1578 C1577 1.349 . S
C1578 C1590 1.349 . S
C1579 C1577 1.327 . S
C1579 C1595 1.429 . S
C1579 H1601 0.950 . S
C1580 H1576 0.949 . S
C1580 C1588 1.574 1_655 S
C1580 C1596 1.368 . S
H1581 C1589 0.950 . S
H1582 C1587 0.950 . S
H1583 C1588 0.949 . S
H1584 C1590 0.950 . S
H1585 C1591 0.950 . S
H1586 C1592 0.949 . S
C1587 H1582 0.950 . S
C1587 C1589 1.327 . S
C1587 C1593 1.429 . S
C1588 C1580 1.574 1_455 S
C1588 H1583 0.949 . S
C1588 C1594 1.368 . S
C1589 C1573 1.349 . S
C1589 H1581 0.950 . S
C1589 C1587 1.327 . S
C1590 C1578 1.349 . S
C1590 H1584 0.950 . S
C1590 C1591 1.327 . S
C1591 H1585 0.950 . S
C1591 C1590 1.327 . S
C1591 C1595 1.429 . S
C1592 C1575 1.574 1_655 S
C1592 H1586 0.949 . S
C1592 C1596 1.368 . S
C1593 C1574 1.429 . S
C1593 C1587 1.429 . S
C1593 C1594 1.523 . S
C1594 C1575 1.368 . S
C1594 C1588 1.368 . S
C1594 C1593 1.523 . S
C1595 C1579 1.429 . S
C1595 C1591 1.429 . S
C1595 C1596 1.523 . S
C1596 C1580 1.368 . S
C1596 C1592 1.368 . S
C1596 C1595 1.523 . S
H1597 C1572 0.950 . S
H1598 C1574 0.950 . S
H1599 C1575 0.949 . S
H1600 C1577 0.950 . S
H1601 C1579 0.950 . S
C1602 C1603 1.349 . S
C1602 C1604 1.327 . S
C1602 H1627 0.950 . S
C1603 C1602 1.349 . S
C1603 C1619 1.349 . S
C1604 C1602 1.327 . S
C1604 C1623 1.429 . S
C1604 H1628 0.950 1_545 S
C1605 C1622 1.574 . S
C1605 C1624 1.368 . S
C1605 H1629 0.949 . S
H1606 C1610 0.949 . S
C1607 C1608 1.349 . S
C1607 C1609 1.327 . S
C1607 H1630 0.950 . S
C1608 C1607 1.349 . S
C1608 C1620 1.349 . S
C1609 C1607 1.327 . S
C1609 C1625 1.429 . S
C1609 H1631 0.950 1_565 S
C1610 H1606 0.949 . S
C1610 C1618 1.574 . S
C1610 C1626 1.368 . S
H1611 C1619 0.950 . S
H1612 C1617 0.950 . S
H1613 C1618 0.949 . S
H1614 C1620 0.950 . S
H1615 C1621 0.950 . S
H1616 C1622 0.949 . S
C1617 H1612 0.950 . S
C1617 C1619 1.327 . S
C1617 C1623 1.429 . S
C1618 C1610 1.574 . S
C1618 H1613 0.949 . S
C1618 C1624 1.368 1_565 S
C1619 C1603 1.349 . S
C1619 H1611 0.950 . S
C1619 C1617 1.327 . S
C1620 C1608 1.349 . S
C1620 H1614 0.950 . S
C1620 C1621 1.327 . S
C1621 H1615 0.950 . S
C1621 C1620 1.327 . S
C1621 C1625 1.429 . S
C1622 C1605 1.574 . S
C1622 H1616 0.949 . S
C1622 C1626 1.368 1_545 S
C1623 C1604 1.429 . S
C1623 C1617 1.429 . S
C1623 C1624 1.523 . S
C1624 C1605 1.368 . S
C1624 C1618 1.368 1_545 S
C1624 C1623 1.523 . S
C1625 C1609 1.429 . S
C1625 C1621 1.429 . S
C1625 C1626 1.523 . S
C1626 C1610 1.368 . S
C1626 C1622 1.368 1_565 S
C1626 C1625 1.523 . S
H1627 C1602 0.950 . S
H1628 C1604 0.950 1_565 S
H1629 C1605 0.949 . S
H1630 C1607 0.950 . S
H1631 C1609 0.950 1_545 S
C1632 C1633 1.349 . S
C1632 C1634 1.327 . S
C1632 H1657 0.950 . S
C1633 C1632 1.349 . S
C1633 C1649 1.349 . S
C1634 C1632 1.327 . S
C1634 C1653 1.429 . S
C1634 H1658 0.950 1_556 S
C1635 C1652 1.574 . S
C1635 C1654 1.368 . S
C1635 H1659 0.949 . S
H1636 C1640 0.949 . S
C1637 C1638 1.349 . S
C1637 C1639 1.327 . S
C1637 H1660 0.950 . S
C1638 C1637 1.349 . S
C1638 C1650 1.349 . S
C1639 C1637 1.327 . S
C1639 C1655 1.429 . S
C1639 H1661 0.950 1_554 S
C1640 H1636 0.949 . S
C1640 C1648 1.574 . S
C1640 C1656 1.368 . S
H1641 C1649 0.950 . S
H1642 C1647 0.950 . S
H1643 C1648 0.949 . S
H1644 C1650 0.950 . S
H1645 C1651 0.950 . S
H1646 C1652 0.949 . S
C1647 H1642 0.950 . S
C1647 C1649 1.327 . S
C1647 C1653 1.429 . S
C1648 C1640 1.574 . S
C1648 H1643 0.949 . S
C1648 C1654 1.368 1_554 S
C1649 C1633 1.349 . S
C1649 H1641 0.950 . S
C1649 C1647 1.327 . S
C1650 C1638 1.349 . S
C1650 H1644 0.950 . S
C1650 C1651 1.327 . S
C1651 H1645 0.950 . S
C1651 C1650 1.327 . S
C1651 C1655 1.429 . S
C1652 C1635 1.574 . S
C1652 H1646 0.949 . S
C1652 C1656 1.368 1_556 S
C1653 C1634 1.429 . S
C1653 C1647 1.429 . S
C1653 C1654 1.523 . S
C1654 C1635 1.368 . S
C1654 C1648 1.368 1_556 S
C1654 C1653 1.523 . S
C1655 C1639 1.429 . S
C1655 C1651 1.429 . S
C1655 C1656 1.523 . S
C1656 C1640 1.368 . S
C1656 C1652 1.368 1_554 S
C1656 C1655 1.523 . S
H1657 C1632 0.950 . S
H1658 C1634 0.950 1_554 S
H1659 C1635 0.949 . S
H1660 C1637 0.950 . S
H1661 C1639 0.950 1_556 S
C1662 C1663 1.349 . S
C1662 C1664 1.327 . S
C1662 H1687 0.950 . S
C1663 C1662 1.349 . S
C1663 C1679 1.349 . S
C1664 C1662 1.327 . S
C1664 C1683 1.429 . S
C1664 H1688 0.950 1_554 S
C1665 C1682 1.574 . S
C1665 C1684 1.368 . S
C1665 H1689 0.949 . S
H1666 C1670 0.949 . S
C1667 C1668 1.349 . S
C1667 C1669 1.327 . S
C1667 H1690 0.950 . S
C1668 C1667 1.349 . S
C1668 C1680 1.349 . S
C1669 C1667 1.327 . S
C1669 C1685 1.429 . S
C1669 H1691 0.950 1_556 S
C1670 H1666 0.949 . S
C1670 C1678 1.574 . S
C1670 C1686 1.368 . S
H1671 C1679 0.950 . S
H1672 C1677 0.950 . S
H1673 C1678 0.949 . S
H1674 C1680 0.950 . S
H1675 C1681 0.950 . S
H1676 C1682 0.949 . S
C1677 H1672 0.950 . S
C1677 C1679 1.327 . S
C1677 C1683 1.429 . S
C1678 C1670 1.574 . S
C1678 H1673 0.949 . S
C1678 C1684 1.368 1_556 S
C1679 C1663 1.349 . S
C1679 H1671 0.950 . S
C1679 C1677 1.327 . S
C1680 C1668 1.349 . S
C1680 H1674 0.950 . S
C1680 C1681 1.327 . S
C1681 H1675 0.950 . S
C1681 C1680 1.327 . S
C1681 C1685 1.429 . S
C1682 C1665 1.574 . S
C1682 H1676 0.949 . S
C1682 C1686 1.368 1_554 S
C1683 C1664 1.429 . S
C1683 C1677 1.429 . S
C1683 C1684 1.523 . S
C1684 C1665 1.368 . S
C1684 C1678 1.368 1_554 S
C1684 C1683 1.523 . S
C1685 C1669 1.429 . S
C1685 C1681 1.429 . S
C1685 C1686 1.523 . S
C1686 C1670 1.368 . S
C1686 C1682 1.368 1_556 S
C1686 C1685 1.523 . S
H1687 C1662 0.950 . S
H1688 C1664 0.950 1_556 S
H1689 C1665 0.949 . S
H1690 C1667 0.950 . S
H1691 C1669 0.950 1_554 S
C1692 C1693 1.349 . S
C1692 C1694 1.327 . S
C1692 H1717 0.950 . S
C1693 C1692 1.349 . S
C1693 C1709 1.349 . S
C1694 C1692 1.327 . S
C1694 C1713 1.429 . S
C1694 H1718 0.950 1_554 S
C1695 C1712 1.574 . S
C1695 C1714 1.368 . S
C1695 H1719 0.949 . S
H1696 C1700 0.949 . S
C1697 C1698 1.349 . S
C1697 C1699 1.327 . S
C1697 H1720 0.950 . S
C1698 C1697 1.349 . S
C1698 C1710 1.349 . S
C1699 C1697 1.327 . S
C1699 C1715 1.429 . S
C1699 H1721 0.950 1_556 S
C1700 H1696 0.949 . S
C1700 C1708 1.574 . S
C1700 C1716 1.368 . S
H1701 C1709 0.950 . S
H1702 C1707 0.950 . S
H1703 C1708 0.949 . S
H1704 C1710 0.950 . S
H1705 C1711 0.950 . S
H1706 C1712 0.949 . S
C1707 H1702 0.950 . S
C1707 C1709 1.327 . S
C1707 C1713 1.429 . S
C1708 C1700 1.574 . S
C1708 H1703 0.949 . S
C1708 C1714 1.368 1_556 S
C1709 C1693 1.349 . S
C1709 H1701 0.950 . S
C1709 C1707 1.327 . S
C1710 C1698 1.349 . S
C1710 H1704 0.950 . S
C1710 C1711 1.327 . S
C1711 H1705 0.950 . S
C1711 C1710 1.327 . S
C1711 C1715 1.429 . S
C1712 C1695 1.574 . S
C1712 H1706 0.949 . S
C1712 C1716 1.368 1_554 S
C1713 C1694 1.429 . S
C1713 C1707 1.429 . S
C1713 C1714 1.523 . S
C1714 C1695 1.368 . S
C1714 C1708 1.368 1_554 S
C1714 C1713 1.523 . S
C1715 C1699 1.429 . S
C1715 C1711 1.429 . S
C1715 C1716 1.523 . S
C1716 C1700 1.368 . S
C1716 C1712 1.368 1_556 S
C1716 C1715 1.523 . S
H1717 C1692 0.950 . S
H1718 C1694 0.950 1_556 S
H1719 C1695 0.949 . S
H1720 C1697 0.950 . S
H1721 C1699 0.950 1_554 S
C1722 C1723 1.349 . S
C1722 C1724 1.327 . S
C1722 H1747 0.950 . S
C1723 C1722 1.349 . S
C1723 C1739 1.349 . S
C1724 C1722 1.327 . S
C1724 C1743 1.429 . S
C1724 H1748 0.950 1_556 S
C1725 C1742 1.574 . S
C1725 C1744 1.368 . S
C1725 H1749 0.949 . S
H1726 C1730 0.949 . S
C1727 C1728 1.349 . S
C1727 C1729 1.327 . S
C1727 H1750 0.950 . S
C1728 C1727 1.349 . S
C1728 C1740 1.349 . S
C1729 C1727 1.327 . S
C1729 C1745 1.429 . S
C1729 H1751 0.950 1_554 S
C1730 H1726 0.949 . S
C1730 C1738 1.574 . S
C1730 C1746 1.368 . S
H1731 C1739 0.950 . S
H1732 C1737 0.950 . S
H1733 C1738 0.949 . S
H1734 C1740 0.950 . S
H1735 C1741 0.950 . S
H1736 C1742 0.949 . S
C1737 H1732 0.950 . S
C1737 C1739 1.327 . S
C1737 C1743 1.429 . S
C1738 C1730 1.574 . S
C1738 H1733 0.949 . S
C1738 C1744 1.368 1_554 S
C1739 C1723 1.349 . S
C1739 H1731 0.950 . S
C1739 C1737 1.327 . S
C1740 C1728 1.349 . S
C1740 H1734 0.950 . S
C1740 C1741 1.327 . S
C1741 H1735 0.950 . S
C1741 C1740 1.327 . S
C1741 C1745 1.429 . S
C1742 C1725 1.574 . S
C1742 H1736 0.949 . S
C1742 C1746 1.368 1_556 S
C1743 C1724 1.429 . S
C1743 C1737 1.429 . S
C1743 C1744 1.523 . S
C1744 C1725 1.368 . S
C1744 C1738 1.368 1_556 S
C1744 C1743 1.523 . S
C1745 C1729 1.429 . S
C1745 C1741 1.429 . S
C1745 C1746 1.523 . S
C1746 C1730 1.368 . S
C1746 C1742 1.368 1_554 S
C1746 C1745 1.523 . S
H1747 C1722 0.950 . S
H1748 C1724 0.950 1_554 S
H1749 C1725 0.949 . S
H1750 C1727 0.950 . S
H1751 C1729 0.950 1_556 S
C1752 C1753 1.349 . S
C1752 C1754 1.327 . S
C1752 H1777 0.950 . S
C1753 C1752 1.349 . S
C1753 C1769 1.349 . S
C1754 C1752 1.327 . S
C1754 C1773 1.429 . S
C1754 H1778 0.950 . S
C1755 C1772 1.574 . S
C1755 C1774 1.368 . S
C1755 H1779 0.949 . S
H1756 C1760 0.949 . S
C1757 C1758 1.349 . S
C1757 C1759 1.327 . S
C1757 H1780 0.950 . S
C1758 C1757 1.349 . S
C1758 C1770 1.349 . S
C1759 C1757 1.327 . S
C1759 C1775 1.429 . S
C1759 H1781 0.950 . S
C1760 H1756 0.949 . S
C1760 C1768 1.574 . S
C1760 C1776 1.368 . S
H1761 C1769 0.950 . S
H1762 C1767 0.950 . S
H1763 C1768 0.949 . S
H1764 C1770 0.950 . S
H1765 C1771 0.950 . S
H1766 C1772 0.949 . S
C1767 H1762 0.950 . S
C1767 C1769 1.327 . S
C1767 C1773 1.429 . S
C1768 C1760 1.574 . S
C1768 H1763 0.949 . S
C1768 C1774 1.368 . S
C1769 C1753 1.349 . S
C1769 H1761 0.950 . S
C1769 C1767 1.327 . S
C1770 C1758 1.349 . S
C1770 H1764 0.950 . S
C1770 C1771 1.327 . S
C1771 H1765 0.950 . S
C1771 C1770 1.327 . S
C1771 C1775 1.429 . S
C1772 C1755 1.574 . S
C1772 H1766 0.949 . S
C1772 C1776 1.368 . S
C1773 C1754 1.429 . S
C1773 C1767 1.429 . S
C1773 C1774 1.523 . S
C1774 C1755 1.368 . S
C1774 C1768 1.368 . S
C1774 C1773 1.523 . S
C1775 C1759 1.429 . S
C1775 C1771 1.429 . S
C1775 C1776 1.523 . S
C1776 C1760 1.368 . S
C1776 C1772 1.368 . S
C1776 C1775 1.523 . S
H1777 C1752 0.950 . S
H1778 C1754 0.950 . S
H1779 C1755 0.949 . S
H1780 C1757 0.950 . S
H1781 C1759 0.950 . S
C1782 C1783 1.349 . S
C1782 C1784 1.327 . S
C1782 H1807 0.950 . S
C1783 C1782 1.349 . S
C1783 C1799 1.349 . S
C1784 C1782 1.327 . S
C1784 C1803 1.429 . S
C1784 H1808 0.950 . S
C1785 C1802 1.574 . S
C1785 C1804 1.368 . S
C1785 H1809 0.949 . S
H1786 C1790 0.949 . S
C1787 C1788 1.349 . S
C1787 C1789 1.327 . S
C1787 H1810 0.950 . S
C1788 C1787 1.349 . S
C1788 C1800 1.349 . S
C1789 C1787 1.327 . S
C1789 C1805 1.429 . S
C1789 H1811 0.950 . S
C1790 H1786 0.949 . S
C1790 C1798 1.574 . S
C1790 C1806 1.368 . S
H1791 C1799 0.950 . S
H1792 C1797 0.950 . S
H1793 C1798 0.949 . S
H1794 C1800 0.950 . S
H1795 C1801 0.950 . S
H1796 C1802 0.949 . S
C1797 H1792 0.950 . S
C1797 C1799 1.327 . S
C1797 C1803 1.429 . S
C1798 C1790 1.574 . S
C1798 H1793 0.949 . S
C1798 C1804 1.368 . S
C1799 C1783 1.349 . S
C1799 H1791 0.950 . S
C1799 C1797 1.327 . S
C1800 C1788 1.349 . S
C1800 H1794 0.950 . S
C1800 C1801 1.327 . S
C1801 H1795 0.950 . S
C1801 C1800 1.327 . S
C1801 C1805 1.429 . S
C1802 C1785 1.574 . S
C1802 H1796 0.949 . S
C1802 C1806 1.368 . S
C1803 C1784 1.429 . S
C1803 C1797 1.429 . S
C1803 C1804 1.523 . S
C1804 C1785 1.368 . S
C1804 C1798 1.368 . S
C1804 C1803 1.523 . S
C1805 C1789 1.429 . S
C1805 C1801 1.429 . S
C1805 C1806 1.523 . S
C1806 C1790 1.368 . S
C1806 C1802 1.368 . S
C1806 C1805 1.523 . S
H1807 C1782 0.950 . S
H1808 C1784 0.950 . S
H1809 C1785 0.949 . S
H1810 C1787 0.950 . S
H1811 C1789 0.950 . S
C1812 C1813 1.349 . S
C1812 C1814 1.327 . S
C1812 H1837 0.950 . S
C1813 C1812 1.349 . S
C1813 C1829 1.349 . S
C1814 C1812 1.327 . S
C1814 C1833 1.429 . S
C1814 H1838 0.950 . S
C1815 C1832 1.574 . S
C1815 C1834 1.368 . S
C1815 H1839 0.949 . S
H1816 C1820 0.949 . S
C1817 C1818 1.349 . S
C1817 C1819 1.327 . S
C1817 H1840 0.950 . S
C1818 C1817 1.349 . S
C1818 C1830 1.349 . S
C1819 C1817 1.327 . S
C1819 C1835 1.429 . S
C1819 H1841 0.950 . S
C1820 H1816 0.949 . S
C1820 C1828 1.574 . S
C1820 C1836 1.368 . S
H1821 C1829 0.950 . S
H1822 C1827 0.950 . S
H1823 C1828 0.949 . S
H1824 C1830 0.950 . S
H1825 C1831 0.950 . S
H1826 C1832 0.949 . S
C1827 H1822 0.950 . S
C1827 C1829 1.327 . S
C1827 C1833 1.429 . S
C1828 C1820 1.574 . S
C1828 H1823 0.949 . S
C1828 C1834 1.368 . S
C1829 C1813 1.349 . S
C1829 H1821 0.950 . S
C1829 C1827 1.327 . S
C1830 C1818 1.349 . S
C1830 H1824 0.950 . S
C1830 C1831 1.327 . S
C1831 H1825 0.950 . S
C1831 C1830 1.327 . S
C1831 C1835 1.429 . S
C1832 C1815 1.574 . S
C1832 H1826 0.949 . S
C1832 C1836 1.368 . S
C1833 C1814 1.429 . S
C1833 C1827 1.429 . S
C1833 C1834 1.523 . S
C1834 C1815 1.368 . S
C1834 C1828 1.368 . S
C1834 C1833 1.523 . S
C1835 C1819 1.429 . S
C1835 C1831 1.429 . S
C1835 C1836 1.523 . S
C1836 C1820 1.368 . S
C1836 C1832 1.368 . S
C1836 C1835 1.523 . S
H1837 C1812 0.950 . S
H1838 C1814 0.950 . S
H1839 C1815 0.949 . S
H1840 C1817 0.950 . S
H1841 C1819 0.950 . S
C1842 C1843 1.349 . S
C1842 C1844 1.327 . S
C1842 H1867 0.950 . S
C1843 C1842 1.349 . S
C1843 C1859 1.349 . S
C1844 C1842 1.327 . S
C1844 C1863 1.429 . S
C1844 H1868 0.950 . S
C1845 C1862 1.574 . S
C1845 C1864 1.368 . S
C1845 H1869 0.949 . S
H1846 C1850 0.949 . S
C1847 C1848 1.349 . S
C1847 C1849 1.327 . S
C1847 H1870 0.950 . S
C1848 C1847 1.349 . S
C1848 C1860 1.349 . S
C1849 C1847 1.327 . S
C1849 C1865 1.429 . S
C1849 H1871 0.950 . S
C1850 H1846 0.949 . S
C1850 C1858 1.574 . S
C1850 C1866 1.368 . S
H1851 C1859 0.950 . S
H1852 C1857 0.950 . S
H1853 C1858 0.949 . S
H1854 C1860 0.950 . S
H1855 C1861 0.950 . S
H1856 C1862 0.949 . S
C1857 H1852 0.950 . S
C1857 C1859 1.327 . S
C1857 C1863 1.429 . S
C1858 C1850 1.574 . S
C1858 H1853 0.949 . S
C1858 C1864 1.368 . S
C1859 C1843 1.349 . S
C1859 H1851 0.950 . S
C1859 C1857 1.327 . S
C1860 C1848 1.349 . S
C1860 H1854 0.950 . S
C1860 C1861 1.327 . S
C1861 H1855 0.950 . S
C1861 C1860 1.327 . S
C1861 C1865 1.429 . S
C1862 C1845 1.574 . S
C1862 H1856 0.949 . S
C1862 C1866 1.368 . S
C1863 C1844 1.429 . S
C1863 C1857 1.429 . S
C1863 C1864 1.523 . S
C1864 C1845 1.368 . S
C1864 C1858 1.368 . S
C1864 C1863 1.523 . S
C1865 C1849 1.429 . S
C1865 C1861 1.429 . S
C1865 C1866 1.523 . S
C1866 C1850 1.368 . S
C1866 C1862 1.368 . S
C1866 C1865 1.523 . S
H1867 C1842 0.950 . S
H1868 C1844 0.950 . S
H1869 C1845 0.949 . S
H1870 C1847 0.950 . S
H1871 C1849 0.950 . S
C1872 C1873 1.349 . S
C1872 C1874 1.327 . S
C1872 H1897 0.950 . S
C1873 C1872 1.349 . S
C1873 C1889 1.349 . S
C1874 C1872 1.327 . S
C1874 C1893 1.429 . S
C1874 H1898 0.950 . S
C1875 C1892 1.574 . S
C1875 C1894 1.368 . S
C1875 H1899 0.949 . S
H1876 C1880 0.949 . S
C1877 C1878 1.349 . S
C1877 C1879 1.327 . S
C1877 H1900 0.950 . S
C1878 C1877 1.349 . S
C1878 C1890 1.349 . S
C1879 C1877 1.327 . S
C1879 C1895 1.429 . S
C1879 H1901 0.950 . S
C1880 H1876 0.949 . S
C1880 C1888 1.574 . S
C1880 C1896 1.368 . S
H1881 C1889 0.950 . S
H1882 C1887 0.950 . S
H1883 C1888 0.949 . S
H1884 C1890 0.950 . S
H1885 C1891 0.950 . S
H1886 C1892 0.949 . S
C1887 H1882 0.950 . S
C1887 C1889 1.327 . S
C1887 C1893 1.429 . S
C1888 C1880 1.574 . S
C1888 H1883 0.949 . S
C1888 C1894 1.368 . S
C1889 C1873 1.349 . S
C1889 H1881 0.950 . S
C1889 C1887 1.327 . S
C1890 C1878 1.349 . S
C1890 H1884 0.950 . S
C1890 C1891 1.327 . S
C1891 H1885 0.950 . S
C1891 C1890 1.327 . S
C1891 C1895 1.429 . S
C1892 C1875 1.574 . S
C1892 H1886 0.949 . S
C1892 C1896 1.368 . S
C1893 C1874 1.429 . S
C1893 C1887 1.429 . S
C1893 C1894 1.523 . S
C1894 C1875 1.368 . S
C1894 C1888 1.368 . S
C1894 C1893 1.523 . S
C1895 C1879 1.429 . S
C1895 C1891 1.429 . S
C1895 C1896 1.523 . S
C1896 C1880 1.368 . S
C1896 C1892 1.368 . S
C1896 C1895 1.523 . S
H1897 C1872 0.950 . S
H1898 C1874 0.950 . S
H1899 C1875 0.949 . S
H1900 C1877 0.950 . S
H1901 C1879 0.950 . S
C1902 C1903 1.349 . S
C1902 C1904 1.327 . S
C1902 H1927 0.950 . S
C1903 C1902 1.349 . S
C1903 C1919 1.349 . S
C1904 C1902 1.327 . S
C1904 C1923 1.429 . S
C1904 H1928 0.950 . S
C1905 C1922 1.574 . S
C1905 C1924 1.368 . S
C1905 H1929 0.949 . S
H1906 C1910 0.949 . S
C1907 C1908 1.349 . S
C1907 C1909 1.327 . S
C1907 H1930 0.950 . S
C1908 C1907 1.349 . S
C1908 C1920 1.349 . S
C1909 C1907 1.327 . S
C1909 C1925 1.429 . S
C1909 H1931 0.950 . S
C1910 H1906 0.949 . S
C1910 C1918 1.574 . S
C1910 C1926 1.368 . S
H1911 C1919 0.950 . S
H1912 C1917 0.950 . S
H1913 C1918 0.949 . S
H1914 C1920 0.950 . S
H1915 C1921 0.950 . S
H1916 C1922 0.949 . S
C1917 H1912 0.950 . S
C1917 C1919 1.327 . S
C1917 C1923 1.429 . S
C1918 C1910 1.574 . S
C1918 H1913 0.949 . S
C1918 C1924 1.368 . S
C1919 C1903 1.349 . S
C1919 H1911 0.950 . S
C1919 C1917 1.327 . S
C1920 C1908 1.349 . S
C1920 H1914 0.950 . S
C1920 C1921 1.327 . S
C1921 H1915 0.950 . S
C1921 C1920 1.327 . S
C1921 C1925 1.429 . S
C1922 C1905 1.574 . S
C1922 H1916 0.949 . S
C1922 C1926 1.368 . S
C1923 C1904 1.429 . S
C1923 C1917 1.429 . S
C1923 C1924 1.523 . S
C1924 C1905 1.368 . S
C1924 C1918 1.368 . S
C1924 C1923 1.523 . S
C1925 C1909 1.429 . S
C1925 C1921 1.429 . S
C1925 C1926 1.523 . S
C1926 C1910 1.368 . S
C1926 C1922 1.368 . S
C1926 C1925 1.523 . S
H1927 C1902 0.950 . S
H1928 C1904 0.950 . S
H1929 C1905 0.949 . S
H1930 C1907 0.950 . S
H1931 C1909 0.950 . S
C1932 C1933 1.349 . S
C1932 C1934 1.327 . S
C1932 H1957 0.950 . S
C1933 C1932 1.349 . S
C1933 C1949 1.349 . S
C1934 C1932 1.327 . S
C1934 C1953 1.429 . S
C1934 H1958 0.950 . S
C1935 C1952 1.574 . S
C1935 C1954 1.368 . S
C1935 H1959 0.949 . S
H1936 C1940 0.949 . S
C1937 C1938 1.349 . S
C1937 C1939 1.327 . S
C1937 H1960 0.950 . S
C1938 C1937 1.349 . S
C1938 C1950 1.349 . S
C1939 C1937 1.327 . S
C1939 C1955 1.429 . S
C1939 H1961 0.950 . S
C1940 H1936 0.949 . S
C1940 C1948 1.574 . S
C1940 C1956 1.368 . S
H1941 C1949 0.950 . S
H1942 C1947 0.950 . S
H1943 C1948 0.949 . S
H1944 C1950 0.950 . S
H1945 C1951 0.950 . S
H1946 C1952 0.949 . S
C1947 H1942 0.950 . S
C1947 C1949 1.327 . S
C1947 C1953 1.429 . S
C1948 C1940 1.574 . S
C1948 H1943 0.949 . S
C1948 C1954 1.368 . S
C1949 C1933 1.349 . S
C1949 H1941 0.950 . S
C1949 C1947 1.327 . S
C1950 C1938 1.349 . S
C1950 H1944 0.950 . S
C1950 C1951 1.327 . S
C1951 H1945 0.950 . S
C1951 C1950 1.327 . S
C1951 C1955 1.429 . S
C1952 C1935 1.574 . S
C1952 H1946 0.949 . S
C1952 C1956 1.368 . S
C1953 C1934 1.429 . S
C1953 C1947 1.429 . S
C1953 C1954 1.523 . S
C1954 C1935 1.368 . S
C1954 C1948 1.368 . S
C1954 C1953 1.523 . S
C1955 C1939 1.429 . S
C1955 C1951 1.429 . S
C1955 C1956 1.523 . S
C1956 C1940 1.368 . S
C1956 C1952 1.368 . S
C1956 C1955 1.523 . S
H1957 C1932 0.950 . S
H1958 C1934 0.950 . S
H1959 C1935 0.949 . S
H1960 C1937 0.950 . S
H1961 C1939 0.950 . S
C1962 C1963 1.349 . S
C1962 C1964 1.327 . S
C1962 H1987 0.950 . S
C1963 C1962 1.349 . S
C1963 C1979 1.349 . S
C1964 C1962 1.327 . S
C1964 C1983 1.429 . S
C1964 H1988 0.950 . S
C1965 C1982 1.574 . S
C1965 C1984 1.368 . S
C1965 H1989 0.949 . S
H1966 C1970 0.949 . S
C1967 C1968 1.349 . S
C1967 C1969 1.327 . S
C1967 H1990 0.950 . S
C1968 C1967 1.349 . S
C1968 C1980 1.349 . S
C1969 C1967 1.327 . S
C1969 C1985 1.429 . S
C1969 H1991 0.950 . S
C1970 H1966 0.949 . S
C1970 C1978 1.574 . S
C1970 C1986 1.368 . S
H1971 C1979 0.950 . S
H1972 C1977 0.950 . S
H1973 C1978 0.949 . S
H1974 C1980 0.950 . S
H1975 C1981 0.950 . S
H1976 C1982 0.949 . S
C1977 H1972 0.950 . S
C1977 C1979 1.327 . S
C1977 C1983 1.429 . S
C1978 C1970 1.574 . S
C1978 H1973 0.949 . S
C1978 C1984 1.368 . S
C1979 C1963 1.349 . S
C1979 H1971 0.950 . S
C1979 C1977 1.327 . S
C1980 C1968 1.349 . S
C1980 H1974 0.950 . S
C1980 C1981 1.327 . S
C1981 H1975 0.950 . S
C1981 C1980 1.327 . S
C1981 C1985 1.429 . S
C1982 C1965 1.574 . S
C1982 H1976 0.949 . S
C1982 C1986 1.368 . S
C1983 C1964 1.429 . S
C1983 C1977 1.429 . S
C1983 C1984 1.523 . S
C1984 C1965 1.368 . S
C1984 C1978 1.368 . S
C1984 C1983 1.523 . S
C1985 C1969 1.429 . S
C1985 C1981 1.429 . S
C1985 C1986 1.523 . S
C1986 C1970 1.368 . S
C1986 C1982 1.368 . S
C1986 C1985 1.523 . S
H1987 C1962 0.950 . S
H1988 C1964 0.950 . S
H1989 C1965 0.949 . S
H1990 C1967 0.950 . S
H1991 C1969 0.950 . S
C1992 C1993 1.349 . S
C1992 C1994 1.327 . S
C1992 H2017 0.950 . S
C1993 C1992 1.349 . S
C1993 C2009 1.349 . S
C1994 C1992 1.327 . S
C1994 C2013 1.429 . S
C1994 H2018 0.950 . S
C1995 C2012 1.574 . S
C1995 C2014 1.368 . S
C1995 H2019 0.949 . S
H1996 C2000 0.949 . S
C1997 C1998 1.349 . S
C1997 C1999 1.327 . S
C1997 H2020 0.950 . S
C1998 C1997 1.349 . S
C1998 C2010 1.349 . S
C1999 C1997 1.327 . S
C1999 C2015 1.429 . S
C1999 H2021 0.950 . S
C2000 H1996 0.949 . S
C2000 C2008 1.574 . S
C2000 C2016 1.368 . S
H2001 C2009 0.950 . S
H2002 C2007 0.950 . S
H2003 C2008 0.949 . S
H2004 C2010 0.950 . S
H2005 C2011 0.950 . S
H2006 C2012 0.949 . S
C2007 H2002 0.950 . S
C2007 C2009 1.327 . S
C2007 C2013 1.429 . S
C2008 C2000 1.574 . S
C2008 H2003 0.949 . S
C2008 C2014 1.368 . S
C2009 C1993 1.349 . S
C2009 H2001 0.950 . S
C2009 C2007 1.327 . S
C2010 C1998 1.349 . S
C2010 H2004 0.950 . S
C2010 C2011 1.327 . S
C2011 H2005 0.950 . S
C2011 C2010 1.327 . S
C2011 C2015 1.429 . S
C2012 C1995 1.574 . S
C2012 H2006 0.949 . S
C2012 C2016 1.368 . S
C2013 C1994 1.429 . S
C2013 C2007 1.429 . S
C2013 C2014 1.523 . S
C2014 C1995 1.368 . S
C2014 C2008 1.368 . S
C2014 C2013 1.523 . S
C2015 C1999 1.429 . S
C2015 C2011 1.429 . S
C2015 C2016 1.523 . S
C2016 C2000 1.368 . S
C2016 C2012 1.368 . S
C2016 C2015 1.523 . S
H2017 C1992 0.950 . S
H2018 C1994 0.950 . S
H2019 C1995 0.949 . S
H2020 C1997 0.950 . S
H2021 C1999 0.950 . S
C2022 C2023 1.349 . S
C2022 C2024 1.327 . S
C2022 H2047 0.950 . S
C2023 C2022 1.349 . S
C2023 C2039 1.349 . S
C2024 C2022 1.327 . S
C2024 C2043 1.429 . S
C2024 H2048 0.950 . S
C2025 C2042 1.574 . S
C2025 C2044 1.368 . S
C2025 H2049 0.949 . S
H2026 C2030 0.949 . S
C2027 C2028 1.349 . S
C2027 C2029 1.327 . S
C2027 H2050 0.950 . S
C2028 C2027 1.349 . S
C2028 C2040 1.349 . S
C2029 C2027 1.327 . S
C2029 C2045 1.429 . S
C2029 H2051 0.950 . S
C2030 H2026 0.949 . S
C2030 C2038 1.574 . S
C2030 C2046 1.368 . S
H2031 C2039 0.950 . S
H2032 C2037 0.950 . S
H2033 C2038 0.949 . S
H2034 C2040 0.950 . S
H2035 C2041 0.950 . S
H2036 C2042 0.949 . S
C2037 H2032 0.950 . S
C2037 C2039 1.327 . S
C2037 C2043 1.429 . S
C2038 C2030 1.574 . S
C2038 H2033 0.949 . S
C2038 C2044 1.368 . S
C2039 C2023 1.349 . S
C2039 H2031 0.950 . S
C2039 C2037 1.327 . S
C2040 C2028 1.349 . S
C2040 H2034 0.950 . S
C2040 C2041 1.327 . S
C2041 H2035 0.950 . S
C2041 C2040 1.327 . S
C2041 C2045 1.429 . S
C2042 C2025 1.574 . S
C2042 H2036 0.949 . S
C2042 C2046 1.368 . S
C2043 C2024 1.429 . S
C2043 C2037 1.429 . S
C2043 C2044 1.523 . S
C2044 C2025 1.368 . S
C2044 C2038 1.368 . S
C2044 C2043 1.523 . S
C2045 C2029 1.429 . S
C2045 C2041 1.429 . S
C2045 C2046 1.523 . S
C2046 C2030 1.368 . S
C2046 C2042 1.368 . S
C2046 C2045 1.523 . S
H2047 C2022 0.950 . S
H2048 C2024 0.950 . S
H2049 C2025 0.949 . S
H2050 C2027 0.950 . S
H2051 C2029 0.950 . S
C2052 C2053 1.349 . S
C2052 C2054 1.327 . S
C2052 H2077 0.950 . S
C2053 C2052 1.349 . S
C2053 C2069 1.349 . S
C2054 C2052 1.327 . S
C2054 C2073 1.429 . S
C2054 H2078 0.950 . S
C2055 C2072 1.574 . S
C2055 C2074 1.368 . S
C2055 H2079 0.949 . S
H2056 C2060 0.949 . S
C2057 C2058 1.349 . S
C2057 C2059 1.327 . S
C2057 H2080 0.950 . S
C2058 C2057 1.349 . S
C2058 C2070 1.349 . S
C2059 C2057 1.327 . S
C2059 C2075 1.429 . S
C2059 H2081 0.950 . S
C2060 H2056 0.949 . S
C2060 C2068 1.574 . S
C2060 C2076 1.368 . S
H2061 C2069 0.950 . S
H2062 C2067 0.950 . S
H2063 C2068 0.949 . S
H2064 C2070 0.950 . S
H2065 C2071 0.950 . S
H2066 C2072 0.949 . S
C2067 H2062 0.950 . S
C2067 C2069 1.327 . S
C2067 C2073 1.429 . S
C2068 C2060 1.574 . S
C2068 H2063 0.949 . S
C2068 C2074 1.368 . S
C2069 C2053 1.349 . S
C2069 H2061 0.950 . S
C2069 C2067 1.327 . S
C2070 C2058 1.349 . S
C2070 H2064 0.950 . S
C2070 C2071 1.327 . S
C2071 H2065 0.950 . S
C2071 C2070 1.327 . S
C2071 C2075 1.429 . S
C2072 C2055 1.574 . S
C2072 H2066 0.949 . S
C2072 C2076 1.368 . S
C2073 C2054 1.429 . S
C2073 C2067 1.429 . S
C2073 C2074 1.523 . S
C2074 C2055 1.368 . S
C2074 C2068 1.368 . S
C2074 C2073 1.523 . S
C2075 C2059 1.429 . S
C2075 C2071 1.429 . S
C2075 C2076 1.523 . S
C2076 C2060 1.368 . S
C2076 C2072 1.368 . S
C2076 C2075 1.523 . S
H2077 C2052 0.950 . S
H2078 C2054 0.950 . S
H2079 C2055 0.949 . S
H2080 C2057 0.950 . S
H2081 C2059 0.950 . S
C2082 C2083 1.349 . S
C2082 C2084 1.327 . S
C2082 H2107 0.950 . S
C2083 C2082 1.349 . S
C2083 C2099 1.349 . S
C2084 C2082 1.327 . S
C2084 C2103 1.429 . S
C2084 H2108 0.950 . S
C2085 C2102 1.574 . S
C2085 C2104 1.368 . S
C2085 H2109 0.949 . S
H2086 C2090 0.949 . S
C2087 C2088 1.349 . S
C2087 C2089 1.327 . S
C2087 H2110 0.950 . S
C2088 C2087 1.349 . S
C2088 C2100 1.349 . S
C2089 C2087 1.327 . S
C2089 C2105 1.429 . S
C2089 H2111 0.950 . S
C2090 H2086 0.949 . S
C2090 C2098 1.574 . S
C2090 C2106 1.368 . S
H2091 C2099 0.950 . S
H2092 C2097 0.950 . S
H2093 C2098 0.949 . S
H2094 C2100 0.950 . S
H2095 C2101 0.950 . S
H2096 C2102 0.949 . S
C2097 H2092 0.950 . S
C2097 C2099 1.327 . S
C2097 C2103 1.429 . S
C2098 C2090 1.574 . S
C2098 H2093 0.949 . S
C2098 C2104 1.368 . S
C2099 C2083 1.349 . S
C2099 H2091 0.950 . S
C2099 C2097 1.327 . S
C2100 C2088 1.349 . S
C2100 H2094 0.950 . S
C2100 C2101 1.327 . S
C2101 H2095 0.950 . S
C2101 C2100 1.327 . S
C2101 C2105 1.429 . S
C2102 C2085 1.574 . S
C2102 H2096 0.949 . S
C2102 C2106 1.368 . S
C2103 C2084 1.429 . S
C2103 C2097 1.429 . S
C2103 C2104 1.523 . S
C2104 C2085 1.368 . S
C2104 C2098 1.368 . S
C2104 C2103 1.523 . S
C2105 C2089 1.429 . S
C2105 C2101 1.429 . S
C2105 C2106 1.523 . S
C2106 C2090 1.368 . S
C2106 C2102 1.368 . S
C2106 C2105 1.523 . S
H2107 C2082 0.950 . S
H2108 C2084 0.950 . S
H2109 C2085 0.949 . S
H2110 C2087 0.950 . S
H2111 C2089 0.950 . S
C2112 C2113 1.349 . S
C2112 C2114 1.327 . S
C2112 H2137 0.950 . S
C2113 C2112 1.349 . S
C2113 C2129 1.349 . S
C2114 C2112 1.327 . S
C2114 C2133 1.429 . S
C2114 H2138 0.950 . S
C2115 C2132 1.574 . S
C2115 C2134 1.368 . S
C2115 H2139 0.949 . S
H2116 C2120 0.949 . S
C2117 C2118 1.349 1_554 S
C2117 C2119 1.327 . S
C2117 H2140 0.950 . S
C2118 C2117 1.349 1_556 S
C2118 C2130 1.349 . S
C2119 C2117 1.327 . S
C2119 C2135 1.429 . S
C2119 H2141 0.950 . S
C2120 H2116 0.949 . S
C2120 C2128 1.574 . S
C2120 C2136 1.368 . S
H2121 C2129 0.950 . S
H2122 C2127 0.950 . S
H2123 C2128 0.949 . S
H2124 C2130 0.950 . S
H2125 C2131 0.950 . S
H2126 C2132 0.949 . S
C2127 H2122 0.950 . S
C2127 C2129 1.327 . S
C2127 C2133 1.429 . S
C2128 C2120 1.574 . S
C2128 H2123 0.949 . S
C2128 C2134 1.368 . S
C2129 C2113 1.349 . S
C2129 H2121 0.950 . S
C2129 C2127 1.327 . S
C2130 C2118 1.349 . S
C2130 H2124 0.950 . S
C2130 C2131 1.327 1_556 S
C2131 H2125 0.950 . S
C2131 C2130 1.327 1_554 S
C2131 C2135 1.429 . S
C2132 C2115 1.574 . S
C2132 H2126 0.949 . S
C2132 C2136 1.368 . S
C2133 C2114 1.429 . S
C2133 C2127 1.429 . S
C2133 C2134 1.523 . S
C2134 C2115 1.368 . S
C2134 C2128 1.368 . S
C2134 C2133 1.523 . S
C2135 C2119 1.429 . S
C2135 C2131 1.429 . S
C2135 C2136 1.523 . S
C2136 C2120 1.368 . S
C2136 C2132 1.368 . S
C2136 C2135 1.523 . S
H2137 C2112 0.950 . S
H2138 C2114 0.950 . S
H2139 C2115 0.949 . S
H2140 C2117 0.950 . S
H2141 C2119 0.950 . S
C2142 C2143 1.349 . S
C2142 C2144 1.327 . S
C2142 H2167 0.950 . S
C2143 C2142 1.349 . S
C2143 C2159 1.349 . S
C2144 C2142 1.327 . S
C2144 C2163 1.429 . S
C2144 H2168 0.950 . S
C2145 C2162 1.574 . S
C2145 C2164 1.368 . S
C2145 H2169 0.949 . S
H2146 C2150 0.949 . S
C2147 C2148 1.349 . S
C2147 C2149 1.327 1_556 S
C2147 H2170 0.950 . S
C2148 C2147 1.349 . S
C2148 C2160 1.349 1_556 S
C2149 C2147 1.327 1_554 S
C2149 C2165 1.429 . S
C2149 H2171 0.950 . S
C2150 H2146 0.949 . S
C2150 C2158 1.574 . S
C2150 C2166 1.368 . S
H2151 C2159 0.950 . S
H2152 C2157 0.950 . S
H2153 C2158 0.949 . S
H2154 C2160 0.950 . S
H2155 C2161 0.950 . S
H2156 C2162 0.949 . S
C2157 H2152 0.950 . S
C2157 C2159 1.327 . S
C2157 C2163 1.429 . S
C2158 C2150 1.574 . S
C2158 H2153 0.949 . S
C2158 C2164 1.368 . S
C2159 C2143 1.349 . S
C2159 H2151 0.950 . S
C2159 C2157 1.327 . S
C2160 C2148 1.349 1_554 S
C2160 H2154 0.950 . S
C2160 C2161 1.327 . S
C2161 H2155 0.950 . S
C2161 C2160 1.327 . S
C2161 C2165 1.429 . S
C2162 C2145 1.574 . S
C2162 H2156 0.949 . S
C2162 C2166 1.368 . S
C2163 C2144 1.429 . S
C2163 C2157 1.429 . S
C2163 C2164 1.523 . S
C2164 C2145 1.368 . S
C2164 C2158 1.368 . S
C2164 C2163 1.523 . S
C2165 C2149 1.429 . S
C2165 C2161 1.429 . S
C2165 C2166 1.523 . S
C2166 C2150 1.368 . S
C2166 C2162 1.368 . S
C2166 C2165 1.523 . S
H2167 C2142 0.950 . S
H2168 C2144 0.950 . S
H2169 C2145 0.949 . S
H2170 C2147 0.950 . S
H2171 C2149 0.950 . S
C2172 C2173 1.349 . S
C2172 C2174 1.327 . S
C2172 H2197 0.950 . S
C2173 C2172 1.349 . S
C2173 C2189 1.349 . S
C2174 C2172 1.327 . S
C2174 C2193 1.429 . S
C2174 H2198 0.950 . S
C2175 C2192 1.574 . S
C2175 C2194 1.368 . S
C2175 H2199 0.949 . S
H2176 C2180 0.949 . S
C2177 C2178 1.349 . S
C2177 C2179 1.327 1_556 S
C2177 H2200 0.950 . S
C2178 C2177 1.349 . S
C2178 C2190 1.349 1_556 S
C2179 C2177 1.327 1_554 S
C2179 C2195 1.429 . S
C2179 H2201 0.950 . S
C2180 H2176 0.949 . S
C2180 C2188 1.574 . S
C2180 C2196 1.368 . S
H2181 C2189 0.950 . S
H2182 C2187 0.950 . S
H2183 C2188 0.949 . S
H2184 C2190 0.963 . S
H2185 C2191 0.950 . S
H2186 C2192 0.949 . S
C2187 H2182 0.950 . S
C2187 C2189 1.327 . S
C2187 C2193 1.429 . S
C2188 C2180 1.574 . S
C2188 H2183 0.949 . S
C2188 C2194 1.368 . S
C2189 C2173 1.349 . S
C2189 H2181 0.950 . S
C2189 C2187 1.327 . S
C2190 C2178 1.349 1_554 S
C2190 H2184 0.963 . S
C2190 C2191 1.327 . S
C2191 H2185 0.950 . S
C2191 C2190 1.327 . S
C2191 C2195 1.429 . S
C2192 C2175 1.574 . S
C2192 H2186 0.949 . S
C2192 C2196 1.368 . S
C2193 C2174 1.429 . S
C2193 C2187 1.429 . S
C2193 C2194 1.523 . S
C2194 C2175 1.368 . S
C2194 C2188 1.368 . S
C2194 C2193 1.523 . S
C2195 C2179 1.429 . S
C2195 C2191 1.429 . S
C2195 C2196 1.523 . S
C2196 C2180 1.368 . S
C2196 C2192 1.368 . S
C2196 C2195 1.523 . S
H2197 C2172 0.950 . S
H2198 C2174 0.950 . S
H2199 C2175 0.949 . S
H2200 C2177 0.950 . S
H2201 C2179 0.950 . S
C2202 C2203 1.349 . S
C2202 C2204 1.327 1_556 S
C2202 H2227 0.950 . S
C2203 C2202 1.349 . S
C2203 C2219 1.349 1_556 S
C2204 C2202 1.327 1_554 S
C2204 C2223 1.429 . S
C2204 H2228 0.950 . S
C2205 C2222 1.574 . S
C2205 C2224 1.368 . S
C2205 H2229 0.949 . S
H2206 C2210 0.949 . S
C2207 C2208 1.349 . S
C2207 C2209 1.327 . S
C2207 H2230 0.950 . S
C2208 C2207 1.349 . S
C2208 C2220 1.349 . S
C2209 C2207 1.327 . S
C2209 C2225 1.429 . S
C2209 H2231 0.950 . S
C2210 H2206 0.949 . S
C2210 C2218 1.574 . S
C2210 C2226 1.368 . S
H2211 C2219 0.950 . S
H2212 C2217 0.950 . S
H2213 C2218 0.949 . S
H2214 C2220 0.950 . S
H2215 C2221 0.950 . S
H2216 C2222 0.949 . S
C2217 H2212 0.950 . S
C2217 C2219 1.327 . S
C2217 C2223 1.429 . S
C2218 C2210 1.574 . S
C2218 H2213 0.949 . S
C2218 C2224 1.368 . S
C2219 C2203 1.349 1_554 S
C2219 H2211 0.950 . S
C2219 C2217 1.327 . S
C2220 C2208 1.349 . S
C2220 H2214 0.950 . S
C2220 C2221 1.327 . S
C2221 H2215 0.950 . S
C2221 C2220 1.327 . S
C2221 C2225 1.429 . S
C2222 C2205 1.574 . S
C2222 H2216 0.949 . S
C2222 C2226 1.368 . S
C2223 C2204 1.429 . S
C2223 C2217 1.429 . S
C2223 C2224 1.523 . S
C2224 C2205 1.368 . S
C2224 C2218 1.368 . S
C2224 C2223 1.523 . S
C2225 C2209 1.429 . S
C2225 C2221 1.429 . S
C2225 C2226 1.523 . S
C2226 C2210 1.368 . S
C2226 C2222 1.368 . S
C2226 C2225 1.523 . S
H2227 C2202 0.950 . S
H2228 C2204 0.950 . S
H2229 C2205 0.949 . S
H2230 C2207 0.950 . S
H2231 C2209 0.950 . S
C2232 C2233 1.349 . S
C2232 C2234 1.327 . S
C2232 H2257 0.950 . S
C2233 C2232 1.349 . S
C2233 C2249 1.349 . S
C2234 C2232 1.327 . S
C2234 C2253 1.429 . S
C2234 H2258 0.950 . S
C2235 C2252 1.574 . S
C2235 C2254 1.368 . S
C2235 H2259 0.949 . S
H2236 C2240 0.949 . S
C2237 C2238 1.349 . S
C2237 C2239 1.327 1_554 S
C2237 H2260 0.950 . S
C2238 C2237 1.349 . S
C2238 C2250 1.349 1_554 S
C2239 C2237 1.327 1_556 S
C2239 C2255 1.429 . S
C2239 H2261 0.950 . S
C2240 H2236 0.949 . S
C2240 C2248 1.574 . S
C2240 C2256 1.368 . S
H2241 C2249 0.950 . S
H2242 C2247 0.950 . S
H2243 C2248 0.949 . S
H2244 C2250 0.964 . S
H2245 C2251 0.950 . S
H2246 C2252 0.949 . S
C2247 H2242 0.950 . S
C2247 C2249 1.327 . S
C2247 C2253 1.429 . S
C2248 C2240 1.574 . S
C2248 H2243 0.949 . S
C2248 C2254 1.368 . S
C2249 C2233 1.349 . S
C2249 H2241 0.950 . S
C2249 C2247 1.327 . S
C2250 C2238 1.349 1_556 S
C2250 H2244 0.964 . S
C2250 C2251 1.327 . S
C2251 H2245 0.950 . S
C2251 C2250 1.327 . S
C2251 C2255 1.429 . S
C2252 C2235 1.574 . S
C2252 H2246 0.949 . S
C2252 C2256 1.368 . S
C2253 C2234 1.429 . S
C2253 C2247 1.429 . S
C2253 C2254 1.523 . S
C2254 C2235 1.368 . S
C2254 C2248 1.368 . S
C2254 C2253 1.523 . S
C2255 C2239 1.429 . S
C2255 C2251 1.429 . S
C2255 C2256 1.523 . S
C2256 C2240 1.368 . S
C2256 C2252 1.368 . S
C2256 C2255 1.523 . S
H2257 C2232 0.950 . S
H2258 C2234 0.950 . S
H2259 C2235 0.949 . S
H2260 C2237 0.950 . S
H2261 C2239 0.950 . S
C2262 C2263 1.349 . S
C2262 C2264 1.327 . S
C2262 H2287 0.950 . S
C2263 C2262 1.349 . S
C2263 C2279 1.349 . S
C2264 C2262 1.327 . S
C2264 C2283 1.429 . S
C2264 H2288 0.950 . S
C2265 C2282 1.574 . S
C2265 C2284 1.368 . S
C2265 H2289 0.949 . S
H2266 C2270 0.949 . S
C2267 C2268 1.349 . S
C2267 C2269 1.327 1_554 S
C2267 H2290 0.950 . S
C2268 C2267 1.349 . S
C2268 C2280 1.349 1_554 S
C2269 C2267 1.327 1_556 S
C2269 C2285 1.429 . S
C2269 H2291 0.950 . S
C2270 H2266 0.949 . S
C2270 C2278 1.574 . S
C2270 C2286 1.368 . S
H2271 C2279 0.950 . S
H2272 C2277 0.950 . S
H2273 C2278 0.949 . S
H2274 C2280 0.950 . S
H2275 C2281 0.950 . S
H2276 C2282 0.949 . S
C2277 H2272 0.950 . S
C2277 C2279 1.327 . S
C2277 C2283 1.429 . S
C2278 C2270 1.574 . S
C2278 H2273 0.949 . S
C2278 C2284 1.368 . S
C2279 C2263 1.349 . S
C2279 H2271 0.950 . S
C2279 C2277 1.327 . S
C2280 C2268 1.349 1_556 S
C2280 H2274 0.950 . S
C2280 C2281 1.327 . S
C2281 H2275 0.950 . S
C2281 C2280 1.327 . S
C2281 C2285 1.429 . S
C2282 C2265 1.574 . S
C2282 H2276 0.949 . S
C2282 C2286 1.368 . S
C2283 C2264 1.429 . S
C2283 C2277 1.429 . S
C2283 C2284 1.523 . S
C2284 C2265 1.368 . S
C2284 C2278 1.368 . S
C2284 C2283 1.523 . S
C2285 C2269 1.429 . S
C2285 C2281 1.429 . S
C2285 C2286 1.523 . S
C2286 C2270 1.368 . S
C2286 C2282 1.368 . S
C2286 C2285 1.523 . S
H2287 C2262 0.950 . S
H2288 C2264 0.950 . S
H2289 C2265 0.949 . S
H2290 C2267 0.950 . S
H2291 C2269 0.950 . S
C2292 C2293 1.349 1_556 S
C2292 C2294 1.327 . S
C2292 H2317 0.934 1_556 S
C2293 C2292 1.349 1_554 S
C2293 C2309 1.349 . S
C2294 C2292 1.327 . S
C2294 C2313 1.429 . S
C2294 H2318 0.950 . S
C2295 C2312 1.574 . S
C2295 C2314 1.368 . S
C2295 H2319 0.949 . S
H2296 C2300 0.949 . S
C2297 C2298 1.349 . S
C2297 C2299 1.327 . S
C2297 H2320 0.950 . S
C2298 C2297 1.349 . S
C2298 C2310 1.349 . S
C2299 C2297 1.327 . S
C2299 C2315 1.429 . S
C2299 H2321 0.950 . S
C2300 H2296 0.949 . S
C2300 C2308 1.574 . S
C2300 C2316 1.368 . S
H2301 C2309 0.950 . S
H2302 C2307 0.950 . S
H2303 C2308 0.949 . S
H2304 C2310 0.950 . S
H2305 C2311 0.950 . S
H2306 C2312 0.949 . S
C2307 H2302 0.950 . S
C2307 C2309 1.327 1_556 S
C2307 C2313 1.429 . S
C2308 C2300 1.574 . S
C2308 H2303 0.949 . S
C2308 C2314 1.368 . S
C2309 C2293 1.349 . S
C2309 H2301 0.950 . S
C2309 C2307 1.327 1_554 S
C2310 C2298 1.349 . S
C2310 H2304 0.950 . S
C2310 C2311 1.327 . S
C2311 H2305 0.950 . S
C2311 C2310 1.327 . S
C2311 C2315 1.429 . S
C2312 C2295 1.574 . S
C2312 H2306 0.949 . S
C2312 C2316 1.368 . S
C2313 C2294 1.429 . S
C2313 C2307 1.429 . S
C2313 C2314 1.523 . S
C2314 C2295 1.368 . S
C2314 C2308 1.368 . S
C2314 C2313 1.523 . S
C2315 C2299 1.429 . S
C2315 C2311 1.429 . S
C2315 C2316 1.523 . S
C2316 C2300 1.368 . S
C2316 C2312 1.368 . S
C2316 C2315 1.523 . S
H2317 C2292 0.934 1_554 S
H2318 C2294 0.950 . S
H2319 C2295 0.949 . S
H2320 C2297 0.950 . S
H2321 C2299 0.950 . S
C2322 C2323 1.349 . S
C2322 C2324 1.327 1_554 S
C2322 H2347 0.950 . S
C2323 C2322 1.349 . S
C2323 C2339 1.349 1_554 S
C2324 C2322 1.327 1_556 S
C2324 C2343 1.429 . S
C2324 H2348 0.950 . S
C2325 C2342 1.574 . S
C2325 C2344 1.368 . S
C2325 H2349 0.949 . S
H2326 C2330 0.949 . S
C2327 C2328 1.349 . S
C2327 C2329 1.327 . S
C2327 H2350 0.950 . S
C2328 C2327 1.349 . S
C2328 C2340 1.349 . S
C2329 C2327 1.327 . S
C2329 C2345 1.429 . S
C2329 H2351 0.950 . S
C2330 H2326 0.949 . S
C2330 C2338 1.574 . S
C2330 C2346 1.368 . S
H2331 C2339 0.950 . S
H2332 C2337 0.950 . S
H2333 C2338 0.949 . S
H2334 C2340 0.950 . S
H2335 C2341 0.950 . S
H2336 C2342 0.949 . S
C2337 H2332 0.950 . S
C2337 C2339 1.327 . S
C2337 C2343 1.429 . S
C2338 C2330 1.574 . S
C2338 H2333 0.949 . S
C2338 C2344 1.368 . S
C2339 C2323 1.349 1_556 S
C2339 H2331 0.950 . S
C2339 C2337 1.327 . S
C2340 C2328 1.349 . S
C2340 H2334 0.950 . S
C2340 C2341 1.327 . S
C2341 H2335 0.950 . S
C2341 C2340 1.327 . S
C2341 C2345 1.429 . S
C2342 C2325 1.574 . S
C2342 H2336 0.949 . S
C2342 C2346 1.368 . S
C2343 C2324 1.429 . S
C2343 C2337 1.429 . S
C2343 C2344 1.523 . S
C2344 C2325 1.368 . S
C2344 C2338 1.368 . S
C2344 C2343 1.523 . S
C2345 C2329 1.429 . S
C2345 C2341 1.429 . S
C2345 C2346 1.523 . S
C2346 C2330 1.368 . S
C2346 C2342 1.368 . S
C2346 C2345 1.523 . S
H2347 C2322 0.950 . S
H2348 C2324 0.950 . S
H2349 C2325 0.949 . S
H2350 C2327 0.950 . S
H2351 C2329 0.950 . S
C2352 C2353 1.349 . S
C2352 C2354 1.327 . S
C2352 H2377 0.950 . S
C2353 C2352 1.349 . S
C2353 C2369 1.349 . S
C2354 C2352 1.327 . S
C2354 C2373 1.429 . S
C2354 H2378 0.950 . S
C2355 C2372 1.574 . S
C2355 C2374 1.368 . S
C2355 H2379 0.949 . S
H2356 C2360 0.949 . S
C2357 C2358 1.349 1_455 S
C2357 C2359 1.327 . S
C2357 H2380 0.950 . S
C2358 C2357 1.349 1_655 S
C2358 C2370 1.349 . S
C2359 C2357 1.327 . S
C2359 C2375 1.429 . S
C2359 H2381 0.950 . S
C2360 H2356 0.949 . S
C2360 C2368 1.574 . S
C2360 C2376 1.368 . S
H2361 C2369 0.950 . S
H2362 C2367 0.950 . S
H2363 C2368 0.949 . S
H2364 C2370 0.950 . S
H2365 C2371 0.950 . S
H2366 C2372 0.949 . S
C2367 H2362 0.950 . S
C2367 C2369 1.327 . S
C2367 C2373 1.429 . S
C2368 C2360 1.574 . S
C2368 H2363 0.949 . S
C2368 C2374 1.368 . S
C2369 C2353 1.349 . S
C2369 H2361 0.950 . S
C2369 C2367 1.327 . S
C2370 C2358 1.349 . S
C2370 H2364 0.950 . S
C2370 C2371 1.327 1_655 S
C2371 H2365 0.950 . S
C2371 C2370 1.327 1_455 S
C2371 C2375 1.429 . S
C2372 C2355 1.574 . S
C2372 H2366 0.949 . S
C2372 C2376 1.368 . S
C2373 C2354 1.429 . S
C2373 C2367 1.429 . S
C2373 C2374 1.523 . S
C2374 C2355 1.368 . S
C2374 C2368 1.368 . S
C2374 C2373 1.523 . S
C2375 C2359 1.429 . S
C2375 C2371 1.429 . S
C2375 C2376 1.523 . S
C2376 C2360 1.368 . S
C2376 C2372 1.368 . S
C2376 C2375 1.523 . S
H2377 C2352 0.950 . S
H2378 C2354 0.950 . S
H2379 C2355 0.949 . S
H2380 C2357 0.950 . S
H2381 C2359 0.950 . S
C2382 C2383 1.349 . S
C2382 C2384 1.327 . S
C2382 H2407 0.950 . S
C2383 C2382 1.349 . S
C2383 C2399 1.349 . S
C2384 C2382 1.327 . S
C2384 C2403 1.429 . S
C2384 H2408 0.950 . S
C2385 C2402 1.574 . S
C2385 C2404 1.368 . S
C2385 H2409 0.949 . S
H2386 C2390 0.949 . S
C2387 C2388 1.349 . S
C2387 C2389 1.327 1_565 S
C2387 H2410 0.950 . S
C2388 C2387 1.349 . S
C2388 C2400 1.349 1_565 S
C2389 C2387 1.327 1_545 S
C2389 C2405 1.429 . S
C2389 H2411 0.950 . S
C2390 H2386 0.949 . S
C2390 C2398 1.574 . S
C2390 C2406 1.368 . S
H2391 C2399 0.950 . S
H2392 C2397 0.950 . S
H2393 C2398 0.949 . S
H2394 C2400 0.961 . S
H2395 C2401 0.950 . S
H2396 C2402 0.949 . S
C2397 H2392 0.950 . S
C2397 C2399 1.327 . S
C2397 C2403 1.429 . S
C2398 C2390 1.574 . S
C2398 H2393 0.949 . S
C2398 C2404 1.368 . S
C2399 C2383 1.349 . S
C2399 H2391 0.950 . S
C2399 C2397 1.327 . S
C2400 C2388 1.349 1_545 S
C2400 H2394 0.961 . S
C2400 C2401 1.327 . S
C2401 H2395 0.950 . S
C2401 C2400 1.327 . S
C2401 C2405 1.429 . S
C2402 C2385 1.574 . S
C2402 H2396 0.949 . S
C2402 C2406 1.368 . S
C2403 C2384 1.429 . S
C2403 C2397 1.429 . S
C2403 C2404 1.523 . S
C2404 C2385 1.368 . S
C2404 C2398 1.368 . S
C2404 C2403 1.523 . S
C2405 C2389 1.429 . S
C2405 C2401 1.429 . S
C2405 C2406 1.523 . S
C2406 C2390 1.368 . S
C2406 C2402 1.368 . S
C2406 C2405 1.523 . S
H2407 C2382 0.950 . S
H2408 C2384 0.950 . S
H2409 C2385 0.949 . S
H2410 C2387 0.950 . S
H2411 C2389 0.950 . S
C2412 C2413 1.349 . S
C2412 C2414 1.327 . S
C2412 H2437 0.950 . S
C2413 C2412 1.349 . S
C2413 C2429 1.349 . S
C2414 C2412 1.327 . S
C2414 C2433 1.429 . S
C2414 H2438 0.950 . S
C2415 C2432 1.574 . S
C2415 C2434 1.368 . S
C2415 H2439 0.949 . S
H2416 C2420 0.949 . S
C2417 C2418 1.349 1_655 S
C2417 C2419 1.327 . S
C2417 H2440 0.950 1_655 S
C2418 C2417 1.349 1_455 S
C2418 C2430 1.349 . S
C2419 C2417 1.327 . S
C2419 C2435 1.429 . S
C2419 H2441 0.950 . S
C2420 H2416 0.949 . S
C2420 C2428 1.574 . S
C2420 C2436 1.368 . S
H2421 C2429 0.950 . S
H2422 C2427 0.950 . S
H2423 C2428 0.949 . S
H2424 C2430 0.950 . S
H2425 C2431 0.950 . S
H2426 C2432 0.949 . S
C2427 H2422 0.950 . S
C2427 C2429 1.327 . S
C2427 C2433 1.429 . S
C2428 C2420 1.574 . S
C2428 H2423 0.949 . S
C2428 C2434 1.368 . S
C2429 C2413 1.349 . S
C2429 H2421 0.950 . S
C2429 C2427 1.327 . S
C2430 C2418 1.349 . S
C2430 H2424 0.950 . S
C2430 C2431 1.327 1_455 S
C2431 H2425 0.950 . S
C2431 C2430 1.327 1_655 S
C2431 C2435 1.429 . S
C2432 C2415 1.574 . S
C2432 H2426 0.949 . S
C2432 C2436 1.368 . S
C2433 C2414 1.429 . S
C2433 C2427 1.429 . S
C2433 C2434 1.523 . S
C2434 C2415 1.368 . S
C2434 C2428 1.368 . S
C2434 C2433 1.523 . S
C2435 C2419 1.429 . S
C2435 C2431 1.429 . S
C2435 C2436 1.523 . S
C2436 C2420 1.368 . S
C2436 C2432 1.368 . S
C2436 C2435 1.523 . S
H2437 C2412 0.950 . S
H2438 C2414 0.950 . S
H2439 C2415 0.949 . S
H2440 C2417 0.950 1_455 S
H2441 C2419 0.950 . S
C2442 C2443 1.349 . S
C2442 C2444 1.327 1_545 S
C2442 H2467 0.950 . S
C2443 C2442 1.349 . S
C2443 C2459 1.349 1_545 S
C2444 C2442 1.327 1_565 S
C2444 C2463 1.429 . S
C2444 H2468 0.950 . S
C2445 C2462 1.574 . S
C2445 C2464 1.368 . S
C2445 H2469 0.949 . S
H2446 C2450 0.949 . S
C2447 C2448 1.349 . S
C2447 C2449 1.327 . S
C2447 H2470 0.950 . S
C2448 C2447 1.349 . S
C2448 C2460 1.349 . S
C2449 C2447 1.327 . S
C2449 C2465 1.429 . S
C2449 H2471 0.950 . S
C2450 H2446 0.949 . S
C2450 C2458 1.574 . S
C2450 C2466 1.368 . S
H2451 C2459 0.950 1_545 S
H2452 C2457 0.950 . S
H2453 C2458 0.949 . S
H2454 C2460 0.950 . S
H2455 C2461 0.950 . S
H2456 C2462 0.949 . S
C2457 H2452 0.950 . S
C2457 C2459 1.327 . S
C2457 C2463 1.429 . S
C2458 C2450 1.574 . S
C2458 H2453 0.949 . S
C2458 C2464 1.368 . S
C2459 C2443 1.349 1_565 S
C2459 H2451 0.950 1_565 S
C2459 C2457 1.327 . S
C2460 C2448 1.349 . S
C2460 H2454 0.950 . S
C2460 C2461 1.327 . S
C2461 H2455 0.950 . S
C2461 C2460 1.327 . S
C2461 C2465 1.429 . S
C2462 C2445 1.574 . S
C2462 H2456 0.949 . S
C2462 C2466 1.368 . S
C2463 C2444 1.429 . S
C2463 C2457 1.429 . S
C2463 C2464 1.523 . S
C2464 C2445 1.368 . S
C2464 C2458 1.368 . S
C2464 C2463 1.523 . S
C2465 C2449 1.429 . S
C2465 C2461 1.429 . S
C2465 C2466 1.523 . S
C2466 C2450 1.368 . S
C2466 C2462 1.368 . S
C2466 C2465 1.523 . S
H2467 C2442 0.950 . S
H2468 C2444 0.950 . S
H2469 C2445 0.949 . S
H2470 C2447 0.950 . S
H2471 C2449 0.950 . S
C2472 C2473 1.349 1_455 S
C2472 C2474 1.327 . S
C2472 H2497 0.950 . S
C2473 C2472 1.349 1_655 S
C2473 C2489 1.349 . S
C2474 C2472 1.327 . S
C2474 C2493 1.429 . S
C2474 H2498 0.950 . S
C2475 C2492 1.574 . S
C2475 C2494 1.368 . S
C2475 H2499 0.949 . S
H2476 C2480 0.949 . S
C2477 C2478 1.349 . S
C2477 C2479 1.327 . S
C2477 H2500 0.950 . S
C2478 C2477 1.349 . S
C2478 C2490 1.349 . S
C2479 C2477 1.327 . S
C2479 C2495 1.429 . S
C2479 H2501 0.950 . S
C2480 H2476 0.949 . S
C2480 C2488 1.574 . S
C2480 C2496 1.368 . S
H2481 C2489 0.950 . S
H2482 C2487 0.950 . S
H2483 C2488 0.949 . S
H2484 C2490 0.950 . S
H2485 C2491 0.950 . S
H2486 C2492 0.949 . S
C2487 H2482 0.950 . S
C2487 C2489 1.327 1_455 S
C2487 C2493 1.429 . S
C2488 C2480 1.574 . S
C2488 H2483 0.949 . S
C2488 C2494 1.368 . S
C2489 C2473 1.349 . S
C2489 H2481 0.950 . S
C2489 C2487 1.327 1_655 S
C2490 C2478 1.349 . S
C2490 H2484 0.950 . S
C2490 C2491 1.327 . S
C2491 H2485 0.950 . S
C2491 C2490 1.327 . S
C2491 C2495 1.429 . S
C2492 C2475 1.574 . S
C2492 H2486 0.949 . S
C2492 C2496 1.368 . S
C2493 C2474 1.429 . S
C2493 C2487 1.429 . S
C2493 C2494 1.523 . S
C2494 C2475 1.368 . S
C2494 C2488 1.368 . S
C2494 C2493 1.523 . S
C2495 C2479 1.429 . S
C2495 C2491 1.429 . S
C2495 C2496 1.523 . S
C2496 C2480 1.368 . S
C2496 C2492 1.368 . S
C2496 C2495 1.523 . S
H2497 C2472 0.950 . S
H2498 C2474 0.950 . S
H2499 C2475 0.949 . S
H2500 C2477 0.950 . S
H2501 C2479 0.950 . S
C2502 C2503 1.349 1_545 S
C2502 C2504 1.327 . S
C2502 H2527 0.950 1_545 S
C2503 C2502 1.349 1_565 S
C2503 C2519 1.349 . S
C2504 C2502 1.327 . S
C2504 C2523 1.429 . S
C2504 H2528 0.950 . S
C2505 C2522 1.574 . S
C2505 C2524 1.368 . S
C2505 H2529 0.949 . S
H2506 C2510 0.949 . S
C2507 C2508 1.349 . S
C2507 C2509 1.327 . S
C2507 H2530 0.950 . S
C2508 C2507 1.349 . S
C2508 C2520 1.349 . S
C2509 C2507 1.327 . S
C2509 C2525 1.429 . S
C2509 H2531 0.950 . S
C2510 H2506 0.949 . S
C2510 C2518 1.574 . S
C2510 C2526 1.368 . S
H2511 C2519 0.950 . S
H2512 C2517 0.950 . S
H2513 C2518 0.949 . S
H2514 C2520 0.950 . S
H2515 C2521 0.950 . S
H2516 C2522 0.949 . S
C2517 H2512 0.950 . S
C2517 C2519 1.327 1_545 S
C2517 C2523 1.429 . S
C2518 C2510 1.574 . S
C2518 H2513 0.949 . S
C2518 C2524 1.368 . S
C2519 C2503 1.349 . S
C2519 H2511 0.950 . S
C2519 C2517 1.327 1_565 S
C2520 C2508 1.349 . S
C2520 H2514 0.950 . S
C2520 C2521 1.327 . S
C2521 H2515 0.950 . S
C2521 C2520 1.327 . S
C2521 C2525 1.429 . S
C2522 C2505 1.574 . S
C2522 H2516 0.949 . S
C2522 C2526 1.368 . S
C2523 C2504 1.429 . S
C2523 C2517 1.429 . S
C2523 C2524 1.523 . S
C2524 C2505 1.368 . S
C2524 C2518 1.368 . S
C2524 C2523 1.523 . S
C2525 C2509 1.429 . S
C2525 C2521 1.429 . S
C2525 C2526 1.523 . S
C2526 C2510 1.368 . S
C2526 C2522 1.368 . S
C2526 C2525 1.523 . S
H2527 C2502 0.950 1_565 S
H2528 C2504 0.950 . S
H2529 C2505 0.949 . S
H2530 C2507 0.950 . S
H2531 C2509 0.950 . S
C2532 C2533 1.349 1_655 S
C2532 C2534 1.327 . S
C2532 H2557 0.954 . S
C2533 C2532 1.349 1_455 S
C2533 C2549 1.349 . S
C2534 C2532 1.327 . S
C2534 C2553 1.429 . S
C2534 H2558 0.950 . S
C2535 C2552 1.574 . S
C2535 C2554 1.368 . S
C2535 H2559 0.949 . S
H2536 C2540 0.949 . S
C2537 C2538 1.349 . S
C2537 C2539 1.327 . S
C2537 H2560 0.950 . S
C2538 C2537 1.349 . S
C2538 C2550 1.349 . S
C2539 C2537 1.327 . S
C2539 C2555 1.429 . S
C2539 H2561 0.950 . S
C2540 H2536 0.949 . S
C2540 C2548 1.574 . S
C2540 C2556 1.368 . S
H2541 C2549 0.950 . S
H2542 C2547 0.950 . S
H2543 C2548 0.949 . S
H2544 C2550 0.950 . S
H2545 C2551 0.950 . S
H2546 C2552 0.949 . S
C2547 H2542 0.950 . S
C2547 C2549 1.327 1_655 S
C2547 C2553 1.429 . S
C2548 C2540 1.574 . S
C2548 H2543 0.949 . S
C2548 C2554 1.368 . S
C2549 C2533 1.349 . S
C2549 H2541 0.950 . S
C2549 C2547 1.327 1_455 S
C2550 C2538 1.349 . S
C2550 H2544 0.950 . S
C2550 C2551 1.327 . S
C2551 H2545 0.950 . S
C2551 C2550 1.327 . S
C2551 C2555 1.429 . S
C2552 C2535 1.574 . S
C2552 H2546 0.949 . S
C2552 C2556 1.368 . S
C2553 C2534 1.429 . S
C2553 C2547 1.429 . S
C2553 C2554 1.523 . S
C2554 C2535 1.368 . S
C2554 C2548 1.368 . S
C2554 C2553 1.523 . S
C2555 C2539 1.429 . S
C2555 C2551 1.429 . S
C2555 C2556 1.523 . S
C2556 C2540 1.368 . S
C2556 C2552 1.368 . S
C2556 C2555 1.523 . S
H2557 C2532 0.954 . S
H2558 C2534 0.950 . S
H2559 C2535 0.949 . S
H2560 C2537 0.950 . S
H2561 C2539 0.950 . S
C2562 C2563 1.349 . S
C2562 C2564 1.327 . S
C2562 H2587 0.950 . S
C2563 C2562 1.349 . S
C2563 C2579 1.349 . S
C2564 C2562 1.327 . S
C2564 C2583 1.429 . S
C2564 H2588 0.950 . S
C2565 C2582 1.574 . S
C2565 C2584 1.368 . S
C2565 H2589 0.949 . S
H2566 C2570 0.949 . S
C2567 C2568 1.349 1_565 S
C2567 C2569 1.327 . S
C2567 H2590 0.960 . S
C2568 C2567 1.349 1_545 S
C2568 C2580 1.349 . S
C2569 C2567 1.327 . S
C2569 C2585 1.429 . S
C2569 H2591 0.950 . S
C2570 H2566 0.949 . S
C2570 C2578 1.574 . S
C2570 C2586 1.368 . S
H2571 C2579 0.950 . S
H2572 C2577 0.950 . S
H2573 C2578 0.949 . S
H2574 C2580 0.950 . S
H2575 C2581 0.950 . S
H2576 C2582 0.949 . S
C2577 H2572 0.950 . S
C2577 C2579 1.327 . S
C2577 C2583 1.429 . S
C2578 C2570 1.574 . S
C2578 H2573 0.949 . S
C2578 C2584 1.368 . S
C2579 C2563 1.349 . S
C2579 H2571 0.950 . S
C2579 C2577 1.327 . S
C2580 C2568 1.349 . S
C2580 H2574 0.950 . S
C2580 C2581 1.327 1_545 S
C2581 H2575 0.950 . S
C2581 C2580 1.327 1_565 S
C2581 C2585 1.429 . S
C2582 C2565 1.574 . S
C2582 H2576 0.949 . S
C2582 C2586 1.368 . S
C2583 C2564 1.429 . S
C2583 C2577 1.429 . S
C2583 C2584 1.523 . S
C2584 C2565 1.368 . S
C2584 C2578 1.368 . S
C2584 C2583 1.523 . S
C2585 C2569 1.429 . S
C2585 C2581 1.429 . S
C2585 C2586 1.523 . S
C2586 C2570 1.368 . S
C2586 C2582 1.368 . S
C2586 C2585 1.523 . S
H2587 C2562 0.950 . S
H2588 C2564 0.950 . S
H2589 C2565 0.949 . S
H2590 C2567 0.960 . S
H2591 C2569 0.950 . S
C2592 C2593 1.349 . S
C2592 C2594 1.327 1_565 S
C2592 H2617 0.950 . S
C2593 C2592 1.349 . S
C2593 C2609 1.349 1_565 S
C2594 C2592 1.327 1_545 S
C2594 C2613 1.429 . S
C2594 H2618 0.950 . S
C2595 C2612 1.574 . S
C2595 C2614 1.368 . S
C2595 H2619 0.949 . S
H2596 C2600 0.949 . S
C2597 C2598 1.349 . S
C2597 C2599 1.327 . S
C2597 H2620 0.950 . S
C2598 C2597 1.349 . S
C2598 C2610 1.349 . S
C2599 C2597 1.327 . S
C2599 C2615 1.429 . S
C2599 H2621 0.950 . S
C2600 H2596 0.949 . S
C2600 C2608 1.574 . S
C2600 C2616 1.368 . S
H2601 C2609 0.950 . S
H2602 C2607 0.950 . S
H2603 C2608 0.949 . S
H2604 C2610 0.950 . S
H2605 C2611 0.950 . S
H2606 C2612 0.949 . S
C2607 H2602 0.950 . S
C2607 C2609 1.327 . S
C2607 C2613 1.429 . S
C2608 C2600 1.574 . S
C2608 H2603 0.949 . S
C2608 C2614 1.368 . S
C2609 C2593 1.349 1_545 S
C2609 H2601 0.950 . S
C2609 C2607 1.327 . S
C2610 C2598 1.349 . S
C2610 H2604 0.950 . S
C2610 C2611 1.327 . S
C2611 H2605 0.950 . S
C2611 C2610 1.327 . S
C2611 C2615 1.429 . S
C2612 C2595 1.574 . S
C2612 H2606 0.949 . S
C2612 C2616 1.368 . S
C2613 C2594 1.429 . S
C2613 C2607 1.429 . S
C2613 C2614 1.523 . S
C2614 C2595 1.368 . S
C2614 C2608 1.368 . S
C2614 C2613 1.523 . S
C2615 C2599 1.429 . S
C2615 C2611 1.429 . S
C2615 C2616 1.523 . S
C2616 C2600 1.368 . S
C2616 C2612 1.368 . S
C2616 C2615 1.523 . S
H2617 C2592 0.950 . S
H2618 C2594 0.950 . S
H2619 C2595 0.949 . S
H2620 C2597 0.950 . S
H2621 C2599 0.950 . S
C2622 C2623 1.349 . S
C2622 C2624 1.327 1_545 S
C2622 H2647 0.950 . S
C2623 C2622 1.349 . S
C2623 C2639 1.349 1_545 S
C2624 C2622 1.327 1_565 S
C2624 C2643 1.429 . S
C2624 H2648 0.950 . S
C2625 C2642 1.574 . S
C2625 C2644 1.368 . S
C2625 H2649 0.949 . S
H2626 C2630 0.949 . S
C2627 C2628 1.349 . S
C2627 C2629 1.327 . S
C2627 H2650 0.950 . S
C2628 C2627 1.349 . S
C2628 C2640 1.349 . S
C2629 C2627 1.327 . S
C2629 C2645 1.429 . S
C2629 H2651 0.950 . S
C2630 H2626 0.949 . S
C2630 C2638 1.574 . S
C2630 C2646 1.368 . S
H2631 C2639 0.950 . S
H2632 C2637 0.950 . S
H2633 C2638 0.949 . S
H2634 C2640 0.950 . S
H2635 C2641 0.950 . S
H2636 C2642 0.949 . S
C2637 H2632 0.950 . S
C2637 C2639 1.327 . S
C2637 C2643 1.429 . S
C2638 C2630 1.574 . S
C2638 H2633 0.949 . S
C2638 C2644 1.368 . S
C2639 C2623 1.349 1_565 S
C2639 H2631 0.950 . S
C2639 C2637 1.327 . S
C2640 C2628 1.349 . S
C2640 H2634 0.950 . S
C2640 C2641 1.327 . S
C2641 H2635 0.950 . S
C2641 C2640 1.327 . S
C2641 C2645 1.429 . S
C2642 C2625 1.574 . S
C2642 H2636 0.949 . S
C2642 C2646 1.368 . S
C2643 C2624 1.429 . S
C2643 C2637 1.429 . S
C2643 C2644 1.523 . S
C2644 C2625 1.368 . S
C2644 C2638 1.368 . S
C2644 C2643 1.523 . S
C2645 C2629 1.429 . S
C2645 C2641 1.429 . S
C2645 C2646 1.523 . S
C2646 C2630 1.368 . S
C2646 C2642 1.368 . S
C2646 C2645 1.523 . S
H2647 C2622 0.950 . S
H2648 C2624 0.950 . S
H2649 C2625 0.949 . S
H2650 C2627 0.950 . S
H2651 C2629 0.950 . S
C2652 C2653 1.349 . S
C2652 C2654 1.327 1_655 S
C2652 H2677 0.950 . S
C2653 C2652 1.349 . S
C2653 C2669 1.349 1_655 S
C2654 C2652 1.327 1_455 S
C2654 C2673 1.429 . S
C2654 H2678 0.950 . S
C2655 C2672 1.574 . S
C2655 C2674 1.368 . S
C2655 H2679 0.949 . S
H2656 C2660 0.949 . S
C2657 C2658 1.349 . S
C2657 C2659 1.327 . S
C2657 H2680 0.950 . S
C2658 C2657 1.349 . S
C2658 C2670 1.349 . S
C2659 C2657 1.327 . S
C2659 C2675 1.429 . S
C2659 H2681 0.950 . S
C2660 H2656 0.949 . S
C2660 C2668 1.574 . S
C2660 C2676 1.368 . S
H2661 C2669 0.950 . S
H2662 C2667 0.950 . S
H2663 C2668 0.949 . S
H2664 C2670 0.950 . S
H2665 C2671 0.950 . S
H2666 C2672 0.949 . S
C2667 H2662 0.950 . S
C2667 C2669 1.327 . S
C2667 C2673 1.429 . S
C2668 C2660 1.574 . S
C2668 H2663 0.949 . S
C2668 C2674 1.368 . S
C2669 C2653 1.349 1_455 S
C2669 H2661 0.950 . S
C2669 C2667 1.327 . S
C2670 C2658 1.349 . S
C2670 H2664 0.950 . S
C2670 C2671 1.327 . S
C2671 H2665 0.950 . S
C2671 C2670 1.327 . S
C2671 C2675 1.429 . S
C2672 C2655 1.574 . S
C2672 H2666 0.949 . S
C2672 C2676 1.368 . S
C2673 C2654 1.429 . S
C2673 C2667 1.429 . S
C2673 C2674 1.523 . S
C2674 C2655 1.368 . S
C2674 C2668 1.368 . S
C2674 C2673 1.523 . S
C2675 C2659 1.429 . S
C2675 C2671 1.429 . S
C2675 C2676 1.523 . S
C2676 C2660 1.368 . S
C2676 C2672 1.368 . S
C2676 C2675 1.523 . S
H2677 C2652 0.950 . S
H2678 C2654 0.950 . S
H2679 C2655 0.949 . S
H2680 C2657 0.950 . S
H2681 C2659 0.950 . S
C2682 C2683 1.349 . S
C2682 C2684 1.327 . S
C2682 H2707 0.950 . S
C2683 C2682 1.349 . S
C2683 C2699 1.349 . S
C2684 C2682 1.327 . S
C2684 C2703 1.429 . S
C2684 H2708 0.950 . S
C2685 C2702 1.574 . S
C2685 C2704 1.368 . S
C2685 H2709 0.949 . S
H2686 C2690 0.949 . S
C2687 C2688 1.349 1_545 S
C2687 C2689 1.327 . S
C2687 H2710 0.962 . S
C2688 C2687 1.349 1_565 S
C2688 C2700 1.349 . S
C2689 C2687 1.327 . S
C2689 C2705 1.429 . S
C2689 H2711 0.950 . S
C2690 H2686 0.949 . S
C2690 C2698 1.574 . S
C2690 C2706 1.368 . S
H2691 C2699 0.950 . S
H2692 C2697 0.950 . S
H2693 C2698 0.949 . S
H2694 C2700 0.950 . S
H2695 C2701 0.950 . S
H2696 C2702 0.949 . S
C2697 H2692 0.950 . S
C2697 C2699 1.327 . S
C2697 C2703 1.429 . S
C2698 C2690 1.574 . S
C2698 H2693 0.949 . S
C2698 C2704 1.368 . S
C2699 C2683 1.349 . S
C2699 H2691 0.950 . S
C2699 C2697 1.327 . S
C2700 C2688 1.349 . S
C2700 H2694 0.950 . S
C2700 C2701 1.327 1_565 S
C2701 H2695 0.950 . S
C2701 C2700 1.327 1_545 S
C2701 C2705 1.429 . S
C2702 C2685 1.574 . S
C2702 H2696 0.949 . S
C2702 C2706 1.368 . S
C2703 C2684 1.429 . S
C2703 C2697 1.429 . S
C2703 C2704 1.523 . S
C2704 C2685 1.368 . S
C2704 C2698 1.368 . S
C2704 C2703 1.523 . S
C2705 C2689 1.429 . S
C2705 C2701 1.429 . S
C2705 C2706 1.523 . S
C2706 C2690 1.368 . S
C2706 C2702 1.368 . S
C2706 C2705 1.523 . S
H2707 C2682 0.950 . S
H2708 C2684 0.950 . S
H2709 C2685 0.949 . S
H2710 C2687 0.962 . S
H2711 C2689 0.950 . S
C2712 C2713 1.349 . S
C2712 C2714 1.327 1_455 S
C2712 H2737 0.950 . S
C2713 C2712 1.349 . S
C2713 C2729 1.349 1_455 S
C2714 C2712 1.327 1_655 S
C2714 C2733 1.429 . S
C2714 H2738 0.950 . S
C2715 C2732 1.574 . S
C2715 C2734 1.368 . S
C2715 H2739 0.949 . S
H2716 C2720 0.949 . S
C2717 C2718 1.349 . S
C2717 C2719 1.327 . S
C2717 H2740 0.950 . S
C2718 C2717 1.349 . S
C2718 C2730 1.349 . S
C2719 C2717 1.327 . S
C2719 C2735 1.429 . S
C2719 H2741 0.950 . S
C2720 H2716 0.949 . S
C2720 C2728 1.574 . S
C2720 C2736 1.368 . S
H2721 C2729 0.955 . S
H2722 C2727 0.950 . S
H2723 C2728 0.949 . S
H2724 C2730 0.950 . S
H2725 C2731 0.950 . S
H2726 C2732 0.949 . S
C2727 H2722 0.950 . S
C2727 C2729 1.327 . S
C2727 C2733 1.429 . S
C2728 C2720 1.574 . S
C2728 H2723 0.949 . S
C2728 C2734 1.368 . S
C2729 C2713 1.349 1_655 S
C2729 H2721 0.955 . S
C2729 C2727 1.327 . S
C2730 C2718 1.349 . S
C2730 H2724 0.950 . S
C2730 C2731 1.327 . S
C2731 H2725 0.950 . S
C2731 C2730 1.327 . S
C2731 C2735 1.429 . S
C2732 C2715 1.574 . S
C2732 H2726 0.949 . S
C2732 C2736 1.368 . S
C2733 C2714 1.429 . S
C2733 C2727 1.429 . S
C2733 C2734 1.523 . S
C2734 C2715 1.368 . S
C2734 C2728 1.368 . S
C2734 C2733 1.523 . S
C2735 C2719 1.429 . S
C2735 C2731 1.429 . S
C2735 C2736 1.523 . S
C2736 C2720 1.368 . S
C2736 C2732 1.368 . S
C2736 C2735 1.523 . S
H2737 C2712 0.950 . S
H2738 C2714 0.950 . S
H2739 C2715 0.949 . S
H2740 C2717 0.950 . S
H2741 C2719 0.950 . S
C2742 C2743 1.349 1_565 S
C2742 C2744 1.327 . S
C2742 H2767 0.946 1_565 S
C2743 C2742 1.349 1_545 S
C2743 C2759 1.349 . S
C2744 C2742 1.327 . S
C2744 C2763 1.429 . S
C2744 H2768 0.950 . S
C2745 C2762 1.574 . S
C2745 C2764 1.368 . S
C2745 H2769 0.949 . S
H2746 C2750 0.949 . S
C2747 C2748 1.349 . S
C2747 C2749 1.327 . S
C2747 H2770 0.950 . S
C2748 C2747 1.349 . S
C2748 C2760 1.349 . S
C2749 C2747 1.327 . S
C2749 C2765 1.429 . S
C2749 H2771 0.950 . S
C2750 H2746 0.949 . S
C2750 C2758 1.574 . S
C2750 C2766 1.368 . S
H2751 C2759 0.950 . S
H2752 C2757 0.950 . S
H2753 C2758 0.949 . S
H2754 C2760 0.950 . S
H2755 C2761 0.950 . S
H2756 C2762 0.949 . S
C2757 H2752 0.950 . S
C2757 C2759 1.327 1_565 S
C2757 C2763 1.429 . S
C2758 C2750 1.574 . S
C2758 H2753 0.949 . S
C2758 C2764 1.368 . S
C2759 C2743 1.349 . S
C2759 H2751 0.950 . S
C2759 C2757 1.327 1_545 S
C2760 C2748 1.349 . S
C2760 H2754 0.950 . S
C2760 C2761 1.327 . S
C2761 H2755 0.950 . S
C2761 C2760 1.327 . S
C2761 C2765 1.429 . S
C2762 C2745 1.574 . S
C2762 H2756 0.949 . S
C2762 C2766 1.368 . S
C2763 C2744 1.429 . S
C2763 C2757 1.429 . S
C2763 C2764 1.523 . S
C2764 C2745 1.368 . S
C2764 C2758 1.368 . S
C2764 C2763 1.523 . S
C2765 C2749 1.429 . S
C2765 C2761 1.429 . S
C2765 C2766 1.523 . S
C2766 C2750 1.368 . S
C2766 C2762 1.368 . S
C2766 C2765 1.523 . S
H2767 C2742 0.946 1_545 S
H2768 C2744 0.950 . S
H2769 C2745 0.949 . S
H2770 C2747 0.950 . S
H2771 C2749 0.950 . S
C2772 C2773 1.349 1_455 S
C2772 C2774 1.327 . S
C2772 H2797 0.950 . S
C2773 C2772 1.349 1_655 S
C2773 C2789 1.349 . S
C2774 C2772 1.327 . S
C2774 C2793 1.429 . S
C2774 H2798 0.950 . S
C2775 C2792 1.574 . S
C2775 C2794 1.368 . S
C2775 H2799 0.949 . S
H2776 C2780 0.949 . S
C2777 C2778 1.349 . S
C2777 C2779 1.327 . S
C2777 H2800 0.950 . S
C2778 C2777 1.349 . S
C2778 C2790 1.349 . S
C2779 C2777 1.327 . S
C2779 C2795 1.429 . S
C2779 H2801 0.950 . S
C2780 H2776 0.949 . S
C2780 C2788 1.574 . S
C2780 C2796 1.368 . S
H2781 C2789 0.950 . S
H2782 C2787 0.950 . S
H2783 C2788 0.949 . S
H2784 C2790 0.950 . S
H2785 C2791 0.950 . S
H2786 C2792 0.949 . S
C2787 H2782 0.950 . S
C2787 C2789 1.327 1_455 S
C2787 C2793 1.429 . S
C2788 C2780 1.574 . S
C2788 H2783 0.949 . S
C2788 C2794 1.368 . S
C2789 C2773 1.349 . S
C2789 H2781 0.950 . S
C2789 C2787 1.327 1_655 S
C2790 C2778 1.349 . S
C2790 H2784 0.950 . S
C2790 C2791 1.327 . S
C2791 H2785 0.950 . S
C2791 C2790 1.327 . S
C2791 C2795 1.429 . S
C2792 C2775 1.574 . S
C2792 H2786 0.949 . S
C2792 C2796 1.368 . S
C2793 C2774 1.429 . S
C2793 C2787 1.429 . S
C2793 C2794 1.523 . S
C2794 C2775 1.368 . S
C2794 C2788 1.368 . S
C2794 C2793 1.523 . S
C2795 C2779 1.429 . S
C2795 C2791 1.429 . S
C2795 C2796 1.523 . S
C2796 C2780 1.368 . S
C2796 C2792 1.368 . S
C2796 C2795 1.523 . S
H2797 C2772 0.950 . S
H2798 C2774 0.950 . S
H2799 C2775 0.949 . S
H2800 C2777 0.950 . S
H2801 C2779 0.950 . S
C2802 C2803 1.349 . S
C2802 C2804 1.327 1_455 S
C2802 H2827 0.950 . S
C2803 C2802 1.349 . S
C2803 C2819 1.349 1_455 S
C2804 C2802 1.327 1_655 S
C2804 C2823 1.429 . S
C2804 H2828 0.950 . S
C2805 C2822 1.574 . S
C2805 C2824 1.368 . S
C2805 H2829 0.949 . S
H2806 C2810 0.949 . S
C2807 C2808 1.349 . S
C2807 C2809 1.327 . S
C2807 H2830 0.950 . S
C2808 C2807 1.349 . S
C2808 C2820 1.349 . S
C2809 C2807 1.327 . S
C2809 C2825 1.429 . S
C2809 H2831 0.950 . S
C2810 H2806 0.949 . S
C2810 C2818 1.574 . S
C2810 C2826 1.368 . S
H2811 C2819 0.949 . S
H2812 C2817 0.950 . S
H2813 C2818 0.949 . S
H2814 C2820 0.950 . S
H2815 C2821 0.950 . S
H2816 C2822 0.949 . S
C2817 H2812 0.950 . S
C2817 C2819 1.327 . S
C2817 C2823 1.429 . S
C2818 C2810 1.574 . S
C2818 H2813 0.949 . S
C2818 C2824 1.368 . S
C2819 C2803 1.349 1_655 S
C2819 H2811 0.949 . S
C2819 C2817 1.327 . S
C2820 C2808 1.349 . S
C2820 H2814 0.950 . S
C2820 C2821 1.327 . S
C2821 H2815 0.950 . S
C2821 C2820 1.327 . S
C2821 C2825 1.429 . S
C2822 C2805 1.574 . S
C2822 H2816 0.949 . S
C2822 C2826 1.368 . S
C2823 C2804 1.429 . S
C2823 C2817 1.429 . S
C2823 C2824 1.523 . S
C2824 C2805 1.368 . S
C2824 C2818 1.368 . S
C2824 C2823 1.523 . S
C2825 C2809 1.429 . S
C2825 C2821 1.429 . S
C2825 C2826 1.523 . S
C2826 C2810 1.368 . S
C2826 C2822 1.368 . S
C2826 C2825 1.523 . S
H2827 C2802 0.950 . S
H2828 C2804 0.950 . S
H2829 C2805 0.949 . S
H2830 C2807 0.950 . S
H2831 C2809 0.950 . S
C2832 C2833 1.349 . S
C2832 C2834 1.327 . S
C2832 H2857 0.950 . S
C2833 C2832 1.349 . S
C2833 C2849 1.349 . S
C2834 C2832 1.327 . S
C2834 C2853 1.429 . S
C2834 H2858 0.950 . S
C2835 C2852 1.574 . S
C2835 C2854 1.368 . S
C2835 H2859 0.949 . S
H2836 C2840 0.949 . S
C2837 C2838 1.349 . S
C2837 C2839 1.327 . S
C2837 H2860 0.950 . S
C2838 C2837 1.349 . S
C2838 C2850 1.349 . S
C2839 C2837 1.327 . S
C2839 C2855 1.429 . S
C2839 H2861 0.950 . S
C2840 H2836 0.949 . S
C2840 C2848 1.574 . S
C2840 C2856 1.368 . S
H2841 C2849 0.950 . S
H2842 C2847 0.950 . S
H2843 C2848 0.949 . S
H2844 C2850 0.950 . S
H2845 C2851 0.950 . S
H2846 C2852 0.949 . S
C2847 H2842 0.950 . S
C2847 C2849 1.327 . S
C2847 C2853 1.429 . S
C2848 C2840 1.574 . S
C2848 H2843 0.949 . S
C2848 C2854 1.368 . S
C2849 C2833 1.349 . S
C2849 H2841 0.950 . S
C2849 C2847 1.327 . S
C2850 C2838 1.349 . S
C2850 H2844 0.950 . S
C2850 C2851 1.327 . S
C2851 H2845 0.950 . S
C2851 C2850 1.327 . S
C2851 C2855 1.429 . S
C2852 C2835 1.574 . S
C2852 H2846 0.949 . S
C2852 C2856 1.368 . S
C2853 C2834 1.429 . S
C2853 C2847 1.429 . S
C2853 C2854 1.523 . S
C2854 C2835 1.368 . S
C2854 C2848 1.368 . S
C2854 C2853 1.523 . S
C2855 C2839 1.429 . S
C2855 C2851 1.429 . S
C2855 C2856 1.523 . S
C2856 C2840 1.368 . S
C2856 C2852 1.368 . S
C2856 C2855 1.523 . S
H2857 C2832 0.950 . S
H2858 C2834 0.950 . S
H2859 C2835 0.949 . S
H2860 C2837 0.950 . S
H2861 C2839 0.950 . S
C2862 C2863 1.349 . S
C2862 C2864 1.327 . S
C2862 H2887 0.950 . S
C2863 C2862 1.349 . S
C2863 C2879 1.349 . S
C2864 C2862 1.327 . S
C2864 C2883 1.429 . S
C2864 H2888 0.950 . S
C2865 C2882 1.574 . S
C2865 C2884 1.368 . S
C2865 H2889 0.949 . S
H2866 C2870 0.949 . S
C2867 C2868 1.349 . S
C2867 C2869 1.327 . S
C2867 H2890 0.950 . S
C2868 C2867 1.349 . S
C2868 C2880 1.349 . S
C2869 C2867 1.327 . S
C2869 C2885 1.429 . S
C2869 H2891 0.950 . S
C2870 H2866 0.949 . S
C2870 C2878 1.574 . S
C2870 C2886 1.368 . S
H2871 C2879 0.950 . S
H2872 C2877 0.950 . S
H2873 C2878 0.949 . S
H2874 C2880 0.950 . S
H2875 C2881 0.950 . S
H2876 C2882 0.949 . S
C2877 H2872 0.950 . S
C2877 C2879 1.327 . S
C2877 C2883 1.429 . S
C2878 C2870 1.574 . S
C2878 H2873 0.949 . S
C2878 C2884 1.368 . S
C2879 C2863 1.349 . S
C2879 H2871 0.950 . S
C2879 C2877 1.327 . S
C2880 C2868 1.349 . S
C2880 H2874 0.950 . S
C2880 C2881 1.327 . S
C2881 H2875 0.950 . S
C2881 C2880 1.327 . S
C2881 C2885 1.429 . S
C2882 C2865 1.574 . S
C2882 H2876 0.949 . S
C2882 C2886 1.368 . S
C2883 C2864 1.429 . S
C2883 C2877 1.429 . S
C2883 C2884 1.523 . S
C2884 C2865 1.368 . S
C2884 C2878 1.368 . S
C2884 C2883 1.523 . S
C2885 C2869 1.429 . S
C2885 C2881 1.429 . S
C2885 C2886 1.523 . S
C2886 C2870 1.368 . S
C2886 C2882 1.368 . S
C2886 C2885 1.523 . S
H2887 C2862 0.950 . S
H2888 C2864 0.950 . S
H2889 C2865 0.949 . S
H2890 C2867 0.950 . S
H2891 C2869 0.950 . S
C2892 C2893 1.349 . S
C2892 C2894 1.327 . S
C2892 H2917 0.950 . S
C2893 C2892 1.349 . S
C2893 C2909 1.349 . S
C2894 C2892 1.327 . S
C2894 C2913 1.429 . S
C2894 H2918 0.950 . S
C2895 C2912 1.574 . S
C2895 C2914 1.368 . S
C2895 H2919 0.949 . S
H2896 C2900 0.949 . S
C2897 C2898 1.349 . S
C2897 C2899 1.327 . S
C2897 H2920 0.950 . S
C2898 C2897 1.349 . S
C2898 C2910 1.349 . S
C2899 C2897 1.327 . S
C2899 C2915 1.429 . S
C2899 H2921 0.950 . S
C2900 H2896 0.949 . S
C2900 C2908 1.574 . S
C2900 C2916 1.368 . S
H2901 C2909 0.950 . S
H2902 C2907 0.950 . S
H2903 C2908 0.949 . S
H2904 C2910 0.950 . S
H2905 C2911 0.950 . S
H2906 C2912 0.949 . S
C2907 H2902 0.950 . S
C2907 C2909 1.327 . S
C2907 C2913 1.429 . S
C2908 C2900 1.574 . S
C2908 H2903 0.949 . S
C2908 C2914 1.368 . S
C2909 C2893 1.349 . S
C2909 H2901 0.950 . S
C2909 C2907 1.327 . S
C2910 C2898 1.349 . S
C2910 H2904 0.950 . S
C2910 C2911 1.327 . S
C2911 H2905 0.950 . S
C2911 C2910 1.327 . S
C2911 C2915 1.429 . S
C2912 C2895 1.574 . S
C2912 H2906 0.949 . S
C2912 C2916 1.368 . S
C2913 C2894 1.429 . S
C2913 C2907 1.429 . S
C2913 C2914 1.523 . S
C2914 C2895 1.368 . S
C2914 C2908 1.368 . S
C2914 C2913 1.523 . S
C2915 C2899 1.429 . S
C2915 C2911 1.429 . S
C2915 C2916 1.523 . S
C2916 C2900 1.368 . S
C2916 C2912 1.368 . S
C2916 C2915 1.523 . S
H2917 C2892 0.950 . S
H2918 C2894 0.950 . S
H2919 C2895 0.949 . S
H2920 C2897 0.950 . S
H2921 C2899 0.950 . S
C2922 C2923 1.349 . S
C2922 C2924 1.327 . S
C2922 H2947 0.950 . S
C2923 C2922 1.349 . S
C2923 C2939 1.349 . S
C2924 C2922 1.327 . S
C2924 C2943 1.429 . S
C2924 H2948 0.950 . S
C2925 C2942 1.574 . S
C2925 C2944 1.368 . S
C2925 H2949 0.949 . S
H2926 C2930 0.949 . S
C2927 C2928 1.349 . S
C2927 C2929 1.327 . S
C2927 H2950 0.950 . S
C2928 C2927 1.349 . S
C2928 C2940 1.349 . S
C2929 C2927 1.327 . S
C2929 C2945 1.429 . S
C2929 H2951 0.950 . S
C2930 H2926 0.949 . S
C2930 C2938 1.574 . S
C2930 C2946 1.368 . S
H2931 C2939 0.950 . S
H2932 C2937 0.950 . S
H2933 C2938 0.949 . S
H2934 C2940 0.950 . S
H2935 C2941 0.950 . S
H2936 C2942 0.949 . S
C2937 H2932 0.950 . S
C2937 C2939 1.327 . S
C2937 C2943 1.429 . S
C2938 C2930 1.574 . S
C2938 H2933 0.949 . S
C2938 C2944 1.368 . S
C2939 C2923 1.349 . S
C2939 H2931 0.950 . S
C2939 C2937 1.327 . S
C2940 C2928 1.349 . S
C2940 H2934 0.950 . S
C2940 C2941 1.327 . S
C2941 H2935 0.950 . S
C2941 C2940 1.327 . S
C2941 C2945 1.429 . S
C2942 C2925 1.574 . S
C2942 H2936 0.949 . S
C2942 C2946 1.368 . S
C2943 C2924 1.429 . S
C2943 C2937 1.429 . S
C2943 C2944 1.523 . S
C2944 C2925 1.368 . S
C2944 C2938 1.368 . S
C2944 C2943 1.523 . S
C2945 C2929 1.429 . S
C2945 C2941 1.429 . S
C2945 C2946 1.523 . S
C2946 C2930 1.368 . S
C2946 C2942 1.368 . S
C2946 C2945 1.523 . S
H2947 C2922 0.950 . S
H2948 C2924 0.950 . S
H2949 C2925 0.949 . S
H2950 C2927 0.950 . S
H2951 C2929 0.950 . S
C2952 C2953 1.349 . S
C2952 C2954 1.327 . S
C2952 H2977 0.950 . S
C2953 C2952 1.349 . S
C2953 C2969 1.349 . S
C2954 C2952 1.327 . S
C2954 C2973 1.429 . S
C2954 H2978 0.950 . S
C2955 C2972 1.574 . S
C2955 C2974 1.368 . S
C2955 H2979 0.949 . S
H2956 C2960 0.949 . S
C2957 C2958 1.349 . S
C2957 C2959 1.327 . S
C2957 H2980 0.950 . S
C2958 C2957 1.349 . S
C2958 C2970 1.349 . S
C2959 C2957 1.327 . S
C2959 C2975 1.429 . S
C2959 H2981 0.950 . S
C2960 H2956 0.949 . S
C2960 C2968 1.574 . S
C2960 C2976 1.368 . S
H2961 C2969 0.950 . S
H2962 C2967 0.950 . S
H2963 C2968 0.949 . S
H2964 C2970 0.950 . S
H2965 C2971 0.950 . S
H2966 C2972 0.949 . S
C2967 H2962 0.950 . S
C2967 C2969 1.327 . S
C2967 C2973 1.429 . S
C2968 C2960 1.574 . S
C2968 H2963 0.949 . S
C2968 C2974 1.368 . S
C2969 C2953 1.349 . S
C2969 H2961 0.950 . S
C2969 C2967 1.327 . S
C2970 C2958 1.349 . S
C2970 H2964 0.950 . S
C2970 C2971 1.327 . S
C2971 H2965 0.950 . S
C2971 C2970 1.327 . S
C2971 C2975 1.429 . S
C2972 C2955 1.574 . S
C2972 H2966 0.949 . S
C2972 C2976 1.368 . S
C2973 C2954 1.429 . S
C2973 C2967 1.429 . S
C2973 C2974 1.523 . S
C2974 C2955 1.368 . S
C2974 C2968 1.368 . S
C2974 C2973 1.523 . S
C2975 C2959 1.429 . S
C2975 C2971 1.429 . S
C2975 C2976 1.523 . S
C2976 C2960 1.368 . S
C2976 C2972 1.368 . S
C2976 C2975 1.523 . S
H2977 C2952 0.950 . S
H2978 C2954 0.950 . S
H2979 C2955 0.949 . S
H2980 C2957 0.950 . S
H2981 C2959 0.950 . S
C2982 C2983 1.349 . S
C2982 C2984 1.327 . S
C2982 H3007 0.950 . S
C2983 C2982 1.349 . S
C2983 C2999 1.349 . S
C2984 C2982 1.327 . S
C2984 C3003 1.429 . S
C2984 H3008 0.950 . S
C2985 C3002 1.574 . S
C2985 C3004 1.368 . S
C2985 H3009 0.949 . S
H2986 C2990 0.949 . S
C2987 C2988 1.349 . S
C2987 C2989 1.327 . S
C2987 H3010 0.950 . S
C2988 C2987 1.349 . S
C2988 C3000 1.349 . S
C2989 C2987 1.327 . S
C2989 C3005 1.429 . S
C2989 H3011 0.950 . S
C2990 H2986 0.949 . S
C2990 C2998 1.574 . S
C2990 C3006 1.368 . S
H2991 C2999 0.950 . S
H2992 C2997 0.950 . S
H2993 C2998 0.949 . S
H2994 C3000 0.950 . S
H2995 C3001 0.950 . S
H2996 C3002 0.949 . S
C2997 H2992 0.950 . S
C2997 C2999 1.327 . S
C2997 C3003 1.429 . S
C2998 C2990 1.574 . S
C2998 H2993 0.949 . S
C2998 C3004 1.368 . S
C2999 C2983 1.349 . S
C2999 H2991 0.950 . S
C2999 C2997 1.327 . S
C3000 C2988 1.349 . S
C3000 H2994 0.950 . S
C3000 C3001 1.327 . S
C3001 H2995 0.950 . S
C3001 C3000 1.327 . S
C3001 C3005 1.429 . S
C3002 C2985 1.574 . S
C3002 H2996 0.949 . S
C3002 C3006 1.368 . S
C3003 C2984 1.429 . S
C3003 C2997 1.429 . S
C3003 C3004 1.523 . S
C3004 C2985 1.368 . S
C3004 C2998 1.368 . S
C3004 C3003 1.523 . S
C3005 C2989 1.429 . S
C3005 C3001 1.429 . S
C3005 C3006 1.523 . S
C3006 C2990 1.368 . S
C3006 C3002 1.368 . S
C3006 C3005 1.523 . S
H3007 C2982 0.950 . S
H3008 C2984 0.950 . S
H3009 C2985 0.949 . S
H3010 C2987 0.950 . S
H3011 C2989 0.950 . S
C3012 C3013 1.349 . S
C3012 C3014 1.327 . S
C3012 H3037 0.950 . S
C3013 C3012 1.349 . S
C3013 C3029 1.349 . S
C3014 C3012 1.327 . S
C3014 C3033 1.429 . S
C3014 H3038 0.950 . S
C3015 C3032 1.574 . S
C3015 C3034 1.368 . S
C3015 H3039 0.949 . S
H3016 C3020 0.949 . S
C3017 C3018 1.349 . S
C3017 C3019 1.327 . S
C3017 H3040 0.950 . S
C3018 C3017 1.349 . S
C3018 C3030 1.349 . S
C3019 C3017 1.327 . S
C3019 C3035 1.429 . S
C3019 H3041 0.950 . S
C3020 H3016 0.949 . S
C3020 C3028 1.574 . S
C3020 C3036 1.368 . S
H3021 C3029 0.950 . S
H3022 C3027 0.950 . S
H3023 C3028 0.949 . S
H3024 C3030 0.950 . S
H3025 C3031 0.950 . S
H3026 C3032 0.949 . S
C3027 H3022 0.950 . S
C3027 C3029 1.327 . S
C3027 C3033 1.429 . S
C3028 C3020 1.574 . S
C3028 H3023 0.949 . S
C3028 C3034 1.368 . S
C3029 C3013 1.349 . S
C3029 H3021 0.950 . S
C3029 C3027 1.327 . S
C3030 C3018 1.349 . S
C3030 H3024 0.950 . S
C3030 C3031 1.327 . S
C3031 H3025 0.950 . S
C3031 C3030 1.327 . S
C3031 C3035 1.429 . S
C3032 C3015 1.574 . S
C3032 H3026 0.949 . S
C3032 C3036 1.368 . S
C3033 C3014 1.429 . S
C3033 C3027 1.429 . S
C3033 C3034 1.523 . S
C3034 C3015 1.368 . S
C3034 C3028 1.368 . S
C3034 C3033 1.523 . S
C3035 C3019 1.429 . S
C3035 C3031 1.429 . S
C3035 C3036 1.523 . S
C3036 C3020 1.368 . S
C3036 C3032 1.368 . S
C3036 C3035 1.523 . S
H3037 C3012 0.950 . S
H3038 C3014 0.950 . S
H3039 C3015 0.949 . S
H3040 C3017 0.950 . S
H3041 C3019 0.950 . S
C3042 C3043 1.349 . S
C3042 C3044 1.327 . S
C3042 H3067 0.950 . S
C3043 C3042 1.349 . S
C3043 C3059 1.349 . S
C3044 C3042 1.327 . S
C3044 C3063 1.429 . S
C3044 H3068 0.950 . S
C3045 C3062 1.574 . S
C3045 C3064 1.368 . S
C3045 H3069 0.949 . S
H3046 C3050 0.949 . S
C3047 C3048 1.349 . S
C3047 C3049 1.327 . S
C3047 H3070 0.950 . S
C3048 C3047 1.349 . S
C3048 C3060 1.349 . S
C3049 C3047 1.327 . S
C3049 C3065 1.429 . S
C3049 H3071 0.950 . S
C3050 H3046 0.949 . S
C3050 C3058 1.574 . S
C3050 C3066 1.368 . S
H3051 C3059 0.950 . S
H3052 C3057 0.950 . S
H3053 C3058 0.949 . S
H3054 C3060 0.950 . S
H3055 C3061 0.950 . S
H3056 C3062 0.949 . S
C3057 H3052 0.950 . S
C3057 C3059 1.327 . S
C3057 C3063 1.429 . S
C3058 C3050 1.574 . S
C3058 H3053 0.949 . S
C3058 C3064 1.368 . S
C3059 C3043 1.349 . S
C3059 H3051 0.950 . S
C3059 C3057 1.327 . S
C3060 C3048 1.349 . S
C3060 H3054 0.950 . S
C3060 C3061 1.327 . S
C3061 H3055 0.950 . S
C3061 C3060 1.327 . S
C3061 C3065 1.429 . S
C3062 C3045 1.574 . S
C3062 H3056 0.949 . S
C3062 C3066 1.368 . S
C3063 C3044 1.429 . S
C3063 C3057 1.429 . S
C3063 C3064 1.523 . S
C3064 C3045 1.368 . S
C3064 C3058 1.368 . S
C3064 C3063 1.523 . S
C3065 C3049 1.429 . S
C3065 C3061 1.429 . S
C3065 C3066 1.523 . S
C3066 C3050 1.368 . S
C3066 C3062 1.368 . S
C3066 C3065 1.523 . S
H3067 C3042 0.950 . S
H3068 C3044 0.950 . S
H3069 C3045 0.949 . S
H3070 C3047 0.950 . S
H3071 C3049 0.950 . S
C3072 C3073 1.349 . S
C3072 C3074 1.327 . S
C3072 H3097 0.950 . S
C3073 C3072 1.349 . S
C3073 C3089 1.349 . S
C3074 C3072 1.327 . S
C3074 C3093 1.429 . S
C3074 H3098 0.950 . S
C3075 C3092 1.574 . S
C3075 C3094 1.368 . S
C3075 H3099 0.949 . S
H3076 C3080 0.949 . S
C3077 C3078 1.349 . S
C3077 C3079 1.327 . S
C3077 H3100 0.950 . S
C3078 C3077 1.349 . S
C3078 C3090 1.349 . S
C3079 C3077 1.327 . S
C3079 C3095 1.429 . S
C3079 H3101 0.950 . S
C3080 H3076 0.949 . S
C3080 C3088 1.574 . S
C3080 C3096 1.368 . S
H3081 C3089 0.950 . S
H3082 C3087 0.950 . S
H3083 C3088 0.949 . S
H3084 C3090 0.950 . S
H3085 C3091 0.950 . S
H3086 C3092 0.949 . S
C3087 H3082 0.950 . S
C3087 C3089 1.327 . S
C3087 C3093 1.429 . S
C3088 C3080 1.574 . S
C3088 H3083 0.949 . S
C3088 C3094 1.368 . S
C3089 C3073 1.349 . S
C3089 H3081 0.950 . S
C3089 C3087 1.327 . S
C3090 C3078 1.349 . S
C3090 H3084 0.950 . S
C3090 C3091 1.327 . S
C3091 H3085 0.950 . S
C3091 C3090 1.327 . S
C3091 C3095 1.429 . S
C3092 C3075 1.574 . S
C3092 H3086 0.949 . S
C3092 C3096 1.368 . S
C3093 C3074 1.429 . S
C3093 C3087 1.429 . S
C3093 C3094 1.523 . S
C3094 C3075 1.368 . S
C3094 C3088 1.368 . S
C3094 C3093 1.523 . S
C3095 C3079 1.429 . S
C3095 C3091 1.429 . S
C3095 C3096 1.523 . S
C3096 C3080 1.368 . S
C3096 C3092 1.368 . S
C3096 C3095 1.523 . S
H3097 C3072 0.950 . S
H3098 C3074 0.950 . S
H3099 C3075 0.949 . S
H3100 C3077 0.950 . S
H3101 C3079 0.950 . S
C3102 C3103 1.349 . S
C3102 C3104 1.327 . S
C3102 H3127 0.950 . S
C3103 C3102 1.349 . S
C3103 C3119 1.349 . S
C3104 C3102 1.327 . S
C3104 C3123 1.429 . S
C3104 H3128 0.950 . S
C3105 C3122 1.574 . S
C3105 C3124 1.368 . S
C3105 H3129 0.949 . S
H3106 C3110 0.949 . S
C3107 C3108 1.349 . S
C3107 C3109 1.327 . S
C3107 H3130 0.950 . S
C3108 C3107 1.349 . S
C3108 C3120 1.349 . S
C3109 C3107 1.327 . S
C3109 C3125 1.429 . S
C3109 H3131 0.950 . S
C3110 H3106 0.949 . S
C3110 C3118 1.574 . S
C3110 C3126 1.368 . S
H3111 C3119 0.950 . S
H3112 C3117 0.950 . S
H3113 C3118 0.949 . S
H3114 C3120 0.950 . S
H3115 C3121 0.950 . S
H3116 C3122 0.949 . S
C3117 H3112 0.950 . S
C3117 C3119 1.327 . S
C3117 C3123 1.429 . S
C3118 C3110 1.574 . S
C3118 H3113 0.949 . S
C3118 C3124 1.368 . S
C3119 C3103 1.349 . S
C3119 H3111 0.950 . S
C3119 C3117 1.327 . S
C3120 C3108 1.349 . S
C3120 H3114 0.950 . S
C3120 C3121 1.327 . S
C3121 H3115 0.950 . S
C3121 C3120 1.327 . S
C3121 C3125 1.429 . S
C3122 C3105 1.574 . S
C3122 H3116 0.949 . S
C3122 C3126 1.368 . S
C3123 C3104 1.429 . S
C3123 C3117 1.429 . S
C3123 C3124 1.523 . S
C3124 C3105 1.368 . S
C3124 C3118 1.368 . S
C3124 C3123 1.523 . S
C3125 C3109 1.429 . S
C3125 C3121 1.429 . S
C3125 C3126 1.523 . S
C3126 C3110 1.368 . S
C3126 C3122 1.368 . S
C3126 C3125 1.523 . S
H3127 C3102 0.950 . S
H3128 C3104 0.950 . S
H3129 C3105 0.949 . S
H3130 C3107 0.950 . S
H3131 C3109 0.950 . S
C3132 C3133 1.349 . S
C3132 C3134 1.327 . S
C3132 H3157 0.950 . S
C3133 C3132 1.349 . S
C3133 C3149 1.349 . S
C3134 C3132 1.327 . S
C3134 C3153 1.429 . S
C3134 H3158 0.950 . S
C3135 C3152 1.574 . S
C3135 C3154 1.368 . S
C3135 H3159 0.949 . S
H3136 C3140 0.949 . S
C3137 C3138 1.349 . S
C3137 C3139 1.327 . S
C3137 H3160 0.950 . S
C3138 C3137 1.349 . S
C3138 C3150 1.349 . S
C3139 C3137 1.327 . S
C3139 C3155 1.429 . S
C3139 H3161 0.950 . S
C3140 H3136 0.949 . S
C3140 C3148 1.574 . S
C3140 C3156 1.368 . S
H3141 C3149 0.950 . S
H3142 C3147 0.950 . S
H3143 C3148 0.949 . S
H3144 C3150 0.950 . S
H3145 C3151 0.950 . S
H3146 C3152 0.949 . S
C3147 H3142 0.950 . S
C3147 C3149 1.327 . S
C3147 C3153 1.429 . S
C3148 C3140 1.574 . S
C3148 H3143 0.949 . S
C3148 C3154 1.368 . S
C3149 C3133 1.349 . S
C3149 H3141 0.950 . S
C3149 C3147 1.327 . S
C3150 C3138 1.349 . S
C3150 H3144 0.950 . S
C3150 C3151 1.327 . S
C3151 H3145 0.950 . S
C3151 C3150 1.327 . S
C3151 C3155 1.429 . S
C3152 C3135 1.574 . S
C3152 H3146 0.949 . S
C3152 C3156 1.368 . S
C3153 C3134 1.429 . S
C3153 C3147 1.429 . S
C3153 C3154 1.523 . S
C3154 C3135 1.368 . S
C3154 C3148 1.368 . S
C3154 C3153 1.523 . S
C3155 C3139 1.429 . S
C3155 C3151 1.429 . S
C3155 C3156 1.523 . S
C3156 C3140 1.368 . S
C3156 C3152 1.368 . S
C3156 C3155 1.523 . S
H3157 C3132 0.950 . S
H3158 C3134 0.950 . S
H3159 C3135 0.949 . S
H3160 C3137 0.950 . S
H3161 C3139 0.950 . S
C3162 C3163 1.349 . S
C3162 C3164 1.327 . S
C3162 H3187 0.950 . S
C3163 C3162 1.349 . S
C3163 C3179 1.349 . S
C3164 C3162 1.327 . S
C3164 C3183 1.429 . S
C3164 H3188 0.950 . S
C3165 C3182 1.574 . S
C3165 C3184 1.368 . S
C3165 H3189 0.949 . S
H3166 C3170 0.949 . S
C3167 C3168 1.349 . S
C3167 C3169 1.327 . S
C3167 H3190 0.950 . S
C3168 C3167 1.349 . S
C3168 C3180 1.349 . S
C3169 C3167 1.327 . S
C3169 C3185 1.429 . S
C3169 H3191 0.950 . S
C3170 H3166 0.949 . S
C3170 C3178 1.574 . S
C3170 C3186 1.368 . S
H3171 C3179 0.950 . S
H3172 C3177 0.950 . S
H3173 C3178 0.949 . S
H3174 C3180 0.950 . S
H3175 C3181 0.950 . S
H3176 C3182 0.949 . S
C3177 H3172 0.950 . S
C3177 C3179 1.327 . S
C3177 C3183 1.429 . S
C3178 C3170 1.574 . S
C3178 H3173 0.949 . S
C3178 C3184 1.368 . S
C3179 C3163 1.349 . S
C3179 H3171 0.950 . S
C3179 C3177 1.327 . S
C3180 C3168 1.349 . S
C3180 H3174 0.950 . S
C3180 C3181 1.327 . S
C3181 H3175 0.950 . S
C3181 C3180 1.327 . S
C3181 C3185 1.429 . S
C3182 C3165 1.574 . S
C3182 H3176 0.949 . S
C3182 C3186 1.368 . S
C3183 C3164 1.429 . S
C3183 C3177 1.429 . S
C3183 C3184 1.523 . S
C3184 C3165 1.368 . S
C3184 C3178 1.368 . S
C3184 C3183 1.523 . S
C3185 C3169 1.429 . S
C3185 C3181 1.429 . S
C3185 C3186 1.523 . S
C3186 C3170 1.368 . S
C3186 C3182 1.368 . S
C3186 C3185 1.523 . S
H3187 C3162 0.950 . S
H3188 C3164 0.950 . S
H3189 C3165 0.949 . S
H3190 C3167 0.950 . S
H3191 C3169 0.950 . S
C3192 C3193 1.349 . S
C3192 C3194 1.327 . S
C3192 H3217 0.950 . S
C3193 C3192 1.349 . S
C3193 C3209 1.349 . S
C3194 C3192 1.327 . S
C3194 C3213 1.429 . S
C3194 H3218 0.950 . S
C3195 C3212 1.574 . S
C3195 C3214 1.368 . S
C3195 H3219 0.949 . S
H3196 C3200 0.949 . S
C3197 C3198 1.349 . S
C3197 C3199 1.327 . S
C3197 H3220 0.950 . S
C3198 C3197 1.349 . S
C3198 C3210 1.349 . S
C3199 C3197 1.327 . S
C3199 C3215 1.429 . S
C3199 H3221 0.950 . S
C3200 H3196 0.949 . S
C3200 C3208 1.574 . S
C3200 C3216 1.368 . S
H3201 C3209 0.950 . S
H3202 C3207 0.950 . S
H3203 C3208 0.949 . S
H3204 C3210 0.950 . S
H3205 C3211 0.950 . S
H3206 C3212 0.949 . S
C3207 H3202 0.950 . S
C3207 C3209 1.327 . S
C3207 C3213 1.429 . S
C3208 C3200 1.574 . S
C3208 H3203 0.949 . S
C3208 C3214 1.368 . S
C3209 C3193 1.349 . S
C3209 H3201 0.950 . S
C3209 C3207 1.327 . S
C3210 C3198 1.349 . S
C3210 H3204 0.950 . S
C3210 C3211 1.327 . S
C3211 H3205 0.950 . S
C3211 C3210 1.327 . S
C3211 C3215 1.429 . S
C3212 C3195 1.574 . S
C3212 H3206 0.949 . S
C3212 C3216 1.368 . S
C3213 C3194 1.429 . S
C3213 C3207 1.429 . S
C3213 C3214 1.523 . S
C3214 C3195 1.368 . S
C3214 C3208 1.368 . S
C3214 C3213 1.523 . S
C3215 C3199 1.429 . S
C3215 C3211 1.429 . S
C3215 C3216 1.523 . S
C3216 C3200 1.368 . S
C3216 C3212 1.368 . S
C3216 C3215 1.523 . S
H3217 C3192 0.950 . S
H3218 C3194 0.950 . S
H3219 C3195 0.949 . S
H3220 C3197 0.950 . S
H3221 C3199 0.950 . S
C3222 C3223 1.349 . S
C3222 C3224 1.327 . S
C3222 H3247 0.950 . S
C3223 C3222 1.349 . S
C3223 C3239 1.349 . S
C3224 C3222 1.327 . S
C3224 C3243 1.429 . S
C3224 H3248 0.950 . S
C3225 C3242 1.574 . S
C3225 C3244 1.368 . S
C3225 H3249 0.949 . S
H3226 C3230 0.949 . S
C3227 C3228 1.349 . S
C3227 C3229 1.327 . S
C3227 H3250 0.950 . S
C3228 C3227 1.349 . S
C3228 C3240 1.349 . S
C3229 C3227 1.327 . S
C3229 C3245 1.429 . S
C3229 H3251 0.950 . S
C3230 H3226 0.949 . S
C3230 C3238 1.574 . S
C3230 C3246 1.368 . S
H3231 C3239 0.950 . S
H3232 C3237 0.950 . S
H3233 C3238 0.949 . S
H3234 C3240 0.950 . S
H3235 C3241 0.950 . S
H3236 C3242 0.949 . S
C3237 H3232 0.950 . S
C3237 C3239 1.327 . S
C3237 C3243 1.429 . S
C3238 C3230 1.574 . S
C3238 H3233 0.949 . S
C3238 C3244 1.368 . S
C3239 C3223 1.349 . S
C3239 H3231 0.950 . S
C3239 C3237 1.327 . S
C3240 C3228 1.349 . S
C3240 H3234 0.950 . S
C3240 C3241 1.327 . S
C3241 H3235 0.950 . S
C3241 C3240 1.327 . S
C3241 C3245 1.429 . S
C3242 C3225 1.574 . S
C3242 H3236 0.949 . S
C3242 C3246 1.368 . S
C3243 C3224 1.429 . S
C3243 C3237 1.429 . S
C3243 C3244 1.523 . S
C3244 C3225 1.368 . S
C3244 C3238 1.368 . S
C3244 C3243 1.523 . S
C3245 C3229 1.429 . S
C3245 C3241 1.429 . S
C3245 C3246 1.523 . S
C3246 C3230 1.368 . S
C3246 C3242 1.368 . S
C3246 C3245 1.523 . S
H3247 C3222 0.950 . S
H3248 C3224 0.950 . S
H3249 C3225 0.949 . S
H3250 C3227 0.950 . S
H3251 C3229 0.950 . S
C3252 C3253 1.349 . S
C3252 C3254 1.327 . S
C3252 H3277 0.950 . S
C3253 C3252 1.349 . S
C3253 C3269 1.349 . S
C3254 C3252 1.327 . S
C3254 C3273 1.429 . S
C3254 H3278 0.950 . S
C3255 C3272 1.574 . S
C3255 C3274 1.368 . S
C3255 H3279 0.949 . S
H3256 C3260 0.949 . S
C3257 C3258 1.349 . S
C3257 C3259 1.327 . S
C3257 H3280 0.950 . S
C3258 C3257 1.349 . S
C3258 C3270 1.349 . S
C3259 C3257 1.327 . S
C3259 C3275 1.429 . S
C3259 H3281 0.950 . S
C3260 H3256 0.949 . S
C3260 C3268 1.574 . S
C3260 C3276 1.368 . S
H3261 C3269 0.950 . S
H3262 C3267 0.950 . S
H3263 C3268 0.949 . S
H3264 C3270 0.950 . S
H3265 C3271 0.950 . S
H3266 C3272 0.949 . S
C3267 H3262 0.950 . S
C3267 C3269 1.327 . S
C3267 C3273 1.429 . S
C3268 C3260 1.574 . S
C3268 H3263 0.949 . S
C3268 C3274 1.368 . S
C3269 C3253 1.349 . S
C3269 H3261 0.950 . S
C3269 C3267 1.327 . S
C3270 C3258 1.349 . S
C3270 H3264 0.950 . S
C3270 C3271 1.327 . S
C3271 H3265 0.950 . S
C3271 C3270 1.327 . S
C3271 C3275 1.429 . S
C3272 C3255 1.574 . S
C3272 H3266 0.949 . S
C3272 C3276 1.368 . S
C3273 C3254 1.429 . S
C3273 C3267 1.429 . S
C3273 C3274 1.523 . S
C3274 C3255 1.368 . S
C3274 C3268 1.368 . S
C3274 C3273 1.523 . S
C3275 C3259 1.429 . S
C3275 C3271 1.429 . S
C3275 C3276 1.523 . S
C3276 C3260 1.368 . S
C3276 C3272 1.368 . S
C3276 C3275 1.523 . S
H3277 C3252 0.950 . S
H3278 C3254 0.950 . S
H3279 C3255 0.949 . S
H3280 C3257 0.950 . S
H3281 C3259 0.950 . S
C3282 C3283 1.349 . S
C3282 C3284 1.327 . S
C3282 H3307 0.950 . S
C3283 C3282 1.349 . S
C3283 C3299 1.349 . S
C3284 C3282 1.327 . S
C3284 C3303 1.429 . S
C3284 H3308 0.950 . S
C3285 C3302 1.574 . S
C3285 C3304 1.368 . S
C3285 H3309 0.949 . S
H3286 C3290 0.949 . S
C3287 C3288 1.349 . S
C3287 C3289 1.327 . S
C3287 H3310 0.950 . S
C3288 C3287 1.349 . S
C3288 C3300 1.349 . S
C3289 C3287 1.327 . S
C3289 C3305 1.429 . S
C3289 H3311 0.950 . S
C3290 H3286 0.949 . S
C3290 C3298 1.574 . S
C3290 C3306 1.368 . S
H3291 C3299 0.950 . S
H3292 C3297 0.950 . S
H3293 C3298 0.949 . S
H3294 C3300 0.950 . S
H3295 C3301 0.950 . S
H3296 C3302 0.949 . S
C3297 H3292 0.950 . S
C3297 C3299 1.327 . S
C3297 C3303 1.429 . S
C3298 C3290 1.574 . S
C3298 H3293 0.949 . S
C3298 C3304 1.368 . S
C3299 C3283 1.349 . S
C3299 H3291 0.950 . S
C3299 C3297 1.327 . S
C3300 C3288 1.349 . S
C3300 H3294 0.950 . S
C3300 C3301 1.327 . S
C3301 H3295 0.950 . S
C3301 C3300 1.327 . S
C3301 C3305 1.429 . S
C3302 C3285 1.574 . S
C3302 H3296 0.949 . S
C3302 C3306 1.368 . S
C3303 C3284 1.429 . S
C3303 C3297 1.429 . S
C3303 C3304 1.523 . S
C3304 C3285 1.368 . S
C3304 C3298 1.368 . S
C3304 C3303 1.523 . S
C3305 C3289 1.429 . S
C3305 C3301 1.429 . S
C3305 C3306 1.523 . S
C3306 C3290 1.368 . S
C3306 C3302 1.368 . S
C3306 C3305 1.523 . S
H3307 C3282 0.950 . S
H3308 C3284 0.950 . S
H3309 C3285 0.949 . S
H3310 C3287 0.950 . S
H3311 C3289 0.950 . S
C3312 C3313 1.349 . S
C3312 C3314 1.327 . S
C3312 H3337 0.950 . S
C3313 C3312 1.349 . S
C3313 C3329 1.349 . S
C3314 C3312 1.327 . S
C3314 C3333 1.429 . S
C3314 H3338 0.950 . S
C3315 C3332 1.574 . S
C3315 C3334 1.368 . S
C3315 H3339 0.949 . S
H3316 C3320 0.949 . S
C3317 C3318 1.349 . S
C3317 C3319 1.327 . S
C3317 H3340 0.950 . S
C3318 C3317 1.349 . S
C3318 C3330 1.349 . S
C3319 C3317 1.327 . S
C3319 C3335 1.429 . S
C3319 H3341 0.950 . S
C3320 H3316 0.949 . S
C3320 C3328 1.574 . S
C3320 C3336 1.368 . S
H3321 C3329 0.950 . S
H3322 C3327 0.950 . S
H3323 C3328 0.949 . S
H3324 C3330 0.950 . S
H3325 C3331 0.950 . S
H3326 C3332 0.949 . S
C3327 H3322 0.950 . S
C3327 C3329 1.327 . S
C3327 C3333 1.429 . S
C3328 C3320 1.574 . S
C3328 H3323 0.949 . S
C3328 C3334 1.368 . S
C3329 C3313 1.349 . S
C3329 H3321 0.950 . S
C3329 C3327 1.327 . S
C3330 C3318 1.349 . S
C3330 H3324 0.950 . S
C3330 C3331 1.327 . S
C3331 H3325 0.950 . S
C3331 C3330 1.327 . S
C3331 C3335 1.429 . S
C3332 C3315 1.574 . S
C3332 H3326 0.949 . S
C3332 C3336 1.368 . S
C3333 C3314 1.429 . S
C3333 C3327 1.429 . S
C3333 C3334 1.523 . S
C3334 C3315 1.368 . S
C3334 C3328 1.368 . S
C3334 C3333 1.523 . S
C3335 C3319 1.429 . S
C3335 C3331 1.429 . S
C3335 C3336 1.523 . S
C3336 C3320 1.368 . S
C3336 C3332 1.368 . S
C3336 C3335 1.523 . S
H3337 C3312 0.950 . S
H3338 C3314 0.950 . S
H3339 C3315 0.949 . S
H3340 C3317 0.950 . S
H3341 C3319 0.950 . S
C3342 C3343 1.349 . S
C3342 C3344 1.327 . S
C3342 H3367 0.950 . S
C3343 C3342 1.349 . S
C3343 C3359 1.349 . S
C3344 C3342 1.327 . S
C3344 C3363 1.429 . S
C3344 H3368 0.950 . S
C3345 C3362 1.574 . S
C3345 C3364 1.368 . S
C3345 H3369 0.949 . S
H3346 C3350 0.949 . S
C3347 C3348 1.349 . S
C3347 C3349 1.327 . S
C3347 H3370 0.950 . S
C3348 C3347 1.349 . S
C3348 C3360 1.349 . S
C3349 C3347 1.327 . S
C3349 C3365 1.429 . S
C3349 H3371 0.950 . S
C3350 H3346 0.949 . S
C3350 C3358 1.574 . S
C3350 C3366 1.368 . S
H3351 C3359 0.950 . S
H3352 C3357 0.950 . S
H3353 C3358 0.949 . S
H3354 C3360 0.950 . S
H3355 C3361 0.950 . S
H3356 C3362 0.949 . S
C3357 H3352 0.950 . S
C3357 C3359 1.327 . S
C3357 C3363 1.429 . S
C3358 C3350 1.574 . S
C3358 H3353 0.949 . S
C3358 C3364 1.368 . S
C3359 C3343 1.349 . S
C3359 H3351 0.950 . S
C3359 C3357 1.327 . S
C3360 C3348 1.349 . S
C3360 H3354 0.950 . S
C3360 C3361 1.327 . S
C3361 H3355 0.950 . S
C3361 C3360 1.327 . S
C3361 C3365 1.429 . S
C3362 C3345 1.574 . S
C3362 H3356 0.949 . S
C3362 C3366 1.368 . S
C3363 C3344 1.429 . S
C3363 C3357 1.429 . S
C3363 C3364 1.523 . S
C3364 C3345 1.368 . S
C3364 C3358 1.368 . S
C3364 C3363 1.523 . S
C3365 C3349 1.429 . S
C3365 C3361 1.429 . S
C3365 C3366 1.523 . S
C3366 C3350 1.368 . S
C3366 C3362 1.368 . S
C3366 C3365 1.523 . S
H3367 C3342 0.950 . S
H3368 C3344 0.950 . S
H3369 C3345 0.949 . S
H3370 C3347 0.950 . S
H3371 C3349 0.950 . S
C3372 C3373 1.349 . S
C3372 C3374 1.327 . S
C3372 H3397 0.950 . S
C3373 C3372 1.349 . S
C3373 C3389 1.349 . S
C3374 C3372 1.327 . S
C3374 C3393 1.429 . S
C3374 H3398 0.950 . S
C3375 C3392 1.574 . S
C3375 C3394 1.368 . S
C3375 H3399 0.949 . S
H3376 C3380 0.949 . S
C3377 C3378 1.349 . S
C3377 C3379 1.327 . S
C3377 H3400 0.950 . S
C3378 C3377 1.349 . S
C3378 C3390 1.349 . S
C3379 C3377 1.327 . S
C3379 C3395 1.429 . S
C3379 H3401 0.950 . S
C3380 H3376 0.949 . S
C3380 C3388 1.574 . S
C3380 C3396 1.368 . S
H3381 C3389 0.950 . S
H3382 C3387 0.950 . S
H3383 C3388 0.949 . S
H3384 C3390 0.950 . S
H3385 C3391 0.950 . S
H3386 C3392 0.949 . S
C3387 H3382 0.950 . S
C3387 C3389 1.327 . S
C3387 C3393 1.429 . S
C3388 C3380 1.574 . S
C3388 H3383 0.949 . S
C3388 C3394 1.368 . S
C3389 C3373 1.349 . S
C3389 H3381 0.950 . S
C3389 C3387 1.327 . S
C3390 C3378 1.349 . S
C3390 H3384 0.950 . S
C3390 C3391 1.327 . S
C3391 H3385 0.950 . S
C3391 C3390 1.327 . S
C3391 C3395 1.429 . S
C3392 C3375 1.574 . S
C3392 H3386 0.949 . S
C3392 C3396 1.368 . S
C3393 C3374 1.429 . S
C3393 C3387 1.429 . S
C3393 C3394 1.523 . S
C3394 C3375 1.368 . S
C3394 C3388 1.368 . S
C3394 C3393 1.523 . S
C3395 C3379 1.429 . S
C3395 C3391 1.429 . S
C3395 C3396 1.523 . S
C3396 C3380 1.368 . S
C3396 C3392 1.368 . S
C3396 C3395 1.523 . S
H3397 C3372 0.950 . S
H3398 C3374 0.950 . S
H3399 C3375 0.949 . S
H3400 C3377 0.950 . S
H3401 C3379 0.950 . S
C3402 C3403 1.349 . S
C3402 C3404 1.327 . S
C3402 H3427 0.950 . S
C3403 C3402 1.349 . S
C3403 C3419 1.349 . S
C3404 C3402 1.327 . S
C3404 C3423 1.429 . S
C3404 H3428 0.950 . S
C3405 C3422 1.574 . S
C3405 C3424 1.368 . S
C3405 H3429 0.949 . S
H3406 C3410 0.949 . S
C3407 C3408 1.349 . S
C3407 C3409 1.327 . S
C3407 H3430 0.950 . S
C3408 C3407 1.349 . S
C3408 C3420 1.349 . S
C3409 C3407 1.327 . S
C3409 C3425 1.429 . S
C3409 H3431 0.950 . S
C3410 H3406 0.949 . S
C3410 C3418 1.574 . S
C3410 C3426 1.368 . S
H3411 C3419 0.950 . S
H3412 C3417 0.950 . S
H3413 C3418 0.949 . S
H3414 C3420 0.950 . S
H3415 C3421 0.950 . S
H3416 C3422 0.949 . S
C3417 H3412 0.950 . S
C3417 C3419 1.327 . S
C3417 C3423 1.429 . S
C3418 C3410 1.574 . S
C3418 H3413 0.949 . S
C3418 C3424 1.368 . S
C3419 C3403 1.349 . S
C3419 H3411 0.950 . S
C3419 C3417 1.327 . S
C3420 C3408 1.349 . S
C3420 H3414 0.950 . S
C3420 C3421 1.327 . S
C3421 H3415 0.950 . S
C3421 C3420 1.327 . S
C3421 C3425 1.429 . S
C3422 C3405 1.574 . S
C3422 H3416 0.949 . S
C3422 C3426 1.368 . S
C3423 C3404 1.429 . S
C3423 C3417 1.429 . S
C3423 C3424 1.523 . S
C3424 C3405 1.368 . S
C3424 C3418 1.368 . S
C3424 C3423 1.523 . S
C3425 C3409 1.429 . S
C3425 C3421 1.429 . S
C3425 C3426 1.523 . S
C3426 C3410 1.368 . S
C3426 C3422 1.368 . S
C3426 C3425 1.523 . S
H3427 C3402 0.950 . S
H3428 C3404 0.950 . S
H3429 C3405 0.949 . S
H3430 C3407 0.950 . S
H3431 C3409 0.950 . S
C3432 C3433 1.349 . S
C3432 C3434 1.327 . S
C3432 H3457 0.950 . S
C3433 C3432 1.349 . S
C3433 C3449 1.349 . S
C3434 C3432 1.327 . S
C3434 C3453 1.429 . S
C3434 H3458 0.950 . S
C3435 C3452 1.574 . S
C3435 C3454 1.368 . S
C3435 H3459 0.949 . S
H3436 C3440 0.949 . S
C3437 C3438 1.349 . S
C3437 C3439 1.327 . S
C3437 H3460 0.950 . S
C3438 C3437 1.349 . S
C3438 C3450 1.349 . S
C3439 C3437 1.327 . S
C3439 C3455 1.429 . S
C3439 H3461 0.950 . S
C3440 H3436 0.949 . S
C3440 C3448 1.574 . S
C3440 C3456 1.368 . S
H3441 C3449 0.950 . S
H3442 C3447 0.950 . S
H3443 C3448 0.949 . S
H3444 C3450 0.950 . S
H3445 C3451 0.950 . S
H3446 C3452 0.949 . S
C3447 H3442 0.950 . S
C3447 C3449 1.327 . S
C3447 C3453 1.429 . S
C3448 C3440 1.574 . S
C3448 H3443 0.949 . S
C3448 C3454 1.368 . S
C3449 C3433 1.349 . S
C3449 H3441 0.950 . S
C3449 C3447 1.327 . S
C3450 C3438 1.349 . S
C3450 H3444 0.950 . S
C3450 C3451 1.327 . S
C3451 H3445 0.950 . S
C3451 C3450 1.327 . S
C3451 C3455 1.429 . S
C3452 C3435 1.574 . S
C3452 H3446 0.949 . S
C3452 C3456 1.368 . S
C3453 C3434 1.429 . S
C3453 C3447 1.429 . S
C3453 C3454 1.523 . S
C3454 C3435 1.368 . S
C3454 C3448 1.368 . S
C3454 C3453 1.523 . S
C3455 C3439 1.429 . S
C3455 C3451 1.429 . S
C3455 C3456 1.523 . S
C3456 C3440 1.368 . S
C3456 C3452 1.368 . S
C3456 C3455 1.523 . S
H3457 C3432 0.950 . S
H3458 C3434 0.950 . S
H3459 C3435 0.949 . S
H3460 C3437 0.950 . S
H3461 C3439 0.950 . S
C3462 C3463 1.349 . S
C3462 C3464 1.327 . S
C3462 H3487 0.950 . S
C3463 C3462 1.349 . S
C3463 C3479 1.349 . S
C3464 C3462 1.327 . S
C3464 C3483 1.429 . S
C3464 H3488 0.950 . S
C3465 C3482 1.574 . S
C3465 C3484 1.368 . S
C3465 H3489 0.949 . S
H3466 C3470 0.949 . S
C3467 C3468 1.349 . S
C3467 C3469 1.327 . S
C3467 H3490 0.950 . S
C3468 C3467 1.349 . S
C3468 C3480 1.349 . S
C3469 C3467 1.327 . S
C3469 C3485 1.429 . S
C3469 H3491 0.950 . S
C3470 H3466 0.949 . S
C3470 C3478 1.574 . S
C3470 C3486 1.368 . S
H3471 C3479 0.950 . S
H3472 C3477 0.950 . S
H3473 C3478 0.949 . S
H3474 C3480 0.950 . S
H3475 C3481 0.950 . S
H3476 C3482 0.949 . S
C3477 H3472 0.950 . S
C3477 C3479 1.327 . S
C3477 C3483 1.429 . S
C3478 C3470 1.574 . S
C3478 H3473 0.949 . S
C3478 C3484 1.368 . S
C3479 C3463 1.349 . S
C3479 H3471 0.950 . S
C3479 C3477 1.327 . S
C3480 C3468 1.349 . S
C3480 H3474 0.950 . S
C3480 C3481 1.327 . S
C3481 H3475 0.950 . S
C3481 C3480 1.327 . S
C3481 C3485 1.429 . S
C3482 C3465 1.574 . S
C3482 H3476 0.949 . S
C3482 C3486 1.368 . S
C3483 C3464 1.429 . S
C3483 C3477 1.429 . S
C3483 C3484 1.523 . S
C3484 C3465 1.368 . S
C3484 C3478 1.368 . S
C3484 C3483 1.523 . S
C3485 C3469 1.429 . S
C3485 C3481 1.429 . S
C3485 C3486 1.523 . S
C3486 C3470 1.368 . S
C3486 C3482 1.368 . S
C3486 C3485 1.523 . S
H3487 C3462 0.950 . S
H3488 C3464 0.950 . S
H3489 C3465 0.949 . S
H3490 C3467 0.950 . S
H3491 C3469 0.950 . S
C3492 C3493 1.349 . S
C3492 C3494 1.327 . S
C3492 H3517 0.950 . S
C3493 C3492 1.349 . S
C3493 C3509 1.349 . S
C3494 C3492 1.327 . S
C3494 C3513 1.429 . S
C3494 H3518 0.950 . S
C3495 C3512 1.574 . S
C3495 C3514 1.368 . S
C3495 H3519 0.949 . S
H3496 C3500 0.949 . S
C3497 C3498 1.349 . S
C3497 C3499 1.327 . S
C3497 H3520 0.950 . S
C3498 C3497 1.349 . S
C3498 C3510 1.349 . S
C3499 C3497 1.327 . S
C3499 C3515 1.429 . S
C3499 H3521 0.950 . S
C3500 H3496 0.949 . S
C3500 C3508 1.574 . S
C3500 C3516 1.368 . S
H3501 C3509 0.950 . S
H3502 C3507 0.950 . S
H3503 C3508 0.949 . S
H3504 C3510 0.950 . S
H3505 C3511 0.950 . S
H3506 C3512 0.949 . S
C3507 H3502 0.950 . S
C3507 C3509 1.327 . S
C3507 C3513 1.429 . S
C3508 C3500 1.574 . S
C3508 H3503 0.949 . S
C3508 C3514 1.368 . S
C3509 C3493 1.349 . S
C3509 H3501 0.950 . S
C3509 C3507 1.327 . S
C3510 C3498 1.349 . S
C3510 H3504 0.950 . S
C3510 C3511 1.327 . S
C3511 H3505 0.950 . S
C3511 C3510 1.327 . S
C3511 C3515 1.429 . S
C3512 C3495 1.574 . S
C3512 H3506 0.949 . S
C3512 C3516 1.368 . S
C3513 C3494 1.429 . S
C3513 C3507 1.429 . S
C3513 C3514 1.523 . S
C3514 C3495 1.368 . S
C3514 C3508 1.368 . S
C3514 C3513 1.523 . S
C3515 C3499 1.429 . S
C3515 C3511 1.429 . S
C3515 C3516 1.523 . S
C3516 C3500 1.368 . S
C3516 C3512 1.368 . S
C3516 C3515 1.523 . S
H3517 C3492 0.950 . S
H3518 C3494 0.950 . S
H3519 C3495 0.949 . S
H3520 C3497 0.950 . S
H3521 C3499 0.950 . S
C3522 C3523 1.349 . S
C3522 C3524 1.327 . S
C3522 H3547 0.950 . S
C3523 C3522 1.349 . S
C3523 C3539 1.349 . S
C3524 C3522 1.327 . S
C3524 C3543 1.429 . S
C3524 H3548 0.950 . S
C3525 C3542 1.574 . S
C3525 C3544 1.368 . S
C3525 H3549 0.949 . S
H3526 C3530 0.949 . S
C3527 C3528 1.349 . S
C3527 C3529 1.327 . S
C3527 H3550 0.950 . S
C3528 C3527 1.349 . S
C3528 C3540 1.349 . S
C3529 C3527 1.327 . S
C3529 C3545 1.429 . S
C3529 H3551 0.950 . S
C3530 H3526 0.949 . S
C3530 C3538 1.574 . S
C3530 C3546 1.368 . S
H3531 C3539 0.950 . S
H3532 C3537 0.950 . S
H3533 C3538 0.949 . S
H3534 C3540 0.950 . S
H3535 C3541 0.950 . S
H3536 C3542 0.949 . S
C3537 H3532 0.950 . S
C3537 C3539 1.327 . S
C3537 C3543 1.429 . S
C3538 C3530 1.574 . S
C3538 H3533 0.949 . S
C3538 C3544 1.368 . S
C3539 C3523 1.349 . S
C3539 H3531 0.950 . S
C3539 C3537 1.327 . S
C3540 C3528 1.349 . S
C3540 H3534 0.950 . S
C3540 C3541 1.327 . S
C3541 H3535 0.950 . S
C3541 C3540 1.327 . S
C3541 C3545 1.429 . S
C3542 C3525 1.574 . S
C3542 H3536 0.949 . S
C3542 C3546 1.368 . S
C3543 C3524 1.429 . S
C3543 C3537 1.429 . S
C3543 C3544 1.523 . S
C3544 C3525 1.368 . S
C3544 C3538 1.368 . S
C3544 C3543 1.523 . S
C3545 C3529 1.429 . S
C3545 C3541 1.429 . S
C3545 C3546 1.523 . S
C3546 C3530 1.368 . S
C3546 C3542 1.368 . S
C3546 C3545 1.523 . S
H3547 C3522 0.950 . S
H3548 C3524 0.950 . S
H3549 C3525 0.949 . S
H3550 C3527 0.950 . S
H3551 C3529 0.950 . S
C673 C440 1.422 . S
C678 C6 1.422 . S
C703 C20 1.422 . S
C708 C398 1.422 . S
C733 C34 1.422 . S
C738 C412 1.422 . S
C763 C426 1.422 . S
C768 C48 1.422 . S
C793 C356 1.422 . S
C798 C62 1.422 . S
C823 C76 1.422 . S
C828 C370 1.422 . S
C853 C384 1.422 . S
C858 C90 1.422 . S
C883 C104 1.422 . S
C888 C342 1.422 . S
C913 C118 1.422 . S
C918 C622 1.422 . S
C943 C580 1.422 . S
C948 C132 1.422 . S
C973 C594 1.422 . S
C978 C146 1.422 . S
C1003 C160 1.422 . S
C1008 C608 1.422 . S
C1033 C174 1.422 . S
C1038 C664 1.422 . S
C1063 C188 1.422 . S
C1068 C636 1.422 . S
C1093 C202 1.422 . S
C1098 C650 1.422 . S
C1123 C566 1.422 . S
C1128 C216 1.422 . S
C1153 C552 1.422 . S
C1158 C230 1.422 . S
C1183 C244 1.422 . S
C1188 C468 1.422 . S
C1213 C482 1.422 . S
C1218 C258 1.422 . S
C1243 C272 1.422 . S
C1248 C496 1.422 . S
C1273 C454 1.422 . S
C1278 C286 1.422 . S
C1303 C524 1.422 . S
C1308 C300 1.422 . S
C1333 C314 1.422 . S
C1338 C538 1.422 . S
C1363 C510 1.422 . S
C1368 C328 1.422 . S
C1393 C134 1.596 . S
C1398 C8 1.596 . S
C1423 C148 1.596 . S
C1428 C22 1.596 . S
C1453 C36 1.596 . S
C1458 C162 1.596 . S
C1483 C120 1.596 . S
C1488 C50 1.596 . S
C1513 C64 1.596 . S
C1518 C218 1.596 . S
C1543 C176 1.596 . S
C1548 C78 1.596 . S
C1573 C190 1.596 . S
C1578 C92 1.596 . S
C1603 C204 1.596 . S
C1608 C106 1.596 . S
C1633 C260 1.596 . S
C1638 C232 1.596 . S
C1663 C316 1.596 . S
C1668 C246 1.596 . S
C1693 C330 1.596 . S
C1698 C274 1.596 . S
C1723 C288 1.596 . S
C1728 C302 1.596 . S
C1753 C470 1.596 . S
C1758 C344 1.596 . S
C1783 C484 1.596 . S
C1788 C358 1.596 . S
C1813 C498 1.596 . S
C1818 C372 1.596 . S
C1843 C386 1.596 . S
C1848 C456 1.596 . S
C1873 C400 1.596 . S
C1878 C554 1.596 . S
C1903 C414 1.596 . S
C1908 C512 1.596 . S
C1933 C526 1.596 . S
C1938 C428 1.596 . S
C1963 C540 1.596 . S
C1968 C442 1.596 . S
C1993 C568 1.596 . S
C1998 C596 1.596 . S
C2023 C652 1.596 . S
C2028 C582 1.596 . S
C2053 C666 1.596 . S
C2058 C610 1.596 . S
C2083 C638 1.596 . S
C2088 C624 1.596 . S
C2113 C7 1.356 . S
C2118 C261 1.346 . S
C2143 C21 1.356 . S
C2148 C275 1.346 . S
C2173 C35 1.356 . S
C2178 C289 1.346 . S
C2203 C247 1.346 . S
C2208 C49 1.356 . S
C2233 C63 1.356 . S
C2238 C317 1.346 . S
C2263 C77 1.356 . S
C2268 C233 1.346 . S
C2293 C331 1.346 . S
C2298 C91 1.356 . S
C2323 C303 1.346 . S
C2328 C105 1.356 . S
C2353 C119 1.356 . S
C2358 C135 1.346 . S
C2383 C133 1.356 . S
C2388 C149 1.346 . S
C2413 C147 1.356 . S
C2418 C163 1.346 . S
C2443 C121 1.346 . S
C2448 C161 1.356 . S
C2473 C219 1.346 . S
C2478 C175 1.356 . S
C2503 C177 1.346 . S
C2508 C189 1.356 . S
C2533 C191 1.346 . S
C2538 C203 1.356 . S
C2563 C217 1.356 . S
C2568 C205 1.346 . S
C2593 C51 1.346 . S
C2598 C231 1.356 . S
C2623 C79 1.346 . S
C2628 C245 1.356 . S
C2653 C93 1.346 . S
C2658 C259 1.356 . S
C2683 C273 1.356 . S
C2688 C107 1.346 . S
C2713 C65 1.346 . S
C2718 C287 1.356 . S
C2743 C23 1.346 . S
C2748 C301 1.356 . S
C2773 C37 1.346 . S
C2778 C315 1.356 . S
C2803 C9 1.346 . S
C2808 C329 1.356 . S
C2833 C597 1.346 . S
C2838 C343 1.356 . S
C2863 C357 1.356 . S
C2868 C611 1.346 . S
C2893 C625 1.346 . S
C2898 C371 1.356 . S
C2923 C583 1.346 . S
C2928 C385 1.356 . S
C2953 C399 1.356 . S
C2958 C653 1.346 . S
C2983 C413 1.356 . S
C2988 C569 1.346 . S
C3013 C667 1.346 . S
C3018 C427 1.356 . S
C3043 C441 1.356 . S
C3048 C639 1.346 . S
C3073 C455 1.356 . S
C3078 C471 1.346 . S
C3103 C469 1.356 . S
C3108 C485 1.346 . S
C3133 C483 1.356 . S
C3138 C499 1.346 . S
C3163 C497 1.356 . S
C3168 C457 1.346 . S
C3193 C555 1.346 . S
C3198 C511 1.356 . S
C3223 C513 1.346 . S
C3228 C525 1.356 . S
C3253 C527 1.346 . S
C3258 C539 1.356 . S
C3283 C553 1.356 . S
C3288 C541 1.346 . S
C3313 C387 1.346 . S
C3318 C567 1.356 . S
C3343 C415 1.346 . S
C3348 C581 1.356 . S
C3373 C429 1.346 . S
C3378 C595 1.356 . S
C3403 C609 1.356 . S
C3408 C443 1.346 . S
C3433 C401 1.346 . S
C3438 C623 1.356 . S
C3463 C359 1.346 . S
C3468 C637 1.356 . S
C3493 C651 1.356 . S
C3498 C373 1.346 . S
C3523 C345 1.346 . S
C3528 C665 1.356 . S
