# Generated by pormake.
# Topology ukt, (4)-cn, num edge types: 1
# Building blocks:
#     Node 0, Type 0, BuildingBlock: ICAMEG_clean_sbu_1, # of connection points: 4
#     Node 1, Type 0, BuildingBlock: ICAMEG_clean_sbu_1, # of connection points: 4
#     Node 2, Type 0, BuildingBlock: ICAMEG_clean_sbu_1, # of connection points: 4
#     Node 3, Type 0, BuildingBlock: ICAMEG_clean_sbu_1, # of connection points: 4
#     Node 4, Type 0, BuildingBlock: ICAMEG_clean_sbu_1, # of connection points: 4
#     Node 5, Type 0, BuildingBlock: ICAMEG_clean_sbu_1, # of connection points: 4
#     Node 6, Type 0, BuildingBlock: ICAMEG_clean_sbu_1, # of connection points: 4
#     Node 7, Type 0, BuildingBlock: ICAMEG_clean_sbu_1, # of connection points: 4
#     Node 8, Type 0, BuildingBlock: ICAMEG_clean_sbu_1, # of connection points: 4
#     Node 9, Type 0, BuildingBlock: ICAMEG_clean_sbu_1, # of connection points: 4
#     Node 10, Type 0, BuildingBlock: ICAMEG_clean_sbu_1, # of connection points: 4
#     Node 11, Type 0, BuildingBlock: ICAMEG_clean_sbu_1, # of connection points: 4
#     Node 12, Type 0, BuildingBlock: ICAMEG_clean_sbu_1, # of connection points: 4
#     Node 13, Type 0, BuildingBlock: ICAMEG_clean_sbu_1, # of connection points: 4
#     Node 14, Type 0, BuildingBlock: ICAMEG_clean_sbu_1, # of connection points: 4
#     Node 15, Type 0, BuildingBlock: ICAMEG_clean_sbu_1, # of connection points: 4
#     Edge 16, Type (0, 0), BuildingBlock: UVAHIK_clean_linker_0, # of connection points: 2
#     Edge 17, Type (0, 0), BuildingBlock: UVAHIK_clean_linker_0, # of connection points: 2
#     Edge 18, Type (0, 0), BuildingBlock: UVAHIK_clean_linker_0, # of connection points: 2
#     Edge 19, Type (0, 0), BuildingBlock: UVAHIK_clean_linker_0, # of connection points: 2
#     Edge 20, Type (0, 0), BuildingBlock: UVAHIK_clean_linker_0, # of connection points: 2
#     Edge 21, Type (0, 0), BuildingBlock: UVAHIK_clean_linker_0, # of connection points: 2
#     Edge 22, Type (0, 0), BuildingBlock: UVAHIK_clean_linker_0, # of connection points: 2
#     Edge 23, Type (0, 0), BuildingBlock: UVAHIK_clean_linker_0, # of connection points: 2
#     Edge 24, Type (0, 0), BuildingBlock: UVAHIK_clean_linker_0, # of connection points: 2
#     Edge 25, Type (0, 0), BuildingBlock: UVAHIK_clean_linker_0, # of connection points: 2
#     Edge 26, Type (0, 0), BuildingBlock: UVAHIK_clean_linker_0, # of connection points: 2
#     Edge 27, Type (0, 0), BuildingBlock: UVAHIK_clean_linker_0, # of connection points: 2
#     Edge 28, Type (0, 0), BuildingBlock: UVAHIK_clean_linker_0, # of connection points: 2
#     Edge 29, Type (0, 0), BuildingBlock: UVAHIK_clean_linker_0, # of connection points: 2
#     Edge 30, Type (0, 0), BuildingBlock: UVAHIK_clean_linker_0, # of connection points: 2
#     Edge 31, Type (0, 0), BuildingBlock: UVAHIK_clean_linker_0, # of connection points: 2
#     Edge 32, Type (0, 0), BuildingBlock: UVAHIK_clean_linker_0, # of connection points: 2
#     Edge 33, Type (0, 0), BuildingBlock: UVAHIK_clean_linker_0, # of connection points: 2
#     Edge 34, Type (0, 0), BuildingBlock: UVAHIK_clean_linker_0, # of connection points: 2
#     Edge 35, Type (0, 0), BuildingBlock: UVAHIK_clean_linker_0, # of connection points: 2
#     Edge 36, Type (0, 0), BuildingBlock: UVAHIK_clean_linker_0, # of connection points: 2
#     Edge 37, Type (0, 0), BuildingBlock: UVAHIK_clean_linker_0, # of connection points: 2
#     Edge 38, Type (0, 0), BuildingBlock: UVAHIK_clean_linker_0, # of connection points: 2
#     Edge 39, Type (0, 0), BuildingBlock: UVAHIK_clean_linker_0, # of connection points: 2
#     Edge 40, Type (0, 0), BuildingBlock: UVAHIK_clean_linker_0, # of connection points: 2
#     Edge 41, Type (0, 0), BuildingBlock: UVAHIK_clean_linker_0, # of connection points: 2
#     Edge 42, Type (0, 0), BuildingBlock: UVAHIK_clean_linker_0, # of connection points: 2
#     Edge 43, Type (0, 0), BuildingBlock: UVAHIK_clean_linker_0, # of connection points: 2
#     Edge 44, Type (0, 0), BuildingBlock: UVAHIK_clean_linker_0, # of connection points: 2
#     Edge 45, Type (0, 0), BuildingBlock: UVAHIK_clean_linker_0, # of connection points: 2
#     Edge 46, Type (0, 0), BuildingBlock: UVAHIK_clean_linker_0, # of connection points: 2
#     Edge 47, Type (0, 0), BuildingBlock: UVAHIK_clean_linker_0, # of connection points: 2
# Relax obj value: 0.233
# Max RMSD: 0.141
# Mean RMSD: 0.141
data_MOF--net-ukt--node1-ICAMEG_clean_sbu_1--edge1-UVAHIK_clean_linker_0
_symmetry_space_group_name_H-M    P1
_symmetry_Int_Tables_number       1
_symmetry_cell_setting            triclinic
loop_
_symmetry_equiv_pos_as_xyz
'x, y, z'
_cell_length_a     56.658948
_cell_length_b     56.658737
_cell_length_c     50.909846
_cell_angle_alpha  90.001788
_cell_angle_beta   90.001662
_cell_angle_gamma 89.98946
loop_
_atom_site_label
_atom_site_type_symbol
_atom_site_fract_x
_atom_site_fract_y
_atom_site_fract_z
_atom_type_partial_charge
Co0 Co 0.55874 0.168 0.10281 0.0
Co1 Co 0.52726 0.16764 0.04458 0.0
O2 O 0.53069 0.16088 0.08205 0.0
C3 C 0.52076 0.19497 0.12928 0.0
O4 O 0.51332 0.20173 0.10605 0.0
C5 C 0.5247 0.11609 0.04847 0.0
O6 O 0.5418 0.11796 0.0657 0.0
O7 O 0.55997 0.15671 0.03659 0.0
O8 O 0.57953 0.15494 0.0749 0.0
H9 H 0.55141 0.2015 0.9574 0.0
H10 H 0.51962 0.14044 0.12636 0.0
O11 O 0.53849 0.18128 0.13134 0.0
H12 H 0.58936 0.08853 0.13111 0.0
H13 H 0.60573 0.17304 0.18657 0.0
H14 H 0.60598 0.18791 0.09113 0.0
H15 H 0.59258 0.12862 0.11258 0.0
H16 H 0.57078 0.16363 0.15965 0.0
O17 O 0.51574 0.1346 0.0383 0.0
H18 H 0.55582 0.19292 0.00465 0.0
H19 H 0.49046 0.15624 0.00477 0.0
H20 H 0.64139 0.1974 0.11727 0.0
H21 H 0.51564 0.10057 0.14532 0.0
H22 H 0.6414 0.18997 0.16536 0.0
H23 H 0.55067 0.07428 0.14767 0.0
O24 O 0.56146 0.2 0.08682 0.0
H25 H 0.44648 0.16121 0.08459 0.0
H26 H 0.49945 0.21056 0.03083 0.0
H27 H 0.45928 0.22474 0.0409 0.0
H28 H 0.43249 0.19997 0.06792 0.0
H29 H 0.48686 0.1478 0.07422 0.0
H30 H 0.48542 0.16425 0.95746 0.0
H31 H 0.516 0.18712 0.93349 0.0
O32 O 0.5393 0.20032 0.05012 0.0
C33 C 0.57837 0.15217 0.05009 0.0
C34 C 0.53793 0.19159 0.96765 0.0
C35 C 0.50091 0.17065 0.96767 0.0
N36 N 0.52333 0.17426 0.00748 0.0
C37 C 0.54029 0.18674 0.99442 0.0
C38 C 0.50387 0.16613 0.99444 0.0
C39 C 0.51807 0.18349 0.95424 0.0
C40 C 0.53499 0.12918 0.12756 0.0
N41 N 0.55632 0.13687 0.11843 0.0
C42 C 0.53261 0.10659 0.13821 0.0
C43 C 0.55226 0.09184 0.13949 0.0
C44 C 0.57397 0.09982 0.13019 0.0
C45 C 0.57568 0.12251 0.11965 0.0
C46 C 0.60596 0.17632 0.16563 0.0
C47 C 0.60591 0.18448 0.11202 0.0
C48 C 0.5862 0.17108 0.1503 0.0
N49 N 0.58641 0.17507 0.12382 0.0
C50 C 0.62598 0.18996 0.12673 0.0
C51 C 0.62597 0.18581 0.15371 0.0
C52 C 0.55303 0.21032 0.06659 0.0
C53 C 0.45797 0.17214 0.07274 0.0
C54 C 0.48791 0.19972 0.04267 0.0
C55 C 0.46517 0.20782 0.04826 0.0
C56 C 0.45014 0.1939 0.06341 0.0
N57 N 0.49543 0.17833 0.05185 0.0
C58 C 0.48081 0.1646 0.06673 0.0
Co59 Co 0.32945 0.56103 0.09861 0.0
Co60 Co 0.33196 0.52811 0.04147 0.0
O61 O 0.33739 0.53254 0.07901 0.0
C62 C 0.30163 0.52422 0.12608 0.0
O63 O 0.29249 0.5181 0.10339 0.0
C64 C 0.38324 0.52468 0.04738 0.0
O65 O 0.38127 0.54261 0.06353 0.0
O66 O 0.344 0.56023 0.03297 0.0
O67 O 0.34259 0.58146 0.07022 0.0
H68 H 0.30255 0.55064 0.95178 0.0
H69 H 0.35764 0.52307 0.12364 0.0
O70 O 0.31649 0.54102 0.12757 0.0
H71 H 0.40768 0.59417 0.12767 0.0
H72 H 0.32209 0.6099 0.18082 0.0
H73 H 0.30873 0.60753 0.08513 0.0
H74 H 0.36782 0.59602 0.10833 0.0
H75 H 0.33263 0.5745 0.15515 0.0
O76 O 0.36482 0.51557 0.0372 0.0
H77 H 0.30938 0.55625 0.99922 0.0
H78 H 0.34367 0.48971 0.00368 0.0
H79 H 0.2981 0.64335 0.11001 0.0
H80 H 0.39728 0.52047 0.14345 0.0
H81 H 0.30477 0.64468 0.15822 0.0
H82 H 0.42264 0.55618 0.14543 0.0
O83 O 0.29756 0.56271 0.08193 0.0
H84 H 0.33463 0.44847 0.0847 0.0
H85 H 0.28882 0.50105 0.02672 0.0
H86 H 0.27318 0.4616 0.03755 0.0
H87 H 0.29618 0.435 0.0667 0.0
H88 H 0.34952 0.48815 0.07351 0.0
H89 H 0.3374 0.48346 0.95622 0.0
H90 H 0.31662 0.51402 0.92997 0.0
O91 O 0.2995 0.54112 0.04489 0.0
C92 C 0.3472 0.57927 0.04581 0.0
C93 C 0.31155 0.53715 0.96302 0.0
C94 C 0.33114 0.49946 0.96551 0.0
N95 N 0.32669 0.52322 0.00423 0.0
C96 C 0.31539 0.5402 0.9899 0.0
C97 C 0.33467 0.50311 0.99236 0.0
C98 C 0.31947 0.51661 0.95079 0.0
C99 C 0.36849 0.53873 0.12464 0.0
N100 N 0.36042 0.55968 0.11483 0.0
C101 C 0.39095 0.53713 0.13579 0.0
C102 C 0.40518 0.55717 0.13687 0.0
C103 C 0.39681 0.57848 0.12688 0.0
C104 C 0.37426 0.57941 0.11586 0.0
C105 C 0.31914 0.60955 0.15982 0.0
C106 C 0.31183 0.60804 0.10608 0.0
C107 C 0.32503 0.58954 0.14519 0.0
N108 N 0.32147 0.58904 0.11864 0.0
C109 C 0.30571 0.62834 0.12007 0.0
C110 C 0.30943 0.62906 0.14712 0.0
C111 C 0.28844 0.55444 0.06091 0.0
C112 C 0.32448 0.45988 0.07192 0.0
C113 C 0.29889 0.48959 0.03947 0.0
C114 C 0.28997 0.46726 0.04549 0.0
C115 C 0.30289 0.45234 0.06184 0.0
N116 N 0.32012 0.49681 0.04937 0.0
C117 C 0.33286 0.48232 0.06545 0.0
Co118 Co 0.93976 0.32835 0.10072 0.0
Co119 Co 0.97222 0.33257 0.04339 0.0
O120 O 0.96808 0.3369 0.08115 0.0
C121 C 0.97677 0.29979 0.12692 0.0
O122 O 0.98259 0.29101 0.10397 0.0
C123 C 0.97542 0.38365 0.05125 0.0
O124 O 0.95774 0.38104 0.06761 0.0
O125 O 0.94 0.34468 0.03565 0.0
O126 O 0.91904 0.34219 0.073 0.0
H127 H 0.94908 0.30566 0.95293 0.0
H128 H 0.9778 0.35595 0.12643 0.0
O129 O 0.96007 0.31469 0.12902 0.0
H130 H 0.90658 0.40568 0.13262 0.0
H131 H 0.89159 0.31859 0.18311 0.0
H132 H 0.89324 0.30783 0.087 0.0
H133 H 0.90472 0.36636 0.11196 0.0
H134 H 0.92673 0.32995 0.15746 0.0
O135 O 0.98451 0.36563 0.04017 0.0
H136 H 0.94386 0.31106 0.00066 0.0
H137 H 0.01022 0.34558 0.00565 0.0
H138 H 0.85766 0.2964 0.11187 0.0
H139 H 0.9804 0.39504 0.14754 0.0
H140 H 0.85669 0.30176 0.16028 0.0
H141 H 0.94463 0.42025 0.15062 0.0
O142 O 0.93807 0.29696 0.08296 0.0
H143 H 0.05223 0.33446 0.08583 0.0
H144 H -0.00062 0.29002 0.02686 0.0
H145 H 0.03903 0.27432 0.03668 0.0
H146 H 0.06577 0.29662 0.06632 0.0
H147 H 0.01237 0.34943 0.07562 0.0
H148 H 0.0161 0.34075 0.95792 0.0
H149 H 0.98542 0.32058 0.93126 0.0
O150 O 0.95941 0.29994 0.0458 0.0
C151 C 0.92104 0.34747 0.04875 0.0
C152 C 0.96262 0.3144 0.96435 0.0
C153 C 0.00022 0.33412 0.96715 0.0
N154 N 0.97682 0.3284 0.00594 0.0
C155 C 0.95979 0.31743 0.99139 0.0
C156 C 0.99678 0.33684 0.99415 0.0
C157 C 0.983 0.3228 0.9522 0.0
C158 C 0.96211 0.36672 0.12791 0.0
N159 N 0.94112 0.35887 0.11798 0.0
C160 C 0.96371 0.38888 0.1398 0.0
C161 C 0.94364 0.40303 0.14149 0.0
C162 C 0.92229 0.39487 0.13137 0.0
C163 C 0.92136 0.37263 0.11961 0.0
C164 C 0.89178 0.31621 0.16202 0.0
C165 C 0.89288 0.31036 0.10804 0.0
C166 C 0.91164 0.32257 0.1474 0.0
N167 N 0.91195 0.31973 0.12074 0.0
C168 C 0.87272 0.30379 0.12203 0.0
C169 C 0.8722 0.30678 0.14919 0.0
C170 C 0.94623 0.28842 0.06157 0.0
C171 C 0.04077 0.32462 0.07283 0.0
C172 C 0.0109 0.29979 0.03983 0.0
C173 C 0.03334 0.29084 0.04527 0.0
C174 C 0.04834 0.30337 0.0619 0.0
N175 N 0.00365 0.32068 0.05055 0.0
C176 C 0.01822 0.33305 0.06691 0.0
Co177 Co 0.17102 0.93983 0.10014 0.0
Co178 Co 0.16738 0.97151 0.0422 0.0
O179 O 0.16236 0.96775 0.07992 0.0
C180 C 0.1986 0.97739 0.12669 0.0
O181 O 0.20774 0.98315 0.10389 0.0
C182 C 0.1161 0.97385 0.04872 0.0
O183 O 0.11869 0.95629 0.06525 0.0
O184 O 0.15608 0.93895 0.03458 0.0
O185 O 0.15825 0.91857 0.07235 0.0
H186 H 0.19666 0.9479 0.9528 0.0
H187 H 0.14222 0.97761 0.12462 0.0
O188 O 0.18373 0.96063 0.12853 0.0
H189 H 0.09359 0.90562 0.13029 0.0
H190 H 0.17981 0.89269 0.1834 0.0
H191 H 0.19273 0.89356 0.08761 0.0
H192 H 0.13339 0.90424 0.11075 0.0
H193 H 0.16838 0.92735 0.15698 0.0
O194 O 0.13417 0.98316 0.03798 0.0
H195 H 0.19036 0.94309 0.00045 0.0
H196 H 0.15441 0.00881 0.00359 0.0
H197 H 0.20425 0.85845 0.11325 0.0
H198 H 0.10262 0.97974 0.1446 0.0
H199 H 0.1978 0.85788 0.16151 0.0
H200 H 0.07797 0.94358 0.14741 0.0
O201 O 0.20279 0.93851 0.08322 0.0
H202 H 0.16309 0.05197 0.08336 0.0
H203 H 0.20975 0.99925 0.02638 0.0
H204 H 0.2245 0.0393 0.036 0.0
H205 H 0.20107 0.06597 0.06463 0.0
H206 H 0.14909 0.01171 0.07338 0.0
H207 H 0.16014 0.01425 0.95593 0.0
H208 H 0.18149 0.98369 0.93023 0.0
O209 O 0.20018 0.95932 0.04565 0.0
C210 C 0.15349 0.9201 0.04793 0.0
C211 C 0.18741 0.96138 0.9638 0.0
C212 C 0.16689 0.99861 0.96555 0.0
N213 N 0.17224 0.97576 0.00481 0.0
C214 C 0.18386 0.95879 0.99079 0.0
C215 C 0.16366 0.99542 0.99251 0.0
C216 C 0.17887 0.98146 0.95114 0.0
C217 C 0.13169 0.96176 0.126 0.0
N218 N 0.14012 0.94082 0.11654 0.0
C219 C 0.10924 0.96309 0.13724 0.0
C220 C 0.09541 0.9428 0.13878 0.0
C221 C 0.10415 0.9215 0.12915 0.0
C222 C 0.12667 0.92084 0.11802 0.0
C223 C 0.18266 0.89271 0.16238 0.0
C224 C 0.18972 0.89337 0.10858 0.0
C225 C 0.17627 0.9123 0.14733 0.0
N226 N 0.17971 0.91239 0.12075 0.0
C227 C 0.19635 0.87348 0.123 0.0
C228 C 0.19275 0.87318 0.15008 0.0
C229 C 0.21161 0.94653 0.06191 0.0
C230 C 0.17342 0.04054 0.07079 0.0
C231 C 0.1995 0.01074 0.03892 0.0
C232 C 0.20791 0.03341 0.04425 0.0
C233 C 0.19475 0.04837 0.06031 0.0
N234 N 0.17852 0.00323 0.04921 0.0
C235 C 0.16555 0.01777 0.06501 0.0
Co236 Co 0.56278 0.33104 0.39898 0.0
Co237 Co 0.52759 0.33282 0.4545 0.0
O238 O 0.53375 0.33933 0.41745 0.0
C239 C 0.52517 0.30667 0.36934 0.0
O240 O 0.51627 0.30013 0.392 0.0
C241 C 0.5256 0.38432 0.45021 0.0
O242 O 0.54418 0.38231 0.435 0.0
O243 O 0.55957 0.34391 0.46504 0.0
O244 O 0.58235 0.34246 0.42894 0.0
H245 H 0.5455 0.2999 0.54396 0.0
H246 H 0.52706 0.36096 0.37242 0.0
O247 O 0.54376 0.31929 0.36858 0.0
H248 H 0.59933 0.40934 0.37597 0.0
H249 H 0.61499 0.32507 0.31925 0.0
H250 H 0.6079 0.30815 0.41393 0.0
H251 H 0.5991 0.36886 0.39378 0.0
H252 H 0.57886 0.33587 0.34348 0.0
O253 O 0.51566 0.36588 0.45935 0.0
H254 H 0.55327 0.30805 0.49715 0.0
H255 H 0.48803 0.34453 0.49078 0.0
H256 H 0.64442 0.29722 0.39052 0.0
H257 H 0.52658 0.40128 0.35416 0.0
H258 H 0.64813 0.30568 0.34282 0.0
H259 H 0.56289 0.4258 0.35596 0.0
O260 O 0.56275 0.29879 0.41436 0.0
H261 H 0.44995 0.33878 0.40734 0.0
H262 H 0.49887 0.29 0.46627 0.0
H263 H 0.4596 0.27566 0.45276 0.0
H264 H 0.43484 0.30014 0.4231 0.0
H265 H 0.48942 0.35235 0.42118 0.0
H266 H 0.47965 0.33697 0.53759 0.0
H267 H 0.50846 0.31442 0.56448 0.0
O268 O 0.53996 0.3 0.45054 0.0
C269 C 0.57926 0.34664 0.4533 0.0
C270 C 0.53277 0.30968 0.53243 0.0
C271 C 0.49582 0.33051 0.52887 0.0
N272 N 0.52103 0.32657 0.49122 0.0
C273 C 0.53704 0.31428 0.5059 0.0
C274 C 0.50069 0.33478 0.50239 0.0
C275 C 0.512 0.31785 0.54394 0.0
C276 C 0.543 0.37143 0.37302 0.0
N277 N 0.56311 0.36252 0.38401 0.0
C278 C 0.54259 0.39429 0.36276 0.0
C279 C 0.56296 0.40804 0.36381 0.0
C280 C 0.58341 0.39883 0.37505 0.0
C281 C 0.58316 0.37591 0.38514 0.0
C282 C 0.61361 0.32134 0.34004 0.0
C283 C 0.60946 0.31204 0.39322 0.0
C284 C 0.59318 0.32737 0.35385 0.0
N285 N 0.59137 0.32282 0.38014 0.0
C286 C 0.63014 0.30574 0.38005 0.0
C287 C 0.6322 0.31047 0.35328 0.0
C288 C 0.55357 0.28917 0.43459 0.0
C289 C 0.46055 0.32798 0.42031 0.0
C290 C 0.48822 0.30072 0.45331 0.0
C291 C 0.46598 0.29253 0.44577 0.0
C292 C 0.45209 0.30628 0.42914 0.0
N293 N 0.49637 0.32203 0.44459 0.0
C294 C 0.48286 0.33561 0.42829 0.0
Co295 Co 0.16964 0.5581 0.39667 0.0
Co296 Co 0.16436 0.52648 0.4545 0.0
O297 O 0.16089 0.52999 0.41653 0.0
C298 C 0.19896 0.52074 0.37238 0.0
O299 O 0.20582 0.51453 0.39602 0.0
C300 C 0.11346 0.52264 0.44525 0.0
O301 O 0.11623 0.54013 0.42867 0.0
O302 O 0.15182 0.55872 0.4613 0.0
O303 O 0.15485 0.57902 0.42355 0.0
H304 H 0.18874 0.55127 0.54531 0.0
H305 H 0.14336 0.51936 0.37063 0.0
O306 O 0.18448 0.53769 0.36924 0.0
H307 H 0.09269 0.5897 0.3618 0.0
H308 H 0.18094 0.60526 0.3138 0.0
H309 H 0.18922 0.60507 0.41023 0.0
H310 H 0.13142 0.59241 0.38371 0.0
H311 H 0.16935 0.57033 0.33969 0.0
O312 O 0.13134 0.51392 0.45697 0.0
H313 H 0.18444 0.55574 0.49735 0.0
H314 H 0.15085 0.48888 0.49253 0.0
H315 H 0.20085 0.64045 0.38513 0.0
H316 H 0.10487 0.51589 0.34831 0.0
H317 H 0.19673 0.64068 0.33655 0.0
H318 H 0.0792 0.55121 0.34389 0.0
O319 O 0.2005 0.56046 0.41541 0.0
H320 H 0.16415 0.44577 0.41365 0.0
H321 H 0.20676 0.50001 0.47276 0.0
H322 H 0.22305 0.46036 0.46419 0.0
H323 H 0.20166 0.43293 0.43449 0.0
H324 H 0.1486 0.48566 0.42262 0.0
H325 H 0.15459 0.48376 0.54049 0.0
H326 H 0.17374 0.51506 0.56719 0.0
O327 O 0.19693 0.53961 0.45283 0.0
C328 C 0.14916 0.57743 0.44771 0.0
C329 C 0.18045 0.53746 0.53388 0.0
C330 C 0.16126 0.49958 0.53118 0.0
N331 N 0.16765 0.52248 0.49215 0.0
C332 C 0.17805 0.53986 0.50671 0.0
C333 C 0.15916 0.5026 0.50405 0.0
C334 C 0.17201 0.51715 0.54614 0.0
C335 C 0.13238 0.53486 0.36857 0.0
N336 N 0.13963 0.55607 0.37844 0.0
C337 C 0.11057 0.53277 0.356 0.0
C338 C 0.09616 0.55258 0.35356 0.0
C339 C 0.10371 0.57417 0.36362 0.0
C340 C 0.12562 0.57559 0.37609 0.0
C341 C 0.18277 0.60539 0.33496 0.0
C342 C 0.18723 0.60511 0.38911 0.0
C343 C 0.17628 0.58565 0.34972 0.0
N344 N 0.17843 0.58575 0.37646 0.0
C345 C 0.19391 0.62516 0.375 0.0
C346 C 0.19162 0.62526 0.34774 0.0
C347 C 0.20863 0.55274 0.43718 0.0
C348 C 0.1736 0.45754 0.42669 0.0
C349 C 0.19739 0.48818 0.45975 0.0
C350 C 0.20667 0.46574 0.45502 0.0
C351 C 0.19466 0.45036 0.43836 0.0
N352 N 0.17669 0.49506 0.4483 0.0
C353 C 0.16483 0.4801 0.43191 0.0
Co354 Co 0.93987 0.16926 0.39885 0.0
Co355 Co 0.97193 0.16681 0.45663 0.0
O356 O 0.96813 0.16142 0.41897 0.0
C357 C 0.97733 0.19737 0.37323 0.0
O358 O 0.98393 0.20447 0.39665 0.0
C359 C 0.9753 0.1155 0.45061 0.0
O360 O 0.95796 0.11759 0.4337 0.0
O361 O 0.9396 0.15495 0.46442 0.0
O362 O 0.9192 0.15541 0.42658 0.0
H363 H 0.94797 0.19643 0.54577 0.0
H364 H 0.97865 0.14218 0.37389 0.0
O365 O 0.96008 0.18316 0.37062 0.0
H366 H 0.90857 0.09086 0.36793 0.0
H367 H 0.89229 0.17702 0.31578 0.0
H368 H 0.89283 0.18905 0.41172 0.0
H369 H 0.90574 0.13037 0.388 0.0
H370 H 0.92741 0.16668 0.34201 0.0
O371 O 0.98416 0.13385 0.46121 0.0
H372 H 0.9432 0.18964 0.4982 0.0
H373 H 0.00953 0.15482 0.4953 0.0
H374 H 0.85726 0.19946 0.38627 0.0
H375 H 0.98223 0.1029 0.35339 0.0
H376 H 0.85686 0.19346 0.33794 0.0
H377 H 0.94704 0.0769 0.35042 0.0
O378 O 0.93742 0.20087 0.41599 0.0
H379 H 0.05234 0.16357 0.41526 0.0
H380 H 0.99899 0.20977 0.47197 0.0
H381 H 0.03874 0.22514 0.46205 0.0
H382 H 0.06573 0.20195 0.43354 0.0
H383 H 0.01236 0.14896 0.42553 0.0
H384 H 0.01494 0.16105 0.54289 0.0
H385 H 0.98406 0.18207 0.56842 0.0
O386 O 0.9592 0.19936 0.45291 0.0
C387 C 0.92092 0.1512 0.45112 0.0
C388 C 0.9616 0.18732 0.53484 0.0
C389 C 0.99917 0.16743 0.53323 0.0
N390 N 0.97617 0.17205 0.49397 0.0
C391 C 0.95903 0.1835 0.50789 0.0
C392 C 0.99599 0.16392 0.5063 0.0
C393 C 0.98184 0.17924 0.54754 0.0
C394 C 0.96321 0.13105 0.37245 0.0
N395 N 0.942 0.13857 0.3821 0.0
C396 C 0.96536 0.10879 0.36092 0.0
C397 C 0.94562 0.0942 0.35929 0.0
C398 C 0.92404 0.10201 0.36913 0.0
C399 C 0.92255 0.12438 0.38055 0.0
C400 C 0.89223 0.17967 0.33683 0.0
C401 C 0.89272 0.18624 0.39072 0.0
C402 C 0.91208 0.17389 0.35178 0.0
N403 N 0.91208 0.17708 0.37839 0.0
C404 C 0.87256 0.19223 0.3764 0.0
C405 C 0.87236 0.18888 0.34928 0.0
C406 C 0.94568 0.2102 0.4369 0.0
C407 C 0.04077 0.1738 0.42776 0.0
C408 C 0.01062 0.19961 0.4595 0.0
C409 C 0.03312 0.20838 0.45399 0.0
C410 C 0.04826 0.19535 0.438 0.0
N411 N 0.00345 0.17843 0.44944 0.0
C412 C 0.01816 0.16558 0.43372 0.0
Co413 Co 0.32951 0.938 0.40056 0.0
Co414 Co 0.33169 0.97184 0.45705 0.0
O415 O 0.33714 0.96691 0.41957 0.0
C416 C 0.30072 0.97448 0.37406 0.0
O417 O 0.29395 0.98177 0.39734 0.0
C418 C 0.38307 0.97468 0.45091 0.0
O419 O 0.38088 0.95704 0.43441 0.0
O420 O 0.34319 0.93958 0.4661 0.0
O421 O 0.34402 0.91841 0.42879 0.0
H422 H 0.3012 0.95092 0.54676 0.0
H423 H 0.35567 0.97649 0.37389 0.0
O424 O 0.31494 0.95719 0.37183 0.0
H425 H 0.40803 0.90707 0.36953 0.0
H426 H 0.32152 0.88799 0.3193 0.0
H427 H 0.31082 0.89097 0.41538 0.0
H428 H 0.36881 0.90419 0.39028 0.0
H429 H 0.33155 0.92401 0.34413 0.0
O430 O 0.36478 0.98383 0.46135 0.0
H431 H 0.30812 0.94471 0.49942 0.0
H432 H 0.34413 0.0103 0.49449 0.0
H433 H 0.30074 0.85453 0.39135 0.0
H434 H 0.39464 0.98011 0.35268 0.0
H435 H 0.30608 0.85289 0.34295 0.0
H436 H 0.42116 0.94525 0.35051 0.0
O437 O 0.29817 0.93547 0.4183 0.0
H438 H 0.33598 0.0509 0.41266 0.0
H439 H 0.28914 -1e-05 0.47142 0.0
H440 H 0.27428 0.03961 0.45999 0.0
H441 H 0.2978 0.06537 0.43044 0.0
H442 H 0.35006 0.01106 0.42445 0.0
H443 H 0.33778 0.01713 0.54183 0.0
H444 H 0.31609 0.98734 0.56826 0.0
O445 O 0.29899 0.95943 0.45357 0.0
C446 C 0.34764 0.92071 0.45338 0.0
C447 C 0.3106 0.96406 0.53543 0.0
C448 C 0.33117 0.00121 0.53267 0.0
N449 N 0.32634 0.97721 0.49418 0.0
C450 C 0.31451 0.96068 0.50861 0.0
C451 C 0.33475 0.99722 0.50589 0.0
C452 C 0.31899 0.98449 0.54749 0.0
C453 C 0.36702 0.96119 0.37281 0.0
N454 N 0.35996 0.94014 0.38328 0.0
C455 C 0.38911 0.96337 0.36086 0.0
C456 C 0.40399 0.94381 0.35968 0.0
C457 C 0.39664 0.92239 0.37037 0.0
C458 C 0.37445 0.92088 0.38217 0.0
C459 C 0.31916 0.88847 0.34039 0.0
C460 C 0.31334 0.89033 0.39434 0.0
C461 C 0.32476 0.90883 0.35455 0.0
N462 N 0.32194 0.90951 0.3812 0.0
C463 C 0.30753 0.86968 0.38083 0.0
C464 C 0.31051 0.86878 0.35367 0.0
C465 C 0.28853 0.94482 0.43846 0.0
C466 C 0.3256 0.03986 0.4256 0.0
C467 C 0.29942 0.01107 0.45848 0.0
C468 C 0.29095 0.03351 0.45213 0.0
C469 C 0.30416 0.04796 0.43556 0.0
N470 N 0.32048 0.00328 0.44868 0.0
C471 C 0.33352 0.01733 0.43241 0.0
Co472 Co 0.43817 0.82971 0.89842 0.0
Co473 Co 0.47267 0.83361 0.95434 0.0
O474 O 0.46704 0.83853 0.91686 0.0
C475 C 0.47585 0.80361 0.8704 0.0
O476 O 0.48457 0.79758 0.89333 0.0
C477 C 0.47468 0.8849 0.94729 0.0
O478 O 0.45644 0.88224 0.93172 0.0
O479 O 0.44051 0.8449 0.96382 0.0
O480 O 0.41837 0.843 0.92726 0.0
H481 H 0.45346 0.80475 0.04519 0.0
H482 H 0.47484 0.85805 0.87138 0.0
O483 O 0.45739 0.81637 0.86905 0.0
H484 H 0.4028 0.90685 0.86898 0.0
H485 H 0.38692 0.82007 0.81833 0.0
H486 H 0.39257 0.80831 0.9141 0.0
H487 H 0.40221 0.86729 0.88916 0.0
H488 H 0.42285 0.83176 0.84239 0.0
O489 O 0.4844 0.86688 0.95769 0.0
H490 H 0.44634 0.81084 0.99787 0.0
H491 H 0.51178 0.84678 0.99059 0.0
H492 H 0.35622 0.79654 0.89085 0.0
H493 H 0.47617 0.89741 0.85072 0.0
H494 H 0.35325 0.80241 0.84261 0.0
H495 H 0.43999 0.92214 0.84955 0.0
O496 O 0.43769 0.79813 0.9157 0.0
H497 H 0.55099 0.83795 0.90837 0.0
H498 H 0.50128 0.79137 0.96865 0.0
H499 H 0.54081 0.77664 0.95662 0.0
H500 H 0.56597 0.80002 0.9263 0.0
H501 H 0.51127 0.85192 0.92077 0.0
H502 H 0.51954 0.84125 0.03789 0.0
H503 H 0.49029 0.82001 0.06549 0.0
O504 O 0.46045 0.80072 0.95182 0.0
C505 C 0.4211 0.84775 0.95157 0.0
C506 C 0.46638 0.81394 0.03335 0.0
C507 C 0.50345 0.83446 0.02925 0.0
N508 N 0.47875 0.82892 0.99145 0.0
C509 C 0.46249 0.81737 0.00653 0.0
C510 C 0.49896 0.83757 0.0025 0.0
C511 C 0.48704 0.82254 0.04473 0.0
C512 C 0.45897 0.86863 0.87074 0.0
N513 N 0.43847 0.86039 0.88148 0.0
C514 C 0.45985 0.89093 0.8591 0.0
C515 C 0.43955 0.90482 0.85848 0.0
C516 C 0.41869 0.89626 0.8694 0.0
C517 C 0.41848 0.87388 0.88089 0.0
C518 C 0.38798 0.81747 0.83935 0.0
C519 C 0.39133 0.81106 0.89314 0.0
C520 C 0.40831 0.824 0.85308 0.0
N521 N 0.40972 0.82088 0.87965 0.0
C522 C 0.37074 0.8043 0.88006 0.0
C523 C 0.3691 0.80757 0.85299 0.0
C524 C 0.44686 0.78929 0.93639 0.0
C525 C 0.54022 0.82764 0.92165 0.0
C526 C 0.51211 0.80161 0.9554 0.0
C527 C 0.53449 0.79321 0.9487 0.0
C528 C 0.5486 0.80634 0.9317 0.0
N529 N 0.50405 0.82254 0.94551 0.0
C530 C 0.51776 0.8355 0.92882 0.0
Co531 Co 0.67097 0.43361 0.9008 0.0
Co532 Co 0.66485 0.47036 0.95461 0.0
O533 O 0.66061 0.46286 0.91745 0.0
C534 C 0.69478 0.47108 0.87041 0.0
O535 O 0.70067 0.48081 0.89288 0.0
C536 C 0.61368 0.4716 0.94673 0.0
O537 O 0.61659 0.45236 0.93276 0.0
O538 O 0.65336 0.43869 0.96553 0.0
O539 O 0.6594 0.41455 0.93117 0.0
H540 H 0.69165 0.4555 0.04724 0.0
H541 H 0.64029 0.46668 0.87125 0.0
O542 O 0.68278 0.45208 0.87005 0.0
H543 H 0.59553 0.39218 0.87622 0.0
H544 H 0.68246 0.37882 0.82401 0.0
H545 H 0.69561 0.3904 0.9189 0.0
H546 H 0.63524 0.3952 0.89576 0.0
H547 H 0.66897 0.41522 0.84598 0.0
O548 O 0.63155 0.48214 0.95642 0.0
H549 H 0.68656 0.44612 0.00025 0.0
H550 H 0.65097 0.51117 0.9881 0.0
H551 H 0.70923 0.35365 0.89778 0.0
H552 H 0.60072 0.46436 0.85121 0.0
H553 H 0.70267 0.34769 0.84999 0.0
H554 H 0.57802 0.42692 0.85372 0.0
O555 O 0.70261 0.43597 0.91749 0.0
H556 H 0.66132 0.54633 0.90392 0.0
H557 H 0.70674 0.49975 0.96829 0.0
H558 H 0.72165 0.53867 0.95425 0.0
H559 H 0.69886 0.56224 0.92186 0.0
H560 H 0.64716 0.50724 0.91836 0.0
H561 H 0.65546 0.52118 0.03501 0.0
H562 H 0.67603 0.49328 0.06489 0.0
O563 O 0.6979 0.45815 0.95376 0.0
C564 C 0.65281 0.41841 0.95473 0.0
C565 C 0.68275 0.46785 0.03439 0.0
C566 C 0.66241 0.5047 0.02753 0.0
N567 N 0.66873 0.47821 0.99142 0.0
C568 C 0.67989 0.46267 0.00776 0.0
C569 C 0.65989 0.49893 0.00101 0.0
C570 C 0.67395 0.48904 0.04429 0.0
C571 C 0.63062 0.45026 0.87217 0.0
N572 N 0.64012 0.43107 0.88453 0.0
C573 C 0.60818 0.44908 0.8609 0.0
C574 C 0.59544 0.42808 0.86235 0.0
C575 C 0.60525 0.40858 0.87498 0.0
C576 C 0.62773 0.41041 0.88605 0.0
C577 C 0.68537 0.38119 0.84486 0.0
C578 C 0.69255 0.38785 0.89813 0.0
C579 C 0.67781 0.40177 0.85739 0.0
N580 N 0.68131 0.40481 0.88374 0.0
C581 C 0.70036 0.36704 0.88627 0.0
C582 C 0.6967 0.36372 0.85945 0.0
C583 C 0.71042 0.44535 0.93854 0.0
C584 C 0.67138 0.53625 0.9181 0.0
C585 C 0.69676 0.50989 0.95414 0.0
C586 C 0.70526 0.53193 0.94631 0.0
C587 C 0.69246 0.54516 0.92815 0.0
N588 N 0.67605 0.50131 0.94423 0.0
C589 C 0.6634 0.51416 0.92641 0.0
Co590 Co 0.05855 0.66924 0.90009 0.0
Co591 Co 0.02553 0.6665 0.95714 0.0
O592 O 0.02994 0.66147 0.91954 0.0
C593 C 0.02215 0.698 0.87312 0.0
O594 O 0.01624 0.70702 0.89593 0.0
C595 C 0.02194 0.61535 0.95027 0.0
O596 O 0.03972 0.61761 0.93398 0.0
O597 O 0.05759 0.65428 0.96554 0.0
O598 O 0.07881 0.65548 0.92828 0.0
H599 H 0.04811 0.69473 0.04729 0.0
H600 H 0.02023 0.64196 0.87448 0.0
O601 O 0.0387 0.68287 0.87137 0.0
H602 H 0.0906 0.5909 0.8699 0.0
H603 H 0.10749 0.67698 0.818 0.0
H604 H 0.10532 0.68915 0.91389 0.0
H605 H 0.09299 0.63049 0.88987 0.0
H606 H 0.07196 0.66661 0.84351 0.0
O607 O 0.01292 0.6336 0.96096 0.0
H608 H 0.05374 0.68843 0.99976 0.0
H609 H 0.98704 0.65455 0.9947 0.0
H610 H 0.14128 0.6996 0.88917 0.0
H611 H 0.01711 0.60262 0.85404 0.0
H612 H 0.14251 0.69352 0.84086 0.0
H613 H 0.05244 0.57675 0.85178 0.0
O614 O 0.06069 0.70083 0.91736 0.0
H615 H 0.94587 0.66455 0.9139 0.0
H616 H 0.99865 0.7096 0.97237 0.0
H617 H 0.95925 0.7255 0.96174 0.0
H618 H 0.93254 0.70289 0.93235 0.0
H619 H 0.98549 0.6494 0.92489 0.0
H620 H 0.98076 0.6603 0.04224 0.0
H621 H 0.01139 0.68061 0.06883 0.0
O622 O 0.03872 0.69893 0.95416 0.0
C623 C 0.07659 0.65091 0.95269 0.0
C624 C 0.03458 0.68594 0.03589 0.0
C625 C 0.9968 0.66659 0.03307 0.0
N626 N 0.02062 0.67137 0.99444 0.0
C627 C 0.03764 0.6824 0.00896 0.0
C628 C 0.00046 0.66336 0.00617 0.0
C629 C 0.01399 0.67799 0.04797 0.0
C630 C 0.03574 0.63089 0.87334 0.0
N631 N 0.05678 0.63852 0.88335 0.0
C632 C 0.03384 0.6086 0.86184 0.0
C633 C 0.05366 0.59408 0.86061 0.0
C634 C 0.07507 0.602 0.87079 0.0
C635 C 0.07631 0.6244 0.88217 0.0
C636 C 0.10719 0.67966 0.83905 0.0
C637 C 0.10579 0.68631 0.8929 0.0
C638 C 0.08711 0.67387 0.85359 0.0
N639 N 0.08666 0.67709 0.88019 0.0
C640 C 0.12617 0.69233 0.87899 0.0
C641 C 0.12684 0.68894 0.85189 0.0
C642 C 0.05242 0.70988 0.93843 0.0
C643 C 0.95731 0.67453 0.92679 0.0
C644 C 0.98714 0.6997 0.95951 0.0
C645 C 0.96484 0.70876 0.95361 0.0
C646 C 0.94986 0.69606 0.93712 0.0
N647 N 0.99428 0.67853 0.94936 0.0
C648 C 0.97973 0.666 0.93315 0.0
Co649 Co 0.82951 0.05874 0.90049 0.0
Co650 Co 0.83277 0.02603 0.95775 0.0
O651 O 0.83723 0.03012 0.91999 0.0
C652 C 0.79976 0.0223 0.8753 0.0
O653 O 0.79291 0.01578 0.89883 0.0
C654 C 0.8838 0.0217 0.94987 0.0
O655 O 0.88156 0.0393 0.93332 0.0
O656 O 0.84544 0.05804 0.96558 0.0
O657 O 0.84447 0.07885 0.92803 0.0
H658 H 0.80617 0.04962 0.04819 0.0
H659 H 0.85509 0.01966 0.87417 0.0
O660 O 0.81447 0.0391 0.87247 0.0
H661 H 0.90779 0.08866 0.86758 0.0
H662 H 0.82071 0.10728 0.81824 0.0
H663 H 0.81105 0.10606 0.91451 0.0
H664 H 0.86885 0.09213 0.88887 0.0
H665 H 0.83094 0.0717 0.84374 0.0
O666 O 0.8656 0.0131 0.96104 0.0
H667 H 0.81177 0.05479 0.00049 0.0
H668 H 0.84498 0.98774 0.99548 0.0
H669 H 0.80076 0.14208 0.8898 0.0
H670 H 0.89377 0.01545 0.85244 0.0
H671 H 0.80558 0.14283 0.84131 0.0
H672 H 0.92046 0.05009 0.84915 0.0
O673 O 0.79843 0.0617 0.91869 0.0
H674 H 0.83327 0.94599 0.91532 0.0
H675 H 0.78968 -0.00029 0.97413 0.0
H676 H 0.77324 0.96038 0.96425 0.0
H677 H 0.79512 0.93321 0.93469 0.0
H678 H 0.84896 0.98557 0.92558 0.0
H679 H 0.83994 0.98191 0.04318 0.0
H680 H 0.82032 0.01296 0.06984 0.0
O681 O 0.80041 0.03951 0.95529 0.0
C682 C 0.84918 0.0768 0.95242 0.0
C683 C 0.81466 0.03592 0.03677 0.0
C684 C 0.83364 0.99793 0.03396 0.0
N685 N 0.82846 0.02148 0.99519 0.0
C686 C 0.8178 0.03871 0.00974 0.0
C687 C 0.83648 0.00135 0.00698 0.0
C688 C 0.82263 0.01536 0.04891 0.0
C689 C 0.86652 0.03487 0.8726 0.0
N690 N 0.85971 0.05613 0.88275 0.0
C691 C 0.88844 0.03235 0.86036 0.0
C692 C 0.90342 0.05179 0.85855 0.0
C693 C 0.89633 0.07343 0.86891 0.0
C694 C 0.87429 0.07528 0.88102 0.0
C695 C 0.81858 0.10719 0.83937 0.0
C696 C 0.81334 0.10632 0.89343 0.0
C697 C 0.8243 0.08708 0.8539 0.0
N698 N 0.82178 0.08689 0.88061 0.0
C699 C 0.80742 0.12673 0.87954 0.0
C700 C 0.8101 0.12713 0.85233 0.0
C701 C 0.78949 0.05346 0.93981 0.0
C702 C 0.82361 0.95765 0.92829 0.0
C703 C 0.79926 0.988 0.9612 0.0
C704 C 0.78989 0.96574 0.95571 0.0
C705 C 0.80218 0.9505 0.93913 0.0
N706 N 0.82032 0.99484 0.95054 0.0
C707 C 0.83245 0.98003 0.93424 0.0
Co708 Co 0.43734 0.67043 0.6021 0.0
Co709 Co 0.46999 0.66607 0.54488 0.0
O710 O 0.46543 0.66108 0.58252 0.0
C711 C 0.4762 0.69552 0.62926 0.0
O712 O 0.48432 0.70188 0.60616 0.0
C713 C 0.47167 0.61469 0.55133 0.0
O714 O 0.45365 0.61731 0.56724 0.0
O715 O 0.43742 0.65515 0.53654 0.0
O716 O 0.41641 0.65806 0.5738 0.0
H717 H 0.44843 0.69554 0.45493 0.0
H718 H 0.47398 0.64087 0.62752 0.0
O719 O 0.45769 0.68289 0.63098 0.0
H720 H 0.40088 0.59378 0.63149 0.0
H721 H 0.38861 0.68028 0.68408 0.0
H722 H 0.39189 0.69321 0.58835 0.0
H723 H 0.40074 0.63358 0.61187 0.0
H724 H 0.42355 0.66802 0.65859 0.0
O725 O 0.48135 0.63275 0.54098 0.0
H726 H 0.44265 0.68933 0.50245 0.0
H727 H 0.50787 0.65262 0.50716 0.0
H728 H 0.35652 0.70557 0.61305 0.0
H729 H 0.47488 0.60125 0.64759 0.0
H730 H 0.35474 0.69912 0.66127 0.0
H731 H 0.43816 0.57738 0.64955 0.0
O732 O 0.43717 0.70222 0.58528 0.0
H733 H 0.54959 0.6608 0.58797 0.0
H734 H 0.4986 0.70806 0.52966 0.0
H735 H 0.53862 0.72233 0.54028 0.0
H736 H 0.56441 0.69861 0.5696 0.0
H737 H 0.50937 0.64728 0.57699 0.0
H738 H 0.51427 0.65825 0.45962 0.0
H739 H 0.48446 0.67993 0.43321 0.0
O740 O 0.45821 0.69907 0.54797 0.0
C741 C 0.41828 0.65303 0.54948 0.0
C742 C 0.46159 0.68614 0.46624 0.0
C743 C 0.49853 0.66518 0.46887 0.0
N744 N 0.47502 0.67084 0.50759 0.0
C745 C 0.45845 0.68264 0.49317 0.0
C746 C 0.4948 0.66202 0.49576 0.0
C747 C 0.4818 0.67736 0.45406 0.0
C748 C 0.45789 0.63067 0.62852 0.0
N749 N 0.43732 0.63953 0.61854 0.0
C750 C 0.45852 0.60821 0.63981 0.0
C751 C 0.43792 0.59482 0.64088 0.0
C752 C 0.417 0.604 0.63072 0.0
C753 C 0.41704 0.62651 0.61955 0.0
C754 C 0.38916 0.68314 0.66307 0.0
C755 C 0.39117 0.69021 0.60931 0.0
C756 C 0.40891 0.67629 0.64854 0.0
N757 N 0.40967 0.67974 0.62198 0.0
C758 C 0.37113 0.6973 0.6232 0.0
C759 C 0.37015 0.69371 0.65026 0.0
C760 C 0.44561 0.71084 0.5641 0.0
C761 C 0.53854 0.67126 0.57511 0.0
C762 C 0.50971 0.69767 0.54248 0.0
C763 C 0.53236 0.70582 0.54839 0.0
C764 C 0.54683 0.69249 0.56483 0.0
N765 N 0.50173 0.6768 0.5526 0.0
C766 C 0.5158 0.66365 0.56875 0.0
Co767 Co 0.83155 0.43778 0.60026 0.0
Co768 Co 0.8307 0.47102 0.54328 0.0
O769 O 0.83788 0.46661 0.58051 0.0
C770 C 0.8039 0.4745 0.628 0.0
O771 O 0.79713 0.48252 0.60501 0.0
C772 C 0.88225 0.47413 0.54682 0.0
O773 O 0.88065 0.45685 0.56385 0.0
O774 O 0.8419 0.4387 0.53401 0.0
O775 O 0.84519 0.41816 0.57157 0.0
H776 H 0.79611 0.44895 0.45577 0.0
H777 H 0.8581 0.47693 0.62513 0.0
O778 O 0.81776 0.45685 0.6295 0.0
H779 H 0.91179 0.40846 0.62755 0.0
H780 H 0.82778 0.3883 0.6823 0.0
H781 H 0.81293 0.39037 0.58688 0.0
H782 H 0.87179 0.40471 0.60891 0.0
H783 H 0.83625 0.42424 0.65664 0.0
O784 O 0.86358 0.48302 0.53692 0.0
H785 H 0.80526 0.44332 0.50273 0.0
H786 H 0.8413 0.50902 0.5046 0.0
H787 H 0.80438 0.354 0.61175 0.0
H788 H 0.89787 0.48142 0.64421 0.0
H789 H 0.8118 0.35282 0.65982 0.0
H790 H 0.92505 0.44704 0.64539 0.0
O791 O 0.7996 0.43467 0.58421 0.0
H792 H 0.83677 0.55072 0.58597 0.0
H793 H 0.78736 0.49875 0.53107 0.0
H794 H 0.77288 0.53847 0.54271 0.0
H795 H 0.79769 0.56476 0.57032 0.0
H796 H 0.85046 0.51078 0.57403 0.0
H797 H 0.83272 0.51527 0.45759 0.0
H798 H 0.80989 0.48514 0.43289 0.0
O799 O 0.79821 0.45849 0.54885 0.0
C800 C 0.84738 0.42011 0.54674 0.0
C801 C 0.806 0.46224 0.46634 0.0
C802 C 0.82658 0.49945 0.46736 0.0
N803 N 0.82363 0.47592 0.50642 0.0
C804 C 0.81117 0.45919 0.49295 0.0
C805 C 0.83143 0.4958 0.49395 0.0
C806 C 0.81376 0.48254 0.45351 0.0
C807 C 0.86975 0.46184 0.6258 0.0
N808 N 0.86262 0.44057 0.61596 0.0
C809 C 0.89228 0.46451 0.63654 0.0
C810 C 0.90754 0.44522 0.63716 0.0
C811 C 0.90011 0.42357 0.62713 0.0
C812 C 0.87747 0.42157 0.61653 0.0
C813 C 0.82451 0.38858 0.66136 0.0
C814 C 0.81635 0.38994 0.60776 0.0
C815 C 0.82922 0.4089 0.64674 0.0
N816 N 0.82524 0.40934 0.62026 0.0
C817 C 0.81141 0.36932 0.62176 0.0
C818 C 0.81555 0.36868 0.64873 0.0
C819 C 0.78878 0.44378 0.56468 0.0
C820 C 0.82582 0.53945 0.57388 0.0
C821 C 0.79821 0.51007 0.54316 0.0
C822 C 0.78995 0.53256 0.54964 0.0
C823 C 0.80388 0.5473 0.56512 0.0
N824 N 0.81977 0.50252 0.55178 0.0
C825 C 0.83352 0.51686 0.56698 0.0
Co826 Co 0.05834 0.8266 0.59987 0.0
Co827 Co 0.02517 0.83353 0.54339 0.0
O828 O 0.02997 0.83661 0.58121 0.0
C829 C 0.0205 0.79938 0.62593 0.0
O830 O 0.01338 0.79263 0.60257 0.0
C831 C 0.02222 0.88439 0.55302 0.0
O832 O 0.0404 0.88143 0.56864 0.0
O833 O 0.05725 0.84595 0.5356 0.0
O834 O 0.07901 0.83996 0.57187 0.0
H835 H 0.04693 0.80998 0.45136 0.0
H836 H 0.02215 0.85495 0.62777 0.0
O837 O 0.03818 0.81308 0.62836 0.0
H838 H 0.09506 0.90237 0.6315 0.0
H839 H 0.1079 0.81397 0.68073 0.0
H840 H 0.10368 0.80434 0.58457 0.0
H841 H 0.09491 0.86338 0.60995 0.0
H842 H 0.07265 0.82697 0.65622 0.0
O843 O 0.01279 0.86662 0.54182 0.0
H844 H 0.05292 0.81372 0.49917 0.0
H845 H 0.98649 0.84771 0.50702 0.0
H846 H 0.13933 0.79126 0.60827 0.0
H847 H 0.02159 0.89375 0.64975 0.0
H848 H 0.14159 0.79605 0.6567 0.0
H849 H 0.05821 0.91778 0.65162 0.0
O850 O 0.05845 0.79554 0.58148 0.0
H851 H 0.94587 0.83389 0.5875 0.0
H852 H 0.99774 0.79157 0.52557 0.0
H853 H 0.95829 0.77549 0.53556 0.0
H854 H 0.93205 0.79672 0.56669 0.0
H855 H 0.98555 0.84924 0.5771 0.0
H856 H 0.97985 0.84454 0.45924 0.0
H857 H 0.01017 0.82547 0.4311 0.0
O858 O 0.03802 0.8008 0.54404 0.0
C859 C 0.07667 0.84691 0.54819 0.0
C860 C 0.03354 0.81824 0.46343 0.0
C861 C 0.99591 0.83766 0.46785 0.0
N862 N 0.01996 0.83068 0.50588 0.0
C863 C 0.03681 0.82033 0.49052 0.0
C864 C -0.00022 0.83944 0.49487 0.0
C865 C 0.01292 0.82696 0.45207 0.0
C866 C 0.03822 0.8652 0.62875 0.0
N867 N 0.05856 0.85686 0.61771 0.0
C868 C 0.03777 0.8872 0.64112 0.0
C869 C 0.05831 0.90068 0.64213 0.0
C870 C 0.07899 0.89206 0.63083 0.0
C871 C 0.07878 0.86999 0.61861 0.0
C872 C 0.10714 0.81183 0.65962 0.0
C873 C 0.1046 0.80662 0.60562 0.0
C874 C 0.08722 0.81913 0.64564 0.0
N875 N 0.08621 0.8166 0.61897 0.0
C876 C 0.1248 0.79912 0.61895 0.0
C877 C 0.12605 0.80179 0.64613 0.0
C878 C 0.05048 0.78819 0.5595 0.0
C879 C 0.95712 0.82451 0.57385 0.0
C880 C 0.98644 0.80087 0.53919 0.0
C881 C 0.96411 0.79171 0.54473 0.0
C882 C 0.94939 0.80364 0.56219 0.0
N883 N 0.99386 0.82138 0.55065 0.0
C884 C 0.97956 0.83316 0.56782 0.0
Co885 Co 0.67011 0.06292 0.59973 0.0
Co886 Co 0.66498 0.02817 0.54424 0.0
O887 O 0.6607 0.03404 0.5817 0.0
C888 C 0.69641 0.02603 0.62861 0.0
O889 O 0.70515 0.01891 0.60608 0.0
C890 C 0.61392 0.02511 0.55214 0.0
O891 O 0.61635 0.04385 0.56704 0.0
O892 O 0.65246 0.05986 0.53491 0.0
O893 O 0.65803 0.08286 0.57033 0.0
H894 H 0.69112 0.04744 0.45239 0.0
H895 H 0.64033 0.02778 0.62748 0.0
O896 O 0.68221 0.04343 0.62959 0.0
H897 H 0.59347 0.10112 0.62617 0.0
H898 H 0.67991 0.11474 0.6793 0.0
H899 H 0.69342 0.10758 0.58394 0.0
H900 H 0.63327 0.10003 0.60661 0.0
H901 H 0.66756 0.07891 0.65545 0.0
O902 O 0.63205 0.01544 0.54194 0.0
H903 H 0.68589 0.0548 0.4998 0.0
H904 H 0.65218 0.98835 0.50878 0.0
H905 H 0.70588 0.1438 0.60698 0.0
H906 H 0.6007 0.02817 0.64752 0.0
H907 H 0.69913 0.14754 0.65501 0.0
H908 H 0.57694 0.06501 0.64684 0.0
O909 O 0.70183 0.06228 0.58289 0.0
H910 H 0.66411 0.95023 0.59122 0.0
H911 H 0.70768 0.00065 0.52891 0.0
H912 H 0.72383 0.96167 0.5409 0.0
H913 H 0.70196 0.93615 0.57223 0.0
H914 H 0.64869 0.98942 0.57882 0.0
H915 H 0.65684 0.98035 0.46142 0.0
H916 H 0.67653 0.00998 0.43291 0.0
O917 O 0.6976 0.04135 0.54562 0.0
C918 C 0.65141 0.0797 0.54665 0.0
C919 C 0.6826 0.03435 0.46463 0.0
C920 C 0.66333 0.9967 0.46969 0.0
N921 N 0.66898 0.02191 0.50706 0.0
C922 C 0.67966 0.03838 0.49149 0.0
C923 C 0.66071 0.00134 0.49648 0.0
C924 C 0.67438 0.01334 0.45371 0.0
C925 C 0.63021 0.04395 0.62737 0.0
N926 N 0.63916 0.06389 0.61602 0.0
C927 C 0.60773 0.04404 0.63863 0.0
C928 C 0.5944 0.0647 0.63821 0.0
C929 C 0.60365 0.08497 0.6266 0.0
C930 C 0.62619 0.08422 0.61551 0.0
C931 C 0.68289 0.11335 0.65836 0.0
C932 C 0.69028 0.10915 0.60481 0.0
C933 C 0.67597 0.09309 0.64476 0.0
N934 N 0.67957 0.09127 0.61829 0.0
C935 C 0.69744 0.12967 0.61776 0.0
C936 C 0.69367 0.13175 0.64472 0.0
C937 C 0.7098 0.05397 0.56133 0.0
C938 C 0.67376 0.96115 0.57749 0.0
C939 C 0.6981 0.98966 0.54261 0.0
C940 C 0.7073 0.96759 0.54928 0.0
C941 C 0.69502 0.95328 0.56686 0.0
N942 N 0.6772 0.99721 0.55307 0.0
C943 C 0.66508 0.98331 0.57034 0.0
C944 C 0.55007 0.24788 0.04076 0.0
C945 C 0.56085 0.23473 0.06089 0.0
C946 C 0.55925 0.26974 0.03324 0.0
C947 C 0.61528 0.30056 0.03004 0.0
H948 H 0.57731 0.35541 0.01285 0.0
C949 C 0.64711 0.37505 0.9617 0.0
C950 C 0.64314 0.39839 0.96996 0.0
C951 C 0.63742 0.35615 0.9756 0.0
C952 C 0.58814 0.34028 0.01779 0.0
H953 H 0.58919 0.23477 0.08963 0.0
H954 H 0.60529 0.27282 0.07623 0.0
H955 H 0.5587 0.32092 0.03318 0.0
H956 H 0.62584 0.42018 0.99929 0.0
H957 H 0.60861 0.38704 0.02332 0.0
H958 H 0.64459 0.31962 0.01405 0.0
C959 C 0.58976 0.26612 0.06629 0.0
C960 C 0.57748 0.32055 0.02925 0.0
C961 C 0.58044 0.24438 0.07403 0.0
C962 C 0.62932 0.40241 0.99248 0.0
C963 C 0.61935 0.38348 0.00616 0.0
C964 C 0.62586 0.32014 0.01829 0.0
C965 C 0.57953 0.27878 0.0455 0.0
C966 C 0.59093 0.30043 0.03528 0.0
C967 C 0.6233 0.3602 0.99783 0.0
C968 C 0.61235 0.34009 0.01182 0.0
H969 H 0.53492 0.24103 0.03026 0.0
H970 H 0.5511 0.27907 0.01702 0.0
H971 H 0.62603 0.2852 0.03424 0.0
H972 H 0.65767 0.37133 0.94446 0.0
H973 H 0.64055 0.33836 0.96862 0.0
C974 C 0.09818 0.64086 0.99424 0.0
C975 C 0.09687 0.64027 0.96664 0.0
C976 C 0.11722 0.63047 0.00736 0.0
C977 C 0.16143 0.58431 0.00072 0.0
H978 H 0.19985 0.62111 0.04862 0.0
C979 C 0.25483 0.55552 0.0291 0.0
C980 C 0.264 0.56134 0.05394 0.0
C981 C 0.23267 0.56358 0.02136 0.0
C982 C 0.18906 0.61037 0.03577 0.0
H983 H 0.11452 0.62823 0.93125 0.0
H984 H 0.14739 0.60968 0.95422 0.0
H985 H 0.16424 0.63846 0.0297 0.0
H986 H 0.2565 0.57949 0.09054 0.0
H987 H 0.21737 0.59301 0.07725 0.0
H988 H 0.18585 0.55613 0.00681 0.0
C989 C 0.13372 0.61829 0.96561 0.0
C990 C 0.16874 0.62039 0.02485 0.0
C991 C 0.11496 0.62903 0.95248 0.0
C992 C 0.25004 0.57478 0.07121 0.0
C993 C 0.22767 0.58268 0.06352 0.0
C994 C 0.18148 0.57416 0.01193 0.0
C995 C 0.13501 0.61891 0.99314 0.0
C996 C 0.1551 0.60762 0.00676 0.0
C997 C 0.21884 0.57744 0.03833 0.0
C998 C 0.19593 0.58726 0.02906 0.0
H999 H 0.08457 0.64947 0.00571 0.0
H1000 H 0.11787 0.63115 0.02861 0.0
H1001 H 0.15095 0.574 0.98711 0.0
H1002 H 0.26504 0.54527 0.01519 0.0
H1003 H 0.22676 0.55954 0.00164 0.0
C1004 C 0.87127 0.11507 0.95156 0.0
C1005 C 0.86023 0.09705 0.96603 0.0
C1006 C 0.88215 0.13393 0.96438 0.0
C1007 C 0.88065 0.16888 0.02396 0.0
H1008 H 0.94411 0.18729 0.00411 0.0
C1009 C 0.92645 0.2496 0.0711 0.0
C1010 C 0.93935 0.26414 0.05392 0.0
C1011 C 0.91858 0.22738 0.0629 0.0
C1012 C 0.92629 0.18256 0.00973 0.0
H1013 H 0.85165 0.08495 0.00536 0.0
H1014 H 0.87025 0.11834 0.02769 0.0
H1015 H 0.9263 0.15235 0.98442 0.0
H1016 H 0.95446 0.2664 0.01477 0.0
H1017 H 0.9402 0.22833 0.00036 0.0
H1018 H 0.88008 0.1996 0.04833 0.0
C1019 C 0.87063 0.1176 0.00643 0.0
C1020 C 0.91617 0.16249 0.99851 0.0
C1021 C 0.86008 0.09849 0.99363 0.0
C1022 C 0.94464 0.25571 0.02862 0.0
C1023 C 0.93659 0.23368 0.02037 0.0
C1024 C 0.89063 0.18919 0.03491 0.0
C1025 C 0.8819 0.13539 0.99191 0.0
C1026 C 0.89316 0.15566 0.00525 0.0
C1027 C 0.92326 0.21929 0.03728 0.0
C1028 C 0.91346 0.1965 0.02762 0.0
H1029 H 0.87173 0.11453 0.93032 0.0
H1030 H 0.89052 0.14757 0.95274 0.0
H1031 H 0.8628 0.16403 0.02934 0.0
H1032 H 0.92218 0.25548 0.09078 0.0
H1033 H 0.90869 0.21662 0.07661 0.0
C1034 C 0.3824 0.86898 0.95215 0.0
C1035 C 0.40103 0.8583 0.96597 0.0
C1036 C 0.36401 0.88002 0.96561 0.0
C1037 C 0.33069 0.87986 0.02591 0.0
H1038 H 0.31369 0.94379 0.00632 0.0
C1039 C 0.2503 0.92685 0.07234 0.0
C1040 C 0.23608 0.93981 0.05488 0.0
C1041 C 0.2726 0.91883 0.06457 0.0
C1042 C 0.31804 0.92586 0.0119 0.0
H1043 H 0.41461 0.85029 0.00484 0.0
H1044 H 0.38191 0.8691 0.02837 0.0
H1045 H 0.34806 0.92516 0.98633 0.0
H1046 H 0.23453 0.95498 0.01572 0.0
H1047 H 0.27271 0.94048 0.00202 0.0
H1048 H 0.30003 0.87996 0.0504 0.0
C1049 C 0.38189 0.86914 0.00709 0.0
C1050 C 0.33779 0.91528 0.00053 0.0
C1051 C 0.40057 0.85845 0.99361 0.0
C1052 C 0.24495 0.94511 0.02977 0.0
C1053 C 0.26705 0.93692 0.02194 0.0
C1054 C 0.31066 0.8903 0.037 0.0
C1055 C 0.36363 0.88025 0.99316 0.0
C1056 C 0.34404 0.89207 0.0071 0.0
C1057 C 0.28108 0.92344 0.0391 0.0
C1058 C 0.30381 0.91329 0.02972 0.0
H1059 H 0.38215 0.8692 0.9309 0.0
H1060 H 0.34996 0.88825 0.95446 0.0
H1061 H 0.33515 0.86187 0.03117 0.0
H1062 H 0.24408 0.92256 0.09189 0.0
H1063 H 0.28307 0.90884 0.07845 0.0
C1064 C 0.54956 0.25239 0.46171 0.0
C1065 C 0.56056 0.26465 0.44103 0.0
C1066 C 0.55819 0.23049 0.46993 0.0
C1067 C 0.61345 0.19848 0.47387 0.0
H1068 H 0.57471 0.14433 0.49164 0.0
C1069 C 0.64507 0.12315 0.54129 0.0
C1070 C 0.64121 0.1 0.53235 0.0
C1071 C 0.63512 0.14232 0.52808 0.0
C1072 C 0.58573 0.15929 0.48658 0.0
H1073 H 0.58864 0.26289 0.41201 0.0
H1074 H 0.60376 0.22486 0.42665 0.0
H1075 H 0.55652 0.17906 0.4712 0.0
H1076 H 0.62367 0.0788 0.50266 0.0
H1077 H 0.60597 0.11241 0.47986 0.0
H1078 H 0.64253 0.17902 0.4898 0.0
C1079 C 0.58851 0.23228 0.43648 0.0
C1080 C 0.57533 0.17914 0.47506 0.0
C1081 C 0.57974 0.25402 0.42805 0.0
C1082 C 0.6271 0.09643 0.50996 0.0
C1083 C 0.61684 0.11561 0.49699 0.0
C1084 C 0.62377 0.17881 0.48572 0.0
C1085 C 0.57812 0.22055 0.45783 0.0
C1086 C 0.5891 0.19894 0.46869 0.0
C1087 C 0.62082 0.13871 0.50591 0.0
C1088 C 0.60999 0.1591 0.49232 0.0
H1089 H 0.53472 0.26001 0.47211 0.0
H1090 H 0.54992 0.22185 0.48653 0.0
H1091 H 0.62443 0.21361 0.46941 0.0
H1092 H 0.65584 0.12651 0.55847 0.0
H1093 H 0.63829 0.15997 0.53547 0.0
C1094 C 0.39656 0.64155 0.50836 0.0
C1095 C 0.39728 0.64336 0.53591 0.0
C1096 C 0.37672 0.63216 0.49577 0.0
C1097 C 0.31347 0.61776 0.50791 0.0
H1098 H 0.32051 0.57786 0.44647 0.0
C1099 C 0.23964 0.55706 0.4718 0.0
C1100 C 0.23235 0.56065 0.44569 0.0
C1101 C 0.26062 0.56692 0.48097 0.0
C1102 C 0.31837 0.58911 0.46352 0.0
H1103 H 0.37772 0.63648 0.57175 0.0
H1104 H 0.34381 0.61938 0.55006 0.0
H1105 H 0.35542 0.59606 0.4663 0.0
H1106 H 0.24219 0.57634 0.40833 0.0
H1107 H 0.27934 0.59312 0.42442 0.0
H1108 H 0.27655 0.61001 0.50566 0.0
C1109 C 0.35816 0.62584 0.538 0.0
C1110 C 0.33828 0.59964 0.47482 0.0
C1111 C 0.37778 0.63551 0.55052 0.0
C1112 C 0.24722 0.57332 0.42859 0.0
C1113 C 0.26847 0.58289 0.43772 0.0
C1114 C 0.29371 0.60694 0.4969 0.0
C1115 C 0.35726 0.62414 0.51045 0.0
C1116 C 0.3361 0.6139 0.49736 0.0
C1117 C 0.275 0.58024 0.46415 0.0
C1118 C 0.29601 0.59235 0.4748 0.0
H1119 H 0.41125 0.64756 0.49649 0.0
H1120 H 0.37655 0.63143 0.47452 0.0
H1121 H 0.31094 0.62914 0.52476 0.0
H1122 H 0.22877 0.54731 0.48553 0.0
H1123 H 0.26545 0.56445 0.50138 0.0
C1124 C 0.85593 0.39855 0.50469 0.0
C1125 C 0.85803 0.40018 0.53218 0.0
C1126 C 0.86648 0.37987 0.49106 0.0
C1127 C 0.91484 0.33753 0.49552 0.0
H1128 H 0.87746 0.29729 0.4501 0.0
C1129 C 0.94477 0.24425 0.46815 0.0
C1130 C 0.93853 0.23461 0.44367 0.0
C1131 C 0.93648 0.2664 0.47571 0.0
C1132 C 0.88833 0.3086 0.46223 0.0
H1133 H 0.87289 0.38347 0.56681 0.0
H1134 H 0.89156 0.35126 0.54297 0.0
H1135 H 0.85973 0.33262 0.46923 0.0
H1136 H 0.91938 0.24124 0.40748 0.0
H1137 H 0.90538 0.28026 0.42047 0.0
H1138 H 0.94346 0.31379 0.48864 0.0
C1139 C 0.88172 0.3644 0.53204 0.0
C1140 C 0.87811 0.32877 0.47326 0.0
C1141 C 0.87089 0.38277 0.54569 0.0
C1142 C 0.92443 0.24806 0.42654 0.0
C1143 C 0.91627 0.27038 0.43406 0.0
C1144 C 0.92515 0.3176 0.48424 0.0
C1145 C 0.87966 0.36278 0.50463 0.0
C1146 C 0.89111 0.34305 0.49052 0.0
C1147 C 0.92194 0.27968 0.4589 0.0
C1148 C 0.91185 0.3025 0.46805 0.0
H1149 H 0.84607 0.41163 0.49372 0.0
H1150 H 0.86466 0.37896 0.4699 0.0
H1151 H 0.92533 0.3485 0.50846 0.0
H1152 H 0.95553 0.23444 0.48193 0.0
H1153 H 0.94088 0.27272 0.49517 0.0
C1154 C 0.09524 0.86873 0.51055 0.0
C1155 C 0.0975 0.8573 0.53495 0.0
C1156 C 0.11484 0.87915 0.49856 0.0
C1157 C 0.17456 0.90174 0.51394 0.0
H1158 H 0.18384 0.89803 0.43859 0.0
C1159 C 0.25157 0.95013 0.46473 0.0
C1160 C 0.26426 0.93755 0.44558 0.0
C1161 C 0.22977 0.94192 0.47362 0.0
C1162 C 0.18156 0.89912 0.45967 0.0
H1163 H 0.12233 0.8474 0.56554 0.0
H1164 H 0.15644 0.86507 0.5444 0.0
H1165 H 0.14925 0.87955 0.4584 0.0
H1166 H 0.26353 0.90689 0.42004 0.0
H1167 H 0.22575 0.89227 0.43599 0.0
H1168 H 0.20722 0.92042 0.51547 0.0
C1169 C 0.13944 0.8665 0.5348 0.0
C1170 C 0.16159 0.88876 0.471 0.0
C1171 C 0.11987 0.85622 0.54686 0.0
C1172 C 0.2542 0.91705 0.43477 0.0
C1173 C 0.23246 0.90871 0.44385 0.0
C1174 C 0.19452 0.91196 0.50266 0.0
C1175 C 0.13715 0.87828 0.51062 0.0
C1176 C 0.15796 0.8898 0.49831 0.0
C1177 C 0.22022 0.92079 0.46379 0.0
C1178 C 0.19835 0.91071 0.47541 0.0
H1179 H 0.07827 0.86996 0.50086 0.0
H1180 H 0.1124 0.8883 0.48008 0.0
H1181 H 0.17215 0.90321 0.53497 0.0
H1182 H 0.25866 0.96613 0.4733 0.0
H1183 H 0.22057 0.95197 0.48854 0.0
C1184 C 0.42727 0.75048 0.92662 0.0
C1185 C 0.44028 0.76488 0.94384 0.0
C1186 C 0.41922 0.7283 0.93473 0.0
C1187 C 0.4258 0.68347 0.98817 0.0
H1188 H 0.36216 0.66607 0.96782 0.0
C1189 C 0.36862 0.61791 0.04631 0.0
C1190 C 0.35799 0.59956 0.03198 0.0
C1191 C 0.3798 0.63651 0.03337 0.0
C1192 C 0.38005 0.67061 0.97341 0.0
H1193 H 0.45557 0.76688 0.98289 0.0
H1194 H 0.44095 0.72889 0.99724 0.0
H1195 H 0.38033 0.7012 0.94886 0.0
H1196 H 0.35026 0.58671 0.99273 0.0
H1197 H 0.36933 0.61975 0.97012 0.0
H1198 H 0.42489 0.65344 0.01374 0.0
C1199 C 0.43737 0.73431 0.97724 0.0
C1200 C 0.39055 0.69066 0.96247 0.0
C1201 C 0.44565 0.75629 0.96904 0.0
C1202 C 0.35837 0.60052 0.00435 0.0
C1203 C 0.3692 0.6194 0.9914 0.0
C1204 C 0.41515 0.66368 0.9994 0.0
C1205 C 0.42378 0.72013 0.96034 0.0
C1206 C 0.41345 0.69757 0.97002 0.0
C1207 C 0.38023 0.63741 0.00583 0.0
C1208 C 0.39207 0.65728 0.99239 0.0
H1209 H 0.42296 0.75646 0.90698 0.0
H1210 H 0.40921 0.7177 0.921 0.0
H1211 H 0.44365 0.68786 0.99401 0.0
H1212 H 0.36865 0.61779 0.06756 0.0
H1213 H 0.38795 0.65036 0.04491 0.0
C1214 C 0.74233 0.44436 0.97253 0.0
C1215 C 0.73488 0.43975 0.9467 0.0
C1216 C 0.76431 0.43653 0.98131 0.0
C1217 C 0.80983 0.3917 0.96592 0.0
H1218 H 0.84448 0.42453 0.02052 0.0
C1219 C 0.89977 0.35994 0.00781 0.0
C1220 C 0.90061 0.35846 0.03539 0.0
C1221 C 0.88075 0.3709 0.99529 0.0
C1222 C 0.83494 0.4152 0.00528 0.0
H1223 H 0.74534 0.42451 0.90936 0.0
H1224 H 0.78405 0.41162 0.9244 0.0
H1225 H 0.80999 0.44318 0.00074 0.0
H1226 H 0.88203 0.36734 0.07136 0.0
H1227 H 0.84913 0.38683 0.04945 0.0
H1228 H 0.83513 0.36384 0.97041 0.0
C1229 C 0.77257 0.42059 0.93816 0.0
C1230 C 0.81513 0.4258 0.994 0.0
C1231 C 0.75042 0.42816 0.92947 0.0
C1232 C 0.882 0.36817 0.05012 0.0
C1233 C 0.86321 0.37946 0.03762 0.0
C1234 C 0.82987 0.38127 0.97694 0.0
C1235 C 0.77957 0.42419 0.96438 0.0
C1236 C 0.80202 0.41399 0.97453 0.0
C1237 C 0.86243 0.38095 0.01011 0.0
C1238 C 0.84232 0.39274 0.99704 0.0
H1239 H 0.73083 0.4532 0.98638 0.0
H1240 H 0.76886 0.43937 0.00172 0.0
H1241 H 0.80003 0.38186 0.95132 0.0
H1242 H 0.91378 0.35258 0.99587 0.0
H1243 H 0.88052 0.37186 0.97404 0.0
C1244 C 0.07426 0.74766 0.92917 0.0
C1245 C 0.06034 0.73382 0.94614 0.0
C1246 C 0.08395 0.769 0.93789 0.0
C1247 C 0.10607 0.79549 0.99713 0.0
H1248 H 0.09794 0.85662 0.96414 0.0
C1249 C 0.13474 0.88017 0.04948 0.0
C1250 C 0.14366 0.89905 0.03463 0.0
C1251 C 0.12501 0.86049 0.03713 0.0
C1252 C 0.10076 0.83963 0.97334 0.0
H1253 H 0.04485 0.73223 0.98518 0.0
H1254 H 0.0622 0.76902 0.00033 0.0
H1255 H 0.07968 0.82166 0.9445 0.0
H1256 H 0.14969 0.91187 0.99502 0.0
H1257 H 0.13346 0.87706 0.97341 0.0
H1258 H 0.12757 0.81289 0.02553 0.0
C1259 C 0.06555 0.76332 0.98035 0.0
C1260 C 0.09019 0.81969 0.96214 0.0
C1261 C 0.05558 0.74227 0.97159 0.0
C1262 C 0.14283 0.89767 0.00706 0.0
C1263 C 0.13338 0.87777 0.99466 0.0
C1264 C 0.11694 0.81525 0.00805 0.0
C1265 C 0.08015 0.77662 0.96378 0.0
C1266 C 0.09243 0.79758 0.97427 0.0
C1267 C 0.12432 0.85891 0.00956 0.0
C1268 C 0.11406 0.83769 0.99664 0.0
H1269 H 0.0782 0.74172 0.90943 0.0
H1270 H 0.09518 0.77904 0.92479 0.0
H1271 H 0.10834 0.7785 0.00656 0.0
H1272 H 0.13492 0.88067 0.07073 0.0
H1273 H 0.11772 0.84663 0.04932 0.0
C1274 C 0.61771 0.13224 0.0512 0.0
C1275 C 0.59933 0.1424 0.03654 0.0
C1276 C 0.63748 0.12287 0.03872 0.0
C1277 C 0.65959 0.10166 0.9743 0.0
H1278 H 0.72003 0.10778 0.00942 0.0
C1279 C 0.75179 0.07552 0.93087 0.0
C1280 C 0.76567 0.06154 0.94773 0.0
C1281 C 0.73041 0.08509 0.93963 0.0
C1282 C 0.70324 0.10589 0.99945 0.0
H1283 H 0.58741 0.15079 0.99711 0.0
H1284 H 0.62239 0.13501 0.97528 0.0
H1285 H 0.68528 0.12632 0.0284 0.0
H1286 H 0.76733 0.04587 0.98668 0.0
H1287 H 0.73042 0.06293 0.00189 0.0
H1288 H 0.67809 0.08157 0.945 0.0
C1289 C 0.62123 0.13383 0.99647 0.0
C1290 C 0.68328 0.11639 0.01036 0.0
C1291 C 0.60123 0.14299 0.009 0.0
C1292 C 0.75726 0.05665 0.97316 0.0
C1293 C 0.73614 0.06647 0.98196 0.0
C1294 C 0.67973 0.09141 0.96315 0.0
C1295 C 0.63964 0.12371 0.01122 0.0
C1296 C 0.66109 0.114 0.99827 0.0
C1297 C 0.72276 0.0811 0.96547 0.0
C1298 C 0.7016 0.09308 0.97595 0.0
H1299 H 0.6168 0.13127 0.07241 0.0
H1300 H 0.65099 0.11471 0.05072 0.0
H1301 H 0.64277 0.0993 0.96455 0.0
H1302 H 0.75769 0.07955 0.91113 0.0
H1303 H 0.72033 0.09634 0.92658 0.0
C1304 C 0.44506 0.7442 0.53189 0.0
C1305 C 0.43935 0.73541 0.55692 0.0
C1306 C 0.43712 0.76636 0.52388 0.0
C1307 C 0.39038 0.81006 0.53812 0.0
H1308 H 0.4259 0.84764 0.48822 0.0
C1309 C 0.35797 0.89967 0.49525 0.0
C1310 C 0.35866 0.90079 0.46764 0.0
C1311 C 0.36882 0.88101 0.5086 0.0
C1312 C 0.41582 0.83731 0.50218 0.0
H1313 H 0.42172 0.74365 0.59365 0.0
H1314 H 0.40845 0.78268 0.5799 0.0
H1315 H 0.44421 0.81309 0.50821 0.0
H1316 H 0.37138 0.8832 0.4325 0.0
H1317 H 0.39058 0.85098 0.45584 0.0
H1318 H 0.36205 0.83457 0.53203 0.0
C1319 C 0.41855 0.77211 0.5662 0.0
C1320 C 0.42623 0.81746 0.51356 0.0
C1321 C 0.42632 0.74979 0.57416 0.0
C1322 C 0.37046 0.8829 0.45373 0.0
C1323 C 0.38161 0.86451 0.46708 0.0
C1324 C 0.3801 0.83014 0.52699 0.0
C1325 C 0.42349 0.7805 0.54077 0.0
C1326 C 0.41345 0.80321 0.53118 0.0
C1327 C 0.38091 0.86339 0.49461 0.0
C1328 C 0.39254 0.8436 0.50846 0.0
H1329 H 0.45502 0.73367 0.51802 0.0
H1330 H 0.44098 0.77196 0.50401 0.0
H1331 H 0.37986 0.7994 0.55133 0.0
H1332 H 0.34897 0.91314 0.50654 0.0
H1333 H 0.36806 0.88051 0.52985 0.0
C1334 C 0.75054 0.44741 0.54018 0.0
C1335 C 0.76441 0.43579 0.55911 0.0
C1336 C 0.7286 0.43831 0.53283 0.0
C1337 C 0.6985 0.38215 0.52682 0.0
H1338 H 0.64245 0.41999 0.51483 0.0
C1339 C 0.62259 0.35344 0.45886 0.0
C1340 C 0.59946 0.35597 0.46847 0.0
C1341 C 0.64167 0.3627 0.47278 0.0
C1342 C 0.65792 0.4092 0.51832 0.0
H1343 H 0.76558 0.40595 0.58589 0.0
H1344 H 0.7274 0.38999 0.57273 0.0
H1345 H 0.67732 0.43802 0.53508 0.0
H1346 H 0.57824 0.3703 0.50019 0.0
H1347 H 0.61174 0.38688 0.52428 0.0
H1348 H 0.67942 0.35353 0.50938 0.0
C1349 C 0.7336 0.40613 0.56363 0.0
C1350 C 0.67786 0.41952 0.52972 0.0
C1351 C 0.75541 0.41536 0.57123 0.0
C1352 C 0.59586 0.36796 0.49233 0.0
C1353 C 0.61497 0.37755 0.50605 0.0
C1354 C 0.67872 0.37194 0.5151 0.0
C1355 C 0.72019 0.41728 0.54404 0.0
C1356 C 0.6984 0.40612 0.53387 0.0
C1357 C 0.63804 0.37497 0.4964 0.0
C1358 C 0.65834 0.38542 0.51049 0.0
H1359 H 0.75688 0.46321 0.53051 0.0
H1360 H 0.71868 0.44717 0.51754 0.0
H1361 H 0.71418 0.37148 0.52956 0.0
H1362 H 0.62599 0.34431 0.44056 0.0
H1363 H 0.65928 0.36067 0.46479 0.0
C1364 C 0.137 0.59985 0.48801 0.0
C1365 C 0.13838 0.59826 0.46049 0.0
C1366 C 0.12698 0.61968 0.49997 0.0
C1367 C 0.11041 0.68192 0.48575 0.0
H1368 H 0.07329 0.67593 0.54944 0.0
C1369 C 0.05292 0.7574 0.52439 0.0
C1370 C 0.05734 0.7643 0.55049 0.0
C1371 C 0.06186 0.73619 0.51471 0.0
C1372 C 0.08372 0.6778 0.53173 0.0
H1373 H 0.12988 0.6161 0.42399 0.0
H1374 H 0.11169 0.65007 0.44467 0.0
H1375 H 0.09096 0.64077 0.52967 0.0
H1376 H 0.07353 0.75356 0.58726 0.0
H1377 H 0.08877 0.71612 0.57027 0.0
H1378 H 0.10255 0.71882 0.48747 0.0
C1379 C 0.11899 0.63642 0.45714 0.0
C1380 C 0.09396 0.65773 0.52045 0.0
C1381 C 0.12929 0.6168 0.44522 0.0
C1382 C 0.06988 0.74884 0.56704 0.0
C1383 C 0.07856 0.72741 0.55739 0.0
C1384 C 0.0999 0.70184 0.49679 0.0
C1385 C 0.11785 0.63824 0.48468 0.0
C1386 C 0.10734 0.65953 0.49721 0.0
C1387 C 0.07511 0.72123 0.53096 0.0
C1388 C 0.08638 0.69995 0.51978 0.0
H1389 H 0.14397 0.58593 0.50036 0.0
H1390 H 0.12675 0.62059 0.52121 0.0
H1391 H 0.12108 0.68416 0.46829 0.0
H1392 H 0.04323 0.76873 0.51107 0.0
H1393 H 0.05874 0.73165 0.49433 0.0
C1394 C 0.74922 0.07253 0.57054 0.0
C1395 C 0.73414 0.0603 0.55334 0.0
C1396 C 0.77137 0.08031 0.56202 0.0
C1397 C 0.81497 0.07387 0.50743 0.0
H1398 H 0.83413 0.13671 0.52887 0.0
C1399 C 0.88225 0.12982 0.45008 0.0
C1400 C 0.90047 0.14041 0.46465 0.0
C1401 C 0.86339 0.11884 0.46279 0.0
C1402 C 0.82911 0.11904 0.52296 0.0
H1403 H 0.73087 0.04611 0.51387 0.0
H1404 H 0.76888 0.06023 0.4989 0.0
H1405 H 0.79883 0.11904 0.54799 0.0
H1406 H 0.91289 0.14816 0.50408 0.0
H1407 H 0.87952 0.12937 0.52623 0.0
H1408 H 0.84476 0.07445 0.48152 0.0
C1409 C 0.76397 0.06341 0.51914 0.0
C1410 C 0.80896 0.10883 0.53399 0.0
C1411 C 0.742 0.05543 0.52771 0.0
C1412 C 0.89919 0.1401 0.49226 0.0
C1413 C 0.88009 0.12942 0.50496 0.0
C1414 C 0.8349 0.08423 0.49616 0.0
C1415 C 0.77884 0.07622 0.53606 0.0
C1416 C 0.80143 0.08623 0.52609 0.0
C1417 C 0.86215 0.11852 0.49033 0.0
C1418 C 0.84197 0.10701 0.50358 0.0
H1419 H 0.74381 0.07644 0.59047 0.0
H1420 H 0.78252 0.08973 0.57575 0.0
H1421 H 0.81005 0.05625 0.5013 0.0
H1422 H 0.88264 0.12973 0.42883 0.0
H1423 H 0.84961 0.11079 0.45106 0.0
C1424 C 0.4986 0.9123 0.97525 0.0
C1425 C 0.48213 0.90891 0.95496 0.0
C1426 C 0.50369 0.93501 0.98431 0.0
C1427 C 0.47759 0.99447 0.98753 0.0
H1428 H 0.54075 0.01325 0.00801 0.0
C1429 C 0.5019 0.08992 0.01792 0.0
C1430 C 0.51766 0.09246 0.03905 0.0
C1431 C 0.49709 0.06759 0.00755 0.0
C1432 C 0.52297 0.00817 0.00263 0.0
H1433 H 0.45891 0.92674 0.92744 0.0
H1434 H 0.46807 0.96632 0.94302 0.0
H1435 H 0.53432 0.9743 0.98895 0.0
H1436 H 0.53999 0.07348 0.06655 0.0
H1437 H 0.53139 0.03461 0.04861 0.0
H1438 H 0.46626 0.02835 0.00125 0.0
C1439 C 0.47666 0.95142 0.95229 0.0
C1440 C 0.5193 0.98587 0.99168 0.0
C1441 C 0.47154 0.92873 0.94326 0.0
C1442 C 0.5279 0.07217 0.05012 0.0
C1443 C 0.52311 0.04989 0.03975 0.0
C1444 C 0.48128 0.01678 0.99844 0.0
C1445 C 0.49246 0.95478 0.97323 0.0
C1446 C 0.49656 0.97874 0.9841 0.0
C1447 C 0.50796 0.04739 0.01809 0.0
C1448 C 0.50398 0.02382 0.00624 0.0
H1449 H 0.50701 0.89739 0.98471 0.0
H1450 H 0.5158 0.93699 0.00062 0.0
H1451 H 0.45979 0.98936 0.98229 0.0
H1452 H 0.49376 0.10522 0.00893 0.0
H1453 H 0.48542 0.06622 0.99076 0.0
C1454 C 0.40942 0.50004 0.01874 0.0
C1455 C 0.40689 0.51708 0.03862 0.0
C1456 C 0.4317 0.4948 0.00853 0.0
C1457 C 0.49043 0.52125 0.00041 0.0
H1458 H 0.51014 0.45729 0.98455 0.0
C1459 C 0.58617 0.49702 0.97277 0.0
C1460 C 0.58962 0.47923 0.95392 0.0
C1461 C 0.5635 0.5023 0.98178 0.0
C1462 C 0.50476 0.47529 0.98851 0.0
H1463 H 0.42584 0.54121 0.06417 0.0
H1464 H 0.46467 0.53189 0.04648 0.0
H1465 H 0.47143 0.46422 0.00403 0.0
H1466 H 0.57192 0.45385 0.92878 0.0
H1467 H 0.53235 0.46336 0.94423 0.0
H1468 H 0.52371 0.53235 0.98488 0.0
C1469 C 0.44939 0.52291 0.03848 0.0
C1470 C 0.48262 0.47923 0.99974 0.0
C1471 C 0.42716 0.52811 0.04873 0.0
C1472 C 0.56987 0.46753 0.94349 0.0
C1473 C 0.54721 0.47285 0.95246 0.0
C1474 C 0.51253 0.51732 0.98912 0.0
C1475 C 0.45185 0.50652 0.01796 0.0
C1476 C 0.47529 0.50224 0.00594 0.0
C1477 C 0.54382 0.48997 0.97207 0.0
C1478 C 0.51999 0.49429 0.98314 0.0
H1479 H 0.39414 0.49124 0.01052 0.0
H1480 H 0.43304 0.48217 0.99263 0.0
H1481 H 0.48507 0.53923 0.00452 0.0
H1482 H 0.60103 0.50632 0.98125 0.0
H1483 H 0.56152 0.51545 0.99706 0.0
C1484 C 0.02469 0.5715 0.94689 0.0
C1485 C 0.01457 0.59152 0.95866 0.0
C1486 C 0.02002 0.549 0.95672 0.0
C1487 C 0.97928 0.51498 0.99867 0.0
H1488 H 0.03313 0.47328 0.00678 0.0
C1489 C 0.97235 0.42747 0.05524 0.0
C1490 C 0.98264 0.40763 0.04325 0.0
C1491 C 0.97698 0.4501 0.04577 0.0
C1492 C 0.01789 0.48464 0.00443 0.0
H1493 H 0.99086 0.60361 0.98931 0.0
H1494 H 0.98278 0.56426 0.00657 0.0
H1495 H 0.03856 0.51224 0.98738 0.0
H1496 H 0.00659 0.39603 0.01259 0.0
H1497 H 0.01457 0.43558 0.99598 0.0
H1498 H 0.9586 0.48735 0.01568 0.0
C1499 C 0.99424 0.56598 0.98964 0.0
C1500 C 0.02098 0.50693 0.99327 0.0
C1501 C 0.9989 0.58852 0.97979 0.0
C1502 C 0.99841 0.41097 0.02228 0.0
C1503 C 0.00303 0.43363 0.0128 0.0
C1504 C 0.97619 0.49268 0.00983 0.0
C1505 C 0.00513 0.54604 0.97854 0.0
C1506 C 0.0017 0.52231 0.99021 0.0
C1507 C 0.992 0.4534 0.02413 0.0
C1508 C 0.99546 0.47726 0.01281 0.0
H1509 H 0.03669 0.57319 0.93042 0.0
H1510 H 0.02829 0.53393 0.94742 0.0
H1511 H 0.96405 0.52633 0.9963 0.0
H1512 H 0.96026 0.42551 0.07158 0.0
H1513 H 0.96858 0.46503 0.05523 0.0
C1514 C 0.07226 0.97047 0.05218 0.0
C1515 C 0.09214 0.98086 0.04039 0.0
C1516 C 0.04965 0.97512 0.0426 0.0
C1517 C 0.01925 0.99379 0.9824 0.0
H1518 H 0.96563 0.00238 0.02876 0.0
C1519 C 0.92768 0.02392 0.94594 0.0
C1520 C 0.90764 0.01398 0.95787 0.0
C1521 C 0.95022 0.01878 0.95536 0.0
C1522 C 0.98037 -0.00033 0.01556 0.0
H1523 H 0.10384 0.00499 0.00995 0.0
H1524 H 0.06427 0.01329 0.99342 0.0
H1525 H 0.00493 0.99716 0.04737 0.0
H1526 H 0.89558 0.99006 0.98833 0.0
H1527 H 0.93504 0.98087 0.00459 0.0
H1528 H 0.99469 0.99632 0.95058 0.0
C1529 C 0.06625 0.00126 0.0098 0.0
C1530 C 0.00289 0.99677 0.02622 0.0
C1531 C 0.08888 0.99665 0.01942 0.0
C1532 C 0.91067 0.99807 0.97877 0.0
C1533 C 0.93324 0.99295 0.98822 0.0
C1534 C 0.99673 0.99668 0.97173 0.0
C1535 C 0.04644 0.99024 0.02103 0.0
C1536 C 0.02257 0.99384 0.00975 0.0
C1537 C 0.95323 0.00359 0.97692 0.0
C1538 C 0.97705 -0.00032 0.98819 0.0
H1539 H 0.07416 0.95826 0.06841 0.0
H1540 H 0.03477 0.96623 0.05156 0.0
H1541 H 0.03401 0.99113 0.9692 0.0
H1542 H 0.92596 0.03621 0.92975 0.0
H1543 H 0.96524 0.0274 0.94635 0.0
C1544 C 0.49619 0.58759 0.52368 0.0
C1545 C 0.47904 0.59075 0.54332 0.0
C1546 C 0.50148 0.56502 0.51436 0.0
C1547 C 0.47543 0.50579 0.50853 0.0
H1548 H 0.53946 0.48693 0.49179 0.0
C1549 C 0.50085 0.41053 0.47872 0.0
C1550 C 0.51797 0.40797 0.45895 0.0
C1551 C 0.49549 0.43284 0.48878 0.0
C1552 C 0.52145 0.49204 0.49608 0.0
H1553 H 0.45469 0.57261 0.56933 0.0
H1554 H 0.46415 0.53323 0.55324 0.0
H1555 H 0.53222 0.52566 0.51101 0.0
H1556 H 0.54212 0.4269 0.4334 0.0
H1557 H 0.53252 0.46577 0.45072 0.0
H1558 H 0.46466 0.47217 0.49353 0.0
C1559 C 0.47317 0.54825 0.54473 0.0
C1560 C 0.51732 0.51421 0.50714 0.0
C1561 C 0.46788 0.57081 0.55405 0.0
C1562 C 0.52898 0.42823 0.44879 0.0
C1563 C 0.52361 0.45051 0.45883 0.0
C1564 C 0.47956 0.48361 0.49746 0.0
C1565 C 0.48975 0.54514 0.5245 0.0
C1566 C 0.49426 0.52135 0.51342 0.0
C1567 C 0.50712 0.45302 0.47925 0.0
C1568 C 0.50261 0.47654 0.49103 0.0
H1569 H 0.50508 0.6026 0.51497 0.0
H1570 H 0.5142 0.56323 0.49862 0.0
H1571 H 0.45741 0.51093 0.51276 0.0
H1572 H 0.49209 0.39525 0.487 0.0
H1573 H 0.4828 0.43419 0.50462 0.0
C1574 C 0.08582 0.49935 0.47355 0.0
C1575 C 0.08939 0.51514 0.45264 0.0
C1576 C 0.06302 0.49438 0.4824 0.0
C1577 C 0.00345 0.5202 0.48372 0.0
H1578 H 0.98487 0.45769 0.50674 0.0
C1579 C 0.9081 0.49649 0.51552 0.0
C1580 C 0.90577 0.48128 0.53718 0.0
C1581 C 0.93036 0.50116 0.50486 0.0
C1582 C 0.98989 0.47531 0.50064 0.0
H1583 H 0.07181 0.53721 0.42379 0.0
H1584 H 0.03205 0.52827 0.43904 0.0
H1585 H 0.02384 0.46365 0.48757 0.0
H1586 H 0.92502 0.4599 0.56536 0.0
H1587 H 0.96374 0.46827 0.54696 0.0
H1588 H 0.96951 0.53186 0.49691 0.0
C1589 C 0.04689 0.52012 0.44893 0.0
C1590 C 0.01219 0.4787 0.48962 0.0
C1591 C 0.06967 0.5251 0.44009 0.0
C1592 C 0.92618 0.47154 0.54852 0.0
C1593 C 0.94837 0.47619 0.53787 0.0
C1594 C 0.98113 0.5168 0.49472 0.0
C1595 C 0.04333 0.50505 0.47048 0.0
C1596 C 0.01928 0.50121 0.48118 0.0
C1597 C 0.95068 0.4907 0.51565 0.0
C1598 C 0.97418 0.49435 0.50348 0.0
H1599 H 0.10065 0.49142 0.48368 0.0
H1600 H 0.06089 0.48284 0.49919 0.0
H1601 H 0.00853 0.53784 0.47778 0.0
H1602 H 0.8927 0.50424 0.50631 0.0
H1603 H 0.93158 0.51233 0.48765 0.0
C1604 C 0.99832 0.9121 0.52551 0.0
C1605 C 0.01484 0.90851 0.5457 0.0
C1606 C 0.99353 0.93485 0.5164 0.0
C1607 C 0.02081 0.99362 0.51243 0.0
H1608 H 0.95807 0.01345 0.49153 0.0
C1609 C 0.99826 0.08912 0.48072 0.0
C1610 C 0.98238 0.09178 0.45972 0.0
C1611 C 0.00282 0.06678 0.49119 0.0
C1612 C 0.97574 0.00806 0.49702 0.0
H1613 H 0.03839 0.92603 0.57311 0.0
H1614 H 0.02974 0.96574 0.55743 0.0
H1615 H 0.96366 0.9747 0.5114 0.0
H1616 H 0.95968 0.07301 0.43244 0.0
H1617 H 0.96786 0.03409 0.45054 0.0
H1618 H 0.03288 0.027 0.498 0.0
C1619 C 0.02088 0.95093 0.54828 0.0
C1620 C 0.97893 0.98589 0.50844 0.0
C1621 C 0.0257 0.92819 0.55737 0.0
C1622 C 0.97187 0.07159 0.44875 0.0
C1623 C 0.97641 0.0493 0.45923 0.0
C1624 C 0.01762 0.01581 0.50104 0.0
C1625 C 0.00511 0.95447 0.52734 0.0
C1626 C 0.00151 0.97838 0.51618 0.0
C1627 C 0.99158 0.0467 0.48086 0.0
C1628 C 0.99507 0.02321 0.49308 0.0
H1629 H 0.98968 0.8973 0.51607 0.0
H1630 H 0.98142 0.93696 0.5001 0.0
H1631 H 0.03851 0.98819 0.51777 0.0
H1632 H 0.00661 0.10434 0.48963 0.0
H1633 H 0.01451 0.06534 0.50794 0.0
C1634 C 0.57003 0.02831 0.55523 0.0
C1635 C 0.59004 0.0173 0.54445 0.0
C1636 C 0.54752 0.02303 0.54577 0.0
C1637 C 0.51811 0.00133 0.48634 0.0
H1638 H 0.4635 0.99554 0.53178 0.0
C1639 C 0.42697 0.97115 0.44885 0.0
C1640 C 0.40685 0.98198 0.45959 0.0
C1641 C 0.44935 0.97614 0.45883 0.0
C1642 C 0.47854 0.99744 0.51882 0.0
H1643 H 0.60206 0.99133 0.51611 0.0
H1644 H 0.56269 0.98196 0.49978 0.0
H1645 H 0.5025 0.00134 0.55104 0.0
H1646 H 0.3945 0.00723 0.48856 0.0
H1647 H 0.43369 0.01618 0.50573 0.0
H1648 H 0.49419 0.99754 0.45411 0.0
C1649 C 0.56448 0.99495 0.51526 0.0
C1650 C 0.50087 0.00066 0.52986 0.0
C1651 C 0.587 0.00018 0.52477 0.0
C1652 C 0.40965 0.99853 0.47991 0.0
C1653 C 0.43207 0.00351 0.4899 0.0
C1654 C 0.49579 0.99815 0.4753 0.0
C1655 C 0.54456 0.00666 0.52531 0.0
C1656 C 0.5209 0.00261 0.51373 0.0
C1657 C 0.45212 0.99209 0.47974 0.0
C1658 C 0.47576 0.99615 0.49141 0.0
H1659 H 0.57177 0.04154 0.57047 0.0
H1660 H 0.53253 0.03244 0.55381 0.0
H1661 H 0.53316 0.00323 0.47337 0.0
H1662 H 0.42542 0.95832 0.43317 0.0
H1663 H 0.46441 0.96689 0.45071 0.0
C1664 C 0.49548 0.28251 0.34445 0.0
C1665 C 0.51473 0.29815 0.34446 0.0
C1666 C 0.48724 0.27282 0.32086 0.0
C1667 C 0.49248 0.27789 0.24789 0.0
H1668 H 0.4857 0.20984 0.24965 0.0
C1669 C 0.51742 0.19624 0.17809 0.0
C1670 C 0.51011 0.20472 0.15348 0.0
C1671 C 0.50989 0.20714 0.20114 0.0
C1672 C 0.48739 0.22887 0.24881 0.0
H1673 H 0.53965 0.31682 0.3196 0.0
H1674 H 0.52571 0.29971 0.27887 0.0
H1675 H 0.48785 0.23178 0.29065 0.0
H1676 H 0.4879 0.23041 0.13379 0.0
H1677 H 0.47459 0.2495 0.17428 0.0
H1678 H 0.4939 0.27478 0.20609 0.0
C1679 C 0.51666 0.29509 0.29688 0.0
C1680 C 0.48834 0.2415 0.27235 0.0
C1681 C 0.52485 0.30474 0.32035 0.0
C1682 C 0.49399 0.22356 0.15246 0.0
C1683 C 0.48644 0.23455 0.17564 0.0
C1684 C 0.49169 0.26524 0.22436 0.0
C1685 C 0.49808 0.27865 0.29685 0.0
C1686 C 0.49191 0.26605 0.27217 0.0
C1687 C 0.49478 0.2268 0.20021 0.0
C1688 C 0.49016 0.24048 0.22459 0.0
H1689 H 0.48717 0.27723 0.36268 0.0
H1690 H 0.47272 0.26041 0.32149 0.0
H1691 H 0.49472 0.29686 0.24707 0.0
H1692 H 0.5297 0.18164 0.17962 0.0
H1693 H 0.51698 0.20087 0.21962 0.0
C1694 C 0.19772 0.51084 0.32474 0.0
C1695 C 0.20964 0.50986 0.34891 0.0
C1696 C 0.20898 0.50381 0.30165 0.0
C1697 C 0.2665 0.50613 0.27346 0.0
H1698 H 0.23903 0.47086 0.2158 0.0
C1699 C 0.30899 0.51098 0.17192 0.0
C1700 C 0.29349 0.5131 0.15058 0.0
C1701 C 0.30074 0.50346 0.19635 0.0
C1702 C 0.24691 0.48091 0.23162 0.0
H1703 H 0.24219 0.49965 0.36818 0.0
H1704 H 0.26219 0.48797 0.3275 0.0
H1705 H 0.2201 0.47021 0.25894 0.0
H1706 H 0.25748 0.50818 0.13752 0.0
H1707 H 0.24264 0.49638 0.18046 0.0
H1708 H 0.29213 0.51851 0.24623 0.0
C1709 C 0.24404 0.49393 0.32658 0.0
C1710 C 0.23616 0.48032 0.25635 0.0
C1711 C 0.2326 0.50055 0.3498 0.0
C1712 C 0.26979 0.50656 0.15371 0.0
C1713 C 0.26136 0.49965 0.17836 0.0
C1714 C 0.27698 0.50711 0.2487 0.0
C1715 C 0.23249 0.49604 0.30226 0.0
C1716 C 0.24564 0.4933 0.27734 0.0
C1717 C 0.27661 0.49863 0.20022 0.0
C1718 C 0.26707 0.49492 0.22724 0.0
H1719 H 0.17995 0.51783 0.32354 0.0
H1720 H 0.19976 0.50581 0.28314 0.0
H1721 H 0.27395 0.51661 0.28922 0.0
H1722 H 0.32746 0.51562 0.16985 0.0
H1723 H 0.31322 0.50216 0.21238 0.0
C1724 C 0.99132 0.30648 0.17235 0.0
C1725 C 0.98805 0.29111 0.15108 0.0
C1726 C 0.99873 0.29783 0.19665 0.0
C1727 C 0.01836 0.24273 0.23172 0.0
H1728 H 0.98467 0.27188 0.28956 0.0
C1729 C 0.98629 0.19553 0.32533 0.0
C1730 C 0.98827 0.20743 0.34945 0.0
C1731 C 0.99369 0.2063 0.3021 0.0
C1732 C 0.99459 0.2638 0.27373 0.0
H1733 H 0.99088 0.25492 0.13791 0.0
H1734 H 0.00245 0.23943 0.18065 0.0
H1735 H 0.98362 0.29014 0.2466 0.0
H1736 H 0.00063 0.23938 0.36841 0.0
H1737 H 0.01296 0.25854 0.32751 0.0
H1738 H 0.02757 0.21531 0.25898 0.0
C1739 C 0.00018 0.2583 0.17861 0.0
C1740 C 0.99411 0.27432 0.24898 0.0
C1741 C 0.99341 0.26711 0.15407 0.0
C1742 C 0.9989 0.22982 0.35009 0.0
C1743 C 0.00591 0.24078 0.32674 0.0
C1744 C 0.01842 0.23195 0.25645 0.0
C1745 C 0.00226 0.27346 0.20046 0.0
C1746 C 0.00557 0.26371 0.22744 0.0
C1747 C 0.00286 0.22931 0.30251 0.0
C1748 C 0.00617 0.2422 0.27752 0.0
H1749 H 0.98758 0.32516 0.17036 0.0
H1750 H 0.00089 0.31021 0.21265 0.0
H1751 H 0.02783 0.23426 0.21584 0.0
H1752 H 0.9783 0.17818 0.3243 0.0
H1753 H 0.99095 0.19717 0.28365 0.0
C1754 C 0.30239 0.98262 0.32596 0.0
C1755 C 0.29057 0.98499 0.35008 0.0
C1756 C 0.2917 0.99003 0.30268 0.0
C1757 C 0.2344 0.99208 0.27392 0.0
H1758 H 0.26444 0.0261 0.21692 0.0
C1759 C 0.19187 0.99134 0.17236 0.0
C1760 C 0.20724 0.98836 0.15104 0.0
C1761 C 0.20055 0.99816 0.19686 0.0
C1762 C 0.25583 0.0164 0.23253 0.0
H1763 H 0.25879 0.99788 0.36897 0.0
H1764 H 0.23974 0.01018 0.32797 0.0
H1765 H 0.2833 0.02475 0.26007 0.0
H1766 H 0.24349 0.9911 0.13804 0.0
H1767 H 0.259 0.00164 0.18107 0.0
H1768 H 0.20799 0.98196 0.24646 0.0
C1769 C 0.25739 0.00285 0.32725 0.0
C1770 C 0.26657 0.01584 0.25728 0.0
C1771 C 0.26829 0.99585 0.35064 0.0
C1772 C 0.23128 0.99344 0.15422 0.0
C1773 C 0.24011 -0.00038 0.17894 0.0
C1774 C 0.22393 0.9922 0.24914 0.0
C1775 C 0.26885 -0.00042 0.30304 0.0
C1776 C 0.25612 0.00333 0.27803 0.0
C1777 C 0.22494 0.00136 0.20082 0.0
C1778 C 0.2347 0.00398 0.2279 0.0
H1779 H 0.31965 0.97443 0.32499 0.0
H1780 H 0.3008 0.98712 0.28424 0.0
H1781 H 0.22618 0.98199 0.28951 0.0
H1782 H 0.17317 0.98778 0.17024 0.0
H1783 H 0.18816 9e-05 0.2129 0.0
C1784 C 0.47751 0.8022 0.82147 0.0
C1785 C 0.48647 0.79465 0.84579 0.0
C1786 C 0.48573 0.79238 0.79812 0.0
C1787 C 0.50996 0.77436 0.74964 0.0
H1788 H 0.51137 0.70598 0.75012 0.0
C1789 C 0.50482 0.72183 0.65311 0.0
C1790 C 0.48728 0.70429 0.65369 0.0
C1791 C 0.51309 0.73183 0.67653 0.0
C1792 C 0.5112 0.72509 0.74964 0.0
H1793 H 0.51206 0.77174 0.86459 0.0
H1794 H 0.52656 0.75452 0.82355 0.0
H1795 H 0.51029 0.72738 0.79153 0.0
H1796 H 0.46581 0.68244 0.67931 0.0
H1797 H 0.47977 0.70002 0.71971 0.0
H1798 H 0.50891 0.77203 0.70777 0.0
C1799 C 0.51293 0.76789 0.82268 0.0
C1800 C 0.51087 0.73739 0.77343 0.0
C1801 C 0.50467 0.77779 0.84617 0.0
C1802 C 0.47918 0.69606 0.67811 0.0
C1803 C 0.48743 0.70599 0.70139 0.0
C1804 C 0.51011 0.76206 0.72587 0.0
C1805 C 0.5032 0.77476 0.79842 0.0
C1806 C 0.50915 0.76214 0.77368 0.0
C1807 C 0.50406 0.72439 0.70092 0.0
C1808 C 0.50964 0.73726 0.72561 0.0
H1809 H 0.46357 0.81527 0.82042 0.0
H1810 H 0.47751 0.79785 0.77991 0.0
H1811 H 0.50919 0.79346 0.74917 0.0
H1812 H 0.51154 0.72841 0.6346 0.0
H1813 H 0.5261 0.7458 0.67552 0.0
C1814 C 0.77559 0.501 0.65196 0.0
C1815 C 0.79424 0.48465 0.65251 0.0
C1816 C 0.7649 0.50839 0.67536 0.0
C1817 C 0.73474 0.50317 0.72454 0.0
H1818 H 0.76918 0.50676 0.79024 0.0
C1819 C 0.69636 0.47081 0.82142 0.0
C1820 C 0.70317 0.48119 0.84531 0.0
C1821 C 0.70581 0.47871 0.79774 0.0
C1822 C 0.75921 0.50633 0.7721 0.0
H1823 H 0.81723 0.46435 0.67807 0.0
H1824 H 0.79851 0.47684 0.7185 0.0
H1825 H 0.79058 0.50843 0.74883 0.0
H1826 H 0.72434 0.50888 0.86294 0.0
H1827 H 0.74087 0.52278 0.82134 0.0
H1828 H 0.70341 0.5006 0.74783 0.0
C1829 C 0.79218 0.48422 0.70019 0.0
C1830 C 0.77152 0.50702 0.74834 0.0
C1831 C 0.80278 0.47683 0.67691 0.0
C1832 C 0.71887 0.50039 0.84487 0.0
C1833 C 0.72839 0.50831 0.82107 0.0
C1834 C 0.72242 0.5026 0.7483 0.0
C1835 C 0.77277 0.49966 0.69971 0.0
C1836 C 0.75952 0.50438 0.72434 0.0
C1837 C 0.72229 0.49724 0.79728 0.0
C1838 C 0.73461 0.50312 0.77236 0.0
H1839 H 0.76871 0.50748 0.63346 0.0
H1840 H 0.75012 0.52049 0.67436 0.0
H1841 H 0.72491 0.50107 0.70645 0.0
H1842 H 0.68421 0.45605 0.82101 0.0
H1843 H 0.70097 0.4695 0.77989 0.0
C1844 C 0.01192 0.8014 0.67388 0.0
C1845 C 0.00966 0.78945 0.64983 0.0
C1846 C 0.0047 0.79071 0.69723 0.0
C1847 C 0.00417 0.73341 0.72588 0.0
H1848 H 0.971 0.76292 0.78383 0.0
C1849 C 0.00806 0.69111 0.82753 0.0
C1850 C 0.0111 0.70656 0.84877 0.0
C1851 C 0.00066 0.69964 0.80317 0.0
C1852 C 0.98047 0.75447 0.76794 0.0
H1853 H 0.99704 0.7575 0.63109 0.0
H1854 H 0.98507 0.73845 0.67222 0.0
H1855 H 0.9709 0.78171 0.74061 0.0
H1856 H 0.00796 0.74277 0.86178 0.0
H1857 H 0.99644 0.75805 0.81895 0.0
H1858 H 0.01551 0.70728 0.75308 0.0
C1859 C 0.99216 0.7562 0.67284 0.0
C1860 C 0.98019 0.76515 0.74316 0.0
C1861 C 0.99895 0.7671 0.64937 0.0
C1862 C 0.00561 0.73052 0.84566 0.0
C1863 C 0.99885 0.7392 0.82106 0.0
C1864 C 0.00488 0.723 0.75068 0.0
C1865 C 0.99548 0.76772 0.697 0.0
C1866 C 0.9924 0.7549 0.72206 0.0
C1867 C 0.99692 0.72396 0.79926 0.0
C1868 C 0.99344 0.7336 0.77225 0.0
H1869 H 0.02 0.81872 0.67476 0.0
H1870 H 0.00765 0.79987 0.71562 0.0
H1871 H 0.01406 0.72536 0.71002 0.0
H1872 H 0.01189 0.67247 0.82961 0.0
H1873 H 0.99862 0.68719 0.78721 0.0
C1874 C 0.68896 0.01423 0.67492 0.0
C1875 C 0.70436 0.01531 0.6534 0.0
C1876 C 0.69714 0.00693 0.69947 0.0
C1877 C 0.75052 0.98319 0.73473 0.0
H1878 H 0.72485 0.02039 0.79194 0.0
C1879 C 0.80065 0.01304 0.82747 0.0
C1880 C 0.78884 0.01192 0.8517 0.0
C1881 C 0.78923 0.00627 0.80438 0.0
C1882 C 0.73191 0.00952 0.77629 0.0
H1883 H 0.74006 0.00883 0.64015 0.0
H1884 H 0.75483 0.99746 0.68323 0.0
H1885 H 0.7065 0.02231 0.74903 0.0
H1886 H 0.75629 0.00183 0.87104 0.0
H1887 H 0.73599 0.99071 0.83036 0.0
H1888 H 0.77718 0.97209 0.76206 0.0
C1889 C 0.73622 0.00135 0.68124 0.0
C1890 C 0.72133 0.0105 0.75158 0.0
C1891 C 0.72783 0.00802 0.65649 0.0
C1892 C 0.76579 0.00283 0.85262 0.0
C1893 C 0.75418 0.99652 0.82941 0.0
C1894 C 0.76141 0.98263 0.7594 0.0
C1895 C 0.72111 0.0013 0.70325 0.0
C1896 C 0.73073 0.99772 0.73026 0.0
C1897 C 0.76566 0.99868 0.80506 0.0
C1898 C 0.7524 0.99612 0.78022 0.0
H1899 H 0.67065 0.01947 0.67288 0.0
H1900 H 0.68474 0.00638 0.71563 0.0
H1901 H 0.758 0.97267 0.71906 0.0
H1902 H 0.81848 0.01986 0.82625 0.0
H1903 H 0.79837 0.00831 0.78582 0.0
loop_
_geom_bond_atom_site_label_1
_geom_bond_atom_site_label_2
_geom_bond_distance
_geom_bond_site_symmetry_2
_ccdc_geom_bond_type
Co0 O2 2.143 . S
Co0 O8 2.074 . S
Co0 O11 2.093 . S
Co0 O24 2.097 . S
Co0 N41 2.151 . S
Co0 N49 2.214 . S
Co1 O2 2.160 . S
Co1 O7 2.058 . S
Co1 O17 2.057 . S
Co1 O32 2.037 . S
Co1 N36 2.145 1_554 S
Co1 N57 2.257 . S
O2 Co0 2.143 . S
O2 Co1 2.160 . S
C3 O4 1.278 . S
C3 O11 1.224 . S
O4 C3 1.278 . S
C5 O6 1.245 . S
C5 O17 1.232 . S
O6 C5 1.245 . S
O7 Co1 2.058 . S
O7 C33 1.269 . S
O8 Co0 2.074 . S
O8 C33 1.257 . S
H9 C34 0.930 . S
H10 C40 0.930 . S
O11 Co0 2.093 . S
O11 C3 1.224 . S
H12 C44 0.929 . S
H13 C46 0.930 . S
H14 C47 0.930 . S
H15 C45 0.929 . S
H16 C48 0.928 . S
O17 Co1 2.057 . S
O17 C5 1.232 . S
H18 C37 0.929 . S
H19 C38 0.929 . S
H20 C50 0.931 . S
H21 C42 0.929 . S
H22 C51 0.930 . S
H23 C43 0.931 . S
O24 Co0 2.097 . S
O24 C52 1.214 . S
H25 C53 0.929 . S
H26 C54 0.929 . S
H27 C55 0.930 . S
H28 C56 0.929 . S
H29 C58 0.930 . S
H30 C35 0.930 . S
H31 C39 0.930 . S
O32 Co1 2.037 . S
O32 C52 1.234 . S
C33 O7 1.269 . S
C33 O8 1.257 . S
C34 H9 0.930 . S
C34 C37 1.388 . S
C34 C39 1.418 . S
C35 H30 0.930 . S
C35 C38 1.404 . S
C35 C39 1.353 . S
N36 Co1 2.145 1_556 S
N36 C37 1.397 . S
N36 C38 1.334 . S
C37 H18 0.929 . S
C37 C34 1.388 . S
C37 N36 1.397 . S
C38 H19 0.929 . S
C38 C35 1.404 . S
C38 N36 1.334 . S
C39 H31 0.930 . S
C39 C34 1.418 . S
C39 C35 1.353 . S
C40 H10 0.930 . S
C40 N41 1.330 . S
C40 C42 1.446 . S
N41 Co0 2.151 . S
N41 C40 1.330 . S
N41 C45 1.418 . S
C42 H21 0.929 . S
C42 C40 1.446 . S
C42 C43 1.332 . S
C43 H23 0.931 . S
C43 C42 1.332 . S
C43 C44 1.267 . S
C44 H12 0.929 . S
C44 C43 1.267 . S
C44 C45 1.251 . S
C45 H15 0.929 . S
C45 N41 1.418 . S
C45 C44 1.251 . S
C46 H13 0.930 . S
C46 C48 1.406 . S
C46 C51 1.261 . S
C47 H14 0.930 . S
C47 N49 1.325 . S
C47 C50 1.357 . S
C48 H16 0.928 . S
C48 C46 1.406 . S
C48 N49 1.261 . S
N49 Co0 2.214 . S
N49 C47 1.325 . S
N49 C48 1.261 . S
C50 H20 0.931 . S
C50 C47 1.357 . S
C50 C51 1.312 . S
C51 H22 0.930 . S
C51 C46 1.261 . S
C51 C50 1.312 . S
C52 O24 1.214 . S
C52 O32 1.234 . S
C53 H25 0.929 . S
C53 C56 1.391 . S
C53 C58 1.391 . S
C54 H26 0.929 . S
C54 C55 1.390 . S
C54 N57 1.391 . S
C55 H27 0.930 . S
C55 C54 1.390 . S
C55 C56 1.392 . S
C56 H28 0.929 . S
C56 C53 1.391 . S
C56 C55 1.392 . S
N57 Co1 2.257 . S
N57 C54 1.391 . S
N57 C58 1.388 . S
C58 H29 0.930 . S
C58 C53 1.391 . S
C58 N57 1.388 . S
Co59 O61 2.143 . S
Co59 O67 2.074 . S
Co59 O70 2.093 . S
Co59 O83 2.097 . S
Co59 N100 2.151 . S
Co59 N108 2.214 . S
Co60 O61 2.160 . S
Co60 O66 2.058 . S
Co60 O76 2.057 . S
Co60 O91 2.037 . S
Co60 N95 2.145 1_554 S
Co60 N116 2.257 . S
O61 Co59 2.143 . S
O61 Co60 2.160 . S
C62 O63 1.278 . S
C62 O70 1.224 . S
O63 C62 1.278 . S
C64 O65 1.245 . S
C64 O76 1.232 . S
O65 C64 1.245 . S
O66 Co60 2.058 . S
O66 C92 1.269 . S
O67 Co59 2.074 . S
O67 C92 1.257 . S
H68 C93 0.930 . S
H69 C99 0.930 . S
O70 Co59 2.093 . S
O70 C62 1.224 . S
H71 C103 0.929 . S
H72 C105 0.930 . S
H73 C106 0.930 . S
H74 C104 0.929 . S
H75 C107 0.928 . S
O76 Co60 2.057 . S
O76 C64 1.232 . S
H77 C96 0.929 . S
H78 C97 0.929 . S
H79 C109 0.931 . S
H80 C101 0.929 . S
H81 C110 0.930 . S
H82 C102 0.931 . S
O83 Co59 2.097 . S
O83 C111 1.214 . S
H84 C112 0.929 . S
H85 C113 0.929 . S
H86 C114 0.930 . S
H87 C115 0.929 . S
H88 C117 0.930 . S
H89 C94 0.930 . S
H90 C98 0.930 . S
O91 Co60 2.037 . S
O91 C111 1.234 . S
C92 O66 1.269 . S
C92 O67 1.257 . S
C93 H68 0.930 . S
C93 C96 1.388 . S
C93 C98 1.418 . S
C94 H89 0.930 . S
C94 C97 1.404 . S
C94 C98 1.353 . S
N95 Co60 2.145 1_556 S
N95 C96 1.397 . S
N95 C97 1.334 . S
C96 H77 0.929 . S
C96 C93 1.388 . S
C96 N95 1.397 . S
C97 H78 0.929 . S
C97 C94 1.404 . S
C97 N95 1.334 . S
C98 H90 0.930 . S
C98 C93 1.418 . S
C98 C94 1.353 . S
C99 H69 0.930 . S
C99 N100 1.330 . S
C99 C101 1.446 . S
N100 Co59 2.151 . S
N100 C99 1.330 . S
N100 C104 1.418 . S
C101 H80 0.929 . S
C101 C99 1.446 . S
C101 C102 1.332 . S
C102 H82 0.931 . S
C102 C101 1.332 . S
C102 C103 1.267 . S
C103 H71 0.929 . S
C103 C102 1.267 . S
C103 C104 1.251 . S
C104 H74 0.929 . S
C104 N100 1.418 . S
C104 C103 1.251 . S
C105 H72 0.930 . S
C105 C107 1.406 . S
C105 C110 1.261 . S
C106 H73 0.930 . S
C106 N108 1.325 . S
C106 C109 1.357 . S
C107 H75 0.928 . S
C107 C105 1.406 . S
C107 N108 1.261 . S
N108 Co59 2.214 . S
N108 C106 1.325 . S
N108 C107 1.261 . S
C109 H79 0.931 . S
C109 C106 1.357 . S
C109 C110 1.312 . S
C110 H81 0.930 . S
C110 C105 1.261 . S
C110 C109 1.312 . S
C111 O83 1.214 . S
C111 O91 1.234 . S
C112 H84 0.929 . S
C112 C115 1.391 . S
C112 C117 1.391 . S
C113 H85 0.929 . S
C113 C114 1.390 . S
C113 N116 1.391 . S
C114 H86 0.930 . S
C114 C113 1.390 . S
C114 C115 1.392 . S
C115 H87 0.929 . S
C115 C112 1.391 . S
C115 C114 1.392 . S
N116 Co60 2.257 . S
N116 C113 1.391 . S
N116 C117 1.388 . S
C117 H88 0.930 . S
C117 C112 1.391 . S
C117 N116 1.388 . S
Co118 O120 2.143 . S
Co118 O126 2.074 . S
Co118 O129 2.093 . S
Co118 O142 2.097 . S
Co118 N159 2.151 . S
Co118 N167 2.214 . S
Co119 O120 2.160 . S
Co119 O125 2.058 . S
Co119 O135 2.057 . S
Co119 O150 2.037 . S
Co119 N154 2.145 1_554 S
Co119 N175 2.257 . S
O120 Co118 2.143 . S
O120 Co119 2.160 . S
C121 O122 1.278 . S
C121 O129 1.224 . S
O122 C121 1.278 . S
C123 O124 1.245 . S
C123 O135 1.232 . S
O124 C123 1.245 . S
O125 Co119 2.058 . S
O125 C151 1.269 . S
O126 Co118 2.074 . S
O126 C151 1.257 . S
H127 C152 0.930 . S
H128 C158 0.930 . S
O129 Co118 2.093 . S
O129 C121 1.224 . S
H130 C162 0.929 . S
H131 C164 0.930 . S
H132 C165 0.930 . S
H133 C163 0.929 . S
H134 C166 0.928 . S
O135 Co119 2.057 . S
O135 C123 1.232 . S
H136 C155 0.929 . S
H137 C156 0.929 . S
H138 C168 0.931 . S
H139 C160 0.929 . S
H140 C169 0.930 . S
H141 C161 0.931 . S
O142 Co118 2.097 . S
O142 C170 1.214 . S
H143 C171 0.929 . S
H144 C172 0.929 . S
H145 C173 0.930 . S
H146 C174 0.929 . S
H147 C176 0.930 . S
H148 C153 0.930 . S
H149 C157 0.930 . S
O150 Co119 2.037 . S
O150 C170 1.234 . S
C151 O125 1.269 . S
C151 O126 1.257 . S
C152 H127 0.930 . S
C152 C155 1.388 . S
C152 C157 1.418 . S
C153 H148 0.930 . S
C153 C156 1.404 . S
C153 C157 1.353 . S
N154 Co119 2.145 1_556 S
N154 C155 1.397 . S
N154 C156 1.334 . S
C155 H136 0.929 . S
C155 C152 1.388 . S
C155 N154 1.397 . S
C156 H137 0.929 . S
C156 C153 1.404 . S
C156 N154 1.334 . S
C157 H149 0.930 . S
C157 C152 1.418 . S
C157 C153 1.353 . S
C158 H128 0.930 . S
C158 N159 1.330 . S
C158 C160 1.446 . S
N159 Co118 2.151 . S
N159 C158 1.330 . S
N159 C163 1.418 . S
C160 H139 0.929 . S
C160 C158 1.446 . S
C160 C161 1.332 . S
C161 H141 0.931 . S
C161 C160 1.332 . S
C161 C162 1.267 . S
C162 H130 0.929 . S
C162 C161 1.267 . S
C162 C163 1.251 . S
C163 H133 0.929 . S
C163 N159 1.418 . S
C163 C162 1.251 . S
C164 H131 0.930 . S
C164 C166 1.406 . S
C164 C169 1.261 . S
C165 H132 0.930 . S
C165 N167 1.325 . S
C165 C168 1.357 . S
C166 H134 0.928 . S
C166 C164 1.406 . S
C166 N167 1.261 . S
N167 Co118 2.214 . S
N167 C165 1.325 . S
N167 C166 1.261 . S
C168 H138 0.931 . S
C168 C165 1.357 . S
C168 C169 1.312 . S
C169 H140 0.930 . S
C169 C164 1.261 . S
C169 C168 1.312 . S
C170 O142 1.214 . S
C170 O150 1.234 . S
C171 H143 0.929 . S
C171 C174 1.391 . S
C171 C176 1.391 . S
C172 H144 0.929 . S
C172 C173 1.390 1_655 S
C172 N175 1.391 . S
C173 H145 0.930 . S
C173 C172 1.390 1_455 S
C173 C174 1.392 . S
C174 H146 0.929 . S
C174 C171 1.391 . S
C174 C173 1.392 . S
N175 Co119 2.257 . S
N175 C172 1.391 . S
N175 C176 1.388 1_655 S
C176 H147 0.930 . S
C176 C171 1.391 . S
C176 N175 1.388 1_455 S
Co177 O179 2.143 . S
Co177 O185 2.074 . S
Co177 O188 2.093 . S
Co177 O201 2.097 . S
Co177 N218 2.151 . S
Co177 N226 2.214 . S
Co178 O179 2.160 . S
Co178 O184 2.058 . S
Co178 O194 2.057 . S
Co178 O209 2.037 . S
Co178 N213 2.145 1_554 S
Co178 N234 2.257 . S
O179 Co177 2.143 . S
O179 Co178 2.160 . S
C180 O181 1.278 . S
C180 O188 1.224 . S
O181 C180 1.278 . S
C182 O183 1.245 . S
C182 O194 1.232 . S
O183 C182 1.245 . S
O184 Co178 2.058 . S
O184 C210 1.269 . S
O185 Co177 2.074 . S
O185 C210 1.257 . S
H186 C211 0.930 . S
H187 C217 0.930 . S
O188 Co177 2.093 . S
O188 C180 1.224 . S
H189 C221 0.929 . S
H190 C223 0.930 . S
H191 C224 0.930 . S
H192 C222 0.929 . S
H193 C225 0.928 . S
O194 Co178 2.057 . S
O194 C182 1.232 . S
H195 C214 0.929 . S
H196 C215 0.929 . S
H197 C227 0.931 . S
H198 C219 0.929 . S
H199 C228 0.930 . S
H200 C220 0.931 . S
O201 Co177 2.097 . S
O201 C229 1.214 . S
H202 C230 0.929 . S
H203 C231 0.929 . S
H204 C232 0.930 . S
H205 C233 0.929 . S
H206 C235 0.930 . S
H207 C212 0.930 . S
H208 C216 0.930 . S
O209 Co178 2.037 . S
O209 C229 1.234 . S
C210 O184 1.269 . S
C210 O185 1.257 . S
C211 H186 0.930 . S
C211 C214 1.388 . S
C211 C216 1.418 . S
C212 H207 0.930 . S
C212 C215 1.404 . S
C212 C216 1.353 . S
N213 Co178 2.145 1_556 S
N213 C214 1.397 . S
N213 C215 1.334 . S
C214 H195 0.929 . S
C214 C211 1.388 . S
C214 N213 1.397 . S
C215 H196 0.929 . S
C215 C212 1.404 . S
C215 N213 1.334 . S
C216 H208 0.930 . S
C216 C211 1.418 . S
C216 C212 1.353 . S
C217 H187 0.930 . S
C217 N218 1.330 . S
C217 C219 1.446 . S
N218 Co177 2.151 . S
N218 C217 1.330 . S
N218 C222 1.418 . S
C219 H198 0.929 . S
C219 C217 1.446 . S
C219 C220 1.332 . S
C220 H200 0.931 . S
C220 C219 1.332 . S
C220 C221 1.267 . S
C221 H189 0.929 . S
C221 C220 1.267 . S
C221 C222 1.251 . S
C222 H192 0.929 . S
C222 N218 1.418 . S
C222 C221 1.251 . S
C223 H190 0.930 . S
C223 C225 1.406 . S
C223 C228 1.261 . S
C224 H191 0.930 . S
C224 N226 1.325 . S
C224 C227 1.357 . S
C225 H193 0.928 . S
C225 C223 1.406 . S
C225 N226 1.261 . S
N226 Co177 2.214 . S
N226 C224 1.325 . S
N226 C225 1.261 . S
C227 H197 0.931 . S
C227 C224 1.357 . S
C227 C228 1.312 . S
C228 H199 0.930 . S
C228 C223 1.261 . S
C228 C227 1.312 . S
C229 O201 1.214 . S
C229 O209 1.234 . S
C230 H202 0.929 . S
C230 C233 1.391 . S
C230 C235 1.391 . S
C231 H203 0.929 . S
C231 C232 1.390 1_565 S
C231 N234 1.391 . S
C232 H204 0.930 . S
C232 C231 1.390 1_545 S
C232 C233 1.392 . S
C233 H205 0.929 . S
C233 C230 1.391 . S
C233 C232 1.392 . S
N234 Co178 2.257 . S
N234 C231 1.391 . S
N234 C235 1.388 1_565 S
C235 H206 0.930 . S
C235 C230 1.391 . S
C235 N234 1.388 1_545 S
Co236 O238 2.143 . S
Co236 O244 2.074 . S
Co236 O247 2.093 . S
Co236 O260 2.097 . S
Co236 N277 2.151 . S
Co236 N285 2.214 . S
Co237 O238 2.160 . S
Co237 O243 2.058 . S
Co237 O253 2.057 . S
Co237 O268 2.037 . S
Co237 N272 2.145 . S
Co237 N293 2.257 . S
O238 Co236 2.143 . S
O238 Co237 2.160 . S
C239 O240 1.278 . S
C239 O247 1.224 . S
O240 C239 1.278 . S
C241 O242 1.245 . S
C241 O253 1.232 . S
O242 C241 1.245 . S
O243 Co237 2.058 . S
O243 C269 1.269 . S
O244 Co236 2.074 . S
O244 C269 1.257 . S
H245 C270 0.930 . S
H246 C276 0.930 . S
O247 Co236 2.093 . S
O247 C239 1.224 . S
H248 C280 0.929 . S
H249 C282 0.930 . S
H250 C283 0.930 . S
H251 C281 0.929 . S
H252 C284 0.928 . S
O253 Co237 2.057 . S
O253 C241 1.232 . S
H254 C273 0.929 . S
H255 C274 0.929 . S
H256 C286 0.931 . S
H257 C278 0.929 . S
H258 C287 0.930 . S
H259 C279 0.931 . S
O260 Co236 2.097 . S
O260 C288 1.214 . S
H261 C289 0.929 . S
H262 C290 0.929 . S
H263 C291 0.930 . S
H264 C292 0.929 . S
H265 C294 0.930 . S
H266 C271 0.930 . S
H267 C275 0.930 . S
O268 Co237 2.037 . S
O268 C288 1.234 . S
C269 O243 1.269 . S
C269 O244 1.257 . S
C270 H245 0.930 . S
C270 C273 1.388 . S
C270 C275 1.418 . S
C271 H266 0.930 . S
C271 C274 1.404 . S
C271 C275 1.353 . S
N272 Co237 2.145 . S
N272 C273 1.397 . S
N272 C274 1.334 . S
C273 H254 0.929 . S
C273 C270 1.388 . S
C273 N272 1.397 . S
C274 H255 0.929 . S
C274 C271 1.404 . S
C274 N272 1.334 . S
C275 H267 0.930 . S
C275 C270 1.418 . S
C275 C271 1.353 . S
C276 H246 0.930 . S
C276 N277 1.330 . S
C276 C278 1.446 . S
N277 Co236 2.151 . S
N277 C276 1.330 . S
N277 C281 1.418 . S
C278 H257 0.929 . S
C278 C276 1.446 . S
C278 C279 1.332 . S
C279 H259 0.931 . S
C279 C278 1.332 . S
C279 C280 1.267 . S
C280 H248 0.929 . S
C280 C279 1.267 . S
C280 C281 1.251 . S
C281 H251 0.929 . S
C281 N277 1.418 . S
C281 C280 1.251 . S
C282 H249 0.930 . S
C282 C284 1.406 . S
C282 C287 1.261 . S
C283 H250 0.930 . S
C283 N285 1.325 . S
C283 C286 1.357 . S
C284 H252 0.928 . S
C284 C282 1.406 . S
C284 N285 1.261 . S
N285 Co236 2.214 . S
N285 C283 1.325 . S
N285 C284 1.261 . S
C286 H256 0.931 . S
C286 C283 1.357 . S
C286 C287 1.312 . S
C287 H258 0.930 . S
C287 C282 1.261 . S
C287 C286 1.312 . S
C288 O260 1.214 . S
C288 O268 1.234 . S
C289 H261 0.929 . S
C289 C292 1.391 . S
C289 C294 1.391 . S
C290 H262 0.929 . S
C290 C291 1.390 . S
C290 N293 1.391 . S
C291 H263 0.930 . S
C291 C290 1.390 . S
C291 C292 1.392 . S
C292 H264 0.929 . S
C292 C289 1.391 . S
C292 C291 1.392 . S
N293 Co237 2.257 . S
N293 C290 1.391 . S
N293 C294 1.388 . S
C294 H265 0.930 . S
C294 C289 1.391 . S
C294 N293 1.388 . S
Co295 O297 2.143 . S
Co295 O303 2.074 . S
Co295 O306 2.093 . S
Co295 O319 2.097 . S
Co295 N336 2.151 . S
Co295 N344 2.214 . S
Co296 O297 2.160 . S
Co296 O302 2.058 . S
Co296 O312 2.057 . S
Co296 O327 2.037 . S
Co296 N331 2.145 . S
Co296 N352 2.257 . S
O297 Co295 2.143 . S
O297 Co296 2.160 . S
C298 O299 1.278 . S
C298 O306 1.224 . S
O299 C298 1.278 . S
C300 O301 1.245 . S
C300 O312 1.232 . S
O301 C300 1.245 . S
O302 Co296 2.058 . S
O302 C328 1.269 . S
O303 Co295 2.074 . S
O303 C328 1.257 . S
H304 C329 0.930 . S
H305 C335 0.930 . S
O306 Co295 2.093 . S
O306 C298 1.224 . S
H307 C339 0.929 . S
H308 C341 0.930 . S
H309 C342 0.930 . S
H310 C340 0.929 . S
H311 C343 0.928 . S
O312 Co296 2.057 . S
O312 C300 1.232 . S
H313 C332 0.929 . S
H314 C333 0.929 . S
H315 C345 0.931 . S
H316 C337 0.929 . S
H317 C346 0.930 . S
H318 C338 0.931 . S
O319 Co295 2.097 . S
O319 C347 1.214 . S
H320 C348 0.929 . S
H321 C349 0.929 . S
H322 C350 0.930 . S
H323 C351 0.929 . S
H324 C353 0.930 . S
H325 C330 0.930 . S
H326 C334 0.930 . S
O327 Co296 2.037 . S
O327 C347 1.234 . S
C328 O302 1.269 . S
C328 O303 1.257 . S
C329 H304 0.930 . S
C329 C332 1.388 . S
C329 C334 1.418 . S
C330 H325 0.930 . S
C330 C333 1.404 . S
C330 C334 1.353 . S
N331 Co296 2.145 . S
N331 C332 1.397 . S
N331 C333 1.334 . S
C332 H313 0.929 . S
C332 C329 1.388 . S
C332 N331 1.397 . S
C333 H314 0.929 . S
C333 C330 1.404 . S
C333 N331 1.334 . S
C334 H326 0.930 . S
C334 C329 1.418 . S
C334 C330 1.353 . S
C335 H305 0.930 . S
C335 N336 1.330 . S
C335 C337 1.446 . S
N336 Co295 2.151 . S
N336 C335 1.330 . S
N336 C340 1.418 . S
C337 H316 0.929 . S
C337 C335 1.446 . S
C337 C338 1.332 . S
C338 H318 0.931 . S
C338 C337 1.332 . S
C338 C339 1.267 . S
C339 H307 0.929 . S
C339 C338 1.267 . S
C339 C340 1.251 . S
C340 H310 0.929 . S
C340 N336 1.418 . S
C340 C339 1.251 . S
C341 H308 0.930 . S
C341 C343 1.406 . S
C341 C346 1.261 . S
C342 H309 0.930 . S
C342 N344 1.325 . S
C342 C345 1.357 . S
C343 H311 0.928 . S
C343 C341 1.406 . S
C343 N344 1.261 . S
N344 Co295 2.214 . S
N344 C342 1.325 . S
N344 C343 1.261 . S
C345 H315 0.931 . S
C345 C342 1.357 . S
C345 C346 1.312 . S
C346 H317 0.930 . S
C346 C341 1.261 . S
C346 C345 1.312 . S
C347 O319 1.214 . S
C347 O327 1.234 . S
C348 H320 0.929 . S
C348 C351 1.391 . S
C348 C353 1.391 . S
C349 H321 0.929 . S
C349 C350 1.390 . S
C349 N352 1.391 . S
C350 H322 0.930 . S
C350 C349 1.390 . S
C350 C351 1.392 . S
C351 H323 0.929 . S
C351 C348 1.391 . S
C351 C350 1.392 . S
N352 Co296 2.257 . S
N352 C349 1.391 . S
N352 C353 1.388 . S
C353 H324 0.930 . S
C353 C348 1.391 . S
C353 N352 1.388 . S
Co354 O356 2.143 . S
Co354 O362 2.074 . S
Co354 O365 2.093 . S
Co354 O378 2.097 . S
Co354 N395 2.151 . S
Co354 N403 2.214 . S
Co355 O356 2.160 . S
Co355 O361 2.058 . S
Co355 O371 2.057 . S
Co355 O386 2.037 . S
Co355 N390 2.145 . S
Co355 N411 2.257 . S
O356 Co354 2.143 . S
O356 Co355 2.160 . S
C357 O358 1.278 . S
C357 O365 1.224 . S
O358 C357 1.278 . S
C359 O360 1.245 . S
C359 O371 1.232 . S
O360 C359 1.245 . S
O361 Co355 2.058 . S
O361 C387 1.269 . S
O362 Co354 2.074 . S
O362 C387 1.257 . S
H363 C388 0.930 . S
H364 C394 0.930 . S
O365 Co354 2.093 . S
O365 C357 1.224 . S
H366 C398 0.929 . S
H367 C400 0.930 . S
H368 C401 0.930 . S
H369 C399 0.929 . S
H370 C402 0.928 . S
O371 Co355 2.057 . S
O371 C359 1.232 . S
H372 C391 0.929 . S
H373 C392 0.929 . S
H374 C404 0.931 . S
H375 C396 0.929 . S
H376 C405 0.930 . S
H377 C397 0.931 . S
O378 Co354 2.097 . S
O378 C406 1.214 . S
H379 C407 0.929 . S
H380 C408 0.929 . S
H381 C409 0.930 . S
H382 C410 0.929 . S
H383 C412 0.930 . S
H384 C389 0.930 . S
H385 C393 0.930 . S
O386 Co355 2.037 . S
O386 C406 1.234 . S
C387 O361 1.269 . S
C387 O362 1.257 . S
C388 H363 0.930 . S
C388 C391 1.388 . S
C388 C393 1.418 . S
C389 H384 0.930 . S
C389 C392 1.404 . S
C389 C393 1.353 . S
N390 Co355 2.145 . S
N390 C391 1.397 . S
N390 C392 1.334 . S
C391 H372 0.929 . S
C391 C388 1.388 . S
C391 N390 1.397 . S
C392 H373 0.929 . S
C392 C389 1.404 . S
C392 N390 1.334 . S
C393 H385 0.930 . S
C393 C388 1.418 . S
C393 C389 1.353 . S
C394 H364 0.930 . S
C394 N395 1.330 . S
C394 C396 1.446 . S
N395 Co354 2.151 . S
N395 C394 1.330 . S
N395 C399 1.418 . S
C396 H375 0.929 . S
C396 C394 1.446 . S
C396 C397 1.332 . S
C397 H377 0.931 . S
C397 C396 1.332 . S
C397 C398 1.267 . S
C398 H366 0.929 . S
C398 C397 1.267 . S
C398 C399 1.251 . S
C399 H369 0.929 . S
C399 N395 1.418 . S
C399 C398 1.251 . S
C400 H367 0.930 . S
C400 C402 1.406 . S
C400 C405 1.261 . S
C401 H368 0.930 . S
C401 N403 1.325 . S
C401 C404 1.357 . S
C402 H370 0.928 . S
C402 C400 1.406 . S
C402 N403 1.261 . S
N403 Co354 2.214 . S
N403 C401 1.325 . S
N403 C402 1.261 . S
C404 H374 0.931 . S
C404 C401 1.357 . S
C404 C405 1.312 . S
C405 H376 0.930 . S
C405 C400 1.261 . S
C405 C404 1.312 . S
C406 O378 1.214 . S
C406 O386 1.234 . S
C407 H379 0.929 . S
C407 C410 1.391 . S
C407 C412 1.391 . S
C408 H380 0.929 . S
C408 C409 1.390 1_655 S
C408 N411 1.391 . S
C409 H381 0.930 . S
C409 C408 1.390 1_455 S
C409 C410 1.392 . S
C410 H382 0.929 . S
C410 C407 1.391 . S
C410 C409 1.392 . S
N411 Co355 2.257 . S
N411 C408 1.391 . S
N411 C412 1.388 1_655 S
C412 H383 0.930 . S
C412 C407 1.391 . S
C412 N411 1.388 1_455 S
Co413 O415 2.143 . S
Co413 O421 2.074 . S
Co413 O424 2.093 . S
Co413 O437 2.097 . S
Co413 N454 2.151 . S
Co413 N462 2.214 . S
Co414 O415 2.160 . S
Co414 O420 2.058 . S
Co414 O430 2.057 . S
Co414 O445 2.037 . S
Co414 N449 2.145 . S
Co414 N470 2.257 . S
O415 Co413 2.143 . S
O415 Co414 2.160 . S
C416 O417 1.278 . S
C416 O424 1.224 . S
O417 C416 1.278 . S
C418 O419 1.245 . S
C418 O430 1.232 . S
O419 C418 1.245 . S
O420 Co414 2.058 . S
O420 C446 1.269 . S
O421 Co413 2.074 . S
O421 C446 1.257 . S
H422 C447 0.930 . S
H423 C453 0.930 . S
O424 Co413 2.093 . S
O424 C416 1.224 . S
H425 C457 0.929 . S
H426 C459 0.930 . S
H427 C460 0.930 . S
H428 C458 0.929 . S
H429 C461 0.928 . S
O430 Co414 2.057 . S
O430 C418 1.232 . S
H431 C450 0.929 . S
H432 C451 0.929 . S
H433 C463 0.931 . S
H434 C455 0.929 . S
H435 C464 0.930 . S
H436 C456 0.931 . S
O437 Co413 2.097 . S
O437 C465 1.214 . S
H438 C466 0.929 . S
H439 C467 0.929 . S
H440 C468 0.930 . S
H441 C469 0.929 . S
H442 C471 0.930 . S
H443 C448 0.930 . S
H444 C452 0.930 . S
O445 Co414 2.037 . S
O445 C465 1.234 . S
C446 O420 1.269 . S
C446 O421 1.257 . S
C447 H422 0.930 . S
C447 C450 1.388 . S
C447 C452 1.418 . S
C448 H443 0.930 . S
C448 C451 1.404 . S
C448 C452 1.353 . S
N449 Co414 2.145 . S
N449 C450 1.397 . S
N449 C451 1.334 . S
C450 H431 0.929 . S
C450 C447 1.388 . S
C450 N449 1.397 . S
C451 H432 0.929 . S
C451 C448 1.404 . S
C451 N449 1.334 . S
C452 H444 0.930 . S
C452 C447 1.418 . S
C452 C448 1.353 . S
C453 H423 0.930 . S
C453 N454 1.330 . S
C453 C455 1.446 . S
N454 Co413 2.151 . S
N454 C453 1.330 . S
N454 C458 1.418 . S
C455 H434 0.929 . S
C455 C453 1.446 . S
C455 C456 1.332 . S
C456 H436 0.931 . S
C456 C455 1.332 . S
C456 C457 1.267 . S
C457 H425 0.929 . S
C457 C456 1.267 . S
C457 C458 1.251 . S
C458 H428 0.929 . S
C458 N454 1.418 . S
C458 C457 1.251 . S
C459 H426 0.930 . S
C459 C461 1.406 . S
C459 C464 1.261 . S
C460 H427 0.930 . S
C460 N462 1.325 . S
C460 C463 1.357 . S
C461 H429 0.928 . S
C461 C459 1.406 . S
C461 N462 1.261 . S
N462 Co413 2.214 . S
N462 C460 1.325 . S
N462 C461 1.261 . S
C463 H433 0.931 . S
C463 C460 1.357 . S
C463 C464 1.312 . S
C464 H435 0.930 . S
C464 C459 1.261 . S
C464 C463 1.312 . S
C465 O437 1.214 . S
C465 O445 1.234 . S
C466 H438 0.929 . S
C466 C469 1.391 . S
C466 C471 1.391 . S
C467 H439 0.929 . S
C467 C468 1.390 1_565 S
C467 N470 1.391 . S
C468 H440 0.930 . S
C468 C467 1.390 1_545 S
C468 C469 1.392 . S
C469 H441 0.929 . S
C469 C466 1.391 . S
C469 C468 1.392 . S
N470 Co414 2.257 . S
N470 C467 1.391 . S
N470 C471 1.388 1_565 S
C471 H442 0.930 . S
C471 C466 1.391 . S
C471 N470 1.388 1_545 S
Co472 O474 2.143 . S
Co472 O480 2.074 . S
Co472 O483 2.093 . S
Co472 O496 2.097 . S
Co472 N513 2.151 . S
Co472 N521 2.214 . S
Co473 O474 2.160 . S
Co473 O479 2.058 . S
Co473 O489 2.057 . S
Co473 O504 2.037 . S
Co473 N508 2.145 1_556 S
Co473 N529 2.257 . S
O474 Co472 2.143 . S
O474 Co473 2.160 . S
C475 O476 1.278 . S
C475 O483 1.224 . S
O476 C475 1.278 . S
C477 O478 1.245 . S
C477 O489 1.232 . S
O478 C477 1.245 . S
O479 Co473 2.058 . S
O479 C505 1.269 . S
O480 Co472 2.074 . S
O480 C505 1.257 . S
H481 C506 0.930 . S
H482 C512 0.930 . S
O483 Co472 2.093 . S
O483 C475 1.224 . S
H484 C516 0.929 . S
H485 C518 0.930 . S
H486 C519 0.930 . S
H487 C517 0.929 . S
H488 C520 0.928 . S
O489 Co473 2.057 . S
O489 C477 1.232 . S
H490 C509 0.929 . S
H491 C510 0.929 . S
H492 C522 0.931 . S
H493 C514 0.929 . S
H494 C523 0.930 . S
H495 C515 0.931 . S
O496 Co472 2.097 . S
O496 C524 1.214 . S
H497 C525 0.929 . S
H498 C526 0.929 . S
H499 C527 0.930 . S
H500 C528 0.929 . S
H501 C530 0.930 . S
H502 C507 0.930 . S
H503 C511 0.930 . S
O504 Co473 2.037 . S
O504 C524 1.234 . S
C505 O479 1.269 . S
C505 O480 1.257 . S
C506 H481 0.930 . S
C506 C509 1.388 . S
C506 C511 1.418 . S
C507 H502 0.930 . S
C507 C510 1.404 . S
C507 C511 1.353 . S
N508 Co473 2.145 1_554 S
N508 C509 1.397 . S
N508 C510 1.334 . S
C509 H490 0.929 . S
C509 C506 1.388 . S
C509 N508 1.397 . S
C510 H491 0.929 . S
C510 C507 1.404 . S
C510 N508 1.334 . S
C511 H503 0.930 . S
C511 C506 1.418 . S
C511 C507 1.353 . S
C512 H482 0.930 . S
C512 N513 1.330 . S
C512 C514 1.446 . S
N513 Co472 2.151 . S
N513 C512 1.330 . S
N513 C517 1.418 . S
C514 H493 0.929 . S
C514 C512 1.446 . S
C514 C515 1.332 . S
C515 H495 0.931 . S
C515 C514 1.332 . S
C515 C516 1.267 . S
C516 H484 0.929 . S
C516 C515 1.267 . S
C516 C517 1.251 . S
C517 H487 0.929 . S
C517 N513 1.418 . S
C517 C516 1.251 . S
C518 H485 0.930 . S
C518 C520 1.406 . S
C518 C523 1.261 . S
C519 H486 0.930 . S
C519 N521 1.325 . S
C519 C522 1.357 . S
C520 H488 0.928 . S
C520 C518 1.406 . S
C520 N521 1.261 . S
N521 Co472 2.214 . S
N521 C519 1.325 . S
N521 C520 1.261 . S
C522 H492 0.931 . S
C522 C519 1.357 . S
C522 C523 1.312 . S
C523 H494 0.930 . S
C523 C518 1.261 . S
C523 C522 1.312 . S
C524 O496 1.214 . S
C524 O504 1.234 . S
C525 H497 0.929 . S
C525 C528 1.391 . S
C525 C530 1.391 . S
C526 H498 0.929 . S
C526 C527 1.390 . S
C526 N529 1.391 . S
C527 H499 0.930 . S
C527 C526 1.390 . S
C527 C528 1.392 . S
C528 H500 0.929 . S
C528 C525 1.391 . S
C528 C527 1.392 . S
N529 Co473 2.257 . S
N529 C526 1.391 . S
N529 C530 1.388 . S
C530 H501 0.930 . S
C530 C525 1.391 . S
C530 N529 1.388 . S
Co531 O533 2.143 . S
Co531 O539 2.074 . S
Co531 O542 2.093 . S
Co531 O555 2.097 . S
Co531 N572 2.151 . S
Co531 N580 2.214 . S
Co532 O533 2.160 . S
Co532 O538 2.058 . S
Co532 O548 2.057 . S
Co532 O563 2.037 . S
Co532 N567 2.145 1_556 S
Co532 N588 2.257 . S
O533 Co531 2.143 . S
O533 Co532 2.160 . S
C534 O535 1.278 . S
C534 O542 1.224 . S
O535 C534 1.278 . S
C536 O537 1.245 . S
C536 O548 1.232 . S
O537 C536 1.245 . S
O538 Co532 2.058 . S
O538 C564 1.269 . S
O539 Co531 2.074 . S
O539 C564 1.257 . S
H540 C565 0.930 . S
H541 C571 0.930 . S
O542 Co531 2.093 . S
O542 C534 1.224 . S
H543 C575 0.929 . S
H544 C577 0.930 . S
H545 C578 0.930 . S
H546 C576 0.929 . S
H547 C579 0.928 . S
O548 Co532 2.057 . S
O548 C536 1.232 . S
H549 C568 0.929 . S
H550 C569 0.929 . S
H551 C581 0.931 . S
H552 C573 0.929 . S
H553 C582 0.930 . S
H554 C574 0.931 . S
O555 Co531 2.097 . S
O555 C583 1.214 . S
H556 C584 0.929 . S
H557 C585 0.929 . S
H558 C586 0.930 . S
H559 C587 0.929 . S
H560 C589 0.930 . S
H561 C566 0.930 . S
H562 C570 0.930 . S
O563 Co532 2.037 . S
O563 C583 1.234 . S
C564 O538 1.269 . S
C564 O539 1.257 . S
C565 H540 0.930 . S
C565 C568 1.388 . S
C565 C570 1.418 . S
C566 H561 0.930 . S
C566 C569 1.404 . S
C566 C570 1.353 . S
N567 Co532 2.145 1_554 S
N567 C568 1.397 . S
N567 C569 1.334 . S
C568 H549 0.929 . S
C568 C565 1.388 . S
C568 N567 1.397 . S
C569 H550 0.929 . S
C569 C566 1.404 . S
C569 N567 1.334 . S
C570 H562 0.930 . S
C570 C565 1.418 . S
C570 C566 1.353 . S
C571 H541 0.930 . S
C571 N572 1.330 . S
C571 C573 1.446 . S
N572 Co531 2.151 . S
N572 C571 1.330 . S
N572 C576 1.418 . S
C573 H552 0.929 . S
C573 C571 1.446 . S
C573 C574 1.332 . S
C574 H554 0.931 . S
C574 C573 1.332 . S
C574 C575 1.267 . S
C575 H543 0.929 . S
C575 C574 1.267 . S
C575 C576 1.251 . S
C576 H546 0.929 . S
C576 N572 1.418 . S
C576 C575 1.251 . S
C577 H544 0.930 . S
C577 C579 1.406 . S
C577 C582 1.261 . S
C578 H545 0.930 . S
C578 N580 1.325 . S
C578 C581 1.357 . S
C579 H547 0.928 . S
C579 C577 1.406 . S
C579 N580 1.261 . S
N580 Co531 2.214 . S
N580 C578 1.325 . S
N580 C579 1.261 . S
C581 H551 0.931 . S
C581 C578 1.357 . S
C581 C582 1.312 . S
C582 H553 0.930 . S
C582 C577 1.261 . S
C582 C581 1.312 . S
C583 O555 1.214 . S
C583 O563 1.234 . S
C584 H556 0.929 . S
C584 C587 1.391 . S
C584 C589 1.391 . S
C585 H557 0.929 . S
C585 C586 1.390 . S
C585 N588 1.391 . S
C586 H558 0.930 . S
C586 C585 1.390 . S
C586 C587 1.392 . S
C587 H559 0.929 . S
C587 C584 1.391 . S
C587 C586 1.392 . S
N588 Co532 2.257 . S
N588 C585 1.391 . S
N588 C589 1.388 . S
C589 H560 0.930 . S
C589 C584 1.391 . S
C589 N588 1.388 . S
Co590 O592 2.143 . S
Co590 O598 2.074 . S
Co590 O601 2.093 . S
Co590 O614 2.097 . S
Co590 N631 2.151 . S
Co590 N639 2.214 . S
Co591 O592 2.160 . S
Co591 O597 2.058 . S
Co591 O607 2.057 . S
Co591 O622 2.037 . S
Co591 N626 2.145 1_556 S
Co591 N647 2.257 . S
O592 Co590 2.143 . S
O592 Co591 2.160 . S
C593 O594 1.278 . S
C593 O601 1.224 . S
O594 C593 1.278 . S
C595 O596 1.245 . S
C595 O607 1.232 . S
O596 C595 1.245 . S
O597 Co591 2.058 . S
O597 C623 1.269 . S
O598 Co590 2.074 . S
O598 C623 1.257 . S
H599 C624 0.930 . S
H600 C630 0.930 . S
O601 Co590 2.093 . S
O601 C593 1.224 . S
H602 C634 0.929 . S
H603 C636 0.930 . S
H604 C637 0.930 . S
H605 C635 0.929 . S
H606 C638 0.928 . S
O607 Co591 2.057 . S
O607 C595 1.232 . S
H608 C627 0.929 . S
H609 C628 0.929 . S
H610 C640 0.931 . S
H611 C632 0.929 . S
H612 C641 0.930 . S
H613 C633 0.931 . S
O614 Co590 2.097 . S
O614 C642 1.214 . S
H615 C643 0.929 . S
H616 C644 0.929 . S
H617 C645 0.930 . S
H618 C646 0.929 . S
H619 C648 0.930 . S
H620 C625 0.930 . S
H621 C629 0.930 . S
O622 Co591 2.037 . S
O622 C642 1.234 . S
C623 O597 1.269 . S
C623 O598 1.257 . S
C624 H599 0.930 . S
C624 C627 1.388 . S
C624 C629 1.418 . S
C625 H620 0.930 . S
C625 C628 1.404 . S
C625 C629 1.353 . S
N626 Co591 2.145 1_554 S
N626 C627 1.397 . S
N626 C628 1.334 . S
C627 H608 0.929 . S
C627 C624 1.388 . S
C627 N626 1.397 . S
C628 H609 0.929 . S
C628 C625 1.404 . S
C628 N626 1.334 . S
C629 H621 0.930 . S
C629 C624 1.418 . S
C629 C625 1.353 . S
C630 H600 0.930 . S
C630 N631 1.330 . S
C630 C632 1.446 . S
N631 Co590 2.151 . S
N631 C630 1.330 . S
N631 C635 1.418 . S
C632 H611 0.929 . S
C632 C630 1.446 . S
C632 C633 1.332 . S
C633 H613 0.931 . S
C633 C632 1.332 . S
C633 C634 1.267 . S
C634 H602 0.929 . S
C634 C633 1.267 . S
C634 C635 1.251 . S
C635 H605 0.929 . S
C635 N631 1.418 . S
C635 C634 1.251 . S
C636 H603 0.930 . S
C636 C638 1.406 . S
C636 C641 1.261 . S
C637 H604 0.930 . S
C637 N639 1.325 . S
C637 C640 1.357 . S
C638 H606 0.928 . S
C638 C636 1.406 . S
C638 N639 1.261 . S
N639 Co590 2.214 . S
N639 C637 1.325 . S
N639 C638 1.261 . S
C640 H610 0.931 . S
C640 C637 1.357 . S
C640 C641 1.312 . S
C641 H612 0.930 . S
C641 C636 1.261 . S
C641 C640 1.312 . S
C642 O614 1.214 . S
C642 O622 1.234 . S
C643 H615 0.929 . S
C643 C646 1.391 . S
C643 C648 1.391 . S
C644 H616 0.929 . S
C644 C645 1.390 1_455 S
C644 N647 1.391 . S
C645 H617 0.930 . S
C645 C644 1.390 1_655 S
C645 C646 1.392 . S
C646 H618 0.929 . S
C646 C643 1.391 . S
C646 C645 1.392 . S
N647 Co591 2.257 . S
N647 C644 1.391 . S
N647 C648 1.388 1_455 S
C648 H619 0.930 . S
C648 C643 1.391 . S
C648 N647 1.388 1_655 S
Co649 O651 2.143 . S
Co649 O657 2.074 . S
Co649 O660 2.093 . S
Co649 O673 2.097 . S
Co649 N690 2.151 . S
Co649 N698 2.214 . S
Co650 O651 2.160 . S
Co650 O656 2.058 . S
Co650 O666 2.057 . S
Co650 O681 2.037 . S
Co650 N685 2.145 1_556 S
Co650 N706 2.257 . S
O651 Co649 2.143 . S
O651 Co650 2.160 . S
C652 O653 1.278 . S
C652 O660 1.224 . S
O653 C652 1.278 . S
C654 O655 1.245 . S
C654 O666 1.232 . S
O655 C654 1.245 . S
O656 Co650 2.058 . S
O656 C682 1.269 . S
O657 Co649 2.074 . S
O657 C682 1.257 . S
H658 C683 0.930 . S
H659 C689 0.930 . S
O660 Co649 2.093 . S
O660 C652 1.224 . S
H661 C693 0.929 . S
H662 C695 0.930 . S
H663 C696 0.930 . S
H664 C694 0.929 . S
H665 C697 0.928 . S
O666 Co650 2.057 . S
O666 C654 1.232 . S
H667 C686 0.929 . S
H668 C687 0.929 . S
H669 C699 0.931 . S
H670 C691 0.929 . S
H671 C700 0.930 . S
H672 C692 0.931 . S
O673 Co649 2.097 . S
O673 C701 1.214 . S
H674 C702 0.929 . S
H675 C703 0.929 . S
H676 C704 0.930 . S
H677 C705 0.929 . S
H678 C707 0.930 . S
H679 C684 0.930 . S
H680 C688 0.930 . S
O681 Co650 2.037 . S
O681 C701 1.234 . S
C682 O656 1.269 . S
C682 O657 1.257 . S
C683 H658 0.930 . S
C683 C686 1.388 . S
C683 C688 1.418 . S
C684 H679 0.930 . S
C684 C687 1.404 . S
C684 C688 1.353 . S
N685 Co650 2.145 1_554 S
N685 C686 1.397 . S
N685 C687 1.334 . S
C686 H667 0.929 . S
C686 C683 1.388 . S
C686 N685 1.397 . S
C687 H668 0.929 . S
C687 C684 1.404 . S
C687 N685 1.334 . S
C688 H680 0.930 . S
C688 C683 1.418 . S
C688 C684 1.353 . S
C689 H659 0.930 . S
C689 N690 1.330 . S
C689 C691 1.446 . S
N690 Co649 2.151 . S
N690 C689 1.330 . S
N690 C694 1.418 . S
C691 H670 0.929 . S
C691 C689 1.446 . S
C691 C692 1.332 . S
C692 H672 0.931 . S
C692 C691 1.332 . S
C692 C693 1.267 . S
C693 H661 0.929 . S
C693 C692 1.267 . S
C693 C694 1.251 . S
C694 H664 0.929 . S
C694 N690 1.418 . S
C694 C693 1.251 . S
C695 H662 0.930 . S
C695 C697 1.406 . S
C695 C700 1.261 . S
C696 H663 0.930 . S
C696 N698 1.325 . S
C696 C699 1.357 . S
C697 H665 0.928 . S
C697 C695 1.406 . S
C697 N698 1.261 . S
N698 Co649 2.214 . S
N698 C696 1.325 . S
N698 C697 1.261 . S
C699 H669 0.931 . S
C699 C696 1.357 . S
C699 C700 1.312 . S
C700 H671 0.930 . S
C700 C695 1.261 . S
C700 C699 1.312 . S
C701 O673 1.214 . S
C701 O681 1.234 . S
C702 H674 0.929 . S
C702 C705 1.391 . S
C702 C707 1.391 . S
C703 H675 0.929 . S
C703 C704 1.390 1_545 S
C703 N706 1.391 . S
C704 H676 0.930 . S
C704 C703 1.390 1_565 S
C704 C705 1.392 . S
C705 H677 0.929 . S
C705 C702 1.391 . S
C705 C704 1.392 . S
N706 Co650 2.257 . S
N706 C703 1.391 . S
N706 C707 1.388 1_545 S
C707 H678 0.930 . S
C707 C702 1.391 . S
C707 N706 1.388 1_565 S
Co708 O710 2.143 . S
Co708 O716 2.074 . S
Co708 O719 2.093 . S
Co708 O732 2.097 . S
Co708 N749 2.151 . S
Co708 N757 2.214 . S
Co709 O710 2.160 . S
Co709 O715 2.058 . S
Co709 O725 2.057 . S
Co709 O740 2.037 . S
Co709 N744 2.145 . S
Co709 N765 2.257 . S
O710 Co708 2.143 . S
O710 Co709 2.160 . S
C711 O712 1.278 . S
C711 O719 1.224 . S
O712 C711 1.278 . S
C713 O714 1.245 . S
C713 O725 1.232 . S
O714 C713 1.245 . S
O715 Co709 2.058 . S
O715 C741 1.269 . S
O716 Co708 2.074 . S
O716 C741 1.257 . S
H717 C742 0.930 . S
H718 C748 0.930 . S
O719 Co708 2.093 . S
O719 C711 1.224 . S
H720 C752 0.929 . S
H721 C754 0.930 . S
H722 C755 0.930 . S
H723 C753 0.929 . S
H724 C756 0.928 . S
O725 Co709 2.057 . S
O725 C713 1.232 . S
H726 C745 0.929 . S
H727 C746 0.929 . S
H728 C758 0.931 . S
H729 C750 0.929 . S
H730 C759 0.930 . S
H731 C751 0.931 . S
O732 Co708 2.097 . S
O732 C760 1.214 . S
H733 C761 0.929 . S
H734 C762 0.929 . S
H735 C763 0.930 . S
H736 C764 0.929 . S
H737 C766 0.930 . S
H738 C743 0.930 . S
H739 C747 0.930 . S
O740 Co709 2.037 . S
O740 C760 1.234 . S
C741 O715 1.269 . S
C741 O716 1.257 . S
C742 H717 0.930 . S
C742 C745 1.388 . S
C742 C747 1.418 . S
C743 H738 0.930 . S
C743 C746 1.404 . S
C743 C747 1.353 . S
N744 Co709 2.145 . S
N744 C745 1.397 . S
N744 C746 1.334 . S
C745 H726 0.929 . S
C745 C742 1.388 . S
C745 N744 1.397 . S
C746 H727 0.929 . S
C746 C743 1.404 . S
C746 N744 1.334 . S
C747 H739 0.930 . S
C747 C742 1.418 . S
C747 C743 1.353 . S
C748 H718 0.930 . S
C748 N749 1.330 . S
C748 C750 1.446 . S
N749 Co708 2.151 . S
N749 C748 1.330 . S
N749 C753 1.418 . S
C750 H729 0.929 . S
C750 C748 1.446 . S
C750 C751 1.332 . S
C751 H731 0.931 . S
C751 C750 1.332 . S
C751 C752 1.267 . S
C752 H720 0.929 . S
C752 C751 1.267 . S
C752 C753 1.251 . S
C753 H723 0.929 . S
C753 N749 1.418 . S
C753 C752 1.251 . S
C754 H721 0.930 . S
C754 C756 1.406 . S
C754 C759 1.261 . S
C755 H722 0.930 . S
C755 N757 1.325 . S
C755 C758 1.357 . S
C756 H724 0.928 . S
C756 C754 1.406 . S
C756 N757 1.261 . S
N757 Co708 2.214 . S
N757 C755 1.325 . S
N757 C756 1.261 . S
C758 H728 0.931 . S
C758 C755 1.357 . S
C758 C759 1.312 . S
C759 H730 0.930 . S
C759 C754 1.261 . S
C759 C758 1.312 . S
C760 O732 1.214 . S
C760 O740 1.234 . S
C761 H733 0.929 . S
C761 C764 1.391 . S
C761 C766 1.391 . S
C762 H734 0.929 . S
C762 C763 1.390 . S
C762 N765 1.391 . S
C763 H735 0.930 . S
C763 C762 1.390 . S
C763 C764 1.392 . S
C764 H736 0.929 . S
C764 C761 1.391 . S
C764 C763 1.392 . S
N765 Co709 2.257 . S
N765 C762 1.391 . S
N765 C766 1.388 . S
C766 H737 0.930 . S
C766 C761 1.391 . S
C766 N765 1.388 . S
Co767 O769 2.143 . S
Co767 O775 2.074 . S
Co767 O778 2.093 . S
Co767 O791 2.097 . S
Co767 N808 2.151 . S
Co767 N816 2.214 . S
Co768 O769 2.160 . S
Co768 O774 2.058 . S
Co768 O784 2.057 . S
Co768 O799 2.037 . S
Co768 N803 2.145 . S
Co768 N824 2.257 . S
O769 Co767 2.143 . S
O769 Co768 2.160 . S
C770 O771 1.278 . S
C770 O778 1.224 . S
O771 C770 1.278 . S
C772 O773 1.245 . S
C772 O784 1.232 . S
O773 C772 1.245 . S
O774 Co768 2.058 . S
O774 C800 1.269 . S
O775 Co767 2.074 . S
O775 C800 1.257 . S
H776 C801 0.930 . S
H777 C807 0.930 . S
O778 Co767 2.093 . S
O778 C770 1.224 . S
H779 C811 0.929 . S
H780 C813 0.930 . S
H781 C814 0.930 . S
H782 C812 0.929 . S
H783 C815 0.928 . S
O784 Co768 2.057 . S
O784 C772 1.232 . S
H785 C804 0.929 . S
H786 C805 0.929 . S
H787 C817 0.931 . S
H788 C809 0.929 . S
H789 C818 0.930 . S
H790 C810 0.931 . S
O791 Co767 2.097 . S
O791 C819 1.214 . S
H792 C820 0.929 . S
H793 C821 0.929 . S
H794 C822 0.930 . S
H795 C823 0.929 . S
H796 C825 0.930 . S
H797 C802 0.930 . S
H798 C806 0.930 . S
O799 Co768 2.037 . S
O799 C819 1.234 . S
C800 O774 1.269 . S
C800 O775 1.257 . S
C801 H776 0.930 . S
C801 C804 1.388 . S
C801 C806 1.418 . S
C802 H797 0.930 . S
C802 C805 1.404 . S
C802 C806 1.353 . S
N803 Co768 2.145 . S
N803 C804 1.397 . S
N803 C805 1.334 . S
C804 H785 0.929 . S
C804 C801 1.388 . S
C804 N803 1.397 . S
C805 H786 0.929 . S
C805 C802 1.404 . S
C805 N803 1.334 . S
C806 H798 0.930 . S
C806 C801 1.418 . S
C806 C802 1.353 . S
C807 H777 0.930 . S
C807 N808 1.330 . S
C807 C809 1.446 . S
N808 Co767 2.151 . S
N808 C807 1.330 . S
N808 C812 1.418 . S
C809 H788 0.929 . S
C809 C807 1.446 . S
C809 C810 1.332 . S
C810 H790 0.931 . S
C810 C809 1.332 . S
C810 C811 1.267 . S
C811 H779 0.929 . S
C811 C810 1.267 . S
C811 C812 1.251 . S
C812 H782 0.929 . S
C812 N808 1.418 . S
C812 C811 1.251 . S
C813 H780 0.930 . S
C813 C815 1.406 . S
C813 C818 1.261 . S
C814 H781 0.930 . S
C814 N816 1.325 . S
C814 C817 1.357 . S
C815 H783 0.928 . S
C815 C813 1.406 . S
C815 N816 1.261 . S
N816 Co767 2.214 . S
N816 C814 1.325 . S
N816 C815 1.261 . S
C817 H787 0.931 . S
C817 C814 1.357 . S
C817 C818 1.312 . S
C818 H789 0.930 . S
C818 C813 1.261 . S
C818 C817 1.312 . S
C819 O791 1.214 . S
C819 O799 1.234 . S
C820 H792 0.929 . S
C820 C823 1.391 . S
C820 C825 1.391 . S
C821 H793 0.929 . S
C821 C822 1.390 . S
C821 N824 1.391 . S
C822 H794 0.930 . S
C822 C821 1.390 . S
C822 C823 1.392 . S
C823 H795 0.929 . S
C823 C820 1.391 . S
C823 C822 1.392 . S
N824 Co768 2.257 . S
N824 C821 1.391 . S
N824 C825 1.388 . S
C825 H796 0.930 . S
C825 C820 1.391 . S
C825 N824 1.388 . S
Co826 O828 2.143 . S
Co826 O834 2.074 . S
Co826 O837 2.093 . S
Co826 O850 2.097 . S
Co826 N867 2.151 . S
Co826 N875 2.214 . S
Co827 O828 2.160 . S
Co827 O833 2.058 . S
Co827 O843 2.057 . S
Co827 O858 2.037 . S
Co827 N862 2.145 . S
Co827 N883 2.257 . S
O828 Co826 2.143 . S
O828 Co827 2.160 . S
C829 O830 1.278 . S
C829 O837 1.224 . S
O830 C829 1.278 . S
C831 O832 1.245 . S
C831 O843 1.232 . S
O832 C831 1.245 . S
O833 Co827 2.058 . S
O833 C859 1.269 . S
O834 Co826 2.074 . S
O834 C859 1.257 . S
H835 C860 0.930 . S
H836 C866 0.930 . S
O837 Co826 2.093 . S
O837 C829 1.224 . S
H838 C870 0.929 . S
H839 C872 0.930 . S
H840 C873 0.930 . S
H841 C871 0.929 . S
H842 C874 0.928 . S
O843 Co827 2.057 . S
O843 C831 1.232 . S
H844 C863 0.929 . S
H845 C864 0.929 . S
H846 C876 0.931 . S
H847 C868 0.929 . S
H848 C877 0.930 . S
H849 C869 0.931 . S
O850 Co826 2.097 . S
O850 C878 1.214 . S
H851 C879 0.929 . S
H852 C880 0.929 . S
H853 C881 0.930 . S
H854 C882 0.929 . S
H855 C884 0.930 . S
H856 C861 0.930 . S
H857 C865 0.930 . S
O858 Co827 2.037 . S
O858 C878 1.234 . S
C859 O833 1.269 . S
C859 O834 1.257 . S
C860 H835 0.930 . S
C860 C863 1.388 . S
C860 C865 1.418 . S
C861 H856 0.930 . S
C861 C864 1.404 . S
C861 C865 1.353 . S
N862 Co827 2.145 . S
N862 C863 1.397 . S
N862 C864 1.334 . S
C863 H844 0.929 . S
C863 C860 1.388 . S
C863 N862 1.397 . S
C864 H845 0.929 . S
C864 C861 1.404 . S
C864 N862 1.334 . S
C865 H857 0.930 . S
C865 C860 1.418 . S
C865 C861 1.353 . S
C866 H836 0.930 . S
C866 N867 1.330 . S
C866 C868 1.446 . S
N867 Co826 2.151 . S
N867 C866 1.330 . S
N867 C871 1.418 . S
C868 H847 0.929 . S
C868 C866 1.446 . S
C868 C869 1.332 . S
C869 H849 0.931 . S
C869 C868 1.332 . S
C869 C870 1.267 . S
C870 H838 0.929 . S
C870 C869 1.267 . S
C870 C871 1.251 . S
C871 H841 0.929 . S
C871 N867 1.418 . S
C871 C870 1.251 . S
C872 H839 0.930 . S
C872 C874 1.406 . S
C872 C877 1.261 . S
C873 H840 0.930 . S
C873 N875 1.325 . S
C873 C876 1.357 . S
C874 H842 0.928 . S
C874 C872 1.406 . S
C874 N875 1.261 . S
N875 Co826 2.214 . S
N875 C873 1.325 . S
N875 C874 1.261 . S
C876 H846 0.931 . S
C876 C873 1.357 . S
C876 C877 1.312 . S
C877 H848 0.930 . S
C877 C872 1.261 . S
C877 C876 1.312 . S
C878 O850 1.214 . S
C878 O858 1.234 . S
C879 H851 0.929 . S
C879 C882 1.391 . S
C879 C884 1.391 . S
C880 H852 0.929 . S
C880 C881 1.390 1_455 S
C880 N883 1.391 . S
C881 H853 0.930 . S
C881 C880 1.390 1_655 S
C881 C882 1.392 . S
C882 H854 0.929 . S
C882 C879 1.391 . S
C882 C881 1.392 . S
N883 Co827 2.257 . S
N883 C880 1.391 . S
N883 C884 1.388 1_455 S
C884 H855 0.930 . S
C884 C879 1.391 . S
C884 N883 1.388 1_655 S
Co885 O887 2.143 . S
Co885 O893 2.074 . S
Co885 O896 2.093 . S
Co885 O909 2.097 . S
Co885 N926 2.151 . S
Co885 N934 2.214 . S
Co886 O887 2.160 . S
Co886 O892 2.058 . S
Co886 O902 2.057 . S
Co886 O917 2.037 . S
Co886 N921 2.145 . S
Co886 N942 2.257 . S
O887 Co885 2.143 . S
O887 Co886 2.160 . S
C888 O889 1.278 . S
C888 O896 1.224 . S
O889 C888 1.278 . S
C890 O891 1.245 . S
C890 O902 1.232 . S
O891 C890 1.245 . S
O892 Co886 2.058 . S
O892 C918 1.269 . S
O893 Co885 2.074 . S
O893 C918 1.257 . S
H894 C919 0.930 . S
H895 C925 0.930 . S
O896 Co885 2.093 . S
O896 C888 1.224 . S
H897 C929 0.929 . S
H898 C931 0.930 . S
H899 C932 0.930 . S
H900 C930 0.929 . S
H901 C933 0.928 . S
O902 Co886 2.057 . S
O902 C890 1.232 . S
H903 C922 0.929 . S
H904 C923 0.929 . S
H905 C935 0.931 . S
H906 C927 0.929 . S
H907 C936 0.930 . S
H908 C928 0.931 . S
O909 Co885 2.097 . S
O909 C937 1.214 . S
H910 C938 0.929 . S
H911 C939 0.929 . S
H912 C940 0.930 . S
H913 C941 0.929 . S
H914 C943 0.930 . S
H915 C920 0.930 . S
H916 C924 0.930 . S
O917 Co886 2.037 . S
O917 C937 1.234 . S
C918 O892 1.269 . S
C918 O893 1.257 . S
C919 H894 0.930 . S
C919 C922 1.388 . S
C919 C924 1.418 . S
C920 H915 0.930 . S
C920 C923 1.404 . S
C920 C924 1.353 . S
N921 Co886 2.145 . S
N921 C922 1.397 . S
N921 C923 1.334 . S
C922 H903 0.929 . S
C922 C919 1.388 . S
C922 N921 1.397 . S
C923 H904 0.929 . S
C923 C920 1.404 . S
C923 N921 1.334 . S
C924 H916 0.930 . S
C924 C919 1.418 . S
C924 C920 1.353 . S
C925 H895 0.930 . S
C925 N926 1.330 . S
C925 C927 1.446 . S
N926 Co885 2.151 . S
N926 C925 1.330 . S
N926 C930 1.418 . S
C927 H906 0.929 . S
C927 C925 1.446 . S
C927 C928 1.332 . S
C928 H908 0.931 . S
C928 C927 1.332 . S
C928 C929 1.267 . S
C929 H897 0.929 . S
C929 C928 1.267 . S
C929 C930 1.251 . S
C930 H900 0.929 . S
C930 N926 1.418 . S
C930 C929 1.251 . S
C931 H898 0.930 . S
C931 C933 1.406 . S
C931 C936 1.261 . S
C932 H899 0.930 . S
C932 N934 1.325 . S
C932 C935 1.357 . S
C933 H901 0.928 . S
C933 C931 1.406 . S
C933 N934 1.261 . S
N934 Co885 2.214 . S
N934 C932 1.325 . S
N934 C933 1.261 . S
C935 H905 0.931 . S
C935 C932 1.357 . S
C935 C936 1.312 . S
C936 H907 0.930 . S
C936 C931 1.261 . S
C936 C935 1.312 . S
C937 O909 1.214 . S
C937 O917 1.234 . S
C938 H910 0.929 . S
C938 C941 1.391 . S
C938 C943 1.391 . S
C939 H911 0.929 . S
C939 C940 1.390 1_545 S
C939 N942 1.391 . S
C940 H912 0.930 . S
C940 C939 1.390 1_565 S
C940 C941 1.392 . S
C941 H913 0.929 . S
C941 C938 1.391 . S
C941 C940 1.392 . S
N942 Co886 2.257 . S
N942 C939 1.391 . S
N942 C943 1.388 1_545 S
C943 H914 0.930 . S
C943 C938 1.391 . S
C943 N942 1.388 1_565 S
C944 C945 1.349 . S
C944 C946 1.340 . S
C944 H969 0.950 1_554 S
C945 C944 1.349 . S
C945 C961 1.349 . S
C946 C944 1.340 . S
C946 C965 1.453 . S
C946 H970 0.913 1_554 S
C947 C964 1.574 . S
C947 C966 1.368 . S
C947 H971 0.949 . S
H948 C952 0.949 . S
C949 C950 1.349 . S
C949 C951 1.327 1_556 S
C949 H972 0.950 1_556 S
C950 C949 1.349 . S
C950 C962 1.349 . S
C951 C949 1.327 1_554 S
C951 C967 1.429 1_554 S
C951 H973 0.950 . S
C952 H948 0.949 . S
C952 C960 1.574 . S
C952 C968 1.368 . S
H953 C961 0.950 . S
H954 C959 0.950 . S
H955 C960 0.949 . S
H956 C962 0.950 . S
H957 C963 0.950 . S
H958 C964 0.949 . S
C959 H954 0.950 . S
C959 C961 1.327 . S
C959 C965 1.429 . S
C960 C952 1.574 . S
C960 H955 0.949 . S
C960 C966 1.368 1_556 S
C961 C945 1.349 . S
C961 H953 0.950 . S
C961 C959 1.327 . S
C962 C950 1.349 . S
C962 H956 0.950 . S
C962 C963 1.327 . S
C963 H957 0.950 . S
C963 C962 1.327 . S
C963 C967 1.429 . S
C964 C947 1.574 . S
C964 H958 0.949 . S
C964 C968 1.368 1_554 S
C965 C946 1.453 . S
C965 C959 1.429 . S
C965 C966 1.523 . S
C966 C947 1.368 . S
C966 C960 1.368 1_554 S
C966 C965 1.523 . S
C967 C951 1.429 1_556 S
C967 C963 1.429 . S
C967 C968 1.523 . S
C968 C952 1.368 . S
C968 C964 1.368 1_556 S
C968 C967 1.523 . S
H969 C944 0.950 1_556 S
H970 C946 0.913 1_556 S
H971 C947 0.949 . S
H972 C949 0.950 1_554 S
H973 C951 0.950 . S
C974 C975 1.349 . S
C974 C976 1.327 1_556 S
C974 H999 0.950 1_556 S
C975 C974 1.349 . S
C975 C991 1.349 . S
C976 C974 1.327 1_554 S
C976 C995 1.429 1_554 S
C976 H1000 0.950 . S
C977 C994 1.574 . S
C977 C996 1.368 . S
C977 H1001 0.949 . S
H978 C982 0.949 . S
C979 C980 1.349 . S
C979 C981 1.327 . S
C979 H1002 0.931 1_554 S
C980 C979 1.349 . S
C980 C992 1.349 . S
C981 C979 1.327 . S
C981 C997 1.429 . S
C981 H1003 0.950 1_554 S
C982 H978 0.949 . S
C982 C990 1.574 . S
C982 C998 1.368 . S
H983 C991 0.950 . S
H984 C989 0.950 . S
H985 C990 0.949 . S
H986 C992 0.950 . S
H987 C993 0.950 . S
H988 C994 0.949 . S
C989 H984 0.950 . S
C989 C991 1.327 . S
C989 C995 1.429 . S
C990 C982 1.574 . S
C990 H985 0.949 . S
C990 C996 1.368 1_554 S
C991 C975 1.349 . S
C991 H983 0.950 . S
C991 C989 1.327 . S
C992 C980 1.349 . S
C992 H986 0.950 . S
C992 C993 1.327 . S
C993 H987 0.950 . S
C993 C992 1.327 . S
C993 C997 1.429 . S
C994 C977 1.574 . S
C994 H988 0.949 . S
C994 C998 1.368 1_556 S
C995 C976 1.429 1_556 S
C995 C989 1.429 . S
C995 C996 1.523 . S
C996 C977 1.368 . S
C996 C990 1.368 1_556 S
C996 C995 1.523 . S
C997 C981 1.429 . S
C997 C993 1.429 . S
C997 C998 1.523 . S
C998 C982 1.368 . S
C998 C994 1.368 1_554 S
C998 C997 1.523 . S
H999 C974 0.950 1_554 S
H1000 C976 0.950 . S
H1001 C977 0.949 . S
H1002 C979 0.931 1_556 S
H1003 C981 0.950 1_556 S
C1004 C1005 1.349 . S
C1004 C1006 1.327 . S
C1004 H1029 0.950 . S
C1005 C1004 1.349 . S
C1005 C1021 1.349 . S
C1006 C1004 1.327 . S
C1006 C1025 1.429 . S
C1006 H1030 0.950 . S
C1007 C1024 1.574 . S
C1007 C1026 1.368 1_554 S
C1007 H1031 0.949 . S
H1008 C1012 0.949 . S
C1009 C1010 1.349 . S
C1009 C1011 1.327 . S
C1009 H1032 0.950 . S
C1010 C1009 1.349 . S
C1010 C1022 1.349 . S
C1011 C1009 1.327 . S
C1011 C1027 1.429 . S
C1011 H1033 0.950 . S
C1012 H1008 0.949 . S
C1012 C1020 1.574 . S
C1012 C1028 1.368 1_556 S
H1013 C1021 0.950 . S
H1014 C1019 0.950 1_554 S
H1015 C1020 0.949 . S
H1016 C1022 0.950 . S
H1017 C1023 0.950 1_556 S
H1018 C1024 0.949 . S
C1019 H1014 0.950 1_556 S
C1019 C1021 1.327 . S
C1019 C1025 1.429 . S
C1020 C1012 1.574 . S
C1020 H1015 0.949 . S
C1020 C1026 1.368 . S
C1021 C1005 1.349 . S
C1021 H1013 0.950 . S
C1021 C1019 1.327 . S
C1022 C1010 1.349 . S
C1022 H1016 0.950 . S
C1022 C1023 1.327 . S
C1023 H1017 0.950 1_554 S
C1023 C1022 1.327 . S
C1023 C1027 1.429 . S
C1024 C1007 1.574 . S
C1024 H1018 0.949 . S
C1024 C1028 1.368 . S
C1025 C1006 1.429 . S
C1025 C1019 1.429 . S
C1025 C1026 1.523 . S
C1026 C1007 1.368 1_556 S
C1026 C1020 1.368 . S
C1026 C1025 1.523 . S
C1027 C1011 1.429 . S
C1027 C1023 1.429 . S
C1027 C1028 1.523 . S
C1028 C1012 1.368 1_554 S
C1028 C1024 1.368 . S
C1028 C1027 1.523 . S
H1029 C1004 0.950 . S
H1030 C1006 0.950 . S
H1031 C1007 0.949 . S
H1032 C1009 0.950 . S
H1033 C1011 0.950 . S
C1034 C1035 1.349 . S
C1034 C1036 1.327 . S
C1034 H1059 0.950 . S
C1035 C1034 1.349 . S
C1035 C1051 1.349 . S
C1036 C1034 1.327 . S
C1036 C1055 1.429 . S
C1036 H1060 0.950 . S
C1037 C1054 1.574 . S
C1037 C1056 1.368 1_554 S
C1037 H1061 0.949 . S
H1038 C1042 0.949 . S
C1039 C1040 1.349 . S
C1039 C1041 1.327 . S
C1039 H1062 0.950 . S
C1040 C1039 1.349 . S
C1040 C1052 1.349 . S
C1041 C1039 1.327 . S
C1041 C1057 1.429 . S
C1041 H1063 0.950 . S
C1042 H1038 0.949 . S
C1042 C1050 1.574 . S
C1042 C1058 1.368 1_556 S
H1043 C1051 0.950 . S
H1044 C1049 0.950 1_554 S
H1045 C1050 0.949 . S
H1046 C1052 0.950 . S
H1047 C1053 0.951 . S
H1048 C1054 0.949 . S
C1049 H1044 0.950 1_556 S
C1049 C1051 1.327 . S
C1049 C1055 1.429 . S
C1050 C1042 1.574 . S
C1050 H1045 0.949 . S
C1050 C1056 1.368 . S
C1051 C1035 1.349 . S
C1051 H1043 0.950 . S
C1051 C1049 1.327 . S
C1052 C1040 1.349 . S
C1052 H1046 0.950 . S
C1052 C1053 1.327 . S
C1053 H1047 0.951 . S
C1053 C1052 1.327 . S
C1053 C1057 1.429 . S
C1054 C1037 1.574 . S
C1054 H1048 0.949 . S
C1054 C1058 1.368 . S
C1055 C1036 1.429 . S
C1055 C1049 1.429 . S
C1055 C1056 1.523 . S
C1056 C1037 1.368 1_556 S
C1056 C1050 1.368 . S
C1056 C1055 1.523 . S
C1057 C1041 1.429 . S
C1057 C1053 1.429 . S
C1057 C1058 1.523 . S
C1058 C1042 1.368 1_554 S
C1058 C1054 1.368 . S
C1058 C1057 1.523 . S
H1059 C1034 0.950 . S
H1060 C1036 0.950 . S
H1061 C1037 0.949 . S
H1062 C1039 0.950 . S
H1063 C1041 0.950 . S
C1064 C1065 1.349 . S
C1064 C1066 1.327 . S
C1064 H1089 0.950 . S
C1065 C1064 1.349 . S
C1065 C1081 1.349 . S
C1066 C1064 1.327 . S
C1066 C1085 1.429 . S
C1066 H1090 0.950 . S
C1067 C1084 1.574 . S
C1067 C1086 1.368 . S
C1067 H1091 0.949 . S
H1068 C1072 0.949 . S
C1069 C1070 1.349 . S
C1069 C1071 1.327 . S
C1069 H1092 0.950 . S
C1070 C1069 1.349 . S
C1070 C1082 1.349 . S
C1071 C1069 1.327 . S
C1071 C1087 1.429 . S
C1071 H1093 0.950 . S
C1072 H1068 0.949 . S
C1072 C1080 1.574 . S
C1072 C1088 1.368 . S
H1073 C1081 0.950 . S
H1074 C1079 0.950 . S
H1075 C1080 0.949 . S
H1076 C1082 0.950 . S
H1077 C1083 0.950 . S
H1078 C1084 0.949 . S
C1079 H1074 0.950 . S
C1079 C1081 1.327 . S
C1079 C1085 1.429 . S
C1080 C1072 1.574 . S
C1080 H1075 0.949 . S
C1080 C1086 1.368 . S
C1081 C1065 1.349 . S
C1081 H1073 0.950 . S
C1081 C1079 1.327 . S
C1082 C1070 1.349 . S
C1082 H1076 0.950 . S
C1082 C1083 1.327 . S
C1083 H1077 0.950 . S
C1083 C1082 1.327 . S
C1083 C1087 1.429 . S
C1084 C1067 1.574 . S
C1084 H1078 0.949 . S
C1084 C1088 1.368 . S
C1085 C1066 1.429 . S
C1085 C1079 1.429 . S
C1085 C1086 1.523 . S
C1086 C1067 1.368 . S
C1086 C1080 1.368 . S
C1086 C1085 1.523 . S
C1087 C1071 1.429 . S
C1087 C1083 1.429 . S
C1087 C1088 1.523 . S
C1088 C1072 1.368 . S
C1088 C1084 1.368 . S
C1088 C1087 1.523 . S
H1089 C1064 0.950 . S
H1090 C1066 0.950 . S
H1091 C1067 0.949 . S
H1092 C1069 0.950 . S
H1093 C1071 0.950 . S
C1094 C1095 1.349 . S
C1094 C1096 1.327 . S
C1094 H1119 0.950 . S
C1095 C1094 1.349 . S
C1095 C1111 1.349 . S
C1096 C1094 1.327 . S
C1096 C1115 1.429 . S
C1096 H1120 0.950 . S
C1097 C1114 1.574 . S
C1097 C1116 1.368 . S
C1097 H1121 0.949 . S
H1098 C1102 0.949 . S
C1099 C1100 1.349 . S
C1099 C1101 1.327 . S
C1099 H1122 0.950 . S
C1100 C1099 1.349 . S
C1100 C1112 1.349 . S
C1101 C1099 1.327 . S
C1101 C1117 1.429 . S
C1101 H1123 0.950 . S
C1102 H1098 0.949 . S
C1102 C1110 1.574 . S
C1102 C1118 1.368 . S
H1103 C1111 0.950 . S
H1104 C1109 0.950 . S
H1105 C1110 0.949 . S
H1106 C1112 0.950 . S
H1107 C1113 0.950 . S
H1108 C1114 0.949 . S
C1109 H1104 0.950 . S
C1109 C1111 1.327 . S
C1109 C1115 1.429 . S
C1110 C1102 1.574 . S
C1110 H1105 0.949 . S
C1110 C1116 1.368 . S
C1111 C1095 1.349 . S
C1111 H1103 0.950 . S
C1111 C1109 1.327 . S
C1112 C1100 1.349 . S
C1112 H1106 0.950 . S
C1112 C1113 1.327 . S
C1113 H1107 0.950 . S
C1113 C1112 1.327 . S
C1113 C1117 1.429 . S
C1114 C1097 1.574 . S
C1114 H1108 0.949 . S
C1114 C1118 1.368 . S
C1115 C1096 1.429 . S
C1115 C1109 1.429 . S
C1115 C1116 1.523 . S
C1116 C1097 1.368 . S
C1116 C1110 1.368 . S
C1116 C1115 1.523 . S
C1117 C1101 1.429 . S
C1117 C1113 1.429 . S
C1117 C1118 1.523 . S
C1118 C1102 1.368 . S
C1118 C1114 1.368 . S
C1118 C1117 1.523 . S
H1119 C1094 0.950 . S
H1120 C1096 0.950 . S
H1121 C1097 0.949 . S
H1122 C1099 0.950 . S
H1123 C1101 0.950 . S
C1124 C1125 1.349 . S
C1124 C1126 1.327 . S
C1124 H1149 0.950 . S
C1125 C1124 1.349 . S
C1125 C1141 1.349 . S
C1126 C1124 1.327 . S
C1126 C1145 1.429 . S
C1126 H1150 0.950 . S
C1127 C1144 1.574 . S
C1127 C1146 1.368 . S
C1127 H1151 0.949 . S
H1128 C1132 0.949 . S
C1129 C1130 1.349 . S
C1129 C1131 1.327 . S
C1129 H1152 0.950 . S
C1130 C1129 1.349 . S
C1130 C1142 1.349 . S
C1131 C1129 1.327 . S
C1131 C1147 1.429 . S
C1131 H1153 0.950 . S
C1132 H1128 0.949 . S
C1132 C1140 1.574 . S
C1132 C1148 1.368 . S
H1133 C1141 0.950 . S
H1134 C1139 0.950 . S
H1135 C1140 0.949 . S
H1136 C1142 0.950 . S
H1137 C1143 0.950 . S
H1138 C1144 0.949 . S
C1139 H1134 0.950 . S
C1139 C1141 1.327 . S
C1139 C1145 1.429 . S
C1140 C1132 1.574 . S
C1140 H1135 0.949 . S
C1140 C1146 1.368 . S
C1141 C1125 1.349 . S
C1141 H1133 0.950 . S
C1141 C1139 1.327 . S
C1142 C1130 1.349 . S
C1142 H1136 0.950 . S
C1142 C1143 1.327 . S
C1143 H1137 0.950 . S
C1143 C1142 1.327 . S
C1143 C1147 1.429 . S
C1144 C1127 1.574 . S
C1144 H1138 0.949 . S
C1144 C1148 1.368 . S
C1145 C1126 1.429 . S
C1145 C1139 1.429 . S
C1145 C1146 1.523 . S
C1146 C1127 1.368 . S
C1146 C1140 1.368 . S
C1146 C1145 1.523 . S
C1147 C1131 1.429 . S
C1147 C1143 1.429 . S
C1147 C1148 1.523 . S
C1148 C1132 1.368 . S
C1148 C1144 1.368 . S
C1148 C1147 1.523 . S
H1149 C1124 0.950 . S
H1150 C1126 0.950 . S
H1151 C1127 0.949 . S
H1152 C1129 0.950 . S
H1153 C1131 0.950 . S
C1154 C1155 1.349 . S
C1154 C1156 1.327 . S
C1154 H1179 0.950 . S
C1155 C1154 1.349 . S
C1155 C1171 1.349 . S
C1156 C1154 1.327 . S
C1156 C1175 1.429 . S
C1156 H1180 0.950 . S
C1157 C1174 1.574 . S
C1157 C1176 1.368 . S
C1157 H1181 0.949 . S
H1158 C1162 0.949 . S
C1159 C1160 1.349 . S
C1159 C1161 1.327 . S
C1159 H1182 0.950 . S
C1160 C1159 1.349 . S
C1160 C1172 1.349 . S
C1161 C1159 1.327 . S
C1161 C1177 1.429 . S
C1161 H1183 0.950 . S
C1162 H1158 0.949 . S
C1162 C1170 1.574 . S
C1162 C1178 1.368 . S
H1163 C1171 0.950 . S
H1164 C1169 0.950 . S
H1165 C1170 0.949 . S
H1166 C1172 0.950 . S
H1167 C1173 0.950 . S
H1168 C1174 0.949 . S
C1169 H1164 0.950 . S
C1169 C1171 1.327 . S
C1169 C1175 1.429 . S
C1170 C1162 1.574 . S
C1170 H1165 0.949 . S
C1170 C1176 1.368 . S
C1171 C1155 1.349 . S
C1171 H1163 0.950 . S
C1171 C1169 1.327 . S
C1172 C1160 1.349 . S
C1172 H1166 0.950 . S
C1172 C1173 1.327 . S
C1173 H1167 0.950 . S
C1173 C1172 1.327 . S
C1173 C1177 1.429 . S
C1174 C1157 1.574 . S
C1174 H1168 0.949 . S
C1174 C1178 1.368 . S
C1175 C1156 1.429 . S
C1175 C1169 1.429 . S
C1175 C1176 1.523 . S
C1176 C1157 1.368 . S
C1176 C1170 1.368 . S
C1176 C1175 1.523 . S
C1177 C1161 1.429 . S
C1177 C1173 1.429 . S
C1177 C1178 1.523 . S
C1178 C1162 1.368 . S
C1178 C1174 1.368 . S
C1178 C1177 1.523 . S
H1179 C1154 0.950 . S
H1180 C1156 0.950 . S
H1181 C1157 0.949 . S
H1182 C1159 0.950 . S
H1183 C1161 0.950 . S
C1184 C1185 1.349 . S
C1184 C1186 1.327 . S
C1184 H1209 0.950 . S
C1185 C1184 1.349 . S
C1185 C1201 1.349 . S
C1186 C1184 1.327 . S
C1186 C1205 1.429 . S
C1186 H1210 0.950 . S
C1187 C1204 1.574 . S
C1187 C1206 1.368 1_554 S
C1187 H1211 0.949 . S
H1188 C1192 0.949 . S
C1189 C1190 1.349 . S
C1189 C1191 1.327 . S
C1189 H1212 0.950 . S
C1190 C1189 1.349 . S
C1190 C1202 1.349 . S
C1191 C1189 1.327 . S
C1191 C1207 1.429 . S
C1191 H1213 0.950 . S
C1192 H1188 0.949 . S
C1192 C1200 1.574 . S
C1192 C1208 1.368 1_556 S
H1193 C1201 0.950 . S
H1194 C1199 0.950 1_554 S
H1195 C1200 0.949 . S
H1196 C1202 0.932 1_556 S
H1197 C1203 0.923 1_556 S
H1198 C1204 0.949 . S
C1199 H1194 0.950 1_556 S
C1199 C1201 1.327 . S
C1199 C1205 1.429 . S
C1200 C1192 1.574 . S
C1200 H1195 0.949 . S
C1200 C1206 1.368 . S
C1201 C1185 1.349 . S
C1201 H1193 0.950 . S
C1201 C1199 1.327 . S
C1202 C1190 1.349 . S
C1202 H1196 0.932 1_554 S
C1202 C1203 1.337 . S
C1203 H1197 0.923 1_554 S
C1203 C1202 1.337 . S
C1203 C1207 1.445 . S
C1204 C1187 1.574 . S
C1204 H1198 0.949 . S
C1204 C1208 1.368 . S
C1205 C1186 1.429 . S
C1205 C1199 1.429 . S
C1205 C1206 1.523 . S
C1206 C1187 1.368 1_556 S
C1206 C1200 1.368 . S
C1206 C1205 1.523 . S
C1207 C1191 1.429 . S
C1207 C1203 1.445 . S
C1207 C1208 1.523 . S
C1208 C1192 1.368 1_554 S
C1208 C1204 1.368 . S
C1208 C1207 1.523 . S
H1209 C1184 0.950 . S
H1210 C1186 0.950 . S
H1211 C1187 0.949 . S
H1212 C1189 0.950 . S
H1213 C1191 0.950 . S
C1214 C1215 1.349 . S
C1214 C1216 1.327 . S
C1214 H1239 0.950 . S
C1215 C1214 1.349 . S
C1215 C1231 1.349 . S
C1216 C1214 1.327 . S
C1216 C1235 1.429 . S
C1216 H1240 0.950 1_556 S
C1217 C1234 1.574 . S
C1217 C1236 1.368 . S
C1217 H1241 0.949 . S
H1218 C1222 0.949 . S
C1219 C1220 1.349 . S
C1219 C1221 1.327 . S
C1219 H1242 0.950 . S
C1220 C1219 1.349 . S
C1220 C1232 1.349 . S
C1221 C1219 1.327 . S
C1221 C1237 1.429 . S
C1221 H1243 0.950 1_554 S
C1222 H1218 0.949 . S
C1222 C1230 1.574 . S
C1222 C1238 1.368 . S
H1223 C1231 0.950 . S
H1224 C1229 0.950 . S
H1225 C1230 0.949 . S
H1226 C1232 0.950 . S
H1227 C1233 0.950 . S
H1228 C1234 0.949 . S
C1229 H1224 0.950 . S
C1229 C1231 1.327 . S
C1229 C1235 1.429 . S
C1230 C1222 1.574 . S
C1230 H1225 0.949 . S
C1230 C1236 1.368 1_554 S
C1231 C1215 1.349 . S
C1231 H1223 0.950 . S
C1231 C1229 1.327 . S
C1232 C1220 1.349 . S
C1232 H1226 0.950 . S
C1232 C1233 1.327 . S
C1233 H1227 0.950 . S
C1233 C1232 1.327 . S
C1233 C1237 1.429 . S
C1234 C1217 1.574 . S
C1234 H1228 0.949 . S
C1234 C1238 1.368 1_556 S
C1235 C1216 1.429 . S
C1235 C1229 1.429 . S
C1235 C1236 1.523 . S
C1236 C1217 1.368 . S
C1236 C1230 1.368 1_556 S
C1236 C1235 1.523 . S
C1237 C1221 1.429 . S
C1237 C1233 1.429 . S
C1237 C1238 1.523 . S
C1238 C1222 1.368 . S
C1238 C1234 1.368 1_554 S
C1238 C1237 1.523 . S
H1239 C1214 0.950 . S
H1240 C1216 0.950 1_554 S
H1241 C1217 0.949 . S
H1242 C1219 0.950 . S
H1243 C1221 0.950 1_556 S
C1244 C1245 1.349 . S
C1244 C1246 1.327 . S
C1244 H1269 0.950 . S
C1245 C1244 1.349 . S
C1245 C1261 1.349 . S
C1246 C1244 1.327 . S
C1246 C1265 1.429 . S
C1246 H1270 0.950 . S
C1247 C1264 1.574 1_556 S
C1247 C1266 1.368 . S
C1247 H1271 0.949 . S
H1248 C1252 0.949 . S
C1249 C1250 1.349 . S
C1249 C1251 1.327 . S
C1249 H1272 0.950 . S
C1250 C1249 1.349 . S
C1250 C1262 1.349 . S
C1251 C1249 1.327 . S
C1251 C1267 1.429 . S
C1251 H1273 0.950 . S
C1252 H1248 0.949 . S
C1252 C1260 1.574 . S
C1252 C1268 1.368 1_556 S
H1253 C1261 0.950 . S
H1254 C1259 0.950 . S
H1255 C1260 0.949 . S
H1256 C1262 0.950 . S
H1257 C1263 0.950 . S
H1258 C1264 0.949 . S
C1259 H1254 0.950 . S
C1259 C1261 1.327 . S
C1259 C1265 1.429 . S
C1260 C1252 1.574 . S
C1260 H1255 0.949 . S
C1260 C1266 1.368 . S
C1261 C1245 1.349 . S
C1261 H1253 0.950 . S
C1261 C1259 1.327 . S
C1262 C1250 1.349 . S
C1262 H1256 0.950 . S
C1262 C1263 1.327 . S
C1263 H1257 0.950 . S
C1263 C1262 1.327 . S
C1263 C1267 1.429 . S
C1264 C1247 1.574 1_554 S
C1264 H1258 0.949 . S
C1264 C1268 1.368 . S
C1265 C1246 1.429 . S
C1265 C1259 1.429 . S
C1265 C1266 1.523 . S
C1266 C1247 1.368 . S
C1266 C1260 1.368 . S
C1266 C1265 1.523 . S
C1267 C1251 1.429 . S
C1267 C1263 1.429 . S
C1267 C1268 1.523 . S
C1268 C1252 1.368 1_554 S
C1268 C1264 1.368 . S
C1268 C1267 1.523 . S
H1269 C1244 0.950 . S
H1270 C1246 0.950 . S
H1271 C1247 0.949 . S
H1272 C1249 0.950 . S
H1273 C1251 0.950 . S
C1274 C1275 1.349 . S
C1274 C1276 1.327 . S
C1274 H1299 0.950 . S
C1275 C1274 1.349 . S
C1275 C1291 1.349 . S
C1276 C1274 1.327 . S
C1276 C1295 1.429 . S
C1276 H1300 0.950 . S
C1277 C1294 1.581 . S
C1277 C1296 1.368 . S
C1277 H1301 0.949 . S
H1278 C1282 0.949 . S
C1279 C1280 1.349 . S
C1279 C1281 1.327 . S
C1279 H1302 0.950 . S
C1280 C1279 1.349 . S
C1280 C1292 1.349 . S
C1281 C1279 1.327 . S
C1281 C1297 1.429 . S
C1281 H1303 0.950 . S
C1282 H1278 0.949 . S
C1282 C1290 1.574 . S
C1282 C1298 1.368 . S
H1283 C1291 0.950 . S
H1284 C1289 0.950 . S
H1285 C1290 0.949 . S
H1286 C1292 0.950 . S
H1287 C1293 0.950 . S
H1288 C1294 0.951 . S
C1289 H1284 0.950 . S
C1289 C1291 1.327 . S
C1289 C1295 1.429 . S
C1290 C1282 1.574 . S
C1290 H1285 0.949 . S
C1290 C1296 1.368 1_556 S
C1291 C1275 1.349 . S
C1291 H1283 0.950 . S
C1291 C1289 1.327 . S
C1292 C1280 1.349 . S
C1292 H1286 0.950 . S
C1292 C1293 1.327 . S
C1293 H1287 0.950 . S
C1293 C1292 1.327 . S
C1293 C1297 1.429 . S
C1294 C1277 1.581 . S
C1294 H1288 0.951 . S
C1294 C1298 1.359 1_554 S
C1295 C1276 1.429 . S
C1295 C1289 1.429 . S
C1295 C1296 1.523 . S
C1296 C1277 1.368 . S
C1296 C1290 1.368 1_554 S
C1296 C1295 1.523 . S
C1297 C1281 1.429 . S
C1297 C1293 1.429 . S
C1297 C1298 1.523 . S
C1298 C1282 1.368 . S
C1298 C1294 1.359 1_556 S
C1298 C1297 1.523 . S
H1299 C1274 0.950 . S
H1300 C1276 0.950 . S
H1301 C1277 0.949 . S
H1302 C1279 0.950 . S
H1303 C1281 0.950 . S
C1304 C1305 1.349 . S
C1304 C1306 1.327 . S
C1304 H1329 0.950 . S
C1305 C1304 1.349 . S
C1305 C1321 1.349 . S
C1306 C1304 1.327 . S
C1306 C1325 1.429 . S
C1306 H1330 0.950 . S
C1307 C1324 1.574 . S
C1307 C1326 1.368 . S
C1307 H1331 0.949 . S
H1308 C1312 0.949 . S
C1309 C1310 1.349 . S
C1309 C1311 1.327 . S
C1309 H1332 0.950 . S
C1310 C1309 1.349 . S
C1310 C1322 1.349 . S
C1311 C1309 1.327 . S
C1311 C1327 1.429 . S
C1311 H1333 0.950 . S
C1312 H1308 0.949 . S
C1312 C1320 1.574 . S
C1312 C1328 1.368 . S
H1313 C1321 0.950 . S
H1314 C1319 0.950 . S
H1315 C1320 0.949 . S
H1316 C1322 0.950 . S
H1317 C1323 0.950 . S
H1318 C1324 0.949 . S
C1319 H1314 0.950 . S
C1319 C1321 1.327 . S
C1319 C1325 1.429 . S
C1320 C1312 1.574 . S
C1320 H1315 0.949 . S
C1320 C1326 1.368 . S
C1321 C1305 1.349 . S
C1321 H1313 0.950 . S
C1321 C1319 1.327 . S
C1322 C1310 1.349 . S
C1322 H1316 0.950 . S
C1322 C1323 1.327 . S
C1323 H1317 0.950 . S
C1323 C1322 1.327 . S
C1323 C1327 1.429 . S
C1324 C1307 1.574 . S
C1324 H1318 0.949 . S
C1324 C1328 1.368 . S
C1325 C1306 1.429 . S
C1325 C1319 1.429 . S
C1325 C1326 1.523 . S
C1326 C1307 1.368 . S
C1326 C1320 1.368 . S
C1326 C1325 1.523 . S
C1327 C1311 1.429 . S
C1327 C1323 1.429 . S
C1327 C1328 1.523 . S
C1328 C1312 1.368 . S
C1328 C1324 1.368 . S
C1328 C1327 1.523 . S
H1329 C1304 0.950 . S
H1330 C1306 0.950 . S
H1331 C1307 0.949 . S
H1332 C1309 0.950 . S
H1333 C1311 0.950 . S
C1334 C1335 1.349 . S
C1334 C1336 1.327 . S
C1334 H1359 0.950 . S
C1335 C1334 1.349 . S
C1335 C1351 1.349 . S
C1336 C1334 1.327 . S
C1336 C1355 1.429 . S
C1336 H1360 0.950 . S
C1337 C1354 1.574 . S
C1337 C1356 1.368 . S
C1337 H1361 0.949 . S
H1338 C1342 0.949 . S
C1339 C1340 1.349 . S
C1339 C1341 1.327 . S
C1339 H1362 0.950 . S
C1340 C1339 1.349 . S
C1340 C1352 1.349 . S
C1341 C1339 1.327 . S
C1341 C1357 1.429 . S
C1341 H1363 0.950 . S
C1342 H1338 0.949 . S
C1342 C1350 1.574 . S
C1342 C1358 1.368 . S
H1343 C1351 0.950 . S
H1344 C1349 0.950 . S
H1345 C1350 0.949 . S
H1346 C1352 0.950 . S
H1347 C1353 0.950 . S
H1348 C1354 0.949 . S
C1349 H1344 0.950 . S
C1349 C1351 1.327 . S
C1349 C1355 1.429 . S
C1350 C1342 1.574 . S
C1350 H1345 0.949 . S
C1350 C1356 1.368 . S
C1351 C1335 1.349 . S
C1351 H1343 0.950 . S
C1351 C1349 1.327 . S
C1352 C1340 1.349 . S
C1352 H1346 0.950 . S
C1352 C1353 1.327 . S
C1353 H1347 0.950 . S
C1353 C1352 1.327 . S
C1353 C1357 1.429 . S
C1354 C1337 1.574 . S
C1354 H1348 0.949 . S
C1354 C1358 1.368 . S
C1355 C1336 1.429 . S
C1355 C1349 1.429 . S
C1355 C1356 1.523 . S
C1356 C1337 1.368 . S
C1356 C1350 1.368 . S
C1356 C1355 1.523 . S
C1357 C1341 1.429 . S
C1357 C1353 1.429 . S
C1357 C1358 1.523 . S
C1358 C1342 1.368 . S
C1358 C1354 1.368 . S
C1358 C1357 1.523 . S
H1359 C1334 0.950 . S
H1360 C1336 0.950 . S
H1361 C1337 0.949 . S
H1362 C1339 0.950 . S
H1363 C1341 0.950 . S
C1364 C1365 1.349 . S
C1364 C1366 1.327 . S
C1364 H1389 0.950 . S
C1365 C1364 1.349 . S
C1365 C1381 1.349 . S
C1366 C1364 1.327 . S
C1366 C1385 1.429 . S
C1366 H1390 0.950 . S
C1367 C1384 1.574 . S
C1367 C1386 1.368 . S
C1367 H1391 0.949 . S
H1368 C1372 0.949 . S
C1369 C1370 1.349 . S
C1369 C1371 1.327 . S
C1369 H1392 0.950 . S
C1370 C1369 1.349 . S
C1370 C1382 1.349 . S
C1371 C1369 1.327 . S
C1371 C1387 1.429 . S
C1371 H1393 0.950 . S
C1372 H1368 0.949 . S
C1372 C1380 1.574 . S
C1372 C1388 1.368 . S
H1373 C1381 0.950 . S
H1374 C1379 0.950 . S
H1375 C1380 0.949 . S
H1376 C1382 0.950 . S
H1377 C1383 0.950 . S
H1378 C1384 0.949 . S
C1379 H1374 0.950 . S
C1379 C1381 1.327 . S
C1379 C1385 1.429 . S
C1380 C1372 1.574 . S
C1380 H1375 0.949 . S
C1380 C1386 1.368 . S
C1381 C1365 1.349 . S
C1381 H1373 0.950 . S
C1381 C1379 1.327 . S
C1382 C1370 1.349 . S
C1382 H1376 0.950 . S
C1382 C1383 1.327 . S
C1383 H1377 0.950 . S
C1383 C1382 1.327 . S
C1383 C1387 1.429 . S
C1384 C1367 1.574 . S
C1384 H1378 0.949 . S
C1384 C1388 1.368 . S
C1385 C1366 1.429 . S
C1385 C1379 1.429 . S
C1385 C1386 1.523 . S
C1386 C1367 1.368 . S
C1386 C1380 1.368 . S
C1386 C1385 1.523 . S
C1387 C1371 1.429 . S
C1387 C1383 1.429 . S
C1387 C1388 1.523 . S
C1388 C1372 1.368 . S
C1388 C1384 1.368 . S
C1388 C1387 1.523 . S
H1389 C1364 0.950 . S
H1390 C1366 0.950 . S
H1391 C1367 0.949 . S
H1392 C1369 0.950 . S
H1393 C1371 0.950 . S
C1394 C1395 1.349 . S
C1394 C1396 1.327 . S
C1394 H1419 0.950 . S
C1395 C1394 1.349 . S
C1395 C1411 1.349 . S
C1396 C1394 1.327 . S
C1396 C1415 1.429 . S
C1396 H1420 0.950 . S
C1397 C1414 1.574 . S
C1397 C1416 1.368 . S
C1397 H1421 0.949 . S
H1398 C1402 0.949 . S
C1399 C1400 1.349 . S
C1399 C1401 1.327 . S
C1399 H1422 0.950 . S
C1400 C1399 1.349 . S
C1400 C1412 1.349 . S
C1401 C1399 1.327 . S
C1401 C1417 1.429 . S
C1401 H1423 0.950 . S
C1402 H1398 0.949 . S
C1402 C1410 1.574 . S
C1402 C1418 1.368 . S
H1403 C1411 0.950 . S
H1404 C1409 0.950 . S
H1405 C1410 0.949 . S
H1406 C1412 0.950 . S
H1407 C1413 0.950 . S
H1408 C1414 0.949 . S
C1409 H1404 0.950 . S
C1409 C1411 1.327 . S
C1409 C1415 1.429 . S
C1410 C1402 1.574 . S
C1410 H1405 0.949 . S
C1410 C1416 1.368 . S
C1411 C1395 1.349 . S
C1411 H1403 0.950 . S
C1411 C1409 1.327 . S
C1412 C1400 1.349 . S
C1412 H1406 0.950 . S
C1412 C1413 1.327 . S
C1413 H1407 0.950 . S
C1413 C1412 1.327 . S
C1413 C1417 1.429 . S
C1414 C1397 1.574 . S
C1414 H1408 0.949 . S
C1414 C1418 1.368 . S
C1415 C1396 1.429 . S
C1415 C1409 1.429 . S
C1415 C1416 1.523 . S
C1416 C1397 1.368 . S
C1416 C1410 1.368 . S
C1416 C1415 1.523 . S
C1417 C1401 1.429 . S
C1417 C1413 1.429 . S
C1417 C1418 1.523 . S
C1418 C1402 1.368 . S
C1418 C1414 1.368 . S
C1418 C1417 1.523 . S
H1419 C1394 0.950 . S
H1420 C1396 0.950 . S
H1421 C1397 0.949 . S
H1422 C1399 0.950 . S
H1423 C1401 0.950 . S
C1424 C1425 1.349 . S
C1424 C1426 1.327 . S
C1424 H1449 0.950 . S
C1425 C1424 1.349 . S
C1425 C1441 1.349 . S
C1426 C1424 1.327 . S
C1426 C1445 1.429 . S
C1426 H1450 0.950 . S
C1427 C1444 1.569 1_566 S
C1427 C1446 1.368 . S
C1427 H1451 0.949 . S
H1428 C1432 0.949 . S
C1429 C1430 1.349 . S
C1429 C1431 1.327 . S
C1429 H1452 0.950 . S
C1430 C1429 1.349 . S
C1430 C1442 1.349 . S
C1431 C1429 1.327 . S
C1431 C1447 1.429 . S
C1431 H1453 0.950 . S
C1432 H1428 0.949 . S
C1432 C1440 1.569 1_544 S
C1432 C1448 1.368 . S
H1433 C1441 0.950 . S
H1434 C1439 0.950 . S
H1435 C1440 0.949 . S
H1436 C1442 0.950 . S
H1437 C1443 0.950 . S
H1438 C1444 0.949 . S
C1439 H1434 0.950 . S
C1439 C1441 1.327 . S
C1439 C1445 1.429 . S
C1440 C1432 1.569 1_566 S
C1440 H1435 0.949 . S
C1440 C1446 1.373 . S
C1441 C1425 1.349 . S
C1441 H1433 0.950 . S
C1441 C1439 1.327 . S
C1442 C1430 1.349 . S
C1442 H1436 0.950 . S
C1442 C1443 1.327 . S
C1443 H1437 0.950 . S
C1443 C1442 1.327 . S
C1443 C1447 1.429 . S
C1444 C1427 1.569 1_544 S
C1444 H1438 0.949 . S
C1444 C1448 1.373 . S
C1445 C1426 1.429 . S
C1445 C1439 1.429 . S
C1445 C1446 1.523 . S
C1446 C1427 1.368 . S
C1446 C1440 1.373 . S
C1446 C1445 1.523 . S
C1447 C1431 1.429 . S
C1447 C1443 1.429 . S
C1447 C1448 1.523 . S
C1448 C1432 1.368 . S
C1448 C1444 1.373 . S
C1448 C1447 1.523 . S
H1449 C1424 0.950 . S
H1450 C1426 0.950 . S
H1451 C1427 0.949 . S
H1452 C1429 0.950 . S
H1453 C1431 0.950 . S
C1454 C1455 1.349 . S
C1454 C1456 1.327 . S
C1454 H1479 0.950 . S
C1455 C1454 1.349 . S
C1455 C1471 1.349 . S
C1456 C1454 1.327 . S
C1456 C1475 1.429 . S
C1456 H1480 0.950 . S
C1457 C1474 1.571 1_554 S
C1457 C1476 1.368 . S
C1457 H1481 0.949 . S
H1458 C1462 0.949 . S
C1459 C1460 1.349 . S
C1459 C1461 1.327 . S
C1459 H1482 0.950 . S
C1460 C1459 1.349 . S
C1460 C1472 1.349 . S
C1461 C1459 1.327 . S
C1461 C1477 1.429 . S
C1461 H1483 0.950 . S
C1462 H1458 0.949 . S
C1462 C1470 1.571 1_556 S
C1462 C1478 1.368 . S
H1463 C1471 0.950 . S
H1464 C1469 0.950 . S
H1465 C1470 0.949 . S
H1466 C1472 0.950 . S
H1467 C1473 0.950 . S
H1468 C1474 0.949 . S
C1469 H1464 0.950 . S
C1469 C1471 1.327 . S
C1469 C1475 1.429 . S
C1470 C1462 1.571 1_554 S
C1470 H1465 0.949 . S
C1470 C1476 1.371 . S
C1471 C1455 1.349 . S
C1471 H1463 0.950 . S
C1471 C1469 1.327 . S
C1472 C1460 1.349 . S
C1472 H1466 0.950 . S
C1472 C1473 1.327 . S
C1473 H1467 0.950 . S
C1473 C1472 1.327 . S
C1473 C1477 1.429 . S
C1474 C1457 1.571 1_556 S
C1474 H1468 0.949 . S
C1474 C1478 1.371 . S
C1475 C1456 1.429 . S
C1475 C1469 1.429 . S
C1475 C1476 1.523 . S
C1476 C1457 1.368 . S
C1476 C1470 1.371 . S
C1476 C1475 1.523 . S
C1477 C1461 1.429 . S
C1477 C1473 1.429 . S
C1477 C1478 1.523 . S
C1478 C1462 1.368 . S
C1478 C1474 1.371 . S
C1478 C1477 1.523 . S
H1479 C1454 0.950 . S
H1480 C1456 0.950 . S
H1481 C1457 0.949 . S
H1482 C1459 0.950 . S
H1483 C1461 0.950 . S
C1484 C1485 1.349 . S
C1484 C1486 1.327 . S
C1484 H1509 0.950 . S
C1485 C1484 1.349 . S
C1485 C1501 1.349 1_455 S
C1486 C1484 1.327 . S
C1486 C1505 1.429 . S
C1486 H1510 0.950 . S
C1487 C1504 1.574 . S
C1487 C1506 1.368 1_654 S
C1487 H1511 0.949 . S
H1488 C1492 0.949 . S
C1489 C1490 1.349 . S
C1489 C1491 1.327 . S
C1489 H1512 0.950 . S
C1490 C1489 1.349 . S
C1490 C1502 1.349 1_655 S
C1491 C1489 1.327 . S
C1491 C1507 1.429 . S
C1491 H1513 0.950 . S
C1492 H1488 0.949 . S
C1492 C1500 1.574 . S
C1492 C1508 1.368 1_456 S
H1493 C1501 0.950 . S
H1494 C1499 0.950 . S
H1495 C1500 0.949 . S
H1496 C1502 0.950 . S
H1497 C1503 0.950 . S
H1498 C1504 0.949 . S
C1499 H1494 0.950 . S
C1499 C1501 1.327 . S
C1499 C1505 1.429 1_655 S
C1500 C1492 1.574 . S
C1500 H1495 0.949 . S
C1500 C1506 1.368 . S
C1501 C1485 1.349 1_655 S
C1501 H1493 0.950 . S
C1501 C1499 1.327 . S
C1502 C1490 1.349 1_455 S
C1502 H1496 0.950 . S
C1502 C1503 1.327 . S
C1503 H1497 0.950 . S
C1503 C1502 1.327 . S
C1503 C1507 1.429 1_455 S
C1504 C1487 1.574 . S
C1504 H1498 0.949 . S
C1504 C1508 1.368 . S
C1505 C1486 1.429 . S
C1505 C1499 1.429 1_455 S
C1505 C1506 1.523 . S
C1506 C1487 1.368 1_456 S
C1506 C1500 1.368 . S
C1506 C1505 1.523 . S
C1507 C1491 1.429 . S
C1507 C1503 1.429 1_655 S
C1507 C1508 1.523 . S
C1508 C1492 1.368 1_654 S
C1508 C1504 1.368 . S
C1508 C1507 1.523 . S
H1509 C1484 0.950 . S
H1510 C1486 0.950 . S
H1511 C1487 0.949 . S
H1512 C1489 0.950 . S
H1513 C1491 0.950 . S
C1514 C1515 1.349 1_545 S
C1514 C1516 1.327 . S
C1514 H1539 0.950 . S
C1515 C1514 1.349 1_565 S
C1515 C1531 1.349 . S
C1516 C1514 1.327 . S
C1516 C1535 1.429 1_545 S
C1516 H1540 0.950 . S
C1517 C1534 1.574 1_455 S
C1517 C1536 1.368 1_556 S
C1517 H1541 0.949 . S
H1518 C1522 0.949 . S
C1519 C1520 1.349 1_565 S
C1519 C1521 1.327 . S
C1519 H1542 0.950 . S
C1520 C1519 1.349 1_545 S
C1520 C1532 1.349 . S
C1521 C1519 1.327 . S
C1521 C1537 1.429 1_565 S
C1521 H1543 0.950 . S
C1522 H1518 0.949 . S
C1522 C1530 1.574 1_655 S
C1522 C1538 1.368 1_554 S
H1523 C1531 0.950 . S
H1524 C1529 0.950 1_556 S
H1525 C1530 0.949 . S
H1526 C1532 0.950 . S
H1527 C1533 0.950 1_554 S
H1528 C1534 0.949 . S
C1529 H1524 0.950 1_554 S
C1529 C1531 1.327 . S
C1529 C1535 1.429 . S
C1530 C1522 1.574 1_455 S
C1530 H1525 0.949 . S
C1530 C1536 1.368 1_545 S
C1531 C1515 1.349 . S
C1531 H1523 0.950 . S
C1531 C1529 1.327 . S
C1532 C1520 1.349 . S
C1532 H1526 0.950 . S
C1532 C1533 1.327 . S
C1533 H1527 0.950 1_556 S
C1533 C1532 1.327 . S
C1533 C1537 1.429 . S
C1534 C1517 1.574 1_655 S
C1534 H1528 0.949 . S
C1534 C1538 1.368 1_565 S
C1535 C1516 1.429 1_565 S
C1535 C1529 1.429 . S
C1535 C1536 1.523 . S
C1536 C1517 1.368 1_554 S
C1536 C1530 1.368 1_565 S
C1536 C1535 1.523 . S
C1537 C1521 1.429 1_545 S
C1537 C1533 1.429 . S
C1537 C1538 1.523 . S
C1538 C1522 1.368 1_556 S
C1538 C1534 1.368 1_545 S
C1538 C1537 1.523 . S
H1539 C1514 0.950 . S
H1540 C1516 0.950 . S
H1541 C1517 0.949 . S
H1542 C1519 0.950 . S
H1543 C1521 0.950 . S
C1544 C1545 1.349 . S
C1544 C1546 1.327 . S
C1544 H1569 0.950 . S
C1545 C1544 1.349 . S
C1545 C1561 1.349 . S
C1546 C1544 1.327 . S
C1546 C1565 1.429 . S
C1546 H1570 0.950 . S
C1547 C1564 1.574 . S
C1547 C1566 1.368 . S
C1547 H1571 0.949 . S
H1548 C1552 0.949 . S
C1549 C1550 1.349 . S
C1549 C1551 1.327 . S
C1549 H1572 0.950 . S
C1550 C1549 1.349 . S
C1550 C1562 1.349 . S
C1551 C1549 1.327 . S
C1551 C1567 1.429 . S
C1551 H1573 0.950 . S
C1552 H1548 0.949 . S
C1552 C1560 1.574 . S
C1552 C1568 1.368 . S
H1553 C1561 0.950 . S
H1554 C1559 0.950 . S
H1555 C1560 0.949 . S
H1556 C1562 0.950 . S
H1557 C1563 0.950 . S
H1558 C1564 0.949 . S
C1559 H1554 0.950 . S
C1559 C1561 1.327 . S
C1559 C1565 1.429 . S
C1560 C1552 1.574 . S
C1560 H1555 0.949 . S
C1560 C1566 1.368 . S
C1561 C1545 1.349 . S
C1561 H1553 0.950 . S
C1561 C1559 1.327 . S
C1562 C1550 1.349 . S
C1562 H1556 0.950 . S
C1562 C1563 1.327 . S
C1563 H1557 0.950 . S
C1563 C1562 1.327 . S
C1563 C1567 1.429 . S
C1564 C1547 1.574 . S
C1564 H1558 0.949 . S
C1564 C1568 1.368 . S
C1565 C1546 1.429 . S
C1565 C1559 1.429 . S
C1565 C1566 1.523 . S
C1566 C1547 1.368 . S
C1566 C1560 1.368 . S
C1566 C1565 1.523 . S
C1567 C1551 1.429 . S
C1567 C1563 1.429 . S
C1567 C1568 1.523 . S
C1568 C1552 1.368 . S
C1568 C1564 1.368 . S
C1568 C1567 1.523 . S
H1569 C1544 0.950 . S
H1570 C1546 0.950 . S
H1571 C1547 0.949 . S
H1572 C1549 0.950 . S
H1573 C1551 0.950 . S
C1574 C1575 1.349 . S
C1574 C1576 1.327 . S
C1574 H1599 0.950 . S
C1575 C1574 1.349 . S
C1575 C1591 1.349 . S
C1576 C1574 1.327 . S
C1576 C1595 1.429 . S
C1576 H1600 0.950 . S
C1577 C1594 1.574 1_455 S
C1577 C1596 1.368 . S
C1577 H1601 0.949 . S
H1578 C1582 0.949 . S
C1579 C1580 1.349 . S
C1579 C1581 1.327 . S
C1579 H1602 0.950 . S
C1580 C1579 1.349 . S
C1580 C1592 1.349 . S
C1581 C1579 1.327 . S
C1581 C1597 1.429 . S
C1581 H1603 0.950 . S
C1582 H1578 0.949 . S
C1582 C1590 1.574 1_655 S
C1582 C1598 1.368 . S
H1583 C1591 0.950 . S
H1584 C1589 0.950 . S
H1585 C1590 0.949 . S
H1586 C1592 0.950 . S
H1587 C1593 0.950 . S
H1588 C1594 0.949 . S
C1589 H1584 0.950 . S
C1589 C1591 1.327 . S
C1589 C1595 1.429 . S
C1590 C1582 1.574 1_455 S
C1590 H1585 0.949 . S
C1590 C1596 1.368 . S
C1591 C1575 1.349 . S
C1591 H1583 0.950 . S
C1591 C1589 1.327 . S
C1592 C1580 1.349 . S
C1592 H1586 0.950 . S
C1592 C1593 1.327 . S
C1593 H1587 0.950 . S
C1593 C1592 1.327 . S
C1593 C1597 1.429 . S
C1594 C1577 1.574 1_655 S
C1594 H1588 0.949 . S
C1594 C1598 1.368 . S
C1595 C1576 1.429 . S
C1595 C1589 1.429 . S
C1595 C1596 1.523 . S
C1596 C1577 1.368 . S
C1596 C1590 1.368 . S
C1596 C1595 1.523 . S
C1597 C1581 1.429 . S
C1597 C1593 1.429 . S
C1597 C1598 1.523 . S
C1598 C1582 1.368 . S
C1598 C1594 1.368 . S
C1598 C1597 1.523 . S
H1599 C1574 0.950 . S
H1600 C1576 0.950 . S
H1601 C1577 0.949 . S
H1602 C1579 0.950 . S
H1603 C1581 0.950 . S
C1604 C1605 1.349 1_655 S
C1604 C1606 1.327 . S
C1604 H1629 0.950 . S
C1605 C1604 1.349 1_455 S
C1605 C1621 1.349 . S
C1606 C1604 1.327 . S
C1606 C1625 1.429 1_655 S
C1606 H1630 0.950 . S
C1607 C1624 1.574 1_565 S
C1607 C1626 1.368 . S
C1607 H1631 0.949 . S
H1608 C1612 0.949 . S
C1609 C1610 1.349 1_455 S
C1609 C1611 1.327 . S
C1609 H1632 0.950 . S
C1610 C1609 1.349 1_655 S
C1610 C1622 1.349 . S
C1611 C1609 1.327 . S
C1611 C1627 1.429 1_455 S
C1611 H1633 0.950 . S
C1612 H1608 0.949 . S
C1612 C1620 1.574 1_545 S
C1612 C1628 1.368 . S
H1613 C1621 0.950 . S
H1614 C1619 0.950 . S
H1615 C1620 0.949 . S
H1616 C1622 0.950 . S
H1617 C1623 0.950 . S
H1618 C1624 0.949 . S
C1619 H1614 0.950 . S
C1619 C1621 1.327 . S
C1619 C1625 1.429 . S
C1620 C1612 1.574 1_565 S
C1620 H1615 0.949 . S
C1620 C1626 1.368 1_655 S
C1621 C1605 1.349 . S
C1621 H1613 0.950 . S
C1621 C1619 1.327 . S
C1622 C1610 1.349 . S
C1622 H1616 0.950 . S
C1622 C1623 1.327 . S
C1623 H1617 0.950 . S
C1623 C1622 1.327 . S
C1623 C1627 1.429 . S
C1624 C1607 1.574 1_545 S
C1624 H1618 0.949 . S
C1624 C1628 1.368 1_455 S
C1625 C1606 1.429 1_455 S
C1625 C1619 1.429 . S
C1625 C1626 1.523 . S
C1626 C1607 1.368 . S
C1626 C1620 1.368 1_455 S
C1626 C1625 1.523 . S
C1627 C1611 1.429 1_655 S
C1627 C1623 1.429 . S
C1627 C1628 1.523 . S
C1628 C1612 1.368 . S
C1628 C1624 1.368 1_655 S
C1628 C1627 1.523 . S
H1629 C1604 0.950 . S
H1630 C1606 0.950 . S
H1631 C1607 0.949 . S
H1632 C1609 0.950 . S
H1633 C1611 0.950 . S
C1634 C1635 1.349 . S
C1634 C1636 1.327 . S
C1634 H1659 0.950 . S
C1635 C1634 1.349 . S
C1635 C1651 1.349 1_545 S
C1636 C1634 1.327 . S
C1636 C1655 1.429 . S
C1636 H1660 0.950 . S
C1637 C1654 1.574 . S
C1637 C1656 1.368 1_565 S
C1637 H1661 0.949 . S
H1638 C1642 0.949 . S
C1639 C1640 1.349 . S
C1639 C1641 1.327 . S
C1639 H1662 0.950 . S
C1640 C1639 1.349 . S
C1640 C1652 1.349 1_565 S
C1641 C1639 1.327 . S
C1641 C1657 1.429 . S
C1641 H1663 0.950 . S
C1642 H1638 0.949 . S
C1642 C1650 1.574 . S
C1642 C1658 1.368 1_545 S
H1643 C1651 0.950 . S
H1644 C1649 0.950 . S
H1645 C1650 0.949 . S
H1646 C1652 0.950 . S
H1647 C1653 0.950 . S
H1648 C1654 0.949 . S
C1649 H1644 0.950 . S
C1649 C1651 1.327 . S
C1649 C1655 1.429 1_565 S
C1650 C1642 1.574 . S
C1650 H1645 0.949 . S
C1650 C1656 1.368 . S
C1651 C1635 1.349 1_565 S
C1651 H1643 0.950 . S
C1651 C1649 1.327 . S
C1652 C1640 1.349 1_545 S
C1652 H1646 0.950 . S
C1652 C1653 1.327 . S
C1653 H1647 0.950 . S
C1653 C1652 1.327 . S
C1653 C1657 1.429 1_545 S
C1654 C1637 1.574 . S
C1654 H1648 0.949 . S
C1654 C1658 1.368 . S
C1655 C1636 1.429 . S
C1655 C1649 1.429 1_545 S
C1655 C1656 1.523 . S
C1656 C1637 1.368 1_545 S
C1656 C1650 1.368 . S
C1656 C1655 1.523 . S
C1657 C1641 1.429 . S
C1657 C1653 1.429 1_565 S
C1657 C1658 1.523 . S
C1658 C1642 1.368 1_565 S
C1658 C1654 1.368 . S
C1658 C1657 1.523 . S
H1659 C1634 0.950 . S
H1660 C1636 0.950 . S
H1661 C1637 0.949 . S
H1662 C1639 0.950 . S
H1663 C1641 0.950 . S
C1664 C1665 1.349 . S
C1664 C1666 1.327 . S
C1664 H1689 0.950 . S
C1665 C1664 1.349 . S
C1665 C1681 1.349 . S
C1666 C1664 1.327 . S
C1666 C1685 1.429 . S
C1666 H1690 0.950 . S
C1667 C1684 1.574 . S
C1667 C1686 1.368 . S
C1667 H1691 0.949 . S
H1668 C1672 0.949 . S
C1669 C1670 1.349 . S
C1669 C1671 1.327 . S
C1669 H1692 0.950 . S
C1670 C1669 1.349 . S
C1670 C1682 1.349 . S
C1671 C1669 1.327 . S
C1671 C1687 1.429 . S
C1671 H1693 0.950 . S
C1672 H1668 0.949 . S
C1672 C1680 1.574 . S
C1672 C1688 1.368 . S
H1673 C1681 0.950 . S
H1674 C1679 0.950 . S
H1675 C1680 0.949 . S
H1676 C1682 0.950 . S
H1677 C1683 0.950 . S
H1678 C1684 0.949 . S
C1679 H1674 0.950 . S
C1679 C1681 1.327 . S
C1679 C1685 1.429 . S
C1680 C1672 1.574 . S
C1680 H1675 0.949 . S
C1680 C1686 1.368 . S
C1681 C1665 1.349 . S
C1681 H1673 0.950 . S
C1681 C1679 1.327 . S
C1682 C1670 1.349 . S
C1682 H1676 0.950 . S
C1682 C1683 1.327 . S
C1683 H1677 0.950 . S
C1683 C1682 1.327 . S
C1683 C1687 1.429 . S
C1684 C1667 1.574 . S
C1684 H1678 0.949 . S
C1684 C1688 1.368 . S
C1685 C1666 1.429 . S
C1685 C1679 1.429 . S
C1685 C1686 1.523 . S
C1686 C1667 1.368 . S
C1686 C1680 1.368 . S
C1686 C1685 1.523 . S
C1687 C1671 1.429 . S
C1687 C1683 1.429 . S
C1687 C1688 1.523 . S
C1688 C1672 1.368 . S
C1688 C1684 1.368 . S
C1688 C1687 1.523 . S
H1689 C1664 0.950 . S
H1690 C1666 0.950 . S
H1691 C1667 0.949 . S
H1692 C1669 0.950 . S
H1693 C1671 0.950 . S
C1694 C1695 1.349 . S
C1694 C1696 1.327 . S
C1694 H1719 0.950 . S
C1695 C1694 1.349 . S
C1695 C1711 1.349 . S
C1696 C1694 1.327 . S
C1696 C1715 1.429 . S
C1696 H1720 0.950 . S
C1697 C1714 1.574 . S
C1697 C1716 1.368 . S
C1697 H1721 0.949 . S
H1698 C1702 0.949 . S
C1699 C1700 1.349 . S
C1699 C1701 1.327 . S
C1699 H1722 0.950 . S
C1700 C1699 1.349 . S
C1700 C1712 1.349 . S
C1701 C1699 1.327 . S
C1701 C1717 1.429 . S
C1701 H1723 0.950 . S
C1702 H1698 0.949 . S
C1702 C1710 1.574 . S
C1702 C1718 1.368 . S
H1703 C1711 0.950 . S
H1704 C1709 0.950 . S
H1705 C1710 0.949 . S
H1706 C1712 0.950 . S
H1707 C1713 0.950 . S
H1708 C1714 0.949 . S
C1709 H1704 0.950 . S
C1709 C1711 1.327 . S
C1709 C1715 1.429 . S
C1710 C1702 1.574 . S
C1710 H1705 0.949 . S
C1710 C1716 1.368 . S
C1711 C1695 1.349 . S
C1711 H1703 0.950 . S
C1711 C1709 1.327 . S
C1712 C1700 1.349 . S
C1712 H1706 0.950 . S
C1712 C1713 1.327 . S
C1713 H1707 0.950 . S
C1713 C1712 1.327 . S
C1713 C1717 1.429 . S
C1714 C1697 1.574 . S
C1714 H1708 0.949 . S
C1714 C1718 1.368 . S
C1715 C1696 1.429 . S
C1715 C1709 1.429 . S
C1715 C1716 1.523 . S
C1716 C1697 1.368 . S
C1716 C1710 1.368 . S
C1716 C1715 1.523 . S
C1717 C1701 1.429 . S
C1717 C1713 1.429 . S
C1717 C1718 1.523 . S
C1718 C1702 1.368 . S
C1718 C1714 1.368 . S
C1718 C1717 1.523 . S
H1719 C1694 0.950 . S
H1720 C1696 0.950 . S
H1721 C1697 0.949 . S
H1722 C1699 0.950 . S
H1723 C1701 0.950 . S
C1724 C1725 1.349 . S
C1724 C1726 1.327 . S
C1724 H1749 0.950 . S
C1725 C1724 1.349 . S
C1725 C1741 1.349 . S
C1726 C1724 1.327 . S
C1726 C1745 1.429 . S
C1726 H1750 0.950 . S
C1727 C1744 1.574 . S
C1727 C1746 1.368 . S
C1727 H1751 0.949 . S
H1728 C1732 0.949 . S
C1729 C1730 1.349 . S
C1729 C1731 1.327 . S
C1729 H1752 0.950 . S
C1730 C1729 1.349 . S
C1730 C1742 1.349 . S
C1731 C1729 1.327 . S
C1731 C1747 1.429 . S
C1731 H1753 0.950 . S
C1732 H1728 0.949 . S
C1732 C1740 1.574 . S
C1732 C1748 1.368 . S
H1733 C1741 0.950 . S
H1734 C1739 0.950 . S
H1735 C1740 0.949 . S
H1736 C1742 0.950 . S
H1737 C1743 0.950 . S
H1738 C1744 0.949 . S
C1739 H1734 0.950 . S
C1739 C1741 1.327 . S
C1739 C1745 1.429 . S
C1740 C1732 1.574 . S
C1740 H1735 0.949 . S
C1740 C1746 1.368 . S
C1741 C1725 1.349 . S
C1741 H1733 0.950 . S
C1741 C1739 1.327 . S
C1742 C1730 1.349 . S
C1742 H1736 0.950 . S
C1742 C1743 1.327 . S
C1743 H1737 0.950 . S
C1743 C1742 1.327 . S
C1743 C1747 1.429 . S
C1744 C1727 1.574 . S
C1744 H1738 0.949 . S
C1744 C1748 1.368 . S
C1745 C1726 1.429 . S
C1745 C1739 1.429 . S
C1745 C1746 1.523 . S
C1746 C1727 1.368 . S
C1746 C1740 1.368 . S
C1746 C1745 1.523 . S
C1747 C1731 1.429 . S
C1747 C1743 1.429 . S
C1747 C1748 1.523 . S
C1748 C1732 1.368 . S
C1748 C1744 1.368 . S
C1748 C1747 1.523 . S
H1749 C1724 0.950 . S
H1750 C1726 0.950 . S
H1751 C1727 0.949 . S
H1752 C1729 0.950 . S
H1753 C1731 0.950 . S
C1754 C1755 1.349 . S
C1754 C1756 1.327 . S
C1754 H1779 0.950 . S
C1755 C1754 1.349 . S
C1755 C1771 1.349 . S
C1756 C1754 1.327 . S
C1756 C1775 1.429 . S
C1756 H1780 0.950 . S
C1757 C1774 1.574 . S
C1757 C1776 1.368 . S
C1757 H1781 0.949 . S
H1758 C1762 0.949 . S
C1759 C1760 1.349 . S
C1759 C1761 1.327 . S
C1759 H1782 0.950 . S
C1760 C1759 1.349 . S
C1760 C1772 1.349 . S
C1761 C1759 1.327 . S
C1761 C1777 1.429 . S
C1761 H1783 0.950 . S
C1762 H1758 0.949 . S
C1762 C1770 1.574 . S
C1762 C1778 1.368 . S
H1763 C1771 0.950 . S
H1764 C1769 0.950 . S
H1765 C1770 0.949 . S
H1766 C1772 0.950 . S
H1767 C1773 0.950 . S
H1768 C1774 0.949 . S
C1769 H1764 0.950 . S
C1769 C1771 1.327 . S
C1769 C1775 1.429 . S
C1770 C1762 1.574 . S
C1770 H1765 0.949 . S
C1770 C1776 1.368 . S
C1771 C1755 1.349 . S
C1771 H1763 0.950 . S
C1771 C1769 1.327 . S
C1772 C1760 1.349 . S
C1772 H1766 0.950 . S
C1772 C1773 1.327 . S
C1773 H1767 0.950 . S
C1773 C1772 1.327 . S
C1773 C1777 1.429 . S
C1774 C1757 1.574 . S
C1774 H1768 0.949 . S
C1774 C1778 1.368 . S
C1775 C1756 1.429 . S
C1775 C1769 1.429 . S
C1775 C1776 1.523 . S
C1776 C1757 1.368 . S
C1776 C1770 1.368 . S
C1776 C1775 1.523 . S
C1777 C1761 1.429 . S
C1777 C1773 1.429 . S
C1777 C1778 1.523 . S
C1778 C1762 1.368 . S
C1778 C1774 1.368 . S
C1778 C1777 1.523 . S
H1779 C1754 0.950 . S
H1780 C1756 0.950 . S
H1781 C1757 0.949 . S
H1782 C1759 0.950 . S
H1783 C1761 0.950 . S
C1784 C1785 1.349 . S
C1784 C1786 1.327 . S
C1784 H1809 0.950 . S
C1785 C1784 1.349 . S
C1785 C1801 1.349 . S
C1786 C1784 1.327 . S
C1786 C1805 1.429 . S
C1786 H1810 0.950 . S
C1787 C1804 1.574 . S
C1787 C1806 1.368 . S
C1787 H1811 0.949 . S
H1788 C1792 0.949 . S
C1789 C1790 1.349 . S
C1789 C1791 1.327 . S
C1789 H1812 0.950 . S
C1790 C1789 1.349 . S
C1790 C1802 1.349 . S
C1791 C1789 1.327 . S
C1791 C1807 1.429 . S
C1791 H1813 0.950 . S
C1792 H1788 0.949 . S
C1792 C1800 1.574 . S
C1792 C1808 1.368 . S
H1793 C1801 0.950 . S
H1794 C1799 0.950 . S
H1795 C1800 0.949 . S
H1796 C1802 0.950 . S
H1797 C1803 0.950 . S
H1798 C1804 0.949 . S
C1799 H1794 0.950 . S
C1799 C1801 1.327 . S
C1799 C1805 1.429 . S
C1800 C1792 1.574 . S
C1800 H1795 0.949 . S
C1800 C1806 1.368 . S
C1801 C1785 1.349 . S
C1801 H1793 0.950 . S
C1801 C1799 1.327 . S
C1802 C1790 1.349 . S
C1802 H1796 0.950 . S
C1802 C1803 1.327 . S
C1803 H1797 0.950 . S
C1803 C1802 1.327 . S
C1803 C1807 1.429 . S
C1804 C1787 1.574 . S
C1804 H1798 0.949 . S
C1804 C1808 1.368 . S
C1805 C1786 1.429 . S
C1805 C1799 1.429 . S
C1805 C1806 1.523 . S
C1806 C1787 1.368 . S
C1806 C1800 1.368 . S
C1806 C1805 1.523 . S
C1807 C1791 1.429 . S
C1807 C1803 1.429 . S
C1807 C1808 1.523 . S
C1808 C1792 1.368 . S
C1808 C1804 1.368 . S
C1808 C1807 1.523 . S
H1809 C1784 0.950 . S
H1810 C1786 0.950 . S
H1811 C1787 0.949 . S
H1812 C1789 0.950 . S
H1813 C1791 0.950 . S
C1814 C1815 1.349 . S
C1814 C1816 1.327 . S
C1814 H1839 0.950 . S
C1815 C1814 1.349 . S
C1815 C1831 1.349 . S
C1816 C1814 1.327 . S
C1816 C1835 1.429 . S
C1816 H1840 0.950 . S
C1817 C1834 1.574 . S
C1817 C1836 1.368 . S
C1817 H1841 0.949 . S
H1818 C1822 0.949 . S
C1819 C1820 1.349 . S
C1819 C1821 1.327 . S
C1819 H1842 0.950 . S
C1820 C1819 1.349 . S
C1820 C1832 1.349 . S
C1821 C1819 1.327 . S
C1821 C1837 1.429 . S
C1821 H1843 0.950 . S
C1822 H1818 0.949 . S
C1822 C1830 1.574 . S
C1822 C1838 1.368 . S
H1823 C1831 0.950 . S
H1824 C1829 0.950 . S
H1825 C1830 0.949 . S
H1826 C1832 0.950 . S
H1827 C1833 0.950 . S
H1828 C1834 0.949 . S
C1829 H1824 0.950 . S
C1829 C1831 1.327 . S
C1829 C1835 1.429 . S
C1830 C1822 1.574 . S
C1830 H1825 0.949 . S
C1830 C1836 1.368 . S
C1831 C1815 1.349 . S
C1831 H1823 0.950 . S
C1831 C1829 1.327 . S
C1832 C1820 1.349 . S
C1832 H1826 0.950 . S
C1832 C1833 1.327 . S
C1833 H1827 0.950 . S
C1833 C1832 1.327 . S
C1833 C1837 1.429 . S
C1834 C1817 1.574 . S
C1834 H1828 0.949 . S
C1834 C1838 1.368 . S
C1835 C1816 1.429 . S
C1835 C1829 1.429 . S
C1835 C1836 1.523 . S
C1836 C1817 1.368 . S
C1836 C1830 1.368 . S
C1836 C1835 1.523 . S
C1837 C1821 1.429 . S
C1837 C1833 1.429 . S
C1837 C1838 1.523 . S
C1838 C1822 1.368 . S
C1838 C1834 1.368 . S
C1838 C1837 1.523 . S
H1839 C1814 0.950 . S
H1840 C1816 0.950 . S
H1841 C1817 0.949 . S
H1842 C1819 0.950 . S
H1843 C1821 0.950 . S
C1844 C1845 1.349 . S
C1844 C1846 1.327 . S
C1844 H1869 0.950 . S
C1845 C1844 1.349 . S
C1845 C1861 1.349 . S
C1846 C1844 1.327 . S
C1846 C1865 1.429 . S
C1846 H1870 0.950 . S
C1847 C1864 1.574 . S
C1847 C1866 1.368 . S
C1847 H1871 0.949 . S
H1848 C1852 0.949 . S
C1849 C1850 1.349 . S
C1849 C1851 1.327 . S
C1849 H1872 0.950 . S
C1850 C1849 1.349 . S
C1850 C1862 1.349 . S
C1851 C1849 1.327 . S
C1851 C1867 1.429 . S
C1851 H1873 0.950 . S
C1852 H1848 0.949 . S
C1852 C1860 1.574 . S
C1852 C1868 1.368 . S
H1853 C1861 0.950 . S
H1854 C1859 0.950 . S
H1855 C1860 0.949 . S
H1856 C1862 0.950 . S
H1857 C1863 0.950 . S
H1858 C1864 0.949 . S
C1859 H1854 0.950 . S
C1859 C1861 1.327 . S
C1859 C1865 1.429 . S
C1860 C1852 1.574 . S
C1860 H1855 0.949 . S
C1860 C1866 1.368 . S
C1861 C1845 1.349 . S
C1861 H1853 0.950 . S
C1861 C1859 1.327 . S
C1862 C1850 1.349 . S
C1862 H1856 0.950 . S
C1862 C1863 1.327 . S
C1863 H1857 0.950 . S
C1863 C1862 1.327 . S
C1863 C1867 1.429 . S
C1864 C1847 1.574 . S
C1864 H1858 0.949 . S
C1864 C1868 1.368 . S
C1865 C1846 1.429 . S
C1865 C1859 1.429 . S
C1865 C1866 1.523 . S
C1866 C1847 1.368 . S
C1866 C1860 1.368 . S
C1866 C1865 1.523 . S
C1867 C1851 1.429 . S
C1867 C1863 1.429 . S
C1867 C1868 1.523 . S
C1868 C1852 1.368 . S
C1868 C1864 1.368 . S
C1868 C1867 1.523 . S
H1869 C1844 0.950 . S
H1870 C1846 0.950 . S
H1871 C1847 0.949 . S
H1872 C1849 0.950 . S
H1873 C1851 0.950 . S
C1874 C1875 1.349 . S
C1874 C1876 1.327 . S
C1874 H1899 0.950 . S
C1875 C1874 1.349 . S
C1875 C1891 1.349 . S
C1876 C1874 1.327 . S
C1876 C1895 1.429 . S
C1876 H1900 0.950 . S
C1877 C1894 1.574 . S
C1877 C1896 1.368 . S
C1877 H1901 0.949 . S
H1878 C1882 0.949 . S
C1879 C1880 1.349 . S
C1879 C1881 1.327 . S
C1879 H1902 0.950 . S
C1880 C1879 1.349 . S
C1880 C1892 1.349 . S
C1881 C1879 1.327 . S
C1881 C1897 1.429 . S
C1881 H1903 0.950 . S
C1882 H1878 0.949 . S
C1882 C1890 1.574 . S
C1882 C1898 1.368 . S
H1883 C1891 0.950 . S
H1884 C1889 0.950 . S
H1885 C1890 0.949 . S
H1886 C1892 0.950 . S
H1887 C1893 0.950 . S
H1888 C1894 0.949 . S
C1889 H1884 0.950 . S
C1889 C1891 1.327 . S
C1889 C1895 1.429 . S
C1890 C1882 1.574 . S
C1890 H1885 0.949 . S
C1890 C1896 1.368 . S
C1891 C1875 1.349 . S
C1891 H1883 0.950 . S
C1891 C1889 1.327 . S
C1892 C1880 1.349 . S
C1892 H1886 0.950 . S
C1892 C1893 1.327 . S
C1893 H1887 0.950 . S
C1893 C1892 1.327 . S
C1893 C1897 1.429 . S
C1894 C1877 1.574 . S
C1894 H1888 0.949 . S
C1894 C1898 1.368 . S
C1895 C1876 1.429 . S
C1895 C1889 1.429 . S
C1895 C1896 1.523 . S
C1896 C1877 1.368 . S
C1896 C1890 1.368 . S
C1896 C1895 1.523 . S
C1897 C1881 1.429 . S
C1897 C1893 1.429 . S
C1897 C1898 1.523 . S
C1898 C1882 1.368 . S
C1898 C1894 1.368 . S
C1898 C1897 1.523 . S
H1899 C1874 0.950 . S
H1900 C1876 0.950 . S
H1901 C1877 0.949 . S
H1902 C1879 0.950 . S
H1903 C1881 0.950 . S
C945 C52 0.791 . S
C950 C564 0.792 . S
C975 C623 0.792 . S
C980 C111 0.791 . S
C1005 C682 0.792 . S
C1010 C170 0.791 . S
C1035 C505 0.792 . S
C1040 C229 0.791 . S
C1065 C288 0.791 . S
C1070 C918 0.792 . S
C1095 C741 0.792 . S
C1100 C347 0.791 . S
C1125 C800 0.792 . S
C1130 C406 0.791 . S
C1155 C859 0.792 . S
C1160 C465 0.791 . S
C1185 C524 0.791 . S
C1190 C92 0.792 . S
C1215 C583 0.791 . S
C1220 C151 0.792 . S
C1245 C642 0.791 . S
C1250 C210 0.792 . S
C1275 C33 0.792 . S
C1280 C701 0.791 . S
C1305 C760 0.791 . S
C1310 C446 0.792 . S
C1335 C819 0.791 . S
C1340 C269 0.792 . S
C1365 C328 0.792 . S
C1370 C878 0.791 . S
C1395 C937 0.791 . S
C1400 C387 0.792 . S
C1425 C477 1.771 . S
C1430 C5 1.771 . S
C1455 C64 1.771 . S
C1460 C536 1.771 . S
C1485 C595 1.771 . S
C1490 C123 1.771 . S
C1515 C182 1.771 . S
C1520 C654 1.771 . S
C1545 C713 1.771 . S
C1550 C241 1.771 . S
C1575 C300 1.771 . S
C1580 C772 1.771 . S
C1605 C831 1.771 . S
C1610 C359 1.771 . S
C1635 C890 1.771 . S
C1640 C418 1.771 . S
C1665 C239 1.706 . S
C1670 C3 1.706 . S
C1695 C298 1.706 . S
C1700 C62 1.706 . S
C1725 C121 1.706 . S
C1730 C357 1.706 . S
C1755 C416 1.706 . S
C1760 C180 1.706 . S
C1785 C475 1.706 . S
C1790 C711 1.706 . S
C1815 C770 1.706 . S
C1820 C534 1.706 . S
C1845 C829 1.706 . S
C1850 C593 1.706 . S
C1875 C888 1.706 . S
C1880 C652 1.706 . S
