# Generated by pormake.
# Topology wkj, (6)-cn, num edge types: 1
# Building blocks:
#     Node 0, Type 0, BuildingBlock: JUFBIX_clean_sbu_0, # of connection points: 6
#     Node 1, Type 0, BuildingBlock: JUFBIX_clean_sbu_0, # of connection points: 6
#     Node 2, Type 0, BuildingBlock: JUFBIX_clean_sbu_0, # of connection points: 6
#     Node 3, Type 0, BuildingBlock: JUFBIX_clean_sbu_0, # of connection points: 6
#     Node 4, Type 0, BuildingBlock: JUFBIX_clean_sbu_0, # of connection points: 6
#     Node 5, Type 0, BuildingBlock: JUFBIX_clean_sbu_0, # of connection points: 6
#     Node 6, Type 0, BuildingBlock: JUFBIX_clean_sbu_0, # of connection points: 6
#     Node 7, Type 0, BuildingBlock: JUFBIX_clean_sbu_0, # of connection points: 6
#     Node 8, Type 0, BuildingBlock: JUFBIX_clean_sbu_0, # of connection points: 6
#     Node 9, Type 0, BuildingBlock: JUFBIX_clean_sbu_0, # of connection points: 6
#     Node 10, Type 0, BuildingBlock: JUFBIX_clean_sbu_0, # of connection points: 6
#     Node 11, Type 0, BuildingBlock: JUFBIX_clean_sbu_0, # of connection points: 6
#     Edge 12, Type (0, 0), BuildingBlock: CIFDUS_clean_linker_0, # of connection points: 2
#     Edge 13, Type (0, 0), BuildingBlock: CIFDUS_clean_linker_0, # of connection points: 2
#     Edge 14, Type (0, 0), BuildingBlock: CIFDUS_clean_linker_0, # of connection points: 2
#     Edge 15, Type (0, 0), BuildingBlock: CIFDUS_clean_linker_0, # of connection points: 2
#     Edge 16, Type (0, 0), BuildingBlock: CIFDUS_clean_linker_0, # of connection points: 2
#     Edge 17, Type (0, 0), BuildingBlock: CIFDUS_clean_linker_0, # of connection points: 2
#     Edge 18, Type (0, 0), BuildingBlock: CIFDUS_clean_linker_0, # of connection points: 2
#     Edge 19, Type (0, 0), BuildingBlock: CIFDUS_clean_linker_0, # of connection points: 2
#     Edge 20, Type (0, 0), BuildingBlock: CIFDUS_clean_linker_0, # of connection points: 2
#     Edge 21, Type (0, 0), BuildingBlock: CIFDUS_clean_linker_0, # of connection points: 2
#     Edge 22, Type (0, 0), BuildingBlock: CIFDUS_clean_linker_0, # of connection points: 2
#     Edge 23, Type (0, 0), BuildingBlock: CIFDUS_clean_linker_0, # of connection points: 2
#     Edge 24, Type (0, 0), BuildingBlock: CIFDUS_clean_linker_0, # of connection points: 2
#     Edge 25, Type (0, 0), BuildingBlock: CIFDUS_clean_linker_0, # of connection points: 2
#     Edge 26, Type (0, 0), BuildingBlock: CIFDUS_clean_linker_0, # of connection points: 2
#     Edge 27, Type (0, 0), BuildingBlock: CIFDUS_clean_linker_0, # of connection points: 2
#     Edge 28, Type (0, 0), BuildingBlock: CIFDUS_clean_linker_0, # of connection points: 2
#     Edge 29, Type (0, 0), BuildingBlock: CIFDUS_clean_linker_0, # of connection points: 2
#     Edge 30, Type (0, 0), BuildingBlock: CIFDUS_clean_linker_0, # of connection points: 2
#     Edge 31, Type (0, 0), BuildingBlock: CIFDUS_clean_linker_0, # of connection points: 2
#     Edge 32, Type (0, 0), BuildingBlock: CIFDUS_clean_linker_0, # of connection points: 2
#     Edge 33, Type (0, 0), BuildingBlock: CIFDUS_clean_linker_0, # of connection points: 2
#     Edge 34, Type (0, 0), BuildingBlock: CIFDUS_clean_linker_0, # of connection points: 2
#     Edge 35, Type (0, 0), BuildingBlock: CIFDUS_clean_linker_0, # of connection points: 2
#     Edge 36, Type (0, 0), BuildingBlock: CIFDUS_clean_linker_0, # of connection points: 2
#     Edge 37, Type (0, 0), BuildingBlock: CIFDUS_clean_linker_0, # of connection points: 2
#     Edge 38, Type (0, 0), BuildingBlock: CIFDUS_clean_linker_0, # of connection points: 2
#     Edge 39, Type (0, 0), BuildingBlock: CIFDUS_clean_linker_0, # of connection points: 2
#     Edge 40, Type (0, 0), BuildingBlock: CIFDUS_clean_linker_0, # of connection points: 2
#     Edge 41, Type (0, 0), BuildingBlock: CIFDUS_clean_linker_0, # of connection points: 2
#     Edge 42, Type (0, 0), BuildingBlock: CIFDUS_clean_linker_0, # of connection points: 2
#     Edge 43, Type (0, 0), BuildingBlock: CIFDUS_clean_linker_0, # of connection points: 2
#     Edge 44, Type (0, 0), BuildingBlock: CIFDUS_clean_linker_0, # of connection points: 2
#     Edge 45, Type (0, 0), BuildingBlock: CIFDUS_clean_linker_0, # of connection points: 2
#     Edge 46, Type (0, 0), BuildingBlock: CIFDUS_clean_linker_0, # of connection points: 2
#     Edge 47, Type (0, 0), BuildingBlock: CIFDUS_clean_linker_0, # of connection points: 2
# Relax obj value: 0.844
# Max RMSD: 0.262
# Mean RMSD: 0.260
data_MOF--net-wkj--node1-JUFBIX_clean_sbu_0--edge1-CIFDUS_clean_linker_0
_symmetry_space_group_name_H-M    P1
_symmetry_Int_Tables_number       1
_symmetry_cell_setting            triclinic
loop_
_symmetry_equiv_pos_as_xyz
'x, y, z'
_cell_length_a     44.362636
_cell_length_b     44.083077
_cell_length_c     23.562995
_cell_angle_alpha  90.184031
_cell_angle_beta   89.714375
_cell_angle_gamma 119.95324
loop_
_atom_site_label
_atom_site_type_symbol
_atom_site_fract_x
_atom_site_fract_y
_atom_site_fract_z
_atom_type_partial_charge
Co0 Co 0.40702 0.05695 0.19608 0.0
C1 C 0.44163 0.02376 0.23321 0.0
Co2 Co 0.45629 0.0905 0.23926 0.0
C3 C 0.35846 0.0307 0.10566 0.0
C4 C 0.34056 0.99539 0.17602 0.0
N5 N 0.36593 0.02736 0.15976 0.0
N6 N 0.33059 0.00145 0.08607 0.0
C7 C 0.31879 0.97937 0.1307 0.0
H8 H 0.37505 0.05302 0.07935 0.0
H9 H 0.33983 0.98325 0.21622 0.0
C10 C 0.4201 0.12427 0.20566 0.0
N11 N 0.49763 0.12233 0.2724 0.0
C12 C 0.51045 0.12235 0.32396 0.0
C13 C 0.51944 0.15447 0.25081 0.0
N14 N 0.53889 0.15339 0.33531 0.0
C15 C 0.54471 0.17379 0.28981 0.0
C16 C 0.46507 0.08822 0.12159 0.0
O17 O 0.397 0.09426 0.18863 0.0
O18 O 0.44711 0.12743 0.22911 0.0
O19 O 0.48048 0.10078 0.16812 0.0
O20 O 0.43199 0.06949 0.12264 0.0
O21 O 0.46484 0.05397 0.24968 0.0
H22 H 0.51613 0.16393 0.21034 0.0
H23 H 0.49812 0.1009 0.35385 0.0
O24 O 0.41628 0.02025 0.20368 0.0
O25 O 0.38351 0.04277 0.27026 0.0
O26 O 0.4325 0.07809 0.31277 0.0
C27 C 0.40089 0.0534 0.31634 0.0
H28 H 0.2985 0.95216 0.12888 0.0
H29 H 0.56512 0.20085 0.28595 0.0
Co30 Co 0.3813 0.44663 0.63695 0.0
C31 C 0.44222 0.49988 0.67929 0.0
Co32 Co 0.37491 0.48515 0.68705 0.0
C33 C 0.36951 0.39442 0.55424 0.0
C34 C 0.40354 0.39667 0.62006 0.0
N35 N 0.38638 0.41257 0.60067 0.0
N36 N 0.3748 0.36724 0.54418 0.0
C37 C 0.39652 0.36881 0.5854 0.0
H38 H 0.35353 0.40115 0.52866 0.0
H39 H 0.41919 0.40411 0.65812 0.0
C40 C 0.31402 0.43479 0.63737 0.0
N41 N 0.37047 0.51892 0.72737 0.0
C42 C 0.3844 0.53169 0.7788 0.0
C43 C 0.35745 0.53921 0.71008 0.0
N44 N 0.38116 0.55943 0.79402 0.0
C45 C 0.36432 0.5644 0.75081 0.0
C46 C 0.3925 0.50342 0.56948 0.0
O47 O 0.33317 0.42313 0.61866 0.0
O48 O 0.32686 0.46112 0.67039 0.0
O49 O 0.38478 0.51251 0.61665 0.0
O50 O 0.39153 0.47401 0.56754 0.0
O51 O 0.42256 0.50947 0.70231 0.0
H52 H 0.34543 0.53699 0.66929 0.0
H53 H 0.39898 0.52246 0.80282 0.0
O54 O 0.4288 0.47071 0.6536 0.0
O55 O 0.37244 0.41999 0.70516 0.0
O56 O 0.36654 0.45814 0.75598 0.0
C57 C 0.36798 0.43004 0.75332 0.0
H58 H 0.40629 0.35091 0.59086 0.0
H59 H 0.3587 0.58559 0.74786 0.0
Co60 Co 0.93121 0.34054 0.84449 0.0
C61 C 0.98511 0.40463 0.85352 0.0
Co62 Co 0.91687 0.37379 0.89379 0.0
C63 C 0.94437 0.30873 0.74892 0.0
C64 C 0.9397 0.28043 0.82495 0.0
N65 N 0.93867 0.30861 0.80502 0.0
N66 N 0.94898 0.282 0.73296 0.0
C67 C 0.94685 0.26442 0.78068 0.0
H68 H 0.94737 0.32931 0.7205 0.0
H69 H 0.93647 0.27254 0.86899 0.0
C70 C 0.86211 0.30778 0.88348 0.0
N71 N 0.90718 0.40434 0.93292 0.0
C72 C 0.91694 0.41685 0.98589 0.0
C73 C 0.88297 0.41302 0.91876 0.0
N74 N 0.89886 0.43163 1.00603 0.0
C75 C 0.87781 0.42977 0.96365 0.0
C76 C 0.90694 0.37779 0.77702 0.0
O77 O 0.88544 0.30421 0.85831 0.0
O78 O 0.8698 0.33749 0.90379 0.0
O79 O 0.90492 0.38823 0.82607 0.0
O80 O 0.91585 0.35429 0.77336 0.0
O81 O 0.96298 0.40865 0.8825 0.0
H82 H 0.86769 0.40502 0.88033 0.0
H83 H 0.93432 0.41214 1.01151 0.0
O84 O 0.97674 0.37571 0.83007 0.0
O85 O 0.94816 0.33009 0.91608 0.0
O86 O 0.93088 0.36121 0.96356 0.0
C87 C 0.94668 0.34383 0.96329 0.0
H88 H 0.95162 0.24267 0.78354 0.0
H89 H 0.85802 0.43726 0.96666 0.0
Co90 Co 0.52249 0.91809 0.34064 0.0
C91 C 0.46672 0.90994 0.40526 0.0
Co92 Co 0.49288 0.86737 0.38302 0.0
C93 C 0.56365 0.96743 0.25758 0.0
C94 C 0.5574 0.99329 0.32977 0.0
N95 N 0.5474 0.96131 0.30785 0.0
N96 N 0.58419 0.00181 0.24755 0.0
C97 C 0.58001 0.01845 0.29228 0.0
H98 H 0.56072 0.94689 0.22894 0.0
H99 H 0.54978 0.99797 0.3711 0.0
C100 C 0.54779 0.87336 0.3182 0.0
N101 N 0.46757 0.82426 0.41887 0.0
C102 C 0.45846 0.82012 0.47422 0.0
C103 C 0.44833 0.79209 0.39594 0.0
N104 N 0.43396 0.78701 0.48672 0.0
C105 C 0.4272 0.76919 0.43754 0.0
C106 C 0.46888 0.86971 0.27049 0.0
O107 O 0.55182 0.90312 0.30548 0.0
O108 O 0.52477 0.85441 0.35442 0.0
O109 O 0.46447 0.84897 0.31198 0.0
O110 O 0.49254 0.90153 0.27553 0.0
O111 O 0.46059 0.87901 0.41127 0.0
H112 H 0.44765 0.78621 0.3512 0.0
H113 H 0.4669 0.84173 0.5037 0.0
O114 O 0.49268 0.93144 0.37562 0.0
O115 O 0.55253 0.93621 0.40387 0.0
O116 O 0.52178 0.88835 0.45242 0.0
C117 C 0.54655 0.92025 0.45071 0.0
H118 H 0.5931 0.04654 0.29814 0.0
H119 H 0.40697 0.74226 0.43146 0.0
Co120 Co 0.64903 0.60222 0.50706 0.0
C121 C 0.58849 0.59858 0.51847 0.0
Co122 Co 0.61335 0.55348 0.5506 0.0
C123 C 0.68022 0.65354 0.42015 0.0
C124 C 0.71209 0.66886 0.49427 0.0
N125 N 0.68283 0.64222 0.47182 0.0
N126 N 0.70623 0.68625 0.40963 0.0
C127 C 0.72621 0.69636 0.45633 0.0
H128 H 0.65783 0.63942 0.39289 0.0
H129 H 0.7212 0.66923 0.5369 0.0
C130 C 0.67643 0.55907 0.53832 0.0
N131 N 0.58013 0.51416 0.58722 0.0
C132 C 0.58598 0.49878 0.63166 0.0
C133 C 0.54541 0.49625 0.57961 0.0
N134 N 0.55633 0.47214 0.65302 0.0
C135 C 0.53066 0.4704 0.62016 0.0
C136 C 0.6099 0.54356 0.4335 0.0
O137 O 0.68252 0.58846 0.51914 0.0
O138 O 0.64594 0.53733 0.55535 0.0
O139 O 0.59737 0.52985 0.48119 0.0
O140 O 0.63509 0.57545 0.43297 0.0
O141 O 0.58214 0.57063 0.54438 0.0
H142 H 0.53166 0.50233 0.54792 0.0
H143 H 0.61166 0.50773 0.64861 0.0
O144 O 0.61729 0.6171 0.49427 0.0
O145 O 0.65937 0.62704 0.58213 0.0
O146 O 0.62749 0.57617 0.62224 0.0
C147 C 0.64547 0.60915 0.62721 0.0
H148 H 0.74789 0.72239 0.46385 0.0
H149 H 0.50307 0.45285 0.62633 0.0
Co150 Co 0.05606 0.62385 0.97932 0.0
C151 C 0.03933 0.55767 1.01208 0.0
Co152 Co 0.09716 0.62091 1.02561 0.0
C153 C 0.02601 0.6474 0.89824 0.0
C154 C 0.98827 0.61613 0.96091 0.0
N155 N 0.02118 0.62717 0.94372 0.0
N156 N -0.00218 0.65022 0.88657 0.0
C157 C 0.97373 0.63016 0.92558 0.0
H158 H 0.05009 0.65998 0.87435 0.0
H159 H 0.97609 0.59995 0.99779 0.0
C160 C 0.11696 0.6875 0.98596 0.0
N161 N 0.13305 0.61911 0.06181 0.0
C162 C 0.13246 0.60448 0.11225 0.0
C163 C 0.16526 0.63023 0.04075 0.0
N164 N 0.16285 0.60568 0.12307 0.0
C165 C 0.18353 0.62162 0.07813 0.0
C166 C 0.0962 0.60768 0.9056 0.0
O167 O 0.08562 0.67307 0.96977 0.0
O168 O 0.12721 0.66942 1.01273 0.0
O169 O 0.11147 0.60911 0.95226 0.0
O170 O 0.07231 0.61574 0.90691 0.0
O171 O 0.06823 0.57341 0.03749 0.0
H172 H 0.17448 0.64281 1.0 0.0
H173 H 0.10962 0.59157 0.13916 0.0
O174 O 0.02776 0.57527 0.987 0.0
O175 O 0.03865 0.63015 0.05082 0.0
O176 O 0.08093 0.63023 0.09794 0.0
C177 C 0.05243 0.63088 0.09827 0.0
H178 H 0.94767 0.62618 0.92889 0.0
H179 H 0.2096 0.62592 0.07224 0.0
Co180 Co 0.91828 0.5675 0.47733 0.0
C181 C 0.95358 0.53947 0.43551 0.0
Co182 Co 0.88332 0.519 0.43294 0.0
C183 C 0.93286 0.61603 0.56569 0.0
C184 C 0.97204 0.6386 0.50135 0.0
N185 N 0.94303 0.60876 0.51622 0.0
N186 N 0.95421 0.64916 0.58293 0.0
C187 C 0.97916 0.66349 0.54264 0.0
H188 H 0.91063 0.59675 0.58954 0.0
H189 H 0.98702 0.642 0.46314 0.0
C190 C 0.84738 0.54889 0.47346 0.0
N191 N 0.85802 0.47865 0.39237 0.0
C192 C 0.86891 0.47265 0.34267 0.0
C193 C 0.82609 0.45068 0.40075 0.0
N194 N 0.84531 0.44228 0.31902 0.0
C195 C 0.818 0.42824 0.35505 0.0
C196 C 0.89129 0.5064 0.54663 0.0
O197 O 0.8781 0.5717 0.48714 0.0
O198 O 0.84234 0.52127 0.44832 0.0
O199 O 0.8764 0.49156 0.50049 0.0
O200 O 0.90833 0.53993 0.54789 0.0
O201 O 0.92353 0.51723 0.41817 0.0
H202 H 0.80948 0.44738 0.43672 0.0
H203 H 0.89318 0.49132 0.32263 0.0
O204 O 0.9576 0.56426 0.46749 0.0
O205 O 0.93023 0.59334 0.40713 0.0
O206 O 0.89241 0.54598 0.36316 0.0
C207 C 0.91745 0.57746 0.36068 0.0
H208 H 0.00138 0.68972 0.54352 0.0
H209 H 0.79381 0.40406 0.34825 0.0
Co210 Co 0.32108 0.8663 0.7254 0.0
C211 C 0.26839 0.82831 0.80255 0.0
Co212 Co 0.33948 0.84961 0.80403 0.0
C213 C 0.33148 0.9092 0.61914 0.0
C214 C 0.2789 0.86832 0.63125 0.0
N215 N 0.31039 0.88273 0.65586 0.0
N216 N 0.31435 0.91139 0.57262 0.0
C217 C 0.28117 0.88556 0.58119 0.0
H218 H 0.35914 0.92599 0.62556 0.0
H219 H 0.25561 0.84618 0.64811 0.0
C220 C 0.39064 0.88426 0.72802 0.0
N221 N 0.35315 0.83636 0.87399 0.0
C222 C 0.37437 0.85612 0.91746 0.0
C223 C 0.34081 0.80324 0.89201 0.0
N224 N 0.37563 0.83662 0.96168 0.0
C225 C 0.35437 0.80327 0.94473 0.0
C226 C 0.32085 0.80316 0.71377 0.0
O227 O 0.36742 0.88719 0.70129 0.0
O228 O 0.38439 0.87035 0.77694 0.0
O229 O 0.331 0.80797 0.76545 0.0
O230 O 0.31324 0.82445 0.6899 0.0
O231 O 0.29346 0.82847 0.82897 0.0
H232 H 0.32254 0.78021 0.86864 0.0
H233 H 0.38814 0.88443 0.91696 0.0
O234 O 0.27364 0.84303 0.75378 0.0
O235 O 0.32959 0.90782 0.76298 0.0
O236 O 0.34792 0.89176 0.83804 0.0
C237 C 0.34165 0.91356 0.81314 0.0
H238 H 0.2596 0.87922 0.55306 0.0
H239 H 0.34871 0.78006 0.96847 0.0
Co240 Co 0.42926 0.36348 0.12684 0.0
C241 C 0.45667 0.42697 0.0786 0.0
Co242 Co 0.47754 0.37817 0.08118 0.0
C243 C 0.38061 0.33539 0.21751 0.0
C244 C 0.35897 0.34834 0.14722 0.0
N245 N 0.38816 0.34906 0.16511 0.0
N246 N 0.34793 0.32624 0.23374 0.0
C247 C 0.3342 0.33442 0.18944 0.0
H248 H 0.39953 0.33373 0.24411 0.0
H249 H 0.35605 0.3578 0.10649 0.0
C250 C 0.45005 0.31325 0.12848 0.0
N251 N 0.51753 0.3916 0.03979 0.0
C252 C 0.52056 0.40051 0.98476 0.0
C253 C 0.54835 0.3944 0.05341 0.0
N254 N 0.5515 0.40814 0.96285 0.0
C255 C 0.56961 0.40496 1.00584 0.0
C256 C 0.48969 0.40153 0.19417 0.0
O257 O 0.42525 0.31873 0.14081 0.0
O258 O 0.47668 0.33685 0.10299 0.0
O259 O 0.50489 0.4026 0.14756 0.0
O260 O 0.45648 0.38288 0.19618 0.0
O261 O 0.47828 0.41868 0.05967 0.0
H262 H 0.55483 0.38897 0.09493 0.0
H263 H 0.50049 0.40197 0.96101 0.0
O264 O 0.43321 0.40711 0.11323 0.0
O265 O 0.40348 0.34715 0.05813 0.0
O266 O 0.45036 0.3558 1.01422 0.0
C267 C 0.41876 0.3482 1.01201 0.0
H268 H 0.30857 0.33165 0.18816 0.0
H269 H 0.59589 0.40947 1.00283 0.0
Co270 Co 0.10441 0.4221 0.40778 0.0
C271 C 0.16278 0.42957 0.46164 0.0
Co272 Co 0.11877 0.45575 0.48829 0.0
C273 C 0.07203 0.40275 0.29401 0.0
C274 C 0.08563 0.36517 0.32169 0.0
N275 N 0.08829 0.39587 0.33721 0.0
N276 N 0.05888 0.37758 0.2528 0.0
C277 C 0.06791 0.35406 0.27047 0.0
H278 H 0.06917 0.42571 0.29366 0.0
H279 H 0.09466 0.3509 0.34707 0.0
C280 C 0.06182 0.44843 0.43755 0.0
N281 N 0.13142 0.48472 0.55642 0.0
C282 C 0.11248 0.48563 0.60198 0.0
C283 C 0.16294 0.51346 0.56401 0.0
N284 N 0.13099 0.51398 0.63647 0.0
C285 C 0.1627 0.53125 0.61227 0.0
C286 C 0.14626 0.49335 0.38874 0.0
O287 O 0.0675 0.43064 0.40141 0.0
O288 O 0.0804 0.46018 0.48151 0.0
O289 O 0.14362 0.49632 0.44211 0.0
O290 O 0.13258 0.46314 0.36603 0.0
O291 O 0.15734 0.44995 0.49327 0.0
H292 H 0.1847 0.52165 0.5352 0.0
H293 H 0.08533 0.46653 0.60874 0.0
O294 O 0.14336 0.41449 0.4184 0.0
O295 O 0.07642 0.38174 0.45241 0.0
O296 O 0.09357 0.41451 0.53041 0.0
C297 C 0.07699 0.38461 0.50639 0.0
H298 H 0.06098 0.32962 0.24936 0.0
H299 H 0.18432 0.55528 0.62839 0.0
Co300 Co 0.6277 0.06786 0.81117 0.0
C301 C 0.56457 0.04122 0.76069 0.0
Co302 Co 0.62028 0.10628 0.76448 0.0
C303 C 0.64853 0.04597 0.90663 0.0
C304 C 0.61954 0.00217 0.85183 0.0
N305 N 0.63326 0.0371 0.8556 0.0
N306 N 0.64343 0.01798 0.93682 0.0
C307 C 0.62566 0.99025 0.90211 0.0
H308 H 0.6605 0.07234 0.92326 0.0
H309 H 0.6037 0.98618 0.81703 0.0
C310 C 0.68555 0.13425 0.81232 0.0
N311 N 0.61626 0.13783 0.71948 0.0
C312 C 0.60562 0.13061 0.6655 0.0
C313 C 0.62832 0.17247 0.72559 0.0
N314 N 0.61165 0.15926 0.63662 0.0
C315 C 0.62534 0.18582 0.67423 0.0
C316 C 0.59904 0.10291 0.87534 0.0
O317 O 0.67479 0.10268 0.82603 0.0
O318 O 0.66561 0.14163 0.78481 0.0
O319 O 0.60074 0.11815 0.82862 0.0
O320 O 0.61166 0.08255 0.87731 0.0
O321 O 0.57623 0.07232 0.74428 0.0
H322 H 0.64046 0.18735 0.76359 0.0
H323 H 0.59506 0.10483 0.64682 0.0
O324 O 0.5819 0.0339 0.79515 0.0
O325 O 0.64072 0.05119 0.74641 0.0
O326 O 0.63733 0.09157 0.6984 0.0
C327 C 0.63991 0.06398 0.69871 0.0
H328 H 0.61462 0.96308 0.91427 0.0
H329 H 0.63439 0.21302 0.66448 0.0
Co330 Co 0.5739 0.69231 0.06438 0.0
C331 C 0.56142 0.74128 0.1178 0.0
Co332 Co 0.54405 0.67367 0.14772 0.0
C333 C 0.59706 0.6838 0.94836 0.0
C334 C 0.62009 0.73737 0.97387 0.0
N335 N 0.59765 0.70471 0.99203 0.0
N336 N 0.618 0.70223 0.90393 0.0
C337 C 0.63233 0.73597 0.92047 0.0
H338 H 0.58124 0.65555 0.9488 0.0
H339 H 0.62745 0.76091 0.99811 0.0
C340 C 0.55844 0.62676 0.09956 0.0
N341 N 0.52024 0.65871 0.22033 0.0
C342 C 0.49981 0.62647 0.2445 0.0
C343 C 0.52382 0.68114 0.26227 0.0
N344 N 0.49047 0.62819 0.29943 0.0
C345 C 0.50588 0.66288 0.30988 0.0
C346 C 0.50172 0.65614 0.05311 0.0
O347 O 0.57006 0.64799 0.05823 0.0
O348 O 0.54609 0.63342 0.14327 0.0
O349 O 0.50108 0.65159 0.10679 0.0
O350 O 0.53064 0.67478 1.02759 0.0
O351 O 0.5436 0.71563 0.1509 0.0
H352 H 0.53949 0.70931 0.25929 0.0
H353 H 0.49234 0.6022 0.22235 0.0
O354 O 0.57713 0.73756 0.07488 0.0
O355 O 0.61657 0.70893 0.10354 0.0
O356 O 0.58751 0.6956 0.18473 0.0
C357 C 0.61625 0.7086 0.15764 0.0
H358 H 0.65097 0.75832 0.89604 0.0
H359 H 0.50545 0.67468 0.34997 0.0
H360 H 0.47392 0.18987 0.19978 0.0
H361 H 0.36232 0.13013 0.18283 0.0
H362 H 0.36129 0.18397 0.15989 0.0
H363 H 0.39297 0.24824 0.1425 0.0
H364 H 0.50509 0.30529 0.15257 0.0
H365 H 0.50506 0.25216 0.18056 0.0
C366 C 0.44924 0.18853 0.1916 0.0
C367 C 0.41819 0.15614 0.1936 0.0
C368 C 0.44904 0.21913 0.17696 0.0
C369 C 0.38655 0.15483 0.18175 0.0
C370 C 0.386 0.18557 0.16862 0.0
C371 C 0.41729 0.2489 0.15105 0.0
C372 C 0.449 0.28058 0.14555 0.0
C373 C 0.41717 0.21789 0.16578 0.0
C374 C 0.4804 0.28117 0.15616 0.0
C375 C 0.48042 0.25085 0.17232 0.0
H376 H 0.29431 0.41882 0.5276 0.0
H377 H 0.25674 0.42501 0.69401 0.0
H378 H 0.20332 0.41808 0.65253 0.0
H379 H 0.17205 0.41939 0.56946 0.0
H380 H 0.21067 0.41903 0.40141 0.0
H381 H 0.25895 0.41399 0.44273 0.0
C382 C 0.27386 0.41754 0.55469 0.0
C383 C 0.27915 0.42225 0.61378 0.0
C384 C 0.24394 0.41528 0.53014 0.0
C385 C 0.253 0.42131 0.64857 0.0
C386 C 0.22266 0.41759 0.62482 0.0
C387 C 0.19088 0.41789 0.54171 0.0
C388 C 0.18845 0.42037 0.48262 0.0
C389 C 0.21862 0.41606 0.56571 0.0
C390 C 0.2123 0.41743 0.44705 0.0
C391 C 0.23989 0.41475 0.47075 0.0
H392 H 0.84151 0.23905 0.87609 0.0
H393 H 0.80197 0.31062 0.88649 0.0
H394 H 0.74326 0.26268 0.86551 0.0
H395 H 0.70439 0.20145 0.83643 0.0
H396 H 0.74372 0.12961 0.83005 0.0
H397 H 0.8016 0.1768 0.85686 0.0
C398 C 0.81991 0.24403 0.87464 0.0
C399 C 0.826 0.2783 0.88239 0.0
C400 C 0.78645 0.21648 0.86235 0.0
C401 C 0.79784 0.28441 0.88097 0.0
C402 C 0.76439 0.25709 0.86841 0.0
C403 C 0.72569 0.1962 0.84094 0.0
C404 C 0.72013 0.16236 0.83027 0.0
C405 C 0.7586 0.22324 0.85758 0.0
C406 C 0.74758 0.15557 0.83758 0.0
C407 C 0.78058 0.18249 0.85296 0.0
H408 H 0.58798 0.76802 0.21806 0.0
H409 H 0.5504 0.79086 0.06514 0.0
H410 H 0.54971 0.84028 0.11311 0.0
H411 H 0.54989 0.86945 0.20379 0.0
H412 H 0.58051 0.84002 0.35807 0.0
H413 H 0.59441 0.80095 0.30457 0.0
C414 C 0.58039 0.7844 0.1949 0.0
C415 C 0.56902 0.77593 0.13852 0.0
C416 C 0.57861 0.81133 0.22341 0.0
C417 C 0.55942 0.79717 0.10852 0.0
C418 C 0.55872 0.82511 0.13619 0.0
C419 C 0.5608 0.85536 0.22511 0.0
C420 C 0.56459 0.8577 0.2846 0.0
C421 C 0.56688 0.83146 0.19434 0.0
C422 C 0.57776 0.83873 0.31231 0.0
C423 C 0.58543 0.81626 0.28179 0.0
H424 H 0.74512 0.60431 0.53212 0.0
H425 H 0.67029 0.49385 0.53567 0.0
H426 H 0.71666 0.48044 0.51466 0.0
H427 H 0.77845 0.50082 0.48986 0.0
H428 H 0.85211 0.61179 0.4891 0.0
H429 H 0.80608 0.62427 0.51356 0.0
C430 C 0.73893 0.57724 0.52887 0.0
C431 C 0.70435 0.55012 0.5351 0.0
C432 C 0.76547 0.56986 0.51636 0.0
C433 C 0.6968 0.5152 0.53134 0.0
C434 C 0.72325 0.50756 0.51879 0.0
C435 C 0.78425 0.52767 0.49486 0.0
C436 C 0.81855 0.55535 0.48709 0.0
C437 C 0.75762 0.53475 0.51009 0.0
C438 C 0.82591 0.59002 0.49466 0.0
C439 C 0.79964 0.59723 0.50878 0.0
H440 H 0.25548 0.81886 0.91416 0.0
H441 H 0.20359 0.79472 0.75232 0.0
H442 H 0.14871 0.75248 0.79867 0.0
H443 H 0.11886 0.7155 0.88264 0.0
H444 H 0.17415 0.7366 0.04108 0.0
H445 H 0.22435 0.78731 0.99891 0.0
C446 C 0.23202 0.80478 0.88901 0.0
C447 C 0.23366 0.80938 0.82975 0.0
C448 C 0.20129 0.77981 0.9155 0.0
C449 C 0.20298 0.79154 0.79794 0.0
C450 C 0.17173 0.76719 0.82444 0.0
C451 C 0.14152 0.73195 0.9083 0.0
C452 C 0.14292 0.72249 0.96496 0.0
C453 C 0.17097 0.76009 0.88284 0.0
C454 C 0.17257 0.7435 0.99753 0.0
C455 C 0.2013 0.77231 0.97331 0.0
H456 H 0.53469 0.09774 0.87887 0.0
H457 H 0.6192 0.11177 0.9859 0.0
H458 H 0.58627 0.11075 0.07029 0.0
H459 H 0.53257 0.10338 0.11448 0.0
H460 H 0.44498 0.0824 1.00935 0.0
H461 H 0.4796 0.08846 0.924 0.0
C462 C 0.54609 0.10122 0.92067 0.0
C463 C 0.57988 0.10574 0.92582 0.0
C464 C 0.52618 0.09901 0.96955 0.0
C465 C 0.59365 0.10888 0.98051 0.0
C466 C 0.57468 0.10811 1.02888 0.0
C467 C 0.52104 0.10047 0.07291 0.0
C468 C 0.48614 0.09291 0.06872 0.0
C469 C 0.54081 0.10287 1.02405 0.0
C470 C 0.47168 0.08846 1.01421 0.0
C471 C 0.49157 0.09193 0.96527 0.0
H472 H 0.45971 0.63235 0.39794 0.0
H473 H 0.47467 0.5595 0.29574 0.0
H474 H 0.44363 0.51387 0.3672 0.0
H475 H 0.41452 0.49502 0.46229 0.0
H476 H 0.40266 0.56987 0.56441 0.0
H477 H 0.43012 0.61372 0.49008 0.0
C478 C 0.45659 0.60668 0.39084 0.0
C479 C 0.47024 0.6001 0.34055 0.0
C480 C 0.43897 0.58048 0.43272 0.0
C481 C 0.46465 0.5659 0.33306 0.0
C482 C 0.44686 0.53961 0.37437 0.0
C483 C 0.41745 0.52076 0.46806 0.0
C484 C 0.40618 0.52867 0.51981 0.0
C485 C 0.43406 0.54657 0.42477 0.0
C486 C 0.41076 0.56253 0.52579 0.0
C487 C 0.42672 0.58788 0.48306 0.0
H488 H 0.90672 0.43961 0.7768 0.0
H489 H 0.89614 0.3581 0.66294 0.0
H490 H 0.88824 0.38933 0.58308 0.0
H491 H 0.88537 0.44087 0.545 0.0
H492 H 0.90058 0.5238 0.65961 0.0
H493 H 0.90536 0.49094 0.73927 0.0
C494 C 0.90245 0.42831 0.73464 0.0
C495 C 0.90167 0.39594 0.72664 0.0
C496 C 0.89867 0.44686 0.68874 0.0
C497 C 0.89672 0.38258 0.67104 0.0
C498 C 0.89218 0.40057 0.62522 0.0
C499 C 0.88931 0.45161 0.58753 0.0
C500 C 0.89202 0.48488 0.59594 0.0
C501 C 0.89313 0.43282 0.63343 0.0
C502 C 0.89804 0.49843 0.65144 0.0
C503 C 0.90088 0.47957 0.69716 0.0
H504 H 0.36963 0.79695 0.05629 0.0
H505 H 0.42623 0.9028 0.99218 0.0
H506 H 0.45883 0.92193 0.0807 0.0
H507 H 0.47261 0.90909 0.1767 0.0
H508 H 0.41669 0.80332 0.24035 0.0
H509 H 0.38317 0.78413 0.15212 0.0
C510 C 0.38913 0.82425 0.06081 0.0
C511 C 0.39495 0.84813 1.01568 0.0
C512 C 0.4083 0.83531 0.1125 0.0
C513 C 0.42047 0.88346 1.02481 0.0
C514 C 0.43943 0.89453 0.07593 0.0
C515 C 0.45309 0.88175 0.17159 0.0
C516 C 0.44756 0.85778 0.2162 0.0
C517 C 0.43374 0.87075 0.12013 0.0
C518 C 0.42187 0.82256 0.20767 0.0
C519 C 0.40259 0.81152 0.15682 0.0
H520 H 0.55329 0.46347 0.19536 0.0
H521 H 0.47102 0.39114 0.306 0.0
H522 H 0.50098 0.42815 0.38758 0.0
H523 H 0.54958 0.48099 0.42822 0.0
H524 H 0.63129 0.55612 0.31988 0.0
H525 H 0.60249 0.51843 0.23717 0.0
C526 C 0.54213 0.45557 0.23744 0.0
C527 C 0.50989 0.42389 0.24415 0.0
C528 C 0.55933 0.47772 0.28473 0.0
C529 C 0.49567 0.41489 0.2991 0.0
C530 C 0.51285 0.4362 0.34597 0.0
C531 C 0.56149 0.48935 0.38668 0.0
C532 C 0.59312 0.52163 0.38107 0.0
C533 C 0.54457 0.46769 0.33938 0.0
C534 C 0.60729 0.53164 0.32617 0.0
C535 C 0.59073 0.50992 0.27872 0.0
H536 H 0.10762 0.5518 0.88776 0.0
H537 H 0.10084 0.63331 0.79854 0.0
H538 H 0.11018 0.61163 0.70805 0.0
H539 H 0.12072 0.5693 0.65272 0.0
H540 H 0.12088 0.48391 0.74002 0.0
H541 H 0.1132 0.50648 0.8314 0.0
C542 C 0.10851 0.56504 0.84857 0.0
C543 C 0.10416 0.59485 0.85076 0.0
C544 C 0.11225 0.55122 0.79568 0.0
C545 C 0.10446 0.61075 0.79885 0.0
C546 C 0.10965 0.59817 0.74676 0.0
C547 C 0.11845 0.55531 0.6917 0.0
C548 C 0.12096 0.52451 0.68903 0.0
C549 C 0.11343 0.5683 0.74436 0.0
C550 C 0.11844 0.50715 0.74037 0.0
C551 C 0.11444 0.52039 0.79284 0.0
H552 H 0.28839 0.91317 0.86605 0.0
H553 H 0.39887 0.97541 0.83804 0.0
H554 H 0.40374 0.01429 0.91639 0.0
H555 H 0.37846 0.02221 1.00287 0.0
H556 H 0.2691 0.9557 0.03837 0.0
H557 H 0.26144 0.92675 0.94633 0.0
C558 C 0.31319 0.93614 0.87599 0.0
C559 C 0.34321 0.94209 0.84664 0.0
C560 C 0.31592 0.95694 0.92285 0.0
C561 C 0.37552 0.97102 0.86006 0.0
C562 C 0.37826 0.99289 0.90503 0.0
C563 C 0.35265 0.00235 0.98979 0.0
C564 C 0.32433 0.99087 1.02754 0.0
C565 C 0.3489 0.985 0.93832 0.0
C566 C 0.29124 0.96463 1.01009 0.0
C567 C 0.28694 0.94808 0.9577 0.0
H568 H 0.36766 0.29708 0.31496 0.0
H569 H 0.2981 0.33689 0.28253 0.0
H570 H 0.293 0.34399 0.38381 0.0
H571 H 0.32061 0.35403 0.47644 0.0
H572 H 0.40001 0.32621 0.50395 0.0
H573 H 0.38877 0.29906 0.41088 0.0
C574 C 0.35115 0.30704 0.33004 0.0
C575 C 0.33498 0.31836 0.29103 0.0
C576 C 0.35077 0.31399 0.38779 0.0
C577 C 0.31173 0.32888 0.31132 0.0
C578 C 0.30908 0.33334 0.36939 0.0
C579 C 0.33553 0.34207 0.46233 0.0
C580 C 0.36241 0.3439 0.49622 0.0
C581 C 0.33067 0.32864 0.40727 0.0
C582 C 0.37976 0.3261 0.47851 0.0
C583 C 0.37346 0.31064 0.42498 0.0
H584 H 0.00926 0.33566 0.49939 0.0
H585 H 0.10284 0.36617 0.59437 0.0
H586 H 0.06913 0.32519 0.66997 0.0
H587 H 0.0129 0.29354 0.71824 0.0
H588 H 0.91961 0.27179 0.63046 0.0
H589 H 0.95249 0.29497 0.5421 0.0
C590 C 0.02213 0.33218 0.53578 0.0
C591 C 0.05809 0.35376 0.54226 0.0
C592 C 0.00236 0.31024 0.58049 0.0
C593 C 0.07495 0.34976 0.5894 0.0
C594 C 0.05572 0.32647 0.63252 0.0
C595 C -0.00021 0.29229 0.67883 0.0
C596 C 0.96424 0.28116 0.68002 0.0
C597 C 0.01932 0.30829 0.63002 0.0
C598 C 0.94709 0.28017 0.62965 0.0
C599 C 0.96596 0.29389 0.57961 0.0
H600 H 0.6171 0.97462 0.18972 0.0
H601 H 0.59869 0.06182 0.19456 0.0
H602 H 0.62294 0.07892 0.0989 0.0
H603 H 0.63751 0.06178 1.00991 0.0
H604 H 0.65046 0.97109 1.00076 0.0
H605 H 0.63949 0.962 0.10302 0.0
C606 C 0.61875 0.99756 0.16989 0.0
C607 C 0.60531 0.01644 0.19802 0.0
C608 C 0.63108 0.00606 0.11433 0.0
C609 C 0.6087 0.04686 0.17327 0.0
C610 C 0.62222 0.05636 0.11856 0.0
C611 C 0.63926 0.04071 0.03015 0.0
C612 C 0.64453 0.01687 0.99763 0.0
C613 C 0.63184 0.03512 0.08794 0.0
C614 C 0.646 0.98941 1.02494 0.0
C615 C 0.63973 0.98427 0.08318 0.0
H616 H 0.7172 0.68343 0.29922 0.0
H617 H 0.68853 0.73537 0.42491 0.0
H618 H 0.66298 0.75475 0.35159 0.0
H619 H 0.63665 0.74359 0.25671 0.0
H620 H 0.66512 0.69127 0.13065 0.0
H621 H 0.70393 0.68611 0.19829 0.0
C622 C 0.70689 0.70048 0.30966 0.0
C623 C 0.70442 0.70803 0.3667 0.0
C624 C 0.69174 0.71079 0.2674 0.0
C625 C 0.6908 0.72973 0.38083 0.0
C626 C 0.67584 0.74033 0.33909 0.0
C627 C 0.65251 0.73238 0.24359 0.0
C628 C 0.64782 0.71727 0.18956 0.0
C629 C 0.6743 0.72912 0.28288 0.0
C630 C 0.66847 0.70303 0.17228 0.0
C631 C 0.69034 0.69974 0.2111 0.0
H632 H 0.93762 0.63682 0.83706 0.0
H633 H 0.04902 0.70397 0.82658 0.0
H634 H 0.04411 0.71772 0.72846 0.0
H635 H 0.00998 0.697 0.64134 0.0
H636 H 0.89859 0.63067 0.65181 0.0
H637 H 0.9016 0.63154 0.75506 0.0
C638 C 0.96074 0.65542 0.81419 0.0
C639 C 0.99379 0.66744 0.83784 0.0
C640 C 0.95779 0.66305 0.75757 0.0
C641 C 0.02336 0.69255 0.8081 0.0
C642 C 0.0206 0.7007 0.75204 0.0
C643 C 0.98618 0.68394 0.66603 0.0
C644 C 0.95439 0.66197 0.63916 0.0
C645 C 0.9882 0.68391 0.72525 0.0
C646 C 0.92367 0.64624 0.67183 0.0
C647 C 0.92534 0.64669 0.73085 0.0
H648 H 0.45623 0.02489 0.34259 0.0
H649 H 0.41025 0.95544 0.1997 0.0
H650 H 0.39604 0.90493 0.26059 0.0
H651 H 0.40787 0.88365 0.34832 0.0
H652 H 0.46461 0.95586 0.4821 0.0
H653 H 0.4584 0.00168 0.43498 0.0
C654 C 0.4435 -0.00126 0.3245 0.0
C655 C 0.43611 0.99367 0.26632 0.0
C656 C 0.43527 0.97039 0.35948 0.0
C657 C 0.41763 0.95968 0.24402 0.0
C658 C 0.40883 0.93096 0.27896 0.0
C659 C 0.41715 0.90901 0.36833 0.0
C660 C 0.43921 0.91795 0.41525 0.0
C661 C 0.41871 0.93625 0.33622 0.0
C662 C 0.44908 0.9494 0.4439 0.0
C663 C 0.44675 0.97588 0.41588 0.0
H664 H 0.45973 0.50759 0.57126 0.0
H665 H 0.49436 0.55654 0.73512 0.0
H666 H 0.54243 0.60847 0.68898 0.0
H667 H 0.57713 0.63463 0.60161 0.0
H668 H 0.53821 0.58571 0.44064 0.0
H669 H 0.48585 0.53997 0.48529 0.0
C670 C 0.47767 0.52951 0.59725 0.0
C671 C 0.47476 0.52789 0.65653 0.0
C672 C 0.50248 0.55967 0.57063 0.0
C673 C 0.49744 0.55692 0.68945 0.0
C674 C 0.52404 0.58677 0.66308 0.0
C675 C 0.55584 0.6152 0.5762 0.0
C676 C 0.56248 0.60929 0.52017 0.0
C677 C 0.52692 0.58812 0.60361 0.0
C678 C 0.53422 0.58799 0.48553 0.0
C679 C 0.50468 0.56122 0.51123 0.0
H680 H 0.03312 0.41991 0.93386 0.0
H681 H 0.01791 0.45611 0.77387 0.0
H682 H 0.02818 0.51078 0.81741 0.0
H683 H 0.02584 0.53959 0.90412 0.0
H684 H 0.03802 0.50266 0.06712 0.0
H685 H 0.04005 0.45375 1.02058 0.0
C686 C 0.03403 0.44081 0.90828 0.0
C687 C 0.02068 0.43322 0.85308 0.0
C688 C 0.03545 0.46966 0.93553 0.0
C689 C 0.02535 0.46084 0.81815 0.0
C690 C 0.02959 0.4913 0.84345 0.0
C691 C 0.0281 0.52041 0.92976 0.0
C692 C 0.03026 0.52357 0.98902 0.0
C693 C 0.0314 0.49421 0.90279 0.0
C694 C 0.03486 0.49958 1.02152 0.0
C695 C 0.03712 0.47247 0.99489 0.0
H696 H 0.07445 0.51191 0.46346 0.0
H697 H 0.00318 0.41791 0.373 0.0
H698 H 0.96661 0.44351 0.35063 0.0
H699 H 0.95129 0.48814 0.37131 0.0
H700 H 0.02067 0.57938 0.47003 0.0
H701 H 0.06333 0.55999 0.47212 0.0
C702 C 0.05071 0.49691 0.43926 0.0
C703 C 0.04001 0.46263 0.42231 0.0
C704 C 0.03029 0.51152 0.42727 0.0
C705 C 0.01068 0.44398 0.38807 0.0
C706 C 0.99019 0.45866 0.37497 0.0
C707 C 0.97598 0.50406 0.39255 0.0
C708 C 0.98249 0.53408 0.4229 0.0
C709 C -0.00085 0.4918 0.39647 0.0
C710 C 0.01496 0.55549 0.448 0.0
C711 C 0.03913 0.54437 0.44952 0.0
H712 H 0.41983 0.94111 0.66261 0.0
H713 H 0.44045 0.86675 0.747 0.0
H714 H 0.50217 0.91043 0.75291 0.0
H715 H 0.54353 0.97267 0.76249 0.0
H716 H 0.51911 0.04848 0.69324 0.0
H717 H 0.4653 0.00156 0.65365 0.0
C718 C 0.43815 0.93415 0.68016 0.0
C719 C 0.42611 0.90197 0.70713 0.0
C720 C 0.47241 0.96013 0.68858 0.0
C721 C 0.44963 0.89227 0.72801 0.0
C722 C 0.48465 0.91724 0.73199 0.0
C723 C 0.52643 0.97886 0.73862 0.0
C724 C 0.53385 0.0135 0.73346 0.0
C725 C 0.49531 0.95195 0.71766 0.0
C726 C 0.5128 0.02162 0.6998 0.0
C727 C 0.48236 0.99494 0.67661 0.0
H728 H 0.52228 0.58354 1.01634 0.0
H729 H 0.57614 0.59186 0.17256 0.0
H730 H 0.5439 0.52827 0.18339 0.0
H731 H 0.49689 0.47198 0.15314 0.0
H732 H 0.44398 0.46176 0.99547 0.0
H733 H 0.47774 0.52565 0.98173 0.0
C734 C 0.52786 0.57108 0.05124 0.0
C735 C 0.55146 0.59145 0.09332 0.0
C736 C 0.50797 0.53503 0.05857 0.0
C737 C 0.55829 0.57592 0.13947 0.0
C738 C 0.53938 0.53994 0.14629 0.0
C739 C 0.49229 0.48409 0.11659 0.0
C740 C 0.46754 0.46342 0.07639 0.0
C741 C 0.51323 0.51962 0.10739 0.0
C742 C 0.46224 0.47818 1.02772 0.0
C743 C 0.48201 0.51423 1.01936 0.0
H744 H 0.37126 0.97844 0.56125 0.0
H745 H 0.2874 0.89566 0.46642 0.0
H746 H 0.30469 0.93223 0.38232 0.0
H747 H 0.34342 0.98774 0.33298 0.0
H748 H 0.4289 0.07073 0.42412 0.0
H749 H 0.41132 0.03475 0.51023 0.0
C750 C 0.35681 0.96828 0.52224 0.0
C751 C 0.32735 0.9339 0.52181 0.0
C752 C 0.36706 0.98991 0.47242 0.0
C753 C 0.30946 0.92186 0.46979 0.0
C754 C 0.31949 0.9429 0.42092 0.0
C755 C 0.35793 -0.00158 0.37185 0.0
C756 C 0.38716 0.03274 0.37135 0.0
C757 C 0.348 0.97712 0.42154 0.0
C758 C 0.40592 0.04499 0.42254 0.0
C759 C 0.39597 0.02413 0.47213 0.0
H760 H 0.37553 0.37449 0.99753 0.0
H761 H 0.43273 0.33536 0.90371 0.0
H762 H 0.4189 0.35435 0.81471 0.0
H763 H 0.39528 0.38701 0.76464 0.0
H764 H 0.34422 0.43224 0.86025 0.0
H765 H 0.35084 0.40593 0.94736 0.0
C766 C 0.38409 0.36908 0.9575 0.0
C767 C 0.40446 0.3526 0.95739 0.0
C768 C 0.37756 0.38176 0.9068 0.0
C769 C 0.41644 0.34721 0.90509 0.0
C770 C 0.40879 0.35842 0.85421 0.0
C771 C 0.38504 0.39067 0.80435 0.0
C772 C 0.36892 0.41142 0.8056 0.0
C773 C 0.39005 0.37644 0.85466 0.0
C774 C 0.35654 0.41636 0.85783 0.0
C775 C 0.36038 0.40131 0.9077 0.0
H776 H 0.96064 0.38318 0.06143 0.0
H777 H 0.97988 0.30582 0.98352 0.0
H778 H 0.01584 0.30926 0.06478 0.0
H779 H 0.04331 0.33523 0.15806 0.0
H780 H 0.0242 0.41339 0.23397 0.0
H781 H 0.98773 0.40888 0.15389 0.0
C782 C 0.97229 0.36667 0.06213 0.0
C783 C 0.96673 0.34381 1.01565 0.0
C784 C 0.99366 0.36926 0.10899 0.0
C785 C 0.983 0.32337 1.01813 0.0
C786 C 0.00386 0.32548 0.06485 0.0
C787 C 0.03115 0.35125 0.15763 0.0
C788 C 0.03727 0.37485 0.20344 0.0
C789 C 0.00962 0.34848 0.11063 0.0
C790 C 0.02099 0.39534 0.20025 0.0
C791 C -0.00034 0.3926 0.15412 0.0
H792 H 0.60551 0.99225 0.69177 0.0
H793 H 0.65153 0.08482 0.58712 0.0
H794 H 0.62887 0.04827 0.50206 0.0
H795 H 0.59291 0.99053 0.4576 0.0
H796 H 0.54259 0.8979 0.56201 0.0
H797 H 0.56996 0.93384 0.64658 0.0
C798 C 0.61144 0.00448 0.65026 0.0
C799 C 0.63119 0.04158 0.6462 0.0
C800 C 0.5971 0.98316 0.60134 0.0
C801 C 0.63717 0.05662 0.59186 0.0
C802 C 0.62393 0.03561 0.54311 0.0
C803 C 0.58817 0.97787 0.49864 0.0
C804 C 0.56572 0.94106 0.50267 0.0
C805 C 0.60343 -0.0011 0.54733 0.0
C806 C 0.55982 0.92581 0.55691 0.0
C807 C 0.57547 0.9465 0.60547 0.0
H808 H 0.61743 0.64083 0.88108 0.0
H809 H 0.63298 0.73574 0.80246 0.0
H810 H 0.64589 0.71761 0.7119 0.0
H811 H 0.65155 0.67383 0.65242 0.0
H812 H 0.6358 0.57885 0.73118 0.0
H813 H 0.6248 0.5979 0.82237 0.0
C814 C 0.62346 0.65749 0.84415 0.0
C815 C 0.62417 0.68985 0.84957 0.0
C816 C 0.63132 0.64696 0.79138 0.0
C817 C 0.63249 0.71096 0.80059 0.0
C818 C 0.63989 0.70054 0.74829 0.0
C819 C 0.64656 0.65767 0.68975 0.0
C820 C 0.64517 0.625 0.6842 0.0
C821 C 0.63955 0.66861 0.74288 0.0
C822 C 0.63755 0.60423 0.73349 0.0
C823 C 0.63093 0.61503 0.78602 0.0
H824 H 0.98245 0.60571 0.11174 0.0
H825 H 0.07747 0.64749 0.20771 0.0
H826 H 0.04449 0.63845 0.29603 0.0
H827 H 0.98809 0.61537 0.34696 0.0
H828 H 0.89274 0.56765 0.25139 0.0
H829 H 0.92618 0.58253 0.16252 0.0
C830 C -0.00386 0.61337 0.15185 0.0
C831 C 0.03279 0.62784 0.15245 0.0
C832 C 0.97673 0.60696 0.20288 0.0
C833 C 0.04957 0.63665 0.2054 0.0
C834 C 0.0306 0.63139 0.2561 0.0
C835 C 0.97458 0.609 0.30665 0.0
C836 C 0.93767 0.59121 0.30623 0.0
C837 C 0.9941 0.61626 0.25553 0.0
C838 C 0.92089 0.58193 0.25334 0.0
C839 C 0.94011 0.59025 0.2024 0.0
H840 H 0.57192 0.12441 0.3833 0.0
H841 H 0.54535 0.20515 0.40343 0.0
H842 H 0.56981 0.2177 0.49969 0.0
H843 H 0.59269 0.20027 0.58125 0.0
H844 H 0.62119 0.12076 0.55743 0.0
H845 H 0.60262 0.11327 0.45909 0.0
C846 C 0.57212 0.14502 0.40888 0.0
C847 C 0.55684 0.16365 0.38787 0.0
C848 C 0.58633 0.15205 0.46321 0.0
C849 C 0.55717 0.19065 0.4199 0.0
C850 C 0.57098 0.19766 0.4746 0.0
C851 C 0.5955 0.18198 0.55398 0.0
C852 C 0.6071 0.1603 0.57673 0.0
C853 C 0.58483 0.17785 0.49722 0.0
C854 C 0.61107 0.13683 0.54115 0.0
C855 C 0.60064 0.13261 0.48491 0.0
H856 H 0.38483 0.54121 0.90132 0.0
H857 H 0.41755 0.62988 0.79068 0.0
H858 H 0.45525 0.66914 0.86507 0.0
H859 H 0.48418 0.677 0.95718 0.0
H860 H 0.45045 0.58878 0.06944 0.0
H861 H 0.40746 0.55057 0.9995 0.0
C862 C 0.39982 0.56922 0.89414 0.0
C863 C 0.39873 0.58271 0.84065 0.0
C864 C 0.42126 0.5916 0.9373 0.0
C865 C 0.4179 0.61902 0.83165 0.0
C866 C 0.4396 0.6414 0.87403 0.0
C867 C 0.4667 0.64959 0.96685 0.0
C868 C 0.47038 0.63566 1.01822 0.0
C869 C 0.44219 0.62785 0.92642 0.0
C870 C 0.44773 0.60015 0.03045 0.0
C871 C 0.42345 0.57823 0.99019 0.0
H872 H 0.83868 0.41179 0.06015 0.0
H873 H 0.94955 0.46051 0.08397 0.0
H874 H 0.94192 0.4636 0.18648 0.0
H875 H 0.90375 0.45347 0.2678 0.0
H876 H 0.79319 0.40771 0.24361 0.0
H877 H 0.80032 0.40072 0.14217 0.0
C878 C 0.86118 0.4237 0.08773 0.0
C879 C 0.8947 0.43661 0.06493 0.0
C880 C 0.85648 0.42497 0.14616 0.0
C881 C 0.92361 0.45084 0.10103 0.0
C882 C 0.91921 0.45234 0.15934 0.0
C883 C 0.88122 0.44193 0.24025 0.0
C884 C 0.84808 0.43159 0.26269 0.0
C885 C 0.88576 0.4395 0.18217 0.0
C886 C 0.81891 0.41568 0.22719 0.0
C887 C 0.82306 0.4122 0.16921 0.0
H888 H 0.36493 0.75971 0.49379 0.0
H889 H 0.45751 0.79438 0.59317 0.0
H890 H 0.42567 0.79242 0.67958 0.0
H891 H 0.37557 0.79304 0.72173 0.0
H892 H 0.28573 0.76722 0.61917 0.0
H893 H 0.31145 0.75203 0.53974 0.0
C894 C 0.37757 0.76544 0.53483 0.0
C895 C 0.41333 0.77699 0.53764 0.0
C896 C 0.35947 0.76603 0.58363 0.0
C897 C 0.42992 0.78528 0.59054 0.0
C898 C 0.41176 0.78433 0.63969 0.0
C899 C 0.36091 0.78251 0.68288 0.0
C900 C 0.32875 0.78112 0.67629 0.0
C901 C 0.377 0.77639 0.63626 0.0
C902 C 0.31042 0.76826 0.62526 0.0
C903 C 0.32537 0.76006 0.57961 0.0
H904 H 0.60346 0.49005 0.73762 0.0
H905 H 0.5011 0.40982 0.68425 0.0
H906 H 0.49256 0.38004 0.77479 0.0
H907 H 0.51202 0.37991 0.87172 0.0
H908 H 0.61352 0.46023 0.92568 0.0
H909 H 0.62548 0.48612 0.83039 0.0
C910 C 0.57955 0.46566 0.74473 0.0
C911 C 0.55276 0.45257 0.70398 0.0
C912 C 0.57487 0.44857 0.79673 0.0
C913 C 0.52187 0.42101 0.71507 0.0
C914 C 0.51705 0.40378 0.7667 0.0
C915 C 0.53697 0.40277 0.86209 0.0
C916 C 0.56178 0.41856 0.90526 0.0
C917 C 0.54304 0.41782 0.80819 0.0
C918 C 0.59423 0.44773 0.89272 0.0
C919 C 0.6008 0.46266 0.83861 0.0
H920 H 0.17739 0.50309 0.28633 0.0
H921 H 0.14025 0.55098 0.40664 0.0
H922 H 0.14443 0.59262 0.33448 0.0
H923 H 0.15072 0.60961 0.23337 0.0
H924 H 0.18941 0.56289 0.11416 0.0
H925 H 0.19282 0.52661 0.18952 0.0
C926 C 0.17123 0.52335 0.29707 0.0
C927 C 0.15839 0.52396 0.35137 0.0
C928 C 0.17342 0.54695 0.25531 0.0
C929 C 0.15052 0.55027 0.36514 0.0
C930 C 0.15247 0.57378 0.32372 0.0
C931 C 0.16041 0.59184 0.22451 0.0
C932 C 0.16943 0.58839 0.16869 0.0
C933 C 0.1626 0.57145 0.26813 0.0
C934 C 0.18239 0.56578 0.1571 0.0
C935 C 0.18419 0.54502 0.20002 0.0
loop_
_geom_bond_atom_site_label_1
_geom_bond_atom_site_label_2
_geom_bond_distance
_geom_bond_site_symmetry_2
_ccdc_geom_bond_type
Co0 N5 2.057 . S
Co0 O17 2.021 . S
Co0 O20 2.062 . S
Co0 O24 2.117 . S
Co0 O25 2.020 . S
C1 O21 1.259 . S
C1 O24 1.258 . S
Co2 N11 2.057 . S
Co2 O18 2.117 . S
Co2 O19 2.020 . S
Co2 O21 2.021 . S
Co2 O26 2.062 . S
C3 N5 1.316 . S
C3 N6 1.347 . S
C3 H8 0.931 . S
C4 N5 1.375 . S
C4 C7 1.350 1_545 S
C4 H9 0.906 1_545 S
N5 Co0 2.057 . S
N5 C3 1.316 . S
N5 C4 1.375 . S
N6 C3 1.347 . S
N6 C7 1.373 1_545 S
C7 C4 1.350 1_565 S
C7 N6 1.373 1_565 S
C7 H28 0.931 . S
H8 C3 0.931 . S
H9 C4 0.906 1_565 S
C10 O17 1.259 . S
C10 O18 1.258 . S
N11 Co2 2.057 . S
N11 C12 1.316 . S
N11 C13 1.375 . S
C12 N11 1.316 . S
C12 N14 1.347 . S
C12 H23 0.931 . S
C13 N11 1.375 . S
C13 C15 1.350 . S
C13 H22 0.930 . S
N14 C12 1.347 . S
N14 C15 1.373 . S
C15 C13 1.350 . S
C15 N14 1.373 . S
C15 H29 0.931 . S
C16 O19 1.256 . S
C16 O20 1.255 . S
O17 Co0 2.021 . S
O17 C10 1.259 . S
O18 Co2 2.117 . S
O18 C10 1.258 . S
O19 Co2 2.020 . S
O19 C16 1.256 . S
O20 Co0 2.062 . S
O20 C16 1.255 . S
O21 C1 1.259 . S
O21 Co2 2.021 . S
H22 C13 0.930 . S
H23 C12 0.931 . S
O24 Co0 2.117 . S
O24 C1 1.258 . S
O25 Co0 2.020 . S
O25 C27 1.256 . S
O26 Co2 2.062 . S
O26 C27 1.255 . S
C27 O25 1.256 . S
C27 O26 1.255 . S
H28 C7 0.931 . S
H29 C15 0.931 . S
Co30 N35 2.057 . S
Co30 O47 2.021 . S
Co30 O50 2.062 . S
Co30 O54 2.117 . S
Co30 O55 2.020 . S
C31 O51 1.259 . S
C31 O54 1.258 . S
Co32 N41 2.057 . S
Co32 O48 2.117 . S
Co32 O49 2.020 . S
Co32 O51 2.021 . S
Co32 O56 2.062 . S
C33 N35 1.316 . S
C33 N36 1.347 . S
C33 H38 0.931 . S
C34 N35 1.375 . S
C34 C37 1.350 . S
C34 H39 0.930 . S
N35 Co30 2.057 . S
N35 C33 1.316 . S
N35 C34 1.375 . S
N36 C33 1.347 . S
N36 C37 1.373 . S
C37 C34 1.350 . S
C37 N36 1.373 . S
C37 H58 0.931 . S
H38 C33 0.931 . S
H39 C34 0.930 . S
C40 O47 1.259 . S
C40 O48 1.258 . S
N41 Co32 2.057 . S
N41 C42 1.316 . S
N41 C43 1.375 . S
C42 N41 1.316 . S
C42 N44 1.347 . S
C42 H53 0.931 . S
C43 N41 1.375 . S
C43 C45 1.350 . S
C43 H52 0.930 . S
N44 C42 1.347 . S
N44 C45 1.373 . S
C45 C43 1.350 . S
C45 N44 1.373 . S
C45 H59 0.931 . S
C46 O49 1.256 . S
C46 O50 1.255 . S
O47 Co30 2.021 . S
O47 C40 1.259 . S
O48 Co32 2.117 . S
O48 C40 1.258 . S
O49 Co32 2.020 . S
O49 C46 1.256 . S
O50 Co30 2.062 . S
O50 C46 1.255 . S
O51 C31 1.259 . S
O51 Co32 2.021 . S
H52 C43 0.930 . S
H53 C42 0.931 . S
O54 Co30 2.117 . S
O54 C31 1.258 . S
O55 Co30 2.020 . S
O55 C57 1.256 . S
O56 Co32 2.062 . S
O56 C57 1.255 . S
C57 O55 1.256 . S
C57 O56 1.255 . S
H58 C37 0.931 . S
H59 C45 0.931 . S
Co60 N65 2.057 . S
Co60 O77 2.021 . S
Co60 O80 2.062 . S
Co60 O84 2.117 . S
Co60 O85 2.020 . S
C61 O81 1.259 . S
C61 O84 1.258 . S
Co62 N71 2.057 . S
Co62 O78 2.117 . S
Co62 O79 2.020 . S
Co62 O81 2.021 . S
Co62 O86 2.062 . S
C63 N65 1.316 . S
C63 N66 1.347 . S
C63 H68 0.931 . S
C64 N65 1.375 . S
C64 C67 1.350 1_655 S
C64 H69 0.929 1_655 S
N65 Co60 2.057 . S
N65 C63 1.316 . S
N65 C64 1.375 . S
N66 C63 1.347 . S
N66 C67 1.373 1_655 S
C67 C64 1.350 1_455 S
C67 N66 1.373 1_455 S
C67 H88 0.931 . S
H68 C63 0.931 . S
H69 C64 0.929 1_455 S
C70 O77 1.259 . S
C70 O78 1.258 . S
N71 Co62 2.057 . S
N71 C72 1.316 . S
N71 C73 1.375 . S
C72 N71 1.316 . S
C72 N74 1.347 1_556 S
C72 H83 0.931 . S
C73 N71 1.375 . S
C73 C75 1.350 1_556 S
C73 H82 0.930 . S
N74 C72 1.347 1_554 S
N74 C75 1.373 . S
C75 C73 1.350 1_554 S
C75 N74 1.373 . S
C75 H89 0.931 . S
C76 O79 1.256 . S
C76 O80 1.255 . S
O77 Co60 2.021 . S
O77 C70 1.259 . S
O78 Co62 2.117 . S
O78 C70 1.258 . S
O79 Co62 2.020 . S
O79 C76 1.256 . S
O80 Co60 2.062 . S
O80 C76 1.255 . S
O81 C61 1.259 . S
O81 Co62 2.021 . S
H82 C73 0.930 . S
H83 C72 0.931 . S
O84 Co60 2.117 . S
O84 C61 1.258 . S
O85 Co60 2.020 . S
O85 C87 1.256 . S
O86 Co62 2.062 . S
O86 C87 1.255 . S
C87 O85 1.256 . S
C87 O86 1.255 . S
H88 C67 0.931 . S
H89 C75 0.931 . S
Co90 N95 2.057 . S
Co90 O107 2.021 . S
Co90 O110 2.062 . S
Co90 O114 2.117 . S
Co90 O115 2.020 . S
C91 O111 1.259 . S
C91 O114 1.258 . S
Co92 N101 2.057 . S
Co92 O108 2.117 . S
Co92 O109 2.020 . S
Co92 O111 2.021 . S
Co92 O116 2.062 . S
C93 N95 1.316 . S
C93 N96 1.347 . S
C93 H98 0.931 . S
C94 N95 1.375 . S
C94 C97 1.350 . S
C94 H99 0.930 . S
N95 Co90 2.057 . S
N95 C93 1.316 . S
N95 C94 1.375 . S
N96 C93 1.347 . S
N96 C97 1.373 . S
C97 C94 1.350 . S
C97 N96 1.373 . S
C97 H118 0.931 1_565 S
H98 C93 0.931 . S
H99 C94 0.930 . S
C100 O107 1.259 . S
C100 O108 1.258 . S
N101 Co92 2.057 . S
N101 C102 1.316 . S
N101 C103 1.375 . S
C102 N101 1.316 . S
C102 N104 1.347 . S
C102 H113 0.931 . S
C103 N101 1.375 . S
C103 C105 1.350 . S
C103 H112 0.930 . S
N104 C102 1.347 . S
N104 C105 1.373 . S
C105 C103 1.350 . S
C105 N104 1.373 . S
C105 H119 0.931 . S
C106 O109 1.256 . S
C106 O110 1.255 . S
O107 Co90 2.021 . S
O107 C100 1.259 . S
O108 Co92 2.117 . S
O108 C100 1.258 . S
O109 Co92 2.020 . S
O109 C106 1.256 . S
O110 Co90 2.062 . S
O110 C106 1.255 . S
O111 C91 1.259 . S
O111 Co92 2.021 . S
H112 C103 0.930 . S
H113 C102 0.931 . S
O114 Co90 2.117 . S
O114 C91 1.258 . S
O115 Co90 2.020 . S
O115 C117 1.256 . S
O116 Co92 2.062 . S
O116 C117 1.255 . S
C117 O115 1.256 . S
C117 O116 1.255 . S
H118 C97 0.931 1_545 S
H119 C105 0.931 . S
Co120 N125 2.057 . S
Co120 O137 2.021 . S
Co120 O140 2.062 . S
Co120 O144 2.117 . S
Co120 O145 2.020 . S
C121 O141 1.259 . S
C121 O144 1.258 . S
Co122 N131 2.057 . S
Co122 O138 2.117 . S
Co122 O139 2.020 . S
Co122 O141 2.021 . S
Co122 O146 2.062 . S
C123 N125 1.316 . S
C123 N126 1.347 . S
C123 H128 0.931 . S
C124 N125 1.375 . S
C124 C127 1.350 . S
C124 H129 0.930 . S
N125 Co120 2.057 . S
N125 C123 1.316 . S
N125 C124 1.375 . S
N126 C123 1.347 . S
N126 C127 1.373 . S
C127 C124 1.350 . S
C127 N126 1.373 . S
C127 H148 0.931 . S
H128 C123 0.931 . S
H129 C124 0.930 . S
C130 O137 1.259 . S
C130 O138 1.258 . S
N131 Co122 2.057 . S
N131 C132 1.316 . S
N131 C133 1.375 . S
C132 N131 1.316 . S
C132 N134 1.347 . S
C132 H143 0.931 . S
C133 N131 1.375 . S
C133 C135 1.350 . S
C133 H142 0.930 . S
N134 C132 1.347 . S
N134 C135 1.373 . S
C135 C133 1.350 . S
C135 N134 1.373 . S
C135 H149 0.931 . S
C136 O139 1.256 . S
C136 O140 1.255 . S
O137 Co120 2.021 . S
O137 C130 1.259 . S
O138 Co122 2.117 . S
O138 C130 1.258 . S
O139 Co122 2.020 . S
O139 C136 1.256 . S
O140 Co120 2.062 . S
O140 C136 1.255 . S
O141 C121 1.259 . S
O141 Co122 2.021 . S
H142 C133 0.930 . S
H143 C132 0.931 . S
O144 Co120 2.117 . S
O144 C121 1.258 . S
O145 Co120 2.020 . S
O145 C147 1.256 . S
O146 Co122 2.062 . S
O146 C147 1.255 . S
C147 O145 1.256 . S
C147 O146 1.255 . S
H148 C127 0.931 . S
H149 C135 0.931 . S
Co150 N155 2.057 . S
Co150 O167 2.021 . S
Co150 O170 2.062 . S
Co150 O174 2.117 . S
Co150 O175 2.020 . S
C151 O171 1.259 . S
C151 O174 1.258 . S
Co152 N161 2.057 1_556 S
Co152 O168 2.117 . S
Co152 O169 2.020 . S
Co152 O171 2.021 . S
Co152 O176 2.062 1_556 S
C153 N155 1.316 . S
C153 N156 1.347 . S
C153 H158 0.931 . S
C154 N155 1.375 . S
C154 C157 1.350 . S
C154 H159 0.930 . S
N155 Co150 2.057 . S
N155 C153 1.316 . S
N155 C154 1.375 . S
N156 C153 1.347 . S
N156 C157 1.373 . S
C157 C154 1.350 . S
C157 N156 1.373 . S
C157 H178 0.931 1_455 S
H158 C153 0.931 . S
H159 C154 0.930 . S
C160 O167 1.259 . S
C160 O168 1.258 . S
N161 Co152 2.057 1_554 S
N161 C162 1.316 . S
N161 C163 1.375 . S
C162 N161 1.316 . S
C162 N164 1.347 . S
C162 H173 0.931 . S
C163 N161 1.375 . S
C163 C165 1.350 . S
C163 H172 0.930 . S
N164 C162 1.347 . S
N164 C165 1.373 . S
C165 C163 1.350 . S
C165 N164 1.373 . S
C165 H179 0.931 . S
C166 O169 1.256 . S
C166 O170 1.255 . S
O167 Co150 2.021 . S
O167 C160 1.259 . S
O168 Co152 2.117 . S
O168 C160 1.258 . S
O169 Co152 2.020 . S
O169 C166 1.256 . S
O170 Co150 2.062 . S
O170 C166 1.255 . S
O171 C151 1.259 . S
O171 Co152 2.021 . S
H172 C163 0.930 . S
H173 C162 0.931 . S
O174 Co150 2.117 . S
O174 C151 1.258 . S
O175 Co150 2.020 . S
O175 C177 1.256 1_556 S
O176 Co152 2.062 1_554 S
O176 C177 1.255 . S
C177 O175 1.256 1_554 S
C177 O176 1.255 . S
H178 C157 0.931 1_655 S
H179 C165 0.931 . S
Co180 N185 2.057 . S
Co180 O197 2.021 . S
Co180 O200 2.062 . S
Co180 O204 2.117 . S
Co180 O205 2.020 . S
C181 O201 1.259 . S
C181 O204 1.258 . S
Co182 N191 2.057 . S
Co182 O198 2.117 . S
Co182 O199 2.020 . S
Co182 O201 2.021 . S
Co182 O206 2.062 . S
C183 N185 1.316 . S
C183 N186 1.347 . S
C183 H188 0.931 . S
C184 N185 1.375 . S
C184 C187 1.350 . S
C184 H189 0.930 . S
N185 Co180 2.057 . S
N185 C183 1.316 . S
N185 C184 1.375 . S
N186 C183 1.347 . S
N186 C187 1.373 . S
C187 C184 1.350 . S
C187 N186 1.373 . S
C187 H208 0.931 1_655 S
H188 C183 0.931 . S
H189 C184 0.930 . S
C190 O197 1.259 . S
C190 O198 1.258 . S
N191 Co182 2.057 . S
N191 C192 1.316 . S
N191 C193 1.375 . S
C192 N191 1.316 . S
C192 N194 1.347 . S
C192 H203 0.931 . S
C193 N191 1.375 . S
C193 C195 1.350 . S
C193 H202 0.930 . S
N194 C192 1.347 . S
N194 C195 1.373 . S
C195 C193 1.350 . S
C195 N194 1.373 . S
C195 H209 0.931 . S
C196 O199 1.256 . S
C196 O200 1.255 . S
O197 Co180 2.021 . S
O197 C190 1.259 . S
O198 Co182 2.117 . S
O198 C190 1.258 . S
O199 Co182 2.020 . S
O199 C196 1.256 . S
O200 Co180 2.062 . S
O200 C196 1.255 . S
O201 C181 1.259 . S
O201 Co182 2.021 . S
H202 C193 0.930 . S
H203 C192 0.931 . S
O204 Co180 2.117 . S
O204 C181 1.258 . S
O205 Co180 2.020 . S
O205 C207 1.256 . S
O206 Co182 2.062 . S
O206 C207 1.255 . S
C207 O205 1.256 . S
C207 O206 1.255 . S
H208 C187 0.931 1_455 S
H209 C195 0.931 . S
Co210 N215 2.057 . S
Co210 O227 2.021 . S
Co210 O230 2.062 . S
Co210 O234 2.117 . S
Co210 O235 2.020 . S
C211 O231 1.259 . S
C211 O234 1.258 . S
Co212 N221 2.057 . S
Co212 O228 2.117 . S
Co212 O229 2.020 . S
Co212 O231 2.021 . S
Co212 O236 2.062 . S
C213 N215 1.316 . S
C213 N216 1.347 . S
C213 H218 0.931 . S
C214 N215 1.375 . S
C214 C217 1.350 . S
C214 H219 0.930 . S
N215 Co210 2.057 . S
N215 C213 1.316 . S
N215 C214 1.375 . S
N216 C213 1.347 . S
N216 C217 1.373 . S
C217 C214 1.350 . S
C217 N216 1.373 . S
C217 H238 0.931 . S
H218 C213 0.931 . S
H219 C214 0.930 . S
C220 O227 1.259 . S
C220 O228 1.258 . S
N221 Co212 2.057 . S
N221 C222 1.316 . S
N221 C223 1.375 . S
C222 N221 1.316 . S
C222 N224 1.347 . S
C222 H233 0.931 . S
C223 N221 1.375 . S
C223 C225 1.350 . S
C223 H232 0.930 . S
N224 C222 1.347 . S
N224 C225 1.373 . S
C225 C223 1.350 . S
C225 N224 1.373 . S
C225 H239 0.931 . S
C226 O229 1.256 . S
C226 O230 1.255 . S
O227 Co210 2.021 . S
O227 C220 1.259 . S
O228 Co212 2.117 . S
O228 C220 1.258 . S
O229 Co212 2.020 . S
O229 C226 1.256 . S
O230 Co210 2.062 . S
O230 C226 1.255 . S
O231 C211 1.259 . S
O231 Co212 2.021 . S
H232 C223 0.930 . S
H233 C222 0.931 . S
O234 Co210 2.117 . S
O234 C211 1.258 . S
O235 Co210 2.020 . S
O235 C237 1.256 . S
O236 Co212 2.062 . S
O236 C237 1.255 . S
C237 O235 1.256 . S
C237 O236 1.255 . S
H238 C217 0.931 . S
H239 C225 0.931 . S
Co240 N245 2.057 . S
Co240 O257 2.021 . S
Co240 O260 2.062 . S
Co240 O264 2.117 . S
Co240 O265 2.020 . S
C241 O261 1.259 . S
C241 O264 1.258 . S
Co242 N251 2.057 1_554 S
Co242 O258 2.117 . S
Co242 O259 2.020 . S
Co242 O261 2.021 . S
Co242 O266 2.062 1_554 S
C243 N245 1.316 . S
C243 N246 1.347 . S
C243 H248 0.931 . S
C244 N245 1.375 . S
C244 C247 1.350 . S
C244 H249 0.930 . S
N245 Co240 2.057 . S
N245 C243 1.316 . S
N245 C244 1.375 . S
N246 C243 1.347 . S
N246 C247 1.373 . S
C247 C244 1.350 . S
C247 N246 1.373 . S
C247 H268 0.931 . S
H248 C243 0.931 . S
H249 C244 0.930 . S
C250 O257 1.259 . S
C250 O258 1.258 . S
N251 Co242 2.057 1_556 S
N251 C252 1.316 . S
N251 C253 1.375 . S
C252 N251 1.316 . S
C252 N254 1.347 . S
C252 H263 0.931 . S
C253 N251 1.375 . S
C253 C255 1.350 . S
C253 H262 0.930 . S
N254 C252 1.347 . S
N254 C255 1.373 . S
C255 C253 1.350 . S
C255 N254 1.373 . S
C255 H269 0.931 . S
C256 O259 1.256 . S
C256 O260 1.255 . S
O257 Co240 2.021 . S
O257 C250 1.259 . S
O258 Co242 2.117 . S
O258 C250 1.258 . S
O259 Co242 2.020 . S
O259 C256 1.256 . S
O260 Co240 2.062 . S
O260 C256 1.255 . S
O261 C241 1.259 . S
O261 Co242 2.021 . S
H262 C253 0.930 . S
H263 C252 0.931 . S
O264 Co240 2.117 . S
O264 C241 1.258 . S
O265 Co240 2.020 . S
O265 C267 1.256 . S
O266 Co242 2.062 1_556 S
O266 C267 1.255 1_556 S
C267 O265 1.256 . S
C267 O266 1.255 1_554 S
H268 C247 0.931 . S
H269 C255 0.931 . S
Co270 N275 2.057 . S
Co270 O287 2.021 . S
Co270 O290 2.062 . S
Co270 O294 2.117 . S
Co270 O295 2.020 . S
C271 O291 1.259 . S
C271 O294 1.258 . S
Co272 N281 2.057 . S
Co272 O288 2.117 . S
Co272 O289 2.020 . S
Co272 O291 2.021 . S
Co272 O296 2.062 . S
C273 N275 1.316 . S
C273 N276 1.347 . S
C273 H278 0.931 . S
C274 N275 1.375 . S
C274 C277 1.350 . S
C274 H279 0.930 . S
N275 Co270 2.057 . S
N275 C273 1.316 . S
N275 C274 1.375 . S
N276 C273 1.347 . S
N276 C277 1.373 . S
C277 C274 1.350 . S
C277 N276 1.373 . S
C277 H298 0.931 . S
H278 C273 0.931 . S
H279 C274 0.930 . S
C280 O287 1.259 . S
C280 O288 1.258 . S
N281 Co272 2.057 . S
N281 C282 1.316 . S
N281 C283 1.375 . S
C282 N281 1.316 . S
C282 N284 1.347 . S
C282 H293 0.931 . S
C283 N281 1.375 . S
C283 C285 1.350 . S
C283 H292 0.930 . S
N284 C282 1.347 . S
N284 C285 1.373 . S
C285 C283 1.350 . S
C285 N284 1.373 . S
C285 H299 0.931 . S
C286 O289 1.256 . S
C286 O290 1.255 . S
O287 Co270 2.021 . S
O287 C280 1.259 . S
O288 Co272 2.117 . S
O288 C280 1.258 . S
O289 Co272 2.020 . S
O289 C286 1.256 . S
O290 Co270 2.062 . S
O290 C286 1.255 . S
O291 C271 1.259 . S
O291 Co272 2.021 . S
H292 C283 0.930 . S
H293 C282 0.931 . S
O294 Co270 2.117 . S
O294 C271 1.258 . S
O295 Co270 2.020 . S
O295 C297 1.256 . S
O296 Co272 2.062 . S
O296 C297 1.255 . S
C297 O295 1.256 . S
C297 O296 1.255 . S
H298 C277 0.931 . S
H299 C285 0.931 . S
Co300 N305 2.057 . S
Co300 O317 2.021 . S
Co300 O320 2.062 . S
Co300 O324 2.117 . S
Co300 O325 2.020 . S
C301 O321 1.259 . S
C301 O324 1.258 . S
Co302 N311 2.057 . S
Co302 O318 2.117 . S
Co302 O319 2.020 . S
Co302 O321 2.021 . S
Co302 O326 2.062 . S
C303 N305 1.316 . S
C303 N306 1.347 . S
C303 H308 0.931 . S
C304 N305 1.375 . S
C304 C307 1.350 . S
C304 H309 0.930 . S
N305 Co300 2.057 . S
N305 C303 1.316 . S
N305 C304 1.375 . S
N306 C303 1.347 . S
N306 C307 1.373 . S
C307 C304 1.350 . S
C307 N306 1.373 . S
C307 H328 0.931 1_545 S
H308 C303 0.931 . S
H309 C304 0.930 . S
C310 O317 1.259 . S
C310 O318 1.258 . S
N311 Co302 2.057 . S
N311 C312 1.316 . S
N311 C313 1.375 . S
C312 N311 1.316 . S
C312 N314 1.347 . S
C312 H323 0.931 . S
C313 N311 1.375 . S
C313 C315 1.350 . S
C313 H322 0.930 . S
N314 C312 1.347 . S
N314 C315 1.373 . S
C315 C313 1.350 . S
C315 N314 1.373 . S
C315 H329 0.931 . S
C316 O319 1.256 . S
C316 O320 1.255 . S
O317 Co300 2.021 . S
O317 C310 1.259 . S
O318 Co302 2.117 . S
O318 C310 1.258 . S
O319 Co302 2.020 . S
O319 C316 1.256 . S
O320 Co300 2.062 . S
O320 C316 1.255 . S
O321 C301 1.259 . S
O321 Co302 2.021 . S
H322 C313 0.930 . S
H323 C312 0.931 . S
O324 Co300 2.117 . S
O324 C301 1.258 . S
O325 Co300 2.020 . S
O325 C327 1.256 . S
O326 Co302 2.062 . S
O326 C327 1.255 . S
C327 O325 1.256 . S
C327 O326 1.255 . S
H328 C307 0.931 1_565 S
H329 C315 0.931 . S
Co330 N335 2.057 1_554 S
Co330 O347 2.021 . S
Co330 O350 2.051 1_554 S
Co330 O354 2.117 . S
Co330 O355 2.020 . S
C331 O351 1.259 . S
C331 O354 1.258 . S
Co332 N341 2.057 . S
Co332 O348 2.117 . S
Co332 O349 2.020 . S
Co332 O351 2.021 . S
Co332 O356 2.062 . S
C333 N335 1.316 . S
C333 N336 1.347 . S
C333 H338 0.931 . S
C334 N335 1.375 . S
C334 C337 1.350 . S
C334 H339 0.930 1_556 S
N335 Co330 2.057 1_556 S
N335 C333 1.316 . S
N335 C334 1.375 . S
N336 C333 1.347 . S
N336 C337 1.373 . S
C337 C334 1.350 . S
C337 N336 1.373 . S
C337 H358 0.931 . S
H338 C333 0.931 . S
H339 C334 0.930 1_554 S
C340 O347 1.259 . S
C340 O348 1.258 . S
N341 Co332 2.057 . S
N341 C342 1.316 . S
N341 C343 1.375 . S
C342 N341 1.316 . S
C342 N344 1.347 . S
C342 H353 0.931 . S
C343 N341 1.375 . S
C343 C345 1.350 . S
C343 H352 0.930 . S
N344 C342 1.347 . S
N344 C345 1.373 . S
C345 C343 1.350 . S
C345 N344 1.373 . S
C345 H359 0.931 . S
C346 O349 1.256 . S
C346 O350 1.250 1_554 S
O347 Co330 2.021 . S
O347 C340 1.259 . S
O348 Co332 2.117 . S
O348 C340 1.258 . S
O349 Co332 2.020 . S
O349 C346 1.256 . S
O350 Co330 2.051 1_556 S
O350 C346 1.250 1_556 S
O351 C331 1.259 . S
O351 Co332 2.021 . S
H352 C343 0.930 . S
H353 C342 0.931 . S
O354 Co330 2.117 . S
O354 C331 1.258 . S
O355 Co330 2.020 . S
O355 C357 1.256 . S
O356 Co332 2.062 . S
O356 C357 1.255 . S
C357 O355 1.256 . S
C357 O356 1.255 . S
H358 C337 0.931 . S
H359 C345 0.931 . S
H360 C366 0.930 . S
H361 C369 0.930 . S
H362 C370 0.930 . S
H363 C371 0.930 . S
H364 C374 0.930 . S
H365 C375 0.930 . S
C366 H360 0.930 . S
C366 C367 1.355 . S
C366 C368 1.415 . S
C367 C366 1.355 . S
C367 C369 1.419 . S
C368 C366 1.415 . S
C368 C373 1.425 . S
C368 C375 1.409 . S
C369 H361 0.930 . S
C369 C367 1.419 . S
C369 C370 1.362 . S
C370 H362 0.930 . S
C370 C369 1.362 . S
C370 C373 1.409 . S
C371 H363 0.930 . S
C371 C372 1.355 . S
C371 C373 1.415 . S
C372 C371 1.355 . S
C372 C374 1.419 . S
C373 C368 1.425 . S
C373 C370 1.409 . S
C373 C371 1.415 . S
C374 H364 0.930 . S
C374 C372 1.419 . S
C374 C375 1.362 . S
C375 H365 0.930 . S
C375 C368 1.409 . S
C375 C374 1.362 . S
H376 C382 0.930 . S
H377 C385 0.930 . S
H378 C386 0.930 . S
H379 C387 0.930 . S
H380 C390 0.930 . S
H381 C391 0.930 . S
C382 H376 0.930 . S
C382 C383 1.355 . S
C382 C384 1.415 . S
C383 C382 1.355 . S
C383 C385 1.419 . S
C384 C382 1.415 . S
C384 C389 1.425 . S
C384 C391 1.409 . S
C385 H377 0.930 . S
C385 C383 1.419 . S
C385 C386 1.362 . S
C386 H378 0.930 . S
C386 C385 1.362 . S
C386 C389 1.409 . S
C387 H379 0.930 . S
C387 C388 1.355 . S
C387 C389 1.415 . S
C388 C387 1.355 . S
C388 C390 1.419 . S
C389 C384 1.425 . S
C389 C386 1.409 . S
C389 C387 1.415 . S
C390 H380 0.930 . S
C390 C388 1.419 . S
C390 C391 1.362 . S
C391 H381 0.930 . S
C391 C384 1.409 . S
C391 C390 1.362 . S
H392 C398 0.930 . S
H393 C401 0.930 . S
H394 C402 0.930 . S
H395 C403 0.930 . S
H396 C406 0.930 . S
H397 C407 0.930 . S
C398 H392 0.930 . S
C398 C399 1.355 . S
C398 C400 1.415 . S
C399 C398 1.355 . S
C399 C401 1.419 . S
C400 C398 1.415 . S
C400 C405 1.425 . S
C400 C407 1.409 . S
C401 H393 0.930 . S
C401 C399 1.419 . S
C401 C402 1.362 . S
C402 H394 0.930 . S
C402 C401 1.362 . S
C402 C405 1.409 . S
C403 H395 0.930 . S
C403 C404 1.355 . S
C403 C405 1.415 . S
C404 C403 1.355 . S
C404 C406 1.419 . S
C405 C400 1.425 . S
C405 C402 1.409 . S
C405 C403 1.415 . S
C406 H396 0.930 . S
C406 C404 1.419 . S
C406 C407 1.362 . S
C407 H397 0.930 . S
C407 C400 1.409 . S
C407 C406 1.362 . S
H408 C414 0.930 . S
H409 C417 0.930 . S
H410 C418 0.930 . S
H411 C419 0.930 . S
H412 C422 0.930 . S
H413 C423 0.930 . S
C414 H408 0.930 . S
C414 C415 1.355 . S
C414 C416 1.415 . S
C415 C414 1.355 . S
C415 C417 1.419 . S
C416 C414 1.415 . S
C416 C421 1.425 . S
C416 C423 1.409 . S
C417 H409 0.930 . S
C417 C415 1.419 . S
C417 C418 1.362 . S
C418 H410 0.930 . S
C418 C417 1.362 . S
C418 C421 1.409 . S
C419 H411 0.930 . S
C419 C420 1.355 . S
C419 C421 1.415 . S
C420 C419 1.355 . S
C420 C422 1.419 . S
C421 C416 1.425 . S
C421 C418 1.409 . S
C421 C419 1.415 . S
C422 H412 0.930 . S
C422 C420 1.419 . S
C422 C423 1.362 . S
C423 H413 0.930 . S
C423 C416 1.409 . S
C423 C422 1.362 . S
H424 C430 0.930 . S
H425 C433 0.930 . S
H426 C434 0.930 . S
H427 C435 0.930 . S
H428 C438 0.930 . S
H429 C439 0.930 . S
C430 H424 0.930 . S
C430 C431 1.355 . S
C430 C432 1.415 . S
C431 C430 1.355 . S
C431 C433 1.419 . S
C432 C430 1.415 . S
C432 C437 1.425 . S
C432 C439 1.409 . S
C433 H425 0.930 . S
C433 C431 1.419 . S
C433 C434 1.362 . S
C434 H426 0.930 . S
C434 C433 1.362 . S
C434 C437 1.409 . S
C435 H427 0.930 . S
C435 C436 1.355 . S
C435 C437 1.415 . S
C436 C435 1.355 . S
C436 C438 1.419 . S
C437 C432 1.425 . S
C437 C434 1.409 . S
C437 C435 1.415 . S
C438 H428 0.930 . S
C438 C436 1.419 . S
C438 C439 1.362 . S
C439 H429 0.930 . S
C439 C432 1.409 . S
C439 C438 1.362 . S
H440 C446 0.930 . S
H441 C449 0.930 . S
H442 C450 0.930 . S
H443 C451 0.930 . S
H444 C454 0.930 . S
H445 C455 0.930 . S
C446 H440 0.930 . S
C446 C447 1.355 . S
C446 C448 1.415 . S
C447 C446 1.355 . S
C447 C449 1.419 . S
C448 C446 1.415 . S
C448 C453 1.425 . S
C448 C455 1.409 . S
C449 H441 0.930 . S
C449 C447 1.419 . S
C449 C450 1.362 . S
C450 H442 0.930 . S
C450 C449 1.362 . S
C450 C453 1.409 . S
C451 H443 0.930 . S
C451 C452 1.355 . S
C451 C453 1.415 . S
C452 C451 1.355 . S
C452 C454 1.419 . S
C453 C448 1.425 . S
C453 C450 1.409 . S
C453 C451 1.415 . S
C454 H444 0.930 . S
C454 C452 1.419 . S
C454 C455 1.362 . S
C455 H445 0.930 . S
C455 C448 1.409 . S
C455 C454 1.362 . S
H456 C462 0.930 . S
H457 C465 0.930 . S
H458 C466 0.930 1_554 S
H459 C467 0.930 . S
H460 C470 0.931 . S
H461 C471 0.930 . S
C462 H456 0.930 . S
C462 C463 1.355 . S
C462 C464 1.415 . S
C463 C462 1.355 . S
C463 C465 1.419 . S
C464 C462 1.415 . S
C464 C469 1.425 . S
C464 C471 1.409 . S
C465 H457 0.930 . S
C465 C463 1.419 . S
C465 C466 1.362 . S
C466 H458 0.930 1_556 S
C466 C465 1.362 . S
C466 C469 1.409 . S
C467 H459 0.930 . S
C467 C468 1.355 . S
C467 C469 1.415 1_554 S
C468 C467 1.355 . S
C468 C470 1.426 . S
C469 C464 1.425 . S
C469 C466 1.409 . S
C469 C467 1.415 1_556 S
C470 H460 0.931 . S
C470 C468 1.426 . S
C470 C471 1.355 1_554 S
C471 H461 0.930 . S
C471 C464 1.409 . S
C471 C470 1.355 1_556 S
H472 C478 0.930 . S
H473 C481 0.930 . S
H474 C482 0.930 . S
H475 C483 0.930 . S
H476 C486 0.930 . S
H477 C487 0.930 . S
C478 H472 0.930 . S
C478 C479 1.355 . S
C478 C480 1.415 . S
C479 C478 1.355 . S
C479 C481 1.419 . S
C480 C478 1.415 . S
C480 C485 1.425 . S
C480 C487 1.409 . S
C481 H473 0.930 . S
C481 C479 1.419 . S
C481 C482 1.362 . S
C482 H474 0.930 . S
C482 C481 1.362 . S
C482 C485 1.409 . S
C483 H475 0.930 . S
C483 C484 1.355 . S
C483 C485 1.415 . S
C484 C483 1.355 . S
C484 C486 1.419 . S
C485 C480 1.425 . S
C485 C482 1.409 . S
C485 C483 1.415 . S
C486 H476 0.930 . S
C486 C484 1.419 . S
C486 C487 1.362 . S
C487 H477 0.930 . S
C487 C480 1.409 . S
C487 C486 1.362 . S
H488 C494 0.930 . S
H489 C497 0.930 . S
H490 C498 0.930 . S
H491 C499 0.930 . S
H492 C502 0.930 . S
H493 C503 0.930 . S
C494 H488 0.930 . S
C494 C495 1.355 . S
C494 C496 1.415 . S
C495 C494 1.355 . S
C495 C497 1.419 . S
C496 C494 1.415 . S
C496 C501 1.425 . S
C496 C503 1.409 . S
C497 H489 0.930 . S
C497 C495 1.419 . S
C497 C498 1.362 . S
C498 H490 0.930 . S
C498 C497 1.362 . S
C498 C501 1.409 . S
C499 H491 0.930 . S
C499 C500 1.355 . S
C499 C501 1.415 . S
C500 C499 1.355 . S
C500 C502 1.419 . S
C501 C496 1.425 . S
C501 C498 1.409 . S
C501 C499 1.415 . S
C502 H492 0.930 . S
C502 C500 1.419 . S
C502 C503 1.362 . S
C503 H493 0.930 . S
C503 C496 1.409 . S
C503 C502 1.362 . S
H504 C510 0.930 . S
H505 C513 0.930 . S
H506 C514 0.930 . S
H507 C515 0.930 . S
H508 C518 0.930 . S
H509 C519 0.930 . S
C510 H504 0.930 . S
C510 C511 1.355 1_554 S
C510 C512 1.415 . S
C511 C510 1.355 1_556 S
C511 C513 1.419 . S
C512 C510 1.415 . S
C512 C517 1.425 . S
C512 C519 1.409 . S
C513 H505 0.930 . S
C513 C511 1.419 . S
C513 C514 1.362 1_556 S
C514 H506 0.930 . S
C514 C513 1.362 1_554 S
C514 C517 1.409 . S
C515 H507 0.930 . S
C515 C516 1.355 . S
C515 C517 1.415 . S
C516 C515 1.355 . S
C516 C518 1.419 . S
C517 C512 1.425 . S
C517 C514 1.409 . S
C517 C515 1.415 . S
C518 H508 0.930 . S
C518 C516 1.419 . S
C518 C519 1.362 . S
C519 H509 0.930 . S
C519 C512 1.409 . S
C519 C518 1.362 . S
H520 C526 0.930 . S
H521 C529 0.930 . S
H522 C530 0.930 . S
H523 C531 0.930 . S
H524 C534 0.930 . S
H525 C535 0.930 . S
C526 H520 0.930 . S
C526 C527 1.355 . S
C526 C528 1.415 . S
C527 C526 1.355 . S
C527 C529 1.419 . S
C528 C526 1.415 . S
C528 C533 1.425 . S
C528 C535 1.409 . S
C529 H521 0.930 . S
C529 C527 1.419 . S
C529 C530 1.362 . S
C530 H522 0.930 . S
C530 C529 1.362 . S
C530 C533 1.409 . S
C531 H523 0.930 . S
C531 C532 1.355 . S
C531 C533 1.415 . S
C532 C531 1.355 . S
C532 C534 1.419 . S
C533 C528 1.425 . S
C533 C530 1.409 . S
C533 C531 1.415 . S
C534 H524 0.930 . S
C534 C532 1.419 . S
C534 C535 1.362 . S
C535 H525 0.930 . S
C535 C528 1.409 . S
C535 C534 1.362 . S
H536 C542 0.930 . S
H537 C545 0.930 . S
H538 C546 0.930 . S
H539 C547 0.930 . S
H540 C550 0.930 . S
H541 C551 0.930 . S
C542 H536 0.930 . S
C542 C543 1.355 . S
C542 C544 1.415 . S
C543 C542 1.355 . S
C543 C545 1.419 . S
C544 C542 1.415 . S
C544 C549 1.425 . S
C544 C551 1.409 . S
C545 H537 0.930 . S
C545 C543 1.419 . S
C545 C546 1.362 . S
C546 H538 0.930 . S
C546 C545 1.362 . S
C546 C549 1.409 . S
C547 H539 0.930 . S
C547 C548 1.355 . S
C547 C549 1.415 . S
C548 C547 1.355 . S
C548 C550 1.419 . S
C549 C544 1.425 . S
C549 C546 1.409 . S
C549 C547 1.415 . S
C550 H540 0.930 . S
C550 C548 1.419 . S
C550 C551 1.362 . S
C551 H541 0.930 . S
C551 C544 1.409 . S
C551 C550 1.362 . S
H552 C558 0.930 . S
H553 C561 0.930 . S
H554 C562 0.930 1_545 S
H555 C563 0.930 . S
H556 C566 0.930 . S
H557 C567 0.930 . S
C558 H552 0.930 . S
C558 C559 1.355 . S
C558 C560 1.415 . S
C559 C558 1.355 . S
C559 C561 1.419 . S
C560 C558 1.415 . S
C560 C565 1.425 . S
C560 C567 1.409 . S
C561 H553 0.930 . S
C561 C559 1.419 . S
C561 C562 1.362 . S
C562 H554 0.930 1_565 S
C562 C561 1.362 . S
C562 C565 1.409 . S
C563 H555 0.930 . S
C563 C564 1.355 1_556 S
C563 C565 1.415 1_545 S
C564 C563 1.355 1_554 S
C564 C566 1.419 1_545 S
C565 C560 1.425 . S
C565 C562 1.409 . S
C565 C563 1.415 1_565 S
C566 H556 0.930 . S
C566 C564 1.419 1_565 S
C566 C567 1.362 1_554 S
C567 H557 0.930 . S
C567 C560 1.409 . S
C567 C566 1.362 1_556 S
H568 C574 0.930 . S
H569 C577 0.930 . S
H570 C578 0.930 . S
H571 C579 0.930 . S
H572 C582 0.930 . S
H573 C583 0.930 . S
C574 H568 0.930 . S
C574 C575 1.355 . S
C574 C576 1.415 . S
C575 C574 1.355 . S
C575 C577 1.419 . S
C576 C574 1.415 . S
C576 C581 1.425 . S
C576 C583 1.409 . S
C577 H569 0.930 . S
C577 C575 1.419 . S
C577 C578 1.362 . S
C578 H570 0.930 . S
C578 C577 1.362 . S
C578 C581 1.409 . S
C579 H571 0.930 . S
C579 C580 1.355 . S
C579 C581 1.415 . S
C580 C579 1.355 . S
C580 C582 1.419 . S
C581 C576 1.425 . S
C581 C578 1.409 . S
C581 C579 1.415 . S
C582 H572 0.930 . S
C582 C580 1.419 . S
C582 C583 1.362 . S
C583 H573 0.930 . S
C583 C576 1.409 . S
C583 C582 1.362 . S
H584 C590 0.930 . S
H585 C593 0.930 . S
H586 C594 0.930 . S
H587 C595 0.930 . S
H588 C598 0.930 . S
H589 C599 0.930 . S
C590 H584 0.930 . S
C590 C591 1.355 . S
C590 C592 1.415 . S
C591 C590 1.355 . S
C591 C593 1.419 . S
C592 C590 1.415 . S
C592 C597 1.425 . S
C592 C599 1.409 1_455 S
C593 H585 0.930 . S
C593 C591 1.419 . S
C593 C594 1.362 . S
C594 H586 0.930 . S
C594 C593 1.362 . S
C594 C597 1.409 . S
C595 H587 0.930 . S
C595 C596 1.355 1_455 S
C595 C597 1.415 . S
C596 C595 1.355 1_655 S
C596 C598 1.419 . S
C597 C592 1.425 . S
C597 C594 1.409 . S
C597 C595 1.415 . S
C598 H588 0.930 . S
C598 C596 1.419 . S
C598 C599 1.362 . S
C599 H589 0.930 . S
C599 C592 1.409 1_655 S
C599 C598 1.362 . S
H600 C606 0.930 . S
H601 C609 0.930 1_545 S
H602 C610 0.930 . S
H603 C611 0.930 . S
H604 C614 0.933 . S
H605 C615 0.930 . S
C606 H600 0.930 . S
C606 C607 1.355 . S
C606 C608 1.415 . S
C607 C606 1.355 . S
C607 C609 1.419 . S
C608 C606 1.415 . S
C608 C613 1.425 1_565 S
C608 C615 1.409 1_554 S
C609 H601 0.930 1_565 S
C609 C607 1.419 . S
C609 C610 1.362 1_565 S
C610 H602 0.930 . S
C610 C609 1.362 1_545 S
C610 C613 1.409 . S
C611 H603 0.930 . S
C611 C612 1.355 . S
C611 C613 1.415 1_556 S
C612 C611 1.355 . S
C612 C614 1.411 1_545 S
C613 C608 1.425 1_545 S
C613 C610 1.409 . S
C613 C611 1.415 1_554 S
C614 H604 0.933 . S
C614 C612 1.411 1_565 S
C614 C615 1.367 . S
C615 H605 0.930 . S
C615 C608 1.409 1_556 S
C615 C614 1.367 . S
H616 C622 0.930 . S
H617 C625 0.930 . S
H618 C626 0.930 . S
H619 C627 0.930 . S
H620 C630 0.930 . S
H621 C631 0.930 . S
C622 H616 0.930 . S
C622 C623 1.355 . S
C622 C624 1.415 . S
C623 C622 1.355 . S
C623 C625 1.419 . S
C624 C622 1.415 . S
C624 C629 1.425 . S
C624 C631 1.409 . S
C625 H617 0.930 . S
C625 C623 1.419 . S
C625 C626 1.362 . S
C626 H618 0.930 . S
C626 C625 1.362 . S
C626 C629 1.409 . S
C627 H619 0.930 . S
C627 C628 1.355 . S
C627 C629 1.415 . S
C628 C627 1.355 . S
C628 C630 1.419 . S
C629 C624 1.425 . S
C629 C626 1.409 . S
C629 C627 1.415 . S
C630 H620 0.930 . S
C630 C628 1.419 . S
C630 C631 1.362 . S
C631 H621 0.930 . S
C631 C624 1.409 . S
C631 C630 1.362 . S
H632 C638 0.930 . S
H633 C641 0.930 . S
H634 C642 0.930 . S
H635 C643 0.930 . S
H636 C646 0.930 . S
H637 C647 0.930 . S
C638 H632 0.930 . S
C638 C639 1.355 . S
C638 C640 1.415 1_455 S
C639 C638 1.355 . S
C639 C641 1.419 . S
C640 C638 1.415 1_655 S
C640 C645 1.425 1_655 S
C640 C647 1.409 . S
C641 H633 0.930 . S
C641 C639 1.419 . S
C641 C642 1.362 . S
C642 H634 0.930 . S
C642 C641 1.362 . S
C642 C645 1.409 . S
C643 H635 0.930 . S
C643 C644 1.355 . S
C643 C645 1.415 1_655 S
C644 C643 1.355 . S
C644 C646 1.419 . S
C645 C640 1.425 1_455 S
C645 C642 1.409 . S
C645 C643 1.415 1_455 S
C646 H636 0.930 . S
C646 C644 1.419 . S
C646 C647 1.362 . S
C647 H637 0.930 . S
C647 C640 1.409 . S
C647 C646 1.362 . S
H648 C654 0.930 . S
H649 C657 0.930 . S
H650 C658 0.930 . S
H651 C659 0.930 . S
H652 C662 0.930 . S
H653 C663 0.930 . S
C654 H648 0.930 . S
C654 C655 1.355 . S
C654 C656 1.415 . S
C655 C654 1.355 . S
C655 C657 1.419 . S
C656 C654 1.415 . S
C656 C661 1.425 1_545 S
C656 C663 1.409 . S
C657 H649 0.930 . S
C657 C655 1.419 . S
C657 C658 1.362 1_545 S
C658 H650 0.930 . S
C658 C657 1.362 1_565 S
C658 C661 1.409 . S
C659 H651 0.930 . S
C659 C660 1.355 . S
C659 C661 1.415 . S
C660 C659 1.355 . S
C660 C662 1.419 . S
C661 C656 1.425 1_565 S
C661 C658 1.409 . S
C661 C659 1.415 . S
C662 H652 0.930 . S
C662 C660 1.419 . S
C662 C663 1.362 1_565 S
C663 H653 0.930 . S
C663 C656 1.409 . S
C663 C662 1.362 1_545 S
H664 C670 0.930 . S
H665 C673 0.930 . S
H666 C674 0.930 . S
H667 C675 0.930 . S
H668 C678 0.930 . S
H669 C679 0.930 . S
C670 H664 0.930 . S
C670 C671 1.355 . S
C670 C672 1.415 . S
C671 C670 1.355 . S
C671 C673 1.419 . S
C672 C670 1.415 . S
C672 C677 1.425 . S
C672 C679 1.409 . S
C673 H665 0.930 . S
C673 C671 1.419 . S
C673 C674 1.362 . S
C674 H666 0.930 . S
C674 C673 1.362 . S
C674 C677 1.409 . S
C675 H667 0.930 . S
C675 C676 1.355 . S
C675 C677 1.415 . S
C676 C675 1.355 . S
C676 C678 1.419 . S
C677 C672 1.425 . S
C677 C674 1.409 . S
C677 C675 1.415 . S
C678 H668 0.930 . S
C678 C676 1.419 . S
C678 C679 1.362 . S
C679 H669 0.930 . S
C679 C672 1.409 . S
C679 C678 1.362 . S
H680 C686 0.930 1_455 S
H681 C689 0.930 . S
H682 C690 0.930 . S
H683 C691 0.930 . S
H684 C694 0.929 1_554 S
H685 C695 0.930 . S
C686 H680 0.930 1_655 S
C686 C687 1.355 . S
C686 C688 1.415 1_655 S
C687 C686 1.355 . S
C687 C689 1.419 . S
C688 C686 1.415 1_455 S
C688 C693 1.425 1_455 S
C688 C695 1.409 . S
C689 H681 0.930 . S
C689 C687 1.419 . S
C689 C690 1.362 . S
C690 H682 0.930 . S
C690 C689 1.362 . S
C690 C693 1.409 . S
C691 H683 0.930 . S
C691 C692 1.355 . S
C691 C693 1.415 1_455 S
C692 C691 1.355 . S
C692 C694 1.419 . S
C693 C688 1.425 1_655 S
C693 C690 1.409 . S
C693 C691 1.415 1_655 S
C694 H684 0.929 1_556 S
C694 C692 1.419 . S
C694 C695 1.362 . S
C695 H685 0.930 . S
C695 C688 1.409 . S
C695 C694 1.362 . S
H696 C702 0.930 . S
H697 C705 0.930 . S
H698 C706 0.933 . S
H699 C707 0.930 . S
H700 C710 0.930 . S
H701 C711 0.930 1_455 S
C702 H696 0.930 . S
C702 C703 1.355 . S
C702 C704 1.415 . S
C703 C702 1.355 . S
C703 C705 1.419 . S
C704 C702 1.415 . S
C704 C709 1.425 1_455 S
C704 C711 1.409 1_455 S
C705 H697 0.930 . S
C705 C703 1.419 . S
C705 C706 1.362 . S
C706 H698 0.933 . S
C706 C705 1.362 . S
C706 C709 1.409 1_455 S
C707 H699 0.930 . S
C707 C708 1.355 . S
C707 C709 1.415 . S
C708 C707 1.355 . S
C708 C710 1.419 . S
C709 C704 1.425 1_655 S
C709 C706 1.409 1_655 S
C709 C707 1.415 . S
C710 H700 0.930 . S
C710 C708 1.419 . S
C710 C711 1.362 . S
C711 H701 0.930 1_655 S
C711 C704 1.409 1_655 S
C711 C710 1.362 . S
H712 C718 0.930 1_545 S
H713 C721 0.930 . S
H714 C722 0.930 . S
H715 C723 0.930 1_565 S
H716 C726 0.930 . S
H717 C727 0.930 . S
C718 H712 0.930 1_565 S
C718 C719 1.355 . S
C718 C720 1.415 1_565 S
C719 C718 1.355 . S
C719 C721 1.419 . S
C720 C718 1.415 1_545 S
C720 C725 1.425 1_545 S
C720 C727 1.409 . S
C721 H713 0.930 . S
C721 C719 1.419 . S
C721 C722 1.362 . S
C722 H714 0.930 . S
C722 C721 1.362 . S
C722 C725 1.409 . S
C723 H715 0.930 1_545 S
C723 C724 1.355 . S
C723 C725 1.415 1_545 S
C724 C723 1.355 . S
C724 C726 1.419 . S
C725 C720 1.425 1_565 S
C725 C722 1.409 . S
C725 C723 1.415 1_565 S
C726 H716 0.930 . S
C726 C724 1.419 . S
C726 C727 1.362 . S
C727 H717 0.930 . S
C727 C720 1.409 . S
C727 C726 1.362 . S
H728 C734 0.930 . S
H729 C737 0.930 . S
H730 C738 0.930 . S
H731 C739 0.930 . S
H732 C742 0.930 1_556 S
H733 C743 0.930 1_556 S
C734 H728 0.930 . S
C734 C735 1.355 . S
C734 C736 1.415 . S
C735 C734 1.355 . S
C735 C737 1.419 . S
C736 C734 1.415 . S
C736 C741 1.425 . S
C736 C743 1.409 . S
C737 H729 0.930 . S
C737 C735 1.419 . S
C737 C738 1.362 . S
C738 H730 0.930 . S
C738 C737 1.362 . S
C738 C741 1.409 . S
C739 H731 0.930 . S
C739 C740 1.355 . S
C739 C741 1.415 . S
C740 C739 1.355 . S
C740 C742 1.419 . S
C741 C736 1.425 . S
C741 C738 1.409 . S
C741 C739 1.415 . S
C742 H732 0.930 1_554 S
C742 C740 1.419 . S
C742 C743 1.362 . S
C743 H733 0.930 1_554 S
C743 C736 1.409 . S
C743 C742 1.362 . S
H744 C750 0.920 . S
H745 C753 0.930 . S
H746 C754 0.930 . S
H747 C755 0.930 . S
H748 C758 0.930 . S
H749 C759 0.930 . S
C750 H744 0.920 . S
C750 C751 1.355 . S
C750 C752 1.415 1_565 S
C751 C750 1.355 . S
C751 C753 1.419 . S
C752 C750 1.415 1_545 S
C752 C757 1.425 . S
C752 C759 1.409 . S
C753 H745 0.930 . S
C753 C751 1.419 . S
C753 C754 1.362 . S
C754 H746 0.930 . S
C754 C753 1.362 . S
C754 C757 1.409 1_565 S
C755 H747 0.930 . S
C755 C756 1.355 . S
C755 C757 1.415 . S
C756 C755 1.355 . S
C756 C758 1.419 . S
C757 C752 1.425 . S
C757 C754 1.409 1_545 S
C757 C755 1.415 . S
C758 H748 0.930 . S
C758 C756 1.419 . S
C758 C759 1.362 . S
C759 H749 0.930 . S
C759 C752 1.409 . S
C759 C758 1.362 . S
H760 C766 0.930 . S
H761 C769 0.930 . S
H762 C770 0.930 . S
H763 C771 0.930 . S
H764 C774 0.930 . S
H765 C775 0.930 . S
C766 H760 0.930 . S
C766 C767 1.355 . S
C766 C768 1.415 . S
C767 C766 1.355 . S
C767 C769 1.419 . S
C768 C766 1.415 . S
C768 C773 1.425 . S
C768 C775 1.409 . S
C769 H761 0.930 . S
C769 C767 1.419 . S
C769 C770 1.362 . S
C770 H762 0.930 . S
C770 C769 1.362 . S
C770 C773 1.409 . S
C771 H763 0.930 . S
C771 C772 1.355 . S
C771 C773 1.415 . S
C772 C771 1.355 . S
C772 C774 1.419 . S
C773 C768 1.425 . S
C773 C770 1.409 . S
C773 C771 1.415 . S
C774 H764 0.930 . S
C774 C772 1.419 . S
C774 C775 1.362 . S
C775 H765 0.930 . S
C775 C768 1.409 . S
C775 C774 1.362 . S
H776 C782 0.930 . S
H777 C785 0.930 . S
H778 C786 0.930 . S
H779 C787 0.930 . S
H780 C790 0.930 . S
H781 C791 0.930 . S
C782 H776 0.930 . S
C782 C783 1.355 . S
C782 C784 1.415 . S
C783 C782 1.355 . S
C783 C785 1.419 1_554 S
C784 C782 1.415 . S
C784 C789 1.425 1_655 S
C784 C791 1.409 . S
C785 H777 0.930 . S
C785 C783 1.419 1_556 S
C785 C786 1.362 1_656 S
C786 H778 0.930 . S
C786 C785 1.362 1_454 S
C786 C789 1.409 . S
C787 H779 0.930 . S
C787 C788 1.355 . S
C787 C789 1.415 . S
C788 C787 1.355 . S
C788 C790 1.419 1_455 S
C789 C784 1.425 1_455 S
C789 C786 1.409 . S
C789 C787 1.415 . S
C790 H780 0.930 . S
C790 C788 1.419 1_655 S
C790 C791 1.362 . S
C791 H781 0.930 . S
C791 C784 1.409 . S
C791 C790 1.362 . S
H792 C798 0.930 . S
H793 C801 0.927 1_565 S
H794 C802 0.930 . S
H795 C803 0.930 . S
H796 C806 0.936 . S
H797 C807 0.930 . S
C798 H792 0.930 . S
C798 C799 1.355 . S
C798 C800 1.415 . S
C799 C798 1.355 . S
C799 C801 1.430 . S
C800 C798 1.415 . S
C800 C805 1.425 1_545 S
C800 C807 1.409 . S
C801 H793 0.927 1_545 S
C801 C799 1.430 . S
C801 C802 1.354 1_545 S
C802 H794 0.930 . S
C802 C801 1.354 1_565 S
C802 C805 1.409 . S
C803 H795 0.930 . S
C803 C804 1.355 . S
C803 C805 1.415 . S
C804 C803 1.355 . S
C804 C806 1.419 . S
C805 C800 1.425 1_565 S
C805 C802 1.409 . S
C805 C803 1.415 . S
C806 H796 0.936 . S
C806 C804 1.419 . S
C806 C807 1.362 1_565 S
C807 H797 0.930 . S
C807 C800 1.409 . S
C807 C806 1.362 1_545 S
H808 C814 0.930 . S
H809 C817 0.930 . S
H810 C818 0.930 . S
H811 C819 0.930 . S
H812 C822 0.930 . S
H813 C823 0.930 . S
C814 H808 0.930 . S
C814 C815 1.355 . S
C814 C816 1.415 . S
C815 C814 1.355 . S
C815 C817 1.419 . S
C816 C814 1.415 . S
C816 C821 1.425 . S
C816 C823 1.409 . S
C817 H809 0.930 . S
C817 C815 1.419 . S
C817 C818 1.362 . S
C818 H810 0.930 . S
C818 C817 1.362 . S
C818 C821 1.409 . S
C819 H811 0.930 . S
C819 C820 1.355 . S
C819 C821 1.415 . S
C820 C819 1.355 . S
C820 C822 1.419 . S
C821 C816 1.425 . S
C821 C818 1.409 . S
C821 C819 1.415 . S
C822 H812 0.930 . S
C822 C820 1.419 . S
C822 C823 1.362 . S
C823 H813 0.930 . S
C823 C816 1.409 . S
C823 C822 1.362 . S
H824 C830 0.930 1_655 S
H825 C833 0.930 . S
H826 C834 0.930 . S
H827 C835 0.930 1_455 S
H828 C838 0.930 . S
H829 C839 0.930 . S
C830 H824 0.930 1_455 S
C830 C831 1.355 . S
C830 C832 1.415 1_455 S
C831 C830 1.355 . S
C831 C833 1.419 . S
C832 C830 1.415 1_655 S
C832 C837 1.425 1_655 S
C832 C839 1.409 . S
C833 H825 0.930 . S
C833 C831 1.419 . S
C833 C834 1.362 . S
C834 H826 0.930 . S
C834 C833 1.362 . S
C834 C837 1.409 . S
C835 H827 0.930 1_655 S
C835 C836 1.355 . S
C835 C837 1.415 1_655 S
C836 C835 1.355 . S
C836 C838 1.419 . S
C837 C832 1.425 1_455 S
C837 C834 1.409 . S
C837 C835 1.415 1_455 S
C838 H828 0.930 . S
C838 C836 1.419 . S
C838 C839 1.362 . S
C839 H829 0.930 . S
C839 C832 1.409 . S
C839 C838 1.362 . S
H840 C846 0.930 . S
H841 C849 0.930 . S
H842 C850 0.930 . S
H843 C851 0.930 . S
H844 C854 0.930 . S
H845 C855 0.930 . S
C846 H840 0.930 . S
C846 C847 1.355 . S
C846 C848 1.415 . S
C847 C846 1.355 . S
C847 C849 1.419 . S
C848 C846 1.415 . S
C848 C853 1.425 . S
C848 C855 1.409 . S
C849 H841 0.930 . S
C849 C847 1.419 . S
C849 C850 1.362 . S
C850 H842 0.930 . S
C850 C849 1.362 . S
C850 C853 1.409 . S
C851 H843 0.930 . S
C851 C852 1.355 . S
C851 C853 1.415 . S
C852 C851 1.355 . S
C852 C854 1.419 . S
C853 C848 1.425 . S
C853 C850 1.409 . S
C853 C851 1.415 . S
C854 H844 0.930 . S
C854 C852 1.419 . S
C854 C855 1.362 . S
C855 H845 0.930 . S
C855 C848 1.409 . S
C855 C854 1.362 . S
H856 C862 0.930 . S
H857 C865 0.930 . S
H858 C866 0.930 . S
H859 C867 0.930 . S
H860 C870 0.930 1_554 S
H861 C871 0.930 . S
C862 H856 0.930 . S
C862 C863 1.355 . S
C862 C864 1.415 . S
C863 C862 1.355 . S
C863 C865 1.419 . S
C864 C862 1.415 . S
C864 C869 1.425 . S
C864 C871 1.409 . S
C865 H857 0.930 . S
C865 C863 1.419 . S
C865 C866 1.362 . S
C866 H858 0.930 . S
C866 C865 1.362 . S
C866 C869 1.409 . S
C867 H859 0.930 . S
C867 C868 1.355 . S
C867 C869 1.415 . S
C868 C867 1.355 . S
C868 C870 1.419 . S
C869 C864 1.425 . S
C869 C866 1.409 . S
C869 C867 1.415 . S
C870 H860 0.930 1_556 S
C870 C868 1.419 . S
C870 C871 1.362 . S
C871 H861 0.930 . S
C871 C864 1.409 . S
C871 C870 1.362 . S
H872 C878 0.930 . S
H873 C881 0.930 . S
H874 C882 0.930 . S
H875 C883 0.930 . S
H876 C886 0.930 . S
H877 C887 0.930 . S
C878 H872 0.930 . S
C878 C879 1.355 . S
C878 C880 1.415 . S
C879 C878 1.355 . S
C879 C881 1.419 . S
C880 C878 1.415 . S
C880 C885 1.425 . S
C880 C887 1.409 . S
C881 H873 0.930 . S
C881 C879 1.419 . S
C881 C882 1.362 . S
C882 H874 0.930 . S
C882 C881 1.362 . S
C882 C885 1.409 . S
C883 H875 0.930 . S
C883 C884 1.355 . S
C883 C885 1.415 . S
C884 C883 1.355 . S
C884 C886 1.419 . S
C885 C880 1.425 . S
C885 C882 1.409 . S
C885 C883 1.415 . S
C886 H876 0.930 . S
C886 C884 1.419 . S
C886 C887 1.362 . S
C887 H877 0.930 . S
C887 C880 1.409 . S
C887 C886 1.362 . S
H888 C894 0.930 . S
H889 C897 0.930 . S
H890 C898 0.930 . S
H891 C899 0.930 . S
H892 C902 0.930 . S
H893 C903 0.930 . S
C894 H888 0.930 . S
C894 C895 1.355 . S
C894 C896 1.415 . S
C895 C894 1.355 . S
C895 C897 1.419 . S
C896 C894 1.415 . S
C896 C901 1.425 . S
C896 C903 1.409 . S
C897 H889 0.930 . S
C897 C895 1.419 . S
C897 C898 1.362 . S
C898 H890 0.930 . S
C898 C897 1.362 . S
C898 C901 1.409 . S
C899 H891 0.930 . S
C899 C900 1.355 . S
C899 C901 1.415 . S
C900 C899 1.355 . S
C900 C902 1.419 . S
C901 C896 1.425 . S
C901 C898 1.409 . S
C901 C899 1.415 . S
C902 H892 0.930 . S
C902 C900 1.419 . S
C902 C903 1.362 . S
C903 H893 0.930 . S
C903 C896 1.409 . S
C903 C902 1.362 . S
H904 C910 0.930 . S
H905 C913 0.930 . S
H906 C914 0.930 . S
H907 C915 0.930 . S
H908 C918 0.930 . S
H909 C919 0.930 . S
C910 H904 0.930 . S
C910 C911 1.355 . S
C910 C912 1.415 . S
C911 C910 1.355 . S
C911 C913 1.419 . S
C912 C910 1.415 . S
C912 C917 1.425 . S
C912 C919 1.409 . S
C913 H905 0.930 . S
C913 C911 1.419 . S
C913 C914 1.362 . S
C914 H906 0.930 . S
C914 C913 1.362 . S
C914 C917 1.409 . S
C915 H907 0.930 . S
C915 C916 1.355 . S
C915 C917 1.415 . S
C916 C915 1.355 . S
C916 C918 1.419 . S
C917 C912 1.425 . S
C917 C914 1.409 . S
C917 C915 1.415 . S
C918 H908 0.930 . S
C918 C916 1.419 . S
C918 C919 1.362 . S
C919 H909 0.930 . S
C919 C912 1.409 . S
C919 C918 1.362 . S
H920 C926 0.930 . S
H921 C929 0.930 . S
H922 C930 0.930 . S
H923 C931 0.930 . S
H924 C934 0.930 . S
H925 C935 0.930 . S
C926 H920 0.930 . S
C926 C927 1.355 . S
C926 C928 1.415 . S
C927 C926 1.355 . S
C927 C929 1.419 . S
C928 C926 1.415 . S
C928 C933 1.425 . S
C928 C935 1.409 . S
C929 H921 0.930 . S
C929 C927 1.419 . S
C929 C930 1.362 . S
C930 H922 0.930 . S
C930 C929 1.362 . S
C930 C933 1.409 . S
C931 H923 0.930 . S
C931 C932 1.355 . S
C931 C933 1.415 . S
C932 C931 1.355 . S
C932 C934 1.419 . S
C933 C928 1.425 . S
C933 C930 1.409 . S
C933 C931 1.415 . S
C934 H924 0.930 . S
C934 C932 1.419 . S
C934 C935 1.362 . S
C935 H925 0.930 . S
C935 C928 1.409 . S
C935 C934 1.362 . S
C367 C10 0.811 . S
C372 C250 0.798 . S
C383 C40 1.170 . S
C388 C271 1.203 . S
C399 C70 0.824 . S
C404 C310 0.836 . S
C415 C331 1.244 . S
C420 C100 1.243 . S
C431 C130 0.840 . S
C436 C190 0.851 . S
C447 C211 1.210 . S
C452 C160 1.177 . S
C463 C316 2.200 . S
C468 C16 2.230 . S
C479 N344 1.550 . S
C484 C46 1.709 . S
C495 C76 2.240 . S
C500 C196 2.181 . S
C511 N224 1.547 . S
C516 C106 1.705 . S
C527 C256 2.207 . S
C532 C136 2.225 . S
C543 C166 1.678 . S
C548 N284 1.612 . S
C559 C237 0.775 . S
C564 N6 0.777 . S
C575 N246 0.700 . S
C580 N36 0.535 . S
C591 C297 0.791 . S
C596 N66 0.884 . S
C607 N96 0.558 . S
C612 N306 0.569 . S
C623 N126 0.723 . S
C628 C357 0.787 . S
C639 N156 0.575 . S
C644 N186 0.731 . S
C655 C1 0.920 . S
C660 C91 0.912 . S
C671 C31 0.922 . S
C676 C121 0.917 . S
C687 C61 0.851 . S
C692 C151 0.847 . S
C703 C280 0.768 . S
C708 C181 0.774 . S
C719 C220 0.747 . S
C724 C301 0.710 . S
C735 C340 0.738 . S
C740 C241 0.717 . S
C751 N216 2.131 . S
C756 C27 2.083 . S
C767 C267 2.224 1_556 S
C772 C57 2.261 . S
C783 C87 2.098 1_554 S
C788 N276 2.113 . S
C799 C327 2.217 . S
C804 C117 2.244 . S
C815 N336 2.130 . S
C820 C147 2.082 . S
C831 C177 2.261 . S
C836 C207 2.225 . S
C847 N14 0.667 . S
C852 N314 0.667 . S
C863 N44 1.213 . S
C868 C346 1.162 1_556 S
C879 N74 0.649 . S
C884 N194 0.653 . S
C895 N104 1.220 . S
C900 C226 1.171 . S
C911 N134 0.678 . S
C916 N254 0.670 . S
C927 C286 1.162 . S
C932 N164 1.210 . S
