# Generated by pormake.
# Topology smn, (6)-cn, num edge types: 1
# Building blocks:
#     Node 0, Type 0, BuildingBlock: VOLQOD_clean_sbu_1, # of connection points: 6
#     Node 1, Type 0, BuildingBlock: VOLQOD_clean_sbu_1, # of connection points: 6
#     Node 2, Type 0, BuildingBlock: VOLQOD_clean_sbu_1, # of connection points: 6
#     Node 3, Type 0, BuildingBlock: VOLQOD_clean_sbu_1, # of connection points: 6
#     Node 4, Type 0, BuildingBlock: VOLQOD_clean_sbu_1, # of connection points: 6
#     Node 5, Type 0, BuildingBlock: VOLQOD_clean_sbu_1, # of connection points: 6
#     Node 6, Type 0, BuildingBlock: VOLQOD_clean_sbu_1, # of connection points: 6
#     Node 7, Type 0, BuildingBlock: VOLQOD_clean_sbu_1, # of connection points: 6
#     Node 8, Type 0, BuildingBlock: VOLQOD_clean_sbu_1, # of connection points: 6
#     Node 9, Type 0, BuildingBlock: VOLQOD_clean_sbu_1, # of connection points: 6
#     Node 10, Type 0, BuildingBlock: VOLQOD_clean_sbu_1, # of connection points: 6
#     Node 11, Type 0, BuildingBlock: VOLQOD_clean_sbu_1, # of connection points: 6
#     Node 12, Type 0, BuildingBlock: VOLQOD_clean_sbu_1, # of connection points: 6
#     Node 13, Type 0, BuildingBlock: VOLQOD_clean_sbu_1, # of connection points: 6
#     Node 14, Type 0, BuildingBlock: VOLQOD_clean_sbu_1, # of connection points: 6
#     Node 15, Type 0, BuildingBlock: VOLQOD_clean_sbu_1, # of connection points: 6
#     Node 16, Type 0, BuildingBlock: VOLQOD_clean_sbu_1, # of connection points: 6
#     Node 17, Type 0, BuildingBlock: VOLQOD_clean_sbu_1, # of connection points: 6
#     Edge 18, Type (0, 0), BuildingBlock: CIFDUS_clean_linker_0, # of connection points: 2
#     Edge 19, Type (0, 0), BuildingBlock: CIFDUS_clean_linker_0, # of connection points: 2
#     Edge 20, Type (0, 0), BuildingBlock: CIFDUS_clean_linker_0, # of connection points: 2
#     Edge 21, Type (0, 0), BuildingBlock: CIFDUS_clean_linker_0, # of connection points: 2
#     Edge 22, Type (0, 0), BuildingBlock: CIFDUS_clean_linker_0, # of connection points: 2
#     Edge 23, Type (0, 0), BuildingBlock: CIFDUS_clean_linker_0, # of connection points: 2
#     Edge 24, Type (0, 0), BuildingBlock: CIFDUS_clean_linker_0, # of connection points: 2
#     Edge 25, Type (0, 0), BuildingBlock: CIFDUS_clean_linker_0, # of connection points: 2
#     Edge 26, Type (0, 0), BuildingBlock: CIFDUS_clean_linker_0, # of connection points: 2
#     Edge 27, Type (0, 0), BuildingBlock: CIFDUS_clean_linker_0, # of connection points: 2
#     Edge 28, Type (0, 0), BuildingBlock: CIFDUS_clean_linker_0, # of connection points: 2
#     Edge 29, Type (0, 0), BuildingBlock: CIFDUS_clean_linker_0, # of connection points: 2
#     Edge 30, Type (0, 0), BuildingBlock: CIFDUS_clean_linker_0, # of connection points: 2
#     Edge 31, Type (0, 0), BuildingBlock: CIFDUS_clean_linker_0, # of connection points: 2
#     Edge 32, Type (0, 0), BuildingBlock: CIFDUS_clean_linker_0, # of connection points: 2
#     Edge 33, Type (0, 0), BuildingBlock: CIFDUS_clean_linker_0, # of connection points: 2
#     Edge 34, Type (0, 0), BuildingBlock: CIFDUS_clean_linker_0, # of connection points: 2
#     Edge 35, Type (0, 0), BuildingBlock: CIFDUS_clean_linker_0, # of connection points: 2
#     Edge 36, Type (0, 0), BuildingBlock: CIFDUS_clean_linker_0, # of connection points: 2
#     Edge 37, Type (0, 0), BuildingBlock: CIFDUS_clean_linker_0, # of connection points: 2
#     Edge 38, Type (0, 0), BuildingBlock: CIFDUS_clean_linker_0, # of connection points: 2
#     Edge 39, Type (0, 0), BuildingBlock: CIFDUS_clean_linker_0, # of connection points: 2
#     Edge 40, Type (0, 0), BuildingBlock: CIFDUS_clean_linker_0, # of connection points: 2
#     Edge 41, Type (0, 0), BuildingBlock: CIFDUS_clean_linker_0, # of connection points: 2
#     Edge 42, Type (0, 0), BuildingBlock: CIFDUS_clean_linker_0, # of connection points: 2
#     Edge 43, Type (0, 0), BuildingBlock: CIFDUS_clean_linker_0, # of connection points: 2
#     Edge 44, Type (0, 0), BuildingBlock: CIFDUS_clean_linker_0, # of connection points: 2
#     Edge 45, Type (0, 0), BuildingBlock: CIFDUS_clean_linker_0, # of connection points: 2
#     Edge 46, Type (0, 0), BuildingBlock: CIFDUS_clean_linker_0, # of connection points: 2
#     Edge 47, Type (0, 0), BuildingBlock: CIFDUS_clean_linker_0, # of connection points: 2
#     Edge 48, Type (0, 0), BuildingBlock: CIFDUS_clean_linker_0, # of connection points: 2
#     Edge 49, Type (0, 0), BuildingBlock: CIFDUS_clean_linker_0, # of connection points: 2
#     Edge 50, Type (0, 0), BuildingBlock: CIFDUS_clean_linker_0, # of connection points: 2
#     Edge 51, Type (0, 0), BuildingBlock: CIFDUS_clean_linker_0, # of connection points: 2
#     Edge 52, Type (0, 0), BuildingBlock: CIFDUS_clean_linker_0, # of connection points: 2
#     Edge 53, Type (0, 0), BuildingBlock: CIFDUS_clean_linker_0, # of connection points: 2
#     Edge 54, Type (0, 0), BuildingBlock: CIFDUS_clean_linker_0, # of connection points: 2
#     Edge 55, Type (0, 0), BuildingBlock: CIFDUS_clean_linker_0, # of connection points: 2
#     Edge 56, Type (0, 0), BuildingBlock: CIFDUS_clean_linker_0, # of connection points: 2
#     Edge 57, Type (0, 0), BuildingBlock: CIFDUS_clean_linker_0, # of connection points: 2
#     Edge 58, Type (0, 0), BuildingBlock: CIFDUS_clean_linker_0, # of connection points: 2
#     Edge 59, Type (0, 0), BuildingBlock: CIFDUS_clean_linker_0, # of connection points: 2
#     Edge 60, Type (0, 0), BuildingBlock: CIFDUS_clean_linker_0, # of connection points: 2
#     Edge 61, Type (0, 0), BuildingBlock: CIFDUS_clean_linker_0, # of connection points: 2
#     Edge 62, Type (0, 0), BuildingBlock: CIFDUS_clean_linker_0, # of connection points: 2
#     Edge 63, Type (0, 0), BuildingBlock: CIFDUS_clean_linker_0, # of connection points: 2
#     Edge 64, Type (0, 0), BuildingBlock: CIFDUS_clean_linker_0, # of connection points: 2
#     Edge 65, Type (0, 0), BuildingBlock: CIFDUS_clean_linker_0, # of connection points: 2
#     Edge 66, Type (0, 0), BuildingBlock: CIFDUS_clean_linker_0, # of connection points: 2
#     Edge 67, Type (0, 0), BuildingBlock: CIFDUS_clean_linker_0, # of connection points: 2
#     Edge 68, Type (0, 0), BuildingBlock: CIFDUS_clean_linker_0, # of connection points: 2
#     Edge 69, Type (0, 0), BuildingBlock: CIFDUS_clean_linker_0, # of connection points: 2
#     Edge 70, Type (0, 0), BuildingBlock: CIFDUS_clean_linker_0, # of connection points: 2
#     Edge 71, Type (0, 0), BuildingBlock: CIFDUS_clean_linker_0, # of connection points: 2
# Relax obj value: 0.237
# Max RMSD: 0.243
# Mean RMSD: 0.242
data_MOF--net-smn--node1-VOLQOD_clean_sbu_1--edge1-CIFDUS_clean_linker_0
_symmetry_space_group_name_H-M    P1
_symmetry_Int_Tables_number       1
_symmetry_cell_setting            triclinic
loop_
_symmetry_equiv_pos_as_xyz
'x, y, z'
_cell_length_a     56.53015
_cell_length_b     56.527871
_cell_length_c     18.962354
_cell_angle_alpha  89.639925
_cell_angle_beta   90.243324
_cell_angle_gamma 119.93305
loop_
_atom_site_label
_atom_site_type_symbol
_atom_site_fract_x
_atom_site_fract_y
_atom_site_fract_z
_atom_type_partial_charge
O0 O 0.01275 0.25096 0.63242 0.0
Zn1 Zn 0.98467 0.21688 0.67999 0.0
O2 O 0.00248 0.20466 0.74564 0.0
Zn3 Zn -0.00071 0.16988 0.72055 0.0
Zn4 Zn 0.03955 0.23285 0.75961 0.0
Zn5 Zn 0.9856 0.19958 0.83383 0.0
O6 O 0.97264 0.13853 0.78739 0.0
O7 O 0.9559 0.16188 0.84073 0.0
O8 O 0.96587 0.18861 0.60383 0.0
O9 O 0.98072 0.15954 0.62681 0.0
O10 O 0.03749 0.17511 0.70291 0.0
O11 O 0.06291 0.22014 0.71588 0.0
O12 O 0.0502 0.23784 0.86273 0.0
O13 O 0.96038 0.22833 0.73144 0.0
O14 O 0.01196 0.20525 0.91104 0.0
O15 O 0.9694 0.22348 0.8432 0.0
C16 C 0.03618 0.26988 0.65171 0.0
C17 C 0.95427 0.13933 0.825 0.0
C18 C 0.06045 0.19734 0.69838 0.0
C19 C 0.96784 0.16774 0.5878 0.0
C20 C 0.03724 0.22267 0.91511 0.0
C21 C 0.95861 0.23174 0.79734 0.0
O22 O 0.04801 0.26727 0.7063 0.0
O23 O 0.76779 0.7836 0.65553 0.0
Zn24 Zn 0.80513 0.78997 0.68617 0.0
O25 O 0.82042 0.81974 0.75374 0.0
Zn26 Zn 0.85505 0.85084 0.72707 0.0
Zn27 Zn 0.79507 0.83167 0.77538 0.0
Zn28 Zn 0.82803 0.8076 0.83876 0.0
O29 O 0.88793 0.85437 0.78409 0.0
O30 O 0.86518 0.8139 0.83587 0.0
O31 O 0.83098 0.80093 0.59928 0.0
O32 O 0.86183 0.8432 0.63063 0.0
O33 O 0.85203 0.885 0.71507 0.0
O34 O 0.807 0.8666 0.72301 0.0
O35 O 0.79674 0.84073 0.87924 0.0
O36 O 0.79722 0.75421 0.73754 0.0
O37 O 0.82604 0.82864 0.92057 0.0
O38 O 0.80495 0.76789 0.84968 0.0
C39 C 0.75075 0.7889 0.6855 0.0
C40 C 0.88755 0.83451 0.81767 0.0
C41 C 0.83036 0.88647 0.70647 0.0
C42 C 0.85227 0.82401 0.58585 0.0
C43 C 0.81177 0.84007 0.92878 0.0
C44 C 0.79638 0.74909 0.80376 0.0
O45 O 0.75754 0.80476 0.73869 0.0
O46 O 0.23698 -0.00064 0.653 0.0
Zn47 Zn 0.23392 0.03136 0.68894 0.0
O48 O 0.20314 0.01803 0.75246 0.0
Zn49 Zn 0.17416 0.02382 0.71705 0.0
Zn50 Zn 0.19032 0.98049 0.7746 0.0
Zn51 Zn 0.21449 0.03658 0.83941 0.0
O52 O 0.17004 0.05215 0.77649 0.0
O53 O 0.20908 0.06813 0.83535 0.0
O54 O 0.22857 0.05135 0.60505 0.0
O55 O 0.18567 0.04146 0.62233 0.0
O56 O 0.13992 0.9871 0.6985 0.0
O57 O 0.15529 0.95865 0.72399 0.0
O58 O 0.18125 0.9721 0.87769 0.0
O59 O 0.26923 0.05432 0.74439 0.0
O60 O 0.19128 0.0127 0.91934 0.0
O61 O 0.25426 0.05059 0.85463 0.0
C62 C 0.2309 0.97669 0.6826 0.0
C63 C 0.18912 0.07063 0.814 0.0
C64 C 0.13693 0.96312 0.69925 0.0
C65 C 0.20725 0.05199 0.58501 0.0
C66 C 0.18059 0.98701 0.92686 0.0
C67 C 0.27375 0.05822 0.81065 0.0
O68 O 0.21578 0.96827 0.73729 0.0
O69 O 0.05174 0.80392 0.27282 0.0
Zn70 Zn 0.02608 0.81581 0.31621 0.0
O71 O 0.00927 0.82609 0.24256 0.0
Zn72 Zn 0.00896 0.85965 0.25959 0.0
Zn73 Zn 0.02917 0.83224 0.15944 0.0
Zn74 Zn 0.97383 0.79628 0.22256 0.0
O75 O 0.96935 0.85104 0.2747 0.0
O76 O 0.94743 0.80589 0.26212 0.0
O77 O 0.04363 0.84668 0.38833 0.0
O78 O 0.02743 0.87343 0.35177 0.0
O79 O 0.03461 0.89075 0.19055 0.0
O80 O 0.05763 0.87049 0.15642 0.0
O81 O 0.00514 0.82537 0.07573 0.0
O82 O -0.00307 0.78196 0.36382 0.0
O83 O 0.96618 0.79156 0.11762 0.0
O84 O 0.96691 0.76258 0.27661 0.0
C85 C 0.05605 0.80121 0.208 0.0
C86 C 0.94751 0.82769 0.27877 0.0
C87 C 0.05592 0.89189 0.16356 0.0
C88 C 0.04086 0.86767 0.39587 0.0
C89 C 0.98035 0.80708 0.06697 0.0
C90 C 0.97592 0.76147 0.33775 0.0
O91 O 0.04695 0.8098 0.15854 0.0
O92 O 0.21745 0.26952 0.25911 0.0
Zn93 Zn 0.20733 0.23287 0.30735 0.0
O94 O 0.19477 0.20438 0.23613 0.0
Zn95 Zn 0.15952 0.17279 0.256 0.0
Zn96 Zn 0.1914 0.21834 0.14827 0.0
Zn97 Zn 0.22101 0.19312 0.22271 0.0
O98 O 0.16286 0.13878 0.27415 0.0
O99 O 0.20809 0.15803 0.27427 0.0
O100 O 0.17846 0.22107 0.38667 0.0
O101 O 0.14853 0.17949 0.34877 0.0
O102 O 0.12906 0.17023 0.18991 0.0
O103 O 0.15397 0.21084 0.13953 0.0
O104 O 0.19816 0.19973 0.06728 0.0
O105 O 0.24342 0.23923 0.34747 0.0
O106 O 0.22438 0.18605 0.12041 0.0
O107 O 0.25665 0.2202 0.26551 0.0
C108 C 0.22139 0.2764 0.19386 0.0
C109 C 0.18458 0.13784 0.2878 0.0
C110 C 0.13093 0.19035 0.15405 0.0
C111 C 0.15638 0.19817 0.39475 0.0
C112 C 0.21276 0.18845 0.06532 0.0
C113 C 0.26165 0.23522 0.31968 0.0
O114 O 0.21462 0.25868 0.14534 0.0
O115 O 0.74624 0.97447 0.26367 0.0
Zn116 Zn 0.78192 0.99681 0.31653 0.0
O117 O 0.81218 0.00945 0.25078 0.0
Zn118 Zn 0.83867 -0.00123 0.27958 0.0
Zn119 Zn 0.79926 0.99451 0.1604 0.0
Zn120 Zn 0.82837 0.04793 0.23714 0.0
O121 O 0.87591 0.03268 0.29621 0.0
O122 O 0.86377 0.06448 0.28632 0.0
O123 O 0.7867 0.9761 0.39887 0.0
O124 O 0.82778 0.98191 0.37512 0.0
O125 O 0.83652 0.96762 0.2175 0.0
O126 O 0.80084 0.96101 0.15317 0.0
O127 O 0.82216 0.01957 0.08161 0.0
O128 O 0.7797 0.02887 0.35506 0.0
O129 O 0.83717 0.05928 0.13546 0.0
O130 O 0.80602 0.06262 0.28161 0.0
C131 C 0.74107 0.97309 0.19769 0.0
C132 C 0.88107 0.0573 0.30351 0.0
C133 C 0.81701 0.95312 0.17493 0.0
C134 C 0.80718 0.97343 0.41554 0.0
C135 C 0.83515 0.04552 0.08063 0.0
C136 C 0.78884 0.05313 0.33202 0.0
O137 O 0.75999 0.98286 0.15165 0.0
O138 O 0.6837 0.58553 0.96853 0.0
Zn139 Zn 0.65528 0.55193 0.01782 0.0
O140 O 0.67269 0.53812 0.0803 0.0
Zn141 Zn 0.66532 0.50167 0.05438 0.0
Zn142 Zn 0.71106 0.564 0.0865 0.0
Zn143 Zn 0.65865 0.53516 0.17217 0.0
O144 O 0.63755 0.4716 0.12175 0.0
O145 O 0.62756 0.49839 0.18474 0.0
O146 O 0.63402 0.52425 0.94193 0.0
O147 O 0.64583 0.4927 0.96212 0.0
O148 O 0.70109 0.50229 0.03276 0.0
O149 O 0.72976 0.5471 0.03784 0.0
O150 O 0.7246 0.56901 0.18783 0.0
O151 O 0.63286 0.56432 0.07377 0.0
O152 O 0.68657 0.54036 0.24492 0.0
O153 O 0.64399 0.56036 0.18427 0.0
C154 C 0.70855 0.6029 0.98147 0.0
C155 C 0.62217 0.47477 0.16546 0.0
C156 C 0.72468 0.52316 0.0222 0.0
C157 C 0.63389 0.50238 0.92468 0.0
C158 C 0.71234 0.55576 0.24345 0.0
C159 C 0.63245 0.56834 0.13986 0.0
O160 O 0.72154 0.599 0.03131 0.0
O161 O 0.43091 0.11608 0.99637 0.0
Zn162 Zn 0.46728 0.12135 0.02991 0.0
O163 O 0.48516 0.15385 0.08794 0.0
Zn164 Zn 0.51963 0.18256 0.05015 0.0
Zn165 Zn 0.46069 0.16738 0.10591 0.0
Zn166 Zn 0.49395 0.14451 0.17612 0.0
O167 O 0.55342 0.18817 0.10753 0.0
O168 O 0.53113 0.15091 0.17331 0.0
O169 O 0.49111 0.12615 0.9441 0.0
O170 O 0.52409 0.16933 0.95725 0.0
O171 O 0.51714 0.21655 0.027 0.0
O172 O 0.4732 0.20133 0.04856 0.0
O173 O 0.46279 0.17843 0.208 0.0
O174 O 0.45838 0.08745 0.08959 0.0
O175 O 0.49252 0.16761 0.25307 0.0
O176 O 0.47095 0.1053 0.19686 0.0
C177 C 0.41489 0.12359 0.02216 0.0
C178 C 0.55328 0.17009 0.1487 0.0
C179 C 0.49607 0.21936 0.02346 0.0
C180 C 0.5126 0.14735 0.92181 0.0
C181 C 0.47803 0.17891 0.25845 0.0
C182 C 0.45981 0.08476 0.15625 0.0
O183 O 0.42252 0.14101 0.07191 0.0
O184 O 0.89787 0.32898 0.98012 0.0
Zn185 Zn 0.89339 0.35979 0.02156 0.0
O186 O 0.8641 0.3441 0.09137 0.0
Zn187 Zn 0.83391 0.35025 0.07281 0.0
Zn188 Zn 0.85081 0.30616 0.10449 0.0
Zn189 Zn 0.87797 0.35996 0.17968 0.0
O190 O 0.83324 0.37866 0.13997 0.0
O191 O 0.87337 0.39151 0.18974 0.0
O192 O 0.88303 0.37898 0.94302 0.0
O193 O 0.84177 0.36875 0.98079 0.0
O194 O 0.79854 0.31429 0.05459 0.0
O195 O 0.81518 0.286 0.055 0.0
O196 O 0.84381 0.29501 0.20668 0.0
O197 O 0.93021 0.38453 0.07263 0.0
O198 O 0.85801 0.33476 0.25957 0.0
O199 O 0.9175 0.37415 0.18484 0.0
C200 C 0.89169 0.30566 0.00604 0.0
C201 C 0.85382 0.39573 0.17622 0.0
C202 C 0.79595 0.29091 0.04177 0.0
C203 C 0.86066 0.37937 0.93513 0.0
C204 C 0.84629 0.3089 0.26163 0.0
C205 C 0.93604 0.38564 0.13841 0.0
O206 O 0.87596 0.29571 0.05918 0.0
O207 O 0.71161 0.12418 0.59793 0.0
Zn208 Zn 0.68729 0.13586 0.6484 0.0
O209 O 0.67427 0.15304 0.58191 0.0
Zn210 Zn 0.68081 0.18843 0.61433 0.0
Zn211 Zn 0.69264 0.15868 0.49462 0.0
Zn212 Zn 0.63636 0.12901 0.56228 0.0
O213 O 0.64477 0.18757 0.62965 0.0
O214 O 0.6154 0.14351 0.61194 0.0
O215 O 0.70615 0.16102 0.73197 0.0
O216 O 0.69774 0.19484 0.71013 0.0
O217 O 0.7098 0.22018 0.55449 0.0
O218 O 0.72355 0.19582 0.49359 0.0
O219 O 0.66871 0.15549 0.41204 0.0
O220 O 0.65541 0.10073 0.684 0.0
O221 O 0.62786 0.12834 0.45867 0.0
O222 O 0.62358 0.09158 0.60243 0.0
C223 C 0.71632 0.12336 0.5324 0.0
C224 C 0.62062 0.16699 0.63281 0.0
C225 C 0.72726 0.21863 0.51509 0.0
C226 C 0.70733 0.18336 0.74976 0.0
C227 C 0.64288 0.14142 0.40634 0.0
C228 C 0.63236 0.08455 0.65606 0.0
O229 O 0.70826 0.1341 0.48582 0.0
O230 O 0.88772 0.60929 0.56607 0.0
Zn231 Zn 0.88126 0.57735 0.63018 0.0
O232 O 0.87009 0.54449 0.57647 0.0
Zn233 Zn 0.83546 0.51369 0.60768 0.0
Zn234 Zn 0.86475 0.55239 0.48351 0.0
Zn235 Zn 0.89857 0.53548 0.5701 0.0
O236 O 0.84062 0.48073 0.63112 0.0
O237 O 0.88582 0.50064 0.62085 0.0
O238 O 0.85431 0.56929 0.71033 0.0
O239 O 0.82678 0.52441 0.69973 0.0
O240 O 0.80299 0.50835 0.54324 0.0
O241 O 0.82739 0.54417 0.47411 0.0
O242 O 0.87071 0.52965 0.41533 0.0
O243 O 0.91788 0.58901 0.6726 0.0
O244 O 0.90404 0.52677 0.46951 0.0
O245 O 0.93263 0.56332 0.6213 0.0
C246 C 0.89175 0.6118 0.4995 0.0
C247 C 0.86301 0.48037 0.63878 0.0
C248 C 0.80453 0.52578 0.49729 0.0
C249 C 0.83463 0.54663 0.7329 0.0
C250 C 0.88857 0.52231 0.41608 0.0
C251 C 0.93615 0.58249 0.66287 0.0
O252 O 0.88687 0.59151 0.46111 0.0
O253 O 0.40824 0.30976 0.59254 0.0
Zn254 Zn 0.44375 0.3321 0.64714 0.0
O255 O 0.47428 0.34641 0.58184 0.0
Zn256 Zn 0.50133 0.33624 0.60744 0.0
Zn257 Zn 0.4617 0.33287 0.49039 0.0
Zn258 Zn 0.49017 0.3849 0.57206 0.0
O259 O 0.53825 0.37024 0.62635 0.0
O260 O 0.52512 0.4014 0.62352 0.0
O261 O 0.44929 0.31075 0.72736 0.0
O262 O 0.49064 0.31786 0.70089 0.0
O263 O 0.49973 0.30635 0.54199 0.0
O264 O 0.46348 0.29962 0.48007 0.0
O265 O 0.48516 0.35896 0.41391 0.0
O266 O 0.44053 0.36335 0.68808 0.0
O267 O 0.49998 0.3978 0.47182 0.0
O268 O 0.46675 0.39801 0.61668 0.0
C269 C 0.40327 0.30988 0.52672 0.0
C270 C 0.5428 0.39444 0.638 0.0
C271 C 0.48006 0.29196 0.49977 0.0
C272 C 0.47013 0.30836 0.74186 0.0
C273 C 0.49838 0.3849 0.41559 0.0
C274 C 0.44927 0.38771 0.66623 0.0
O275 O 0.4224 0.3212 0.48149 0.0
O276 O 0.34815 0.91859 0.30613 0.0
Zn277 Zn 0.31931 0.88455 0.35249 0.0
O278 O 0.33638 0.87054 0.41566 0.0
Zn279 Zn 0.32929 0.83442 0.38824 0.0
Zn280 Zn 0.37474 0.89602 0.4236 0.0
Zn281 Zn 0.3217 0.86727 0.50695 0.0
O282 O 0.30049 0.80402 0.45174 0.0
O283 O 0.29061 0.83035 0.5173 0.0
O284 O 0.29957 0.85774 0.27338 0.0
O285 O 0.31197 0.82662 0.29312 0.0
O286 O 0.36493 0.8345 0.37253 0.0
O287 O 0.39401 0.87922 0.37649 0.0
O288 O 0.38743 0.90114 0.52515 0.0
O289 O 0.29618 0.89656 0.40746 0.0
O290 O 0.34918 0.8726 0.58148 0.0
O291 O 0.3069 0.89244 0.51824 0.0
C292 C 0.37288 0.9357 0.32087 0.0
C293 C 0.28508 0.80693 0.49576 0.0
C294 C 0.38874 0.85506 0.36266 0.0
C295 C 0.30045 0.83651 0.25482 0.0
C296 C 0.37495 0.88816 0.58075 0.0
C297 C 0.29554 0.90053 0.47355 0.0
O298 O 0.38548 0.93121 0.37056 0.0
O299 O 0.09343 0.45052 0.32725 0.0
Zn300 Zn 0.12966 0.45646 0.36374 0.0
O301 O 0.14552 0.4876 0.42583 0.0
Zn302 Zn 0.17936 0.51858 0.39228 0.0
Zn303 Zn 0.11874 0.49748 0.44932 0.0
Zn304 Zn 0.15502 0.4775 0.51111 0.0
O305 O 0.21319 0.52543 0.45278 0.0
O306 O 0.19243 0.48503 0.50571 0.0
O307 O 0.15528 0.46422 0.2807 0.0
O308 O 0.1865 0.50785 0.29819 0.0
O309 O 0.17331 0.55097 0.37344 0.0
O310 O 0.12917 0.53222 0.39934 0.0
O311 O 0.12006 0.50636 0.55317 0.0
O312 O 0.12119 0.42183 0.41934 0.0
O313 O 0.15325 0.49928 0.59076 0.0
O314 O 0.13296 0.43815 0.5283 0.0
C315 C 0.07585 0.45541 0.35535 0.0
C316 C 0.21414 0.5064 0.48747 0.0
C317 C 0.15111 0.55186 0.37443 0.0
C318 C 0.17648 0.48628 0.26102 0.0
C319 C 0.13711 0.50847 0.60056 0.0
C320 C 0.12248 0.41826 0.48561 0.0
O321 O 0.08155 0.47034 0.41019 0.0
O322 O 0.56968 0.66227 0.32515 0.0
Zn323 Zn 0.56609 0.6935 0.36434 0.0
O324 O 0.53541 0.67911 0.42908 0.0
Zn325 Zn 0.50678 0.6863 0.39813 0.0
Zn326 Zn 0.52082 0.64069 0.44217 0.0
Zn327 Zn 0.54759 0.69564 0.51896 0.0
O328 O 0.50381 0.71413 0.46092 0.0
O329 O 0.54136 0.72679 0.52433 0.0
O330 O 0.56009 0.71387 0.28263 0.0
O331 O 0.51777 0.70482 0.3048 0.0
O332 O 0.47147 0.65103 0.37829 0.0
O333 O 0.48574 0.62097 0.38879 0.0
O334 O 0.51181 0.62992 0.54403 0.0
O335 O 0.60178 0.71658 0.41842 0.0
O336 O 0.52589 0.66964 0.59745 0.0
O337 O 0.5878 0.71052 0.53003 0.0
C338 C 0.56245 0.63865 0.35031 0.0
C339 C 0.52232 0.7308 0.50281 0.0
C340 C 0.46768 0.62696 0.37023 0.0
C341 C 0.53883 0.71515 0.26564 0.0
C342 C 0.51358 0.64368 0.59876 0.0
C343 C 0.60693 0.71951 0.48456 0.0
O344 O 0.54591 0.62874 0.40195 0.0
O345 O 0.37169 0.4575 0.93432 0.0
Zn346 Zn 0.34905 0.47065 0.98665 0.0
O347 O 0.33711 0.48915 0.92101 0.0
Zn348 Zn 0.34592 0.52534 0.95297 0.0
Zn349 Zn 0.35469 0.49411 0.83268 0.0
Zn350 Zn 0.29877 0.46635 0.90347 0.0
O351 O 0.31101 0.52635 0.97244 0.0
O352 O 0.27994 0.48278 0.95454 0.0
O353 O 0.36984 0.4957 0.06871 0.0
O354 O 0.36404 0.5312 0.04688 0.0
O355 O 0.37502 0.55634 0.89068 0.0
O356 O 0.38693 0.53063 0.82935 0.0
O357 O 0.33045 0.49204 0.75196 0.0
O358 O 0.3165 0.43623 0.0243 0.0
O359 O 0.28959 0.46624 0.80016 0.0
O360 O 0.28446 0.4285 0.94461 0.0
C361 C 0.37592 0.45656 0.86853 0.0
C362 C 0.28644 0.50654 0.97621 0.0
C363 C 0.39168 0.55389 0.85007 0.0
C364 C 0.37288 0.51887 0.08593 0.0
C365 C 0.30456 0.47906 0.7475 0.0
C366 C 0.29299 0.42081 0.9976 0.0
O367 O 0.36842 0.46805 0.82267 0.0
O368 O 0.55802 0.93721 0.92788 0.0
Zn369 Zn 0.54687 0.9018 0.98095 0.0
O370 O 0.53078 0.87115 0.91628 0.0
Zn371 Zn 0.49479 0.84239 0.94617 0.0
Zn372 Zn 0.52724 0.88339 0.8254 0.0
Zn373 Zn 0.55517 0.85727 0.90516 0.0
O374 O 0.49553 0.80719 0.96852 0.0
O375 O 0.54006 0.82248 0.95852 0.0
O376 O 0.52103 0.8954 0.06223 0.0
O377 O 0.48729 0.8534 0.03942 0.0
O378 O 0.46405 0.84006 0.88107 0.0
O379 O 0.49003 0.87669 0.81562 0.0
O380 O 0.53322 0.863 0.74741 0.0
O381 O 0.5822 0.90669 0.02038 0.0
O382 O 0.55824 0.84882 0.80455 0.0
O383 O 0.59186 0.88249 0.94588 0.0
C384 C 0.56045 0.94246 0.86184 0.0
C385 C 0.51631 0.80411 0.97746 0.0
C386 C 0.46668 0.8584 0.83672 0.0
C387 C 0.49844 0.87432 0.0789 0.0
C388 C 0.54724 0.85108 0.74819 0.0
C389 C 0.59864 0.8995 0.99612 0.0
O390 O 0.55148 0.92352 0.8161 0.0
O391 O 0.081 0.64376 0.94275 0.0
Zn392 Zn 0.11777 0.66952 0.99097 0.0
O393 O 0.14603 0.68395 0.91897 0.0
Zn394 Zn 0.17407 0.67441 0.9323 0.0
Zn395 Zn 0.12981 0.66948 0.83196 0.0
Zn396 Zn 0.16113 0.72193 0.90566 0.0
O397 O 0.21162 0.70881 0.94238 0.0
O398 O 0.19756 0.73917 0.94872 0.0
O399 O 0.12865 0.6515 0.0704 0.0
O400 O 0.16808 0.65821 0.02727 0.0
O401 O 0.16855 0.64291 0.86644 0.0
O402 O 0.12904 0.63493 0.8207 0.0
O403 O 0.15092 0.69347 0.7506 0.0
O404 O 0.1139 0.70101 0.03089 0.0
O405 O 0.16708 0.73336 0.80387 0.0
O406 O 0.13912 0.73498 0.95645 0.0
C407 C 0.07392 0.64662 0.88042 0.0
C408 C 0.21604 0.7328 0.95667 0.0
C409 C 0.14648 0.62752 0.83262 0.0
C410 C 0.15042 0.64994 0.07621 0.0
C411 C 0.16378 0.71937 0.74865 0.0
C412 C 0.12246 0.72525 0.00784 0.0
O413 O 0.09147 0.66092 0.83374 0.0
H414 H 0.06009 0.15875 0.61244 0.0
H415 H 0.11353 0.23849 0.69929 0.0
H416 H 0.14915 0.24548 0.61586 0.0
H417 H 0.16294 0.23137 0.5077 0.0
H418 H 0.10868 0.15147 0.42179 0.0
H419 H 0.07604 0.14239 0.51484 0.0
C420 C 0.07977 0.17734 0.61448 0.0
C421 C 0.08389 0.19815 0.66139 0.0
C422 C 0.10003 0.18157 0.56522 0.0
C423 C 0.10961 0.22217 0.66312 0.0
C424 C 0.13002 0.22631 0.61507 0.0
C425 C 0.14412 0.2119 0.50979 0.0
C426 C 0.13824 0.1925 0.45665 0.0
C427 C 0.12507 0.20659 0.56395 0.0
C428 C 0.1138 0.16715 0.46102 0.0
C429 C 0.09497 0.16177 0.51453 0.0
H430 H 0.85106 0.97636 0.48165 0.0
H431 H 0.7635 0.93903 0.49822 0.0
H432 H 0.76361 0.9114 0.59803 0.0
H433 H 0.78796 0.89414 0.67024 0.0
H434 H 0.87541 0.93059 0.64993 0.0
H435 H 0.87595 0.96273 0.56264 0.0
C436 C 0.83197 0.96233 0.50739 0.0
C437 C 0.80722 0.95936 0.48164 0.0
C438 C 0.83218 0.94637 0.56396 0.0
C439 C 0.78279 0.94156 0.51662 0.0
C440 C 0.78285 0.92571 0.57354 0.0
C441 C 0.80725 0.90941 0.64778 0.0
C442 C 0.83158 0.9096 0.66599 0.0
C443 C 0.80734 0.92739 0.59624 0.0
C444 C 0.85636 0.92978 0.6367 0.0
C445 C 0.85667 0.94808 0.58638 0.0
H446 H 0.10312 0.9667 0.60264 0.0
H447 H 0.11995 0.90878 0.70801 0.0
H448 H 0.09038 0.87332 0.62541 0.0
H449 H 0.06409 0.86024 0.51467 0.0
H450 H 0.04784 0.91866 0.40941 0.0
H451 H 0.07273 0.95217 0.50024 0.0
C452 C 0.09978 0.94616 0.60869 0.0
C453 C 0.11402 0.94056 0.66084 0.0
C454 C 0.08323 0.92597 0.56002 0.0
C455 C 0.10945 0.91377 0.66781 0.0
C456 C 0.09266 0.89347 0.62031 0.0
C457 C 0.06586 0.88023 0.51192 0.0
C458 C 0.05443 0.88695 0.45467 0.0
C459 C 0.08025 0.8996 0.5646 0.0
C460 C 0.05656 0.91287 0.45253 0.0
C461 C 0.07081 0.93215 0.50456 0.0
H462 H 0.23242 0.11878 0.847 0.0
H463 H 0.1445 0.07716 0.8375 0.0
H464 H 0.14469 0.11416 0.90539 0.0
H465 H 0.16976 0.15381 0.98504 0.0
H466 H 0.25713 0.19089 0.00484 0.0
H467 H 0.25744 0.1603 0.91483 0.0
C468 C 0.21324 0.11795 0.85882 0.0
C469 C 0.18843 0.09503 0.83868 0.0
C470 C 0.21354 0.13841 0.90033 0.0
C471 C 0.16383 0.09453 0.8528 0.0
C472 C 0.16398 0.11556 0.89213 0.0
C473 C 0.18888 0.15562 0.96785 0.0
C474 C 0.21345 0.17449 0.00095 0.0
C475 C 0.18866 0.13695 0.91879 0.0
C476 C 0.23808 0.17648 0.97973 0.0
C477 C 0.23821 0.15895 0.92865 0.0
H478 H 0.8724 0.03831 0.00825 0.0
H479 H 0.83293 0.08674 0.01472 0.0
H480 H 0.86409 0.11739 0.9246 0.0
H481 H 0.90582 0.13379 0.85779 0.0
H482 H 0.9496 0.08945 0.85965 0.0
H483 H 0.91314 0.05328 0.93132 0.0
C484 C 0.8703 0.0552 0.98828 0.0
C485 C 0.85041 0.06035 0.01735 0.0
C486 C 0.8892 0.0735 0.9388 0.0
C487 C 0.84806 0.08249 0.99264 0.0
C488 C 0.86591 0.1 0.94146 0.0
C489 C 0.90734 0.11606 0.87311 0.0
C490 C 0.93062 0.11452 0.85462 0.0
C491 C 0.8871 0.09625 0.91629 0.0
C492 C 0.93193 0.09115 0.87346 0.0
C493 C 0.9112 0.07063 0.9149 0.0
H494 H 0.8928 0.7908 0.84419 0.0
H495 H 0.93831 0.87883 0.84627 0.0
H496 H 0.97482 0.87754 0.91393 0.0
H497 H 0.98896 0.85122 0.99064 0.0
H498 H 0.9394 0.76346 0.99974 0.0
H499 H 0.90921 0.76466 0.90894 0.0
C500 C 0.91092 0.80979 0.85846 0.0
C501 C 0.91264 0.83491 0.84175 0.0
C502 C 0.93087 0.8088 0.9 0.0
C503 C 0.93647 0.85927 0.85894 0.0
C504 C 0.95717 0.85849 0.89814 0.0
C505 C 0.972 0.83234 0.97106 0.0
C506 C 0.96626 0.80723 0.00165 0.0
C507 C 0.95393 0.83336 0.92169 0.0
C508 C 0.94407 0.78293 0.97692 0.0
C509 C 0.9268 0.78366 0.92534 0.0
H510 H 0.84764 0.78781 0.48234 0.0
H511 H 0.89188 0.87326 0.53762 0.0
H512 H 0.92293 0.88291 0.44011 0.0
H513 H 0.94178 0.86642 0.34973 0.0
H514 H 0.89783 0.78131 0.29201 0.0
H515 H 0.86247 0.77263 0.3778 0.0
C516 C 0.86376 0.80857 0.47228 0.0
C517 C 0.86774 0.82949 0.51881 0.0
C518 C 0.88191 0.81422 0.41551 0.0
C519 C 0.8886 0.85644 0.50407 0.0
C520 C 0.90646 0.86214 0.44794 0.0
C521 C 0.92413 0.84613 0.35445 0.0
C522 C 0.92293 0.82454 0.31546 0.0
C523 C 0.90395 0.84106 0.40485 0.0
C524 C 0.89965 0.79837 0.32208 0.0
C525 C 0.87937 0.79327 0.37156 0.0
H526 H 0.1634 0.04911 0.51766 0.0
H527 H 0.25107 0.08669 0.50297 0.0
H528 H 0.25108 0.11392 0.40213 0.0
H529 H 0.22682 0.13047 0.32738 0.0
H530 H 0.13933 0.09411 0.3457 0.0
H531 H 0.13865 0.06249 0.43515 0.0
C532 C 0.18256 0.0631 0.4922 0.0
C533 C 0.20729 0.06617 0.51877 0.0
C534 C 0.18243 0.07888 0.43492 0.0
C535 C 0.23179 0.08404 0.4841 0.0
C536 C 0.2318 0.09965 0.4265 0.0
C537 C 0.20747 0.11536 0.34995 0.0
C538 C 0.18317 0.11498 0.33026 0.0
C539 C 0.20732 0.09774 0.40274 0.0
C540 C 0.15835 0.09501 0.35982 0.0
C541 C 0.15797 0.07703 0.41142 0.0
H542 H 0.89924 0.1112 0.31676 0.0
H543 H 0.91654 0.04817 0.38323 0.0
H544 H 0.94747 0.07849 0.47413 0.0
H545 H 0.96376 0.11996 0.54517 0.0
H546 H 0.9428 0.181 0.48378 0.0
H547 H 0.91858 0.15398 0.38084 0.0
C548 C 0.91009 0.10414 0.35028 0.0
C549 C 0.90518 0.07724 0.34403 0.0
C550 C 0.9266 0.12106 0.40443 0.0
C551 C 0.91985 0.06871 0.38702 0.0
C552 C 0.93727 0.08594 0.43957 0.0
C553 C 0.95409 0.12752 0.50904 0.0
C554 C 0.95471 0.15229 0.52291 0.0
C555 C 0.93981 0.11166 0.45061 0.0
C556 C 0.9423 0.16184 0.47506 0.0
C557 C 0.92855 0.14646 0.416 0.0
H558 H 0.85364 0.93564 0.14631 0.0
H559 H 0.76788 0.9104 0.14399 0.0
H560 H 0.7579 0.8707 0.0741 0.0
H561 H 0.77422 0.84738 0.99745 0.0
H562 H 0.85931 0.87067 1.0002 0.0
H563 H 0.86878 0.9064 0.0864 0.0
C564 C 0.83276 0.92101 0.13208 0.0
C565 C 0.81169 0.92637 0.14856 0.0
C566 C 0.82702 0.89802 0.09099 0.0
C567 C 0.78461 0.90711 0.13034 0.0
C568 C 0.7788 0.88435 0.09029 0.0
C569 C 0.79469 0.85987 0.01832 0.0
C570 C 0.81605 0.85674 0.99208 0.0
C571 C 0.79996 0.88029 0.06763 0.0
C572 C 0.84249 0.87277 0.01986 0.0
C573 C 0.84797 0.89335 0.06874 0.0
H574 H 0.13798 0.99109 0.97677 0.0
H575 H 0.18529 0.95151 0.01359 0.0
H576 H 0.15247 0.92191 0.10247 0.0
H577 H 0.10766 0.90304 0.15529 0.0
H578 H 0.05653 0.93774 0.10872 0.0
H579 H 0.09376 0.97414 0.03945 0.0
C580 C 0.14135 0.97645 0.00592 0.0
C581 C 0.164 0.97344 0.98953 0.0
C582 C 0.12159 0.95856 0.05433 0.0
C583 C 0.16805 0.95413 0.02597 0.0
C584 C 0.14924 0.93719 0.07638 0.0
C585 C 0.10469 0.91878 0.13079 0.0
C586 C 0.07921 0.91745 0.13595 0.0
C587 C 0.1255 0.93856 0.08881 0.0
C588 C 0.07591 0.93829 0.10533 0.0
C589 C 0.09712 0.95891 0.06523 0.0
H590 H 0.02874 0.17797 0.98889 0.0
H591 H 0.08161 0.26526 0.97519 0.0
H592 H 0.11321 0.26264 0.05892 0.0
H593 H 0.12864 0.23528 0.12116 0.0
H594 H 0.07907 0.14745 0.12588 0.0
H595 H 0.0428 0.15046 0.06141 0.0
C596 C 0.04683 0.19646 0.00588 0.0
C597 C 0.05295 0.22184 0.97623 0.0
C598 C 0.06553 0.19459 0.05134 0.0
C599 C 0.07659 0.2456 0.99746 0.0
C600 C 0.09466 0.24406 0.04494 0.0
C601 C 0.10983 0.21668 0.10864 0.0
C602 C 0.10676 0.1911 0.12676 0.0
C603 C 0.08981 0.21859 0.0698 0.0
C604 C 0.08198 0.16734 0.11194 0.0
C605 C 0.06137 0.1691 0.0748 0.0
H606 H 0.79086 0.50233 0.79081 0.0
H607 H 0.84458 0.58889 0.82098 0.0
H608 H 0.81727 0.58786 0.9216 0.0
H609 H 0.77597 0.5636 0.99228 0.0
H610 H 0.72035 0.47777 0.95719 0.0
H611 H 0.75128 0.47719 0.86828 0.0
C612 C 0.79681 0.521 0.81961 0.0
C613 C 0.81958 0.54578 0.79756 0.0
C614 C 0.78077 0.52035 0.87662 0.0
C615 C 0.82704 0.56962 0.83616 0.0
C616 C 0.81145 0.56903 0.8938 0.0
C617 C 0.77067 0.54458 0.96609 0.0
C618 C 0.7456 0.52082 0.98081 0.0
C619 C 0.78794 0.54467 0.91327 0.0
C620 C 0.73941 0.49637 0.94685 0.0
C621 C 0.75698 0.4961 0.89553 0.0
H622 H 0.45371 0.22777 0.99217 0.0
H623 H 0.54024 0.26161 0.95816 0.0
H624 H 0.53993 0.29388 0.87261 0.0
H625 H 0.51443 0.30904 0.799 0.0
H626 H 0.42762 0.27424 0.82868 0.0
H627 H 0.42881 0.24584 0.92522 0.0
C628 C 0.47265 0.24246 0.96697 0.0
C629 C 0.49695 0.242 0.98122 0.0
C630 C 0.4722 0.26056 0.91656 0.0
C631 C 0.52123 0.26134 0.94811 0.0
C632 C 0.52104 0.27974 0.89889 0.0
C633 C 0.49572 0.29539 0.82674 0.0
C634 C 0.47085 0.29346 0.80577 0.0
C635 C 0.49651 0.27894 0.88126 0.0
C636 C 0.44698 0.27602 0.84337 0.0
C637 C 0.44766 0.25973 0.89842 0.0
H638 H 0.78389 0.23922 0.01069 0.0
H639 H 0.7553 0.29646 0.97774 0.0
H640 H 0.72321 0.26644 0.88849 0.0
H641 H 0.70779 0.22717 0.80974 0.0
H642 H 0.73802 0.17109 0.83914 0.0
H643 H 0.76504 0.19758 0.94013 0.0
C644 C 0.77035 0.24501 0.98495 0.0
C645 C 0.77234 0.27033 0.00035 0.0
C646 C 0.75258 0.22808 0.93224 0.0
C647 C 0.75433 0.2772 0.96695 0.0
C648 C 0.73612 0.26013 0.91541 0.0
C649 C 0.7201 0.22054 0.83848 0.0
C650 C 0.72121 0.19738 0.81596 0.0
C651 C 0.73583 0.23605 0.8959 0.0
C652 C 0.73693 0.18892 0.85477 0.0
C653 C 0.75242 0.20409 0.91252 0.0
H654 H 0.84547 0.48892 0.334 0.0
H655 H 0.93029 0.51486 0.37294 0.0
H656 H 0.92721 0.47964 0.29322 0.0
H657 H 0.89953 0.43897 0.22471 0.0
H658 H 0.81355 0.40946 0.19357 0.0
H659 H 0.81806 0.44921 0.25748 0.0
C660 C 0.86344 0.48724 0.32382 0.0
C661 C 0.88813 0.50442 0.35929 0.0
C662 C 0.86118 0.46623 0.28025 0.0
C663 C 0.91112 0.50182 0.34638 0.0
C664 C 0.90931 0.48167 0.30107 0.0
C665 C 0.88164 0.44112 0.23148 0.0
C666 C 0.85604 0.42093 0.20569 0.0
C667 C 0.88426 0.46329 0.26976 0.0
C668 C 0.83338 0.42455 0.21344 0.0
C669 C 0.83598 0.4472 0.25016 0.0
H670 H 0.53118 0.37391 0.33406 0.0
H671 H 0.50355 0.43181 0.36379 0.0
H672 H 0.53751 0.46303 0.27964 0.0
H673 H 0.57822 0.47623 0.21092 0.0
H674 H 0.60975 0.42122 0.1873 0.0
H675 H 0.57077 0.38611 0.25484 0.0
C676 C 0.53222 0.39307 0.32043 0.0
C677 C 0.51491 0.40065 0.35462 0.0
C678 C 0.55267 0.41147 0.27415 0.0
C679 C 0.51666 0.42566 0.33789 0.0
C680 C 0.53613 0.44351 0.29013 0.0
C681 C 0.57657 0.45648 0.22 0.0
C682 C 0.59715 0.4515 0.19544 0.0
C683 C 0.5548 0.43702 0.26013 0.0
C684 C 0.59428 0.4256 0.20608 0.0
C685 C 0.57208 0.40564 0.24499 0.0
H686 H 0.65233 0.18641 0.33185 0.0
H687 H 0.60277 0.09865 0.33638 0.0
H688 H 0.57407 0.10031 0.24203 0.0
H689 H 0.55869 0.12666 0.17443 0.0
H690 H 0.60365 0.21459 0.18012 0.0
H691 H 0.63919 0.21317 0.25238 0.0
C692 C 0.63568 0.1677 0.31051 0.0
C693 C 0.62953 0.14239 0.34053 0.0
C694 C 0.61842 0.16896 0.2587 0.0
C695 C 0.60773 0.11826 0.31382 0.0
C696 C 0.59134 0.11924 0.26015 0.0
C697 C 0.57659 0.14558 0.19024 0.0
C698 C 0.57843 0.17069 0.17309 0.0
C699 C 0.59582 0.14448 0.23455 0.0
C700 C 0.60184 0.19503 0.19272 0.0
C701 C 0.62192 0.19416 0.23473 0.0
H702 H 0.55289 0.19057 0.85232 0.0
H703 H 0.50234 0.10286 0.84163 0.0
H704 H 0.52923 0.10202 0.74188 0.0
H705 H 0.5704 0.12551 0.66919 0.0
H706 H 0.62258 0.2129 0.68615 0.0
H707 H 0.59124 0.21454 0.77154 0.0
C708 C 0.54752 0.17121 0.82794 0.0
C709 C 0.52594 0.14672 0.85538 0.0
C710 C 0.56339 0.17085 0.77194 0.0
C711 C 0.51898 0.12196 0.82204 0.0
C712 C 0.5344 0.12148 0.76514 0.0
C713 C 0.57475 0.14505 0.69041 0.0
C714 C 0.5991 0.16904 0.67196 0.0
C715 C 0.55716 0.14571 0.74126 0.0
C716 C 0.60417 0.19412 0.69978 0.0
C717 C 0.58632 0.19504 0.74891 0.0
H718 H 0.89563 0.40906 0.82696 0.0
H719 H 0.81398 0.38017 0.90522 0.0
H720 H 0.80611 0.40596 0.81515 0.0
H721 H 0.82369 0.4407 0.72194 0.0
H722 H 0.905 0.46968 0.64199 0.0
H723 H 0.91124 0.43971 0.72316 0.0
C724 C 0.87605 0.40818 0.82377 0.0
C725 C 0.85579 0.39307 0.87409 0.0
C726 C 0.87142 0.42321 0.77128 0.0
C727 C 0.83033 0.39196 0.8683 0.0
C728 C 0.82564 0.40669 0.81648 0.0
C729 C 0.84251 0.44 0.72108 0.0
C730 C 0.8639 0.45776 0.67664 0.0
C731 C 0.84624 0.42296 0.76877 0.0
C732 C 0.88821 0.4565 0.67633 0.0
C733 C 0.89191 0.4394 0.72301 0.0
H734 H 0.62908 0.45515 0.87492 0.0
H735 H 0.60639 0.5162 0.82898 0.0
H736 H 0.57999 0.48986 0.72736 0.0
H737 H 0.55974 0.44772 0.65998 0.0
H738 H 0.57955 0.38499 0.71042 0.0
H739 H 0.61168 0.41444 0.8006 0.0
C740 C 0.61852 0.46285 0.84252 0.0
C741 C 0.61936 0.48744 0.86035 0.0
C742 C 0.60308 0.44744 0.78479 0.0
C743 C 0.60582 0.4972 0.81712 0.0
C744 C 0.59079 0.4822 0.75887 0.0
C745 C 0.57135 0.44054 0.68987 0.0
C746 C 0.5669 0.41398 0.67923 0.0
C747 C 0.58877 0.45702 0.74338 0.0
C748 C 0.58251 0.40529 0.71762 0.0
C749 C 0.60065 0.42201 0.76971 0.0
H750 H 0.43982 0.18682 0.32043 0.0
H751 H 0.52473 0.20977 0.33322 0.0
H752 H 0.53301 0.24557 0.41816 0.0
H753 H 0.51701 0.27463 0.47488 0.0
H754 H 0.43144 0.24984 0.46169 0.0
H755 H 0.42251 0.21039 0.39229 0.0
C756 C 0.45999 0.19932 0.34302 0.0
C757 C 0.48166 0.19606 0.32013 0.0
C758 C 0.46458 0.21977 0.39137 0.0
C759 C 0.50769 0.21202 0.35026 0.0
C760 C 0.51248 0.23262 0.3984 0.0
C761 C 0.49639 0.26021 0.45814 0.0
C762 C 0.47513 0.2656 0.47157 0.0
C763 C 0.49125 0.23736 0.4174 0.0
C764 C 0.44837 0.24658 0.4503 0.0
C765 C 0.44314 0.22393 0.41063 0.0
H766 H 0.81325 0.31926 0.34203 0.0
H767 H 0.8463 0.26542 0.32181 0.0
H768 H 0.81512 0.2354 0.41287 0.0
H769 H 0.77416 0.22091 0.48178 0.0
H770 H 0.73621 0.27072 0.49095 0.0
H771 H 0.77411 0.30652 0.42222 0.0
C772 C 0.81404 0.30133 0.35927 0.0
C773 C 0.83189 0.29436 0.32583 0.0
C774 C 0.79502 0.28345 0.40883 0.0
C775 C 0.83262 0.27098 0.34714 0.0
C776 C 0.81478 0.25385 0.39885 0.0
C777 C 0.77432 0.23978 0.46962 0.0
C778 C 0.75219 0.24301 0.48981 0.0
C779 C 0.79519 0.25931 0.42754 0.0
C780 C 0.75297 0.26777 0.47548 0.0
C781 C 0.77449 0.28805 0.43571 0.0
H782 H 0.80366 0.57031 0.45421 0.0
H783 H 0.75159 0.48319 0.47577 0.0
H784 H 0.71603 0.48576 0.40607 0.0
H785 H 0.70308 0.5123 0.32509 0.0
H786 H 0.7588 0.5984 0.29481 0.0
H787 H 0.7899 0.59679 0.38203 0.0
C788 C 0.78442 0.55179 0.4443 0.0
C789 C 0.78042 0.52647 0.46893 0.0
C790 C 0.76496 0.55334 0.40204 0.0
C791 C 0.75517 0.50286 0.45719 0.0
C792 C 0.73502 0.50436 0.41684 0.0
C793 C 0.72177 0.53078 0.33895 0.0
C794 C 0.72874 0.55552 0.30386 0.0
C795 C 0.74013 0.52939 0.38693 0.0
C796 C 0.75313 0.57923 0.32112 0.0
C797 C 0.77088 0.57827 0.37079 0.0
H798 H 0.44093 0.89431 0.33557 0.0
H799 H 0.38346 0.80891 0.30066 0.0
H800 H 0.41428 0.80693 0.21402 0.0
H801 H 0.45416 0.83092 0.13722 0.0
H802 H 0.51029 0.91693 0.16769 0.0
H803 H 0.48316 0.91714 0.26735 0.0
C804 C 0.43525 0.87508 0.30998 0.0
C805 C 0.40964 0.85189 0.32377 0.0
C806 C 0.45258 0.87434 0.25858 0.0
C807 C 0.40292 0.82711 0.29084 0.0
C808 C 0.42044 0.82603 0.24083 0.0
C809 C 0.46064 0.84972 0.16588 0.0
C810 C 0.48397 0.87403 0.14406 0.0
C811 C 0.44476 0.84978 0.22236 0.0
C812 C 0.4923 0.89802 0.1828 0.0
C813 C 0.47678 0.89815 0.23978 0.0
H814 H 0.19005 0.59317 0.29473 0.0
H815 H 0.1073 0.55993 0.36879 0.0
H816 H 0.10017 0.58925 0.28732 0.0
H817 H 0.1155 0.62001 0.18374 0.0
H818 H 0.19844 0.65286 0.11092 0.0
H819 H 0.20721 0.62831 0.20297 0.0
C820 C 0.17065 0.59273 0.29423 0.0
C821 C 0.14918 0.57396 0.33697 0.0
C822 C 0.16644 0.60935 0.24638 0.0
C823 C 0.1242 0.5739 0.33582 0.0
C824 C 0.11999 0.59061 0.28894 0.0
C825 C 0.13557 0.62209 0.18873 0.0
C826 C 0.15595 0.63775 0.1392 0.0
C827 C 0.14064 0.6077 0.24204 0.0
C828 C 0.18202 0.64046 0.14712 0.0
C829 C 0.18721 0.62647 0.20003 0.0
H830 H 0.3751 0.56299 0.14819 0.0
H831 H 0.40497 0.50632 0.16923 0.0
H832 H 0.43449 0.53322 0.2666 0.0
H833 H 0.45532 0.57533 0.336 0.0
H834 H 0.42653 0.63279 0.31122 0.0
H835 H 0.39265 0.60267 0.22565 0.0
C836 C 0.38789 0.55633 0.17434 0.0
C837 C 0.38816 0.5329 0.15056 0.0
C838 C 0.40502 0.57205 0.22948 0.0
C839 C 0.40449 0.52435 0.18604 0.0
C840 C 0.42143 0.53977 0.24161 0.0
C841 C 0.44138 0.58114 0.31286 0.0
C842 C 0.44379 0.60655 0.32945 0.0
C843 C 0.42238 0.56404 0.2624 0.0
C844 C 0.42531 0.6135 0.29924 0.0
C845 C 0.40601 0.59634 0.24996 0.0
H846 H 0.50497 0.81753 0.66426 0.0
H847 H 0.59147 0.85104 0.69555 0.0
H848 H 0.59163 0.81879 0.61077 0.0
H849 H 0.56626 0.77707 0.54405 0.0
H850 H 0.47897 0.73974 0.52046 0.0
H851 H 0.47992 0.77779 0.58496 0.0
C852 C 0.52392 0.81821 0.6506 0.0
C853 C 0.54822 0.83649 0.68561 0.0
C854 C 0.52355 0.79868 0.6044 0.0
C855 C 0.57262 0.83706 0.66893 0.0
C856 C 0.57266 0.81857 0.62091 0.0
C857 C 0.54741 0.77734 0.55232 0.0
C858 C 0.52248 0.75538 0.52916 0.0
C859 C 0.54808 0.79859 0.59096 0.0
C860 C 0.49836 0.75635 0.53845 0.0
C861 C 0.49892 0.778 0.5756 0.0
H862 H 0.2402 0.80773 0.53475 0.0
H863 H 0.27333 0.75382 0.51908 0.0
H864 H 0.23446 0.71886 0.58706 0.0
H865 H 0.19541 0.7073 0.66693 0.0
H866 H 0.16649 0.76442 0.69076 0.0
H867 H 0.19924 0.79454 0.60262 0.0
C868 C 0.23881 0.78819 0.54549 0.0
C869 C 0.25984 0.7835 0.52352 0.0
C870 C 0.2172 0.76892 0.58624 0.0
C871 C 0.25745 0.75791 0.53602 0.0
C872 C 0.23535 0.73806 0.5752 0.0
C873 C 0.19582 0.72597 0.65098 0.0
C874 C 0.17866 0.73379 0.68473 0.0
C875 C 0.21569 0.74381 0.60288 0.0
C876 C 0.17955 0.75815 0.66511 0.0
C877 C 0.19834 0.77537 0.61516 0.0
H878 H 0.22335 0.46491 0.50661 0.0
H879 H 0.26175 0.55215 0.53078 0.0
H880 H 0.29694 0.55162 0.60651 0.0
H881 H 0.31128 0.52485 0.68254 0.0
H882 H 0.26742 0.43703 0.66936 0.0
H883 H 0.23963 0.43904 0.57288 0.0
C884 C 0.23976 0.48395 0.52727 0.0
C885 C 0.23978 0.5085 0.51401 0.0
C886 C 0.25858 0.48315 0.57386 0.0
C887 C 0.26134 0.53303 0.54008 0.0
C888 C 0.28119 0.53261 0.58417 0.0
C889 C 0.29604 0.50629 0.65708 0.0
C890 C 0.2913 0.48078 0.68231 0.0
C891 C 0.27922 0.50761 0.604 0.0
C892 C 0.2713 0.45677 0.65039 0.0
C893 C 0.25545 0.45796 0.59548 0.0
H894 H 0.22123 0.52984 0.20464 0.0
H895 H 0.16443 0.44425 0.16982 0.0
H896 H 0.1917 0.44448 0.06997 0.0
H897 H 0.23408 0.46746 0.00252 0.0
H898 H 0.29239 0.55225 0.04251 0.0
H899 H 0.26155 0.55396 0.12957 0.0
C900 C 0.21459 0.51123 0.17496 0.0
C901 C 0.19101 0.48691 0.1956 0.0
C902 C 0.23061 0.51138 0.11859 0.0
C903 C 0.18261 0.46316 0.1557 0.0
C904 C 0.1982 0.46329 0.09859 0.0
C905 C 0.23996 0.48651 0.02928 0.0
C906 C 0.26577 0.5096 0.01666 0.0
C907 C 0.22262 0.48707 0.08097 0.0
C908 C 0.27278 0.53413 0.05142 0.0
C909 C 0.25522 0.53506 0.1016 0.0
H910 H 0.49503 0.71585 0.20869 0.0
H911 H 0.58121 0.74701 0.17616 0.0
H912 H 0.58062 0.77446 0.07666 0.0
H913 H 0.55678 0.79295 0.00772 0.0
H914 H 0.47113 0.76349 0.04454 0.0
H915 H 0.47031 0.73144 0.13293 0.0
C916 C 0.51373 0.72849 0.1797 0.0
C917 C 0.53828 0.72968 0.20075 0.0
C918 C 0.51331 0.74446 0.12334 0.0
C919 C 0.56211 0.74585 0.1616 0.0
C920 C 0.56177 0.76157 0.10474 0.0
C921 C 0.53775 0.77927 0.03417 0.0
C922 C 0.51409 0.78094 0.01994 0.0
C923 C 0.53764 0.76152 0.08637 0.0
C924 C 0.48965 0.76278 0.05444 0.0
C925 C 0.48923 0.74458 0.10539 0.0
H926 H 0.29784 0.7906 0.202 0.0
H927 H 0.27541 0.85177 0.15522 0.0
H928 H 0.25229 0.82738 0.04808 0.0
H929 H 0.23391 0.78631 0.97662 0.0
H930 H 0.25258 0.72295 0.02878 0.0
H931 H 0.28298 0.75137 0.12311 0.0
C932 C 0.28807 0.79876 0.16823 0.0
C933 C 0.28792 0.82276 0.18748 0.0
C934 C 0.27446 0.78442 0.10728 0.0
C935 C 0.27548 0.83316 0.1424 0.0
C936 C 0.26237 0.81929 0.08093 0.0
C937 C 0.24504 0.77886 0.00764 0.0
C938 C 0.24058 0.75232 0.99651 0.0
C939 C 0.26112 0.79457 0.06403 0.0
C940 C 0.25558 0.74325 0.03624 0.0
C941 C 0.27264 0.75935 0.09088 0.0
H942 H 0.18111 0.60722 0.80856 0.0
H943 H 0.09669 0.58681 0.79424 0.0
H944 H 0.08547 0.54585 0.72917 0.0
H945 H 0.10045 0.51923 0.66168 0.0
H946 H 0.18421 0.53804 0.67539 0.0
H947 H 0.19458 0.57553 0.75617 0.0
C948 C 0.16023 0.59353 0.79226 0.0
C949 C 0.14005 0.60062 0.80435 0.0
C950 C 0.1537 0.56968 0.75423 0.0
C951 C 0.11292 0.58238 0.78386 0.0
C952 C 0.10634 0.55879 0.74674 0.0
C953 C 0.12082 0.53116 0.6836 0.0
C954 C 0.14155 0.52619 0.66183 0.0
C955 C 0.12672 0.5528 0.72927 0.0
C956 C 0.16782 0.54152 0.69133 0.0
C957 C 0.17386 0.56315 0.73708 0.0
H958 H 0.43734 0.55425 0.81199 0.0
H959 H 0.40252 0.60673 0.82654 0.0
H960 H 0.44103 0.64209 0.75843 0.0
H961 H 0.48048 0.65449 0.67901 0.0
H962 H 0.51116 0.59874 0.65655 0.0
H963 H 0.47847 0.56818 0.74413 0.0
C964 C 0.43828 0.57357 0.80108 0.0
C965 C 0.41686 0.57771 0.82294 0.0
C966 C 0.45968 0.59307 0.76005 0.0
C967 C 0.41869 0.60304 0.80992 0.0
C968 C 0.44059 0.62312 0.77055 0.0
C969 C 0.48042 0.636 0.69501 0.0
C970 C 0.49812 0.62874 0.66177 0.0
C971 C 0.46064 0.6179 0.74305 0.0
C972 C 0.49767 0.6046 0.68163 0.0
C973 C 0.47894 0.58713 0.73136 0.0
H974 H 0.36503 0.84555 0.66669 0.0
H975 H 0.42189 0.93093 0.62926 0.0
H976 H 0.45342 0.92955 0.71537 0.0
H977 H 0.46719 0.90315 0.78804 0.0
H978 H 0.4133 0.81671 0.81842 0.0
H979 H 0.37776 0.81943 0.74937 0.0
C980 C 0.38405 0.86397 0.67886 0.0
C981 C 0.39125 0.88837 0.64186 0.0
C982 C 0.4026 0.86269 0.72629 0.0
C983 C 0.41604 0.91199 0.65705 0.0
C984 C 0.43405 0.91116 0.70602 0.0
C985 C 0.44758 0.88482 0.78015 0.0
C986 C 0.44305 0.85961 0.807 0.0
C987 C 0.42794 0.88644 0.73881 0.0
C988 C 0.41733 0.8363 0.7979 0.0
C989 C 0.39713 0.83787 0.75807 0.0
H990 H 0.08591 0.3145 0.67464 0.0
H991 H 0.0171 0.28209 0.53211 0.0
H992 H 0.03905 0.32416 0.46302 0.0
H993 H 0.07674 0.37146 0.447 0.0
H994 H 0.14426 0.40404 0.59314 0.0
H995 H 0.12413 0.36053 0.65591 0.0
C996 C 0.07571 0.31656 0.62839 0.0
C997 C 0.04982 0.29523 0.60913 0.0
C998 C 0.08831 0.34086 0.58913 0.0
C999 C 0.037 0.29825 0.54863 0.0
C1000 C 0.04954 0.3223 0.50884 0.0
C1001 C 0.08717 0.36875 0.49178 0.0
C1002 C 0.11182 0.39077 0.51564 0.0
C1003 C 0.07508 0.34387 0.52901 0.0
C1004 C 0.12511 0.38729 0.57422 0.0
C1005 C 0.11361 0.36249 0.61025 0.0
H1006 H 0.73252 0.76884 0.55357 0.0
H1007 H 0.7055 0.78172 0.75492 0.0
H1008 H 0.65892 0.76173 0.71021 0.0
H1009 H 0.62576 0.7403 0.61472 0.0
H1010 H 0.65261 0.72887 0.41152 0.0
H1011 H 0.69936 0.74879 0.45603 0.0
C1012 C 0.71641 0.76717 0.58772 0.0
C1013 C 0.7225 0.77662 0.6577 0.0
C1014 C 0.68966 0.75604 0.56127 0.0
C1015 C 0.70144 0.77465 0.7009 0.0
C1016 C 0.67476 0.76319 0.67539 0.0
C1017 C 0.64182 0.74216 0.58001 0.0
C1018 C 0.63561 0.73295 0.50993 0.0
C1019 C 0.66864 0.75381 0.60575 0.0
C1020 C 0.65678 0.73585 0.46561 0.0
C1021 C 0.68352 0.74714 0.49113 0.0
H1022 H 0.2476 0.97709 0.54801 0.0
H1023 H 0.23791 0.93806 0.75064 0.0
H1024 H 0.25642 0.91063 0.70304 0.0
H1025 H 0.27632 0.89855 0.60511 0.0
H1026 H 0.28451 0.93595 0.40085 0.0
H1027 H 0.26532 0.96304 0.44771 0.0
C1028 C 0.2496 0.96261 0.58172 0.0
C1029 C 0.24163 0.95979 0.65292 0.0
C1030 C 0.25986 0.94658 0.55371 0.0
C1031 C 0.24391 0.94063 0.69569 0.0
C1032 C 0.25452 0.92497 0.66856 0.0
C1033 C 0.27386 0.91259 0.57073 0.0
C1034 C 0.28204 0.91541 0.49976 0.0
C1035 C 0.26269 0.92788 0.59783 0.0
C1036 C 0.27834 0.93338 0.45565 0.0
C1037 C 0.26749 0.94896 0.4825 0.0
H1038 H 0.29193 0.08091 0.93941 0.0
H1039 H 0.31918 0.06392 0.74373 0.0
H1040 H 0.36512 0.08211 0.79252 0.0
H1041 H 0.39728 0.10199 0.89175 0.0
H1042 H 0.37021 0.12057 0.08541 0.0
H1043 H 0.32438 0.10244 0.03643 0.0
C1044 C 0.30791 0.08122 0.90727 0.0
C1045 C 0.30206 0.07092 0.8381 0.0
C1046 C 0.33427 0.09184 0.93546 0.0
C1047 C 0.32312 0.07178 0.79702 0.0
C1048 C 0.34937 0.08207 0.82501 0.0
C1049 C 0.38131 0.10195 0.92334 0.0
C1050 C 0.3871 0.1124 0.99239 0.0
C1051 C 0.35511 0.09195 0.89437 0.0
C1052 C 0.3663 0.11263 0.0322 0.0
C1053 C 0.34009 0.10226 0.00423 0.0
H1054 H 0.9378 0.22857 0.92679 0.0
H1055 H 0.94816 0.26764 0.72414 0.0
H1056 H 0.92863 0.29454 0.77086 0.0
H1057 H 0.90999 0.30793 0.87142 0.0
H1058 H 0.89886 0.26708 0.072 0.0
H1059 H 0.91756 0.24007 0.02396 0.0
C1060 C 0.93574 0.24292 0.89263 0.0
C1061 C 0.9446 0.24627 0.82231 0.0
C1062 C 0.92455 0.25814 0.91968 0.0
C1063 C 0.94141 0.26464 0.77849 0.0
C1064 C 0.93041 0.28013 0.8053 0.0
C1065 C 0.91176 0.29316 0.90448 0.0
C1066 C 0.9032 0.28964 0.97526 0.0
C1067 C 0.92219 0.27727 0.87615 0.0
C1068 C 0.90525 0.27017 0.01732 0.0
C1069 C 0.91595 0.2547 0.98997 0.0
H1070 H 0.7476 0.70395 0.77437 0.0
H1071 H 0.8212 0.7324 0.8966 0.0
H1072 H 0.80114 0.68907 0.96075 0.0
H1073 H 0.76129 0.64475 0.98954 0.0
H1074 H 0.68664 0.61703 0.87135 0.0
H1075 H 0.70831 0.65819 0.79897 0.0
C1076 C 0.75937 0.70026 0.81376 0.0
C1077 C 0.78583 0.72108 0.83048 0.0
C1078 C 0.74732 0.67562 0.85234 0.0
C1079 C 0.80079 0.71646 0.88274 0.0
C1080 C 0.78928 0.69181 0.91977 0.0
C1081 C 0.74976 0.64763 0.94783 0.0
C1082 C 0.72228 0.62784 0.9367 0.0
C1083 C 0.76229 0.67151 0.90642 0.0
C1084 C 0.70778 0.63195 0.88183 0.0
C1085 C 0.72017 0.6555 0.84004 0.0
H1086 H 0.92885 0.66171 0.55053 0.0
H1087 H 0.87884 0.62131 0.36917 0.0
H1088 H 0.89969 0.66432 0.30395 0.0
H1089 H 0.93386 0.71263 0.29579 0.0
H1090 H 0.98576 0.75311 0.47455 0.0
H1091 H 0.96258 0.71091 0.54314 0.0
C1092 C 0.92231 0.66253 0.49715 0.0
C1093 C 0.90242 0.63851 0.46458 0.0
C1094 C 0.93494 0.68723 0.45913 0.0
C1095 C 0.89427 0.63961 0.39508 0.0
C1096 C 0.90619 0.66415 0.35772 0.0
C1097 C 0.94008 0.71231 0.34982 0.0
C1098 C 0.96161 0.73599 0.37969 0.0
C1099 C 0.92689 0.68796 0.38874 0.0
C1100 C 0.96935 0.73513 0.44991 0.0
C1101 C 0.95606 0.71102 0.48936 0.0
H1102 H 0.27758 0.25446 0.4534 0.0
H1103 H 0.30826 0.24603 0.25246 0.0
H1104 H 0.35453 0.26844 0.29924 0.0
H1105 H 0.38626 0.29047 0.39596 0.0
H1106 H 0.35654 0.29764 0.59933 0.0
H1107 H 0.30979 0.27549 0.55293 0.0
C1108 C 0.29444 0.25761 0.41995 0.0
C1109 C 0.2895 0.24868 0.34951 0.0
C1110 C 0.32108 0.27019 0.44754 0.0
C1111 C 0.31147 0.25261 0.30693 0.0
C1112 C 0.33796 0.26548 0.33353 0.0
C1113 C 0.3696 0.28731 0.43023 0.0
C1114 C 0.37485 0.29589 0.50075 0.0
C1115 C 0.34297 0.27435 0.40358 0.0
C1116 C 0.35298 0.29119 0.54478 0.0
C1117 C 0.3263 0.27861 0.51822 0.0
H1118 H 0.76451 0.04693 0.45979 0.0
H1119 H 0.79016 0.09791 0.2734 0.0
H1120 H 0.77078 0.12464 0.32038 0.0
H1121 H 0.74486 0.13228 0.41159 0.0
H1122 H 0.72041 0.08263 0.60014 0.0
H1123 H 0.74127 0.05674 0.55534 0.0
C1124 C 0.76592 0.06394 0.42956 0.0
C1125 C 0.77854 0.07025 0.36287 0.0
C1126 C 0.75497 0.07943 0.45721 0.0
C1127 C 0.78055 0.09259 0.32481 0.0
C1128 C 0.76941 0.10785 0.35154 0.0
C1129 C 0.74416 0.11584 0.44304 0.0
C1130 C 0.73087 0.10918 0.50874 0.0
C1131 C 0.75632 0.10125 0.41724 0.0
C1132 C 0.73054 0.08815 0.5494 0.0
C1133 C 0.74235 0.07328 0.52367 0.0
H1134 H 0.61607 0.92241 0.12539 0.0
H1135 H 0.64344 0.90343 0.93267 0.0
H1136 H 0.68981 0.9244 0.97885 0.0
H1137 H 0.72262 0.94874 0.07228 0.0
H1138 H 0.69578 0.96633 0.26762 0.0
H1139 H 0.64895 0.94506 0.22222 0.0
C1140 C 0.63222 0.92291 0.09359 0.0
C1141 C 0.62641 0.91157 0.02559 0.0
C1142 C 0.65881 0.93467 0.12085 0.0
C1143 C 0.6474 0.91199 0.98524 0.0
C1144 C 0.67392 0.92402 0.01148 0.0
C1145 C 0.70653 0.94798 0.10494 0.0
C1146 C 0.71259 0.95931 0.17279 0.0
C1147 C 0.67985 0.93552 0.07894 0.0
C1148 C 0.69152 0.95772 0.21511 0.0
C1149 C 0.66482 0.94567 0.18911 0.0
H1150 H 0.08441 0.80868 0.08885 0.0
H1151 H 0.06016 0.76113 0.28075 0.0
H1152 H 0.07887 0.73311 0.23621 0.0
H1153 H 0.09956 0.72051 0.13836 0.0
H1154 H 0.1237 0.76949 0.9482 0.0
H1155 H 0.10732 0.79837 0.99633 0.0
C1156 C 0.08338 0.79231 0.12131 0.0
C1157 C 0.07074 0.7868 0.18764 0.0
C1158 C 0.09387 0.77633 0.09526 0.0
C1159 C 0.06992 0.76581 0.22953 0.0
C1160 C 0.08039 0.74967 0.2038 0.0
C1161 C 0.1012 0.7375 0.10763 0.0
C1162 C 0.11266 0.74265 0.03952 0.0
C1163 C 0.09193 0.75441 0.13601 0.0
C1164 C 0.115 0.765 0.00069 0.0
C1165 C 0.10563 0.78158 0.02811 0.0
H1166 H 0.21475 0.29657 0.07067 0.0
H1167 H 0.25804 0.32141 0.26855 0.0
H1168 H 0.28379 0.36868 0.2258 0.0
H1169 H 0.2958 0.40228 0.12899 0.0
H1170 H 0.25095 0.37698 0.93306 0.0
H1171 H 0.22398 0.33051 0.97836 0.0
C1172 C 0.22971 0.31236 0.1047 0.0
C1173 C 0.2347 0.30548 0.17241 0.0
C1174 C 0.24426 0.33935 0.0799 0.0
C1175 C 0.25381 0.32621 0.21627 0.0
C1176 C 0.26863 0.35318 0.19165 0.0
C1177 C 0.28006 0.3866 0.09632 0.0
C1178 C 0.27562 0.39306 0.02737 0.0
C1179 C 0.26435 0.35989 0.12305 0.0
C1180 C 0.25486 0.3726 0.98617 0.0
C1181 C 0.23945 0.34599 0.01198 0.0
H1182 H 0.95298 0.40801 0.26654 0.0
H1183 H 0.9832 0.39681 0.06836 0.0
H1184 H 0.02944 0.41746 0.11832 0.0
H1185 H 0.06063 0.43681 0.22072 0.0
H1186 H 0.02941 0.44849 0.41704 0.0
H1187 H 0.98399 0.42923 0.36531 0.0
C1188 C 0.96967 0.41011 0.23398 0.0
C1189 C 0.96462 0.40062 0.164 0.0
C1190 C 0.99592 0.42186 0.26299 0.0
C1191 C 0.98657 0.40398 0.12229 0.0
C1192 C 0.01293 0.41562 0.15105 0.0
C1193 C 0.04386 0.43507 0.2522 0.0
C1194 C 0.04839 0.44385 0.32301 0.0
C1195 C 0.01775 0.42426 0.22173 0.0
C1196 C 0.02653 0.44186 0.36264 0.0
C1197 C 0.00053 0.43085 0.33309 0.0
H1198 H 0.61065 0.56336 0.2691 0.0
H1199 H 0.62292 0.60527 0.07003 0.0
H1200 H 0.60231 0.63097 0.11779 0.0
H1201 H 0.58209 0.64236 0.21765 0.0
H1202 H 0.56807 0.59857 0.41448 0.0
H1203 H 0.58815 0.57271 0.36597 0.0
C1204 C 0.60879 0.57811 0.23612 0.0
C1205 C 0.6185 0.58265 0.16644 0.0
C1206 C 0.59671 0.59249 0.26358 0.0
C1207 C 0.61556 0.60145 0.12387 0.0
C1208 C 0.6039 0.61619 0.15123 0.0
C1209 C 0.58346 0.62717 0.24985 0.0
C1210 C 0.57384 0.62253 0.3197 0.0
C1211 C 0.59464 0.61205 0.22125 0.0
C1212 C 0.57534 0.6025 0.36054 0.0
C1213 C 0.58686 0.58775 0.33293 0.0
H1214 H 0.42139 0.98125 0.34959 0.0
H1215 H 0.35599 0.94726 0.19686 0.0
H1216 H 0.37827 0.98953 0.1286 0.0
H1217 H 0.41528 0.03722 0.11523 0.0
H1218 H 0.47918 0.07165 0.27171 0.0
H1219 H 0.45879 0.02818 0.33473 0.0
C1220 C 0.41208 0.98301 0.30119 0.0
C1221 C 0.387 0.96116 0.27876 0.0
C1222 C 0.42478 0.00752 0.26259 0.0
C1223 C 0.3752 0.96385 0.21585 0.0
C1224 C 0.38795 0.98801 0.17652 0.0
C1225 C 0.42487 0.035 0.16254 0.0
C1226 C 0.4486 0.05753 0.18889 0.0
C1227 C 0.41261 0.0101 0.19975 0.0
C1228 C 0.46074 0.05457 0.25071 0.0
C1229 C 0.44911 0.02975 0.28685 0.0
H1230 H 0.55514 0.96084 0.73426 0.0
H1231 H 0.59737 0.98814 0.93315 0.0
H1232 H 0.62331 0.0348 0.88703 0.0
H1233 H 0.63521 0.06729 0.78833 0.0
H1234 H 0.59165 0.0398 0.59107 0.0
H1235 H 0.56496 0.99363 0.6386 0.0
C1236 C 0.56997 0.97701 0.76765 0.0
C1237 C 0.57454 0.97104 0.83675 0.0
C1238 C 0.58463 0.00367 0.74099 0.0
C1239 C 0.59349 0.99225 0.87975 0.0
C1240 C 0.6084 0.01888 0.85332 0.0
C1241 C 0.61987 0.05118 0.75578 0.0
C1242 C 0.61559 0.05689 0.68606 0.0
C1243 C 0.60436 0.02473 0.78371 0.0
C1244 C 0.59536 0.03593 0.64487 0.0
C1245 C 0.58012 0.00952 0.67193 0.0
H1246 H 0.0486 0.66584 0.7984 0.0
H1247 H 0.0358 0.59354 0.9088 0.0
H1248 H 0.99173 0.56657 0.8488 0.0
H1249 H 0.95848 0.56334 0.75793 0.0
H1250 H 0.97078 0.63658 0.65364 0.0
H1251 H 0.01375 0.66357 0.71743 0.0
C1252 C 0.03587 0.64426 0.8102 0.0
C1253 C 0.04524 0.63158 0.85762 0.0
C1254 C 0.01087 0.62908 0.77548 0.0
C1255 C 0.02871 0.6037 0.873 0.0
C1256 C 0.00375 0.58827 0.83805 0.0
C1257 C 0.97077 0.58519 0.74927 0.0
C1258 C 0.96212 0.59808 0.70039 0.0
C1259 C 0.99495 0.60065 0.78789 0.0
C1260 C 0.97751 0.6264 0.69047 0.0
C1261 C 0.0019 0.64177 0.72708 0.0
H1262 H 0.42351 0.37989 0.79261 0.0
H1263 H 0.45045 0.43259 0.60936 0.0
H1264 H 0.43062 0.45874 0.65691 0.0
H1265 H 0.40446 0.46581 0.74805 0.0
H1266 H 0.37869 0.41465 0.93387 0.0
H1267 H 0.39945 0.3888 0.88796 0.0
C1268 C 0.42506 0.39712 0.76318 0.0
C1269 C 0.43826 0.40414 0.69729 0.0
C1270 C 0.41385 0.41231 0.7912 0.0
C1271 C 0.44043 0.42674 0.6602 0.0
C1272 C 0.42903 0.44169 0.68723 0.0
C1273 C 0.40339 0.449 0.77859 0.0
C1274 C 0.38984 0.44193 0.84385 0.0
C1275 C 0.41551 0.4345 0.75228 0.0
C1276 C 0.38903 0.42045 0.88343 0.0
C1277 C 0.40079 0.40563 0.85709 0.0
loop_
_geom_bond_atom_site_label_1
_geom_bond_atom_site_label_2
_geom_bond_distance
_geom_bond_site_symmetry_2
_ccdc_geom_bond_type
O0 Zn1 1.953 1_455 S
O0 C16 1.225 . S
Zn1 O0 1.953 1_655 S
Zn1 O2 1.949 1_655 S
Zn1 O8 1.919 . S
Zn1 O13 1.924 . S
O2 Zn1 1.949 1_455 S
O2 Zn3 1.923 . S
O2 Zn4 1.950 . S
O2 Zn5 1.945 1_455 S
Zn3 O2 1.923 . S
Zn3 O6 1.933 1_455 S
Zn3 O9 1.941 1_455 S
Zn3 O10 1.965 . S
Zn4 O2 1.950 . S
Zn4 O11 1.938 . S
Zn4 O12 1.906 . S
Zn4 O22 1.953 . S
Zn5 O2 1.945 1_655 S
Zn5 O7 1.932 . S
Zn5 O14 1.977 1_655 S
Zn5 O15 1.910 . S
O6 Zn3 1.933 1_655 S
O6 C17 1.226 . S
O7 Zn5 1.932 . S
O7 C17 1.307 . S
O8 Zn1 1.919 . S
O8 C19 1.253 . S
O9 Zn3 1.941 1_655 S
O9 C19 1.283 . S
O10 Zn3 1.965 . S
O10 C18 1.303 . S
O11 Zn4 1.938 . S
O11 C18 1.247 . S
O12 Zn4 1.906 . S
O12 C20 1.304 . S
O13 Zn1 1.924 . S
O13 C21 1.311 . S
O14 Zn5 1.977 1_455 S
O14 C20 1.272 . S
O15 Zn5 1.910 . S
O15 C21 1.231 . S
C16 O0 1.225 . S
C16 O22 1.298 . S
C17 O6 1.226 . S
C17 O7 1.307 . S
C18 O10 1.303 . S
C18 O11 1.247 . S
C19 O8 1.253 . S
C19 O9 1.283 . S
C20 O12 1.304 . S
C20 O14 1.272 . S
C21 O13 1.311 . S
C21 O15 1.231 . S
O22 Zn4 1.953 . S
O22 C16 1.298 . S
O23 Zn24 1.953 . S
O23 C39 1.225 . S
Zn24 O23 1.953 . S
Zn24 O25 1.949 . S
Zn24 O31 1.919 . S
Zn24 O36 1.924 . S
O25 Zn24 1.949 . S
O25 Zn26 1.923 . S
O25 Zn27 1.950 . S
O25 Zn28 1.945 . S
Zn26 O25 1.923 . S
Zn26 O29 1.933 . S
Zn26 O32 1.941 . S
Zn26 O33 1.965 . S
Zn27 O25 1.950 . S
Zn27 O34 1.938 . S
Zn27 O35 1.906 . S
Zn27 O45 1.953 . S
Zn28 O25 1.945 . S
Zn28 O30 1.932 . S
Zn28 O37 1.977 . S
Zn28 O38 1.910 . S
O29 Zn26 1.933 . S
O29 C40 1.226 . S
O30 Zn28 1.932 . S
O30 C40 1.307 . S
O31 Zn24 1.919 . S
O31 C42 1.253 . S
O32 Zn26 1.941 . S
O32 C42 1.283 . S
O33 Zn26 1.965 . S
O33 C41 1.303 . S
O34 Zn27 1.938 . S
O34 C41 1.247 . S
O35 Zn27 1.906 . S
O35 C43 1.304 . S
O36 Zn24 1.924 . S
O36 C44 1.311 . S
O37 Zn28 1.977 . S
O37 C43 1.272 . S
O38 Zn28 1.910 . S
O38 C44 1.231 . S
C39 O23 1.225 . S
C39 O45 1.298 . S
C40 O29 1.226 . S
C40 O30 1.307 . S
C41 O33 1.303 . S
C41 O34 1.247 . S
C42 O31 1.253 . S
C42 O32 1.283 . S
C43 O35 1.304 . S
C43 O37 1.272 . S
C44 O36 1.311 . S
C44 O38 1.231 . S
O45 Zn27 1.953 . S
O45 C39 1.298 . S
O46 Zn47 1.953 . S
O46 C62 1.225 1_545 S
Zn47 O46 1.953 . S
Zn47 O48 1.949 . S
Zn47 O54 1.919 . S
Zn47 O59 1.924 . S
O48 Zn47 1.949 . S
O48 Zn49 1.923 . S
O48 Zn50 1.950 1_545 S
O48 Zn51 1.945 . S
Zn49 O48 1.923 . S
Zn49 O52 1.933 . S
Zn49 O55 1.941 . S
Zn49 O56 1.965 1_545 S
Zn50 O48 1.950 1_565 S
Zn50 O57 1.938 . S
Zn50 O58 1.906 . S
Zn50 O68 1.953 . S
Zn51 O48 1.945 . S
Zn51 O53 1.932 . S
Zn51 O60 1.977 1_545 S
Zn51 O61 1.910 . S
O52 Zn49 1.933 . S
O52 C63 1.226 . S
O53 Zn51 1.932 . S
O53 C63 1.307 . S
O54 Zn47 1.919 . S
O54 C65 1.253 . S
O55 Zn49 1.941 . S
O55 C65 1.283 . S
O56 Zn49 1.965 1_565 S
O56 C64 1.303 . S
O57 Zn50 1.938 . S
O57 C64 1.247 . S
O58 Zn50 1.906 . S
O58 C66 1.304 . S
O59 Zn47 1.924 . S
O59 C67 1.311 . S
O60 Zn51 1.977 1_565 S
O60 C66 1.272 . S
O61 Zn51 1.910 . S
O61 C67 1.231 . S
C62 O46 1.225 1_565 S
C62 O68 1.298 . S
C63 O52 1.226 . S
C63 O53 1.307 . S
C64 O56 1.303 . S
C64 O57 1.247 . S
C65 O54 1.253 . S
C65 O55 1.283 . S
C66 O58 1.304 . S
C66 O60 1.272 . S
C67 O59 1.311 . S
C67 O61 1.231 . S
O68 Zn50 1.953 . S
O68 C62 1.298 . S
O69 Zn70 1.953 . S
O69 C85 1.225 . S
Zn70 O69 1.953 . S
Zn70 O71 1.949 . S
Zn70 O77 1.919 . S
Zn70 O82 1.924 . S
O71 Zn70 1.949 . S
O71 Zn72 1.923 . S
O71 Zn73 1.950 . S
O71 Zn74 1.945 1_455 S
Zn72 O71 1.923 . S
Zn72 O75 1.933 . S
Zn72 O78 1.941 . S
Zn72 O79 1.965 . S
Zn73 O71 1.950 . S
Zn73 O80 1.938 . S
Zn73 O81 1.906 1_455 S
Zn73 O91 1.953 . S
Zn74 O71 1.945 1_655 S
Zn74 O76 1.932 . S
Zn74 O83 1.977 . S
Zn74 O84 1.910 . S
O75 Zn72 1.933 . S
O75 C86 1.226 1_455 S
O76 Zn74 1.932 . S
O76 C86 1.307 . S
O77 Zn70 1.919 . S
O77 C88 1.253 . S
O78 Zn72 1.941 . S
O78 C88 1.283 . S
O79 Zn72 1.965 . S
O79 C87 1.303 . S
O80 Zn73 1.938 . S
O80 C87 1.247 . S
O81 Zn73 1.906 1_655 S
O81 C89 1.304 . S
O82 Zn70 1.924 . S
O82 C90 1.311 1_455 S
O83 Zn74 1.977 . S
O83 C89 1.272 . S
O84 Zn74 1.910 . S
O84 C90 1.231 . S
C85 O69 1.225 . S
C85 O91 1.298 . S
C86 O75 1.226 1_655 S
C86 O76 1.307 . S
C87 O79 1.303 . S
C87 O80 1.247 . S
C88 O77 1.253 . S
C88 O78 1.283 . S
C89 O81 1.304 . S
C89 O83 1.272 . S
C90 O82 1.311 1_655 S
C90 O84 1.231 . S
O91 Zn73 1.953 . S
O91 C85 1.298 . S
O92 Zn93 1.953 . S
O92 C108 1.225 . S
Zn93 O92 1.953 . S
Zn93 O94 1.949 . S
Zn93 O100 1.919 . S
Zn93 O105 1.924 . S
O94 Zn93 1.949 . S
O94 Zn95 1.923 . S
O94 Zn96 1.950 . S
O94 Zn97 1.945 . S
Zn95 O94 1.923 . S
Zn95 O98 1.933 . S
Zn95 O101 1.941 . S
Zn95 O102 1.965 . S
Zn96 O94 1.950 . S
Zn96 O103 1.938 . S
Zn96 O104 1.906 . S
Zn96 O114 1.953 . S
Zn97 O94 1.945 . S
Zn97 O99 1.932 . S
Zn97 O106 1.977 . S
Zn97 O107 1.910 . S
O98 Zn95 1.933 . S
O98 C109 1.226 . S
O99 Zn97 1.932 . S
O99 C109 1.307 . S
O100 Zn93 1.919 . S
O100 C111 1.253 . S
O101 Zn95 1.941 . S
O101 C111 1.283 . S
O102 Zn95 1.965 . S
O102 C110 1.303 . S
O103 Zn96 1.938 . S
O103 C110 1.247 . S
O104 Zn96 1.906 . S
O104 C112 1.304 . S
O105 Zn93 1.924 . S
O105 C113 1.311 . S
O106 Zn97 1.977 . S
O106 C112 1.272 . S
O107 Zn97 1.910 . S
O107 C113 1.231 . S
C108 O92 1.225 . S
C108 O114 1.298 . S
C109 O98 1.226 . S
C109 O99 1.307 . S
C110 O102 1.303 . S
C110 O103 1.247 . S
C111 O100 1.253 . S
C111 O101 1.283 . S
C112 O104 1.304 . S
C112 O106 1.272 . S
C113 O105 1.311 . S
C113 O107 1.231 . S
O114 Zn96 1.953 . S
O114 C108 1.298 . S
O115 Zn116 1.953 . S
O115 C131 1.225 . S
Zn116 O115 1.953 . S
Zn116 O117 1.949 1_565 S
Zn116 O123 1.919 . S
Zn116 O128 1.924 1_565 S
O117 Zn116 1.949 1_545 S
O117 Zn118 1.923 1_545 S
O117 Zn119 1.950 . S
O117 Zn120 1.945 . S
Zn118 O117 1.923 1_565 S
Zn118 O121 1.933 1_565 S
Zn118 O124 1.941 . S
Zn118 O125 1.965 . S
Zn119 O117 1.950 . S
Zn119 O126 1.938 1_545 S
Zn119 O127 1.906 . S
Zn119 O137 1.953 1_545 S
Zn120 O117 1.945 . S
Zn120 O122 1.932 . S
Zn120 O129 1.977 . S
Zn120 O130 1.910 . S
O121 Zn118 1.933 1_545 S
O121 C132 1.226 . S
O122 Zn120 1.932 . S
O122 C132 1.307 . S
O123 Zn116 1.919 . S
O123 C134 1.253 . S
O124 Zn118 1.941 . S
O124 C134 1.283 . S
O125 Zn118 1.965 . S
O125 C133 1.303 . S
O126 Zn119 1.938 1_565 S
O126 C133 1.247 . S
O127 Zn119 1.906 . S
O127 C135 1.304 . S
O128 Zn116 1.924 1_545 S
O128 C136 1.311 . S
O129 Zn120 1.977 . S
O129 C135 1.272 . S
O130 Zn120 1.910 . S
O130 C136 1.231 . S
C131 O115 1.225 . S
C131 O137 1.298 . S
C132 O121 1.226 . S
C132 O122 1.307 . S
C133 O125 1.303 . S
C133 O126 1.247 . S
C134 O123 1.253 . S
C134 O124 1.283 . S
C135 O127 1.304 . S
C135 O129 1.272 . S
C136 O128 1.311 . S
C136 O130 1.231 . S
O137 Zn119 1.953 1_565 S
O137 C131 1.298 . S
O138 Zn139 1.953 1_556 S
O138 C154 1.225 . S
Zn139 O138 1.953 1_554 S
Zn139 O140 1.949 . S
Zn139 O146 1.919 1_554 S
Zn139 O151 1.924 . S
O140 Zn139 1.949 . S
O140 Zn141 1.923 . S
O140 Zn142 1.950 . S
O140 Zn143 1.945 . S
Zn141 O140 1.923 . S
Zn141 O144 1.933 . S
Zn141 O147 1.941 1_554 S
Zn141 O148 1.965 . S
Zn142 O140 1.950 . S
Zn142 O149 1.938 . S
Zn142 O150 1.906 . S
Zn142 O160 1.953 . S
Zn143 O140 1.945 . S
Zn143 O145 1.932 . S
Zn143 O152 1.977 . S
Zn143 O153 1.910 . S
O144 Zn141 1.933 . S
O144 C155 1.226 . S
O145 Zn143 1.932 . S
O145 C155 1.307 . S
O146 Zn139 1.919 1_556 S
O146 C157 1.253 . S
O147 Zn141 1.941 1_556 S
O147 C157 1.283 . S
O148 Zn141 1.965 . S
O148 C156 1.303 1_554 S
O149 Zn142 1.938 . S
O149 C156 1.247 1_554 S
O150 Zn142 1.906 . S
O150 C158 1.304 . S
O151 Zn139 1.924 . S
O151 C159 1.311 . S
O152 Zn143 1.977 . S
O152 C158 1.272 . S
O153 Zn143 1.910 . S
O153 C159 1.231 . S
C154 O138 1.225 . S
C154 O160 1.298 1_556 S
C155 O144 1.226 . S
C155 O145 1.307 . S
C156 O148 1.303 1_556 S
C156 O149 1.247 1_556 S
C157 O146 1.253 . S
C157 O147 1.283 . S
C158 O150 1.304 . S
C158 O152 1.272 . S
C159 O151 1.311 . S
C159 O153 1.231 . S
O160 Zn142 1.953 . S
O160 C154 1.298 1_554 S
O161 Zn162 1.953 1_556 S
O161 C177 1.225 . S
Zn162 O161 1.953 1_554 S
Zn162 O163 1.949 . S
Zn162 O169 1.919 1_554 S
Zn162 O174 1.924 . S
O163 Zn162 1.949 . S
O163 Zn164 1.923 . S
O163 Zn165 1.950 . S
O163 Zn166 1.945 . S
Zn164 O163 1.923 . S
Zn164 O167 1.933 . S
Zn164 O170 1.941 1_554 S
Zn164 O171 1.965 . S
Zn165 O163 1.950 . S
Zn165 O172 1.938 . S
Zn165 O173 1.906 . S
Zn165 O183 1.953 . S
Zn166 O163 1.945 . S
Zn166 O168 1.932 . S
Zn166 O175 1.977 . S
Zn166 O176 1.910 . S
O167 Zn164 1.933 . S
O167 C178 1.226 . S
O168 Zn166 1.932 . S
O168 C178 1.307 . S
O169 Zn162 1.919 1_556 S
O169 C180 1.253 . S
O170 Zn164 1.941 1_556 S
O170 C180 1.283 . S
O171 Zn164 1.965 . S
O171 C179 1.303 1_554 S
O172 Zn165 1.938 . S
O172 C179 1.247 1_554 S
O173 Zn165 1.906 . S
O173 C181 1.304 . S
O174 Zn162 1.924 . S
O174 C182 1.311 . S
O175 Zn166 1.977 . S
O175 C181 1.272 . S
O176 Zn166 1.910 . S
O176 C182 1.231 . S
C177 O161 1.225 . S
C177 O183 1.298 1_556 S
C178 O167 1.226 . S
C178 O168 1.307 . S
C179 O171 1.303 1_556 S
C179 O172 1.247 1_556 S
C180 O169 1.253 . S
C180 O170 1.283 . S
C181 O173 1.304 . S
C181 O175 1.272 . S
C182 O174 1.311 . S
C182 O176 1.231 . S
O183 Zn165 1.953 . S
O183 C177 1.298 1_554 S
O184 Zn185 1.953 1_556 S
O184 C200 1.225 . S
Zn185 O184 1.953 1_554 S
Zn185 O186 1.949 . S
Zn185 O192 1.919 1_554 S
Zn185 O197 1.924 . S
O186 Zn185 1.949 . S
O186 Zn187 1.923 . S
O186 Zn188 1.950 . S
O186 Zn189 1.945 . S
Zn187 O186 1.923 . S
Zn187 O190 1.933 . S
Zn187 O193 1.941 1_554 S
Zn187 O194 1.965 . S
Zn188 O186 1.950 . S
Zn188 O195 1.938 . S
Zn188 O196 1.906 . S
Zn188 O206 1.953 . S
Zn189 O186 1.945 . S
Zn189 O191 1.932 . S
Zn189 O198 1.977 . S
Zn189 O199 1.910 . S
O190 Zn187 1.933 . S
O190 C201 1.226 . S
O191 Zn189 1.932 . S
O191 C201 1.307 . S
O192 Zn185 1.919 1_556 S
O192 C203 1.253 . S
O193 Zn187 1.941 1_556 S
O193 C203 1.283 . S
O194 Zn187 1.965 . S
O194 C202 1.303 1_554 S
O195 Zn188 1.938 . S
O195 C202 1.247 1_554 S
O196 Zn188 1.906 . S
O196 C204 1.304 . S
O197 Zn185 1.924 . S
O197 C205 1.311 . S
O198 Zn189 1.977 . S
O198 C204 1.272 . S
O199 Zn189 1.910 . S
O199 C205 1.231 . S
C200 O184 1.225 . S
C200 O206 1.298 1_556 S
C201 O190 1.226 . S
C201 O191 1.307 . S
C202 O194 1.303 1_556 S
C202 O195 1.247 1_556 S
C203 O192 1.253 . S
C203 O193 1.283 . S
C204 O196 1.304 . S
C204 O198 1.272 . S
C205 O197 1.311 . S
C205 O199 1.231 . S
O206 Zn188 1.953 . S
O206 C200 1.298 1_554 S
O207 Zn208 1.953 . S
O207 C223 1.225 . S
Zn208 O207 1.953 . S
Zn208 O209 1.949 . S
Zn208 O215 1.919 . S
Zn208 O220 1.924 . S
O209 Zn208 1.949 . S
O209 Zn210 1.923 . S
O209 Zn211 1.950 . S
O209 Zn212 1.945 . S
Zn210 O209 1.923 . S
Zn210 O213 1.933 . S
Zn210 O216 1.941 . S
Zn210 O217 1.965 . S
Zn211 O209 1.950 . S
Zn211 O218 1.938 . S
Zn211 O219 1.906 . S
Zn211 O229 1.953 . S
Zn212 O209 1.945 . S
Zn212 O214 1.932 . S
Zn212 O221 1.977 . S
Zn212 O222 1.910 . S
O213 Zn210 1.933 . S
O213 C224 1.226 . S
O214 Zn212 1.932 . S
O214 C224 1.307 . S
O215 Zn208 1.919 . S
O215 C226 1.253 . S
O216 Zn210 1.941 . S
O216 C226 1.283 . S
O217 Zn210 1.965 . S
O217 C225 1.303 . S
O218 Zn211 1.938 . S
O218 C225 1.247 . S
O219 Zn211 1.906 . S
O219 C227 1.304 . S
O220 Zn208 1.924 . S
O220 C228 1.311 . S
O221 Zn212 1.977 . S
O221 C227 1.272 . S
O222 Zn212 1.910 . S
O222 C228 1.231 . S
C223 O207 1.225 . S
C223 O229 1.298 . S
C224 O213 1.226 . S
C224 O214 1.307 . S
C225 O217 1.303 . S
C225 O218 1.247 . S
C226 O215 1.253 . S
C226 O216 1.283 . S
C227 O219 1.304 . S
C227 O221 1.272 . S
C228 O220 1.311 . S
C228 O222 1.231 . S
O229 Zn211 1.953 . S
O229 C223 1.298 . S
O230 Zn231 1.953 . S
O230 C246 1.225 . S
Zn231 O230 1.953 . S
Zn231 O232 1.949 . S
Zn231 O238 1.919 . S
Zn231 O243 1.924 . S
O232 Zn231 1.949 . S
O232 Zn233 1.923 . S
O232 Zn234 1.950 . S
O232 Zn235 1.945 . S
Zn233 O232 1.923 . S
Zn233 O236 1.933 . S
Zn233 O239 1.941 . S
Zn233 O240 1.965 . S
Zn234 O232 1.950 . S
Zn234 O241 1.938 . S
Zn234 O242 1.906 . S
Zn234 O252 1.953 . S
Zn235 O232 1.945 . S
Zn235 O237 1.932 . S
Zn235 O244 1.977 . S
Zn235 O245 1.910 . S
O236 Zn233 1.933 . S
O236 C247 1.226 . S
O237 Zn235 1.932 . S
O237 C247 1.307 . S
O238 Zn231 1.919 . S
O238 C249 1.253 . S
O239 Zn233 1.941 . S
O239 C249 1.283 . S
O240 Zn233 1.965 . S
O240 C248 1.303 . S
O241 Zn234 1.938 . S
O241 C248 1.247 . S
O242 Zn234 1.906 . S
O242 C250 1.304 . S
O243 Zn231 1.924 . S
O243 C251 1.311 . S
O244 Zn235 1.977 . S
O244 C250 1.272 . S
O245 Zn235 1.910 . S
O245 C251 1.231 . S
C246 O230 1.225 . S
C246 O252 1.298 . S
C247 O236 1.226 . S
C247 O237 1.307 . S
C248 O240 1.303 . S
C248 O241 1.247 . S
C249 O238 1.253 . S
C249 O239 1.283 . S
C250 O242 1.304 . S
C250 O244 1.272 . S
C251 O243 1.311 . S
C251 O245 1.231 . S
O252 Zn234 1.953 . S
O252 C246 1.298 . S
O253 Zn254 1.953 . S
O253 C269 1.225 . S
Zn254 O253 1.953 . S
Zn254 O255 1.949 . S
Zn254 O261 1.919 . S
Zn254 O266 1.924 . S
O255 Zn254 1.949 . S
O255 Zn256 1.923 . S
O255 Zn257 1.950 . S
O255 Zn258 1.945 . S
Zn256 O255 1.923 . S
Zn256 O259 1.933 . S
Zn256 O262 1.941 . S
Zn256 O263 1.965 . S
Zn257 O255 1.950 . S
Zn257 O264 1.938 . S
Zn257 O265 1.906 . S
Zn257 O275 1.953 . S
Zn258 O255 1.945 . S
Zn258 O260 1.932 . S
Zn258 O267 1.977 . S
Zn258 O268 1.910 . S
O259 Zn256 1.933 . S
O259 C270 1.226 . S
O260 Zn258 1.932 . S
O260 C270 1.307 . S
O261 Zn254 1.919 . S
O261 C272 1.253 . S
O262 Zn256 1.941 . S
O262 C272 1.283 . S
O263 Zn256 1.965 . S
O263 C271 1.303 . S
O264 Zn257 1.938 . S
O264 C271 1.247 . S
O265 Zn257 1.906 . S
O265 C273 1.304 . S
O266 Zn254 1.924 . S
O266 C274 1.311 . S
O267 Zn258 1.977 . S
O267 C273 1.272 . S
O268 Zn258 1.910 . S
O268 C274 1.231 . S
C269 O253 1.225 . S
C269 O275 1.298 . S
C270 O259 1.226 . S
C270 O260 1.307 . S
C271 O263 1.303 . S
C271 O264 1.247 . S
C272 O261 1.253 . S
C272 O262 1.283 . S
C273 O265 1.304 . S
C273 O267 1.272 . S
C274 O266 1.311 . S
C274 O268 1.231 . S
O275 Zn257 1.953 . S
O275 C269 1.298 . S
O276 Zn277 1.953 . S
O276 C292 1.225 . S
Zn277 O276 1.953 . S
Zn277 O278 1.949 . S
Zn277 O284 1.919 . S
Zn277 O289 1.924 . S
O278 Zn277 1.949 . S
O278 Zn279 1.923 . S
O278 Zn280 1.950 . S
O278 Zn281 1.945 . S
Zn279 O278 1.923 . S
Zn279 O282 1.933 . S
Zn279 O285 1.941 . S
Zn279 O286 1.965 . S
Zn280 O278 1.950 . S
Zn280 O287 1.938 . S
Zn280 O288 1.906 . S
Zn280 O298 1.953 . S
Zn281 O278 1.945 . S
Zn281 O283 1.932 . S
Zn281 O290 1.977 . S
Zn281 O291 1.910 . S
O282 Zn279 1.933 . S
O282 C293 1.226 . S
O283 Zn281 1.932 . S
O283 C293 1.307 . S
O284 Zn277 1.919 . S
O284 C295 1.253 . S
O285 Zn279 1.941 . S
O285 C295 1.283 . S
O286 Zn279 1.965 . S
O286 C294 1.303 . S
O287 Zn280 1.938 . S
O287 C294 1.247 . S
O288 Zn280 1.906 . S
O288 C296 1.304 . S
O289 Zn277 1.924 . S
O289 C297 1.311 . S
O290 Zn281 1.977 . S
O290 C296 1.272 . S
O291 Zn281 1.910 . S
O291 C297 1.231 . S
C292 O276 1.225 . S
C292 O298 1.298 . S
C293 O282 1.226 . S
C293 O283 1.307 . S
C294 O286 1.303 . S
C294 O287 1.247 . S
C295 O284 1.253 . S
C295 O285 1.283 . S
C296 O288 1.304 . S
C296 O290 1.272 . S
C297 O289 1.311 . S
C297 O291 1.231 . S
O298 Zn280 1.953 . S
O298 C292 1.298 . S
O299 Zn300 1.953 . S
O299 C315 1.225 . S
Zn300 O299 1.953 . S
Zn300 O301 1.949 . S
Zn300 O307 1.919 . S
Zn300 O312 1.924 . S
O301 Zn300 1.949 . S
O301 Zn302 1.923 . S
O301 Zn303 1.950 . S
O301 Zn304 1.945 . S
Zn302 O301 1.923 . S
Zn302 O305 1.933 . S
Zn302 O308 1.941 . S
Zn302 O309 1.965 . S
Zn303 O301 1.950 . S
Zn303 O310 1.938 . S
Zn303 O311 1.906 . S
Zn303 O321 1.953 . S
Zn304 O301 1.945 . S
Zn304 O306 1.932 . S
Zn304 O313 1.977 . S
Zn304 O314 1.910 . S
O305 Zn302 1.933 . S
O305 C316 1.226 . S
O306 Zn304 1.932 . S
O306 C316 1.307 . S
O307 Zn300 1.919 . S
O307 C318 1.253 . S
O308 Zn302 1.941 . S
O308 C318 1.283 . S
O309 Zn302 1.965 . S
O309 C317 1.303 . S
O310 Zn303 1.938 . S
O310 C317 1.247 . S
O311 Zn303 1.906 . S
O311 C319 1.304 . S
O312 Zn300 1.924 . S
O312 C320 1.311 . S
O313 Zn304 1.977 . S
O313 C319 1.272 . S
O314 Zn304 1.910 . S
O314 C320 1.231 . S
C315 O299 1.225 . S
C315 O321 1.298 . S
C316 O305 1.226 . S
C316 O306 1.307 . S
C317 O309 1.303 . S
C317 O310 1.247 . S
C318 O307 1.253 . S
C318 O308 1.283 . S
C319 O311 1.304 . S
C319 O313 1.272 . S
C320 O312 1.311 . S
C320 O314 1.231 . S
O321 Zn303 1.953 . S
O321 C315 1.298 . S
O322 Zn323 1.953 . S
O322 C338 1.225 . S
Zn323 O322 1.953 . S
Zn323 O324 1.949 . S
Zn323 O330 1.919 . S
Zn323 O335 1.924 . S
O324 Zn323 1.949 . S
O324 Zn325 1.923 . S
O324 Zn326 1.950 . S
O324 Zn327 1.945 . S
Zn325 O324 1.923 . S
Zn325 O328 1.933 . S
Zn325 O331 1.941 . S
Zn325 O332 1.965 . S
Zn326 O324 1.950 . S
Zn326 O333 1.938 . S
Zn326 O334 1.906 . S
Zn326 O344 1.953 . S
Zn327 O324 1.945 . S
Zn327 O329 1.932 . S
Zn327 O336 1.977 . S
Zn327 O337 1.910 . S
O328 Zn325 1.933 . S
O328 C339 1.226 . S
O329 Zn327 1.932 . S
O329 C339 1.307 . S
O330 Zn323 1.919 . S
O330 C341 1.253 . S
O331 Zn325 1.941 . S
O331 C341 1.283 . S
O332 Zn325 1.965 . S
O332 C340 1.303 . S
O333 Zn326 1.938 . S
O333 C340 1.247 . S
O334 Zn326 1.906 . S
O334 C342 1.304 . S
O335 Zn323 1.924 . S
O335 C343 1.311 . S
O336 Zn327 1.977 . S
O336 C342 1.272 . S
O337 Zn327 1.910 . S
O337 C343 1.231 . S
C338 O322 1.225 . S
C338 O344 1.298 . S
C339 O328 1.226 . S
C339 O329 1.307 . S
C340 O332 1.303 . S
C340 O333 1.247 . S
C341 O330 1.253 . S
C341 O331 1.283 . S
C342 O334 1.304 . S
C342 O336 1.272 . S
C343 O335 1.311 . S
C343 O337 1.231 . S
O344 Zn326 1.953 . S
O344 C338 1.298 . S
O345 Zn346 1.953 . S
O345 C361 1.225 . S
Zn346 O345 1.953 . S
Zn346 O347 1.949 . S
Zn346 O353 1.919 1_556 S
Zn346 O358 1.924 1_556 S
O347 Zn346 1.949 . S
O347 Zn348 1.923 . S
O347 Zn349 1.950 . S
O347 Zn350 1.945 . S
Zn348 O347 1.923 . S
Zn348 O351 1.933 . S
Zn348 O354 1.941 1_556 S
Zn348 O355 1.965 . S
Zn349 O347 1.950 . S
Zn349 O356 1.938 . S
Zn349 O357 1.906 . S
Zn349 O367 1.953 . S
Zn350 O347 1.945 . S
Zn350 O352 1.932 . S
Zn350 O359 1.977 . S
Zn350 O360 1.910 . S
O351 Zn348 1.933 . S
O351 C362 1.226 1_556 S
O352 Zn350 1.932 . S
O352 C362 1.307 1_556 S
O353 Zn346 1.919 1_554 S
O353 C364 1.253 . S
O354 Zn348 1.941 1_554 S
O354 C364 1.283 . S
O355 Zn348 1.965 . S
O355 C363 1.303 . S
O356 Zn349 1.938 . S
O356 C363 1.247 . S
O357 Zn349 1.906 . S
O357 C365 1.304 . S
O358 Zn346 1.924 1_554 S
O358 C366 1.311 . S
O359 Zn350 1.977 . S
O359 C365 1.272 . S
O360 Zn350 1.910 . S
O360 C366 1.231 1_556 S
C361 O345 1.225 . S
C361 O367 1.298 . S
C362 O351 1.226 1_554 S
C362 O352 1.307 1_554 S
C363 O355 1.303 . S
C363 O356 1.247 . S
C364 O353 1.253 . S
C364 O354 1.283 . S
C365 O357 1.304 . S
C365 O359 1.272 . S
C366 O358 1.311 . S
C366 O360 1.231 1_554 S
O367 Zn349 1.953 . S
O367 C361 1.298 . S
O368 Zn369 1.953 . S
O368 C384 1.225 . S
Zn369 O368 1.953 . S
Zn369 O370 1.949 . S
Zn369 O376 1.919 1_556 S
Zn369 O381 1.924 1_556 S
O370 Zn369 1.949 . S
O370 Zn371 1.923 . S
O370 Zn372 1.950 . S
O370 Zn373 1.945 . S
Zn371 O370 1.923 . S
Zn371 O374 1.933 . S
Zn371 O377 1.941 1_556 S
Zn371 O378 1.965 . S
Zn372 O370 1.950 . S
Zn372 O379 1.938 . S
Zn372 O380 1.906 . S
Zn372 O390 1.953 . S
Zn373 O370 1.945 . S
Zn373 O375 1.932 . S
Zn373 O382 1.977 . S
Zn373 O383 1.910 . S
O374 Zn371 1.933 . S
O374 C385 1.226 1_556 S
O375 Zn373 1.932 . S
O375 C385 1.307 1_556 S
O376 Zn369 1.919 1_554 S
O376 C387 1.253 . S
O377 Zn371 1.941 1_554 S
O377 C387 1.283 . S
O378 Zn371 1.965 . S
O378 C386 1.303 . S
O379 Zn372 1.938 . S
O379 C386 1.247 . S
O380 Zn372 1.906 . S
O380 C388 1.304 . S
O381 Zn369 1.924 1_554 S
O381 C389 1.311 . S
O382 Zn373 1.977 . S
O382 C388 1.272 . S
O383 Zn373 1.910 . S
O383 C389 1.231 1_556 S
C384 O368 1.225 . S
C384 O390 1.298 . S
C385 O374 1.226 1_554 S
C385 O375 1.307 1_554 S
C386 O378 1.303 . S
C386 O379 1.247 . S
C387 O376 1.253 . S
C387 O377 1.283 . S
C388 O380 1.304 . S
C388 O382 1.272 . S
C389 O381 1.311 . S
C389 O383 1.231 1_554 S
O390 Zn372 1.953 . S
O390 C384 1.298 . S
O391 Zn392 1.953 . S
O391 C407 1.225 . S
Zn392 O391 1.953 . S
Zn392 O393 1.949 . S
Zn392 O399 1.919 1_556 S
Zn392 O404 1.924 1_556 S
O393 Zn392 1.949 . S
O393 Zn394 1.923 . S
O393 Zn395 1.950 . S
O393 Zn396 1.945 . S
Zn394 O393 1.923 . S
Zn394 O397 1.933 . S
Zn394 O400 1.941 1_556 S
Zn394 O401 1.965 . S
Zn395 O393 1.950 . S
Zn395 O402 1.938 . S
Zn395 O403 1.906 . S
Zn395 O413 1.953 . S
Zn396 O393 1.945 . S
Zn396 O398 1.932 . S
Zn396 O405 1.977 . S
Zn396 O406 1.910 . S
O397 Zn394 1.933 . S
O397 C408 1.226 1_556 S
O398 Zn396 1.932 . S
O398 C408 1.307 1_556 S
O399 Zn392 1.919 1_554 S
O399 C410 1.253 . S
O400 Zn394 1.941 1_554 S
O400 C410 1.283 . S
O401 Zn394 1.965 . S
O401 C409 1.303 . S
O402 Zn395 1.938 . S
O402 C409 1.247 . S
O403 Zn395 1.906 . S
O403 C411 1.304 . S
O404 Zn392 1.924 1_554 S
O404 C412 1.311 . S
O405 Zn396 1.977 . S
O405 C411 1.272 . S
O406 Zn396 1.910 . S
O406 C412 1.231 1_556 S
C407 O391 1.225 . S
C407 O413 1.298 . S
C408 O397 1.226 1_554 S
C408 O398 1.307 1_554 S
C409 O401 1.303 . S
C409 O402 1.247 . S
C410 O399 1.253 . S
C410 O400 1.283 . S
C411 O403 1.304 . S
C411 O405 1.272 . S
C412 O404 1.311 . S
C412 O406 1.231 1_554 S
O413 Zn395 1.953 . S
O413 C407 1.298 . S
H414 C420 0.930 . S
H415 C423 0.930 . S
H416 C424 0.930 . S
H417 C425 0.930 . S
H418 C428 0.930 . S
H419 C429 0.930 . S
C420 H414 0.930 . S
C420 C421 1.355 . S
C420 C422 1.415 . S
C421 C420 1.355 . S
C421 C423 1.419 . S
C422 C420 1.415 . S
C422 C427 1.425 . S
C422 C429 1.409 . S
C423 H415 0.930 . S
C423 C421 1.419 . S
C423 C424 1.362 . S
C424 H416 0.930 . S
C424 C423 1.362 . S
C424 C427 1.409 . S
C425 H417 0.930 . S
C425 C426 1.355 . S
C425 C427 1.415 . S
C426 C425 1.355 . S
C426 C428 1.419 . S
C427 C422 1.425 . S
C427 C424 1.409 . S
C427 C425 1.415 . S
C428 H418 0.930 . S
C428 C426 1.419 . S
C428 C429 1.362 . S
C429 H419 0.930 . S
C429 C422 1.409 . S
C429 C428 1.362 . S
H430 C436 0.930 . S
H431 C439 0.930 . S
H432 C440 0.930 . S
H433 C441 0.930 . S
H434 C444 0.930 . S
H435 C445 0.930 . S
C436 H430 0.930 . S
C436 C437 1.355 . S
C436 C438 1.415 . S
C437 C436 1.355 . S
C437 C439 1.419 . S
C438 C436 1.415 . S
C438 C443 1.425 . S
C438 C445 1.409 . S
C439 H431 0.930 . S
C439 C437 1.419 . S
C439 C440 1.362 . S
C440 H432 0.930 . S
C440 C439 1.362 . S
C440 C443 1.409 . S
C441 H433 0.930 . S
C441 C442 1.355 . S
C441 C443 1.415 . S
C442 C441 1.355 . S
C442 C444 1.419 . S
C443 C438 1.425 . S
C443 C440 1.409 . S
C443 C441 1.415 . S
C444 H434 0.930 . S
C444 C442 1.419 . S
C444 C445 1.362 . S
C445 H435 0.930 . S
C445 C438 1.409 . S
C445 C444 1.362 . S
H446 C452 0.930 . S
H447 C455 0.930 . S
H448 C456 0.930 . S
H449 C457 0.930 . S
H450 C460 0.930 . S
H451 C461 0.930 . S
C452 H446 0.930 . S
C452 C453 1.355 . S
C452 C454 1.415 . S
C453 C452 1.355 . S
C453 C455 1.419 . S
C454 C452 1.415 . S
C454 C459 1.425 . S
C454 C461 1.409 . S
C455 H447 0.930 . S
C455 C453 1.419 . S
C455 C456 1.362 . S
C456 H448 0.930 . S
C456 C455 1.362 . S
C456 C459 1.409 . S
C457 H449 0.930 . S
C457 C458 1.355 . S
C457 C459 1.415 . S
C458 C457 1.355 . S
C458 C460 1.419 . S
C459 C454 1.425 . S
C459 C456 1.409 . S
C459 C457 1.415 . S
C460 H450 0.930 . S
C460 C458 1.419 . S
C460 C461 1.362 . S
C461 H451 0.930 . S
C461 C454 1.409 . S
C461 C460 1.362 . S
H462 C468 0.930 . S
H463 C471 0.930 . S
H464 C472 0.930 . S
H465 C473 0.930 . S
H466 C476 0.930 . S
H467 C477 0.930 . S
C468 H462 0.930 . S
C468 C469 1.355 . S
C468 C470 1.415 . S
C469 C468 1.355 . S
C469 C471 1.419 . S
C470 C468 1.415 . S
C470 C475 1.425 . S
C470 C477 1.409 1_556 S
C471 H463 0.930 . S
C471 C469 1.419 . S
C471 C472 1.362 . S
C472 H464 0.930 . S
C472 C471 1.362 . S
C472 C475 1.409 . S
C473 H465 0.930 . S
C473 C474 1.355 . S
C473 C475 1.415 1_554 S
C474 C473 1.355 . S
C474 C476 1.419 . S
C475 C470 1.425 . S
C475 C472 1.409 . S
C475 C473 1.415 1_556 S
C476 H466 0.930 . S
C476 C474 1.419 . S
C476 C477 1.362 . S
C477 H467 0.930 . S
C477 C470 1.409 1_554 S
C477 C476 1.362 . S
H478 C484 0.930 . S
H479 C487 0.930 . S
H480 C488 0.926 1_556 S
H481 C489 0.930 . S
H482 C492 0.930 . S
H483 C493 0.930 . S
C484 H478 0.930 . S
C484 C485 1.355 . S
C484 C486 1.415 1_554 S
C485 C484 1.355 . S
C485 C487 1.419 . S
C486 C484 1.415 1_556 S
C486 C491 1.425 . S
C486 C493 1.409 . S
C487 H479 0.930 . S
C487 C485 1.419 . S
C487 C488 1.371 . S
C488 H480 0.926 1_554 S
C488 C487 1.371 . S
C488 C491 1.404 1_554 S
C489 H481 0.930 . S
C489 C490 1.355 . S
C489 C491 1.415 . S
C490 C489 1.355 . S
C490 C492 1.419 . S
C491 C486 1.425 . S
C491 C488 1.404 1_556 S
C491 C489 1.415 . S
C492 H482 0.930 . S
C492 C490 1.419 . S
C492 C493 1.362 . S
C493 H483 0.930 . S
C493 C486 1.409 . S
C493 C492 1.362 . S
H494 C500 0.930 . S
H495 C503 0.930 . S
H496 C504 0.930 . S
H497 C505 0.930 1_556 S
H498 C508 0.930 . S
H499 C509 0.930 . S
C500 H494 0.930 . S
C500 C501 1.355 . S
C500 C502 1.415 1_556 S
C501 C500 1.355 . S
C501 C503 1.419 . S
C502 C500 1.415 1_554 S
C502 C507 1.425 1_554 S
C502 C509 1.409 . S
C503 H495 0.930 . S
C503 C501 1.419 . S
C503 C504 1.362 . S
C504 H496 0.930 . S
C504 C503 1.362 . S
C504 C507 1.409 . S
C505 H497 0.930 1_554 S
C505 C506 1.355 . S
C505 C507 1.415 1_554 S
C506 C505 1.355 . S
C506 C508 1.419 . S
C507 C502 1.425 1_556 S
C507 C504 1.409 . S
C507 C505 1.415 1_556 S
C508 H498 0.930 . S
C508 C506 1.419 . S
C508 C509 1.362 . S
C509 H499 0.930 . S
C509 C502 1.409 . S
C509 C508 1.362 . S
H510 C516 0.930 . S
H511 C519 0.930 . S
H512 C520 0.930 . S
H513 C521 0.930 . S
H514 C524 0.930 . S
H515 C525 0.930 . S
C516 H510 0.930 . S
C516 C517 1.355 . S
C516 C518 1.415 . S
C517 C516 1.355 . S
C517 C519 1.419 . S
C518 C516 1.415 . S
C518 C523 1.425 . S
C518 C525 1.409 . S
C519 H511 0.930 . S
C519 C517 1.419 . S
C519 C520 1.362 . S
C520 H512 0.930 . S
C520 C519 1.362 . S
C520 C523 1.409 . S
C521 H513 0.930 . S
C521 C522 1.355 . S
C521 C523 1.415 . S
C522 C521 1.355 . S
C522 C524 1.419 . S
C523 C518 1.425 . S
C523 C520 1.409 . S
C523 C521 1.415 . S
C524 H514 0.930 . S
C524 C522 1.419 . S
C524 C525 1.362 . S
C525 H515 0.930 . S
C525 C518 1.409 . S
C525 C524 1.362 . S
H526 C532 0.930 . S
H527 C535 0.930 . S
H528 C536 0.930 . S
H529 C537 0.930 . S
H530 C540 0.930 . S
H531 C541 0.930 . S
C532 H526 0.930 . S
C532 C533 1.355 . S
C532 C534 1.415 . S
C533 C532 1.355 . S
C533 C535 1.419 . S
C534 C532 1.415 . S
C534 C539 1.425 . S
C534 C541 1.409 . S
C535 H527 0.930 . S
C535 C533 1.419 . S
C535 C536 1.362 . S
C536 H528 0.930 . S
C536 C535 1.362 . S
C536 C539 1.409 . S
C537 H529 0.930 . S
C537 C538 1.355 . S
C537 C539 1.415 . S
C538 C537 1.355 . S
C538 C540 1.419 . S
C539 C534 1.425 . S
C539 C536 1.409 . S
C539 C537 1.415 . S
C540 H530 0.930 . S
C540 C538 1.419 . S
C540 C541 1.362 . S
C541 H531 0.930 . S
C541 C534 1.409 . S
C541 C540 1.362 . S
H542 C548 0.930 . S
H543 C551 0.930 . S
H544 C552 0.930 . S
H545 C553 0.930 . S
H546 C556 0.930 . S
H547 C557 0.930 . S
C548 H542 0.930 . S
C548 C549 1.355 . S
C548 C550 1.415 . S
C549 C548 1.355 . S
C549 C551 1.419 . S
C550 C548 1.415 . S
C550 C555 1.425 . S
C550 C557 1.409 . S
C551 H543 0.930 . S
C551 C549 1.419 . S
C551 C552 1.362 . S
C552 H544 0.930 . S
C552 C551 1.362 . S
C552 C555 1.409 . S
C553 H545 0.930 . S
C553 C554 1.355 . S
C553 C555 1.415 . S
C554 C553 1.355 . S
C554 C556 1.419 . S
C555 C550 1.425 . S
C555 C552 1.409 . S
C555 C553 1.415 . S
C556 H546 0.930 . S
C556 C554 1.419 . S
C556 C557 1.362 . S
C557 H547 0.930 . S
C557 C550 1.409 . S
C557 C556 1.362 . S
H558 C564 0.930 . S
H559 C567 0.930 . S
H560 C568 0.930 . S
H561 C569 0.930 1_554 S
H562 C572 0.930 . S
H563 C573 0.930 . S
C564 H558 0.930 . S
C564 C565 1.355 . S
C564 C566 1.415 . S
C565 C564 1.355 . S
C565 C567 1.419 . S
C566 C564 1.415 . S
C566 C571 1.425 . S
C566 C573 1.409 1_554 S
C567 H559 0.930 . S
C567 C565 1.419 . S
C567 C568 1.362 . S
C568 H560 0.930 . S
C568 C567 1.362 . S
C568 C571 1.409 . S
C569 H561 0.930 1_556 S
C569 C570 1.355 . S
C569 C571 1.415 1_556 S
C570 C569 1.355 . S
C570 C572 1.419 . S
C571 C566 1.425 . S
C571 C568 1.409 . S
C571 C569 1.415 1_554 S
C572 H562 0.930 . S
C572 C570 1.419 . S
C572 C573 1.362 . S
C573 H563 0.930 . S
C573 C566 1.409 1_556 S
C573 C572 1.362 . S
H574 C580 0.930 . S
H575 C583 0.930 . S
H576 C584 0.930 . S
H577 C585 0.930 . S
H578 C588 0.930 . S
H579 C589 0.930 1_556 S
C580 H574 0.930 . S
C580 C581 1.355 . S
C580 C582 1.415 1_556 S
C581 C580 1.355 . S
C581 C583 1.419 . S
C582 C580 1.415 1_554 S
C582 C587 1.425 . S
C582 C589 1.409 . S
C583 H575 0.930 . S
C583 C581 1.419 . S
C583 C584 1.362 1_556 S
C584 H576 0.930 . S
C584 C583 1.362 1_554 S
C584 C587 1.409 . S
C585 H577 0.930 . S
C585 C586 1.355 . S
C585 C587 1.415 . S
C586 C585 1.355 . S
C586 C588 1.419 . S
C587 C582 1.425 . S
C587 C584 1.409 . S
C587 C585 1.415 . S
C588 H578 0.930 . S
C588 C586 1.419 . S
C588 C589 1.362 . S
C589 H579 0.930 1_554 S
C589 C582 1.409 . S
C589 C588 1.362 . S
H590 C596 0.930 . S
H591 C599 0.930 . S
H592 C600 0.930 . S
H593 C601 0.930 . S
H594 C604 0.930 . S
H595 C605 0.930 . S
C596 H590 0.930 . S
C596 C597 1.355 . S
C596 C598 1.415 . S
C597 C596 1.355 . S
C597 C599 1.419 1_556 S
C598 C596 1.415 . S
C598 C603 1.425 1_556 S
C598 C605 1.409 . S
C599 H591 0.930 . S
C599 C597 1.419 1_554 S
C599 C600 1.362 . S
C600 H592 0.930 . S
C600 C599 1.362 . S
C600 C603 1.409 . S
C601 H593 0.930 . S
C601 C602 1.355 . S
C601 C603 1.415 . S
C602 C601 1.355 . S
C602 C604 1.419 . S
C603 C598 1.425 1_554 S
C603 C600 1.409 . S
C603 C601 1.415 . S
C604 H594 0.930 . S
C604 C602 1.419 . S
C604 C605 1.362 1_554 S
C605 H595 0.930 . S
C605 C598 1.409 . S
C605 C604 1.362 1_556 S
H606 C612 0.930 . S
H607 C615 0.930 . S
H608 C616 0.930 . S
H609 C617 0.930 . S
H610 C620 0.930 . S
H611 C621 0.930 . S
C612 H606 0.930 . S
C612 C613 1.355 . S
C612 C614 1.415 . S
C613 C612 1.355 . S
C613 C615 1.419 . S
C614 C612 1.415 . S
C614 C619 1.425 . S
C614 C621 1.409 . S
C615 H607 0.930 . S
C615 C613 1.419 . S
C615 C616 1.362 . S
C616 H608 0.930 . S
C616 C615 1.362 . S
C616 C619 1.409 . S
C617 H609 0.930 . S
C617 C618 1.355 . S
C617 C619 1.415 . S
C618 C617 1.355 . S
C618 C620 1.419 . S
C619 C614 1.425 . S
C619 C616 1.409 . S
C619 C617 1.415 . S
C620 H610 0.930 . S
C620 C618 1.419 . S
C620 C621 1.362 . S
C621 H611 0.930 . S
C621 C614 1.409 . S
C621 C620 1.362 . S
H622 C628 0.930 . S
H623 C631 0.930 . S
H624 C632 0.930 . S
H625 C633 0.930 . S
H626 C636 0.930 . S
H627 C637 0.930 . S
C628 H622 0.930 . S
C628 C629 1.355 . S
C628 C630 1.415 . S
C629 C628 1.355 . S
C629 C631 1.419 . S
C630 C628 1.415 . S
C630 C635 1.425 . S
C630 C637 1.409 . S
C631 H623 0.930 . S
C631 C629 1.419 . S
C631 C632 1.362 . S
C632 H624 0.930 . S
C632 C631 1.362 . S
C632 C635 1.409 . S
C633 H625 0.930 . S
C633 C634 1.355 . S
C633 C635 1.415 . S
C634 C633 1.355 . S
C634 C636 1.419 . S
C635 C630 1.425 . S
C635 C632 1.409 . S
C635 C633 1.415 . S
C636 H626 0.930 . S
C636 C634 1.419 . S
C636 C637 1.362 . S
C637 H627 0.930 . S
C637 C630 1.409 . S
C637 C636 1.362 . S
H638 C644 0.930 . S
H639 C647 0.930 . S
H640 C648 0.930 . S
H641 C649 0.930 . S
H642 C652 0.930 . S
H643 C653 0.930 . S
C644 H638 0.930 . S
C644 C645 1.355 . S
C644 C646 1.415 . S
C645 C644 1.355 . S
C645 C647 1.419 . S
C646 C644 1.415 . S
C646 C651 1.425 . S
C646 C653 1.409 . S
C647 H639 0.930 . S
C647 C645 1.419 . S
C647 C648 1.362 . S
C648 H640 0.930 . S
C648 C647 1.362 . S
C648 C651 1.409 . S
C649 H641 0.930 . S
C649 C650 1.355 . S
C649 C651 1.415 . S
C650 C649 1.355 . S
C650 C652 1.419 . S
C651 C646 1.425 . S
C651 C648 1.409 . S
C651 C649 1.415 . S
C652 H642 0.930 . S
C652 C650 1.419 . S
C652 C653 1.362 . S
C653 H643 0.930 . S
C653 C646 1.409 . S
C653 C652 1.362 . S
H654 C660 0.930 . S
H655 C663 0.930 . S
H656 C664 0.930 . S
H657 C665 0.930 . S
H658 C668 0.930 . S
H659 C669 0.930 . S
C660 H654 0.930 . S
C660 C661 1.355 . S
C660 C662 1.415 . S
C661 C660 1.355 . S
C661 C663 1.419 . S
C662 C660 1.415 . S
C662 C667 1.425 . S
C662 C669 1.409 . S
C663 H655 0.930 . S
C663 C661 1.419 . S
C663 C664 1.362 . S
C664 H656 0.930 . S
C664 C663 1.362 . S
C664 C667 1.409 . S
C665 H657 0.930 . S
C665 C666 1.355 . S
C665 C667 1.415 . S
C666 C665 1.355 . S
C666 C668 1.419 . S
C667 C662 1.425 . S
C667 C664 1.409 . S
C667 C665 1.415 . S
C668 H658 0.930 . S
C668 C666 1.419 . S
C668 C669 1.362 . S
C669 H659 0.930 . S
C669 C662 1.409 . S
C669 C668 1.362 . S
H670 C676 0.930 . S
H671 C679 0.930 . S
H672 C680 0.930 . S
H673 C681 0.930 . S
H674 C684 0.930 . S
H675 C685 0.930 . S
C676 H670 0.930 . S
C676 C677 1.355 . S
C676 C678 1.415 . S
C677 C676 1.355 . S
C677 C679 1.419 . S
C678 C676 1.415 . S
C678 C683 1.425 . S
C678 C685 1.409 . S
C679 H671 0.930 . S
C679 C677 1.419 . S
C679 C680 1.362 . S
C680 H672 0.930 . S
C680 C679 1.362 . S
C680 C683 1.409 . S
C681 H673 0.930 . S
C681 C682 1.355 . S
C681 C683 1.415 . S
C682 C681 1.355 . S
C682 C684 1.419 . S
C683 C678 1.425 . S
C683 C680 1.409 . S
C683 C681 1.415 . S
C684 H674 0.930 . S
C684 C682 1.419 . S
C684 C685 1.362 . S
C685 H675 0.930 . S
C685 C678 1.409 . S
C685 C684 1.362 . S
H686 C692 0.930 . S
H687 C695 0.930 . S
H688 C696 0.930 . S
H689 C697 0.930 . S
H690 C700 0.930 . S
H691 C701 0.930 . S
C692 H686 0.930 . S
C692 C693 1.355 . S
C692 C694 1.415 . S
C693 C692 1.355 . S
C693 C695 1.419 . S
C694 C692 1.415 . S
C694 C699 1.425 . S
C694 C701 1.409 . S
C695 H687 0.930 . S
C695 C693 1.419 . S
C695 C696 1.362 . S
C696 H688 0.930 . S
C696 C695 1.362 . S
C696 C699 1.409 . S
C697 H689 0.930 . S
C697 C698 1.355 . S
C697 C699 1.415 . S
C698 C697 1.355 . S
C698 C700 1.419 . S
C699 C694 1.425 . S
C699 C696 1.409 . S
C699 C697 1.415 . S
C700 H690 0.930 . S
C700 C698 1.419 . S
C700 C701 1.362 . S
C701 H691 0.930 . S
C701 C694 1.409 . S
C701 C700 1.362 . S
H702 C708 0.930 . S
H703 C711 0.930 . S
H704 C712 0.930 . S
H705 C713 0.930 . S
H706 C716 0.930 . S
H707 C717 0.930 . S
C708 H702 0.930 . S
C708 C709 1.355 . S
C708 C710 1.415 . S
C709 C708 1.355 . S
C709 C711 1.419 . S
C710 C708 1.415 . S
C710 C715 1.425 . S
C710 C717 1.409 . S
C711 H703 0.930 . S
C711 C709 1.419 . S
C711 C712 1.362 . S
C712 H704 0.930 . S
C712 C711 1.362 . S
C712 C715 1.409 . S
C713 H705 0.930 . S
C713 C714 1.355 . S
C713 C715 1.415 . S
C714 C713 1.355 . S
C714 C716 1.419 . S
C715 C710 1.425 . S
C715 C712 1.409 . S
C715 C713 1.415 . S
C716 H706 0.930 . S
C716 C714 1.419 . S
C716 C717 1.362 . S
C717 H707 0.930 . S
C717 C710 1.409 . S
C717 C716 1.362 . S
H718 C724 0.930 . S
H719 C727 0.930 . S
H720 C728 0.930 . S
H721 C729 0.930 . S
H722 C732 0.930 . S
H723 C733 0.930 . S
C724 H718 0.930 . S
C724 C725 1.355 . S
C724 C726 1.415 . S
C725 C724 1.355 . S
C725 C727 1.419 . S
C726 C724 1.415 . S
C726 C731 1.425 . S
C726 C733 1.409 . S
C727 H719 0.930 . S
C727 C725 1.419 . S
C727 C728 1.362 . S
C728 H720 0.930 . S
C728 C727 1.362 . S
C728 C731 1.409 . S
C729 H721 0.930 . S
C729 C730 1.355 . S
C729 C731 1.415 . S
C730 C729 1.355 . S
C730 C732 1.419 . S
C731 C726 1.425 . S
C731 C728 1.409 . S
C731 C729 1.415 . S
C732 H722 0.930 . S
C732 C730 1.419 . S
C732 C733 1.362 . S
C733 H723 0.930 . S
C733 C726 1.409 . S
C733 C732 1.362 . S
H734 C740 0.930 . S
H735 C743 0.930 . S
H736 C744 0.930 . S
H737 C745 0.930 . S
H738 C748 0.930 . S
H739 C749 0.930 . S
C740 H734 0.930 . S
C740 C741 1.355 . S
C740 C742 1.415 . S
C741 C740 1.355 . S
C741 C743 1.419 . S
C742 C740 1.415 . S
C742 C747 1.425 . S
C742 C749 1.409 . S
C743 H735 0.930 . S
C743 C741 1.419 . S
C743 C744 1.362 . S
C744 H736 0.930 . S
C744 C743 1.362 . S
C744 C747 1.409 . S
C745 H737 0.930 . S
C745 C746 1.355 . S
C745 C747 1.415 . S
C746 C745 1.355 . S
C746 C748 1.419 . S
C747 C742 1.425 . S
C747 C744 1.409 . S
C747 C745 1.415 . S
C748 H738 0.930 . S
C748 C746 1.419 . S
C748 C749 1.362 . S
C749 H739 0.930 . S
C749 C742 1.409 . S
C749 C748 1.362 . S
H750 C756 0.930 . S
H751 C759 0.930 . S
H752 C760 0.930 . S
H753 C761 0.930 . S
H754 C764 0.930 . S
H755 C765 0.930 . S
C756 H750 0.930 . S
C756 C757 1.355 . S
C756 C758 1.415 . S
C757 C756 1.355 . S
C757 C759 1.419 . S
C758 C756 1.415 . S
C758 C763 1.425 . S
C758 C765 1.409 . S
C759 H751 0.930 . S
C759 C757 1.419 . S
C759 C760 1.362 . S
C760 H752 0.930 . S
C760 C759 1.362 . S
C760 C763 1.409 . S
C761 H753 0.930 . S
C761 C762 1.355 . S
C761 C763 1.415 . S
C762 C761 1.355 . S
C762 C764 1.419 . S
C763 C758 1.425 . S
C763 C760 1.409 . S
C763 C761 1.415 . S
C764 H754 0.930 . S
C764 C762 1.419 . S
C764 C765 1.362 . S
C765 H755 0.930 . S
C765 C758 1.409 . S
C765 C764 1.362 . S
H766 C772 0.930 . S
H767 C775 0.930 . S
H768 C776 0.930 . S
H769 C777 0.930 . S
H770 C780 0.930 . S
H771 C781 0.930 . S
C772 H766 0.930 . S
C772 C773 1.355 . S
C772 C774 1.415 . S
C773 C772 1.355 . S
C773 C775 1.419 . S
C774 C772 1.415 . S
C774 C779 1.425 . S
C774 C781 1.409 . S
C775 H767 0.930 . S
C775 C773 1.419 . S
C775 C776 1.362 . S
C776 H768 0.930 . S
C776 C775 1.362 . S
C776 C779 1.409 . S
C777 H769 0.930 . S
C777 C778 1.355 . S
C777 C779 1.415 . S
C778 C777 1.355 . S
C778 C780 1.419 . S
C779 C774 1.425 . S
C779 C776 1.409 . S
C779 C777 1.415 . S
C780 H770 0.930 . S
C780 C778 1.419 . S
C780 C781 1.362 . S
C781 H771 0.930 . S
C781 C774 1.409 . S
C781 C780 1.362 . S
H782 C788 0.930 . S
H783 C791 0.930 . S
H784 C792 0.930 . S
H785 C793 0.930 . S
H786 C796 0.930 . S
H787 C797 0.930 . S
C788 H782 0.930 . S
C788 C789 1.355 . S
C788 C790 1.415 . S
C789 C788 1.355 . S
C789 C791 1.419 . S
C790 C788 1.415 . S
C790 C795 1.425 . S
C790 C797 1.409 . S
C791 H783 0.930 . S
C791 C789 1.419 . S
C791 C792 1.362 . S
C792 H784 0.930 . S
C792 C791 1.362 . S
C792 C795 1.409 . S
C793 H785 0.930 . S
C793 C794 1.355 . S
C793 C795 1.415 . S
C794 C793 1.355 . S
C794 C796 1.419 . S
C795 C790 1.425 . S
C795 C792 1.409 . S
C795 C793 1.415 . S
C796 H786 0.930 . S
C796 C794 1.419 . S
C796 C797 1.362 . S
C797 H787 0.930 . S
C797 C790 1.409 . S
C797 C796 1.362 . S
H798 C804 0.930 . S
H799 C807 0.930 . S
H800 C808 0.930 . S
H801 C809 0.930 . S
H802 C812 0.930 . S
H803 C813 0.930 . S
C804 H798 0.930 . S
C804 C805 1.355 . S
C804 C806 1.415 . S
C805 C804 1.355 . S
C805 C807 1.419 . S
C806 C804 1.415 . S
C806 C811 1.425 . S
C806 C813 1.409 . S
C807 H799 0.930 . S
C807 C805 1.419 . S
C807 C808 1.362 . S
C808 H800 0.930 . S
C808 C807 1.362 . S
C808 C811 1.409 . S
C809 H801 0.930 . S
C809 C810 1.355 . S
C809 C811 1.415 . S
C810 C809 1.355 . S
C810 C812 1.419 . S
C811 C806 1.425 . S
C811 C808 1.409 . S
C811 C809 1.415 . S
C812 H802 0.930 . S
C812 C810 1.419 . S
C812 C813 1.362 . S
C813 H803 0.930 . S
C813 C806 1.409 . S
C813 C812 1.362 . S
H814 C820 0.930 . S
H815 C823 0.930 . S
H816 C824 0.930 . S
H817 C825 0.930 . S
H818 C828 0.930 . S
H819 C829 0.930 . S
C820 H814 0.930 . S
C820 C821 1.355 . S
C820 C822 1.415 . S
C821 C820 1.355 . S
C821 C823 1.419 . S
C822 C820 1.415 . S
C822 C827 1.425 . S
C822 C829 1.409 . S
C823 H815 0.930 . S
C823 C821 1.419 . S
C823 C824 1.362 . S
C824 H816 0.930 . S
C824 C823 1.362 . S
C824 C827 1.409 . S
C825 H817 0.930 . S
C825 C826 1.355 . S
C825 C827 1.415 . S
C826 C825 1.355 . S
C826 C828 1.419 . S
C827 C822 1.425 . S
C827 C824 1.409 . S
C827 C825 1.415 . S
C828 H818 0.930 . S
C828 C826 1.419 . S
C828 C829 1.362 . S
C829 H819 0.930 . S
C829 C822 1.409 . S
C829 C828 1.362 . S
H830 C836 0.930 . S
H831 C839 0.930 . S
H832 C840 0.930 . S
H833 C841 0.930 . S
H834 C844 0.930 . S
H835 C845 0.930 . S
C836 H830 0.930 . S
C836 C837 1.355 . S
C836 C838 1.415 . S
C837 C836 1.355 . S
C837 C839 1.419 . S
C838 C836 1.415 . S
C838 C843 1.425 . S
C838 C845 1.409 . S
C839 H831 0.930 . S
C839 C837 1.419 . S
C839 C840 1.362 . S
C840 H832 0.930 . S
C840 C839 1.362 . S
C840 C843 1.409 . S
C841 H833 0.930 . S
C841 C842 1.355 . S
C841 C843 1.415 . S
C842 C841 1.355 . S
C842 C844 1.419 . S
C843 C838 1.425 . S
C843 C840 1.409 . S
C843 C841 1.415 . S
C844 H834 0.930 . S
C844 C842 1.419 . S
C844 C845 1.362 . S
C845 H835 0.930 . S
C845 C838 1.409 . S
C845 C844 1.362 . S
H846 C852 0.930 . S
H847 C855 0.930 . S
H848 C856 0.930 . S
H849 C857 0.930 . S
H850 C860 0.930 . S
H851 C861 0.930 . S
C852 H846 0.930 . S
C852 C853 1.355 . S
C852 C854 1.415 . S
C853 C852 1.355 . S
C853 C855 1.419 . S
C854 C852 1.415 . S
C854 C859 1.425 . S
C854 C861 1.409 . S
C855 H847 0.930 . S
C855 C853 1.419 . S
C855 C856 1.362 . S
C856 H848 0.930 . S
C856 C855 1.362 . S
C856 C859 1.409 . S
C857 H849 0.930 . S
C857 C858 1.355 . S
C857 C859 1.415 . S
C858 C857 1.355 . S
C858 C860 1.419 . S
C859 C854 1.425 . S
C859 C856 1.409 . S
C859 C857 1.415 . S
C860 H850 0.930 . S
C860 C858 1.419 . S
C860 C861 1.362 . S
C861 H851 0.930 . S
C861 C854 1.409 . S
C861 C860 1.362 . S
H862 C868 0.930 . S
H863 C871 0.930 . S
H864 C872 0.930 . S
H865 C873 0.930 . S
H866 C876 0.930 . S
H867 C877 0.930 . S
C868 H862 0.930 . S
C868 C869 1.355 . S
C868 C870 1.415 . S
C869 C868 1.355 . S
C869 C871 1.419 . S
C870 C868 1.415 . S
C870 C875 1.425 . S
C870 C877 1.409 . S
C871 H863 0.930 . S
C871 C869 1.419 . S
C871 C872 1.362 . S
C872 H864 0.930 . S
C872 C871 1.362 . S
C872 C875 1.409 . S
C873 H865 0.930 . S
C873 C874 1.355 . S
C873 C875 1.415 . S
C874 C873 1.355 . S
C874 C876 1.419 . S
C875 C870 1.425 . S
C875 C872 1.409 . S
C875 C873 1.415 . S
C876 H866 0.930 . S
C876 C874 1.419 . S
C876 C877 1.362 . S
C877 H867 0.930 . S
C877 C870 1.409 . S
C877 C876 1.362 . S
H878 C884 0.930 . S
H879 C887 0.930 . S
H880 C888 0.930 . S
H881 C889 0.930 . S
H882 C892 0.930 . S
H883 C893 0.930 . S
C884 H878 0.930 . S
C884 C885 1.355 . S
C884 C886 1.415 . S
C885 C884 1.355 . S
C885 C887 1.419 . S
C886 C884 1.415 . S
C886 C891 1.425 . S
C886 C893 1.409 . S
C887 H879 0.930 . S
C887 C885 1.419 . S
C887 C888 1.362 . S
C888 H880 0.930 . S
C888 C887 1.362 . S
C888 C891 1.409 . S
C889 H881 0.930 . S
C889 C890 1.355 . S
C889 C891 1.415 . S
C890 C889 1.355 . S
C890 C892 1.419 . S
C891 C886 1.425 . S
C891 C888 1.409 . S
C891 C889 1.415 . S
C892 H882 0.930 . S
C892 C890 1.419 . S
C892 C893 1.362 . S
C893 H883 0.930 . S
C893 C886 1.409 . S
C893 C892 1.362 . S
H894 C900 0.930 . S
H895 C903 0.930 . S
H896 C904 0.930 . S
H897 C905 0.930 . S
H898 C908 0.930 . S
H899 C909 0.930 . S
C900 H894 0.930 . S
C900 C901 1.355 . S
C900 C902 1.415 . S
C901 C900 1.355 . S
C901 C903 1.419 . S
C902 C900 1.415 . S
C902 C907 1.425 . S
C902 C909 1.409 . S
C903 H895 0.930 . S
C903 C901 1.419 . S
C903 C904 1.362 . S
C904 H896 0.930 . S
C904 C903 1.362 . S
C904 C907 1.409 . S
C905 H897 0.930 . S
C905 C906 1.355 . S
C905 C907 1.415 . S
C906 C905 1.355 . S
C906 C908 1.419 . S
C907 C902 1.425 . S
C907 C904 1.409 . S
C907 C905 1.415 . S
C908 H898 0.930 . S
C908 C906 1.419 . S
C908 C909 1.362 . S
C909 H899 0.930 . S
C909 C902 1.409 . S
C909 C908 1.362 . S
H910 C916 0.930 . S
H911 C919 0.930 . S
H912 C920 0.930 . S
H913 C921 0.930 . S
H914 C924 0.930 . S
H915 C925 0.930 . S
C916 H910 0.930 . S
C916 C917 1.355 . S
C916 C918 1.415 . S
C917 C916 1.355 . S
C917 C919 1.419 . S
C918 C916 1.415 . S
C918 C923 1.425 . S
C918 C925 1.409 . S
C919 H911 0.930 . S
C919 C917 1.419 . S
C919 C920 1.362 . S
C920 H912 0.930 . S
C920 C919 1.362 . S
C920 C923 1.409 . S
C921 H913 0.930 . S
C921 C922 1.355 . S
C921 C923 1.415 . S
C922 C921 1.355 . S
C922 C924 1.419 . S
C923 C918 1.425 . S
C923 C920 1.409 . S
C923 C921 1.415 . S
C924 H914 0.930 . S
C924 C922 1.419 . S
C924 C925 1.362 . S
C925 H915 0.930 . S
C925 C918 1.409 . S
C925 C924 1.362 . S
H926 C932 0.930 . S
H927 C935 0.930 . S
H928 C936 0.930 . S
H929 C937 0.930 . S
H930 C940 0.930 . S
H931 C941 0.930 . S
C932 H926 0.930 . S
C932 C933 1.355 . S
C932 C934 1.415 . S
C933 C932 1.355 . S
C933 C935 1.419 . S
C934 C932 1.415 . S
C934 C939 1.425 . S
C934 C941 1.409 . S
C935 H927 0.930 . S
C935 C933 1.419 . S
C935 C936 1.362 . S
C936 H928 0.930 . S
C936 C935 1.362 . S
C936 C939 1.409 . S
C937 H929 0.930 . S
C937 C938 1.355 . S
C937 C939 1.415 . S
C938 C937 1.355 . S
C938 C940 1.419 . S
C939 C934 1.425 . S
C939 C936 1.409 . S
C939 C937 1.415 . S
C940 H930 0.930 . S
C940 C938 1.419 . S
C940 C941 1.362 . S
C941 H931 0.930 . S
C941 C934 1.409 . S
C941 C940 1.362 . S
H942 C948 0.930 . S
H943 C951 0.930 . S
H944 C952 0.930 . S
H945 C953 0.930 . S
H946 C956 0.930 . S
H947 C957 0.930 . S
C948 H942 0.930 . S
C948 C949 1.355 . S
C948 C950 1.415 . S
C949 C948 1.355 . S
C949 C951 1.419 . S
C950 C948 1.415 . S
C950 C955 1.425 . S
C950 C957 1.409 . S
C951 H943 0.930 . S
C951 C949 1.419 . S
C951 C952 1.362 . S
C952 H944 0.930 . S
C952 C951 1.362 . S
C952 C955 1.409 . S
C953 H945 0.930 . S
C953 C954 1.355 . S
C953 C955 1.415 . S
C954 C953 1.355 . S
C954 C956 1.419 . S
C955 C950 1.425 . S
C955 C952 1.409 . S
C955 C953 1.415 . S
C956 H946 0.930 . S
C956 C954 1.419 . S
C956 C957 1.362 . S
C957 H947 0.930 . S
C957 C950 1.409 . S
C957 C956 1.362 . S
H958 C964 0.930 . S
H959 C967 0.930 . S
H960 C968 0.930 . S
H961 C969 0.930 . S
H962 C972 0.930 . S
H963 C973 0.930 . S
C964 H958 0.930 . S
C964 C965 1.355 . S
C964 C966 1.415 . S
C965 C964 1.355 . S
C965 C967 1.419 . S
C966 C964 1.415 . S
C966 C971 1.425 . S
C966 C973 1.409 . S
C967 H959 0.930 . S
C967 C965 1.419 . S
C967 C968 1.362 . S
C968 H960 0.930 . S
C968 C967 1.362 . S
C968 C971 1.409 . S
C969 H961 0.930 . S
C969 C970 1.355 . S
C969 C971 1.415 . S
C970 C969 1.355 . S
C970 C972 1.419 . S
C971 C966 1.425 . S
C971 C968 1.409 . S
C971 C969 1.415 . S
C972 H962 0.930 . S
C972 C970 1.419 . S
C972 C973 1.362 . S
C973 H963 0.930 . S
C973 C966 1.409 . S
C973 C972 1.362 . S
H974 C980 0.930 . S
H975 C983 0.930 . S
H976 C984 0.930 . S
H977 C985 0.930 . S
H978 C988 0.930 . S
H979 C989 0.930 . S
C980 H974 0.930 . S
C980 C981 1.355 . S
C980 C982 1.415 . S
C981 C980 1.355 . S
C981 C983 1.419 . S
C982 C980 1.415 . S
C982 C987 1.425 . S
C982 C989 1.409 . S
C983 H975 0.930 . S
C983 C981 1.419 . S
C983 C984 1.362 . S
C984 H976 0.930 . S
C984 C983 1.362 . S
C984 C987 1.409 . S
C985 H977 0.930 . S
C985 C986 1.355 . S
C985 C987 1.415 . S
C986 C985 1.355 . S
C986 C988 1.419 . S
C987 C982 1.425 . S
C987 C984 1.409 . S
C987 C985 1.415 . S
C988 H978 0.930 . S
C988 C986 1.419 . S
C988 C989 1.362 . S
C989 H979 0.930 . S
C989 C982 1.409 . S
C989 C988 1.362 . S
H990 C996 0.930 . S
H991 C999 0.930 . S
H992 C1000 0.930 . S
H993 C1001 0.930 . S
H994 C1004 0.930 . S
H995 C1005 0.930 . S
C996 H990 0.930 . S
C996 C997 1.355 . S
C996 C998 1.415 . S
C997 C996 1.355 . S
C997 C999 1.419 . S
C998 C996 1.415 . S
C998 C1003 1.425 . S
C998 C1005 1.409 . S
C999 H991 0.930 . S
C999 C997 1.419 . S
C999 C1000 1.362 . S
C1000 H992 0.930 . S
C1000 C999 1.362 . S
C1000 C1003 1.409 . S
C1001 H993 0.930 . S
C1001 C1002 1.355 . S
C1001 C1003 1.415 . S
C1002 C1001 1.355 . S
C1002 C1004 1.419 . S
C1003 C998 1.425 . S
C1003 C1000 1.409 . S
C1003 C1001 1.415 . S
C1004 H994 0.930 . S
C1004 C1002 1.419 . S
C1004 C1005 1.362 . S
C1005 H995 0.930 . S
C1005 C998 1.409 . S
C1005 C1004 1.362 . S
H1006 C1012 0.930 . S
H1007 C1015 0.930 . S
H1008 C1016 0.930 . S
H1009 C1017 0.930 . S
H1010 C1020 0.930 . S
H1011 C1021 0.930 . S
C1012 H1006 0.930 . S
C1012 C1013 1.355 . S
C1012 C1014 1.415 . S
C1013 C1012 1.355 . S
C1013 C1015 1.419 . S
C1014 C1012 1.415 . S
C1014 C1019 1.425 . S
C1014 C1021 1.409 . S
C1015 H1007 0.930 . S
C1015 C1013 1.419 . S
C1015 C1016 1.362 . S
C1016 H1008 0.930 . S
C1016 C1015 1.362 . S
C1016 C1019 1.409 . S
C1017 H1009 0.930 . S
C1017 C1018 1.355 . S
C1017 C1019 1.415 . S
C1018 C1017 1.355 . S
C1018 C1020 1.419 . S
C1019 C1014 1.425 . S
C1019 C1016 1.409 . S
C1019 C1017 1.415 . S
C1020 H1010 0.930 . S
C1020 C1018 1.419 . S
C1020 C1021 1.362 . S
C1021 H1011 0.930 . S
C1021 C1014 1.409 . S
C1021 C1020 1.362 . S
H1022 C1028 0.930 . S
H1023 C1031 0.930 1_545 S
H1024 C1032 0.930 . S
H1025 C1033 0.930 . S
H1026 C1036 0.930 . S
H1027 C1037 0.930 . S
C1028 H1022 0.930 . S
C1028 C1029 1.355 . S
C1028 C1030 1.415 . S
C1029 C1028 1.355 . S
C1029 C1031 1.419 . S
C1030 C1028 1.415 . S
C1030 C1035 1.425 . S
C1030 C1037 1.409 . S
C1031 H1023 0.930 1_565 S
C1031 C1029 1.419 . S
C1031 C1032 1.362 . S
C1032 H1024 0.930 . S
C1032 C1031 1.362 . S
C1032 C1035 1.409 . S
C1033 H1025 0.930 . S
C1033 C1034 1.355 . S
C1033 C1035 1.415 . S
C1034 C1033 1.355 . S
C1034 C1036 1.419 . S
C1035 C1030 1.425 . S
C1035 C1032 1.409 . S
C1035 C1033 1.415 . S
C1036 H1026 0.930 . S
C1036 C1034 1.419 . S
C1036 C1037 1.362 . S
C1037 H1027 0.930 . S
C1037 C1030 1.409 . S
C1037 C1036 1.362 . S
H1038 C1044 0.930 . S
H1039 C1047 0.930 . S
H1040 C1048 0.930 . S
H1041 C1049 0.930 . S
H1042 C1052 0.930 . S
H1043 C1053 0.930 . S
C1044 H1038 0.930 . S
C1044 C1045 1.355 . S
C1044 C1046 1.415 . S
C1045 C1044 1.355 . S
C1045 C1047 1.419 . S
C1046 C1044 1.415 . S
C1046 C1051 1.425 . S
C1046 C1053 1.409 1_556 S
C1047 H1039 0.930 . S
C1047 C1045 1.419 . S
C1047 C1048 1.362 . S
C1048 H1040 0.930 . S
C1048 C1047 1.362 . S
C1048 C1051 1.409 . S
C1049 H1041 0.930 . S
C1049 C1050 1.355 . S
C1049 C1051 1.415 . S
C1050 C1049 1.355 . S
C1050 C1052 1.419 1_556 S
C1051 C1046 1.425 . S
C1051 C1048 1.409 . S
C1051 C1049 1.415 . S
C1052 H1042 0.930 . S
C1052 C1050 1.419 1_554 S
C1052 C1053 1.362 . S
C1053 H1043 0.930 . S
C1053 C1046 1.409 1_554 S
C1053 C1052 1.362 . S
H1054 C1060 0.930 . S
H1055 C1063 0.930 1_455 S
H1056 C1064 0.930 . S
H1057 C1065 0.930 1_554 S
H1058 C1068 0.930 . S
H1059 C1069 0.930 . S
C1060 H1054 0.930 . S
C1060 C1061 1.355 . S
C1060 C1062 1.415 . S
C1061 C1060 1.355 . S
C1061 C1063 1.419 . S
C1062 C1060 1.415 . S
C1062 C1067 1.425 . S
C1062 C1069 1.409 . S
C1063 H1055 0.930 1_655 S
C1063 C1061 1.419 . S
C1063 C1064 1.362 . S
C1064 H1056 0.930 . S
C1064 C1063 1.362 . S
C1064 C1067 1.409 . S
C1065 H1057 0.930 1_556 S
C1065 C1066 1.355 . S
C1065 C1067 1.415 . S
C1066 C1065 1.355 . S
C1066 C1068 1.419 . S
C1067 C1062 1.425 . S
C1067 C1064 1.409 . S
C1067 C1065 1.415 . S
C1068 H1058 0.930 . S
C1068 C1066 1.419 . S
C1068 C1069 1.362 . S
C1069 H1059 0.930 . S
C1069 C1062 1.409 . S
C1069 C1068 1.362 . S
H1070 C1076 0.930 . S
H1071 C1079 0.930 . S
H1072 C1080 0.930 1_554 S
H1073 C1081 0.930 1_554 S
H1074 C1084 0.930 . S
H1075 C1085 0.930 . S
C1076 H1070 0.930 . S
C1076 C1077 1.355 . S
C1076 C1078 1.415 . S
C1077 C1076 1.355 . S
C1077 C1079 1.419 . S
C1078 C1076 1.415 . S
C1078 C1083 1.425 . S
C1078 C1085 1.409 . S
C1079 H1071 0.930 . S
C1079 C1077 1.419 . S
C1079 C1080 1.362 . S
C1080 H1072 0.930 1_556 S
C1080 C1079 1.362 . S
C1080 C1083 1.409 . S
C1081 H1073 0.930 1_556 S
C1081 C1082 1.355 . S
C1081 C1083 1.415 . S
C1082 C1081 1.355 . S
C1082 C1084 1.419 . S
C1083 C1078 1.425 . S
C1083 C1080 1.409 . S
C1083 C1081 1.415 . S
C1084 H1074 0.930 . S
C1084 C1082 1.419 . S
C1084 C1085 1.362 . S
C1085 H1075 0.930 . S
C1085 C1078 1.409 . S
C1085 C1084 1.362 . S
H1086 C1092 0.930 . S
H1087 C1095 0.930 . S
H1088 C1096 0.930 . S
H1089 C1097 0.930 . S
H1090 C1100 0.930 1_455 S
H1091 C1101 0.930 . S
C1092 H1086 0.930 . S
C1092 C1093 1.355 . S
C1092 C1094 1.415 . S
C1093 C1092 1.355 . S
C1093 C1095 1.419 . S
C1094 C1092 1.415 . S
C1094 C1099 1.425 . S
C1094 C1101 1.409 . S
C1095 H1087 0.930 . S
C1095 C1093 1.419 . S
C1095 C1096 1.362 . S
C1096 H1088 0.930 . S
C1096 C1095 1.362 . S
C1096 C1099 1.409 . S
C1097 H1089 0.930 . S
C1097 C1098 1.355 . S
C1097 C1099 1.415 . S
C1098 C1097 1.355 . S
C1098 C1100 1.419 . S
C1099 C1094 1.425 . S
C1099 C1096 1.409 . S
C1099 C1097 1.415 . S
C1100 H1090 0.930 1_655 S
C1100 C1098 1.419 . S
C1100 C1101 1.362 . S
C1101 H1091 0.930 . S
C1101 C1094 1.409 . S
C1101 C1100 1.362 . S
H1102 C1108 0.930 . S
H1103 C1111 0.930 . S
H1104 C1112 0.930 . S
H1105 C1113 0.930 . S
H1106 C1116 0.930 . S
H1107 C1117 0.930 . S
C1108 H1102 0.930 . S
C1108 C1109 1.355 . S
C1108 C1110 1.415 . S
C1109 C1108 1.355 . S
C1109 C1111 1.419 . S
C1110 C1108 1.415 . S
C1110 C1115 1.425 . S
C1110 C1117 1.409 . S
C1111 H1103 0.930 . S
C1111 C1109 1.419 . S
C1111 C1112 1.362 . S
C1112 H1104 0.930 . S
C1112 C1111 1.362 . S
C1112 C1115 1.409 . S
C1113 H1105 0.930 . S
C1113 C1114 1.355 . S
C1113 C1115 1.415 . S
C1114 C1113 1.355 . S
C1114 C1116 1.419 . S
C1115 C1110 1.425 . S
C1115 C1112 1.409 . S
C1115 C1113 1.415 . S
C1116 H1106 0.930 . S
C1116 C1114 1.419 . S
C1116 C1117 1.362 . S
C1117 H1107 0.930 . S
C1117 C1110 1.409 . S
C1117 C1116 1.362 . S
H1118 C1124 0.930 . S
H1119 C1127 0.930 . S
H1120 C1128 0.930 . S
H1121 C1129 0.930 . S
H1122 C1132 0.930 . S
H1123 C1133 0.930 . S
C1124 H1118 0.930 . S
C1124 C1125 1.355 . S
C1124 C1126 1.415 . S
C1125 C1124 1.355 . S
C1125 C1127 1.419 . S
C1126 C1124 1.415 . S
C1126 C1131 1.425 . S
C1126 C1133 1.409 . S
C1127 H1119 0.930 . S
C1127 C1125 1.419 . S
C1127 C1128 1.362 . S
C1128 H1120 0.930 . S
C1128 C1127 1.362 . S
C1128 C1131 1.409 . S
C1129 H1121 0.930 . S
C1129 C1130 1.355 . S
C1129 C1131 1.415 . S
C1130 C1129 1.355 . S
C1130 C1132 1.419 . S
C1131 C1126 1.425 . S
C1131 C1128 1.409 . S
C1131 C1129 1.415 . S
C1132 H1122 0.930 . S
C1132 C1130 1.419 . S
C1132 C1133 1.362 . S
C1133 H1123 0.930 . S
C1133 C1126 1.409 . S
C1133 C1132 1.362 . S
H1134 C1140 0.930 . S
H1135 C1143 0.930 . S
H1136 C1144 0.922 1_556 S
H1137 C1145 0.930 . S
H1138 C1148 0.930 . S
H1139 C1149 0.930 . S
C1140 H1134 0.930 . S
C1140 C1141 1.355 . S
C1140 C1142 1.415 . S
C1141 C1140 1.355 . S
C1141 C1143 1.419 1_554 S
C1142 C1140 1.415 . S
C1142 C1147 1.425 . S
C1142 C1149 1.409 . S
C1143 H1135 0.930 . S
C1143 C1141 1.419 1_556 S
C1143 C1144 1.358 1_556 S
C1144 H1136 0.922 1_554 S
C1144 C1143 1.358 1_554 S
C1144 C1147 1.422 . S
C1145 H1137 0.930 . S
C1145 C1146 1.355 . S
C1145 C1147 1.415 . S
C1146 C1145 1.355 . S
C1146 C1148 1.419 . S
C1147 C1142 1.425 . S
C1147 C1144 1.422 . S
C1147 C1145 1.415 . S
C1148 H1138 0.930 . S
C1148 C1146 1.419 . S
C1148 C1149 1.362 . S
C1149 H1139 0.930 . S
C1149 C1142 1.409 . S
C1149 C1148 1.362 . S
H1150 C1156 0.930 . S
H1151 C1159 0.930 . S
H1152 C1160 0.930 . S
H1153 C1161 0.930 . S
H1154 C1164 0.930 . S
H1155 C1165 0.930 . S
C1156 H1150 0.930 . S
C1156 C1157 1.355 . S
C1156 C1158 1.415 . S
C1157 C1156 1.355 . S
C1157 C1159 1.419 . S
C1158 C1156 1.415 . S
C1158 C1163 1.425 . S
C1158 C1165 1.409 1_554 S
C1159 H1151 0.930 . S
C1159 C1157 1.419 . S
C1159 C1160 1.362 . S
C1160 H1152 0.930 . S
C1160 C1159 1.362 . S
C1160 C1163 1.409 . S
C1161 H1153 0.930 . S
C1161 C1162 1.355 . S
C1161 C1163 1.415 . S
C1162 C1161 1.355 . S
C1162 C1164 1.419 1_554 S
C1163 C1158 1.425 . S
C1163 C1160 1.409 . S
C1163 C1161 1.415 . S
C1164 H1154 0.930 . S
C1164 C1162 1.419 1_556 S
C1164 C1165 1.362 . S
C1165 H1155 0.930 . S
C1165 C1158 1.409 1_556 S
C1165 C1164 1.362 . S
H1166 C1172 0.930 . S
H1167 C1175 0.930 . S
H1168 C1176 0.930 . S
H1169 C1177 0.930 . S
H1170 C1180 0.930 . S
H1171 C1181 0.930 . S
C1172 H1166 0.930 . S
C1172 C1173 1.355 . S
C1172 C1174 1.415 . S
C1173 C1172 1.355 . S
C1173 C1175 1.419 . S
C1174 C1172 1.415 . S
C1174 C1179 1.425 . S
C1174 C1181 1.409 . S
C1175 H1167 0.930 . S
C1175 C1173 1.419 . S
C1175 C1176 1.362 . S
C1176 H1168 0.930 . S
C1176 C1175 1.362 . S
C1176 C1179 1.409 . S
C1177 H1169 0.930 . S
C1177 C1178 1.355 . S
C1177 C1179 1.415 . S
C1178 C1177 1.355 . S
C1178 C1180 1.419 . S
C1179 C1174 1.425 . S
C1179 C1176 1.409 . S
C1179 C1177 1.415 . S
C1180 H1170 0.930 . S
C1180 C1178 1.419 . S
C1180 C1181 1.362 . S
C1181 H1171 0.930 . S
C1181 C1174 1.409 . S
C1181 C1180 1.362 . S
H1182 C1188 0.930 . S
H1183 C1191 0.930 . S
H1184 C1192 0.930 . S
H1185 C1193 0.930 . S
H1186 C1196 0.930 . S
H1187 C1197 0.954 . S
C1188 H1182 0.930 . S
C1188 C1189 1.355 . S
C1188 C1190 1.379 1_655 S
C1189 C1188 1.355 . S
C1189 C1191 1.419 . S
C1190 C1188 1.379 1_455 S
C1190 C1195 1.462 . S
C1190 C1197 1.411 . S
C1191 H1183 0.930 . S
C1191 C1189 1.419 . S
C1191 C1192 1.362 1_655 S
C1192 H1184 0.930 . S
C1192 C1191 1.362 1_455 S
C1192 C1195 1.409 . S
C1193 H1185 0.930 . S
C1193 C1194 1.355 . S
C1193 C1195 1.415 . S
C1194 C1193 1.355 . S
C1194 C1196 1.419 . S
C1195 C1190 1.462 . S
C1195 C1192 1.409 . S
C1195 C1193 1.415 . S
C1196 H1186 0.930 . S
C1196 C1194 1.419 . S
C1196 C1197 1.362 . S
C1197 H1187 0.954 . S
C1197 C1190 1.411 . S
C1197 C1196 1.362 . S
H1198 C1204 0.930 . S
H1199 C1207 0.930 . S
H1200 C1208 0.930 . S
H1201 C1209 0.930 . S
H1202 C1212 0.930 . S
H1203 C1213 0.930 . S
C1204 H1198 0.930 . S
C1204 C1205 1.355 . S
C1204 C1206 1.415 . S
C1205 C1204 1.355 . S
C1205 C1207 1.419 . S
C1206 C1204 1.415 . S
C1206 C1211 1.425 . S
C1206 C1213 1.409 . S
C1207 H1199 0.930 . S
C1207 C1205 1.419 . S
C1207 C1208 1.362 . S
C1208 H1200 0.930 . S
C1208 C1207 1.362 . S
C1208 C1211 1.409 . S
C1209 H1201 0.930 . S
C1209 C1210 1.355 . S
C1209 C1211 1.415 . S
C1210 C1209 1.355 . S
C1210 C1212 1.419 . S
C1211 C1206 1.425 . S
C1211 C1208 1.409 . S
C1211 C1209 1.415 . S
C1212 H1202 0.930 . S
C1212 C1210 1.419 . S
C1212 C1213 1.362 . S
C1213 H1203 0.930 . S
C1213 C1206 1.409 . S
C1213 C1212 1.362 . S
H1214 C1220 0.930 . S
H1215 C1223 0.930 . S
H1216 C1224 0.930 . S
H1217 C1225 0.930 . S
H1218 C1228 0.930 . S
H1219 C1229 0.930 . S
C1220 H1214 0.930 . S
C1220 C1221 1.355 . S
C1220 C1222 1.415 1_565 S
C1221 C1220 1.355 . S
C1221 C1223 1.419 . S
C1222 C1220 1.415 1_545 S
C1222 C1227 1.425 . S
C1222 C1229 1.409 . S
C1223 H1215 0.930 . S
C1223 C1221 1.419 . S
C1223 C1224 1.362 . S
C1224 H1216 0.930 . S
C1224 C1223 1.362 . S
C1224 C1227 1.409 1_565 S
C1225 H1217 0.930 . S
C1225 C1226 1.355 . S
C1225 C1227 1.415 . S
C1226 C1225 1.355 . S
C1226 C1228 1.419 . S
C1227 C1222 1.425 . S
C1227 C1224 1.409 1_545 S
C1227 C1225 1.415 . S
C1228 H1218 0.930 . S
C1228 C1226 1.419 . S
C1228 C1229 1.362 . S
C1229 H1219 0.930 . S
C1229 C1222 1.409 . S
C1229 C1228 1.362 . S
H1230 C1236 0.930 . S
H1231 C1239 0.930 . S
H1232 C1240 0.930 . S
H1233 C1241 0.930 . S
H1234 C1244 0.930 . S
H1235 C1245 0.930 . S
C1236 H1230 0.930 . S
C1236 C1237 1.355 . S
C1236 C1238 1.415 1_565 S
C1237 C1236 1.355 . S
C1237 C1239 1.419 . S
C1238 C1236 1.415 1_545 S
C1238 C1243 1.425 . S
C1238 C1245 1.409 . S
C1239 H1231 0.930 . S
C1239 C1237 1.419 . S
C1239 C1240 1.362 1_565 S
C1240 H1232 0.930 . S
C1240 C1239 1.362 1_545 S
C1240 C1243 1.409 . S
C1241 H1233 0.930 . S
C1241 C1242 1.355 . S
C1241 C1243 1.415 . S
C1242 C1241 1.355 . S
C1242 C1244 1.419 . S
C1243 C1238 1.425 . S
C1243 C1240 1.409 . S
C1243 C1241 1.415 . S
C1244 H1234 0.930 . S
C1244 C1242 1.419 . S
C1244 C1245 1.362 . S
C1245 H1235 0.930 . S
C1245 C1238 1.409 . S
C1245 C1244 1.362 . S
H1246 C1252 0.930 . S
H1247 C1255 0.930 . S
H1248 C1256 0.930 . S
H1249 C1257 0.930 . S
H1250 C1260 0.930 . S
H1251 C1261 0.930 . S
C1252 H1246 0.930 . S
C1252 C1253 1.355 . S
C1252 C1254 1.415 . S
C1253 C1252 1.355 . S
C1253 C1255 1.419 . S
C1254 C1252 1.415 . S
C1254 C1259 1.425 . S
C1254 C1261 1.409 1_455 S
C1255 H1247 0.930 . S
C1255 C1253 1.419 . S
C1255 C1256 1.362 . S
C1256 H1248 0.930 . S
C1256 C1255 1.362 . S
C1256 C1259 1.409 . S
C1257 H1249 0.930 . S
C1257 C1258 1.355 . S
C1257 C1259 1.415 1_655 S
C1258 C1257 1.355 . S
C1258 C1260 1.419 . S
C1259 C1254 1.425 . S
C1259 C1256 1.409 . S
C1259 C1257 1.415 1_455 S
C1260 H1250 0.930 . S
C1260 C1258 1.419 . S
C1260 C1261 1.362 . S
C1261 H1251 0.930 . S
C1261 C1254 1.409 1_655 S
C1261 C1260 1.362 . S
H1262 C1268 0.930 . S
H1263 C1271 0.930 . S
H1264 C1272 0.930 . S
H1265 C1273 0.930 . S
H1266 C1276 0.930 . S
H1267 C1277 0.930 . S
C1268 H1262 0.930 . S
C1268 C1269 1.355 . S
C1268 C1270 1.415 . S
C1269 C1268 1.355 . S
C1269 C1271 1.419 . S
C1270 C1268 1.415 . S
C1270 C1275 1.425 . S
C1270 C1277 1.409 . S
C1271 H1263 0.930 . S
C1271 C1269 1.419 . S
C1271 C1272 1.362 . S
C1272 H1264 0.930 . S
C1272 C1271 1.362 . S
C1272 C1275 1.409 . S
C1273 H1265 0.930 . S
C1273 C1274 1.355 . S
C1273 C1275 1.415 . S
C1274 C1273 1.355 . S
C1274 C1276 1.419 . S
C1275 C1270 1.425 . S
C1275 C1272 1.409 . S
C1275 C1273 1.415 . S
C1276 H1266 0.930 . S
C1276 C1274 1.419 . S
C1276 C1277 1.362 . S
C1277 H1267 0.930 . S
C1277 C1270 1.409 . S
C1277 C1276 1.362 . S
C421 C18 1.382 . S
C426 C111 1.365 . S
C437 C134 1.391 . S
C442 C41 1.414 . S
C453 C64 1.386 . S
C458 C88 1.381 . S
C469 C63 1.735 . S
C474 C112 1.800 . S
C485 C135 1.801 . S
C490 C17 1.738 . S
C501 C40 1.698 . S
C506 C89 1.778 . S
C517 C42 1.734 . S
C522 C86 1.722 . S
C533 C65 1.764 . S
C538 C109 1.777 . S
C549 C132 1.759 . S
C554 C19 1.775 . S
C565 C133 1.391 . S
C570 C43 1.385 . S
C581 C66 1.417 . S
C586 C87 1.398 . S
C597 C20 1.403 . S
C602 C110 1.381 . S
C613 C249 1.418 . S
C618 C156 1.436 . S
C629 C179 1.446 . S
C634 C272 1.440 . S
C645 C202 1.425 . S
C650 C226 1.427 . S
C661 C250 1.781 . S
C666 C201 1.708 . S
C677 C273 1.793 . S
C682 C155 1.727 . S
C693 C227 1.783 . S
C698 C178 1.707 . S
C709 C180 1.752 . S
C714 C224 1.766 . S
C725 C203 1.747 . S
C730 C247 1.732 . S
C741 C157 1.789 . S
C746 C270 1.794 . S
C757 C181 1.380 . S
C762 C271 1.403 . S
C773 C204 1.412 . S
C778 C225 1.409 . S
C789 C248 1.411 . S
C794 C158 1.381 . S
C805 C294 1.414 . S
C810 C387 1.415 . S
C821 C317 1.380 . S
C826 C410 1.372 . S
C837 C364 1.384 . S
C842 C340 1.407 . S
C853 C388 1.791 . S
C858 C339 1.719 . S
C869 C293 1.732 . S
C874 C411 1.798 . S
C885 C316 1.705 . S
C890 C365 1.782 . S
C901 C318 1.726 . S
C906 C362 1.736 . S
C917 C341 1.784 . S
C922 C385 1.791 . S
C933 C295 1.717 . S
C938 C408 1.717 . S
C949 C409 1.384 . S
C954 C319 1.394 . S
C965 C363 1.417 . S
C970 C342 1.399 . S
C981 C296 1.399 . S
C986 C386 1.417 . S
C997 C16 1.347 . S
C1002 C320 1.312 . S
C1013 C39 1.355 . S
C1018 C343 1.339 . S
C1029 C62 1.347 . S
C1034 C297 1.319 . S
C1045 C67 1.335 . S
C1050 C177 1.353 . S
C1061 C21 1.371 . S
C1066 C200 1.378 . S
C1077 C44 1.355 . S
C1082 C154 1.375 . S
C1093 C246 1.433 . S
C1098 C90 1.427 . S
C1109 C113 1.400 . S
C1114 C269 1.409 . S
C1125 C136 1.403 . S
C1130 C223 1.409 . S
C1141 C389 1.417 . S
C1146 C131 1.409 . S
C1157 C85 1.408 . S
C1162 C412 1.411 . S
C1173 C108 1.433 . S
C1178 C366 1.427 . S
C1189 C205 1.358 . S
C1194 C315 1.364 . S
C1205 C159 1.312 . S
C1210 C338 1.348 . S
C1221 C292 1.370 . S
C1226 C182 1.343 . S
C1237 C384 1.408 . S
C1242 C228 1.412 . S
C1253 C407 1.434 . S
C1258 C251 1.393 . S
C1269 C274 1.393 . S
C1274 C361 1.412 . S
