# Generated by pormake.
# Topology fnc, (5)-cn, num edge types: 1
# Building blocks:
#     Node 0, Type 0, BuildingBlock: XOMCOT_clean_sbu_0, # of connection points: 5
#     Node 1, Type 0, BuildingBlock: XOMCOT_clean_sbu_0, # of connection points: 5
#     Node 2, Type 0, BuildingBlock: XOMCOT_clean_sbu_0, # of connection points: 5
#     Node 3, Type 0, BuildingBlock: XOMCOT_clean_sbu_0, # of connection points: 5
#     Node 4, Type 0, BuildingBlock: XOMCOT_clean_sbu_0, # of connection points: 5
#     Node 5, Type 0, BuildingBlock: XOMCOT_clean_sbu_0, # of connection points: 5
#     Node 6, Type 0, BuildingBlock: XOMCOT_clean_sbu_0, # of connection points: 5
#     Node 7, Type 0, BuildingBlock: XOMCOT_clean_sbu_0, # of connection points: 5
#     Node 8, Type 0, BuildingBlock: XOMCOT_clean_sbu_0, # of connection points: 5
#     Node 9, Type 0, BuildingBlock: XOMCOT_clean_sbu_0, # of connection points: 5
#     Node 10, Type 0, BuildingBlock: XOMCOT_clean_sbu_0, # of connection points: 5
#     Node 11, Type 0, BuildingBlock: XOMCOT_clean_sbu_0, # of connection points: 5
#     Node 12, Type 0, BuildingBlock: XOMCOT_clean_sbu_0, # of connection points: 5
#     Node 13, Type 0, BuildingBlock: XOMCOT_clean_sbu_0, # of connection points: 5
#     Node 14, Type 0, BuildingBlock: XOMCOT_clean_sbu_0, # of connection points: 5
#     Node 15, Type 0, BuildingBlock: XOMCOT_clean_sbu_0, # of connection points: 5
#     Node 16, Type 0, BuildingBlock: XOMCOT_clean_sbu_0, # of connection points: 5
#     Node 17, Type 0, BuildingBlock: XOMCOT_clean_sbu_0, # of connection points: 5
#     Edge 18, Type (0, 0), BuildingBlock: KIFKEQ_clean_linker_1, # of connection points: 2
#     Edge 19, Type (0, 0), BuildingBlock: KIFKEQ_clean_linker_1, # of connection points: 2
#     Edge 20, Type (0, 0), BuildingBlock: KIFKEQ_clean_linker_1, # of connection points: 2
#     Edge 21, Type (0, 0), BuildingBlock: KIFKEQ_clean_linker_1, # of connection points: 2
#     Edge 22, Type (0, 0), BuildingBlock: KIFKEQ_clean_linker_1, # of connection points: 2
#     Edge 23, Type (0, 0), BuildingBlock: KIFKEQ_clean_linker_1, # of connection points: 2
#     Edge 24, Type (0, 0), BuildingBlock: KIFKEQ_clean_linker_1, # of connection points: 2
#     Edge 25, Type (0, 0), BuildingBlock: KIFKEQ_clean_linker_1, # of connection points: 2
#     Edge 26, Type (0, 0), BuildingBlock: KIFKEQ_clean_linker_1, # of connection points: 2
#     Edge 27, Type (0, 0), BuildingBlock: KIFKEQ_clean_linker_1, # of connection points: 2
#     Edge 28, Type (0, 0), BuildingBlock: KIFKEQ_clean_linker_1, # of connection points: 2
#     Edge 29, Type (0, 0), BuildingBlock: KIFKEQ_clean_linker_1, # of connection points: 2
#     Edge 30, Type (0, 0), BuildingBlock: KIFKEQ_clean_linker_1, # of connection points: 2
#     Edge 31, Type (0, 0), BuildingBlock: KIFKEQ_clean_linker_1, # of connection points: 2
#     Edge 32, Type (0, 0), BuildingBlock: KIFKEQ_clean_linker_1, # of connection points: 2
#     Edge 33, Type (0, 0), BuildingBlock: KIFKEQ_clean_linker_1, # of connection points: 2
#     Edge 34, Type (0, 0), BuildingBlock: KIFKEQ_clean_linker_1, # of connection points: 2
#     Edge 35, Type (0, 0), BuildingBlock: KIFKEQ_clean_linker_1, # of connection points: 2
#     Edge 36, Type (0, 0), BuildingBlock: KIFKEQ_clean_linker_1, # of connection points: 2
#     Edge 37, Type (0, 0), BuildingBlock: KIFKEQ_clean_linker_1, # of connection points: 2
#     Edge 38, Type (0, 0), BuildingBlock: KIFKEQ_clean_linker_1, # of connection points: 2
#     Edge 39, Type (0, 0), BuildingBlock: KIFKEQ_clean_linker_1, # of connection points: 2
#     Edge 40, Type (0, 0), BuildingBlock: KIFKEQ_clean_linker_1, # of connection points: 2
#     Edge 41, Type (0, 0), BuildingBlock: KIFKEQ_clean_linker_1, # of connection points: 2
#     Edge 42, Type (0, 0), BuildingBlock: KIFKEQ_clean_linker_1, # of connection points: 2
#     Edge 43, Type (0, 0), BuildingBlock: KIFKEQ_clean_linker_1, # of connection points: 2
#     Edge 44, Type (0, 0), BuildingBlock: KIFKEQ_clean_linker_1, # of connection points: 2
#     Edge 45, Type (0, 0), BuildingBlock: KIFKEQ_clean_linker_1, # of connection points: 2
#     Edge 46, Type (0, 0), BuildingBlock: KIFKEQ_clean_linker_1, # of connection points: 2
#     Edge 47, Type (0, 0), BuildingBlock: KIFKEQ_clean_linker_1, # of connection points: 2
#     Edge 48, Type (0, 0), BuildingBlock: KIFKEQ_clean_linker_1, # of connection points: 2
#     Edge 49, Type (0, 0), BuildingBlock: KIFKEQ_clean_linker_1, # of connection points: 2
#     Edge 50, Type (0, 0), BuildingBlock: KIFKEQ_clean_linker_1, # of connection points: 2
#     Edge 51, Type (0, 0), BuildingBlock: KIFKEQ_clean_linker_1, # of connection points: 2
#     Edge 52, Type (0, 0), BuildingBlock: KIFKEQ_clean_linker_1, # of connection points: 2
#     Edge 53, Type (0, 0), BuildingBlock: KIFKEQ_clean_linker_1, # of connection points: 2
#     Edge 54, Type (0, 0), BuildingBlock: KIFKEQ_clean_linker_1, # of connection points: 2
#     Edge 55, Type (0, 0), BuildingBlock: KIFKEQ_clean_linker_1, # of connection points: 2
#     Edge 56, Type (0, 0), BuildingBlock: KIFKEQ_clean_linker_1, # of connection points: 2
#     Edge 57, Type (0, 0), BuildingBlock: KIFKEQ_clean_linker_1, # of connection points: 2
#     Edge 58, Type (0, 0), BuildingBlock: KIFKEQ_clean_linker_1, # of connection points: 2
#     Edge 59, Type (0, 0), BuildingBlock: KIFKEQ_clean_linker_1, # of connection points: 2
#     Edge 60, Type (0, 0), BuildingBlock: KIFKEQ_clean_linker_1, # of connection points: 2
#     Edge 61, Type (0, 0), BuildingBlock: KIFKEQ_clean_linker_1, # of connection points: 2
#     Edge 62, Type (0, 0), BuildingBlock: KIFKEQ_clean_linker_1, # of connection points: 2
# Relax obj value: 0.191
# Max RMSD: 0.311
# Mean RMSD: 0.298
data_MOF--net-fnc--node1-XOMCOT_clean_sbu_0--edge1-KIFKEQ_clean_linker_1
_symmetry_space_group_name_H-M    P1
_symmetry_Int_Tables_number       1
_symmetry_cell_setting            triclinic
loop_
_symmetry_equiv_pos_as_xyz
'x, y, z'
_cell_length_a     93.394073
_cell_length_b     103.92773
_cell_length_c     17.849792
_cell_angle_alpha  90.67819
_cell_angle_beta   91.026387
_cell_angle_gamma 121.86178
loop_
_atom_site_label
_atom_site_type_symbol
_atom_site_fract_x
_atom_site_fract_y
_atom_site_fract_z
_atom_type_partial_charge
Co0 Co 0.02174 0.45514 0.09317 0.0
C1 C 0.02455 0.45571 0.92596 0.0
C2 C 0.03921 0.44791 0.97876 0.0
C3 C 0.03994 0.4466 0.90226 0.0
N4 N 0.03003 0.45416 0.99424 0.0
N5 N 0.03066 0.45147 0.86893 0.0
H6 H 0.01538 0.45888 0.91764 0.0
H7 H 0.0442 0.44366 0.01998 0.0
C8 C 0.05784 0.46567 0.12838 0.0
O9 O 0.06237 0.47495 0.07205 0.0
N10 N 0.01314 0.45548 0.19078 0.0
C11 C 0.00273 0.46037 0.20653 0.0
C12 C 0.00073 0.46002 0.28292 0.0
C13 C 0.01727 0.45215 0.25766 0.0
N14 N 0.00997 0.45494 0.31536 0.0
C15 C 0.02784 0.48316 0.0349 0.0
C16 C 0.04927 0.50167 0.15028 0.0
C17 C 0.04546 0.50812 0.09093 0.0
C18 C 0.03458 0.4987 0.03288 0.0
C19 C 0.04252 0.48604 0.1492 0.0
N20 N 0.03236 0.47703 0.09063 0.0
H21 H 0.01837 0.47607 0.99343 0.0
H22 H 0.04515 0.48116 0.19655 0.0
H23 H -0.00269 0.46428 0.16548 0.0
H24 H 0.02587 0.44824 0.26409 0.0
O25 O 0.00026 0.44915 0.04648 0.0
O26 O 0.00763 0.43337 0.08868 0.0
O27 O 0.04228 0.45709 0.14372 0.0
C28 C -0.00349 0.43528 0.05407 0.0
H29 H 0.04601 0.44157 0.87367 0.0
H30 H 0.99314 0.46341 0.31204 0.0
H31 H 0.05726 0.5086 0.19721 0.0
H32 H 0.03072 0.50325 0.98793 0.0
Co33 Co 0.61326 0.66168 0.02213 0.0
C34 C 0.6145 0.6592 0.1891 0.0
C35 C 0.63892 0.66997 0.14139 0.0
C36 C 0.64091 0.67061 0.21814 0.0
N37 N 0.62233 0.66248 0.12266 0.0
N38 N 0.62553 0.66389 0.24822 0.0
H39 H 0.60115 0.65419 0.19486 0.0
H40 H 0.649 0.67534 0.102 0.0
C41 C 0.6365 0.65025 1.00179 0.0
O42 O 0.62979 0.6415 0.05956 0.0
N43 N 0.60455 0.66135 0.9225 0.0
C44 C 0.58865 0.65737 0.90452 0.0
C45 C 0.58691 0.65721 0.82771 0.0
C46 C 0.61232 0.66363 0.85654 0.0
N47 N 0.60178 0.66108 0.79744 0.0
C48 C 0.58312 0.63552 0.07182 0.0
C49 C 0.58332 0.61493 0.97334 0.0
C50 C 0.56968 0.60996 0.02091 0.0
C51 C 0.56971 0.6205 0.07057 0.0
C52 C 0.59646 0.6301 0.97621 0.0
N53 N 0.59657 0.64012 0.02689 0.0
H54 H 0.5821 0.64358 0.10606 0.0
H55 H 0.60611 0.63384 0.93512 0.0
H56 H 0.57886 0.6544 0.94445 0.0
H57 H 0.62523 0.66657 0.85176 0.0
O58 O 0.60031 0.66956 0.06312 0.0
O59 O 0.62644 0.68346 0.02302 0.0
O60 O 0.63072 0.65824 0.97808 0.0
C61 C 0.61366 0.68292 0.05442 0.0
H62 H 0.65281 0.67638 0.24936 0.0
H63 H 0.57551 0.65435 0.79668 0.0
H64 H 0.58373 0.60724 0.93322 0.0
H65 H 0.5591 0.61736 0.10598 0.0
Co66 Co 0.43373 0.0648 0.1132 0.0
C67 C 0.43241 0.06165 0.94563 0.0
C68 C 0.40848 0.04705 0.99446 0.0
C69 C 0.40632 0.04569 0.91782 0.0
N70 N 0.42493 0.05677 0.01232 0.0
N71 N 0.42137 0.05495 0.88681 0.0
H72 H 0.44534 0.07066 0.93985 0.0
H73 H 0.39856 0.04171 0.03458 0.0
C74 C 0.4146 0.03096 0.12794 0.0
O75 O 0.42093 0.02961 0.06534 0.0
N76 N 0.4421 0.0729 0.2133 0.0
C77 C 0.45766 0.08456 0.2323 0.0
C78 C 0.45914 0.08608 0.30923 0.0
C79 C 0.43426 0.06754 0.27861 0.0
N80 N 0.44442 0.07536 0.33858 0.0
C81 C 0.46577 0.07161 0.05852 0.0
C82 C 0.46907 0.05221 0.15157 0.0
C83 C 0.48238 0.06158 0.10508 0.0
C84 C 0.48057 0.07132 0.0577 0.0
C85 C 0.45457 0.05288 0.15074 0.0
N86 N 0.45276 0.06215 0.10301 0.0
H87 H 0.46524 0.08008 0.02652 0.0
H88 H 0.44525 0.04648 0.1918 0.0
H89 H 0.46742 0.0912 0.19298 0.0
H90 H 0.42143 0.05804 0.28188 0.0
O91 O 0.44346 0.08518 0.07621 0.0
O92 O 0.41766 0.07088 0.11937 0.0
O93 O 0.419 0.04401 0.15511 0.0
C94 C 0.42892 0.08353 0.08993 0.0
H95 H 0.39443 0.03865 0.88771 0.0
H96 H 0.47043 0.09419 0.34083 0.0
H97 H 0.46995 0.04461 0.18969 0.0
H98 H 0.49078 0.07914 0.02281 0.0
Co99 Co 0.06247 0.65649 0.01059 0.0
C100 C 0.05884 0.65438 0.17727 0.0
C101 C 0.04335 0.66135 0.12435 0.0
C102 C 0.04175 0.66173 0.20075 0.0
N103 N 0.05382 0.65644 0.10927 0.0
N104 N 0.05156 0.6574 0.23405 0.0
H105 H 0.06799 0.6512 0.18588 0.0
H106 H 0.03767 0.66487 0.08255 0.0
C107 C 0.0247 0.63649 0.99062 0.0
O108 O 0.02345 0.63099 0.05771 0.0
N109 N 0.07112 0.65694 0.91255 0.0
C110 C 0.08458 0.65598 0.89693 0.0
C111 C 0.086 0.6559 0.82025 0.0
C112 C 0.06459 0.65753 0.84552 0.0
N113 N 0.0734 0.65684 0.78789 0.0
C114 C 0.07293 0.63736 0.07308 0.0
C115 C 0.04973 0.61117 0.9951 0.0
C116 C 0.06131 0.61078 0.04465 0.0
C117 C 0.07313 0.62417 0.0834 0.0
C118 C 0.05011 0.62464 0.98585 0.0
N119 N 0.06108 0.63738 0.02728 0.0
H120 H 0.0827 0.64768 0.10061 0.0
H121 H 0.04192 0.6248 0.94314 0.0
H122 H 0.09267 0.65522 0.93838 0.0
H123 H 0.0534 0.6581 0.83907 0.0
O124 O 0.08506 0.67042 0.04982 0.0
O125 O 0.06805 0.67703 0.99968 0.0
O126 O 0.03904 0.64615 0.96459 0.0
C127 C 0.08245 0.68115 0.03236 0.0
H128 H 0.03451 0.66556 0.22956 0.0
H129 H 0.09563 0.65526 0.79076 0.0
H130 H 0.0405 0.60119 0.96297 0.0
H131 H 0.0828 0.62462 0.11978 0.0
Co132 Co 0.44152 0.44796 0.0613 0.0
C133 C 0.44012 0.44951 0.89608 0.0
C134 C 0.41551 0.43921 0.94256 0.0
C135 C 0.41381 0.43878 0.86562 0.0
N136 N 0.432 0.44603 0.96156 0.0
N137 N 0.42928 0.44518 0.83638 0.0
H138 H 0.45364 0.45482 0.89236 0.0
H139 H 0.40535 0.43432 0.98161 0.0
C140 C 0.42215 0.45876 0.1489 0.0
O141 O 0.43621 0.47002 0.17937 0.0
N142 N 0.45092 0.44938 0.16228 0.0
C143 C 0.46631 0.45189 0.18049 0.0
C144 C 0.46791 0.45154 0.25702 0.0
C145 C 0.44308 0.44662 0.22861 0.0
N146 N 0.45333 0.44835 0.28748 0.0
C147 C 0.47273 0.4761 0.05001 0.0
C148 C 0.45944 0.4937 0.01688 0.0
C149 C 0.47697 0.50048 0.02183 0.0
C150 C 0.48358 0.49145 0.03773 0.0
C151 C 0.44899 0.47815 0.02862 0.0
N152 N 0.45568 0.4697 0.04873 0.0
H153 H 0.47815 0.46931 0.05803 0.0
H154 H 0.43553 0.4729 0.02051 0.0
H155 H 0.47566 0.45327 0.14133 0.0
H156 H 0.43006 0.44321 0.2341 0.0
O157 O 0.45636 0.44221 0.02044 0.0
O158 O 0.43084 0.42624 0.063 0.0
O159 O 0.42246 0.44939 0.10304 0.0
C160 C 0.44431 0.4283 0.03105 0.0
H161 H 0.40202 0.4335 0.83367 0.0
H162 H 0.47886 0.45311 0.28761 0.0
H163 H 0.45389 0.50027 1.00242 0.0
H164 H 0.49707 0.49621 0.04079 0.0
Co165 Co 0.61943 0.03207 0.06223 0.0
C166 C 0.62142 0.03459 0.22802 0.0
C167 C 0.64587 0.04594 0.17956 0.0
C168 C 0.64792 0.047 0.25632 0.0
N169 N 0.62929 0.03822 0.16201 0.0
N170 N 0.63254 0.03986 0.28713 0.0
H171 H 0.60785 0.02806 0.23214 0.0
H172 H 0.65578 0.05008 0.13929 0.0
C173 C 0.63699 0.06213 0.98256 0.0
O174 O 0.62292 0.05915 0.94858 0.0
N175 N 0.60984 0.02571 0.9609 0.0
C176 C 0.59418 0.01422 0.94036 0.0
C177 C 0.59299 0.01256 0.86354 0.0
C178 C 0.61812 0.03039 0.89586 0.0
N179 N 0.60802 0.02281 0.83564 0.0
C180 C 0.58706 0.02753 0.0912 0.0
C181 C 0.59761 0.05763 0.1147 0.0
C182 C 0.58031 0.0467 0.11283 0.0
C183 C 0.57512 0.03143 0.10323 0.0
C184 C 0.60917 0.05316 0.10331 0.0
N185 N 0.60374 0.03839 0.08623 0.0
H186 H 0.58282 0.0157 0.08641 0.0
H187 H 0.62245 0.06163 0.10848 0.0
H188 H 0.58438 0.00696 0.97786 0.0
H189 H 0.63142 0.03882 0.8925 0.0
O190 O 0.60652 0.01126 0.09387 0.0
O191 O 0.63205 0.02253 0.04633 0.0
O192 O 0.6371 0.05273 0.02755 0.0
C193 C 0.61941 0.01046 0.07444 0.0
H194 H 0.6599 0.05219 0.28658 0.0
H195 H 0.58193 0.00438 0.83078 0.0
H196 H 0.60217 0.06948 0.12538 0.0
H197 H 0.56189 0.02256 0.10335 0.0
Co198 Co 0.69493 0.79081 0.44754 0.0
C199 C 0.68997 0.78857 0.61317 0.0
C200 C 0.68118 0.76706 0.55937 0.0
C201 C 0.68017 0.76518 0.63566 0.0
N202 N 0.68708 0.7817 0.54485 0.0
N203 N 0.68577 0.77874 0.66994 0.0
H204 H 0.69581 0.80059 0.62156 0.0
H205 H 0.67861 0.75847 0.51735 0.0
C206 C 0.65856 0.76605 0.41558 0.0
O207 O 0.65382 0.76786 0.48164 0.0
N208 N 0.70291 0.79959 0.35058 0.0
C209 C 0.71354 0.81432 0.33595 0.0
C210 C 0.7151 0.81585 0.2593 0.0
C211 C 0.69815 0.79236 0.28298 0.0
N212 N 0.70533 0.80203 0.2261 0.0
C213 C 0.69343 0.81588 0.50603 0.0
C214 C 0.66667 0.81124 0.41595 0.0
C215 C 0.67464 0.82397 0.46437 0.0
C216 C 0.68815 0.82616 0.5102 0.0
C217 C 0.67253 0.80141 0.41267 0.0
N218 N 0.6854 0.80344 0.45918 0.0
H219 H 0.70459 0.81844 0.53779 0.0
H220 H 0.66722 0.79274 0.36926 0.0
H221 H 0.71945 0.82336 0.37793 0.0
H222 H 0.68958 0.78026 0.27539 0.0
O223 O 0.71713 0.80415 0.49282 0.0
O224 O 0.70795 0.78143 0.4418 0.0
O225 O 0.67388 0.77408 0.39627 0.0
C226 C 0.71995 0.79343 0.47714 0.0
H227 H 0.67646 0.75471 0.66331 0.0
H228 H 0.72244 0.82638 0.23024 0.0
H229 H 0.65637 0.80917 0.37851 0.0
H230 H 0.69524 0.83618 0.546 0.0
Co231 Co 0.27755 0.98063 0.39928 0.0
C232 C 0.27916 0.97858 0.56428 0.0
C233 C 0.30374 0.9921 0.51827 0.0
C234 C 0.30548 0.99258 0.59507 0.0
N235 N 0.28727 0.98326 0.49904 0.0
N236 N 0.29002 0.98411 0.6242 0.0
H237 H 0.26559 0.97156 0.56747 0.0
H238 H 0.31373 -0.00165 0.47942 0.0
C239 C 0.30009 0.97206 0.3191 0.0
O240 O 0.28724 0.95928 0.29149 0.0
N241 N 0.26802 0.97858 0.29802 0.0
C242 C 0.25311 0.97711 0.2795 0.0
C243 C 0.25152 0.97726 0.20284 0.0
C244 C 0.27554 0.98027 0.23158 0.0
N245 N 0.26561 0.97918 0.17277 0.0
C246 C 0.24772 0.95155 0.40411 0.0
C247 C 0.26224 0.93608 0.45821 0.0
C248 C 0.24465 0.92861 0.45127 0.0
C249 C 0.23746 0.93648 0.42278 0.0
C250 C 0.27215 0.95136 0.43915 0.0
N251 N 0.26483 0.95884 0.41144 0.0
H252 H 0.24174 0.95754 0.38764 0.0
H253 H 0.28563 0.95733 0.4494 0.0
H254 H 0.24405 0.9764 0.31867 0.0
H255 H 0.28833 0.98308 0.22561 0.0
O256 O 0.26148 0.9849 0.44006 0.0
O257 O 0.28657 0.0021 0.39759 0.0
O258 O 0.29772 0.981 0.35911 0.0
C259 C 0.27274 -0.00091 0.42965 0.0
H260 H 0.31721 -0.00071 0.62688 0.0
H261 H 0.24083 0.97611 0.17174 0.0
H262 H 0.2682 0.93037 0.481 0.0
H263 H 0.2239 0.9311 0.41663 0.0
Co264 Co 0.09236 0.38282 0.38247 0.0
C265 C 0.09295 0.38545 0.55022 0.0
C266 C 0.08288 0.39742 0.49665 0.0
C267 C 0.08191 0.39864 0.57303 0.0
N268 N 0.09017 0.38943 0.48209 0.0
N269 N 0.08824 0.39108 0.60691 0.0
H270 H 0.09743 0.37793 0.55867 0.0
H271 H 0.0783 0.40186 0.45438 0.0
C272 C 0.10967 0.4167 0.37369 0.0
O273 O 0.11656 0.41843 0.4408 0.0
N274 N 0.09406 0.37618 0.28334 0.0
C275 C 0.09889 0.36644 0.26585 0.0
C276 C 0.09904 0.36526 0.18894 0.0
C277 C 0.0912 0.38073 0.21724 0.0
N278 N 0.0942 0.37426 0.15817 0.0
C279 C 0.117 0.378 0.45231 0.0
C280 C 0.14486 0.40125 0.38424 0.0
C281 C 0.14713 0.39223 0.43487 0.0
C282 C 0.1329 0.3804 0.46862 0.0
C283 C 0.12871 0.39849 0.36977 0.0
N284 N 0.11507 0.38741 0.40626 0.0
H285 H 0.10616 0.36821 0.47503 0.0
H286 H 0.12723 0.40496 0.32701 0.0
H287 H 0.10233 0.36077 0.30618 0.0
H288 H 0.08696 0.38858 0.21283 0.0
O289 O 0.07923 0.36196 0.41385 0.0
O290 O 0.06878 0.37479 0.36319 0.0
O291 O 0.10069 0.40356 0.34283 0.0
C292 C 0.06605 0.36229 0.392 0.0
H293 H 0.07677 0.40455 0.60106 0.0
H294 H 0.10281 0.35852 0.15841 0.0
H295 H 0.15543 0.41026 0.35528 0.0
H296 H 0.13394 0.37267 0.50522 0.0
Co297 Co 0.70068 0.97405 0.39411 0.0
C298 C 0.69766 0.97255 0.55894 0.0
C299 C 0.681 0.97846 0.5076 0.0
C300 C 0.67963 0.97874 0.58427 0.0
N301 N 0.69224 0.9745 0.49185 0.0
N302 N 0.69018 0.9751 0.61659 0.0
H303 H 0.70709 0.96956 0.56527 0.0
H304 H 0.67467 0.98145 0.46648 0.0
C305 C 0.66875 0.95832 0.2987 0.0
O306 O 0.67291 0.94895 0.27152 0.0
N307 N 0.70954 0.97419 0.29508 0.0
C308 C 0.72356 0.97404 0.27969 0.0
C309 C 0.72575 0.97485 0.20352 0.0
C310 C 0.70415 0.97616 0.22757 0.0
N311 N 0.71341 0.97602 0.17048 0.0
C312 C 0.70468 0.9487 0.40707 0.0
C313 C 0.67134 0.92737 0.4346 0.0
C314 C 0.68279 0.92268 0.42605 0.0
C315 C 0.69974 0.93362 0.41435 0.0
C316 C 0.67686 0.94265 0.42655 0.0
N317 N 0.69314 0.95293 0.40819 0.0
H318 H 0.71786 0.95699 0.40202 0.0
H319 H 0.66798 0.94619 0.4343 0.0
H320 H 0.73219 0.97403 0.32058 0.0
H321 H 0.69376 0.97783 0.22006 0.0
O322 O 0.72302 0.98334 0.43891 0.0
O323 O 0.71169 0.99573 0.39099 0.0
O324 O 0.67835 0.96863 0.34704 0.0
C325 C 0.72437 0.99621 0.42563 0.0
H326 H 0.67198 0.982 0.61393 0.0
H327 H 0.73595 0.97498 0.17503 0.0
H328 H 0.65822 0.9193 0.44584 0.0
H329 H 0.70915 0.93055 0.4115 0.0
Co330 Co 0.09331 0.77915 0.39838 0.0
C331 C 0.09352 0.77722 0.56365 0.0
C332 C 0.09224 0.75802 0.51013 0.0
C333 C 0.09175 0.7562 0.58664 0.0
N334 N 0.09338 0.77121 0.49589 0.0
N335 N 0.09251 0.76826 0.62046 0.0
H336 H 0.09389 0.78775 0.57083 0.0
H337 H 0.09156 0.75016 0.46788 0.0
C338 C 0.11652 0.77423 0.30596 0.0
O339 O 0.12347 0.78816 0.28223 0.0
N340 N 0.09278 0.7868 0.29943 0.0
C341 C 0.09498 0.80028 0.28128 0.0
C342 C 0.09371 0.80082 0.20456 0.0
C343 C 0.08952 0.77914 0.23309 0.0
N344 N 0.09042 0.78756 0.17398 0.0
C345 C 0.11437 0.81044 0.4433 0.0
C346 C 0.14419 0.81096 0.45735 0.0
C347 C 0.14466 0.82463 0.46452 0.0
C348 C 0.12931 0.82408 0.46086 0.0
C349 C 0.12884 0.7975 0.44135 0.0
N350 N 0.11445 0.79761 0.42781 0.0
H351 H 0.10271 0.81025 0.44201 0.0
H352 H 0.12869 0.78705 0.43929 0.0
H353 H 0.09724 0.80922 0.32003 0.0
H354 H 0.08672 0.76764 0.22832 0.0
O355 O 0.0775 0.78437 0.43382 0.0
O356 O 0.07058 0.76248 0.37915 0.0
O357 O 0.10514 0.76931 0.35529 0.0
C358 C 0.06573 0.77086 0.41055 0.0
H359 H 0.09092 0.74669 0.61494 0.0
H360 H 0.0955 0.81045 0.17378 0.0
H361 H 0.15555 0.81063 0.46216 0.0
H362 H 0.12881 0.83413 0.47097 0.0
Co363 Co 0.29376 0.37704 0.44071 0.0
C364 C 0.29557 0.37913 0.60638 0.0
C365 C 0.31978 0.39364 0.55873 0.0
C366 C 0.32171 0.39477 0.63566 0.0
N367 N 0.3034 0.38391 0.54058 0.0
N368 N 0.30649 0.38561 0.6657 0.0
H369 H 0.2822 0.37097 0.61047 0.0
H370 H 0.32972 0.3992 0.51885 0.0
C371 C 0.30919 0.40627 0.35511 0.0
O372 O 0.29465 0.4021 0.3219 0.0
N373 N 0.28428 0.36992 0.33947 0.0
C374 C 0.26854 0.35853 0.31975 0.0
C375 C 0.26713 0.3568 0.24304 0.0
C376 C 0.29243 0.37438 0.27392 0.0
N377 N 0.28211 0.36689 0.21392 0.0
C378 C 0.26062 0.3705 0.47176 0.0
C379 C 0.26884 0.40012 0.48832 0.0
C380 C 0.25182 0.38842 0.48885 0.0
C381 C 0.24785 0.37342 0.48283 0.0
C382 C 0.28124 0.39665 0.47742 0.0
N383 N 0.2769 0.38204 0.46354 0.0
H384 H 0.25732 0.35889 0.46991 0.0
H385 H 0.29428 0.40576 0.48038 0.0
H386 H 0.25877 0.35145 0.3577 0.0
H387 H 0.30564 0.38303 0.27018 0.0
O388 O 0.28221 0.35628 0.47379 0.0
O389 O 0.30777 0.36885 0.42665 0.0
O390 O 0.31029 0.39788 0.40362 0.0
C391 C 0.29573 0.35645 0.45517 0.0
H392 H 0.33353 0.40144 0.66687 0.0
H393 H 0.25596 0.34847 0.21141 0.0
H394 H 0.27255 0.41184 0.49639 0.0
H395 H 0.23493 0.36396 0.48469 0.0
Co396 Co 0.33353 0.1091 0.78287 0.0
C397 C 0.33661 0.11 0.6158 0.0
C398 C 0.3537 0.10504 0.6697 0.0
C399 C 0.35493 0.10409 0.59329 0.0
N400 N 0.34261 0.10927 0.68439 0.0
N401 N 0.34414 0.10721 0.5592 0.0
H402 H 0.32594 0.11119 0.60685 0.0
H403 H 0.35993 0.10208 0.71148 0.0
C404 C 0.37073 0.12449 0.81887 0.0
O405 O 0.37437 0.13287 0.75933 0.0
N406 N 0.32438 0.1084 0.88031 0.0
C407 C 0.31295 0.11205 0.897 0.0
C408 C 0.31113 0.11153 0.97361 0.0
C409 C 0.3293 0.10562 0.94667 0.0
N410 N 0.32148 0.10754 1.00503 0.0
C411 C 0.33311 0.13424 0.72151 0.0
C412 C 0.35392 0.1554 0.83026 0.0
C413 C 0.34757 0.15985 0.77119 0.0
C414 C 0.33699 0.14909 0.71656 0.0
C415 C 0.34999 0.14045 0.83217 0.0
N416 N 0.34018 0.13019 0.77659 0.0
H417 H 0.32379 0.12592 0.68288 0.0
H418 H 0.35442 0.13705 0.8797 0.0
H419 H 0.30682 0.1154 0.85656 0.0
H420 H 0.33859 0.10246 0.95208 0.0
O421 O 0.31132 0.09966 0.73671 0.0
O422 O 0.3231 0.08746 0.78208 0.0
O423 O 0.35548 0.11473 0.83427 0.0
C424 C 0.31042 0.08688 0.74698 0.0
H425 H 0.36286 0.10094 0.56536 0.0
H426 H 0.30327 0.11447 1.00383 0.0
H427 H 0.36176 0.16337 0.87466 0.0
H428 H 0.33124 0.152 0.67203 0.0
Co429 Co 0.9371 0.32729 0.67219 0.0
C430 C 0.93732 0.32439 0.83729 0.0
C431 C 0.96097 0.33007 0.79106 0.0
C432 C 0.96239 0.33006 0.86799 0.0
N433 N 0.94522 0.32642 0.77179 0.0
N434 N 0.94756 0.32659 0.89709 0.0
H435 H 0.92451 0.32179 0.84109 0.0
H436 H 0.97101 0.33327 0.75234 0.0
C437 C 0.95216 0.31283 0.58089 0.0
O438 O 0.93733 0.30314 0.54982 0.0
N439 N 0.92932 0.32887 0.57164 0.0
C440 C 0.916 0.33019 0.55462 0.0
C441 C 0.9148 0.33125 0.47829 0.0
C442 C 0.93664 0.3302 0.50485 0.0
N443 N 0.92772 0.33111 0.44678 0.0
C444 C 0.90343 0.3011 0.66232 0.0
C445 C 0.91191 0.28028 0.70225 0.0
C446 C 0.89515 0.27516 0.68198 0.0
C447 C 0.8909 0.28577 0.66292 0.0
C448 C 0.92411 0.29572 0.69957 0.0
N449 N 0.91992 0.30585 0.67651 0.0
H450 H 0.89973 0.3091 0.6517 0.0
H451 H 0.93702 0.29952 0.71511 0.0
H452 H 0.90776 0.33068 0.59471 0.0
H453 H 0.94838 0.33074 0.49825 0.0
O454 O 0.9249 0.33554 0.71694 0.0
O455 O 0.95126 0.34902 0.67839 0.0
O456 O 0.95389 0.32294 0.62809 0.0
C457 C 0.93875 0.34871 0.71133 0.0
H458 H 0.97376 0.33318 0.90009 0.0
H459 H 0.90529 0.33231 0.44857 0.0
H460 H 0.91559 0.2724 0.71858 0.0
H461 H 0.87794 0.28225 0.6498 0.0
Co462 Co 0.77315 0.72764 0.74983 0.0
C463 C 0.77119 0.72589 0.58368 0.0
C464 C 0.7469 0.71189 0.63156 0.0
C465 C 0.74487 0.71119 0.55475 0.0
N466 N 0.76339 0.72106 0.64965 0.0
N467 N 0.76012 0.72006 0.52445 0.0
H468 H 0.78457 0.73398 0.57954 0.0
H469 H 0.73694 0.70645 0.67138 0.0
C470 C 0.7536 0.69921 0.84137 0.0
O471 O 0.76705 0.70232 0.88132 0.0
N472 N 0.78279 0.73449 0.85094 0.0
C473 C 0.79922 0.74312 0.87205 0.0
C474 C 0.80049 0.74525 0.94864 0.0
C475 C 0.77432 0.73209 0.91521 0.0
N476 N 0.78484 0.73819 0.97609 0.0
C477 C 0.80433 0.73 0.71675 0.0
C478 C 0.79257 0.69942 0.71839 0.0
C479 C 0.80997 0.70979 0.71314 0.0
C480 C 0.81566 0.72523 0.70896 0.0
C481 C 0.78164 0.70471 0.72474 0.0
N482 N 0.78775 0.71989 0.73021 0.0
H483 H 0.80903 0.74192 0.71305 0.0
H484 H 0.7683 0.69649 0.72533 0.0
H485 H 0.80972 0.74777 0.83522 0.0
H486 H 0.76071 0.72583 0.91734 0.0
O487 O 0.78721 0.74808 0.71435 0.0
O488 O 0.7617 0.7384 0.76032 0.0
O489 O 0.75451 0.70775 0.78844 0.0
C490 C 0.77475 0.74979 0.73027 0.0
H491 H 0.73298 0.70471 0.52388 0.0
H492 H 0.81215 0.75123 0.98156 0.0
H493 H 0.7874 0.68734 0.71947 0.0
H494 H 0.82881 0.73364 0.70035 0.0
Co495 Co 0.38103 0.31507 0.7013 0.0
C496 C 0.37644 0.31263 0.86738 0.0
C497 C 0.36634 0.32476 0.8158 0.0
C498 C 0.36525 0.32561 0.89224 0.0
N499 N 0.37315 0.31643 0.7998 0.0
N500 N 0.37166 0.31801 0.92502 0.0
H501 H 0.38282 0.30662 0.87476 0.0
H502 H 0.36311 0.33045 0.77465 0.0
C503 C 0.34385 0.30233 0.67821 0.0
O504 O 0.34072 0.29588 0.7437 0.0
N505 N 0.38904 0.31417 0.60347 0.0
C506 C 0.40102 0.31114 0.58779 0.0
C507 C 0.40264 0.31122 0.5111 0.0
C508 C 0.38351 0.31605 0.53649 0.0
N509 N 0.39157 0.31424 0.47897 0.0
C510 C 0.38404 0.29114 0.75946 0.0
C511 C 0.35694 0.26755 0.68102 0.0
C512 C 0.36657 0.26435 0.72963 0.0
C513 C 0.38042 0.27644 0.76832 0.0
C514 C 0.36118 0.2825 0.67298 0.0
N515 N 0.37413 0.29403 0.71461 0.0
H516 H 0.39516 0.30023 0.7878 0.0
H517 H 0.35429 0.28469 0.63133 0.0
H518 H 0.40794 0.30884 0.62914 0.0
H519 H 0.37389 0.31878 0.52987 0.0
O520 O 0.40365 0.32488 0.74381 0.0
O521 O 0.39187 0.33672 0.69467 0.0
O522 O 0.35879 0.30957 0.65353 0.0
C523 C 0.4047 0.33758 0.72964 0.0
H524 H 0.36086 0.33205 0.92115 0.0
H525 H 0.41103 0.30887 0.48126 0.0
H526 H 0.3463 0.25864 0.64876 0.0
H527 H 0.38875 0.27469 0.80368 0.0
Co528 Co 0.77255 0.11127 0.72142 0.0
C529 C 0.77049 0.11075 0.55559 0.0
C530 C 0.74625 0.10231 0.60321 0.0
C531 C 0.74435 0.10149 0.52625 0.0
N532 N 0.76266 0.10826 0.62154 0.0
N533 N 0.75958 0.10672 0.49648 0.0
H534 H 0.78387 0.11532 0.55097 0.0
H535 H 0.73626 0.09842 0.64276 0.0
C536 C 0.75298 0.12106 0.81512 0.0
O537 O 0.76675 0.13126 0.85211 0.0
N538 N 0.78239 0.11399 0.82208 0.0
C539 C 0.79884 0.12167 0.84302 0.0
C540 C 0.80024 0.12104 0.91944 0.0
C541 C 0.77405 0.10823 0.8863 0.0
N542 N 0.78464 0.11267 0.9472 0.0
C543 C 0.80323 0.13868 0.6873 0.0
C544 C 0.79066 0.15749 0.68786 0.0
C545 C 0.80797 0.16377 0.67952 0.0
C546 C 0.81415 0.15413 0.6767 0.0
C547 C 0.78012 0.14189 0.69672 0.0
N548 N 0.78666 0.13285 0.70237 0.0
H549 H 0.80826 0.13145 0.68416 0.0
H550 H 0.76673 0.13719 0.69821 0.0
H551 H 0.80931 0.12736 0.80629 0.0
H552 H 0.76047 0.1011 0.88816 0.0
O553 O 0.78704 0.1047 0.68426 0.0
O554 O 0.76168 0.08968 0.73034 0.0
O555 O 0.75365 0.11305 0.76209 0.0
C556 C 0.77488 0.09106 0.69913 0.0
H557 H 0.73259 0.0969 0.49458 0.0
H558 H 0.81197 0.1267 0.95177 0.0
H559 H 0.78534 0.16457 0.68682 0.0
H560 H 0.82741 0.15853 0.66834 0.0
Co561 Co 0.94435 0.67572 0.68455 0.0
C562 C 0.94592 0.67805 0.8504 0.0
C563 C 0.96801 0.69656 0.80229 0.0
C564 C 0.96991 0.69801 0.87915 0.0
N565 N 0.95294 0.6841 0.78438 0.0
N566 N 0.95606 0.68631 0.90966 0.0
H567 H 0.93389 0.66755 0.85454 0.0
H568 H 0.97717 0.70392 0.76238 0.0
C569 C 0.95357 0.70371 0.59756 0.0
O570 O 0.93829 0.69704 0.56731 0.0
N571 N 0.93622 0.66712 0.58337 0.0
C572 C 0.92316 0.65315 0.56381 0.0
C573 C 0.92238 0.65127 0.48714 0.0
C574 C 0.94383 0.67307 0.51792 0.0
N575 N 0.93535 0.66387 0.45793 0.0
C576 C 0.90888 0.66511 0.69495 0.0
C577 C 0.91392 0.69301 0.73516 0.0
C578 C 0.89746 0.68079 0.72083 0.0
C579 C 0.89495 0.66662 0.70197 0.0
C580 C 0.92745 0.69106 0.72602 0.0
N581 N 0.9249 0.67744 0.70198 0.0
H582 H 0.9067 0.65401 0.68487 0.0
H583 H 0.94006 0.70062 0.73731 0.0
H584 H 0.91512 0.64447 0.6021 0.0
H585 H 0.95573 0.68369 0.51439 0.0
O586 O 0.93633 0.65566 0.72253 0.0
O587 O 0.96159 0.67115 0.6762 0.0
O588 O 0.95754 0.69677 0.64404 0.0
C589 C 0.95127 0.65836 0.70729 0.0
H590 H 0.98078 0.70698 0.90982 0.0
H591 H 0.91298 0.64127 0.45584 0.0
H592 H 0.91635 0.70408 0.75129 0.0
H593 H 0.88234 0.65679 0.69348 0.0
H594 H 0.05009 0.45266 0.75464 0.0
H595 H 0.00321 0.44967 0.80131 0.0
H596 H 0.04461 0.4528 0.6207 0.0
H597 H -0.00218 0.44992 0.66752 0.0
H598 H 0.00427 0.46892 0.43087 0.0
H599 H 0.00874 0.46736 0.56392 0.0
H600 H 0.02601 0.43701 0.51616 0.0
H601 H 0.0214 0.43843 0.38246 0.0
C602 C 0.03854 0.4519 0.7365 0.0
C603 C 0.02717 0.45126 0.78932 0.0
C604 C 0.03538 0.45196 0.6595 0.0
C605 C 0.02079 0.45143 0.63308 0.0
C606 C 0.00933 0.45061 0.6858 0.0
C607 C 0.01246 0.45051 0.7628 0.0
C608 C 0.00879 0.46172 0.44821 0.0
C609 C 0.0124 0.45377 0.39497 0.0
C610 C 0.01138 0.46084 0.52499 0.0
C611 C 0.01772 0.45204 0.55108 0.0
C612 C 0.02131 0.44406 0.49812 0.0
C613 C 0.01866 0.44488 0.42118 0.0
H614 H 0.57931 0.64559 0.68293 0.0
H615 H 0.63222 0.67743 0.73205 0.0
H616 H 0.58506 0.64623 0.55033 0.0
H617 H 0.63799 0.67812 0.5989 0.0
H618 H 0.64416 0.66327 0.36462 0.0
H619 H 0.63855 0.66268 0.49778 0.0
H620 H 0.59323 0.66263 0.44439 0.0
H621 H 0.59883 0.66317 0.31136 0.0
C622 C 0.59216 0.65288 0.66552 0.0
C623 C 0.60528 0.66152 0.71855 0.0
C624 C 0.59546 0.65324 0.5892 0.0
C625 C 0.61198 0.66226 0.56362 0.0
C626 C 0.62514 0.67088 0.6166 0.0
C627 C 0.62183 0.6705 0.69308 0.0
C628 C 0.63305 0.66321 0.38129 0.0
C629 C 0.62194 0.66322 0.32703 0.0
C630 C 0.62984 0.66291 0.45775 0.0
C631 C 0.61544 0.66262 0.48207 0.0
C632 C 0.6043 0.6626 0.42778 0.0
C633 C 0.6075 0.66288 0.35129 0.0
H634 H 0.45175 0.06798 0.8194 0.0
H635 H 0.39851 0.04864 0.77295 0.0
H636 H 0.45719 0.07304 0.68669 0.0
H637 H 0.40402 0.05341 0.64061 0.0
H638 H 0.41936 0.04947 0.40053 0.0
H639 H 0.41376 0.04459 0.53312 0.0
H640 H 0.45572 0.08954 0.58961 0.0
H641 H 0.46117 0.09464 0.45726 0.0
C642 C 0.4412 0.06487 0.78143 0.0
C643 C 0.42466 0.05787 0.80781 0.0
C644 C 0.44434 0.06776 0.70513 0.0
C645 C 0.43103 0.0636 0.65308 0.0
C646 C 0.41453 0.05656 0.67912 0.0
C647 C 0.41138 0.05379 0.75539 0.0
C648 C 0.42731 0.05843 0.44077 0.0
C649 C 0.44078 0.07248 0.41733 0.0
C650 C 0.4241 0.05558 0.51704 0.0
C651 C 0.43434 0.06665 0.57193 0.0
C652 C 0.44775 0.08069 0.54876 0.0
C653 C 0.45088 0.0836 0.47257 0.0
H654 H 0.05688 0.66876 0.71938 0.0
H655 H 0.08182 0.64446 0.67547 0.0
H656 H 0.0514 0.66879 0.58528 0.0
H657 H 0.07627 0.64439 0.54182 0.0
H658 H 0.07975 0.66136 0.30409 0.0
H659 H 0.08478 0.66116 0.43817 0.0
H660 H 0.03507 0.65255 0.47984 0.0
H661 H 0.03009 0.65285 0.34545 0.0
C662 C 0.06107 0.66331 0.6813 0.0
C663 C 0.06989 0.65669 0.7085 0.0
C664 C 0.05791 0.66331 0.60426 0.0
C665 C 0.06345 0.65665 0.5524 0.0
C666 C 0.07211 0.6499 0.57978 0.0
C667 C 0.0753 0.64993 0.65667 0.0
C668 C 0.06981 0.65926 0.34163 0.0
C669 C 0.05448 0.65708 0.31368 0.0
C670 C 0.0727 0.65915 0.41876 0.0
C671 C 0.06033 0.65681 0.47014 0.0
C672 C 0.04499 0.65461 0.44216 0.0
C673 C 0.04212 0.65476 0.36499 0.0
H674 H 0.4227 0.43273 0.35237 0.0
H675 H 0.47598 0.4624 0.40277 0.0
H676 H 0.41696 0.43196 0.48551 0.0
H677 H 0.47027 0.4617 0.5354 0.0
H678 H 0.45553 0.44504 0.7742 0.0
H679 H 0.46123 0.44545 0.64119 0.0
H680 H 0.41728 0.44759 0.5869 0.0
H681 H 0.41154 0.44705 0.71983 0.0
C682 C 0.43319 0.43915 0.39161 0.0
C683 C 0.44982 0.44757 0.36648 0.0
C684 C 0.4299 0.43873 0.46813 0.0
C685 C 0.44315 0.44676 0.5215 0.0
C686 C 0.45976 0.45515 0.49627 0.0
C687 C 0.46305 0.45554 0.41993 0.0
C688 C 0.4472 0.44577 0.73396 0.0
C689 C 0.43308 0.44602 0.75781 0.0
C690 C 0.45044 0.44598 0.65754 0.0
C691 C 0.43969 0.44651 0.603 0.0
C692 C 0.42566 0.4469 0.62704 0.0
C693 C 0.42239 0.44663 0.70338 0.0
H694 H 0.59568 0.00176 0.72289 0.0
H695 H 0.62966 0.04948 0.77168 0.0
H696 H 0.60174 0.00602 0.59022 0.0
H697 H 0.6354 0.05394 0.63865 0.0
H698 H 0.65434 0.05485 0.40532 0.0
H699 H 0.64883 0.05043 0.53732 0.0
H700 H 0.59678 0.01638 0.48339 0.0
H701 H 0.60252 0.02006 0.3509 0.0
C702 C 0.60437 0.01319 0.70503 0.0
C703 C 0.61219 0.02528 0.75765 0.0
C704 C 0.60779 0.01567 0.62885 0.0
C705 C 0.61898 0.03036 0.60316 0.0
C706 C 0.62691 0.04244 0.65616 0.0
C707 C 0.62363 0.03991 0.73252 0.0
C708 C 0.64174 0.04627 0.42097 0.0
C709 C 0.62895 0.03774 0.36625 0.0
C710 C 0.63852 0.04388 0.49733 0.0
C711 C 0.62236 0.03302 0.52156 0.0
C712 C 0.60948 0.02467 0.46708 0.0
C713 C 0.61274 0.02694 0.39059 0.0
H714 H 0.70393 0.80661 0.74088 0.0
H715 H 0.67309 0.75869 0.78389 0.0
H716 H 0.70809 0.81208 0.87438 0.0
H717 H 0.67818 0.76418 0.91723 0.0
H718 H 0.67688 0.77941 0.15601 0.0
H719 H 0.67177 0.77391 0.02186 0.0
H720 H 0.72243 0.81096 0.98118 0.0
H721 H 0.72726 0.81665 0.11536 0.0
C722 C 0.69801 0.79717 0.77815 0.0
C723 C 0.68817 0.78213 0.75009 0.0
C724 C 0.70062 0.80034 0.85543 0.0
C725 C 0.69359 0.7886 0.90733 0.0
C726 C 0.68367 0.77358 0.87946 0.0
C727 C 0.68093 0.77041 0.80224 0.0
C728 C 0.68696 0.78631 0.11846 0.0
C729 C 0.70249 0.79849 0.14657 0.0
C730 C 0.68405 0.78315 0.04125 0.0
C731 C 0.69666 0.79198 0.98994 0.0
C732 C 0.71226 0.80407 0.01839 0.0
C733 C 0.71509 0.80733 0.09554 0.0
H734 H 0.26018 0.97647 0.68645 0.0
H735 H 0.31096 0.98812 0.74181 0.0
H736 H 0.25406 0.97464 0.81911 0.0
H737 H 0.30515 0.98718 0.87418 0.0
H738 H 0.28492 0.97033 0.10586 0.0
H739 H 0.29034 0.97068 0.9726 0.0
H740 H 0.26017 0.99022 0.92828 0.0
H741 H 0.25449 0.98951 0.0613 0.0
C742 C 0.27004 0.97859 0.72662 0.0
C743 C 0.2861 0.98249 0.70286 0.0
C744 C 0.26659 0.97776 0.80302 0.0
C745 C 0.27913 0.98086 0.85775 0.0
C746 C 0.29511 0.98455 0.83391 0.0
C747 C 0.29852 0.98529 0.75764 0.0
C748 C 0.27956 0.9748 0.06765 0.0
C749 C 0.26926 0.97988 0.0942 0.0
C750 C 0.28266 0.97501 0.99115 0.0
C751 C 0.27567 0.98045 0.93928 0.0
C752 C 0.26549 0.98566 0.96614 0.0
C753 C 0.26228 0.98532 0.04254 0.0
H754 H 0.108 0.38277 0.67887 0.0
H755 H 0.07062 0.39447 0.71763 0.0
H756 H 0.10915 0.37869 0.81217 0.0
H757 H 0.0721 0.39067 0.85114 0.0
H758 H 0.09371 0.39779 0.09451 0.0
H759 H 0.09212 0.40194 0.96137 0.0
H760 H 0.09063 0.36065 0.90777 0.0
H761 H 0.09187 0.35626 0.04047 0.0
C762 C 0.09992 0.38438 0.71532 0.0
C763 C 0.08913 0.38889 0.68655 0.0
C764 C 0.10062 0.38206 0.79204 0.0
C765 C 0.09069 0.38432 0.84234 0.0
C766 C 0.08006 0.389 0.81402 0.0
C767 C 0.07924 0.3912 0.73717 0.0
C768 C 0.09284 0.38947 0.05472 0.0
C769 C 0.09298 0.37668 0.07909 0.0
C770 C 0.09197 0.39189 0.97814 0.0
C771 C 0.09134 0.38167 0.92389 0.0
C772 C 0.09138 0.36888 0.94806 0.0
C773 C 0.09212 0.36638 0.02449 0.0
H774 H 0.72358 0.96524 0.05741 0.0
H775 H 0.69611 0.98726 0.10146 0.0
H776 H 0.718 0.96504 0.92391 0.0
H777 H 0.69057 0.98711 0.96743 0.0
H778 H 0.66881 0.96969 0.7296 0.0
H779 H 0.67457 0.97021 0.86367 0.0
H780 H 0.72507 0.98121 0.81848 0.0
H781 H 0.71922 0.98056 0.68443 0.0
C782 C 0.71656 0.97025 0.03878 0.0
C783 C 0.71041 0.97634 0.09081 0.0
C784 C 0.71333 0.97012 0.96186 0.0
C785 C 0.70385 0.97609 0.93448 0.0
C786 C 0.69771 0.98222 0.98639 0.0
C787 C 0.70093 0.98233 0.0635 0.0
C788 C 0.68116 0.97229 0.74826 0.0
C789 C 0.69352 0.97505 0.69599 0.0
C790 C 0.6845 0.97264 0.82529 0.0
C791 C 0.70031 0.97578 0.85226 0.0
C792 C 0.71266 0.97851 0.79991 0.0
C793 C 0.7093 0.97812 0.72284 0.0
H794 H 0.10381 0.79515 0.69443 0.0
H795 H 0.07975 0.74707 0.72882 0.0
H796 H 0.10271 0.7993 0.82825 0.0
H797 H 0.07871 0.75125 0.86251 0.0
H798 H 0.09616 0.76693 0.10846 0.0
H799 H 0.09651 0.76207 0.97477 0.0
H800 H 0.0829 0.79489 0.92498 0.0
H801 H 0.08258 0.79976 0.05835 0.0
C802 C 0.09815 0.78543 0.73017 0.0
C803 C 0.09188 0.77077 0.70014 0.0
C804 C 0.09752 0.78782 0.8072 0.0
C805 C 0.0906 0.77561 0.85653 0.0
C806 C 0.08436 0.76095 0.82658 0.0
C807 C 0.08497 0.75856 0.74957 0.0
C808 C 0.09305 0.773 0.0692 0.0
C809 C 0.08947 0.78385 0.09477 0.0
C810 C 0.09326 0.77021 0.99225 0.0
C811 C 0.08988 0.77818 0.9387 0.0
C812 C 0.08593 0.78877 0.96435 0.0
C813 C 0.08572 0.79155 0.04114 0.0
H814 H 0.2806 0.36049 0.72781 0.0
H815 H 0.32439 0.40455 0.78326 0.0
H816 H 0.27499 0.35582 0.86063 0.0
H817 H 0.3188 0.39988 0.91605 0.0
H818 H 0.31291 0.37998 0.15015 0.0
H819 H 0.31895 0.38445 0.01729 0.0
H820 H 0.26586 0.36432 0.96573 0.0
H821 H 0.25983 0.3599 0.09775 0.0
C822 C 0.28895 0.36925 0.76813 0.0
C823 C 0.30295 0.38291 0.74446 0.0
C824 C 0.28575 0.36656 0.84449 0.0
C825 C 0.29645 0.37746 0.89926 0.0
C826 C 0.31045 0.39112 0.8756 0.0
C827 C 0.31364 0.39381 0.79927 0.0
C828 C 0.30253 0.37656 0.11064 0.0
C829 C 0.28585 0.36945 0.13518 0.0
C830 C 0.30599 0.37914 0.03431 0.0
C831 C 0.29288 0.37468 0.98058 0.0
C832 C 0.27624 0.36763 1.00519 0.0
C833 C 0.27279 0.36507 0.08127 0.0
H834 H 0.35043 0.0927 0.44816 0.0
H835 H 0.32987 0.12085 0.48746 0.0
H836 H 0.3448 0.09234 0.31421 0.0
H837 H 0.32409 0.12033 0.35359 0.0
H838 H 0.30052 0.10336 0.11869 0.0
H839 H 0.30585 0.10299 0.25236 0.0
H840 H 0.35433 0.1092 0.20683 0.0
H841 H 0.34911 0.10973 0.07309 0.0
C842 C 0.34481 0.0989 0.42857 0.0
C843 C 0.34062 0.1068 0.47941 0.0
C844 C 0.34156 0.09868 0.35144 0.0
C845 C 0.33396 0.10629 0.32288 0.0
C846 C 0.32972 0.11414 0.37359 0.0
C847 C 0.33303 0.11442 0.45065 0.0
C848 C 0.31238 0.10476 0.13688 0.0
C849 C 0.32438 0.10665 0.08437 0.0
C850 C 0.31543 0.10454 0.21381 0.0
C851 C 0.33055 0.10613 0.24063 0.0
C852 C 0.34246 0.10777 0.18823 0.0
C853 C 0.33943 0.10805 0.11123 0.0
H854 H 0.9046 0.32143 0.3321 0.0
H855 H 0.95761 0.34032 0.38048 0.0
H856 H 0.90922 0.32027 0.19932 0.0
H857 H 0.96227 0.33926 0.24728 0.0
H858 H 0.9614 0.32013 0.01401 0.0
H859 H 0.95671 0.32153 0.14696 0.0
H860 H 0.92168 0.33544 0.09187 0.0
H861 H 0.92627 0.33385 0.95885 0.0
C862 C 0.9173 0.32556 0.31449 0.0
C863 C 0.93072 0.33102 0.3675 0.0
C864 C 0.91996 0.32488 0.23802 0.0
C865 C 0.93612 0.32966 0.21216 0.0
C866 C 0.94959 0.33524 0.26507 0.0
C867 C 0.94692 0.33589 0.34168 0.0
C868 C 0.95272 0.32352 0.03031 0.0
C869 C 0.94418 0.32684 0.97565 0.0
C870 C 0.95008 0.32438 0.10666 0.0
C871 C 0.93886 0.32866 0.13055 0.0
C872 C 0.93023 0.33189 0.07574 0.0
C873 C 0.93283 0.33096 0.9993 0.0
H874 H 0.80389 0.75654 0.09356 0.0
H875 H 0.7561 0.71574 0.03774 0.0
H876 H 0.79786 0.75245 0.2262 0.0
H877 H 0.75004 0.71169 0.1706 0.0
H878 H 0.73824 0.71713 0.41295 0.0
H879 H 0.74386 0.72193 0.28056 0.0
H880 H 0.79557 0.7351 0.3231 0.0
H881 H 0.78994 0.73018 0.45591 0.0
C882 C 0.79211 0.74667 0.10937 0.0
C883 C 0.78056 0.73642 0.05445 0.0
C884 C 0.78866 0.74431 0.18567 0.0
C885 C 0.77353 0.73167 0.20935 0.0
C886 C 0.76176 0.72163 0.15447 0.0
C887 C 0.76523 0.72397 0.07806 0.0
C888 C 0.75078 0.72089 0.39436 0.0
C889 C 0.7636 0.72316 0.44572 0.0
C890 C 0.75401 0.72367 0.3181 0.0
C891 C 0.77016 0.72887 0.29089 0.0
C892 C 0.78303 0.73129 0.34217 0.0
C893 C 0.77979 0.72846 0.41852 0.0
H894 H 0.35663 0.32353 0.03998 0.0
H895 H 0.39241 0.31024 0.99345 0.0
H896 H 0.36173 0.32309 0.17324 0.0
H897 H 0.39664 0.30886 0.12666 0.0
H898 H 0.41434 0.32312 0.36925 0.0
H899 H 0.40941 0.324 0.23546 0.0
H900 H 0.35692 0.30722 0.27486 0.0
H901 H 0.36209 0.3068 0.40886 0.0
C902 C 0.36556 0.32047 0.05768 0.0
C903 C 0.37414 0.31703 1.00476 0.0
C904 C 0.36832 0.32001 0.13468 0.0
C905 C 0.37963 0.31595 0.16137 0.0
C906 C 0.38804 0.31229 0.1086 0.0
C907 C 0.3854 0.31288 0.03157 0.0
C908 C 0.40175 0.31958 0.34921 0.0
C909 C 0.38862 0.3149 0.39978 0.0
C910 C 0.39887 0.32001 0.27232 0.0
C911 C 0.38273 0.31562 0.2437 0.0
C912 C 0.36959 0.31094 0.29454 0.0
C913 C 0.37253 0.31066 0.37156 0.0
H914 H 0.7453 0.11334 0.38271 0.0
H915 H 0.78163 0.10084 0.4325 0.0
H916 H 0.75098 0.11396 0.24967 0.0
H917 H 0.78685 0.10067 0.29916 0.0
H918 H 0.80566 0.11725 0.06639 0.0
H919 H 0.79951 0.1158 0.19778 0.0
H920 H 0.7475 0.09999 0.1409 0.0
H921 H 0.75397 0.1026 1.00884 0.0
C922 C 0.7544 0.11057 0.36483 0.0
C923 C 0.76311 0.10714 0.41791 0.0
C924 C 0.75759 0.1108 0.28839 0.0
C925 C 0.76938 0.10733 0.26273 0.0
C926 C 0.77795 0.10373 0.31627 0.0
C927 C 0.77496 0.10378 0.39288 0.0
C928 C 0.79292 0.1136 0.08125 0.0
C929 C 0.78042 0.11026 0.02576 0.0
C930 C 0.7893 0.11254 0.15741 0.0
C931 C 0.77299 0.10783 0.18095 0.0
C932 C 0.76032 0.10397 0.12552 0.0
C933 C 0.76399 0.10525 0.04915 0.0
H934 H 0.956 0.69131 0.39532 0.0
H935 H 0.92307 0.6436 0.33977 0.0
H936 H 0.96108 0.69664 0.26294 0.0
H937 H 0.92801 0.64905 0.20752 0.0
H938 H 0.92609 0.66758 0.9759 0.0
H939 H 0.92145 0.662 0.10857 0.0
H940 H 0.97471 0.69205 0.15672 0.0
H941 H 0.97949 0.69745 0.02445 0.0
C942 C 0.94993 0.68191 0.35544 0.0
C943 C 0.93903 0.66699 0.37927 0.0
C944 C 0.95284 0.68499 0.2792 0.0
C945 C 0.94487 0.67328 0.22455 0.0
C946 C 0.93413 0.65837 0.2481 0.0
C947 C 0.9313 0.65526 0.32433 0.0
C948 C 0.93687 0.67291 0.01435 0.0
C949 C 0.95319 0.68303 0.98859 0.0
C950 C 0.93419 0.66971 0.09064 0.0
C951 C 0.94771 0.6766 0.14331 0.0
C952 C 0.96399 0.68671 0.1178 0.0
C953 C 0.9667 0.68984 0.04158 0.0
H954 H 0.05537 0.58942 0.93691 0.0
H955 H 0.06758 0.60011 0.17314 0.0
H956 H 0.05376 0.5656 0.95292 0.0
H957 H 0.06724 0.57669 0.18811 0.0
H958 H 0.04171 0.52454 0.19981 0.0
H959 H 0.04761 0.5503 0.19118 0.0
H960 H 0.06931 0.55415 0.97423 0.0
H961 H 0.06256 0.52811 0.98191 0.0
C962 C 0.05778 0.58673 0.99231 0.0
C963 C 0.06139 0.59663 0.0539 0.0
C964 C 0.05718 0.57315 1.00126 0.0
C965 C 0.06044 0.5692 0.07183 0.0
C966 C 0.06447 0.57927 0.13314 0.0
C967 C 0.06487 0.5928 0.12434 0.0
C968 C 0.04801 0.53105 0.15105 0.0
C969 C 0.0516 0.52442 0.09128 0.0
C970 C 0.05145 0.54582 0.14604 0.0
C971 C 0.05875 0.55427 0.0815 0.0
C972 C 0.06328 0.54785 0.02385 0.0
C973 C 0.05957 0.53302 0.02837 0.0
H974 H 0.50425 0.51396 0.933 0.0
H975 H 0.47594 0.52382 0.08693 0.0
H976 H 0.52572 0.5409 0.92846 0.0
H977 H 0.4974 0.5509 0.08178 0.0
H978 H 0.55162 0.59208 0.13667 0.0
H979 H 0.52752 0.56611 0.12966 0.0
H980 H 0.5307 0.56589 0.88864 0.0
H981 H 0.55463 0.592 0.89525 0.0
C982 C 0.50254 0.52195 0.96501 0.0
C983 C 0.48856 0.51687 0.0108 0.0
C984 C 0.51475 0.53736 0.96204 0.0
C985 C 0.51327 0.54795 1.00522 0.0
C986 C 0.49891 0.54293 0.04859 0.0
C987 C 0.48659 0.5275 0.05102 0.0
C988 C 0.54706 0.58658 0.08207 0.0
C989 C 0.55511 0.5941 0.01656 0.0
C990 C 0.53323 0.57172 0.07809 0.0
C991 C 0.52721 0.56403 1.00858 0.0
C992 C 0.53518 0.57153 0.94301 0.0
C993 C 0.54895 0.58643 0.94691 0.0
H994 H 0.55233 0.03368 0.19828 0.0
H995 H 0.57951 0.06936 0.04093 0.0
H996 H 0.52981 0.03895 0.19826 0.0
H997 H 0.55706 0.07485 0.04191 0.0
H998 H 0.50193 0.06298 0.98891 0.0
H999 H 0.52706 0.06132 0.99538 0.0
H1000 H 0.52388 0.05857 0.23632 0.0
H1001 H 0.49892 0.06036 0.23008 0.0
C1002 C 0.55354 0.04275 0.16426 0.0
C1003 C 0.56761 0.05105 0.11931 0.0
C1004 C 0.54072 0.04586 0.16468 0.0
C1005 C 0.54165 0.05729 0.11986 0.0
C1006 C 0.55594 0.06589 0.07645 0.0
C1007 C 0.56885 0.06285 0.07649 0.0
C1008 C 0.50674 0.06224 0.0433 0.0
C1009 C 0.49828 0.06157 0.10884 0.0
C1010 C 0.52115 0.06132 0.04702 0.0
C1011 C 0.52735 0.05969 0.11634 0.0
C1012 C 0.51921 0.05954 0.182 0.0
C1013 C 0.50488 0.0605 0.17833 0.0
H1014 H 0.67414 0.8415 0.57945 0.0
H1015 H 0.66577 0.83355 0.33976 0.0
H1016 H 0.6723 0.86395 0.56839 0.0
H1017 H 0.66288 0.85531 0.32978 0.0
H1018 H 0.69098 0.90738 0.32998 0.0
H1019 H 0.68484 0.8817 0.33973 0.0
H1020 H 0.65579 0.87551 0.53672 0.0
H1021 H 0.66244 0.90164 0.52792 0.0
C1022 C 0.67157 0.84434 0.52471 0.0
C1023 C 0.67039 0.83584 0.46042 0.0
C1024 C 0.67028 0.85709 0.51855 0.0
C1025 C 0.66768 0.86151 0.44801 0.0
C1026 C 0.66518 0.85233 0.38471 0.0
C1027 C 0.66663 0.83971 0.39071 0.0
C1028 C 0.68322 0.90052 0.37518 0.0
C1029 C 0.67736 0.90652 0.42872 0.0
C1030 C 0.6795 0.88572 0.38026 0.0
C1031 C 0.66978 0.87655 0.43894 0.0
C1032 C 0.66339 0.88236 0.49118 0.0
C1033 C 0.66709 0.89724 0.48588 0.0
H1034 H 0.15246 0.85164 0.40602 0.0
H1035 H 0.174 0.83124 0.54042 0.0
H1036 H 0.17869 0.876 0.41967 0.0
H1037 H 0.20074 0.8558 0.55014 0.0
H1038 H 0.24514 0.90334 0.41045 0.0
H1039 H 0.22212 0.87688 0.42613 0.0
H1040 H 0.19557 0.89223 0.55885 0.0
H1041 H 0.21848 0.91847 0.54444 0.0
C1042 C 0.16268 0.85231 0.43911 0.0
C1043 C 0.16093 0.83943 0.47308 0.0
C1044 C 0.17775 0.86626 0.44616 0.0
C1045 C 0.19156 0.86766 0.48613 0.0
C1046 C 0.19016 0.85487 0.51894 0.0
C1047 C 0.17489 0.84086 0.51298 0.0
C1048 C 0.23467 0.90097 0.44526 0.0
C1049 C 0.23337 0.91287 0.47519 0.0
C1050 C 0.22157 0.8859 0.4542 0.0
C1051 C 0.20715 0.8827 0.49316 0.0
C1052 C 0.2066 0.89452 0.52848 0.0
C1053 C 0.21963 0.90948 0.51993 0.0
H1054 H 0.22294 0.37369 0.56913 0.0
H1055 H 0.24973 0.41043 0.41648 0.0
H1056 H 0.19881 0.37668 0.56085 0.0
H1057 H 0.22582 0.41383 0.41057 0.0
H1058 H 0.17112 0.39801 0.33244 0.0
H1059 H 0.19773 0.3994 0.35349 0.0
H1060 H 0.18792 0.39268 0.58995 0.0
H1061 H 0.16118 0.39119 0.56866 0.0
C1062 C 0.22376 0.38254 0.53455 0.0
C1063 C 0.23818 0.3917 0.49274 0.0
C1064 C 0.20999 0.38437 0.53047 0.0
C1065 C 0.21033 0.39543 0.48457 0.0
C1066 C 0.22507 0.40507 0.44559 0.0
C1067 C 0.23885 0.40323 0.44967 0.0
C1068 C 0.17478 0.39712 0.38914 0.0
C1069 C 0.164 0.39441 0.44883 0.0
C1070 C 0.19007 0.39794 0.40127 0.0
C1071 C 0.19494 0.39611 0.47341 0.0
C1072 C 0.18441 0.39391 0.53353 0.0
C1073 C 0.16911 0.39305 0.52135 0.0
H1074 H 0.36969 0.25127 0.85616 0.0
H1075 H 0.35509 0.24187 0.62113 0.0
H1076 H 0.366 0.22646 0.867 0.0
H1077 H 0.34999 0.21657 0.63358 0.0
H1078 H 0.36028 0.17895 0.65503 0.0
H1079 H 0.36481 0.20423 0.6465 0.0
H1080 H 0.34609 0.20043 0.87034 0.0
H1081 H 0.34246 0.17547 0.87959 0.0
C1082 C 0.36559 0.24389 0.80683 0.0
C1083 C 0.36285 0.24867 0.73758 0.0
C1084 C 0.36322 0.22953 0.81337 0.0
C1085 C 0.35777 0.21949 0.7511 0.0
C1086 C 0.35453 0.2241 0.6824 0.0
C1087 C 0.35716 0.23855 0.67556 0.0
C1088 C 0.3573 0.18366 0.70242 0.0
C1089 C 0.35111 0.17541 0.768 0.0
C1090 C 0.35972 0.19805 0.69743 0.0
C1091 C 0.35567 0.20436 0.75748 0.0
C1092 C 0.34959 0.19606 0.82342 0.0
C1093 C 0.34746 0.18177 0.82881 0.0
H1094 H 0.88768 0.25506 0.79353 0.0
H1095 H 0.87327 0.25869 0.56732 0.0
H1096 H 0.86564 0.22803 0.79119 0.0
H1097 H 0.85142 0.23165 0.56458 0.0
H1098 H 0.83141 0.17929 0.57417 0.0
H1099 H 0.8523 0.20658 0.57386 0.0
H1100 H 0.8321 0.21258 0.77777 0.0
H1101 H 0.81104 0.18533 0.77746 0.0
C1102 C 0.87984 0.25003 0.74335 0.0
C1103 C 0.88209 0.25886 0.68063 0.0
C1104 C 0.86721 0.23466 0.74217 0.0
C1105 C 0.85689 0.22787 0.67775 0.0
C1106 C 0.85927 0.23667 0.61476 0.0
C1107 C 0.87168 0.25208 0.61645 0.0
C1108 C 0.83138 0.1865 0.6184 0.0
C1109 C 0.81966 0.18031 0.67573 0.0
C1110 C 0.84325 0.20205 0.61813 0.0
C1111 C 0.84378 0.21157 0.67598 0.0
C1112 C 0.83195 0.20541 0.73287 0.0
C1113 C 0.81987 0.1899 0.73236 0.0
H1114 H 0.80606 0.68359 0.65162 0.0
H1115 H 0.84161 0.72433 0.778 0.0
H1116 H 0.82578 0.67504 0.65899 0.0
H1117 H 0.86174 0.71641 0.77993 0.0
H1118 H 0.88982 0.69369 0.83437 0.0
H1119 H 0.86764 0.6994 0.83497 0.0
H1120 H 0.85136 0.6795 0.61183 0.0
H1121 H 0.87308 0.67318 0.61343 0.0
C1122 C 0.81806 0.69076 0.68082 0.0
C1123 C 0.82218 0.70469 0.71412 0.0
C1124 C 0.82949 0.68594 0.68418 0.0
C1125 C 0.84539 0.69499 0.72028 0.0
C1126 C 0.84952 0.70896 0.7529 0.0
C1127 C 0.83805 0.71367 0.75044 0.0
C1128 C 0.88134 0.69042 0.78594 0.0
C1129 C 0.88313 0.68305 0.72381 0.0
C1130 C 0.86871 0.69379 0.78587 0.0
C1131 C 0.8578 0.69013 0.72297 0.0
C1132 C 0.85935 0.68235 0.66161 0.0
C1133 C 0.87182 0.67876 0.6623 0.0
H1134 H 0.10676 0.42031 0.225 0.0
H1135 H 0.11154 0.44119 0.44214 0.0
H1136 H 0.09906 0.43713 0.16848 0.0
H1137 H 0.10369 0.45803 0.3854 0.0
H1138 H 0.08805 0.47107 0.07936 0.0
H1139 H 0.10646 0.46398 0.14122 0.0
H1140 H 0.07427 0.44905 0.33231 0.0
H1141 H 0.05592 0.456 0.27068 0.0
C1142 C 0.10668 0.42884 0.2602 0.0
C1143 C 0.10956 0.42936 0.338 0.0
C1144 C 0.10236 0.43853 0.22778 0.0
C1145 C 0.10062 0.44878 0.27273 0.0
C1146 C 0.10485 0.45015 0.34965 0.0
C1147 C 0.10943 0.44059 0.38198 0.0
C1148 C 0.08517 0.46661 0.1353 0.0
C1149 C 0.07045 0.46387 0.16988 0.0
C1150 C 0.09567 0.46254 0.17055 0.0
C1151 C 0.09178 0.45596 0.24145 0.0
C1152 C 0.0777 0.45425 0.27804 0.0
C1153 C 0.06709 0.45808 0.2424 0.0
H1154 H 0.63319 0.73682 0.43629 0.0
H1155 H 0.65666 0.77095 0.26878 0.0
H1156 H 0.61796 0.71749 0.33748 0.0
H1157 H 0.641 0.75192 0.17012 0.0
H1158 H 0.63965 0.71205 0.04279 0.0
H1159 H 0.64614 0.73321 0.12536 0.0
H1160 H 0.59832 0.7058 0.23226 0.0
H1161 H 0.59201 0.68436 0.15014 0.0
C1162 C 0.63455 0.74023 0.37843 0.0
C1163 C 0.64626 0.75521 0.35965 0.0
C1164 C 0.62581 0.72921 0.32173 0.0
C1165 C 0.62852 0.73312 0.24568 0.0
C1166 C 0.63895 0.74846 0.22791 0.0
C1167 C 0.64787 0.75936 0.28432 0.0
C1168 C 0.63031 0.71064 0.08252 0.0
C1169 C 0.61544 0.69651 0.09068 0.0
C1170 C 0.63398 0.72283 0.12977 0.0
C1171 C 0.62281 0.72117 0.18617 0.0
C1172 C 0.60729 0.70737 0.1902 0.0
C1173 C 0.60362 0.69513 0.14273 0.0
H1174 H 0.38774 0.00738 0.05319 0.0
H1175 H 0.40828 0.02514 0.27513 0.0
H1176 H 0.36031 0.9898 0.10551 0.0
H1177 H 0.38127 0.00694 0.32845 0.0
H1178 H 0.32869 -0.00252 0.37025 0.0
H1179 H 0.35701 0.00803 0.32897 0.0
H1180 H 0.34028 0.9693 0.17972 0.0
H1181 H 0.31127 0.9588 0.22004 0.0
C1182 C 0.38654 0.00701 0.11351 0.0
C1183 C 0.39997 0.01767 0.16025 0.0
C1184 C 0.37082 -0.00307 0.14365 0.0
C1185 C 0.36841 -0.0028 0.22116 0.0
C1186 C 0.38249 0.00675 0.26829 0.0
C1187 C 0.39803 0.01707 0.23801 0.0
C1188 C 0.33094 0.99103 0.32927 0.0
C1189 C 0.31761 0.97731 0.29814 0.0
C1190 C 0.34736 -0.00295 0.30605 0.0
C1191 C 0.35109 0.9895 0.25128 0.0
C1192 C 0.33786 0.97547 0.2217 0.0
C1193 C 0.32126 0.96942 0.24499 0.0
H1194 H 0.40048 0.08319 0.12112 0.0
H1195 H 0.44693 0.10838 1.00222 0.0
H1196 H 0.39013 0.0977 0.06324 0.0
H1197 H 0.43677 0.12357 0.94553 0.0
H1198 H 0.3986 0.12484 0.77335 0.0
H1199 H 0.41636 0.11914 0.8503 0.0
H1200 H 0.39089 0.12025 0.04813 0.0
H1201 H 0.37254 0.12497 0.97005 0.0
C1202 C 0.40869 0.09214 0.08396 0.0
C1203 C 0.42443 0.09452 0.06556 0.0
C1204 C 0.40281 0.10063 0.0511 0.0
C1205 C 0.41257 0.11184 0.99924 0.0
C1206 C 0.42882 0.11489 0.98439 0.0
C1207 C 0.43471 0.10628 0.01729 0.0
C1208 C 0.39718 0.12426 0.83355 0.0
C1209 C 0.38413 0.12509 0.86598 0.0
C1210 C 0.40738 0.12104 0.87786 0.0
C1211 C 0.40482 0.11887 0.95543 0.0
C1212 C 0.39287 0.12135 0.98837 0.0
C1213 C 0.38244 0.12417 0.94391 0.0
H1214 H 0.97995 0.43702 0.93164 0.0
H1215 H 0.98117 0.4051 0.08038 0.0
H1216 H 0.9611 0.41623 0.84491 0.0
H1217 H 0.962 0.3843 0.99435 0.0
H1218 H 0.92269 0.349 0.83607 0.0
H1219 H 0.93209 0.37039 0.924 0.0
H1220 H 0.97055 0.39979 0.77123 0.0
H1221 H 0.96145 0.37836 0.68417 0.0
C1222 C 0.97568 0.42551 0.94717 0.0
C1223 C 0.98206 0.42263 0.01252 0.0
C1224 C 0.96497 0.41366 0.89736 0.0
C1225 C 0.96017 0.39873 0.91304 0.0
C1226 C 0.96541 0.39572 0.98139 0.0
C1227 C 0.97641 0.4076 0.03044 0.0
C1228 C 0.93277 0.36014 0.82016 0.0
C1229 C 0.94141 0.36207 0.75352 0.0
C1230 C 0.93818 0.37233 0.87064 0.0
C1231 C 0.95203 0.38667 0.85429 0.0
C1232 C 0.95972 0.38886 0.78476 0.0
C1233 C 0.95457 0.37661 0.73508 0.0
H1234 H 0.74215 0.68865 0.98085 0.0
H1235 H 0.72688 0.68197 0.74697 0.0
H1236 H 0.71264 0.6728 0.01509 0.0
H1237 H 0.69751 0.66565 0.7805 0.0
H1238 H 0.65743 0.64141 0.05852 0.0
H1239 H 0.68552 0.64901 0.01568 0.0
H1240 H 0.67934 0.67274 0.83288 0.0
H1241 H 0.65141 0.6649 0.87423 0.0
C1242 C 0.73252 0.68334 0.93676 0.0
C1243 C 0.7367 0.68673 0.86144 0.0
C1244 C 0.7156 0.67422 0.95625 0.0
C1245 C 0.70266 0.66821 0.90054 0.0
C1246 C 0.70711 0.67044 0.82488 0.0
C1247 C 0.72393 0.67971 0.8056 0.0
C1248 C 0.66196 0.64795 1.00819 0.0
C1249 C 0.65224 0.65265 0.97012 0.0
C1250 C 0.6781 0.6524 0.98401 0.0
C1251 C 0.68475 0.66154 0.92103 0.0
C1252 C 0.6746 0.66552 0.88093 0.0
C1253 C 0.65857 0.66112 0.90508 0.0
H1254 H 0.99579 0.6338 0.03861 0.0
H1255 H 0.01978 0.63063 0.84114 0.0
H1256 H 0.9741 0.63373 0.96013 0.0
H1257 H -0.00248 0.62943 0.76229 0.0
H1258 H 0.97962 0.65959 0.66524 0.0
H1259 H 0.99382 0.6489 0.72871 0.0
H1260 H 0.95126 0.62428 0.87258 0.0
H1261 H 0.93725 0.63572 0.80995 0.0
C1262 C 0.99598 0.63245 0.97842 0.0
C1263 C 0.00952 0.63249 0.94557 0.0
C1264 C 0.9835 0.63232 0.93322 0.0
C1265 C 0.98422 0.63193 0.85446 0.0
C1266 C -0.00316 0.63026 0.8225 0.0
C1267 C 0.00953 0.63082 0.86754 0.0
C1268 C 0.97309 0.65163 0.70928 0.0
C1269 C 0.95745 0.64868 0.73339 0.0
C1270 C 0.9812 0.64533 0.74553 0.0
C1271 C 0.97382 0.63579 0.80668 0.0
C1272 C 0.95747 0.6318 0.82667 0.0
C1273 C 0.94934 0.63821 0.79031 0.0
H1274 H 0.46363 0.42942 0.9164 0.0
H1275 H 0.42542 0.39848 0.06633 0.0
H1276 H 0.45974 0.40797 0.84092 0.0
H1277 H 0.42185 0.37705 0.99168 0.0
H1278 H 0.41528 0.36621 0.68667 0.0
H1279 H 0.43077 0.38919 0.76535 0.0
H1280 H 0.43783 0.36393 0.93676 0.0
H1281 H 0.42272 0.341 0.85732 0.0
C1282 C 0.45484 0.41804 0.93475 0.0
C1283 C 0.44471 0.41556 0.99687 0.0
C1284 C 0.45262 0.40581 0.89143 0.0
C1285 C 0.44053 0.39094 0.91067 0.0
C1286 C 0.43139 0.38844 0.97626 0.0
C1287 C 0.43336 0.40067 0.01869 0.0
C1288 C 0.42074 0.36572 0.73983 0.0
C1289 C 0.41779 0.35188 0.7661 0.0
C1290 C 0.42962 0.37885 0.78474 0.0
C1291 C 0.43536 0.37822 0.85709 0.0
C1292 C 0.43352 0.36464 0.8811 0.0
C1293 C 0.42496 0.35158 0.83545 0.0
H1294 H 0.74436 0.12817 0.94859 0.0
H1295 H 0.72364 0.10633 0.73262 0.0
H1296 H 0.71583 0.11857 0.99202 0.0
H1297 H 0.69537 0.09637 0.7762 0.0
H1298 H 0.66631 0.07472 0.06415 0.0
H1299 H 0.69434 0.09337 0.02415 0.0
H1300 H 0.67305 0.09925 0.81994 0.0
H1301 H 0.64478 0.08004 0.85946 0.0
C1302 C 0.73376 0.12159 0.90995 0.0
C1303 C 0.73623 0.11776 0.83767 0.0
C1304 C 0.71741 0.11601 0.9349 0.0
C1305 C 0.70326 0.10652 0.88796 0.0
C1306 C 0.70589 0.10372 0.81385 0.0
C1307 C 0.72216 0.10928 0.78906 0.0
C1308 C 0.66755 0.08016 0.01121 0.0
C1309 C 0.65337 0.07568 0.96421 0.0
C1310 C 0.68366 0.09103 0.98861 0.0
C1311 C 0.68601 0.09773 0.91838 0.0
C1312 C 0.67169 0.09413 0.8739 0.0
C1313 C 0.65549 0.0832 0.89667 0.0
H1314 H 0.65027 0.96849 0.36214 0.0
H1315 H 0.65685 0.9509 0.15386 0.0
H1316 H 0.63283 0.97603 0.29704 0.0
H1317 H 0.6393 0.95848 0.08826 0.0
H1318 H 0.60065 0.98785 0.17158 0.0
H1319 H 0.60712 0.96947 0.2197 0.0
H1320 H 0.64784 0.98533 0.06514 0.0
H1321 H 0.64139 0.00358 0.01726 0.0
C1322 C 0.64754 0.96583 0.30275 0.0
C1323 C 0.65503 0.95928 0.26284 0.0
C1324 C 0.63744 0.97004 0.26549 0.0
C1325 C 0.63481 0.96795 0.18741 0.0
C1326 C 0.64121 0.96029 0.14842 0.0
C1327 C 0.65116 0.95589 0.186 0.0
C1328 C 0.61064 0.98706 0.14642 0.0
C1329 C 0.62069 -0.00273 0.09153 0.0
C1330 C 0.61436 0.97659 0.1741 0.0
C1331 C 0.62806 0.97605 0.1466 0.0
C1332 C 0.63712 0.98536 0.08705 0.0
C1333 C 0.63352 0.99592 0.06004 0.0
H1334 H 0.10798 0.69163 0.1374 0.0
H1335 H 0.08274 0.70621 0.98745 0.0
H1336 H 0.12266 0.71657 0.20007 0.0
H1337 H 0.09741 0.73108 0.04981 0.0
H1338 H 0.12746 0.77598 0.1635 0.0
H1339 H 0.12499 0.75513 0.08761 0.0
H1340 H 0.10863 0.72671 0.2811 0.0
H1341 H 0.11094 0.74742 0.35657 0.0
C1342 C 0.10597 0.7003 0.11633 0.0
C1343 C 0.09407 0.69695 0.05821 0.0
C1344 C 0.11432 0.71454 0.15237 0.0
C1345 C 0.11107 0.7257 0.13014 0.0
C1346 C 0.10028 0.72275 0.06776 0.0
C1347 C 0.09178 0.70847 0.03237 0.0
C1348 C 0.12387 0.76544 0.19034 0.0
C1349 C 0.11917 0.76323 0.26566 0.0
C1350 C 0.12239 0.7535 0.14679 0.0
C1351 C 0.11652 0.73929 0.17835 0.0
C1352 C 0.11333 0.73756 0.25536 0.0
C1353 C 0.11454 0.7494 0.2985 0.0
H1354 H 0.41535 0.47058 0.27188 0.0
H1355 H 0.3914 0.43975 0.08201 0.0
H1356 H 0.38759 0.4624 0.32104 0.0
H1357 H 0.36391 0.43143 0.13137 0.0
H1358 H 0.33945 0.42186 0.42996 0.0
H1359 H 0.36681 0.43864 0.37677 0.0
H1360 H 0.34248 0.43685 0.16532 0.0
H1361 H 0.31494 0.41968 0.21857 0.0
C1362 C 0.40419 0.46228 0.23996 0.0
C1363 C 0.40559 0.45565 0.17362 0.0
C1364 C 0.3883 0.45755 0.26823 0.0
C1365 C 0.37352 0.44619 0.2304 0.0
C1366 C 0.37497 0.44032 0.16162 0.0
C1367 C 0.3908 0.44497 0.13367 0.0
C1368 C 0.3399 0.42533 0.37261 0.0
C1369 C 0.32507 0.41926 0.32806 0.0
C1370 C 0.35561 0.43507 0.34222 0.0
C1371 C 0.35686 0.43894 0.26645 0.0
C1372 C 0.34193 0.43389 0.22362 0.0
C1373 C 0.32616 0.42417 0.25425 0.0
H1374 H 0.73414 0.77843 0.42182 0.0
H1375 H 0.73865 0.80836 0.60295 0.0
H1376 H 0.75389 0.77365 0.48785 0.0
H1377 H 0.75829 0.80337 0.66991 0.0
H1378 H 0.75619 0.76058 0.78681 0.0
H1379 H 0.74895 0.77717 0.72398 0.0
H1380 H 0.78347 0.78421 0.54871 0.0
H1381 H 0.79094 0.76772 0.61243 0.0
C1382 C 0.73979 0.78435 0.47472 0.0
C1383 C 0.73482 0.79366 0.50763 0.0
C1384 C 0.75118 0.7817 0.51233 0.0
C1385 C 0.75755 0.7881 0.58414 0.0
C1386 C 0.75355 0.79832 0.6146 0.0
C1387 C 0.74238 0.8012 0.5762 0.0
C1388 C 0.76269 0.76612 0.73635 0.0
C1389 C 0.77399 0.76279 0.70406 0.0
C1390 C 0.75862 0.77569 0.70058 0.0
C1391 C 0.76558 0.78188 0.63123 0.0
C1392 C 0.77793 0.77954 0.60208 0.0
C1393 C 0.78224 0.77017 0.63869 0.0
H1394 H 0.28999 0.02903 0.39626 0.0
H1395 H 0.25283 0.9965 0.54486 0.0
H1396 H 0.2928 0.04968 0.47481 0.0
H1397 H 0.25592 0.0172 0.62418 0.0
H1398 H 0.29999 0.05791 0.78252 0.0
H1399 H 0.28446 0.03558 0.69976 0.0
H1400 H 0.27727 0.0622 0.53689 0.0
H1401 H 0.29248 0.08449 0.62049 0.0
C1402 C 0.28205 0.02631 0.44435 0.0
C1403 C 0.27131 0.01122 0.46488 0.0
C1404 C 0.28359 0.03811 0.48906 0.0
C1405 C 0.27462 0.03497 0.55559 0.0
C1406 C 0.26294 0.01986 0.57308 0.0
C1407 C 0.26116 0.00806 0.52755 0.0
C1408 C 0.29453 0.05883 0.73034 0.0
C1409 C 0.29747 0.07288 0.70764 0.0
C1410 C 0.28559 0.04607 0.68313 0.0
C1411 C 0.27977 0.04725 0.61196 0.0
C1412 C 0.28164 0.06104 0.59159 0.0
C1413 C 0.29026 0.07375 0.63956 0.0
H1414 H 0.03713 0.35702 0.32427 0.0
H1415 H 0.05586 0.33993 0.49429 0.0
H1416 H 0.00846 0.3401 0.36528 0.0
H1417 H 0.02702 0.32293 0.53572 0.0
H1418 H 0.98203 0.32334 0.65536 0.0
H1419 H 0.009 0.33072 0.60134 0.0
H1420 H 0.98426 0.31341 0.38467 0.0
H1421 H 0.95714 0.30599 0.43914 0.0
C1422 C 0.03504 0.34935 0.36922 0.0
C1423 C 0.0487 0.34988 0.40665 0.0
C1424 C 0.0186 0.33957 0.39235 0.0
C1425 C 0.01551 0.33025 0.45401 0.0
C1426 C 0.02908 0.33005 0.48828 0.0
C1427 C 0.04555 0.33972 0.46439 0.0
C1428 C 0.98229 0.32078 0.59661 0.0
C1429 C 0.96756 0.31425 0.55127 0.0
C1430 C -0.00228 0.32488 0.56575 0.0
C1431 C -0.00125 0.32271 0.48868 0.0
C1432 C 0.98382 0.31527 0.44421 0.0
C1433 C 0.96831 0.31096 0.47542 0.0
H1434 H 0.34008 0.30261 0.52737 0.0
H1435 H 0.31863 0.30492 0.73541 0.0
H1436 H 0.32353 0.31088 0.46 0.0
H1437 H 0.30266 0.31393 0.66903 0.0
H1438 H 0.27558 0.33112 0.5363 0.0
H1439 H 0.28239 0.31265 0.57976 0.0
H1440 H 0.32868 0.33565 0.45767 0.0
H1441 H 0.32165 0.35357 0.41309 0.0
C1442 C 0.33152 0.30459 0.55834 0.0
C1443 C 0.33077 0.30336 0.63655 0.0
C1444 C 0.32212 0.30942 0.51994 0.0
C1445 C 0.31212 0.3135 0.5593 0.0
C1446 C 0.31017 0.31087 0.63674 0.0
C1447 C 0.31935 0.30573 0.67498 0.0
C1448 C 0.28699 0.33194 0.51746 0.0
C1449 C 0.29818 0.34387 0.47198 0.0
C1450 C 0.29094 0.32143 0.54267 0.0
C1451 C 0.30613 0.32267 0.52266 0.0
C1452 C 0.31675 0.33412 0.47348 0.0
C1453 C 0.3128 0.34455 0.44838 0.0
H1454 H 0.75687 0.06231 0.74971 0.0
H1455 H 0.79142 0.08959 0.57883 0.0
H1456 H 0.75045 0.03935 0.68086 0.0
H1457 H 0.7847 0.06657 0.50911 0.0
H1458 H 0.73579 0.02472 0.37834 0.0
H1459 H 0.75435 0.04834 0.44864 0.0
H1460 H 0.76211 0.02349 0.62006 0.0
H1461 H 0.7438 -0.00015 0.54885 0.0
C1462 C 0.7635 0.06337 0.69873 0.0
C1463 C 0.77454 0.07766 0.66927 0.0
C1464 C 0.7599 0.05025 0.65951 0.0
C1465 C 0.76704 0.05125 0.58958 0.0
C1466 C 0.77907 0.06555 0.56296 0.0
C1467 C 0.78294 0.07869 0.60301 0.0
C1468 C 0.74192 0.02439 0.42976 0.0
C1469 C 0.73833 0.01052 0.45847 0.0
C1470 C 0.7526 0.03788 0.46974 0.0
C1471 C 0.75959 0.03767 0.53974 0.0
C1472 C 0.75688 0.02391 0.5661 0.0
C1473 C 0.74647 0.01043 0.52527 0.0
H1474 H 0.98184 0.72521 0.67248 0.0
H1475 H 0.95672 0.71397 0.45485 0.0
H1476 H 0.00774 0.74504 0.61771 0.0
H1477 H 0.98284 0.7338 0.39939 0.0
H1478 H 0.03856 0.74561 0.34719 0.0
H1479 H 0.00942 0.733 0.3863 0.0
H1480 H 0.02315 0.76939 0.54688 0.0
H1481 H 0.05241 0.78207 0.50748 0.0
C1482 C 0.98176 0.7273 0.61319 0.0
C1483 C 0.96739 0.71796 0.56767 0.0
C1484 C -0.00344 0.73871 0.58185 0.0
C1485 C -0.00265 0.74086 0.50414 0.0
C1486 C 0.98258 0.7323 0.45941 0.0
C1487 C 0.96764 0.72102 0.49114 0.0
C1488 C 0.03529 0.75109 0.38964 0.0
C1489 C 0.04777 0.76471 0.42499 0.0
C1490 C 0.01856 0.74394 0.41155 0.0
C1491 C 0.01403 0.7502 0.46983 0.0
C1492 C 0.02633 0.7643 0.502 0.0
C1493 C 0.04305 0.77155 0.47939 0.0
loop_
_geom_bond_atom_site_label_1
_geom_bond_atom_site_label_2
_geom_bond_distance
_geom_bond_site_symmetry_2
_ccdc_geom_bond_type
Co0 N4 2.148 1_554 S
Co0 N10 2.128 . S
Co0 N20 2.194 . S
Co0 O25 2.375 1_554 S
Co0 O26 2.155 . S
Co0 O27 2.096 . S
C1 N4 1.301 . S
C1 N5 1.328 . S
C1 H6 0.930 . S
C2 C3 1.333 . S
C2 N4 1.317 . S
C2 H7 0.930 . S
C3 C2 1.333 . S
C3 N5 1.350 . S
C3 H29 0.931 . S
N4 Co0 2.148 1_556 S
N4 C1 1.301 . S
N4 C2 1.317 . S
N5 C1 1.328 . S
N5 C3 1.350 . S
H6 C1 0.930 . S
H7 C2 0.930 . S
C8 O9 1.224 . S
C8 O27 1.247 . S
O9 C8 1.224 . S
N10 Co0 2.128 . S
N10 C11 1.355 . S
N10 C13 1.311 . S
C11 N10 1.355 . S
C11 C12 1.363 . S
C11 H23 0.929 . S
C12 C11 1.363 . S
C12 N14 1.375 . S
C12 H30 0.931 1_455 S
C13 N10 1.311 . S
C13 N14 1.347 . S
C13 H24 0.929 . S
N14 C12 1.375 . S
N14 C13 1.347 . S
C15 C18 1.365 1_556 S
C15 N20 1.325 1_556 S
C15 H21 0.934 . S
C16 C17 1.362 . S
C16 C19 1.378 . S
C16 H31 0.929 . S
C17 C16 1.362 . S
C17 C18 1.366 . S
C18 C15 1.365 1_554 S
C18 C17 1.366 . S
C18 H32 0.930 1_554 S
C19 C16 1.378 . S
C19 N20 1.315 . S
C19 H22 0.930 . S
N20 Co0 2.194 . S
N20 C15 1.325 1_554 S
N20 C19 1.315 . S
H21 C15 0.934 . S
H22 C19 0.930 . S
H23 C11 0.929 . S
H24 C13 0.929 . S
O25 Co0 2.375 1_556 S
O25 C28 1.257 1_455 S
O26 Co0 2.155 . S
O26 C28 1.240 1_454 S
O27 Co0 2.096 . S
O27 C8 1.247 . S
C28 O25 1.257 1_655 S
C28 O26 1.240 1_656 S
H29 C3 0.931 . S
H30 C12 0.931 1_655 S
H31 C16 0.929 . S
H32 C18 0.930 1_556 S
Co33 N37 2.148 . S
Co33 N43 2.128 1_554 S
Co33 N53 2.194 . S
Co33 O58 2.351 . S
Co33 O59 2.155 . S
Co33 O60 2.096 . S
C34 N37 1.301 . S
C34 N38 1.328 . S
C34 H39 0.930 . S
C35 C36 1.333 . S
C35 N37 1.317 . S
C35 H40 0.930 . S
C36 C35 1.333 . S
C36 N38 1.350 . S
C36 H62 0.931 . S
N37 Co33 2.148 . S
N37 C34 1.301 . S
N37 C35 1.317 . S
N38 C34 1.328 . S
N38 C36 1.350 . S
H39 C34 0.930 . S
H40 C35 0.930 . S
C41 O42 1.224 . S
C41 O60 1.247 1_556 S
O42 C41 1.224 . S
N43 Co33 2.128 1_556 S
N43 C44 1.355 . S
N43 C46 1.311 . S
C44 N43 1.355 . S
C44 C45 1.363 . S
C44 H56 0.929 . S
C45 C44 1.363 . S
C45 N47 1.375 . S
C45 H63 0.931 . S
C46 N43 1.311 . S
C46 N47 1.347 . S
C46 H57 0.929 . S
N47 C45 1.375 . S
N47 C46 1.347 . S
C48 C51 1.365 . S
C48 N53 1.328 . S
C48 H54 0.929 . S
C49 C50 1.362 . S
C49 C52 1.378 . S
C49 H64 0.929 1_554 S
C50 C49 1.362 . S
C50 C51 1.366 . S
C51 C48 1.365 . S
C51 C50 1.366 . S
C51 H65 0.930 . S
C52 C49 1.378 . S
C52 N53 1.315 . S
C52 H55 0.930 . S
N53 Co33 2.194 . S
N53 C48 1.328 . S
N53 C52 1.315 . S
H54 C48 0.929 . S
H55 C52 0.930 . S
H56 C44 0.929 . S
H57 C46 0.929 . S
O58 Co33 2.351 . S
O58 C61 1.244 . S
O59 Co33 2.155 . S
O59 C61 1.240 . S
O60 Co33 2.096 . S
O60 C41 1.247 1_554 S
C61 O58 1.244 . S
C61 O59 1.240 . S
H62 C36 0.931 . S
H63 C45 0.931 . S
H64 C49 0.929 1_556 S
H65 C51 0.930 . S
Co66 N70 2.148 1_554 S
Co66 N76 2.128 . S
Co66 N86 2.194 . S
Co66 O91 2.351 . S
Co66 O92 2.155 . S
Co66 O93 2.096 . S
C67 N70 1.301 . S
C67 N71 1.328 . S
C67 H72 0.930 . S
C68 C69 1.333 . S
C68 N70 1.317 . S
C68 H73 0.930 . S
C69 C68 1.333 . S
C69 N71 1.350 . S
C69 H95 0.931 . S
N70 Co66 2.148 1_556 S
N70 C67 1.301 . S
N70 C68 1.317 . S
N71 C67 1.328 . S
N71 C69 1.350 . S
H72 C67 0.930 . S
H73 C68 0.930 . S
C74 O75 1.224 . S
C74 O93 1.247 . S
O75 C74 1.224 . S
N76 Co66 2.128 . S
N76 C77 1.355 . S
N76 C79 1.311 . S
C77 N76 1.355 . S
C77 C78 1.363 . S
C77 H89 0.929 . S
C78 C77 1.363 . S
C78 N80 1.375 . S
C78 H96 0.931 . S
C79 N76 1.311 . S
C79 N80 1.347 . S
C79 H90 0.929 . S
N80 C78 1.375 . S
N80 C79 1.347 . S
C81 C84 1.365 . S
C81 N86 1.328 . S
C81 H87 0.929 . S
C82 C83 1.362 . S
C82 C85 1.378 . S
C82 H97 0.929 . S
C83 C82 1.362 . S
C83 C84 1.366 . S
C84 C81 1.365 . S
C84 C83 1.366 . S
C84 H98 0.930 . S
C85 C82 1.378 . S
C85 N86 1.315 . S
C85 H88 0.930 . S
N86 Co66 2.194 . S
N86 C81 1.328 . S
N86 C85 1.315 . S
H87 C81 0.929 . S
H88 C85 0.930 . S
H89 C77 0.929 . S
H90 C79 0.929 . S
O91 Co66 2.351 . S
O91 C94 1.244 . S
O92 Co66 2.155 . S
O92 C94 1.240 . S
O93 Co66 2.096 . S
O93 C74 1.247 . S
C94 O91 1.244 . S
C94 O92 1.240 . S
H95 C69 0.931 . S
H96 C78 0.931 . S
H97 C82 0.929 . S
H98 C84 0.930 . S
Co99 N103 2.148 . S
Co99 N109 2.128 1_554 S
Co99 N119 2.194 . S
Co99 O124 2.351 . S
Co99 O125 2.155 . S
Co99 O126 2.096 1_554 S
C100 N103 1.301 . S
C100 N104 1.328 . S
C100 H105 0.930 . S
C101 C102 1.333 . S
C101 N103 1.317 . S
C101 H106 0.930 . S
C102 C101 1.333 . S
C102 N104 1.350 . S
C102 H128 0.931 . S
N103 Co99 2.148 . S
N103 C100 1.301 . S
N103 C101 1.317 . S
N104 C100 1.328 . S
N104 C102 1.350 . S
H105 C100 0.930 . S
H106 C101 0.930 . S
C107 O108 1.224 . S
C107 O126 1.247 . S
O108 C107 1.224 . S
N109 Co99 2.128 1_556 S
N109 C110 1.355 . S
N109 C112 1.311 . S
C110 N109 1.355 . S
C110 C111 1.363 . S
C110 H122 0.929 . S
C111 C110 1.363 . S
C111 N113 1.375 . S
C111 H129 0.931 . S
C112 N109 1.311 . S
C112 N113 1.347 . S
C112 H123 0.929 . S
N113 C111 1.375 . S
N113 C112 1.347 . S
C114 C117 1.365 . S
C114 N119 1.328 . S
C114 H120 0.929 . S
C115 C116 1.362 . S
C115 C118 1.378 . S
C115 H130 0.929 1_554 S
C116 C115 1.362 . S
C116 C117 1.366 . S
C117 C114 1.365 . S
C117 C116 1.366 . S
C117 H131 0.930 . S
C118 C115 1.378 . S
C118 N119 1.315 . S
C118 H121 0.930 1_554 S
N119 Co99 2.194 . S
N119 C114 1.328 . S
N119 C118 1.315 . S
H120 C114 0.929 . S
H121 C118 0.930 1_556 S
H122 C110 0.929 . S
H123 C112 0.929 . S
O124 Co99 2.351 . S
O124 C127 1.244 . S
O125 Co99 2.155 . S
O125 C127 1.240 . S
O126 Co99 2.096 1_556 S
O126 C107 1.247 . S
C127 O124 1.244 . S
C127 O125 1.240 . S
H128 C102 0.931 . S
H129 C111 0.931 . S
H130 C115 0.929 1_556 S
H131 C117 0.930 . S
Co132 N136 2.148 1_554 S
Co132 N142 2.128 . S
Co132 N152 2.194 . S
Co132 O157 2.351 . S
Co132 O158 2.155 . S
Co132 O159 2.096 . S
C133 N136 1.301 . S
C133 N137 1.328 . S
C133 H138 0.930 . S
C134 C135 1.333 . S
C134 N136 1.317 . S
C134 H139 0.930 . S
C135 C134 1.333 . S
C135 N137 1.350 . S
C135 H161 0.931 . S
N136 Co132 2.148 1_556 S
N136 C133 1.301 . S
N136 C134 1.317 . S
N137 C133 1.328 . S
N137 C135 1.350 . S
H138 C133 0.930 . S
H139 C134 0.930 . S
C140 O141 1.224 . S
C140 O159 1.247 . S
O141 C140 1.224 . S
N142 Co132 2.128 . S
N142 C143 1.355 . S
N142 C145 1.311 . S
C143 N142 1.355 . S
C143 C144 1.363 . S
C143 H155 0.929 . S
C144 C143 1.363 . S
C144 N146 1.375 . S
C144 H162 0.931 . S
C145 N142 1.311 . S
C145 N146 1.347 . S
C145 H156 0.929 . S
N146 C144 1.375 . S
N146 C145 1.347 . S
C147 C150 1.365 . S
C147 N152 1.328 . S
C147 H153 0.929 1_554 S
C148 C149 1.362 . S
C148 C151 1.378 . S
C148 H163 0.929 . S
C149 C148 1.362 . S
C149 C150 1.366 . S
C150 C147 1.365 . S
C150 C149 1.366 . S
C150 H164 0.930 . S
C151 C148 1.378 . S
C151 N152 1.315 . S
C151 H154 0.930 . S
N152 Co132 2.194 . S
N152 C147 1.328 . S
N152 C151 1.315 . S
H153 C147 0.929 1_556 S
H154 C151 0.930 . S
H155 C143 0.929 . S
H156 C145 0.929 . S
O157 Co132 2.351 . S
O157 C160 1.244 . S
O158 Co132 2.155 . S
O158 C160 1.240 . S
O159 Co132 2.096 . S
O159 C140 1.247 . S
C160 O157 1.244 . S
C160 O158 1.240 . S
H161 C135 0.931 . S
H162 C144 0.931 . S
H163 C148 0.929 . S
H164 C150 0.930 . S
Co165 N169 2.148 . S
Co165 N175 2.128 1_554 S
Co165 N185 2.194 . S
Co165 O190 2.351 . S
Co165 O191 2.155 . S
Co165 O192 2.096 . S
C166 N169 1.301 . S
C166 N170 1.328 . S
C166 H171 0.930 . S
C167 C168 1.333 . S
C167 N169 1.317 . S
C167 H172 0.930 . S
C168 C167 1.333 . S
C168 N170 1.350 . S
C168 H194 0.931 . S
N169 Co165 2.148 . S
N169 C166 1.301 . S
N169 C167 1.317 . S
N170 C166 1.328 . S
N170 C168 1.350 . S
H171 C166 0.930 . S
H172 C167 0.930 . S
C173 O174 1.224 . S
C173 O192 1.247 1_556 S
O174 C173 1.224 . S
N175 Co165 2.128 1_556 S
N175 C176 1.355 . S
N175 C178 1.311 . S
C176 N175 1.355 . S
C176 C177 1.363 . S
C176 H188 0.929 . S
C177 C176 1.363 . S
C177 N179 1.375 . S
C177 H195 0.931 . S
C178 N175 1.311 . S
C178 N179 1.347 . S
C178 H189 0.929 . S
N179 C177 1.375 . S
N179 C178 1.347 . S
C180 C183 1.365 . S
C180 N185 1.328 . S
C180 H186 0.929 . S
C181 C182 1.362 . S
C181 C184 1.378 . S
C181 H196 0.929 . S
C182 C181 1.362 . S
C182 C183 1.366 . S
C183 C180 1.365 . S
C183 C182 1.366 . S
C183 H197 0.930 . S
C184 C181 1.378 . S
C184 N185 1.315 . S
C184 H187 0.930 . S
N185 Co165 2.194 . S
N185 C180 1.328 . S
N185 C184 1.315 . S
H186 C180 0.929 . S
H187 C184 0.930 . S
H188 C176 0.929 . S
H189 C178 0.929 . S
O190 Co165 2.351 . S
O190 C193 1.244 . S
O191 Co165 2.155 . S
O191 C193 1.240 . S
O192 Co165 2.096 . S
O192 C173 1.247 1_554 S
C193 O190 1.244 . S
C193 O191 1.240 . S
H194 C168 0.931 . S
H195 C177 0.931 . S
H196 C181 0.929 . S
H197 C183 0.930 . S
Co198 N202 2.148 . S
Co198 N208 2.128 . S
Co198 N218 2.194 . S
Co198 O223 2.351 . S
Co198 O224 2.155 . S
Co198 O225 2.096 . S
C199 N202 1.301 . S
C199 N203 1.328 . S
C199 H204 0.930 . S
C200 C201 1.333 . S
C200 N202 1.317 . S
C200 H205 0.930 . S
C201 C200 1.333 . S
C201 N203 1.350 . S
C201 H227 0.931 . S
N202 Co198 2.148 . S
N202 C199 1.301 . S
N202 C200 1.317 . S
N203 C199 1.328 . S
N203 C201 1.350 . S
H204 C199 0.930 . S
H205 C200 0.930 . S
C206 O207 1.224 . S
C206 O225 1.247 . S
O207 C206 1.224 . S
N208 Co198 2.128 . S
N208 C209 1.355 . S
N208 C211 1.311 . S
C209 N208 1.355 . S
C209 C210 1.363 . S
C209 H221 0.929 . S
C210 C209 1.363 . S
C210 N212 1.375 . S
C210 H228 0.931 . S
C211 N208 1.311 . S
C211 N212 1.347 . S
C211 H222 0.929 . S
N212 C210 1.375 . S
N212 C211 1.347 . S
C213 C216 1.365 . S
C213 N218 1.328 . S
C213 H219 0.929 . S
C214 C215 1.362 . S
C214 C217 1.378 . S
C214 H229 0.929 . S
C215 C214 1.362 . S
C215 C216 1.366 . S
C216 C213 1.365 . S
C216 C215 1.366 . S
C216 H230 0.930 . S
C217 C214 1.378 . S
C217 N218 1.315 . S
C217 H220 0.930 . S
N218 Co198 2.194 . S
N218 C213 1.328 . S
N218 C217 1.315 . S
H219 C213 0.929 . S
H220 C217 0.930 . S
H221 C209 0.929 . S
H222 C211 0.929 . S
O223 Co198 2.351 . S
O223 C226 1.244 . S
O224 Co198 2.155 . S
O224 C226 1.240 . S
O225 Co198 2.096 . S
O225 C206 1.247 . S
C226 O223 1.244 . S
C226 O224 1.240 . S
H227 C201 0.931 . S
H228 C210 0.931 . S
H229 C214 0.929 . S
H230 C216 0.930 . S
Co231 N235 2.148 . S
Co231 N241 2.128 . S
Co231 N251 2.194 . S
Co231 O256 2.351 . S
Co231 O257 2.155 1_565 S
Co231 O258 2.096 1_565 S
C232 N235 1.301 . S
C232 N236 1.328 . S
C232 H237 0.930 . S
C233 C234 1.333 . S
C233 N235 1.317 . S
C233 H238 0.930 . S
C234 C233 1.333 . S
C234 N236 1.350 . S
C234 H260 0.931 . S
N235 Co231 2.148 . S
N235 C232 1.301 . S
N235 C233 1.317 . S
N236 C232 1.328 . S
N236 C234 1.350 . S
H237 C232 0.930 . S
H238 C233 0.930 . S
C239 O240 1.224 . S
C239 O258 1.247 1_565 S
O240 C239 1.224 . S
N241 Co231 2.128 . S
N241 C242 1.355 . S
N241 C244 1.311 . S
C242 N241 1.355 . S
C242 C243 1.363 . S
C242 H254 0.929 . S
C243 C242 1.363 . S
C243 N245 1.375 . S
C243 H261 0.931 . S
C244 N241 1.311 . S
C244 N245 1.347 . S
C244 H255 0.937 1_565 S
N245 C243 1.375 . S
N245 C244 1.347 . S
C246 C249 1.365 . S
C246 N251 1.328 . S
C246 H252 0.929 . S
C247 C248 1.362 . S
C247 C250 1.378 . S
C247 H262 0.929 . S
C248 C247 1.362 . S
C248 C249 1.366 . S
C249 C246 1.365 . S
C249 C248 1.366 . S
C249 H263 0.930 . S
C250 C247 1.378 . S
C250 N251 1.315 . S
C250 H253 0.930 . S
N251 Co231 2.194 . S
N251 C246 1.328 . S
N251 C250 1.315 . S
H252 C246 0.929 . S
H253 C250 0.930 . S
H254 C242 0.929 . S
H255 C244 0.937 1_545 S
O256 Co231 2.351 . S
O256 C259 1.244 1_565 S
O257 Co231 2.155 1_545 S
O257 C259 1.240 . S
O258 Co231 2.096 1_545 S
O258 C239 1.247 1_545 S
C259 O256 1.244 1_545 S
C259 O257 1.240 . S
H260 C234 0.931 . S
H261 C243 0.931 . S
H262 C247 0.929 . S
H263 C249 0.930 . S
Co264 N268 2.148 . S
Co264 N274 2.128 . S
Co264 N284 2.194 . S
Co264 O289 2.351 . S
Co264 O290 2.155 . S
Co264 O291 2.096 . S
C265 N268 1.301 . S
C265 N269 1.328 . S
C265 H270 0.930 . S
C266 C267 1.333 . S
C266 N268 1.317 . S
C266 H271 0.930 . S
C267 C266 1.333 . S
C267 N269 1.350 . S
C267 H293 0.931 . S
N268 Co264 2.148 . S
N268 C265 1.301 . S
N268 C266 1.317 . S
N269 C265 1.328 . S
N269 C267 1.350 . S
H270 C265 0.930 . S
H271 C266 0.930 . S
C272 O273 1.224 . S
C272 O291 1.247 . S
O273 C272 1.224 . S
N274 Co264 2.128 . S
N274 C275 1.355 . S
N274 C277 1.311 . S
C275 N274 1.355 . S
C275 C276 1.363 . S
C275 H287 0.929 . S
C276 C275 1.363 . S
C276 N278 1.375 . S
C276 H294 0.931 . S
C277 N274 1.311 . S
C277 N278 1.347 . S
C277 H288 0.929 . S
N278 C276 1.375 . S
N278 C277 1.347 . S
C279 C282 1.365 . S
C279 N284 1.328 . S
C279 H285 0.929 . S
C280 C281 1.362 . S
C280 C283 1.378 . S
C280 H295 0.929 . S
C281 C280 1.362 . S
C281 C282 1.366 . S
C282 C279 1.365 . S
C282 C281 1.366 . S
C282 H296 0.930 . S
C283 C280 1.378 . S
C283 N284 1.315 . S
C283 H286 0.930 . S
N284 Co264 2.194 . S
N284 C279 1.328 . S
N284 C283 1.315 . S
H285 C279 0.929 . S
H286 C283 0.930 . S
H287 C275 0.929 . S
H288 C277 0.929 . S
O289 Co264 2.351 . S
O289 C292 1.244 . S
O290 Co264 2.155 . S
O290 C292 1.240 . S
O291 Co264 2.096 . S
O291 C272 1.247 . S
C292 O289 1.244 . S
C292 O290 1.240 . S
H293 C267 0.931 . S
H294 C276 0.931 . S
H295 C280 0.929 . S
H296 C282 0.930 . S
Co297 N301 2.148 . S
Co297 N307 2.128 . S
Co297 N317 2.194 . S
Co297 O322 2.351 . S
Co297 O323 2.155 1_565 S
Co297 O324 2.096 . S
C298 N301 1.301 . S
C298 N302 1.328 . S
C298 H303 0.930 . S
C299 C300 1.333 . S
C299 N301 1.317 . S
C299 H304 0.930 . S
C300 C299 1.333 . S
C300 N302 1.350 . S
C300 H326 0.931 . S
N301 Co297 2.148 . S
N301 C298 1.301 . S
N301 C299 1.317 . S
N302 C298 1.328 . S
N302 C300 1.350 . S
H303 C298 0.930 . S
H304 C299 0.930 . S
C305 O306 1.224 . S
C305 O324 1.247 . S
O306 C305 1.224 . S
N307 Co297 2.128 . S
N307 C308 1.355 . S
N307 C310 1.311 . S
C308 N307 1.355 . S
C308 C309 1.363 . S
C308 H320 0.929 . S
C309 C308 1.363 . S
C309 N311 1.375 . S
C309 H327 0.931 . S
C310 N307 1.311 . S
C310 N311 1.347 . S
C310 H321 0.929 . S
N311 C309 1.375 . S
N311 C310 1.347 . S
C312 C315 1.365 . S
C312 N317 1.328 . S
C312 H318 0.929 . S
C313 C314 1.362 . S
C313 C316 1.378 . S
C313 H328 0.929 . S
C314 C313 1.362 . S
C314 C315 1.366 . S
C315 C312 1.365 . S
C315 C314 1.366 . S
C315 H329 0.930 . S
C316 C313 1.378 . S
C316 N317 1.315 . S
C316 H319 0.930 . S
N317 Co297 2.194 . S
N317 C312 1.328 . S
N317 C316 1.315 . S
H318 C312 0.929 . S
H319 C316 0.930 . S
H320 C308 0.929 . S
H321 C310 0.929 . S
O322 Co297 2.351 . S
O322 C325 1.244 1_565 S
O323 Co297 2.155 1_545 S
O323 C325 1.240 . S
O324 Co297 2.096 . S
O324 C305 1.247 . S
C325 O322 1.244 1_545 S
C325 O323 1.240 . S
H326 C300 0.931 . S
H327 C309 0.931 . S
H328 C313 0.929 . S
H329 C315 0.930 . S
Co330 N334 2.148 . S
Co330 N340 2.128 . S
Co330 N350 2.194 . S
Co330 O355 2.351 . S
Co330 O356 2.155 . S
Co330 O357 2.096 . S
C331 N334 1.301 . S
C331 N335 1.328 . S
C331 H336 0.930 . S
C332 C333 1.333 . S
C332 N334 1.317 . S
C332 H337 0.930 . S
C333 C332 1.333 . S
C333 N335 1.350 . S
C333 H359 0.931 . S
N334 Co330 2.148 . S
N334 C331 1.301 . S
N334 C332 1.317 . S
N335 C331 1.328 . S
N335 C333 1.350 . S
H336 C331 0.930 . S
H337 C332 0.930 . S
C338 O339 1.224 . S
C338 O357 1.247 . S
O339 C338 1.224 . S
N340 Co330 2.128 . S
N340 C341 1.355 . S
N340 C343 1.311 . S
C341 N340 1.355 . S
C341 C342 1.363 . S
C341 H353 0.929 . S
C342 C341 1.363 . S
C342 N344 1.375 . S
C342 H360 0.931 . S
C343 N340 1.311 . S
C343 N344 1.347 . S
C343 H354 0.929 . S
N344 C342 1.375 . S
N344 C343 1.347 . S
C345 C348 1.365 . S
C345 N350 1.328 . S
C345 H351 0.929 . S
C346 C347 1.362 . S
C346 C349 1.378 . S
C346 H361 0.929 . S
C347 C346 1.362 . S
C347 C348 1.366 . S
C348 C345 1.365 . S
C348 C347 1.366 . S
C348 H362 0.930 . S
C349 C346 1.378 . S
C349 N350 1.315 . S
C349 H352 0.930 . S
N350 Co330 2.194 . S
N350 C345 1.328 . S
N350 C349 1.315 . S
H351 C345 0.929 . S
H352 C349 0.930 . S
H353 C341 0.929 . S
H354 C343 0.929 . S
O355 Co330 2.351 . S
O355 C358 1.244 . S
O356 Co330 2.155 . S
O356 C358 1.240 . S
O357 Co330 2.096 . S
O357 C338 1.247 . S
C358 O355 1.244 . S
C358 O356 1.240 . S
H359 C333 0.931 . S
H360 C342 0.931 . S
H361 C346 0.929 . S
H362 C348 0.930 . S
Co363 N367 2.148 . S
Co363 N373 2.128 . S
Co363 N383 2.194 . S
Co363 O388 2.351 . S
Co363 O389 2.155 . S
Co363 O390 2.096 . S
C364 N367 1.301 . S
C364 N368 1.328 . S
C364 H369 0.930 . S
C365 C366 1.333 . S
C365 N367 1.317 . S
C365 H370 0.930 . S
C366 C365 1.333 . S
C366 N368 1.350 . S
C366 H392 0.931 . S
N367 Co363 2.148 . S
N367 C364 1.301 . S
N367 C365 1.317 . S
N368 C364 1.328 . S
N368 C366 1.350 . S
H369 C364 0.930 . S
H370 C365 0.930 . S
C371 O372 1.224 . S
C371 O390 1.247 . S
O372 C371 1.224 . S
N373 Co363 2.128 . S
N373 C374 1.355 . S
N373 C376 1.311 . S
C374 N373 1.355 . S
C374 C375 1.363 . S
C374 H386 0.929 . S
C375 C374 1.363 . S
C375 N377 1.375 . S
C375 H393 0.931 . S
C376 N373 1.311 . S
C376 N377 1.347 . S
C376 H387 0.929 . S
N377 C375 1.375 . S
N377 C376 1.347 . S
C378 C381 1.365 . S
C378 N383 1.328 . S
C378 H384 0.929 . S
C379 C380 1.362 . S
C379 C382 1.378 . S
C379 H394 0.929 . S
C380 C379 1.362 . S
C380 C381 1.366 . S
C381 C378 1.365 . S
C381 C380 1.366 . S
C381 H395 0.930 . S
C382 C379 1.378 . S
C382 N383 1.315 . S
C382 H385 0.930 . S
N383 Co363 2.194 . S
N383 C378 1.328 . S
N383 C382 1.315 . S
H384 C378 0.929 . S
H385 C382 0.930 . S
H386 C374 0.929 . S
H387 C376 0.929 . S
O388 Co363 2.351 . S
O388 C391 1.244 . S
O389 Co363 2.155 . S
O389 C391 1.240 . S
O390 Co363 2.096 . S
O390 C371 1.247 . S
C391 O388 1.244 . S
C391 O389 1.240 . S
H392 C366 0.931 . S
H393 C375 0.931 . S
H394 C379 0.929 . S
H395 C381 0.930 . S
Co396 N400 2.148 . S
Co396 N406 2.128 . S
Co396 N416 2.194 . S
Co396 O421 2.351 . S
Co396 O422 2.155 . S
Co396 O423 2.096 . S
C397 N400 1.301 . S
C397 N401 1.328 . S
C397 H402 0.930 . S
C398 C399 1.333 . S
C398 N400 1.317 . S
C398 H403 0.930 . S
C399 C398 1.333 . S
C399 N401 1.350 . S
C399 H425 0.931 . S
N400 Co396 2.148 . S
N400 C397 1.301 . S
N400 C398 1.317 . S
N401 C397 1.328 . S
N401 C399 1.350 . S
H402 C397 0.930 . S
H403 C398 0.930 . S
C404 O405 1.224 . S
C404 O423 1.247 . S
O405 C404 1.224 . S
N406 Co396 2.128 . S
N406 C407 1.355 . S
N406 C409 1.311 . S
C407 N406 1.355 . S
C407 C408 1.363 . S
C407 H419 0.929 . S
C408 C407 1.363 . S
C408 N410 1.375 . S
C408 H426 0.931 . S
C409 N406 1.311 . S
C409 N410 1.347 . S
C409 H420 0.929 . S
N410 C408 1.375 . S
N410 C409 1.347 . S
C411 C414 1.365 . S
C411 N416 1.328 . S
C411 H417 0.929 . S
C412 C413 1.362 . S
C412 C415 1.378 . S
C412 H427 0.929 . S
C413 C412 1.362 . S
C413 C414 1.366 . S
C414 C411 1.365 . S
C414 C413 1.366 . S
C414 H428 0.930 . S
C415 C412 1.378 . S
C415 N416 1.315 . S
C415 H418 0.930 . S
N416 Co396 2.194 . S
N416 C411 1.328 . S
N416 C415 1.315 . S
H417 C411 0.929 . S
H418 C415 0.930 . S
H419 C407 0.929 . S
H420 C409 0.929 . S
O421 Co396 2.351 . S
O421 C424 1.244 . S
O422 Co396 2.155 . S
O422 C424 1.240 . S
O423 Co396 2.096 . S
O423 C404 1.247 . S
C424 O421 1.244 . S
C424 O422 1.240 . S
H425 C399 0.931 . S
H426 C408 0.931 . S
H427 C412 0.929 . S
H428 C414 0.930 . S
Co429 N433 2.148 . S
Co429 N439 2.128 . S
Co429 N449 2.194 . S
Co429 O454 2.351 . S
Co429 O455 2.155 . S
Co429 O456 2.096 . S
C430 N433 1.301 . S
C430 N434 1.328 . S
C430 H435 0.930 . S
C431 C432 1.333 . S
C431 N433 1.317 . S
C431 H436 0.930 . S
C432 C431 1.333 . S
C432 N434 1.350 . S
C432 H458 0.931 . S
N433 Co429 2.148 . S
N433 C430 1.301 . S
N433 C431 1.317 . S
N434 C430 1.328 . S
N434 C432 1.350 . S
H435 C430 0.930 . S
H436 C431 0.930 . S
C437 O438 1.224 . S
C437 O456 1.247 . S
O438 C437 1.224 . S
N439 Co429 2.128 . S
N439 C440 1.355 . S
N439 C442 1.311 . S
C440 N439 1.355 . S
C440 C441 1.363 . S
C440 H452 0.929 . S
C441 C440 1.363 . S
C441 N443 1.375 . S
C441 H459 0.931 . S
C442 N439 1.311 . S
C442 N443 1.347 . S
C442 H453 0.929 . S
N443 C441 1.375 . S
N443 C442 1.347 . S
C444 C447 1.365 . S
C444 N449 1.328 . S
C444 H450 0.929 . S
C445 C446 1.362 . S
C445 C448 1.378 . S
C445 H460 0.929 . S
C446 C445 1.362 . S
C446 C447 1.366 . S
C447 C444 1.365 . S
C447 C446 1.366 . S
C447 H461 0.930 . S
C448 C445 1.378 . S
C448 N449 1.315 . S
C448 H451 0.930 . S
N449 Co429 2.194 . S
N449 C444 1.328 . S
N449 C448 1.315 . S
H450 C444 0.929 . S
H451 C448 0.930 . S
H452 C440 0.929 . S
H453 C442 0.929 . S
O454 Co429 2.351 . S
O454 C457 1.244 . S
O455 Co429 2.155 . S
O455 C457 1.240 . S
O456 Co429 2.096 . S
O456 C437 1.247 . S
C457 O454 1.244 . S
C457 O455 1.240 . S
H458 C432 0.931 . S
H459 C441 0.931 . S
H460 C445 0.929 . S
H461 C447 0.930 . S
Co462 N466 2.148 . S
Co462 N472 2.128 . S
Co462 N482 2.194 . S
Co462 O487 2.351 . S
Co462 O488 2.155 . S
Co462 O489 2.096 . S
C463 N466 1.301 . S
C463 N467 1.328 . S
C463 H468 0.930 . S
C464 C465 1.333 . S
C464 N466 1.317 . S
C464 H469 0.930 . S
C465 C464 1.333 . S
C465 N467 1.350 . S
C465 H491 0.931 . S
N466 Co462 2.148 . S
N466 C463 1.301 . S
N466 C464 1.317 . S
N467 C463 1.328 . S
N467 C465 1.350 . S
H468 C463 0.930 . S
H469 C464 0.930 . S
C470 O471 1.224 . S
C470 O489 1.247 . S
O471 C470 1.224 . S
N472 Co462 2.128 . S
N472 C473 1.355 . S
N472 C475 1.311 . S
C473 N472 1.355 . S
C473 C474 1.363 . S
C473 H485 0.929 . S
C474 C473 1.363 . S
C474 N476 1.375 . S
C474 H492 0.931 . S
C475 N472 1.311 . S
C475 N476 1.347 . S
C475 H486 0.929 . S
N476 C474 1.375 . S
N476 C475 1.347 . S
C477 C480 1.365 . S
C477 N482 1.328 . S
C477 H483 0.929 . S
C478 C479 1.362 . S
C478 C481 1.378 . S
C478 H493 0.929 . S
C479 C478 1.362 . S
C479 C480 1.366 . S
C480 C477 1.365 . S
C480 C479 1.366 . S
C480 H494 0.930 . S
C481 C478 1.378 . S
C481 N482 1.315 . S
C481 H484 0.930 . S
N482 Co462 2.194 . S
N482 C477 1.328 . S
N482 C481 1.315 . S
H483 C477 0.929 . S
H484 C481 0.930 . S
H485 C473 0.929 . S
H486 C475 0.929 . S
O487 Co462 2.351 . S
O487 C490 1.244 . S
O488 Co462 2.155 . S
O488 C490 1.240 . S
O489 Co462 2.096 . S
O489 C470 1.247 . S
C490 O487 1.244 . S
C490 O488 1.240 . S
H491 C465 0.931 . S
H492 C474 0.931 . S
H493 C478 0.929 . S
H494 C480 0.930 . S
Co495 N499 2.148 . S
Co495 N505 2.128 . S
Co495 N515 2.194 . S
Co495 O520 2.351 . S
Co495 O521 2.155 . S
Co495 O522 2.096 . S
C496 N499 1.301 . S
C496 N500 1.328 . S
C496 H501 0.930 . S
C497 C498 1.333 . S
C497 N499 1.317 . S
C497 H502 0.930 . S
C498 C497 1.333 . S
C498 N500 1.350 . S
C498 H524 0.931 . S
N499 Co495 2.148 . S
N499 C496 1.301 . S
N499 C497 1.317 . S
N500 C496 1.328 . S
N500 C498 1.350 . S
H501 C496 0.930 . S
H502 C497 0.930 . S
C503 O504 1.224 . S
C503 O522 1.247 . S
O504 C503 1.224 . S
N505 Co495 2.128 . S
N505 C506 1.355 . S
N505 C508 1.311 . S
C506 N505 1.355 . S
C506 C507 1.363 . S
C506 H518 0.929 . S
C507 C506 1.363 . S
C507 N509 1.375 . S
C507 H525 0.931 . S
C508 N505 1.311 . S
C508 N509 1.347 . S
C508 H519 0.929 . S
N509 C507 1.375 . S
N509 C508 1.347 . S
C510 C513 1.365 . S
C510 N515 1.328 . S
C510 H516 0.929 . S
C511 C512 1.362 . S
C511 C514 1.378 . S
C511 H526 0.929 . S
C512 C511 1.362 . S
C512 C513 1.366 . S
C513 C510 1.365 . S
C513 C512 1.366 . S
C513 H527 0.930 . S
C514 C511 1.378 . S
C514 N515 1.315 . S
C514 H517 0.930 . S
N515 Co495 2.194 . S
N515 C510 1.328 . S
N515 C514 1.315 . S
H516 C510 0.929 . S
H517 C514 0.930 . S
H518 C506 0.929 . S
H519 C508 0.929 . S
O520 Co495 2.351 . S
O520 C523 1.244 . S
O521 Co495 2.155 . S
O521 C523 1.240 . S
O522 Co495 2.096 . S
O522 C503 1.247 . S
C523 O520 1.244 . S
C523 O521 1.240 . S
H524 C498 0.931 . S
H525 C507 0.931 . S
H526 C511 0.929 . S
H527 C513 0.930 . S
Co528 N532 2.148 . S
Co528 N538 2.128 . S
Co528 N548 2.194 . S
Co528 O553 2.351 . S
Co528 O554 2.155 . S
Co528 O555 2.096 . S
C529 N532 1.301 . S
C529 N533 1.328 . S
C529 H534 0.930 . S
C530 C531 1.333 . S
C530 N532 1.317 . S
C530 H535 0.930 . S
C531 C530 1.333 . S
C531 N533 1.350 . S
C531 H557 0.931 . S
N532 Co528 2.148 . S
N532 C529 1.301 . S
N532 C530 1.317 . S
N533 C529 1.328 . S
N533 C531 1.350 . S
H534 C529 0.930 . S
H535 C530 0.930 . S
C536 O537 1.224 . S
C536 O555 1.247 . S
O537 C536 1.224 . S
N538 Co528 2.128 . S
N538 C539 1.355 . S
N538 C541 1.311 . S
C539 N538 1.355 . S
C539 C540 1.363 . S
C539 H551 0.929 . S
C540 C539 1.363 . S
C540 N542 1.375 . S
C540 H558 0.931 . S
C541 N538 1.311 . S
C541 N542 1.347 . S
C541 H552 0.929 . S
N542 C540 1.375 . S
N542 C541 1.347 . S
C543 C546 1.365 . S
C543 N548 1.328 . S
C543 H549 0.929 . S
C544 C545 1.362 . S
C544 C547 1.378 . S
C544 H559 0.929 . S
C545 C544 1.362 . S
C545 C546 1.366 . S
C546 C543 1.365 . S
C546 C545 1.366 . S
C546 H560 0.930 . S
C547 C544 1.378 . S
C547 N548 1.315 . S
C547 H550 0.930 . S
N548 Co528 2.194 . S
N548 C543 1.328 . S
N548 C547 1.315 . S
H549 C543 0.929 . S
H550 C547 0.930 . S
H551 C539 0.929 . S
H552 C541 0.929 . S
O553 Co528 2.351 . S
O553 C556 1.244 . S
O554 Co528 2.155 . S
O554 C556 1.240 . S
O555 Co528 2.096 . S
O555 C536 1.247 . S
C556 O553 1.244 . S
C556 O554 1.240 . S
H557 C531 0.931 . S
H558 C540 0.931 . S
H559 C544 0.929 . S
H560 C546 0.930 . S
Co561 N565 2.148 . S
Co561 N571 2.128 . S
Co561 N581 2.194 . S
Co561 O586 2.351 . S
Co561 O587 2.155 . S
Co561 O588 2.096 . S
C562 N565 1.301 . S
C562 N566 1.328 . S
C562 H567 0.930 . S
C563 C564 1.333 . S
C563 N565 1.317 . S
C563 H568 0.930 . S
C564 C563 1.333 . S
C564 N566 1.350 . S
C564 H590 0.931 . S
N565 Co561 2.148 . S
N565 C562 1.301 . S
N565 C563 1.317 . S
N566 C562 1.328 . S
N566 C564 1.350 . S
H567 C562 0.930 . S
H568 C563 0.930 . S
C569 O570 1.224 . S
C569 O588 1.247 . S
O570 C569 1.224 . S
N571 Co561 2.128 . S
N571 C572 1.355 . S
N571 C574 1.311 . S
C572 N571 1.355 . S
C572 C573 1.363 . S
C572 H584 0.929 . S
C573 C572 1.363 . S
C573 N575 1.375 . S
C573 H591 0.931 . S
C574 N571 1.311 . S
C574 N575 1.347 . S
C574 H585 0.929 . S
N575 C573 1.375 . S
N575 C574 1.347 . S
C576 C579 1.365 . S
C576 N581 1.328 . S
C576 H582 0.929 . S
C577 C578 1.362 . S
C577 C580 1.378 . S
C577 H592 0.929 . S
C578 C577 1.362 . S
C578 C579 1.366 . S
C579 C576 1.365 . S
C579 C578 1.366 . S
C579 H593 0.930 . S
C580 C577 1.378 . S
C580 N581 1.315 . S
C580 H583 0.930 . S
N581 Co561 2.194 . S
N581 C576 1.328 . S
N581 C580 1.315 . S
H582 C576 0.929 . S
H583 C580 0.930 . S
H584 C572 0.929 . S
H585 C574 0.929 . S
O586 Co561 2.351 . S
O586 C589 1.244 . S
O587 Co561 2.155 . S
O587 C589 1.240 . S
O588 Co561 2.096 . S
O588 C569 1.247 . S
C589 O586 1.244 . S
C589 O587 1.240 . S
H590 C564 0.931 . S
H591 C573 0.931 . S
H592 C577 0.929 . S
H593 C579 0.930 . S
H594 C602 0.950 . S
H595 C607 0.950 . S
H596 C604 0.950 . S
H597 C606 0.950 . S
H598 C608 0.950 . S
H599 C610 0.950 . S
H600 C612 0.950 . S
H601 C613 0.950 . S
C602 H594 0.950 . S
C602 C603 1.386 . S
C602 C604 1.391 . S
C603 C602 1.386 . S
C603 C607 1.393 . S
C604 H596 0.950 . S
C604 C602 1.391 . S
C604 C605 1.400 . S
C605 C604 1.400 . S
C605 C606 1.398 . S
C605 C611 1.491 . S
C606 H597 0.950 . S
C606 C605 1.398 . S
C606 C607 1.391 . S
C607 H595 0.950 . S
C607 C603 1.393 . S
C607 C606 1.391 . S
C608 H598 0.950 . S
C608 C609 1.386 . S
C608 C610 1.391 . S
C609 C608 1.386 . S
C609 C613 1.393 . S
C610 H599 0.950 . S
C610 C608 1.391 . S
C610 C611 1.400 . S
C611 C605 1.491 . S
C611 C610 1.400 . S
C611 C612 1.398 . S
C612 H600 0.950 . S
C612 C611 1.398 . S
C612 C613 1.391 . S
C613 H601 0.950 . S
C613 C609 1.393 . S
C613 C612 1.391 . S
H614 C622 0.950 . S
H615 C627 0.950 . S
H616 C624 0.950 . S
H617 C626 0.950 . S
H618 C628 0.950 . S
H619 C630 0.950 . S
H620 C632 0.950 . S
H621 C633 0.950 . S
C622 H614 0.950 . S
C622 C623 1.386 . S
C622 C624 1.391 . S
C623 C622 1.386 . S
C623 C627 1.393 . S
C624 H616 0.950 . S
C624 C622 1.391 . S
C624 C625 1.400 . S
C625 C624 1.400 . S
C625 C626 1.398 . S
C625 C631 1.491 . S
C626 H617 0.950 . S
C626 C625 1.398 . S
C626 C627 1.391 . S
C627 H615 0.950 . S
C627 C623 1.393 . S
C627 C626 1.391 . S
C628 H618 0.950 . S
C628 C629 1.386 . S
C628 C630 1.391 . S
C629 C628 1.386 . S
C629 C633 1.393 . S
C630 H619 0.950 . S
C630 C628 1.391 . S
C630 C631 1.400 . S
C631 C625 1.491 . S
C631 C630 1.400 . S
C631 C632 1.398 . S
C632 H620 0.950 . S
C632 C631 1.398 . S
C632 C633 1.391 . S
C633 H621 0.950 . S
C633 C629 1.393 . S
C633 C632 1.391 . S
H634 C642 0.950 . S
H635 C647 0.950 . S
H636 C644 0.950 . S
H637 C646 0.950 . S
H638 C648 0.950 . S
H639 C650 0.950 . S
H640 C652 0.950 . S
H641 C653 0.950 . S
C642 H634 0.950 . S
C642 C643 1.386 . S
C642 C644 1.391 . S
C643 C642 1.386 . S
C643 C647 1.393 . S
C644 H636 0.950 . S
C644 C642 1.391 . S
C644 C645 1.400 . S
C645 C644 1.400 . S
C645 C646 1.398 . S
C645 C651 1.491 . S
C646 H637 0.950 . S
C646 C645 1.398 . S
C646 C647 1.391 . S
C647 H635 0.950 . S
C647 C643 1.393 . S
C647 C646 1.391 . S
C648 H638 0.950 . S
C648 C649 1.386 . S
C648 C650 1.391 . S
C649 C648 1.386 . S
C649 C653 1.393 . S
C650 H639 0.950 . S
C650 C648 1.391 . S
C650 C651 1.400 . S
C651 C645 1.491 . S
C651 C650 1.400 . S
C651 C652 1.398 . S
C652 H640 0.950 . S
C652 C651 1.398 . S
C652 C653 1.391 . S
C653 H641 0.950 . S
C653 C649 1.393 . S
C653 C652 1.391 . S
H654 C662 0.950 . S
H655 C667 0.950 . S
H656 C664 0.950 . S
H657 C666 0.950 . S
H658 C668 0.950 . S
H659 C670 0.950 . S
H660 C672 0.950 . S
H661 C673 0.950 . S
C662 H654 0.950 . S
C662 C663 1.386 . S
C662 C664 1.391 . S
C663 C662 1.386 . S
C663 C667 1.393 . S
C664 H656 0.950 . S
C664 C662 1.391 . S
C664 C665 1.400 . S
C665 C664 1.400 . S
C665 C666 1.398 . S
C665 C671 1.491 . S
C666 H657 0.950 . S
C666 C665 1.398 . S
C666 C667 1.391 . S
C667 H655 0.950 . S
C667 C663 1.393 . S
C667 C666 1.391 . S
C668 H658 0.950 . S
C668 C669 1.386 . S
C668 C670 1.391 . S
C669 C668 1.386 . S
C669 C673 1.393 . S
C670 H659 0.950 . S
C670 C668 1.391 . S
C670 C671 1.400 . S
C671 C665 1.491 . S
C671 C670 1.400 . S
C671 C672 1.398 . S
C672 H660 0.950 . S
C672 C671 1.398 . S
C672 C673 1.391 . S
C673 H661 0.950 . S
C673 C669 1.393 . S
C673 C672 1.391 . S
H674 C682 0.950 . S
H675 C687 0.950 . S
H676 C684 0.950 . S
H677 C686 0.950 . S
H678 C688 0.950 . S
H679 C690 0.950 . S
H680 C692 0.950 . S
H681 C693 0.950 . S
C682 H674 0.950 . S
C682 C683 1.386 . S
C682 C684 1.391 . S
C683 C682 1.386 . S
C683 C687 1.393 . S
C684 H676 0.950 . S
C684 C682 1.391 . S
C684 C685 1.400 . S
C685 C684 1.400 . S
C685 C686 1.398 . S
C685 C691 1.491 . S
C686 H677 0.950 . S
C686 C685 1.398 . S
C686 C687 1.391 . S
C687 H675 0.950 . S
C687 C683 1.393 . S
C687 C686 1.391 . S
C688 H678 0.950 . S
C688 C689 1.386 . S
C688 C690 1.391 . S
C689 C688 1.386 . S
C689 C693 1.393 . S
C690 H679 0.950 . S
C690 C688 1.391 . S
C690 C691 1.400 . S
C691 C685 1.491 . S
C691 C690 1.400 . S
C691 C692 1.398 . S
C692 H680 0.950 . S
C692 C691 1.398 . S
C692 C693 1.391 . S
C693 H681 0.950 . S
C693 C689 1.393 . S
C693 C692 1.391 . S
H694 C702 0.950 . S
H695 C707 0.950 . S
H696 C704 0.950 . S
H697 C706 0.950 . S
H698 C708 0.950 . S
H699 C710 0.950 . S
H700 C712 0.950 . S
H701 C713 0.950 . S
C702 H694 0.950 . S
C702 C703 1.386 . S
C702 C704 1.391 . S
C703 C702 1.386 . S
C703 C707 1.393 . S
C704 H696 0.950 . S
C704 C702 1.391 . S
C704 C705 1.400 . S
C705 C704 1.400 . S
C705 C706 1.398 . S
C705 C711 1.491 . S
C706 H697 0.950 . S
C706 C705 1.398 . S
C706 C707 1.391 . S
C707 H695 0.950 . S
C707 C703 1.393 . S
C707 C706 1.391 . S
C708 H698 0.950 . S
C708 C709 1.386 . S
C708 C710 1.391 . S
C709 C708 1.386 . S
C709 C713 1.393 . S
C710 H699 0.950 . S
C710 C708 1.391 . S
C710 C711 1.400 . S
C711 C705 1.491 . S
C711 C710 1.400 . S
C711 C712 1.398 . S
C712 H700 0.950 . S
C712 C711 1.398 . S
C712 C713 1.391 . S
C713 H701 0.950 . S
C713 C709 1.393 . S
C713 C712 1.391 . S
H714 C722 0.950 . S
H715 C727 0.950 . S
H716 C724 0.950 . S
H717 C726 0.950 . S
H718 C728 0.950 . S
H719 C730 0.950 . S
H720 C732 0.950 . S
H721 C733 0.950 . S
C722 H714 0.950 . S
C722 C723 1.386 . S
C722 C724 1.391 . S
C723 C722 1.386 . S
C723 C727 1.393 . S
C724 H716 0.950 . S
C724 C722 1.391 . S
C724 C725 1.400 . S
C725 C724 1.400 . S
C725 C726 1.398 . S
C725 C731 1.491 . S
C726 H717 0.950 . S
C726 C725 1.398 . S
C726 C727 1.391 . S
C727 H715 0.950 . S
C727 C723 1.393 . S
C727 C726 1.391 . S
C728 H718 0.950 . S
C728 C729 1.386 . S
C728 C730 1.391 1_554 S
C729 C728 1.386 . S
C729 C733 1.393 . S
C730 H719 0.950 . S
C730 C728 1.391 1_556 S
C730 C731 1.400 . S
C731 C725 1.491 . S
C731 C730 1.400 . S
C731 C732 1.398 . S
C732 H720 0.950 . S
C732 C731 1.398 . S
C732 C733 1.391 1_556 S
C733 H721 0.950 . S
C733 C729 1.393 . S
C733 C732 1.391 1_554 S
H734 C742 0.899 1_545 S
H735 C747 0.950 . S
H736 C744 0.950 1_545 S
H737 C746 0.950 . S
H738 C748 0.950 . S
H739 C750 0.946 1_556 S
H740 C752 1.018 . S
H741 C753 0.950 . S
C742 H734 0.899 1_565 S
C742 C743 1.386 . S
C742 C744 1.391 . S
C743 C742 1.386 . S
C743 C747 1.393 . S
C744 H736 0.950 1_565 S
C744 C742 1.391 . S
C744 C745 1.400 . S
C745 C744 1.400 . S
C745 C746 1.398 . S
C745 C751 1.491 . S
C746 H737 0.950 . S
C746 C745 1.398 . S
C746 C747 1.391 . S
C747 H735 0.950 . S
C747 C743 1.393 . S
C747 C746 1.391 . S
C748 H738 0.950 . S
C748 C749 1.386 . S
C748 C750 1.406 . S
C749 C748 1.386 . S
C749 C753 1.393 1_565 S
C750 H739 0.946 1_554 S
C750 C748 1.406 . S
C750 C751 1.390 1_554 S
C751 C745 1.491 . S
C751 C750 1.390 1_556 S
C751 C752 1.319 1_565 S
C752 H740 1.018 . S
C752 C751 1.319 1_545 S
C752 C753 1.409 1_556 S
C753 H741 0.950 . S
C753 C749 1.393 1_545 S
C753 C752 1.409 1_554 S
H754 C762 0.950 . S
H755 C767 0.950 . S
H756 C764 0.950 . S
H757 C766 0.950 . S
H758 C768 0.950 . S
H759 C770 0.950 . S
H760 C772 0.950 . S
H761 C773 0.950 . S
C762 H754 0.950 . S
C762 C763 1.386 . S
C762 C764 1.391 . S
C763 C762 1.386 . S
C763 C767 1.393 . S
C764 H756 0.950 . S
C764 C762 1.391 . S
C764 C765 1.400 . S
C765 C764 1.400 . S
C765 C766 1.398 . S
C765 C771 1.491 . S
C766 H757 0.950 . S
C766 C765 1.398 . S
C766 C767 1.391 . S
C767 H755 0.950 . S
C767 C763 1.393 . S
C767 C766 1.391 . S
C768 H758 0.950 . S
C768 C769 1.386 . S
C768 C770 1.391 1_554 S
C769 C768 1.386 . S
C769 C773 1.393 . S
C770 H759 0.950 . S
C770 C768 1.391 1_556 S
C770 C771 1.400 . S
C771 C765 1.491 . S
C771 C770 1.400 . S
C771 C772 1.398 . S
C772 H760 0.950 . S
C772 C771 1.398 . S
C772 C773 1.391 1_556 S
C773 H761 0.950 . S
C773 C769 1.393 . S
C773 C772 1.391 1_554 S
H774 C782 0.950 . S
H775 C787 0.950 1_545 S
H776 C784 0.950 . S
H777 C786 0.953 . S
H778 C788 0.950 . S
H779 C790 0.950 . S
H780 C792 0.950 . S
H781 C793 0.950 . S
C782 H774 0.950 . S
C782 C783 1.386 . S
C782 C784 1.391 1_554 S
C783 C782 1.386 . S
C783 C787 1.393 . S
C784 H776 0.950 . S
C784 C782 1.391 1_556 S
C784 C785 1.400 . S
C785 C784 1.400 . S
C785 C786 1.398 . S
C785 C791 1.491 . S
C786 H777 0.953 . S
C786 C785 1.398 . S
C786 C787 1.391 1_556 S
C787 H775 0.950 1_565 S
C787 C783 1.393 . S
C787 C786 1.391 1_554 S
C788 H778 0.950 . S
C788 C789 1.386 . S
C788 C790 1.391 . S
C789 C788 1.386 . S
C789 C793 1.393 . S
C790 H779 0.950 . S
C790 C788 1.391 . S
C790 C791 1.400 . S
C791 C785 1.491 . S
C791 C790 1.400 . S
C791 C792 1.398 . S
C792 H780 0.950 . S
C792 C791 1.398 . S
C792 C793 1.391 . S
C793 H781 0.950 . S
C793 C789 1.393 . S
C793 C792 1.391 . S
H794 C802 0.950 . S
H795 C807 0.950 . S
H796 C804 0.950 . S
H797 C806 0.950 . S
H798 C808 0.950 . S
H799 C810 0.950 . S
H800 C812 0.950 . S
H801 C813 0.950 . S
C802 H794 0.950 . S
C802 C803 1.386 . S
C802 C804 1.391 . S
C803 C802 1.386 . S
C803 C807 1.393 . S
C804 H796 0.950 . S
C804 C802 1.391 . S
C804 C805 1.400 . S
C805 C804 1.400 . S
C805 C806 1.398 . S
C805 C811 1.491 . S
C806 H797 0.950 . S
C806 C805 1.398 . S
C806 C807 1.391 . S
C807 H795 0.950 . S
C807 C803 1.393 . S
C807 C806 1.391 . S
C808 H798 0.950 . S
C808 C809 1.386 . S
C808 C810 1.391 1_554 S
C809 C808 1.386 . S
C809 C813 1.393 . S
C810 H799 0.950 . S
C810 C808 1.391 1_556 S
C810 C811 1.400 . S
C811 C805 1.491 . S
C811 C810 1.400 . S
C811 C812 1.398 . S
C812 H800 0.950 . S
C812 C811 1.398 . S
C812 C813 1.391 1_556 S
C813 H801 0.950 . S
C813 C809 1.393 . S
C813 C812 1.391 1_554 S
H814 C822 0.950 . S
H815 C827 0.950 . S
H816 C824 0.950 . S
H817 C826 0.950 . S
H818 C828 0.950 . S
H819 C830 0.950 . S
H820 C832 0.950 . S
H821 C833 0.950 . S
C822 H814 0.950 . S
C822 C823 1.386 . S
C822 C824 1.391 . S
C823 C822 1.386 . S
C823 C827 1.393 . S
C824 H816 0.950 . S
C824 C822 1.391 . S
C824 C825 1.400 . S
C825 C824 1.400 . S
C825 C826 1.398 . S
C825 C831 1.491 . S
C826 H817 0.950 . S
C826 C825 1.398 . S
C826 C827 1.391 . S
C827 H815 0.950 . S
C827 C823 1.393 . S
C827 C826 1.391 . S
C828 H818 0.950 . S
C828 C829 1.386 . S
C828 C830 1.391 1_554 S
C829 C828 1.386 . S
C829 C833 1.393 . S
C830 H819 0.950 . S
C830 C828 1.391 1_556 S
C830 C831 1.400 . S
C831 C825 1.491 . S
C831 C830 1.400 . S
C831 C832 1.398 . S
C832 H820 0.950 . S
C832 C831 1.398 . S
C832 C833 1.391 1_556 S
C833 H821 0.950 . S
C833 C829 1.393 . S
C833 C832 1.391 1_554 S
H834 C842 0.950 . S
H835 C847 0.950 . S
H836 C844 0.950 . S
H837 C846 0.950 . S
H838 C848 0.950 . S
H839 C850 0.950 . S
H840 C852 0.950 . S
H841 C853 0.950 . S
C842 H834 0.950 . S
C842 C843 1.386 . S
C842 C844 1.391 . S
C843 C842 1.386 . S
C843 C847 1.393 . S
C844 H836 0.950 . S
C844 C842 1.391 . S
C844 C845 1.400 . S
C845 C844 1.400 . S
C845 C846 1.398 . S
C845 C851 1.491 . S
C846 H837 0.950 . S
C846 C845 1.398 . S
C846 C847 1.391 . S
C847 H835 0.950 . S
C847 C843 1.393 . S
C847 C846 1.391 . S
C848 H838 0.950 . S
C848 C849 1.386 . S
C848 C850 1.391 . S
C849 C848 1.386 . S
C849 C853 1.393 . S
C850 H839 0.950 . S
C850 C848 1.391 . S
C850 C851 1.400 . S
C851 C845 1.491 . S
C851 C850 1.400 . S
C851 C852 1.398 . S
C852 H840 0.950 . S
C852 C851 1.398 . S
C852 C853 1.391 . S
C853 H841 0.950 . S
C853 C849 1.393 . S
C853 C852 1.391 . S
H854 C862 0.950 . S
H855 C867 0.950 . S
H856 C864 0.950 . S
H857 C866 0.950 . S
H858 C868 0.950 . S
H859 C870 0.950 . S
H860 C872 0.950 . S
H861 C873 0.950 . S
C862 H854 0.950 . S
C862 C863 1.386 . S
C862 C864 1.391 . S
C863 C862 1.386 . S
C863 C867 1.393 . S
C864 H856 0.950 . S
C864 C862 1.391 . S
C864 C865 1.400 . S
C865 C864 1.400 . S
C865 C866 1.398 . S
C865 C871 1.491 . S
C866 H857 0.950 . S
C866 C865 1.398 . S
C866 C867 1.391 . S
C867 H855 0.950 . S
C867 C863 1.393 . S
C867 C866 1.391 . S
C868 H858 0.950 . S
C868 C869 1.386 . S
C868 C870 1.391 . S
C869 C868 1.386 . S
C869 C873 1.393 . S
C870 H859 0.950 . S
C870 C868 1.391 . S
C870 C871 1.400 . S
C871 C865 1.491 . S
C871 C870 1.400 . S
C871 C872 1.398 . S
C872 H860 0.950 . S
C872 C871 1.398 . S
C872 C873 1.391 . S
C873 H861 0.950 . S
C873 C869 1.393 . S
C873 C872 1.391 . S
H874 C882 0.950 . S
H875 C887 0.950 . S
H876 C884 0.950 . S
H877 C886 0.950 . S
H878 C888 0.950 . S
H879 C890 0.950 . S
H880 C892 0.950 . S
H881 C893 0.950 . S
C882 H874 0.950 . S
C882 C883 1.386 . S
C882 C884 1.391 . S
C883 C882 1.386 . S
C883 C887 1.393 . S
C884 H876 0.950 . S
C884 C882 1.391 . S
C884 C885 1.400 . S
C885 C884 1.400 . S
C885 C886 1.398 . S
C885 C891 1.491 . S
C886 H877 0.950 . S
C886 C885 1.398 . S
C886 C887 1.391 . S
C887 H875 0.950 . S
C887 C883 1.393 . S
C887 C886 1.391 . S
C888 H878 0.950 . S
C888 C889 1.386 . S
C888 C890 1.391 . S
C889 C888 1.386 . S
C889 C893 1.393 . S
C890 H879 0.950 . S
C890 C888 1.391 . S
C890 C891 1.400 . S
C891 C885 1.491 . S
C891 C890 1.400 . S
C891 C892 1.398 . S
C892 H880 0.950 . S
C892 C891 1.398 . S
C892 C893 1.391 . S
C893 H881 0.950 . S
C893 C889 1.393 . S
C893 C892 1.391 . S
H894 C902 0.950 . S
H895 C907 0.950 . S
H896 C904 0.950 . S
H897 C906 0.950 . S
H898 C908 0.950 . S
H899 C910 0.950 . S
H900 C912 0.950 . S
H901 C913 0.950 . S
C902 H894 0.950 . S
C902 C903 1.386 . S
C902 C904 1.391 . S
C903 C902 1.386 . S
C903 C907 1.393 . S
C904 H896 0.950 . S
C904 C902 1.391 . S
C904 C905 1.400 . S
C905 C904 1.400 . S
C905 C906 1.398 . S
C905 C911 1.491 . S
C906 H897 0.950 . S
C906 C905 1.398 . S
C906 C907 1.391 . S
C907 H895 0.950 . S
C907 C903 1.393 . S
C907 C906 1.391 . S
C908 H898 0.950 . S
C908 C909 1.386 . S
C908 C910 1.391 . S
C909 C908 1.386 . S
C909 C913 1.393 . S
C910 H899 0.950 . S
C910 C908 1.391 . S
C910 C911 1.400 . S
C911 C905 1.491 . S
C911 C910 1.400 . S
C911 C912 1.398 . S
C912 H900 0.950 . S
C912 C911 1.398 . S
C912 C913 1.391 . S
C913 H901 0.950 . S
C913 C909 1.393 . S
C913 C912 1.391 . S
H914 C922 0.950 . S
H915 C927 0.950 . S
H916 C924 0.950 . S
H917 C926 0.950 . S
H918 C928 0.950 . S
H919 C930 0.950 . S
H920 C932 0.950 . S
H921 C933 0.950 . S
C922 H914 0.950 . S
C922 C923 1.386 . S
C922 C924 1.391 . S
C923 C922 1.386 . S
C923 C927 1.393 . S
C924 H916 0.950 . S
C924 C922 1.391 . S
C924 C925 1.400 . S
C925 C924 1.400 . S
C925 C926 1.398 . S
C925 C931 1.491 . S
C926 H917 0.950 . S
C926 C925 1.398 . S
C926 C927 1.391 . S
C927 H915 0.950 . S
C927 C923 1.393 . S
C927 C926 1.391 . S
C928 H918 0.950 . S
C928 C929 1.386 . S
C928 C930 1.391 . S
C929 C928 1.386 . S
C929 C933 1.393 . S
C930 H919 0.950 . S
C930 C928 1.391 . S
C930 C931 1.400 . S
C931 C925 1.491 . S
C931 C930 1.400 . S
C931 C932 1.398 . S
C932 H920 0.950 . S
C932 C931 1.398 . S
C932 C933 1.391 . S
C933 H921 0.950 . S
C933 C929 1.393 . S
C933 C932 1.391 . S
H934 C942 0.950 . S
H935 C947 0.950 . S
H936 C944 0.950 . S
H937 C946 0.950 . S
H938 C948 0.950 1_556 S
H939 C950 0.950 . S
H940 C952 0.950 . S
H941 C953 0.950 . S
C942 H934 0.950 . S
C942 C943 1.386 . S
C942 C944 1.391 . S
C943 C942 1.386 . S
C943 C947 1.393 . S
C944 H936 0.950 . S
C944 C942 1.391 . S
C944 C945 1.400 . S
C945 C944 1.400 . S
C945 C946 1.398 . S
C945 C951 1.491 . S
C946 H937 0.950 . S
C946 C945 1.398 . S
C946 C947 1.391 . S
C947 H935 0.950 . S
C947 C943 1.393 . S
C947 C946 1.391 . S
C948 H938 0.950 1_554 S
C948 C949 1.386 1_554 S
C948 C950 1.391 . S
C949 C948 1.386 1_556 S
C949 C953 1.393 1_556 S
C950 H939 0.950 . S
C950 C948 1.391 . S
C950 C951 1.400 . S
C951 C945 1.491 . S
C951 C950 1.400 . S
C951 C952 1.398 . S
C952 H940 0.950 . S
C952 C951 1.398 . S
C952 C953 1.391 . S
C953 H941 0.950 . S
C953 C949 1.393 1_554 S
C953 C952 1.391 . S
H954 C962 0.950 . S
H955 C967 0.950 . S
H956 C964 0.950 . S
H957 C966 0.950 . S
H958 C968 0.950 . S
H959 C970 0.950 . S
H960 C972 0.955 . S
H961 C973 0.950 . S
C962 H954 0.950 . S
C962 C963 1.386 . S
C962 C964 1.391 . S
C963 C962 1.386 . S
C963 C967 1.393 . S
C964 H956 0.950 . S
C964 C962 1.391 . S
C964 C965 1.400 . S
C965 C964 1.400 . S
C965 C966 1.398 . S
C965 C971 1.491 . S
C966 H957 0.950 . S
C966 C965 1.398 . S
C966 C967 1.391 . S
C967 H955 0.950 . S
C967 C963 1.393 . S
C967 C966 1.391 . S
C968 H958 0.950 . S
C968 C969 1.386 . S
C968 C970 1.391 . S
C969 C968 1.386 . S
C969 C973 1.393 . S
C970 H959 0.950 . S
C970 C968 1.391 . S
C970 C971 1.400 . S
C971 C965 1.491 . S
C971 C970 1.400 . S
C971 C972 1.398 . S
C972 H960 0.955 . S
C972 C971 1.398 . S
C972 C973 1.391 . S
C973 H961 0.950 . S
C973 C969 1.393 . S
C973 C972 1.391 . S
H974 C982 0.950 . S
H975 C987 0.950 . S
H976 C984 0.950 . S
H977 C986 0.950 . S
H978 C988 0.950 . S
H979 C990 0.950 . S
H980 C992 0.950 . S
H981 C993 0.950 . S
C982 H974 0.950 . S
C982 C983 1.386 1_556 S
C982 C984 1.391 . S
C983 C982 1.386 1_554 S
C983 C987 1.393 . S
C984 H976 0.950 . S
C984 C982 1.391 . S
C984 C985 1.400 1_556 S
C985 C984 1.400 1_554 S
C985 C986 1.398 . S
C985 C991 1.491 . S
C986 H977 0.950 . S
C986 C985 1.398 . S
C986 C987 1.391 . S
C987 H975 0.950 . S
C987 C983 1.393 . S
C987 C986 1.391 . S
C988 H978 0.950 . S
C988 C989 1.386 . S
C988 C990 1.391 . S
C989 C988 1.386 . S
C989 C993 1.393 1_554 S
C990 H979 0.950 . S
C990 C988 1.391 . S
C990 C991 1.400 . S
C991 C985 1.491 . S
C991 C990 1.400 . S
C991 C992 1.398 1_554 S
C992 H980 0.950 . S
C992 C991 1.398 1_556 S
C992 C993 1.391 . S
C993 H981 0.950 . S
C993 C989 1.393 1_556 S
C993 C992 1.391 . S
H994 C1002 0.950 . S
H995 C1007 0.950 1_556 S
H996 C1004 0.950 . S
H997 C1006 0.950 1_556 S
H998 C1008 0.950 1_556 S
H999 C1010 0.950 1_556 S
H1000 C1012 0.950 . S
H1001 C1013 0.950 . S
C1002 H994 0.950 . S
C1002 C1003 1.386 . S
C1002 C1004 1.391 . S
C1003 C1002 1.386 . S
C1003 C1007 1.393 . S
C1004 H996 0.950 . S
C1004 C1002 1.391 . S
C1004 C1005 1.400 . S
C1005 C1004 1.400 . S
C1005 C1006 1.398 . S
C1005 C1011 1.491 . S
C1006 H997 0.950 1_554 S
C1006 C1005 1.398 . S
C1006 C1007 1.391 . S
C1007 H995 0.950 1_554 S
C1007 C1003 1.393 . S
C1007 C1006 1.391 . S
C1008 H998 0.950 1_554 S
C1008 C1009 1.386 . S
C1008 C1010 1.391 . S
C1009 C1008 1.386 . S
C1009 C1013 1.393 . S
C1010 H999 0.950 1_554 S
C1010 C1008 1.391 . S
C1010 C1011 1.400 . S
C1011 C1005 1.491 . S
C1011 C1010 1.400 . S
C1011 C1012 1.398 . S
C1012 H1000 0.950 . S
C1012 C1011 1.398 . S
C1012 C1013 1.391 . S
C1013 H1001 0.950 . S
C1013 C1009 1.393 . S
C1013 C1012 1.391 . S
H1014 C1022 0.950 . S
H1015 C1027 0.950 . S
H1016 C1024 0.950 . S
H1017 C1026 0.950 . S
H1018 C1028 0.950 . S
H1019 C1030 0.950 . S
H1020 C1032 0.950 . S
H1021 C1033 0.950 . S
C1022 H1014 0.950 . S
C1022 C1023 1.386 . S
C1022 C1024 1.391 . S
C1023 C1022 1.386 . S
C1023 C1027 1.393 . S
C1024 H1016 0.950 . S
C1024 C1022 1.391 . S
C1024 C1025 1.400 . S
C1025 C1024 1.400 . S
C1025 C1026 1.398 . S
C1025 C1031 1.491 . S
C1026 H1017 0.950 . S
C1026 C1025 1.398 . S
C1026 C1027 1.391 . S
C1027 H1015 0.950 . S
C1027 C1023 1.393 . S
C1027 C1026 1.391 . S
C1028 H1018 0.950 . S
C1028 C1029 1.386 . S
C1028 C1030 1.391 . S
C1029 C1028 1.386 . S
C1029 C1033 1.393 . S
C1030 H1019 0.950 . S
C1030 C1028 1.391 . S
C1030 C1031 1.400 . S
C1031 C1025 1.491 . S
C1031 C1030 1.400 . S
C1031 C1032 1.398 . S
C1032 H1020 0.950 . S
C1032 C1031 1.398 . S
C1032 C1033 1.391 . S
C1033 H1021 0.950 . S
C1033 C1029 1.393 . S
C1033 C1032 1.391 . S
H1034 C1042 0.950 . S
H1035 C1047 0.950 . S
H1036 C1044 0.950 . S
H1037 C1046 0.950 . S
H1038 C1048 0.950 . S
H1039 C1050 0.950 . S
H1040 C1052 0.950 . S
H1041 C1053 0.950 . S
C1042 H1034 0.950 . S
C1042 C1043 1.386 . S
C1042 C1044 1.391 . S
C1043 C1042 1.386 . S
C1043 C1047 1.393 . S
C1044 H1036 0.950 . S
C1044 C1042 1.391 . S
C1044 C1045 1.400 . S
C1045 C1044 1.400 . S
C1045 C1046 1.398 . S
C1045 C1051 1.491 . S
C1046 H1037 0.950 . S
C1046 C1045 1.398 . S
C1046 C1047 1.391 . S
C1047 H1035 0.950 . S
C1047 C1043 1.393 . S
C1047 C1046 1.391 . S
C1048 H1038 0.950 . S
C1048 C1049 1.386 . S
C1048 C1050 1.391 . S
C1049 C1048 1.386 . S
C1049 C1053 1.393 . S
C1050 H1039 0.950 . S
C1050 C1048 1.391 . S
C1050 C1051 1.400 . S
C1051 C1045 1.491 . S
C1051 C1050 1.400 . S
C1051 C1052 1.398 . S
C1052 H1040 0.950 . S
C1052 C1051 1.398 . S
C1052 C1053 1.391 . S
C1053 H1041 0.950 . S
C1053 C1049 1.393 . S
C1053 C1052 1.391 . S
H1054 C1062 0.950 . S
H1055 C1067 0.950 . S
H1056 C1064 0.950 . S
H1057 C1066 0.950 . S
H1058 C1068 0.950 . S
H1059 C1070 0.950 . S
H1060 C1072 0.950 . S
H1061 C1073 0.950 . S
C1062 H1054 0.950 . S
C1062 C1063 1.386 . S
C1062 C1064 1.391 . S
C1063 C1062 1.386 . S
C1063 C1067 1.393 . S
C1064 H1056 0.950 . S
C1064 C1062 1.391 . S
C1064 C1065 1.400 . S
C1065 C1064 1.400 . S
C1065 C1066 1.398 . S
C1065 C1071 1.491 . S
C1066 H1057 0.950 . S
C1066 C1065 1.398 . S
C1066 C1067 1.391 . S
C1067 H1055 0.950 . S
C1067 C1063 1.393 . S
C1067 C1066 1.391 . S
C1068 H1058 0.950 . S
C1068 C1069 1.386 . S
C1068 C1070 1.391 . S
C1069 C1068 1.386 . S
C1069 C1073 1.393 . S
C1070 H1059 0.950 . S
C1070 C1068 1.391 . S
C1070 C1071 1.400 . S
C1071 C1065 1.491 . S
C1071 C1070 1.400 . S
C1071 C1072 1.398 . S
C1072 H1060 0.950 . S
C1072 C1071 1.398 . S
C1072 C1073 1.391 . S
C1073 H1061 0.950 . S
C1073 C1069 1.393 . S
C1073 C1072 1.391 . S
H1074 C1082 0.950 . S
H1075 C1087 0.950 . S
H1076 C1084 0.950 . S
H1077 C1086 0.950 . S
H1078 C1088 0.950 . S
H1079 C1090 0.950 . S
H1080 C1092 0.950 . S
H1081 C1093 0.950 . S
C1082 H1074 0.950 . S
C1082 C1083 1.386 . S
C1082 C1084 1.391 . S
C1083 C1082 1.386 . S
C1083 C1087 1.393 . S
C1084 H1076 0.950 . S
C1084 C1082 1.391 . S
C1084 C1085 1.400 . S
C1085 C1084 1.400 . S
C1085 C1086 1.398 . S
C1085 C1091 1.491 . S
C1086 H1077 0.950 . S
C1086 C1085 1.398 . S
C1086 C1087 1.391 . S
C1087 H1075 0.950 . S
C1087 C1083 1.393 . S
C1087 C1086 1.391 . S
C1088 H1078 0.950 . S
C1088 C1089 1.386 . S
C1088 C1090 1.391 . S
C1089 C1088 1.386 . S
C1089 C1093 1.393 . S
C1090 H1079 0.950 . S
C1090 C1088 1.391 . S
C1090 C1091 1.400 . S
C1091 C1085 1.491 . S
C1091 C1090 1.400 . S
C1091 C1092 1.398 . S
C1092 H1080 0.950 . S
C1092 C1091 1.398 . S
C1092 C1093 1.391 . S
C1093 H1081 0.950 . S
C1093 C1089 1.393 . S
C1093 C1092 1.391 . S
H1094 C1102 0.950 . S
H1095 C1107 0.950 . S
H1096 C1104 0.950 . S
H1097 C1106 0.950 . S
H1098 C1108 0.950 . S
H1099 C1110 0.950 . S
H1100 C1112 0.950 . S
H1101 C1113 0.950 . S
C1102 H1094 0.950 . S
C1102 C1103 1.386 . S
C1102 C1104 1.391 . S
C1103 C1102 1.386 . S
C1103 C1107 1.393 . S
C1104 H1096 0.950 . S
C1104 C1102 1.391 . S
C1104 C1105 1.400 . S
C1105 C1104 1.400 . S
C1105 C1106 1.398 . S
C1105 C1111 1.491 . S
C1106 H1097 0.950 . S
C1106 C1105 1.398 . S
C1106 C1107 1.391 . S
C1107 H1095 0.950 . S
C1107 C1103 1.393 . S
C1107 C1106 1.391 . S
C1108 H1098 0.950 . S
C1108 C1109 1.386 . S
C1108 C1110 1.391 . S
C1109 C1108 1.386 . S
C1109 C1113 1.393 . S
C1110 H1099 0.950 . S
C1110 C1108 1.391 . S
C1110 C1111 1.400 . S
C1111 C1105 1.491 . S
C1111 C1110 1.400 . S
C1111 C1112 1.398 . S
C1112 H1100 0.950 . S
C1112 C1111 1.398 . S
C1112 C1113 1.391 . S
C1113 H1101 0.950 . S
C1113 C1109 1.393 . S
C1113 C1112 1.391 . S
H1114 C1122 0.950 . S
H1115 C1127 0.950 . S
H1116 C1124 0.950 . S
H1117 C1126 0.950 . S
H1118 C1128 0.950 . S
H1119 C1130 0.950 . S
H1120 C1132 0.950 . S
H1121 C1133 0.950 . S
C1122 H1114 0.950 . S
C1122 C1123 1.386 . S
C1122 C1124 1.391 . S
C1123 C1122 1.386 . S
C1123 C1127 1.393 . S
C1124 H1116 0.950 . S
C1124 C1122 1.391 . S
C1124 C1125 1.400 . S
C1125 C1124 1.400 . S
C1125 C1126 1.398 . S
C1125 C1131 1.491 . S
C1126 H1117 0.950 . S
C1126 C1125 1.398 . S
C1126 C1127 1.391 . S
C1127 H1115 0.950 . S
C1127 C1123 1.393 . S
C1127 C1126 1.391 . S
C1128 H1118 0.950 . S
C1128 C1129 1.386 . S
C1128 C1130 1.391 . S
C1129 C1128 1.386 . S
C1129 C1133 1.393 . S
C1130 H1119 0.950 . S
C1130 C1128 1.391 . S
C1130 C1131 1.400 . S
C1131 C1125 1.491 . S
C1131 C1130 1.400 . S
C1131 C1132 1.398 . S
C1132 H1120 0.950 . S
C1132 C1131 1.398 . S
C1132 C1133 1.391 . S
C1133 H1121 0.950 . S
C1133 C1129 1.393 . S
C1133 C1132 1.391 . S
H1134 C1142 0.950 . S
H1135 C1147 0.950 . S
H1136 C1144 0.950 . S
H1137 C1146 0.950 . S
H1138 C1148 0.950 . S
H1139 C1150 0.950 . S
H1140 C1152 0.950 . S
H1141 C1153 0.950 . S
C1142 H1134 0.950 . S
C1142 C1143 1.386 . S
C1142 C1144 1.391 . S
C1143 C1142 1.386 . S
C1143 C1147 1.393 . S
C1144 H1136 0.950 . S
C1144 C1142 1.391 . S
C1144 C1145 1.400 . S
C1145 C1144 1.400 . S
C1145 C1146 1.398 . S
C1145 C1151 1.491 . S
C1146 H1137 0.950 . S
C1146 C1145 1.398 . S
C1146 C1147 1.391 . S
C1147 H1135 0.950 . S
C1147 C1143 1.393 . S
C1147 C1146 1.391 . S
C1148 H1138 0.950 . S
C1148 C1149 1.386 . S
C1148 C1150 1.391 . S
C1149 C1148 1.386 . S
C1149 C1153 1.393 . S
C1150 H1139 0.950 . S
C1150 C1148 1.391 . S
C1150 C1151 1.400 . S
C1151 C1145 1.491 . S
C1151 C1150 1.400 . S
C1151 C1152 1.398 . S
C1152 H1140 0.950 . S
C1152 C1151 1.398 . S
C1152 C1153 1.391 . S
C1153 H1141 0.950 . S
C1153 C1149 1.393 . S
C1153 C1152 1.391 . S
H1154 C1162 0.950 . S
H1155 C1167 0.950 . S
H1156 C1164 0.950 . S
H1157 C1166 0.950 . S
H1158 C1168 0.950 . S
H1159 C1170 0.950 . S
H1160 C1172 0.950 . S
H1161 C1173 0.950 . S
C1162 H1154 0.950 . S
C1162 C1163 1.386 . S
C1162 C1164 1.391 . S
C1163 C1162 1.386 . S
C1163 C1167 1.393 . S
C1164 H1156 0.950 . S
C1164 C1162 1.391 . S
C1164 C1165 1.400 . S
C1165 C1164 1.400 . S
C1165 C1166 1.398 . S
C1165 C1171 1.491 . S
C1166 H1157 0.950 . S
C1166 C1165 1.398 . S
C1166 C1167 1.391 . S
C1167 H1155 0.950 . S
C1167 C1163 1.393 . S
C1167 C1166 1.391 . S
C1168 H1158 0.950 . S
C1168 C1169 1.386 . S
C1168 C1170 1.391 . S
C1169 C1168 1.386 . S
C1169 C1173 1.393 . S
C1170 H1159 0.950 . S
C1170 C1168 1.391 . S
C1170 C1171 1.400 . S
C1171 C1165 1.491 . S
C1171 C1170 1.400 . S
C1171 C1172 1.398 . S
C1172 H1160 0.950 . S
C1172 C1171 1.398 . S
C1172 C1173 1.391 . S
C1173 H1161 0.950 . S
C1173 C1169 1.393 . S
C1173 C1172 1.391 . S
H1174 C1182 0.950 . S
H1175 C1187 0.950 . S
H1176 C1184 0.950 . S
H1177 C1186 0.950 . S
H1178 C1188 0.950 . S
H1179 C1190 0.950 . S
H1180 C1192 0.950 . S
H1181 C1193 0.950 . S
C1182 H1174 0.950 . S
C1182 C1183 1.386 . S
C1182 C1184 1.391 . S
C1183 C1182 1.386 . S
C1183 C1187 1.393 . S
C1184 H1176 0.950 . S
C1184 C1182 1.391 . S
C1184 C1185 1.400 . S
C1185 C1184 1.400 . S
C1185 C1186 1.398 . S
C1185 C1191 1.491 . S
C1186 H1177 0.950 . S
C1186 C1185 1.398 . S
C1186 C1187 1.391 . S
C1187 H1175 0.950 . S
C1187 C1183 1.393 . S
C1187 C1186 1.391 . S
C1188 H1178 0.950 . S
C1188 C1189 1.386 . S
C1188 C1190 1.391 1_565 S
C1189 C1188 1.386 . S
C1189 C1193 1.393 . S
C1190 H1179 0.950 . S
C1190 C1188 1.391 1_545 S
C1190 C1191 1.400 . S
C1191 C1185 1.491 . S
C1191 C1190 1.400 . S
C1191 C1192 1.398 . S
C1192 H1180 0.950 . S
C1192 C1191 1.398 . S
C1192 C1193 1.391 1_545 S
C1193 H1181 0.950 . S
C1193 C1189 1.393 . S
C1193 C1192 1.391 1_565 S
H1194 C1202 0.950 . S
H1195 C1207 0.950 . S
H1196 C1204 0.950 . S
H1197 C1206 0.950 . S
H1198 C1208 0.950 . S
H1199 C1210 0.950 . S
H1200 C1212 0.950 . S
H1201 C1213 0.950 . S
C1202 H1194 0.950 . S
C1202 C1203 1.386 . S
C1202 C1204 1.391 . S
C1203 C1202 1.386 . S
C1203 C1207 1.393 1_554 S
C1204 H1196 0.950 . S
C1204 C1202 1.391 . S
C1204 C1205 1.400 1_554 S
C1205 C1204 1.400 1_556 S
C1205 C1206 1.398 . S
C1205 C1211 1.491 . S
C1206 H1197 0.950 . S
C1206 C1205 1.398 . S
C1206 C1207 1.391 . S
C1207 H1195 0.950 . S
C1207 C1203 1.393 1_556 S
C1207 C1206 1.391 . S
C1208 H1198 0.950 . S
C1208 C1209 1.386 . S
C1208 C1210 1.391 . S
C1209 C1208 1.386 . S
C1209 C1213 1.393 . S
C1210 H1199 0.950 . S
C1210 C1208 1.391 . S
C1210 C1211 1.400 . S
C1211 C1205 1.491 . S
C1211 C1210 1.400 . S
C1211 C1212 1.398 . S
C1212 H1200 0.950 . S
C1212 C1211 1.398 . S
C1212 C1213 1.391 . S
C1213 H1201 0.950 . S
C1213 C1209 1.393 . S
C1213 C1212 1.391 . S
H1214 C1222 0.950 . S
H1215 C1227 1.000 1_554 S
H1216 C1224 0.950 . S
H1217 C1226 0.950 . S
H1218 C1228 0.950 . S
H1219 C1230 0.950 . S
H1220 C1232 0.950 . S
H1221 C1233 0.950 . S
C1222 H1214 0.950 . S
C1222 C1223 1.386 . S
C1222 C1224 1.391 . S
C1223 C1222 1.386 . S
C1223 C1227 1.393 . S
C1224 H1216 0.950 . S
C1224 C1222 1.391 . S
C1224 C1225 1.400 . S
C1225 C1224 1.400 . S
C1225 C1226 1.398 . S
C1225 C1231 1.491 . S
C1226 H1217 0.950 . S
C1226 C1225 1.398 . S
C1226 C1227 1.391 . S
C1227 H1215 1.000 1_556 S
C1227 C1223 1.393 . S
C1227 C1226 1.391 . S
C1228 H1218 0.950 . S
C1228 C1229 1.386 . S
C1228 C1230 1.391 . S
C1229 C1228 1.386 . S
C1229 C1233 1.393 . S
C1230 H1219 0.950 . S
C1230 C1228 1.391 . S
C1230 C1231 1.400 . S
C1231 C1225 1.491 . S
C1231 C1230 1.400 . S
C1231 C1232 1.398 . S
C1232 H1220 0.950 . S
C1232 C1231 1.398 . S
C1232 C1233 1.391 . S
C1233 H1221 0.950 . S
C1233 C1229 1.393 . S
C1233 C1232 1.391 . S
H1234 C1242 0.950 . S
H1235 C1247 0.950 . S
H1236 C1244 0.950 . S
H1237 C1246 0.950 . S
H1238 C1248 0.950 . S
H1239 C1250 0.950 . S
H1240 C1252 0.950 . S
H1241 C1253 0.950 . S
C1242 H1234 0.950 . S
C1242 C1243 1.386 . S
C1242 C1244 1.391 . S
C1243 C1242 1.386 . S
C1243 C1247 1.393 . S
C1244 H1236 0.950 . S
C1244 C1242 1.391 . S
C1244 C1245 1.400 . S
C1245 C1244 1.400 . S
C1245 C1246 1.398 . S
C1245 C1251 1.491 . S
C1246 H1237 0.950 . S
C1246 C1245 1.398 . S
C1246 C1247 1.391 . S
C1247 H1235 0.950 . S
C1247 C1243 1.393 . S
C1247 C1246 1.391 . S
C1248 H1238 0.950 . S
C1248 C1249 1.386 . S
C1248 C1250 1.391 . S
C1249 C1248 1.386 . S
C1249 C1253 1.393 1_556 S
C1250 H1239 0.950 . S
C1250 C1248 1.391 . S
C1250 C1251 1.400 . S
C1251 C1245 1.491 . S
C1251 C1250 1.400 . S
C1251 C1252 1.398 . S
C1252 H1240 0.950 . S
C1252 C1251 1.398 . S
C1252 C1253 1.391 1_556 S
C1253 H1241 0.950 . S
C1253 C1249 1.393 1_554 S
C1253 C1252 1.391 1_554 S
H1254 C1262 0.950 1_554 S
H1255 C1267 0.998 . S
H1256 C1264 0.950 . S
H1257 C1266 0.950 . S
H1258 C1268 0.950 . S
H1259 C1270 0.950 . S
H1260 C1272 0.950 . S
H1261 C1273 0.950 . S
C1262 H1254 0.950 1_556 S
C1262 C1263 1.386 . S
C1262 C1264 1.391 1_455 S
C1263 C1262 1.386 . S
C1263 C1267 1.409 . S
C1264 H1256 0.950 . S
C1264 C1262 1.391 1_655 S
C1264 C1265 1.400 . S
C1265 C1264 1.400 . S
C1265 C1266 1.398 . S
C1265 C1271 1.491 . S
C1266 H1257 0.950 . S
C1266 C1265 1.398 . S
C1266 C1267 1.330 1_655 S
C1267 H1255 0.998 . S
C1267 C1263 1.409 . S
C1267 C1266 1.330 1_455 S
C1268 H1258 0.950 . S
C1268 C1269 1.386 . S
C1268 C1270 1.391 . S
C1269 C1268 1.386 . S
C1269 C1273 1.393 . S
C1270 H1259 0.950 . S
C1270 C1268 1.391 . S
C1270 C1271 1.400 . S
C1271 C1265 1.491 . S
C1271 C1270 1.400 . S
C1271 C1272 1.398 . S
C1272 H1260 0.950 . S
C1272 C1271 1.398 . S
C1272 C1273 1.391 . S
C1273 H1261 0.950 . S
C1273 C1269 1.393 . S
C1273 C1272 1.391 . S
H1274 C1282 0.958 . S
H1275 C1287 0.950 . S
H1276 C1284 0.950 . S
H1277 C1286 0.950 . S
H1278 C1288 0.950 . S
H1279 C1290 0.950 . S
H1280 C1292 0.950 . S
H1281 C1293 0.950 . S
C1282 H1274 0.958 . S
C1282 C1283 1.385 1_554 S
C1282 C1284 1.384 1_554 S
C1283 C1282 1.385 1_556 S
C1283 C1287 1.393 . S
C1284 H1276 0.950 . S
C1284 C1282 1.384 1_556 S
C1284 C1285 1.400 . S
C1285 C1284 1.400 . S
C1285 C1286 1.398 . S
C1285 C1291 1.491 . S
C1286 H1277 0.950 . S
C1286 C1285 1.398 . S
C1286 C1287 1.391 . S
C1287 H1275 0.950 . S
C1287 C1283 1.393 . S
C1287 C1286 1.391 . S
C1288 H1278 0.950 . S
C1288 C1289 1.386 . S
C1288 C1290 1.391 . S
C1289 C1288 1.386 . S
C1289 C1293 1.393 . S
C1290 H1279 0.950 . S
C1290 C1288 1.391 . S
C1290 C1291 1.400 . S
C1291 C1285 1.491 . S
C1291 C1290 1.400 . S
C1291 C1292 1.398 . S
C1292 H1280 0.950 . S
C1292 C1291 1.398 . S
C1292 C1293 1.391 . S
C1293 H1281 0.950 . S
C1293 C1289 1.393 . S
C1293 C1292 1.391 . S
H1294 C1302 0.950 . S
H1295 C1307 0.950 . S
H1296 C1304 0.950 . S
H1297 C1306 0.950 . S
H1298 C1308 0.950 . S
H1299 C1310 0.950 . S
H1300 C1312 0.950 . S
H1301 C1313 0.950 . S
C1302 H1294 0.950 . S
C1302 C1303 1.386 . S
C1302 C1304 1.391 . S
C1303 C1302 1.386 . S
C1303 C1307 1.393 . S
C1304 H1296 0.950 . S
C1304 C1302 1.391 . S
C1304 C1305 1.400 . S
C1305 C1304 1.400 . S
C1305 C1306 1.398 . S
C1305 C1311 1.491 . S
C1306 H1297 0.950 . S
C1306 C1305 1.398 . S
C1306 C1307 1.391 . S
C1307 H1295 0.950 . S
C1307 C1303 1.393 . S
C1307 C1306 1.391 . S
C1308 H1298 0.950 . S
C1308 C1309 1.386 . S
C1308 C1310 1.391 . S
C1309 C1308 1.386 . S
C1309 C1313 1.393 . S
C1310 H1299 0.950 . S
C1310 C1308 1.391 . S
C1310 C1311 1.400 . S
C1311 C1305 1.491 . S
C1311 C1310 1.400 . S
C1311 C1312 1.398 . S
C1312 H1300 0.950 . S
C1312 C1311 1.398 . S
C1312 C1313 1.391 . S
C1313 H1301 0.950 . S
C1313 C1309 1.393 . S
C1313 C1312 1.391 . S
H1314 C1322 0.950 . S
H1315 C1327 0.950 . S
H1316 C1324 0.950 . S
H1317 C1326 0.950 . S
H1318 C1328 0.950 . S
H1319 C1330 0.950 . S
H1320 C1332 0.950 . S
H1321 C1333 0.950 . S
C1322 H1314 0.950 . S
C1322 C1323 1.386 . S
C1322 C1324 1.391 . S
C1323 C1322 1.386 . S
C1323 C1327 1.393 . S
C1324 H1316 0.950 . S
C1324 C1322 1.391 . S
C1324 C1325 1.400 . S
C1325 C1324 1.400 . S
C1325 C1326 1.398 . S
C1325 C1331 1.491 . S
C1326 H1317 0.950 . S
C1326 C1325 1.398 . S
C1326 C1327 1.391 . S
C1327 H1315 0.950 . S
C1327 C1323 1.393 . S
C1327 C1326 1.391 . S
C1328 H1318 0.950 . S
C1328 C1329 1.386 1_565 S
C1328 C1330 1.391 . S
C1329 C1328 1.386 1_545 S
C1329 C1333 1.393 . S
C1330 H1319 0.950 . S
C1330 C1328 1.391 . S
C1330 C1331 1.400 . S
C1331 C1325 1.491 . S
C1331 C1330 1.400 . S
C1331 C1332 1.398 1_565 S
C1332 H1320 0.950 . S
C1332 C1331 1.398 1_545 S
C1332 C1333 1.391 . S
C1333 H1321 0.950 . S
C1333 C1329 1.393 . S
C1333 C1332 1.391 . S
H1334 C1342 0.950 . S
H1335 C1347 0.950 . S
H1336 C1344 0.950 . S
H1337 C1346 0.950 . S
H1338 C1348 0.950 . S
H1339 C1350 0.950 . S
H1340 C1352 0.950 . S
H1341 C1353 0.950 . S
C1342 H1334 0.950 . S
C1342 C1343 1.386 . S
C1342 C1344 1.391 . S
C1343 C1342 1.386 . S
C1343 C1347 1.393 . S
C1344 H1336 0.950 . S
C1344 C1342 1.391 . S
C1344 C1345 1.400 . S
C1345 C1344 1.400 . S
C1345 C1346 1.398 . S
C1345 C1351 1.491 . S
C1346 H1337 0.950 . S
C1346 C1345 1.398 . S
C1346 C1347 1.391 . S
C1347 H1335 0.950 . S
C1347 C1343 1.393 . S
C1347 C1346 1.391 . S
C1348 H1338 0.950 . S
C1348 C1349 1.386 . S
C1348 C1350 1.391 . S
C1349 C1348 1.386 . S
C1349 C1353 1.393 . S
C1350 H1339 0.950 . S
C1350 C1348 1.391 . S
C1350 C1351 1.400 . S
C1351 C1345 1.491 . S
C1351 C1350 1.400 . S
C1351 C1352 1.398 . S
C1352 H1340 0.950 . S
C1352 C1351 1.398 . S
C1352 C1353 1.391 . S
C1353 H1341 0.950 . S
C1353 C1349 1.393 . S
C1353 C1352 1.391 . S
H1354 C1362 0.950 . S
H1355 C1367 0.950 . S
H1356 C1364 0.950 . S
H1357 C1366 0.950 . S
H1358 C1368 0.950 . S
H1359 C1370 0.950 . S
H1360 C1372 0.950 . S
H1361 C1373 0.950 . S
C1362 H1354 0.950 . S
C1362 C1363 1.386 . S
C1362 C1364 1.391 . S
C1363 C1362 1.386 . S
C1363 C1367 1.393 . S
C1364 H1356 0.950 . S
C1364 C1362 1.391 . S
C1364 C1365 1.400 . S
C1365 C1364 1.400 . S
C1365 C1366 1.398 . S
C1365 C1371 1.491 . S
C1366 H1357 0.950 . S
C1366 C1365 1.398 . S
C1366 C1367 1.391 . S
C1367 H1355 0.950 . S
C1367 C1363 1.393 . S
C1367 C1366 1.391 . S
C1368 H1358 0.950 . S
C1368 C1369 1.386 . S
C1368 C1370 1.391 . S
C1369 C1368 1.386 . S
C1369 C1373 1.393 . S
C1370 H1359 0.950 . S
C1370 C1368 1.391 . S
C1370 C1371 1.400 . S
C1371 C1365 1.491 . S
C1371 C1370 1.400 . S
C1371 C1372 1.398 . S
C1372 H1360 0.950 . S
C1372 C1371 1.398 . S
C1372 C1373 1.391 . S
C1373 H1361 0.950 . S
C1373 C1369 1.393 . S
C1373 C1372 1.391 . S
H1374 C1382 0.950 . S
H1375 C1387 0.950 . S
H1376 C1384 0.950 . S
H1377 C1386 0.950 . S
H1378 C1388 0.950 . S
H1379 C1390 0.950 . S
H1380 C1392 0.950 . S
H1381 C1393 0.950 . S
C1382 H1374 0.950 . S
C1382 C1383 1.386 . S
C1382 C1384 1.391 . S
C1383 C1382 1.386 . S
C1383 C1387 1.393 . S
C1384 H1376 0.950 . S
C1384 C1382 1.391 . S
C1384 C1385 1.400 . S
C1385 C1384 1.400 . S
C1385 C1386 1.398 . S
C1385 C1391 1.491 . S
C1386 H1377 0.950 . S
C1386 C1385 1.398 . S
C1386 C1387 1.391 . S
C1387 H1375 0.950 . S
C1387 C1383 1.393 . S
C1387 C1386 1.391 . S
C1388 H1378 0.950 . S
C1388 C1389 1.386 . S
C1388 C1390 1.391 . S
C1389 C1388 1.386 . S
C1389 C1393 1.393 . S
C1390 H1379 0.950 . S
C1390 C1388 1.391 . S
C1390 C1391 1.400 . S
C1391 C1385 1.491 . S
C1391 C1390 1.400 . S
C1391 C1392 1.398 . S
C1392 H1380 0.950 . S
C1392 C1391 1.398 . S
C1392 C1393 1.391 . S
C1393 H1381 0.950 . S
C1393 C1389 1.393 . S
C1393 C1392 1.391 . S
H1394 C1402 0.950 . S
H1395 C1407 0.950 . S
H1396 C1404 0.950 . S
H1397 C1406 0.950 . S
H1398 C1408 0.950 . S
H1399 C1410 0.950 . S
H1400 C1412 0.950 . S
H1401 C1413 0.950 . S
C1402 H1394 0.950 . S
C1402 C1403 1.386 . S
C1402 C1404 1.391 . S
C1403 C1402 1.386 . S
C1403 C1407 1.393 . S
C1404 H1396 0.950 . S
C1404 C1402 1.391 . S
C1404 C1405 1.400 . S
C1405 C1404 1.400 . S
C1405 C1406 1.398 . S
C1405 C1411 1.491 . S
C1406 H1397 0.950 . S
C1406 C1405 1.398 . S
C1406 C1407 1.391 . S
C1407 H1395 0.950 . S
C1407 C1403 1.393 . S
C1407 C1406 1.391 . S
C1408 H1398 0.950 . S
C1408 C1409 1.386 . S
C1408 C1410 1.391 . S
C1409 C1408 1.386 . S
C1409 C1413 1.393 . S
C1410 H1399 0.950 . S
C1410 C1408 1.391 . S
C1410 C1411 1.400 . S
C1411 C1405 1.491 . S
C1411 C1410 1.400 . S
C1411 C1412 1.398 . S
C1412 H1400 0.950 . S
C1412 C1411 1.398 . S
C1412 C1413 1.391 . S
C1413 H1401 0.950 . S
C1413 C1409 1.393 . S
C1413 C1412 1.391 . S
H1414 C1422 0.950 . S
H1415 C1427 0.950 . S
H1416 C1424 0.950 . S
H1417 C1426 0.950 . S
H1418 C1428 0.950 . S
H1419 C1430 0.950 . S
H1420 C1432 0.950 . S
H1421 C1433 0.950 . S
C1422 H1414 0.950 . S
C1422 C1423 1.386 . S
C1422 C1424 1.391 . S
C1423 C1422 1.386 . S
C1423 C1427 1.393 . S
C1424 H1416 0.950 . S
C1424 C1422 1.391 . S
C1424 C1425 1.400 . S
C1425 C1424 1.400 . S
C1425 C1426 1.398 . S
C1425 C1431 1.491 . S
C1426 H1417 0.950 . S
C1426 C1425 1.398 . S
C1426 C1427 1.391 . S
C1427 H1415 0.950 . S
C1427 C1423 1.393 . S
C1427 C1426 1.391 . S
C1428 H1418 0.950 . S
C1428 C1429 1.386 . S
C1428 C1430 1.391 1_655 S
C1429 C1428 1.386 . S
C1429 C1433 1.393 . S
C1430 H1419 0.950 . S
C1430 C1428 1.391 1_455 S
C1430 C1431 1.400 . S
C1431 C1425 1.491 . S
C1431 C1430 1.400 . S
C1431 C1432 1.398 . S
C1432 H1420 0.950 . S
C1432 C1431 1.398 . S
C1432 C1433 1.391 1_455 S
C1433 H1421 0.950 . S
C1433 C1429 1.393 . S
C1433 C1432 1.391 1_655 S
H1434 C1442 0.950 . S
H1435 C1447 0.950 . S
H1436 C1444 0.950 . S
H1437 C1446 0.950 . S
H1438 C1448 0.950 . S
H1439 C1450 0.950 . S
H1440 C1452 0.950 . S
H1441 C1453 0.950 . S
C1442 H1434 0.950 . S
C1442 C1443 1.386 . S
C1442 C1444 1.391 . S
C1443 C1442 1.386 . S
C1443 C1447 1.393 . S
C1444 H1436 0.950 . S
C1444 C1442 1.391 . S
C1444 C1445 1.400 . S
C1445 C1444 1.400 . S
C1445 C1446 1.398 . S
C1445 C1451 1.491 . S
C1446 H1437 0.950 . S
C1446 C1445 1.398 . S
C1446 C1447 1.391 . S
C1447 H1435 0.950 . S
C1447 C1443 1.393 . S
C1447 C1446 1.391 . S
C1448 H1438 0.950 . S
C1448 C1449 1.386 . S
C1448 C1450 1.391 . S
C1449 C1448 1.386 . S
C1449 C1453 1.393 . S
C1450 H1439 0.950 . S
C1450 C1448 1.391 . S
C1450 C1451 1.400 . S
C1451 C1445 1.491 . S
C1451 C1450 1.400 . S
C1451 C1452 1.398 . S
C1452 H1440 0.950 . S
C1452 C1451 1.398 . S
C1452 C1453 1.391 . S
C1453 H1441 0.950 . S
C1453 C1449 1.393 . S
C1453 C1452 1.391 . S
H1454 C1462 0.950 . S
H1455 C1467 0.950 . S
H1456 C1464 0.950 . S
H1457 C1466 0.950 . S
H1458 C1468 0.950 . S
H1459 C1470 0.950 . S
H1460 C1472 0.950 . S
H1461 C1473 0.950 . S
C1462 H1454 0.950 . S
C1462 C1463 1.386 . S
C1462 C1464 1.391 . S
C1463 C1462 1.386 . S
C1463 C1467 1.393 . S
C1464 H1456 0.950 . S
C1464 C1462 1.391 . S
C1464 C1465 1.400 . S
C1465 C1464 1.400 . S
C1465 C1466 1.398 . S
C1465 C1471 1.491 . S
C1466 H1457 0.950 . S
C1466 C1465 1.398 . S
C1466 C1467 1.391 . S
C1467 H1455 0.950 . S
C1467 C1463 1.393 . S
C1467 C1466 1.391 . S
C1468 H1458 0.950 . S
C1468 C1469 1.386 . S
C1468 C1470 1.391 . S
C1469 C1468 1.386 . S
C1469 C1473 1.393 . S
C1470 H1459 0.950 . S
C1470 C1468 1.391 . S
C1470 C1471 1.400 . S
C1471 C1465 1.491 . S
C1471 C1470 1.400 . S
C1471 C1472 1.398 . S
C1472 H1460 0.950 . S
C1472 C1471 1.398 . S
C1472 C1473 1.391 . S
C1473 H1461 0.950 . S
C1473 C1469 1.393 . S
C1473 C1472 1.391 . S
H1474 C1482 0.950 . S
H1475 C1487 0.950 . S
H1476 C1484 0.950 . S
H1477 C1486 0.950 . S
H1478 C1488 0.950 . S
H1479 C1490 0.950 . S
H1480 C1492 0.950 . S
H1481 C1493 0.950 . S
C1482 H1474 0.950 . S
C1482 C1483 1.386 . S
C1482 C1484 1.391 1_655 S
C1483 C1482 1.386 . S
C1483 C1487 1.393 . S
C1484 H1476 0.950 . S
C1484 C1482 1.391 1_455 S
C1484 C1485 1.400 . S
C1485 C1484 1.400 . S
C1485 C1486 1.398 . S
C1485 C1491 1.491 . S
C1486 H1477 0.950 . S
C1486 C1485 1.398 . S
C1486 C1487 1.391 1_455 S
C1487 H1475 0.950 . S
C1487 C1483 1.393 . S
C1487 C1486 1.391 1_655 S
C1488 H1478 0.950 . S
C1488 C1489 1.386 . S
C1488 C1490 1.391 . S
C1489 C1488 1.386 . S
C1489 C1493 1.393 . S
C1490 H1479 0.950 . S
C1490 C1488 1.391 . S
C1490 C1491 1.400 . S
C1491 C1485 1.491 . S
C1491 C1490 1.400 . S
C1491 C1492 1.398 . S
C1492 H1480 0.950 . S
C1492 C1491 1.398 . S
C1492 C1493 1.391 . S
C1493 H1481 0.950 . S
C1493 C1489 1.393 . S
C1493 C1492 1.391 . S
C603 N5 1.496 . S
C609 N14 1.493 . S
C623 N47 1.514 . S
C629 N38 1.516 . S
C643 N71 1.516 . S
C649 N80 1.513 . S
C663 N113 1.503 . S
C669 N104 1.506 . S
C683 N146 1.507 . S
C689 N137 1.509 . S
C703 N179 1.507 . S
C709 N170 1.511 . S
C723 N203 1.495 . S
C729 N212 1.492 . S
C743 N236 1.505 . S
C749 N245 1.502 . S
C763 N269 1.515 . S
C769 N278 1.511 . S
C783 N311 1.486 . S
C789 N302 1.490 . S
C803 N335 1.495 . S
C809 N344 1.490 . S
C823 N368 1.510 . S
C829 N377 1.507 . S
C843 N401 1.489 . S
C849 N410 1.485 1_554 S
C863 N443 1.498 . S
C869 N434 1.500 1_554 S
C883 N476 1.501 1_554 S
C889 N467 1.505 . S
C903 N500 1.494 1_554 S
C909 N509 1.491 . S
C923 N533 1.505 . S
C929 N542 1.503 1_554 S
C943 N575 1.503 . S
C949 N566 1.506 . S
C963 C116 1.247 . S
C969 C17 1.250 . S
C983 C149 1.266 . S
C989 C50 1.264 . S
C1003 C182 1.255 . S
C1009 C83 1.253 . S
C1023 C215 1.208 . S
C1029 C314 1.211 . S
C1043 C347 1.217 . S
C1049 C248 1.221 . S
C1063 C380 1.210 . S
C1069 C281 1.214 . S
C1083 C512 1.231 . S
C1089 C413 1.230 . S
C1103 C446 1.278 . S
C1109 C545 1.279 . S
C1123 C479 1.269 . S
C1129 C578 1.265 . S
C1143 C272 0.781 . S
C1149 C8 0.816 . S
C1163 C206 0.833 . S
C1169 C61 0.783 . S
C1183 C74 0.859 . S
C1189 C239 0.829 . S
C1203 C94 0.855 . S
C1209 C404 0.833 . S
C1223 C28 0.793 . S
C1229 C457 0.823 . S
C1243 C470 0.848 . S
C1249 C41 0.874 . S
C1263 C107 0.885 . S
C1269 C589 0.886 . S
C1283 C160 0.764 1_556 S
C1289 C523 0.794 . S
C1303 C536 0.862 . S
C1309 C173 0.867 . S
C1323 C305 0.822 . S
C1329 C193 0.784 . S
C1343 C127 0.792 . S
C1349 C338 0.776 . S
C1363 C140 0.853 . S
C1369 C371 0.864 . S
C1383 C226 0.776 . S
C1389 C490 0.729 . S
C1403 C259 0.782 . S
C1409 C424 0.741 . S
C1423 C292 0.818 . S
C1429 C437 0.828 . S
C1443 C503 0.808 . S
C1449 C391 0.762 . S
C1463 C556 0.762 . S
C1469 C325 0.762 . S
C1483 C569 0.809 . S
C1489 C358 0.800 . S
