# Generated by pormake.
# Topology smd, (6)-cn, num edge types: 1
# Building blocks:
#     Node 0, Type 0, BuildingBlock: KUMBOL_clean_sbu_0, # of connection points: 6
#     Node 1, Type 0, BuildingBlock: KUMBOL_clean_sbu_0, # of connection points: 6
#     Node 2, Type 0, BuildingBlock: KUMBOL_clean_sbu_0, # of connection points: 6
#     Node 3, Type 0, BuildingBlock: KUMBOL_clean_sbu_0, # of connection points: 6
#     Node 4, Type 0, BuildingBlock: KUMBOL_clean_sbu_0, # of connection points: 6
#     Node 5, Type 0, BuildingBlock: KUMBOL_clean_sbu_0, # of connection points: 6
#     Node 6, Type 0, BuildingBlock: KUMBOL_clean_sbu_0, # of connection points: 6
#     Node 7, Type 0, BuildingBlock: KUMBOL_clean_sbu_0, # of connection points: 6
#     Node 8, Type 0, BuildingBlock: KUMBOL_clean_sbu_0, # of connection points: 6
#     Node 9, Type 0, BuildingBlock: KUMBOL_clean_sbu_0, # of connection points: 6
#     Node 10, Type 0, BuildingBlock: KUMBOL_clean_sbu_0, # of connection points: 6
#     Node 11, Type 0, BuildingBlock: KUMBOL_clean_sbu_0, # of connection points: 6
#     Node 12, Type 0, BuildingBlock: KUMBOL_clean_sbu_0, # of connection points: 6
#     Node 13, Type 0, BuildingBlock: KUMBOL_clean_sbu_0, # of connection points: 6
#     Node 14, Type 0, BuildingBlock: KUMBOL_clean_sbu_0, # of connection points: 6
#     Node 15, Type 0, BuildingBlock: KUMBOL_clean_sbu_0, # of connection points: 6
#     Node 16, Type 0, BuildingBlock: KUMBOL_clean_sbu_0, # of connection points: 6
#     Node 17, Type 0, BuildingBlock: KUMBOL_clean_sbu_0, # of connection points: 6
#     Edge 18, Type (0, 0), BuildingBlock: XIVTED_clean_linker_0, # of connection points: 2
#     Edge 19, Type (0, 0), BuildingBlock: XIVTED_clean_linker_0, # of connection points: 2
#     Edge 20, Type (0, 0), BuildingBlock: XIVTED_clean_linker_0, # of connection points: 2
#     Edge 21, Type (0, 0), BuildingBlock: XIVTED_clean_linker_0, # of connection points: 2
#     Edge 22, Type (0, 0), BuildingBlock: XIVTED_clean_linker_0, # of connection points: 2
#     Edge 23, Type (0, 0), BuildingBlock: XIVTED_clean_linker_0, # of connection points: 2
#     Edge 24, Type (0, 0), BuildingBlock: XIVTED_clean_linker_0, # of connection points: 2
#     Edge 25, Type (0, 0), BuildingBlock: XIVTED_clean_linker_0, # of connection points: 2
#     Edge 26, Type (0, 0), BuildingBlock: XIVTED_clean_linker_0, # of connection points: 2
#     Edge 27, Type (0, 0), BuildingBlock: XIVTED_clean_linker_0, # of connection points: 2
#     Edge 28, Type (0, 0), BuildingBlock: XIVTED_clean_linker_0, # of connection points: 2
#     Edge 29, Type (0, 0), BuildingBlock: XIVTED_clean_linker_0, # of connection points: 2
#     Edge 30, Type (0, 0), BuildingBlock: XIVTED_clean_linker_0, # of connection points: 2
#     Edge 31, Type (0, 0), BuildingBlock: XIVTED_clean_linker_0, # of connection points: 2
#     Edge 32, Type (0, 0), BuildingBlock: XIVTED_clean_linker_0, # of connection points: 2
#     Edge 33, Type (0, 0), BuildingBlock: XIVTED_clean_linker_0, # of connection points: 2
#     Edge 34, Type (0, 0), BuildingBlock: XIVTED_clean_linker_0, # of connection points: 2
#     Edge 35, Type (0, 0), BuildingBlock: XIVTED_clean_linker_0, # of connection points: 2
#     Edge 36, Type (0, 0), BuildingBlock: XIVTED_clean_linker_0, # of connection points: 2
#     Edge 37, Type (0, 0), BuildingBlock: XIVTED_clean_linker_0, # of connection points: 2
#     Edge 38, Type (0, 0), BuildingBlock: XIVTED_clean_linker_0, # of connection points: 2
#     Edge 39, Type (0, 0), BuildingBlock: XIVTED_clean_linker_0, # of connection points: 2
#     Edge 40, Type (0, 0), BuildingBlock: XIVTED_clean_linker_0, # of connection points: 2
#     Edge 41, Type (0, 0), BuildingBlock: XIVTED_clean_linker_0, # of connection points: 2
#     Edge 42, Type (0, 0), BuildingBlock: XIVTED_clean_linker_0, # of connection points: 2
#     Edge 43, Type (0, 0), BuildingBlock: XIVTED_clean_linker_0, # of connection points: 2
#     Edge 44, Type (0, 0), BuildingBlock: XIVTED_clean_linker_0, # of connection points: 2
#     Edge 45, Type (0, 0), BuildingBlock: XIVTED_clean_linker_0, # of connection points: 2
#     Edge 46, Type (0, 0), BuildingBlock: XIVTED_clean_linker_0, # of connection points: 2
#     Edge 47, Type (0, 0), BuildingBlock: XIVTED_clean_linker_0, # of connection points: 2
#     Edge 48, Type (0, 0), BuildingBlock: XIVTED_clean_linker_0, # of connection points: 2
#     Edge 49, Type (0, 0), BuildingBlock: XIVTED_clean_linker_0, # of connection points: 2
#     Edge 50, Type (0, 0), BuildingBlock: XIVTED_clean_linker_0, # of connection points: 2
#     Edge 51, Type (0, 0), BuildingBlock: XIVTED_clean_linker_0, # of connection points: 2
#     Edge 52, Type (0, 0), BuildingBlock: XIVTED_clean_linker_0, # of connection points: 2
#     Edge 53, Type (0, 0), BuildingBlock: XIVTED_clean_linker_0, # of connection points: 2
#     Edge 54, Type (0, 0), BuildingBlock: XIVTED_clean_linker_0, # of connection points: 2
#     Edge 55, Type (0, 0), BuildingBlock: XIVTED_clean_linker_0, # of connection points: 2
#     Edge 56, Type (0, 0), BuildingBlock: XIVTED_clean_linker_0, # of connection points: 2
#     Edge 57, Type (0, 0), BuildingBlock: XIVTED_clean_linker_0, # of connection points: 2
#     Edge 58, Type (0, 0), BuildingBlock: XIVTED_clean_linker_0, # of connection points: 2
#     Edge 59, Type (0, 0), BuildingBlock: XIVTED_clean_linker_0, # of connection points: 2
#     Edge 60, Type (0, 0), BuildingBlock: XIVTED_clean_linker_0, # of connection points: 2
#     Edge 61, Type (0, 0), BuildingBlock: XIVTED_clean_linker_0, # of connection points: 2
#     Edge 62, Type (0, 0), BuildingBlock: XIVTED_clean_linker_0, # of connection points: 2
#     Edge 63, Type (0, 0), BuildingBlock: XIVTED_clean_linker_0, # of connection points: 2
#     Edge 64, Type (0, 0), BuildingBlock: XIVTED_clean_linker_0, # of connection points: 2
#     Edge 65, Type (0, 0), BuildingBlock: XIVTED_clean_linker_0, # of connection points: 2
#     Edge 66, Type (0, 0), BuildingBlock: XIVTED_clean_linker_0, # of connection points: 2
#     Edge 67, Type (0, 0), BuildingBlock: XIVTED_clean_linker_0, # of connection points: 2
#     Edge 68, Type (0, 0), BuildingBlock: XIVTED_clean_linker_0, # of connection points: 2
#     Edge 69, Type (0, 0), BuildingBlock: XIVTED_clean_linker_0, # of connection points: 2
#     Edge 70, Type (0, 0), BuildingBlock: XIVTED_clean_linker_0, # of connection points: 2
#     Edge 71, Type (0, 0), BuildingBlock: XIVTED_clean_linker_0, # of connection points: 2
# Relax obj value: 0.186
# Max RMSD: 0.315
# Mean RMSD: 0.315
data_MOF--net-smd--node1-KUMBOL_clean_sbu_0--edge1-XIVTED_clean_linker_0
_symmetry_space_group_name_H-M    P1
_symmetry_Int_Tables_number       1
_symmetry_cell_setting            triclinic
loop_
_symmetry_equiv_pos_as_xyz
'x, y, z'
_cell_length_a     66.254686
_cell_length_b     66.283498
_cell_length_c     24.645539
_cell_angle_alpha  90.025621
_cell_angle_beta   90.093974
_cell_angle_gamma 119.94362
loop_
_atom_site_label
_atom_site_type_symbol
_atom_site_fract_x
_atom_site_fract_y
_atom_site_fract_z
_atom_type_partial_charge
Gd0 Gd 1.00847 0.23089 0.4586 0.0
Gd1 Gd 0.03086 0.24077 0.59082 0.0
C2 C 0.08476 0.3188 0.5854 0.0
C3 C 0.12082 0.31861 0.56975 0.0
C4 C 0.08433 0.28209 0.58078 0.0
C5 C 0.07253 0.29421 0.58677 0.0
C6 C 0.10879 0.29425 0.57425 0.0
C7 C 0.10882 0.33087 0.57531 0.0
C8 C 0.07257 0.33056 0.59564 0.0
C9 C 0.04913 0.31786 0.61 0.0
N10 N 0.04924 0.282 0.5963 0.0
C11 C 0.0379 0.29356 0.6115 0.0
H12 H 0.02039 0.28432 0.62645 0.0
C13 C 0.0842 0.24693 0.5946 0.0
N14 N 0.07222 0.25858 0.5862 0.0
C15 C 0.10819 0.25795 0.58641 0.0
C16 C 0.12055 0.28167 0.57487 0.0
H17 H 0.07529 0.2288 0.60614 0.0
H18 H 0.11841 0.34972 0.57338 0.0
H19 H 0.02547 0.19074 0.4288 0.0
H20 H 0.08129 0.3494 0.59487 0.0
H21 H 0.03978 0.32679 0.62085 0.0
H22 H 0.13952 0.32817 0.5639 0.0
H23 H 0.96148 0.2401 0.46734 0.0
H24 H 0.96571 0.1273 0.38523 0.0
H25 H 1.00803 0.15063 0.4009 0.0
H26 H 0.90392 0.14423 0.394 0.0
H27 H 0.11697 0.24798 0.58897 0.0
H28 H 0.13924 0.29026 0.56925 0.0
H29 H 0.92735 0.12538 0.38074 0.0
H30 H 0.9197 0.21812 0.45875 0.0
N31 N 0.99335 0.19092 0.43735 0.0
C32 C 0.97322 0.14503 0.39987 0.0
C33 C 0.99706 0.15809 0.4089 0.0
C34 C 0.95944 0.15517 0.40854 0.0
C35 C 0.97 0.17834 0.42812 0.0
C36 C 1.0069 0.18113 0.4264 0.0
N37 N 0.96693 0.21093 0.45604 0.0
C38 C 0.95647 0.18854 0.43798 0.0
C39 C 0.92972 0.2094 0.45389 0.0
C40 C 0.91886 0.18641 0.43671 0.0
C41 C 0.95381 0.22165 0.46136 0.0
C42 C 0.93224 0.1759 0.42718 0.0
H43 H 0.90025 0.17719 0.42913 0.0
O44 O 0.99941 0.24993 0.40052 0.0
O45 O 0.03094 0.26065 0.51426 0.0
O46 O 0.9993 0.24414 0.60062 0.0
O47 O 0.99515 0.25164 0.51106 0.0
O48 O 0.04544 0.25732 0.44255 0.0
O49 O 1.01452 0.22949 0.3726 0.0
O50 O 0.03998 0.22492 0.65696 0.0
O51 O 1.00676 0.21172 0.53341 0.0
O52 O 0.04239 0.22873 0.45699 0.0
O53 O 0.04359 0.219 0.54619 0.0
O54 O 0.99451 0.21096 0.6105 0.0
O55 O 0.02671 0.24807 0.67449 0.0
C56 C 0.04831 0.27135 0.48169 0.0
C57 C 0.92212 0.15344 0.40539 0.0
C58 C 0.93555 0.14291 0.397 0.0
C59 C 1.00568 0.24236 0.35865 0.0
C60 C 0.99041 0.23452 0.31045 0.0
C61 C 0.96611 0.22396 0.31458 0.0
C62 C 1.00059 0.23735 0.25901 0.0
C63 C 0.98671 0.22959 0.21189 0.0
C64 C 0.9522 0.21609 0.26812 0.0
C65 C 0.96237 0.21882 0.21707 0.0
C66 C 0.98939 0.25044 0.56358 0.0
C67 C 0.98926 0.20038 0.56448 0.0
C68 C 0.03491 0.23549 0.69451 0.0
C69 C 0.05099 0.24573 0.74067 0.0
C70 C 0.07498 0.26046 0.73324 0.0
C71 C 0.04175 0.24153 0.79336 0.0
C72 C 0.05628 0.25179 0.83877 0.0
C73 C 0.08959 0.27048 0.778 0.0
C74 C 0.08037 0.2662 0.83042 0.0
C75 C 0.05186 0.22232 0.49616 0.0
H76 H 0.95783 0.22176 0.35336 0.0
H77 H 0.01936 0.24533 0.25584 0.0
H78 H 0.93346 0.20793 0.27169 0.0
H79 H 0.95121 0.21286 0.1816 0.0
H80 H 0.08243 0.26444 0.69315 0.0
H81 H 0.02309 0.23073 0.79872 0.0
H82 H 0.10811 0.28174 0.77202 0.0
H83 H 0.09213 0.27411 0.86439 0.0
Gd84 Gd 0.80116 0.78124 0.45676 0.0
Gd85 Gd 0.78988 0.7997 0.5842 0.0
C86 C 0.71073 0.77126 0.58006 0.0
C87 C 0.7086 0.80427 0.54447 0.0
C88 C 0.74623 0.80753 0.56326 0.0
C89 C 0.73532 0.78454 0.57905 0.0
C90 C 0.73291 0.81795 0.54826 0.0
C91 C 0.6975 0.78092 0.56041 0.0
C92 C 0.70012 0.74906 0.60302 0.0
C93 C 0.71393 0.74123 0.62726 0.0
N94 N 0.74871 0.77583 0.59808 0.0
C95 C 0.73819 0.75509 0.62575 0.0
H96 H 0.74812 0.74898 0.64795 0.0
C97 C 0.78023 0.84415 0.56828 0.0
N98 N 0.76968 0.82037 0.56871 0.0
C99 C 0.76798 0.85523 0.55231 0.0
C100 C 0.7443 0.84204 0.54067 0.0
H101 H 0.79835 0.85486 0.57904 0.0
H102 H 0.67864 0.7708 0.55981 0.0
H103 H 0.8454 0.83589 0.44369 0.0
H104 H 0.68132 0.73835 0.60463 0.0
H105 H 0.7059 0.7246 0.64789 0.0
H106 H 0.69816 0.81187 0.53199 0.0
H107 H 0.78289 0.72463 0.43838 0.0
H108 H 0.90734 0.83389 0.40787 0.0
H109 H 0.88717 0.8563 0.42294 0.0
H110 H 0.88106 0.75231 0.40002 0.0
H111 H 0.77695 0.87395 0.54865 0.0
H112 H 0.73479 0.85072 0.52887 0.0
H113 H 0.90489 0.79512 0.39939 0.0
H114 H 0.79956 0.69925 0.42059 0.0
N115 N 0.84176 0.80216 0.4437 0.0
C116 C 0.88896 0.82482 0.41785 0.0
C117 C 0.87765 0.83752 0.42635 0.0
C118 C 0.8763 0.80052 0.42119 0.0
C119 C 0.85241 0.78954 0.43436 0.0
C120 C 0.8539 0.82584 0.43875 0.0
N121 N 0.81589 0.75566 0.44407 0.0
C122 C 0.83914 0.76554 0.43555 0.0
C123 C 0.81094 0.71783 0.42534 0.0
C124 C 0.83495 0.72763 0.41934 0.0
C125 C 0.8016 0.73223 0.43598 0.0
C126 C 0.84929 0.7518 0.42279 0.0
H127 H 0.84212 0.71651 0.40979 0.0
O128 O 0.78226 0.76184 0.38477 0.0
O129 O 0.77457 0.78668 0.49989 0.0
O130 O 0.78073 0.76281 0.59567 0.0
O131 O 0.79324 0.75156 0.5195 0.0
O132 O 0.76394 0.75391 0.46824 0.0
O133 O 0.80767 0.79813 0.37775 0.0
O134 O 0.80596 0.82914 0.64021 0.0
O135 O 0.81837 0.80087 0.53124 0.0
O136 O 0.80093 0.81631 0.44975 0.0
O137 O 0.81279 0.83199 0.53512 0.0
O138 O 0.8192 0.79316 0.6116 0.0
O139 O 0.7872 0.79399 0.67109 0.0
C140 C 0.7566 0.76711 0.48796 0.0
C141 C 0.87312 0.76263 0.41073 0.0
C142 C 0.88662 0.78695 0.41004 0.0
C143 C 0.79331 0.77927 0.35184 0.0
C144 C 0.80185 0.77465 0.3006 0.0
C145 C 0.81506 0.76346 0.30095 0.0
C146 C 0.79671 0.78143 0.25063 0.0
C147 C 0.8046 0.77686 0.2014 0.0
C148 C 0.82319 0.7592 0.25267 0.0
C149 C 0.81804 0.76583 0.20325 0.0
C150 C 0.78435 0.74764 0.56962 0.0
C151 C 0.82963 0.79607 0.56591 0.0
C152 C 0.79842 0.816 0.68317 0.0
C153 C 0.78881 0.82312 0.72843 0.0
C154 C 0.77698 0.83546 0.71994 0.0
C155 C 0.79125 0.81686 0.78153 0.0
C156 C 0.782 0.82278 0.82623 0.0
C157 C 0.7679 0.84158 0.76403 0.0
C158 C 0.77037 0.83534 0.8168 0.0
C159 C 0.80894 0.83444 0.48364 0.0
H160 H 0.81907 0.75789 0.33831 0.0
H161 H 0.78627 0.78984 0.25008 0.0
H162 H 0.8335 0.75067 0.25356 0.0
H163 H 0.82479 0.76248 0.16642 0.0
H164 H 0.77466 0.84028 0.67952 0.0
H165 H 0.80055 0.80745 0.78793 0.0
H166 H 0.75875 0.85108 0.75724 0.0
H167 H 0.7628 0.83997 0.85006 0.0
Gd168 Gd 0.25001 0.0262 0.46279 0.0
Gd169 Gd 0.23743 0.99981 0.59205 0.0
C170 C 0.21796 0.92429 0.62222 0.0
C171 C 0.17869 0.90756 0.65764 0.0
C172 C 0.19971 0.94815 0.62913 0.0
C173 C 0.21884 0.94588 0.61537 0.0
C174 C 0.17944 0.92892 0.65034 0.0
C175 C 0.19779 0.90519 0.64315 0.0
C176 C 0.23755 0.92259 0.60881 0.0
C177 C 0.25761 0.94222 0.59046 0.0
N178 N 0.23846 0.96481 0.59654 0.0
C179 C 0.2579 0.96335 0.58538 0.0
H180 H 0.27381 0.97831 0.57216 0.0
C181 C 0.18228 0.97178 0.63521 0.0
N182 N 0.20084 0.96907 0.62146 0.0
C183 C 0.1619 0.95317 0.65612 0.0
C184 C 0.1605 0.93169 0.66396 0.0
H185 H 0.1828 0.98812 0.62943 0.0
H186 H 0.19689 0.88855 0.64888 0.0
H187 H 0.19173 1.01054 0.49278 0.0
H188 H 0.23749 0.9063 0.6133 0.0
H189 H 0.27298 0.94117 0.58071 0.0
H190 H 0.16336 0.89271 0.67439 0.0
H191 H 0.30194 0.07461 0.45523 0.0
H192 H 0.17715 0.05774 0.40918 0.0
H193 H 0.16396 0.02185 0.46263 0.0
H194 H 0.25258 0.11962 0.36043 0.0
H195 H 0.14728 0.95544 0.66644 0.0
H196 H 0.14471 0.91736 0.68058 0.0
H197 H 0.2103 0.09402 0.37057 0.0
H198 H 0.31871 0.11443 0.42007 0.0
N199 N 0.22087 0.03742 0.44975 0.0
C200 C 0.18953 0.05233 0.42064 0.0
C201 C 0.18201 0.03201 0.45041 0.0
C202 C 0.21321 0.06624 0.40939 0.0
C203 C 0.22867 0.05848 0.42568 0.0
C204 C 0.19798 0.02512 0.46579 0.0
N205 N 0.26671 0.066 0.44197 0.0
C206 C 0.25238 0.07325 0.42185 0.0
C207 C 0.3 0.10309 0.42054 0.0
C208 C 0.28547 0.11068 0.39908 0.0
C209 C 0.29032 0.08053 0.44136 0.0
C210 C 0.26135 0.09575 0.3996 0.0
H211 H 0.293 0.1281 0.38257 0.0
O212 O 0.28181 0.03194 0.42434 0.0
O213 O 0.25479 1.00032 0.51179 0.0
O214 O 0.2751 0.01438 0.57257 0.0
O215 O 0.28055 0.04632 0.52647 0.0
O216 O 0.23869 0.98965 0.43718 0.0
O217 O 0.2534 0.02953 0.37401 0.0
O218 O 0.25071 0.02579 0.65662 0.0
O219 O 0.24559 0.03257 0.54739 0.0
O220 O 0.21224 0.99365 0.45537 0.0
O221 O 0.20565 0.97655 0.54141 0.0
O222 O 0.21748 0.02003 0.59733 0.0
O223 O 0.24608 0.99218 0.67254 0.0
C224 C 0.24762 0.98385 0.47654 0.0
C225 C 0.246 0.10269 0.37908 0.0
C226 C 0.22196 0.08805 0.38443 0.0
C227 C 0.27423 0.03209 0.37564 0.0
C228 C 0.28879 0.03563 0.32699 0.0
C229 C 0.31214 0.04147 0.33394 0.0
C230 C 0.27969 0.0328 0.27383 0.0
C231 C 0.2939 0.03588 0.2282 0.0
C232 C 0.32618 0.04448 0.28918 0.0
C233 C 0.31719 0.0417 0.23681 0.0
C234 C 0.28845 0.03659 0.56203 0.0
C235 C 0.23049 0.03707 0.56559 0.0
C236 C 0.2504 0.01183 0.69366 0.0
C237 C 0.23764 1.01063 0.74392 0.0
C238 C 0.21572 1.00896 0.74006 0.0
C239 C 0.24714 1.01145 0.79574 0.0
C240 C 0.23447 1.0101 0.84313 0.0
C241 C 0.2031 1.0074 0.7865 0.0
C242 C 0.21231 1.0079 0.83761 0.0
C243 C 0.19898 0.97673 0.49101 0.0
H244 H 0.31962 0.04367 0.37412 0.0
H245 H 0.26171 0.02832 0.26801 0.0
H246 H 0.34411 0.04886 0.29511 0.0
H247 H 0.32846 0.04372 0.20298 0.0
H248 H 0.20844 1.00918 0.70106 0.0
H249 H 0.26418 0.01303 0.79913 0.0
H250 H 0.1862 1.00609 0.78285 0.0
H251 H 0.2023 1.00717 0.873 0.0
Gd252 Gd 1.00378 0.78394 0.43455 0.0
Gd253 Gd 0.03271 0.79393 0.56163 0.0
C254 C 0.08233 0.87202 0.59119 0.0
C255 C 0.12014 0.87463 0.58982 0.0
C256 C 0.08483 0.8372 0.57695 0.0
C257 C 0.0715 0.84778 0.58162 0.0
C258 C 0.10932 0.85046 0.58235 0.0
C259 C 0.10668 0.88539 0.59441 0.0
C260 C 0.06837 0.88215 0.5973 0.0
C261 C 0.04426 0.86811 0.59551 0.0
N262 N 0.04798 0.83443 0.57705 0.0
C263 C 0.03436 0.84421 0.5863 0.0
H264 H 1.01582 0.83391 0.58841 0.0
C265 C 0.08634 0.80246 0.57143 0.0
N266 N 0.07387 0.81385 0.56879 0.0
C267 C 0.1106 0.81485 0.5762 0.0
C268 C 0.1222 0.83902 0.58074 0.0
H269 H 0.07763 0.78367 0.57072 0.0
H270 H 0.11525 0.90405 0.60046 0.0
H271 H 1.01562 0.74251 0.38588 0.0
H272 H 0.07601 0.90067 0.60455 0.0
H273 H 0.03323 0.87562 0.60201 0.0
H274 H 0.1389 0.88513 0.59206 0.0
H275 H 0.95745 0.79297 0.43042 0.0
H276 H 0.95721 0.67562 0.41706 0.0
H277 H 0.99758 0.70022 0.38454 0.0
H278 H 0.8983 0.6927 0.47294 0.0
H279 H 0.12029 0.80568 0.57716 0.0
H280 H 0.141 0.84859 0.58474 0.0
H281 H 0.92051 0.67302 0.45211 0.0
H282 H 0.9162 0.77181 0.45488 0.0
N283 N 0.98697 0.7429 0.42444 0.0
C284 C 0.9653 0.69441 0.41897 0.0
C285 C 0.98808 0.70823 0.40079 0.0
C286 C 0.95289 0.70504 0.43717 0.0
C287 C 0.96422 0.72961 0.43862 0.0
C288 C 0.99853 0.73248 0.40296 0.0
N289 N 0.96263 0.76409 0.44489 0.0
C290 C 0.95176 0.74062 0.45029 0.0
C291 C 0.92585 0.76269 0.45357 0.0
C292 C 0.91488 0.73897 0.46481 0.0
C293 C 0.94954 0.77478 0.44111 0.0
C294 C 0.92761 0.72742 0.46085 0.0
H295 H 0.89639 0.72956 0.47356 0.0
O296 O 0.98999 0.79434 0.36691 0.0
O297 O 0.03691 0.80777 0.47838 0.0
O298 O 0.9967 0.79302 0.56828 0.0
O299 O 0.99182 0.80455 0.48345 0.0
O300 O 0.02409 0.82393 0.43014 0.0
O301 O 1.01306 0.78077 0.35173 0.0
O302 O 0.04075 0.77875 0.63057 0.0
O303 O 1.00002 0.76811 0.51954 0.0
O304 O 0.03567 0.78071 0.41861 0.0
O305 O 0.04956 0.77862 0.504 0.0
O306 O 0.02136 0.75641 0.55271 0.0
O307 O 0.02002 0.79518 0.6423 0.0
C308 C 0.04124 0.8276 0.46149 0.0
C309 C 0.91672 0.70307 0.46396 0.0
C310 C 0.92934 0.69187 0.45196 0.0
C311 C 0.99943 0.78749 0.33044 0.0
C312 C 0.98425 0.77297 0.28617 0.0
C313 C 0.96217 0.75381 0.29663 0.0
C314 C 0.99221 0.77823 0.23257 0.0
C315 C 0.97819 0.76461 0.18914 0.0
C316 C 0.94818 0.74014 0.25388 0.0
C317 C 0.95607 0.74547 0.20042 0.0
C318 C 0.98574 0.80034 0.53466 0.0
C319 C 1.00099 0.7498 0.53267 0.0
C320 C 0.03074 0.78556 0.66559 0.0
C321 C 0.04403 0.797 0.71512 0.0
C322 C 0.06801 0.81298 0.71314 0.0
C323 C 0.03251 0.79181 0.76528 0.0
C324 C 0.0448 0.80258 0.8132 0.0
C325 C 0.08025 0.82386 0.76033 0.0
C326 C 0.06877 0.81876 0.8101 0.0
C327 C 0.04927 0.7765 0.45009 0.0
H328 H 0.95572 0.74943 0.33763 0.0
H329 H 1.00948 0.7928 0.22488 0.0
H330 H 0.93111 0.72542 0.26218 0.0
H331 H 0.94473 0.7348 0.16794 0.0
H332 H 0.07739 0.81696 0.67545 0.0
H333 H 1.01397 0.7795 0.76688 0.0
H334 H 0.09876 0.83615 0.75838 0.0
H335 H 0.07876 0.82711 0.84633 0.0
Gd336 Gd 0.24861 0.22414 0.44473 0.0
Gd337 Gd 0.23797 0.24613 0.5678 0.0
C338 C 0.16201 0.22127 0.61066 0.0
C339 C 0.16221 0.25782 0.61998 0.0
C340 C 0.19724 0.25763 0.59158 0.0
C341 C 0.18571 0.23362 0.59539 0.0
C342 C 0.1856 0.27 0.60398 0.0
C343 C 0.15035 0.23349 0.62282 0.0
C344 C 0.15083 0.19703 0.61428 0.0
C345 C 0.16333 0.18569 0.60369 0.0
N346 N 0.19764 0.22234 0.58454 0.0
C347 C 0.18683 0.19867 0.5894 0.0
H348 H 0.19601 0.18947 0.58258 0.0
C349 C 0.23264 0.29285 0.57907 0.0
N350 N 0.22012 0.269 0.57811 0.0
C351 C 0.2217 0.30581 0.58949 0.0
C352 C 0.19802 0.29433 0.60178 0.0
H353 H 0.25127 0.30195 0.57272 0.0
H354 H 0.13226 0.2243 0.63528 0.0
H355 H 0.30143 0.27185 0.43086 0.0
H356 H 0.13264 0.18693 0.62566 0.0
H357 H 0.15492 0.16693 0.60691 0.0
H358 H 0.15334 0.26717 0.63129 0.0
H359 H 0.22198 0.16667 0.41362 0.0
H360 H 0.35343 0.25391 0.46977 0.0
H361 H 0.34264 0.28342 0.44442 0.0
H362 H 0.30988 0.1706 0.47706 0.0
H363 H 0.23166 0.32464 0.58937 0.0
H364 H 0.18964 0.3044 0.61089 0.0
H365 H 0.34091 0.21164 0.48347 0.0
H366 H 0.22974 0.13412 0.42223 0.0
N367 N 0.28871 0.23623 0.45067 0.0
C368 C 0.33526 0.24873 0.46409 0.0
C369 C 0.32925 0.26541 0.44952 0.0
C370 C 0.31782 0.22537 0.46807 0.0
C371 C 0.29444 0.21961 0.46034 0.0
C372 C 0.30581 0.25873 0.44173 0.0
N373 N 0.25544 0.19216 0.44285 0.0
C374 C 0.27714 0.1967 0.45638 0.0
C375 C 0.24331 0.15163 0.43179 0.0
C376 C 0.26507 0.15586 0.44973 0.0
C377 C 0.239 0.17015 0.42689 0.0
C378 C 0.28257 0.17871 0.46048 0.0
H379 H 0.26842 0.14153 0.4537 0.0
O380 O 0.23433 0.20673 0.36768 0.0
O381 O 0.2249 0.23406 0.48601 0.0
O382 O 0.23924 0.21123 0.58024 0.0
O383 O 0.22869 0.19308 0.49712 0.0
O384 O 0.20857 0.20643 0.43506 0.0
O385 O 0.26183 0.24249 0.36855 0.0
O386 O 0.25624 0.26991 0.6345 0.0
O387 O 0.26464 0.23961 0.52884 0.0
O388 O 0.26042 0.26184 0.42974 0.0
O389 O 0.24632 0.27443 0.50062 0.0
O390 O 0.27443 0.27346 0.55452 0.0
O391 O 0.23551 0.23298 0.64983 0.0
C392 C 0.20504 0.21962 0.46754 0.0
C393 C 0.30546 0.18421 0.47282 0.0
C394 C 0.32311 0.20756 0.47652 0.0
C395 C 0.24868 0.22448 0.33866 0.0
C396 C 0.26021 0.21975 0.29358 0.0
C397 C 0.27596 0.21186 0.30337 0.0
C398 C 0.25557 0.22343 0.24002 0.0
C399 C 0.26653 0.21922 0.196 0.0
C400 C 0.28686 0.20758 0.26006 0.0
C401 C 0.28221 0.2112 0.20673 0.0
C402 C 0.23303 0.19252 0.54857 0.0
C403 C 0.28219 0.25984 0.54017 0.0
C404 C 0.24791 0.25359 0.67115 0.0
C405 C 0.23872 0.25814 0.72146 0.0
C406 C 0.22642 0.27029 0.72036 0.0
C407 C 0.24221 0.25009 0.77148 0.0
C408 C 0.23324 0.25391 0.81985 0.0
C409 C 0.21733 0.27395 0.76789 0.0
C410 C 0.22065 0.2658 0.81732 0.0
C411 C 0.25618 0.2775 0.45154 0.0
H412 H 0.27987 0.20908 0.34434 0.0
H413 H 0.24369 0.22994 0.23282 0.0
H414 H 0.29893 0.2014 0.26784 0.0
H415 H 0.29069 0.20746 0.1739 0.0
H416 H 0.22392 0.27715 0.6831 0.0
H417 H 0.25174 0.24073 0.77265 0.0
H418 H 0.20784 0.28332 0.76646 0.0
H419 H 0.21379 0.26928 0.85379 0.0
Gd420 Gd 0.80784 0.02832 0.43159 0.0
Gd421 Gd 0.7843 0.99718 0.55528 0.0
C422 C 0.80571 0.94292 0.595 0.0
C423 C 0.76836 0.90723 0.59867 0.0
C424 C 0.77037 0.94383 0.57492 0.0
C425 C 0.79431 0.95538 0.58067 0.0
C426 C 0.7571 0.91963 0.58468 0.0
C427 C 0.79263 0.91879 0.60338 0.0
C428 C 0.82986 0.95515 0.60187 0.0
C429 C 0.842 0.97925 0.59591 0.0
N430 N 0.80643 0.97883 0.57355 0.0
C431 C 0.82994 0.99086 0.58246 0.0
H432 H 0.83969 1.00943 0.5801 0.0
C433 C 0.73609 0.94611 0.56594 0.0
N434 N 0.75988 0.95646 0.56372 0.0
C435 C 0.72225 0.92213 0.57378 0.0
C436 C 0.73281 0.90876 0.5826 0.0
H437 H 0.72766 0.95644 0.56222 0.0
H438 H 0.80109 0.90901 0.61469 0.0
H439 H 0.75635 0.02339 0.39031 0.0
H440 H 0.83923 0.94621 0.61272 0.0
H441 H 0.86066 0.98898 0.60226 0.0
H442 H 0.75836 0.88877 0.60732 0.0
H443 H 0.86533 0.06857 0.42428 0.0
H444 H 0.75881 0.08792 0.41962 0.0
H445 H 0.73754 0.04702 0.38836 0.0
H446 H 0.83816 0.13906 0.47008 0.0
H447 H 0.70346 0.91408 0.57428 0.0
H448 H 0.72206 0.89023 0.58978 0.0
H449 H 0.79617 0.12191 0.45274 0.0
H450 H 0.89068 0.10975 0.44566 0.0
N451 N 0.78837 0.05015 0.42394 0.0
C452 C 0.76729 0.07755 0.42075 0.0
C453 C 0.75526 0.05451 0.40298 0.0
C454 C 0.79044 0.08721 0.43763 0.0
C455 C 0.80073 0.07299 0.43782 0.0
C456 C 0.7661 0.04102 0.40469 0.0
N457 N 0.83385 0.06893 0.4403 0.0
C458 C 0.82425 0.08263 0.44721 0.0
C459 C 0.87204 0.10254 0.44614 0.0
C460 C 0.86239 0.11643 0.45889 0.0
C461 C 0.85749 0.07897 0.43483 0.0
C462 C 0.83822 0.10674 0.45708 0.0
H463 H 0.87373 0.13477 0.46743 0.0
O464 O 0.83128 0.03932 0.3625 0.0
O465 O 0.79659 0.99451 0.47396 0.0
O466 O 0.82012 0.03233 0.56702 0.0
O467 O 0.83859 0.03784 0.48487 0.0
O468 O 0.82637 1.00683 0.42902 0.0
O469 O 0.79421 0.01908 0.34948 0.0
O470 O 0.76092 0.99269 0.62198 0.0
O471 O 0.79321 0.03068 0.51461 0.0
O472 O 0.77186 0.99952 0.41171 0.0
O473 O 0.75449 0.97914 0.49067 0.0
O474 O 0.75912 1.00955 0.54193 0.0
O475 O 0.79768 1.00752 0.63744 0.0
C476 C 0.81196 0.98965 0.45892 0.0
C477 C 0.82776 0.12059 0.46166 0.0
C478 C 0.80387 0.11083 0.45171 0.0
C479 C 0.81455 0.03085 0.3269 0.0
C480 C 0.81632 0.04623 0.28192 0.0
C481 C 0.82338 0.06973 0.29105 0.0
C482 C 0.81069 0.03717 0.22905 0.0
C483 C 0.81228 0.0515 0.18514 0.0
C484 C 0.82502 0.08405 0.24775 0.0
C485 C 0.81959 0.07506 0.19509 0.0
C486 C 0.83927 0.04335 0.53609 0.0
C487 C 0.7739 0.03015 0.52492 0.0
C488 C 0.77722 1.00013 0.65872 0.0
C489 C 0.77212 0.98622 0.70886 0.0
C490 C 0.76142 0.96188 0.70669 0.0
C491 C 0.77804 0.99742 0.75971 0.0
C492 C 0.77328 0.98436 0.808 0.0
C493 C 0.75704 0.9489 0.75404 0.0
C494 C 0.76295 0.95999 0.80433 0.0
C495 C 0.75376 0.98301 0.4376 0.0
H496 H 0.82766 0.07704 0.33146 0.0
H497 H 0.80534 0.01903 0.22211 0.0
H498 H 0.83047 0.10216 0.25505 0.0
H499 H 0.82074 0.08646 0.1623 0.0
H500 H 0.75629 0.95278 0.66869 0.0
H501 H 0.78594 0.0162 0.7616 0.0
H502 H 0.74896 0.93013 0.75173 0.0
H503 H 0.75956 0.94945 0.84038 0.0
Gd504 Gd 0.67193 0.56488 0.78815 0.0
Gd505 Gd 0.70315 0.57573 0.91398 0.0
C506 C 0.76276 0.65135 0.89804 0.0
C507 C 0.79537 0.64626 0.87333 0.0
C508 C 0.75756 0.61264 0.89371 0.0
C509 C 0.74833 0.62694 0.90112 0.0
C510 C 0.78149 0.62223 0.88232 0.0
C511 C 0.786 0.66086 0.88137 0.0
C512 C 0.75386 0.66545 0.91532 0.0
C513 C 0.73165 0.65512 0.93803 0.0
N514 N 0.72598 0.61707 0.91839 0.0
C515 C 0.71809 0.63084 0.9401 0.0
H516 H 0.70162 0.62341 0.96052 0.0
C517 C 0.7539 0.57631 0.9141 0.0
N518 N 0.74384 0.58975 0.90531 0.0
C519 C 0.77728 0.58472 0.90145 0.0
C520 C 0.79104 0.60764 0.88396 0.0
H521 H 0.74355 0.5585 0.9278 0.0
H522 H 0.7972 0.67953 0.8776 0.0
H523 H 0.68547 0.52205 0.77049 0.0
H524 H 0.76439 0.68426 0.91401 0.0
H525 H 0.72501 0.66583 0.95434 0.0
H526 H 0.81367 0.65387 0.86349 0.0
H527 H 0.63038 0.57964 0.77707 0.0
H528 H 0.62345 0.45891 0.73361 0.0
H529 H 0.66598 0.48074 0.74874 0.0
H530 H 0.56503 0.4811 0.72916 0.0
H531 H 0.78442 0.57329 0.90406 0.0
H532 H 0.80923 0.61416 0.87445 0.0
H533 H 0.58605 0.45922 0.72603 0.0
H534 H 0.58812 0.56071 0.76109 0.0
N535 N 0.65454 0.52435 0.77191 0.0
C536 C 0.63196 0.47721 0.74418 0.0
C537 C 0.65592 0.48945 0.75277 0.0
C538 C 0.61932 0.48884 0.74832 0.0
C539 C 0.6312 0.5127 0.76246 0.0
C540 C 0.66699 0.51311 0.76594 0.0
N541 N 0.63122 0.54786 0.77699 0.0
C542 C 0.61917 0.52474 0.7658 0.0
C543 C 0.59654 0.55032 0.76303 0.0
C544 C 0.58374 0.5264 0.75391 0.0
C545 C 0.62044 0.5609 0.77299 0.0
C546 C 0.5951 0.51341 0.75387 0.0
H547 H 0.56528 0.51828 0.74506 0.0
O548 O 0.66735 0.58309 0.72006 0.0
O549 O 0.70504 0.59075 0.82911 0.0
O550 O 0.67604 0.58647 0.92706 0.0
O551 O 0.65187 0.57451 0.85112 0.0
O552 O 0.68363 0.60254 0.79722 0.0
O553 O 0.68262 0.56128 0.70708 0.0
O554 O 0.71436 0.56501 0.98563 0.0
O555 O 0.66972 0.55193 0.87116 0.0
O556 O 0.70719 0.56437 0.77921 0.0
O557 O 0.71312 0.55381 0.86414 0.0
O558 O 0.68149 0.53578 0.92191 0.0
O559 O 0.69248 0.58033 0.99435 0.0
C560 C 0.70409 0.60909 0.81666 0.0
C561 C 0.58332 0.48978 0.7398 0.0
C562 C 0.59534 0.47745 0.73746 0.0
C563 C 0.67504 0.57402 0.68453 0.0
C564 C 0.66143 0.56475 0.63418 0.0
C565 C 0.63704 0.5513 0.63497 0.0
C566 C 0.67313 0.56925 0.58436 0.0
C567 C 0.6606 0.56017 0.53578 0.0
C568 C 0.62454 0.54203 0.58712 0.0
C569 C 0.6362 0.54635 0.53775 0.0
C570 C 0.65753 0.58384 0.90072 0.0
C571 C 0.66466 0.53214 0.88958 0.0
C572 C 0.705 0.57307 0.01916 0.0
C573 C 0.72009 0.58793 0.06306 0.0
C574 C 0.74223 0.6069 0.05206 0.0
C575 C 0.71231 0.58286 0.11678 0.0
C576 C 0.7266 0.59648 0.15987 0.0
C577 C 0.75645 0.62063 0.09445 0.0
C578 C 0.74876 0.61548 0.14808 0.0
C579 C 0.71853 0.55742 0.81258 0.0
H580 H 0.62754 0.54801 0.67216 0.0
H581 H 0.69198 0.57968 0.58348 0.0
H582 H 0.60573 0.53163 0.58827 0.0
H583 H 0.6261 0.53933 0.50096 0.0
H584 H 0.74858 0.61101 0.0109 0.0
H585 H 0.69503 0.56837 0.12483 0.0
H586 H 0.77356 0.63519 0.08576 0.0
H587 H 0.7603 0.62614 0.18029 0.0
Gd588 Gd 0.46909 0.1145 0.79565 0.0
Gd589 Gd 0.45581 0.13104 0.92228 0.0
C590 C 0.38056 0.1151 0.89874 0.0
C591 C 0.38598 0.15338 0.87935 0.0
C592 C 0.41927 0.1488 0.90193 0.0
C593 C 0.40485 0.12502 0.90599 0.0
C594 C 0.40979 0.16333 0.89121 0.0
C595 C 0.37137 0.12926 0.8831 0.0
C596 C 0.3661 0.09147 0.91003 0.0
C597 C 0.37579 0.07867 0.93091 0.0
N598 N 0.4143 0.11191 0.92208 0.0
C599 C 0.39993 0.08924 0.93755 0.0
H600 H 0.40661 0.07887 0.95502 0.0
C601 C 0.45536 0.18121 0.92588 0.0
N602 N 0.44209 0.1579 0.91484 0.0
C603 C 0.44695 0.1963 0.9148 0.0
C604 C 0.42424 0.18742 0.89579 0.0
H605 H 0.47308 0.18859 0.94028 0.0
H606 H 0.35283 0.12186 0.87638 0.0
H607 H 0.51193 0.17018 0.78645 0.0
H608 H 0.34738 0.08322 0.90507 0.0
H609 H 0.36466 0.0606 0.94196 0.0
H610 H 0.37851 0.16426 0.86997 0.0
H611 H 0.45324 0.05835 0.78014 0.0
H612 H 0.57447 0.17139 0.74047 0.0
H613 H 0.55327 0.1922 0.76257 0.0
H614 H 0.55105 0.09069 0.72485 0.0
H615 H 0.45831 0.21479 0.91988 0.0
H616 H 0.41775 0.1992 0.88716 0.0
H617 H 0.5733 0.13353 0.72524 0.0
H618 H 0.47131 0.03459 0.75823 0.0
N619 N 0.50959 0.13704 0.78235 0.0
C620 C 0.55633 0.16159 0.75231 0.0
C621 C 0.54443 0.17339 0.76473 0.0
C622 C 0.54451 0.13727 0.75412 0.0
C623 C 0.5209 0.12532 0.77 0.0
C624 C 0.5209 0.16077 0.77897 0.0
N625 N 0.48544 0.09039 0.78208 0.0
C626 C 0.50853 0.10126 0.77067 0.0
C627 C 0.48204 0.05329 0.76218 0.0
C628 C 0.5059 0.06416 0.75212 0.0
C629 C 0.47194 0.06678 0.77539 0.0
C630 C 0.51932 0.08845 0.75473 0.0
H631 H 0.51361 0.05375 0.7403 0.0
O632 O 0.45115 0.09479 0.72333 0.0
O633 O 0.4409 0.11778 0.83744 0.0
O634 O 0.44468 0.09349 0.93024 0.0
O635 O 0.4627 0.08551 0.85941 0.0
O636 O 0.43258 0.08557 0.8045 0.0
O637 O 0.47496 0.13162 0.71711 0.0
O638 O 0.47171 0.15544 0.98928 0.0
O639 O 0.48534 0.13365 0.87088 0.0
O640 O 0.46722 0.14886 0.78978 0.0
O641 O 0.47899 0.16383 0.87541 0.0
O642 O 0.48564 0.12527 0.95064 0.0
O643 O 0.44625 0.11942 1.00522 0.0
C644 C 0.42396 0.09766 0.82422 0.0
C645 C 0.54273 0.10026 0.73872 0.0
C646 C 0.55533 0.12462 0.73859 0.0
C647 C 0.46157 0.1125 0.69087 0.0
C648 C 0.47087 0.10882 0.63977 0.0
C649 C 0.48319 0.09669 0.63904 0.0
C650 C 0.46729 0.1175 0.59085 0.0
C651 C 0.47615 0.11427 0.54163 0.0
C652 C 0.49221 0.09366 0.59067 0.0
C653 C 0.48878 0.10239 0.54225 0.0
C654 C 0.45136 0.08 0.90685 0.0
C655 C 0.49662 0.12894 0.90553 0.0
C656 C 0.45949 0.13999 0.02594 0.0
C657 C 0.44906 0.14693 0.06946 0.0
C658 C 0.43273 0.15396 0.0584 0.0
C659 C 0.45471 0.14518 0.12347 0.0
C660 C 0.44422 0.15046 0.16666 0.0
C661 C 0.42246 0.15953 0.10092 0.0
C662 C 0.42811 0.15779 0.15473 0.0
C663 C 0.47481 0.16666 0.82454 0.0
H664 H 0.48567 0.08933 0.67549 0.0
H665 H 0.45772 0.12683 0.59118 0.0
H666 H 0.5017 0.08428 0.59065 0.0
H667 H 0.49554 0.09935 0.50505 0.0
H668 H 0.42768 0.15488 0.01724 0.0
H669 H 0.4668 0.13902 0.13177 0.0
H670 H 0.40992 0.16504 0.09216 0.0
H671 H 0.41992 0.16224 0.18695 0.0
Gd672 Gd 0.91752 0.36078 0.78906 0.0
Gd673 Gd 0.89844 0.3289 0.91326 0.0
C674 C 0.91956 0.27323 0.89127 0.0
C675 C 0.88242 0.23865 0.87222 0.0
C676 C 0.88419 0.27538 0.89337 0.0
C677 C 0.90806 0.28615 0.89795 0.0
C678 C 0.871 0.25126 0.88262 0.0
C679 C 0.90671 0.24963 0.87657 0.0
C680 C 0.94351 0.2842 0.90119 0.0
C681 C 0.95519 0.30717 0.91954 0.0
N682 N 0.91987 0.30892 0.91267 0.0
C683 C 0.94301 0.31923 0.92584 0.0
H684 H 0.95254 0.3369 0.94017 0.0
C685 C 0.85021 0.27676 0.91395 0.0
N686 N 0.87373 0.28798 0.90485 0.0
C687 C 0.83636 0.25312 0.90212 0.0
C688 C 0.84672 0.24036 0.88513 0.0
H689 H 0.84184 0.28628 0.92761 0.0
H690 H 0.91528 0.23953 0.8704 0.0
H691 H 0.8604 0.34616 0.78526 0.0
H692 H 0.95299 0.27491 0.89643 0.0
H693 H 0.97361 0.31566 0.92877 0.0
H694 H 0.87259 0.22021 0.863 0.0
H695 H 0.97307 0.40346 0.77782 0.0
H696 H 0.85642 0.40553 0.73634 0.0
H697 H 0.83712 0.36405 0.76238 0.0
H698 H 0.93616 0.46449 0.71507 0.0
H699 H 0.8177 0.24497 0.9052 0.0
H700 H 0.83592 0.22197 0.87623 0.0
H701 H 0.89332 0.44253 0.71683 0.0
H702 H 0.99505 0.44525 0.75603 0.0
N703 N 0.89317 0.37707 0.7758 0.0
C704 C 0.86687 0.39778 0.74747 0.0
C705 C 0.85594 0.37439 0.76206 0.0
C706 C 0.89117 0.41081 0.74676 0.0
C707 C 0.90402 0.39995 0.76206 0.0
C708 C 0.86938 0.36423 0.77537 0.0
N709 N 0.93988 0.40137 0.77566 0.0
C710 C 0.92808 0.41251 0.76249 0.0
C711 C 0.97624 0.43635 0.75827 0.0
C712 C 0.96433 0.44812 0.74562 0.0
C713 C 0.96368 0.41274 0.77175 0.0
C714 C 0.93998 0.4361 0.74641 0.0
H715 H 0.97406 0.46626 0.73377 0.0
O716 O 0.9399 0.36541 0.72011 0.0
O717 O 0.91233 0.32794 0.82773 0.0
O718 O 0.934 0.35892 0.93059 0.0
O719 O 0.9475 0.38146 0.85242 0.0
O720 O 0.94564 0.35252 0.79994 0.0
O721 O 0.90273 0.34932 0.7084 0.0
O722 O 0.87665 0.31725 0.98514 0.0
O723 O 0.90666 0.36195 0.87181 0.0
O724 O 0.88237 0.32463 0.77992 0.0
O725 O 0.86601 0.31764 0.86503 0.0
O726 O 0.87961 0.3502 0.92422 0.0
O727 O 0.91405 0.33707 0.99362 0.0
C728 C 0.9326 0.33114 0.81469 0.0
C729 C 0.92728 0.44666 0.72936 0.0
C730 C 0.90292 0.43411 0.72994 0.0
C731 C 0.92288 0.35699 0.68515 0.0
C732 C 0.92663 0.36993 0.63395 0.0
C733 C 0.9376 0.39431 0.63338 0.0
C734 C 0.91918 0.35765 0.58467 0.0
C735 C 0.92238 0.36965 0.53537 0.0
C736 C 0.94058 0.40626 0.58487 0.0
C737 C 0.93298 0.39406 0.53612 0.0
C738 C 0.95017 0.37711 0.90429 0.0
C739 C 0.89224 0.3671 0.89159 0.0
C740 C 0.8942 0.32548 0.01851 0.0
C741 C 0.89311 0.30994 0.06224 0.0
C742 C 0.89012 0.28788 0.05098 0.0
C743 C 0.89518 0.31745 0.11618 0.0
C744 C 0.89405 0.30298 0.15929 0.0
C745 C 0.88906 0.27343 0.09339 0.0
C746 C 0.89098 0.28085 0.14722 0.0
C747 C 0.86429 0.31242 0.81338 0.0
H748 H 0.94411 0.40422 0.67003 0.0
H749 H 0.91081 0.33881 0.58476 0.0
H750 H 0.94904 0.42508 0.58501 0.0
H751 H 0.93592 0.40377 0.49883 0.0
H752 H 0.88857 0.28184 1.00962 0.0
H753 H 0.89795 0.33472 0.1244 0.0
H754 H 0.88665 0.25637 0.08453 0.0
H755 H 0.88974 0.26915 0.17934 0.0
Gd756 Gd 0.66913 0.11739 0.77096 0.0
Gd757 Gd 0.69879 0.12364 0.89552 0.0
C758 C 0.75096 0.19949 0.93876 0.0
C759 C 0.78732 0.19911 0.94345 0.0
C760 C 0.75157 0.16417 0.91671 0.0
C761 C 0.73927 0.17582 0.92297 0.0
C762 C 0.77576 0.17572 0.92729 0.0
C763 C 0.77498 0.21101 0.9489 0.0
C764 C 0.7381 0.21077 0.94547 0.0
C765 C 0.71408 0.19831 0.93822 0.0
N766 N 0.71585 0.16395 0.91499 0.0
C767 C 0.70319 0.17479 0.92397 0.0
H768 H 0.68465 0.1656 0.92156 0.0
C769 C 0.7509 0.1285 0.90484 0.0
N770 N 0.7397 0.14119 0.90389 0.0
C771 C 0.77493 0.13934 0.91314 0.0
C772 C 0.78749 0.16313 0.92392 0.0
H773 H 0.74124 0.10977 0.90044 0.0
H774 H 0.78404 0.229 0.96223 0.0
H775 H 0.67743 0.07335 0.724 0.0
H776 H 0.74647 0.22893 0.95733 0.0
H777 H 0.70383 0.20669 0.94462 0.0
H778 H 0.8057 0.20795 0.95326 0.0
H779 H 0.62628 0.13143 0.76752 0.0
H780 H 0.61477 1.00893 0.74668 0.0
H781 H 0.65594 0.03104 0.71805 0.0
H782 H 0.55997 0.03179 0.80173 0.0
H783 H 0.78364 0.12921 0.91276 0.0
H784 H 0.80605 0.17143 0.93161 0.0
H785 H 0.57934 1.00934 0.78041 0.0
H786 H 0.5849 0.113 0.78989 0.0
N787 N 0.64943 0.07623 0.75879 0.0
C788 C 0.62425 0.02775 0.74996 0.0
C789 C 0.64747 0.04016 0.73384 0.0
C790 C 0.61331 0.03983 0.76832 0.0
C791 C 0.62641 0.06438 0.77138 0.0
C792 C 0.65978 0.06444 0.73816 0.0
N793 N 0.62812 0.10047 0.77923 0.0
C794 C 0.61551 0.07695 0.78303 0.0
C795 C 0.5931 0.1025 0.78759 0.0
C796 C 0.58027 0.07862 0.79698 0.0
C797 C 0.61682 0.11298 0.7762 0.0
C798 C 0.59124 0.06536 0.79233 0.0
H799 H 0.56177 0.07049 0.8051 0.0
O800 O 0.65745 0.13041 0.70409 0.0
O801 O 0.70292 0.13958 0.8146 0.0
O802 O 0.66316 0.1235 0.90641 0.0
O803 O 0.65835 0.1375 0.82494 0.0
O804 O 0.69062 0.15744 0.77104 0.0
O805 O 0.67809 0.11423 0.68776 0.0
O806 O 0.70458 0.10542 0.9618 0.0
O807 O 0.66545 0.09953 0.85353 0.0
O808 O 0.69925 0.11216 0.75093 0.0
O809 O 0.71629 0.1108 0.83215 0.0
O810 O 0.68597 0.086 0.88181 0.0
O811 O 0.68803 0.12575 0.97784 0.0
C812 C 0.70786 0.15996 0.80065 0.0
C813 C 0.57852 0.04095 0.7938 0.0
C814 C 0.58954 0.02818 0.78156 0.0
C815 C 0.66595 0.1228 0.667 0.0
C816 C 0.6505 0.10968 0.62148 0.0
C817 C 0.62685 0.09361 0.62991 0.0
C818 C 0.65969 0.11315 0.56878 0.0
C819 C 0.64537 0.10081 0.5244 0.0
C820 C 0.61254 0.08134 0.58618 0.0
C821 C 0.62167 0.08491 0.53374 0.0
C822 C 0.65219 0.13179 0.87563 0.0
C823 C 0.66552 0.08052 0.86396 0.0
C824 C 0.69652 0.11354 0.99882 0.0
C825 C 0.7105 0.12289 0.04886 0.0
C826 C 0.73487 0.13632 0.04667 0.0
C827 C 0.69936 0.11825 0.09965 0.0
C828 C 0.7125 0.12699 0.14782 0.0
C829 C 0.74792 0.14542 0.09384 0.0
C830 C 0.73688 0.14089 0.14405 0.0
C831 C 0.71427 0.10849 0.77817 0.0
H832 H 0.61942 0.09054 0.67012 0.0
H833 H 0.67795 0.12565 0.56234 0.0
H834 H 0.59432 0.06894 0.59298 0.0
H835 H 0.61025 0.07495 0.50062 0.0
H836 H 0.74395 0.13971 1.00878 0.0
H837 H 0.68057 0.10749 0.10163 0.0
H838 H 0.7667 0.15596 0.09148 0.0
H839 H 0.74748 0.14836 0.17997 0.0
Gd840 Gd 0.91225 0.55504 0.769 0.0
Gd841 Gd 0.90518 0.57812 0.89348 0.0
C842 C 0.82983 0.5551 0.94004 0.0
C843 C 0.8308 0.59202 0.9477 0.0
C844 C 0.86509 0.59082 0.91697 0.0
C845 C 0.85328 0.56687 0.92261 0.0
C846 C 0.8539 0.60365 0.92952 0.0
C847 C 0.81878 0.5678 0.95285 0.0
C848 C 0.81833 0.53094 0.94584 0.0
C849 C 0.83036 0.51912 0.93601 0.0
N850 N 0.86482 0.55512 0.91268 0.0
C851 C 0.85372 0.53154 0.92045 0.0
H852 H 0.86252 0.52191 0.91591 0.0
C853 C 0.90077 0.6256 0.90371 0.0
N854 N 0.88792 0.60174 0.90285 0.0
C855 C 0.89022 0.63895 0.91356 0.0
C856 C 0.86661 0.62793 0.92618 0.0
H857 H 0.91945 0.63453 0.89834 0.0
H858 H 0.80106 0.55905 0.96787 0.0
H859 H 0.95752 0.6073 0.72668 0.0
H860 H 0.80032 0.52132 0.95884 0.0
H861 H 0.8218 0.50045 0.94145 0.0
H862 H 0.82226 0.60168 0.95925 0.0
H863 H 0.89692 0.49783 0.76389 0.0
H864 H 0.02094 0.60726 0.7539 0.0
H865 H 0.99993 0.62739 0.72429 0.0
H866 H 0.99579 0.52863 0.80458 0.0
H867 H 0.90048 0.65777 0.91319 0.0
H868 H 0.85858 0.63832 0.93529 0.0
H869 H 0.01924 0.5706 0.78616 0.0
H870 H 0.91428 0.47394 0.78695 0.0
N871 N 0.95353 0.57572 0.75987 0.0
C872 C 1.00209 0.59823 0.75547 0.0
C873 C 0.99029 0.60963 0.73874 0.0
C874 C 0.98937 0.57503 0.77214 0.0
C875 C 0.96481 0.56401 0.77306 0.0
C876 C 0.96596 0.59806 0.74085 0.0
N877 N 0.92825 0.53012 0.77759 0.0
C878 C 0.95169 0.54048 0.7832 0.0
C879 C 0.92518 0.49259 0.78533 0.0
C880 C 0.94894 0.50305 0.79622 0.0
C881 C 0.91529 0.50637 0.77354 0.0
C882 C 0.9627 0.52726 0.79292 0.0
H883 H 0.95661 0.49227 0.80464 0.0
O884 O 0.89977 0.53109 0.70063 0.0
O885 O 0.88981 0.56648 0.81206 0.0
O886 O 0.90463 0.54228 0.9043 0.0
O887 O 0.89151 0.52406 0.82175 0.0
O888 O 0.87223 0.53648 0.76775 0.0
O889 O 0.91605 0.56801 0.68646 0.0
O890 O 0.9235 0.60189 0.96013 0.0
O891 O 0.92944 0.56893 0.8523 0.0
O892 O 0.91825 0.59064 0.74935 0.0
O893 O 0.91774 0.60842 0.83006 0.0
O894 O 0.94289 0.60291 0.88072 0.0
O895 O 0.90314 0.56501 0.97548 0.0
C896 C 0.86954 0.55103 0.79748 0.0
C897 C 0.98707 0.53845 0.79632 0.0
C898 C 1.00041 0.56232 0.78574 0.0
C899 C 0.90764 0.54755 0.66448 0.0
C900 C 0.92123 0.5457 0.61951 0.0
C901 C 0.93841 0.53966 0.62918 0.0
C902 C 0.91719 0.55038 0.56623 0.0
C903 C 0.93008 0.54889 0.52245 0.0
C904 C 0.95126 0.53815 0.58618 0.0
C905 C 0.94714 0.54267 0.53319 0.0
C906 C 0.89661 0.52326 0.87278 0.0
C907 C 0.94842 0.58792 0.8634 0.0
C908 C 0.91533 0.58562 0.99683 0.0
C909 C 0.90592 0.59006 0.04696 0.0
C910 C 0.89375 0.60235 0.04551 0.0
C911 C 0.90902 0.58177 0.09708 0.0
C912 C 0.89973 0.58544 0.14512 0.0
C913 C 0.88433 0.60582 0.0927 0.0
C914 C 0.88721 0.5974 0.14218 0.0
C915 C 0.92105 0.60903 0.7764 0.0
H916 H 0.94188 0.53606 0.66982 0.0
H917 H 0.9042 0.55548 0.55912 0.0
H918 H 0.96441 0.53337 0.59392 0.0
H919 H 0.95713 0.54098 0.50057 0.0
H920 H 0.89163 0.60947 1.00822 0.0
H921 H 0.91849 0.57236 0.0986 0.0
H922 H 0.87493 0.61528 0.09097 0.0
H923 H 0.8801 0.60073 0.17841 0.0
Gd924 Gd 0.46921 0.35881 0.76845 0.0
Gd925 Gd 0.45699 0.33626 0.90064 0.0
C926 C 0.48254 0.286 0.94867 0.0
C927 C 0.44678 0.24886 0.94886 0.0
C928 C 0.44652 0.28382 0.91937 0.0
C929 C 0.47021 0.297 0.9299 0.0
C930 C 0.43469 0.25949 0.92847 0.0
C931 C 0.4707 0.26197 0.95818 0.0
C932 C 0.50642 0.29948 0.95835 0.0
C933 C 0.51742 0.32342 0.95096 0.0
N934 N 0.48123 0.32042 0.92199 0.0
C935 C 0.50451 0.33366 0.9339 0.0
H936 H 0.51361 0.35226 0.93253 0.0
C937 C 0.41098 0.282 0.89753 0.0
N938 N 0.43485 0.29473 0.90242 0.0
C939 C 0.39887 0.25784 0.90343 0.0
C940 C 0.41078 0.2465 0.91876 0.0
H941 H 0.40041 0.29001 0.89303 0.0
H942 H 0.47984 0.25341 0.97361 0.0
H943 H 0.41509 0.3484 0.73391 0.0
H944 H 0.51643 0.29164 0.97245 0.0
H945 H 0.53582 0.33414 0.95973 0.0
H946 H 0.43758 0.23052 0.9587 0.0
H947 H 0.52545 0.40336 0.7534 0.0
H948 H 0.41066 0.40898 0.76938 0.0
H949 H 0.39186 0.36766 0.7415 0.0
H950 H 0.49006 0.4671 0.8013 0.0
H951 H 0.38013 0.24813 0.89873 0.0
H952 H 0.40122 0.22782 0.92499 0.0
H953 H 0.4474 0.44598 0.79208 0.0
H954 H 0.54785 0.44492 0.77255 0.0
N955 N 0.44623 0.37712 0.76448 0.0
C956 C 0.42084 0.40032 0.76758 0.0
C957 C 0.41016 0.37699 0.75217 0.0
C958 C 0.44481 0.4125 0.77762 0.0
C959 C 0.45725 0.40036 0.77482 0.0
C960 C 0.42331 0.36582 0.7495 0.0
N961 N 0.49262 0.40012 0.77422 0.0
C962 C 0.48117 0.41215 0.78068 0.0
C963 C 0.52912 0.43609 0.77512 0.0
C964 C 0.51771 0.44833 0.7878 0.0
C965 C 0.51621 0.41217 0.76584 0.0
C966 C 0.49338 0.43653 0.78849 0.0
H967 H 0.52777 0.46698 0.79428 0.0
O968 O 0.49391 0.36836 0.70174 0.0
O969 O 0.47427 0.33466 0.82546 0.0
O970 O 0.49349 0.36966 0.9016 0.0
O971 O 0.50386 0.37105 0.81182 0.0
O972 O 0.46295 0.32255 0.74811 0.0
O973 O 0.45734 0.35459 0.68502 0.0
O974 O 0.42917 0.32826 0.95871 0.0
O975 O 0.45004 0.3592 0.84588 0.0
O976 O 0.43442 0.32724 0.75842 0.0
O977 O 0.42293 0.32312 0.84801 0.0
O978 O 0.4686 0.37343 0.91718 0.0
O979 O 0.46453 0.34192 0.98675 0.0
C980 C 0.46829 0.31728 0.79408 0.0
C981 C 0.48099 0.44846 0.79444 0.0
C982 C 0.45672 0.43646 0.78902 0.0
C983 C 0.47805 0.36311 0.66454 0.0
C984 C 0.48344 0.37922 0.61871 0.0
C985 C 0.49275 0.40319 0.62671 0.0
C986 C 0.47803 0.37007 0.56585 0.0
C987 C 0.482 0.38469 0.52084 0.0
C988 C 0.497 0.41787 0.58237 0.0
C989 C 0.49172 0.40876 0.5298 0.0
C990 C 0.50919 0.379 0.86211 0.0
C991 C 0.4574 0.37665 0.87864 0.0
C992 C 0.44296 0.33393 1.00066 0.0
C993 C 0.43501 0.31857 0.04859 0.0
C994 C 0.42099 0.29433 0.04382 0.0
C995 C 0.44227 0.32853 0.10038 0.0
C996 C 0.43577 0.31447 0.14716 0.0
C997 C 0.41451 0.28026 0.08992 0.0
C998 C 0.42186 0.2902 0.14128 0.0
C999 C 0.41832 0.3173 0.79548 0.0
H1000 H 0.49656 0.41058 0.66696 0.0
H1001 H 0.47016 0.35143 0.56008 0.0
H1002 H 0.50432 0.43638 0.58879 0.0
H1003 H 0.49537 0.42059 0.49618 0.0
H1004 H 0.41502 0.28621 1.00479 0.0
H1005 H 0.45331 0.34724 0.1041 0.0
H1006 H 0.4037 0.26157 0.08584 0.0
H1007 H 0.41636 0.27891 0.17644 0.0
Gd1008 Gd 0.33991 0.90029 0.12479 0.0
Gd1009 Gd 0.36765 0.90652 0.25164 0.0
C1010 C 0.42013 0.9851 0.25715 0.0
C1011 C 0.45587 0.9866 0.22848 0.0
C1012 C 0.42024 0.94928 0.23913 0.0
C1013 C 0.40825 0.96056 0.25293 0.0
C1014 C 0.44443 0.96219 0.22897 0.0
C1015 C 0.44374 0.99806 0.24278 0.0
C1016 C 0.40818 0.99584 0.27757 0.0
C1017 C 0.38531 0.98212 0.29526 0.0
N1018 N 0.3854 0.94745 0.26646 0.0
C1019 C 0.37433 0.9579 0.29039 0.0
H1020 H 0.35726 0.94787 0.30756 0.0
C1021 C 0.42144 0.91448 0.24398 0.0
N1022 N 0.40884 0.92572 0.24208 0.0
C1023 C 0.44514 0.92628 0.23166 0.0
C1024 C 0.45665 0.9502 0.22277 0.0
H1025 H 0.41313 0.89609 0.25294 0.0
H1026 H 0.45299 0.0169 0.24469 0.0
H1027 H 0.35438 0.85871 0.0965 0.0
H1028 H 0.41669 0.0146 0.28163 0.0
H1029 H 0.37618 0.99016 0.31337 0.0
H1030 H 0.47434 0.99676 0.21984 0.0
H1031 H 0.29692 0.91366 0.12071 0.0
H1032 H 0.29275 0.79518 0.06109 0.0
H1033 H 0.33542 0.81769 0.07305 0.0
H1034 H 0.23317 0.81564 0.06661 0.0
H1035 H 0.45438 0.91678 0.22859 0.0
H1036 H 0.47515 0.95937 0.21414 0.0
H1037 H 0.25497 0.79474 0.05742 0.0
H1038 H 0.2546 0.89395 0.10912 0.0
N1039 N 0.32303 0.86002 0.1047 0.0
C1040 C 0.30102 0.81329 0.07324 0.0
C1041 C 0.32506 0.82591 0.08014 0.0
C1042 C 0.28802 0.82439 0.08059 0.0
C1043 C 0.2996 0.84802 0.09674 0.0
C1044 C 0.33582 0.84938 0.09483 0.0
N1045 N 0.2989 0.88243 0.1169 0.0
C1046 C 0.28717 0.8595 0.10355 0.0
C1047 C 0.26344 0.88394 0.10838 0.0
C1048 C 0.25105 0.8602 0.09711 0.0
C1049 C 0.28749 0.89493 0.11653 0.0
C1050 C 0.26296 0.84783 0.0931 0.0
H1051 H 0.23248 0.8518 0.08953 0.0
O1052 O 0.33334 0.91753 0.05774 0.0
O1053 O 0.37292 0.92418 0.16836 0.0
O1054 O 0.33646 0.91074 0.26927 0.0
O1055 O 0.32407 0.91582 0.18476 0.0
O1056 O 0.35302 0.93798 0.13739 0.0
O1057 O 0.35198 0.89915 0.04324 0.0
O1058 O 0.38066 0.89433 0.31748 0.0
O1059 O 0.33433 0.88431 0.20612 0.0
O1060 O 0.37526 0.89982 0.11682 0.0
O1061 O 0.37916 0.88624 0.19993 0.0
O1062 O 0.34648 0.86652 0.25069 0.0
O1063 O 0.35815 0.90828 0.33523 0.0
C1064 C 0.37316 0.94325 0.15683 0.0
C1065 C 0.25153 0.82449 0.07653 0.0
C1066 C 0.26398 0.81272 0.07077 0.0
C1067 C 0.34226 0.91005 0.02141 0.0
C1068 C 0.32837 0.89956 0.9718 0.0
C1069 C 0.30395 0.88644 0.97375 0.0
C1070 C 0.33966 0.90268 0.92167 0.0
C1071 C 0.32667 0.89252 0.87405 0.0
C1072 C 0.29104 0.87608 0.92698 0.0
C1073 C 0.30227 0.87902 0.87743 0.0
C1074 C 0.32389 0.91669 0.23882 0.0
C1075 C 0.32951 0.86396 0.22 0.0
C1076 C 0.37153 0.90097 0.35518 0.0
C1077 C 0.38695 0.91489 0.39996 0.0
C1078 C 0.4099 0.93258 0.39001 0.0
C1079 C 0.37844 0.91073 0.45333 0.0
C1080 C 0.39276 0.924 0.49687 0.0
C1081 C 0.42418 0.94583 0.43281 0.0
C1082 C 0.41575 0.94159 0.48589 0.0
C1083 C 0.38564 0.89138 0.14911 0.0
H1084 H 0.29474 0.88433 0.01107 0.0
H1085 H 0.3585 0.91291 0.91981 0.0
H1086 H 0.27223 0.86596 0.92906 0.0
H1087 H 0.29181 0.87121 0.84147 0.0
H1088 H 0.41683 0.93615 0.34934 0.0
H1089 H 0.36055 0.89735 0.4607 0.0
H1090 H 0.4419 0.95938 0.42482 0.0
H1091 H 0.42735 0.9519 0.51839 0.0
Gd1092 Gd 0.12954 0.44554 0.12689 0.0
Gd1093 Gd 0.1233 0.46767 0.25281 0.0
C1094 C 0.04515 0.4437 0.25568 0.0
C1095 C 0.04491 0.47878 0.22868 0.0
C1096 C 0.08162 0.47915 0.24003 0.0
C1097 C 0.06971 0.45578 0.25244 0.0
C1098 C 0.06935 0.49114 0.23015 0.0
C1099 C 0.03281 0.45508 0.24168 0.0
C1100 C 0.03376 0.42084 0.27497 0.0
C1101 C 0.04689 0.41091 0.29225 0.0
N1102 N 0.08224 0.44536 0.26579 0.0
C1103 C 0.07117 0.42357 0.28815 0.0
H1104 H 0.08074 0.41583 0.30443 0.0
C1105 C 0.11701 0.51449 0.24692 0.0
N1106 N 0.10517 0.49068 0.24407 0.0
C1107 C 0.10587 0.52707 0.23473 0.0
C1108 C 0.08196 0.51536 0.22508 0.0
H1109 H 0.13543 0.524 0.25613 0.0
H1110 H 1.01395 0.44594 0.24289 0.0
H1111 H 0.17061 0.50137 0.09661 0.0
H1112 H 1.01496 0.41101 0.27834 0.0
H1113 H 0.03833 0.39354 0.30924 0.0
H1114 H 0.03523 0.48763 0.22027 0.0
H1115 H 0.11662 0.38934 0.12491 0.0
H1116 H 0.23429 0.50354 0.06097 0.0
H1117 H 0.2115 0.52347 0.07204 0.0
H1118 H 0.21457 0.42381 0.07003 0.0
H1119 H 0.1159 0.54578 0.23215 0.0
H1120 H 0.07331 0.52522 0.21656 0.0
H1121 H 0.23513 0.46638 0.05918 0.0
H1122 H 0.13658 0.36692 0.11429 0.0
N1123 N 0.16971 0.46897 0.10625 0.0
C1124 C 0.21624 0.4937 0.07361 0.0
C1125 C 0.20348 0.505 0.07999 0.0
C1126 C 0.20539 0.46971 0.08212 0.0
C1127 C 0.18185 0.45765 0.09886 0.0
C1128 C 0.1801 0.49228 0.09531 0.0
N1129 N 0.14769 0.42259 0.12023 0.0
C1130 C 0.17058 0.43383 0.10665 0.0
C1131 C 0.14647 0.38575 0.11299 0.0
C1132 C 0.17018 0.39715 0.10146 0.0
C1133 C 0.13534 0.39871 0.1206 0.0
C1134 C 0.18238 0.42138 0.09665 0.0
H1135 H 0.17868 0.38704 0.09423 0.0
O1136 O 0.11243 0.42138 0.06025 0.0
O1137 O 0.10553 0.45463 0.1697 0.0
O1138 O 0.11897 0.43236 0.27157 0.0
O1139 O 0.11417 0.41451 0.18768 0.0
O1140 O 0.09191 0.42082 0.13974 0.0
O1141 O 0.13029 0.45831 0.04501 0.0
O1142 O 0.13559 0.49233 0.31978 0.0
O1143 O 0.14571 0.45661 0.20807 0.0
O1144 O 0.12954 0.48105 0.11775 0.0
O1145 O 0.14338 0.49913 0.20018 0.0
O1146 O 0.16327 0.487 0.25139 0.0
O1147 O 0.12119 0.45573 0.3359 0.0
C1148 C 0.08652 0.43572 0.15834 0.0
C1149 C 0.20563 0.43328 0.0796 0.0
C1150 C 0.2172 0.45742 0.07285 0.0
C1151 C 0.11962 0.43761 0.02358 0.0
C1152 C 0.1302 0.43423 0.97418 0.0
C1153 C 0.14351 0.42312 0.97655 0.0
C1154 C 0.127 0.44226 0.92385 0.0
C1155 C 0.13727 0.43947 0.87645 0.0
C1156 C 0.15396 0.4206 0.93 0.0
C1157 C 0.15095 0.42875 0.88026 0.0
C1158 C 0.1132 0.41375 0.24174 0.0
C1159 C 0.16599 0.47251 0.2215 0.0
C1160 C 0.12871 0.47627 0.35678 0.0
C1161 C 0.11482 0.47765 0.4017 0.0
C1162 C 0.0971 0.48293 0.3919 0.0
C1163 C 0.11901 0.47315 0.45498 0.0
C1164 C 0.10572 0.47403 0.49858 0.0
C1165 C 0.08384 0.48382 0.43475 0.0
C1166 C 0.08809 0.47945 0.48774 0.0
C1167 C 0.13796 0.50006 0.14934 0.0
H1168 H 0.1457 0.41614 0.01405 0.0
H1169 H 0.11664 0.45073 0.92168 0.0
H1170 H 0.16423 0.41206 0.9324 0.0
H1171 H 0.15884 0.42612 0.8445 0.0
H1172 H 0.0935 0.4864 0.3513 0.0
H1173 H 0.13243 0.46864 0.46223 0.0
H1174 H 0.07026 0.48799 0.42689 0.0
H1175 H 0.07778 0.48064 0.52028 0.0
Gd1176 Gd 0.58374 0.69176 0.12694 0.0
Gd1177 Gd 0.56308 0.65984 0.2507 0.0
C1178 C 0.58643 0.60547 0.23591 0.0
C1179 C 0.55029 0.57054 0.21238 0.0
C1180 C 0.55062 0.60675 0.23144 0.0
C1181 C 0.57433 0.61794 0.23968 0.0
C1182 C 0.53817 0.58267 0.21976 0.0
C1183 C 0.57441 0.58193 0.22049 0.0
C1184 C 0.61008 0.61683 0.24934 0.0
C1185 C 0.62084 0.63971 0.26809 0.0
N1186 N 0.58534 0.64068 0.25476 0.0
C1187 C 0.60813 0.65133 0.27124 0.0
H1188 H 0.61694 0.66883 0.2866 0.0
C1189 C 0.5157 0.60716 0.24542 0.0
N1190 N 0.53944 0.61889 0.24011 0.0
C1191 C 0.50263 0.5836 0.23215 0.0
C1192 C 0.51387 0.57132 0.21819 0.0
H1193 H 0.5066 0.6162 0.25734 0.0
H1194 H 0.58348 0.57219 0.21657 0.0
H1195 H 0.52728 0.67686 0.10541 0.0
H1196 H 0.61998 0.60788 0.24697 0.0
H1197 H 0.63898 0.64847 0.28012 0.0
H1198 H 0.54106 0.55214 0.20255 0.0
H1199 H 0.63937 0.73455 0.11674 0.0
H1200 H 0.52371 0.73834 0.07843 0.0
H1201 H 0.50434 0.69556 0.08692 0.0
H1202 H 0.60338 0.7989 0.0829 0.0
H1203 H 0.48391 0.57513 0.23172 0.0
H1204 H 0.50363 0.55295 0.2085 0.0
H1205 H 0.56065 0.77677 0.07749 0.0
H1206 H 0.66168 0.77712 0.10568 0.0
N1207 N 0.55976 0.70842 0.11151 0.0
C1208 C 0.53398 0.73016 0.08742 0.0
C1209 C 0.52301 0.70605 0.09236 0.0
C1210 C 0.55815 0.74341 0.09317 0.0
C1211 C 0.57075 0.7319 0.10509 0.0
C1212 C 0.53622 0.69543 0.10376 0.0
N1213 N 0.6063 0.73271 0.11835 0.0
C1214 C 0.59471 0.74445 0.10945 0.0
C1215 C 0.64286 0.76823 0.10744 0.0
C1216 C 0.63117 0.78068 0.10128 0.0
C1217 C 0.6301 0.74411 0.11457 0.0
C1218 C 0.60682 0.76878 0.10092 0.0
H1219 H 0.64108 0.79934 0.0949 0.0
O1220 O 0.60676 0.69752 0.0586 0.0
O1221 O 0.57734 0.65857 0.16621 0.0
O1222 O 0.59828 0.69013 0.2698 0.0
O1223 O 0.61418 0.71077 0.19016 0.0
O1224 O 0.61085 0.68192 0.13732 0.0
O1225 O 0.56967 0.68063 0.04555 0.0
O1226 O 0.54005 0.64671 0.32038 0.0
O1227 O 0.57217 0.69338 0.20952 0.0
O1228 O 0.5485 0.6558 0.1166 0.0
O1229 O 0.53118 0.6491 0.20059 0.0
O1230 O 0.54328 0.68014 0.25742 0.0
O1231 O 0.57701 0.66893 0.33259 0.0
C1232 C 0.59738 0.66098 0.15439 0.0
C1233 C 0.59435 0.78031 0.09008 0.0
C1234 C 0.57005 0.76767 0.08648 0.0
C1235 C 0.59002 0.689 0.02294 0.0
C1236 C 0.59379 0.70246 0.97259 0.0
C1237 C 0.6019 0.72644 0.97438 0.0
C1238 C 0.58933 0.6912 0.92193 0.0
C1239 C 0.59301 0.70386 0.87337 0.0
C1240 C 0.60527 0.73901 0.9267 0.0
C1241 C 0.60084 0.72785 0.87654 0.0
C1242 C 0.61569 0.70712 0.24314 0.0
C1243 C 0.55672 0.69763 0.22704 0.0
C1244 C 0.55694 0.65598 0.35554 0.0
C1245 C 0.55647 0.64099 0.40005 0.0
C1246 C 0.55117 0.618 0.39046 0.0
C1247 C 0.56146 0.64994 0.45306 0.0
C1248 C 0.56097 0.63602 0.49674 0.0
C1249 C 0.55062 0.60406 0.43356 0.0
C1250 C 0.5554 0.61293 0.48641 0.0
C1251 C 0.52991 0.644 0.14892 0.0
H1252 H 0.60576 0.73557 0.01237 0.0
H1253 H 0.58341 0.67273 0.9204 0.0
H1254 H 0.61139 0.75749 0.92864 0.0
H1255 H 0.60338 0.73803 0.84021 0.0
H1256 H 0.54741 0.61082 0.34986 0.0
H1257 H 0.56542 0.66769 0.46031 0.0
H1258 H 0.54651 0.58632 0.42596 0.0
H1259 H 0.5551 0.60184 0.51904 0.0
Gd1260 Gd 0.33407 0.44813 0.10057 0.0
Gd1261 Gd 0.36333 0.46049 0.22803 0.0
C1262 C 0.41802 0.5357 0.26562 0.0
C1263 C 0.45279 0.53285 0.27928 0.0
C1264 C 0.41662 0.49888 0.25069 0.0
C1265 C 0.40557 0.5119 0.25131 0.0
C1266 C 0.44036 0.50921 0.26516 0.0
C1267 C 0.44166 0.54608 0.27944 0.0
C1268 C 0.40617 0.5482 0.2675 0.0
C1269 C 0.38234 0.5368 0.25665 0.0
N1270 N 0.38242 0.50111 0.24025 0.0
C1271 C 0.37065 0.5131 0.24374 0.0
H1272 H 0.3522 0.50454 0.23738 0.0
C1273 C 0.41321 0.46166 0.24819 0.0
N1274 N 0.40369 0.47569 0.24076 0.0
C1275 C 0.43686 0.47125 0.26015 0.0
C1276 C 0.45058 0.49519 0.26824 0.0
H1277 H 0.40242 0.44295 0.24474 0.0
H1278 H 0.45133 0.56421 0.29153 0.0
H1279 H 0.33572 0.40162 0.04153 0.0
H1280 H 0.41515 0.5665 0.27818 0.0
H1281 H 0.37289 0.54619 0.25891 0.0
H1282 H 0.47086 0.54087 0.29177 0.0
H1283 H 0.29148 0.46308 0.09115 0.0
H1284 H 0.27584 0.33928 0.0945 0.0
H1285 H 0.31388 0.3591 0.04773 0.0
H1286 H 0.22548 0.36661 0.15619 0.0
H1287 H 0.44435 0.46009 0.26458 0.0
H1288 H 0.46878 0.50253 0.27901 0.0
H1289 H 0.24313 0.34236 0.13721 0.0
H1290 H 0.25077 0.44651 0.11688 0.0
N1291 N 0.31233 0.40668 0.09183 0.0
C1292 C 0.28579 0.35813 0.09354 0.0
C1293 C 0.30725 0.36925 0.06724 0.0
C1294 C 0.27662 0.37149 0.11428 0.0
C1295 C 0.29032 0.39601 0.11179 0.0
C1296 C 0.31998 0.39358 0.06528 0.0
N1297 N 0.29324 0.43265 0.11171 0.0
C1298 C 0.28045 0.40957 0.12252 0.0
C1299 C 0.25874 0.43577 0.11867 0.0
C1300 C 0.24604 0.41276 0.1362 0.0
C1301 C 0.28213 0.44522 0.10476 0.0
C1302 C 0.25659 0.39903 0.13595 0.0
H1303 H 0.22784 0.40545 0.1467 0.0
O1304 O 0.32378 0.4645 0.03813 0.0
O1305 O 0.36143 0.47738 0.15258 0.0
O1306 O 0.32779 0.45983 0.23413 0.0
O1307 O 0.3249 0.47167 0.14834 0.0
O1308 O 0.37061 0.47632 0.07371 0.0
O1309 O 0.33845 0.44308 0.01536 0.0
O1310 O 0.36504 0.44283 0.30087 0.0
O1311 O 0.33143 0.43331 0.18557 0.0
O1312 O 0.35821 0.43369 0.09597 0.0
O1313 O 0.38491 0.45237 0.16515 0.0
O1314 O 0.35343 0.4231 0.2202 0.0
O1315 O 0.35276 0.46729 0.30648 0.0
C1316 C 0.37777 0.48781 0.11834 0.0
C1317 C 0.24366 0.37491 0.14461 0.0
C1318 C 0.25369 0.36111 0.13375 0.0
C1319 C 0.32891 0.45493 0.99838 0.0
C1320 C 0.31183 0.44419 0.95419 0.0
C1321 C 0.28836 0.42823 0.96481 0.0
C1322 C 0.31954 0.44911 0.90023 0.0
C1323 C 0.30396 0.4383 0.85673 0.0
C1324 C 0.27272 0.41764 0.92201 0.0
C1325 C 0.2804 0.4226 0.86833 0.0
C1326 C 0.31792 0.46774 0.19932 0.0
C1327 C 0.33309 0.41548 0.19892 0.0
C1328 C 0.35827 0.45381 0.33311 0.0
C1329 C 0.37162 0.46334 0.3838 0.0
C1330 C 0.39605 0.47539 0.38372 0.0
C1331 C 0.35977 0.46031 0.43312 0.0
C1332 C 0.37227 0.4695 0.48184 0.0
C1333 C 0.40851 0.4847 0.43157 0.0
C1334 C 0.39676 0.48185 0.48033 0.0
C1335 C 0.37812 0.43955 0.11982 0.0
H1336 H 0.28213 0.42374 1.00593 0.0
H1337 H 0.33785 0.46092 0.89229 0.0
H1338 H 0.25459 0.40542 0.93046 0.0
H1339 H 0.26787 0.41421 0.83593 0.0
H1340 H 0.40559 0.47746 0.34702 0.0
H1341 H 0.34089 0.45094 0.43348 0.0
H1342 H 0.42736 0.49398 0.43094 0.0
H1343 H 0.40687 0.48885 0.51711 0.0
Gd1344 Gd 0.58024 0.88906 0.09509 0.0
Gd1345 Gd 0.56844 0.90703 0.22253 0.0
C1346 C 0.49364 0.88807 0.26013 0.0
C1347 C 0.49717 0.926 0.27297 0.0
C1348 C 0.53082 0.92302 0.24531 0.0
C1349 C 0.51744 0.89901 0.24601 0.0
C1350 C 0.52082 0.93679 0.25915 0.0
C1351 C 0.48359 0.90168 0.27335 0.0
C1352 C 0.48081 0.86375 0.26217 0.0
C1353 C 0.49184 0.85095 0.2513 0.0
N1354 N 0.52784 0.88631 0.2347 0.0
C1355 C 0.51551 0.86258 0.2381 0.0
H1356 H 0.52381 0.85244 0.23121 0.0
C1357 C 0.56822 0.95645 0.24109 0.0
N1358 N 0.55392 0.93288 0.23476 0.0
C1359 C 0.55897 0.97085 0.25257 0.0
C1360 C 0.5351 0.96099 0.26126 0.0
H1361 H 0.58691 0.96413 0.23767 0.0
H1362 H 0.46543 0.89355 0.28501 0.0
H1363 H 0.61539 0.93804 0.01716 0.0
H1364 H 0.46251 0.85472 0.27279 0.0
H1365 H 0.48218 0.83214 0.25351 0.0
H1366 H 0.4894 0.93634 0.28485 0.0
H1367 H 0.58036 0.83845 0.11568 0.0
H1368 H 0.6861 0.96072 0.05687 0.0
H1369 H 0.65664 0.96697 1.01022 0.0
H1370 H 0.68148 0.89534 0.14982 0.0
H1371 H 0.57034 0.98948 0.25623 0.0
H1372 H 0.52802 0.97212 0.27153 0.0
H1373 H 0.69517 0.934 0.1099 0.0
H1374 H 0.60686 0.82595 0.15196 0.0
N1375 N 0.62022 0.9166 0.07487 0.0
C1376 C 0.66776 0.94815 0.06164 0.0
C1377 C 0.6512 0.95178 0.03552 0.0
C1378 C 0.6605 0.92754 0.09048 0.0
C1379 C 0.63636 0.91175 0.09561 0.0
C1380 C 0.62754 0.93544 0.04106 0.0
N1381 N 0.60557 0.87465 0.11757 0.0
C1382 C 0.62874 0.89011 0.11821 0.0
C1383 C 0.61326 0.84417 0.14359 0.0
C1384 C 0.63674 0.86043 0.15102 0.0
C1385 C 0.59808 0.85151 0.12464 0.0
C1386 C 0.64494 0.88357 0.13604 0.0
H1387 H 0.64856 0.85468 0.16499 0.0
O1388 O 0.56325 0.85659 0.04924 0.0
O1389 O 0.55156 0.88776 0.14739 0.0
O1390 O 0.56817 0.87153 0.23 0.0
O1391 O 0.55805 0.85647 0.14345 0.0
O1392 O 0.55068 0.89514 0.06655 0.0
O1393 O 0.58465 0.88948 1.00697 0.0
O1394 O 0.58822 0.92585 0.29419 0.0
O1395 O 0.59504 0.90141 0.1801 0.0
O1396 O 0.58559 0.92453 0.07922 0.0
O1397 O 0.57766 0.93729 0.16007 0.0
O1398 O 0.60547 0.93442 0.21066 0.0
O1399 O 0.56045 0.89067 0.3027 0.0
C1400 C 0.54014 0.8922 0.11236 0.0
C1401 C 0.66884 0.89991 0.1353 0.0
C1402 C 0.67662 0.92189 0.11245 0.0
C1403 C 0.57172 0.86701 1.00325 0.0
C1404 C 0.56681 0.85421 0.95119 0.0
C1405 C 0.5599 0.83045 0.95173 0.0
C1406 C 0.56965 0.86554 0.90084 0.0
C1407 C 0.56597 0.85321 0.85163 0.0
C1408 C 0.55624 0.81824 0.90323 0.0
C1409 C 0.55935 0.82951 0.85357 0.0
C1410 C 0.5609 0.85368 0.19531 0.0
C1411 C 0.61288 0.92115 0.19175 0.0
C1412 C 0.57587 0.90917 0.32804 0.0
C1413 C 0.56829 0.91567 0.37859 0.0
C1414 C 0.5607 0.93198 0.37694 0.0
C1415 C 0.56905 0.906 0.4292 0.0
C1416 C 0.5623 0.91271 0.47747 0.0
C1417 C 0.55418 0.93876 0.42407 0.0
C1418 C 0.55508 0.92937 0.47388 0.0
C1419 C 0.58425 0.94053 0.10793 0.0
H1420 H 0.55765 0.82135 0.98973 0.0
H1421 H 0.57491 0.88386 0.89987 0.0
H1422 H 0.55101 0.79994 0.90413 0.0
H1423 H 0.55617 0.81955 0.81652 0.0
H1424 H 0.56007 0.93982 0.33943 0.0
H1425 H 0.5747 0.89324 0.43079 0.0
H1426 H 0.54859 0.95155 0.42203 0.0
H1427 H 0.55041 0.93553 0.50981 0.0
Gd1428 Gd 0.13666 0.69531 0.0993 0.0
Gd1429 Gd 0.12063 0.66531 0.22552 0.0
C1430 C 0.14333 0.61245 0.26612 0.0
C1431 C 0.10628 0.57729 0.28129 0.0
C1432 C 0.10731 0.61262 0.25028 0.0
C1433 C 0.13137 0.6242 0.25076 0.0
C1434 C 0.09448 0.58902 0.26597 0.0
C1435 C 0.13065 0.58892 0.28104 0.0
C1436 C 0.16767 0.62491 0.26801 0.0
C1437 C 0.17947 0.64863 0.25608 0.0
N1438 N 0.14311 0.64724 0.23869 0.0
C1439 C 0.16685 0.65961 0.24213 0.0
H1440 H 0.17624 0.678 0.23479 0.0
C1441 C 0.07289 0.61493 0.24627 0.0
N1442 N 0.09649 0.62493 0.2393 0.0
C1443 C 0.05937 0.59135 0.25936 0.0
C1444 C 0.0702 0.57827 0.26892 0.0
H1445 H 0.0645 0.62525 0.24171 0.0
H1446 H 0.13955 0.57973 0.29371 0.0
H1447 H 0.08301 0.6896 0.06715 0.0
H1448 H 0.17746 0.61649 0.27951 0.0
H1449 H 0.19829 0.65855 0.25828 0.0
H1450 H 0.09668 0.55939 0.29493 0.0
H1451 H 0.19391 0.73732 0.08555 0.0
H1452 H 0.08444 0.75183 0.11603 0.0
H1453 H 0.0631 0.71164 0.08058 0.0
H1454 H 0.16493 0.80449 0.15178 0.0
H1455 H 0.04068 0.58347 0.26352 0.0
H1456 H 0.05977 0.56016 0.28058 0.0
H1457 H 0.12239 0.78618 0.14377 0.0
H1458 H 0.21853 0.77836 0.10787 0.0
N1459 N 0.11584 0.71611 0.09893 0.0
C1460 C 0.09344 0.74208 0.11098 0.0
C1461 C 0.08135 0.71941 0.09101 0.0
C1462 C 0.11727 0.75229 0.12157 0.0
C1463 C 0.12818 0.73879 0.11453 0.0
C1464 C 0.09291 0.70678 0.08418 0.0
N1465 N 0.16215 0.73608 0.1082 0.0
C1466 C 0.15206 0.74904 0.11969 0.0
C1467 C 0.19989 0.77053 0.11118 0.0
C1468 C 0.18993 0.78358 0.12863 0.0
C1469 C 0.18569 0.74697 0.09927 0.0
C1470 C 0.16569 0.77309 0.13109 0.0
H1471 H 0.20101 0.8019 0.13781 0.0
O1472 O 0.16182 0.70501 0.03374 0.0
O1473 O 0.13987 0.66864 0.15044 0.0
O1474 O 0.15509 0.70154 0.23174 0.0
O1475 O 0.16971 0.70516 0.14568 0.0
O1476 O 0.13147 0.66001 0.07053 0.0
O1477 O 0.12568 0.69343 0.0157 0.0
O1478 O 0.10108 0.66385 0.2978 0.0
O1479 O 0.12341 0.69669 0.18434 0.0
O1480 O 0.09958 0.66781 0.08946 0.0
O1481 O 0.09157 0.64244 0.16171 0.0
O1482 O 0.09121 0.67206 0.21543 0.0
O1483 O 0.13784 0.67649 0.30414 0.0
C1484 C 0.13541 0.65281 0.11556 0.0
C1485 C 0.15476 0.78612 0.14197 0.0
C1486 C 0.13056 0.77572 0.13725 0.0
C1487 C 0.14652 0.70136 0.99616 0.0
C1488 C 0.15332 0.71859 0.95239 0.0
C1489 C 0.16057 0.742 0.96307 0.0
C1490 C 0.15132 0.71099 0.89847 0.0
C1491 C 0.15658 0.72661 0.855 0.0
C1492 C 0.1661 0.7577 0.92027 0.0
C1493 C 0.16412 0.75011 0.86657 0.0
C1494 C 0.17274 0.71196 0.19673 0.0
C1495 C 0.10313 0.6931 0.19766 0.0
C1496 C 0.1188 0.67101 0.33034 0.0
C1497 C 0.11507 0.65807 0.38153 0.0
C1498 C 0.10306 0.63366 0.38222 0.0
C1499 C 0.1236 0.67033 0.43057 0.0
C1500 C 0.12034 0.65827 0.47985 0.0
C1501 C 0.09995 0.62162 0.43064 0.0
C1502 C 0.10853 0.63378 0.47917 0.0
C1503 C 0.08607 0.64788 0.11362 0.0
H1504 H 0.16173 0.74814 1.00417 0.0
H1505 H 0.14503 0.69271 0.89048 0.0
H1506 H 0.17178 0.77579 0.92874 0.0
H1507 H 0.16858 0.76265 0.83416 0.0
H1508 H 0.09587 0.62382 0.34567 0.0
H1509 H 0.13286 0.6892 0.43028 0.0
H1510 H 0.09065 0.60277 0.43062 0.0
H1511 H 0.10545 0.62398 0.51637 0.0
H1512 H 0.13774 0.40266 0.3133 0.0
H1513 H 0.02561 0.29493 0.45036 0.0
H1514 H 0.06903 0.37517 0.24582 0.0
H1515 H 0.09381 0.30236 0.46051 0.0
H1516 H 0.04138 0.32887 0.3891 0.0
H1517 H 0.12242 0.37 0.37782 0.0
C1518 C 0.11951 0.38943 0.31116 0.0
C1519 C 0.10487 0.39139 0.27266 0.0
C1520 C 0.05302 0.32343 0.40582 0.0
C1521 C 0.08673 0.35438 0.34928 0.0
C1522 C 0.04411 0.3043 0.44185 0.0
C1523 C 0.05851 0.29609 0.46256 0.0
C1524 C 0.07668 0.33479 0.39052 0.0
C1525 C 0.08217 0.30845 0.44743 0.0
C1526 C 0.11069 0.37089 0.34852 0.0
C1527 C 0.08116 0.37405 0.27345 0.0
N1528 N 0.09045 0.32706 0.41287 0.0
N1529 N 0.07282 0.35653 0.3113 0.0
H1530 H 0.75453 0.79316 0.40251 0.0
H1531 H 0.61786 0.71015 0.35348 0.0
H1532 H 0.71129 0.73326 0.50066 0.0
H1533 H 0.66308 0.73738 0.21441 0.0
H1534 H 0.65149 0.72747 0.41278 0.0
H1535 H 0.72134 0.78171 0.33967 0.0
C1536 C 0.73782 0.77816 0.41221 0.0
C1537 C 0.73556 0.7647 0.4586 0.0
C1538 C 0.6542 0.72988 0.36938 0.0
C1539 C 0.69751 0.75116 0.38574 0.0
C1540 C 0.63485 0.71991 0.33484 0.0
C1541 C 0.6372 0.72172 0.27778 0.0
C1542 C 0.67671 0.74246 0.34798 0.0
C1543 C 0.6601 0.7353 0.25772 0.0
C1544 C 0.719 0.77139 0.37563 0.0
C1545 C 0.71373 0.74474 0.467 0.0
N1546 N 0.67893 0.74505 0.29266 0.0
N1547 N 0.6957 0.73879 0.4316 0.0
H1548 H 0.29473 1.00296 0.45566 0.0
H1549 H 0.28622 0.89175 0.30494 0.0
H1550 H 0.22975 0.93835 0.44706 0.0
H1551 H 0.33097 0.96131 0.24643 0.0
H1552 H 0.26838 0.90697 0.36869 0.0
H1553 H 0.31216 0.98663 0.39399 0.0
C1554 C 0.2843 0.98507 0.44246 0.0
C1555 C 0.26068 0.97199 0.45753 0.0
C1556 C 0.2819 0.9189 0.34149 0.0
C1557 C 0.28069 0.95305 0.38599 0.0
C1558 C 0.29193 0.91017 0.30458 0.0
C1559 C 0.3097 0.92511 0.26888 0.0
C1560 C 0.29026 0.94301 0.34476 0.0
C1561 C 0.3169 0.949 0.27191 0.0
C1562 C 0.29421 0.97585 0.40646 0.0
C1563 C 0.24809 0.94898 0.43771 0.0
N1564 N 0.30743 0.9572 0.30943 0.0
N1565 N 0.25818 0.94029 0.40342 0.0
H1566 H 0.31816 0.08493 0.58186 0.0
H1567 H 0.38317 0.05721 0.82357 0.0
H1568 H 0.30808 0.01746 0.62511 0.0
H1569 H 0.41468 0.1265 0.75795 0.0
H1570 H 0.35082 0.04484 0.7602 0.0
H1571 H 0.35013 0.10268 0.65015 0.0
C1572 C 0.32269 0.07385 0.60491 0.0
C1573 C 0.31006 0.04949 0.59712 0.0
C1574 C 0.36454 0.0629 0.7598 0.0
C1575 C 0.34623 0.06968 0.67667 0.0
C1576 C 0.38293 0.07008 0.79687 0.0
C1577 C 0.40164 0.09305 0.7972 0.0
C1578 C 0.36458 0.07858 0.7212 0.0
C1579 C 0.40046 0.10872 0.76017 0.0
C1580 C 0.34087 0.084 0.64426 0.0
C1581 C 0.31686 0.03621 0.62911 0.0
N1582 N 0.38242 0.10119 0.72342 0.0
N1583 N 0.33403 0.04634 0.66703 0.0
H1584 H 0.90174 0.28679 0.77025 0.0
H1585 H 0.99575 0.29492 0.55597 0.0
H1586 H 0.97464 0.33795 0.78328 0.0
H1587 H 0.95109 0.2281 0.62861 0.0
H1588 H 0.97978 0.31239 0.61888 0.0
H1589 H 0.91193 0.26548 0.70269 0.0
C1590 C 0.91984 0.29335 0.75993 0.0
C1591 C 0.93731 0.31429 0.78322 0.0
C1592 C 0.97298 0.29376 0.61992 0.0
C1593 C 0.9489 0.29076 0.70314 0.0
C1594 C 0.98184 0.28371 0.58329 0.0
C1595 C 0.97462 0.25987 0.5862 0.0
C1596 C 0.95619 0.27988 0.65896 0.0
C1597 C 0.95701 0.24647 0.62424 0.0
C1598 C 0.92562 0.28134 0.72076 0.0
C1599 C 0.96046 0.32198 0.76682 0.0
N1600 N 0.94844 0.25656 0.65891 0.0
N1601 N 0.96545 0.31062 0.72756 0.0
H1602 H 0.76774 0.70066 0.53852 0.0
H1603 H 0.71594 0.65428 0.83029 0.0
H1604 H 0.7871 0.74542 0.67891 0.0
H1605 H 0.73217 0.61089 0.73116 0.0
H1606 H 0.73903 0.68709 0.76983 0.0
H1607 H 0.75212 0.66655 0.60057 0.0
C1608 C 0.76918 0.70346 0.58197 0.0
C1609 C 0.77862 0.72621 0.60296 0.0
C1610 C 0.73807 0.67058 0.7617 0.0
C1611 C 0.76023 0.68717 0.67427 0.0
C1612 C 0.72521 0.65188 0.79707 0.0
C1613 C 0.72311 0.62999 0.78809 0.0
C1614 C 0.74809 0.66738 0.71446 0.0
C1615 C 0.73416 0.62768 0.74136 0.0
C1616 C 0.76013 0.68394 0.61748 0.0
C1617 C 0.77969 0.72842 0.6601 0.0
N1618 N 0.74584 0.64595 0.706 0.0
N1619 N 0.77037 0.70942 0.6931 0.0
H1620 H 0.9719 0.74745 0.61646 0.0
H1621 H 0.92178 0.61136 0.66577 0.0
H1622 H 0.99029 0.70493 0.52022 0.0
H1623 H 0.9375 0.65639 0.80499 0.0
H1624 H 0.93738 0.64487 0.60683 0.0
H1625 H 0.95051 0.71425 0.67927 0.0
C1626 C 0.97052 0.73086 0.60693 0.0
C1627 C 0.98203 0.72876 0.56093 0.0
C1628 C 0.93737 0.64757 0.65019 0.0
C1629 C 0.95808 0.69079 0.63391 0.0
C1630 C 0.92838 0.62826 0.68459 0.0
C1631 C 0.92845 0.63058 0.74162 0.0
C1632 C 0.94643 0.67001 0.67162 0.0
C1633 C 0.93705 0.65342 0.76172 0.0
C1634 C 0.95871 0.71205 0.64356 0.0
C1635 C 0.98076 0.70715 0.55308 0.0
N1636 N 0.94574 0.67221 0.72688 0.0
N1637 N 0.96897 0.68917 0.58848 0.0
H1638 H 0.29462 0.22869 0.58774 0.0
H1639 H 0.37997 0.32344 0.80145 0.0
H1640 H 0.31815 0.30178 0.56973 0.0
H1641 H 0.40266 0.27857 0.73186 0.0
H1642 H 0.34681 0.3071 0.73754 0.0
H1643 H 0.32562 0.23887 0.65689 0.0
C1644 C 0.30644 0.2468 0.59731 0.0
C1645 C 0.30358 0.26433 0.57226 0.0
C1646 C 0.35868 0.30033 0.73744 0.0
C1647 C 0.33815 0.27599 0.65396 0.0
C1648 C 0.37744 0.30941 0.77462 0.0
C1649 C 0.39415 0.30225 0.77282 0.0
C1650 C 0.35601 0.28338 0.69898 0.0
C1651 C 0.39013 0.28444 0.7354 0.0
C1652 C 0.32395 0.2526 0.63737 0.0
C1653 C 0.31944 0.28754 0.58761 0.0
N1654 N 0.37164 0.27568 0.70016 0.0
N1655 N 0.33549 0.29257 0.62771 0.0
H1656 H 0.74381 0.09056 0.80705 0.0
H1657 H 0.74135 0.04298 0.50995 0.0
H1658 H 0.71729 0.10939 0.6676 0.0
H1659 H 0.79872 0.05633 0.61449 0.0
H1660 H 0.73056 0.06477 0.57178 0.0
H1661 H 0.76245 0.07541 0.74417 0.0
C1662 C 0.74202 0.0918 0.7637 0.0
C1663 C 0.72852 0.1012 0.74343 0.0
C1664 C 0.74591 0.06354 0.58086 0.0
C1665 C 0.74959 0.08346 0.67099 0.0
C1666 C 0.75244 0.05149 0.54457 0.0
C1667 C 0.77191 0.04893 0.55465 0.0
C1668 C 0.75806 0.07228 0.63 0.0
C1669 C 0.78427 0.05876 0.60339 0.0
C1670 C 0.75269 0.08311 0.72771 0.0
C1671 C 0.72703 0.10212 0.68627 0.0
N1672 N 0.77699 0.06966 0.63948 0.0
N1673 N 0.73699 0.09321 0.65282 0.0
H1674 H 0.61605 0.89476 0.27522 0.0
H1675 H 0.7514 0.98378 0.32709 0.0
H1676 H 0.65743 0.95641 0.18055 0.0
H1677 H 0.70679 0.95019 0.46458 0.0
H1678 H 0.718 0.96593 0.2677 0.0
H1679 H 0.64939 0.90696 0.33812 0.0
C1680 C 0.63241 0.91034 0.26632 0.0
C1681 C 0.63413 0.92411 0.22097 0.0
C1682 C 0.71536 0.96229 0.31076 0.0
C1683 C 0.67225 0.93849 0.29382 0.0
C1684 C 0.73461 0.97258 0.34544 0.0
C1685 C 0.73236 0.96907 0.40218 0.0
C1686 C 0.69305 0.94774 0.33158 0.0
C1687 C 0.70968 0.9537 0.42157 0.0
C1688 C 0.65129 0.91752 0.30291 0.0
C1689 C 0.65545 0.94477 0.21349 0.0
N1690 N 0.69094 0.94368 0.38645 0.0
N1691 N 0.67352 0.95113 0.24888 0.0
H1692 H 0.04511 0.73333 0.45845 0.0
H1693 H 0.13388 0.73822 0.23732 0.0
H1694 H 0.08306 0.79805 0.37205 0.0
H1695 H 0.06111 0.68613 0.23025 0.0
H1696 H 0.12402 0.7608 0.30163 0.0
H1697 H 0.05999 0.71534 0.39416 0.0
C1698 C 0.05734 0.74403 0.42741 0.0
C1699 C 0.06319 0.76742 0.42158 0.0
C1700 C 0.11026 0.74452 0.28541 0.0
C1701 C 0.08031 0.74681 0.34729 0.0
C1702 C 0.11584 0.73174 0.24809 0.0
C1703 C 0.09829 0.71023 0.22728 0.0
C1704 C 0.08716 0.73529 0.30391 0.0
C1705 C 0.07528 0.70259 0.24459 0.0
C1706 C 0.06557 0.73366 0.39019 0.0
C1707 C 0.07842 0.7801 0.3788 0.0
N1708 N 0.07052 0.71473 0.28224 0.0
N1709 N 0.08652 0.76974 0.34358 0.0
H1710 H 0.32135 0.37042 0.18252 0.0
H1711 H 0.26735 0.32378 0.47722 0.0
H1712 H 0.3055 0.41286 0.28605 0.0
H1713 H 0.25985 0.27947 0.34147 0.0
H1714 H 0.28211 0.35723 0.41342 0.0
H1715 H 0.29973 0.33744 0.24361 0.0
C1716 C 0.31247 0.37256 0.21699 0.0
C1717 C 0.31437 0.39427 0.22722 0.0
C1718 C 0.27703 0.34006 0.39786 0.0
C1719 C 0.29085 0.35663 0.30121 0.0
C1720 C 0.26852 0.3209 0.43439 0.0
C1721 C 0.2626 0.29849 0.41558 0.0
C1722 C 0.2798 0.33688 0.3421 0.0
C1723 C 0.26464 0.2962 0.35909 0.0
C1724 C 0.30042 0.35376 0.2527 0.0
C1725 C 0.3037 0.39622 0.27505 0.0
N1726 N 0.27316 0.31489 0.32519 0.0
N1727 N 0.29272 0.37785 0.31046 0.0
H1728 H 0.99743 0.40665 0.87537 0.0
H1729 H 0.04076 0.40502 0.17424 0.0
H1730 H 0.95146 0.38286 0.01351 0.0
H1731 H 0.08633 0.46073 0.06832 0.0
H1732 H 1.00841 0.39523 0.11204 0.0
H1733 H 0.03102 0.42551 0.93901 0.0
C1734 C 0.99427 0.4057 0.91864 0.0
C1735 C 0.97132 0.39275 0.93856 0.0
C1736 C 0.02531 0.41003 0.10278 0.0
C1737 C 1.00977 0.41389 0.01177 0.0
C1738 C 0.04375 0.41599 0.13923 0.0
C1739 C 0.06615 0.43469 0.12879 0.0
C1740 C 0.02923 0.42196 0.05319 0.0
C1741 C 0.06919 0.4469 0.07967 0.0
C1742 C 1.01349 0.41639 0.95506 0.0
C1743 C 0.96862 0.39213 0.99551 0.0
N1744 N 0.05113 0.44015 0.04345 0.0
N1745 N 0.98735 0.40207 0.02948 0.0
H1746 H 0.61184 0.5599 0.93999 0.0
H1747 H 0.63853 0.66223 0.1483 0.0
H1748 H 0.6719 0.62852 0.93074 0.0
H1749 H 0.56749 0.62049 0.09464 0.0
H1750 H 0.65029 0.64208 0.08381 0.0
H1751 H 0.59406 0.57499 1.00557 0.0
C1752 C 0.62111 0.57819 0.95076 0.0
C1753 C 0.6436 0.59289 0.92977 0.0
C1754 C 0.63203 0.63695 0.08656 0.0
C1755 C 0.62378 0.61002 1.00682 0.0
C1756 C 0.6252 0.64826 0.1241 0.0
C1757 C 0.60191 0.64311 0.12765 0.0
C1758 C 0.61558 0.6199 0.05163 0.0
C1759 C 0.58559 0.62494 0.09415 0.0
C1760 C 0.61103 0.58673 0.98867 0.0
C1761 C 0.65487 0.61632 0.94645 0.0
N1762 N 0.59272 0.61407 0.05741 0.0
N1763 N 0.64511 0.62395 0.98413 0.0
H1764 H 0.43645 0.03326 0.87729 0.0
H1765 H 0.38783 0.98888 0.1734 0.0
H1766 H 0.45455 0.07881 0.01583 0.0
H1767 H 0.39945 0.94386 0.06855 0.0
H1768 H 0.41092 0.02147 0.11263 0.0
H1769 H 0.42176 0.99961 0.94051 0.0
C1770 C 0.43788 0.03633 0.92064 0.0
C1771 C 0.44671 0.05912 0.94082 0.0
C1772 C 0.40905 1.00465 0.10329 0.0
C1773 C 0.42937 0.02061 0.01348 0.0
C1774 C 0.39622 0.98606 0.13893 0.0
C1775 C 0.39275 0.96373 0.12839 0.0
C1776 C 0.41769 1.00099 0.05432 0.0
C1777 C 0.40255 0.96093 0.07999 0.0
C1778 C 0.42934 0.01707 0.95682 0.0
C1779 C 0.4477 0.06171 0.9978 0.0
N1780 N 0.41421 0.97915 0.0445 0.0
N1781 N 0.43893 0.04295 0.03148 0.0
H1782 H 0.6509 0.03476 0.84686 0.0
H1783 H 0.60433 0.98764 0.14131 0.0
H1784 H 0.63997 0.07945 0.9544 0.0
H1785 H 0.57881 0.9438 0.99951 0.0
H1786 H 0.62027 0.02224 0.08085 0.0
H1787 H 0.62766 1.00182 0.90685 0.0
C1788 C 0.64266 0.03748 0.88175 0.0
C1789 C 0.64629 0.05983 0.89311 0.0
C1790 C 0.61086 1.00497 0.06329 0.0
C1791 C 0.62128 0.02211 0.96637 0.0
C1792 C 0.6016 0.98516 0.09794 0.0
C1793 C 0.59025 0.96245 0.07604 0.0
C1794 C 0.60913 1.00211 1.00625 0.0
C1795 C 0.58765 0.96071 0.01897 0.0
C1796 C 0.62977 0.01867 0.91694 0.0
C1797 C 0.63675 0.06241 0.94221 0.0
N1798 N 0.59725 0.97996 0.98663 0.0
N1799 N 0.62504 0.04398 0.97722 0.0
H1800 H 0.08555 0.6419 1.00526 0.0
H1801 H 0.94847 0.56143 0.95072 0.0
H1802 H 0.0388 0.61714 0.14177 0.0
H1803 H 0.99434 0.61989 0.85166 0.0
H1804 H 0.98095 0.57188 0.01512 0.0
H1805 H 0.05241 0.62362 0.94381 0.0
C1806 C 0.06827 0.6322 0.02266 0.0
C1807 C 0.06528 0.63137 0.07944 0.0
C1808 C 0.98402 0.58201 0.97848 0.0
C1809 C 0.02648 0.60994 1.00745 0.0
C1810 C 0.96557 0.57578 0.94098 0.0
C1811 C 0.96877 0.5891 0.89373 0.0
C1812 C 1.00608 0.60154 0.96848 0.0
C1813 C 0.99115 0.60834 0.88556 0.0
C1814 C 0.04925 0.62182 0.98712 0.0
C1815 C 0.04219 0.61824 0.09862 0.0
N1816 N 1.00877 0.61376 0.92186 0.0
N1817 N 0.0237 0.6082 0.06278 0.0
H1818 H 0.42466 0.46347 0.0863 0.0
H1819 H 0.40995 0.35686 0.89688 0.0
H1820 H 0.36379 0.39525 0.08591 0.0
H1821 H 0.47478 0.42121 0.91316 0.0
H1822 H 0.39163 0.37229 0.95852 0.0
H1823 H 0.44308 0.44953 0.02064 0.0
C1824 C 0.41527 0.44549 0.07334 0.0
C1825 C 0.39242 0.43067 0.09173 0.0
C1826 C 0.40977 0.38328 0.9478 0.0
C1827 C 0.41322 0.41458 0.01456 0.0
C1828 C 0.42012 0.37459 0.91152 0.0
C1829 C 0.44389 0.3879 0.89844 0.0
C1830 C 0.4232 0.40552 0.9717 0.0
C1831 C 0.45631 0.41047 0.92098 0.0
C1832 C 0.4257 0.43755 0.0351 0.0
C1833 C 0.38121 0.40753 0.07238 0.0
N1834 N 0.44596 0.41845 0.95636 0.0
N1835 N 0.39151 0.40033 0.03499 0.0
H1836 H 0.06223 0.18935 0.53498 0.0
H1837 H 0.19834 0.2579 0.465 0.0
H1838 H 0.09123 0.25098 0.43601 0.0
H1839 H 0.15996 0.18309 0.47344 0.0
H1840 H 0.16114 0.25813 0.46823 0.0
H1841 H 0.09904 0.1888 0.52667 0.0
C1842 C 0.07616 0.20256 0.51069 0.0
C1843 C 0.07315 0.21993 0.48517 0.0
C1844 C 0.16084 0.24165 0.46938 0.0
C1845 C 0.11621 0.21995 0.4773 0.0
C1846 C 0.18215 0.24151 0.46791 0.0
C1847 C 0.18254 0.22044 0.47014 0.0
C1848 C 0.13949 0.22058 0.47375 0.0
C1849 C 0.16073 0.19979 0.47241 0.0
C1850 C 0.09729 0.2023 0.50619 0.0
C1851 C 0.09232 0.23688 0.4553 0.0
N1852 N 0.14034 0.20039 0.47509 0.0
N1853 N 0.11294 0.23665 0.45285 0.0
H1854 H 0.77315 0.94526 0.45069 0.0
H1855 H 0.78042 0.84288 0.41589 0.0
H1856 H 0.8478 0.98017 0.46495 0.0
H1857 H 0.84145 0.87868 0.51663 0.0
H1858 H 0.77968 0.87956 0.40634 0.0
H1859 H 0.77212 0.90754 0.44934 0.0
C1860 C 0.78934 0.94504 0.45364 0.0
C1861 C 0.81058 0.96611 0.45895 0.0
C1862 C 0.79338 0.8795 0.43017 0.0
C1863 C 0.80965 0.9226 0.45613 0.0
C1864 C 0.79407 0.85855 0.43475 0.0
C1865 C 0.81113 0.85747 0.46688 0.0
C1866 C 0.8101 0.89988 0.45715 0.0
C1867 C 0.828 0.8785 0.49129 0.0
C1868 C 0.78879 0.92341 0.45222 0.0
C1869 C 0.83099 0.96449 0.46144 0.0
N1870 N 0.82708 0.89861 0.48588 0.0
N1871 N 0.82999 0.94332 0.46091 0.0
H1872 H 0.08514 0.8322 0.45614 0.0
H1873 H 0.1593 0.97292 0.43996 0.0
H1874 H 0.05152 0.87344 0.45692 0.0
H1875 H 0.18624 0.93132 0.5083 0.0
H1876 H 0.12104 0.93705 0.42791 0.0
H1877 H 0.12328 0.86825 0.45606 0.0
C1878 C 0.08572 0.84882 0.45643 0.0
C1879 C 0.06488 0.84958 0.45876 0.0
C1880 C 0.13544 0.93577 0.44492 0.0
C1881 C 0.10897 0.89144 0.45683 0.0
C1882 C 0.15741 0.95629 0.45131 0.0
C1883 C 0.17633 0.95533 0.4747 0.0
C1884 C 0.13232 0.91391 0.46089 0.0
C1885 C 0.17237 0.93309 0.48975 0.0
C1886 C 0.10759 0.8695 0.45613 0.0
C1887 C 0.06701 0.87186 0.45663 0.0
N1888 N 0.15113 0.91351 0.48236 0.0
N1889 N 0.08848 0.89174 0.45628 0.0
H1890 H 0.26849 0.18569 0.58795 0.0
H1891 H 0.19392 0.04514 0.57875 0.0
H1892 H 0.19605 0.14802 0.54362 0.0
H1893 H 0.26795 0.08232 0.55192 0.0
H1894 H 0.19426 0.08241 0.58043 0.0
H1895 H 0.26855 0.14845 0.59189 0.0
C1896 C 0.25232 0.16958 0.58137 0.0
C1897 C 0.23201 0.17023 0.5673 0.0
C1898 C 0.21048 0.08252 0.57403 0.0
C1899 C 0.2321 0.12706 0.57006 0.0
C1900 C 0.2103 0.06112 0.57299 0.0
C1901 C 0.23084 0.06023 0.56418 0.0
C1902 C 0.23154 0.10373 0.56822 0.0
C1903 C 0.25154 0.08186 0.55774 0.0
C1904 C 0.25248 0.14824 0.58256 0.0
C1905 C 0.21197 0.14856 0.55625 0.0
N1906 N 0.25138 0.10253 0.56027 0.0
N1907 N 0.2125 0.12814 0.5581 0.0
H1908 H 0.88378 0.05256 0.51772 0.0
H1909 H 0.94449 0.18998 0.58404 0.0
H1910 H 0.8466 0.08337 0.59071 0.0
H1911 H 0.9833 0.15721 0.53316 0.0
H1912 H 0.90868 0.15172 0.58445 0.0
H1913 H 0.92001 0.09013 0.52409 0.0
C1914 C 0.88331 0.06704 0.53685 0.0
C1915 C 0.86186 0.06431 0.55482 0.0
C1916 C 0.92493 0.15279 0.57278 0.0
C1917 C 0.90387 0.10843 0.56024 0.0
C1918 C 0.94547 0.17477 0.57208 0.0
C1919 C 0.96707 0.17721 0.5567 0.0
C1920 C 0.92569 0.13254 0.55914 0.0
C1921 C 0.9671 0.15653 0.54337 0.0
C1922 C 0.90411 0.0887 0.53987 0.0
C1923 C 0.86259 0.08418 0.5777 0.0
N1924 N 0.9469 0.1353 0.54464 0.0
N1925 N 0.88302 0.10526 0.57916 0.0
H1926 H 0.97518 0.83401 0.50706 0.0
H1927 H 0.83858 0.75983 0.57789 0.0
H1928 H 0.94662 0.76938 0.59454 0.0
H1929 H 0.87361 0.83348 0.54756 0.0
H1930 H 0.87662 0.76133 0.5766 0.0
H1931 H 0.93775 0.83294 0.51519 0.0
C1932 C 0.96123 0.81985 0.52936 0.0
C1933 C 0.96456 0.80206 0.55119 0.0
C1934 C 0.87603 0.77717 0.56983 0.0
C1935 C 0.9206 0.80021 0.55888 0.0
C1936 C 0.85422 0.77629 0.57011 0.0
C1937 C 0.85257 0.79638 0.56033 0.0
C1938 C 0.89672 0.79842 0.56049 0.0
C1939 C 0.87372 0.81733 0.55272 0.0
C1940 C 0.93967 0.81916 0.53357 0.0
C1941 C 0.94533 0.78387 0.57834 0.0
N1942 N 0.89465 0.81774 0.55236 0.0
N1943 N 0.92426 0.78327 0.58076 0.0
H1944 H 0.82462 0.51491 0.80331 0.0
H1945 H 0.759 0.58892 0.75808 0.0
H1946 H 0.86296 0.58958 0.7903 0.0
H1947 H 0.72658 0.52149 0.83374 0.0
H1948 H 0.79593 0.58812 0.7531 0.0
H1949 H 0.78803 0.51586 0.80057 0.0
C1950 C 0.8254 0.53158 0.79997 0.0
C1951 C 0.84717 0.55219 0.79813 0.0
C1952 C 0.78061 0.57327 0.76975 0.0
C1953 C 0.80466 0.55341 0.79282 0.0
C1954 C 0.7593 0.57354 0.77167 0.0
C1955 C 0.7392 0.55498 0.79525 0.0
C1956 C 0.782 0.55419 0.79095 0.0
C1957 C 0.7413 0.53603 0.81435 0.0
C1958 C 0.80438 0.53211 0.79834 0.0
C1959 C 0.84675 0.57322 0.79294 0.0
N1960 N 0.76201 0.53612 0.81171 0.0
N1961 N 0.826 0.57328 0.79026 0.0
H1962 H 0.43425 0.27248 0.77346 0.0
H1963 H 0.50839 0.21069 0.85534 0.0
H1964 H 0.50551 0.31153 0.82667 0.0
H1965 H 0.44445 0.1755 0.76435 0.0
H1966 H 0.50734 0.24715 0.84829 0.0
H1967 H 0.43674 0.23668 0.77522 0.0
C1968 C 0.45038 0.27352 0.7863 0.0
C1969 C 0.46941 0.29517 0.80187 0.0
C1970 C 0.49371 0.23162 0.82898 0.0
C1971 C 0.47271 0.25379 0.8023 0.0
C1972 C 0.49439 0.2107 0.8326 0.0
C1973 C 0.47669 0.18977 0.80968 0.0
C1974 C 0.47491 0.23192 0.80306 0.0
C1975 C 0.45878 0.19109 0.78172 0.0
C1976 C 0.45184 0.25299 0.7869 0.0
C1977 C 0.49006 0.29528 0.81636 0.0
N1978 N 0.45822 0.21155 0.77985 0.0
N1979 N 0.49109 0.27506 0.81662 0.0
H1980 H 0.75215 0.1648 0.79288 0.0
H1981 H 0.85657 0.27284 0.75598 0.0
H1982 H 0.71845 0.20579 0.80435 0.0
H1983 H 0.81975 0.30219 0.83724 0.0
H1984 H 0.81987 0.23524 0.75026 0.0
H1985 H 0.79019 0.20099 0.78882 0.0
C1986 C 0.75268 0.18139 0.79469 0.0
C1987 C 0.73176 0.18195 0.79979 0.0
C1988 C 0.81964 0.24991 0.76884 0.0
C1989 C 0.77586 0.22418 0.79344 0.0
C1990 C 0.84068 0.27169 0.77097 0.0
C1991 C 0.84148 0.29121 0.79608 0.0
C1992 C 0.79888 0.24733 0.79171 0.0
C1993 C 0.82015 0.28796 0.81666 0.0
C1994 C 0.77455 0.20222 0.79165 0.0
C1995 C 0.73391 0.20424 0.80087 0.0
N1996 N 0.80003 0.26678 0.8139 0.0
N1997 N 0.75529 0.22417 0.79842 0.0
H1998 H 0.85942 0.47947 0.85921 0.0
H1999 H 0.93095 0.41186 0.88801 0.0
H2000 H 0.92934 0.51438 0.92225 0.0
H2001 H 0.85618 0.37642 0.89819 0.0
H2002 H 0.93179 0.44955 0.89131 0.0
H2003 H 0.85855 0.44211 0.86632 0.0
C2004 C 0.87439 0.47925 0.87626 0.0
C2005 C 0.89423 0.50035 0.89155 0.0
C2006 C 0.91519 0.43355 0.89297 0.0
C2007 C 0.8938 0.45702 0.89725 0.0
C2008 C 0.91467 0.41191 0.89055 0.0
C2009 C 0.8934 0.39063 0.89187 0.0
C2010 C 0.89427 0.43421 0.89648 0.0
C2011 C 0.873 0.39217 0.89652 0.0
C2012 C 0.87397 0.4578 0.87976 0.0
C2013 C 0.91334 0.49869 0.91163 0.0
N2014 N 0.87392 0.41332 0.89791 0.0
N2015 N 0.91278 0.47762 0.9131 0.0
H2016 H 0.55153 0.38926 0.81826 0.0
H2017 H 0.65828 0.48811 0.88526 0.0
H2018 H 0.52125 0.41792 0.92612 0.0
H2019 H 0.61871 0.52344 0.89067 0.0
H2020 H 0.6218 0.45063 0.88119 0.0
H2021 H 0.58899 0.42571 0.82486 0.0
C2022 C 0.55284 0.40301 0.84439 0.0
C2023 C 0.53308 0.4 0.87273 0.0
C2024 C 0.62095 0.46651 0.88275 0.0
C2025 C 0.57643 0.44268 0.87961 0.0
C2026 C 0.64189 0.48803 0.8853 0.0
C2027 C 0.64183 0.50923 0.8864 0.0
C2028 C 0.59929 0.46571 0.88315 0.0
C2029 C 0.6198 0.50771 0.8881 0.0
C2030 C 0.57434 0.42397 0.84806 0.0
C2031 C 0.53601 0.419 0.9047 0.0
N2032 N 0.59956 0.48647 0.88653 0.0
N2033 N 0.55702 0.43945 0.9067 0.0
H2034 H 0.61261 0.09873 0.93071 0.0
H2035 H 0.54023 0.16644 0.88477 0.0
H2036 H 0.64185 0.16645 0.85732 0.0
H2037 H 0.50644 0.09329 0.92048 0.0
H2038 H 0.578 0.16774 0.88303 0.0
H2039 H 0.57486 0.09766 0.93859 0.0
C2040 C 0.61143 0.11376 0.9181 0.0
C2041 C 0.6309 0.13294 0.89427 0.0
C2042 C 0.56237 0.15129 0.89075 0.0
C2043 C 0.58707 0.13158 0.90185 0.0
C2044 C 0.54064 0.15048 0.89092 0.0
C2045 C 0.51974 0.1295 0.90005 0.0
C2046 C 0.56373 0.13109 0.90163 0.0
C2047 C 0.52186 0.10975 0.91148 0.0
C2048 C 0.58965 0.11297 0.92173 0.0
C2049 C 0.62765 0.15142 0.87672 0.0
N2050 N 0.54323 0.11099 0.91173 0.0
N2051 N 0.60646 0.15026 0.88076 0.0
H2052 H 0.53221 0.92932 0.10264 0.0
H2053 H 0.39534 0.85675 0.17324 0.0
H2054 H 0.49574 0.85541 0.12986 0.0
H2055 H 0.42521 0.92261 0.09067 0.0
H2056 H 0.43237 0.85709 0.1638 0.0
H2057 H 0.49464 0.92877 0.10539 0.0
C2058 C 0.51636 0.913 0.11 0.0
C2059 C 0.51749 0.89253 0.11842 0.0
C2060 C 0.43083 0.87133 0.14678 0.0
C2061 C 0.47383 0.89162 0.12003 0.0
C2062 C 0.40949 0.87105 0.15173 0.0
C2063 C 0.40662 0.8894 0.1317 0.0
C2064 C 0.45017 0.89037 0.12247 0.0
C2065 C 0.42612 0.90771 0.10549 0.0
C2066 C 0.49481 0.91267 0.11115 0.0
C2067 C 0.49606 0.87182 0.12565 0.0
N2068 N 0.44697 0.90786 0.10231 0.0
N2069 N 0.4754 0.87195 0.12688 0.0
H2070 H 0.17305 0.64678 0.13575 0.0
H2071 H 0.10566 0.5069 0.0914 0.0
H2072 H 0.09967 0.60732 0.10163 0.0
H2073 H 0.1721 0.54493 0.17146 0.0
H2074 H 0.10465 0.54357 0.08258 0.0
H2075 H 0.17431 0.61031 0.13893 0.0
C2076 C 0.15705 0.6304 0.13017 0.0
C2077 C 0.13601 0.63029 0.12118 0.0
C2078 C 0.11967 0.54399 0.1012 0.0
C2079 C 0.13753 0.5879 0.12137 0.0
C2080 C 0.12043 0.52301 0.10542 0.0
C2081 C 0.13922 0.52261 0.13136 0.0
C2082 C 0.13797 0.56506 0.12238 0.0
C2083 C 0.15738 0.5442 0.1505 0.0
C2084 C 0.15782 0.60948 0.13124 0.0
C2085 C 0.11618 0.60839 0.11054 0.0
N2086 N 0.15629 0.56425 0.14565 0.0
N2087 N 0.11739 0.58826 0.11115 0.0
H2088 H 0.48554 0.63438 0.17119 0.0
H2089 H 0.42304 0.49703 0.10607 0.0
H2090 H 0.52191 0.60427 0.09111 0.0
H2091 H 0.38444 0.53211 0.13614 0.0
H2092 H 0.45949 0.53495 0.1065 0.0
H2093 H 0.44907 0.59708 0.16307 0.0
C2094 C 0.4858 0.62013 0.15029 0.0
C2095 C 0.50709 0.62305 0.13055 0.0
C2096 C 0.4431 0.53443 0.11337 0.0
C2097 C 0.46476 0.57912 0.12314 0.0
C2098 C 0.42219 0.51264 0.11349 0.0
C2099 C 0.40043 0.51095 0.12324 0.0
C2100 C 0.44259 0.55519 0.1223 0.0
C2101 C 0.40068 0.53218 0.13084 0.0
C2102 C 0.46486 0.59862 0.14618 0.0
C2103 C 0.50606 0.60338 0.10546 0.0
N2104 N 0.4212 0.55313 0.13073 0.0
N2105 N 0.4855 0.58238 0.10313 0.0
H2106 H 0.51923 0.70442 0.22471 0.0
H2107 H 0.52803 0.81088 0.15766 0.0
H2108 H 0.59404 0.74345 0.23333 0.0
H2109 H 0.5871 0.84222 0.26533 0.0
H2110 H 0.52652 0.77345 0.16771 0.0
H2111 H 0.51848 0.74106 0.22356 0.0
C2112 C 0.53557 0.72072 0.22618 0.0
C2113 C 0.55673 0.72058 0.22708 0.0
C2114 C 0.53951 0.78827 0.1904 0.0
C2115 C 0.55607 0.76338 0.22683 0.0
C2116 C 0.54035 0.80982 0.18479 0.0
C2117 C 0.55734 0.82997 0.21169 0.0
C2118 C 0.55606 0.78636 0.22263 0.0
C2119 C 0.5732 0.82722 0.245 0.0
C2120 C 0.53515 0.74179 0.22528 0.0
C2121 C 0.57729 0.74252 0.23075 0.0
N2122 N 0.57239 0.80607 0.24884 0.0
N2123 N 0.57646 0.76288 0.23035 0.0
H2124 H 0.28478 0.85804 0.22862 0.0
H2125 H 0.21629 0.72051 0.16824 0.0
H2126 H 0.32002 0.81869 0.21167 0.0
H2127 H 0.18291 0.75227 0.25454 0.0
H2128 H 0.25365 0.75699 0.17589 0.0
H2129 H 0.24704 0.82113 0.22913 0.0
C2130 C 0.28465 0.8417 0.22468 0.0
C2131 C 0.30587 0.84174 0.21905 0.0
C2132 C 0.2383 0.75599 0.19403 0.0
C2133 C 0.2623 0.79898 0.22019 0.0
C2134 C 0.21686 0.73497 0.19005 0.0
C2135 C 0.1962 0.7328 0.21183 0.0
C2136 C 0.23948 0.77571 0.21877 0.0
C2137 C 0.19829 0.75267 0.23839 0.0
C2138 C 0.26302 0.82055 0.2254 0.0
C2139 C 0.3043 0.81976 0.21543 0.0
N2140 N 0.21929 0.77321 0.2404 0.0
N2141 N 0.28315 0.79956 0.2153 0.0
H2142 H 0.279 0.43838 0.26092 0.0
H2143 H 0.21051 0.50896 0.21017 0.0
H2144 H 0.30808 0.50186 0.16866 0.0
H2145 H 0.17348 0.43471 0.23301 0.0
H2146 H 0.24745 0.50862 0.21002 0.0
H2147 H 0.24201 0.43892 0.26789 0.0
C2148 C 0.27795 0.45285 0.24364 0.0
C2149 C 0.29707 0.47027 0.21465 0.0
C2150 C 0.2313 0.49235 0.21507 0.0
C2151 C 0.25428 0.47088 0.22209 0.0
C2152 C 0.21009 0.49253 0.21514 0.0
C2153 C 0.18857 0.4718 0.22032 0.0
C2154 C 0.23149 0.47136 0.22234 0.0
C2155 C 0.18947 0.45111 0.22767 0.0
C2156 C 0.25661 0.45295 0.24691 0.0
C2157 C 0.29409 0.48814 0.19178 0.0
N2158 N 0.21041 0.45143 0.22862 0.0
N2159 N 0.27338 0.488 0.19608 0.0
H2160 H 0.02559 0.26804 0.17276 0.0
H2161 H 0.02086 0.2114 0.88236 0.0
H2162 H 0.9726 0.19863 0.127 0.0
H2163 H 0.06874 0.28332 0.92225 0.0
H2164 H 1.00406 0.20579 0.97305 0.0
H2165 H 0.043 0.27321 0.08284 0.0
C2166 C 1.0177 0.25382 0.14391 0.0
C2167 C 0.99759 0.23286 0.15749 0.0
C2168 C 0.01826 0.22279 0.96197 0.0
C2169 C 1.01734 0.23874 0.05416 0.0
C2170 C 0.02781 0.22605 0.91004 0.0
C2171 C 0.04626 0.24789 0.89441 0.0
C2172 C 0.02724 0.24147 0.9988 0.0
C2173 C 0.05477 0.26609 0.93257 0.0
C2174 C 0.02757 0.25684 0.09243 0.0
C2175 C 0.98793 0.21517 0.11811 0.0
N2176 N 0.04519 0.26247 0.98287 0.0
N2177 N 0.99791 0.2185 0.06832 0.0
H2178 H 0.80501 0.81729 0.17294 0.0
H2179 H 0.77756 0.78121 0.8592 0.0
H2180 H 0.79147 0.75126 0.10763 0.0
H2181 H 0.79125 0.84777 0.92137 0.0
H2182 H 0.78165 0.76979 0.95081 0.0
H2183 H 0.79837 0.82835 0.0825 0.0
C2184 C 0.80042 0.80504 0.13977 0.0
C2185 C 0.799 0.78339 0.1479 0.0
C2186 C 0.78374 0.7869 0.94454 0.0
C2187 C 0.7916 0.79601 0.04416 0.0
C2188 C 0.78156 0.79351 0.89205 0.0
C2189 C 0.78418 0.81556 0.88228 0.0
C2190 C 0.78861 0.80242 0.98799 0.0
C2191 C 0.78888 0.83052 0.92691 0.0
C2192 C 0.79678 0.81142 0.08806 0.0
C2193 C 0.79319 0.7683 0.10319 0.0
N2194 N 0.79101 0.82371 0.97771 0.0
N2195 N 0.7898 0.77492 0.05342 0.0
H2196 H 0.31572 0.06226 0.13839 0.0
H2197 H 0.21238 0.9834 0.93202 0.0
H2198 H 0.25142 1.00208 0.18811 0.0
H2199 H 0.27834 0.04097 0.88129 0.0
H2200 H 0.22651 0.98963 0.0256 0.0
H2201 H 0.3022 0.05491 0.04445 0.0
C2202 C 0.29873 0.04746 0.12961 0.0
C2203 C 0.28478 0.03267 0.17147 0.0
C2204 C 0.23798 1.00084 0.99406 0.0
C2205 C 0.26908 0.0242 0.06333 0.0
C2206 C 0.22993 0.99728 0.94054 0.0
C2207 C 0.24415 0.01179 0.89867 0.0
C2208 C 0.26044 0.01913 1.00621 0.0
C2209 C 0.26683 0.02929 0.91212 0.0
C2210 C 0.29101 0.0433 0.07582 0.0
C2211 C 0.26273 0.01406 0.15745 0.0
N2212 N 0.27419 0.03259 0.96473 0.0
N2213 N 0.25562 1.01032 0.10464 0.0
H2214 H 1.0132 0.75946 0.8523 0.0
H2215 H 1.00272 0.80781 0.14254 0.0
H2216 H 0.04941 0.83228 0.89571 0.0
H2217 H 0.97299 0.73467 0.10615 0.0
H2218 H 1.01762 0.81707 0.05005 0.0
H2219 H 0.99548 0.75004 0.94248 0.0
C2220 C 1.01724 0.77348 0.88063 0.0
C2221 C 0.0329 0.79668 0.86657 0.0
C2222 C 1.0078 0.79898 0.06223 0.0
C2223 C 1.01287 0.78602 0.96996 0.0
C2224 C 0.99939 0.79368 0.11519 0.0
C2225 C 0.98669 0.77041 0.13237 0.0
C2226 C 1.00345 0.78091 0.02594 0.0
C2227 C 0.9825 0.75284 0.09463 0.0
C2228 C 1.00725 0.76808 0.93221 0.0
C2229 C 0.03771 0.81413 0.90511 0.0
N2230 N 0.99092 0.75846 0.04327 0.0
N2231 N 0.02777 0.80843 0.95502 0.0
H2232 H 0.29736 0.23819 0.11138 0.0
H2233 H 0.20207 0.23268 0.90239 0.0
H2234 H 0.22464 0.20939 0.15076 0.0
H2235 H 0.27379 0.2577 0.85924 0.0
H2236 H 0.20989 0.22318 0.9929 0.0
H2237 H 0.28901 0.24467 0.01845 0.0
C2238 C 0.2796 0.23306 0.10046 0.0
C2239 C 0.26169 0.22322 0.13916 0.0
C2240 C 0.22392 0.23064 0.96363 0.0
C2241 C 0.25205 0.23085 0.03267 0.0
C2242 C 0.21947 0.23613 0.91195 0.0
C2243 C 0.23734 0.24615 0.87326 0.0
C2244 C 0.24646 0.23529 0.97703 0.0
C2245 C 0.25946 0.24987 0.88766 0.0
C2246 C 0.27487 0.23687 0.04737 0.0
C2247 C 0.23908 0.21732 0.12267 0.0
N2248 N 0.26344 0.2446 0.9385 0.0
N2249 N 0.23493 0.22125 0.07079 0.0
H2250 H 0.77523 1.00989 0.15266 0.0
H2251 H 0.81199 0.02541 0.8393 0.0
H2252 H 0.83539 0.07116 0.09017 0.0
H2253 H 0.7472 0.96934 0.90079 0.0
H2254 H 0.82134 0.04245 0.93047 0.0
H2255 H 0.76548 0.99429 0.06056 0.0
C2256 C 0.78646 0.02002 0.11957 0.0
C2257 C 0.80618 0.04185 0.1292 0.0
C2258 C 0.80505 0.02645 0.9239 0.0
C2259 C 0.79502 0.02417 0.02333 0.0
C2260 C 0.79964 0.01678 0.87177 0.0
C2261 C 0.77885 0.99578 0.8623 0.0
C2262 C 0.7896 0.01502 0.96693 0.0
C2263 C 0.76365 0.98528 0.90623 0.0
C2264 C 0.7808 1.01118 0.06689 0.0
C2265 C 0.8199 0.05436 0.08456 0.0
N2266 N 0.76936 0.99493 0.9565 0.0
N2267 N 0.81412 0.04531 0.03362 0.0
H2268 H 0.70173 0.55334 0.20661 0.0
H2269 H 0.69506 0.60233 0.49892 0.0
H2270 H 0.73281 0.62661 0.24322 0.0
H2271 H 0.65353 0.53019 0.45214 0.0
H2272 H 0.71286 0.61123 0.40874 0.0
H2273 H 0.68722 0.54429 0.29944 0.0
C2274 C 0.70544 0.56754 0.23406 0.0
C2275 C 0.71838 0.59079 0.21684 0.0
C2276 C 0.69992 0.59344 0.4183 0.0
C2277 C 0.70211 0.58051 0.32362 0.0
C2278 C 0.6899 0.58833 0.46984 0.0
C2279 C 0.67273 0.56551 0.48283 0.0
C2280 C 0.69282 0.57557 0.37965 0.0
C2281 C 0.66649 0.54807 0.44349 0.0
C2282 C 0.69726 0.56235 0.28719 0.0
C2283 C 0.7231 0.60845 0.25474 0.0
N2284 N 0.6765 0.55346 0.39364 0.0
N2285 N 0.71491 0.60294 0.30629 0.0
H2286 H 0.43543 0.11096 0.50518 0.0
H2287 H 0.48668 0.16189 0.21079 0.0
H2288 H 0.50686 0.13625 0.45865 0.0
H2289 H 0.41417 0.13258 0.25295 0.0
H2290 H 0.4949 0.15523 0.30358 0.0
H2291 H 0.42793 0.12187 0.41566 0.0
C2292 C 0.44961 0.11908 0.47639 0.0
C2293 C 0.47177 0.12257 0.48931 0.0
C2294 C 0.4772 0.15034 0.29265 0.0
C2295 C 0.46326 0.13486 0.38659 0.0
C2296 C 0.47247 0.15404 0.23953 0.0
C2297 C 0.44967 0.14768 0.22384 0.0
C2298 C 0.45901 0.14018 0.33058 0.0
C2299 C 0.43205 0.13796 0.26326 0.0
C2300 C 0.44528 0.12516 0.42515 0.0
C2301 C 0.48942 0.13291 0.45015 0.0
N2302 N 0.43707 0.13442 0.31469 0.0
N2303 N 0.48476 0.1386 0.40058 0.0
H2304 H 0.87579 0.32815 0.20507 0.0
H2305 H 0.92993 0.33477 0.49986 0.0
H2306 H 0.91699 0.29616 0.24422 0.0
H2307 H 0.89926 0.37607 0.45109 0.0
H2308 H 0.92125 0.31667 0.40977 0.0
H2309 H 0.88072 0.34256 0.298 0.0
C2310 C 0.88595 0.3242 0.2331 0.0
C2311 C 0.89614 0.31104 0.21648 0.0
C2312 C 0.91631 0.3296 0.4189 0.0
C2313 C 0.90153 0.32724 0.32353 0.0
C2314 C 0.9211 0.3398 0.47041 0.0
C2315 C 0.91542 0.35703 0.48282 0.0
C2316 C 0.90563 0.33658 0.37968 0.0
C2317 C 0.90422 0.36307 0.44295 0.0
C2318 C 0.88863 0.33234 0.28632 0.0
C2319 C 0.90864 0.30605 0.25518 0.0
N2320 N 0.89975 0.35292 0.39319 0.0
N2321 N 0.91104 0.31421 0.30681 0.0
H2322 H 0.67155 0.12511 0.17818 0.0
H2323 H 0.68683 0.10477 0.49269 0.0
H2324 H 0.72762 0.1166 0.2416 0.0
H2325 H 0.62612 0.10476 0.42898 0.0
H2326 H 0.70249 0.11033 0.40085 0.0
H2327 H 0.65461 0.11811 0.26929 0.0
C2328 C 0.68021 0.1216 0.21107 0.0
C2329 C 0.70117 0.12165 0.20214 0.0
C2330 C 0.68572 0.10908 0.40686 0.0
C2331 C 0.68203 0.11392 0.30668 0.0
C2332 C 0.67684 0.10607 0.4594 0.0
C2333 C 0.65513 0.10433 0.46864 0.0
C2334 C 0.67289 0.1105 0.363 0.0
C2335 C 0.64282 0.10578 0.42371 0.0
C2336 C 0.6706 0.11773 0.26316 0.0
C2337 C 0.71171 0.11722 0.24659 0.0
N2338 N 0.65189 0.10884 0.3729 0.0
N2339 N 0.7021 0.11364 0.29678 0.0
H2340 H 0.86783 0.56342 0.22588 0.0
H2341 H 0.96206 0.57168 0.44158 0.0
H2342 H 0.94015 0.58972 0.18669 0.0
H2343 H 0.88821 0.53706 0.47371 0.0
H2344 H 0.95451 0.57875 0.34851 0.0
H2345 H 0.87501 0.55379 0.31694 0.0
C2346 C 0.88522 0.5671 0.23643 0.0
C2347 C 0.90345 0.57751 0.1987 0.0
C2348 C 0.93994 0.56955 0.37588 0.0
C2349 C 0.91183 0.56657 0.3031 0.0
C2350 C 0.94423 0.56541 0.42907 0.0
C2351 C 0.92575 0.55369 0.46579 0.0
C2352 C 0.91701 0.56203 0.35906 0.0
C2353 C 0.90306 0.54643 0.44726 0.0
C2354 C 0.8893 0.56154 0.2884 0.0
C2355 C 0.92556 0.58158 0.21435 0.0
N2356 N 0.89935 0.55073 0.39532 0.0
N2357 N 0.92918 0.57628 0.26549 0.0
H2358 H 0.45202 0.29948 0.23149 0.0
H2359 H 0.46274 0.39755 0.43845 0.0
H2360 H 0.4368 0.35353 0.18781 0.0
H2361 H 0.48655 0.3492 0.47551 0.0
H2362 H 0.45227 0.38107 0.34731 0.0
H2363 H 0.46354 0.31661 0.32205 0.0
C2364 C 0.45103 0.31491 0.241 0.0
C2365 C 0.44338 0.32505 0.20197 0.0
C2366 C 0.45983 0.3741 0.37533 0.0
C2367 C 0.45667 0.34485 0.30563 0.0
C2368 C 0.46596 0.3836 0.42739 0.0
C2369 C 0.47563 0.37483 0.46495 0.0
C2370 C 0.46328 0.35558 0.36049 0.0
C2371 C 0.47889 0.35636 0.44835 0.0
C2372 C 0.45774 0.32477 0.29264 0.0
C2373 C 0.4428 0.34525 0.21639 0.0
N2374 N 0.47271 0.34735 0.39747 0.0
N2375 N 0.44925 0.35442 0.26705 0.0
H2376 H 0.40083 0.95588 0.57737 0.0
H2377 H 0.31808 0.86059 0.79389 0.0
H2378 H 0.36432 0.88191 0.54588 0.0
H2379 H 0.36129 0.93352 0.83189 0.0
H2380 H 0.33478 0.86807 0.70279 0.0
H2381 H 0.38642 0.94811 0.67048 0.0
C2382 C 0.38991 0.93799 0.59006 0.0
C2383 C 0.38383 0.91953 0.55355 0.0
C2384 C 0.34073 0.88243 0.7311 0.0
C2385 C 0.36701 0.91052 0.66022 0.0
C2386 C 0.33116 0.87818 0.78306 0.0
C2387 C 0.33823 0.89649 0.82044 0.0
C2388 C 0.35741 0.9052 0.71612 0.0
C2389 C 0.35546 0.91887 0.80449 0.0
C2390 C 0.38161 0.93357 0.64325 0.0
C2391 C 0.36923 0.89673 0.57222 0.0
N2392 N 0.36433 0.92263 0.7534 0.0
N2393 N 0.36132 0.89289 0.62416 0.0
H2394 H 0.16921 0.46279 0.7965 0.0
H2395 H 0.07383 0.45 0.57866 0.0
H2396 H 0.09618 0.43285 0.83355 0.0
H2397 H 0.14783 0.48753 0.54792 0.0
H2398 H 0.0816 0.44328 0.6718 0.0
H2399 H 0.16171 0.47187 0.70516 0.0
C2400 C 0.15159 0.45819 0.78542 0.0
C2401 C 0.13327 0.44695 0.82262 0.0
C2402 C 0.09615 0.45303 0.64473 0.0
C2403 C 0.12453 0.45725 0.71798 0.0
C2404 C 0.09173 0.45697 0.59151 0.0
C2405 C 0.1102 0.46942 0.55521 0.0
C2406 C 0.11921 0.4615 0.66196 0.0
C2407 C 0.13301 0.47759 0.5741 0.0
C2408 C 0.14733 0.46344 0.7333 0.0
C2409 C 0.11085 0.44168 0.80631 0.0
N2410 N 0.13685 0.47348 0.62607 0.0
N2411 N 0.10708 0.44672 0.75509 0.0
H2412 H 0.55723 0.66082 0.84201 0.0
H2413 H 0.59586 0.67883 0.52981 0.0
H2414 H 0.61927 0.7207 0.78123 0.0
H2415 H 0.53842 0.61507 0.59143 0.0
H2416 H 0.60417 0.69456 0.6219 0.0
H2417 H 0.54985 0.64353 0.75114 0.0
C2418 C 0.56941 0.67025 0.80976 0.0
C2419 C 0.58881 0.69236 0.81931 0.0
C2420 C 0.58977 0.6771 0.6154 0.0
C2421 C 0.5803 0.67279 0.71503 0.0
C2422 C 0.58493 0.66816 0.56272 0.0
C2423 C 0.56636 0.64562 0.55281 0.0
C2424 C 0.57588 0.66348 0.6587 0.0
C2425 C 0.55302 0.63246 0.59724 0.0
C2426 C 0.56511 0.66042 0.7578 0.0
C2427 C 0.60385 0.70384 0.77568 0.0
N2428 N 0.55797 0.64162 0.64819 0.0
N2429 N 0.59922 0.69399 0.72556 0.0
H2430 H 0.29135 0.40728 0.77207 0.0
H2431 H 0.38193 0.50119 0.56327 0.0
H2432 H 0.33583 0.47999 0.81092 0.0
H2433 H 0.33509 0.42938 0.52093 0.0
H2434 H 0.3642 0.49398 0.65314 0.0
H2435 H 0.30603 0.41522 0.67912 0.0
C2436 C 0.30404 0.42497 0.761 0.0
C2437 C 0.31236 0.44299 0.79959 0.0
C2438 C 0.35767 0.4798 0.62416 0.0
C2439 C 0.32948 0.45214 0.69309 0.0
C2440 C 0.36785 0.4839 0.57287 0.0
C2441 C 0.36009 0.46581 0.53463 0.0
C2442 C 0.33964 0.45741 0.63765 0.0
C2443 C 0.34152 0.44386 0.54901 0.0
C2444 C 0.31251 0.42946 0.70791 0.0
C2445 C 0.32913 0.46548 0.78291 0.0
N2446 N 0.33205 0.44023 0.5995 0.0
N2447 N 0.33715 0.46938 0.73105 0.0
H2448 H 0.59049 0.85254 0.76295 0.0
H2449 H 0.53137 0.90172 0.56156 0.0
H2450 H 0.54621 0.87885 0.8176 0.0
H2451 H 0.59426 0.90122 0.51845 0.0
H2452 H 0.53422 0.88954 0.65305 0.0
H2453 H 0.5904 0.86718 0.67153 0.0
C2454 C 0.5809 0.86158 0.75574 0.0
C2455 C 0.5683 0.86446 0.79792 0.0
C2456 C 0.54745 0.89215 0.62367 0.0
C2457 C 0.56777 0.88084 0.69319 0.0
C2458 C 0.5459 0.89918 0.57122 0.0
C2459 C 0.56283 0.90294 0.53194 0.0
C2460 C 0.56583 0.88836 0.63735 0.0
C2461 C 0.58073 0.89848 0.54698 0.0
C2462 C 0.58088 0.86992 0.70361 0.0
C2463 C 0.55627 0.87638 0.7864 0.0
N2464 N 0.58176 0.89143 0.59843 0.0
N2465 N 0.55606 0.88387 0.73504 0.0
H2466 H 0.11701 0.69568 0.51607 0.0
H2467 H 0.16751 0.69512 0.81152 0.0
H2468 H 0.14218 0.64946 0.56336 0.0
H2469 H 0.13885 0.73884 0.7682 0.0
H2470 H 0.16073 0.68011 0.71883 0.0
H2471 H 0.12781 0.71403 0.60571 0.0
C2472 C 0.12507 0.68959 0.54506 0.0
C2473 C 0.12856 0.67091 0.53229 0.0
C2474 C 0.15601 0.69306 0.72949 0.0
C2475 C 0.14073 0.69165 0.63517 0.0
C2476 C 0.15976 0.70156 0.78256 0.0
C2477 C 0.15364 0.7182 0.79791 0.0
C2478 C 0.14603 0.70122 0.69123 0.0
C2479 C 0.14407 0.7262 0.75819 0.0
C2480 C 0.13109 0.69996 0.59637 0.0
C2481 C 0.13883 0.66356 0.57171 0.0
N2482 N 0.14046 0.71756 0.70681 0.0
N2483 N 0.14446 0.67388 0.62134 0.0
loop_
_geom_bond_atom_site_label_1
_geom_bond_atom_site_label_2
_geom_bond_distance
_geom_bond_site_symmetry_2
_ccdc_geom_bond_type
Gd0 N31 2.661 . S
Gd0 N37 2.601 . S
Gd0 O44 2.545 . S
Gd0 O45 2.606 1_655 S
Gd0 O47 2.429 . S
Gd0 O48 2.545 1_655 S
Gd0 O49 2.412 . S
Gd0 O51 2.362 . S
Gd0 O52 2.324 1_655 S
Gd0 C59 2.828 . S
Gd1 N10 2.661 . S
Gd1 N14 2.601 . S
Gd1 O45 2.362 . S
Gd1 O46 2.324 1_455 S
Gd1 O50 2.545 . S
Gd1 O51 2.606 1_455 S
Gd1 O53 2.429 . S
Gd1 O54 2.545 1_455 S
Gd1 O55 2.412 . S
Gd1 C68 2.828 . S
C2 C5 1.417 . S
C2 C7 1.431 . S
C2 C8 1.412 . S
C3 C6 1.437 . S
C3 C7 1.317 . S
C3 H22 0.929 . S
C4 C5 1.426 . S
C4 C6 1.413 . S
C4 N14 1.359 . S
C5 C2 1.417 . S
C5 C4 1.426 . S
C5 N10 1.350 . S
C6 C3 1.437 . S
C6 C4 1.413 . S
C6 C16 1.391 . S
C7 C2 1.431 . S
C7 C3 1.317 . S
C7 H18 0.930 . S
C8 C2 1.412 . S
C8 C9 1.355 . S
C8 H20 0.930 . S
C9 C8 1.355 . S
C9 C11 1.402 . S
C9 H21 0.930 . S
N10 Gd1 2.661 . S
N10 C5 1.350 . S
N10 C11 1.307 . S
C11 C9 1.402 . S
C11 N10 1.307 . S
C11 H12 0.930 . S
H12 C11 0.930 . S
C13 N14 1.334 . S
C13 C15 1.394 . S
C13 H17 0.930 . S
N14 Gd1 2.601 . S
N14 C4 1.359 . S
N14 C13 1.334 . S
C15 C13 1.394 . S
C15 C16 1.359 . S
C15 H27 0.930 . S
C16 C6 1.391 . S
C16 C15 1.359 . S
C16 H28 0.929 . S
H17 C13 0.930 . S
H18 C7 0.930 . S
H19 C36 0.930 . S
H20 C8 0.930 . S
H21 C9 0.930 . S
H22 C3 0.929 . S
H23 C41 0.930 . S
H24 C32 0.930 . S
H25 C33 0.930 . S
H26 C57 0.929 . S
H27 C15 0.930 . S
H28 C16 0.929 . S
H29 C58 0.930 . S
H30 C39 0.930 . S
N31 Gd0 2.661 . S
N31 C35 1.350 . S
N31 C36 1.307 . S
C32 H24 0.930 . S
C32 C33 1.355 . S
C32 C34 1.412 . S
C33 H25 0.930 . S
C33 C32 1.355 . S
C33 C36 1.402 . S
C34 C32 1.412 . S
C34 C35 1.417 . S
C34 C58 1.431 . S
C35 N31 1.350 . S
C35 C34 1.417 . S
C35 C38 1.426 . S
C36 H19 0.930 . S
C36 N31 1.307 . S
C36 C33 1.402 . S
N37 Gd0 2.601 . S
N37 C38 1.359 . S
N37 C41 1.334 . S
C38 C35 1.426 . S
C38 N37 1.359 . S
C38 C42 1.413 . S
C39 H30 0.930 . S
C39 C40 1.359 . S
C39 C41 1.394 . S
C40 C39 1.359 . S
C40 C42 1.391 . S
C40 H43 0.929 . S
C41 H23 0.930 . S
C41 N37 1.334 . S
C41 C39 1.394 . S
C42 C38 1.413 . S
C42 C40 1.391 . S
C42 C57 1.437 . S
H43 C40 0.929 . S
O44 Gd0 2.545 . S
O44 C59 1.258 . S
O45 Gd0 2.606 1_455 S
O45 Gd1 2.362 . S
O45 C56 1.284 . S
O46 Gd1 2.324 1_655 S
O46 C66 1.254 . S
O47 Gd0 2.429 . S
O47 C66 1.268 . S
O48 Gd0 2.545 1_455 S
O48 C56 1.250 . S
O49 Gd0 2.412 . S
O49 C59 1.252 . S
O50 Gd1 2.545 . S
O50 C68 1.258 . S
O51 Gd0 2.362 . S
O51 Gd1 2.606 1_655 S
O51 C67 1.284 . S
O52 Gd0 2.324 1_455 S
O52 C75 1.254 . S
O53 Gd1 2.429 . S
O53 C75 1.268 . S
O54 Gd1 2.545 1_655 S
O54 C67 1.250 . S
O55 Gd1 2.412 . S
O55 C68 1.252 . S
C56 O45 1.284 . S
C56 O48 1.250 . S
C57 H26 0.929 . S
C57 C42 1.437 . S
C57 C58 1.317 . S
C58 H29 0.930 . S
C58 C34 1.431 . S
C58 C57 1.317 . S
C59 Gd0 2.828 . S
C59 O44 1.258 . S
C59 O49 1.252 . S
C59 C60 1.497 . S
C60 C59 1.497 . S
C60 C61 1.395 . S
C60 C62 1.380 1_655 S
C61 C60 1.395 . S
C61 C64 1.398 . S
C61 H76 0.930 . S
C62 C60 1.380 1_455 S
C62 C63 1.391 . S
C62 H77 0.930 . S
C63 C62 1.391 . S
C63 C65 1.387 1_455 S
C64 C61 1.398 . S
C64 C65 1.380 . S
C64 H78 0.930 . S
C65 C63 1.387 1_655 S
C65 C64 1.380 . S
C65 H79 0.930 . S
C66 O46 1.254 . S
C66 O47 1.268 . S
C67 O51 1.284 . S
C67 O54 1.250 . S
C68 Gd1 2.828 . S
C68 O50 1.258 . S
C68 O55 1.252 . S
C68 C69 1.497 . S
C69 C68 1.497 . S
C69 C70 1.395 . S
C69 C71 1.380 1_455 S
C70 C69 1.395 . S
C70 C73 1.398 . S
C70 H80 0.930 . S
C71 C69 1.380 1_655 S
C71 C72 1.391 . S
C71 H81 0.930 . S
C72 C71 1.391 . S
C72 C74 1.387 1_655 S
C73 C70 1.398 . S
C73 C74 1.380 . S
C73 H82 0.930 . S
C74 C72 1.387 1_455 S
C74 C73 1.380 . S
C74 H83 0.930 . S
C75 O52 1.254 . S
C75 O53 1.268 . S
H76 C61 0.930 . S
H77 C62 0.930 . S
H78 C64 0.930 . S
H79 C65 0.930 . S
H80 C70 0.930 . S
H81 C71 0.930 . S
H82 C73 0.930 . S
H83 C74 0.930 . S
Gd84 N115 2.661 . S
Gd84 N121 2.601 . S
Gd84 O128 2.545 . S
Gd84 O129 2.606 . S
Gd84 O131 2.429 . S
Gd84 O132 2.545 . S
Gd84 O133 2.412 . S
Gd84 O135 2.362 . S
Gd84 O136 2.324 . S
Gd84 C143 2.828 . S
Gd85 N94 2.661 . S
Gd85 N98 2.601 . S
Gd85 O129 2.362 . S
Gd85 O130 2.324 . S
Gd85 O134 2.545 . S
Gd85 O135 2.606 . S
Gd85 O137 2.429 . S
Gd85 O138 2.545 . S
Gd85 O139 2.412 . S
Gd85 C152 2.828 . S
C86 C89 1.417 . S
C86 C91 1.431 . S
C86 C92 1.412 . S
C87 C90 1.437 . S
C87 C91 1.317 . S
C87 H106 0.929 . S
C88 C89 1.426 . S
C88 C90 1.413 . S
C88 N98 1.359 . S
C89 C86 1.417 . S
C89 C88 1.426 . S
C89 N94 1.350 . S
C90 C87 1.437 . S
C90 C88 1.413 . S
C90 C100 1.391 . S
C91 C86 1.431 . S
C91 C87 1.317 . S
C91 H102 0.930 . S
C92 C86 1.412 . S
C92 C93 1.355 . S
C92 H104 0.930 . S
C93 C92 1.355 . S
C93 C95 1.402 . S
C93 H105 0.930 . S
N94 Gd85 2.661 . S
N94 C89 1.350 . S
N94 C95 1.307 . S
C95 C93 1.402 . S
C95 N94 1.307 . S
C95 H96 0.930 . S
H96 C95 0.930 . S
C97 N98 1.334 . S
C97 C99 1.394 . S
C97 H101 0.930 . S
N98 Gd85 2.601 . S
N98 C88 1.359 . S
N98 C97 1.334 . S
C99 C97 1.394 . S
C99 C100 1.359 . S
C99 H111 0.930 . S
C100 C90 1.391 . S
C100 C99 1.359 . S
C100 H112 0.929 . S
H101 C97 0.930 . S
H102 C91 0.930 . S
H103 C120 0.930 . S
H104 C92 0.930 . S
H105 C93 0.930 . S
H106 C87 0.929 . S
H107 C125 0.930 . S
H108 C116 0.930 . S
H109 C117 0.930 . S
H110 C141 0.929 . S
H111 C99 0.930 . S
H112 C100 0.929 . S
H113 C142 0.930 . S
H114 C123 0.930 . S
N115 Gd84 2.661 . S
N115 C119 1.350 . S
N115 C120 1.307 . S
C116 H108 0.930 . S
C116 C117 1.355 . S
C116 C118 1.412 . S
C117 H109 0.930 . S
C117 C116 1.355 . S
C117 C120 1.402 . S
C118 C116 1.412 . S
C118 C119 1.417 . S
C118 C142 1.431 . S
C119 N115 1.350 . S
C119 C118 1.417 . S
C119 C122 1.426 . S
C120 H103 0.930 . S
C120 N115 1.307 . S
C120 C117 1.402 . S
N121 Gd84 2.601 . S
N121 C122 1.359 . S
N121 C125 1.334 . S
C122 C119 1.426 . S
C122 N121 1.359 . S
C122 C126 1.413 . S
C123 H114 0.930 . S
C123 C124 1.359 . S
C123 C125 1.394 . S
C124 C123 1.359 . S
C124 C126 1.391 . S
C124 H127 0.929 . S
C125 H107 0.930 . S
C125 N121 1.334 . S
C125 C123 1.394 . S
C126 C122 1.413 . S
C126 C124 1.391 . S
C126 C141 1.437 . S
H127 C124 0.929 . S
O128 Gd84 2.545 . S
O128 C143 1.258 . S
O129 Gd84 2.606 . S
O129 Gd85 2.362 . S
O129 C140 1.284 . S
O130 Gd85 2.324 . S
O130 C150 1.254 . S
O131 Gd84 2.429 . S
O131 C150 1.268 . S
O132 Gd84 2.545 . S
O132 C140 1.250 . S
O133 Gd84 2.412 . S
O133 C143 1.252 . S
O134 Gd85 2.545 . S
O134 C152 1.258 . S
O135 Gd84 2.362 . S
O135 Gd85 2.606 . S
O135 C151 1.284 . S
O136 Gd84 2.324 . S
O136 C159 1.254 . S
O137 Gd85 2.429 . S
O137 C159 1.268 . S
O138 Gd85 2.545 . S
O138 C151 1.250 . S
O139 Gd85 2.412 . S
O139 C152 1.252 . S
C140 O129 1.284 . S
C140 O132 1.250 . S
C141 H110 0.929 . S
C141 C126 1.437 . S
C141 C142 1.317 . S
C142 H113 0.930 . S
C142 C118 1.431 . S
C142 C141 1.317 . S
C143 Gd84 2.828 . S
C143 O128 1.258 . S
C143 O133 1.252 . S
C143 C144 1.497 . S
C144 C143 1.497 . S
C144 C145 1.395 . S
C144 C146 1.380 . S
C145 C144 1.395 . S
C145 C148 1.398 . S
C145 H160 0.930 . S
C146 C144 1.380 . S
C146 C147 1.391 . S
C146 H161 0.930 . S
C147 C146 1.391 . S
C147 C149 1.387 . S
C148 C145 1.398 . S
C148 C149 1.380 . S
C148 H162 0.930 . S
C149 C147 1.387 . S
C149 C148 1.380 . S
C149 H163 0.930 . S
C150 O130 1.254 . S
C150 O131 1.268 . S
C151 O135 1.284 . S
C151 O138 1.250 . S
C152 Gd85 2.828 . S
C152 O134 1.258 . S
C152 O139 1.252 . S
C152 C153 1.497 . S
C153 C152 1.497 . S
C153 C154 1.395 . S
C153 C155 1.380 . S
C154 C153 1.395 . S
C154 C157 1.398 . S
C154 H164 0.930 . S
C155 C153 1.380 . S
C155 C156 1.391 . S
C155 H165 0.930 . S
C156 C155 1.391 . S
C156 C158 1.387 . S
C157 C154 1.398 . S
C157 C158 1.380 . S
C157 H166 0.930 . S
C158 C156 1.387 . S
C158 C157 1.380 . S
C158 H167 0.930 . S
C159 O136 1.254 . S
C159 O137 1.268 . S
H160 C145 0.930 . S
H161 C146 0.930 . S
H162 C148 0.930 . S
H163 C149 0.930 . S
H164 C154 0.930 . S
H165 C155 0.930 . S
H166 C157 0.930 . S
H167 C158 0.930 . S
Gd168 N199 2.661 . S
Gd168 N205 2.601 . S
Gd168 O212 2.545 . S
Gd168 O213 2.606 1_545 S
Gd168 O215 2.429 . S
Gd168 O216 2.545 1_545 S
Gd168 O217 2.412 . S
Gd168 O219 2.362 . S
Gd168 O220 2.324 1_545 S
Gd168 C227 2.828 . S
Gd169 N178 2.661 . S
Gd169 N182 2.601 . S
Gd169 O213 2.362 . S
Gd169 O214 2.324 1_565 S
Gd169 O218 2.545 . S
Gd169 O219 2.606 1_565 S
Gd169 O221 2.429 . S
Gd169 O222 2.545 1_565 S
Gd169 O223 2.412 . S
Gd169 C236 2.828 . S
C170 C173 1.417 . S
C170 C175 1.431 . S
C170 C176 1.412 . S
C171 C174 1.437 . S
C171 C175 1.317 . S
C171 H190 0.929 . S
C172 C173 1.426 . S
C172 C174 1.413 . S
C172 N182 1.359 . S
C173 C170 1.417 . S
C173 C172 1.426 . S
C173 N178 1.350 . S
C174 C171 1.437 . S
C174 C172 1.413 . S
C174 C184 1.391 . S
C175 C170 1.431 . S
C175 C171 1.317 . S
C175 H186 0.930 . S
C176 C170 1.412 . S
C176 C177 1.355 . S
C176 H188 0.930 . S
C177 C176 1.355 . S
C177 C179 1.402 . S
C177 H189 0.930 . S
N178 Gd169 2.661 . S
N178 C173 1.350 . S
N178 C179 1.307 . S
C179 C177 1.402 . S
C179 N178 1.307 . S
C179 H180 0.930 . S
H180 C179 0.930 . S
C181 N182 1.334 . S
C181 C183 1.394 . S
C181 H185 0.930 . S
N182 Gd169 2.601 . S
N182 C172 1.359 . S
N182 C181 1.334 . S
C183 C181 1.394 . S
C183 C184 1.359 . S
C183 H195 0.930 . S
C184 C174 1.391 . S
C184 C183 1.359 . S
C184 H196 0.929 . S
H185 C181 0.930 . S
H186 C175 0.930 . S
H187 C204 0.930 . S
H188 C176 0.930 . S
H189 C177 0.930 . S
H190 C171 0.929 . S
H191 C209 0.930 . S
H192 C200 0.930 . S
H193 C201 0.930 . S
H194 C225 0.929 . S
H195 C183 0.930 . S
H196 C184 0.929 . S
H197 C226 0.930 . S
H198 C207 0.930 . S
N199 Gd168 2.661 . S
N199 C203 1.350 . S
N199 C204 1.307 . S
C200 H192 0.930 . S
C200 C201 1.355 . S
C200 C202 1.412 . S
C201 H193 0.930 . S
C201 C200 1.355 . S
C201 C204 1.402 . S
C202 C200 1.412 . S
C202 C203 1.417 . S
C202 C226 1.431 . S
C203 N199 1.350 . S
C203 C202 1.417 . S
C203 C206 1.426 . S
C204 H187 0.930 . S
C204 N199 1.307 . S
C204 C201 1.402 . S
N205 Gd168 2.601 . S
N205 C206 1.359 . S
N205 C209 1.334 . S
C206 C203 1.426 . S
C206 N205 1.359 . S
C206 C210 1.413 . S
C207 H198 0.930 . S
C207 C208 1.359 . S
C207 C209 1.394 . S
C208 C207 1.359 . S
C208 C210 1.391 . S
C208 H211 0.929 . S
C209 H191 0.930 . S
C209 N205 1.334 . S
C209 C207 1.394 . S
C210 C206 1.413 . S
C210 C208 1.391 . S
C210 C225 1.437 . S
H211 C208 0.929 . S
O212 Gd168 2.545 . S
O212 C227 1.258 . S
O213 Gd168 2.606 1_565 S
O213 Gd169 2.362 . S
O213 C224 1.284 . S
O214 Gd169 2.324 1_545 S
O214 C234 1.254 . S
O215 Gd168 2.429 . S
O215 C234 1.268 . S
O216 Gd168 2.545 1_565 S
O216 C224 1.250 . S
O217 Gd168 2.412 . S
O217 C227 1.252 . S
O218 Gd169 2.545 . S
O218 C236 1.258 . S
O219 Gd168 2.362 . S
O219 Gd169 2.606 1_545 S
O219 C235 1.284 . S
O220 Gd168 2.324 1_565 S
O220 C243 1.254 . S
O221 Gd169 2.429 . S
O221 C243 1.268 . S
O222 Gd169 2.545 1_545 S
O222 C235 1.250 . S
O223 Gd169 2.412 . S
O223 C236 1.252 . S
C224 O213 1.284 . S
C224 O216 1.250 . S
C225 H194 0.929 . S
C225 C210 1.437 . S
C225 C226 1.317 . S
C226 H197 0.930 . S
C226 C202 1.431 . S
C226 C225 1.317 . S
C227 Gd168 2.828 . S
C227 O212 1.258 . S
C227 O217 1.252 . S
C227 C228 1.497 . S
C228 C227 1.497 . S
C228 C229 1.395 . S
C228 C230 1.354 1_545 S
C229 C228 1.395 . S
C229 C232 1.398 . S
C229 H244 0.930 . S
C230 C228 1.354 1_565 S
C230 C231 1.399 . S
C230 H245 0.950 . S
C231 C230 1.399 . S
C231 C233 1.387 1_565 S
C232 C229 1.398 . S
C232 C233 1.380 . S
C232 H246 0.930 . S
C233 C231 1.387 1_545 S
C233 C232 1.380 . S
C233 H247 0.930 . S
C234 O214 1.254 . S
C234 O215 1.268 . S
C235 O219 1.284 . S
C235 O222 1.250 . S
C236 Gd169 2.828 . S
C236 O218 1.258 . S
C236 O223 1.252 . S
C236 C237 1.497 . S
C237 C236 1.497 . S
C237 C238 1.395 . S
C237 C239 1.380 1_565 S
C238 C237 1.395 . S
C238 C241 1.398 . S
C238 H248 0.930 . S
C239 C237 1.380 1_545 S
C239 C240 1.391 . S
C239 H249 0.930 . S
C240 C239 1.391 . S
C240 C242 1.387 1_545 S
C241 C238 1.398 . S
C241 C242 1.380 . S
C241 H250 0.930 . S
C242 C240 1.387 1_565 S
C242 C241 1.380 . S
C242 H251 0.930 . S
C243 O220 1.254 . S
C243 O221 1.268 . S
H244 C229 0.930 . S
H245 C230 0.950 . S
H246 C232 0.930 . S
H247 C233 0.930 . S
H248 C238 0.930 . S
H249 C239 0.930 . S
H250 C241 0.930 . S
H251 C242 0.930 . S
Gd252 N283 2.661 . S
Gd252 N289 2.601 . S
Gd252 O296 2.545 . S
Gd252 O297 2.606 1_655 S
Gd252 O299 2.429 . S
Gd252 O300 2.545 1_655 S
Gd252 O301 2.412 . S
Gd252 O303 2.362 . S
Gd252 O304 2.324 1_655 S
Gd252 C311 2.828 . S
Gd253 N262 2.661 . S
Gd253 N266 2.601 . S
Gd253 O297 2.362 . S
Gd253 O298 2.324 1_455 S
Gd253 O302 2.545 . S
Gd253 O303 2.606 1_455 S
Gd253 O305 2.429 . S
Gd253 O306 2.545 1_455 S
Gd253 O307 2.412 . S
Gd253 C320 2.828 . S
C254 C257 1.417 . S
C254 C259 1.431 . S
C254 C260 1.412 . S
C255 C258 1.437 . S
C255 C259 1.317 . S
C255 H274 0.929 . S
C256 C257 1.426 . S
C256 C258 1.413 . S
C256 N266 1.359 . S
C257 C254 1.417 . S
C257 C256 1.426 . S
C257 N262 1.350 . S
C258 C255 1.437 . S
C258 C256 1.413 . S
C258 C268 1.391 . S
C259 C254 1.431 . S
C259 C255 1.317 . S
C259 H270 0.930 . S
C260 C254 1.412 . S
C260 C261 1.355 . S
C260 H272 0.930 . S
C261 C260 1.355 . S
C261 C263 1.402 . S
C261 H273 0.930 . S
N262 Gd253 2.661 . S
N262 C257 1.350 . S
N262 C263 1.307 . S
C263 C261 1.402 . S
C263 N262 1.307 . S
C263 H264 0.930 . S
H264 C263 0.930 . S
C265 N266 1.334 . S
C265 C267 1.394 . S
C265 H269 0.930 . S
N266 Gd253 2.601 . S
N266 C256 1.359 . S
N266 C265 1.334 . S
C267 C265 1.394 . S
C267 C268 1.359 . S
C267 H279 0.930 . S
C268 C258 1.391 . S
C268 C267 1.359 . S
C268 H280 0.929 . S
H269 C265 0.930 . S
H270 C259 0.930 . S
H271 C288 0.930 . S
H272 C260 0.930 . S
H273 C261 0.930 . S
H274 C255 0.929 . S
H275 C293 0.930 . S
H276 C284 0.930 . S
H277 C285 0.930 . S
H278 C309 0.929 . S
H279 C267 0.930 . S
H280 C268 0.929 . S
H281 C310 0.930 . S
H282 C291 0.930 . S
N283 Gd252 2.661 . S
N283 C287 1.350 . S
N283 C288 1.307 . S
C284 H276 0.930 . S
C284 C285 1.355 . S
C284 C286 1.412 . S
C285 H277 0.930 . S
C285 C284 1.355 . S
C285 C288 1.402 . S
C286 C284 1.412 . S
C286 C287 1.417 . S
C286 C310 1.431 . S
C287 N283 1.350 . S
C287 C286 1.417 . S
C287 C290 1.426 . S
C288 H271 0.930 . S
C288 N283 1.307 . S
C288 C285 1.402 . S
N289 Gd252 2.601 . S
N289 C290 1.359 . S
N289 C293 1.334 . S
C290 C287 1.426 . S
C290 N289 1.359 . S
C290 C294 1.413 . S
C291 H282 0.930 . S
C291 C292 1.359 . S
C291 C293 1.394 . S
C292 C291 1.359 . S
C292 C294 1.391 . S
C292 H295 0.929 . S
C293 H275 0.930 . S
C293 N289 1.334 . S
C293 C291 1.394 . S
C294 C290 1.413 . S
C294 C292 1.391 . S
C294 C309 1.437 . S
H295 C292 0.929 . S
O296 Gd252 2.545 . S
O296 C311 1.258 . S
O297 Gd252 2.606 1_455 S
O297 Gd253 2.362 . S
O297 C308 1.284 . S
O298 Gd253 2.324 1_655 S
O298 C318 1.254 . S
O299 Gd252 2.429 . S
O299 C318 1.268 . S
O300 Gd252 2.545 1_455 S
O300 C308 1.250 . S
O301 Gd252 2.412 . S
O301 C311 1.252 . S
O302 Gd253 2.545 . S
O302 C320 1.258 . S
O303 Gd252 2.362 . S
O303 Gd253 2.606 1_655 S
O303 C319 1.284 . S
O304 Gd252 2.324 1_455 S
O304 C327 1.254 . S
O305 Gd253 2.429 . S
O305 C327 1.268 . S
O306 Gd253 2.545 1_655 S
O306 C319 1.250 . S
O307 Gd253 2.412 . S
O307 C320 1.252 . S
C308 O297 1.284 . S
C308 O300 1.250 . S
C309 H278 0.929 . S
C309 C294 1.437 . S
C309 C310 1.317 . S
C310 H281 0.930 . S
C310 C286 1.431 . S
C310 C309 1.317 . S
C311 Gd252 2.828 . S
C311 O296 1.258 . S
C311 O301 1.252 . S
C311 C312 1.497 . S
C312 C311 1.497 . S
C312 C313 1.395 . S
C312 C314 1.380 1_655 S
C313 C312 1.395 . S
C313 C316 1.398 . S
C313 H328 0.930 . S
C314 C312 1.380 1_455 S
C314 C315 1.391 . S
C314 H329 0.930 . S
C315 C314 1.391 . S
C315 C317 1.387 1_455 S
C316 C313 1.398 . S
C316 C317 1.380 . S
C316 H330 0.930 . S
C317 C315 1.387 1_655 S
C317 C316 1.380 . S
C317 H331 0.930 . S
C318 O298 1.254 . S
C318 O299 1.268 . S
C319 O303 1.284 . S
C319 O306 1.250 . S
C320 Gd253 2.828 . S
C320 O302 1.258 . S
C320 O307 1.252 . S
C320 C321 1.497 . S
C321 C320 1.497 . S
C321 C322 1.395 . S
C321 C323 1.338 1_455 S
C322 C321 1.395 . S
C322 C325 1.398 . S
C322 H332 0.930 . S
C323 C321 1.338 1_655 S
C323 C324 1.391 . S
C323 H333 0.974 . S
C324 C323 1.391 . S
C324 C326 1.387 1_655 S
C325 C322 1.398 . S
C325 C326 1.380 . S
C325 H334 0.930 . S
C326 C324 1.387 1_455 S
C326 C325 1.380 . S
C326 H335 0.930 . S
C327 O304 1.254 . S
C327 O305 1.268 . S
H328 C313 0.930 . S
H329 C314 0.930 . S
H330 C316 0.930 . S
H331 C317 0.930 . S
H332 C322 0.930 . S
H333 C323 0.974 . S
H334 C325 0.930 . S
H335 C326 0.930 . S
Gd336 N367 2.661 . S
Gd336 N373 2.601 . S
Gd336 O380 2.545 . S
Gd336 O381 2.606 . S
Gd336 O383 2.429 . S
Gd336 O384 2.545 . S
Gd336 O385 2.412 . S
Gd336 O387 2.362 . S
Gd336 O388 2.324 . S
Gd336 C395 2.828 . S
Gd337 N346 2.661 . S
Gd337 N350 2.601 . S
Gd337 O381 2.362 . S
Gd337 O382 2.324 . S
Gd337 O386 2.545 . S
Gd337 O387 2.606 . S
Gd337 O389 2.429 . S
Gd337 O390 2.545 . S
Gd337 O391 2.412 . S
Gd337 C404 2.828 . S
C338 C341 1.417 . S
C338 C343 1.431 . S
C338 C344 1.412 . S
C339 C342 1.437 . S
C339 C343 1.317 . S
C339 H358 0.929 . S
C340 C341 1.426 . S
C340 C342 1.413 . S
C340 N350 1.359 . S
C341 C338 1.417 . S
C341 C340 1.426 . S
C341 N346 1.350 . S
C342 C339 1.437 . S
C342 C340 1.413 . S
C342 C352 1.391 . S
C343 C338 1.431 . S
C343 C339 1.317 . S
C343 H354 0.930 . S
C344 C338 1.412 . S
C344 C345 1.355 . S
C344 H356 0.930 . S
C345 C344 1.355 . S
C345 C347 1.402 . S
C345 H357 0.930 . S
N346 Gd337 2.661 . S
N346 C341 1.350 . S
N346 C347 1.307 . S
C347 C345 1.402 . S
C347 N346 1.307 . S
C347 H348 0.930 . S
H348 C347 0.930 . S
C349 N350 1.334 . S
C349 C351 1.394 . S
C349 H353 0.930 . S
N350 Gd337 2.601 . S
N350 C340 1.359 . S
N350 C349 1.334 . S
C351 C349 1.394 . S
C351 C352 1.359 . S
C351 H363 0.930 . S
C352 C342 1.391 . S
C352 C351 1.359 . S
C352 H364 0.929 . S
H353 C349 0.930 . S
H354 C343 0.930 . S
H355 C372 0.930 . S
H356 C344 0.930 . S
H357 C345 0.930 . S
H358 C339 0.929 . S
H359 C377 0.930 . S
H360 C368 0.930 . S
H361 C369 0.930 . S
H362 C393 0.929 . S
H363 C351 0.930 . S
H364 C352 0.929 . S
H365 C394 0.930 . S
H366 C375 0.930 . S
N367 Gd336 2.661 . S
N367 C371 1.350 . S
N367 C372 1.307 . S
C368 H360 0.930 . S
C368 C369 1.355 . S
C368 C370 1.412 . S
C369 H361 0.930 . S
C369 C368 1.355 . S
C369 C372 1.402 . S
C370 C368 1.412 . S
C370 C371 1.417 . S
C370 C394 1.431 . S
C371 N367 1.350 . S
C371 C370 1.417 . S
C371 C374 1.426 . S
C372 H355 0.930 . S
C372 N367 1.307 . S
C372 C369 1.402 . S
N373 Gd336 2.601 . S
N373 C374 1.359 . S
N373 C377 1.334 . S
C374 C371 1.426 . S
C374 N373 1.359 . S
C374 C378 1.413 . S
C375 H366 0.930 . S
C375 C376 1.359 . S
C375 C377 1.394 . S
C376 C375 1.359 . S
C376 C378 1.391 . S
C376 H379 0.929 . S
C377 H359 0.930 . S
C377 N373 1.334 . S
C377 C375 1.394 . S
C378 C374 1.413 . S
C378 C376 1.391 . S
C378 C393 1.437 . S
H379 C376 0.929 . S
O380 Gd336 2.545 . S
O380 C395 1.258 . S
O381 Gd336 2.606 . S
O381 Gd337 2.362 . S
O381 C392 1.284 . S
O382 Gd337 2.324 . S
O382 C402 1.254 . S
O383 Gd336 2.429 . S
O383 C402 1.268 . S
O384 Gd336 2.545 . S
O384 C392 1.250 . S
O385 Gd336 2.412 . S
O385 C395 1.252 . S
O386 Gd337 2.545 . S
O386 C404 1.258 . S
O387 Gd336 2.362 . S
O387 Gd337 2.606 . S
O387 C403 1.284 . S
O388 Gd336 2.324 . S
O388 C411 1.254 . S
O389 Gd337 2.429 . S
O389 C411 1.268 . S
O390 Gd337 2.545 . S
O390 C403 1.250 . S
O391 Gd337 2.412 . S
O391 C404 1.252 . S
C392 O381 1.284 . S
C392 O384 1.250 . S
C393 H362 0.929 . S
C393 C378 1.437 . S
C393 C394 1.317 . S
C394 H365 0.930 . S
C394 C370 1.431 . S
C394 C393 1.317 . S
C395 Gd336 2.828 . S
C395 O380 1.258 . S
C395 O385 1.252 . S
C395 C396 1.497 . S
C396 C395 1.497 . S
C396 C397 1.395 . S
C396 C398 1.380 . S
C397 C396 1.395 . S
C397 C400 1.398 . S
C397 H412 0.930 . S
C398 C396 1.380 . S
C398 C399 1.391 . S
C398 H413 0.930 . S
C399 C398 1.391 . S
C399 C401 1.387 . S
C400 C397 1.398 . S
C400 C401 1.380 . S
C400 H414 0.930 . S
C401 C399 1.387 . S
C401 C400 1.380 . S
C401 H415 0.930 . S
C402 O382 1.254 . S
C402 O383 1.268 . S
C403 O387 1.284 . S
C403 O390 1.250 . S
C404 Gd337 2.828 . S
C404 O386 1.258 . S
C404 O391 1.252 . S
C404 C405 1.497 . S
C405 C404 1.497 . S
C405 C406 1.395 . S
C405 C407 1.380 . S
C406 C405 1.395 . S
C406 C409 1.398 . S
C406 H416 0.930 . S
C407 C405 1.380 . S
C407 C408 1.391 . S
C407 H417 0.930 . S
C408 C407 1.391 . S
C408 C410 1.387 . S
C409 C406 1.398 . S
C409 C410 1.380 . S
C409 H418 0.930 . S
C410 C408 1.387 . S
C410 C409 1.380 . S
C410 H419 0.930 . S
C411 O388 1.254 . S
C411 O389 1.268 . S
H412 C397 0.930 . S
H413 C398 0.930 . S
H414 C400 0.930 . S
H415 C401 0.930 . S
H416 C406 0.930 . S
H417 C407 0.930 . S
H418 C409 0.930 . S
H419 C410 0.930 . S
Gd420 N451 2.661 . S
Gd420 N457 2.601 . S
Gd420 O464 2.545 . S
Gd420 O465 2.606 1_545 S
Gd420 O467 2.429 . S
Gd420 O468 2.545 1_545 S
Gd420 O469 2.412 . S
Gd420 O471 2.362 . S
Gd420 O472 2.324 1_545 S
Gd420 C479 2.828 . S
Gd421 N430 2.661 . S
Gd421 N434 2.601 . S
Gd421 O465 2.362 . S
Gd421 O466 2.324 1_565 S
Gd421 O470 2.545 . S
Gd421 O471 2.606 1_565 S
Gd421 O473 2.429 . S
Gd421 O474 2.545 1_565 S
Gd421 O475 2.412 . S
Gd421 C488 2.828 . S
C422 C425 1.417 . S
C422 C427 1.431 . S
C422 C428 1.412 . S
C423 C426 1.437 . S
C423 C427 1.317 . S
C423 H442 0.929 . S
C424 C425 1.426 . S
C424 C426 1.413 . S
C424 N434 1.359 . S
C425 C422 1.417 . S
C425 C424 1.426 . S
C425 N430 1.350 . S
C426 C423 1.437 . S
C426 C424 1.413 . S
C426 C436 1.391 . S
C427 C422 1.431 . S
C427 C423 1.317 . S
C427 H438 0.930 . S
C428 C422 1.412 . S
C428 C429 1.355 . S
C428 H440 0.930 . S
C429 C428 1.355 . S
C429 C431 1.402 . S
C429 H441 0.930 . S
N430 Gd421 2.661 . S
N430 C425 1.350 . S
N430 C431 1.307 . S
C431 C429 1.402 . S
C431 N430 1.307 . S
C431 H432 0.930 . S
H432 C431 0.930 . S
C433 N434 1.334 . S
C433 C435 1.394 . S
C433 H437 0.930 . S
N434 Gd421 2.601 . S
N434 C424 1.359 . S
N434 C433 1.334 . S
C435 C433 1.394 . S
C435 C436 1.359 . S
C435 H447 0.930 . S
C436 C426 1.391 . S
C436 C435 1.359 . S
C436 H448 0.929 . S
H437 C433 0.930 . S
H438 C427 0.930 . S
H439 C456 0.930 . S
H440 C428 0.930 . S
H441 C429 0.930 . S
H442 C423 0.929 . S
H443 C461 0.930 . S
H444 C452 0.930 . S
H445 C453 0.930 . S
H446 C477 0.929 . S
H447 C435 0.930 . S
H448 C436 0.929 . S
H449 C478 0.930 . S
H450 C459 0.930 . S
N451 Gd420 2.661 . S
N451 C455 1.350 . S
N451 C456 1.307 . S
C452 H444 0.930 . S
C452 C453 1.355 . S
C452 C454 1.412 . S
C453 H445 0.930 . S
C453 C452 1.355 . S
C453 C456 1.402 . S
C454 C452 1.412 . S
C454 C455 1.417 . S
C454 C478 1.431 . S
C455 N451 1.350 . S
C455 C454 1.417 . S
C455 C458 1.426 . S
C456 H439 0.930 . S
C456 N451 1.307 . S
C456 C453 1.402 . S
N457 Gd420 2.601 . S
N457 C458 1.359 . S
N457 C461 1.334 . S
C458 C455 1.426 . S
C458 N457 1.359 . S
C458 C462 1.413 . S
C459 H450 0.930 . S
C459 C460 1.359 . S
C459 C461 1.394 . S
C460 C459 1.359 . S
C460 C462 1.391 . S
C460 H463 0.929 . S
C461 H443 0.930 . S
C461 N457 1.334 . S
C461 C459 1.394 . S
C462 C458 1.413 . S
C462 C460 1.391 . S
C462 C477 1.437 . S
H463 C460 0.929 . S
O464 Gd420 2.545 . S
O464 C479 1.258 . S
O465 Gd420 2.606 1_565 S
O465 Gd421 2.362 . S
O465 C476 1.284 . S
O466 Gd421 2.324 1_545 S
O466 C486 1.254 . S
O467 Gd420 2.429 . S
O467 C486 1.268 . S
O468 Gd420 2.545 1_565 S
O468 C476 1.250 . S
O469 Gd420 2.412 . S
O469 C479 1.252 . S
O470 Gd421 2.545 . S
O470 C488 1.258 . S
O471 Gd420 2.362 . S
O471 Gd421 2.606 1_545 S
O471 C487 1.284 . S
O472 Gd420 2.324 1_565 S
O472 C495 1.254 . S
O473 Gd421 2.429 . S
O473 C495 1.268 . S
O474 Gd421 2.545 1_545 S
O474 C487 1.250 . S
O475 Gd421 2.412 . S
O475 C488 1.252 . S
C476 O465 1.284 . S
C476 O468 1.250 . S
C477 H446 0.929 . S
C477 C462 1.437 . S
C477 C478 1.317 . S
C478 H449 0.930 . S
C478 C454 1.431 . S
C478 C477 1.317 . S
C479 Gd420 2.828 . S
C479 O464 1.258 . S
C479 O469 1.252 . S
C479 C480 1.497 . S
C480 C479 1.497 . S
C480 C481 1.395 . S
C480 C482 1.380 1_545 S
C481 C480 1.395 . S
C481 C484 1.398 . S
C481 H496 0.930 . S
C482 C480 1.380 1_565 S
C482 C483 1.391 . S
C482 H497 0.930 . S
C483 C482 1.391 . S
C483 C485 1.387 1_565 S
C484 C481 1.398 . S
C484 C485 1.380 . S
C484 H498 0.930 . S
C485 C483 1.387 1_545 S
C485 C484 1.380 . S
C485 H499 0.930 . S
C486 O466 1.254 . S
C486 O467 1.268 . S
C487 O471 1.284 . S
C487 O474 1.250 . S
C488 Gd421 2.828 . S
C488 O470 1.258 . S
C488 O475 1.252 . S
C488 C489 1.497 . S
C489 C488 1.497 . S
C489 C490 1.395 . S
C489 C491 1.380 1_565 S
C490 C489 1.395 . S
C490 C493 1.398 . S
C490 H500 0.930 . S
C491 C489 1.380 1_545 S
C491 C492 1.391 . S
C491 H501 0.930 . S
C492 C491 1.391 . S
C492 C494 1.387 1_545 S
C493 C490 1.398 . S
C493 C494 1.380 . S
C493 H502 0.930 . S
C494 C492 1.387 1_565 S
C494 C493 1.380 . S
C494 H503 0.930 . S
C495 O472 1.254 . S
C495 O473 1.268 . S
H496 C481 0.930 . S
H497 C482 0.930 . S
H498 C484 0.930 . S
H499 C485 0.930 . S
H500 C490 0.930 . S
H501 C491 0.930 . S
H502 C493 0.930 . S
H503 C494 0.930 . S
Gd504 N535 2.661 . S
Gd504 N541 2.601 . S
Gd504 O548 2.545 . S
Gd504 O549 2.606 . S
Gd504 O551 2.429 . S
Gd504 O552 2.545 . S
Gd504 O553 2.412 . S
Gd504 O555 2.362 . S
Gd504 O556 2.324 . S
Gd504 C563 2.828 . S
Gd505 N514 2.661 . S
Gd505 N518 2.601 . S
Gd505 O549 2.362 . S
Gd505 O550 2.324 . S
Gd505 O554 2.545 . S
Gd505 O555 2.606 . S
Gd505 O557 2.429 . S
Gd505 O558 2.545 . S
Gd505 O559 2.412 . S
Gd505 C572 2.828 1_556 S
C506 C509 1.417 . S
C506 C511 1.431 . S
C506 C512 1.412 . S
C507 C510 1.437 . S
C507 C511 1.317 . S
C507 H526 0.929 . S
C508 C509 1.426 . S
C508 C510 1.413 . S
C508 N518 1.359 . S
C509 C506 1.417 . S
C509 C508 1.426 . S
C509 N514 1.350 . S
C510 C507 1.437 . S
C510 C508 1.413 . S
C510 C520 1.391 . S
C511 C506 1.431 . S
C511 C507 1.317 . S
C511 H522 0.930 . S
C512 C506 1.412 . S
C512 C513 1.355 . S
C512 H524 0.930 . S
C513 C512 1.355 . S
C513 C515 1.402 . S
C513 H525 0.930 . S
N514 Gd505 2.661 . S
N514 C509 1.350 . S
N514 C515 1.307 . S
C515 C513 1.402 . S
C515 N514 1.307 . S
C515 H516 0.930 . S
H516 C515 0.930 . S
C517 N518 1.334 . S
C517 C519 1.394 . S
C517 H521 0.930 . S
N518 Gd505 2.601 . S
N518 C508 1.359 . S
N518 C517 1.334 . S
C519 C517 1.394 . S
C519 C520 1.359 . S
C519 H531 0.930 . S
C520 C510 1.391 . S
C520 C519 1.359 . S
C520 H532 0.929 . S
H521 C517 0.930 . S
H522 C511 0.930 . S
H523 C540 0.930 . S
H524 C512 0.930 . S
H525 C513 0.930 . S
H526 C507 0.929 . S
H527 C545 0.930 . S
H528 C536 0.930 . S
H529 C537 0.930 . S
H530 C561 0.929 . S
H531 C519 0.930 . S
H532 C520 0.929 . S
H533 C562 0.930 . S
H534 C543 0.930 . S
N535 Gd504 2.661 . S
N535 C539 1.350 . S
N535 C540 1.307 . S
C536 H528 0.930 . S
C536 C537 1.355 . S
C536 C538 1.412 . S
C537 H529 0.930 . S
C537 C536 1.355 . S
C537 C540 1.402 . S
C538 C536 1.412 . S
C538 C539 1.417 . S
C538 C562 1.431 . S
C539 N535 1.350 . S
C539 C538 1.417 . S
C539 C542 1.426 . S
C540 H523 0.930 . S
C540 N535 1.307 . S
C540 C537 1.402 . S
N541 Gd504 2.601 . S
N541 C542 1.359 . S
N541 C545 1.334 . S
C542 C539 1.426 . S
C542 N541 1.359 . S
C542 C546 1.413 . S
C543 H534 0.930 . S
C543 C544 1.359 . S
C543 C545 1.394 . S
C544 C543 1.359 . S
C544 C546 1.391 . S
C544 H547 0.929 . S
C545 H527 0.930 . S
C545 N541 1.334 . S
C545 C543 1.394 . S
C546 C542 1.413 . S
C546 C544 1.391 . S
C546 C561 1.437 . S
H547 C544 0.929 . S
O548 Gd504 2.545 . S
O548 C563 1.258 . S
O549 Gd504 2.606 . S
O549 Gd505 2.362 . S
O549 C560 1.284 . S
O550 Gd505 2.324 . S
O550 C570 1.254 . S
O551 Gd504 2.429 . S
O551 C570 1.268 . S
O552 Gd504 2.545 . S
O552 C560 1.250 . S
O553 Gd504 2.412 . S
O553 C563 1.252 . S
O554 Gd505 2.545 . S
O554 C572 1.258 1_556 S
O555 Gd504 2.362 . S
O555 Gd505 2.606 . S
O555 C571 1.284 . S
O556 Gd504 2.324 . S
O556 C579 1.254 . S
O557 Gd505 2.429 . S
O557 C579 1.268 . S
O558 Gd505 2.545 . S
O558 C571 1.250 . S
O559 Gd505 2.412 . S
O559 C572 1.252 1_556 S
C560 O549 1.284 . S
C560 O552 1.250 . S
C561 H530 0.929 . S
C561 C546 1.437 . S
C561 C562 1.317 . S
C562 H533 0.930 . S
C562 C538 1.431 . S
C562 C561 1.317 . S
C563 Gd504 2.828 . S
C563 O548 1.258 . S
C563 O553 1.252 . S
C563 C564 1.497 . S
C564 C563 1.497 . S
C564 C565 1.395 . S
C564 C566 1.380 . S
C565 C564 1.395 . S
C565 C568 1.398 . S
C565 H580 0.930 . S
C566 C564 1.380 . S
C566 C567 1.391 . S
C566 H581 0.930 . S
C567 C566 1.391 . S
C567 C569 1.387 . S
C568 C565 1.398 . S
C568 C569 1.380 . S
C568 H582 0.930 . S
C569 C567 1.387 . S
C569 C568 1.380 . S
C569 H583 0.930 . S
C570 O550 1.254 . S
C570 O551 1.268 . S
C571 O555 1.284 . S
C571 O558 1.250 . S
C572 Gd505 2.828 1_554 S
C572 O554 1.258 1_554 S
C572 O559 1.252 1_554 S
C572 C573 1.497 . S
C573 C572 1.497 . S
C573 C574 1.395 . S
C573 C575 1.380 . S
C574 C573 1.395 . S
C574 C577 1.398 . S
C574 H584 0.930 . S
C575 C573 1.380 . S
C575 C576 1.391 . S
C575 H585 0.930 . S
C576 C575 1.391 . S
C576 C578 1.387 . S
C577 C574 1.398 . S
C577 C578 1.380 . S
C577 H586 0.930 . S
C578 C576 1.387 . S
C578 C577 1.380 . S
C578 H587 0.930 . S
C579 O556 1.254 . S
C579 O557 1.268 . S
H580 C565 0.930 . S
H581 C566 0.930 . S
H582 C568 0.930 . S
H583 C569 0.930 . S
H584 C574 0.930 . S
H585 C575 0.930 . S
H586 C577 0.930 . S
H587 C578 0.930 . S
Gd588 N619 2.661 . S
Gd588 N625 2.601 . S
Gd588 O632 2.545 . S
Gd588 O633 2.606 . S
Gd588 O635 2.429 . S
Gd588 O636 2.545 . S
Gd588 O637 2.412 . S
Gd588 O639 2.362 . S
Gd588 O640 2.324 . S
Gd588 C647 2.828 . S
Gd589 N598 2.661 . S
Gd589 N602 2.601 . S
Gd589 O633 2.362 . S
Gd589 O634 2.324 . S
Gd589 O638 2.545 . S
Gd589 O639 2.606 . S
Gd589 O641 2.429 . S
Gd589 O642 2.545 . S
Gd589 O643 2.412 . S
Gd589 C656 2.828 1_556 S
C590 C593 1.417 . S
C590 C595 1.431 . S
C590 C596 1.412 . S
C591 C594 1.437 . S
C591 C595 1.317 . S
C591 H610 0.929 . S
C592 C593 1.426 . S
C592 C594 1.413 . S
C592 N602 1.359 . S
C593 C590 1.417 . S
C593 C592 1.426 . S
C593 N598 1.350 . S
C594 C591 1.437 . S
C594 C592 1.413 . S
C594 C604 1.391 . S
C595 C590 1.431 . S
C595 C591 1.317 . S
C595 H606 0.930 . S
C596 C590 1.412 . S
C596 C597 1.355 . S
C596 H608 0.930 . S
C597 C596 1.355 . S
C597 C599 1.402 . S
C597 H609 0.930 . S
N598 Gd589 2.661 . S
N598 C593 1.350 . S
N598 C599 1.307 . S
C599 C597 1.402 . S
C599 N598 1.307 . S
C599 H600 0.930 . S
H600 C599 0.930 . S
C601 N602 1.334 . S
C601 C603 1.394 . S
C601 H605 0.930 . S
N602 Gd589 2.601 . S
N602 C592 1.359 . S
N602 C601 1.334 . S
C603 C601 1.394 . S
C603 C604 1.359 . S
C603 H615 0.930 . S
C604 C594 1.391 . S
C604 C603 1.359 . S
C604 H616 0.929 . S
H605 C601 0.930 . S
H606 C595 0.930 . S
H607 C624 0.930 . S
H608 C596 0.930 . S
H609 C597 0.930 . S
H610 C591 0.929 . S
H611 C629 0.930 . S
H612 C620 0.930 . S
H613 C621 0.930 . S
H614 C645 0.929 . S
H615 C603 0.930 . S
H616 C604 0.929 . S
H617 C646 0.930 . S
H618 C627 0.930 . S
N619 Gd588 2.661 . S
N619 C623 1.350 . S
N619 C624 1.307 . S
C620 H612 0.930 . S
C620 C621 1.355 . S
C620 C622 1.412 . S
C621 H613 0.930 . S
C621 C620 1.355 . S
C621 C624 1.402 . S
C622 C620 1.412 . S
C622 C623 1.417 . S
C622 C646 1.431 . S
C623 N619 1.350 . S
C623 C622 1.417 . S
C623 C626 1.426 . S
C624 H607 0.930 . S
C624 N619 1.307 . S
C624 C621 1.402 . S
N625 Gd588 2.601 . S
N625 C626 1.359 . S
N625 C629 1.334 . S
C626 C623 1.426 . S
C626 N625 1.359 . S
C626 C630 1.413 . S
C627 H618 0.930 . S
C627 C628 1.359 . S
C627 C629 1.394 . S
C628 C627 1.359 . S
C628 C630 1.391 . S
C628 H631 0.929 . S
C629 H611 0.930 . S
C629 N625 1.334 . S
C629 C627 1.394 . S
C630 C626 1.413 . S
C630 C628 1.391 . S
C630 C645 1.437 . S
H631 C628 0.929 . S
O632 Gd588 2.545 . S
O632 C647 1.258 . S
O633 Gd588 2.606 . S
O633 Gd589 2.362 . S
O633 C644 1.284 . S
O634 Gd589 2.324 . S
O634 C654 1.254 . S
O635 Gd588 2.429 . S
O635 C654 1.268 . S
O636 Gd588 2.545 . S
O636 C644 1.250 . S
O637 Gd588 2.412 . S
O637 C647 1.252 . S
O638 Gd589 2.545 . S
O638 C656 1.258 1_556 S
O639 Gd588 2.362 . S
O639 Gd589 2.606 . S
O639 C655 1.284 . S
O640 Gd588 2.324 . S
O640 C663 1.254 . S
O641 Gd589 2.429 . S
O641 C663 1.268 . S
O642 Gd589 2.545 . S
O642 C655 1.250 . S
O643 Gd589 2.412 . S
O643 C656 1.252 1_556 S
C644 O633 1.284 . S
C644 O636 1.250 . S
C645 H614 0.929 . S
C645 C630 1.437 . S
C645 C646 1.317 . S
C646 H617 0.930 . S
C646 C622 1.431 . S
C646 C645 1.317 . S
C647 Gd588 2.828 . S
C647 O632 1.258 . S
C647 O637 1.252 . S
C647 C648 1.497 . S
C648 C647 1.497 . S
C648 C649 1.395 . S
C648 C650 1.380 . S
C649 C648 1.395 . S
C649 C652 1.398 . S
C649 H664 0.930 . S
C650 C648 1.380 . S
C650 C651 1.391 . S
C650 H665 0.930 . S
C651 C650 1.391 . S
C651 C653 1.387 . S
C652 C649 1.398 . S
C652 C653 1.380 . S
C652 H666 0.930 . S
C653 C651 1.387 . S
C653 C652 1.380 . S
C653 H667 0.930 . S
C654 O634 1.254 . S
C654 O635 1.268 . S
C655 O639 1.284 . S
C655 O642 1.250 . S
C656 Gd589 2.828 1_554 S
C656 O638 1.258 1_554 S
C656 O643 1.252 1_554 S
C656 C657 1.497 . S
C657 C656 1.497 . S
C657 C658 1.395 . S
C657 C659 1.380 . S
C658 C657 1.395 . S
C658 C661 1.398 . S
C658 H668 0.930 . S
C659 C657 1.380 . S
C659 C660 1.391 . S
C659 H669 0.930 . S
C660 C659 1.391 . S
C660 C662 1.387 . S
C661 C658 1.398 . S
C661 C662 1.380 . S
C661 H670 0.930 . S
C662 C660 1.387 . S
C662 C661 1.380 . S
C662 H671 0.930 . S
C663 O640 1.254 . S
C663 O641 1.268 . S
H664 C649 0.930 . S
H665 C650 0.930 . S
H666 C652 0.930 . S
H667 C653 0.930 . S
H668 C658 0.930 . S
H669 C659 0.930 . S
H670 C661 0.930 . S
H671 C662 0.930 . S
Gd672 N703 2.661 . S
Gd672 N709 2.601 . S
Gd672 O716 2.545 . S
Gd672 O717 2.606 . S
Gd672 O719 2.429 . S
Gd672 O720 2.545 . S
Gd672 O721 2.412 . S
Gd672 O723 2.362 . S
Gd672 O724 2.324 . S
Gd672 C731 2.828 . S
Gd673 N682 2.661 . S
Gd673 N686 2.601 . S
Gd673 O717 2.362 . S
Gd673 O718 2.324 . S
Gd673 O722 2.545 . S
Gd673 O723 2.606 . S
Gd673 O725 2.429 . S
Gd673 O726 2.545 . S
Gd673 O727 2.412 . S
Gd673 C740 2.828 1_556 S
C674 C677 1.417 . S
C674 C679 1.431 . S
C674 C680 1.412 . S
C675 C678 1.437 . S
C675 C679 1.317 . S
C675 H694 0.929 . S
C676 C677 1.426 . S
C676 C678 1.413 . S
C676 N686 1.359 . S
C677 C674 1.417 . S
C677 C676 1.426 . S
C677 N682 1.350 . S
C678 C675 1.437 . S
C678 C676 1.413 . S
C678 C688 1.391 . S
C679 C674 1.431 . S
C679 C675 1.317 . S
C679 H690 0.930 . S
C680 C674 1.412 . S
C680 C681 1.355 . S
C680 H692 0.930 . S
C681 C680 1.355 . S
C681 C683 1.402 . S
C681 H693 0.930 . S
N682 Gd673 2.661 . S
N682 C677 1.350 . S
N682 C683 1.307 . S
C683 C681 1.402 . S
C683 N682 1.307 . S
C683 H684 0.930 . S
H684 C683 0.930 . S
C685 N686 1.334 . S
C685 C687 1.394 . S
C685 H689 0.930 . S
N686 Gd673 2.601 . S
N686 C676 1.359 . S
N686 C685 1.334 . S
C687 C685 1.394 . S
C687 C688 1.359 . S
C687 H699 0.930 . S
C688 C678 1.391 . S
C688 C687 1.359 . S
C688 H700 0.929 . S
H689 C685 0.930 . S
H690 C679 0.930 . S
H691 C708 0.930 . S
H692 C680 0.930 . S
H693 C681 0.930 . S
H694 C675 0.929 . S
H695 C713 0.930 . S
H696 C704 0.930 . S
H697 C705 0.930 . S
H698 C729 0.929 . S
H699 C687 0.930 . S
H700 C688 0.929 . S
H701 C730 0.930 . S
H702 C711 0.930 . S
N703 Gd672 2.661 . S
N703 C707 1.350 . S
N703 C708 1.307 . S
C704 H696 0.930 . S
C704 C705 1.355 . S
C704 C706 1.412 . S
C705 H697 0.930 . S
C705 C704 1.355 . S
C705 C708 1.402 . S
C706 C704 1.412 . S
C706 C707 1.417 . S
C706 C730 1.431 . S
C707 N703 1.350 . S
C707 C706 1.417 . S
C707 C710 1.426 . S
C708 H691 0.930 . S
C708 N703 1.307 . S
C708 C705 1.402 . S
N709 Gd672 2.601 . S
N709 C710 1.359 . S
N709 C713 1.334 . S
C710 C707 1.426 . S
C710 N709 1.359 . S
C710 C714 1.413 . S
C711 H702 0.930 . S
C711 C712 1.359 . S
C711 C713 1.394 . S
C712 C711 1.359 . S
C712 C714 1.391 . S
C712 H715 0.929 . S
C713 H695 0.930 . S
C713 N709 1.334 . S
C713 C711 1.394 . S
C714 C710 1.413 . S
C714 C712 1.391 . S
C714 C729 1.437 . S
H715 C712 0.929 . S
O716 Gd672 2.545 . S
O716 C731 1.258 . S
O717 Gd672 2.606 . S
O717 Gd673 2.362 . S
O717 C728 1.284 . S
O718 Gd673 2.324 . S
O718 C738 1.254 . S
O719 Gd672 2.429 . S
O719 C738 1.268 . S
O720 Gd672 2.545 . S
O720 C728 1.250 . S
O721 Gd672 2.412 . S
O721 C731 1.252 . S
O722 Gd673 2.545 . S
O722 C740 1.258 1_556 S
O723 Gd672 2.362 . S
O723 Gd673 2.606 . S
O723 C739 1.284 . S
O724 Gd672 2.324 . S
O724 C747 1.254 . S
O725 Gd673 2.429 . S
O725 C747 1.268 . S
O726 Gd673 2.545 . S
O726 C739 1.250 . S
O727 Gd673 2.412 . S
O727 C740 1.252 1_556 S
C728 O717 1.284 . S
C728 O720 1.250 . S
C729 H698 0.929 . S
C729 C714 1.437 . S
C729 C730 1.317 . S
C730 H701 0.930 . S
C730 C706 1.431 . S
C730 C729 1.317 . S
C731 Gd672 2.828 . S
C731 O716 1.258 . S
C731 O721 1.252 . S
C731 C732 1.497 . S
C732 C731 1.497 . S
C732 C733 1.395 . S
C732 C734 1.380 . S
C733 C732 1.395 . S
C733 C736 1.398 . S
C733 H748 0.930 . S
C734 C732 1.380 . S
C734 C735 1.391 . S
C734 H749 0.930 . S
C735 C734 1.391 . S
C735 C737 1.387 . S
C736 C733 1.398 . S
C736 C737 1.380 . S
C736 H750 0.930 . S
C737 C735 1.387 . S
C737 C736 1.380 . S
C737 H751 0.930 . S
C738 O718 1.254 . S
C738 O719 1.268 . S
C739 O723 1.284 . S
C739 O726 1.250 . S
C740 Gd673 2.828 1_554 S
C740 O722 1.258 1_554 S
C740 O727 1.252 1_554 S
C740 C741 1.497 . S
C741 C740 1.497 . S
C741 C742 1.395 . S
C741 C743 1.380 . S
C742 C741 1.395 . S
C742 C745 1.398 . S
C742 H752 0.930 . S
C743 C741 1.380 . S
C743 C744 1.391 . S
C743 H753 0.930 . S
C744 C743 1.391 . S
C744 C746 1.387 . S
C745 C742 1.398 . S
C745 C746 1.380 . S
C745 H754 0.930 . S
C746 C744 1.387 . S
C746 C745 1.380 . S
C746 H755 0.930 . S
C747 O724 1.254 . S
C747 O725 1.268 . S
H748 C733 0.930 . S
H749 C734 0.930 . S
H750 C736 0.930 . S
H751 C737 0.930 . S
H752 C742 0.930 . S
H753 C743 0.930 . S
H754 C745 0.930 . S
H755 C746 0.930 . S
Gd756 N787 2.661 . S
Gd756 N793 2.601 . S
Gd756 O800 2.545 . S
Gd756 O801 2.606 . S
Gd756 O803 2.429 . S
Gd756 O804 2.545 . S
Gd756 O805 2.412 . S
Gd756 O807 2.362 . S
Gd756 O808 2.324 . S
Gd756 C815 2.828 . S
Gd757 N766 2.661 . S
Gd757 N770 2.601 . S
Gd757 O801 2.362 . S
Gd757 O802 2.324 . S
Gd757 O806 2.545 . S
Gd757 O807 2.606 . S
Gd757 O809 2.429 . S
Gd757 O810 2.545 . S
Gd757 O811 2.412 1_556 S
Gd757 C824 2.828 1_556 S
C758 C761 1.417 . S
C758 C763 1.431 . S
C758 C764 1.412 . S
C759 C762 1.437 . S
C759 C763 1.317 . S
C759 H778 0.929 . S
C760 C761 1.426 . S
C760 C762 1.413 . S
C760 N770 1.359 . S
C761 C758 1.417 . S
C761 C760 1.426 . S
C761 N766 1.350 . S
C762 C759 1.437 . S
C762 C760 1.413 . S
C762 C772 1.391 . S
C763 C758 1.431 . S
C763 C759 1.317 . S
C763 H774 0.930 . S
C764 C758 1.412 . S
C764 C765 1.355 . S
C764 H776 0.930 . S
C765 C764 1.355 . S
C765 C767 1.402 . S
C765 H777 0.930 . S
N766 Gd757 2.661 . S
N766 C761 1.350 . S
N766 C767 1.307 . S
C767 C765 1.402 . S
C767 N766 1.307 . S
C767 H768 0.930 . S
H768 C767 0.930 . S
C769 N770 1.334 . S
C769 C771 1.394 . S
C769 H773 0.930 . S
N770 Gd757 2.601 . S
N770 C760 1.359 . S
N770 C769 1.334 . S
C771 C769 1.394 . S
C771 C772 1.359 . S
C771 H783 0.930 . S
C772 C762 1.391 . S
C772 C771 1.359 . S
C772 H784 0.929 . S
H773 C769 0.930 . S
H774 C763 0.930 . S
H775 C792 0.930 . S
H776 C764 0.930 . S
H777 C765 0.930 . S
H778 C759 0.929 . S
H779 C797 0.930 . S
H780 C788 0.930 1_565 S
H781 C789 0.930 . S
H782 C813 0.929 . S
H783 C771 0.930 . S
H784 C772 0.929 . S
H785 C814 0.930 1_565 S
H786 C795 0.930 . S
N787 Gd756 2.661 . S
N787 C791 1.350 . S
N787 C792 1.307 . S
C788 H780 0.930 1_545 S
C788 C789 1.355 . S
C788 C790 1.412 . S
C789 H781 0.930 . S
C789 C788 1.355 . S
C789 C792 1.402 . S
C790 C788 1.412 . S
C790 C791 1.417 . S
C790 C814 1.431 . S
C791 N787 1.350 . S
C791 C790 1.417 . S
C791 C794 1.426 . S
C792 H775 0.930 . S
C792 N787 1.307 . S
C792 C789 1.402 . S
N793 Gd756 2.601 . S
N793 C794 1.359 . S
N793 C797 1.334 . S
C794 C791 1.426 . S
C794 N793 1.359 . S
C794 C798 1.413 . S
C795 H786 0.930 . S
C795 C796 1.359 . S
C795 C797 1.394 . S
C796 C795 1.359 . S
C796 C798 1.391 . S
C796 H799 0.929 . S
C797 H779 0.930 . S
C797 N793 1.334 . S
C797 C795 1.394 . S
C798 C794 1.413 . S
C798 C796 1.391 . S
C798 C813 1.437 . S
H799 C796 0.929 . S
O800 Gd756 2.545 . S
O800 C815 1.258 . S
O801 Gd756 2.606 . S
O801 Gd757 2.362 . S
O801 C812 1.284 . S
O802 Gd757 2.324 . S
O802 C822 1.254 . S
O803 Gd756 2.429 . S
O803 C822 1.268 . S
O804 Gd756 2.545 . S
O804 C812 1.250 . S
O805 Gd756 2.412 . S
O805 C815 1.252 . S
O806 Gd757 2.545 . S
O806 C824 1.258 1_556 S
O807 Gd756 2.362 . S
O807 Gd757 2.606 . S
O807 C823 1.284 . S
O808 Gd756 2.324 . S
O808 C831 1.254 . S
O809 Gd757 2.429 . S
O809 C831 1.268 . S
O810 Gd757 2.545 . S
O810 C823 1.250 . S
O811 Gd757 2.412 1_554 S
O811 C824 1.252 . S
C812 O801 1.284 . S
C812 O804 1.250 . S
C813 H782 0.929 . S
C813 C798 1.437 . S
C813 C814 1.317 . S
C814 H785 0.930 1_545 S
C814 C790 1.431 . S
C814 C813 1.317 . S
C815 Gd756 2.828 . S
C815 O800 1.258 . S
C815 O805 1.252 . S
C815 C816 1.497 . S
C816 C815 1.497 . S
C816 C817 1.395 . S
C816 C818 1.380 . S
C817 C816 1.395 . S
C817 C820 1.398 . S
C817 H832 0.930 . S
C818 C816 1.380 . S
C818 C819 1.391 . S
C818 H833 0.930 . S
C819 C818 1.391 . S
C819 C821 1.387 . S
C820 C817 1.398 . S
C820 C821 1.380 . S
C820 H834 0.930 . S
C821 C819 1.387 . S
C821 C820 1.380 . S
C821 H835 0.930 . S
C822 O802 1.254 . S
C822 O803 1.268 . S
C823 O807 1.284 . S
C823 O810 1.250 . S
C824 Gd757 2.828 1_554 S
C824 O806 1.258 1_554 S
C824 O811 1.252 . S
C824 C825 1.497 . S
C825 C824 1.497 . S
C825 C826 1.395 . S
C825 C827 1.380 . S
C826 C825 1.395 . S
C826 C829 1.398 . S
C826 H836 0.930 . S
C827 C825 1.380 . S
C827 C828 1.391 . S
C827 H837 0.930 . S
C828 C827 1.391 . S
C828 C830 1.387 . S
C829 C826 1.398 . S
C829 C830 1.380 . S
C829 H838 0.930 . S
C830 C828 1.387 . S
C830 C829 1.380 . S
C830 H839 0.930 . S
C831 O808 1.254 . S
C831 O809 1.268 . S
H832 C817 0.930 . S
H833 C818 0.930 . S
H834 C820 0.930 . S
H835 C821 0.930 . S
H836 C826 0.930 . S
H837 C827 0.930 . S
H838 C829 0.930 . S
H839 C830 0.930 . S
Gd840 N871 2.661 . S
Gd840 N877 2.601 . S
Gd840 O884 2.545 . S
Gd840 O885 2.606 . S
Gd840 O887 2.429 . S
Gd840 O888 2.545 . S
Gd840 O889 2.412 . S
Gd840 O891 2.362 . S
Gd840 O892 2.324 . S
Gd840 C899 2.828 . S
Gd841 N850 2.661 . S
Gd841 N854 2.601 . S
Gd841 O885 2.362 . S
Gd841 O886 2.324 . S
Gd841 O890 2.545 . S
Gd841 O891 2.606 . S
Gd841 O893 2.429 . S
Gd841 O894 2.545 . S
Gd841 O895 2.412 1_556 S
Gd841 C908 2.828 1_556 S
C842 C845 1.417 . S
C842 C847 1.431 . S
C842 C848 1.412 . S
C843 C846 1.437 . S
C843 C847 1.317 . S
C843 H862 0.929 . S
C844 C845 1.426 . S
C844 C846 1.413 . S
C844 N854 1.359 . S
C845 C842 1.417 . S
C845 C844 1.426 . S
C845 N850 1.350 . S
C846 C843 1.437 . S
C846 C844 1.413 . S
C846 C856 1.391 . S
C847 C842 1.431 . S
C847 C843 1.317 . S
C847 H858 0.930 . S
C848 C842 1.412 . S
C848 C849 1.355 . S
C848 H860 0.930 . S
C849 C848 1.355 . S
C849 C851 1.402 . S
C849 H861 0.930 . S
N850 Gd841 2.661 . S
N850 C845 1.350 . S
N850 C851 1.307 . S
C851 C849 1.402 . S
C851 N850 1.307 . S
C851 H852 0.930 . S
H852 C851 0.930 . S
C853 N854 1.334 . S
C853 C855 1.394 . S
C853 H857 0.930 . S
N854 Gd841 2.601 . S
N854 C844 1.359 . S
N854 C853 1.334 . S
C855 C853 1.394 . S
C855 C856 1.359 . S
C855 H867 0.930 . S
C856 C846 1.391 . S
C856 C855 1.359 . S
C856 H868 0.929 . S
H857 C853 0.930 . S
H858 C847 0.930 . S
H859 C876 0.930 . S
H860 C848 0.930 . S
H861 C849 0.930 . S
H862 C843 0.929 . S
H863 C881 0.930 . S
H864 C872 0.930 1_455 S
H865 C873 0.930 . S
H866 C897 0.929 . S
H867 C855 0.930 . S
H868 C856 0.929 . S
H869 C898 0.930 1_455 S
H870 C879 0.930 . S
N871 Gd840 2.661 . S
N871 C875 1.350 . S
N871 C876 1.307 . S
C872 H864 0.930 1_655 S
C872 C873 1.355 . S
C872 C874 1.412 . S
C873 H865 0.930 . S
C873 C872 1.355 . S
C873 C876 1.402 . S
C874 C872 1.412 . S
C874 C875 1.417 . S
C874 C898 1.431 . S
C875 N871 1.350 . S
C875 C874 1.417 . S
C875 C878 1.426 . S
C876 H859 0.930 . S
C876 N871 1.307 . S
C876 C873 1.402 . S
N877 Gd840 2.601 . S
N877 C878 1.359 . S
N877 C881 1.334 . S
C878 C875 1.426 . S
C878 N877 1.359 . S
C878 C882 1.413 . S
C879 H870 0.930 . S
C879 C880 1.359 . S
C879 C881 1.394 . S
C880 C879 1.359 . S
C880 C882 1.391 . S
C880 H883 0.929 . S
C881 H863 0.930 . S
C881 N877 1.334 . S
C881 C879 1.394 . S
C882 C878 1.413 . S
C882 C880 1.391 . S
C882 C897 1.437 . S
H883 C880 0.929 . S
O884 Gd840 2.545 . S
O884 C899 1.258 . S
O885 Gd840 2.606 . S
O885 Gd841 2.362 . S
O885 C896 1.284 . S
O886 Gd841 2.324 . S
O886 C906 1.254 . S
O887 Gd840 2.429 . S
O887 C906 1.268 . S
O888 Gd840 2.545 . S
O888 C896 1.250 . S
O889 Gd840 2.412 . S
O889 C899 1.252 . S
O890 Gd841 2.545 . S
O890 C908 1.258 1_556 S
O891 Gd840 2.362 . S
O891 Gd841 2.606 . S
O891 C907 1.284 . S
O892 Gd840 2.324 . S
O892 C915 1.254 . S
O893 Gd841 2.429 . S
O893 C915 1.268 . S
O894 Gd841 2.545 . S
O894 C907 1.250 . S
O895 Gd841 2.412 1_554 S
O895 C908 1.252 . S
C896 O885 1.284 . S
C896 O888 1.250 . S
C897 H866 0.929 . S
C897 C882 1.437 . S
C897 C898 1.317 . S
C898 H869 0.930 1_655 S
C898 C874 1.431 . S
C898 C897 1.317 . S
C899 Gd840 2.828 . S
C899 O884 1.258 . S
C899 O889 1.252 . S
C899 C900 1.497 . S
C900 C899 1.497 . S
C900 C901 1.395 . S
C900 C902 1.380 . S
C901 C900 1.395 . S
C901 C904 1.398 . S
C901 H916 0.930 . S
C902 C900 1.380 . S
C902 C903 1.391 . S
C902 H917 0.930 . S
C903 C902 1.391 . S
C903 C905 1.387 . S
C904 C901 1.398 . S
C904 C905 1.380 . S
C904 H918 0.930 . S
C905 C903 1.387 . S
C905 C904 1.380 . S
C905 H919 0.930 . S
C906 O886 1.254 . S
C906 O887 1.268 . S
C907 O891 1.284 . S
C907 O894 1.250 . S
C908 Gd841 2.828 1_554 S
C908 O890 1.258 1_554 S
C908 O895 1.252 . S
C908 C909 1.497 . S
C909 C908 1.497 . S
C909 C910 1.395 . S
C909 C911 1.380 . S
C910 C909 1.395 . S
C910 C913 1.398 . S
C910 H920 0.930 . S
C911 C909 1.380 . S
C911 C912 1.391 . S
C911 H921 0.930 . S
C912 C911 1.391 . S
C912 C914 1.387 . S
C913 C910 1.398 . S
C913 C914 1.380 . S
C913 H922 0.930 . S
C914 C912 1.387 . S
C914 C913 1.380 . S
C914 H923 0.930 . S
C915 O892 1.254 . S
C915 O893 1.268 . S
H916 C901 0.930 . S
H917 C902 0.930 . S
H918 C904 0.930 . S
H919 C905 0.930 . S
H920 C910 0.930 . S
H921 C911 0.930 . S
H922 C913 0.930 . S
H923 C914 0.930 . S
Gd924 N955 2.661 . S
Gd924 N961 2.601 . S
Gd924 O968 2.545 . S
Gd924 O969 2.606 . S
Gd924 O971 2.429 . S
Gd924 O972 2.545 . S
Gd924 O973 2.412 . S
Gd924 O975 2.362 . S
Gd924 O976 2.324 . S
Gd924 C983 2.828 . S
Gd925 N934 2.661 . S
Gd925 N938 2.601 . S
Gd925 O969 2.362 . S
Gd925 O970 2.324 . S
Gd925 O974 2.545 . S
Gd925 O975 2.606 . S
Gd925 O977 2.429 . S
Gd925 O978 2.545 . S
Gd925 O979 2.412 1_556 S
Gd925 C992 2.828 1_556 S
C926 C929 1.417 . S
C926 C931 1.431 . S
C926 C932 1.412 . S
C927 C930 1.437 . S
C927 C931 1.317 . S
C927 H946 0.929 . S
C928 C929 1.426 . S
C928 C930 1.413 . S
C928 N938 1.359 . S
C929 C926 1.417 . S
C929 C928 1.426 . S
C929 N934 1.350 . S
C930 C927 1.437 . S
C930 C928 1.413 . S
C930 C940 1.391 . S
C931 C926 1.431 . S
C931 C927 1.317 . S
C931 H942 0.930 . S
C932 C926 1.412 . S
C932 C933 1.355 . S
C932 H944 0.930 . S
C933 C932 1.355 . S
C933 C935 1.402 . S
C933 H945 0.930 . S
N934 Gd925 2.661 . S
N934 C929 1.350 . S
N934 C935 1.307 . S
C935 C933 1.402 . S
C935 N934 1.307 . S
C935 H936 0.930 . S
H936 C935 0.930 . S
C937 N938 1.334 . S
C937 C939 1.394 . S
C937 H941 0.930 . S
N938 Gd925 2.601 . S
N938 C928 1.359 . S
N938 C937 1.334 . S
C939 C937 1.394 . S
C939 C940 1.359 . S
C939 H951 0.930 . S
C940 C930 1.391 . S
C940 C939 1.359 . S
C940 H952 0.929 . S
H941 C937 0.930 . S
H942 C931 0.930 . S
H943 C960 0.930 . S
H944 C932 0.930 . S
H945 C933 0.930 . S
H946 C927 0.929 . S
H947 C965 0.930 . S
H948 C956 0.930 . S
H949 C957 0.930 . S
H950 C981 0.929 . S
H951 C939 0.930 . S
H952 C940 0.929 . S
H953 C982 0.930 . S
H954 C963 0.930 . S
N955 Gd924 2.661 . S
N955 C959 1.350 . S
N955 C960 1.307 . S
C956 H948 0.930 . S
C956 C957 1.355 . S
C956 C958 1.412 . S
C957 H949 0.930 . S
C957 C956 1.355 . S
C957 C960 1.402 . S
C958 C956 1.412 . S
C958 C959 1.417 . S
C958 C982 1.431 . S
C959 N955 1.350 . S
C959 C958 1.417 . S
C959 C962 1.426 . S
C960 H943 0.930 . S
C960 N955 1.307 . S
C960 C957 1.402 . S
N961 Gd924 2.601 . S
N961 C962 1.359 . S
N961 C965 1.334 . S
C962 C959 1.426 . S
C962 N961 1.359 . S
C962 C966 1.413 . S
C963 H954 0.930 . S
C963 C964 1.359 . S
C963 C965 1.394 . S
C964 C963 1.359 . S
C964 C966 1.391 . S
C964 H967 0.929 . S
C965 H947 0.930 . S
C965 N961 1.334 . S
C965 C963 1.394 . S
C966 C962 1.413 . S
C966 C964 1.391 . S
C966 C981 1.437 . S
H967 C964 0.929 . S
O968 Gd924 2.545 . S
O968 C983 1.258 . S
O969 Gd924 2.606 . S
O969 Gd925 2.362 . S
O969 C980 1.284 . S
O970 Gd925 2.324 . S
O970 C990 1.254 . S
O971 Gd924 2.429 . S
O971 C990 1.268 . S
O972 Gd924 2.545 . S
O972 C980 1.250 . S
O973 Gd924 2.412 . S
O973 C983 1.252 . S
O974 Gd925 2.545 . S
O974 C992 1.258 1_556 S
O975 Gd924 2.362 . S
O975 Gd925 2.606 . S
O975 C991 1.284 . S
O976 Gd924 2.324 . S
O976 C999 1.254 . S
O977 Gd925 2.429 . S
O977 C999 1.268 . S
O978 Gd925 2.545 . S
O978 C991 1.250 . S
O979 Gd925 2.412 1_554 S
O979 C992 1.252 . S
C980 O969 1.284 . S
C980 O972 1.250 . S
C981 H950 0.929 . S
C981 C966 1.437 . S
C981 C982 1.317 . S
C982 H953 0.930 . S
C982 C958 1.431 . S
C982 C981 1.317 . S
C983 Gd924 2.828 . S
C983 O968 1.258 . S
C983 O973 1.252 . S
C983 C984 1.497 . S
C984 C983 1.497 . S
C984 C985 1.395 . S
C984 C986 1.380 . S
C985 C984 1.395 . S
C985 C988 1.398 . S
C985 H1000 0.930 . S
C986 C984 1.380 . S
C986 C987 1.391 . S
C986 H1001 0.930 . S
C987 C986 1.391 . S
C987 C989 1.387 . S
C988 C985 1.398 . S
C988 C989 1.380 . S
C988 H1002 0.930 . S
C989 C987 1.387 . S
C989 C988 1.380 . S
C989 H1003 0.930 . S
C990 O970 1.254 . S
C990 O971 1.268 . S
C991 O975 1.284 . S
C991 O978 1.250 . S
C992 Gd925 2.828 1_554 S
C992 O974 1.258 1_554 S
C992 O979 1.252 . S
C992 C993 1.497 . S
C993 C992 1.497 . S
C993 C994 1.395 . S
C993 C995 1.380 . S
C994 C993 1.395 . S
C994 C997 1.398 . S
C994 H1004 0.930 . S
C995 C993 1.380 . S
C995 C996 1.391 . S
C995 H1005 0.930 . S
C996 C995 1.391 . S
C996 C998 1.387 . S
C997 C994 1.398 . S
C997 C998 1.380 . S
C997 H1006 0.930 . S
C998 C996 1.387 . S
C998 C997 1.380 . S
C998 H1007 0.930 . S
C999 O976 1.254 . S
C999 O977 1.268 . S
H1000 C985 0.930 . S
H1001 C986 0.930 . S
H1002 C988 0.930 . S
H1003 C989 0.930 . S
H1004 C994 0.930 . S
H1005 C995 0.930 . S
H1006 C997 0.930 . S
H1007 C998 0.930 . S
Gd1008 N1039 2.661 . S
Gd1008 N1045 2.601 . S
Gd1008 O1052 2.545 . S
Gd1008 O1053 2.606 . S
Gd1008 O1055 2.429 . S
Gd1008 O1056 2.545 . S
Gd1008 O1057 2.412 1_554 S
Gd1008 O1059 2.362 . S
Gd1008 O1060 2.324 . S
Gd1008 C1067 2.828 1_554 S
Gd1009 N1018 2.661 . S
Gd1009 N1022 2.601 . S
Gd1009 O1053 2.362 . S
Gd1009 O1054 2.324 . S
Gd1009 O1058 2.545 . S
Gd1009 O1059 2.606 . S
Gd1009 O1061 2.429 . S
Gd1009 O1062 2.545 . S
Gd1009 O1063 2.412 . S
Gd1009 C1076 2.828 . S
C1010 C1013 1.417 . S
C1010 C1015 1.431 . S
C1010 C1016 1.412 . S
C1011 C1014 1.437 . S
C1011 C1015 1.317 . S
C1011 H1030 0.929 . S
C1012 C1013 1.426 . S
C1012 C1014 1.413 . S
C1012 N1022 1.359 . S
C1013 C1010 1.417 . S
C1013 C1012 1.426 . S
C1013 N1018 1.350 . S
C1014 C1011 1.437 . S
C1014 C1012 1.413 . S
C1014 C1024 1.391 . S
C1015 C1010 1.431 . S
C1015 C1011 1.317 . S
C1015 H1026 0.930 1_565 S
C1016 C1010 1.412 . S
C1016 C1017 1.355 . S
C1016 H1028 0.930 1_565 S
C1017 C1016 1.355 . S
C1017 C1019 1.402 . S
C1017 H1029 0.930 . S
N1018 Gd1009 2.661 . S
N1018 C1013 1.350 . S
N1018 C1019 1.307 . S
C1019 C1017 1.402 . S
C1019 N1018 1.307 . S
C1019 H1020 0.930 . S
H1020 C1019 0.930 . S
C1021 N1022 1.334 . S
C1021 C1023 1.394 . S
C1021 H1025 0.930 . S
N1022 Gd1009 2.601 . S
N1022 C1012 1.359 . S
N1022 C1021 1.334 . S
C1023 C1021 1.394 . S
C1023 C1024 1.359 . S
C1023 H1035 0.930 . S
C1024 C1014 1.391 . S
C1024 C1023 1.359 . S
C1024 H1036 0.929 . S
H1025 C1021 0.930 . S
H1026 C1015 0.930 1_545 S
H1027 C1044 0.930 . S
H1028 C1016 0.930 1_545 S
H1029 C1017 0.930 . S
H1030 C1011 0.929 . S
H1031 C1049 0.930 . S
H1032 C1040 0.930 . S
H1033 C1041 0.930 . S
H1034 C1065 0.929 . S
H1035 C1023 0.930 . S
H1036 C1024 0.929 . S
H1037 C1066 0.930 . S
H1038 C1047 0.930 . S
N1039 Gd1008 2.661 . S
N1039 C1043 1.350 . S
N1039 C1044 1.307 . S
C1040 H1032 0.930 . S
C1040 C1041 1.355 . S
C1040 C1042 1.412 . S
C1041 H1033 0.930 . S
C1041 C1040 1.355 . S
C1041 C1044 1.402 . S
C1042 C1040 1.412 . S
C1042 C1043 1.417 . S
C1042 C1066 1.431 . S
C1043 N1039 1.350 . S
C1043 C1042 1.417 . S
C1043 C1046 1.426 . S
C1044 H1027 0.930 . S
C1044 N1039 1.307 . S
C1044 C1041 1.402 . S
N1045 Gd1008 2.601 . S
N1045 C1046 1.359 . S
N1045 C1049 1.334 . S
C1046 C1043 1.426 . S
C1046 N1045 1.359 . S
C1046 C1050 1.413 . S
C1047 H1038 0.930 . S
C1047 C1048 1.359 . S
C1047 C1049 1.394 . S
C1048 C1047 1.359 . S
C1048 C1050 1.391 . S
C1048 H1051 0.929 . S
C1049 H1031 0.930 . S
C1049 N1045 1.334 . S
C1049 C1047 1.394 . S
C1050 C1046 1.413 . S
C1050 C1048 1.391 . S
C1050 C1065 1.437 . S
H1051 C1048 0.929 . S
O1052 Gd1008 2.545 . S
O1052 C1067 1.258 1_554 S
O1053 Gd1008 2.606 . S
O1053 Gd1009 2.362 . S
O1053 C1064 1.284 . S
O1054 Gd1009 2.324 . S
O1054 C1074 1.254 . S
O1055 Gd1008 2.429 . S
O1055 C1074 1.268 . S
O1056 Gd1008 2.545 . S
O1056 C1064 1.250 . S
O1057 Gd1008 2.412 1_556 S
O1057 C1067 1.252 . S
O1058 Gd1009 2.545 . S
O1058 C1076 1.258 . S
O1059 Gd1008 2.362 . S
O1059 Gd1009 2.606 . S
O1059 C1075 1.284 . S
O1060 Gd1008 2.324 . S
O1060 C1083 1.254 . S
O1061 Gd1009 2.429 . S
O1061 C1083 1.268 . S
O1062 Gd1009 2.545 . S
O1062 C1075 1.250 . S
O1063 Gd1009 2.412 . S
O1063 C1076 1.252 . S
C1064 O1053 1.284 . S
C1064 O1056 1.250 . S
C1065 H1034 0.929 . S
C1065 C1050 1.437 . S
C1065 C1066 1.317 . S
C1066 H1037 0.930 . S
C1066 C1042 1.431 . S
C1066 C1065 1.317 . S
C1067 Gd1008 2.828 1_556 S
C1067 O1052 1.258 1_556 S
C1067 O1057 1.252 . S
C1067 C1068 1.497 . S
C1068 C1067 1.497 . S
C1068 C1069 1.395 . S
C1068 C1070 1.380 . S
C1069 C1068 1.395 . S
C1069 C1072 1.398 . S
C1069 H1084 0.930 . S
C1070 C1068 1.380 . S
C1070 C1071 1.391 . S
C1070 H1085 0.930 . S
C1071 C1070 1.391 . S
C1071 C1073 1.387 . S
C1072 C1069 1.398 . S
C1072 C1073 1.380 . S
C1072 H1086 0.930 . S
C1073 C1071 1.387 . S
C1073 C1072 1.380 . S
C1073 H1087 0.930 . S
C1074 O1054 1.254 . S
C1074 O1055 1.268 . S
C1075 O1059 1.284 . S
C1075 O1062 1.250 . S
C1076 Gd1009 2.828 . S
C1076 O1058 1.258 . S
C1076 O1063 1.252 . S
C1076 C1077 1.497 . S
C1077 C1076 1.497 . S
C1077 C1078 1.395 . S
C1077 C1079 1.380 . S
C1078 C1077 1.395 . S
C1078 C1081 1.398 . S
C1078 H1088 0.930 . S
C1079 C1077 1.380 . S
C1079 C1080 1.391 . S
C1079 H1089 0.930 . S
C1080 C1079 1.391 . S
C1080 C1082 1.387 . S
C1081 C1078 1.398 . S
C1081 C1082 1.380 . S
C1081 H1090 0.930 . S
C1082 C1080 1.387 . S
C1082 C1081 1.380 . S
C1082 H1091 0.930 . S
C1083 O1060 1.254 . S
C1083 O1061 1.268 . S
H1084 C1069 0.930 . S
H1085 C1070 0.930 . S
H1086 C1072 0.930 . S
H1087 C1073 0.930 . S
H1088 C1078 0.930 . S
H1089 C1079 0.930 . S
H1090 C1081 0.930 . S
H1091 C1082 0.930 . S
Gd1092 N1123 2.661 . S
Gd1092 N1129 2.601 . S
Gd1092 O1136 2.545 . S
Gd1092 O1137 2.606 . S
Gd1092 O1139 2.429 . S
Gd1092 O1140 2.545 . S
Gd1092 O1141 2.412 1_554 S
Gd1092 O1143 2.362 . S
Gd1092 O1144 2.324 . S
Gd1092 C1151 2.828 1_554 S
Gd1093 N1102 2.661 . S
Gd1093 N1106 2.601 . S
Gd1093 O1137 2.362 . S
Gd1093 O1138 2.324 . S
Gd1093 O1142 2.545 . S
Gd1093 O1143 2.606 . S
Gd1093 O1145 2.429 . S
Gd1093 O1146 2.545 . S
Gd1093 O1147 2.412 . S
Gd1093 C1160 2.828 . S
C1094 C1097 1.417 . S
C1094 C1099 1.431 . S
C1094 C1100 1.412 . S
C1095 C1098 1.437 . S
C1095 C1099 1.317 . S
C1095 H1114 0.929 . S
C1096 C1097 1.426 . S
C1096 C1098 1.413 . S
C1096 N1106 1.359 . S
C1097 C1094 1.417 . S
C1097 C1096 1.426 . S
C1097 N1102 1.350 . S
C1098 C1095 1.437 . S
C1098 C1096 1.413 . S
C1098 C1108 1.391 . S
C1099 C1094 1.431 . S
C1099 C1095 1.317 . S
C1099 H1110 0.930 1_455 S
C1100 C1094 1.412 . S
C1100 C1101 1.355 . S
C1100 H1112 0.930 1_455 S
C1101 C1100 1.355 . S
C1101 C1103 1.402 . S
C1101 H1113 0.930 . S
N1102 Gd1093 2.661 . S
N1102 C1097 1.350 . S
N1102 C1103 1.307 . S
C1103 C1101 1.402 . S
C1103 N1102 1.307 . S
C1103 H1104 0.930 . S
H1104 C1103 0.930 . S
C1105 N1106 1.334 . S
C1105 C1107 1.394 . S
C1105 H1109 0.930 . S
N1106 Gd1093 2.601 . S
N1106 C1096 1.359 . S
N1106 C1105 1.334 . S
C1107 C1105 1.394 . S
C1107 C1108 1.359 . S
C1107 H1119 0.930 . S
C1108 C1098 1.391 . S
C1108 C1107 1.359 . S
C1108 H1120 0.929 . S
H1109 C1105 0.930 . S
H1110 C1099 0.930 1_655 S
H1111 C1128 0.930 . S
H1112 C1100 0.930 1_655 S
H1113 C1101 0.930 . S
H1114 C1095 0.929 . S
H1115 C1133 0.930 . S
H1116 C1124 0.930 . S
H1117 C1125 0.930 . S
H1118 C1149 0.929 . S
H1119 C1107 0.930 . S
H1120 C1108 0.929 . S
H1121 C1150 0.930 . S
H1122 C1131 0.930 . S
N1123 Gd1092 2.661 . S
N1123 C1127 1.350 . S
N1123 C1128 1.307 . S
C1124 H1116 0.930 . S
C1124 C1125 1.355 . S
C1124 C1126 1.412 . S
C1125 H1117 0.930 . S
C1125 C1124 1.355 . S
C1125 C1128 1.402 . S
C1126 C1124 1.412 . S
C1126 C1127 1.417 . S
C1126 C1150 1.431 . S
C1127 N1123 1.350 . S
C1127 C1126 1.417 . S
C1127 C1130 1.426 . S
C1128 H1111 0.930 . S
C1128 N1123 1.307 . S
C1128 C1125 1.402 . S
N1129 Gd1092 2.601 . S
N1129 C1130 1.359 . S
N1129 C1133 1.334 . S
C1130 C1127 1.426 . S
C1130 N1129 1.359 . S
C1130 C1134 1.413 . S
C1131 H1122 0.930 . S
C1131 C1132 1.359 . S
C1131 C1133 1.394 . S
C1132 C1131 1.359 . S
C1132 C1134 1.391 . S
C1132 H1135 0.929 . S
C1133 H1115 0.930 . S
C1133 N1129 1.334 . S
C1133 C1131 1.394 . S
C1134 C1130 1.413 . S
C1134 C1132 1.391 . S
C1134 C1149 1.437 . S
H1135 C1132 0.929 . S
O1136 Gd1092 2.545 . S
O1136 C1151 1.258 1_554 S
O1137 Gd1092 2.606 . S
O1137 Gd1093 2.362 . S
O1137 C1148 1.284 . S
O1138 Gd1093 2.324 . S
O1138 C1158 1.254 . S
O1139 Gd1092 2.429 . S
O1139 C1158 1.268 . S
O1140 Gd1092 2.545 . S
O1140 C1148 1.250 . S
O1141 Gd1092 2.412 1_556 S
O1141 C1151 1.252 . S
O1142 Gd1093 2.545 . S
O1142 C1160 1.258 . S
O1143 Gd1092 2.362 . S
O1143 Gd1093 2.606 . S
O1143 C1159 1.284 . S
O1144 Gd1092 2.324 . S
O1144 C1167 1.254 . S
O1145 Gd1093 2.429 . S
O1145 C1167 1.268 . S
O1146 Gd1093 2.545 . S
O1146 C1159 1.250 . S
O1147 Gd1093 2.412 . S
O1147 C1160 1.252 . S
C1148 O1137 1.284 . S
C1148 O1140 1.250 . S
C1149 H1118 0.929 . S
C1149 C1134 1.437 . S
C1149 C1150 1.317 . S
C1150 H1121 0.930 . S
C1150 C1126 1.431 . S
C1150 C1149 1.317 . S
C1151 Gd1092 2.828 1_556 S
C1151 O1136 1.258 1_556 S
C1151 O1141 1.252 . S
C1151 C1152 1.497 . S
C1152 C1151 1.497 . S
C1152 C1153 1.395 . S
C1152 C1154 1.380 . S
C1153 C1152 1.395 . S
C1153 C1156 1.398 . S
C1153 H1168 0.930 . S
C1154 C1152 1.380 . S
C1154 C1155 1.391 . S
C1154 H1169 0.930 . S
C1155 C1154 1.391 . S
C1155 C1157 1.387 . S
C1156 C1153 1.398 . S
C1156 C1157 1.380 . S
C1156 H1170 0.930 . S
C1157 C1155 1.387 . S
C1157 C1156 1.380 . S
C1157 H1171 0.930 . S
C1158 O1138 1.254 . S
C1158 O1139 1.268 . S
C1159 O1143 1.284 . S
C1159 O1146 1.250 . S
C1160 Gd1093 2.828 . S
C1160 O1142 1.258 . S
C1160 O1147 1.252 . S
C1160 C1161 1.497 . S
C1161 C1160 1.497 . S
C1161 C1162 1.395 . S
C1161 C1163 1.380 . S
C1162 C1161 1.395 . S
C1162 C1165 1.398 . S
C1162 H1172 0.930 . S
C1163 C1161 1.380 . S
C1163 C1164 1.391 . S
C1163 H1173 0.930 . S
C1164 C1163 1.391 . S
C1164 C1166 1.387 . S
C1165 C1162 1.398 . S
C1165 C1166 1.380 . S
C1165 H1174 0.930 . S
C1166 C1164 1.387 . S
C1166 C1165 1.380 . S
C1166 H1175 0.930 . S
C1167 O1144 1.254 . S
C1167 O1145 1.268 . S
H1168 C1153 0.930 . S
H1169 C1154 0.930 . S
H1170 C1156 0.930 . S
H1171 C1157 0.930 . S
H1172 C1162 0.930 . S
H1173 C1163 0.930 . S
H1174 C1165 0.930 . S
H1175 C1166 0.930 . S
Gd1176 N1207 2.661 . S
Gd1176 N1213 2.601 . S
Gd1176 O1220 2.545 . S
Gd1176 O1221 2.606 . S
Gd1176 O1223 2.429 . S
Gd1176 O1224 2.545 . S
Gd1176 O1225 2.412 1_554 S
Gd1176 O1227 2.362 . S
Gd1176 O1228 2.324 . S
Gd1176 C1235 2.828 1_554 S
Gd1177 N1186 2.661 . S
Gd1177 N1190 2.601 . S
Gd1177 O1221 2.362 . S
Gd1177 O1222 2.324 . S
Gd1177 O1226 2.545 . S
Gd1177 O1227 2.606 . S
Gd1177 O1229 2.429 . S
Gd1177 O1230 2.545 . S
Gd1177 O1231 2.412 . S
Gd1177 C1244 2.828 . S
C1178 C1181 1.417 . S
C1178 C1183 1.431 . S
C1178 C1184 1.412 . S
C1179 C1182 1.437 . S
C1179 C1183 1.317 . S
C1179 H1198 0.929 . S
C1180 C1181 1.426 . S
C1180 C1182 1.413 . S
C1180 N1190 1.359 . S
C1181 C1178 1.417 . S
C1181 C1180 1.426 . S
C1181 N1186 1.350 . S
C1182 C1179 1.437 . S
C1182 C1180 1.413 . S
C1182 C1192 1.391 . S
C1183 C1178 1.431 . S
C1183 C1179 1.317 . S
C1183 H1194 0.930 . S
C1184 C1178 1.412 . S
C1184 C1185 1.355 . S
C1184 H1196 0.930 . S
C1185 C1184 1.355 . S
C1185 C1187 1.402 . S
C1185 H1197 0.930 . S
N1186 Gd1177 2.661 . S
N1186 C1181 1.350 . S
N1186 C1187 1.307 . S
C1187 C1185 1.402 . S
C1187 N1186 1.307 . S
C1187 H1188 0.930 . S
H1188 C1187 0.930 . S
C1189 N1190 1.334 . S
C1189 C1191 1.394 . S
C1189 H1193 0.930 . S
N1190 Gd1177 2.601 . S
N1190 C1180 1.359 . S
N1190 C1189 1.334 . S
C1191 C1189 1.394 . S
C1191 C1192 1.359 . S
C1191 H1203 0.930 . S
C1192 C1182 1.391 . S
C1192 C1191 1.359 . S
C1192 H1204 0.929 . S
H1193 C1189 0.930 . S
H1194 C1183 0.930 . S
H1195 C1212 0.930 . S
H1196 C1184 0.930 . S
H1197 C1185 0.930 . S
H1198 C1179 0.929 . S
H1199 C1217 0.930 . S
H1200 C1208 0.930 . S
H1201 C1209 0.930 . S
H1202 C1233 0.929 . S
H1203 C1191 0.930 . S
H1204 C1192 0.929 . S
H1205 C1234 0.930 . S
H1206 C1215 0.930 . S
N1207 Gd1176 2.661 . S
N1207 C1211 1.350 . S
N1207 C1212 1.307 . S
C1208 H1200 0.930 . S
C1208 C1209 1.355 . S
C1208 C1210 1.412 . S
C1209 H1201 0.930 . S
C1209 C1208 1.355 . S
C1209 C1212 1.402 . S
C1210 C1208 1.412 . S
C1210 C1211 1.417 . S
C1210 C1234 1.431 . S
C1211 N1207 1.350 . S
C1211 C1210 1.417 . S
C1211 C1214 1.426 . S
C1212 H1195 0.930 . S
C1212 N1207 1.307 . S
C1212 C1209 1.402 . S
N1213 Gd1176 2.601 . S
N1213 C1214 1.359 . S
N1213 C1217 1.334 . S
C1214 C1211 1.426 . S
C1214 N1213 1.359 . S
C1214 C1218 1.413 . S
C1215 H1206 0.930 . S
C1215 C1216 1.359 . S
C1215 C1217 1.394 . S
C1216 C1215 1.359 . S
C1216 C1218 1.391 . S
C1216 H1219 0.929 . S
C1217 H1199 0.930 . S
C1217 N1213 1.334 . S
C1217 C1215 1.394 . S
C1218 C1214 1.413 . S
C1218 C1216 1.391 . S
C1218 C1233 1.437 . S
H1219 C1216 0.929 . S
O1220 Gd1176 2.545 . S
O1220 C1235 1.258 1_554 S
O1221 Gd1176 2.606 . S
O1221 Gd1177 2.362 . S
O1221 C1232 1.284 . S
O1222 Gd1177 2.324 . S
O1222 C1242 1.254 . S
O1223 Gd1176 2.429 . S
O1223 C1242 1.268 . S
O1224 Gd1176 2.545 . S
O1224 C1232 1.250 . S
O1225 Gd1176 2.412 1_556 S
O1225 C1235 1.252 . S
O1226 Gd1177 2.545 . S
O1226 C1244 1.258 . S
O1227 Gd1176 2.362 . S
O1227 Gd1177 2.606 . S
O1227 C1243 1.284 . S
O1228 Gd1176 2.324 . S
O1228 C1251 1.254 . S
O1229 Gd1177 2.429 . S
O1229 C1251 1.268 . S
O1230 Gd1177 2.545 . S
O1230 C1243 1.250 . S
O1231 Gd1177 2.412 . S
O1231 C1244 1.252 . S
C1232 O1221 1.284 . S
C1232 O1224 1.250 . S
C1233 H1202 0.929 . S
C1233 C1218 1.437 . S
C1233 C1234 1.317 . S
C1234 H1205 0.930 . S
C1234 C1210 1.431 . S
C1234 C1233 1.317 . S
C1235 Gd1176 2.828 1_556 S
C1235 O1220 1.258 1_556 S
C1235 O1225 1.252 . S
C1235 C1236 1.497 . S
C1236 C1235 1.497 . S
C1236 C1237 1.395 . S
C1236 C1238 1.380 . S
C1237 C1236 1.395 . S
C1237 C1240 1.398 . S
C1237 H1252 0.930 . S
C1238 C1236 1.380 . S
C1238 C1239 1.391 . S
C1238 H1253 0.930 . S
C1239 C1238 1.391 . S
C1239 C1241 1.387 . S
C1240 C1237 1.398 . S
C1240 C1241 1.380 . S
C1240 H1254 0.930 . S
C1241 C1239 1.387 . S
C1241 C1240 1.380 . S
C1241 H1255 0.930 . S
C1242 O1222 1.254 . S
C1242 O1223 1.268 . S
C1243 O1227 1.284 . S
C1243 O1230 1.250 . S
C1244 Gd1177 2.828 . S
C1244 O1226 1.258 . S
C1244 O1231 1.252 . S
C1244 C1245 1.497 . S
C1245 C1244 1.497 . S
C1245 C1246 1.395 . S
C1245 C1247 1.380 . S
C1246 C1245 1.395 . S
C1246 C1249 1.398 . S
C1246 H1256 0.930 . S
C1247 C1245 1.380 . S
C1247 C1248 1.391 . S
C1247 H1257 0.930 . S
C1248 C1247 1.391 . S
C1248 C1250 1.387 . S
C1249 C1246 1.398 . S
C1249 C1250 1.380 . S
C1249 H1258 0.930 . S
C1250 C1248 1.387 . S
C1250 C1249 1.380 . S
C1250 H1259 0.930 . S
C1251 O1228 1.254 . S
C1251 O1229 1.268 . S
H1252 C1237 0.930 . S
H1253 C1238 0.930 . S
H1254 C1240 0.930 . S
H1255 C1241 0.930 . S
H1256 C1246 0.930 . S
H1257 C1247 0.930 . S
H1258 C1249 0.930 . S
H1259 C1250 0.930 . S
Gd1260 N1291 2.661 . S
Gd1260 N1297 2.601 . S
Gd1260 O1304 2.545 . S
Gd1260 O1305 2.606 . S
Gd1260 O1307 2.429 . S
Gd1260 O1308 2.545 . S
Gd1260 O1309 2.412 . S
Gd1260 O1311 2.362 . S
Gd1260 O1312 2.324 . S
Gd1260 C1319 2.828 1_554 S
Gd1261 N1270 2.661 . S
Gd1261 N1274 2.601 . S
Gd1261 O1305 2.362 . S
Gd1261 O1306 2.324 . S
Gd1261 O1310 2.545 . S
Gd1261 O1311 2.606 . S
Gd1261 O1313 2.429 . S
Gd1261 O1314 2.545 . S
Gd1261 O1315 2.412 . S
Gd1261 C1328 2.828 . S
C1262 C1265 1.417 . S
C1262 C1267 1.431 . S
C1262 C1268 1.412 . S
C1263 C1266 1.437 . S
C1263 C1267 1.317 . S
C1263 H1282 0.929 . S
C1264 C1265 1.426 . S
C1264 C1266 1.413 . S
C1264 N1274 1.359 . S
C1265 C1262 1.417 . S
C1265 C1264 1.426 . S
C1265 N1270 1.350 . S
C1266 C1263 1.437 . S
C1266 C1264 1.413 . S
C1266 C1276 1.391 . S
C1267 C1262 1.431 . S
C1267 C1263 1.317 . S
C1267 H1278 0.930 . S
C1268 C1262 1.412 . S
C1268 C1269 1.355 . S
C1268 H1280 0.930 . S
C1269 C1268 1.355 . S
C1269 C1271 1.402 . S
C1269 H1281 0.930 . S
N1270 Gd1261 2.661 . S
N1270 C1265 1.350 . S
N1270 C1271 1.307 . S
C1271 C1269 1.402 . S
C1271 N1270 1.307 . S
C1271 H1272 0.930 . S
H1272 C1271 0.930 . S
C1273 N1274 1.334 . S
C1273 C1275 1.394 . S
C1273 H1277 0.930 . S
N1274 Gd1261 2.601 . S
N1274 C1264 1.359 . S
N1274 C1273 1.334 . S
C1275 C1273 1.394 . S
C1275 C1276 1.359 . S
C1275 H1287 0.930 . S
C1276 C1266 1.391 . S
C1276 C1275 1.359 . S
C1276 H1288 0.929 . S
H1277 C1273 0.930 . S
H1278 C1267 0.930 . S
H1279 C1296 0.930 . S
H1280 C1268 0.930 . S
H1281 C1269 0.930 . S
H1282 C1263 0.929 . S
H1283 C1301 0.930 . S
H1284 C1292 0.930 . S
H1285 C1293 0.930 . S
H1286 C1317 0.929 . S
H1287 C1275 0.930 . S
H1288 C1276 0.929 . S
H1289 C1318 0.930 . S
H1290 C1299 0.930 . S
N1291 Gd1260 2.661 . S
N1291 C1295 1.350 . S
N1291 C1296 1.307 . S
C1292 H1284 0.930 . S
C1292 C1293 1.355 . S
C1292 C1294 1.412 . S
C1293 H1285 0.930 . S
C1293 C1292 1.355 . S
C1293 C1296 1.402 . S
C1294 C1292 1.412 . S
C1294 C1295 1.417 . S
C1294 C1318 1.431 . S
C1295 N1291 1.350 . S
C1295 C1294 1.417 . S
C1295 C1298 1.426 . S
C1296 H1279 0.930 . S
C1296 N1291 1.307 . S
C1296 C1293 1.402 . S
N1297 Gd1260 2.601 . S
N1297 C1298 1.359 . S
N1297 C1301 1.334 . S
C1298 C1295 1.426 . S
C1298 N1297 1.359 . S
C1298 C1302 1.413 . S
C1299 H1290 0.930 . S
C1299 C1300 1.359 . S
C1299 C1301 1.394 . S
C1300 C1299 1.359 . S
C1300 C1302 1.391 . S
C1300 H1303 0.929 . S
C1301 H1283 0.930 . S
C1301 N1297 1.334 . S
C1301 C1299 1.394 . S
C1302 C1298 1.413 . S
C1302 C1300 1.391 . S
C1302 C1317 1.437 . S
H1303 C1300 0.929 . S
O1304 Gd1260 2.545 . S
O1304 C1319 1.258 1_554 S
O1305 Gd1260 2.606 . S
O1305 Gd1261 2.362 . S
O1305 C1316 1.284 . S
O1306 Gd1261 2.324 . S
O1306 C1326 1.254 . S
O1307 Gd1260 2.429 . S
O1307 C1326 1.268 . S
O1308 Gd1260 2.545 . S
O1308 C1316 1.250 . S
O1309 Gd1260 2.412 . S
O1309 C1319 1.252 1_554 S
O1310 Gd1261 2.545 . S
O1310 C1328 1.258 . S
O1311 Gd1260 2.362 . S
O1311 Gd1261 2.606 . S
O1311 C1327 1.284 . S
O1312 Gd1260 2.324 . S
O1312 C1335 1.254 . S
O1313 Gd1261 2.429 . S
O1313 C1335 1.268 . S
O1314 Gd1261 2.545 . S
O1314 C1327 1.250 . S
O1315 Gd1261 2.412 . S
O1315 C1328 1.252 . S
C1316 O1305 1.284 . S
C1316 O1308 1.250 . S
C1317 H1286 0.929 . S
C1317 C1302 1.437 . S
C1317 C1318 1.317 . S
C1318 H1289 0.930 . S
C1318 C1294 1.431 . S
C1318 C1317 1.317 . S
C1319 Gd1260 2.828 1_556 S
C1319 O1304 1.258 1_556 S
C1319 O1309 1.252 1_556 S
C1319 C1320 1.497 . S
C1320 C1319 1.497 . S
C1320 C1321 1.395 . S
C1320 C1322 1.380 . S
C1321 C1320 1.395 . S
C1321 C1324 1.398 . S
C1321 H1336 0.930 . S
C1322 C1320 1.380 . S
C1322 C1323 1.391 . S
C1322 H1337 0.930 . S
C1323 C1322 1.391 . S
C1323 C1325 1.387 . S
C1324 C1321 1.398 . S
C1324 C1325 1.380 . S
C1324 H1338 0.930 . S
C1325 C1323 1.387 . S
C1325 C1324 1.380 . S
C1325 H1339 0.930 . S
C1326 O1306 1.254 . S
C1326 O1307 1.268 . S
C1327 O1311 1.284 . S
C1327 O1314 1.250 . S
C1328 Gd1261 2.828 . S
C1328 O1310 1.258 . S
C1328 O1315 1.252 . S
C1328 C1329 1.497 . S
C1329 C1328 1.497 . S
C1329 C1330 1.395 . S
C1329 C1331 1.380 . S
C1330 C1329 1.395 . S
C1330 C1333 1.398 . S
C1330 H1340 0.930 . S
C1331 C1329 1.380 . S
C1331 C1332 1.391 . S
C1331 H1341 0.930 . S
C1332 C1331 1.391 . S
C1332 C1334 1.387 . S
C1333 C1330 1.398 . S
C1333 C1334 1.380 . S
C1333 H1342 0.930 . S
C1334 C1332 1.387 . S
C1334 C1333 1.380 . S
C1334 H1343 0.930 . S
C1335 O1312 1.254 . S
C1335 O1313 1.268 . S
H1336 C1321 0.930 . S
H1337 C1322 0.930 . S
H1338 C1324 0.930 . S
H1339 C1325 0.930 . S
H1340 C1330 0.930 . S
H1341 C1331 0.930 . S
H1342 C1333 0.930 . S
H1343 C1334 0.930 . S
Gd1344 N1375 2.661 . S
Gd1344 N1381 2.601 . S
Gd1344 O1388 2.545 . S
Gd1344 O1389 2.606 . S
Gd1344 O1391 2.429 . S
Gd1344 O1392 2.545 . S
Gd1344 O1393 2.412 . S
Gd1344 O1395 2.362 . S
Gd1344 O1396 2.324 . S
Gd1344 C1403 2.828 1_554 S
Gd1345 N1354 2.661 . S
Gd1345 N1358 2.601 . S
Gd1345 O1389 2.362 . S
Gd1345 O1390 2.324 . S
Gd1345 O1394 2.545 . S
Gd1345 O1395 2.606 . S
Gd1345 O1397 2.429 . S
Gd1345 O1398 2.545 . S
Gd1345 O1399 2.412 . S
Gd1345 C1412 2.828 . S
C1346 C1349 1.417 . S
C1346 C1351 1.431 . S
C1346 C1352 1.412 . S
C1347 C1350 1.437 . S
C1347 C1351 1.317 . S
C1347 H1366 0.929 . S
C1348 C1349 1.426 . S
C1348 C1350 1.413 . S
C1348 N1358 1.359 . S
C1349 C1346 1.417 . S
C1349 C1348 1.426 . S
C1349 N1354 1.350 . S
C1350 C1347 1.437 . S
C1350 C1348 1.413 . S
C1350 C1360 1.391 . S
C1351 C1346 1.431 . S
C1351 C1347 1.317 . S
C1351 H1362 0.930 . S
C1352 C1346 1.412 . S
C1352 C1353 1.355 . S
C1352 H1364 0.930 . S
C1353 C1352 1.355 . S
C1353 C1355 1.402 . S
C1353 H1365 0.930 . S
N1354 Gd1345 2.661 . S
N1354 C1349 1.350 . S
N1354 C1355 1.307 . S
C1355 C1353 1.402 . S
C1355 N1354 1.307 . S
C1355 H1356 0.930 . S
H1356 C1355 0.930 . S
C1357 N1358 1.334 . S
C1357 C1359 1.394 . S
C1357 H1361 0.930 . S
N1358 Gd1345 2.601 . S
N1358 C1348 1.359 . S
N1358 C1357 1.334 . S
C1359 C1357 1.394 . S
C1359 C1360 1.359 . S
C1359 H1371 0.930 . S
C1360 C1350 1.391 . S
C1360 C1359 1.359 . S
C1360 H1372 0.929 . S
H1361 C1357 0.930 . S
H1362 C1351 0.930 . S
H1363 C1380 0.930 . S
H1364 C1352 0.930 . S
H1365 C1353 0.930 . S
H1366 C1347 0.929 . S
H1367 C1385 0.930 . S
H1368 C1376 0.930 . S
H1369 C1377 0.930 . S
H1370 C1401 0.929 . S
H1371 C1359 0.930 . S
H1372 C1360 0.929 . S
H1373 C1402 0.930 . S
H1374 C1383 0.930 . S
N1375 Gd1344 2.661 . S
N1375 C1379 1.350 . S
N1375 C1380 1.307 . S
C1376 H1368 0.930 . S
C1376 C1377 1.355 . S
C1376 C1378 1.412 . S
C1377 H1369 0.930 . S
C1377 C1376 1.355 . S
C1377 C1380 1.402 . S
C1378 C1376 1.412 . S
C1378 C1379 1.417 . S
C1378 C1402 1.431 . S
C1379 N1375 1.350 . S
C1379 C1378 1.417 . S
C1379 C1382 1.426 . S
C1380 H1363 0.930 . S
C1380 N1375 1.307 . S
C1380 C1377 1.402 . S
N1381 Gd1344 2.601 . S
N1381 C1382 1.359 . S
N1381 C1385 1.334 . S
C1382 C1379 1.426 . S
C1382 N1381 1.359 . S
C1382 C1386 1.413 . S
C1383 H1374 0.930 . S
C1383 C1384 1.359 . S
C1383 C1385 1.394 . S
C1384 C1383 1.359 . S
C1384 C1386 1.391 . S
C1384 H1387 0.929 . S
C1385 H1367 0.930 . S
C1385 N1381 1.334 . S
C1385 C1383 1.394 . S
C1386 C1382 1.413 . S
C1386 C1384 1.391 . S
C1386 C1401 1.437 . S
H1387 C1384 0.929 . S
O1388 Gd1344 2.545 . S
O1388 C1403 1.258 1_554 S
O1389 Gd1344 2.606 . S
O1389 Gd1345 2.362 . S
O1389 C1400 1.284 . S
O1390 Gd1345 2.324 . S
O1390 C1410 1.254 . S
O1391 Gd1344 2.429 . S
O1391 C1410 1.268 . S
O1392 Gd1344 2.545 . S
O1392 C1400 1.250 . S
O1393 Gd1344 2.412 . S
O1393 C1403 1.252 1_554 S
O1394 Gd1345 2.545 . S
O1394 C1412 1.258 . S
O1395 Gd1344 2.362 . S
O1395 Gd1345 2.606 . S
O1395 C1411 1.284 . S
O1396 Gd1344 2.324 . S
O1396 C1419 1.254 . S
O1397 Gd1345 2.429 . S
O1397 C1419 1.268 . S
O1398 Gd1345 2.545 . S
O1398 C1411 1.250 . S
O1399 Gd1345 2.412 . S
O1399 C1412 1.252 . S
C1400 O1389 1.284 . S
C1400 O1392 1.250 . S
C1401 H1370 0.929 . S
C1401 C1386 1.437 . S
C1401 C1402 1.317 . S
C1402 H1373 0.930 . S
C1402 C1378 1.431 . S
C1402 C1401 1.317 . S
C1403 Gd1344 2.828 1_556 S
C1403 O1388 1.258 1_556 S
C1403 O1393 1.252 1_556 S
C1403 C1404 1.497 . S
C1404 C1403 1.497 . S
C1404 C1405 1.395 . S
C1404 C1406 1.380 . S
C1405 C1404 1.395 . S
C1405 C1408 1.398 . S
C1405 H1420 0.930 . S
C1406 C1404 1.380 . S
C1406 C1407 1.391 . S
C1406 H1421 0.930 . S
C1407 C1406 1.391 . S
C1407 C1409 1.387 . S
C1408 C1405 1.398 . S
C1408 C1409 1.380 . S
C1408 H1422 0.930 . S
C1409 C1407 1.387 . S
C1409 C1408 1.380 . S
C1409 H1423 0.930 . S
C1410 O1390 1.254 . S
C1410 O1391 1.268 . S
C1411 O1395 1.284 . S
C1411 O1398 1.250 . S
C1412 Gd1345 2.828 . S
C1412 O1394 1.258 . S
C1412 O1399 1.252 . S
C1412 C1413 1.497 . S
C1413 C1412 1.497 . S
C1413 C1414 1.395 . S
C1413 C1415 1.380 . S
C1414 C1413 1.395 . S
C1414 C1417 1.398 . S
C1414 H1424 0.930 . S
C1415 C1413 1.380 . S
C1415 C1416 1.391 . S
C1415 H1425 0.930 . S
C1416 C1415 1.391 . S
C1416 C1418 1.387 . S
C1417 C1414 1.398 . S
C1417 C1418 1.380 . S
C1417 H1426 0.930 . S
C1418 C1416 1.387 . S
C1418 C1417 1.380 . S
C1418 H1427 0.930 . S
C1419 O1396 1.254 . S
C1419 O1397 1.268 . S
H1420 C1405 0.930 . S
H1421 C1406 0.930 . S
H1422 C1408 0.930 . S
H1423 C1409 0.930 . S
H1424 C1414 0.930 . S
H1425 C1415 0.930 . S
H1426 C1417 0.930 . S
H1427 C1418 0.930 . S
Gd1428 N1459 2.661 . S
Gd1428 N1465 2.601 . S
Gd1428 O1472 2.545 . S
Gd1428 O1473 2.606 . S
Gd1428 O1475 2.429 . S
Gd1428 O1476 2.545 . S
Gd1428 O1477 2.412 . S
Gd1428 O1479 2.362 . S
Gd1428 O1480 2.324 . S
Gd1428 C1487 2.828 1_554 S
Gd1429 N1438 2.661 . S
Gd1429 N1442 2.601 . S
Gd1429 O1473 2.362 . S
Gd1429 O1474 2.324 . S
Gd1429 O1478 2.545 . S
Gd1429 O1479 2.606 . S
Gd1429 O1481 2.429 . S
Gd1429 O1482 2.545 . S
Gd1429 O1483 2.412 . S
Gd1429 C1496 2.828 . S
C1430 C1433 1.417 . S
C1430 C1435 1.431 . S
C1430 C1436 1.412 . S
C1431 C1434 1.437 . S
C1431 C1435 1.317 . S
C1431 H1450 0.929 . S
C1432 C1433 1.426 . S
C1432 C1434 1.413 . S
C1432 N1442 1.359 . S
C1433 C1430 1.417 . S
C1433 C1432 1.426 . S
C1433 N1438 1.350 . S
C1434 C1431 1.437 . S
C1434 C1432 1.413 . S
C1434 C1444 1.391 . S
C1435 C1430 1.431 . S
C1435 C1431 1.317 . S
C1435 H1446 0.930 . S
C1436 C1430 1.412 . S
C1436 C1437 1.355 . S
C1436 H1448 0.930 . S
C1437 C1436 1.355 . S
C1437 C1439 1.402 . S
C1437 H1449 0.930 . S
N1438 Gd1429 2.661 . S
N1438 C1433 1.350 . S
N1438 C1439 1.307 . S
C1439 C1437 1.402 . S
C1439 N1438 1.307 . S
C1439 H1440 0.930 . S
H1440 C1439 0.930 . S
C1441 N1442 1.334 . S
C1441 C1443 1.394 . S
C1441 H1445 0.930 . S
N1442 Gd1429 2.601 . S
N1442 C1432 1.359 . S
N1442 C1441 1.334 . S
C1443 C1441 1.394 . S
C1443 C1444 1.359 . S
C1443 H1455 0.930 . S
C1444 C1434 1.391 . S
C1444 C1443 1.359 . S
C1444 H1456 0.929 . S
H1445 C1441 0.930 . S
H1446 C1435 0.930 . S
H1447 C1464 0.930 . S
H1448 C1436 0.930 . S
H1449 C1437 0.930 . S
H1450 C1431 0.929 . S
H1451 C1469 0.930 . S
H1452 C1460 0.930 . S
H1453 C1461 0.930 . S
H1454 C1485 0.929 . S
H1455 C1443 0.930 . S
H1456 C1444 0.929 . S
H1457 C1486 0.930 . S
H1458 C1467 0.930 . S
N1459 Gd1428 2.661 . S
N1459 C1463 1.350 . S
N1459 C1464 1.307 . S
C1460 H1452 0.930 . S
C1460 C1461 1.355 . S
C1460 C1462 1.412 . S
C1461 H1453 0.930 . S
C1461 C1460 1.355 . S
C1461 C1464 1.402 . S
C1462 C1460 1.412 . S
C1462 C1463 1.417 . S
C1462 C1486 1.431 . S
C1463 N1459 1.350 . S
C1463 C1462 1.417 . S
C1463 C1466 1.426 . S
C1464 H1447 0.930 . S
C1464 N1459 1.307 . S
C1464 C1461 1.402 . S
N1465 Gd1428 2.601 . S
N1465 C1466 1.359 . S
N1465 C1469 1.334 . S
C1466 C1463 1.426 . S
C1466 N1465 1.359 . S
C1466 C1470 1.413 . S
C1467 H1458 0.930 . S
C1467 C1468 1.359 . S
C1467 C1469 1.394 . S
C1468 C1467 1.359 . S
C1468 C1470 1.391 . S
C1468 H1471 0.929 . S
C1469 H1451 0.930 . S
C1469 N1465 1.334 . S
C1469 C1467 1.394 . S
C1470 C1466 1.413 . S
C1470 C1468 1.391 . S
C1470 C1485 1.437 . S
H1471 C1468 0.929 . S
O1472 Gd1428 2.545 . S
O1472 C1487 1.258 1_554 S
O1473 Gd1428 2.606 . S
O1473 Gd1429 2.362 . S
O1473 C1484 1.284 . S
O1474 Gd1429 2.324 . S
O1474 C1494 1.254 . S
O1475 Gd1428 2.429 . S
O1475 C1494 1.268 . S
O1476 Gd1428 2.545 . S
O1476 C1484 1.250 . S
O1477 Gd1428 2.412 . S
O1477 C1487 1.252 1_554 S
O1478 Gd1429 2.545 . S
O1478 C1496 1.258 . S
O1479 Gd1428 2.362 . S
O1479 Gd1429 2.606 . S
O1479 C1495 1.284 . S
O1480 Gd1428 2.324 . S
O1480 C1503 1.254 . S
O1481 Gd1429 2.429 . S
O1481 C1503 1.268 . S
O1482 Gd1429 2.545 . S
O1482 C1495 1.250 . S
O1483 Gd1429 2.412 . S
O1483 C1496 1.252 . S
C1484 O1473 1.284 . S
C1484 O1476 1.250 . S
C1485 H1454 0.929 . S
C1485 C1470 1.437 . S
C1485 C1486 1.317 . S
C1486 H1457 0.930 . S
C1486 C1462 1.431 . S
C1486 C1485 1.317 . S
C1487 Gd1428 2.828 1_556 S
C1487 O1472 1.258 1_556 S
C1487 O1477 1.252 1_556 S
C1487 C1488 1.497 . S
C1488 C1487 1.497 . S
C1488 C1489 1.395 . S
C1488 C1490 1.380 . S
C1489 C1488 1.395 . S
C1489 C1492 1.398 . S
C1489 H1504 0.930 . S
C1490 C1488 1.380 . S
C1490 C1491 1.391 . S
C1490 H1505 0.930 . S
C1491 C1490 1.391 . S
C1491 C1493 1.387 . S
C1492 C1489 1.398 . S
C1492 C1493 1.380 . S
C1492 H1506 0.930 . S
C1493 C1491 1.387 . S
C1493 C1492 1.380 . S
C1493 H1507 0.930 . S
C1494 O1474 1.254 . S
C1494 O1475 1.268 . S
C1495 O1479 1.284 . S
C1495 O1482 1.250 . S
C1496 Gd1429 2.828 . S
C1496 O1478 1.258 . S
C1496 O1483 1.252 . S
C1496 C1497 1.497 . S
C1497 C1496 1.497 . S
C1497 C1498 1.395 . S
C1497 C1499 1.380 . S
C1498 C1497 1.395 . S
C1498 C1501 1.398 . S
C1498 H1508 0.930 . S
C1499 C1497 1.380 . S
C1499 C1500 1.391 . S
C1499 H1509 0.930 . S
C1500 C1499 1.391 . S
C1500 C1502 1.387 . S
C1501 C1498 1.398 . S
C1501 C1502 1.380 . S
C1501 H1510 0.930 . S
C1502 C1500 1.387 . S
C1502 C1501 1.380 . S
C1502 H1511 0.930 . S
C1503 O1480 1.254 . S
C1503 O1481 1.268 . S
H1504 C1489 0.930 . S
H1505 C1490 0.930 . S
H1506 C1492 0.930 . S
H1507 C1493 0.930 . S
H1508 C1498 0.930 . S
H1509 C1499 0.930 . S
H1510 C1501 0.930 . S
H1511 C1502 0.930 . S
H1512 C1518 0.930 . S
H1513 C1522 0.930 . S
H1514 C1527 0.929 . S
H1515 C1525 0.929 . S
H1516 C1520 0.929 . S
H1517 C1526 0.929 . S
C1518 H1512 0.930 . S
C1518 C1519 1.367 . S
C1518 C1526 1.378 . S
C1519 C1518 1.367 . S
C1519 C1527 1.433 . S
C1520 H1516 0.929 . S
C1520 C1522 1.378 . S
C1520 C1524 1.350 . S
C1521 C1524 1.463 . S
C1521 C1526 1.350 . S
C1521 N1529 1.427 . S
C1522 H1513 0.930 . S
C1522 C1520 1.378 . S
C1522 C1523 1.367 . S
C1523 C1522 1.367 . S
C1523 C1525 1.433 . S
C1524 C1520 1.350 . S
C1524 C1521 1.463 . S
C1524 N1528 1.427 . S
C1525 H1515 0.929 . S
C1525 C1523 1.433 . S
C1525 N1528 1.384 . S
C1526 H1517 0.929 . S
C1526 C1518 1.378 . S
C1526 C1521 1.350 . S
C1527 H1514 0.929 . S
C1527 C1519 1.433 . S
C1527 N1529 1.384 . S
N1528 C1524 1.427 . S
N1528 C1525 1.384 . S
N1529 C1521 1.427 . S
N1529 C1527 1.384 . S
H1530 C1536 0.930 . S
H1531 C1540 0.930 . S
H1532 C1545 0.929 . S
H1533 C1543 0.929 . S
H1534 C1538 0.929 . S
H1535 C1544 0.929 . S
C1536 H1530 0.930 . S
C1536 C1537 1.367 . S
C1536 C1544 1.378 . S
C1537 C1536 1.367 . S
C1537 C1545 1.433 . S
C1538 H1534 0.929 . S
C1538 C1540 1.378 . S
C1538 C1542 1.350 . S
C1539 C1542 1.463 . S
C1539 C1544 1.350 . S
C1539 N1547 1.427 . S
C1540 H1531 0.930 . S
C1540 C1538 1.378 . S
C1540 C1541 1.367 . S
C1541 C1540 1.367 . S
C1541 C1543 1.433 . S
C1542 C1538 1.350 . S
C1542 C1539 1.463 . S
C1542 N1546 1.427 . S
C1543 H1533 0.929 . S
C1543 C1541 1.433 . S
C1543 N1546 1.384 . S
C1544 H1535 0.929 . S
C1544 C1536 1.378 . S
C1544 C1539 1.350 . S
C1545 H1532 0.929 . S
C1545 C1537 1.433 . S
C1545 N1547 1.384 . S
N1546 C1542 1.427 . S
N1546 C1543 1.384 . S
N1547 C1539 1.427 . S
N1547 C1545 1.384 . S
H1548 C1554 0.930 . S
H1549 C1558 0.930 . S
H1550 C1563 0.929 . S
H1551 C1561 0.929 . S
H1552 C1556 0.929 . S
H1553 C1562 0.929 . S
C1554 H1548 0.930 . S
C1554 C1555 1.367 . S
C1554 C1562 1.378 . S
C1555 C1554 1.367 . S
C1555 C1563 1.433 . S
C1556 H1552 0.929 . S
C1556 C1558 1.378 . S
C1556 C1560 1.350 . S
C1557 C1560 1.463 . S
C1557 C1562 1.350 . S
C1557 N1565 1.427 . S
C1558 H1549 0.930 . S
C1558 C1556 1.378 . S
C1558 C1559 1.367 . S
C1559 C1558 1.367 . S
C1559 C1561 1.433 . S
C1560 C1556 1.350 . S
C1560 C1557 1.463 . S
C1560 N1564 1.427 . S
C1561 H1551 0.929 . S
C1561 C1559 1.433 . S
C1561 N1564 1.384 . S
C1562 H1553 0.929 . S
C1562 C1554 1.378 . S
C1562 C1557 1.350 . S
C1563 H1550 0.929 . S
C1563 C1555 1.433 . S
C1563 N1565 1.384 . S
N1564 C1560 1.427 . S
N1564 C1561 1.384 . S
N1565 C1557 1.427 . S
N1565 C1563 1.384 . S
H1566 C1572 0.930 . S
H1567 C1576 0.930 . S
H1568 C1581 0.929 . S
H1569 C1579 0.929 . S
H1570 C1574 0.929 . S
H1571 C1580 0.929 . S
C1572 H1566 0.930 . S
C1572 C1573 1.367 . S
C1572 C1580 1.378 . S
C1573 C1572 1.367 . S
C1573 C1581 1.433 . S
C1574 H1570 0.929 . S
C1574 C1576 1.378 . S
C1574 C1578 1.350 . S
C1575 C1578 1.463 . S
C1575 C1580 1.350 . S
C1575 N1583 1.427 . S
C1576 H1567 0.930 . S
C1576 C1574 1.378 . S
C1576 C1577 1.367 . S
C1577 C1576 1.367 . S
C1577 C1579 1.433 . S
C1578 C1574 1.350 . S
C1578 C1575 1.463 . S
C1578 N1582 1.427 . S
C1579 H1569 0.929 . S
C1579 C1577 1.433 . S
C1579 N1582 1.384 . S
C1580 H1571 0.929 . S
C1580 C1572 1.378 . S
C1580 C1575 1.350 . S
C1581 H1568 0.929 . S
C1581 C1573 1.433 . S
C1581 N1583 1.384 . S
N1582 C1578 1.427 . S
N1582 C1579 1.384 . S
N1583 C1575 1.427 . S
N1583 C1581 1.384 . S
H1584 C1590 0.930 . S
H1585 C1594 0.930 . S
H1586 C1599 0.929 . S
H1587 C1597 0.929 . S
H1588 C1592 0.929 . S
H1589 C1598 0.929 . S
C1590 H1584 0.930 . S
C1590 C1591 1.367 . S
C1590 C1598 1.378 . S
C1591 C1590 1.367 . S
C1591 C1599 1.433 . S
C1592 H1588 0.929 . S
C1592 C1594 1.378 . S
C1592 C1596 1.350 . S
C1593 C1596 1.463 . S
C1593 C1598 1.350 . S
C1593 N1601 1.427 . S
C1594 H1585 0.930 . S
C1594 C1592 1.378 . S
C1594 C1595 1.367 . S
C1595 C1594 1.367 . S
C1595 C1597 1.433 . S
C1596 C1592 1.350 . S
C1596 C1593 1.463 . S
C1596 N1600 1.427 . S
C1597 H1587 0.929 . S
C1597 C1595 1.433 . S
C1597 N1600 1.384 . S
C1598 H1589 0.929 . S
C1598 C1590 1.378 . S
C1598 C1593 1.350 . S
C1599 H1586 0.929 . S
C1599 C1591 1.433 . S
C1599 N1601 1.384 . S
N1600 C1596 1.427 . S
N1600 C1597 1.384 . S
N1601 C1593 1.427 . S
N1601 C1599 1.384 . S
H1602 C1608 0.930 . S
H1603 C1612 0.930 . S
H1604 C1617 0.929 . S
H1605 C1615 0.929 . S
H1606 C1610 0.929 . S
H1607 C1616 0.929 . S
C1608 H1602 0.930 . S
C1608 C1609 1.367 . S
C1608 C1616 1.378 . S
C1609 C1608 1.367 . S
C1609 C1617 1.433 . S
C1610 H1606 0.929 . S
C1610 C1612 1.378 . S
C1610 C1614 1.350 . S
C1611 C1614 1.463 . S
C1611 C1616 1.350 . S
C1611 N1619 1.427 . S
C1612 H1603 0.930 . S
C1612 C1610 1.378 . S
C1612 C1613 1.367 . S
C1613 C1612 1.367 . S
C1613 C1615 1.433 . S
C1614 C1610 1.350 . S
C1614 C1611 1.463 . S
C1614 N1618 1.427 . S
C1615 H1605 0.929 . S
C1615 C1613 1.433 . S
C1615 N1618 1.384 . S
C1616 H1607 0.929 . S
C1616 C1608 1.378 . S
C1616 C1611 1.350 . S
C1617 H1604 0.929 . S
C1617 C1609 1.433 . S
C1617 N1619 1.384 . S
N1618 C1614 1.427 . S
N1618 C1615 1.384 . S
N1619 C1611 1.427 . S
N1619 C1617 1.384 . S
H1620 C1626 0.930 . S
H1621 C1630 0.930 . S
H1622 C1635 0.929 . S
H1623 C1633 0.929 . S
H1624 C1628 0.929 . S
H1625 C1634 0.929 . S
C1626 H1620 0.930 . S
C1626 C1627 1.367 . S
C1626 C1634 1.378 . S
C1627 C1626 1.367 . S
C1627 C1635 1.433 . S
C1628 H1624 0.929 . S
C1628 C1630 1.378 . S
C1628 C1632 1.350 . S
C1629 C1632 1.463 . S
C1629 C1634 1.350 . S
C1629 N1637 1.427 . S
C1630 H1621 0.930 . S
C1630 C1628 1.378 . S
C1630 C1631 1.367 . S
C1631 C1630 1.367 . S
C1631 C1633 1.433 . S
C1632 C1628 1.350 . S
C1632 C1629 1.463 . S
C1632 N1636 1.427 . S
C1633 H1623 0.929 . S
C1633 C1631 1.433 . S
C1633 N1636 1.384 . S
C1634 H1625 0.929 . S
C1634 C1626 1.378 . S
C1634 C1629 1.350 . S
C1635 H1622 0.929 . S
C1635 C1627 1.433 . S
C1635 N1637 1.384 . S
N1636 C1632 1.427 . S
N1636 C1633 1.384 . S
N1637 C1629 1.427 . S
N1637 C1635 1.384 . S
H1638 C1644 0.930 . S
H1639 C1648 0.930 . S
H1640 C1653 0.929 . S
H1641 C1651 0.929 . S
H1642 C1646 0.929 . S
H1643 C1652 0.929 . S
C1644 H1638 0.930 . S
C1644 C1645 1.367 . S
C1644 C1652 1.378 . S
C1645 C1644 1.367 . S
C1645 C1653 1.433 . S
C1646 H1642 0.929 . S
C1646 C1648 1.378 . S
C1646 C1650 1.350 . S
C1647 C1650 1.463 . S
C1647 C1652 1.350 . S
C1647 N1655 1.427 . S
C1648 H1639 0.930 . S
C1648 C1646 1.378 . S
C1648 C1649 1.367 . S
C1649 C1648 1.367 . S
C1649 C1651 1.433 . S
C1650 C1646 1.350 . S
C1650 C1647 1.463 . S
C1650 N1654 1.427 . S
C1651 H1641 0.929 . S
C1651 C1649 1.433 . S
C1651 N1654 1.384 . S
C1652 H1643 0.929 . S
C1652 C1644 1.378 . S
C1652 C1647 1.350 . S
C1653 H1640 0.929 . S
C1653 C1645 1.433 . S
C1653 N1655 1.384 . S
N1654 C1650 1.427 . S
N1654 C1651 1.384 . S
N1655 C1647 1.427 . S
N1655 C1653 1.384 . S
H1656 C1662 0.930 . S
H1657 C1666 0.930 . S
H1658 C1671 0.929 . S
H1659 C1669 0.929 . S
H1660 C1664 0.929 . S
H1661 C1670 0.929 . S
C1662 H1656 0.930 . S
C1662 C1663 1.367 . S
C1662 C1670 1.378 . S
C1663 C1662 1.367 . S
C1663 C1671 1.433 . S
C1664 H1660 0.929 . S
C1664 C1666 1.378 . S
C1664 C1668 1.350 . S
C1665 C1668 1.463 . S
C1665 C1670 1.350 . S
C1665 N1673 1.427 . S
C1666 H1657 0.930 . S
C1666 C1664 1.378 . S
C1666 C1667 1.367 . S
C1667 C1666 1.367 . S
C1667 C1669 1.433 . S
C1668 C1664 1.350 . S
C1668 C1665 1.463 . S
C1668 N1672 1.427 . S
C1669 H1659 0.929 . S
C1669 C1667 1.433 . S
C1669 N1672 1.384 . S
C1670 H1661 0.929 . S
C1670 C1662 1.378 . S
C1670 C1665 1.350 . S
C1671 H1658 0.929 . S
C1671 C1663 1.433 . S
C1671 N1673 1.384 . S
N1672 C1668 1.427 . S
N1672 C1669 1.384 . S
N1673 C1665 1.427 . S
N1673 C1671 1.384 . S
H1674 C1680 0.930 . S
H1675 C1684 0.930 . S
H1676 C1689 0.929 . S
H1677 C1687 0.929 . S
H1678 C1682 0.929 . S
H1679 C1688 0.929 . S
C1680 H1674 0.930 . S
C1680 C1681 1.367 . S
C1680 C1688 1.378 . S
C1681 C1680 1.367 . S
C1681 C1689 1.433 . S
C1682 H1678 0.929 . S
C1682 C1684 1.378 . S
C1682 C1686 1.350 . S
C1683 C1686 1.463 . S
C1683 C1688 1.350 . S
C1683 N1691 1.427 . S
C1684 H1675 0.930 . S
C1684 C1682 1.378 . S
C1684 C1685 1.367 . S
C1685 C1684 1.367 . S
C1685 C1687 1.433 . S
C1686 C1682 1.350 . S
C1686 C1683 1.463 . S
C1686 N1690 1.427 . S
C1687 H1677 0.929 . S
C1687 C1685 1.433 . S
C1687 N1690 1.384 . S
C1688 H1679 0.929 . S
C1688 C1680 1.378 . S
C1688 C1683 1.350 . S
C1689 H1676 0.929 . S
C1689 C1681 1.433 . S
C1689 N1691 1.384 . S
N1690 C1686 1.427 . S
N1690 C1687 1.384 . S
N1691 C1683 1.427 . S
N1691 C1689 1.384 . S
H1692 C1698 0.930 . S
H1693 C1702 0.930 . S
H1694 C1707 0.929 . S
H1695 C1705 0.929 . S
H1696 C1700 0.929 . S
H1697 C1706 0.929 . S
C1698 H1692 0.930 . S
C1698 C1699 1.367 . S
C1698 C1706 1.378 . S
C1699 C1698 1.367 . S
C1699 C1707 1.433 . S
C1700 H1696 0.929 . S
C1700 C1702 1.378 . S
C1700 C1704 1.350 . S
C1701 C1704 1.463 . S
C1701 C1706 1.350 . S
C1701 N1709 1.427 . S
C1702 H1693 0.930 . S
C1702 C1700 1.378 . S
C1702 C1703 1.367 . S
C1703 C1702 1.367 . S
C1703 C1705 1.433 . S
C1704 C1700 1.350 . S
C1704 C1701 1.463 . S
C1704 N1708 1.427 . S
C1705 H1695 0.929 . S
C1705 C1703 1.433 . S
C1705 N1708 1.384 . S
C1706 H1697 0.929 . S
C1706 C1698 1.378 . S
C1706 C1701 1.350 . S
C1707 H1694 0.929 . S
C1707 C1699 1.433 . S
C1707 N1709 1.384 . S
N1708 C1704 1.427 . S
N1708 C1705 1.384 . S
N1709 C1701 1.427 . S
N1709 C1707 1.384 . S
H1710 C1716 0.930 . S
H1711 C1720 0.930 . S
H1712 C1725 0.929 . S
H1713 C1723 0.929 . S
H1714 C1718 0.929 . S
H1715 C1724 0.929 . S
C1716 H1710 0.930 . S
C1716 C1717 1.367 . S
C1716 C1724 1.378 . S
C1717 C1716 1.367 . S
C1717 C1725 1.433 . S
C1718 H1714 0.929 . S
C1718 C1720 1.378 . S
C1718 C1722 1.350 . S
C1719 C1722 1.463 . S
C1719 C1724 1.350 . S
C1719 N1727 1.427 . S
C1720 H1711 0.930 . S
C1720 C1718 1.378 . S
C1720 C1721 1.367 . S
C1721 C1720 1.367 . S
C1721 C1723 1.433 . S
C1722 C1718 1.350 . S
C1722 C1719 1.463 . S
C1722 N1726 1.427 . S
C1723 H1713 0.929 . S
C1723 C1721 1.433 . S
C1723 N1726 1.384 . S
C1724 H1715 0.929 . S
C1724 C1716 1.378 . S
C1724 C1719 1.350 . S
C1725 H1712 0.929 . S
C1725 C1717 1.433 . S
C1725 N1727 1.384 . S
N1726 C1722 1.427 . S
N1726 C1723 1.384 . S
N1727 C1719 1.427 . S
N1727 C1725 1.384 . S
H1728 C1734 0.930 . S
H1729 C1738 0.930 . S
H1730 C1743 0.929 . S
H1731 C1741 0.929 . S
H1732 C1736 0.929 . S
H1733 C1742 0.928 . S
C1734 H1728 0.930 . S
C1734 C1735 1.367 . S
C1734 C1742 1.378 . S
C1735 C1734 1.367 . S
C1735 C1743 1.433 . S
C1736 H1732 0.929 . S
C1736 C1738 1.378 . S
C1736 C1740 1.350 . S
C1737 C1740 1.463 1_656 S
C1737 C1742 1.350 . S
C1737 N1745 1.427 . S
C1738 H1729 0.930 . S
C1738 C1736 1.378 . S
C1738 C1739 1.367 . S
C1739 C1738 1.367 . S
C1739 C1741 1.433 . S
C1740 C1736 1.350 . S
C1740 C1737 1.463 1_454 S
C1740 N1744 1.427 . S
C1741 H1731 0.929 . S
C1741 C1739 1.433 . S
C1741 N1744 1.384 . S
C1742 H1733 0.928 . S
C1742 C1734 1.378 . S
C1742 C1737 1.350 . S
C1743 H1730 0.929 . S
C1743 C1735 1.433 . S
C1743 N1745 1.384 . S
N1744 C1740 1.427 . S
N1744 C1741 1.384 . S
N1745 C1737 1.427 . S
N1745 C1743 1.384 . S
H1746 C1752 0.930 . S
H1747 C1756 0.930 . S
H1748 C1761 0.929 . S
H1749 C1759 0.929 . S
H1750 C1754 0.929 . S
H1751 C1760 0.929 . S
C1752 H1746 0.930 . S
C1752 C1753 1.367 . S
C1752 C1760 1.378 . S
C1753 C1752 1.367 . S
C1753 C1761 1.433 . S
C1754 H1750 0.929 . S
C1754 C1756 1.378 . S
C1754 C1758 1.350 . S
C1755 C1758 1.463 1_556 S
C1755 C1760 1.350 . S
C1755 N1763 1.427 . S
C1756 H1747 0.930 . S
C1756 C1754 1.378 . S
C1756 C1757 1.367 . S
C1757 C1756 1.367 . S
C1757 C1759 1.433 . S
C1758 C1754 1.350 . S
C1758 C1755 1.463 1_554 S
C1758 N1762 1.427 . S
C1759 H1749 0.929 . S
C1759 C1757 1.433 . S
C1759 N1762 1.384 . S
C1760 H1751 0.929 . S
C1760 C1752 1.378 . S
C1760 C1755 1.350 . S
C1761 H1748 0.929 . S
C1761 C1753 1.433 . S
C1761 N1763 1.384 . S
N1762 C1758 1.427 . S
N1762 C1759 1.384 . S
N1763 C1755 1.427 . S
N1763 C1761 1.384 . S
H1764 C1770 0.930 . S
H1765 C1774 0.930 . S
H1766 C1779 0.929 . S
H1767 C1777 0.929 . S
H1768 C1772 0.929 1_545 S
H1769 C1778 0.929 1_565 S
C1770 H1764 0.930 . S
C1770 C1771 1.367 . S
C1770 C1778 1.378 . S
C1771 C1770 1.367 . S
C1771 C1779 1.433 . S
C1772 H1768 0.929 1_565 S
C1772 C1774 1.378 . S
C1772 C1776 1.350 . S
C1773 C1776 1.463 1_546 S
C1773 C1778 1.350 . S
C1773 N1781 1.427 . S
C1774 H1765 0.930 . S
C1774 C1772 1.378 . S
C1774 C1775 1.367 . S
C1775 C1774 1.367 . S
C1775 C1777 1.433 . S
C1776 C1772 1.350 . S
C1776 C1773 1.463 1_564 S
C1776 N1780 1.427 1_554 S
C1777 H1767 0.929 . S
C1777 C1775 1.433 . S
C1777 N1780 1.383 1_554 S
C1778 H1769 0.929 1_545 S
C1778 C1770 1.378 . S
C1778 C1773 1.350 . S
C1779 H1766 0.929 . S
C1779 C1771 1.433 . S
C1779 N1781 1.384 . S
N1780 C1776 1.427 1_556 S
N1780 C1777 1.383 1_556 S
N1781 C1773 1.427 . S
N1781 C1779 1.384 . S
H1782 C1788 0.930 . S
H1783 C1792 0.930 . S
H1784 C1797 0.929 . S
H1785 C1795 0.929 . S
H1786 C1790 0.929 . S
H1787 C1796 0.929 . S
C1788 H1782 0.930 . S
C1788 C1789 1.367 . S
C1788 C1796 1.378 . S
C1789 C1788 1.367 . S
C1789 C1797 1.433 . S
C1790 H1786 0.929 . S
C1790 C1792 1.378 . S
C1790 C1794 1.350 . S
C1791 C1794 1.463 1_546 S
C1791 C1796 1.350 . S
C1791 N1799 1.427 . S
C1792 H1783 0.930 . S
C1792 C1790 1.378 . S
C1792 C1793 1.367 . S
C1793 C1792 1.367 . S
C1793 C1795 1.433 . S
C1794 C1790 1.350 . S
C1794 C1791 1.463 1_564 S
C1794 N1798 1.427 . S
C1795 H1785 0.929 . S
C1795 C1793 1.433 . S
C1795 N1798 1.384 . S
C1796 H1787 0.929 . S
C1796 C1788 1.378 . S
C1796 C1791 1.350 . S
C1797 H1784 0.929 . S
C1797 C1789 1.433 . S
C1797 N1799 1.384 . S
N1798 C1794 1.427 . S
N1798 C1795 1.384 . S
N1799 C1791 1.427 . S
N1799 C1797 1.384 . S
H1800 C1806 0.930 . S
H1801 C1810 0.930 . S
H1802 C1815 0.929 . S
H1803 C1813 0.929 . S
H1804 C1808 0.929 . S
H1805 C1814 0.929 1_556 S
C1806 H1800 0.930 . S
C1806 C1807 1.367 . S
C1806 C1814 1.378 . S
C1807 C1806 1.367 . S
C1807 C1815 1.433 . S
C1808 H1804 0.929 . S
C1808 C1810 1.378 1_554 S
C1808 C1812 1.350 1_554 S
C1809 C1812 1.463 1_454 S
C1809 C1814 1.350 . S
C1809 N1817 1.427 . S
C1810 H1801 0.930 . S
C1810 C1808 1.378 1_556 S
C1810 C1811 1.367 . S
C1811 C1810 1.367 . S
C1811 C1813 1.433 . S
C1812 C1808 1.350 1_556 S
C1812 C1809 1.463 1_656 S
C1812 N1816 1.427 . S
C1813 H1803 0.929 . S
C1813 C1811 1.433 . S
C1813 N1816 1.384 . S
C1814 H1805 0.929 1_554 S
C1814 C1806 1.378 . S
C1814 C1809 1.350 . S
C1815 H1802 0.929 . S
C1815 C1807 1.433 . S
C1815 N1817 1.384 . S
N1816 C1812 1.427 . S
N1816 C1813 1.384 . S
N1817 C1809 1.427 . S
N1817 C1815 1.384 . S
H1818 C1824 0.930 . S
H1819 C1828 0.930 . S
H1820 C1833 0.929 . S
H1821 C1831 0.929 . S
H1822 C1826 0.929 1_554 S
H1823 C1832 0.929 . S
C1824 H1818 0.930 . S
C1824 C1825 1.367 . S
C1824 C1832 1.378 . S
C1825 C1824 1.367 . S
C1825 C1833 1.433 . S
C1826 H1822 0.929 1_556 S
C1826 C1828 1.378 . S
C1826 C1830 1.350 . S
C1827 C1830 1.463 1_554 S
C1827 C1832 1.350 . S
C1827 N1835 1.427 . S
C1828 H1819 0.930 . S
C1828 C1826 1.378 . S
C1828 C1829 1.367 . S
C1829 C1828 1.367 . S
C1829 C1831 1.433 . S
C1830 C1826 1.350 . S
C1830 C1827 1.463 1_556 S
C1830 N1834 1.427 . S
C1831 H1821 0.929 . S
C1831 C1829 1.433 . S
C1831 N1834 1.384 . S
C1832 H1823 0.929 . S
C1832 C1824 1.378 . S
C1832 C1827 1.350 . S
C1833 H1820 0.929 . S
C1833 C1825 1.433 . S
C1833 N1835 1.384 . S
N1834 C1830 1.427 . S
N1834 C1831 1.384 . S
N1835 C1827 1.427 . S
N1835 C1833 1.384 . S
H1836 C1842 0.930 . S
H1837 C1846 0.930 . S
H1838 C1851 0.929 . S
H1839 C1849 0.929 . S
H1840 C1844 0.929 . S
H1841 C1850 0.929 . S
C1842 H1836 0.930 . S
C1842 C1843 1.367 . S
C1842 C1850 1.378 . S
C1843 C1842 1.367 . S
C1843 C1851 1.433 . S
C1844 H1840 0.929 . S
C1844 C1846 1.378 . S
C1844 C1848 1.350 . S
C1845 C1848 1.463 . S
C1845 C1850 1.350 . S
C1845 N1853 1.427 . S
C1846 H1837 0.930 . S
C1846 C1844 1.378 . S
C1846 C1847 1.367 . S
C1847 C1846 1.367 . S
C1847 C1849 1.433 . S
C1848 C1844 1.350 . S
C1848 C1845 1.463 . S
C1848 N1852 1.427 . S
C1849 H1839 0.929 . S
C1849 C1847 1.433 . S
C1849 N1852 1.384 . S
C1850 H1841 0.929 . S
C1850 C1842 1.378 . S
C1850 C1845 1.350 . S
C1851 H1838 0.929 . S
C1851 C1843 1.433 . S
C1851 N1853 1.384 . S
N1852 C1848 1.427 . S
N1852 C1849 1.384 . S
N1853 C1845 1.427 . S
N1853 C1851 1.384 . S
H1854 C1860 0.930 . S
H1855 C1864 0.930 . S
H1856 C1869 0.929 . S
H1857 C1867 0.929 . S
H1858 C1862 0.929 . S
H1859 C1868 0.929 . S
C1860 H1854 0.930 . S
C1860 C1861 1.367 . S
C1860 C1868 1.378 . S
C1861 C1860 1.367 . S
C1861 C1869 1.433 . S
C1862 H1858 0.929 . S
C1862 C1864 1.378 . S
C1862 C1866 1.350 . S
C1863 C1866 1.463 . S
C1863 C1868 1.350 . S
C1863 N1871 1.427 . S
C1864 H1855 0.930 . S
C1864 C1862 1.378 . S
C1864 C1865 1.367 . S
C1865 C1864 1.367 . S
C1865 C1867 1.433 . S
C1866 C1862 1.350 . S
C1866 C1863 1.463 . S
C1866 N1870 1.427 . S
C1867 H1857 0.929 . S
C1867 C1865 1.433 . S
C1867 N1870 1.384 . S
C1868 H1859 0.929 . S
C1868 C1860 1.378 . S
C1868 C1863 1.350 . S
C1869 H1856 0.929 . S
C1869 C1861 1.433 . S
C1869 N1871 1.384 . S
N1870 C1866 1.427 . S
N1870 C1867 1.384 . S
N1871 C1863 1.427 . S
N1871 C1869 1.384 . S
H1872 C1878 0.930 . S
H1873 C1882 0.930 . S
H1874 C1887 0.929 . S
H1875 C1885 0.929 . S
H1876 C1880 0.929 . S
H1877 C1886 0.929 . S
C1878 H1872 0.930 . S
C1878 C1879 1.367 . S
C1878 C1886 1.378 . S
C1879 C1878 1.367 . S
C1879 C1887 1.433 . S
C1880 H1876 0.929 . S
C1880 C1882 1.378 . S
C1880 C1884 1.350 . S
C1881 C1884 1.463 . S
C1881 C1886 1.350 . S
C1881 N1889 1.427 . S
C1882 H1873 0.930 . S
C1882 C1880 1.378 . S
C1882 C1883 1.367 . S
C1883 C1882 1.367 . S
C1883 C1885 1.433 . S
C1884 C1880 1.350 . S
C1884 C1881 1.463 . S
C1884 N1888 1.427 . S
C1885 H1875 0.929 . S
C1885 C1883 1.433 . S
C1885 N1888 1.384 . S
C1886 H1877 0.929 . S
C1886 C1878 1.378 . S
C1886 C1881 1.350 . S
C1887 H1874 0.929 . S
C1887 C1879 1.433 . S
C1887 N1889 1.384 . S
N1888 C1884 1.427 . S
N1888 C1885 1.384 . S
N1889 C1881 1.427 . S
N1889 C1887 1.384 . S
H1890 C1896 0.930 . S
H1891 C1900 0.930 . S
H1892 C1905 0.929 . S
H1893 C1903 0.929 . S
H1894 C1898 0.929 . S
H1895 C1904 0.929 . S
C1896 H1890 0.930 . S
C1896 C1897 1.367 . S
C1896 C1904 1.378 . S
C1897 C1896 1.367 . S
C1897 C1905 1.433 . S
C1898 H1894 0.929 . S
C1898 C1900 1.378 . S
C1898 C1902 1.350 . S
C1899 C1902 1.463 . S
C1899 C1904 1.350 . S
C1899 N1907 1.427 . S
C1900 H1891 0.930 . S
C1900 C1898 1.378 . S
C1900 C1901 1.367 . S
C1901 C1900 1.367 . S
C1901 C1903 1.433 . S
C1902 C1898 1.350 . S
C1902 C1899 1.463 . S
C1902 N1906 1.427 . S
C1903 H1893 0.929 . S
C1903 C1901 1.433 . S
C1903 N1906 1.384 . S
C1904 H1895 0.929 . S
C1904 C1896 1.378 . S
C1904 C1899 1.350 . S
C1905 H1892 0.929 . S
C1905 C1897 1.433 . S
C1905 N1907 1.384 . S
N1906 C1902 1.427 . S
N1906 C1903 1.384 . S
N1907 C1899 1.427 . S
N1907 C1905 1.384 . S
H1908 C1914 0.930 . S
H1909 C1918 0.930 . S
H1910 C1923 0.929 . S
H1911 C1921 0.929 . S
H1912 C1916 0.929 . S
H1913 C1922 0.929 . S
C1914 H1908 0.930 . S
C1914 C1915 1.367 . S
C1914 C1922 1.378 . S
C1915 C1914 1.367 . S
C1915 C1923 1.433 . S
C1916 H1912 0.929 . S
C1916 C1918 1.378 . S
C1916 C1920 1.350 . S
C1917 C1920 1.463 . S
C1917 C1922 1.350 . S
C1917 N1925 1.427 . S
C1918 H1909 0.930 . S
C1918 C1916 1.378 . S
C1918 C1919 1.367 . S
C1919 C1918 1.367 . S
C1919 C1921 1.433 . S
C1920 C1916 1.350 . S
C1920 C1917 1.463 . S
C1920 N1924 1.427 . S
C1921 H1911 0.929 . S
C1921 C1919 1.433 . S
C1921 N1924 1.384 . S
C1922 H1913 0.929 . S
C1922 C1914 1.378 . S
C1922 C1917 1.350 . S
C1923 H1910 0.929 . S
C1923 C1915 1.433 . S
C1923 N1925 1.384 . S
N1924 C1920 1.427 . S
N1924 C1921 1.384 . S
N1925 C1917 1.427 . S
N1925 C1923 1.384 . S
H1926 C1932 0.930 . S
H1927 C1936 0.930 . S
H1928 C1941 0.929 . S
H1929 C1939 0.929 . S
H1930 C1934 0.929 . S
H1931 C1940 0.929 . S
C1932 H1926 0.930 . S
C1932 C1933 1.367 . S
C1932 C1940 1.378 . S
C1933 C1932 1.367 . S
C1933 C1941 1.433 . S
C1934 H1930 0.929 . S
C1934 C1936 1.378 . S
C1934 C1938 1.350 . S
C1935 C1938 1.463 . S
C1935 C1940 1.350 . S
C1935 N1943 1.427 . S
C1936 H1927 0.930 . S
C1936 C1934 1.378 . S
C1936 C1937 1.367 . S
C1937 C1936 1.367 . S
C1937 C1939 1.433 . S
C1938 C1934 1.350 . S
C1938 C1935 1.463 . S
C1938 N1942 1.427 . S
C1939 H1929 0.929 . S
C1939 C1937 1.433 . S
C1939 N1942 1.384 . S
C1940 H1931 0.929 . S
C1940 C1932 1.378 . S
C1940 C1935 1.350 . S
C1941 H1928 0.929 . S
C1941 C1933 1.433 . S
C1941 N1943 1.384 . S
N1942 C1938 1.427 . S
N1942 C1939 1.384 . S
N1943 C1935 1.427 . S
N1943 C1941 1.384 . S
H1944 C1950 0.930 . S
H1945 C1954 0.930 . S
H1946 C1959 0.929 . S
H1947 C1957 0.929 . S
H1948 C1952 0.929 . S
H1949 C1958 0.929 . S
C1950 H1944 0.930 . S
C1950 C1951 1.367 . S
C1950 C1958 1.378 . S
C1951 C1950 1.367 . S
C1951 C1959 1.433 . S
C1952 H1948 0.929 . S
C1952 C1954 1.378 . S
C1952 C1956 1.350 . S
C1953 C1956 1.463 . S
C1953 C1958 1.350 . S
C1953 N1961 1.427 . S
C1954 H1945 0.930 . S
C1954 C1952 1.378 . S
C1954 C1955 1.367 . S
C1955 C1954 1.367 . S
C1955 C1957 1.433 . S
C1956 C1952 1.350 . S
C1956 C1953 1.463 . S
C1956 N1960 1.427 . S
C1957 H1947 0.929 . S
C1957 C1955 1.433 . S
C1957 N1960 1.384 . S
C1958 H1949 0.929 . S
C1958 C1950 1.378 . S
C1958 C1953 1.350 . S
C1959 H1946 0.929 . S
C1959 C1951 1.433 . S
C1959 N1961 1.384 . S
N1960 C1956 1.427 . S
N1960 C1957 1.384 . S
N1961 C1953 1.427 . S
N1961 C1959 1.384 . S
H1962 C1968 0.930 . S
H1963 C1972 0.930 . S
H1964 C1977 0.929 . S
H1965 C1975 0.929 . S
H1966 C1970 0.929 . S
H1967 C1976 0.929 . S
C1968 H1962 0.930 . S
C1968 C1969 1.367 . S
C1968 C1976 1.378 . S
C1969 C1968 1.367 . S
C1969 C1977 1.433 . S
C1970 H1966 0.929 . S
C1970 C1972 1.378 . S
C1970 C1974 1.350 . S
C1971 C1974 1.463 . S
C1971 C1976 1.350 . S
C1971 N1979 1.427 . S
C1972 H1963 0.930 . S
C1972 C1970 1.378 . S
C1972 C1973 1.367 . S
C1973 C1972 1.367 . S
C1973 C1975 1.433 . S
C1974 C1970 1.350 . S
C1974 C1971 1.463 . S
C1974 N1978 1.427 . S
C1975 H1965 0.929 . S
C1975 C1973 1.433 . S
C1975 N1978 1.384 . S
C1976 H1967 0.929 . S
C1976 C1968 1.378 . S
C1976 C1971 1.350 . S
C1977 H1964 0.929 . S
C1977 C1969 1.433 . S
C1977 N1979 1.384 . S
N1978 C1974 1.427 . S
N1978 C1975 1.384 . S
N1979 C1971 1.427 . S
N1979 C1977 1.384 . S
H1980 C1986 0.930 . S
H1981 C1990 0.930 . S
H1982 C1995 0.929 . S
H1983 C1993 0.929 . S
H1984 C1988 0.929 . S
H1985 C1994 0.929 . S
C1986 H1980 0.930 . S
C1986 C1987 1.367 . S
C1986 C1994 1.378 . S
C1987 C1986 1.367 . S
C1987 C1995 1.433 . S
C1988 H1984 0.929 . S
C1988 C1990 1.378 . S
C1988 C1992 1.350 . S
C1989 C1992 1.463 . S
C1989 C1994 1.350 . S
C1989 N1997 1.427 . S
C1990 H1981 0.930 . S
C1990 C1988 1.378 . S
C1990 C1991 1.367 . S
C1991 C1990 1.367 . S
C1991 C1993 1.433 . S
C1992 C1988 1.350 . S
C1992 C1989 1.463 . S
C1992 N1996 1.427 . S
C1993 H1983 0.929 . S
C1993 C1991 1.433 . S
C1993 N1996 1.384 . S
C1994 H1985 0.929 . S
C1994 C1986 1.378 . S
C1994 C1989 1.350 . S
C1995 H1982 0.929 . S
C1995 C1987 1.433 . S
C1995 N1997 1.384 . S
N1996 C1992 1.427 . S
N1996 C1993 1.384 . S
N1997 C1989 1.427 . S
N1997 C1995 1.384 . S
H1998 C2004 0.930 . S
H1999 C2008 0.930 . S
H2000 C2013 0.929 . S
H2001 C2011 0.929 . S
H2002 C2006 0.929 . S
H2003 C2012 0.929 . S
C2004 H1998 0.930 . S
C2004 C2005 1.367 . S
C2004 C2012 1.378 . S
C2005 C2004 1.367 . S
C2005 C2013 1.433 . S
C2006 H2002 0.929 . S
C2006 C2008 1.378 . S
C2006 C2010 1.350 . S
C2007 C2010 1.463 . S
C2007 C2012 1.350 . S
C2007 N2015 1.427 . S
C2008 H1999 0.930 . S
C2008 C2006 1.378 . S
C2008 C2009 1.367 . S
C2009 C2008 1.367 . S
C2009 C2011 1.433 . S
C2010 C2006 1.350 . S
C2010 C2007 1.463 . S
C2010 N2014 1.427 . S
C2011 H2001 0.929 . S
C2011 C2009 1.433 . S
C2011 N2014 1.384 . S
C2012 H2003 0.929 . S
C2012 C2004 1.378 . S
C2012 C2007 1.350 . S
C2013 H2000 0.929 . S
C2013 C2005 1.433 . S
C2013 N2015 1.384 . S
N2014 C2010 1.427 . S
N2014 C2011 1.384 . S
N2015 C2007 1.427 . S
N2015 C2013 1.384 . S
H2016 C2022 0.930 . S
H2017 C2026 0.930 . S
H2018 C2031 0.929 . S
H2019 C2029 0.929 . S
H2020 C2024 0.929 . S
H2021 C2030 0.929 . S
C2022 H2016 0.930 . S
C2022 C2023 1.367 . S
C2022 C2030 1.378 . S
C2023 C2022 1.367 . S
C2023 C2031 1.433 . S
C2024 H2020 0.929 . S
C2024 C2026 1.378 . S
C2024 C2028 1.350 . S
C2025 C2028 1.463 . S
C2025 C2030 1.350 . S
C2025 N2033 1.427 . S
C2026 H2017 0.930 . S
C2026 C2024 1.378 . S
C2026 C2027 1.367 . S
C2027 C2026 1.367 . S
C2027 C2029 1.433 . S
C2028 C2024 1.350 . S
C2028 C2025 1.463 . S
C2028 N2032 1.427 . S
C2029 H2019 0.929 . S
C2029 C2027 1.433 . S
C2029 N2032 1.384 . S
C2030 H2021 0.929 . S
C2030 C2022 1.378 . S
C2030 C2025 1.350 . S
C2031 H2018 0.929 . S
C2031 C2023 1.433 . S
C2031 N2033 1.384 . S
N2032 C2028 1.427 . S
N2032 C2029 1.384 . S
N2033 C2025 1.427 . S
N2033 C2031 1.384 . S
H2034 C2040 0.930 . S
H2035 C2044 0.930 . S
H2036 C2049 0.929 . S
H2037 C2047 0.929 . S
H2038 C2042 0.929 . S
H2039 C2048 0.929 . S
C2040 H2034 0.930 . S
C2040 C2041 1.367 . S
C2040 C2048 1.378 . S
C2041 C2040 1.367 . S
C2041 C2049 1.433 . S
C2042 H2038 0.929 . S
C2042 C2044 1.378 . S
C2042 C2046 1.350 . S
C2043 C2046 1.463 . S
C2043 C2048 1.350 . S
C2043 N2051 1.427 . S
C2044 H2035 0.930 . S
C2044 C2042 1.378 . S
C2044 C2045 1.367 . S
C2045 C2044 1.367 . S
C2045 C2047 1.433 . S
C2046 C2042 1.350 . S
C2046 C2043 1.463 . S
C2046 N2050 1.427 . S
C2047 H2037 0.929 . S
C2047 C2045 1.433 . S
C2047 N2050 1.384 . S
C2048 H2039 0.929 . S
C2048 C2040 1.378 . S
C2048 C2043 1.350 . S
C2049 H2036 0.929 . S
C2049 C2041 1.433 . S
C2049 N2051 1.384 . S
N2050 C2046 1.427 . S
N2050 C2047 1.384 . S
N2051 C2043 1.427 . S
N2051 C2049 1.384 . S
H2052 C2058 0.930 . S
H2053 C2062 0.930 . S
H2054 C2067 0.929 . S
H2055 C2065 0.929 . S
H2056 C2060 0.929 . S
H2057 C2066 0.929 . S
C2058 H2052 0.930 . S
C2058 C2059 1.367 . S
C2058 C2066 1.378 . S
C2059 C2058 1.367 . S
C2059 C2067 1.433 . S
C2060 H2056 0.929 . S
C2060 C2062 1.378 . S
C2060 C2064 1.350 . S
C2061 C2064 1.463 . S
C2061 C2066 1.350 . S
C2061 N2069 1.427 . S
C2062 H2053 0.930 . S
C2062 C2060 1.378 . S
C2062 C2063 1.367 . S
C2063 C2062 1.367 . S
C2063 C2065 1.433 . S
C2064 C2060 1.350 . S
C2064 C2061 1.463 . S
C2064 N2068 1.427 . S
C2065 H2055 0.929 . S
C2065 C2063 1.433 . S
C2065 N2068 1.384 . S
C2066 H2057 0.929 . S
C2066 C2058 1.378 . S
C2066 C2061 1.350 . S
C2067 H2054 0.929 . S
C2067 C2059 1.433 . S
C2067 N2069 1.384 . S
N2068 C2064 1.427 . S
N2068 C2065 1.384 . S
N2069 C2061 1.427 . S
N2069 C2067 1.384 . S
H2070 C2076 0.930 . S
H2071 C2080 0.930 . S
H2072 C2085 0.929 . S
H2073 C2083 0.929 . S
H2074 C2078 0.929 . S
H2075 C2084 0.929 . S
C2076 H2070 0.930 . S
C2076 C2077 1.367 . S
C2076 C2084 1.378 . S
C2077 C2076 1.367 . S
C2077 C2085 1.433 . S
C2078 H2074 0.929 . S
C2078 C2080 1.378 . S
C2078 C2082 1.350 . S
C2079 C2082 1.463 . S
C2079 C2084 1.350 . S
C2079 N2087 1.427 . S
C2080 H2071 0.930 . S
C2080 C2078 1.378 . S
C2080 C2081 1.367 . S
C2081 C2080 1.367 . S
C2081 C2083 1.433 . S
C2082 C2078 1.350 . S
C2082 C2079 1.463 . S
C2082 N2086 1.427 . S
C2083 H2073 0.929 . S
C2083 C2081 1.433 . S
C2083 N2086 1.384 . S
C2084 H2075 0.929 . S
C2084 C2076 1.378 . S
C2084 C2079 1.350 . S
C2085 H2072 0.929 . S
C2085 C2077 1.433 . S
C2085 N2087 1.384 . S
N2086 C2082 1.427 . S
N2086 C2083 1.384 . S
N2087 C2079 1.427 . S
N2087 C2085 1.384 . S
H2088 C2094 0.930 . S
H2089 C2098 0.930 . S
H2090 C2103 0.929 . S
H2091 C2101 0.929 . S
H2092 C2096 0.929 . S
H2093 C2102 0.929 . S
C2094 H2088 0.930 . S
C2094 C2095 1.367 . S
C2094 C2102 1.378 . S
C2095 C2094 1.367 . S
C2095 C2103 1.433 . S
C2096 H2092 0.929 . S
C2096 C2098 1.378 . S
C2096 C2100 1.350 . S
C2097 C2100 1.463 . S
C2097 C2102 1.350 . S
C2097 N2105 1.427 . S
C2098 H2089 0.930 . S
C2098 C2096 1.378 . S
C2098 C2099 1.367 . S
C2099 C2098 1.367 . S
C2099 C2101 1.433 . S
C2100 C2096 1.350 . S
C2100 C2097 1.463 . S
C2100 N2104 1.427 . S
C2101 H2091 0.929 . S
C2101 C2099 1.433 . S
C2101 N2104 1.384 . S
C2102 H2093 0.929 . S
C2102 C2094 1.378 . S
C2102 C2097 1.350 . S
C2103 H2090 0.929 . S
C2103 C2095 1.433 . S
C2103 N2105 1.384 . S
N2104 C2100 1.427 . S
N2104 C2101 1.384 . S
N2105 C2097 1.427 . S
N2105 C2103 1.384 . S
H2106 C2112 0.930 . S
H2107 C2116 0.930 . S
H2108 C2121 0.929 . S
H2109 C2119 0.929 . S
H2110 C2114 0.929 . S
H2111 C2120 0.929 . S
C2112 H2106 0.930 . S
C2112 C2113 1.367 . S
C2112 C2120 1.378 . S
C2113 C2112 1.367 . S
C2113 C2121 1.433 . S
C2114 H2110 0.929 . S
C2114 C2116 1.378 . S
C2114 C2118 1.350 . S
C2115 C2118 1.463 . S
C2115 C2120 1.350 . S
C2115 N2123 1.427 . S
C2116 H2107 0.930 . S
C2116 C2114 1.378 . S
C2116 C2117 1.367 . S
C2117 C2116 1.367 . S
C2117 C2119 1.433 . S
C2118 C2114 1.350 . S
C2118 C2115 1.463 . S
C2118 N2122 1.427 . S
C2119 H2109 0.929 . S
C2119 C2117 1.433 . S
C2119 N2122 1.384 . S
C2120 H2111 0.929 . S
C2120 C2112 1.378 . S
C2120 C2115 1.350 . S
C2121 H2108 0.929 . S
C2121 C2113 1.433 . S
C2121 N2123 1.384 . S
N2122 C2118 1.427 . S
N2122 C2119 1.384 . S
N2123 C2115 1.427 . S
N2123 C2121 1.384 . S
H2124 C2130 0.930 . S
H2125 C2134 0.930 . S
H2126 C2139 0.929 . S
H2127 C2137 0.929 . S
H2128 C2132 0.929 . S
H2129 C2138 0.929 . S
C2130 H2124 0.930 . S
C2130 C2131 1.367 . S
C2130 C2138 1.378 . S
C2131 C2130 1.367 . S
C2131 C2139 1.433 . S
C2132 H2128 0.929 . S
C2132 C2134 1.378 . S
C2132 C2136 1.350 . S
C2133 C2136 1.463 . S
C2133 C2138 1.350 . S
C2133 N2141 1.427 . S
C2134 H2125 0.930 . S
C2134 C2132 1.378 . S
C2134 C2135 1.367 . S
C2135 C2134 1.367 . S
C2135 C2137 1.433 . S
C2136 C2132 1.350 . S
C2136 C2133 1.463 . S
C2136 N2140 1.427 . S
C2137 H2127 0.929 . S
C2137 C2135 1.433 . S
C2137 N2140 1.384 . S
C2138 H2129 0.929 . S
C2138 C2130 1.378 . S
C2138 C2133 1.350 . S
C2139 H2126 0.929 . S
C2139 C2131 1.433 . S
C2139 N2141 1.384 . S
N2140 C2136 1.427 . S
N2140 C2137 1.384 . S
N2141 C2133 1.427 . S
N2141 C2139 1.384 . S
H2142 C2148 0.930 . S
H2143 C2152 0.930 . S
H2144 C2157 0.929 . S
H2145 C2155 0.929 . S
H2146 C2150 0.929 . S
H2147 C2156 0.929 . S
C2148 H2142 0.930 . S
C2148 C2149 1.367 . S
C2148 C2156 1.378 . S
C2149 C2148 1.367 . S
C2149 C2157 1.433 . S
C2150 H2146 0.929 . S
C2150 C2152 1.378 . S
C2150 C2154 1.350 . S
C2151 C2154 1.463 . S
C2151 C2156 1.350 . S
C2151 N2159 1.427 . S
C2152 H2143 0.930 . S
C2152 C2150 1.378 . S
C2152 C2153 1.367 . S
C2153 C2152 1.367 . S
C2153 C2155 1.433 . S
C2154 C2150 1.350 . S
C2154 C2151 1.463 . S
C2154 N2158 1.427 . S
C2155 H2145 0.929 . S
C2155 C2153 1.433 . S
C2155 N2158 1.384 . S
C2156 H2147 0.929 . S
C2156 C2148 1.378 . S
C2156 C2151 1.350 . S
C2157 H2144 0.929 . S
C2157 C2149 1.433 . S
C2157 N2159 1.384 . S
N2158 C2154 1.427 . S
N2158 C2155 1.384 . S
N2159 C2151 1.427 . S
N2159 C2157 1.384 . S
H2160 C2166 0.930 . S
H2161 C2170 0.930 . S
H2162 C2175 0.929 . S
H2163 C2173 0.929 . S
H2164 C2168 0.929 . S
H2165 C2174 0.929 . S
C2166 H2160 0.930 . S
C2166 C2167 1.367 . S
C2166 C2174 1.378 . S
C2167 C2166 1.367 . S
C2167 C2175 1.433 1_455 S
C2168 H2164 0.929 . S
C2168 C2170 1.378 . S
C2168 C2172 1.350 . S
C2169 C2172 1.463 1_454 S
C2169 C2174 1.350 . S
C2169 N2177 1.427 1_455 S
C2170 H2161 0.930 . S
C2170 C2168 1.378 . S
C2170 C2171 1.367 . S
C2171 C2170 1.367 . S
C2171 C2173 1.433 1_655 S
C2172 C2168 1.350 . S
C2172 C2169 1.463 1_656 S
C2172 N2176 1.427 1_655 S
C2173 H2163 0.929 . S
C2173 C2171 1.433 1_455 S
C2173 N2176 1.384 . S
C2174 H2165 0.929 . S
C2174 C2166 1.378 . S
C2174 C2169 1.350 . S
C2175 H2162 0.929 . S
C2175 C2167 1.433 1_655 S
C2175 N2177 1.384 . S
N2176 C2172 1.427 1_455 S
N2176 C2173 1.384 . S
N2177 C2169 1.427 1_655 S
N2177 C2175 1.384 . S
H2178 C2184 0.930 . S
H2179 C2188 0.930 . S
H2180 C2193 0.929 . S
H2181 C2191 0.929 . S
H2182 C2186 0.929 . S
H2183 C2192 0.929 . S
C2184 H2178 0.930 . S
C2184 C2185 1.367 . S
C2184 C2192 1.378 . S
C2185 C2184 1.367 . S
C2185 C2193 1.433 . S
C2186 H2182 0.929 . S
C2186 C2188 1.378 . S
C2186 C2190 1.350 . S
C2187 C2190 1.463 1_554 S
C2187 C2192 1.350 . S
C2187 N2195 1.427 . S
C2188 H2179 0.930 . S
C2188 C2186 1.378 . S
C2188 C2189 1.367 . S
C2189 C2188 1.367 . S
C2189 C2191 1.433 . S
C2190 C2186 1.350 . S
C2190 C2187 1.463 1_556 S
C2190 N2194 1.427 . S
C2191 H2181 0.929 . S
C2191 C2189 1.433 . S
C2191 N2194 1.384 . S
C2192 H2183 0.929 . S
C2192 C2184 1.378 . S
C2192 C2187 1.350 . S
C2193 H2180 0.929 . S
C2193 C2185 1.433 . S
C2193 N2195 1.384 . S
N2194 C2190 1.427 . S
N2194 C2191 1.384 . S
N2195 C2187 1.427 . S
N2195 C2193 1.384 . S
H2196 C2202 0.930 . S
H2197 C2206 0.930 . S
H2198 C2211 0.929 . S
H2199 C2209 0.929 . S
H2200 C2204 0.929 . S
H2201 C2210 0.929 . S
C2202 H2196 0.930 . S
C2202 C2203 1.367 1_545 S
C2202 C2210 1.378 . S
C2203 C2202 1.367 1_565 S
C2203 C2211 1.433 . S
C2204 H2200 0.929 . S
C2204 C2206 1.378 . S
C2204 C2208 1.350 1_565 S
C2205 C2208 1.456 1_564 S
C2205 C2210 1.330 1_565 S
C2205 N2213 1.457 . S
C2206 H2197 0.930 . S
C2206 C2204 1.378 . S
C2206 C2207 1.367 1_565 S
C2207 C2206 1.367 1_545 S
C2207 C2209 1.433 . S
C2208 C2204 1.350 1_545 S
C2208 C2205 1.456 1_546 S
C2208 N2212 1.427 . S
C2209 H2199 0.929 . S
C2209 C2207 1.433 . S
C2209 N2212 1.384 . S
C2210 H2201 0.929 . S
C2210 C2202 1.378 . S
C2210 C2205 1.330 1_545 S
C2211 H2198 0.929 . S
C2211 C2203 1.433 . S
C2211 N2213 1.384 . S
N2212 C2208 1.427 . S
N2212 C2209 1.384 . S
N2213 C2205 1.457 . S
N2213 C2211 1.384 . S
H2214 C2220 0.938 . S
H2215 C2224 0.930 . S
H2216 C2229 0.929 . S
H2217 C2227 0.929 . S
H2218 C2222 0.930 1_655 S
H2219 C2228 0.929 . S
C2220 H2214 0.938 . S
C2220 C2221 1.367 . S
C2220 C2228 1.378 1_655 S
C2221 C2220 1.367 . S
C2221 C2229 1.433 . S
C2222 H2218 0.930 1_455 S
C2222 C2224 1.377 . S
C2222 C2226 1.349 . S
C2223 C2226 1.463 1_656 S
C2223 C2228 1.350 1_655 S
C2223 N2231 1.427 . S
C2224 H2215 0.930 . S
C2224 C2222 1.377 . S
C2224 C2225 1.367 . S
C2225 C2224 1.367 . S
C2225 C2227 1.433 . S
C2226 C2222 1.349 . S
C2226 C2223 1.463 1_454 S
C2226 N2230 1.427 . S
C2227 H2217 0.929 . S
C2227 C2225 1.433 . S
C2227 N2230 1.384 . S
C2228 H2219 0.929 . S
C2228 C2220 1.378 1_455 S
C2228 C2223 1.350 1_455 S
C2229 H2216 0.929 . S
C2229 C2221 1.433 . S
C2229 N2231 1.384 . S
N2230 C2226 1.427 . S
N2230 C2227 1.384 . S
N2231 C2223 1.427 . S
N2231 C2229 1.384 . S
H2232 C2238 0.930 . S
H2233 C2242 0.930 . S
H2234 C2247 0.929 . S
H2235 C2245 0.929 . S
H2236 C2240 0.929 . S
H2237 C2246 0.929 . S
C2238 H2232 0.930 . S
C2238 C2239 1.367 . S
C2238 C2246 1.378 . S
C2239 C2238 1.367 . S
C2239 C2247 1.433 . S
C2240 H2236 0.929 . S
C2240 C2242 1.378 . S
C2240 C2244 1.350 . S
C2241 C2244 1.463 1_554 S
C2241 C2246 1.350 . S
C2241 N2249 1.427 . S
C2242 H2233 0.930 . S
C2242 C2240 1.378 . S
C2242 C2243 1.367 . S
C2243 C2242 1.367 . S
C2243 C2245 1.433 . S
C2244 C2240 1.350 . S
C2244 C2241 1.463 1_556 S
C2244 N2248 1.427 . S
C2245 H2235 0.929 . S
C2245 C2243 1.433 . S
C2245 N2248 1.384 . S
C2246 H2237 0.929 . S
C2246 C2238 1.378 . S
C2246 C2241 1.350 . S
C2247 H2234 0.929 . S
C2247 C2239 1.433 . S
C2247 N2249 1.384 . S
N2248 C2244 1.427 . S
N2248 C2245 1.384 . S
N2249 C2241 1.427 . S
N2249 C2247 1.384 . S
H2250 C2256 0.930 . S
H2251 C2260 0.930 . S
H2252 C2265 0.929 . S
H2253 C2263 0.929 . S
H2254 C2258 0.929 . S
H2255 C2264 0.929 . S
C2256 H2250 0.930 . S
C2256 C2257 1.367 . S
C2256 C2264 1.378 . S
C2257 C2256 1.367 . S
C2257 C2265 1.433 1_565 S
C2258 H2254 0.929 . S
C2258 C2260 1.378 . S
C2258 C2262 1.350 . S
C2259 C2262 1.463 1_564 S
C2259 C2264 1.350 . S
C2259 N2267 1.427 1_565 S
C2260 H2251 0.930 . S
C2260 C2258 1.378 . S
C2260 C2261 1.367 . S
C2261 C2260 1.367 . S
C2261 C2263 1.433 1_545 S
C2262 C2258 1.350 . S
C2262 C2259 1.463 1_546 S
C2262 N2266 1.427 1_545 S
C2263 H2253 0.929 . S
C2263 C2261 1.433 1_565 S
C2263 N2266 1.384 . S
C2264 H2255 0.929 . S
C2264 C2256 1.378 . S
C2264 C2259 1.350 . S
C2265 H2252 0.929 . S
C2265 C2257 1.433 1_545 S
C2265 N2267 1.384 . S
N2266 C2262 1.427 1_565 S
N2266 C2263 1.384 . S
N2267 C2259 1.427 1_545 S
N2267 C2265 1.384 . S
H2268 C2274 0.930 . S
H2269 C2278 0.930 . S
H2270 C2283 0.929 . S
H2271 C2281 0.929 . S
H2272 C2276 0.929 . S
H2273 C2282 0.929 . S
C2274 H2268 0.930 . S
C2274 C2275 1.367 . S
C2274 C2282 1.378 . S
C2275 C2274 1.367 . S
C2275 C2283 1.433 . S
C2276 H2272 0.929 . S
C2276 C2278 1.378 . S
C2276 C2280 1.350 . S
C2277 C2280 1.463 . S
C2277 C2282 1.350 . S
C2277 N2285 1.427 . S
C2278 H2269 0.930 . S
C2278 C2276 1.378 . S
C2278 C2279 1.367 . S
C2279 C2278 1.367 . S
C2279 C2281 1.433 . S
C2280 C2276 1.350 . S
C2280 C2277 1.463 . S
C2280 N2284 1.427 . S
C2281 H2271 0.929 . S
C2281 C2279 1.433 . S
C2281 N2284 1.384 . S
C2282 H2273 0.929 . S
C2282 C2274 1.378 . S
C2282 C2277 1.350 . S
C2283 H2270 0.929 . S
C2283 C2275 1.433 . S
C2283 N2285 1.384 . S
N2284 C2280 1.427 . S
N2284 C2281 1.384 . S
N2285 C2277 1.427 . S
N2285 C2283 1.384 . S
H2286 C2292 0.930 . S
H2287 C2296 0.930 . S
H2288 C2301 0.929 . S
H2289 C2299 0.929 . S
H2290 C2294 0.929 . S
H2291 C2300 0.929 . S
C2292 H2286 0.930 . S
C2292 C2293 1.367 . S
C2292 C2300 1.378 . S
C2293 C2292 1.367 . S
C2293 C2301 1.433 . S
C2294 H2290 0.929 . S
C2294 C2296 1.378 . S
C2294 C2298 1.350 . S
C2295 C2298 1.463 . S
C2295 C2300 1.350 . S
C2295 N2303 1.427 . S
C2296 H2287 0.930 . S
C2296 C2294 1.378 . S
C2296 C2297 1.367 . S
C2297 C2296 1.367 . S
C2297 C2299 1.433 . S
C2298 C2294 1.350 . S
C2298 C2295 1.463 . S
C2298 N2302 1.427 . S
C2299 H2289 0.929 . S
C2299 C2297 1.433 . S
C2299 N2302 1.384 . S
C2300 H2291 0.929 . S
C2300 C2292 1.378 . S
C2300 C2295 1.350 . S
C2301 H2288 0.929 . S
C2301 C2293 1.433 . S
C2301 N2303 1.384 . S
N2302 C2298 1.427 . S
N2302 C2299 1.384 . S
N2303 C2295 1.427 . S
N2303 C2301 1.384 . S
H2304 C2310 0.930 . S
H2305 C2314 0.930 . S
H2306 C2319 0.929 . S
H2307 C2317 0.929 . S
H2308 C2312 0.929 . S
H2309 C2318 0.929 . S
C2310 H2304 0.930 . S
C2310 C2311 1.367 . S
C2310 C2318 1.378 . S
C2311 C2310 1.367 . S
C2311 C2319 1.433 . S
C2312 H2308 0.929 . S
C2312 C2314 1.378 . S
C2312 C2316 1.350 . S
C2313 C2316 1.463 . S
C2313 C2318 1.350 . S
C2313 N2321 1.427 . S
C2314 H2305 0.930 . S
C2314 C2312 1.378 . S
C2314 C2315 1.367 . S
C2315 C2314 1.367 . S
C2315 C2317 1.433 . S
C2316 C2312 1.350 . S
C2316 C2313 1.463 . S
C2316 N2320 1.427 . S
C2317 H2307 0.929 . S
C2317 C2315 1.433 . S
C2317 N2320 1.384 . S
C2318 H2309 0.929 . S
C2318 C2310 1.378 . S
C2318 C2313 1.350 . S
C2319 H2306 0.929 . S
C2319 C2311 1.433 . S
C2319 N2321 1.384 . S
N2320 C2316 1.427 . S
N2320 C2317 1.384 . S
N2321 C2313 1.427 . S
N2321 C2319 1.384 . S
H2322 C2328 0.930 . S
H2323 C2332 0.930 . S
H2324 C2337 0.929 . S
H2325 C2335 0.929 . S
H2326 C2330 0.929 . S
H2327 C2336 0.929 . S
C2328 H2322 0.930 . S
C2328 C2329 1.367 . S
C2328 C2336 1.378 . S
C2329 C2328 1.367 . S
C2329 C2337 1.433 . S
C2330 H2326 0.929 . S
C2330 C2332 1.378 . S
C2330 C2334 1.350 . S
C2331 C2334 1.463 . S
C2331 C2336 1.350 . S
C2331 N2339 1.427 . S
C2332 H2323 0.930 . S
C2332 C2330 1.378 . S
C2332 C2333 1.367 . S
C2333 C2332 1.367 . S
C2333 C2335 1.433 . S
C2334 C2330 1.350 . S
C2334 C2331 1.463 . S
C2334 N2338 1.427 . S
C2335 H2325 0.929 . S
C2335 C2333 1.433 . S
C2335 N2338 1.384 . S
C2336 H2327 0.929 . S
C2336 C2328 1.378 . S
C2336 C2331 1.350 . S
C2337 H2324 0.929 . S
C2337 C2329 1.433 . S
C2337 N2339 1.384 . S
N2338 C2334 1.427 . S
N2338 C2335 1.384 . S
N2339 C2331 1.427 . S
N2339 C2337 1.384 . S
H2340 C2346 0.930 . S
H2341 C2350 0.930 . S
H2342 C2355 0.929 . S
H2343 C2353 0.929 . S
H2344 C2348 0.929 . S
H2345 C2354 0.929 . S
C2346 H2340 0.930 . S
C2346 C2347 1.367 . S
C2346 C2354 1.378 . S
C2347 C2346 1.367 . S
C2347 C2355 1.433 . S
C2348 H2344 0.929 . S
C2348 C2350 1.378 . S
C2348 C2352 1.350 . S
C2349 C2352 1.463 . S
C2349 C2354 1.350 . S
C2349 N2357 1.427 . S
C2350 H2341 0.930 . S
C2350 C2348 1.378 . S
C2350 C2351 1.367 . S
C2351 C2350 1.367 . S
C2351 C2353 1.433 . S
C2352 C2348 1.350 . S
C2352 C2349 1.463 . S
C2352 N2356 1.427 . S
C2353 H2343 0.929 . S
C2353 C2351 1.433 . S
C2353 N2356 1.384 . S
C2354 H2345 0.929 . S
C2354 C2346 1.378 . S
C2354 C2349 1.350 . S
C2355 H2342 0.929 . S
C2355 C2347 1.433 . S
C2355 N2357 1.384 . S
N2356 C2352 1.427 . S
N2356 C2353 1.384 . S
N2357 C2349 1.427 . S
N2357 C2355 1.384 . S
H2358 C2364 0.930 . S
H2359 C2368 0.930 . S
H2360 C2373 0.929 . S
H2361 C2371 0.929 . S
H2362 C2366 0.929 . S
H2363 C2372 0.929 . S
C2364 H2358 0.930 . S
C2364 C2365 1.367 . S
C2364 C2372 1.378 . S
C2365 C2364 1.367 . S
C2365 C2373 1.433 . S
C2366 H2362 0.929 . S
C2366 C2368 1.378 . S
C2366 C2370 1.350 . S
C2367 C2370 1.463 . S
C2367 C2372 1.350 . S
C2367 N2375 1.427 . S
C2368 H2359 0.930 . S
C2368 C2366 1.378 . S
C2368 C2369 1.367 . S
C2369 C2368 1.367 . S
C2369 C2371 1.433 . S
C2370 C2366 1.350 . S
C2370 C2367 1.463 . S
C2370 N2374 1.427 . S
C2371 H2361 0.929 . S
C2371 C2369 1.433 . S
C2371 N2374 1.384 . S
C2372 H2363 0.929 . S
C2372 C2364 1.378 . S
C2372 C2367 1.350 . S
C2373 H2360 0.929 . S
C2373 C2365 1.433 . S
C2373 N2375 1.384 . S
N2374 C2370 1.427 . S
N2374 C2371 1.384 . S
N2375 C2367 1.427 . S
N2375 C2373 1.384 . S
H2376 C2382 0.930 . S
H2377 C2386 0.930 . S
H2378 C2391 0.929 . S
H2379 C2389 0.929 . S
H2380 C2384 0.929 . S
H2381 C2390 0.929 . S
C2382 H2376 0.930 . S
C2382 C2383 1.367 . S
C2382 C2390 1.378 . S
C2383 C2382 1.367 . S
C2383 C2391 1.433 . S
C2384 H2380 0.929 . S
C2384 C2386 1.378 . S
C2384 C2388 1.350 . S
C2385 C2388 1.463 . S
C2385 C2390 1.350 . S
C2385 N2393 1.427 . S
C2386 H2377 0.930 . S
C2386 C2384 1.378 . S
C2386 C2387 1.367 . S
C2387 C2386 1.367 . S
C2387 C2389 1.433 . S
C2388 C2384 1.350 . S
C2388 C2385 1.463 . S
C2388 N2392 1.427 . S
C2389 H2379 0.929 . S
C2389 C2387 1.433 . S
C2389 N2392 1.384 . S
C2390 H2381 0.929 . S
C2390 C2382 1.378 . S
C2390 C2385 1.350 . S
C2391 H2378 0.929 . S
C2391 C2383 1.433 . S
C2391 N2393 1.384 . S
N2392 C2388 1.427 . S
N2392 C2389 1.384 . S
N2393 C2385 1.427 . S
N2393 C2391 1.384 . S
H2394 C2400 0.930 . S
H2395 C2404 0.930 . S
H2396 C2409 0.929 . S
H2397 C2407 0.929 . S
H2398 C2402 0.929 . S
H2399 C2408 0.929 . S
C2400 H2394 0.930 . S
C2400 C2401 1.367 . S
C2400 C2408 1.378 . S
C2401 C2400 1.367 . S
C2401 C2409 1.433 . S
C2402 H2398 0.929 . S
C2402 C2404 1.378 . S
C2402 C2406 1.350 . S
C2403 C2406 1.463 . S
C2403 C2408 1.350 . S
C2403 N2411 1.427 . S
C2404 H2395 0.930 . S
C2404 C2402 1.378 . S
C2404 C2405 1.367 . S
C2405 C2404 1.367 . S
C2405 C2407 1.433 . S
C2406 C2402 1.350 . S
C2406 C2403 1.463 . S
C2406 N2410 1.427 . S
C2407 H2397 0.929 . S
C2407 C2405 1.433 . S
C2407 N2410 1.384 . S
C2408 H2399 0.929 . S
C2408 C2400 1.378 . S
C2408 C2403 1.350 . S
C2409 H2396 0.929 . S
C2409 C2401 1.433 . S
C2409 N2411 1.384 . S
N2410 C2406 1.427 . S
N2410 C2407 1.384 . S
N2411 C2403 1.427 . S
N2411 C2409 1.384 . S
H2412 C2418 0.930 . S
H2413 C2422 0.930 . S
H2414 C2427 0.929 . S
H2415 C2425 0.929 . S
H2416 C2420 0.929 . S
H2417 C2426 0.929 . S
C2418 H2412 0.930 . S
C2418 C2419 1.367 . S
C2418 C2426 1.378 . S
C2419 C2418 1.367 . S
C2419 C2427 1.433 . S
C2420 H2416 0.929 . S
C2420 C2422 1.378 . S
C2420 C2424 1.350 . S
C2421 C2424 1.463 . S
C2421 C2426 1.350 . S
C2421 N2429 1.427 . S
C2422 H2413 0.930 . S
C2422 C2420 1.378 . S
C2422 C2423 1.367 . S
C2423 C2422 1.367 . S
C2423 C2425 1.433 . S
C2424 C2420 1.350 . S
C2424 C2421 1.463 . S
C2424 N2428 1.427 . S
C2425 H2415 0.929 . S
C2425 C2423 1.433 . S
C2425 N2428 1.384 . S
C2426 H2417 0.929 . S
C2426 C2418 1.378 . S
C2426 C2421 1.350 . S
C2427 H2414 0.929 . S
C2427 C2419 1.433 . S
C2427 N2429 1.384 . S
N2428 C2424 1.427 . S
N2428 C2425 1.384 . S
N2429 C2421 1.427 . S
N2429 C2427 1.384 . S
H2430 C2436 0.930 . S
H2431 C2440 0.930 . S
H2432 C2445 0.929 . S
H2433 C2443 0.929 . S
H2434 C2438 0.929 . S
H2435 C2444 0.929 . S
C2436 H2430 0.930 . S
C2436 C2437 1.367 . S
C2436 C2444 1.378 . S
C2437 C2436 1.367 . S
C2437 C2445 1.433 . S
C2438 H2434 0.929 . S
C2438 C2440 1.378 . S
C2438 C2442 1.350 . S
C2439 C2442 1.463 . S
C2439 C2444 1.350 . S
C2439 N2447 1.427 . S
C2440 H2431 0.930 . S
C2440 C2438 1.378 . S
C2440 C2441 1.367 . S
C2441 C2440 1.367 . S
C2441 C2443 1.433 . S
C2442 C2438 1.350 . S
C2442 C2439 1.463 . S
C2442 N2446 1.427 . S
C2443 H2433 0.929 . S
C2443 C2441 1.433 . S
C2443 N2446 1.384 . S
C2444 H2435 0.929 . S
C2444 C2436 1.378 . S
C2444 C2439 1.350 . S
C2445 H2432 0.929 . S
C2445 C2437 1.433 . S
C2445 N2447 1.384 . S
N2446 C2442 1.427 . S
N2446 C2443 1.384 . S
N2447 C2439 1.427 . S
N2447 C2445 1.384 . S
H2448 C2454 0.930 . S
H2449 C2458 0.930 . S
H2450 C2463 0.929 . S
H2451 C2461 0.929 . S
H2452 C2456 0.929 . S
H2453 C2462 0.929 . S
C2454 H2448 0.930 . S
C2454 C2455 1.367 . S
C2454 C2462 1.378 . S
C2455 C2454 1.367 . S
C2455 C2463 1.433 . S
C2456 H2452 0.929 . S
C2456 C2458 1.378 . S
C2456 C2460 1.350 . S
C2457 C2460 1.463 . S
C2457 C2462 1.350 . S
C2457 N2465 1.427 . S
C2458 H2449 0.930 . S
C2458 C2456 1.378 . S
C2458 C2459 1.367 . S
C2459 C2458 1.367 . S
C2459 C2461 1.433 . S
C2460 C2456 1.350 . S
C2460 C2457 1.463 . S
C2460 N2464 1.427 . S
C2461 H2451 0.929 . S
C2461 C2459 1.433 . S
C2461 N2464 1.384 . S
C2462 H2453 0.929 . S
C2462 C2454 1.378 . S
C2462 C2457 1.350 . S
C2463 H2450 0.929 . S
C2463 C2455 1.433 . S
C2463 N2465 1.384 . S
N2464 C2460 1.427 . S
N2464 C2461 1.384 . S
N2465 C2457 1.427 . S
N2465 C2463 1.384 . S
H2466 C2472 0.930 . S
H2467 C2476 0.930 . S
H2468 C2481 0.929 . S
H2469 C2479 0.929 . S
H2470 C2474 0.929 . S
H2471 C2480 0.929 . S
C2472 H2466 0.930 . S
C2472 C2473 1.367 . S
C2472 C2480 1.378 . S
C2473 C2472 1.367 . S
C2473 C2481 1.433 . S
C2474 H2470 0.929 . S
C2474 C2476 1.378 . S
C2474 C2478 1.350 . S
C2475 C2478 1.463 . S
C2475 C2480 1.350 . S
C2475 N2483 1.427 . S
C2476 H2467 0.930 . S
C2476 C2474 1.378 . S
C2476 C2477 1.367 . S
C2477 C2476 1.367 . S
C2477 C2479 1.433 . S
C2478 C2474 1.350 . S
C2478 C2475 1.463 . S
C2478 N2482 1.427 . S
C2479 H2469 0.929 . S
C2479 C2477 1.433 . S
C2479 N2482 1.384 . S
C2480 H2471 0.929 . S
C2480 C2472 1.378 . S
C2480 C2475 1.350 . S
C2481 H2468 0.929 . S
C2481 C2473 1.433 . S
C2481 N2483 1.384 . S
N2482 C2478 1.427 . S
N2482 C2479 1.384 . S
N2483 C2475 1.427 . S
N2483 C2481 1.384 . S
C1519 C1158 1.799 . S
C1523 C56 1.668 . S
C1537 C140 1.670 . S
C1541 C1242 1.794 . S
C1555 C224 1.669 . S
C1559 C1074 1.800 . S
C1573 C234 1.799 . S
C1577 C644 1.677 . S
C1591 C728 1.686 . S
C1595 C66 1.787 . S
C1609 C150 1.799 . S
C1613 C560 1.677 . S
C1627 C319 1.676 . S
C1631 C915 1.790 . S
C1645 C403 1.682 . S
C1649 C999 1.787 . S
C1663 C831 1.798 . S
C1667 C487 1.680 . S
C1681 C1411 1.674 . S
C1685 C495 1.791 . S
C1699 C327 1.787 . S
C1703 C1495 1.685 . S
C1717 C1327 1.685 . S
C1721 C411 1.794 . S
C1735 C738 1.800 . S
C1739 C1148 1.675 . S
C1753 C570 1.800 . S
C1757 C1232 1.671 . S
C1771 C654 1.799 . S
C1775 C1064 1.678 . S
C1789 C823 1.674 . S
C1793 C1419 1.800 . S
C1807 C1503 1.792 . S
C1811 C907 1.672 . S
C1825 C1335 1.800 . S
C1829 C991 1.670 . S
C1843 C75 1.861 . S
C1847 C392 1.941 . S
C1861 C476 1.941 . S
C1865 C159 1.864 . S
C1879 C308 1.941 . S
C1883 C243 1.861 . S
C1897 C402 1.853 . S
C1901 C235 1.938 . S
C1915 C486 1.852 . S
C1919 C67 1.939 . S
C1933 C318 1.851 . S
C1937 C151 1.938 . S
C1951 C896 1.938 . S
C1955 C579 1.855 . S
C1969 C980 1.939 . S
C1973 C663 1.852 . S
C1987 C812 1.941 . S
C1991 C747 1.864 . S
C2005 C906 1.859 . S
C2009 C739 1.941 . S
C2023 C990 1.852 . S
C2027 C571 1.938 . S
C2041 C822 1.864 . S
C2045 C655 1.940 . S
C2059 C1400 1.939 . S
C2063 C1083 1.852 . S
C2077 C1484 1.941 . S
C2081 C1167 1.865 . S
C2095 C1251 1.852 . S
C2099 C1316 1.939 . S
C2113 C1243 1.938 . S
C2117 C1410 1.852 . S
C2131 C1075 1.942 . S
C2135 C1494 1.863 . S
C2149 C1326 1.858 . S
C2153 C1159 1.938 . S
C2167 C63 1.229 . S
C2171 C72 1.229 . S
C2185 C147 1.214 . S
C2189 C156 1.214 . S
C2203 C231 1.202 . S
C2207 C240 1.202 . S
C2221 C324 1.210 . S
C2225 C315 1.210 . S
C2239 C399 1.203 . S
C2243 C408 1.203 . S
C2257 C483 1.234 . S
C2261 C492 1.234 . S
C2275 C576 1.213 . S
C2279 C567 1.213 . S
C2293 C651 1.219 . S
C2297 C660 1.219 . S
C2311 C744 1.234 . S
C2315 C735 1.234 . S
C2329 C828 1.227 . S
C2333 C819 1.227 . S
C2347 C912 1.202 . S
C2351 C903 1.202 . S
C2365 C996 1.204 . S
C2369 C987 1.204 . S
C2383 C1080 1.202 . S
C2387 C1071 1.202 . S
C2401 C1155 1.221 . S
C2405 C1164 1.221 . S
C2419 C1239 1.227 . S
C2423 C1248 1.227 . S
C2437 C1323 1.207 . S
C2441 C1332 1.207 . S
C2455 C1407 1.202 . S
C2459 C1416 1.202 . S
C2473 C1500 1.227 . S
C2477 C1491 1.227 . S
