# Generated by pormake.
# Topology fnt, (5)-cn, num edge types: 1
# Building blocks:
#     Node 0, Type 0, BuildingBlock: BEQFEK_clean_sbu_0, # of connection points: 5
#     Node 1, Type 0, BuildingBlock: BEQFEK_clean_sbu_0, # of connection points: 5
#     Node 2, Type 0, BuildingBlock: BEQFEK_clean_sbu_0, # of connection points: 5
#     Node 3, Type 0, BuildingBlock: BEQFEK_clean_sbu_0, # of connection points: 5
#     Node 4, Type 0, BuildingBlock: BEQFEK_clean_sbu_0, # of connection points: 5
#     Node 5, Type 0, BuildingBlock: BEQFEK_clean_sbu_0, # of connection points: 5
#     Edge 6, Type (0, 0), BuildingBlock: CIFDUS_clean_linker_0, # of connection points: 2
#     Edge 7, Type (0, 0), BuildingBlock: CIFDUS_clean_linker_0, # of connection points: 2
#     Edge 8, Type (0, 0), BuildingBlock: CIFDUS_clean_linker_0, # of connection points: 2
#     Edge 9, Type (0, 0), BuildingBlock: CIFDUS_clean_linker_0, # of connection points: 2
#     Edge 10, Type (0, 0), BuildingBlock: CIFDUS_clean_linker_0, # of connection points: 2
#     Edge 11, Type (0, 0), BuildingBlock: CIFDUS_clean_linker_0, # of connection points: 2
#     Edge 12, Type (0, 0), BuildingBlock: CIFDUS_clean_linker_0, # of connection points: 2
#     Edge 13, Type (0, 0), BuildingBlock: CIFDUS_clean_linker_0, # of connection points: 2
#     Edge 14, Type (0, 0), BuildingBlock: CIFDUS_clean_linker_0, # of connection points: 2
#     Edge 15, Type (0, 0), BuildingBlock: CIFDUS_clean_linker_0, # of connection points: 2
#     Edge 16, Type (0, 0), BuildingBlock: CIFDUS_clean_linker_0, # of connection points: 2
#     Edge 17, Type (0, 0), BuildingBlock: CIFDUS_clean_linker_0, # of connection points: 2
#     Edge 18, Type (0, 0), BuildingBlock: CIFDUS_clean_linker_0, # of connection points: 2
#     Edge 19, Type (0, 0), BuildingBlock: CIFDUS_clean_linker_0, # of connection points: 2
#     Edge 20, Type (0, 0), BuildingBlock: CIFDUS_clean_linker_0, # of connection points: 2
# Relax obj value: 0.215
# Max RMSD: 0.169
# Mean RMSD: 0.169
data_MOF--net-fnt--node1-BEQFEK_clean_sbu_0--edge1-CIFDUS_clean_linker_0
_symmetry_space_group_name_H-M    P1
_symmetry_Int_Tables_number       1
_symmetry_cell_setting            triclinic
loop_
_symmetry_equiv_pos_as_xyz
'x, y, z'
_cell_length_a     23.108288
_cell_length_b     23.206534
_cell_length_c     48.068534
_cell_angle_alpha  90.336076
_cell_angle_beta   89.408341
_cell_angle_gamma 120.6131
loop_
_atom_site_label
_atom_site_type_symbol
_atom_site_fract_x
_atom_site_fract_y
_atom_site_fract_z
_atom_type_partial_charge
Co0 Co 0.16395 0.36714 0.07428 0.0
Co1 Co 0.18882 0.38401 1.00883 0.0
C2 C 0.29531 0.40042 0.04965 0.0
O3 O 0.25912 0.38973 0.07136 0.0
O4 O 0.27374 0.40074 1.02541 0.0
C5 C 0.12119 0.37254 0.13176 0.0
O6 O 0.14087 0.43547 0.12665 0.0
C7 C 0.23536 0.36588 0.95411 0.0
C8 C 0.17243 0.38303 0.92501 0.0
C9 C 0.22243 0.367 0.92618 0.0
N10 N 0.19527 0.3809 0.96903 0.0
N11 N 0.15803 0.3916 0.95146 0.0
C12 C 0.28134 0.34568 0.96647 0.0
H13 H 0.25782 0.31551 0.98549 0.0
H14 H 0.29292 0.31621 0.95153 0.0
H15 H 0.32898 0.39157 0.9722 0.0
C16 C 0.06038 0.2327 0.05533 0.0
N17 N 0.10963 0.29557 0.04976 0.0
N18 N 0.11924 0.30234 1.02263 0.0
C19 C 0.07648 0.24394 1.01017 0.0
C20 C 0.03773 0.1982 0.03049 0.0
C21 C 0.03854 0.20484 0.08402 0.0
H22 H 0.01893 0.23352 0.0951 0.0
H23 H 0.0825 0.21075 0.09563 0.0
H24 H -0.00139 0.1512 0.08364 0.0
O25 O 0.15249 0.44302 0.06452 0.0
O26 O 0.1662 0.45258 1.01852 0.0
H27 H 0.06813 0.26454 0.96761 0.0
H28 H 0.03943 0.17768 0.97446 0.0
C29 C 0.07782 0.22999 0.97981 0.0
H30 H 0.12825 0.23892 0.97395 0.0
H31 H 0.12195 0.40362 0.95754 0.0
O32 O 0.12915 0.3379 0.1131 0.0
C33 C 0.15228 0.47017 0.04159 0.0
Co34 Co 0.79422 0.13349 0.41138 0.0
Co35 Co 0.81747 0.17975 0.34821 0.0
C36 C 0.84687 0.27546 0.39615 0.0
O37 O 0.82981 0.23069 0.41479 0.0
O38 O 0.84256 0.26165 0.37022 0.0
C39 C 0.74412 0.09361 0.46724 0.0
O40 O 0.71566 0.12925 0.46258 0.0
C41 C 0.89569 0.25205 0.29753 0.0
C42 C 0.83294 0.18066 0.26487 0.0
C43 C 0.89279 0.24023 0.269 0.0
N44 N 0.84045 0.20116 0.3096 0.0
N45 N 0.80276 0.15942 0.28983 0.0
C46 C 0.95279 0.30667 0.31341 0.0
H47 H 0.95155 0.29125 0.33533 0.0
H48 H 0.00161 0.31973 0.30353 0.0
H49 H 0.94799 0.35187 0.3133 0.0
C50 C 0.88943 0.09093 0.39517 0.0
N51 N 0.85428 0.12079 0.38925 0.0
N52 N 0.86288 0.13795 0.36276 0.0
C53 C 0.90313 0.11836 0.35091 0.0
C54 C 0.92134 0.08852 0.3711 0.0
C55 C 0.88721 0.06017 0.42274 0.0
H56 H 0.83496 0.01933 0.42709 0.0
H57 H 0.90161 0.09842 0.43933 0.0
H58 H 0.9211 0.03943 0.42325 0.0
O59 O 0.70502 0.08401 0.39405 0.0
O60 O 0.71999 0.11526 0.34976 0.0
H61 H 0.87681 0.1046 0.30783 0.0
H62 H 0.952 0.1022 0.31542 0.0
C63 C 0.92262 0.1265 0.32078 0.0
H64 H 0.95389 0.18051 0.3159 0.0
H65 H 0.75756 0.1149 0.29352 0.0
O66 O 0.78245 0.09124 0.44864 0.0
C67 C 0.68231 0.07959 0.36965 0.0
Co68 Co 0.59268 0.79937 0.75037 0.0
Co69 Co 0.56935 0.8101 0.68604 0.0
C70 C 0.54342 0.88675 0.73125 0.0
O71 O 0.55933 0.86254 0.7515 0.0
O72 O 0.5445 0.86933 0.70611 0.0
C73 C 0.59012 0.74936 0.80654 0.0
O74 O 0.52523 0.70972 0.80279 0.0
C75 C 0.5947 0.88417 0.63335 0.0
C76 C 0.56687 0.80435 0.6021 0.0
C77 C 0.59335 0.87272 0.6049 0.0
N78 N 0.57057 0.82537 0.64672 0.0
N79 N 0.55314 0.77775 0.62785 0.0
C80 C 0.62516 0.9505 0.64773 0.0
H81 H 0.6408 0.94683 0.66908 0.0
H82 H 0.66916 -0.01087 0.63579 0.0
H83 H 0.58718 0.96617 0.64911 0.0
C84 C 0.73114 0.85496 0.72916 0.0
N85 N 0.66537 0.83082 0.72476 0.0
N86 N 0.65548 0.83216 0.69789 0.0
C87 C 0.71451 0.85577 0.68431 0.0
C88 C 0.76412 0.8713 0.70368 0.0
C89 C 0.76217 0.86761 0.75736 0.0
H90 H 0.75231 0.81937 0.76623 0.0
H91 H 0.73899 0.88867 0.7713 0.0
H92 H 0.81726 0.90283 0.7565 0.0
O93 O 0.52195 0.70881 0.73916 0.0
O94 O 0.50691 0.71419 0.69382 0.0
H95 H 0.68142 0.81835 0.64308 0.0
H96 H 0.77149 0.86567 0.64689 0.0
C97 C 0.7236 0.86223 0.65339 0.0
H98 H 0.72476 0.90829 0.64651 0.0
H99 H 0.53422 0.7274 0.6326 0.0
O100 O 0.62533 0.79119 0.78763 0.0
C101 C 0.49359 0.68105 0.71637 0.0
Co102 Co 0.8242 0.63036 0.07596 0.0
Co103 Co 0.78381 0.61306 1.01266 0.0
C104 C 0.68364 0.54493 0.06046 0.0
O105 O 0.72654 0.57131 0.07988 0.0
O106 O 0.70068 0.55599 0.0348 0.0
C107 C 0.85692 0.65754 0.13681 0.0
O108 O 0.79465 0.63968 0.14333 0.0
C109 C 0.71311 0.62796 0.96474 0.0
C110 C 0.77542 0.62741 0.92969 0.0
C111 C 0.7211 0.63507 0.93603 0.0
N112 N 0.76094 0.61718 0.97482 0.0
N113 N 0.79731 0.61594 0.95368 0.0
C114 C 0.66535 0.63759 0.98262 0.0
H115 H 0.68481 0.65127 1.00413 0.0
H116 H 0.65708 0.67689 0.97378 0.0
H117 H 0.61629 0.58997 0.98341 0.0
C118 C 0.87607 0.77076 0.06219 0.0
N119 N 0.84276 0.70583 0.05514 0.0
N120 N 0.82892 0.69994 0.0284 0.0
C121 C 0.85414 0.76154 1.01746 0.0
C122 C 0.88479 0.80806 0.03855 0.0
C123 C 0.89889 0.79606 0.09107 0.0
H124 H 0.94372 0.79231 0.09588 0.0
H125 H 0.85848 0.7646 0.10616 0.0
H126 H 0.91184 0.8489 0.09342 0.0
O127 O 0.86782 0.5875 0.05734 0.0
O128 O 0.84572 0.57797 1.0123 0.0
H129 H 0.86783 0.74333 0.97482 0.0
H130 H 0.89152 0.82889 0.98214 0.0
C131 C 0.85479 0.77577 0.98709 0.0
H132 H 0.80401 0.76463 0.98092 0.0
H133 H 0.8387 0.60969 0.95573 0.0
O134 O 0.87324 0.65691 0.11157 0.0
C135 C 0.8761 0.57178 0.03292 0.0
Co136 Co 0.19263 0.7919 0.41168 0.0
Co137 Co 0.17348 0.77291 0.34655 0.0
C138 C 0.08707 0.66441 0.38975 0.0
O139 O 0.11666 0.69838 0.41139 0.0
O140 O 0.10615 0.68791 0.36522 0.0
C141 C 0.20369 0.81912 0.47404 0.0
O142 O 0.15437 0.75885 0.48048 0.0
C143 C 0.09238 0.73779 0.29578 0.0
C144 C 0.16814 0.79763 0.26367 0.0
C145 C 0.09963 0.75555 0.26788 0.0
N146 N 0.15332 0.7694 0.30766 0.0
N147 N 0.19856 0.80433 0.28823 0.0
C148 C 0.03009 0.68725 0.31063 0.0
H149 H 0.03944 0.64851 0.31915 0.0
H150 H 0.01942 0.71172 0.32824 0.0
H151 H -0.014 0.66181 0.29681 0.0
C152 C 0.15629 0.89343 0.39949 0.0
N153 N 0.17057 0.84676 0.39092 0.0
N154 N 0.16706 0.84243 0.36362 0.0
C155 C 0.1522 0.88756 0.35388 0.0
C156 C 0.14459 0.92103 0.37629 0.0
C157 C 0.14624 0.90519 0.42936 0.0
H158 H 0.12219 0.85711 0.44089 0.0
H159 H 0.11433 0.92798 0.43156 0.0
H160 H 0.19592 0.93931 0.43879 0.0
O161 O 0.2754 0.79953 0.3963 0.0
O162 O 0.2668 0.79327 0.3503 0.0
H163 H 0.1446 0.94537 0.32042 0.0
H164 H 0.09745 0.85564 0.31584 0.0
C165 C 0.14504 0.89832 0.32374 0.0
H166 H 0.1876 0.90117 0.31178 0.0
H167 H 0.24998 0.83444 0.29193 0.0
O168 O 0.22068 0.83458 0.44875 0.0
C169 C 0.30037 0.80214 0.37233 0.0
Co170 Co 0.33308 0.18434 0.73982 0.0
Co171 Co 0.3478 0.17001 0.67531 0.0
C172 C 0.43294 0.15302 0.71877 0.0
O173 O 0.40422 0.16132 0.7399 0.0
O174 O 0.41637 0.15769 0.69405 0.0
C175 C 0.33711 0.24302 0.79278 0.0
O176 O 0.3967 0.28978 0.78393 0.0
C177 C 0.33384 0.08329 0.62835 0.0
C178 C 0.32849 0.13965 0.59259 0.0
C179 C 0.32296 0.07929 0.59987 0.0
N180 N 0.34335 0.14238 0.63751 0.0
N181 N 0.34125 0.17632 0.61596 0.0
C182 C 0.33628 0.03258 0.64669 0.0
H183 H 0.37981 0.05795 0.66084 0.0
H184 H 0.29024 0.0074 0.65982 0.0
H185 H 0.34083 -0.00545 0.63433 0.0
C186 C 0.19677 0.07333 0.72852 0.0
N187 N 0.25944 0.11797 0.72 0.0
N188 N 0.26348 0.11468 0.69276 0.0
C189 C 0.20245 0.06929 0.68295 0.0
C190 C 0.15885 0.04094 0.70535 0.0
C191 C 0.17237 0.06755 0.7579 0.0
H192 H 0.17038 0.11308 0.76324 0.0
H193 H 0.20822 0.06465 0.77217 0.0
H194 H 0.12158 0.02309 0.76096 0.0
O195 O 0.36297 0.27228 0.72262 0.0
O196 O 0.37079 0.26429 0.67688 0.0
H197 H 0.21304 0.103 0.64065 0.0
H198 H 0.13053 0.03375 0.64922 0.0
C199 C 0.18512 0.05596 0.65273 0.0
H200 H 0.19898 0.01964 0.64485 0.0
H201 H 0.34591 0.2234 0.61737 0.0
O202 O 0.30305 0.19114 0.77791 0.0
C203 C 0.3745 0.29805 0.69844 0.0
H204 H 0.38764 0.4639 0.09079 0.0
H205 H 0.35346 0.35425 1.01417 0.0
H206 H 0.47004 0.38259 1.01249 0.0
H207 H 0.58426 0.44973 0.0296 0.0
H208 H 0.62146 0.55932 0.10647 0.0
H209 H 0.5011 0.5181 0.11187 0.0
C210 C 0.40575 0.44555 0.07402 0.0
C211 C 0.36303 0.4097 0.0519 0.0
C212 C 0.47331 0.46185 0.07331 0.0
C213 C 0.38643 0.38497 0.03057 0.0
C214 C 0.45289 0.40037 0.02981 0.0
C215 C 0.56583 0.4635 0.04782 0.0
C216 C 0.6114 0.50811 0.06735 0.0
C217 C 0.49725 0.44076 0.0505 0.0
C218 C 0.58706 0.5249 0.09111 0.0
C219 C 0.51837 0.5019 0.09407 0.0
H220 H 0.84463 0.37627 0.36968 0.0
H221 H 0.92937 0.33341 0.44051 0.0
H222 H 0.00861 0.4531 0.44713 0.0
H223 H 0.06451 0.5684 0.42805 0.0
H224 H 0.97478 0.60956 0.35861 0.0
H225 H 0.88693 0.49237 0.35607 0.0
C226 C 0.87945 0.39335 0.38694 0.0
C227 C 0.88198 0.34647 0.40432 0.0
C228 C 0.92495 0.4618 0.39046 0.0
C229 C 0.92658 0.36888 0.42686 0.0
C230 C 0.97231 0.43722 0.43049 0.0
C231 C 0.02499 0.55168 0.41274 0.0
C232 C 0.02801 0.59654 0.39249 0.0
C233 C 0.97369 0.48397 0.41172 0.0
C234 C 0.97577 0.57491 0.37319 0.0
C235 C 0.92491 0.50811 0.37202 0.0
H236 H 0.43199 0.07627 0.7614 0.0
H237 H 0.52932 0.16351 0.68299 0.0
H238 H 0.57673 0.09075 0.68129 0.0
H239 H 0.57669 -0.00776 0.69851 0.0
H240 H 0.47786 0.90154 0.77606 0.0
H241 H 0.44471 0.98604 0.78184 0.0
C242 C 0.46538 0.08083 0.74443 0.0
C243 C 0.47667 0.12462 0.7222 0.0
C244 C 0.4906 0.03717 0.7431 0.0
C245 C 0.51964 0.12981 0.70023 0.0
C246 C 0.54626 0.08787 0.69912 0.0
C247 C 0.54793 -0.00895 0.71668 0.0
C248 C 0.52791 0.93996 0.73642 0.0
C249 C 0.52947 0.03944 0.71978 0.0
C250 C 0.49285 0.9401 0.76041 0.0
C251 C 0.47405 0.98833 0.7637 0.0
H252 H 0.47408 0.60033 0.6721 0.0
H253 H 0.4253 0.59692 0.75924 0.0
H254 H 0.37996 0.4763 0.76068 0.0
H255 H 0.36581 0.37522 0.73869 0.0
H256 H 0.41891 0.37818 0.65208 0.0
H257 H 0.45117 0.49604 0.64895 0.0
C258 C 0.45196 0.57287 0.69121 0.0
C259 C 0.4532 0.60739 0.71556 0.0
C260 C 0.42813 0.50392 0.69213 0.0
C261 C 0.42507 0.57138 0.74026 0.0
C262 C 0.39957 0.50256 0.74115 0.0
C263 C 0.38426 0.40141 0.71905 0.0
C264 C 0.39101 0.36823 0.69577 0.0
C265 C 0.40299 0.46889 0.71746 0.0
C266 C 0.41388 0.40275 0.6704 0.0
C267 C 0.4322 0.47007 0.66858 0.0
H268 H 0.97165 0.5896 0.06934 0.0
H269 H 0.90007 0.51733 0.98644 0.0
H270 H -0.01087 0.49054 0.98003 0.0
H271 H 0.08053 0.47925 0.99966 0.0
H272 H 0.14734 0.54715 0.0834 0.0
H273 H 0.06782 0.58668 0.08744 0.0
C274 C 0.97508 0.56769 0.04984 0.0
C275 C 0.92839 0.55405 0.02859 0.0
C276 C 0.02618 0.55293 0.04632 0.0
C277 C 0.93481 0.5273 1.00325 0.0
C278 C -0.01411 0.51242 0.99954 0.0
C279 C 0.07912 0.50455 1.01849 0.0
C280 C 0.11961 0.51036 0.04124 0.0
C281 C 0.03125 0.52426 1.02109 0.0
C282 C 0.11666 0.54231 0.06564 0.0
C283 C 0.07077 0.56417 0.06805 0.0
H284 H 0.38322 0.88667 0.33272 0.0
H285 H 0.38139 0.78899 0.40909 0.0
H286 H 0.50202 0.8661 0.41429 0.0
H287 H 0.60333 0.96978 0.40057 0.0
H288 H 0.60505 0.07107 0.32526 0.0
H289 H 0.4884 0.98435 0.31637 0.0
C290 C 0.40974 0.88081 0.34996 0.0
C291 C 0.37374 0.83241 0.37053 0.0
C292 C 0.47832 0.92727 0.35349 0.0
C293 C 0.40834 0.8259 0.393 0.0
C294 C 0.47701 0.87046 0.39616 0.0
C295 C 0.57821 0.97305 0.38222 0.0
C296 C 0.61214 0.02754 0.36394 0.0
C297 C 0.51166 0.92305 0.3772 0.0
C298 C 0.57955 0.03008 0.33986 0.0
C299 C 0.51307 0.98037 0.3347 0.0
H300 H 0.08163 0.11743 0.04545 0.0
H301 H 0.9134 0.11882 1.00857 0.0
H302 H 0.85116 -0.00425 1.00615 0.0
H303 H 0.84371 0.88833 1.01729 0.0
H304 H 0.01319 0.88924 0.05442 0.0
H305 H 0.0768 0.01157 0.05409 0.0
C306 C 0.03136 0.09036 0.03684 0.0
C307 C 0.00108 0.12554 0.0275 0.0
C308 C -0.00339 0.02071 0.0357 0.0
C309 C 0.93667 0.09148 1.01601 0.0
C310 C 0.90145 0.02164 1.01467 0.0
C311 C 0.89484 0.91575 1.02496 0.0
C312 C 0.92403 0.88097 0.03613 0.0
C313 C 0.93069 0.98578 1.02481 0.0
C314 C -0.01 0.91589 0.04611 0.0
C315 C 0.02621 0.98544 0.04587 0.0
H316 H 0.0326 0.89656 0.35002 0.0
H317 H 0.19099 0.04071 0.40249 0.0
H318 H 0.13628 0.10765 0.40489 0.0
H319 H 0.04026 0.12153 0.39345 0.0
H320 H 0.88372 0.97778 0.34026 0.0
H321 H 0.94153 0.91421 0.33606 0.0
C322 C 0.05582 0.94343 0.36143 0.0
C323 C 0.11556 0.96438 0.37593 0.0
C324 C 0.0244 0.9812 0.36255 0.0
C325 C 0.14472 0.02411 0.39125 0.0
C326 C 0.11358 0.06214 0.39259 0.0
C327 C 0.01957 0.07654 0.38081 0.0
C328 C 0.95848 0.05364 0.36717 0.0
C329 C 0.05299 0.04064 0.37859 0.0
C330 C 0.93116 -0.00428 0.35077 0.0
C331 C 0.96395 0.95955 0.34846 0.0
H332 H 0.07111 0.06909 0.68254 0.0
H333 H 0.08505 0.91662 0.72741 0.0
H334 H 0.96194 0.84748 0.72962 0.0
H335 H 0.85102 0.83419 0.72066 0.0
H336 H 0.8384 0.98792 0.67604 0.0
H337 H 0.96079 0.05274 0.67105 0.0
C338 C 0.04682 0.02009 0.69228 0.0
C339 C 0.08583 -0.00295 0.7046 0.0
C340 C 0.97681 0.9813 0.69342 0.0
C341 C 0.05497 0.93449 0.71773 0.0
C342 C -0.01497 0.8953 0.719 0.0
C343 C 0.87548 0.88167 0.7097 0.0
C344 C 0.83682 0.9068 0.69875 0.0
C345 C 0.94554 0.9187 0.70723 0.0
C346 C 0.86792 0.96789 0.68441 0.0
C347 C 0.93759 0.00497 0.68172 0.0
H348 H 0.16045 0.2706 0.88728 0.0
H349 H 0.35503 0.43016 0.91286 0.0
H350 H 0.40857 0.40523 0.87408 0.0
H351 H 0.39944 0.33844 0.83264 0.0
H352 H 0.20506 0.17417 0.80884 0.0
H353 H 0.15213 0.19972 0.84731 0.0
C354 C 0.2145 0.29989 0.88415 0.0
C355 C 0.25395 0.35242 0.9025 0.0
C356 C 0.24491 0.28402 0.86232 0.0
C357 C 0.32397 0.38962 0.89877 0.0
C358 C 0.35447 0.37528 0.87669 0.0
C359 C 0.34556 0.30797 0.83597 0.0
C360 C 0.30633 0.25471 0.81775 0.0
C361 C 0.31542 0.32256 0.85833 0.0
C362 C 0.23659 0.21541 0.82252 0.0
C363 C 0.20613 0.23017 0.84446 0.0
H364 H 0.09651 0.43069 0.1766 0.0
H365 H 0.06066 0.24028 0.14557 0.0
H366 H -0.01112 0.1837 0.18557 0.0
H367 H 0.93105 0.1868 0.22804 0.0
H368 H 0.96817 0.37605 0.26048 0.0
H369 H 0.04515 0.4346 0.22152 0.0
C370 C 0.07347 0.3769 0.17869 0.0
C371 C 0.08341 0.33985 0.15775 0.0
C372 C 0.03234 0.34439 0.20203 0.0
C373 C 0.05356 0.2702 0.16107 0.0
C374 C 0.01235 0.23762 0.184 0.0
C375 C 0.95634 0.24095 0.22665 0.0
C376 C 0.94394 0.27709 0.24705 0.0
C377 C 0.00052 0.27402 0.20434 0.0
C378 C 0.97747 0.34721 0.24519 0.0
C379 C 0.02112 0.38059 0.22281 0.0
H380 H 0.67553 0.09632 0.5133 0.0
H381 H 0.77133 -0.00574 0.47777 0.0
H382 H 0.73324 0.91737 0.51719 0.0
H383 H 0.66903 0.87613 0.56097 0.0
H384 H 0.57589 0.97956 0.59727 0.0
H385 H 0.61661 0.05886 0.55845 0.0
C386 C 0.68847 0.05754 0.51426 0.0
C387 C 0.72596 0.05096 0.49246 0.0
C388 C 0.66664 0.01353 0.53711 0.0
C389 C 0.74262 0.00064 0.4942 0.0
C390 C 0.72062 0.95639 0.51671 0.0
C391 C 0.65782 0.91617 0.56035 0.0
C392 C 0.61972 0.92219 0.58194 0.0
C393 C 0.68194 0.96185 0.53811 0.0
C394 C 0.6059 0.97448 0.58107 0.0
C395 C 0.62888 0.01959 0.5588 0.0
H396 H 0.53151 0.66702 0.85149 0.0
H397 H 0.72464 0.81248 0.81685 0.0
H398 H 0.78135 0.79087 0.85416 0.0
H399 H 0.77688 0.72659 0.89518 0.0
H400 H 0.58531 0.58384 0.93133 0.0
H401 H 0.52722 0.60874 0.89511 0.0
C402 C 0.58598 0.6944 0.85223 0.0
C403 C 0.6236 0.74068 0.83105 0.0
C404 C 0.61861 0.6821 0.87401 0.0
C405 C 0.69421 0.77613 0.83258 0.0
C406 C 0.72686 0.7638 0.85396 0.0
C407 C 0.72238 0.70126 0.89519 0.0
C408 C 0.68534 0.65344 0.9158 0.0
C409 C 0.68964 0.71618 0.87449 0.0
C410 C 0.61486 0.62137 0.91582 0.0
C411 C 0.5817 0.63533 0.89501 0.0
H412 H 0.84949 0.6834 0.19196 0.0
H413 H -0.0183 0.67454 0.13012 0.0
H414 H 0.0676 0.70362 0.16507 0.0
H415 H 0.10546 0.73028 0.21335 0.0
H416 H 0.97739 0.74663 0.27479 0.0
H417 H 0.88975 0.71526 0.24011 0.0
C418 C 0.89705 0.68778 0.18617 0.0
C419 C 0.90878 0.67648 0.15846 0.0
C420 C 0.94693 0.70522 0.2064 0.0
C421 C 0.97106 0.68296 0.15127 0.0
C422 C 0.0204 0.69951 0.17127 0.0
C423 C 0.05827 0.72683 0.21911 0.0
C424 C 0.04681 0.7379 0.24682 0.0
C425 C 0.00886 0.71055 0.19889 0.0
C426 C -0.01387 0.73491 0.2539 0.0
C427 C 0.93631 0.71791 0.23397 0.0
H428 H 0.36042 0.08104 0.5465 0.0
H429 H 0.23066 0.94762 0.61072 0.0
H430 H 0.185 0.8539 0.57801 0.0
H431 H 0.17677 0.81131 0.53009 0.0
H432 H 0.30615 0.947 0.46604 0.0
H433 H 0.35663 0.03773 0.4996 0.0
C434 C 0.32272 0.03122 0.55337 0.0
C435 C 0.3 0.02106 0.58107 0.0
C436 C 0.29599 0.97786 0.53436 0.0
C437 C 0.25063 0.95644 0.58971 0.0
C438 C 0.22384 0.90291 0.57091 0.0
C439 C 0.21638 0.86055 0.52355 0.0
C440 C 0.23703 0.87209 0.49548 0.0
C441 C 0.2455 0.91318 0.54304 0.0
C442 C 0.2887 0.93639 0.48743 0.0
C443 C 0.31779 -0.01139 0.50662 0.0
loop_
_geom_bond_atom_site_label_1
_geom_bond_atom_site_label_2
_geom_bond_distance
_geom_bond_site_symmetry_2
_ccdc_geom_bond_type
Co0 O3 1.970 . S
Co0 N17 1.989 . S
Co0 O25 1.967 . S
Co0 O32 1.920 . S
Co1 O4 1.955 1_556 S
Co1 N10 2.022 . S
Co1 N18 1.993 1_556 S
Co1 O26 1.941 . S
C2 O3 1.258 . S
C2 O4 1.291 . S
O3 Co0 1.970 . S
O3 C2 1.258 . S
O4 Co1 1.955 1_554 S
O4 C2 1.291 . S
C5 O6 1.235 . S
C5 O32 1.289 . S
O6 C5 1.235 . S
C7 C9 1.400 . S
C7 N10 1.351 . S
C7 C12 1.501 . S
C8 C9 1.387 . S
C8 N11 1.341 . S
C9 C7 1.400 . S
C9 C8 1.387 . S
N10 Co1 2.022 . S
N10 C7 1.351 . S
N10 N11 1.365 . S
N11 C8 1.341 . S
N11 N10 1.365 . S
N11 H31 0.862 . S
C12 C7 1.501 . S
C12 H13 0.961 . S
C12 H14 0.961 . S
C12 H15 0.960 . S
H13 C12 0.961 . S
H14 C12 0.961 . S
H15 C12 0.960 . S
C16 N17 1.342 . S
C16 C20 1.401 . S
C16 C21 1.499 . S
N17 Co0 1.989 . S
N17 C16 1.342 . S
N17 N18 1.388 . S
N18 Co1 1.993 1_554 S
N18 N17 1.388 . S
N18 C19 1.346 1_554 S
C19 N18 1.346 1_556 S
C19 C20 1.396 1_556 S
C19 C29 1.510 . S
C20 C16 1.401 . S
C20 C19 1.396 1_554 S
C21 C16 1.499 . S
C21 H22 0.959 . S
C21 H23 0.960 . S
C21 H24 0.948 1_455 S
H22 C21 0.959 . S
H23 C21 0.960 . S
H24 C21 0.948 1_655 S
O25 Co0 1.967 . S
O25 C33 1.258 . S
O26 Co1 1.941 . S
O26 C33 1.266 1_556 S
H27 C29 0.959 . S
H28 C29 0.961 . S
C29 C19 1.510 . S
C29 H27 0.959 . S
C29 H28 0.961 . S
C29 H30 0.960 . S
H30 C29 0.960 . S
H31 N11 0.862 . S
O32 Co0 1.920 . S
O32 C5 1.289 . S
C33 O25 1.258 . S
C33 O26 1.266 1_554 S
Co34 O37 1.970 . S
Co34 N51 1.989 . S
Co34 O59 1.967 . S
Co34 O66 1.920 . S
Co35 O38 1.966 . S
Co35 N44 2.022 . S
Co35 N52 1.993 . S
Co35 O60 1.941 . S
C36 O37 1.258 . S
C36 O38 1.263 . S
O37 Co34 1.970 . S
O37 C36 1.258 . S
O38 Co35 1.966 . S
O38 C36 1.263 . S
C39 O40 1.235 . S
C39 O66 1.289 . S
O40 C39 1.235 . S
C41 C43 1.400 . S
C41 N44 1.351 . S
C41 C46 1.501 . S
C42 C43 1.387 . S
C42 N45 1.341 . S
C43 C41 1.400 . S
C43 C42 1.387 . S
N44 Co35 2.022 . S
N44 C41 1.351 . S
N44 N45 1.365 . S
N45 C42 1.341 . S
N45 N44 1.365 . S
N45 H65 0.862 . S
C46 C41 1.501 . S
C46 H47 0.961 . S
C46 H48 0.961 1_655 S
C46 H49 0.960 . S
H47 C46 0.961 . S
H48 C46 0.961 1_455 S
H49 C46 0.960 . S
C50 N51 1.342 . S
C50 C54 1.401 . S
C50 C55 1.499 . S
N51 Co34 1.989 . S
N51 C50 1.342 . S
N51 N52 1.388 . S
N52 Co35 1.993 . S
N52 N51 1.388 . S
N52 C53 1.346 . S
C53 N52 1.346 . S
C53 C54 1.396 . S
C53 C63 1.510 . S
C54 C50 1.401 . S
C54 C53 1.396 . S
C55 C50 1.499 . S
C55 H56 0.959 . S
C55 H57 0.960 . S
C55 H58 0.950 1_545 S
H56 C55 0.959 . S
H57 C55 0.960 . S
H58 C55 0.950 1_565 S
O59 Co34 1.967 . S
O59 C67 1.258 . S
O60 Co35 1.941 . S
O60 C67 1.266 . S
H61 C63 0.959 . S
H62 C63 0.961 1_455 S
C63 C53 1.510 . S
C63 H61 0.959 . S
C63 H62 0.961 1_655 S
C63 H64 0.960 . S
H64 C63 0.960 . S
H65 N45 0.862 . S
O66 Co34 1.920 . S
O66 C39 1.289 . S
C67 O59 1.258 . S
C67 O60 1.266 . S
Co68 O71 1.970 . S
Co68 N85 1.989 . S
Co68 O93 1.967 . S
Co68 O100 1.920 . S
Co69 O72 1.966 . S
Co69 N78 2.022 . S
Co69 N86 1.993 . S
Co69 O94 1.941 . S
C70 O71 1.258 . S
C70 O72 1.263 . S
O71 Co68 1.970 . S
O71 C70 1.258 . S
O72 Co69 1.966 . S
O72 C70 1.263 . S
C73 O74 1.235 . S
C73 O100 1.289 . S
O74 C73 1.235 . S
C75 C77 1.400 . S
C75 N78 1.351 . S
C75 C80 1.501 . S
C76 C77 1.387 . S
C76 N79 1.341 . S
C77 C75 1.400 . S
C77 C76 1.387 . S
N78 Co69 2.022 . S
N78 C75 1.351 . S
N78 N79 1.365 . S
N79 C76 1.341 . S
N79 N78 1.365 . S
N79 H99 0.862 . S
C80 C75 1.501 . S
C80 H81 0.961 . S
C80 H82 0.961 1_565 S
C80 H83 0.960 . S
H81 C80 0.961 . S
H82 C80 0.961 1_545 S
H83 C80 0.960 . S
C84 N85 1.342 . S
C84 C88 1.401 . S
C84 C89 1.499 . S
N85 Co68 1.989 . S
N85 C84 1.342 . S
N85 N86 1.388 . S
N86 Co69 1.993 . S
N86 N85 1.388 . S
N86 C87 1.346 . S
C87 N86 1.346 . S
C87 C88 1.396 . S
C87 C97 1.510 . S
C88 C84 1.401 . S
C88 C87 1.396 . S
C89 C84 1.499 . S
C89 H90 0.959 . S
C89 H91 0.960 . S
C89 H92 0.961 . S
H90 C89 0.959 . S
H91 C89 0.960 . S
H92 C89 0.961 . S
O93 Co68 1.967 . S
O93 C101 1.258 . S
O94 Co69 1.941 . S
O94 C101 1.266 . S
H95 C97 0.959 . S
H96 C97 0.961 1_545 S
C97 C87 1.510 . S
C97 H95 0.959 . S
C97 H96 0.961 1_565 S
C97 H98 0.960 . S
H98 C97 0.960 . S
H99 N79 0.862 . S
O100 Co68 1.920 . S
O100 C73 1.289 . S
C101 O93 1.258 . S
C101 O94 1.266 . S
Co102 O105 1.970 . S
Co102 N119 1.989 . S
Co102 O127 1.967 . S
Co102 O134 1.920 . S
Co103 O106 1.955 1_556 S
Co103 N112 2.022 . S
Co103 N120 1.993 1_556 S
Co103 O128 1.941 . S
C104 O105 1.258 . S
C104 O106 1.291 . S
O105 Co102 1.970 . S
O105 C104 1.258 . S
O106 Co103 1.955 1_554 S
O106 C104 1.291 . S
C107 O108 1.235 . S
C107 O134 1.289 . S
O108 C107 1.235 . S
C109 C111 1.400 . S
C109 N112 1.351 . S
C109 C114 1.501 . S
C110 C111 1.387 . S
C110 N113 1.341 . S
C111 C109 1.400 . S
C111 C110 1.387 . S
N112 Co103 2.022 . S
N112 C109 1.351 . S
N112 N113 1.365 . S
N113 C110 1.341 . S
N113 N112 1.365 . S
N113 H133 0.862 . S
C114 C109 1.501 . S
C114 H115 0.961 . S
C114 H116 0.961 . S
C114 H117 0.960 . S
H115 C114 0.961 . S
H116 C114 0.961 . S
H117 C114 0.960 . S
C118 N119 1.342 . S
C118 C122 1.401 . S
C118 C123 1.499 . S
N119 Co102 1.989 . S
N119 C118 1.342 . S
N119 N120 1.388 . S
N120 Co103 1.993 1_554 S
N120 N119 1.388 . S
N120 C121 1.346 1_554 S
C121 N120 1.346 1_556 S
C121 C122 1.396 1_556 S
C121 C131 1.510 . S
C122 C118 1.401 . S
C122 C121 1.396 1_554 S
C123 C118 1.499 . S
C123 H124 0.959 . S
C123 H125 0.960 . S
C123 H126 0.948 1_655 S
H124 C123 0.959 . S
H125 C123 0.960 . S
H126 C123 0.948 1_455 S
O127 Co102 1.967 . S
O127 C135 1.258 . S
O128 Co103 1.941 . S
O128 C135 1.266 1_556 S
H129 C131 0.959 . S
H130 C131 0.961 . S
C131 C121 1.510 . S
C131 H129 0.959 . S
C131 H130 0.961 . S
C131 H132 0.960 . S
H132 C131 0.960 . S
H133 N113 0.862 . S
O134 Co102 1.920 . S
O134 C107 1.289 . S
C135 O127 1.258 . S
C135 O128 1.266 1_554 S
Co136 O139 1.970 . S
Co136 N153 1.989 . S
Co136 O161 1.967 . S
Co136 O168 1.920 . S
Co137 O140 1.966 . S
Co137 N146 2.022 . S
Co137 N154 1.993 . S
Co137 O162 1.941 . S
C138 O139 1.258 . S
C138 O140 1.263 . S
O139 Co136 1.970 . S
O139 C138 1.258 . S
O140 Co137 1.966 . S
O140 C138 1.263 . S
C141 O142 1.235 . S
C141 O168 1.289 . S
O142 C141 1.235 . S
C143 C145 1.400 . S
C143 N146 1.351 . S
C143 C148 1.501 . S
C144 C145 1.387 . S
C144 N147 1.341 . S
C145 C143 1.400 . S
C145 C144 1.387 . S
N146 Co137 2.022 . S
N146 C143 1.351 . S
N146 N147 1.365 . S
N147 C144 1.341 . S
N147 N146 1.365 . S
N147 H167 0.862 . S
C148 C143 1.501 . S
C148 H149 0.961 . S
C148 H150 0.961 1_455 S
C148 H151 0.960 . S
H149 C148 0.961 . S
H150 C148 0.961 1_655 S
H151 C148 0.960 . S
C152 N153 1.342 . S
C152 C156 1.401 . S
C152 C157 1.499 . S
N153 Co136 1.989 . S
N153 C152 1.342 . S
N153 N154 1.388 . S
N154 Co137 1.993 . S
N154 N153 1.388 . S
N154 C155 1.346 . S
C155 N154 1.346 . S
C155 C156 1.396 . S
C155 C165 1.510 . S
C156 C152 1.401 . S
C156 C155 1.396 . S
C157 C152 1.499 . S
C157 H158 0.959 . S
C157 H159 0.960 . S
C157 H160 0.950 1_565 S
H158 C157 0.959 . S
H159 C157 0.960 . S
H160 C157 0.950 1_545 S
O161 Co136 1.967 . S
O161 C169 1.258 . S
O162 Co137 1.941 . S
O162 C169 1.266 . S
H163 C165 0.959 . S
H164 C165 0.961 1_655 S
C165 C155 1.510 . S
C165 H163 0.959 . S
C165 H164 0.961 1_455 S
C165 H166 0.960 . S
H166 C165 0.960 . S
H167 N147 0.862 . S
O168 Co136 1.920 . S
O168 C141 1.289 . S
C169 O161 1.258 . S
C169 O162 1.266 . S
Co170 O173 1.970 . S
Co170 N187 1.989 . S
Co170 O195 1.967 . S
Co170 O202 1.920 . S
Co171 O174 1.966 . S
Co171 N180 2.022 . S
Co171 N188 1.993 . S
Co171 O196 1.941 . S
C172 O173 1.258 . S
C172 O174 1.263 . S
O173 Co170 1.970 . S
O173 C172 1.258 . S
O174 Co171 1.966 . S
O174 C172 1.263 . S
C175 O176 1.235 . S
C175 O202 1.289 . S
O176 C175 1.235 . S
C177 C179 1.400 . S
C177 N180 1.351 . S
C177 C182 1.501 . S
C178 C179 1.387 . S
C178 N181 1.341 . S
C179 C177 1.400 . S
C179 C178 1.387 . S
N180 Co171 2.022 . S
N180 C177 1.351 . S
N180 N181 1.365 . S
N181 C178 1.341 . S
N181 N180 1.365 . S
N181 H201 0.862 . S
C182 C177 1.501 . S
C182 H183 0.961 . S
C182 H184 0.961 1_545 S
C182 H185 0.960 . S
H183 C182 0.961 . S
H184 C182 0.961 1_565 S
H185 C182 0.960 . S
C186 N187 1.342 . S
C186 C190 1.401 . S
C186 C191 1.499 . S
N187 Co170 1.989 . S
N187 C186 1.342 . S
N187 N188 1.388 . S
N188 Co171 1.993 . S
N188 N187 1.388 . S
N188 C189 1.346 . S
C189 N188 1.346 . S
C189 C190 1.396 . S
C189 C199 1.510 . S
C190 C186 1.401 . S
C190 C189 1.396 . S
C191 C186 1.499 . S
C191 H192 0.959 . S
C191 H193 0.960 . S
C191 H194 0.961 . S
H192 C191 0.959 . S
H193 C191 0.960 . S
H194 C191 0.961 . S
O195 Co170 1.967 . S
O195 C203 1.258 . S
O196 Co171 1.941 . S
O196 C203 1.266 . S
H197 C199 0.959 . S
H198 C199 0.961 1_565 S
C199 C189 1.510 . S
C199 H197 0.959 . S
C199 H198 0.961 1_545 S
C199 H200 0.960 . S
H200 C199 0.960 . S
H201 N181 0.862 . S
O202 Co170 1.920 . S
O202 C175 1.289 . S
C203 O195 1.258 . S
C203 O196 1.266 . S
H204 C210 0.930 . S
H205 C213 0.930 . S
H206 C214 0.930 . S
H207 C215 0.930 . S
H208 C218 0.930 . S
H209 C219 0.930 . S
C210 H204 0.930 . S
C210 C211 1.355 . S
C210 C212 1.415 . S
C211 C210 1.355 . S
C211 C213 1.419 . S
C212 C210 1.415 . S
C212 C217 1.425 . S
C212 C219 1.409 . S
C213 H205 0.930 . S
C213 C211 1.419 . S
C213 C214 1.362 . S
C214 H206 0.930 . S
C214 C213 1.362 . S
C214 C217 1.409 . S
C215 H207 0.930 . S
C215 C216 1.355 . S
C215 C217 1.415 . S
C216 C215 1.355 . S
C216 C218 1.419 . S
C217 C212 1.425 . S
C217 C214 1.409 . S
C217 C215 1.415 . S
C218 H208 0.930 . S
C218 C216 1.419 . S
C218 C219 1.362 . S
C219 H209 0.930 . S
C219 C212 1.409 . S
C219 C218 1.362 . S
H220 C226 0.930 . S
H221 C229 0.930 . S
H222 C230 0.930 . S
H223 C231 0.930 . S
H224 C234 0.930 . S
H225 C235 0.930 . S
C226 H220 0.930 . S
C226 C227 1.355 . S
C226 C228 1.415 . S
C227 C226 1.355 . S
C227 C229 1.419 . S
C228 C226 1.415 . S
C228 C233 1.425 1_655 S
C228 C235 1.409 . S
C229 H221 0.930 . S
C229 C227 1.419 . S
C229 C230 1.362 1_655 S
C230 H222 0.930 . S
C230 C229 1.362 1_455 S
C230 C233 1.409 . S
C231 H223 0.930 . S
C231 C232 1.355 . S
C231 C233 1.415 . S
C232 C231 1.355 . S
C232 C234 1.419 . S
C233 C228 1.425 1_455 S
C233 C230 1.409 . S
C233 C231 1.415 . S
C234 H224 0.930 . S
C234 C232 1.419 . S
C234 C235 1.362 1_455 S
C235 H225 0.930 . S
C235 C228 1.409 . S
C235 C234 1.362 1_655 S
H236 C242 0.930 1_565 S
H237 C245 0.930 . S
H238 C246 0.930 . S
H239 C247 0.930 1_545 S
H240 C250 0.930 . S
H241 C251 0.930 . S
C242 H236 0.930 1_545 S
C242 C243 1.355 . S
C242 C244 1.415 1_545 S
C243 C242 1.355 . S
C243 C245 1.419 . S
C244 C242 1.415 1_565 S
C244 C249 1.425 1_565 S
C244 C251 1.409 . S
C245 H237 0.930 . S
C245 C243 1.419 . S
C245 C246 1.362 . S
C246 H238 0.930 . S
C246 C245 1.362 . S
C246 C249 1.409 . S
C247 H239 0.930 1_565 S
C247 C248 1.355 . S
C247 C249 1.415 1_565 S
C248 C247 1.355 . S
C248 C250 1.419 . S
C249 C244 1.425 1_545 S
C249 C246 1.409 . S
C249 C247 1.415 1_545 S
C250 H240 0.930 . S
C250 C248 1.419 . S
C250 C251 1.362 . S
C251 H241 0.930 . S
C251 C244 1.409 . S
C251 C250 1.362 . S
H252 C258 0.930 . S
H253 C261 0.930 . S
H254 C262 0.930 . S
H255 C263 0.930 . S
H256 C266 0.930 . S
H257 C267 0.930 . S
C258 H252 0.930 . S
C258 C259 1.355 . S
C258 C260 1.415 . S
C259 C258 1.355 . S
C259 C261 1.419 . S
C260 C258 1.415 . S
C260 C265 1.425 . S
C260 C267 1.409 . S
C261 H253 0.930 . S
C261 C259 1.419 . S
C261 C262 1.362 . S
C262 H254 0.930 . S
C262 C261 1.362 . S
C262 C265 1.409 . S
C263 H255 0.930 . S
C263 C264 1.355 . S
C263 C265 1.415 . S
C264 C263 1.355 . S
C264 C266 1.419 . S
C265 C260 1.425 . S
C265 C262 1.409 . S
C265 C263 1.415 . S
C266 H256 0.930 . S
C266 C264 1.419 . S
C266 C267 1.362 . S
C267 H257 0.930 . S
C267 C260 1.409 . S
C267 C266 1.362 . S
H268 C274 0.930 1_455 S
H269 C277 0.930 . S
H270 C278 0.930 . S
H271 C279 0.930 1_656 S
H272 C282 0.930 . S
H273 C283 0.930 . S
C274 H268 0.930 1_655 S
C274 C275 1.355 . S
C274 C276 1.415 1_655 S
C275 C274 1.355 . S
C275 C277 1.419 1_554 S
C276 C274 1.415 1_455 S
C276 C281 1.425 1_455 S
C276 C283 1.409 . S
C277 H269 0.930 . S
C277 C275 1.419 1_556 S
C277 C278 1.362 . S
C278 H270 0.930 . S
C278 C277 1.362 . S
C278 C281 1.409 1_556 S
C279 H271 0.930 1_454 S
C279 C280 1.355 . S
C279 C281 1.415 1_455 S
C280 C279 1.355 . S
C280 C282 1.419 . S
C281 C276 1.425 1_655 S
C281 C278 1.409 1_554 S
C281 C279 1.415 1_655 S
C282 H272 0.930 . S
C282 C280 1.419 . S
C282 C283 1.362 . S
C283 H273 0.930 . S
C283 C276 1.409 . S
C283 C282 1.362 . S
H284 C290 0.930 . S
H285 C293 0.930 . S
H286 C294 0.930 . S
H287 C295 0.930 . S
H288 C298 0.930 . S
H289 C299 0.930 . S
C290 H284 0.930 . S
C290 C291 1.355 . S
C290 C292 1.415 1_565 S
C291 C290 1.355 . S
C291 C293 1.419 . S
C292 C290 1.415 1_545 S
C292 C297 1.425 1_545 S
C292 C299 1.409 . S
C293 H285 0.930 . S
C293 C291 1.419 . S
C293 C294 1.362 . S
C294 H286 0.930 . S
C294 C293 1.362 . S
C294 C297 1.409 . S
C295 H287 0.930 . S
C295 C296 1.355 . S
C295 C297 1.415 1_545 S
C296 C295 1.355 . S
C296 C298 1.419 . S
C297 C292 1.425 1_565 S
C297 C294 1.409 . S
C297 C295 1.415 1_565 S
C298 H288 0.930 . S
C298 C296 1.419 . S
C298 C299 1.362 . S
C299 H289 0.930 . S
C299 C292 1.409 . S
C299 C298 1.362 . S
H300 C306 0.930 1_556 S
H301 C309 0.930 . S
H302 C310 0.930 . S
H303 C311 0.930 . S
H304 C314 0.925 1_556 S
H305 C315 0.930 . S
C306 H300 0.930 1_554 S
C306 C307 1.355 . S
C306 C308 1.415 . S
C307 C306 1.355 . S
C307 C309 1.419 1_455 S
C308 C306 1.415 . S
C308 C313 1.425 1_445 S
C308 C315 1.409 1_544 S
C309 H301 0.930 . S
C309 C307 1.419 1_655 S
C309 C310 1.362 . S
C310 H302 0.930 . S
C310 C309 1.362 . S
C310 C313 1.409 1_545 S
C311 H303 0.930 . S
C311 C312 1.355 . S
C311 C313 1.415 . S
C312 C311 1.355 . S
C312 C314 1.426 1_655 S
C313 C308 1.425 1_665 S
C313 C310 1.409 1_565 S
C313 C311 1.415 . S
C314 H304 0.925 1_554 S
C314 C312 1.426 1_455 S
C314 C315 1.361 1_554 S
C315 H305 0.930 . S
C315 C308 1.409 1_566 S
C315 C314 1.361 1_556 S
H316 C322 0.930 . S
H317 C325 0.930 . S
H318 C326 0.930 . S
H319 C327 0.930 . S
H320 C330 0.930 . S
H321 C331 0.930 . S
C322 H316 0.930 . S
C322 C323 1.355 . S
C322 C324 1.415 . S
C323 C322 1.355 . S
C323 C325 1.419 . S
C324 C322 1.415 . S
C324 C329 1.425 1_465 S
C324 C331 1.409 1_455 S
C325 H317 0.930 . S
C325 C323 1.419 . S
C325 C326 1.362 1_565 S
C326 H318 0.930 . S
C326 C325 1.362 1_545 S
C326 C329 1.409 1_455 S
C327 H319 0.930 . S
C327 C328 1.355 . S
C327 C329 1.415 . S
C328 C327 1.355 . S
C328 C330 1.419 . S
C329 C324 1.425 1_645 S
C329 C326 1.409 1_655 S
C329 C327 1.415 . S
C330 H320 0.930 . S
C330 C328 1.419 . S
C330 C331 1.362 1_545 S
C331 H321 0.930 . S
C331 C324 1.409 1_655 S
C331 C330 1.362 1_565 S
H332 C338 0.930 . S
H333 C341 0.930 1_565 S
H334 C342 0.930 . S
H335 C343 0.930 . S
H336 C346 0.930 1_545 S
H337 C347 0.930 . S
C338 H332 0.930 . S
C338 C339 1.355 . S
C338 C340 1.415 . S
C339 C338 1.355 . S
C339 C341 1.419 . S
C340 C338 1.415 . S
C340 C345 1.425 1_445 S
C340 C347 1.409 1_455 S
C341 H333 0.930 1_545 S
C341 C339 1.419 . S
C341 C342 1.362 1_545 S
C342 H334 0.930 . S
C342 C341 1.362 1_565 S
C342 C345 1.409 1_455 S
C343 H335 0.930 . S
C343 C344 1.355 . S
C343 C345 1.415 . S
C344 C343 1.355 . S
C344 C346 1.419 . S
C345 C340 1.425 1_665 S
C345 C342 1.409 1_655 S
C345 C343 1.415 . S
C346 H336 0.930 1_565 S
C346 C344 1.419 . S
C346 C347 1.362 1_565 S
C347 H337 0.930 . S
C347 C340 1.409 1_655 S
C347 C346 1.362 1_545 S
H348 C354 0.930 . S
H349 C357 0.930 . S
H350 C358 0.930 . S
H351 C359 0.930 . S
H352 C362 0.930 . S
H353 C363 0.930 . S
C354 H348 0.930 . S
C354 C355 1.355 . S
C354 C356 1.415 . S
C355 C354 1.355 . S
C355 C357 1.419 . S
C356 C354 1.415 . S
C356 C361 1.425 . S
C356 C363 1.409 . S
C357 H349 0.930 . S
C357 C355 1.419 . S
C357 C358 1.362 . S
C358 H350 0.930 . S
C358 C357 1.362 . S
C358 C361 1.409 . S
C359 H351 0.930 . S
C359 C360 1.355 . S
C359 C361 1.415 . S
C360 C359 1.355 . S
C360 C362 1.419 . S
C361 C356 1.425 . S
C361 C358 1.409 . S
C361 C359 1.415 . S
C362 H352 0.930 . S
C362 C360 1.419 . S
C362 C363 1.362 . S
C363 H353 0.930 . S
C363 C356 1.409 . S
C363 C362 1.362 . S
H364 C370 0.930 . S
H365 C373 0.930 . S
H366 C374 0.930 . S
H367 C375 0.930 1_655 S
H368 C378 0.930 . S
H369 C379 0.930 . S
C370 H364 0.930 . S
C370 C371 1.355 . S
C370 C372 1.415 . S
C371 C370 1.355 . S
C371 C373 1.419 . S
C372 C370 1.415 . S
C372 C377 1.425 . S
C372 C379 1.409 . S
C373 H365 0.930 . S
C373 C371 1.419 . S
C373 C374 1.362 . S
C374 H366 0.930 . S
C374 C373 1.362 . S
C374 C377 1.409 . S
C375 H367 0.930 1_455 S
C375 C376 1.355 . S
C375 C377 1.415 . S
C376 C375 1.355 . S
C376 C378 1.419 . S
C377 C372 1.425 . S
C377 C374 1.409 . S
C377 C375 1.415 . S
C378 H368 0.930 . S
C378 C376 1.419 . S
C378 C379 1.362 . S
C379 H369 0.930 . S
C379 C372 1.409 . S
C379 C378 1.362 . S
H380 C386 0.930 . S
H381 C389 0.930 . S
H382 C390 0.930 1_565 S
H383 C391 0.930 . S
H384 C394 0.930 . S
H385 C395 0.930 . S
C386 H380 0.930 . S
C386 C387 1.355 . S
C386 C388 1.415 . S
C387 C386 1.355 . S
C387 C389 1.419 . S
C388 C386 1.415 . S
C388 C393 1.425 . S
C388 C395 1.409 . S
C389 H381 0.930 . S
C389 C387 1.419 . S
C389 C390 1.362 . S
C390 H382 0.930 1_545 S
C390 C389 1.362 . S
C390 C393 1.409 . S
C391 H383 0.930 . S
C391 C392 1.355 1_565 S
C391 C393 1.415 1_565 S
C392 C391 1.355 1_545 S
C392 C394 1.419 . S
C393 C388 1.425 . S
C393 C390 1.409 . S
C393 C391 1.415 1_545 S
C394 H384 0.930 . S
C394 C392 1.419 . S
C394 C395 1.362 . S
C395 H385 0.930 . S
C395 C388 1.409 . S
C395 C394 1.362 . S
H396 C402 0.930 . S
H397 C405 0.930 . S
H398 C406 0.930 . S
H399 C407 0.930 . S
H400 C410 0.930 . S
H401 C411 0.930 . S
C402 H396 0.930 . S
C402 C403 1.355 . S
C402 C404 1.415 . S
C403 C402 1.355 . S
C403 C405 1.419 . S
C404 C402 1.415 . S
C404 C409 1.425 . S
C404 C411 1.409 . S
C405 H397 0.930 . S
C405 C403 1.419 . S
C405 C406 1.362 . S
C406 H398 0.930 . S
C406 C405 1.362 . S
C406 C409 1.409 . S
C407 H399 0.930 . S
C407 C408 1.355 . S
C407 C409 1.415 . S
C408 C407 1.355 . S
C408 C410 1.419 . S
C409 C404 1.425 . S
C409 C406 1.409 . S
C409 C407 1.415 . S
C410 H400 0.930 . S
C410 C408 1.419 . S
C410 C411 1.362 . S
C411 H401 0.930 . S
C411 C404 1.409 . S
C411 C410 1.362 . S
H412 C418 0.930 . S
H413 C421 0.930 . S
H414 C422 0.930 1_455 S
H415 C423 0.930 . S
H416 C426 0.930 . S
H417 C427 0.930 . S
C418 H412 0.930 . S
C418 C419 1.355 . S
C418 C420 1.415 . S
C419 C418 1.355 . S
C419 C421 1.419 . S
C420 C418 1.415 . S
C420 C425 1.425 . S
C420 C427 1.409 . S
C421 H413 0.930 . S
C421 C419 1.419 . S
C421 C422 1.362 . S
C422 H414 0.930 1_655 S
C422 C421 1.362 . S
C422 C425 1.409 . S
C423 H415 0.930 . S
C423 C424 1.355 1_455 S
C423 C425 1.415 1_455 S
C424 C423 1.355 1_655 S
C424 C426 1.419 . S
C425 C420 1.425 . S
C425 C422 1.409 . S
C425 C423 1.415 1_655 S
C426 H416 0.930 . S
C426 C424 1.419 . S
C426 C427 1.362 . S
C427 H417 0.930 . S
C427 C420 1.409 . S
C427 C426 1.362 . S
H428 C434 0.930 . S
H429 C437 0.930 1_545 S
H430 C438 0.930 . S
H431 C439 0.930 . S
H432 C442 0.930 . S
H433 C443 0.930 . S
C434 H428 0.930 . S
C434 C435 1.354 1_565 S
C434 C436 1.415 . S
C435 C434 1.354 1_545 S
C435 C437 1.420 1_545 S
C436 C434 1.415 . S
C436 C441 1.425 . S
C436 C443 1.409 . S
C437 H429 0.930 1_565 S
C437 C435 1.420 1_565 S
C437 C438 1.362 . S
C438 H430 0.930 . S
C438 C437 1.362 . S
C438 C441 1.409 . S
C439 H431 0.930 . S
C439 C440 1.355 . S
C439 C441 1.415 . S
C440 C439 1.355 . S
C440 C442 1.419 . S
C441 C436 1.425 . S
C441 C438 1.409 . S
C441 C439 1.415 . S
C442 H432 0.930 . S
C442 C440 1.419 . S
C442 C443 1.362 . S
C443 H433 0.930 . S
C443 C436 1.409 . S
C443 C442 1.362 . S
C211 C2 1.445 . S
C216 C104 1.448 . S
C227 C36 1.451 . S
C232 C138 1.446 . S
C243 C172 1.483 . S
C248 C70 1.478 . S
C259 C101 1.989 . S
C264 C203 1.990 . S
C275 C135 1.988 . S
C280 C33 1.986 . S
C291 C169 1.988 . S
C296 C67 1.989 . S
C307 C20 0.411 . S
C312 C122 0.419 . S
C323 C156 0.364 . S
C328 C54 0.393 . S
C339 C190 0.221 . S
C344 C88 0.250 . S
C355 C9 1.646 . S
C360 C175 1.675 . S
C371 C5 1.672 . S
C376 C43 1.653 1_455 S
C387 C39 1.669 . S
C392 C77 1.660 1_545 S
C403 C73 1.672 . S
C408 C111 1.669 . S
C419 C107 1.667 . S
C424 C145 1.674 1_655 S
C435 C179 1.621 . S
C440 C141 1.692 . S
