# Generated by pormake.
# Topology zfi, (5)-cn, num edge types: 1
# Building blocks:
#     Node 0, Type 0, BuildingBlock: XOMCOT_clean_sbu_1, # of connection points: 5
#     Node 1, Type 0, BuildingBlock: XOMCOT_clean_sbu_1, # of connection points: 5
#     Node 2, Type 0, BuildingBlock: XOMCOT_clean_sbu_1, # of connection points: 5
#     Node 3, Type 0, BuildingBlock: XOMCOT_clean_sbu_1, # of connection points: 5
#     Node 4, Type 0, BuildingBlock: XOMCOT_clean_sbu_1, # of connection points: 5
#     Node 5, Type 0, BuildingBlock: XOMCOT_clean_sbu_1, # of connection points: 5
#     Node 6, Type 0, BuildingBlock: XOMCOT_clean_sbu_1, # of connection points: 5
#     Node 7, Type 0, BuildingBlock: XOMCOT_clean_sbu_1, # of connection points: 5
#     Node 8, Type 0, BuildingBlock: XOMCOT_clean_sbu_1, # of connection points: 5
#     Node 9, Type 0, BuildingBlock: XOMCOT_clean_sbu_1, # of connection points: 5
#     Node 10, Type 0, BuildingBlock: XOMCOT_clean_sbu_1, # of connection points: 5
#     Node 11, Type 0, BuildingBlock: XOMCOT_clean_sbu_1, # of connection points: 5
#     Node 12, Type 0, BuildingBlock: XOMCOT_clean_sbu_1, # of connection points: 5
#     Node 13, Type 0, BuildingBlock: XOMCOT_clean_sbu_1, # of connection points: 5
#     Node 14, Type 0, BuildingBlock: XOMCOT_clean_sbu_1, # of connection points: 5
#     Node 15, Type 0, BuildingBlock: XOMCOT_clean_sbu_1, # of connection points: 5
#     Edge 16, Type (0, 0), BuildingBlock: KIFKEQ_clean_linker_1, # of connection points: 2
#     Edge 17, Type (0, 0), BuildingBlock: KIFKEQ_clean_linker_1, # of connection points: 2
#     Edge 18, Type (0, 0), BuildingBlock: KIFKEQ_clean_linker_1, # of connection points: 2
#     Edge 19, Type (0, 0), BuildingBlock: KIFKEQ_clean_linker_1, # of connection points: 2
#     Edge 20, Type (0, 0), BuildingBlock: KIFKEQ_clean_linker_1, # of connection points: 2
#     Edge 21, Type (0, 0), BuildingBlock: KIFKEQ_clean_linker_1, # of connection points: 2
#     Edge 22, Type (0, 0), BuildingBlock: KIFKEQ_clean_linker_1, # of connection points: 2
#     Edge 23, Type (0, 0), BuildingBlock: KIFKEQ_clean_linker_1, # of connection points: 2
#     Edge 24, Type (0, 0), BuildingBlock: KIFKEQ_clean_linker_1, # of connection points: 2
#     Edge 25, Type (0, 0), BuildingBlock: KIFKEQ_clean_linker_1, # of connection points: 2
#     Edge 26, Type (0, 0), BuildingBlock: KIFKEQ_clean_linker_1, # of connection points: 2
#     Edge 27, Type (0, 0), BuildingBlock: KIFKEQ_clean_linker_1, # of connection points: 2
#     Edge 28, Type (0, 0), BuildingBlock: KIFKEQ_clean_linker_1, # of connection points: 2
#     Edge 29, Type (0, 0), BuildingBlock: KIFKEQ_clean_linker_1, # of connection points: 2
#     Edge 30, Type (0, 0), BuildingBlock: KIFKEQ_clean_linker_1, # of connection points: 2
#     Edge 31, Type (0, 0), BuildingBlock: KIFKEQ_clean_linker_1, # of connection points: 2
#     Edge 32, Type (0, 0), BuildingBlock: KIFKEQ_clean_linker_1, # of connection points: 2
#     Edge 33, Type (0, 0), BuildingBlock: KIFKEQ_clean_linker_1, # of connection points: 2
#     Edge 34, Type (0, 0), BuildingBlock: KIFKEQ_clean_linker_1, # of connection points: 2
#     Edge 35, Type (0, 0), BuildingBlock: KIFKEQ_clean_linker_1, # of connection points: 2
#     Edge 36, Type (0, 0), BuildingBlock: KIFKEQ_clean_linker_1, # of connection points: 2
#     Edge 37, Type (0, 0), BuildingBlock: KIFKEQ_clean_linker_1, # of connection points: 2
#     Edge 38, Type (0, 0), BuildingBlock: KIFKEQ_clean_linker_1, # of connection points: 2
#     Edge 39, Type (0, 0), BuildingBlock: KIFKEQ_clean_linker_1, # of connection points: 2
#     Edge 40, Type (0, 0), BuildingBlock: KIFKEQ_clean_linker_1, # of connection points: 2
#     Edge 41, Type (0, 0), BuildingBlock: KIFKEQ_clean_linker_1, # of connection points: 2
#     Edge 42, Type (0, 0), BuildingBlock: KIFKEQ_clean_linker_1, # of connection points: 2
#     Edge 43, Type (0, 0), BuildingBlock: KIFKEQ_clean_linker_1, # of connection points: 2
#     Edge 44, Type (0, 0), BuildingBlock: KIFKEQ_clean_linker_1, # of connection points: 2
#     Edge 45, Type (0, 0), BuildingBlock: KIFKEQ_clean_linker_1, # of connection points: 2
#     Edge 46, Type (0, 0), BuildingBlock: KIFKEQ_clean_linker_1, # of connection points: 2
#     Edge 47, Type (0, 0), BuildingBlock: KIFKEQ_clean_linker_1, # of connection points: 2
#     Edge 48, Type (0, 0), BuildingBlock: KIFKEQ_clean_linker_1, # of connection points: 2
#     Edge 49, Type (0, 0), BuildingBlock: KIFKEQ_clean_linker_1, # of connection points: 2
#     Edge 50, Type (0, 0), BuildingBlock: KIFKEQ_clean_linker_1, # of connection points: 2
#     Edge 51, Type (0, 0), BuildingBlock: KIFKEQ_clean_linker_1, # of connection points: 2
#     Edge 52, Type (0, 0), BuildingBlock: KIFKEQ_clean_linker_1, # of connection points: 2
#     Edge 53, Type (0, 0), BuildingBlock: KIFKEQ_clean_linker_1, # of connection points: 2
#     Edge 54, Type (0, 0), BuildingBlock: KIFKEQ_clean_linker_1, # of connection points: 2
#     Edge 55, Type (0, 0), BuildingBlock: KIFKEQ_clean_linker_1, # of connection points: 2
# Relax obj value: 0.107
# Max RMSD: 0.125
# Mean RMSD: 0.125
data_MOF--net-zfi--node1-XOMCOT_clean_sbu_1--edge1-KIFKEQ_clean_linker_1
_symmetry_space_group_name_H-M    P1
_symmetry_Int_Tables_number       1
_symmetry_cell_setting            triclinic
loop_
_symmetry_equiv_pos_as_xyz
'x, y, z'
_cell_length_a     39.334227
_cell_length_b     39.313422
_cell_length_c     49.115382
_cell_angle_alpha  89.879371
_cell_angle_beta   90.223114
_cell_angle_gamma 90.048676
loop_
_atom_site_label
_atom_site_type_symbol
_atom_site_fract_x
_atom_site_fract_y
_atom_site_fract_z
_atom_type_partial_charge
C0 C 0.64025 0.12884 0.10827 0.0
C1 C 0.65348 0.16125 0.10859 0.0
N2 N 0.67508 0.16389 0.12983 0.0
N3 N 0.65321 0.11081 0.12929 0.0
C4 C 0.67391 0.13318 0.14229 0.0
H5 H 0.62388 0.11872 0.09256 0.0
Co6 Co 0.64974 0.0633 0.1346 0.0
C7 C 0.63079 0.05336 0.19357 0.0
O8 O 0.64586 0.02355 0.19376 0.0
N9 N 0.64644 0.01581 0.13894 0.0
C10 C 0.65651 0.96021 0.13809 0.0
C11 C 0.67024 0.99192 0.13396 0.0
C12 C 0.61822 0.99782 0.14537 0.0
N13 N 0.62375 0.96391 0.14542 0.0
O14 O 0.60464 0.06253 0.11809 0.0
H15 H 0.69582 0.99683 0.12716 0.0
H16 H 0.59423 1.00961 0.15042 0.0
O17 O 0.63066 0.07142 0.17172 0.0
C18 C 0.60803 0.05144 0.09374 0.0
O19 O 0.6391 0.04695 0.08465 0.0
N20 N 0.69522 0.06249 0.14708 0.0
C21 C 0.76334 0.04642 0.15487 0.0
C22 C 0.74219 0.05218 0.17724 0.0
C23 C 0.70823 0.0611 0.17291 0.0
C24 C 0.71647 0.06066 0.12525 0.0
C25 C 0.75073 0.05257 0.12867 0.0
H26 H 0.69289 0.06614 0.19043 0.0
H27 H 0.70607 0.06285 0.10491 0.0
H28 H 0.68915 0.12664 0.15987 0.0
H29 H 0.64934 0.1805 0.09315 0.0
H30 H 0.66957 0.93629 0.13519 0.0
H31 H 0.75153 0.04856 0.19782 0.0
H32 H 0.76645 0.04847 0.11091 0.0
C33 C 0.38646 0.63046 0.11883 0.0
C34 C 0.35435 0.64438 0.11864 0.0
N35 N 0.35604 0.67578 0.12946 0.0
N36 N 0.40886 0.65289 0.12955 0.0
C37 C 0.38916 0.68003 0.13616 0.0
H38 H 0.39275 0.60557 0.11111 0.0
Co39 Co 0.45712 0.64767 0.13285 0.0
C40 C 0.46911 0.61778 0.18904 0.0
O41 O 0.50199 0.62298 0.18785 0.0
N42 N 0.50518 0.64255 0.13541 0.0
C43 C 0.56095 0.65145 0.14024 0.0
C44 C 0.52953 0.66661 0.1388 0.0
C45 C 0.52295 0.61303 0.13411 0.0
N46 N 0.55665 0.61779 0.13726 0.0
O47 O 0.4552 0.60393 0.11504 0.0
H48 H 0.52528 0.6936 0.14054 0.0
H49 H 0.51144 0.58816 0.13248 0.0
O50 O 0.44979 0.62671 0.16917 0.0
C51 C 0.45996 0.60666 0.08939 0.0
O52 O 0.46028 0.63732 0.07867 0.0
N53 N 0.46053 0.69149 0.14721 0.0
C54 C 0.47647 0.75913 0.15832 0.0
C55 C 0.47141 0.73572 0.17963 0.0
C56 C 0.46334 0.70183 0.17365 0.0
C57 C 0.46307 0.71431 0.12643 0.0
C58 C 0.47107 0.74817 0.13149 0.0
H59 H 0.46054 0.6841 0.19023 0.0
H60 H 0.46069 0.70557 0.10564 0.0
H61 H 0.3987 0.70274 0.1458 0.0
H62 H 0.33177 0.6325 0.11035 0.0
H63 H 0.58511 0.66417 0.14318 0.0
H64 H 0.47471 0.74323 0.20067 0.0
H65 H 0.47512 0.76495 0.1143 0.0
C66 C 0.88997 0.37926 0.1078 0.0
C67 C 0.87611 0.34727 0.11037 0.0
N68 N 0.85037 0.34874 0.12833 0.0
N69 N 0.87321 0.4012 0.12405 0.0
C70 C 0.84964 0.38151 0.13666 0.0
H71 H 0.90991 0.38606 0.09377 0.0
Co72 Co 0.87716 0.44932 0.12459 0.0
C73 C 0.89422 0.46657 0.18328 0.0
O74 O 0.88041 0.49691 0.18134 0.0
N75 N 0.88108 0.49673 0.1242 0.0
C76 C 0.87494 0.55099 0.11229 0.0
C77 C 0.85995 0.51935 0.1122 0.0
C78 C 0.90885 0.51515 0.13108 0.0
N79 N 0.90562 0.54818 0.12427 0.0
O80 O 0.92325 0.4475 0.11107 0.0
H81 H 0.83588 0.51315 0.10279 0.0
H82 H 0.93161 0.50427 0.13996 0.0
O83 O 0.89376 0.44634 0.16281 0.0
C84 C 0.92336 0.45244 0.08531 0.0
O85 O 0.89412 0.45176 0.07228 0.0
N86 N 0.83097 0.45281 0.13435 0.0
C87 C 0.76194 0.46943 0.13636 0.0
C88 C 0.78201 0.46924 0.16013 0.0
C89 C 0.81634 0.46022 0.15879 0.0
C90 C 0.81127 0.44977 0.11162 0.0
C91 C 0.77673 0.45759 0.11219 0.0
H92 H 0.83067 0.45998 0.17738 0.0
H93 H 0.82298 0.44292 0.09251 0.0
H94 H 0.83132 0.39121 0.151 0.0
H95 H 0.88311 0.32518 0.09855 0.0
H96 H 0.86443 0.57412 0.10373 0.0
H97 H 0.77199 0.47756 0.17948 0.0
H98 H 0.7622 0.45567 0.09349 0.0
C99 C 0.1282 0.87695 0.09769 0.0
C100 C 0.16077 0.86431 0.09782 0.0
N101 N 0.16496 0.84496 0.12025 0.0
N102 N 0.11158 0.86592 0.12002 0.0
C103 C 0.13494 0.84687 0.13354 0.0
H104 H 0.11701 0.89152 0.08132 0.0
Co105 Co 0.06442 0.86943 0.12646 0.0
C106 C 0.05641 0.88174 0.18631 0.0
O107 O 0.02766 0.86476 0.18577 0.0
N108 N 0.01702 0.87295 0.13227 0.0
C109 C 0.96168 0.86308 0.13818 0.0
C110 C 0.99262 0.84859 0.13232 0.0
C111 C 0.99994 0.90205 0.13767 0.0
N112 N 0.96652 0.89663 0.14137 0.0
O113 O 0.06395 0.91572 0.1125 0.0
H114 H 0.99662 0.82186 0.12869 0.0
H115 H 0.0118 0.92677 0.13961 0.0
O116 O 0.07377 0.88527 0.16436 0.0
C117 C 0.05364 0.91494 0.08774 0.0
O118 O 0.04874 0.88507 0.07639 0.0
N119 N 0.06372 0.82315 0.13614 0.0
C120 C 0.05137 0.75337 0.13903 0.0
C121 C 0.06041 0.77178 0.16248 0.0
C122 C 0.0669 0.80674 0.16057 0.0
C123 C 0.0583 0.80506 0.11292 0.0
C124 C 0.05165 0.77034 0.11389 0.0
H125 H 0.0743 0.82011 0.17873 0.0
H126 H 0.05687 0.81828 0.09362 0.0
H127 H 0.1296 0.8334 0.15223 0.0
H128 H 0.17906 0.86723 0.08158 0.0
H129 H 0.93745 0.85014 0.13963 0.0
H130 H 0.0618 0.75944 0.18219 0.0
H131 H 0.04473 0.75753 0.09518 0.0
C132 C 0.148 0.90158 0.46377 0.0
C133 C 0.16089 0.86915 0.46539 0.0
N134 N 0.17874 0.86284 0.44262 0.0
N135 N 0.15736 0.91594 0.43997 0.0
C136 C 0.17572 0.89144 0.42739 0.0
H137 H 0.13449 0.91437 0.47986 0.0
Co138 Co 0.15277 0.9623 0.43075 0.0
C139 C 0.1364 0.96543 0.37124 0.0
O140 O 0.15298 0.99437 0.36982 0.0
N141 N 0.14819 1.00918 0.42226 0.0
C142 C 0.15704 0.06399 0.41279 0.0
C143 C 0.17225 0.03365 0.41968 0.0
C144 C 0.11856 0.02567 0.41733 0.0
N145 N 0.12335 0.05878 0.41148 0.0
O146 O 0.10768 0.96341 0.44685 0.0
H147 H 0.19924 0.03009 0.4223 0.0
H148 H 0.09383 0.01359 0.41747 0.0
O149 O 0.13434 0.94955 0.3941 0.0
C150 C 0.11078 0.97745 0.47026 0.0
O151 O 0.1416 0.9853 0.47858 0.0
N152 N 0.19824 0.96252 0.419 0.0
C153 C 0.26731 0.97541 0.41192 0.0
C154 C 0.2472 0.96418 0.39002 0.0
C155 C 0.21267 0.95727 0.39408 0.0
C156 C 0.21816 0.97002 0.44091 0.0
C157 C 0.25263 0.97687 0.43785 0.0
H158 H 0.19804 0.94796 0.37713 0.0
H159 H 0.2066 0.97292 0.46071 0.0
H160 H 0.18795 0.89499 0.40795 0.0
H161 H 0.15924 0.8525 0.48292 0.0
H162 H 0.16963 0.08815 0.40952 0.0
H163 H 0.25788 0.9615 0.36985 0.0
H164 H 0.26701 0.9854 0.4554 0.0
C165 C 0.63033 0.14555 0.46698 0.0
C166 C 0.6628 0.15852 0.46729 0.0
N167 N 0.66675 0.1787 0.44534 0.0
N168 N 0.61353 0.15721 0.44485 0.0
C169 C 0.63671 0.17693 0.43186 0.0
H170 H 0.61931 0.13033 0.48299 0.0
Co171 Co 0.56626 0.15376 0.43844 0.0
C172 C 0.55766 0.14173 0.3786 0.0
O173 O 0.52955 0.15975 0.37893 0.0
N174 N 0.51899 0.1502 0.43288 0.0
C175 C 0.46304 0.15829 0.43216 0.0
C176 C 0.49403 0.17296 0.43771 0.0
C177 C 0.50236 0.12178 0.42482 0.0
N178 N 0.46835 0.12604 0.42408 0.0
O179 O 0.56563 0.10746 0.45225 0.0
H180 H 0.49761 0.19841 0.44535 0.0
H181 H 0.51511 0.0984 0.41938 0.0
O182 O 0.575 0.13774 0.40061 0.0
C183 C 0.55539 0.1079 0.47697 0.0
O184 O 0.55092 0.1376 0.48865 0.0
N185 N 0.56549 0.20014 0.42865 0.0
C186 C 0.5536 0.26997 0.42529 0.0
C187 C 0.56241 0.25132 0.402 0.0
C188 C 0.56879 0.21638 0.40416 0.0
C189 C 0.56043 0.21852 0.45174 0.0
C190 C 0.55399 0.25328 0.45054 0.0
H191 H 0.5764 0.20293 0.38615 0.0
H192 H 0.55914 0.20551 0.47113 0.0
H193 H 0.63124 0.19098 0.41346 0.0
H194 H 0.68116 0.15524 0.48355 0.0
H195 H 0.43845 0.17016 0.43478 0.0
H196 H 0.5638 0.26349 0.38223 0.0
H197 H 0.54736 0.26638 0.46915 0.0
C198 C 0.39214 0.64005 0.42092 0.0
C199 C 0.37833 0.67225 0.42034 0.0
N200 N 0.34672 0.67072 0.43079 0.0
N201 N 0.3694 0.6182 0.43169 0.0
C202 C 0.3422 0.63776 0.43782 0.0
H203 H 0.41677 0.63281 0.41312 0.0
Co204 Co 0.37377 0.57084 0.43422 0.0
C205 C 0.38942 0.54943 0.37668 0.0
O206 O 0.37305 0.52053 0.37976 0.0
N207 N 0.37893 0.52343 0.43746 0.0
C208 C 0.37792 0.47057 0.45386 0.0
C209 C 0.3612 0.50124 0.45299 0.0
C210 C 0.40665 0.50562 0.42962 0.0
N211 N 0.40649 0.47346 0.43912 0.0
O212 O 0.4192 0.57485 0.44864 0.0
H213 H 0.33875 0.50708 0.46456 0.0
H214 H 0.42762 0.51663 0.41843 0.0
O215 O 0.39119 0.57055 0.39647 0.0
C216 C 0.42032 0.57507 0.47463 0.0
O217 O 0.39196 0.58066 0.48794 0.0
N218 N 0.32831 0.56596 0.42261 0.0
C219 C 0.25996 0.55088 0.41347 0.0
C220 C 0.28107 0.56061 0.39181 0.0
C221 C 0.31514 0.5689 0.39692 0.0
C222 C 0.30725 0.56016 0.44405 0.0
C223 C 0.27317 0.55208 0.43999 0.0
H224 H 0.33056 0.57742 0.38017 0.0
H225 H 0.31737 0.56092 0.46455 0.0
H226 H 0.3192 0.62797 0.44688 0.0
H227 H 0.39015 0.69472 0.41181 0.0
H228 H 0.37022 0.44821 0.46517 0.0
H229 H 0.27146 0.56139 0.37113 0.0
H230 H 0.25784 0.54526 0.45743 0.0
C231 C 0.88717 0.39468 0.41941 0.0
C232 C 0.85484 0.38108 0.42014 0.0
N233 N 0.85687 0.34914 0.43007 0.0
N234 N 0.90956 0.37148 0.42885 0.0
C235 C 0.89021 0.34426 0.43556 0.0
H236 H 0.89406 0.41944 0.4115 0.0
Co237 Co 0.95714 0.37484 0.42884 0.0
C238 C 0.97427 0.39001 0.37062 0.0
O239 O 1.00126 0.37044 0.37243 0.0
N240 N 1.00493 0.37884 0.42924 0.0
C241 C 0.06053 0.37234 0.43611 0.0
C242 C 0.02908 0.35765 0.43915 0.0
C243 C 0.0225 0.40673 0.42121 0.0
N244 N 0.05634 0.40322 0.42477 0.0
O245 O 0.95529 0.41983 0.44437 0.0
H246 H 0.02471 0.33345 0.44883 0.0
H247 H 0.0106 0.42914 0.41262 0.0
O248 O 0.955 0.39388 0.39139 0.0
C249 C 0.95579 0.41975 0.47037 0.0
O250 O 0.95125 0.39065 0.48307 0.0
N251 N 0.95971 0.32948 0.41628 0.0
C252 C 0.97414 0.26179 0.40518 0.0
C253 C 0.96263 0.2834 0.38441 0.0
C254 C 0.95414 0.31707 0.39065 0.0
C255 C 0.96684 0.30758 0.43707 0.0
C256 C 0.97449 0.27362 0.43197 0.0
H257 H 0.9439 0.33296 0.37473 0.0
H258 H 0.96827 0.31711 0.45769 0.0
H259 H 0.9004 0.32089 0.44379 0.0
H260 H 0.83191 0.39321 0.41273 0.0
H261 H 0.08455 0.36153 0.44258 0.0
H262 H 0.96095 0.27457 0.36357 0.0
H263 H 0.98265 0.25737 0.44859 0.0
C264 C 0.3849 0.88997 0.95542 0.0
C265 C 0.3709 0.85799 0.95665 0.0
N266 N 0.34468 0.85666 0.93907 0.0
N267 N 0.3675 0.90926 0.93728 0.0
C268 C 0.34352 0.8877 0.92722 0.0
H269 H 0.40547 0.89865 0.96821 0.0
Co270 Co 0.37159 0.95721 0.93269 0.0
C271 C 0.39706 0.96831 0.87484 0.0
O272 O 0.38883 1.00062 0.87535 0.0
N273 N 0.37551 1.00484 0.92946 0.0
C274 C 0.36538 0.06049 0.93018 0.0
C275 C 0.35112 0.02869 0.93245 0.0
C276 C 0.40453 0.02296 0.92635 0.0
N277 N 0.39902 0.05683 0.92618 0.0
O278 O 0.41645 0.95707 0.9494 0.0
H279 H 0.32462 0.02367 0.93644 0.0
H280 H 0.42911 0.01137 0.92315 0.0
O281 O 0.39099 0.94923 0.89556 0.0
C282 C 0.41434 0.9653 0.97456 0.0
O283 O 0.38391 0.96797 0.98532 0.0
N284 N 0.32664 0.95923 0.91942 0.0
C285 C 0.2593 0.97764 0.91011 0.0
C286 C 0.28228 0.97563 0.88846 0.0
C287 C 0.31588 0.96592 0.89347 0.0
C288 C 0.30384 0.95824 0.94027 0.0
C289 C 0.2699 0.9672 0.93604 0.0
H290 H 0.33303 0.96559 0.87658 0.0
H291 H 0.31271 0.95286 0.96071 0.0
H292 H 0.32396 0.89509 0.91286 0.0
H293 H 0.37854 0.83767 0.97027 0.0
H294 H 0.35197 0.08441 0.93183 0.0
H295 H 0.27474 0.9831 0.86807 0.0
H296 H 0.25288 0.96859 0.95329 0.0
C297 C 0.63 0.38434 0.95835 0.0
C298 C 0.66245 0.37122 0.9585 0.0
N299 N 0.66515 0.34897 0.93784 0.0
N300 N 0.61205 0.37066 0.93759 0.0
C301 C 0.63453 0.3496 0.92525 0.0
H302 H 0.61988 0.40136 0.97351 0.0
Co303 Co 0.56457 0.37454 0.93153 0.0
C304 C 0.55577 0.39062 0.87238 0.0
O305 O 0.52737 0.37301 0.87219 0.0
N306 N 0.51715 0.37852 0.92623 0.0
C307 C 0.46121 0.37022 0.92528 0.0
C308 C 0.49223 0.35548 0.93054 0.0
C309 C 0.50042 0.40723 0.9189 0.0
N310 N 0.4664 0.40281 0.91791 0.0
O311 O 0.56403 0.41979 0.94732 0.0
H312 H 0.49588 0.32974 0.93757 0.0
H313 H 0.51315 0.43086 0.914 0.0
O314 O 0.57331 0.393 0.8944 0.0
C315 C 0.5525 0.41616 0.97151 0.0
O316 O 0.54823 0.38498 0.98062 0.0
N317 N 0.56346 0.32888 0.9199 0.0
C318 C 0.54983 0.2597 0.91387 0.0
C319 C 0.55869 0.27972 0.89125 0.0
C320 C 0.56587 0.31432 0.89473 0.0
C321 C 0.55871 0.30899 0.94229 0.0
C322 C 0.55141 0.27451 0.93978 0.0
H323 H 0.57339 0.32883 0.87719 0.0
H324 H 0.55816 0.32061 0.96222 0.0
H325 H 0.62836 0.33392 0.90792 0.0
H326 H 0.68177 0.376 0.97378 0.0
H327 H 0.43669 0.35805 0.92751 0.0
H328 H 0.55928 0.26896 0.87098 0.0
H329 H 0.54485 0.2603 0.95792 0.0
C330 C 0.12775 0.6359 0.932 0.0
C331 C 0.14002 0.66877 0.93297 0.0
N332 N 0.17418 0.66738 0.93335 0.0
N333 N 0.15405 0.6138 0.93214 0.0
C334 C 0.182 0.634 0.93303 0.0
H335 H 0.10125 0.62869 0.93083 0.0
Co336 Co 0.15107 0.56587 0.9302 0.0
C337 C 0.13415 0.55185 0.87198 0.0
O338 O 0.1541 0.52506 0.87265 0.0
N339 N 0.1473 0.51805 0.92862 0.0
C340 C 0.15392 0.46202 0.93249 0.0
C341 C 0.16917 0.49315 0.93605 0.0
C342 C 0.11866 0.5012 0.92134 0.0
N343 N 0.12211 0.46717 0.92321 0.0
O344 O 0.1068 0.56637 0.94716 0.0
H345 H 0.19431 0.49673 0.94432 0.0
H346 H 0.09569 0.51382 0.91455 0.0
O347 O 0.13073 0.57023 0.89334 0.0
C348 C 0.11029 0.56056 0.97263 0.0
O349 O 0.14126 0.56088 0.98278 0.0
N350 N 0.19593 0.56409 0.91693 0.0
C351 C 0.26465 0.55202 0.90731 0.0
C352 C 0.2432 0.56321 0.88616 0.0
C353 C 0.2089 0.57008 0.89159 0.0
C354 C 0.21725 0.55696 0.93808 0.0
C355 C 0.25149 0.55036 0.93374 0.0
H356 H 0.19312 0.57981 0.87538 0.0
H357 H 0.20703 0.55463 0.95841 0.0
H358 H 0.20784 0.62475 0.93347 0.0
H359 H 0.12507 0.69187 0.93263 0.0
H360 H 0.16507 0.43753 0.93721 0.0
H361 H 0.25273 0.56617 0.86563 0.0
H362 H 0.26696 0.54213 0.9508 0.0
C363 C 0.89016 0.14369 0.95867 0.0
C364 C 0.85771 0.15679 0.95892 0.0
N365 N 0.85449 0.17864 0.93794 0.0
N366 N 0.9076 0.15697 0.93752 0.0
C367 C 0.8848 0.17779 0.92508 0.0
H368 H 0.90066 0.12702 0.97403 0.0
Co369 Co 0.95494 0.15311 0.93113 0.0
C370 C 0.96292 0.13526 0.87214 0.0
O371 O 0.99228 0.15116 0.87191 0.0
N372 N 1.00248 0.14932 0.92546 0.0
C373 C 0.05768 0.15946 0.91905 0.0
C374 C 0.02654 0.17395 0.9241 0.0
C375 C 0.02004 0.12004 0.92174 0.0
N376 N 0.0534 0.12564 0.91772 0.0
O377 O 0.95571 0.10807 0.94765 0.0
H378 H 0.02218 0.20087 0.92627 0.0
H379 H 1.00853 0.09504 0.92122 0.0
O380 O 0.94535 0.13414 0.89415 0.0
C381 C 0.96755 0.11134 0.97185 0.0
O382 O 0.97293 0.14236 0.98086 0.0
N383 N 0.95555 0.19849 0.91878 0.0
C384 C 0.96908 0.2674 0.91098 0.0
C385 C 0.96018 0.24658 0.88887 0.0
C386 C 0.9531 0.21213 0.89323 0.0
C387 C 0.9605 0.21911 0.94069 0.0
C388 C 0.96765 0.25353 0.93729 0.0
H389 H 0.94582 0.19695 0.876 0.0
H390 H 0.96134 0.20812 0.96088 0.0
H391 H 0.89056 0.19318 0.90747 0.0
H392 H 0.83879 0.15233 0.97447 0.0
H393 H 0.08168 0.17267 0.91685 0.0
H394 H 0.95963 0.25659 0.86832 0.0
H395 H 0.97432 0.26844 0.95504 0.0
C396 C 0.87706 0.12848 0.59799 0.0
C397 C 0.86363 0.16073 0.59726 0.0
N398 N 0.84182 0.16412 0.61815 0.0
N399 N 0.86406 0.1112 0.61933 0.0
C400 C 0.843 0.13389 0.63142 0.0
H401 H 0.89379 0.11803 0.5828 0.0
Co402 Co 0.86844 0.06398 0.62623 0.0
C403 C 0.8815 0.05653 0.6862 0.0
O404 O 0.86575 0.02707 0.68597 0.0
N405 N 0.87281 0.01655 0.63247 0.0
C406 C 0.86328 0.96121 0.63907 0.0
C407 C 0.84868 0.99193 0.6325 0.0
C408 C 0.90199 0.99973 0.63843 0.0
N409 N 0.89674 0.9663 0.64268 0.0
O410 O 0.91462 0.0642 0.61252 0.0
H411 H 0.82199 0.99563 0.62844 0.0
H412 H 0.92657 0.01185 0.64049 0.0
O413 O 0.88408 0.07393 0.66411 0.0
C414 C 0.91346 0.05374 0.58785 0.0
O415 O 0.88343 0.04835 0.57683 0.0
N416 N 0.82221 0.06237 0.6356 0.0
C417 C 0.75461 0.0424 0.63805 0.0
C418 C 0.77183 0.05238 0.66179 0.0
C419 C 0.80584 0.06279 0.66011 0.0
C420 C 0.80433 0.05738 0.61215 0.0
C421 C 0.77053 0.04712 0.61288 0.0
H422 H 0.81877 0.06997 0.67854 0.0
H423 H 0.81735 0.05844 0.59282 0.0
H424 H 0.82775 0.12794 0.64904 0.0
H425 H 0.86799 0.1794 0.58143 0.0
H426 H 0.85044 0.93693 0.64078 0.0
H427 H 0.75997 0.04996 0.68157 0.0
H428 H 0.75772 0.04057 0.59404 0.0
C429 C 0.3861 0.88014 0.60129 0.0
C430 C 0.3537 0.86722 0.59963 0.0
N431 N 0.34951 0.84465 0.61994 0.0
N432 N 0.40268 0.86578 0.62253 0.0
C433 C 0.37924 0.84469 0.63383 0.0
H434 H 0.3973 0.8971 0.58654 0.0
Co435 Co 0.45029 0.8674 0.62828 0.0
C436 C 0.46207 0.8859 0.68708 0.0
O437 O 0.49174 0.87066 0.68655 0.0
N438 N 0.49796 0.86887 0.63272 0.0
C439 C 0.55315 0.85673 0.63209 0.0
C440 C 0.52093 0.84382 0.62894 0.0
C441 C 0.51705 0.89689 0.63765 0.0
N442 N 0.55069 0.89018 0.63762 0.0
O443 O 0.45266 0.91292 0.61266 0.0
H444 H 0.5151 0.81789 0.62352 0.0
H445 H 0.50631 0.92173 0.64152 0.0
O446 O 0.44283 0.88568 0.66584 0.0
C447 C 0.46408 0.91016 0.58836 0.0
O448 O 0.46796 0.87934 0.5785 0.0
N449 N 0.44945 0.82181 0.63987 0.0
C450 C 0.46124 0.75225 0.64576 0.0
C451 C 0.45645 0.77297 0.66872 0.0
C452 C 0.45029 0.80781 0.66535 0.0
C453 C 0.45048 0.80151 0.61748 0.0
C454 C 0.45667 0.76679 0.61989 0.0
H455 H 0.44689 0.82307 0.68325 0.0
H456 H 0.44907 0.81291 0.59745 0.0
H457 H 0.38466 0.8274 0.65043 0.0
H458 H 0.33531 0.87251 0.58372 0.0
H459 H 0.57656 0.84269 0.62953 0.0
H460 H 0.45852 0.7626 0.6891 0.0
H461 H 0.46023 0.75214 0.60149 0.0
C462 C 0.62515 0.38459 0.6381 0.0
C463 C 0.6389 0.35232 0.63811 0.0
N464 N 0.67104 0.35431 0.62884 0.0
N465 N 0.64845 0.40692 0.62881 0.0
C466 C 0.67595 0.38757 0.62302 0.0
H467 H 0.60016 0.3915 0.64535 0.0
Co468 Co 0.64423 0.45451 0.62789 0.0
C469 C 0.63215 0.47249 0.68626 0.0
O470 O 0.65182 0.49937 0.68383 0.0
N471 N 0.63913 0.50215 0.62652 0.0
C472 C 0.63928 0.55594 0.61217 0.0
C473 C 0.65614 0.52535 0.61142 0.0
C474 C 0.61174 0.51935 0.63586 0.0
N475 N 0.61141 0.55202 0.62759 0.0
O476 O 0.59885 0.45138 0.61308 0.0
H477 H 0.67807 0.52035 0.59898 0.0
H478 H 0.59117 0.50753 0.64701 0.0
O479 O 0.62701 0.45316 0.66566 0.0
C480 C 0.6009 0.45438 0.58723 0.0
O481 O 0.63113 0.45148 0.57616 0.0
N482 N 0.68988 0.45851 0.63914 0.0
C483 C 0.75937 0.47009 0.64573 0.0
C484 C 0.73947 0.45939 0.66785 0.0
C485 C 0.70475 0.45272 0.66393 0.0
C486 C 0.70956 0.46566 0.61714 0.0
C487 C 0.74409 0.47209 0.61997 0.0
H488 H 0.69021 0.44292 0.68078 0.0
H489 H 0.69809 0.46669 0.59712 0.0
H490 H 0.6995 0.39769 0.61516 0.0
H491 H 0.62666 0.32946 0.64553 0.0
H492 H 0.64627 0.57895 0.60141 0.0
H493 H 0.75062 0.45625 0.68789 0.0
H494 H 0.75835 0.47978 0.60217 0.0
C495 C 0.13022 0.62682 0.6333 0.0
C496 C 0.16274 0.63995 0.63284 0.0
N497 N 0.16052 0.67387 0.62958 0.0
N498 N 0.10755 0.65229 0.63006 0.0
C499 C 0.12697 0.68064 0.62775 0.0
H500 H 0.12354 0.60038 0.63627 0.0
Co501 Co 0.05988 0.64805 0.63019 0.0
C502 C 0.04396 0.62999 0.68811 0.0
O503 O 0.01636 0.6488 0.68707 0.0
N504 N 0.01229 0.64306 0.62973 0.0
C505 C 0.9577 0.64594 0.61781 0.0
C506 C 0.98862 0.66218 0.61681 0.0
C507 C 0.99507 0.61502 0.63788 0.0
N508 N 0.96189 0.61636 0.63115 0.0
O509 O 0.06242 0.60384 0.61305 0.0
H510 H 0.9934 0.68543 0.60581 0.0
H511 H 1.00703 0.59313 0.64729 0.0
O512 O 0.06295 0.6275 0.66704 0.0
C513 C 0.05774 0.60712 0.58741 0.0
O514 O 0.05791 0.63808 0.57724 0.0
N515 N 0.05616 0.69279 0.64387 0.0
C516 C 0.04065 0.76024 0.6552 0.0
C517 C 0.05174 0.73848 0.67604 0.0
C518 C 0.06069 0.70491 0.66972 0.0
C519 C 0.04896 0.7148 0.62317 0.0
C520 C 0.04083 0.7486 0.62837 0.0
H521 H 0.07066 0.68896 0.68571 0.0
H522 H 0.04842 0.7056 0.60244 0.0
H523 H 0.11695 0.70596 0.62476 0.0
H524 H 0.18613 0.62581 0.63546 0.0
H525 H 0.93416 0.6547 0.60871 0.0
H526 H 0.05289 0.74717 0.69693 0.0
H527 H 0.033 0.76499 0.61172 0.0
H528 H 0.63836 0.8994 0.16121 0.0
H529 H 0.55454 0.96735 0.14426 0.0
H530 H 0.59877 0.8533 0.16884 0.0
H531 H 0.51463 0.9215 0.15365 0.0
H532 H 0.46176 0.81906 0.13198 0.0
H533 H 0.4953 0.87096 0.13256 0.0
H534 H 0.55716 0.82977 0.19765 0.0
H535 H 0.52517 0.77695 0.19569 0.0
C536 C 0.61148 0.90466 0.15926 0.0
C537 C 0.59984 0.93715 0.15174 0.0
C538 C 0.58862 0.87824 0.16417 0.0
C539 C 0.55336 0.88358 0.162 0.0
C540 C 0.5416 0.91633 0.15526 0.0
C541 C 0.56455 0.94278 0.15012 0.0
C542 C 0.48239 0.82114 0.14655 0.0
C543 C 0.49119 0.79346 0.16334 0.0
C544 C 0.50142 0.85115 0.14712 0.0
C545 C 0.52947 0.85437 0.16478 0.0
C546 C 0.53632 0.82784 0.18327 0.0
C547 C 0.51754 0.79767 0.18246 0.0
H548 H 0.73022 0.50378 0.0946 0.0
H549 H 0.71445 0.47091 0.17784 0.0
H550 H 0.67653 0.534 0.0956 0.0
H551 H 0.66168 0.50356 0.17905 0.0
H552 H 0.6097 0.6153 0.17195 0.0
H553 H 0.6557 0.57329 0.17245 0.0
H554 H 0.60854 0.52086 0.10505 0.0
H555 H 0.56195 0.56255 0.10505 0.0
C556 C 0.71518 0.50219 0.11295 0.0
C557 C 0.72714 0.48471 0.13619 0.0
C558 C 0.68442 0.51983 0.11349 0.0
C559 C 0.66519 0.52111 0.1374 0.0
C560 C 0.6763 0.50301 0.16041 0.0
C561 C 0.70672 0.4846 0.15972 0.0
C562 C 0.60911 0.59461 0.15744 0.0
C563 C 0.58258 0.59214 0.13835 0.0
C564 C 0.63514 0.57049 0.15788 0.0
C565 C 0.63544 0.54391 0.13886 0.0
C566 C 0.60868 0.54112 0.11997 0.0
C567 C 0.58216 0.56483 0.11997 0.0
H568 H 0.06138 0.70108 0.10291 0.0
H569 H 0.01111 0.72527 0.17859 0.0
H570 H 0.02946 0.64792 0.10036 0.0
H571 H 0.98046 0.67138 0.17645 0.0
H572 H 0.94688 0.55794 0.16757 0.0
H573 H 0.98849 0.60403 0.17362 0.0
H574 H 0.96288 0.6429 0.09388 0.0
H575 H 0.9211 0.59733 0.08812 0.0
C576 C 0.04401 0.69487 0.11923 0.0
C577 C 0.03834 0.71786 0.14068 0.0
C578 C 0.02589 0.66437 0.11779 0.0
C579 C 1.00228 0.65589 0.13804 0.0
C580 C 0.99865 0.67735 0.16063 0.0
C581 C 0.01638 0.70816 0.16189 0.0
C582 C 0.95044 0.57629 0.15136 0.0
C583 C 0.93075 0.57439 0.12748 0.0
C584 C 0.97408 0.60257 0.15482 0.0
C585 C 0.97893 0.62679 0.13414 0.0
C586 C 0.95983 0.62431 0.11 0.0
C587 C 0.93574 0.59853 0.10681 0.0
H588 H 0.92302 0.89678 0.18323 0.0
H589 H 0.95306 0.95244 0.11174 0.0
H590 H 0.8776 0.93762 0.19154 0.0
H591 H 0.90595 0.9919 0.11815 0.0
H592 H 0.82639 0.06817 0.13906 0.0
H593 H 0.87919 0.03542 0.13998 0.0
H594 H 0.82499 0.95089 0.17636 0.0
H595 H 0.77363 0.98478 0.17726 0.0
C596 C 0.91952 0.91784 0.16924 0.0
C597 C 0.94103 0.92163 0.14683 0.0
C598 C 0.89336 0.94113 0.17375 0.0
C599 C 0.88738 0.96804 0.1553 0.0
C600 C 0.90977 0.97205 0.13315 0.0
C601 C 0.93661 0.94932 0.12921 0.0
C602 C 0.82633 0.04287 0.14785 0.0
C603 C 0.79627 0.029 0.15835 0.0
C604 C 0.8564 0.02384 0.14809 0.0
C605 C 0.85668 0.99014 0.15804 0.0
C606 C 0.82643 0.97685 0.1691 0.0
C607 C 0.79676 0.9962 0.16953 0.0
H608 H 0.03293 0.25178 0.37866 0.0
H609 H 0.9521 0.19835 0.41943 0.0
H610 H 0.06631 0.2 0.37713 0.0
H611 H 0.98408 0.14526 0.41609 0.0
H612 H 0.0687 0.07178 0.44229 0.0
H613 H 0.02867 0.11854 0.43664 0.0
H614 H 0.07918 0.14738 0.3618 0.0
H615 H 0.12068 0.10217 0.36925 0.0
C616 C 0.02185 0.22841 0.38631 0.0
C617 C 0.99006 0.2288 0.39903 0.0
C618 C 0.0409 0.19851 0.38539 0.0
C619 C 0.02826 0.16803 0.39668 0.0
C620 C 0.99524 0.16821 0.40783 0.0
C621 C 0.97659 0.19844 0.4094 0.0
C622 C 0.07084 0.08816 0.42462 0.0
C623 C 0.09773 0.0839 0.40634 0.0
C624 C 0.04775 0.11485 0.42113 0.0
C625 C 0.05055 0.13731 0.3988 0.0
C626 C 0.07659 0.13151 0.3797 0.0
C627 C 0.10026 0.10548 0.38373 0.0
H628 H 0.28908 0.0162 0.37044 0.0
H629 H 0.32372 0.96691 0.44417 0.0
H630 H 0.34175 0.04873 0.36859 0.0
H631 H 0.37572 1.00051 0.44299 0.0
H632 H 0.47333 0.05748 0.42966 0.0
H633 H 0.42884 0.01553 0.42113 0.0
H634 H 0.36071 0.09603 0.39614 0.0
H635 H 0.4055 0.13763 0.40365 0.0
C636 C 0.30828 0.01165 0.38588 0.0
C637 C 0.30201 0.98929 0.40767 0.0
C638 C 0.33829 0.03065 0.38502 0.0
C639 C 0.36264 0.02774 0.40593 0.0
C640 C 0.35755 1.00339 0.42653 0.0
C641 C 0.32758 0.98433 0.42735 0.0
C642 C 0.44909 0.06613 0.42181 0.0
C643 C 0.44289 0.10096 0.4175 0.0
C644 C 0.4235 0.0421 0.41714 0.0
C645 C 0.39119 0.05239 0.40797 0.0
C646 C 0.38541 0.08712 0.40284 0.0
C647 C 0.41094 0.11108 0.40754 0.0
H648 H 0.51215 0.29722 0.38604 0.0
H649 H 0.56521 0.323 0.46044 0.0
H650 H 0.48178 0.35117 0.38785 0.0
H651 H 0.53403 0.37657 0.46253 0.0
H652 H 0.42845 0.42913 0.4772 0.0
H653 H 0.4708 0.3844 0.47146 0.0
H654 H 0.48648 0.41637 0.38826 0.0
H655 H 0.44391 0.46141 0.39418 0.0
C656 C 0.51811 0.31475 0.40236 0.0
C657 C 0.54075 0.30548 0.42334 0.0
C658 C 0.50058 0.34565 0.40342 0.0
C659 C 0.50519 0.36775 0.42555 0.0
C660 C 0.52959 0.35967 0.44548 0.0
C661 C 0.54735 0.32896 0.44429 0.0
C662 C 0.44104 0.42663 0.45775 0.0
C663 C 0.43275 0.44839 0.43604 0.0
C664 C 0.46554 0.40134 0.45453 0.0
C665 C 0.48197 0.397 0.42942 0.0
C666 C 0.47414 0.41916 0.40781 0.0
C667 C 0.44996 0.4449 0.4112 0.0
H668 H 0.12083 0.38917 0.41015 0.0
H669 H 0.05149 0.4721 0.42487 0.0
H670 H 0.16668 0.42956 0.40249 0.0
H671 H 0.09734 0.51284 0.41647 0.0
H672 H 0.20175 0.56261 0.4425 0.0
H673 H 0.14938 0.52946 0.44094 0.0
H674 H 0.18766 0.47371 0.37186 0.0
H675 H 0.24051 0.50603 0.37403 0.0
C676 C 0.11536 0.41608 0.41157 0.0
C677 C 0.08264 0.42742 0.41837 0.0
C678 C 0.14151 0.43928 0.40679 0.0
C679 C 0.13564 0.47445 0.40876 0.0
C680 C 0.10269 0.4859 0.41491 0.0
C681 C 0.07639 0.4626 0.41955 0.0
C682 C 0.19877 0.5436 0.42674 0.0
C683 C 0.2255 0.53656 0.40868 0.0
C684 C 0.16862 0.52481 0.42568 0.0
C685 C 0.16459 0.49858 0.40654 0.0
C686 C 0.19027 0.49336 0.38715 0.0
C687 C 0.2204 0.51217 0.38819 0.0
H688 H 0.38699 0.12038 0.90708 0.0
H689 H 0.46729 0.05381 0.93502 0.0
H690 H 0.42791 0.16581 0.90083 0.0
H691 H 0.50872 0.09891 0.92732 0.0
H692 H 0.55915 0.20371 0.94667 0.0
H693 H 0.52493 0.15214 0.94716 0.0
H694 H 0.4741 0.1848 0.87347 0.0
H695 H 0.50677 0.23728 0.87392 0.0
C696 C 0.41339 0.11534 0.91182 0.0
C697 C 0.4237 0.08342 0.92175 0.0
C698 C 0.43705 0.14129 0.90775 0.0
C699 C 0.47173 0.13599 0.91334 0.0
C700 C 0.48219 0.10393 0.92295 0.0
C701 C 0.45844 0.07795 0.92713 0.0
C702 C 0.54085 0.19978 0.93045 0.0
C703 C 0.53526 0.22502 0.91058 0.0
C704 C 0.52145 0.16998 0.93056 0.0
C705 C 0.49624 0.16462 0.91065 0.0
C706 C 0.49271 0.18853 0.8895 0.0
C707 C 0.51188 0.21844 0.88951 0.0
H708 H 0.40334 0.391 0.89778 0.0
H709 H 0.47125 0.47152 0.92291 0.0
H710 H 0.35847 0.43233 0.8902 0.0
H711 H 0.4267 0.51326 0.91408 0.0
H712 H 0.32243 0.56228 0.9375 0.0
H713 H 0.3745 0.52908 0.93568 0.0
H714 H 0.33802 0.47883 0.86304 0.0
H715 H 0.28515 0.51101 0.86565 0.0
C716 C 0.40881 0.41757 0.90147 0.0
C717 C 0.44082 0.42781 0.91128 0.0
C718 C 0.3832 0.44142 0.89668 0.0
C719 C 0.38893 0.47622 0.90146 0.0
C720 C 0.42132 0.48664 0.91039 0.0
C721 C 0.44698 0.46271 0.91523 0.0
C722 C 0.32575 0.54452 0.92089 0.0
C723 C 0.29938 0.53881 0.90203 0.0
C724 C 0.35578 0.52566 0.9197 0.0
C725 C 0.36022 0.50077 0.8995 0.0
C726 C 0.33509 0.49726 0.87922 0.0
C727 C 0.30496 0.51606 0.88048 0.0
H728 H 0.01294 0.28757 0.87112 0.0
H729 H 0.9594 0.32493 0.94167 0.0
H730 H 0.04612 0.33973 0.86957 0.0
H731 H 0.99386 0.37644 0.9409 0.0
H732 H 0.05351 0.47331 0.92669 0.0
H733 H 0.01126 0.42888 0.91837 0.0
H734 H 0.09182 0.35842 0.89891 0.0
H735 H 0.13367 0.40298 0.90622 0.0
C736 C 1.00762 0.30722 0.88592 0.0
C737 C 0.98381 0.30183 0.90677 0.0
C738 C 0.02702 0.33696 0.88525 0.0
C739 C 0.02317 0.3619 0.90546 0.0
C740 C 0.9975 0.35774 0.92502 0.0
C741 C 0.97797 0.32804 0.92563 0.0
C742 C 0.06209 0.44849 0.92015 0.0
C743 C 0.09696 0.44158 0.91724 0.0
C744 C 0.03791 0.42298 0.9156 0.0
C745 C 0.04813 0.39012 0.9079 0.0
C746 C 0.08297 0.38356 0.90438 0.0
C747 C 0.10706 0.40897 0.90898 0.0
H748 H 0.24958 0.04058 0.88958 0.0
H749 H 0.19559 0.95534 0.92397 0.0
H750 H 0.19782 0.07386 0.88931 0.0
H751 H 0.1426 0.98778 0.92209 0.0
H752 H 0.06581 0.06991 0.94797 0.0
H753 H 0.11392 0.03111 0.94347 0.0
H754 H 0.1459 0.08565 0.87123 0.0
H755 H 0.09928 0.12566 0.87749 0.0
C756 C 0.22621 0.02866 0.89629 0.0
C757 C 0.22645 0.9954 0.90664 0.0
C758 C 0.19632 0.04768 0.89604 0.0
C759 C 0.1656 0.03371 0.90562 0.0
C760 C 0.16572 0.99978 0.91503 0.0
C761 C 0.19595 0.98099 0.91587 0.0
C762 C 0.08321 0.0732 0.93113 0.0
C763 C 0.07939 0.10076 0.91325 0.0
C764 C 0.11066 0.05089 0.92833 0.0
C765 C 0.13436 0.05525 0.90712 0.0
C766 C 0.12906 0.08194 0.88836 0.0
C767 C 0.10223 0.10475 0.89169 0.0
H768 H 0.97943 0.77091 0.67772 0.0
H769 H 0.06583 0.82347 0.64422 0.0
H770 H 0.94728 0.82352 0.67807 0.0
H771 H 0.03486 0.8773 0.64641 0.0
H772 H 0.95463 0.95353 0.61575 0.0
H773 H 0.9932 0.90587 0.62333 0.0
H774 H 0.93425 0.87599 0.69379 0.0
H775 H 0.89446 0.92211 0.68432 0.0
C776 C 0.99191 0.79423 0.67147 0.0
C777 C 0.02501 0.79341 0.66114 0.0
C778 C 0.97356 0.8246 0.67171 0.0
C779 C 0.98817 0.8551 0.66208 0.0
C780 C 0.02229 0.8544 0.65335 0.0
C781 C 0.04033 0.82373 0.65247 0.0
C782 C 0.95035 0.93673 0.63291 0.0
C783 C 0.9216 0.94093 0.64928 0.0
C784 C 0.97256 0.90952 0.63751 0.0
C785 C 0.96692 0.88646 0.6591 0.0
C786 C 0.93905 0.89229 0.67644 0.0
C787 C 0.91634 0.91886 0.67127 0.0
H788 H 0.69575 0.05689 0.666 0.0
H789 H 0.74235 0.98223 0.61369 0.0
H790 H 0.64425 0.02126 0.66859 0.0
H791 H 0.69159 0.94705 0.61636 0.0
H792 H 0.61492 0.87555 0.65383 0.0
H793 H 0.66302 0.91441 0.65599 0.0
H794 H 0.59777 0.99788 0.63293 0.0
H795 H 0.5495 0.95885 0.62993 0.0
C796 C 0.69489 0.03302 0.65505 0.0
C797 C 0.72278 0.02243 0.63943 0.0
C798 C 0.66555 0.01278 0.65646 0.0
C799 C 0.66419 0.9814 0.64279 0.0
C800 C 0.69213 0.97098 0.62727 0.0
C801 C 0.72101 0.99128 0.62554 0.0
C802 C 0.61069 0.9021 0.64911 0.0
C803 C 0.57835 0.91387 0.6413 0.0
C804 C 0.63822 0.92438 0.65054 0.0
C805 C 0.63404 0.95902 0.64447 0.0
C806 C 0.60153 0.97128 0.63791 0.0
C807 C 0.57393 0.94888 0.63622 0.0
H808 H 0.57765 0.56379 0.67435 0.0
H809 H 0.58546 0.59533 0.59047 0.0
H810 H 0.53466 0.60807 0.68223 0.0
H811 H 0.54238 0.63902 0.59808 0.0
H812 H 0.44603 0.69641 0.61432 0.0
H813 H 0.4784 0.64358 0.61162 0.0
H814 H 0.53941 0.67496 0.6803 0.0
H815 H 0.50819 0.72836 0.68245 0.0
C816 C 0.56979 0.57996 0.6576 0.0
C817 C 0.58496 0.57655 0.63191 0.0
C818 C 0.54537 0.6052 0.66208 0.0
C819 C 0.53516 0.62678 0.64073 0.0
C820 C 0.54954 0.62249 0.61482 0.0
C821 C 0.5744 0.59781 0.61052 0.0
C822 C 0.46611 0.69197 0.62904 0.0
C823 C 0.47489 0.71704 0.64826 0.0
C824 C 0.4845 0.66165 0.62754 0.0
C825 C 0.5116 0.65547 0.64554 0.0
C826 C 0.5185 0.67906 0.66625 0.0
C827 C 0.50044 0.70963 0.66753 0.0
H828 H 0.91459 0.59602 0.59504 0.0
H829 H 0.95274 0.57798 0.67621 0.0
H830 H 0.87036 0.55331 0.60208 0.0
H831 H 0.90784 0.53528 0.68358 0.0
H832 H 0.78573 0.51041 0.68596 0.0
H833 H 0.83999 0.54087 0.68483 0.0
H834 H 0.8672 0.48772 0.61132 0.0
H835 H 0.81354 0.4566 0.61276 0.0
C836 C 0.91343 0.58281 0.61438 0.0
C837 C 0.9368 0.59029 0.63514 0.0
C838 C 0.8884 0.55819 0.61834 0.0
C839 C 0.88589 0.54093 0.64332 0.0
C840 C 0.90937 0.54822 0.66413 0.0
C841 C 0.93497 0.57245 0.65992 0.0
C842 C 0.80383 0.50426 0.67017 0.0
C843 C 0.79508 0.48163 0.64914 0.0
C844 C 0.83483 0.52178 0.66948 0.0
C845 C 0.85736 0.51702 0.64771 0.0
C846 C 0.84995 0.49219 0.62808 0.0
C847 C 0.81923 0.47448 0.6289 0.0
H848 H 0.73731 0.16005 0.15421 0.0
H849 H 0.66738 0.23034 0.11615 0.0
H850 H 0.77937 0.20525 0.15826 0.0
H851 H 0.70994 0.27519 0.11915 0.0
H852 H 0.78438 0.35672 0.14372 0.0
H853 H 0.74149 0.31247 0.14857 0.0
H854 H 0.81635 0.23636 0.12837 0.0
H855 H 0.85956 0.28048 0.12466 0.0
C856 C 0.73064 0.18521 0.14703 0.0
C857 C 0.69883 0.1914 0.13474 0.0
C858 C 0.75502 0.2111 0.14903 0.0
C859 C 0.74829 0.24391 0.13883 0.0
C860 C 0.71603 0.25039 0.12746 0.0
C861 C 0.69167 0.22451 0.12546 0.0
C862 C 0.79197 0.33053 0.1409 0.0
C863 C 0.82558 0.32231 0.13368 0.0
C864 C 0.76717 0.30511 0.14334 0.0
C865 C 0.77526 0.27075 0.13865 0.0
C866 C 0.80913 0.26244 0.13237 0.0
C867 C 0.83392 0.28785 0.12993 0.0
H868 H 0.36181 0.74458 0.13562 0.0
H869 H 0.28776 0.66379 0.1281 0.0
H870 H 0.3163 0.78604 0.13747 0.0
H871 H 0.24229 0.70559 0.12841 0.0
H872 H 0.16448 0.78577 0.14931 0.0
H873 H 0.21117 0.74565 0.15488 0.0
H874 H 0.27626 0.81189 0.1079 0.0
H875 H 0.23016 0.85265 0.10353 0.0
C876 C 0.33592 0.73544 0.13452 0.0
C877 C 0.32879 0.7005 0.13162 0.0
C878 C 0.30967 0.75945 0.13523 0.0
C879 C 0.27545 0.74937 0.13288 0.0
C880 C 0.26824 0.71442 0.13056 0.0
C881 C 0.29449 0.69035 0.13 0.0
C882 C 0.18893 0.79219 0.14068 0.0
C883 C 0.19337 0.82255 0.12584 0.0
C884 C 0.21566 0.76887 0.14354 0.0
C885 C 0.24757 0.77523 0.13165 0.0
C886 C 0.25226 0.8061 0.11758 0.0
C887 C 0.22561 0.82941 0.1148 0.0
H888 H 0.35919 0.73849 0.43439 0.0
H889 H 0.27787 0.6649 0.42945 0.0
H890 H 0.31759 0.78438 0.43549 0.0
H891 H 0.23628 0.71071 0.43035 0.0
H892 H 0.17216 0.7992 0.46334 0.0
H893 H 0.21266 0.75262 0.46016 0.0
H894 H 0.27627 0.814 0.40799 0.0
H895 H 0.23642 0.86109 0.41214 0.0
C896 C 0.33246 0.73208 0.43335 0.0
C897 C 0.32199 0.69791 0.43196 0.0
C898 C 0.30854 0.75844 0.43388 0.0
C899 C 0.27346 0.75137 0.43295 0.0
C900 C 0.26301 0.71717 0.43153 0.0
C901 C 0.28693 0.69082 0.43107 0.0
C902 C 0.19477 0.8028 0.45119 0.0
C903 C 0.20097 0.83408 0.43814 0.0
C904 C 0.21791 0.77591 0.44914 0.0
C905 C 0.24795 0.7795 0.43394 0.0
C906 C 0.2537 0.81045 0.42023 0.0
C907 C 0.23053 0.83737 0.42229 0.0
H908 H 0.78957 0.36114 0.43733 0.0
H909 H 0.86253 0.28049 0.42607 0.0
H910 H 0.74386 0.31922 0.43942 0.0
H911 H 0.81698 0.23865 0.4278 0.0
H912 H 0.73211 0.17135 0.46219 0.0
H913 H 0.77796 0.21261 0.45835 0.0
H914 H 0.71176 0.2795 0.41269 0.0
H915 H 0.66542 0.23888 0.41768 0.0
C916 C 0.79584 0.33449 0.43514 0.0
C917 C 0.82981 0.32427 0.43174 0.0
C918 C 0.7696 0.3104 0.43621 0.0
C919 C 0.77659 0.2754 0.43376 0.0
C920 C 0.81059 0.26525 0.43025 0.0
C921 C 0.83681 0.28932 0.4293 0.0
C922 C 0.72726 0.19485 0.45136 0.0
C923 C 0.69487 0.20168 0.44039 0.0
C924 C 0.75373 0.21847 0.44891 0.0
C925 C 0.74866 0.24961 0.43531 0.0
C926 C 0.71653 0.25607 0.42368 0.0
C927 C 0.69 0.23245 0.42618 0.0
H928 H 0.23207 0.67232 0.90423 0.0
H929 H 0.1693 0.72601 0.96164 0.0
H930 H 0.27267 0.71979 0.90419 0.0
H931 H 0.21033 0.77316 0.96217 0.0
H932 H 0.31926 0.81975 0.98062 0.0
H933 H 0.2764 0.77475 0.97812 0.0
H934 H 0.27035 0.78779 0.89101 0.0
H935 H 0.31298 0.83363 0.89362 0.0
C936 C 0.22707 0.69428 0.91687 0.0
C937 C 0.19766 0.69554 0.93301 0.0
C938 C 0.2501 0.72146 0.91669 0.0
C939 C 0.24457 0.75008 0.93315 0.0
C940 C 0.21516 0.75136 0.9493 0.0
C941 C 0.1917 0.72453 0.94896 0.0
C942 C 0.30888 0.81293 0.96093 0.0
C943 C 0.31959 0.82998 0.93726 0.0
C944 C 0.28418 0.78741 0.95954 0.0
C945 C 0.27011 0.77786 0.93439 0.0
C946 C 0.28092 0.79467 0.91064 0.0
C947 C 0.30513 0.82085 0.91211 0.0
H948 H 0.73204 0.3591 0.94849 0.0
H949 H 0.66091 0.28475 0.9177 0.0
H950 H 0.77781 0.31735 0.94543 0.0
H951 H 0.70675 0.24322 0.91411 0.0
H952 H 0.78789 0.16869 0.94939 0.0
H953 H 0.74206 0.21041 0.9463 0.0
H954 H 0.8123 0.28404 0.91328 0.0
H955 H 0.85822 0.24254 0.9169 0.0
C956 C 0.72624 0.33396 0.94081 0.0
C957 C 0.69276 0.32535 0.93339 0.0
C958 C 0.75253 0.31008 0.93884 0.0
C959 C 0.74598 0.27684 0.9296 0.0
C960 C 0.71264 0.26847 0.92155 0.0
C961 C 0.6864 0.29244 0.92331 0.0
C962 C 0.79349 0.19371 0.94133 0.0
C963 C 0.82677 0.2022 0.93345 0.0
C964 C 0.76717 0.21757 0.93934 0.0
C965 C 0.77348 0.25067 0.92962 0.0
C966 C 0.8066 0.25891 0.9211 0.0
C967 C 0.83288 0.23494 0.92288 0.0
H968 H 0.84979 0.22966 0.60182 0.0
H969 H 0.78047 0.1626 0.64386 0.0
H970 H 0.80848 0.27541 0.60456 0.0
H971 H 0.73976 0.20893 0.64785 0.0
H972 H 0.65921 0.28693 0.62153 0.0
H973 H 0.70107 0.2412 0.62056 0.0
H974 H 0.78132 0.31448 0.63398 0.0
H975 H 0.73951 0.36006 0.63449 0.0
C976 C 0.82586 0.22467 0.61186 0.0
C977 C 0.81857 0.19218 0.62243 0.0
C978 C 0.8022 0.25113 0.6137 0.0
C979 C 0.77054 0.24601 0.62632 0.0
C980 C 0.7636 0.21377 0.63758 0.0
C981 C 0.78725 0.18723 0.63565 0.0
C982 C 0.68578 0.29323 0.62436 0.0
C983 C 0.69592 0.32724 0.62789 0.0
C984 C 0.70985 0.26697 0.62393 0.0
C985 C 0.74475 0.27397 0.62721 0.0
C986 C 0.75482 0.30804 0.63089 0.0
C987 C 0.73078 0.33429 0.63115 0.0
H988 H 0.32006 0.82167 0.66625 0.0
H989 H 0.31784 0.81194 0.57883 0.0
H990 H 0.27376 0.77965 0.66977 0.0
H991 H 0.27241 0.76971 0.58231 0.0
H992 H 0.22201 0.66599 0.6061 0.0
H993 H 0.26853 0.70758 0.60471 0.0
H994 H 0.20819 0.77779 0.6515 0.0
H995 H 0.16141 0.73643 0.65238 0.0
C996 C 0.30968 0.81051 0.64788 0.0
C997 C 0.32225 0.82027 0.62229 0.0
C998 C 0.28324 0.78663 0.64985 0.0
C999 C 0.26961 0.77145 0.62629 0.0
C1000 C 0.28254 0.78092 0.60078 0.0
C1001 C 0.30832 0.80527 0.59879 0.0
C1002 C 0.21881 0.69025 0.61614 0.0
C1003 C 0.1881 0.69807 0.62921 0.0
C1004 C 0.2453 0.71405 0.61529 0.0
C1005 C 0.24192 0.74584 0.62805 0.0
C1006 C 0.21149 0.7534 0.64163 0.0
C1007 C 0.1847 0.7299 0.64195 0.0
H1008 H 0.53872 0.05539 0.10366 0.0
H1009 H 0.61158 0.02203 0.04387 0.0
H1010 H 0.49248 0.03486 0.07437 0.0
H1011 H 0.56621 1.00038 1.01555 0.0
H1012 H 0.47631 0.9899 0.95758 0.0
H1013 H 0.52182 0.0131 0.98601 0.0
H1014 H 0.46539 0.98569 0.0582 0.0
H1015 H 0.41955 0.96414 1.0297 0.0
C1016 C 0.54489 0.04375 0.08433 0.0
C1017 C 0.57894 0.04059 0.07619 0.0
C1018 C 0.51841 0.03163 0.06757 0.0
C1019 C 0.52535 0.01577 0.04236 0.0
C1020 C 0.55948 0.01292 0.03437 0.0
C1021 C 0.58572 0.02524 0.05089 0.0
C1022 C 0.47391 0.98848 0.97951 0.0
C1023 C 0.44436 0.97506 0.99133 0.0
C1024 C 0.50002 1.00183 0.99594 0.0
C1025 C 0.49747 1.00162 1.02466 0.0
C1026 C 0.46818 0.98721 0.03631 0.0
C1027 C 0.44198 0.97438 1.01991 0.0
H1028 H 0.46176 0.60344 0.03401 0.0
H1029 H 0.48323 0.54391 0.10597 0.0
H1030 H 0.48477 0.55847 1.00558 0.0
H1031 H 0.50806 0.49964 0.07775 0.0
H1032 H 0.51961 0.41165 1.01976 0.0
H1033 H 0.4962 0.45643 0.04736 0.0
H1034 H 0.53478 0.53141 0.99083 0.0
H1035 H 0.5571 0.48567 0.96209 0.0
C1036 C 0.47138 0.58067 0.0438 0.0
C1037 C 0.47054 0.57731 0.07233 0.0
C1038 C 0.48506 0.55499 1.02745 0.0
C1039 C 0.49872 0.52529 0.03915 0.0
C1040 C 0.4974 0.52179 0.06776 0.0
C1041 C 0.48319 0.54728 0.08409 0.0
C1042 C 0.52338 0.43765 1.01309 0.0
C1043 C 0.54047 0.44495 0.98861 0.0
C1044 C 0.51002 0.46355 1.0292 0.0
C1045 C 0.5136 0.49784 1.02167 0.0
C1046 C 0.53104 0.50532 0.99724 0.0
C1047 C 0.54417 0.47915 0.98082 0.0
H1048 H 0.97731 0.48973 0.10479 0.0
H1049 H 0.93717 0.444 0.03169 0.0
H1050 H 0.02097 0.51838 0.07801 0.0
H1051 H 0.9817 0.47094 1.00498 0.0
H1052 H 0.04316 0.54905 0.95848 0.0
H1053 H 0.99906 0.52273 0.98647 0.0
H1054 H 0.07061 0.51385 0.05315 0.0
H1055 H 0.11361 0.54153 1.02586 0.0
C1056 C 0.97845 0.485 0.0831 0.0
C1057 C 0.95387 0.46447 0.0704 0.0
C1058 C 1.00348 0.50152 0.0676 0.0
C1059 C 1.00492 0.49747 0.03905 0.0
C1060 C 0.98107 0.47563 1.02668 0.0
C1061 C 0.95578 0.45967 0.04209 0.0
C1062 C 0.0492 0.54199 0.97927 0.0
C1063 C 0.08196 0.5476 0.98985 0.0
C1064 C 0.02404 0.52642 0.9953 0.0
C1065 C 0.03109 0.5157 1.02223 0.0
C1066 C 0.06375 0.52203 0.03281 0.0
C1067 C 0.08864 0.53786 1.01696 0.0
H1068 H 0.96327 0.04223 0.96132 0.0
H1069 H 0.99709 0.11431 1.02188 0.0
H1070 H 0.98405 0.9956 0.99005 0.0
H1071 H 0.01895 0.06848 0.04973 0.0
H1072 H 0.02955 0.97649 0.10626 0.0
H1073 H 1.00645 0.02304 0.07869 0.0
H1074 H 0.03404 0.96905 1.00543 0.0
H1075 H 0.05558 0.92235 0.03297 0.0
C1076 C 0.97504 0.04814 0.98071 0.0
C1077 C 0.97833 0.08207 0.9892 0.0
C1078 C 0.98732 0.02145 0.99715 0.0
C1079 C 1.00344 0.02805 1.02239 0.0
C1080 C 1.00629 0.06205 0.03082 0.0
C1081 C 0.99384 0.08853 1.01459 0.0
C1082 C 0.0311 0.97494 0.08429 0.0
C1083 C 0.0445 0.94581 0.07183 0.0
C1084 C 0.01776 1.00158 0.06837 0.0
C1085 C 0.01792 0.9999 0.0396 0.0
C1086 C 0.03249 0.97112 1.02736 0.0
C1087 C 0.04533 0.94444 0.04322 0.0
H1088 H 0.977 0.03391 0.60569 0.0
H1089 H 0.91851 0.05389 0.53292 0.0
H1090 H 0.024 0.01321 0.57767 0.0
H1091 H 0.96542 0.03453 0.50496 0.0
H1092 H 0.04188 0.96716 0.46145 0.0
H1093 H 0.99492 0.98539 0.49065 0.0
H1094 H 0.06704 0.02929 0.54715 0.0
H1095 H 0.11333 1.01017 0.51884 0.0
C1096 C 0.97449 0.03459 0.58373 0.0
C1097 C 0.9441 0.04563 0.57156 0.0
C1098 C 1.00137 0.02262 0.56757 0.0
C1099 C 0.99856 0.02178 0.53887 0.0
C1100 C 0.9684 0.03386 0.52688 0.0
C1101 C 0.94157 0.04541 0.54297 0.0
C1102 C 0.04759 0.98044 0.48022 0.0
C1103 C 0.08143 0.98706 0.48771 0.0
C1104 C 0.02069 0.99118 0.49692 0.0
C1105 C 0.02701 1.00898 0.52142 0.0
C1106 C 0.06094 0.01523 0.52883 0.0
C1107 C 0.08764 1.00438 0.51233 0.0
H1108 H 0.53082 0.04709 0.45725 0.0
H1109 H 0.55654 0.0993 0.53168 0.0
H1110 H 0.50666 1.00026 0.48379 0.0
H1111 H 0.53404 0.05224 0.55824 0.0
H1112 H 0.4615 0.97902 0.60019 0.0
H1113 H 0.48369 0.02597 0.57261 0.0
H1114 H 0.51778 0.95403 0.51216 0.0
H1115 H 0.49449 0.90794 0.53883 0.0
C1116 C 0.53207 0.04814 0.47927 0.0
C1117 C 0.54567 0.07683 0.49234 0.0
C1118 C 0.51815 0.02133 0.4946 0.0
C1119 C 0.51795 0.02236 0.52339 0.0
C1120 C 0.53275 0.05068 0.53625 0.0
C1121 C 0.54615 0.07756 0.52097 0.0
C1122 C 0.47342 0.97339 0.58088 0.0
C1123 C 0.47599 0.93965 0.5718 0.0
C1124 C 0.4865 1.00027 0.5651 0.0
C1125 C 0.50277 0.99403 0.53996 0.0
C1126 C 0.50501 0.96021 0.53099 0.0
C1127 C 0.49173 0.93357 0.54655 0.0
H1128 H 0.4692 0.53116 0.45606 0.0
H1129 H 0.43695 0.58474 0.528 0.0
H1130 H 0.5101 0.49924 0.48307 0.0
H1131 H 0.47952 0.55463 0.55493 0.0
H1132 H 0.53638 0.47401 0.60314 0.0
H1133 H 0.49351 0.50324 0.5755 0.0
H1134 H 0.56067 0.49906 0.50609 0.0
H1135 H 0.60198 0.4684 0.53302 0.0
C1136 C 0.4715 0.53684 0.47754 0.0
C1137 C 0.44978 0.56061 0.4898 0.0
C1138 C 0.49512 0.51848 0.49319 0.0
C1139 C 0.49831 0.52392 0.52151 0.0
C1140 C 0.47745 0.54884 0.53346 0.0
C1141 C 0.45333 0.56663 0.51789 0.0
C1142 C 0.54156 0.47874 0.58182 0.0
C1143 C 0.57263 0.46859 0.57038 0.0
C1144 C 0.51718 0.49603 0.56597 0.0
C1145 C 0.52341 0.504 0.53835 0.0
C1146 C 0.5543 0.49312 0.52698 0.0
C1147 C 0.5783 0.47553 0.54263 0.0
H1148 H 0.04645 0.53978 0.60125 0.0
H1149 H 0.04127 0.60991 0.5336 0.0
H1150 H 0.02203 0.49519 0.57247 0.0
H1151 H 0.01554 0.56645 0.50549 0.0
H1152 H 0.99481 0.47345 0.45292 0.0
H1153 H 0.02211 0.51686 0.48087 0.0
H1154 H 0.97145 0.47686 0.55208 0.0
H1155 H 0.94573 0.43255 0.52423 0.0
C1156 C 0.04032 0.54565 0.58024 0.0
C1157 C 0.04603 0.57848 0.56983 0.0
C1158 C 0.02585 0.5202 0.56374 0.0
C1159 C 0.0164 0.527 0.53647 0.0
C1160 C 0.02281 0.55974 0.52609 0.0
C1161 C 0.03751 0.58492 0.54242 0.0
C1162 C 0.98916 0.47427 0.47447 0.0
C1163 C 0.96796 0.44958 0.48628 0.0
C1164 C 1.00487 0.49921 0.49064 0.0
C1165 C 0.99939 0.50052 0.51903 0.0
C1166 C 0.97716 0.4764 0.53055 0.0
C1167 C 0.96193 0.45119 0.51446 0.0
H1168 H 0.54996 0.17259 0.32953 0.0
H1169 H 0.59378 0.08372 0.36732 0.0
H1170 H 0.56855 0.15311 0.28518 0.0
H1171 H 0.61038 0.0625 0.32266 0.0
H1172 H 0.66131 0.04319 0.24239 0.0
H1173 H 0.64571 0.06557 0.28649 0.0
H1174 H 0.56009 0.1174 0.24949 0.0
H1175 H 0.57772 0.09668 0.20484 0.0
C1176 C 0.56338 0.14859 0.32825 0.0
C1177 C 0.57046 0.12968 0.35193 0.0
C1178 C 0.57379 0.13714 0.30265 0.0
C1179 C 0.59089 0.10589 0.29979 0.0
C1180 C 0.59797 0.087 0.3237 0.0
C1181 C 0.58829 0.09899 0.34946 0.0
C1182 C 0.63918 0.05948 0.24368 0.0
C1183 C 0.62064 0.06807 0.22013 0.0
C1184 C 0.62995 0.07216 0.26917 0.0
C1185 C 0.60125 0.0932 0.27213 0.0
C1186 C 0.5827 0.10184 0.24834 0.0
C1187 C 0.59258 0.0898 0.22263 0.0
H1188 H 0.40846 0.50714 0.33562 0.0
H1189 H 0.39717 0.61349 0.35538 0.0
H1190 H 0.42587 0.52254 0.28941 0.0
H1191 H 0.41385 0.6288 0.30883 0.0
H1192 H 0.408 0.63401 0.21261 0.0
H1193 H 0.38828 0.6176 0.25827 0.0
H1194 H 0.47849 0.55678 0.2696 0.0
H1195 H 0.49855 0.57377 0.22454 0.0
C1196 C 0.40972 0.5338 0.33009 0.0
C1197 C 0.40165 0.5591 0.34919 0.0
C1198 C 0.41965 0.54258 0.30365 0.0
C1199 C 0.42096 0.57684 0.2955 0.0
C1200 C 0.41274 0.60219 0.31452 0.0
C1201 C 0.40355 0.59343 0.3412 0.0
C1202 C 0.42333 0.61681 0.22476 0.0
C1203 C 0.45476 0.60508 0.21501 0.0
C1204 C 0.41223 0.60769 0.25093 0.0
C1205 C 0.43195 0.58602 0.26748 0.0
C1206 C 0.46275 0.57342 0.25728 0.0
C1207 C 0.4742 0.58316 0.23149 0.0
H1208 H 0.94799 0.42478 0.19524 0.0
H1209 H 0.86701 0.4817 0.23245 0.0
H1210 H 0.96873 0.40806 0.24015 0.0
H1211 H 0.8855 0.46296 0.27719 0.0
H1212 H 0.93958 0.44829 0.35749 0.0
H1213 H 0.92198 0.4675 0.31236 0.0
H1214 H 0.96345 0.37539 0.27752 0.0
H1215 H 0.98331 0.35815 0.32223 0.0
C1216 C 0.93433 0.43323 0.2131 0.0
C1217 C 0.90606 0.45467 0.21036 0.0
C1218 C 0.94601 0.42346 0.23901 0.0
C1219 C 0.92901 0.43401 0.26287 0.0
C1220 C 0.90014 0.45491 0.25976 0.0
C1221 C 0.88919 0.46547 0.23396 0.0
C1222 C 0.94508 0.43244 0.34004 0.0
C1223 C 0.96307 0.40193 0.34336 0.0
C1224 C 0.93469 0.4432 0.31404 0.0
C1225 C 0.94102 0.42313 0.29073 0.0
C1226 C 0.95869 0.39227 0.29443 0.0
C1227 C 0.96994 0.38212 0.32026 0.0
H1228 H 0.17051 0.96691 0.32365 0.0
H1229 H 0.0785 0.92852 0.3599 0.0
H1230 H 0.153 0.94522 0.27961 0.0
H1231 H 0.05938 0.90852 0.31523 0.0
H1232 H 0.0434 0.85323 0.23559 0.0
H1233 H 0.06369 0.87064 0.28012 0.0
H1234 H 0.11854 0.95394 0.24283 0.0
H1235 H 0.09976 0.93477 0.19798 0.0
C1236 C 0.14628 0.9539 0.32208 0.0
C1237 C 0.12582 0.94946 0.34521 0.0
C1238 C 0.13598 0.94173 0.29664 0.0
C1239 C 0.10438 0.92541 0.29331 0.0
C1240 C 0.0841 0.92047 0.31674 0.0
C1241 C 0.0949 0.93201 0.34245 0.0
C1242 C 0.05995 0.87522 0.2369 0.0
C1243 C 0.06995 0.89266 0.2132 0.0
C1244 C 0.07142 0.88545 0.26261 0.0
C1245 C 0.09274 0.91398 0.26557 0.0
C1246 C 0.10275 0.93144 0.24168 0.0
C1247 C 0.09184 0.92065 0.21582 0.0
H1248 H 0.43454 1.00032 0.83653 0.0
H1249 H 0.38397 0.90503 0.85289 0.0
H1250 H 0.44846 0.98094 0.79079 0.0
H1251 H 0.39759 0.88566 0.8065 0.0
H1252 H 0.39749 0.88724 0.70899 0.0
H1253 H 0.3818 0.9052 0.75536 0.0
H1254 H 0.48602 0.93363 0.77102 0.0
H1255 H 0.50164 0.91537 0.72536 0.0
C1256 C 0.42666 0.97504 0.8304 0.0
C1257 C 0.40845 0.95408 0.84842 0.0
C1258 C 0.43456 0.96399 0.80415 0.0
C1259 C 0.42394 0.93188 0.79496 0.0
C1260 C 0.40584 0.91067 0.81297 0.0
C1261 C 0.39846 0.92154 0.83959 0.0
C1262 C 0.41684 0.89775 0.72229 0.0
C1263 C 0.45075 0.90011 0.71351 0.0
C1264 C 0.40798 0.9076 0.74889 0.0
C1265 C 0.43274 0.92066 0.76687 0.0
C1266 C 0.46636 0.92375 0.75768 0.0
C1267 C 0.47528 0.91334 0.7315 0.0
H1268 H 0.57705 0.43321 0.69924 0.0
H1269 H 0.66086 0.488 0.73529 0.0
H1270 H 0.55852 0.41538 0.74432 0.0
H1271 H 0.64413 0.46833 0.78021 0.0
H1272 H 0.59134 0.44936 0.8615 0.0
H1273 H 0.60839 0.4709 0.81681 0.0
H1274 H 0.56889 0.37932 0.77944 0.0
H1275 H 0.54998 0.35952 0.82358 0.0
C1276 C 0.59166 0.4412 0.71685 0.0
C1277 C 0.6203 0.46208 0.71369 0.0
C1278 C 0.58131 0.43069 0.74282 0.0
C1279 C 0.59991 0.43996 0.76634 0.0
C1280 C 0.6286 0.46101 0.76296 0.0
C1281 C 0.6384 0.47219 0.73706 0.0
C1282 C 0.58646 0.434 0.84362 0.0
C1283 C 0.5691 0.40296 0.84597 0.0
C1284 C 0.59633 0.4462 0.8179 0.0
C1285 C 0.58981 0.42718 0.79403 0.0
C1286 C 0.57347 0.39548 0.79687 0.0
C1287 C 0.5629 0.38383 0.82235 0.0
H1288 H 0.08375 0.57426 0.69889 0.0
H1289 H 0.03131 0.65704 0.73792 0.0
H1290 H 0.10326 0.55387 0.74319 0.0
H1291 H 0.05272 0.63868 0.78188 0.0
H1292 H 0.07468 0.58621 0.86195 0.0
H1293 H 0.05112 0.60264 0.81781 0.0
H1294 H 0.13999 0.56113 0.77817 0.0
H1295 H 0.1617 0.5426 0.82199 0.0
C1296 C 0.07665 0.58823 0.71698 0.0
C1297 C 0.05582 0.61706 0.71492 0.0
C1298 C 0.08811 0.5768 0.74251 0.0
C1299 C 0.07989 0.59454 0.76662 0.0
C1300 C 0.05912 0.62359 0.76424 0.0
C1301 C 0.04695 0.63439 0.73885 0.0
C1302 C 0.08893 0.58053 0.84369 0.0
C1303 C 0.11987 0.56294 0.84542 0.0
C1304 C 0.07562 0.59017 0.81825 0.0
C1305 C 0.09343 0.58335 0.79391 0.0
C1306 C 0.12476 0.56616 0.796 0.0
C1307 C 0.1375 0.55574 0.8213 0.0
H1308 H 0.92306 0.07957 0.86027 0.0
H1309 H 0.96995 0.16766 0.82387 0.0
H1310 H 0.90368 0.06105 0.81533 0.0
H1311 H 0.94881 0.15098 0.77946 0.0
H1312 H 0.93621 0.0975 0.69818 0.0
H1313 H 0.95527 0.11599 0.74315 0.0
H1314 H 0.86763 0.06723 0.77933 0.0
H1315 H 0.85039 0.04699 0.73475 0.0
C1316 C 0.92867 0.09525 0.84269 0.0
C1317 C 0.94825 0.12484 0.84556 0.0
C1318 C 0.91742 0.08483 0.8168 0.0
C1319 C 0.92471 0.10428 0.79325 0.0
C1320 C 0.94339 0.13455 0.7966 0.0
C1321 C 0.9553 0.14439 0.82226 0.0
C1322 C 0.9211 0.09093 0.71582 0.0
C1323 C 0.89198 0.07065 0.71294 0.0
C1324 C 0.93185 0.10166 0.74174 0.0
C1325 C 0.91319 0.09314 0.76539 0.0
C1326 C 0.88341 0.07367 0.76208 0.0
C1327 C 0.87325 0.06228 0.73634 0.0
loop_
_geom_bond_atom_site_label_1
_geom_bond_atom_site_label_2
_geom_bond_distance
_geom_bond_site_symmetry_2
_ccdc_geom_bond_type
C0 C1 1.351 . S
C0 N3 1.368 . S
C0 H5 0.931 . S
C1 C0 1.351 . S
C1 N2 1.373 . S
C1 H29 0.930 . S
N2 C1 1.373 . S
N2 C4 1.340 . S
N3 C0 1.368 . S
N3 C4 1.321 . S
N3 Co6 2.135 . S
C4 N2 1.340 . S
C4 N3 1.321 . S
C4 H28 0.930 . S
H5 C0 0.931 . S
Co6 N3 2.135 . S
Co6 N9 2.121 1_545 S
Co6 O14 2.055 . S
Co6 O17 2.039 . S
Co6 N20 2.140 . S
C7 O8 1.227 . S
C7 O17 1.265 . S
O8 C7 1.227 . S
N9 Co6 2.121 1_565 S
N9 C11 1.375 . S
N9 C12 1.313 . S
C10 C11 1.338 . S
C10 N13 1.377 . S
C10 H30 0.930 . S
C11 N9 1.375 . S
C11 C10 1.338 . S
C11 H15 0.931 . S
C12 N9 1.313 . S
C12 N13 1.344 . S
C12 H16 0.930 . S
N13 C10 1.377 . S
N13 C12 1.344 . S
O14 Co6 2.055 . S
O14 C18 1.253 . S
H15 C11 0.931 . S
H16 C12 0.930 . S
O17 Co6 2.039 . S
O17 C7 1.265 . S
C18 O14 1.253 . S
C18 O19 1.227 . S
O19 C18 1.227 . S
N20 Co6 2.140 . S
N20 C23 1.346 . S
N20 C24 1.345 1_545 S
C21 C22 1.387 1_565 S
C21 C25 1.391 . S
C22 C21 1.387 1_545 S
C22 C23 1.369 . S
C22 H31 0.929 . S
C23 N20 1.346 . S
C23 C22 1.369 . S
C23 H26 0.928 . S
C24 N20 1.345 1_565 S
C24 C25 1.371 . S
C24 H27 0.931 . S
C25 C21 1.391 . S
C25 C24 1.371 . S
C25 H32 0.930 . S
H26 C23 0.928 . S
H27 C24 0.931 . S
H28 C4 0.930 . S
H29 C1 0.930 . S
H30 C10 0.930 . S
H31 C22 0.929 . S
H32 C25 0.930 . S
C33 C34 1.351 . S
C33 N36 1.368 . S
C33 H38 0.931 . S
C34 C33 1.351 . S
C34 N35 1.373 . S
C34 H62 0.930 . S
N35 C34 1.373 . S
N35 C37 1.340 . S
N36 C33 1.368 . S
N36 C37 1.321 . S
N36 Co39 2.135 . S
C37 N35 1.340 . S
C37 N36 1.321 . S
C37 H61 0.930 . S
H38 C33 0.931 . S
Co39 N36 2.135 . S
Co39 N42 2.121 . S
Co39 O47 2.055 . S
Co39 O50 2.039 . S
Co39 N53 2.140 . S
C40 O41 1.227 . S
C40 O50 1.265 . S
O41 C40 1.227 . S
N42 Co39 2.121 . S
N42 C44 1.375 . S
N42 C45 1.313 . S
C43 C44 1.338 . S
C43 N46 1.377 . S
C43 H63 0.930 . S
C44 N42 1.375 . S
C44 C43 1.338 . S
C44 H48 0.931 . S
C45 N42 1.313 . S
C45 N46 1.344 . S
C45 H49 0.930 . S
N46 C43 1.377 . S
N46 C45 1.344 . S
O47 Co39 2.055 . S
O47 C51 1.253 . S
H48 C44 0.931 . S
H49 C45 0.930 . S
O50 Co39 2.039 . S
O50 C40 1.265 . S
C51 O47 1.253 . S
C51 O52 1.227 . S
O52 C51 1.227 . S
N53 Co39 2.140 . S
N53 C56 1.346 . S
N53 C57 1.345 . S
C54 C55 1.387 . S
C54 C58 1.391 . S
C55 C54 1.387 . S
C55 C56 1.369 . S
C55 H64 0.929 . S
C56 N53 1.346 . S
C56 C55 1.369 . S
C56 H59 0.928 . S
C57 N53 1.345 . S
C57 C58 1.371 . S
C57 H60 0.931 . S
C58 C54 1.391 . S
C58 C57 1.371 . S
C58 H65 0.930 . S
H59 C56 0.928 . S
H60 C57 0.931 . S
H61 C37 0.930 . S
H62 C34 0.930 . S
H63 C43 0.930 . S
H64 C55 0.929 . S
H65 C58 0.930 . S
C66 C67 1.351 . S
C66 N69 1.368 . S
C66 H71 0.931 . S
C67 C66 1.351 . S
C67 N68 1.373 . S
C67 H95 0.930 . S
N68 C67 1.373 . S
N68 C70 1.340 . S
N69 C66 1.368 . S
N69 C70 1.321 . S
N69 Co72 2.135 . S
C70 N68 1.340 . S
C70 N69 1.321 . S
C70 H94 0.930 . S
H71 C66 0.931 . S
Co72 N69 2.135 . S
Co72 N75 2.121 . S
Co72 O80 2.055 . S
Co72 O83 2.039 . S
Co72 N86 2.140 . S
C73 O74 1.227 . S
C73 O83 1.265 . S
O74 C73 1.227 . S
N75 Co72 2.121 . S
N75 C77 1.375 . S
N75 C78 1.313 . S
C76 C77 1.338 . S
C76 N79 1.377 . S
C76 H96 0.930 . S
C77 N75 1.375 . S
C77 C76 1.338 . S
C77 H81 0.931 . S
C78 N75 1.313 . S
C78 N79 1.344 . S
C78 H82 0.930 . S
N79 C76 1.377 . S
N79 C78 1.344 . S
O80 Co72 2.055 . S
O80 C84 1.253 . S
H81 C77 0.931 . S
H82 C78 0.930 . S
O83 Co72 2.039 . S
O83 C73 1.265 . S
C84 O80 1.253 . S
C84 O85 1.227 . S
O85 C84 1.227 . S
N86 Co72 2.140 . S
N86 C89 1.346 . S
N86 C90 1.345 . S
C87 C88 1.387 . S
C87 C91 1.391 . S
C88 C87 1.387 . S
C88 C89 1.369 . S
C88 H97 0.929 . S
C89 N86 1.346 . S
C89 C88 1.369 . S
C89 H92 0.928 . S
C90 N86 1.345 . S
C90 C91 1.371 . S
C90 H93 0.931 . S
C91 C87 1.391 . S
C91 C90 1.371 . S
C91 H98 0.930 . S
H92 C89 0.928 . S
H93 C90 0.931 . S
H94 C70 0.930 . S
H95 C67 0.930 . S
H96 C76 0.930 . S
H97 C88 0.929 . S
H98 C91 0.930 . S
C99 C100 1.351 . S
C99 N102 1.368 . S
C99 H104 0.931 . S
C100 C99 1.351 . S
C100 N101 1.373 . S
C100 H128 0.930 . S
N101 C100 1.373 . S
N101 C103 1.340 . S
N102 C99 1.368 . S
N102 C103 1.321 . S
N102 Co105 2.135 . S
C103 N101 1.340 . S
C103 N102 1.321 . S
C103 H127 0.930 . S
H104 C99 0.931 . S
Co105 N102 2.135 . S
Co105 N108 2.121 1_455 S
Co105 O113 2.055 . S
Co105 O116 2.039 . S
Co105 N119 2.140 . S
C106 O107 1.227 . S
C106 O116 1.265 . S
O107 C106 1.227 . S
N108 Co105 2.121 1_655 S
N108 C110 1.375 . S
N108 C111 1.313 . S
C109 C110 1.338 . S
C109 N112 1.377 . S
C109 H129 0.930 . S
C110 N108 1.375 . S
C110 C109 1.338 . S
C110 H114 0.931 . S
C111 N108 1.313 . S
C111 N112 1.344 . S
C111 H115 0.930 . S
N112 C109 1.377 . S
N112 C111 1.344 . S
O113 Co105 2.055 . S
O113 C117 1.253 . S
H114 C110 0.931 . S
H115 C111 0.930 . S
O116 Co105 2.039 . S
O116 C106 1.265 . S
C117 O113 1.253 . S
C117 O118 1.227 . S
O118 C117 1.227 . S
N119 Co105 2.140 . S
N119 C122 1.346 . S
N119 C123 1.345 1_455 S
C120 C121 1.387 1_655 S
C120 C124 1.391 . S
C121 C120 1.387 1_455 S
C121 C122 1.369 . S
C121 H130 0.929 . S
C122 N119 1.346 . S
C122 C121 1.369 . S
C122 H125 0.928 . S
C123 N119 1.345 1_655 S
C123 C124 1.371 . S
C123 H126 0.931 . S
C124 C120 1.391 . S
C124 C123 1.371 . S
C124 H131 0.930 . S
H125 C122 0.928 . S
H126 C123 0.931 . S
H127 C103 0.930 . S
H128 C100 0.930 . S
H129 C109 0.930 . S
H130 C121 0.929 . S
H131 C124 0.930 . S
C132 C133 1.351 . S
C132 N135 1.368 . S
C132 H137 0.931 . S
C133 C132 1.351 . S
C133 N134 1.373 . S
C133 H161 0.930 . S
N134 C133 1.373 . S
N134 C136 1.340 . S
N135 C132 1.368 . S
N135 C136 1.321 . S
N135 Co138 2.135 . S
C136 N134 1.340 . S
C136 N135 1.321 . S
C136 H160 0.930 . S
H137 C132 0.931 . S
Co138 N135 2.135 . S
Co138 N141 2.121 1_565 S
Co138 O146 2.055 . S
Co138 O149 2.039 . S
Co138 N152 2.140 . S
C139 O140 1.227 . S
C139 O149 1.265 . S
O140 C139 1.227 . S
N141 Co138 2.121 1_545 S
N141 C143 1.375 . S
N141 C144 1.313 . S
C142 C143 1.338 . S
C142 N145 1.377 . S
C142 H162 0.930 . S
C143 N141 1.375 . S
C143 C142 1.338 . S
C143 H147 0.931 . S
C144 N141 1.313 . S
C144 N145 1.344 . S
C144 H148 0.930 . S
N145 C142 1.377 . S
N145 C144 1.344 . S
O146 Co138 2.055 . S
O146 C150 1.253 . S
H147 C143 0.931 . S
H148 C144 0.930 . S
O149 Co138 2.039 . S
O149 C139 1.265 . S
C150 O146 1.253 . S
C150 O151 1.227 . S
O151 C150 1.227 . S
N152 Co138 2.140 . S
N152 C155 1.346 . S
N152 C156 1.345 1_565 S
C153 C154 1.387 1_545 S
C153 C157 1.391 . S
C154 C153 1.387 1_565 S
C154 C155 1.369 . S
C154 H163 0.929 . S
C155 N152 1.346 . S
C155 C154 1.369 . S
C155 H158 0.928 . S
C156 N152 1.345 1_545 S
C156 C157 1.371 . S
C156 H159 0.931 . S
C157 C153 1.391 . S
C157 C156 1.371 . S
C157 H164 0.930 . S
H158 C155 0.928 . S
H159 C156 0.931 . S
H160 C136 0.930 . S
H161 C133 0.930 . S
H162 C142 0.930 . S
H163 C154 0.929 . S
H164 C157 0.930 . S
C165 C166 1.351 . S
C165 N168 1.368 . S
C165 H170 0.931 . S
C166 C165 1.351 . S
C166 N167 1.373 . S
C166 H194 0.930 . S
N167 C166 1.373 . S
N167 C169 1.340 . S
N168 C165 1.368 . S
N168 C169 1.321 . S
N168 Co171 2.135 . S
C169 N167 1.340 . S
C169 N168 1.321 . S
C169 H193 0.930 . S
H170 C165 0.931 . S
Co171 N168 2.135 . S
Co171 N174 2.121 . S
Co171 O179 2.055 . S
Co171 O182 2.039 . S
Co171 N185 2.140 . S
C172 O173 1.227 . S
C172 O182 1.265 . S
O173 C172 1.227 . S
N174 Co171 2.121 . S
N174 C176 1.375 . S
N174 C177 1.313 . S
C175 C176 1.338 . S
C175 N178 1.377 . S
C175 H195 0.930 . S
C176 N174 1.375 . S
C176 C175 1.338 . S
C176 H180 0.931 . S
C177 N174 1.313 . S
C177 N178 1.344 . S
C177 H181 0.930 . S
N178 C175 1.377 . S
N178 C177 1.344 . S
O179 Co171 2.055 . S
O179 C183 1.253 . S
H180 C176 0.931 . S
H181 C177 0.930 . S
O182 Co171 2.039 . S
O182 C172 1.265 . S
C183 O179 1.253 . S
C183 O184 1.227 . S
O184 C183 1.227 . S
N185 Co171 2.140 . S
N185 C188 1.346 . S
N185 C189 1.345 . S
C186 C187 1.387 . S
C186 C190 1.391 . S
C187 C186 1.387 . S
C187 C188 1.369 . S
C187 H196 0.929 . S
C188 N185 1.346 . S
C188 C187 1.369 . S
C188 H191 0.928 . S
C189 N185 1.345 . S
C189 C190 1.371 . S
C189 H192 0.931 . S
C190 C186 1.391 . S
C190 C189 1.371 . S
C190 H197 0.930 . S
H191 C188 0.928 . S
H192 C189 0.931 . S
H193 C169 0.930 . S
H194 C166 0.930 . S
H195 C175 0.930 . S
H196 C187 0.929 . S
H197 C190 0.930 . S
C198 C199 1.351 . S
C198 N201 1.368 . S
C198 H203 0.931 . S
C199 C198 1.351 . S
C199 N200 1.373 . S
C199 H227 0.930 . S
N200 C199 1.373 . S
N200 C202 1.340 . S
N201 C198 1.368 . S
N201 C202 1.321 . S
N201 Co204 2.135 . S
C202 N200 1.340 . S
C202 N201 1.321 . S
C202 H226 0.930 . S
H203 C198 0.931 . S
Co204 N201 2.135 . S
Co204 N207 2.121 . S
Co204 O212 2.055 . S
Co204 O215 2.039 . S
Co204 N218 2.140 . S
C205 O206 1.227 . S
C205 O215 1.265 . S
O206 C205 1.227 . S
N207 Co204 2.121 . S
N207 C209 1.375 . S
N207 C210 1.313 . S
C208 C209 1.338 . S
C208 N211 1.377 . S
C208 H228 0.930 . S
C209 N207 1.375 . S
C209 C208 1.338 . S
C209 H213 0.931 . S
C210 N207 1.313 . S
C210 N211 1.344 . S
C210 H214 0.930 . S
N211 C208 1.377 . S
N211 C210 1.344 . S
O212 Co204 2.055 . S
O212 C216 1.253 . S
H213 C209 0.931 . S
H214 C210 0.930 . S
O215 Co204 2.039 . S
O215 C205 1.265 . S
C216 O212 1.253 . S
C216 O217 1.227 . S
O217 C216 1.227 . S
N218 Co204 2.140 . S
N218 C221 1.346 . S
N218 C222 1.345 . S
C219 C220 1.387 . S
C219 C223 1.391 . S
C220 C219 1.387 . S
C220 C221 1.369 . S
C220 H229 0.929 . S
C221 N218 1.346 . S
C221 C220 1.369 . S
C221 H224 0.928 . S
C222 N218 1.345 . S
C222 C223 1.371 . S
C222 H225 0.931 . S
C223 C219 1.391 . S
C223 C222 1.371 . S
C223 H230 0.930 . S
H224 C221 0.928 . S
H225 C222 0.931 . S
H226 C202 0.930 . S
H227 C199 0.930 . S
H228 C208 0.930 . S
H229 C220 0.929 . S
H230 C223 0.930 . S
C231 C232 1.351 . S
C231 N234 1.368 . S
C231 H236 0.931 . S
C232 C231 1.351 . S
C232 N233 1.373 . S
C232 H260 0.930 . S
N233 C232 1.373 . S
N233 C235 1.340 . S
N234 C231 1.368 . S
N234 C235 1.321 . S
N234 Co237 2.135 . S
C235 N233 1.340 . S
C235 N234 1.321 . S
C235 H259 0.930 . S
H236 C231 0.931 . S
Co237 N234 2.135 . S
Co237 N240 2.121 1_655 S
Co237 O245 2.055 . S
Co237 O248 2.039 . S
Co237 N251 2.140 . S
C238 O239 1.227 . S
C238 O248 1.265 . S
O239 C238 1.227 . S
N240 Co237 2.121 1_455 S
N240 C242 1.375 . S
N240 C243 1.313 . S
C241 C242 1.338 . S
C241 N244 1.377 . S
C241 H261 0.930 . S
C242 N240 1.375 . S
C242 C241 1.338 . S
C242 H246 0.931 . S
C243 N240 1.313 . S
C243 N244 1.344 . S
C243 H247 0.930 . S
N244 C241 1.377 . S
N244 C243 1.344 . S
O245 Co237 2.055 . S
O245 C249 1.253 . S
H246 C242 0.931 . S
H247 C243 0.930 . S
O248 Co237 2.039 . S
O248 C238 1.265 . S
C249 O245 1.253 . S
C249 O250 1.227 . S
O250 C249 1.227 . S
N251 Co237 2.140 . S
N251 C254 1.346 . S
N251 C255 1.345 1_655 S
C252 C253 1.387 1_455 S
C252 C256 1.391 . S
C253 C252 1.387 1_655 S
C253 C254 1.369 . S
C253 H262 0.929 . S
C254 N251 1.346 . S
C254 C253 1.369 . S
C254 H257 0.928 . S
C255 N251 1.345 1_455 S
C255 C256 1.371 . S
C255 H258 0.931 . S
C256 C252 1.391 . S
C256 C255 1.371 . S
C256 H263 0.930 . S
H257 C254 0.928 . S
H258 C255 0.931 . S
H259 C235 0.930 . S
H260 C232 0.930 . S
H261 C241 0.930 . S
H262 C253 0.929 . S
H263 C256 0.930 . S
C264 C265 1.351 . S
C264 N267 1.368 . S
C264 H269 0.931 . S
C265 C264 1.351 . S
C265 N266 1.373 . S
C265 H293 0.930 . S
N266 C265 1.373 . S
N266 C268 1.340 . S
N267 C264 1.368 . S
N267 C268 1.321 . S
N267 Co270 2.135 . S
C268 N266 1.340 . S
C268 N267 1.321 . S
C268 H292 0.930 . S
H269 C264 0.931 . S
Co270 N267 2.135 . S
Co270 N273 2.121 1_565 S
Co270 O278 2.055 . S
Co270 O281 2.039 . S
Co270 N284 2.140 . S
C271 O272 1.227 . S
C271 O281 1.265 . S
O272 C271 1.227 . S
N273 Co270 2.121 1_545 S
N273 C275 1.375 . S
N273 C276 1.313 . S
C274 C275 1.338 . S
C274 N277 1.377 . S
C274 H294 0.930 . S
C275 N273 1.375 . S
C275 C274 1.338 . S
C275 H279 0.931 . S
C276 N273 1.313 . S
C276 N277 1.344 . S
C276 H280 0.930 . S
N277 C274 1.377 . S
N277 C276 1.344 . S
O278 Co270 2.055 . S
O278 C282 1.253 . S
H279 C275 0.931 . S
H280 C276 0.930 . S
O281 Co270 2.039 . S
O281 C271 1.265 . S
C282 O278 1.253 . S
C282 O283 1.227 . S
O283 C282 1.227 . S
N284 Co270 2.140 . S
N284 C287 1.346 . S
N284 C288 1.345 1_565 S
C285 C286 1.387 1_545 S
C285 C289 1.391 . S
C286 C285 1.387 1_565 S
C286 C287 1.369 . S
C286 H295 0.929 . S
C287 N284 1.346 . S
C287 C286 1.369 . S
C287 H290 0.928 . S
C288 N284 1.345 1_545 S
C288 C289 1.371 . S
C288 H291 0.931 . S
C289 C285 1.391 . S
C289 C288 1.371 . S
C289 H296 0.930 . S
H290 C287 0.928 . S
H291 C288 0.931 . S
H292 C268 0.930 . S
H293 C265 0.930 . S
H294 C274 0.930 . S
H295 C286 0.929 . S
H296 C289 0.930 . S
C297 C298 1.351 . S
C297 N300 1.368 . S
C297 H302 0.931 . S
C298 C297 1.351 . S
C298 N299 1.373 . S
C298 H326 0.930 . S
N299 C298 1.373 . S
N299 C301 1.340 . S
N300 C297 1.368 . S
N300 C301 1.321 . S
N300 Co303 2.135 . S
C301 N299 1.340 . S
C301 N300 1.321 . S
C301 H325 0.930 . S
H302 C297 0.931 . S
Co303 N300 2.135 . S
Co303 N306 2.121 . S
Co303 O311 2.055 . S
Co303 O314 2.039 . S
Co303 N317 2.140 . S
C304 O305 1.227 . S
C304 O314 1.265 . S
O305 C304 1.227 . S
N306 Co303 2.121 . S
N306 C308 1.375 . S
N306 C309 1.313 . S
C307 C308 1.338 . S
C307 N310 1.377 . S
C307 H327 0.930 . S
C308 N306 1.375 . S
C308 C307 1.338 . S
C308 H312 0.931 . S
C309 N306 1.313 . S
C309 N310 1.344 . S
C309 H313 0.930 . S
N310 C307 1.377 . S
N310 C309 1.344 . S
O311 Co303 2.055 . S
O311 C315 1.253 . S
H312 C308 0.931 . S
H313 C309 0.930 . S
O314 Co303 2.039 . S
O314 C304 1.265 . S
C315 O311 1.253 . S
C315 O316 1.227 . S
O316 C315 1.227 . S
N317 Co303 2.140 . S
N317 C320 1.346 . S
N317 C321 1.345 . S
C318 C319 1.387 . S
C318 C322 1.391 . S
C319 C318 1.387 . S
C319 C320 1.369 . S
C319 H328 0.929 . S
C320 N317 1.346 . S
C320 C319 1.369 . S
C320 H323 0.928 . S
C321 N317 1.345 . S
C321 C322 1.371 . S
C321 H324 0.931 . S
C322 C318 1.391 . S
C322 C321 1.371 . S
C322 H329 0.930 . S
H323 C320 0.928 . S
H324 C321 0.931 . S
H325 C301 0.930 . S
H326 C298 0.930 . S
H327 C307 0.930 . S
H328 C319 0.929 . S
H329 C322 0.930 . S
C330 C331 1.351 . S
C330 N333 1.368 . S
C330 H335 0.931 . S
C331 C330 1.351 . S
C331 N332 1.373 . S
C331 H359 0.930 . S
N332 C331 1.373 . S
N332 C334 1.340 . S
N333 C330 1.368 . S
N333 C334 1.321 . S
N333 Co336 2.135 . S
C334 N332 1.340 . S
C334 N333 1.321 . S
C334 H358 0.930 . S
H335 C330 0.931 . S
Co336 N333 2.135 . S
Co336 N339 2.121 . S
Co336 O344 2.055 . S
Co336 O347 2.039 . S
Co336 N350 2.140 . S
C337 O338 1.227 . S
C337 O347 1.265 . S
O338 C337 1.227 . S
N339 Co336 2.121 . S
N339 C341 1.375 . S
N339 C342 1.313 . S
C340 C341 1.338 . S
C340 N343 1.377 . S
C340 H360 0.930 . S
C341 N339 1.375 . S
C341 C340 1.338 . S
C341 H345 0.931 . S
C342 N339 1.313 . S
C342 N343 1.344 . S
C342 H346 0.930 . S
N343 C340 1.377 . S
N343 C342 1.344 . S
O344 Co336 2.055 . S
O344 C348 1.253 . S
H345 C341 0.931 . S
H346 C342 0.930 . S
O347 Co336 2.039 . S
O347 C337 1.265 . S
C348 O344 1.253 . S
C348 O349 1.227 . S
O349 C348 1.227 . S
N350 Co336 2.140 . S
N350 C353 1.346 . S
N350 C354 1.345 . S
C351 C352 1.387 . S
C351 C355 1.391 . S
C352 C351 1.387 . S
C352 C353 1.369 . S
C352 H361 0.929 . S
C353 N350 1.346 . S
C353 C352 1.369 . S
C353 H356 0.928 . S
C354 N350 1.345 . S
C354 C355 1.371 . S
C354 H357 0.931 . S
C355 C351 1.391 . S
C355 C354 1.371 . S
C355 H362 0.930 . S
H356 C353 0.928 . S
H357 C354 0.931 . S
H358 C334 0.930 . S
H359 C331 0.930 . S
H360 C340 0.930 . S
H361 C352 0.929 . S
H362 C355 0.930 . S
C363 C364 1.351 . S
C363 N366 1.368 . S
C363 H368 0.931 . S
C364 C363 1.351 . S
C364 N365 1.373 . S
C364 H392 0.930 . S
N365 C364 1.373 . S
N365 C367 1.340 . S
N366 C363 1.368 . S
N366 C367 1.321 . S
N366 Co369 2.135 . S
C367 N365 1.340 . S
C367 N366 1.321 . S
C367 H391 0.930 . S
H368 C363 0.931 . S
Co369 N366 2.135 . S
Co369 N372 2.121 1_655 S
Co369 O377 2.055 . S
Co369 O380 2.039 . S
Co369 N383 2.140 . S
C370 O371 1.227 . S
C370 O380 1.265 . S
O371 C370 1.227 . S
N372 Co369 2.121 1_455 S
N372 C374 1.375 . S
N372 C375 1.313 . S
C373 C374 1.338 . S
C373 N376 1.377 . S
C373 H393 0.930 . S
C374 N372 1.375 . S
C374 C373 1.338 . S
C374 H378 0.931 . S
C375 N372 1.313 . S
C375 N376 1.344 . S
C375 H379 0.930 . S
N376 C373 1.377 . S
N376 C375 1.344 . S
O377 Co369 2.055 . S
O377 C381 1.253 . S
H378 C374 0.931 . S
H379 C375 0.930 . S
O380 Co369 2.039 . S
O380 C370 1.265 . S
C381 O377 1.253 . S
C381 O382 1.227 . S
O382 C381 1.227 . S
N383 Co369 2.140 . S
N383 C386 1.346 . S
N383 C387 1.345 1_655 S
C384 C385 1.387 1_455 S
C384 C388 1.391 . S
C385 C384 1.387 1_655 S
C385 C386 1.369 . S
C385 H394 0.929 . S
C386 N383 1.346 . S
C386 C385 1.369 . S
C386 H389 0.928 . S
C387 N383 1.345 1_455 S
C387 C388 1.371 . S
C387 H390 0.931 . S
C388 C384 1.391 . S
C388 C387 1.371 . S
C388 H395 0.930 . S
H389 C386 0.928 . S
H390 C387 0.931 . S
H391 C367 0.930 . S
H392 C364 0.930 . S
H393 C373 0.930 . S
H394 C385 0.929 . S
H395 C388 0.930 . S
C396 C397 1.351 . S
C396 N399 1.368 . S
C396 H401 0.931 . S
C397 C396 1.351 . S
C397 N398 1.373 . S
C397 H425 0.930 . S
N398 C397 1.373 . S
N398 C400 1.340 . S
N399 C396 1.368 . S
N399 C400 1.321 . S
N399 Co402 2.135 . S
C400 N398 1.340 . S
C400 N399 1.321 . S
C400 H424 0.930 . S
H401 C396 0.931 . S
Co402 N399 2.135 . S
Co402 N405 2.121 1_545 S
Co402 O410 2.055 . S
Co402 O413 2.039 . S
Co402 N416 2.140 . S
C403 O404 1.227 . S
C403 O413 1.265 . S
O404 C403 1.227 . S
N405 Co402 2.121 1_565 S
N405 C407 1.375 . S
N405 C408 1.313 . S
C406 C407 1.338 . S
C406 N409 1.377 . S
C406 H426 0.930 . S
C407 N405 1.375 . S
C407 C406 1.338 . S
C407 H411 0.931 . S
C408 N405 1.313 . S
C408 N409 1.344 . S
C408 H412 0.930 . S
N409 C406 1.377 . S
N409 C408 1.344 . S
O410 Co402 2.055 . S
O410 C414 1.253 . S
H411 C407 0.931 . S
H412 C408 0.930 . S
O413 Co402 2.039 . S
O413 C403 1.265 . S
C414 O410 1.253 . S
C414 O415 1.227 . S
O415 C414 1.227 . S
N416 Co402 2.140 . S
N416 C419 1.346 . S
N416 C420 1.345 1_545 S
C417 C418 1.387 1_565 S
C417 C421 1.391 . S
C418 C417 1.387 1_545 S
C418 C419 1.369 . S
C418 H427 0.929 . S
C419 N416 1.346 . S
C419 C418 1.369 . S
C419 H422 0.928 . S
C420 N416 1.345 1_565 S
C420 C421 1.371 . S
C420 H423 0.931 . S
C421 C417 1.391 . S
C421 C420 1.371 . S
C421 H428 0.930 . S
H422 C419 0.928 . S
H423 C420 0.931 . S
H424 C400 0.930 . S
H425 C397 0.930 . S
H426 C406 0.930 . S
H427 C418 0.929 . S
H428 C421 0.930 . S
C429 C430 1.351 . S
C429 N432 1.368 . S
C429 H434 0.931 . S
C430 C429 1.351 . S
C430 N431 1.373 . S
C430 H458 0.930 . S
N431 C430 1.373 . S
N431 C433 1.340 . S
N432 C429 1.368 . S
N432 C433 1.321 . S
N432 Co435 2.135 . S
C433 N431 1.340 . S
C433 N432 1.321 . S
C433 H457 0.930 . S
H434 C429 0.931 . S
Co435 N432 2.135 . S
Co435 N438 2.121 . S
Co435 O443 2.055 . S
Co435 O446 2.039 . S
Co435 N449 2.140 . S
C436 O437 1.227 . S
C436 O446 1.265 . S
O437 C436 1.227 . S
N438 Co435 2.121 . S
N438 C440 1.375 . S
N438 C441 1.313 . S
C439 C440 1.338 . S
C439 N442 1.377 . S
C439 H459 0.930 . S
C440 N438 1.375 . S
C440 C439 1.338 . S
C440 H444 0.931 . S
C441 N438 1.313 . S
C441 N442 1.344 . S
C441 H445 0.930 . S
N442 C439 1.377 . S
N442 C441 1.344 . S
O443 Co435 2.055 . S
O443 C447 1.253 . S
H444 C440 0.931 . S
H445 C441 0.930 . S
O446 Co435 2.039 . S
O446 C436 1.265 . S
C447 O443 1.253 . S
C447 O448 1.227 . S
O448 C447 1.227 . S
N449 Co435 2.140 . S
N449 C452 1.346 . S
N449 C453 1.345 . S
C450 C451 1.387 . S
C450 C454 1.391 . S
C451 C450 1.387 . S
C451 C452 1.369 . S
C451 H460 0.929 . S
C452 N449 1.346 . S
C452 C451 1.369 . S
C452 H455 0.928 . S
C453 N449 1.345 . S
C453 C454 1.371 . S
C453 H456 0.931 . S
C454 C450 1.391 . S
C454 C453 1.371 . S
C454 H461 0.930 . S
H455 C452 0.928 . S
H456 C453 0.931 . S
H457 C433 0.930 . S
H458 C430 0.930 . S
H459 C439 0.930 . S
H460 C451 0.929 . S
H461 C454 0.930 . S
C462 C463 1.351 . S
C462 N465 1.368 . S
C462 H467 0.931 . S
C463 C462 1.351 . S
C463 N464 1.373 . S
C463 H491 0.930 . S
N464 C463 1.373 . S
N464 C466 1.340 . S
N465 C462 1.368 . S
N465 C466 1.321 . S
N465 Co468 2.135 . S
C466 N464 1.340 . S
C466 N465 1.321 . S
C466 H490 0.930 . S
H467 C462 0.931 . S
Co468 N465 2.135 . S
Co468 N471 2.121 . S
Co468 O476 2.055 . S
Co468 O479 2.039 . S
Co468 N482 2.140 . S
C469 O470 1.227 . S
C469 O479 1.265 . S
O470 C469 1.227 . S
N471 Co468 2.121 . S
N471 C473 1.375 . S
N471 C474 1.313 . S
C472 C473 1.338 . S
C472 N475 1.377 . S
C472 H492 0.930 . S
C473 N471 1.375 . S
C473 C472 1.338 . S
C473 H477 0.931 . S
C474 N471 1.313 . S
C474 N475 1.344 . S
C474 H478 0.930 . S
N475 C472 1.377 . S
N475 C474 1.344 . S
O476 Co468 2.055 . S
O476 C480 1.253 . S
H477 C473 0.931 . S
H478 C474 0.930 . S
O479 Co468 2.039 . S
O479 C469 1.265 . S
C480 O476 1.253 . S
C480 O481 1.227 . S
O481 C480 1.227 . S
N482 Co468 2.140 . S
N482 C485 1.346 . S
N482 C486 1.345 . S
C483 C484 1.387 . S
C483 C487 1.391 . S
C484 C483 1.387 . S
C484 C485 1.369 . S
C484 H493 0.929 . S
C485 N482 1.346 . S
C485 C484 1.369 . S
C485 H488 0.928 . S
C486 N482 1.345 . S
C486 C487 1.371 . S
C486 H489 0.931 . S
C487 C483 1.391 . S
C487 C486 1.371 . S
C487 H494 0.930 . S
H488 C485 0.928 . S
H489 C486 0.931 . S
H490 C466 0.930 . S
H491 C463 0.930 . S
H492 C472 0.930 . S
H493 C484 0.929 . S
H494 C487 0.930 . S
C495 C496 1.351 . S
C495 N498 1.368 . S
C495 H500 0.931 . S
C496 C495 1.351 . S
C496 N497 1.373 . S
C496 H524 0.930 . S
N497 C496 1.373 . S
N497 C499 1.340 . S
N498 C495 1.368 . S
N498 C499 1.321 . S
N498 Co501 2.135 . S
C499 N497 1.340 . S
C499 N498 1.321 . S
C499 H523 0.930 . S
H500 C495 0.931 . S
Co501 N498 2.135 . S
Co501 N504 2.121 1_455 S
Co501 O509 2.055 . S
Co501 O512 2.039 . S
Co501 N515 2.140 . S
C502 O503 1.227 . S
C502 O512 1.265 . S
O503 C502 1.227 . S
N504 Co501 2.121 1_655 S
N504 C506 1.375 . S
N504 C507 1.313 . S
C505 C506 1.338 . S
C505 N508 1.377 . S
C505 H525 0.930 . S
C506 N504 1.375 . S
C506 C505 1.338 . S
C506 H510 0.931 . S
C507 N504 1.313 . S
C507 N508 1.344 . S
C507 H511 0.930 . S
N508 C505 1.377 . S
N508 C507 1.344 . S
O509 Co501 2.055 . S
O509 C513 1.253 . S
H510 C506 0.931 . S
H511 C507 0.930 . S
O512 Co501 2.039 . S
O512 C502 1.265 . S
C513 O509 1.253 . S
C513 O514 1.227 . S
O514 C513 1.227 . S
N515 Co501 2.140 . S
N515 C518 1.346 . S
N515 C519 1.345 1_455 S
C516 C517 1.387 1_655 S
C516 C520 1.391 . S
C517 C516 1.387 1_455 S
C517 C518 1.369 . S
C517 H526 0.929 . S
C518 N515 1.346 . S
C518 C517 1.369 . S
C518 H521 0.928 . S
C519 N515 1.345 1_655 S
C519 C520 1.371 . S
C519 H522 0.931 . S
C520 C516 1.391 . S
C520 C519 1.371 . S
C520 H527 0.930 . S
H521 C518 0.928 . S
H522 C519 0.931 . S
H523 C499 0.930 . S
H524 C496 0.930 . S
H525 C505 0.930 . S
H526 C517 0.929 . S
H527 C520 0.930 . S
H528 C536 0.950 . S
H529 C541 0.950 . S
H530 C538 0.950 . S
H531 C540 0.950 . S
H532 C542 0.950 . S
H533 C544 0.950 . S
H534 C546 0.950 . S
H535 C547 0.950 . S
C536 H528 0.950 . S
C536 C537 1.386 . S
C536 C538 1.391 . S
C537 C536 1.386 . S
C537 C541 1.393 . S
C538 H530 0.950 . S
C538 C536 1.391 . S
C538 C539 1.400 . S
C539 C538 1.400 . S
C539 C540 1.398 . S
C539 C545 1.491 . S
C540 H531 0.950 . S
C540 C539 1.398 . S
C540 C541 1.391 . S
C541 H529 0.950 . S
C541 C537 1.393 . S
C541 C540 1.391 . S
C542 H532 0.950 . S
C542 C543 1.386 . S
C542 C544 1.391 . S
C543 C542 1.386 . S
C543 C547 1.393 . S
C544 H533 0.950 . S
C544 C542 1.391 . S
C544 C545 1.400 . S
C545 C539 1.491 . S
C545 C544 1.400 . S
C545 C546 1.398 . S
C546 H534 0.950 . S
C546 C545 1.398 . S
C546 C547 1.391 . S
C547 H535 0.950 . S
C547 C543 1.393 . S
C547 C546 1.391 . S
H548 C556 0.950 . S
H549 C561 0.950 . S
H550 C558 0.950 . S
H551 C560 0.950 . S
H552 C562 0.950 . S
H553 C564 0.950 . S
H554 C566 0.950 . S
H555 C567 0.950 . S
C556 H548 0.950 . S
C556 C557 1.386 . S
C556 C558 1.391 . S
C557 C556 1.386 . S
C557 C561 1.393 . S
C558 H550 0.950 . S
C558 C556 1.391 . S
C558 C559 1.400 . S
C559 C558 1.400 . S
C559 C560 1.398 . S
C559 C565 1.491 . S
C560 H551 0.950 . S
C560 C559 1.398 . S
C560 C561 1.391 . S
C561 H549 0.950 . S
C561 C557 1.393 . S
C561 C560 1.391 . S
C562 H552 0.950 . S
C562 C563 1.386 . S
C562 C564 1.391 . S
C563 C562 1.386 . S
C563 C567 1.393 . S
C564 H553 0.950 . S
C564 C562 1.391 . S
C564 C565 1.400 . S
C565 C559 1.491 . S
C565 C564 1.400 . S
C565 C566 1.398 . S
C566 H554 0.950 . S
C566 C565 1.398 . S
C566 C567 1.391 . S
C567 H555 0.950 . S
C567 C563 1.393 . S
C567 C566 1.391 . S
H568 C576 0.950 . S
H569 C581 0.939 1_455 S
H570 C578 0.950 . S
H571 C580 0.950 . S
H572 C582 0.950 . S
H573 C584 0.950 . S
H574 C586 0.950 . S
H575 C587 0.950 . S
C576 H568 0.950 . S
C576 C577 1.386 . S
C576 C578 1.391 . S
C577 C576 1.386 . S
C577 C581 1.398 . S
C578 H570 0.950 . S
C578 C576 1.391 . S
C578 C579 1.400 . S
C579 C578 1.400 . S
C579 C580 1.398 . S
C579 C585 1.491 . S
C580 H571 0.950 . S
C580 C579 1.398 . S
C580 C581 1.397 . S
C581 H569 0.939 1_655 S
C581 C577 1.398 . S
C581 C580 1.397 . S
C582 H572 0.950 . S
C582 C583 1.386 . S
C582 C584 1.391 . S
C583 C582 1.386 . S
C583 C587 1.393 . S
C584 H573 0.950 . S
C584 C582 1.391 . S
C584 C585 1.400 . S
C585 C579 1.491 . S
C585 C584 1.400 . S
C585 C586 1.398 . S
C586 H574 0.950 . S
C586 C585 1.398 . S
C586 C587 1.391 . S
C587 H575 0.950 . S
C587 C583 1.393 . S
C587 C586 1.391 . S
H588 C596 0.950 . S
H589 C601 0.950 . S
H590 C598 0.950 . S
H591 C600 0.950 . S
H592 C602 0.950 1_545 S
H593 C604 0.950 . S
H594 C606 0.950 . S
H595 C607 0.950 . S
C596 H588 0.950 . S
C596 C597 1.386 . S
C596 C598 1.391 . S
C597 C596 1.386 . S
C597 C601 1.393 . S
C598 H590 0.950 . S
C598 C596 1.391 . S
C598 C599 1.400 . S
C599 C598 1.400 . S
C599 C600 1.398 . S
C599 C605 1.491 . S
C600 H591 0.950 . S
C600 C599 1.398 . S
C600 C601 1.391 . S
C601 H589 0.950 . S
C601 C597 1.393 . S
C601 C600 1.391 . S
C602 H592 0.950 1_565 S
C602 C603 1.386 . S
C602 C604 1.391 . S
C603 C602 1.386 . S
C603 C607 1.393 . S
C604 H593 0.950 . S
C604 C602 1.391 . S
C604 C605 1.400 . S
C605 C599 1.491 . S
C605 C604 1.400 . S
C605 C606 1.398 . S
C606 H594 0.950 . S
C606 C605 1.398 . S
C606 C607 1.391 . S
C607 H595 0.950 . S
C607 C603 1.393 . S
C607 C606 1.391 . S
H608 C616 0.950 . S
H609 C621 0.950 . S
H610 C618 0.950 . S
H611 C620 0.950 . S
H612 C622 0.950 . S
H613 C624 0.950 . S
H614 C626 0.950 . S
H615 C627 0.950 . S
C616 H608 0.950 . S
C616 C617 1.386 . S
C616 C618 1.391 . S
C617 C616 1.386 . S
C617 C621 1.393 . S
C618 H610 0.950 . S
C618 C616 1.391 . S
C618 C619 1.400 . S
C619 C618 1.400 . S
C619 C620 1.398 . S
C619 C625 1.491 . S
C620 H611 0.950 . S
C620 C619 1.398 . S
C620 C621 1.391 . S
C621 H609 0.950 . S
C621 C617 1.393 . S
C621 C620 1.391 . S
C622 H612 0.950 . S
C622 C623 1.386 . S
C622 C624 1.391 . S
C623 C622 1.386 . S
C623 C627 1.393 . S
C624 H613 0.950 . S
C624 C622 1.391 . S
C624 C625 1.400 . S
C625 C619 1.491 . S
C625 C624 1.400 . S
C625 C626 1.398 . S
C626 H614 0.950 . S
C626 C625 1.398 . S
C626 C627 1.391 . S
C627 H615 0.950 . S
C627 C623 1.393 . S
C627 C626 1.391 . S
H628 C636 0.950 . S
H629 C641 0.950 1_565 S
H630 C638 0.950 . S
H631 C640 0.950 . S
H632 C642 0.950 . S
H633 C644 0.950 . S
H634 C646 0.950 . S
H635 C647 0.950 . S
C636 H628 0.950 . S
C636 C637 1.386 . S
C636 C638 1.391 . S
C637 C636 1.386 . S
C637 C641 1.393 . S
C638 H630 0.950 . S
C638 C636 1.391 . S
C638 C639 1.400 . S
C639 C638 1.400 . S
C639 C640 1.398 . S
C639 C645 1.491 . S
C640 H631 0.950 . S
C640 C639 1.398 . S
C640 C641 1.391 . S
C641 H629 0.950 1_545 S
C641 C637 1.393 . S
C641 C640 1.391 . S
C642 H632 0.950 . S
C642 C643 1.386 . S
C642 C644 1.391 . S
C643 C642 1.386 . S
C643 C647 1.393 . S
C644 H633 0.950 . S
C644 C642 1.391 . S
C644 C645 1.400 . S
C645 C639 1.491 . S
C645 C644 1.400 . S
C645 C646 1.398 . S
C646 H634 0.950 . S
C646 C645 1.398 . S
C646 C647 1.391 . S
C647 H635 0.950 . S
C647 C643 1.393 . S
C647 C646 1.391 . S
H648 C656 0.950 . S
H649 C661 0.950 . S
H650 C658 0.950 . S
H651 C660 0.950 . S
H652 C662 0.950 . S
H653 C664 0.950 . S
H654 C666 0.950 . S
H655 C667 0.950 . S
C656 H648 0.950 . S
C656 C657 1.386 . S
C656 C658 1.391 . S
C657 C656 1.386 . S
C657 C661 1.393 . S
C658 H650 0.950 . S
C658 C656 1.391 . S
C658 C659 1.400 . S
C659 C658 1.400 . S
C659 C660 1.398 . S
C659 C665 1.491 . S
C660 H651 0.950 . S
C660 C659 1.398 . S
C660 C661 1.391 . S
C661 H649 0.950 . S
C661 C657 1.393 . S
C661 C660 1.391 . S
C662 H652 0.950 . S
C662 C663 1.386 . S
C662 C664 1.391 . S
C663 C662 1.386 . S
C663 C667 1.393 . S
C664 H653 0.950 . S
C664 C662 1.391 . S
C664 C665 1.400 . S
C665 C659 1.491 . S
C665 C664 1.400 . S
C665 C666 1.398 . S
C666 H654 0.950 . S
C666 C665 1.398 . S
C666 C667 1.391 . S
C667 H655 0.950 . S
C667 C663 1.393 . S
C667 C666 1.391 . S
H668 C676 0.950 . S
H669 C681 0.950 . S
H670 C678 0.950 . S
H671 C680 0.950 . S
H672 C682 0.950 . S
H673 C684 0.950 . S
H674 C686 0.950 . S
H675 C687 0.950 . S
C676 H668 0.950 . S
C676 C677 1.386 . S
C676 C678 1.391 . S
C677 C676 1.386 . S
C677 C681 1.393 . S
C678 H670 0.950 . S
C678 C676 1.391 . S
C678 C679 1.400 . S
C679 C678 1.400 . S
C679 C680 1.398 . S
C679 C685 1.491 . S
C680 H671 0.950 . S
C680 C679 1.398 . S
C680 C681 1.391 . S
C681 H669 0.950 . S
C681 C677 1.393 . S
C681 C680 1.391 . S
C682 H672 0.950 . S
C682 C683 1.386 . S
C682 C684 1.391 . S
C683 C682 1.386 . S
C683 C687 1.393 . S
C684 H673 0.950 . S
C684 C682 1.391 . S
C684 C685 1.400 . S
C685 C679 1.491 . S
C685 C684 1.400 . S
C685 C686 1.398 . S
C686 H674 0.950 . S
C686 C685 1.398 . S
C686 C687 1.391 . S
C687 H675 0.950 . S
C687 C683 1.393 . S
C687 C686 1.391 . S
H688 C696 0.950 . S
H689 C701 0.950 . S
H690 C698 0.950 . S
H691 C700 0.950 . S
H692 C702 0.950 . S
H693 C704 0.950 . S
H694 C706 0.950 . S
H695 C707 0.950 . S
C696 H688 0.950 . S
C696 C697 1.386 . S
C696 C698 1.391 . S
C697 C696 1.386 . S
C697 C701 1.393 . S
C698 H690 0.950 . S
C698 C696 1.391 . S
C698 C699 1.400 . S
C699 C698 1.400 . S
C699 C700 1.398 . S
C699 C705 1.491 . S
C700 H691 0.950 . S
C700 C699 1.398 . S
C700 C701 1.391 . S
C701 H689 0.950 . S
C701 C697 1.393 . S
C701 C700 1.391 . S
C702 H692 0.950 . S
C702 C703 1.386 . S
C702 C704 1.391 . S
C703 C702 1.386 . S
C703 C707 1.393 . S
C704 H693 0.950 . S
C704 C702 1.391 . S
C704 C705 1.400 . S
C705 C699 1.491 . S
C705 C704 1.400 . S
C705 C706 1.398 . S
C706 H694 0.950 . S
C706 C705 1.398 . S
C706 C707 1.391 . S
C707 H695 0.950 . S
C707 C703 1.393 . S
C707 C706 1.391 . S
H708 C716 0.950 . S
H709 C721 0.950 . S
H710 C718 0.950 . S
H711 C720 0.950 . S
H712 C722 0.950 . S
H713 C724 0.950 . S
H714 C726 0.950 . S
H715 C727 0.950 . S
C716 H708 0.950 . S
C716 C717 1.386 . S
C716 C718 1.391 . S
C717 C716 1.386 . S
C717 C721 1.393 . S
C718 H710 0.950 . S
C718 C716 1.391 . S
C718 C719 1.400 . S
C719 C718 1.400 . S
C719 C720 1.398 . S
C719 C725 1.491 . S
C720 H711 0.950 . S
C720 C719 1.398 . S
C720 C721 1.391 . S
C721 H709 0.950 . S
C721 C717 1.393 . S
C721 C720 1.391 . S
C722 H712 0.950 . S
C722 C723 1.386 . S
C722 C724 1.391 . S
C723 C722 1.386 . S
C723 C727 1.393 . S
C724 H713 0.950 . S
C724 C722 1.391 . S
C724 C725 1.400 . S
C725 C719 1.491 . S
C725 C724 1.400 . S
C725 C726 1.398 . S
C726 H714 0.950 . S
C726 C725 1.398 . S
C726 C727 1.391 . S
C727 H715 0.950 . S
C727 C723 1.393 . S
C727 C726 1.391 . S
H728 C736 0.950 . S
H729 C741 0.950 . S
H730 C738 0.950 . S
H731 C740 0.950 1_655 S
H732 C742 0.950 . S
H733 C744 0.950 . S
H734 C746 0.950 . S
H735 C747 0.950 . S
C736 H728 0.950 . S
C736 C737 1.386 . S
C736 C738 1.391 . S
C737 C736 1.386 . S
C737 C741 1.393 1_455 S
C738 H730 0.950 . S
C738 C736 1.391 . S
C738 C739 1.400 . S
C739 C738 1.400 . S
C739 C740 1.398 . S
C739 C745 1.491 . S
C740 H731 0.950 1_455 S
C740 C739 1.398 . S
C740 C741 1.391 1_455 S
C741 H729 0.950 . S
C741 C737 1.393 1_655 S
C741 C740 1.391 1_655 S
C742 H732 0.950 . S
C742 C743 1.386 . S
C742 C744 1.391 . S
C743 C742 1.386 . S
C743 C747 1.393 . S
C744 H733 0.950 . S
C744 C742 1.391 . S
C744 C745 1.400 . S
C745 C739 1.491 . S
C745 C744 1.400 . S
C745 C746 1.398 . S
C746 H734 0.950 . S
C746 C745 1.398 . S
C746 C747 1.391 . S
C747 H735 0.950 . S
C747 C743 1.393 . S
C747 C746 1.391 . S
H748 C756 0.950 . S
H749 C761 0.950 . S
H750 C758 0.950 . S
H751 C760 0.950 . S
H752 C762 0.950 . S
H753 C764 0.950 . S
H754 C766 0.950 . S
H755 C767 0.950 . S
C756 H748 0.950 . S
C756 C757 1.386 . S
C756 C758 1.391 . S
C757 C756 1.386 . S
C757 C761 1.393 . S
C758 H750 0.950 . S
C758 C756 1.391 . S
C758 C759 1.400 . S
C759 C758 1.400 . S
C759 C760 1.398 . S
C759 C765 1.491 . S
C760 H751 0.950 . S
C760 C759 1.398 . S
C760 C761 1.391 . S
C761 H749 0.950 . S
C761 C757 1.393 . S
C761 C760 1.391 . S
C762 H752 0.950 . S
C762 C763 1.386 . S
C762 C764 1.391 . S
C763 C762 1.386 . S
C763 C767 1.393 . S
C764 H753 0.950 . S
C764 C762 1.391 . S
C764 C765 1.400 . S
C765 C759 1.491 . S
C765 C764 1.400 . S
C765 C766 1.398 . S
C766 H754 0.950 . S
C766 C765 1.398 . S
C766 C767 1.391 . S
C767 H755 0.950 . S
C767 C763 1.393 . S
C767 C766 1.391 . S
H768 C776 0.950 . S
H769 C781 0.950 . S
H770 C778 0.950 . S
H771 C780 0.950 . S
H772 C782 0.950 . S
H773 C784 0.950 . S
H774 C786 0.950 . S
H775 C787 0.950 . S
C776 H768 0.950 . S
C776 C777 1.386 . S
C776 C778 1.391 . S
C777 C776 1.386 . S
C777 C781 1.393 . S
C778 H770 0.950 . S
C778 C776 1.391 . S
C778 C779 1.400 . S
C779 C778 1.400 . S
C779 C780 1.398 . S
C779 C785 1.491 . S
C780 H771 0.950 . S
C780 C779 1.398 . S
C780 C781 1.391 . S
C781 H769 0.950 . S
C781 C777 1.393 . S
C781 C780 1.391 . S
C782 H772 0.950 . S
C782 C783 1.386 . S
C782 C784 1.391 . S
C783 C782 1.386 . S
C783 C787 1.393 . S
C784 H773 0.950 . S
C784 C782 1.391 . S
C784 C785 1.400 . S
C785 C779 1.491 . S
C785 C784 1.400 . S
C785 C786 1.398 . S
C786 H774 0.950 . S
C786 C785 1.398 . S
C786 C787 1.391 . S
C787 H775 0.950 . S
C787 C783 1.393 . S
C787 C786 1.391 . S
H788 C796 0.950 . S
H789 C801 0.950 . S
H790 C798 0.950 . S
H791 C800 0.950 . S
H792 C802 0.950 . S
H793 C804 0.950 . S
H794 C806 0.950 . S
H795 C807 0.950 . S
C796 H788 0.950 . S
C796 C797 1.386 . S
C796 C798 1.391 . S
C797 C796 1.386 . S
C797 C801 1.393 . S
C798 H790 0.950 . S
C798 C796 1.391 . S
C798 C799 1.400 . S
C799 C798 1.400 . S
C799 C800 1.398 . S
C799 C805 1.491 . S
C800 H791 0.950 . S
C800 C799 1.398 . S
C800 C801 1.391 . S
C801 H789 0.950 . S
C801 C797 1.393 . S
C801 C800 1.391 . S
C802 H792 0.950 . S
C802 C803 1.386 . S
C802 C804 1.391 . S
C803 C802 1.386 . S
C803 C807 1.393 . S
C804 H793 0.950 . S
C804 C802 1.391 . S
C804 C805 1.400 . S
C805 C799 1.491 . S
C805 C804 1.400 . S
C805 C806 1.398 . S
C806 H794 0.950 . S
C806 C805 1.398 . S
C806 C807 1.391 . S
C807 H795 0.950 . S
C807 C803 1.393 . S
C807 C806 1.391 . S
H808 C816 0.950 . S
H809 C821 0.950 . S
H810 C818 0.950 . S
H811 C820 0.950 . S
H812 C822 0.950 . S
H813 C824 0.950 . S
H814 C826 0.950 . S
H815 C827 0.950 . S
C816 H808 0.950 . S
C816 C817 1.386 . S
C816 C818 1.391 . S
C817 C816 1.386 . S
C817 C821 1.393 . S
C818 H810 0.950 . S
C818 C816 1.391 . S
C818 C819 1.400 . S
C819 C818 1.400 . S
C819 C820 1.398 . S
C819 C825 1.491 . S
C820 H811 0.950 . S
C820 C819 1.398 . S
C820 C821 1.391 . S
C821 H809 0.950 . S
C821 C817 1.393 . S
C821 C820 1.391 . S
C822 H812 0.950 . S
C822 C823 1.386 . S
C822 C824 1.391 . S
C823 C822 1.386 . S
C823 C827 1.393 . S
C824 H813 0.950 . S
C824 C822 1.391 . S
C824 C825 1.400 . S
C825 C819 1.491 . S
C825 C824 1.400 . S
C825 C826 1.398 . S
C826 H814 0.950 . S
C826 C825 1.398 . S
C826 C827 1.391 . S
C827 H815 0.950 . S
C827 C823 1.393 . S
C827 C826 1.391 . S
H828 C836 0.950 . S
H829 C841 0.950 . S
H830 C838 0.950 . S
H831 C840 0.950 . S
H832 C842 0.950 . S
H833 C844 0.950 . S
H834 C846 0.950 . S
H835 C847 0.950 . S
C836 H828 0.950 . S
C836 C837 1.386 . S
C836 C838 1.391 . S
C837 C836 1.386 . S
C837 C841 1.393 . S
C838 H830 0.950 . S
C838 C836 1.391 . S
C838 C839 1.400 . S
C839 C838 1.400 . S
C839 C840 1.398 . S
C839 C845 1.491 . S
C840 H831 0.950 . S
C840 C839 1.398 . S
C840 C841 1.391 . S
C841 H829 0.950 . S
C841 C837 1.393 . S
C841 C840 1.391 . S
C842 H832 0.950 . S
C842 C843 1.386 . S
C842 C844 1.391 . S
C843 C842 1.386 . S
C843 C847 1.393 . S
C844 H833 0.950 . S
C844 C842 1.391 . S
C844 C845 1.400 . S
C845 C839 1.491 . S
C845 C844 1.400 . S
C845 C846 1.398 . S
C846 H834 0.950 . S
C846 C845 1.398 . S
C846 C847 1.391 . S
C847 H835 0.950 . S
C847 C843 1.393 . S
C847 C846 1.391 . S
H848 C856 0.950 . S
H849 C861 0.950 . S
H850 C858 0.950 . S
H851 C860 0.950 . S
H852 C862 0.950 . S
H853 C864 0.950 . S
H854 C866 0.950 . S
H855 C867 0.950 . S
C856 H848 0.950 . S
C856 C857 1.386 . S
C856 C858 1.391 . S
C857 C856 1.386 . S
C857 C861 1.393 . S
C858 H850 0.950 . S
C858 C856 1.391 . S
C858 C859 1.400 . S
C859 C858 1.400 . S
C859 C860 1.398 . S
C859 C865 1.491 . S
C860 H851 0.950 . S
C860 C859 1.398 . S
C860 C861 1.391 . S
C861 H849 0.950 . S
C861 C857 1.393 . S
C861 C860 1.391 . S
C862 H852 0.950 . S
C862 C863 1.386 . S
C862 C864 1.391 . S
C863 C862 1.386 . S
C863 C867 1.393 . S
C864 H853 0.950 . S
C864 C862 1.391 . S
C864 C865 1.400 . S
C865 C859 1.491 . S
C865 C864 1.400 . S
C865 C866 1.398 . S
C866 H854 0.950 . S
C866 C865 1.398 . S
C866 C867 1.391 . S
C867 H855 0.950 . S
C867 C863 1.393 . S
C867 C866 1.391 . S
H868 C876 0.950 . S
H869 C881 0.950 . S
H870 C878 0.950 . S
H871 C880 0.950 . S
H872 C882 0.950 . S
H873 C884 0.950 . S
H874 C886 0.950 . S
H875 C887 0.950 . S
C876 H868 0.950 . S
C876 C877 1.386 . S
C876 C878 1.391 . S
C877 C876 1.386 . S
C877 C881 1.393 . S
C878 H870 0.950 . S
C878 C876 1.391 . S
C878 C879 1.400 . S
C879 C878 1.400 . S
C879 C880 1.398 . S
C879 C885 1.491 . S
C880 H871 0.950 . S
C880 C879 1.398 . S
C880 C881 1.391 . S
C881 H869 0.950 . S
C881 C877 1.393 . S
C881 C880 1.391 . S
C882 H872 0.950 . S
C882 C883 1.386 . S
C882 C884 1.391 . S
C883 C882 1.386 . S
C883 C887 1.393 . S
C884 H873 0.950 . S
C884 C882 1.391 . S
C884 C885 1.400 . S
C885 C879 1.491 . S
C885 C884 1.400 . S
C885 C886 1.398 . S
C886 H874 0.950 . S
C886 C885 1.398 . S
C886 C887 1.391 . S
C887 H875 0.950 . S
C887 C883 1.393 . S
C887 C886 1.391 . S
H888 C896 0.950 . S
H889 C901 0.950 . S
H890 C898 0.950 . S
H891 C900 0.950 . S
H892 C902 0.950 . S
H893 C904 0.950 . S
H894 C906 0.950 . S
H895 C907 0.950 . S
C896 H888 0.950 . S
C896 C897 1.386 . S
C896 C898 1.391 . S
C897 C896 1.386 . S
C897 C901 1.393 . S
C898 H890 0.950 . S
C898 C896 1.391 . S
C898 C899 1.400 . S
C899 C898 1.400 . S
C899 C900 1.398 . S
C899 C905 1.491 . S
C900 H891 0.950 . S
C900 C899 1.398 . S
C900 C901 1.391 . S
C901 H889 0.950 . S
C901 C897 1.393 . S
C901 C900 1.391 . S
C902 H892 0.950 . S
C902 C903 1.386 . S
C902 C904 1.391 . S
C903 C902 1.386 . S
C903 C907 1.393 . S
C904 H893 0.950 . S
C904 C902 1.391 . S
C904 C905 1.400 . S
C905 C899 1.491 . S
C905 C904 1.400 . S
C905 C906 1.398 . S
C906 H894 0.950 . S
C906 C905 1.398 . S
C906 C907 1.391 . S
C907 H895 0.950 . S
C907 C903 1.393 . S
C907 C906 1.391 . S
H908 C916 0.950 . S
H909 C921 0.950 . S
H910 C918 0.950 . S
H911 C920 0.950 . S
H912 C922 0.950 . S
H913 C924 0.950 . S
H914 C926 0.950 . S
H915 C927 0.950 . S
C916 H908 0.950 . S
C916 C917 1.386 . S
C916 C918 1.391 . S
C917 C916 1.386 . S
C917 C921 1.393 . S
C918 H910 0.950 . S
C918 C916 1.391 . S
C918 C919 1.400 . S
C919 C918 1.400 . S
C919 C920 1.398 . S
C919 C925 1.491 . S
C920 H911 0.950 . S
C920 C919 1.398 . S
C920 C921 1.391 . S
C921 H909 0.950 . S
C921 C917 1.393 . S
C921 C920 1.391 . S
C922 H912 0.950 . S
C922 C923 1.386 . S
C922 C924 1.391 . S
C923 C922 1.386 . S
C923 C927 1.393 . S
C924 H913 0.950 . S
C924 C922 1.391 . S
C924 C925 1.400 . S
C925 C919 1.491 . S
C925 C924 1.400 . S
C925 C926 1.398 . S
C926 H914 0.950 . S
C926 C925 1.398 . S
C926 C927 1.391 . S
C927 H915 0.950 . S
C927 C923 1.393 . S
C927 C926 1.391 . S
H928 C936 0.950 . S
H929 C941 0.950 . S
H930 C938 0.950 . S
H931 C940 0.950 . S
H932 C942 0.950 . S
H933 C944 0.950 . S
H934 C946 0.950 . S
H935 C947 0.950 . S
C936 H928 0.950 . S
C936 C937 1.386 . S
C936 C938 1.391 . S
C937 C936 1.386 . S
C937 C941 1.393 . S
C938 H930 0.950 . S
C938 C936 1.391 . S
C938 C939 1.400 . S
C939 C938 1.400 . S
C939 C940 1.398 . S
C939 C945 1.491 . S
C940 H931 0.950 . S
C940 C939 1.398 . S
C940 C941 1.391 . S
C941 H929 0.950 . S
C941 C937 1.393 . S
C941 C940 1.391 . S
C942 H932 0.950 . S
C942 C943 1.386 . S
C942 C944 1.391 . S
C943 C942 1.386 . S
C943 C947 1.393 . S
C944 H933 0.950 . S
C944 C942 1.391 . S
C944 C945 1.400 . S
C945 C939 1.491 . S
C945 C944 1.400 . S
C945 C946 1.398 . S
C946 H934 0.950 . S
C946 C945 1.398 . S
C946 C947 1.391 . S
C947 H935 0.950 . S
C947 C943 1.393 . S
C947 C946 1.391 . S
H948 C956 0.950 . S
H949 C961 0.950 . S
H950 C958 0.950 . S
H951 C960 0.950 . S
H952 C962 0.950 . S
H953 C964 0.950 . S
H954 C966 0.950 . S
H955 C967 0.950 . S
C956 H948 0.950 . S
C956 C957 1.386 . S
C956 C958 1.391 . S
C957 C956 1.386 . S
C957 C961 1.393 . S
C958 H950 0.950 . S
C958 C956 1.391 . S
C958 C959 1.400 . S
C959 C958 1.400 . S
C959 C960 1.398 . S
C959 C965 1.491 . S
C960 H951 0.950 . S
C960 C959 1.398 . S
C960 C961 1.391 . S
C961 H949 0.950 . S
C961 C957 1.393 . S
C961 C960 1.391 . S
C962 H952 0.950 . S
C962 C963 1.386 . S
C962 C964 1.391 . S
C963 C962 1.386 . S
C963 C967 1.393 . S
C964 H953 0.950 . S
C964 C962 1.391 . S
C964 C965 1.400 . S
C965 C959 1.491 . S
C965 C964 1.400 . S
C965 C966 1.398 . S
C966 H954 0.950 . S
C966 C965 1.398 . S
C966 C967 1.391 . S
C967 H955 0.950 . S
C967 C963 1.393 . S
C967 C966 1.391 . S
H968 C976 0.950 . S
H969 C981 0.950 . S
H970 C978 0.950 . S
H971 C980 0.950 . S
H972 C982 0.950 . S
H973 C984 0.950 . S
H974 C986 0.950 . S
H975 C987 0.950 . S
C976 H968 0.950 . S
C976 C977 1.386 . S
C976 C978 1.391 . S
C977 C976 1.386 . S
C977 C981 1.393 . S
C978 H970 0.950 . S
C978 C976 1.391 . S
C978 C979 1.400 . S
C979 C978 1.400 . S
C979 C980 1.398 . S
C979 C985 1.491 . S
C980 H971 0.950 . S
C980 C979 1.398 . S
C980 C981 1.391 . S
C981 H969 0.950 . S
C981 C977 1.393 . S
C981 C980 1.391 . S
C982 H972 0.950 . S
C982 C983 1.386 . S
C982 C984 1.391 . S
C983 C982 1.386 . S
C983 C987 1.393 . S
C984 H973 0.950 . S
C984 C982 1.391 . S
C984 C985 1.400 . S
C985 C979 1.491 . S
C985 C984 1.400 . S
C985 C986 1.398 . S
C986 H974 0.950 . S
C986 C985 1.398 . S
C986 C987 1.391 . S
C987 H975 0.950 . S
C987 C983 1.393 . S
C987 C986 1.391 . S
H988 C996 0.950 . S
H989 C1001 0.950 . S
H990 C998 0.950 . S
H991 C1000 0.950 . S
H992 C1002 0.950 . S
H993 C1004 0.950 . S
H994 C1006 0.950 . S
H995 C1007 0.950 . S
C996 H988 0.950 . S
C996 C997 1.386 . S
C996 C998 1.391 . S
C997 C996 1.386 . S
C997 C1001 1.393 . S
C998 H990 0.950 . S
C998 C996 1.391 . S
C998 C999 1.400 . S
C999 C998 1.400 . S
C999 C1000 1.398 . S
C999 C1005 1.491 . S
C1000 H991 0.950 . S
C1000 C999 1.398 . S
C1000 C1001 1.391 . S
C1001 H989 0.950 . S
C1001 C997 1.393 . S
C1001 C1000 1.391 . S
C1002 H992 0.950 . S
C1002 C1003 1.386 . S
C1002 C1004 1.391 . S
C1003 C1002 1.386 . S
C1003 C1007 1.393 . S
C1004 H993 0.950 . S
C1004 C1002 1.391 . S
C1004 C1005 1.400 . S
C1005 C999 1.491 . S
C1005 C1004 1.400 . S
C1005 C1006 1.398 . S
C1006 H994 0.950 . S
C1006 C1005 1.398 . S
C1006 C1007 1.391 . S
C1007 H995 0.950 . S
C1007 C1003 1.393 . S
C1007 C1006 1.391 . S
H1008 C1016 0.950 . S
H1009 C1021 0.948 1_565 S
H1010 C1018 0.950 . S
H1011 C1020 0.950 1_556 S
H1012 C1022 0.950 . S
H1013 C1024 0.950 . S
H1014 C1026 0.950 1_554 S
H1015 C1027 0.948 1_545 S
C1016 H1008 0.950 . S
C1016 C1017 1.386 . S
C1016 C1018 1.391 . S
C1017 C1016 1.386 . S
C1017 C1021 1.395 . S
C1018 H1010 0.950 . S
C1018 C1016 1.391 . S
C1018 C1019 1.400 . S
C1019 C1018 1.400 . S
C1019 C1020 1.398 1_545 S
C1019 C1025 1.491 1_544 S
C1020 H1011 0.950 1_554 S
C1020 C1019 1.398 1_565 S
C1020 C1021 1.390 1_565 S
C1021 H1009 0.948 1_545 S
C1021 C1017 1.395 . S
C1021 C1020 1.390 1_545 S
C1022 H1012 0.950 . S
C1022 C1023 1.386 . S
C1022 C1024 1.391 . S
C1023 C1022 1.386 . S
C1023 C1027 1.395 . S
C1024 H1013 0.950 . S
C1024 C1022 1.391 . S
C1024 C1025 1.400 . S
C1025 C1019 1.491 1_566 S
C1025 C1024 1.400 . S
C1025 C1026 1.398 1_565 S
C1026 H1014 0.950 1_556 S
C1026 C1025 1.398 1_545 S
C1026 C1027 1.390 1_545 S
C1027 H1015 0.948 1_565 S
C1027 C1023 1.395 . S
C1027 C1026 1.390 1_565 S
H1028 C1036 0.950 . S
H1029 C1041 0.950 . S
H1030 C1038 0.950 . S
H1031 C1040 0.950 . S
H1032 C1042 0.950 . S
H1033 C1044 0.950 . S
H1034 C1046 0.950 . S
H1035 C1047 0.950 . S
C1036 H1028 0.950 . S
C1036 C1037 1.386 . S
C1036 C1038 1.391 . S
C1037 C1036 1.386 . S
C1037 C1041 1.393 . S
C1038 H1030 0.950 . S
C1038 C1036 1.391 . S
C1038 C1039 1.400 . S
C1039 C1038 1.400 . S
C1039 C1040 1.398 . S
C1039 C1045 1.491 1_554 S
C1040 H1031 0.950 . S
C1040 C1039 1.398 . S
C1040 C1041 1.391 . S
C1041 H1029 0.950 . S
C1041 C1037 1.393 . S
C1041 C1040 1.391 . S
C1042 H1032 0.950 . S
C1042 C1043 1.386 . S
C1042 C1044 1.391 . S
C1043 C1042 1.386 . S
C1043 C1047 1.393 . S
C1044 H1033 0.950 . S
C1044 C1042 1.391 . S
C1044 C1045 1.400 . S
C1045 C1039 1.491 1_556 S
C1045 C1044 1.400 . S
C1045 C1046 1.398 . S
C1046 H1034 0.950 . S
C1046 C1045 1.398 . S
C1046 C1047 1.391 . S
C1047 H1035 0.950 . S
C1047 C1043 1.393 . S
C1047 C1046 1.391 . S
H1048 C1056 0.950 . S
H1049 C1061 0.950 . S
H1050 C1058 0.950 1_455 S
H1051 C1060 0.950 . S
H1052 C1062 0.950 . S
H1053 C1064 0.950 1_655 S
H1054 C1066 0.950 . S
H1055 C1067 0.950 . S
C1056 H1048 0.950 . S
C1056 C1057 1.386 . S
C1056 C1058 1.391 . S
C1057 C1056 1.386 . S
C1057 C1061 1.393 . S
C1058 H1050 0.950 1_655 S
C1058 C1056 1.391 . S
C1058 C1059 1.400 . S
C1059 C1058 1.400 . S
C1059 C1060 1.398 1_554 S
C1059 C1065 1.491 1_654 S
C1060 H1051 0.950 . S
C1060 C1059 1.398 1_556 S
C1060 C1061 1.391 1_556 S
C1061 H1049 0.950 . S
C1061 C1057 1.393 . S
C1061 C1060 1.391 1_554 S
C1062 H1052 0.950 . S
C1062 C1063 1.386 . S
C1062 C1064 1.391 . S
C1063 C1062 1.386 . S
C1063 C1067 1.393 . S
C1064 H1053 0.950 1_455 S
C1064 C1062 1.391 . S
C1064 C1065 1.400 . S
C1065 C1059 1.491 1_456 S
C1065 C1064 1.400 . S
C1065 C1066 1.398 1_556 S
C1066 H1054 0.950 . S
C1066 C1065 1.398 1_554 S
C1066 C1067 1.391 1_554 S
C1067 H1055 0.950 . S
C1067 C1063 1.393 . S
C1067 C1066 1.391 1_556 S
H1068 C1076 0.950 . S
H1069 C1081 0.950 . S
H1070 C1078 0.950 1_565 S
H1071 C1080 0.950 . S
H1072 C1082 0.950 . S
H1073 C1084 0.950 1_545 S
H1074 C1086 0.950 . S
H1075 C1087 0.950 . S
C1076 H1068 0.950 . S
C1076 C1077 1.386 . S
C1076 C1078 1.391 . S
C1077 C1076 1.386 . S
C1077 C1081 1.393 1_655 S
C1078 H1070 0.950 1_545 S
C1078 C1076 1.391 . S
C1078 C1079 1.400 . S
C1079 C1078 1.400 . S
C1079 C1080 1.398 1_655 S
C1079 C1085 1.491 1_646 S
C1080 H1071 0.950 . S
C1080 C1079 1.398 1_455 S
C1080 C1081 1.391 . S
C1081 H1069 0.950 . S
C1081 C1077 1.393 1_455 S
C1081 C1080 1.391 . S
C1082 H1072 0.950 . S
C1082 C1083 1.386 . S
C1082 C1084 1.391 . S
C1083 C1082 1.386 . S
C1083 C1087 1.393 1_455 S
C1084 H1073 0.950 1_565 S
C1084 C1082 1.391 . S
C1084 C1085 1.400 . S
C1085 C1079 1.491 1_464 S
C1085 C1084 1.400 . S
C1085 C1086 1.398 1_455 S
C1086 H1074 0.950 . S
C1086 C1085 1.398 1_655 S
C1086 C1087 1.391 . S
C1087 H1075 0.950 . S
C1087 C1083 1.393 1_655 S
C1087 C1086 1.391 . S
H1088 C1096 0.950 . S
H1089 C1101 0.950 1_565 S
H1090 C1098 0.950 1_455 S
H1091 C1100 0.950 . S
H1092 C1102 0.950 . S
H1093 C1104 0.950 1_655 S
H1094 C1106 0.950 . S
H1095 C1107 0.950 1_545 S
C1096 H1088 0.950 . S
C1096 C1097 1.386 . S
C1096 C1098 1.391 . S
C1097 C1096 1.386 . S
C1097 C1101 1.393 . S
C1098 H1090 0.950 1_655 S
C1098 C1096 1.391 . S
C1098 C1099 1.400 . S
C1099 C1098 1.400 . S
C1099 C1100 1.398 1_545 S
C1099 C1105 1.491 1_645 S
C1100 H1091 0.950 . S
C1100 C1099 1.398 1_565 S
C1100 C1101 1.391 1_565 S
C1101 H1089 0.950 1_545 S
C1101 C1097 1.393 . S
C1101 C1100 1.391 1_545 S
C1102 H1092 0.950 . S
C1102 C1103 1.386 . S
C1102 C1104 1.391 . S
C1103 C1102 1.386 . S
C1103 C1107 1.393 . S
C1104 H1093 0.950 1_455 S
C1104 C1102 1.391 . S
C1104 C1105 1.400 . S
C1105 C1099 1.491 1_465 S
C1105 C1104 1.400 . S
C1105 C1106 1.398 1_565 S
C1106 H1094 0.950 . S
C1106 C1105 1.398 1_545 S
C1106 C1107 1.391 1_545 S
C1107 H1095 0.950 1_565 S
C1107 C1103 1.393 . S
C1107 C1106 1.391 1_565 S
H1108 C1116 0.950 . S
H1109 C1121 0.950 . S
H1110 C1118 0.950 . S
H1111 C1120 0.950 . S
H1112 C1122 0.950 . S
H1113 C1124 0.950 . S
H1114 C1126 0.950 . S
H1115 C1127 0.950 . S
C1116 H1108 0.950 . S
C1116 C1117 1.386 . S
C1116 C1118 1.391 . S
C1117 C1116 1.386 . S
C1117 C1121 1.393 . S
C1118 H1110 0.950 . S
C1118 C1116 1.391 . S
C1118 C1119 1.400 . S
C1119 C1118 1.400 . S
C1119 C1120 1.398 . S
C1119 C1125 1.491 1_545 S
C1120 H1111 0.950 . S
C1120 C1119 1.398 . S
C1120 C1121 1.391 . S
C1121 H1109 0.950 . S
C1121 C1117 1.393 . S
C1121 C1120 1.391 . S
C1122 H1112 0.950 . S
C1122 C1123 1.386 . S
C1122 C1124 1.391 . S
C1123 C1122 1.386 . S
C1123 C1127 1.393 . S
C1124 H1113 0.950 . S
C1124 C1122 1.391 . S
C1124 C1125 1.400 . S
C1125 C1119 1.491 1_565 S
C1125 C1124 1.400 . S
C1125 C1126 1.398 . S
C1126 H1114 0.950 . S
C1126 C1125 1.398 . S
C1126 C1127 1.391 . S
C1127 H1115 0.950 . S
C1127 C1123 1.393 . S
C1127 C1126 1.391 . S
H1128 C1136 0.950 . S
H1129 C1141 0.950 . S
H1130 C1138 0.950 . S
H1131 C1140 0.950 . S
H1132 C1142 0.950 . S
H1133 C1144 0.950 . S
H1134 C1146 0.950 . S
H1135 C1147 0.950 . S
C1136 H1128 0.950 . S
C1136 C1137 1.386 . S
C1136 C1138 1.391 . S
C1137 C1136 1.386 . S
C1137 C1141 1.393 . S
C1138 H1130 0.950 . S
C1138 C1136 1.391 . S
C1138 C1139 1.400 . S
C1139 C1138 1.400 . S
C1139 C1140 1.398 . S
C1139 C1145 1.491 . S
C1140 H1131 0.950 . S
C1140 C1139 1.398 . S
C1140 C1141 1.391 . S
C1141 H1129 0.950 . S
C1141 C1137 1.393 . S
C1141 C1140 1.391 . S
C1142 H1132 0.950 . S
C1142 C1143 1.386 . S
C1142 C1144 1.391 . S
C1143 C1142 1.386 . S
C1143 C1147 1.393 . S
C1144 H1133 0.950 . S
C1144 C1142 1.391 . S
C1144 C1145 1.400 . S
C1145 C1139 1.491 . S
C1145 C1144 1.400 . S
C1145 C1146 1.398 . S
C1146 H1134 0.950 . S
C1146 C1145 1.398 . S
C1146 C1147 1.391 . S
C1147 H1135 0.950 . S
C1147 C1143 1.393 . S
C1147 C1146 1.391 . S
H1148 C1156 0.950 . S
H1149 C1161 0.950 . S
H1150 C1158 0.950 . S
H1151 C1160 0.944 1_655 S
H1152 C1162 0.950 . S
H1153 C1164 0.950 . S
H1154 C1166 0.944 1_455 S
H1155 C1167 0.950 . S
C1156 H1148 0.950 . S
C1156 C1157 1.386 . S
C1156 C1158 1.391 . S
C1157 C1156 1.386 . S
C1157 C1161 1.393 . S
C1158 H1150 0.950 . S
C1158 C1156 1.391 . S
C1158 C1159 1.400 . S
C1159 C1158 1.400 . S
C1159 C1160 1.398 . S
C1159 C1165 1.491 1_455 S
C1160 H1151 0.944 1_455 S
C1160 C1159 1.398 . S
C1160 C1161 1.391 . S
C1161 H1149 0.950 . S
C1161 C1157 1.393 . S
C1161 C1160 1.391 . S
C1162 H1152 0.950 . S
C1162 C1163 1.386 . S
C1162 C1164 1.391 . S
C1163 C1162 1.386 . S
C1163 C1167 1.393 . S
C1164 H1153 0.950 . S
C1164 C1162 1.391 . S
C1164 C1165 1.400 . S
C1165 C1159 1.491 1_655 S
C1165 C1164 1.400 . S
C1165 C1166 1.398 . S
C1166 H1154 0.944 1_655 S
C1166 C1165 1.398 . S
C1166 C1167 1.391 . S
C1167 H1155 0.950 . S
C1167 C1163 1.393 . S
C1167 C1166 1.391 . S
H1168 C1176 0.950 . S
H1169 C1181 0.950 . S
H1170 C1178 0.950 . S
H1171 C1180 0.950 . S
H1172 C1182 0.950 . S
H1173 C1184 0.950 . S
H1174 C1186 0.950 . S
H1175 C1187 0.950 . S
C1176 H1168 0.950 . S
C1176 C1177 1.386 . S
C1176 C1178 1.391 . S
C1177 C1176 1.386 . S
C1177 C1181 1.393 . S
C1178 H1170 0.950 . S
C1178 C1176 1.391 . S
C1178 C1179 1.400 . S
C1179 C1178 1.400 . S
C1179 C1180 1.398 . S
C1179 C1185 1.491 . S
C1180 H1171 0.950 . S
C1180 C1179 1.398 . S
C1180 C1181 1.391 . S
C1181 H1169 0.950 . S
C1181 C1177 1.393 . S
C1181 C1180 1.391 . S
C1182 H1172 0.950 . S
C1182 C1183 1.386 . S
C1182 C1184 1.391 . S
C1183 C1182 1.386 . S
C1183 C1187 1.393 . S
C1184 H1173 0.950 . S
C1184 C1182 1.391 . S
C1184 C1185 1.400 . S
C1185 C1179 1.491 . S
C1185 C1184 1.400 . S
C1185 C1186 1.398 . S
C1186 H1174 0.950 . S
C1186 C1185 1.398 . S
C1186 C1187 1.391 . S
C1187 H1175 0.950 . S
C1187 C1183 1.393 . S
C1187 C1186 1.391 . S
H1188 C1196 0.950 . S
H1189 C1201 0.950 . S
H1190 C1198 0.950 . S
H1191 C1200 0.950 . S
H1192 C1202 0.950 . S
H1193 C1204 0.950 . S
H1194 C1206 0.950 . S
H1195 C1207 0.950 . S
C1196 H1188 0.950 . S
C1196 C1197 1.386 . S
C1196 C1198 1.391 . S
C1197 C1196 1.386 . S
C1197 C1201 1.393 . S
C1198 H1190 0.950 . S
C1198 C1196 1.391 . S
C1198 C1199 1.400 . S
C1199 C1198 1.400 . S
C1199 C1200 1.398 . S
C1199 C1205 1.491 . S
C1200 H1191 0.950 . S
C1200 C1199 1.398 . S
C1200 C1201 1.391 . S
C1201 H1189 0.950 . S
C1201 C1197 1.393 . S
C1201 C1200 1.391 . S
C1202 H1192 0.950 . S
C1202 C1203 1.386 . S
C1202 C1204 1.391 . S
C1203 C1202 1.386 . S
C1203 C1207 1.393 . S
C1204 H1193 0.950 . S
C1204 C1202 1.391 . S
C1204 C1205 1.400 . S
C1205 C1199 1.491 . S
C1205 C1204 1.400 . S
C1205 C1206 1.398 . S
C1206 H1194 0.950 . S
C1206 C1205 1.398 . S
C1206 C1207 1.391 . S
C1207 H1195 0.950 . S
C1207 C1203 1.393 . S
C1207 C1206 1.391 . S
H1208 C1216 0.950 . S
H1209 C1221 0.950 . S
H1210 C1218 0.950 . S
H1211 C1220 0.950 . S
H1212 C1222 0.950 . S
H1213 C1224 0.950 . S
H1214 C1226 0.950 . S
H1215 C1227 0.950 . S
C1216 H1208 0.950 . S
C1216 C1217 1.386 . S
C1216 C1218 1.391 . S
C1217 C1216 1.386 . S
C1217 C1221 1.393 . S
C1218 H1210 0.950 . S
C1218 C1216 1.391 . S
C1218 C1219 1.400 . S
C1219 C1218 1.400 . S
C1219 C1220 1.398 . S
C1219 C1225 1.491 . S
C1220 H1211 0.950 . S
C1220 C1219 1.398 . S
C1220 C1221 1.391 . S
C1221 H1209 0.950 . S
C1221 C1217 1.393 . S
C1221 C1220 1.391 . S
C1222 H1212 0.950 . S
C1222 C1223 1.386 . S
C1222 C1224 1.391 . S
C1223 C1222 1.386 . S
C1223 C1227 1.393 . S
C1224 H1213 0.950 . S
C1224 C1222 1.391 . S
C1224 C1225 1.400 . S
C1225 C1219 1.491 . S
C1225 C1224 1.400 . S
C1225 C1226 1.398 . S
C1226 H1214 0.950 . S
C1226 C1225 1.398 . S
C1226 C1227 1.391 . S
C1227 H1215 0.950 . S
C1227 C1223 1.393 . S
C1227 C1226 1.391 . S
H1228 C1236 0.950 . S
H1229 C1241 0.950 . S
H1230 C1238 0.950 . S
H1231 C1240 0.950 . S
H1232 C1242 0.950 . S
H1233 C1244 0.950 . S
H1234 C1246 0.950 . S
H1235 C1247 0.950 . S
C1236 H1228 0.950 . S
C1236 C1237 1.386 . S
C1236 C1238 1.391 . S
C1237 C1236 1.386 . S
C1237 C1241 1.393 . S
C1238 H1230 0.950 . S
C1238 C1236 1.391 . S
C1238 C1239 1.400 . S
C1239 C1238 1.400 . S
C1239 C1240 1.398 . S
C1239 C1245 1.491 . S
C1240 H1231 0.950 . S
C1240 C1239 1.398 . S
C1240 C1241 1.391 . S
C1241 H1229 0.950 . S
C1241 C1237 1.393 . S
C1241 C1240 1.391 . S
C1242 H1232 0.950 . S
C1242 C1243 1.386 . S
C1242 C1244 1.391 . S
C1243 C1242 1.386 . S
C1243 C1247 1.393 . S
C1244 H1233 0.950 . S
C1244 C1242 1.391 . S
C1244 C1245 1.400 . S
C1245 C1239 1.491 . S
C1245 C1244 1.400 . S
C1245 C1246 1.398 . S
C1246 H1234 0.950 . S
C1246 C1245 1.398 . S
C1246 C1247 1.391 . S
C1247 H1235 0.950 . S
C1247 C1243 1.393 . S
C1247 C1246 1.391 . S
H1248 C1256 0.950 . S
H1249 C1261 0.950 . S
H1250 C1258 0.950 . S
H1251 C1260 0.950 . S
H1252 C1262 0.950 . S
H1253 C1264 0.950 . S
H1254 C1266 0.950 . S
H1255 C1267 0.950 . S
C1256 H1248 0.950 . S
C1256 C1257 1.386 . S
C1256 C1258 1.391 . S
C1257 C1256 1.386 . S
C1257 C1261 1.393 . S
C1258 H1250 0.950 . S
C1258 C1256 1.391 . S
C1258 C1259 1.400 . S
C1259 C1258 1.400 . S
C1259 C1260 1.398 . S
C1259 C1265 1.491 . S
C1260 H1251 0.950 . S
C1260 C1259 1.398 . S
C1260 C1261 1.391 . S
C1261 H1249 0.950 . S
C1261 C1257 1.393 . S
C1261 C1260 1.391 . S
C1262 H1252 0.950 . S
C1262 C1263 1.386 . S
C1262 C1264 1.391 . S
C1263 C1262 1.386 . S
C1263 C1267 1.393 . S
C1264 H1253 0.950 . S
C1264 C1262 1.391 . S
C1264 C1265 1.400 . S
C1265 C1259 1.491 . S
C1265 C1264 1.400 . S
C1265 C1266 1.398 . S
C1266 H1254 0.950 . S
C1266 C1265 1.398 . S
C1266 C1267 1.391 . S
C1267 H1255 0.950 . S
C1267 C1263 1.393 . S
C1267 C1266 1.391 . S
H1268 C1276 0.950 . S
H1269 C1281 0.950 . S
H1270 C1278 0.950 . S
H1271 C1280 0.950 . S
H1272 C1282 0.950 . S
H1273 C1284 0.950 . S
H1274 C1286 0.950 . S
H1275 C1287 0.950 . S
C1276 H1268 0.950 . S
C1276 C1277 1.386 . S
C1276 C1278 1.391 . S
C1277 C1276 1.386 . S
C1277 C1281 1.393 . S
C1278 H1270 0.950 . S
C1278 C1276 1.391 . S
C1278 C1279 1.400 . S
C1279 C1278 1.400 . S
C1279 C1280 1.398 . S
C1279 C1285 1.491 . S
C1280 H1271 0.950 . S
C1280 C1279 1.398 . S
C1280 C1281 1.391 . S
C1281 H1269 0.950 . S
C1281 C1277 1.393 . S
C1281 C1280 1.391 . S
C1282 H1272 0.950 . S
C1282 C1283 1.386 . S
C1282 C1284 1.391 . S
C1283 C1282 1.386 . S
C1283 C1287 1.393 . S
C1284 H1273 0.950 . S
C1284 C1282 1.391 . S
C1284 C1285 1.400 . S
C1285 C1279 1.491 . S
C1285 C1284 1.400 . S
C1285 C1286 1.398 . S
C1286 H1274 0.950 . S
C1286 C1285 1.398 . S
C1286 C1287 1.391 . S
C1287 H1275 0.950 . S
C1287 C1283 1.393 . S
C1287 C1286 1.391 . S
H1288 C1296 0.950 . S
H1289 C1301 0.950 . S
H1290 C1298 0.950 . S
H1291 C1300 0.950 . S
H1292 C1302 0.950 . S
H1293 C1304 0.950 . S
H1294 C1306 0.950 . S
H1295 C1307 0.950 . S
C1296 H1288 0.950 . S
C1296 C1297 1.386 . S
C1296 C1298 1.391 . S
C1297 C1296 1.386 . S
C1297 C1301 1.393 . S
C1298 H1290 0.950 . S
C1298 C1296 1.391 . S
C1298 C1299 1.400 . S
C1299 C1298 1.400 . S
C1299 C1300 1.398 . S
C1299 C1305 1.491 . S
C1300 H1291 0.950 . S
C1300 C1299 1.398 . S
C1300 C1301 1.391 . S
C1301 H1289 0.950 . S
C1301 C1297 1.393 . S
C1301 C1300 1.391 . S
C1302 H1292 0.950 . S
C1302 C1303 1.386 . S
C1302 C1304 1.391 . S
C1303 C1302 1.386 . S
C1303 C1307 1.393 . S
C1304 H1293 0.950 . S
C1304 C1302 1.391 . S
C1304 C1305 1.400 . S
C1305 C1299 1.491 . S
C1305 C1304 1.400 . S
C1305 C1306 1.398 . S
C1306 H1294 0.950 . S
C1306 C1305 1.398 . S
C1306 C1307 1.391 . S
C1307 H1295 0.950 . S
C1307 C1303 1.393 . S
C1307 C1306 1.391 . S
H1308 C1316 0.950 . S
H1309 C1321 0.950 . S
H1310 C1318 0.950 . S
H1311 C1320 0.950 . S
H1312 C1322 0.950 . S
H1313 C1324 0.950 . S
H1314 C1326 0.950 . S
H1315 C1327 0.950 . S
C1316 H1308 0.950 . S
C1316 C1317 1.386 . S
C1316 C1318 1.391 . S
C1317 C1316 1.386 . S
C1317 C1321 1.393 . S
C1318 H1310 0.950 . S
C1318 C1316 1.391 . S
C1318 C1319 1.400 . S
C1319 C1318 1.400 . S
C1319 C1320 1.398 . S
C1319 C1325 1.491 . S
C1320 H1311 0.950 . S
C1320 C1319 1.398 . S
C1320 C1321 1.391 . S
C1321 H1309 0.950 . S
C1321 C1317 1.393 . S
C1321 C1320 1.391 . S
C1322 H1312 0.950 . S
C1322 C1323 1.386 . S
C1322 C1324 1.391 . S
C1323 C1322 1.386 . S
C1323 C1327 1.393 . S
C1324 H1313 0.950 . S
C1324 C1322 1.391 . S
C1324 C1325 1.400 . S
C1325 C1319 1.491 . S
C1325 C1324 1.400 . S
C1325 C1326 1.398 . S
C1326 H1314 0.950 . S
C1326 C1325 1.398 . S
C1326 C1327 1.391 . S
C1327 H1315 0.950 . S
C1327 C1323 1.393 . S
C1327 C1326 1.391 . S
C537 N13 0.807 . S
C543 C54 0.812 . S
C557 C87 0.817 . S
C563 N46 0.797 . S
C577 C120 0.815 . S
C583 N79 0.800 . S
C597 N112 0.809 . S
C603 C21 0.811 . S
C617 C252 0.807 . S
C623 N145 0.814 . S
C637 C153 0.814 . S
C643 N178 0.803 . S
C657 C186 0.808 . S
C663 N211 0.812 . S
C677 N244 0.797 . S
C683 C219 0.817 . S
C697 N277 0.820 . S
C703 C318 0.802 . S
C717 N310 0.820 . S
C723 C351 0.802 . S
C737 C384 0.804 . S
C743 N343 0.817 . S
C757 C285 0.811 . S
C763 N376 0.805 . S
C777 C516 0.813 . S
C783 N409 0.801 . S
C797 C417 0.809 . S
C803 N442 0.811 . S
C817 N475 0.803 . S
C823 C450 0.812 . S
C837 N508 0.815 . S
C843 C483 0.806 . S
C857 N2 1.893 . S
C863 N68 1.904 . S
C877 N35 1.892 . S
C883 N101 1.904 . S
C897 N200 1.901 . S
C903 N134 1.891 . S
C917 N233 1.902 . S
C923 N167 1.891 . S
C937 N332 1.895 . S
C943 N266 1.903 . S
C957 N299 1.893 . S
C963 N365 1.904 . S
C977 N398 1.894 . S
C983 N464 1.897 . S
C997 N431 1.904 . S
C1003 N497 1.892 . S
C1017 C18 1.821 . S
C1023 C282 1.821 . S
C1037 C51 1.804 . S
C1043 C315 1.804 . S
C1057 C84 1.821 . S
C1063 C348 1.821 . S
C1077 C381 1.804 . S
C1083 C117 1.804 . S
C1097 C414 1.803 . S
C1103 C150 1.803 . S
C1117 C183 1.818 . S
C1123 C447 1.818 . S
C1137 C216 1.821 . S
C1143 C480 1.821 . S
C1157 C513 1.806 . S
C1163 C249 1.806 . S
C1177 C172 1.594 . S
C1183 C7 1.600 . S
C1197 C205 1.595 . S
C1203 C40 1.598 . S
C1217 C73 1.601 . S
C1223 C238 1.595 . S
C1237 C139 1.595 . S
C1243 C106 1.601 . S
C1257 C271 1.598 . S
C1263 C436 1.599 . S
C1277 C469 1.594 . S
C1283 C304 1.600 . S
C1297 C502 1.595 . S
C1303 C337 1.601 . S
C1317 C370 1.596 . S
C1323 C403 1.597 . S
