# Generated by pormake.
# Topology ukk, (4)-cn, num edge types: 1
# Building blocks:
#     Node 0, Type 0, BuildingBlock: KOZSID_clean_sbu_0, # of connection points: 4
#     Node 1, Type 0, BuildingBlock: KOZSID_clean_sbu_0, # of connection points: 4
#     Node 2, Type 0, BuildingBlock: KOZSID_clean_sbu_0, # of connection points: 4
#     Node 3, Type 0, BuildingBlock: KOZSID_clean_sbu_0, # of connection points: 4
#     Node 4, Type 0, BuildingBlock: KOZSID_clean_sbu_0, # of connection points: 4
#     Node 5, Type 0, BuildingBlock: KOZSID_clean_sbu_0, # of connection points: 4
#     Node 6, Type 0, BuildingBlock: KOZSID_clean_sbu_0, # of connection points: 4
#     Node 7, Type 0, BuildingBlock: KOZSID_clean_sbu_0, # of connection points: 4
#     Node 8, Type 0, BuildingBlock: KOZSID_clean_sbu_0, # of connection points: 4
#     Node 9, Type 0, BuildingBlock: KOZSID_clean_sbu_0, # of connection points: 4
#     Node 10, Type 0, BuildingBlock: KOZSID_clean_sbu_0, # of connection points: 4
#     Node 11, Type 0, BuildingBlock: KOZSID_clean_sbu_0, # of connection points: 4
#     Node 12, Type 0, BuildingBlock: KOZSID_clean_sbu_0, # of connection points: 4
#     Node 13, Type 0, BuildingBlock: KOZSID_clean_sbu_0, # of connection points: 4
#     Node 14, Type 0, BuildingBlock: KOZSID_clean_sbu_0, # of connection points: 4
#     Node 15, Type 0, BuildingBlock: KOZSID_clean_sbu_0, # of connection points: 4
#     Edge 16, Type (0, 0), BuildingBlock: UVAHIK_clean_linker_0, # of connection points: 2
#     Edge 17, Type (0, 0), BuildingBlock: UVAHIK_clean_linker_0, # of connection points: 2
#     Edge 18, Type (0, 0), BuildingBlock: UVAHIK_clean_linker_0, # of connection points: 2
#     Edge 19, Type (0, 0), BuildingBlock: UVAHIK_clean_linker_0, # of connection points: 2
#     Edge 20, Type (0, 0), BuildingBlock: UVAHIK_clean_linker_0, # of connection points: 2
#     Edge 21, Type (0, 0), BuildingBlock: UVAHIK_clean_linker_0, # of connection points: 2
#     Edge 22, Type (0, 0), BuildingBlock: UVAHIK_clean_linker_0, # of connection points: 2
#     Edge 23, Type (0, 0), BuildingBlock: UVAHIK_clean_linker_0, # of connection points: 2
#     Edge 24, Type (0, 0), BuildingBlock: UVAHIK_clean_linker_0, # of connection points: 2
#     Edge 25, Type (0, 0), BuildingBlock: UVAHIK_clean_linker_0, # of connection points: 2
#     Edge 26, Type (0, 0), BuildingBlock: UVAHIK_clean_linker_0, # of connection points: 2
#     Edge 27, Type (0, 0), BuildingBlock: UVAHIK_clean_linker_0, # of connection points: 2
#     Edge 28, Type (0, 0), BuildingBlock: UVAHIK_clean_linker_0, # of connection points: 2
#     Edge 29, Type (0, 0), BuildingBlock: UVAHIK_clean_linker_0, # of connection points: 2
#     Edge 30, Type (0, 0), BuildingBlock: UVAHIK_clean_linker_0, # of connection points: 2
#     Edge 31, Type (0, 0), BuildingBlock: UVAHIK_clean_linker_0, # of connection points: 2
#     Edge 32, Type (0, 0), BuildingBlock: UVAHIK_clean_linker_0, # of connection points: 2
#     Edge 33, Type (0, 0), BuildingBlock: UVAHIK_clean_linker_0, # of connection points: 2
#     Edge 34, Type (0, 0), BuildingBlock: UVAHIK_clean_linker_0, # of connection points: 2
#     Edge 35, Type (0, 0), BuildingBlock: UVAHIK_clean_linker_0, # of connection points: 2
#     Edge 36, Type (0, 0), BuildingBlock: UVAHIK_clean_linker_0, # of connection points: 2
#     Edge 37, Type (0, 0), BuildingBlock: UVAHIK_clean_linker_0, # of connection points: 2
#     Edge 38, Type (0, 0), BuildingBlock: UVAHIK_clean_linker_0, # of connection points: 2
#     Edge 39, Type (0, 0), BuildingBlock: UVAHIK_clean_linker_0, # of connection points: 2
#     Edge 40, Type (0, 0), BuildingBlock: UVAHIK_clean_linker_0, # of connection points: 2
#     Edge 41, Type (0, 0), BuildingBlock: UVAHIK_clean_linker_0, # of connection points: 2
#     Edge 42, Type (0, 0), BuildingBlock: UVAHIK_clean_linker_0, # of connection points: 2
#     Edge 43, Type (0, 0), BuildingBlock: UVAHIK_clean_linker_0, # of connection points: 2
#     Edge 44, Type (0, 0), BuildingBlock: UVAHIK_clean_linker_0, # of connection points: 2
#     Edge 45, Type (0, 0), BuildingBlock: UVAHIK_clean_linker_0, # of connection points: 2
#     Edge 46, Type (0, 0), BuildingBlock: UVAHIK_clean_linker_0, # of connection points: 2
#     Edge 47, Type (0, 0), BuildingBlock: UVAHIK_clean_linker_0, # of connection points: 2
# Relax obj value: 0.064
# Max RMSD: 0.199
# Mean RMSD: 0.199
data_MOF--net-ukk--node1-KOZSID_clean_sbu_0--edge1-UVAHIK_clean_linker_0
_symmetry_space_group_name_H-M    P1
_symmetry_Int_Tables_number       1
_symmetry_cell_setting            triclinic
loop_
_symmetry_equiv_pos_as_xyz
'x, y, z'
_cell_length_a     81.850259
_cell_length_b     81.849658
_cell_length_c     31.633816
_cell_angle_alpha  89.933453
_cell_angle_beta   89.988702
_cell_angle_gamma 89.998919
loop_
_atom_site_label
_atom_site_type_symbol
_atom_site_fract_x
_atom_site_fract_y
_atom_site_fract_z
_atom_type_partial_charge
C0 C 0.36586 0.09322 0.1666 0.0
C1 C 0.3563 0.08629 0.19816 0.0
C2 C 0.34632 0.09845 0.21303 0.0
C3 C 0.35029 0.11204 0.18973 0.0
N4 N 0.36216 0.10921 0.16125 0.0
Co5 Co 0.37132 0.12536 0.12092 0.0
N6 N 0.36294 0.144 0.15469 0.0
C7 C 0.35136 0.14315 0.1849 0.0
C8 C 0.3484 0.15789 0.20396 0.0
C9 C 0.3586 0.16874 0.1842 0.0
C10 C 0.36711 0.16003 0.15358 0.0
N11 N 0.38036 0.14155 0.08036 0.0
C12 C 0.38274 0.15787 0.08469 0.0
C13 C 0.3888 0.16458 0.04752 0.0
C14 C 0.39014 0.15201 0.01905 0.0
C15 C 0.38481 0.13836 0.04023 0.0
N16 N 0.37964 0.10663 0.08738 0.0
C17 C 0.38423 0.10714 0.04658 0.0
C18 C 0.38956 0.09226 0.03194 0.0
C19 C 0.38813 0.08175 0.06564 0.0
C20 C 0.38193 0.09083 0.099 0.0
N21 N 0.35082 0.12492 0.08823 0.0
C22 C 0.3236 0.12431 0.03353 0.0
C23 C 0.33012 0.10982 0.05036 0.0
C24 C 0.34363 0.11039 0.07762 0.0
C25 C 0.33068 0.13913 0.0463 0.0
C26 C 0.34416 0.13917 0.0735 0.0
N27 N 0.39189 0.12585 0.1528 0.0
C28 C 0.42134 0.12604 0.15273 0.0
C29 C 0.42172 0.12733 0.1969 0.0
C30 C 0.40674 0.12759 0.21857 0.0
C31 C 0.39199 0.1269 0.19596 0.0
C32 C 0.40641 0.12527 0.13145 0.0
H33 H 0.38067 0.12734 0.21335 0.0
H34 H 0.40665 0.12428 0.09752 0.0
H35 H 0.34854 0.099 0.08919 0.0
H36 H 0.34942 0.1508 0.08179 0.0
C37 C 0.34547 0.12803 0.19883 0.0
C38 C 0.37746 0.08403 0.14047 0.0
C39 C 0.37783 0.1676 0.1217 0.0
C40 C 0.38596 0.12219 0.02582 0.0
H41 H 0.35649 0.07377 0.20919 0.0
H42 H 0.33771 0.09762 0.23892 0.0
H43 H 0.34025 0.16036 0.23012 0.0
H44 H 0.3595 0.18163 0.19138 0.0
H45 H 0.39168 0.17726 0.04136 0.0
H46 H 0.39481 0.15269 0.98709 0.0
H47 H 0.39452 0.08951 1.00105 0.0
H48 H 0.39128 0.06892 0.06559 0.0
H49 H 0.32518 0.09804 0.04152 0.0
H50 H 0.32591 0.1507 0.03517 0.0
H51 H 0.43255 0.12549 0.13456 0.0
H52 H 0.40639 0.12867 0.25267 0.0
C53 C 0.08978 0.63038 0.91613 0.0
C54 C 0.08062 0.62198 0.94595 0.0
C55 C 0.09139 0.61605 0.97513 0.0
C56 C 0.10647 0.62115 0.96158 0.0
N57 N 0.10598 0.63017 0.92572 0.0
Co58 Co 0.12519 0.63931 0.89389 0.0
N59 N 0.14122 0.62885 0.93376 0.0
C60 C 0.13759 0.62004 0.96877 0.0
C61 C 0.15108 0.61451 0.99009 0.0
C62 C 0.16412 0.62004 0.96732 0.0
C63 C 0.15783 0.6286 0.93307 0.0
N64 N 0.14434 0.6483 0.8617 0.0
C65 C 0.16064 0.64598 0.86717 0.0
C66 C 0.16964 0.6538 0.83585 0.0
C67 C 0.15873 0.66154 0.81024 0.0
C68 C 0.14373 0.6579 0.82689 0.0
N69 N 0.10919 0.64971 0.85394 0.0
C70 C 0.11275 0.65946 0.82066 0.0
C71 C 0.09934 0.6644 0.79814 0.0
C72 C 0.08639 0.65723 0.81786 0.0
C73 C 0.09268 0.64832 0.85152 0.0
N74 N 0.12483 0.65938 0.93031 0.0
C75 C 0.12536 0.68743 0.98321 0.0
C76 C 0.12636 0.68887 0.93916 0.0
C77 C 0.12616 0.67482 0.91356 0.0
C78 C 0.12382 0.67173 1.00002 0.0
C79 C 0.1235 0.65811 0.97342 0.0
N80 N 0.12555 0.6193 0.8581 0.0
C81 C 0.12671 0.6059 0.78975 0.0
C82 C 0.12526 0.59048 0.80868 0.0
C83 C 0.12423 0.58984 0.85272 0.0
C84 C 0.12442 0.60418 0.87647 0.0
C85 C 0.12677 0.62007 0.81487 0.0
H86 H 0.12359 0.6027 0.90979 0.0
H87 H 0.12772 0.63152 0.79878 0.0
H88 H 0.12721 0.67676 0.88036 0.0
H89 H 0.12217 0.64669 0.98882 0.0
C90 C 0.12137 0.61679 0.98014 0.0
C91 C 0.08255 0.63818 0.879 0.0
C92 C 0.16816 0.63637 0.90103 0.0
C93 C 0.12887 0.66274 0.80945 0.0
H94 H 0.06752 0.62015 0.94618 0.0
H95 H 0.08861 0.60854 1.00239 0.0
H96 H 0.15139 0.60723 0.01867 0.0
H97 H 0.17683 0.61799 0.97507 0.0
H98 H 0.18275 0.65379 0.83148 0.0
H99 H 0.1614 0.6687 0.78229 0.0
H100 H 0.09907 0.67189 0.76991 0.0
H101 H 0.07378 0.65815 0.80789 0.0
H102 H 0.12761 0.70076 0.92446 0.0
H103 H 0.12266 0.6699 0.03382 0.0
H104 H 0.1275 0.60708 0.75571 0.0
H105 H 0.12346 0.57824 0.86912 0.0
C106 C 0.64767 0.92111 0.15427 0.0
C107 C 0.65636 0.92807 0.18737 0.0
C108 C 0.66349 0.91552 0.20889 0.0
C109 C 0.6588 0.90169 0.18776 0.0
N110 N 0.64926 0.90461 0.15369 0.0
Co111 Co 0.6394 0.88791 0.11485 0.0
N112 N 0.64838 0.86938 0.14941 0.0
C113 C 0.65769 0.87063 0.1846 0.0
C114 C 0.66143 0.85593 0.20284 0.0
C115 C 0.6541 0.84454 0.17787 0.0
C116 C 0.6464 0.85298 0.14533 0.0
N117 N 0.62946 0.87117 0.07614 0.0
C118 C 0.62949 0.85457 0.07839 0.0
C119 C 0.62125 0.84767 0.04445 0.0
C120 C 0.61563 0.8603 0.02027 0.0
C121 C 0.6208 0.87416 0.0405 0.0
N122 N 0.63033 0.90651 0.08054 0.0
C123 C 0.6216 0.90538 0.04435 0.0
C124 C 0.61653 0.92019 0.02887 0.0
C125 C 0.62217 0.93147 0.0571 0.0
C126 C 0.63041 0.92285 0.08827 0.0
N127 N 0.65975 0.88801 0.07946 0.0
C128 C 0.68823 0.88738 0.02802 0.0
C129 C 0.67263 0.88816 0.0103 0.0
C130 C 0.6588 0.88854 0.03618 0.0
C131 C 0.68934 0.88716 0.0722 0.0
C132 C 0.67508 0.88738 0.09708 0.0
N133 N 0.61909 0.88782 0.14965 0.0
C134 C 0.58956 0.88877 0.15357 0.0
C135 C 0.58988 0.88835 0.19772 0.0
C136 C 0.60519 0.88744 0.21743 0.0
C137 C 0.61955 0.88723 0.19298 0.0
C138 C 0.6041 0.8885 0.1305 0.0
H139 H 0.63088 0.88669 0.20969 0.0
H140 H 0.60286 0.88887 0.09706 0.0
H141 H 0.64747 0.88925 0.0201 0.0
H142 H 0.67678 0.88693 0.13045 0.0
C143 C 0.6622 0.88579 0.20077 0.0
C144 C 0.63766 0.93067 0.12526 0.0
C145 C 0.63727 0.84482 0.11161 0.0
C146 C 0.61748 0.89016 0.02726 0.0
H147 H 0.65718 0.94087 0.1956 0.0
H148 H 0.67084 0.91634 0.23725 0.0
H149 H 0.66842 0.85377 0.23135 0.0
H150 H 0.6543 0.83151 0.18344 0.0
H151 H 0.61948 0.83483 0.03779 0.0
H152 H 0.60857 0.85947 0.99143 0.0
H153 H 0.6092 0.92248 1.00099 0.0
H154 H 0.62021 0.94453 0.05541 0.0
H155 H 0.67105 0.88867 0.97632 0.0
H156 H 0.70114 0.88649 0.08758 0.0
H157 H 0.57808 0.88911 0.13656 0.0
H158 H 0.60615 0.88717 0.25157 0.0
C159 C 0.92096 0.38151 0.91562 0.0
C160 C 0.92952 0.38779 0.94979 0.0
C161 C 0.9186 0.38886 0.98269 0.0
C162 C 0.90402 0.38326 0.96682 0.0
N163 N 0.9051 0.37882 0.92599 0.0
Co164 Co 0.88694 0.37023 0.89081 0.0
N165 N 0.87011 0.37881 0.93016 0.0
C166 C 0.87273 0.38317 0.97063 0.0
C167 C 0.85872 0.38816 0.99074 0.0
C168 C 0.84653 0.38669 0.9612 0.0
C169 C 0.8538 0.3809 0.92449 0.0
N170 N 0.86889 0.3616 0.85538 0.0
C171 C 0.85278 0.36545 0.85521 0.0
C172 C 0.8446 0.35685 0.8238 0.0
C173 C 0.85588 0.34692 0.80483 0.0
C174 C 0.87033 0.35012 0.82512 0.0
N175 N 0.90373 0.36152 0.85168 0.0
C176 C 0.90148 0.34967 0.82283 0.0
C177 C 0.91542 0.34607 0.80055 0.0
C178 C 0.92717 0.35628 0.81648 0.0
C179 C 0.91968 0.36559 0.84763 0.0
N180 N 0.88743 0.34964 0.92325 0.0
C181 C 0.88811 0.32241 0.97796 0.0
C182 C 0.87327 0.32898 0.9637 0.0
C183 C 0.87319 0.34253 0.93658 0.0
C184 C 0.90262 0.32945 0.96281 0.0
C185 C 0.90201 0.3429 0.93533 0.0
N186 N 0.88648 0.39092 0.85929 0.0
C187 C 0.88619 0.40608 0.79375 0.0
C188 C 0.8868 0.42097 0.81579 0.0
C189 C 0.88699 0.42036 0.86008 0.0
C190 C 0.88684 0.40534 0.88103 0.0
C191 C 0.88607 0.39122 0.81605 0.0
H192 H 0.88709 0.40544 0.91505 0.0
H193 H 0.88578 0.37997 0.79834 0.0
H194 H 0.86153 0.34753 0.92739 0.0
H195 H 0.91341 0.3481 0.92469 0.0
C196 C 0.8887 0.3846 0.98639 0.0
C197 C 0.9283 0.37733 0.87459 0.0
C198 C 0.84465 0.37597 0.88654 0.0
C199 C 0.88571 0.34456 0.81236 0.0
H200 H 0.94228 0.39121 0.95087 0.0
H201 H 0.9209 0.39378 0.01387 0.0
H202 H 0.85756 0.39271 0.02271 0.0
H203 H 0.83373 0.38931 0.96632 0.0
H204 H 0.8318 0.35752 0.81556 0.0
H205 H 0.85388 0.33878 0.77838 0.0
H206 H 0.91673 0.33756 0.7746 0.0
H207 H 0.9398 0.35677 0.80641 0.0
H208 H 0.86172 0.32406 0.97456 0.0
H209 H 0.9144 0.32465 0.97222 0.0
H210 H 0.88611 0.40587 0.75953 0.0
H211 H 0.88712 0.43146 0.8787 0.0
C212 C 0.36524 0.41864 0.09247 0.0
C213 C 0.35554 0.42565 0.06133 0.0
C214 C 0.34548 0.41353 0.0466 0.0
C215 C 0.34955 0.39988 0.06954 0.0
N216 N 0.36155 0.40264 0.09769 0.0
Co217 Co 0.3709 0.38639 0.13742 0.0
N218 N 0.36244 0.36784 0.1035 0.0
C219 C 0.35072 0.36875 0.07368 0.0
C220 C 0.34769 0.35405 0.05447 0.0
C221 C 0.35798 0.34316 0.07374 0.0
C222 C 0.36663 0.35181 0.10421 0.0
N223 N 0.38013 0.37012 0.17739 0.0
C224 C 0.38252 0.35381 0.17272 0.0
C225 C 0.38872 0.34702 0.20963 0.0
C226 C 0.39015 0.35951 0.23828 0.0
C227 C 0.38473 0.37321 0.21747 0.0
N228 N 0.37934 0.40505 0.17105 0.0
C229 C 0.38409 0.40444 0.21171 0.0
C230 C 0.38953 0.41927 0.22637 0.0
C231 C 0.388 0.42985 0.19285 0.0
C232 C 0.38163 0.42086 0.15956 0.0
N233 N 0.35053 0.38669 0.1707 0.0
C234 C 0.32338 0.38708 0.22581 0.0
C235 C 0.33004 0.40165 0.20974 0.0
C236 C 0.34347 0.40119 0.18217 0.0
C237 C 0.33034 0.37232 0.21212 0.0
C238 C 0.34382 0.37239 0.18487 0.0
N239 N 0.39134 0.38608 0.10492 0.0
C240 C 0.42078 0.3868 0.10396 0.0
C241 C 0.42098 0.38602 0.05968 0.0
C242 C 0.40589 0.38514 0.0386 0.0
C243 C 0.39125 0.3852 0.06174 0.0
C244 C 0.40595 0.38684 0.1258 0.0
H245 H 0.37986 0.38462 0.04471 0.0
H246 H 0.40633 0.38749 0.15978 0.0
H247 H 0.34841 0.41263 0.17102 0.0
H248 H 0.34901 0.36079 0.17601 0.0
C249 C 0.34472 0.3839 0.06026 0.0
C250 C 0.37701 0.42774 0.11828 0.0
C251 C 0.37748 0.34417 0.13567 0.0
C252 C 0.38592 0.38934 0.23215 0.0
H253 H 0.3557 0.43819 0.05046 0.0
H254 H 0.33677 0.41442 0.02096 0.0
H255 H 0.33941 0.35164 0.02856 0.0
H256 H 0.35885 0.33028 0.06638 0.0
H257 H 0.39163 0.33432 0.21552 0.0
H258 H 0.39494 0.35875 0.27011 0.0
H259 H 0.39465 0.42195 0.25714 0.0
H260 H 0.3912 0.44268 0.19296 0.0
H261 H 0.32528 0.41342 0.21927 0.0
H262 H 0.32548 0.36068 0.22247 0.0
H263 H 0.43204 0.38718 0.1219 0.0
H264 H 0.40535 0.38465 0.00442 0.0
C265 C 0.42097 0.63116 0.84535 0.0
C266 C 0.42951 0.6251 0.81088 0.0
C267 C 0.41854 0.62406 0.77813 0.0
C268 C 0.40394 0.62946 0.79439 0.0
N269 N 0.40506 0.63373 0.83533 0.0
Co270 Co 0.38689 0.64206 0.87093 0.0
N271 N 0.37006 0.63356 0.83146 0.0
C272 C 0.37266 0.62936 0.79086 0.0
C273 C 0.35866 0.62439 0.7707 0.0
C274 C 0.34649 0.6257 0.80034 0.0
C275 C 0.35376 0.63138 0.83715 0.0
N276 N 0.36883 0.65045 0.90674 0.0
C277 C 0.35273 0.64655 0.90686 0.0
C278 C 0.34454 0.65496 0.93861 0.0
C279 C 0.3558 0.66482 0.95787 0.0
C280 C 0.37024 0.66178 0.93739 0.0
N281 N 0.40369 0.65066 0.91023 0.0
C282 C 0.4014 0.66234 0.93954 0.0
C283 C 0.41534 0.66593 0.96179 0.0
C284 C 0.42715 0.65592 0.94534 0.0
C285 C 0.41969 0.64672 0.91393 0.0
N286 N 0.38724 0.66278 0.83913 0.0
C287 C 0.38764 0.69011 0.78469 0.0
C288 C 0.37287 0.68325 0.79859 0.0
C289 C 0.37293 0.66971 0.82569 0.0
C290 C 0.40222 0.68336 0.80037 0.0
C291 C 0.40175 0.6698 0.82752 0.0
N292 N 0.38652 0.62124 0.90185 0.0
C293 C 0.3856 0.60581 0.96692 0.0
C294 C 0.38555 0.59102 0.94442 0.0
C295 C 0.38621 0.5918 0.90019 0.0
C296 C 0.38671 0.60691 0.87968 0.0
C297 C 0.38603 0.62077 0.94507 0.0
H298 H 0.38724 0.60695 0.84569 0.0
H299 H 0.3859 0.63194 0.9631 0.0
H300 H 0.36133 0.6646 0.83484 0.0
H301 H 0.41319 0.66469 0.83808 0.0
C302 C 0.38861 0.62809 0.77494 0.0
C303 C 0.42839 0.63526 0.88633 0.0
C304 C 0.3446 0.63616 0.87522 0.0
C305 C 0.38561 0.66732 0.95027 0.0
H306 H 0.4423 0.62181 0.80948 0.0
H307 H 0.42082 0.61931 0.74676 0.0
H308 H 0.35749 0.61997 0.73861 0.0
H309 H 0.33369 0.62305 0.79521 0.0
H310 H 0.33174 0.6542 0.94688 0.0
H311 H 0.35379 0.67282 0.98461 0.0
H312 H 0.41662 0.67432 0.988 0.0
H313 H 0.4398 0.65549 0.95521 0.0
H314 H 0.36126 0.6882 0.78837 0.0
H315 H 0.41397 0.68813 0.79065 0.0
H316 H 0.38502 0.60587 1.00112 0.0
H317 H 0.38652 0.58077 0.88132 0.0
C318 C 0.64804 0.59233 0.1038 0.0
C319 C 0.65679 0.58537 0.07079 0.0
C320 C 0.66419 0.5979 0.0498 0.0
C321 C 0.65959 0.61171 0.07116 0.0
N322 N 0.64991 0.60879 0.10495 0.0
Co323 Co 0.64007 0.62545 0.14392 0.0
N324 N 0.64918 0.644 0.10967 0.0
C325 C 0.65862 0.64277 0.0747 0.0
C326 C 0.66242 0.65748 0.05659 0.0
C327 C 0.65498 0.66885 0.0814 0.0
C328 C 0.64717 0.66039 0.11374 0.0
N329 N 0.63012 0.64216 0.18269 0.0
C330 C 0.63009 0.65876 0.18042 0.0
C331 C 0.62179 0.66563 0.21428 0.0
C332 C 0.61618 0.65299 0.23844 0.0
C333 C 0.62141 0.63914 0.21826 0.0
N334 N 0.63088 0.60682 0.17789 0.0
C335 C 0.6222 0.60791 0.21419 0.0
C336 C 0.61692 0.5931 0.2292 0.0
C337 C 0.62235 0.58188 0.20051 0.0
C338 C 0.63068 0.59053 0.16956 0.0
N339 N 0.66038 0.6252 0.17954 0.0
C340 C 0.68879 0.62545 0.23128 0.0
C341 C 0.67316 0.62492 0.24883 0.0
C342 C 0.65936 0.62472 0.22281 0.0
C343 C 0.68998 0.62565 0.18711 0.0
C344 C 0.67575 0.62563 0.16209 0.0
N345 N 0.61983 0.62567 0.10894 0.0
C346 C 0.59031 0.62462 0.10481 0.0
C347 C 0.59068 0.62506 0.06067 0.0
C348 C 0.60601 0.62609 0.04106 0.0
C349 C 0.62034 0.62633 0.06562 0.0
C350 C 0.60481 0.62493 0.12799 0.0
H351 H 0.63171 0.62694 0.04904 0.0
H352 H 0.60353 0.62451 0.16142 0.0
H353 H 0.64801 0.62418 0.23881 0.0
H354 H 0.67753 0.62607 0.12875 0.0
C355 C 0.66312 0.62761 0.05842 0.0
C356 C 0.63762 0.58283 0.13201 0.0
C357 C 0.63788 0.66852 0.14723 0.0
C358 C 0.61809 0.62312 0.23139 0.0
H359 H 0.65744 0.57259 0.0622 0.0
H360 H 0.6716 0.59709 0.02154 0.0
H361 H 0.66949 0.65966 0.02821 0.0
H362 H 0.65517 0.68188 0.07582 0.0
H363 H 0.61996 0.67847 0.22088 0.0
H364 H 0.60907 0.6538 0.26721 0.0
H365 H 0.60952 0.59079 0.25694 0.0
H366 H 0.62013 0.56885 0.20167 0.0
H367 H 0.67151 0.62445 0.2828 0.0
H368 H 0.70181 0.62614 0.17185 0.0
H369 H 0.57881 0.62419 0.12174 0.0
H370 H 0.607 0.6264 0.00693 0.0
C371 C 0.59007 0.38263 0.84139 0.0
C372 C 0.58104 0.3913 0.8118 0.0
C373 C 0.59188 0.39701 0.78247 0.0
C374 C 0.60687 0.39158 0.79579 0.0
N375 N 0.60625 0.38252 0.83157 0.0
Co376 Co 0.62534 0.37316 0.86346 0.0
N377 N 0.6415 0.38333 0.82349 0.0
C378 C 0.638 0.39202 0.78819 0.0
C379 C 0.65157 0.39735 0.76687 0.0
C380 C 0.66453 0.39183 0.78996 0.0
C381 C 0.65812 0.38348 0.8244 0.0
N382 N 0.64436 0.36403 0.89589 0.0
C383 C 0.66068 0.36633 0.89078 0.0
C384 C 0.66956 0.35854 0.92237 0.0
C385 C 0.65855 0.35085 0.9478 0.0
C386 C 0.64361 0.35449 0.93079 0.0
N387 N 0.60922 0.36296 0.90335 0.0
C388 C 0.6126 0.35291 0.93614 0.0
C389 C 0.59908 0.34799 0.95828 0.0
C390 C 0.58626 0.35551 0.93885 0.0
C391 C 0.59276 0.36469 0.90596 0.0
N392 N 0.62475 0.35304 0.82713 0.0
C393 C 0.62414 0.32491 0.77425 0.0
C394 C 0.62628 0.32355 0.81809 0.0
C395 C 0.62653 0.33762 0.84367 0.0
C396 C 0.62241 0.34064 0.75767 0.0
C397 C 0.62269 0.35428 0.78422 0.0
N398 N 0.6259 0.39319 0.89911 0.0
C399 C 0.62672 0.40663 0.96743 0.0
C400 C 0.62568 0.42205 0.94833 0.0
C401 C 0.62506 0.42267 0.90423 0.0
C402 C 0.62522 0.40831 0.88057 0.0
C403 C 0.62675 0.39243 0.94239 0.0
H404 H 0.62471 0.40977 0.8472 0.0
H405 H 0.62734 0.38096 0.95856 0.0
H406 H 0.62819 0.33568 0.87669 0.0
H407 H 0.62128 0.36569 0.76887 0.0
C408 C 0.62183 0.39559 0.77699 0.0
C409 C 0.58284 0.37528 0.87914 0.0
C410 C 0.66833 0.37585 0.85692 0.0
C411 C 0.62868 0.34959 0.94774 0.0
H412 H 0.56801 0.39355 0.81192 0.0
H413 H 0.58921 0.40463 0.75535 0.0
H414 H 0.65198 0.40457 0.7382 0.0
H415 H 0.67727 0.39379 0.78237 0.0
H416 H 0.68265 0.35853 0.92703 0.0
H417 H 0.66111 0.34369 0.97583 0.0
H418 H 0.59866 0.3403 0.98612 0.0
H419 H 0.57359 0.35465 0.94839 0.0
H420 H 0.62756 0.31168 0.83286 0.0
H421 H 0.62107 0.34257 0.72398 0.0
H422 H 0.6272 0.40548 1.00152 0.0
H423 H 0.62461 0.43427 0.88775 0.0
C424 C 0.86521 0.59302 0.66485 0.0
C425 C 0.85546 0.5861 0.69603 0.0
C426 C 0.8454 0.59827 0.71049 0.0
C427 C 0.84951 0.61186 0.68736 0.0
N428 N 0.86155 0.60901 0.65935 0.0
Co429 Co 0.87097 0.62516 0.61943 0.0
N430 N 0.86245 0.64381 0.65294 0.0
C431 C 0.85069 0.64297 0.68267 0.0
C432 C 0.84764 0.65772 0.7016 0.0
C433 C 0.85796 0.66856 0.68225 0.0
C434 C 0.86665 0.65983 0.65201 0.0
N435 N 0.88028 0.64133 0.57927 0.0
C436 C 0.88267 0.65765 0.58371 0.0
C437 C 0.88895 0.66435 0.54677 0.0
C438 C 0.89043 0.65178 0.51834 0.0
C439 C 0.88495 0.63814 0.5393 0.0
N440 N 0.87945 0.60641 0.5862 0.0
C441 C 0.88427 0.60692 0.54558 0.0
C442 C 0.88968 0.59204 0.53117 0.0
C443 C 0.88807 0.58153 0.56483 0.0
C444 C 0.88168 0.59061 0.59794 0.0
N445 N 0.85066 0.6248 0.58591 0.0
C446 C 0.82377 0.62439 0.52997 0.0
C447 C 0.83029 0.60983 0.54649 0.0
C448 C 0.8436 0.6103 0.57446 0.0
C449 C 0.83069 0.63916 0.54374 0.0
C450 C 0.84404 0.63909 0.57141 0.0
N451 N 0.89137 0.62559 0.6521 0.0
C452 C 0.92081 0.62571 0.6531 0.0
C453 C 0.92096 0.62718 0.69724 0.0
C454 C 0.90586 0.62753 0.71836 0.0
C455 C 0.89123 0.62676 0.69524 0.0
C456 C 0.906 0.62492 0.6313 0.0
H457 H 0.87982 0.62726 0.71221 0.0
H458 H 0.90642 0.62385 0.5974 0.0
H459 H 0.84846 0.59887 0.58589 0.0
H460 H 0.84922 0.6507 0.58026 0.0
C461 C 0.84468 0.62786 0.69631 0.0
C462 C 0.87699 0.58384 0.63927 0.0
C463 C 0.87757 0.66739 0.62054 0.0
C464 C 0.88615 0.62197 0.52491 0.0
H465 H 0.85558 0.57359 0.70709 0.0
H466 H 0.83664 0.59745 0.73605 0.0
H467 H 0.83931 0.66021 0.72739 0.0
H468 H 0.85883 0.68145 0.6894 0.0
H469 H 0.89189 0.67703 0.54072 0.0
H470 H 0.89528 0.65246 0.48656 0.0
H471 H 0.89483 0.58928 0.50048 0.0
H472 H 0.89122 0.56869 0.56493 0.0
H473 H 0.82552 0.59807 0.53696 0.0
H474 H 0.82593 0.65079 0.53307 0.0
H475 H 0.9321 0.62506 0.63532 0.0
H476 H 0.90532 0.62873 0.75241 0.0
C477 C 0.59131 0.13106 0.41208 0.0
C478 C 0.58244 0.12245 0.44207 0.0
C479 C 0.59345 0.11662 0.4708 0.0
C480 C 0.60838 0.122 0.45681 0.0
N481 N 0.60755 0.13108 0.42111 0.0
Co482 Co 0.62644 0.14065 0.38882 0.0
N483 N 0.64285 0.13022 0.42766 0.0
C484 C 0.63956 0.12111 0.46239 0.0
C485 C 0.65326 0.11559 0.48282 0.0
C486 C 0.66608 0.12142 0.4597 0.0
C487 C 0.65946 0.13015 0.42617 0.0
N488 N 0.64526 0.15014 0.35628 0.0
C489 C 0.66162 0.14803 0.361 0.0
C490 C 0.67031 0.15622 0.32971 0.0
C491 C 0.65914 0.16397 0.30493 0.0
C492 C 0.6443 0.15999 0.32199 0.0
N493 N 0.61006 0.15094 0.34972 0.0
C494 C 0.61327 0.16088 0.31659 0.0
C495 C 0.59967 0.16564 0.29461 0.0
C496 C 0.58695 0.15813 0.31452 0.0
C497 C 0.59358 0.14921 0.34771 0.0
N498 N 0.62596 0.16054 0.42591 0.0
C499 C 0.62624 0.18836 0.47973 0.0
C500 C 0.62677 0.19002 0.43566 0.0
C501 C 0.62669 0.17609 0.40961 0.0
C502 C 0.62531 0.17254 0.49609 0.0
C503 C 0.62512 0.15904 0.46906 0.0
N504 N 0.62694 0.12081 0.35238 0.0
C505 C 0.62851 0.10775 0.28365 0.0
C506 C 0.62702 0.09224 0.30203 0.0
C507 C 0.62572 0.09137 0.34599 0.0
C508 C 0.62575 0.1056 0.37022 0.0
C509 C 0.62835 0.1218 0.30922 0.0
H510 H 0.62479 0.10395 0.40346 0.0
H511 H 0.6293 0.13334 0.29354 0.0
H512 H 0.62733 0.17822 0.37643 0.0
H513 H 0.6243 0.14752 0.48417 0.0
C514 C 0.62346 0.11767 0.47447 0.0
C515 C 0.58378 0.13876 0.37521 0.0
C516 C 0.66949 0.13826 0.39402 0.0
C517 C 0.62927 0.16458 0.3051 0.0
H518 H 0.56938 0.12038 0.44267 0.0
H519 H 0.59093 0.10897 0.49796 0.0
H520 H 0.65385 0.10812 0.51105 0.0
H521 H 0.67887 0.11946 0.46674 0.0
H522 H 0.68338 0.15642 0.32473 0.0
H523 H 0.66153 0.17134 0.27716 0.0
H524 H 0.59911 0.17325 0.26664 0.0
H525 H 0.57427 0.15885 0.30501 0.0
H526 H 0.62755 0.202 0.42125 0.0
H527 H 0.62453 0.17051 0.52987 0.0
H528 H 0.6295 0.10909 0.24968 0.0
H529 H 0.62487 0.07968 0.36192 0.0
C530 C 0.14704 0.4203 0.64999 0.0
C531 C 0.15593 0.42695 0.68315 0.0
C532 C 0.1632 0.4142 0.70356 0.0
C533 C 0.15838 0.40058 0.68173 0.0
N534 N 0.14867 0.40383 0.6482 0.0
Co535 Co 0.13858 0.38754 0.60863 0.0
N536 N 0.14746 0.36867 0.64207 0.0
C537 C 0.15687 0.36955 0.67717 0.0
C538 C 0.16047 0.35468 0.69465 0.0
C539 C 0.15293 0.34357 0.66927 0.0
C540 C 0.14525 0.35233 0.63727 0.0
N541 N 0.12843 0.37121 0.56914 0.0
C542 C 0.12828 0.3546 0.57056 0.0
C543 C 0.11996 0.34805 0.53629 0.0
C544 C 0.11448 0.36091 0.51276 0.0
C545 C 0.1198 0.37457 0.53367 0.0
N546 N 0.12956 0.40649 0.57555 0.0
C547 C 0.12078 0.40573 0.53938 0.0
C548 C 0.11562 0.4207 0.52509 0.0
C549 C 0.12125 0.43167 0.55416 0.0
C550 C 0.12956 0.42273 0.58457 0.0
N551 N 0.15887 0.38776 0.57293 0.0
C552 C 0.18726 0.38731 0.52115 0.0
C553 C 0.17166 0.38847 0.50365 0.0
C554 C 0.15786 0.38876 0.52971 0.0
C555 C 0.18844 0.38661 0.56527 0.0
C556 C 0.17422 0.38674 0.59031 0.0
N557 N 0.11836 0.38734 0.64373 0.0
C558 C 0.08885 0.38842 0.64824 0.0
C559 C 0.0893 0.38791 0.69239 0.0
C560 C 0.10467 0.38687 0.71177 0.0
C561 C 0.11894 0.38663 0.68704 0.0
C562 C 0.10332 0.38814 0.62487 0.0
H563 H 0.13033 0.38597 0.7035 0.0
H564 H 0.102 0.38862 0.59144 0.0
H565 H 0.14652 0.3898 0.51381 0.0
H566 H 0.17598 0.38589 0.62359 0.0
C567 C 0.16164 0.38455 0.69394 0.0
C568 C 0.1367 0.4301 0.62231 0.0
C569 C 0.13595 0.34453 0.6033 0.0
C570 C 0.11655 0.39069 0.52141 0.0
H571 H 0.15676 0.43967 0.69223 0.0
H572 H 0.17065 0.41474 0.73178 0.0
H573 H 0.16751 0.35223 0.72292 0.0
H574 H 0.15297 0.33049 0.67421 0.0
H575 H 0.11804 0.33528 0.52901 0.0
H576 H 0.10737 0.36038 0.48393 0.0
H577 H 0.10821 0.42327 0.49754 0.0
H578 H 0.11919 0.44473 0.55358 0.0
H579 H 0.17003 0.38935 0.46974 0.0
H580 H 0.20025 0.38562 0.58048 0.0
H581 H 0.07732 0.38887 0.63146 0.0
H582 H 0.10574 0.38653 0.74588 0.0
C583 C 0.42044 0.88091 0.4144 0.0
C584 C 0.42895 0.88703 0.44885 0.0
C585 C 0.41796 0.88808 0.48157 0.0
C586 C 0.40338 0.88262 0.46532 0.0
N587 N 0.40453 0.8783 0.42442 0.0
Co588 Co 0.38641 0.86993 0.38878 0.0
N589 N 0.36953 0.87851 0.42802 0.0
C590 C 0.37208 0.88276 0.4686 0.0
C591 C 0.35806 0.88778 0.48858 0.0
C592 C 0.34593 0.88644 0.45884 0.0
C593 C 0.35325 0.88069 0.42215 0.0
N594 N 0.36839 0.86148 0.35294 0.0
C595 C 0.3523 0.86538 0.35267 0.0
C596 C 0.34414 0.85688 0.32104 0.0
C597 C 0.35542 0.84696 0.30201 0.0
C598 C 0.36984 0.85007 0.32251 0.0
N599 N 0.40325 0.86126 0.34971 0.0
C600 C 0.401 0.84952 0.32056 0.0
C601 C 0.41497 0.84592 0.29839 0.0
C602 C 0.42674 0.85601 0.31473 0.0
C603 C 0.41923 0.86526 0.34599 0.0
N604 N 0.38672 0.84926 0.42081 0.0
C605 C 0.38717 0.82196 0.47535 0.0
C606 C 0.37238 0.82882 0.46152 0.0
C607 C 0.37242 0.84235 0.43436 0.0
C608 C 0.40173 0.82871 0.45959 0.0
C609 C 0.40124 0.84226 0.4324 0.0
N610 N 0.38613 0.8907 0.35764 0.0
C611 C 0.38593 0.90601 0.29235 0.0
C612 C 0.38661 0.92084 0.31465 0.0
C613 C 0.3868 0.92013 0.35892 0.0
C614 C 0.38656 0.90506 0.37963 0.0
C615 C 0.38574 0.8911 0.31441 0.0
H616 H 0.38679 0.90507 0.41365 0.0
H617 H 0.3854 0.8799 0.29651 0.0
H618 H 0.36081 0.84746 0.42521 0.0
H619 H 0.41267 0.84736 0.42178 0.0
C620 C 0.38802 0.88403 0.48465 0.0
C621 C 0.42786 0.87683 0.37342 0.0
C622 C 0.34414 0.87587 0.38404 0.0
C623 C 0.38523 0.8445 0.30981 0.0
H624 H 0.44172 0.89037 0.45024 0.0
H625 H 0.4202 0.89289 0.51289 0.0
H626 H 0.35685 0.89225 0.52062 0.0
H627 H 0.33313 0.88911 0.46382 0.0
H628 H 0.33135 0.85761 0.31269 0.0
H629 H 0.35344 0.8389 0.27541 0.0
H630 H 0.41629 0.83749 0.27229 0.0
H631 H 0.4394 0.85647 0.30488 0.0
H632 H 0.36078 0.82387 0.47183 0.0
H633 H 0.41349 0.82395 0.46927 0.0
H634 H 0.38586 0.90589 0.25813 0.0
H635 H 0.38698 0.93118 0.37771 0.0
C636 C 0.8658 0.9188 0.59886 0.0
C637 C 0.85623 0.92611 0.56791 0.0
C638 C 0.84611 0.91418 0.55245 0.0
C639 C 0.85002 0.90033 0.57479 0.0
N640 N 0.86198 0.90279 0.60323 0.0
Co641 Co 0.87114 0.88617 0.64225 0.0
N642 N 0.86252 0.86794 0.60742 0.0
C643 C 0.85087 0.86918 0.57752 0.0
C644 C 0.84776 0.85466 0.55751 0.0
C645 C 0.85793 0.84353 0.57631 0.0
C646 C 0.86658 0.85187 0.60736 0.0
N647 N 0.88018 0.86952 0.6815 0.0
C648 C 0.88243 0.85323 0.67604 0.0
C649 C 0.88853 0.84611 0.71265 0.0
C650 C 0.89004 0.85838 0.74191 0.0
C651 C 0.88477 0.87227 0.72175 0.0
N652 N 0.8797 0.9045 0.67686 0.0
C653 C 0.8844 0.90354 0.71753 0.0
C654 C 0.88988 0.91823 0.73304 0.0
C655 C 0.88845 0.92908 0.70009 0.0
C656 C 0.88209 0.92039 0.66625 0.0
N657 N 0.85074 0.88644 0.67543 0.0
C658 C 0.82367 0.88678 0.73076 0.0
C659 C 0.83041 0.90137 0.71506 0.0
C660 C 0.8438 0.90093 0.68739 0.0
C661 C 0.83049 0.87202 0.71654 0.0
C662 C 0.84393 0.87212 0.68914 0.0
N663 N 0.8916 0.88591 0.60987 0.0
C664 C 0.92104 0.88657 0.60916 0.0
C665 C 0.92129 0.88609 0.56486 0.0
C666 C 0.90623 0.88534 0.54361 0.0
C667 C 0.89156 0.88529 0.56665 0.0
C668 C 0.90618 0.88647 0.63089 0.0
H669 H 0.88018 0.88486 0.5495 0.0
H670 H 0.90654 0.88689 0.66489 0.0
H671 H 0.84882 0.91239 0.67661 0.0
H672 H 0.84902 0.86053 0.67983 0.0
C673 C 0.84505 0.88447 0.56472 0.0
C674 C 0.87754 0.92763 0.62536 0.0
C675 C 0.87736 0.84391 0.63848 0.0
C676 C 0.88607 0.88828 0.73723 0.0
H677 H 0.8565 0.93873 0.55767 0.0
H678 H 0.83745 0.91533 0.52676 0.0
H679 H 0.83952 0.85251 0.53134 0.0
H680 H 0.85873 0.83073 0.5682 0.0
H681 H 0.89132 0.83335 0.71793 0.0
H682 H 0.89478 0.85734 0.77374 0.0
H683 H 0.89495 0.92063 0.76402 0.0
H684 H 0.89169 0.94189 0.70093 0.0
H685 H 0.82574 0.91312 0.72501 0.0
H686 H 0.82556 0.86038 0.72663 0.0
H687 H 0.93228 0.88683 0.62719 0.0
H688 H 0.90574 0.88507 0.50941 0.0
C689 C 0.92398 0.13008 0.34322 0.0
C690 C 0.93283 0.12164 0.3129 0.0
C691 C 0.92181 0.11618 0.28372 0.0
C692 C 0.90691 0.12153 0.29786 0.0
N693 N 0.90775 0.1303 0.33401 0.0
Co694 Co 0.88886 0.13943 0.36709 0.0
N695 N 0.87243 0.12949 0.3275 0.0
C696 C 0.87572 0.12093 0.29189 0.0
C697 C 0.86202 0.11578 0.2709 0.0
C698 C 0.8492 0.1213 0.29451 0.0
C699 C 0.85582 0.12948 0.3289 0.0
N700 N 0.87006 0.14839 0.40062 0.0
C701 C 0.8537 0.14628 0.39588 0.0
C702 C 0.84503 0.15391 0.42808 0.0
C703 C 0.85621 0.16134 0.45346 0.0
C704 C 0.87104 0.15771 0.43582 0.0
N705 N 0.90524 0.14935 0.4067 0.0
C706 C 0.90207 0.15914 0.44011 0.0
C707 C 0.91573 0.16389 0.46188 0.0
C708 C 0.92841 0.1565 0.44158 0.0
C709 C 0.9217 0.14757 0.40858 0.0
N710 N 0.88919 0.15977 0.33148 0.0
C711 C 0.88851 0.18815 0.27954 0.0
C712 C 0.88775 0.18933 0.32366 0.0
C713 C 0.888 0.17512 0.34878 0.0
C714 C 0.88993 0.17255 0.26216 0.0
C715 C 0.89036 0.15877 0.28829 0.0
N716 N 0.88852 0.11916 0.40201 0.0
C717 C 0.88803 0.10528 0.46985 0.0
C718 C 0.88888 0.08996 0.45018 0.0
C719 C 0.88928 0.08963 0.40603 0.0
C720 C 0.8891 0.10416 0.38292 0.0
C721 C 0.8879 0.11963 0.44534 0.0
H722 H 0.88948 0.10291 0.34949 0.0
H723 H 0.88742 0.131 0.46196 0.0
H724 H 0.88707 0.17688 0.38206 0.0
H725 H 0.89159 0.14746 0.27244 0.0
C726 C 0.89182 0.11752 0.27974 0.0
C727 C 0.93141 0.13707 0.38111 0.0
C728 C 0.84581 0.13714 0.36176 0.0
C729 C 0.88607 0.16243 0.45245 0.0
H730 H 0.94585 0.11935 0.31246 0.0
H731 H 0.92431 0.10873 0.25622 0.0
H732 H 0.86142 0.10874 0.24199 0.0
H733 H 0.83641 0.1195 0.28721 0.0
H734 H 0.83196 0.15401 0.43312 0.0
H735 H 0.85383 0.16834 0.48181 0.0
H736 H 0.91633 0.17138 0.49003 0.0
H737 H 0.94114 0.15727 0.45065 0.0
H738 H 0.8866 0.20115 0.33876 0.0
H739 H 0.8909 0.17093 0.22827 0.0
H740 H 0.88775 0.10624 0.50398 0.0
H741 H 0.88957 0.07815 0.38906 0.0
C742 C 0.14842 0.09334 0.59506 0.0
C743 C 0.15782 0.08583 0.56411 0.0
C744 C 0.16815 0.09756 0.54845 0.0
C745 C 0.16453 0.11149 0.57067 0.0
N746 N 0.15254 0.10927 0.59922 0.0
Co747 Co 0.14373 0.12605 0.63817 0.0
N748 N 0.15258 0.14409 0.603 0.0
C749 C 0.16422 0.14265 0.57312 0.0
C750 C 0.16753 0.1571 0.55291 0.0
C751 C 0.15749 0.16838 0.57153 0.0
C752 C 0.14872 0.1602 0.60266 0.0
N753 N 0.13503 0.14287 0.6773 0.0
C754 C 0.13291 0.15916 0.67146 0.0
C755 C 0.12696 0.16644 0.70798 0.0
C756 C 0.1254 0.15426 0.73758 0.0
C757 C 0.1305 0.14026 0.71768 0.0
N758 N 0.13495 0.10792 0.67315 0.0
C759 C 0.1304 0.10897 0.71391 0.0
C760 C 0.12474 0.09438 0.72968 0.0
C761 C 0.1259 0.08349 0.69679 0.0
C762 C 0.13228 0.09207 0.66273 0.0
N763 N 0.16418 0.12549 0.67105 0.0
C764 C 0.1913 0.12476 0.72604 0.0
C765 C 0.18447 0.11027 0.71015 0.0
C766 C 0.17101 0.1109 0.68273 0.0
C767 C 0.18459 0.13961 0.71222 0.0
C768 C 0.17114 0.13971 0.68486 0.0
N769 N 0.1232 0.12665 0.6061 0.0
C770 C 0.09376 0.1272 0.60604 0.0
C771 C 0.09341 0.128 0.56178 0.0
C772 C 0.1084 0.12788 0.54015 0.0
C773 C 0.12314 0.12725 0.56288 0.0
C774 C 0.10867 0.12652 0.62742 0.0
H775 H 0.13448 0.12734 0.54551 0.0
H776 H 0.1084 0.1259 0.66141 0.0
H777 H 0.16585 0.09952 0.67192 0.0
H778 H 0.16615 0.15137 0.6757 0.0
C779 C 0.16978 0.12725 0.56043 0.0
C780 C 0.13654 0.08477 0.62177 0.0
C781 C 0.13795 0.16829 0.63352 0.0
C782 C 0.12901 0.12429 0.73345 0.0
H783 H 0.1573 0.07322 0.55401 0.0
H784 H 0.17676 0.09623 0.52271 0.0
H785 H 0.17579 0.1591 0.52668 0.0
H786 H 0.15685 0.18119 0.5632 0.0
H787 H 0.12428 0.17924 0.71293 0.0
H788 H 0.12071 0.15543 0.76942 0.0
H789 H 0.11973 0.09207 0.76078 0.0
H790 H 0.12248 0.07072 0.6978 0.0
H791 H 0.18911 0.09846 0.71984 0.0
H792 H 0.1896 0.15117 0.72262 0.0
H793 H 0.08256 0.12693 0.62424 0.0
H794 H 0.10879 0.12857 0.50598 0.0
C795 C 0.08951 0.88293 0.34078 0.0
C796 C 0.08039 0.89152 0.31124 0.0
C797 C 0.09114 0.89708 0.28147 0.0
C798 C 0.10616 0.89164 0.29453 0.0
N799 N 0.10564 0.8827 0.33051 0.0
Co800 Co 0.12483 0.87351 0.36234 0.0
N801 N 0.14088 0.88347 0.3217 0.0
C802 C 0.13727 0.89187 0.28601 0.0
C803 C 0.15077 0.89705 0.26417 0.0
C804 C 0.16381 0.8917 0.28728 0.0
C805 C 0.1575 0.88361 0.32225 0.0
N806 N 0.14395 0.86465 0.39487 0.0
C807 C 0.16025 0.86697 0.38944 0.0
C808 C 0.16922 0.85946 0.42131 0.0
C809 C 0.15828 0.85191 0.44726 0.0
C810 C 0.1433 0.85537 0.43025 0.0
N811 N 0.10883 0.86344 0.40276 0.0
C812 C 0.11232 0.85349 0.43567 0.0
C813 C 0.09885 0.84858 0.45806 0.0
C814 C 0.08597 0.85602 0.43867 0.0
C815 C 0.09238 0.86514 0.40555 0.0
N816 N 0.12422 0.85321 0.32674 0.0
C817 C 0.1236 0.82483 0.27477 0.0
C818 C 0.12613 0.82371 0.31852 0.0
C819 C 0.12639 0.8379 0.34364 0.0
C820 C 0.12149 0.84046 0.25782 0.0
C821 C 0.12177 0.85421 0.28393 0.0
N822 N 0.1254 0.89374 0.39724 0.0
C823 C 0.12565 0.90758 0.46505 0.0
C824 C 0.12481 0.9229 0.44525 0.0
C825 C 0.12466 0.92325 0.40111 0.0
C826 C 0.12498 0.90874 0.37807 0.0
C827 C 0.12589 0.89324 0.44059 0.0
H828 H 0.12477 0.91001 0.34462 0.0
H829 H 0.12631 0.88186 0.45723 0.0
H830 H 0.12836 0.83614 0.37662 0.0
H831 H 0.12003 0.86552 0.26831 0.0
C832 C 0.12107 0.89547 0.27514 0.0
C833 C 0.08241 0.87573 0.3789 0.0
C834 C 0.1678 0.87622 0.35494 0.0
C835 C 0.12842 0.85039 0.44737 0.0
H836 H 0.06737 0.8938 0.31166 0.0
H837 H 0.08838 0.9046 0.25422 0.0
H838 H 0.15111 0.90407 0.23517 0.0
H839 H 0.17653 0.89361 0.27935 0.0
H840 H 0.18232 0.85951 0.42577 0.0
H841 H 0.16092 0.84494 0.47554 0.0
H842 H 0.0985 0.841 0.48611 0.0
H843 H 0.07332 0.85518 0.44844 0.0
H844 H 0.1277 0.81193 0.33359 0.0
H845 H 0.11985 0.84222 0.22415 0.0
H846 H 0.12579 0.90664 0.49919 0.0
H847 H 0.12442 0.93474 0.3841 0.0
C848 C 0.39689 0.94978 0.30831 0.0
C849 C 0.38714 0.93701 0.29245 0.0
C850 C 0.39677 0.96524 0.28936 0.0
C851 C 0.38569 0.98764 0.19107 0.0
H852 H 0.38526 0.02515 0.26575 0.0
C853 C 0.37277 0.05383 0.13208 0.0
C854 C 0.38107 0.06672 0.15193 0.0
C855 C 0.37442 0.03776 0.14695 0.0
C856 C 0.38564 0.01487 0.24429 0.0
H857 H 0.36984 0.93058 0.24333 0.0
H858 H 0.36966 0.95758 0.21013 0.0
H859 H 0.3863 0.99777 0.29549 0.0
H860 H 0.39756 0.07307 0.20262 0.0
H861 H 0.40085 0.04502 0.22814 0.0
H862 H 0.38497 1.00481 0.13982 0.0
C863 C 0.3775 0.95556 0.2372 0.0
C864 C 0.3862 0.9991 0.26143 0.0
C865 C 0.37761 0.94005 0.25625 0.0
C866 C 0.39123 0.06327 0.18648 0.0
C867 C 0.39292 0.04722 0.20134 0.0
C868 C 0.38516 1.00345 0.17387 0.0
C869 C 0.38692 0.96844 0.25385 0.0
C870 C 0.38627 0.98524 0.23512 0.0
C871 C 0.38433 0.03425 0.18226 0.0
C872 C 0.38515 0.01731 0.20025 0.0
H873 H 0.40469 0.94784 0.33551 0.0
H874 H 0.40447 0.9747 0.30254 0.0
H875 H 0.3859 0.97729 0.16978 0.0
H876 H 0.36455 0.05628 0.106 0.0
H877 H 0.36742 0.0282 0.13178 0.0
C878 C 0.05956 0.62191 0.84755 0.0
C879 C 0.06489 0.63596 0.86881 0.0
C880 C 0.04336 0.62064 0.83348 0.0
C881 C 1.00629 0.61804 0.82174 0.0
H882 H 0.9875 0.65705 0.77198 0.0
C883 C 0.93935 0.62029 0.75914 0.0
C884 C 0.93682 0.62851 0.72058 0.0
C885 C 0.95448 0.62118 0.77996 0.0
C886 C 0.99256 0.646 0.78558 0.0
H887 H 0.05756 0.65948 0.89331 0.0
H888 H 0.02917 0.65727 0.86942 0.0
H889 H 0.01462 0.65822 0.80338 0.0
H890 H 0.94822 0.6445 0.67449 0.0
H891 H 0.97449 0.64586 0.71025 0.0
H892 H 0.98434 0.60574 0.8028 0.0
C893 C 0.03747 0.64728 0.86294 0.0
C894 C 0.00808 0.64672 0.80413 0.0
C895 C 0.05366 0.64852 0.87701 0.0
C896 C 0.94974 0.63783 0.70381 0.0
C897 C 0.9648 0.63877 0.72465 0.0
C898 C 0.99072 0.61733 0.80326 0.0
C899 C 0.03215 0.63345 0.8403 0.0
C900 C 0.01524 0.63273 0.82223 0.0
C901 C 0.96743 0.63042 0.76294 0.0
C902 C 0.98369 0.63128 0.78454 0.0
H903 H 0.06808 0.61214 0.84063 0.0
H904 H 0.0398 0.60989 0.81584 0.0
H905 H 0.01132 0.60704 0.83569 0.0
H906 H 0.92973 0.61291 0.77288 0.0
H907 H 0.95599 0.6147 0.80958 0.0
C908 C 0.62275 0.95287 0.16365 0.0
C909 C 0.63476 0.94829 0.13437 0.0
C910 C 0.62117 0.9692 0.17617 0.0
C911 C 0.6449 0.00765 0.18361 0.0
H912 H 0.60254 0.02672 0.20754 0.0
C913 C 0.63787 0.07458 0.24275 0.0
C914 C 0.62682 0.07695 0.27625 0.0
C915 C 0.63839 0.05964 0.22098 0.0
C916 C 0.61449 0.02156 0.2013 0.0
H917 H 0.65447 0.95698 0.09486 0.0
H918 H 0.65167 0.98566 0.11621 0.0
H919 H 0.60417 0.99934 0.17755 0.0
H920 H 0.60715 0.06566 0.31173 0.0
H921 H 0.60814 0.03973 0.27431 0.0
H922 H 0.65521 0.0298 0.20797 0.0
C923 C 0.64349 0.97668 0.1298 0.0
C924 C 0.61542 1.00582 0.18408 0.0
C925 C 0.64502 0.96032 0.1172 0.0
C926 C 0.61597 0.06421 0.28647 0.0
C927 C 0.61642 0.04936 0.26465 0.0
C928 C 0.64396 0.02341 0.20084 0.0
C929 C 0.63166 0.98132 0.15986 0.0
C930 C 0.63064 0.99855 0.17549 0.0
C931 C 0.62776 0.04677 0.2319 0.0
C932 C 0.62874 0.0305 0.21048 0.0
H933 H 0.61488 0.94371 0.17769 0.0
H934 H 0.61209 0.97222 0.19979 0.0
H935 H 0.65684 1.00241 0.178 0.0
H936 H 0.64646 0.08409 0.23417 0.0
H937 H 0.64717 0.05816 0.19566 0.0
C938 C 0.07161 0.37869 0.75365 0.0
C939 C 0.07377 0.38845 0.71741 0.0
C940 C 0.05664 0.37856 0.77532 0.0
C941 C 0.01747 0.40172 0.78721 0.0
H942 H 1.00061 0.36016 0.82664 0.0
C943 C 0.94934 0.39162 0.8305 0.0
C944 C 0.94565 0.38128 0.86459 0.0
C945 C 0.96551 0.39353 0.81675 0.0
C946 C 1.00521 0.37193 0.81641 0.0
H947 H 0.06192 0.40625 0.67684 0.0
H948 H 0.03589 0.40573 0.71371 0.0
H949 H 0.02776 0.36149 0.79523 0.0
H950 H 0.95582 0.36471 0.9109 0.0
H951 H 0.98416 0.36818 0.88746 0.0
H952 H 0.99474 0.41207 0.80764 0.0
C953 C 0.04576 0.39824 0.72576 0.0
C954 C 0.02084 0.3727 0.79837 0.0
C955 C 0.06068 0.39837 0.70417 0.0
C956 C 0.95843 0.37301 0.88508 0.0
C957 C 0.97461 0.37485 0.87126 0.0
C958 C 1.00182 0.40094 0.80511 0.0
C959 C 0.04343 0.38823 0.76144 0.0
C960 C 0.02715 0.38758 0.78309 0.0
C961 C 0.97835 0.38496 0.8365 0.0
C962 C 0.9954 0.386 0.81962 0.0
H963 H 0.08135 0.37082 0.76469 0.0
H964 H 0.05541 0.37084 0.80296 0.0
H965 H 0.02198 0.41347 0.7766 0.0
H966 H 0.93962 0.39783 0.81367 0.0
H967 H 0.96785 0.40122 0.78955 0.0
C968 C 0.39063 0.44844 0.07175 0.0
C969 C 0.3807 0.44503 0.10679 0.0
C970 C 0.39233 0.46449 0.05691 0.0
C971 C 0.38494 0.5083 0.08474 0.0
H972 H 0.38482 0.51392 0.96307 0.0
C973 C 0.39387 0.57173 1.00324 0.0
C974 C 0.38478 0.57482 0.96633 0.0
C975 C 0.39377 0.55618 0.0221 0.0
C976 C 0.38474 0.51263 0.99714 0.0
H977 H 0.3646 0.45556 0.15362 0.0
H978 H 0.3675 0.48363 0.12788 0.0
H979 H 0.38421 0.48656 0.99295 0.0
H980 H 0.3678 0.56408 0.92169 0.0
H981 H 0.36752 0.53719 0.95447 0.0
H982 H 0.385 0.53447 0.08875 0.0
C983 C 0.37432 0.47404 0.1123 0.0
C984 C 0.38464 0.49686 0.01436 0.0
C985 C 0.37266 0.45797 0.12716 0.0
C986 C 0.37524 0.56208 0.94951 0.0
C987 C 0.37511 0.5466 0.96834 0.0
C988 C 0.38505 0.52412 0.06747 0.0
C989 C 0.38398 0.47751 0.0765 0.0
C990 C 0.38467 0.49443 0.05841 0.0
C991 C 0.38453 0.54333 0.00459 0.0
C992 C 0.38483 0.52651 0.02339 0.0
H993 H 0.39676 0.43861 0.05522 0.0
H994 H 0.40005 0.46666 0.02968 0.0
H995 H 0.38512 0.50696 0.11879 0.0
H996 H 0.40146 0.58118 0.0169 0.0
H997 H 0.40128 0.55412 0.04976 0.0
C998 C 0.4584 0.64013 0.87491 0.0
C999 C 0.44587 0.63157 0.89562 0.0
C1000 C 0.47469 0.63838 0.88782 0.0
C1001 C 0.50264 0.61204 0.95112 0.0
H1002 H 0.52846 0.65156 0.96122 0.0
C1003 C 0.56213 0.6144 0.04939 0.0
C1004 C 0.57509 0.62446 0.03597 0.0
C1005 C 0.54709 0.61454 0.02837 0.0
C1006 C 0.52157 0.64034 0.95798 0.0
H1007 H 0.44039 0.61461 0.94606 0.0
H1008 H 0.46884 0.61139 0.96862 0.0
H1009 H 0.50102 0.65294 0.93148 0.0
H1010 H 0.58234 0.64232 0.98893 0.0
H1011 H 0.55616 0.64235 0.95166 0.0
H1012 H 0.52311 0.59944 0.9779 0.0
C1013 C 0.4662 0.61925 0.94191 0.0
C1014 C 0.50577 0.64114 0.94091 0.0
C1015 C 0.44991 0.62106 0.92908 0.0
C1016 C 0.57269 0.63435 1.00008 0.0
C1017 C 0.55759 0.6345 0.979 0.0
C1018 C 0.51845 0.61123 0.96806 0.0
C1019 C 0.47881 0.62807 0.92187 0.0
C1020 C 0.49601 0.62703 0.93769 0.0
C1021 C 0.54451 0.62471 0.99311 0.0
C1022 C 0.52808 0.6254 0.97226 0.0
H1023 H 0.45551 0.64857 0.84957 0.0
H1024 H 0.48405 0.64526 0.87142 0.0
H1025 H 0.49561 0.60088 0.94851 0.0
H1026 H 0.56356 0.60642 0.07648 0.0
H1027 H 0.53734 0.60694 0.04058 0.0
C1028 C 0.6148 0.45035 0.96111 0.0
C1029 C 0.6252 0.43752 0.97343 0.0
C1030 C 0.6152 0.46542 0.98187 0.0
C1031 C 0.6291 0.48665 0.07938 0.0
H1032 H 0.62699 0.52493 0.00731 0.0
C1033 C 0.64299 0.55269 0.13883 0.0
C1034 C 0.63391 0.56552 0.1211 0.0
C1035 C 0.64109 0.53666 0.12391 0.0
C1036 C 0.62734 0.51442 0.0281 0.0
H1037 H 0.64384 0.4304 0.01848 0.0
H1038 H 0.64458 0.4568 0.05485 0.0
H1039 H 0.62536 0.49789 0.97608 0.0
H1040 H 0.61555 0.57182 0.07483 0.0
H1041 H 0.61185 0.54386 0.04932 0.0
H1042 H 0.6312 0.50331 0.13145 0.0
C1043 C 0.63602 0.45513 0.02912 0.0
C1044 C 0.62642 0.49885 0.01011 0.0
C1045 C 0.6356 0.43998 0.00828 0.0
C1046 C 0.62258 0.56205 0.08913 0.0
C1047 C 0.62063 0.54607 0.07427 0.0
C1048 C 0.63 0.50229 0.09747 0.0
C1049 C 0.62604 0.46816 0.01564 0.0
C1050 C 0.6272 0.48472 0.03543 0.0
C1051 C 0.63011 0.53317 0.09079 0.0
C1052 C 0.62906 0.51641 0.07206 0.0
H1053 H 0.60636 0.4488 0.93506 0.0
H1054 H 0.60703 0.47498 0.97125 0.0
H1055 H 0.62961 0.47607 0.09993 0.0
H1056 H 0.65197 0.55517 0.16313 0.0
H1057 H 0.6487 0.52713 0.13715 0.0
C1058 C 0.45001 0.39576 0.05018 0.0
C1059 C 0.43686 0.38609 0.03612 0.0
C1060 C 0.46513 0.39537 0.02951 0.0
C1061 C 0.49024 0.36967 0.95759 0.0
H1062 H 0.51663 0.40886 0.94899 0.0
C1063 C 0.55271 0.37015 0.87052 0.0
C1064 C 0.56548 0.37842 0.89093 0.0
C1065 C 0.53657 0.37177 0.88482 0.0
C1066 C 0.50948 0.39777 0.95137 0.0
H1067 H 0.42947 0.36854 0.98854 0.0
H1068 H 0.45572 0.36813 0.95189 0.0
H1069 H 0.48936 0.41039 0.97972 0.0
H1070 H 0.57155 0.39489 0.94191 0.0
H1071 H 0.5434 0.39786 0.96694 0.0
H1072 H 0.51042 0.35705 0.92937 0.0
C1073 C 0.45439 0.37586 0.97943 0.0
C1074 C 0.49381 0.39863 0.9691 0.0
C1075 C 0.43923 0.37625 1.00018 0.0
C1076 C 0.56183 0.38857 0.92537 0.0
C1077 C 0.54571 0.39027 0.93958 0.0
C1078 C 0.5059 0.36881 0.93972 0.0
C1079 C 0.46761 0.38534 0.99397 0.0
C1080 C 0.484 0.38456 0.97292 0.0
C1081 C 0.53286 0.38174 0.91984 0.0
C1082 C 0.51581 0.38282 0.93674 0.0
H1083 H 0.44864 0.40369 0.07732 0.0
H1084 H 0.475 0.40271 0.04206 0.0
H1085 H 0.48321 0.35851 0.96049 0.0
H1086 H 0.5553 0.36212 0.84414 0.0
H1087 H 0.52699 0.36515 0.86858 0.0
C1088 C 0.89691 0.44997 0.80913 0.0
C1089 C 0.88727 0.4371 0.79334 0.0
C1090 C 0.89672 0.46539 0.78997 0.0
C1091 C 0.88568 0.48756 0.69128 0.0
H1092 H 0.8848 0.52519 0.76553 0.0
C1093 C 0.87255 0.55357 0.63114 0.0
C1094 C 0.88065 0.56657 0.65109 0.0
C1095 C 0.87425 0.53754 0.64626 0.0
C1096 C 0.88531 0.51487 0.74418 0.0
H1097 H 0.8701 0.43047 0.74409 0.0
H1098 H 0.86981 0.4574 0.71051 0.0
H1099 H 0.88598 0.49787 0.79559 0.0
H1100 H 0.89685 0.57313 0.70222 0.0
H1101 H 0.90025 0.54515 0.72815 0.0
H1102 H 0.88498 0.50464 0.63982 0.0
C1103 C 0.87761 0.45549 0.73771 0.0
C1104 C 0.88595 0.49913 0.7615 0.0
C1105 C 0.87779 0.44001 0.75698 0.0
C1106 C 0.89067 0.56325 0.68601 0.0
C1107 C 0.89242 0.54724 0.70109 0.0
C1108 C 0.88509 0.50335 0.67389 0.0
C1109 C 0.88692 0.46846 0.7543 0.0
C1110 C 0.88618 0.48523 0.73536 0.0
C1111 C 0.88402 0.53416 0.68191 0.0
C1112 C 0.88492 0.51725 0.7001 0.0
H1113 H 0.90468 0.44814 0.83643 0.0
H1114 H 0.90434 0.47494 0.80312 0.0
H1115 H 0.88602 0.47718 0.67011 0.0
H1116 H 0.86443 0.55591 0.60477 0.0
H1117 H 0.8674 0.52791 0.63097 0.0
C1118 C 0.55463 0.14831 0.37549 0.0
C1119 C 0.56614 0.13623 0.3654 0.0
C1120 C 0.53844 0.14694 0.36158 0.0
C1121 C 0.50895 0.14679 0.30299 0.0
H1122 H 0.48604 0.10538 0.29767 0.0
C1123 C 0.45042 0.13819 0.20314 0.0
C1124 C 0.43768 0.12857 0.2197 0.0
C1125 C 0.46556 0.13909 0.22355 0.0
C1126 C 0.49219 0.11708 0.29925 0.0
H1127 H 0.56986 0.11312 0.33387 0.0
H1128 H 0.54154 0.11062 0.30943 0.0
H1129 H 0.51314 0.1067 0.32999 0.0
H1130 H 0.43102 0.11234 0.27107 0.0
H1131 H 0.45747 0.11398 0.30694 0.0
H1132 H 0.48805 0.1572 0.27241 0.0
C1133 C 0.54489 0.12109 0.32845 0.0
C1134 C 0.50782 0.11781 0.31742 0.0
C1135 C 0.56111 0.1225 0.34233 0.0
C1136 C 0.44049 0.11996 0.25755 0.0
C1137 C 0.45572 0.12077 0.27789 0.0
C1138 C 0.49338 0.14605 0.2847 0.0
C1139 C 0.53339 0.13345 0.33721 0.0
C1140 C 0.51646 0.13267 0.31938 0.0
C1141 C 0.46848 0.13034 0.26112 0.0
C1142 C 0.48482 0.13117 0.28228 0.0
H1143 H 0.55831 0.15903 0.39312 0.0
H1144 H 0.5299 0.15657 0.36952 0.0
H1145 H 0.51525 0.15842 0.30342 0.0
H1146 H 0.44866 0.14514 0.17434 0.0
H1147 H 0.47511 0.14645 0.2094 0.0
C1148 C 0.11423 0.56228 0.79522 0.0
C1149 C 0.12481 0.57505 0.78344 0.0
C1150 C 0.11464 0.54725 0.77431 0.0
C1151 C 0.12875 0.52613 0.67696 0.0
H1152 H 0.12632 0.48771 0.74849 0.0
C1153 C 0.14238 0.46021 0.61652 0.0
C1154 C 0.1332 0.44738 0.63392 0.0
C1155 C 0.14057 0.4762 0.6318 0.0
C1156 C 0.12676 0.49827 0.72785 0.0
H1157 H 0.14376 0.58209 0.73916 0.0
H1158 H 0.14448 0.55576 0.70247 0.0
H1159 H 0.12471 0.5147 0.78006 0.0
H1160 H 0.11476 0.44103 0.67996 0.0
H1161 H 0.11123 0.46893 0.7061 0.0
H1162 H 0.13088 0.50957 0.6247 0.0
C1163 C 0.13579 0.55746 0.72792 0.0
C1164 C 0.12586 0.51381 0.74604 0.0
C1165 C 0.13538 0.57257 0.74895 0.0
C1166 C 0.12188 0.4508 0.66595 0.0
C1167 C 0.12002 0.46675 0.68116 0.0
C1168 C 0.12963 0.51053 0.65868 0.0
C1169 C 0.12563 0.54449 0.74088 0.0
C1170 C 0.12676 0.52797 0.72091 0.0
C1171 C 0.12958 0.47964 0.66493 0.0
C1172 C 0.12857 0.49636 0.68389 0.0
H1173 H 0.10565 0.56386 0.82096 0.0
H1174 H 0.10634 0.53773 0.78452 0.0
H1175 H 0.12936 0.53675 0.65658 0.0
H1176 H 0.15134 0.45775 0.59215 0.0
H1177 H 0.14825 0.48573 0.61878 0.0
C1178 C 0.45793 0.87231 0.3846 0.0
C1179 C 0.44528 0.88069 0.3639 0.0
C1180 C 0.47418 0.87422 0.37147 0.0
C1181 C 0.50175 0.9007 0.30739 0.0
H1182 H 0.52795 0.86142 0.29764 0.0
C1183 C 0.56121 0.89872 0.2088 0.0
C1184 C 0.57427 0.88882 0.22234 0.0
C1185 C 0.54617 0.89847 0.22984 0.0
C1186 C 0.52094 0.87258 0.30077 0.0
H1187 H 0.43953 0.89747 0.31328 0.0
H1188 H 0.4679 0.90096 0.29033 0.0
H1189 H 0.50057 0.85983 0.32769 0.0
H1190 H 0.58169 0.87113 0.26963 0.0
H1191 H 0.55553 0.87093 0.30694 0.0
H1192 H 0.52205 0.91344 0.2802 0.0
C1193 C 0.4654 0.89314 0.31719 0.0
C1194 C 0.50519 0.87166 0.31803 0.0
C1195 C 0.44915 0.89117 0.33025 0.0
C1196 C 0.57197 0.87898 0.25837 0.0
C1197 C 0.55688 0.87872 0.27949 0.0
C1198 C 0.51752 0.90163 0.29027 0.0
C1199 C 0.47813 0.8845 0.33721 0.0
C1200 C 0.49529 0.88568 0.32115 0.0
C1201 C 0.5437 0.88835 0.26526 0.0
C1202 C 0.52729 0.88755 0.2862 0.0
H1203 H 0.45518 0.8639 0.41009 0.0
H1204 H 0.48365 0.86748 0.38786 0.0
H1205 H 0.49461 0.91179 0.30991 0.0
H1206 H 0.56255 0.90666 0.1816 0.0
H1207 H 0.53633 0.90594 0.21756 0.0
C1208 C 0.87277 0.95769 0.63603 0.0
C1209 C 0.88115 0.94506 0.61529 0.0
C1210 C 0.87458 0.97395 0.62282 0.0
C1211 C 0.90102 1.00158 0.55893 0.0
H1212 H 0.86181 0.0279 0.54955 0.0
C1213 C 0.89924 0.06127 0.46122 0.0
C1214 C 0.88934 0.07433 0.47479 0.0
C1215 C 0.89894 0.0462 0.4821 0.0
C1216 C 0.87295 0.02086 0.55258 0.0
H1217 H 0.89782 0.93936 0.56446 0.0
H1218 H 0.90116 0.96775 0.54137 0.0
H1219 H 0.86016 1.00045 0.5792 0.0
H1220 H 0.87163 0.0817 0.522 0.0
H1221 H 0.87134 0.05547 0.55906 0.0
H1222 H 0.91381 0.02192 0.53211 0.0
C1223 C 0.8934 0.96522 0.5683 0.0
C1224 C 0.87199 1.00506 0.56959 0.0
C1225 C 0.89151 0.94896 0.58143 0.0
C1226 C 0.87947 0.07198 0.51072 0.0
C1227 C 0.87916 0.05685 0.53169 0.0
C1228 C 0.90199 0.0174 0.54208 0.0
C1229 C 0.88479 0.97793 0.58846 0.0
C1230 C 0.88599 0.99512 0.57257 0.0
C1231 C 0.88878 0.04367 0.5174 0.0
C1232 C 0.88793 0.02721 0.53813 0.0
H1233 H 0.86446 0.95491 0.66172 0.0
H1234 H 0.86787 0.9834 0.63931 0.0
H1235 H 0.9121 0.99441 0.56136 0.0
H1236 H 0.90719 0.06266 0.4341 0.0
H1237 H 0.9064 0.03638 0.46976 0.0
C1238 C 0.95211 0.12327 0.42721 0.0
C1239 C 0.94872 0.13354 0.39279 0.0
C1240 C 0.9681 0.12163 0.44239 0.0
C1241 C 0.01195 0.12971 0.41681 0.0
H1242 H 0.01662 0.12912 0.53874 0.0
C1243 C 0.07463 0.12009 0.50154 0.0
C1244 C 0.07743 0.129 0.5389 0.0
C1245 C 0.05927 0.12041 0.48173 0.0
C1246 C 0.01559 0.1294 0.50461 0.0
H1247 H 0.95924 0.14999 0.34678 0.0
H1248 H 0.98727 0.14725 0.37324 0.0
H1249 H 0.9895 0.1298 0.50756 0.0
H1250 H 0.06638 0.14587 0.58332 0.0
H1251 H 0.03982 0.14647 0.54893 0.0
H1252 H 0.03815 0.12973 0.4141 0.0
C1253 C 0.97767 0.14022 0.38822 0.0
C1254 C 0.99997 0.12955 0.48664 0.0
C1255 C 0.96164 0.14182 0.37301 0.0
C1256 C 0.0646 0.13856 0.55518 0.0
C1257 C 0.04931 0.13889 0.53542 0.0
C1258 C 0.02763 0.12954 0.43484 0.0
C1259 C 0.98109 0.13034 0.42369 0.0
C1260 C 0.99788 0.12974 0.44248 0.0
C1261 C 0.04632 0.12965 0.49873 0.0
C1262 C 0.02967 0.12949 0.47905 0.0
H1263 H 0.94228 0.11686 0.44311 0.0
H1264 H 0.97024 0.1137 0.46923 0.0
H1265 H 0.01086 0.12973 0.38269 0.0
H1266 H 0.08416 0.11249 0.48826 0.0
H1267 H 0.05742 0.11303 0.45374 0.0
C1268 C 0.13396 0.94119 0.5053 0.0
C1269 C 0.12405 0.93853 0.46961 0.0
C1270 C 0.13418 0.95649 0.52542 0.0
C1271 C 0.12543 1.00008 0.50307 0.0
H1272 H 0.1279 1.00552 0.62459 0.0
C1273 C 0.12178 0.06414 0.57776 0.0
C1274 C 0.13238 0.06752 0.61143 0.0
C1275 C 0.11967 0.04809 0.56347 0.0
C1276 C 0.12736 1.00423 0.59056 0.0
H1277 H 0.10579 0.94962 0.429 0.0
H1278 H 0.10617 0.97608 0.46383 0.0
H1279 H 0.1265 0.97805 0.59445 0.0
H1280 H 0.14916 0.05694 0.65657 0.0
H1281 H 0.1456 0.02885 0.63166 0.0
H1282 H 0.12655 0.02612 0.49883 0.0
C1283 C 0.11411 0.96654 0.47571 0.0
C1284 C 0.12656 0.98845 0.57328 0.0
C1285 C 0.11389 0.95132 0.45572 0.0
C1286 C 0.14063 0.05455 0.63114 0.0
C1287 C 0.13858 0.03847 0.61678 0.0
C1288 C 0.12629 0.01579 0.52026 0.0
C1289 C 0.12448 0.96947 0.51032 0.0
C1290 C 0.1255 0.98618 0.52927 0.0
C1291 C 0.1283 0.03504 0.58218 0.0
C1292 C 0.12719 0.01815 0.56427 0.0
H1293 H 0.142 0.93165 0.51674 0.0
H1294 H 0.14237 0.95831 0.55187 0.0
H1295 H 0.125 0.99883 0.46901 0.0
H1296 H 0.11546 0.07401 0.56177 0.0
H1297 H 0.11144 0.04595 0.53727 0.0
C1298 C 0.93975 0.87663 0.50542 0.0
C1299 C 0.93721 0.88637 0.5415 0.0
C1300 C 0.95502 0.87631 0.48516 0.0
C1301 C 0.99887 0.88479 0.50566 0.0
H1302 H 1.00313 0.88306 0.3837 0.0
C1303 C 0.06208 0.88952 0.42601 0.0
C1304 C 0.06521 0.87919 0.39162 0.0
C1305 C 0.0462 0.89124 0.44186 0.0
C1306 C 1.00218 0.88338 0.41783 0.0
H1307 H 0.94868 0.90404 0.58306 0.0
H1308 H 0.97513 0.90346 0.54802 0.0
H1309 H 0.97598 0.88427 0.41576 0.0
H1310 H 0.05435 0.86264 0.34649 0.0
H1311 H 0.02651 0.8655 0.37418 0.0
H1312 H 0.02495 0.88371 0.508 0.0
C1313 C 0.96545 0.89576 0.53586 0.0
C1314 C 0.98657 0.88407 0.43623 0.0
C1315 C 0.95023 0.89609 0.55602 0.0
C1316 C 0.05214 0.87086 0.37268 0.0
C1317 C 0.03622 0.87254 0.38859 0.0
C1318 C 0.01442 0.88406 0.48733 0.0
C1319 C 0.96815 0.88572 0.50046 0.0
C1320 C 0.98471 0.88486 0.48044 0.0
C1321 C 0.03306 0.88254 0.42392 0.0
C1322 C 0.01634 0.88341 0.44313 0.0
H1323 H 0.93008 0.86886 0.49351 0.0
H1324 H 0.95665 0.86833 0.45822 0.0
H1325 H 0.99795 0.88502 0.53981 0.0
H1326 H 0.07202 0.89597 0.44125 0.0
H1327 H 0.04426 0.89929 0.46855 0.0
C1328 C 0.39413 0.31829 0.13091 0.0
C1329 C 0.37899 0.32598 0.1369 0.0
C1330 C 0.39527 0.30116 0.13076 0.0
C1331 C 0.37145 0.26339 0.15934 0.0
H1332 H 0.40189 0.24199 0.08347 0.0
C1333 C 0.36547 0.19552 0.11404 0.0
C1334 C 0.37939 0.18578 0.12038 0.0
C1335 C 0.3665 0.21255 0.11624 0.0
C1336 C 0.39341 0.24782 0.10501 0.0
H1337 H 0.35331 0.32196 0.14915 0.0
H1338 H 0.355 0.29231 0.14693 0.0
H1339 H 0.40158 0.27182 0.0881 0.0
H1340 H 0.40549 0.18616 0.1309 0.0
H1341 H 0.40744 0.21619 0.13348 0.0
H1342 H 0.36287 0.23937 0.17478 0.0
C1343 C 0.36616 0.29925 0.14314 0.0
C1344 C 0.39327 0.26494 0.10792 0.0
C1345 C 0.3651 0.31629 0.14391 0.0
C1346 C 0.39457 0.19343 0.12641 0.0
C1347 C 0.39567 0.21056 0.12782 0.0
C1348 C 0.37141 0.24635 0.15582 0.0
C1349 C 0.38125 0.29134 0.13645 0.0
C1350 C 0.38215 0.27302 0.13485 0.0
C1351 C 0.38157 0.22027 0.1237 0.0
C1352 C 0.38228 0.23837 0.12839 0.0
H1353 H 0.40504 0.32553 0.12602 0.0
H1354 H 0.40717 0.29564 0.12637 0.0
H1355 H 0.36303 0.26896 0.18139 0.0
H1356 H 0.35368 0.1899 0.10846 0.0
H1357 H 0.35548 0.21971 0.11224 0.0
C1358 C 0.19593 0.64907 0.90981 0.0
C1359 C 0.18637 0.63506 0.90335 0.0
C1360 C 0.213 0.64821 0.90814 0.0
C1361 C 0.24711 0.62142 0.8699 0.0
H1362 H 0.27341 0.65191 0.93427 0.0
C1363 C 0.31865 0.61971 0.88181 0.0
C1364 C 0.32639 0.63483 0.87557 0.0
C1365 C 0.30155 0.61879 0.88481 0.0
C1366 C 0.26622 0.64335 0.91598 0.0
H1367 H 0.1871 0.60905 0.89181 0.0
H1368 H 0.21695 0.60727 0.89095 0.0
H1369 H 0.24389 0.65174 0.9433 0.0
H1370 H 0.32242 0.66065 0.86499 0.0
H1371 H 0.29265 0.65916 0.87143 0.0
H1372 H 0.26974 0.6128 0.84362 0.0
C1373 C 0.21134 0.61909 0.89578 0.0
C1374 C 0.24922 0.64329 0.92091 0.0
C1375 C 0.19423 0.62003 0.89679 0.0
C1376 C 0.31674 0.6489 0.87068 0.0
C1377 C 0.29973 0.64804 0.87443 0.0
C1378 C 0.26417 0.62129 0.86556 0.0
C1379 C 0.22103 0.63322 0.90081 0.0
C1380 C 0.23932 0.63251 0.89746 0.0
C1381 C 0.29194 0.63302 0.88205 0.0
C1382 C 0.27389 0.63243 0.88808 0.0
H1383 H 0.19014 0.6608 0.9149 0.0
H1384 H 0.21983 0.65945 0.91145 0.0
H1385 H 0.24003 0.61308 0.85071 0.0
H1386 H 0.32586 0.60868 0.88523 0.0
H1387 H 0.29587 0.60704 0.89056 0.0
C1388 C 0.62145 0.81849 0.11735 0.0
C1389 C 0.63637 0.82657 0.11086 0.0
C1390 C 0.62087 0.80138 0.11991 0.0
C1391 C 0.64601 0.76368 0.09972 0.0
H1392 H 0.61498 0.74367 0.17661 0.0
C1393 C 0.651 0.69623 0.1526 0.0
C1394 C 0.63681 0.68677 0.14774 0.0
C1395 C 0.65038 0.71325 0.14848 0.0
C1396 C 0.62365 0.74909 0.15485 0.0
H1397 H 0.66228 0.82321 0.10103 0.0
H1398 H 0.66152 0.79355 0.1072 0.0
H1399 H 0.61503 0.77328 0.16736 0.0
H1400 H 0.61075 0.68765 0.13671 0.0
H1401 H 0.60952 0.71758 0.13092 0.0
H1402 H 0.65498 0.73944 0.0886 0.0
C1403 C 0.65011 0.80019 0.10927 0.0
C1404 C 0.62363 0.7661 0.14924 0.0
C1405 C 0.65062 0.81724 0.10604 0.0
C1406 C 0.62184 0.69471 0.14067 0.0
C1407 C 0.62116 0.71179 0.13731 0.0
C1408 C 0.64621 0.74674 0.10593 0.0
C1409 C 0.63524 0.79195 0.11658 0.0
C1410 C 0.63486 0.7737 0.12165 0.0
C1411 C 0.63549 0.72122 0.1403 0.0
C1412 C 0.63507 0.73925 0.13364 0.0
H1413 H 0.61028 0.82544 0.12109 0.0
H1414 H 0.60912 0.7956 0.12461 0.0
H1415 H 0.6546 0.76887 0.07741 0.0
H1416 H 0.66267 0.69038 0.15834 0.0
H1417 H 0.66158 0.7202 0.15148 0.0
C1418 C 0.69612 0.36313 0.84908 0.0
C1419 C 0.68655 0.37716 0.855 0.0
C1420 C 0.71318 0.36399 0.85115 0.0
C1421 C 0.74715 0.3909 0.88963 0.0
H1422 H 0.77369 0.36014 0.82672 0.0
C1423 C 0.81876 0.39246 0.87915 0.0
C1424 C 0.82644 0.37735 0.88606 0.0
C1425 C 0.80167 0.3934 0.87584 0.0
C1426 C 0.76643 0.36878 0.84461 0.0
H1427 H 0.68723 0.40321 0.86594 0.0
H1428 H 0.71708 0.40498 0.8675 0.0
H1429 H 0.7442 0.36031 0.8169 0.0
H1430 H 0.82239 0.3516 0.89753 0.0
H1431 H 0.79264 0.35312 0.89053 0.0
H1432 H 0.76969 0.3996 0.91627 0.0
C1433 C 0.71149 0.39314 0.8628 0.0
C1434 C 0.74945 0.36883 0.83922 0.0
C1435 C 0.69438 0.39221 0.86139 0.0
C1436 C 0.81675 0.36333 0.89134 0.0
C1437 C 0.79976 0.36421 0.88727 0.0
C1438 C 0.7642 0.39103 0.89441 0.0
C1439 C 0.72119 0.37899 0.85834 0.0
C1440 C 0.73947 0.37971 0.86214 0.0
C1441 C 0.79202 0.3792 0.87893 0.0
C1442 C 0.774 0.37979 0.87243 0.0
H1443 H 0.69035 0.35137 0.8441 0.0
H1444 H 0.72003 0.35273 0.84827 0.0
H1445 H 0.74001 0.39932 0.90842 0.0
H1446 H 0.826 0.40344 0.87541 0.0
H1447 H 0.79603 0.40512 0.86953 0.0
C1448 C 0.86519 0.69523 0.61163 0.0
C1449 C 0.87906 0.68557 0.61905 0.0
C1450 C 0.86621 0.71228 0.61245 0.0
C1451 C 0.89306 0.74659 0.64885 0.0
H1452 H 0.86282 0.77223 0.5817 0.0
C1453 C 0.89414 0.81815 0.63247 0.0
C1454 C 0.87892 0.82572 0.63847 0.0
C1455 C 0.89531 0.80104 0.63033 0.0
C1456 C 0.87132 0.76523 0.60074 0.0
H1457 H 0.90506 0.68607 0.63068 0.0
H1458 H 0.90712 0.71597 0.63041 0.0
H1459 H 0.86313 0.74265 0.57454 0.0
H1460 H 0.85318 0.82143 0.64959 0.0
H1461 H 0.85509 0.79165 0.64447 0.0
H1462 H 0.90148 0.7695 0.67396 0.0
C1463 C 0.89526 0.71043 0.62565 0.0
C1464 C 0.87145 0.7482 0.5969 0.0
C1465 C 0.89416 0.6933 0.62545 0.0
C1466 C 0.865 0.81589 0.64395 0.0
C1467 C 0.8661 0.79888 0.64103 0.0
C1468 C 0.89312 0.7637 0.65208 0.0
C1469 C 0.88124 0.72021 0.61962 0.0
C1470 C 0.88208 0.73854 0.6215 0.0
C1471 C 0.88122 0.79125 0.63371 0.0
C1472 C 0.88204 0.77318 0.6286 0.0
H1473 H 0.85343 0.68954 0.6061 0.0
H1474 H 0.85505 0.71919 0.60837 0.0
H1475 H 0.90131 0.7397 0.66877 0.0
H1476 H 0.90506 0.82548 0.62868 0.0
H1477 H 0.90712 0.79548 0.62481 0.0
C1478 C 0.81824 0.15046 0.35519 0.0
C1479 C 0.82757 0.1362 0.36014 0.0
C1480 C 0.80118 0.14993 0.35802 0.0
C1481 C 0.76699 0.12333 0.39699 0.0
H1482 H 0.74049 0.1551 0.33721 0.0
C1483 C 0.69554 0.12204 0.38707 0.0
C1484 C 0.68772 0.137 0.39508 0.0
C1485 C 0.71263 0.12124 0.38399 0.0
C1486 C 0.74775 0.1462 0.35429 0.0
H1487 H 0.82641 0.11009 0.37 0.0
H1488 H 0.79656 0.1089 0.37272 0.0
H1489 H 0.76992 0.15464 0.32613 0.0
H1490 H 0.69154 0.16268 0.40777 0.0
H1491 H 0.72137 0.1614 0.40131 0.0
H1492 H 0.7445 0.11462 0.4239 0.0
C1493 C 0.80235 0.12067 0.3683 0.0
C1494 C 0.76469 0.14597 0.34815 0.0
C1495 C 0.81947 0.12126 0.36618 0.0
C1496 C 0.6973 0.15103 0.40127 0.0
C1497 C 0.71432 0.1503 0.39739 0.0
C1498 C 0.74997 0.12338 0.40247 0.0
C1499 C 0.79292 0.13505 0.36499 0.0
C1500 C 0.77466 0.13467 0.36981 0.0
C1501 C 0.72217 0.13544 0.38818 0.0
C1502 C 0.7402 0.13496 0.38159 0.0
H1503 H 0.82423 0.16213 0.35051 0.0
H1504 H 0.79456 0.16135 0.35598 0.0
H1505 H 0.77412 0.11461 0.4149 0.0
H1506 H 0.6884 0.11107 0.3821 0.0
H1507 H 0.71834 0.10963 0.37682 0.0
C1508 C 0.11992 0.31828 0.60767 0.0
C1509 C 0.13489 0.32631 0.60152 0.0
C1510 C 0.1192 0.30117 0.60907 0.0
C1511 C 0.14404 0.26355 0.58582 0.0
H1512 H 0.11334 0.24287 0.66245 0.0
C1513 C 0.15024 0.19634 0.63823 0.0
C1514 C 0.13637 0.18647 0.63269 0.0
C1515 C 0.14916 0.21331 0.63405 0.0
C1516 C 0.12189 0.24849 0.6407 0.0
H1517 H 0.16076 0.32284 0.59116 0.0
H1518 H 0.15976 0.29315 0.59534 0.0
H1519 H 0.11327 0.27257 0.65465 0.0
H1520 H 0.11031 0.18657 0.62148 0.0
H1521 H 0.10827 0.21651 0.6154 0.0
H1522 H 0.15306 0.23943 0.57339 0.0
C1523 C 0.14842 0.29985 0.59799 0.0
C1524 C 0.12182 0.26554 0.63595 0.0
C1525 C 0.14906 0.31692 0.59592 0.0
C1526 C 0.12119 0.19395 0.62539 0.0
C1527 C 0.12004 0.21102 0.62197 0.0
C1528 C 0.14429 0.24657 0.59117 0.0
C1529 C 0.13349 0.29166 0.60487 0.0
C1530 C 0.13298 0.27337 0.60863 0.0
C1531 C 0.1341 0.22085 0.62535 0.0
C1532 C 0.1333 0.23885 0.61885 0.0
H1533 H 0.10882 0.32529 0.61199 0.0
H1534 H 0.10741 0.29543 0.61355 0.0
H1535 H 0.15255 0.26892 0.56362 0.0
H1536 H 0.16202 0.19085 0.64476 0.0
H1537 H 0.16014 0.22058 0.63754 0.0
C1538 C 0.19392 0.89251 0.35828 0.0
C1539 C 0.18602 0.87745 0.35259 0.0
C1540 C 0.21103 0.89339 0.35954 0.0
C1541 C 0.24889 0.86881 0.33677 0.0
H1542 H 0.26926 0.89982 0.4129 0.0
C1543 C 0.31622 0.86327 0.3886 0.0
C1544 C 0.32594 0.87727 0.38342 0.0
C1545 C 0.29923 0.86417 0.38448 0.0
C1546 C 0.26374 0.89118 0.39128 0.0
H1547 H 0.18971 0.85159 0.34273 0.0
H1548 H 0.2194 0.85286 0.34657 0.0
H1549 H 0.23958 0.89965 0.40503 0.0
H1550 H 0.32554 0.90337 0.37282 0.0
H1551 H 0.29558 0.90509 0.36679 0.0
H1552 H 0.27309 0.85996 0.3245 0.0
C1553 C 0.2126 0.86416 0.34904 0.0
C1554 C 0.24669 0.89111 0.3865 0.0
C1555 C 0.19553 0.86335 0.34714 0.0
C1556 C 0.31828 0.89239 0.37649 0.0
C1557 C 0.30119 0.89336 0.3731 0.0
C1558 C 0.26587 0.8687 0.34214 0.0
C1559 C 0.22067 0.87917 0.3556 0.0
C1560 C 0.23896 0.87983 0.35935 0.0
C1561 C 0.29152 0.87918 0.37614 0.0
C1562 C 0.27349 0.87981 0.36964 0.0
H1563 H 0.18682 0.90356 0.36246 0.0
H1564 H 0.21668 0.90523 0.36375 0.0
H1565 H 0.2436 0.8602 0.31472 0.0
H1566 H 0.32184 0.85152 0.39478 0.0
H1567 H 0.29209 0.85309 0.38771 0.0
C1568 C 0.20556 0.13587 0.7908 0.0
C1569 C 0.205 0.12444 0.75759 0.0
C1570 C 0.21826 0.13562 0.82052 0.0
C1571 C 0.25081 0.10898 0.86558 0.0
H1572 H 0.26862 0.15005 0.90543 0.0
C1573 C 0.29704 0.11263 0.00531 0.0
C1574 C 0.30986 0.12405 1.0021 0.0
C1575 C 0.28427 0.11245 0.97565 0.0
C1576 C 0.26389 0.13845 0.89451 0.0
H1577 H 0.21767 0.10378 0.7299 0.0
H1578 H 0.23977 0.10332 0.7817 0.0
H1579 H 0.24679 0.15014 0.85313 0.0
H1580 H 0.31933 0.14395 0.96391 0.0
H1581 H 0.29717 0.14368 0.91269 0.0
H1582 H 0.26814 0.0973 0.90653 0.0
C1583 C 0.23023 0.1124 0.78504 0.0
C1584 C 0.25119 0.1385 0.86477 0.0
C1585 C 0.21752 0.11266 0.75522 0.0
C1586 C 0.30955 0.1352 0.96816 0.0
C1587 C 0.29679 0.13504 0.93861 0.0
C1588 C 0.26349 0.10893 0.89547 0.0
C1589 C 0.23082 0.1239 0.81809 0.0
C1590 C 0.24445 0.12377 0.8498 0.0
C1591 C 0.28393 0.12369 0.9419 0.0
C1592 C 0.27026 0.12367 0.91033 0.0
H1593 H 0.19601 0.14491 0.79439 0.0
H1594 H 0.21808 0.14449 0.84589 0.0
H1595 H 0.24585 0.09739 0.85522 0.0
H1596 H 0.29671 0.10396 0.03119 0.0
H1597 H 0.27451 0.10366 0.97964 0.0
C1598 C 0.11285 0.80952 0.21114 0.0
C1599 C 0.12326 0.81005 0.24661 0.0
C1600 C 0.11311 0.79625 0.18323 0.0
C1601 C 0.13895 0.76084 0.14995 0.0
H1602 H 0.09918 0.74705 0.09378 0.0
C1603 C 0.1349 0.7015 0.04971 0.0
C1604 C 0.12589 0.702 0.0118 0.0
C1605 C 0.13485 0.71476 0.07772 0.0
C1606 C 0.11044 0.75084 0.10881 0.0
H1607 H 0.14191 0.79654 0.2805 0.0
H1608 H 0.14195 0.77315 0.23277 0.0
H1609 H 0.09822 0.76925 0.14494 0.0
H1610 H 0.10985 0.71707 0.97369 0.0
H1611 H 0.10976 0.74025 0.02258 0.0
H1612 H 0.15107 0.74218 0.11417 0.0
C1613 C 0.13382 0.78325 0.22594 0.0
C1614 C 0.10991 0.76364 0.13825 0.0
C1615 C 0.13364 0.79661 0.25381 0.0
C1616 C 0.117 0.71627 1.00243 0.0
C1617 C 0.11682 0.7295 0.0307 0.0
C1618 C 0.13944 0.74795 0.12075 0.0
C1619 C 0.12366 0.78291 0.18995 0.0
C1620 C 0.12417 0.76891 0.15923 0.0
C1621 C 0.12569 0.7289 0.06886 0.0
C1622 C 0.1252 0.74279 0.09966 0.0
H1623 H 0.10444 0.81943 0.20472 0.0
H1624 H 0.1052 0.79665 0.15582 0.0
H1625 H 0.15026 0.76465 0.16465 0.0
H1626 H 0.14202 0.6908 0.05782 0.0
H1627 H 0.14173 0.71377 0.10684 0.0
C1628 C 0.70305 0.87693 0.96364 0.0
C1629 C 0.70301 0.88673 1.00019 0.0
C1630 C 0.71649 0.8768 0.93622 0.0
C1631 C 0.7521 0.90143 0.90264 0.0
H1632 H 0.76678 0.86076 0.85266 0.0
C1633 C 0.7977 0.89898 0.7613 0.0
C1634 C 0.80997 0.88689 0.7624 0.0
C1635 C 0.78502 0.89908 0.79123 0.0
C1636 C 0.76292 0.87223 0.86646 0.0
H1637 H 0.7173 0.90401 0.03652 0.0
H1638 H 0.74083 0.9038 0.98857 0.0
H1639 H 0.7445 0.86051 0.90393 0.0
H1640 H 0.81847 0.86565 0.79724 0.0
H1641 H 0.79631 0.86569 0.84853 0.0
H1642 H 0.77055 0.91314 0.86507 0.0
C1643 C 0.73036 0.89625 0.9811 0.0
C1644 C 0.75002 0.8721 0.89564 0.0
C1645 C 0.71693 0.89626 0.00883 0.0
C1646 C 0.80912 0.87495 0.79448 0.0
C1647 C 0.7964 0.875 0.82416 0.0
C1648 C 0.76492 0.90157 0.87312 0.0
C1649 C 0.73029 0.88656 0.94431 0.0
C1650 C 0.7444 0.8867 0.91411 0.0
C1651 C 0.78416 0.88706 0.823 0.0
C1652 C 0.77051 0.88697 0.85459 0.0
H1653 H 0.69262 0.86932 0.95615 0.0
H1654 H 0.71591 0.86929 0.90812 0.0
H1655 H 0.74802 0.91292 0.91589 0.0
H1656 H 0.79771 0.90825 0.73688 0.0
H1657 H 0.77571 0.90844 0.78897 0.0
C1658 C 0.87822 0.20259 0.21436 0.0
C1659 C 0.88777 0.20285 0.25138 0.0
C1660 C 0.87805 0.21594 0.18658 0.0
C1661 C 0.90243 0.25165 0.15285 0.0
H1662 H 0.86188 0.26592 0.10145 0.0
C1663 C 0.89949 0.30874 0.04333 0.0
C1664 C 0.88843 0.30866 0.00927 0.0
C1665 C 0.89942 0.29617 0.07355 0.0
C1666 C 0.87339 0.26198 0.1149 0.0
H1667 H 0.90453 0.21756 0.28818 0.0
H1668 H 0.90429 0.2409 0.23951 0.0
H1669 H 0.86159 0.24378 0.15296 0.0
H1670 H 0.86886 0.2949 0.97999 0.0
H1671 H 0.86894 0.27286 0.03185 0.0
H1672 H 0.91432 0.26957 0.11422 0.0
C1673 C 0.89695 0.23029 0.232 0.0
C1674 C 0.87319 0.24928 0.14471 0.0
C1675 C 0.89698 0.21697 0.26012 0.0
C1676 C 0.87741 0.29552 0.00606 0.0
C1677 C 0.87742 0.28287 0.03606 0.0
C1678 C 0.90266 0.26426 0.12272 0.0
C1679 C 0.88752 0.22993 0.19474 0.0
C1680 C 0.88771 0.24389 0.16403 0.0
C1681 C 0.88835 0.28303 0.07052 0.0
C1682 C 0.88814 0.26962 0.1031 0.0
H1683 H 0.87086 0.192 0.20677 0.0
H1684 H 0.87074 0.21514 0.15813 0.0
H1685 H 0.91388 0.24768 0.16661 0.0
H1686 H 0.90799 0.31877 0.04725 0.0
H1687 H 0.90785 0.29698 0.09982 0.0
C1688 C 0.21604 0.39608 0.50237 0.0
C1689 C 0.20202 0.38678 0.4932 0.0
C1690 C 0.22948 0.39614 0.47469 0.0
C1691 C 0.24908 0.37234 0.38868 0.0
H1692 H 0.26995 0.41336 0.35952 0.0
C1693 C 0.30865 0.3753 0.28936 0.0
C1694 C 0.30959 0.38722 0.25723 0.0
C1695 C 0.29581 0.37532 0.31871 0.0
C1696 C 0.26422 0.40181 0.36719 0.0
H1697 H 0.19145 0.36985 0.44819 0.0
H1698 H 0.2148 0.3699 0.40029 0.0
H1699 H 0.24727 0.41309 0.40995 0.0
H1700 H 0.29736 0.40854 0.23136 0.0
H1701 H 0.27519 0.40872 0.28298 0.0
H1702 H 0.26593 0.36105 0.34581 0.0
C1703 C 0.21543 0.3772 0.42876 0.0
C1704 C 0.25132 0.40163 0.39646 0.0
C1705 C 0.20196 0.37728 0.45611 0.0
C1706 C 0.2973 0.39928 0.25581 0.0
C1707 C 0.28452 0.39938 0.28546 0.0
C1708 C 0.26208 0.3725 0.35979 0.0
C1709 C 0.22934 0.38673 0.43744 0.0
C1710 C 0.24349 0.3869 0.40742 0.0
C1711 C 0.28356 0.38735 0.31721 0.0
C1712 C 0.26979 0.38723 0.34844 0.0
H1713 H 0.21648 0.4036 0.53049 0.0
H1714 H 0.24003 0.40351 0.4826 0.0
H1715 H 0.24345 0.36075 0.39656 0.0
H1716 H 0.318 0.36602 0.2924 0.0
H1717 H 0.29564 0.36602 0.34308 0.0
C1718 C 0.39902 0.79561 0.50442 0.0
C1719 C 0.38736 0.80823 0.50686 0.0
C1720 C 0.39923 0.78292 0.53433 0.0
C1721 C 0.3732 0.76234 0.6152 0.0
H1722 H 0.41441 0.74504 0.65575 0.0
C1723 C 0.37635 0.70426 0.71991 0.0
C1724 C 0.38779 0.70383 0.75316 0.0
C1725 C 0.37647 0.71695 0.69012 0.0
C1726 C 0.40278 0.74979 0.64506 0.0
H1727 H 0.36701 0.81742 0.54383 0.0
H1728 H 0.36736 0.7954 0.59557 0.0
H1729 H 0.41431 0.76721 0.60408 0.0
H1730 H 0.4083 0.71673 0.78085 0.0
H1731 H 0.4085 0.73884 0.72897 0.0
H1732 H 0.36165 0.74517 0.65667 0.0
C1733 C 0.37618 0.79511 0.57006 0.0
C1734 C 0.40272 0.7624 0.61494 0.0
C1735 C 0.37597 0.80778 0.54021 0.0
C1736 C 0.39941 0.71649 0.75551 0.0
C1737 C 0.39953 0.7292 0.72564 0.0
C1738 C 0.37326 0.74972 0.64521 0.0
C1739 C 0.3878 0.78246 0.56761 0.0
C1740 C 0.38792 0.76889 0.59956 0.0
C1741 C 0.38804 0.72964 0.69251 0.0
C1742 C 0.38804 0.74323 0.66062 0.0
H1743 H 0.40787 0.79538 0.47898 0.0
H1744 H 0.40823 0.77331 0.53094 0.0
H1745 H 0.36155 0.76685 0.6039 0.0
H1746 H 0.36743 0.69459 0.71635 0.0
H1747 H 0.36761 0.71663 0.6647 0.0
C1748 C 0.7037 0.63568 0.29576 0.0
C1749 C 0.70354 0.62586 0.25926 0.0
C1750 C 0.71709 0.63559 0.32333 0.0
C1751 C 0.75219 0.61036 0.35754 0.0
H1752 H 0.76759 0.65085 0.40705 0.0
C1753 C 0.79774 0.61237 0.49922 0.0
C1754 C 0.81018 0.62427 0.49799 0.0
C1755 C 0.7851 0.61236 0.46916 0.0
C1756 C 0.76352 0.63942 0.39339 0.0
H1757 H 0.71757 0.60827 0.22321 0.0
H1758 H 0.74101 0.60809 0.27144 0.0
H1759 H 0.74537 0.65141 0.35565 0.0
H1760 H 0.81909 0.64522 0.46264 0.0
H1761 H 0.79702 0.64535 0.41116 0.0
H1762 H 0.77038 0.59838 0.39539 0.0
C1763 C 0.73067 0.61584 0.27874 0.0
C1764 C 0.75066 0.63973 0.36413 0.0
C1765 C 0.7173 0.61606 0.25085 0.0
C1766 C 0.8096 0.63608 0.46554 0.0
C1767 C 0.79692 0.63613 0.43575 0.0
C1768 C 0.76497 0.61003 0.38715 0.0
C1769 C 0.73072 0.62557 0.31546 0.0
C1770 C 0.74478 0.62521 0.3458 0.0
C1771 C 0.78447 0.6243 0.43712 0.0
C1772 C 0.77083 0.62456 0.4055 0.0
H1773 H 0.6934 0.6435 0.30309 0.0
H1774 H 0.71661 0.64315 0.35137 0.0
H1775 H 0.74791 0.59892 0.3444 0.0
H1776 H 0.79756 0.60319 0.52388 0.0
H1777 H 0.77563 0.60317 0.47155 0.0
C1778 C 0.61758 0.21703 0.50001 0.0
C1779 C 0.62665 0.20282 0.50878 0.0
C1780 C 0.61736 0.23016 0.5286 0.0
C1781 C 0.62629 0.24036 0.64176 0.0
H1782 H 0.62398 0.28502 0.60143 0.0
C1783 C 0.63402 0.29668 0.75291 0.0
C1784 C 0.62383 0.31026 0.74563 0.0
C1785 C 0.63426 0.28344 0.72465 0.0
C1786 C 0.62447 0.27262 0.61332 0.0
H1787 H 0.64317 0.19169 0.55401 0.0
H1788 H 0.64302 0.21452 0.6032 0.0
H1789 H 0.62486 0.26263 0.55076 0.0
H1790 H 0.60532 0.31998 0.70336 0.0
H1791 H 0.6059 0.29714 0.65426 0.0
H1792 H 0.62608 0.25043 0.70436 0.0
C1793 C 0.63565 0.21541 0.57488 0.0
C1794 C 0.62494 0.25972 0.58415 0.0
C1795 C 0.63578 0.20228 0.54648 0.0
C1796 C 0.61365 0.31 0.7097 0.0
C1797 C 0.61396 0.29684 0.68141 0.0
C1798 C 0.62592 0.25327 0.67092 0.0
C1799 C 0.62631 0.22951 0.56668 0.0
C1800 C 0.62584 0.24336 0.59786 0.0
C1801 C 0.62437 0.28342 0.6882 0.0
C1802 C 0.62495 0.2696 0.65715 0.0
H1803 H 0.61027 0.21783 0.47156 0.0
H1804 H 0.60985 0.24066 0.52121 0.0
H1805 H 0.62667 0.22798 0.6538 0.0
H1806 H 0.64218 0.29644 0.77985 0.0
H1807 H 0.64254 0.27339 0.73081 0.0
loop_
_geom_bond_atom_site_label_1
_geom_bond_atom_site_label_2
_geom_bond_distance
_geom_bond_site_symmetry_2
_ccdc_geom_bond_type
C0 C1 1.443 . S
C0 N4 1.376 . S
C0 C38 1.389 . S
C1 C0 1.443 . S
C1 C2 1.340 . S
C1 H41 0.951 . S
C2 C1 1.340 . S
C2 C3 1.439 . S
C2 H42 0.950 . S
C3 C2 1.439 . S
C3 N4 1.374 . S
C3 C37 1.395 . S
N4 C0 1.376 . S
N4 C3 1.374 . S
N4 Co5 2.008 . S
Co5 N4 2.008 . S
Co5 N6 1.995 . S
Co5 N11 2.008 . S
Co5 N16 1.995 . S
Co5 N21 2.282 . S
Co5 N27 2.282 . S
N6 Co5 1.995 . S
N6 C7 1.376 . S
N6 C10 1.383 . S
C7 N6 1.376 . S
C7 C8 1.446 . S
C7 C37 1.391 . S
C8 C7 1.446 . S
C8 C9 1.339 . S
C8 H43 0.949 . S
C9 C8 1.339 . S
C9 C10 1.439 . S
C9 H44 0.950 . S
C10 N6 1.383 . S
C10 C9 1.439 . S
C10 C39 1.392 . S
N11 Co5 2.008 . S
N11 C12 1.376 . S
N11 C15 1.374 . S
C12 N11 1.376 . S
C12 C13 1.443 . S
C12 C39 1.389 . S
C13 C12 1.443 . S
C13 C14 1.340 . S
C13 H45 0.951 . S
C14 C13 1.340 . S
C14 C15 1.439 . S
C14 H46 0.936 1_554 S
C15 N11 1.374 . S
C15 C14 1.439 . S
C15 C40 1.395 . S
N16 Co5 1.995 . S
N16 C17 1.376 . S
N16 C20 1.383 . S
C17 N16 1.376 . S
C17 C18 1.446 . S
C17 C40 1.391 . S
C18 C17 1.446 . S
C18 C19 1.339 . S
C18 H47 0.949 . S
C19 C18 1.339 . S
C19 C20 1.439 . S
C19 H48 0.950 . S
C20 N16 1.383 . S
C20 C19 1.439 . S
C20 C38 1.392 . S
N21 Co5 2.282 . S
N21 C24 1.332 . S
N21 C26 1.332 . S
C22 C23 1.386 . S
C22 C25 1.388 . S
C23 C22 1.386 . S
C23 C24 1.382 . S
C23 H49 0.950 . S
C24 N21 1.332 . S
C24 C23 1.382 . S
C24 H35 0.952 . S
C25 C22 1.388 . S
C25 C26 1.382 . S
C25 H50 0.950 . S
C26 N21 1.332 . S
C26 C25 1.382 . S
C26 H36 0.948 . S
N27 Co5 2.282 . S
N27 C31 1.332 . S
N27 C32 1.332 . S
C28 C29 1.388 . S
C28 C32 1.382 . S
C28 H51 0.950 . S
C29 C28 1.388 . S
C29 C30 1.386 . S
C30 C29 1.386 . S
C30 C31 1.382 . S
C30 H52 0.950 . S
C31 N27 1.332 . S
C31 C30 1.382 . S
C31 H33 0.952 . S
C32 N27 1.332 . S
C32 C28 1.382 . S
C32 H34 0.948 . S
H33 C31 0.952 . S
H34 C32 0.948 . S
H35 C24 0.952 . S
H36 C26 0.948 . S
C37 C3 1.395 . S
C37 C7 1.391 . S
C38 C0 1.389 . S
C38 C20 1.392 . S
C39 C10 1.392 . S
C39 C12 1.389 . S
C40 C15 1.395 . S
C40 C17 1.391 . S
H41 C1 0.951 . S
H42 C2 0.950 . S
H43 C8 0.949 . S
H44 C9 0.950 . S
H45 C13 0.951 . S
H46 C14 0.936 1_556 S
H47 C18 0.949 . S
H48 C19 0.950 . S
H49 C23 0.950 . S
H50 C25 0.950 . S
H51 C28 0.950 . S
H52 C30 0.950 . S
C53 C54 1.443 . S
C53 N57 1.376 . S
C53 C91 1.389 . S
C54 C53 1.443 . S
C54 C55 1.340 . S
C54 H94 0.951 . S
C55 C54 1.340 . S
C55 C56 1.439 . S
C55 H95 0.950 . S
C56 C55 1.439 . S
C56 N57 1.374 . S
C56 C90 1.395 . S
N57 C53 1.376 . S
N57 C56 1.374 . S
N57 Co58 2.008 . S
Co58 N57 2.008 . S
Co58 N59 1.995 . S
Co58 N64 2.008 . S
Co58 N69 1.995 . S
Co58 N74 2.282 . S
Co58 N80 2.282 . S
N59 Co58 1.995 . S
N59 C60 1.376 . S
N59 C63 1.383 . S
C60 N59 1.376 . S
C60 C61 1.446 . S
C60 C90 1.391 . S
C61 C60 1.446 . S
C61 C62 1.339 . S
C61 H96 0.949 . S
C62 C61 1.339 . S
C62 C63 1.439 . S
C62 H97 0.950 . S
C63 N59 1.383 . S
C63 C62 1.439 . S
C63 C92 1.392 . S
N64 Co58 2.008 . S
N64 C65 1.376 . S
N64 C68 1.374 . S
C65 N64 1.376 . S
C65 C66 1.443 . S
C65 C92 1.389 . S
C66 C65 1.443 . S
C66 C67 1.340 . S
C66 H98 0.951 . S
C67 C66 1.340 . S
C67 C68 1.439 . S
C67 H99 0.950 . S
C68 N64 1.374 . S
C68 C67 1.439 . S
C68 C93 1.395 . S
N69 Co58 1.995 . S
N69 C70 1.376 . S
N69 C73 1.383 . S
C70 N69 1.376 . S
C70 C71 1.446 . S
C70 C93 1.391 . S
C71 C70 1.446 . S
C71 C72 1.339 . S
C71 H100 0.949 . S
C72 C71 1.339 . S
C72 C73 1.439 . S
C72 H101 0.950 . S
C73 N69 1.383 . S
C73 C72 1.439 . S
C73 C91 1.392 . S
N74 Co58 2.282 . S
N74 C77 1.332 . S
N74 C79 1.332 . S
C75 C76 1.386 . S
C75 C78 1.388 . S
C76 C75 1.386 . S
C76 C77 1.382 . S
C76 H102 0.950 . S
C77 N74 1.332 . S
C77 C76 1.382 . S
C77 H88 0.952 . S
C78 C75 1.388 . S
C78 C79 1.382 . S
C78 H103 0.950 . S
C79 N74 1.332 . S
C79 C78 1.382 . S
C79 H89 0.948 . S
N80 Co58 2.282 . S
N80 C84 1.332 . S
N80 C85 1.332 . S
C81 C82 1.388 . S
C81 C85 1.382 . S
C81 H104 0.950 . S
C82 C81 1.388 . S
C82 C83 1.386 . S
C83 C82 1.386 . S
C83 C84 1.382 . S
C83 H105 0.950 . S
C84 N80 1.332 . S
C84 C83 1.382 . S
C84 H86 0.952 . S
C85 N80 1.332 . S
C85 C81 1.382 . S
C85 H87 0.948 . S
H86 C84 0.952 . S
H87 C85 0.948 . S
H88 C77 0.952 . S
H89 C79 0.948 . S
C90 C56 1.395 . S
C90 C60 1.391 . S
C91 C53 1.389 . S
C91 C73 1.392 . S
C92 C63 1.392 . S
C92 C65 1.389 . S
C93 C68 1.395 . S
C93 C70 1.391 . S
H94 C54 0.951 . S
H95 C55 0.950 . S
H96 C61 0.949 . S
H97 C62 0.950 . S
H98 C66 0.951 . S
H99 C67 0.950 . S
H100 C71 0.949 . S
H101 C72 0.950 . S
H102 C76 0.950 . S
H103 C78 0.950 . S
H104 C81 0.950 . S
H105 C83 0.950 . S
C106 C107 1.443 . S
C106 N110 1.376 . S
C106 C144 1.389 . S
C107 C106 1.443 . S
C107 C108 1.340 . S
C107 H147 0.951 . S
C108 C107 1.340 . S
C108 C109 1.439 . S
C108 H148 0.950 . S
C109 C108 1.439 . S
C109 N110 1.374 . S
C109 C143 1.395 . S
N110 C106 1.376 . S
N110 C109 1.374 . S
N110 Co111 2.008 . S
Co111 N110 2.008 . S
Co111 N112 1.995 . S
Co111 N117 2.008 . S
Co111 N122 1.995 . S
Co111 N127 2.282 . S
Co111 N133 2.282 . S
N112 Co111 1.995 . S
N112 C113 1.376 . S
N112 C116 1.383 . S
C113 N112 1.376 . S
C113 C114 1.446 . S
C113 C143 1.391 . S
C114 C113 1.446 . S
C114 C115 1.339 . S
C114 H149 0.949 . S
C115 C114 1.339 . S
C115 C116 1.439 . S
C115 H150 0.950 . S
C116 N112 1.383 . S
C116 C115 1.439 . S
C116 C145 1.392 . S
N117 Co111 2.008 . S
N117 C118 1.376 . S
N117 C121 1.374 . S
C118 N117 1.376 . S
C118 C119 1.443 . S
C118 C145 1.389 . S
C119 C118 1.443 . S
C119 C120 1.340 . S
C119 H151 0.951 . S
C120 C119 1.340 . S
C120 C121 1.439 . S
C120 H152 0.937 1_554 S
C121 N117 1.374 . S
C121 C120 1.439 . S
C121 C146 1.395 . S
N122 Co111 1.995 . S
N122 C123 1.376 . S
N122 C126 1.383 . S
C123 N122 1.376 . S
C123 C124 1.446 . S
C123 C146 1.391 . S
C124 C123 1.446 . S
C124 C125 1.339 . S
C124 H153 0.949 . S
C125 C124 1.339 . S
C125 C126 1.439 . S
C125 H154 0.950 . S
C126 N122 1.383 . S
C126 C125 1.439 . S
C126 C144 1.392 . S
N127 Co111 2.282 . S
N127 C130 1.332 . S
N127 C132 1.332 . S
C128 C129 1.386 . S
C128 C131 1.388 . S
C129 C128 1.386 . S
C129 C130 1.382 . S
C129 H155 0.950 . S
C130 N127 1.332 . S
C130 C129 1.382 . S
C130 H141 0.952 . S
C131 C128 1.388 . S
C131 C132 1.382 . S
C131 H156 0.950 . S
C132 N127 1.332 . S
C132 C131 1.382 . S
C132 H142 0.948 . S
N133 Co111 2.282 . S
N133 C137 1.332 . S
N133 C138 1.332 . S
C134 C135 1.388 . S
C134 C138 1.382 . S
C134 H157 0.950 . S
C135 C134 1.388 . S
C135 C136 1.386 . S
C136 C135 1.386 . S
C136 C137 1.382 . S
C136 H158 0.950 . S
C137 N133 1.332 . S
C137 C136 1.382 . S
C137 H139 0.952 . S
C138 N133 1.332 . S
C138 C134 1.382 . S
C138 H140 0.948 . S
H139 C137 0.952 . S
H140 C138 0.948 . S
H141 C130 0.952 . S
H142 C132 0.948 . S
C143 C109 1.395 . S
C143 C113 1.391 . S
C144 C106 1.389 . S
C144 C126 1.392 . S
C145 C116 1.392 . S
C145 C118 1.389 . S
C146 C121 1.395 . S
C146 C123 1.391 . S
H147 C107 0.951 . S
H148 C108 0.950 . S
H149 C114 0.949 . S
H150 C115 0.950 . S
H151 C119 0.951 . S
H152 C120 0.937 1_556 S
H153 C124 0.949 . S
H154 C125 0.950 . S
H155 C129 0.950 . S
H156 C131 0.950 . S
H157 C134 0.950 . S
H158 C136 0.950 . S
C159 C160 1.443 . S
C159 N163 1.376 . S
C159 C197 1.389 . S
C160 C159 1.443 . S
C160 C161 1.340 . S
C160 H200 0.951 . S
C161 C160 1.340 . S
C161 C162 1.439 . S
C161 H201 0.950 . S
C162 C161 1.439 . S
C162 N163 1.374 . S
C162 C196 1.395 . S
N163 C159 1.376 . S
N163 C162 1.374 . S
N163 Co164 2.008 . S
Co164 N163 2.008 . S
Co164 N165 1.995 . S
Co164 N170 2.008 . S
Co164 N175 1.995 . S
Co164 N180 2.282 . S
Co164 N186 2.282 . S
N165 Co164 1.995 . S
N165 C166 1.376 . S
N165 C169 1.383 . S
C166 N165 1.376 . S
C166 C167 1.446 . S
C166 C196 1.391 . S
C167 C166 1.446 . S
C167 C168 1.339 . S
C167 H202 0.949 . S
C168 C167 1.339 . S
C168 C169 1.439 . S
C168 H203 0.950 . S
C169 N165 1.383 . S
C169 C168 1.439 . S
C169 C198 1.392 . S
N170 Co164 2.008 . S
N170 C171 1.376 . S
N170 C174 1.374 . S
C171 N170 1.376 . S
C171 C172 1.443 . S
C171 C198 1.389 . S
C172 C171 1.443 . S
C172 C173 1.340 . S
C172 H204 0.951 . S
C173 C172 1.340 . S
C173 C174 1.439 . S
C173 H205 0.950 . S
C174 N170 1.374 . S
C174 C173 1.439 . S
C174 C199 1.395 . S
N175 Co164 1.995 . S
N175 C176 1.376 . S
N175 C179 1.383 . S
C176 N175 1.376 . S
C176 C177 1.446 . S
C176 C199 1.391 . S
C177 C176 1.446 . S
C177 C178 1.339 . S
C177 H206 0.949 . S
C178 C177 1.339 . S
C178 C179 1.439 . S
C178 H207 0.950 . S
C179 N175 1.383 . S
C179 C178 1.439 . S
C179 C197 1.392 . S
N180 Co164 2.282 . S
N180 C183 1.332 . S
N180 C185 1.332 . S
C181 C182 1.386 . S
C181 C184 1.388 . S
C182 C181 1.386 . S
C182 C183 1.382 . S
C182 H208 0.950 . S
C183 N180 1.332 . S
C183 C182 1.382 . S
C183 H194 0.952 . S
C184 C181 1.388 . S
C184 C185 1.382 . S
C184 H209 0.950 . S
C185 N180 1.332 . S
C185 C184 1.382 . S
C185 H195 0.948 . S
N186 Co164 2.282 . S
N186 C190 1.332 . S
N186 C191 1.332 . S
C187 C188 1.388 . S
C187 C191 1.382 . S
C187 H210 0.950 . S
C188 C187 1.388 . S
C188 C189 1.386 . S
C189 C188 1.386 . S
C189 C190 1.382 . S
C189 H211 0.950 . S
C190 N186 1.332 . S
C190 C189 1.382 . S
C190 H192 0.952 . S
C191 N186 1.332 . S
C191 C187 1.382 . S
C191 H193 0.948 . S
H192 C190 0.952 . S
H193 C191 0.948 . S
H194 C183 0.952 . S
H195 C185 0.948 . S
C196 C162 1.395 . S
C196 C166 1.391 . S
C197 C159 1.389 . S
C197 C179 1.392 . S
C198 C169 1.392 . S
C198 C171 1.389 . S
C199 C174 1.395 . S
C199 C176 1.391 . S
H200 C160 0.951 . S
H201 C161 0.950 . S
H202 C167 0.949 . S
H203 C168 0.950 . S
H204 C172 0.951 . S
H205 C173 0.950 . S
H206 C177 0.949 . S
H207 C178 0.950 . S
H208 C182 0.950 . S
H209 C184 0.950 . S
H210 C187 0.950 . S
H211 C189 0.950 . S
C212 C213 1.443 . S
C212 N216 1.376 . S
C212 C250 1.389 . S
C213 C212 1.443 . S
C213 C214 1.340 1_554 S
C213 H253 0.955 . S
C214 C213 1.340 1_556 S
C214 C215 1.439 1_556 S
C214 H254 0.950 . S
C215 C214 1.439 1_554 S
C215 N216 1.374 . S
C215 C249 1.395 . S
N216 C212 1.376 . S
N216 C215 1.374 . S
N216 Co217 2.008 . S
Co217 N216 2.008 . S
Co217 N218 1.995 . S
Co217 N223 2.008 . S
Co217 N228 1.995 . S
Co217 N233 2.282 . S
Co217 N239 2.282 . S
N218 Co217 1.995 . S
N218 C219 1.376 . S
N218 C222 1.383 . S
C219 N218 1.376 . S
C219 C220 1.446 . S
C219 C249 1.391 . S
C220 C219 1.446 . S
C220 C221 1.339 . S
C220 H255 0.949 . S
C221 C220 1.339 . S
C221 C222 1.439 . S
C221 H256 0.950 . S
C222 N218 1.383 . S
C222 C221 1.439 . S
C222 C251 1.392 . S
N223 Co217 2.008 . S
N223 C224 1.376 . S
N223 C227 1.374 . S
C224 N223 1.376 . S
C224 C225 1.443 . S
C224 C251 1.389 . S
C225 C224 1.443 . S
C225 C226 1.340 . S
C225 H257 0.951 . S
C226 C225 1.340 . S
C226 C227 1.439 . S
C226 H258 0.950 . S
C227 N223 1.374 . S
C227 C226 1.439 . S
C227 C252 1.395 . S
N228 Co217 1.995 . S
N228 C229 1.376 . S
N228 C232 1.383 . S
C229 N228 1.376 . S
C229 C230 1.446 . S
C229 C252 1.391 . S
C230 C229 1.446 . S
C230 C231 1.339 . S
C230 H259 0.949 . S
C231 C230 1.339 . S
C231 C232 1.439 . S
C231 H260 0.950 . S
C232 N228 1.383 . S
C232 C231 1.439 . S
C232 C250 1.392 . S
N233 Co217 2.282 . S
N233 C236 1.332 . S
N233 C238 1.332 . S
C234 C235 1.386 . S
C234 C237 1.388 . S
C235 C234 1.386 . S
C235 C236 1.382 . S
C235 H261 0.950 . S
C236 N233 1.332 . S
C236 C235 1.382 . S
C236 H247 0.952 . S
C237 C234 1.388 . S
C237 C238 1.382 . S
C237 H262 0.950 . S
C238 N233 1.332 . S
C238 C237 1.382 . S
C238 H248 0.948 . S
N239 Co217 2.282 . S
N239 C243 1.332 . S
N239 C244 1.332 . S
C240 C241 1.388 . S
C240 C244 1.382 . S
C240 H263 0.950 . S
C241 C240 1.388 . S
C241 C242 1.386 . S
C242 C241 1.386 . S
C242 C243 1.382 . S
C242 H264 0.950 1_554 S
C243 N239 1.332 . S
C243 C242 1.382 . S
C243 H245 0.952 . S
C244 N239 1.332 . S
C244 C240 1.382 . S
C244 H246 0.948 . S
H245 C243 0.952 . S
H246 C244 0.948 . S
H247 C236 0.952 . S
H248 C238 0.948 . S
C249 C215 1.395 . S
C249 C219 1.391 . S
C250 C212 1.389 . S
C250 C232 1.392 . S
C251 C222 1.392 . S
C251 C224 1.389 . S
C252 C227 1.395 . S
C252 C229 1.391 . S
H253 C213 0.955 . S
H254 C214 0.950 . S
H255 C220 0.949 . S
H256 C221 0.950 . S
H257 C225 0.951 . S
H258 C226 0.950 . S
H259 C230 0.949 . S
H260 C231 0.950 . S
H261 C235 0.950 . S
H262 C237 0.950 . S
H263 C240 0.950 . S
H264 C242 0.950 1_556 S
C265 C266 1.443 . S
C265 N269 1.376 . S
C265 C303 1.389 . S
C266 C265 1.443 . S
C266 C267 1.340 . S
C266 H306 0.951 . S
C267 C266 1.340 . S
C267 C268 1.439 . S
C267 H307 0.950 . S
C268 C267 1.439 . S
C268 N269 1.374 . S
C268 C302 1.395 . S
N269 C265 1.376 . S
N269 C268 1.374 . S
N269 Co270 2.008 . S
Co270 N269 2.008 . S
Co270 N271 1.995 . S
Co270 N276 2.008 . S
Co270 N281 1.995 . S
Co270 N286 2.282 . S
Co270 N292 2.282 . S
N271 Co270 1.995 . S
N271 C272 1.376 . S
N271 C275 1.383 . S
C272 N271 1.376 . S
C272 C273 1.446 . S
C272 C302 1.391 . S
C273 C272 1.446 . S
C273 C274 1.339 . S
C273 H308 0.949 . S
C274 C273 1.339 . S
C274 C275 1.439 . S
C274 H309 0.950 . S
C275 N271 1.383 . S
C275 C274 1.439 . S
C275 C304 1.392 . S
N276 Co270 2.008 . S
N276 C277 1.376 . S
N276 C280 1.374 . S
C277 N276 1.376 . S
C277 C278 1.443 . S
C277 C304 1.389 . S
C278 C277 1.443 . S
C278 C279 1.340 . S
C278 H310 0.951 . S
C279 C278 1.340 . S
C279 C280 1.439 . S
C279 H311 0.950 . S
C280 N276 1.374 . S
C280 C279 1.439 . S
C280 C305 1.395 . S
N281 Co270 1.995 . S
N281 C282 1.376 . S
N281 C285 1.383 . S
C282 N281 1.376 . S
C282 C283 1.446 . S
C282 C305 1.391 . S
C283 C282 1.446 . S
C283 C284 1.339 . S
C283 H312 0.949 1_556 S
C284 C283 1.339 . S
C284 C285 1.439 . S
C284 H313 0.950 . S
C285 N281 1.383 . S
C285 C284 1.439 . S
C285 C303 1.392 . S
N286 Co270 2.282 . S
N286 C289 1.332 . S
N286 C291 1.332 . S
C287 C288 1.386 . S
C287 C290 1.388 . S
C288 C287 1.386 . S
C288 C289 1.382 . S
C288 H314 0.950 . S
C289 N286 1.332 . S
C289 C288 1.382 . S
C289 H300 0.952 . S
C290 C287 1.388 . S
C290 C291 1.382 . S
C290 H315 0.950 . S
C291 N286 1.332 . S
C291 C290 1.382 . S
C291 H301 0.948 . S
N292 Co270 2.282 . S
N292 C296 1.332 . S
N292 C297 1.332 . S
C293 C294 1.388 . S
C293 C297 1.382 . S
C293 H316 0.950 1_556 S
C294 C293 1.388 . S
C294 C295 1.386 . S
C295 C294 1.386 . S
C295 C296 1.382 . S
C295 H317 0.950 . S
C296 N292 1.332 . S
C296 C295 1.382 . S
C296 H298 0.952 . S
C297 N292 1.332 . S
C297 C293 1.382 . S
C297 H299 0.948 . S
H298 C296 0.952 . S
H299 C297 0.948 . S
H300 C289 0.952 . S
H301 C291 0.948 . S
C302 C268 1.395 . S
C302 C272 1.391 . S
C303 C265 1.389 . S
C303 C285 1.392 . S
C304 C275 1.392 . S
C304 C277 1.389 . S
C305 C280 1.395 . S
C305 C282 1.391 . S
H306 C266 0.951 . S
H307 C267 0.950 . S
H308 C273 0.949 . S
H309 C274 0.950 . S
H310 C278 0.951 . S
H311 C279 0.950 . S
H312 C283 0.949 1_554 S
H313 C284 0.950 . S
H314 C288 0.950 . S
H315 C290 0.950 . S
H316 C293 0.950 1_554 S
H317 C295 0.950 . S
C318 C319 1.443 . S
C318 N322 1.376 . S
C318 C356 1.389 . S
C319 C318 1.443 . S
C319 C320 1.340 1_554 S
C319 H359 0.955 . S
C320 C319 1.340 1_556 S
C320 C321 1.439 1_556 S
C320 H360 0.950 . S
C321 C320 1.439 1_554 S
C321 N322 1.374 . S
C321 C355 1.395 . S
N322 C318 1.376 . S
N322 C321 1.374 . S
N322 Co323 2.008 . S
Co323 N322 2.008 . S
Co323 N324 1.995 . S
Co323 N329 2.008 . S
Co323 N334 1.995 . S
Co323 N339 2.282 . S
Co323 N345 2.282 . S
N324 Co323 1.995 . S
N324 C325 1.376 . S
N324 C328 1.383 . S
C325 N324 1.376 . S
C325 C326 1.446 . S
C325 C355 1.391 . S
C326 C325 1.446 . S
C326 C327 1.339 . S
C326 H361 0.949 . S
C327 C326 1.339 . S
C327 C328 1.439 . S
C327 H362 0.950 . S
C328 N324 1.383 . S
C328 C327 1.439 . S
C328 C357 1.392 . S
N329 Co323 2.008 . S
N329 C330 1.376 . S
N329 C333 1.374 . S
C330 N329 1.376 . S
C330 C331 1.443 . S
C330 C357 1.389 . S
C331 C330 1.443 . S
C331 C332 1.340 . S
C331 H363 0.951 . S
C332 C331 1.340 . S
C332 C333 1.439 . S
C332 H364 0.950 . S
C333 N329 1.374 . S
C333 C332 1.439 . S
C333 C358 1.395 . S
N334 Co323 1.995 . S
N334 C335 1.376 . S
N334 C338 1.383 . S
C335 N334 1.376 . S
C335 C336 1.446 . S
C335 C358 1.391 . S
C336 C335 1.446 . S
C336 C337 1.339 . S
C336 H365 0.949 . S
C337 C336 1.339 . S
C337 C338 1.439 . S
C337 H366 0.950 . S
C338 N334 1.383 . S
C338 C337 1.439 . S
C338 C356 1.392 . S
N339 Co323 2.282 . S
N339 C342 1.332 . S
N339 C344 1.332 . S
C340 C341 1.386 . S
C340 C343 1.388 . S
C341 C340 1.386 . S
C341 C342 1.382 . S
C341 H367 0.950 . S
C342 N339 1.332 . S
C342 C341 1.382 . S
C342 H353 0.952 . S
C343 C340 1.388 . S
C343 C344 1.382 . S
C343 H368 0.950 . S
C344 N339 1.332 . S
C344 C343 1.382 . S
C344 H354 0.948 . S
N345 Co323 2.282 . S
N345 C349 1.332 . S
N345 C350 1.332 . S
C346 C347 1.388 . S
C346 C350 1.382 . S
C346 H369 0.950 . S
C347 C346 1.388 . S
C347 C348 1.386 . S
C348 C347 1.386 . S
C348 C349 1.382 . S
C348 H370 0.950 1_554 S
C349 N345 1.332 . S
C349 C348 1.382 . S
C349 H351 0.952 . S
C350 N345 1.332 . S
C350 C346 1.382 . S
C350 H352 0.948 . S
H351 C349 0.952 . S
H352 C350 0.948 . S
H353 C342 0.952 . S
H354 C344 0.948 . S
C355 C321 1.395 . S
C355 C325 1.391 . S
C356 C318 1.389 . S
C356 C338 1.392 . S
C357 C328 1.392 . S
C357 C330 1.389 . S
C358 C333 1.395 . S
C358 C335 1.391 . S
H359 C319 0.955 . S
H360 C320 0.950 . S
H361 C326 0.949 . S
H362 C327 0.950 . S
H363 C331 0.951 . S
H364 C332 0.950 . S
H365 C336 0.949 . S
H366 C337 0.950 . S
H367 C341 0.950 . S
H368 C343 0.950 . S
H369 C346 0.950 . S
H370 C348 0.950 1_556 S
C371 C372 1.443 . S
C371 N375 1.376 . S
C371 C409 1.389 . S
C372 C371 1.443 . S
C372 C373 1.340 . S
C372 H412 0.951 . S
C373 C372 1.340 . S
C373 C374 1.439 . S
C373 H413 0.950 . S
C374 C373 1.439 . S
C374 N375 1.374 . S
C374 C408 1.395 . S
N375 C371 1.376 . S
N375 C374 1.374 . S
N375 Co376 2.008 . S
Co376 N375 2.008 . S
Co376 N377 1.995 . S
Co376 N382 2.008 . S
Co376 N387 1.995 . S
Co376 N392 2.282 . S
Co376 N398 2.282 . S
N377 Co376 1.995 . S
N377 C378 1.376 . S
N377 C381 1.383 . S
C378 N377 1.376 . S
C378 C379 1.446 . S
C378 C408 1.391 . S
C379 C378 1.446 . S
C379 C380 1.339 . S
C379 H414 0.949 . S
C380 C379 1.339 . S
C380 C381 1.439 . S
C380 H415 0.950 . S
C381 N377 1.383 . S
C381 C380 1.439 . S
C381 C410 1.392 . S
N382 Co376 2.008 . S
N382 C383 1.376 . S
N382 C386 1.374 . S
C383 N382 1.376 . S
C383 C384 1.443 . S
C383 C410 1.389 . S
C384 C383 1.443 . S
C384 C385 1.340 . S
C384 H416 0.951 . S
C385 C384 1.340 . S
C385 C386 1.439 . S
C385 H417 0.950 . S
C386 N382 1.374 . S
C386 C385 1.439 . S
C386 C411 1.395 . S
N387 Co376 1.995 . S
N387 C388 1.376 . S
N387 C391 1.383 . S
C388 N387 1.376 . S
C388 C389 1.446 . S
C388 C411 1.391 . S
C389 C388 1.446 . S
C389 C390 1.339 . S
C389 H418 0.949 1_556 S
C390 C389 1.339 . S
C390 C391 1.439 . S
C390 H419 0.950 . S
C391 N387 1.383 . S
C391 C390 1.439 . S
C391 C409 1.392 . S
N392 Co376 2.282 . S
N392 C395 1.332 . S
N392 C397 1.332 . S
C393 C394 1.386 . S
C393 C396 1.388 . S
C394 C393 1.386 . S
C394 C395 1.382 . S
C394 H420 0.950 . S
C395 N392 1.332 . S
C395 C394 1.382 . S
C395 H406 0.952 . S
C396 C393 1.388 . S
C396 C397 1.382 . S
C396 H421 0.950 . S
C397 N392 1.332 . S
C397 C396 1.382 . S
C397 H407 0.948 . S
N398 Co376 2.282 . S
N398 C402 1.332 . S
N398 C403 1.332 . S
C399 C400 1.388 . S
C399 C403 1.382 . S
C399 H422 0.950 1_556 S
C400 C399 1.388 . S
C400 C401 1.386 . S
C401 C400 1.386 . S
C401 C402 1.382 . S
C401 H423 0.950 . S
C402 N398 1.332 . S
C402 C401 1.382 . S
C402 H404 0.952 . S
C403 N398 1.332 . S
C403 C399 1.382 . S
C403 H405 0.948 . S
H404 C402 0.952 . S
H405 C403 0.948 . S
H406 C395 0.952 . S
H407 C397 0.948 . S
C408 C374 1.395 . S
C408 C378 1.391 . S
C409 C371 1.389 . S
C409 C391 1.392 . S
C410 C381 1.392 . S
C410 C383 1.389 . S
C411 C386 1.395 . S
C411 C388 1.391 . S
H412 C372 0.951 . S
H413 C373 0.950 . S
H414 C379 0.949 . S
H415 C380 0.950 . S
H416 C384 0.951 . S
H417 C385 0.950 . S
H418 C389 0.949 1_554 S
H419 C390 0.950 . S
H420 C394 0.950 . S
H421 C396 0.950 . S
H422 C399 0.950 1_554 S
H423 C401 0.950 . S
C424 C425 1.443 . S
C424 N428 1.376 . S
C424 C462 1.389 . S
C425 C424 1.443 . S
C425 C426 1.340 . S
C425 H465 0.951 . S
C426 C425 1.340 . S
C426 C427 1.439 . S
C426 H466 0.950 . S
C427 C426 1.439 . S
C427 N428 1.374 . S
C427 C461 1.395 . S
N428 C424 1.376 . S
N428 C427 1.374 . S
N428 Co429 2.008 . S
Co429 N428 2.008 . S
Co429 N430 1.995 . S
Co429 N435 2.008 . S
Co429 N440 1.995 . S
Co429 N445 2.282 . S
Co429 N451 2.282 . S
N430 Co429 1.995 . S
N430 C431 1.376 . S
N430 C434 1.383 . S
C431 N430 1.376 . S
C431 C432 1.446 . S
C431 C461 1.391 . S
C432 C431 1.446 . S
C432 C433 1.339 . S
C432 H467 0.949 . S
C433 C432 1.339 . S
C433 C434 1.439 . S
C433 H468 0.950 . S
C434 N430 1.383 . S
C434 C433 1.439 . S
C434 C463 1.392 . S
N435 Co429 2.008 . S
N435 C436 1.376 . S
N435 C439 1.374 . S
C436 N435 1.376 . S
C436 C437 1.443 . S
C436 C463 1.389 . S
C437 C436 1.443 . S
C437 C438 1.340 . S
C437 H469 0.951 . S
C438 C437 1.340 . S
C438 C439 1.439 . S
C438 H470 0.950 . S
C439 N435 1.374 . S
C439 C438 1.439 . S
C439 C464 1.395 . S
N440 Co429 1.995 . S
N440 C441 1.376 . S
N440 C444 1.383 . S
C441 N440 1.376 . S
C441 C442 1.446 . S
C441 C464 1.391 . S
C442 C441 1.446 . S
C442 C443 1.339 . S
C442 H471 0.949 . S
C443 C442 1.339 . S
C443 C444 1.439 . S
C443 H472 0.950 . S
C444 N440 1.383 . S
C444 C443 1.439 . S
C444 C462 1.392 . S
N445 Co429 2.282 . S
N445 C448 1.332 . S
N445 C450 1.332 . S
C446 C447 1.386 . S
C446 C449 1.388 . S
C447 C446 1.386 . S
C447 C448 1.382 . S
C447 H473 0.950 . S
C448 N445 1.332 . S
C448 C447 1.382 . S
C448 H459 0.952 . S
C449 C446 1.388 . S
C449 C450 1.382 . S
C449 H474 0.950 . S
C450 N445 1.332 . S
C450 C449 1.382 . S
C450 H460 0.948 . S
N451 Co429 2.282 . S
N451 C455 1.332 . S
N451 C456 1.332 . S
C452 C453 1.388 . S
C452 C456 1.382 . S
C452 H475 0.950 . S
C453 C452 1.388 . S
C453 C454 1.386 . S
C454 C453 1.386 . S
C454 C455 1.382 . S
C454 H476 0.950 . S
C455 N451 1.332 . S
C455 C454 1.382 . S
C455 H457 0.952 . S
C456 N451 1.332 . S
C456 C452 1.382 . S
C456 H458 0.948 . S
H457 C455 0.952 . S
H458 C456 0.948 . S
H459 C448 0.952 . S
H460 C450 0.948 . S
C461 C427 1.395 . S
C461 C431 1.391 . S
C462 C424 1.389 . S
C462 C444 1.392 . S
C463 C434 1.392 . S
C463 C436 1.389 . S
C464 C439 1.395 . S
C464 C441 1.391 . S
H465 C425 0.951 . S
H466 C426 0.950 . S
H467 C432 0.949 . S
H468 C433 0.950 . S
H469 C437 0.951 . S
H470 C438 0.950 . S
H471 C442 0.949 . S
H472 C443 0.950 . S
H473 C447 0.950 . S
H474 C449 0.950 . S
H475 C452 0.950 . S
H476 C454 0.950 . S
C477 C478 1.443 . S
C477 N481 1.376 . S
C477 C515 1.389 . S
C478 C477 1.443 . S
C478 C479 1.340 . S
C478 H518 0.951 . S
C479 C478 1.340 . S
C479 C480 1.439 . S
C479 H519 0.950 . S
C480 C479 1.439 . S
C480 N481 1.374 . S
C480 C514 1.395 . S
N481 C477 1.376 . S
N481 C480 1.374 . S
N481 Co482 2.008 . S
Co482 N481 2.008 . S
Co482 N483 1.995 . S
Co482 N488 2.008 . S
Co482 N493 1.995 . S
Co482 N498 2.282 . S
Co482 N504 2.282 . S
N483 Co482 1.995 . S
N483 C484 1.376 . S
N483 C487 1.383 . S
C484 N483 1.376 . S
C484 C485 1.446 . S
C484 C514 1.391 . S
C485 C484 1.446 . S
C485 C486 1.339 . S
C485 H520 0.949 . S
C486 C485 1.339 . S
C486 C487 1.439 . S
C486 H521 0.950 . S
C487 N483 1.383 . S
C487 C486 1.439 . S
C487 C516 1.392 . S
N488 Co482 2.008 . S
N488 C489 1.376 . S
N488 C492 1.374 . S
C489 N488 1.376 . S
C489 C490 1.443 . S
C489 C516 1.389 . S
C490 C489 1.443 . S
C490 C491 1.340 . S
C490 H522 0.951 . S
C491 C490 1.340 . S
C491 C492 1.439 . S
C491 H523 0.950 . S
C492 N488 1.374 . S
C492 C491 1.439 . S
C492 C517 1.395 . S
N493 Co482 1.995 . S
N493 C494 1.376 . S
N493 C497 1.383 . S
C494 N493 1.376 . S
C494 C495 1.446 . S
C494 C517 1.391 . S
C495 C494 1.446 . S
C495 C496 1.339 . S
C495 H524 0.949 . S
C496 C495 1.339 . S
C496 C497 1.439 . S
C496 H525 0.950 . S
C497 N493 1.383 . S
C497 C496 1.439 . S
C497 C515 1.392 . S
N498 Co482 2.282 . S
N498 C501 1.332 . S
N498 C503 1.332 . S
C499 C500 1.386 . S
C499 C502 1.388 . S
C500 C499 1.386 . S
C500 C501 1.382 . S
C500 H526 0.950 . S
C501 N498 1.332 . S
C501 C500 1.382 . S
C501 H512 0.952 . S
C502 C499 1.388 . S
C502 C503 1.382 . S
C502 H527 0.950 . S
C503 N498 1.332 . S
C503 C502 1.382 . S
C503 H513 0.948 . S
N504 Co482 2.282 . S
N504 C508 1.332 . S
N504 C509 1.332 . S
C505 C506 1.388 . S
C505 C509 1.382 . S
C505 H528 0.950 . S
C506 C505 1.388 . S
C506 C507 1.386 . S
C507 C506 1.386 . S
C507 C508 1.382 . S
C507 H529 0.950 . S
C508 N504 1.332 . S
C508 C507 1.382 . S
C508 H510 0.952 . S
C509 N504 1.332 . S
C509 C505 1.382 . S
C509 H511 0.948 . S
H510 C508 0.952 . S
H511 C509 0.948 . S
H512 C501 0.952 . S
H513 C503 0.948 . S
C514 C480 1.395 . S
C514 C484 1.391 . S
C515 C477 1.389 . S
C515 C497 1.392 . S
C516 C487 1.392 . S
C516 C489 1.389 . S
C517 C492 1.395 . S
C517 C494 1.391 . S
H518 C478 0.951 . S
H519 C479 0.950 . S
H520 C485 0.949 . S
H521 C486 0.950 . S
H522 C490 0.951 . S
H523 C491 0.950 . S
H524 C495 0.949 . S
H525 C496 0.950 . S
H526 C500 0.950 . S
H527 C502 0.950 . S
H528 C505 0.950 . S
H529 C507 0.950 . S
C530 C531 1.443 . S
C530 N534 1.376 . S
C530 C568 1.389 . S
C531 C530 1.443 . S
C531 C532 1.340 . S
C531 H571 0.951 . S
C532 C531 1.340 . S
C532 C533 1.439 . S
C532 H572 0.950 . S
C533 C532 1.439 . S
C533 N534 1.374 . S
C533 C567 1.395 . S
N534 C530 1.376 . S
N534 C533 1.374 . S
N534 Co535 2.008 . S
Co535 N534 2.008 . S
Co535 N536 1.995 . S
Co535 N541 2.008 . S
Co535 N546 1.995 . S
Co535 N551 2.282 . S
Co535 N557 2.282 . S
N536 Co535 1.995 . S
N536 C537 1.376 . S
N536 C540 1.383 . S
C537 N536 1.376 . S
C537 C538 1.446 . S
C537 C567 1.391 . S
C538 C537 1.446 . S
C538 C539 1.339 . S
C538 H573 0.949 . S
C539 C538 1.339 . S
C539 C540 1.439 . S
C539 H574 0.950 . S
C540 N536 1.383 . S
C540 C539 1.439 . S
C540 C569 1.392 . S
N541 Co535 2.008 . S
N541 C542 1.376 . S
N541 C545 1.374 . S
C542 N541 1.376 . S
C542 C543 1.443 . S
C542 C569 1.389 . S
C543 C542 1.443 . S
C543 C544 1.340 . S
C543 H575 0.951 . S
C544 C543 1.340 . S
C544 C545 1.439 . S
C544 H576 0.950 . S
C545 N541 1.374 . S
C545 C544 1.439 . S
C545 C570 1.395 . S
N546 Co535 1.995 . S
N546 C547 1.376 . S
N546 C550 1.383 . S
C547 N546 1.376 . S
C547 C548 1.446 . S
C547 C570 1.391 . S
C548 C547 1.446 . S
C548 C549 1.339 . S
C548 H577 0.949 . S
C549 C548 1.339 . S
C549 C550 1.439 . S
C549 H578 0.950 . S
C550 N546 1.383 . S
C550 C549 1.439 . S
C550 C568 1.392 . S
N551 Co535 2.282 . S
N551 C554 1.332 . S
N551 C556 1.332 . S
C552 C553 1.386 . S
C552 C555 1.388 . S
C553 C552 1.386 . S
C553 C554 1.382 . S
C553 H579 0.950 . S
C554 N551 1.332 . S
C554 C553 1.382 . S
C554 H565 0.952 . S
C555 C552 1.388 . S
C555 C556 1.382 . S
C555 H580 0.950 . S
C556 N551 1.332 . S
C556 C555 1.382 . S
C556 H566 0.948 . S
N557 Co535 2.282 . S
N557 C561 1.332 . S
N557 C562 1.332 . S
C558 C559 1.388 . S
C558 C562 1.382 . S
C558 H581 0.950 . S
C559 C558 1.388 . S
C559 C560 1.386 . S
C560 C559 1.386 . S
C560 C561 1.382 . S
C560 H582 0.950 . S
C561 N557 1.332 . S
C561 C560 1.382 . S
C561 H563 0.952 . S
C562 N557 1.332 . S
C562 C558 1.382 . S
C562 H564 0.948 . S
H563 C561 0.952 . S
H564 C562 0.948 . S
H565 C554 0.952 . S
H566 C556 0.948 . S
C567 C533 1.395 . S
C567 C537 1.391 . S
C568 C530 1.389 . S
C568 C550 1.392 . S
C569 C540 1.392 . S
C569 C542 1.389 . S
C570 C545 1.395 . S
C570 C547 1.391 . S
H571 C531 0.951 . S
H572 C532 0.950 . S
H573 C538 0.949 . S
H574 C539 0.950 . S
H575 C543 0.951 . S
H576 C544 0.950 . S
H577 C548 0.949 . S
H578 C549 0.950 . S
H579 C553 0.950 . S
H580 C555 0.950 . S
H581 C558 0.950 . S
H582 C560 0.950 . S
C583 C584 1.443 . S
C583 N587 1.376 . S
C583 C621 1.389 . S
C584 C583 1.443 . S
C584 C585 1.340 . S
C584 H624 0.951 . S
C585 C584 1.340 . S
C585 C586 1.439 . S
C585 H625 0.950 . S
C586 C585 1.439 . S
C586 N587 1.374 . S
C586 C620 1.395 . S
N587 C583 1.376 . S
N587 C586 1.374 . S
N587 Co588 2.008 . S
Co588 N587 2.008 . S
Co588 N589 1.995 . S
Co588 N594 2.008 . S
Co588 N599 1.995 . S
Co588 N604 2.282 . S
Co588 N610 2.282 . S
N589 Co588 1.995 . S
N589 C590 1.376 . S
N589 C593 1.383 . S
C590 N589 1.376 . S
C590 C591 1.446 . S
C590 C620 1.391 . S
C591 C590 1.446 . S
C591 C592 1.339 . S
C591 H626 0.949 . S
C592 C591 1.339 . S
C592 C593 1.439 . S
C592 H627 0.950 . S
C593 N589 1.383 . S
C593 C592 1.439 . S
C593 C622 1.392 . S
N594 Co588 2.008 . S
N594 C595 1.376 . S
N594 C598 1.374 . S
C595 N594 1.376 . S
C595 C596 1.443 . S
C595 C622 1.389 . S
C596 C595 1.443 . S
C596 C597 1.340 . S
C596 H628 0.951 . S
C597 C596 1.340 . S
C597 C598 1.439 . S
C597 H629 0.950 . S
C598 N594 1.374 . S
C598 C597 1.439 . S
C598 C623 1.395 . S
N599 Co588 1.995 . S
N599 C600 1.376 . S
N599 C603 1.383 . S
C600 N599 1.376 . S
C600 C601 1.446 . S
C600 C623 1.391 . S
C601 C600 1.446 . S
C601 C602 1.339 . S
C601 H630 0.949 . S
C602 C601 1.339 . S
C602 C603 1.439 . S
C602 H631 0.950 . S
C603 N599 1.383 . S
C603 C602 1.439 . S
C603 C621 1.392 . S
N604 Co588 2.282 . S
N604 C607 1.332 . S
N604 C609 1.332 . S
C605 C606 1.386 . S
C605 C608 1.388 . S
C606 C605 1.386 . S
C606 C607 1.382 . S
C606 H632 0.950 . S
C607 N604 1.332 . S
C607 C606 1.382 . S
C607 H618 0.952 . S
C608 C605 1.388 . S
C608 C609 1.382 . S
C608 H633 0.950 . S
C609 N604 1.332 . S
C609 C608 1.382 . S
C609 H619 0.948 . S
N610 Co588 2.282 . S
N610 C614 1.332 . S
N610 C615 1.332 . S
C611 C612 1.388 . S
C611 C615 1.382 . S
C611 H634 0.950 . S
C612 C611 1.388 . S
C612 C613 1.386 . S
C613 C612 1.386 . S
C613 C614 1.382 . S
C613 H635 0.950 . S
C614 N610 1.332 . S
C614 C613 1.382 . S
C614 H616 0.952 . S
C615 N610 1.332 . S
C615 C611 1.382 . S
C615 H617 0.948 . S
H616 C614 0.952 . S
H617 C615 0.948 . S
H618 C607 0.952 . S
H619 C609 0.948 . S
C620 C586 1.395 . S
C620 C590 1.391 . S
C621 C583 1.389 . S
C621 C603 1.392 . S
C622 C593 1.392 . S
C622 C595 1.389 . S
C623 C598 1.395 . S
C623 C600 1.391 . S
H624 C584 0.951 . S
H625 C585 0.950 . S
H626 C591 0.949 . S
H627 C592 0.950 . S
H628 C596 0.951 . S
H629 C597 0.950 . S
H630 C601 0.949 . S
H631 C602 0.950 . S
H632 C606 0.950 . S
H633 C608 0.950 . S
H634 C611 0.950 . S
H635 C613 0.950 . S
C636 C637 1.443 . S
C636 N640 1.376 . S
C636 C674 1.389 . S
C637 C636 1.443 . S
C637 C638 1.340 . S
C637 H677 0.951 . S
C638 C637 1.340 . S
C638 C639 1.439 . S
C638 H678 0.950 . S
C639 C638 1.439 . S
C639 N640 1.374 . S
C639 C673 1.395 . S
N640 C636 1.376 . S
N640 C639 1.374 . S
N640 Co641 2.008 . S
Co641 N640 2.008 . S
Co641 N642 1.995 . S
Co641 N647 2.008 . S
Co641 N652 1.995 . S
Co641 N657 2.282 . S
Co641 N663 2.282 . S
N642 Co641 1.995 . S
N642 C643 1.376 . S
N642 C646 1.383 . S
C643 N642 1.376 . S
C643 C644 1.446 . S
C643 C673 1.391 . S
C644 C643 1.446 . S
C644 C645 1.339 . S
C644 H679 0.949 . S
C645 C644 1.339 . S
C645 C646 1.439 . S
C645 H680 0.950 . S
C646 N642 1.383 . S
C646 C645 1.439 . S
C646 C675 1.392 . S
N647 Co641 2.008 . S
N647 C648 1.376 . S
N647 C651 1.374 . S
C648 N647 1.376 . S
C648 C649 1.443 . S
C648 C675 1.389 . S
C649 C648 1.443 . S
C649 C650 1.340 . S
C649 H681 0.951 . S
C650 C649 1.340 . S
C650 C651 1.439 . S
C650 H682 0.950 . S
C651 N647 1.374 . S
C651 C650 1.439 . S
C651 C676 1.395 . S
N652 Co641 1.995 . S
N652 C653 1.376 . S
N652 C656 1.383 . S
C653 N652 1.376 . S
C653 C654 1.446 . S
C653 C676 1.391 . S
C654 C653 1.446 . S
C654 C655 1.339 . S
C654 H683 0.949 . S
C655 C654 1.339 . S
C655 C656 1.439 . S
C655 H684 0.950 . S
C656 N652 1.383 . S
C656 C655 1.439 . S
C656 C674 1.392 . S
N657 Co641 2.282 . S
N657 C660 1.332 . S
N657 C662 1.332 . S
C658 C659 1.386 . S
C658 C661 1.388 . S
C659 C658 1.386 . S
C659 C660 1.382 . S
C659 H685 0.950 . S
C660 N657 1.332 . S
C660 C659 1.382 . S
C660 H671 0.952 . S
C661 C658 1.388 . S
C661 C662 1.382 . S
C661 H686 0.950 . S
C662 N657 1.332 . S
C662 C661 1.382 . S
C662 H672 0.948 . S
N663 Co641 2.282 . S
N663 C667 1.332 . S
N663 C668 1.332 . S
C664 C665 1.388 . S
C664 C668 1.382 . S
C664 H687 0.950 . S
C665 C664 1.388 . S
C665 C666 1.386 . S
C666 C665 1.386 . S
C666 C667 1.382 . S
C666 H688 0.950 . S
C667 N663 1.332 . S
C667 C666 1.382 . S
C667 H669 0.952 . S
C668 N663 1.332 . S
C668 C664 1.382 . S
C668 H670 0.948 . S
H669 C667 0.952 . S
H670 C668 0.948 . S
H671 C660 0.952 . S
H672 C662 0.948 . S
C673 C639 1.395 . S
C673 C643 1.391 . S
C674 C636 1.389 . S
C674 C656 1.392 . S
C675 C646 1.392 . S
C675 C648 1.389 . S
C676 C651 1.395 . S
C676 C653 1.391 . S
H677 C637 0.951 . S
H678 C638 0.950 . S
H679 C644 0.949 . S
H680 C645 0.950 . S
H681 C649 0.951 . S
H682 C650 0.950 . S
H683 C654 0.949 . S
H684 C655 0.950 . S
H685 C659 0.950 . S
H686 C661 0.950 . S
H687 C664 0.950 . S
H688 C666 0.950 . S
C689 C690 1.443 . S
C689 N693 1.376 . S
C689 C727 1.389 . S
C690 C689 1.443 . S
C690 C691 1.340 . S
C690 H730 0.951 . S
C691 C690 1.340 . S
C691 C692 1.439 . S
C691 H731 0.950 . S
C692 C691 1.439 . S
C692 N693 1.374 . S
C692 C726 1.395 . S
N693 C689 1.376 . S
N693 C692 1.374 . S
N693 Co694 2.008 . S
Co694 N693 2.008 . S
Co694 N695 1.995 . S
Co694 N700 2.008 . S
Co694 N705 1.995 . S
Co694 N710 2.282 . S
Co694 N716 2.282 . S
N695 Co694 1.995 . S
N695 C696 1.376 . S
N695 C699 1.383 . S
C696 N695 1.376 . S
C696 C697 1.446 . S
C696 C726 1.391 . S
C697 C696 1.446 . S
C697 C698 1.339 . S
C697 H732 0.949 . S
C698 C697 1.339 . S
C698 C699 1.439 . S
C698 H733 0.950 . S
C699 N695 1.383 . S
C699 C698 1.439 . S
C699 C728 1.392 . S
N700 Co694 2.008 . S
N700 C701 1.376 . S
N700 C704 1.374 . S
C701 N700 1.376 . S
C701 C702 1.443 . S
C701 C728 1.389 . S
C702 C701 1.443 . S
C702 C703 1.340 . S
C702 H734 0.951 . S
C703 C702 1.340 . S
C703 C704 1.439 . S
C703 H735 0.950 . S
C704 N700 1.374 . S
C704 C703 1.439 . S
C704 C729 1.395 . S
N705 Co694 1.995 . S
N705 C706 1.376 . S
N705 C709 1.383 . S
C706 N705 1.376 . S
C706 C707 1.446 . S
C706 C729 1.391 . S
C707 C706 1.446 . S
C707 C708 1.339 . S
C707 H736 0.949 . S
C708 C707 1.339 . S
C708 C709 1.439 . S
C708 H737 0.950 . S
C709 N705 1.383 . S
C709 C708 1.439 . S
C709 C727 1.392 . S
N710 Co694 2.282 . S
N710 C713 1.332 . S
N710 C715 1.332 . S
C711 C712 1.386 . S
C711 C714 1.388 . S
C712 C711 1.386 . S
C712 C713 1.382 . S
C712 H738 0.950 . S
C713 N710 1.332 . S
C713 C712 1.382 . S
C713 H724 0.952 . S
C714 C711 1.388 . S
C714 C715 1.382 . S
C714 H739 0.950 . S
C715 N710 1.332 . S
C715 C714 1.382 . S
C715 H725 0.948 . S
N716 Co694 2.282 . S
N716 C720 1.332 . S
N716 C721 1.332 . S
C717 C718 1.388 . S
C717 C721 1.382 . S
C717 H740 0.950 . S
C718 C717 1.388 . S
C718 C719 1.386 . S
C719 C718 1.386 . S
C719 C720 1.382 . S
C719 H741 0.950 . S
C720 N716 1.332 . S
C720 C719 1.382 . S
C720 H722 0.952 . S
C721 N716 1.332 . S
C721 C717 1.382 . S
C721 H723 0.948 . S
H722 C720 0.952 . S
H723 C721 0.948 . S
H724 C713 0.952 . S
H725 C715 0.948 . S
C726 C692 1.395 . S
C726 C696 1.391 . S
C727 C689 1.389 . S
C727 C709 1.392 . S
C728 C699 1.392 . S
C728 C701 1.389 . S
C729 C704 1.395 . S
C729 C706 1.391 . S
H730 C690 0.951 . S
H731 C691 0.950 . S
H732 C697 0.949 . S
H733 C698 0.950 . S
H734 C702 0.951 . S
H735 C703 0.950 . S
H736 C707 0.949 . S
H737 C708 0.950 . S
H738 C712 0.950 . S
H739 C714 0.950 . S
H740 C717 0.950 . S
H741 C719 0.950 . S
C742 C743 1.443 . S
C742 N746 1.376 . S
C742 C780 1.389 . S
C743 C742 1.443 . S
C743 C744 1.340 . S
C743 H783 0.951 . S
C744 C743 1.340 . S
C744 C745 1.439 . S
C744 H784 0.950 . S
C745 C744 1.439 . S
C745 N746 1.374 . S
C745 C779 1.395 . S
N746 C742 1.376 . S
N746 C745 1.374 . S
N746 Co747 2.008 . S
Co747 N746 2.008 . S
Co747 N748 1.995 . S
Co747 N753 2.008 . S
Co747 N758 1.995 . S
Co747 N763 2.282 . S
Co747 N769 2.282 . S
N748 Co747 1.995 . S
N748 C749 1.376 . S
N748 C752 1.383 . S
C749 N748 1.376 . S
C749 C750 1.446 . S
C749 C779 1.391 . S
C750 C749 1.446 . S
C750 C751 1.339 . S
C750 H785 0.949 . S
C751 C750 1.339 . S
C751 C752 1.439 . S
C751 H786 0.950 . S
C752 N748 1.383 . S
C752 C751 1.439 . S
C752 C781 1.392 . S
N753 Co747 2.008 . S
N753 C754 1.376 . S
N753 C757 1.374 . S
C754 N753 1.376 . S
C754 C755 1.443 . S
C754 C781 1.389 . S
C755 C754 1.443 . S
C755 C756 1.340 . S
C755 H787 0.951 . S
C756 C755 1.340 . S
C756 C757 1.439 . S
C756 H788 0.950 . S
C757 N753 1.374 . S
C757 C756 1.439 . S
C757 C782 1.395 . S
N758 Co747 1.995 . S
N758 C759 1.376 . S
N758 C762 1.383 . S
C759 N758 1.376 . S
C759 C760 1.446 . S
C759 C782 1.391 . S
C760 C759 1.446 . S
C760 C761 1.339 . S
C760 H789 0.949 . S
C761 C760 1.339 . S
C761 C762 1.439 . S
C761 H790 0.950 . S
C762 N758 1.383 . S
C762 C761 1.439 . S
C762 C780 1.392 . S
N763 Co747 2.282 . S
N763 C766 1.332 . S
N763 C768 1.332 . S
C764 C765 1.386 . S
C764 C767 1.388 . S
C765 C764 1.386 . S
C765 C766 1.382 . S
C765 H791 0.950 . S
C766 N763 1.332 . S
C766 C765 1.382 . S
C766 H777 0.952 . S
C767 C764 1.388 . S
C767 C768 1.382 . S
C767 H792 0.950 . S
C768 N763 1.332 . S
C768 C767 1.382 . S
C768 H778 0.948 . S
N769 Co747 2.282 . S
N769 C773 1.332 . S
N769 C774 1.332 . S
C770 C771 1.388 . S
C770 C774 1.382 . S
C770 H793 0.950 . S
C771 C770 1.388 . S
C771 C772 1.386 . S
C772 C771 1.386 . S
C772 C773 1.382 . S
C772 H794 0.950 . S
C773 N769 1.332 . S
C773 C772 1.382 . S
C773 H775 0.952 . S
C774 N769 1.332 . S
C774 C770 1.382 . S
C774 H776 0.948 . S
H775 C773 0.952 . S
H776 C774 0.948 . S
H777 C766 0.952 . S
H778 C768 0.948 . S
C779 C745 1.395 . S
C779 C749 1.391 . S
C780 C742 1.389 . S
C780 C762 1.392 . S
C781 C752 1.392 . S
C781 C754 1.389 . S
C782 C757 1.395 . S
C782 C759 1.391 . S
H783 C743 0.951 . S
H784 C744 0.950 . S
H785 C750 0.949 . S
H786 C751 0.950 . S
H787 C755 0.951 . S
H788 C756 0.950 . S
H789 C760 0.949 . S
H790 C761 0.950 . S
H791 C765 0.950 . S
H792 C767 0.950 . S
H793 C770 0.950 . S
H794 C772 0.950 . S
C795 C796 1.443 . S
C795 N799 1.376 . S
C795 C833 1.389 . S
C796 C795 1.443 . S
C796 C797 1.340 . S
C796 H836 0.951 . S
C797 C796 1.340 . S
C797 C798 1.439 . S
C797 H837 0.950 . S
C798 C797 1.439 . S
C798 N799 1.374 . S
C798 C832 1.395 . S
N799 C795 1.376 . S
N799 C798 1.374 . S
N799 Co800 2.008 . S
Co800 N799 2.008 . S
Co800 N801 1.995 . S
Co800 N806 2.008 . S
Co800 N811 1.995 . S
Co800 N816 2.282 . S
Co800 N822 2.282 . S
N801 Co800 1.995 . S
N801 C802 1.376 . S
N801 C805 1.383 . S
C802 N801 1.376 . S
C802 C803 1.446 . S
C802 C832 1.391 . S
C803 C802 1.446 . S
C803 C804 1.339 . S
C803 H838 0.949 . S
C804 C803 1.339 . S
C804 C805 1.439 . S
C804 H839 0.950 . S
C805 N801 1.383 . S
C805 C804 1.439 . S
C805 C834 1.392 . S
N806 Co800 2.008 . S
N806 C807 1.376 . S
N806 C810 1.374 . S
C807 N806 1.376 . S
C807 C808 1.443 . S
C807 C834 1.389 . S
C808 C807 1.443 . S
C808 C809 1.340 . S
C808 H840 0.951 . S
C809 C808 1.340 . S
C809 C810 1.439 . S
C809 H841 0.950 . S
C810 N806 1.374 . S
C810 C809 1.439 . S
C810 C835 1.395 . S
N811 Co800 1.995 . S
N811 C812 1.376 . S
N811 C815 1.383 . S
C812 N811 1.376 . S
C812 C813 1.446 . S
C812 C835 1.391 . S
C813 C812 1.446 . S
C813 C814 1.339 . S
C813 H842 0.949 . S
C814 C813 1.339 . S
C814 C815 1.439 . S
C814 H843 0.950 . S
C815 N811 1.383 . S
C815 C814 1.439 . S
C815 C833 1.392 . S
N816 Co800 2.282 . S
N816 C819 1.332 . S
N816 C821 1.332 . S
C817 C818 1.386 . S
C817 C820 1.388 . S
C818 C817 1.386 . S
C818 C819 1.382 . S
C818 H844 0.950 . S
C819 N816 1.332 . S
C819 C818 1.382 . S
C819 H830 0.952 . S
C820 C817 1.388 . S
C820 C821 1.382 . S
C820 H845 0.950 . S
C821 N816 1.332 . S
C821 C820 1.382 . S
C821 H831 0.948 . S
N822 Co800 2.282 . S
N822 C826 1.332 . S
N822 C827 1.332 . S
C823 C824 1.388 . S
C823 C827 1.382 . S
C823 H846 0.950 . S
C824 C823 1.388 . S
C824 C825 1.386 . S
C825 C824 1.386 . S
C825 C826 1.382 . S
C825 H847 0.950 . S
C826 N822 1.332 . S
C826 C825 1.382 . S
C826 H828 0.952 . S
C827 N822 1.332 . S
C827 C823 1.382 . S
C827 H829 0.948 . S
H828 C826 0.952 . S
H829 C827 0.948 . S
H830 C819 0.952 . S
H831 C821 0.948 . S
C832 C798 1.395 . S
C832 C802 1.391 . S
C833 C795 1.389 . S
C833 C815 1.392 . S
C834 C805 1.392 . S
C834 C807 1.389 . S
C835 C810 1.395 . S
C835 C812 1.391 . S
H836 C796 0.951 . S
H837 C797 0.950 . S
H838 C803 0.949 . S
H839 C804 0.950 . S
H840 C808 0.951 . S
H841 C809 0.950 . S
H842 C813 0.949 . S
H843 C814 0.950 . S
H844 C818 0.950 . S
H845 C820 0.950 . S
H846 C823 0.950 . S
H847 C825 0.950 . S
C848 C849 1.349 . S
C848 C850 1.327 . S
C848 H873 0.950 . S
C849 C848 1.349 . S
C849 C865 1.349 . S
C850 C848 1.327 . S
C850 C869 1.429 . S
C850 H874 0.950 . S
C851 C868 1.574 1_565 S
C851 C870 1.368 . S
C851 H875 0.949 . S
H852 C856 0.949 . S
C853 C854 1.349 . S
C853 C855 1.327 . S
C853 H876 0.950 . S
C854 C853 1.349 . S
C854 C866 1.349 . S
C855 C853 1.327 . S
C855 C871 1.429 . S
C855 H877 0.950 . S
C856 H852 0.949 . S
C856 C864 1.574 1_545 S
C856 C872 1.368 . S
H857 C865 0.950 . S
H858 C863 0.950 . S
H859 C864 0.949 . S
H860 C866 0.950 . S
H861 C867 0.950 . S
H862 C868 0.949 . S
C863 H858 0.950 . S
C863 C865 1.327 . S
C863 C869 1.429 . S
C864 C856 1.574 1_565 S
C864 H859 0.949 . S
C864 C870 1.368 . S
C865 C849 1.349 . S
C865 H857 0.950 . S
C865 C863 1.327 . S
C866 C854 1.349 . S
C866 H860 0.950 . S
C866 C867 1.327 . S
C867 H861 0.950 . S
C867 C866 1.327 . S
C867 C871 1.429 . S
C868 C851 1.574 1_545 S
C868 H862 0.949 . S
C868 C872 1.368 . S
C869 C850 1.429 . S
C869 C863 1.429 . S
C869 C870 1.523 . S
C870 C851 1.368 . S
C870 C864 1.368 . S
C870 C869 1.523 . S
C871 C855 1.429 . S
C871 C867 1.429 . S
C871 C872 1.523 . S
C872 C856 1.368 . S
C872 C868 1.368 . S
C872 C871 1.523 . S
H873 C848 0.950 . S
H874 C850 0.950 . S
H875 C851 0.949 . S
H876 C853 0.950 . S
H877 C855 0.950 . S
C878 C879 1.349 . S
C878 C880 1.327 . S
C878 H903 0.950 . S
C879 C878 1.349 . S
C879 C895 1.349 . S
C880 C878 1.327 . S
C880 C899 1.429 . S
C880 H904 0.950 . S
C881 C898 1.574 1_455 S
C881 C900 1.368 . S
C881 H905 0.949 . S
H882 C886 0.949 . S
C883 C884 1.349 . S
C883 C885 1.327 . S
C883 H906 0.950 . S
C884 C883 1.349 . S
C884 C896 1.349 . S
C885 C883 1.327 . S
C885 C901 1.429 . S
C885 H907 0.950 . S
C886 H882 0.949 . S
C886 C894 1.574 1_655 S
C886 C902 1.368 . S
H887 C895 0.950 . S
H888 C893 0.950 . S
H889 C894 0.949 . S
H890 C896 0.950 . S
H891 C897 0.950 . S
H892 C898 0.949 . S
C893 H888 0.950 . S
C893 C895 1.327 . S
C893 C899 1.429 . S
C894 C886 1.574 1_455 S
C894 H889 0.949 . S
C894 C900 1.368 . S
C895 C879 1.349 . S
C895 H887 0.950 . S
C895 C893 1.327 . S
C896 C884 1.349 . S
C896 H890 0.950 . S
C896 C897 1.327 . S
C897 H891 0.950 . S
C897 C896 1.327 . S
C897 C901 1.429 . S
C898 C881 1.574 1_655 S
C898 H892 0.949 . S
C898 C902 1.368 . S
C899 C880 1.429 . S
C899 C893 1.429 . S
C899 C900 1.523 . S
C900 C881 1.368 . S
C900 C894 1.368 . S
C900 C899 1.523 . S
C901 C885 1.429 . S
C901 C897 1.429 . S
C901 C902 1.523 . S
C902 C886 1.368 . S
C902 C898 1.368 . S
C902 C901 1.523 . S
H903 C878 0.950 . S
H904 C880 0.950 . S
H905 C881 0.949 . S
H906 C883 0.950 . S
H907 C885 0.950 . S
C908 C909 1.349 . S
C908 C910 1.327 . S
C908 H933 0.950 . S
C909 C908 1.349 . S
C909 C925 1.349 . S
C910 C908 1.327 . S
C910 C929 1.429 . S
C910 H934 0.950 . S
C911 C928 1.574 1_565 S
C911 C930 1.368 . S
C911 H935 0.949 . S
H912 C916 0.949 . S
C913 C914 1.349 . S
C913 C915 1.327 . S
C913 H936 0.950 . S
C914 C913 1.349 . S
C914 C926 1.349 . S
C915 C913 1.327 . S
C915 C931 1.429 . S
C915 H937 0.950 . S
C916 H912 0.949 . S
C916 C924 1.574 1_545 S
C916 C932 1.368 . S
H917 C925 0.950 . S
H918 C923 0.950 . S
H919 C924 0.949 . S
H920 C926 0.950 . S
H921 C927 0.950 . S
H922 C928 0.949 . S
C923 H918 0.950 . S
C923 C925 1.327 . S
C923 C929 1.429 . S
C924 C916 1.574 1_565 S
C924 H919 0.949 . S
C924 C930 1.368 . S
C925 C909 1.349 . S
C925 H917 0.950 . S
C925 C923 1.327 . S
C926 C914 1.349 . S
C926 H920 0.950 . S
C926 C927 1.327 . S
C927 H921 0.950 . S
C927 C926 1.327 . S
C927 C931 1.429 . S
C928 C911 1.574 1_545 S
C928 H922 0.949 . S
C928 C932 1.368 . S
C929 C910 1.429 . S
C929 C923 1.429 . S
C929 C930 1.523 . S
C930 C911 1.368 . S
C930 C924 1.368 . S
C930 C929 1.523 . S
C931 C915 1.429 . S
C931 C927 1.429 . S
C931 C932 1.523 . S
C932 C916 1.368 . S
C932 C928 1.368 . S
C932 C931 1.523 . S
H933 C908 0.950 . S
H934 C910 0.950 . S
H935 C911 0.949 . S
H936 C913 0.950 . S
H937 C915 0.950 . S
C938 C939 1.349 . S
C938 C940 1.327 . S
C938 H963 0.950 . S
C939 C938 1.349 . S
C939 C955 1.349 . S
C940 C938 1.327 . S
C940 C959 1.429 . S
C940 H964 0.950 . S
C941 C958 1.574 1_455 S
C941 C960 1.368 . S
C941 H965 0.949 . S
H942 C946 0.949 . S
C943 C944 1.349 . S
C943 C945 1.327 . S
C943 H966 0.950 . S
C944 C943 1.349 . S
C944 C956 1.349 . S
C945 C943 1.327 . S
C945 C961 1.429 . S
C945 H967 0.950 . S
C946 H942 0.949 . S
C946 C954 1.574 1_655 S
C946 C962 1.368 . S
H947 C955 0.950 . S
H948 C953 0.950 . S
H949 C954 0.949 . S
H950 C956 0.950 . S
H951 C957 0.950 . S
H952 C958 0.949 . S
C953 H948 0.950 . S
C953 C955 1.327 . S
C953 C959 1.429 . S
C954 C946 1.574 1_455 S
C954 H949 0.949 . S
C954 C960 1.368 . S
C955 C939 1.349 . S
C955 H947 0.950 . S
C955 C953 1.327 . S
C956 C944 1.349 . S
C956 H950 0.950 . S
C956 C957 1.327 . S
C957 H951 0.950 . S
C957 C956 1.327 . S
C957 C961 1.429 . S
C958 C941 1.574 1_655 S
C958 H952 0.949 . S
C958 C962 1.368 . S
C959 C940 1.429 . S
C959 C953 1.429 . S
C959 C960 1.523 . S
C960 C941 1.368 . S
C960 C954 1.368 . S
C960 C959 1.523 . S
C961 C945 1.429 . S
C961 C957 1.429 . S
C961 C962 1.523 . S
C962 C946 1.368 . S
C962 C958 1.368 . S
C962 C961 1.523 . S
H963 C938 0.950 . S
H964 C940 0.950 . S
H965 C941 0.949 . S
H966 C943 0.950 . S
H967 C945 0.950 . S
C968 C969 1.349 . S
C968 C970 1.327 . S
C968 H993 0.950 . S
C969 C968 1.349 . S
C969 C985 1.349 . S
C970 C968 1.327 . S
C970 C989 1.429 . S
C970 H994 0.950 1_554 S
C971 C988 1.574 . S
C971 C990 1.368 . S
C971 H995 0.949 . S
H972 C976 0.949 . S
C973 C974 1.349 1_554 S
C973 C975 1.327 . S
C973 H996 0.950 . S
C974 C973 1.349 1_556 S
C974 C986 1.349 . S
C975 C973 1.327 . S
C975 C991 1.429 . S
C975 H997 0.950 . S
C976 H972 0.949 . S
C976 C984 1.574 1_556 S
C976 C992 1.368 1_556 S
H977 C985 0.950 . S
H978 C983 0.950 . S
H979 C984 0.949 1_556 S
H980 C986 0.950 . S
H981 C987 0.950 . S
H982 C988 0.949 . S
C983 H978 0.950 . S
C983 C985 1.327 . S
C983 C989 1.429 . S
C984 C976 1.574 1_554 S
C984 H979 0.949 1_554 S
C984 C990 1.369 . S
C985 C969 1.349 . S
C985 H977 0.950 . S
C985 C983 1.327 . S
C986 C974 1.349 . S
C986 H980 0.950 . S
C986 C987 1.327 . S
C987 H981 0.950 . S
C987 C986 1.327 . S
C987 C991 1.429 1_556 S
C988 C971 1.574 . S
C988 H982 0.949 . S
C988 C992 1.368 . S
C989 C970 1.429 . S
C989 C983 1.429 . S
C989 C990 1.523 . S
C990 C971 1.368 . S
C990 C984 1.369 . S
C990 C989 1.523 . S
C991 C975 1.429 . S
C991 C987 1.429 1_554 S
C991 C992 1.523 . S
C992 C976 1.368 1_554 S
C992 C988 1.368 . S
C992 C991 1.523 . S
H993 C968 0.950 . S
H994 C970 0.950 1_556 S
H995 C971 0.949 . S
H996 C973 0.950 . S
H997 C975 0.950 . S
C998 C999 1.349 . S
C998 C1000 1.327 . S
C998 H1023 0.950 . S
C999 C998 1.349 . S
C999 C1015 1.349 . S
C1000 C998 1.327 . S
C1000 C1019 1.429 . S
C1000 H1024 0.950 . S
C1001 C1018 1.574 . S
C1001 C1020 1.368 . S
C1001 H1025 0.949 . S
H1002 C1006 0.949 1_554 S
C1003 C1004 1.349 1_556 S
C1003 C1005 1.327 . S
C1003 H1026 0.950 . S
C1004 C1003 1.349 1_554 S
C1004 C1016 1.349 . S
C1005 C1003 1.327 . S
C1005 C1021 1.429 . S
C1005 H1027 0.950 . S
C1006 H1002 0.949 1_556 S
C1006 C1014 1.574 . S
C1006 C1022 1.368 . S
H1007 C1015 0.950 . S
H1008 C1013 0.950 . S
H1009 C1014 0.949 . S
H1010 C1016 0.950 . S
H1011 C1017 0.950 . S
H1012 C1018 0.949 . S
C1013 H1008 0.950 . S
C1013 C1015 1.327 . S
C1013 C1019 1.429 . S
C1014 C1006 1.574 . S
C1014 H1009 0.949 . S
C1014 C1020 1.368 . S
C1015 C999 1.349 . S
C1015 H1007 0.950 . S
C1015 C1013 1.327 . S
C1016 C1004 1.349 . S
C1016 H1010 0.950 . S
C1016 C1017 1.327 . S
C1017 H1011 0.950 . S
C1017 C1016 1.327 . S
C1017 C1021 1.429 1_554 S
C1018 C1001 1.574 . S
C1018 H1012 0.949 . S
C1018 C1022 1.368 . S
C1019 C1000 1.429 . S
C1019 C1013 1.429 . S
C1019 C1020 1.523 . S
C1020 C1001 1.368 . S
C1020 C1014 1.368 . S
C1020 C1019 1.523 . S
C1021 C1005 1.429 . S
C1021 C1017 1.429 1_556 S
C1021 C1022 1.523 . S
C1022 C1006 1.368 . S
C1022 C1018 1.368 . S
C1022 C1021 1.523 . S
H1023 C998 0.950 . S
H1024 C1000 0.950 . S
H1025 C1001 0.949 . S
H1026 C1003 0.950 . S
H1027 C1005 0.950 . S
C1028 C1029 1.349 . S
C1028 C1030 1.327 . S
C1028 H1053 0.950 . S
C1029 C1028 1.349 . S
C1029 C1045 1.349 1_556 S
C1030 C1028 1.327 . S
C1030 C1049 1.429 1_556 S
C1030 H1054 0.950 . S
C1031 C1048 1.574 . S
C1031 C1050 1.368 . S
C1031 H1055 0.949 . S
H1032 C1036 0.948 1_556 S
C1033 C1034 1.349 . S
C1033 C1035 1.327 . S
C1033 H1056 0.950 . S
C1034 C1033 1.349 . S
C1034 C1046 1.349 . S
C1035 C1033 1.327 . S
C1035 C1051 1.429 . S
C1035 H1057 0.950 . S
C1036 H1032 0.948 1_554 S
C1036 C1044 1.573 1_554 S
C1036 C1052 1.369 . S
H1037 C1045 0.950 . S
H1038 C1043 0.950 . S
H1039 C1044 0.949 . S
H1040 C1046 0.950 . S
H1041 C1047 0.950 1_556 S
H1042 C1048 0.949 . S
C1043 H1038 0.950 . S
C1043 C1045 1.327 . S
C1043 C1049 1.429 . S
C1044 C1036 1.573 1_556 S
C1044 H1039 0.949 . S
C1044 C1050 1.368 1_556 S
C1045 C1029 1.349 1_554 S
C1045 H1037 0.950 . S
C1045 C1043 1.327 . S
C1046 C1034 1.349 . S
C1046 H1040 0.950 . S
C1046 C1047 1.327 . S
C1047 H1041 0.950 1_554 S
C1047 C1046 1.327 . S
C1047 C1051 1.429 . S
C1048 C1031 1.574 . S
C1048 H1042 0.949 . S
C1048 C1052 1.368 . S
C1049 C1030 1.429 1_554 S
C1049 C1043 1.429 . S
C1049 C1050 1.523 . S
C1050 C1031 1.368 . S
C1050 C1044 1.368 1_554 S
C1050 C1049 1.523 . S
C1051 C1035 1.429 . S
C1051 C1047 1.429 . S
C1051 C1052 1.523 . S
C1052 C1036 1.369 . S
C1052 C1048 1.368 . S
C1052 C1051 1.523 . S
H1053 C1028 0.950 . S
H1054 C1030 0.950 . S
H1055 C1031 0.949 . S
H1056 C1033 0.950 . S
H1057 C1035 0.950 . S
C1058 C1059 1.349 . S
C1058 C1060 1.327 . S
C1058 H1083 0.950 . S
C1059 C1058 1.349 . S
C1059 C1075 1.349 1_554 S
C1060 C1058 1.327 . S
C1060 C1079 1.429 1_554 S
C1060 H1084 0.950 . S
C1061 C1078 1.574 . S
C1061 C1080 1.368 . S
C1061 H1085 0.949 . S
H1062 C1066 0.949 . S
C1063 C1064 1.349 . S
C1063 C1065 1.327 . S
C1063 H1086 0.950 . S
C1064 C1063 1.349 . S
C1064 C1076 1.349 . S
C1065 C1063 1.327 . S
C1065 C1081 1.429 . S
C1065 H1087 0.950 . S
C1066 H1062 0.949 . S
C1066 C1074 1.574 . S
C1066 C1082 1.368 . S
H1067 C1075 0.950 . S
H1068 C1073 0.950 . S
H1069 C1074 0.949 . S
H1070 C1076 0.950 . S
H1071 C1077 0.950 . S
H1072 C1078 0.949 . S
C1073 H1068 0.950 . S
C1073 C1075 1.327 . S
C1073 C1079 1.429 . S
C1074 C1066 1.574 . S
C1074 H1069 0.949 . S
C1074 C1080 1.368 . S
C1075 C1059 1.349 1_556 S
C1075 H1067 0.950 . S
C1075 C1073 1.327 . S
C1076 C1064 1.349 . S
C1076 H1070 0.950 . S
C1076 C1077 1.327 . S
C1077 H1071 0.950 . S
C1077 C1076 1.327 . S
C1077 C1081 1.429 . S
C1078 C1061 1.574 . S
C1078 H1072 0.949 . S
C1078 C1082 1.368 . S
C1079 C1060 1.429 1_556 S
C1079 C1073 1.429 . S
C1079 C1080 1.523 . S
C1080 C1061 1.368 . S
C1080 C1074 1.368 . S
C1080 C1079 1.523 . S
C1081 C1065 1.429 . S
C1081 C1077 1.429 . S
C1081 C1082 1.523 . S
C1082 C1066 1.368 . S
C1082 C1078 1.368 . S
C1082 C1081 1.523 . S
H1083 C1058 0.950 . S
H1084 C1060 0.950 . S
H1085 C1061 0.949 . S
H1086 C1063 0.950 . S
H1087 C1065 0.950 . S
C1088 C1089 1.349 . S
C1088 C1090 1.327 . S
C1088 H1113 0.950 . S
C1089 C1088 1.349 . S
C1089 C1105 1.349 . S
C1090 C1088 1.327 . S
C1090 C1109 1.429 . S
C1090 H1114 0.950 . S
C1091 C1108 1.574 . S
C1091 C1110 1.368 . S
C1091 H1115 0.949 . S
H1092 C1096 0.949 . S
C1093 C1094 1.349 . S
C1093 C1095 1.327 . S
C1093 H1116 0.950 . S
C1094 C1093 1.349 . S
C1094 C1106 1.349 . S
C1095 C1093 1.327 . S
C1095 C1111 1.429 . S
C1095 H1117 0.950 . S
C1096 H1092 0.949 . S
C1096 C1104 1.574 . S
C1096 C1112 1.368 . S
H1097 C1105 0.950 . S
H1098 C1103 0.950 . S
H1099 C1104 0.949 . S
H1100 C1106 0.950 . S
H1101 C1107 0.950 . S
H1102 C1108 0.949 . S
C1103 H1098 0.950 . S
C1103 C1105 1.327 . S
C1103 C1109 1.429 . S
C1104 C1096 1.574 . S
C1104 H1099 0.949 . S
C1104 C1110 1.368 . S
C1105 C1089 1.349 . S
C1105 H1097 0.950 . S
C1105 C1103 1.327 . S
C1106 C1094 1.349 . S
C1106 H1100 0.950 . S
C1106 C1107 1.327 . S
C1107 H1101 0.950 . S
C1107 C1106 1.327 . S
C1107 C1111 1.429 . S
C1108 C1091 1.574 . S
C1108 H1102 0.949 . S
C1108 C1112 1.368 . S
C1109 C1090 1.429 . S
C1109 C1103 1.429 . S
C1109 C1110 1.523 . S
C1110 C1091 1.368 . S
C1110 C1104 1.368 . S
C1110 C1109 1.523 . S
C1111 C1095 1.429 . S
C1111 C1107 1.429 . S
C1111 C1112 1.523 . S
C1112 C1096 1.368 . S
C1112 C1108 1.368 . S
C1112 C1111 1.523 . S
H1113 C1088 0.950 . S
H1114 C1090 0.950 . S
H1115 C1091 0.949 . S
H1116 C1093 0.950 . S
H1117 C1095 0.950 . S
C1118 C1119 1.349 . S
C1118 C1120 1.327 . S
C1118 H1143 0.950 . S
C1119 C1118 1.349 . S
C1119 C1135 1.349 . S
C1120 C1118 1.327 . S
C1120 C1139 1.429 . S
C1120 H1144 0.950 . S
C1121 C1138 1.574 . S
C1121 C1140 1.368 . S
C1121 H1145 0.949 . S
H1122 C1126 0.949 . S
C1123 C1124 1.349 . S
C1123 C1125 1.327 . S
C1123 H1146 0.950 . S
C1124 C1123 1.349 . S
C1124 C1136 1.349 . S
C1125 C1123 1.327 . S
C1125 C1141 1.429 . S
C1125 H1147 0.950 . S
C1126 H1122 0.949 . S
C1126 C1134 1.574 . S
C1126 C1142 1.368 . S
H1127 C1135 0.950 . S
H1128 C1133 0.950 . S
H1129 C1134 0.949 . S
H1130 C1136 0.950 . S
H1131 C1137 0.950 . S
H1132 C1138 0.949 . S
C1133 H1128 0.950 . S
C1133 C1135 1.327 . S
C1133 C1139 1.429 . S
C1134 C1126 1.574 . S
C1134 H1129 0.949 . S
C1134 C1140 1.368 . S
C1135 C1119 1.349 . S
C1135 H1127 0.950 . S
C1135 C1133 1.327 . S
C1136 C1124 1.349 . S
C1136 H1130 0.950 . S
C1136 C1137 1.327 . S
C1137 H1131 0.950 . S
C1137 C1136 1.327 . S
C1137 C1141 1.429 . S
C1138 C1121 1.574 . S
C1138 H1132 0.949 . S
C1138 C1142 1.368 . S
C1139 C1120 1.429 . S
C1139 C1133 1.429 . S
C1139 C1140 1.523 . S
C1140 C1121 1.368 . S
C1140 C1134 1.368 . S
C1140 C1139 1.523 . S
C1141 C1125 1.429 . S
C1141 C1137 1.429 . S
C1141 C1142 1.523 . S
C1142 C1126 1.368 . S
C1142 C1138 1.368 . S
C1142 C1141 1.523 . S
H1143 C1118 0.950 . S
H1144 C1120 0.950 . S
H1145 C1121 0.949 . S
H1146 C1123 0.950 . S
H1147 C1125 0.950 . S
C1148 C1149 1.349 . S
C1148 C1150 1.327 . S
C1148 H1173 0.950 . S
C1149 C1148 1.349 . S
C1149 C1165 1.349 . S
C1150 C1148 1.327 . S
C1150 C1169 1.429 . S
C1150 H1174 0.950 . S
C1151 C1168 1.574 . S
C1151 C1170 1.368 . S
C1151 H1175 0.949 . S
H1152 C1156 0.949 . S
C1153 C1154 1.349 . S
C1153 C1155 1.327 . S
C1153 H1176 0.950 . S
C1154 C1153 1.349 . S
C1154 C1166 1.349 . S
C1155 C1153 1.327 . S
C1155 C1171 1.429 . S
C1155 H1177 0.950 . S
C1156 H1152 0.949 . S
C1156 C1164 1.574 . S
C1156 C1172 1.368 . S
H1157 C1165 0.950 . S
H1158 C1163 0.950 . S
H1159 C1164 0.949 . S
H1160 C1166 0.950 . S
H1161 C1167 0.950 . S
H1162 C1168 0.949 . S
C1163 H1158 0.950 . S
C1163 C1165 1.327 . S
C1163 C1169 1.429 . S
C1164 C1156 1.574 . S
C1164 H1159 0.949 . S
C1164 C1170 1.368 . S
C1165 C1149 1.349 . S
C1165 H1157 0.950 . S
C1165 C1163 1.327 . S
C1166 C1154 1.349 . S
C1166 H1160 0.950 . S
C1166 C1167 1.327 . S
C1167 H1161 0.950 . S
C1167 C1166 1.327 . S
C1167 C1171 1.429 . S
C1168 C1151 1.574 . S
C1168 H1162 0.949 . S
C1168 C1172 1.368 . S
C1169 C1150 1.429 . S
C1169 C1163 1.429 . S
C1169 C1170 1.523 . S
C1170 C1151 1.368 . S
C1170 C1164 1.368 . S
C1170 C1169 1.523 . S
C1171 C1155 1.429 . S
C1171 C1167 1.429 . S
C1171 C1172 1.523 . S
C1172 C1156 1.368 . S
C1172 C1168 1.368 . S
C1172 C1171 1.523 . S
H1173 C1148 0.950 . S
H1174 C1150 0.950 . S
H1175 C1151 0.949 . S
H1176 C1153 0.950 . S
H1177 C1155 0.950 . S
C1178 C1179 1.349 . S
C1178 C1180 1.327 . S
C1178 H1203 0.950 . S
C1179 C1178 1.349 . S
C1179 C1195 1.349 . S
C1180 C1178 1.327 . S
C1180 C1199 1.429 . S
C1180 H1204 0.950 . S
C1181 C1198 1.574 . S
C1181 C1200 1.368 . S
C1181 H1205 0.949 . S
H1182 C1186 0.949 . S
C1183 C1184 1.349 . S
C1183 C1185 1.327 . S
C1183 H1206 0.950 . S
C1184 C1183 1.349 . S
C1184 C1196 1.349 . S
C1185 C1183 1.327 . S
C1185 C1201 1.429 . S
C1185 H1207 0.950 . S
C1186 H1182 0.949 . S
C1186 C1194 1.574 . S
C1186 C1202 1.368 . S
H1187 C1195 0.950 . S
H1188 C1193 0.950 . S
H1189 C1194 0.949 . S
H1190 C1196 0.950 . S
H1191 C1197 0.950 . S
H1192 C1198 0.949 . S
C1193 H1188 0.950 . S
C1193 C1195 1.327 . S
C1193 C1199 1.429 . S
C1194 C1186 1.574 . S
C1194 H1189 0.949 . S
C1194 C1200 1.368 . S
C1195 C1179 1.349 . S
C1195 H1187 0.950 . S
C1195 C1193 1.327 . S
C1196 C1184 1.349 . S
C1196 H1190 0.950 . S
C1196 C1197 1.327 . S
C1197 H1191 0.950 . S
C1197 C1196 1.327 . S
C1197 C1201 1.429 . S
C1198 C1181 1.574 . S
C1198 H1192 0.949 . S
C1198 C1202 1.368 . S
C1199 C1180 1.429 . S
C1199 C1193 1.429 . S
C1199 C1200 1.523 . S
C1200 C1181 1.368 . S
C1200 C1194 1.368 . S
C1200 C1199 1.523 . S
C1201 C1185 1.429 . S
C1201 C1197 1.429 . S
C1201 C1202 1.523 . S
C1202 C1186 1.368 . S
C1202 C1198 1.368 . S
C1202 C1201 1.523 . S
H1203 C1178 0.950 . S
H1204 C1180 0.950 . S
H1205 C1181 0.949 . S
H1206 C1183 0.950 . S
H1207 C1185 0.950 . S
C1208 C1209 1.349 . S
C1208 C1210 1.327 . S
C1208 H1233 0.950 . S
C1209 C1208 1.349 . S
C1209 C1225 1.349 . S
C1210 C1208 1.327 . S
C1210 C1229 1.429 . S
C1210 H1234 0.950 . S
C1211 C1228 1.574 1_565 S
C1211 C1230 1.368 . S
C1211 H1235 0.949 . S
H1212 C1216 0.949 . S
C1213 C1214 1.349 . S
C1213 C1215 1.327 . S
C1213 H1236 0.950 . S
C1214 C1213 1.349 . S
C1214 C1226 1.349 . S
C1215 C1213 1.327 . S
C1215 C1231 1.429 . S
C1215 H1237 0.950 . S
C1216 H1212 0.949 . S
C1216 C1224 1.574 1_545 S
C1216 C1232 1.368 . S
H1217 C1225 0.950 . S
H1218 C1223 0.950 . S
H1219 C1224 0.949 . S
H1220 C1226 0.950 . S
H1221 C1227 0.950 . S
H1222 C1228 0.949 . S
C1223 H1218 0.950 . S
C1223 C1225 1.327 . S
C1223 C1229 1.429 . S
C1224 C1216 1.574 1_565 S
C1224 H1219 0.949 . S
C1224 C1230 1.368 . S
C1225 C1209 1.349 . S
C1225 H1217 0.950 . S
C1225 C1223 1.327 . S
C1226 C1214 1.349 . S
C1226 H1220 0.950 . S
C1226 C1227 1.327 . S
C1227 H1221 0.950 . S
C1227 C1226 1.327 . S
C1227 C1231 1.429 . S
C1228 C1211 1.574 1_545 S
C1228 H1222 0.949 . S
C1228 C1232 1.368 . S
C1229 C1210 1.429 . S
C1229 C1223 1.429 . S
C1229 C1230 1.523 . S
C1230 C1211 1.368 . S
C1230 C1224 1.368 . S
C1230 C1229 1.523 . S
C1231 C1215 1.429 . S
C1231 C1227 1.429 . S
C1231 C1232 1.523 . S
C1232 C1216 1.368 . S
C1232 C1228 1.368 . S
C1232 C1231 1.523 . S
H1233 C1208 0.950 . S
H1234 C1210 0.950 . S
H1235 C1211 0.949 . S
H1236 C1213 0.950 . S
H1237 C1215 0.950 . S
C1238 C1239 1.349 . S
C1238 C1240 1.327 . S
C1238 H1263 0.950 . S
C1239 C1238 1.349 . S
C1239 C1255 1.349 . S
C1240 C1238 1.327 . S
C1240 C1259 1.429 . S
C1240 H1264 0.950 . S
C1241 C1258 1.574 1_655 S
C1241 C1260 1.368 . S
C1241 H1265 0.949 . S
H1242 C1246 0.949 . S
C1243 C1244 1.349 . S
C1243 C1245 1.327 . S
C1243 H1266 0.950 . S
C1244 C1243 1.349 . S
C1244 C1256 1.349 . S
C1245 C1243 1.327 . S
C1245 C1261 1.429 . S
C1245 H1267 0.950 . S
C1246 H1242 0.949 . S
C1246 C1254 1.574 1_455 S
C1246 C1262 1.368 . S
H1247 C1255 0.950 . S
H1248 C1253 0.950 . S
H1249 C1254 0.949 . S
H1250 C1256 0.950 . S
H1251 C1257 0.950 . S
H1252 C1258 0.949 . S
C1253 H1248 0.950 . S
C1253 C1255 1.327 . S
C1253 C1259 1.429 . S
C1254 C1246 1.574 1_655 S
C1254 H1249 0.949 . S
C1254 C1260 1.368 . S
C1255 C1239 1.349 . S
C1255 H1247 0.950 . S
C1255 C1253 1.327 . S
C1256 C1244 1.349 . S
C1256 H1250 0.950 . S
C1256 C1257 1.327 . S
C1257 H1251 0.950 . S
C1257 C1256 1.327 . S
C1257 C1261 1.429 . S
C1258 C1241 1.574 1_455 S
C1258 H1252 0.949 . S
C1258 C1262 1.368 . S
C1259 C1240 1.429 . S
C1259 C1253 1.429 . S
C1259 C1260 1.523 . S
C1260 C1241 1.368 . S
C1260 C1254 1.368 . S
C1260 C1259 1.523 . S
C1261 C1245 1.429 . S
C1261 C1257 1.429 . S
C1261 C1262 1.523 . S
C1262 C1246 1.368 . S
C1262 C1258 1.368 . S
C1262 C1261 1.523 . S
H1263 C1238 0.950 . S
H1264 C1240 0.950 . S
H1265 C1241 0.949 . S
H1266 C1243 0.950 . S
H1267 C1245 0.950 . S
C1268 C1269 1.349 . S
C1268 C1270 1.327 . S
C1268 H1293 0.950 . S
C1269 C1268 1.349 . S
C1269 C1285 1.349 . S
C1270 C1268 1.327 . S
C1270 C1289 1.429 . S
C1270 H1294 0.950 . S
C1271 C1288 1.574 1_565 S
C1271 C1290 1.368 . S
C1271 H1295 0.949 . S
H1272 C1276 0.949 . S
C1273 C1274 1.349 . S
C1273 C1275 1.327 . S
C1273 H1296 0.950 . S
C1274 C1273 1.349 . S
C1274 C1286 1.349 . S
C1275 C1273 1.327 . S
C1275 C1291 1.429 . S
C1275 H1297 0.950 . S
C1276 H1272 0.949 . S
C1276 C1284 1.574 1_545 S
C1276 C1292 1.368 . S
H1277 C1285 0.950 . S
H1278 C1283 0.950 . S
H1279 C1284 0.949 . S
H1280 C1286 0.950 . S
H1281 C1287 0.950 . S
H1282 C1288 0.949 . S
C1283 H1278 0.950 . S
C1283 C1285 1.327 . S
C1283 C1289 1.429 . S
C1284 C1276 1.574 1_565 S
C1284 H1279 0.949 . S
C1284 C1290 1.368 . S
C1285 C1269 1.349 . S
C1285 H1277 0.950 . S
C1285 C1283 1.327 . S
C1286 C1274 1.349 . S
C1286 H1280 0.950 . S
C1286 C1287 1.327 . S
C1287 H1281 0.950 . S
C1287 C1286 1.327 . S
C1287 C1291 1.429 . S
C1288 C1271 1.574 1_545 S
C1288 H1282 0.949 . S
C1288 C1292 1.368 . S
C1289 C1270 1.429 . S
C1289 C1283 1.429 . S
C1289 C1290 1.523 . S
C1290 C1271 1.368 . S
C1290 C1284 1.368 . S
C1290 C1289 1.523 . S
C1291 C1275 1.429 . S
C1291 C1287 1.429 . S
C1291 C1292 1.523 . S
C1292 C1276 1.368 . S
C1292 C1288 1.368 . S
C1292 C1291 1.523 . S
H1293 C1268 0.950 . S
H1294 C1270 0.950 . S
H1295 C1271 0.949 . S
H1296 C1273 0.950 . S
H1297 C1275 0.950 . S
C1298 C1299 1.349 . S
C1298 C1300 1.327 . S
C1298 H1323 0.950 . S
C1299 C1298 1.349 . S
C1299 C1315 1.349 . S
C1300 C1298 1.327 . S
C1300 C1319 1.429 . S
C1300 H1324 0.950 . S
C1301 C1318 1.574 1_655 S
C1301 C1320 1.368 . S
C1301 H1325 0.949 . S
H1302 C1306 0.949 . S
C1303 C1304 1.349 . S
C1303 C1305 1.327 . S
C1303 H1326 0.950 . S
C1304 C1303 1.349 . S
C1304 C1316 1.349 . S
C1305 C1303 1.327 . S
C1305 C1321 1.429 . S
C1305 H1327 0.950 . S
C1306 H1302 0.949 . S
C1306 C1314 1.574 1_455 S
C1306 C1322 1.368 . S
H1307 C1315 0.950 . S
H1308 C1313 0.950 . S
H1309 C1314 0.949 . S
H1310 C1316 0.950 . S
H1311 C1317 0.950 . S
H1312 C1318 0.949 . S
C1313 H1308 0.950 . S
C1313 C1315 1.327 . S
C1313 C1319 1.429 . S
C1314 C1306 1.574 1_655 S
C1314 H1309 0.949 . S
C1314 C1320 1.368 . S
C1315 C1299 1.349 . S
C1315 H1307 0.950 . S
C1315 C1313 1.327 . S
C1316 C1304 1.349 . S
C1316 H1310 0.950 . S
C1316 C1317 1.327 . S
C1317 H1311 0.950 . S
C1317 C1316 1.327 . S
C1317 C1321 1.429 . S
C1318 C1301 1.574 1_455 S
C1318 H1312 0.949 . S
C1318 C1322 1.368 . S
C1319 C1300 1.429 . S
C1319 C1313 1.429 . S
C1319 C1320 1.523 . S
C1320 C1301 1.368 . S
C1320 C1314 1.368 . S
C1320 C1319 1.523 . S
C1321 C1305 1.429 . S
C1321 C1317 1.429 . S
C1321 C1322 1.523 . S
C1322 C1306 1.368 . S
C1322 C1318 1.368 . S
C1322 C1321 1.523 . S
H1323 C1298 0.950 . S
H1324 C1300 0.950 . S
H1325 C1301 0.949 . S
H1326 C1303 0.950 . S
H1327 C1305 0.950 . S
C1328 C1329 1.349 . S
C1328 C1330 1.327 . S
C1328 H1353 0.950 . S
C1329 C1328 1.349 . S
C1329 C1345 1.349 . S
C1330 C1328 1.327 . S
C1330 C1349 1.429 . S
C1330 H1354 0.950 . S
C1331 C1348 1.574 . S
C1331 C1350 1.368 . S
C1331 H1355 0.949 . S
H1332 C1336 0.949 . S
C1333 C1334 1.349 . S
C1333 C1335 1.327 . S
C1333 H1356 0.950 . S
C1334 C1333 1.349 . S
C1334 C1346 1.349 . S
C1335 C1333 1.327 . S
C1335 C1351 1.429 . S
C1335 H1357 0.950 . S
C1336 H1332 0.949 . S
C1336 C1344 1.574 . S
C1336 C1352 1.368 . S
H1337 C1345 0.950 . S
H1338 C1343 0.950 . S
H1339 C1344 0.949 . S
H1340 C1346 0.950 . S
H1341 C1347 0.950 . S
H1342 C1348 0.949 . S
C1343 H1338 0.950 . S
C1343 C1345 1.327 . S
C1343 C1349 1.429 . S
C1344 C1336 1.574 . S
C1344 H1339 0.949 . S
C1344 C1350 1.368 . S
C1345 C1329 1.349 . S
C1345 H1337 0.950 . S
C1345 C1343 1.327 . S
C1346 C1334 1.349 . S
C1346 H1340 0.950 . S
C1346 C1347 1.327 . S
C1347 H1341 0.950 . S
C1347 C1346 1.327 . S
C1347 C1351 1.429 . S
C1348 C1331 1.574 . S
C1348 H1342 0.949 . S
C1348 C1352 1.368 . S
C1349 C1330 1.429 . S
C1349 C1343 1.429 . S
C1349 C1350 1.523 . S
C1350 C1331 1.368 . S
C1350 C1344 1.368 . S
C1350 C1349 1.523 . S
C1351 C1335 1.429 . S
C1351 C1347 1.429 . S
C1351 C1352 1.523 . S
C1352 C1336 1.368 . S
C1352 C1348 1.368 . S
C1352 C1351 1.523 . S
H1353 C1328 0.950 . S
H1354 C1330 0.950 . S
H1355 C1331 0.949 . S
H1356 C1333 0.950 . S
H1357 C1335 0.950 . S
C1358 C1359 1.349 . S
C1358 C1360 1.327 . S
C1358 H1383 0.950 . S
C1359 C1358 1.349 . S
C1359 C1375 1.349 . S
C1360 C1358 1.327 . S
C1360 C1379 1.429 . S
C1360 H1384 0.950 . S
C1361 C1378 1.574 . S
C1361 C1380 1.368 . S
C1361 H1385 0.949 . S
H1362 C1366 0.949 . S
C1363 C1364 1.349 . S
C1363 C1365 1.327 . S
C1363 H1386 0.950 . S
C1364 C1363 1.349 . S
C1364 C1376 1.349 . S
C1365 C1363 1.327 . S
C1365 C1381 1.429 . S
C1365 H1387 0.950 . S
C1366 H1362 0.949 . S
C1366 C1374 1.574 . S
C1366 C1382 1.368 . S
H1367 C1375 0.950 . S
H1368 C1373 0.950 . S
H1369 C1374 0.949 . S
H1370 C1376 0.950 . S
H1371 C1377 0.950 . S
H1372 C1378 0.949 . S
C1373 H1368 0.950 . S
C1373 C1375 1.327 . S
C1373 C1379 1.429 . S
C1374 C1366 1.574 . S
C1374 H1369 0.949 . S
C1374 C1380 1.368 . S
C1375 C1359 1.349 . S
C1375 H1367 0.950 . S
C1375 C1373 1.327 . S
C1376 C1364 1.349 . S
C1376 H1370 0.950 . S
C1376 C1377 1.327 . S
C1377 H1371 0.950 . S
C1377 C1376 1.327 . S
C1377 C1381 1.429 . S
C1378 C1361 1.574 . S
C1378 H1372 0.949 . S
C1378 C1382 1.368 . S
C1379 C1360 1.429 . S
C1379 C1373 1.429 . S
C1379 C1380 1.523 . S
C1380 C1361 1.368 . S
C1380 C1374 1.368 . S
C1380 C1379 1.523 . S
C1381 C1365 1.429 . S
C1381 C1377 1.429 . S
C1381 C1382 1.523 . S
C1382 C1366 1.368 . S
C1382 C1378 1.368 . S
C1382 C1381 1.523 . S
H1383 C1358 0.950 . S
H1384 C1360 0.950 . S
H1385 C1361 0.949 . S
H1386 C1363 0.950 . S
H1387 C1365 0.950 . S
C1388 C1389 1.349 . S
C1388 C1390 1.327 . S
C1388 H1413 0.950 . S
C1389 C1388 1.349 . S
C1389 C1405 1.349 . S
C1390 C1388 1.327 . S
C1390 C1409 1.429 . S
C1390 H1414 0.950 . S
C1391 C1408 1.574 . S
C1391 C1410 1.368 . S
C1391 H1415 0.949 . S
H1392 C1396 0.949 . S
C1393 C1394 1.349 . S
C1393 C1395 1.327 . S
C1393 H1416 0.950 . S
C1394 C1393 1.349 . S
C1394 C1406 1.349 . S
C1395 C1393 1.327 . S
C1395 C1411 1.429 . S
C1395 H1417 0.950 . S
C1396 H1392 0.949 . S
C1396 C1404 1.574 . S
C1396 C1412 1.368 . S
H1397 C1405 0.950 . S
H1398 C1403 0.950 . S
H1399 C1404 0.949 . S
H1400 C1406 0.950 . S
H1401 C1407 0.950 . S
H1402 C1408 0.949 . S
C1403 H1398 0.950 . S
C1403 C1405 1.327 . S
C1403 C1409 1.429 . S
C1404 C1396 1.574 . S
C1404 H1399 0.949 . S
C1404 C1410 1.368 . S
C1405 C1389 1.349 . S
C1405 H1397 0.950 . S
C1405 C1403 1.327 . S
C1406 C1394 1.349 . S
C1406 H1400 0.950 . S
C1406 C1407 1.327 . S
C1407 H1401 0.950 . S
C1407 C1406 1.327 . S
C1407 C1411 1.429 . S
C1408 C1391 1.574 . S
C1408 H1402 0.949 . S
C1408 C1412 1.368 . S
C1409 C1390 1.429 . S
C1409 C1403 1.429 . S
C1409 C1410 1.523 . S
C1410 C1391 1.368 . S
C1410 C1404 1.368 . S
C1410 C1409 1.523 . S
C1411 C1395 1.429 . S
C1411 C1407 1.429 . S
C1411 C1412 1.523 . S
C1412 C1396 1.368 . S
C1412 C1408 1.368 . S
C1412 C1411 1.523 . S
H1413 C1388 0.950 . S
H1414 C1390 0.950 . S
H1415 C1391 0.949 . S
H1416 C1393 0.950 . S
H1417 C1395 0.950 . S
C1418 C1419 1.349 . S
C1418 C1420 1.327 . S
C1418 H1443 0.950 . S
C1419 C1418 1.349 . S
C1419 C1435 1.349 . S
C1420 C1418 1.327 . S
C1420 C1439 1.429 . S
C1420 H1444 0.950 . S
C1421 C1438 1.574 . S
C1421 C1440 1.368 . S
C1421 H1445 0.949 . S
H1422 C1426 0.949 . S
C1423 C1424 1.349 . S
C1423 C1425 1.327 . S
C1423 H1446 0.950 . S
C1424 C1423 1.349 . S
C1424 C1436 1.349 . S
C1425 C1423 1.327 . S
C1425 C1441 1.429 . S
C1425 H1447 0.950 . S
C1426 H1422 0.949 . S
C1426 C1434 1.574 . S
C1426 C1442 1.368 . S
H1427 C1435 0.950 . S
H1428 C1433 0.950 . S
H1429 C1434 0.949 . S
H1430 C1436 0.950 . S
H1431 C1437 0.950 . S
H1432 C1438 0.949 . S
C1433 H1428 0.950 . S
C1433 C1435 1.327 . S
C1433 C1439 1.429 . S
C1434 C1426 1.574 . S
C1434 H1429 0.949 . S
C1434 C1440 1.368 . S
C1435 C1419 1.349 . S
C1435 H1427 0.950 . S
C1435 C1433 1.327 . S
C1436 C1424 1.349 . S
C1436 H1430 0.950 . S
C1436 C1437 1.327 . S
C1437 H1431 0.950 . S
C1437 C1436 1.327 . S
C1437 C1441 1.429 . S
C1438 C1421 1.574 . S
C1438 H1432 0.949 . S
C1438 C1442 1.368 . S
C1439 C1420 1.429 . S
C1439 C1433 1.429 . S
C1439 C1440 1.523 . S
C1440 C1421 1.368 . S
C1440 C1434 1.368 . S
C1440 C1439 1.523 . S
C1441 C1425 1.429 . S
C1441 C1437 1.429 . S
C1441 C1442 1.523 . S
C1442 C1426 1.368 . S
C1442 C1438 1.368 . S
C1442 C1441 1.523 . S
H1443 C1418 0.950 . S
H1444 C1420 0.950 . S
H1445 C1421 0.949 . S
H1446 C1423 0.950 . S
H1447 C1425 0.950 . S
C1448 C1449 1.349 . S
C1448 C1450 1.327 . S
C1448 H1473 0.950 . S
C1449 C1448 1.349 . S
C1449 C1465 1.349 . S
C1450 C1448 1.327 . S
C1450 C1469 1.429 . S
C1450 H1474 0.950 . S
C1451 C1468 1.574 . S
C1451 C1470 1.368 . S
C1451 H1475 0.949 . S
H1452 C1456 0.949 . S
C1453 C1454 1.349 . S
C1453 C1455 1.327 . S
C1453 H1476 0.950 . S
C1454 C1453 1.349 . S
C1454 C1466 1.349 . S
C1455 C1453 1.327 . S
C1455 C1471 1.429 . S
C1455 H1477 0.950 . S
C1456 H1452 0.949 . S
C1456 C1464 1.574 . S
C1456 C1472 1.368 . S
H1457 C1465 0.950 . S
H1458 C1463 0.950 . S
H1459 C1464 0.949 . S
H1460 C1466 0.950 . S
H1461 C1467 0.950 . S
H1462 C1468 0.949 . S
C1463 H1458 0.950 . S
C1463 C1465 1.327 . S
C1463 C1469 1.429 . S
C1464 C1456 1.574 . S
C1464 H1459 0.949 . S
C1464 C1470 1.368 . S
C1465 C1449 1.349 . S
C1465 H1457 0.950 . S
C1465 C1463 1.327 . S
C1466 C1454 1.349 . S
C1466 H1460 0.950 . S
C1466 C1467 1.327 . S
C1467 H1461 0.950 . S
C1467 C1466 1.327 . S
C1467 C1471 1.429 . S
C1468 C1451 1.574 . S
C1468 H1462 0.949 . S
C1468 C1472 1.368 . S
C1469 C1450 1.429 . S
C1469 C1463 1.429 . S
C1469 C1470 1.523 . S
C1470 C1451 1.368 . S
C1470 C1464 1.368 . S
C1470 C1469 1.523 . S
C1471 C1455 1.429 . S
C1471 C1467 1.429 . S
C1471 C1472 1.523 . S
C1472 C1456 1.368 . S
C1472 C1468 1.368 . S
C1472 C1471 1.523 . S
H1473 C1448 0.950 . S
H1474 C1450 0.950 . S
H1475 C1451 0.949 . S
H1476 C1453 0.950 . S
H1477 C1455 0.950 . S
C1478 C1479 1.349 . S
C1478 C1480 1.327 . S
C1478 H1503 0.950 . S
C1479 C1478 1.349 . S
C1479 C1495 1.349 . S
C1480 C1478 1.327 . S
C1480 C1499 1.429 . S
C1480 H1504 0.950 . S
C1481 C1498 1.574 . S
C1481 C1500 1.368 . S
C1481 H1505 0.949 . S
H1482 C1486 0.949 . S
C1483 C1484 1.349 . S
C1483 C1485 1.327 . S
C1483 H1506 0.950 . S
C1484 C1483 1.349 . S
C1484 C1496 1.349 . S
C1485 C1483 1.327 . S
C1485 C1501 1.429 . S
C1485 H1507 0.950 . S
C1486 H1482 0.949 . S
C1486 C1494 1.574 . S
C1486 C1502 1.368 . S
H1487 C1495 0.950 . S
H1488 C1493 0.950 . S
H1489 C1494 0.949 . S
H1490 C1496 0.950 . S
H1491 C1497 0.950 . S
H1492 C1498 0.949 . S
C1493 H1488 0.950 . S
C1493 C1495 1.327 . S
C1493 C1499 1.429 . S
C1494 C1486 1.574 . S
C1494 H1489 0.949 . S
C1494 C1500 1.368 . S
C1495 C1479 1.349 . S
C1495 H1487 0.950 . S
C1495 C1493 1.327 . S
C1496 C1484 1.349 . S
C1496 H1490 0.950 . S
C1496 C1497 1.327 . S
C1497 H1491 0.950 . S
C1497 C1496 1.327 . S
C1497 C1501 1.429 . S
C1498 C1481 1.574 . S
C1498 H1492 0.949 . S
C1498 C1502 1.368 . S
C1499 C1480 1.429 . S
C1499 C1493 1.429 . S
C1499 C1500 1.523 . S
C1500 C1481 1.368 . S
C1500 C1494 1.368 . S
C1500 C1499 1.523 . S
C1501 C1485 1.429 . S
C1501 C1497 1.429 . S
C1501 C1502 1.523 . S
C1502 C1486 1.368 . S
C1502 C1498 1.368 . S
C1502 C1501 1.523 . S
H1503 C1478 0.950 . S
H1504 C1480 0.950 . S
H1505 C1481 0.949 . S
H1506 C1483 0.950 . S
H1507 C1485 0.950 . S
C1508 C1509 1.349 . S
C1508 C1510 1.327 . S
C1508 H1533 0.950 . S
C1509 C1508 1.349 . S
C1509 C1525 1.349 . S
C1510 C1508 1.327 . S
C1510 C1529 1.429 . S
C1510 H1534 0.950 . S
C1511 C1528 1.574 . S
C1511 C1530 1.368 . S
C1511 H1535 0.949 . S
H1512 C1516 0.949 . S
C1513 C1514 1.349 . S
C1513 C1515 1.327 . S
C1513 H1536 0.950 . S
C1514 C1513 1.349 . S
C1514 C1526 1.349 . S
C1515 C1513 1.327 . S
C1515 C1531 1.429 . S
C1515 H1537 0.950 . S
C1516 H1512 0.949 . S
C1516 C1524 1.574 . S
C1516 C1532 1.368 . S
H1517 C1525 0.950 . S
H1518 C1523 0.950 . S
H1519 C1524 0.949 . S
H1520 C1526 0.950 . S
H1521 C1527 0.950 . S
H1522 C1528 0.949 . S
C1523 H1518 0.950 . S
C1523 C1525 1.327 . S
C1523 C1529 1.429 . S
C1524 C1516 1.574 . S
C1524 H1519 0.949 . S
C1524 C1530 1.368 . S
C1525 C1509 1.349 . S
C1525 H1517 0.950 . S
C1525 C1523 1.327 . S
C1526 C1514 1.349 . S
C1526 H1520 0.950 . S
C1526 C1527 1.327 . S
C1527 H1521 0.950 . S
C1527 C1526 1.327 . S
C1527 C1531 1.429 . S
C1528 C1511 1.574 . S
C1528 H1522 0.949 . S
C1528 C1532 1.368 . S
C1529 C1510 1.429 . S
C1529 C1523 1.429 . S
C1529 C1530 1.523 . S
C1530 C1511 1.368 . S
C1530 C1524 1.368 . S
C1530 C1529 1.523 . S
C1531 C1515 1.429 . S
C1531 C1527 1.429 . S
C1531 C1532 1.523 . S
C1532 C1516 1.368 . S
C1532 C1528 1.368 . S
C1532 C1531 1.523 . S
H1533 C1508 0.950 . S
H1534 C1510 0.950 . S
H1535 C1511 0.949 . S
H1536 C1513 0.950 . S
H1537 C1515 0.950 . S
C1538 C1539 1.349 . S
C1538 C1540 1.327 . S
C1538 H1563 0.950 . S
C1539 C1538 1.349 . S
C1539 C1555 1.349 . S
C1540 C1538 1.327 . S
C1540 C1559 1.429 . S
C1540 H1564 0.950 . S
C1541 C1558 1.574 . S
C1541 C1560 1.368 . S
C1541 H1565 0.949 . S
H1542 C1546 0.949 . S
C1543 C1544 1.349 . S
C1543 C1545 1.327 . S
C1543 H1566 0.950 . S
C1544 C1543 1.349 . S
C1544 C1556 1.349 . S
C1545 C1543 1.327 . S
C1545 C1561 1.429 . S
C1545 H1567 0.950 . S
C1546 H1542 0.949 . S
C1546 C1554 1.574 . S
C1546 C1562 1.368 . S
H1547 C1555 0.950 . S
H1548 C1553 0.950 . S
H1549 C1554 0.949 . S
H1550 C1556 0.950 . S
H1551 C1557 0.950 . S
H1552 C1558 0.949 . S
C1553 H1548 0.950 . S
C1553 C1555 1.327 . S
C1553 C1559 1.429 . S
C1554 C1546 1.574 . S
C1554 H1549 0.949 . S
C1554 C1560 1.368 . S
C1555 C1539 1.349 . S
C1555 H1547 0.950 . S
C1555 C1553 1.327 . S
C1556 C1544 1.349 . S
C1556 H1550 0.950 . S
C1556 C1557 1.327 . S
C1557 H1551 0.950 . S
C1557 C1556 1.327 . S
C1557 C1561 1.429 . S
C1558 C1541 1.574 . S
C1558 H1552 0.949 . S
C1558 C1562 1.368 . S
C1559 C1540 1.429 . S
C1559 C1553 1.429 . S
C1559 C1560 1.523 . S
C1560 C1541 1.368 . S
C1560 C1554 1.368 . S
C1560 C1559 1.523 . S
C1561 C1545 1.429 . S
C1561 C1557 1.429 . S
C1561 C1562 1.523 . S
C1562 C1546 1.368 . S
C1562 C1558 1.368 . S
C1562 C1561 1.523 . S
H1563 C1538 0.950 . S
H1564 C1540 0.950 . S
H1565 C1541 0.949 . S
H1566 C1543 0.950 . S
H1567 C1545 0.950 . S
C1568 C1569 1.349 . S
C1568 C1570 1.327 . S
C1568 H1593 0.950 . S
C1569 C1568 1.349 . S
C1569 C1585 1.349 . S
C1570 C1568 1.327 . S
C1570 C1589 1.429 . S
C1570 H1594 0.950 . S
C1571 C1588 1.574 . S
C1571 C1590 1.368 . S
C1571 H1595 0.949 . S
H1572 C1576 0.949 . S
C1573 C1574 1.349 1_556 S
C1573 C1575 1.327 . S
C1573 H1596 0.950 . S
C1574 C1573 1.349 1_554 S
C1574 C1586 1.349 . S
C1575 C1573 1.327 . S
C1575 C1591 1.429 . S
C1575 H1597 0.950 . S
C1576 H1572 0.949 . S
C1576 C1584 1.574 . S
C1576 C1592 1.368 . S
H1577 C1585 0.950 . S
H1578 C1583 0.950 . S
H1579 C1584 0.949 . S
H1580 C1586 0.950 . S
H1581 C1587 0.950 . S
H1582 C1588 0.949 . S
C1583 H1578 0.950 . S
C1583 C1585 1.327 . S
C1583 C1589 1.429 . S
C1584 C1576 1.574 . S
C1584 H1579 0.949 . S
C1584 C1590 1.368 . S
C1585 C1569 1.349 . S
C1585 H1577 0.950 . S
C1585 C1583 1.327 . S
C1586 C1574 1.349 . S
C1586 H1580 0.950 . S
C1586 C1587 1.327 1_554 S
C1587 H1581 0.950 . S
C1587 C1586 1.327 1_556 S
C1587 C1591 1.429 . S
C1588 C1571 1.574 . S
C1588 H1582 0.949 . S
C1588 C1592 1.368 . S
C1589 C1570 1.429 . S
C1589 C1583 1.429 . S
C1589 C1590 1.523 . S
C1590 C1571 1.368 . S
C1590 C1584 1.368 . S
C1590 C1589 1.523 . S
C1591 C1575 1.429 . S
C1591 C1587 1.429 . S
C1591 C1592 1.523 . S
C1592 C1576 1.368 . S
C1592 C1588 1.368 . S
C1592 C1591 1.523 . S
H1593 C1568 0.950 . S
H1594 C1570 0.950 . S
H1595 C1571 0.949 . S
H1596 C1573 0.950 . S
H1597 C1575 0.950 . S
C1598 C1599 1.349 . S
C1598 C1600 1.327 . S
C1598 H1623 0.950 . S
C1599 C1598 1.349 . S
C1599 C1615 1.349 . S
C1600 C1598 1.327 . S
C1600 C1619 1.429 . S
C1600 H1624 0.950 . S
C1601 C1618 1.574 . S
C1601 C1620 1.368 . S
C1601 H1625 0.949 . S
H1602 C1606 0.949 . S
C1603 C1604 1.349 1_554 S
C1603 C1605 1.327 . S
C1603 H1626 0.950 . S
C1604 C1603 1.349 1_556 S
C1604 C1616 1.349 . S
C1605 C1603 1.327 . S
C1605 C1621 1.429 . S
C1605 H1627 0.950 . S
C1606 H1602 0.949 . S
C1606 C1614 1.574 . S
C1606 C1622 1.368 . S
H1607 C1615 0.950 . S
H1608 C1613 0.950 . S
H1609 C1614 0.949 . S
H1610 C1616 0.950 . S
H1611 C1617 0.950 . S
H1612 C1618 0.949 . S
C1613 H1608 0.950 . S
C1613 C1615 1.327 . S
C1613 C1619 1.429 . S
C1614 C1606 1.574 . S
C1614 H1609 0.949 . S
C1614 C1620 1.368 . S
C1615 C1599 1.349 . S
C1615 H1607 0.950 . S
C1615 C1613 1.327 . S
C1616 C1604 1.349 . S
C1616 H1610 0.950 . S
C1616 C1617 1.327 1_556 S
C1617 H1611 0.950 . S
C1617 C1616 1.327 1_554 S
C1617 C1621 1.429 . S
C1618 C1601 1.574 . S
C1618 H1612 0.949 . S
C1618 C1622 1.368 . S
C1619 C1600 1.429 . S
C1619 C1613 1.429 . S
C1619 C1620 1.523 . S
C1620 C1601 1.368 . S
C1620 C1614 1.368 . S
C1620 C1619 1.523 . S
C1621 C1605 1.429 . S
C1621 C1617 1.429 . S
C1621 C1622 1.523 . S
C1622 C1606 1.368 . S
C1622 C1618 1.368 . S
C1622 C1621 1.523 . S
H1623 C1598 0.950 . S
H1624 C1600 0.950 . S
H1625 C1601 0.949 . S
H1626 C1603 0.950 . S
H1627 C1605 0.950 . S
C1628 C1629 1.349 1_556 S
C1628 C1630 1.327 . S
C1628 H1653 0.950 . S
C1629 C1628 1.349 1_554 S
C1629 C1645 1.349 . S
C1630 C1628 1.327 . S
C1630 C1649 1.429 . S
C1630 H1654 0.950 . S
C1631 C1648 1.574 . S
C1631 C1650 1.368 . S
C1631 H1655 0.949 . S
H1632 C1636 0.949 . S
C1633 C1634 1.349 . S
C1633 C1635 1.327 . S
C1633 H1656 0.950 . S
C1634 C1633 1.349 . S
C1634 C1646 1.349 . S
C1635 C1633 1.327 . S
C1635 C1651 1.429 . S
C1635 H1657 0.950 . S
C1636 H1632 0.949 . S
C1636 C1644 1.574 . S
C1636 C1652 1.368 . S
H1637 C1645 0.950 . S
H1638 C1643 0.950 . S
H1639 C1644 0.949 . S
H1640 C1646 0.950 . S
H1641 C1647 0.950 . S
H1642 C1648 0.949 . S
C1643 H1638 0.950 . S
C1643 C1645 1.327 1_556 S
C1643 C1649 1.429 . S
C1644 C1636 1.574 . S
C1644 H1639 0.949 . S
C1644 C1650 1.368 . S
C1645 C1629 1.349 . S
C1645 H1637 0.950 . S
C1645 C1643 1.327 1_554 S
C1646 C1634 1.349 . S
C1646 H1640 0.950 . S
C1646 C1647 1.327 . S
C1647 H1641 0.950 . S
C1647 C1646 1.327 . S
C1647 C1651 1.429 . S
C1648 C1631 1.574 . S
C1648 H1642 0.949 . S
C1648 C1652 1.368 . S
C1649 C1630 1.429 . S
C1649 C1643 1.429 . S
C1649 C1650 1.523 . S
C1650 C1631 1.368 . S
C1650 C1644 1.368 . S
C1650 C1649 1.523 . S
C1651 C1635 1.429 . S
C1651 C1647 1.429 . S
C1651 C1652 1.523 . S
C1652 C1636 1.368 . S
C1652 C1648 1.368 . S
C1652 C1651 1.523 . S
H1653 C1628 0.950 . S
H1654 C1630 0.950 . S
H1655 C1631 0.949 . S
H1656 C1633 0.950 . S
H1657 C1635 0.950 . S
C1658 C1659 1.349 . S
C1658 C1660 1.327 . S
C1658 H1683 0.950 . S
C1659 C1658 1.349 . S
C1659 C1675 1.349 . S
C1660 C1658 1.327 . S
C1660 C1679 1.429 . S
C1660 H1684 0.950 . S
C1661 C1678 1.574 . S
C1661 C1680 1.368 . S
C1661 H1685 0.949 . S
H1662 C1666 0.949 . S
C1663 C1664 1.349 1_554 S
C1663 C1665 1.327 . S
C1663 H1686 0.950 1_554 S
C1664 C1663 1.349 1_556 S
C1664 C1676 1.350 . S
C1665 C1663 1.327 . S
C1665 C1681 1.429 . S
C1665 H1687 0.950 . S
C1666 H1662 0.949 . S
C1666 C1674 1.574 . S
C1666 C1682 1.368 . S
H1667 C1675 0.950 . S
H1668 C1673 0.950 . S
H1669 C1674 0.949 . S
H1670 C1676 0.951 . S
H1671 C1677 0.950 . S
H1672 C1678 0.949 . S
C1673 H1668 0.950 . S
C1673 C1675 1.327 . S
C1673 C1679 1.429 . S
C1674 C1666 1.574 . S
C1674 H1669 0.949 . S
C1674 C1680 1.368 . S
C1675 C1659 1.349 . S
C1675 H1667 0.950 . S
C1675 C1673 1.327 . S
C1676 C1664 1.350 . S
C1676 H1670 0.951 . S
C1676 C1677 1.325 1_556 S
C1677 H1671 0.950 . S
C1677 C1676 1.325 1_554 S
C1677 C1681 1.429 . S
C1678 C1661 1.574 . S
C1678 H1672 0.949 . S
C1678 C1682 1.368 . S
C1679 C1660 1.429 . S
C1679 C1673 1.429 . S
C1679 C1680 1.523 . S
C1680 C1661 1.368 . S
C1680 C1674 1.368 . S
C1680 C1679 1.523 . S
C1681 C1665 1.429 . S
C1681 C1677 1.429 . S
C1681 C1682 1.523 . S
C1682 C1666 1.368 . S
C1682 C1678 1.368 . S
C1682 C1681 1.523 . S
H1683 C1658 0.950 . S
H1684 C1660 0.950 . S
H1685 C1661 0.949 . S
H1686 C1663 0.950 1_556 S
H1687 C1665 0.950 . S
C1688 C1689 1.349 . S
C1688 C1690 1.327 . S
C1688 H1713 0.950 . S
C1689 C1688 1.349 . S
C1689 C1705 1.349 . S
C1690 C1688 1.327 . S
C1690 C1709 1.429 . S
C1690 H1714 0.950 . S
C1691 C1708 1.574 . S
C1691 C1710 1.368 . S
C1691 H1715 0.949 . S
H1692 C1696 0.949 . S
C1693 C1694 1.349 . S
C1693 C1695 1.327 . S
C1693 H1716 0.950 . S
C1694 C1693 1.349 . S
C1694 C1706 1.349 . S
C1695 C1693 1.327 . S
C1695 C1711 1.429 . S
C1695 H1717 0.950 . S
C1696 H1692 0.949 . S
C1696 C1704 1.574 . S
C1696 C1712 1.368 . S
H1697 C1705 0.950 . S
H1698 C1703 0.950 . S
H1699 C1704 0.949 . S
H1700 C1706 0.950 . S
H1701 C1707 0.950 . S
H1702 C1708 0.949 . S
C1703 H1698 0.950 . S
C1703 C1705 1.327 . S
C1703 C1709 1.429 . S
C1704 C1696 1.574 . S
C1704 H1699 0.949 . S
C1704 C1710 1.368 . S
C1705 C1689 1.349 . S
C1705 H1697 0.950 . S
C1705 C1703 1.327 . S
C1706 C1694 1.349 . S
C1706 H1700 0.950 . S
C1706 C1707 1.327 . S
C1707 H1701 0.950 . S
C1707 C1706 1.327 . S
C1707 C1711 1.429 . S
C1708 C1691 1.574 . S
C1708 H1702 0.949 . S
C1708 C1712 1.368 . S
C1709 C1690 1.429 . S
C1709 C1703 1.429 . S
C1709 C1710 1.523 . S
C1710 C1691 1.368 . S
C1710 C1704 1.368 . S
C1710 C1709 1.523 . S
C1711 C1695 1.429 . S
C1711 C1707 1.429 . S
C1711 C1712 1.523 . S
C1712 C1696 1.368 . S
C1712 C1708 1.368 . S
C1712 C1711 1.523 . S
H1713 C1688 0.950 . S
H1714 C1690 0.950 . S
H1715 C1691 0.949 . S
H1716 C1693 0.950 . S
H1717 C1695 0.950 . S
C1718 C1719 1.349 . S
C1718 C1720 1.327 . S
C1718 H1743 0.950 . S
C1719 C1718 1.349 . S
C1719 C1735 1.349 . S
C1720 C1718 1.327 . S
C1720 C1739 1.429 . S
C1720 H1744 0.950 . S
C1721 C1738 1.574 . S
C1721 C1740 1.368 . S
C1721 H1745 0.949 . S
H1722 C1726 0.949 . S
C1723 C1724 1.349 . S
C1723 C1725 1.327 . S
C1723 H1746 0.950 . S
C1724 C1723 1.349 . S
C1724 C1736 1.349 . S
C1725 C1723 1.327 . S
C1725 C1741 1.429 . S
C1725 H1747 0.950 . S
C1726 H1722 0.949 . S
C1726 C1734 1.574 . S
C1726 C1742 1.368 . S
H1727 C1735 0.950 . S
H1728 C1733 0.950 . S
H1729 C1734 0.949 . S
H1730 C1736 0.950 . S
H1731 C1737 0.950 . S
H1732 C1738 0.949 . S
C1733 H1728 0.950 . S
C1733 C1735 1.327 . S
C1733 C1739 1.429 . S
C1734 C1726 1.574 . S
C1734 H1729 0.949 . S
C1734 C1740 1.368 . S
C1735 C1719 1.349 . S
C1735 H1727 0.950 . S
C1735 C1733 1.327 . S
C1736 C1724 1.349 . S
C1736 H1730 0.950 . S
C1736 C1737 1.327 . S
C1737 H1731 0.950 . S
C1737 C1736 1.327 . S
C1737 C1741 1.429 . S
C1738 C1721 1.574 . S
C1738 H1732 0.949 . S
C1738 C1742 1.368 . S
C1739 C1720 1.429 . S
C1739 C1733 1.429 . S
C1739 C1740 1.523 . S
C1740 C1721 1.368 . S
C1740 C1734 1.368 . S
C1740 C1739 1.523 . S
C1741 C1725 1.429 . S
C1741 C1737 1.429 . S
C1741 C1742 1.523 . S
C1742 C1726 1.368 . S
C1742 C1738 1.368 . S
C1742 C1741 1.523 . S
H1743 C1718 0.950 . S
H1744 C1720 0.950 . S
H1745 C1721 0.949 . S
H1746 C1723 0.950 . S
H1747 C1725 0.950 . S
C1748 C1749 1.349 . S
C1748 C1750 1.327 . S
C1748 H1773 0.950 . S
C1749 C1748 1.349 . S
C1749 C1765 1.349 . S
C1750 C1748 1.327 . S
C1750 C1769 1.429 . S
C1750 H1774 0.950 . S
C1751 C1768 1.574 . S
C1751 C1770 1.368 . S
C1751 H1775 0.949 . S
H1752 C1756 0.949 . S
C1753 C1754 1.349 . S
C1753 C1755 1.327 . S
C1753 H1776 0.950 . S
C1754 C1753 1.349 . S
C1754 C1766 1.349 . S
C1755 C1753 1.327 . S
C1755 C1771 1.429 . S
C1755 H1777 0.950 . S
C1756 H1752 0.949 . S
C1756 C1764 1.574 . S
C1756 C1772 1.368 . S
H1757 C1765 0.950 . S
H1758 C1763 0.950 . S
H1759 C1764 0.949 . S
H1760 C1766 0.950 . S
H1761 C1767 0.950 . S
H1762 C1768 0.949 . S
C1763 H1758 0.950 . S
C1763 C1765 1.327 . S
C1763 C1769 1.429 . S
C1764 C1756 1.574 . S
C1764 H1759 0.949 . S
C1764 C1770 1.368 . S
C1765 C1749 1.349 . S
C1765 H1757 0.950 . S
C1765 C1763 1.327 . S
C1766 C1754 1.349 . S
C1766 H1760 0.950 . S
C1766 C1767 1.327 . S
C1767 H1761 0.950 . S
C1767 C1766 1.327 . S
C1767 C1771 1.429 . S
C1768 C1751 1.574 . S
C1768 H1762 0.949 . S
C1768 C1772 1.368 . S
C1769 C1750 1.429 . S
C1769 C1763 1.429 . S
C1769 C1770 1.523 . S
C1770 C1751 1.368 . S
C1770 C1764 1.368 . S
C1770 C1769 1.523 . S
C1771 C1755 1.429 . S
C1771 C1767 1.429 . S
C1771 C1772 1.523 . S
C1772 C1756 1.368 . S
C1772 C1768 1.368 . S
C1772 C1771 1.523 . S
H1773 C1748 0.950 . S
H1774 C1750 0.950 . S
H1775 C1751 0.949 . S
H1776 C1753 0.950 . S
H1777 C1755 0.950 . S
C1778 C1779 1.349 . S
C1778 C1780 1.327 . S
C1778 H1803 0.950 . S
C1779 C1778 1.349 . S
C1779 C1795 1.349 . S
C1780 C1778 1.327 . S
C1780 C1799 1.429 . S
C1780 H1804 0.950 . S
C1781 C1798 1.574 . S
C1781 C1800 1.368 . S
C1781 H1805 0.949 . S
H1782 C1786 0.949 . S
C1783 C1784 1.349 . S
C1783 C1785 1.327 . S
C1783 H1806 0.950 . S
C1784 C1783 1.349 . S
C1784 C1796 1.349 . S
C1785 C1783 1.327 . S
C1785 C1801 1.429 . S
C1785 H1807 0.950 . S
C1786 H1782 0.949 . S
C1786 C1794 1.574 . S
C1786 C1802 1.368 . S
H1787 C1795 0.950 . S
H1788 C1793 0.950 . S
H1789 C1794 0.949 . S
H1790 C1796 0.950 . S
H1791 C1797 0.950 . S
H1792 C1798 0.949 . S
C1793 H1788 0.950 . S
C1793 C1795 1.327 . S
C1793 C1799 1.429 . S
C1794 C1786 1.574 . S
C1794 H1789 0.949 . S
C1794 C1800 1.368 . S
C1795 C1779 1.349 . S
C1795 H1787 0.950 . S
C1795 C1793 1.327 . S
C1796 C1784 1.349 . S
C1796 H1790 0.950 . S
C1796 C1797 1.327 . S
C1797 H1791 0.950 . S
C1797 C1796 1.327 . S
C1797 C1801 1.429 . S
C1798 C1781 1.574 . S
C1798 H1792 0.949 . S
C1798 C1802 1.368 . S
C1799 C1780 1.429 . S
C1799 C1793 1.429 . S
C1799 C1800 1.523 . S
C1800 C1781 1.368 . S
C1800 C1794 1.368 . S
C1800 C1799 1.523 . S
C1801 C1785 1.429 . S
C1801 C1797 1.429 . S
C1801 C1802 1.523 . S
C1802 C1786 1.368 . S
C1802 C1798 1.368 . S
C1802 C1801 1.523 . S
H1803 C1778 0.950 . S
H1804 C1780 0.950 . S
H1805 C1781 0.949 . S
H1806 C1783 0.950 . S
H1807 C1785 0.950 . S
C849 C612 1.726 . S
C854 C38 1.751 . S
C879 C91 1.752 . S
C884 C453 1.722 . S
C909 C144 1.751 . S
C914 C506 1.726 . S
C939 C559 1.722 . S
C944 C197 1.752 . S
C969 C250 1.752 . S
C974 C294 1.726 . S
C999 C303 1.752 . S
C1004 C347 1.722 . S
C1029 C400 1.726 . S
C1034 C356 1.751 . S
C1059 C241 1.722 . S
C1064 C409 1.752 . S
C1089 C188 1.726 . S
C1094 C462 1.751 . S
C1119 C515 1.752 . S
C1124 C29 1.722 . S
C1149 C82 1.726 . S
C1154 C568 1.751 . S
C1179 C621 1.752 . S
C1184 C135 1.722 . S
C1209 C674 1.752 . S
C1214 C718 1.726 . S
C1239 C727 1.752 . S
C1244 C771 1.722 . S
C1269 C824 1.726 . S
C1274 C780 1.751 . S
C1299 C665 1.722 . S
C1304 C833 1.752 . S
C1329 C251 1.340 . S
C1334 C39 1.340 . S
C1359 C92 1.337 . S
C1364 C304 1.337 . S
C1389 C145 1.340 . S
C1394 C357 1.340 . S
C1419 C410 1.337 . S
C1424 C198 1.337 . S
C1449 C463 1.340 . S
C1454 C675 1.340 . S
C1479 C728 1.337 . S
C1484 C516 1.337 . S
C1509 C569 1.340 . S
C1514 C781 1.340 . S
C1539 C834 1.337 . S
C1544 C622 1.337 . S
C1569 C764 2.202 . S
C1574 C22 2.202 . S
C1599 C817 2.196 . S
C1604 C75 2.196 . S
C1629 C128 2.202 . S
C1634 C658 2.202 . S
C1659 C711 2.196 . S
C1664 C181 2.196 . S
C1689 C552 2.202 . S
C1694 C234 2.202 . S
C1719 C605 2.196 . S
C1724 C287 2.196 . S
C1749 C340 2.202 . S
C1754 C446 2.202 . S
C1779 C499 2.196 . S
C1784 C393 2.196 . S
