# Generated by pormake.
# Topology unp, (4)-cn, num edge types: 1
# Building blocks:
#     Node 0, Type 0, BuildingBlock: QUQFOY_clean_sbu_1, # of connection points: 4
#     Node 1, Type 0, BuildingBlock: QUQFOY_clean_sbu_1, # of connection points: 4
#     Node 2, Type 0, BuildingBlock: QUQFOY_clean_sbu_1, # of connection points: 4
#     Node 3, Type 0, BuildingBlock: QUQFOY_clean_sbu_1, # of connection points: 4
#     Node 4, Type 0, BuildingBlock: QUQFOY_clean_sbu_1, # of connection points: 4
#     Node 5, Type 0, BuildingBlock: QUQFOY_clean_sbu_1, # of connection points: 4
#     Node 6, Type 0, BuildingBlock: QUQFOY_clean_sbu_1, # of connection points: 4
#     Node 7, Type 0, BuildingBlock: QUQFOY_clean_sbu_1, # of connection points: 4
#     Node 8, Type 0, BuildingBlock: QUQFOY_clean_sbu_1, # of connection points: 4
#     Node 9, Type 0, BuildingBlock: QUQFOY_clean_sbu_1, # of connection points: 4
#     Node 10, Type 0, BuildingBlock: QUQFOY_clean_sbu_1, # of connection points: 4
#     Node 11, Type 0, BuildingBlock: QUQFOY_clean_sbu_1, # of connection points: 4
#     Node 12, Type 0, BuildingBlock: QUQFOY_clean_sbu_1, # of connection points: 4
#     Node 13, Type 0, BuildingBlock: QUQFOY_clean_sbu_1, # of connection points: 4
#     Node 14, Type 0, BuildingBlock: QUQFOY_clean_sbu_1, # of connection points: 4
#     Node 15, Type 0, BuildingBlock: QUQFOY_clean_sbu_1, # of connection points: 4
#     Node 16, Type 0, BuildingBlock: QUQFOY_clean_sbu_1, # of connection points: 4
#     Node 17, Type 0, BuildingBlock: QUQFOY_clean_sbu_1, # of connection points: 4
#     Edge 18, Type (0, 0), BuildingBlock: XUDNAN_clean_linker_2, # of connection points: 2
#     Edge 19, Type (0, 0), BuildingBlock: XUDNAN_clean_linker_2, # of connection points: 2
#     Edge 20, Type (0, 0), BuildingBlock: XUDNAN_clean_linker_2, # of connection points: 2
#     Edge 21, Type (0, 0), BuildingBlock: XUDNAN_clean_linker_2, # of connection points: 2
#     Edge 22, Type (0, 0), BuildingBlock: XUDNAN_clean_linker_2, # of connection points: 2
#     Edge 23, Type (0, 0), BuildingBlock: XUDNAN_clean_linker_2, # of connection points: 2
#     Edge 24, Type (0, 0), BuildingBlock: XUDNAN_clean_linker_2, # of connection points: 2
#     Edge 25, Type (0, 0), BuildingBlock: XUDNAN_clean_linker_2, # of connection points: 2
#     Edge 26, Type (0, 0), BuildingBlock: XUDNAN_clean_linker_2, # of connection points: 2
#     Edge 27, Type (0, 0), BuildingBlock: XUDNAN_clean_linker_2, # of connection points: 2
#     Edge 28, Type (0, 0), BuildingBlock: XUDNAN_clean_linker_2, # of connection points: 2
#     Edge 29, Type (0, 0), BuildingBlock: XUDNAN_clean_linker_2, # of connection points: 2
#     Edge 30, Type (0, 0), BuildingBlock: XUDNAN_clean_linker_2, # of connection points: 2
#     Edge 31, Type (0, 0), BuildingBlock: XUDNAN_clean_linker_2, # of connection points: 2
#     Edge 32, Type (0, 0), BuildingBlock: XUDNAN_clean_linker_2, # of connection points: 2
#     Edge 33, Type (0, 0), BuildingBlock: XUDNAN_clean_linker_2, # of connection points: 2
#     Edge 34, Type (0, 0), BuildingBlock: XUDNAN_clean_linker_2, # of connection points: 2
#     Edge 35, Type (0, 0), BuildingBlock: XUDNAN_clean_linker_2, # of connection points: 2
#     Edge 36, Type (0, 0), BuildingBlock: XUDNAN_clean_linker_2, # of connection points: 2
#     Edge 37, Type (0, 0), BuildingBlock: XUDNAN_clean_linker_2, # of connection points: 2
#     Edge 38, Type (0, 0), BuildingBlock: XUDNAN_clean_linker_2, # of connection points: 2
#     Edge 39, Type (0, 0), BuildingBlock: XUDNAN_clean_linker_2, # of connection points: 2
#     Edge 40, Type (0, 0), BuildingBlock: XUDNAN_clean_linker_2, # of connection points: 2
#     Edge 41, Type (0, 0), BuildingBlock: XUDNAN_clean_linker_2, # of connection points: 2
#     Edge 42, Type (0, 0), BuildingBlock: XUDNAN_clean_linker_2, # of connection points: 2
#     Edge 43, Type (0, 0), BuildingBlock: XUDNAN_clean_linker_2, # of connection points: 2
#     Edge 44, Type (0, 0), BuildingBlock: XUDNAN_clean_linker_2, # of connection points: 2
#     Edge 45, Type (0, 0), BuildingBlock: XUDNAN_clean_linker_2, # of connection points: 2
#     Edge 46, Type (0, 0), BuildingBlock: XUDNAN_clean_linker_2, # of connection points: 2
#     Edge 47, Type (0, 0), BuildingBlock: XUDNAN_clean_linker_2, # of connection points: 2
#     Edge 48, Type (0, 0), BuildingBlock: XUDNAN_clean_linker_2, # of connection points: 2
#     Edge 49, Type (0, 0), BuildingBlock: XUDNAN_clean_linker_2, # of connection points: 2
#     Edge 50, Type (0, 0), BuildingBlock: XUDNAN_clean_linker_2, # of connection points: 2
#     Edge 51, Type (0, 0), BuildingBlock: XUDNAN_clean_linker_2, # of connection points: 2
#     Edge 52, Type (0, 0), BuildingBlock: XUDNAN_clean_linker_2, # of connection points: 2
#     Edge 53, Type (0, 0), BuildingBlock: XUDNAN_clean_linker_2, # of connection points: 2
# Relax obj value: 0.372
# Max RMSD: 0.180
# Mean RMSD: 0.180
data_MOF--net-unp--node1-QUQFOY_clean_sbu_1--edge1-XUDNAN_clean_linker_2
_symmetry_space_group_name_H-M    P1
_symmetry_Int_Tables_number       1
_symmetry_cell_setting            triclinic
loop_
_symmetry_equiv_pos_as_xyz
'x, y, z'
_cell_length_a     48.157183
_cell_length_b     48.179041
_cell_length_c     72.883011
_cell_angle_alpha  90.005755
_cell_angle_beta   89.997745
_cell_angle_gamma 119.99847
loop_
_atom_site_label
_atom_site_type_symbol
_atom_site_fract_x
_atom_site_fract_y
_atom_site_fract_z
_atom_type_partial_charge
O0 O 0.16427 0.11859 0.1362 0.0
Cd1 Cd 0.16911 0.16339 0.13697 0.0
Cd2 Cd 0.16902 0.15922 0.09783 0.0
O3 O 0.17176 0.11952 0.10628 0.0
O4 O 0.19025 0.18456 0.16035 0.0
O5 O 0.2128 0.20122 0.13299 0.0
C6 C 0.2147 0.20425 0.15066 0.0
C7 C 0.18492 0.17276 0.06696 0.0
C8 C 0.1677 0.10586 0.12177 0.0
C9 C 0.11502 0.16375 0.11817 0.0
O10 O 0.12795 0.16148 0.10346 0.0
O11 O 0.12792 0.16552 0.13364 0.0
O12 O 0.15961 0.14673 0.0716 0.0
O13 O 0.20205 0.19181 0.07996 0.0
O14 O 0.87377 0.04135 0.13378 0.0
Cd15 Cd 0.82894 0.00239 0.13773 0.0
Cd16 Cd 0.82795 0.99863 0.09822 0.0
O17 O 0.87042 0.04084 0.10354 0.0
O18 O 0.8126 0.00701 0.16188 0.0
O19 O 0.79067 0.00809 0.13531 0.0
C20 C 0.79107 0.01008 0.15302 0.0
C21 C 0.81125 0.99508 0.06744 0.0
C22 C 0.88566 0.05356 0.11828 0.0
C23 C 0.82358 0.9434 0.12205 0.0
O24 O 0.8234 0.95547 0.10658 0.0
O25 O 0.82566 0.95828 0.13681 0.0
O26 O 0.83648 0.99418 0.07204 0.0
O27 O 0.79504 0.99861 0.08039 0.0
O28 O 0.95191 0.83008 0.13442 0.0
Cd29 Cd 0.99077 0.82348 0.13489 0.0
Cd30 Cd 0.99239 0.83082 0.09691 0.0
O31 O 0.9498 0.82906 0.10417 0.0
O32 O 0.9848 0.7903 0.1531 0.0
O33 O 0.98537 0.78397 0.12291 0.0
C34 C 0.98193 0.77222 0.13926 0.0
C35 C 0.99338 0.8182 0.06578 0.0
C36 C 0.93816 0.83027 0.11961 0.0
C37 C 0.04912 0.87884 0.12106 0.0
O38 O 0.03606 0.86887 0.10545 0.0
O39 O 0.03507 0.86396 0.1356 0.0
O40 O 0.99434 0.84414 0.07094 0.0
O41 O 0.99171 0.79866 0.0784 0.0
O42 O 0.11784 0.17041 0.8672 0.0
Cd43 Cd 0.16268 0.17549 0.86392 0.0
Cd44 Cd 0.15832 0.16489 0.9025 0.0
O45 O 0.11802 0.16863 0.89748 0.0
O46 O 0.17998 0.19757 0.84014 0.0
O47 O 0.20192 0.21876 0.867 0.0
C48 C 0.20206 0.22118 0.84933 0.0
C49 C 0.17662 0.1771 0.93305 0.0
C50 C 0.10466 0.16909 0.88253 0.0
C51 C 0.16186 0.1165 0.8765 0.0
O52 O 0.15895 0.12489 0.8926 0.0
O53 O 0.16493 0.13411 0.86283 0.0
O54 O 0.15028 0.15183 0.92871 0.0
O55 O 0.19316 0.19627 0.91995 0.0
O56 O 0.82582 0.95789 0.86349 0.0
Cd57 Cd 0.82034 0.99723 0.86649 0.0
Cd58 Cd 0.82732 0.99134 0.90326 0.0
O59 O 0.82793 0.95131 0.89328 0.0
O60 O 0.78902 0.99557 0.84819 0.0
O61 O 0.77995 0.99012 0.87823 0.0
C62 C 0.7697 0.99002 0.8618 0.0
C63 C 0.80898 0.98632 0.93367 0.0
C64 C 0.82805 0.94228 0.87689 0.0
C65 C 0.87673 0.05204 0.8831 0.0
O66 O 0.86639 0.03605 0.89787 0.0
O67 O 0.86172 0.04113 0.8681 0.0
O68 O 0.83536 0.98724 0.92958 0.0
O69 O 0.79219 0.98795 0.92036 0.0
O70 O 0.03766 0.86884 0.86257 0.0
Cd71 Cd 0.99844 0.82353 0.86456 0.0
Cd72 Cd 0.99802 0.83798 0.90045 0.0
O73 O 0.03972 0.87841 0.89224 0.0
O74 O 0.00305 0.79578 0.84615 0.0
O75 O 0.00442 0.78945 0.87626 0.0
C76 C 0.00682 0.78083 0.85979 0.0
C77 C 0.99792 0.82361 0.9313 0.0
C78 C 0.0511 0.88718 0.87619 0.0
C79 C 0.94158 0.82683 0.87618 0.0
O80 O 0.95535 0.83408 0.89175 0.0
O81 O 0.95419 0.82014 0.86283 0.0
O82 O 0.99735 0.84903 0.92664 0.0
O83 O 0.99855 0.80572 0.91833 0.0
O84 O 0.83083 0.46289 0.47284 0.0
Cd85 Cd 0.83641 0.50778 0.46947 0.0
Cd86 Cd 0.81952 0.48606 0.43133 0.0
O87 O 0.82515 0.45038 0.44343 0.0
O88 O 0.85927 0.53188 0.49187 0.0
O89 O 0.88048 0.5445 0.46405 0.0
C90 C 0.88343 0.54974 0.48153 0.0
C91 C 0.82182 0.48327 0.39903 0.0
C92 C 0.82761 0.44369 0.46001 0.0
C93 C 0.77546 0.50114 0.45494 0.0
O94 O 0.78162 0.49148 0.44007 0.0
O95 O 0.79503 0.51022 0.46829 0.0
O96 O 0.79917 0.46135 0.40863 0.0
O97 O 0.84366 0.50793 0.40764 0.0
O98 O 0.52957 0.36757 0.47177 0.0
Cd99 Cd 0.48517 0.32709 0.47024 0.0
Cd100 Cd 0.49531 0.33013 0.43293 0.0
O101 O 0.53631 0.37091 0.44178 0.0
O102 O 0.45596 0.32905 0.48877 0.0
O103 O 0.45016 0.33158 0.45867 0.0
C104 C 0.44071 0.33251 0.47517 0.0
C105 C 0.48245 0.33315 0.40213 0.0
C106 C 0.5464 0.38181 0.45778 0.0
C107 C 0.48615 0.27138 0.45453 0.0
O108 O 0.48978 0.28586 0.43938 0.0
O109 O 0.48387 0.2837 0.46946 0.0
O110 O 0.50756 0.33202 0.40679 0.0
O111 O 0.46398 0.33271 0.41508 0.0
O112 O 0.61468 0.15913 0.46957 0.0
Cd113 Cd 0.65478 0.15484 0.47334 0.0
Cd114 Cd 0.66243 0.16892 0.43458 0.0
O115 O 0.61719 0.16254 0.43929 0.0
O116 O 0.64873 0.13129 0.49672 0.0
O117 O 0.6517 0.11209 0.46961 0.0
C118 C 0.64818 0.10846 0.48719 0.0
C119 C 0.67347 0.16259 0.40394 0.0
C120 C 0.60287 0.16076 0.45429 0.0
C121 C 0.71239 0.21541 0.46261 0.0
O122 O 0.70156 0.20806 0.44636 0.0
O123 O 0.69779 0.19663 0.47585 0.0
O124 O 0.67037 0.18633 0.40915 0.0
O125 O 0.66932 0.14123 0.41596 0.0
O126 O 0.78064 0.49724 0.19333 0.0
Cd127 Cd 0.82545 0.50279 0.19057 0.0
Cd128 Cd 0.81964 0.49302 0.23202 0.0
O129 O 0.78078 0.49771 0.22371 0.0
O130 O 0.84505 0.52676 0.1676 0.0
O131 O 0.86344 0.54607 0.19539 0.0
C132 C 0.8655 0.54994 0.17778 0.0
C133 C 0.82077 0.48862 0.26428 0.0
C134 C 0.76769 0.49739 0.20847 0.0
C135 C 0.83144 0.44904 0.20501 0.0
O136 O 0.82959 0.45929 0.22078 0.0
O137 O 0.82904 0.46226 0.19054 0.0
O138 O 0.84229 0.51419 0.25621 0.0
O139 O 0.79888 0.4669 0.25422 0.0
O140 O 0.49199 0.28716 0.20037 0.0
Cd141 Cd 0.48519 0.32598 0.20006 0.0
Cd142 Cd 0.49651 0.32944 0.23709 0.0
O143 O 0.50061 0.28989 0.2302 0.0
O144 O 0.45287 0.31977 0.18119 0.0
O145 O 0.44497 0.32071 0.21115 0.0
C146 C 0.43409 0.31716 0.19457 0.0
C147 C 0.48211 0.32977 0.26791 0.0
C148 C 0.4984 0.2766 0.21477 0.0
C149 C 0.54126 0.38592 0.21257 0.0
O150 O 0.53227 0.37394 0.22847 0.0
O151 O 0.52588 0.37046 0.19843 0.0
O152 O 0.50937 0.33327 0.26323 0.0
O153 O 0.46213 0.32566 0.25497 0.0
O154 O 0.71365 0.20805 0.20038 0.0
Cd155 Cd 0.67518 0.16285 0.20445 0.0
Cd156 Cd 0.68027 0.17986 0.24082 0.0
O157 O 0.72288 0.21601 0.23005 0.0
O158 O 0.67697 0.13336 0.18609 0.0
O159 O 0.68335 0.1301 0.21604 0.0
C160 C 0.68304 0.11982 0.19959 0.0
C161 C 0.68581 0.17139 0.27201 0.0
C162 C 0.73108 0.22493 0.21357 0.0
C163 C 0.62128 0.16883 0.21887 0.0
O164 O 0.6378 0.17838 0.23354 0.0
O165 O 0.6309 0.15913 0.20539 0.0
O166 O 0.68047 0.14936 0.26019 0.0
O167 O 0.68689 0.19708 0.26625 0.0
O168 O 0.50133 0.7859 0.80396 0.0
Cd169 Cd 0.50521 0.83026 0.80534 0.0
Cd170 Cd 0.5037 0.82672 0.76562 0.0
O171 O 0.50695 0.78717 0.77384 0.0
O172 O 0.52649 0.85114 0.82875 0.0
O173 O 0.54837 0.8689 0.80135 0.0
C174 C 0.55047 0.87159 0.81903 0.0
C175 C 0.51694 0.83864 0.73432 0.0
C176 C 0.50416 0.77351 0.78921 0.0
C177 C 0.45101 0.83176 0.78736 0.0
O178 O 0.46373 0.83033 0.77236 0.0
O179 O 0.46374 0.832 0.80265 0.0
O180 O 0.49168 0.81319 0.7397 0.0
O181 O 0.53549 0.85802 0.7468 0.0
O182 O 0.20961 0.71295 0.80079 0.0
Cd183 Cd 0.16452 0.67317 0.80288 0.0
Cd184 Cd 0.17 0.67081 0.76446 0.0
O185 O 0.20978 0.71456 0.77053 0.0
O186 O 0.14548 0.67636 0.82639 0.0
O187 O 0.12586 0.67788 0.79912 0.0
C188 C 0.1244 0.67901 0.8168 0.0
C189 C 0.15312 0.667 0.73376 0.0
C190 C 0.22299 0.72659 0.78582 0.0
C191 C 0.16658 0.61682 0.78859 0.0
O192 O 0.17022 0.6299 0.77296 0.0
O193 O 0.16221 0.62948 0.80275 0.0
O194 O 0.17951 0.66829 0.73822 0.0
O195 O 0.13569 0.66815 0.74683 0.0
O196 O 0.29503 0.49672 0.79963 0.0
Cd197 Cd 0.33382 0.4901 0.79831 0.0
Cd198 Cd 0.33424 0.50287 0.76149 0.0
O199 O 0.29405 0.50485 0.76992 0.0
O200 O 0.32866 0.45816 0.81715 0.0
O201 O 0.32711 0.44942 0.78714 0.0
C202 C 0.32443 0.43885 0.80375 0.0
C203 C 0.33338 0.48816 0.7306 0.0
C204 C 0.28239 0.50237 0.7859 0.0
C205 C 0.39222 0.54726 0.78532 0.0
O206 O 0.37884 0.53929 0.76967 0.0
O207 O 0.37831 0.53071 0.79945 0.0
O208 O 0.33596 0.51505 0.73529 0.0
O209 O 0.33074 0.46875 0.74357 0.0
O210 O 0.45943 0.83086 0.53236 0.0
Cd211 Cd 0.50488 0.83708 0.53372 0.0
Cd212 Cd 0.49059 0.82018 0.56931 0.0
O213 O 0.44963 0.82113 0.56189 0.0
O214 O 0.53205 0.87007 0.51543 0.0
O215 O 0.53919 0.8769 0.54554 0.0
C216 C 0.54732 0.88843 0.52913 0.0
C217 C 0.50686 0.83432 0.59996 0.0
C218 C 0.44091 0.82477 0.54603 0.0
C219 C 0.50166 0.77631 0.54384 0.0
O220 O 0.49452 0.78194 0.55967 0.0
O221 O 0.5083 0.79637 0.53091 0.0
O222 O 0.4814 0.8081 0.59561 0.0
O223 O 0.52359 0.85319 0.58679 0.0
O224 O 0.15522 0.61175 0.5319 0.0
Cd225 Cd 0.15098 0.65222 0.53166 0.0
Cd226 Cd 0.16071 0.65383 0.56882 0.0
O227 O 0.15509 0.6096 0.5621 0.0
O228 O 0.12026 0.64846 0.51234 0.0
O229 O 0.11155 0.64962 0.54219 0.0
C230 C 0.10161 0.64724 0.52545 0.0
C231 C 0.14745 0.65625 0.59966 0.0
C232 C 0.15513 0.59757 0.5466 0.0
C233 C 0.21072 0.70781 0.54445 0.0
O234 O 0.20198 0.6946 0.56012 0.0
O235 O 0.19281 0.69543 0.53055 0.0
O236 O 0.17216 0.65435 0.59503 0.0
O237 O 0.12976 0.65717 0.58666 0.0
O238 O 0.36748 0.53074 0.52542 0.0
Cd239 Cd 0.32713 0.48625 0.52672 0.0
Cd240 Cd 0.33176 0.49749 0.56515 0.0
O241 O 0.37223 0.53799 0.5554 0.0
O242 O 0.326 0.46227 0.50432 0.0
O243 O 0.33264 0.44861 0.53236 0.0
C244 C 0.33086 0.44357 0.51485 0.0
C245 C 0.33576 0.48609 0.59618 0.0
C246 C 0.38238 0.54776 0.53924 0.0
C247 C 0.27205 0.48734 0.54412 0.0
O248 O 0.28707 0.49143 0.55912 0.0
O249 O 0.28387 0.48486 0.52906 0.0
O250 O 0.33461 0.51104 0.59118 0.0
O251 O 0.33499 0.4671 0.58346 0.0
H252 H 0.40335 0.30344 0.16141 0.0
H253 H 0.38822 0.30897 0.2197 0.0
H254 H 0.33039 0.28692 0.21403 0.0
H255 H 0.34041 0.32141 0.14492 0.0
H256 H 0.32947 0.29334 0.12623 0.0
H257 H 0.37021 0.31426 0.13449 0.0
H258 H 0.36787 0.25994 0.13979 0.0
H259 H 0.3272 0.2389 0.13165 0.0
H260 H 0.33664 0.23007 0.15407 0.0
H261 H 0.27376 0.25742 0.20269 0.0
H262 H 0.22272 0.22336 0.18652 0.0
H263 H 0.2747 0.23757 0.13554 0.0
C264 C 0.38804 0.30084 0.17294 0.0
C265 C 0.40034 0.30806 0.191 0.0
C266 C 0.37939 0.30377 0.20573 0.0
C267 C 0.3465 0.29133 0.20264 0.0
C268 C 0.33502 0.2836 0.18472 0.0
C269 C 0.35521 0.28846 0.17009 0.0
C270 C 0.33655 0.27551 0.15242 0.0
C271 C 0.34464 0.30276 0.13871 0.0
C272 C 0.34241 0.24956 0.144 0.0
C273 C 0.3026 0.26141 0.15952 0.0
C274 C 0.30225 0.26672 0.17814 0.0
C275 C 0.27372 0.25366 0.18805 0.0
C276 C 0.24485 0.23425 0.17875 0.0
C277 C 0.24473 0.22803 0.15974 0.0
C278 C 0.27398 0.24241 0.14999 0.0
H279 H 0.75505 0.03454 0.13887 0.0
H280 H 0.77811 0.00378 0.18974 0.0
H281 H 0.74627 0.02227 0.20697 0.0
H282 H 0.76461 0.10556 0.15563 0.0
H283 H 0.73242 0.10503 0.14272 0.0
H284 H 0.75225 0.08452 0.13406 0.0
H285 H 0.69771 0.03166 0.13203 0.0
H286 H 0.67764 0.05209 0.14066 0.0
H287 H 0.67264 0.01672 0.15211 0.0
H288 H 0.71791 0.05001 0.21902 0.0
H289 H 0.69595 0.08578 0.22495 0.0
H290 H 0.69169 0.09894 0.16631 0.0
C291 C 0.7526 0.03084 0.15357 0.0
C292 C 0.76883 0.01751 0.16296 0.0
C293 C 0.76577 0.01384 0.18226 0.0
C294 C 0.74762 0.02413 0.19217 0.0
C295 C 0.73261 0.03798 0.18256 0.0
C296 C 0.73478 0.04124 0.16368 0.0
C297 C 0.7192 0.05991 0.15687 0.0
C298 C 0.74358 0.09057 0.14674 0.0
C299 C 0.69006 0.03883 0.1447 0.0
C300 C 0.70897 0.06762 0.17492 0.0
C301 C 0.71644 0.05431 0.18955 0.0
C302 C 0.71144 0.06011 0.20766 0.0
C303 C 0.69901 0.08051 0.2109 0.0
C304 C 0.69194 0.09502 0.19611 0.0
C305 C 0.6964 0.08786 0.17791 0.0
H306 H 0.89878 0.60864 0.19439 0.0
H307 H 0.88498 0.56056 0.14204 0.0
H308 H 0.92005 0.61262 0.12713 0.0
H309 H 0.89258 0.67211 0.17766 0.0
H310 H 0.92221 0.70215 0.19258 0.0
H311 H 0.9008 0.66094 0.19975 0.0
H312 H 0.95458 0.66202 0.2049 0.0
H313 H 0.97623 0.70338 0.19777 0.0
H314 H 0.98324 0.67419 0.18643 0.0
H315 H 0.95091 0.66985 0.11727 0.0
H316 H 0.97398 0.72811 0.11304 0.0
H317 H 0.96705 0.73915 0.1717 0.0
C318 C 0.90393 0.60901 0.1799 0.0
C319 C 0.88942 0.58059 0.16939 0.0
C320 C 0.89597 0.58207 0.15036 0.0
C321 C 0.91599 0.61151 0.14179 0.0
C322 C 0.92928 0.63922 0.15243 0.0
C323 C 0.9236 0.63824 0.17109 0.0
C324 C 0.9379 0.67168 0.17902 0.0
C325 C 0.91181 0.67702 0.18775 0.0
C326 C 0.96458 0.67819 0.19285 0.0
C327 C 0.95147 0.69155 0.1618 0.0
C328 C 0.94676 0.6724 0.14667 0.0
C329 C 0.95521 0.68515 0.12905 0.0
C330 C 0.96825 0.71827 0.12678 0.0
C331 C 0.97245 0.73821 0.14204 0.0
C332 C 0.96455 0.72464 0.15979 0.0
H333 H 0.31188 0.40886 0.83709 0.0
H334 H 0.31157 0.39161 0.77861 0.0
H335 H 0.28586 0.33349 0.78452 0.0
H336 H 0.32439 0.34171 0.8527 0.0
H337 H 0.29805 0.33327 0.87206 0.0
H338 H 0.3212 0.37367 0.8635 0.0
H339 H 0.26905 0.37627 0.85971 0.0
H340 H 0.24575 0.33591 0.86807 0.0
H341 H 0.23676 0.34638 0.846 0.0
H342 H 0.25307 0.27752 0.79621 0.0
H343 H 0.21736 0.22765 0.81295 0.0
H344 H 0.2396 0.28109 0.86393 0.0
C345 C 0.3073 0.39297 0.82555 0.0
C346 C 0.31387 0.40479 0.80738 0.0
C347 C 0.30694 0.38313 0.79265 0.0
C348 C 0.29237 0.35007 0.79588 0.0
C349 C 0.28521 0.33912 0.81391 0.0
C350 C 0.29279 0.35994 0.82854 0.0
C351 C 0.27996 0.34195 0.84642 0.0
C352 C 0.30755 0.34801 0.85944 0.0
C353 C 0.25649 0.35065 0.85557 0.0
C354 C 0.26284 0.30776 0.83948 0.0
C355 C 0.26648 0.30665 0.82071 0.0
C356 C 0.25061 0.27802 0.81095 0.0
C357 C 0.23025 0.24985 0.82056 0.0
C358 C 0.22594 0.25051 0.83975 0.0
C359 C 0.24294 0.27979 0.84933 0.0
H360 H 0.73874 0.97785 0.82879 0.0
H361 H 0.72387 0.97974 0.8874 0.0
H362 H 0.66575 0.95619 0.88212 0.0
H363 H 0.67277 0.99282 0.81354 0.0
H364 H 0.6628 0.96559 0.79448 0.0
H365 H 0.70362 0.98797 0.80254 0.0
H366 H 0.70442 0.93498 0.80679 0.0
H367 H 0.66367 0.91247 0.79891 0.0
H368 H 0.67438 0.90375 0.82099 0.0
H369 H 0.60917 0.92509 0.87108 0.0
H370 H 0.55839 0.88948 0.85509 0.0
H371 H 0.6099 0.90782 0.80359 0.0
C372 C 0.72341 0.97429 0.84047 0.0
C373 C 0.73586 0.98084 0.85851 0.0
C374 C 0.71489 0.97511 0.87346 0.0
C375 C 0.68184 0.96181 0.87059 0.0
C376 C 0.67021 0.9546 0.85268 0.0
C377 C 0.69039 0.96092 0.83784 0.0
C378 C 0.67161 0.94785 0.82022 0.0
C379 C 0.67809 0.97519 0.80691 0.0
C380 C 0.67895 0.92331 0.81121 0.0
C381 C 0.63768 0.93197 0.82756 0.0
C382 C 0.63739 0.93657 0.84627 0.0
C383 C 0.60905 0.92188 0.85637 0.0
C384 C 0.58033 0.90158 0.84718 0.0
C385 C 0.58018 0.89607 0.82808 0.0
C386 C 0.60919 0.91205 0.81813 0.0
H387 H 0.08845 0.70257 0.80146 0.0
H388 H 0.10744 0.67004 0.85297 0.0
H389 H 0.07238 0.68579 0.86909 0.0
H390 H 0.09373 0.77141 0.81866 0.0
H391 H 0.06249 0.77062 0.80465 0.0
H392 H 0.08425 0.75166 0.79665 0.0
H393 H 0.03092 0.69805 0.79263 0.0
H394 H 0.00892 0.71693 0.8006 0.0
H395 H 0.00382 0.6813 0.81178 0.0
H396 H 0.04122 0.71119 0.88018 0.0
H397 H 0.01751 0.74562 0.88545 0.0
H398 H 0.01923 0.76216 0.82681 0.0
C399 C 0.08445 0.69789 0.81604 0.0
C400 C 0.10044 0.68486 0.82595 0.0
C401 C 0.09531 0.67989 0.8451 0.0
C402 C 0.07532 0.68861 0.85436 0.0
C403 C 0.06055 0.7022 0.84428 0.0
C404 C 0.06477 0.70672 0.82552 0.0
C405 C 0.04907 0.72498 0.81823 0.0
C406 C 0.07386 0.75653 0.80902 0.0
C407 C 0.02154 0.70406 0.80503 0.0
C408 C 0.03647 0.73108 0.83591 0.0
C409 C 0.04281 0.71724 0.85073 0.0
C410 C 0.03561 0.72168 0.86864 0.0
C411 C 0.02219 0.74131 0.87151 0.0
C412 C 0.01637 0.75646 0.85655 0.0
C413 C 0.02296 0.75058 0.83852 0.0
H414 H 0.94313 0.57665 0.46606 0.0
H415 H 0.89342 0.57457 0.51612 0.0
H416 H 0.94534 0.60656 0.53183 0.0
H417 H 0.9989 0.56314 0.48644 0.0
H418 H 0.0321 0.58877 0.47177 0.0
H419 H 0.99175 0.57153 0.46335 0.0
H420 H 0.00133 0.62809 0.45544 0.0
H421 H 0.04194 0.64557 0.46371 0.0
H422 H 0.01561 0.65856 0.47297 0.0
H423 H 0.00152 0.63113 0.54334 0.0
H424 H 0.05793 0.64702 0.54965 0.0
H425 H 0.07124 0.63289 0.4922 0.0
C426 C 0.94323 0.58395 0.48012 0.0
C427 C 0.9143 0.5734 0.48983 0.0
C428 C 0.91534 0.58256 0.5084 0.0
C429 C 0.94472 0.60083 0.51742 0.0
C430 C 0.97284 0.60984 0.50767 0.0
C431 C 0.97238 0.60196 0.48937 0.0
C432 C 0.0057 0.61136 0.48264 0.0
C433 C 0.00718 0.58195 0.47565 0.0
C434 C 0.0168 0.63745 0.46781 0.0
C435 C 0.02469 0.62447 0.50018 0.0
C436 C 0.00541 0.62389 0.51439 0.0
C437 C 0.01701 0.63232 0.53224 0.0
C438 C 0.04906 0.6412 0.53571 0.0
C439 C 0.06903 0.64137 0.5214 0.0
C440 C 0.05673 0.63347 0.50337 0.0
H441 H 0.35856 0.41235 0.53139 0.0
H442 H 0.31785 0.42017 0.47988 0.0
H443 H 0.33491 0.38512 0.46504 0.0
H444 H 0.4272 0.41991 0.51309 0.0
H445 H 0.43048 0.39209 0.52821 0.0
H446 H 0.40973 0.41237 0.53571 0.0
H447 H 0.35897 0.35779 0.54259 0.0
H448 H 0.37968 0.33725 0.53518 0.0
H449 H 0.34198 0.32783 0.52481 0.0
H450 H 0.36327 0.35647 0.45472 0.0
H451 H 0.40088 0.33641 0.44976 0.0
H452 H 0.42333 0.34717 0.5079 0.0
C453 C 0.35227 0.40578 0.51715 0.0
C454 C 0.33667 0.41876 0.50682 0.0
C455 C 0.32967 0.41037 0.48808 0.0
C456 C 0.33914 0.39036 0.47954 0.0
C457 C 0.35547 0.37881 0.48995 0.0
C458 C 0.36178 0.38601 0.50839 0.0
C459 C 0.38283 0.37361 0.51596 0.0
C460 C 0.41442 0.40114 0.52368 0.0
C461 C 0.36478 0.34756 0.53049 0.0
C462 C 0.38848 0.35956 0.49872 0.0
C463 C 0.37204 0.3623 0.48394 0.0
C464 C 0.37574 0.35357 0.46626 0.0
C465 C 0.39723 0.34229 0.46356 0.0
C466 C 0.41486 0.34001 0.47846 0.0
C467 C 0.40978 0.34808 0.4963 0.0
H468 H 0.62557 0.04929 0.47156 0.0
H469 H 0.65592 0.09997 0.52343 0.0
H470 H 0.64026 0.04903 0.53935 0.0
H471 H 0.55644 0.98492 0.48814 0.0
H472 H 0.55799 0.95492 0.4741 0.0
H473 H 0.57677 0.99574 0.46632 0.0
H474 H 0.63082 0.99676 0.46272 0.0
H475 H 0.61213 0.95579 0.47049 0.0
H476 H 0.64731 0.98639 0.48199 0.0
H477 H 0.61553 0.99238 0.55014 0.0
H478 H 0.58165 0.9341 0.55507 0.0
H479 H 0.56637 0.92006 0.49631 0.0
C480 C 0.62979 0.04975 0.48618 0.0
C481 C 0.64221 0.07856 0.49625 0.0
C482 C 0.64654 0.07814 0.51545 0.0
C483 C 0.63788 0.04936 0.5246 0.0
C484 C 0.62493 0.0212 0.51436 0.0
C485 C 0.62092 0.02115 0.49556 0.0
C486 C 0.60317 0.98729 0.48809 0.0
C487 C 0.57174 0.98033 0.47862 0.0
C488 C 0.62465 0.98121 0.47505 0.0
C489 C 0.59679 0.96835 0.50569 0.0
C490 C 0.61008 0.98834 0.52065 0.0
C491 C 0.60544 0.97644 0.53851 0.0
C492 C 0.58613 0.9433 0.54118 0.0
C493 C 0.57146 0.92251 0.52608 0.0
C494 C 0.57756 0.93526 0.50812 0.0
H495 H 0.0686 0.14052 0.14465 0.0
H496 H 0.08805 0.17685 0.08892 0.0
H497 H 0.0311 0.16083 0.08501 0.0
H498 H 0.00051 0.07219 0.13489 0.0
H499 H 0.97877 0.06988 0.15551 0.0
H500 H 0.02182 0.09114 0.15571 0.0
H501 H 0.02252 0.14232 0.1673 0.0
H502 H 0.97927 0.12107 0.16729 0.0
H503 H 0.00119 0.15803 0.15468 0.0
H504 H 0.97169 0.13216 0.085 0.0
H505 H 0.91423 0.09301 0.0889 0.0
H506 H 0.93256 0.07447 0.14457 0.0
C507 C 0.06111 0.14637 0.13192 0.0
C508 C 0.08278 0.16028 0.11716 0.0
C509 C 0.07187 0.16645 0.10045 0.0
C510 C 0.03958 0.15755 0.09813 0.0
C511 C 0.01849 0.14256 0.11266 0.0
C512 C 0.02883 0.13725 0.12932 0.0
C513 C 0.00073 0.11667 0.14178 0.0
C514 C 0.00045 0.08564 0.14727 0.0
C515 C 0.00095 0.13567 0.15877 0.0
C516 C 0.97299 0.10983 0.12919 0.0
C517 C 0.98377 0.12556 0.11261 0.0
C518 C 0.9629 0.12033 0.09808 0.0
C519 C 0.93029 0.09792 0.10039 0.0
C520 C 0.91886 0.08086 0.11709 0.0
C521 C 0.94044 0.08766 0.1318 0.0
H522 H 0.85232 0.92568 0.14821 0.0
H523 H 0.80314 0.89681 0.09588 0.0
H524 H 0.81915 0.85582 0.09269 0.0
H525 H 0.9182 0.92559 0.13475 0.0
H526 H 0.92624 0.91061 0.15556 0.0
H527 H 0.90381 0.93115 0.15651 0.0
H528 H 0.85682 0.88231 0.1726 0.0
H529 H 0.87934 0.86163 0.17193 0.0
H530 H 0.83965 0.84321 0.16219 0.0
H531 H 0.85004 0.82765 0.09161 0.0
H532 H 0.89212 0.81281 0.09329 0.0
H533 H 0.92166 0.85921 0.14637 0.0
C534 C 0.84358 0.90962 0.13654 0.0
C535 C 0.82619 0.91413 0.12239 0.0
C536 C 0.81625 0.89355 0.10695 0.0
C537 C 0.82516 0.87012 0.10505 0.0
C538 C 0.84385 0.86744 0.11876 0.0
C539 C 0.85262 0.88632 0.13436 0.0
C540 C 0.87673 0.88212 0.14564 0.0
C541 C 0.90808 0.91427 0.14825 0.0
C542 C 0.86226 0.86637 0.16419 0.0
C543 C 0.88166 0.85957 0.13337 0.0
C544 C 0.86195 0.85086 0.11813 0.0
C545 C 0.86492 0.83348 0.10373 0.0
C546 C 0.88902 0.82533 0.10475 0.0
C547 C 0.90986 0.83456 0.12005 0.0
C548 C 0.90548 0.85109 0.13475 0.0
H549 H 0.13649 0.05985 0.14799 0.0
H550 H 0.18743 0.07776 0.09635 0.0
H551 H 0.17109 0.02057 0.0942 0.0
H552 H 0.1486 0.99086 0.16403 0.0
H553 H 0.10864 0.96995 0.17343 0.0
H554 H 0.13104 0.01317 0.17344 0.0
H555 H 0.08456 0.01424 0.15618 0.0
H556 H 0.06219 0.97125 0.15603 0.0
H557 H 0.07067 0.99303 0.13473 0.0
H558 H 0.14014 0.96155 0.09394 0.0
H559 H 0.0971 0.90502 0.09578 0.0
H560 H 0.06637 0.92412 0.1478 0.0
C561 C 0.14537 0.05195 0.13665 0.0
C562 C 0.16344 0.07327 0.12241 0.0
C563 C 0.1737 0.06187 0.10746 0.0
C564 C 0.16468 0.02942 0.10618 0.0
C565 C 0.14558 0.00868 0.12001 0.0
C566 C 0.1363 0.01951 0.1351 0.0
C567 C 0.11193 0.99175 0.1466 0.0
C568 C 0.1259 0.99142 0.1655 0.0
C569 C 0.0805 0.99263 0.14847 0.0
C570 C 0.10741 0.96368 0.13499 0.0
C571 C 0.12761 0.97399 0.11993 0.0
C572 C 0.12491 0.95304 0.10594 0.0
C573 C 0.10035 0.92101 0.10706 0.0
C574 C 0.07886 0.9102 0.12208 0.0
C575 C 0.0832 0.93156 0.13651 0.0
H576 H 0.08058 0.93439 0.90188 0.0
H577 H 0.08111 0.9152 0.84374 0.0
H578 H 0.11887 0.97265 0.83831 0.0
H579 H 0.07529 0.00093 0.89712 0.0
H580 H 0.10043 0.02276 0.91629 0.0
H581 H 0.07977 0.97976 0.91626 0.0
H582 H 0.13366 0.98078 0.92076 0.0
H583 H 0.15458 0.02399 0.9209 0.0
H584 H 0.16618 0.003 0.90495 0.0
H585 H 0.1481 0.03267 0.83842 0.0
H586 H 0.16578 0.08965 0.84403 0.0
H587 H 0.14617 0.0695 0.90211 0.0
C588 C 0.08948 0.94202 0.88808 0.0
C589 C 0.07795 0.92023 0.87325 0.0
C590 C 0.08972 0.93138 0.85535 0.0
C591 C 0.11128 0.964 0.85214 0.0
C592 C 0.12113 0.98506 0.86698 0.0
C593 C 0.11084 0.97443 0.88465 0.0
C594 C 0.12148 0.00215 0.89787 0.0
C595 C 0.09252 0.00134 0.90742 0.0
C596 C 0.14541 0.00249 0.91195 0.0
C597 C 0.13777 0.03007 0.88473 0.0
C598 C 0.13799 0.01981 0.86704 0.0
C599 C 0.14875 0.04105 0.85227 0.0
C600 C 0.15868 0.0734 0.85559 0.0
C601 C 0.15749 0.08412 0.87353 0.0
C602 C 0.14788 0.06224 0.88829 0.0
H603 H 0.0583 0.14344 0.85597 0.0
H604 H 0.07671 0.18262 0.91108 0.0
H605 H 0.01954 0.16587 0.91453 0.0
H606 H 0.98971 0.15894 0.84466 0.0
H607 H 0.96843 0.12133 0.8326 0.0
H608 H 0.01167 0.14331 0.83263 0.0
H609 H 0.01218 0.09334 0.84532 0.0
H610 H 0.96915 0.07134 0.8454 0.0
H611 H 0.99089 0.07505 0.86625 0.0
H612 H 0.96042 0.13576 0.91461 0.0
H613 H 0.90357 0.09416 0.91133 0.0
H614 H 0.9222 0.07425 0.85611 0.0
C615 C 0.0505 0.14971 0.86845 0.0
C616 C 0.07197 0.16464 0.88319 0.0
C617 C 0.06069 0.1714 0.89957 0.0
C618 C 0.02827 0.16212 0.90162 0.0
C619 C 0.0074 0.14621 0.88713 0.0
C620 C 0.01806 0.14027 0.87077 0.0
C621 C 0.99014 0.11868 0.85843 0.0
C622 C 0.98998 0.13665 0.84105 0.0
C623 C 0.99063 0.08779 0.85359 0.0
C624 C 0.96216 0.11186 0.87083 0.0
C625 C 0.97267 0.1286 0.88716 0.0
C626 C 0.95178 0.12324 0.9017 0.0
C627 C 0.91955 0.09952 0.89974 0.0
C628 C 0.90848 0.08144 0.88337 0.0
C629 C 0.92985 0.0885 0.86853 0.0
H630 H 0.90929 0.84105 0.90183 0.0
H631 H 0.9117 0.82415 0.84353 0.0
H632 H 0.87383 0.84365 0.83791 0.0
H633 H 0.82309 0.82379 0.90368 0.0
H634 H 0.83399 0.85551 0.92016 0.0
H635 H 0.85464 0.83295 0.92001 0.0
H636 H 0.90889 0.88584 0.91689 0.0
H637 H 0.88853 0.90847 0.91679 0.0
H638 H 0.91474 0.91251 0.89806 0.0
H639 H 0.8454 0.87534 0.83797 0.0
H640 H 0.82741 0.91436 0.84387 0.0
H641 H 0.84347 0.91027 0.90215 0.0
C642 C 0.90093 0.84025 0.88795 0.0
C643 C 0.91346 0.83101 0.87314 0.0
C644 C 0.90227 0.83085 0.85514 0.0
C645 C 0.88071 0.8419 0.85181 0.0
C646 C 0.8702 0.85252 0.86664 0.0
C647 C 0.87954 0.85123 0.88442 0.0
C648 C 0.86834 0.86777 0.89769 0.0
C649 C 0.84353 0.84355 0.91118 0.0
C650 C 0.89682 0.89527 0.90793 0.0
C651 C 0.85297 0.88031 0.88448 0.0
C652 C 0.85366 0.87075 0.86668 0.0
C653 C 0.84397 0.88229 0.85191 0.0
C654 C 0.83392 0.90458 0.85539 0.0
C655 C 0.83387 0.91529 0.87349 0.0
C656 C 0.8427 0.9022 0.8882 0.0
H657 H 0.72759 0.48135 0.42949 0.0
H658 H 0.74928 0.5091 0.48664 0.0
H659 H 0.69194 0.48927 0.49254 0.0
H660 H 0.65713 0.49598 0.42524 0.0
H661 H 0.63618 0.46134 0.41066 0.0
H662 H 0.67935 0.48469 0.41004 0.0
H663 H 0.6823 0.43343 0.41678 0.0
H664 H 0.63937 0.41006 0.41767 0.0
H665 H 0.66282 0.4101 0.43696 0.0
H666 H 0.63192 0.45614 0.49362 0.0
H667 H 0.5749 0.4153 0.48935 0.0
H668 H 0.59259 0.40987 0.43144 0.0
C669 C 0.72053 0.48445 0.4431 0.0
C670 C 0.743 0.49682 0.45759 0.0
C671 C 0.7326 0.49993 0.47527 0.0
C672 C 0.70002 0.48872 0.47875 0.0
C673 C 0.67823 0.47495 0.46436 0.0
C674 C 0.68817 0.47336 0.44679 0.0
C675 C 0.65991 0.45398 0.43423 0.0
C676 C 0.65803 0.47528 0.41915 0.0
C677 C 0.66119 0.4252 0.42595 0.0
C678 C 0.63257 0.44328 0.44772 0.0
C679 C 0.6435 0.45605 0.46497 0.0
C680 C 0.62299 0.44669 0.48008 0.0
C681 C 0.59065 0.42335 0.47754 0.0
C682 C 0.57919 0.40952 0.46004 0.0
C683 C 0.6004 0.42036 0.44493 0.0
H684 H 0.51139 0.25112 0.48146 0.0
H685 H 0.46975 0.22777 0.42701 0.0
H686 H 0.48648 0.18734 0.42375 0.0
H687 H 0.57918 0.25272 0.47054 0.0
H688 H 0.58444 0.23557 0.49132 0.0
H689 H 0.56167 0.25578 0.49177 0.0
H690 H 0.51284 0.20513 0.50523 0.0
H691 H 0.53566 0.18474 0.50502 0.0
H692 H 0.49744 0.16727 0.49353 0.0
H693 H 0.51785 0.15968 0.42329 0.0
H694 H 0.5602 0.14536 0.42615 0.0
H695 H 0.58181 0.18566 0.48098 0.0
C696 C 0.50439 0.23629 0.46926 0.0
C697 C 0.48893 0.24221 0.45458 0.0
C698 C 0.48132 0.22336 0.43848 0.0
C699 C 0.49065 0.20026 0.43654 0.0
C700 C 0.50745 0.19617 0.45085 0.0
C701 C 0.51391 0.21334 0.46704 0.0
C702 C 0.53652 0.20803 0.47909 0.0
C703 C 0.56725 0.23991 0.48341 0.0
C704 C 0.51959 0.19022 0.49676 0.0
C705 C 0.54336 0.18695 0.46664 0.0
C706 C 0.5258 0.17982 0.45059 0.0
C707 C 0.53102 0.16423 0.43602 0.0
C708 C 0.55524 0.15634 0.43772 0.0
C709 C 0.57395 0.16403 0.45388 0.0
C710 C 0.56722 0.17865 0.4687 0.0
H711 H 0.81655 0.396 0.43582 0.0
H712 H 0.82532 0.4178 0.49402 0.0
H713 H 0.80597 0.36088 0.50103 0.0
H714 H 0.74516 0.32944 0.43803 0.0
H715 H 0.75206 0.30695 0.42064 0.0
H716 H 0.77412 0.34992 0.42009 0.0
H717 H 0.82769 0.34944 0.42043 0.0
H718 H 0.8057 0.30623 0.42085 0.0
H719 H 0.83516 0.32814 0.43831 0.0
H720 H 0.77577 0.30073 0.50171 0.0
H721 H 0.73749 0.24349 0.49598 0.0
H722 H 0.74838 0.26128 0.43733 0.0
C723 C 0.81557 0.38911 0.45005 0.0
C724 C 0.82254 0.41143 0.46436 0.0
C725 C 0.82033 0.40121 0.4828 0.0
C726 C 0.80944 0.3689 0.48692 0.0
C727 C 0.80126 0.34721 0.47246 0.0
C728 C 0.80462 0.35703 0.45436 0.0
C729 C 0.79014 0.32874 0.44137 0.0
C730 C 0.76381 0.32878 0.42935 0.0
C731 C 0.81624 0.3281 0.42955 0.0
C732 C 0.77628 0.30142 0.455 0.0
C733 C 0.78361 0.31244 0.47285 0.0
C734 C 0.77053 0.29178 0.48779 0.0
C735 C 0.74874 0.25926 0.48439 0.0
C736 C 0.73993 0.24784 0.4662 0.0
C737 C 0.75485 0.26912 0.45139 0.0
H738 H 0.7397 0.26592 0.18544 0.0
H739 H 0.7841 0.25679 0.23504 0.0
H740 H 0.82454 0.31419 0.23351 0.0
H741 H 0.81654 0.33425 0.16338 0.0
H742 H 0.79445 0.35277 0.155 0.0
H743 H 0.77516 0.30972 0.1567 0.0
H744 H 0.73045 0.30916 0.17673 0.0
H745 H 0.74958 0.35197 0.17521 0.0
H746 H 0.74128 0.33292 0.19739 0.0
H747 H 0.85069 0.3727 0.23135 0.0
H748 H 0.86074 0.42798 0.22857 0.0
H749 H 0.8006 0.40091 0.18015 0.0
C750 C 0.75894 0.27576 0.19541 0.0
C751 C 0.7591 0.25695 0.21022 0.0
C752 C 0.78377 0.2708 0.2235 0.0
C753 C 0.80695 0.30336 0.22268 0.0
C754 C 0.80521 0.32176 0.20845 0.0
C755 C 0.78204 0.30843 0.1949 0.0
C756 C 0.78199 0.33423 0.183 0.0
C757 C 0.79268 0.33264 0.16335 0.0
C758 C 0.74888 0.33193 0.18311 0.0
C759 C 0.80703 0.36408 0.1928 0.0
C760 C 0.82075 0.35633 0.20714 0.0
C761 C 0.84098 0.37923 0.21981 0.0
C762 C 0.8465 0.41054 0.21817 0.0
C763 C 0.83189 0.41871 0.20396 0.0
C764 C 0.81295 0.39549 0.19073 0.0
H765 H 0.72039 0.46813 0.1828 0.0
H766 H 0.74187 0.51731 0.23515 0.0
H767 H 0.68541 0.50364 0.23807 0.0
H768 H 0.65325 0.48409 0.16829 0.0
H769 H 0.63055 0.44442 0.15867 0.0
H770 H 0.67378 0.46517 0.1582 0.0
H771 H 0.6731 0.41725 0.17478 0.0
H772 H 0.6301 0.39648 0.17529 0.0
H773 H 0.65228 0.4036 0.19636 0.0
H774 H 0.62643 0.47602 0.23856 0.0
H775 H 0.56929 0.43459 0.23731 0.0
H776 H 0.58469 0.40237 0.18475 0.0
C777 C 0.71343 0.47719 0.19447 0.0
C778 C 0.73551 0.49413 0.20863 0.0
C779 C 0.72534 0.50451 0.22408 0.0
C780 C 0.69336 0.49704 0.22579 0.0
C781 C 0.67182 0.47919 0.21193 0.0
C782 C 0.68142 0.46948 0.1965 0.0
C783 C 0.65279 0.44616 0.18514 0.0
C784 C 0.65258 0.46085 0.16647 0.0
C785 C 0.65203 0.41399 0.18278 0.0
C786 C 0.62557 0.44269 0.19718 0.0
C787 C 0.63711 0.46269 0.2123 0.0
C788 C 0.61701 0.46091 0.22656 0.0
C789 C 0.58458 0.43726 0.22575 0.0
C790 C 0.57256 0.41563 0.21081 0.0
C791 C 0.59306 0.41929 0.19602 0.0
H792 H 0.52518 0.25721 0.24126 0.0
H793 H 0.49103 0.23845 0.18502 0.0
H794 H 0.5114 0.20074 0.1817 0.0
H795 H 0.59687 0.26218 0.23279 0.0
H796 H 0.59902 0.24368 0.25383 0.0
H797 H 0.57614 0.2638 0.25301 0.0
H798 H 0.52568 0.21214 0.26421 0.0
H799 H 0.54851 0.1918 0.26512 0.0
H800 H 0.51211 0.17517 0.25183 0.0
H801 H 0.5423 0.17153 0.18308 0.0
H802 H 0.58253 0.15505 0.18861 0.0
H803 H 0.59702 0.19362 0.24384 0.0
C804 C 0.52103 0.24442 0.22841 0.0
C805 C 0.50629 0.25063 0.21344 0.0
C806 C 0.50209 0.23396 0.19672 0.0
C807 C 0.51345 0.21237 0.19474 0.0
C808 C 0.52879 0.20758 0.20962 0.0
C809 C 0.53243 0.22305 0.22617 0.0
C810 C 0.55314 0.21693 0.2393 0.0
C811 C 0.58305 0.24852 0.24505 0.0
C812 C 0.53369 0.19787 0.25611 0.0
C813 C 0.56186 0.19684 0.22726 0.0
C814 C 0.54702 0.19109 0.21034 0.0
C815 C 0.55358 0.17537 0.1964 0.0
C816 C 0.57652 0.16611 0.19968 0.0
C817 C 0.59294 0.17295 0.21669 0.0
C818 C 0.58466 0.18764 0.23078 0.0
H819 H 0.26839 0.74422 0.81272 0.0
H820 H 0.25244 0.77024 0.75839 0.0
H821 H 0.31013 0.80926 0.75562 0.0
H822 H 0.33887 0.82633 0.82578 0.0
H823 H 0.35862 0.80782 0.83726 0.0
H824 H 0.31544 0.78813 0.83698 0.0
H825 H 0.31295 0.73748 0.82303 0.0
H826 H 0.35592 0.75697 0.82312 0.0
H827 H 0.33421 0.74095 0.80201 0.0
H828 H 0.36927 0.83607 0.75585 0.0
H829 H 0.42554 0.84935 0.7593 0.0
H830 H 0.40417 0.80683 0.81358 0.0
C831 C 0.27685 0.75919 0.8006 0.0
C832 C 0.25591 0.75444 0.78584 0.0
C833 C 0.26804 0.77363 0.76991 0.0
C834 C 0.30077 0.79598 0.76825 0.0
C835 C 0.32109 0.79903 0.78268 0.0
C836 C 0.30958 0.78142 0.79867 0.0
C837 C 0.33685 0.78573 0.81097 0.0
C838 C 0.33748 0.80304 0.8288 0.0
C839 C 0.33485 0.75337 0.815 0.0
C840 C 0.36536 0.80688 0.79892 0.0
C841 C 0.35576 0.81484 0.78284 0.0
C842 C 0.37722 0.83081 0.76859 0.0
C843 C 0.40912 0.83814 0.77064 0.0
C844 C 0.41926 0.82948 0.7868 0.0
C845 C 0.39728 0.81456 0.80131 0.0
H846 H 0.25605 0.52454 0.76065 0.0
H847 H 0.24927 0.49608 0.81772 0.0
H848 H 0.21034 0.51422 0.82336 0.0
H849 H 0.25859 0.59505 0.76858 0.0
H850 H 0.23542 0.59388 0.74887 0.0
H851 H 0.25733 0.57276 0.74842 0.0
H852 H 0.20511 0.51992 0.74069 0.0
H853 H 0.18296 0.54099 0.7411 0.0
H854 H 0.17061 0.50624 0.75541 0.0
H855 H 0.17956 0.54342 0.82401 0.0
H856 H 0.16033 0.58182 0.81966 0.0
H857 H 0.18684 0.59078 0.76213 0.0
C858 C 0.24562 0.52115 0.77421 0.0
C859 C 0.25564 0.50876 0.78872 0.0
C860 C 0.2419 0.50539 0.80635 0.0
C861 C 0.21962 0.51549 0.80968 0.0
C862 C 0.21108 0.52861 0.7952 0.0
C863 C 0.22348 0.5312 0.77776 0.0
C864 C 0.2135 0.54957 0.76511 0.0
C865 C 0.24296 0.57958 0.75731 0.0
C866 C 0.19174 0.52788 0.74966 0.0
C867 C 0.19496 0.55835 0.77838 0.0
C868 C 0.19324 0.54551 0.79558 0.0
C869 C 0.18011 0.55303 0.81051 0.0
C870 C 0.16929 0.57493 0.80791 0.0
C871 C 0.17192 0.58923 0.79053 0.0
C872 C 0.18396 0.5799 0.77551 0.0
H873 H 0.47394 0.72625 0.81491 0.0
H874 H 0.52558 0.74773 0.76335 0.0
H875 H 0.51166 0.69127 0.76058 0.0
H876 H 0.48929 0.65885 0.8301 0.0
H877 H 0.44928 0.63628 0.8393 0.0
H878 H 0.47019 0.67949 0.83982 0.0
H879 H 0.42289 0.67906 0.82263 0.0
H880 H 0.40198 0.63609 0.82203 0.0
H881 H 0.4099 0.65841 0.80096 0.0
H882 H 0.48287 0.63234 0.75967 0.0
H883 H 0.44097 0.5753 0.76066 0.0
H884 H 0.4081 0.59058 0.813 0.0
C885 C 0.48348 0.7193 0.80347 0.0
C886 C 0.50108 0.7414 0.78943 0.0
C887 C 0.5122 0.73122 0.77431 0.0
C888 C 0.50458 0.69921 0.77268 0.0
C889 C 0.48596 0.67764 0.78633 0.0
C890 C 0.47577 0.68728 0.80155 0.0
C891 C 0.45199 0.65865 0.81275 0.0
C892 C 0.46604 0.6583 0.83161 0.0
C893 C 0.4198 0.65803 0.81468 0.0
C894 C 0.44879 0.63144 0.8008 0.0
C895 C 0.46922 0.64295 0.78587 0.0
C896 C 0.46751 0.62291 0.77158 0.0
C897 C 0.44362 0.59056 0.77222 0.0
C898 C 0.42183 0.57855 0.78707 0.0
C899 C 0.42528 0.59898 0.80185 0.0
H900 H 0.48644 0.72795 0.56835 0.0
H901 H 0.50457 0.75117 0.51048 0.0
H902 H 0.48424 0.69408 0.50348 0.0
H903 H 0.50186 0.65769 0.56819 0.0
H904 H 0.46971 0.63627 0.58433 0.0
H905 H 0.49309 0.67941 0.58519 0.0
H906 H 0.44095 0.68231 0.58254 0.0
H907 H 0.41751 0.63942 0.58144 0.0
H908 H 0.41443 0.66329 0.56337 0.0
H909 H 0.45161 0.63407 0.50217 0.0
H910 H 0.4115 0.57699 0.5068 0.0
H911 H 0.4147 0.59315 0.56554 0.0
C912 C 0.48736 0.72129 0.55426 0.0
C913 C 0.49717 0.7441 0.53997 0.0
C914 C 0.49744 0.73422 0.5217 0.0
C915 C 0.48592 0.70179 0.51758 0.0
C916 C 0.47469 0.67964 0.53192 0.0
C917 C 0.47587 0.68909 0.54996 0.0
C918 C 0.45857 0.6605 0.56259 0.0
C919 C 0.48223 0.65834 0.57586 0.0
C920 C 0.43126 0.66146 0.57308 0.0
C921 C 0.44572 0.63353 0.54874 0.0
C922 C 0.45582 0.64492 0.53116 0.0
C923 C 0.44422 0.62479 0.51592 0.0
C924 C 0.42131 0.59239 0.51868 0.0
C925 C 0.41 0.5805 0.53655 0.0
C926 C 0.42316 0.6013 0.55174 0.0
H927 H 0.25749 0.73513 0.57057 0.0
H928 H 0.23875 0.7418 0.51296 0.0
H929 H 0.29613 0.78082 0.50821 0.0
H930 H 0.32487 0.82052 0.5764 0.0
H931 H 0.34617 0.80776 0.59135 0.0
H932 H 0.30294 0.7861 0.59102 0.0
H933 H 0.30332 0.73357 0.58396 0.0
H934 H 0.34635 0.75499 0.58413 0.0
H935 H 0.32505 0.73189 0.56425 0.0
H936 H 0.35628 0.81119 0.5086 0.0
H937 H 0.41362 0.83027 0.51413 0.0
H938 H 0.39282 0.80351 0.57147 0.0
C939 C 0.26518 0.74561 0.55707 0.0
C940 C 0.24355 0.73546 0.54215 0.0
C941 C 0.2548 0.74931 0.52463 0.0
C942 C 0.28737 0.77159 0.52181 0.0
C943 C 0.3083 0.78001 0.53668 0.0
C944 C 0.29754 0.76769 0.55403 0.0
C945 C 0.32518 0.77732 0.5672 0.0
C946 C 0.32476 0.79924 0.58239 0.0
C947 C 0.32495 0.74768 0.57534 0.0
C948 C 0.35322 0.79557 0.55435 0.0
C949 C 0.34307 0.79746 0.53689 0.0
C950 C 0.36455 0.81049 0.52231 0.0
C951 C 0.3971 0.82119 0.52557 0.0
C952 C 0.4078 0.81852 0.54325 0.0
C953 C 0.38557 0.80636 0.55786 0.0
H954 H 0.25168 0.51335 0.51782 0.0
H955 H 0.2278 0.46874 0.57149 0.0
H956 H 0.18546 0.48297 0.57477 0.0
H957 H 0.24994 0.57914 0.53016 0.0
H958 H 0.23332 0.58494 0.50931 0.0
H959 H 0.25503 0.56365 0.50867 0.0
H960 H 0.20618 0.51474 0.49384 0.0
H961 H 0.18427 0.53606 0.49431 0.0
H962 H 0.16758 0.49716 0.50492 0.0
H963 H 0.15475 0.51127 0.57527 0.0
H964 H 0.13847 0.55219 0.5732 0.0
H965 H 0.18226 0.57981 0.51936 0.0
C966 C 0.23642 0.50523 0.52983 0.0
C967 C 0.24254 0.48948 0.54427 0.0
C968 C 0.22316 0.48048 0.56019 0.0
C969 C 0.19898 0.48835 0.56213 0.0
C970 C 0.19448 0.50526 0.54803 0.0
C971 C 0.21251 0.51343 0.53209 0.0
C972 C 0.20668 0.5361 0.52043 0.0
C973 C 0.2381 0.56781 0.51696 0.0
C974 C 0.19019 0.52005 0.5023 0.0
C975 C 0.18416 0.54095 0.5328 0.0
C976 C 0.17678 0.52226 0.54842 0.0
C977 C 0.15962 0.52537 0.56289 0.0
C978 C 0.15058 0.54878 0.56163 0.0
C979 C 0.15882 0.56892 0.54604 0.0
C980 C 0.17486 0.56414 0.53121 0.0
H981 H 0.15593 0.1326 0.03836 0.0
H982 H 0.23128 0.2293 0.051 0.0
H983 H 0.24044 0.241 0.01763 0.0
H984 H 0.19324 0.12084 0.99794 0.0
H985 H 0.15531 0.09811 0.98636 0.0
H986 H 0.15709 0.09737 0.01103 0.0
H987 H 0.11498 0.11582 0.01318 0.0
H988 H 0.11316 0.11674 0.98856 0.0
H989 H 0.12253 0.15208 0.00169 0.0
H990 H 0.23826 0.24214 0.98208 0.0
H991 H 0.22486 0.23261 0.94889 0.0
H992 H 0.15075 0.13525 0.96127 0.0
C993 C 0.17465 0.15622 0.03421 0.0
C994 C 0.19289 0.18006 0.04728 0.0
C995 C 0.2171 0.21062 0.0412 0.0
C996 C 0.22244 0.21745 0.02229 0.0
C997 C 0.20351 0.19336 0.00975 0.0
C998 C 0.18024 0.16331 0.01559 0.0
C999 C 0.16197 0.14175 0.99973 0.0
C1000 C 0.16724 0.11282 0.99871 0.0
C1001 C 0.12605 0.13099 0.00086 0.0
C1002 C 0.17801 0.16445 0.98394 0.0
C1003 C 0.20214 0.19406 0.98981 0.0
C1004 C 0.21954 0.21894 0.97739 0.0
C1005 C 0.2118 0.21334 0.95859 0.0
C1006 C 0.18671 0.18323 0.95251 0.0
C1007 C 0.17001 0.15858 0.96543 0.0
H1008 H 0.83406 0.97096 0.96253 0.0
H1009 H 0.76321 0.99809 0.94885 0.0
H1010 H 0.75254 -2e-05 0.98206 0.0
H1011 H 0.7924 0.92139 0.00251 0.0
H1012 H 0.82952 0.93428 0.01461 0.0
H1013 H 0.82863 0.93216 0.98992 0.0
H1014 H 0.87353 0.99178 0.98833 0.0
H1015 H 0.87441 0.99416 0.01295 0.0
H1016 H 0.86774 0.02181 0.99962 0.0
H1017 H 0.75358 0.00298 0.01761 0.0
H1018 H 0.76573 0.00602 0.05095 0.0
H1019 H 0.83601 0.97702 0.03963 0.0
C1020 C 0.81594 0.97689 0.96644 0.0
C1021 C 0.79949 0.98443 0.95313 0.0
C1022 C 0.77597 0.99206 0.95885 0.0
C1023 C 0.76981 0.99322 0.97767 0.0
C1024 C 0.78714 0.98634 0.99047 0.0
C1025 C 0.8095 0.97802 0.98496 0.0
C1026 C 0.82621 0.97313 0.00109 0.0
C1027 C 0.81873 0.93816 0.00209 0.0
C1028 C 0.86261 0.99663 0.00045 0.0
C1029 C 0.81055 0.98089 0.01663 0.0
C1030 C 0.7878 0.98814 0.01042 0.0
C1031 C 0.77116 0.99705 0.02257 0.0
C1032 C 0.7782 0.99875 0.04146 0.0
C1033 C 0.80188 0.99188 0.04787 0.0
C1034 C 0.81783 0.98254 0.03522 0.0
H1035 H 0.00076 0.86025 0.9603 0.0
H1036 H 0.99467 0.76964 0.94683 0.0
H1037 H 0.99338 0.75765 0.98008 0.0
H1038 H 0.05202 0.87874 0.99948 0.0
H1039 H 0.03254 0.89667 0.01185 0.0
H1040 H 0.0334 0.89759 0.98716 0.0
H1041 H 0.97136 0.87028 0.98643 0.0
H1042 H 0.9703 0.86922 0.01111 0.0
H1043 H 0.94761 0.83272 0.99821 0.0
H1044 H 0.99183 0.75604 0.01563 0.0
H1045 H 0.99067 0.76524 0.04911 0.0
H1046 H 0.99798 0.85703 0.03758 0.0
C1047 C 0.99921 0.83784 0.96424 0.0
C1048 C 0.99777 0.81584 0.95097 0.0
C1049 C 0.99583 0.78686 0.95679 0.0
C1050 C 0.99507 0.77987 0.97563 0.0
C1051 C 0.99638 0.80218 0.98836 0.0
C1052 C 0.99851 0.83061 0.98279 0.0
C1053 C 0.99944 0.85075 0.99888 0.0
C1054 C 0.03124 0.88283 0.99937 0.0
C1055 C 0.97044 0.85603 0.99863 0.0
C1056 C 0.99727 0.82923 0.0145 0.0
C1057 C 0.99558 0.80131 0.00832 0.0
C1058 C 0.99321 0.77789 0.02056 0.0
C1059 C 0.99256 0.78328 0.03953 0.0
C1060 C 0.99422 0.81183 0.04597 0.0
C1061 C 0.99666 0.83492 0.03318 0.0
H1062 H 0.85195 0.53272 0.29234 0.0
H1063 H 0.78977 0.43123 0.28128 0.0
H1064 H 0.78705 0.41961 0.31416 0.0
H1065 H 0.8954 0.52275 0.3313 0.0
H1066 H 0.89689 0.55529 0.34431 0.0
H1067 H 0.89642 0.55621 0.31959 0.0
H1068 H 0.8465 0.56319 0.32049 0.0
H1069 H 0.84681 0.56228 0.34518 0.0
H1070 H 0.81127 0.53443 0.33279 0.0
H1071 H 0.78765 0.41821 0.34747 0.0
H1072 H 0.79114 0.42719 0.38071 0.0
H1073 H 0.85289 0.52948 0.37201 0.0
C1074 C 0.83815 0.50808 0.29689 0.0
C1075 C 0.82106 0.48289 0.28421 0.0
C1076 C 0.80292 0.45097 0.29069 0.0
C1077 C 0.80133 0.44404 0.30937 0.0
C1078 C 0.81797 0.46925 0.32152 0.0
C1079 C 0.83605 0.50065 0.3157 0.0
C1080 C 0.85006 0.5231 0.33206 0.0
C1081 C 0.88689 0.54036 0.33179 0.0
C1082 C 0.83793 0.54717 0.33266 0.0
C1083 C 0.83649 0.49932 0.34785 0.0
C1084 C 0.81827 0.46843 0.34127 0.0
C1085 C 0.80203 0.44223 0.35285 0.0
C1086 C 0.80408 0.44764 0.37173 0.0
C1087 C 0.82228 0.47901 0.37897 0.0
C1088 C 0.83909 0.50521 0.36686 0.0
H1089 H 0.52219 0.34087 0.29655 0.0
H1090 H 0.42588 0.32076 0.28376 0.0
H1091 H 0.41522 0.32176 0.31706 0.0
H1092 H 0.50256 0.29206 0.33577 0.0
H1093 H 0.53883 0.3192 0.34784 0.0
H1094 H 0.53853 0.31821 0.32317 0.0
H1095 H 0.55883 0.37924 0.32226 0.0
H1096 H 0.55913 0.38041 0.34696 0.0
H1097 H 0.53673 0.39477 0.33424 0.0
H1098 H 0.41566 0.32366 0.35267 0.0
H1099 H 0.42672 0.32496 0.38607 0.0
H1100 H 0.5227 0.3437 0.3737 0.0
C1101 C 0.49881 0.33679 0.30063 0.0
C1102 C 0.47484 0.33071 0.28756 0.0
C1103 C 0.44462 0.32549 0.29358 0.0
C1104 C 0.43841 0.32607 0.31244 0.0
C1105 C 0.46273 0.33203 0.32497 0.0
C1106 C 0.49232 0.33732 0.31919 0.0
C1107 C 0.51441 0.34238 0.33508 0.0
C1108 C 0.52413 0.31641 0.33548 0.0
C1109 C 0.54402 0.37621 0.3346 0.0
C1110 C 0.4926 0.33869 0.35087 0.0
C1111 C 0.46293 0.33297 0.34494 0.0
C1112 C 0.43888 0.32825 0.35739 0.0
C1113 C 0.44536 0.32909 0.37631 0.0
C1114 C 0.47553 0.33435 0.38247 0.0
C1115 C 0.49935 0.33953 0.36949 0.0
H1116 H 0.64213 0.11908 0.37622 0.0
H1117 H 0.72896 0.20756 0.38945 0.0
H1118 H 0.7454 0.2143 0.35698 0.0
H1119 H 0.67697 0.09354 0.3371 0.0
H1120 H 0.64076 0.07866 0.32376 0.0
H1121 H 0.6387 0.07695 0.34848 0.0
H1122 H 0.60793 0.10825 0.34816 0.0
H1123 H 0.61007 0.11026 0.32353 0.0
H1124 H 0.62544 0.14659 0.33679 0.0
H1125 H 0.74819 0.21694 0.32356 0.0
H1126 H 0.73773 0.21485 0.29034 0.0
H1127 H 0.64948 0.12445 0.29727 0.0
C1128 C 0.66516 0.13906 0.37226 0.0
C1129 C 0.68477 0.16249 0.38524 0.0
C1130 C 0.71405 0.18917 0.37965 0.0
C1131 C 0.72357 0.19314 0.36127 0.0
C1132 C 0.70343 0.17023 0.34862 0.0
C1133 C 0.6749 0.14356 0.35379 0.0
C1134 C 0.65604 0.12483 0.33703 0.0
C1135 C 0.65294 0.09152 0.33657 0.0
C1136 C 0.62292 0.12236 0.33634 0.0
C1137 C 0.67772 0.14599 0.32172 0.0
C1138 C 0.70514 0.17175 0.32883 0.0
C1139 C 0.7273 0.19647 0.31776 0.0
C1140 C 0.72113 0.19515 0.29895 0.0
C1141 C 0.69321 0.16922 0.29135 0.0
C1142 C 0.6715 0.14397 0.30277 0.0
H1143 H 0.47666 0.79631 0.62926 0.0
H1144 H 0.55735 0.88916 0.61491 0.0
H1145 H 0.57062 0.90073 0.64798 0.0
H1146 H 0.45226 0.82113 0.66871 0.0
H1147 H 0.44095 0.78472 0.68121 0.0
H1148 H 0.4391 0.78401 0.65655 0.0
H1149 H 0.47606 0.75922 0.65538 0.0
H1150 H 0.47804 0.75986 0.68006 0.0
H1151 H 0.51444 0.77937 0.66676 0.0
H1152 H 0.57349 0.90181 0.68351 0.0
H1153 H 0.56538 0.89232 0.71711 0.0
H1154 H 0.48278 0.79869 0.70651 0.0
C1155 C 0.49724 0.81911 0.63297 0.0
C1156 C 0.51596 0.84186 0.6195 0.0
C1157 C 0.54268 0.87135 0.62503 0.0
C1158 C 0.55038 0.8781 0.64376 0.0
C1159 C 0.53118 0.85503 0.6567 0.0
C1160 C 0.5052 0.82611 0.65142 0.0
C1161 C 0.48781 0.80533 0.66772 0.0
C1162 C 0.45298 0.79841 0.66859 0.0
C1163 C 0.48919 0.77411 0.66746 0.0
C1164 C 0.50776 0.82708 0.68312 0.0
C1165 C 0.5328 0.85564 0.67665 0.0
C1166 C 0.554 0.87945 0.68866 0.0
C1167 C 0.54925 0.87389 0.7077 0.0
C1168 C 0.52345 0.8448 0.71444 0.0
C1169 C 0.50274 0.82122 0.70187 0.0
H1170 H 0.17729 0.64684 0.62846 0.0
H1171 H 0.10165 0.66759 0.61538 0.0
H1172 H 0.09231 0.67047 0.6487 0.0
H1173 H 0.1393 0.59745 0.66823 0.0
H1174 H 0.17684 0.61227 0.6802 0.0
H1175 H 0.17588 0.61052 0.65551 0.0
H1176 H 0.21799 0.67114 0.65403 0.0
H1177 H 0.21907 0.67309 0.67868 0.0
H1178 H 0.21009 0.69948 0.66569 0.0
H1179 H 0.09349 0.67286 0.68435 0.0
H1180 H 0.10548 0.67508 0.71769 0.0
H1181 H 0.18034 0.65274 0.70555 0.0
C1182 C 0.1586 0.65187 0.63249 0.0
C1183 C 0.14025 0.65709 0.61932 0.0
C1184 C 0.11598 0.66347 0.62527 0.0
C1185 C 0.11052 0.66513 0.64415 0.0
C1186 C 0.1294 0.66009 0.65678 0.0
C1187 C 0.15285 0.65347 0.65107 0.0
C1188 C 0.17061 0.64967 0.66702 0.0
C1189 C 0.16533 0.61545 0.66778 0.0
C1190 C 0.20656 0.67485 0.66631 0.0
C1191 C 0.15407 0.65585 0.68273 0.0
C1192 C 0.13014 0.66154 0.67675 0.0
C1193 C 0.11212 0.66829 0.68912 0.0
C1194 C 0.11903 0.66948 0.708 0.0
C1195 C 0.14392 0.66422 0.71419 0.0
C1196 C 0.16126 0.65705 0.70131 0.0
H1197 H 0.34486 0.52653 0.62436 0.0
H1198 H 0.32935 0.4315 0.61274 0.0
H1199 H 0.32833 0.42122 0.64621 0.0
H1200 H 0.39628 0.54282 0.66388 0.0
H1201 H 0.37975 0.56425 0.67558 0.0
H1202 H 0.38078 0.56395 0.65089 0.0
H1203 H 0.31941 0.54193 0.64994 0.0
H1204 H 0.31815 0.54198 0.67461 0.0
H1205 H 0.29297 0.50556 0.66213 0.0
H1206 H 0.32673 0.42141 0.68174 0.0
H1207 H 0.32585 0.43245 0.71497 0.0
H1208 H 0.34224 0.52727 0.7017 0.0
C1209 C 0.34147 0.50357 0.62876 0.0
C1210 C 0.33714 0.47978 0.61594 0.0
C1211 C 0.33283 0.45012 0.62235 0.0
C1212 C 0.33216 0.44408 0.64131 0.0
C1213 C 0.33605 0.46804 0.65359 0.0
C1214 C 0.34083 0.49726 0.64746 0.0
C1215 C 0.34374 0.51901 0.66314 0.0
C1216 C 0.37712 0.54929 0.66338 0.0
C1217 C 0.31697 0.5276 0.6624 0.0
C1218 C 0.33937 0.49741 0.67918 0.0
C1219 C 0.33512 0.46813 0.67356 0.0
C1220 C 0.3302 0.44434 0.68623 0.0
C1221 C 0.32968 0.45077 0.70506 0.0
C1222 C 0.33392 0.48069 0.71094 0.0
C1223 C 0.33887 0.50413 0.69772 0.0
loop_
_geom_bond_atom_site_label_1
_geom_bond_atom_site_label_2
_geom_bond_distance
_geom_bond_site_symmetry_2
_ccdc_geom_bond_type
O0 Cd1 2.223 . S
O0 C8 1.315 . S
Cd1 O0 2.223 . S
Cd1 O4 2.297 . S
Cd1 O5 2.439 . S
Cd1 O11 2.240 . S
Cd2 O3 2.240 . S
Cd2 O10 2.223 . S
Cd2 O12 2.297 . S
Cd2 O13 2.439 . S
O3 Cd2 2.240 . S
O3 C8 1.279 . S
O4 Cd1 2.297 . S
O4 C6 1.247 . S
O5 Cd1 2.439 . S
O5 C6 1.208 . S
C6 O4 1.247 . S
C6 O5 1.208 . S
C7 O12 1.247 . S
C7 O13 1.208 . S
C8 O0 1.315 . S
C8 O3 1.279 . S
C9 O10 1.315 . S
C9 O11 1.279 . S
O10 Cd2 2.223 . S
O10 C9 1.315 . S
O11 Cd1 2.240 . S
O11 C9 1.279 . S
O12 Cd2 2.297 . S
O12 C7 1.247 . S
O13 Cd2 2.439 . S
O13 C7 1.208 . S
O14 Cd15 2.223 1_545 S
O14 C22 1.315 . S
Cd15 O14 2.223 1_565 S
Cd15 O18 2.297 1_565 S
Cd15 O19 2.439 1_565 S
Cd15 O25 2.240 . S
Cd16 O17 2.240 . S
Cd16 O24 2.223 1_545 S
Cd16 O26 2.297 1_545 S
Cd16 O27 2.439 1_545 S
O17 Cd16 2.240 . S
O17 C22 1.279 . S
O18 Cd15 2.297 1_545 S
O18 C20 1.247 . S
O19 Cd15 2.439 1_545 S
O19 C20 1.208 . S
C20 O18 1.247 . S
C20 O19 1.208 . S
C21 O26 1.247 . S
C21 O27 1.208 . S
C22 O14 1.315 . S
C22 O17 1.279 . S
C23 O24 1.315 . S
C23 O25 1.279 . S
O24 Cd16 2.223 1_565 S
O24 C23 1.315 . S
O25 Cd15 2.240 . S
O25 C23 1.279 . S
O26 Cd16 2.297 1_565 S
O26 C21 1.247 . S
O27 Cd16 2.439 1_565 S
O27 C21 1.208 . S
O28 Cd29 2.223 1_655 S
O28 C36 1.315 . S
Cd29 O28 2.223 1_455 S
Cd29 O32 2.297 1_455 S
Cd29 O33 2.439 1_455 S
Cd29 O39 2.240 . S
Cd30 O31 2.240 . S
Cd30 O38 2.223 1_655 S
Cd30 O40 2.297 1_655 S
Cd30 O41 2.439 1_655 S
O31 Cd30 2.240 . S
O31 C36 1.279 . S
O32 Cd29 2.297 1_655 S
O32 C34 1.247 . S
O33 Cd29 2.439 1_655 S
O33 C34 1.208 . S
C34 O32 1.247 . S
C34 O33 1.208 . S
C35 O40 1.247 . S
C35 O41 1.208 . S
C36 O28 1.315 . S
C36 O31 1.279 . S
C37 O38 1.315 . S
C37 O39 1.279 . S
O38 Cd30 2.223 1_455 S
O38 C37 1.315 . S
O39 Cd29 2.240 . S
O39 C37 1.279 . S
O40 Cd30 2.297 1_455 S
O40 C35 1.247 . S
O41 Cd30 2.439 1_455 S
O41 C35 1.208 . S
O42 Cd43 2.223 . S
O42 C50 1.315 . S
Cd43 O42 2.223 . S
Cd43 O46 2.297 . S
Cd43 O47 2.439 . S
Cd43 O53 2.240 . S
Cd44 O45 2.240 . S
Cd44 O52 2.223 . S
Cd44 O54 2.297 . S
Cd44 O55 2.439 . S
O45 Cd44 2.240 . S
O45 C50 1.279 . S
O46 Cd43 2.297 . S
O46 C48 1.247 . S
O47 Cd43 2.439 . S
O47 C48 1.208 . S
C48 O46 1.247 . S
C48 O47 1.208 . S
C49 O54 1.247 . S
C49 O55 1.208 . S
C50 O42 1.315 . S
C50 O45 1.279 . S
C51 O52 1.315 . S
C51 O53 1.279 . S
O52 Cd44 2.223 . S
O52 C51 1.315 . S
O53 Cd43 2.240 . S
O53 C51 1.279 . S
O54 Cd44 2.297 . S
O54 C49 1.247 . S
O55 Cd44 2.439 . S
O55 C49 1.208 . S
O56 Cd57 2.223 1_565 S
O56 C64 1.315 . S
Cd57 O56 2.223 1_545 S
Cd57 O60 2.297 1_545 S
Cd57 O61 2.439 1_545 S
Cd57 O67 2.240 . S
Cd58 O59 2.240 . S
Cd58 O66 2.223 1_565 S
Cd58 O68 2.297 1_565 S
Cd58 O69 2.439 1_565 S
O59 Cd58 2.240 . S
O59 C64 1.279 . S
O60 Cd57 2.297 1_565 S
O60 C62 1.247 . S
O61 Cd57 2.439 1_565 S
O61 C62 1.208 . S
C62 O60 1.247 . S
C62 O61 1.208 . S
C63 O68 1.247 . S
C63 O69 1.208 . S
C64 O56 1.315 . S
C64 O59 1.279 . S
C65 O66 1.315 . S
C65 O67 1.279 . S
O66 Cd58 2.223 1_545 S
O66 C65 1.315 . S
O67 Cd57 2.240 . S
O67 C65 1.279 . S
O68 Cd58 2.297 1_545 S
O68 C63 1.247 . S
O69 Cd58 2.439 1_545 S
O69 C63 1.208 . S
O70 Cd71 2.223 1_455 S
O70 C78 1.315 . S
Cd71 O70 2.223 1_655 S
Cd71 O74 2.297 1_655 S
Cd71 O75 2.439 1_655 S
Cd71 O81 2.240 . S
Cd72 O73 2.240 . S
Cd72 O80 2.223 1_455 S
Cd72 O82 2.297 1_455 S
Cd72 O83 2.439 1_455 S
O73 Cd72 2.240 . S
O73 C78 1.279 . S
O74 Cd71 2.297 1_455 S
O74 C76 1.247 . S
O75 Cd71 2.439 1_455 S
O75 C76 1.208 . S
C76 O74 1.247 . S
C76 O75 1.208 . S
C77 O82 1.247 . S
C77 O83 1.208 . S
C78 O70 1.315 . S
C78 O73 1.279 . S
C79 O80 1.315 . S
C79 O81 1.279 . S
O80 Cd72 2.223 1_655 S
O80 C79 1.315 . S
O81 Cd71 2.240 . S
O81 C79 1.279 . S
O82 Cd72 2.297 1_655 S
O82 C77 1.247 . S
O83 Cd72 2.439 1_655 S
O83 C77 1.208 . S
O84 Cd85 2.223 . S
O84 C92 1.315 . S
Cd85 O84 2.223 . S
Cd85 O88 2.297 . S
Cd85 O89 2.439 . S
Cd85 O95 2.240 . S
Cd86 O87 2.240 . S
Cd86 O94 2.223 . S
Cd86 O96 2.297 . S
Cd86 O97 2.439 . S
O87 Cd86 2.240 . S
O87 C92 1.279 . S
O88 Cd85 2.297 . S
O88 C90 1.247 . S
O89 Cd85 2.439 . S
O89 C90 1.208 . S
C90 O88 1.247 . S
C90 O89 1.208 . S
C91 O96 1.247 . S
C91 O97 1.208 . S
C92 O84 1.315 . S
C92 O87 1.279 . S
C93 O94 1.315 . S
C93 O95 1.279 . S
O94 Cd86 2.223 . S
O94 C93 1.315 . S
O95 Cd85 2.240 . S
O95 C93 1.279 . S
O96 Cd86 2.297 . S
O96 C91 1.247 . S
O97 Cd86 2.439 . S
O97 C91 1.208 . S
O98 Cd99 2.223 . S
O98 C106 1.315 . S
Cd99 O98 2.223 . S
Cd99 O102 2.297 . S
Cd99 O103 2.439 . S
Cd99 O109 2.240 . S
Cd100 O101 2.240 . S
Cd100 O108 2.223 . S
Cd100 O110 2.297 . S
Cd100 O111 2.439 . S
O101 Cd100 2.240 . S
O101 C106 1.279 . S
O102 Cd99 2.297 . S
O102 C104 1.247 . S
O103 Cd99 2.439 . S
O103 C104 1.208 . S
C104 O102 1.247 . S
C104 O103 1.208 . S
C105 O110 1.247 . S
C105 O111 1.208 . S
C106 O98 1.315 . S
C106 O101 1.279 . S
C107 O108 1.315 . S
C107 O109 1.279 . S
O108 Cd100 2.223 . S
O108 C107 1.315 . S
O109 Cd99 2.240 . S
O109 C107 1.279 . S
O110 Cd100 2.297 . S
O110 C105 1.247 . S
O111 Cd100 2.439 . S
O111 C105 1.208 . S
O112 Cd113 2.223 . S
O112 C120 1.315 . S
Cd113 O112 2.223 . S
Cd113 O116 2.297 . S
Cd113 O117 2.439 . S
Cd113 O123 2.240 . S
Cd114 O115 2.240 . S
Cd114 O122 2.223 . S
Cd114 O124 2.297 . S
Cd114 O125 2.439 . S
O115 Cd114 2.240 . S
O115 C120 1.279 . S
O116 Cd113 2.297 . S
O116 C118 1.247 . S
O117 Cd113 2.439 . S
O117 C118 1.208 . S
C118 O116 1.247 . S
C118 O117 1.208 . S
C119 O124 1.247 . S
C119 O125 1.208 . S
C120 O112 1.315 . S
C120 O115 1.279 . S
C121 O122 1.315 . S
C121 O123 1.279 . S
O122 Cd114 2.223 . S
O122 C121 1.315 . S
O123 Cd113 2.240 . S
O123 C121 1.279 . S
O124 Cd114 2.297 . S
O124 C119 1.247 . S
O125 Cd114 2.439 . S
O125 C119 1.208 . S
O126 Cd127 2.223 . S
O126 C134 1.315 . S
Cd127 O126 2.223 . S
Cd127 O130 2.297 . S
Cd127 O131 2.439 . S
Cd127 O137 2.240 . S
Cd128 O129 2.240 . S
Cd128 O136 2.223 . S
Cd128 O138 2.297 . S
Cd128 O139 2.439 . S
O129 Cd128 2.240 . S
O129 C134 1.279 . S
O130 Cd127 2.297 . S
O130 C132 1.247 . S
O131 Cd127 2.439 . S
O131 C132 1.208 . S
C132 O130 1.247 . S
C132 O131 1.208 . S
C133 O138 1.247 . S
C133 O139 1.208 . S
C134 O126 1.315 . S
C134 O129 1.279 . S
C135 O136 1.315 . S
C135 O137 1.279 . S
O136 Cd128 2.223 . S
O136 C135 1.315 . S
O137 Cd127 2.240 . S
O137 C135 1.279 . S
O138 Cd128 2.297 . S
O138 C133 1.247 . S
O139 Cd128 2.439 . S
O139 C133 1.208 . S
O140 Cd141 2.223 . S
O140 C148 1.315 . S
Cd141 O140 2.223 . S
Cd141 O144 2.297 . S
Cd141 O145 2.439 . S
Cd141 O151 2.240 . S
Cd142 O143 2.240 . S
Cd142 O150 2.223 . S
Cd142 O152 2.297 . S
Cd142 O153 2.439 . S
O143 Cd142 2.240 . S
O143 C148 1.279 . S
O144 Cd141 2.297 . S
O144 C146 1.247 . S
O145 Cd141 2.439 . S
O145 C146 1.208 . S
C146 O144 1.247 . S
C146 O145 1.208 . S
C147 O152 1.247 . S
C147 O153 1.208 . S
C148 O140 1.315 . S
C148 O143 1.279 . S
C149 O150 1.315 . S
C149 O151 1.279 . S
O150 Cd142 2.223 . S
O150 C149 1.315 . S
O151 Cd141 2.240 . S
O151 C149 1.279 . S
O152 Cd142 2.297 . S
O152 C147 1.247 . S
O153 Cd142 2.439 . S
O153 C147 1.208 . S
O154 Cd155 2.223 . S
O154 C162 1.315 . S
Cd155 O154 2.223 . S
Cd155 O158 2.297 . S
Cd155 O159 2.439 . S
Cd155 O165 2.240 . S
Cd156 O157 2.240 . S
Cd156 O164 2.223 . S
Cd156 O166 2.297 . S
Cd156 O167 2.439 . S
O157 Cd156 2.240 . S
O157 C162 1.279 . S
O158 Cd155 2.297 . S
O158 C160 1.247 . S
O159 Cd155 2.439 . S
O159 C160 1.208 . S
C160 O158 1.247 . S
C160 O159 1.208 . S
C161 O166 1.247 . S
C161 O167 1.208 . S
C162 O154 1.315 . S
C162 O157 1.279 . S
C163 O164 1.315 . S
C163 O165 1.279 . S
O164 Cd156 2.223 . S
O164 C163 1.315 . S
O165 Cd155 2.240 . S
O165 C163 1.279 . S
O166 Cd156 2.297 . S
O166 C161 1.247 . S
O167 Cd156 2.439 . S
O167 C161 1.208 . S
O168 Cd169 2.223 . S
O168 C176 1.315 . S
Cd169 O168 2.223 . S
Cd169 O172 2.297 . S
Cd169 O173 2.439 . S
Cd169 O179 2.240 . S
Cd170 O171 2.240 . S
Cd170 O178 2.223 . S
Cd170 O180 2.297 . S
Cd170 O181 2.439 . S
O171 Cd170 2.240 . S
O171 C176 1.279 . S
O172 Cd169 2.297 . S
O172 C174 1.247 . S
O173 Cd169 2.439 . S
O173 C174 1.208 . S
C174 O172 1.247 . S
C174 O173 1.208 . S
C175 O180 1.247 . S
C175 O181 1.208 . S
C176 O168 1.315 . S
C176 O171 1.279 . S
C177 O178 1.315 . S
C177 O179 1.279 . S
O178 Cd170 2.223 . S
O178 C177 1.315 . S
O179 Cd169 2.240 . S
O179 C177 1.279 . S
O180 Cd170 2.297 . S
O180 C175 1.247 . S
O181 Cd170 2.439 . S
O181 C175 1.208 . S
O182 Cd183 2.223 . S
O182 C190 1.315 . S
Cd183 O182 2.223 . S
Cd183 O186 2.297 . S
Cd183 O187 2.439 . S
Cd183 O193 2.240 . S
Cd184 O185 2.240 . S
Cd184 O192 2.223 . S
Cd184 O194 2.297 . S
Cd184 O195 2.439 . S
O185 Cd184 2.240 . S
O185 C190 1.279 . S
O186 Cd183 2.297 . S
O186 C188 1.247 . S
O187 Cd183 2.439 . S
O187 C188 1.208 . S
C188 O186 1.247 . S
C188 O187 1.208 . S
C189 O194 1.247 . S
C189 O195 1.208 . S
C190 O182 1.315 . S
C190 O185 1.279 . S
C191 O192 1.315 . S
C191 O193 1.279 . S
O192 Cd184 2.223 . S
O192 C191 1.315 . S
O193 Cd183 2.240 . S
O193 C191 1.279 . S
O194 Cd184 2.297 . S
O194 C189 1.247 . S
O195 Cd184 2.439 . S
O195 C189 1.208 . S
O196 Cd197 2.223 . S
O196 C204 1.315 . S
Cd197 O196 2.223 . S
Cd197 O200 2.297 . S
Cd197 O201 2.439 . S
Cd197 O207 2.240 . S
Cd198 O199 2.240 . S
Cd198 O206 2.223 . S
Cd198 O208 2.297 . S
Cd198 O209 2.439 . S
O199 Cd198 2.240 . S
O199 C204 1.279 . S
O200 Cd197 2.297 . S
O200 C202 1.247 . S
O201 Cd197 2.439 . S
O201 C202 1.208 . S
C202 O200 1.247 . S
C202 O201 1.208 . S
C203 O208 1.247 . S
C203 O209 1.208 . S
C204 O196 1.315 . S
C204 O199 1.279 . S
C205 O206 1.315 . S
C205 O207 1.279 . S
O206 Cd198 2.223 . S
O206 C205 1.315 . S
O207 Cd197 2.240 . S
O207 C205 1.279 . S
O208 Cd198 2.297 . S
O208 C203 1.247 . S
O209 Cd198 2.439 . S
O209 C203 1.208 . S
O210 Cd211 2.223 . S
O210 C218 1.315 . S
Cd211 O210 2.223 . S
Cd211 O214 2.297 . S
Cd211 O215 2.439 . S
Cd211 O221 2.240 . S
Cd212 O213 2.240 . S
Cd212 O220 2.223 . S
Cd212 O222 2.297 . S
Cd212 O223 2.439 . S
O213 Cd212 2.240 . S
O213 C218 1.279 . S
O214 Cd211 2.297 . S
O214 C216 1.247 . S
O215 Cd211 2.439 . S
O215 C216 1.208 . S
C216 O214 1.247 . S
C216 O215 1.208 . S
C217 O222 1.247 . S
C217 O223 1.208 . S
C218 O210 1.315 . S
C218 O213 1.279 . S
C219 O220 1.315 . S
C219 O221 1.279 . S
O220 Cd212 2.223 . S
O220 C219 1.315 . S
O221 Cd211 2.240 . S
O221 C219 1.279 . S
O222 Cd212 2.297 . S
O222 C217 1.247 . S
O223 Cd212 2.439 . S
O223 C217 1.208 . S
O224 Cd225 2.223 . S
O224 C232 1.315 . S
Cd225 O224 2.223 . S
Cd225 O228 2.297 . S
Cd225 O229 2.439 . S
Cd225 O235 2.240 . S
Cd226 O227 2.240 . S
Cd226 O234 2.223 . S
Cd226 O236 2.297 . S
Cd226 O237 2.439 . S
O227 Cd226 2.240 . S
O227 C232 1.279 . S
O228 Cd225 2.297 . S
O228 C230 1.247 . S
O229 Cd225 2.439 . S
O229 C230 1.208 . S
C230 O228 1.247 . S
C230 O229 1.208 . S
C231 O236 1.247 . S
C231 O237 1.208 . S
C232 O224 1.315 . S
C232 O227 1.279 . S
C233 O234 1.315 . S
C233 O235 1.279 . S
O234 Cd226 2.223 . S
O234 C233 1.315 . S
O235 Cd225 2.240 . S
O235 C233 1.279 . S
O236 Cd226 2.297 . S
O236 C231 1.247 . S
O237 Cd226 2.439 . S
O237 C231 1.208 . S
O238 Cd239 2.223 . S
O238 C246 1.315 . S
Cd239 O238 2.223 . S
Cd239 O242 2.297 . S
Cd239 O243 2.439 . S
Cd239 O249 2.240 . S
Cd240 O241 2.240 . S
Cd240 O248 2.223 . S
Cd240 O250 2.297 . S
Cd240 O251 2.439 . S
O241 Cd240 2.240 . S
O241 C246 1.279 . S
O242 Cd239 2.297 . S
O242 C244 1.247 . S
O243 Cd239 2.439 . S
O243 C244 1.208 . S
C244 O242 1.247 . S
C244 O243 1.208 . S
C245 O250 1.247 . S
C245 O251 1.208 . S
C246 O238 1.315 . S
C246 O241 1.279 . S
C247 O248 1.315 . S
C247 O249 1.279 . S
O248 Cd240 2.223 . S
O248 C247 1.315 . S
O249 Cd239 2.240 . S
O249 C247 1.279 . S
O250 Cd240 2.297 . S
O250 C245 1.247 . S
O251 Cd240 2.439 . S
O251 C245 1.208 . S
H252 C264 0.930 . S
H253 C266 0.930 . S
H254 C267 0.930 . S
H255 C271 0.959 . S
H256 C271 0.959 . S
H257 C271 0.961 . S
H258 C272 0.960 . S
H259 C272 0.961 . S
H260 C272 0.959 . S
H261 C275 0.929 . S
H262 C276 0.931 . S
H263 C278 0.930 . S
C264 H252 0.930 . S
C264 C265 1.399 . S
C264 C269 1.399 . S
C265 C264 1.399 . S
C265 C266 1.376 . S
C266 H253 0.930 . S
C266 C265 1.376 . S
C266 C267 1.388 . S
C267 H254 0.930 . S
C267 C266 1.388 . S
C267 C268 1.390 . S
C268 C267 1.390 . S
C268 C269 1.394 . S
C268 C274 1.465 . S
C269 C264 1.399 . S
C269 C268 1.394 . S
C269 C270 1.516 . S
C270 C269 1.516 . S
C270 C271 1.502 . S
C270 C272 1.561 . S
C270 C273 1.526 . S
C271 H255 0.959 . S
C271 H256 0.959 . S
C271 H257 0.961 . S
C271 C270 1.502 . S
C272 H258 0.960 . S
C272 H259 0.961 . S
C272 H260 0.959 . S
C272 C270 1.561 . S
C273 C270 1.526 . S
C273 C274 1.396 . S
C273 C278 1.390 . S
C274 C268 1.465 . S
C274 C273 1.396 . S
C274 C275 1.399 . S
C275 H261 0.929 . S
C275 C274 1.399 . S
C275 C276 1.385 . S
C276 H262 0.931 . S
C276 C275 1.385 . S
C276 C277 1.389 . S
C277 C276 1.389 . S
C277 C278 1.387 . S
C278 H263 0.930 . S
C278 C273 1.390 . S
C278 C277 1.387 . S
H279 C291 0.930 . S
H280 C293 0.930 1_565 S
H281 C294 0.930 . S
H282 C298 0.959 . S
H283 C298 0.959 . S
H284 C298 0.961 . S
H285 C299 0.960 . S
H286 C299 0.961 . S
H287 C299 0.959 . S
H288 C302 0.929 . S
H289 C303 0.931 . S
H290 C305 0.930 . S
C291 H279 0.930 . S
C291 C292 1.399 . S
C291 C296 1.399 . S
C292 C291 1.399 . S
C292 C293 1.376 . S
C293 H280 0.930 1_545 S
C293 C292 1.376 . S
C293 C294 1.388 . S
C294 H281 0.930 . S
C294 C293 1.388 . S
C294 C295 1.390 . S
C295 C294 1.390 . S
C295 C296 1.394 . S
C295 C301 1.465 . S
C296 C291 1.399 . S
C296 C295 1.394 . S
C296 C297 1.516 . S
C297 C296 1.516 . S
C297 C298 1.502 . S
C297 C299 1.561 . S
C297 C300 1.526 . S
C298 H282 0.959 . S
C298 H283 0.959 . S
C298 H284 0.961 . S
C298 C297 1.502 . S
C299 H285 0.960 . S
C299 H286 0.961 . S
C299 H287 0.959 . S
C299 C297 1.561 . S
C300 C297 1.526 . S
C300 C301 1.396 . S
C300 C305 1.390 . S
C301 C295 1.465 . S
C301 C300 1.396 . S
C301 C302 1.399 . S
C302 H288 0.929 . S
C302 C301 1.399 . S
C302 C303 1.385 . S
C303 H289 0.931 . S
C303 C302 1.385 . S
C303 C304 1.389 . S
C304 C303 1.389 . S
C304 C305 1.387 . S
C305 H290 0.930 . S
C305 C300 1.390 . S
C305 C304 1.387 . S
H306 C318 0.930 . S
H307 C320 0.930 . S
H308 C321 0.930 . S
H309 C325 0.959 . S
H310 C325 0.959 . S
H311 C325 0.961 . S
H312 C326 0.960 . S
H313 C326 0.961 . S
H314 C326 0.959 . S
H315 C329 0.929 . S
H316 C330 0.931 . S
H317 C332 0.930 . S
C318 H306 0.930 . S
C318 C319 1.399 . S
C318 C323 1.399 . S
C319 C318 1.399 . S
C319 C320 1.376 . S
C320 H307 0.930 . S
C320 C319 1.376 . S
C320 C321 1.388 . S
C321 H308 0.930 . S
C321 C320 1.388 . S
C321 C322 1.390 . S
C322 C321 1.390 . S
C322 C323 1.394 . S
C322 C328 1.465 . S
C323 C318 1.399 . S
C323 C322 1.394 . S
C323 C324 1.516 . S
C324 C323 1.516 . S
C324 C325 1.502 . S
C324 C326 1.561 . S
C324 C327 1.526 . S
C325 H309 0.959 . S
C325 H310 0.959 . S
C325 H311 0.961 . S
C325 C324 1.502 . S
C326 H312 0.960 . S
C326 H313 0.961 . S
C326 H314 0.959 . S
C326 C324 1.561 . S
C327 C324 1.526 . S
C327 C328 1.396 . S
C327 C332 1.390 . S
C328 C322 1.465 . S
C328 C327 1.396 . S
C328 C329 1.399 . S
C329 H315 0.929 . S
C329 C328 1.399 . S
C329 C330 1.385 . S
C330 H316 0.931 . S
C330 C329 1.385 . S
C330 C331 1.389 . S
C331 C330 1.389 . S
C331 C332 1.387 . S
C332 H317 0.930 . S
C332 C327 1.390 . S
C332 C331 1.387 . S
H333 C345 0.930 . S
H334 C347 0.930 . S
H335 C348 0.930 . S
H336 C352 0.959 . S
H337 C352 0.959 . S
H338 C352 0.961 . S
H339 C353 0.960 . S
H340 C353 0.961 . S
H341 C353 0.959 . S
H342 C356 0.929 . S
H343 C357 0.931 . S
H344 C359 0.930 . S
C345 H333 0.930 . S
C345 C346 1.399 . S
C345 C350 1.399 . S
C346 C345 1.399 . S
C346 C347 1.376 . S
C347 H334 0.930 . S
C347 C346 1.376 . S
C347 C348 1.388 . S
C348 H335 0.930 . S
C348 C347 1.388 . S
C348 C349 1.390 . S
C349 C348 1.390 . S
C349 C350 1.394 . S
C349 C355 1.465 . S
C350 C345 1.399 . S
C350 C349 1.394 . S
C350 C351 1.516 . S
C351 C350 1.516 . S
C351 C352 1.502 . S
C351 C353 1.561 . S
C351 C354 1.526 . S
C352 H336 0.959 . S
C352 H337 0.959 . S
C352 H338 0.961 . S
C352 C351 1.502 . S
C353 H339 0.960 . S
C353 H340 0.961 . S
C353 H341 0.959 . S
C353 C351 1.561 . S
C354 C351 1.526 . S
C354 C355 1.396 . S
C354 C359 1.390 . S
C355 C349 1.465 . S
C355 C354 1.396 . S
C355 C356 1.399 . S
C356 H342 0.929 . S
C356 C355 1.399 . S
C356 C357 1.385 . S
C357 H343 0.931 . S
C357 C356 1.385 . S
C357 C358 1.389 . S
C358 C357 1.389 . S
C358 C359 1.387 . S
C359 H344 0.930 . S
C359 C354 1.390 . S
C359 C358 1.387 . S
H360 C372 0.930 . S
H361 C374 0.930 . S
H362 C375 0.930 . S
H363 C379 0.959 . S
H364 C379 0.959 . S
H365 C379 0.961 . S
H366 C380 0.960 . S
H367 C380 0.961 . S
H368 C380 0.959 . S
H369 C383 0.929 . S
H370 C384 0.931 . S
H371 C386 0.930 . S
C372 H360 0.930 . S
C372 C373 1.399 . S
C372 C377 1.399 . S
C373 C372 1.399 . S
C373 C374 1.376 . S
C374 H361 0.930 . S
C374 C373 1.376 . S
C374 C375 1.388 . S
C375 H362 0.930 . S
C375 C374 1.388 . S
C375 C376 1.390 . S
C376 C375 1.390 . S
C376 C377 1.394 . S
C376 C382 1.465 . S
C377 C372 1.399 . S
C377 C376 1.394 . S
C377 C378 1.516 . S
C378 C377 1.516 . S
C378 C379 1.502 . S
C378 C380 1.561 . S
C378 C381 1.526 . S
C379 H363 0.959 . S
C379 H364 0.959 . S
C379 H365 0.961 . S
C379 C378 1.502 . S
C380 H366 0.960 . S
C380 H367 0.961 . S
C380 H368 0.959 . S
C380 C378 1.561 . S
C381 C378 1.526 . S
C381 C382 1.396 . S
C381 C386 1.390 . S
C382 C376 1.465 . S
C382 C381 1.396 . S
C382 C383 1.399 . S
C383 H369 0.929 . S
C383 C382 1.399 . S
C383 C384 1.385 . S
C384 H370 0.931 . S
C384 C383 1.385 . S
C384 C385 1.389 . S
C385 C384 1.389 . S
C385 C386 1.387 . S
C386 H371 0.930 . S
C386 C381 1.390 . S
C386 C385 1.387 . S
H387 C399 0.930 . S
H388 C401 0.930 . S
H389 C402 0.930 . S
H390 C406 0.959 . S
H391 C406 0.959 . S
H392 C406 0.961 . S
H393 C407 0.960 . S
H394 C407 0.961 . S
H395 C407 0.959 . S
H396 C410 0.929 . S
H397 C411 0.931 . S
H398 C413 0.930 . S
C399 H387 0.930 . S
C399 C400 1.399 . S
C399 C404 1.399 . S
C400 C399 1.399 . S
C400 C401 1.376 . S
C401 H388 0.930 . S
C401 C400 1.376 . S
C401 C402 1.388 . S
C402 H389 0.930 . S
C402 C401 1.388 . S
C402 C403 1.390 . S
C403 C402 1.390 . S
C403 C404 1.394 . S
C403 C409 1.465 . S
C404 C399 1.399 . S
C404 C403 1.394 . S
C404 C405 1.516 . S
C405 C404 1.516 . S
C405 C406 1.502 . S
C405 C407 1.561 . S
C405 C408 1.526 . S
C406 H390 0.959 . S
C406 H391 0.959 . S
C406 H392 0.961 . S
C406 C405 1.502 . S
C407 H393 0.960 . S
C407 H394 0.961 . S
C407 H395 0.959 . S
C407 C405 1.561 . S
C408 C405 1.526 . S
C408 C409 1.396 . S
C408 C413 1.390 . S
C409 C403 1.465 . S
C409 C408 1.396 . S
C409 C410 1.399 . S
C410 H396 0.929 . S
C410 C409 1.399 . S
C410 C411 1.385 . S
C411 H397 0.931 . S
C411 C410 1.385 . S
C411 C412 1.389 . S
C412 C411 1.389 . S
C412 C413 1.387 . S
C413 H398 0.930 . S
C413 C408 1.390 . S
C413 C412 1.387 . S
H414 C426 0.930 . S
H415 C428 0.930 . S
H416 C429 0.930 . S
H417 C433 0.959 . S
H418 C433 0.959 1_455 S
H419 C433 0.961 . S
H420 C434 0.960 1_655 S
H421 C434 0.961 . S
H422 C434 0.959 . S
H423 C437 0.929 . S
H424 C438 0.931 . S
H425 C440 0.930 . S
C426 H414 0.930 . S
C426 C427 1.399 . S
C426 C431 1.399 . S
C427 C426 1.399 . S
C427 C428 1.376 . S
C428 H415 0.930 . S
C428 C427 1.376 . S
C428 C429 1.388 . S
C429 H416 0.930 . S
C429 C428 1.388 . S
C429 C430 1.390 . S
C430 C429 1.390 . S
C430 C431 1.394 . S
C430 C436 1.465 1_655 S
C431 C426 1.399 . S
C431 C430 1.394 . S
C431 C432 1.492 1_655 S
C432 C431 1.492 1_455 S
C432 C433 1.507 1_455 S
C432 C434 1.574 . S
C432 C435 1.532 . S
C433 H417 0.959 . S
C433 H418 0.959 1_655 S
C433 H419 0.961 . S
C433 C432 1.507 1_655 S
C434 H420 0.960 1_455 S
C434 H421 0.961 . S
C434 H422 0.959 . S
C434 C432 1.574 . S
C435 C432 1.532 . S
C435 C436 1.396 . S
C435 C440 1.390 . S
C436 C430 1.465 1_455 S
C436 C435 1.396 . S
C436 C437 1.399 . S
C437 H423 0.929 . S
C437 C436 1.399 . S
C437 C438 1.385 . S
C438 H424 0.931 . S
C438 C437 1.385 . S
C438 C439 1.389 . S
C439 C438 1.389 . S
C439 C440 1.387 . S
C440 H425 0.930 . S
C440 C435 1.390 . S
C440 C439 1.387 . S
H441 C453 0.930 . S
H442 C455 0.930 . S
H443 C456 0.930 . S
H444 C460 0.959 . S
H445 C460 0.959 . S
H446 C460 0.961 . S
H447 C461 0.960 . S
H448 C461 0.961 . S
H449 C461 0.959 . S
H450 C464 0.929 . S
H451 C465 0.931 . S
H452 C467 0.930 . S
C453 H441 0.930 . S
C453 C454 1.399 . S
C453 C458 1.399 . S
C454 C453 1.399 . S
C454 C455 1.376 . S
C455 H442 0.930 . S
C455 C454 1.376 . S
C455 C456 1.388 . S
C456 H443 0.930 . S
C456 C455 1.388 . S
C456 C457 1.390 . S
C457 C456 1.390 . S
C457 C458 1.394 . S
C457 C463 1.465 . S
C458 C453 1.399 . S
C458 C457 1.394 . S
C458 C459 1.516 . S
C459 C458 1.516 . S
C459 C460 1.502 . S
C459 C461 1.561 . S
C459 C462 1.526 . S
C460 H444 0.959 . S
C460 H445 0.959 . S
C460 H446 0.961 . S
C460 C459 1.502 . S
C461 H447 0.960 . S
C461 H448 0.961 . S
C461 H449 0.959 . S
C461 C459 1.561 . S
C462 C459 1.526 . S
C462 C463 1.396 . S
C462 C467 1.390 . S
C463 C457 1.465 . S
C463 C462 1.396 . S
C463 C464 1.399 . S
C464 H450 0.929 . S
C464 C463 1.399 . S
C464 C465 1.385 . S
C465 H451 0.931 . S
C465 C464 1.385 . S
C465 C466 1.389 . S
C466 C465 1.389 . S
C466 C467 1.387 . S
C467 H452 0.930 . S
C467 C462 1.390 . S
C467 C466 1.387 . S
H468 C480 0.930 . S
H469 C482 0.930 . S
H470 C483 0.930 . S
H471 C487 0.959 . S
H472 C487 0.959 . S
H473 C487 0.961 . S
H474 C488 0.960 . S
H475 C488 0.961 . S
H476 C488 0.959 . S
H477 C491 0.929 . S
H478 C492 0.931 . S
H479 C494 0.930 . S
C480 H468 0.930 . S
C480 C481 1.399 . S
C480 C485 1.399 . S
C481 C480 1.399 . S
C481 C482 1.376 . S
C482 H469 0.930 . S
C482 C481 1.376 . S
C482 C483 1.388 . S
C483 H470 0.930 . S
C483 C482 1.388 . S
C483 C484 1.390 . S
C484 C483 1.390 . S
C484 C485 1.394 . S
C484 C490 1.465 1_545 S
C485 C480 1.399 . S
C485 C484 1.394 . S
C485 C486 1.516 1_545 S
C486 C485 1.516 1_565 S
C486 C487 1.502 . S
C486 C488 1.561 . S
C486 C489 1.526 . S
C487 H471 0.959 . S
C487 H472 0.959 . S
C487 H473 0.961 . S
C487 C486 1.502 . S
C488 H474 0.960 . S
C488 H475 0.961 . S
C488 H476 0.959 . S
C488 C486 1.561 . S
C489 C486 1.526 . S
C489 C490 1.396 . S
C489 C494 1.390 . S
C490 C484 1.465 1_565 S
C490 C489 1.396 . S
C490 C491 1.399 . S
C491 H477 0.929 . S
C491 C490 1.399 . S
C491 C492 1.385 . S
C492 H478 0.931 . S
C492 C491 1.385 . S
C492 C493 1.389 . S
C493 C492 1.389 . S
C493 C494 1.387 . S
C494 H479 0.930 . S
C494 C489 1.390 . S
C494 C493 1.387 . S
H495 C507 0.930 . S
H496 C509 0.930 . S
H497 C510 0.930 . S
H498 C514 0.959 1_655 S
H499 C514 0.959 1_655 S
H500 C514 0.961 . S
H501 C515 0.960 . S
H502 C515 0.961 1_655 S
H503 C515 0.959 . S
H504 C518 0.929 . S
H505 C519 0.931 . S
H506 C521 0.930 . S
C507 H495 0.930 . S
C507 C508 1.399 . S
C507 C512 1.399 . S
C508 C507 1.399 . S
C508 C509 1.376 . S
C509 H496 0.930 . S
C509 C508 1.376 . S
C509 C510 1.388 . S
C510 H497 0.930 . S
C510 C509 1.388 . S
C510 C511 1.390 . S
C511 C510 1.390 . S
C511 C512 1.394 . S
C511 C517 1.465 1_455 S
C512 C507 1.399 . S
C512 C511 1.394 . S
C512 C513 1.516 . S
C513 C512 1.516 . S
C513 C514 1.502 . S
C513 C515 1.561 . S
C513 C516 1.526 1_455 S
C514 H498 0.959 1_455 S
C514 H499 0.959 1_455 S
C514 H500 0.961 . S
C514 C513 1.502 . S
C515 H501 0.960 . S
C515 H502 0.961 1_455 S
C515 H503 0.959 . S
C515 C513 1.561 . S
C516 C513 1.526 1_655 S
C516 C517 1.396 . S
C516 C521 1.390 . S
C517 C511 1.465 1_655 S
C517 C516 1.396 . S
C517 C518 1.399 . S
C518 H504 0.929 . S
C518 C517 1.399 . S
C518 C519 1.385 . S
C519 H505 0.931 . S
C519 C518 1.385 . S
C519 C520 1.389 . S
C520 C519 1.389 . S
C520 C521 1.387 . S
C521 H506 0.930 . S
C521 C516 1.390 . S
C521 C520 1.387 . S
H522 C534 0.930 . S
H523 C536 0.930 . S
H524 C537 0.930 . S
H525 C541 0.959 . S
H526 C541 0.959 . S
H527 C541 0.961 . S
H528 C542 0.960 . S
H529 C542 0.961 . S
H530 C542 0.959 . S
H531 C545 0.929 . S
H532 C546 0.931 . S
H533 C548 0.930 . S
C534 H522 0.930 . S
C534 C535 1.399 . S
C534 C539 1.399 . S
C535 C534 1.399 . S
C535 C536 1.376 . S
C536 H523 0.930 . S
C536 C535 1.376 . S
C536 C537 1.388 . S
C537 H524 0.930 . S
C537 C536 1.388 . S
C537 C538 1.390 . S
C538 C537 1.390 . S
C538 C539 1.394 . S
C538 C544 1.465 . S
C539 C534 1.399 . S
C539 C538 1.394 . S
C539 C540 1.516 . S
C540 C539 1.516 . S
C540 C541 1.502 . S
C540 C542 1.561 . S
C540 C543 1.526 . S
C541 H525 0.959 . S
C541 H526 0.959 . S
C541 H527 0.961 . S
C541 C540 1.502 . S
C542 H528 0.960 . S
C542 H529 0.961 . S
C542 H530 0.959 . S
C542 C540 1.561 . S
C543 C540 1.526 . S
C543 C544 1.396 . S
C543 C548 1.390 . S
C544 C538 1.465 . S
C544 C543 1.396 . S
C544 C545 1.399 . S
C545 H531 0.929 . S
C545 C544 1.399 . S
C545 C546 1.385 . S
C546 H532 0.931 . S
C546 C545 1.385 . S
C546 C547 1.389 . S
C547 C546 1.389 . S
C547 C548 1.387 . S
C548 H533 0.930 . S
C548 C543 1.390 . S
C548 C547 1.387 . S
H549 C561 0.930 . S
H550 C563 0.930 . S
H551 C564 0.930 . S
H552 C568 0.959 . S
H553 C568 0.959 . S
H554 C568 0.961 1_545 S
H555 C569 0.960 1_545 S
H556 C569 0.961 . S
H557 C569 0.959 . S
H558 C572 0.929 . S
H559 C573 0.931 . S
H560 C575 0.930 . S
C561 H549 0.930 . S
C561 C562 1.399 . S
C561 C566 1.399 . S
C562 C561 1.399 . S
C562 C563 1.376 . S
C563 H550 0.930 . S
C563 C562 1.376 . S
C563 C564 1.388 . S
C564 H551 0.930 . S
C564 C563 1.388 . S
C564 C565 1.390 . S
C565 C564 1.390 . S
C565 C566 1.394 . S
C565 C571 1.465 1_545 S
C566 C561 1.399 . S
C566 C565 1.394 . S
C566 C567 1.516 1_545 S
C567 C566 1.516 1_565 S
C567 C568 1.502 . S
C567 C569 1.561 . S
C567 C570 1.526 . S
C568 H552 0.959 . S
C568 H553 0.959 . S
C568 H554 0.961 1_565 S
C568 C567 1.502 . S
C569 H555 0.960 1_565 S
C569 H556 0.961 . S
C569 H557 0.959 . S
C569 C567 1.561 . S
C570 C567 1.526 . S
C570 C571 1.396 . S
C570 C575 1.390 . S
C571 C565 1.465 1_565 S
C571 C570 1.396 . S
C571 C572 1.399 . S
C572 H558 0.929 . S
C572 C571 1.399 . S
C572 C573 1.385 . S
C573 H559 0.931 . S
C573 C572 1.385 . S
C573 C574 1.389 . S
C574 C573 1.389 . S
C574 C575 1.387 . S
C575 H560 0.930 . S
C575 C570 1.390 . S
C575 C574 1.387 . S
H576 C588 0.930 . S
H577 C590 0.930 . S
H578 C591 0.930 . S
H579 C595 0.959 . S
H580 C595 0.959 1_545 S
H581 C595 0.961 . S
H582 C596 0.960 . S
H583 C596 0.961 1_545 S
H584 C596 0.959 . S
H585 C599 0.929 . S
H586 C600 0.931 . S
H587 C602 0.930 . S
C588 H576 0.930 . S
C588 C589 1.399 . S
C588 C593 1.399 . S
C589 C588 1.399 . S
C589 C590 1.376 . S
C590 H577 0.930 . S
C590 C589 1.376 . S
C590 C591 1.388 . S
C591 H578 0.930 . S
C591 C590 1.388 . S
C591 C592 1.390 . S
C592 C591 1.390 . S
C592 C593 1.394 . S
C592 C598 1.465 1_565 S
C593 C588 1.399 . S
C593 C592 1.394 . S
C593 C594 1.516 . S
C594 C593 1.516 . S
C594 C595 1.502 . S
C594 C596 1.561 . S
C594 C597 1.526 1_565 S
C595 H579 0.959 . S
C595 H580 0.959 1_565 S
C595 H581 0.961 . S
C595 C594 1.502 . S
C596 H582 0.960 . S
C596 H583 0.961 1_565 S
C596 H584 0.959 . S
C596 C594 1.561 . S
C597 C594 1.526 1_545 S
C597 C598 1.396 . S
C597 C602 1.390 . S
C598 C592 1.465 1_545 S
C598 C597 1.396 . S
C598 C599 1.399 . S
C599 H585 0.929 . S
C599 C598 1.399 . S
C599 C600 1.385 . S
C600 H586 0.931 . S
C600 C599 1.385 . S
C600 C601 1.389 . S
C601 C600 1.389 . S
C601 C602 1.387 . S
C602 H587 0.930 . S
C602 C597 1.390 . S
C602 C601 1.387 . S
H603 C615 0.930 . S
H604 C617 0.930 . S
H605 C618 0.930 . S
H606 C622 0.959 . S
H607 C622 0.959 . S
H608 C622 0.961 1_455 S
H609 C623 0.960 1_455 S
H610 C623 0.961 . S
H611 C623 0.959 . S
H612 C626 0.929 . S
H613 C627 0.931 . S
H614 C629 0.930 . S
C615 H603 0.930 . S
C615 C616 1.399 . S
C615 C620 1.399 . S
C616 C615 1.399 . S
C616 C617 1.376 . S
C617 H604 0.930 . S
C617 C616 1.376 . S
C617 C618 1.388 . S
C618 H605 0.930 . S
C618 C617 1.388 . S
C618 C619 1.390 . S
C619 C618 1.390 . S
C619 C620 1.394 . S
C619 C625 1.465 1_455 S
C620 C615 1.399 . S
C620 C619 1.394 . S
C620 C621 1.516 1_455 S
C621 C620 1.516 1_655 S
C621 C622 1.502 . S
C621 C623 1.561 . S
C621 C624 1.526 . S
C622 H606 0.959 . S
C622 H607 0.959 . S
C622 H608 0.961 1_655 S
C622 C621 1.502 . S
C623 H609 0.960 1_655 S
C623 H610 0.961 . S
C623 H611 0.959 . S
C623 C621 1.561 . S
C624 C621 1.526 . S
C624 C625 1.396 . S
C624 C629 1.390 . S
C625 C619 1.465 1_655 S
C625 C624 1.396 . S
C625 C626 1.399 . S
C626 H612 0.929 . S
C626 C625 1.399 . S
C626 C627 1.385 . S
C627 H613 0.931 . S
C627 C626 1.385 . S
C627 C628 1.389 . S
C628 C627 1.389 . S
C628 C629 1.387 . S
C629 H614 0.930 . S
C629 C624 1.390 . S
C629 C628 1.387 . S
H630 C642 0.930 . S
H631 C644 0.930 . S
H632 C645 0.930 . S
H633 C649 0.959 . S
H634 C649 0.959 . S
H635 C649 0.961 . S
H636 C650 0.960 . S
H637 C650 0.961 . S
H638 C650 0.959 . S
H639 C653 0.929 . S
H640 C654 0.931 . S
H641 C656 0.930 . S
C642 H630 0.930 . S
C642 C643 1.399 . S
C642 C647 1.399 . S
C643 C642 1.399 . S
C643 C644 1.376 . S
C644 H631 0.930 . S
C644 C643 1.376 . S
C644 C645 1.388 . S
C645 H632 0.930 . S
C645 C644 1.388 . S
C645 C646 1.390 . S
C646 C645 1.390 . S
C646 C647 1.394 . S
C646 C652 1.465 . S
C647 C642 1.399 . S
C647 C646 1.394 . S
C647 C648 1.516 . S
C648 C647 1.516 . S
C648 C649 1.502 . S
C648 C650 1.561 . S
C648 C651 1.526 . S
C649 H633 0.959 . S
C649 H634 0.959 . S
C649 H635 0.961 . S
C649 C648 1.502 . S
C650 H636 0.960 . S
C650 H637 0.961 . S
C650 H638 0.959 . S
C650 C648 1.561 . S
C651 C648 1.526 . S
C651 C652 1.396 . S
C651 C656 1.390 . S
C652 C646 1.465 . S
C652 C651 1.396 . S
C652 C653 1.399 . S
C653 H639 0.929 . S
C653 C652 1.399 . S
C653 C654 1.385 . S
C654 H640 0.931 . S
C654 C653 1.385 . S
C654 C655 1.389 . S
C655 C654 1.389 . S
C655 C656 1.387 . S
C656 H641 0.930 . S
C656 C651 1.390 . S
C656 C655 1.387 . S
H657 C669 0.930 . S
H658 C671 0.930 . S
H659 C672 0.930 . S
H660 C676 0.959 . S
H661 C676 0.959 . S
H662 C676 0.961 . S
H663 C677 0.960 . S
H664 C677 0.961 . S
H665 C677 0.959 . S
H666 C680 0.929 . S
H667 C681 0.931 . S
H668 C683 0.930 . S
C669 H657 0.930 . S
C669 C670 1.399 . S
C669 C674 1.399 . S
C670 C669 1.399 . S
C670 C671 1.376 . S
C671 H658 0.930 . S
C671 C670 1.376 . S
C671 C672 1.388 . S
C672 H659 0.930 . S
C672 C671 1.388 . S
C672 C673 1.390 . S
C673 C672 1.390 . S
C673 C674 1.394 . S
C673 C679 1.465 . S
C674 C669 1.399 . S
C674 C673 1.394 . S
C674 C675 1.516 . S
C675 C674 1.516 . S
C675 C676 1.502 . S
C675 C677 1.561 . S
C675 C678 1.526 . S
C676 H660 0.959 . S
C676 H661 0.959 . S
C676 H662 0.961 . S
C676 C675 1.502 . S
C677 H663 0.960 . S
C677 H664 0.961 . S
C677 H665 0.959 . S
C677 C675 1.561 . S
C678 C675 1.526 . S
C678 C679 1.396 . S
C678 C683 1.390 . S
C679 C673 1.465 . S
C679 C678 1.396 . S
C679 C680 1.399 . S
C680 H666 0.929 . S
C680 C679 1.399 . S
C680 C681 1.385 . S
C681 H667 0.931 . S
C681 C680 1.385 . S
C681 C682 1.389 . S
C682 C681 1.389 . S
C682 C683 1.387 . S
C683 H668 0.930 . S
C683 C678 1.390 . S
C683 C682 1.387 . S
H684 C696 0.930 . S
H685 C698 0.930 . S
H686 C699 0.930 . S
H687 C703 0.959 . S
H688 C703 0.959 . S
H689 C703 0.961 . S
H690 C704 0.960 . S
H691 C704 0.961 . S
H692 C704 0.959 . S
H693 C707 0.929 . S
H694 C708 0.931 . S
H695 C710 0.930 . S
C696 H684 0.930 . S
C696 C697 1.399 . S
C696 C701 1.399 . S
C697 C696 1.399 . S
C697 C698 1.376 . S
C698 H685 0.930 . S
C698 C697 1.376 . S
C698 C699 1.388 . S
C699 H686 0.930 . S
C699 C698 1.388 . S
C699 C700 1.390 . S
C700 C699 1.390 . S
C700 C701 1.394 . S
C700 C706 1.465 . S
C701 C696 1.399 . S
C701 C700 1.394 . S
C701 C702 1.516 . S
C702 C701 1.516 . S
C702 C703 1.502 . S
C702 C704 1.561 . S
C702 C705 1.526 . S
C703 H687 0.959 . S
C703 H688 0.959 . S
C703 H689 0.961 . S
C703 C702 1.502 . S
C704 H690 0.960 . S
C704 H691 0.961 . S
C704 H692 0.959 . S
C704 C702 1.561 . S
C705 C702 1.526 . S
C705 C706 1.396 . S
C705 C710 1.390 . S
C706 C700 1.465 . S
C706 C705 1.396 . S
C706 C707 1.399 . S
C707 H693 0.929 . S
C707 C706 1.399 . S
C707 C708 1.385 . S
C708 H694 0.931 . S
C708 C707 1.385 . S
C708 C709 1.389 . S
C709 C708 1.389 . S
C709 C710 1.387 . S
C710 H695 0.930 . S
C710 C705 1.390 . S
C710 C709 1.387 . S
H711 C723 0.930 . S
H712 C725 0.930 . S
H713 C726 0.930 . S
H714 C730 0.959 . S
H715 C730 0.959 . S
H716 C730 0.961 . S
H717 C731 0.960 . S
H718 C731 0.961 . S
H719 C731 0.959 . S
H720 C734 0.929 . S
H721 C735 0.931 . S
H722 C737 0.930 . S
C723 H711 0.930 . S
C723 C724 1.399 . S
C723 C728 1.399 . S
C724 C723 1.399 . S
C724 C725 1.376 . S
C725 H712 0.930 . S
C725 C724 1.376 . S
C725 C726 1.388 . S
C726 H713 0.930 . S
C726 C725 1.388 . S
C726 C727 1.390 . S
C727 C726 1.390 . S
C727 C728 1.394 . S
C727 C733 1.465 . S
C728 C723 1.399 . S
C728 C727 1.394 . S
C728 C729 1.516 . S
C729 C728 1.516 . S
C729 C730 1.502 . S
C729 C731 1.561 . S
C729 C732 1.526 . S
C730 H714 0.959 . S
C730 H715 0.959 . S
C730 H716 0.961 . S
C730 C729 1.502 . S
C731 H717 0.960 . S
C731 H718 0.961 . S
C731 H719 0.959 . S
C731 C729 1.561 . S
C732 C729 1.526 . S
C732 C733 1.396 . S
C732 C737 1.390 . S
C733 C727 1.465 . S
C733 C732 1.396 . S
C733 C734 1.399 . S
C734 H720 0.929 . S
C734 C733 1.399 . S
C734 C735 1.385 . S
C735 H721 0.931 . S
C735 C734 1.385 . S
C735 C736 1.389 . S
C736 C735 1.389 . S
C736 C737 1.387 . S
C737 H722 0.930 . S
C737 C732 1.390 . S
C737 C736 1.387 . S
H738 C750 0.930 . S
H739 C752 0.930 . S
H740 C753 0.930 . S
H741 C757 0.959 . S
H742 C757 0.959 . S
H743 C757 0.961 . S
H744 C758 0.960 . S
H745 C758 0.961 . S
H746 C758 0.959 . S
H747 C761 0.929 . S
H748 C762 0.931 . S
H749 C764 0.930 . S
C750 H738 0.930 . S
C750 C751 1.399 . S
C750 C755 1.399 . S
C751 C750 1.399 . S
C751 C752 1.376 . S
C752 H739 0.930 . S
C752 C751 1.376 . S
C752 C753 1.388 . S
C753 H740 0.930 . S
C753 C752 1.388 . S
C753 C754 1.390 . S
C754 C753 1.390 . S
C754 C755 1.394 . S
C754 C760 1.465 . S
C755 C750 1.399 . S
C755 C754 1.394 . S
C755 C756 1.516 . S
C756 C755 1.516 . S
C756 C757 1.502 . S
C756 C758 1.561 . S
C756 C759 1.526 . S
C757 H741 0.959 . S
C757 H742 0.959 . S
C757 H743 0.961 . S
C757 C756 1.502 . S
C758 H744 0.960 . S
C758 H745 0.961 . S
C758 H746 0.959 . S
C758 C756 1.561 . S
C759 C756 1.526 . S
C759 C760 1.396 . S
C759 C764 1.390 . S
C760 C754 1.465 . S
C760 C759 1.396 . S
C760 C761 1.399 . S
C761 H747 0.929 . S
C761 C760 1.399 . S
C761 C762 1.385 . S
C762 H748 0.931 . S
C762 C761 1.385 . S
C762 C763 1.389 . S
C763 C762 1.389 . S
C763 C764 1.387 . S
C764 H749 0.930 . S
C764 C759 1.390 . S
C764 C763 1.387 . S
H765 C777 0.930 . S
H766 C779 0.930 . S
H767 C780 0.930 . S
H768 C784 0.959 . S
H769 C784 0.959 . S
H770 C784 0.961 . S
H771 C785 0.960 . S
H772 C785 0.961 . S
H773 C785 0.959 . S
H774 C788 0.929 . S
H775 C789 0.931 . S
H776 C791 0.930 . S
C777 H765 0.930 . S
C777 C778 1.399 . S
C777 C782 1.399 . S
C778 C777 1.399 . S
C778 C779 1.376 . S
C779 H766 0.930 . S
C779 C778 1.376 . S
C779 C780 1.388 . S
C780 H767 0.930 . S
C780 C779 1.388 . S
C780 C781 1.390 . S
C781 C780 1.390 . S
C781 C782 1.394 . S
C781 C787 1.465 . S
C782 C777 1.399 . S
C782 C781 1.394 . S
C782 C783 1.516 . S
C783 C782 1.516 . S
C783 C784 1.502 . S
C783 C785 1.561 . S
C783 C786 1.526 . S
C784 H768 0.959 . S
C784 H769 0.959 . S
C784 H770 0.961 . S
C784 C783 1.502 . S
C785 H771 0.960 . S
C785 H772 0.961 . S
C785 H773 0.959 . S
C785 C783 1.561 . S
C786 C783 1.526 . S
C786 C787 1.396 . S
C786 C791 1.390 . S
C787 C781 1.465 . S
C787 C786 1.396 . S
C787 C788 1.399 . S
C788 H774 0.929 . S
C788 C787 1.399 . S
C788 C789 1.385 . S
C789 H775 0.931 . S
C789 C788 1.385 . S
C789 C790 1.389 . S
C790 C789 1.389 . S
C790 C791 1.387 . S
C791 H776 0.930 . S
C791 C786 1.390 . S
C791 C790 1.387 . S
H792 C804 0.930 . S
H793 C806 0.930 . S
H794 C807 0.930 . S
H795 C811 0.959 . S
H796 C811 0.959 . S
H797 C811 0.961 . S
H798 C812 0.960 . S
H799 C812 0.961 . S
H800 C812 0.959 . S
H801 C815 0.929 . S
H802 C816 0.931 . S
H803 C818 0.930 . S
C804 H792 0.930 . S
C804 C805 1.399 . S
C804 C809 1.399 . S
C805 C804 1.399 . S
C805 C806 1.376 . S
C806 H793 0.930 . S
C806 C805 1.376 . S
C806 C807 1.388 . S
C807 H794 0.930 . S
C807 C806 1.388 . S
C807 C808 1.390 . S
C808 C807 1.390 . S
C808 C809 1.394 . S
C808 C814 1.465 . S
C809 C804 1.399 . S
C809 C808 1.394 . S
C809 C810 1.516 . S
C810 C809 1.516 . S
C810 C811 1.502 . S
C810 C812 1.561 . S
C810 C813 1.526 . S
C811 H795 0.959 . S
C811 H796 0.959 . S
C811 H797 0.961 . S
C811 C810 1.502 . S
C812 H798 0.960 . S
C812 H799 0.961 . S
C812 H800 0.959 . S
C812 C810 1.561 . S
C813 C810 1.526 . S
C813 C814 1.396 . S
C813 C818 1.390 . S
C814 C808 1.465 . S
C814 C813 1.396 . S
C814 C815 1.399 . S
C815 H801 0.929 . S
C815 C814 1.399 . S
C815 C816 1.385 . S
C816 H802 0.931 . S
C816 C815 1.385 . S
C816 C817 1.389 . S
C817 C816 1.389 . S
C817 C818 1.387 . S
C818 H803 0.930 . S
C818 C813 1.390 . S
C818 C817 1.387 . S
H819 C831 0.930 . S
H820 C833 0.930 . S
H821 C834 0.930 . S
H822 C838 0.959 . S
H823 C838 0.959 . S
H824 C838 0.961 . S
H825 C839 0.960 . S
H826 C839 0.961 . S
H827 C839 0.959 . S
H828 C842 0.929 . S
H829 C843 0.931 . S
H830 C845 0.930 . S
C831 H819 0.930 . S
C831 C832 1.399 . S
C831 C836 1.399 . S
C832 C831 1.399 . S
C832 C833 1.376 . S
C833 H820 0.930 . S
C833 C832 1.376 . S
C833 C834 1.388 . S
C834 H821 0.930 . S
C834 C833 1.388 . S
C834 C835 1.390 . S
C835 C834 1.390 . S
C835 C836 1.394 . S
C835 C841 1.465 . S
C836 C831 1.399 . S
C836 C835 1.394 . S
C836 C837 1.516 . S
C837 C836 1.516 . S
C837 C838 1.502 . S
C837 C839 1.561 . S
C837 C840 1.526 . S
C838 H822 0.959 . S
C838 H823 0.959 . S
C838 H824 0.961 . S
C838 C837 1.502 . S
C839 H825 0.960 . S
C839 H826 0.961 . S
C839 H827 0.959 . S
C839 C837 1.561 . S
C840 C837 1.526 . S
C840 C841 1.396 . S
C840 C845 1.390 . S
C841 C835 1.465 . S
C841 C840 1.396 . S
C841 C842 1.399 . S
C842 H828 0.929 . S
C842 C841 1.399 . S
C842 C843 1.385 . S
C843 H829 0.931 . S
C843 C842 1.385 . S
C843 C844 1.389 . S
C844 C843 1.389 . S
C844 C845 1.387 . S
C845 H830 0.930 . S
C845 C840 1.390 . S
C845 C844 1.387 . S
H846 C858 0.930 . S
H847 C860 0.930 . S
H848 C861 0.930 . S
H849 C865 0.959 . S
H850 C865 0.959 . S
H851 C865 0.961 . S
H852 C866 0.960 . S
H853 C866 0.961 . S
H854 C866 0.959 . S
H855 C869 0.929 . S
H856 C870 0.931 . S
H857 C872 0.930 . S
C858 H846 0.930 . S
C858 C859 1.399 . S
C858 C863 1.399 . S
C859 C858 1.399 . S
C859 C860 1.376 . S
C860 H847 0.930 . S
C860 C859 1.376 . S
C860 C861 1.388 . S
C861 H848 0.930 . S
C861 C860 1.388 . S
C861 C862 1.390 . S
C862 C861 1.390 . S
C862 C863 1.394 . S
C862 C868 1.465 . S
C863 C858 1.399 . S
C863 C862 1.394 . S
C863 C864 1.516 . S
C864 C863 1.516 . S
C864 C865 1.502 . S
C864 C866 1.561 . S
C864 C867 1.526 . S
C865 H849 0.959 . S
C865 H850 0.959 . S
C865 H851 0.961 . S
C865 C864 1.502 . S
C866 H852 0.960 . S
C866 H853 0.961 . S
C866 H854 0.959 . S
C866 C864 1.561 . S
C867 C864 1.526 . S
C867 C868 1.396 . S
C867 C872 1.390 . S
C868 C862 1.465 . S
C868 C867 1.396 . S
C868 C869 1.399 . S
C869 H855 0.929 . S
C869 C868 1.399 . S
C869 C870 1.385 . S
C870 H856 0.931 . S
C870 C869 1.385 . S
C870 C871 1.389 . S
C871 C870 1.389 . S
C871 C872 1.387 . S
C872 H857 0.930 . S
C872 C867 1.390 . S
C872 C871 1.387 . S
H873 C885 0.930 . S
H874 C887 0.930 . S
H875 C888 0.930 . S
H876 C892 0.959 . S
H877 C892 0.959 . S
H878 C892 0.961 . S
H879 C893 0.960 . S
H880 C893 0.961 . S
H881 C893 0.959 . S
H882 C896 0.929 . S
H883 C897 0.931 . S
H884 C899 0.930 . S
C885 H873 0.930 . S
C885 C886 1.399 . S
C885 C890 1.399 . S
C886 C885 1.399 . S
C886 C887 1.376 . S
C887 H874 0.930 . S
C887 C886 1.376 . S
C887 C888 1.388 . S
C888 H875 0.930 . S
C888 C887 1.388 . S
C888 C889 1.390 . S
C889 C888 1.390 . S
C889 C890 1.394 . S
C889 C895 1.465 . S
C890 C885 1.399 . S
C890 C889 1.394 . S
C890 C891 1.516 . S
C891 C890 1.516 . S
C891 C892 1.502 . S
C891 C893 1.561 . S
C891 C894 1.526 . S
C892 H876 0.959 . S
C892 H877 0.959 . S
C892 H878 0.961 . S
C892 C891 1.502 . S
C893 H879 0.960 . S
C893 H880 0.961 . S
C893 H881 0.959 . S
C893 C891 1.561 . S
C894 C891 1.526 . S
C894 C895 1.396 . S
C894 C899 1.390 . S
C895 C889 1.465 . S
C895 C894 1.396 . S
C895 C896 1.399 . S
C896 H882 0.929 . S
C896 C895 1.399 . S
C896 C897 1.385 . S
C897 H883 0.931 . S
C897 C896 1.385 . S
C897 C898 1.389 . S
C898 C897 1.389 . S
C898 C899 1.387 . S
C899 H884 0.930 . S
C899 C894 1.390 . S
C899 C898 1.387 . S
H900 C912 0.930 . S
H901 C914 0.930 . S
H902 C915 0.930 . S
H903 C919 0.959 . S
H904 C919 0.959 . S
H905 C919 0.961 . S
H906 C920 0.960 . S
H907 C920 0.961 . S
H908 C920 0.959 . S
H909 C923 0.929 . S
H910 C924 0.931 . S
H911 C926 0.930 . S
C912 H900 0.930 . S
C912 C913 1.399 . S
C912 C917 1.399 . S
C913 C912 1.399 . S
C913 C914 1.376 . S
C914 H901 0.930 . S
C914 C913 1.376 . S
C914 C915 1.388 . S
C915 H902 0.930 . S
C915 C914 1.388 . S
C915 C916 1.390 . S
C916 C915 1.390 . S
C916 C917 1.394 . S
C916 C922 1.465 . S
C917 C912 1.399 . S
C917 C916 1.394 . S
C917 C918 1.516 . S
C918 C917 1.516 . S
C918 C919 1.502 . S
C918 C920 1.561 . S
C918 C921 1.526 . S
C919 H903 0.959 . S
C919 H904 0.959 . S
C919 H905 0.961 . S
C919 C918 1.502 . S
C920 H906 0.960 . S
C920 H907 0.961 . S
C920 H908 0.959 . S
C920 C918 1.561 . S
C921 C918 1.526 . S
C921 C922 1.396 . S
C921 C926 1.390 . S
C922 C916 1.465 . S
C922 C921 1.396 . S
C922 C923 1.399 . S
C923 H909 0.929 . S
C923 C922 1.399 . S
C923 C924 1.385 . S
C924 H910 0.931 . S
C924 C923 1.385 . S
C924 C925 1.389 . S
C925 C924 1.389 . S
C925 C926 1.387 . S
C926 H911 0.930 . S
C926 C921 1.390 . S
C926 C925 1.387 . S
H927 C939 0.930 . S
H928 C941 0.930 . S
H929 C942 0.930 . S
H930 C946 0.959 . S
H931 C946 0.959 . S
H932 C946 0.961 . S
H933 C947 0.960 . S
H934 C947 0.961 . S
H935 C947 0.959 . S
H936 C950 0.929 . S
H937 C951 0.931 . S
H938 C953 0.930 . S
C939 H927 0.930 . S
C939 C940 1.399 . S
C939 C944 1.399 . S
C940 C939 1.399 . S
C940 C941 1.376 . S
C941 H928 0.930 . S
C941 C940 1.376 . S
C941 C942 1.388 . S
C942 H929 0.930 . S
C942 C941 1.388 . S
C942 C943 1.390 . S
C943 C942 1.390 . S
C943 C944 1.394 . S
C943 C949 1.465 . S
C944 C939 1.399 . S
C944 C943 1.394 . S
C944 C945 1.516 . S
C945 C944 1.516 . S
C945 C946 1.502 . S
C945 C947 1.561 . S
C945 C948 1.526 . S
C946 H930 0.959 . S
C946 H931 0.959 . S
C946 H932 0.961 . S
C946 C945 1.502 . S
C947 H933 0.960 . S
C947 H934 0.961 . S
C947 H935 0.959 . S
C947 C945 1.561 . S
C948 C945 1.526 . S
C948 C949 1.396 . S
C948 C953 1.390 . S
C949 C943 1.465 . S
C949 C948 1.396 . S
C949 C950 1.399 . S
C950 H936 0.929 . S
C950 C949 1.399 . S
C950 C951 1.385 . S
C951 H937 0.931 . S
C951 C950 1.385 . S
C951 C952 1.389 . S
C952 C951 1.389 . S
C952 C953 1.387 . S
C953 H938 0.930 . S
C953 C948 1.390 . S
C953 C952 1.387 . S
H954 C966 0.930 . S
H955 C968 0.930 . S
H956 C969 0.930 . S
H957 C973 0.959 . S
H958 C973 0.959 . S
H959 C973 0.961 . S
H960 C974 0.960 . S
H961 C974 0.961 . S
H962 C974 0.959 . S
H963 C977 0.929 . S
H964 C978 0.931 . S
H965 C980 0.930 . S
C966 H954 0.930 . S
C966 C967 1.399 . S
C966 C971 1.399 . S
C967 C966 1.399 . S
C967 C968 1.376 . S
C968 H955 0.930 . S
C968 C967 1.376 . S
C968 C969 1.388 . S
C969 H956 0.930 . S
C969 C968 1.388 . S
C969 C970 1.390 . S
C970 C969 1.390 . S
C970 C971 1.394 . S
C970 C976 1.465 . S
C971 C966 1.399 . S
C971 C970 1.394 . S
C971 C972 1.516 . S
C972 C971 1.516 . S
C972 C973 1.502 . S
C972 C974 1.561 . S
C972 C975 1.526 . S
C973 H957 0.959 . S
C973 H958 0.959 . S
C973 H959 0.961 . S
C973 C972 1.502 . S
C974 H960 0.960 . S
C974 H961 0.961 . S
C974 H962 0.959 . S
C974 C972 1.561 . S
C975 C972 1.526 . S
C975 C976 1.396 . S
C975 C980 1.390 . S
C976 C970 1.465 . S
C976 C975 1.396 . S
C976 C977 1.399 . S
C977 H963 0.929 . S
C977 C976 1.399 . S
C977 C978 1.385 . S
C978 H964 0.931 . S
C978 C977 1.385 . S
C978 C979 1.389 . S
C979 C978 1.389 . S
C979 C980 1.387 . S
C980 H965 0.930 . S
C980 C975 1.390 . S
C980 C979 1.387 . S
H981 C993 0.930 . S
H982 C995 0.930 . S
H983 C996 0.930 . S
H984 C1000 0.959 . S
H985 C1000 0.959 1_556 S
H986 C1000 0.961 . S
H987 C1001 0.960 . S
H988 C1001 0.961 1_556 S
H989 C1001 0.944 1_556 S
H990 C1004 0.929 . S
H991 C1005 0.931 . S
H992 C1007 0.930 . S
C993 H981 0.930 . S
C993 C994 1.399 . S
C993 C998 1.399 . S
C994 C993 1.399 . S
C994 C995 1.376 . S
C995 H982 0.930 . S
C995 C994 1.376 . S
C995 C996 1.388 . S
C996 H983 0.930 . S
C996 C995 1.388 . S
C996 C997 1.390 . S
C997 C996 1.390 . S
C997 C998 1.394 . S
C997 C1003 1.465 1_554 S
C998 C993 1.399 . S
C998 C997 1.394 . S
C998 C999 1.516 . S
C999 C998 1.516 . S
C999 C1000 1.502 . S
C999 C1001 1.561 . S
C999 C1002 1.526 1_554 S
C1000 H984 0.959 . S
C1000 H985 0.959 1_554 S
C1000 H986 0.961 . S
C1000 C999 1.502 . S
C1001 H987 0.960 . S
C1001 H988 0.961 1_554 S
C1001 H989 0.944 1_554 S
C1001 C999 1.561 . S
C1002 C999 1.526 1_556 S
C1002 C1003 1.396 . S
C1002 C1007 1.390 . S
C1003 C997 1.465 1_556 S
C1003 C1002 1.396 . S
C1003 C1004 1.399 . S
C1004 H990 0.929 . S
C1004 C1003 1.399 . S
C1004 C1005 1.385 . S
C1005 H991 0.931 . S
C1005 C1004 1.385 . S
C1005 C1006 1.389 . S
C1006 C1005 1.389 . S
C1006 C1007 1.387 . S
C1007 H992 0.930 . S
C1007 C1002 1.390 . S
C1007 C1006 1.387 . S
H1008 C1020 0.930 . S
H1009 C1022 0.930 . S
H1010 C1023 0.930 . S
H1011 C1027 0.959 . S
H1012 C1027 0.959 1_554 S
H1013 C1027 0.961 . S
H1014 C1028 0.960 . S
H1015 C1028 0.961 1_554 S
H1016 C1028 0.959 . S
H1017 C1031 0.929 . S
H1018 C1032 0.931 . S
H1019 C1034 0.930 . S
C1020 H1008 0.930 . S
C1020 C1021 1.399 1_565 S
C1020 C1025 1.399 . S
C1021 C1020 1.399 1_545 S
C1021 C1022 1.376 . S
C1022 H1009 0.930 . S
C1022 C1021 1.376 . S
C1022 C1023 1.388 . S
C1023 H1010 0.930 . S
C1023 C1022 1.388 . S
C1023 C1024 1.390 . S
C1024 C1023 1.390 . S
C1024 C1025 1.394 1_545 S
C1024 C1030 1.465 1_556 S
C1025 C1020 1.399 . S
C1025 C1024 1.394 1_565 S
C1025 C1026 1.516 . S
C1026 C1025 1.516 . S
C1026 C1027 1.502 . S
C1026 C1028 1.561 . S
C1026 C1029 1.526 1_556 S
C1027 H1011 0.959 . S
C1027 H1012 0.959 1_556 S
C1027 H1013 0.961 . S
C1027 C1026 1.502 . S
C1028 H1014 0.960 . S
C1028 H1015 0.961 1_556 S
C1028 H1016 0.959 . S
C1028 C1026 1.561 . S
C1029 C1026 1.526 1_554 S
C1029 C1030 1.396 1_565 S
C1029 C1034 1.390 . S
C1030 C1024 1.465 1_554 S
C1030 C1029 1.396 1_545 S
C1030 C1031 1.399 . S
C1031 H1017 0.929 . S
C1031 C1030 1.399 . S
C1031 C1032 1.385 . S
C1032 H1018 0.931 . S
C1032 C1031 1.385 . S
C1032 C1033 1.389 1_545 S
C1033 C1032 1.389 1_565 S
C1033 C1034 1.387 . S
C1034 H1019 0.930 . S
C1034 C1029 1.390 . S
C1034 C1033 1.387 . S
H1035 C1047 0.942 . S
H1036 C1049 0.930 . S
H1037 C1050 0.930 . S
H1038 C1054 0.959 . S
H1039 C1054 0.959 1_554 S
H1040 C1054 0.961 . S
H1041 C1055 0.960 . S
H1042 C1055 0.961 1_554 S
H1043 C1055 0.959 1_654 S
H1044 C1058 0.929 . S
H1045 C1059 0.931 . S
H1046 C1061 0.930 . S
C1047 H1035 0.942 . S
C1047 C1048 1.386 1_455 S
C1047 C1052 1.401 . S
C1048 C1047 1.386 1_655 S
C1048 C1049 1.376 . S
C1049 H1036 0.930 . S
C1049 C1048 1.376 . S
C1049 C1050 1.388 . S
C1050 H1037 0.930 . S
C1050 C1049 1.388 . S
C1050 C1051 1.390 . S
C1051 C1050 1.390 . S
C1051 C1052 1.394 1_655 S
C1051 C1057 1.465 1_556 S
C1052 C1047 1.401 . S
C1052 C1051 1.394 1_455 S
C1052 C1053 1.516 . S
C1053 C1052 1.516 . S
C1053 C1054 1.502 . S
C1053 C1055 1.561 . S
C1053 C1056 1.526 1_556 S
C1054 H1038 0.959 . S
C1054 H1039 0.959 1_556 S
C1054 H1040 0.961 . S
C1054 C1053 1.502 . S
C1055 H1041 0.960 . S
C1055 H1042 0.961 1_556 S
C1055 H1043 0.959 1_456 S
C1055 C1053 1.561 . S
C1056 C1053 1.526 1_554 S
C1056 C1057 1.396 1_455 S
C1056 C1061 1.390 . S
C1057 C1051 1.465 1_554 S
C1057 C1056 1.396 1_655 S
C1057 C1058 1.399 . S
C1058 H1044 0.929 . S
C1058 C1057 1.399 . S
C1058 C1059 1.385 . S
C1059 H1045 0.931 . S
C1059 C1058 1.385 . S
C1059 C1060 1.389 1_655 S
C1060 C1059 1.389 1_455 S
C1060 C1061 1.387 . S
C1061 H1046 0.930 . S
C1061 C1056 1.390 . S
C1061 C1060 1.387 . S
H1062 C1074 0.930 . S
H1063 C1076 0.930 . S
H1064 C1077 0.930 . S
H1065 C1081 0.959 . S
H1066 C1081 0.959 . S
H1067 C1081 0.961 . S
H1068 C1082 0.960 . S
H1069 C1082 0.961 . S
H1070 C1082 0.959 . S
H1071 C1085 0.929 . S
H1072 C1086 0.931 . S
H1073 C1088 0.930 . S
C1074 H1062 0.930 . S
C1074 C1075 1.399 . S
C1074 C1079 1.399 . S
C1075 C1074 1.399 . S
C1075 C1076 1.376 . S
C1076 H1063 0.930 . S
C1076 C1075 1.376 . S
C1076 C1077 1.388 . S
C1077 H1064 0.930 . S
C1077 C1076 1.388 . S
C1077 C1078 1.390 . S
C1078 C1077 1.390 . S
C1078 C1079 1.394 . S
C1078 C1084 1.465 . S
C1079 C1074 1.399 . S
C1079 C1078 1.394 . S
C1079 C1080 1.516 . S
C1080 C1079 1.516 . S
C1080 C1081 1.502 . S
C1080 C1082 1.561 . S
C1080 C1083 1.526 . S
C1081 H1065 0.959 . S
C1081 H1066 0.959 . S
C1081 H1067 0.961 . S
C1081 C1080 1.502 . S
C1082 H1068 0.960 . S
C1082 H1069 0.961 . S
C1082 H1070 0.959 . S
C1082 C1080 1.561 . S
C1083 C1080 1.526 . S
C1083 C1084 1.396 . S
C1083 C1088 1.390 . S
C1084 C1078 1.465 . S
C1084 C1083 1.396 . S
C1084 C1085 1.399 . S
C1085 H1071 0.929 . S
C1085 C1084 1.399 . S
C1085 C1086 1.385 . S
C1086 H1072 0.931 . S
C1086 C1085 1.385 . S
C1086 C1087 1.389 . S
C1087 C1086 1.389 . S
C1087 C1088 1.387 . S
C1088 H1073 0.930 . S
C1088 C1083 1.390 . S
C1088 C1087 1.387 . S
H1089 C1101 0.930 . S
H1090 C1103 0.930 . S
H1091 C1104 0.930 . S
H1092 C1108 0.959 . S
H1093 C1108 0.959 . S
H1094 C1108 0.961 . S
H1095 C1109 0.960 . S
H1096 C1109 0.961 . S
H1097 C1109 0.959 . S
H1098 C1112 0.929 . S
H1099 C1113 0.931 . S
H1100 C1115 0.930 . S
C1101 H1089 0.930 . S
C1101 C1102 1.399 . S
C1101 C1106 1.399 . S
C1102 C1101 1.399 . S
C1102 C1103 1.376 . S
C1103 H1090 0.930 . S
C1103 C1102 1.376 . S
C1103 C1104 1.388 . S
C1104 H1091 0.930 . S
C1104 C1103 1.388 . S
C1104 C1105 1.390 . S
C1105 C1104 1.390 . S
C1105 C1106 1.394 . S
C1105 C1111 1.465 . S
C1106 C1101 1.399 . S
C1106 C1105 1.394 . S
C1106 C1107 1.516 . S
C1107 C1106 1.516 . S
C1107 C1108 1.502 . S
C1107 C1109 1.561 . S
C1107 C1110 1.526 . S
C1108 H1092 0.959 . S
C1108 H1093 0.959 . S
C1108 H1094 0.961 . S
C1108 C1107 1.502 . S
C1109 H1095 0.960 . S
C1109 H1096 0.961 . S
C1109 H1097 0.959 . S
C1109 C1107 1.561 . S
C1110 C1107 1.526 . S
C1110 C1111 1.396 . S
C1110 C1115 1.390 . S
C1111 C1105 1.465 . S
C1111 C1110 1.396 . S
C1111 C1112 1.399 . S
C1112 H1098 0.929 . S
C1112 C1111 1.399 . S
C1112 C1113 1.385 . S
C1113 H1099 0.931 . S
C1113 C1112 1.385 . S
C1113 C1114 1.389 . S
C1114 C1113 1.389 . S
C1114 C1115 1.387 . S
C1115 H1100 0.930 . S
C1115 C1110 1.390 . S
C1115 C1114 1.387 . S
H1116 C1128 0.930 . S
H1117 C1130 0.930 . S
H1118 C1131 0.930 . S
H1119 C1135 0.959 . S
H1120 C1135 0.959 . S
H1121 C1135 0.961 . S
H1122 C1136 0.960 . S
H1123 C1136 0.961 . S
H1124 C1136 0.959 . S
H1125 C1139 0.929 . S
H1126 C1140 0.931 . S
H1127 C1142 0.930 . S
C1128 H1116 0.930 . S
C1128 C1129 1.399 . S
C1128 C1133 1.399 . S
C1129 C1128 1.399 . S
C1129 C1130 1.376 . S
C1130 H1117 0.930 . S
C1130 C1129 1.376 . S
C1130 C1131 1.388 . S
C1131 H1118 0.930 . S
C1131 C1130 1.388 . S
C1131 C1132 1.390 . S
C1132 C1131 1.390 . S
C1132 C1133 1.394 . S
C1132 C1138 1.465 . S
C1133 C1128 1.399 . S
C1133 C1132 1.394 . S
C1133 C1134 1.516 . S
C1134 C1133 1.516 . S
C1134 C1135 1.502 . S
C1134 C1136 1.561 . S
C1134 C1137 1.526 . S
C1135 H1119 0.959 . S
C1135 H1120 0.959 . S
C1135 H1121 0.961 . S
C1135 C1134 1.502 . S
C1136 H1122 0.960 . S
C1136 H1123 0.961 . S
C1136 H1124 0.959 . S
C1136 C1134 1.561 . S
C1137 C1134 1.526 . S
C1137 C1138 1.396 . S
C1137 C1142 1.390 . S
C1138 C1132 1.465 . S
C1138 C1137 1.396 . S
C1138 C1139 1.399 . S
C1139 H1125 0.929 . S
C1139 C1138 1.399 . S
C1139 C1140 1.385 . S
C1140 H1126 0.931 . S
C1140 C1139 1.385 . S
C1140 C1141 1.389 . S
C1141 C1140 1.389 . S
C1141 C1142 1.387 . S
C1142 H1127 0.930 . S
C1142 C1137 1.390 . S
C1142 C1141 1.387 . S
H1143 C1155 0.930 . S
H1144 C1157 0.930 . S
H1145 C1158 0.930 . S
H1146 C1162 0.959 . S
H1147 C1162 0.959 . S
H1148 C1162 0.961 . S
H1149 C1163 0.960 . S
H1150 C1163 0.961 . S
H1151 C1163 0.959 . S
H1152 C1166 0.929 . S
H1153 C1167 0.931 . S
H1154 C1169 0.930 . S
C1155 H1143 0.930 . S
C1155 C1156 1.399 . S
C1155 C1160 1.399 . S
C1156 C1155 1.399 . S
C1156 C1157 1.376 . S
C1157 H1144 0.930 . S
C1157 C1156 1.376 . S
C1157 C1158 1.388 . S
C1158 H1145 0.930 . S
C1158 C1157 1.388 . S
C1158 C1159 1.390 . S
C1159 C1158 1.390 . S
C1159 C1160 1.394 . S
C1159 C1165 1.465 . S
C1160 C1155 1.399 . S
C1160 C1159 1.394 . S
C1160 C1161 1.516 . S
C1161 C1160 1.516 . S
C1161 C1162 1.502 . S
C1161 C1163 1.561 . S
C1161 C1164 1.526 . S
C1162 H1146 0.959 . S
C1162 H1147 0.959 . S
C1162 H1148 0.961 . S
C1162 C1161 1.502 . S
C1163 H1149 0.960 . S
C1163 H1150 0.961 . S
C1163 H1151 0.959 . S
C1163 C1161 1.561 . S
C1164 C1161 1.526 . S
C1164 C1165 1.396 . S
C1164 C1169 1.390 . S
C1165 C1159 1.465 . S
C1165 C1164 1.396 . S
C1165 C1166 1.399 . S
C1166 H1152 0.929 . S
C1166 C1165 1.399 . S
C1166 C1167 1.385 . S
C1167 H1153 0.931 . S
C1167 C1166 1.385 . S
C1167 C1168 1.389 . S
C1168 C1167 1.389 . S
C1168 C1169 1.387 . S
C1169 H1154 0.930 . S
C1169 C1164 1.390 . S
C1169 C1168 1.387 . S
H1170 C1182 0.930 . S
H1171 C1184 0.930 . S
H1172 C1185 0.930 . S
H1173 C1189 0.959 . S
H1174 C1189 0.959 . S
H1175 C1189 0.961 . S
H1176 C1190 0.960 . S
H1177 C1190 0.961 . S
H1178 C1190 0.959 . S
H1179 C1193 0.929 . S
H1180 C1194 0.931 . S
H1181 C1196 0.930 . S
C1182 H1170 0.930 . S
C1182 C1183 1.399 . S
C1182 C1187 1.399 . S
C1183 C1182 1.399 . S
C1183 C1184 1.376 . S
C1184 H1171 0.930 . S
C1184 C1183 1.376 . S
C1184 C1185 1.388 . S
C1185 H1172 0.930 . S
C1185 C1184 1.388 . S
C1185 C1186 1.390 . S
C1186 C1185 1.390 . S
C1186 C1187 1.394 . S
C1186 C1192 1.465 . S
C1187 C1182 1.399 . S
C1187 C1186 1.394 . S
C1187 C1188 1.516 . S
C1188 C1187 1.516 . S
C1188 C1189 1.502 . S
C1188 C1190 1.561 . S
C1188 C1191 1.526 . S
C1189 H1173 0.959 . S
C1189 H1174 0.959 . S
C1189 H1175 0.961 . S
C1189 C1188 1.502 . S
C1190 H1176 0.960 . S
C1190 H1177 0.961 . S
C1190 H1178 0.959 . S
C1190 C1188 1.561 . S
C1191 C1188 1.526 . S
C1191 C1192 1.396 . S
C1191 C1196 1.390 . S
C1192 C1186 1.465 . S
C1192 C1191 1.396 . S
C1192 C1193 1.399 . S
C1193 H1179 0.929 . S
C1193 C1192 1.399 . S
C1193 C1194 1.385 . S
C1194 H1180 0.931 . S
C1194 C1193 1.385 . S
C1194 C1195 1.389 . S
C1195 C1194 1.389 . S
C1195 C1196 1.387 . S
C1196 H1181 0.930 . S
C1196 C1191 1.390 . S
C1196 C1195 1.387 . S
H1197 C1209 0.930 . S
H1198 C1211 0.930 . S
H1199 C1212 0.930 . S
H1200 C1216 0.959 . S
H1201 C1216 0.959 . S
H1202 C1216 0.961 . S
H1203 C1217 0.960 . S
H1204 C1217 0.961 . S
H1205 C1217 0.959 . S
H1206 C1220 0.929 . S
H1207 C1221 0.931 . S
H1208 C1223 0.930 . S
C1209 H1197 0.930 . S
C1209 C1210 1.399 . S
C1209 C1214 1.399 . S
C1210 C1209 1.399 . S
C1210 C1211 1.376 . S
C1211 H1198 0.930 . S
C1211 C1210 1.376 . S
C1211 C1212 1.388 . S
C1212 H1199 0.930 . S
C1212 C1211 1.388 . S
C1212 C1213 1.390 . S
C1213 C1212 1.390 . S
C1213 C1214 1.394 . S
C1213 C1219 1.465 . S
C1214 C1209 1.399 . S
C1214 C1213 1.394 . S
C1214 C1215 1.516 . S
C1215 C1214 1.516 . S
C1215 C1216 1.502 . S
C1215 C1217 1.561 . S
C1215 C1218 1.526 . S
C1216 H1200 0.959 . S
C1216 H1201 0.959 . S
C1216 H1202 0.961 . S
C1216 C1215 1.502 . S
C1217 H1203 0.960 . S
C1217 H1204 0.961 . S
C1217 H1205 0.959 . S
C1217 C1215 1.561 . S
C1218 C1215 1.526 . S
C1218 C1219 1.396 . S
C1218 C1223 1.390 . S
C1219 C1213 1.465 . S
C1219 C1218 1.396 . S
C1219 C1220 1.399 . S
C1220 H1206 0.929 . S
C1220 C1219 1.399 . S
C1220 C1221 1.385 . S
C1221 H1207 0.931 . S
C1221 C1220 1.385 . S
C1221 C1222 1.389 . S
C1222 C1221 1.389 . S
C1222 C1223 1.387 . S
C1223 H1208 0.930 . S
C1223 C1218 1.390 . S
C1223 C1222 1.387 . S
C265 C146 1.136 . S
C277 C6 1.145 . S
C292 C20 1.131 . S
C304 C160 1.145 . S
C319 C132 1.124 . S
C331 C34 1.151 . S
C346 C202 1.150 . S
C358 C48 1.131 . S
C373 C62 1.146 . S
C385 C174 1.135 . S
C400 C188 1.119 . S
C412 C76 1.158 . S
C427 C90 1.141 . S
C439 C230 1.135 . S
C454 C244 1.120 . S
C466 C104 1.156 . S
C481 C118 1.119 . S
C493 C216 1.158 . S
C508 C9 1.203 . S
C520 C22 1.210 . S
C535 C23 1.218 . S
C547 C36 1.217 . S
C562 C8 1.198 . S
C574 C37 1.138 . S
C589 C78 1.235 . S
C601 C51 1.223 . S
C616 C50 1.202 . S
C628 C65 1.129 . S
C643 C79 1.161 . S
C655 C64 1.228 . S
C670 C93 1.222 . S
C682 C106 1.235 . S
C697 C107 1.191 . S
C709 C120 1.205 . S
C724 C92 1.235 . S
C736 C121 1.221 . S
C751 C162 1.197 . S
C763 C135 1.142 . S
C778 C134 1.205 . S
C790 C149 1.191 . S
C805 C148 1.237 . S
C817 C163 1.208 . S
C832 C190 1.197 . S
C844 C177 1.151 . S
C859 C204 1.235 . S
C871 C191 1.222 . S
C886 C176 1.199 . S
C898 C205 1.134 . S
C913 C219 1.127 . S
C925 C246 1.205 . S
C940 C233 1.151 . S
C952 C218 1.224 . S
C967 C247 1.217 . S
C979 C232 1.217 . S
C994 C7 1.680 . S
C1006 C49 1.634 . S
C1021 C63 1.646 . S
C1033 C21 1.602 . S
C1048 C77 1.683 . S
C1060 C35 1.638 . S
C1075 C133 1.594 . S
C1087 C91 1.605 . S
C1102 C147 1.644 . S
C1114 C105 1.686 . S
C1129 C119 1.602 . S
C1141 C161 1.596 . S
C1156 C217 1.685 . S
C1168 C175 1.688 . S
C1183 C231 1.643 . S
C1195 C189 1.600 . S
C1210 C245 1.675 . S
C1222 C203 1.626 . S
