# Generated by pormake.
# Topology bcg, (8)-cn, num edge types: 1
# Building blocks:
#     Node 0, Type 0, BuildingBlock: XADDAJ01_clean_sbu_3, # of connection points: 8
#     Node 1, Type 0, BuildingBlock: XADDAJ01_clean_sbu_3, # of connection points: 8
#     Node 2, Type 0, BuildingBlock: XADDAJ01_clean_sbu_3, # of connection points: 8
#     Node 3, Type 0, BuildingBlock: XADDAJ01_clean_sbu_3, # of connection points: 8
#     Edge 4, Type (0, 0), BuildingBlock: KIFKEQ_clean_linker_1, # of connection points: 2
#     Edge 5, Type (0, 0), BuildingBlock: KIFKEQ_clean_linker_1, # of connection points: 2
#     Edge 6, Type (0, 0), BuildingBlock: KIFKEQ_clean_linker_1, # of connection points: 2
#     Edge 7, Type (0, 0), BuildingBlock: KIFKEQ_clean_linker_1, # of connection points: 2
#     Edge 8, Type (0, 0), BuildingBlock: KIFKEQ_clean_linker_1, # of connection points: 2
#     Edge 9, Type (0, 0), BuildingBlock: KIFKEQ_clean_linker_1, # of connection points: 2
#     Edge 10, Type (0, 0), BuildingBlock: KIFKEQ_clean_linker_1, # of connection points: 2
#     Edge 11, Type (0, 0), BuildingBlock: KIFKEQ_clean_linker_1, # of connection points: 2
#     Edge 12, Type (0, 0), BuildingBlock: KIFKEQ_clean_linker_1, # of connection points: 2
#     Edge 13, Type (0, 0), BuildingBlock: KIFKEQ_clean_linker_1, # of connection points: 2
#     Edge 14, Type (0, 0), BuildingBlock: KIFKEQ_clean_linker_1, # of connection points: 2
#     Edge 15, Type (0, 0), BuildingBlock: KIFKEQ_clean_linker_1, # of connection points: 2
#     Edge 16, Type (0, 0), BuildingBlock: KIFKEQ_clean_linker_1, # of connection points: 2
#     Edge 17, Type (0, 0), BuildingBlock: KIFKEQ_clean_linker_1, # of connection points: 2
#     Edge 18, Type (0, 0), BuildingBlock: KIFKEQ_clean_linker_1, # of connection points: 2
#     Edge 19, Type (0, 0), BuildingBlock: KIFKEQ_clean_linker_1, # of connection points: 2
# Relax obj value: 0.164
# Max RMSD: 0.231
# Mean RMSD: 0.231
data_MOF--net-bcg--node1-XADDAJ01_clean_sbu_3--edge1-KIFKEQ_clean_linker_1
_symmetry_space_group_name_H-M    P1
_symmetry_Int_Tables_number       1
_symmetry_cell_setting            triclinic
loop_
_symmetry_equiv_pos_as_xyz
'x, y, z'
_cell_length_a     22.120524
_cell_length_b     17.994607
_cell_length_c     33.724482
_cell_angle_alpha  80.78919
_cell_angle_beta   89.892335
_cell_angle_gamma 90.01197
loop_
_atom_site_label
_atom_site_type_symbol
_atom_site_fract_x
_atom_site_fract_y
_atom_site_fract_z
_atom_type_partial_charge
C0 C 0.08784 0.34773 0.06023 0.0
C1 C 0.034 0.33993 0.03856 0.0
C2 C 0.97902 0.3214 0.05925 0.0
C3 C 0.97938 0.30778 0.1014 0.0
C4 C 0.03212 0.31558 0.12322 0.0
C5 C 0.08611 0.33623 0.10252 0.0
O6 O 0.20896 0.24741 0.96601 0.0
Tb7 Tb 0.212 0.35934 0.98139 0.0
Tb8 Tb 0.32881 0.23092 0.02289 0.0
O9 O 0.1671 0.39852 0.92468 0.0
O10 O 0.24108 0.17597 0.02415 0.0
O11 O 0.14296 0.41809 0.0054 0.0
C12 C 0.39475 0.20453 0.96624 0.0
O13 O 0.18983 0.3234 0.04205 0.0
O14 O 0.33699 0.34438 0.03687 0.0
O15 O 0.29874 0.41688 0.98014 0.0
C16 C 0.14576 0.37313 0.04022 0.0
C17 C 0.33874 0.19214 0.11304 0.0
O18 O 0.2824 0.21538 0.10939 0.0
C19 C 0.20364 0.18769 0.99361 0.0
C20 C 0.3379 0.40588 0.0099 0.0
O21 O 0.37039 0.18987 0.08031 0.0
C22 C 0.45488 0.21371 0.94672 0.0
C23 C 0.51621 0.19233 0.88949 0.0
C24 C 0.45958 0.19674 0.90757 0.0
C25 C 0.50791 0.22951 0.96728 0.0
C26 C 0.56518 0.22569 0.94898 0.0
C27 C 0.56848 0.20651 0.91031 0.0
C28 C 0.19966 0.40918 0.89166 0.0
O29 O 0.25867 0.40228 0.89484 0.0
O30 O 0.39173 0.16074 0.00138 0.0
O31 O 0.3582 0.26309 0.96311 0.0
H32 H 0.03449 0.35053 0.00602 0.0
H33 H 0.93765 0.29241 0.1176 0.0
H34 H 0.12681 0.34358 0.11936 0.0
H35 H 0.41927 0.18354 0.89178 0.0
H36 H 0.50481 0.2419 0.99762 0.0
H37 H 0.61219 0.20316 0.89604 0.0
C38 C 0.57794 0.85303 0.06247 0.0
C39 C 0.53221 0.82087 0.04189 0.0
C40 C 0.47981 0.79263 0.06236 0.0
C41 C 0.47259 0.79883 0.1029 0.0
C42 C 0.5169 0.83311 0.1235 0.0
C43 C 0.5698 0.86023 0.10307 0.0
O44 O 0.73443 0.75711 0.97534 0.0
Tb45 Tb 0.69249 0.8659 0.97935 0.0
Tb46 Tb 0.86107 0.72054 0.01469 0.0
O47 O 0.63883 0.87767 0.92495 0.0
O48 O 0.77393 0.6615 0.01937 0.0
O49 O 0.63472 0.9279 0.01104 0.0
C50 C 0.91754 0.69969 0.95288 0.0
O51 O 0.6721 0.81904 0.03862 0.0
O52 O 0.80938 0.82394 0.01029 0.0
O53 O 0.77568 0.93078 0.97524 0.0
C54 C 0.63594 0.87503 0.04293 0.0
C55 C 0.88233 0.7237 0.10192 0.0
O56 O 0.82541 0.74405 0.09714 0.0
C57 C 0.72597 0.69492 1.00111 0.0
C58 C 0.82207 0.8911 0.99081 0.0
O59 O 0.91165 0.70674 0.07059 0.0
C60 C 0.97814 0.67959 0.93997 0.0
C61 C 0.04459 0.64783 0.8871 0.0
C62 C 0.9869 0.66642 0.90027 0.0
C63 C 0.02746 0.67558 0.96636 0.0
C64 C 0.08493 0.65587 0.9537 0.0
C65 C 0.09234 0.63952 0.91477 0.0
C66 C 0.66769 0.89641 0.89073 0.0
O67 O 0.72593 0.91041 0.89176 0.0
O68 O 0.88811 0.64609 0.97641 0.0
O69 O 0.91198 0.76617 0.96419 0.0
H70 H 0.53774 0.81698 0.01037 0.0
H71 H 0.43095 0.77916 0.11814 0.0
H72 H 0.60502 0.88536 0.11892 0.0
H73 H 0.94927 0.67308 0.87947 0.0
H74 H 1.0213 0.68875 0.99638 0.0
H75 H 0.13685 0.62429 0.90527 0.0
C76 C 0.09374 0.70136 0.44248 0.0
C77 C 0.04192 0.71319 0.46524 0.0
C78 C 0.98733 0.73698 0.44572 0.0
C79 C 0.98502 0.74857 0.40368 0.0
C80 C 0.03552 0.73498 0.38067 0.0
C81 C 0.08985 0.71157 0.4003 0.0
O82 O 0.21388 0.79307 0.53981 0.0
Tb83 Tb 0.21389 0.68225 0.52281 0.0
Tb84 Tb 0.33429 0.81445 0.48445 0.0
O85 O 0.16216 0.64399 0.57714 0.0
O86 O 0.24667 0.86972 0.48352 0.0
O87 O 0.14874 0.62477 0.49462 0.0
C88 C 0.4016 0.83939 0.54056 0.0
O89 O 0.1944 0.72535 0.46257 0.0
O90 O 0.34249 0.70072 0.47087 0.0
O91 O 0.30053 0.6243 0.52523 0.0
C92 C 0.15174 0.67458 0.4615 0.0
C93 C 0.34217 0.85472 0.39413 0.0
O94 O 0.28566 0.83222 0.39831 0.0
C95 C 0.20737 0.8536 0.51289 0.0
C96 C 0.34308 0.63886 0.49764 0.0
O97 O 0.37455 0.85618 0.42656 0.0
C98 C 0.46111 0.82259 0.55994 0.0
C99 C 0.52204 0.8192 0.62045 0.0
C100 C 0.46644 0.83068 0.60056 0.0
C101 C 0.5127 0.80337 0.53883 0.0
C102 C 0.5689 0.79121 0.55873 0.0
C103 C 0.57259 0.79965 0.59931 0.0
C104 C 0.18838 0.60505 0.60872 0.0
O105 O 0.24489 0.58419 0.60566 0.0
O106 O 0.40125 0.88108 0.50475 0.0
O107 O 0.36079 0.78522 0.54475 0.0
H108 H 0.04386 0.70348 0.49777 0.0
H109 H 0.94241 0.76451 0.38884 0.0
H110 H 0.12905 0.70073 0.38274 0.0
H111 H 0.4272 0.84632 0.61672 0.0
H112 H 0.50911 0.79798 0.50737 0.0
H113 H 0.61602 0.7936 0.61435 0.0
C114 C 0.57269 0.18239 0.44529 0.0
C115 C 0.52833 0.21917 0.46488 0.0
C116 C 0.47729 0.24987 0.4436 0.0
C117 C 0.47125 0.24365 0.40295 0.0
C118 C 0.5148 0.20645 0.38319 0.0
C119 C 0.5655 0.17539 0.40462 0.0
O120 O 0.72854 0.26663 0.53355 0.0
Tb121 Tb 0.68546 0.15876 0.52968 0.0
Tb122 Tb 0.85278 0.30008 0.49063 0.0
O123 O 0.63105 0.14897 0.58392 0.0
O124 O 0.76567 0.35868 0.48604 0.0
O125 O 0.62286 0.10275 0.49825 0.0
C126 C 0.90878 0.32177 0.55229 0.0
O127 O 0.66876 0.20564 0.46996 0.0
O128 O 0.80051 0.19686 0.49614 0.0
O129 O 0.76722 0.0913 0.53279 0.0
C130 C 0.62836 0.15411 0.46592 0.0
C131 C 0.87684 0.29625 0.40336 0.0
O132 O 0.82082 0.27188 0.40769 0.0
C133 C 0.71914 0.32742 0.50708 0.0
C134 C 0.81338 0.12982 0.51575 0.0
O135 O 0.90418 0.31526 0.43486 0.0
C136 C 0.96941 0.34208 0.56479 0.0
C137 C 0.03695 0.37051 0.61752 0.0
C138 C 0.97879 0.35398 0.60463 0.0
C139 C 1.01839 0.34673 0.53792 0.0
C140 C 0.0761 0.36535 0.55044 0.0
C141 C 0.08459 0.37854 0.58979 0.0
C142 C 0.65322 0.11015 0.61704 0.0
O143 O 0.70578 0.07682 0.61524 0.0
O144 O 0.87922 0.37506 0.52875 0.0
O145 O 0.90342 0.25511 0.54117 0.0
H146 H 0.53353 0.22393 0.49633 0.0
H147 H 0.43073 0.26497 0.38696 0.0
H148 H 0.59976 0.14703 0.38953 0.0
H149 H 0.94154 0.34744 0.62584 0.0
H150 H 1.01181 0.33487 0.50769 0.0
H151 H 0.12965 0.39096 0.59961 0.0
H152 H 0.66199 0.13214 0.96293 0.0
H153 H 0.59941 0.35234 0.97877 0.0
H154 H 0.76205 0.16048 0.98666 0.0
H155 H 0.70031 0.38266 1.00113 0.0
H156 H 0.87216 0.38404 0.07673 0.0
H157 H 0.7721 0.36122 0.05198 0.0
H158 H 0.85088 0.22963 0.96844 0.0
H159 H 0.95146 0.2497 0.99512 0.0
C160 C 0.66973 0.18661 0.97183 0.0
C161 C 0.62281 0.23988 0.96926 0.0
C162 C 0.72744 0.20342 0.98487 0.0
C163 C 0.74022 0.27445 0.99531 0.0
C164 C 0.69252 0.32708 0.99375 0.0
C165 C 0.63444 0.3098 0.98108 0.0
C166 C 0.8682 0.35039 0.05294 0.0
C167 C 0.91984 0.31772 0.03834 0.0
C168 C 0.81057 0.33779 0.03842 0.0
C169 C 0.80261 0.29265 0.00844 0.0
C170 C 0.85475 0.26324 0.99223 0.0
C171 C 0.91268 0.27563 0.00701 0.0
H172 H 0.11683 0.77434 0.98986 0.0
H173 H 0.17801 0.55568 0.96948 0.0
H174 H 0.21712 0.80035 0.01448 0.0
H175 H 0.27841 0.58163 0.99437 0.0
H176 H 0.43062 0.65307 0.08122 0.0
H177 H 0.33354 0.61114 0.05768 0.0
H178 H 0.31792 0.82063 0.97559 0.0
H179 H 0.41529 0.86185 0.99883 0.0
C180 C 0.15113 0.73092 0.99189 0.0
C181 C 0.1397 0.66292 0.9779 0.0
C182 C 0.20872 0.74626 0.00531 0.0
C183 C 0.25563 0.69357 0.00539 0.0
C184 C 0.24307 0.62328 0.99432 0.0
C185 C 0.18563 0.6083 0.98039 0.0
C186 C 0.40693 0.68904 0.0574 0.0
C187 C 0.42984 0.76059 0.04178 0.0
C188 C 0.35152 0.6653 0.04411 0.0
C189 C 0.31781 0.71355 0.01562 0.0
C190 C 0.34266 0.78312 0.99822 0.0
C191 C 0.39852 0.80629 0.01103 0.0
H192 H 0.65204 0.68351 0.58593 0.0
H193 H 0.61546 0.85958 0.48621 0.0
H194 H 0.75416 0.67118 0.56148 0.0
H195 H 0.7173 0.84461 0.46007 0.0
H196 H 0.92148 0.86413 0.44766 0.0
H197 H 0.81864 0.87284 0.47316 0.0
H198 H 0.81894 0.63258 0.5147 0.0
H199 H 0.92275 0.62554 0.49084 0.0
C200 C 0.66554 0.71856 0.55816 0.0
C201 C 0.62569 0.77309 0.53825 0.0
C202 C 0.72428 0.71123 0.54393 0.0
C203 C 0.74498 0.75759 0.50897 0.0
C204 C 0.70379 0.80913 0.48766 0.0
C205 C 0.64487 0.81684 0.50216 0.0
C206 C 0.8998 0.81373 0.46322 0.0
C207 C 0.93024 0.7444 0.46793 0.0
C208 C 0.84041 0.81828 0.47719 0.0
C209 C 0.80948 0.75326 0.49557 0.0
C210 C 0.84101 0.68418 0.5012 0.0
C211 C 0.90074 0.67994 0.48773 0.0
H212 H 0.11461 0.24447 0.51899 0.0
H213 H 0.16086 0.47386 0.52862 0.0
H214 H 0.21652 0.2247 0.49448 0.0
H215 H 0.26242 0.45488 0.50302 0.0
H216 H 0.41718 0.18482 0.51042 0.0
H217 H 0.31757 0.22079 0.53249 0.0
H218 H 0.3211 0.42053 0.44247 0.0
H219 H 0.42101 0.38457 0.4205 0.0
C220 C 0.14601 0.29133 0.51447 0.0
C221 C 0.13021 0.36071 0.52544 0.0
C222 C 0.20447 0.27977 0.50113 0.0
C223 C 0.24768 0.33773 0.49802 0.0
C224 C 0.23026 0.40903 0.50576 0.0
C225 C 0.17212 0.42016 0.51989 0.0
C226 C 0.39746 0.23752 0.49624 0.0
C227 C 0.42629 0.28168 0.46365 0.0
C228 C 0.34018 0.25748 0.50837 0.0
C229 C 0.31118 0.32228 0.48836 0.0
C230 C 0.34222 0.36983 0.45801 0.0
C231 C 0.39929 0.34945 0.44561 0.0
H232 H 0.61881 0.75227 0.96978 0.0
H233 H 0.69495 0.56087 0.04691 0.0
H234 H 0.51969 0.69331 0.97616 0.0
H235 H 0.59648 0.49985 0.05184 0.0
H236 H 0.40795 0.41915 0.07483 0.0
H237 H 0.49681 0.49794 0.07696 0.0
H238 H 0.46846 0.59445 0.95254 0.0
H239 H 0.37814 0.51759 0.951 0.0
C240 C 0.61437 0.69776 0.98828 0.0
C241 C 0.66484 0.66153 0.00787 0.0
C242 C 0.55751 0.66352 0.99167 0.0
C243 C 0.54983 0.59151 0.01432 0.0
C244 C 0.60019 0.55593 0.0347 0.0
C245 C 0.65693 0.5907 0.03166 0.0
C246 C 0.42024 0.45795 0.04807 0.0
C247 C 0.38649 0.46138 0.01254 0.0
C248 C 0.47153 0.50276 0.04921 0.0
C249 C 0.49078 0.55152 0.01472 0.0
C250 C 0.455 0.55792 0.9798 0.0
C251 C 0.40324 0.51359 0.9788 0.0
H252 H 0.62721 0.31307 0.56107 0.0
H253 H 0.67241 0.41248 0.43964 0.0
H254 H 0.5314 0.37937 0.55568 0.0
H255 H 0.57431 0.47492 0.43278 0.0
H256 H 0.4471 0.66216 0.45454 0.0
H257 H 0.53157 0.57784 0.45341 0.0
H258 H 0.43488 0.40469 0.53266 0.0
H259 H 0.35159 0.49215 0.53603 0.0
C260 C 0.61582 0.3478 0.53279 0.0
C261 C 0.65767 0.35905 0.50106 0.0
C262 C 0.56044 0.38554 0.52951 0.0
C263 C 0.54504 0.43424 0.49403 0.0
C264 C 0.58527 0.44038 0.46115 0.0
C265 C 0.6414 0.40419 0.46487 0.0
C266 C 0.44347 0.60589 0.47152 0.0
C267 C 0.39229 0.5839 0.49524 0.0
C268 C 0.49199 0.55684 0.47053 0.0
C269 C 0.49052 0.48362 0.49269 0.0
C270 C 0.43846 0.4609 0.51568 0.0
C271 C 0.39021 0.51078 0.5173 0.0
H272 H 0.19548 0.0363 0.02159 0.0
H273 H 0.09479 0.22628 0.96069 0.0
H274 H 0.10838 0.95442 0.01631 0.0
H275 H 1.00735 0.1468 0.95744 0.0
H276 H 0.86773 0.99081 0.92915 0.0
H277 H 0.96554 0.05352 0.92634 0.0
H278 H 1.01121 0.92568 0.04227 0.0
H279 H 0.91466 0.86021 0.04353 0.0
C280 C 0.15459 0.06041 0.0073 0.0
C281 C 0.1519 0.13721 0.9912 0.0
C282 C 0.10463 1.01377 0.00437 0.0
C283 C 0.05076 0.04363 0.98605 0.0
C284 C 0.04839 0.12095 0.97055 0.0
C285 C 0.09847 0.16688 0.97271 0.0
C286 C 0.89937 0.97528 0.95356 0.0
C287 C 0.88393 0.921 0.98658 0.0
C288 C 0.9552 1.01162 0.95223 0.0
C289 C 0.996 0.99607 0.98452 0.0
C290 C 0.98142 0.93886 0.01668 0.0
C291 C 0.92602 0.90132 0.01752 0.0
H292 H 0.90591 0.16472 0.46301 0.0
H293 H 0.85924 0.02461 0.57486 0.0
H294 H 1.00374 0.10255 0.46322 0.0
H295 H 0.95802 0.96448 0.57646 0.0
H296 H 0.09792 0.80463 0.54156 0.0
H297 H 1.00576 0.87668 0.54347 0.0
H298 H 0.10079 0.07906 0.49101 0.0
H299 H 0.19273 1.00485 0.4869 0.0
C300 C 0.91741 0.12201 0.4882 0.0
C301 C 0.87523 0.09936 0.51887 0.0
C302 C 0.97354 0.0863 0.48842 0.0
C303 C 0.98877 0.02766 0.51962 0.0
C304 C 0.94736 1.00789 0.55134 0.0
C305 C 0.89093 0.04273 0.5507 0.0
C306 C 0.0992 0.86461 0.53061 0.0
C307 C 0.15247 0.8994 0.51436 0.0
C308 C 0.04638 0.90621 0.53199 0.0
C309 C 0.04577 0.98418 0.51803 0.0
C310 C 0.09935 0.01907 0.50173 0.0
C311 C 0.15209 0.97682 0.49952 0.0
H312 H 0.48442 0.31767 0.32255 0.0
H313 H 0.52047 0.07891 0.34804 0.0
H314 H 0.44587 0.30362 0.25649 0.0
H315 H 0.48258 0.06526 0.28096 0.0
H316 H 0.45161 0.13399 0.13307 0.0
H317 H 0.50354 0.12958 0.19779 0.0
H318 H 0.34432 0.21923 0.24703 0.0
H319 H 0.29218 0.22271 0.18329 0.0
C320 C 0.48524 0.26243 0.31364 0.0
C321 C 0.50466 0.19925 0.34055 0.0
C322 C 0.46317 0.25445 0.27594 0.0
C323 C 0.4606 0.18327 0.26413 0.0
C324 C 0.48424 0.12065 0.2896 0.0
C325 C 0.50608 0.12857 0.32775 0.0
C326 C 0.42747 0.15163 0.15794 0.0
C327 C 0.36803 0.1796 0.15294 0.0
C328 C 0.45713 0.14885 0.19486 0.0
C329 C 0.42798 0.17502 0.22693 0.0
C330 C 0.3678 0.19947 0.22247 0.0
C331 C 0.33799 0.20127 0.18599 0.0
H332 H 0.47904 0.72399 0.18326 0.0
H333 H 0.52817 0.95926 0.15939 0.0
H334 H 0.44032 0.74008 0.24904 0.0
H335 H 0.49007 0.97491 0.22622 0.0
H336 H 0.45622 0.90845 0.37332 0.0
H337 H 0.50708 0.91069 0.30829 0.0
H338 H 0.34415 0.82894 0.25991 0.0
H339 H 0.29313 0.82749 0.324 0.0
C340 C 0.48251 0.77886 0.19243 0.0
C341 C 0.5058 0.84059 0.16605 0.0
C342 C 0.46032 0.78803 0.22998 0.0
C343 C 0.46146 0.85892 0.24221 0.0
C344 C 0.48874 0.91976 0.21726 0.0
C345 C 0.51071 0.91068 0.17925 0.0
C346 C 0.43104 0.89213 0.34857 0.0
C347 C 0.37088 0.86678 0.35395 0.0
C348 C 0.46012 0.89366 0.31146 0.0
C349 C 0.42961 0.86893 0.27954 0.0
C350 C 0.36872 0.84744 0.28434 0.0
C351 C 0.33954 0.84682 0.32103 0.0
H352 H 0.48377 0.93764 0.65639 0.0
H353 H 0.57837 0.72519 0.68007 0.0
H354 H 0.51072 0.96231 0.72391 0.0
H355 H 0.60571 0.75066 0.74675 0.0
H356 H 0.71992 0.9169 0.81669 0.0
H357 H 0.67384 0.90072 0.75304 0.0
H358 H 0.50174 0.85449 0.81197 0.0
H359 H 0.54782 0.86969 0.87654 0.0
C360 C 0.50889 0.89553 0.67632 0.0
C361 C 0.52929 0.82965 0.66297 0.0
C362 C 0.52433 0.90977 0.71473 0.0
C363 C 0.56008 0.85816 0.74011 0.0
C364 C 0.578 0.791 0.72751 0.0
C365 C 0.56254 0.77669 0.68941 0.0
C366 C 0.67211 0.90405 0.81626 0.0
C367 C 0.63763 0.89396 0.85179 0.0
C368 C 0.64589 0.89495 0.77979 0.0
C369 C 0.58455 0.87654 0.77795 0.0
C370 C 0.54915 0.86918 0.81291 0.0
C371 C 0.57558 0.87757 0.84971 0.0
H372 H 0.56454 0.06331 0.87181 0.0
H373 H 0.48273 0.27207 0.81732 0.0
H374 H 0.58701 0.03285 0.8055 0.0
H375 H 0.50799 0.24397 0.75064 0.0
H376 H 0.54096 0.16462 0.63235 0.0
H377 H 0.49694 0.17413 0.69788 0.0
H378 H 0.6568 0.06948 0.75577 0.0
H379 H 0.69858 0.05647 0.69101 0.0
C380 C 0.55092 0.10223 0.84542 0.0
C381 C 0.52211 0.17 0.84939 0.0
C382 C 0.56423 0.08518 0.80742 0.0
C383 C 0.55036 0.13621 0.77246 0.0
C384 C 0.51894 0.20271 0.77664 0.0
C385 C 0.50465 0.21919 0.81479 0.0
C386 C 0.56611 0.1427 0.65921 0.0
C387 C 0.62347 0.11035 0.65643 0.0
C388 C 0.5411 0.14862 0.69682 0.0
C389 C 0.57325 0.1231 0.73243 0.0
C390 C 0.62983 0.08862 0.72937 0.0
C391 C 0.65428 0.08174 0.69197 0.0
H392 H 0.98587 0.85006 0.32871 0.0
H393 H 0.06871 0.63181 0.333 0.0
H394 H 0.95697 0.84971 0.25903 0.0
H395 H 0.03916 0.63098 0.26303 0.0
H396 H 0.9994 0.68414 0.12473 0.0
H397 H 0.04707 0.69145 0.18982 0.0
H398 H 0.87948 0.77386 0.23222 0.0
H399 H 0.83253 0.76708 0.16813 0.0
C400 C 0.99866 0.80247 0.3145 0.0
C401 C 0.02888 0.7406 0.33643 0.0
C402 C 0.98192 0.80208 0.27465 0.0
C403 C 0.9947 0.73962 0.25574 0.0
C404 C 0.02875 0.67996 0.27672 0.0
C405 C 0.04572 0.68047 0.31674 0.0
C406 C 0.97293 0.70374 0.14805 0.0
C407 C 0.91221 0.72521 0.14115 0.0
C408 C 1.00017 0.70782 0.18528 0.0
C409 C 0.96731 0.73428 0.21599 0.0
C410 C 0.90655 0.75486 0.20898 0.0
C411 C 0.87942 0.75033 0.17219 0.0
H412 H 0.8322 0.24934 0.33667 0.0
H413 H 0.99171 0.3473 0.38117 0.0
H414 H 0.8811 0.24991 0.27236 0.0
H415 H 0.04145 0.3473 0.31591 0.0
H416 H 0.06142 0.41655 0.17282 0.0
H417 H 0.03192 0.4097 0.24354 0.0
H418 H 0.96317 0.18491 0.24381 0.0
H419 H 0.99143 0.19271 0.17333 0.0
C420 C 0.87794 0.27084 0.33282 0.0
C421 C 0.90802 0.29816 0.3642 0.0
C422 C 0.90625 0.27054 0.2959 0.0
C423 C 0.96557 0.29761 0.2891 0.0
C424 C 0.99574 0.32596 0.32025 0.0
C425 C 0.96731 0.32583 0.35758 0.0
C426 C 0.04159 0.36502 0.1885 0.0
C427 C 0.02816 0.30537 0.16767 0.0
C428 C 0.02461 0.36108 0.22891 0.0
C429 C 0.99406 0.29734 0.24905 0.0
C430 C 0.98529 0.23551 0.22891 0.0
C431 C 1.00185 0.23965 0.18867 0.0
H432 H 0.25555 0.41657 0.81928 0.0
H433 H 0.0782 0.41576 0.87328 0.0
H434 H 0.20996 0.4077 0.75496 0.0
H435 H 0.03215 0.40633 0.80819 0.0
H436 H 0.98069 0.45181 0.66975 0.0
H437 H 1.01476 0.46551 0.73744 0.0
H438 H 0.15939 0.30809 0.72847 0.0
H439 H 0.12508 0.29361 0.66186 0.0
C440 C 0.2067 0.41512 0.81741 0.0
C441 C 0.17063 0.41554 0.85165 0.0
C442 C 0.18049 0.40921 0.78051 0.0
C443 C 0.1174 0.40423 0.7766 0.0
C444 C 0.0809 0.40953 0.81023 0.0
C445 C 0.1073 0.41488 0.8475 0.0
C446 C 1.01918 0.41952 0.68268 0.0
C447 C 0.05102 0.37286 0.6603 0.0
C448 C 0.03897 0.42776 0.72128 0.0
C449 C 0.09121 0.39024 0.7378 0.0
C450 C 0.12041 0.34013 0.71615 0.0
C451 C 0.10057 0.33151 0.67802 0.0
H452 H 0.07098 0.6384 0.62665 0.0
H453 H 0.23922 0.55478 0.68152 0.0
H454 H 0.02908 0.64551 0.69336 0.0
H455 H 0.19808 0.56385 0.74733 0.0
H456 H 0.14471 0.69825 0.84357 0.0
H457 H 0.17292 0.67809 0.77688 0.0
H458 H 1.00038 0.57313 0.76355 0.0
H459 H 0.97341 0.58782 0.83241 0.0
C460 C 0.09866 0.62042 0.65289 0.0
C461 C 0.15882 0.59713 0.6487 0.0
C462 C 0.07459 0.62441 0.69104 0.0
C463 C 0.11059 0.60623 0.72551 0.0
C464 C 0.16939 0.57892 0.7213 0.0
C465 C 0.19297 0.57361 0.68349 0.0
C466 C 0.11309 0.66887 0.8271 0.0
C467 C 0.05761 0.64197 0.84424 0.0
C468 C 0.12928 0.65779 0.78861 0.0
C469 C 0.08994 0.62127 0.76545 0.0
C470 C 0.03249 0.59927 0.78112 0.0
C471 C 1.01675 0.60854 0.82042 0.0
loop_
_geom_bond_atom_site_label_1
_geom_bond_atom_site_label_2
_geom_bond_distance
_geom_bond_site_symmetry_2
_ccdc_geom_bond_type
C0 C1 1.386 . S
C0 C5 1.384 . S
C0 C16 1.497 . S
C1 C0 1.386 . S
C1 C2 1.393 1_455 S
C1 H32 0.932 1_455 S
C2 C1 1.393 1_655 S
C2 C3 1.387 . S
C3 C2 1.387 . S
C3 C4 1.392 1_655 S
C3 H33 0.930 . S
C4 C3 1.392 1_455 S
C4 C5 1.402 . S
C5 C0 1.384 . S
C5 C4 1.402 . S
C5 H34 0.930 . S
O6 Tb7 2.288 . S
O6 C19 1.254 1_556 S
Tb7 O6 2.288 . S
Tb7 O9 2.303 . S
Tb7 O11 2.430 . S
Tb7 O13 2.459 1_556 S
Tb7 O15 2.301 . S
Tb7 C16 2.808 1_556 S
Tb8 O10 2.301 . S
Tb8 C12 2.808 1_554 S
Tb8 O14 2.288 . S
Tb8 O21 2.303 . S
Tb8 O30 2.430 . S
Tb8 O31 2.459 1_554 S
O9 Tb7 2.303 . S
O9 C28 1.255 . S
O10 Tb8 2.301 . S
O10 C19 1.242 . S
O11 Tb7 2.430 . S
O11 C16 1.248 1_556 S
C12 Tb8 2.808 1_556 S
C12 C22 1.497 . S
C12 O30 1.248 1_556 S
C12 O31 1.260 . S
O13 Tb7 2.459 1_554 S
O13 C16 1.260 . S
O14 Tb8 2.288 . S
O14 C20 1.257 . S
O15 Tb7 2.301 . S
O15 C20 1.237 1_556 S
C16 C0 1.497 . S
C16 Tb7 2.808 1_554 S
C16 O11 1.248 1_554 S
C16 O13 1.260 . S
C17 O18 1.255 . S
C17 O21 1.255 . S
O18 C17 1.255 . S
C19 O6 1.254 1_554 S
C19 O10 1.242 . S
C20 O14 1.257 . S
C20 O15 1.237 1_554 S
O21 Tb8 2.303 . S
O21 C17 1.255 . S
C22 C12 1.497 . S
C22 C24 1.384 . S
C22 C25 1.386 . S
C23 C24 1.402 . S
C23 C27 1.392 . S
C24 C22 1.384 . S
C24 C23 1.402 . S
C24 H35 0.930 . S
C25 C22 1.386 . S
C25 C26 1.393 . S
C25 H36 0.932 . S
C26 C25 1.393 . S
C26 C27 1.387 . S
C27 C23 1.392 . S
C27 C26 1.387 . S
C27 H37 0.930 . S
C28 O9 1.255 . S
C28 O29 1.255 . S
O29 C28 1.255 . S
O30 Tb8 2.430 . S
O30 C12 1.248 1_554 S
O31 Tb8 2.459 1_556 S
O31 C12 1.260 . S
H32 C1 0.932 1_655 S
H33 C3 0.930 . S
H34 C5 0.930 . S
H35 C24 0.930 . S
H36 C25 0.932 . S
H37 C27 0.930 . S
C38 C39 1.386 . S
C38 C43 1.384 . S
C38 C54 1.497 . S
C39 C38 1.386 . S
C39 C40 1.393 . S
C39 H70 0.932 . S
C40 C39 1.393 . S
C40 C41 1.387 . S
C41 C40 1.387 . S
C41 C42 1.392 . S
C41 H71 0.930 . S
C42 C41 1.392 . S
C42 C43 1.402 . S
C43 C38 1.384 . S
C43 C42 1.402 . S
C43 H72 0.930 . S
O44 Tb45 2.288 . S
O44 C57 1.254 1_556 S
Tb45 O44 2.288 . S
Tb45 O47 2.303 . S
Tb45 O49 2.430 . S
Tb45 O51 2.459 1_556 S
Tb45 O53 2.301 . S
Tb45 C54 2.808 1_556 S
Tb46 O48 2.301 . S
Tb46 C50 2.808 1_554 S
Tb46 O52 2.288 . S
Tb46 O59 2.303 . S
Tb46 O68 2.430 . S
Tb46 O69 2.459 1_554 S
O47 Tb45 2.303 . S
O47 C66 1.255 . S
O48 Tb46 2.301 . S
O48 C57 1.242 . S
O49 Tb45 2.430 . S
O49 C54 1.248 1_556 S
C50 Tb46 2.808 1_556 S
C50 C60 1.497 . S
C50 O68 1.248 1_556 S
C50 O69 1.260 . S
O51 Tb45 2.459 1_554 S
O51 C54 1.260 . S
O52 Tb46 2.288 . S
O52 C58 1.257 . S
O53 Tb45 2.301 . S
O53 C58 1.237 1_556 S
C54 C38 1.497 . S
C54 Tb45 2.808 1_554 S
C54 O49 1.248 1_554 S
C54 O51 1.260 . S
C55 O56 1.255 . S
C55 O59 1.255 . S
O56 C55 1.255 . S
C57 O44 1.254 1_554 S
C57 O48 1.242 . S
C58 O52 1.257 . S
C58 O53 1.237 1_554 S
O59 Tb46 2.303 . S
O59 C55 1.255 . S
C60 C50 1.497 . S
C60 C62 1.384 . S
C60 C63 1.386 . S
C61 C62 1.402 . S
C61 C65 1.392 1_655 S
C62 C60 1.384 . S
C62 C61 1.402 . S
C62 H73 0.930 . S
C63 C60 1.386 . S
C63 C64 1.393 1_655 S
C63 H74 0.932 1_655 S
C64 C63 1.393 1_455 S
C64 C65 1.387 . S
C65 C61 1.392 1_455 S
C65 C64 1.387 . S
C65 H75 0.930 . S
C66 O47 1.255 . S
C66 O67 1.255 . S
O67 C66 1.255 . S
O68 Tb46 2.430 . S
O68 C50 1.248 1_554 S
O69 Tb46 2.459 1_556 S
O69 C50 1.260 . S
H70 C39 0.932 . S
H71 C41 0.930 . S
H72 C43 0.930 . S
H73 C62 0.930 . S
H74 C63 0.932 1_455 S
H75 C65 0.930 . S
C76 C77 1.386 . S
C76 C81 1.384 . S
C76 C92 1.497 . S
C77 C76 1.386 . S
C77 C78 1.393 1_455 S
C77 H108 0.932 1_455 S
C78 C77 1.393 1_655 S
C78 C79 1.387 . S
C79 C78 1.387 . S
C79 C80 1.392 1_655 S
C79 H109 0.930 . S
C80 C79 1.392 1_455 S
C80 C81 1.402 . S
C81 C76 1.384 . S
C81 C80 1.402 . S
C81 H110 0.930 . S
O82 Tb83 2.288 . S
O82 C95 1.257 . S
Tb83 O82 2.288 . S
Tb83 O85 2.303 . S
Tb83 O87 2.430 . S
Tb83 O89 2.459 . S
Tb83 O91 2.301 . S
Tb83 C92 2.808 . S
Tb84 O86 2.301 . S
Tb84 C88 2.808 . S
Tb84 O90 2.288 . S
Tb84 O97 2.303 . S
Tb84 O106 2.430 . S
Tb84 O107 2.459 . S
O85 Tb83 2.303 . S
O85 C104 1.255 . S
O86 Tb84 2.301 . S
O86 C95 1.237 . S
O87 Tb83 2.430 . S
O87 C92 1.248 . S
C88 Tb84 2.808 . S
C88 C98 1.497 . S
C88 O106 1.248 . S
C88 O107 1.260 . S
O89 Tb83 2.459 . S
O89 C92 1.260 . S
O90 Tb84 2.288 . S
O90 C96 1.257 . S
O91 Tb83 2.301 . S
O91 C96 1.237 . S
C92 C76 1.497 . S
C92 Tb83 2.808 . S
C92 O87 1.248 . S
C92 O89 1.260 . S
C93 O94 1.255 . S
C93 O97 1.255 . S
O94 C93 1.255 . S
C95 O82 1.257 . S
C95 O86 1.237 . S
C96 O90 1.257 . S
C96 O91 1.237 . S
O97 Tb84 2.303 . S
O97 C93 1.255 . S
C98 C88 1.497 . S
C98 C100 1.384 . S
C98 C101 1.386 . S
C99 C100 1.402 . S
C99 C103 1.392 . S
C100 C98 1.384 . S
C100 C99 1.402 . S
C100 H111 0.930 . S
C101 C98 1.386 . S
C101 C102 1.393 . S
C101 H112 0.932 . S
C102 C101 1.393 . S
C102 C103 1.387 . S
C103 C99 1.392 . S
C103 C102 1.387 . S
C103 H113 0.930 . S
C104 O85 1.255 . S
C104 O105 1.255 . S
O105 C104 1.255 . S
O106 Tb84 2.430 . S
O106 C88 1.248 . S
O107 Tb84 2.459 . S
O107 C88 1.260 . S
H108 C77 0.932 1_655 S
H109 C79 0.930 . S
H110 C81 0.930 . S
H111 C100 0.930 . S
H112 C101 0.932 . S
H113 C103 0.930 . S
C114 C115 1.386 . S
C114 C119 1.384 . S
C114 C130 1.497 . S
C115 C114 1.386 . S
C115 C116 1.393 . S
C115 H146 0.932 . S
C116 C115 1.393 . S
C116 C117 1.387 . S
C117 C116 1.387 . S
C117 C118 1.392 . S
C117 H147 0.930 . S
C118 C117 1.392 . S
C118 C119 1.402 . S
C119 C114 1.384 . S
C119 C118 1.402 . S
C119 H148 0.930 . S
O120 Tb121 2.288 . S
O120 C133 1.257 . S
Tb121 O120 2.288 . S
Tb121 O123 2.303 . S
Tb121 O125 2.430 . S
Tb121 O127 2.459 . S
Tb121 O129 2.301 . S
Tb121 C130 2.808 . S
Tb122 O124 2.301 . S
Tb122 C126 2.808 . S
Tb122 O128 2.288 . S
Tb122 O135 2.303 . S
Tb122 O144 2.430 . S
Tb122 O145 2.459 . S
O123 Tb121 2.303 . S
O123 C142 1.255 . S
O124 Tb122 2.301 . S
O124 C133 1.237 . S
O125 Tb121 2.430 . S
O125 C130 1.248 . S
C126 Tb122 2.808 . S
C126 C136 1.497 . S
C126 O144 1.248 . S
C126 O145 1.260 . S
O127 Tb121 2.459 . S
O127 C130 1.260 . S
O128 Tb122 2.288 . S
O128 C134 1.257 . S
O129 Tb121 2.301 . S
O129 C134 1.237 . S
C130 C114 1.497 . S
C130 Tb121 2.808 . S
C130 O125 1.248 . S
C130 O127 1.260 . S
C131 O132 1.255 . S
C131 O135 1.255 . S
O132 C131 1.255 . S
C133 O120 1.257 . S
C133 O124 1.237 . S
C134 O128 1.257 . S
C134 O129 1.237 . S
O135 Tb122 2.303 . S
O135 C131 1.255 . S
C136 C126 1.497 . S
C136 C138 1.384 . S
C136 C139 1.386 . S
C137 C138 1.402 . S
C137 C141 1.392 1_655 S
C138 C136 1.384 . S
C138 C137 1.402 . S
C138 H149 0.930 . S
C139 C136 1.386 . S
C139 C140 1.393 1_655 S
C139 H150 0.932 1_655 S
C140 C139 1.393 1_455 S
C140 C141 1.387 . S
C141 C137 1.392 1_455 S
C141 C140 1.387 . S
C141 H151 0.930 . S
C142 O123 1.255 . S
C142 O143 1.255 . S
O143 C142 1.255 . S
O144 Tb122 2.430 . S
O144 C126 1.248 . S
O145 Tb122 2.459 . S
O145 C126 1.260 . S
H146 C115 0.932 . S
H147 C117 0.930 . S
H148 C119 0.930 . S
H149 C138 0.930 . S
H150 C139 0.932 1_455 S
H151 C141 0.930 . S
H152 C160 0.950 . S
H153 C165 0.950 . S
H154 C162 0.950 . S
H155 C164 0.957 . S
H156 C166 0.950 . S
H157 C168 0.950 . S
H158 C170 0.950 . S
H159 C171 0.950 . S
C160 H152 0.950 . S
C160 C161 1.386 . S
C160 C162 1.391 . S
C161 C160 1.386 . S
C161 C165 1.393 . S
C162 H154 0.950 . S
C162 C160 1.391 . S
C162 C163 1.400 . S
C163 C162 1.400 . S
C163 C164 1.398 . S
C163 C169 1.491 1_556 S
C164 H155 0.957 . S
C164 C163 1.398 . S
C164 C165 1.391 . S
C165 H153 0.950 . S
C165 C161 1.393 . S
C165 C164 1.391 . S
C166 H156 0.950 . S
C166 C167 1.386 . S
C166 C168 1.391 . S
C167 C166 1.386 . S
C167 C171 1.393 . S
C168 H157 0.950 . S
C168 C166 1.391 . S
C168 C169 1.400 . S
C169 C163 1.491 1_554 S
C169 C168 1.400 . S
C169 C170 1.398 . S
C170 H158 0.950 . S
C170 C169 1.398 . S
C170 C171 1.391 . S
C171 H159 0.950 . S
C171 C167 1.393 . S
C171 C170 1.391 . S
H172 C180 0.950 . S
H173 C185 0.950 . S
H174 C182 0.950 . S
H175 C184 0.950 . S
H176 C186 0.950 . S
H177 C188 0.930 1_556 S
H178 C190 0.950 . S
H179 C191 0.950 . S
C180 H172 0.950 . S
C180 C181 1.386 . S
C180 C182 1.391 1_556 S
C181 C180 1.386 . S
C181 C185 1.393 . S
C182 H174 0.950 . S
C182 C180 1.391 1_554 S
C182 C183 1.400 1_554 S
C183 C182 1.400 1_556 S
C183 C184 1.398 . S
C183 C189 1.491 1_556 S
C184 H175 0.950 . S
C184 C183 1.398 . S
C184 C185 1.391 . S
C185 H173 0.950 . S
C185 C181 1.393 . S
C185 C184 1.391 . S
C186 H176 0.950 . S
C186 C187 1.386 . S
C186 C188 1.403 . S
C187 C186 1.386 . S
C187 C191 1.393 . S
C188 H177 0.930 1_554 S
C188 C186 1.403 . S
C188 C189 1.408 . S
C189 C183 1.491 1_554 S
C189 C188 1.408 . S
C189 C190 1.398 . S
C190 H178 0.950 . S
C190 C189 1.398 . S
C190 C191 1.391 . S
C191 H179 0.950 . S
C191 C187 1.393 . S
C191 C190 1.391 . S
H192 C200 0.950 . S
H193 C205 0.950 . S
H194 C202 0.950 . S
H195 C204 0.950 . S
H196 C206 0.950 . S
H197 C208 0.950 . S
H198 C210 0.950 . S
H199 C211 0.950 . S
C200 H192 0.950 . S
C200 C201 1.386 . S
C200 C202 1.391 . S
C201 C200 1.386 . S
C201 C205 1.393 . S
C202 H194 0.950 . S
C202 C200 1.391 . S
C202 C203 1.400 . S
C203 C202 1.400 . S
C203 C204 1.398 . S
C203 C209 1.491 . S
C204 H195 0.950 . S
C204 C203 1.398 . S
C204 C205 1.391 . S
C205 H193 0.950 . S
C205 C201 1.393 . S
C205 C204 1.391 . S
C206 H196 0.950 . S
C206 C207 1.386 . S
C206 C208 1.391 . S
C207 C206 1.386 . S
C207 C211 1.393 . S
C208 H197 0.950 . S
C208 C206 1.391 . S
C208 C209 1.400 . S
C209 C203 1.491 . S
C209 C208 1.400 . S
C209 C210 1.398 . S
C210 H198 0.950 . S
C210 C209 1.398 . S
C210 C211 1.391 . S
C211 H199 0.950 . S
C211 C207 1.393 . S
C211 C210 1.391 . S
H212 C220 0.950 . S
H213 C225 0.950 . S
H214 C222 0.950 . S
H215 C224 0.950 . S
H216 C226 0.950 . S
H217 C228 0.950 . S
H218 C230 0.950 . S
H219 C231 0.950 . S
C220 H212 0.950 . S
C220 C221 1.386 . S
C220 C222 1.391 . S
C221 C220 1.386 . S
C221 C225 1.393 . S
C222 H214 0.950 . S
C222 C220 1.391 . S
C222 C223 1.400 . S
C223 C222 1.400 . S
C223 C224 1.398 . S
C223 C229 1.491 . S
C224 H215 0.950 . S
C224 C223 1.398 . S
C224 C225 1.391 . S
C225 H213 0.950 . S
C225 C221 1.393 . S
C225 C224 1.391 . S
C226 H216 0.950 . S
C226 C227 1.386 . S
C226 C228 1.391 . S
C227 C226 1.386 . S
C227 C231 1.393 . S
C228 H217 0.950 . S
C228 C226 1.391 . S
C228 C229 1.400 . S
C229 C223 1.491 . S
C229 C228 1.400 . S
C229 C230 1.398 . S
C230 H218 0.950 . S
C230 C229 1.398 . S
C230 C231 1.391 . S
C231 H219 0.950 . S
C231 C227 1.393 . S
C231 C230 1.391 . S
H232 C240 0.950 . S
H233 C245 0.950 . S
H234 C242 0.950 . S
H235 C244 0.950 . S
H236 C246 0.950 . S
H237 C248 0.950 . S
H238 C250 0.950 . S
H239 C251 0.950 . S
C240 H232 0.950 . S
C240 C241 1.405 . S
C240 C242 1.391 . S
C241 C240 1.405 . S
C241 C245 1.375 1_556 S
C242 H234 0.950 . S
C242 C240 1.391 . S
C242 C243 1.400 1_556 S
C243 C242 1.400 1_554 S
C243 C244 1.398 . S
C243 C249 1.491 . S
C244 H235 0.950 . S
C244 C243 1.398 . S
C244 C245 1.391 . S
C245 H233 0.950 . S
C245 C241 1.375 1_554 S
C245 C244 1.391 . S
C246 H236 0.950 . S
C246 C247 1.386 . S
C246 C248 1.391 . S
C247 C246 1.386 . S
C247 C251 1.393 1_554 S
C248 H237 0.950 . S
C248 C246 1.391 . S
C248 C249 1.400 . S
C249 C243 1.491 . S
C249 C248 1.400 . S
C249 C250 1.398 1_554 S
C250 H238 0.950 . S
C250 C249 1.398 1_556 S
C250 C251 1.391 . S
C251 H239 0.950 . S
C251 C247 1.393 1_556 S
C251 C250 1.391 . S
H252 C260 0.950 . S
H253 C265 0.950 . S
H254 C262 0.950 . S
H255 C264 0.950 . S
H256 C266 0.950 . S
H257 C268 0.950 . S
H258 C270 0.950 . S
H259 C271 0.950 . S
C260 H252 0.950 . S
C260 C261 1.386 . S
C260 C262 1.391 . S
C261 C260 1.386 . S
C261 C265 1.393 . S
C262 H254 0.950 . S
C262 C260 1.391 . S
C262 C263 1.400 . S
C263 C262 1.400 . S
C263 C264 1.398 . S
C263 C269 1.491 . S
C264 H255 0.950 . S
C264 C263 1.398 . S
C264 C265 1.391 . S
C265 H253 0.950 . S
C265 C261 1.393 . S
C265 C264 1.391 . S
C266 H256 0.950 . S
C266 C267 1.386 . S
C266 C268 1.391 . S
C267 C266 1.386 . S
C267 C271 1.393 . S
C268 H257 0.950 . S
C268 C266 1.391 . S
C268 C269 1.400 . S
C269 C263 1.491 . S
C269 C268 1.400 . S
C269 C270 1.398 . S
C270 H258 0.950 . S
C270 C269 1.398 . S
C270 C271 1.391 . S
C271 H259 0.950 . S
C271 C267 1.393 . S
C271 C270 1.391 . S
H272 C280 0.950 . S
H273 C285 0.950 . S
H274 C282 0.950 . S
H275 C284 0.950 . S
H276 C286 0.950 . S
H277 C288 0.950 . S
H278 C290 0.950 . S
H279 C291 0.950 . S
C280 H272 0.950 . S
C280 C281 1.370 1_554 S
C280 C282 1.391 . S
C281 C280 1.370 1_556 S
C281 C285 1.410 . S
C282 H274 0.950 . S
C282 C280 1.391 . S
C282 C283 1.400 . S
C283 C282 1.400 . S
C283 C284 1.398 1_554 S
C283 C289 1.491 1_445 S
C284 H275 0.950 . S
C284 C283 1.398 1_556 S
C284 C285 1.391 . S
C285 H273 0.950 . S
C285 C281 1.410 . S
C285 C284 1.391 . S
C286 H276 0.950 . S
C286 C287 1.386 1_556 S
C286 C288 1.391 . S
C287 C286 1.386 1_554 S
C287 C291 1.393 . S
C288 H277 0.950 . S
C288 C286 1.391 . S
C288 C289 1.400 1_556 S
C289 C283 1.491 1_665 S
C289 C288 1.400 1_554 S
C289 C290 1.398 . S
C290 H278 0.950 . S
C290 C289 1.398 . S
C290 C291 1.391 . S
C291 H279 0.950 . S
C291 C287 1.393 . S
C291 C290 1.391 . S
H292 C300 0.950 . S
H293 C305 0.950 1_565 S
H294 C302 0.950 1_455 S
H295 C304 0.950 . S
H296 C306 0.950 . S
H297 C308 0.950 1_655 S
H298 C310 0.950 . S
H299 C311 0.950 1_545 S
C300 H292 0.950 . S
C300 C301 1.386 . S
C300 C302 1.391 . S
C301 C300 1.386 . S
C301 C305 1.393 . S
C302 H294 0.950 1_655 S
C302 C300 1.391 . S
C302 C303 1.400 . S
C303 C302 1.400 . S
C303 C304 1.398 1_545 S
C303 C309 1.491 1_645 S
C304 H295 0.950 . S
C304 C303 1.398 1_565 S
C304 C305 1.391 1_565 S
C305 H293 0.950 1_545 S
C305 C301 1.393 . S
C305 C304 1.391 1_545 S
C306 H296 0.950 . S
C306 C307 1.386 . S
C306 C308 1.391 . S
C307 C306 1.386 . S
C307 C311 1.393 . S
C308 H297 0.950 1_455 S
C308 C306 1.391 . S
C308 C309 1.400 . S
C309 C303 1.491 1_465 S
C309 C308 1.400 . S
C309 C310 1.398 1_565 S
C310 H298 0.950 . S
C310 C309 1.398 1_545 S
C310 C311 1.391 1_545 S
C311 H299 0.950 1_565 S
C311 C307 1.393 . S
C311 C310 1.391 1_565 S
H312 C320 0.950 . S
H313 C325 0.950 . S
H314 C322 0.950 . S
H315 C324 0.950 . S
H316 C326 0.950 . S
H317 C328 0.950 . S
H318 C330 0.950 . S
H319 C331 0.950 . S
C320 H312 0.950 . S
C320 C321 1.386 . S
C320 C322 1.391 . S
C321 C320 1.386 . S
C321 C325 1.393 . S
C322 H314 0.950 . S
C322 C320 1.391 . S
C322 C323 1.400 . S
C323 C322 1.400 . S
C323 C324 1.398 . S
C323 C329 1.491 . S
C324 H315 0.950 . S
C324 C323 1.398 . S
C324 C325 1.391 . S
C325 H313 0.950 . S
C325 C321 1.393 . S
C325 C324 1.391 . S
C326 H316 0.950 . S
C326 C327 1.386 . S
C326 C328 1.391 . S
C327 C326 1.386 . S
C327 C331 1.393 . S
C328 H317 0.950 . S
C328 C326 1.391 . S
C328 C329 1.400 . S
C329 C323 1.491 . S
C329 C328 1.400 . S
C329 C330 1.398 . S
C330 H318 0.950 . S
C330 C329 1.398 . S
C330 C331 1.391 . S
C331 H319 0.950 . S
C331 C327 1.393 . S
C331 C330 1.391 . S
H332 C340 0.950 . S
H333 C345 0.950 . S
H334 C342 0.950 . S
H335 C344 0.950 . S
H336 C346 0.950 . S
H337 C348 0.950 . S
H338 C350 0.950 . S
H339 C351 0.950 . S
C340 H332 0.950 . S
C340 C341 1.386 . S
C340 C342 1.391 . S
C341 C340 1.386 . S
C341 C345 1.393 . S
C342 H334 0.950 . S
C342 C340 1.391 . S
C342 C343 1.400 . S
C343 C342 1.400 . S
C343 C344 1.398 . S
C343 C349 1.491 . S
C344 H335 0.950 . S
C344 C343 1.398 . S
C344 C345 1.391 . S
C345 H333 0.950 . S
C345 C341 1.393 . S
C345 C344 1.391 . S
C346 H336 0.950 . S
C346 C347 1.386 . S
C346 C348 1.391 . S
C347 C346 1.386 . S
C347 C351 1.393 . S
C348 H337 0.950 . S
C348 C346 1.391 . S
C348 C349 1.400 . S
C349 C343 1.491 . S
C349 C348 1.400 . S
C349 C350 1.398 . S
C350 H338 0.950 . S
C350 C349 1.398 . S
C350 C351 1.391 . S
C351 H339 0.950 . S
C351 C347 1.393 . S
C351 C350 1.391 . S
H352 C360 0.950 . S
H353 C365 0.950 . S
H354 C362 0.950 . S
H355 C364 0.950 . S
H356 C366 0.950 . S
H357 C368 0.950 . S
H358 C370 0.950 . S
H359 C371 0.950 . S
C360 H352 0.950 . S
C360 C361 1.386 . S
C360 C362 1.391 . S
C361 C360 1.386 . S
C361 C365 1.393 . S
C362 H354 0.950 . S
C362 C360 1.391 . S
C362 C363 1.400 . S
C363 C362 1.400 . S
C363 C364 1.398 . S
C363 C369 1.491 . S
C364 H355 0.950 . S
C364 C363 1.398 . S
C364 C365 1.391 . S
C365 H353 0.950 . S
C365 C361 1.393 . S
C365 C364 1.391 . S
C366 H356 0.950 . S
C366 C367 1.386 . S
C366 C368 1.391 . S
C367 C366 1.386 . S
C367 C371 1.393 . S
C368 H357 0.950 . S
C368 C366 1.391 . S
C368 C369 1.400 . S
C369 C363 1.491 . S
C369 C368 1.400 . S
C369 C370 1.398 . S
C370 H358 0.950 . S
C370 C369 1.398 . S
C370 C371 1.391 . S
C371 H359 0.950 . S
C371 C367 1.393 . S
C371 C370 1.391 . S
H372 C380 0.950 . S
H373 C385 0.950 . S
H374 C382 0.950 . S
H375 C384 0.950 . S
H376 C386 0.950 . S
H377 C388 0.950 . S
H378 C390 0.950 . S
H379 C391 0.950 . S
C380 H372 0.950 . S
C380 C381 1.386 . S
C380 C382 1.391 . S
C381 C380 1.386 . S
C381 C385 1.393 . S
C382 H374 0.950 . S
C382 C380 1.391 . S
C382 C383 1.400 . S
C383 C382 1.400 . S
C383 C384 1.398 . S
C383 C389 1.491 . S
C384 H375 0.950 . S
C384 C383 1.398 . S
C384 C385 1.391 . S
C385 H373 0.950 . S
C385 C381 1.393 . S
C385 C384 1.391 . S
C386 H376 0.950 . S
C386 C387 1.386 . S
C386 C388 1.391 . S
C387 C386 1.386 . S
C387 C391 1.393 . S
C388 H377 0.950 . S
C388 C386 1.391 . S
C388 C389 1.400 . S
C389 C383 1.491 . S
C389 C388 1.400 . S
C389 C390 1.398 . S
C390 H378 0.950 . S
C390 C389 1.398 . S
C390 C391 1.391 . S
C391 H379 0.950 . S
C391 C387 1.393 . S
C391 C390 1.391 . S
H392 C400 0.950 . S
H393 C405 0.950 . S
H394 C402 0.950 . S
H395 C404 0.950 . S
H396 C406 0.950 . S
H397 C408 0.950 1_455 S
H398 C410 0.950 . S
H399 C411 0.950 . S
C400 H392 0.950 . S
C400 C401 1.386 1_655 S
C400 C402 1.391 . S
C401 C400 1.386 1_455 S
C401 C405 1.393 . S
C402 H394 0.950 . S
C402 C400 1.391 . S
C402 C403 1.400 . S
C403 C402 1.400 . S
C403 C404 1.398 1_655 S
C403 C409 1.491 . S
C404 H395 0.950 . S
C404 C403 1.398 1_455 S
C404 C405 1.391 . S
C405 H393 0.950 . S
C405 C401 1.393 . S
C405 C404 1.391 . S
C406 H396 0.950 . S
C406 C407 1.386 . S
C406 C408 1.391 . S
C407 C406 1.386 . S
C407 C411 1.393 . S
C408 H397 0.950 1_655 S
C408 C406 1.391 . S
C408 C409 1.400 . S
C409 C403 1.491 . S
C409 C408 1.400 . S
C409 C410 1.398 . S
C410 H398 0.950 . S
C410 C409 1.398 . S
C410 C411 1.391 . S
C411 H399 0.950 . S
C411 C407 1.393 . S
C411 C410 1.391 . S
H412 C420 0.950 . S
H413 C425 0.950 . S
H414 C422 0.950 . S
H415 C424 0.950 1_455 S
H416 C426 0.950 . S
H417 C428 0.950 . S
H418 C430 0.950 . S
H419 C431 0.950 . S
C420 H412 0.950 . S
C420 C421 1.386 . S
C420 C422 1.391 . S
C421 C420 1.386 . S
C421 C425 1.393 . S
C422 H414 0.950 . S
C422 C420 1.391 . S
C422 C423 1.400 . S
C423 C422 1.400 . S
C423 C424 1.398 . S
C423 C429 1.491 . S
C424 H415 0.950 1_655 S
C424 C423 1.398 . S
C424 C425 1.391 . S
C425 H413 0.950 . S
C425 C421 1.393 . S
C425 C424 1.391 . S
C426 H416 0.950 . S
C426 C427 1.386 . S
C426 C428 1.391 . S
C427 C426 1.386 . S
C427 C431 1.393 1_455 S
C428 H417 0.950 . S
C428 C426 1.391 . S
C428 C429 1.400 1_455 S
C429 C423 1.491 . S
C429 C428 1.400 1_655 S
C429 C430 1.398 . S
C430 H418 0.950 . S
C430 C429 1.398 . S
C430 C431 1.391 . S
C431 H419 0.950 . S
C431 C427 1.393 1_655 S
C431 C430 1.391 . S
H432 C440 0.950 . S
H433 C445 0.950 . S
H434 C442 0.950 . S
H435 C444 0.950 . S
H436 C446 0.950 . S
H437 C448 0.950 . S
H438 C450 0.950 . S
H439 C451 0.950 . S
C440 H432 0.950 . S
C440 C441 1.386 . S
C440 C442 1.391 . S
C441 C440 1.386 . S
C441 C445 1.393 . S
C442 H434 0.950 . S
C442 C440 1.391 . S
C442 C443 1.400 . S
C443 C442 1.400 . S
C443 C444 1.398 . S
C443 C449 1.491 . S
C444 H435 0.950 . S
C444 C443 1.398 . S
C444 C445 1.391 . S
C445 H433 0.950 . S
C445 C441 1.393 . S
C445 C444 1.391 . S
C446 H436 0.950 . S
C446 C447 1.386 . S
C446 C448 1.391 . S
C447 C446 1.386 . S
C447 C451 1.393 . S
C448 H437 0.950 . S
C448 C446 1.391 . S
C448 C449 1.400 1_655 S
C449 C443 1.491 . S
C449 C448 1.400 1_455 S
C449 C450 1.398 . S
C450 H438 0.950 . S
C450 C449 1.398 . S
C450 C451 1.391 1_455 S
C451 H439 0.950 . S
C451 C447 1.393 . S
C451 C450 1.391 1_655 S
H452 C460 0.950 . S
H453 C465 0.950 . S
H454 C462 0.950 . S
H455 C464 0.950 . S
H456 C466 0.950 . S
H457 C468 0.950 . S
H458 C470 0.950 . S
H459 C471 0.950 . S
C460 H452 0.950 . S
C460 C461 1.386 . S
C460 C462 1.391 . S
C461 C460 1.386 . S
C461 C465 1.393 . S
C462 H454 0.950 . S
C462 C460 1.391 . S
C462 C463 1.400 . S
C463 C462 1.400 . S
C463 C464 1.398 . S
C463 C469 1.491 . S
C464 H455 0.950 . S
C464 C463 1.398 . S
C464 C465 1.391 . S
C465 H453 0.950 . S
C465 C461 1.393 . S
C465 C464 1.391 . S
C466 H456 0.950 . S
C466 C467 1.386 1_455 S
C466 C468 1.391 . S
C467 C466 1.386 1_655 S
C467 C471 1.393 . S
C468 H457 0.950 . S
C468 C466 1.391 . S
C468 C469 1.400 . S
C469 C463 1.491 . S
C469 C468 1.400 . S
C469 C470 1.398 1_455 S
C470 H458 0.950 . S
C470 C469 1.398 1_655 S
C470 C471 1.391 . S
C471 H459 0.950 . S
C471 C467 1.393 . S
C471 C470 1.391 . S
C161 C26 2.018 . S
C167 C2 2.018 . S
C181 C64 2.014 . S
C187 C40 2.014 . S
C201 C102 2.011 . S
C207 C78 2.011 . S
C221 C140 2.017 . S
C227 C116 2.017 . S
C241 C57 1.641 1_556 S
C247 C20 1.645 . S
C261 C133 1.642 . S
C267 C96 1.642 . S
C281 C19 1.634 1_556 S
C287 C58 1.637 . S
C301 C134 1.639 . S
C307 C95 1.639 . S
C321 C118 1.201 . S
C327 C17 1.202 . S
C341 C42 1.194 . S
C347 C93 1.201 . S
C361 C99 1.198 . S
C367 C66 1.201 . S
C381 C23 1.196 . S
C387 C142 1.222 . S
C401 C80 1.191 . S
C407 C55 1.201 . S
C421 C131 1.203 . S
C427 C4 1.187 . S
C441 C28 1.231 . S
C447 C137 1.160 . S
C461 C104 1.202 . S
C467 C61 1.201 . S
