# Generated by pormake.
# Topology sog, (5)-cn, num edge types: 1
# Building blocks:
#     Node 0, Type 0, BuildingBlock: XOMCOT_clean_sbu_0, # of connection points: 5
#     Node 1, Type 0, BuildingBlock: XOMCOT_clean_sbu_0, # of connection points: 5
#     Node 2, Type 0, BuildingBlock: XOMCOT_clean_sbu_0, # of connection points: 5
#     Node 3, Type 0, BuildingBlock: XOMCOT_clean_sbu_0, # of connection points: 5
#     Node 4, Type 0, BuildingBlock: XOMCOT_clean_sbu_0, # of connection points: 5
#     Node 5, Type 0, BuildingBlock: XOMCOT_clean_sbu_0, # of connection points: 5
#     Node 6, Type 0, BuildingBlock: XOMCOT_clean_sbu_0, # of connection points: 5
#     Node 7, Type 0, BuildingBlock: XOMCOT_clean_sbu_0, # of connection points: 5
#     Node 8, Type 0, BuildingBlock: XOMCOT_clean_sbu_0, # of connection points: 5
#     Node 9, Type 0, BuildingBlock: XOMCOT_clean_sbu_0, # of connection points: 5
#     Node 10, Type 0, BuildingBlock: XOMCOT_clean_sbu_0, # of connection points: 5
#     Node 11, Type 0, BuildingBlock: XOMCOT_clean_sbu_0, # of connection points: 5
#     Node 12, Type 0, BuildingBlock: XOMCOT_clean_sbu_0, # of connection points: 5
#     Node 13, Type 0, BuildingBlock: XOMCOT_clean_sbu_0, # of connection points: 5
#     Node 14, Type 0, BuildingBlock: XOMCOT_clean_sbu_0, # of connection points: 5
#     Node 15, Type 0, BuildingBlock: XOMCOT_clean_sbu_0, # of connection points: 5
#     Node 16, Type 0, BuildingBlock: XOMCOT_clean_sbu_0, # of connection points: 5
#     Node 17, Type 0, BuildingBlock: XOMCOT_clean_sbu_0, # of connection points: 5
#     Node 18, Type 0, BuildingBlock: XOMCOT_clean_sbu_0, # of connection points: 5
#     Node 19, Type 0, BuildingBlock: XOMCOT_clean_sbu_0, # of connection points: 5
#     Node 20, Type 0, BuildingBlock: XOMCOT_clean_sbu_0, # of connection points: 5
#     Node 21, Type 0, BuildingBlock: XOMCOT_clean_sbu_0, # of connection points: 5
#     Node 22, Type 0, BuildingBlock: XOMCOT_clean_sbu_0, # of connection points: 5
#     Node 23, Type 0, BuildingBlock: XOMCOT_clean_sbu_0, # of connection points: 5
#     Node 24, Type 0, BuildingBlock: XOMCOT_clean_sbu_0, # of connection points: 5
#     Node 25, Type 0, BuildingBlock: XOMCOT_clean_sbu_0, # of connection points: 5
#     Node 26, Type 0, BuildingBlock: XOMCOT_clean_sbu_0, # of connection points: 5
#     Node 27, Type 0, BuildingBlock: XOMCOT_clean_sbu_0, # of connection points: 5
#     Node 28, Type 0, BuildingBlock: XOMCOT_clean_sbu_0, # of connection points: 5
#     Node 29, Type 0, BuildingBlock: XOMCOT_clean_sbu_0, # of connection points: 5
#     Node 30, Type 0, BuildingBlock: XOMCOT_clean_sbu_0, # of connection points: 5
#     Node 31, Type 0, BuildingBlock: XOMCOT_clean_sbu_0, # of connection points: 5
#     Edge 32, Type (0, 0), BuildingBlock: XIVTED_clean_linker_0, # of connection points: 2
#     Edge 33, Type (0, 0), BuildingBlock: XIVTED_clean_linker_0, # of connection points: 2
#     Edge 34, Type (0, 0), BuildingBlock: XIVTED_clean_linker_0, # of connection points: 2
#     Edge 35, Type (0, 0), BuildingBlock: XIVTED_clean_linker_0, # of connection points: 2
#     Edge 36, Type (0, 0), BuildingBlock: XIVTED_clean_linker_0, # of connection points: 2
#     Edge 37, Type (0, 0), BuildingBlock: XIVTED_clean_linker_0, # of connection points: 2
#     Edge 38, Type (0, 0), BuildingBlock: XIVTED_clean_linker_0, # of connection points: 2
#     Edge 39, Type (0, 0), BuildingBlock: XIVTED_clean_linker_0, # of connection points: 2
#     Edge 40, Type (0, 0), BuildingBlock: XIVTED_clean_linker_0, # of connection points: 2
#     Edge 41, Type (0, 0), BuildingBlock: XIVTED_clean_linker_0, # of connection points: 2
#     Edge 42, Type (0, 0), BuildingBlock: XIVTED_clean_linker_0, # of connection points: 2
#     Edge 43, Type (0, 0), BuildingBlock: XIVTED_clean_linker_0, # of connection points: 2
#     Edge 44, Type (0, 0), BuildingBlock: XIVTED_clean_linker_0, # of connection points: 2
#     Edge 45, Type (0, 0), BuildingBlock: XIVTED_clean_linker_0, # of connection points: 2
#     Edge 46, Type (0, 0), BuildingBlock: XIVTED_clean_linker_0, # of connection points: 2
#     Edge 47, Type (0, 0), BuildingBlock: XIVTED_clean_linker_0, # of connection points: 2
#     Edge 48, Type (0, 0), BuildingBlock: XIVTED_clean_linker_0, # of connection points: 2
#     Edge 49, Type (0, 0), BuildingBlock: XIVTED_clean_linker_0, # of connection points: 2
#     Edge 50, Type (0, 0), BuildingBlock: XIVTED_clean_linker_0, # of connection points: 2
#     Edge 51, Type (0, 0), BuildingBlock: XIVTED_clean_linker_0, # of connection points: 2
#     Edge 52, Type (0, 0), BuildingBlock: XIVTED_clean_linker_0, # of connection points: 2
#     Edge 53, Type (0, 0), BuildingBlock: XIVTED_clean_linker_0, # of connection points: 2
#     Edge 54, Type (0, 0), BuildingBlock: XIVTED_clean_linker_0, # of connection points: 2
#     Edge 55, Type (0, 0), BuildingBlock: XIVTED_clean_linker_0, # of connection points: 2
#     Edge 56, Type (0, 0), BuildingBlock: XIVTED_clean_linker_0, # of connection points: 2
#     Edge 57, Type (0, 0), BuildingBlock: XIVTED_clean_linker_0, # of connection points: 2
#     Edge 58, Type (0, 0), BuildingBlock: XIVTED_clean_linker_0, # of connection points: 2
#     Edge 59, Type (0, 0), BuildingBlock: XIVTED_clean_linker_0, # of connection points: 2
#     Edge 60, Type (0, 0), BuildingBlock: XIVTED_clean_linker_0, # of connection points: 2
#     Edge 61, Type (0, 0), BuildingBlock: XIVTED_clean_linker_0, # of connection points: 2
#     Edge 62, Type (0, 0), BuildingBlock: XIVTED_clean_linker_0, # of connection points: 2
#     Edge 63, Type (0, 0), BuildingBlock: XIVTED_clean_linker_0, # of connection points: 2
#     Edge 64, Type (0, 0), BuildingBlock: XIVTED_clean_linker_0, # of connection points: 2
#     Edge 65, Type (0, 0), BuildingBlock: XIVTED_clean_linker_0, # of connection points: 2
#     Edge 66, Type (0, 0), BuildingBlock: XIVTED_clean_linker_0, # of connection points: 2
#     Edge 67, Type (0, 0), BuildingBlock: XIVTED_clean_linker_0, # of connection points: 2
#     Edge 68, Type (0, 0), BuildingBlock: XIVTED_clean_linker_0, # of connection points: 2
#     Edge 69, Type (0, 0), BuildingBlock: XIVTED_clean_linker_0, # of connection points: 2
#     Edge 70, Type (0, 0), BuildingBlock: XIVTED_clean_linker_0, # of connection points: 2
#     Edge 71, Type (0, 0), BuildingBlock: XIVTED_clean_linker_0, # of connection points: 2
#     Edge 72, Type (0, 0), BuildingBlock: XIVTED_clean_linker_0, # of connection points: 2
#     Edge 73, Type (0, 0), BuildingBlock: XIVTED_clean_linker_0, # of connection points: 2
#     Edge 74, Type (0, 0), BuildingBlock: XIVTED_clean_linker_0, # of connection points: 2
#     Edge 75, Type (0, 0), BuildingBlock: XIVTED_clean_linker_0, # of connection points: 2
#     Edge 76, Type (0, 0), BuildingBlock: XIVTED_clean_linker_0, # of connection points: 2
#     Edge 77, Type (0, 0), BuildingBlock: XIVTED_clean_linker_0, # of connection points: 2
#     Edge 78, Type (0, 0), BuildingBlock: XIVTED_clean_linker_0, # of connection points: 2
#     Edge 79, Type (0, 0), BuildingBlock: XIVTED_clean_linker_0, # of connection points: 2
#     Edge 80, Type (0, 0), BuildingBlock: XIVTED_clean_linker_0, # of connection points: 2
#     Edge 81, Type (0, 0), BuildingBlock: XIVTED_clean_linker_0, # of connection points: 2
#     Edge 82, Type (0, 0), BuildingBlock: XIVTED_clean_linker_0, # of connection points: 2
#     Edge 83, Type (0, 0), BuildingBlock: XIVTED_clean_linker_0, # of connection points: 2
#     Edge 84, Type (0, 0), BuildingBlock: XIVTED_clean_linker_0, # of connection points: 2
#     Edge 85, Type (0, 0), BuildingBlock: XIVTED_clean_linker_0, # of connection points: 2
#     Edge 86, Type (0, 0), BuildingBlock: XIVTED_clean_linker_0, # of connection points: 2
#     Edge 87, Type (0, 0), BuildingBlock: XIVTED_clean_linker_0, # of connection points: 2
#     Edge 88, Type (0, 0), BuildingBlock: XIVTED_clean_linker_0, # of connection points: 2
#     Edge 89, Type (0, 0), BuildingBlock: XIVTED_clean_linker_0, # of connection points: 2
#     Edge 90, Type (0, 0), BuildingBlock: XIVTED_clean_linker_0, # of connection points: 2
#     Edge 91, Type (0, 0), BuildingBlock: XIVTED_clean_linker_0, # of connection points: 2
#     Edge 92, Type (0, 0), BuildingBlock: XIVTED_clean_linker_0, # of connection points: 2
#     Edge 93, Type (0, 0), BuildingBlock: XIVTED_clean_linker_0, # of connection points: 2
#     Edge 94, Type (0, 0), BuildingBlock: XIVTED_clean_linker_0, # of connection points: 2
#     Edge 95, Type (0, 0), BuildingBlock: XIVTED_clean_linker_0, # of connection points: 2
#     Edge 96, Type (0, 0), BuildingBlock: XIVTED_clean_linker_0, # of connection points: 2
#     Edge 97, Type (0, 0), BuildingBlock: XIVTED_clean_linker_0, # of connection points: 2
#     Edge 98, Type (0, 0), BuildingBlock: XIVTED_clean_linker_0, # of connection points: 2
#     Edge 99, Type (0, 0), BuildingBlock: XIVTED_clean_linker_0, # of connection points: 2
#     Edge 100, Type (0, 0), BuildingBlock: XIVTED_clean_linker_0, # of connection points: 2
#     Edge 101, Type (0, 0), BuildingBlock: XIVTED_clean_linker_0, # of connection points: 2
#     Edge 102, Type (0, 0), BuildingBlock: XIVTED_clean_linker_0, # of connection points: 2
#     Edge 103, Type (0, 0), BuildingBlock: XIVTED_clean_linker_0, # of connection points: 2
#     Edge 104, Type (0, 0), BuildingBlock: XIVTED_clean_linker_0, # of connection points: 2
#     Edge 105, Type (0, 0), BuildingBlock: XIVTED_clean_linker_0, # of connection points: 2
#     Edge 106, Type (0, 0), BuildingBlock: XIVTED_clean_linker_0, # of connection points: 2
#     Edge 107, Type (0, 0), BuildingBlock: XIVTED_clean_linker_0, # of connection points: 2
#     Edge 108, Type (0, 0), BuildingBlock: XIVTED_clean_linker_0, # of connection points: 2
#     Edge 109, Type (0, 0), BuildingBlock: XIVTED_clean_linker_0, # of connection points: 2
#     Edge 110, Type (0, 0), BuildingBlock: XIVTED_clean_linker_0, # of connection points: 2
#     Edge 111, Type (0, 0), BuildingBlock: XIVTED_clean_linker_0, # of connection points: 2
# Relax obj value: 0.168
# Max RMSD: 0.188
# Mean RMSD: 0.188
data_MOF--net-sog--node1-XOMCOT_clean_sbu_0--edge1-XIVTED_clean_linker_0
_symmetry_space_group_name_H-M    P1
_symmetry_Int_Tables_number       1
_symmetry_cell_setting            triclinic
loop_
_symmetry_equiv_pos_as_xyz
'x, y, z'
_cell_length_a     84.110983
_cell_length_b     17.586216
_cell_length_c     119.9141
_cell_angle_alpha  90.102271
_cell_angle_beta   90.012029
_cell_angle_gamma 89.99386
loop_
_atom_site_label
_atom_site_type_symbol
_atom_site_fract_x
_atom_site_fract_y
_atom_site_fract_z
_atom_type_partial_charge
Co0 Co 0.45652 0.18515 0.03874 0.0
C1 C 0.45295 0.0196 0.03985 0.0
C2 C 0.43201 0.07187 0.03308 0.0
C3 C 0.43029 0.99399 0.03247 0.0
N4 N 0.44622 0.08748 0.03772 0.0
N5 N 0.44355 0.96138 0.03664 0.0
H6 H 0.46474 0.01321 0.04334 0.0
H7 H 0.42384 0.1139 0.02986 0.0
C8 C 0.4313 0.28738 0.04736 0.0
O9 O 0.44185 0.31109 0.05468 0.0
N10 N 0.46693 0.28412 0.03924 0.0
C11 C 0.48181 0.30281 0.04247 0.0
C12 C 0.48378 0.38025 0.04141 0.0
C13 C 0.4606 0.34985 0.03551 0.0
N14 N 0.47029 0.40982 0.03718 0.0
C15 C 0.47246 0.16786 0.05989 0.0
C16 C 0.44518 0.14599 0.07229 0.0
C17 C 0.45982 0.15078 0.07778 0.0
C18 C 0.47366 0.15942 0.07142 0.0
C19 C 0.44458 0.15415 0.06076 0.0
N20 N 0.45798 0.17085 0.05479 0.0
H21 H 0.48322 0.17004 0.05507 0.0
H22 H 0.43323 0.14789 0.05663 0.0
H23 H 0.49089 0.2638 0.04517 0.0
H24 H 0.44901 0.35389 0.03166 0.0
O25 O 0.47624 0.13855 0.03458 0.0
O26 O 0.45853 0.18592 0.02271 0.0
O27 O 0.43507 0.2363 0.04022 0.0
C28 C 0.4719 0.15002 0.02431 0.0
H29 H 0.42045 0.96391 0.02868 0.0
H30 H 0.49422 0.41228 0.04382 0.0
H31 H 0.43429 0.13546 0.07685 0.0
H32 H 0.48528 0.16048 0.07531 0.0
Co33 Co 0.79362 0.07615 0.03842 0.0
C34 C 0.79714 0.24455 0.03909 0.0
C35 C 0.8173 0.18976 0.03177 0.0
C36 C 0.81925 0.26702 0.03075 0.0
N37 N 0.80366 0.17543 0.03732 0.0
N38 N 0.80649 0.30124 0.03532 0.0
H39 H 0.7854 0.25373 0.04238 0.0
H40 H 0.82491 0.14694 0.02809 0.0
C41 C 0.82653 0.05033 0.04633 0.0
O42 O 0.82454 0.11063 0.05268 0.0
N43 N 0.78372 0.97786 0.03902 0.0
C44 C 0.76931 0.96105 0.04324 0.0
C45 C 0.76728 0.8834 0.04281 0.0
C46 C 0.79022 0.91108 0.03602 0.0
N47 N 0.78048 0.85219 0.03832 0.0
C48 C 0.78129 0.13823 0.05883 0.0
C49 C 0.79554 0.03443 0.0729 0.0
C50 C 0.78676 0.09446 0.07751 0.0
C51 C 0.77923 0.14557 0.0703 0.0
C52 C 0.79721 0.0291 0.06136 0.0
N53 N 0.79105 0.08373 0.05451 0.0
H54 H 0.77456 0.17497 0.05346 0.0
H55 H 0.80352 0.98089 0.05795 0.0
H56 H 0.7611 0.00214 0.0467 0.0
H57 H 0.80192 0.90576 0.03236 0.0
O58 O 0.77374 0.12021 0.03406 0.0
O59 O 0.79202 0.07587 0.02236 0.0
O60 O 0.81524 0.02743 0.04002 0.0
C61 C 0.77838 0.10964 0.02384 0.0
H62 H 0.82878 0.29552 0.02637 0.0
H63 H 0.75715 0.85226 0.04597 0.0
H64 H 0.80126 0.99243 0.07813 0.0
H65 H 0.77157 0.19017 0.07347 0.0
Co66 Co 0.45768 0.06112 0.19983 0.0
C67 C 0.45382 0.22728 0.19886 0.0
C68 C 0.43306 0.17371 0.20566 0.0
C69 C 0.43111 0.25147 0.20622 0.0
N70 N 0.4473 0.15887 0.20104 0.0
N71 N 0.44423 0.28513 0.202 0.0
H72 H 0.4657 0.23426 0.19557 0.0
H73 H 0.42492 0.13121 0.20879 0.0
C74 C 0.43213 0.96131 0.19093 0.0
O75 O 0.44244 0.93924 0.18335 0.0
N76 N 0.46826 0.96215 0.19912 0.0
C77 C 0.48365 0.94682 0.1968 0.0
C78 C 0.48612 0.8696 0.19748 0.0
C79 C 0.46201 0.89406 0.202 0.0
N80 N 0.47243 0.83636 0.20065 0.0
C81 C 0.47352 0.07705 0.17866 0.0
C82 C 0.44645 0.10888 0.16648 0.0
C83 C 0.46107 0.10377 0.16093 0.0
C84 C 0.47477 0.08909 0.1672 0.0
C85 C 0.44578 0.09676 0.17794 0.0
N86 N 0.45907 0.07651 0.1838 0.0
H87 H 0.48427 0.07083 0.18339 0.0
H88 H 0.43447 0.10303 0.18211 0.0
H89 H 0.49278 0.98836 0.19516 0.0
H90 H 0.45 0.88648 0.20497 0.0
O91 O 0.47737 0.10809 0.20396 0.0
O92 O 0.45986 0.05953 0.21585 0.0
O93 O 0.43622 0.00996 0.19835 0.0
C94 C 0.47317 0.09595 0.21423 0.0
H95 H 0.42093 0.28068 0.2097 0.0
H96 H 0.49724 0.84043 0.19596 0.0
H97 H 0.43556 0.12124 0.16202 0.0
H98 H 0.48642 0.08849 0.16335 0.0
Co99 Co 0.79207 0.17055 0.19974 0.0
C100 C 0.79592 0.00242 0.1985 0.0
C101 C 0.81534 0.05625 0.20688 0.0
C102 C 0.81736 0.97883 0.20758 0.0
N103 N 0.8021 0.0713 0.20091 0.0
N104 N 0.8051 0.94517 0.2023 0.0
H105 H 0.78429 0.99354 0.19499 0.0
H106 H 0.82266 0.09864 0.21093 0.0
C107 C 0.82528 0.19552 0.19244 0.0
O108 O 0.82342 0.13522 0.18608 0.0
N109 N 0.78212 0.26874 0.19904 0.0
C110 C 0.7677 0.28456 0.19475 0.0
C111 C 0.76557 0.36214 0.19492 0.0
C112 C 0.78854 0.33616 0.20184 0.0
N113 N 0.77871 0.39435 0.19934 0.0
C114 C 0.77995 0.11007 0.17918 0.0
C115 C 0.79504 0.21221 0.16529 0.0
C116 C 0.78608 0.1532 0.16057 0.0
C117 C 0.77812 0.10298 0.16769 0.0
C118 C 0.79647 0.21732 0.17685 0.0
N119 N 0.7899 0.16333 0.18362 0.0
H120 H 0.77289 0.07417 0.18446 0.0
H121 H 0.80289 0.26493 0.18033 0.0
H122 H 0.75953 0.24275 0.19144 0.0
H123 H 0.8004 0.3427 0.20519 0.0
O124 O 0.77211 0.12613 0.20386 0.0
O125 O 0.79009 0.17051 0.21577 0.0
O126 O 0.81375 0.21921 0.19847 0.0
C127 C 0.77651 0.13658 0.21413 0.0
H128 H 0.82684 0.9498 0.21195 0.0
H129 H 0.75526 0.39244 0.19186 0.0
H130 H 0.80108 0.25361 0.16013 0.0
H131 H 0.77031 0.05932 0.16442 0.0
Co132 Co 0.54256 0.82249 0.95015 0.0
C133 C 0.54642 0.99 0.94923 0.0
C134 C 0.56515 0.93658 0.95839 0.0
C135 C 0.56677 0.01408 0.95947 0.0
N136 N 0.55262 0.92132 0.95172 0.0
N137 N 0.55487 0.04738 0.95377 0.0
H138 H 0.53537 -0.00162 0.94489 0.0
H139 H 0.57206 0.89426 0.96278 0.0
C140 C 0.57669 0.7933 0.9448 0.0
O141 O 0.57678 0.85606 0.93886 0.0
N142 N 0.53259 0.72458 0.94903 0.0
C143 C 0.51908 0.70688 0.9436 0.0
C144 C 0.51714 0.62908 0.94391 0.0
C145 C 0.53859 0.65831 0.95267 0.0
N146 N 0.5295 0.59875 0.94956 0.0
C147 C 0.53205 0.88174 0.92911 0.0
C148 C 0.5491 0.7822 0.91587 0.0
C149 C 0.54008 0.8394 0.91081 0.0
C150 C 0.53118 0.88848 0.91755 0.0
C151 C 0.5495 0.77712 0.92747 0.0
N152 N 0.54188 0.82972 0.93397 0.0
H153 H 0.5244 0.91702 0.93409 0.0
H154 H 0.55572 0.72983 0.93117 0.0
H155 H 0.51153 0.74734 0.93935 0.0
H156 H 0.54955 0.65384 0.95733 0.0
O157 O 0.52234 0.86803 0.95354 0.0
O158 O 0.53934 0.82253 0.96604 0.0
O159 O 0.56405 0.77185 0.94979 0.0
C160 C 0.526 0.85744 0.96396 0.0
H161 H 0.57533 0.04336 0.96468 0.0
H162 H 0.50777 0.59723 0.93985 0.0
H163 H 0.55552 0.7408 0.91092 0.0
H164 H 0.52367 0.932 0.91395 0.0
Co165 Co 0.20632 0.92947 0.95036 0.0
C166 C 0.20198 0.76165 0.94914 0.0
C167 C 0.18379 0.81575 0.95877 0.0
C168 C 0.18179 0.73828 0.95953 0.0
N169 N 0.19625 0.83064 0.95202 0.0
N170 N 0.19328 0.70441 0.95347 0.0
H171 H 0.21302 0.75264 0.94482 0.0
H172 H 0.17705 0.8583 0.96326 0.0
C173 C 0.17232 0.95668 0.94456 0.0
O174 O 0.17244 0.89292 0.93883 0.0
N175 N 0.21634 0.02737 0.9491 0.0
C176 C 0.23018 0.04324 0.94398 0.0
C177 C 0.23226 0.12094 0.94397 0.0
C178 C 0.21026 0.09487 0.95224 0.0
N179 N 0.21969 0.15319 0.94914 0.0
C180 C 0.21792 0.86822 0.92975 0.0
C181 C 0.20123 0.96445 0.91585 0.0
C182 C 0.21081 0.90765 0.91114 0.0
C183 C 0.21947 0.86017 0.91826 0.0
C184 C 0.20007 0.97055 0.92741 0.0
N185 N 0.20759 0.91968 0.93423 0.0
H186 H 0.22555 0.83471 0.93501 0.0
H187 H 0.19338 0.01742 0.93083 0.0
H188 H 0.23795 0.00143 0.94022 0.0
H189 H 0.19886 0.10131 0.9563 0.0
O190 O 0.22642 0.88469 0.95418 0.0
O191 O 0.20906 0.932 0.9663 0.0
O192 O 0.18484 0.9797 0.94955 0.0
C193 C 0.22248 0.89707 0.9645 0.0
H194 H 0.17288 0.70934 0.96446 0.0
H195 H 0.24214 0.15127 0.94029 0.0
H196 H 0.19465 0.00381 0.91067 0.0
H197 H 0.2277 0.81834 0.91498 0.0
Co198 Co 0.53985 0.92641 0.78866 0.0
C199 C 0.54401 0.75862 0.78958 0.0
C200 C 0.56242 0.8128 0.7802 0.0
C201 C 0.56423 0.73535 0.77919 0.0
N202 N 0.54997 0.82763 0.78698 0.0
N203 N 0.55255 0.70149 0.78504 0.0
H204 H 0.53311 0.74975 0.79407 0.0
H205 H 0.56915 0.85537 0.77574 0.0
C206 C 0.57404 0.95612 0.79379 0.0
O207 O 0.57433 0.8931 0.79967 0.0
N208 N 0.52981 0.02427 0.78991 0.0
C209 C 0.51623 0.04105 0.79531 0.0
C210 C 0.51415 0.11879 0.79513 0.0
C211 C 0.53574 0.09119 0.78644 0.0
N212 N 0.52651 0.15017 0.78961 0.0
C213 C 0.52953 0.8664 0.80969 0.0
C214 C 0.54682 0.96488 0.82294 0.0
C215 C 0.53785 0.90745 0.82799 0.0
C216 C 0.52882 0.85895 0.82124 0.0
C217 C 0.54706 0.97068 0.81135 0.0
N218 N 0.53934 0.91854 0.80484 0.0
H219 H 0.52181 0.83144 0.8047 0.0
H220 H 0.55326 0.01811 0.80767 0.0
H221 H 0.5087 -5e-05 0.79944 0.0
H222 H 0.54673 0.09656 0.78184 0.0
O223 O 0.51964 0.88055 0.78532 0.0
O224 O 0.53647 0.92689 0.77279 0.0
O225 O 0.56129 0.97745 0.78894 0.0
C226 C 0.5232 0.89152 0.7749 0.0
H227 H 0.5728 0.70642 0.77395 0.0
H228 H 0.50466 0.14985 0.79919 0.0
H229 H 0.55334 0.00585 0.82791 0.0
H230 H 0.52134 0.81529 0.82484 0.0
Co231 Co 0.20731 0.81993 0.78923 0.0
C232 C 0.20357 0.98835 0.79021 0.0
C233 C 0.18343 0.93379 0.78283 0.0
C234 C 0.18139 0.01114 0.78202 0.0
N235 N 0.19714 0.91919 0.78829 0.0
N236 N 0.1941 0.04532 0.78666 0.0
H237 H 0.21552 -0.00255 0.79313 0.0
H238 H 0.17578 0.89115 0.77916 0.0
C239 C 0.17451 0.79298 0.79722 0.0
O240 O 0.17654 0.85286 0.80365 0.0
N241 N 0.21742 0.72183 0.78971 0.0
C242 C 0.23211 0.70679 0.79358 0.0
C243 C 0.23437 0.6293 0.79346 0.0
C244 C 0.21095 0.65388 0.78721 0.0
N245 N 0.22103 0.59618 0.7895 0.0
C246 C 0.21943 0.88165 0.80975 0.0
C247 C 0.20543 0.77576 0.82361 0.0
C248 C 0.21384 0.83653 0.82835 0.0
C249 C 0.22128 0.88867 0.82125 0.0
C250 C 0.20394 0.77089 0.81206 0.0
N251 N 0.20993 0.82653 0.80532 0.0
H252 H 0.22605 0.91933 0.80447 0.0
H253 H 0.19782 0.72244 0.80856 0.0
H254 H 0.24041 0.74909 0.79659 0.0
H255 H 0.1989 0.64664 0.78425 0.0
O256 O 0.2271 0.86501 0.78486 0.0
O257 O 0.20879 0.82053 0.77318 0.0
O258 O 0.18575 0.77062 0.79083 0.0
C259 C 0.22239 0.85472 0.77465 0.0
H260 H 0.17156 0.03971 0.77798 0.0
H261 H 0.24493 0.59971 0.79623 0.0
H262 H 0.19979 0.73304 0.82876 0.0
H263 H 0.22865 0.93397 0.82454 0.0
Co264 Co 0.45882 0.6863 0.53927 0.0
C265 C 0.4551 0.52038 0.54024 0.0
C266 C 0.43422 0.57358 0.53353 0.0
C267 C 0.43232 0.49579 0.53297 0.0
N268 N 0.44849 0.58862 0.53811 0.0
N269 N 0.44553 0.46254 0.53711 0.0
H270 H 0.46687 0.51344 0.54372 0.0
H271 H 0.42608 0.61594 0.53036 0.0
C272 C 0.43344 0.78734 0.54802 0.0
O273 O 0.44385 0.81004 0.55549 0.0
N274 N 0.46928 0.7853 0.53991 0.0
C275 C 0.48438 0.80279 0.54276 0.0
C276 C 0.48651 0.88021 0.54184 0.0
C277 C 0.46292 0.85193 0.53652 0.0
N278 N 0.47288 0.91112 0.53805 0.0
C279 C 0.47473 0.66833 0.56038 0.0
C280 C 0.44758 0.63927 0.57261 0.0
C281 C 0.46226 0.64207 0.57811 0.0
C282 C 0.476 0.65552 0.57182 0.0
C283 C 0.44689 0.65217 0.56117 0.0
N284 N 0.46024 0.67109 0.5553 0.0
H285 H 0.48548 0.67295 0.5556 0.0
H286 H 0.43554 0.64701 0.55703 0.0
H287 H 0.49352 0.76283 0.54503 0.0
H288 H 0.4512 0.85716 0.53291 0.0
O289 O 0.47854 0.6396 0.53511 0.0
O290 O 0.46093 0.68766 0.52324 0.0
O291 O 0.43736 0.73741 0.54074 0.0
C292 C 0.47425 0.65131 0.52485 0.0
H293 H 0.42234 0.46616 0.52927 0.0
H294 H 0.4972 0.91124 0.54397 0.0
H295 H 0.43667 0.6278 0.57709 0.0
H296 H 0.48767 0.65428 0.57564 0.0
Co297 Co 0.79161 0.56845 0.53907 0.0
C298 C 0.79492 0.73652 0.53977 0.0
C299 C 0.81539 0.68266 0.53272 0.0
C300 C 0.81713 0.75998 0.53162 0.0
N301 N 0.80167 0.66774 0.53816 0.0
N302 N 0.80417 0.79355 0.536 0.0
H303 H 0.78304 0.74506 0.54284 0.0
H304 H 0.82313 0.64023 0.5291 0.0
C305 C 0.82463 0.5404 0.54667 0.0
O306 O 0.82286 0.59975 0.55323 0.0
N307 N 0.78171 0.47023 0.53947 0.0
C308 C 0.76748 0.45232 0.54387 0.0
C309 C 0.7656 0.37459 0.54329 0.0
C310 C 0.78823 0.40419 0.53618 0.0
N311 N 0.77872 0.34459 0.53851 0.0
C312 C 0.78018 0.6292 0.55986 0.0
C313 C 0.79438 0.52176 0.57337 0.0
C314 C 0.78621 0.58254 0.57831 0.0
C315 C 0.77867 0.63549 0.57139 0.0
C316 C 0.79552 0.51759 0.56179 0.0
N317 N 0.78941 0.57388 0.55521 0.0
H318 H 0.77353 0.66768 0.55472 0.0
H319 H 0.80147 0.46919 0.55813 0.0
H320 H 0.75934 0.4926 0.54761 0.0
H321 H 0.79982 0.39986 0.53233 0.0
O322 O 0.77165 0.61329 0.535 0.0
O323 O 0.78975 0.57016 0.52306 0.0
O324 O 0.81322 0.51917 0.54034 0.0
C325 C 0.77615 0.60391 0.52472 0.0
H326 H 0.82663 0.78886 0.52726 0.0
H327 H 0.75568 0.34252 0.54658 0.0
H328 H 0.8001 0.47848 0.57838 0.0
H329 H 0.77148 0.6809 0.57484 0.0
Co330 Co 0.45548 0.55576 0.70013 0.0
C331 C 0.45192 0.7213 0.69886 0.0
C332 C 0.43079 0.66915 0.70534 0.0
C333 C 0.42905 0.74704 0.70589 0.0
N334 N 0.44513 0.65344 0.70092 0.0
N335 N 0.44243 0.77959 0.70191 0.0
H336 H 0.46381 0.72764 0.69555 0.0
H337 H 0.42253 0.62719 0.70847 0.0
C338 C 0.43053 0.453 0.69126 0.0
O339 O 0.44129 0.42923 0.6841 0.0
N340 N 0.46593 0.45681 0.69987 0.0
C341 C 0.48091 0.43811 0.69687 0.0
C342 C 0.48286 0.36069 0.69797 0.0
C343 C 0.4595 0.3911 0.70353 0.0
N344 N 0.46925 0.33113 0.702 0.0
C345 C 0.47198 0.57218 0.67919 0.0
C346 C 0.44504 0.5939 0.66641 0.0
C347 C 0.45983 0.5891 0.66112 0.0
C348 C 0.47349 0.58048 0.66767 0.0
C349 C 0.44412 0.58586 0.67793 0.0
N350 N 0.45736 0.56932 0.68409 0.0
H351 H 0.4826 0.5701 0.68415 0.0
H352 H 0.43267 0.59219 0.6819 0.0
H353 H 0.49006 0.47711 0.69429 0.0
H354 H 0.4478 0.38706 0.70721 0.0
O355 O 0.47507 0.60268 0.70448 0.0
O356 O 0.45709 0.55592 0.71619 0.0
O357 O 0.43408 0.50436 0.69842 0.0
C358 C 0.47049 0.59187 0.71471 0.0
H359 H 0.4191 0.77718 0.70954 0.0
H360 H 0.49336 0.32865 0.6957 0.0
H361 H 0.43427 0.60441 0.6617 0.0
H362 H 0.48521 0.57941 0.66394 0.0
Co363 Co 0.79495 0.67069 0.70047 0.0
C364 C 0.79923 0.50257 0.69954 0.0
C365 C 0.81766 0.5575 0.70884 0.0
C366 C 0.81967 0.48011 0.70974 0.0
N367 N 0.80505 0.57185 0.70219 0.0
N368 N 0.80802 0.44565 0.7039 0.0
H369 H 0.78806 0.49323 0.69539 0.0
H370 H 0.8245 0.60039 0.71317 0.0
C371 C 0.82889 0.6982 0.69459 0.0
O372 O 0.82873 0.63447 0.68885 0.0
N373 N 0.78488 0.76858 0.69914 0.0
C374 C 0.77091 0.78369 0.69414 0.0
C375 C 0.76873 0.8613 0.69399 0.0
C376 C 0.79096 0.83658 0.70207 0.0
N377 N 0.78139 0.89442 0.69895 0.0
C378 C 0.7836 0.60839 0.67983 0.0
C379 C 0.79991 0.70625 0.66596 0.0
C380 C 0.7905 0.64893 0.66123 0.0
C381 C 0.78204 0.60053 0.66833 0.0
C382 C 0.80109 0.71216 0.67753 0.0
N383 N 0.79375 0.66065 0.68433 0.0
H384 H 0.77611 0.57421 0.68508 0.0
H385 H 0.80765 0.7594 0.68096 0.0
H386 H 0.7631 0.74136 0.69055 0.0
H387 H 0.80244 0.84371 0.706 0.0
O388 O 0.77487 0.62582 0.70426 0.0
O389 O 0.79214 0.67335 0.71642 0.0
O390 O 0.81642 0.7211 0.69965 0.0
C391 C 0.77875 0.63826 0.71459 0.0
H392 H 0.8287 0.45168 0.71462 0.0
H393 H 0.75871 0.89097 0.69038 0.0
H394 H 0.80634 0.74626 0.6608 0.0
H395 H 0.77394 0.55819 0.66505 0.0
Co396 Co 0.54099 0.31245 0.45012 0.0
C397 C 0.54485 0.4786 0.44915 0.0
C398 C 0.56562 0.42502 0.45594 0.0
C399 C 0.56757 0.50278 0.45651 0.0
N400 N 0.55137 0.41018 0.45132 0.0
N401 N 0.55444 0.53645 0.45229 0.0
H402 H 0.53296 0.48559 0.44586 0.0
H403 H 0.57377 0.38252 0.45907 0.0
C404 C 0.56651 0.21261 0.44121 0.0
O405 O 0.55618 0.19026 0.43366 0.0
N406 N 0.53041 0.21349 0.44943 0.0
C407 C 0.51502 0.19819 0.4471 0.0
C408 C 0.51254 0.12097 0.44779 0.0
C409 C 0.53666 0.1454 0.45232 0.0
N410 N 0.52624 0.08771 0.45097 0.0
C411 C 0.52511 0.32834 0.42895 0.0
C412 C 0.5522 0.3594 0.41676 0.0
C413 C 0.53759 0.35404 0.41121 0.0
C414 C 0.52387 0.33988 0.41749 0.0
C415 C 0.55286 0.34785 0.42824 0.0
N416 N 0.53957 0.32781 0.4341 0.0
H417 H 0.51436 0.32235 0.43369 0.0
H418 H 0.56417 0.35423 0.4324 0.0
H419 H 0.5059 0.23974 0.44545 0.0
H420 H 0.54867 0.13782 0.45529 0.0
O421 O 0.52132 0.35944 0.4543 0.0
O422 O 0.5389 0.3108 0.46614 0.0
O423 O 0.56244 0.26132 0.44862 0.0
C424 C 0.52559 0.34737 0.46455 0.0
H425 H 0.57775 0.53198 0.45998 0.0
H426 H 0.50142 0.09181 0.44626 0.0
H427 H 0.5631 0.37137 0.4123 0.0
H428 H 0.51223 0.33917 0.41362 0.0
Co429 Co 0.20714 0.43616 0.45019 0.0
C430 C 0.20305 0.26826 0.44897 0.0
C431 C 0.18353 0.32199 0.45721 0.0
C432 C 0.1816 0.24444 0.45798 0.0
N433 N 0.19676 0.33728 0.45125 0.0
N434 N 0.19393 0.2108 0.45277 0.0
H435 H 0.21481 0.25949 0.44566 0.0
H436 H 0.17621 0.36417 0.4613 0.0
C437 C 0.17346 0.46976 0.44433 0.0
O438 O 0.17359 0.40931 0.43787 0.0
N439 N 0.21749 0.53377 0.44958 0.0
C440 C 0.23152 0.54956 0.44472 0.0
C441 C 0.23376 0.62714 0.44492 0.0
C442 C 0.21145 0.60128 0.45279 0.0
N443 N 0.22108 0.65955 0.44994 0.0
C444 C 0.21648 0.37657 0.42885 0.0
C445 C 0.20187 0.48757 0.41618 0.0
C446 C 0.20932 0.4265 0.41083 0.0
C447 C 0.21697 0.37135 0.41727 0.0
C448 C 0.20147 0.48986 0.4278 0.0
N449 N 0.2079 0.43229 0.43399 0.0
H450 H 0.22342 0.33701 0.4336 0.0
H451 H 0.19602 0.53833 0.43181 0.0
H452 H 0.23928 0.50786 0.44091 0.0
H453 H 0.19992 0.60791 0.45663 0.0
O454 O 0.22719 0.38865 0.45339 0.0
O455 O 0.21024 0.43267 0.46608 0.0
O456 O 0.18581 0.48835 0.4499 0.0
C457 C 0.22351 0.3975 0.46385 0.0
H458 H 0.17217 0.21534 0.46238 0.0
H459 H 0.24379 0.6573 0.44141 0.0
H460 H 0.1962 0.53242 0.41145 0.0
H461 H 0.22352 0.32536 0.41338 0.0
Co462 Co 0.54174 0.42892 0.28893 0.0
C463 C 0.54564 0.26276 0.28999 0.0
C464 C 0.56642 0.31631 0.28321 0.0
C465 C 0.56837 0.23854 0.28265 0.0
N466 N 0.55217 0.33119 0.28782 0.0
N467 N 0.55523 0.20487 0.28685 0.0
H468 H 0.53374 0.25579 0.29325 0.0
H469 H 0.57456 0.35879 0.28008 0.0
C470 C 0.56708 0.52979 0.29778 0.0
O471 O 0.55662 0.55193 0.30526 0.0
N472 N 0.53109 0.52784 0.28952 0.0
C473 C 0.51571 0.54311 0.29186 0.0
C474 C 0.5132 0.62031 0.29113 0.0
C475 C 0.5373 0.59591 0.28657 0.0
N476 N 0.52687 0.6536 0.28792 0.0
C477 C 0.52604 0.41511 0.31023 0.0
C478 C 0.55332 0.38668 0.32236 0.0
C479 C 0.53884 0.39449 0.32798 0.0
C480 C 0.52499 0.40659 0.32176 0.0
C481 C 0.55378 0.395 0.31082 0.0
N482 N 0.54042 0.4144 0.30498 0.0
H483 H 0.51522 0.4207 0.30555 0.0
H484 H 0.56501 0.38726 0.30659 0.0
H485 H 0.50661 0.50153 0.29356 0.0
H486 H 0.5493 0.60349 0.28357 0.0
O487 O 0.52207 0.3815 0.28486 0.0
O488 O 0.53955 0.42971 0.27291 0.0
O489 O 0.56317 0.48062 0.29038 0.0
C490 C 0.52626 0.39319 0.27458 0.0
H491 H 0.57855 0.20932 0.27917 0.0
H492 H 0.50208 0.64942 0.29268 0.0
H493 H 0.5642 0.37397 0.32683 0.0
H494 H 0.51348 0.41049 0.32577 0.0
Co495 Co 0.20519 0.325 0.28924 0.0
C496 C 0.20145 0.49088 0.28963 0.0
C497 C 0.18107 0.437 0.28227 0.0
C498 C 0.17923 0.51478 0.28152 0.0
N499 N 0.19499 0.42243 0.28738 0.0
N500 N 0.19213 0.54849 0.28607 0.0
H501 H 0.21293 0.49805 0.29355 0.0
H502 H 0.17313 0.39426 0.27894 0.0
C503 C 0.17982 0.2232 0.29761 0.0
O504 O 0.19009 0.20184 0.30525 0.0
N505 N 0.21554 0.22621 0.29064 0.0
C506 C 0.22976 0.20785 0.29513 0.0
C507 C 0.23191 0.13037 0.29431 0.0
C508 C 0.20979 0.15995 0.28658 0.0
N509 N 0.21922 0.10022 0.28906 0.0
C510 C 0.2202 0.35502 0.31035 0.0
C511 C 0.19239 0.37422 0.32229 0.0
C512 C 0.20695 0.37751 0.32788 0.0
C513 C 0.22101 0.37016 0.32176 0.0
C514 C 0.19216 0.36026 0.31086 0.0
N515 N 0.20589 0.34479 0.30519 0.0
H516 H 0.23109 0.3538 0.30566 0.0
H517 H 0.18087 0.36191 0.30658 0.0
H518 H 0.23824 0.24694 0.29863 0.0
H519 H 0.19876 0.15542 0.282 0.0
O520 O 0.22512 0.37027 0.28525 0.0
O521 O 0.20801 0.31898 0.27329 0.0
O522 O 0.18371 0.2738 0.29045 0.0
C523 C 0.22132 0.35523 0.27498 0.0
H524 H 0.16951 0.54403 0.27745 0.0
H525 H 0.24189 0.09864 0.2976 0.0
H526 H 0.18129 0.38329 0.32669 0.0
H527 H 0.23252 0.37528 0.32575 0.0
Co528 Co 0.95529 0.17536 0.53897 0.0
C529 C 0.95141 0.00976 0.53991 0.0
C530 C 0.93109 0.0625 0.53234 0.0
C531 C 0.92927 0.98458 0.53179 0.0
N532 N 0.94498 0.07784 0.53743 0.0
N533 N 0.94211 0.95154 0.53652 0.0
H534 H 0.96306 0.00328 0.54361 0.0
H535 H 0.92314 0.10475 0.52891 0.0
C536 C 0.93017 0.27676 0.54787 0.0
O537 O 0.94071 0.29825 0.55534 0.0
N538 N 0.96583 0.27408 0.54006 0.0
C539 C 0.98067 0.29061 0.5436 0.0
C540 C 0.98303 0.36793 0.54291 0.0
C541 C 0.95987 0.34136 0.53654 0.0
N542 N 0.96985 0.39993 0.53858 0.0
C543 C 0.97099 0.14978 0.56001 0.0
C544 C 0.94352 0.12816 0.57223 0.0
C545 C 0.95819 0.12792 0.57771 0.0
C546 C 0.9721 0.1364 0.57145 0.0
C547 C 0.94301 0.1404 0.56078 0.0
N548 N 0.95654 0.15704 0.55494 0.0
H549 H 0.98178 0.152 0.55523 0.0
H550 H 0.93166 0.13692 0.55661 0.0
H551 H 0.98951 0.2501 0.5462 0.0
H552 H 0.94825 0.34767 0.53281 0.0
O553 O 0.97501 0.12929 0.53469 0.0
O554 O 0.95751 0.17987 0.52296 0.0
O555 O 0.93387 0.22678 0.54054 0.0
C556 C 0.97084 0.1434 0.52447 0.0
H557 H 0.91939 0.95479 0.52801 0.0
H558 H 0.99371 0.39806 0.54532 0.0
H559 H 0.93256 0.11821 0.57675 0.0
H560 H 0.98369 0.13355 0.57536 0.0
Co561 Co 0.29406 0.06898 0.53781 0.0
C562 C 0.29787 0.2374 0.53877 0.0
C563 C 0.31768 0.18268 0.53099 0.0
C564 C 0.31974 0.26002 0.53017 0.0
N565 N 0.30417 0.1682 0.53668 0.0
N566 N 0.30724 0.29429 0.53507 0.0
H567 H 0.28607 0.24663 0.54197 0.0
H568 H 0.32518 0.13994 0.52719 0.0
C569 C 0.32704 0.04311 0.54556 0.0
O570 O 0.32509 0.10354 0.55189 0.0
N571 N 0.28403 0.97083 0.53849 0.0
C572 C 0.26943 0.95576 0.54254 0.0
C573 C 0.26722 0.87825 0.5425 0.0
C574 C 0.29047 0.90289 0.53597 0.0
N575 N 0.28048 0.84517 0.53841 0.0
C576 C 0.28171 0.13079 0.55821 0.0
C577 C 0.29603 0.02738 0.57231 0.0
C578 C 0.28707 0.08691 0.5769 0.0
C579 C 0.27954 0.13787 0.56967 0.0
C580 C 0.29781 0.02231 0.56077 0.0
N581 N 0.29159 0.0767 0.55391 0.0
H582 H 0.27494 0.16731 0.55284 0.0
H583 H 0.30421 0.97433 0.55738 0.0
H584 H 0.26118 -0.00193 0.5456 0.0
H585 H 0.30245 0.89569 0.53287 0.0
O586 O 0.27421 0.11346 0.53352 0.0
O587 O 0.29234 0.06873 0.52174 0.0
O588 O 0.31568 0.01997 0.53934 0.0
C589 C 0.27873 0.10276 0.52328 0.0
H590 H 0.32944 0.28853 0.52598 0.0
H591 H 0.25673 0.84861 0.54539 0.0
H592 H 0.30176 0.98549 0.57756 0.0
H593 H 0.27175 0.18204 0.57282 0.0
Co594 Co 0.9587 0.06441 0.69987 0.0
C595 C 0.95464 0.23262 0.69892 0.0
C596 C 0.93482 0.17819 0.70668 0.0
C597 C 0.93283 0.25565 0.70756 0.0
N598 N 0.94828 0.16335 0.70092 0.0
N599 N 0.94535 0.28979 0.70267 0.0
H600 H 0.96652 0.24165 0.69586 0.0
H601 H 0.92736 0.13574 0.71055 0.0
C602 C 0.92521 0.03091 0.69354 0.0
O603 O 0.92558 0.0912 0.68709 0.0
N604 N 0.9691 0.96675 0.69929 0.0
C605 C 0.98335 0.95156 0.6947 0.0
C606 C 0.98567 0.87404 0.69478 0.0
C607 C 0.96299 0.89881 0.70221 0.0
N608 N 0.9728 0.84093 0.69946 0.0
C609 C 0.96832 0.12488 0.67866 0.0
C610 C 0.95444 0.01246 0.6658 0.0
C611 C 0.96187 0.07382 0.66054 0.0
C612 C 0.96914 0.12979 0.66709 0.0
C613 C 0.95371 0.01048 0.67741 0.0
N614 N 0.95982 0.06855 0.68369 0.0
H615 H 0.97496 0.1652 0.68351 0.0
H616 H 0.94825 0.96184 0.68134 0.0
H617 H 0.99123 0.99368 0.69115 0.0
H618 H 0.9513 0.89164 0.7058 0.0
O619 O 0.97867 0.11195 0.70335 0.0
O620 O 0.96144 0.06757 0.71579 0.0
O621 O 0.93739 0.01225 0.69929 0.0
C622 C 0.97475 0.10288 0.71375 0.0
H623 H 0.92321 0.28431 0.71183 0.0
H624 H 0.9959 0.84442 0.69145 0.0
H625 H 0.94903 0.96712 0.661 0.0
H626 H 0.97563 0.1762 0.66328 0.0
Co627 Co 0.29065 0.17512 0.69887 0.0
C628 C 0.29422 0.00673 0.69815 0.0
C629 C 0.31432 0.06146 0.70556 0.0
C630 C 0.31626 0.9842 0.70657 0.0
N631 N 0.30072 0.07585 0.69995 0.0
N632 N 0.30354 0.95 0.70196 0.0
H633 H 0.28249 -0.00241 0.69483 0.0
H634 H 0.32189 0.10423 0.70928 0.0
C635 C 0.32368 0.20157 0.69122 0.0
O636 O 0.32182 0.14166 0.68477 0.0
N637 N 0.28073 0.27339 0.69828 0.0
C638 C 0.26636 0.29027 0.69401 0.0
C639 C 0.26432 0.36792 0.69446 0.0
C640 C 0.2872 0.34012 0.70134 0.0
N641 N 0.27748 0.39905 0.69901 0.0
C642 C 0.27866 0.11346 0.67832 0.0
C643 C 0.29305 0.218 0.66444 0.0
C644 C 0.28444 0.15784 0.65972 0.0
C645 C 0.27682 0.10636 0.66683 0.0
C646 C 0.29451 0.22305 0.676 0.0
N647 N 0.28828 0.16807 0.68276 0.0
H648 H 0.2719 0.07636 0.68361 0.0
H649 H 0.30072 0.27125 0.6795 0.0
H650 H 0.25818 0.24925 0.69048 0.0
H651 H 0.29886 0.34538 0.70505 0.0
O652 O 0.27073 0.13067 0.70311 0.0
O653 O 0.28892 0.17496 0.71489 0.0
O654 O 0.31226 0.22407 0.69744 0.0
C655 C 0.27531 0.141 0.71335 0.0
H656 H 0.32575 0.95568 0.711 0.0
H657 H 0.25422 0.39912 0.69125 0.0
H658 H 0.29884 0.26024 0.65929 0.0
H659 H 0.26929 0.06162 0.66355 0.0
Co660 Co 0.04221 0.82658 0.44957 0.0
C661 C 0.04639 0.9943 0.44856 0.0
C662 C 0.06467 0.94025 0.4581 0.0
C663 C 0.0665 0.0177 0.45907 0.0
N664 N 0.05229 0.92535 0.45127 0.0
N665 N 0.0549 0.05148 0.45313 0.0
H666 H 0.03557 0.00313 0.44397 0.0
H667 H 0.07135 0.89771 0.46261 0.0
C668 C 0.0764 0.79788 0.44433 0.0
O669 O 0.0766 0.86123 0.43853 0.0
N670 N 0.0322 0.72868 0.4483 0.0
C671 C 0.01853 0.71204 0.44299 0.0
C672 C 0.01647 0.63431 0.44314 0.0
C673 C 0.0382 0.66168 0.45168 0.0
N674 N 0.02892 0.60279 0.44855 0.0
C675 C 0.03136 0.88632 0.42866 0.0
C676 C 0.04868 0.78921 0.41522 0.0
C677 C 0.03934 0.84571 0.41027 0.0
C678 C 0.03031 0.89353 0.41712 0.0
C679 C 0.04924 0.78353 0.4268 0.0
N680 N 0.04147 0.83497 0.4334 0.0
H681 H 0.02364 0.92073 0.43373 0.0
H682 H 0.05567 0.73654 0.4304 0.0
H683 H 0.01092 0.75326 0.43896 0.0
H684 H 0.04926 0.65621 0.4562 0.0
O685 O 0.02202 0.87207 0.45306 0.0
O686 O 0.03902 0.8255 0.46547 0.0
O687 O 0.06368 0.77584 0.44915 0.0
C688 C 0.02569 0.86069 0.46345 0.0
H689 H 0.07502 0.04672 0.46434 0.0
H690 H 0.00691 0.60335 0.43915 0.0
H691 H 0.05523 0.74877 0.41017 0.0
H692 H 0.02256 0.93643 0.4136 0.0
Co693 Co 0.70521 0.92499 0.45006 0.0
C694 C 0.70147 0.7569 0.44876 0.0
C695 C 0.68155 0.81064 0.45657 0.0
C696 C 0.67954 0.73319 0.45723 0.0
N697 N 0.69511 0.82576 0.45096 0.0
N698 N 0.69211 0.69959 0.45231 0.0
H699 H 0.7133 0.7481 0.44561 0.0
H700 H 0.674 0.85297 0.46041 0.0
C701 C 0.67233 0.95108 0.44209 0.0
O702 O 0.67437 0.89101 0.4357 0.0
N703 N 0.71522 0.02313 0.4496 0.0
C704 C 0.72982 0.03887 0.44561 0.0
C705 C 0.73197 0.11643 0.44584 0.0
C706 C 0.70873 0.09059 0.45229 0.0
N707 N 0.71867 0.14873 0.45001 0.0
C708 C 0.71792 0.86454 0.42966 0.0
C709 C 0.70348 0.96775 0.41559 0.0
C710 C 0.7124 0.9082 0.41098 0.0
C711 C 0.72005 0.85748 0.41819 0.0
C712 C 0.70174 0.97278 0.42713 0.0
N713 N 0.70796 0.91825 0.43398 0.0
H714 H 0.72473 0.82815 0.43503 0.0
H715 H 0.69532 0.02063 0.43054 0.0
H716 H 0.73811 0.99704 0.44245 0.0
H717 H 0.69673 0.0972 0.45539 0.0
O718 O 0.725 0.88029 0.4545 0.0
O719 O 0.70662 0.92448 0.46612 0.0
O720 O 0.68361 0.97396 0.44841 0.0
C721 C 0.72026 0.89058 0.4647 0.0
H722 H 0.66984 0.7041 0.46134 0.0
H723 H 0.74241 0.14666 0.443 0.0
H724 H 0.69768 0.00953 0.41036 0.0
H725 H 0.72782 0.81336 0.41502 0.0
Co726 Co 0.04251 0.92041 0.28825 0.0
C727 C 0.04613 0.75228 0.28953 0.0
C728 C 0.06653 0.80604 0.28241 0.0
C729 C 0.06849 0.72867 0.28159 0.0
N730 N 0.05273 0.8212 0.28772 0.0
N731 N 0.05558 0.69506 0.28602 0.0
H732 H 0.03423 0.74364 0.29257 0.0
H733 H 0.07421 0.84823 0.27869 0.0
C734 C 0.07531 0.95001 0.29612 0.0
O735 O 0.07335 0.89147 0.30279 0.0
N736 N 0.0324 0.01845 0.28829 0.0
C737 C 0.01784 0.03537 0.29224 0.0
C738 C 0.01578 0.11296 0.29171 0.0
C739 C 0.03896 0.08518 0.28534 0.0
N740 N 0.02912 0.14411 0.28744 0.0
C741 C 0.0308 0.86284 0.30916 0.0
C742 C 0.04486 0.97265 0.32239 0.0
C743 C 0.03677 0.91244 0.32747 0.0
C744 C 0.02923 0.85839 0.32072 0.0
C745 C 0.04597 0.97524 0.31081 0.0
N746 N 0.04 0.91765 0.30438 0.0
H747 H 0.02432 0.82299 0.30411 0.0
H748 H 0.05183 0.02337 0.30703 0.0
H749 H 0.00958 0.99448 0.29567 0.0
H750 H 0.05081 0.09054 0.28194 0.0
O751 O 0.02271 0.87404 0.28411 0.0
O752 O 0.04096 0.916 0.27223 0.0
O753 O 0.06406 0.97048 0.28961 0.0
C754 C 0.02741 0.88178 0.27385 0.0
H755 H 0.07811 0.69963 0.27737 0.0
H756 H 0.00556 0.14418 0.29473 0.0
H757 H 0.05024 0.01743 0.32733 0.0
H758 H 0.02242 0.81229 0.32432 0.0
Co759 Co 0.70622 0.81635 0.28904 0.0
C760 C 0.70236 0.98474 0.28997 0.0
C761 C 0.68264 0.93003 0.28207 0.0
C762 C 0.6806 0.00738 0.28123 0.0
N763 N 0.69609 0.91553 0.28785 0.0
N764 N 0.69305 0.04166 0.2862 0.0
H765 H 0.71412 0.99395 0.29324 0.0
H766 H 0.6752 0.8873 0.27822 0.0
C767 C 0.67308 0.78961 0.29645 0.0
O768 O 0.67479 0.84998 0.30282 0.0
N769 N 0.71628 0.71825 0.28979 0.0
C770 C 0.7308 0.70317 0.29396 0.0
C771 C 0.73302 0.62565 0.29393 0.0
C772 C 0.70989 0.6503 0.28719 0.0
N773 N 0.71984 0.59256 0.28971 0.0
C774 C 0.71815 0.87826 0.30955 0.0
C775 C 0.70353 0.77497 0.32352 0.0
C776 C 0.71232 0.83477 0.32819 0.0
C777 C 0.72002 0.88563 0.32104 0.0
C778 C 0.70204 0.76963 0.31196 0.0
N779 N 0.7084 0.82401 0.30515 0.0
H780 H 0.72502 0.91477 0.30425 0.0
H781 H 0.69576 0.72153 0.30851 0.0
H782 H 0.73899 0.74548 0.29711 0.0
H783 H 0.69797 0.6431 0.28397 0.0
O784 O 0.72613 0.86116 0.28491 0.0
O785 O 0.70819 0.81616 0.27301 0.0
O786 O 0.68462 0.76698 0.29034 0.0
C787 C 0.72174 0.85043 0.27464 0.0
H788 H 0.67096 0.0359 0.27696 0.0
H789 H 0.74346 0.59601 0.29692 0.0
H790 H 0.69769 0.73314 0.32871 0.0
H791 H 0.72769 0.93 0.32427 0.0
Co792 Co 0.95708 0.68223 0.03868 0.0
C793 C 0.95312 0.51663 0.0398 0.0
C794 C 0.93275 0.56936 0.0323 0.0
C795 C 0.93091 0.49144 0.03177 0.0
N796 N 0.94669 0.58475 0.03733 0.0
N797 N 0.94378 0.45838 0.03645 0.0
H798 H 0.96482 0.5101 0.04342 0.0
H799 H 0.92479 0.61158 0.02887 0.0
C800 C 0.93199 0.78583 0.04722 0.0
O801 O 0.94248 0.80894 0.05462 0.0
N802 N 0.96769 0.78076 0.03963 0.0
C803 C 0.98224 0.79753 0.04369 0.0
C804 C 0.98463 0.87481 0.043 0.0
C805 C 0.96194 0.84787 0.03588 0.0
N806 N 0.97174 0.90665 0.03823 0.0
C807 C 0.97297 0.65368 0.05951 0.0
C808 C 0.94576 0.64138 0.07223 0.0
C809 C 0.96058 0.63656 0.07757 0.0
C810 C 0.97431 0.64022 0.07093 0.0
C811 C 0.94502 0.65235 0.06076 0.0
N812 N 0.95849 0.66495 0.05468 0.0
H813 H 0.98361 0.6523 0.05454 0.0
H814 H 0.9335 0.65119 0.05679 0.0
H815 H 0.9908 0.75729 0.0468 0.0
H816 H 0.95049 0.85395 0.03189 0.0
O817 O 0.97674 0.63563 0.03437 0.0
O818 O 0.95917 0.68565 0.02265 0.0
O819 O 0.93571 0.73409 0.04017 0.0
C820 C 0.97248 0.64904 0.02415 0.0
H821 H 0.921 0.46165 0.02802 0.0
H822 H 0.99509 0.90507 0.04583 0.0
H823 H 0.93471 0.63764 0.0768 0.0
H824 H 0.98603 0.63165 0.07445 0.0
Co825 Co 0.29247 0.57239 0.03911 0.0
C826 C 0.29574 0.7405 0.03984 0.0
C827 C 0.31634 0.68657 0.033 0.0
C828 C 0.31812 0.76388 0.03192 0.0
N829 N 0.3025 0.67172 0.03829 0.0
N830 N 0.30507 0.79747 0.03616 0.0
H831 H 0.28381 0.74911 0.04281 0.0
H832 H 0.32416 0.64408 0.02948 0.0
C833 C 0.32521 0.54592 0.04736 0.0
O834 O 0.32307 0.60546 0.05384 0.0
N835 N 0.28262 0.47409 0.03943 0.0
C836 C 0.26822 0.45624 0.04357 0.0
C837 C 0.26636 0.37852 0.04297 0.0
C838 C 0.28927 0.40802 0.03629 0.0
N839 N 0.27967 0.34847 0.03846 0.0
C840 C 0.27982 0.63347 0.05949 0.0
C841 C 0.29375 0.5286 0.07355 0.0
C842 C 0.28505 0.58888 0.07816 0.0
C843 C 0.27764 0.64044 0.07095 0.0
C844 C 0.29552 0.52362 0.06201 0.0
N845 N 0.28954 0.5788 0.05518 0.0
H846 H 0.27325 0.67082 0.05411 0.0
H847 H 0.30183 0.47544 0.05859 0.0
H848 H 0.25993 0.49659 0.04711 0.0
H849 H 0.301 0.40367 0.03266 0.0
O850 O 0.27268 0.61659 0.0346 0.0
O851 O 0.29127 0.57332 0.02305 0.0
O852 O 0.31406 0.52372 0.04088 0.0
C853 C 0.2776 0.607 0.02442 0.0
H854 H 0.32772 0.79274 0.02766 0.0
H855 H 0.25631 0.3465 0.04607 0.0
H856 H 0.29939 0.4863 0.07877 0.0
H857 H 0.27005 0.68528 0.07412 0.0
Co858 Co 0.95717 0.55188 0.1997 0.0
C859 C 0.95348 0.71741 0.19892 0.0
C860 C 0.93289 0.66477 0.20612 0.0
C861 C 0.93121 0.7427 0.20686 0.0
N862 N 0.94685 0.64937 0.20113 0.0
N863 N 0.94426 0.77561 0.20242 0.0
H864 H 0.96508 0.72386 0.19514 0.0
H865 H 0.92486 0.62255 0.20947 0.0
C866 C 0.93219 0.44668 0.19154 0.0
O867 O 0.94271 0.4232 0.18418 0.0
N868 N 0.96764 0.45331 0.1987 0.0
C869 C 0.98133 0.43329 0.19361 0.0
C870 C 0.98336 0.35585 0.1946 0.0
C871 C 0.96207 0.38824 0.20321 0.0
N872 N 0.97108 0.32748 0.2005 0.0
C873 C 0.97268 0.5826 0.17881 0.0
C874 C 0.94527 0.59206 0.16623 0.0
C875 C 0.96 0.59921 0.16084 0.0
C876 C 0.97382 0.5968 0.16739 0.0
C877 C 0.94471 0.58033 0.17769 0.0
N878 N 0.95831 0.56922 0.1837 0.0
H879 H 0.98337 0.58475 0.18374 0.0
H880 H 0.93323 0.58016 0.18171 0.0
H881 H 0.98938 0.47099 0.18937 0.0
H882 H 0.95127 0.38515 0.20809 0.0
O883 O 0.97695 0.59811 0.20388 0.0
O884 O 0.95952 0.54843 0.21571 0.0
O885 O 0.93577 0.4999 0.19839 0.0
C886 C 0.97284 0.58479 0.21413 0.0
H887 H 0.92155 0.77254 0.21091 0.0
H888 H 0.9928 0.32272 0.19084 0.0
H889 H 0.93415 0.59476 0.16171 0.0
H890 H 0.98544 0.60699 0.16383 0.0
Co891 Co 0.29408 0.66669 0.20023 0.0
C892 C 0.29791 0.49832 0.19922 0.0
C893 C 0.31783 0.55302 0.20688 0.0
C894 C 0.31991 0.47566 0.20768 0.0
N895 N 0.30424 0.56751 0.20128 0.0
N896 N 0.30733 0.44139 0.20286 0.0
H897 H 0.28607 0.4891 0.19611 0.0
H898 H 0.32538 0.59574 0.21063 0.0
C899 C 0.327 0.69335 0.19234 0.0
O900 O 0.32508 0.63296 0.186 0.0
N901 N 0.284 0.76481 0.19961 0.0
C902 C 0.26937 0.77988 0.19563 0.0
C903 C 0.26715 0.85741 0.19568 0.0
C904 C 0.29046 0.83276 0.20211 0.0
N905 N 0.28045 0.8905 0.19972 0.0
C906 C 0.28154 0.60489 0.17988 0.0
C907 C 0.29576 0.70809 0.16571 0.0
C908 C 0.2868 0.64843 0.16117 0.0
C909 C 0.27929 0.59764 0.16843 0.0
C910 C 0.29761 0.71338 0.17725 0.0
N911 N 0.29145 0.65903 0.18414 0.0
H912 H 0.27482 0.56841 0.18529 0.0
H913 H 0.30402 0.76143 0.18061 0.0
H914 H 0.26109 0.73758 0.1926 0.0
H915 H 0.30247 0.83996 0.20516 0.0
O916 O 0.27428 0.62189 0.20461 0.0
O917 O 0.2925 0.66681 0.2163 0.0
O918 O 0.31565 0.71602 0.19862 0.0
C919 C 0.27891 0.63257 0.21482 0.0
H920 H 0.32966 0.44714 0.21181 0.0
H921 H 0.25664 0.88705 0.19283 0.0
H922 H 0.30147 0.74987 0.16044 0.0
H923 H 0.2715 0.55339 0.16532 0.0
Co924 Co 0.042 0.31914 0.94965 0.0
C925 C 0.04642 0.48668 0.94805 0.0
C926 C 0.06468 0.43344 0.9577 0.0
C927 C 0.06664 0.51093 0.95839 0.0
N928 N 0.0522 0.41793 0.95099 0.0
N929 N 0.05509 0.54433 0.95234 0.0
H930 H 0.03532 0.49515 0.94377 0.0
H931 H 0.0714 0.39134 0.96227 0.0
C932 C 0.07601 0.28983 0.94411 0.0
O933 O 0.07594 0.35231 0.93811 0.0
N934 N 0.03183 0.22135 0.9487 0.0
C935 C 0.01788 0.20554 0.9437 0.0
C936 C 0.01574 0.1279 0.9437 0.0
C937 C 0.03791 0.1538 0.95179 0.0
N938 N 0.02839 0.09554 0.94876 0.0
C939 C 0.03083 0.37618 0.92866 0.0
C940 C 0.04763 0.27598 0.91538 0.0
C941 C 0.03816 0.33156 0.91028 0.0
C942 C 0.0294 0.38095 0.91711 0.0
C943 C 0.0485 0.27255 0.92697 0.0
N944 N 0.04098 0.3254 0.93347 0.0
H945 H 0.02327 0.41162 0.9337 0.0
H946 H 0.05503 0.22622 0.93066 0.0
H947 H 0.01011 0.24734 0.93996 0.0
H948 H 0.0494 0.14719 0.95572 0.0
O949 O 0.02193 0.36557 0.95319 0.0
O950 O 0.03909 0.32011 0.96557 0.0
O951 O 0.06345 0.2681 0.94917 0.0
C952 C 0.02578 0.35539 0.96358 0.0
H953 H 0.07553 0.5402 0.96331 0.0
H954 H 0.00579 0.09765 0.94008 0.0
H955 H 0.05437 0.23539 0.91051 0.0
H956 H 0.02122 0.42194 0.91359 0.0
Co957 Co 0.70579 0.42187 0.94932 0.0
C958 C 0.70141 0.25411 0.94821 0.0
C959 C 0.68347 0.30819 0.95807 0.0
C960 C 0.68152 0.23069 0.95888 0.0
N961 N 0.69572 0.32312 0.95114 0.0
N962 N 0.69285 0.19683 0.95268 0.0
H963 H 0.71236 0.24515 0.94378 0.0
H964 H 0.67685 0.35072 0.96265 0.0
C965 C 0.67155 0.45063 0.9443 0.0
O966 O 0.67124 0.38694 0.93855 0.0
N967 N 0.71582 0.51968 0.9479 0.0
C968 C 0.72941 0.53553 0.94245 0.0
C969 C 0.73153 0.61322 0.94243 0.0
C970 C 0.70994 0.58719 0.95122 0.0
N971 N 0.71923 0.64552 0.94792 0.0
C972 C 0.71613 0.36037 0.92837 0.0
C973 C 0.69875 0.45728 0.91499 0.0
C974 C 0.70774 0.39944 0.91 0.0
C975 C 0.7168 0.35172 0.91683 0.0
C976 C 0.69846 0.46388 0.92657 0.0
N977 N 0.70625 0.41255 0.93315 0.0
H978 H 0.72401 0.32656 0.93338 0.0
H979 H 0.69214 0.51127 0.93019 0.0
H980 H 0.73697 0.49373 0.93848 0.0
H981 H 0.69875 0.59365 0.95555 0.0
O982 O 0.72603 0.37652 0.95267 0.0
O983 O 0.70924 0.42394 0.96518 0.0
O984 O 0.68435 0.47273 0.94903 0.0
C985 C 0.72254 0.38879 0.96308 0.0
H986 H 0.67277 0.20174 0.96395 0.0
H987 H 0.74123 0.64352 0.93852 0.0
H988 H 0.69192 0.49691 0.91001 0.0
H989 H 0.72463 0.30911 0.9133 0.0
Co990 Co 0.04332 0.43286 0.78858 0.0
C991 C 0.0467 0.26725 0.78952 0.0
C992 C 0.06778 0.3195 0.78295 0.0
C993 C 0.06951 0.24166 0.78236 0.0
N994 N 0.05348 0.33505 0.78747 0.0
N995 N 0.05618 0.20916 0.7864 0.0
H996 H 0.03487 0.26081 0.79293 0.0
H997 H 0.07603 0.36155 0.77984 0.0
C998 C 0.06888 0.53025 0.79793 0.0
O999 O 0.05844 0.5527 0.8054 0.0
N1000 N 0.03305 0.53214 0.78911 0.0
C1001 C 0.01765 0.54983 0.79101 0.0
C1002 C 0.01572 0.62735 0.79007 0.0
C1003 C 0.03985 0.59864 0.78618 0.0
N1004 N 0.0298 0.65793 0.78717 0.0
C1005 C 0.02697 0.42142 0.80965 0.0
C1006 C 0.0534 0.38085 0.82198 0.0
C1007 C 0.03881 0.39048 0.82739 0.0
C1008 C 0.02544 0.41006 0.8211 0.0
C1009 C 0.05444 0.39397 0.81055 0.0
N1010 N 0.04148 0.41763 0.8046 0.0
H1011 H 0.01639 0.43081 0.80486 0.0
H1012 H 0.06576 0.38549 0.80647 0.0
H1013 H 0.00819 0.50979 0.79253 0.0
H1014 H 0.05186 0.60364 0.7831 0.0
O1015 O 0.02362 0.38729 0.7842 0.0
O1016 O 0.04159 0.43469 0.77253 0.0
O1017 O 0.06485 0.48239 0.79039 0.0
C1018 C 0.02812 0.39925 0.77399 0.0
H1019 H 0.07944 0.2115 0.77869 0.0
H1020 H 0.00482 0.65854 0.7915 0.0
H1021 H 0.06396 0.36442 0.82656 0.0
H1022 H 0.01383 0.41481 0.82495 0.0
Co1023 Co 0.70451 0.31767 0.78759 0.0
C1024 C 0.70074 0.4853 0.78833 0.0
C1025 C 0.68176 0.43145 0.77947 0.0
C1026 C 0.68014 0.50891 0.77834 0.0
N1027 N 0.69446 0.4165 0.786 0.0
N1028 N 0.69219 0.54247 0.78386 0.0
H1029 H 0.7119 0.49389 0.79252 0.0
H1030 H 0.67472 0.38891 0.77521 0.0
C1031 C 0.67047 0.28841 0.79317 0.0
O1032 O 0.67039 0.35136 0.79909 0.0
N1033 N 0.71448 0.21976 0.78872 0.0
C1034 C 0.72801 0.20212 0.79413 0.0
C1035 C 0.72994 0.1243 0.7938 0.0
C1036 C 0.70846 0.15343 0.78509 0.0
N1037 N 0.71755 0.0939 0.78817 0.0
C1038 C 0.71512 0.37882 0.8085 0.0
C1039 C 0.69843 0.27957 0.82195 0.0
C1040 C 0.70727 0.33806 0.82691 0.0
C1041 C 0.716 0.38693 0.82004 0.0
C1042 C 0.69793 0.27352 0.81036 0.0
N1043 N 0.70536 0.32594 0.80376 0.0
H1044 H 0.72275 0.41362 0.80345 0.0
H1045 H 0.6917 0.22587 0.80674 0.0
H1046 H 0.73558 0.24265 0.79836 0.0
H1047 H 0.69748 0.14891 0.78044 0.0
O1048 O 0.7247 0.36284 0.78409 0.0
O1049 O 0.70759 0.3168 0.77168 0.0
O1050 O 0.68305 0.26706 0.78809 0.0
C1051 C 0.72095 0.35168 0.77369 0.0
H1052 H 0.67144 0.53794 0.77324 0.0
H1053 H 0.73933 0.09249 0.79783 0.0
H1054 H 0.69186 0.23912 0.82694 0.0
H1055 H 0.72371 0.43013 0.82354 0.0
H1056 H 0.44072 0.22329 0.09273 0.0
H1057 H 0.47936 0.0245 0.14602 0.0
H1058 H 0.48061 0.06948 0.09073 0.0
H1059 H 0.4449 0.20611 0.14796 0.0
H1060 H 0.47991 0.03875 0.12577 0.0
H1061 H 0.44168 0.21501 0.11303 0.0
C1062 C 0.44965 0.18754 0.09659 0.0
C1063 C 0.46055 0.1467 0.09007 0.0
C1064 C 0.47228 0.07567 0.13064 0.0
C1065 C 0.46181 0.13733 0.11327 0.0
C1066 C 0.47202 0.06785 0.1422 0.0
C1067 C 0.462 0.11394 0.1487 0.0
C1068 C 0.46241 0.1297 0.12554 0.0
C1069 C 0.45258 0.1684 0.14328 0.0
C1070 C 0.45026 0.18323 0.10817 0.0
C1071 C 0.47205 0.10223 0.09547 0.0
N1072 N 0.45297 0.17454 0.13201 0.0
N1073 N 0.47233 0.09839 0.10678 0.0
H1074 H 0.78746 0.22698 0.08945 0.0
H1075 H 0.78639 0.02067 0.14863 0.0
H1076 H 0.78317 0.98383 0.09345 0.0
H1077 H 0.78339 0.26425 0.1446 0.0
H1078 H 0.78532 0.00597 0.12842 0.0
H1079 H 0.78608 0.24186 0.10964 0.0
C1080 C 0.78608 0.17673 0.09457 0.0
C1081 C 0.78546 0.104 0.08975 0.0
C1082 C 0.78483 0.06263 0.13196 0.0
C1083 C 0.78413 0.12061 0.11289 0.0
C1084 C 0.78536 0.07108 0.1435 0.0
C1085 C 0.78501 0.14385 0.14832 0.0
C1086 C 0.78403 0.12741 0.12517 0.0
C1087 C 0.78395 0.20714 0.14125 0.0
C1088 C 0.78537 0.18527 0.1061 0.0
C1089 C 0.78394 0.04087 0.09681 0.0
N1090 N 0.78355 0.19745 0.13002 0.0
N1091 N 0.78338 0.05064 0.10803 0.0
H1092 H 0.56529 0.83533 0.89652 0.0
H1093 H 0.5123 0.88465 0.8417 0.0
H1094 H 0.51429 0.86165 0.89728 0.0
H1095 H 0.56334 0.90957 0.84204 0.0
H1096 H 0.51272 0.86632 0.86192 0.0
H1097 H 0.56475 0.85169 0.87628 0.0
C1098 C 0.55398 0.8441 0.8924 0.0
C1099 C 0.53982 0.84732 0.89855 0.0
C1100 C 0.52382 0.87601 0.85757 0.0
C1101 C 0.53911 0.86648 0.87547 0.0
C1102 C 0.52359 0.88608 0.84605 0.0
C1103 C 0.53782 0.89855 0.84023 0.0
C1104 C 0.53839 0.87775 0.86328 0.0
C1105 C 0.5521 0.9008 0.84625 0.0
C1106 C 0.55368 0.85397 0.88088 0.0
C1107 C 0.52549 0.85965 0.89285 0.0
N1108 N 0.55204 0.89014 0.85745 0.0
N1109 N 0.52549 0.86863 0.88161 0.0
H1110 H 0.21772 0.72633 0.8443 0.0
H1111 H 0.21263 0.01937 0.89526 0.0
H1112 H 0.2118 0.96866 0.84027 0.0
H1113 H 0.21187 0.77534 0.89918 0.0
H1114 H 0.21425 0.00242 0.87508 0.0
H1115 H 0.21766 0.74372 0.86451 0.0
C1116 C 0.21638 0.78316 0.84766 0.0
C1117 C 0.21469 0.84611 0.84059 0.0
C1118 C 0.21375 0.95259 0.88036 0.0
C1119 C 0.21476 0.86648 0.86368 0.0
C1120 C 0.21272 0.96223 0.89187 0.0
C1121 C 0.21204 0.89865 0.89891 0.0
C1122 C 0.21412 0.87886 0.87586 0.0
C1123 C 0.21254 0.82594 0.89407 0.0
C1124 C 0.21642 0.79309 0.85919 0.0
C1125 C 0.21331 0.91862 0.84541 0.0
N1126 N 0.21352 0.81803 0.88284 0.0
N1127 N 0.21333 0.92679 0.85665 0.0
H1128 H 0.44114 0.51682 0.6459 0.0
H1129 H 0.4809 0.71784 0.5932 0.0
H1130 H 0.48097 0.67053 0.64848 0.0
H1131 H 0.44579 0.53942 0.5908 0.0
H1132 H 0.48131 0.70151 0.61343 0.0
H1133 H 0.44255 0.52587 0.62563 0.0
C1134 C 0.45016 0.55268 0.64218 0.0
C1135 C 0.4609 0.59334 0.64885 0.0
C1136 C 0.47358 0.66573 0.60846 0.0
C1137 C 0.46267 0.6036 0.62567 0.0
C1138 C 0.47339 0.67475 0.59692 0.0
C1139 C 0.46321 0.63028 0.59031 0.0
C1140 C 0.46346 0.61208 0.61343 0.0
C1141 C 0.45359 0.57598 0.59558 0.0
C1142 C 0.45103 0.55744 0.63061 0.0
C1143 C 0.47253 0.63793 0.64361 0.0
N1144 N 0.45391 0.56866 0.60683 0.0
N1145 N 0.47305 0.64224 0.63231 0.0
H1146 H 0.7883 0.76137 0.64547 0.0
H1147 H 0.78272 0.4713 0.59417 0.0
H1148 H 0.7896 0.51718 0.64909 0.0
H1149 H 0.78862 0.71385 0.59042 0.0
H1150 H 0.7832 0.48742 0.6144 0.0
H1151 H 0.78649 0.74548 0.62528 0.0
C1152 C 0.7883 0.70442 0.64202 0.0
C1153 C 0.78918 0.6405 0.64898 0.0
C1154 C 0.78435 0.53711 0.60914 0.0
C1155 C 0.78689 0.6219 0.62591 0.0
C1156 C 0.78415 0.52791 0.5976 0.0
C1157 C 0.7857 0.5913 0.59059 0.0
C1158 C 0.78609 0.61021 0.61371 0.0
C1159 C 0.78721 0.66348 0.59549 0.0
C1160 C 0.78717 0.69538 0.6305 0.0
C1161 C 0.78878 0.56803 0.64405 0.0
N1162 N 0.7874 0.67093 0.60675 0.0
N1163 N 0.78769 0.56071 0.63282 0.0
H1164 H 0.51921 0.2741 0.39643 0.0
H1165 H 0.55878 0.46328 0.34277 0.0
H1166 H 0.55397 0.45456 0.39805 0.0
H1167 H 0.5176 0.31733 0.34108 0.0
H1168 H 0.55789 0.4563 0.36309 0.0
H1169 H 0.51879 0.28624 0.37615 0.0
C1170 C 0.52664 0.31679 0.39253 0.0
C1171 C 0.5367 0.36316 0.39895 0.0
C1172 C 0.54902 0.42596 0.35829 0.0
C1173 C 0.53646 0.37639 0.37576 0.0
C1174 C 0.54959 0.42947 0.3467 0.0
C1175 C 0.53828 0.39055 0.34027 0.0
C1176 C 0.53711 0.38274 0.36348 0.0
C1177 C 0.52647 0.34857 0.34576 0.0
C1178 C 0.52645 0.32337 0.38096 0.0
C1179 C 0.54625 0.41664 0.39344 0.0
N1180 N 0.52624 0.34544 0.35707 0.0
N1181 N 0.54594 0.42155 0.38215 0.0
H1182 H 0.2245 0.47987 0.33991 0.0
H1183 H 0.20108 0.30272 0.39857 0.0
H1184 H 0.1905 0.29788 0.34344 0.0
H1185 H 0.217 0.53483 0.3954 0.0
H1186 H 0.20055 0.29171 0.37823 0.0
H1187 H 0.2252 0.49342 0.36029 0.0
C1188 C 0.21722 0.44284 0.345 0.0
C1189 C 0.2074 0.38783 0.34007 0.0
C1190 C 0.20413 0.34508 0.38199 0.0
C1191 C 0.20824 0.40241 0.36318 0.0
C1192 C 0.20452 0.3512 0.39355 0.0
C1193 C 0.20908 0.41975 0.39859 0.0
C1194 C 0.20855 0.40762 0.37544 0.0
C1195 C 0.21332 0.48122 0.39178 0.0
C1196 C 0.21756 0.45081 0.35657 0.0
C1197 C 0.19811 0.34139 0.34696 0.0
N1198 N 0.21305 0.4736 0.3805 0.0
N1199 N 0.19884 0.34937 0.35819 0.0
H1200 H 0.97019 0.96532 0.64524 0.0
H1201 H 0.94158 0.20805 0.59316 0.0
H1202 H 0.95355 0.19655 0.64814 0.0
H1203 H 0.97631 0.02891 0.58987 0.0
H1204 H 0.94275 0.19445 0.61344 0.0
H1205 H 0.96961 0.97766 0.62484 0.0
C1206 C 0.96641 0.01854 0.64155 0.0
C1207 C 0.96193 0.08012 0.6483 0.0
C1208 C 0.95014 0.15824 0.60828 0.0
C1209 C 0.96112 0.0943 0.62518 0.0
C1210 C 0.9494 0.16565 0.59675 0.0
C1211 C 0.95886 0.11947 0.58992 0.0
C1212 C 0.96023 0.10347 0.61299 0.0
C1213 C 0.96891 0.06581 0.59491 0.0
C1214 C 0.96616 0.02566 0.62997 0.0
C1215 C 0.95721 0.14806 0.64319 0.0
N1216 N 0.96927 0.05884 0.60619 0.0
N1217 N 0.95681 0.1532 0.63191 0.0
H1218 H 0.28336 0.97555 0.59272 0.0
H1219 H 0.28105 0.26856 0.64377 0.0
H1220 H 0.28728 0.21902 0.58894 0.0
H1221 H 0.28565 0.02551 0.64775 0.0
H1222 H 0.28076 0.25125 0.62357 0.0
H1223 H 0.2817 0.99256 0.6129 0.0
C1224 C 0.28392 0.03254 0.59613 0.0
C1225 C 0.28553 0.09594 0.58913 0.0
C1226 C 0.2818 0.20172 0.62887 0.0
C1227 C 0.28343 0.11583 0.61219 0.0
C1228 C 0.28204 0.21159 0.6404 0.0
C1229 C 0.28346 0.14842 0.64746 0.0
C1230 C 0.28296 0.12817 0.62437 0.0
C1231 C 0.28436 0.07577 0.64263 0.0
C1232 C 0.28289 0.04223 0.60765 0.0
C1233 C 0.28587 0.16857 0.59401 0.0
N1234 N 0.28414 0.06766 0.63138 0.0
N1235 N 0.28486 0.17651 0.60524 0.0
H1236 H 0.06446 0.84709 0.39594 0.0
H1237 H 0.01139 0.88022 0.34098 0.0
H1238 H 0.0133 0.86405 0.39685 0.0
H1239 H 0.06174 0.92696 0.34174 0.0
H1240 H 0.0118 0.86316 0.36126 0.0
H1241 H 0.06369 0.86418 0.37572 0.0
C1242 C 0.05306 0.85399 0.39185 0.0
C1243 C 0.03892 0.85429 0.39803 0.0
C1244 C 0.02273 0.8775 0.35698 0.0
C1245 C 0.03794 0.87416 0.37498 0.0
C1246 C 0.02251 0.8869 0.34544 0.0
C1247 C 0.03655 0.9051 0.33973 0.0
C1248 C 0.03713 0.88543 0.36279 0.0
C1249 C 0.05063 0.91374 0.34586 0.0
C1250 C 0.05263 0.86428 0.38034 0.0
C1251 C 0.02447 0.86425 0.39237 0.0
N1252 N 0.05058 0.9034 0.35707 0.0
N1253 N 0.02434 0.87355 0.38113 0.0
H1254 H 0.7157 0.72408 0.34414 0.0
H1255 H 0.71579 0.01881 0.39502 0.0
H1256 H 0.71158 0.96728 0.34012 0.0
H1257 H 0.71188 0.77556 0.39908 0.0
H1258 H 0.71669 0.00099 0.37483 0.0
H1259 H 0.7167 0.74183 0.36433 0.0
C1260 C 0.71495 0.78117 0.3475 0.0
C1261 C 0.71349 0.84428 0.34043 0.0
C1262 C 0.71567 0.95153 0.38015 0.0
C1263 C 0.71482 0.86503 0.3635 0.0
C1264 C 0.71508 0.96169 0.39167 0.0
C1265 C 0.71368 0.8986 0.39875 0.0
C1266 C 0.71488 0.87777 0.37568 0.0
C1267 C 0.71314 0.82577 0.39395 0.0
C1268 C 0.71561 0.79129 0.35902 0.0
C1269 C 0.71289 0.91706 0.34524 0.0
N1270 N 0.7137 0.81738 0.38271 0.0
N1271 N 0.71353 0.92542 0.35648 0.0
H1272 H 0.93831 0.66861 0.14684 0.0
H1273 H 0.98433 0.6867 0.09168 0.0
H1274 H 0.98378 0.55306 0.14648 0.0
H1275 H 0.93938 0.56673 0.09187 0.0
H1276 H 0.98518 0.67649 0.112 0.0
H1277 H 0.93903 0.67329 0.12653 0.0
C1278 C 0.94842 0.64387 0.14259 0.0
C1279 C 0.96089 0.60905 0.14852 0.0
C1280 C 0.97521 0.65259 0.10747 0.0
C1281 C 0.96198 0.61834 0.12532 0.0
C1282 C 0.97471 0.65763 0.09587 0.0
C1283 C 0.96168 0.62797 0.0899 0.0
C1284 C 0.96241 0.61989 0.11313 0.0
C1285 C 0.94944 0.59269 0.09599 0.0
C1286 C 0.94882 0.64737 0.13101 0.0
C1287 C 0.97395 0.58124 0.14239 0.0
N1288 N 0.94999 0.59069 0.10729 0.0
N1289 N 0.9742 0.58685 0.1311 0.0
H1290 H 0.28594 0.72154 0.09006 0.0
H1291 H 0.28691 0.51587 0.14923 0.0
H1292 H 0.28147 0.47852 0.09415 0.0
H1293 H 0.2832 0.75927 0.14525 0.0
H1294 H 0.28502 0.501 0.12906 0.0
H1295 H 0.28498 0.73663 0.11026 0.0
C1296 C 0.28458 0.67136 0.0952 0.0
C1297 C 0.28382 0.59859 0.0904 0.0
C1298 C 0.28454 0.55765 0.1326 0.0
C1299 C 0.283 0.61546 0.11354 0.0
C1300 C 0.28555 0.5662 0.14412 0.0
C1301 C 0.28525 0.63898 0.14894 0.0
C1302 C 0.28333 0.62235 0.12583 0.0
C1303 C 0.28375 0.70218 0.14189 0.0
C1304 C 0.28413 0.68003 0.10674 0.0
C1305 C 0.28237 0.53558 0.09749 0.0
N1306 N 0.2829 0.69239 0.13068 0.0
N1307 N 0.28207 0.54546 0.10872 0.0
H1308 H 0.0253 0.48661 0.84246 0.0
H1309 H 0.03888 0.2162 0.89472 0.0
H1310 H 0.04949 0.27102 0.83982 0.0
H1311 H 0.03534 0.46067 0.89764 0.0
H1312 H 0.0384 0.22885 0.87445 0.0
H1313 H 0.02415 0.4708 0.86274 0.0
C1314 C 0.03025 0.43573 0.84617 0.0
C1315 C 0.03755 0.3801 0.83954 0.0
C1316 C 0.03771 0.27954 0.87957 0.0
C1317 C 0.03623 0.3616 0.86258 0.0
C1318 C 0.03808 0.27255 0.89114 0.0
C1319 C 0.03726 0.33755 0.89795 0.0
C1320 C 0.03627 0.35183 0.87478 0.0
C1321 C 0.03579 0.40884 0.89278 0.0
C1322 C 0.02968 0.42696 0.85771 0.0
C1323 C 0.0439 0.31542 0.84471 0.0
N1324 N 0.03531 0.41405 0.8815 0.0
N1325 N 0.04305 0.30774 0.85595 0.0
H1326 H 0.70635 0.47089 0.83874 0.0
H1327 H 0.70721 0.26634 0.8982 0.0
H1328 H 0.70891 0.22742 0.84298 0.0
H1329 H 0.70872 0.50994 0.89389 0.0
H1330 H 0.70748 0.2508 0.87798 0.0
H1331 H 0.70686 0.48627 0.85895 0.0
C1332 C 0.70712 0.42066 0.84393 0.0
C1333 C 0.7076 0.34775 0.83917 0.0
C1334 C 0.70777 0.30765 0.88146 0.0
C1335 C 0.70798 0.36491 0.86231 0.0
C1336 C 0.7077 0.31656 0.893 0.0
C1337 C 0.70794 0.38956 0.89774 0.0
C1338 C 0.70806 0.37221 0.8746 0.0
C1339 C 0.7083 0.45265 0.8906 0.0
C1340 C 0.70733 0.42947 0.85547 0.0
C1341 C 0.70831 0.28463 0.84629 0.0
N1342 N 0.70835 0.44249 0.87938 0.0
N1343 N 0.70848 0.29469 0.85752 0.0
H1344 H 0.49882 0.94094 0.96185 0.0
H1345 H 0.49978 0.07236 0.02565 0.0
H1346 H 0.53239 0.85894 0.98627 0.0
H1347 H 0.46382 0.14354 0.00219 0.0
H1348 H 0.51241 -0.00216 0.01102 0.0
H1349 H 0.48578 0.01587 0.97637 0.0
C1350 C 0.50331 0.93786 0.97031 0.0
C1351 C 0.5167 0.89369 0.97288 0.0
C1352 C 0.50181 0.03001 0.00903 0.0
C1353 C 0.50203 0.98018 0.98946 0.0
C1354 C 0.49464 0.07305 0.01737 0.0
C1355 C 0.48072 0.11413 0.01512 0.0
C1356 C 0.49501 0.02792 -0.00165 0.0
C1357 C 0.47457 0.11281 0.00425 0.0
C1358 C 0.49592 0.98103 0.97857 0.0
C1359 C 0.52207 0.89211 0.98394 0.0
N1360 N 0.48173 0.06998 -0.00374 0.0
N1361 N 0.51477 0.93516 0.99181 0.0
H1362 H 0.74989 0.18197 0.02495 0.0
H1363 H 0.75023 0.30903 0.96105 0.0
H1364 H 0.78684 0.11752 0.0018 0.0
H1365 H 0.71626 0.38874 0.9854 0.0
H1366 H 0.76382 0.23767 0.97569 0.0
H1367 H 0.73685 0.25344 0.0102 0.0
C1368 C 0.75517 0.18216 0.01671 0.0
C1369 C 0.76947 0.14386 0.01458 0.0
C1370 C 0.75347 0.27123 0.97784 0.0
C1371 C 0.75472 0.22656 -0.00231 0.0
C1372 C 0.74576 0.31232 0.96951 0.0
C1373 C 0.73209 0.35473 0.97204 0.0
C1374 C 0.74739 0.27237 0.98873 0.0
C1375 C 0.72677 0.35682 0.9831 0.0
C1376 C 0.74777 0.22346 0.00831 0.0
C1377 C 0.7758 0.14614 0.00377 0.0
N1378 N 0.73438 0.31575 0.99104 0.0
N1379 N 0.76839 0.18722 -0.00429 0.0
H1380 H 0.5015 0.16998 0.21296 0.0
H1381 H 0.49804 0.31811 0.27593 0.0
H1382 H 0.46472 0.1063 0.23624 0.0
H1383 H 0.53464 0.38277 0.25256 0.0
H1384 H 0.48545 0.24183 0.26142 0.0
H1385 H 0.51413 0.24586 0.22749 0.0
C1386 C 0.49619 0.17119 0.22119 0.0
C1387 C 0.48203 0.13189 0.22341 0.0
C1388 C 0.49617 0.27304 0.25943 0.0
C1389 C 0.49629 0.21966 0.24003 0.0
C1390 C 0.50332 0.31703 0.26769 0.0
C1391 C 0.51742 0.35675 0.26543 0.0
C1392 C 0.50319 0.26854 0.24884 0.0
C1393 C 0.52375 0.35321 0.25463 0.0
C1394 C 0.50335 0.21495 0.22946 0.0
C1395 C 0.47566 0.13554 0.23419 0.0
N1396 N 0.51663 0.3094 0.24674 0.0
N1397 N 0.4828 0.17916 0.2421 0.0
H1398 H 0.74779 0.06585 0.21284 0.0
H1399 H 0.75043 0.9213 0.27591 0.0
H1400 H 0.78493 0.12586 0.23611 0.0
H1401 H 0.71328 0.86127 0.25267 0.0
H1402 H 0.76348 0.99464 0.26133 0.0
H1403 H 0.73471 0.99262 0.22743 0.0
C1404 C 0.7531 0.06436 0.22107 0.0
C1405 C 0.76748 0.10185 0.22329 0.0
C1406 C 0.75253 0.9651 0.25939 0.0
C1407 C 0.7527 0.01719 0.23996 0.0
C1408 C 0.74512 0.9228 0.26769 0.0
C1409 C 0.73075 0.88526 0.26548 0.0
C1410 C 0.74549 0.97006 0.24881 0.0
C1411 C 0.72438 0.88921 0.2547 0.0
C1412 C 0.74567 0.02214 0.22937 0.0
C1413 C 0.77383 0.09795 0.23407 0.0
N1414 N 0.73176 0.93134 0.24676 0.0
N1415 N 0.76643 0.05588 0.24201 0.0
H1416 H 0.21538 0.89711 0.98672 0.0
H1417 H 0.28653 0.61475 0.00249 0.0
H1418 H 0.25019 0.81746 0.96296 0.0
H1419 H 0.24953 0.68324 0.02535 0.0
H1420 H 0.27374 0.69003 0.98787 0.0
H1421 H 0.22875 0.82415 0.00127 0.0
C1422 C 0.22597 0.86512 0.98461 0.0
C1423 C 0.23168 0.86307 0.97364 0.0
C1424 C 0.26838 0.68813 -0.00393 0.0
C1425 C 0.24685 0.77853 0.99014 0.0
C1426 C 0.27561 0.64475 0.00438 0.0
C1427 C 0.26906 0.64281 0.01512 0.0
C1428 C 0.25458 0.72986 -0.00142 0.0
C1429 C 0.25497 0.68316 0.01717 0.0
C1430 C 0.23352 0.82298 0.99288 0.0
C1431 C 0.24539 0.82045 0.97132 0.0
N1432 N 0.24825 0.72534 0.00899 0.0
N1433 N 0.25247 0.77944 0.97951 0.0
H1434 H 0.49839 0.66922 0.71357 0.0
H1435 H 0.4961 0.80734 0.77702 0.0
H1436 H 0.46176 0.60113 0.7367 0.0
H1437 H 0.52961 0.88964 0.75259 0.0
H1438 H 0.48332 0.73084 0.76256 0.0
H1439 H 0.51057 0.74587 0.72815 0.0
C1440 C 0.49301 0.66965 0.72177 0.0
C1441 C 0.47903 0.62881 0.72394 0.0
C1442 C 0.49338 0.76613 0.76035 0.0
C1443 C 0.4928 0.71751 0.74065 0.0
C1444 C 0.50062 0.81019 0.76858 0.0
C1445 C 0.51394 0.85482 0.76599 0.0
C1446 C 0.49957 0.76652 0.74948 0.0
C1447 C 0.51936 0.85611 0.75494 0.0
C1448 C 0.49991 0.71394 0.73008 0.0
C1449 C 0.47257 0.63161 0.73471 0.0
N1450 N 0.51221 0.81213 0.74711 0.0
N1451 N 0.47948 0.67563 0.74267 0.0
H1452 H 0.24697 0.06663 0.71226 0.0
H1453 H 0.25089 0.92761 0.77558 0.0
H1454 H 0.28391 0.13311 0.73531 0.0
H1455 H 0.21347 0.86392 0.75275 0.0
H1456 H 0.26348 0.00076 0.76078 0.0
H1457 H 0.23433 0.99333 0.72704 0.0
C1458 C 0.25232 0.06658 0.72048 0.0
C1459 C 0.26651 0.10593 0.72258 0.0
C1460 C 0.25257 0.97047 0.75897 0.0
C1461 C 0.25225 0.02123 0.73947 0.0
C1462 C 0.24542 0.92828 0.7674 0.0
C1463 C 0.23111 0.88976 0.76537 0.0
C1464 C 0.24532 0.9743 0.74845 0.0
C1465 C 0.22452 0.89267 0.75464 0.0
C1466 C 0.24514 0.02432 0.72889 0.0
C1467 C 0.27294 0.10373 0.73336 0.0
N1468 N 0.23166 0.93468 0.74658 0.0
N1469 N 0.2658 0.06162 0.7414 0.0
H1470 H 0.50231 0.57476 0.5261 0.0
H1471 H 0.49741 0.42284 0.46338 0.0
H1472 H 0.46559 0.64087 0.50289 0.0
H1473 H 0.53431 0.35789 0.4865 0.0
H1474 H 0.48523 0.50054 0.47789 0.0
H1475 H 0.51443 0.49664 0.51161 0.0
C1476 C 0.49692 0.57367 0.51789 0.0
C1477 C 0.48292 0.6143 0.51568 0.0
C1478 C 0.49593 0.46893 0.47983 0.0
C1479 C 0.49659 0.52394 0.49912 0.0
C1480 C 0.50283 0.42412 0.47157 0.0
C1481 C 0.51691 0.38399 0.47375 0.0
C1482 C 0.50317 0.47385 0.49034 0.0
C1483 C 0.52344 0.38777 0.48449 0.0
C1484 C 0.50379 0.5286 0.50965 0.0
C1485 C 0.47642 0.61064 0.50493 0.0
N1486 N 0.51656 0.43243 0.49238 0.0
N1487 N 0.48327 0.56575 0.49705 0.0
H1488 H 0.71163 0.88355 0.48669 0.0
H1489 H 0.78411 0.60927 0.50264 0.0
H1490 H 0.74867 0.81714 0.46373 0.0
H1491 H 0.74821 0.68167 0.5261 0.0
H1492 H 0.7708 0.68274 0.48811 0.0
H1493 H 0.72493 0.81092 0.50136 0.0
C1494 C 0.72266 0.85454 0.48478 0.0
C1495 C 0.72906 0.85618 0.474 0.0
C1496 C 0.76579 0.68223 0.49642 0.0
C1497 C 0.74415 0.7722 0.49062 0.0
C1498 C 0.77332 0.63984 0.50469 0.0
C1499 C 0.76724 0.63943 0.51556 0.0
C1500 C 0.75211 0.72447 0.49908 0.0
C1501 C 0.75328 0.68042 0.5178 0.0
C1502 C 0.73019 0.81268 0.49313 0.0
C1503 C 0.74332 0.81726 0.47194 0.0
N1504 N 0.74622 0.72158 0.50963 0.0
N1505 N 0.75034 0.77652 0.48016 0.0
H1506 H 0.71464 0.35121 0.75134 0.0
H1507 H 0.7856 0.63782 0.7369 0.0
H1508 H 0.74814 0.43486 0.77573 0.0
H1509 H 0.75106 0.55904 0.71287 0.0
H1510 H 0.77187 0.56523 0.75136 0.0
H1511 H 0.72831 0.42484 0.73701 0.0
C1512 C 0.725 0.38427 0.75365 0.0
C1513 C 0.73028 0.38697 0.76472 0.0
C1514 C 0.76724 0.56427 0.74293 0.0
C1515 C 0.7458 0.47226 0.74844 0.0
C1516 C 0.775 0.60612 0.7347 0.0
C1517 C 0.76946 0.60427 0.72369 0.0
C1518 C 0.7539 0.52025 0.74009 0.0
C1519 C 0.75574 0.56196 0.72127 0.0
C1520 C 0.73272 0.42676 0.74549 0.0
C1521 C 0.7437 0.4311 0.76728 0.0
N1522 N 0.74848 0.52125 0.72939 0.0
N1523 N 0.75096 0.47233 0.7592 0.0
H1524 H 0.24976 0.17044 0.52443 0.0
H1525 H 0.25113 0.31763 0.46148 0.0
H1526 H 0.28749 0.11612 0.50135 0.0
H1527 H 0.2167 0.38902 0.48606 0.0
H1528 H 0.26438 0.24091 0.47568 0.0
H1529 H 0.23669 0.24432 0.50996 0.0
C1530 C 0.25521 0.17333 0.51626 0.0
C1531 C 0.26976 0.13734 0.51408 0.0
C1532 C 0.254 0.27378 0.47798 0.0
C1533 C 0.25495 0.22286 0.49751 0.0
C1534 C 0.24648 0.31792 0.4699 0.0
C1535 C 0.23281 0.35972 0.47262 0.0
C1536 C 0.24772 0.27122 0.48881 0.0
C1537 C 0.22724 0.35781 0.48362 0.0
C1538 C 0.24778 0.21599 0.50802 0.0
C1539 C 0.27626 0.14291 0.50335 0.0
N1540 N 0.23468 0.31386 0.4913 0.0
N1541 N 0.26884 0.18541 0.49545 0.0
H1542 H 0.28724 0.62634 0.23689 0.0
H1543 H 0.21426 0.35456 0.2527 0.0
H1544 H 0.25061 0.55826 0.2137 0.0
H1545 H 0.24942 0.43129 0.27642 0.0
H1546 H 0.2282 0.42439 0.23806 0.0
H1547 H 0.27373 0.55433 0.25153 0.0
C1548 C 0.27626 0.59707 0.23492 0.0
C1549 C 0.27003 0.59819 0.22409 0.0
C1550 C 0.23291 0.42555 0.24646 0.0
C1551 C 0.2547 0.51486 0.24067 0.0
C1552 C 0.22503 0.3852 0.25479 0.0
C1553 C 0.23068 0.38736 0.26577 0.0
C1554 C 0.24651 0.46825 0.24916 0.0
C1555 C 0.24464 0.42829 0.26805 0.0
C1556 C 0.26861 0.55554 0.24325 0.0
C1557 C 0.25584 0.55886 0.22195 0.0
N1558 N 0.25204 0.46747 0.25982 0.0
N1559 N 0.24869 0.5185 0.23016 0.0
H1560 H 0.99832 0.94302 0.46153 0.0
H1561 H 0.99916 0.06935 0.52555 0.0
H1562 H 0.03225 0.86154 0.48575 0.0
H1563 H 0.96274 0.139 0.50234 0.0
H1564 H 0.01209 -0.00209 0.51071 0.0
H1565 H 0.98519 0.01636 0.47618 0.0
C1566 C 0.00288 0.93975 0.46996 0.0
C1567 C 0.01639 0.89615 0.47245 0.0
C1568 C 0.00132 0.02909 0.50882 0.0
C1569 C 0.0016 0.98083 0.48917 0.0
C1570 C 0.99398 0.07035 0.51728 0.0
C1571 C 0.97983 0.10997 0.51516 0.0
C1572 C 0.99446 0.02728 0.49816 0.0
C1573 C 0.97366 0.1093 0.5043 0.0
C1574 C 0.99543 0.98202 0.4783 0.0
C1575 C 0.02184 0.89427 0.48348 0.0
N1576 N 0.98098 0.06811 0.49619 0.0
N1577 N 0.01447 0.93642 0.49143 0.0
H1578 H 0.00218 0.18461 0.71174 0.0
H1579 H -0.0004 0.32716 0.77499 0.0
H1580 H 0.96756 0.10969 0.73592 0.0
H1581 H 0.0369 0.38932 0.75202 0.0
H1582 H 0.987 0.25265 0.76035 0.0
H1583 H 0.01494 0.26156 0.72616 0.0
C1584 C 0.99739 0.18358 0.72012 0.0
C1585 C 0.98379 0.14074 0.72266 0.0
C1586 C 0.99789 0.28287 0.75846 0.0
C1587 C 0.99816 0.22951 0.73911 0.0
C1588 C 0.00504 0.3259 0.76681 0.0
C1589 C 0.01934 0.3643 0.76471 0.0
C1590 C 0.00509 0.27805 0.74793 0.0
C1591 C 0.02586 0.36067 0.75396 0.0
C1592 C 0.00462 0.22788 0.72832 0.0
C1593 C 0.97804 0.14175 0.73362 0.0
N1594 N 0.01871 0.31778 0.74597 0.0
N1595 N 0.98521 0.18584 0.74143 0.0
H1596 H 0.03561 0.87467 0.25181 0.0
H1597 H 0.96509 0.58729 0.23631 0.0
H1598 H -4e-05 0.80018 0.27527 0.0
H1599 H 0.00062 0.66346 0.21288 0.0
H1600 H 0.97821 0.66157 0.25092 0.0
H1601 H 0.02286 0.79769 0.23737 0.0
C1602 C 0.02499 0.84287 0.25388 0.0
C1603 C 0.01881 0.84384 0.26473 0.0
C1604 C 0.98319 0.66157 0.24259 0.0
C1605 C 0.00433 0.75475 0.24835 0.0
C1606 C 0.97578 0.61871 0.23428 0.0
C1607 C 0.98177 0.61939 0.22338 0.0
C1608 C 0.99665 0.70536 0.23994 0.0
C1609 C 0.99559 0.66146 0.22118 0.0
C1610 C 0.01778 0.7985 0.24567 0.0
C1611 C 0.00509 0.80117 0.26699 0.0
N1612 N 0.00251 0.70311 0.22937 0.0
N1613 N 0.99835 0.75808 0.25888 0.0
H1614 H 0.99834 0.43721 0.96169 0.0
H1615 H 0.0008 0.575 0.02518 0.0
H1616 H 0.03289 0.36013 0.98578 0.0
H1617 H 0.96394 0.64152 0.00211 0.0
H1618 H 0.01334 0.50082 0.01047 0.0
H1619 H 0.9856 0.51332 0.97621 0.0
C1620 C 0.00311 0.4355 0.97007 0.0
C1621 C 0.01669 0.39235 0.97255 0.0
C1622 C 0.00257 0.53193 0.00859 0.0
C1623 C 0.00235 0.4802 0.98913 0.0
C1624 C 0.99545 0.57476 0.01696 0.0
C1625 C 0.98129 0.6143 0.01485 0.0
C1626 C 0.99547 0.52842 -0.00199 0.0
C1627 C 0.97488 0.61197 0.00407 0.0
C1628 C 0.99589 0.47935 0.97834 0.0
C1629 C 0.02242 0.39246 0.98352 0.0
N1630 N 0.98199 0.56923 -0.00396 0.0
N1631 N 0.01527 0.43614 0.9914 0.0
H1632 H 0.47309 0.89932 0.03532 0.0
H1633 H 0.44075 0.47229 0.0377 0.0
H1634 H 0.42333 0.84127 0.03739 0.0
H1635 H 0.49046 0.52939 0.03447 0.0
H1636 H 0.43415 0.60687 0.03707 0.0
H1637 H 0.47968 0.76435 0.03487 0.0
C1638 C 0.46354 0.85824 0.03579 0.0
C1639 C 0.44761 0.88177 0.03649 0.0
C1640 C 0.4465 0.59004 0.03643 0.0
C1641 C 0.4551 0.72676 0.03579 0.0
C1642 C 0.4503 0.51292 0.03669 0.0
C1643 C 0.46623 0.48912 0.03609 0.0
C1644 C 0.4587 0.64417 0.03561 0.0
C1645 C 0.47805 0.545 0.03506 0.0
C1646 C 0.46732 0.78106 0.03543 0.0
C1647 C 0.43574 0.82574 0.03678 0.0
N1648 N 0.47405 0.61989 0.03489 0.0
N1649 N 0.43973 0.75088 0.03646 0.0
H1650 H 0.75946 0.73617 0.03596 0.0
H1651 H 0.82748 0.41782 0.03566 0.0
H1652 H 0.80964 0.78577 0.03811 0.0
H1653 H 0.7773 0.36737 0.03466 0.0
H1654 H 0.8212 0.55346 0.0357 0.0
H1655 H 0.76575 0.60081 0.03478 0.0
C1656 C 0.77179 0.71866 0.03619 0.0
C1657 C 0.78402 0.77251 0.03715 0.0
C1658 C 0.81156 0.51269 0.03548 0.0
C1659 C 0.79133 0.61777 0.03573 0.0
C1660 C 0.81515 0.43531 0.0354 0.0
C1661 C 0.80291 0.38121 0.03524 0.0
C1662 C 0.7956 0.53615 0.03536 0.0
C1663 C 0.78711 0.40697 0.03501 0.0
C1664 C 0.77539 0.6414 0.03547 0.0
C1665 C 0.79982 0.74656 0.03724 0.0
N1666 N 0.78391 0.48261 0.03509 0.0
N1667 N 0.803 0.67106 0.03658 0.0
H1668 H 0.48754 0.72162 0.18978 0.0
H1669 H 0.43128 0.39716 0.21487 0.0
H1670 H 0.44961 0.76661 0.21312 0.0
H1671 H 0.46585 0.35762 0.18889 0.0
H1672 H 0.43839 0.53157 0.21487 0.0
H1673 H 0.48077 0.58682 0.19023 0.0
C1674 C 0.4779 0.7032 0.19511 0.0
C1675 C 0.46915 0.75592 0.20142 0.0
C1676 C 0.44441 0.49345 0.20916 0.0
C1677 C 0.46115 0.60115 0.20183 0.0
C1678 C 0.44027 0.41653 0.20909 0.0
C1679 C 0.44796 0.36538 0.20186 0.0
C1680 C 0.45637 0.51978 0.20197 0.0
C1681 C 0.45973 0.3943 0.19472 0.0
C1682 C 0.47395 0.62613 0.19528 0.0
C1683 C 0.45658 0.72843 0.20801 0.0
N1684 N 0.46357 0.46938 0.19496 0.0
N1685 N 0.45296 0.65304 0.20804 0.0
H1686 H 0.79845 0.4628 0.21418 0.0
H1687 H 0.78719 0.87331 0.18674 0.0
H1688 H 0.76712 0.5083 0.18648 0.0
H1689 H 0.8148 0.83399 0.21653 0.0
H1690 H 0.78033 0.73875 0.18625 0.0
H1691 H 0.80523 0.59783 0.21493 0.0
C1692 C 0.79301 0.50116 0.20825 0.0
C1693 C 0.78221 0.47419 0.20024 0.0
C1694 C 0.78789 0.75952 0.1929 0.0
C1695 C 0.78986 0.62869 0.20108 0.0
C1696 C 0.79176 0.83647 0.19321 0.0
C1697 C 0.80152 0.86521 0.20172 0.0
C1698 C 0.79385 0.71065 0.20115 0.0
C1699 C 0.80737 0.81437 0.20975 0.0
C1700 C 0.79683 0.57826 0.20872 0.0
C1701 C 0.77534 0.52663 0.19287 0.0
N1702 N 0.80342 0.73954 0.20928 0.0
N1703 N 0.77934 0.60129 0.19344 0.0
H1704 H 0.52543 0.11005 0.95216 0.0
H1705 H 0.55868 0.53535 0.95246 0.0
H1706 H 0.57516 0.16645 0.95526 0.0
H1707 H 0.50884 0.47997 0.94964 0.0
H1708 H 0.5648 0.40082 0.95412 0.0
H1709 H 0.51904 0.24514 0.95159 0.0
C1710 C 0.53503 0.15082 0.95263 0.0
C1711 C 0.5509 0.12692 0.95363 0.0
C1712 C 0.55251 0.41801 0.95318 0.0
C1713 C 0.54362 0.28189 0.95317 0.0
C1714 C 0.54897 0.49511 0.95231 0.0
C1715 C 0.53318 0.51932 0.95093 0.0
C1716 C 0.54019 0.36438 0.95265 0.0
C1717 C 0.52118 0.46395 0.95057 0.0
C1718 C 0.53136 0.22805 0.9524 0.0
C1719 C 0.56279 0.18246 0.95452 0.0
N1720 N 0.52493 0.38904 0.95141 0.0
N1721 N 0.55891 0.2574 0.95423 0.0
H1722 H 0.20156 0.22172 0.96496 0.0
H1723 H 0.20928 0.63238 0.9369 0.0
H1724 H 0.22967 0.26733 0.93563 0.0
H1725 H 0.18523 0.59284 0.96815 0.0
H1726 H 0.21611 0.49782 0.93602 0.0
H1727 H 0.19471 0.35658 0.96602 0.0
C1728 C 0.20628 0.26005 0.95874 0.0
C1729 C 0.2162 0.23307 0.95019 0.0
C1730 C 0.20933 0.51854 0.94307 0.0
C1731 C 0.20844 0.38758 0.95136 0.0
C1732 C 0.20547 0.59553 0.9436 0.0
C1733 C 0.19673 0.6243 0.95265 0.0
C1734 C 0.20439 0.46959 0.95163 0.0
C1735 C 0.19185 0.5733 0.96097 0.0
C1736 C 0.20242 0.33709 0.95937 0.0
C1737 C 0.22216 0.28558 0.94244 0.0
N1738 N 0.19577 0.49847 0.96027 0.0
N1739 N 0.21813 0.3602 0.94319 0.0
H1740 H 0.57328 0.58411 0.78332 0.0
H1741 H 0.50544 0.26733 0.78957 0.0
H1742 H 0.52346 0.63592 0.78731 0.0
H1743 H 0.55548 0.21612 0.78682 0.0
H1744 H 0.51169 0.40263 0.78817 0.0
H1745 H 0.56688 0.44855 0.78386 0.0
C1746 C 0.561 0.56697 0.78427 0.0
C1747 C 0.54892 0.62149 0.78535 0.0
C1748 C 0.52129 0.36169 0.78784 0.0
C1749 C 0.54148 0.46654 0.78603 0.0
C1750 C 0.51773 0.2844 0.78868 0.0
C1751 C 0.52993 0.23 0.78832 0.0
C1752 C 0.53718 0.38489 0.78664 0.0
C1753 C 0.54564 0.25561 0.78699 0.0
C1754 C 0.55734 0.48961 0.78463 0.0
C1755 C 0.5332 0.59607 0.78667 0.0
N1756 N 0.54881 0.33112 0.78624 0.0
N1757 N 0.52994 0.52048 0.78697 0.0
H1758 H 0.18288 0.15533 0.77276 0.0
H1759 H 0.23403 0.48341 0.80195 0.0
H1760 H 0.21357 0.11888 0.80111 0.0
H1761 H 0.20022 0.52554 0.77559 0.0
H1762 H 0.22757 0.3485 0.8011 0.0
H1763 H 0.18957 0.29035 0.77324 0.0
C1764 C 0.19094 0.17563 0.77913 0.0
C1765 C 0.19769 0.12543 0.7869 0.0
C1766 C 0.22157 0.38719 0.79549 0.0
C1767 C 0.20556 0.27995 0.7874 0.0
C1768 C 0.22535 0.46428 0.79591 0.0
C1769 C 0.21767 0.51601 0.78882 0.0
C1770 C 0.21003 0.36137 0.78791 0.0
C1771 C 0.2063 0.48786 0.78129 0.0
C1772 C 0.19483 0.25275 0.77936 0.0
C1773 C 0.20826 0.15511 0.79486 0.0
N1774 N 0.20283 0.41242 0.78103 0.0
N1775 N 0.21187 0.23032 0.7949 0.0
H1776 H 0.42484 0.34437 0.53814 0.0
H1777 H 0.49343 0.02868 0.53484 0.0
H1778 H 0.47481 0.39757 0.53591 0.0
H1779 H 0.44365 0.97662 0.53916 0.0
H1780 H 0.48679 0.16397 0.53442 0.0
H1781 H 0.43143 0.20902 0.53771 0.0
C1782 C 0.43719 0.32762 0.53754 0.0
C1783 C 0.44928 0.38253 0.53712 0.0
C1784 C 0.47732 0.12284 0.53541 0.0
C1785 C 0.45695 0.22756 0.53664 0.0
C1786 C 0.48111 0.04553 0.53568 0.0
C1787 C 0.46911 0.99086 0.53702 0.0
C1788 C 0.4614 0.14585 0.53651 0.0
C1789 C 0.45331 0.01629 0.53793 0.0
C1790 C 0.44096 0.25032 0.53733 0.0
C1791 C 0.46511 0.35742 0.53645 0.0
N1792 N 0.44994 0.09181 0.53769 0.0
N1793 N 0.46848 0.28185 0.53622 0.0
H1794 H 0.77474 0.85661 0.53463 0.0
H1795 H 0.80814 0.2811 0.53796 0.0
H1796 H 0.82465 0.91209 0.53646 0.0
H1797 H 0.75814 0.22661 0.53635 0.0
H1798 H 0.8144 0.14645 0.53652 0.0
H1799 H 0.76842 0.99185 0.5346 0.0
C1800 C 0.78438 0.89722 0.53511 0.0
C1801 C 0.80026 0.87307 0.53568 0.0
C1802 C 0.80205 0.16388 0.53644 0.0
C1803 C 0.79311 0.02807 0.53549 0.0
C1804 C 0.79845 0.24097 0.53717 0.0
C1805 C 0.78256 0.26533 0.53726 0.0
C1806 C 0.78969 0.11053 0.5358 0.0
C1807 C 0.77054 0.21031 0.53645 0.0
C1808 C 0.78076 0.9745 0.53501 0.0
C1809 C 0.81227 0.92833 0.53597 0.0
N1810 N 0.77435 0.13541 0.53578 0.0
N1811 N 0.80844 0.00331 0.53592 0.0
H1812 H 0.47193 0.84152 0.70368 0.0
H1813 H 0.43972 0.26876 0.70099 0.0
H1814 H 0.42226 0.89981 0.70087 0.0
H1815 H 0.48931 0.21142 0.70498 0.0
H1816 H 0.43309 0.13418 0.70144 0.0
H1817 H 0.47853 0.97647 0.70428 0.0
C1818 C 0.4624 0.88264 0.70308 0.0
C1819 C 0.4465 0.85918 0.70213 0.0
C1820 C 0.44542 0.15095 0.70229 0.0
C1821 C 0.45398 0.01417 0.703 0.0
C1822 C 0.44923 0.22807 0.70214 0.0
C1823 C 0.46514 0.25181 0.703 0.0
C1824 C 0.45759 0.09675 0.70327 0.0
C1825 C 0.47693 0.19587 0.70419 0.0
C1826 C 0.46618 0.95981 0.70353 0.0
C1827 C 0.43465 0.91527 0.70167 0.0
N1828 N 0.47291 0.12097 0.70426 0.0
N1829 N 0.43864 0.99012 0.70208 0.0
H1830 H 0.77056 0.00734 0.68552 0.0
H1831 H 0.81683 0.33524 0.71858 0.0
H1832 H 0.79999 0.9651 0.71433 0.0
H1833 H 0.7913 0.37188 0.68781 0.0
H1834 H 0.81025 0.20026 0.71751 0.0
H1835 H 0.77704 0.14221 0.68679 0.0
C1836 C 0.77827 0.02642 0.69218 0.0
C1837 C 0.78472 0.97462 0.69983 0.0
C1838 C 0.8061 0.23788 0.71099 0.0
C1839 C 0.79238 0.12925 0.70126 0.0
C1840 C 0.80994 0.31503 0.71155 0.0
C1841 C 0.80459 0.36536 0.70328 0.0
C1842 C 0.79682 0.21069 0.7021 0.0
C1843 C 0.79549 0.33564 0.69447 0.0
C1844 C 0.78208 0.10348 0.69284 0.0
C1845 C 0.79488 0.00275 0.70817 0.0
N1846 N 0.79188 0.2604 0.69413 0.0
N1847 N 0.79839 0.07813 0.70867 0.0
H1848 H 0.5674 0.64843 0.46517 0.0
H1849 H 0.51112 0.973 0.44009 0.0
H1850 H 0.5328 0.60899 0.43919 0.0
H1851 H 0.54906 0.01792 0.46343 0.0
H1852 H 0.51788 0.8382 0.44054 0.0
H1853 H 0.56028 0.78284 0.46518 0.0
C1854 C 0.5584 0.66782 0.4594 0.0
C1855 C 0.55071 0.6167 0.45216 0.0
C1856 C 0.52472 0.87749 0.44559 0.0
C1857 C 0.5423 0.7711 0.45228 0.0
C1858 C 0.52076 0.95456 0.44542 0.0
C1859 C 0.52952 0.00727 0.45174 0.0
C1860 C 0.53751 0.85248 0.45215 0.0
C1861 C 0.54208 0.97976 0.45832 0.0
C1862 C 0.55426 0.74475 0.45947 0.0
C1863 C 0.53893 0.64565 0.44502 0.0
N1864 N 0.5457 0.90436 0.45835 0.0
N1865 N 0.53508 0.72072 0.44527 0.0
H1866 H 0.21218 0.13908 0.43739 0.0
H1867 H 0.20183 0.72845 0.46511 0.0
H1868 H 0.18424 0.09921 0.46699 0.0
H1869 H 0.23212 0.7739 0.43685 0.0
H1870 H 0.1949 0.86334 0.46587 0.0
H1871 H 0.21927 0.00477 0.43698 0.0
C1872 C 0.20758 0.1022 0.44384 0.0
C1873 C 0.19766 0.13082 0.45227 0.0
C1874 C 0.20311 0.84378 0.45953 0.0
C1875 C 0.20561 0.97625 0.45179 0.0
C1876 C 0.20703 0.76668 0.45906 0.0
C1877 C 0.21758 0.73956 0.4509 0.0
C1878 C 0.20973 0.89421 0.45174 0.0
C1879 C 0.22411 0.7921 0.44338 0.0
C1880 C 0.21159 0.02532 0.44358 0.0
C1881 C 0.1918 0.07976 0.46028 0.0
N1882 N 0.22004 0.86672 0.44396 0.0
N1883 N 0.19589 0.005 0.45985 0.0
H1884 H 0.56823 0.09291 0.27398 0.0
H1885 H 0.51173 0.76831 0.29878 0.0
H1886 H 0.53348 0.13226 0.29985 0.0
H1887 H 0.54973 0.72352 0.2755 0.0
H1888 H 0.51853 0.90307 0.2984 0.0
H1889 H 0.56107 0.95857 0.2739 0.0
C1890 C 0.55919 0.07353 0.27971 0.0
C1891 C 0.55147 0.12462 0.28694 0.0
C1892 C 0.52536 0.86382 0.29335 0.0
C1893 C 0.543 0.97024 0.28674 0.0
C1894 C 0.52139 0.78675 0.29348 0.0
C1895 C 0.53015 0.73407 0.28716 0.0
C1896 C 0.53819 0.88887 0.28682 0.0
C1897 C 0.54274 0.76164 0.28061 0.0
C1898 C 0.55502 0.99662 0.2796 0.0
C1899 C 0.53963 0.09564 0.29403 0.0
N1900 N 0.54638 0.83702 0.28062 0.0
N1901 N 0.53576 0.02059 0.29374 0.0
H1902 H 0.17134 0.66678 0.28586 0.0
H1903 H 0.24006 0.98245 0.28755 0.0
H1904 H 0.22143 0.61396 0.28648 0.0
H1905 H 0.18995 0.0353 0.28758 0.0
H1906 H 0.23349 0.84722 0.28653 0.0
H1907 H 0.17791 0.80217 0.28584 0.0
C1908 C 0.18371 0.68354 0.28596 0.0
C1909 C 0.19583 0.62865 0.28623 0.0
C1910 C 0.22393 0.88846 0.2867 0.0
C1911 C 0.20347 0.78382 0.28625 0.0
C1912 C 0.22768 0.96573 0.28731 0.0
C1913 C 0.21557 0.02058 0.28765 0.0
C1914 C 0.20792 0.86561 0.28647 0.0
C1915 C 0.19971 0.99539 0.28718 0.0
C1916 C 0.18747 0.76093 0.28599 0.0
C1917 C 0.21167 0.65396 0.28647 0.0
N1918 N 0.19637 0.91986 0.28666 0.0
N1919 N 0.21502 0.72956 0.28647 0.0
H1920 H 0.94869 0.46749 0.52452 0.0
H1921 H 0.96228 0.8811 0.5509 0.0
H1922 H 0.98283 0.51614 0.55044 0.0
H1923 H 0.93076 0.83814 0.52318 0.0
H1924 H 0.96957 0.74697 0.55099 0.0
H1925 H 0.94165 0.60231 0.52399 0.0
C1926 C 0.95474 0.50636 0.53009 0.0
C1927 C 0.96638 0.48005 0.53754 0.0
C1928 C 0.96106 0.76684 0.54488 0.0
C1929 C 0.95837 0.63483 0.53697 0.0
C1930 C 0.95692 0.84368 0.5448 0.0
C1931 C 0.94592 0.87148 0.53699 0.0
C1932 C 0.95415 0.71692 0.53712 0.0
C1933 C 0.93915 0.8195 0.52943 0.0
C1934 C 0.95074 0.58347 0.52976 0.0
C1935 C 0.97394 0.53359 0.54445 0.0
N1936 N 0.94339 0.74486 0.52968 0.0
N1937 N 0.96976 0.60817 0.54403 0.0
H1938 H 0.31797 0.40435 0.52101 0.0
H1939 H 0.26788 0.73247 0.55106 0.0
H1940 H 0.28839 0.36789 0.54992 0.0
H1941 H 0.30089 0.77456 0.52422 0.0
H1942 H 0.27433 0.59753 0.55013 0.0
H1943 H 0.31135 0.5394 0.52164 0.0
C1944 C 0.31018 0.42466 0.52754 0.0
C1945 C 0.30371 0.37444 0.53542 0.0
C1946 C 0.28016 0.63623 0.54443 0.0
C1947 C 0.29591 0.529 0.53609 0.0
C1948 C 0.27638 0.71331 0.5449 0.0
C1949 C 0.28384 0.76503 0.5377 0.0
C1950 C 0.29146 0.61042 0.53668 0.0
C1951 C 0.29499 0.73689 0.53001 0.0
C1952 C 0.30632 0.5018 0.52785 0.0
C1953 C 0.29347 0.40413 0.54358 0.0
N1954 N 0.29845 0.66146 0.5297 0.0
N1955 N 0.28988 0.47937 0.5437 0.0
H1956 H 0.9347 0.4005 0.71677 0.0
H1957 H 0.98485 0.72751 0.68655 0.0
H1958 H 0.96439 0.36299 0.68793 0.0
H1959 H 0.95287 0.77034 0.714 0.0
H1960 H 0.97825 0.59285 0.6875 0.0
H1961 H 0.94153 0.53543 0.71622 0.0
C1962 C 0.94257 0.42051 0.71028 0.0
C1963 C 0.949 0.36996 0.70239 0.0
C1964 C 0.97269 0.63163 0.69334 0.0
C1965 C 0.95704 0.52453 0.7018 0.0
C1966 C 0.97656 0.70865 0.69286 0.0
C1967 C 0.96944 0.76065 0.70022 0.0
C1968 C 0.96161 0.60598 0.70124 0.0
C1969 C 0.95853 0.73261 0.70808 0.0
C1970 C 0.94655 0.49761 0.71001 0.0
C1971 C 0.95933 0.3994 0.69428 0.0
N1972 N 0.95495 0.65723 0.70838 0.0
N1973 N 0.96302 0.47457 0.6942 0.0
H1974 H 0.32452 0.83333 0.70173 0.0
H1975 H 0.25647 0.51518 0.70129 0.0
H1976 H 0.27433 0.88396 0.70253 0.0
H1977 H 0.30665 0.46536 0.69935 0.0
H1978 H 0.26277 0.65053 0.70247 0.0
H1979 H 0.31822 0.69771 0.70172 0.0
C1980 C 0.31218 0.81588 0.70195 0.0
C1981 C 0.29995 0.87004 0.70205 0.0
C1982 C 0.2724 0.6099 0.70183 0.0
C1983 C 0.29262 0.71509 0.70197 0.0
C1984 C 0.2688 0.53264 0.70111 0.0
C1985 C 0.28103 0.47873 0.70021 0.0
C1986 C 0.28835 0.63347 0.70162 0.0
C1987 C 0.29683 0.50461 0.70018 0.0
C1988 C 0.30858 0.73851 0.7019 0.0
C1989 C 0.28414 0.84432 0.70223 0.0
N1990 N 0.30002 0.58012 0.70083 0.0
N1991 N 0.28094 0.76868 0.70218 0.0
H1992 H 0.07564 0.16872 0.45485 0.0
H1993 H 0.00783 0.48574 0.44868 0.0
H1994 H 0.02584 0.11709 0.45071 0.0
H1995 H 0.05792 0.53671 0.45114 0.0
H1996 H 0.01408 0.35042 0.45004 0.0
H1997 H 0.06927 0.30431 0.45427 0.0
C1998 C 0.06337 0.18593 0.45385 0.0
C1999 C 0.05129 0.13147 0.45275 0.0
C2000 C 0.02369 0.39131 0.45031 0.0
C2001 C 0.04387 0.28641 0.45203 0.0
C2002 C 0.02013 0.46861 0.44949 0.0
C2003 C 0.03235 0.52294 0.44979 0.0
C2004 C 0.03959 0.36804 0.45142 0.0
C2005 C 0.04807 0.49727 0.45102 0.0
C2006 C 0.05973 0.26328 0.45347 0.0
C2007 C 0.03558 0.15692 0.45137 0.0
N2008 N 0.05123 0.42175 0.45176 0.0
N2009 N 0.03234 0.23252 0.45106 0.0
H2010 H 0.7109 0.62783 0.43727 0.0
H2011 H 0.69831 0.21727 0.46441 0.0
H2012 H 0.68168 0.58836 0.46628 0.0
H2013 H 0.73085 0.26269 0.43742 0.0
H2014 H 0.69152 0.35233 0.46502 0.0
H2015 H 0.71782 0.49332 0.43697 0.0
C2016 C 0.70599 0.59097 0.44361 0.0
C2017 C 0.69575 0.61966 0.45185 0.0
C2018 C 0.70019 0.33274 0.45899 0.0
C2019 C 0.7035 0.46513 0.45148 0.0
C2020 C 0.70402 0.25562 0.45861 0.0
C2021 C 0.71516 0.2286 0.45084 0.0
C2022 C 0.70749 0.38315 0.45151 0.0
C2023 C 0.72236 0.28103 0.44363 0.0
C2024 C 0.7099 0.51404 0.44341 0.0
C2025 C 0.68948 0.56878 0.45971 0.0
N2026 N 0.71835 0.35571 0.44411 0.0
N2027 N 0.69348 0.49397 0.45935 0.0
H2028 H 0.00827 0.26058 0.28485 0.0
H2029 H 0.07643 0.57803 0.28677 0.0
H2030 H 0.05831 0.21024 0.28795 0.0
H2031 H 0.02635 0.62951 0.28479 0.0
H2032 H 0.07005 0.44253 0.28646 0.0
H2033 H 0.01465 0.39602 0.28417 0.0
C2034 C 0.02058 0.27794 0.28539 0.0
C2035 C 0.03275 0.22383 0.28647 0.0
C2036 C 0.06045 0.48348 0.2861 0.0
C2037 C 0.04017 0.37868 0.28564 0.0
C2038 C 0.0641 0.56079 0.28624 0.0
C2039 C 0.05192 0.61516 0.28588 0.0
C2040 C 0.04449 0.4603 0.28558 0.0
C2041 C 0.03612 0.5897 0.2853 0.0
C2042 C 0.02424 0.35525 0.28496 0.0
C2043 C 0.04854 0.24961 0.28696 0.0
N2044 N 0.03286 0.51409 0.28516 0.0
N2045 N 0.05178 0.32515 0.28658 0.0
H2046 H 0.68248 0.15178 0.27207 0.0
H2047 H 0.73225 0.47976 0.30244 0.0
H2048 H 0.71174 0.11524 0.30116 0.0
H2049 H 0.69964 0.52199 0.27536 0.0
H2050 H 0.7258 0.34485 0.30146 0.0
H2051 H 0.68912 0.28682 0.27274 0.0
C2052 C 0.69021 0.17206 0.27865 0.0
C2053 C 0.69658 0.12182 0.28657 0.0
C2054 C 0.72005 0.38357 0.29572 0.0
C2055 C 0.7044 0.27638 0.28728 0.0
C2056 C 0.72384 0.46064 0.29622 0.0
C2057 C 0.71649 0.51241 0.28897 0.0
C2058 C 0.70886 0.35779 0.28789 0.0
C2059 C 0.70545 0.4843 0.2812 0.0
C2060 C 0.69408 0.2492 0.27898 0.0
C2061 C 0.70674 0.15149 0.29478 0.0
N2062 N 0.70198 0.40888 0.28086 0.0
N2063 N 0.71034 0.22672 0.29492 0.0
H2064 H 0.95095 0.97477 0.02393 0.0
H2065 H 0.96398 0.38767 0.05078 0.0
H2066 H 0.98422 0.0226 0.05044 0.0
H2067 H 0.93245 0.34523 0.02305 0.0
H2068 H 0.97128 0.25354 0.05081 0.0
H2069 H 0.94382 0.10956 0.02346 0.0
C2070 C 0.95679 0.0134 0.02964 0.0
C2071 C 0.96823 0.98682 0.03724 0.0
C2072 C 0.96275 0.2735 0.04471 0.0
C2073 C 0.96012 0.1416 0.03674 0.0
C2074 C 0.95861 0.35035 0.04466 0.0
C2075 C 0.94761 0.37831 0.03687 0.0
C2076 C 0.95586 0.2237 0.03692 0.0
C2077 C 0.94085 0.32646 0.02929 0.0
C2078 C 0.95274 0.09051 0.02935 0.0
C2079 C 0.97551 0.04014 0.04433 0.0
N2080 N 0.9451 0.2518 0.02949 0.0
N2081 N 0.97129 0.11467 0.04394 0.0
H2082 H 0.2757 0.8606 0.03443 0.0
H2083 H 0.30908 0.28481 0.03841 0.0
H2084 H 0.32556 0.91587 0.03692 0.0
H2085 H 0.25913 0.23066 0.03591 0.0
H2086 H 0.31535 0.15016 0.03703 0.0
H2087 H 0.2694 0.99587 0.03436 0.0
C2088 C 0.28533 0.90119 0.03504 0.0
C2089 C 0.30119 0.87699 0.03581 0.0
C2090 C 0.30302 0.16767 0.03673 0.0
C2091 C 0.29407 0.03197 0.03557 0.0
C2092 C 0.29941 0.24475 0.03744 0.0
C2093 C 0.28352 0.26921 0.03726 0.0
C2094 C 0.29066 0.11442 0.03586 0.0
C2095 C 0.27152 0.21429 0.03622 0.0
C2096 C 0.28173 0.97847 0.03491 0.0
C2097 C 0.3132 0.93217 0.03627 0.0
N2098 N 0.27533 0.13938 0.03558 0.0
N2099 N 0.30938 0.00715 0.03619 0.0
H2100 H 0.97386 0.83804 0.2024 0.0
H2101 H 0.94157 0.26608 0.20263 0.0
H2102 H 0.924 0.89611 0.20281 0.0
H2103 H 0.99136 0.20737 0.20139 0.0
H2104 H 0.93494 0.1313 0.20366 0.0
H2105 H 0.98047 0.97288 0.2026 0.0
C2106 C 0.96427 0.87902 0.20243 0.0
C2107 C 0.94831 0.85538 0.20249 0.0
C2108 C 0.94733 0.14784 0.20323 0.0
C2109 C 0.95586 0.01061 0.20291 0.0
C2110 C 0.95115 0.225 0.20275 0.0
C2111 C 0.96709 0.24833 0.20196 0.0
C2112 C 0.95951 0.09329 0.20292 0.0
C2113 C 0.97893 0.19206 0.20189 0.0
C2114 C 0.96807 0.95623 0.20264 0.0
C2115 C 0.93645 0.91154 0.20282 0.0
N2116 N 0.9749 0.11724 0.20234 0.0
N2117 N 0.94046 0.98647 0.20299 0.0
H2118 H 0.31827 0.33126 0.21685 0.0
H2119 H 0.2677 0.00327 0.18714 0.0
H2120 H 0.28825 0.36784 0.18815 0.0
H2121 H 0.30102 0.96111 0.21379 0.0
H2122 H 0.27419 0.13818 0.18802 0.0
H2123 H 0.31161 0.19624 0.21626 0.0
C2124 C 0.31037 0.31099 0.21037 0.0
C2125 C 0.30379 0.36124 0.20254 0.0
C2126 C 0.28008 0.09948 0.19369 0.0
C2127 C 0.29595 0.20669 0.20192 0.0
C2128 C 0.27628 0.0224 0.19325 0.0
C2129 C 0.28382 0.97066 0.20041 0.0
C2130 C 0.29148 0.12528 0.20137 0.0
C2131 C 0.29506 -0.00121 0.20803 0.0
C2132 C 0.30649 0.23386 0.21009 0.0
C2133 C 0.29342 0.33158 0.19445 0.0
N2134 N 0.29854 0.07421 0.20832 0.0
N2135 N 0.28981 0.25636 0.19436 0.0
H2136 H 0.04684 0.02665 0.96433 0.0
H2137 H 0.03861 0.61622 0.936 0.0
H2138 H 0.0181 0.98163 0.93524 0.0
H2139 H 0.06328 0.65594 0.96705 0.0
H2140 H 0.03167 0.75077 0.9353 0.0
H2141 H 0.0537 0.89177 0.96519 0.0
C2142 C 0.04198 0.98845 0.95812 0.0
C2143 C 0.03188 0.0156 0.9497 0.0
C2144 C 0.03861 0.73004 0.94226 0.0
C2145 C 0.03965 0.86103 0.95064 0.0
C2146 C 0.04253 0.65307 0.9427 0.0
C2147 C 0.0515 0.62436 0.95162 0.0
C2148 C 0.04372 0.779 0.9508 0.0
C2149 C 0.05651 0.67537 0.95994 0.0
C2150 C 0.04585 0.91138 0.95864 0.0
C2151 C 0.02576 0.96323 0.94196 0.0
N2152 N 0.05252 0.75013 0.95934 0.0
N2153 N 0.02979 0.88857 0.94259 0.0
H2154 H 0.70171 0.71408 0.96409 0.0
H2155 H 0.70845 0.12486 0.93591 0.0
H2156 H 0.72873 0.75982 0.93425 0.0
H2157 H 0.68525 0.08518 0.96748 0.0
H2158 H 0.7153 0.99037 0.93494 0.0
H2159 H 0.69489 0.84894 0.96527 0.0
C2160 C 0.7062 0.75241 0.95778 0.0
C2161 C 0.7158 0.72544 0.94905 0.0
C2162 C 0.70871 0.01104 0.94209 0.0
C2163 C 0.70808 0.88 0.95037 0.0
C2164 C 0.70484 0.088 0.94267 0.0
C2165 C 0.69632 0.11673 0.95182 0.0
C2166 C 0.70401 0.96203 0.95071 0.0
C2167 C 0.69168 0.06569 0.96021 0.0
C2168 C 0.70236 0.82947 0.95849 0.0
C2169 C 0.72146 0.77802 0.9412 0.0
N2170 N 0.69561 0.99087 0.95946 0.0
N2171 N 0.71747 0.85264 0.94203 0.0
H2172 H 0.059 0.72156 0.78965 0.0
H2173 H 0.02678 0.147 0.78442 0.0
H2174 H 0.00987 0.77655 0.78296 0.0
H2175 H 0.0764 0.08972 0.78795 0.0
H2176 H 0.02025 0.01187 0.78414 0.0
H2177 H 0.06553 0.85602 0.789 0.0
C2178 C 0.04959 0.76168 0.78788 0.0
C2179 C 0.03384 0.73732 0.78629 0.0
C2180 C 0.03257 0.0288 0.78498 0.0
C2181 C 0.04125 0.89228 0.78578 0.0
C2182 C 0.0363 0.106 0.78524 0.0
C2183 C 0.05217 0.12966 0.7863 0.0
C2184 C 0.04478 0.97477 0.78582 0.0
C2185 C 0.06404 0.07393 0.78705 0.0
C2186 C 0.05333 0.83875 0.7876 0.0
C2187 C 0.02213 0.79259 0.78433 0.0
N2188 N 0.0601 -0.00094 0.78684 0.0
N2189 N 0.02607 0.86754 0.78415 0.0
H2190 H 0.68836 0.0305 0.78534 0.0
H2191 H 0.72166 0.60525 0.78516 0.0
H2192 H 0.73822 0.97513 0.78797 0.0
H2193 H 0.67186 0.66152 0.78257 0.0
H2194 H 0.72804 0.74033 0.78573 0.0
H2195 H 0.68223 0.89597 0.78361 0.0
C2196 C 0.69807 0.99026 0.78543 0.0
C2197 C 0.71387 0.01447 0.78678 0.0
C2198 C 0.71571 0.72322 0.78504 0.0
C2199 C 0.70686 0.85953 0.78498 0.0
C2200 C 0.71204 0.64599 0.7848 0.0
C2201 C 0.69616 0.62203 0.78394 0.0
C2202 C 0.70343 0.77703 0.78442 0.0
C2203 C 0.68425 0.67755 0.78319 0.0
C2204 C 0.69453 0.91316 0.78452 0.0
C2205 C 0.72587 0.9591 0.78707 0.0
N2206 N 0.68812 0.7525 0.78349 0.0
N2207 N 0.72212 0.88419 0.78619 0.0
H2208 H 0.351 0.57743 0.06033 0.0
H2209 H 0.40573 0.25056 0.03413 0.0
H2210 H 0.33441 0.42217 0.03492 0.0
H2211 H 0.42049 0.40317 0.06042 0.0
H2212 H 0.37949 0.31113 0.03418 0.0
H2213 H 0.37651 0.51245 0.06041 0.0
C2214 C 0.35271 0.52954 0.05476 0.0
C2215 C 0.34056 0.50539 0.04758 0.0
C2216 C 0.38848 0.33112 0.03995 0.0
C2217 C 0.36985 0.43051 0.04761 0.0
C2218 C 0.40346 0.29666 0.03991 0.0
C2219 C 0.41531 0.32186 0.04728 0.0
C2220 C 0.38542 0.3912 0.04738 0.0
C2221 C 0.41172 0.38171 0.0546 0.0
C2222 C 0.36731 0.49237 0.05481 0.0
C2223 C 0.34347 0.44282 0.04057 0.0
N2224 N 0.39712 0.41433 0.05445 0.0
N2225 N 0.35786 0.40757 0.04075 0.0
H2226 H 0.85238 0.08195 0.05922 0.0
H2227 H 0.90659 0.75061 0.03373 0.0
H2228 H 0.83551 0.92504 0.03413 0.0
H2229 H 0.92113 0.90146 0.0603 0.0
H2230 H 0.8805 0.81272 0.03354 0.0
H2231 H 0.87771 0.01544 0.05953 0.0
C2232 C 0.85399 0.0334 0.05377 0.0
C2233 C 0.84181 0.00919 0.04661 0.0
C2234 C 0.88942 0.83197 0.03942 0.0
C2235 C 0.8709 0.9325 0.04691 0.0
C2236 C 0.9043 0.79663 0.03953 0.0
C2237 C 0.91606 0.82096 0.04704 0.0
C2238 C 0.88635 0.89208 0.04685 0.0
C2239 C 0.91245 0.88072 0.05437 0.0
C2240 C 0.86849 0.99532 0.05395 0.0
C2241 C 0.8446 0.94574 0.03976 0.0
N2242 N 0.89794 0.91424 0.05407 0.0
N2243 N 0.85889 0.90961 0.04005 0.0
H2244 H 0.35254 0.66498 0.17899 0.0
H2245 H 0.40723 0.99221 0.20511 0.0
H2246 H 0.33613 0.81705 0.20486 0.0
H2247 H 0.4207 0.85017 0.17726 0.0
H2248 H 0.3812 0.9295 0.20543 0.0
H2249 H 0.37772 0.73269 0.17854 0.0
C2250 C 0.35422 0.7127 0.18459 0.0
C2251 C 0.34221 0.73521 0.192 0.0
C2252 C 0.38986 0.91235 0.19924 0.0
C2253 C 0.37114 0.81332 0.19153 0.0
C2254 C 0.40471 0.94804 0.19906 0.0
C2255 C 0.41618 0.92627 0.19116 0.0
C2256 C 0.38652 0.85442 0.1915 0.0
C2257 C 0.41227 0.86885 0.1835 0.0
C2258 C 0.36863 0.75151 0.18432 0.0
C2259 C 0.34508 0.7977 0.19903 0.0
N2260 N 0.39781 0.83488 0.18389 0.0
N2261 N 0.3593 0.83453 0.19865 0.0
H2262 H 0.83394 0.3221 0.20451 0.0
H2263 H 0.92208 0.32515 0.17938 0.0
H2264 H 0.85179 0.15992 0.18049 0.0
H2265 H 0.90619 0.48643 0.20419 0.0
H2266 H 0.89601 0.26593 0.17966 0.0
H2267 H 0.85992 0.38528 0.20446 0.0
C2268 C 0.8433 0.29982 0.19923 0.0
C2269 C 0.8407 0.23554 0.1925 0.0
C2270 C 0.89816 0.31431 0.18505 0.0
C2271 C 0.87035 0.30736 0.19242 0.0
C2272 C 0.91308 0.34833 0.18488 0.0
C2273 C 0.91631 0.41103 0.19175 0.0
C2274 C 0.8863 0.34305 0.19213 0.0
C2275 C 0.90419 0.43816 0.19876 0.0
C2276 C 0.85811 0.33587 0.19921 0.0
C2277 C 0.85323 0.2092 0.18582 0.0
N2278 N 0.88967 0.404 0.19876 0.0
N2279 N 0.86748 0.24517 0.18596 0.0
H2280 H 0.64053 0.40998 0.94111 0.0
H2281 H 0.60754 0.83339 0.94077 0.0
H2282 H 0.67048 0.60362 0.94808 0.0
H2283 H 0.57799 0.64131 0.94918 0.0
H2284 H 0.63082 0.7495 0.94084 0.0
H2285 H 0.61726 0.49395 0.94145 0.0
C2286 C 0.64219 0.47011 0.94271 0.0
C2287 C 0.65741 0.49996 0.94461 0.0
C2288 C 0.61923 0.72596 0.94271 0.0
C2289 C 0.631 0.59593 0.94488 0.0
C2290 C 0.60596 0.77361 0.94263 0.0
C2291 C 0.59086 0.74415 0.94501 0.0
C2292 C 0.61728 0.64822 0.94496 0.0
C2293 C 0.58945 0.66634 0.94739 0.0
C2294 C 0.62894 0.5178 0.94294 0.0
C2295 C 0.65894 0.57822 0.94666 0.0
N2296 N 0.60249 0.62084 0.94722 0.0
N2297 N 0.64589 0.6237 0.94666 0.0
H2298 H 0.1416 0.91294 0.94088 0.0
H2299 H 0.10672 0.33265 0.94032 0.0
H2300 H 0.17046 0.10945 0.94838 0.0
H2301 H 0.07781 0.13766 0.94843 0.0
H2302 H 0.13034 0.25108 0.94059 0.0
H2303 H 0.11794 0.9944 0.94096 0.0
C2304 C 0.14295 0.97319 0.94253 0.0
C2305 C 0.15796 0.00458 0.94466 0.0
C2306 C 0.11881 0.22639 0.94234 0.0
C2307 C 0.13111 0.09768 0.94464 0.0
C2308 C 0.10536 0.27271 0.94215 0.0
C2309 C 0.09034 0.24179 0.94439 0.0
C2310 C 0.11715 0.14848 0.94458 0.0
C2311 C 0.08921 0.16383 0.94674 0.0
C2312 C 0.12947 0.01943 0.94262 0.0
C2313 C 0.15907 0.08291 0.94679 0.0
N2314 N 0.10244 0.11962 0.94669 0.0
N2315 N 0.14582 0.12697 0.94664 0.0
H2316 H 0.66927 0.13622 0.78891 0.0
H2317 H 0.57507 0.10851 0.7897 0.0
H2318 H 0.63956 0.3284 0.7971 0.0
H2319 H 0.60507 0.91613 0.79715 0.0
H2320 H 0.59859 0.19028 0.78943 0.0
H2321 H 0.64574 0.05449 0.78895 0.0
C2322 C 0.65778 0.16124 0.79065 0.0
C2323 C 0.65632 0.23911 0.79299 0.0
C2324 C 0.6 0.13017 0.79112 0.0
C2325 C 0.62944 0.14627 0.79298 0.0
C2326 C 0.58662 0.08345 0.79121 0.0
C2327 C 0.58817 0.00551 0.79344 0.0
C2328 C 0.61503 0.0984 0.79308 0.0
C2329 C 0.60339 0.97603 0.79544 0.0
C2330 C 0.6444 0.11454 0.79073 0.0
C2331 C 0.64118 0.26856 0.79529 0.0
N2332 N 0.61628 0.02249 0.79514 0.0
N2333 N 0.62827 0.22212 0.79515 0.0
H2334 H 0.09402 0.49732 0.7841 0.0
H2335 H 0.149 0.82196 0.81057 0.0
H2336 H 0.08017 0.64186 0.81159 0.0
H2337 H 0.16521 0.67017 0.7846 0.0
H2338 H 0.12367 0.7555 0.81089 0.0
H2339 H 0.12016 0.55873 0.78399 0.0
C2340 C 0.09648 0.54177 0.79012 0.0
C2341 C 0.08489 0.56458 0.79786 0.0
C2342 C 0.13275 0.73648 0.80512 0.0
C2343 C 0.11468 0.63495 0.79776 0.0
C2344 C 0.14724 0.77454 0.80493 0.0
C2345 C 0.15924 0.75175 0.79752 0.0
C2346 C 0.13015 0.67515 0.79784 0.0
C2347 C 0.15627 0.68971 0.79043 0.0
C2348 C 0.1114 0.57672 0.79006 0.0
C2349 C 0.08872 0.62233 0.80548 0.0
N2350 N 0.14198 0.65361 0.79074 0.0
N2351 N 0.10325 0.65558 0.80521 0.0
H2352 H 0.42249 0.90254 0.56114 0.0
H2353 H 0.33602 0.91771 0.53336 0.0
H2354 H 0.40812 0.75265 0.53441 0.0
H2355 H 0.35294 0.07495 0.55839 0.0
H2356 H 0.36176 0.85253 0.53396 0.0
H2357 H 0.39645 0.96226 0.56061 0.0
C2358 C 0.41383 0.88195 0.55517 0.0
C2359 C 0.4175 0.82247 0.5478 0.0
C2360 C 0.3598 0.90129 0.53931 0.0
C2361 C 0.38755 0.89104 0.54714 0.0
C2362 C 0.34512 0.93848 0.53898 0.0
C2363 C 0.34234 0.00201 0.54582 0.0
C2364 C 0.37172 0.92781 0.54655 0.0
C2365 C 0.35454 0.02637 0.55295 0.0
C2366 C 0.39894 0.91627 0.55486 0.0
C2367 C 0.40579 0.79845 0.54023 0.0
N2368 N 0.36867 0.98928 0.55312 0.0
N2369 N 0.39131 0.83289 0.54008 0.0
H2370 H 0.83304 0.41589 0.5341 0.0
H2371 H 0.91952 0.38922 0.56159 0.0
H2372 H 0.85077 0.5687 0.55944 0.0
H2373 H 0.90473 0.24649 0.53414 0.0
H2374 H 0.89367 0.45069 0.56137 0.0
H2375 H 0.85854 0.34852 0.5344 0.0
C2376 C 0.84227 0.43528 0.53972 0.0
C2377 C 0.83979 0.49821 0.54673 0.0
C2378 C 0.89603 0.40592 0.55538 0.0
C2379 C 0.86888 0.42143 0.54713 0.0
C2380 C 0.91081 0.3706 0.55551 0.0
C2381 C 0.91432 0.31266 0.54785 0.0
C2382 C 0.88457 0.38327 0.54754 0.0
C2383 C 0.90253 0.29106 0.54018 0.0
C2384 C 0.85681 0.39682 0.53988 0.0
C2385 C 0.85214 0.52067 0.55387 0.0
N2386 N 0.88815 0.32649 0.54021 0.0
N2387 N 0.86612 0.48234 0.55388 0.0
H2388 H 0.33226 0.32702 0.70352 0.0
H2389 H 0.42028 0.33572 0.67827 0.0
H2390 H 0.35008 0.16863 0.67896 0.0
H2391 H 0.40447 0.49043 0.70399 0.0
H2392 H 0.39414 0.27705 0.67816 0.0
H2393 H 0.35814 0.39093 0.70355 0.0
C2394 C 0.34159 0.30573 0.69813 0.0
C2395 C 0.33902 0.24221 0.69125 0.0
C2396 C 0.39633 0.32387 0.68383 0.0
C2397 C 0.36857 0.31495 0.69124 0.0
C2398 C 0.41129 0.35757 0.68389 0.0
C2399 C 0.41457 0.41815 0.69115 0.0
C2400 C 0.3845 0.35082 0.69108 0.0
C2401 C 0.40244 0.44376 0.69826 0.0
C2402 C 0.35635 0.34221 0.69816 0.0
C2403 C 0.35151 0.21723 0.68442 0.0
N2404 N 0.3879 0.4099 0.69805 0.0
N2405 N 0.36572 0.2536 0.6846 0.0
H2406 H 0.85962 0.65389 0.69119 0.0
H2407 H 0.89466 0.07252 0.68893 0.0
H2408 H 0.83071 0.85148 0.69793 0.0
H2409 H 0.92326 0.88016 0.69875 0.0
H2410 H 0.87101 0.99109 0.68935 0.0
H2411 H 0.88328 0.73532 0.6911 0.0
C2412 C 0.85827 0.71437 0.69264 0.0
C2413 C 0.84324 0.7461 0.69462 0.0
C2414 C 0.88248 0.96697 0.69144 0.0
C2415 C 0.87009 0.83913 0.69438 0.0
C2416 C 0.89595 0.01317 0.69116 0.0
C2417 C 0.91088 0.98295 0.69386 0.0
C2418 C 0.88405 0.88982 0.6942 0.0
C2419 C 0.91193 0.90578 0.69671 0.0
C2420 C 0.87174 0.76059 0.69263 0.0
C2421 C 0.84211 0.82472 0.69647 0.0
N2422 N 0.89869 0.86159 0.69673 0.0
N2423 N 0.85537 0.86875 0.69622 0.0
H2424 H 0.64683 0.92172 0.42875 0.0
H2425 H 0.59147 0.24487 0.45526 0.0
H2426 H 0.66295 0.07379 0.45471 0.0
H2427 H 0.57802 0.1018 0.42751 0.0
H2428 H 0.61767 0.18376 0.45543 0.0
H2429 H 0.62145 0.98779 0.42843 0.0
C2430 C 0.64504 0.96912 0.43439 0.0
C2431 C 0.65703 0.99211 0.44179 0.0
C2432 C 0.60897 0.16602 0.4493 0.0
C2433 C 0.62787 0.06828 0.44148 0.0
C2434 C 0.59403 0.20079 0.4492 0.0
C2435 C 0.58253 0.17828 0.44137 0.0
C2436 C 0.61237 0.10829 0.44154 0.0
C2437 C 0.58648 0.12102 0.4337 0.0
C2438 C 0.63052 0.00697 0.4342 0.0
C2439 C 0.65402 0.05411 0.44888 0.0
N2440 N 0.60104 0.08796 0.43401 0.0
N2441 N 0.6397 0.09 0.44858 0.0
H2442 H 0.07769 0.64501 0.44798 0.0
H2443 H 0.17194 0.62076 0.44956 0.0
H2444 H 0.10739 0.83983 0.44138 0.0
H2445 H 0.14273 0.42988 0.43992 0.0
H2446 H 0.14823 0.70151 0.44977 0.0
H2447 H 0.1014 0.56436 0.44822 0.0
C2448 C 0.08921 0.67082 0.44665 0.0
C2449 C 0.09063 0.74911 0.44466 0.0
C2450 C 0.14705 0.64193 0.44762 0.0
C2451 C 0.1177 0.65753 0.445 0.0
C2452 C 0.16052 0.59577 0.44757 0.0
C2453 C 0.15925 0.51859 0.44473 0.0
C2454 C 0.13219 0.61027 0.44502 0.0
C2455 C 0.14421 0.48922 0.4421 0.0
C2456 C 0.1027 0.62477 0.44672 0.0
C2457 C 0.10581 0.77962 0.44289 0.0
N2458 N 0.13121 0.53505 0.44239 0.0
N2459 N 0.11881 0.73377 0.44318 0.0
H2460 H 0.5781 0.641 0.31158 0.0
H2461 H 0.66447 0.66533 0.28387 0.0
H2462 H 0.59236 0.49917 0.28389 0.0
H2463 H 0.64701 0.81863 0.30924 0.0
H2464 H 0.63886 0.5988 0.28419 0.0
H2465 H 0.60405 0.70139 0.31132 0.0
C2466 C 0.58671 0.62236 0.30544 0.0
C2467 C 0.58302 0.56502 0.29772 0.0
C2468 C 0.64068 0.64701 0.28968 0.0
C2469 C 0.6129 0.63439 0.29737 0.0
C2470 C 0.65528 0.68496 0.28951 0.0
C2471 C 0.65787 0.74779 0.29652 0.0
C2472 C 0.62865 0.672 0.29694 0.0
C2473 C 0.64556 0.77067 0.30366 0.0
C2474 C 0.60156 0.65707 0.30528 0.0
C2475 C 0.5947 0.54333 0.28997 0.0
N2476 N 0.63152 0.73281 0.30368 0.0
N2477 N 0.60915 0.57815 0.28999 0.0
H2478 H 0.15471 0.25458 0.28363 0.0
H2479 H 0.10103 0.92241 0.30929 0.0
H2480 H 0.16901 0.10804 0.3107 0.0
H2481 H 0.08418 0.0735 0.28351 0.0
H2482 H 0.12612 0.99073 0.30963 0.0
H2483 H 0.12887 0.18998 0.28317 0.0
C2484 C 0.15241 0.20902 0.28948 0.0
C2485 C 0.16403 0.18669 0.29722 0.0
C2486 C 0.11696 0.00919 0.30389 0.0
C2487 C 0.13462 0.11274 0.29672 0.0
C2488 C 0.1026 0.97005 0.30369 0.0
C2489 C 0.09049 0.99211 0.29634 0.0
C2490 C 0.11932 0.07099 0.29669 0.0
C2491 C 0.09322 0.05447 0.2893 0.0
C2492 C 0.13768 0.17225 0.28922 0.0
C2493 C 0.16043 0.12737 0.3046 0.0
N2494 N 0.10739 0.09176 0.28963 0.0
N2495 N 0.14608 0.0925 0.30415 0.0
loop_
_geom_bond_atom_site_label_1
_geom_bond_atom_site_label_2
_geom_bond_distance
_geom_bond_site_symmetry_2
_ccdc_geom_bond_type
Co0 N4 2.148 . S
Co0 N10 2.128 . S
Co0 N20 2.194 . S
Co0 O25 2.351 . S
Co0 O26 2.155 . S
Co0 O27 2.096 . S
C1 N4 1.301 . S
C1 N5 1.328 1_545 S
C1 H6 0.930 . S
C2 C3 1.333 1_545 S
C2 N4 1.317 . S
C2 H7 0.930 . S
C3 C2 1.333 1_565 S
C3 N5 1.350 . S
C3 H29 0.931 . S
N4 Co0 2.148 . S
N4 C1 1.301 . S
N4 C2 1.317 . S
N5 C1 1.328 1_565 S
N5 C3 1.350 . S
H6 C1 0.930 . S
H7 C2 0.930 . S
C8 O9 1.224 . S
C8 O27 1.247 . S
O9 C8 1.224 . S
N10 Co0 2.128 . S
N10 C11 1.355 . S
N10 C13 1.311 . S
C11 N10 1.355 . S
C11 C12 1.363 . S
C11 H23 0.929 . S
C12 C11 1.363 . S
C12 N14 1.375 . S
C12 H30 0.931 . S
C13 N10 1.311 . S
C13 N14 1.347 . S
C13 H24 0.929 . S
N14 C12 1.375 . S
N14 C13 1.347 . S
C15 C18 1.365 . S
C15 N20 1.328 . S
C15 H21 0.929 . S
C16 C17 1.362 . S
C16 C19 1.378 . S
C16 H31 0.929 . S
C17 C16 1.362 . S
C17 C18 1.366 . S
C18 C15 1.365 . S
C18 C17 1.366 . S
C18 H32 0.930 . S
C19 C16 1.378 . S
C19 N20 1.315 . S
C19 H22 0.930 . S
N20 Co0 2.194 . S
N20 C15 1.328 . S
N20 C19 1.315 . S
H21 C15 0.929 . S
H22 C19 0.930 . S
H23 C11 0.929 . S
H24 C13 0.929 . S
O25 Co0 2.351 . S
O25 C28 1.244 . S
O26 Co0 2.155 . S
O26 C28 1.240 . S
O27 Co0 2.096 . S
O27 C8 1.247 . S
C28 O25 1.244 . S
C28 O26 1.240 . S
H29 C3 0.931 . S
H30 C12 0.931 . S
H31 C16 0.929 . S
H32 C18 0.930 . S
Co33 N37 2.148 . S
Co33 N43 2.128 1_545 S
Co33 N53 2.194 . S
Co33 O58 2.351 . S
Co33 O59 2.155 . S
Co33 O60 2.096 . S
C34 N37 1.301 . S
C34 N38 1.328 . S
C34 H39 0.930 . S
C35 C36 1.333 . S
C35 N37 1.317 . S
C35 H40 0.930 . S
C36 C35 1.333 . S
C36 N38 1.350 . S
C36 H62 0.931 . S
N37 Co33 2.148 . S
N37 C34 1.301 . S
N37 C35 1.317 . S
N38 C34 1.328 . S
N38 C36 1.350 . S
H39 C34 0.930 . S
H40 C35 0.930 . S
C41 O42 1.224 . S
C41 O60 1.247 . S
O42 C41 1.224 . S
N43 Co33 2.128 1_565 S
N43 C44 1.355 . S
N43 C46 1.311 . S
C44 N43 1.355 . S
C44 C45 1.363 . S
C44 H56 0.929 . S
C45 C44 1.363 . S
C45 N47 1.375 . S
C45 H63 0.931 . S
C46 N43 1.311 . S
C46 N47 1.347 . S
C46 H57 0.929 . S
N47 C45 1.375 . S
N47 C46 1.347 . S
C48 C51 1.365 . S
C48 N53 1.328 . S
C48 H54 0.929 . S
C49 C50 1.362 . S
C49 C52 1.378 . S
C49 H64 0.929 . S
C50 C49 1.362 . S
C50 C51 1.366 . S
C51 C48 1.365 . S
C51 C50 1.366 . S
C51 H65 0.930 . S
C52 C49 1.378 . S
C52 N53 1.315 . S
C52 H55 0.930 . S
N53 Co33 2.194 . S
N53 C48 1.328 . S
N53 C52 1.315 . S
H54 C48 0.929 . S
H55 C52 0.930 . S
H56 C44 0.929 . S
H57 C46 0.929 . S
O58 Co33 2.351 . S
O58 C61 1.244 . S
O59 Co33 2.155 . S
O59 C61 1.240 . S
O60 Co33 2.096 . S
O60 C41 1.247 . S
C61 O58 1.244 . S
C61 O59 1.240 . S
H62 C36 0.931 . S
H63 C45 0.931 . S
H64 C49 0.929 . S
H65 C51 0.930 . S
Co66 N70 2.148 . S
Co66 N76 2.128 1_545 S
Co66 N86 2.194 . S
Co66 O91 2.351 . S
Co66 O92 2.155 . S
Co66 O93 2.096 . S
C67 N70 1.301 . S
C67 N71 1.328 . S
C67 H72 0.930 . S
C68 C69 1.333 . S
C68 N70 1.317 . S
C68 H73 0.930 . S
C69 C68 1.333 . S
C69 N71 1.350 . S
C69 H95 0.931 . S
N70 Co66 2.148 . S
N70 C67 1.301 . S
N70 C68 1.317 . S
N71 C67 1.328 . S
N71 C69 1.350 . S
H72 C67 0.930 . S
H73 C68 0.930 . S
C74 O75 1.224 . S
C74 O93 1.247 . S
O75 C74 1.224 . S
N76 Co66 2.128 1_565 S
N76 C77 1.355 . S
N76 C79 1.311 . S
C77 N76 1.355 . S
C77 C78 1.363 . S
C77 H89 0.929 . S
C78 C77 1.363 . S
C78 N80 1.375 . S
C78 H96 0.931 . S
C79 N76 1.311 . S
C79 N80 1.347 . S
C79 H90 0.929 . S
N80 C78 1.375 . S
N80 C79 1.347 . S
C81 C84 1.365 . S
C81 N86 1.328 . S
C81 H87 0.929 . S
C82 C83 1.362 . S
C82 C85 1.378 . S
C82 H97 0.929 . S
C83 C82 1.362 . S
C83 C84 1.366 . S
C84 C81 1.365 . S
C84 C83 1.366 . S
C84 H98 0.930 . S
C85 C82 1.378 . S
C85 N86 1.315 . S
C85 H88 0.930 . S
N86 Co66 2.194 . S
N86 C81 1.328 . S
N86 C85 1.315 . S
H87 C81 0.929 . S
H88 C85 0.930 . S
H89 C77 0.929 . S
H90 C79 0.929 . S
O91 Co66 2.351 . S
O91 C94 1.244 . S
O92 Co66 2.155 . S
O92 C94 1.240 . S
O93 Co66 2.096 . S
O93 C74 1.247 . S
C94 O91 1.244 . S
C94 O92 1.240 . S
H95 C69 0.931 . S
H96 C78 0.931 . S
H97 C82 0.929 . S
H98 C84 0.930 . S
Co99 N103 2.148 . S
Co99 N109 2.128 . S
Co99 N119 2.194 . S
Co99 O124 2.351 . S
Co99 O125 2.155 . S
Co99 O126 2.096 . S
C100 N103 1.301 . S
C100 N104 1.328 1_545 S
C100 H105 0.930 . S
C101 C102 1.333 1_545 S
C101 N103 1.317 . S
C101 H106 0.930 . S
C102 C101 1.333 1_565 S
C102 N104 1.350 . S
C102 H128 0.931 . S
N103 Co99 2.148 . S
N103 C100 1.301 . S
N103 C101 1.317 . S
N104 C100 1.328 1_565 S
N104 C102 1.350 . S
H105 C100 0.930 . S
H106 C101 0.930 . S
C107 O108 1.224 . S
C107 O126 1.247 . S
O108 C107 1.224 . S
N109 Co99 2.128 . S
N109 C110 1.355 . S
N109 C112 1.311 . S
C110 N109 1.355 . S
C110 C111 1.363 . S
C110 H122 0.929 . S
C111 C110 1.363 . S
C111 N113 1.375 . S
C111 H129 0.931 . S
C112 N109 1.311 . S
C112 N113 1.347 . S
C112 H123 0.929 . S
N113 C111 1.375 . S
N113 C112 1.347 . S
C114 C117 1.365 . S
C114 N119 1.328 . S
C114 H120 0.929 . S
C115 C116 1.362 . S
C115 C118 1.378 . S
C115 H130 0.929 . S
C116 C115 1.362 . S
C116 C117 1.366 . S
C117 C114 1.365 . S
C117 C116 1.366 . S
C117 H131 0.930 . S
C118 C115 1.378 . S
C118 N119 1.315 . S
C118 H121 0.930 . S
N119 Co99 2.194 . S
N119 C114 1.328 . S
N119 C118 1.315 . S
H120 C114 0.929 . S
H121 C118 0.930 . S
H122 C110 0.929 . S
H123 C112 0.929 . S
O124 Co99 2.351 . S
O124 C127 1.244 . S
O125 Co99 2.155 . S
O125 C127 1.240 . S
O126 Co99 2.096 . S
O126 C107 1.247 . S
C127 O124 1.244 . S
C127 O125 1.240 . S
H128 C102 0.931 . S
H129 C111 0.931 . S
H130 C115 0.929 . S
H131 C117 0.930 . S
Co132 N136 2.148 . S
Co132 N142 2.128 . S
Co132 N152 2.194 . S
Co132 O157 2.351 . S
Co132 O158 2.155 . S
Co132 O159 2.096 . S
C133 N136 1.301 . S
C133 N137 1.328 1_565 S
C133 H138 0.930 . S
C134 C135 1.333 1_565 S
C134 N136 1.317 . S
C134 H139 0.930 . S
C135 C134 1.333 1_545 S
C135 N137 1.350 . S
C135 H161 0.931 . S
N136 Co132 2.148 . S
N136 C133 1.301 . S
N136 C134 1.317 . S
N137 C133 1.328 1_545 S
N137 C135 1.350 . S
H138 C133 0.930 . S
H139 C134 0.930 . S
C140 O141 1.224 . S
C140 O159 1.247 . S
O141 C140 1.224 . S
N142 Co132 2.128 . S
N142 C143 1.355 . S
N142 C145 1.311 . S
C143 N142 1.355 . S
C143 C144 1.363 . S
C143 H155 0.929 . S
C144 C143 1.363 . S
C144 N146 1.375 . S
C144 H162 0.931 . S
C145 N142 1.311 . S
C145 N146 1.347 . S
C145 H156 0.929 . S
N146 C144 1.375 . S
N146 C145 1.347 . S
C147 C150 1.365 . S
C147 N152 1.328 . S
C147 H153 0.929 . S
C148 C149 1.362 . S
C148 C151 1.378 . S
C148 H163 0.929 . S
C149 C148 1.362 . S
C149 C150 1.366 . S
C150 C147 1.365 . S
C150 C149 1.366 . S
C150 H164 0.930 . S
C151 C148 1.378 . S
C151 N152 1.315 . S
C151 H154 0.930 . S
N152 Co132 2.194 . S
N152 C147 1.328 . S
N152 C151 1.315 . S
H153 C147 0.929 . S
H154 C151 0.930 . S
H155 C143 0.929 . S
H156 C145 0.929 . S
O157 Co132 2.351 . S
O157 C160 1.244 . S
O158 Co132 2.155 . S
O158 C160 1.240 . S
O159 Co132 2.096 . S
O159 C140 1.247 . S
C160 O157 1.244 . S
C160 O158 1.240 . S
H161 C135 0.931 . S
H162 C144 0.931 . S
H163 C148 0.929 . S
H164 C150 0.930 . S
Co165 N169 2.148 . S
Co165 N175 2.128 1_565 S
Co165 N185 2.194 . S
Co165 O190 2.351 . S
Co165 O191 2.155 . S
Co165 O192 2.096 . S
C166 N169 1.301 . S
C166 N170 1.328 . S
C166 H171 0.930 . S
C167 C168 1.333 . S
C167 N169 1.317 . S
C167 H172 0.930 . S
C168 C167 1.333 . S
C168 N170 1.350 . S
C168 H194 0.931 . S
N169 Co165 2.148 . S
N169 C166 1.301 . S
N169 C167 1.317 . S
N170 C166 1.328 . S
N170 C168 1.350 . S
H171 C166 0.930 . S
H172 C167 0.930 . S
C173 O174 1.224 . S
C173 O192 1.247 . S
O174 C173 1.224 . S
N175 Co165 2.128 1_545 S
N175 C176 1.355 . S
N175 C178 1.311 . S
C176 N175 1.355 . S
C176 C177 1.363 . S
C176 H188 0.929 . S
C177 C176 1.363 . S
C177 N179 1.375 . S
C177 H195 0.931 . S
C178 N175 1.311 . S
C178 N179 1.347 . S
C178 H189 0.929 . S
N179 C177 1.375 . S
N179 C178 1.347 . S
C180 C183 1.365 . S
C180 N185 1.328 . S
C180 H186 0.929 . S
C181 C182 1.362 . S
C181 C184 1.378 . S
C181 H196 0.929 . S
C182 C181 1.362 . S
C182 C183 1.366 . S
C183 C180 1.365 . S
C183 C182 1.366 . S
C183 H197 0.930 . S
C184 C181 1.378 . S
C184 N185 1.315 . S
C184 H187 0.930 . S
N185 Co165 2.194 . S
N185 C180 1.328 . S
N185 C184 1.315 . S
H186 C180 0.929 . S
H187 C184 0.930 . S
H188 C176 0.929 . S
H189 C178 0.929 . S
O190 Co165 2.351 . S
O190 C193 1.244 . S
O191 Co165 2.155 . S
O191 C193 1.240 . S
O192 Co165 2.096 . S
O192 C173 1.247 . S
C193 O190 1.244 . S
C193 O191 1.240 . S
H194 C168 0.931 . S
H195 C177 0.931 . S
H196 C181 0.929 . S
H197 C183 0.930 . S
Co198 N202 2.148 . S
Co198 N208 2.128 1_565 S
Co198 N218 2.194 . S
Co198 O223 2.351 . S
Co198 O224 2.155 . S
Co198 O225 2.096 . S
C199 N202 1.301 . S
C199 N203 1.328 . S
C199 H204 0.930 . S
C200 C201 1.333 . S
C200 N202 1.317 . S
C200 H205 0.930 . S
C201 C200 1.333 . S
C201 N203 1.350 . S
C201 H227 0.931 . S
N202 Co198 2.148 . S
N202 C199 1.301 . S
N202 C200 1.317 . S
N203 C199 1.328 . S
N203 C201 1.350 . S
H204 C199 0.930 . S
H205 C200 0.930 . S
C206 O207 1.224 . S
C206 O225 1.247 . S
O207 C206 1.224 . S
N208 Co198 2.128 1_545 S
N208 C209 1.355 . S
N208 C211 1.311 . S
C209 N208 1.355 . S
C209 C210 1.363 . S
C209 H221 0.929 . S
C210 C209 1.363 . S
C210 N212 1.375 . S
C210 H228 0.931 . S
C211 N208 1.311 . S
C211 N212 1.347 . S
C211 H222 0.929 . S
N212 C210 1.375 . S
N212 C211 1.347 . S
C213 C216 1.365 . S
C213 N218 1.328 . S
C213 H219 0.929 . S
C214 C215 1.362 . S
C214 C217 1.378 . S
C214 H229 0.929 . S
C215 C214 1.362 . S
C215 C216 1.366 . S
C216 C213 1.365 . S
C216 C215 1.366 . S
C216 H230 0.930 . S
C217 C214 1.378 . S
C217 N218 1.315 . S
C217 H220 0.930 . S
N218 Co198 2.194 . S
N218 C213 1.328 . S
N218 C217 1.315 . S
H219 C213 0.929 . S
H220 C217 0.930 . S
H221 C209 0.929 . S
H222 C211 0.929 . S
O223 Co198 2.351 . S
O223 C226 1.244 . S
O224 Co198 2.155 . S
O224 C226 1.240 . S
O225 Co198 2.096 . S
O225 C206 1.247 . S
C226 O223 1.244 . S
C226 O224 1.240 . S
H227 C201 0.931 . S
H228 C210 0.931 . S
H229 C214 0.929 . S
H230 C216 0.930 . S
Co231 N235 2.148 . S
Co231 N241 2.128 . S
Co231 N251 2.194 . S
Co231 O256 2.351 . S
Co231 O257 2.155 . S
Co231 O258 2.096 . S
C232 N235 1.301 . S
C232 N236 1.328 1_565 S
C232 H237 0.930 . S
C233 C234 1.333 1_565 S
C233 N235 1.317 . S
C233 H238 0.930 . S
C234 C233 1.333 1_545 S
C234 N236 1.350 . S
C234 H260 0.931 . S
N235 Co231 2.148 . S
N235 C232 1.301 . S
N235 C233 1.317 . S
N236 C232 1.328 1_545 S
N236 C234 1.350 . S
H237 C232 0.930 . S
H238 C233 0.930 . S
C239 O240 1.224 . S
C239 O258 1.247 . S
O240 C239 1.224 . S
N241 Co231 2.128 . S
N241 C242 1.355 . S
N241 C244 1.311 . S
C242 N241 1.355 . S
C242 C243 1.363 . S
C242 H254 0.929 . S
C243 C242 1.363 . S
C243 N245 1.375 . S
C243 H261 0.931 . S
C244 N241 1.311 . S
C244 N245 1.347 . S
C244 H255 0.929 . S
N245 C243 1.375 . S
N245 C244 1.347 . S
C246 C249 1.365 . S
C246 N251 1.328 . S
C246 H252 0.929 . S
C247 C248 1.362 . S
C247 C250 1.378 . S
C247 H262 0.929 . S
C248 C247 1.362 . S
C248 C249 1.366 . S
C249 C246 1.365 . S
C249 C248 1.366 . S
C249 H263 0.930 . S
C250 C247 1.378 . S
C250 N251 1.315 . S
C250 H253 0.930 . S
N251 Co231 2.194 . S
N251 C246 1.328 . S
N251 C250 1.315 . S
H252 C246 0.929 . S
H253 C250 0.930 . S
H254 C242 0.929 . S
H255 C244 0.929 . S
O256 Co231 2.351 . S
O256 C259 1.244 . S
O257 Co231 2.155 . S
O257 C259 1.240 . S
O258 Co231 2.096 . S
O258 C239 1.247 . S
C259 O256 1.244 . S
C259 O257 1.240 . S
H260 C234 0.931 . S
H261 C243 0.931 . S
H262 C247 0.929 . S
H263 C249 0.930 . S
Co264 N268 2.148 . S
Co264 N274 2.128 . S
Co264 N284 2.194 . S
Co264 O289 2.351 . S
Co264 O290 2.155 . S
Co264 O291 2.096 . S
C265 N268 1.301 . S
C265 N269 1.328 . S
C265 H270 0.930 . S
C266 C267 1.333 . S
C266 N268 1.317 . S
C266 H271 0.930 . S
C267 C266 1.333 . S
C267 N269 1.350 . S
C267 H293 0.931 . S
N268 Co264 2.148 . S
N268 C265 1.301 . S
N268 C266 1.317 . S
N269 C265 1.328 . S
N269 C267 1.350 . S
H270 C265 0.930 . S
H271 C266 0.930 . S
C272 O273 1.224 . S
C272 O291 1.247 . S
O273 C272 1.224 . S
N274 Co264 2.128 . S
N274 C275 1.355 . S
N274 C277 1.311 . S
C275 N274 1.355 . S
C275 C276 1.363 . S
C275 H287 0.929 . S
C276 C275 1.363 . S
C276 N278 1.375 . S
C276 H294 0.931 . S
C277 N274 1.311 . S
C277 N278 1.347 . S
C277 H288 0.929 . S
N278 C276 1.375 . S
N278 C277 1.347 . S
C279 C282 1.365 . S
C279 N284 1.328 . S
C279 H285 0.929 . S
C280 C281 1.362 . S
C280 C283 1.378 . S
C280 H295 0.929 . S
C281 C280 1.362 . S
C281 C282 1.366 . S
C282 C279 1.365 . S
C282 C281 1.366 . S
C282 H296 0.930 . S
C283 C280 1.378 . S
C283 N284 1.315 . S
C283 H286 0.930 . S
N284 Co264 2.194 . S
N284 C279 1.328 . S
N284 C283 1.315 . S
H285 C279 0.929 . S
H286 C283 0.930 . S
H287 C275 0.929 . S
H288 C277 0.929 . S
O289 Co264 2.351 . S
O289 C292 1.244 . S
O290 Co264 2.155 . S
O290 C292 1.240 . S
O291 Co264 2.096 . S
O291 C272 1.247 . S
C292 O289 1.244 . S
C292 O290 1.240 . S
H293 C267 0.931 . S
H294 C276 0.931 . S
H295 C280 0.929 . S
H296 C282 0.930 . S
Co297 N301 2.148 . S
Co297 N307 2.128 . S
Co297 N317 2.194 . S
Co297 O322 2.351 . S
Co297 O323 2.155 . S
Co297 O324 2.096 . S
C298 N301 1.301 . S
C298 N302 1.328 . S
C298 H303 0.930 . S
C299 C300 1.333 . S
C299 N301 1.317 . S
C299 H304 0.930 . S
C300 C299 1.333 . S
C300 N302 1.350 . S
C300 H326 0.931 . S
N301 Co297 2.148 . S
N301 C298 1.301 . S
N301 C299 1.317 . S
N302 C298 1.328 . S
N302 C300 1.350 . S
H303 C298 0.930 . S
H304 C299 0.930 . S
C305 O306 1.224 . S
C305 O324 1.247 . S
O306 C305 1.224 . S
N307 Co297 2.128 . S
N307 C308 1.355 . S
N307 C310 1.311 . S
C308 N307 1.355 . S
C308 C309 1.363 . S
C308 H320 0.929 . S
C309 C308 1.363 . S
C309 N311 1.375 . S
C309 H327 0.931 . S
C310 N307 1.311 . S
C310 N311 1.347 . S
C310 H321 0.929 . S
N311 C309 1.375 . S
N311 C310 1.347 . S
C312 C315 1.365 . S
C312 N317 1.328 . S
C312 H318 0.929 . S
C313 C314 1.362 . S
C313 C316 1.378 . S
C313 H328 0.929 . S
C314 C313 1.362 . S
C314 C315 1.366 . S
C315 C312 1.365 . S
C315 C314 1.366 . S
C315 H329 0.930 . S
C316 C313 1.378 . S
C316 N317 1.315 . S
C316 H319 0.930 . S
N317 Co297 2.194 . S
N317 C312 1.328 . S
N317 C316 1.315 . S
H318 C312 0.929 . S
H319 C316 0.930 . S
H320 C308 0.929 . S
H321 C310 0.929 . S
O322 Co297 2.351 . S
O322 C325 1.244 . S
O323 Co297 2.155 . S
O323 C325 1.240 . S
O324 Co297 2.096 . S
O324 C305 1.247 . S
C325 O322 1.244 . S
C325 O323 1.240 . S
H326 C300 0.931 . S
H327 C309 0.931 . S
H328 C313 0.929 . S
H329 C315 0.930 . S
Co330 N334 2.148 . S
Co330 N340 2.128 . S
Co330 N350 2.194 . S
Co330 O355 2.351 . S
Co330 O356 2.155 . S
Co330 O357 2.096 . S
C331 N334 1.301 . S
C331 N335 1.328 . S
C331 H336 0.930 . S
C332 C333 1.333 . S
C332 N334 1.317 . S
C332 H337 0.930 . S
C333 C332 1.333 . S
C333 N335 1.350 . S
C333 H359 0.931 . S
N334 Co330 2.148 . S
N334 C331 1.301 . S
N334 C332 1.317 . S
N335 C331 1.328 . S
N335 C333 1.350 . S
H336 C331 0.930 . S
H337 C332 0.930 . S
C338 O339 1.224 . S
C338 O357 1.247 . S
O339 C338 1.224 . S
N340 Co330 2.128 . S
N340 C341 1.355 . S
N340 C343 1.311 . S
C341 N340 1.355 . S
C341 C342 1.363 . S
C341 H353 0.929 . S
C342 C341 1.363 . S
C342 N344 1.375 . S
C342 H360 0.931 . S
C343 N340 1.311 . S
C343 N344 1.347 . S
C343 H354 0.929 . S
N344 C342 1.375 . S
N344 C343 1.347 . S
C345 C348 1.365 . S
C345 N350 1.328 . S
C345 H351 0.929 . S
C346 C347 1.362 . S
C346 C349 1.378 . S
C346 H361 0.929 . S
C347 C346 1.362 . S
C347 C348 1.366 . S
C348 C345 1.365 . S
C348 C347 1.366 . S
C348 H362 0.930 . S
C349 C346 1.378 . S
C349 N350 1.315 . S
C349 H352 0.930 . S
N350 Co330 2.194 . S
N350 C345 1.328 . S
N350 C349 1.315 . S
H351 C345 0.929 . S
H352 C349 0.930 . S
H353 C341 0.929 . S
H354 C343 0.929 . S
O355 Co330 2.351 . S
O355 C358 1.244 . S
O356 Co330 2.155 . S
O356 C358 1.240 . S
O357 Co330 2.096 . S
O357 C338 1.247 . S
C358 O355 1.244 . S
C358 O356 1.240 . S
H359 C333 0.931 . S
H360 C342 0.931 . S
H361 C346 0.929 . S
H362 C348 0.930 . S
Co363 N367 2.148 . S
Co363 N373 2.128 . S
Co363 N383 2.194 . S
Co363 O388 2.351 . S
Co363 O389 2.155 . S
Co363 O390 2.096 . S
C364 N367 1.301 . S
C364 N368 1.328 . S
C364 H369 0.930 . S
C365 C366 1.333 . S
C365 N367 1.317 . S
C365 H370 0.930 . S
C366 C365 1.333 . S
C366 N368 1.350 . S
C366 H392 0.931 . S
N367 Co363 2.148 . S
N367 C364 1.301 . S
N367 C365 1.317 . S
N368 C364 1.328 . S
N368 C366 1.350 . S
H369 C364 0.930 . S
H370 C365 0.930 . S
C371 O372 1.224 . S
C371 O390 1.247 . S
O372 C371 1.224 . S
N373 Co363 2.128 . S
N373 C374 1.355 . S
N373 C376 1.311 . S
C374 N373 1.355 . S
C374 C375 1.363 . S
C374 H386 0.929 . S
C375 C374 1.363 . S
C375 N377 1.375 . S
C375 H393 0.931 . S
C376 N373 1.311 . S
C376 N377 1.347 . S
C376 H387 0.929 . S
N377 C375 1.375 . S
N377 C376 1.347 . S
C378 C381 1.365 . S
C378 N383 1.328 . S
C378 H384 0.929 . S
C379 C380 1.362 . S
C379 C382 1.378 . S
C379 H394 0.929 . S
C380 C379 1.362 . S
C380 C381 1.366 . S
C381 C378 1.365 . S
C381 C380 1.366 . S
C381 H395 0.930 . S
C382 C379 1.378 . S
C382 N383 1.315 . S
C382 H385 0.930 . S
N383 Co363 2.194 . S
N383 C378 1.328 . S
N383 C382 1.315 . S
H384 C378 0.929 . S
H385 C382 0.930 . S
H386 C374 0.929 . S
H387 C376 0.929 . S
O388 Co363 2.351 . S
O388 C391 1.244 . S
O389 Co363 2.155 . S
O389 C391 1.240 . S
O390 Co363 2.096 . S
O390 C371 1.247 . S
C391 O388 1.244 . S
C391 O389 1.240 . S
H392 C366 0.931 . S
H393 C375 0.931 . S
H394 C379 0.929 . S
H395 C381 0.930 . S
Co396 N400 2.148 . S
Co396 N406 2.128 . S
Co396 N416 2.194 . S
Co396 O421 2.351 . S
Co396 O422 2.155 . S
Co396 O423 2.096 . S
C397 N400 1.301 . S
C397 N401 1.328 . S
C397 H402 0.930 . S
C398 C399 1.333 . S
C398 N400 1.317 . S
C398 H403 0.930 . S
C399 C398 1.333 . S
C399 N401 1.350 . S
C399 H425 0.931 . S
N400 Co396 2.148 . S
N400 C397 1.301 . S
N400 C398 1.317 . S
N401 C397 1.328 . S
N401 C399 1.350 . S
H402 C397 0.930 . S
H403 C398 0.930 . S
C404 O405 1.224 . S
C404 O423 1.247 . S
O405 C404 1.224 . S
N406 Co396 2.128 . S
N406 C407 1.355 . S
N406 C409 1.311 . S
C407 N406 1.355 . S
C407 C408 1.363 . S
C407 H419 0.929 . S
C408 C407 1.363 . S
C408 N410 1.375 . S
C408 H426 0.931 . S
C409 N406 1.311 . S
C409 N410 1.347 . S
C409 H420 0.929 . S
N410 C408 1.375 . S
N410 C409 1.347 . S
C411 C414 1.365 . S
C411 N416 1.328 . S
C411 H417 0.929 . S
C412 C413 1.362 . S
C412 C415 1.378 . S
C412 H427 0.929 . S
C413 C412 1.362 . S
C413 C414 1.366 . S
C414 C411 1.365 . S
C414 C413 1.366 . S
C414 H428 0.930 . S
C415 C412 1.378 . S
C415 N416 1.315 . S
C415 H418 0.930 . S
N416 Co396 2.194 . S
N416 C411 1.328 . S
N416 C415 1.315 . S
H417 C411 0.929 . S
H418 C415 0.930 . S
H419 C407 0.929 . S
H420 C409 0.929 . S
O421 Co396 2.351 . S
O421 C424 1.244 . S
O422 Co396 2.155 . S
O422 C424 1.240 . S
O423 Co396 2.096 . S
O423 C404 1.247 . S
C424 O421 1.244 . S
C424 O422 1.240 . S
H425 C399 0.931 . S
H426 C408 0.931 . S
H427 C412 0.929 . S
H428 C414 0.930 . S
Co429 N433 2.148 . S
Co429 N439 2.128 . S
Co429 N449 2.194 . S
Co429 O454 2.351 . S
Co429 O455 2.155 . S
Co429 O456 2.096 . S
C430 N433 1.301 . S
C430 N434 1.328 . S
C430 H435 0.930 . S
C431 C432 1.333 . S
C431 N433 1.317 . S
C431 H436 0.930 . S
C432 C431 1.333 . S
C432 N434 1.350 . S
C432 H458 0.931 . S
N433 Co429 2.148 . S
N433 C430 1.301 . S
N433 C431 1.317 . S
N434 C430 1.328 . S
N434 C432 1.350 . S
H435 C430 0.930 . S
H436 C431 0.930 . S
C437 O438 1.224 . S
C437 O456 1.247 . S
O438 C437 1.224 . S
N439 Co429 2.128 . S
N439 C440 1.355 . S
N439 C442 1.311 . S
C440 N439 1.355 . S
C440 C441 1.363 . S
C440 H452 0.929 . S
C441 C440 1.363 . S
C441 N443 1.375 . S
C441 H459 0.931 . S
C442 N439 1.311 . S
C442 N443 1.347 . S
C442 H453 0.929 . S
N443 C441 1.375 . S
N443 C442 1.347 . S
C444 C447 1.365 . S
C444 N449 1.328 . S
C444 H450 0.929 . S
C445 C446 1.362 . S
C445 C448 1.378 . S
C445 H460 0.929 . S
C446 C445 1.362 . S
C446 C447 1.366 . S
C447 C444 1.365 . S
C447 C446 1.366 . S
C447 H461 0.930 . S
C448 C445 1.378 . S
C448 N449 1.315 . S
C448 H451 0.930 . S
N449 Co429 2.194 . S
N449 C444 1.328 . S
N449 C448 1.315 . S
H450 C444 0.929 . S
H451 C448 0.930 . S
H452 C440 0.929 . S
H453 C442 0.929 . S
O454 Co429 2.351 . S
O454 C457 1.244 . S
O455 Co429 2.155 . S
O455 C457 1.240 . S
O456 Co429 2.096 . S
O456 C437 1.247 . S
C457 O454 1.244 . S
C457 O455 1.240 . S
H458 C432 0.931 . S
H459 C441 0.931 . S
H460 C445 0.929 . S
H461 C447 0.930 . S
Co462 N466 2.148 . S
Co462 N472 2.128 . S
Co462 N482 2.194 . S
Co462 O487 2.351 . S
Co462 O488 2.155 . S
Co462 O489 2.096 . S
C463 N466 1.301 . S
C463 N467 1.328 . S
C463 H468 0.930 . S
C464 C465 1.333 . S
C464 N466 1.317 . S
C464 H469 0.930 . S
C465 C464 1.333 . S
C465 N467 1.350 . S
C465 H491 0.931 . S
N466 Co462 2.148 . S
N466 C463 1.301 . S
N466 C464 1.317 . S
N467 C463 1.328 . S
N467 C465 1.350 . S
H468 C463 0.930 . S
H469 C464 0.930 . S
C470 O471 1.224 . S
C470 O489 1.247 . S
O471 C470 1.224 . S
N472 Co462 2.128 . S
N472 C473 1.355 . S
N472 C475 1.311 . S
C473 N472 1.355 . S
C473 C474 1.363 . S
C473 H485 0.929 . S
C474 C473 1.363 . S
C474 N476 1.375 . S
C474 H492 0.931 . S
C475 N472 1.311 . S
C475 N476 1.347 . S
C475 H486 0.929 . S
N476 C474 1.375 . S
N476 C475 1.347 . S
C477 C480 1.365 . S
C477 N482 1.328 . S
C477 H483 0.929 . S
C478 C479 1.362 . S
C478 C481 1.378 . S
C478 H493 0.929 . S
C479 C478 1.362 . S
C479 C480 1.366 . S
C480 C477 1.365 . S
C480 C479 1.366 . S
C480 H494 0.930 . S
C481 C478 1.378 . S
C481 N482 1.315 . S
C481 H484 0.930 . S
N482 Co462 2.194 . S
N482 C477 1.328 . S
N482 C481 1.315 . S
H483 C477 0.929 . S
H484 C481 0.930 . S
H485 C473 0.929 . S
H486 C475 0.929 . S
O487 Co462 2.351 . S
O487 C490 1.244 . S
O488 Co462 2.155 . S
O488 C490 1.240 . S
O489 Co462 2.096 . S
O489 C470 1.247 . S
C490 O487 1.244 . S
C490 O488 1.240 . S
H491 C465 0.931 . S
H492 C474 0.931 . S
H493 C478 0.929 . S
H494 C480 0.930 . S
Co495 N499 2.148 . S
Co495 N505 2.128 . S
Co495 N515 2.194 . S
Co495 O520 2.351 . S
Co495 O521 2.155 . S
Co495 O522 2.096 . S
C496 N499 1.301 . S
C496 N500 1.328 . S
C496 H501 0.930 . S
C497 C498 1.333 . S
C497 N499 1.317 . S
C497 H502 0.930 . S
C498 C497 1.333 . S
C498 N500 1.350 . S
C498 H524 0.931 . S
N499 Co495 2.148 . S
N499 C496 1.301 . S
N499 C497 1.317 . S
N500 C496 1.328 . S
N500 C498 1.350 . S
H501 C496 0.930 . S
H502 C497 0.930 . S
C503 O504 1.224 . S
C503 O522 1.247 . S
O504 C503 1.224 . S
N505 Co495 2.128 . S
N505 C506 1.355 . S
N505 C508 1.311 . S
C506 N505 1.355 . S
C506 C507 1.363 . S
C506 H518 0.929 . S
C507 C506 1.363 . S
C507 N509 1.375 . S
C507 H525 0.931 . S
C508 N505 1.311 . S
C508 N509 1.347 . S
C508 H519 0.929 . S
N509 C507 1.375 . S
N509 C508 1.347 . S
C510 C513 1.365 . S
C510 N515 1.328 . S
C510 H516 0.929 . S
C511 C512 1.362 . S
C511 C514 1.378 . S
C511 H526 0.929 . S
C512 C511 1.362 . S
C512 C513 1.366 . S
C513 C510 1.365 . S
C513 C512 1.366 . S
C513 H527 0.930 . S
C514 C511 1.378 . S
C514 N515 1.315 . S
C514 H517 0.930 . S
N515 Co495 2.194 . S
N515 C510 1.328 . S
N515 C514 1.315 . S
H516 C510 0.929 . S
H517 C514 0.930 . S
H518 C506 0.929 . S
H519 C508 0.929 . S
O520 Co495 2.351 . S
O520 C523 1.244 . S
O521 Co495 2.155 . S
O521 C523 1.240 . S
O522 Co495 2.096 . S
O522 C503 1.247 . S
C523 O520 1.244 . S
C523 O521 1.240 . S
H524 C498 0.931 . S
H525 C507 0.931 . S
H526 C511 0.929 . S
H527 C513 0.930 . S
Co528 N532 2.148 . S
Co528 N538 2.128 . S
Co528 N548 2.194 . S
Co528 O553 2.351 . S
Co528 O554 2.155 . S
Co528 O555 2.096 . S
C529 N532 1.301 . S
C529 N533 1.328 1_545 S
C529 H534 0.930 . S
C530 C531 1.333 1_545 S
C530 N532 1.317 . S
C530 H535 0.930 . S
C531 C530 1.333 1_565 S
C531 N533 1.350 . S
C531 H557 0.931 . S
N532 Co528 2.148 . S
N532 C529 1.301 . S
N532 C530 1.317 . S
N533 C529 1.328 1_565 S
N533 C531 1.350 . S
H534 C529 0.930 . S
H535 C530 0.930 . S
C536 O537 1.224 . S
C536 O555 1.247 . S
O537 C536 1.224 . S
N538 Co528 2.128 . S
N538 C539 1.355 . S
N538 C541 1.311 . S
C539 N538 1.355 . S
C539 C540 1.363 . S
C539 H551 0.929 . S
C540 C539 1.363 . S
C540 N542 1.375 . S
C540 H558 0.931 . S
C541 N538 1.311 . S
C541 N542 1.347 . S
C541 H552 0.929 . S
N542 C540 1.375 . S
N542 C541 1.347 . S
C543 C546 1.365 . S
C543 N548 1.328 . S
C543 H549 0.929 . S
C544 C545 1.362 . S
C544 C547 1.378 . S
C544 H559 0.929 . S
C545 C544 1.362 . S
C545 C546 1.366 . S
C546 C543 1.365 . S
C546 C545 1.366 . S
C546 H560 0.930 . S
C547 C544 1.378 . S
C547 N548 1.315 . S
C547 H550 0.930 . S
N548 Co528 2.194 . S
N548 C543 1.328 . S
N548 C547 1.315 . S
H549 C543 0.929 . S
H550 C547 0.930 . S
H551 C539 0.929 . S
H552 C541 0.929 . S
O553 Co528 2.351 . S
O553 C556 1.244 . S
O554 Co528 2.155 . S
O554 C556 1.240 . S
O555 Co528 2.096 . S
O555 C536 1.247 . S
C556 O553 1.244 . S
C556 O554 1.240 . S
H557 C531 0.931 . S
H558 C540 0.931 . S
H559 C544 0.929 . S
H560 C546 0.930 . S
Co561 N565 2.148 . S
Co561 N571 2.128 1_545 S
Co561 N581 2.194 . S
Co561 O586 2.351 . S
Co561 O587 2.155 . S
Co561 O588 2.096 . S
C562 N565 1.301 . S
C562 N566 1.328 . S
C562 H567 0.930 . S
C563 C564 1.333 . S
C563 N565 1.317 . S
C563 H568 0.930 . S
C564 C563 1.333 . S
C564 N566 1.350 . S
C564 H590 0.931 . S
N565 Co561 2.148 . S
N565 C562 1.301 . S
N565 C563 1.317 . S
N566 C562 1.328 . S
N566 C564 1.350 . S
H567 C562 0.930 . S
H568 C563 0.930 . S
C569 O570 1.224 . S
C569 O588 1.247 . S
O570 C569 1.224 . S
N571 Co561 2.128 1_565 S
N571 C572 1.355 . S
N571 C574 1.311 . S
C572 N571 1.355 . S
C572 C573 1.363 . S
C572 H584 0.929 . S
C573 C572 1.363 . S
C573 N575 1.375 . S
C573 H591 0.931 . S
C574 N571 1.311 . S
C574 N575 1.347 . S
C574 H585 0.929 . S
N575 C573 1.375 . S
N575 C574 1.347 . S
C576 C579 1.365 . S
C576 N581 1.328 . S
C576 H582 0.929 . S
C577 C578 1.362 . S
C577 C580 1.378 . S
C577 H592 0.929 . S
C578 C577 1.362 . S
C578 C579 1.366 . S
C579 C576 1.365 . S
C579 C578 1.366 . S
C579 H593 0.930 . S
C580 C577 1.378 . S
C580 N581 1.315 . S
C580 H583 0.930 . S
N581 Co561 2.194 . S
N581 C576 1.328 . S
N581 C580 1.315 . S
H582 C576 0.929 . S
H583 C580 0.930 . S
H584 C572 0.929 . S
H585 C574 0.929 . S
O586 Co561 2.351 . S
O586 C589 1.244 . S
O587 Co561 2.155 . S
O587 C589 1.240 . S
O588 Co561 2.096 . S
O588 C569 1.247 . S
C589 O586 1.244 . S
C589 O587 1.240 . S
H590 C564 0.931 . S
H591 C573 0.931 . S
H592 C577 0.929 . S
H593 C579 0.930 . S
Co594 N598 2.148 . S
Co594 N604 2.128 1_545 S
Co594 N614 2.194 . S
Co594 O619 2.351 . S
Co594 O620 2.155 . S
Co594 O621 2.096 . S
C595 N598 1.301 . S
C595 N599 1.328 . S
C595 H600 0.930 . S
C596 C597 1.333 . S
C596 N598 1.317 . S
C596 H601 0.930 . S
C597 C596 1.333 . S
C597 N599 1.350 . S
C597 H623 0.931 . S
N598 Co594 2.148 . S
N598 C595 1.301 . S
N598 C596 1.317 . S
N599 C595 1.328 . S
N599 C597 1.350 . S
H600 C595 0.930 . S
H601 C596 0.930 . S
C602 O603 1.224 . S
C602 O621 1.247 . S
O603 C602 1.224 . S
N604 Co594 2.128 1_565 S
N604 C605 1.355 . S
N604 C607 1.311 . S
C605 N604 1.355 . S
C605 C606 1.363 . S
C605 H617 0.929 . S
C606 C605 1.363 . S
C606 N608 1.375 . S
C606 H624 0.931 . S
C607 N604 1.311 . S
C607 N608 1.347 . S
C607 H618 0.929 . S
N608 C606 1.375 . S
N608 C607 1.347 . S
C609 C612 1.365 . S
C609 N614 1.328 . S
C609 H615 0.929 . S
C610 C611 1.362 . S
C610 C613 1.378 . S
C610 H625 0.929 . S
C611 C610 1.362 . S
C611 C612 1.366 . S
C612 C609 1.365 . S
C612 C611 1.366 . S
C612 H626 0.930 . S
C613 C610 1.378 . S
C613 N614 1.315 . S
C613 H616 0.930 . S
N614 Co594 2.194 . S
N614 C609 1.328 . S
N614 C613 1.315 . S
H615 C609 0.929 . S
H616 C613 0.930 . S
H617 C605 0.929 . S
H618 C607 0.929 . S
O619 Co594 2.351 . S
O619 C622 1.244 . S
O620 Co594 2.155 . S
O620 C622 1.240 . S
O621 Co594 2.096 . S
O621 C602 1.247 . S
C622 O619 1.244 . S
C622 O620 1.240 . S
H623 C597 0.931 . S
H624 C606 0.931 . S
H625 C610 0.929 . S
H626 C612 0.930 . S
Co627 N631 2.148 . S
Co627 N637 2.128 . S
Co627 N647 2.194 . S
Co627 O652 2.351 . S
Co627 O653 2.155 . S
Co627 O654 2.096 . S
C628 N631 1.301 . S
C628 N632 1.328 1_545 S
C628 H633 0.930 . S
C629 C630 1.333 1_545 S
C629 N631 1.317 . S
C629 H634 0.930 . S
C630 C629 1.333 1_565 S
C630 N632 1.350 . S
C630 H656 0.931 . S
N631 Co627 2.148 . S
N631 C628 1.301 . S
N631 C629 1.317 . S
N632 C628 1.328 1_565 S
N632 C630 1.350 . S
H633 C628 0.930 . S
H634 C629 0.930 . S
C635 O636 1.224 . S
C635 O654 1.247 . S
O636 C635 1.224 . S
N637 Co627 2.128 . S
N637 C638 1.355 . S
N637 C640 1.311 . S
C638 N637 1.355 . S
C638 C639 1.363 . S
C638 H650 0.929 . S
C639 C638 1.363 . S
C639 N641 1.375 . S
C639 H657 0.931 . S
C640 N637 1.311 . S
C640 N641 1.347 . S
C640 H651 0.929 . S
N641 C639 1.375 . S
N641 C640 1.347 . S
C642 C645 1.365 . S
C642 N647 1.328 . S
C642 H648 0.929 . S
C643 C644 1.362 . S
C643 C646 1.378 . S
C643 H658 0.929 . S
C644 C643 1.362 . S
C644 C645 1.366 . S
C645 C642 1.365 . S
C645 C644 1.366 . S
C645 H659 0.930 . S
C646 C643 1.378 . S
C646 N647 1.315 . S
C646 H649 0.930 . S
N647 Co627 2.194 . S
N647 C642 1.328 . S
N647 C646 1.315 . S
H648 C642 0.929 . S
H649 C646 0.930 . S
H650 C638 0.929 . S
H651 C640 0.929 . S
O652 Co627 2.351 . S
O652 C655 1.244 . S
O653 Co627 2.155 . S
O653 C655 1.240 . S
O654 Co627 2.096 . S
O654 C635 1.247 . S
C655 O652 1.244 . S
C655 O653 1.240 . S
H656 C630 0.931 . S
H657 C639 0.931 . S
H658 C643 0.929 . S
H659 C645 0.930 . S
Co660 N664 2.148 . S
Co660 N670 2.128 . S
Co660 N680 2.194 . S
Co660 O685 2.351 . S
Co660 O686 2.155 . S
Co660 O687 2.096 . S
C661 N664 1.301 . S
C661 N665 1.328 1_565 S
C661 H666 0.930 . S
C662 C663 1.333 1_565 S
C662 N664 1.317 . S
C662 H667 0.930 . S
C663 C662 1.333 1_545 S
C663 N665 1.350 . S
C663 H689 0.931 . S
N664 Co660 2.148 . S
N664 C661 1.301 . S
N664 C662 1.317 . S
N665 C661 1.328 1_545 S
N665 C663 1.350 . S
H666 C661 0.930 . S
H667 C662 0.930 . S
C668 O669 1.224 . S
C668 O687 1.247 . S
O669 C668 1.224 . S
N670 Co660 2.128 . S
N670 C671 1.355 . S
N670 C673 1.311 . S
C671 N670 1.355 . S
C671 C672 1.363 . S
C671 H683 0.929 . S
C672 C671 1.363 . S
C672 N674 1.375 . S
C672 H690 0.931 . S
C673 N670 1.311 . S
C673 N674 1.347 . S
C673 H684 0.929 . S
N674 C672 1.375 . S
N674 C673 1.347 . S
C675 C678 1.365 . S
C675 N680 1.328 . S
C675 H681 0.929 . S
C676 C677 1.362 . S
C676 C679 1.378 . S
C676 H691 0.929 . S
C677 C676 1.362 . S
C677 C678 1.366 . S
C678 C675 1.365 . S
C678 C677 1.366 . S
C678 H692 0.930 . S
C679 C676 1.378 . S
C679 N680 1.315 . S
C679 H682 0.930 . S
N680 Co660 2.194 . S
N680 C675 1.328 . S
N680 C679 1.315 . S
H681 C675 0.929 . S
H682 C679 0.930 . S
H683 C671 0.929 . S
H684 C673 0.929 . S
O685 Co660 2.351 . S
O685 C688 1.244 . S
O686 Co660 2.155 . S
O686 C688 1.240 . S
O687 Co660 2.096 . S
O687 C668 1.247 . S
C688 O685 1.244 . S
C688 O686 1.240 . S
H689 C663 0.931 . S
H690 C672 0.931 . S
H691 C676 0.929 . S
H692 C678 0.930 . S
Co693 N697 2.148 . S
Co693 N703 2.128 1_565 S
Co693 N713 2.194 . S
Co693 O718 2.351 . S
Co693 O719 2.155 . S
Co693 O720 2.096 . S
C694 N697 1.301 . S
C694 N698 1.328 . S
C694 H699 0.930 . S
C695 C696 1.333 . S
C695 N697 1.317 . S
C695 H700 0.930 . S
C696 C695 1.333 . S
C696 N698 1.350 . S
C696 H722 0.931 . S
N697 Co693 2.148 . S
N697 C694 1.301 . S
N697 C695 1.317 . S
N698 C694 1.328 . S
N698 C696 1.350 . S
H699 C694 0.930 . S
H700 C695 0.930 . S
C701 O702 1.224 . S
C701 O720 1.247 . S
O702 C701 1.224 . S
N703 Co693 2.128 1_545 S
N703 C704 1.355 . S
N703 C706 1.311 . S
C704 N703 1.355 . S
C704 C705 1.363 . S
C704 H716 0.929 . S
C705 C704 1.363 . S
C705 N707 1.375 . S
C705 H723 0.931 . S
C706 N703 1.311 . S
C706 N707 1.347 . S
C706 H717 0.929 . S
N707 C705 1.375 . S
N707 C706 1.347 . S
C708 C711 1.365 . S
C708 N713 1.328 . S
C708 H714 0.929 . S
C709 C710 1.362 . S
C709 C712 1.378 . S
C709 H724 0.929 . S
C710 C709 1.362 . S
C710 C711 1.366 . S
C711 C708 1.365 . S
C711 C710 1.366 . S
C711 H725 0.930 . S
C712 C709 1.378 . S
C712 N713 1.315 . S
C712 H715 0.930 . S
N713 Co693 2.194 . S
N713 C708 1.328 . S
N713 C712 1.315 . S
H714 C708 0.929 . S
H715 C712 0.930 . S
H716 C704 0.929 . S
H717 C706 0.929 . S
O718 Co693 2.351 . S
O718 C721 1.244 . S
O719 Co693 2.155 . S
O719 C721 1.240 . S
O720 Co693 2.096 . S
O720 C701 1.247 . S
C721 O718 1.244 . S
C721 O719 1.240 . S
H722 C696 0.931 . S
H723 C705 0.931 . S
H724 C709 0.929 . S
H725 C711 0.930 . S
Co726 N730 2.148 . S
Co726 N736 2.128 1_565 S
Co726 N746 2.194 . S
Co726 O751 2.351 . S
Co726 O752 2.155 . S
Co726 O753 2.096 . S
C727 N730 1.301 . S
C727 N731 1.328 . S
C727 H732 0.930 . S
C728 C729 1.333 . S
C728 N730 1.317 . S
C728 H733 0.930 . S
C729 C728 1.333 . S
C729 N731 1.350 . S
C729 H755 0.931 . S
N730 Co726 2.148 . S
N730 C727 1.301 . S
N730 C728 1.317 . S
N731 C727 1.328 . S
N731 C729 1.350 . S
H732 C727 0.930 . S
H733 C728 0.930 . S
C734 O735 1.224 . S
C734 O753 1.247 . S
O735 C734 1.224 . S
N736 Co726 2.128 1_545 S
N736 C737 1.355 . S
N736 C739 1.311 . S
C737 N736 1.355 . S
C737 C738 1.363 . S
C737 H749 0.929 . S
C738 C737 1.363 . S
C738 N740 1.375 . S
C738 H756 0.931 . S
C739 N736 1.311 . S
C739 N740 1.347 . S
C739 H750 0.929 . S
N740 C738 1.375 . S
N740 C739 1.347 . S
C741 C744 1.365 . S
C741 N746 1.328 . S
C741 H747 0.929 . S
C742 C743 1.362 . S
C742 C745 1.378 . S
C742 H757 0.929 . S
C743 C742 1.362 . S
C743 C744 1.366 . S
C744 C741 1.365 . S
C744 C743 1.366 . S
C744 H758 0.930 . S
C745 C742 1.378 . S
C745 N746 1.315 . S
C745 H748 0.930 . S
N746 Co726 2.194 . S
N746 C741 1.328 . S
N746 C745 1.315 . S
H747 C741 0.929 . S
H748 C745 0.930 . S
H749 C737 0.929 . S
H750 C739 0.929 . S
O751 Co726 2.351 . S
O751 C754 1.244 . S
O752 Co726 2.155 . S
O752 C754 1.240 . S
O753 Co726 2.096 . S
O753 C734 1.247 . S
C754 O751 1.244 . S
C754 O752 1.240 . S
H755 C729 0.931 . S
H756 C738 0.931 . S
H757 C742 0.929 . S
H758 C744 0.930 . S
Co759 N763 2.148 . S
Co759 N769 2.128 . S
Co759 N779 2.194 . S
Co759 O784 2.351 . S
Co759 O785 2.155 . S
Co759 O786 2.096 . S
C760 N763 1.301 . S
C760 N764 1.328 1_565 S
C760 H765 0.930 . S
C761 C762 1.333 1_565 S
C761 N763 1.317 . S
C761 H766 0.930 . S
C762 C761 1.333 1_545 S
C762 N764 1.350 . S
C762 H788 0.931 . S
N763 Co759 2.148 . S
N763 C760 1.301 . S
N763 C761 1.317 . S
N764 C760 1.328 1_545 S
N764 C762 1.350 . S
H765 C760 0.930 . S
H766 C761 0.930 . S
C767 O768 1.224 . S
C767 O786 1.247 . S
O768 C767 1.224 . S
N769 Co759 2.128 . S
N769 C770 1.355 . S
N769 C772 1.311 . S
C770 N769 1.355 . S
C770 C771 1.363 . S
C770 H782 0.929 . S
C771 C770 1.363 . S
C771 N773 1.375 . S
C771 H789 0.931 . S
C772 N769 1.311 . S
C772 N773 1.347 . S
C772 H783 0.929 . S
N773 C771 1.375 . S
N773 C772 1.347 . S
C774 C777 1.365 . S
C774 N779 1.328 . S
C774 H780 0.929 . S
C775 C776 1.362 . S
C775 C778 1.378 . S
C775 H790 0.929 . S
C776 C775 1.362 . S
C776 C777 1.366 . S
C777 C774 1.365 . S
C777 C776 1.366 . S
C777 H791 0.930 . S
C778 C775 1.378 . S
C778 N779 1.315 . S
C778 H781 0.930 . S
N779 Co759 2.194 . S
N779 C774 1.328 . S
N779 C778 1.315 . S
H780 C774 0.929 . S
H781 C778 0.930 . S
H782 C770 0.929 . S
H783 C772 0.929 . S
O784 Co759 2.351 . S
O784 C787 1.244 . S
O785 Co759 2.155 . S
O785 C787 1.240 . S
O786 Co759 2.096 . S
O786 C767 1.247 . S
C787 O784 1.244 . S
C787 O785 1.240 . S
H788 C762 0.931 . S
H789 C771 0.931 . S
H790 C775 0.929 . S
H791 C777 0.930 . S
Co792 N796 2.148 . S
Co792 N802 2.128 . S
Co792 N812 2.194 . S
Co792 O817 2.351 . S
Co792 O818 2.155 . S
Co792 O819 2.096 . S
C793 N796 1.301 . S
C793 N797 1.328 . S
C793 H798 0.930 . S
C794 C795 1.333 . S
C794 N796 1.317 . S
C794 H799 0.930 . S
C795 C794 1.333 . S
C795 N797 1.350 . S
C795 H821 0.931 . S
N796 Co792 2.148 . S
N796 C793 1.301 . S
N796 C794 1.317 . S
N797 C793 1.328 . S
N797 C795 1.350 . S
H798 C793 0.930 . S
H799 C794 0.930 . S
C800 O801 1.224 . S
C800 O819 1.247 . S
O801 C800 1.224 . S
N802 Co792 2.128 . S
N802 C803 1.355 . S
N802 C805 1.311 . S
C803 N802 1.355 . S
C803 C804 1.363 . S
C803 H815 0.929 . S
C804 C803 1.363 . S
C804 N806 1.375 . S
C804 H822 0.931 . S
C805 N802 1.311 . S
C805 N806 1.347 . S
C805 H816 0.929 . S
N806 C804 1.375 . S
N806 C805 1.347 . S
C807 C810 1.365 . S
C807 N812 1.328 . S
C807 H813 0.929 . S
C808 C809 1.362 . S
C808 C811 1.378 . S
C808 H823 0.929 . S
C809 C808 1.362 . S
C809 C810 1.366 . S
C810 C807 1.365 . S
C810 C809 1.366 . S
C810 H824 0.930 . S
C811 C808 1.378 . S
C811 N812 1.315 . S
C811 H814 0.930 . S
N812 Co792 2.194 . S
N812 C807 1.328 . S
N812 C811 1.315 . S
H813 C807 0.929 . S
H814 C811 0.930 . S
H815 C803 0.929 . S
H816 C805 0.929 . S
O817 Co792 2.351 . S
O817 C820 1.244 . S
O818 Co792 2.155 . S
O818 C820 1.240 . S
O819 Co792 2.096 . S
O819 C800 1.247 . S
C820 O817 1.244 . S
C820 O818 1.240 . S
H821 C795 0.931 . S
H822 C804 0.931 . S
H823 C808 0.929 . S
H824 C810 0.930 . S
Co825 N829 2.148 . S
Co825 N835 2.128 . S
Co825 N845 2.194 . S
Co825 O850 2.351 . S
Co825 O851 2.155 . S
Co825 O852 2.096 . S
C826 N829 1.301 . S
C826 N830 1.328 . S
C826 H831 0.930 . S
C827 C828 1.333 . S
C827 N829 1.317 . S
C827 H832 0.930 . S
C828 C827 1.333 . S
C828 N830 1.350 . S
C828 H854 0.931 . S
N829 Co825 2.148 . S
N829 C826 1.301 . S
N829 C827 1.317 . S
N830 C826 1.328 . S
N830 C828 1.350 . S
H831 C826 0.930 . S
H832 C827 0.930 . S
C833 O834 1.224 . S
C833 O852 1.247 . S
O834 C833 1.224 . S
N835 Co825 2.128 . S
N835 C836 1.355 . S
N835 C838 1.311 . S
C836 N835 1.355 . S
C836 C837 1.363 . S
C836 H848 0.929 . S
C837 C836 1.363 . S
C837 N839 1.375 . S
C837 H855 0.931 . S
C838 N835 1.311 . S
C838 N839 1.347 . S
C838 H849 0.929 . S
N839 C837 1.375 . S
N839 C838 1.347 . S
C840 C843 1.365 . S
C840 N845 1.328 . S
C840 H846 0.929 . S
C841 C842 1.362 . S
C841 C844 1.378 . S
C841 H856 0.929 . S
C842 C841 1.362 . S
C842 C843 1.366 . S
C843 C840 1.365 . S
C843 C842 1.366 . S
C843 H857 0.930 . S
C844 C841 1.378 . S
C844 N845 1.315 . S
C844 H847 0.930 . S
N845 Co825 2.194 . S
N845 C840 1.328 . S
N845 C844 1.315 . S
H846 C840 0.929 . S
H847 C844 0.930 . S
H848 C836 0.929 . S
H849 C838 0.929 . S
O850 Co825 2.351 . S
O850 C853 1.244 . S
O851 Co825 2.155 . S
O851 C853 1.240 . S
O852 Co825 2.096 . S
O852 C833 1.247 . S
C853 O850 1.244 . S
C853 O851 1.240 . S
H854 C828 0.931 . S
H855 C837 0.931 . S
H856 C841 0.929 . S
H857 C843 0.930 . S
Co858 N862 2.148 . S
Co858 N868 2.128 . S
Co858 N878 2.194 . S
Co858 O883 2.351 . S
Co858 O884 2.155 . S
Co858 O885 2.096 . S
C859 N862 1.301 . S
C859 N863 1.328 . S
C859 H864 0.930 . S
C860 C861 1.333 . S
C860 N862 1.317 . S
C860 H865 0.930 . S
C861 C860 1.333 . S
C861 N863 1.350 . S
C861 H887 0.931 . S
N862 Co858 2.148 . S
N862 C859 1.301 . S
N862 C860 1.317 . S
N863 C859 1.328 . S
N863 C861 1.350 . S
H864 C859 0.930 . S
H865 C860 0.930 . S
C866 O867 1.224 . S
C866 O885 1.247 . S
O867 C866 1.224 . S
N868 Co858 2.128 . S
N868 C869 1.355 . S
N868 C871 1.311 . S
C869 N868 1.355 . S
C869 C870 1.363 . S
C869 H881 0.929 . S
C870 C869 1.363 . S
C870 N872 1.375 . S
C870 H888 0.931 . S
C871 N868 1.311 . S
C871 N872 1.347 . S
C871 H882 0.929 . S
N872 C870 1.375 . S
N872 C871 1.347 . S
C873 C876 1.365 . S
C873 N878 1.328 . S
C873 H879 0.929 . S
C874 C875 1.362 . S
C874 C877 1.378 . S
C874 H889 0.929 . S
C875 C874 1.362 . S
C875 C876 1.366 . S
C876 C873 1.365 . S
C876 C875 1.366 . S
C876 H890 0.930 . S
C877 C874 1.378 . S
C877 N878 1.315 . S
C877 H880 0.930 . S
N878 Co858 2.194 . S
N878 C873 1.328 . S
N878 C877 1.315 . S
H879 C873 0.929 . S
H880 C877 0.930 . S
H881 C869 0.929 . S
H882 C871 0.929 . S
O883 Co858 2.351 . S
O883 C886 1.244 . S
O884 Co858 2.155 . S
O884 C886 1.240 . S
O885 Co858 2.096 . S
O885 C866 1.247 . S
C886 O883 1.244 . S
C886 O884 1.240 . S
H887 C861 0.931 . S
H888 C870 0.931 . S
H889 C874 0.929 . S
H890 C876 0.930 . S
Co891 N895 2.148 . S
Co891 N901 2.128 . S
Co891 N911 2.194 . S
Co891 O916 2.351 . S
Co891 O917 2.155 . S
Co891 O918 2.096 . S
C892 N895 1.301 . S
C892 N896 1.328 . S
C892 H897 0.930 . S
C893 C894 1.333 . S
C893 N895 1.317 . S
C893 H898 0.930 . S
C894 C893 1.333 . S
C894 N896 1.350 . S
C894 H920 0.931 . S
N895 Co891 2.148 . S
N895 C892 1.301 . S
N895 C893 1.317 . S
N896 C892 1.328 . S
N896 C894 1.350 . S
H897 C892 0.930 . S
H898 C893 0.930 . S
C899 O900 1.224 . S
C899 O918 1.247 . S
O900 C899 1.224 . S
N901 Co891 2.128 . S
N901 C902 1.355 . S
N901 C904 1.311 . S
C902 N901 1.355 . S
C902 C903 1.363 . S
C902 H914 0.929 . S
C903 C902 1.363 . S
C903 N905 1.375 . S
C903 H921 0.931 . S
C904 N901 1.311 . S
C904 N905 1.347 . S
C904 H915 0.929 . S
N905 C903 1.375 . S
N905 C904 1.347 . S
C906 C909 1.365 . S
C906 N911 1.328 . S
C906 H912 0.929 . S
C907 C908 1.362 . S
C907 C910 1.378 . S
C907 H922 0.929 . S
C908 C907 1.362 . S
C908 C909 1.366 . S
C909 C906 1.365 . S
C909 C908 1.366 . S
C909 H923 0.930 . S
C910 C907 1.378 . S
C910 N911 1.315 . S
C910 H913 0.930 . S
N911 Co891 2.194 . S
N911 C906 1.328 . S
N911 C910 1.315 . S
H912 C906 0.929 . S
H913 C910 0.930 . S
H914 C902 0.929 . S
H915 C904 0.929 . S
O916 Co891 2.351 . S
O916 C919 1.244 . S
O917 Co891 2.155 . S
O917 C919 1.240 . S
O918 Co891 2.096 . S
O918 C899 1.247 . S
C919 O916 1.244 . S
C919 O917 1.240 . S
H920 C894 0.931 . S
H921 C903 0.931 . S
H922 C907 0.929 . S
H923 C909 0.930 . S
Co924 N928 2.148 . S
Co924 N934 2.128 . S
Co924 N944 2.194 . S
Co924 O949 2.351 . S
Co924 O950 2.155 . S
Co924 O951 2.096 . S
C925 N928 1.301 . S
C925 N929 1.328 . S
C925 H930 0.930 . S
C926 C927 1.333 . S
C926 N928 1.317 . S
C926 H931 0.930 . S
C927 C926 1.333 . S
C927 N929 1.350 . S
C927 H953 0.931 . S
N928 Co924 2.148 . S
N928 C925 1.301 . S
N928 C926 1.317 . S
N929 C925 1.328 . S
N929 C927 1.350 . S
H930 C925 0.930 . S
H931 C926 0.930 . S
C932 O933 1.224 . S
C932 O951 1.247 . S
O933 C932 1.224 . S
N934 Co924 2.128 . S
N934 C935 1.355 . S
N934 C937 1.311 . S
C935 N934 1.355 . S
C935 C936 1.363 . S
C935 H947 0.929 . S
C936 C935 1.363 . S
C936 N938 1.375 . S
C936 H954 0.931 . S
C937 N934 1.311 . S
C937 N938 1.347 . S
C937 H948 0.929 . S
N938 C936 1.375 . S
N938 C937 1.347 . S
C939 C942 1.365 . S
C939 N944 1.328 . S
C939 H945 0.929 . S
C940 C941 1.362 . S
C940 C943 1.378 . S
C940 H955 0.929 . S
C941 C940 1.362 . S
C941 C942 1.366 . S
C942 C939 1.365 . S
C942 C941 1.366 . S
C942 H956 0.930 . S
C943 C940 1.378 . S
C943 N944 1.315 . S
C943 H946 0.930 . S
N944 Co924 2.194 . S
N944 C939 1.328 . S
N944 C943 1.315 . S
H945 C939 0.929 . S
H946 C943 0.930 . S
H947 C935 0.929 . S
H948 C937 0.929 . S
O949 Co924 2.351 . S
O949 C952 1.244 . S
O950 Co924 2.155 . S
O950 C952 1.240 . S
O951 Co924 2.096 . S
O951 C932 1.247 . S
C952 O949 1.244 . S
C952 O950 1.240 . S
H953 C927 0.931 . S
H954 C936 0.931 . S
H955 C940 0.929 . S
H956 C942 0.930 . S
Co957 N961 2.148 . S
Co957 N967 2.128 . S
Co957 N977 2.194 . S
Co957 O982 2.351 . S
Co957 O983 2.155 . S
Co957 O984 2.096 . S
C958 N961 1.301 . S
C958 N962 1.328 . S
C958 H963 0.930 . S
C959 C960 1.333 . S
C959 N961 1.317 . S
C959 H964 0.930 . S
C960 C959 1.333 . S
C960 N962 1.350 . S
C960 H986 0.931 . S
N961 Co957 2.148 . S
N961 C958 1.301 . S
N961 C959 1.317 . S
N962 C958 1.328 . S
N962 C960 1.350 . S
H963 C958 0.930 . S
H964 C959 0.930 . S
C965 O966 1.224 . S
C965 O984 1.247 . S
O966 C965 1.224 . S
N967 Co957 2.128 . S
N967 C968 1.355 . S
N967 C970 1.311 . S
C968 N967 1.355 . S
C968 C969 1.363 . S
C968 H980 0.929 . S
C969 C968 1.363 . S
C969 N971 1.375 . S
C969 H987 0.931 . S
C970 N967 1.311 . S
C970 N971 1.347 . S
C970 H981 0.929 . S
N971 C969 1.375 . S
N971 C970 1.347 . S
C972 C975 1.365 . S
C972 N977 1.328 . S
C972 H978 0.929 . S
C973 C974 1.362 . S
C973 C976 1.378 . S
C973 H988 0.929 . S
C974 C973 1.362 . S
C974 C975 1.366 . S
C975 C972 1.365 . S
C975 C974 1.366 . S
C975 H989 0.930 . S
C976 C973 1.378 . S
C976 N977 1.315 . S
C976 H979 0.930 . S
N977 Co957 2.194 . S
N977 C972 1.328 . S
N977 C976 1.315 . S
H978 C972 0.929 . S
H979 C976 0.930 . S
H980 C968 0.929 . S
H981 C970 0.929 . S
O982 Co957 2.351 . S
O982 C985 1.244 . S
O983 Co957 2.155 . S
O983 C985 1.240 . S
O984 Co957 2.096 . S
O984 C965 1.247 . S
C985 O982 1.244 . S
C985 O983 1.240 . S
H986 C960 0.931 . S
H987 C969 0.931 . S
H988 C973 0.929 . S
H989 C975 0.930 . S
Co990 N994 2.148 . S
Co990 N1000 2.128 . S
Co990 N1010 2.194 . S
Co990 O1015 2.351 . S
Co990 O1016 2.155 . S
Co990 O1017 2.096 . S
C991 N994 1.301 . S
C991 N995 1.328 . S
C991 H996 0.930 . S
C992 C993 1.333 . S
C992 N994 1.317 . S
C992 H997 0.930 . S
C993 C992 1.333 . S
C993 N995 1.350 . S
C993 H1019 0.931 . S
N994 Co990 2.148 . S
N994 C991 1.301 . S
N994 C992 1.317 . S
N995 C991 1.328 . S
N995 C993 1.350 . S
H996 C991 0.930 . S
H997 C992 0.930 . S
C998 O999 1.224 . S
C998 O1017 1.247 . S
O999 C998 1.224 . S
N1000 Co990 2.128 . S
N1000 C1001 1.355 . S
N1000 C1003 1.311 . S
C1001 N1000 1.355 . S
C1001 C1002 1.363 . S
C1001 H1013 0.929 . S
C1002 C1001 1.363 . S
C1002 N1004 1.375 . S
C1002 H1020 0.931 . S
C1003 N1000 1.311 . S
C1003 N1004 1.347 . S
C1003 H1014 0.929 . S
N1004 C1002 1.375 . S
N1004 C1003 1.347 . S
C1005 C1008 1.365 . S
C1005 N1010 1.328 . S
C1005 H1011 0.929 . S
C1006 C1007 1.362 . S
C1006 C1009 1.378 . S
C1006 H1021 0.929 . S
C1007 C1006 1.362 . S
C1007 C1008 1.366 . S
C1008 C1005 1.365 . S
C1008 C1007 1.366 . S
C1008 H1022 0.930 . S
C1009 C1006 1.378 . S
C1009 N1010 1.315 . S
C1009 H1012 0.930 . S
N1010 Co990 2.194 . S
N1010 C1005 1.328 . S
N1010 C1009 1.315 . S
H1011 C1005 0.929 . S
H1012 C1009 0.930 . S
H1013 C1001 0.929 . S
H1014 C1003 0.929 . S
O1015 Co990 2.351 . S
O1015 C1018 1.244 . S
O1016 Co990 2.155 . S
O1016 C1018 1.240 . S
O1017 Co990 2.096 . S
O1017 C998 1.247 . S
C1018 O1015 1.244 . S
C1018 O1016 1.240 . S
H1019 C993 0.931 . S
H1020 C1002 0.931 . S
H1021 C1006 0.929 . S
H1022 C1008 0.930 . S
Co1023 N1027 2.148 . S
Co1023 N1033 2.128 . S
Co1023 N1043 2.194 . S
Co1023 O1048 2.351 . S
Co1023 O1049 2.155 . S
Co1023 O1050 2.096 . S
C1024 N1027 1.301 . S
C1024 N1028 1.328 . S
C1024 H1029 0.930 . S
C1025 C1026 1.333 . S
C1025 N1027 1.317 . S
C1025 H1030 0.930 . S
C1026 C1025 1.333 . S
C1026 N1028 1.350 . S
C1026 H1052 0.931 . S
N1027 Co1023 2.148 . S
N1027 C1024 1.301 . S
N1027 C1025 1.317 . S
N1028 C1024 1.328 . S
N1028 C1026 1.350 . S
H1029 C1024 0.930 . S
H1030 C1025 0.930 . S
C1031 O1032 1.224 . S
C1031 O1050 1.247 . S
O1032 C1031 1.224 . S
N1033 Co1023 2.128 . S
N1033 C1034 1.355 . S
N1033 C1036 1.311 . S
C1034 N1033 1.355 . S
C1034 C1035 1.363 . S
C1034 H1046 0.929 . S
C1035 C1034 1.363 . S
C1035 N1037 1.375 . S
C1035 H1053 0.931 . S
C1036 N1033 1.311 . S
C1036 N1037 1.347 . S
C1036 H1047 0.929 . S
N1037 C1035 1.375 . S
N1037 C1036 1.347 . S
C1038 C1041 1.365 . S
C1038 N1043 1.328 . S
C1038 H1044 0.929 . S
C1039 C1040 1.362 . S
C1039 C1042 1.378 . S
C1039 H1054 0.929 . S
C1040 C1039 1.362 . S
C1040 C1041 1.366 . S
C1041 C1038 1.365 . S
C1041 C1040 1.366 . S
C1041 H1055 0.930 . S
C1042 C1039 1.378 . S
C1042 N1043 1.315 . S
C1042 H1045 0.930 . S
N1043 Co1023 2.194 . S
N1043 C1038 1.328 . S
N1043 C1042 1.315 . S
H1044 C1038 0.929 . S
H1045 C1042 0.930 . S
H1046 C1034 0.929 . S
H1047 C1036 0.929 . S
O1048 Co1023 2.351 . S
O1048 C1051 1.244 . S
O1049 Co1023 2.155 . S
O1049 C1051 1.240 . S
O1050 Co1023 2.096 . S
O1050 C1031 1.247 . S
C1051 O1048 1.244 . S
C1051 O1049 1.240 . S
H1052 C1026 0.931 . S
H1053 C1035 0.931 . S
H1054 C1039 0.929 . S
H1055 C1041 0.930 . S
H1056 C1062 0.930 . S
H1057 C1066 0.930 . S
H1058 C1071 0.929 . S
H1059 C1069 0.929 . S
H1060 C1064 0.929 . S
H1061 C1070 0.929 . S
C1062 H1056 0.930 . S
C1062 C1063 1.367 . S
C1062 C1070 1.378 . S
C1063 C1062 1.367 . S
C1063 C1071 1.433 . S
C1064 H1060 0.929 . S
C1064 C1066 1.378 . S
C1064 C1068 1.350 . S
C1065 C1068 1.463 . S
C1065 C1070 1.350 . S
C1065 N1073 1.427 . S
C1066 H1057 0.930 . S
C1066 C1064 1.378 . S
C1066 C1067 1.367 . S
C1067 C1066 1.367 . S
C1067 C1069 1.433 . S
C1068 C1064 1.350 . S
C1068 C1065 1.463 . S
C1068 N1072 1.427 . S
C1069 H1059 0.929 . S
C1069 C1067 1.433 . S
C1069 N1072 1.384 . S
C1070 H1061 0.929 . S
C1070 C1062 1.378 . S
C1070 C1065 1.350 . S
C1071 H1058 0.929 . S
C1071 C1063 1.433 . S
C1071 N1073 1.384 . S
N1072 C1068 1.427 . S
N1072 C1069 1.384 . S
N1073 C1065 1.427 . S
N1073 C1071 1.384 . S
H1074 C1080 0.930 . S
H1075 C1084 0.930 . S
H1076 C1089 0.929 1_565 S
H1077 C1087 0.929 . S
H1078 C1082 0.929 . S
H1079 C1088 0.929 . S
C1080 H1074 0.930 . S
C1080 C1081 1.367 . S
C1080 C1088 1.378 . S
C1081 C1080 1.367 . S
C1081 C1089 1.433 . S
C1082 H1078 0.929 . S
C1082 C1084 1.378 . S
C1082 C1086 1.350 . S
C1083 C1086 1.463 . S
C1083 C1088 1.350 . S
C1083 N1091 1.427 . S
C1084 H1075 0.930 . S
C1084 C1082 1.378 . S
C1084 C1085 1.367 . S
C1085 C1084 1.367 . S
C1085 C1087 1.433 . S
C1086 C1082 1.350 . S
C1086 C1083 1.463 . S
C1086 N1090 1.427 . S
C1087 H1077 0.929 . S
C1087 C1085 1.433 . S
C1087 N1090 1.384 . S
C1088 H1079 0.929 . S
C1088 C1080 1.378 . S
C1088 C1083 1.350 . S
C1089 H1076 0.929 1_545 S
C1089 C1081 1.433 . S
C1089 N1091 1.384 . S
N1090 C1086 1.427 . S
N1090 C1087 1.384 . S
N1091 C1083 1.427 . S
N1091 C1089 1.384 . S
H1092 C1098 0.930 . S
H1093 C1102 0.930 . S
H1094 C1107 0.929 . S
H1095 C1105 0.929 . S
H1096 C1100 0.929 . S
H1097 C1106 0.929 . S
C1098 H1092 0.930 . S
C1098 C1099 1.367 . S
C1098 C1106 1.378 . S
C1099 C1098 1.367 . S
C1099 C1107 1.433 . S
C1100 H1096 0.929 . S
C1100 C1102 1.378 . S
C1100 C1104 1.350 . S
C1101 C1104 1.463 . S
C1101 C1106 1.350 . S
C1101 N1109 1.427 . S
C1102 H1093 0.930 . S
C1102 C1100 1.378 . S
C1102 C1103 1.367 . S
C1103 C1102 1.367 . S
C1103 C1105 1.433 . S
C1104 C1100 1.350 . S
C1104 C1101 1.463 . S
C1104 N1108 1.427 . S
C1105 H1095 0.929 . S
C1105 C1103 1.433 . S
C1105 N1108 1.384 . S
C1106 H1097 0.929 . S
C1106 C1098 1.378 . S
C1106 C1101 1.350 . S
C1107 H1094 0.929 . S
C1107 C1099 1.433 . S
C1107 N1109 1.384 . S
N1108 C1104 1.427 . S
N1108 C1105 1.384 . S
N1109 C1101 1.427 . S
N1109 C1107 1.384 . S
H1110 C1116 0.930 . S
H1111 C1120 0.930 1_545 S
H1112 C1125 0.929 . S
H1113 C1123 0.929 . S
H1114 C1118 0.929 . S
H1115 C1124 0.929 . S
C1116 H1110 0.930 . S
C1116 C1117 1.367 . S
C1116 C1124 1.378 . S
C1117 C1116 1.367 . S
C1117 C1125 1.433 . S
C1118 H1114 0.929 . S
C1118 C1120 1.378 . S
C1118 C1122 1.350 . S
C1119 C1122 1.463 . S
C1119 C1124 1.350 . S
C1119 N1127 1.427 . S
C1120 H1111 0.930 1_565 S
C1120 C1118 1.378 . S
C1120 C1121 1.367 . S
C1121 C1120 1.367 . S
C1121 C1123 1.433 . S
C1122 C1118 1.350 . S
C1122 C1119 1.463 . S
C1122 N1126 1.427 . S
C1123 H1113 0.929 . S
C1123 C1121 1.433 . S
C1123 N1126 1.384 . S
C1124 H1115 0.929 . S
C1124 C1116 1.378 . S
C1124 C1119 1.350 . S
C1125 H1112 0.929 . S
C1125 C1117 1.433 . S
C1125 N1127 1.384 . S
N1126 C1122 1.427 . S
N1126 C1123 1.384 . S
N1127 C1119 1.427 . S
N1127 C1125 1.384 . S
H1128 C1134 0.930 . S
H1129 C1138 0.930 . S
H1130 C1143 0.929 . S
H1131 C1141 0.929 . S
H1132 C1136 0.929 . S
H1133 C1142 0.929 . S
C1134 H1128 0.930 . S
C1134 C1135 1.367 . S
C1134 C1142 1.378 . S
C1135 C1134 1.367 . S
C1135 C1143 1.433 . S
C1136 H1132 0.929 . S
C1136 C1138 1.378 . S
C1136 C1140 1.350 . S
C1137 C1140 1.463 . S
C1137 C1142 1.350 . S
C1137 N1145 1.427 . S
C1138 H1129 0.930 . S
C1138 C1136 1.378 . S
C1138 C1139 1.367 . S
C1139 C1138 1.367 . S
C1139 C1141 1.433 . S
C1140 C1136 1.350 . S
C1140 C1137 1.463 . S
C1140 N1144 1.427 . S
C1141 H1131 0.929 . S
C1141 C1139 1.433 . S
C1141 N1144 1.384 . S
C1142 H1133 0.929 . S
C1142 C1134 1.378 . S
C1142 C1137 1.350 . S
C1143 H1130 0.929 . S
C1143 C1135 1.433 . S
C1143 N1145 1.384 . S
N1144 C1140 1.427 . S
N1144 C1141 1.384 . S
N1145 C1137 1.427 . S
N1145 C1143 1.384 . S
H1146 C1152 0.930 . S
H1147 C1156 0.930 . S
H1148 C1161 0.929 . S
H1149 C1159 0.929 . S
H1150 C1154 0.929 . S
H1151 C1160 0.929 . S
C1152 H1146 0.930 . S
C1152 C1153 1.367 . S
C1152 C1160 1.378 . S
C1153 C1152 1.367 . S
C1153 C1161 1.433 . S
C1154 H1150 0.929 . S
C1154 C1156 1.378 . S
C1154 C1158 1.350 . S
C1155 C1158 1.463 . S
C1155 C1160 1.350 . S
C1155 N1163 1.427 . S
C1156 H1147 0.930 . S
C1156 C1154 1.378 . S
C1156 C1157 1.367 . S
C1157 C1156 1.367 . S
C1157 C1159 1.433 . S
C1158 C1154 1.350 . S
C1158 C1155 1.463 . S
C1158 N1162 1.427 . S
C1159 H1149 0.929 . S
C1159 C1157 1.433 . S
C1159 N1162 1.384 . S
C1160 H1151 0.929 . S
C1160 C1152 1.378 . S
C1160 C1155 1.350 . S
C1161 H1148 0.929 . S
C1161 C1153 1.433 . S
C1161 N1163 1.384 . S
N1162 C1158 1.427 . S
N1162 C1159 1.384 . S
N1163 C1155 1.427 . S
N1163 C1161 1.384 . S
H1164 C1170 0.930 . S
H1165 C1174 0.930 . S
H1166 C1179 0.929 . S
H1167 C1177 0.929 . S
H1168 C1172 0.929 . S
H1169 C1178 0.929 . S
C1170 H1164 0.930 . S
C1170 C1171 1.367 . S
C1170 C1178 1.378 . S
C1171 C1170 1.367 . S
C1171 C1179 1.433 . S
C1172 H1168 0.929 . S
C1172 C1174 1.378 . S
C1172 C1176 1.350 . S
C1173 C1176 1.463 . S
C1173 C1178 1.350 . S
C1173 N1181 1.427 . S
C1174 H1165 0.930 . S
C1174 C1172 1.378 . S
C1174 C1175 1.367 . S
C1175 C1174 1.367 . S
C1175 C1177 1.433 . S
C1176 C1172 1.350 . S
C1176 C1173 1.463 . S
C1176 N1180 1.427 . S
C1177 H1167 0.929 . S
C1177 C1175 1.433 . S
C1177 N1180 1.384 . S
C1178 H1169 0.929 . S
C1178 C1170 1.378 . S
C1178 C1173 1.350 . S
C1179 H1166 0.929 . S
C1179 C1171 1.433 . S
C1179 N1181 1.384 . S
N1180 C1176 1.427 . S
N1180 C1177 1.384 . S
N1181 C1173 1.427 . S
N1181 C1179 1.384 . S
H1182 C1188 0.930 . S
H1183 C1192 0.930 . S
H1184 C1197 0.929 . S
H1185 C1195 0.929 . S
H1186 C1190 0.929 . S
H1187 C1196 0.929 . S
C1188 H1182 0.930 . S
C1188 C1189 1.367 . S
C1188 C1196 1.378 . S
C1189 C1188 1.367 . S
C1189 C1197 1.433 . S
C1190 H1186 0.929 . S
C1190 C1192 1.378 . S
C1190 C1194 1.350 . S
C1191 C1194 1.463 . S
C1191 C1196 1.350 . S
C1191 N1199 1.427 . S
C1192 H1183 0.930 . S
C1192 C1190 1.378 . S
C1192 C1193 1.367 . S
C1193 C1192 1.367 . S
C1193 C1195 1.433 . S
C1194 C1190 1.350 . S
C1194 C1191 1.463 . S
C1194 N1198 1.427 . S
C1195 H1185 0.929 . S
C1195 C1193 1.433 . S
C1195 N1198 1.384 . S
C1196 H1187 0.929 . S
C1196 C1188 1.378 . S
C1196 C1191 1.350 . S
C1197 H1184 0.929 . S
C1197 C1189 1.433 . S
C1197 N1199 1.384 . S
N1198 C1194 1.427 . S
N1198 C1195 1.384 . S
N1199 C1191 1.427 . S
N1199 C1197 1.384 . S
H1200 C1206 0.930 1_565 S
H1201 C1210 0.930 . S
H1202 C1215 0.929 . S
H1203 C1213 0.929 . S
H1204 C1208 0.929 . S
H1205 C1214 0.929 . S
C1206 H1200 0.930 1_545 S
C1206 C1207 1.367 . S
C1206 C1214 1.378 . S
C1207 C1206 1.367 . S
C1207 C1215 1.433 . S
C1208 H1204 0.929 . S
C1208 C1210 1.378 . S
C1208 C1212 1.350 . S
C1209 C1212 1.463 . S
C1209 C1214 1.350 . S
C1209 N1217 1.427 . S
C1210 H1201 0.930 . S
C1210 C1208 1.378 . S
C1210 C1211 1.367 . S
C1211 C1210 1.367 . S
C1211 C1213 1.433 . S
C1212 C1208 1.350 . S
C1212 C1209 1.463 . S
C1212 N1216 1.427 . S
C1213 H1203 0.929 . S
C1213 C1211 1.433 . S
C1213 N1216 1.384 . S
C1214 H1205 0.929 . S
C1214 C1206 1.378 . S
C1214 C1209 1.350 . S
C1215 H1202 0.929 . S
C1215 C1207 1.433 . S
C1215 N1217 1.384 . S
N1216 C1212 1.427 . S
N1216 C1213 1.384 . S
N1217 C1209 1.427 . S
N1217 C1215 1.384 . S
H1218 C1224 0.930 1_565 S
H1219 C1228 0.930 . S
H1220 C1233 0.929 . S
H1221 C1231 0.929 . S
H1222 C1226 0.929 . S
H1223 C1232 0.929 . S
C1224 H1218 0.930 1_545 S
C1224 C1225 1.367 . S
C1224 C1232 1.378 . S
C1225 C1224 1.367 . S
C1225 C1233 1.433 . S
C1226 H1222 0.929 . S
C1226 C1228 1.378 . S
C1226 C1230 1.350 . S
C1227 C1230 1.463 . S
C1227 C1232 1.350 . S
C1227 N1235 1.427 . S
C1228 H1219 0.930 . S
C1228 C1226 1.378 . S
C1228 C1229 1.367 . S
C1229 C1228 1.367 . S
C1229 C1231 1.433 . S
C1230 C1226 1.350 . S
C1230 C1227 1.463 . S
C1230 N1234 1.427 . S
C1231 H1221 0.929 . S
C1231 C1229 1.433 . S
C1231 N1234 1.384 . S
C1232 H1223 0.929 . S
C1232 C1224 1.378 . S
C1232 C1227 1.350 . S
C1233 H1220 0.929 . S
C1233 C1225 1.433 . S
C1233 N1235 1.384 . S
N1234 C1230 1.427 . S
N1234 C1231 1.384 . S
N1235 C1227 1.427 . S
N1235 C1233 1.384 . S
H1236 C1242 0.930 . S
H1237 C1246 0.930 . S
H1238 C1251 0.929 . S
H1239 C1249 0.929 . S
H1240 C1244 0.929 . S
H1241 C1250 0.929 . S
C1242 H1236 0.930 . S
C1242 C1243 1.367 . S
C1242 C1250 1.378 . S
C1243 C1242 1.367 . S
C1243 C1251 1.433 . S
C1244 H1240 0.929 . S
C1244 C1246 1.378 . S
C1244 C1248 1.350 . S
C1245 C1248 1.463 . S
C1245 C1250 1.350 . S
C1245 N1253 1.427 . S
C1246 H1237 0.930 . S
C1246 C1244 1.378 . S
C1246 C1247 1.367 . S
C1247 C1246 1.367 . S
C1247 C1249 1.433 . S
C1248 C1244 1.350 . S
C1248 C1245 1.463 . S
C1248 N1252 1.427 . S
C1249 H1239 0.929 . S
C1249 C1247 1.433 . S
C1249 N1252 1.384 . S
C1250 H1241 0.929 . S
C1250 C1242 1.378 . S
C1250 C1245 1.350 . S
C1251 H1238 0.929 . S
C1251 C1243 1.433 . S
C1251 N1253 1.384 . S
N1252 C1248 1.427 . S
N1252 C1249 1.384 . S
N1253 C1245 1.427 . S
N1253 C1251 1.384 . S
H1254 C1260 0.930 . S
H1255 C1264 0.930 1_545 S
H1256 C1269 0.929 . S
H1257 C1267 0.929 . S
H1258 C1262 0.929 . S
H1259 C1268 0.929 . S
C1260 H1254 0.930 . S
C1260 C1261 1.367 . S
C1260 C1268 1.378 . S
C1261 C1260 1.367 . S
C1261 C1269 1.433 . S
C1262 H1258 0.929 . S
C1262 C1264 1.378 . S
C1262 C1266 1.350 . S
C1263 C1266 1.463 . S
C1263 C1268 1.350 . S
C1263 N1271 1.427 . S
C1264 H1255 0.930 1_565 S
C1264 C1262 1.378 . S
C1264 C1265 1.367 . S
C1265 C1264 1.367 . S
C1265 C1267 1.433 . S
C1266 C1262 1.350 . S
C1266 C1263 1.463 . S
C1266 N1270 1.427 . S
C1267 H1257 0.929 . S
C1267 C1265 1.433 . S
C1267 N1270 1.384 . S
C1268 H1259 0.929 . S
C1268 C1260 1.378 . S
C1268 C1263 1.350 . S
C1269 H1256 0.929 . S
C1269 C1261 1.433 . S
C1269 N1271 1.384 . S
N1270 C1266 1.427 . S
N1270 C1267 1.384 . S
N1271 C1263 1.427 . S
N1271 C1269 1.384 . S
H1272 C1278 0.930 . S
H1273 C1282 0.972 . S
H1274 C1287 0.955 . S
H1275 C1285 0.929 . S
H1276 C1280 0.972 . S
H1277 C1286 0.929 . S
C1278 H1272 0.930 . S
C1278 C1279 1.367 . S
C1278 C1286 1.378 . S
C1279 C1278 1.367 . S
C1279 C1287 1.433 . S
C1280 H1276 0.972 . S
C1280 C1282 1.378 . S
C1280 C1284 1.350 . S
C1281 C1284 1.463 . S
C1281 C1286 1.350 . S
C1281 N1289 1.427 . S
C1282 H1273 0.972 . S
C1282 C1280 1.378 . S
C1282 C1283 1.367 . S
C1283 C1282 1.367 . S
C1283 C1285 1.433 . S
C1284 C1280 1.350 . S
C1284 C1281 1.463 . S
C1284 N1288 1.427 . S
C1285 H1275 0.929 . S
C1285 C1283 1.433 . S
C1285 N1288 1.384 . S
C1286 H1277 0.929 . S
C1286 C1278 1.378 . S
C1286 C1281 1.350 . S
C1287 H1274 0.955 . S
C1287 C1279 1.433 . S
C1287 N1289 1.384 . S
N1288 C1284 1.427 . S
N1288 C1285 1.384 . S
N1289 C1281 1.427 . S
N1289 C1287 1.384 . S
H1290 C1296 0.930 . S
H1291 C1300 0.930 . S
H1292 C1305 0.929 . S
H1293 C1303 0.929 . S
H1294 C1298 0.929 . S
H1295 C1304 0.929 . S
C1296 H1290 0.930 . S
C1296 C1297 1.367 . S
C1296 C1304 1.378 . S
C1297 C1296 1.367 . S
C1297 C1305 1.433 . S
C1298 H1294 0.929 . S
C1298 C1300 1.378 . S
C1298 C1302 1.350 . S
C1299 C1302 1.463 . S
C1299 C1304 1.350 . S
C1299 N1307 1.427 . S
C1300 H1291 0.930 . S
C1300 C1298 1.378 . S
C1300 C1301 1.367 . S
C1301 C1300 1.367 . S
C1301 C1303 1.433 . S
C1302 C1298 1.350 . S
C1302 C1299 1.463 . S
C1302 N1306 1.427 . S
C1303 H1293 0.929 . S
C1303 C1301 1.433 . S
C1303 N1306 1.384 . S
C1304 H1295 0.929 . S
C1304 C1296 1.378 . S
C1304 C1299 1.350 . S
C1305 H1292 0.929 . S
C1305 C1297 1.433 . S
C1305 N1307 1.384 . S
N1306 C1302 1.427 . S
N1306 C1303 1.384 . S
N1307 C1299 1.427 . S
N1307 C1305 1.384 . S
H1308 C1314 0.930 . S
H1309 C1318 0.930 . S
H1310 C1323 0.929 . S
H1311 C1321 0.929 . S
H1312 C1316 0.929 . S
H1313 C1322 0.929 . S
C1314 H1308 0.930 . S
C1314 C1315 1.367 . S
C1314 C1322 1.378 . S
C1315 C1314 1.367 . S
C1315 C1323 1.433 . S
C1316 H1312 0.929 . S
C1316 C1318 1.378 . S
C1316 C1320 1.350 . S
C1317 C1320 1.463 . S
C1317 C1322 1.350 . S
C1317 N1325 1.427 . S
C1318 H1309 0.930 . S
C1318 C1316 1.378 . S
C1318 C1319 1.367 . S
C1319 C1318 1.367 . S
C1319 C1321 1.433 . S
C1320 C1316 1.350 . S
C1320 C1317 1.463 . S
C1320 N1324 1.427 . S
C1321 H1311 0.929 . S
C1321 C1319 1.433 . S
C1321 N1324 1.384 . S
C1322 H1313 0.929 . S
C1322 C1314 1.378 . S
C1322 C1317 1.350 . S
C1323 H1310 0.929 . S
C1323 C1315 1.433 . S
C1323 N1325 1.384 . S
N1324 C1320 1.427 . S
N1324 C1321 1.384 . S
N1325 C1317 1.427 . S
N1325 C1323 1.384 . S
H1326 C1332 0.930 . S
H1327 C1336 0.930 . S
H1328 C1341 0.929 . S
H1329 C1339 0.929 . S
H1330 C1334 0.929 . S
H1331 C1340 0.929 . S
C1332 H1326 0.930 . S
C1332 C1333 1.367 . S
C1332 C1340 1.378 . S
C1333 C1332 1.367 . S
C1333 C1341 1.433 . S
C1334 H1330 0.929 . S
C1334 C1336 1.378 . S
C1334 C1338 1.350 . S
C1335 C1338 1.463 . S
C1335 C1340 1.350 . S
C1335 N1343 1.427 . S
C1336 H1327 0.930 . S
C1336 C1334 1.378 . S
C1336 C1337 1.367 . S
C1337 C1336 1.367 . S
C1337 C1339 1.433 . S
C1338 C1334 1.350 . S
C1338 C1335 1.463 . S
C1338 N1342 1.427 . S
C1339 H1329 0.929 . S
C1339 C1337 1.433 . S
C1339 N1342 1.384 . S
C1340 H1331 0.929 . S
C1340 C1332 1.378 . S
C1340 C1335 1.350 . S
C1341 H1328 0.929 . S
C1341 C1333 1.433 . S
C1341 N1343 1.384 . S
N1342 C1338 1.427 . S
N1342 C1339 1.384 . S
N1343 C1335 1.427 . S
N1343 C1341 1.384 . S
H1344 C1350 0.930 . S
H1345 C1354 0.930 . S
H1346 C1359 0.929 . S
H1347 C1357 0.929 . S
H1348 C1352 0.929 1_565 S
H1349 C1358 0.929 1_545 S
C1350 H1344 0.930 . S
C1350 C1351 1.367 . S
C1350 C1358 1.378 . S
C1351 C1350 1.367 . S
C1351 C1359 1.433 . S
C1352 H1348 0.929 1_545 S
C1352 C1354 1.378 . S
C1352 C1356 1.350 . S
C1353 C1356 1.463 1_566 S
C1353 C1358 1.350 . S
C1353 N1361 1.427 . S
C1354 H1345 0.930 . S
C1354 C1352 1.378 . S
C1354 C1355 1.367 . S
C1355 C1354 1.367 . S
C1355 C1357 1.433 . S
C1356 C1352 1.350 . S
C1356 C1353 1.463 1_544 S
C1356 N1360 1.427 . S
C1357 H1347 0.929 . S
C1357 C1355 1.433 . S
C1357 N1360 1.384 . S
C1358 H1349 0.929 1_565 S
C1358 C1350 1.378 . S
C1358 C1353 1.350 . S
C1359 H1346 0.929 . S
C1359 C1351 1.433 . S
C1359 N1361 1.384 . S
N1360 C1356 1.427 . S
N1360 C1357 1.384 . S
N1361 C1353 1.427 . S
N1361 C1359 1.384 . S
H1362 C1368 0.930 . S
H1363 C1372 0.930 . S
H1364 C1377 0.929 . S
H1365 C1375 0.929 . S
H1366 C1370 0.929 . S
H1367 C1376 0.929 . S
C1368 H1362 0.930 . S
C1368 C1369 1.367 . S
C1368 C1376 1.378 . S
C1369 C1368 1.367 . S
C1369 C1377 1.433 . S
C1370 H1366 0.929 . S
C1370 C1372 1.378 . S
C1370 C1374 1.350 . S
C1371 C1374 1.463 1_554 S
C1371 C1376 1.350 . S
C1371 N1379 1.427 . S
C1372 H1363 0.930 . S
C1372 C1370 1.378 . S
C1372 C1373 1.367 . S
C1373 C1372 1.367 . S
C1373 C1375 1.433 . S
C1374 C1370 1.350 . S
C1374 C1371 1.463 1_556 S
C1374 N1378 1.427 . S
C1375 H1365 0.929 . S
C1375 C1373 1.433 . S
C1375 N1378 1.384 . S
C1376 H1367 0.929 . S
C1376 C1368 1.378 . S
C1376 C1371 1.350 . S
C1377 H1364 0.929 . S
C1377 C1369 1.433 . S
C1377 N1379 1.384 . S
N1378 C1374 1.427 . S
N1378 C1375 1.384 . S
N1379 C1371 1.427 . S
N1379 C1377 1.384 . S
H1380 C1386 0.930 . S
H1381 C1390 0.930 . S
H1382 C1395 0.929 . S
H1383 C1393 0.929 . S
H1384 C1388 0.929 . S
H1385 C1394 0.929 . S
C1386 H1380 0.930 . S
C1386 C1387 1.367 . S
C1386 C1394 1.378 . S
C1387 C1386 1.367 . S
C1387 C1395 1.433 . S
C1388 H1384 0.929 . S
C1388 C1390 1.378 . S
C1388 C1392 1.350 . S
C1389 C1392 1.463 . S
C1389 C1394 1.350 . S
C1389 N1397 1.427 . S
C1390 H1381 0.930 . S
C1390 C1388 1.378 . S
C1390 C1391 1.367 . S
C1391 C1390 1.367 . S
C1391 C1393 1.433 . S
C1392 C1388 1.350 . S
C1392 C1389 1.463 . S
C1392 N1396 1.427 . S
C1393 H1383 0.929 . S
C1393 C1391 1.433 . S
C1393 N1396 1.384 . S
C1394 H1385 0.929 . S
C1394 C1386 1.378 . S
C1394 C1389 1.350 . S
C1395 H1382 0.929 . S
C1395 C1387 1.433 . S
C1395 N1397 1.384 . S
N1396 C1392 1.427 . S
N1396 C1393 1.384 . S
N1397 C1389 1.427 . S
N1397 C1395 1.384 . S
H1398 C1404 0.930 . S
H1399 C1408 0.930 . S
H1400 C1413 0.929 . S
H1401 C1411 0.929 . S
H1402 C1406 0.929 . S
H1403 C1412 0.929 . S
C1404 H1398 0.930 . S
C1404 C1405 1.367 . S
C1404 C1412 1.378 1_545 S
C1405 C1404 1.367 . S
C1405 C1413 1.433 . S
C1406 H1402 0.929 . S
C1406 C1408 1.378 1_545 S
C1406 C1410 1.350 1_545 S
C1407 C1410 1.463 1_545 S
C1407 C1412 1.350 1_545 S
C1407 N1415 1.427 . S
C1408 H1399 0.930 . S
C1408 C1406 1.378 1_565 S
C1408 C1409 1.367 . S
C1409 C1408 1.367 . S
C1409 C1411 1.433 . S
C1410 C1406 1.350 1_565 S
C1410 C1407 1.463 1_565 S
C1410 N1414 1.427 . S
C1411 H1401 0.929 . S
C1411 C1409 1.433 . S
C1411 N1414 1.384 . S
C1412 H1403 0.929 . S
C1412 C1404 1.378 1_565 S
C1412 C1407 1.350 1_565 S
C1413 H1400 0.929 . S
C1413 C1405 1.433 . S
C1413 N1415 1.384 . S
N1414 C1410 1.427 . S
N1414 C1411 1.384 . S
N1415 C1407 1.427 . S
N1415 C1413 1.384 . S
H1416 C1422 0.930 . S
H1417 C1426 0.930 . S
H1418 C1431 0.929 . S
H1419 C1429 0.929 . S
H1420 C1424 0.929 1_556 S
H1421 C1430 0.929 1_554 S
C1422 H1416 0.930 . S
C1422 C1423 1.367 . S
C1422 C1430 1.378 . S
C1423 C1422 1.367 . S
C1423 C1431 1.433 . S
C1424 H1420 0.929 1_554 S
C1424 C1426 1.378 . S
C1424 C1428 1.350 . S
C1425 C1428 1.463 1_556 S
C1425 C1430 1.350 . S
C1425 N1433 1.427 . S
C1426 H1417 0.930 . S
C1426 C1424 1.378 . S
C1426 C1427 1.367 . S
C1427 C1426 1.367 . S
C1427 C1429 1.433 . S
C1428 C1424 1.350 . S
C1428 C1425 1.463 1_554 S
C1428 N1432 1.427 . S
C1429 H1419 0.929 . S
C1429 C1427 1.433 . S
C1429 N1432 1.384 . S
C1430 H1421 0.929 1_556 S
C1430 C1422 1.378 . S
C1430 C1425 1.350 . S
C1431 H1418 0.929 . S
C1431 C1423 1.433 . S
C1431 N1433 1.384 . S
N1432 C1428 1.427 . S
N1432 C1429 1.384 . S
N1433 C1425 1.427 . S
N1433 C1431 1.384 . S
H1434 C1440 0.930 . S
H1435 C1444 0.930 . S
H1436 C1449 0.929 . S
H1437 C1447 0.929 . S
H1438 C1442 0.929 . S
H1439 C1448 0.929 . S
C1440 H1434 0.930 . S
C1440 C1441 1.367 . S
C1440 C1448 1.378 . S
C1441 C1440 1.367 . S
C1441 C1449 1.433 . S
C1442 H1438 0.929 . S
C1442 C1444 1.378 . S
C1442 C1446 1.350 . S
C1443 C1446 1.463 . S
C1443 C1448 1.350 . S
C1443 N1451 1.427 . S
C1444 H1435 0.930 . S
C1444 C1442 1.378 . S
C1444 C1445 1.367 . S
C1445 C1444 1.367 . S
C1445 C1447 1.433 . S
C1446 C1442 1.350 . S
C1446 C1443 1.463 . S
C1446 N1450 1.427 . S
C1447 H1437 0.929 . S
C1447 C1445 1.433 . S
C1447 N1450 1.384 . S
C1448 H1439 0.929 . S
C1448 C1440 1.378 . S
C1448 C1443 1.350 . S
C1449 H1436 0.929 . S
C1449 C1441 1.433 . S
C1449 N1451 1.384 . S
N1450 C1446 1.427 . S
N1450 C1447 1.384 . S
N1451 C1443 1.427 . S
N1451 C1449 1.384 . S
H1452 C1458 0.930 . S
H1453 C1462 0.930 . S
H1454 C1467 0.929 . S
H1455 C1465 0.929 . S
H1456 C1460 0.929 . S
H1457 C1466 0.929 . S
C1458 H1452 0.930 . S
C1458 C1459 1.367 . S
C1458 C1466 1.378 1_545 S
C1459 C1458 1.367 . S
C1459 C1467 1.433 . S
C1460 H1456 0.929 . S
C1460 C1462 1.378 1_545 S
C1460 C1464 1.350 1_545 S
C1461 C1464 1.463 1_545 S
C1461 C1466 1.350 1_545 S
C1461 N1469 1.427 . S
C1462 H1453 0.930 . S
C1462 C1460 1.378 1_565 S
C1462 C1463 1.367 . S
C1463 C1462 1.367 . S
C1463 C1465 1.433 . S
C1464 C1460 1.350 1_565 S
C1464 C1461 1.463 1_565 S
C1464 N1468 1.427 . S
C1465 H1455 0.929 . S
C1465 C1463 1.433 . S
C1465 N1468 1.384 . S
C1466 H1457 0.929 . S
C1466 C1458 1.378 1_565 S
C1466 C1461 1.350 1_565 S
C1467 H1454 0.929 . S
C1467 C1459 1.433 . S
C1467 N1469 1.384 . S
N1468 C1464 1.427 . S
N1468 C1465 1.384 . S
N1469 C1461 1.427 . S
N1469 C1467 1.384 . S
H1470 C1476 0.930 . S
H1471 C1480 0.930 . S
H1472 C1485 0.929 . S
H1473 C1483 0.929 . S
H1474 C1478 0.929 . S
H1475 C1484 0.929 . S
C1476 H1470 0.930 . S
C1476 C1477 1.367 . S
C1476 C1484 1.378 . S
C1477 C1476 1.367 . S
C1477 C1485 1.433 . S
C1478 H1474 0.929 . S
C1478 C1480 1.378 . S
C1478 C1482 1.350 . S
C1479 C1482 1.463 . S
C1479 C1484 1.350 . S
C1479 N1487 1.427 . S
C1480 H1471 0.930 . S
C1480 C1478 1.378 . S
C1480 C1481 1.367 . S
C1481 C1480 1.367 . S
C1481 C1483 1.433 . S
C1482 C1478 1.350 . S
C1482 C1479 1.463 . S
C1482 N1486 1.427 . S
C1483 H1473 0.929 . S
C1483 C1481 1.433 . S
C1483 N1486 1.384 . S
C1484 H1475 0.929 . S
C1484 C1476 1.378 . S
C1484 C1479 1.350 . S
C1485 H1472 0.929 . S
C1485 C1477 1.433 . S
C1485 N1487 1.384 . S
N1486 C1482 1.427 . S
N1486 C1483 1.384 . S
N1487 C1479 1.427 . S
N1487 C1485 1.384 . S
H1488 C1494 0.930 . S
H1489 C1498 0.930 . S
H1490 C1503 0.929 . S
H1491 C1501 0.929 . S
H1492 C1496 0.929 . S
H1493 C1502 0.929 . S
C1494 H1488 0.930 . S
C1494 C1495 1.367 . S
C1494 C1502 1.378 . S
C1495 C1494 1.367 . S
C1495 C1503 1.433 . S
C1496 H1492 0.929 . S
C1496 C1498 1.378 . S
C1496 C1500 1.350 . S
C1497 C1500 1.463 . S
C1497 C1502 1.350 . S
C1497 N1505 1.427 . S
C1498 H1489 0.930 . S
C1498 C1496 1.378 . S
C1498 C1499 1.367 . S
C1499 C1498 1.367 . S
C1499 C1501 1.433 . S
C1500 C1496 1.350 . S
C1500 C1497 1.463 . S
C1500 N1504 1.427 . S
C1501 H1491 0.929 . S
C1501 C1499 1.433 . S
C1501 N1504 1.384 . S
C1502 H1493 0.929 . S
C1502 C1494 1.378 . S
C1502 C1497 1.350 . S
C1503 H1490 0.929 . S
C1503 C1495 1.433 . S
C1503 N1505 1.384 . S
N1504 C1500 1.427 . S
N1504 C1501 1.384 . S
N1505 C1497 1.427 . S
N1505 C1503 1.384 . S
H1506 C1512 0.930 . S
H1507 C1516 0.930 . S
H1508 C1521 0.929 . S
H1509 C1519 0.929 . S
H1510 C1514 0.929 . S
H1511 C1520 0.929 . S
C1512 H1506 0.930 . S
C1512 C1513 1.367 . S
C1512 C1520 1.378 . S
C1513 C1512 1.367 . S
C1513 C1521 1.433 . S
C1514 H1510 0.929 . S
C1514 C1516 1.378 . S
C1514 C1518 1.350 . S
C1515 C1518 1.463 . S
C1515 C1520 1.350 . S
C1515 N1523 1.427 . S
C1516 H1507 0.930 . S
C1516 C1514 1.378 . S
C1516 C1517 1.367 . S
C1517 C1516 1.367 . S
C1517 C1519 1.433 . S
C1518 C1514 1.350 . S
C1518 C1515 1.463 . S
C1518 N1522 1.427 . S
C1519 H1509 0.929 . S
C1519 C1517 1.433 . S
C1519 N1522 1.384 . S
C1520 H1511 0.929 . S
C1520 C1512 1.378 . S
C1520 C1515 1.350 . S
C1521 H1508 0.929 . S
C1521 C1513 1.433 . S
C1521 N1523 1.384 . S
N1522 C1518 1.427 . S
N1522 C1519 1.384 . S
N1523 C1515 1.427 . S
N1523 C1521 1.384 . S
H1524 C1530 0.930 . S
H1525 C1534 0.930 . S
H1526 C1539 0.929 . S
H1527 C1537 0.929 . S
H1528 C1532 0.929 . S
H1529 C1538 0.929 . S
C1530 H1524 0.930 . S
C1530 C1531 1.367 . S
C1530 C1538 1.378 . S
C1531 C1530 1.367 . S
C1531 C1539 1.433 . S
C1532 H1528 0.929 . S
C1532 C1534 1.378 . S
C1532 C1536 1.350 . S
C1533 C1536 1.463 . S
C1533 C1538 1.350 . S
C1533 N1541 1.427 . S
C1534 H1525 0.930 . S
C1534 C1532 1.378 . S
C1534 C1535 1.367 . S
C1535 C1534 1.367 . S
C1535 C1537 1.433 . S
C1536 C1532 1.350 . S
C1536 C1533 1.463 . S
C1536 N1540 1.427 . S
C1537 H1527 0.929 . S
C1537 C1535 1.433 . S
C1537 N1540 1.384 . S
C1538 H1529 0.929 . S
C1538 C1530 1.378 . S
C1538 C1533 1.350 . S
C1539 H1526 0.929 . S
C1539 C1531 1.433 . S
C1539 N1541 1.384 . S
N1540 C1536 1.427 . S
N1540 C1537 1.384 . S
N1541 C1533 1.427 . S
N1541 C1539 1.384 . S
H1542 C1548 0.930 . S
H1543 C1552 0.930 . S
H1544 C1557 0.929 . S
H1545 C1555 0.929 . S
H1546 C1550 0.929 . S
H1547 C1556 0.929 . S
C1548 H1542 0.930 . S
C1548 C1549 1.367 . S
C1548 C1556 1.378 . S
C1549 C1548 1.367 . S
C1549 C1557 1.433 . S
C1550 H1546 0.929 . S
C1550 C1552 1.378 . S
C1550 C1554 1.350 . S
C1551 C1554 1.463 . S
C1551 C1556 1.350 . S
C1551 N1559 1.427 . S
C1552 H1543 0.930 . S
C1552 C1550 1.378 . S
C1552 C1553 1.367 . S
C1553 C1552 1.367 . S
C1553 C1555 1.433 . S
C1554 C1550 1.350 . S
C1554 C1551 1.463 . S
C1554 N1558 1.427 . S
C1555 H1545 0.929 . S
C1555 C1553 1.433 . S
C1555 N1558 1.384 . S
C1556 H1547 0.929 . S
C1556 C1548 1.378 . S
C1556 C1551 1.350 . S
C1557 H1544 0.929 . S
C1557 C1549 1.433 . S
C1557 N1559 1.384 . S
N1558 C1554 1.427 . S
N1558 C1555 1.384 . S
N1559 C1551 1.427 . S
N1559 C1557 1.384 . S
H1560 C1566 0.930 . S
H1561 C1570 0.930 . S
H1562 C1575 0.929 . S
H1563 C1573 0.929 . S
H1564 C1568 0.929 . S
H1565 C1574 0.929 . S
C1566 H1560 0.930 . S
C1566 C1567 1.367 . S
C1566 C1574 1.378 1_565 S
C1567 C1566 1.367 . S
C1567 C1575 1.433 . S
C1568 H1564 0.929 . S
C1568 C1570 1.378 1_565 S
C1568 C1572 1.350 1_565 S
C1569 C1572 1.463 1_465 S
C1569 C1574 1.350 1_565 S
C1569 N1577 1.427 . S
C1570 H1561 0.930 . S
C1570 C1568 1.378 1_545 S
C1570 C1571 1.367 . S
C1571 C1570 1.367 . S
C1571 C1573 1.433 . S
C1572 C1568 1.350 1_545 S
C1572 C1569 1.463 1_645 S
C1572 N1576 1.427 . S
C1573 H1563 0.929 . S
C1573 C1571 1.433 . S
C1573 N1576 1.384 . S
C1574 H1565 0.929 . S
C1574 C1566 1.378 1_545 S
C1574 C1569 1.350 1_545 S
C1575 H1562 0.929 . S
C1575 C1567 1.433 . S
C1575 N1577 1.384 . S
N1576 C1572 1.427 . S
N1576 C1573 1.384 . S
N1577 C1569 1.427 . S
N1577 C1575 1.384 . S
H1578 C1584 0.930 . S
H1579 C1588 0.930 . S
H1580 C1593 0.929 . S
H1581 C1591 0.929 . S
H1582 C1586 0.929 . S
H1583 C1592 0.929 . S
C1584 H1578 0.930 . S
C1584 C1585 1.367 1_455 S
C1584 C1592 1.378 . S
C1585 C1584 1.367 1_655 S
C1585 C1593 1.433 . S
C1586 H1582 0.929 . S
C1586 C1588 1.378 . S
C1586 C1590 1.350 1_655 S
C1587 C1590 1.463 1_655 S
C1587 C1592 1.350 1_655 S
C1587 N1595 1.427 . S
C1588 H1579 0.930 . S
C1588 C1586 1.378 . S
C1588 C1589 1.367 1_655 S
C1589 C1588 1.367 1_455 S
C1589 C1591 1.433 . S
C1590 C1586 1.350 1_455 S
C1590 C1587 1.463 1_455 S
C1590 N1594 1.427 . S
C1591 H1581 0.929 . S
C1591 C1589 1.433 . S
C1591 N1594 1.384 . S
C1592 H1583 0.929 . S
C1592 C1584 1.378 . S
C1592 C1587 1.350 1_455 S
C1593 H1580 0.929 . S
C1593 C1585 1.433 . S
C1593 N1595 1.384 . S
N1594 C1590 1.427 . S
N1594 C1591 1.384 . S
N1595 C1587 1.427 . S
N1595 C1593 1.384 . S
H1596 C1602 0.930 . S
H1597 C1606 0.930 . S
H1598 C1611 0.929 . S
H1599 C1609 0.929 . S
H1600 C1604 0.929 . S
H1601 C1610 0.929 . S
C1602 H1596 0.930 . S
C1602 C1603 1.367 . S
C1602 C1610 1.378 . S
C1603 C1602 1.367 . S
C1603 C1611 1.433 . S
C1604 H1600 0.929 . S
C1604 C1606 1.378 . S
C1604 C1608 1.350 . S
C1605 C1608 1.463 1_455 S
C1605 C1610 1.350 . S
C1605 N1613 1.427 . S
C1606 H1597 0.930 . S
C1606 C1604 1.378 . S
C1606 C1607 1.367 . S
C1607 C1606 1.367 . S
C1607 C1609 1.433 . S
C1608 C1604 1.350 . S
C1608 C1605 1.463 1_655 S
C1608 N1612 1.427 . S
C1609 H1599 0.929 . S
C1609 C1607 1.433 . S
C1609 N1612 1.384 . S
C1610 H1601 0.929 . S
C1610 C1602 1.378 . S
C1610 C1605 1.350 . S
C1611 H1598 0.929 . S
C1611 C1603 1.433 . S
C1611 N1613 1.384 . S
N1612 C1608 1.427 . S
N1612 C1609 1.384 . S
N1613 C1605 1.427 . S
N1613 C1611 1.384 . S
H1614 C1620 0.912 1_655 S
H1615 C1624 0.912 1_455 S
H1616 C1629 0.929 . S
H1617 C1627 0.929 . S
H1618 C1622 0.929 . S
H1619 C1628 0.929 . S
C1620 H1614 0.912 1_455 S
C1620 C1621 1.401 . S
C1620 C1628 1.364 1_455 S
C1621 C1620 1.401 . S
C1621 C1629 1.433 . S
C1622 H1618 0.929 . S
C1622 C1624 1.364 1_455 S
C1622 C1626 1.350 1_455 S
C1623 C1626 1.463 1_456 S
C1623 C1628 1.350 1_455 S
C1623 N1631 1.427 . S
C1624 H1615 0.912 1_655 S
C1624 C1622 1.364 1_655 S
C1624 C1625 1.401 . S
C1625 C1624 1.401 . S
C1625 C1627 1.433 . S
C1626 C1622 1.350 1_655 S
C1626 C1623 1.463 1_654 S
C1626 N1630 1.427 . S
C1627 H1617 0.929 . S
C1627 C1625 1.433 . S
C1627 N1630 1.384 . S
C1628 H1619 0.929 . S
C1628 C1620 1.364 1_655 S
C1628 C1623 1.350 1_655 S
C1629 H1616 0.929 . S
C1629 C1621 1.433 . S
C1629 N1631 1.384 . S
N1630 C1626 1.427 . S
N1630 C1627 1.384 . S
N1631 C1623 1.427 . S
N1631 C1629 1.384 . S
H1632 C1638 0.930 . S
H1633 C1642 0.930 . S
H1634 C1647 0.929 . S
H1635 C1645 0.929 . S
H1636 C1640 0.929 . S
H1637 C1646 0.929 . S
C1638 H1632 0.930 . S
C1638 C1639 1.367 . S
C1638 C1646 1.378 . S
C1639 C1638 1.367 . S
C1639 C1647 1.433 . S
C1640 H1636 0.929 . S
C1640 C1642 1.378 . S
C1640 C1644 1.350 . S
C1641 C1644 1.463 . S
C1641 C1646 1.350 . S
C1641 N1649 1.427 . S
C1642 H1633 0.930 . S
C1642 C1640 1.378 . S
C1642 C1643 1.367 . S
C1643 C1642 1.367 . S
C1643 C1645 1.433 . S
C1644 C1640 1.350 . S
C1644 C1641 1.463 . S
C1644 N1648 1.427 . S
C1645 H1635 0.929 . S
C1645 C1643 1.433 . S
C1645 N1648 1.384 . S
C1646 H1637 0.929 . S
C1646 C1638 1.378 . S
C1646 C1641 1.350 . S
C1647 H1634 0.929 . S
C1647 C1639 1.433 . S
C1647 N1649 1.384 . S
N1648 C1644 1.427 . S
N1648 C1645 1.384 . S
N1649 C1641 1.427 . S
N1649 C1647 1.384 . S
H1650 C1656 0.930 . S
H1651 C1660 0.930 . S
H1652 C1665 0.929 . S
H1653 C1663 0.929 . S
H1654 C1658 0.929 . S
H1655 C1664 0.929 . S
C1656 H1650 0.930 . S
C1656 C1657 1.367 . S
C1656 C1664 1.378 . S
C1657 C1656 1.367 . S
C1657 C1665 1.433 . S
C1658 H1654 0.929 . S
C1658 C1660 1.378 . S
C1658 C1662 1.350 . S
C1659 C1662 1.463 . S
C1659 C1664 1.350 . S
C1659 N1667 1.427 . S
C1660 H1651 0.930 . S
C1660 C1658 1.378 . S
C1660 C1661 1.367 . S
C1661 C1660 1.367 . S
C1661 C1663 1.433 . S
C1662 C1658 1.350 . S
C1662 C1659 1.463 . S
C1662 N1666 1.427 . S
C1663 H1653 0.929 . S
C1663 C1661 1.433 . S
C1663 N1666 1.384 . S
C1664 H1655 0.929 . S
C1664 C1656 1.378 . S
C1664 C1659 1.350 . S
C1665 H1652 0.929 . S
C1665 C1657 1.433 . S
C1665 N1667 1.384 . S
N1666 C1662 1.427 . S
N1666 C1663 1.384 . S
N1667 C1659 1.427 . S
N1667 C1665 1.384 . S
H1668 C1674 0.930 . S
H1669 C1678 0.930 . S
H1670 C1683 0.929 . S
H1671 C1681 0.929 . S
H1672 C1676 0.929 . S
H1673 C1682 0.929 . S
C1674 H1668 0.930 . S
C1674 C1675 1.367 . S
C1674 C1682 1.378 . S
C1675 C1674 1.367 . S
C1675 C1683 1.433 . S
C1676 H1672 0.929 . S
C1676 C1678 1.378 . S
C1676 C1680 1.350 . S
C1677 C1680 1.463 . S
C1677 C1682 1.350 . S
C1677 N1685 1.427 . S
C1678 H1669 0.930 . S
C1678 C1676 1.378 . S
C1678 C1679 1.367 . S
C1679 C1678 1.367 . S
C1679 C1681 1.433 . S
C1680 C1676 1.350 . S
C1680 C1677 1.463 . S
C1680 N1684 1.427 . S
C1681 H1671 0.929 . S
C1681 C1679 1.433 . S
C1681 N1684 1.384 . S
C1682 H1673 0.929 . S
C1682 C1674 1.378 . S
C1682 C1677 1.350 . S
C1683 H1670 0.929 . S
C1683 C1675 1.433 . S
C1683 N1685 1.384 . S
N1684 C1680 1.427 . S
N1684 C1681 1.384 . S
N1685 C1677 1.427 . S
N1685 C1683 1.384 . S
H1686 C1692 0.930 . S
H1687 C1696 0.930 . S
H1688 C1701 0.929 . S
H1689 C1699 0.929 . S
H1690 C1694 0.929 . S
H1691 C1700 0.929 . S
C1692 H1686 0.930 . S
C1692 C1693 1.367 . S
C1692 C1700 1.378 . S
C1693 C1692 1.367 . S
C1693 C1701 1.433 . S
C1694 H1690 0.929 . S
C1694 C1696 1.378 . S
C1694 C1698 1.350 . S
C1695 C1698 1.463 . S
C1695 C1700 1.350 . S
C1695 N1703 1.427 . S
C1696 H1687 0.930 . S
C1696 C1694 1.378 . S
C1696 C1697 1.367 . S
C1697 C1696 1.367 . S
C1697 C1699 1.433 . S
C1698 C1694 1.350 . S
C1698 C1695 1.463 . S
C1698 N1702 1.427 . S
C1699 H1689 0.929 . S
C1699 C1697 1.433 . S
C1699 N1702 1.384 . S
C1700 H1691 0.929 . S
C1700 C1692 1.378 . S
C1700 C1695 1.350 . S
C1701 H1688 0.929 . S
C1701 C1693 1.433 . S
C1701 N1703 1.384 . S
N1702 C1698 1.427 . S
N1702 C1699 1.384 . S
N1703 C1695 1.427 . S
N1703 C1701 1.384 . S
H1704 C1710 0.930 . S
H1705 C1714 0.930 . S
H1706 C1719 0.929 . S
H1707 C1717 0.929 . S
H1708 C1712 0.929 . S
H1709 C1718 0.929 . S
C1710 H1704 0.930 . S
C1710 C1711 1.367 . S
C1710 C1718 1.378 . S
C1711 C1710 1.367 . S
C1711 C1719 1.433 . S
C1712 H1708 0.929 . S
C1712 C1714 1.378 . S
C1712 C1716 1.350 . S
C1713 C1716 1.463 . S
C1713 C1718 1.350 . S
C1713 N1721 1.427 . S
C1714 H1705 0.930 . S
C1714 C1712 1.378 . S
C1714 C1715 1.367 . S
C1715 C1714 1.367 . S
C1715 C1717 1.433 . S
C1716 C1712 1.350 . S
C1716 C1713 1.463 . S
C1716 N1720 1.427 . S
C1717 H1707 0.929 . S
C1717 C1715 1.433 . S
C1717 N1720 1.384 . S
C1718 H1709 0.929 . S
C1718 C1710 1.378 . S
C1718 C1713 1.350 . S
C1719 H1706 0.929 . S
C1719 C1711 1.433 . S
C1719 N1721 1.384 . S
N1720 C1716 1.427 . S
N1720 C1717 1.384 . S
N1721 C1713 1.427 . S
N1721 C1719 1.384 . S
H1722 C1728 0.930 . S
H1723 C1732 0.930 . S
H1724 C1737 0.929 . S
H1725 C1735 0.929 . S
H1726 C1730 0.929 . S
H1727 C1736 0.929 . S
C1728 H1722 0.930 . S
C1728 C1729 1.367 . S
C1728 C1736 1.378 . S
C1729 C1728 1.367 . S
C1729 C1737 1.433 . S
C1730 H1726 0.929 . S
C1730 C1732 1.378 . S
C1730 C1734 1.350 . S
C1731 C1734 1.463 . S
C1731 C1736 1.350 . S
C1731 N1739 1.427 . S
C1732 H1723 0.930 . S
C1732 C1730 1.378 . S
C1732 C1733 1.367 . S
C1733 C1732 1.367 . S
C1733 C1735 1.433 . S
C1734 C1730 1.350 . S
C1734 C1731 1.463 . S
C1734 N1738 1.427 . S
C1735 H1725 0.929 . S
C1735 C1733 1.433 . S
C1735 N1738 1.384 . S
C1736 H1727 0.929 . S
C1736 C1728 1.378 . S
C1736 C1731 1.350 . S
C1737 H1724 0.929 . S
C1737 C1729 1.433 . S
C1737 N1739 1.384 . S
N1738 C1734 1.427 . S
N1738 C1735 1.384 . S
N1739 C1731 1.427 . S
N1739 C1737 1.384 . S
H1740 C1746 0.930 . S
H1741 C1750 0.930 . S
H1742 C1755 0.929 . S
H1743 C1753 0.929 . S
H1744 C1748 0.929 . S
H1745 C1754 0.929 . S
C1746 H1740 0.930 . S
C1746 C1747 1.367 . S
C1746 C1754 1.378 . S
C1747 C1746 1.367 . S
C1747 C1755 1.433 . S
C1748 H1744 0.929 . S
C1748 C1750 1.378 . S
C1748 C1752 1.350 . S
C1749 C1752 1.463 . S
C1749 C1754 1.350 . S
C1749 N1757 1.427 . S
C1750 H1741 0.930 . S
C1750 C1748 1.378 . S
C1750 C1751 1.367 . S
C1751 C1750 1.367 . S
C1751 C1753 1.433 . S
C1752 C1748 1.350 . S
C1752 C1749 1.463 . S
C1752 N1756 1.427 . S
C1753 H1743 0.929 . S
C1753 C1751 1.433 . S
C1753 N1756 1.384 . S
C1754 H1745 0.929 . S
C1754 C1746 1.378 . S
C1754 C1749 1.350 . S
C1755 H1742 0.929 . S
C1755 C1747 1.433 . S
C1755 N1757 1.384 . S
N1756 C1752 1.427 . S
N1756 C1753 1.384 . S
N1757 C1749 1.427 . S
N1757 C1755 1.384 . S
H1758 C1764 0.930 . S
H1759 C1768 0.930 . S
H1760 C1773 0.929 . S
H1761 C1771 0.929 . S
H1762 C1766 0.929 . S
H1763 C1772 0.929 . S
C1764 H1758 0.930 . S
C1764 C1765 1.367 . S
C1764 C1772 1.378 . S
C1765 C1764 1.367 . S
C1765 C1773 1.433 . S
C1766 H1762 0.929 . S
C1766 C1768 1.378 . S
C1766 C1770 1.350 . S
C1767 C1770 1.463 . S
C1767 C1772 1.350 . S
C1767 N1775 1.427 . S
C1768 H1759 0.930 . S
C1768 C1766 1.378 . S
C1768 C1769 1.367 . S
C1769 C1768 1.367 . S
C1769 C1771 1.433 . S
C1770 C1766 1.350 . S
C1770 C1767 1.463 . S
C1770 N1774 1.427 . S
C1771 H1761 0.929 . S
C1771 C1769 1.433 . S
C1771 N1774 1.384 . S
C1772 H1763 0.929 . S
C1772 C1764 1.378 . S
C1772 C1767 1.350 . S
C1773 H1760 0.929 . S
C1773 C1765 1.433 . S
C1773 N1775 1.384 . S
N1774 C1770 1.427 . S
N1774 C1771 1.384 . S
N1775 C1767 1.427 . S
N1775 C1773 1.384 . S
H1776 C1782 0.930 . S
H1777 C1786 0.930 . S
H1778 C1791 0.929 . S
H1779 C1789 0.929 1_565 S
H1780 C1784 0.929 . S
H1781 C1790 0.929 . S
C1782 H1776 0.930 . S
C1782 C1783 1.367 . S
C1782 C1790 1.378 . S
C1783 C1782 1.367 . S
C1783 C1791 1.433 . S
C1784 H1780 0.929 . S
C1784 C1786 1.378 . S
C1784 C1788 1.350 . S
C1785 C1788 1.463 . S
C1785 C1790 1.350 . S
C1785 N1793 1.427 . S
C1786 H1777 0.930 . S
C1786 C1784 1.378 . S
C1786 C1787 1.367 1_545 S
C1787 C1786 1.367 1_565 S
C1787 C1789 1.433 1_565 S
C1788 C1784 1.350 . S
C1788 C1785 1.463 . S
C1788 N1792 1.427 . S
C1789 H1779 0.929 1_545 S
C1789 C1787 1.433 1_545 S
C1789 N1792 1.384 . S
C1790 H1781 0.929 . S
C1790 C1782 1.378 . S
C1790 C1785 1.350 . S
C1791 H1778 0.929 . S
C1791 C1783 1.433 . S
C1791 N1793 1.384 . S
N1792 C1788 1.427 . S
N1792 C1789 1.384 . S
N1793 C1785 1.427 . S
N1793 C1791 1.384 . S
H1794 C1800 0.930 . S
H1795 C1804 0.930 . S
H1796 C1809 0.929 . S
H1797 C1807 0.929 . S
H1798 C1802 0.929 . S
H1799 C1808 0.929 . S
C1800 H1794 0.930 . S
C1800 C1801 1.367 . S
C1800 C1808 1.378 . S
C1801 C1800 1.367 . S
C1801 C1809 1.433 . S
C1802 H1798 0.929 . S
C1802 C1804 1.378 . S
C1802 C1806 1.350 . S
C1803 C1806 1.463 . S
C1803 C1808 1.350 1_545 S
C1803 N1811 1.427 1_545 S
C1804 H1795 0.930 . S
C1804 C1802 1.378 . S
C1804 C1805 1.367 . S
C1805 C1804 1.367 . S
C1805 C1807 1.433 . S
C1806 C1802 1.350 . S
C1806 C1803 1.463 . S
C1806 N1810 1.427 . S
C1807 H1797 0.929 . S
C1807 C1805 1.433 . S
C1807 N1810 1.384 . S
C1808 H1799 0.929 . S
C1808 C1800 1.378 . S
C1808 C1803 1.350 1_565 S
C1809 H1796 0.929 . S
C1809 C1801 1.433 . S
C1809 N1811 1.384 . S
N1810 C1806 1.427 . S
N1810 C1807 1.384 . S
N1811 C1803 1.427 1_565 S
N1811 C1809 1.384 . S
H1812 C1818 0.930 . S
H1813 C1822 0.930 . S
H1814 C1827 0.929 . S
H1815 C1825 0.929 . S
H1816 C1820 0.929 . S
H1817 C1826 0.929 1_545 S
C1818 H1812 0.930 . S
C1818 C1819 1.367 . S
C1818 C1826 1.378 . S
C1819 C1818 1.367 . S
C1819 C1827 1.433 . S
C1820 H1816 0.929 . S
C1820 C1822 1.378 . S
C1820 C1824 1.350 . S
C1821 C1824 1.463 . S
C1821 C1826 1.350 1_545 S
C1821 N1829 1.427 1_545 S
C1822 H1813 0.930 . S
C1822 C1820 1.378 . S
C1822 C1823 1.367 . S
C1823 C1822 1.367 . S
C1823 C1825 1.433 . S
C1824 C1820 1.350 . S
C1824 C1821 1.463 . S
C1824 N1828 1.427 . S
C1825 H1815 0.929 . S
C1825 C1823 1.433 . S
C1825 N1828 1.384 . S
C1826 H1817 0.929 1_565 S
C1826 C1818 1.378 . S
C1826 C1821 1.350 1_565 S
C1827 H1814 0.929 . S
C1827 C1819 1.433 . S
C1827 N1829 1.384 . S
N1828 C1824 1.427 . S
N1828 C1825 1.384 . S
N1829 C1821 1.427 1_565 S
N1829 C1827 1.384 . S
H1830 C1836 0.930 . S
H1831 C1840 0.930 . S
H1832 C1845 0.929 1_565 S
H1833 C1843 0.929 . S
H1834 C1838 0.929 . S
H1835 C1844 0.929 . S
C1836 H1830 0.930 . S
C1836 C1837 1.367 1_545 S
C1836 C1844 1.378 . S
C1837 C1836 1.367 1_565 S
C1837 C1845 1.433 1_565 S
C1838 H1834 0.929 . S
C1838 C1840 1.378 . S
C1838 C1842 1.350 . S
C1839 C1842 1.463 . S
C1839 C1844 1.350 . S
C1839 N1847 1.427 . S
C1840 H1831 0.930 . S
C1840 C1838 1.378 . S
C1840 C1841 1.367 . S
C1841 C1840 1.367 . S
C1841 C1843 1.433 . S
C1842 C1838 1.350 . S
C1842 C1839 1.463 . S
C1842 N1846 1.427 . S
C1843 H1833 0.929 . S
C1843 C1841 1.433 . S
C1843 N1846 1.384 . S
C1844 H1835 0.929 . S
C1844 C1836 1.378 . S
C1844 C1839 1.350 . S
C1845 H1832 0.929 1_545 S
C1845 C1837 1.433 1_545 S
C1845 N1847 1.384 . S
N1846 C1842 1.427 . S
N1846 C1843 1.384 . S
N1847 C1839 1.427 . S
N1847 C1845 1.384 . S
H1848 C1854 0.930 . S
H1849 C1858 0.930 . S
H1850 C1863 0.929 . S
H1851 C1861 0.929 1_545 S
H1852 C1856 0.929 . S
H1853 C1862 0.929 . S
C1854 H1848 0.930 . S
C1854 C1855 1.367 . S
C1854 C1862 1.378 . S
C1855 C1854 1.367 . S
C1855 C1863 1.433 . S
C1856 H1852 0.929 . S
C1856 C1858 1.378 . S
C1856 C1860 1.350 . S
C1857 C1860 1.463 . S
C1857 C1862 1.350 . S
C1857 N1865 1.427 . S
C1858 H1849 0.930 . S
C1858 C1856 1.378 . S
C1858 C1859 1.367 1_565 S
C1859 C1858 1.367 1_545 S
C1859 C1861 1.433 1_545 S
C1860 C1856 1.350 . S
C1860 C1857 1.463 . S
C1860 N1864 1.427 . S
C1861 H1851 0.929 1_565 S
C1861 C1859 1.433 1_565 S
C1861 N1864 1.384 . S
C1862 H1853 0.929 . S
C1862 C1854 1.378 . S
C1862 C1857 1.350 . S
C1863 H1850 0.929 . S
C1863 C1855 1.433 . S
C1863 N1865 1.384 . S
N1864 C1860 1.427 . S
N1864 C1861 1.384 . S
N1865 C1857 1.427 . S
N1865 C1863 1.384 . S
H1866 C1872 0.930 . S
H1867 C1876 0.930 . S
H1868 C1881 0.929 . S
H1869 C1879 0.929 . S
H1870 C1874 0.929 . S
H1871 C1880 0.929 . S
C1872 H1866 0.930 . S
C1872 C1873 1.367 . S
C1872 C1880 1.378 . S
C1873 C1872 1.367 . S
C1873 C1881 1.433 . S
C1874 H1870 0.929 . S
C1874 C1876 1.378 . S
C1874 C1878 1.350 . S
C1875 C1878 1.463 . S
C1875 C1880 1.350 1_565 S
C1875 N1883 1.427 1_565 S
C1876 H1867 0.930 . S
C1876 C1874 1.378 . S
C1876 C1877 1.367 . S
C1877 C1876 1.367 . S
C1877 C1879 1.433 . S
C1878 C1874 1.350 . S
C1878 C1875 1.463 . S
C1878 N1882 1.427 . S
C1879 H1869 0.929 . S
C1879 C1877 1.433 . S
C1879 N1882 1.384 . S
C1880 H1871 0.929 . S
C1880 C1872 1.378 . S
C1880 C1875 1.350 1_545 S
C1881 H1868 0.929 . S
C1881 C1873 1.433 . S
C1881 N1883 1.384 . S
N1882 C1878 1.427 . S
N1882 C1879 1.384 . S
N1883 C1875 1.427 1_545 S
N1883 C1881 1.384 . S
H1884 C1890 0.930 . S
H1885 C1894 0.930 . S
H1886 C1899 0.929 . S
H1887 C1897 0.929 . S
H1888 C1892 0.929 . S
H1889 C1898 0.929 1_565 S
C1890 H1884 0.930 . S
C1890 C1891 1.367 . S
C1890 C1898 1.378 . S
C1891 C1890 1.367 . S
C1891 C1899 1.433 . S
C1892 H1888 0.929 . S
C1892 C1894 1.378 . S
C1892 C1896 1.350 . S
C1893 C1896 1.463 . S
C1893 C1898 1.350 1_565 S
C1893 N1901 1.427 1_565 S
C1894 H1885 0.930 . S
C1894 C1892 1.378 . S
C1894 C1895 1.367 . S
C1895 C1894 1.367 . S
C1895 C1897 1.433 . S
C1896 C1892 1.350 . S
C1896 C1893 1.463 . S
C1896 N1900 1.427 . S
C1897 H1887 0.929 . S
C1897 C1895 1.433 . S
C1897 N1900 1.384 . S
C1898 H1889 0.929 1_545 S
C1898 C1890 1.378 . S
C1898 C1893 1.350 1_545 S
C1899 H1886 0.929 . S
C1899 C1891 1.433 . S
C1899 N1901 1.384 . S
N1900 C1896 1.427 . S
N1900 C1897 1.384 . S
N1901 C1893 1.427 1_545 S
N1901 C1899 1.384 . S
H1902 C1908 0.930 . S
H1903 C1912 0.930 . S
H1904 C1917 0.929 . S
H1905 C1915 0.929 1_545 S
H1906 C1910 0.929 . S
H1907 C1916 0.929 . S
C1908 H1902 0.930 . S
C1908 C1909 1.367 . S
C1908 C1916 1.378 . S
C1909 C1908 1.367 . S
C1909 C1917 1.433 . S
C1910 H1906 0.929 . S
C1910 C1912 1.378 . S
C1910 C1914 1.350 . S
C1911 C1914 1.463 . S
C1911 C1916 1.350 . S
C1911 N1919 1.427 . S
C1912 H1903 0.930 . S
C1912 C1910 1.378 . S
C1912 C1913 1.367 1_565 S
C1913 C1912 1.367 1_545 S
C1913 C1915 1.433 1_545 S
C1914 C1910 1.350 . S
C1914 C1911 1.463 . S
C1914 N1918 1.427 . S
C1915 H1905 0.929 1_565 S
C1915 C1913 1.433 1_565 S
C1915 N1918 1.384 . S
C1916 H1907 0.929 . S
C1916 C1908 1.378 . S
C1916 C1911 1.350 . S
C1917 H1904 0.929 . S
C1917 C1909 1.433 . S
C1917 N1919 1.384 . S
N1918 C1914 1.427 . S
N1918 C1915 1.384 . S
N1919 C1911 1.427 . S
N1919 C1917 1.384 . S
H1920 C1926 0.930 . S
H1921 C1930 0.930 . S
H1922 C1935 0.929 . S
H1923 C1933 0.929 . S
H1924 C1928 0.929 . S
H1925 C1934 0.929 . S
C1926 H1920 0.930 . S
C1926 C1927 1.367 . S
C1926 C1934 1.378 . S
C1927 C1926 1.367 . S
C1927 C1935 1.433 . S
C1928 H1924 0.929 . S
C1928 C1930 1.378 . S
C1928 C1932 1.350 . S
C1929 C1932 1.463 . S
C1929 C1934 1.350 . S
C1929 N1937 1.427 . S
C1930 H1921 0.930 . S
C1930 C1928 1.378 . S
C1930 C1931 1.367 . S
C1931 C1930 1.367 . S
C1931 C1933 1.433 . S
C1932 C1928 1.350 . S
C1932 C1929 1.463 . S
C1932 N1936 1.427 . S
C1933 H1923 0.929 . S
C1933 C1931 1.433 . S
C1933 N1936 1.384 . S
C1934 H1925 0.929 . S
C1934 C1926 1.378 . S
C1934 C1929 1.350 . S
C1935 H1922 0.929 . S
C1935 C1927 1.433 . S
C1935 N1937 1.384 . S
N1936 C1932 1.427 . S
N1936 C1933 1.384 . S
N1937 C1929 1.427 . S
N1937 C1935 1.384 . S
H1938 C1944 0.930 . S
H1939 C1948 0.930 . S
H1940 C1953 0.929 . S
H1941 C1951 0.929 . S
H1942 C1946 0.929 . S
H1943 C1952 0.929 . S
C1944 H1938 0.930 . S
C1944 C1945 1.367 . S
C1944 C1952 1.378 . S
C1945 C1944 1.367 . S
C1945 C1953 1.433 . S
C1946 H1942 0.929 . S
C1946 C1948 1.378 . S
C1946 C1950 1.350 . S
C1947 C1950 1.463 . S
C1947 C1952 1.350 . S
C1947 N1955 1.427 . S
C1948 H1939 0.930 . S
C1948 C1946 1.378 . S
C1948 C1949 1.367 . S
C1949 C1948 1.367 . S
C1949 C1951 1.433 . S
C1950 C1946 1.350 . S
C1950 C1947 1.463 . S
C1950 N1954 1.427 . S
C1951 H1941 0.929 . S
C1951 C1949 1.433 . S
C1951 N1954 1.384 . S
C1952 H1943 0.929 . S
C1952 C1944 1.378 . S
C1952 C1947 1.350 . S
C1953 H1940 0.929 . S
C1953 C1945 1.433 . S
C1953 N1955 1.384 . S
N1954 C1950 1.427 . S
N1954 C1951 1.384 . S
N1955 C1947 1.427 . S
N1955 C1953 1.384 . S
H1956 C1962 0.930 . S
H1957 C1966 0.930 . S
H1958 C1971 0.929 . S
H1959 C1969 0.929 . S
H1960 C1964 0.929 . S
H1961 C1970 0.929 . S
C1962 H1956 0.930 . S
C1962 C1963 1.367 . S
C1962 C1970 1.378 . S
C1963 C1962 1.367 . S
C1963 C1971 1.433 . S
C1964 H1960 0.929 . S
C1964 C1966 1.378 . S
C1964 C1968 1.350 . S
C1965 C1968 1.463 . S
C1965 C1970 1.350 . S
C1965 N1973 1.427 . S
C1966 H1957 0.930 . S
C1966 C1964 1.378 . S
C1966 C1967 1.367 . S
C1967 C1966 1.367 . S
C1967 C1969 1.433 . S
C1968 C1964 1.350 . S
C1968 C1965 1.463 . S
C1968 N1972 1.427 . S
C1969 H1959 0.929 . S
C1969 C1967 1.433 . S
C1969 N1972 1.384 . S
C1970 H1961 0.929 . S
C1970 C1962 1.378 . S
C1970 C1965 1.350 . S
C1971 H1958 0.929 . S
C1971 C1963 1.433 . S
C1971 N1973 1.384 . S
N1972 C1968 1.427 . S
N1972 C1969 1.384 . S
N1973 C1965 1.427 . S
N1973 C1971 1.384 . S
H1974 C1980 0.930 . S
H1975 C1984 0.930 . S
H1976 C1989 0.929 . S
H1977 C1987 0.929 . S
H1978 C1982 0.929 . S
H1979 C1988 0.929 . S
C1980 H1974 0.930 . S
C1980 C1981 1.367 . S
C1980 C1988 1.378 . S
C1981 C1980 1.367 . S
C1981 C1989 1.433 . S
C1982 H1978 0.929 . S
C1982 C1984 1.378 . S
C1982 C1986 1.350 . S
C1983 C1986 1.463 . S
C1983 C1988 1.350 . S
C1983 N1991 1.427 . S
C1984 H1975 0.930 . S
C1984 C1982 1.378 . S
C1984 C1985 1.367 . S
C1985 C1984 1.367 . S
C1985 C1987 1.433 . S
C1986 C1982 1.350 . S
C1986 C1983 1.463 . S
C1986 N1990 1.427 . S
C1987 H1977 0.929 . S
C1987 C1985 1.433 . S
C1987 N1990 1.384 . S
C1988 H1979 0.929 . S
C1988 C1980 1.378 . S
C1988 C1983 1.350 . S
C1989 H1976 0.929 . S
C1989 C1981 1.433 . S
C1989 N1991 1.384 . S
N1990 C1986 1.427 . S
N1990 C1987 1.384 . S
N1991 C1983 1.427 . S
N1991 C1989 1.384 . S
H1992 C1998 0.930 . S
H1993 C2002 0.930 . S
H1994 C2007 0.929 . S
H1995 C2005 0.929 . S
H1996 C2000 0.929 . S
H1997 C2006 0.929 . S
C1998 H1992 0.930 . S
C1998 C1999 1.367 . S
C1998 C2006 1.378 . S
C1999 C1998 1.367 . S
C1999 C2007 1.433 . S
C2000 H1996 0.929 . S
C2000 C2002 1.378 . S
C2000 C2004 1.350 . S
C2001 C2004 1.463 . S
C2001 C2006 1.350 . S
C2001 N2009 1.427 . S
C2002 H1993 0.930 . S
C2002 C2000 1.378 . S
C2002 C2003 1.367 . S
C2003 C2002 1.367 . S
C2003 C2005 1.433 . S
C2004 C2000 1.350 . S
C2004 C2001 1.463 . S
C2004 N2008 1.427 . S
C2005 H1995 0.929 . S
C2005 C2003 1.433 . S
C2005 N2008 1.384 . S
C2006 H1997 0.929 . S
C2006 C1998 1.378 . S
C2006 C2001 1.350 . S
C2007 H1994 0.929 . S
C2007 C1999 1.433 . S
C2007 N2009 1.384 . S
N2008 C2004 1.427 . S
N2008 C2005 1.384 . S
N2009 C2001 1.427 . S
N2009 C2007 1.384 . S
H2010 C2016 0.930 . S
H2011 C2020 0.930 . S
H2012 C2025 0.929 . S
H2013 C2023 0.929 . S
H2014 C2018 0.929 . S
H2015 C2024 0.929 . S
C2016 H2010 0.930 . S
C2016 C2017 1.367 . S
C2016 C2024 1.378 . S
C2017 C2016 1.367 . S
C2017 C2025 1.433 . S
C2018 H2014 0.929 . S
C2018 C2020 1.378 . S
C2018 C2022 1.350 . S
C2019 C2022 1.463 . S
C2019 C2024 1.350 . S
C2019 N2027 1.427 . S
C2020 H2011 0.930 . S
C2020 C2018 1.378 . S
C2020 C2021 1.367 . S
C2021 C2020 1.367 . S
C2021 C2023 1.433 . S
C2022 C2018 1.350 . S
C2022 C2019 1.463 . S
C2022 N2026 1.427 . S
C2023 H2013 0.929 . S
C2023 C2021 1.433 . S
C2023 N2026 1.384 . S
C2024 H2015 0.929 . S
C2024 C2016 1.378 . S
C2024 C2019 1.350 . S
C2025 H2012 0.929 . S
C2025 C2017 1.433 . S
C2025 N2027 1.384 . S
N2026 C2022 1.427 . S
N2026 C2023 1.384 . S
N2027 C2019 1.427 . S
N2027 C2025 1.384 . S
H2028 C2034 0.930 . S
H2029 C2038 0.930 . S
H2030 C2043 0.929 . S
H2031 C2041 0.929 . S
H2032 C2036 0.929 . S
H2033 C2042 0.929 . S
C2034 H2028 0.930 . S
C2034 C2035 1.367 . S
C2034 C2042 1.378 . S
C2035 C2034 1.367 . S
C2035 C2043 1.433 . S
C2036 H2032 0.929 . S
C2036 C2038 1.378 . S
C2036 C2040 1.350 . S
C2037 C2040 1.463 . S
C2037 C2042 1.350 . S
C2037 N2045 1.427 . S
C2038 H2029 0.930 . S
C2038 C2036 1.378 . S
C2038 C2039 1.367 . S
C2039 C2038 1.367 . S
C2039 C2041 1.433 . S
C2040 C2036 1.350 . S
C2040 C2037 1.463 . S
C2040 N2044 1.427 . S
C2041 H2031 0.929 . S
C2041 C2039 1.433 . S
C2041 N2044 1.384 . S
C2042 H2033 0.929 . S
C2042 C2034 1.378 . S
C2042 C2037 1.350 . S
C2043 H2030 0.929 . S
C2043 C2035 1.433 . S
C2043 N2045 1.384 . S
N2044 C2040 1.427 . S
N2044 C2041 1.384 . S
N2045 C2037 1.427 . S
N2045 C2043 1.384 . S
H2046 C2052 0.930 . S
H2047 C2056 0.930 . S
H2048 C2061 0.929 . S
H2049 C2059 0.929 . S
H2050 C2054 0.929 . S
H2051 C2060 0.929 . S
C2052 H2046 0.930 . S
C2052 C2053 1.367 . S
C2052 C2060 1.378 . S
C2053 C2052 1.367 . S
C2053 C2061 1.433 . S
C2054 H2050 0.929 . S
C2054 C2056 1.378 . S
C2054 C2058 1.350 . S
C2055 C2058 1.463 . S
C2055 C2060 1.350 . S
C2055 N2063 1.427 . S
C2056 H2047 0.930 . S
C2056 C2054 1.378 . S
C2056 C2057 1.367 . S
C2057 C2056 1.367 . S
C2057 C2059 1.433 . S
C2058 C2054 1.350 . S
C2058 C2055 1.463 . S
C2058 N2062 1.427 . S
C2059 H2049 0.929 . S
C2059 C2057 1.433 . S
C2059 N2062 1.384 . S
C2060 H2051 0.929 . S
C2060 C2052 1.378 . S
C2060 C2055 1.350 . S
C2061 H2048 0.929 . S
C2061 C2053 1.433 . S
C2061 N2063 1.384 . S
N2062 C2058 1.427 . S
N2062 C2059 1.384 . S
N2063 C2055 1.427 . S
N2063 C2061 1.384 . S
H2064 C2070 0.930 1_565 S
H2065 C2074 0.930 . S
H2066 C2079 0.929 . S
H2067 C2077 0.929 . S
H2068 C2072 0.929 . S
H2069 C2078 0.929 . S
C2070 H2064 0.930 1_545 S
C2070 C2071 1.367 1_545 S
C2070 C2078 1.378 . S
C2071 C2070 1.367 1_565 S
C2071 C2079 1.433 1_565 S
C2072 H2068 0.929 . S
C2072 C2074 1.378 . S
C2072 C2076 1.350 . S
C2073 C2076 1.463 . S
C2073 C2078 1.350 . S
C2073 N2081 1.427 . S
C2074 H2065 0.930 . S
C2074 C2072 1.378 . S
C2074 C2075 1.367 . S
C2075 C2074 1.367 . S
C2075 C2077 1.433 . S
C2076 C2072 1.350 . S
C2076 C2073 1.463 . S
C2076 N2080 1.427 . S
C2077 H2067 0.929 . S
C2077 C2075 1.433 . S
C2077 N2080 1.384 . S
C2078 H2069 0.929 . S
C2078 C2070 1.378 . S
C2078 C2073 1.350 . S
C2079 H2066 0.929 . S
C2079 C2071 1.433 1_545 S
C2079 N2081 1.384 . S
N2080 C2076 1.427 . S
N2080 C2077 1.384 . S
N2081 C2073 1.427 . S
N2081 C2079 1.384 . S
H2082 C2088 0.930 . S
H2083 C2092 0.930 . S
H2084 C2097 0.929 . S
H2085 C2095 0.929 . S
H2086 C2090 0.929 . S
H2087 C2096 0.929 1_545 S
C2088 H2082 0.930 . S
C2088 C2089 1.367 . S
C2088 C2096 1.378 . S
C2089 C2088 1.367 . S
C2089 C2097 1.433 . S
C2090 H2086 0.929 . S
C2090 C2092 1.378 . S
C2090 C2094 1.350 . S
C2091 C2094 1.463 . S
C2091 C2096 1.350 1_545 S
C2091 N2099 1.427 1_545 S
C2092 H2083 0.930 . S
C2092 C2090 1.378 . S
C2092 C2093 1.367 . S
C2093 C2092 1.367 . S
C2093 C2095 1.433 . S
C2094 C2090 1.350 . S
C2094 C2091 1.463 . S
C2094 N2098 1.427 . S
C2095 H2085 0.929 . S
C2095 C2093 1.433 . S
C2095 N2098 1.384 . S
C2096 H2087 0.929 1_565 S
C2096 C2088 1.378 . S
C2096 C2091 1.350 1_565 S
C2097 H2084 0.929 . S
C2097 C2089 1.433 . S
C2097 N2099 1.384 . S
N2098 C2094 1.427 . S
N2098 C2095 1.384 . S
N2099 C2091 1.427 1_565 S
N2099 C2097 1.384 . S
H2100 C2106 0.930 . S
H2101 C2110 0.930 . S
H2102 C2115 0.929 . S
H2103 C2113 0.929 . S
H2104 C2108 0.929 . S
H2105 C2114 0.929 1_545 S
C2106 H2100 0.930 . S
C2106 C2107 1.367 . S
C2106 C2114 1.378 . S
C2107 C2106 1.367 . S
C2107 C2115 1.433 . S
C2108 H2104 0.929 . S
C2108 C2110 1.378 . S
C2108 C2112 1.350 . S
C2109 C2112 1.463 . S
C2109 C2114 1.350 1_545 S
C2109 N2117 1.427 1_545 S
C2110 H2101 0.930 . S
C2110 C2108 1.378 . S
C2110 C2111 1.367 . S
C2111 C2110 1.367 . S
C2111 C2113 1.433 . S
C2112 C2108 1.350 . S
C2112 C2109 1.463 . S
C2112 N2116 1.427 . S
C2113 H2103 0.929 . S
C2113 C2111 1.433 . S
C2113 N2116 1.384 . S
C2114 H2105 0.929 1_565 S
C2114 C2106 1.378 . S
C2114 C2109 1.350 1_565 S
C2115 H2102 0.929 . S
C2115 C2107 1.433 . S
C2115 N2117 1.384 . S
N2116 C2112 1.427 . S
N2116 C2113 1.384 . S
N2117 C2109 1.427 1_565 S
N2117 C2115 1.384 . S
H2118 C2124 0.930 . S
H2119 C2128 0.930 . S
H2120 C2133 0.929 . S
H2121 C2131 0.929 1_565 S
H2122 C2126 0.929 . S
H2123 C2132 0.929 . S
C2124 H2118 0.930 . S
C2124 C2125 1.367 . S
C2124 C2132 1.378 . S
C2125 C2124 1.367 . S
C2125 C2133 1.433 . S
C2126 H2122 0.929 . S
C2126 C2128 1.378 . S
C2126 C2130 1.350 . S
C2127 C2130 1.463 . S
C2127 C2132 1.350 . S
C2127 N2135 1.427 . S
C2128 H2119 0.930 . S
C2128 C2126 1.378 . S
C2128 C2129 1.367 1_545 S
C2129 C2128 1.367 1_565 S
C2129 C2131 1.433 1_565 S
C2130 C2126 1.350 . S
C2130 C2127 1.463 . S
C2130 N2134 1.427 . S
C2131 H2121 0.929 1_545 S
C2131 C2129 1.433 1_545 S
C2131 N2134 1.384 . S
C2132 H2123 0.929 . S
C2132 C2124 1.378 . S
C2132 C2127 1.350 . S
C2133 H2120 0.929 . S
C2133 C2125 1.433 . S
C2133 N2135 1.384 . S
N2134 C2130 1.427 . S
N2134 C2131 1.384 . S
N2135 C2127 1.427 . S
N2135 C2133 1.384 . S
H2136 C2142 0.930 . S
H2137 C2146 0.930 . S
H2138 C2151 0.929 1_545 S
H2139 C2149 0.929 . S
H2140 C2144 0.929 . S
H2141 C2150 0.929 . S
C2142 H2136 0.930 . S
C2142 C2143 1.367 1_565 S
C2142 C2150 1.378 . S
C2143 C2142 1.367 1_545 S
C2143 C2151 1.433 1_545 S
C2144 H2140 0.929 . S
C2144 C2146 1.378 . S
C2144 C2148 1.350 . S
C2145 C2148 1.463 . S
C2145 C2150 1.350 . S
C2145 N2153 1.427 . S
C2146 H2137 0.930 . S
C2146 C2144 1.378 . S
C2146 C2147 1.367 . S
C2147 C2146 1.367 . S
C2147 C2149 1.433 . S
C2148 C2144 1.350 . S
C2148 C2145 1.463 . S
C2148 N2152 1.427 . S
C2149 H2139 0.929 . S
C2149 C2147 1.433 . S
C2149 N2152 1.384 . S
C2150 H2141 0.929 . S
C2150 C2142 1.378 . S
C2150 C2145 1.350 . S
C2151 H2138 0.929 1_565 S
C2151 C2143 1.433 1_565 S
C2151 N2153 1.384 . S
N2152 C2148 1.427 . S
N2152 C2149 1.384 . S
N2153 C2145 1.427 . S
N2153 C2151 1.384 . S
H2154 C2160 0.930 . S
H2155 C2164 0.930 . S
H2156 C2169 0.929 . S
H2157 C2167 0.929 . S
H2158 C2162 0.929 1_565 S
H2159 C2168 0.929 . S
C2160 H2154 0.930 . S
C2160 C2161 1.367 . S
C2160 C2168 1.378 . S
C2161 C2160 1.367 . S
C2161 C2169 1.433 . S
C2162 H2158 0.929 1_545 S
C2162 C2164 1.378 . S
C2162 C2166 1.350 1_545 S
C2163 C2166 1.463 . S
C2163 C2168 1.350 . S
C2163 N2171 1.427 . S
C2164 H2155 0.930 . S
C2164 C2162 1.378 . S
C2164 C2165 1.367 . S
C2165 C2164 1.367 . S
C2165 C2167 1.433 . S
C2166 C2162 1.350 1_565 S
C2166 C2163 1.463 . S
C2166 N2170 1.427 1_565 S
C2167 H2157 0.929 . S
C2167 C2165 1.433 . S
C2167 N2170 1.384 . S
C2168 H2159 0.929 . S
C2168 C2160 1.378 . S
C2168 C2163 1.350 . S
C2169 H2156 0.929 . S
C2169 C2161 1.433 . S
C2169 N2171 1.384 . S
N2170 C2166 1.427 1_545 S
N2170 C2167 1.384 . S
N2171 C2163 1.427 . S
N2171 C2169 1.384 . S
H2172 C2178 0.930 . S
H2173 C2182 0.930 . S
H2174 C2187 0.929 . S
H2175 C2185 0.929 . S
H2176 C2180 0.929 1_565 S
H2177 C2186 0.929 . S
C2178 H2172 0.930 . S
C2178 C2179 1.367 . S
C2178 C2186 1.378 . S
C2179 C2178 1.367 . S
C2179 C2187 1.433 . S
C2180 H2176 0.929 1_545 S
C2180 C2182 1.378 . S
C2180 C2184 1.350 1_545 S
C2181 C2184 1.463 . S
C2181 C2186 1.350 . S
C2181 N2189 1.427 . S
C2182 H2173 0.930 . S
C2182 C2180 1.378 . S
C2182 C2183 1.367 . S
C2183 C2182 1.367 . S
C2183 C2185 1.433 . S
C2184 C2180 1.350 1_565 S
C2184 C2181 1.463 . S
C2184 N2188 1.427 1_565 S
C2185 H2175 0.929 . S
C2185 C2183 1.433 . S
C2185 N2188 1.384 . S
C2186 H2177 0.929 . S
C2186 C2178 1.378 . S
C2186 C2181 1.350 . S
C2187 H2174 0.929 . S
C2187 C2179 1.433 . S
C2187 N2189 1.384 . S
N2188 C2184 1.427 1_545 S
N2188 C2185 1.384 . S
N2189 C2181 1.427 . S
N2189 C2187 1.384 . S
H2190 C2196 0.930 1_545 S
H2191 C2200 0.930 . S
H2192 C2205 0.929 . S
H2193 C2203 0.929 . S
H2194 C2198 0.929 . S
H2195 C2204 0.929 . S
C2196 H2190 0.930 1_565 S
C2196 C2197 1.367 1_565 S
C2196 C2204 1.378 . S
C2197 C2196 1.367 1_545 S
C2197 C2205 1.433 1_545 S
C2198 H2194 0.929 . S
C2198 C2200 1.378 . S
C2198 C2202 1.350 . S
C2199 C2202 1.463 . S
C2199 C2204 1.350 . S
C2199 N2207 1.427 . S
C2200 H2191 0.930 . S
C2200 C2198 1.378 . S
C2200 C2201 1.367 . S
C2201 C2200 1.367 . S
C2201 C2203 1.433 . S
C2202 C2198 1.350 . S
C2202 C2199 1.463 . S
C2202 N2206 1.427 . S
C2203 H2193 0.929 . S
C2203 C2201 1.433 . S
C2203 N2206 1.384 . S
C2204 H2195 0.929 . S
C2204 C2196 1.378 . S
C2204 C2199 1.350 . S
C2205 H2192 0.929 . S
C2205 C2197 1.433 1_565 S
C2205 N2207 1.384 . S
N2206 C2202 1.427 . S
N2206 C2203 1.384 . S
N2207 C2199 1.427 . S
N2207 C2205 1.384 . S
H2208 C2214 0.930 . S
H2209 C2218 0.930 . S
H2210 C2223 0.929 . S
H2211 C2221 0.929 . S
H2212 C2216 0.929 . S
H2213 C2222 0.929 . S
C2214 H2208 0.930 . S
C2214 C2215 1.367 . S
C2214 C2222 1.378 . S
C2215 C2214 1.367 . S
C2215 C2223 1.433 . S
C2216 H2212 0.929 . S
C2216 C2218 1.378 . S
C2216 C2220 1.350 . S
C2217 C2220 1.463 . S
C2217 C2222 1.350 . S
C2217 N2225 1.427 . S
C2218 H2209 0.930 . S
C2218 C2216 1.378 . S
C2218 C2219 1.367 . S
C2219 C2218 1.367 . S
C2219 C2221 1.433 . S
C2220 C2216 1.350 . S
C2220 C2217 1.463 . S
C2220 N2224 1.427 . S
C2221 H2211 0.929 . S
C2221 C2219 1.433 . S
C2221 N2224 1.384 . S
C2222 H2213 0.929 . S
C2222 C2214 1.378 . S
C2222 C2217 1.350 . S
C2223 H2210 0.929 . S
C2223 C2215 1.433 . S
C2223 N2225 1.384 . S
N2224 C2220 1.427 . S
N2224 C2221 1.384 . S
N2225 C2217 1.427 . S
N2225 C2223 1.384 . S
H2226 C2232 0.930 1_545 S
H2227 C2236 0.930 . S
H2228 C2241 0.929 . S
H2229 C2239 0.929 . S
H2230 C2234 0.929 . S
H2231 C2240 0.929 . S
C2232 H2226 0.930 1_565 S
C2232 C2233 1.367 . S
C2232 C2240 1.378 . S
C2233 C2232 1.367 . S
C2233 C2241 1.433 . S
C2234 H2230 0.929 . S
C2234 C2236 1.378 . S
C2234 C2238 1.350 . S
C2235 C2238 1.463 . S
C2235 C2240 1.350 . S
C2235 N2243 1.427 . S
C2236 H2227 0.930 . S
C2236 C2234 1.378 . S
C2236 C2237 1.367 . S
C2237 C2236 1.367 . S
C2237 C2239 1.433 . S
C2238 C2234 1.350 . S
C2238 C2235 1.463 . S
C2238 N2242 1.427 . S
C2239 H2229 0.929 . S
C2239 C2237 1.433 . S
C2239 N2242 1.384 . S
C2240 H2231 0.929 . S
C2240 C2232 1.378 . S
C2240 C2235 1.350 . S
C2241 H2228 0.929 . S
C2241 C2233 1.433 . S
C2241 N2243 1.384 . S
N2242 C2238 1.427 . S
N2242 C2239 1.384 . S
N2243 C2235 1.427 . S
N2243 C2241 1.384 . S
H2244 C2250 0.930 . S
H2245 C2254 0.930 . S
H2246 C2259 0.929 . S
H2247 C2257 0.929 1_545 S
H2248 C2252 0.929 . S
H2249 C2258 0.929 . S
C2250 H2244 0.930 . S
C2250 C2251 1.367 . S
C2250 C2258 1.378 . S
C2251 C2250 1.367 . S
C2251 C2259 1.433 . S
C2252 H2248 0.929 . S
C2252 C2254 1.378 . S
C2252 C2256 1.350 . S
C2253 C2256 1.463 . S
C2253 C2258 1.350 . S
C2253 N2261 1.427 . S
C2254 H2245 0.930 . S
C2254 C2252 1.378 . S
C2254 C2255 1.367 . S
C2255 C2254 1.367 . S
C2255 C2257 1.433 . S
C2256 C2252 1.350 . S
C2256 C2253 1.463 . S
C2256 N2260 1.427 . S
C2257 H2247 0.929 1_565 S
C2257 C2255 1.433 . S
C2257 N2260 1.384 . S
C2258 H2249 0.929 . S
C2258 C2250 1.378 . S
C2258 C2253 1.350 . S
C2259 H2246 0.929 . S
C2259 C2251 1.433 . S
C2259 N2261 1.384 . S
N2260 C2256 1.427 . S
N2260 C2257 1.384 . S
N2261 C2253 1.427 . S
N2261 C2259 1.384 . S
H2262 C2268 0.930 . S
H2263 C2272 0.930 . S
H2264 C2277 0.929 . S
H2265 C2275 0.929 . S
H2266 C2270 0.929 . S
H2267 C2276 0.929 . S
C2268 H2262 0.930 . S
C2268 C2269 1.367 . S
C2268 C2276 1.378 . S
C2269 C2268 1.367 . S
C2269 C2277 1.433 . S
C2270 H2266 0.929 . S
C2270 C2272 1.378 . S
C2270 C2274 1.350 . S
C2271 C2274 1.463 . S
C2271 C2276 1.350 . S
C2271 N2279 1.427 . S
C2272 H2263 0.930 . S
C2272 C2270 1.378 . S
C2272 C2273 1.367 . S
C2273 C2272 1.367 . S
C2273 C2275 1.433 . S
C2274 C2270 1.350 . S
C2274 C2271 1.463 . S
C2274 N2278 1.427 . S
C2275 H2265 0.929 . S
C2275 C2273 1.433 . S
C2275 N2278 1.384 . S
C2276 H2267 0.929 . S
C2276 C2268 1.378 . S
C2276 C2271 1.350 . S
C2277 H2264 0.929 . S
C2277 C2269 1.433 . S
C2277 N2279 1.384 . S
N2278 C2274 1.427 . S
N2278 C2275 1.384 . S
N2279 C2271 1.427 . S
N2279 C2277 1.384 . S
H2280 C2286 0.930 . S
H2281 C2290 0.930 . S
H2282 C2295 0.929 . S
H2283 C2293 0.929 . S
H2284 C2288 0.929 . S
H2285 C2294 0.929 . S
C2286 H2280 0.930 . S
C2286 C2287 1.367 . S
C2286 C2294 1.378 . S
C2287 C2286 1.367 . S
C2287 C2295 1.433 . S
C2288 H2284 0.929 . S
C2288 C2290 1.378 . S
C2288 C2292 1.350 . S
C2289 C2292 1.463 . S
C2289 C2294 1.350 . S
C2289 N2297 1.427 . S
C2290 H2281 0.930 . S
C2290 C2288 1.378 . S
C2290 C2291 1.367 . S
C2291 C2290 1.367 . S
C2291 C2293 1.433 . S
C2292 C2288 1.350 . S
C2292 C2289 1.463 . S
C2292 N2296 1.427 . S
C2293 H2283 0.929 . S
C2293 C2291 1.433 . S
C2293 N2296 1.384 . S
C2294 H2285 0.929 . S
C2294 C2286 1.378 . S
C2294 C2289 1.350 . S
C2295 H2282 0.929 . S
C2295 C2287 1.433 . S
C2295 N2297 1.384 . S
N2296 C2292 1.427 . S
N2296 C2293 1.384 . S
N2297 C2289 1.427 . S
N2297 C2295 1.384 . S
H2298 C2304 0.930 . S
H2299 C2308 0.930 . S
H2300 C2313 0.929 . S
H2301 C2311 0.929 . S
H2302 C2306 0.929 . S
H2303 C2312 0.929 . S
C2304 H2298 0.930 . S
C2304 C2305 1.367 1_565 S
C2304 C2312 1.378 1_565 S
C2305 C2304 1.367 1_545 S
C2305 C2313 1.433 . S
C2306 H2302 0.929 . S
C2306 C2308 1.378 . S
C2306 C2310 1.350 . S
C2307 C2310 1.463 . S
C2307 C2312 1.350 . S
C2307 N2315 1.427 . S
C2308 H2299 0.930 . S
C2308 C2306 1.378 . S
C2308 C2309 1.367 . S
C2309 C2308 1.367 . S
C2309 C2311 1.433 . S
C2310 C2306 1.350 . S
C2310 C2307 1.463 . S
C2310 N2314 1.427 . S
C2311 H2301 0.929 . S
C2311 C2309 1.433 . S
C2311 N2314 1.384 . S
C2312 H2303 0.929 . S
C2312 C2304 1.378 1_545 S
C2312 C2307 1.350 . S
C2313 H2300 0.929 . S
C2313 C2305 1.433 . S
C2313 N2315 1.384 . S
N2314 C2310 1.427 . S
N2314 C2311 1.384 . S
N2315 C2307 1.427 . S
N2315 C2313 1.384 . S
H2316 C2322 0.930 . S
H2317 C2326 0.930 . S
H2318 C2331 0.929 . S
H2319 C2329 0.929 . S
H2320 C2324 0.929 . S
H2321 C2330 0.929 . S
C2322 H2316 0.930 . S
C2322 C2323 1.367 . S
C2322 C2330 1.378 . S
C2323 C2322 1.367 . S
C2323 C2331 1.433 . S
C2324 H2320 0.929 . S
C2324 C2326 1.378 . S
C2324 C2328 1.350 . S
C2325 C2328 1.463 . S
C2325 C2330 1.350 . S
C2325 N2333 1.427 . S
C2326 H2317 0.930 . S
C2326 C2324 1.378 . S
C2326 C2327 1.367 . S
C2327 C2326 1.367 . S
C2327 C2329 1.433 1_545 S
C2328 C2324 1.350 . S
C2328 C2325 1.463 . S
C2328 N2332 1.427 . S
C2329 H2319 0.929 . S
C2329 C2327 1.433 1_565 S
C2329 N2332 1.384 1_565 S
C2330 H2321 0.929 . S
C2330 C2322 1.378 . S
C2330 C2325 1.350 . S
C2331 H2318 0.929 . S
C2331 C2323 1.433 . S
C2331 N2333 1.384 . S
N2332 C2328 1.427 . S
N2332 C2329 1.384 1_545 S
N2333 C2325 1.427 . S
N2333 C2331 1.384 . S
H2334 C2340 0.930 . S
H2335 C2344 0.930 . S
H2336 C2349 0.929 . S
H2337 C2347 0.929 . S
H2338 C2342 0.929 . S
H2339 C2348 0.929 . S
C2340 H2334 0.930 . S
C2340 C2341 1.367 . S
C2340 C2348 1.378 . S
C2341 C2340 1.367 . S
C2341 C2349 1.433 . S
C2342 H2338 0.929 . S
C2342 C2344 1.378 . S
C2342 C2346 1.350 . S
C2343 C2346 1.463 . S
C2343 C2348 1.350 . S
C2343 N2351 1.427 . S
C2344 H2335 0.930 . S
C2344 C2342 1.378 . S
C2344 C2345 1.367 . S
C2345 C2344 1.367 . S
C2345 C2347 1.433 . S
C2346 C2342 1.350 . S
C2346 C2343 1.463 . S
C2346 N2350 1.427 . S
C2347 H2337 0.929 . S
C2347 C2345 1.433 . S
C2347 N2350 1.384 . S
C2348 H2339 0.929 . S
C2348 C2340 1.378 . S
C2348 C2343 1.350 . S
C2349 H2336 0.929 . S
C2349 C2341 1.433 . S
C2349 N2351 1.384 . S
N2350 C2346 1.427 . S
N2350 C2347 1.384 . S
N2351 C2343 1.427 . S
N2351 C2349 1.384 . S
H2352 C2358 0.930 . S
H2353 C2362 0.930 . S
H2354 C2367 0.929 . S
H2355 C2365 0.929 . S
H2356 C2360 0.929 . S
H2357 C2366 0.929 . S
C2358 H2352 0.930 . S
C2358 C2359 1.367 . S
C2358 C2366 1.378 . S
C2359 C2358 1.367 . S
C2359 C2367 1.433 . S
C2360 H2356 0.929 . S
C2360 C2362 1.378 . S
C2360 C2364 1.350 . S
C2361 C2364 1.463 . S
C2361 C2366 1.350 . S
C2361 N2369 1.427 . S
C2362 H2353 0.930 . S
C2362 C2360 1.378 . S
C2362 C2363 1.367 . S
C2363 C2362 1.367 . S
C2363 C2365 1.433 . S
C2364 C2360 1.350 . S
C2364 C2361 1.463 . S
C2364 N2368 1.427 . S
C2365 H2355 0.929 . S
C2365 C2363 1.433 . S
C2365 N2368 1.384 . S
C2366 H2357 0.929 . S
C2366 C2358 1.378 . S
C2366 C2361 1.350 . S
C2367 H2354 0.929 . S
C2367 C2359 1.433 . S
C2367 N2369 1.384 . S
N2368 C2364 1.427 . S
N2368 C2365 1.384 . S
N2369 C2361 1.427 . S
N2369 C2367 1.384 . S
H2370 C2376 0.930 . S
H2371 C2380 0.930 . S
H2372 C2385 0.929 . S
H2373 C2383 0.929 . S
H2374 C2378 0.929 . S
H2375 C2384 0.929 . S
C2376 H2370 0.930 . S
C2376 C2377 1.367 . S
C2376 C2384 1.378 . S
C2377 C2376 1.367 . S
C2377 C2385 1.433 . S
C2378 H2374 0.929 . S
C2378 C2380 1.378 . S
C2378 C2382 1.350 . S
C2379 C2382 1.463 . S
C2379 C2384 1.350 . S
C2379 N2387 1.427 . S
C2380 H2371 0.930 . S
C2380 C2378 1.378 . S
C2380 C2381 1.367 . S
C2381 C2380 1.367 . S
C2381 C2383 1.433 . S
C2382 C2378 1.350 . S
C2382 C2379 1.463 . S
C2382 N2386 1.427 . S
C2383 H2373 0.929 . S
C2383 C2381 1.433 . S
C2383 N2386 1.384 . S
C2384 H2375 0.929 . S
C2384 C2376 1.378 . S
C2384 C2379 1.350 . S
C2385 H2372 0.929 . S
C2385 C2377 1.433 . S
C2385 N2387 1.384 . S
N2386 C2382 1.427 . S
N2386 C2383 1.384 . S
N2387 C2379 1.427 . S
N2387 C2385 1.384 . S
H2388 C2394 0.930 . S
H2389 C2398 0.930 . S
H2390 C2403 0.929 . S
H2391 C2401 0.929 . S
H2392 C2396 0.929 . S
H2393 C2402 0.929 . S
C2394 H2388 0.930 . S
C2394 C2395 1.367 . S
C2394 C2402 1.378 . S
C2395 C2394 1.367 . S
C2395 C2403 1.433 . S
C2396 H2392 0.929 . S
C2396 C2398 1.378 . S
C2396 C2400 1.350 . S
C2397 C2400 1.463 . S
C2397 C2402 1.350 . S
C2397 N2405 1.427 . S
C2398 H2389 0.930 . S
C2398 C2396 1.378 . S
C2398 C2399 1.367 . S
C2399 C2398 1.367 . S
C2399 C2401 1.433 . S
C2400 C2396 1.350 . S
C2400 C2397 1.463 . S
C2400 N2404 1.427 . S
C2401 H2391 0.929 . S
C2401 C2399 1.433 . S
C2401 N2404 1.384 . S
C2402 H2393 0.929 . S
C2402 C2394 1.378 . S
C2402 C2397 1.350 . S
C2403 H2390 0.929 . S
C2403 C2395 1.433 . S
C2403 N2405 1.384 . S
N2404 C2400 1.427 . S
N2404 C2401 1.384 . S
N2405 C2397 1.427 . S
N2405 C2403 1.384 . S
H2406 C2412 0.930 . S
H2407 C2416 0.930 . S
H2408 C2421 0.929 . S
H2409 C2419 0.929 . S
H2410 C2414 0.928 1_545 S
H2411 C2420 0.929 . S
C2412 H2406 0.930 . S
C2412 C2413 1.367 . S
C2412 C2420 1.378 . S
C2413 C2412 1.367 . S
C2413 C2421 1.433 . S
C2414 H2410 0.928 1_565 S
C2414 C2416 1.378 1_565 S
C2414 C2418 1.350 . S
C2415 C2418 1.463 . S
C2415 C2420 1.350 . S
C2415 N2423 1.427 . S
C2416 H2407 0.930 . S
C2416 C2414 1.378 1_545 S
C2416 C2417 1.367 1_545 S
C2417 C2416 1.367 1_565 S
C2417 C2419 1.433 . S
C2418 C2414 1.350 . S
C2418 C2415 1.463 . S
C2418 N2422 1.427 . S
C2419 H2409 0.929 . S
C2419 C2417 1.433 . S
C2419 N2422 1.384 . S
C2420 H2411 0.929 . S
C2420 C2412 1.378 . S
C2420 C2415 1.350 . S
C2421 H2408 0.929 . S
C2421 C2413 1.433 . S
C2421 N2423 1.384 . S
N2422 C2418 1.427 . S
N2422 C2419 1.384 . S
N2423 C2415 1.427 . S
N2423 C2421 1.384 . S
H2424 C2430 0.930 1_565 S
H2425 C2434 0.930 . S
H2426 C2439 0.929 . S
H2427 C2437 0.929 . S
H2428 C2432 0.929 . S
H2429 C2438 0.929 . S
C2430 H2424 0.930 1_545 S
C2430 C2431 1.367 . S
C2430 C2438 1.378 . S
C2431 C2430 1.367 . S
C2431 C2439 1.433 . S
C2432 H2428 0.929 . S
C2432 C2434 1.378 . S
C2432 C2436 1.350 . S
C2433 C2436 1.463 . S
C2433 C2438 1.350 . S
C2433 N2441 1.427 . S
C2434 H2425 0.930 . S
C2434 C2432 1.378 . S
C2434 C2435 1.367 . S
C2435 C2434 1.367 . S
C2435 C2437 1.433 . S
C2436 C2432 1.350 . S
C2436 C2433 1.463 . S
C2436 N2440 1.427 . S
C2437 H2427 0.929 . S
C2437 C2435 1.433 . S
C2437 N2440 1.384 . S
C2438 H2429 0.929 . S
C2438 C2430 1.378 . S
C2438 C2433 1.350 . S
C2439 H2426 0.929 . S
C2439 C2431 1.433 . S
C2439 N2441 1.384 . S
N2440 C2436 1.427 . S
N2440 C2437 1.384 . S
N2441 C2433 1.427 . S
N2441 C2439 1.384 . S
H2442 C2448 0.930 . S
H2443 C2452 0.930 . S
H2444 C2457 0.929 . S
H2445 C2455 0.929 . S
H2446 C2450 0.929 . S
H2447 C2456 0.929 . S
C2448 H2442 0.930 . S
C2448 C2449 1.367 . S
C2448 C2456 1.378 . S
C2449 C2448 1.367 . S
C2449 C2457 1.433 . S
C2450 H2446 0.929 . S
C2450 C2452 1.378 . S
C2450 C2454 1.350 . S
C2451 C2454 1.463 . S
C2451 C2456 1.350 . S
C2451 N2459 1.427 . S
C2452 H2443 0.930 . S
C2452 C2450 1.378 . S
C2452 C2453 1.367 . S
C2453 C2452 1.367 . S
C2453 C2455 1.433 . S
C2454 C2450 1.350 . S
C2454 C2451 1.463 . S
C2454 N2458 1.427 . S
C2455 H2445 0.929 . S
C2455 C2453 1.433 . S
C2455 N2458 1.384 . S
C2456 H2447 0.929 . S
C2456 C2448 1.378 . S
C2456 C2451 1.350 . S
C2457 H2444 0.929 . S
C2457 C2449 1.433 . S
C2457 N2459 1.384 . S
N2458 C2454 1.427 . S
N2458 C2455 1.384 . S
N2459 C2451 1.427 . S
N2459 C2457 1.384 . S
H2460 C2466 0.930 . S
H2461 C2470 0.930 . S
H2462 C2475 0.929 . S
H2463 C2473 0.929 . S
H2464 C2468 0.929 . S
H2465 C2474 0.929 . S
C2466 H2460 0.930 . S
C2466 C2467 1.367 . S
C2466 C2474 1.378 . S
C2467 C2466 1.367 . S
C2467 C2475 1.433 . S
C2468 H2464 0.929 . S
C2468 C2470 1.378 . S
C2468 C2472 1.350 . S
C2469 C2472 1.463 . S
C2469 C2474 1.350 . S
C2469 N2477 1.427 . S
C2470 H2461 0.930 . S
C2470 C2468 1.378 . S
C2470 C2471 1.367 . S
C2471 C2470 1.367 . S
C2471 C2473 1.433 . S
C2472 C2468 1.350 . S
C2472 C2469 1.463 . S
C2472 N2476 1.427 . S
C2473 H2463 0.929 . S
C2473 C2471 1.433 . S
C2473 N2476 1.384 . S
C2474 H2465 0.929 . S
C2474 C2466 1.378 . S
C2474 C2469 1.350 . S
C2475 H2462 0.929 . S
C2475 C2467 1.433 . S
C2475 N2477 1.384 . S
N2476 C2472 1.427 . S
N2476 C2473 1.384 . S
N2477 C2469 1.427 . S
N2477 C2475 1.384 . S
H2478 C2484 0.930 . S
H2479 C2488 0.930 . S
H2480 C2493 0.929 . S
H2481 C2491 0.929 . S
H2482 C2486 0.929 . S
H2483 C2492 0.929 . S
C2484 H2478 0.930 . S
C2484 C2485 1.367 . S
C2484 C2492 1.378 . S
C2485 C2484 1.367 . S
C2485 C2493 1.433 . S
C2486 H2482 0.929 . S
C2486 C2488 1.378 . S
C2486 C2490 1.350 . S
C2487 C2490 1.463 . S
C2487 C2492 1.350 . S
C2487 N2495 1.427 . S
C2488 H2479 0.930 . S
C2488 C2486 1.378 . S
C2488 C2489 1.367 . S
C2489 C2488 1.367 . S
C2489 C2491 1.433 . S
C2490 C2486 1.350 . S
C2490 C2487 1.463 . S
C2490 N2494 1.427 . S
C2491 H2481 0.929 . S
C2491 C2489 1.433 . S
C2491 N2494 1.384 . S
C2492 H2483 0.929 . S
C2492 C2484 1.378 . S
C2492 C2487 1.350 . S
C2493 H2480 0.929 . S
C2493 C2485 1.433 . S
C2493 N2495 1.384 . S
N2494 C2490 1.427 . S
N2494 C2491 1.384 . S
N2495 C2487 1.427 . S
N2495 C2493 1.384 . S
C1063 C17 1.518 . S
C1067 C83 1.525 . S
C1081 C50 1.519 . S
C1085 C116 1.517 . S
C1099 C149 1.516 . S
C1103 C215 1.524 . S
C1117 C248 1.523 . S
C1121 C182 1.522 . S
C1135 C347 1.520 . S
C1139 C281 1.525 . S
C1153 C380 1.522 . S
C1157 C314 1.524 . S
C1171 C413 1.525 . S
C1175 C479 1.520 . S
C1189 C512 1.517 . S
C1193 C446 1.518 . S
C1207 C611 1.522 . S
C1211 C545 1.523 . S
C1225 C578 1.520 . S
C1229 C644 1.524 . S
C1243 C677 1.515 . S
C1247 C743 1.523 . S
C1261 C776 1.524 . S
C1265 C710 1.521 . S
C1279 C875 1.516 . S
C1283 C809 1.524 . S
C1297 C842 1.520 . S
C1301 C908 1.516 . S
C1315 C1007 1.524 . S
C1319 C941 1.521 . S
C1333 C1040 1.516 . S
C1337 C974 1.521 . S
C1351 C160 1.204 . S
C1355 C28 1.204 . S
C1369 C61 1.203 . S
C1373 C985 1.203 . S
C1387 C94 1.198 . S
C1391 C490 1.198 . S
C1405 C127 1.195 . S
C1409 C787 1.195 . S
C1423 C193 1.206 . S
C1427 C853 1.206 . S
C1441 C358 1.209 . S
C1445 C226 1.209 . S
C1459 C655 1.198 . S
C1463 C259 1.198 . S
C1477 C292 1.209 . S
C1481 C424 1.209 . S
C1495 C721 1.203 . S
C1499 C325 1.203 . S
C1513 C1051 1.200 . S
C1517 C391 1.200 . S
C1531 C589 1.209 . S
C1535 C457 1.209 . S
C1549 C919 1.205 . S
C1553 C523 1.205 . S
C1567 C688 1.198 . S
C1571 C556 1.198 . S
C1585 C622 1.209 . S
C1589 C1018 1.209 . S
C1603 C754 1.203 . S
C1607 C886 1.203 . S
C1621 C952 1.204 . S
C1625 C820 1.204 . S
C1639 N5 1.192 . S
C1643 N14 1.191 . S
C1657 N47 1.188 . S
C1661 N38 1.190 . S
C1675 N80 1.188 . S
C1679 N71 1.190 . S
C1693 N113 1.192 . S
C1697 N104 1.193 . S
C1711 N137 1.193 . S
C1715 N146 1.192 . S
C1729 N179 1.190 . S
C1733 N170 1.191 . S
C1747 N203 1.190 . S
C1751 N212 1.188 . S
C1765 N236 1.190 . S
C1769 N245 1.188 . S
C1783 N269 1.191 . S
C1787 N278 1.189 . S
C1801 N302 1.192 . S
C1805 N311 1.191 . S
C1819 N335 1.192 . S
C1823 N344 1.190 . S
C1837 N377 1.188 . S
C1841 N368 1.190 . S
C1855 N401 1.190 . S
C1859 N410 1.188 . S
C1873 N434 1.193 . S
C1877 N443 1.192 . S
C1891 N467 1.190 . S
C1895 N476 1.188 . S
C1909 N500 1.191 . S
C1913 N509 1.190 . S
C1927 N542 1.191 . S
C1931 N533 1.192 . S
C1945 N566 1.191 . S
C1949 N575 1.189 . S
C1963 N599 1.191 . S
C1967 N608 1.188 . S
C1981 N632 1.190 . S
C1985 N641 1.189 . S
C1999 N665 1.190 . S
C2003 N674 1.188 . S
C2017 N698 1.192 . S
C2021 N707 1.192 . S
C2035 N740 1.190 . S
C2039 N731 1.191 . S
C2053 N764 1.191 . S
C2057 N773 1.188 . S
C2071 N806 1.192 . S
C2075 N797 1.193 . S
C2089 N830 1.192 . S
C2093 N839 1.190 . S
C2107 N863 1.192 . S
C2111 N872 1.190 . S
C2125 N896 1.191 . S
C2129 N905 1.188 . S
C2143 N938 1.191 . S
C2147 N929 1.191 . S
C2161 N971 1.192 . S
C2165 N962 1.192 . S
C2179 N1004 1.189 . S
C2183 N995 1.191 . S
C2197 N1037 1.190 . S
C2201 N1028 1.192 . S
C2215 C833 1.496 . S
C2219 C8 1.502 . S
C2233 C41 1.505 1_565 S
C2237 C800 1.499 . S
C2251 C899 1.496 . S
C2255 C74 1.503 1_565 S
C2269 C107 1.496 . S
C2273 C866 1.501 . S
C2287 C965 1.504 . S
C2291 C140 1.502 . S
C2305 C173 1.501 1_545 S
C2309 C932 1.504 . S
C2323 C1031 1.498 . S
C2327 C206 1.498 1_545 S
C2341 C998 1.503 . S
C2345 C239 1.496 . S
C2359 C272 1.498 . S
C2363 C569 1.505 1_565 S
C2377 C305 1.496 . S
C2381 C536 1.501 . S
C2395 C635 1.505 . S
C2399 C338 1.499 . S
C2413 C371 1.504 . S
C2417 C602 1.503 1_565 S
C2431 C701 1.505 1_545 S
C2435 C404 1.500 . S
C2449 C668 1.499 . S
C2453 C437 1.497 . S
C2467 C470 1.501 . S
C2471 C767 1.497 . S
C2485 C503 1.504 . S
C2489 C734 1.497 1_545 S
