# Generated by pormake.
# Topology smc, (6)-cn, num edge types: 1
# Building blocks:
#     Node 0, Type 0, BuildingBlock: JUFBIX_clean_sbu_0, # of connection points: 6
#     Node 1, Type 0, BuildingBlock: JUFBIX_clean_sbu_0, # of connection points: 6
#     Node 2, Type 0, BuildingBlock: JUFBIX_clean_sbu_0, # of connection points: 6
#     Node 3, Type 0, BuildingBlock: JUFBIX_clean_sbu_0, # of connection points: 6
#     Node 4, Type 0, BuildingBlock: JUFBIX_clean_sbu_0, # of connection points: 6
#     Node 5, Type 0, BuildingBlock: JUFBIX_clean_sbu_0, # of connection points: 6
#     Node 6, Type 0, BuildingBlock: JUFBIX_clean_sbu_0, # of connection points: 6
#     Node 7, Type 0, BuildingBlock: JUFBIX_clean_sbu_0, # of connection points: 6
#     Node 8, Type 0, BuildingBlock: JUFBIX_clean_sbu_0, # of connection points: 6
#     Edge 9, Type (0, 0), BuildingBlock: EZIPEK_clean_linker_0, # of connection points: 2
#     Edge 10, Type (0, 0), BuildingBlock: EZIPEK_clean_linker_0, # of connection points: 2
#     Edge 11, Type (0, 0), BuildingBlock: EZIPEK_clean_linker_0, # of connection points: 2
#     Edge 12, Type (0, 0), BuildingBlock: EZIPEK_clean_linker_0, # of connection points: 2
#     Edge 13, Type (0, 0), BuildingBlock: EZIPEK_clean_linker_0, # of connection points: 2
#     Edge 14, Type (0, 0), BuildingBlock: EZIPEK_clean_linker_0, # of connection points: 2
#     Edge 15, Type (0, 0), BuildingBlock: EZIPEK_clean_linker_0, # of connection points: 2
#     Edge 16, Type (0, 0), BuildingBlock: EZIPEK_clean_linker_0, # of connection points: 2
#     Edge 17, Type (0, 0), BuildingBlock: EZIPEK_clean_linker_0, # of connection points: 2
#     Edge 18, Type (0, 0), BuildingBlock: EZIPEK_clean_linker_0, # of connection points: 2
#     Edge 19, Type (0, 0), BuildingBlock: EZIPEK_clean_linker_0, # of connection points: 2
#     Edge 20, Type (0, 0), BuildingBlock: EZIPEK_clean_linker_0, # of connection points: 2
#     Edge 21, Type (0, 0), BuildingBlock: EZIPEK_clean_linker_0, # of connection points: 2
#     Edge 22, Type (0, 0), BuildingBlock: EZIPEK_clean_linker_0, # of connection points: 2
#     Edge 23, Type (0, 0), BuildingBlock: EZIPEK_clean_linker_0, # of connection points: 2
#     Edge 24, Type (0, 0), BuildingBlock: EZIPEK_clean_linker_0, # of connection points: 2
#     Edge 25, Type (0, 0), BuildingBlock: EZIPEK_clean_linker_0, # of connection points: 2
#     Edge 26, Type (0, 0), BuildingBlock: EZIPEK_clean_linker_0, # of connection points: 2
#     Edge 27, Type (0, 0), BuildingBlock: EZIPEK_clean_linker_0, # of connection points: 2
#     Edge 28, Type (0, 0), BuildingBlock: EZIPEK_clean_linker_0, # of connection points: 2
#     Edge 29, Type (0, 0), BuildingBlock: EZIPEK_clean_linker_0, # of connection points: 2
#     Edge 30, Type (0, 0), BuildingBlock: EZIPEK_clean_linker_0, # of connection points: 2
#     Edge 31, Type (0, 0), BuildingBlock: EZIPEK_clean_linker_0, # of connection points: 2
#     Edge 32, Type (0, 0), BuildingBlock: EZIPEK_clean_linker_0, # of connection points: 2
#     Edge 33, Type (0, 0), BuildingBlock: EZIPEK_clean_linker_0, # of connection points: 2
#     Edge 34, Type (0, 0), BuildingBlock: EZIPEK_clean_linker_0, # of connection points: 2
#     Edge 35, Type (0, 0), BuildingBlock: EZIPEK_clean_linker_0, # of connection points: 2
# Relax obj value: 0.560
# Max RMSD: 0.328
# Mean RMSD: 0.317
data_MOF--net-smc--node1-JUFBIX_clean_sbu_0--edge1-EZIPEK_clean_linker_0
_symmetry_space_group_name_H-M    P1
_symmetry_Int_Tables_number       1
_symmetry_cell_setting            triclinic
loop_
_symmetry_equiv_pos_as_xyz
'x, y, z'
_cell_length_a     21.440767
_cell_length_b     25.687579
_cell_length_c     29.467246
_cell_angle_alpha  89.684833
_cell_angle_beta   88.313406
_cell_angle_gamma 119.3597
loop_
_atom_site_label
_atom_site_type_symbol
_atom_site_fract_x
_atom_site_fract_y
_atom_site_fract_z
_atom_type_partial_charge
Co0 Co 0.1176 0.53411 1.02019 0.0
C1 C 0.05436 0.45018 0.94817 0.0
Co2 Co 1.04498 0.44058 0.04231 0.0
C3 C 0.16261 0.66086 1.00711 0.0
C4 C 0.2396 0.63937 0.97826 0.0
N5 N 0.17588 0.61471 1.00142 0.0
N6 N 0.21545 0.71275 0.98899 0.0
C7 C 0.26408 0.6994 0.97083 0.0
H8 H 0.11509 0.65707 1.02408 0.0
H9 H 0.26653 0.6154 0.9668 0.0
C10 C 0.10917 0.50986 0.11494 0.0
N11 N 0.97894 0.3614 0.06092 0.0
C12 C 0.9114 0.33096 0.04557 0.0
C13 C 0.97837 0.32829 0.09687 0.0
N14 N 0.86871 0.28117 0.07066 0.0
C15 C 0.91069 0.27885 0.10283 0.0
C16 C 0.19695 0.47622 1.02899 0.0
O17 O 0.1409 0.55333 0.08573 0.0
O18 O 0.06057 0.46037 0.10169 0.0
O19 O 0.13566 0.4304 0.04151 0.0
O20 O 0.19633 0.52272 1.01576 0.0
O21 O 1.02811 0.41597 0.98252 0.0
H22 H 1.02285 0.34095 0.11889 0.0
H23 H 0.89263 0.34654 1.01766 0.0
O24 O 0.09376 0.50678 0.95474 0.0
O25 O 1.03985 0.54995 1.02587 0.0
O26 O 0.96249 0.4584 0.04397 0.0
C27 C 0.97604 0.51236 0.03701 0.0
H28 H 0.31321 0.73073 0.95274 0.0
H29 H 0.89318 0.24478 0.12938 0.0
Co30 Co 0.62277 0.54608 0.0741 0.0
C31 C 0.64766 0.63575 0.13754 0.0
Co32 Co 0.66235 0.63366 0.04319 0.0
C33 C 0.62173 0.42501 0.07284 0.0
C34 C 0.55296 0.44701 0.15692 0.0
N35 N 0.59564 0.47449 0.10066 0.0
N36 N 0.59383 0.36026 0.11058 0.0
C37 C 0.552 0.3663 0.16456 0.0
H38 H 0.64123 0.4289 0.03805 0.0
H39 H 0.53129 0.46787 0.17935 0.0
C40 C 0.64723 0.55224 0.97926 0.0
N41 N 0.6967 0.70957 1.01666 0.0
C42 C 0.73674 0.77859 0.04838 0.0
C43 C 0.70497 0.72279 0.95515 0.0
N44 N 0.77198 0.84071 1.00641 0.0
C45 C 0.75845 0.81442 0.94762 0.0
C46 C 0.77135 0.60343 0.06316 0.0
O47 O 0.62854 0.51574 1.01308 0.0
O48 O 0.65672 0.6039 0.98587 0.0
O49 O 0.76326 0.6451 0.04451 0.0
O50 O 0.71642 0.56126 0.08243 0.0
O51 O 0.67127 0.66751 0.10157 0.0
H52 H 0.68404 0.68943 0.92921 0.0
H53 H 0.73191 0.78223 0.08471 0.0
O54 O 0.62007 0.57918 0.13384 0.0
O55 O 0.52509 0.52464 0.0658 0.0
O56 O 0.55831 0.61514 0.04074 0.0
C57 C 0.50719 0.5617 0.05089 0.0
H58 H 0.52105 0.33058 0.18905 0.0
H59 H 0.76364 0.84069 0.91746 0.0
Co60 Co 0.46691 1.00725 1.00232 0.0
C61 C 0.46954 0.08847 0.93639 0.0
Co62 Co 0.42083 0.06034 1.02736 0.0
C63 C 0.54901 0.94564 1.00809 0.0
C64 C 0.50608 0.93924 0.94236 0.0
N65 N 0.50791 0.9614 0.984 0.0
N66 N 0.57379 0.91549 0.98282 0.0
C67 C 0.5468 0.91122 0.9415 0.0
H68 H 0.56354 0.95862 0.04276 0.0
H69 H 0.4785 0.94458 0.91408 0.0
C70 C 0.40803 0.98095 0.09366 0.0
N71 N 0.37711 0.10465 0.04621 0.0
C72 C 0.36998 0.14448 1.01997 0.0
C73 C 0.37075 0.12013 0.08894 0.0
N74 N 0.37505 0.19101 0.04358 0.0
C75 C 0.3676 0.17205 0.08736 0.0
C76 C 0.32415 0.95039 0.98878 0.0
O77 O 0.43213 0.961 0.06175 0.0
O78 O 0.4092 0.02966 0.08625 0.0
O79 O 0.32637 0.99278 1.01249 0.0
O80 O 0.38231 0.95204 0.97749 0.0
O81 O 0.43313 0.09272 0.96894 0.0
H82 H 0.37938 0.1012 0.11936 0.0
H83 H 0.37412 0.14573 0.98344 0.0
O84 O 0.49645 0.05408 0.94246 0.0
O85 O 0.5547 0.06241 1.02749 0.0
O86 O 0.51698 0.12597 0.04136 0.0
C87 C 0.56859 0.11417 0.03948 0.0
H88 H 0.5577 0.89098 0.91245 0.0
H89 H 0.37611 0.20001 0.1165 0.0
Co90 Co 0.79064 0.84481 0.37874 0.0
C91 C 0.70211 0.76434 0.31096 0.0
Co92 Co 0.70126 0.7581 0.40499 0.0
C93 C 0.84964 0.97605 0.36872 0.0
C94 C 0.91247 0.94873 0.32846 0.0
N95 N 0.85562 0.92667 0.35801 0.0
N96 N 0.89944 0.02725 0.34707 0.0
C97 C 0.93924 1.0098 0.32181 0.0
H98 H 0.80867 0.97482 0.39167 0.0
H99 H 0.93245 0.92204 0.31192 0.0
C100 C 0.78833 0.82547 0.47294 0.0
N101 N 0.6358 0.68463 0.42754 0.0
C102 C 0.56691 0.6544 0.41669 0.0
C103 C 0.64472 0.64864 0.45718 0.0
N104 N 0.53258 0.60102 0.43803 0.0
C105 C 0.58064 0.59645 0.46356 0.0
C106 C 0.82976 0.76149 0.37905 0.0
O107 O 0.82165 0.8664 0.44228 0.0
O108 O 0.73494 0.77727 0.46204 0.0
O109 O 0.76536 0.73012 0.39323 0.0
O110 O 0.8569 0.8175 0.37095 0.0
O111 O 0.66577 0.73589 0.34618 0.0
H112 H 0.69488 0.65912 0.47219 0.0
H113 H 0.5428 0.67013 0.39226 0.0
O114 O 0.75752 0.81622 0.31595 0.0
O115 O 0.72344 0.86886 0.38622 0.0
O116 O 0.63732 0.78657 0.41745 0.0
C117 C 0.66184 0.84025 0.40453 0.0
H118 H 0.98385 0.039 0.29927 0.0
H119 H 0.5707 0.55751 0.4836 0.0
Co120 Co 0.22738 0.90877 0.36165 0.0
C121 C 0.29781 0.90883 0.27696 0.0
Co122 Co 0.33981 0.94328 0.36247 0.0
C123 C 0.08727 0.81356 0.37276 0.0
C124 C 0.10067 0.8727 0.31747 0.0
N125 N 0.12981 0.86972 0.35664 0.0
N126 N 1.03855 0.7794 0.34278 0.0
C127 C 1.04579 0.81715 0.30834 0.0
H128 H 0.09635 0.7962 0.40393 0.0
H129 H 0.12436 0.91017 0.29363 0.0
C130 C 0.28354 0.95531 0.44607 0.0
N131 N 0.4357 0.98087 0.36648 0.0
C132 C 0.4689 0.96028 0.3926 0.0
C133 C 0.48762 1.0251 0.34042 0.0
N134 N 0.53873 0.98599 0.38157 0.0
C135 C 0.5519 0.02801 0.34948 0.0
C136 C 0.2891 1.02647 0.34296 0.0
O137 O 0.22411 0.93404 0.42553 0.0
O138 O 0.33393 0.95155 0.42606 0.0
O139 O 0.34505 1.02304 0.35202 0.0
O140 O 0.23028 0.97886 0.34241 0.0
O141 O 0.35218 0.9375 0.30017 0.0
H142 H 0.4782 0.04857 0.31322 0.0
H143 H 0.44096 0.92097 0.41454 0.0
O144 O 0.23673 0.88945 0.29721 0.0
O145 O 0.21879 0.83385 0.38123 0.0
O146 O 0.3304 0.86041 0.37135 0.0
C147 C 0.26612 0.81843 0.37976 0.0
H148 H 1.01523 0.80524 0.27785 0.0
H149 H 0.60155 0.05245 0.32969 0.0
Co150 Co 0.14968 0.33392 0.34961 0.0
C151 C 0.14374 0.412 0.28224 0.0
Co152 Co 0.10655 0.39224 0.37471 0.0
C153 C 0.18611 0.23509 0.34246 0.0
C154 C 0.24331 0.30815 0.29537 0.0
N155 N 0.19106 0.28755 0.32839 0.0
N156 N 0.23323 0.223 0.31928 0.0
C157 C 0.26902 0.26903 0.28981 0.0
H158 H 0.15076 0.20744 0.37011 0.0
H159 H 0.26418 0.3505 0.27742 0.0
C160 C 0.10011 0.31534 0.44404 0.0
N161 N 0.08572 0.456 0.39221 0.0
C162 C 0.13105 0.51401 0.37753 0.0
C163 C 1.04325 0.46255 0.4238 0.0
N164 N 0.12089 0.55575 0.39946 0.0
C165 C 0.06464 0.52311 0.42833 0.0
C166 C 1.00421 0.27508 0.34516 0.0
O167 O 0.12333 0.29403 0.41214 0.0
O168 O 0.09739 0.36257 0.43453 0.0
O169 O 1.00652 0.32171 0.36437 0.0
O170 O 0.062 0.27757 0.33138 0.0
O171 O 0.11325 0.42112 0.31589 0.0
H172 H 1.00079 0.42625 0.44347 0.0
H173 H 0.17376 0.52613 0.35217 0.0
O174 O 0.1689 0.37625 0.28798 0.0
O175 O 0.23976 0.38826 0.36874 0.0
O176 O 0.20282 0.45123 0.38509 0.0
C177 C 0.2527 0.43854 0.38274 0.0
H178 H 0.31224 0.27464 0.26672 0.0
H179 H 1.0412 0.54166 0.45168 0.0
Co180 Co 0.44156 0.19509 0.67426 0.0
C181 C 0.36652 0.10169 0.61082 0.0
Co182 Co 0.37809 0.10563 0.703 0.0
C183 C 0.49129 0.31884 0.66342 0.0
C184 C 0.52027 0.28538 0.60497 0.0
N185 N 0.48794 0.26911 0.6466 0.0
N186 N 0.52581 0.36606 0.63465 0.0
C187 C 0.54456 0.34548 0.59774 0.0
H188 H 0.47337 0.32153 0.69764 0.0
H189 H 0.52789 0.25601 0.58211 0.0
C190 C 0.44888 0.18725 0.76856 0.0
N191 N 0.32106 0.03079 0.73158 0.0
C192 C 0.25047 0.99651 0.72379 0.0
C193 C 0.32969 1.00938 0.77156 0.0
N194 N 0.21456 0.95632 0.75761 0.0
C195 C 0.26419 0.96329 0.78749 0.0
C196 C 0.53046 0.1464 0.68269 0.0
O197 O 0.47908 0.22632 0.73615 0.0
O198 O 0.39977 0.13629 0.759 0.0
O199 O 0.47308 0.10194 0.70142 0.0
O200 O 0.52306 0.18722 0.66378 0.0
O201 O 0.35308 0.06962 0.64625 0.0
H202 H 0.37901 0.02889 0.78967 0.0
H203 H 0.2247 1.00308 0.69499 0.0
O204 O 0.40275 0.15867 0.61457 0.0
O205 O 0.3642 0.20931 0.68448 0.0
O206 O 0.2916 0.11745 0.70486 0.0
C207 C 0.30197 0.17017 0.69683 0.0
H208 H 0.57861 0.37291 0.56957 0.0
H209 H 0.25343 0.93793 0.81892 0.0
Co210 Co 0.95122 0.21246 0.71733 0.0
C211 C 0.98352 0.30201 0.78473 0.0
Co212 Co 1.00001 0.30299 0.69084 0.0
C213 C 0.8444 0.09134 0.72737 0.0
C214 C 0.92715 0.1142 0.77504 0.0
N215 N 0.90717 0.13651 0.74032 0.0
N216 N 0.82493 0.04156 0.75215 0.0
C217 C 0.87639 0.05535 0.78233 0.0
H218 H 0.81318 0.09467 0.70043 0.0
H219 H 0.97482 0.13934 0.79418 0.0
C220 C 0.97865 0.22486 0.62172 0.0
N221 N 1.04617 0.37985 0.6683 0.0
C222 C 0.10445 0.44362 0.7022 0.0
C223 C 1.0372 0.40118 0.61061 0.0
N224 N 0.13396 0.51091 0.66619 0.0
C225 C 0.09913 0.49297 0.60862 0.0
C226 C 0.09701 0.25908 0.71073 0.0
O227 O 0.95237 0.18409 0.65319 0.0
O228 O 0.99713 0.27761 0.63251 0.0
O229 O 0.09551 0.30564 0.69593 0.0
O230 O 1.03872 0.21551 0.72484 0.0
O231 O 1.00682 0.33384 0.74905 0.0
H232 H 1.0016 0.37198 0.58562 0.0
H233 H 0.10906 0.44289 0.73864 0.0
O234 O 0.95432 0.24508 0.78036 0.0
O235 O 0.85948 0.20376 0.71019 0.0
O236 O 0.89964 0.29461 0.68512 0.0
C237 C 0.84546 0.24296 0.69593 0.0
H238 H 0.8765 1.02511 0.80804 0.0
H239 H 0.09768 0.52386 0.58413 0.0
Co240 Co 0.82443 0.66833 0.71551 0.0
C241 C 0.81353 0.74677 0.65086 0.0
Co242 Co 0.76504 0.71122 0.73927 0.0
C243 C 0.92423 0.6234 0.71407 0.0
C244 C 0.87901 0.6204 0.64949 0.0
N245 N 0.877 0.63493 0.69326 0.0
N246 N 0.95596 0.6031 0.68456 0.0
C247 C 0.92764 0.60078 0.64406 0.0
H248 H 0.93565 0.63028 0.74976 0.0
H249 H 0.84735 0.62418 0.62309 0.0
C250 C 0.76551 0.63251 0.80471 0.0
N251 N 0.70957 0.7429 0.76007 0.0
C252 C 0.72704 0.80043 0.75651 0.0
C253 C 0.63922 0.71383 0.77289 0.0
N254 N 0.67047 0.80838 0.76546 0.0
C255 C 0.61468 0.75424 0.77568 0.0
C256 C 0.68448 0.59968 0.6984 0.0
O257 O 0.79981 0.62116 0.7734 0.0
O258 O 0.75214 0.67455 0.79734 0.0
O259 O 0.67751 0.63978 0.7196 0.0
O260 O 0.74635 0.60749 0.69069 0.0
O261 O 0.77459 0.74887 0.68293 0.0
H262 H 0.60637 0.66598 0.77676 0.0
H263 H 0.77892 0.83543 0.74398 0.0
O264 O 0.84463 0.71589 0.6574 0.0
O265 O 0.90615 0.72751 0.74018 0.0
O266 O 0.85736 0.78251 0.75616 0.0
C267 C 0.91392 0.7773 0.75176 0.0
H268 H 0.94094 0.58543 0.61302 0.0
H269 H 0.55998 0.74446 0.78208 0.0
C270 C 0.37509 0.50424 0.07987 0.0
C271 C 0.42668 0.53916 0.04453 0.0
C272 C 0.32424 0.51685 0.99517 0.0
C273 C 0.27261 0.48298 1.03086 0.0
N274 N 0.25139 0.43254 0.1032 0.0
N275 N 0.44804 0.56999 0.96573 0.0
C276 C 0.299 0.47267 0.07178 0.0
C277 C 0.40035 0.54312 1.00149 0.0
N278 N 0.39877 0.50399 0.12242 0.0
N279 N 0.29986 0.52421 0.9546 0.0
H280 H 0.50329 0.59105 0.96877 0.0
H281 H 0.43368 0.56875 0.9322 0.0
H282 H 0.2461 0.50013 0.94654 0.0
H283 H 0.33174 0.55517 0.9294 0.0
H284 H 0.36522 0.48378 0.15082 0.0
H285 H 0.45241 0.5292 0.13058 0.0
H286 H 0.26626 0.41811 0.13189 0.0
H287 H 0.19651 0.40903 0.09843 0.0
C288 C 0.70017 0.94566 0.99969 0.0
C289 C 0.62727 0.89968 0.99454 0.0
C290 C 0.6655 0.82528 1.00381 0.0
C291 C 0.73145 0.86907 1.01223 0.0
N292 N 0.8234 0.97101 1.01158 0.0
N293 N 0.54091 0.79387 0.99116 0.0
C294 C 0.75319 0.92958 1.00836 0.0
C295 C 0.60938 0.83813 0.99654 0.0
N296 N 0.72117 1.00462 0.9941 0.0
N297 N 0.66839 0.77302 0.9949 0.0
H298 H 0.49917 0.80298 0.98631 0.0
H299 H 0.52569 0.74869 0.99378 0.0
H300 H 0.77536 0.77376 0.99299 0.0
H301 H 0.61658 0.73659 0.99008 0.0
H302 H 0.68682 1.02075 0.98552 0.0
H303 H 0.68682 1.02075 0.98552 0.0
H304 H 0.84162 1.0168 1.00844 0.0
H305 H 0.86186 0.95827 1.01774 0.0
C306 C 0.22348 0.85795 1.02175 0.0
C307 C 0.25813 0.89222 0.98223 0.0
C308 C 0.2289 0.79919 0.94346 0.0
C309 C 0.2183 0.77016 0.98638 0.0
N310 N 0.20734 0.77428 0.06815 0.0
N311 N 0.28176 0.89424 0.90211 0.0
C312 C 0.2144 0.79957 1.02617 0.0
C313 C 0.25489 0.86191 0.94161 0.0
N314 N 0.19923 0.88123 0.05454 0.0
N315 N 0.21408 0.76668 0.90492 0.0
H316 H 0.29869 0.93988 0.90049 0.0
H317 H 0.2894 0.8765 0.87212 0.0
H318 H 0.1927 0.72039 0.90599 0.0
H319 H 0.21603 0.7845 0.87273 0.0
H320 H 0.17028 0.85698 0.08355 0.0
H321 H 0.20039 0.92185 0.04883 0.0
H322 H 0.21076 0.7971 0.09797 0.0
H323 H 0.20497 0.73318 0.07317 0.0
C324 C 0.43098 0.29698 0.0579 0.0
C325 C 0.43038 0.251 1.03157 0.0
C326 C 0.55559 0.28587 0.04903 0.0
C327 C 0.54267 0.3133 0.08624 0.0
N328 N 0.51531 0.38471 0.1029 0.0
N329 N 0.50839 0.23858 0.97706 0.0
C330 C 0.49129 0.32905 0.08418 0.0
C331 C 0.49889 0.25768 1.01833 0.0
N332 N 0.3718 0.30316 0.06233 0.0
N333 N 0.62075 0.28976 0.04242 0.0
H334 H 0.46856 0.22408 0.95318 0.0
H335 H 0.55666 0.24217 0.96535 0.0
H336 H 0.66155 0.31284 0.06505 0.0
H337 H 0.63297 0.26921 1.01595 0.0
H338 H 0.36844 0.33294 0.08488 0.0
H339 H 0.32664 0.27689 0.04361 0.0
H340 H 0.47945 0.40104 0.0965 0.0
H341 H 0.62454 0.43265 0.13505 0.0
C342 C 0.7016 0.16226 1.0179 0.0
C343 C 0.64588 0.15973 0.04758 0.0
C344 C 0.73918 0.24171 0.09106 0.0
C345 C 0.7936 0.23952 0.06395 0.0
N346 N 0.82712 0.19057 1.00729 0.0
N347 N 0.6146 0.19099 0.11782 0.0
C348 C 0.77472 0.1976 1.02913 0.0
C349 C 0.66548 0.19799 0.08565 0.0
N350 N 0.68557 0.13329 0.97756 0.0
N351 N 0.75811 0.28651 0.12139 0.0
H352 H 0.5609 0.1586 0.11613 0.0
H353 H 0.62658 0.2137 0.14827 0.0
H354 H 0.81143 0.3183 0.1262 0.0
H355 H 0.72119 0.29495 0.13888 0.0
H356 H 0.72413 0.13972 0.9525 0.0
H357 H 0.63386 0.10707 0.96673 0.0
H358 H 0.8165 0.15569 0.9854 0.0
H359 H 0.88117 0.21643 1.0144 0.0
C360 C 0.883 0.52679 0.08491 0.0
C361 C 0.92211 0.53527 0.04303 0.0
C362 C 0.88005 0.60644 1.01809 0.0
C363 C 0.83752 0.59455 0.059 0.0
N364 N 0.82395 0.56325 0.1372 0.0
N365 N 0.95668 0.58293 0.96892 0.0
C366 C 0.84646 0.56021 0.09392 0.0
C367 C 0.92079 0.57576 1.00968 0.0
N368 N 0.88011 0.48653 0.11658 0.0
N369 N 0.88204 0.64735 0.98741 0.0
H370 H 0.97927 0.55656 0.95957 0.0
H371 H 0.9624 0.61276 0.94313 0.0
H372 H 0.85841 0.67359 0.99392 0.0
H373 H 0.91109 0.65937 0.95672 0.0
H374 H 0.84515 0.47246 0.14493 0.0
H375 H 0.90845 0.46345 0.11319 0.0
H376 H 0.83419 0.54468 0.16556 0.0
H377 H 0.80311 0.59131 0.14535 0.0
C378 C 0.88039 0.71661 0.32446 0.0
C379 C 0.87053 0.731 0.36985 0.0
C380 C 0.95687 0.70256 0.39384 0.0
C381 C 0.98459 0.71747 0.34908 0.0
N382 N 0.94093 0.67632 0.27693 0.0
N383 N 0.88399 0.7194 0.45026 0.0
C384 C 0.93173 0.69808 0.31694 0.0
C385 C 0.90215 0.71625 0.40603 0.0
N386 N 0.84889 0.72756 0.28904 0.0
N387 N 0.98843 0.68339 0.42395 0.0
H388 H 0.84358 0.72922 0.45943 0.0
H389 H 0.9101 0.71354 0.47743 0.0
H390 H 1.03148 0.67745 0.41345 0.0
H391 H 0.96962 0.67087 0.45743 0.0
H392 H 0.85909 0.72122 0.25531 0.0
H393 H 0.81747 0.74773 0.2936 0.0
H394 H 0.90301 0.66177 0.25184 0.0
H395 H 0.9849 0.66975 0.27127 0.0
C396 C 0.27973 0.1696 0.36603 0.0
C397 C 0.24864 0.17447 0.32568 0.0
C398 C 0.26521 0.09372 0.29296 0.0
C399 C 0.28778 0.08376 0.33541 0.0
N400 N 0.30088 0.10503 0.41522 0.0
N401 N 0.20271 0.1362 0.25264 0.0
C402 C 0.2914 0.12012 0.37267 0.0
C403 C 0.23926 0.13527 0.28952 0.0
N404 N 0.29978 0.21304 0.39767 0.0
N405 N 0.26887 0.06346 0.25588 0.0
H406 H 0.18135 0.16484 0.25 0.0
H407 H 0.18785 0.1052 0.22688 0.0
H408 H 0.28806 0.03319 0.25742 0.0
H409 H 0.25929 0.07224 0.22304 0.0
H410 H 0.32928 0.21498 0.42572 0.0
H411 H 0.29286 0.25022 0.3936 0.0
H412 H 0.29649 0.12581 0.44447 0.0
H413 H 0.30574 0.06751 0.4213 0.0
C414 C 0.92705 0.17866 0.30564 0.0
C415 C 0.9421 0.21146 0.3465 0.0
C416 C 0.91746 0.11925 0.38889 0.0
C417 C 0.90628 0.08726 0.34782 0.0
N418 N 0.87738 0.08205 0.26925 0.0
N419 N 0.9215 0.20476 0.42691 0.0
C420 C 0.90366 0.11568 0.30685 0.0
C421 C 0.92673 0.17867 0.38805 0.0
N422 N 0.93883 0.2089 0.2653 0.0
N423 N 0.92437 0.09493 0.42839 0.0
H424 H 0.92663 0.24733 0.42632 0.0
H425 H 0.90364 0.18156 0.45789 0.0
H426 H 0.92098 0.05309 0.43012 0.0
H427 H 0.93993 0.11856 0.4584 0.0
H428 H 0.93814 0.19046 0.23381 0.0
H429 H 0.95186 0.25373 0.26401 0.0
H430 H 0.86834 0.09845 0.23922 0.0
H431 H 0.85776 0.03599 0.2698 0.0
C432 C 0.25892 0.72211 0.41522 0.0
C433 C 0.23989 0.75072 0.38094 0.0
C434 C 0.14176 0.65004 0.36002 0.0
C435 C 0.1619 0.62138 0.39309 0.0
N436 N 0.24696 0.62935 0.4475 0.0
N437 N 0.1744 0.7382 0.31302 0.0
C438 C 0.22297 0.65738 0.41917 0.0
C439 C 0.18437 0.71333 0.35126 0.0
N440 N 0.3093 0.75673 0.44521 0.0
N441 N 0.08043 0.61659 0.33735 0.0
H442 H 0.20762 0.78287 0.30376 0.0
H443 H 0.13935 0.71363 0.2879 0.0
H444 H 1.04968 0.57036 0.34202 0.0
H445 H 0.05712 0.63498 0.31686 0.0
H446 H 0.32093 0.73977 0.47393 0.0
H447 H 0.33712 0.80327 0.44244 0.0
H448 H 0.29474 0.65138 0.46442 0.0
H449 H 0.22087 0.58292 0.45155 0.0
C450 C 0.33386 0.50445 0.44198 0.0
C451 C 0.32477 0.48027 0.39781 0.0
C452 C 0.4543 0.52551 0.38612 0.0
C453 C 0.4629 0.55513 0.4275 0.0
N454 N 0.41415 0.58015 0.49268 0.0
N455 N 0.37629 0.47491 0.32494 0.0
C456 C 0.40355 0.54662 0.45493 0.0
C457 C 0.38502 0.49239 0.3691 0.0
N458 N 0.27694 0.48501 0.4723 0.0
N459 N 0.5129 0.52945 0.36326 0.0
H460 H 0.32639 0.45161 0.31072 0.0
H461 H 0.41852 0.48812 0.30118 0.0
H462 H 0.56463 0.55421 0.37504 0.0
H463 H 0.50979 0.50422 0.335 0.0
H464 H 0.28215 0.49715 0.50622 0.0
H465 H 0.22521 0.45225 0.46507 0.0
H466 H 0.37276 0.58123 0.51129 0.0
H467 H 0.46522 0.61009 0.5035 0.0
C468 C 0.61956 0.96349 0.42277 0.0
C469 C 0.5752 0.95275 0.38578 0.0
C470 C 0.56896 0.85671 0.37296 0.0
C471 C 0.61997 0.87056 0.40657 0.0
N472 N 0.70097 0.93946 0.46049 0.0
N473 N 0.51643 0.89513 0.32048 0.0
C474 C 0.64704 0.92451 0.43099 0.0
C475 C 0.55264 0.90109 0.35922 0.0
N476 N 0.63405 1.01041 0.45027 0.0
N477 N 0.5369 0.80159 0.35386 0.0
H478 H 0.50331 0.92686 0.30914 0.0
H479 H 0.50531 0.8616 0.29721 0.0
H480 H 0.54826 0.76792 0.36276 0.0
H481 H 0.49408 0.78714 0.33237 0.0
H482 H 0.65975 1.01707 0.48088 0.0
H483 H 0.61645 0.04093 0.44343 0.0
H484 H 0.72837 0.98118 0.47522 0.0
H485 H 0.72167 0.91135 0.46793 0.0
C486 C 0.7337 0.22354 0.65147 0.0
C487 C 0.76501 0.22335 0.69331 0.0
C488 C 0.64044 0.157 0.7265 0.0
C489 C 0.60914 0.15941 0.68507 0.0
N490 N 0.62882 0.1786 0.60479 0.0
N491 N 0.74629 0.19628 0.77285 0.0
C492 C 0.65705 0.18864 0.64681 0.0
C493 C 0.71746 0.19117 0.73121 0.0
N494 N 0.77707 0.25766 0.6159 0.0
N495 N 0.59698 0.12048 0.76111 0.0
H496 H 0.80072 0.22366 0.77819 0.0
H497 H 0.71649 0.17846 0.80296 0.0
H498 H 0.54176 0.09478 0.75886 0.0
H499 H 0.61549 0.11124 0.79063 0.0
H500 H 0.7581 0.26558 0.58601 0.0
H501 H 0.83254 0.28253 0.61764 0.0
H502 H 0.65901 0.19334 0.57448 0.0
H503 H 0.57501 0.14828 0.60034 0.0
C504 C 1.03322 0.50309 0.68432 0.0
C505 C 0.10316 0.54246 0.68593 0.0
C506 C 0.08074 0.62511 0.69381 0.0
C507 C 1.0058 0.58287 0.69341 0.0
N508 N 0.91001 0.48036 0.693 0.0
N509 N 0.20312 0.64064 0.6844 0.0
C510 C 0.98133 0.52071 0.69092 0.0
C511 C 0.13104 0.60404 0.68864 0.0
N512 N 1.02462 0.45088 0.66498 0.0
N513 N 0.10252 0.6844 0.69757 0.0
H514 H 0.23759 0.62289 0.68061 0.0
H515 H 0.22795 0.68705 0.68418 0.0
H516 H 0.06612 0.70016 0.70077 0.0
H517 H 0.15588 0.71735 0.69915 0.0
H518 H 0.96973 0.41838 0.66403 0.0
H519 H 0.12159 0.44298 0.6407 0.0
H520 H 0.89018 0.43432 0.69328 0.0
H521 H 0.87131 0.49347 0.69785 0.0
C522 C 0.57368 0.52553 0.65801 0.0
C523 C 0.62562 0.53812 0.69109 0.0
C524 C 0.61638 0.44065 0.68109 0.0
C525 C 0.56229 0.42614 0.64992 0.0
N526 N 0.48092 0.44947 0.61235 0.0
N527 N 0.67157 0.49705 0.74626 0.0
C528 C 0.53799 0.46703 0.63946 0.0
C529 C 0.63844 0.49194 0.7066 0.0
N530 N 0.55969 0.56931 0.6441 0.0
N531 N 0.64765 0.4057 0.68591 0.0
H532 H 0.68365 0.53253 0.76712 0.0
H533 H 0.67725 0.46269 0.76102 0.0
H534 H 0.63404 0.36787 0.66677 0.0
H535 H 0.69247 0.41802 0.70534 0.0
H536 H 0.52844 0.56539 0.61657 0.0
H537 H 0.58039 0.60998 0.66053 0.0
H538 H 0.45665 0.4752 0.60605 0.0
H539 H 0.4558 0.40727 0.59797 0.0
C540 C 0.675 0.89886 0.79405 0.0
C541 C 0.67098 0.86326 0.75686 0.0
C542 C 0.74871 0.95035 0.71001 0.0
C543 C 0.76082 0.98548 0.74913 0.0
N544 N 0.71583 0.99914 0.82099 0.0
N545 N 0.67564 0.8537 0.67645 0.0
C546 C 0.71616 0.96158 0.78858 0.0
C547 C 0.69621 0.88938 0.71333 0.0
N548 N 0.64607 0.87256 0.83533 0.0
N549 N 0.79204 0.97297 0.67189 0.0
H550 H 0.6393 0.808 0.67989 0.0
H551 H 0.68931 0.87001 0.6431 0.0
H552 H 0.8336 1.01683 0.66876 0.0
H553 H 0.78996 0.94702 0.64433 0.0
H554 H 0.65593 0.89626 0.86527 0.0
H555 H 0.6142 0.82639 0.83949 0.0
H556 H 0.681 0.98461 0.84943 0.0
H557 H 0.7461 0.0455 0.81671 0.0
C558 C 1.04326 0.82649 0.72228 0.0
C559 C 0.99054 0.82784 0.75302 0.0
C560 C 0.08822 0.91896 0.78549 0.0
C561 C 0.13949 0.9119 0.7586 0.0
N562 N 0.16722 0.85241 0.70878 0.0
N563 N 0.96733 0.87237 0.81887 0.0
C564 C 0.11714 0.86346 0.72951 0.0
C565 C 1.01415 0.87358 0.78592 0.0
N566 N 1.02381 0.79237 0.68436 0.0
N567 N 0.11037 0.96959 0.80994 0.0
H568 H 0.9137 0.83942 0.82126 0.0
H569 H 0.98306 0.90112 0.84617 0.0
H570 H 0.16413 1.00252 0.81056 0.0
H571 H 0.07525 0.98083 0.8266 0.0
H572 H 0.06028 0.79579 0.65876 0.0
H573 H 0.97155 0.76594 0.67487 0.0
H574 H 0.15421 0.81393 0.69066 0.0
H575 H 0.22202 0.87891 0.7134 0.0
C576 C 0.23757 0.22063 0.66237 0.0
C577 C 0.24537 0.18943 0.70018 0.0
C578 C 0.17144 0.21969 0.74732 0.0
C579 C 0.16131 0.24891 0.70915 0.0
N580 N 0.19945 0.28914 0.63311 0.0
N581 N 0.21413 0.1548 0.77788 0.0
C582 C 0.19904 0.25312 0.66754 0.0
C583 C 0.21063 0.18774 0.74245 0.0
N584 N 0.26372 0.21604 0.62055 0.0
N585 N 0.14643 0.2257 0.78905 0.0
H586 H 0.24316 0.13211 0.77592 0.0
H587 H 0.18454 0.14617 0.80829 0.0
H588 H 0.12214 0.252 0.79371 0.0
H589 H 0.1556 0.21025 0.81944 0.0
H590 H 0.25566 0.23295 0.5905 0.0
H591 H 0.2882 0.19004 0.61499 0.0
H592 H 0.23152 0.29949 0.60362 0.0
H593 H 0.17232 0.31331 0.63534 0.0
C594 C 0.2035 0.48159 0.21171 0.0
C595 C 0.14083 0.4403 0.23749 0.0
C596 C 0.07181 0.47637 0.1944 0.0
C597 C 0.12996 0.50823 0.16316 0.0
N598 N 0.25482 0.547 0.14438 0.0
N599 N 1.01185 0.39191 0.24639 0.0
C600 C 0.19728 0.51308 0.17281 0.0
C601 C 0.07416 0.43632 0.22692 0.0
N602 N 0.2688 0.49163 0.22493 0.0
N603 N 1.01293 0.48344 0.19174 0.0
H604 H 1.01037 0.35942 0.26841 0.0
H605 H 0.96136 0.38334 0.23677 0.0
H606 H 1.0111 0.51314 0.16814 0.0
H607 H 0.9704 0.46528 0.21562 0.0
H608 H 0.3173 0.52554 0.21143 0.0
H609 H 0.2742 0.46741 0.25141 0.0
H610 H 0.30457 0.54973 0.14689 0.0
H611 H 0.25243 0.57271 0.11773 0.0
C612 C 0.67007 0.75346 0.22676 0.0
C613 C 0.68568 0.73092 0.26646 0.0
C614 C 0.67855 0.64692 0.22129 0.0
C615 C 0.65618 0.66603 0.18286 0.0
N616 N 0.61278 0.73019 0.15402 0.0
N617 N 0.6844 0.64437 0.30239 0.0
C618 C 0.64722 0.7175 0.18695 0.0
C619 C 0.68256 0.6738 0.26411 0.0
N620 N 0.6754 0.80863 0.22712 0.0
N621 N 0.70146 0.60595 0.21691 0.0
H622 H 0.69403 0.66208 0.33451 0.0
H623 H 0.67182 0.59966 0.3024 0.0
H624 H 0.70344 0.58674 0.18633 0.0
H625 H 0.72669 0.59625 0.24272 0.0
H626 H 0.67273 0.83037 0.1979 0.0
H627 H 0.68718 0.83436 0.25615 0.0
H628 H 0.59895 0.76369 0.15679 0.0
H629 H 0.59044 0.70285 0.12635 0.0
C630 C 0.30394 0.94377 0.15225 0.0
C631 C 0.37033 0.94689 0.13731 0.0
C632 C 0.37069 0.90052 0.21105 0.0
C633 C 0.30958 0.90422 0.2267 0.0
N634 N 0.20028 0.89916 0.204 0.0
N635 N 0.46753 0.92875 0.15441 0.0
C636 C 0.27067 0.91651 0.19486 0.0
C637 C 0.40284 0.92375 0.16681 0.0
N638 N 0.27321 0.96935 0.12708 0.0
N639 N 0.3958 0.87221 0.23827 0.0
H640 H 0.49329 0.94604 0.12302 0.0
H641 H 0.49837 0.91949 0.17616 0.0
H642 H 0.37079 0.85271 0.26957 0.0
H643 H 0.43565 0.8623 0.22823 0.0
H644 H 0.23373 0.9781 0.14028 0.0
H645 H 0.28828 0.98438 0.09379 0.0
H646 H 0.16705 0.90227 0.18031 0.0
H647 H 0.17207 0.87282 0.23227 0.0
C648 C 0.53725 0.16202 0.8683 0.0
C649 C 0.47215 0.12118 0.89244 0.0
C650 C 0.4107 0.1634 0.84834 0.0
C651 C 0.46965 0.19195 0.81729 0.0
N652 N 0.59422 0.22804 0.80156 0.0
N653 N 0.34288 0.07677 0.89699 0.0
C654 C 0.53493 0.19456 0.82873 0.0
C655 C 0.40788 0.12068 0.8803 0.0
N656 N 0.60089 0.17084 0.88371 0.0
N657 N 0.35482 0.17423 0.8446 0.0
H658 H 0.33706 0.04144 0.91757 0.0
H659 H 0.29439 0.07148 0.88599 0.0
H660 H 0.35642 0.20484 0.82044 0.0
H661 H 0.31162 0.15779 0.868 0.0
H662 H 0.65066 0.20302 0.87045 0.0
H663 H 0.60358 0.14802 0.91207 0.0
H664 H 0.64354 0.23049 0.80573 0.0
H665 H 0.59332 0.25378 0.77433 0.0
C666 C 0.0654 0.37524 0.89769 0.0
C667 C 1.04294 0.41901 0.90277 0.0
C668 C 0.9739 0.38067 0.83291 0.0
C669 C 0.99353 0.33482 0.82936 0.0
N670 N 1.04745 0.28255 0.86454 0.0
N671 N 0.96791 0.45781 0.87794 0.0
C672 C 1.03595 0.33035 0.8637 0.0
C673 C 0.99537 0.42038 0.87084 0.0
N674 N 0.11718 0.37769 0.92496 0.0
N675 N 0.93386 0.38605 0.79985 0.0
H676 H 0.98458 0.48853 0.90401 0.0
H677 H 0.92635 0.45657 0.85973 0.0
H678 H 0.90955 0.35404 0.77509 0.0
H679 H 0.92621 0.42283 0.79612 0.0
H680 H 0.14257 0.35236 0.92014 0.0
H681 H 0.13995 0.40948 0.94991 0.0
H682 H 0.07115 0.27285 0.89121 0.0
H683 H 1.02691 0.24887 0.84083 0.0
C684 C 0.65304 0.56991 0.8544 0.0
C685 C 0.72817 0.59166 0.8458 0.0
C686 C 0.73045 0.54741 0.91997 0.0
C687 C 0.66198 0.53987 0.93186 0.0
N688 N 0.55194 0.53147 0.909 0.0
N689 N 0.83634 0.59419 0.86914 0.0
C690 C 0.62105 0.54604 0.89803 0.0
C691 C 0.76588 0.57693 0.87777 0.0
N692 N 0.61164 0.5707 0.82047 0.0
N693 N 0.7611 0.52629 0.94939 0.0
H694 H 0.86386 0.61627 0.83918 0.0
H695 H 0.86845 0.58872 0.89225 0.0
H696 H 0.73542 0.50527 0.98015 0.0
H697 H 0.80744 0.52422 0.94153 0.0
H698 H 0.55614 0.55093 0.82275 0.0
H699 H 0.63201 0.58615 0.78803 0.0
H700 H 0.52029 0.54193 0.88898 0.0
H701 H 0.5269 0.50961 0.9397 0.0
C702 C 0.74812 0.80342 0.55329 0.0
C703 C 0.80715 0.82812 0.5217 0.0
C704 C 0.87749 0.81213 0.57937 0.0
C705 C 0.81368 0.77489 0.60566 0.0
N706 N 0.68409 0.72518 0.60928 0.0
N707 N 0.92936 0.85279 0.50433 0.0
C708 C 0.74788 0.76838 0.59059 0.0
C709 C 0.87267 0.83215 0.53473 0.0
N710 N 0.69012 0.8105 0.54603 0.0
N711 N 0.94248 0.83113 0.59767 0.0
H712 H 0.92862 0.86971 0.47225 0.0
H713 H 0.97537 0.8501 0.51037 0.0
H714 H 0.94683 0.82248 0.63155 0.0
H715 H 0.99065 0.86163 0.58128 0.0
H716 H 0.64781 0.79728 0.56982 0.0
H717 H 0.68824 0.83486 0.51824 0.0
H718 H 0.63471 0.71547 0.59666 0.0
H719 H 0.68059 0.69379 0.63314 0.0
C720 C 0.37265 0.04647 0.49067 0.0
C721 C 0.30217 0.99494 0.48784 0.0
C722 C 0.27057 1.02497 0.56108 0.0
C723 C 0.34301 0.0706 0.56608 0.0
N724 N 0.46528 0.11749 0.53776 0.0
N725 N 0.188 0.9316 0.52605 0.0
C726 C 0.39438 0.07907 0.53153 0.0
C727 C 0.25201 0.98351 0.52454 0.0
N728 N 0.41843 0.06821 0.45344 0.0
N729 N 0.21888 1.02209 0.59086 0.0
H730 H 0.17365 0.89921 0.50135 0.0
H731 H 0.15228 0.91784 0.55401 0.0
H732 H 0.23028 0.05252 0.61689 0.0
H733 H 0.16432 0.99386 0.58693 0.0
H734 H 0.46586 0.10898 0.45275 0.0
H735 H 0.40597 0.0516 0.42119 0.0
H736 H 0.50622 0.11785 0.51753 0.0
H737 H 0.48373 0.14625 0.56486 0.0
C738 C 1.05161 0.21536 0.55578 0.0
C739 C 0.98945 0.21695 0.5719 0.0
C740 C 1.00399 0.28406 0.50886 0.0
C741 C 0.06538 0.28216 0.48968 0.0
N742 N 0.14263 0.23842 0.49543 0.0
N743 N 0.89098 0.22961 0.55158 0.0
C744 C 0.08672 0.24426 0.51277 0.0
C745 C 0.9596 0.24159 0.54289 0.0
N746 N 0.0783 0.1881 0.58263 0.0
N747 N 0.99097 0.32971 0.49893 0.0
H748 H 0.85947 0.20028 0.57799 0.0
H749 H 0.86415 0.24349 0.52986 0.0
H750 H 1.0318 0.37197 0.4894 0.0
H751 H 0.94577 0.33114 0.5112 0.0
H752 H 0.12621 0.18827 0.57565 0.0
H753 H 1.05184 0.16586 0.61291 0.0
H754 H 0.15566 0.2069 0.50743 0.0
H755 H 0.17573 0.26457 0.4684 0.0
loop_
_geom_bond_atom_site_label_1
_geom_bond_atom_site_label_2
_geom_bond_distance
_geom_bond_site_symmetry_2
_ccdc_geom_bond_type
Co0 N5 2.057 1_554 S
Co0 O17 2.021 . S
Co0 O20 2.062 . S
Co0 O24 2.117 1_554 S
Co0 O25 2.020 1_455 S
C1 O21 1.259 . S
C1 O24 1.258 1_655 S
Co2 N11 2.057 . S
Co2 O18 2.117 . S
Co2 O19 2.020 1_655 S
Co2 O21 2.021 1_554 S
Co2 O26 2.062 . S
C3 N5 1.316 1_554 S
C3 N6 1.347 1_554 S
C3 H8 0.931 . S
C4 N5 1.375 . S
C4 C7 1.350 . S
C4 H9 0.930 . S
N5 Co0 2.057 1_556 S
N5 C3 1.316 1_556 S
N5 C4 1.375 . S
N6 C3 1.347 1_556 S
N6 C7 1.373 . S
C7 C4 1.350 . S
C7 N6 1.373 . S
C7 H28 0.931 . S
H8 C3 0.931 . S
H9 C4 0.930 . S
C10 O17 1.259 . S
C10 O18 1.258 1_455 S
N11 Co2 2.057 . S
N11 C12 1.316 1_554 S
N11 C13 1.375 . S
C12 N11 1.316 1_556 S
C12 N14 1.347 1_556 S
C12 H23 0.931 . S
C13 N11 1.375 . S
C13 C15 1.350 . S
C13 H22 0.930 . S
N14 C12 1.347 1_554 S
N14 C15 1.373 . S
C15 C13 1.350 . S
C15 N14 1.373 . S
C15 H29 0.931 . S
C16 O19 1.255 . S
C16 O20 1.256 . S
O17 Co0 2.021 . S
O17 C10 1.259 . S
O18 Co2 2.117 . S
O18 C10 1.258 1_655 S
O19 Co2 2.020 1_455 S
O19 C16 1.255 . S
O20 Co0 2.062 . S
O20 C16 1.256 . S
O21 C1 1.259 . S
O21 Co2 2.021 1_556 S
H22 C13 0.930 . S
H23 C12 0.931 . S
O24 Co0 2.117 1_556 S
O24 C1 1.258 1_455 S
O25 Co0 2.020 1_655 S
O25 C27 1.256 . S
O26 Co2 2.062 . S
O26 C27 1.255 . S
C27 O25 1.256 . S
C27 O26 1.255 . S
H28 C7 0.931 . S
H29 C15 0.931 . S
Co30 N35 2.057 . S
Co30 O47 2.021 1_554 S
Co30 O50 2.062 . S
Co30 O54 2.117 . S
Co30 O55 2.020 . S
C31 O51 1.259 . S
C31 O54 1.258 . S
Co32 N41 2.057 1_554 S
Co32 O48 2.117 1_554 S
Co32 O49 2.020 . S
Co32 O51 2.021 . S
Co32 O56 2.062 . S
C33 N35 1.316 . S
C33 N36 1.347 . S
C33 H38 0.931 1_554 S
C34 N35 1.375 . S
C34 C37 1.350 . S
C34 H39 0.930 . S
N35 Co30 2.057 . S
N35 C33 1.316 . S
N35 C34 1.375 . S
N36 C33 1.347 . S
N36 C37 1.373 . S
C37 C34 1.350 . S
C37 N36 1.373 . S
C37 H58 0.931 . S
H38 C33 0.931 1_556 S
H39 C34 0.930 . S
C40 O47 1.259 . S
C40 O48 1.258 . S
N41 Co32 2.057 1_556 S
N41 C42 1.316 1_556 S
N41 C43 1.375 . S
C42 N41 1.316 1_554 S
C42 N44 1.347 1_554 S
C42 H53 0.931 . S
C43 N41 1.375 . S
C43 C45 1.350 . S
C43 H52 0.930 . S
N44 C42 1.347 1_556 S
N44 C45 1.373 . S
C45 C43 1.350 . S
C45 N44 1.373 . S
C45 H59 0.931 . S
C46 O49 1.256 . S
C46 O50 1.255 . S
O47 Co30 2.021 1_556 S
O47 C40 1.259 . S
O48 Co32 2.117 1_556 S
O48 C40 1.258 . S
O49 Co32 2.020 . S
O49 C46 1.256 . S
O50 Co30 2.062 . S
O50 C46 1.255 . S
O51 C31 1.259 . S
O51 Co32 2.021 . S
H52 C43 0.930 . S
H53 C42 0.931 . S
O54 Co30 2.117 . S
O54 C31 1.258 . S
O55 Co30 2.020 . S
O55 C57 1.256 . S
O56 Co32 2.062 . S
O56 C57 1.255 . S
C57 O55 1.256 . S
C57 O56 1.255 . S
H58 C37 0.931 . S
H59 C45 0.931 . S
Co60 N65 2.057 1_554 S
Co60 O77 2.021 . S
Co60 O80 2.062 . S
Co60 O84 2.117 1_554 S
Co60 O85 2.020 1_565 S
C61 O81 1.259 . S
C61 O84 1.258 1_545 S
Co62 N71 2.057 . S
Co62 O78 2.117 . S
Co62 O79 2.019 1_544 S
Co62 O81 2.021 1_554 S
Co62 O86 2.062 . S
C63 N65 1.316 1_554 S
C63 N66 1.347 1_554 S
C63 H68 0.931 . S
C64 N65 1.375 . S
C64 C67 1.350 . S
C64 H69 0.930 . S
N65 Co60 2.057 1_556 S
N65 C63 1.316 1_556 S
N65 C64 1.375 . S
N66 C63 1.347 1_556 S
N66 C67 1.373 . S
C67 C64 1.350 . S
C67 N66 1.373 . S
C67 H88 0.931 . S
H68 C63 0.931 . S
H69 C64 0.930 . S
C70 O77 1.259 . S
C70 O78 1.258 1_565 S
N71 Co62 2.057 . S
N71 C72 1.316 1_554 S
N71 C73 1.375 . S
C72 N71 1.316 1_556 S
C72 N74 1.347 1_556 S
C72 H83 0.931 . S
C73 N71 1.375 . S
C73 C75 1.350 . S
C73 H82 0.930 . S
N74 C72 1.347 1_554 S
N74 C75 1.373 . S
C75 C73 1.350 . S
C75 N74 1.373 . S
C75 H89 0.931 . S
C76 O79 1.256 . S
C76 O80 1.255 1_556 S
O77 Co60 2.021 . S
O77 C70 1.259 . S
O78 Co62 2.117 . S
O78 C70 1.258 1_545 S
O79 Co62 2.019 1_566 S
O79 C76 1.256 . S
O80 Co60 2.062 . S
O80 C76 1.255 1_554 S
O81 C61 1.259 . S
O81 Co62 2.021 1_556 S
H82 C73 0.930 . S
H83 C72 0.931 . S
O84 Co60 2.117 1_556 S
O84 C61 1.258 1_565 S
O85 Co60 2.020 1_545 S
O85 C87 1.256 . S
O86 Co62 2.062 . S
O86 C87 1.255 . S
C87 O85 1.256 . S
C87 O86 1.255 . S
H88 C67 0.931 . S
H89 C75 0.931 . S
Co90 N95 2.057 . S
Co90 O107 2.021 . S
Co90 O110 2.062 . S
Co90 O114 2.117 . S
Co90 O115 2.020 . S
C91 O111 1.259 . S
C91 O114 1.258 . S
Co92 N101 2.057 . S
Co92 O108 2.117 . S
Co92 O109 2.020 . S
Co92 O111 2.021 . S
Co92 O116 2.062 . S
C93 N95 1.316 . S
C93 N96 1.347 1_565 S
C93 H98 0.931 . S
C94 N95 1.375 . S
C94 C97 1.350 1_565 S
C94 H99 0.930 . S
N95 Co90 2.057 . S
N95 C93 1.316 . S
N95 C94 1.375 . S
N96 C93 1.347 1_545 S
N96 C97 1.373 . S
C97 C94 1.350 1_545 S
C97 N96 1.373 . S
C97 H118 0.931 . S
H98 C93 0.931 . S
H99 C94 0.930 . S
C100 O107 1.259 . S
C100 O108 1.258 . S
N101 Co92 2.057 . S
N101 C102 1.316 . S
N101 C103 1.375 . S
C102 N101 1.316 . S
C102 N104 1.347 . S
C102 H113 0.931 . S
C103 N101 1.375 . S
C103 C105 1.350 . S
C103 H112 0.930 . S
N104 C102 1.347 . S
N104 C105 1.373 . S
C105 C103 1.350 . S
C105 N104 1.373 . S
C105 H119 0.931 . S
C106 O109 1.256 . S
C106 O110 1.255 . S
O107 Co90 2.021 . S
O107 C100 1.259 . S
O108 Co92 2.117 . S
O108 C100 1.258 . S
O109 Co92 2.020 . S
O109 C106 1.256 . S
O110 Co90 2.062 . S
O110 C106 1.255 . S
O111 C91 1.259 . S
O111 Co92 2.021 . S
H112 C103 0.930 . S
H113 C102 0.931 . S
O114 Co90 2.117 . S
O114 C91 1.258 . S
O115 Co90 2.020 . S
O115 C117 1.256 . S
O116 Co92 2.062 . S
O116 C117 1.255 . S
C117 O115 1.256 . S
C117 O116 1.255 . S
H118 C97 0.931 . S
H119 C105 0.931 . S
Co120 N125 2.057 . S
Co120 O137 2.021 . S
Co120 O140 2.062 . S
Co120 O144 2.117 . S
Co120 O145 2.020 . S
C121 O141 1.259 . S
C121 O144 1.258 . S
Co122 N131 2.057 . S
Co122 O138 2.117 . S
Co122 O139 2.020 . S
Co122 O141 2.021 . S
Co122 O146 2.062 . S
C123 N125 1.316 . S
C123 N126 1.347 1_455 S
C123 H128 0.931 . S
C124 N125 1.375 . S
C124 C127 1.350 1_455 S
C124 H129 0.930 . S
N125 Co120 2.057 . S
N125 C123 1.316 . S
N125 C124 1.375 . S
N126 C123 1.347 1_655 S
N126 C127 1.373 . S
C127 C124 1.350 1_655 S
C127 N126 1.373 . S
C127 H148 0.931 . S
H128 C123 0.931 . S
H129 C124 0.930 . S
C130 O137 1.259 . S
C130 O138 1.258 . S
N131 Co122 2.057 . S
N131 C132 1.316 . S
N131 C133 1.375 . S
C132 N131 1.316 . S
C132 N134 1.347 . S
C132 H143 0.931 . S
C133 N131 1.375 . S
C133 C135 1.350 . S
C133 H142 0.930 . S
N134 C132 1.347 . S
N134 C135 1.373 . S
C135 C133 1.350 . S
C135 N134 1.373 . S
C135 H149 0.931 . S
C136 O139 1.256 . S
C136 O140 1.255 . S
O137 Co120 2.021 . S
O137 C130 1.259 . S
O138 Co122 2.117 . S
O138 C130 1.258 . S
O139 Co122 2.020 . S
O139 C136 1.256 . S
O140 Co120 2.062 . S
O140 C136 1.255 . S
O141 C121 1.259 . S
O141 Co122 2.021 . S
H142 C133 0.930 . S
H143 C132 0.931 . S
O144 Co120 2.117 . S
O144 C121 1.258 . S
O145 Co120 2.020 . S
O145 C147 1.256 . S
O146 Co122 2.062 . S
O146 C147 1.255 . S
C147 O145 1.256 . S
C147 O146 1.255 . S
H148 C127 0.931 . S
H149 C135 0.931 . S
Co150 N155 2.057 . S
Co150 O167 2.021 . S
Co150 O170 2.062 . S
Co150 O174 2.117 . S
Co150 O175 2.020 . S
C151 O171 1.259 . S
C151 O174 1.258 . S
Co152 N161 2.057 . S
Co152 O168 2.117 . S
Co152 O169 2.020 1_455 S
Co152 O171 2.021 . S
Co152 O176 2.062 . S
C153 N155 1.316 . S
C153 N156 1.347 . S
C153 H158 0.931 . S
C154 N155 1.375 . S
C154 C157 1.350 . S
C154 H159 0.930 . S
N155 Co150 2.057 . S
N155 C153 1.316 . S
N155 C154 1.375 . S
N156 C153 1.347 . S
N156 C157 1.373 . S
C157 C154 1.350 . S
C157 N156 1.373 . S
C157 H178 0.931 . S
H158 C153 0.931 . S
H159 C154 0.930 . S
C160 O167 1.259 . S
C160 O168 1.258 . S
N161 Co152 2.057 . S
N161 C162 1.316 . S
N161 C163 1.375 . S
C162 N161 1.316 . S
C162 N164 1.347 . S
C162 H173 0.931 . S
C163 N161 1.375 . S
C163 C165 1.350 . S
C163 H172 0.930 . S
N164 C162 1.347 . S
N164 C165 1.373 . S
C165 C163 1.350 . S
C165 N164 1.373 . S
C165 H179 0.931 . S
C166 O169 1.256 . S
C166 O170 1.255 1_655 S
O167 Co150 2.021 . S
O167 C160 1.259 . S
O168 Co152 2.117 . S
O168 C160 1.258 . S
O169 Co152 2.020 1_655 S
O169 C166 1.256 . S
O170 Co150 2.062 . S
O170 C166 1.255 1_455 S
O171 C151 1.259 . S
O171 Co152 2.021 . S
H172 C163 0.930 . S
H173 C162 0.931 . S
O174 Co150 2.117 . S
O174 C151 1.258 . S
O175 Co150 2.020 . S
O175 C177 1.256 . S
O176 Co152 2.062 . S
O176 C177 1.255 . S
C177 O175 1.256 . S
C177 O176 1.255 . S
H178 C157 0.931 . S
H179 C165 0.931 . S
Co180 N185 2.057 . S
Co180 O197 2.021 . S
Co180 O200 2.062 . S
Co180 O204 2.117 . S
Co180 O205 2.020 . S
C181 O201 1.259 . S
C181 O204 1.258 . S
Co182 N191 2.057 1_545 S
Co182 O198 2.117 . S
Co182 O199 2.020 . S
Co182 O201 2.021 . S
Co182 O206 2.062 . S
C183 N185 1.316 . S
C183 N186 1.347 . S
C183 H188 0.931 . S
C184 N185 1.375 . S
C184 C187 1.350 . S
C184 H189 0.930 . S
N185 Co180 2.057 . S
N185 C183 1.316 . S
N185 C184 1.375 . S
N186 C183 1.347 . S
N186 C187 1.373 . S
C187 C184 1.350 . S
C187 N186 1.373 . S
C187 H208 0.931 . S
H188 C183 0.931 . S
H189 C184 0.930 . S
C190 O197 1.259 . S
C190 O198 1.258 . S
N191 Co182 2.057 1_565 S
N191 C192 1.316 . S
N191 C193 1.375 . S
C192 N191 1.316 . S
C192 N194 1.347 . S
C192 H203 0.931 . S
C193 N191 1.375 . S
C193 C195 1.350 . S
C193 H202 0.930 . S
N194 C192 1.347 . S
N194 C195 1.373 . S
C195 C193 1.350 . S
C195 N194 1.373 . S
C195 H209 0.931 . S
C196 O199 1.256 . S
C196 O200 1.255 . S
O197 Co180 2.021 . S
O197 C190 1.259 . S
O198 Co182 2.117 . S
O198 C190 1.258 . S
O199 Co182 2.020 . S
O199 C196 1.256 . S
O200 Co180 2.062 . S
O200 C196 1.255 . S
O201 C181 1.259 . S
O201 Co182 2.021 . S
H202 C193 0.930 . S
H203 C192 0.931 . S
O204 Co180 2.117 . S
O204 C181 1.258 . S
O205 Co180 2.020 . S
O205 C207 1.256 . S
O206 Co182 2.062 . S
O206 C207 1.255 . S
C207 O205 1.256 . S
C207 O206 1.255 . S
H208 C187 0.931 . S
H209 C195 0.931 . S
Co210 N215 2.057 . S
Co210 O227 2.021 . S
Co210 O230 2.062 . S
Co210 O234 2.117 . S
Co210 O235 2.020 . S
C211 O231 1.259 . S
C211 O234 1.258 . S
Co212 N221 2.057 . S
Co212 O228 2.117 . S
Co212 O229 2.020 1_655 S
Co212 O231 2.021 . S
Co212 O236 2.062 . S
C213 N215 1.316 . S
C213 N216 1.347 . S
C213 H218 0.931 . S
C214 N215 1.375 . S
C214 C217 1.350 . S
C214 H219 0.930 . S
N215 Co210 2.057 . S
N215 C213 1.316 . S
N215 C214 1.375 . S
N216 C213 1.347 . S
N216 C217 1.373 . S
C217 C214 1.350 . S
C217 N216 1.373 . S
C217 H238 0.931 1_545 S
H218 C213 0.931 . S
H219 C214 0.930 . S
C220 O227 1.259 . S
C220 O228 1.258 . S
N221 Co212 2.057 . S
N221 C222 1.316 . S
N221 C223 1.375 . S
C222 N221 1.316 . S
C222 N224 1.347 . S
C222 H233 0.931 . S
C223 N221 1.375 . S
C223 C225 1.350 . S
C223 H232 0.930 . S
N224 C222 1.347 . S
N224 C225 1.373 . S
C225 C223 1.350 . S
C225 N224 1.373 . S
C225 H239 0.931 . S
C226 O229 1.256 . S
C226 O230 1.255 1_455 S
O227 Co210 2.021 . S
O227 C220 1.259 . S
O228 Co212 2.117 . S
O228 C220 1.258 . S
O229 Co212 2.020 1_455 S
O229 C226 1.256 . S
O230 Co210 2.062 . S
O230 C226 1.255 1_655 S
O231 C211 1.259 . S
O231 Co212 2.021 . S
H232 C223 0.930 . S
H233 C222 0.931 . S
O234 Co210 2.117 . S
O234 C211 1.258 . S
O235 Co210 2.020 . S
O235 C237 1.256 . S
O236 Co212 2.062 . S
O236 C237 1.255 . S
C237 O235 1.256 . S
C237 O236 1.255 . S
H238 C217 0.931 1_565 S
H239 C225 0.931 . S
Co240 N245 2.057 . S
Co240 O257 2.021 . S
Co240 O260 2.062 . S
Co240 O264 2.117 . S
Co240 O265 2.020 . S
C241 O261 1.259 . S
C241 O264 1.258 . S
Co242 N251 2.057 . S
Co242 O258 2.117 . S
Co242 O259 2.020 . S
Co242 O261 2.021 . S
Co242 O266 2.062 . S
C243 N245 1.316 . S
C243 N246 1.347 . S
C243 H248 0.931 . S
C244 N245 1.375 . S
C244 C247 1.350 . S
C244 H249 0.930 . S
N245 Co240 2.057 . S
N245 C243 1.316 . S
N245 C244 1.375 . S
N246 C243 1.347 . S
N246 C247 1.373 . S
C247 C244 1.350 . S
C247 N246 1.373 . S
C247 H268 0.931 . S
H248 C243 0.931 . S
H249 C244 0.930 . S
C250 O257 1.259 . S
C250 O258 1.258 . S
N251 Co242 2.057 . S
N251 C252 1.316 . S
N251 C253 1.375 . S
C252 N251 1.316 . S
C252 N254 1.347 . S
C252 H263 0.931 . S
C253 N251 1.375 . S
C253 C255 1.350 . S
C253 H262 0.930 . S
N254 C252 1.347 . S
N254 C255 1.373 . S
C255 C253 1.350 . S
C255 N254 1.373 . S
C255 H269 0.931 . S
C256 O259 1.256 . S
C256 O260 1.255 . S
O257 Co240 2.021 . S
O257 C250 1.259 . S
O258 Co242 2.117 . S
O258 C250 1.258 . S
O259 Co242 2.020 . S
O259 C256 1.256 . S
O260 Co240 2.062 . S
O260 C256 1.255 . S
O261 C241 1.259 . S
O261 Co242 2.021 . S
H262 C253 0.930 . S
H263 C252 0.931 . S
O264 Co240 2.117 . S
O264 C241 1.258 . S
O265 Co240 2.020 . S
O265 C267 1.256 . S
O266 Co242 2.062 . S
O266 C267 1.255 . S
C267 O265 1.256 . S
C267 O266 1.255 . S
H268 C247 0.931 . S
H269 C255 0.931 . S
C270 C271 1.363 . S
C270 C276 1.379 . S
C270 N278 1.356 . S
C271 C270 1.363 . S
C271 C277 1.363 1_554 S
C272 C273 1.363 . S
C272 C277 1.379 . S
C272 N279 1.356 . S
C273 C272 1.363 . S
C273 C276 1.363 1_556 S
N274 C276 1.356 . S
N274 H286 0.984 . S
N274 H287 0.985 . S
N275 C277 1.356 . S
N275 H280 0.984 . S
N275 H281 0.985 . S
C276 C270 1.379 . S
C276 C273 1.363 1_554 S
C276 N274 1.356 . S
C277 C271 1.363 1_556 S
C277 C272 1.379 . S
C277 N275 1.356 . S
N278 C270 1.356 . S
N278 H284 0.984 . S
N278 H285 0.984 . S
N279 C272 1.356 . S
N279 H282 0.984 . S
N279 H283 0.985 . S
H280 N275 0.984 . S
H281 N275 0.985 . S
H282 N279 0.984 . S
H283 N279 0.985 . S
H284 N278 0.984 . S
H285 N278 0.984 . S
H286 N274 0.984 . S
H287 N274 0.985 . S
C288 C289 1.363 . S
C288 C294 1.379 . S
C288 N296 1.356 . S
C289 C288 1.363 . S
C289 C295 1.363 . S
C290 C291 1.363 . S
C290 C295 1.379 . S
C290 N297 1.356 . S
C291 C290 1.363 . S
C291 C294 1.363 . S
N292 C294 1.356 . S
N292 H304 0.984 . S
N292 H305 0.985 . S
N293 C295 1.356 . S
N293 H298 0.984 . S
N293 H299 0.985 . S
C294 C288 1.379 . S
C294 C291 1.363 . S
C294 N292 1.356 . S
C295 C289 1.363 . S
C295 C290 1.379 . S
C295 N293 1.356 . S
N296 C288 1.356 . S
N296 H302 0.984 . S
N296 H303 0.984 . S
N297 C290 1.356 . S
N297 H300 0.984 . S
N297 H301 0.985 . S
H298 N293 0.984 . S
H299 N293 0.985 . S
H300 N297 0.984 . S
H301 N297 0.985 . S
H302 N296 0.984 . S
H303 N296 0.984 . S
H304 N292 0.984 . S
H305 N292 0.985 . S
C306 C307 1.363 1_554 S
C306 C312 1.379 . S
C306 N314 1.356 . S
C307 C306 1.363 1_556 S
C307 C313 1.363 . S
C308 C309 1.363 . S
C308 C313 1.379 . S
C308 N315 1.356 . S
C309 C308 1.363 . S
C309 C312 1.363 1_556 S
N310 C312 1.356 . S
N310 H322 0.984 . S
N310 H323 0.985 . S
N311 C313 1.356 . S
N311 H316 0.984 . S
N311 H317 0.985 . S
C312 C306 1.379 . S
C312 C309 1.363 1_554 S
C312 N310 1.356 . S
C313 C307 1.363 . S
C313 C308 1.379 . S
C313 N311 1.356 . S
N314 C306 1.356 . S
N314 H320 0.984 . S
N314 H321 0.984 . S
N315 C308 1.356 . S
N315 H318 0.984 . S
N315 H319 0.985 . S
H316 N311 0.984 . S
H317 N311 0.985 . S
H318 N315 0.984 . S
H319 N315 0.985 . S
H320 N314 0.984 . S
H321 N314 0.984 . S
H322 N310 0.984 . S
H323 N310 0.985 . S
C324 C325 1.363 . S
C324 C330 1.379 . S
C324 N332 1.356 . S
C325 C324 1.363 . S
C325 C331 1.363 1_554 S
C326 C327 1.363 1_556 S
C326 C331 1.379 . S
C326 N333 1.356 . S
C327 C326 1.363 1_554 S
C327 C330 1.363 . S
N328 C330 1.356 . S
N328 H340 0.984 . S
N328 H341 0.985 . S
N329 C331 1.356 . S
N329 H334 0.984 . S
N329 H335 0.985 . S
C330 C324 1.379 . S
C330 C327 1.363 . S
C330 N328 1.356 . S
C331 C325 1.363 1_556 S
C331 C326 1.379 . S
C331 N329 1.356 . S
N332 C324 1.356 . S
N332 H338 0.984 . S
N332 H339 0.984 . S
N333 C326 1.356 . S
N333 H336 0.984 . S
N333 H337 0.985 . S
H334 N329 0.984 . S
H335 N329 0.985 . S
H336 N333 0.984 . S
H337 N333 0.985 . S
H338 N332 0.984 . S
H339 N332 0.984 . S
H340 N328 0.984 . S
H341 N328 0.985 . S
C342 C343 1.363 1_556 S
C342 C348 1.379 . S
C342 N350 1.356 . S
C343 C342 1.363 1_554 S
C343 C349 1.363 . S
C344 C345 1.363 . S
C344 C349 1.379 . S
C344 N351 1.356 . S
C345 C344 1.363 . S
C345 C348 1.363 1_554 S
N346 C348 1.356 . S
N346 H358 0.984 . S
N346 H359 0.985 . S
N347 C349 1.356 . S
N347 H352 0.984 . S
N347 H353 0.985 . S
C348 C342 1.379 . S
C348 C345 1.363 1_556 S
C348 N346 1.356 . S
C349 C343 1.363 . S
C349 C344 1.379 . S
C349 N347 1.356 . S
N350 C342 1.356 . S
N350 H356 0.984 . S
N350 H357 0.984 . S
N351 C344 1.356 . S
N351 H354 0.984 . S
N351 H355 0.985 . S
H352 N347 0.984 . S
H353 N347 0.985 . S
H354 N351 0.984 . S
H355 N351 0.985 . S
H356 N350 0.984 . S
H357 N350 0.984 . S
H358 N346 0.984 . S
H359 N346 0.985 . S
C360 C361 1.363 . S
C360 C366 1.379 . S
C360 N368 1.356 . S
C361 C360 1.363 . S
C361 C367 1.363 1_554 S
C362 C363 1.363 1_556 S
C362 C367 1.379 . S
C362 N369 1.356 . S
C363 C362 1.363 1_554 S
C363 C366 1.363 . S
N364 C366 1.356 . S
N364 H376 0.984 . S
N364 H377 0.985 . S
N365 C367 1.356 . S
N365 H370 0.984 . S
N365 H371 0.985 . S
C366 C360 1.379 . S
C366 C363 1.363 . S
C366 N364 1.356 . S
C367 C361 1.363 1_556 S
C367 C362 1.379 . S
C367 N365 1.356 . S
N368 C360 1.356 . S
N368 H374 0.984 . S
N368 H375 0.984 . S
N369 C362 1.356 . S
N369 H372 0.984 . S
N369 H373 0.985 . S
H370 N365 0.984 . S
H371 N365 0.985 . S
H372 N369 0.984 . S
H373 N369 0.985 . S
H374 N368 0.984 . S
H375 N368 0.984 . S
H376 N364 0.984 . S
H377 N364 0.985 . S
C378 C379 1.363 . S
C378 C384 1.379 . S
C378 N386 1.356 . S
C379 C378 1.363 . S
C379 C385 1.363 . S
C380 C381 1.363 . S
C380 C385 1.379 . S
C380 N387 1.356 . S
C381 C380 1.363 . S
C381 C384 1.363 . S
N382 C384 1.356 . S
N382 H394 0.984 . S
N382 H395 0.985 1_655 S
N383 C385 1.356 . S
N383 H388 0.984 . S
N383 H389 0.985 . S
C384 C378 1.379 . S
C384 C381 1.363 . S
C384 N382 1.356 . S
C385 C379 1.363 . S
C385 C380 1.379 . S
C385 N383 1.356 . S
N386 C378 1.356 . S
N386 H392 0.984 . S
N386 H393 0.984 . S
N387 C380 1.356 . S
N387 H390 0.984 . S
N387 H391 0.985 . S
H388 N383 0.984 . S
H389 N383 0.985 . S
H390 N387 0.984 . S
H391 N387 0.985 . S
H392 N386 0.984 . S
H393 N386 0.984 . S
H394 N382 0.984 . S
H395 N382 0.985 1_455 S
C396 C397 1.363 . S
C396 C402 1.379 . S
C396 N404 1.356 . S
C397 C396 1.363 . S
C397 C403 1.363 . S
C398 C399 1.363 . S
C398 C403 1.379 . S
C398 N405 1.356 . S
C399 C398 1.363 . S
C399 C402 1.363 . S
N400 C402 1.356 . S
N400 H412 0.984 . S
N400 H413 0.985 . S
N401 C403 1.356 . S
N401 H406 0.984 . S
N401 H407 0.985 . S
C402 C396 1.379 . S
C402 C399 1.363 . S
C402 N400 1.356 . S
C403 C397 1.363 . S
C403 C398 1.379 . S
C403 N401 1.356 . S
N404 C396 1.356 . S
N404 H410 0.984 . S
N404 H411 0.984 . S
N405 C398 1.356 . S
N405 H408 0.984 1_545 S
N405 H409 0.985 1_545 S
H406 N401 0.984 . S
H407 N401 0.985 . S
H408 N405 0.984 1_565 S
H409 N405 0.985 1_565 S
H410 N404 0.984 . S
H411 N404 0.984 . S
H412 N400 0.984 . S
H413 N400 0.985 . S
C414 C415 1.363 . S
C414 C420 1.379 . S
C414 N422 1.356 . S
C415 C414 1.363 . S
C415 C421 1.363 . S
C416 C417 1.363 . S
C416 C421 1.379 . S
C416 N423 1.356 . S
C417 C416 1.363 . S
C417 C420 1.363 . S
N418 C420 1.356 . S
N418 H430 0.984 . S
N418 H431 0.985 . S
N419 C421 1.356 1_455 S
N419 H424 0.984 . S
N419 H425 0.985 . S
C420 C414 1.379 . S
C420 C417 1.363 . S
C420 N418 1.356 . S
C421 C415 1.363 . S
C421 C416 1.379 . S
C421 N419 1.356 1_655 S
N422 C414 1.356 . S
N422 H428 0.984 . S
N422 H429 0.984 . S
N423 C416 1.356 . S
N423 H426 0.984 . S
N423 H427 0.985 . S
H424 N419 0.984 . S
H425 N419 0.985 . S
H426 N423 0.984 . S
H427 N423 0.985 . S
H428 N422 0.984 . S
H429 N422 0.984 . S
H430 N418 0.984 . S
H431 N418 0.985 . S
C432 C433 1.363 . S
C432 C438 1.379 . S
C432 N440 1.356 . S
C433 C432 1.363 . S
C433 C439 1.363 . S
C434 C435 1.363 . S
C434 C439 1.379 . S
C434 N441 1.356 . S
C435 C434 1.363 . S
C435 C438 1.363 . S
N436 C438 1.356 . S
N436 H448 0.984 . S
N436 H449 0.985 . S
N437 C439 1.356 . S
N437 H442 0.984 . S
N437 H443 0.985 . S
C438 C432 1.379 . S
C438 C435 1.363 . S
C438 N436 1.356 . S
C439 C433 1.363 . S
C439 C434 1.379 . S
C439 N437 1.356 . S
N440 C432 1.356 . S
N440 H446 0.984 . S
N440 H447 0.984 . S
N441 C434 1.356 . S
N441 H444 0.984 1_455 S
N441 H445 0.985 1_455 S
H442 N437 0.984 . S
H443 N437 0.985 . S
H444 N441 0.984 1_655 S
H445 N441 0.985 1_655 S
H446 N440 0.984 . S
H447 N440 0.984 . S
H448 N436 0.984 . S
H449 N436 0.985 . S
C450 C451 1.363 . S
C450 C456 1.379 . S
C450 N458 1.356 . S
C451 C450 1.363 . S
C451 C457 1.363 . S
C452 C453 1.363 . S
C452 C457 1.379 . S
C452 N459 1.356 . S
C453 C452 1.363 . S
C453 C456 1.363 . S
N454 C456 1.356 . S
N454 H466 0.984 . S
N454 H467 0.985 . S
N455 C457 1.356 . S
N455 H460 0.984 . S
N455 H461 0.985 . S
C456 C450 1.379 . S
C456 C453 1.363 . S
C456 N454 1.356 . S
C457 C451 1.363 . S
C457 C452 1.379 . S
C457 N455 1.356 . S
N458 C450 1.356 . S
N458 H464 0.984 . S
N458 H465 0.984 . S
N459 C452 1.356 . S
N459 H462 0.984 . S
N459 H463 0.985 . S
H460 N455 0.984 . S
H461 N455 0.985 . S
H462 N459 0.984 . S
H463 N459 0.985 . S
H464 N458 0.984 . S
H465 N458 0.984 . S
H466 N454 0.984 . S
H467 N454 0.985 . S
C468 C469 1.363 . S
C468 C474 1.379 . S
C468 N476 1.356 . S
C469 C468 1.363 . S
C469 C475 1.363 . S
C470 C471 1.363 . S
C470 C475 1.379 . S
C470 N477 1.356 . S
C471 C470 1.363 . S
C471 C474 1.363 . S
N472 C474 1.356 . S
N472 H484 0.984 . S
N472 H485 0.985 . S
N473 C475 1.356 . S
N473 H478 0.984 . S
N473 H479 0.985 . S
C474 C468 1.379 . S
C474 C471 1.363 . S
C474 N472 1.356 . S
C475 C469 1.363 . S
C475 C470 1.379 . S
C475 N473 1.356 . S
N476 C468 1.356 . S
N476 H482 0.984 . S
N476 H483 0.984 . S
N477 C470 1.356 . S
N477 H480 0.984 . S
N477 H481 0.985 . S
H478 N473 0.984 . S
H479 N473 0.985 . S
H480 N477 0.984 . S
H481 N477 0.985 . S
H482 N476 0.984 . S
H483 N476 0.984 . S
H484 N472 0.984 . S
H485 N472 0.985 . S
C486 C487 1.363 . S
C486 C492 1.379 . S
C486 N494 1.356 . S
C487 C486 1.363 . S
C487 C493 1.363 . S
C488 C489 1.363 . S
C488 C493 1.379 . S
C488 N495 1.356 . S
C489 C488 1.363 . S
C489 C492 1.363 . S
N490 C492 1.356 . S
N490 H502 0.984 . S
N490 H503 0.985 . S
N491 C493 1.356 . S
N491 H496 0.984 . S
N491 H497 0.985 . S
C492 C486 1.379 . S
C492 C489 1.363 . S
C492 N490 1.356 . S
C493 C487 1.363 . S
C493 C488 1.379 . S
C493 N491 1.356 . S
N494 C486 1.356 . S
N494 H500 0.984 . S
N494 H501 0.984 . S
N495 C488 1.356 . S
N495 H498 0.984 . S
N495 H499 0.985 . S
H496 N491 0.984 . S
H497 N491 0.985 . S
H498 N495 0.984 . S
H499 N495 0.985 . S
H500 N494 0.984 . S
H501 N494 0.984 . S
H502 N490 0.984 . S
H503 N490 0.985 . S
C504 C505 1.363 . S
C504 C510 1.379 . S
C504 N512 1.356 . S
C505 C504 1.363 . S
C505 C511 1.363 . S
C506 C507 1.363 . S
C506 C511 1.379 . S
C506 N513 1.356 . S
C507 C506 1.363 . S
C507 C510 1.363 . S
N508 C510 1.356 . S
N508 H520 0.984 . S
N508 H521 0.985 . S
N509 C511 1.356 1_455 S
N509 H514 0.984 . S
N509 H515 0.985 . S
C510 C504 1.379 . S
C510 C507 1.363 . S
C510 N508 1.356 . S
C511 C505 1.363 . S
C511 C506 1.379 . S
C511 N509 1.356 1_655 S
N512 C504 1.356 . S
N512 H518 0.984 . S
N512 H519 0.984 . S
N513 C506 1.356 . S
N513 H516 0.984 . S
N513 H517 0.985 . S
H514 N509 0.984 . S
H515 N509 0.985 . S
H516 N513 0.984 . S
H517 N513 0.985 . S
H518 N512 0.984 . S
H519 N512 0.984 . S
H520 N508 0.984 . S
H521 N508 0.985 . S
C522 C523 1.363 . S
C522 C528 1.379 . S
C522 N530 1.356 . S
C523 C522 1.363 . S
C523 C529 1.363 . S
C524 C525 1.363 . S
C524 C529 1.379 . S
C524 N531 1.356 . S
C525 C524 1.363 . S
C525 C528 1.363 . S
N526 C528 1.356 . S
N526 H538 0.984 . S
N526 H539 0.985 . S
N527 C529 1.356 . S
N527 H532 0.984 . S
N527 H533 0.985 . S
C528 C522 1.379 . S
C528 C525 1.363 . S
C528 N526 1.356 . S
C529 C523 1.363 . S
C529 C524 1.379 . S
C529 N527 1.356 . S
N530 C522 1.356 . S
N530 H536 0.984 . S
N530 H537 0.984 . S
N531 C524 1.356 . S
N531 H534 0.984 . S
N531 H535 0.985 . S
H532 N527 0.984 . S
H533 N527 0.985 . S
H534 N531 0.984 . S
H535 N531 0.985 . S
H536 N530 0.984 . S
H537 N530 0.984 . S
H538 N526 0.984 . S
H539 N526 0.985 . S
C540 C541 1.363 . S
C540 C546 1.379 . S
C540 N548 1.356 . S
C541 C540 1.363 . S
C541 C547 1.363 . S
C542 C543 1.363 . S
C542 C547 1.379 . S
C542 N549 1.356 . S
C543 C542 1.363 . S
C543 C546 1.363 . S
N544 C546 1.346 1_545 S
N544 H556 0.990 . S
N544 H557 0.989 . S
N545 C547 1.356 . S
N545 H550 0.984 . S
N545 H551 0.985 . S
C546 C540 1.379 . S
C546 C543 1.363 . S
C546 N544 1.346 1_565 S
C547 C541 1.363 . S
C547 C542 1.379 . S
C547 N545 1.356 . S
N548 C540 1.356 . S
N548 H554 0.984 . S
N548 H555 0.984 . S
N549 C542 1.356 . S
N549 H552 0.984 . S
N549 H553 0.985 . S
H550 N545 0.984 . S
H551 N545 0.985 . S
H552 N549 0.984 . S
H553 N549 0.985 . S
H554 N548 0.984 . S
H555 N548 0.984 . S
H556 N544 0.990 . S
H557 N544 0.989 . S
C558 C559 1.363 . S
C558 C564 1.379 1_655 S
C558 N566 1.356 . S
C559 C558 1.363 . S
C559 C565 1.363 . S
C560 C561 1.363 . S
C560 C565 1.379 1_455 S
C560 N567 1.356 . S
C561 C560 1.363 . S
C561 C564 1.363 . S
N562 C564 1.356 . S
N562 H574 0.984 . S
N562 H575 0.985 . S
N563 C565 1.356 . S
N563 H568 0.984 . S
N563 H569 0.985 . S
C564 C558 1.379 1_455 S
C564 C561 1.363 . S
C564 N562 1.356 . S
C565 C559 1.363 . S
C565 C560 1.379 1_655 S
C565 N563 1.356 . S
N566 C558 1.356 . S
N566 H572 0.984 . S
N566 H573 0.984 . S
N567 C560 1.356 . S
N567 H570 0.984 . S
N567 H571 0.985 . S
H568 N563 0.984 . S
H569 N563 0.985 . S
H570 N567 0.984 . S
H571 N567 0.985 . S
H572 N566 0.984 . S
H573 N566 0.984 . S
H574 N562 0.984 . S
H575 N562 0.985 . S
C576 C577 1.363 . S
C576 C582 1.379 . S
C576 N584 1.356 . S
C577 C576 1.363 . S
C577 C583 1.363 . S
C578 C579 1.363 . S
C578 C583 1.379 . S
C578 N585 1.356 . S
C579 C578 1.363 . S
C579 C582 1.363 . S
N580 C582 1.356 . S
N580 H592 0.984 . S
N580 H593 0.985 . S
N581 C583 1.356 . S
N581 H586 0.984 . S
N581 H587 0.985 . S
C582 C576 1.379 . S
C582 C579 1.363 . S
C582 N580 1.356 . S
C583 C577 1.363 . S
C583 C578 1.379 . S
C583 N581 1.356 . S
N584 C576 1.356 . S
N584 H590 0.984 . S
N584 H591 0.984 . S
N585 C578 1.356 . S
N585 H588 0.984 . S
N585 H589 0.985 . S
H586 N581 0.984 . S
H587 N581 0.985 . S
H588 N585 0.984 . S
H589 N585 0.985 . S
H590 N584 0.984 . S
H591 N584 0.984 . S
H592 N580 0.984 . S
H593 N580 0.985 . S
C594 C595 1.363 . S
C594 C600 1.379 . S
C594 N602 1.356 . S
C595 C594 1.363 . S
C595 C601 1.363 . S
C596 C597 1.363 . S
C596 C601 1.379 . S
C596 N603 1.356 . S
C597 C596 1.363 . S
C597 C600 1.363 . S
N598 C600 1.356 . S
N598 H610 0.984 . S
N598 H611 0.985 . S
N599 C601 1.356 . S
N599 H604 0.984 . S
N599 H605 0.985 . S
C600 C594 1.379 . S
C600 C597 1.363 . S
C600 N598 1.356 . S
C601 C595 1.363 . S
C601 C596 1.379 . S
C601 N599 1.356 . S
N602 C594 1.356 . S
N602 H608 0.984 . S
N602 H609 0.984 . S
N603 C596 1.356 . S
N603 H606 0.984 1_455 S
N603 H607 0.985 1_455 S
H604 N599 0.984 . S
H605 N599 0.985 . S
H606 N603 0.984 1_655 S
H607 N603 0.985 1_655 S
H608 N602 0.984 . S
H609 N602 0.984 . S
H610 N598 0.984 . S
H611 N598 0.985 . S
C612 C613 1.363 . S
C612 C618 1.379 . S
C612 N620 1.356 . S
C613 C612 1.363 . S
C613 C619 1.363 . S
C614 C615 1.363 . S
C614 C619 1.379 . S
C614 N621 1.356 . S
C615 C614 1.363 . S
C615 C618 1.363 . S
N616 C618 1.356 . S
N616 H628 0.984 . S
N616 H629 0.985 . S
N617 C619 1.356 . S
N617 H622 0.984 . S
N617 H623 0.985 . S
C618 C612 1.379 . S
C618 C615 1.363 . S
C618 N616 1.356 . S
C619 C613 1.363 . S
C619 C614 1.379 . S
C619 N617 1.356 . S
N620 C612 1.356 . S
N620 H626 0.984 . S
N620 H627 0.984 . S
N621 C614 1.356 . S
N621 H624 0.984 . S
N621 H625 0.985 . S
H622 N617 0.984 . S
H623 N617 0.985 . S
H624 N621 0.984 . S
H625 N621 0.985 . S
H626 N620 0.984 . S
H627 N620 0.984 . S
H628 N616 0.984 . S
H629 N616 0.985 . S
C630 C631 1.363 . S
C630 C636 1.379 . S
C630 N638 1.356 . S
C631 C630 1.363 . S
C631 C637 1.363 . S
C632 C633 1.363 . S
C632 C637 1.379 . S
C632 N639 1.356 . S
C633 C632 1.363 . S
C633 C636 1.363 . S
N634 C636 1.356 . S
N634 H646 0.984 . S
N634 H647 0.985 . S
N635 C637 1.356 . S
N635 H640 0.984 . S
N635 H641 0.985 . S
C636 C630 1.379 . S
C636 C633 1.363 . S
C636 N634 1.356 . S
C637 C631 1.363 . S
C637 C632 1.379 . S
C637 N635 1.356 . S
N638 C630 1.356 . S
N638 H644 0.984 . S
N638 H645 0.984 . S
N639 C632 1.356 . S
N639 H642 0.984 . S
N639 H643 0.985 . S
H640 N635 0.984 . S
H641 N635 0.985 . S
H642 N639 0.984 . S
H643 N639 0.985 . S
H644 N638 0.984 . S
H645 N638 0.984 . S
H646 N634 0.984 . S
H647 N634 0.985 . S
C648 C649 1.363 . S
C648 C654 1.379 . S
C648 N656 1.356 . S
C649 C648 1.363 . S
C649 C655 1.363 . S
C650 C651 1.363 . S
C650 C655 1.379 . S
C650 N657 1.356 . S
C651 C650 1.363 . S
C651 C654 1.363 . S
N652 C654 1.356 . S
N652 H664 0.984 . S
N652 H665 0.985 . S
N653 C655 1.356 . S
N653 H658 0.984 1_545 S
N653 H659 0.985 1_545 S
C654 C648 1.379 . S
C654 C651 1.363 . S
C654 N652 1.356 . S
C655 C649 1.363 . S
C655 C650 1.379 . S
C655 N653 1.356 . S
N656 C648 1.356 . S
N656 H662 0.984 . S
N656 H663 0.984 . S
N657 C650 1.356 . S
N657 H660 0.984 . S
N657 H661 0.985 . S
H658 N653 0.984 1_565 S
H659 N653 0.985 1_565 S
H660 N657 0.984 . S
H661 N657 0.985 . S
H662 N656 0.984 . S
H663 N656 0.984 . S
H664 N652 0.984 . S
H665 N652 0.985 . S
C666 C667 1.363 . S
C666 C672 1.379 . S
C666 N674 1.356 . S
C667 C666 1.363 . S
C667 C673 1.363 . S
C668 C669 1.363 . S
C668 C673 1.379 . S
C668 N675 1.356 . S
C669 C668 1.363 . S
C669 C672 1.363 . S
N670 C672 1.356 . S
N670 H682 0.984 . S
N670 H683 0.985 . S
N671 C673 1.356 . S
N671 H676 0.984 . S
N671 H677 0.985 . S
C672 C666 1.379 . S
C672 C669 1.363 . S
C672 N670 1.356 . S
C673 C667 1.363 . S
C673 C668 1.379 . S
C673 N671 1.356 . S
N674 C666 1.356 . S
N674 H680 0.984 1_655 S
N674 H681 0.984 1_655 S
N675 C668 1.356 . S
N675 H678 0.984 . S
N675 H679 0.985 . S
H676 N671 0.984 . S
H677 N671 0.985 . S
H678 N675 0.984 . S
H679 N675 0.985 . S
H680 N674 0.984 1_455 S
H681 N674 0.984 1_455 S
H682 N670 0.984 . S
H683 N670 0.985 . S
C684 C685 1.363 . S
C684 C690 1.379 . S
C684 N692 1.356 . S
C685 C684 1.363 . S
C685 C691 1.363 . S
C686 C687 1.363 . S
C686 C691 1.379 . S
C686 N693 1.356 . S
C687 C686 1.363 . S
C687 C690 1.363 . S
N688 C690 1.356 . S
N688 H700 0.984 . S
N688 H701 0.985 . S
N689 C691 1.356 . S
N689 H694 0.984 . S
N689 H695 0.985 . S
C690 C684 1.379 . S
C690 C687 1.363 . S
C690 N688 1.356 . S
C691 C685 1.363 . S
C691 C686 1.379 . S
C691 N689 1.356 . S
N692 C684 1.356 . S
N692 H698 0.984 . S
N692 H699 0.984 . S
N693 C686 1.356 . S
N693 H696 0.984 . S
N693 H697 0.985 . S
H694 N689 0.984 . S
H695 N689 0.985 . S
H696 N693 0.984 . S
H697 N693 0.985 . S
H698 N692 0.984 . S
H699 N692 0.984 . S
H700 N688 0.984 . S
H701 N688 0.985 . S
C702 C703 1.363 . S
C702 C708 1.379 . S
C702 N710 1.356 . S
C703 C702 1.363 . S
C703 C709 1.363 . S
C704 C705 1.363 . S
C704 C709 1.379 . S
C704 N711 1.356 . S
C705 C704 1.363 . S
C705 C708 1.363 . S
N706 C708 1.356 . S
N706 H718 0.984 . S
N706 H719 0.985 . S
N707 C709 1.356 . S
N707 H712 0.984 . S
N707 H713 0.985 . S
C708 C702 1.379 . S
C708 C705 1.363 . S
C708 N706 1.356 . S
C709 C703 1.363 . S
C709 C704 1.379 . S
C709 N707 1.356 . S
N710 C702 1.356 . S
N710 H716 0.984 . S
N710 H717 0.984 . S
N711 C704 1.356 . S
N711 H714 0.984 . S
N711 H715 0.985 . S
H712 N707 0.984 . S
H713 N707 0.985 . S
H714 N711 0.984 . S
H715 N711 0.985 . S
H716 N710 0.984 . S
H717 N710 0.984 . S
H718 N706 0.984 . S
H719 N706 0.985 . S
C720 C721 1.363 1_545 S
C720 C726 1.379 . S
C720 N728 1.356 1_545 S
C721 C720 1.363 1_565 S
C721 C727 1.363 . S
C722 C723 1.363 . S
C722 C727 1.379 1_545 S
C722 N729 1.356 . S
C723 C722 1.363 . S
C723 C726 1.363 . S
N724 C726 1.356 . S
N724 H736 0.984 . S
N724 H737 0.985 . S
N725 C727 1.356 . S
N725 H730 0.984 . S
N725 H731 0.985 . S
C726 C720 1.379 . S
C726 C723 1.363 . S
C726 N724 1.356 . S
C727 C721 1.363 . S
C727 C722 1.379 1_565 S
C727 N725 1.356 . S
N728 C720 1.356 1_565 S
N728 H734 0.984 1_565 S
N728 H735 0.984 . S
N729 C722 1.356 . S
N729 H732 0.984 . S
N729 H733 0.985 1_545 S
H730 N725 0.984 . S
H731 N725 0.985 . S
H732 N729 0.984 . S
H733 N729 0.985 1_565 S
H734 N728 0.984 1_545 S
H735 N728 0.984 . S
H736 N724 0.984 . S
H737 N724 0.985 . S
C738 C739 1.363 . S
C738 C744 1.379 1_655 S
C738 N746 1.356 . S
C739 C738 1.363 . S
C739 C745 1.363 . S
C740 C741 1.363 . S
C740 C745 1.379 1_455 S
C740 N747 1.356 . S
C741 C740 1.363 . S
C741 C744 1.363 . S
N742 C744 1.356 . S
N742 H754 0.984 . S
N742 H755 0.985 . S
N743 C745 1.356 . S
N743 H748 0.984 . S
N743 H749 0.985 . S
C744 C738 1.379 1_455 S
C744 C741 1.363 . S
C744 N742 1.356 . S
C745 C739 1.363 . S
C745 C740 1.379 1_655 S
C745 N743 1.356 . S
N746 C738 1.356 . S
N746 H752 1.000 . S
N746 H753 0.984 . S
N747 C740 1.356 . S
N747 H750 0.984 . S
N747 H751 0.985 . S
H748 N743 0.984 . S
H749 N743 0.985 . S
H750 N747 0.984 . S
H751 N747 0.985 . S
H752 N746 1.000 . S
H753 N746 0.984 . S
H754 N742 0.984 . S
H755 N742 0.985 . S
C271 C57 1.964 . S
C273 C16 1.912 1_556 S
C289 N66 0.691 . S
C291 N44 0.689 . S
C307 C76 1.370 . S
C309 N6 1.396 . S
C325 N74 0.913 . S
C327 N36 0.909 . S
C343 C87 1.181 . S
C345 N14 1.160 . S
C361 C27 2.226 . S
C363 C46 2.147 . S
C379 C106 0.646 . S
C381 N126 0.647 . S
C397 N156 1.561 . S
C399 C136 1.543 1_545 S
C415 C166 1.427 . S
C417 N96 1.451 . S
C433 C147 2.128 . S
C435 N164 2.066 . S
C451 C177 1.068 . S
C453 N104 1.051 . S
C469 N134 1.287 . S
C471 C117 1.306 . S
C487 C237 1.989 . S
C489 C196 1.937 . S
C505 N224 0.690 . S
C507 N246 0.692 . S
C523 C256 1.364 . S
C525 N186 1.390 . S
C541 N254 0.923 . S
C543 N216 0.918 1_565 S
C559 C267 1.164 . S
C561 N194 1.144 . S
C577 C207 2.211 . S
C579 C226 2.131 . S
C595 C151 2.083 . S
C597 C10 2.168 . S
C613 C91 2.192 . S
C615 C31 2.207 . S
C631 C70 1.951 . S
C633 C121 1.857 . S
C649 C61 2.062 . S
C651 C190 2.145 . S
C667 C1 2.216 . S
C669 C211 2.230 . S
C685 C250 1.931 . S
C687 C40 1.929 . S
C703 C100 2.132 . S
C705 C241 2.051 . S
C721 C130 2.328 . S
C723 C181 2.211 . S
C739 C220 1.962 . S
C741 C160 1.964 . S
