# Generated by pormake.
# Topology ecn, (8)-cn, num edge types: 1
# Building blocks:
#     Node 0, Type 0, BuildingBlock: AJUNOK_clean_sbu_0, # of connection points: 8
#     Node 1, Type 0, BuildingBlock: AJUNOK_clean_sbu_0, # of connection points: 8
#     Node 2, Type 0, BuildingBlock: AJUNOK_clean_sbu_0, # of connection points: 8
#     Node 3, Type 0, BuildingBlock: AJUNOK_clean_sbu_0, # of connection points: 8
#     Node 4, Type 0, BuildingBlock: AJUNOK_clean_sbu_0, # of connection points: 8
#     Node 5, Type 0, BuildingBlock: AJUNOK_clean_sbu_0, # of connection points: 8
#     Node 6, Type 0, BuildingBlock: AJUNOK_clean_sbu_0, # of connection points: 8
#     Node 7, Type 0, BuildingBlock: AJUNOK_clean_sbu_0, # of connection points: 8
#     Node 8, Type 0, BuildingBlock: AJUNOK_clean_sbu_0, # of connection points: 8
#     Edge 9, Type (0, 0), BuildingBlock: KIFKEQ_clean_linker_1, # of connection points: 2
#     Edge 10, Type (0, 0), BuildingBlock: KIFKEQ_clean_linker_1, # of connection points: 2
#     Edge 11, Type (0, 0), BuildingBlock: KIFKEQ_clean_linker_1, # of connection points: 2
#     Edge 12, Type (0, 0), BuildingBlock: KIFKEQ_clean_linker_1, # of connection points: 2
#     Edge 13, Type (0, 0), BuildingBlock: KIFKEQ_clean_linker_1, # of connection points: 2
#     Edge 14, Type (0, 0), BuildingBlock: KIFKEQ_clean_linker_1, # of connection points: 2
#     Edge 15, Type (0, 0), BuildingBlock: KIFKEQ_clean_linker_1, # of connection points: 2
#     Edge 16, Type (0, 0), BuildingBlock: KIFKEQ_clean_linker_1, # of connection points: 2
#     Edge 17, Type (0, 0), BuildingBlock: KIFKEQ_clean_linker_1, # of connection points: 2
#     Edge 18, Type (0, 0), BuildingBlock: KIFKEQ_clean_linker_1, # of connection points: 2
#     Edge 19, Type (0, 0), BuildingBlock: KIFKEQ_clean_linker_1, # of connection points: 2
#     Edge 20, Type (0, 0), BuildingBlock: KIFKEQ_clean_linker_1, # of connection points: 2
#     Edge 21, Type (0, 0), BuildingBlock: KIFKEQ_clean_linker_1, # of connection points: 2
#     Edge 22, Type (0, 0), BuildingBlock: KIFKEQ_clean_linker_1, # of connection points: 2
#     Edge 23, Type (0, 0), BuildingBlock: KIFKEQ_clean_linker_1, # of connection points: 2
#     Edge 24, Type (0, 0), BuildingBlock: KIFKEQ_clean_linker_1, # of connection points: 2
#     Edge 25, Type (0, 0), BuildingBlock: KIFKEQ_clean_linker_1, # of connection points: 2
#     Edge 26, Type (0, 0), BuildingBlock: KIFKEQ_clean_linker_1, # of connection points: 2
#     Edge 27, Type (0, 0), BuildingBlock: KIFKEQ_clean_linker_1, # of connection points: 2
#     Edge 28, Type (0, 0), BuildingBlock: KIFKEQ_clean_linker_1, # of connection points: 2
#     Edge 29, Type (0, 0), BuildingBlock: KIFKEQ_clean_linker_1, # of connection points: 2
#     Edge 30, Type (0, 0), BuildingBlock: KIFKEQ_clean_linker_1, # of connection points: 2
#     Edge 31, Type (0, 0), BuildingBlock: KIFKEQ_clean_linker_1, # of connection points: 2
#     Edge 32, Type (0, 0), BuildingBlock: KIFKEQ_clean_linker_1, # of connection points: 2
#     Edge 33, Type (0, 0), BuildingBlock: KIFKEQ_clean_linker_1, # of connection points: 2
#     Edge 34, Type (0, 0), BuildingBlock: KIFKEQ_clean_linker_1, # of connection points: 2
#     Edge 35, Type (0, 0), BuildingBlock: KIFKEQ_clean_linker_1, # of connection points: 2
#     Edge 36, Type (0, 0), BuildingBlock: KIFKEQ_clean_linker_1, # of connection points: 2
#     Edge 37, Type (0, 0), BuildingBlock: KIFKEQ_clean_linker_1, # of connection points: 2
#     Edge 38, Type (0, 0), BuildingBlock: KIFKEQ_clean_linker_1, # of connection points: 2
#     Edge 39, Type (0, 0), BuildingBlock: KIFKEQ_clean_linker_1, # of connection points: 2
#     Edge 40, Type (0, 0), BuildingBlock: KIFKEQ_clean_linker_1, # of connection points: 2
#     Edge 41, Type (0, 0), BuildingBlock: KIFKEQ_clean_linker_1, # of connection points: 2
#     Edge 42, Type (0, 0), BuildingBlock: KIFKEQ_clean_linker_1, # of connection points: 2
#     Edge 43, Type (0, 0), BuildingBlock: KIFKEQ_clean_linker_1, # of connection points: 2
#     Edge 44, Type (0, 0), BuildingBlock: KIFKEQ_clean_linker_1, # of connection points: 2
# Relax obj value: 0.189
# Max RMSD: 0.206
# Mean RMSD: 0.206
data_MOF--net-ecn--node1-AJUNOK_clean_sbu_0--edge1-KIFKEQ_clean_linker_1
_symmetry_space_group_name_H-M    P1
_symmetry_Int_Tables_number       1
_symmetry_cell_setting            triclinic
loop_
_symmetry_equiv_pos_as_xyz
'x, y, z'
_cell_length_a     60.360565
_cell_length_b     60.358149
_cell_length_c     13.666063
_cell_angle_alpha  90.033683
_cell_angle_beta   89.98975
_cell_angle_gamma 119.92963
loop_
_atom_site_label
_atom_site_type_symbol
_atom_site_fract_x
_atom_site_fract_y
_atom_site_fract_z
_atom_type_partial_charge
Cd0 Cd 0.11486 0.18775 0.03315 0.0
Cd1 Cd 0.113 0.26096 0.91918 0.0
C2 C 0.05944 0.14283 0.0149 0.0
N3 N 0.07089 0.16652 0.05518 0.0
C4 C 0.03056 0.16021 0.11098 0.0
C5 C 0.0183 0.13557 0.06991 0.0
C6 C 0.03311 0.12699 0.0213 0.0
C7 C 0.05715 0.1756 0.10218 0.0
H8 H 0.07094 0.1362 0.97813 0.0
H9 H 0.06671 0.19463 0.13302 0.0
C10 C 0.11735 0.24469 0.12568 0.0
C11 C 0.17162 0.28056 0.98218 0.0
C12 C 0.19807 0.29257 0.97215 0.0
C13 C 0.20918 0.29883 0.87857 0.0
C14 C 0.19282 0.29117 0.79669 0.0
C15 C 0.16637 0.27885 0.81018 0.0
N16 N 0.15636 0.2743 0.90188 0.0
H17 H 0.16355 0.27721 0.05456 0.0
H18 H 0.15388 0.27422 0.74754 0.0
C19 C 0.06125 0.25071 0.0111 0.0
N20 N 0.06894 0.23968 0.94258 0.0
C21 C 0.02548 0.20874 0.90597 0.0
C22 C 0.01707 0.21997 0.97603 0.0
C23 C 0.03536 0.24107 0.02946 0.0
C24 C 0.05176 0.21891 0.89063 0.0
H25 H 0.07532 0.26741 0.05024 0.0
H26 H 0.05838 0.21049 0.83641 0.0
C27 C 0.10983 0.20404 0.82677 0.0
C28 C 0.12426 0.14894 0.10229 0.0
N29 N 0.15811 0.21802 0.03864 0.0
C30 C 0.17107 0.22498 0.95245 0.0
C31 C 0.19771 0.23926 0.9517 0.0
C32 C 0.2112 0.24635 0.04062 0.0
C33 C 0.19717 0.2397 0.12851 0.0
C34 C 0.17052 0.22532 0.1258 0.0
C35 C 0.11739 0.30447 0.82131 0.0
O36 O 0.11537 0.22842 0.06304 0.0
O37 O 0.11728 0.26457 0.09592 0.0
O38 O 0.109 0.21893 0.88945 0.0
O39 O 0.11044 0.18449 0.85681 0.0
O40 O 0.11717 0.16036 0.16255 0.0
O41 O 0.12662 0.15566 0.01308 0.0
O42 O 0.11144 0.28414 0.77311 0.0
O43 O 0.12084 0.30396 0.91283 0.0
H44 H 0.1608 0.21858 0.88412 0.0
H45 H 0.15984 0.21878 0.19323 0.0
H46 H 0.01972 0.16751 0.14857 0.0
H47 H 0.02447 0.10799 -0.01005 0.0
H48 H 0.20966 0.2974 0.03764 0.0
H49 H 0.20026 0.29595 0.72298 0.0
H50 H 0.01192 0.19238 0.86363 0.0
H51 H 0.02971 0.25056 0.08295 0.0
H52 H 0.20761 0.24422 0.88213 0.0
H53 H 0.20664 0.24412 0.19893 0.0
Cd54 Cd 0.81127 0.92782 0.07758 0.0
Cd55 Cd 0.7363 0.8509 0.95893 0.0
C56 C 0.85579 0.92249 0.18338 0.0
N57 N 0.83255 0.90749 0.14167 0.0
C58 C 0.83886 0.87138 0.14578 0.0
C59 C 0.86357 0.88681 0.18435 0.0
C60 C 0.87159 0.9125 0.20573 0.0
C61 C 0.8236 0.88222 0.12468 0.0
H62 H 0.86281 0.94261 0.19432 0.0
H63 H 0.80514 0.87079 0.09045 0.0
C64 C 0.75269 0.87445 0.16364 0.0
C65 C 0.71848 0.89231 -0.00253 0.0
C66 C 0.70681 0.90676 0.97816 0.0
C67 C 0.70051 0.90938 0.88146 0.0
C68 C 0.70784 0.89854 0.80572 0.0
C69 C 0.71978 0.88444 0.82839 0.0
N70 N 0.72432 0.88115 0.92313 0.0
H71 H 0.72191 0.88925 0.07233 0.0
H72 H 0.72408 0.87488 0.77078 0.0
C73 C 0.74562 0.8095 0.05766 0.0
N74 N 0.75707 0.82788 -0.01169 0.0
C75 C 0.78819 0.81515 0.95855 0.0
C76 C 0.77646 0.79575 0.02913 0.0
C77 C 0.75504 0.79322 0.07949 0.0
C78 C 0.77813 0.83117 0.93923 0.0
H79 H 0.72876 0.8072 0.09471 0.0
H80 H 0.78698 0.84599 0.88461 0.0
C81 C 0.79526 0.90227 0.86987 0.0
C82 C 0.84882 0.97967 0.10431 0.0
N83 N 0.78069 0.94028 0.08996 0.0
C84 C 0.77408 0.9463 0.00314 0.0
C85 C 0.75983 0.95869 0.00095 0.0
C86 C 0.75225 0.96492 0.0891 0.0
C87 C 0.75837 0.95739 0.17774 0.0
C88 C 0.77297 0.94528 0.17654 0.0
C89 C 0.6933 0.81095 0.86258 0.0
O90 O 0.769 0.88852 0.10053 0.0
O91 O 0.73264 0.85456 0.13447 0.0
O92 O 0.77895 0.88726 0.93032 0.0
O93 O 0.81467 0.92212 0.90251 0.0
O94 O 0.83799 0.96564 0.17882 0.0
O95 O 0.84219 0.96933 0.02028 0.0
O96 O 0.71399 0.82469 0.81557 0.0
O97 O 0.69314 0.81585 0.95301 0.0
H98 H 0.78087 0.94246 0.93554 0.0
H99 H 0.77934 0.94125 0.24462 0.0
H100 H 0.83178 0.85143 0.1287 0.0
H101 H 0.89061 0.92533 0.23337 0.0
H102 H 0.7022 0.91519 0.03911 0.0
H103 H 0.703 0.89944 0.73015 0.0
H104 H 0.80486 0.81784 0.91868 0.0
H105 H 0.74512 0.77826 0.13317 0.0
H106 H 0.75533 0.9639 0.93095 0.0
H107 H 0.75347 0.96235 0.24744 0.0
Cd108 Cd 0.07293 0.88638 0.07338 0.0
Cd109 Cd 0.14835 0.88471 0.94828 0.0
C110 C 0.11685 0.94528 0.08315 0.0
N111 N 0.09553 0.92833 0.13249 0.0
C112 C 0.09503 0.96222 0.22125 0.0
C113 C 0.11591 0.98031 0.16615 0.0
C114 C 0.12752 0.9715 0.09928 0.0
C115 C 0.08503 0.93618 0.20287 0.0
H116 H 0.12457 0.93847 0.02701 0.0
H117 H 0.06795 0.92236 0.2406 0.0
C118 C 0.12748 0.882 0.15844 0.0
C119 C 0.10308 0.82769 -0.01241 0.0
C120 C 0.08759 0.80153 0.97162 0.0
C121 C 0.08534 0.79148 0.87698 0.0
C122 C 0.0974 0.8087 0.79923 0.0
C123 C 0.11262 0.83481 0.81853 0.0
N124 N 0.11569 0.8436 0.91189 0.0
H125 H 0.10619 0.83502 0.06137 0.0
H126 H 0.12333 0.84779 0.75992 0.0
C127 C 0.19867 0.93526 -0.00773 0.0
N128 N 0.17552 0.92877 0.95343 0.0
C129 C 0.18874 0.97279 0.92585 0.0
C130 C 0.213 0.97996 0.96449 0.0
C131 C 0.21776 0.96077 -0.00161 0.0
C132 C 0.17017 0.94684 0.92027 0.0
H133 H 0.20231 0.92045 0.01826 0.0
H134 H 0.15166 0.94121 0.889 0.0
C135 C 0.09716 0.89274 0.86518 0.0
C136 C 0.02323 0.87786 0.11454 0.0
N137 N 0.05781 0.84267 0.08314 0.0
C138 C 0.04517 0.82908 0.00248 0.0
C139 C 0.03242 0.80243 0.00378 0.0
C140 C 0.03286 0.78955 0.08886 0.0
C141 C 0.04707 0.80422 0.16971 0.0
C142 C 0.05914 0.83087 0.16574 0.0
C143 C 0.18505 0.87568 0.85431 0.0
O144 O 0.11253 0.88359 0.09772 0.0
O145 O 0.14672 0.88102 0.1261 0.0
O146 O 0.11207 0.8917 0.9268 0.0
O147 O 0.07744 0.89288 0.89626 0.0
O148 O 0.03683 0.87638 0.18297 0.0
O149 O 0.03302 0.88332 0.02932 0.0
O150 O 0.17381 0.88551 0.80733 0.0
O151 O 0.17889 0.86999 0.94369 0.0
H152 H 0.04416 0.83901 0.93825 0.0
H153 H 0.06884 0.84198 0.22957 0.0
H154 H 0.0853 0.96808 0.27281 0.0
H155 H 0.14386 0.98476 0.05615 0.0
H156 H 0.07854 0.7892 0.03382 0.0
H157 H 0.09677 0.80202 0.72522 0.0
H158 H 0.18434 0.98703 0.89886 0.0
H159 H 0.23599 0.96545 0.03051 0.0
H160 H 0.02144 0.79213 0.94011 0.0
H161 H 0.04835 0.79526 0.2364 0.0
Cd162 Cd 0.78537 0.51951 0.3798 0.0
Cd163 Cd 0.78631 0.59659 0.26046 0.0
C164 C 0.73635 0.4812 0.51004 0.0
N165 N 0.7443 0.50106 0.44657 0.0
C166 C 0.70158 0.49324 0.42941 0.0
C167 C 0.69245 0.47119 0.488 0.0
C168 C 0.71044 0.46593 0.53166 0.0
C169 C 0.72767 0.5077 0.40829 0.0
H170 H 0.74979 0.47603 0.53885 0.0
H171 H 0.73447 0.52321 0.35638 0.0
C172 C 0.7928 0.57866 0.46593 0.0
C173 C 0.84512 0.6169 0.28317 0.0
C174 C 0.87086 0.62782 0.25891 0.0
C175 C 0.87797 0.62693 0.16165 0.0
C176 C 0.85857 0.61365 0.09207 0.0
C177 C 0.83293 0.60311 0.11961 0.0
N178 N 0.82685 0.60538 0.21346 0.0
H179 H 0.83976 0.61891 0.35668 0.0
H180 H 0.81804 0.59439 0.06512 0.0
C181 C 0.73036 0.56738 0.3543 0.0
N182 N 0.7419 0.57744 0.26729 0.0
C183 C 0.70263 0.57136 0.20063 0.0
C184 C 0.6904 0.56168 0.29081 0.0
C185 C 0.70448 0.55916 0.36754 0.0
C186 C 0.72857 0.57929 0.19057 0.0
H187 H 0.74147 0.56662 0.41482 0.0
H188 H 0.73823 0.58783 0.12266 0.0
C189 C 0.77424 0.53497 0.1736 0.0
C190 C 0.79723 0.48055 0.4188 0.0
N191 N 0.82839 0.54976 0.38022 0.0
C192 C 0.83988 0.55728 0.29143 0.0
C193 C 0.86645 0.57152 0.28465 0.0
C194 C 0.88131 0.57803 0.37018 0.0
C195 C 0.86874 0.57107 0.46121 0.0
C196 C 0.84212 0.55668 0.46453 0.0
C197 C 0.79421 0.64376 0.18663 0.0
O198 O 0.7906 0.56248 0.40229 0.0
O199 O 0.79315 0.59881 0.437 0.0
O200 O 0.7777 0.55263 0.23202 0.0
O201 O 0.77424 0.5154 0.2075 0.0
O202 O 0.79525 0.49331 0.4893 0.0
O203 O 0.79381 0.48618 0.33252 0.0
O204 O 0.78659 0.62453 0.12984 0.0
O205 O 0.7981 0.64071 0.27583 0.0
H206 H 0.82844 0.55115 0.22556 0.0
H207 H 0.83253 0.54979 0.53393 0.0
H208 H 0.68863 0.49848 0.39557 0.0
H209 H 0.70457 0.44907 0.57605 0.0
H210 H 0.88501 0.63823 0.31484 0.0
H211 H 0.86315 0.61244 0.01637 0.0
H212 H 0.69246 0.57347 0.13936 0.0
H213 H 0.69598 0.5522 0.43879 0.0
H214 H 0.87527 0.5766 0.21303 0.0
H215 H 0.87934 0.57507 0.52903 0.0
Cd216 Cd 0.4837 0.25999 0.36841 0.0
Cd217 Cd 0.40391 0.18966 0.25138 0.0
C218 C 0.50081 0.21778 0.36729 0.0
N219 N 0.49915 0.23424 0.43065 0.0
C220 C 0.52576 0.22869 0.54598 0.0
C221 C 0.52953 0.21319 0.47886 0.0
C222 C 0.5159 0.20693 0.39003 0.0
C223 C 0.51069 0.23933 0.51976 0.0
H224 H 0.49197 0.2146 0.29596 0.0
H225 H 0.50959 0.25293 0.5681 0.0
C226 C 0.42142 0.21282 0.45584 0.0
C227 C 0.39191 0.23568 0.27848 0.0
C228 C 0.38076 0.25056 0.25711 0.0
C229 C 0.37149 0.25016 0.16237 0.0
C230 C 0.37559 0.23608 0.08949 0.0
C231 C 0.38706 0.22166 0.11397 0.0
N232 N 0.39428 0.22118 0.20771 0.0
H233 H 0.39757 0.23489 0.35269 0.0
H234 H 0.38867 0.20953 0.05953 0.0
C235 C 0.4111 0.14812 0.3613 0.0
N236 N 0.42276 0.16528 0.28816 0.0
C237 C 0.45185 0.14988 0.26096 0.0
C238 C 0.43985 0.13163 0.33537 0.0
C239 C 0.41937 0.13108 0.38632 0.0
C240 C 0.44288 0.16662 0.2382 0.0
H241 H 0.39489 0.14726 0.39864 0.0
H242 H 0.45173 0.18035 0.17981 0.0
C243 C 0.46485 0.23699 0.16032 0.0
C244 C 0.52675 0.3079 0.41426 0.0
N245 N 0.458 0.27853 0.3715 0.0
C246 C 0.4515 0.28435 0.28393 0.0
C247 C 0.43857 0.2981 0.28025 0.0
C248 C 0.4322 0.30585 0.36768 0.0
C249 C 0.43877 0.2991 0.45709 0.0
C250 C 0.45194 0.28559 0.45728 0.0
C251 C 0.36041 0.14904 0.1596 0.0
O252 O 0.43902 0.22459 0.39367 0.0
O253 O 0.40006 0.1948 0.4259 0.0
O254 O 0.44822 0.22294 0.22189 0.0
O255 O 0.48586 0.25512 0.19193 0.0
O256 O 0.51088 0.29479 0.48133 0.0
O257 O 0.52243 0.29831 0.3287 0.0
O258 O 0.38129 0.16158 0.11239 0.0
O259 O 0.36016 0.15564 0.24777 0.0
H260 H 0.45693 0.27888 0.21674 0.0
H261 H 0.45822 0.28169 0.52577 0.0
H262 H 0.53545 0.2337 0.61597 0.0
H263 H 0.51836 0.19539 0.33516 0.0
H264 H 0.37859 0.26147 0.31543 0.0
H265 H 0.36842 0.23465 0.01583 0.0
H266 H 0.46781 0.15105 0.22035 0.0
H267 H 0.40919 0.11702 0.44276 0.0
H268 H 0.43379 0.30277 0.20973 0.0
H269 H 0.43499 0.30534 0.52627 0.0
Cd270 Cd 0.73815 0.21384 0.35514 0.0
Cd271 Cd 0.8131 0.21444 0.23422 0.0
C272 C 0.77993 0.27314 0.34262 0.0
N273 N 0.76181 0.2566 0.40558 0.0
C274 C 0.76586 0.29135 0.5032 0.0
C275 C 0.78351 0.30886 0.43593 0.0
C276 C 0.79127 0.29944 0.35698 0.0
C277 C 0.75508 0.26511 0.48625 0.0
H278 H 0.78472 0.26598 0.27841 0.0
H279 H 0.74036 0.25164 0.53463 0.0
C280 C 0.79317 0.21164 0.44129 0.0
C281 C 0.78131 0.15588 0.28502 0.0
C282 C 0.76517 0.12963 0.27508 0.0
C283 C 0.74725 0.12002 0.19833 0.0
C284 C 0.74532 0.13762 0.13639 0.0
C285 C 0.76222 0.16381 0.14814 0.0
N286 N 0.77999 0.17231 0.22074 0.0
H287 H 0.79591 0.16315 0.34105 0.0
H288 H 0.76185 0.17718 0.09664 0.0
C289 C 0.83485 0.27085 0.32472 0.0
N290 N 0.83809 0.25897 0.24605 0.0
C291 C 0.87566 0.29762 0.19882 0.0
C292 C 0.87353 0.30993 0.2826 0.0
C293 C 0.8523 0.29645 0.34413 0.0
C294 C 0.85765 0.27194 0.18203 0.0
H295 H 0.81932 0.26025 0.37495 0.0
H296 H 0.86002 0.26206 0.12049 0.0
C297 C 0.76217 0.22414 0.14718 0.0
C298 C 0.68904 0.20443 0.41335 0.0
N299 N 0.72424 0.17016 0.35228 0.0
C300 C 0.70615 0.15683 0.28366 0.0
C301 C 0.6934 0.13018 0.28292 0.0
C302 C 0.69962 0.11694 0.35255 0.0
C303 C 0.71982 0.13147 0.41787 0.0
C304 C 0.73145 0.15809 0.41808 0.0
C305 C 0.84959 0.20467 0.14283 0.0
O306 O 0.77787 0.21154 0.37778 0.0
O307 O 0.81308 0.2116 0.41173 0.0
O308 O 0.77645 0.2207 0.20503 0.0
O309 O 0.74207 0.22302 0.18099 0.0
O310 O 0.70507 0.20601 0.47784 0.0
O311 O 0.69616 0.20731 0.32442 0.0
O312 O 0.8372 0.21249 0.09138 0.0
O313 O 0.84473 0.20161 0.23387 0.0
H314 H 0.70068 0.16693 0.23254 0.0
H315 H 0.74551 0.16887 0.47323 0.0
H316 H 0.75914 0.29778 0.56448 0.0
H317 H 0.80508 0.31228 0.30407 0.0
H318 H 0.76794 0.11706 0.32363 0.0
H319 H 0.73166 0.13123 0.07693 0.0
H320 H 0.89185 0.30723 0.1499 0.0
H321 H 0.8497 0.30533 0.40868 0.0
H322 H 0.67781 0.12029 0.23181 0.0
H323 H 0.72604 0.12247 0.47115 0.0
Cd324 Cd 0.44838 0.85521 0.69822 0.0
Cd325 Cd 0.44239 0.92831 0.57601 0.0
C326 C 0.39129 0.81576 0.65909 0.0
N327 N 0.40455 0.8344 0.72588 0.0
C328 C 0.36595 0.82424 0.81079 0.0
C329 C 0.35179 0.80462 0.74309 0.0
C330 C 0.36487 0.8006 0.66627 0.0
C331 C 0.39253 0.83902 0.80073 0.0
H332 H 0.40142 0.8124 0.60095 0.0
H333 H 0.40341 0.85405 0.8527 0.0
C334 C 0.44981 0.91244 0.78758 0.0
C335 C 0.50071 0.94525 0.60293 0.0
C336 C 0.52682 0.95725 0.58419 0.0
C337 C 0.53583 0.96427 0.48809 0.0
C338 C 0.51794 0.95765 0.41202 0.0
C339 C 0.49187 0.94575 0.43431 0.0
N340 N 0.48387 0.94011 0.52874 0.0
H341 H 0.494 0.94115 0.6775 0.0
H342 H 0.47824 0.94247 0.37704 0.0
C343 C 0.38618 0.88636 0.64386 0.0
N344 N 0.39776 0.90468 0.57425 0.0
C345 C 0.35795 0.90181 0.53259 0.0
C346 C 0.34576 0.88411 0.60856 0.0
C347 C 0.36004 0.87565 0.66199 0.0
C348 C 0.38412 0.91196 0.5168 0.0
H349 H 0.39754 0.88119 0.68919 0.0
H350 H 0.39375 0.92677 0.46268 0.0
C351 C 0.44294 0.87333 0.49219 0.0
C352 C 0.45665 0.81477 0.75241 0.0
N353 N 0.49144 0.88434 0.72098 0.0
C354 C 0.50575 0.89459 0.63914 0.0
C355 C 0.53238 0.90855 0.64521 0.0
C356 C 0.54437 0.91198 0.73647 0.0
C357 C 0.52897 0.9017 0.82007 0.0
C358 C 0.50245 0.88762 0.81045 0.0
C359 C 0.44878 0.97507 0.50533 0.0
O360 O 0.44839 0.8957 0.72832 0.0
O361 O 0.44807 0.93113 0.75386 0.0
O362 O 0.44033 0.88695 0.55589 0.0
O363 O 0.44549 0.85474 0.52065 0.0
O364 O 0.45013 0.8256 0.81756 0.0
O365 O 0.4587 0.82266 0.66479 0.0
O366 O 0.44222 0.9563 0.44692 0.0
O367 O 0.45183 0.97159 0.59502 0.0
H368 H 0.49651 0.89109 0.56854 0.0
H369 H 0.49083 0.87809 0.87359 0.0
H370 H 0.35662 0.82811 0.87068 0.0
H371 H 0.35491 0.78536 0.61365 0.0
H372 H 0.53989 0.96181 0.64504 0.0
H373 H 0.52406 0.96321 0.33714 0.0
H374 H 0.34781 0.90911 0.49022 0.0
H375 H 0.35137 0.8618 0.72034 0.0
H376 H 0.54346 0.9161 0.57886 0.0
H377 H 0.53732 0.90304 0.89149 0.0
Cd378 Cd 0.14549 0.59747 0.69813 0.0
Cd379 Cd 0.07378 0.51562 0.5704 0.0
C380 C 0.19556 0.59637 0.7553 0.0
N381 N 0.16998 0.57973 0.75298 0.0
C382 C 0.17665 0.54525 0.7994 0.0
C383 C 0.20318 0.56215 0.80221 0.0
C384 C 0.21251 0.58803 0.78061 0.0
C385 C 0.16026 0.55457 0.77493 0.0
H386 H 0.20292 0.6161 0.73485 0.0
H387 H 0.1399 0.5417 0.77182 0.0
C388 C 0.08957 0.54032 0.78093 0.0
C389 C 0.05752 0.55779 0.5879 0.0
C390 C 0.04562 0.57189 0.56629 0.0
C391 C 0.03687 0.57172 0.47088 0.0
C392 C 0.0418 0.55822 0.398 0.0
C393 C 0.05395 0.54444 0.42292 0.0
N394 N 0.06114 0.54419 0.51698 0.0
H395 H 0.06285 0.55686 0.66247 0.0
H396 H 0.05632 0.53283 0.36833 0.0
C397 C 0.10693 0.49206 0.65215 0.0
N398 N 0.09688 0.49407 0.56594 0.0
C399 C 0.10529 0.46308 0.49209 0.0
C400 C 0.11463 0.45969 0.58168 0.0
C401 C 0.11619 0.4751 0.66149 0.0
C402 C 0.09641 0.48044 0.48583 0.0
H403 H 0.1062 0.50238 0.71549 0.0
H404 H 0.08786 0.48192 0.4185 0.0
C405 C 0.12935 0.57194 0.48919 0.0
C406 C 0.18215 0.64865 0.74198 0.0
N407 N 0.11485 0.60913 0.72743 0.0
C408 C 0.10519 0.61419 0.64623 0.0
C409 C 0.09091 0.6265 0.65419 0.0
C410 C 0.08673 0.63392 0.74669 0.0
C411 C 0.09624 0.62759 0.82969 0.0
C412 C 0.11053 0.61533 0.81825 0.0
C413 C 0.02821 0.47407 0.49594 0.0
O414 O 0.10544 0.55598 0.72022 0.0
O415 O 0.07116 0.51945 0.74871 0.0
O416 O 0.11496 0.55543 0.55062 0.0
O417 O 0.14731 0.5931 0.52075 0.0
O418 O 0.17254 0.63208 0.81016 0.0
O419 O 0.17467 0.6412 0.65483 0.0
O420 O 0.04732 0.48699 0.44004 0.0
O421 O 0.03058 0.48064 0.58561 0.0
H422 H 0.10954 0.60962 0.57476 0.0
H423 H 0.11951 0.61232 0.88123 0.0
H424 H 0.16873 0.52511 0.81508 0.0
H425 H 0.23284 0.60158 0.77937 0.0
H426 H 0.04261 0.58211 0.62505 0.0
H427 H 0.03496 0.55691 0.32385 0.0
H428 H 0.10387 0.45166 0.4287 0.0
H429 H 0.12281 0.47282 0.73242 0.0
H430 H 0.08382 0.63073 0.58817 0.0
H431 H 0.09425 0.63357 0.90227 0.0
Cd432 Cd 0.40714 0.55284 0.71358 0.0
Cd433 Cd 0.48549 0.55585 0.58736 0.0
C434 C 0.44985 0.61176 0.70794 0.0
N435 N 0.43089 0.59504 0.76773 0.0
C436 C 0.43339 0.62938 0.86336 0.0
C437 C 0.45164 0.64715 0.79831 0.0
C438 C 0.46078 0.63804 0.72266 0.0
C439 C 0.42319 0.60324 0.84655 0.0
H440 H 0.45536 0.60473 0.64516 0.0
H441 H 0.40799 0.58959 0.89284 0.0
C442 C 0.46114 0.54802 0.79607 0.0
C443 C 0.44228 0.49736 0.60389 0.0
C444 C 0.42834 0.47144 0.58067 0.0
C445 C 0.42935 0.46322 0.48534 0.0
C446 C 0.44318 0.48189 0.41389 0.0
C447 C 0.45668 0.50768 0.44024 0.0
N448 N 0.45644 0.51479 0.53442 0.0
H449 H 0.44272 0.50342 0.67857 0.0
H450 H 0.4686 0.5218 0.38675 0.0
C451 C 0.50722 0.61204 0.67432 0.0
N452 N 0.50667 0.60041 0.58849 0.0
C453 C 0.53847 0.64013 0.52028 0.0
C454 C 0.54055 0.65239 0.61004 0.0
C455 C 0.52395 0.63818 0.68655 0.0
C456 C 0.52134 0.61395 0.5111 0.0
H457 H 0.49567 0.60077 0.73519 0.0
H458 H 0.52082 0.60427 0.44388 0.0
C459 C 0.43101 0.55839 0.50329 0.0
C460 C 0.35797 0.54544 0.75581 0.0
N461 N 0.39253 0.50985 0.74073 0.0
C462 C 0.38848 0.4952 0.65996 0.0
C463 C 0.37602 0.46863 0.6678 0.0
C464 C 0.36748 0.457 0.75969 0.0
C465 C 0.37261 0.47279 0.84227 0.0
C466 C 0.38505 0.49929 0.83095 0.0
C467 C 0.52715 0.55256 0.50849 0.0
O468 O 0.44673 0.55038 0.73505 0.0
O469 O 0.48121 0.54853 0.76454 0.0
O470 O 0.4471 0.55942 0.56447 0.0
O471 O 0.41069 0.55716 0.53523 0.0
O472 O 0.37274 0.54666 0.82486 0.0
O473 O 0.36634 0.54781 0.6687 0.0
O474 O 0.51328 0.55782 0.45395 0.0
O475 O 0.52157 0.54906 0.59912 0.0
H476 H 0.39421 0.50416 0.58886 0.0
H477 H 0.38751 0.51128 0.89343 0.0
H478 H 0.42563 0.63548 0.92219 0.0
H479 H 0.47517 0.65104 0.67184 0.0
H480 H 0.41769 0.45796 0.63815 0.0
H481 H 0.4451 0.47667 0.3399 0.0
H482 H 0.55073 0.65043 0.45917 0.0
H483 H 0.52507 0.64675 0.75736 0.0
H484 H 0.37264 0.45733 0.60214 0.0
H485 H 0.36574 0.4648 0.91421 0.0
H486 H 0.24079 0.23604 0.91812 0.0
H487 H 0.24586 0.28234 0.16798 0.0
H488 H 0.28501 0.24745 0.94098 0.0
H489 H 0.29027 0.29315 0.19243 0.0
H490 H 0.3663 0.2718 -0.008 0.0
H491 H 0.33179 0.28033 0.95203 0.0
H492 H 0.30422 0.26243 0.24909 0.0
H493 H 0.33762 0.25297 0.28833 0.0
C494 C 0.25151 0.24935 0.97606 0.0
C495 C 0.2395 0.25783 0.04245 0.0
C496 C 0.27699 0.25591 -0.01089 0.0
C497 C 0.29102 0.27094 0.06925 0.0
C498 C 0.27976 0.28123 0.1308 0.0
C499 C 0.25429 0.27487 0.11716 0.0
C500 C 0.35306 0.26995 0.04915 0.0
C501 C 0.3546 0.26116 0.14298 0.0
C502 C 0.33343 0.27504 0.0263 0.0
C503 C 0.31521 0.27186 0.09722 0.0
C504 C 0.31813 0.26537 0.19306 0.0
C505 C 0.33746 0.25995 0.21557 0.0
H506 H 0.72879 0.07934 0.32622 0.0
H507 H 0.73525 0.09711 0.01744 0.0
H508 H 0.72102 0.0368 0.28784 0.0
H509 H 0.7252 0.05393 0.97913 0.0
H510 H 0.76622 0.00662 0.97461 0.0
H511 H 0.75407 0.03887 -0.00875 0.0
H512 H 0.701 0.99494 0.22132 0.0
H513 H 0.71369 0.9624 0.20502 0.0
C514 C 0.72784 0.07399 0.25003 0.0
C515 C 0.73385 0.09215 0.17529 0.0
C516 C 0.72294 0.04933 0.22785 0.0
C517 C 0.72346 0.04218 0.13024 0.0
C518 C 0.72564 0.05912 0.05528 0.0
C519 C 0.73105 0.08391 0.07746 0.0
C520 C 0.75136 0.00332 0.02671 0.0
C521 C 0.7411 0.982 0.08905 0.0
C522 C 0.74424 0.0219 0.03617 0.0
C523 C 0.72655 0.01969 0.10805 0.0
C524 C 0.71498 0.99749 0.16623 0.0
C525 C 0.72224 0.97885 0.15698 0.0
H526 H 0.00696 0.76128 0.249 0.0
H527 H 0.02151 0.75335 0.9446 0.0
H528 H 0.97502 0.71643 0.25482 0.0
H529 H 0.98835 0.70827 0.95004 0.0
H530 H 0.89685 0.65591 -0.00374 0.0
H531 H 0.94021 0.69073 0.97083 0.0
H532 H 0.96427 0.67027 0.23668 0.0
H533 H 0.92086 0.63494 0.26144 0.0
C534 C 0.00399 0.7499 0.18392 0.0
C535 C 0.01669 0.76121 0.09591 0.0
C536 C 0.98555 0.72404 0.18737 0.0
C537 C 0.97908 0.70887 0.10274 0.0
C538 C 0.99284 0.71962 0.01616 0.0
C539 C 0.01165 0.74549 0.01302 0.0
C540 C 0.91153 0.65802 0.04717 0.0
C541 C 0.90521 0.64292 0.13215 0.0
C542 C 0.93646 0.67807 0.03249 0.0
C543 C 0.95549 0.68348 0.10272 0.0
C544 C 0.94984 0.66674 0.18217 0.0
C545 C 0.92496 0.64657 0.19645 0.0
H546 H 0.78189 0.7779 0.20549 0.0
H547 H 0.79091 0.77158 0.89502 0.0
H548 H 0.79015 0.74304 0.23582 0.0
H549 H 0.80034 0.73722 0.92559 0.0
H550 H 0.77577 0.65344 0.01869 0.0
H551 H 0.77626 0.69294 0.97537 0.0
H552 H 0.82086 0.72936 0.23426 0.0
H553 H 0.81955 0.68972 0.27897 0.0
C554 C 0.78603 0.76927 0.14377 0.0
C555 C 0.78544 0.77728 0.04782 0.0
C556 C 0.79107 0.74945 0.16116 0.0
C557 C 0.79581 0.73719 0.08306 0.0
C558 C 0.79642 0.74601 -0.01272 0.0
C559 C 0.79133 0.7659 0.96985 0.0
C560 C 0.78595 0.67001 0.06549 0.0
C561 C 0.79729 0.6684 0.15287 0.0
C562 C 0.78637 0.69271 0.04048 0.0
C563 C 0.79835 0.71428 0.10199 0.0
C564 C 0.81096 0.71297 0.18639 0.0
C565 C 0.8103 0.69027 0.21182 0.0
H566 H 0.26351 0.00058 0.91946 0.0
H567 H 0.20855 0.02074 0.02656 0.0
H568 H 0.29805 0.0437 0.95348 0.0
H569 H 0.24315 0.06432 0.05779 0.0
H570 H 0.35556 0.12748 0.9784 0.0
H571 H 0.31855 0.08898 0.91395 0.0
H572 H 0.27693 0.08234 0.17987 0.0
H573 H 0.31352 0.12083 0.24312 0.0
C574 C 0.25879 0.01438 0.94908 0.0
C575 C 0.23336 0.00717 0.97178 0.0
C576 C 0.27858 0.0392 0.96749 0.0
C577 C 0.2734 0.05743 0.00907 0.0
C578 C 0.24779 0.05061 0.02694 0.0
C579 C 0.22795 0.02573 0.00825 0.0
C580 C 0.33838 0.11794 0.02242 0.0
C581 C 0.33755 0.12706 0.11617 0.0
C582 C 0.31721 0.09585 -0.0143 0.0
C583 C 0.2948 0.08253 0.04188 0.0
C584 C 0.29373 0.09229 0.13404 0.0
C585 C 0.31483 0.11426 0.17072 0.0
H586 H 0.99221 0.21112 0.14994 0.0
H587 H 0.97998 0.20879 0.83805 0.0
H588 H 0.94907 0.20294 0.1785 0.0
H589 H 0.93614 0.19975 0.86641 0.0
H590 H 0.87786 0.2252 0.9761 0.0
H591 H 0.91608 0.22371 0.92657 0.0
H592 H 0.90462 0.17257 0.16696 0.0
H593 H 0.8672 0.17484 0.21793 0.0
C594 C 0.98007 0.2084 0.08742 0.0
C595 C 0.98952 0.21081 -0.00814 0.0
C596 C 0.95521 0.20347 0.10365 0.0
C597 C 0.93908 0.20074 0.02468 0.0
C598 C 0.94816 0.20202 0.9288 0.0
C599 C 0.97313 0.20691 0.91254 0.0
C600 C 0.88332 0.21331 0.01705 0.0
C601 C 0.86986 0.20049 0.10174 0.0
C602 C 0.90514 0.21235 -0.01143 0.0
C603 C 0.91369 0.19835 0.04385 0.0
C604 C 0.89899 0.18406 0.12421 0.0
C605 C 0.87747 0.18527 0.1532 0.0
H606 H 0.90784 0.56632 0.23749 0.0
H607 H 0.91849 0.61338 0.49143 0.0
H608 H 0.9515 0.57507 0.2521 0.0
H609 H 0.9623 0.62167 0.50703 0.0
H610 H 0.0323 0.59376 0.30013 0.0
H611 H 0.99959 0.6051 0.26204 0.0
H612 H 0.97152 0.58699 0.55842 0.0
H613 H 0.00274 0.57452 0.59538 0.0
C614 C 0.91973 0.57931 0.29438 0.0
C615 C 0.90941 0.58862 0.36489 0.0
C616 C 0.94487 0.58436 0.30257 0.0
C617 C 0.96013 0.59867 0.3817 0.0
C618 C 0.95075 0.61021 0.4462 0.0
C619 C 0.92563 0.6053 0.43767 0.0
C620 C 0.01926 0.59234 0.35739 0.0
C621 C 0.02019 0.58292 0.45071 0.0
C622 C 0.00073 0.5991 0.33568 0.0
C623 C 0.98311 0.59703 0.40737 0.0
C624 C 0.98516 0.58932 0.50211 0.0
C625 C 0.00326 0.58216 0.5233 0.0
H626 H 0.40894 0.43703 0.31252 0.0
H627 H 0.42704 0.42644 0.60919 0.0
H628 H 0.40061 0.39413 0.27125 0.0
H629 H 0.4176 0.38372 0.56878 0.0
H630 H 0.44393 0.34565 0.24313 0.0
H631 H 0.43324 0.37921 0.26281 0.0
H632 H 0.38566 0.33944 0.51094 0.0
H633 H 0.3959 0.30533 0.49009 0.0
C634 C 0.4107 0.42553 0.36941 0.0
C635 C 0.41907 0.43555 0.46397 0.0
C636 C 0.4057 0.40089 0.34581 0.0
C637 C 0.4085 0.38563 0.41675 0.0
C638 C 0.41487 0.39485 0.51285 0.0
C639 C 0.42025 0.41951 0.53603 0.0
C640 C 0.4304 0.34347 0.29962 0.0
C641 C 0.42122 0.32307 0.36645 0.0
C642 C 0.42424 0.36275 0.31076 0.0
C643 C 0.4089 0.36209 0.38923 0.0
C644 C 0.39783 0.34057 0.45064 0.0
C645 C 0.40384 0.32117 0.43908 0.0
H646 H 0.56884 0.00471 0.59844 0.0
H647 H 0.56533 0.96337 0.33531 0.0
H648 H 0.61255 0.03592 0.56368 0.0
H649 H 0.61004 0.99499 0.30018 0.0
H650 H 0.6707 0.08009 0.21405 0.0
H651 H 0.63383 0.03847 0.24758 0.0
H652 H 0.65524 0.04635 0.55257 0.0
H653 H 0.68994 0.08884 0.52224 0.0
C654 C 0.57769 0.0018 0.53448 0.0
C655 C 0.56356 0.98142 0.46999 0.0
C656 C 0.60299 0.01978 0.51448 0.0
C657 C 0.61511 0.01795 0.42943 0.0
C658 C 0.60128 0.99708 0.36606 0.0
C659 C 0.5757 0.97899 0.38609 0.0
C660 C 0.66753 0.07308 0.28853 0.0
C661 C 0.68273 0.08875 0.36593 0.0
C662 C 0.64659 0.04885 0.30739 0.0
C663 C 0.6409 0.03948 0.40369 0.0
C664 C 0.65841 0.05345 0.47815 0.0
C665 C 0.67878 0.07791 0.46002 0.0
H666 H 0.4441 0.11401 0.51426 0.0
H667 H 0.45223 0.10497 0.20504 0.0
H668 H 0.44958 0.07762 0.54894 0.0
H669 H 0.45918 0.06924 0.24009 0.0
H670 H 0.4313 0.98545 0.33651 0.0
H671 H 0.43364 0.0257 0.29121 0.0
H672 H 0.47764 0.06112 0.55245 0.0
H673 H 0.4743 0.02071 0.59932 0.0
C674 C 0.44745 0.10445 0.45372 0.0
C675 C 0.44737 0.11217 0.35684 0.0
C676 C 0.45093 0.08374 0.47364 0.0
C677 C 0.45467 0.07032 0.39722 0.0
C678 C 0.45592 0.07887 0.30055 0.0
C679 C 0.45229 0.09957 0.28056 0.0
C680 C 0.44164 0.00194 0.38361 0.0
C681 C 0.45228 0.99987 0.47207 0.0
C682 C 0.44316 0.02507 0.35743 0.0
C683 C 0.45562 0.04664 0.41871 0.0
C684 C 0.46737 0.04478 0.50468 0.0
C685 C 0.46555 0.02162 0.53139 0.0
H686 H 0.98261 0.4481 0.59085 0.0
H687 H 0.01992 0.45011 0.31855 0.0
H688 H 0.94389 0.41034 0.53539 0.0
H689 H 0.98136 0.41168 0.26405 0.0
H690 H 0.90101 0.35206 0.16581 0.0
H691 H 0.93732 0.39336 0.21353 0.0
H692 H 0.93028 0.36638 0.51108 0.0
H693 H 0.89408 0.32562 0.46386 0.0
C694 C 0.98254 0.44045 0.51907 0.0
C695 C 0.00437 0.45195 0.45939 0.0
C696 C 0.96036 0.41871 0.4874 0.0
C697 C 0.95955 0.40777 0.39564 0.0
C698 C 0.9812 0.41972 0.33473 0.0
C699 C 0.00337 0.44165 0.36618 0.0
C700 C 0.90721 0.3551 0.24143 0.0
C701 C 0.89454 0.33565 0.31117 0.0
C702 C 0.92804 0.3787 0.26875 0.0
C703 C 0.93671 0.38326 0.36626 0.0
C704 C 0.92383 0.36382 0.43584 0.0
C705 C 0.90301 0.34038 0.40872 0.0
H706 H 0.55931 0.54114 0.60805 0.0
H707 H 0.54453 0.56015 0.31965 0.0
H708 H 0.59665 0.54034 0.54555 0.0
H709 H 0.58177 0.5589 0.25657 0.0
H710 H 0.6519 0.52218 0.39358 0.0
H711 H 0.61045 0.51714 0.4384 0.0
H712 H 0.62806 0.58506 0.27372 0.0
H713 H 0.66933 0.59012 0.22923 0.0
C714 C 0.5639 0.54492 0.53105 0.0
C715 C 0.54907 0.55089 0.46893 0.0
C716 C 0.5852 0.54424 0.49502 0.0
C717 C 0.59218 0.54953 0.39603 0.0
C718 C 0.57703 0.55499 0.33342 0.0
C719 C 0.55567 0.55563 0.36948 0.0
C720 C 0.64681 0.53592 0.36647 0.0
C721 C 0.66397 0.55661 0.30818 0.0
C722 C 0.6231 0.53305 0.39218 0.0
C723 C 0.61603 0.5508 0.36016 0.0
C724 C 0.63275 0.57086 0.29857 0.0
C725 C 0.65644 0.57374 0.27294 0.0
H726 H 0.57659 0.94351 0.87953 0.0
H727 H 0.57584 0.90528 0.61095 0.0
H728 H 0.62019 0.9527 0.9116 0.0
H729 H 0.61933 0.91485 0.6423 0.0
H730 H 0.66263 0.90745 -0.00194 0.0
H731 H 0.63077 0.91873 0.95607 0.0
H732 H 0.66631 0.94609 0.67428 0.0
H733 H 0.6995 0.93591 0.71797 0.0
C734 C 0.5859 0.93758 0.82628 0.0
C735 C 0.57251 0.92315 0.74385 0.0
C736 C 0.61088 0.94297 0.8444 0.0
C737 C 0.62299 0.93418 0.78012 0.0
C738 C 0.61058 0.92205 0.69283 0.0
C739 C 0.58556 0.91654 0.67495 0.0
C740 C 0.66457 0.91686 0.92863 0.0
C741 C 0.68372 0.92045 0.86116 0.0
C742 C 0.64609 0.92331 0.90447 0.0
C743 C 0.64596 0.93319 0.81171 0.0
C744 C 0.66587 0.93829 0.74609 0.0
C745 C 0.68472 0.93222 0.77095 0.0
H746 H 0.05541 0.63459 0.8919 0.0
H747 H 0.09316 0.67237 0.62314 0.0
H748 H 0.04494 0.66821 0.92282 0.0
H749 H 0.08216 0.70524 0.65296 0.0
H750 H 0.08621 0.75654 0.00266 0.0
H751 H 0.07604 0.71338 0.96667 0.0
H752 H 0.04973 0.71903 0.67906 0.0
H753 H 0.05905 0.76246 0.71621 0.0
C754 C 0.06105 0.64972 0.83852 0.0
C755 C 0.07554 0.65094 0.75589 0.0
C756 C 0.0549 0.66886 0.85596 0.0
C757 C 0.06289 0.68945 0.7907 0.0
C758 C 0.07542 0.68947 0.70409 0.0
C759 C 0.08176 0.67052 0.68705 0.0
C760 C 0.07725 0.74848 0.93309 0.0
C761 C 0.07393 0.7634 0.86173 0.0
C762 C 0.07142 0.72352 0.91243 0.0
C763 C 0.06238 0.71289 0.8196 0.0
C764 C 0.05704 0.72691 0.75084 0.0
C765 C 0.06258 0.75185 0.77197 0.0
H766 H 0.24046 0.29994 0.72845 0.0
H767 H 0.24209 0.33699 0.00189 0.0
H768 H 0.2842 0.33386 0.69507 0.0
H769 H 0.28566 0.36953 0.97056 0.0
H770 H 0.33086 0.42451 0.63091 0.0
H771 H 0.29781 0.38068 0.6599 0.0
H772 H 0.33179 0.38158 0.93877 0.0
H773 H 0.36568 0.4255 0.90868 0.0
C774 C 0.25015 0.3149 0.78231 0.0
C775 C 0.23733 0.31583 0.86703 0.0
C776 C 0.27528 0.33415 0.76349 0.0
C777 C 0.28825 0.35435 0.83005 0.0
C778 C 0.2763 0.35403 0.91845 0.0
C779 C 0.25113 0.33516 0.93642 0.0
C780 C 0.33205 0.41519 0.69672 0.0
C781 C 0.35074 0.42881 0.76836 0.0
C782 C 0.31301 0.38994 0.71323 0.0
C783 C 0.31209 0.37784 0.80203 0.0
C784 C 0.33194 0.39062 0.8701 0.0
C785 C 0.35118 0.41582 0.85315 0.0
H786 H 0.11012 0.31207 0.62827 0.0
H787 H 0.13096 0.34983 0.90944 0.0
H788 H 0.11351 0.35073 0.55529 0.0
H789 H 0.13385 0.38789 0.83769 0.0
H790 H 0.08612 0.41063 0.51588 0.0
H791 H 0.08996 0.37377 0.56213 0.0
H792 H 0.15811 0.42301 0.72768 0.0
H793 H 0.15408 0.45995 0.68206 0.0
C794 C 0.11549 0.32861 0.67432 0.0
C795 C 0.12014 0.32784 0.77468 0.0
C796 C 0.11738 0.35071 0.63266 0.0
C797 C 0.12406 0.37247 0.69053 0.0
C798 C 0.12914 0.37172 0.79043 0.0
C799 C 0.12723 0.34973 0.83187 0.0
C800 C 0.10233 0.41371 0.55997 0.0
C801 C 0.11969 0.4382 0.59599 0.0
C802 C 0.10452 0.39253 0.58655 0.0
C803 C 0.12415 0.39536 0.64966 0.0
C804 C 0.14244 0.42009 0.68065 0.0
C805 C 0.14019 0.44127 0.65436 0.0
H806 H 0.64753 0.7791 0.94815 0.0
H807 H 0.68697 0.79544 0.67073 0.0
H808 H 0.61006 0.74351 0.87463 0.0
H809 H 0.649 0.7599 0.59606 0.0
H810 H 0.59032 0.67305 0.55349 0.0
H811 H 0.62654 0.71359 0.60414 0.0
H812 H 0.57552 0.73194 0.76035 0.0
H813 H 0.53914 0.69111 0.71005 0.0
C814 C 0.64812 0.77524 0.87106 0.0
C815 C 0.6703 0.79 0.81542 0.0
C816 C 0.6265 0.75495 0.8286 0.0
C817 C 0.62644 0.74888 0.72927 0.0
C818 C 0.64849 0.76393 0.673 0.0
C819 C 0.67021 0.78432 0.71565 0.0
C820 C 0.58671 0.686 0.59647 0.0
C821 C 0.56184 0.67878 0.62821 0.0
C822 C 0.60754 0.70929 0.62563 0.0
C823 C 0.60399 0.72592 0.68716 0.0
C824 C 0.57896 0.71932 0.71452 0.0
C825 C 0.55811 0.69598 0.68556 0.0
H826 H 0.32807 0.88037 0.7948 0.0
H827 H 0.30413 0.87304 0.49296 0.0
H828 H 0.28719 0.8746 0.84725 0.0
H829 H 0.26275 0.86697 0.54582 0.0
H830 H 0.20948 0.89449 0.6795 0.0
H831 H 0.24615 0.89245 0.61523 0.0
H832 H 0.24256 0.84599 0.86198 0.0
H833 H 0.20656 0.84882 0.92759 0.0
C834 C 0.31381 0.87683 0.73956 0.0
C835 C 0.31943 0.87716 0.63957 0.0
C836 C 0.29027 0.87353 0.76975 0.0
C837 C 0.2716 0.87037 0.70085 0.0
C838 C 0.27683 0.86976 0.60083 0.0
C839 C 0.3005 0.87316 0.57052 0.0
C840 C 0.21638 0.88364 0.71938 0.0
C841 C 0.20534 0.8721 0.80921 0.0
C842 C 0.23732 0.88231 0.68226 0.0
C843 C 0.24753 0.86926 0.73389 0.0
C844 C 0.23559 0.85668 0.82132 0.0
C845 C 0.21485 0.8582 0.85875 0.0
H846 H 0.12712 0.01234 0.01093 0.0
H847 H 0.11975 0.01003 0.32568 0.0
H848 H 0.13314 0.05504 0.00909 0.0
H849 H 0.12623 0.05343 0.3242 0.0
H850 H 0.10137 0.11412 0.2503 0.0
H851 H 0.10357 0.07512 0.27639 0.0
H852 H 0.16031 0.09832 0.0474 0.0
H853 H 0.15705 0.13633 0.01869 0.0
C854 C 0.12755 0.02125 0.08026 0.0
C855 C 0.12307 0.00774 0.16849 0.0
C856 C 0.13101 0.04587 0.07928 0.0
C857 C 0.13027 0.05786 0.1666 0.0
C858 C 0.1266 0.04469 0.25547 0.0
C859 C 0.12299 0.01987 0.25637 0.0
C860 C 0.11459 0.11098 0.20696 0.0
C861 C 0.12873 0.12795 0.13149 0.0
C862 C 0.11595 0.0887 0.22198 0.0
C863 C 0.13176 0.08326 0.16263 0.0
C864 C 0.14734 0.10142 0.09247 0.0
C865 C 0.14562 0.12332 0.07638 0.0
H866 H 0.98538 0.10718 0.92586 0.0
H867 H 0.98832 0.1244 0.23373 0.0
H868 H 0.9416 0.07288 0.94352 0.0
H869 H 0.94371 0.09037 0.25148 0.0
H870 H 0.88315 0.00208 0.25358 0.0
H871 H 0.92174 0.0442 0.25099 0.0
H872 H 0.89844 0.06014 0.97295 0.0
H873 H 0.86074 0.0177 0.97379 0.0
C874 C 0.9764 0.10391 -0.00289 0.0
C875 C 0.99034 0.1182 0.07863 0.0
C876 C 0.95114 0.08439 0.00723 0.0
C877 C 0.93905 0.0787 0.09919 0.0
C878 C 0.95254 0.09402 0.1799 0.0
C879 C 0.97797 0.11367 0.16962 0.0
C880 C 0.88613 0.01485 0.19304 0.0
C881 C 0.86931 0.00654 0.11305 0.0
C882 C 0.90815 0.03904 0.19163 0.0
C883 C 0.91348 0.05542 0.11076 0.0
C884 C 0.89535 0.04777 0.03502 0.0
C885 C 0.87368 0.02351 0.03563 0.0
H886 H 0.86995 0.85543 0.05656 0.0
H887 H 0.89995 0.89757 0.32575 0.0
H888 H 0.9057 0.84758 0.04883 0.0
H889 H 0.93646 0.89091 0.315 0.0
H890 H 0.99697 0.86765 0.28845 0.0
H891 H 0.95491 0.86337 0.3158 0.0
H892 H 0.94951 0.87576 0.00736 0.0
H893 H 0.99085 0.87938 0.98006 0.0
C894 C 0.88382 0.86256 0.11537 0.0
C895 C 0.88224 0.87753 0.19093 0.0
C896 C 0.90457 0.85836 0.11014 0.0
C897 C 0.92432 0.86914 0.17996 0.0
C898 C 0.92167 0.88234 0.25981 0.0
C899 C 0.90084 0.8864 0.26539 0.0
C900 C 0.98662 0.86919 0.22654 0.0
C901 C 0.99731 0.87398 0.1322 0.0
C902 C 0.96256 0.86681 0.2422 0.0
C903 C 0.94872 0.86912 0.16376 0.0
C904 C 0.95929 0.87335 0.06929 0.0
C905 C 0.98321 0.8757 0.05374 0.0
H906 H 0.7855 0.33889 0.28471 0.0
H907 H 0.79752 0.34063 0.59677 0.0
H908 H 0.79348 0.38226 0.28988 0.0
H909 H 0.80621 0.38485 0.60208 0.0
H910 H 0.82159 0.4643 0.29712 0.0
H911 H 0.82401 0.42537 0.31013 0.0
H912 H 0.78413 0.40839 0.58705 0.0
H913 H 0.78309 0.4483 0.57596 0.0
C914 C 0.79057 0.34883 0.35427 0.0
C915 C 0.79107 0.33634 0.44021 0.0
C916 C 0.79522 0.37385 0.35732 0.0
C917 C 0.80073 0.38729 0.44634 0.0
C918 C 0.8018 0.37502 0.53237 0.0
C919 C 0.79691 0.34974 0.52937 0.0
C920 C 0.81378 0.45245 0.36159 0.0
C921 C 0.80188 0.45907 0.43496 0.0
C922 C 0.81498 0.43003 0.36886 0.0
C923 C 0.80369 0.41333 0.44847 0.0
C924 C 0.79313 0.42078 0.52488 0.0
C925 C 0.79242 0.44359 0.51848 0.0
H926 H 0.65669 0.45914 0.34338 0.0
H927 H 0.66486 0.43843 0.63877 0.0
H928 H 0.61429 0.42223 0.3347 0.0
H929 H 0.62295 0.40017 0.62654 0.0
H930 H 0.56482 0.33686 0.28708 0.0
H931 H 0.6019 0.37851 0.31399 0.0
H932 H 0.57681 0.37905 0.60982 0.0
H933 H 0.53961 0.33651 0.58329 0.0
C934 C 0.64938 0.44712 0.40753 0.0
C935 C 0.66466 0.45171 0.49124 0.0
C936 C 0.62509 0.42557 0.40172 0.0
C937 C 0.61552 0.40775 0.47862 0.0
C938 C 0.62978 0.41337 0.56554 0.0
C939 C 0.65401 0.4352 0.572 0.0
C940 C 0.56708 0.3458 0.35794 0.0
C941 C 0.54925 0.33335 0.43305 0.0
C942 C 0.58828 0.3699 0.37312 0.0
C943 C 0.5922 0.38239 0.46365 0.0
C944 C 0.5744 0.36994 0.53927 0.0
C945 C 0.55309 0.34561 0.52409 0.0
H946 H 0.57617 0.24255 0.5662 0.0
H947 H 0.52999 0.16934 0.42523 0.0
H948 H 0.61233 0.23546 0.56758 0.0
H949 H 0.56674 0.16269 0.42433 0.0
H950 H 0.64809 0.18822 0.2928 0.0
H951 H 0.60731 0.18555 0.32754 0.0
H952 H 0.63102 0.20869 0.62613 0.0
H953 H 0.67214 0.21132 0.59117 0.0
C954 C 0.5734 0.22457 0.53806 0.0
C955 C 0.55005 0.20662 0.49478 0.0
C956 C 0.59428 0.22056 0.53869 0.0
C957 C 0.59247 0.19864 0.49529 0.0
C958 C 0.56879 0.17996 0.45715 0.0
C959 C 0.54777 0.18384 0.45735 0.0
C960 C 0.64452 0.19242 0.36629 0.0
C961 C 0.66341 0.20021 0.43905 0.0
C962 C 0.62102 0.19065 0.38643 0.0
C963 C 0.61593 0.19691 0.47957 0.0
C964 C 0.63447 0.20385 0.55353 0.0
C965 C 0.65795 0.20529 0.53366 0.0
H966 H 0.4865 0.80119 0.65104 0.0
H967 H 0.4373 0.78046 0.90405 0.0
H968 H 0.49051 0.76341 0.67311 0.0
H969 H 0.44038 0.74175 0.92411 0.0
H970 H 0.46031 0.67838 0.95835 0.0
H971 H 0.46573 0.7214 0.95873 0.0
H972 H 0.46164 0.71956 0.64288 0.0
H973 H 0.45643 0.67721 0.64251 0.0
C974 C 0.4766 0.78853 0.71176 0.0
C975 C 0.46125 0.7935 0.77494 0.0
C976 C 0.47881 0.76681 0.72422 0.0
C977 C 0.46534 0.74922 0.79909 0.0
C978 C 0.45111 0.75494 0.86589 0.0
C979 C 0.44921 0.77702 0.85422 0.0
C980 C 0.46087 0.68737 0.88912 0.0
C981 C 0.45814 0.67439 0.80039 0.0
C982 C 0.46389 0.71196 0.88936 0.0
C983 C 0.46423 0.72403 0.80087 0.0
C984 C 0.46211 0.7112 0.71242 0.0
C985 C 0.45915 0.6868 0.71217 0.0
H986 H 0.21862 0.66496 0.88381 0.0
H987 H 0.19225 0.69149 0.64159 0.0
H988 H 0.25714 0.70669 0.89489 0.0
H989 H 0.22986 0.73383 0.65623 0.0
H990 H 0.31567 0.78563 0.59903 0.0
H991 H 0.27208 0.75091 0.61176 0.0
H992 H 0.27999 0.75056 0.92634 0.0
H993 H 0.32452 0.78425 0.91219 0.0
C994 C 0.22074 0.68004 0.83502 0.0
C995 C 0.20277 0.67499 0.76089 0.0
C996 C 0.24277 0.70408 0.84159 0.0
C997 C 0.24698 0.72369 0.77529 0.0
C998 C 0.22776 0.71905 0.70653 0.0
C999 C 0.2061 0.69486 0.69847 0.0
C1000 C 0.30811 0.77821 0.67102 0.0
C1001 C 0.3238 0.78729 0.75422 0.0
C1002 C 0.28285 0.75847 0.6787 0.0
C1003 C 0.27239 0.74753 0.77017 0.0
C1004 C 0.28751 0.75805 0.85443 0.0
C1005 C 0.31298 0.77766 0.84651 0.0
H1006 H 0.32095 0.53652 0.6225 0.0
H1007 H 0.33717 0.54695 0.93235 0.0
H1008 H 0.28039 0.53486 0.65052 0.0
H1009 H 0.29619 0.54502 0.96065 0.0
H1010 H 0.20285 0.52049 0.72204 0.0
H1011 H 0.23767 0.51083 0.72475 0.0
H1012 H 0.28028 0.57444 0.92075 0.0
H1013 H 0.24531 0.58365 0.91976 0.0
C1014 C 0.3157 0.53813 0.69687 0.0
C1015 C 0.33239 0.54214 0.7751 0.0
C1016 C 0.29229 0.53691 0.71306 0.0
C1017 C 0.28504 0.53978 0.80785 0.0
C1018 C 0.30134 0.54291 0.8867 0.0
C1019 C 0.32476 0.54397 0.87053 0.0
C1020 C 0.21933 0.53189 0.76801 0.0
C1021 C 0.22155 0.55303 0.81965 0.0
C1022 C 0.23935 0.52652 0.76885 0.0
C1023 C 0.26188 0.54211 0.8218 0.0
C1024 C 0.26318 0.562 0.87951 0.0
C1025 C 0.24324 0.56742 0.87831 0.0
H1026 H 0.1327 0.1897 0.69022 0.0
H1027 H 0.09669 0.23535 0.73597 0.0
H1028 H 0.14066 0.20337 0.51965 0.0
H1029 H 0.10398 0.24849 0.56556 0.0
H1030 H 0.13401 0.28026 0.27056 0.0
H1031 H 0.13754 0.27288 0.44416 0.0
H1032 H 0.11107 0.19318 0.38284 0.0
H1033 H 0.10822 0.20065 0.21069 0.0
C1034 C 0.12634 0.20248 0.66328 0.0
C1035 C 0.11381 0.21131 0.72461 0.0
C1036 C 0.13105 0.21042 0.56654 0.0
C1037 C 0.12296 0.22696 0.53038 0.0
C1038 C 0.11081 0.23609 0.59248 0.0
C1039 C 0.10632 0.22833 0.68924 0.0
C1040 C 0.12917 0.26127 0.29465 0.0
C1041 C 0.12058 0.24092 0.22837 0.0
C1042 C 0.13126 0.2571 0.39326 0.0
C1043 C 0.12456 0.23251 0.42597 0.0
C1044 C 0.11675 0.2124 0.35897 0.0
C1045 C 0.11481 0.21661 0.26076 0.0
H1046 H 0.79742 0.90876 0.24634 0.0
H1047 H 0.71866 0.85418 0.31368 0.0
H1048 H 0.80715 0.91625 0.41838 0.0
H1049 H 0.72806 0.86279 0.48786 0.0
H1050 H 0.76378 0.85816 0.7763 0.0
H1051 H 0.75178 0.85293 0.60467 0.0
H1052 H 0.80005 0.93444 0.56112 0.0
H1053 H 0.81299 0.93935 0.73203 0.0
C1054 C 0.78214 0.89853 0.29809 0.0
C1055 C 0.75746 0.88059 0.26722 0.0
C1056 C 0.78762 0.90311 0.39669 0.0
C1057 C 0.76835 0.89003 0.46612 0.0
C1058 C 0.74332 0.87278 0.43535 0.0
C1059 C 0.73794 0.86795 0.33618 0.0
C1060 C 0.77204 0.87483 0.72947 0.0
C1061 C 0.78956 0.89903 0.76601 0.0
C1062 C 0.76488 0.87193 0.63191 0.0
C1063 C 0.7749 0.89332 0.57018 0.0
C1064 C 0.79233 0.9176 0.60717 0.0
C1065 C 0.79981 0.92041 0.70445 0.0
H1066 H 0.14185 0.9056 0.77646 0.0
H1067 H 0.0609 0.87338 0.724 0.0
H1068 H 0.1485 0.90029 0.60491 0.0
H1069 H 0.06728 0.86684 0.55267 0.0
H1070 H 0.14872 0.86859 0.30653 0.0
H1071 H 0.13982 0.86821 0.48126 0.0
H1072 H 0.08683 0.89487 0.41678 0.0
H1073 H 0.09454 0.89371 0.24447 0.0
C1074 C 0.12552 0.89737 0.72789 0.0
C1075 C 0.10099 0.89033 0.76195 0.0
C1076 C 0.12925 0.89396 0.63034 0.0
C1077 C 0.10838 0.88315 0.56615 0.0
C1078 C 0.08371 0.8756 0.60085 0.0
C1079 C 0.08007 0.87942 0.69824 0.0
C1080 C 0.13514 0.87423 0.33034 0.0
C1081 C 0.12251 0.88152 0.26275 0.0
C1082 C 0.13008 0.87405 0.42972 0.0
C1083 C 0.11263 0.88147 0.46186 0.0
C1084 C 0.10003 0.88863 0.39386 0.0
C1085 C 0.10482 0.88847 0.29521 0.0
H1086 H 0.80028 0.61037 0.61982 0.0
H1087 H 0.78443 0.53419 0.54636 0.0
H1088 H 0.79596 0.59924 0.79298 0.0
H1089 H 0.77838 0.52253 0.71702 0.0
H1090 H 0.79435 0.51792 0.03677 0.0
H1091 H 0.80113 0.5299 0.86497 0.0
H1092 H 0.76218 0.57315 0.90412 0.0
H1093 H 0.75675 0.56212 0.07739 0.0
C1094 C 0.7958 0.59126 0.64065 0.0
C1095 C 0.79234 0.57298 0.56992 0.0
C1096 C 0.79309 0.58482 0.73936 0.0
C1097 C 0.78654 0.55994 0.76809 0.0
C1098 C 0.78368 0.54193 0.69718 0.0
C1099 C 0.78684 0.54851 0.59913 0.0
C1100 C 0.78693 0.52965 0.00788 0.0
C1101 C 0.77491 0.5391 0.06888 0.0
C1102 C 0.79084 0.53656 0.90992 0.0
C1103 C 0.78228 0.55255 0.87155 0.0
C1104 C 0.76944 0.56124 0.93235 0.0
C1105 C 0.766 0.55471 0.03075 0.0
H1106 H 0.42978 0.19469 0.06581 0.0
H1107 H 0.48444 0.27482 0.02546 0.0
H1108 H 0.41695 0.19138 0.89536 0.0
H1109 H 0.47096 0.2719 0.85567 0.0
H1110 H 0.46668 0.24467 0.53978 0.0
H1111 H 0.47609 0.25224 0.71225 0.0
H1112 H 0.39565 0.20468 0.77857 0.0
H1113 H 0.38647 0.19612 0.60409 0.0
C1114 C 0.43894 0.21155 0.02015 0.0
C1115 C 0.4583 0.23485 0.05724 0.0
C1116 C 0.43137 0.20979 0.92332 0.0
C1117 C 0.44291 0.23143 0.86285 0.0
C1118 C 0.46201 0.25488 0.90073 0.0
C1119 C 0.46983 0.25652 -0.00273 0.0
C1120 C 0.45104 0.23585 0.59107 0.0
C1121 C 0.42602 0.21949 0.55922 0.0
C1122 C 0.45635 0.24049 0.6898 0.0
C1123 C 0.43658 0.22895 0.7585 0.0
C1124 C 0.41126 0.21348 0.72666 0.0
C1125 C 0.40601 0.20866 0.62729 0.0
H1126 H 0.82049 0.20962 0.59655 0.0
H1127 H 0.7558 0.21819 0.51923 0.0
H1128 H 0.81319 0.21437 0.76874 0.0
H1129 H 0.75009 0.2256 0.68803 0.0
H1130 H 0.80831 0.24587 0.05948 0.0
H1131 H 0.81662 0.24461 0.88569 0.0
H1132 H 0.73501 0.20256 0.83125 0.0
H1133 H 0.72705 0.20559 0.00332 0.0
C1134 C 0.80499 0.21291 0.61629 0.0
C1135 C 0.78888 0.21392 0.54485 0.0
C1136 C 0.80099 0.21594 0.71443 0.0
C1137 C 0.78118 0.22056 0.7417 0.0
C1138 C 0.76528 0.22171 0.66968 0.0
C1139 C 0.76881 0.2179 0.57254 0.0
C1140 C 0.79231 0.23689 0.00931 0.0
C1141 C 0.76712 0.22598 0.04308 0.0
C1142 C 0.797 0.23587 0.91049 0.0
C1143 C 0.77647 0.22333 0.84509 0.0
C1144 C 0.75125 0.21283 0.87944 0.0
C1145 C 0.74663 0.21449 0.97774 0.0
H1146 H 0.42155 0.89721 0.39796 0.0
H1147 H 0.4732 0.86773 0.36081 0.0
H1148 H 0.42787 0.91075 0.22721 0.0
H1149 H 0.48022 0.88199 0.19083 0.0
H1150 H 0.4578 0.94679 0.93257 0.0
H1151 H 0.46048 0.94056 0.10819 0.0
H1152 H 0.451 0.86586 0.05053 0.0
H1153 H 0.44867 0.87211 0.87726 0.0
C1154 C 0.43434 0.89381 0.35297 0.0
C1155 C 0.44659 0.88114 0.39056 0.0
C1156 C 0.43822 0.90184 0.25621 0.0
C1157 C 0.45456 0.89741 0.19676 0.0
C1158 C 0.46736 0.88535 0.23554 0.0
C1159 C 0.46322 0.87706 0.33192 0.0
C1160 C 0.45656 0.9292 0.95786 0.0
C1161 C 0.45294 0.90986 0.89193 0.0
C1162 C 0.4581 0.92568 0.05775 0.0
C1163 C 0.45603 0.90281 0.09202 0.0
C1164 C 0.45314 0.88387 0.02567 0.0
C1165 C 0.45163 0.88739 0.92651 0.0
H1166 H 0.10299 0.52681 0.39626 0.0
H1167 H 0.14051 0.60843 0.35182 0.0
H1168 H 0.09084 0.51972 0.22444 0.0
H1169 H 0.12755 0.6015 0.18041 0.0
H1170 H 0.13206 0.57749 0.86781 0.0
H1171 H 0.14011 0.58574 0.04055 0.0
H1172 H 0.06352 0.52464 0.10409 0.0
H1173 H 0.05572 0.51571 0.92896 0.0
C1174 C 0.10855 0.54315 0.34933 0.0
C1175 C 0.12292 0.56806 0.38583 0.0
C1176 C 0.10133 0.53915 0.25173 0.0
C1177 C 0.10822 0.56009 0.18978 0.0
C1178 C 0.12229 0.58507 0.22685 0.0
C1179 C 0.12978 0.58904 0.32431 0.0
C1180 C 0.11689 0.56581 0.91828 0.0
C1181 C 0.09336 0.54585 0.88538 0.0
C1182 C 0.12142 0.57075 0.01725 0.0
C1183 C 0.10238 0.55588 0.08519 0.0
C1184 C 0.07856 0.5362 0.0526 0.0
C1185 C 0.07409 0.53113 0.95294 0.0
H1186 H 0.47559 0.57364 0.41002 0.0
H1187 H 0.39386 0.5353 0.36636 0.0
H1188 H 0.48167 0.56732 0.23844 0.0
H1189 H 0.39976 0.52813 0.19494 0.0
H1190 H 0.42609 0.55673 0.88261 0.0
H1191 H 0.41766 0.55653 0.05524 0.0
H1192 H 0.47364 0.5337 0.11847 0.0
H1193 H 0.48273 0.53471 0.94351 0.0
C1194 C 0.45899 0.56383 0.36336 0.0
C1195 C 0.43436 0.55524 0.4 0.0
C1196 C 0.4624 0.55989 0.26589 0.0
C1197 C 0.44115 0.54713 0.2042 0.0
C1198 C 0.41643 0.53822 0.24132 0.0
C1199 C 0.41307 0.54243 0.33872 0.0
C1200 C 0.43655 0.55158 0.93301 0.0
C1201 C 0.45518 0.54596 0.90014 0.0
C1202 C 0.4315 0.55118 0.03186 0.0
C1203 C 0.44496 0.54502 0.09965 0.0
C1204 C 0.46319 0.53871 0.06704 0.0
C1205 C 0.46835 0.53926 0.9675 0.0
loop_
_geom_bond_atom_site_label_1
_geom_bond_atom_site_label_2
_geom_bond_distance
_geom_bond_site_symmetry_2
_ccdc_geom_bond_type
Cd0 N3 2.334 . S
Cd0 N29 2.304 . S
Cd0 O36 2.268 . S
Cd0 O39 2.273 1_554 S
Cd0 O40 2.417 . S
Cd0 O41 2.330 1_554 S
Cd1 N16 2.304 1_554 S
Cd1 N20 2.334 . S
Cd1 O37 2.273 . S
Cd1 O38 2.268 1_554 S
Cd1 O42 2.417 1_554 S
Cd1 O43 2.330 . S
C2 N3 1.332 1_556 S
C2 C6 1.381 . S
C2 H8 0.931 . S
N3 Cd0 2.334 . S
N3 C2 1.332 1_554 S
N3 C7 1.328 . S
C4 C5 1.396 . S
C4 C7 1.378 . S
C4 H46 0.931 . S
C5 C4 1.396 . S
C5 C6 1.382 1_554 S
C6 C2 1.381 . S
C6 C5 1.382 1_556 S
C6 H47 0.930 . S
C7 N3 1.328 . S
C7 C4 1.378 . S
C7 H9 0.930 . S
H8 C2 0.931 . S
H9 C7 0.930 . S
C10 O36 1.238 . S
C10 O37 1.253 . S
C11 C12 1.379 . S
C11 N16 1.337 1_554 S
C11 H17 0.929 . S
C12 C11 1.379 . S
C12 C13 1.380 1_554 S
C12 H48 0.929 . S
C13 C12 1.380 1_556 S
C13 C14 1.399 . S
C14 C13 1.399 . S
C14 C15 1.376 . S
C14 H49 0.931 . S
C15 C14 1.376 . S
C15 N16 1.338 . S
C15 H18 0.930 . S
N16 Cd1 2.304 1_556 S
N16 C11 1.337 1_556 S
N16 C15 1.338 . S
H17 C11 0.929 . S
H18 C15 0.930 . S
C19 N20 1.332 . S
C19 C23 1.381 . S
C19 H25 0.931 . S
N20 Cd1 2.334 . S
N20 C19 1.332 . S
N20 C24 1.328 1_554 S
C21 C22 1.396 1_556 S
C21 C24 1.378 . S
C21 H50 0.931 . S
C22 C21 1.396 1_554 S
C22 C23 1.382 . S
C23 C19 1.381 . S
C23 C22 1.382 . S
C23 H51 0.930 . S
C24 N20 1.328 1_556 S
C24 C21 1.378 . S
C24 H26 0.930 . S
H25 C19 0.931 . S
H26 C24 0.930 . S
C27 O38 1.238 . S
C27 O39 1.253 . S
C28 O40 1.239 . S
C28 O41 1.230 1_554 S
N29 Cd0 2.304 . S
N29 C30 1.333 1_554 S
N29 C34 1.342 . S
C30 N29 1.333 1_556 S
C30 C31 1.379 . S
C30 H44 0.929 . S
C31 C30 1.379 . S
C31 C32 1.380 . S
C31 H52 0.929 . S
C32 C31 1.380 . S
C32 C33 1.399 1_556 S
C33 C32 1.399 1_554 S
C33 C34 1.376 . S
C33 H53 0.931 . S
C34 N29 1.342 . S
C34 C33 1.376 . S
C34 H45 0.930 . S
C35 O42 1.239 . S
C35 O43 1.230 1_556 S
O36 Cd0 2.268 . S
O36 C10 1.238 . S
O37 Cd1 2.273 . S
O37 C10 1.253 . S
O38 Cd1 2.268 1_556 S
O38 C27 1.238 . S
O39 Cd0 2.273 1_556 S
O39 C27 1.253 . S
O40 Cd0 2.417 . S
O40 C28 1.239 . S
O41 Cd0 2.330 1_556 S
O41 C28 1.230 1_556 S
O42 Cd1 2.417 1_556 S
O42 C35 1.239 . S
O43 Cd1 2.330 . S
O43 C35 1.230 1_554 S
H44 C30 0.929 . S
H45 C34 0.930 . S
H46 C4 0.931 . S
H47 C6 0.930 . S
H48 C12 0.929 . S
H49 C14 0.931 . S
H50 C21 0.931 . S
H51 C23 0.930 . S
H52 C31 0.929 . S
H53 C33 0.931 . S
Cd54 N57 2.334 . S
Cd54 N83 2.304 . S
Cd54 O90 2.277 . S
Cd54 O93 2.261 1_554 S
Cd54 O94 2.424 . S
Cd54 O95 2.327 1_554 S
Cd55 N70 2.304 1_554 S
Cd55 N74 2.334 . S
Cd55 O91 2.273 . S
Cd55 O92 2.268 1_554 S
Cd55 O96 2.417 1_554 S
Cd55 O97 2.330 . S
C56 N57 1.332 1_556 S
C56 C60 1.381 . S
C56 H62 0.931 . S
N57 Cd54 2.334 . S
N57 C56 1.332 1_554 S
N57 C61 1.328 . S
C58 C59 1.396 . S
C58 C61 1.378 . S
C58 H100 0.931 . S
C59 C58 1.396 . S
C59 C60 1.382 1_554 S
C60 C56 1.381 . S
C60 C59 1.382 1_556 S
C60 H101 0.930 . S
C61 N57 1.328 . S
C61 C58 1.378 . S
C61 H63 0.930 . S
H62 C56 0.931 . S
H63 C61 0.930 . S
C64 O90 1.238 . S
C64 O91 1.253 . S
C65 C66 1.379 . S
C65 N70 1.337 1_554 S
C65 H71 0.929 . S
C66 C65 1.379 . S
C66 C67 1.380 1_554 S
C66 H102 0.929 . S
C67 C66 1.380 1_556 S
C67 C68 1.399 . S
C68 C67 1.399 . S
C68 C69 1.376 . S
C68 H103 0.931 . S
C69 C68 1.376 . S
C69 N70 1.338 . S
C69 H72 0.930 . S
N70 Cd55 2.304 1_556 S
N70 C65 1.337 1_556 S
N70 C69 1.338 . S
H71 C65 0.929 . S
H72 C69 0.930 . S
C73 N74 1.332 . S
C73 C77 1.381 . S
C73 H79 0.931 . S
N74 Cd55 2.334 . S
N74 C73 1.332 . S
N74 C78 1.328 1_554 S
C75 C76 1.396 1_556 S
C75 C78 1.378 . S
C75 H104 0.931 . S
C76 C75 1.396 1_554 S
C76 C77 1.382 . S
C77 C73 1.381 . S
C77 C76 1.382 . S
C77 H105 0.930 . S
C78 N74 1.328 1_556 S
C78 C75 1.378 . S
C78 H80 0.930 . S
H79 C73 0.931 . S
H80 C78 0.930 . S
C81 O92 1.238 . S
C81 O93 1.253 . S
C82 O94 1.239 . S
C82 O95 1.230 1_554 S
N83 Cd54 2.304 . S
N83 C84 1.334 1_554 S
N83 C88 1.342 . S
C84 N83 1.334 1_556 S
C84 C85 1.379 . S
C84 H98 0.929 . S
C85 C84 1.379 . S
C85 C86 1.380 . S
C85 H106 0.929 . S
C86 C85 1.380 . S
C86 C87 1.399 1_556 S
C87 C86 1.399 1_554 S
C87 C88 1.376 . S
C87 H107 0.931 . S
C88 N83 1.342 . S
C88 C87 1.376 . S
C88 H99 0.930 . S
C89 O96 1.239 . S
C89 O97 1.230 1_556 S
O90 Cd54 2.277 . S
O90 C64 1.238 . S
O91 Cd55 2.273 . S
O91 C64 1.253 . S
O92 Cd55 2.268 1_556 S
O92 C81 1.238 . S
O93 Cd54 2.261 1_556 S
O93 C81 1.253 . S
O94 Cd54 2.424 . S
O94 C82 1.239 . S
O95 Cd54 2.327 1_556 S
O95 C82 1.230 1_556 S
O96 Cd55 2.417 1_556 S
O96 C89 1.239 . S
O97 Cd55 2.330 . S
O97 C89 1.230 1_554 S
H98 C84 0.929 . S
H99 C88 0.930 . S
H100 C58 0.931 . S
H101 C60 0.930 . S
H102 C66 0.929 . S
H103 C68 0.931 . S
H104 C75 0.931 . S
H105 C77 0.930 . S
H106 C85 0.929 . S
H107 C87 0.931 . S
Cd108 N111 2.334 . S
Cd108 N137 2.304 . S
Cd108 O144 2.275 . S
Cd108 O147 2.263 1_554 S
Cd108 O148 2.423 . S
Cd108 O149 2.328 1_554 S
Cd109 N124 2.304 1_554 S
Cd109 N128 2.334 . S
Cd109 O145 2.273 . S
Cd109 O146 2.268 1_554 S
Cd109 O150 2.417 1_554 S
Cd109 O151 2.330 . S
C110 N111 1.332 1_556 S
C110 C114 1.381 . S
C110 H116 0.931 . S
N111 Cd108 2.334 . S
N111 C110 1.332 1_554 S
N111 C115 1.328 . S
C112 C113 1.396 . S
C112 C115 1.378 . S
C112 H154 0.931 . S
C113 C112 1.396 . S
C113 C114 1.382 1_554 S
C114 C110 1.381 . S
C114 C113 1.382 1_556 S
C114 H155 0.930 . S
C115 N111 1.328 . S
C115 C112 1.378 . S
C115 H117 0.930 . S
H116 C110 0.931 . S
H117 C115 0.930 . S
C118 O144 1.238 . S
C118 O145 1.253 . S
C119 C120 1.379 . S
C119 N124 1.337 1_554 S
C119 H125 0.929 . S
C120 C119 1.379 . S
C120 C121 1.380 1_554 S
C120 H156 0.929 . S
C121 C120 1.380 1_556 S
C121 C122 1.399 . S
C122 C121 1.399 . S
C122 C123 1.376 . S
C122 H157 0.931 . S
C123 C122 1.376 . S
C123 N124 1.338 . S
C123 H126 0.930 . S
N124 Cd109 2.304 1_556 S
N124 C119 1.337 1_556 S
N124 C123 1.338 . S
H125 C119 0.929 . S
H126 C123 0.930 . S
C127 N128 1.332 . S
C127 C131 1.381 . S
C127 H133 0.931 . S
N128 Cd109 2.334 . S
N128 C127 1.332 . S
N128 C132 1.328 1_554 S
C129 C130 1.396 1_556 S
C129 C132 1.378 . S
C129 H158 0.931 . S
C130 C129 1.396 1_554 S
C130 C131 1.382 . S
C131 C127 1.381 . S
C131 C130 1.382 . S
C131 H159 0.930 . S
C132 N128 1.328 1_556 S
C132 C129 1.378 . S
C132 H134 0.930 . S
H133 C127 0.931 . S
H134 C132 0.930 . S
C135 O146 1.238 . S
C135 O147 1.253 . S
C136 O148 1.239 . S
C136 O149 1.230 1_554 S
N137 Cd108 2.304 . S
N137 C138 1.335 1_554 S
N137 C142 1.341 . S
C138 N137 1.335 1_556 S
C138 C139 1.379 . S
C138 H152 0.929 . S
C139 C138 1.379 . S
C139 C140 1.380 . S
C139 H160 0.929 . S
C140 C139 1.380 . S
C140 C141 1.399 1_556 S
C141 C140 1.399 1_554 S
C141 C142 1.376 . S
C141 H161 0.931 . S
C142 N137 1.341 . S
C142 C141 1.376 . S
C142 H153 0.930 . S
C143 O150 1.239 . S
C143 O151 1.230 1_556 S
O144 Cd108 2.275 . S
O144 C118 1.238 . S
O145 Cd109 2.273 . S
O145 C118 1.253 . S
O146 Cd109 2.268 1_556 S
O146 C135 1.238 . S
O147 Cd108 2.263 1_556 S
O147 C135 1.253 . S
O148 Cd108 2.423 . S
O148 C136 1.239 . S
O149 Cd108 2.328 1_556 S
O149 C136 1.230 1_556 S
O150 Cd109 2.417 1_556 S
O150 C143 1.239 . S
O151 Cd109 2.330 . S
O151 C143 1.230 1_554 S
H152 C138 0.929 . S
H153 C142 0.930 . S
H154 C112 0.931 . S
H155 C114 0.930 . S
H156 C120 0.929 . S
H157 C122 0.931 . S
H158 C129 0.931 . S
H159 C131 0.930 . S
H160 C139 0.929 . S
H161 C141 0.931 . S
Cd162 N165 2.334 . S
Cd162 N191 2.304 . S
Cd162 O198 2.268 . S
Cd162 O201 2.273 . S
Cd162 O202 2.417 . S
Cd162 O203 2.330 . S
Cd163 N178 2.304 . S
Cd163 N182 2.334 . S
Cd163 O199 2.273 . S
Cd163 O200 2.268 . S
Cd163 O204 2.417 . S
Cd163 O205 2.330 . S
C164 N165 1.332 . S
C164 C168 1.381 . S
C164 H170 0.931 . S
N165 Cd162 2.334 . S
N165 C164 1.332 . S
N165 C169 1.328 . S
C166 C167 1.396 . S
C166 C169 1.378 . S
C166 H208 0.931 . S
C167 C166 1.396 . S
C167 C168 1.382 . S
C168 C164 1.381 . S
C168 C167 1.382 . S
C168 H209 0.930 . S
C169 N165 1.328 . S
C169 C166 1.378 . S
C169 H171 0.930 . S
H170 C164 0.931 . S
H171 C169 0.930 . S
C172 O198 1.238 . S
C172 O199 1.253 . S
C173 C174 1.379 . S
C173 N178 1.337 . S
C173 H179 0.929 . S
C174 C173 1.379 . S
C174 C175 1.380 . S
C174 H210 0.929 . S
C175 C174 1.380 . S
C175 C176 1.399 . S
C176 C175 1.399 . S
C176 C177 1.376 . S
C176 H211 0.931 . S
C177 C176 1.376 . S
C177 N178 1.338 . S
C177 H180 0.930 . S
N178 Cd163 2.304 . S
N178 C173 1.337 . S
N178 C177 1.338 . S
H179 C173 0.929 . S
H180 C177 0.930 . S
C181 N182 1.332 . S
C181 C185 1.381 . S
C181 H187 0.931 . S
N182 Cd163 2.334 . S
N182 C181 1.332 . S
N182 C186 1.328 . S
C183 C184 1.396 . S
C183 C186 1.378 . S
C183 H212 0.931 . S
C184 C183 1.396 . S
C184 C185 1.382 . S
C185 C181 1.381 . S
C185 C184 1.382 . S
C185 H213 0.930 . S
C186 N182 1.328 . S
C186 C183 1.378 . S
C186 H188 0.930 . S
H187 C181 0.931 . S
H188 C186 0.930 . S
C189 O200 1.238 . S
C189 O201 1.253 . S
C190 O202 1.239 . S
C190 O203 1.230 . S
N191 Cd162 2.304 . S
N191 C192 1.337 . S
N191 C196 1.338 . S
C192 N191 1.337 . S
C192 C193 1.379 . S
C192 H206 0.929 . S
C193 C192 1.379 . S
C193 C194 1.380 . S
C193 H214 0.929 . S
C194 C193 1.380 . S
C194 C195 1.399 . S
C195 C194 1.399 . S
C195 C196 1.376 . S
C195 H215 0.931 . S
C196 N191 1.338 . S
C196 C195 1.376 . S
C196 H207 0.930 . S
C197 O204 1.239 . S
C197 O205 1.230 . S
O198 Cd162 2.268 . S
O198 C172 1.238 . S
O199 Cd163 2.273 . S
O199 C172 1.253 . S
O200 Cd163 2.268 . S
O200 C189 1.238 . S
O201 Cd162 2.273 . S
O201 C189 1.253 . S
O202 Cd162 2.417 . S
O202 C190 1.239 . S
O203 Cd162 2.330 . S
O203 C190 1.230 . S
O204 Cd163 2.417 . S
O204 C197 1.239 . S
O205 Cd163 2.330 . S
O205 C197 1.230 . S
H206 C192 0.929 . S
H207 C196 0.930 . S
H208 C166 0.931 . S
H209 C168 0.930 . S
H210 C174 0.929 . S
H211 C176 0.931 . S
H212 C183 0.931 . S
H213 C185 0.930 . S
H214 C193 0.929 . S
H215 C195 0.931 . S
Cd216 N219 2.334 . S
Cd216 N245 2.304 . S
Cd216 O252 2.268 . S
Cd216 O255 2.273 . S
Cd216 O256 2.417 . S
Cd216 O257 2.330 . S
Cd217 N232 2.304 . S
Cd217 N236 2.334 . S
Cd217 O253 2.273 . S
Cd217 O254 2.268 . S
Cd217 O258 2.417 . S
Cd217 O259 2.330 . S
C218 N219 1.332 . S
C218 C222 1.381 . S
C218 H224 0.931 . S
N219 Cd216 2.334 . S
N219 C218 1.332 . S
N219 C223 1.328 . S
C220 C221 1.396 . S
C220 C223 1.378 . S
C220 H262 0.931 . S
C221 C220 1.396 . S
C221 C222 1.382 . S
C222 C218 1.381 . S
C222 C221 1.382 . S
C222 H263 0.930 . S
C223 N219 1.328 . S
C223 C220 1.378 . S
C223 H225 0.930 . S
H224 C218 0.931 . S
H225 C223 0.930 . S
C226 O252 1.238 . S
C226 O253 1.253 . S
C227 C228 1.379 . S
C227 N232 1.337 . S
C227 H233 0.929 . S
C228 C227 1.379 . S
C228 C229 1.380 . S
C228 H264 0.929 . S
C229 C228 1.380 . S
C229 C230 1.399 . S
C230 C229 1.399 . S
C230 C231 1.376 . S
C230 H265 0.931 . S
C231 C230 1.376 . S
C231 N232 1.338 . S
C231 H234 0.930 . S
N232 Cd217 2.304 . S
N232 C227 1.337 . S
N232 C231 1.338 . S
H233 C227 0.929 . S
H234 C231 0.930 . S
C235 N236 1.332 . S
C235 C239 1.381 . S
C235 H241 0.931 . S
N236 Cd217 2.334 . S
N236 C235 1.332 . S
N236 C240 1.328 . S
C237 C238 1.396 . S
C237 C240 1.378 . S
C237 H266 0.931 . S
C238 C237 1.396 . S
C238 C239 1.382 . S
C239 C235 1.381 . S
C239 C238 1.382 . S
C239 H267 0.930 . S
C240 N236 1.328 . S
C240 C237 1.378 . S
C240 H242 0.930 . S
H241 C235 0.931 . S
H242 C240 0.930 . S
C243 O254 1.238 . S
C243 O255 1.253 . S
C244 O256 1.239 . S
C244 O257 1.230 . S
N245 Cd216 2.304 . S
N245 C246 1.337 . S
N245 C250 1.338 . S
C246 N245 1.337 . S
C246 C247 1.379 . S
C246 H260 0.929 . S
C247 C246 1.379 . S
C247 C248 1.380 . S
C247 H268 0.929 . S
C248 C247 1.380 . S
C248 C249 1.399 . S
C249 C248 1.399 . S
C249 C250 1.376 . S
C249 H269 0.931 . S
C250 N245 1.338 . S
C250 C249 1.376 . S
C250 H261 0.930 . S
C251 O258 1.239 . S
C251 O259 1.230 . S
O252 Cd216 2.268 . S
O252 C226 1.238 . S
O253 Cd217 2.273 . S
O253 C226 1.253 . S
O254 Cd217 2.268 . S
O254 C243 1.238 . S
O255 Cd216 2.273 . S
O255 C243 1.253 . S
O256 Cd216 2.417 . S
O256 C244 1.239 . S
O257 Cd216 2.330 . S
O257 C244 1.230 . S
O258 Cd217 2.417 . S
O258 C251 1.239 . S
O259 Cd217 2.330 . S
O259 C251 1.230 . S
H260 C246 0.929 . S
H261 C250 0.930 . S
H262 C220 0.931 . S
H263 C222 0.930 . S
H264 C228 0.929 . S
H265 C230 0.931 . S
H266 C237 0.931 . S
H267 C239 0.930 . S
H268 C247 0.929 . S
H269 C249 0.931 . S
Cd270 N273 2.334 . S
Cd270 N299 2.304 . S
Cd270 O306 2.268 . S
Cd270 O309 2.273 . S
Cd270 O310 2.417 . S
Cd270 O311 2.330 . S
Cd271 N286 2.304 . S
Cd271 N290 2.334 . S
Cd271 O307 2.273 . S
Cd271 O308 2.268 . S
Cd271 O312 2.417 . S
Cd271 O313 2.330 . S
C272 N273 1.332 . S
C272 C276 1.381 . S
C272 H278 0.931 . S
N273 Cd270 2.334 . S
N273 C272 1.332 . S
N273 C277 1.328 . S
C274 C275 1.396 . S
C274 C277 1.378 . S
C274 H316 0.931 . S
C275 C274 1.396 . S
C275 C276 1.382 . S
C276 C272 1.381 . S
C276 C275 1.382 . S
C276 H317 0.930 . S
C277 N273 1.328 . S
C277 C274 1.378 . S
C277 H279 0.930 . S
H278 C272 0.931 . S
H279 C277 0.930 . S
C280 O306 1.238 . S
C280 O307 1.253 . S
C281 C282 1.379 . S
C281 N286 1.337 . S
C281 H287 0.929 . S
C282 C281 1.379 . S
C282 C283 1.380 . S
C282 H318 0.929 . S
C283 C282 1.380 . S
C283 C284 1.399 . S
C284 C283 1.399 . S
C284 C285 1.376 . S
C284 H319 0.931 . S
C285 C284 1.376 . S
C285 N286 1.338 . S
C285 H288 0.930 . S
N286 Cd271 2.304 . S
N286 C281 1.337 . S
N286 C285 1.338 . S
H287 C281 0.929 . S
H288 C285 0.930 . S
C289 N290 1.332 . S
C289 C293 1.381 . S
C289 H295 0.931 . S
N290 Cd271 2.334 . S
N290 C289 1.332 . S
N290 C294 1.328 . S
C291 C292 1.396 . S
C291 C294 1.378 . S
C291 H320 0.931 . S
C292 C291 1.396 . S
C292 C293 1.382 . S
C293 C289 1.381 . S
C293 C292 1.382 . S
C293 H321 0.930 . S
C294 N290 1.328 . S
C294 C291 1.378 . S
C294 H296 0.930 . S
H295 C289 0.931 . S
H296 C294 0.930 . S
C297 O308 1.238 . S
C297 O309 1.253 . S
C298 O310 1.239 . S
C298 O311 1.230 . S
N299 Cd270 2.304 . S
N299 C300 1.337 . S
N299 C304 1.338 . S
C300 N299 1.337 . S
C300 C301 1.379 . S
C300 H314 0.929 . S
C301 C300 1.379 . S
C301 C302 1.380 . S
C301 H322 0.929 . S
C302 C301 1.380 . S
C302 C303 1.399 . S
C303 C302 1.399 . S
C303 C304 1.376 . S
C303 H323 0.931 . S
C304 N299 1.338 . S
C304 C303 1.376 . S
C304 H315 0.930 . S
C305 O312 1.239 . S
C305 O313 1.230 . S
O306 Cd270 2.268 . S
O306 C280 1.238 . S
O307 Cd271 2.273 . S
O307 C280 1.253 . S
O308 Cd271 2.268 . S
O308 C297 1.238 . S
O309 Cd270 2.273 . S
O309 C297 1.253 . S
O310 Cd270 2.417 . S
O310 C298 1.239 . S
O311 Cd270 2.330 . S
O311 C298 1.230 . S
O312 Cd271 2.417 . S
O312 C305 1.239 . S
O313 Cd271 2.330 . S
O313 C305 1.230 . S
H314 C300 0.929 . S
H315 C304 0.930 . S
H316 C274 0.931 . S
H317 C276 0.930 . S
H318 C282 0.929 . S
H319 C284 0.931 . S
H320 C291 0.931 . S
H321 C293 0.930 . S
H322 C301 0.929 . S
H323 C303 0.931 . S
Cd324 N327 2.334 . S
Cd324 N353 2.304 . S
Cd324 O360 2.268 . S
Cd324 O363 2.273 . S
Cd324 O364 2.417 . S
Cd324 O365 2.330 . S
Cd325 N340 2.304 . S
Cd325 N344 2.334 . S
Cd325 O361 2.273 . S
Cd325 O362 2.268 . S
Cd325 O366 2.417 . S
Cd325 O367 2.330 . S
C326 N327 1.332 . S
C326 C330 1.381 . S
C326 H332 0.931 . S
N327 Cd324 2.334 . S
N327 C326 1.332 . S
N327 C331 1.328 . S
C328 C329 1.396 . S
C328 C331 1.378 . S
C328 H370 0.931 . S
C329 C328 1.396 . S
C329 C330 1.382 . S
C330 C326 1.381 . S
C330 C329 1.382 . S
C330 H371 0.930 . S
C331 N327 1.328 . S
C331 C328 1.378 . S
C331 H333 0.930 . S
H332 C326 0.931 . S
H333 C331 0.930 . S
C334 O360 1.238 . S
C334 O361 1.253 . S
C335 C336 1.379 . S
C335 N340 1.337 . S
C335 H341 0.929 . S
C336 C335 1.379 . S
C336 C337 1.380 . S
C336 H372 0.929 . S
C337 C336 1.380 . S
C337 C338 1.399 . S
C338 C337 1.399 . S
C338 C339 1.376 . S
C338 H373 0.931 . S
C339 C338 1.376 . S
C339 N340 1.338 . S
C339 H342 0.930 . S
N340 Cd325 2.304 . S
N340 C335 1.337 . S
N340 C339 1.338 . S
H341 C335 0.929 . S
H342 C339 0.930 . S
C343 N344 1.332 . S
C343 C347 1.381 . S
C343 H349 0.931 . S
N344 Cd325 2.334 . S
N344 C343 1.332 . S
N344 C348 1.328 . S
C345 C346 1.396 . S
C345 C348 1.378 . S
C345 H374 0.931 . S
C346 C345 1.396 . S
C346 C347 1.382 . S
C347 C343 1.381 . S
C347 C346 1.382 . S
C347 H375 0.930 . S
C348 N344 1.328 . S
C348 C345 1.378 . S
C348 H350 0.930 . S
H349 C343 0.931 . S
H350 C348 0.930 . S
C351 O362 1.238 . S
C351 O363 1.253 . S
C352 O364 1.239 . S
C352 O365 1.230 . S
N353 Cd324 2.304 . S
N353 C354 1.337 . S
N353 C358 1.338 . S
C354 N353 1.337 . S
C354 C355 1.379 . S
C354 H368 0.929 . S
C355 C354 1.379 . S
C355 C356 1.380 . S
C355 H376 0.929 . S
C356 C355 1.380 . S
C356 C357 1.399 . S
C357 C356 1.399 . S
C357 C358 1.376 . S
C357 H377 0.931 . S
C358 N353 1.338 . S
C358 C357 1.376 . S
C358 H369 0.930 . S
C359 O366 1.239 . S
C359 O367 1.230 . S
O360 Cd324 2.268 . S
O360 C334 1.238 . S
O361 Cd325 2.273 . S
O361 C334 1.253 . S
O362 Cd325 2.268 . S
O362 C351 1.238 . S
O363 Cd324 2.273 . S
O363 C351 1.253 . S
O364 Cd324 2.417 . S
O364 C352 1.239 . S
O365 Cd324 2.330 . S
O365 C352 1.230 . S
O366 Cd325 2.417 . S
O366 C359 1.239 . S
O367 Cd325 2.330 . S
O367 C359 1.230 . S
H368 C354 0.929 . S
H369 C358 0.930 . S
H370 C328 0.931 . S
H371 C330 0.930 . S
H372 C336 0.929 . S
H373 C338 0.931 . S
H374 C345 0.931 . S
H375 C347 0.930 . S
H376 C355 0.929 . S
H377 C357 0.931 . S
Cd378 N381 2.334 . S
Cd378 N407 2.304 . S
Cd378 O414 2.268 . S
Cd378 O417 2.273 . S
Cd378 O418 2.417 . S
Cd378 O419 2.330 . S
Cd379 N394 2.304 . S
Cd379 N398 2.334 . S
Cd379 O415 2.273 . S
Cd379 O416 2.268 . S
Cd379 O420 2.417 . S
Cd379 O421 2.330 . S
C380 N381 1.332 . S
C380 C384 1.381 . S
C380 H386 0.931 . S
N381 Cd378 2.334 . S
N381 C380 1.332 . S
N381 C385 1.328 . S
C382 C383 1.396 . S
C382 C385 1.378 . S
C382 H424 0.931 . S
C383 C382 1.396 . S
C383 C384 1.382 . S
C384 C380 1.381 . S
C384 C383 1.382 . S
C384 H425 0.930 . S
C385 N381 1.328 . S
C385 C382 1.378 . S
C385 H387 0.930 . S
H386 C380 0.931 . S
H387 C385 0.930 . S
C388 O414 1.238 . S
C388 O415 1.253 . S
C389 C390 1.379 . S
C389 N394 1.337 . S
C389 H395 0.929 . S
C390 C389 1.379 . S
C390 C391 1.380 . S
C390 H426 0.929 . S
C391 C390 1.380 . S
C391 C392 1.399 . S
C392 C391 1.399 . S
C392 C393 1.376 . S
C392 H427 0.931 . S
C393 C392 1.376 . S
C393 N394 1.338 . S
C393 H396 0.930 . S
N394 Cd379 2.304 . S
N394 C389 1.337 . S
N394 C393 1.338 . S
H395 C389 0.929 . S
H396 C393 0.930 . S
C397 N398 1.332 . S
C397 C401 1.381 . S
C397 H403 0.931 . S
N398 Cd379 2.334 . S
N398 C397 1.332 . S
N398 C402 1.328 . S
C399 C400 1.396 . S
C399 C402 1.378 . S
C399 H428 0.931 . S
C400 C399 1.396 . S
C400 C401 1.382 . S
C401 C397 1.381 . S
C401 C400 1.382 . S
C401 H429 0.930 . S
C402 N398 1.328 . S
C402 C399 1.378 . S
C402 H404 0.930 . S
H403 C397 0.931 . S
H404 C402 0.930 . S
C405 O416 1.238 . S
C405 O417 1.253 . S
C406 O418 1.239 . S
C406 O419 1.230 . S
N407 Cd378 2.304 . S
N407 C408 1.337 . S
N407 C412 1.338 . S
C408 N407 1.337 . S
C408 C409 1.379 . S
C408 H422 0.929 . S
C409 C408 1.379 . S
C409 C410 1.380 . S
C409 H430 0.929 . S
C410 C409 1.380 . S
C410 C411 1.399 . S
C411 C410 1.399 . S
C411 C412 1.376 . S
C411 H431 0.931 . S
C412 N407 1.338 . S
C412 C411 1.376 . S
C412 H423 0.930 . S
C413 O420 1.239 . S
C413 O421 1.230 . S
O414 Cd378 2.268 . S
O414 C388 1.238 . S
O415 Cd379 2.273 . S
O415 C388 1.253 . S
O416 Cd379 2.268 . S
O416 C405 1.238 . S
O417 Cd378 2.273 . S
O417 C405 1.253 . S
O418 Cd378 2.417 . S
O418 C406 1.239 . S
O419 Cd378 2.330 . S
O419 C406 1.230 . S
O420 Cd379 2.417 . S
O420 C413 1.239 . S
O421 Cd379 2.330 . S
O421 C413 1.230 . S
H422 C408 0.929 . S
H423 C412 0.930 . S
H424 C382 0.931 . S
H425 C384 0.930 . S
H426 C390 0.929 . S
H427 C392 0.931 . S
H428 C399 0.931 . S
H429 C401 0.930 . S
H430 C409 0.929 . S
H431 C411 0.931 . S
Cd432 N435 2.334 . S
Cd432 N461 2.304 . S
Cd432 O468 2.268 . S
Cd432 O471 2.273 . S
Cd432 O472 2.417 . S
Cd432 O473 2.330 . S
Cd433 N448 2.304 . S
Cd433 N452 2.334 . S
Cd433 O469 2.273 . S
Cd433 O470 2.268 . S
Cd433 O474 2.417 . S
Cd433 O475 2.330 . S
C434 N435 1.332 . S
C434 C438 1.381 . S
C434 H440 0.931 . S
N435 Cd432 2.334 . S
N435 C434 1.332 . S
N435 C439 1.328 . S
C436 C437 1.396 . S
C436 C439 1.378 . S
C436 H478 0.931 . S
C437 C436 1.396 . S
C437 C438 1.382 . S
C438 C434 1.381 . S
C438 C437 1.382 . S
C438 H479 0.930 . S
C439 N435 1.328 . S
C439 C436 1.378 . S
C439 H441 0.930 . S
H440 C434 0.931 . S
H441 C439 0.930 . S
C442 O468 1.238 . S
C442 O469 1.253 . S
C443 C444 1.379 . S
C443 N448 1.337 . S
C443 H449 0.929 . S
C444 C443 1.379 . S
C444 C445 1.380 . S
C444 H480 0.929 . S
C445 C444 1.380 . S
C445 C446 1.399 . S
C446 C445 1.399 . S
C446 C447 1.376 . S
C446 H481 0.931 . S
C447 C446 1.376 . S
C447 N448 1.338 . S
C447 H450 0.930 . S
N448 Cd433 2.304 . S
N448 C443 1.337 . S
N448 C447 1.338 . S
H449 C443 0.929 . S
H450 C447 0.930 . S
C451 N452 1.332 . S
C451 C455 1.381 . S
C451 H457 0.931 . S
N452 Cd433 2.334 . S
N452 C451 1.332 . S
N452 C456 1.328 . S
C453 C454 1.396 . S
C453 C456 1.378 . S
C453 H482 0.931 . S
C454 C453 1.396 . S
C454 C455 1.382 . S
C455 C451 1.381 . S
C455 C454 1.382 . S
C455 H483 0.930 . S
C456 N452 1.328 . S
C456 C453 1.378 . S
C456 H458 0.930 . S
H457 C451 0.931 . S
H458 C456 0.930 . S
C459 O470 1.238 . S
C459 O471 1.253 . S
C460 O472 1.239 . S
C460 O473 1.230 . S
N461 Cd432 2.304 . S
N461 C462 1.337 . S
N461 C466 1.338 . S
C462 N461 1.337 . S
C462 C463 1.379 . S
C462 H476 0.929 . S
C463 C462 1.379 . S
C463 C464 1.380 . S
C463 H484 0.929 . S
C464 C463 1.380 . S
C464 C465 1.399 . S
C465 C464 1.399 . S
C465 C466 1.376 . S
C465 H485 0.931 . S
C466 N461 1.338 . S
C466 C465 1.376 . S
C466 H477 0.930 . S
C467 O474 1.239 . S
C467 O475 1.230 . S
O468 Cd432 2.268 . S
O468 C442 1.238 . S
O469 Cd433 2.273 . S
O469 C442 1.253 . S
O470 Cd433 2.268 . S
O470 C459 1.238 . S
O471 Cd432 2.273 . S
O471 C459 1.253 . S
O472 Cd432 2.417 . S
O472 C460 1.239 . S
O473 Cd432 2.330 . S
O473 C460 1.230 . S
O474 Cd433 2.417 . S
O474 C467 1.239 . S
O475 Cd433 2.330 . S
O475 C467 1.230 . S
H476 C462 0.929 . S
H477 C466 0.930 . S
H478 C436 0.931 . S
H479 C438 0.930 . S
H480 C444 0.929 . S
H481 C446 0.931 . S
H482 C453 0.931 . S
H483 C455 0.930 . S
H484 C463 0.929 . S
H485 C465 0.931 . S
H486 C494 0.950 . S
H487 C499 0.950 1_556 S
H488 C496 0.950 . S
H489 C498 0.950 . S
H490 C500 0.950 . S
H491 C502 0.950 . S
H492 C504 0.950 . S
H493 C505 0.950 . S
C494 H486 0.950 . S
C494 C495 1.386 . S
C494 C496 1.391 . S
C495 C494 1.386 . S
C495 C499 1.393 . S
C496 H488 0.950 . S
C496 C494 1.391 . S
C496 C497 1.400 . S
C497 C496 1.400 . S
C497 C498 1.398 . S
C497 C503 1.491 . S
C498 H489 0.950 . S
C498 C497 1.398 . S
C498 C499 1.391 . S
C499 H487 0.950 1_554 S
C499 C495 1.393 . S
C499 C498 1.391 . S
C500 H490 0.950 . S
C500 C501 1.386 . S
C500 C502 1.391 . S
C501 C500 1.386 . S
C501 C505 1.393 . S
C502 H491 0.950 . S
C502 C500 1.391 . S
C502 C503 1.400 . S
C503 C497 1.491 . S
C503 C502 1.400 . S
C503 C504 1.398 . S
C504 H492 0.950 . S
C504 C503 1.398 . S
C504 C505 1.391 . S
C505 H493 0.950 . S
C505 C501 1.393 . S
C505 C504 1.391 . S
H506 C514 0.950 . S
H507 C519 0.950 . S
H508 C516 0.950 . S
H509 C518 0.950 . S
H510 C520 0.950 . S
H511 C522 0.950 1_556 S
H512 C524 0.950 . S
H513 C525 0.950 . S
C514 H506 0.950 . S
C514 C515 1.386 . S
C514 C516 1.391 . S
C515 C514 1.386 . S
C515 C519 1.393 . S
C516 H508 0.950 . S
C516 C514 1.391 . S
C516 C517 1.400 . S
C517 C516 1.400 . S
C517 C518 1.398 . S
C517 C523 1.491 . S
C518 H509 0.950 . S
C518 C517 1.398 . S
C518 C519 1.391 . S
C519 H507 0.950 . S
C519 C515 1.393 . S
C519 C518 1.391 . S
C520 H510 0.950 . S
C520 C521 1.386 1_546 S
C520 C522 1.391 1_556 S
C521 C520 1.386 1_564 S
C521 C525 1.393 . S
C522 H511 0.950 1_554 S
C522 C520 1.391 1_554 S
C522 C523 1.400 . S
C523 C517 1.491 . S
C523 C522 1.400 . S
C523 C524 1.398 . S
C524 H512 0.950 . S
C524 C523 1.398 . S
C524 C525 1.391 1_545 S
C525 H513 0.950 . S
C525 C521 1.393 . S
C525 C524 1.391 1_565 S
H526 C534 0.950 . S
H527 C539 0.950 . S
H528 C536 0.950 . S
H529 C538 0.950 1_556 S
H530 C540 0.950 . S
H531 C542 0.950 . S
H532 C544 0.950 . S
H533 C545 0.950 . S
C534 H526 0.950 . S
C534 C535 1.386 . S
C534 C536 1.391 1_455 S
C535 C534 1.386 . S
C535 C539 1.393 1_454 S
C536 H528 0.950 . S
C536 C534 1.391 1_655 S
C536 C537 1.400 . S
C537 C536 1.400 . S
C537 C538 1.398 . S
C537 C543 1.491 . S
C538 H529 0.950 1_554 S
C538 C537 1.398 . S
C538 C539 1.391 1_554 S
C539 H527 0.950 . S
C539 C535 1.393 1_656 S
C539 C538 1.391 1_556 S
C540 H530 0.950 . S
C540 C541 1.386 . S
C540 C542 1.391 . S
C541 C540 1.386 . S
C541 C545 1.393 . S
C542 H531 0.950 . S
C542 C540 1.391 . S
C542 C543 1.400 . S
C543 C537 1.491 . S
C543 C542 1.400 . S
C543 C544 1.398 . S
C544 H532 0.950 . S
C544 C543 1.398 . S
C544 C545 1.391 . S
C545 H533 0.950 . S
C545 C541 1.393 . S
C545 C544 1.391 . S
H546 C554 0.950 . S
H547 C559 0.950 1_556 S
H548 C556 0.950 . S
H549 C558 0.950 . S
H550 C560 0.950 . S
H551 C562 0.950 . S
H552 C564 0.950 . S
H553 C565 0.950 . S
C554 H546 0.950 . S
C554 C555 1.386 . S
C554 C556 1.391 . S
C555 C554 1.386 . S
C555 C559 1.393 . S
C556 H548 0.950 . S
C556 C554 1.391 . S
C556 C557 1.400 . S
C557 C556 1.400 . S
C557 C558 1.398 . S
C557 C563 1.491 . S
C558 H549 0.950 . S
C558 C557 1.398 . S
C558 C559 1.391 . S
C559 H547 0.950 1_554 S
C559 C555 1.393 . S
C559 C558 1.391 . S
C560 H550 0.950 . S
C560 C561 1.386 . S
C560 C562 1.391 . S
C561 C560 1.386 . S
C561 C565 1.393 . S
C562 H551 0.950 . S
C562 C560 1.391 . S
C562 C563 1.400 . S
C563 C557 1.491 . S
C563 C562 1.400 . S
C563 C564 1.398 . S
C564 H552 0.950 . S
C564 C563 1.398 . S
C564 C565 1.391 . S
C565 H553 0.950 . S
C565 C561 1.393 . S
C565 C564 1.391 . S
H566 C574 0.950 1_565 S
H567 C579 0.950 . S
H568 C576 0.950 . S
H569 C578 0.950 . S
H570 C580 0.950 . S
H571 C582 0.950 . S
H572 C584 0.950 . S
H573 C585 0.950 . S
C574 H566 0.950 1_545 S
C574 C575 1.386 . S
C574 C576 1.391 . S
C575 C574 1.386 . S
C575 C579 1.393 . S
C576 H568 0.950 . S
C576 C574 1.391 . S
C576 C577 1.400 . S
C577 C576 1.400 . S
C577 C578 1.398 . S
C577 C583 1.491 . S
C578 H569 0.950 . S
C578 C577 1.398 . S
C578 C579 1.391 . S
C579 H567 0.950 . S
C579 C575 1.393 . S
C579 C578 1.391 . S
C580 H570 0.950 . S
C580 C581 1.386 . S
C580 C582 1.391 . S
C581 C580 1.386 . S
C581 C585 1.393 . S
C582 H571 0.950 . S
C582 C580 1.391 . S
C582 C583 1.400 . S
C583 C577 1.491 . S
C583 C582 1.400 . S
C583 C584 1.398 . S
C584 H572 0.950 . S
C584 C583 1.398 . S
C584 C585 1.391 . S
C585 H573 0.950 . S
C585 C581 1.393 . S
C585 C584 1.391 . S
H586 C594 0.950 . S
H587 C599 0.950 1_556 S
H588 C596 0.950 . S
H589 C598 0.950 . S
H590 C600 0.950 . S
H591 C602 0.950 . S
H592 C604 0.950 . S
H593 C605 0.950 . S
C594 H586 0.950 . S
C594 C595 1.386 . S
C594 C596 1.391 . S
C595 C594 1.386 . S
C595 C599 1.393 . S
C596 H588 0.950 . S
C596 C594 1.391 . S
C596 C597 1.400 . S
C597 C596 1.400 . S
C597 C598 1.398 . S
C597 C603 1.491 . S
C598 H589 0.950 . S
C598 C597 1.398 . S
C598 C599 1.391 . S
C599 H587 0.950 1_554 S
C599 C595 1.393 . S
C599 C598 1.391 . S
C600 H590 0.950 . S
C600 C601 1.386 . S
C600 C602 1.391 . S
C601 C600 1.386 . S
C601 C605 1.393 . S
C602 H591 0.950 . S
C602 C600 1.391 . S
C602 C603 1.400 . S
C603 C597 1.491 . S
C603 C602 1.400 . S
C603 C604 1.398 . S
C604 H592 0.950 . S
C604 C603 1.398 . S
C604 C605 1.391 . S
C605 H593 0.950 . S
C605 C601 1.393 . S
C605 C604 1.391 . S
H606 C614 0.950 . S
H607 C619 0.950 . S
H608 C616 0.950 . S
H609 C618 0.950 . S
H610 C620 0.950 . S
H611 C622 0.950 . S
H612 C624 0.950 . S
H613 C625 0.950 . S
C614 H606 0.950 . S
C614 C615 1.386 . S
C614 C616 1.391 . S
C615 C614 1.386 . S
C615 C619 1.393 . S
C616 H608 0.950 . S
C616 C614 1.391 . S
C616 C617 1.400 . S
C617 C616 1.400 . S
C617 C618 1.398 . S
C617 C623 1.491 . S
C618 H609 0.950 . S
C618 C617 1.398 . S
C618 C619 1.391 . S
C619 H607 0.950 . S
C619 C615 1.393 . S
C619 C618 1.391 . S
C620 H610 0.950 . S
C620 C621 1.386 . S
C620 C622 1.391 1_455 S
C621 C620 1.386 . S
C621 C625 1.393 1_455 S
C622 H611 0.950 . S
C622 C620 1.391 1_655 S
C622 C623 1.400 . S
C623 C617 1.491 . S
C623 C622 1.400 . S
C623 C624 1.398 . S
C624 H612 0.950 . S
C624 C623 1.398 . S
C624 C625 1.391 . S
C625 H613 0.950 . S
C625 C621 1.393 1_655 S
C625 C624 1.391 . S
H626 C634 0.950 . S
H627 C639 0.950 . S
H628 C636 0.950 . S
H629 C638 0.950 . S
H630 C640 0.950 . S
H631 C642 0.950 . S
H632 C644 0.950 . S
H633 C645 0.950 . S
C634 H626 0.950 . S
C634 C635 1.386 . S
C634 C636 1.391 . S
C635 C634 1.386 . S
C635 C639 1.393 . S
C636 H628 0.950 . S
C636 C634 1.391 . S
C636 C637 1.400 . S
C637 C636 1.400 . S
C637 C638 1.398 . S
C637 C643 1.491 . S
C638 H629 0.950 . S
C638 C637 1.398 . S
C638 C639 1.391 . S
C639 H627 0.950 . S
C639 C635 1.393 . S
C639 C638 1.391 . S
C640 H630 0.950 . S
C640 C641 1.386 . S
C640 C642 1.391 . S
C641 C640 1.386 . S
C641 C645 1.393 . S
C642 H631 0.950 . S
C642 C640 1.391 . S
C642 C643 1.400 . S
C643 C637 1.491 . S
C643 C642 1.400 . S
C643 C644 1.398 . S
C644 H632 0.950 . S
C644 C643 1.398 . S
C644 C645 1.391 . S
C645 H633 0.950 . S
C645 C641 1.393 . S
C645 C644 1.391 . S
H646 C654 0.950 . S
H647 C659 0.950 . S
H648 C656 0.950 . S
H649 C658 0.950 . S
H650 C660 0.950 . S
H651 C662 0.950 . S
H652 C664 0.950 . S
H653 C665 0.950 . S
C654 H646 0.950 . S
C654 C655 1.386 1_545 S
C654 C656 1.391 . S
C655 C654 1.386 1_565 S
C655 C659 1.393 . S
C656 H648 0.950 . S
C656 C654 1.391 . S
C656 C657 1.400 . S
C657 C656 1.400 . S
C657 C658 1.398 . S
C657 C663 1.491 . S
C658 H649 0.950 . S
C658 C657 1.398 . S
C658 C659 1.391 1_545 S
C659 H647 0.950 . S
C659 C655 1.393 . S
C659 C658 1.391 1_565 S
C660 H650 0.950 . S
C660 C661 1.386 . S
C660 C662 1.391 . S
C661 C660 1.386 . S
C661 C665 1.393 . S
C662 H651 0.950 . S
C662 C660 1.391 . S
C662 C663 1.400 . S
C663 C657 1.491 . S
C663 C662 1.400 . S
C663 C664 1.398 . S
C664 H652 0.950 . S
C664 C663 1.398 . S
C664 C665 1.391 . S
C665 H653 0.950 . S
C665 C661 1.393 . S
C665 C664 1.391 . S
H666 C674 0.950 . S
H667 C679 0.950 . S
H668 C676 0.950 . S
H669 C678 0.950 . S
H670 C680 0.950 1_565 S
H671 C682 0.950 . S
H672 C684 0.950 . S
H673 C685 0.950 . S
C674 H666 0.950 . S
C674 C675 1.386 . S
C674 C676 1.391 . S
C675 C674 1.386 . S
C675 C679 1.393 . S
C676 H668 0.950 . S
C676 C674 1.391 . S
C676 C677 1.400 . S
C677 C676 1.400 . S
C677 C678 1.398 . S
C677 C683 1.491 . S
C678 H669 0.950 . S
C678 C677 1.398 . S
C678 C679 1.391 . S
C679 H667 0.950 . S
C679 C675 1.393 . S
C679 C678 1.391 . S
C680 H670 0.950 1_545 S
C680 C681 1.386 . S
C680 C682 1.391 . S
C681 C680 1.386 . S
C681 C685 1.393 . S
C682 H671 0.950 . S
C682 C680 1.391 . S
C682 C683 1.400 . S
C683 C677 1.491 . S
C683 C682 1.400 . S
C683 C684 1.398 . S
C684 H672 0.950 . S
C684 C683 1.398 . S
C684 C685 1.391 . S
C685 H673 0.950 . S
C685 C681 1.393 . S
C685 C684 1.391 . S
H686 C694 0.950 1_455 S
H687 C699 0.950 . S
H688 C696 0.950 . S
H689 C698 0.950 . S
H690 C700 0.950 . S
H691 C702 0.950 . S
H692 C704 0.950 . S
H693 C705 0.950 . S
C694 H686 0.950 1_655 S
C694 C695 1.386 . S
C694 C696 1.391 . S
C695 C694 1.386 . S
C695 C699 1.393 . S
C696 H688 0.950 . S
C696 C694 1.391 . S
C696 C697 1.400 . S
C697 C696 1.400 . S
C697 C698 1.398 . S
C697 C703 1.491 . S
C698 H689 0.950 . S
C698 C697 1.398 . S
C698 C699 1.391 . S
C699 H687 0.950 . S
C699 C695 1.393 . S
C699 C698 1.391 . S
C700 H690 0.950 . S
C700 C701 1.386 . S
C700 C702 1.391 . S
C701 C700 1.386 . S
C701 C705 1.393 . S
C702 H691 0.950 . S
C702 C700 1.391 . S
C702 C703 1.400 . S
C703 C697 1.491 . S
C703 C702 1.400 . S
C703 C704 1.398 . S
C704 H692 0.950 . S
C704 C703 1.398 . S
C704 C705 1.391 . S
C705 H693 0.950 . S
C705 C701 1.393 . S
C705 C704 1.391 . S
H706 C714 0.950 . S
H707 C719 0.950 . S
H708 C716 0.950 . S
H709 C718 0.950 . S
H710 C720 0.950 . S
H711 C722 0.950 . S
H712 C724 0.950 . S
H713 C725 0.950 . S
C714 H706 0.950 . S
C714 C715 1.386 . S
C714 C716 1.391 . S
C715 C714 1.386 . S
C715 C719 1.393 . S
C716 H708 0.950 . S
C716 C714 1.391 . S
C716 C717 1.400 . S
C717 C716 1.400 . S
C717 C718 1.398 . S
C717 C723 1.491 . S
C718 H709 0.950 . S
C718 C717 1.398 . S
C718 C719 1.391 . S
C719 H707 0.950 . S
C719 C715 1.393 . S
C719 C718 1.391 . S
C720 H710 0.950 . S
C720 C721 1.386 . S
C720 C722 1.391 . S
C721 C720 1.386 . S
C721 C725 1.393 . S
C722 H711 0.950 . S
C722 C720 1.391 . S
C722 C723 1.400 . S
C723 C717 1.491 . S
C723 C722 1.400 . S
C723 C724 1.398 . S
C724 H712 0.950 . S
C724 C723 1.398 . S
C724 C725 1.391 . S
C725 H713 0.950 . S
C725 C721 1.393 . S
C725 C724 1.391 . S
H726 C734 0.950 . S
H727 C739 0.950 . S
H728 C736 0.950 . S
H729 C738 0.950 . S
H730 C740 0.950 1_554 S
H731 C742 0.950 . S
H732 C744 0.950 . S
H733 C745 0.950 . S
C734 H726 0.950 . S
C734 C735 1.386 . S
C734 C736 1.391 . S
C735 C734 1.386 . S
C735 C739 1.393 . S
C736 H728 0.950 . S
C736 C734 1.391 . S
C736 C737 1.400 . S
C737 C736 1.400 . S
C737 C738 1.398 . S
C737 C743 1.491 . S
C738 H729 0.950 . S
C738 C737 1.398 . S
C738 C739 1.391 . S
C739 H727 0.950 . S
C739 C735 1.393 . S
C739 C738 1.391 . S
C740 H730 0.950 1_556 S
C740 C741 1.386 . S
C740 C742 1.391 . S
C741 C740 1.386 . S
C741 C745 1.393 . S
C742 H731 0.950 . S
C742 C740 1.391 . S
C742 C743 1.400 . S
C743 C737 1.491 . S
C743 C742 1.400 . S
C743 C744 1.398 . S
C744 H732 0.950 . S
C744 C743 1.398 . S
C744 C745 1.391 . S
C745 H733 0.950 . S
C745 C741 1.393 . S
C745 C744 1.391 . S
H746 C754 0.950 . S
H747 C759 0.950 . S
H748 C756 0.950 . S
H749 C758 0.950 . S
H750 C760 0.950 . S
H751 C762 0.950 . S
H752 C764 0.950 . S
H753 C765 0.950 1_554 S
C754 H746 0.950 . S
C754 C755 1.386 . S
C754 C756 1.391 . S
C755 C754 1.386 . S
C755 C759 1.393 . S
C756 H748 0.950 . S
C756 C754 1.391 . S
C756 C757 1.400 . S
C757 C756 1.400 . S
C757 C758 1.398 . S
C757 C763 1.491 . S
C758 H749 0.950 . S
C758 C757 1.398 . S
C758 C759 1.391 . S
C759 H747 0.950 . S
C759 C755 1.393 . S
C759 C758 1.391 . S
C760 H750 0.950 . S
C760 C761 1.386 . S
C760 C762 1.391 . S
C761 C760 1.386 . S
C761 C765 1.393 . S
C762 H751 0.950 . S
C762 C760 1.391 . S
C762 C763 1.400 . S
C763 C757 1.491 . S
C763 C762 1.400 . S
C763 C764 1.398 . S
C764 H752 0.950 . S
C764 C763 1.398 . S
C764 C765 1.391 . S
C765 H753 0.950 1_556 S
C765 C761 1.393 . S
C765 C764 1.391 . S
H766 C774 0.950 . S
H767 C779 0.950 . S
H768 C776 0.950 . S
H769 C778 0.950 . S
H770 C780 0.950 . S
H771 C782 0.950 . S
H772 C784 0.950 . S
H773 C785 0.950 . S
C774 H766 0.950 . S
C774 C775 1.386 . S
C774 C776 1.391 . S
C775 C774 1.386 . S
C775 C779 1.393 . S
C776 H768 0.950 . S
C776 C774 1.391 . S
C776 C777 1.400 . S
C777 C776 1.400 . S
C777 C778 1.398 . S
C777 C783 1.491 . S
C778 H769 0.950 . S
C778 C777 1.398 . S
C778 C779 1.391 . S
C779 H767 0.950 . S
C779 C775 1.393 . S
C779 C778 1.391 . S
C780 H770 0.950 . S
C780 C781 1.386 . S
C780 C782 1.391 . S
C781 C780 1.386 . S
C781 C785 1.393 . S
C782 H771 0.950 . S
C782 C780 1.391 . S
C782 C783 1.400 . S
C783 C777 1.491 . S
C783 C782 1.400 . S
C783 C784 1.398 . S
C784 H772 0.950 . S
C784 C783 1.398 . S
C784 C785 1.391 . S
C785 H773 0.950 . S
C785 C781 1.393 . S
C785 C784 1.391 . S
H786 C794 0.950 . S
H787 C799 0.950 . S
H788 C796 0.950 . S
H789 C798 0.950 . S
H790 C800 0.950 . S
H791 C802 0.950 . S
H792 C804 0.950 . S
H793 C805 0.950 . S
C794 H786 0.950 . S
C794 C795 1.386 . S
C794 C796 1.391 . S
C795 C794 1.386 . S
C795 C799 1.393 . S
C796 H788 0.950 . S
C796 C794 1.391 . S
C796 C797 1.400 . S
C797 C796 1.400 . S
C797 C798 1.398 . S
C797 C803 1.491 . S
C798 H789 0.950 . S
C798 C797 1.398 . S
C798 C799 1.391 . S
C799 H787 0.950 . S
C799 C795 1.393 . S
C799 C798 1.391 . S
C800 H790 0.950 . S
C800 C801 1.386 . S
C800 C802 1.391 . S
C801 C800 1.386 . S
C801 C805 1.393 . S
C802 H791 0.950 . S
C802 C800 1.391 . S
C802 C803 1.400 . S
C803 C797 1.491 . S
C803 C802 1.400 . S
C803 C804 1.398 . S
C804 H792 0.950 . S
C804 C803 1.398 . S
C804 C805 1.391 . S
C805 H793 0.950 . S
C805 C801 1.393 . S
C805 C804 1.391 . S
H806 C814 0.950 1_554 S
H807 C819 0.950 . S
H808 C816 0.950 . S
H809 C818 0.950 . S
H810 C820 0.950 . S
H811 C822 0.950 . S
H812 C824 0.950 . S
H813 C825 0.950 . S
C814 H806 0.950 1_556 S
C814 C815 1.386 . S
C814 C816 1.391 . S
C815 C814 1.386 . S
C815 C819 1.393 . S
C816 H808 0.950 . S
C816 C814 1.391 . S
C816 C817 1.400 . S
C817 C816 1.400 . S
C817 C818 1.398 . S
C817 C823 1.491 . S
C818 H809 0.950 . S
C818 C817 1.398 . S
C818 C819 1.391 . S
C819 H807 0.950 . S
C819 C815 1.393 . S
C819 C818 1.391 . S
C820 H810 0.950 . S
C820 C821 1.386 . S
C820 C822 1.391 . S
C821 C820 1.386 . S
C821 C825 1.393 . S
C822 H811 0.950 . S
C822 C820 1.391 . S
C822 C823 1.400 . S
C823 C817 1.491 . S
C823 C822 1.400 . S
C823 C824 1.398 . S
C824 H812 0.950 . S
C824 C823 1.398 . S
C824 C825 1.391 . S
C825 H813 0.950 . S
C825 C821 1.393 . S
C825 C824 1.391 . S
H826 C834 0.950 . S
H827 C839 0.950 . S
H828 C836 0.950 . S
H829 C838 0.950 . S
H830 C840 0.950 . S
H831 C842 0.950 . S
H832 C844 0.950 . S
H833 C845 0.950 . S
C834 H826 0.950 . S
C834 C835 1.386 . S
C834 C836 1.391 . S
C835 C834 1.386 . S
C835 C839 1.393 . S
C836 H828 0.950 . S
C836 C834 1.391 . S
C836 C837 1.400 . S
C837 C836 1.400 . S
C837 C838 1.398 . S
C837 C843 1.491 . S
C838 H829 0.950 . S
C838 C837 1.398 . S
C838 C839 1.391 . S
C839 H827 0.950 . S
C839 C835 1.393 . S
C839 C838 1.391 . S
C840 H830 0.950 . S
C840 C841 1.386 . S
C840 C842 1.391 . S
C841 C840 1.386 . S
C841 C845 1.393 . S
C842 H831 0.950 . S
C842 C840 1.391 . S
C842 C843 1.400 . S
C843 C837 1.491 . S
C843 C842 1.400 . S
C843 C844 1.398 . S
C844 H832 0.950 . S
C844 C843 1.398 . S
C844 C845 1.391 . S
C845 H833 0.950 . S
C845 C841 1.393 . S
C845 C844 1.391 . S
H846 C854 0.950 . S
H847 C859 0.950 . S
H848 C856 0.950 . S
H849 C858 0.950 . S
H850 C860 0.950 . S
H851 C862 0.950 . S
H852 C864 0.950 . S
H853 C865 0.950 . S
C854 H846 0.950 . S
C854 C855 1.386 1_556 S
C854 C856 1.391 . S
C855 C854 1.386 1_554 S
C855 C859 1.393 . S
C856 H848 0.950 . S
C856 C854 1.391 . S
C856 C857 1.400 1_556 S
C857 C856 1.400 1_554 S
C857 C858 1.398 . S
C857 C863 1.491 . S
C858 H849 0.950 . S
C858 C857 1.398 . S
C858 C859 1.391 . S
C859 H847 0.950 . S
C859 C855 1.393 . S
C859 C858 1.391 . S
C860 H850 0.950 . S
C860 C861 1.386 . S
C860 C862 1.391 . S
C861 C860 1.386 . S
C861 C865 1.393 1_554 S
C862 H851 0.950 . S
C862 C860 1.391 . S
C862 C863 1.400 . S
C863 C857 1.491 . S
C863 C862 1.400 . S
C863 C864 1.398 1_554 S
C864 H852 0.950 . S
C864 C863 1.398 1_556 S
C864 C865 1.391 . S
C865 H853 0.950 . S
C865 C861 1.393 1_556 S
C865 C864 1.391 . S
H866 C874 0.950 . S
H867 C879 0.950 1_455 S
H868 C876 0.950 . S
H869 C878 0.950 . S
H870 C880 0.950 1_565 S
H871 C882 0.950 . S
H872 C884 0.950 . S
H873 C885 0.950 . S
C874 H866 0.950 . S
C874 C875 1.386 1_556 S
C874 C876 1.391 . S
C875 C874 1.386 1_554 S
C875 C879 1.393 . S
C876 H868 0.950 . S
C876 C874 1.391 . S
C876 C877 1.400 1_556 S
C877 C876 1.400 1_554 S
C877 C878 1.398 . S
C877 C883 1.491 . S
C878 H869 0.950 . S
C878 C877 1.398 . S
C878 C879 1.391 . S
C879 H867 0.950 1_655 S
C879 C875 1.393 . S
C879 C878 1.391 . S
C880 H870 0.950 1_545 S
C880 C881 1.387 1_545 S
C880 C882 1.391 . S
C881 C880 1.387 1_565 S
C881 C885 1.385 1_564 S
C882 H871 0.950 . S
C882 C880 1.391 . S
C882 C883 1.400 . S
C883 C877 1.491 . S
C883 C882 1.400 . S
C883 C884 1.398 1_554 S
C884 H872 0.950 . S
C884 C883 1.398 1_556 S
C884 C885 1.391 . S
C885 H873 0.950 . S
C885 C881 1.385 1_546 S
C885 C884 1.391 . S
H886 C894 0.950 . S
H887 C899 0.950 . S
H888 C896 0.950 . S
H889 C898 0.950 . S
H890 C900 0.950 . S
H891 C902 0.950 . S
H892 C904 0.950 . S
H893 C905 0.950 . S
C894 H886 0.950 . S
C894 C895 1.386 1_556 S
C894 C896 1.391 . S
C895 C894 1.386 1_554 S
C895 C899 1.393 . S
C896 H888 0.950 . S
C896 C894 1.391 . S
C896 C897 1.400 1_556 S
C897 C896 1.400 1_554 S
C897 C898 1.398 . S
C897 C903 1.491 . S
C898 H889 0.950 . S
C898 C897 1.398 . S
C898 C899 1.391 . S
C899 H887 0.950 . S
C899 C895 1.393 . S
C899 C898 1.391 . S
C900 H890 0.950 . S
C900 C901 1.380 1_655 S
C900 C902 1.391 . S
C901 C900 1.380 1_455 S
C901 C905 1.389 1_454 S
C902 H891 0.950 . S
C902 C900 1.391 . S
C902 C903 1.400 . S
C903 C897 1.491 . S
C903 C902 1.400 . S
C903 C904 1.398 1_554 S
C904 H892 0.950 . S
C904 C903 1.398 1_556 S
C904 C905 1.391 . S
C905 H893 0.950 . S
C905 C901 1.389 1_656 S
C905 C904 1.391 . S
H906 C914 0.950 . S
H907 C919 0.950 . S
H908 C916 0.950 . S
H909 C918 0.950 . S
H910 C920 0.950 . S
H911 C922 0.950 . S
H912 C924 0.950 . S
H913 C925 0.950 . S
C914 H906 0.950 . S
C914 C915 1.386 . S
C914 C916 1.391 . S
C915 C914 1.386 . S
C915 C919 1.393 . S
C916 H908 0.950 . S
C916 C914 1.391 . S
C916 C917 1.400 . S
C917 C916 1.400 . S
C917 C918 1.398 . S
C917 C923 1.491 . S
C918 H909 0.950 . S
C918 C917 1.398 . S
C918 C919 1.391 . S
C919 H907 0.950 . S
C919 C915 1.393 . S
C919 C918 1.391 . S
C920 H910 0.950 . S
C920 C921 1.386 . S
C920 C922 1.391 . S
C921 C920 1.386 . S
C921 C925 1.393 . S
C922 H911 0.950 . S
C922 C920 1.391 . S
C922 C923 1.400 . S
C923 C917 1.491 . S
C923 C922 1.400 . S
C923 C924 1.398 . S
C924 H912 0.950 . S
C924 C923 1.398 . S
C924 C925 1.391 . S
C925 H913 0.950 . S
C925 C921 1.393 . S
C925 C924 1.391 . S
H926 C934 0.950 . S
H927 C939 0.950 . S
H928 C936 0.950 . S
H929 C938 0.950 . S
H930 C940 0.950 . S
H931 C942 0.950 . S
H932 C944 0.950 . S
H933 C945 0.950 . S
C934 H926 0.950 . S
C934 C935 1.386 . S
C934 C936 1.391 . S
C935 C934 1.386 . S
C935 C939 1.393 . S
C936 H928 0.950 . S
C936 C934 1.391 . S
C936 C937 1.400 . S
C937 C936 1.400 . S
C937 C938 1.398 . S
C937 C943 1.491 . S
C938 H929 0.950 . S
C938 C937 1.398 . S
C938 C939 1.391 . S
C939 H927 0.950 . S
C939 C935 1.393 . S
C939 C938 1.391 . S
C940 H930 0.950 . S
C940 C941 1.386 . S
C940 C942 1.391 . S
C941 C940 1.386 . S
C941 C945 1.393 . S
C942 H931 0.950 . S
C942 C940 1.391 . S
C942 C943 1.400 . S
C943 C937 1.491 . S
C943 C942 1.400 . S
C943 C944 1.398 . S
C944 H932 0.950 . S
C944 C943 1.398 . S
C944 C945 1.391 . S
C945 H933 0.950 . S
C945 C941 1.393 . S
C945 C944 1.391 . S
H946 C954 0.950 . S
H947 C959 0.950 . S
H948 C956 0.950 . S
H949 C958 0.950 . S
H950 C960 0.950 . S
H951 C962 0.950 . S
H952 C964 0.950 . S
H953 C965 0.950 . S
C954 H946 0.950 . S
C954 C955 1.386 . S
C954 C956 1.391 . S
C955 C954 1.386 . S
C955 C959 1.393 . S
C956 H948 0.950 . S
C956 C954 1.391 . S
C956 C957 1.400 . S
C957 C956 1.400 . S
C957 C958 1.398 . S
C957 C963 1.491 . S
C958 H949 0.950 . S
C958 C957 1.398 . S
C958 C959 1.391 . S
C959 H947 0.950 . S
C959 C955 1.393 . S
C959 C958 1.391 . S
C960 H950 0.950 . S
C960 C961 1.386 . S
C960 C962 1.391 . S
C961 C960 1.386 . S
C961 C965 1.393 . S
C962 H951 0.950 . S
C962 C960 1.391 . S
C962 C963 1.400 . S
C963 C957 1.491 . S
C963 C962 1.400 . S
C963 C964 1.398 . S
C964 H952 0.950 . S
C964 C963 1.398 . S
C964 C965 1.391 . S
C965 H953 0.950 . S
C965 C961 1.393 . S
C965 C964 1.391 . S
H966 C974 0.950 . S
H967 C979 0.950 . S
H968 C976 0.950 . S
H969 C978 0.950 . S
H970 C980 0.950 . S
H971 C982 0.950 . S
H972 C984 0.950 . S
H973 C985 0.950 . S
C974 H966 0.950 . S
C974 C975 1.386 . S
C974 C976 1.391 . S
C975 C974 1.386 . S
C975 C979 1.393 . S
C976 H968 0.950 . S
C976 C974 1.391 . S
C976 C977 1.400 . S
C977 C976 1.400 . S
C977 C978 1.398 . S
C977 C983 1.491 . S
C978 H969 0.950 . S
C978 C977 1.398 . S
C978 C979 1.391 . S
C979 H967 0.950 . S
C979 C975 1.393 . S
C979 C978 1.391 . S
C980 H970 0.950 . S
C980 C981 1.386 . S
C980 C982 1.391 . S
C981 C980 1.386 . S
C981 C985 1.393 . S
C982 H971 0.950 . S
C982 C980 1.391 . S
C982 C983 1.400 . S
C983 C977 1.491 . S
C983 C982 1.400 . S
C983 C984 1.398 . S
C984 H972 0.950 . S
C984 C983 1.398 . S
C984 C985 1.391 . S
C985 H973 0.950 . S
C985 C981 1.393 . S
C985 C984 1.391 . S
H986 C994 0.950 . S
H987 C999 0.950 . S
H988 C996 0.950 . S
H989 C998 0.950 . S
H990 C1000 0.950 . S
H991 C1002 0.950 . S
H992 C1004 0.950 . S
H993 C1005 0.950 . S
C994 H986 0.950 . S
C994 C995 1.386 . S
C994 C996 1.391 . S
C995 C994 1.386 . S
C995 C999 1.393 . S
C996 H988 0.950 . S
C996 C994 1.391 . S
C996 C997 1.400 . S
C997 C996 1.400 . S
C997 C998 1.398 . S
C997 C1003 1.491 . S
C998 H989 0.950 . S
C998 C997 1.398 . S
C998 C999 1.391 . S
C999 H987 0.950 . S
C999 C995 1.393 . S
C999 C998 1.391 . S
C1000 H990 0.950 . S
C1000 C1001 1.386 . S
C1000 C1002 1.391 . S
C1001 C1000 1.386 . S
C1001 C1005 1.393 . S
C1002 H991 0.950 . S
C1002 C1000 1.391 . S
C1002 C1003 1.400 . S
C1003 C997 1.491 . S
C1003 C1002 1.400 . S
C1003 C1004 1.398 . S
C1004 H992 0.950 . S
C1004 C1003 1.398 . S
C1004 C1005 1.391 . S
C1005 H993 0.950 . S
C1005 C1001 1.393 . S
C1005 C1004 1.391 . S
H1006 C1014 0.950 . S
H1007 C1019 0.950 . S
H1008 C1016 0.950 . S
H1009 C1018 0.950 . S
H1010 C1020 0.950 . S
H1011 C1022 0.950 . S
H1012 C1024 0.950 . S
H1013 C1025 0.950 . S
C1014 H1006 0.950 . S
C1014 C1015 1.386 . S
C1014 C1016 1.391 . S
C1015 C1014 1.386 . S
C1015 C1019 1.393 . S
C1016 H1008 0.950 . S
C1016 C1014 1.391 . S
C1016 C1017 1.400 . S
C1017 C1016 1.400 . S
C1017 C1018 1.398 . S
C1017 C1023 1.491 . S
C1018 H1009 0.950 . S
C1018 C1017 1.398 . S
C1018 C1019 1.391 . S
C1019 H1007 0.950 . S
C1019 C1015 1.393 . S
C1019 C1018 1.391 . S
C1020 H1010 0.950 . S
C1020 C1021 1.386 . S
C1020 C1022 1.391 . S
C1021 C1020 1.386 . S
C1021 C1025 1.393 . S
C1022 H1011 0.950 . S
C1022 C1020 1.391 . S
C1022 C1023 1.400 . S
C1023 C1017 1.491 . S
C1023 C1022 1.400 . S
C1023 C1024 1.398 . S
C1024 H1012 0.950 . S
C1024 C1023 1.398 . S
C1024 C1025 1.391 . S
C1025 H1013 0.950 . S
C1025 C1021 1.393 . S
C1025 C1024 1.391 . S
H1026 C1034 0.950 . S
H1027 C1039 0.950 . S
H1028 C1036 0.950 . S
H1029 C1038 0.950 . S
H1030 C1040 0.950 . S
H1031 C1042 0.950 . S
H1032 C1044 0.950 . S
H1033 C1045 0.950 . S
C1034 H1026 0.950 . S
C1034 C1035 1.386 . S
C1034 C1036 1.391 . S
C1035 C1034 1.386 . S
C1035 C1039 1.393 . S
C1036 H1028 0.950 . S
C1036 C1034 1.391 . S
C1036 C1037 1.400 . S
C1037 C1036 1.400 . S
C1037 C1038 1.398 . S
C1037 C1043 1.491 . S
C1038 H1029 0.950 . S
C1038 C1037 1.398 . S
C1038 C1039 1.391 . S
C1039 H1027 0.950 . S
C1039 C1035 1.393 . S
C1039 C1038 1.391 . S
C1040 H1030 0.950 . S
C1040 C1041 1.386 . S
C1040 C1042 1.391 . S
C1041 C1040 1.386 . S
C1041 C1045 1.393 . S
C1042 H1031 0.950 . S
C1042 C1040 1.391 . S
C1042 C1043 1.400 . S
C1043 C1037 1.491 . S
C1043 C1042 1.400 . S
C1043 C1044 1.398 . S
C1044 H1032 0.950 . S
C1044 C1043 1.398 . S
C1044 C1045 1.391 . S
C1045 H1033 0.950 . S
C1045 C1041 1.393 . S
C1045 C1044 1.391 . S
H1046 C1054 0.950 . S
H1047 C1059 0.950 . S
H1048 C1056 0.950 . S
H1049 C1058 0.950 . S
H1050 C1060 0.950 . S
H1051 C1062 0.950 . S
H1052 C1064 0.950 . S
H1053 C1065 0.950 . S
C1054 H1046 0.950 . S
C1054 C1055 1.386 . S
C1054 C1056 1.391 . S
C1055 C1054 1.386 . S
C1055 C1059 1.393 . S
C1056 H1048 0.950 . S
C1056 C1054 1.391 . S
C1056 C1057 1.400 . S
C1057 C1056 1.400 . S
C1057 C1058 1.398 . S
C1057 C1063 1.491 . S
C1058 H1049 0.950 . S
C1058 C1057 1.398 . S
C1058 C1059 1.391 . S
C1059 H1047 0.950 . S
C1059 C1055 1.393 . S
C1059 C1058 1.391 . S
C1060 H1050 0.950 . S
C1060 C1061 1.386 . S
C1060 C1062 1.391 . S
C1061 C1060 1.386 . S
C1061 C1065 1.393 . S
C1062 H1051 0.950 . S
C1062 C1060 1.391 . S
C1062 C1063 1.400 . S
C1063 C1057 1.491 . S
C1063 C1062 1.400 . S
C1063 C1064 1.398 . S
C1064 H1052 0.950 . S
C1064 C1063 1.398 . S
C1064 C1065 1.391 . S
C1065 H1053 0.950 . S
C1065 C1061 1.393 . S
C1065 C1064 1.391 . S
H1066 C1074 0.950 . S
H1067 C1079 0.950 . S
H1068 C1076 0.950 . S
H1069 C1078 0.950 . S
H1070 C1080 0.950 . S
H1071 C1082 0.950 . S
H1072 C1084 0.950 . S
H1073 C1085 0.950 . S
C1074 H1066 0.950 . S
C1074 C1075 1.386 . S
C1074 C1076 1.391 . S
C1075 C1074 1.386 . S
C1075 C1079 1.393 . S
C1076 H1068 0.950 . S
C1076 C1074 1.391 . S
C1076 C1077 1.400 . S
C1077 C1076 1.400 . S
C1077 C1078 1.398 . S
C1077 C1083 1.491 . S
C1078 H1069 0.950 . S
C1078 C1077 1.398 . S
C1078 C1079 1.391 . S
C1079 H1067 0.950 . S
C1079 C1075 1.393 . S
C1079 C1078 1.391 . S
C1080 H1070 0.950 . S
C1080 C1081 1.386 . S
C1080 C1082 1.391 . S
C1081 C1080 1.386 . S
C1081 C1085 1.393 . S
C1082 H1071 0.950 . S
C1082 C1080 1.391 . S
C1082 C1083 1.400 . S
C1083 C1077 1.491 . S
C1083 C1082 1.400 . S
C1083 C1084 1.398 . S
C1084 H1072 0.950 . S
C1084 C1083 1.398 . S
C1084 C1085 1.391 . S
C1085 H1073 0.950 . S
C1085 C1081 1.393 . S
C1085 C1084 1.391 . S
H1086 C1094 0.950 . S
H1087 C1099 0.950 . S
H1088 C1096 0.950 . S
H1089 C1098 0.950 . S
H1090 C1100 0.950 . S
H1091 C1102 0.950 . S
H1092 C1104 0.950 . S
H1093 C1105 0.950 . S
C1094 H1086 0.950 . S
C1094 C1095 1.386 . S
C1094 C1096 1.391 . S
C1095 C1094 1.386 . S
C1095 C1099 1.393 . S
C1096 H1088 0.950 . S
C1096 C1094 1.391 . S
C1096 C1097 1.400 . S
C1097 C1096 1.400 . S
C1097 C1098 1.398 . S
C1097 C1103 1.491 . S
C1098 H1089 0.950 . S
C1098 C1097 1.398 . S
C1098 C1099 1.391 . S
C1099 H1087 0.950 . S
C1099 C1095 1.393 . S
C1099 C1098 1.391 . S
C1100 H1090 0.950 . S
C1100 C1101 1.386 . S
C1100 C1102 1.391 1_554 S
C1101 C1100 1.386 . S
C1101 C1105 1.393 . S
C1102 H1091 0.950 . S
C1102 C1100 1.391 1_556 S
C1102 C1103 1.400 . S
C1103 C1097 1.491 . S
C1103 C1102 1.400 . S
C1103 C1104 1.398 . S
C1104 H1092 0.950 . S
C1104 C1103 1.398 . S
C1104 C1105 1.391 1_556 S
C1105 H1093 0.950 . S
C1105 C1101 1.393 . S
C1105 C1104 1.391 1_554 S
H1106 C1114 0.950 . S
H1107 C1119 0.950 . S
H1108 C1116 0.950 . S
H1109 C1118 0.950 . S
H1110 C1120 0.950 . S
H1111 C1122 0.950 . S
H1112 C1124 0.950 . S
H1113 C1125 0.950 . S
C1114 H1106 0.950 . S
C1114 C1115 1.386 . S
C1114 C1116 1.391 1_554 S
C1115 C1114 1.386 . S
C1115 C1119 1.393 . S
C1116 H1108 0.950 . S
C1116 C1114 1.391 1_556 S
C1116 C1117 1.400 . S
C1117 C1116 1.400 . S
C1117 C1118 1.398 . S
C1117 C1123 1.491 . S
C1118 H1109 0.950 . S
C1118 C1117 1.398 . S
C1118 C1119 1.391 1_556 S
C1119 H1107 0.950 . S
C1119 C1115 1.393 . S
C1119 C1118 1.391 1_554 S
C1120 H1110 0.950 . S
C1120 C1121 1.386 . S
C1120 C1122 1.391 . S
C1121 C1120 1.386 . S
C1121 C1125 1.393 . S
C1122 H1111 0.950 . S
C1122 C1120 1.391 . S
C1122 C1123 1.400 . S
C1123 C1117 1.491 . S
C1123 C1122 1.400 . S
C1123 C1124 1.398 . S
C1124 H1112 0.950 . S
C1124 C1123 1.398 . S
C1124 C1125 1.391 . S
C1125 H1113 0.950 . S
C1125 C1121 1.393 . S
C1125 C1124 1.391 . S
H1126 C1134 0.950 . S
H1127 C1139 0.950 . S
H1128 C1136 0.950 . S
H1129 C1138 0.950 . S
H1130 C1140 0.950 . S
H1131 C1142 0.950 . S
H1132 C1144 0.950 . S
H1133 C1145 0.950 . S
C1134 H1126 0.950 . S
C1134 C1135 1.386 . S
C1134 C1136 1.391 . S
C1135 C1134 1.386 . S
C1135 C1139 1.393 . S
C1136 H1128 0.950 . S
C1136 C1134 1.391 . S
C1136 C1137 1.400 . S
C1137 C1136 1.400 . S
C1137 C1138 1.398 . S
C1137 C1143 1.491 . S
C1138 H1129 0.950 . S
C1138 C1137 1.398 . S
C1138 C1139 1.391 . S
C1139 H1127 0.950 . S
C1139 C1135 1.393 . S
C1139 C1138 1.391 . S
C1140 H1130 0.950 . S
C1140 C1141 1.386 . S
C1140 C1142 1.391 1_554 S
C1141 C1140 1.386 . S
C1141 C1145 1.393 . S
C1142 H1131 0.950 . S
C1142 C1140 1.391 1_556 S
C1142 C1143 1.400 . S
C1143 C1137 1.491 . S
C1143 C1142 1.400 . S
C1143 C1144 1.398 . S
C1144 H1132 0.950 . S
C1144 C1143 1.398 . S
C1144 C1145 1.391 1_556 S
C1145 H1133 0.950 . S
C1145 C1141 1.393 . S
C1145 C1144 1.391 1_554 S
H1146 C1154 0.950 . S
H1147 C1159 0.950 . S
H1148 C1156 0.950 . S
H1149 C1158 0.950 . S
H1150 C1160 0.950 . S
H1151 C1162 0.950 . S
H1152 C1164 0.950 . S
H1153 C1165 0.950 . S
C1154 H1146 0.950 . S
C1154 C1155 1.386 . S
C1154 C1156 1.391 . S
C1155 C1154 1.386 . S
C1155 C1159 1.393 . S
C1156 H1148 0.950 . S
C1156 C1154 1.391 . S
C1156 C1157 1.400 . S
C1157 C1156 1.400 . S
C1157 C1158 1.398 . S
C1157 C1163 1.491 . S
C1158 H1149 0.950 . S
C1158 C1157 1.398 . S
C1158 C1159 1.391 . S
C1159 H1147 0.950 . S
C1159 C1155 1.393 . S
C1159 C1158 1.391 . S
C1160 H1150 0.950 . S
C1160 C1161 1.386 . S
C1160 C1162 1.391 1_556 S
C1161 C1160 1.386 . S
C1161 C1165 1.393 . S
C1162 H1151 0.950 . S
C1162 C1160 1.391 1_554 S
C1162 C1163 1.400 . S
C1163 C1157 1.491 . S
C1163 C1162 1.400 . S
C1163 C1164 1.398 . S
C1164 H1152 0.950 . S
C1164 C1163 1.398 . S
C1164 C1165 1.391 1_554 S
C1165 H1153 0.950 . S
C1165 C1161 1.393 . S
C1165 C1164 1.391 1_556 S
H1166 C1174 0.950 . S
H1167 C1179 0.950 . S
H1168 C1176 0.950 . S
H1169 C1178 0.950 . S
H1170 C1180 0.950 . S
H1171 C1182 0.950 . S
H1172 C1184 0.950 . S
H1173 C1185 0.950 . S
C1174 H1166 0.950 . S
C1174 C1175 1.386 . S
C1174 C1176 1.391 . S
C1175 C1174 1.386 . S
C1175 C1179 1.393 . S
C1176 H1168 0.950 . S
C1176 C1174 1.391 . S
C1176 C1177 1.400 . S
C1177 C1176 1.400 . S
C1177 C1178 1.398 . S
C1177 C1183 1.491 . S
C1178 H1169 0.950 . S
C1178 C1177 1.398 . S
C1178 C1179 1.391 . S
C1179 H1167 0.950 . S
C1179 C1175 1.393 . S
C1179 C1178 1.391 . S
C1180 H1170 0.950 . S
C1180 C1181 1.386 . S
C1180 C1182 1.391 1_556 S
C1181 C1180 1.386 . S
C1181 C1185 1.393 . S
C1182 H1171 0.950 . S
C1182 C1180 1.391 1_554 S
C1182 C1183 1.400 . S
C1183 C1177 1.491 . S
C1183 C1182 1.400 . S
C1183 C1184 1.398 . S
C1184 H1172 0.950 . S
C1184 C1183 1.398 . S
C1184 C1185 1.391 1_554 S
C1185 H1173 0.950 . S
C1185 C1181 1.393 . S
C1185 C1184 1.391 1_556 S
H1186 C1194 0.950 . S
H1187 C1199 0.950 . S
H1188 C1196 0.950 . S
H1189 C1198 0.950 . S
H1190 C1200 0.950 . S
H1191 C1202 0.950 . S
H1192 C1204 0.950 . S
H1193 C1205 0.950 . S
C1194 H1186 0.950 . S
C1194 C1195 1.386 . S
C1194 C1196 1.391 . S
C1195 C1194 1.386 . S
C1195 C1199 1.393 . S
C1196 H1188 0.950 . S
C1196 C1194 1.391 . S
C1196 C1197 1.400 . S
C1197 C1196 1.400 . S
C1197 C1198 1.398 . S
C1197 C1203 1.491 . S
C1198 H1189 0.950 . S
C1198 C1197 1.398 . S
C1198 C1199 1.391 . S
C1199 H1187 0.950 . S
C1199 C1195 1.393 . S
C1199 C1198 1.391 . S
C1200 H1190 0.950 . S
C1200 C1201 1.386 . S
C1200 C1202 1.391 1_556 S
C1201 C1200 1.386 . S
C1201 C1205 1.393 . S
C1202 H1191 0.950 . S
C1202 C1200 1.391 1_554 S
C1202 C1203 1.400 . S
C1203 C1197 1.491 . S
C1203 C1202 1.400 . S
C1203 C1204 1.398 . S
C1204 H1192 0.950 . S
C1204 C1203 1.398 . S
C1204 C1205 1.391 1_554 S
C1205 H1193 0.950 . S
C1205 C1201 1.393 . S
C1205 C1204 1.391 1_556 S
C495 C32 1.469 1_554 S
C501 C229 1.496 . S
C515 C283 1.488 . S
C521 C86 1.444 1_554 S
C535 C140 1.449 1_554 S
C541 C175 1.495 . S
C555 C76 1.911 . S
C561 C197 2.020 . S
C575 C130 1.926 1_545 S
C581 C251 2.026 . S
C595 C22 1.911 1_655 S
C601 C305 2.019 . S
C615 C194 1.468 . S
C621 C391 1.496 . S
C635 C445 1.470 . S
C641 C248 1.451 . S
C655 C337 1.493 . S
C661 C302 1.447 . S
C675 C238 1.911 . S
C681 C359 2.020 1_545 S
C695 C413 2.025 1_655 S
C701 C292 1.924 . S
C715 C467 2.026 . S
C721 C184 1.925 . S
C735 C356 1.462 . S
C741 C67 1.465 . S
C755 C410 1.444 . S
C761 C121 1.487 . S
C775 C13 1.470 . S
C781 C464 1.450 . S
C795 C35 2.020 . S
C801 C400 1.920 . S
C815 C89 2.022 . S
C821 C454 1.913 . S
C835 C346 1.924 . S
C841 C143 2.025 . S
C855 C113 1.695 1_545 S
C861 C28 1.774 . S
C875 C5 1.694 1_655 S
C881 C82 1.785 . S
C895 C59 1.692 . S
C901 C136 1.786 . S
C915 C275 1.704 . S
C921 C190 1.773 . S
C935 C167 1.704 . S
C941 C244 1.782 . S
C955 C221 1.717 . S
C961 C298 1.780 . S
C975 C352 1.775 . S
C981 C437 1.693 . S
C995 C406 1.773 . S
C1001 C329 1.704 . S
C1015 C460 1.773 . S
C1021 C383 1.701 . S
C1035 C27 0.531 . S
C1041 C10 0.531 . S
C1055 C64 0.544 . S
C1061 C81 0.543 . S
C1075 C135 0.541 . S
C1081 C118 0.541 . S
C1095 C172 0.519 . S
C1101 C189 0.519 . S
C1115 C243 0.538 . S
C1121 C226 0.538 . S
C1135 C280 0.515 . S
C1141 C297 0.515 . S
C1155 C351 0.545 . S
C1161 C334 0.545 . S
C1175 C405 0.521 . S
C1181 C388 0.520 . S
C1195 C459 0.519 . S
C1201 C442 0.519 . S
