# Generated by pormake.
# Topology umh, (4)-cn, num edge types: 1
# Building blocks:
#     Node 0, Type 0, BuildingBlock: KOZSID_clean_sbu_0, # of connection points: 4
#     Node 1, Type 0, BuildingBlock: KOZSID_clean_sbu_0, # of connection points: 4
#     Node 2, Type 0, BuildingBlock: KOZSID_clean_sbu_0, # of connection points: 4
#     Node 3, Type 0, BuildingBlock: KOZSID_clean_sbu_0, # of connection points: 4
#     Node 4, Type 0, BuildingBlock: KOZSID_clean_sbu_0, # of connection points: 4
#     Node 5, Type 0, BuildingBlock: KOZSID_clean_sbu_0, # of connection points: 4
#     Node 6, Type 0, BuildingBlock: KOZSID_clean_sbu_0, # of connection points: 4
#     Node 7, Type 0, BuildingBlock: KOZSID_clean_sbu_0, # of connection points: 4
#     Node 8, Type 0, BuildingBlock: KOZSID_clean_sbu_0, # of connection points: 4
#     Node 9, Type 0, BuildingBlock: KOZSID_clean_sbu_0, # of connection points: 4
#     Node 10, Type 0, BuildingBlock: KOZSID_clean_sbu_0, # of connection points: 4
#     Node 11, Type 0, BuildingBlock: KOZSID_clean_sbu_0, # of connection points: 4
#     Node 12, Type 0, BuildingBlock: KOZSID_clean_sbu_0, # of connection points: 4
#     Node 13, Type 0, BuildingBlock: KOZSID_clean_sbu_0, # of connection points: 4
#     Node 14, Type 0, BuildingBlock: KOZSID_clean_sbu_0, # of connection points: 4
#     Node 15, Type 0, BuildingBlock: KOZSID_clean_sbu_0, # of connection points: 4
#     Edge 16, Type (0, 0), BuildingBlock: UVAHIK_clean_linker_0, # of connection points: 2
#     Edge 17, Type (0, 0), BuildingBlock: UVAHIK_clean_linker_0, # of connection points: 2
#     Edge 18, Type (0, 0), BuildingBlock: UVAHIK_clean_linker_0, # of connection points: 2
#     Edge 19, Type (0, 0), BuildingBlock: UVAHIK_clean_linker_0, # of connection points: 2
#     Edge 20, Type (0, 0), BuildingBlock: UVAHIK_clean_linker_0, # of connection points: 2
#     Edge 21, Type (0, 0), BuildingBlock: UVAHIK_clean_linker_0, # of connection points: 2
#     Edge 22, Type (0, 0), BuildingBlock: UVAHIK_clean_linker_0, # of connection points: 2
#     Edge 23, Type (0, 0), BuildingBlock: UVAHIK_clean_linker_0, # of connection points: 2
#     Edge 24, Type (0, 0), BuildingBlock: UVAHIK_clean_linker_0, # of connection points: 2
#     Edge 25, Type (0, 0), BuildingBlock: UVAHIK_clean_linker_0, # of connection points: 2
#     Edge 26, Type (0, 0), BuildingBlock: UVAHIK_clean_linker_0, # of connection points: 2
#     Edge 27, Type (0, 0), BuildingBlock: UVAHIK_clean_linker_0, # of connection points: 2
#     Edge 28, Type (0, 0), BuildingBlock: UVAHIK_clean_linker_0, # of connection points: 2
#     Edge 29, Type (0, 0), BuildingBlock: UVAHIK_clean_linker_0, # of connection points: 2
#     Edge 30, Type (0, 0), BuildingBlock: UVAHIK_clean_linker_0, # of connection points: 2
#     Edge 31, Type (0, 0), BuildingBlock: UVAHIK_clean_linker_0, # of connection points: 2
#     Edge 32, Type (0, 0), BuildingBlock: UVAHIK_clean_linker_0, # of connection points: 2
#     Edge 33, Type (0, 0), BuildingBlock: UVAHIK_clean_linker_0, # of connection points: 2
#     Edge 34, Type (0, 0), BuildingBlock: UVAHIK_clean_linker_0, # of connection points: 2
#     Edge 35, Type (0, 0), BuildingBlock: UVAHIK_clean_linker_0, # of connection points: 2
#     Edge 36, Type (0, 0), BuildingBlock: UVAHIK_clean_linker_0, # of connection points: 2
#     Edge 37, Type (0, 0), BuildingBlock: UVAHIK_clean_linker_0, # of connection points: 2
#     Edge 38, Type (0, 0), BuildingBlock: UVAHIK_clean_linker_0, # of connection points: 2
#     Edge 39, Type (0, 0), BuildingBlock: UVAHIK_clean_linker_0, # of connection points: 2
#     Edge 40, Type (0, 0), BuildingBlock: UVAHIK_clean_linker_0, # of connection points: 2
#     Edge 41, Type (0, 0), BuildingBlock: UVAHIK_clean_linker_0, # of connection points: 2
#     Edge 42, Type (0, 0), BuildingBlock: UVAHIK_clean_linker_0, # of connection points: 2
#     Edge 43, Type (0, 0), BuildingBlock: UVAHIK_clean_linker_0, # of connection points: 2
#     Edge 44, Type (0, 0), BuildingBlock: UVAHIK_clean_linker_0, # of connection points: 2
#     Edge 45, Type (0, 0), BuildingBlock: UVAHIK_clean_linker_0, # of connection points: 2
#     Edge 46, Type (0, 0), BuildingBlock: UVAHIK_clean_linker_0, # of connection points: 2
#     Edge 47, Type (0, 0), BuildingBlock: UVAHIK_clean_linker_0, # of connection points: 2
# Relax obj value: 0.070
# Max RMSD: 0.153
# Mean RMSD: 0.153
data_MOF--net-umh--node1-KOZSID_clean_sbu_0--edge1-UVAHIK_clean_linker_0
_symmetry_space_group_name_H-M    P1
_symmetry_Int_Tables_number       1
_symmetry_cell_setting            triclinic
loop_
_symmetry_equiv_pos_as_xyz
'x, y, z'
_cell_length_a     66.761439
_cell_length_b     66.783561
_cell_length_c     75.704873
_cell_angle_alpha  89.983702
_cell_angle_beta   90.008703
_cell_angle_gamma 89.993108
loop_
_atom_site_label
_atom_site_type_symbol
_atom_site_fract_x
_atom_site_fract_y
_atom_site_fract_z
_atom_type_partial_charge
C0 C 0.31312 0.08609 0.16346 0.0
C1 C 0.29658 0.0737 0.16566 0.0
C2 C 0.2944 0.06318 0.15024 0.0
C3 C 0.30952 0.06981 0.13945 0.0
N4 N 0.32104 0.08386 0.14713 0.0
Co5 Co 0.34383 0.0981 0.13602 0.0
N6 N 0.3345 0.09098 0.11197 0.0
C7 C 0.32119 0.07653 0.10794 0.0
C8 C 0.3171 0.07546 0.09021 0.0
C9 C 0.32874 0.08996 0.0826 0.0
C10 C 0.33955 0.09896 0.09614 0.0
N11 N 0.36681 0.1121 0.12495 0.0
C12 C 0.36959 0.1179 0.10797 0.0
C13 C 0.38834 0.12658 0.10583 0.0
C14 C 0.39755 0.12604 0.12204 0.0
C15 C 0.38401 0.11704 0.13316 0.0
N16 N 0.35289 0.10524 0.16012 0.0
C17 C 0.37149 0.11095 0.16471 0.0
C18 C 0.3731 0.11516 0.18243 0.0
C19 C 0.35435 0.11182 0.18934 0.0
C20 C 0.34231 0.1058 0.17539 0.0
N21 N 0.35997 0.07337 0.13692 0.0
C22 C 0.38602 0.04011 0.13883 0.0
C23 C 0.37397 0.0456 0.15328 0.0
C24 C 0.36103 0.06215 0.15203 0.0
C25 C 0.38425 0.05145 0.12331 0.0
C26 C 0.37122 0.06785 0.12261 0.0
N27 N 0.32811 0.12295 0.13512 0.0
C28 C 0.32657 0.1588 0.13871 0.0
C29 C 0.30644 0.15902 0.13356 0.0
C30 C 0.29728 0.14072 0.12937 0.0
C31 C 0.30843 0.12289 0.13005 0.0
C32 C 0.33702 0.14069 0.13957 0.0
H33 H 0.30115 0.10907 0.12643 0.0
H34 H 0.3524 0.14111 0.14385 0.0
H35 H 0.35213 0.06607 0.16341 0.0
H36 H 0.37067 0.07636 0.11054 0.0
C37 C 0.31056 0.06664 0.12123 0.0
C38 C 0.3214 0.09928 0.17717 0.0
C39 C 0.35577 0.11354 0.09333 0.0
C40 C 0.38562 0.11567 0.15163 0.0
H41 H 0.28685 0.07253 0.17702 0.0
H42 H 0.28245 0.05288 0.14694 0.0
H43 H 0.30639 0.06581 0.08367 0.0
H44 H 0.32931 0.09333 0.06863 0.0
H45 H 0.3948 0.1324 0.09377 0.0
H46 H 0.41215 0.13196 0.12539 0.0
H47 H 0.3861 0.1208 0.18938 0.0
H48 H 0.35002 0.11355 0.20303 0.0
H49 H 0.37449 0.03718 0.16549 0.0
H50 H 0.39331 0.04809 0.11182 0.0
H51 H 0.33417 0.17254 0.1423 0.0
H52 H 0.28175 0.14022 0.12527 0.0
C53 C 0.423 0.31404 0.66505 0.0
C54 C 0.43566 0.29797 0.66833 0.0
C55 C 0.44677 0.29521 0.65327 0.0
C56 C 0.44031 0.30971 0.64171 0.0
N57 N 0.42588 0.32137 0.64862 0.0
Co58 Co 0.41215 0.34384 0.63666 0.0
N59 N 0.41976 0.33358 0.61306 0.0
C60 C 0.43426 0.32007 0.6097 0.0
C61 C 0.43564 0.31525 0.59214 0.0
C62 C 0.4213 0.3266 0.58393 0.0
C63 C 0.4121 0.33803 0.59697 0.0
N64 N 0.39861 0.3665 0.62474 0.0
C65 C 0.39316 0.36866 0.6076 0.0
C66 C 0.38475 0.38742 0.60477 0.0
C67 C 0.3851 0.39724 0.62071 0.0
C68 C 0.39372 0.38405 0.63237 0.0
N69 N 0.40458 0.35382 0.66036 0.0
C70 C 0.39899 0.3726 0.66437 0.0
C71 C 0.39416 0.37473 0.68194 0.0
C72 C 0.39694 0.35609 0.68932 0.0
C73 C 0.40333 0.34365 0.6758 0.0
N74 N 0.43701 0.35977 0.63754 0.0
C75 C 0.47039 0.38565 0.63937 0.0
C76 C 0.46451 0.37409 0.65401 0.0
C77 C 0.4479 0.36124 0.65281 0.0
C78 C 0.45939 0.38344 0.62369 0.0
C79 C 0.44292 0.3705 0.62305 0.0
N80 N 0.38718 0.32831 0.63579 0.0
C81 C 0.35134 0.32705 0.63947 0.0
C82 C 0.35094 0.30661 0.63516 0.0
C83 C 0.3693 0.29737 0.63103 0.0
C84 C 0.38716 0.30848 0.63132 0.0
C85 C 0.36947 0.33747 0.63987 0.0
H86 H 0.40099 0.30099 0.62803 0.0
H87 H 0.36909 0.35306 0.64351 0.0
H88 H 0.44366 0.35274 0.66434 0.0
H89 H 0.43467 0.3696 0.61084 0.0
C90 C 0.44395 0.31 0.62352 0.0
C91 C 0.40902 0.32254 0.67791 0.0
C92 C 0.39759 0.35417 0.59349 0.0
C93 C 0.39472 0.38633 0.65081 0.0
H94 H 0.43662 0.2891 0.68026 0.0
H95 H 0.45742 0.28334 0.65073 0.0
H96 H 0.44536 0.30424 0.58609 0.0
H97 H 0.41816 0.32653 0.56992 0.0
H98 H 0.37925 0.39349 0.59244 0.0
H99 H 0.37927 0.41203 0.62352 0.0
H100 H 0.38834 0.38794 0.68843 0.0
H101 H 0.39445 0.35211 0.703 0.0
H102 H 0.47266 0.37494 0.66635 0.0
H103 H 0.46305 0.39212 0.61205 0.0
H104 H 0.33771 0.33517 0.64238 0.0
H105 H 0.37001 0.2816 0.62781 0.0
C106 C 0.19741 0.42378 0.16419 0.0
C107 C 0.21405 0.43601 0.16647 0.0
C108 C 0.21639 0.44655 0.15107 0.0
C109 C 0.20124 0.4401 0.14022 0.0
N110 N 0.18955 0.42616 0.14785 0.0
Co111 Co 0.16663 0.4122 0.13668 0.0
N112 N 0.17612 0.41923 0.11266 0.0
C113 C 0.18961 0.43352 0.10867 0.0
C114 C 0.19377 0.43456 0.09096 0.0
C115 C 0.18198 0.42021 0.08331 0.0
C116 C 0.17102 0.41133 0.09682 0.0
N117 N 0.14353 0.39846 0.12556 0.0
C118 C 0.14072 0.39273 0.10857 0.0
C119 C 0.12187 0.38428 0.10638 0.0
C120 C 0.11263 0.38492 0.12257 0.0
C121 C 0.12624 0.39373 0.13373 0.0
N122 N 0.15742 0.40515 0.16076 0.0
C123 C 0.13874 0.39967 0.16531 0.0
C124 C 0.13705 0.39544 0.18302 0.0
C125 C 0.15585 0.3985 0.18996 0.0
C126 C 0.16798 0.4044 0.17603 0.0
N127 N 0.15077 0.43711 0.13755 0.0
C128 C 0.12493 0.47052 0.1395 0.0
C129 C 0.13689 0.46489 0.15395 0.0
C130 C 0.14974 0.44828 0.15268 0.0
C131 C 0.1267 0.45927 0.12393 0.0
C132 C 0.13962 0.44278 0.12322 0.0
N133 N 0.18208 0.38716 0.13585 0.0
C134 C 0.18335 0.3514 0.14009 0.0
C135 C 0.20363 0.35082 0.1352 0.0
C136 C 0.21278 0.36905 0.1305 0.0
C137 C 0.20175 0.38696 0.13081 0.0
C138 C 0.17301 0.36958 0.14048 0.0
H139 H 0.20916 0.40067 0.12708 0.0
H140 H 0.15756 0.36934 0.14455 0.0
H141 H 0.15858 0.44424 0.16408 0.0
H142 H 0.14015 0.43432 0.11112 0.0
C143 C 0.2003 0.4433 0.122 0.0
C144 C 0.18899 0.41059 0.17783 0.0
C145 C 0.15463 0.39696 0.09396 0.0
C146 C 0.12459 0.39513 0.15219 0.0
H147 H 0.22373 0.43706 0.17788 0.0
H148 H 0.22844 0.45675 0.14782 0.0
H149 H 0.2046 0.44409 0.08444 0.0
H150 H 0.18142 0.41686 0.06933 0.0
H151 H 0.11536 0.37858 0.0943 0.0
H152 H 0.09794 0.37918 0.12588 0.0
H153 H 0.12398 0.38993 0.18995 0.0
H154 H 0.16014 0.39666 0.20365 0.0
H155 H 0.13637 0.47324 0.1662 0.0
H156 H 0.11771 0.46276 0.11243 0.0
H157 H 0.17529 0.33788 0.14345 0.0
H158 H 0.22843 0.36961 0.12682 0.0
C159 C 0.08606 0.19716 0.66172 0.0
C160 C 0.07346 0.21367 0.663 0.0
C161 C 0.06318 0.21486 0.64736 0.0
C162 C 0.07017 0.19925 0.63732 0.0
N163 N 0.08424 0.18839 0.6457 0.0
Co164 Co 0.09899 0.16527 0.63578 0.0
N165 N 0.09245 0.1734 0.61131 0.0
C166 C 0.07751 0.18577 0.60646 0.0
C167 C 0.07639 0.18839 0.58851 0.0
C168 C 0.09148 0.17682 0.58167 0.0
C169 C 0.10101 0.16776 0.59591 0.0
N170 N 0.11349 0.14198 0.62585 0.0
C171 C 0.12015 0.13879 0.60919 0.0
C172 C 0.1294 0.12024 0.60787 0.0
C173 C 0.1282 0.11152 0.62429 0.0
C174 C 0.11835 0.12519 0.63471 0.0
N175 N 0.10553 0.15738 0.66029 0.0
C176 C 0.11123 0.13905 0.66566 0.0
C177 C 0.11497 0.1383 0.68351 0.0
C178 C 0.11136 0.15735 0.68965 0.0
C179 C 0.10564 0.16868 0.67514 0.0
N180 N 0.07438 0.14897 0.63671 0.0
C181 C 0.04106 0.12304 0.63868 0.0
C182 C 0.04609 0.1357 0.65283 0.0
C183 C 0.06268 0.14858 0.65156 0.0
C184 C 0.05293 0.12406 0.62342 0.0
C185 C 0.06938 0.13702 0.6227 0.0
N186 N 0.12371 0.18117 0.63484 0.0
C187 C 0.15944 0.18321 0.63914 0.0
C188 C 0.15963 0.20305 0.63318 0.0
C189 C 0.14137 0.21181 0.62823 0.0
C190 C 0.12361 0.20056 0.62898 0.0
C191 C 0.1414 0.17266 0.64004 0.0
H192 H 0.10982 0.20749 0.62475 0.0
H193 H 0.14182 0.15753 0.64493 0.0
H194 H 0.06623 0.15801 0.6627 0.0
H195 H 0.07831 0.13701 0.61085 0.0
C196 C 0.06715 0.19698 0.61913 0.0
C197 C 0.099 0.18965 0.67599 0.0
C198 C 0.11666 0.15244 0.59424 0.0
C199 C 0.11644 0.12437 0.65319 0.0
H200 H 0.07195 0.224 0.67391 0.0
H201 H 0.05275 0.22644 0.64342 0.0
H202 H 0.06626 0.19803 0.58127 0.0
H203 H 0.09487 0.17503 0.56778 0.0
H204 H 0.13621 0.11366 0.59627 0.0
H205 H 0.13442 0.09725 0.62827 0.0
H206 H 0.12052 0.1257 0.69105 0.0
H207 H 0.11271 0.16233 0.7032 0.0
H208 H 0.03727 0.13573 0.66483 0.0
H209 H 0.04992 0.11449 0.61219 0.0
H210 H 0.17314 0.17594 0.64332 0.0
H211 H 0.14086 0.22711 0.62348 0.0
C212 C 0.31301 0.42463 0.34059 0.0
C213 C 0.29646 0.43697 0.33822 0.0
C214 C 0.29405 0.4475 0.35361 0.0
C215 C 0.30907 0.44093 0.36456 0.0
N216 N 0.32074 0.42694 0.35698 0.0
Co217 Co 0.34345 0.41276 0.36828 0.0
N218 N 0.33378 0.41974 0.39224 0.0
C219 C 0.32035 0.43411 0.39617 0.0
C220 C 0.31592 0.435 0.41384 0.0
C221 C 0.32747 0.42046 0.42152 0.0
C222 C 0.33859 0.41165 0.40808 0.0
N223 N 0.36631 0.39875 0.37952 0.0
C224 C 0.36884 0.39281 0.3965 0.0
C225 C 0.3876 0.38422 0.39881 0.0
C226 C 0.39707 0.38496 0.38272 0.0
C227 C 0.38367 0.39398 0.37149 0.0
N228 N 0.35288 0.40584 0.34426 0.0
C229 C 0.37158 0.4003 0.33983 0.0
C230 C 0.37341 0.39612 0.32211 0.0
C231 C 0.35468 0.39928 0.31505 0.0
C232 C 0.34246 0.40518 0.32891 0.0
N233 N 0.35951 0.43756 0.36766 0.0
C234 C 0.38613 0.47028 0.36579 0.0
C235 C 0.37341 0.46561 0.35159 0.0
C236 C 0.36032 0.44916 0.35275 0.0
C237 C 0.38456 0.45868 0.38115 0.0
C238 C 0.37111 0.44264 0.38189 0.0
N239 N 0.32783 0.38782 0.36886 0.0
C240 C 0.32645 0.35208 0.36455 0.0
C241 C 0.30614 0.35154 0.36933 0.0
C242 C 0.29701 0.3698 0.37398 0.0
C243 C 0.30811 0.38768 0.37377 0.0
C244 C 0.33686 0.37022 0.36423 0.0
H245 H 0.30072 0.40141 0.37749 0.0
H246 H 0.35233 0.36993 0.36025 0.0
H247 H 0.35123 0.44552 0.34141 0.0
H248 H 0.37052 0.43402 0.3939 0.0
C249 C 0.30985 0.44404 0.38279 0.0
C250 C 0.32146 0.41138 0.32702 0.0
C251 C 0.35476 0.39702 0.41099 0.0
C252 C 0.38555 0.39555 0.35305 0.0
H253 H 0.28687 0.43809 0.32675 0.0
H254 H 0.28202 0.45775 0.3568 0.0
H255 H 0.30503 0.44452 0.42029 0.0
H256 H 0.3277 0.41692 0.43546 0.0
H257 H 0.39393 0.37836 0.41092 0.0
H258 H 0.41177 0.37916 0.37953 0.0
H259 H 0.38651 0.39056 0.31528 0.0
H260 H 0.35049 0.39748 0.30134 0.0
H261 H 0.37407 0.47416 0.33945 0.0
H262 H 0.39379 0.46192 0.39257 0.0
H263 H 0.33452 0.33854 0.36124 0.0
H264 H 0.28134 0.37043 0.37757 0.0
C265 C 0.08652 0.31307 0.83939 0.0
C266 C 0.07421 0.29652 0.83691 0.0
C267 C 0.06354 0.29409 0.85222 0.0
C268 C 0.06999 0.30908 0.86322 0.0
N269 N 0.08408 0.32076 0.85578 0.0
Co270 Co 0.09807 0.34349 0.86721 0.0
N271 N 0.09071 0.33386 0.89112 0.0
C272 C 0.0763 0.32041 0.8949 0.0
C273 C 0.07506 0.3161 0.91258 0.0
C274 C 0.0894 0.32774 0.92043 0.0
C275 C 0.09848 0.33877 0.90706 0.0
N276 N 0.11183 0.36641 0.87861 0.0
C277 C 0.1174 0.36904 0.89567 0.0
C278 C 0.12595 0.3878 0.89805 0.0
C279 C 0.12556 0.39718 0.88191 0.0
C280 C 0.11677 0.38372 0.8706 0.0
N281 N 0.10545 0.35287 0.84326 0.0
C282 C 0.11111 0.37154 0.83889 0.0
C283 C 0.11549 0.3734 0.82122 0.0
C284 C 0.11231 0.35472 0.81411 0.0
C285 C 0.10621 0.34249 0.8279 0.0
N286 N 0.07326 0.3595 0.86623 0.0
C287 C 0.03992 0.38543 0.86419 0.0
C288 C 0.04565 0.37357 0.8497 0.0
C289 C 0.06223 0.36068 0.85101 0.0
C290 C 0.05104 0.38352 0.87982 0.0
C291 C 0.0675 0.37057 0.88057 0.0
N292 N 0.123 0.32789 0.8682 0.0
C293 C 0.15888 0.32652 0.86475 0.0
C294 C 0.15915 0.30632 0.86969 0.0
C295 C 0.14084 0.29707 0.87374 0.0
C296 C 0.12297 0.30816 0.87308 0.0
C297 C 0.14075 0.33692 0.86393 0.0
H298 H 0.10915 0.30079 0.87656 0.0
H299 H 0.14113 0.35235 0.8598 0.0
H300 H 0.06634 0.35193 0.8396 0.0
H301 H 0.07586 0.36992 0.89273 0.0
C302 C 0.06661 0.30988 0.88142 0.0
C303 C 0.09981 0.32157 0.82587 0.0
C304 C 0.11292 0.35504 0.91015 0.0
C305 C 0.1156 0.38554 0.85214 0.0
H306 H 0.07319 0.28697 0.82542 0.0
H307 H 0.05324 0.28207 0.85531 0.0
H308 H 0.0654 0.30526 0.91894 0.0
H309 H 0.09261 0.32815 0.93443 0.0
H310 H 0.13157 0.39417 0.91022 0.0
H311 H 0.13144 0.41185 0.87875 0.0
H312 H 0.12113 0.3865 0.81443 0.0
H313 H 0.1142 0.35058 0.80039 0.0
H314 H 0.0374 0.37419 0.8374 0.0
H315 H 0.04748 0.39244 0.89134 0.0
H316 H 0.17262 0.3342 0.86128 0.0
H317 H 0.14036 0.28149 0.87769 0.0
C318 C 0.19757 0.08615 0.34167 0.0
C319 C 0.2141 0.07361 0.34012 0.0
C320 C 0.21558 0.06327 0.35572 0.0
C321 C 0.2001 0.07016 0.36598 0.0
N322 N 0.18905 0.08423 0.35779 0.0
Co323 Co 0.16599 0.09878 0.36804 0.0
N324 N 0.17448 0.09211 0.39238 0.0
C325 C 0.18701 0.07721 0.39702 0.0
C326 C 0.18988 0.07597 0.41493 0.0
C327 C 0.1783 0.09092 0.42199 0.0
C328 C 0.16899 0.1005 0.4079 0.0
N329 N 0.14276 0.11311 0.3783 0.0
C330 C 0.13974 0.11959 0.39504 0.0
C331 C 0.12115 0.12874 0.3966 0.0
C332 C 0.11223 0.12764 0.38027 0.0
C333 C 0.12582 0.11796 0.36965 0.0
N334 N 0.15772 0.10546 0.34365 0.0
C335 C 0.13929 0.11111 0.33851 0.0
C336 C 0.13825 0.11492 0.32069 0.0
C337 C 0.15722 0.11139 0.31431 0.0
C338 C 0.1688 0.10566 0.32866 0.0
N339 N 0.14977 0.07411 0.36715 0.0
C340 C 0.12384 0.04074 0.36526 0.0
C341 C 0.13634 0.0459 0.35102 0.0
C342 C 0.14921 0.0625 0.35225 0.0
C343 C 0.12505 0.05251 0.38057 0.0
C344 C 0.13801 0.06897 0.38125 0.0
N345 N 0.1818 0.12358 0.36895 0.0
C346 C 0.18359 0.15935 0.36488 0.0
C347 C 0.2035 0.15962 0.37067 0.0
C348 C 0.21243 0.14136 0.3754 0.0
C349 C 0.20126 0.12355 0.37462 0.0
C350 C 0.17313 0.14126 0.36395 0.0
H351 H 0.20833 0.10976 0.37868 0.0
H352 H 0.15793 0.14164 0.35921 0.0
H353 H 0.15849 0.06614 0.34103 0.0
H354 H 0.13813 0.07781 0.39315 0.0
C355 C 0.19811 0.06702 0.38417 0.0
C356 C 0.18977 0.09908 0.32752 0.0
C357 C 0.15357 0.11602 0.40984 0.0
C358 C 0.12476 0.11618 0.35117 0.0
H359 H 0.22423 0.07217 0.32906 0.0
H360 H 0.22726 0.05285 0.35947 0.0
H361 H 0.19968 0.06584 0.422 0.0
H362 H 0.17667 0.09417 0.43592 0.0
H363 H 0.11467 0.13539 0.40831 0.0
H364 H 0.09787 0.13381 0.37647 0.0
H365 H 0.12551 0.12045 0.31332 0.0
H366 H 0.16198 0.11281 0.3007 0.0
H367 H 0.13625 0.03716 0.33897 0.0
H368 H 0.11562 0.04942 0.39188 0.0
H369 H 0.17617 0.17305 0.36088 0.0
H370 H 0.22778 0.1409 0.38 0.0
C371 C 0.42289 0.1958 0.83795 0.0
C372 C 0.43555 0.21187 0.83472 0.0
C373 C 0.44665 0.21459 0.8498 0.0
C374 C 0.44018 0.20005 0.86131 0.0
N375 N 0.42576 0.18841 0.85437 0.0
Co376 Co 0.41202 0.16591 0.86626 0.0
N377 N 0.41963 0.17609 0.88989 0.0
C378 C 0.43413 0.18959 0.89329 0.0
C379 C 0.43559 0.19427 0.91087 0.0
C380 C 0.42131 0.18283 0.91906 0.0
C381 C 0.41206 0.17151 0.90598 0.0
N382 N 0.39847 0.1432 0.87812 0.0
C383 C 0.39309 0.14093 0.89526 0.0
C384 C 0.38465 0.12218 0.89802 0.0
C385 C 0.38491 0.11246 0.88204 0.0
C386 C 0.39352 0.1257 0.87042 0.0
N387 N 0.40445 0.15601 0.84253 0.0
C388 C 0.39883 0.13725 0.83846 0.0
C389 C 0.394 0.1352 0.82089 0.0
C390 C 0.39681 0.15385 0.81355 0.0
C391 C 0.40322 0.16624 0.82711 0.0
N392 N 0.43687 0.14996 0.86535 0.0
C393 C 0.47023 0.12402 0.86347 0.0
C394 C 0.46437 0.13563 0.84886 0.0
C395 C 0.44777 0.14851 0.85009 0.0
C396 C 0.45923 0.1262 0.87915 0.0
C397 C 0.44278 0.13917 0.87982 0.0
N398 N 0.38705 0.18145 0.86715 0.0
C399 C 0.35122 0.18276 0.86336 0.0
C400 C 0.35081 0.20318 0.86775 0.0
C401 C 0.36916 0.21238 0.87199 0.0
C402 C 0.38702 0.20126 0.87171 0.0
C403 C 0.36934 0.17232 0.86299 0.0
H404 H 0.40084 0.20872 0.87506 0.0
H405 H 0.36897 0.15675 0.8593 0.0
H406 H 0.44353 0.15704 0.83856 0.0
H407 H 0.43454 0.14004 0.89203 0.0
C408 C 0.44381 0.19971 0.87951 0.0
C409 C 0.40891 0.18735 0.82506 0.0
C410 C 0.39767 0.15527 0.90946 0.0
C411 C 0.39452 0.1235 0.85197 0.0
H412 H 0.43652 0.22079 0.82281 0.0
H413 H 0.4573 0.22645 0.85238 0.0
H414 H 0.44537 0.2052 0.91696 0.0
H415 H 0.41829 0.18271 0.9331 0.0
H416 H 0.37919 0.11603 0.91034 0.0
H417 H 0.37907 0.09769 0.87917 0.0
H418 H 0.38816 0.12202 0.81435 0.0
H419 H 0.39432 0.15789 0.79988 0.0
H420 H 0.47251 0.1348 0.83652 0.0
H421 H 0.46288 0.11749 0.89078 0.0
H422 H 0.33759 0.17467 0.86037 0.0
H423 H 0.36985 0.22813 0.87528 0.0
C424 C 0.66883 0.90426 0.82842 0.0
C425 C 0.65737 0.89843 0.81404 0.0
C426 C 0.63838 0.89481 0.82034 0.0
C427 C 0.6393 0.89867 0.83816 0.0
N428 N 0.65767 0.90443 0.84337 0.0
Co429 Co 0.66574 0.91121 0.86779 0.0
N430 N 0.64249 0.89684 0.87798 0.0
C431 C 0.62563 0.8919 0.86924 0.0
C432 C 0.612 0.88221 0.87982 0.0
C433 C 0.6208 0.8812 0.89621 0.0
C434 C 0.63937 0.8904 0.89472 0.0
N435 N 0.67404 0.91797 0.89217 0.0
C436 C 0.66847 0.90961 0.90768 0.0
C437 C 0.67765 0.91925 0.92179 0.0
C438 C 0.68924 0.93421 0.91476 0.0
C439 C 0.6865 0.93291 0.89683 0.0
N440 N 0.68882 0.92583 0.85762 0.0
C441 C 0.69977 0.93994 0.86584 0.0
C442 C 0.7153 0.94686 0.85566 0.0
C443 C 0.71395 0.9365 0.84007 0.0
C444 C 0.69744 0.92392 0.84154 0.0
N445 N 0.64945 0.93583 0.86674 0.0
C446 C 0.62353 0.96915 0.86459 0.0
C447 C 0.62468 0.9575 0.87998 0.0
C448 C 0.63762 0.94103 0.88078 0.0
C449 C 0.63607 0.96392 0.85041 0.0
C450 C 0.64894 0.94734 0.85178 0.0
N451 N 0.68163 0.88648 0.86884 0.0
C452 C 0.71235 0.86887 0.87531 0.0
C453 C 0.70353 0.85057 0.87056 0.0
C454 C 0.68362 0.85072 0.86479 0.0
C455 C 0.67306 0.86875 0.86385 0.0
C456 C 0.70108 0.88661 0.87454 0.0
H457 H 0.65787 0.86829 0.85909 0.0
H458 H 0.70807 0.90043 0.87861 0.0
H459 H 0.63769 0.93225 0.89272 0.0
H460 H 0.65829 0.94365 0.84061 0.0
C461 C 0.6247 0.8936 0.85075 0.0
C462 C 0.68976 0.91098 0.82735 0.0
C463 C 0.65308 0.89405 0.90959 0.0
C464 C 0.69764 0.94311 0.88402 0.0
H465 H 0.66221 0.89702 0.80045 0.0
H466 H 0.6257 0.88922 0.81292 0.0
H467 H 0.59769 0.87597 0.87596 0.0
H468 H 0.61427 0.87455 0.9079 0.0
H469 H 0.67594 0.91603 0.93572 0.0
H470 H 0.69895 0.94439 0.92185 0.0
H471 H 0.72691 0.95731 0.85946 0.0
H472 H 0.72416 0.93796 0.82907 0.0
H473 H 0.61521 0.96068 0.89124 0.0
H474 H 0.636 0.97258 0.83832 0.0
H475 H 0.72771 0.8694 0.87991 0.0
H476 H 0.67629 0.83698 0.86077 0.0
C477 C 0.60463 0.66918 0.32857 0.0
C478 C 0.61022 0.65777 0.31408 0.0
C479 C 0.61388 0.63876 0.32028 0.0
C480 C 0.61028 0.63959 0.33814 0.0
N481 N 0.60463 0.65795 0.34348 0.0
Co482 Co 0.59818 0.66591 0.368 0.0
N483 N 0.61264 0.64259 0.37794 0.0
C484 C 0.61744 0.62577 0.3691 0.0
C485 C 0.62729 0.61209 0.37952 0.0
C486 C 0.62857 0.62083 0.39591 0.0
C487 C 0.61934 0.6394 0.39459 0.0
N488 N 0.59176 0.67411 0.39246 0.0
C489 C 0.60037 0.66848 0.40785 0.0
C490 C 0.59093 0.67761 0.4221 0.0
C491 C 0.57587 0.68923 0.41528 0.0
C492 C 0.5769 0.68656 0.39733 0.0
N493 N 0.58346 0.68905 0.35805 0.0
C494 C 0.56946 0.69998 0.36645 0.0
C495 C 0.56243 0.71556 0.35639 0.0
C496 C 0.57259 0.71427 0.34069 0.0
C497 C 0.58517 0.69775 0.34198 0.0
N498 N 0.5735 0.64967 0.36715 0.0
C499 C 0.5401 0.62384 0.36529 0.0
C500 C 0.55181 0.62506 0.38063 0.0
C501 C 0.56836 0.63792 0.38127 0.0
C502 C 0.54528 0.63626 0.35102 0.0
C503 C 0.56187 0.64913 0.35226 0.0
N504 N 0.62297 0.68175 0.36885 0.0
C505 C 0.6407 0.71238 0.37539 0.0
C506 C 0.65895 0.70355 0.37051 0.0
C507 C 0.65872 0.68369 0.36461 0.0
C508 C 0.64064 0.67318 0.36371 0.0
C509 C 0.62292 0.70116 0.37465 0.0
H510 H 0.64103 0.65803 0.35886 0.0
H511 H 0.60914 0.70815 0.37883 0.0
H512 H 0.57725 0.638 0.39315 0.0
H513 H 0.56549 0.65843 0.34104 0.0
C514 C 0.61548 0.62492 0.35063 0.0
C515 C 0.59794 0.69013 0.32764 0.0
C516 C 0.61595 0.65307 0.40953 0.0
C517 C 0.56654 0.69777 0.38466 0.0
H518 H 0.61145 0.66267 0.3005 0.0
H519 H 0.61933 0.6261 0.31276 0.0
H520 H 0.63348 0.59781 0.37554 0.0
H521 H 0.63542 0.61426 0.4075 0.0
H522 H 0.59436 0.67583 0.43599 0.0
H523 H 0.56581 0.69892 0.42252 0.0
H524 H 0.55204 0.72717 0.36034 0.0
H525 H 0.57101 0.72453 0.32973 0.0
H526 H 0.54861 0.61568 0.39195 0.0
H527 H 0.53656 0.63608 0.33896 0.0
H528 H 0.64023 0.72769 0.38007 0.0
H529 H 0.67242 0.67636 0.3605 0.0
C530 C 0.84283 0.60557 0.82749 0.0
C531 C 0.85494 0.61148 0.81355 0.0
C532 C 0.87372 0.61465 0.82049 0.0
C533 C 0.87203 0.61047 0.83822 0.0
N534 N 0.85338 0.60492 0.84278 0.0
Co535 Co 0.84419 0.59789 0.86687 0.0
N536 N 0.86727 0.6117 0.87796 0.0
C537 C 0.88454 0.61647 0.86978 0.0
C538 C 0.89814 0.62533 0.88092 0.0
C539 C 0.88892 0.62595 0.89712 0.0
C540 C 0.87009 0.61745 0.89495 0.0
N541 N 0.83474 0.59087 0.8909 0.0
C542 C 0.83983 0.59882 0.90673 0.0
C543 C 0.82887 0.58996 0.92026 0.0
C544 C 0.81711 0.57557 0.91264 0.0
C545 C 0.82127 0.57657 0.89493 0.0
N546 N 0.8213 0.58384 0.85573 0.0
C547 C 0.80964 0.56989 0.8634 0.0
C548 C 0.7945 0.56339 0.85257 0.0
C549 C 0.79682 0.57388 0.83715 0.0
C550 C 0.81345 0.58613 0.83938 0.0
N551 N 0.86011 0.57302 0.86602 0.0
C552 C 0.88596 0.53962 0.8641 0.0
C553 C 0.8842 0.55089 0.87966 0.0
C554 C 0.87128 0.56738 0.88035 0.0
C555 C 0.87399 0.54522 0.84964 0.0
C556 C 0.86114 0.56183 0.8509 0.0
N557 N 0.82869 0.62288 0.86768 0.0
C558 C 0.79794 0.64092 0.87306 0.0
C559 C 0.80706 0.65919 0.86841 0.0
C560 C 0.82733 0.65865 0.8635 0.0
C561 C 0.83771 0.64049 0.86306 0.0
C562 C 0.80901 0.62303 0.87271 0.0
H563 H 0.85316 0.64077 0.85899 0.0
H564 H 0.80163 0.6093 0.87643 0.0
H565 H 0.87075 0.57586 0.89244 0.0
H566 H 0.85229 0.56583 0.8395 0.0
C567 C 0.88618 0.61507 0.85132 0.0
C568 C 0.82187 0.59925 0.82569 0.0
C569 C 0.85621 0.6132 0.90957 0.0
C570 C 0.81059 0.56675 0.88162 0.0
H571 H 0.85066 0.61324 0.79985 0.0
H572 H 0.88677 0.62018 0.81356 0.0
H573 H 0.91281 0.63111 0.8776 0.0
H574 H 0.89543 0.63169 0.90919 0.0
H575 H 0.82943 0.59335 0.93423 0.0
H576 H 0.80629 0.56604 0.91917 0.0
H577 H 0.78246 0.55319 0.85586 0.0
H578 H 0.78712 0.57278 0.82576 0.0
H579 H 0.89321 0.54742 0.89115 0.0
H580 H 0.8745 0.53685 0.8374 0.0
H581 H 0.7823 0.6403 0.87674 0.0
H582 H 0.83537 0.6722 0.86018 0.0
C583 C 0.90491 0.84195 0.32848 0.0
C584 C 0.89938 0.85353 0.31407 0.0
C585 C 0.89591 0.87253 0.32038 0.0
C586 C 0.89954 0.87151 0.33824 0.0
N587 N 0.90503 0.85306 0.34345 0.0
Co588 Co 0.9114 0.84481 0.36791 0.0
N589 N 0.8971 0.86814 0.37801 0.0
C590 C 0.89244 0.88508 0.36929 0.0
C591 C 0.88273 0.89875 0.37981 0.0
C592 C 0.88141 0.88988 0.39615 0.0
C593 C 0.89047 0.87124 0.3947 0.0
N594 N 0.91778 0.83634 0.39232 0.0
C595 C 0.90927 0.84192 0.40777 0.0
C596 C 0.91865 0.83259 0.42195 0.0
C597 C 0.9336 0.8209 0.41503 0.0
C598 C 0.93255 0.82373 0.3971 0.0
N599 N 0.92594 0.82166 0.35782 0.0
C600 C 0.93987 0.81054 0.36613 0.0
C601 C 0.94676 0.795 0.35596 0.0
C602 C 0.93658 0.79651 0.34028 0.0
C603 C 0.92413 0.81311 0.3417 0.0
N604 N 0.93619 0.86089 0.36718 0.0
C605 C 0.96962 0.88674 0.36538 0.0
C606 C 0.95775 0.8856 0.38065 0.0
C607 C 0.94126 0.87268 0.38128 0.0
C608 C 0.96455 0.87419 0.35116 0.0
C609 C 0.94791 0.86136 0.35235 0.0
N610 N 0.88651 0.82914 0.36862 0.0
C611 C 0.86852 0.79852 0.37459 0.0
C612 C 0.85032 0.8073 0.36925 0.0
C613 C 0.85087 0.82736 0.36371 0.0
C614 C 0.86897 0.83784 0.36333 0.0
C615 C 0.88634 0.8097 0.37428 0.0
H616 H 0.8687 0.85311 0.35876 0.0
H617 H 0.90003 0.80259 0.37856 0.0
H618 H 0.93233 0.87262 0.39313 0.0
H619 H 0.94433 0.85204 0.34114 0.0
C620 C 0.89442 0.88609 0.35083 0.0
C621 C 0.91136 0.82094 0.32745 0.0
C622 C 0.89382 0.85744 0.40956 0.0
C623 C 0.94282 0.81255 0.38435 0.0
H624 H 0.89807 0.84874 0.30046 0.0
H625 H 0.89053 0.88528 0.31295 0.0
H626 H 0.87667 0.91313 0.37593 0.0
H627 H 0.87466 0.89642 0.40779 0.0
H628 H 0.91527 0.83428 0.43585 0.0
H629 H 0.9436 0.81106 0.4222 0.0
H630 H 0.95707 0.78327 0.35981 0.0
H631 H 0.93806 0.78635 0.32925 0.0
H632 H 0.96079 0.89507 0.39194 0.0
H633 H 0.97337 0.87422 0.33916 0.0
H634 H 0.86914 0.78304 0.37878 0.0
H635 H 0.83736 0.83518 0.35985 0.0
C636 C 0.66849 0.60519 0.6749 0.0
C637 C 0.65687 0.61082 0.68925 0.0
C638 C 0.63788 0.61422 0.68287 0.0
C639 C 0.63894 0.61045 0.66504 0.0
N640 N 0.65741 0.60493 0.65991 0.0
Co641 Co 0.66575 0.59839 0.63552 0.0
N642 N 0.64244 0.6126 0.62527 0.0
C643 C 0.62546 0.6173 0.63391 0.0
C644 C 0.61182 0.62694 0.6233 0.0
C645 C 0.62076 0.62817 0.60698 0.0
C646 C 0.63941 0.61913 0.60854 0.0
N647 N 0.67431 0.59185 0.61117 0.0
C648 C 0.66879 0.60027 0.59567 0.0
C649 C 0.67817 0.59081 0.58157 0.0
C650 C 0.68983 0.5759 0.5886 0.0
C651 C 0.68694 0.57705 0.60652 0.0
N652 N 0.68888 0.58394 0.64576 0.0
C653 C 0.70002 0.56995 0.63756 0.0
C654 C 0.71553 0.56313 0.64783 0.0
C655 C 0.71397 0.57343 0.66344 0.0
C656 C 0.69738 0.58588 0.66189 0.0
N657 N 0.64969 0.57362 0.63636 0.0
C658 C 0.62387 0.54023 0.63833 0.0
C659 C 0.62508 0.55191 0.62296 0.0
C660 C 0.63798 0.56841 0.62224 0.0
C661 C 0.63634 0.54544 0.65256 0.0
C662 C 0.64917 0.56205 0.65128 0.0
N663 N 0.6814 0.62327 0.63471 0.0
C664 C 0.71207 0.64121 0.62879 0.0
C665 C 0.70327 0.65941 0.63405 0.0
C666 C 0.68318 0.6589 0.63951 0.0
C667 C 0.67268 0.64082 0.63991 0.0
C668 C 0.70087 0.62339 0.62911 0.0
H669 H 0.65739 0.64111 0.64442 0.0
H670 H 0.70799 0.6097 0.62491 0.0
H671 H 0.63808 0.57723 0.61033 0.0
H672 H 0.65843 0.56574 0.6625 0.0
C673 C 0.62438 0.61545 0.65239 0.0
C674 C 0.68951 0.59876 0.67603 0.0
C675 C 0.65328 0.61572 0.59376 0.0
C676 C 0.69807 0.56687 0.61936 0.0
H677 H 0.66162 0.61225 0.70287 0.0
H678 H 0.62509 0.61965 0.69024 0.0
H679 H 0.59742 0.63301 0.62709 0.0
H680 H 0.61426 0.63484 0.59529 0.0
H681 H 0.67654 0.59412 0.56765 0.0
H682 H 0.6997 0.56586 0.58152 0.0
H683 H 0.72727 0.55279 0.64408 0.0
H684 H 0.72409 0.57203 0.67452 0.0
H685 H 0.61567 0.54873 0.61165 0.0
H686 H 0.63623 0.53675 0.66464 0.0
H687 H 0.72756 0.64057 0.62465 0.0
H688 H 0.67536 0.67243 0.64331 0.0
C689 C 0.90471 0.66811 0.17556 0.0
C690 C 0.89856 0.65603 0.18944 0.0
C691 C 0.8953 0.63729 0.18247 0.0
C692 C 0.89967 0.63897 0.16478 0.0
N693 N 0.90542 0.65757 0.16027 0.0
Co694 Co 0.91278 0.66672 0.13624 0.0
N695 N 0.89891 0.64376 0.12502 0.0
C696 C 0.89393 0.62653 0.13316 0.0
C697 C 0.88507 0.61301 0.12194 0.0
C698 C 0.88467 0.62226 0.10575 0.0
C699 C 0.8933 0.64101 0.10799 0.0
N700 N 0.92011 0.67614 0.11227 0.0
C701 C 0.91227 0.67114 0.09638 0.0
C702 C 0.92134 0.68204 0.08292 0.0
C703 C 0.93575 0.69368 0.09067 0.0
C704 C 0.93455 0.6895 0.10837 0.0
N705 N 0.92689 0.68949 0.14751 0.0
C706 C 0.94101 0.70104 0.13996 0.0
C707 C 0.94753 0.71612 0.15084 0.0
C708 C 0.93687 0.71387 0.16618 0.0
C709 C 0.92451 0.69734 0.16384 0.0
N710 N 0.93754 0.65063 0.13728 0.0
C711 C 0.97085 0.62465 0.13937 0.0
C712 C 0.95967 0.62648 0.12375 0.0
C713 C 0.94323 0.63946 0.12298 0.0
C714 C 0.96517 0.6366 0.15382 0.0
C715 C 0.9486 0.6495 0.15248 0.0
N716 N 0.88789 0.6824 0.1352 0.0
C717 C 0.87015 0.71324 0.12948 0.0
C718 C 0.8518 0.70404 0.1335 0.0
C719 C 0.852 0.68388 0.13853 0.0
C720 C 0.87011 0.67345 0.13948 0.0
C721 C 0.88798 0.70211 0.13023 0.0
H722 H 0.86967 0.65805 0.14368 0.0
H723 H 0.90183 0.70942 0.12675 0.0
H724 H 0.93485 0.64005 0.11084 0.0
H725 H 0.94454 0.65834 0.16387 0.0
C726 C 0.89511 0.62487 0.15163 0.0
C727 C 0.91119 0.68901 0.17744 0.0
C728 C 0.89777 0.65488 0.09342 0.0
C729 C 0.94433 0.70009 0.12176 0.0
H730 H 0.8967 0.66031 0.20313 0.0
H731 H 0.88961 0.62428 0.18935 0.0
H732 H 0.87914 0.59839 0.12521 0.0
H733 H 0.879 0.61581 0.09363 0.0
H734 H 0.91807 0.68154 0.06893 0.0
H735 H 0.94542 0.70444 0.08422 0.0
H736 H 0.95786 0.72808 0.14764 0.0
H737 H 0.93794 0.72355 0.17758 0.0
H738 H 0.96319 0.6175 0.11226 0.0
H739 H 0.97345 0.63602 0.1661 0.0
H740 H 0.87066 0.7288 0.12547 0.0
H741 H 0.83822 0.67624 0.14198 0.0
C742 C 0.84207 0.90415 0.67531 0.0
C743 C 0.8537 0.8983 0.68959 0.0
C744 C 0.87261 0.89469 0.68313 0.0
C745 C 0.8715 0.89857 0.66532 0.0
N746 N 0.85307 0.90434 0.66027 0.0
Co747 Co 0.84474 0.91118 0.63592 0.0
N748 N 0.86788 0.89682 0.62554 0.0
C749 C 0.88483 0.89184 0.63412 0.0
C750 C 0.89834 0.88216 0.62342 0.0
C751 C 0.88936 0.88119 0.60711 0.0
C752 C 0.87082 0.89041 0.60876 0.0
N753 N 0.83619 0.91802 0.61163 0.0
C754 C 0.8416 0.90969 0.59606 0.0
C755 C 0.83227 0.91937 0.58204 0.0
C756 C 0.82076 0.93432 0.58919 0.0
C757 C 0.82369 0.93297 0.60709 0.0
N758 N 0.82178 0.92577 0.64631 0.0
C759 C 0.81074 0.93993 0.6382 0.0
C760 C 0.79534 0.94684 0.64854 0.0
C761 C 0.79686 0.93644 0.6641 0.0
C762 C 0.81333 0.92384 0.66246 0.0
N763 N 0.86105 0.93578 0.63687 0.0
C764 C 0.88701 0.96908 0.63883 0.0
C765 C 0.88576 0.95738 0.62348 0.0
C766 C 0.87278 0.94095 0.62276 0.0
C767 C 0.87455 0.96389 0.65308 0.0
C768 C 0.86166 0.94731 0.65181 0.0
N769 N 0.82884 0.88647 0.63495 0.0
C770 C 0.79809 0.8689 0.62852 0.0
C771 C 0.80697 0.85058 0.6331 0.0
C772 C 0.82691 0.85068 0.6388 0.0
C773 C 0.83745 0.86871 0.63981 0.0
C774 C 0.80935 0.88664 0.62935 0.0
H775 H 0.85268 0.86823 0.64449 0.0
H776 H 0.80233 0.90049 0.6254 0.0
H777 H 0.87261 0.93216 0.61083 0.0
H778 H 0.8524 0.94364 0.66304 0.0
C779 C 0.88596 0.89351 0.6526 0.0
C780 C 0.82115 0.91086 0.67656 0.0
C781 C 0.85696 0.89412 0.59401 0.0
C782 C 0.81268 0.94314 0.62001 0.0
H783 H 0.84901 0.89687 0.70322 0.0
H784 H 0.88538 0.88908 0.69043 0.0
H785 H 0.91268 0.8759 0.62715 0.0
H786 H 0.89577 0.87457 0.59535 0.0
H787 H 0.83383 0.91618 0.56809 0.0
H788 H 0.81097 0.94452 0.58219 0.0
H789 H 0.7837 0.95732 0.64486 0.0
H790 H 0.78681 0.93789 0.67522 0.0
H791 H 0.89517 0.9605 0.61216 0.0
H792 H 0.87468 0.97258 0.66515 0.0
H793 H 0.78271 0.86946 0.624 0.0
H794 H 0.83427 0.83691 0.64268 0.0
C795 C 0.60569 0.84231 0.17542 0.0
C796 C 0.61127 0.85395 0.18977 0.0
C797 C 0.61484 0.87289 0.18336 0.0
C798 C 0.6112 0.87178 0.16551 0.0
N799 N 0.60563 0.85332 0.16039 0.0
Co800 Co 0.59919 0.84498 0.13595 0.0
N801 N 0.61349 0.86825 0.12573 0.0
C802 C 0.61822 0.88521 0.13439 0.0
C803 C 0.6279 0.89883 0.1238 0.0
C804 C 0.62912 0.88992 0.10748 0.0
C805 C 0.62004 0.8713 0.10901 0.0
N806 N 0.59274 0.83641 0.11158 0.0
C807 C 0.60119 0.84195 0.09609 0.0
C808 C 0.59177 0.83256 0.08196 0.0
C809 C 0.57686 0.82089 0.08896 0.0
C810 C 0.57797 0.82378 0.10688 0.0
N811 N 0.58465 0.82188 0.14616 0.0
C812 C 0.57072 0.81073 0.1379 0.0
C813 C 0.56378 0.79526 0.14815 0.0
C814 C 0.57394 0.79686 0.16383 0.0
C815 C 0.58641 0.81344 0.16234 0.0
N816 N 0.57443 0.86108 0.13669 0.0
C817 C 0.54102 0.88693 0.13851 0.0
C818 C 0.5528 0.88573 0.1232 0.0
C819 C 0.5693 0.8728 0.12256 0.0
C820 C 0.54615 0.87445 0.15276 0.0
C821 C 0.56277 0.86161 0.15156 0.0
N822 N 0.62407 0.82928 0.13526 0.0
C823 C 0.64202 0.79862 0.12933 0.0
C824 C 0.66022 0.80739 0.13466 0.0
C825 C 0.6597 0.82746 0.14017 0.0
C826 C 0.64162 0.83797 0.14052 0.0
C827 C 0.62421 0.80982 0.12962 0.0
H828 H 0.6419 0.85324 0.14505 0.0
H829 H 0.61051 0.80272 0.12537 0.0
H830 H 0.57818 0.87269 0.11068 0.0
H831 H 0.56638 0.85234 0.16279 0.0
C832 C 0.61631 0.88629 0.15285 0.0
C833 C 0.5991 0.82136 0.1766 0.0
C834 C 0.6166 0.85748 0.09418 0.0
C835 C 0.56774 0.81266 0.11968 0.0
H836 H 0.61255 0.84925 0.20341 0.0
H837 H 0.62025 0.88568 0.19073 0.0
H838 H 0.63398 0.91322 0.12761 0.0
H839 H 0.63581 0.89643 0.09579 0.0
H840 H 0.5951 0.8342 0.06805 0.0
H841 H 0.56683 0.81102 0.08185 0.0
H842 H 0.55345 0.78354 0.14435 0.0
H843 H 0.5724 0.78678 0.17492 0.0
H844 H 0.5497 0.89514 0.11188 0.0
H845 H 0.53738 0.87455 0.16479 0.0
H846 H 0.6414 0.78314 0.12515 0.0
H847 H 0.67322 0.83526 0.14403 0.0
C848 C 0.40848 0.14343 0.93937 0.0
C849 C 0.39307 0.1498 0.9281 0.0
C850 C 0.40465 0.13954 0.95717 0.0
C851 C 0.36659 0.1485 0.99255 0.0
H852 H 0.39873 0.10924 0.01737 0.0
C853 C 0.3599 0.13801 0.06835 0.0
C854 C 0.36181 0.11849 0.07492 0.0
C855 C 0.36438 0.14218 0.05063 0.0
C856 C 0.38938 0.1201 0.01069 0.0
H857 H 0.36136 0.15586 0.92613 0.0
H858 H 0.35426 0.1481 0.95714 0.0
H859 H 0.4037 0.11422 0.98605 0.0
H860 H 0.37071 0.08819 0.06861 0.0
H861 H 0.3776 0.09503 0.03766 0.0
H862 H 0.35147 0.15351 0.01705 0.0
C863 C 0.36955 0.14699 0.9525 0.0
C864 C 0.3925 0.12324 0.99264 0.0
C865 C 0.37351 0.15124 0.9347 0.0
C866 C 0.36893 0.10334 0.06373 0.0
C867 C 0.37307 0.10738 0.04601 0.0
C868 C 0.36321 0.1451 0.01057 0.0
C869 C 0.38514 0.14135 0.96408 0.0
C870 C 0.38125 0.13757 0.98328 0.0
C871 C 0.37073 0.12683 0.0391 0.0
C872 C 0.37459 0.13086 0.01994 0.0
H873 H 0.42366 0.14197 0.93446 0.0
H874 H 0.41716 0.13556 0.96555 0.0
H875 H 0.35779 0.1599 0.98597 0.0
H876 H 0.35465 0.14995 0.07686 0.0
H877 H 0.36284 0.15744 0.046 0.0
C878 C 0.3588 0.37162 0.43527 0.0
C879 C 0.36028 0.3915 0.42941 0.0
C880 C 0.36276 0.36684 0.45297 0.0
C881 C 0.36057 0.3879 0.49708 0.0
H882 H 0.39998 0.34816 0.51081 0.0
C883 C 0.37241 0.35801 0.56901 0.0
C884 C 0.39231 0.35919 0.57489 0.0
C885 C 0.36774 0.36186 0.55126 0.0
C886 C 0.38886 0.35922 0.50713 0.0
H887 H 0.36817 0.42176 0.43697 0.0
H888 H 0.37438 0.41355 0.46803 0.0
H889 H 0.39349 0.35442 0.47937 0.0
H890 H 0.42272 0.36645 0.56732 0.0
H891 H 0.4147 0.37243 0.53619 0.0
H892 H 0.35579 0.39254 0.52484 0.0
C893 C 0.37004 0.40171 0.45903 0.0
C894 C 0.38511 0.36272 0.4892 0.0
C895 C 0.36653 0.40638 0.44132 0.0
C896 C 0.40734 0.36497 0.56295 0.0
C897 C 0.40276 0.36838 0.5452 0.0
C898 C 0.364 0.38407 0.51501 0.0
C899 C 0.36799 0.38194 0.46507 0.0
C900 C 0.37113 0.3773 0.48402 0.0
C901 C 0.38296 0.36669 0.53915 0.0
C902 C 0.37838 0.3699 0.52019 0.0
H903 H 0.35421 0.35991 0.42624 0.0
H904 H 0.36119 0.35147 0.45732 0.0
H905 H 0.34965 0.39915 0.4934 0.0
H906 H 0.36057 0.35382 0.57807 0.0
H907 H 0.35234 0.36058 0.54691 0.0
C908 C 0.13714 0.35924 0.93532 0.0
C909 C 0.11763 0.36091 0.92866 0.0
C910 C 0.14111 0.36363 0.95309 0.0
C911 C 0.11837 0.38793 0.99308 0.0
H912 H 0.15872 0.35699 0.01774 0.0
C913 C 0.14171 0.40737 0.06432 0.0
C914 C 0.14857 0.39211 0.07553 0.0
C915 C 0.13761 0.40343 0.04658 0.0
C916 C 0.14716 0.36559 0.01118 0.0
H917 H 0.08715 0.3693 0.93486 0.0
H918 H 0.09366 0.37598 0.9659 0.0
H919 H 0.1525 0.3507 0.98663 0.0
H920 H 0.15526 0.36055 0.07748 0.0
H921 H 0.14712 0.35322 0.04659 0.0
H922 H 0.11217 0.40201 0.01776 0.0
C923 C 0.10613 0.37172 0.95759 0.0
C924 C 0.14385 0.36224 0.99314 0.0
C925 C 0.10229 0.36769 0.93982 0.0
C926 C 0.15023 0.37257 0.06896 0.0
C927 C 0.14577 0.3685 0.05122 0.0
C928 C 0.1214 0.39101 0.01114 0.0
C929 C 0.12558 0.36963 0.96458 0.0
C930 C 0.12944 0.37341 0.98379 0.0
C931 C 0.13971 0.38395 0.03967 0.0
C932 C 0.13594 0.38 0.02048 0.0
H933 H 0.14923 0.35429 0.92684 0.0
H934 H 0.15637 0.3623 0.95779 0.0
H935 H 0.10735 0.39712 0.98641 0.0
H936 H 0.14012 0.42254 0.06921 0.0
H937 H 0.13331 0.41585 0.03822 0.0
C938 C 0.11401 0.13161 0.56693 0.0
C939 C 0.12356 0.14707 0.5762 0.0
C940 C 0.11822 0.12839 0.54906 0.0
C941 C 0.13817 0.15461 0.50955 0.0
H942 H 0.13774 0.10121 0.48951 0.0
C943 C 0.16023 0.13665 0.43682 0.0
C944 C 0.14829 0.12257 0.428 0.0
C945 C 0.15719 0.14052 0.45481 0.0
C946 C 0.13771 0.11624 0.49488 0.0
H947 H 0.14492 0.17128 0.57436 0.0
H948 H 0.15289 0.16534 0.54319 0.0
H949 H 0.13388 0.10549 0.52127 0.0
H950 H 0.12394 0.10146 0.43075 0.0
H951 H 0.11842 0.10829 0.46216 0.0
H952 H 0.14226 0.16526 0.48305 0.0
C953 C 0.14196 0.1558 0.54959 0.0
C954 C 0.13549 0.11871 0.51311 0.0
C955 C 0.13764 0.15907 0.56746 0.0
C956 C 0.13306 0.11265 0.43728 0.0
C957 C 0.13011 0.11638 0.45526 0.0
C958 C 0.14055 0.15212 0.4913 0.0
C959 C 0.13206 0.14061 0.54006 0.0
C960 C 0.13551 0.13794 0.52071 0.0
C961 C 0.14236 0.13012 0.46432 0.0
C962 C 0.14015 0.13291 0.48373 0.0
H963 H 0.10272 0.12251 0.57336 0.0
H964 H 0.11001 0.1168 0.54217 0.0
H965 H 0.13794 0.16968 0.51483 0.0
H966 H 0.17231 0.14415 0.42993 0.0
H967 H 0.16698 0.15105 0.46144 0.0
C968 C 0.6134 0.87808 0.06676 0.0
C969 C 0.62324 0.86281 0.07605 0.0
C970 C 0.61745 0.88129 0.04886 0.0
C971 C 0.63772 0.85531 0.00931 0.0
H972 H 0.6365 0.90869 0.98921 0.0
C973 C 0.65979 0.87349 0.93663 0.0
C974 C 0.64776 0.88745 0.92773 0.0
C975 C 0.65669 0.86959 0.95461 0.0
C976 C 0.63669 0.89366 0.99459 0.0
H977 H 0.64494 0.8389 0.07418 0.0
H978 H 0.65262 0.84483 0.04295 0.0
H979 H 0.63264 0.90437 0.02097 0.0
H980 H 0.62319 0.90833 0.93038 0.0
H981 H 0.61756 0.90143 0.96177 0.0
H982 H 0.64203 0.8447 0.98284 0.0
C983 C 0.64159 0.85422 0.04936 0.0
C984 C 0.63447 0.89116 0.01283 0.0
C985 C 0.63743 0.85097 0.06727 0.0
C986 C 0.63239 0.89723 0.93696 0.0
C987 C 0.62937 0.89345 0.95493 0.0
C988 C 0.64009 0.85783 0.99106 0.0
C989 C 0.63143 0.86925 0.03983 0.0
C990 C 0.63478 0.87194 0.02046 0.0
C991 C 0.6417 0.87984 0.96405 0.0
C992 C 0.63942 0.87703 0.98347 0.0
H993 H 0.60203 0.88705 0.07322 0.0
H994 H 0.60904 0.89274 0.04196 0.0
H995 H 0.63772 0.84025 0.01462 0.0
H996 H 0.67198 0.8661 0.92979 0.0
H997 H 0.66655 0.85916 0.96128 0.0
C998 C 0.63275 0.61259 0.5663 0.0
C999 C 0.64801 0.6224 0.57563 0.0
C1000 C 0.62955 0.61674 0.54843 0.0
C1001 C 0.65545 0.63723 0.50895 0.0
H1002 H 0.60198 0.63617 0.48899 0.0
C1003 C 0.63679 0.65966 0.43641 0.0
C1004 C 0.62279 0.64764 0.42757 0.0
C1005 C 0.64087 0.65646 0.45434 0.0
C1006 C 0.61704 0.63632 0.49433 0.0
H1007 H 0.67191 0.64411 0.57386 0.0
H1008 H 0.66599 0.65196 0.54266 0.0
H1009 H 0.6064 0.63218 0.52072 0.0
H1010 H 0.60204 0.62296 0.43025 0.0
H1011 H 0.60925 0.61717 0.46155 0.0
H1012 H 0.66597 0.64165 0.48245 0.0
C1013 C 0.6566 0.64088 0.54902 0.0
C1014 C 0.61959 0.63402 0.51255 0.0
C1015 C 0.65986 0.63663 0.56692 0.0
C1016 C 0.61317 0.63216 0.43678 0.0
C1017 C 0.61712 0.62905 0.45471 0.0
C1018 C 0.65287 0.63969 0.49071 0.0
C1019 C 0.64158 0.63078 0.53946 0.0
C1020 C 0.63884 0.63426 0.52012 0.0
C1021 C 0.63075 0.64138 0.46379 0.0
C1022 C 0.63364 0.63907 0.48318 0.0
H1023 H 0.62378 0.60119 0.57272 0.0
H1024 H 0.6181 0.60836 0.54149 0.0
H1025 H 0.67053 0.6372 0.51422 0.0
H1026 H 0.64406 0.67192 0.42957 0.0
H1027 H 0.65131 0.66632 0.46099 0.0
C1028 C 0.86917 0.60272 0.93917 0.0
C1029 C 0.86231 0.61801 0.928 0.0
C1030 C 0.87324 0.60661 0.95693 0.0
C1031 C 0.86364 0.64436 0.9924 0.0
H1032 H 0.90326 0.61263 0.01719 0.0
C1033 C 0.87353 0.65064 0.06827 0.0
C1034 C 0.89303 0.64887 0.07495 0.0
C1035 C 0.86956 0.64623 0.0505 0.0
C1036 C 0.8923 0.62188 0.01052 0.0
H1037 H 0.85561 0.64958 0.92611 0.0
H1038 H 0.86373 0.65681 0.95703 0.0
H1039 H 0.89854 0.60786 0.98582 0.0
H1040 H 0.92347 0.6403 0.0688 0.0
H1041 H 0.91697 0.6336 0.03777 0.0
H1042 H 0.85827 0.6592 0.01697 0.0
C1043 C 0.86509 0.64156 0.95237 0.0
C1044 C 0.88932 0.61887 0.99244 0.0
C1045 C 0.86064 0.63753 0.93461 0.0
C1046 C 0.90834 0.64197 0.06383 0.0
C1047 C 0.9045 0.63793 0.04606 0.0
C1048 C 0.8669 0.64765 0.01045 0.0
C1049 C 0.87112 0.62606 0.96389 0.0
C1050 C 0.87484 0.62994 0.98309 0.0
C1051 C 0.88508 0.64013 0.03903 0.0
C1052 C 0.88125 0.63641 0.01982 0.0
H1053 H 0.87075 0.58756 0.93426 0.0
H1054 H 0.87752 0.59416 0.96526 0.0
H1055 H 0.85212 0.65301 0.98584 0.0
H1056 H 0.86147 0.6557 0.07673 0.0
H1057 H 0.85432 0.64765 0.04578 0.0
C1058 C 0.89676 0.87813 0.43694 0.0
C1059 C 0.88705 0.86279 0.42764 0.0
C1060 C 0.89257 0.88137 0.4548 0.0
C1061 C 0.87224 0.85541 0.49431 0.0
H1062 H 0.87306 0.90885 0.51427 0.0
C1063 C 0.85014 0.87361 0.56698 0.0
C1064 C 0.86215 0.88762 0.57582 0.0
C1065 C 0.85318 0.86972 0.54899 0.0
C1066 C 0.87298 0.89381 0.50892 0.0
H1067 H 0.86544 0.8388 0.42945 0.0
H1068 H 0.85752 0.84479 0.46063 0.0
H1069 H 0.87702 0.90447 0.48252 0.0
H1070 H 0.88662 0.9086 0.57308 0.0
H1071 H 0.89213 0.90174 0.54168 0.0
H1072 H 0.86795 0.84485 0.52081 0.0
C1073 C 0.86855 0.85421 0.45425 0.0
C1074 C 0.87525 0.89128 0.4907 0.0
C1075 C 0.87285 0.85092 0.43637 0.0
C1076 C 0.87743 0.89748 0.56654 0.0
C1077 C 0.88038 0.89372 0.54856 0.0
C1078 C 0.86981 0.85797 0.51255 0.0
C1079 C 0.87858 0.8693 0.46379 0.0
C1080 C 0.8751 0.87204 0.48313 0.0
C1081 C 0.86809 0.88003 0.53949 0.0
C1082 C 0.87034 0.87719 0.52009 0.0
H1083 H 0.90814 0.88712 0.43052 0.0
H1084 H 0.90089 0.89288 0.46172 0.0
H1085 H 0.87236 0.84034 0.48904 0.0
H1086 H 0.83803 0.86616 0.57387 0.0
H1087 H 0.84335 0.85924 0.54236 0.0
C1088 C 0.23028 0.32769 0.12263 0.0
C1089 C 0.21489 0.33132 0.13499 0.0
C1090 C 0.24032 0.30922 0.12221 0.0
C1091 C 0.23413 0.25604 0.1334 0.0
H1092 H 0.2921 0.25367 0.13253 0.0
C1093 C 0.27656 0.18057 0.14089 0.0
C1094 C 0.29527 0.17834 0.13263 0.0
C1095 C 0.26669 0.19913 0.14086 0.0
C1096 C 0.27589 0.25392 0.13243 0.0
H1097 H 0.19876 0.3181 0.15705 0.0
H1098 H 0.21567 0.28586 0.15576 0.0
H1099 H 0.27532 0.28607 0.13271 0.0
H1100 H 0.31794 0.19364 0.11729 0.0
H1101 H 0.30049 0.22564 0.11648 0.0
H1102 H 0.23448 0.22404 0.13257 0.0
C1103 C 0.21984 0.29735 0.14635 0.0
C1104 C 0.26628 0.2726 0.13263 0.0
C1105 C 0.21005 0.31589 0.14698 0.0
C1106 C 0.30364 0.19496 0.12396 0.0
C1107 C 0.29364 0.2134 0.12364 0.0
C1108 C 0.2437 0.23736 0.13288 0.0
C1109 C 0.23505 0.29375 0.13394 0.0
C1110 C 0.2453 0.27389 0.13325 0.0
C1111 C 0.2751 0.21592 0.13227 0.0
C1112 C 0.26478 0.23595 0.13249 0.0
H1113 H 0.23434 0.33894 0.11298 0.0
H1114 H 0.2519 0.30686 0.11241 0.0
H1115 H 0.21791 0.25654 0.13367 0.0
H1116 H 0.26983 0.16809 0.14784 0.0
H1117 H 0.25267 0.20036 0.14794 0.0
C1118 C 0.31579 0.30047 0.64654 0.0
C1119 C 0.33149 0.29527 0.63494 0.0
C1120 C 0.2973 0.29061 0.64586 0.0
C1121 C 0.273 0.24363 0.63309 0.0
H1122 H 0.22435 0.27524 0.63108 0.0
C1123 C 0.19573 0.20567 0.62408 0.0
C1124 C 0.17888 0.2143 0.63219 0.0
C1125 C 0.21413 0.21574 0.62378 0.0
C1126 C 0.23769 0.26608 0.63194 0.0
H1127 H 0.33965 0.27508 0.61362 0.0
H1128 H 0.30764 0.2574 0.613 0.0
H1129 H 0.25677 0.29195 0.6323 0.0
H1130 H 0.16814 0.24027 0.6464 0.0
H1131 H 0.20034 0.25758 0.64656 0.0
H1132 H 0.25416 0.21778 0.63343 0.0
C1133 C 0.30975 0.26933 0.62251 0.0
C1134 C 0.25633 0.27573 0.63253 0.0
C1135 C 0.32818 0.27944 0.62296 0.0
C1136 C 0.18082 0.23334 0.63989 0.0
C1137 C 0.19934 0.24328 0.63989 0.0
C1138 C 0.25436 0.23396 0.63282 0.0
C1139 C 0.29402 0.27495 0.63382 0.0
C1140 C 0.27421 0.26463 0.63307 0.0
C1141 C 0.21637 0.23461 0.63189 0.0
C1142 C 0.23635 0.24501 0.63218 0.0
H1143 H 0.31775 0.31213 0.65631 0.0
H1144 H 0.28559 0.29507 0.65495 0.0
H1145 H 0.2865 0.23466 0.63371 0.0
H1146 H 0.19463 0.19111 0.61786 0.0
H1147 H 0.22658 0.20867 0.61707 0.0
C1148 C 0.27926 0.3285 0.38169 0.0
C1149 C 0.29483 0.33205 0.36949 0.0
C1150 C 0.26923 0.31002 0.3821 0.0
C1151 C 0.27567 0.25677 0.37146 0.0
H1152 H 0.2177 0.25429 0.37122 0.0
C1153 C 0.23362 0.18108 0.36392 0.0
C1154 C 0.21465 0.17894 0.37172 0.0
C1155 C 0.24346 0.19966 0.364 0.0
C1156 C 0.2339 0.25457 0.37165 0.0
H1157 H 0.31127 0.31868 0.34768 0.0
H1158 H 0.29439 0.28644 0.34899 0.0
H1159 H 0.23442 0.28672 0.37108 0.0
H1160 H 0.19148 0.19442 0.38632 0.0
H1161 H 0.20887 0.22644 0.38724 0.0
H1162 H 0.27537 0.22478 0.37261 0.0
C1163 C 0.29007 0.29799 0.35828 0.0
C1164 C 0.24347 0.27327 0.37146 0.0
C1165 C 0.29984 0.31654 0.35763 0.0
C1166 C 0.20599 0.19566 0.38001 0.0
C1167 C 0.21596 0.21412 0.38038 0.0
C1168 C 0.26613 0.23807 0.37199 0.0
C1169 C 0.27468 0.29447 0.37053 0.0
C1170 C 0.26447 0.2746 0.37123 0.0
C1171 C 0.23476 0.21655 0.37218 0.0
C1172 C 0.24505 0.23661 0.37198 0.0
H1173 H 0.27505 0.3398 0.39123 0.0
H1174 H 0.2575 0.30772 0.39177 0.0
H1175 H 0.29189 0.2573 0.3715 0.0
H1176 H 0.24058 0.16851 0.35727 0.0
H1177 H 0.25769 0.2008 0.35724 0.0
C1178 C 0.32795 0.23023 0.88001 0.0
C1179 C 0.33137 0.21453 0.86792 0.0
C1180 C 0.3095 0.24032 0.88044 0.0
C1181 C 0.25614 0.23398 0.86975 0.0
H1182 H 0.25385 0.29194 0.87014 0.0
C1183 C 0.18068 0.27645 0.86231 0.0
C1184 C 0.17849 0.29517 0.87054 0.0
C1185 C 0.19924 0.26657 0.86229 0.0
C1186 C 0.25409 0.27574 0.87038 0.0
H1187 H 0.31782 0.19791 0.84631 0.0
H1188 H 0.28565 0.21496 0.84758 0.0
H1189 H 0.28624 0.27512 0.86988 0.0
H1190 H 0.1939 0.31787 0.88577 0.0
H1191 H 0.22592 0.30043 0.88645 0.0
H1192 H 0.22413 0.23439 0.87077 0.0
C1193 C 0.29727 0.21933 0.8568 0.0
C1194 C 0.27276 0.26611 0.87012 0.0
C1195 C 0.31577 0.20946 0.85617 0.0
C1196 C 0.19517 0.30356 0.87912 0.0
C1197 C 0.21362 0.29357 0.87937 0.0
C1198 C 0.23747 0.24359 0.8703 0.0
C1199 C 0.29386 0.23483 0.86897 0.0
C1200 C 0.27402 0.24511 0.86969 0.0
C1201 C 0.21608 0.275 0.87078 0.0
C1202 C 0.23609 0.26465 0.87052 0.0
H1203 H 0.33935 0.23448 0.88946 0.0
H1204 H 0.30731 0.25213 0.89005 0.0
H1205 H 0.2566 0.21777 0.86963 0.0
H1206 H 0.16816 0.26969 0.85543 0.0
H1207 H 0.20043 0.25253 0.85524 0.0
C1208 C 0.70633 0.81456 0.8799 0.0
C1209 C 0.71482 0.83133 0.87155 0.0
C1210 C 0.71642 0.79616 0.8802 0.0
C1211 C 0.76664 0.77251 0.87142 0.0
H1212 H 0.73519 0.7237 0.87069 0.0
C1213 C 0.80061 0.69421 0.85681 0.0
C1214 C 0.79575 0.67867 0.8687 0.0
C1215 C 0.79078 0.71272 0.85753 0.0
C1216 C 0.74418 0.7372 0.87102 0.0
H1217 H 0.74054 0.84193 0.85691 0.0
H1218 H 0.75785 0.80974 0.85674 0.0
H1219 H 0.7183 0.75603 0.87097 0.0
H1220 H 0.77621 0.67083 0.89058 0.0
H1221 H 0.75855 0.70285 0.89126 0.0
H1222 H 0.7925 0.75342 0.87074 0.0
C1223 C 0.74367 0.8108 0.86361 0.0
C1224 C 0.7345 0.75584 0.87129 0.0
C1225 C 0.73372 0.82932 0.86361 0.0
C1226 C 0.78029 0.68216 0.88101 0.0
C1227 C 0.7702 0.7006 0.8815 0.0
C1228 C 0.77628 0.75387 0.87082 0.0
C1229 C 0.73515 0.79385 0.87185 0.0
C1230 C 0.74556 0.77386 0.87156 0.0
C1231 C 0.77549 0.71617 0.86989 0.0
C1232 C 0.76517 0.73599 0.87065 0.0
H1233 H 0.69187 0.81571 0.88631 0.0
H1234 H 0.70947 0.78379 0.88711 0.0
H1235 H 0.77581 0.78585 0.87199 0.0
H1236 H 0.81196 0.69211 0.84678 0.0
H1237 H 0.79497 0.7243 0.84821 0.0
C1238 C 0.69494 0.70626 0.37995 0.0
C1239 C 0.67823 0.71476 0.37152 0.0
C1240 C 0.71335 0.71634 0.38036 0.0
C1241 C 0.73707 0.76657 0.37158 0.0
H1242 H 0.78597 0.73521 0.37167 0.0
C1243 C 0.81558 0.80027 0.3572 0.0
C1244 C 0.83088 0.79588 0.36947 0.0
C1245 C 0.79709 0.7904 0.35785 0.0
C1246 C 0.77244 0.74417 0.37176 0.0
H1247 H 0.66775 0.74048 0.35681 0.0
H1248 H 0.69996 0.75774 0.35678 0.0
H1249 H 0.75365 0.71827 0.37172 0.0
H1250 H 0.83829 0.77707 0.39197 0.0
H1251 H 0.80634 0.75928 0.39251 0.0
H1252 H 0.75614 0.79245 0.37085 0.0
C1253 C 0.69886 0.74358 0.36366 0.0
C1254 C 0.7538 0.73447 0.37191 0.0
C1255 C 0.68032 0.73365 0.36357 0.0
C1256 C 0.82717 0.78079 0.3821 0.0
C1257 C 0.80876 0.77063 0.38252 0.0
C1258 C 0.75572 0.77623 0.37108 0.0
C1259 C 0.71575 0.73507 0.37202 0.0
C1260 C 0.73575 0.74549 0.37187 0.0
C1261 C 0.79342 0.77549 0.37053 0.0
C1262 C 0.77362 0.76516 0.37121 0.0
H1263 H 0.69373 0.69181 0.38637 0.0
H1264 H 0.72566 0.70939 0.38736 0.0
H1265 H 0.72371 0.77574 0.37193 0.0
H1266 H 0.81785 0.8113 0.34691 0.0
H1267 H 0.78569 0.79425 0.34824 0.0
C1268 C 0.80408 0.81476 0.6233 0.0
C1269 C 0.79571 0.83135 0.632 0.0
C1270 C 0.79401 0.79636 0.62284 0.0
C1271 C 0.74393 0.77256 0.63192 0.0
H1272 H 0.77535 0.72371 0.63143 0.0
C1273 C 0.71035 0.69405 0.64617 0.0
C1274 C 0.7147 0.67881 0.63385 0.0
C1275 C 0.72023 0.71253 0.64553 0.0
C1276 C 0.76637 0.73723 0.63145 0.0
H1277 H 0.77023 0.84164 0.64711 0.0
H1278 H 0.75295 0.80945 0.64703 0.0
H1279 H 0.79226 0.75604 0.63139 0.0
H1280 H 0.73342 0.67144 0.61129 0.0
H1281 H 0.7512 0.7034 0.61075 0.0
H1282 H 0.71807 0.75347 0.63273 0.0
C1283 C 0.76701 0.81065 0.64 0.0
C1284 C 0.77605 0.75586 0.63131 0.0
C1285 C 0.77695 0.82917 0.64015 0.0
C1286 C 0.72973 0.68254 0.62118 0.0
C1287 C 0.73989 0.70094 0.62077 0.0
C1288 C 0.73429 0.75391 0.6324 0.0
C1289 C 0.7754 0.79387 0.63139 0.0
C1290 C 0.76501 0.77389 0.63149 0.0
C1291 C 0.73508 0.71623 0.63281 0.0
C1292 C 0.74539 0.73603 0.63213 0.0
H1293 H 0.81844 0.81605 0.61673 0.0
H1294 H 0.80085 0.78414 0.61566 0.0
H1295 H 0.73475 0.78591 0.63169 0.0
H1296 H 0.69936 0.69175 0.65648 0.0
H1297 H 0.71642 0.72389 0.65517 0.0
C1298 C 0.83016 0.73379 0.14097 0.0
C1299 C 0.83249 0.71522 0.13252 0.0
C1300 C 0.8116 0.74366 0.14087 0.0
C1301 C 0.75687 0.7347 0.13168 0.0
H1302 H 0.75437 0.79263 0.13387 0.0
C1303 C 0.68342 0.78098 0.12178 0.0
C1304 C 0.67964 0.79596 0.13448 0.0
C1305 C 0.70185 0.77084 0.12137 0.0
C1306 C 0.75483 0.77643 0.13333 0.0
H1307 H 0.81736 0.69278 0.11679 0.0
H1308 H 0.78537 0.71026 0.11585 0.0
H1309 H 0.78684 0.77602 0.13284 0.0
H1310 H 0.69251 0.81119 0.15719 0.0
H1311 H 0.72468 0.79416 0.15592 0.0
H1312 H 0.7247 0.73536 0.13159 0.0
C1313 C 0.79753 0.71699 0.1232 0.0
C1314 C 0.7735 0.76682 0.13285 0.0
C1315 C 0.81597 0.70697 0.1236 0.0
C1316 C 0.69485 0.80025 0.14685 0.0
C1317 C 0.71335 0.79038 0.14623 0.0
C1318 C 0.7382 0.74435 0.13182 0.0
C1319 C 0.79491 0.73541 0.13202 0.0
C1320 C 0.77488 0.74577 0.13214 0.0
C1321 C 0.71711 0.7756 0.13347 0.0
C1322 C 0.73696 0.76532 0.13279 0.0
H1323 H 0.84256 0.74041 0.14811 0.0
H1324 H 0.81029 0.75757 0.14811 0.0
H1325 H 0.75708 0.7185 0.13152 0.0
H1326 H 0.67235 0.77734 0.11184 0.0
H1327 H 0.70434 0.75959 0.11131 0.0
C1328 C 0.20948 0.11993 0.30606 0.0
C1329 C 0.20122 0.10138 0.31075 0.0
C1330 C 0.22183 0.12162 0.29112 0.0
C1331 C 0.23851 0.09325 0.25068 0.0
H1332 H 0.28385 0.1295 0.25269 0.0
C1333 C 0.30739 0.08557 0.20542 0.0
C1334 C 0.31039 0.10196 0.19411 0.0
C1335 C 0.29439 0.08712 0.21983 0.0
C1336 C 0.27118 0.1194 0.25196 0.0
H1337 H 0.19831 0.07032 0.30318 0.0
H1338 H 0.22046 0.07281 0.27779 0.0
H1339 H 0.25961 0.12902 0.27691 0.0
H1340 H 0.30361 0.13322 0.18969 0.0
H1341 H 0.28133 0.13623 0.21553 0.0
H1342 H 0.25082 0.08299 0.22613 0.0
C1343 C 0.21732 0.0863 0.2852 0.0
C1344 C 0.25715 0.11919 0.26576 0.0
C1345 C 0.20473 0.08475 0.29989 0.0
C1346 C 0.3014 0.12039 0.19822 0.0
C1347 C 0.28869 0.12207 0.21292 0.0
C1348 C 0.25276 0.09317 0.23714 0.0
C1349 C 0.22629 0.10471 0.28065 0.0
C1350 C 0.24066 0.10595 0.26543 0.0
C1351 C 0.28461 0.10527 0.22352 0.0
C1352 C 0.26929 0.10612 0.2377 0.0
H1353 H 0.20675 0.13301 0.31417 0.0
H1354 H 0.22796 0.13617 0.28791 0.0
H1355 H 0.22583 0.08325 0.24952 0.0
H1356 H 0.31438 0.07128 0.20259 0.0
H1357 H 0.29165 0.07402 0.22792 0.0
C1358 C 0.41664 0.31409 0.70944 0.0
C1359 C 0.40478 0.31118 0.69436 0.0
C1360 C 0.41513 0.30098 0.72382 0.0
C1361 C 0.38333 0.26224 0.74478 0.0
H1362 H 0.43379 0.24246 0.76325 0.0
C1363 C 0.39093 0.21462 0.80896 0.0
C1364 C 0.4047 0.19876 0.80863 0.0
C1365 C 0.38928 0.22766 0.79453 0.0
C1366 C 0.41956 0.24772 0.75818 0.0
H1367 H 0.38196 0.29268 0.68239 0.0
H1368 H 0.37893 0.26991 0.7077 0.0
H1369 H 0.4338 0.26746 0.73975 0.0
H1370 H 0.4275 0.18389 0.79317 0.0
H1371 H 0.42465 0.20663 0.76784 0.0
H1372 H 0.36912 0.24244 0.7633 0.0
C1373 C 0.38928 0.28237 0.70852 0.0
C1374 C 0.41957 0.26224 0.74485 0.0
C1375 C 0.39095 0.29538 0.69407 0.0
C1376 C 0.41652 0.19584 0.79354 0.0
C1377 C 0.41503 0.20898 0.77918 0.0
C1378 C 0.38333 0.24786 0.75829 0.0
C1379 C 0.40169 0.28473 0.72341 0.0
C1380 C 0.40147 0.26967 0.73796 0.0
C1381 C 0.40165 0.22528 0.77963 0.0
C1382 C 0.40145 0.24036 0.76509 0.0
H1383 H 0.42765 0.32599 0.70977 0.0
H1384 H 0.42477 0.30332 0.73514 0.0
H1385 H 0.36914 0.2677 0.73979 0.0
H1386 H 0.38196 0.21732 0.82065 0.0
H1387 H 0.37897 0.24015 0.79538 0.0
C1388 C 0.20267 0.42398 0.20628 0.0
C1389 C 0.19992 0.40777 0.19478 0.0
C1390 C 0.21524 0.42224 0.22096 0.0
C1391 C 0.25673 0.39039 0.23889 0.0
H1392 H 0.24931 0.4245 0.2798 0.0
C1393 C 0.30134 0.38966 0.30659 0.0
C1394 C 0.31042 0.40818 0.31018 0.0
C1395 C 0.28844 0.38756 0.29207 0.0
C1396 C 0.25153 0.41488 0.26845 0.0
H1397 H 0.20686 0.37662 0.19015 0.0
H1398 H 0.22807 0.37306 0.21638 0.0
H1399 H 0.22391 0.42394 0.25672 0.0
H1400 H 0.31433 0.4386 0.30099 0.0
H1401 H 0.29127 0.43514 0.27592 0.0
H1402 H 0.28419 0.38095 0.25127 0.0
C1403 C 0.22128 0.38747 0.21372 0.0
C1404 C 0.23706 0.41465 0.25509 0.0
C1405 C 0.20893 0.38936 0.19881 0.0
C1406 C 0.30731 0.42424 0.29853 0.0
C1407 C 0.29414 0.42228 0.28427 0.0
C1408 C 0.27102 0.39032 0.2525 0.0
C1409 C 0.22502 0.40403 0.22482 0.0
C1410 C 0.2396 0.40274 0.23988 0.0
C1411 C 0.28428 0.40405 0.28112 0.0
C1412 C 0.2687 0.40286 0.26721 0.0
H1413 H 0.19576 0.43831 0.20343 0.0
H1414 H 0.21783 0.43549 0.22886 0.0
H1415 H 0.25951 0.38121 0.22737 0.0
H1416 H 0.3036 0.37709 0.31542 0.0
H1417 H 0.281 0.37337 0.28986 0.0
C1418 C 0.12035 0.20964 0.69686 0.0
C1419 C 0.10159 0.20154 0.69247 0.0
C1420 C 0.12227 0.22269 0.71129 0.0
C1421 C 0.09474 0.26062 0.73446 0.0
H1422 H 0.12863 0.25186 0.77529 0.0
C1423 C 0.0862 0.30848 0.79728 0.0
C1424 C 0.10249 0.31092 0.80876 0.0
C1425 C 0.08781 0.29617 0.78241 0.0
C1426 C 0.11939 0.25486 0.76385 0.0
H1427 H 0.0705 0.19939 0.70031 0.0
H1428 H 0.07367 0.22279 0.72512 0.0
H1429 H 0.12865 0.22758 0.75113 0.0
H1430 H 0.13364 0.30375 0.81319 0.0
H1431 H 0.13696 0.28302 0.78665 0.0
H1432 H 0.08586 0.28808 0.74655 0.0
C1433 C 0.08684 0.21914 0.7174 0.0
C1434 C 0.11933 0.24081 0.75007 0.0
C1435 C 0.08503 0.2058 0.70326 0.0
C1436 C 0.12084 0.3019 0.80455 0.0
C1437 C 0.1226 0.28982 0.78946 0.0
C1438 C 0.09511 0.27488 0.74799 0.0
C1439 C 0.10539 0.22798 0.72137 0.0
C1440 C 0.1067 0.24339 0.73544 0.0
C1441 C 0.10596 0.28637 0.77836 0.0
C1442 C 0.1071 0.27205 0.76312 0.0
H1443 H 0.13334 0.20639 0.68878 0.0
H1444 H 0.13674 0.22927 0.71416 0.0
H1445 H 0.08507 0.26308 0.72317 0.0
H1446 H 0.07192 0.31541 0.80027 0.0
H1447 H 0.07451 0.2938 0.77452 0.0
C1448 C 0.70973 0.89008 0.8061 0.0
C1449 C 0.70137 0.90866 0.81067 0.0
C1450 C 0.72256 0.88846 0.79147 0.0
C1451 C 0.75923 0.91729 0.7675 0.0
H1452 H 0.75161 0.88156 0.72776 0.0
C1453 C 0.80657 0.92534 0.70429 0.0
C1454 C 0.80985 0.90867 0.69342 0.0
C1455 C 0.79415 0.9239 0.7191 0.0
C1456 C 0.75429 0.89135 0.7389 0.0
H1457 H 0.69854 0.93973 0.80298 0.0
H1458 H 0.72149 0.9371 0.77781 0.0
H1459 H 0.72764 0.88128 0.75217 0.0
H1460 H 0.80406 0.87708 0.69009 0.0
H1461 H 0.78312 0.87411 0.71654 0.0
H1462 H 0.7861 0.927 0.75488 0.0
C1463 C 0.71824 0.92383 0.78554 0.0
C1464 C 0.74041 0.89125 0.75281 0.0
C1465 C 0.70514 0.92534 0.79987 0.0
C1466 C 0.80151 0.89019 0.69821 0.0
C1467 C 0.78932 0.88861 0.71325 0.0
C1468 C 0.77332 0.9171 0.75384 0.0
C1469 C 0.72737 0.90548 0.78138 0.0
C1470 C 0.74257 0.9045 0.76708 0.0
C1471 C 0.7851 0.90556 0.72375 0.0
C1472 C 0.7709 0.90444 0.7391 0.0
H1473 H 0.70688 0.877 0.81418 0.0
H1474 H 0.72936 0.87413 0.78849 0.0
H1475 H 0.7614 0.92745 0.7785 0.0
H1476 H 0.81307 0.93972 0.70093 0.0
H1477 H 0.79119 0.93742 0.72653 0.0
C1478 C 0.58322 0.70544 0.3003 0.0
C1479 C 0.60002 0.70172 0.31093 0.0
C1480 C 0.58466 0.71798 0.28557 0.0
C1481 C 0.61774 0.75721 0.26546 0.0
H1482 H 0.58104 0.75083 0.22618 0.0
C1483 C 0.61965 0.80153 0.19822 0.0
C1484 C 0.60118 0.80998 0.19342 0.0
C1485 C 0.62101 0.78884 0.21297 0.0
C1486 C 0.59135 0.75281 0.23709 0.0
H1487 H 0.63179 0.70683 0.31387 0.0
H1488 H 0.63472 0.72798 0.28755 0.0
H1489 H 0.58119 0.7262 0.24985 0.0
H1490 H 0.57003 0.81311 0.20079 0.0
H1491 H 0.57221 0.79045 0.2262 0.0
H1492 H 0.62828 0.78359 0.25204 0.0
C1493 C 0.62015 0.72205 0.29099 0.0
C1494 C 0.59138 0.73876 0.25079 0.0
C1495 C 0.61858 0.70975 0.30596 0.0
C1496 C 0.58435 0.80646 0.2041 0.0
C1497 C 0.5856 0.79351 0.21857 0.0
C1498 C 0.61799 0.77106 0.25151 0.0
C1499 C 0.60311 0.72669 0.28073 0.0
C1500 C 0.60429 0.7409 0.2654 0.0
C1501 C 0.60384 0.78427 0.22296 0.0
C1502 C 0.60454 0.76917 0.23736 0.0
H1503 H 0.56878 0.69917 0.30377 0.0
H1504 H 0.57108 0.72127 0.27832 0.0
H1505 H 0.62774 0.75968 0.2765 0.0
H1506 H 0.63284 0.80419 0.19022 0.0
H1507 H 0.63525 0.78195 0.21612 0.0
C1508 C 0.80183 0.62045 0.80474 0.0
C1509 C 0.81089 0.60203 0.80875 0.0
C1510 C 0.78903 0.62217 0.79011 0.0
C1511 C 0.75293 0.59336 0.76616 0.0
H1512 H 0.75954 0.62897 0.72616 0.0
C1513 C 0.70454 0.58461 0.70368 0.0
C1514 C 0.70096 0.60118 0.69276 0.0
C1515 C 0.71718 0.58625 0.71832 0.0
C1516 C 0.75714 0.61921 0.73738 0.0
H1517 H 0.81492 0.5714 0.80017 0.0
H1518 H 0.79206 0.5742 0.77492 0.0
H1519 H 0.78399 0.62951 0.75022 0.0
H1520 H 0.70642 0.6328 0.68919 0.0
H1521 H 0.72776 0.63612 0.71536 0.0
H1522 H 0.72587 0.58344 0.75399 0.0
C1523 C 0.79482 0.58727 0.78304 0.0
C1524 C 0.7713 0.61946 0.75108 0.0
C1525 C 0.8079 0.58569 0.7974 0.0
C1526 C 0.70921 0.61977 0.69735 0.0
C1527 C 0.72162 0.62155 0.71223 0.0
C1528 C 0.73857 0.59341 0.75271 0.0
C1529 C 0.78495 0.6054 0.77947 0.0
C1530 C 0.7695 0.60625 0.76541 0.0
C1531 C 0.72616 0.60469 0.72276 0.0
C1532 C 0.74063 0.60602 0.73789 0.0
H1533 H 0.80402 0.63324 0.81333 0.0
H1534 H 0.7816 0.6363 0.78759 0.0
H1535 H 0.75107 0.58324 0.77722 0.0
H1536 H 0.69813 0.57015 0.70047 0.0
H1537 H 0.72039 0.5728 0.72578 0.0
C1538 C 0.89047 0.80136 0.30593 0.0
C1539 C 0.90908 0.80945 0.31071 0.0
C1540 C 0.88877 0.78898 0.29103 0.0
C1541 C 0.91726 0.77189 0.25079 0.0
H1542 H 0.8806 0.72688 0.25277 0.0
C1543 C 0.92469 0.70277 0.20584 0.0
C1544 C 0.9084 0.69996 0.19438 0.0
C1545 C 0.92312 0.7158 0.22023 0.0
C1546 C 0.89082 0.73946 0.25205 0.0
H1547 H 0.94022 0.81204 0.30329 0.0
H1548 H 0.9377 0.78982 0.27796 0.0
H1549 H 0.88113 0.75121 0.27691 0.0
H1550 H 0.87727 0.70711 0.18966 0.0
H1551 H 0.87421 0.72943 0.21545 0.0
H1552 H 0.92759 0.75939 0.22634 0.0
C1553 C 0.92418 0.79312 0.28529 0.0
C1554 C 0.89106 0.75354 0.2658 0.0
C1555 C 0.92575 0.80574 0.29995 0.0
C1556 C 0.89002 0.70916 0.19832 0.0
C1557 C 0.88831 0.7219 0.21298 0.0
C1558 C 0.91731 0.75759 0.2373 0.0
C1559 C 0.90571 0.78431 0.28066 0.0
C1560 C 0.90444 0.76991 0.26548 0.0
C1561 C 0.90504 0.7258 0.22373 0.0
C1562 C 0.90422 0.74118 0.23785 0.0
H1563 H 0.87735 0.80425 0.31396 0.0
H1564 H 0.87418 0.78297 0.28775 0.0
H1565 H 0.92739 0.78447 0.24965 0.0
H1566 H 0.93894 0.69564 0.20313 0.0
H1567 H 0.93616 0.71841 0.22843 0.0
C1568 C 0.41183 0.01953 0.1554 0.0
C1569 C 0.40065 0.02306 0.13993 0.0
C1570 C 0.42624 1.0042 0.15607 0.0
C1571 C 0.44272 0.95741 0.13307 0.0
H1572 H 0.49298 0.96727 0.15716 0.0
C1573 C 0.51153 0.90505 0.12485 0.0
C1574 C 0.52386 0.90142 0.13961 0.0
C1575 C 0.49603 0.91922 0.12559 0.0
C1576 C 0.47895 0.96411 0.15056 0.0
H1577 H 0.39568 0.01257 0.11317 0.0
H1578 H 0.42089 0.98628 0.11421 0.0
H1579 H 0.46699 0.99293 0.15723 0.0
H1580 H 0.52926 0.91006 0.1668 0.0
H1581 H 0.50209 0.9345 0.16817 0.0
H1582 H 0.45473 0.92867 0.12627 0.0
C1583 C 0.41846 0.99524 0.12593 0.0
C1584 C 0.46397 0.97888 0.15061 0.0
C1585 C 0.4041 0.01055 0.12526 0.0
C1586 C 0.52002 0.91225 0.15521 0.0
C1587 C 0.50455 0.92649 0.15592 0.0
C1588 C 0.45769 0.94266 0.133 0.0
C1589 C 0.42987 0.99188 0.1413 0.0
C1590 C 0.44565 0.97583 0.14177 0.0
C1591 C 0.49236 0.93027 0.14109 0.0
C1592 C 0.4761 0.94581 0.14166 0.0
H1593 H 0.4098 0.02891 0.16693 0.0
H1594 H 0.43449 1.00199 0.16822 0.0
H1595 H 0.42872 0.95427 0.12639 0.0
H1596 H 0.51382 0.8969 0.11265 0.0
H1597 H 0.48716 0.92177 0.11382 0.0
C1598 C 0.59844 0.51946 0.6551 0.0
C1599 C 0.60938 0.5231 0.63952 0.0
C1600 C 0.58417 0.50403 0.65588 0.0
C1601 C 0.56813 0.45692 0.63342 0.0
H1602 H 0.51755 0.46679 0.65699 0.0
C1603 C 0.50026 0.40328 0.62585 0.0
C1604 C 0.48748 0.40023 0.64041 0.0
C1605 C 0.51561 0.41761 0.62645 0.0
C1606 C 0.53168 0.46361 0.65056 0.0
H1607 H 0.61407 0.51276 0.61268 0.0
H1608 H 0.58916 0.48614 0.61398 0.0
H1609 H 0.54328 0.4927 0.65681 0.0
H1610 H 0.48118 0.41007 0.66714 0.0
H1611 H 0.50817 0.43466 0.66834 0.0
H1612 H 0.55656 0.42787 0.62713 0.0
C1613 C 0.59165 0.49514 0.62566 0.0
C1614 C 0.54649 0.47854 0.65045 0.0
C1615 C 0.60584 0.51061 0.62485 0.0
C1616 C 0.49077 0.41178 0.65571 0.0
C1617 C 0.50614 0.42613 0.65631 0.0
C1618 C 0.55335 0.44199 0.63356 0.0
C1619 C 0.58048 0.49168 0.64115 0.0
C1620 C 0.5649 0.47548 0.64178 0.0
C1621 C 0.51873 0.42938 0.64165 0.0
C1622 C 0.53482 0.44512 0.64203 0.0
H1623 H 0.60056 0.52883 0.66661 0.0
H1624 H 0.57606 0.50173 0.6681 0.0
H1625 H 0.58221 0.45382 0.62687 0.0
H1626 H 0.49844 0.39457 0.6139 0.0
H1627 H 0.52477 0.41973 0.61481 0.0
C1628 C 0.09905 0.491 0.15606 0.0
C1629 C 0.11037 0.48762 0.14064 0.0
C1630 C 0.08471 0.50639 0.15676 0.0
C1631 C 0.06885 0.55367 0.13427 0.0
H1632 H 0.01809 0.54363 0.15748 0.0
C1633 C 1.0007 0.60685 0.126 0.0
C1634 C 0.98794 0.61008 0.14054 0.0
C1635 C 0.01609 0.59257 0.12674 0.0
C1636 C 0.03227 0.54685 0.15114 0.0
H1637 H 0.11565 0.49842 0.11402 0.0
H1638 H 0.09059 0.52488 0.11514 0.0
H1639 H 0.04391 0.51781 0.15749 0.0
H1640 H 0.9817 0.60061 0.16739 0.0
H1641 H 0.00872 0.57602 0.1688 0.0
H1642 H 0.05719 0.58266 0.12783 0.0
C1643 C 0.09284 0.51573 0.12678 0.0
C1644 C 0.04714 0.53197 0.15115 0.0
C1645 C 0.10712 0.50034 0.12606 0.0
C1646 C 0.99128 0.59874 0.15596 0.0
C1647 C 0.00666 0.58441 0.15669 0.0
C1648 C 0.05399 0.56854 0.13427 0.0
C1649 C 0.0813 0.51894 0.1421 0.0
C1650 C 0.06564 0.53509 0.14261 0.0
C1651 C 0.01925 0.58101 0.14206 0.0
C1652 C 0.0354 0.56534 0.1426 0.0
H1653 H 0.10092 0.48146 0.1675 0.0
H1654 H 0.07634 0.50848 0.16887 0.0
H1655 H 0.08298 0.55685 0.12784 0.0
H1656 H 0.99883 0.6154 0.11396 0.0
H1657 H 0.02526 0.59033 0.11512 0.0
C1658 C 0.91228 0.99012 0.65557 0.0
C1659 C 0.90151 0.98623 0.63994 0.0
C1660 C 0.92655 0.00555 0.65628 0.0
C1661 C 0.94317 0.05207 0.63299 0.0
H1662 H 0.99309 0.04288 0.65786 0.0
C1663 C 0.01174 0.10472 0.62501 0.0
C1664 C 0.02391 0.10856 0.63982 0.0
C1665 C 0.99629 0.09051 0.62575 0.0
C1666 C 0.97914 0.04586 0.65104 0.0
H1667 H 0.89712 0.99617 0.61293 0.0
H1668 H 0.92211 0.02267 0.61406 0.0
H1669 H 0.96726 0.01705 0.65787 0.0
H1670 H 0.02905 0.10028 0.66715 0.0
H1671 H 1.00194 0.07578 0.66854 0.0
H1672 H 0.95509 0.08081 0.62605 0.0
C1673 C 0.91946 0.01391 0.62587 0.0
C1674 C 0.96427 0.03099 0.65105 0.0
C1675 C 0.90523 0.99848 0.62515 0.0
C1676 C 0.01994 0.09792 0.6555 0.0
C1677 C 1.0045 0.08364 0.65623 0.0
C1678 C 0.95803 0.06693 0.63297 0.0
C1679 C 0.93046 0.01763 0.6414 0.0
C1680 C 0.94609 0.0338 0.64193 0.0
C1681 C 0.9925 0.07964 0.64134 0.0
C1682 C 0.97632 0.06401 0.6419 0.0
H1683 H 0.91001 0.98095 0.66719 0.0
H1684 H 0.9345 0.00805 0.66855 0.0
H1685 H 0.92928 0.05502 0.62608 0.0
H1686 H 0.01412 0.11273 0.61275 0.0
H1687 H 0.98757 0.08778 0.61394 0.0
C1688 C 0.51987 0.59777 0.34885 0.0
C1689 C 0.52299 0.60933 0.36416 0.0
C1690 C 0.50455 0.58336 0.34818 0.0
C1691 C 0.45647 0.56824 0.36888 0.0
H1692 H 0.46909 0.51557 0.35041 0.0
C1693 C 0.42122 0.48325 0.37011 0.0
C1694 C 0.40139 0.48664 0.36454 0.0
C1695 C 0.43564 0.49849 0.36917 0.0
C1696 C 0.46531 0.5302 0.35561 0.0
H1697 H 0.51187 0.61508 0.39058 0.0
H1698 H 0.48515 0.59011 0.38936 0.0
H1699 H 0.49471 0.54175 0.35038 0.0
H1700 H 0.38122 0.50885 0.35368 0.0
H1701 H 0.40635 0.53566 0.35236 0.0
H1702 H 0.42705 0.55662 0.37411 0.0
C1703 C 0.4946 0.59214 0.37787 0.0
C1704 C 0.47996 0.54527 0.35547 0.0
C1705 C 0.51005 0.60637 0.37862 0.0
C1706 C 0.39636 0.50572 0.358 0.0
C1707 C 0.41073 0.5211 0.35736 0.0
C1708 C 0.44171 0.55324 0.36877 0.0
C1709 C 0.49175 0.58028 0.36271 0.0
C1710 C 0.47582 0.56446 0.36225 0.0
C1711 C 0.43058 0.51766 0.36289 0.0
C1712 C 0.44599 0.53395 0.36229 0.0
H1713 H 0.52959 0.59949 0.33751 0.0
H1714 H 0.50271 0.57463 0.33624 0.0
H1715 H 0.45269 0.58286 0.37409 0.0
H1716 H 0.42566 0.4687 0.37507 0.0
H1717 H 0.45072 0.49533 0.37364 0.0
C1718 C 0.01955 0.4114 0.84763 0.0
C1719 C 0.02283 0.4 0.86302 0.0
C1720 C 1.00417 0.42574 0.8469 0.0
C1721 C 0.95679 0.44156 0.86928 0.0
H1722 H 0.96697 0.49235 0.84619 0.0
C1723 C 0.90375 0.50981 0.87754 0.0
C1724 C 0.90052 0.52252 0.86297 0.0
C1725 C 0.91801 0.4944 0.87682 0.0
C1726 C 0.96372 0.47817 0.8525 0.0
H1727 H 0.01187 0.39459 0.88957 0.0
H1728 H 0.98545 0.41967 0.88842 0.0
H1729 H 0.99278 0.46651 0.8462 0.0
H1730 H 0.90998 0.52869 0.83611 0.0
H1731 H 0.93455 0.50166 0.83475 0.0
H1732 H 0.9278 0.45325 0.87569 0.0
C1733 C 0.99466 0.41747 0.87681 0.0
C1734 C 0.97858 0.46328 0.8525 0.0
C1735 C 0.01004 0.40318 0.87755 0.0
C1736 C 0.91184 0.51915 0.84755 0.0
C1737 C 0.92617 0.50375 0.84685 0.0
C1738 C 0.94195 0.45644 0.86928 0.0
C1739 C 0.99154 0.42909 0.86152 0.0
C1740 C 0.97541 0.44477 0.86099 0.0
C1741 C 0.92955 0.49119 0.86151 0.0
C1742 C 0.94521 0.47504 0.86099 0.0
H1743 H 0.02915 0.40958 0.83622 0.0
H1744 H 1.00215 0.43417 0.83482 0.0
H1745 H 0.95357 0.42742 0.87568 0.0
H1746 H 0.89521 0.51172 0.88958 0.0
H1747 H 0.92025 0.48524 0.88846 0.0
C1748 C 0.9908 0.9119 0.34863 0.0
C1749 C 0.98678 0.90124 0.36429 0.0
C1750 C 0.00625 0.92617 0.34792 0.0
C1751 C 0.05266 0.94294 0.37132 0.0
H1752 H 0.04362 0.99267 0.34615 0.0
C1753 C 0.10556 0.0114 0.37899 0.0
C1754 C 0.10934 0.02358 0.36417 0.0
C1755 C 0.09132 0.99597 0.3783 0.0
C1756 C 0.04657 0.97877 0.35305 0.0
H1757 H 0.99652 0.89706 0.39138 0.0
H1758 H 0.02307 0.92202 0.39025 0.0
H1759 H 0.01777 0.96688 0.34618 0.0
H1760 H 0.10093 0.02871 0.33687 0.0
H1761 H 0.07643 1.00162 0.33556 0.0
H1762 H 0.0814 0.95486 0.37827 0.0
C1763 C 0.01438 0.91929 0.37842 0.0
C1764 C 0.03168 0.96392 0.35307 0.0
C1765 C 0.99893 0.90508 0.37913 0.0
C1766 C 0.09862 0.0196 0.34853 0.0
C1767 C 0.08433 1.00417 0.34785 0.0
C1768 C 0.06755 0.95778 0.37129 0.0
C1769 C 0.01823 0.93018 0.36284 0.0
C1770 C 0.03442 0.9458 0.36231 0.0
C1771 C 0.08036 0.99217 0.36276 0.0
C1772 C 0.0647 0.97601 0.36226 0.0
H1773 H 0.98172 0.90955 0.33696 0.0
H1774 H 0.00883 0.93402 0.33562 0.0
H1775 H 0.05556 0.92909 0.37832 0.0
H1776 H 0.11363 0.01376 0.39123 0.0
H1777 H 0.08863 0.98726 0.39013 0.0
C1778 C 0.59818 0.98999 0.84775 0.0
C1779 C 0.60906 0.98631 0.86336 0.0
C1780 C 0.58394 0.00545 0.84693 0.0
C1781 C 0.56789 0.05257 0.8694 0.0
H1782 H 0.51737 0.04286 0.84567 0.0
C1783 C 0.50008 0.1063 0.87697 0.0
C1784 C 0.48731 0.10941 0.86241 0.0
C1785 C 0.51541 0.09194 0.87635 0.0
C1786 C 0.53148 0.046 0.85215 0.0
H1787 H 0.61367 0.99663 0.89021 0.0
H1788 H 0.58882 0.0233 0.88886 0.0
H1789 H 0.54307 0.01691 0.84585 0.0
H1790 H 0.48104 0.09967 0.83564 0.0
H1791 H 0.508 0.07503 0.83442 0.0
H1792 H 0.55634 0.08162 0.87574 0.0
C1793 C 0.59133 0.0143 0.87717 0.0
C1794 C 0.54628 0.03104 0.85226 0.0
C1795 C 0.60549 0.9988 0.87801 0.0
C1796 C 0.49061 0.09791 0.84708 0.0
C1797 C 0.50597 0.08353 0.84647 0.0
C1798 C 0.55313 0.06753 0.86926 0.0
C1799 C 0.58022 0.0178 0.86166 0.0
C1800 C 0.56467 0.03403 0.861 0.0
C1801 C 0.51854 0.08022 0.86114 0.0
C1802 C 0.53461 0.06445 0.86074 0.0
H1803 H 0.60034 0.98062 0.83623 0.0
H1804 H 0.57588 0.00777 0.83468 0.0
H1805 H 0.58195 0.05562 0.876 0.0
H1806 H 0.49826 0.11497 0.88894 0.0
H1807 H 0.52455 0.08978 0.88801 0.0
loop_
_geom_bond_atom_site_label_1
_geom_bond_atom_site_label_2
_geom_bond_distance
_geom_bond_site_symmetry_2
_ccdc_geom_bond_type
C0 C1 1.443 . S
C0 N4 1.376 . S
C0 C38 1.389 . S
C1 C0 1.443 . S
C1 C2 1.340 . S
C1 H41 0.951 . S
C2 C1 1.340 . S
C2 C3 1.439 . S
C2 H42 0.950 . S
C3 C2 1.439 . S
C3 N4 1.374 . S
C3 C37 1.395 . S
N4 C0 1.376 . S
N4 C3 1.374 . S
N4 Co5 2.008 . S
Co5 N4 2.008 . S
Co5 N6 1.995 . S
Co5 N11 2.008 . S
Co5 N16 1.995 . S
Co5 N21 2.282 . S
Co5 N27 2.282 . S
N6 Co5 1.995 . S
N6 C7 1.376 . S
N6 C10 1.383 . S
C7 N6 1.376 . S
C7 C8 1.446 . S
C7 C37 1.391 . S
C8 C7 1.446 . S
C8 C9 1.339 . S
C8 H43 0.949 . S
C9 C8 1.339 . S
C9 C10 1.439 . S
C9 H44 0.950 . S
C10 N6 1.383 . S
C10 C9 1.439 . S
C10 C39 1.392 . S
N11 Co5 2.008 . S
N11 C12 1.376 . S
N11 C15 1.374 . S
C12 N11 1.376 . S
C12 C13 1.443 . S
C12 C39 1.389 . S
C13 C12 1.443 . S
C13 C14 1.340 . S
C13 H45 0.951 . S
C14 C13 1.340 . S
C14 C15 1.439 . S
C14 H46 0.950 . S
C15 N11 1.374 . S
C15 C14 1.439 . S
C15 C40 1.395 . S
N16 Co5 1.995 . S
N16 C17 1.376 . S
N16 C20 1.383 . S
C17 N16 1.376 . S
C17 C18 1.446 . S
C17 C40 1.391 . S
C18 C17 1.446 . S
C18 C19 1.339 . S
C18 H47 0.949 . S
C19 C18 1.339 . S
C19 C20 1.439 . S
C19 H48 0.950 . S
C20 N16 1.383 . S
C20 C19 1.439 . S
C20 C38 1.392 . S
N21 Co5 2.282 . S
N21 C24 1.332 . S
N21 C26 1.332 . S
C22 C23 1.386 . S
C22 C25 1.388 . S
C23 C22 1.386 . S
C23 C24 1.382 . S
C23 H49 0.950 . S
C24 N21 1.332 . S
C24 C23 1.382 . S
C24 H35 0.952 . S
C25 C22 1.388 . S
C25 C26 1.382 . S
C25 H50 0.950 . S
C26 N21 1.332 . S
C26 C25 1.382 . S
C26 H36 0.948 . S
N27 Co5 2.282 . S
N27 C31 1.332 . S
N27 C32 1.332 . S
C28 C29 1.388 . S
C28 C32 1.382 . S
C28 H51 0.950 . S
C29 C28 1.388 . S
C29 C30 1.386 . S
C30 C29 1.386 . S
C30 C31 1.382 . S
C30 H52 0.950 . S
C31 N27 1.332 . S
C31 C30 1.382 . S
C31 H33 0.952 . S
C32 N27 1.332 . S
C32 C28 1.382 . S
C32 H34 0.948 . S
H33 C31 0.952 . S
H34 C32 0.948 . S
H35 C24 0.952 . S
H36 C26 0.948 . S
C37 C3 1.395 . S
C37 C7 1.391 . S
C38 C0 1.389 . S
C38 C20 1.392 . S
C39 C10 1.392 . S
C39 C12 1.389 . S
C40 C15 1.395 . S
C40 C17 1.391 . S
H41 C1 0.951 . S
H42 C2 0.950 . S
H43 C8 0.949 . S
H44 C9 0.950 . S
H45 C13 0.951 . S
H46 C14 0.950 . S
H47 C18 0.949 . S
H48 C19 0.950 . S
H49 C23 0.950 . S
H50 C25 0.950 . S
H51 C28 0.950 . S
H52 C30 0.950 . S
C53 C54 1.443 . S
C53 N57 1.376 . S
C53 C91 1.389 . S
C54 C53 1.443 . S
C54 C55 1.340 . S
C54 H94 0.951 . S
C55 C54 1.340 . S
C55 C56 1.439 . S
C55 H95 0.950 . S
C56 C55 1.439 . S
C56 N57 1.374 . S
C56 C90 1.395 . S
N57 C53 1.376 . S
N57 C56 1.374 . S
N57 Co58 2.008 . S
Co58 N57 2.008 . S
Co58 N59 1.995 . S
Co58 N64 2.008 . S
Co58 N69 1.995 . S
Co58 N74 2.282 . S
Co58 N80 2.282 . S
N59 Co58 1.995 . S
N59 C60 1.376 . S
N59 C63 1.383 . S
C60 N59 1.376 . S
C60 C61 1.446 . S
C60 C90 1.391 . S
C61 C60 1.446 . S
C61 C62 1.339 . S
C61 H96 0.949 . S
C62 C61 1.339 . S
C62 C63 1.439 . S
C62 H97 0.950 . S
C63 N59 1.383 . S
C63 C62 1.439 . S
C63 C92 1.392 . S
N64 Co58 2.008 . S
N64 C65 1.376 . S
N64 C68 1.374 . S
C65 N64 1.376 . S
C65 C66 1.443 . S
C65 C92 1.389 . S
C66 C65 1.443 . S
C66 C67 1.340 . S
C66 H98 0.951 . S
C67 C66 1.340 . S
C67 C68 1.439 . S
C67 H99 0.950 . S
C68 N64 1.374 . S
C68 C67 1.439 . S
C68 C93 1.395 . S
N69 Co58 1.995 . S
N69 C70 1.376 . S
N69 C73 1.383 . S
C70 N69 1.376 . S
C70 C71 1.446 . S
C70 C93 1.391 . S
C71 C70 1.446 . S
C71 C72 1.339 . S
C71 H100 0.949 . S
C72 C71 1.339 . S
C72 C73 1.439 . S
C72 H101 0.950 . S
C73 N69 1.383 . S
C73 C72 1.439 . S
C73 C91 1.392 . S
N74 Co58 2.282 . S
N74 C77 1.332 . S
N74 C79 1.332 . S
C75 C76 1.386 . S
C75 C78 1.388 . S
C76 C75 1.386 . S
C76 C77 1.382 . S
C76 H102 0.950 . S
C77 N74 1.332 . S
C77 C76 1.382 . S
C77 H88 0.952 . S
C78 C75 1.388 . S
C78 C79 1.382 . S
C78 H103 0.950 . S
C79 N74 1.332 . S
C79 C78 1.382 . S
C79 H89 0.948 . S
N80 Co58 2.282 . S
N80 C84 1.332 . S
N80 C85 1.332 . S
C81 C82 1.388 . S
C81 C85 1.382 . S
C81 H104 0.950 . S
C82 C81 1.388 . S
C82 C83 1.386 . S
C83 C82 1.386 . S
C83 C84 1.382 . S
C83 H105 0.950 . S
C84 N80 1.332 . S
C84 C83 1.382 . S
C84 H86 0.952 . S
C85 N80 1.332 . S
C85 C81 1.382 . S
C85 H87 0.948 . S
H86 C84 0.952 . S
H87 C85 0.948 . S
H88 C77 0.952 . S
H89 C79 0.948 . S
C90 C56 1.395 . S
C90 C60 1.391 . S
C91 C53 1.389 . S
C91 C73 1.392 . S
C92 C63 1.392 . S
C92 C65 1.389 . S
C93 C68 1.395 . S
C93 C70 1.391 . S
H94 C54 0.951 . S
H95 C55 0.950 . S
H96 C61 0.949 . S
H97 C62 0.950 . S
H98 C66 0.951 . S
H99 C67 0.950 . S
H100 C71 0.949 . S
H101 C72 0.950 . S
H102 C76 0.950 . S
H103 C78 0.950 . S
H104 C81 0.950 . S
H105 C83 0.950 . S
C106 C107 1.443 . S
C106 N110 1.376 . S
C106 C144 1.389 . S
C107 C106 1.443 . S
C107 C108 1.340 . S
C107 H147 0.951 . S
C108 C107 1.340 . S
C108 C109 1.439 . S
C108 H148 0.950 . S
C109 C108 1.439 . S
C109 N110 1.374 . S
C109 C143 1.395 . S
N110 C106 1.376 . S
N110 C109 1.374 . S
N110 Co111 2.008 . S
Co111 N110 2.008 . S
Co111 N112 1.995 . S
Co111 N117 2.008 . S
Co111 N122 1.995 . S
Co111 N127 2.282 . S
Co111 N133 2.282 . S
N112 Co111 1.995 . S
N112 C113 1.376 . S
N112 C116 1.383 . S
C113 N112 1.376 . S
C113 C114 1.446 . S
C113 C143 1.391 . S
C114 C113 1.446 . S
C114 C115 1.339 . S
C114 H149 0.949 . S
C115 C114 1.339 . S
C115 C116 1.439 . S
C115 H150 0.950 . S
C116 N112 1.383 . S
C116 C115 1.439 . S
C116 C145 1.392 . S
N117 Co111 2.008 . S
N117 C118 1.376 . S
N117 C121 1.374 . S
C118 N117 1.376 . S
C118 C119 1.443 . S
C118 C145 1.389 . S
C119 C118 1.443 . S
C119 C120 1.340 . S
C119 H151 0.951 . S
C120 C119 1.340 . S
C120 C121 1.439 . S
C120 H152 0.950 . S
C121 N117 1.374 . S
C121 C120 1.439 . S
C121 C146 1.395 . S
N122 Co111 1.995 . S
N122 C123 1.376 . S
N122 C126 1.383 . S
C123 N122 1.376 . S
C123 C124 1.446 . S
C123 C146 1.391 . S
C124 C123 1.446 . S
C124 C125 1.339 . S
C124 H153 0.949 . S
C125 C124 1.339 . S
C125 C126 1.439 . S
C125 H154 0.950 . S
C126 N122 1.383 . S
C126 C125 1.439 . S
C126 C144 1.392 . S
N127 Co111 2.282 . S
N127 C130 1.332 . S
N127 C132 1.332 . S
C128 C129 1.386 . S
C128 C131 1.388 . S
C129 C128 1.386 . S
C129 C130 1.382 . S
C129 H155 0.950 . S
C130 N127 1.332 . S
C130 C129 1.382 . S
C130 H141 0.952 . S
C131 C128 1.388 . S
C131 C132 1.382 . S
C131 H156 0.950 . S
C132 N127 1.332 . S
C132 C131 1.382 . S
C132 H142 0.948 . S
N133 Co111 2.282 . S
N133 C137 1.332 . S
N133 C138 1.332 . S
C134 C135 1.388 . S
C134 C138 1.382 . S
C134 H157 0.950 . S
C135 C134 1.388 . S
C135 C136 1.386 . S
C136 C135 1.386 . S
C136 C137 1.382 . S
C136 H158 0.950 . S
C137 N133 1.332 . S
C137 C136 1.382 . S
C137 H139 0.952 . S
C138 N133 1.332 . S
C138 C134 1.382 . S
C138 H140 0.948 . S
H139 C137 0.952 . S
H140 C138 0.948 . S
H141 C130 0.952 . S
H142 C132 0.948 . S
C143 C109 1.395 . S
C143 C113 1.391 . S
C144 C106 1.389 . S
C144 C126 1.392 . S
C145 C116 1.392 . S
C145 C118 1.389 . S
C146 C121 1.395 . S
C146 C123 1.391 . S
H147 C107 0.951 . S
H148 C108 0.950 . S
H149 C114 0.949 . S
H150 C115 0.950 . S
H151 C119 0.951 . S
H152 C120 0.950 . S
H153 C124 0.949 . S
H154 C125 0.950 . S
H155 C129 0.950 . S
H156 C131 0.950 . S
H157 C134 0.950 . S
H158 C136 0.950 . S
C159 C160 1.443 . S
C159 N163 1.376 . S
C159 C197 1.389 . S
C160 C159 1.443 . S
C160 C161 1.340 . S
C160 H200 0.951 . S
C161 C160 1.340 . S
C161 C162 1.439 . S
C161 H201 0.950 . S
C162 C161 1.439 . S
C162 N163 1.374 . S
C162 C196 1.395 . S
N163 C159 1.376 . S
N163 C162 1.374 . S
N163 Co164 2.008 . S
Co164 N163 2.008 . S
Co164 N165 1.995 . S
Co164 N170 2.008 . S
Co164 N175 1.995 . S
Co164 N180 2.282 . S
Co164 N186 2.282 . S
N165 Co164 1.995 . S
N165 C166 1.376 . S
N165 C169 1.383 . S
C166 N165 1.376 . S
C166 C167 1.446 . S
C166 C196 1.391 . S
C167 C166 1.446 . S
C167 C168 1.339 . S
C167 H202 0.949 . S
C168 C167 1.339 . S
C168 C169 1.439 . S
C168 H203 0.950 . S
C169 N165 1.383 . S
C169 C168 1.439 . S
C169 C198 1.392 . S
N170 Co164 2.008 . S
N170 C171 1.376 . S
N170 C174 1.374 . S
C171 N170 1.376 . S
C171 C172 1.443 . S
C171 C198 1.389 . S
C172 C171 1.443 . S
C172 C173 1.340 . S
C172 H204 0.951 . S
C173 C172 1.340 . S
C173 C174 1.439 . S
C173 H205 0.950 . S
C174 N170 1.374 . S
C174 C173 1.439 . S
C174 C199 1.395 . S
N175 Co164 1.995 . S
N175 C176 1.376 . S
N175 C179 1.383 . S
C176 N175 1.376 . S
C176 C177 1.446 . S
C176 C199 1.391 . S
C177 C176 1.446 . S
C177 C178 1.339 . S
C177 H206 0.949 . S
C178 C177 1.339 . S
C178 C179 1.439 . S
C178 H207 0.950 . S
C179 N175 1.383 . S
C179 C178 1.439 . S
C179 C197 1.392 . S
N180 Co164 2.282 . S
N180 C183 1.332 . S
N180 C185 1.332 . S
C181 C182 1.386 . S
C181 C184 1.388 . S
C182 C181 1.386 . S
C182 C183 1.382 . S
C182 H208 0.950 . S
C183 N180 1.332 . S
C183 C182 1.382 . S
C183 H194 0.952 . S
C184 C181 1.388 . S
C184 C185 1.382 . S
C184 H209 0.950 . S
C185 N180 1.332 . S
C185 C184 1.382 . S
C185 H195 0.948 . S
N186 Co164 2.282 . S
N186 C190 1.332 . S
N186 C191 1.332 . S
C187 C188 1.388 . S
C187 C191 1.382 . S
C187 H210 0.950 . S
C188 C187 1.388 . S
C188 C189 1.386 . S
C189 C188 1.386 . S
C189 C190 1.382 . S
C189 H211 0.950 . S
C190 N186 1.332 . S
C190 C189 1.382 . S
C190 H192 0.952 . S
C191 N186 1.332 . S
C191 C187 1.382 . S
C191 H193 0.948 . S
H192 C190 0.952 . S
H193 C191 0.948 . S
H194 C183 0.952 . S
H195 C185 0.948 . S
C196 C162 1.395 . S
C196 C166 1.391 . S
C197 C159 1.389 . S
C197 C179 1.392 . S
C198 C169 1.392 . S
C198 C171 1.389 . S
C199 C174 1.395 . S
C199 C176 1.391 . S
H200 C160 0.951 . S
H201 C161 0.950 . S
H202 C167 0.949 . S
H203 C168 0.950 . S
H204 C172 0.951 . S
H205 C173 0.950 . S
H206 C177 0.949 . S
H207 C178 0.950 . S
H208 C182 0.950 . S
H209 C184 0.950 . S
H210 C187 0.950 . S
H211 C189 0.950 . S
C212 C213 1.443 . S
C212 N216 1.376 . S
C212 C250 1.389 . S
C213 C212 1.443 . S
C213 C214 1.340 . S
C213 H253 0.951 . S
C214 C213 1.340 . S
C214 C215 1.439 . S
C214 H254 0.950 . S
C215 C214 1.439 . S
C215 N216 1.374 . S
C215 C249 1.395 . S
N216 C212 1.376 . S
N216 C215 1.374 . S
N216 Co217 2.008 . S
Co217 N216 2.008 . S
Co217 N218 1.995 . S
Co217 N223 2.008 . S
Co217 N228 1.995 . S
Co217 N233 2.282 . S
Co217 N239 2.282 . S
N218 Co217 1.995 . S
N218 C219 1.376 . S
N218 C222 1.383 . S
C219 N218 1.376 . S
C219 C220 1.446 . S
C219 C249 1.391 . S
C220 C219 1.446 . S
C220 C221 1.339 . S
C220 H255 0.949 . S
C221 C220 1.339 . S
C221 C222 1.439 . S
C221 H256 0.950 . S
C222 N218 1.383 . S
C222 C221 1.439 . S
C222 C251 1.392 . S
N223 Co217 2.008 . S
N223 C224 1.376 . S
N223 C227 1.374 . S
C224 N223 1.376 . S
C224 C225 1.443 . S
C224 C251 1.389 . S
C225 C224 1.443 . S
C225 C226 1.340 . S
C225 H257 0.951 . S
C226 C225 1.340 . S
C226 C227 1.439 . S
C226 H258 0.950 . S
C227 N223 1.374 . S
C227 C226 1.439 . S
C227 C252 1.395 . S
N228 Co217 1.995 . S
N228 C229 1.376 . S
N228 C232 1.383 . S
C229 N228 1.376 . S
C229 C230 1.446 . S
C229 C252 1.391 . S
C230 C229 1.446 . S
C230 C231 1.339 . S
C230 H259 0.949 . S
C231 C230 1.339 . S
C231 C232 1.439 . S
C231 H260 0.950 . S
C232 N228 1.383 . S
C232 C231 1.439 . S
C232 C250 1.392 . S
N233 Co217 2.282 . S
N233 C236 1.332 . S
N233 C238 1.332 . S
C234 C235 1.386 . S
C234 C237 1.388 . S
C235 C234 1.386 . S
C235 C236 1.382 . S
C235 H261 0.950 . S
C236 N233 1.332 . S
C236 C235 1.382 . S
C236 H247 0.952 . S
C237 C234 1.388 . S
C237 C238 1.382 . S
C237 H262 0.950 . S
C238 N233 1.332 . S
C238 C237 1.382 . S
C238 H248 0.948 . S
N239 Co217 2.282 . S
N239 C243 1.332 . S
N239 C244 1.332 . S
C240 C241 1.388 . S
C240 C244 1.382 . S
C240 H263 0.950 . S
C241 C240 1.388 . S
C241 C242 1.386 . S
C242 C241 1.386 . S
C242 C243 1.382 . S
C242 H264 0.950 . S
C243 N239 1.332 . S
C243 C242 1.382 . S
C243 H245 0.952 . S
C244 N239 1.332 . S
C244 C240 1.382 . S
C244 H246 0.948 . S
H245 C243 0.952 . S
H246 C244 0.948 . S
H247 C236 0.952 . S
H248 C238 0.948 . S
C249 C215 1.395 . S
C249 C219 1.391 . S
C250 C212 1.389 . S
C250 C232 1.392 . S
C251 C222 1.392 . S
C251 C224 1.389 . S
C252 C227 1.395 . S
C252 C229 1.391 . S
H253 C213 0.951 . S
H254 C214 0.950 . S
H255 C220 0.949 . S
H256 C221 0.950 . S
H257 C225 0.951 . S
H258 C226 0.950 . S
H259 C230 0.949 . S
H260 C231 0.950 . S
H261 C235 0.950 . S
H262 C237 0.950 . S
H263 C240 0.950 . S
H264 C242 0.950 . S
C265 C266 1.443 . S
C265 N269 1.376 . S
C265 C303 1.389 . S
C266 C265 1.443 . S
C266 C267 1.340 . S
C266 H306 0.951 . S
C267 C266 1.340 . S
C267 C268 1.439 . S
C267 H307 0.950 . S
C268 C267 1.439 . S
C268 N269 1.374 . S
C268 C302 1.395 . S
N269 C265 1.376 . S
N269 C268 1.374 . S
N269 Co270 2.008 . S
Co270 N269 2.008 . S
Co270 N271 1.995 . S
Co270 N276 2.008 . S
Co270 N281 1.995 . S
Co270 N286 2.282 . S
Co270 N292 2.282 . S
N271 Co270 1.995 . S
N271 C272 1.376 . S
N271 C275 1.383 . S
C272 N271 1.376 . S
C272 C273 1.446 . S
C272 C302 1.391 . S
C273 C272 1.446 . S
C273 C274 1.339 . S
C273 H308 0.949 . S
C274 C273 1.339 . S
C274 C275 1.439 . S
C274 H309 0.950 . S
C275 N271 1.383 . S
C275 C274 1.439 . S
C275 C304 1.392 . S
N276 Co270 2.008 . S
N276 C277 1.376 . S
N276 C280 1.374 . S
C277 N276 1.376 . S
C277 C278 1.443 . S
C277 C304 1.389 . S
C278 C277 1.443 . S
C278 C279 1.340 . S
C278 H310 0.951 . S
C279 C278 1.340 . S
C279 C280 1.439 . S
C279 H311 0.950 . S
C280 N276 1.374 . S
C280 C279 1.439 . S
C280 C305 1.395 . S
N281 Co270 1.995 . S
N281 C282 1.376 . S
N281 C285 1.383 . S
C282 N281 1.376 . S
C282 C283 1.446 . S
C282 C305 1.391 . S
C283 C282 1.446 . S
C283 C284 1.339 . S
C283 H312 0.949 . S
C284 C283 1.339 . S
C284 C285 1.439 . S
C284 H313 0.950 . S
C285 N281 1.383 . S
C285 C284 1.439 . S
C285 C303 1.392 . S
N286 Co270 2.282 . S
N286 C289 1.332 . S
N286 C291 1.332 . S
C287 C288 1.386 . S
C287 C290 1.388 . S
C288 C287 1.386 . S
C288 C289 1.382 . S
C288 H314 0.950 . S
C289 N286 1.332 . S
C289 C288 1.382 . S
C289 H300 0.952 . S
C290 C287 1.388 . S
C290 C291 1.382 . S
C290 H315 0.950 . S
C291 N286 1.332 . S
C291 C290 1.382 . S
C291 H301 0.948 . S
N292 Co270 2.282 . S
N292 C296 1.332 . S
N292 C297 1.332 . S
C293 C294 1.388 . S
C293 C297 1.382 . S
C293 H316 0.950 . S
C294 C293 1.388 . S
C294 C295 1.386 . S
C295 C294 1.386 . S
C295 C296 1.382 . S
C295 H317 0.950 . S
C296 N292 1.332 . S
C296 C295 1.382 . S
C296 H298 0.952 . S
C297 N292 1.332 . S
C297 C293 1.382 . S
C297 H299 0.948 . S
H298 C296 0.952 . S
H299 C297 0.948 . S
H300 C289 0.952 . S
H301 C291 0.948 . S
C302 C268 1.395 . S
C302 C272 1.391 . S
C303 C265 1.389 . S
C303 C285 1.392 . S
C304 C275 1.392 . S
C304 C277 1.389 . S
C305 C280 1.395 . S
C305 C282 1.391 . S
H306 C266 0.951 . S
H307 C267 0.950 . S
H308 C273 0.949 . S
H309 C274 0.950 . S
H310 C278 0.951 . S
H311 C279 0.950 . S
H312 C283 0.949 . S
H313 C284 0.950 . S
H314 C288 0.950 . S
H315 C290 0.950 . S
H316 C293 0.950 . S
H317 C295 0.950 . S
C318 C319 1.443 . S
C318 N322 1.376 . S
C318 C356 1.389 . S
C319 C318 1.443 . S
C319 C320 1.340 . S
C319 H359 0.951 . S
C320 C319 1.340 . S
C320 C321 1.439 . S
C320 H360 0.950 . S
C321 C320 1.439 . S
C321 N322 1.374 . S
C321 C355 1.395 . S
N322 C318 1.376 . S
N322 C321 1.374 . S
N322 Co323 2.008 . S
Co323 N322 2.008 . S
Co323 N324 1.995 . S
Co323 N329 2.008 . S
Co323 N334 1.995 . S
Co323 N339 2.282 . S
Co323 N345 2.282 . S
N324 Co323 1.995 . S
N324 C325 1.376 . S
N324 C328 1.383 . S
C325 N324 1.376 . S
C325 C326 1.446 . S
C325 C355 1.391 . S
C326 C325 1.446 . S
C326 C327 1.339 . S
C326 H361 0.949 . S
C327 C326 1.339 . S
C327 C328 1.439 . S
C327 H362 0.950 . S
C328 N324 1.383 . S
C328 C327 1.439 . S
C328 C357 1.392 . S
N329 Co323 2.008 . S
N329 C330 1.376 . S
N329 C333 1.374 . S
C330 N329 1.376 . S
C330 C331 1.443 . S
C330 C357 1.389 . S
C331 C330 1.443 . S
C331 C332 1.340 . S
C331 H363 0.951 . S
C332 C331 1.340 . S
C332 C333 1.439 . S
C332 H364 0.950 . S
C333 N329 1.374 . S
C333 C332 1.439 . S
C333 C358 1.395 . S
N334 Co323 1.995 . S
N334 C335 1.376 . S
N334 C338 1.383 . S
C335 N334 1.376 . S
C335 C336 1.446 . S
C335 C358 1.391 . S
C336 C335 1.446 . S
C336 C337 1.339 . S
C336 H365 0.949 . S
C337 C336 1.339 . S
C337 C338 1.439 . S
C337 H366 0.950 . S
C338 N334 1.383 . S
C338 C337 1.439 . S
C338 C356 1.392 . S
N339 Co323 2.282 . S
N339 C342 1.332 . S
N339 C344 1.332 . S
C340 C341 1.386 . S
C340 C343 1.388 . S
C341 C340 1.386 . S
C341 C342 1.382 . S
C341 H367 0.950 . S
C342 N339 1.332 . S
C342 C341 1.382 . S
C342 H353 0.952 . S
C343 C340 1.388 . S
C343 C344 1.382 . S
C343 H368 0.950 . S
C344 N339 1.332 . S
C344 C343 1.382 . S
C344 H354 0.948 . S
N345 Co323 2.282 . S
N345 C349 1.332 . S
N345 C350 1.332 . S
C346 C347 1.388 . S
C346 C350 1.382 . S
C346 H369 0.950 . S
C347 C346 1.388 . S
C347 C348 1.386 . S
C348 C347 1.386 . S
C348 C349 1.382 . S
C348 H370 0.950 . S
C349 N345 1.332 . S
C349 C348 1.382 . S
C349 H351 0.952 . S
C350 N345 1.332 . S
C350 C346 1.382 . S
C350 H352 0.948 . S
H351 C349 0.952 . S
H352 C350 0.948 . S
H353 C342 0.952 . S
H354 C344 0.948 . S
C355 C321 1.395 . S
C355 C325 1.391 . S
C356 C318 1.389 . S
C356 C338 1.392 . S
C357 C328 1.392 . S
C357 C330 1.389 . S
C358 C333 1.395 . S
C358 C335 1.391 . S
H359 C319 0.951 . S
H360 C320 0.950 . S
H361 C326 0.949 . S
H362 C327 0.950 . S
H363 C331 0.951 . S
H364 C332 0.950 . S
H365 C336 0.949 . S
H366 C337 0.950 . S
H367 C341 0.950 . S
H368 C343 0.950 . S
H369 C346 0.950 . S
H370 C348 0.950 . S
C371 C372 1.443 . S
C371 N375 1.376 . S
C371 C409 1.389 . S
C372 C371 1.443 . S
C372 C373 1.340 . S
C372 H412 0.951 . S
C373 C372 1.340 . S
C373 C374 1.439 . S
C373 H413 0.950 . S
C374 C373 1.439 . S
C374 N375 1.374 . S
C374 C408 1.395 . S
N375 C371 1.376 . S
N375 C374 1.374 . S
N375 Co376 2.008 . S
Co376 N375 2.008 . S
Co376 N377 1.995 . S
Co376 N382 2.008 . S
Co376 N387 1.995 . S
Co376 N392 2.282 . S
Co376 N398 2.282 . S
N377 Co376 1.995 . S
N377 C378 1.376 . S
N377 C381 1.383 . S
C378 N377 1.376 . S
C378 C379 1.446 . S
C378 C408 1.391 . S
C379 C378 1.446 . S
C379 C380 1.339 . S
C379 H414 0.949 . S
C380 C379 1.339 . S
C380 C381 1.439 . S
C380 H415 0.950 . S
C381 N377 1.383 . S
C381 C380 1.439 . S
C381 C410 1.392 . S
N382 Co376 2.008 . S
N382 C383 1.376 . S
N382 C386 1.374 . S
C383 N382 1.376 . S
C383 C384 1.443 . S
C383 C410 1.389 . S
C384 C383 1.443 . S
C384 C385 1.340 . S
C384 H416 0.951 . S
C385 C384 1.340 . S
C385 C386 1.439 . S
C385 H417 0.950 . S
C386 N382 1.374 . S
C386 C385 1.439 . S
C386 C411 1.395 . S
N387 Co376 1.995 . S
N387 C388 1.376 . S
N387 C391 1.383 . S
C388 N387 1.376 . S
C388 C389 1.446 . S
C388 C411 1.391 . S
C389 C388 1.446 . S
C389 C390 1.339 . S
C389 H418 0.949 . S
C390 C389 1.339 . S
C390 C391 1.439 . S
C390 H419 0.950 . S
C391 N387 1.383 . S
C391 C390 1.439 . S
C391 C409 1.392 . S
N392 Co376 2.282 . S
N392 C395 1.332 . S
N392 C397 1.332 . S
C393 C394 1.386 . S
C393 C396 1.388 . S
C394 C393 1.386 . S
C394 C395 1.382 . S
C394 H420 0.950 . S
C395 N392 1.332 . S
C395 C394 1.382 . S
C395 H406 0.952 . S
C396 C393 1.388 . S
C396 C397 1.382 . S
C396 H421 0.950 . S
C397 N392 1.332 . S
C397 C396 1.382 . S
C397 H407 0.948 . S
N398 Co376 2.282 . S
N398 C402 1.332 . S
N398 C403 1.332 . S
C399 C400 1.388 . S
C399 C403 1.382 . S
C399 H422 0.950 . S
C400 C399 1.388 . S
C400 C401 1.386 . S
C401 C400 1.386 . S
C401 C402 1.382 . S
C401 H423 0.950 . S
C402 N398 1.332 . S
C402 C401 1.382 . S
C402 H404 0.952 . S
C403 N398 1.332 . S
C403 C399 1.382 . S
C403 H405 0.948 . S
H404 C402 0.952 . S
H405 C403 0.948 . S
H406 C395 0.952 . S
H407 C397 0.948 . S
C408 C374 1.395 . S
C408 C378 1.391 . S
C409 C371 1.389 . S
C409 C391 1.392 . S
C410 C381 1.392 . S
C410 C383 1.389 . S
C411 C386 1.395 . S
C411 C388 1.391 . S
H412 C372 0.951 . S
H413 C373 0.950 . S
H414 C379 0.949 . S
H415 C380 0.950 . S
H416 C384 0.951 . S
H417 C385 0.950 . S
H418 C389 0.949 . S
H419 C390 0.950 . S
H420 C394 0.950 . S
H421 C396 0.950 . S
H422 C399 0.950 . S
H423 C401 0.950 . S
C424 C425 1.443 . S
C424 N428 1.376 . S
C424 C462 1.389 . S
C425 C424 1.443 . S
C425 C426 1.340 . S
C425 H465 0.951 . S
C426 C425 1.340 . S
C426 C427 1.439 . S
C426 H466 0.950 . S
C427 C426 1.439 . S
C427 N428 1.374 . S
C427 C461 1.395 . S
N428 C424 1.376 . S
N428 C427 1.374 . S
N428 Co429 2.008 . S
Co429 N428 2.008 . S
Co429 N430 1.995 . S
Co429 N435 2.008 . S
Co429 N440 1.995 . S
Co429 N445 2.282 . S
Co429 N451 2.282 . S
N430 Co429 1.995 . S
N430 C431 1.376 . S
N430 C434 1.383 . S
C431 N430 1.376 . S
C431 C432 1.446 . S
C431 C461 1.391 . S
C432 C431 1.446 . S
C432 C433 1.339 . S
C432 H467 0.949 . S
C433 C432 1.339 . S
C433 C434 1.439 . S
C433 H468 0.950 . S
C434 N430 1.383 . S
C434 C433 1.439 . S
C434 C463 1.392 . S
N435 Co429 2.008 . S
N435 C436 1.376 . S
N435 C439 1.374 . S
C436 N435 1.376 . S
C436 C437 1.443 . S
C436 C463 1.389 . S
C437 C436 1.443 . S
C437 C438 1.340 . S
C437 H469 0.951 . S
C438 C437 1.340 . S
C438 C439 1.439 . S
C438 H470 0.950 . S
C439 N435 1.374 . S
C439 C438 1.439 . S
C439 C464 1.395 . S
N440 Co429 1.995 . S
N440 C441 1.376 . S
N440 C444 1.383 . S
C441 N440 1.376 . S
C441 C442 1.446 . S
C441 C464 1.391 . S
C442 C441 1.446 . S
C442 C443 1.339 . S
C442 H471 0.949 . S
C443 C442 1.339 . S
C443 C444 1.439 . S
C443 H472 0.950 . S
C444 N440 1.383 . S
C444 C443 1.439 . S
C444 C462 1.392 . S
N445 Co429 2.282 . S
N445 C448 1.332 . S
N445 C450 1.332 . S
C446 C447 1.386 . S
C446 C449 1.388 . S
C447 C446 1.386 . S
C447 C448 1.382 . S
C447 H473 0.950 . S
C448 N445 1.332 . S
C448 C447 1.382 . S
C448 H459 0.952 . S
C449 C446 1.388 . S
C449 C450 1.382 . S
C449 H474 0.950 . S
C450 N445 1.332 . S
C450 C449 1.382 . S
C450 H460 0.948 . S
N451 Co429 2.282 . S
N451 C455 1.332 . S
N451 C456 1.332 . S
C452 C453 1.388 . S
C452 C456 1.382 . S
C452 H475 0.950 . S
C453 C452 1.388 . S
C453 C454 1.386 . S
C454 C453 1.386 . S
C454 C455 1.382 . S
C454 H476 0.950 . S
C455 N451 1.332 . S
C455 C454 1.382 . S
C455 H457 0.952 . S
C456 N451 1.332 . S
C456 C452 1.382 . S
C456 H458 0.948 . S
H457 C455 0.952 . S
H458 C456 0.948 . S
H459 C448 0.952 . S
H460 C450 0.948 . S
C461 C427 1.395 . S
C461 C431 1.391 . S
C462 C424 1.389 . S
C462 C444 1.392 . S
C463 C434 1.392 . S
C463 C436 1.389 . S
C464 C439 1.395 . S
C464 C441 1.391 . S
H465 C425 0.951 . S
H466 C426 0.950 . S
H467 C432 0.949 . S
H468 C433 0.950 . S
H469 C437 0.951 . S
H470 C438 0.950 . S
H471 C442 0.949 . S
H472 C443 0.950 . S
H473 C447 0.950 . S
H474 C449 0.950 . S
H475 C452 0.950 . S
H476 C454 0.950 . S
C477 C478 1.443 . S
C477 N481 1.376 . S
C477 C515 1.389 . S
C478 C477 1.443 . S
C478 C479 1.340 . S
C478 H518 0.951 . S
C479 C478 1.340 . S
C479 C480 1.439 . S
C479 H519 0.950 . S
C480 C479 1.439 . S
C480 N481 1.374 . S
C480 C514 1.395 . S
N481 C477 1.376 . S
N481 C480 1.374 . S
N481 Co482 2.008 . S
Co482 N481 2.008 . S
Co482 N483 1.995 . S
Co482 N488 2.008 . S
Co482 N493 1.995 . S
Co482 N498 2.282 . S
Co482 N504 2.282 . S
N483 Co482 1.995 . S
N483 C484 1.376 . S
N483 C487 1.383 . S
C484 N483 1.376 . S
C484 C485 1.446 . S
C484 C514 1.391 . S
C485 C484 1.446 . S
C485 C486 1.339 . S
C485 H520 0.949 . S
C486 C485 1.339 . S
C486 C487 1.439 . S
C486 H521 0.950 . S
C487 N483 1.383 . S
C487 C486 1.439 . S
C487 C516 1.392 . S
N488 Co482 2.008 . S
N488 C489 1.376 . S
N488 C492 1.374 . S
C489 N488 1.376 . S
C489 C490 1.443 . S
C489 C516 1.389 . S
C490 C489 1.443 . S
C490 C491 1.340 . S
C490 H522 0.951 . S
C491 C490 1.340 . S
C491 C492 1.439 . S
C491 H523 0.950 . S
C492 N488 1.374 . S
C492 C491 1.439 . S
C492 C517 1.395 . S
N493 Co482 1.995 . S
N493 C494 1.376 . S
N493 C497 1.383 . S
C494 N493 1.376 . S
C494 C495 1.446 . S
C494 C517 1.391 . S
C495 C494 1.446 . S
C495 C496 1.339 . S
C495 H524 0.949 . S
C496 C495 1.339 . S
C496 C497 1.439 . S
C496 H525 0.950 . S
C497 N493 1.383 . S
C497 C496 1.439 . S
C497 C515 1.392 . S
N498 Co482 2.282 . S
N498 C501 1.332 . S
N498 C503 1.332 . S
C499 C500 1.386 . S
C499 C502 1.388 . S
C500 C499 1.386 . S
C500 C501 1.382 . S
C500 H526 0.950 . S
C501 N498 1.332 . S
C501 C500 1.382 . S
C501 H512 0.952 . S
C502 C499 1.388 . S
C502 C503 1.382 . S
C502 H527 0.950 . S
C503 N498 1.332 . S
C503 C502 1.382 . S
C503 H513 0.948 . S
N504 Co482 2.282 . S
N504 C508 1.332 . S
N504 C509 1.332 . S
C505 C506 1.388 . S
C505 C509 1.382 . S
C505 H528 0.950 . S
C506 C505 1.388 . S
C506 C507 1.386 . S
C507 C506 1.386 . S
C507 C508 1.382 . S
C507 H529 0.950 . S
C508 N504 1.332 . S
C508 C507 1.382 . S
C508 H510 0.952 . S
C509 N504 1.332 . S
C509 C505 1.382 . S
C509 H511 0.948 . S
H510 C508 0.952 . S
H511 C509 0.948 . S
H512 C501 0.952 . S
H513 C503 0.948 . S
C514 C480 1.395 . S
C514 C484 1.391 . S
C515 C477 1.389 . S
C515 C497 1.392 . S
C516 C487 1.392 . S
C516 C489 1.389 . S
C517 C492 1.395 . S
C517 C494 1.391 . S
H518 C478 0.951 . S
H519 C479 0.950 . S
H520 C485 0.949 . S
H521 C486 0.950 . S
H522 C490 0.951 . S
H523 C491 0.950 . S
H524 C495 0.949 . S
H525 C496 0.950 . S
H526 C500 0.950 . S
H527 C502 0.950 . S
H528 C505 0.950 . S
H529 C507 0.950 . S
C530 C531 1.443 . S
C530 N534 1.376 . S
C530 C568 1.389 . S
C531 C530 1.443 . S
C531 C532 1.340 . S
C531 H571 0.951 . S
C532 C531 1.340 . S
C532 C533 1.439 . S
C532 H572 0.950 . S
C533 C532 1.439 . S
C533 N534 1.374 . S
C533 C567 1.395 . S
N534 C530 1.376 . S
N534 C533 1.374 . S
N534 Co535 2.008 . S
Co535 N534 2.008 . S
Co535 N536 1.995 . S
Co535 N541 2.008 . S
Co535 N546 1.995 . S
Co535 N551 2.282 . S
Co535 N557 2.282 . S
N536 Co535 1.995 . S
N536 C537 1.376 . S
N536 C540 1.383 . S
C537 N536 1.376 . S
C537 C538 1.446 . S
C537 C567 1.391 . S
C538 C537 1.446 . S
C538 C539 1.339 . S
C538 H573 0.949 . S
C539 C538 1.339 . S
C539 C540 1.439 . S
C539 H574 0.950 . S
C540 N536 1.383 . S
C540 C539 1.439 . S
C540 C569 1.392 . S
N541 Co535 2.008 . S
N541 C542 1.376 . S
N541 C545 1.374 . S
C542 N541 1.376 . S
C542 C543 1.443 . S
C542 C569 1.389 . S
C543 C542 1.443 . S
C543 C544 1.340 . S
C543 H575 0.951 . S
C544 C543 1.340 . S
C544 C545 1.439 . S
C544 H576 0.950 . S
C545 N541 1.374 . S
C545 C544 1.439 . S
C545 C570 1.395 . S
N546 Co535 1.995 . S
N546 C547 1.376 . S
N546 C550 1.383 . S
C547 N546 1.376 . S
C547 C548 1.446 . S
C547 C570 1.391 . S
C548 C547 1.446 . S
C548 C549 1.339 . S
C548 H577 0.949 . S
C549 C548 1.339 . S
C549 C550 1.439 . S
C549 H578 0.950 . S
C550 N546 1.383 . S
C550 C549 1.439 . S
C550 C568 1.392 . S
N551 Co535 2.282 . S
N551 C554 1.332 . S
N551 C556 1.332 . S
C552 C553 1.386 . S
C552 C555 1.388 . S
C553 C552 1.386 . S
C553 C554 1.382 . S
C553 H579 0.950 . S
C554 N551 1.332 . S
C554 C553 1.382 . S
C554 H565 0.952 . S
C555 C552 1.388 . S
C555 C556 1.382 . S
C555 H580 0.950 . S
C556 N551 1.332 . S
C556 C555 1.382 . S
C556 H566 0.948 . S
N557 Co535 2.282 . S
N557 C561 1.332 . S
N557 C562 1.332 . S
C558 C559 1.388 . S
C558 C562 1.382 . S
C558 H581 0.950 . S
C559 C558 1.388 . S
C559 C560 1.386 . S
C560 C559 1.386 . S
C560 C561 1.382 . S
C560 H582 0.950 . S
C561 N557 1.332 . S
C561 C560 1.382 . S
C561 H563 0.952 . S
C562 N557 1.332 . S
C562 C558 1.382 . S
C562 H564 0.948 . S
H563 C561 0.952 . S
H564 C562 0.948 . S
H565 C554 0.952 . S
H566 C556 0.948 . S
C567 C533 1.395 . S
C567 C537 1.391 . S
C568 C530 1.389 . S
C568 C550 1.392 . S
C569 C540 1.392 . S
C569 C542 1.389 . S
C570 C545 1.395 . S
C570 C547 1.391 . S
H571 C531 0.951 . S
H572 C532 0.950 . S
H573 C538 0.949 . S
H574 C539 0.950 . S
H575 C543 0.951 . S
H576 C544 0.950 . S
H577 C548 0.949 . S
H578 C549 0.950 . S
H579 C553 0.950 . S
H580 C555 0.950 . S
H581 C558 0.950 . S
H582 C560 0.950 . S
C583 C584 1.443 . S
C583 N587 1.376 . S
C583 C621 1.389 . S
C584 C583 1.443 . S
C584 C585 1.340 . S
C584 H624 0.951 . S
C585 C584 1.340 . S
C585 C586 1.439 . S
C585 H625 0.950 . S
C586 C585 1.439 . S
C586 N587 1.374 . S
C586 C620 1.395 . S
N587 C583 1.376 . S
N587 C586 1.374 . S
N587 Co588 2.008 . S
Co588 N587 2.008 . S
Co588 N589 1.995 . S
Co588 N594 2.008 . S
Co588 N599 1.995 . S
Co588 N604 2.282 . S
Co588 N610 2.282 . S
N589 Co588 1.995 . S
N589 C590 1.376 . S
N589 C593 1.383 . S
C590 N589 1.376 . S
C590 C591 1.446 . S
C590 C620 1.391 . S
C591 C590 1.446 . S
C591 C592 1.339 . S
C591 H626 0.949 . S
C592 C591 1.339 . S
C592 C593 1.439 . S
C592 H627 0.950 . S
C593 N589 1.383 . S
C593 C592 1.439 . S
C593 C622 1.392 . S
N594 Co588 2.008 . S
N594 C595 1.376 . S
N594 C598 1.374 . S
C595 N594 1.376 . S
C595 C596 1.443 . S
C595 C622 1.389 . S
C596 C595 1.443 . S
C596 C597 1.340 . S
C596 H628 0.951 . S
C597 C596 1.340 . S
C597 C598 1.439 . S
C597 H629 0.950 . S
C598 N594 1.374 . S
C598 C597 1.439 . S
C598 C623 1.395 . S
N599 Co588 1.995 . S
N599 C600 1.376 . S
N599 C603 1.383 . S
C600 N599 1.376 . S
C600 C601 1.446 . S
C600 C623 1.391 . S
C601 C600 1.446 . S
C601 C602 1.339 . S
C601 H630 0.949 . S
C602 C601 1.339 . S
C602 C603 1.439 . S
C602 H631 0.950 . S
C603 N599 1.383 . S
C603 C602 1.439 . S
C603 C621 1.392 . S
N604 Co588 2.282 . S
N604 C607 1.332 . S
N604 C609 1.332 . S
C605 C606 1.386 . S
C605 C608 1.388 . S
C606 C605 1.386 . S
C606 C607 1.382 . S
C606 H632 0.950 . S
C607 N604 1.332 . S
C607 C606 1.382 . S
C607 H618 0.952 . S
C608 C605 1.388 . S
C608 C609 1.382 . S
C608 H633 0.950 . S
C609 N604 1.332 . S
C609 C608 1.382 . S
C609 H619 0.948 . S
N610 Co588 2.282 . S
N610 C614 1.332 . S
N610 C615 1.332 . S
C611 C612 1.388 . S
C611 C615 1.382 . S
C611 H634 0.950 . S
C612 C611 1.388 . S
C612 C613 1.386 . S
C613 C612 1.386 . S
C613 C614 1.382 . S
C613 H635 0.950 . S
C614 N610 1.332 . S
C614 C613 1.382 . S
C614 H616 0.952 . S
C615 N610 1.332 . S
C615 C611 1.382 . S
C615 H617 0.948 . S
H616 C614 0.952 . S
H617 C615 0.948 . S
H618 C607 0.952 . S
H619 C609 0.948 . S
C620 C586 1.395 . S
C620 C590 1.391 . S
C621 C583 1.389 . S
C621 C603 1.392 . S
C622 C593 1.392 . S
C622 C595 1.389 . S
C623 C598 1.395 . S
C623 C600 1.391 . S
H624 C584 0.951 . S
H625 C585 0.950 . S
H626 C591 0.949 . S
H627 C592 0.950 . S
H628 C596 0.951 . S
H629 C597 0.950 . S
H630 C601 0.949 . S
H631 C602 0.950 . S
H632 C606 0.950 . S
H633 C608 0.950 . S
H634 C611 0.950 . S
H635 C613 0.950 . S
C636 C637 1.443 . S
C636 N640 1.376 . S
C636 C674 1.389 . S
C637 C636 1.443 . S
C637 C638 1.340 . S
C637 H677 0.951 . S
C638 C637 1.340 . S
C638 C639 1.439 . S
C638 H678 0.950 . S
C639 C638 1.439 . S
C639 N640 1.374 . S
C639 C673 1.395 . S
N640 C636 1.376 . S
N640 C639 1.374 . S
N640 Co641 2.008 . S
Co641 N640 2.008 . S
Co641 N642 1.995 . S
Co641 N647 2.008 . S
Co641 N652 1.995 . S
Co641 N657 2.282 . S
Co641 N663 2.282 . S
N642 Co641 1.995 . S
N642 C643 1.376 . S
N642 C646 1.383 . S
C643 N642 1.376 . S
C643 C644 1.446 . S
C643 C673 1.391 . S
C644 C643 1.446 . S
C644 C645 1.339 . S
C644 H679 0.949 . S
C645 C644 1.339 . S
C645 C646 1.439 . S
C645 H680 0.950 . S
C646 N642 1.383 . S
C646 C645 1.439 . S
C646 C675 1.392 . S
N647 Co641 2.008 . S
N647 C648 1.376 . S
N647 C651 1.374 . S
C648 N647 1.376 . S
C648 C649 1.443 . S
C648 C675 1.389 . S
C649 C648 1.443 . S
C649 C650 1.340 . S
C649 H681 0.951 . S
C650 C649 1.340 . S
C650 C651 1.439 . S
C650 H682 0.950 . S
C651 N647 1.374 . S
C651 C650 1.439 . S
C651 C676 1.395 . S
N652 Co641 1.995 . S
N652 C653 1.376 . S
N652 C656 1.383 . S
C653 N652 1.376 . S
C653 C654 1.446 . S
C653 C676 1.391 . S
C654 C653 1.446 . S
C654 C655 1.339 . S
C654 H683 0.949 . S
C655 C654 1.339 . S
C655 C656 1.439 . S
C655 H684 0.950 . S
C656 N652 1.383 . S
C656 C655 1.439 . S
C656 C674 1.392 . S
N657 Co641 2.282 . S
N657 C660 1.332 . S
N657 C662 1.332 . S
C658 C659 1.386 . S
C658 C661 1.388 . S
C659 C658 1.386 . S
C659 C660 1.382 . S
C659 H685 0.950 . S
C660 N657 1.332 . S
C660 C659 1.382 . S
C660 H671 0.952 . S
C661 C658 1.388 . S
C661 C662 1.382 . S
C661 H686 0.950 . S
C662 N657 1.332 . S
C662 C661 1.382 . S
C662 H672 0.948 . S
N663 Co641 2.282 . S
N663 C667 1.332 . S
N663 C668 1.332 . S
C664 C665 1.388 . S
C664 C668 1.382 . S
C664 H687 0.950 . S
C665 C664 1.388 . S
C665 C666 1.386 . S
C666 C665 1.386 . S
C666 C667 1.382 . S
C666 H688 0.950 . S
C667 N663 1.332 . S
C667 C666 1.382 . S
C667 H669 0.952 . S
C668 N663 1.332 . S
C668 C664 1.382 . S
C668 H670 0.948 . S
H669 C667 0.952 . S
H670 C668 0.948 . S
H671 C660 0.952 . S
H672 C662 0.948 . S
C673 C639 1.395 . S
C673 C643 1.391 . S
C674 C636 1.389 . S
C674 C656 1.392 . S
C675 C646 1.392 . S
C675 C648 1.389 . S
C676 C651 1.395 . S
C676 C653 1.391 . S
H677 C637 0.951 . S
H678 C638 0.950 . S
H679 C644 0.949 . S
H680 C645 0.950 . S
H681 C649 0.951 . S
H682 C650 0.950 . S
H683 C654 0.949 . S
H684 C655 0.950 . S
H685 C659 0.950 . S
H686 C661 0.950 . S
H687 C664 0.950 . S
H688 C666 0.950 . S
C689 C690 1.443 . S
C689 N693 1.376 . S
C689 C727 1.389 . S
C690 C689 1.443 . S
C690 C691 1.340 . S
C690 H730 0.951 . S
C691 C690 1.340 . S
C691 C692 1.439 . S
C691 H731 0.950 . S
C692 C691 1.439 . S
C692 N693 1.374 . S
C692 C726 1.395 . S
N693 C689 1.376 . S
N693 C692 1.374 . S
N693 Co694 2.008 . S
Co694 N693 2.008 . S
Co694 N695 1.995 . S
Co694 N700 2.008 . S
Co694 N705 1.995 . S
Co694 N710 2.282 . S
Co694 N716 2.282 . S
N695 Co694 1.995 . S
N695 C696 1.376 . S
N695 C699 1.383 . S
C696 N695 1.376 . S
C696 C697 1.446 . S
C696 C726 1.391 . S
C697 C696 1.446 . S
C697 C698 1.339 . S
C697 H732 0.949 . S
C698 C697 1.339 . S
C698 C699 1.439 . S
C698 H733 0.950 . S
C699 N695 1.383 . S
C699 C698 1.439 . S
C699 C728 1.392 . S
N700 Co694 2.008 . S
N700 C701 1.376 . S
N700 C704 1.374 . S
C701 N700 1.376 . S
C701 C702 1.443 . S
C701 C728 1.389 . S
C702 C701 1.443 . S
C702 C703 1.340 . S
C702 H734 0.951 . S
C703 C702 1.340 . S
C703 C704 1.439 . S
C703 H735 0.950 . S
C704 N700 1.374 . S
C704 C703 1.439 . S
C704 C729 1.395 . S
N705 Co694 1.995 . S
N705 C706 1.376 . S
N705 C709 1.383 . S
C706 N705 1.376 . S
C706 C707 1.446 . S
C706 C729 1.391 . S
C707 C706 1.446 . S
C707 C708 1.339 . S
C707 H736 0.949 . S
C708 C707 1.339 . S
C708 C709 1.439 . S
C708 H737 0.950 . S
C709 N705 1.383 . S
C709 C708 1.439 . S
C709 C727 1.392 . S
N710 Co694 2.282 . S
N710 C713 1.332 . S
N710 C715 1.332 . S
C711 C712 1.386 . S
C711 C714 1.388 . S
C712 C711 1.386 . S
C712 C713 1.382 . S
C712 H738 0.950 . S
C713 N710 1.332 . S
C713 C712 1.382 . S
C713 H724 0.952 . S
C714 C711 1.388 . S
C714 C715 1.382 . S
C714 H739 0.950 . S
C715 N710 1.332 . S
C715 C714 1.382 . S
C715 H725 0.948 . S
N716 Co694 2.282 . S
N716 C720 1.332 . S
N716 C721 1.332 . S
C717 C718 1.388 . S
C717 C721 1.382 . S
C717 H740 0.950 . S
C718 C717 1.388 . S
C718 C719 1.386 . S
C719 C718 1.386 . S
C719 C720 1.382 . S
C719 H741 0.950 . S
C720 N716 1.332 . S
C720 C719 1.382 . S
C720 H722 0.952 . S
C721 N716 1.332 . S
C721 C717 1.382 . S
C721 H723 0.948 . S
H722 C720 0.952 . S
H723 C721 0.948 . S
H724 C713 0.952 . S
H725 C715 0.948 . S
C726 C692 1.395 . S
C726 C696 1.391 . S
C727 C689 1.389 . S
C727 C709 1.392 . S
C728 C699 1.392 . S
C728 C701 1.389 . S
C729 C704 1.395 . S
C729 C706 1.391 . S
H730 C690 0.951 . S
H731 C691 0.950 . S
H732 C697 0.949 . S
H733 C698 0.950 . S
H734 C702 0.951 . S
H735 C703 0.950 . S
H736 C707 0.949 . S
H737 C708 0.950 . S
H738 C712 0.950 . S
H739 C714 0.950 . S
H740 C717 0.950 . S
H741 C719 0.950 . S
C742 C743 1.443 . S
C742 N746 1.376 . S
C742 C780 1.389 . S
C743 C742 1.443 . S
C743 C744 1.340 . S
C743 H783 0.951 . S
C744 C743 1.340 . S
C744 C745 1.439 . S
C744 H784 0.950 . S
C745 C744 1.439 . S
C745 N746 1.374 . S
C745 C779 1.395 . S
N746 C742 1.376 . S
N746 C745 1.374 . S
N746 Co747 2.008 . S
Co747 N746 2.008 . S
Co747 N748 1.995 . S
Co747 N753 2.008 . S
Co747 N758 1.995 . S
Co747 N763 2.282 . S
Co747 N769 2.282 . S
N748 Co747 1.995 . S
N748 C749 1.376 . S
N748 C752 1.383 . S
C749 N748 1.376 . S
C749 C750 1.446 . S
C749 C779 1.391 . S
C750 C749 1.446 . S
C750 C751 1.339 . S
C750 H785 0.949 . S
C751 C750 1.339 . S
C751 C752 1.439 . S
C751 H786 0.950 . S
C752 N748 1.383 . S
C752 C751 1.439 . S
C752 C781 1.392 . S
N753 Co747 2.008 . S
N753 C754 1.376 . S
N753 C757 1.374 . S
C754 N753 1.376 . S
C754 C755 1.443 . S
C754 C781 1.389 . S
C755 C754 1.443 . S
C755 C756 1.340 . S
C755 H787 0.951 . S
C756 C755 1.340 . S
C756 C757 1.439 . S
C756 H788 0.950 . S
C757 N753 1.374 . S
C757 C756 1.439 . S
C757 C782 1.395 . S
N758 Co747 1.995 . S
N758 C759 1.376 . S
N758 C762 1.383 . S
C759 N758 1.376 . S
C759 C760 1.446 . S
C759 C782 1.391 . S
C760 C759 1.446 . S
C760 C761 1.339 . S
C760 H789 0.949 . S
C761 C760 1.339 . S
C761 C762 1.439 . S
C761 H790 0.950 . S
C762 N758 1.383 . S
C762 C761 1.439 . S
C762 C780 1.392 . S
N763 Co747 2.282 . S
N763 C766 1.332 . S
N763 C768 1.332 . S
C764 C765 1.386 . S
C764 C767 1.388 . S
C765 C764 1.386 . S
C765 C766 1.382 . S
C765 H791 0.950 . S
C766 N763 1.332 . S
C766 C765 1.382 . S
C766 H777 0.952 . S
C767 C764 1.388 . S
C767 C768 1.382 . S
C767 H792 0.950 . S
C768 N763 1.332 . S
C768 C767 1.382 . S
C768 H778 0.948 . S
N769 Co747 2.282 . S
N769 C773 1.332 . S
N769 C774 1.332 . S
C770 C771 1.388 . S
C770 C774 1.382 . S
C770 H793 0.950 . S
C771 C770 1.388 . S
C771 C772 1.386 . S
C772 C771 1.386 . S
C772 C773 1.382 . S
C772 H794 0.950 . S
C773 N769 1.332 . S
C773 C772 1.382 . S
C773 H775 0.952 . S
C774 N769 1.332 . S
C774 C770 1.382 . S
C774 H776 0.948 . S
H775 C773 0.952 . S
H776 C774 0.948 . S
H777 C766 0.952 . S
H778 C768 0.948 . S
C779 C745 1.395 . S
C779 C749 1.391 . S
C780 C742 1.389 . S
C780 C762 1.392 . S
C781 C752 1.392 . S
C781 C754 1.389 . S
C782 C757 1.395 . S
C782 C759 1.391 . S
H783 C743 0.951 . S
H784 C744 0.950 . S
H785 C750 0.949 . S
H786 C751 0.950 . S
H787 C755 0.951 . S
H788 C756 0.950 . S
H789 C760 0.949 . S
H790 C761 0.950 . S
H791 C765 0.950 . S
H792 C767 0.950 . S
H793 C770 0.950 . S
H794 C772 0.950 . S
C795 C796 1.443 . S
C795 N799 1.376 . S
C795 C833 1.389 . S
C796 C795 1.443 . S
C796 C797 1.340 . S
C796 H836 0.951 . S
C797 C796 1.340 . S
C797 C798 1.439 . S
C797 H837 0.950 . S
C798 C797 1.439 . S
C798 N799 1.374 . S
C798 C832 1.395 . S
N799 C795 1.376 . S
N799 C798 1.374 . S
N799 Co800 2.008 . S
Co800 N799 2.008 . S
Co800 N801 1.995 . S
Co800 N806 2.008 . S
Co800 N811 1.995 . S
Co800 N816 2.282 . S
Co800 N822 2.282 . S
N801 Co800 1.995 . S
N801 C802 1.376 . S
N801 C805 1.383 . S
C802 N801 1.376 . S
C802 C803 1.446 . S
C802 C832 1.391 . S
C803 C802 1.446 . S
C803 C804 1.339 . S
C803 H838 0.949 . S
C804 C803 1.339 . S
C804 C805 1.439 . S
C804 H839 0.950 . S
C805 N801 1.383 . S
C805 C804 1.439 . S
C805 C834 1.392 . S
N806 Co800 2.008 . S
N806 C807 1.376 . S
N806 C810 1.374 . S
C807 N806 1.376 . S
C807 C808 1.443 . S
C807 C834 1.389 . S
C808 C807 1.443 . S
C808 C809 1.340 . S
C808 H840 0.951 . S
C809 C808 1.340 . S
C809 C810 1.439 . S
C809 H841 0.950 . S
C810 N806 1.374 . S
C810 C809 1.439 . S
C810 C835 1.395 . S
N811 Co800 1.995 . S
N811 C812 1.376 . S
N811 C815 1.383 . S
C812 N811 1.376 . S
C812 C813 1.446 . S
C812 C835 1.391 . S
C813 C812 1.446 . S
C813 C814 1.339 . S
C813 H842 0.949 . S
C814 C813 1.339 . S
C814 C815 1.439 . S
C814 H843 0.950 . S
C815 N811 1.383 . S
C815 C814 1.439 . S
C815 C833 1.392 . S
N816 Co800 2.282 . S
N816 C819 1.332 . S
N816 C821 1.332 . S
C817 C818 1.386 . S
C817 C820 1.388 . S
C818 C817 1.386 . S
C818 C819 1.382 . S
C818 H844 0.950 . S
C819 N816 1.332 . S
C819 C818 1.382 . S
C819 H830 0.952 . S
C820 C817 1.388 . S
C820 C821 1.382 . S
C820 H845 0.950 . S
C821 N816 1.332 . S
C821 C820 1.382 . S
C821 H831 0.948 . S
N822 Co800 2.282 . S
N822 C826 1.332 . S
N822 C827 1.332 . S
C823 C824 1.388 . S
C823 C827 1.382 . S
C823 H846 0.950 . S
C824 C823 1.388 . S
C824 C825 1.386 . S
C825 C824 1.386 . S
C825 C826 1.382 . S
C825 H847 0.950 . S
C826 N822 1.332 . S
C826 C825 1.382 . S
C826 H828 0.952 . S
C827 N822 1.332 . S
C827 C823 1.382 . S
C827 H829 0.948 . S
H828 C826 0.952 . S
H829 C827 0.948 . S
H830 C819 0.952 . S
H831 C821 0.948 . S
C832 C798 1.395 . S
C832 C802 1.391 . S
C833 C795 1.389 . S
C833 C815 1.392 . S
C834 C805 1.392 . S
C834 C807 1.389 . S
C835 C810 1.395 . S
C835 C812 1.391 . S
H836 C796 0.951 . S
H837 C797 0.950 . S
H838 C803 0.949 . S
H839 C804 0.950 . S
H840 C808 0.951 . S
H841 C809 0.950 . S
H842 C813 0.949 . S
H843 C814 0.950 . S
H844 C818 0.950 . S
H845 C820 0.950 . S
H846 C823 0.950 . S
H847 C825 0.950 . S
C848 C849 1.349 . S
C848 C850 1.327 . S
C848 H873 0.950 . S
C849 C848 1.349 . S
C849 C865 1.349 . S
C850 C848 1.327 . S
C850 C869 1.429 . S
C850 H874 0.950 . S
C851 C868 1.574 1_556 S
C851 C870 1.368 . S
C851 H875 0.949 . S
H852 C856 0.949 . S
C853 C854 1.349 . S
C853 C855 1.327 . S
C853 H876 0.950 . S
C854 C853 1.349 . S
C854 C866 1.349 . S
C855 C853 1.327 . S
C855 C871 1.429 . S
C855 H877 0.950 . S
C856 H852 0.949 . S
C856 C864 1.574 1_554 S
C856 C872 1.368 . S
H857 C865 0.950 . S
H858 C863 0.950 . S
H859 C864 0.949 . S
H860 C866 0.950 . S
H861 C867 0.950 . S
H862 C868 0.949 . S
C863 H858 0.950 . S
C863 C865 1.327 . S
C863 C869 1.429 . S
C864 C856 1.574 1_556 S
C864 H859 0.949 . S
C864 C870 1.368 . S
C865 C849 1.349 . S
C865 H857 0.950 . S
C865 C863 1.327 . S
C866 C854 1.349 . S
C866 H860 0.950 . S
C866 C867 1.327 . S
C867 H861 0.950 . S
C867 C866 1.327 . S
C867 C871 1.429 . S
C868 C851 1.574 1_554 S
C868 H862 0.949 . S
C868 C872 1.368 . S
C869 C850 1.429 . S
C869 C863 1.429 . S
C869 C870 1.523 . S
C870 C851 1.368 . S
C870 C864 1.368 . S
C870 C869 1.523 . S
C871 C855 1.429 . S
C871 C867 1.429 . S
C871 C872 1.523 . S
C872 C856 1.368 . S
C872 C868 1.368 . S
C872 C871 1.523 . S
H873 C848 0.950 . S
H874 C850 0.950 . S
H875 C851 0.949 . S
H876 C853 0.950 . S
H877 C855 0.950 . S
C878 C879 1.349 . S
C878 C880 1.327 . S
C878 H903 0.950 . S
C879 C878 1.349 . S
C879 C895 1.349 . S
C880 C878 1.327 . S
C880 C899 1.429 . S
C880 H904 0.950 . S
C881 C898 1.574 . S
C881 C900 1.368 . S
C881 H905 0.949 . S
H882 C886 0.949 . S
C883 C884 1.349 . S
C883 C885 1.327 . S
C883 H906 0.950 . S
C884 C883 1.349 . S
C884 C896 1.349 . S
C885 C883 1.327 . S
C885 C901 1.429 . S
C885 H907 0.950 . S
C886 H882 0.949 . S
C886 C894 1.574 . S
C886 C902 1.368 . S
H887 C895 0.950 . S
H888 C893 0.950 . S
H889 C894 0.949 . S
H890 C896 0.950 . S
H891 C897 0.950 . S
H892 C898 0.949 . S
C893 H888 0.950 . S
C893 C895 1.327 . S
C893 C899 1.429 . S
C894 C886 1.574 . S
C894 H889 0.949 . S
C894 C900 1.368 . S
C895 C879 1.349 . S
C895 H887 0.950 . S
C895 C893 1.327 . S
C896 C884 1.349 . S
C896 H890 0.950 . S
C896 C897 1.327 . S
C897 H891 0.950 . S
C897 C896 1.327 . S
C897 C901 1.429 . S
C898 C881 1.574 . S
C898 H892 0.949 . S
C898 C902 1.368 . S
C899 C880 1.429 . S
C899 C893 1.429 . S
C899 C900 1.523 . S
C900 C881 1.368 . S
C900 C894 1.368 . S
C900 C899 1.523 . S
C901 C885 1.429 . S
C901 C897 1.429 . S
C901 C902 1.523 . S
C902 C886 1.368 . S
C902 C898 1.368 . S
C902 C901 1.523 . S
H903 C878 0.950 . S
H904 C880 0.950 . S
H905 C881 0.949 . S
H906 C883 0.950 . S
H907 C885 0.950 . S
C908 C909 1.349 . S
C908 C910 1.327 . S
C908 H933 0.950 . S
C909 C908 1.349 . S
C909 C925 1.349 . S
C910 C908 1.327 . S
C910 C929 1.429 . S
C910 H934 0.950 . S
C911 C928 1.574 1_556 S
C911 C930 1.368 . S
C911 H935 0.949 . S
H912 C916 0.949 . S
C913 C914 1.349 . S
C913 C915 1.327 . S
C913 H936 0.950 . S
C914 C913 1.349 . S
C914 C926 1.349 . S
C915 C913 1.327 . S
C915 C931 1.429 . S
C915 H937 0.950 . S
C916 H912 0.949 . S
C916 C924 1.574 1_554 S
C916 C932 1.368 . S
H917 C925 0.950 . S
H918 C923 0.950 . S
H919 C924 0.949 . S
H920 C926 0.950 . S
H921 C927 0.950 . S
H922 C928 0.949 . S
C923 H918 0.950 . S
C923 C925 1.327 . S
C923 C929 1.429 . S
C924 C916 1.574 1_556 S
C924 H919 0.949 . S
C924 C930 1.368 . S
C925 C909 1.349 . S
C925 H917 0.950 . S
C925 C923 1.327 . S
C926 C914 1.349 . S
C926 H920 0.950 . S
C926 C927 1.327 . S
C927 H921 0.950 . S
C927 C926 1.327 . S
C927 C931 1.429 . S
C928 C911 1.574 1_554 S
C928 H922 0.949 . S
C928 C932 1.368 . S
C929 C910 1.429 . S
C929 C923 1.429 . S
C929 C930 1.523 . S
C930 C911 1.368 . S
C930 C924 1.368 . S
C930 C929 1.523 . S
C931 C915 1.429 . S
C931 C927 1.429 . S
C931 C932 1.523 . S
C932 C916 1.368 . S
C932 C928 1.368 . S
C932 C931 1.523 . S
H933 C908 0.950 . S
H934 C910 0.950 . S
H935 C911 0.949 . S
H936 C913 0.950 . S
H937 C915 0.950 . S
C938 C939 1.349 . S
C938 C940 1.327 . S
C938 H963 0.950 . S
C939 C938 1.349 . S
C939 C955 1.349 . S
C940 C938 1.327 . S
C940 C959 1.429 . S
C940 H964 0.950 . S
C941 C958 1.574 . S
C941 C960 1.368 . S
C941 H965 0.949 . S
H942 C946 0.949 . S
C943 C944 1.349 . S
C943 C945 1.327 . S
C943 H966 0.950 . S
C944 C943 1.349 . S
C944 C956 1.349 . S
C945 C943 1.327 . S
C945 C961 1.429 . S
C945 H967 0.950 . S
C946 H942 0.949 . S
C946 C954 1.574 . S
C946 C962 1.368 . S
H947 C955 0.950 . S
H948 C953 0.950 . S
H949 C954 0.949 . S
H950 C956 0.950 . S
H951 C957 0.950 . S
H952 C958 0.949 . S
C953 H948 0.950 . S
C953 C955 1.327 . S
C953 C959 1.429 . S
C954 C946 1.574 . S
C954 H949 0.949 . S
C954 C960 1.368 . S
C955 C939 1.349 . S
C955 H947 0.950 . S
C955 C953 1.327 . S
C956 C944 1.349 . S
C956 H950 0.950 . S
C956 C957 1.327 . S
C957 H951 0.950 . S
C957 C956 1.327 . S
C957 C961 1.429 . S
C958 C941 1.574 . S
C958 H952 0.949 . S
C958 C962 1.368 . S
C959 C940 1.429 . S
C959 C953 1.429 . S
C959 C960 1.523 . S
C960 C941 1.368 . S
C960 C954 1.368 . S
C960 C959 1.523 . S
C961 C945 1.429 . S
C961 C957 1.429 . S
C961 C962 1.523 . S
C962 C946 1.368 . S
C962 C958 1.368 . S
C962 C961 1.523 . S
H963 C938 0.950 . S
H964 C940 0.950 . S
H965 C941 0.949 . S
H966 C943 0.950 . S
H967 C945 0.950 . S
C968 C969 1.349 . S
C968 C970 1.327 . S
C968 H993 0.950 . S
C969 C968 1.349 . S
C969 C985 1.349 . S
C970 C968 1.327 . S
C970 C989 1.429 . S
C970 H994 0.950 . S
C971 C988 1.574 1_554 S
C971 C990 1.368 . S
C971 H995 0.949 . S
H972 C976 0.949 . S
C973 C974 1.349 . S
C973 C975 1.327 . S
C973 H996 0.950 . S
C974 C973 1.349 . S
C974 C986 1.349 . S
C975 C973 1.327 . S
C975 C991 1.429 . S
C975 H997 0.950 . S
C976 H972 0.949 . S
C976 C984 1.574 1_556 S
C976 C992 1.368 . S
H977 C985 0.950 . S
H978 C983 0.950 . S
H979 C984 0.949 . S
H980 C986 0.950 . S
H981 C987 0.950 . S
H982 C988 0.949 . S
C983 H978 0.950 . S
C983 C985 1.327 . S
C983 C989 1.429 . S
C984 C976 1.574 1_554 S
C984 H979 0.949 . S
C984 C990 1.368 . S
C985 C969 1.349 . S
C985 H977 0.950 . S
C985 C983 1.327 . S
C986 C974 1.349 . S
C986 H980 0.950 . S
C986 C987 1.327 . S
C987 H981 0.950 . S
C987 C986 1.327 . S
C987 C991 1.429 . S
C988 C971 1.574 1_556 S
C988 H982 0.949 . S
C988 C992 1.368 . S
C989 C970 1.429 . S
C989 C983 1.429 . S
C989 C990 1.523 . S
C990 C971 1.368 . S
C990 C984 1.368 . S
C990 C989 1.523 . S
C991 C975 1.429 . S
C991 C987 1.429 . S
C991 C992 1.523 . S
C992 C976 1.368 . S
C992 C988 1.368 . S
C992 C991 1.523 . S
H993 C968 0.950 . S
H994 C970 0.950 . S
H995 C971 0.949 . S
H996 C973 0.950 . S
H997 C975 0.950 . S
C998 C999 1.349 . S
C998 C1000 1.327 . S
C998 H1023 0.950 . S
C999 C998 1.349 . S
C999 C1015 1.349 . S
C1000 C998 1.327 . S
C1000 C1019 1.429 . S
C1000 H1024 0.950 . S
C1001 C1018 1.574 . S
C1001 C1020 1.368 . S
C1001 H1025 0.949 . S
H1002 C1006 0.949 . S
C1003 C1004 1.349 . S
C1003 C1005 1.327 . S
C1003 H1026 0.950 . S
C1004 C1003 1.349 . S
C1004 C1016 1.349 . S
C1005 C1003 1.327 . S
C1005 C1021 1.429 . S
C1005 H1027 0.950 . S
C1006 H1002 0.949 . S
C1006 C1014 1.574 . S
C1006 C1022 1.368 . S
H1007 C1015 0.950 . S
H1008 C1013 0.950 . S
H1009 C1014 0.949 . S
H1010 C1016 0.950 . S
H1011 C1017 0.950 . S
H1012 C1018 0.949 . S
C1013 H1008 0.950 . S
C1013 C1015 1.327 . S
C1013 C1019 1.429 . S
C1014 C1006 1.574 . S
C1014 H1009 0.949 . S
C1014 C1020 1.368 . S
C1015 C999 1.349 . S
C1015 H1007 0.950 . S
C1015 C1013 1.327 . S
C1016 C1004 1.349 . S
C1016 H1010 0.950 . S
C1016 C1017 1.327 . S
C1017 H1011 0.950 . S
C1017 C1016 1.327 . S
C1017 C1021 1.429 . S
C1018 C1001 1.574 . S
C1018 H1012 0.949 . S
C1018 C1022 1.368 . S
C1019 C1000 1.429 . S
C1019 C1013 1.429 . S
C1019 C1020 1.523 . S
C1020 C1001 1.368 . S
C1020 C1014 1.368 . S
C1020 C1019 1.523 . S
C1021 C1005 1.429 . S
C1021 C1017 1.429 . S
C1021 C1022 1.523 . S
C1022 C1006 1.368 . S
C1022 C1018 1.368 . S
C1022 C1021 1.523 . S
H1023 C998 0.950 . S
H1024 C1000 0.950 . S
H1025 C1001 0.949 . S
H1026 C1003 0.950 . S
H1027 C1005 0.950 . S
C1028 C1029 1.349 . S
C1028 C1030 1.327 . S
C1028 H1053 0.950 . S
C1029 C1028 1.349 . S
C1029 C1045 1.349 . S
C1030 C1028 1.327 . S
C1030 C1049 1.429 . S
C1030 H1054 0.950 . S
C1031 C1048 1.574 1_556 S
C1031 C1050 1.368 . S
C1031 H1055 0.949 . S
H1032 C1036 0.949 . S
C1033 C1034 1.349 . S
C1033 C1035 1.327 . S
C1033 H1056 0.950 . S
C1034 C1033 1.349 . S
C1034 C1046 1.349 . S
C1035 C1033 1.327 . S
C1035 C1051 1.429 . S
C1035 H1057 0.950 . S
C1036 H1032 0.949 . S
C1036 C1044 1.574 1_554 S
C1036 C1052 1.368 . S
H1037 C1045 0.950 . S
H1038 C1043 0.950 . S
H1039 C1044 0.949 . S
H1040 C1046 0.950 . S
H1041 C1047 0.950 . S
H1042 C1048 0.949 . S
C1043 H1038 0.950 . S
C1043 C1045 1.327 . S
C1043 C1049 1.429 . S
C1044 C1036 1.574 1_556 S
C1044 H1039 0.949 . S
C1044 C1050 1.368 . S
C1045 C1029 1.349 . S
C1045 H1037 0.950 . S
C1045 C1043 1.327 . S
C1046 C1034 1.349 . S
C1046 H1040 0.950 . S
C1046 C1047 1.327 . S
C1047 H1041 0.950 . S
C1047 C1046 1.327 . S
C1047 C1051 1.429 . S
C1048 C1031 1.574 1_554 S
C1048 H1042 0.949 . S
C1048 C1052 1.368 . S
C1049 C1030 1.429 . S
C1049 C1043 1.429 . S
C1049 C1050 1.523 . S
C1050 C1031 1.368 . S
C1050 C1044 1.368 . S
C1050 C1049 1.523 . S
C1051 C1035 1.429 . S
C1051 C1047 1.429 . S
C1051 C1052 1.523 . S
C1052 C1036 1.368 . S
C1052 C1048 1.368 . S
C1052 C1051 1.523 . S
H1053 C1028 0.950 . S
H1054 C1030 0.950 . S
H1055 C1031 0.949 . S
H1056 C1033 0.950 . S
H1057 C1035 0.950 . S
C1058 C1059 1.349 . S
C1058 C1060 1.327 . S
C1058 H1083 0.950 . S
C1059 C1058 1.349 . S
C1059 C1075 1.349 . S
C1060 C1058 1.327 . S
C1060 C1079 1.429 . S
C1060 H1084 0.950 . S
C1061 C1078 1.574 . S
C1061 C1080 1.368 . S
C1061 H1085 0.949 . S
H1062 C1066 0.949 . S
C1063 C1064 1.349 . S
C1063 C1065 1.327 . S
C1063 H1086 0.950 . S
C1064 C1063 1.349 . S
C1064 C1076 1.349 . S
C1065 C1063 1.327 . S
C1065 C1081 1.429 . S
C1065 H1087 0.950 . S
C1066 H1062 0.949 . S
C1066 C1074 1.574 . S
C1066 C1082 1.368 . S
H1067 C1075 0.950 . S
H1068 C1073 0.950 . S
H1069 C1074 0.949 . S
H1070 C1076 0.950 . S
H1071 C1077 0.950 . S
H1072 C1078 0.949 . S
C1073 H1068 0.950 . S
C1073 C1075 1.327 . S
C1073 C1079 1.429 . S
C1074 C1066 1.574 . S
C1074 H1069 0.949 . S
C1074 C1080 1.368 . S
C1075 C1059 1.349 . S
C1075 H1067 0.950 . S
C1075 C1073 1.327 . S
C1076 C1064 1.349 . S
C1076 H1070 0.950 . S
C1076 C1077 1.327 . S
C1077 H1071 0.950 . S
C1077 C1076 1.327 . S
C1077 C1081 1.429 . S
C1078 C1061 1.574 . S
C1078 H1072 0.949 . S
C1078 C1082 1.368 . S
C1079 C1060 1.429 . S
C1079 C1073 1.429 . S
C1079 C1080 1.523 . S
C1080 C1061 1.368 . S
C1080 C1074 1.368 . S
C1080 C1079 1.523 . S
C1081 C1065 1.429 . S
C1081 C1077 1.429 . S
C1081 C1082 1.523 . S
C1082 C1066 1.368 . S
C1082 C1078 1.368 . S
C1082 C1081 1.523 . S
H1083 C1058 0.950 . S
H1084 C1060 0.950 . S
H1085 C1061 0.949 . S
H1086 C1063 0.950 . S
H1087 C1065 0.950 . S
C1088 C1089 1.349 . S
C1088 C1090 1.327 . S
C1088 H1113 0.950 . S
C1089 C1088 1.349 . S
C1089 C1105 1.349 . S
C1090 C1088 1.327 . S
C1090 C1109 1.429 . S
C1090 H1114 0.950 . S
C1091 C1108 1.574 . S
C1091 C1110 1.368 . S
C1091 H1115 0.949 . S
H1092 C1096 0.949 . S
C1093 C1094 1.349 . S
C1093 C1095 1.327 . S
C1093 H1116 0.950 . S
C1094 C1093 1.349 . S
C1094 C1106 1.349 . S
C1095 C1093 1.327 . S
C1095 C1111 1.429 . S
C1095 H1117 0.950 . S
C1096 H1092 0.949 . S
C1096 C1104 1.574 . S
C1096 C1112 1.368 . S
H1097 C1105 0.950 . S
H1098 C1103 0.950 . S
H1099 C1104 0.949 . S
H1100 C1106 0.950 . S
H1101 C1107 0.950 . S
H1102 C1108 0.949 . S
C1103 H1098 0.950 . S
C1103 C1105 1.327 . S
C1103 C1109 1.429 . S
C1104 C1096 1.574 . S
C1104 H1099 0.949 . S
C1104 C1110 1.368 . S
C1105 C1089 1.349 . S
C1105 H1097 0.950 . S
C1105 C1103 1.327 . S
C1106 C1094 1.349 . S
C1106 H1100 0.950 . S
C1106 C1107 1.327 . S
C1107 H1101 0.950 . S
C1107 C1106 1.327 . S
C1107 C1111 1.429 . S
C1108 C1091 1.574 . S
C1108 H1102 0.949 . S
C1108 C1112 1.368 . S
C1109 C1090 1.429 . S
C1109 C1103 1.429 . S
C1109 C1110 1.523 . S
C1110 C1091 1.368 . S
C1110 C1104 1.368 . S
C1110 C1109 1.523 . S
C1111 C1095 1.429 . S
C1111 C1107 1.429 . S
C1111 C1112 1.523 . S
C1112 C1096 1.368 . S
C1112 C1108 1.368 . S
C1112 C1111 1.523 . S
H1113 C1088 0.950 . S
H1114 C1090 0.950 . S
H1115 C1091 0.949 . S
H1116 C1093 0.950 . S
H1117 C1095 0.950 . S
C1118 C1119 1.349 . S
C1118 C1120 1.327 . S
C1118 H1143 0.950 . S
C1119 C1118 1.349 . S
C1119 C1135 1.349 . S
C1120 C1118 1.327 . S
C1120 C1139 1.429 . S
C1120 H1144 0.950 . S
C1121 C1138 1.574 . S
C1121 C1140 1.368 . S
C1121 H1145 0.949 . S
H1122 C1126 0.949 . S
C1123 C1124 1.349 . S
C1123 C1125 1.327 . S
C1123 H1146 0.950 . S
C1124 C1123 1.349 . S
C1124 C1136 1.349 . S
C1125 C1123 1.327 . S
C1125 C1141 1.429 . S
C1125 H1147 0.950 . S
C1126 H1122 0.949 . S
C1126 C1134 1.574 . S
C1126 C1142 1.368 . S
H1127 C1135 0.950 . S
H1128 C1133 0.950 . S
H1129 C1134 0.949 . S
H1130 C1136 0.950 . S
H1131 C1137 0.950 . S
H1132 C1138 0.949 . S
C1133 H1128 0.950 . S
C1133 C1135 1.327 . S
C1133 C1139 1.429 . S
C1134 C1126 1.574 . S
C1134 H1129 0.949 . S
C1134 C1140 1.368 . S
C1135 C1119 1.349 . S
C1135 H1127 0.950 . S
C1135 C1133 1.327 . S
C1136 C1124 1.349 . S
C1136 H1130 0.950 . S
C1136 C1137 1.327 . S
C1137 H1131 0.950 . S
C1137 C1136 1.327 . S
C1137 C1141 1.429 . S
C1138 C1121 1.574 . S
C1138 H1132 0.949 . S
C1138 C1142 1.368 . S
C1139 C1120 1.429 . S
C1139 C1133 1.429 . S
C1139 C1140 1.523 . S
C1140 C1121 1.368 . S
C1140 C1134 1.368 . S
C1140 C1139 1.523 . S
C1141 C1125 1.429 . S
C1141 C1137 1.429 . S
C1141 C1142 1.523 . S
C1142 C1126 1.368 . S
C1142 C1138 1.368 . S
C1142 C1141 1.523 . S
H1143 C1118 0.950 . S
H1144 C1120 0.950 . S
H1145 C1121 0.949 . S
H1146 C1123 0.950 . S
H1147 C1125 0.950 . S
C1148 C1149 1.349 . S
C1148 C1150 1.327 . S
C1148 H1173 0.950 . S
C1149 C1148 1.349 . S
C1149 C1165 1.349 . S
C1150 C1148 1.327 . S
C1150 C1169 1.429 . S
C1150 H1174 0.950 . S
C1151 C1168 1.574 . S
C1151 C1170 1.368 . S
C1151 H1175 0.949 . S
H1152 C1156 0.949 . S
C1153 C1154 1.349 . S
C1153 C1155 1.327 . S
C1153 H1176 0.950 . S
C1154 C1153 1.349 . S
C1154 C1166 1.349 . S
C1155 C1153 1.327 . S
C1155 C1171 1.429 . S
C1155 H1177 0.950 . S
C1156 H1152 0.949 . S
C1156 C1164 1.574 . S
C1156 C1172 1.368 . S
H1157 C1165 0.950 . S
H1158 C1163 0.950 . S
H1159 C1164 0.949 . S
H1160 C1166 0.950 . S
H1161 C1167 0.950 . S
H1162 C1168 0.949 . S
C1163 H1158 0.950 . S
C1163 C1165 1.327 . S
C1163 C1169 1.429 . S
C1164 C1156 1.574 . S
C1164 H1159 0.949 . S
C1164 C1170 1.368 . S
C1165 C1149 1.349 . S
C1165 H1157 0.950 . S
C1165 C1163 1.327 . S
C1166 C1154 1.349 . S
C1166 H1160 0.950 . S
C1166 C1167 1.327 . S
C1167 H1161 0.950 . S
C1167 C1166 1.327 . S
C1167 C1171 1.429 . S
C1168 C1151 1.574 . S
C1168 H1162 0.949 . S
C1168 C1172 1.368 . S
C1169 C1150 1.429 . S
C1169 C1163 1.429 . S
C1169 C1170 1.523 . S
C1170 C1151 1.368 . S
C1170 C1164 1.368 . S
C1170 C1169 1.523 . S
C1171 C1155 1.429 . S
C1171 C1167 1.429 . S
C1171 C1172 1.523 . S
C1172 C1156 1.368 . S
C1172 C1168 1.368 . S
C1172 C1171 1.523 . S
H1173 C1148 0.950 . S
H1174 C1150 0.950 . S
H1175 C1151 0.949 . S
H1176 C1153 0.950 . S
H1177 C1155 0.950 . S
C1178 C1179 1.349 . S
C1178 C1180 1.327 . S
C1178 H1203 0.950 . S
C1179 C1178 1.349 . S
C1179 C1195 1.349 . S
C1180 C1178 1.327 . S
C1180 C1199 1.429 . S
C1180 H1204 0.950 . S
C1181 C1198 1.574 . S
C1181 C1200 1.368 . S
C1181 H1205 0.949 . S
H1182 C1186 0.949 . S
C1183 C1184 1.349 . S
C1183 C1185 1.327 . S
C1183 H1206 0.950 . S
C1184 C1183 1.349 . S
C1184 C1196 1.349 . S
C1185 C1183 1.327 . S
C1185 C1201 1.429 . S
C1185 H1207 0.950 . S
C1186 H1182 0.949 . S
C1186 C1194 1.574 . S
C1186 C1202 1.368 . S
H1187 C1195 0.950 . S
H1188 C1193 0.950 . S
H1189 C1194 0.949 . S
H1190 C1196 0.950 . S
H1191 C1197 0.950 . S
H1192 C1198 0.949 . S
C1193 H1188 0.950 . S
C1193 C1195 1.327 . S
C1193 C1199 1.429 . S
C1194 C1186 1.574 . S
C1194 H1189 0.949 . S
C1194 C1200 1.368 . S
C1195 C1179 1.349 . S
C1195 H1187 0.950 . S
C1195 C1193 1.327 . S
C1196 C1184 1.349 . S
C1196 H1190 0.950 . S
C1196 C1197 1.327 . S
C1197 H1191 0.950 . S
C1197 C1196 1.327 . S
C1197 C1201 1.429 . S
C1198 C1181 1.574 . S
C1198 H1192 0.949 . S
C1198 C1202 1.368 . S
C1199 C1180 1.429 . S
C1199 C1193 1.429 . S
C1199 C1200 1.523 . S
C1200 C1181 1.368 . S
C1200 C1194 1.368 . S
C1200 C1199 1.523 . S
C1201 C1185 1.429 . S
C1201 C1197 1.429 . S
C1201 C1202 1.523 . S
C1202 C1186 1.368 . S
C1202 C1198 1.368 . S
C1202 C1201 1.523 . S
H1203 C1178 0.950 . S
H1204 C1180 0.950 . S
H1205 C1181 0.949 . S
H1206 C1183 0.950 . S
H1207 C1185 0.950 . S
C1208 C1209 1.349 . S
C1208 C1210 1.327 . S
C1208 H1233 0.950 . S
C1209 C1208 1.349 . S
C1209 C1225 1.349 . S
C1210 C1208 1.327 . S
C1210 C1229 1.429 . S
C1210 H1234 0.950 . S
C1211 C1228 1.574 . S
C1211 C1230 1.368 . S
C1211 H1235 0.949 . S
H1212 C1216 0.949 . S
C1213 C1214 1.349 . S
C1213 C1215 1.327 . S
C1213 H1236 0.950 . S
C1214 C1213 1.349 . S
C1214 C1226 1.349 . S
C1215 C1213 1.327 . S
C1215 C1231 1.429 . S
C1215 H1237 0.950 . S
C1216 H1212 0.949 . S
C1216 C1224 1.574 . S
C1216 C1232 1.368 . S
H1217 C1225 0.950 . S
H1218 C1223 0.950 . S
H1219 C1224 0.949 . S
H1220 C1226 0.950 . S
H1221 C1227 0.950 . S
H1222 C1228 0.949 . S
C1223 H1218 0.950 . S
C1223 C1225 1.327 . S
C1223 C1229 1.429 . S
C1224 C1216 1.574 . S
C1224 H1219 0.949 . S
C1224 C1230 1.368 . S
C1225 C1209 1.349 . S
C1225 H1217 0.950 . S
C1225 C1223 1.327 . S
C1226 C1214 1.349 . S
C1226 H1220 0.950 . S
C1226 C1227 1.327 . S
C1227 H1221 0.950 . S
C1227 C1226 1.327 . S
C1227 C1231 1.429 . S
C1228 C1211 1.574 . S
C1228 H1222 0.949 . S
C1228 C1232 1.368 . S
C1229 C1210 1.429 . S
C1229 C1223 1.429 . S
C1229 C1230 1.523 . S
C1230 C1211 1.368 . S
C1230 C1224 1.368 . S
C1230 C1229 1.523 . S
C1231 C1215 1.429 . S
C1231 C1227 1.429 . S
C1231 C1232 1.523 . S
C1232 C1216 1.368 . S
C1232 C1228 1.368 . S
C1232 C1231 1.523 . S
H1233 C1208 0.950 . S
H1234 C1210 0.950 . S
H1235 C1211 0.949 . S
H1236 C1213 0.950 . S
H1237 C1215 0.950 . S
C1238 C1239 1.349 . S
C1238 C1240 1.327 . S
C1238 H1263 0.950 . S
C1239 C1238 1.349 . S
C1239 C1255 1.349 . S
C1240 C1238 1.327 . S
C1240 C1259 1.429 . S
C1240 H1264 0.950 . S
C1241 C1258 1.574 . S
C1241 C1260 1.368 . S
C1241 H1265 0.949 . S
H1242 C1246 0.949 . S
C1243 C1244 1.349 . S
C1243 C1245 1.327 . S
C1243 H1266 0.950 . S
C1244 C1243 1.349 . S
C1244 C1256 1.349 . S
C1245 C1243 1.327 . S
C1245 C1261 1.429 . S
C1245 H1267 0.950 . S
C1246 H1242 0.949 . S
C1246 C1254 1.574 . S
C1246 C1262 1.368 . S
H1247 C1255 0.950 . S
H1248 C1253 0.950 . S
H1249 C1254 0.949 . S
H1250 C1256 0.950 . S
H1251 C1257 0.950 . S
H1252 C1258 0.949 . S
C1253 H1248 0.950 . S
C1253 C1255 1.327 . S
C1253 C1259 1.429 . S
C1254 C1246 1.574 . S
C1254 H1249 0.949 . S
C1254 C1260 1.368 . S
C1255 C1239 1.349 . S
C1255 H1247 0.950 . S
C1255 C1253 1.327 . S
C1256 C1244 1.349 . S
C1256 H1250 0.950 . S
C1256 C1257 1.327 . S
C1257 H1251 0.950 . S
C1257 C1256 1.327 . S
C1257 C1261 1.429 . S
C1258 C1241 1.574 . S
C1258 H1252 0.949 . S
C1258 C1262 1.368 . S
C1259 C1240 1.429 . S
C1259 C1253 1.429 . S
C1259 C1260 1.523 . S
C1260 C1241 1.368 . S
C1260 C1254 1.368 . S
C1260 C1259 1.523 . S
C1261 C1245 1.429 . S
C1261 C1257 1.429 . S
C1261 C1262 1.523 . S
C1262 C1246 1.368 . S
C1262 C1258 1.368 . S
C1262 C1261 1.523 . S
H1263 C1238 0.950 . S
H1264 C1240 0.950 . S
H1265 C1241 0.949 . S
H1266 C1243 0.950 . S
H1267 C1245 0.950 . S
C1268 C1269 1.349 . S
C1268 C1270 1.327 . S
C1268 H1293 0.950 . S
C1269 C1268 1.349 . S
C1269 C1285 1.349 . S
C1270 C1268 1.327 . S
C1270 C1289 1.429 . S
C1270 H1294 0.950 . S
C1271 C1288 1.574 . S
C1271 C1290 1.368 . S
C1271 H1295 0.949 . S
H1272 C1276 0.949 . S
C1273 C1274 1.349 . S
C1273 C1275 1.327 . S
C1273 H1296 0.950 . S
C1274 C1273 1.349 . S
C1274 C1286 1.349 . S
C1275 C1273 1.327 . S
C1275 C1291 1.429 . S
C1275 H1297 0.950 . S
C1276 H1272 0.949 . S
C1276 C1284 1.574 . S
C1276 C1292 1.368 . S
H1277 C1285 0.950 . S
H1278 C1283 0.950 . S
H1279 C1284 0.949 . S
H1280 C1286 0.950 . S
H1281 C1287 0.950 . S
H1282 C1288 0.949 . S
C1283 H1278 0.950 . S
C1283 C1285 1.327 . S
C1283 C1289 1.429 . S
C1284 C1276 1.574 . S
C1284 H1279 0.949 . S
C1284 C1290 1.368 . S
C1285 C1269 1.349 . S
C1285 H1277 0.950 . S
C1285 C1283 1.327 . S
C1286 C1274 1.349 . S
C1286 H1280 0.950 . S
C1286 C1287 1.327 . S
C1287 H1281 0.950 . S
C1287 C1286 1.327 . S
C1287 C1291 1.429 . S
C1288 C1271 1.574 . S
C1288 H1282 0.949 . S
C1288 C1292 1.368 . S
C1289 C1270 1.429 . S
C1289 C1283 1.429 . S
C1289 C1290 1.523 . S
C1290 C1271 1.368 . S
C1290 C1284 1.368 . S
C1290 C1289 1.523 . S
C1291 C1275 1.429 . S
C1291 C1287 1.429 . S
C1291 C1292 1.523 . S
C1292 C1276 1.368 . S
C1292 C1288 1.368 . S
C1292 C1291 1.523 . S
H1293 C1268 0.950 . S
H1294 C1270 0.950 . S
H1295 C1271 0.949 . S
H1296 C1273 0.950 . S
H1297 C1275 0.950 . S
C1298 C1299 1.349 . S
C1298 C1300 1.327 . S
C1298 H1323 0.950 . S
C1299 C1298 1.349 . S
C1299 C1315 1.349 . S
C1300 C1298 1.327 . S
C1300 C1319 1.429 . S
C1300 H1324 0.950 . S
C1301 C1318 1.574 . S
C1301 C1320 1.368 . S
C1301 H1325 0.949 . S
H1302 C1306 0.949 . S
C1303 C1304 1.349 . S
C1303 C1305 1.327 . S
C1303 H1326 0.950 . S
C1304 C1303 1.349 . S
C1304 C1316 1.349 . S
C1305 C1303 1.327 . S
C1305 C1321 1.429 . S
C1305 H1327 0.950 . S
C1306 H1302 0.949 . S
C1306 C1314 1.574 . S
C1306 C1322 1.368 . S
H1307 C1315 0.950 . S
H1308 C1313 0.950 . S
H1309 C1314 0.949 . S
H1310 C1316 0.950 . S
H1311 C1317 0.950 . S
H1312 C1318 0.949 . S
C1313 H1308 0.950 . S
C1313 C1315 1.327 . S
C1313 C1319 1.429 . S
C1314 C1306 1.574 . S
C1314 H1309 0.949 . S
C1314 C1320 1.368 . S
C1315 C1299 1.349 . S
C1315 H1307 0.950 . S
C1315 C1313 1.327 . S
C1316 C1304 1.349 . S
C1316 H1310 0.950 . S
C1316 C1317 1.327 . S
C1317 H1311 0.950 . S
C1317 C1316 1.327 . S
C1317 C1321 1.429 . S
C1318 C1301 1.574 . S
C1318 H1312 0.949 . S
C1318 C1322 1.368 . S
C1319 C1300 1.429 . S
C1319 C1313 1.429 . S
C1319 C1320 1.523 . S
C1320 C1301 1.368 . S
C1320 C1314 1.368 . S
C1320 C1319 1.523 . S
C1321 C1305 1.429 . S
C1321 C1317 1.429 . S
C1321 C1322 1.523 . S
C1322 C1306 1.368 . S
C1322 C1318 1.368 . S
C1322 C1321 1.523 . S
H1323 C1298 0.950 . S
H1324 C1300 0.950 . S
H1325 C1301 0.949 . S
H1326 C1303 0.950 . S
H1327 C1305 0.950 . S
C1328 C1329 1.349 . S
C1328 C1330 1.327 . S
C1328 H1353 0.950 . S
C1329 C1328 1.349 . S
C1329 C1345 1.349 . S
C1330 C1328 1.327 . S
C1330 C1349 1.429 . S
C1330 H1354 0.950 . S
C1331 C1348 1.574 . S
C1331 C1350 1.368 . S
C1331 H1355 0.949 . S
H1332 C1336 0.949 . S
C1333 C1334 1.349 . S
C1333 C1335 1.327 . S
C1333 H1356 0.950 . S
C1334 C1333 1.349 . S
C1334 C1346 1.349 . S
C1335 C1333 1.327 . S
C1335 C1351 1.429 . S
C1335 H1357 0.950 . S
C1336 H1332 0.949 . S
C1336 C1344 1.574 . S
C1336 C1352 1.368 . S
H1337 C1345 0.950 . S
H1338 C1343 0.950 . S
H1339 C1344 0.949 . S
H1340 C1346 0.950 . S
H1341 C1347 0.950 . S
H1342 C1348 0.949 . S
C1343 H1338 0.950 . S
C1343 C1345 1.327 . S
C1343 C1349 1.429 . S
C1344 C1336 1.574 . S
C1344 H1339 0.949 . S
C1344 C1350 1.368 . S
C1345 C1329 1.349 . S
C1345 H1337 0.950 . S
C1345 C1343 1.327 . S
C1346 C1334 1.349 . S
C1346 H1340 0.950 . S
C1346 C1347 1.327 . S
C1347 H1341 0.950 . S
C1347 C1346 1.327 . S
C1347 C1351 1.429 . S
C1348 C1331 1.574 . S
C1348 H1342 0.949 . S
C1348 C1352 1.368 . S
C1349 C1330 1.429 . S
C1349 C1343 1.429 . S
C1349 C1350 1.523 . S
C1350 C1331 1.368 . S
C1350 C1344 1.368 . S
C1350 C1349 1.523 . S
C1351 C1335 1.429 . S
C1351 C1347 1.429 . S
C1351 C1352 1.523 . S
C1352 C1336 1.368 . S
C1352 C1348 1.368 . S
C1352 C1351 1.523 . S
H1353 C1328 0.950 . S
H1354 C1330 0.950 . S
H1355 C1331 0.949 . S
H1356 C1333 0.950 . S
H1357 C1335 0.950 . S
C1358 C1359 1.349 . S
C1358 C1360 1.327 . S
C1358 H1383 0.950 . S
C1359 C1358 1.349 . S
C1359 C1375 1.349 . S
C1360 C1358 1.327 . S
C1360 C1379 1.429 . S
C1360 H1384 0.950 . S
C1361 C1378 1.574 . S
C1361 C1380 1.368 . S
C1361 H1385 0.949 . S
H1362 C1366 0.949 . S
C1363 C1364 1.349 . S
C1363 C1365 1.327 . S
C1363 H1386 0.950 . S
C1364 C1363 1.349 . S
C1364 C1376 1.349 . S
C1365 C1363 1.327 . S
C1365 C1381 1.429 . S
C1365 H1387 0.950 . S
C1366 H1362 0.949 . S
C1366 C1374 1.574 . S
C1366 C1382 1.368 . S
H1367 C1375 0.950 . S
H1368 C1373 0.950 . S
H1369 C1374 0.949 . S
H1370 C1376 0.950 . S
H1371 C1377 0.950 . S
H1372 C1378 0.949 . S
C1373 H1368 0.950 . S
C1373 C1375 1.327 . S
C1373 C1379 1.429 . S
C1374 C1366 1.574 . S
C1374 H1369 0.949 . S
C1374 C1380 1.368 . S
C1375 C1359 1.349 . S
C1375 H1367 0.950 . S
C1375 C1373 1.327 . S
C1376 C1364 1.349 . S
C1376 H1370 0.950 . S
C1376 C1377 1.327 . S
C1377 H1371 0.950 . S
C1377 C1376 1.327 . S
C1377 C1381 1.429 . S
C1378 C1361 1.574 . S
C1378 H1372 0.949 . S
C1378 C1382 1.368 . S
C1379 C1360 1.429 . S
C1379 C1373 1.429 . S
C1379 C1380 1.523 . S
C1380 C1361 1.368 . S
C1380 C1374 1.368 . S
C1380 C1379 1.523 . S
C1381 C1365 1.429 . S
C1381 C1377 1.429 . S
C1381 C1382 1.523 . S
C1382 C1366 1.368 . S
C1382 C1378 1.368 . S
C1382 C1381 1.523 . S
H1383 C1358 0.950 . S
H1384 C1360 0.950 . S
H1385 C1361 0.949 . S
H1386 C1363 0.950 . S
H1387 C1365 0.950 . S
C1388 C1389 1.349 . S
C1388 C1390 1.327 . S
C1388 H1413 0.950 . S
C1389 C1388 1.349 . S
C1389 C1405 1.349 . S
C1390 C1388 1.327 . S
C1390 C1409 1.429 . S
C1390 H1414 0.950 . S
C1391 C1408 1.574 . S
C1391 C1410 1.368 . S
C1391 H1415 0.949 . S
H1392 C1396 0.949 . S
C1393 C1394 1.349 . S
C1393 C1395 1.327 . S
C1393 H1416 0.950 . S
C1394 C1393 1.349 . S
C1394 C1406 1.349 . S
C1395 C1393 1.327 . S
C1395 C1411 1.429 . S
C1395 H1417 0.950 . S
C1396 H1392 0.949 . S
C1396 C1404 1.574 . S
C1396 C1412 1.368 . S
H1397 C1405 0.950 . S
H1398 C1403 0.950 . S
H1399 C1404 0.949 . S
H1400 C1406 0.950 . S
H1401 C1407 0.950 . S
H1402 C1408 0.949 . S
C1403 H1398 0.950 . S
C1403 C1405 1.327 . S
C1403 C1409 1.429 . S
C1404 C1396 1.574 . S
C1404 H1399 0.949 . S
C1404 C1410 1.368 . S
C1405 C1389 1.349 . S
C1405 H1397 0.950 . S
C1405 C1403 1.327 . S
C1406 C1394 1.349 . S
C1406 H1400 0.950 . S
C1406 C1407 1.327 . S
C1407 H1401 0.950 . S
C1407 C1406 1.327 . S
C1407 C1411 1.429 . S
C1408 C1391 1.574 . S
C1408 H1402 0.949 . S
C1408 C1412 1.368 . S
C1409 C1390 1.429 . S
C1409 C1403 1.429 . S
C1409 C1410 1.523 . S
C1410 C1391 1.368 . S
C1410 C1404 1.368 . S
C1410 C1409 1.523 . S
C1411 C1395 1.429 . S
C1411 C1407 1.429 . S
C1411 C1412 1.523 . S
C1412 C1396 1.368 . S
C1412 C1408 1.368 . S
C1412 C1411 1.523 . S
H1413 C1388 0.950 . S
H1414 C1390 0.950 . S
H1415 C1391 0.949 . S
H1416 C1393 0.950 . S
H1417 C1395 0.950 . S
C1418 C1419 1.349 . S
C1418 C1420 1.327 . S
C1418 H1443 0.950 . S
C1419 C1418 1.349 . S
C1419 C1435 1.349 . S
C1420 C1418 1.327 . S
C1420 C1439 1.429 . S
C1420 H1444 0.950 . S
C1421 C1438 1.574 . S
C1421 C1440 1.368 . S
C1421 H1445 0.949 . S
H1422 C1426 0.949 . S
C1423 C1424 1.349 . S
C1423 C1425 1.327 . S
C1423 H1446 0.950 . S
C1424 C1423 1.349 . S
C1424 C1436 1.349 . S
C1425 C1423 1.327 . S
C1425 C1441 1.429 . S
C1425 H1447 0.950 . S
C1426 H1422 0.949 . S
C1426 C1434 1.574 . S
C1426 C1442 1.368 . S
H1427 C1435 0.950 . S
H1428 C1433 0.950 . S
H1429 C1434 0.949 . S
H1430 C1436 0.950 . S
H1431 C1437 0.950 . S
H1432 C1438 0.949 . S
C1433 H1428 0.950 . S
C1433 C1435 1.327 . S
C1433 C1439 1.429 . S
C1434 C1426 1.574 . S
C1434 H1429 0.949 . S
C1434 C1440 1.368 . S
C1435 C1419 1.349 . S
C1435 H1427 0.950 . S
C1435 C1433 1.327 . S
C1436 C1424 1.349 . S
C1436 H1430 0.950 . S
C1436 C1437 1.327 . S
C1437 H1431 0.950 . S
C1437 C1436 1.327 . S
C1437 C1441 1.429 . S
C1438 C1421 1.574 . S
C1438 H1432 0.949 . S
C1438 C1442 1.368 . S
C1439 C1420 1.429 . S
C1439 C1433 1.429 . S
C1439 C1440 1.523 . S
C1440 C1421 1.368 . S
C1440 C1434 1.368 . S
C1440 C1439 1.523 . S
C1441 C1425 1.429 . S
C1441 C1437 1.429 . S
C1441 C1442 1.523 . S
C1442 C1426 1.368 . S
C1442 C1438 1.368 . S
C1442 C1441 1.523 . S
H1443 C1418 0.950 . S
H1444 C1420 0.950 . S
H1445 C1421 0.949 . S
H1446 C1423 0.950 . S
H1447 C1425 0.950 . S
C1448 C1449 1.349 . S
C1448 C1450 1.327 . S
C1448 H1473 0.950 . S
C1449 C1448 1.349 . S
C1449 C1465 1.349 . S
C1450 C1448 1.327 . S
C1450 C1469 1.429 . S
C1450 H1474 0.950 . S
C1451 C1468 1.574 . S
C1451 C1470 1.368 . S
C1451 H1475 0.949 . S
H1452 C1456 0.949 . S
C1453 C1454 1.349 . S
C1453 C1455 1.327 . S
C1453 H1476 0.950 . S
C1454 C1453 1.349 . S
C1454 C1466 1.349 . S
C1455 C1453 1.327 . S
C1455 C1471 1.429 . S
C1455 H1477 0.950 . S
C1456 H1452 0.949 . S
C1456 C1464 1.574 . S
C1456 C1472 1.368 . S
H1457 C1465 0.950 . S
H1458 C1463 0.950 . S
H1459 C1464 0.949 . S
H1460 C1466 0.950 . S
H1461 C1467 0.950 . S
H1462 C1468 0.949 . S
C1463 H1458 0.950 . S
C1463 C1465 1.327 . S
C1463 C1469 1.429 . S
C1464 C1456 1.574 . S
C1464 H1459 0.949 . S
C1464 C1470 1.368 . S
C1465 C1449 1.349 . S
C1465 H1457 0.950 . S
C1465 C1463 1.327 . S
C1466 C1454 1.349 . S
C1466 H1460 0.950 . S
C1466 C1467 1.327 . S
C1467 H1461 0.950 . S
C1467 C1466 1.327 . S
C1467 C1471 1.429 . S
C1468 C1451 1.574 . S
C1468 H1462 0.949 . S
C1468 C1472 1.368 . S
C1469 C1450 1.429 . S
C1469 C1463 1.429 . S
C1469 C1470 1.523 . S
C1470 C1451 1.368 . S
C1470 C1464 1.368 . S
C1470 C1469 1.523 . S
C1471 C1455 1.429 . S
C1471 C1467 1.429 . S
C1471 C1472 1.523 . S
C1472 C1456 1.368 . S
C1472 C1468 1.368 . S
C1472 C1471 1.523 . S
H1473 C1448 0.950 . S
H1474 C1450 0.950 . S
H1475 C1451 0.949 . S
H1476 C1453 0.950 . S
H1477 C1455 0.950 . S
C1478 C1479 1.349 . S
C1478 C1480 1.327 . S
C1478 H1503 0.950 . S
C1479 C1478 1.349 . S
C1479 C1495 1.349 . S
C1480 C1478 1.327 . S
C1480 C1499 1.429 . S
C1480 H1504 0.950 . S
C1481 C1498 1.574 . S
C1481 C1500 1.368 . S
C1481 H1505 0.949 . S
H1482 C1486 0.949 . S
C1483 C1484 1.349 . S
C1483 C1485 1.327 . S
C1483 H1506 0.950 . S
C1484 C1483 1.349 . S
C1484 C1496 1.349 . S
C1485 C1483 1.327 . S
C1485 C1501 1.429 . S
C1485 H1507 0.950 . S
C1486 H1482 0.949 . S
C1486 C1494 1.574 . S
C1486 C1502 1.368 . S
H1487 C1495 0.950 . S
H1488 C1493 0.950 . S
H1489 C1494 0.949 . S
H1490 C1496 0.950 . S
H1491 C1497 0.950 . S
H1492 C1498 0.949 . S
C1493 H1488 0.950 . S
C1493 C1495 1.327 . S
C1493 C1499 1.429 . S
C1494 C1486 1.574 . S
C1494 H1489 0.949 . S
C1494 C1500 1.368 . S
C1495 C1479 1.349 . S
C1495 H1487 0.950 . S
C1495 C1493 1.327 . S
C1496 C1484 1.349 . S
C1496 H1490 0.950 . S
C1496 C1497 1.327 . S
C1497 H1491 0.950 . S
C1497 C1496 1.327 . S
C1497 C1501 1.429 . S
C1498 C1481 1.574 . S
C1498 H1492 0.949 . S
C1498 C1502 1.368 . S
C1499 C1480 1.429 . S
C1499 C1493 1.429 . S
C1499 C1500 1.523 . S
C1500 C1481 1.368 . S
C1500 C1494 1.368 . S
C1500 C1499 1.523 . S
C1501 C1485 1.429 . S
C1501 C1497 1.429 . S
C1501 C1502 1.523 . S
C1502 C1486 1.368 . S
C1502 C1498 1.368 . S
C1502 C1501 1.523 . S
H1503 C1478 0.950 . S
H1504 C1480 0.950 . S
H1505 C1481 0.949 . S
H1506 C1483 0.950 . S
H1507 C1485 0.950 . S
C1508 C1509 1.349 . S
C1508 C1510 1.327 . S
C1508 H1533 0.950 . S
C1509 C1508 1.349 . S
C1509 C1525 1.349 . S
C1510 C1508 1.327 . S
C1510 C1529 1.429 . S
C1510 H1534 0.950 . S
C1511 C1528 1.574 . S
C1511 C1530 1.368 . S
C1511 H1535 0.949 . S
H1512 C1516 0.949 . S
C1513 C1514 1.349 . S
C1513 C1515 1.327 . S
C1513 H1536 0.950 . S
C1514 C1513 1.349 . S
C1514 C1526 1.349 . S
C1515 C1513 1.327 . S
C1515 C1531 1.429 . S
C1515 H1537 0.950 . S
C1516 H1512 0.949 . S
C1516 C1524 1.574 . S
C1516 C1532 1.368 . S
H1517 C1525 0.950 . S
H1518 C1523 0.950 . S
H1519 C1524 0.949 . S
H1520 C1526 0.950 . S
H1521 C1527 0.950 . S
H1522 C1528 0.949 . S
C1523 H1518 0.950 . S
C1523 C1525 1.327 . S
C1523 C1529 1.429 . S
C1524 C1516 1.574 . S
C1524 H1519 0.949 . S
C1524 C1530 1.368 . S
C1525 C1509 1.349 . S
C1525 H1517 0.950 . S
C1525 C1523 1.327 . S
C1526 C1514 1.349 . S
C1526 H1520 0.950 . S
C1526 C1527 1.327 . S
C1527 H1521 0.950 . S
C1527 C1526 1.327 . S
C1527 C1531 1.429 . S
C1528 C1511 1.574 . S
C1528 H1522 0.949 . S
C1528 C1532 1.368 . S
C1529 C1510 1.429 . S
C1529 C1523 1.429 . S
C1529 C1530 1.523 . S
C1530 C1511 1.368 . S
C1530 C1524 1.368 . S
C1530 C1529 1.523 . S
C1531 C1515 1.429 . S
C1531 C1527 1.429 . S
C1531 C1532 1.523 . S
C1532 C1516 1.368 . S
C1532 C1528 1.368 . S
C1532 C1531 1.523 . S
H1533 C1508 0.950 . S
H1534 C1510 0.950 . S
H1535 C1511 0.949 . S
H1536 C1513 0.950 . S
H1537 C1515 0.950 . S
C1538 C1539 1.349 . S
C1538 C1540 1.327 . S
C1538 H1563 0.950 . S
C1539 C1538 1.349 . S
C1539 C1555 1.349 . S
C1540 C1538 1.327 . S
C1540 C1559 1.429 . S
C1540 H1564 0.950 . S
C1541 C1558 1.574 . S
C1541 C1560 1.368 . S
C1541 H1565 0.949 . S
H1542 C1546 0.949 . S
C1543 C1544 1.349 . S
C1543 C1545 1.327 . S
C1543 H1566 0.950 . S
C1544 C1543 1.349 . S
C1544 C1556 1.349 . S
C1545 C1543 1.327 . S
C1545 C1561 1.429 . S
C1545 H1567 0.950 . S
C1546 H1542 0.949 . S
C1546 C1554 1.574 . S
C1546 C1562 1.368 . S
H1547 C1555 0.950 . S
H1548 C1553 0.950 . S
H1549 C1554 0.949 . S
H1550 C1556 0.950 . S
H1551 C1557 0.950 . S
H1552 C1558 0.949 . S
C1553 H1548 0.950 . S
C1553 C1555 1.327 . S
C1553 C1559 1.429 . S
C1554 C1546 1.574 . S
C1554 H1549 0.949 . S
C1554 C1560 1.368 . S
C1555 C1539 1.349 . S
C1555 H1547 0.950 . S
C1555 C1553 1.327 . S
C1556 C1544 1.349 . S
C1556 H1550 0.950 . S
C1556 C1557 1.327 . S
C1557 H1551 0.950 . S
C1557 C1556 1.327 . S
C1557 C1561 1.429 . S
C1558 C1541 1.574 . S
C1558 H1552 0.949 . S
C1558 C1562 1.368 . S
C1559 C1540 1.429 . S
C1559 C1553 1.429 . S
C1559 C1560 1.523 . S
C1560 C1541 1.368 . S
C1560 C1554 1.368 . S
C1560 C1559 1.523 . S
C1561 C1545 1.429 . S
C1561 C1557 1.429 . S
C1561 C1562 1.523 . S
C1562 C1546 1.368 . S
C1562 C1558 1.368 . S
C1562 C1561 1.523 . S
H1563 C1538 0.950 . S
H1564 C1540 0.950 . S
H1565 C1541 0.949 . S
H1566 C1543 0.950 . S
H1567 C1545 0.950 . S
C1568 C1569 1.349 . S
C1568 C1570 1.327 . S
C1568 H1593 0.950 . S
C1569 C1568 1.349 . S
C1569 C1585 1.349 . S
C1570 C1568 1.327 . S
C1570 C1589 1.429 1_545 S
C1570 H1594 0.950 . S
C1571 C1588 1.574 . S
C1571 C1590 1.368 . S
C1571 H1595 0.949 . S
H1572 C1576 0.949 . S
C1573 C1574 1.349 . S
C1573 C1575 1.327 . S
C1573 H1596 0.950 . S
C1574 C1573 1.349 . S
C1574 C1586 1.349 . S
C1575 C1573 1.327 . S
C1575 C1591 1.429 . S
C1575 H1597 0.950 . S
C1576 H1572 0.949 . S
C1576 C1584 1.574 . S
C1576 C1592 1.368 . S
H1577 C1585 0.950 . S
H1578 C1583 0.950 . S
H1579 C1584 0.949 . S
H1580 C1586 0.950 . S
H1581 C1587 0.950 . S
H1582 C1588 0.949 . S
C1583 H1578 0.950 . S
C1583 C1585 1.327 1_565 S
C1583 C1589 1.429 . S
C1584 C1576 1.574 . S
C1584 H1579 0.949 . S
C1584 C1590 1.368 . S
C1585 C1569 1.349 . S
C1585 H1577 0.950 . S
C1585 C1583 1.327 1_545 S
C1586 C1574 1.349 . S
C1586 H1580 0.950 . S
C1586 C1587 1.327 . S
C1587 H1581 0.950 . S
C1587 C1586 1.327 . S
C1587 C1591 1.429 . S
C1588 C1571 1.574 . S
C1588 H1582 0.949 . S
C1588 C1592 1.368 . S
C1589 C1570 1.429 1_565 S
C1589 C1583 1.429 . S
C1589 C1590 1.523 . S
C1590 C1571 1.368 . S
C1590 C1584 1.368 . S
C1590 C1589 1.523 . S
C1591 C1575 1.429 . S
C1591 C1587 1.429 . S
C1591 C1592 1.523 . S
C1592 C1576 1.368 . S
C1592 C1588 1.368 . S
C1592 C1591 1.523 . S
H1593 C1568 0.950 . S
H1594 C1570 0.950 . S
H1595 C1571 0.949 . S
H1596 C1573 0.950 . S
H1597 C1575 0.950 . S
C1598 C1599 1.349 . S
C1598 C1600 1.327 . S
C1598 H1623 0.950 . S
C1599 C1598 1.349 . S
C1599 C1615 1.349 . S
C1600 C1598 1.327 . S
C1600 C1619 1.429 . S
C1600 H1624 0.950 . S
C1601 C1618 1.574 . S
C1601 C1620 1.368 . S
C1601 H1625 0.949 . S
H1602 C1606 0.949 . S
C1603 C1604 1.349 . S
C1603 C1605 1.327 . S
C1603 H1626 0.950 . S
C1604 C1603 1.349 . S
C1604 C1616 1.349 . S
C1605 C1603 1.327 . S
C1605 C1621 1.429 . S
C1605 H1627 0.950 . S
C1606 H1602 0.949 . S
C1606 C1614 1.574 . S
C1606 C1622 1.368 . S
H1607 C1615 0.950 . S
H1608 C1613 0.950 . S
H1609 C1614 0.949 . S
H1610 C1616 0.950 . S
H1611 C1617 0.950 . S
H1612 C1618 0.949 . S
C1613 H1608 0.950 . S
C1613 C1615 1.327 . S
C1613 C1619 1.429 . S
C1614 C1606 1.574 . S
C1614 H1609 0.949 . S
C1614 C1620 1.368 . S
C1615 C1599 1.349 . S
C1615 H1607 0.950 . S
C1615 C1613 1.327 . S
C1616 C1604 1.349 . S
C1616 H1610 0.950 . S
C1616 C1617 1.327 . S
C1617 H1611 0.950 . S
C1617 C1616 1.327 . S
C1617 C1621 1.429 . S
C1618 C1601 1.574 . S
C1618 H1612 0.949 . S
C1618 C1622 1.368 . S
C1619 C1600 1.429 . S
C1619 C1613 1.429 . S
C1619 C1620 1.523 . S
C1620 C1601 1.368 . S
C1620 C1614 1.368 . S
C1620 C1619 1.523 . S
C1621 C1605 1.429 . S
C1621 C1617 1.429 . S
C1621 C1622 1.523 . S
C1622 C1606 1.368 . S
C1622 C1618 1.368 . S
C1622 C1621 1.523 . S
H1623 C1598 0.950 . S
H1624 C1600 0.950 . S
H1625 C1601 0.949 . S
H1626 C1603 0.950 . S
H1627 C1605 0.950 . S
C1628 C1629 1.349 . S
C1628 C1630 1.327 . S
C1628 H1653 0.950 . S
C1629 C1628 1.349 . S
C1629 C1645 1.349 . S
C1630 C1628 1.327 . S
C1630 C1649 1.429 . S
C1630 H1654 0.950 . S
C1631 C1648 1.574 . S
C1631 C1650 1.368 . S
C1631 H1655 0.949 . S
H1632 C1636 0.949 . S
C1633 C1634 1.349 . S
C1633 C1635 1.327 1_655 S
C1633 H1656 0.950 . S
C1634 C1633 1.349 . S
C1634 C1646 1.349 . S
C1635 C1633 1.327 1_455 S
C1635 C1651 1.429 . S
C1635 H1657 0.950 . S
C1636 H1632 0.949 . S
C1636 C1644 1.574 . S
C1636 C1652 1.368 . S
H1637 C1645 0.950 . S
H1638 C1643 0.950 . S
H1639 C1644 0.949 . S
H1640 C1646 0.950 . S
H1641 C1647 0.950 . S
H1642 C1648 0.949 . S
C1643 H1638 0.950 . S
C1643 C1645 1.327 . S
C1643 C1649 1.429 . S
C1644 C1636 1.574 . S
C1644 H1639 0.949 . S
C1644 C1650 1.368 . S
C1645 C1629 1.349 . S
C1645 H1637 0.950 . S
C1645 C1643 1.327 . S
C1646 C1634 1.349 . S
C1646 H1640 0.950 . S
C1646 C1647 1.327 . S
C1647 H1641 0.950 . S
C1647 C1646 1.327 . S
C1647 C1651 1.429 1_655 S
C1648 C1631 1.574 . S
C1648 H1642 0.949 . S
C1648 C1652 1.368 . S
C1649 C1630 1.429 . S
C1649 C1643 1.429 . S
C1649 C1650 1.523 . S
C1650 C1631 1.368 . S
C1650 C1644 1.368 . S
C1650 C1649 1.523 . S
C1651 C1635 1.429 . S
C1651 C1647 1.429 1_455 S
C1651 C1652 1.523 . S
C1652 C1636 1.368 . S
C1652 C1648 1.368 . S
C1652 C1651 1.523 . S
H1653 C1628 0.950 . S
H1654 C1630 0.950 . S
H1655 C1631 0.949 . S
H1656 C1633 0.950 . S
H1657 C1635 0.950 . S
C1658 C1659 1.349 . S
C1658 C1660 1.327 . S
C1658 H1683 0.950 . S
C1659 C1658 1.349 . S
C1659 C1675 1.349 . S
C1660 C1658 1.327 . S
C1660 C1679 1.429 1_565 S
C1660 H1684 0.950 . S
C1661 C1678 1.574 . S
C1661 C1680 1.368 . S
C1661 H1685 0.949 . S
H1662 C1666 0.949 . S
C1663 C1664 1.349 . S
C1663 C1665 1.327 1_455 S
C1663 H1686 0.950 . S
C1664 C1663 1.349 . S
C1664 C1676 1.349 . S
C1665 C1663 1.327 1_655 S
C1665 C1681 1.429 . S
C1665 H1687 0.950 . S
C1666 H1662 0.949 . S
C1666 C1674 1.574 . S
C1666 C1682 1.368 . S
H1667 C1675 0.950 . S
H1668 C1673 0.950 . S
H1669 C1674 0.949 . S
H1670 C1676 0.950 . S
H1671 C1677 0.950 . S
H1672 C1678 0.949 . S
C1673 H1668 0.950 . S
C1673 C1675 1.327 1_545 S
C1673 C1679 1.429 . S
C1674 C1666 1.574 . S
C1674 H1669 0.949 . S
C1674 C1680 1.368 . S
C1675 C1659 1.349 . S
C1675 H1667 0.950 . S
C1675 C1673 1.327 1_565 S
C1676 C1664 1.349 . S
C1676 H1670 0.950 . S
C1676 C1677 1.327 . S
C1677 H1671 0.950 . S
C1677 C1676 1.327 . S
C1677 C1681 1.429 1_455 S
C1678 C1661 1.574 . S
C1678 H1672 0.949 . S
C1678 C1682 1.368 . S
C1679 C1660 1.429 1_545 S
C1679 C1673 1.429 . S
C1679 C1680 1.523 . S
C1680 C1661 1.368 . S
C1680 C1674 1.368 . S
C1680 C1679 1.523 . S
C1681 C1665 1.429 . S
C1681 C1677 1.429 1_655 S
C1681 C1682 1.523 . S
C1682 C1666 1.368 . S
C1682 C1678 1.368 . S
C1682 C1681 1.523 . S
H1683 C1658 0.950 . S
H1684 C1660 0.950 . S
H1685 C1661 0.949 . S
H1686 C1663 0.950 . S
H1687 C1665 0.950 . S
C1688 C1689 1.349 . S
C1688 C1690 1.327 . S
C1688 H1713 0.950 . S
C1689 C1688 1.349 . S
C1689 C1705 1.349 . S
C1690 C1688 1.327 . S
C1690 C1709 1.429 . S
C1690 H1714 0.950 . S
C1691 C1708 1.574 . S
C1691 C1710 1.368 . S
C1691 H1715 0.949 . S
H1692 C1696 0.949 . S
C1693 C1694 1.349 . S
C1693 C1695 1.327 . S
C1693 H1716 0.950 . S
C1694 C1693 1.349 . S
C1694 C1706 1.349 . S
C1695 C1693 1.327 . S
C1695 C1711 1.429 . S
C1695 H1717 0.950 . S
C1696 H1692 0.949 . S
C1696 C1704 1.574 . S
C1696 C1712 1.368 . S
H1697 C1705 0.950 . S
H1698 C1703 0.950 . S
H1699 C1704 0.949 . S
H1700 C1706 0.950 . S
H1701 C1707 0.950 . S
H1702 C1708 0.949 . S
C1703 H1698 0.950 . S
C1703 C1705 1.327 . S
C1703 C1709 1.429 . S
C1704 C1696 1.574 . S
C1704 H1699 0.949 . S
C1704 C1710 1.368 . S
C1705 C1689 1.349 . S
C1705 H1697 0.950 . S
C1705 C1703 1.327 . S
C1706 C1694 1.349 . S
C1706 H1700 0.950 . S
C1706 C1707 1.327 . S
C1707 H1701 0.950 . S
C1707 C1706 1.327 . S
C1707 C1711 1.429 . S
C1708 C1691 1.574 . S
C1708 H1702 0.949 . S
C1708 C1712 1.368 . S
C1709 C1690 1.429 . S
C1709 C1703 1.429 . S
C1709 C1710 1.523 . S
C1710 C1691 1.368 . S
C1710 C1704 1.368 . S
C1710 C1709 1.523 . S
C1711 C1695 1.429 . S
C1711 C1707 1.429 . S
C1711 C1712 1.523 . S
C1712 C1696 1.368 . S
C1712 C1708 1.368 . S
C1712 C1711 1.523 . S
H1713 C1688 0.950 . S
H1714 C1690 0.950 . S
H1715 C1691 0.949 . S
H1716 C1693 0.950 . S
H1717 C1695 0.950 . S
C1718 C1719 1.349 . S
C1718 C1720 1.327 . S
C1718 H1743 0.950 . S
C1719 C1718 1.349 . S
C1719 C1735 1.349 . S
C1720 C1718 1.327 . S
C1720 C1739 1.429 1_455 S
C1720 H1744 0.950 . S
C1721 C1738 1.574 . S
C1721 C1740 1.368 . S
C1721 H1745 0.949 . S
H1722 C1726 0.949 . S
C1723 C1724 1.349 . S
C1723 C1725 1.327 . S
C1723 H1746 0.950 . S
C1724 C1723 1.349 . S
C1724 C1736 1.349 . S
C1725 C1723 1.327 . S
C1725 C1741 1.429 . S
C1725 H1747 0.950 . S
C1726 H1722 0.949 . S
C1726 C1734 1.574 . S
C1726 C1742 1.368 . S
H1727 C1735 0.950 . S
H1728 C1733 0.950 . S
H1729 C1734 0.949 . S
H1730 C1736 0.950 . S
H1731 C1737 0.950 . S
H1732 C1738 0.949 . S
C1733 H1728 0.950 . S
C1733 C1735 1.327 1_655 S
C1733 C1739 1.429 . S
C1734 C1726 1.574 . S
C1734 H1729 0.949 . S
C1734 C1740 1.368 . S
C1735 C1719 1.349 . S
C1735 H1727 0.950 . S
C1735 C1733 1.327 1_455 S
C1736 C1724 1.349 . S
C1736 H1730 0.950 . S
C1736 C1737 1.327 . S
C1737 H1731 0.950 . S
C1737 C1736 1.327 . S
C1737 C1741 1.429 . S
C1738 C1721 1.574 . S
C1738 H1732 0.949 . S
C1738 C1742 1.368 . S
C1739 C1720 1.429 1_655 S
C1739 C1733 1.429 . S
C1739 C1740 1.523 . S
C1740 C1721 1.368 . S
C1740 C1734 1.368 . S
C1740 C1739 1.523 . S
C1741 C1725 1.429 . S
C1741 C1737 1.429 . S
C1741 C1742 1.523 . S
C1742 C1726 1.368 . S
C1742 C1738 1.368 . S
C1742 C1741 1.523 . S
H1743 C1718 0.950 . S
H1744 C1720 0.950 . S
H1745 C1721 0.949 . S
H1746 C1723 0.950 . S
H1747 C1725 0.950 . S
C1748 C1749 1.349 . S
C1748 C1750 1.327 . S
C1748 H1773 0.950 . S
C1749 C1748 1.349 . S
C1749 C1765 1.349 . S
C1750 C1748 1.327 . S
C1750 C1769 1.429 1_655 S
C1750 H1774 0.950 . S
C1751 C1768 1.574 . S
C1751 C1770 1.368 . S
C1751 H1775 0.949 . S
H1752 C1756 0.949 . S
C1753 C1754 1.349 . S
C1753 C1755 1.327 1_545 S
C1753 H1776 0.950 . S
C1754 C1753 1.349 . S
C1754 C1766 1.349 . S
C1755 C1753 1.327 1_565 S
C1755 C1771 1.429 . S
C1755 H1777 0.950 . S
C1756 H1752 0.949 . S
C1756 C1764 1.574 . S
C1756 C1772 1.368 . S
H1757 C1765 0.950 . S
H1758 C1763 0.950 . S
H1759 C1764 0.949 . S
H1760 C1766 0.950 . S
H1761 C1767 0.950 . S
H1762 C1768 0.949 . S
C1763 H1758 0.950 . S
C1763 C1765 1.327 1_455 S
C1763 C1769 1.429 . S
C1764 C1756 1.574 . S
C1764 H1759 0.949 . S
C1764 C1770 1.368 . S
C1765 C1749 1.349 . S
C1765 H1757 0.950 . S
C1765 C1763 1.327 1_655 S
C1766 C1754 1.349 . S
C1766 H1760 0.950 . S
C1766 C1767 1.327 . S
C1767 H1761 0.950 . S
C1767 C1766 1.327 . S
C1767 C1771 1.429 1_545 S
C1768 C1751 1.574 . S
C1768 H1762 0.949 . S
C1768 C1772 1.368 . S
C1769 C1750 1.429 1_455 S
C1769 C1763 1.429 . S
C1769 C1770 1.523 . S
C1770 C1751 1.368 . S
C1770 C1764 1.368 . S
C1770 C1769 1.523 . S
C1771 C1755 1.429 . S
C1771 C1767 1.429 1_565 S
C1771 C1772 1.523 . S
C1772 C1756 1.368 . S
C1772 C1768 1.368 . S
C1772 C1771 1.523 . S
H1773 C1748 0.950 . S
H1774 C1750 0.950 . S
H1775 C1751 0.949 . S
H1776 C1753 0.950 . S
H1777 C1755 0.950 . S
C1778 C1779 1.349 . S
C1778 C1780 1.327 . S
C1778 H1803 0.950 . S
C1779 C1778 1.349 . S
C1779 C1795 1.349 . S
C1780 C1778 1.327 . S
C1780 C1799 1.429 1_565 S
C1780 H1804 0.950 . S
C1781 C1798 1.574 . S
C1781 C1800 1.368 . S
C1781 H1805 0.949 . S
H1782 C1786 0.949 . S
C1783 C1784 1.349 . S
C1783 C1785 1.327 . S
C1783 H1806 0.950 . S
C1784 C1783 1.349 . S
C1784 C1796 1.349 . S
C1785 C1783 1.327 . S
C1785 C1801 1.429 . S
C1785 H1807 0.950 . S
C1786 H1782 0.949 . S
C1786 C1794 1.574 . S
C1786 C1802 1.368 . S
H1787 C1795 0.950 . S
H1788 C1793 0.950 . S
H1789 C1794 0.949 . S
H1790 C1796 0.950 . S
H1791 C1797 0.950 . S
H1792 C1798 0.949 . S
C1793 H1788 0.950 . S
C1793 C1795 1.327 1_545 S
C1793 C1799 1.429 . S
C1794 C1786 1.574 . S
C1794 H1789 0.949 . S
C1794 C1800 1.368 . S
C1795 C1779 1.349 . S
C1795 H1787 0.950 . S
C1795 C1793 1.327 1_565 S
C1796 C1784 1.349 . S
C1796 H1790 0.950 . S
C1796 C1797 1.327 . S
C1797 H1791 0.950 . S
C1797 C1796 1.327 . S
C1797 C1801 1.429 . S
C1798 C1781 1.574 . S
C1798 H1792 0.949 . S
C1798 C1802 1.368 . S
C1799 C1780 1.429 1_545 S
C1799 C1793 1.429 . S
C1799 C1800 1.523 . S
C1800 C1781 1.368 . S
C1800 C1794 1.368 . S
C1800 C1799 1.523 . S
C1801 C1785 1.429 . S
C1801 C1797 1.429 . S
C1801 C1802 1.523 . S
C1802 C1786 1.368 . S
C1802 C1798 1.368 . S
C1802 C1801 1.523 . S
H1803 C1778 0.950 . S
H1804 C1780 0.950 . S
H1805 C1781 0.949 . S
H1806 C1783 0.950 . S
H1807 C1785 0.950 . S
C849 C410 1.848 . S
C854 C39 1.848 . S
C879 C251 1.848 . S
C884 C92 1.848 . S
C909 C304 1.848 . S
C914 C145 1.848 . S
C939 C198 1.848 . S
C944 C357 1.848 . S
C969 C834 1.844 . S
C974 C463 1.844 . S
C999 C675 1.844 . S
C1004 C516 1.844 . S
C1029 C569 1.844 . S
C1034 C728 1.844 . S
C1059 C622 1.844 . S
C1064 C781 1.844 . S
C1089 C135 1.385 . S
C1094 C29 1.385 . S
C1119 C82 1.385 . S
C1124 C188 1.385 . S
C1149 C241 1.385 . S
C1154 C347 1.385 . S
C1179 C400 1.385 . S
C1184 C294 1.385 . S
C1209 C453 1.388 . S
C1214 C559 1.388 . S
C1239 C506 1.388 . S
C1244 C612 1.388 . S
C1269 C771 1.388 . S
C1274 C665 1.388 . S
C1299 C718 1.388 . S
C1304 C824 1.388 . S
C1329 C356 1.878 . S
C1334 C38 1.878 . S
C1359 C91 1.878 . S
C1364 C409 1.878 . S
C1389 C144 1.878 . S
C1394 C250 1.878 . S
C1419 C197 1.878 . S
C1424 C303 1.878 . S
C1449 C462 1.882 . S
C1454 C780 1.882 . S
C1479 C515 1.882 . S
C1484 C833 1.882 . S
C1509 C568 1.882 . S
C1514 C674 1.882 . S
C1539 C621 1.882 . S
C1544 C727 1.882 . S
C1569 C22 1.516 . S
C1574 C817 1.514 . S
C1599 C658 1.514 . S
C1604 C75 1.515 . S
C1629 C128 1.516 . S
C1634 C711 1.514 . S
C1659 C764 1.514 . S
C1664 C181 1.515 . S
C1689 C499 1.514 . S
C1694 C234 1.515 . S
C1719 C287 1.516 . S
C1724 C552 1.514 . S
C1749 C605 1.514 . S
C1754 C340 1.515 . S
C1779 C446 1.514 . S
C1784 C393 1.516 . S
