# Generated by pormake.
# Topology wmi, (6)-cn, num edge types: 1
# Building blocks:
#     Node 0, Type 0, BuildingBlock: MIFKUJ_clean_sbu_0, # of connection points: 6
#     Node 1, Type 0, BuildingBlock: MIFKUJ_clean_sbu_0, # of connection points: 6
#     Node 2, Type 0, BuildingBlock: MIFKUJ_clean_sbu_0, # of connection points: 6
#     Node 3, Type 0, BuildingBlock: MIFKUJ_clean_sbu_0, # of connection points: 6
#     Node 4, Type 0, BuildingBlock: MIFKUJ_clean_sbu_0, # of connection points: 6
#     Node 5, Type 0, BuildingBlock: MIFKUJ_clean_sbu_0, # of connection points: 6
#     Node 6, Type 0, BuildingBlock: MIFKUJ_clean_sbu_0, # of connection points: 6
#     Node 7, Type 0, BuildingBlock: MIFKUJ_clean_sbu_0, # of connection points: 6
#     Node 8, Type 0, BuildingBlock: MIFKUJ_clean_sbu_0, # of connection points: 6
#     Node 9, Type 0, BuildingBlock: MIFKUJ_clean_sbu_0, # of connection points: 6
#     Node 10, Type 0, BuildingBlock: MIFKUJ_clean_sbu_0, # of connection points: 6
#     Node 11, Type 0, BuildingBlock: MIFKUJ_clean_sbu_0, # of connection points: 6
#     Node 12, Type 0, BuildingBlock: MIFKUJ_clean_sbu_0, # of connection points: 6
#     Node 13, Type 0, BuildingBlock: MIFKUJ_clean_sbu_0, # of connection points: 6
#     Node 14, Type 0, BuildingBlock: MIFKUJ_clean_sbu_0, # of connection points: 6
#     Node 15, Type 0, BuildingBlock: MIFKUJ_clean_sbu_0, # of connection points: 6
#     Node 16, Type 0, BuildingBlock: MIFKUJ_clean_sbu_0, # of connection points: 6
#     Node 17, Type 0, BuildingBlock: MIFKUJ_clean_sbu_0, # of connection points: 6
#     Edge 18, Type (0, 0), BuildingBlock: KIFKEQ_clean_linker_1, # of connection points: 2
#     Edge 19, Type (0, 0), BuildingBlock: KIFKEQ_clean_linker_1, # of connection points: 2
#     Edge 20, Type (0, 0), BuildingBlock: KIFKEQ_clean_linker_1, # of connection points: 2
#     Edge 21, Type (0, 0), BuildingBlock: KIFKEQ_clean_linker_1, # of connection points: 2
#     Edge 22, Type (0, 0), BuildingBlock: KIFKEQ_clean_linker_1, # of connection points: 2
#     Edge 23, Type (0, 0), BuildingBlock: KIFKEQ_clean_linker_1, # of connection points: 2
#     Edge 24, Type (0, 0), BuildingBlock: KIFKEQ_clean_linker_1, # of connection points: 2
#     Edge 25, Type (0, 0), BuildingBlock: KIFKEQ_clean_linker_1, # of connection points: 2
#     Edge 26, Type (0, 0), BuildingBlock: KIFKEQ_clean_linker_1, # of connection points: 2
#     Edge 27, Type (0, 0), BuildingBlock: KIFKEQ_clean_linker_1, # of connection points: 2
#     Edge 28, Type (0, 0), BuildingBlock: KIFKEQ_clean_linker_1, # of connection points: 2
#     Edge 29, Type (0, 0), BuildingBlock: KIFKEQ_clean_linker_1, # of connection points: 2
#     Edge 30, Type (0, 0), BuildingBlock: KIFKEQ_clean_linker_1, # of connection points: 2
#     Edge 31, Type (0, 0), BuildingBlock: KIFKEQ_clean_linker_1, # of connection points: 2
#     Edge 32, Type (0, 0), BuildingBlock: KIFKEQ_clean_linker_1, # of connection points: 2
#     Edge 33, Type (0, 0), BuildingBlock: KIFKEQ_clean_linker_1, # of connection points: 2
#     Edge 34, Type (0, 0), BuildingBlock: KIFKEQ_clean_linker_1, # of connection points: 2
#     Edge 35, Type (0, 0), BuildingBlock: KIFKEQ_clean_linker_1, # of connection points: 2
#     Edge 36, Type (0, 0), BuildingBlock: KIFKEQ_clean_linker_1, # of connection points: 2
#     Edge 37, Type (0, 0), BuildingBlock: KIFKEQ_clean_linker_1, # of connection points: 2
#     Edge 38, Type (0, 0), BuildingBlock: KIFKEQ_clean_linker_1, # of connection points: 2
#     Edge 39, Type (0, 0), BuildingBlock: KIFKEQ_clean_linker_1, # of connection points: 2
#     Edge 40, Type (0, 0), BuildingBlock: KIFKEQ_clean_linker_1, # of connection points: 2
#     Edge 41, Type (0, 0), BuildingBlock: KIFKEQ_clean_linker_1, # of connection points: 2
#     Edge 42, Type (0, 0), BuildingBlock: KIFKEQ_clean_linker_1, # of connection points: 2
#     Edge 43, Type (0, 0), BuildingBlock: KIFKEQ_clean_linker_1, # of connection points: 2
#     Edge 44, Type (0, 0), BuildingBlock: KIFKEQ_clean_linker_1, # of connection points: 2
#     Edge 45, Type (0, 0), BuildingBlock: KIFKEQ_clean_linker_1, # of connection points: 2
#     Edge 46, Type (0, 0), BuildingBlock: KIFKEQ_clean_linker_1, # of connection points: 2
#     Edge 47, Type (0, 0), BuildingBlock: KIFKEQ_clean_linker_1, # of connection points: 2
#     Edge 48, Type (0, 0), BuildingBlock: KIFKEQ_clean_linker_1, # of connection points: 2
#     Edge 49, Type (0, 0), BuildingBlock: KIFKEQ_clean_linker_1, # of connection points: 2
#     Edge 50, Type (0, 0), BuildingBlock: KIFKEQ_clean_linker_1, # of connection points: 2
#     Edge 51, Type (0, 0), BuildingBlock: KIFKEQ_clean_linker_1, # of connection points: 2
#     Edge 52, Type (0, 0), BuildingBlock: KIFKEQ_clean_linker_1, # of connection points: 2
#     Edge 53, Type (0, 0), BuildingBlock: KIFKEQ_clean_linker_1, # of connection points: 2
#     Edge 54, Type (0, 0), BuildingBlock: KIFKEQ_clean_linker_1, # of connection points: 2
#     Edge 55, Type (0, 0), BuildingBlock: KIFKEQ_clean_linker_1, # of connection points: 2
#     Edge 56, Type (0, 0), BuildingBlock: KIFKEQ_clean_linker_1, # of connection points: 2
#     Edge 57, Type (0, 0), BuildingBlock: KIFKEQ_clean_linker_1, # of connection points: 2
#     Edge 58, Type (0, 0), BuildingBlock: KIFKEQ_clean_linker_1, # of connection points: 2
#     Edge 59, Type (0, 0), BuildingBlock: KIFKEQ_clean_linker_1, # of connection points: 2
#     Edge 60, Type (0, 0), BuildingBlock: KIFKEQ_clean_linker_1, # of connection points: 2
#     Edge 61, Type (0, 0), BuildingBlock: KIFKEQ_clean_linker_1, # of connection points: 2
#     Edge 62, Type (0, 0), BuildingBlock: KIFKEQ_clean_linker_1, # of connection points: 2
#     Edge 63, Type (0, 0), BuildingBlock: KIFKEQ_clean_linker_1, # of connection points: 2
#     Edge 64, Type (0, 0), BuildingBlock: KIFKEQ_clean_linker_1, # of connection points: 2
#     Edge 65, Type (0, 0), BuildingBlock: KIFKEQ_clean_linker_1, # of connection points: 2
#     Edge 66, Type (0, 0), BuildingBlock: KIFKEQ_clean_linker_1, # of connection points: 2
#     Edge 67, Type (0, 0), BuildingBlock: KIFKEQ_clean_linker_1, # of connection points: 2
#     Edge 68, Type (0, 0), BuildingBlock: KIFKEQ_clean_linker_1, # of connection points: 2
#     Edge 69, Type (0, 0), BuildingBlock: KIFKEQ_clean_linker_1, # of connection points: 2
#     Edge 70, Type (0, 0), BuildingBlock: KIFKEQ_clean_linker_1, # of connection points: 2
#     Edge 71, Type (0, 0), BuildingBlock: KIFKEQ_clean_linker_1, # of connection points: 2
# Relax obj value: 0.080
# Max RMSD: 0.182
# Mean RMSD: 0.182
data_MOF--net-wmi--node1-MIFKUJ_clean_sbu_0--edge1-KIFKEQ_clean_linker_1
_symmetry_space_group_name_H-M    P1
_symmetry_Int_Tables_number       1
_symmetry_cell_setting            triclinic
loop_
_symmetry_equiv_pos_as_xyz
'x, y, z'
_cell_length_a     35.194648
_cell_length_b     35.20298
_cell_length_c     80.353872
_cell_angle_alpha  89.973116
_cell_angle_beta   89.959207
_cell_angle_gamma 120.07017
loop_
_atom_site_label
_atom_site_type_symbol
_atom_site_fract_x
_atom_site_fract_y
_atom_site_fract_z
_atom_type_partial_charge
Zn0 Zn 0.44162 1.00447 0.07885 0.0
Zn1 Zn 0.53197 0.09061 0.08667 0.0
C2 C 0.48379 0.95578 0.0717 0.0
O3 O 0.46536 0.95505 0.0574 0.0
C4 C 0.513 0.15985 0.09489 0.0
O5 O 0.52209 0.1523 0.10997 0.0
O6 O 0.38123 0.95139 0.07622 0.0
O7 O 0.43651 0.03926 0.09713 0.0
O8 O 0.49984 0.05321 0.1072 0.0
C9 C 0.36541 0.92895 0.08944 0.0
O10 O 0.3881 0.94287 0.10329 0.0
O11 O 0.48021 0.97743 0.08373 0.0
C12 C 0.62831 0.12934 0.08633 0.0
O13 O 0.62185 0.10146 0.07431 0.0
O14 O 0.59545 0.1286 0.09325 0.0
O15 O 0.53039 0.06366 0.06374 0.0
O16 O 0.46042 0.03875 0.05805 0.0
O17 O 0.51286 0.13598 0.08295 0.0
C18 C 0.46061 0.04465 0.10955 0.0
C19 C 0.49979 0.05438 0.05326 0.0
Zn20 Zn 0.10738 0.52467 0.08239 0.0
Zn21 Zn 0.9862 0.48923 0.08818 0.0
C22 C 0.12501 0.61495 0.08254 0.0
O23 O 0.09693 0.60151 0.07016 0.0
C24 C 0.91669 0.40699 0.10095 0.0
O25 O 0.92453 0.43013 0.11464 0.0
O26 O 0.15957 0.51627 0.07971 0.0
O27 O 0.06957 0.48002 0.09928 0.0
O28 O 0.02255 0.49868 0.109 0.0
C29 C 0.17982 0.51675 0.09286 0.0
O30 O 0.16621 0.52322 0.10721 0.0
O31 O 0.132 0.58733 0.09016 0.0
C32 C 0.92346 0.51228 0.07914 0.0
O33 O 0.92019 0.48598 0.06693 0.0
O34 O 0.952 0.5209 0.0904 0.0
O35 O 0.01247 0.5008 0.06498 0.0
O36 O 0.08094 0.51687 0.06006 0.0
O37 O 0.93985 0.42515 0.0881 0.0
C38 C 0.05183 0.48825 0.11139 0.0
C39 C 0.04373 0.50933 0.05494 0.0
Zn40 Zn 0.56375 0.63929 0.07129 0.0
Zn41 Zn 0.58561 0.54944 0.07746 0.0
C42 C 0.47783 0.5606 0.0777 0.0
O43 O 0.48721 0.54268 0.06522 0.0
C44 C 0.66574 0.55817 0.08974 0.0
O45 O 0.64188 0.54336 0.10332 0.0
O46 O 0.56315 0.69672 0.06883 0.0
O47 O 0.61467 0.64997 0.0854 0.0
O48 O 0.58105 0.58429 0.09688 0.0
C49 C 0.56844 0.72131 0.08129 0.0
O50 O 0.57703 0.71063 0.0959 0.0
O51 O 0.50623 0.59881 0.08258 0.0
C52 C 0.53647 0.45331 0.0725 0.0
O53 O 0.53315 0.46336 0.05703 0.0
O54 O 0.55445 0.48398 0.0832 0.0
O55 O 0.57263 0.55909 0.0536 0.0
O56 O 0.56566 0.6175 0.04872 0.0
O57 O 0.649 0.56515 0.07691 0.0
C58 C 0.60548 0.62574 0.09815 0.0
C59 C 0.56734 0.58423 0.04361 0.0
Zn60 Zn 0.93468 0.4068 0.90563 0.0
Zn61 Zn 0.06363 0.49481 0.90179 0.0
C62 C 0.92435 0.47943 0.89239 0.0
O63 O 0.95377 0.50431 0.90347 0.0
C64 C 0.12746 0.46867 0.89437 0.0
O65 O 0.11196 0.46604 0.87929 0.0
O66 O 0.88116 0.34528 0.90833 0.0
O67 O 0.98747 0.4069 0.89698 0.0
O68 O 0.03067 0.46197 0.88104 0.0
C69 C 0.85526 0.32818 0.896 0.0
O70 O 0.86592 0.34911 0.88169 0.0
O71 O 0.91462 0.43963 0.89083 0.0
C72 C 0.12774 0.58278 0.90902 0.0
O73 O 0.12836 0.56211 0.92254 0.0
O74 O 0.09991 0.56087 0.89771 0.0
O75 O 0.02449 0.48221 0.92249 0.0
O76 O 0.95325 0.43692 0.92749 0.0
O77 O 0.1102 0.47814 0.90643 0.0
C78 C 0.99918 0.4228 0.88255 0.0
C79 C 0.9913 0.46644 0.93226 0.0
Zn80 Zn 0.58825 0.50087 0.89048 0.0
Zn81 Zn 0.52641 0.57628 0.89258 0.0
C82 C 0.55564 0.41259 0.89792 0.0
O83 O 0.58338 0.43171 0.91022 0.0
C84 C 0.57425 0.66964 0.89804 0.0
O85 O 0.60483 0.66812 0.88918 0.0
O86 O 0.6519 0.5231 0.88481 0.0
O87 O 0.56159 0.53201 0.87988 0.0
O88 O 0.55877 0.58757 0.8704 0.0
C89 C 0.66288 0.50435 0.87385 0.0
O90 O 0.63208 0.47149 0.86534 0.0
O91 O 0.55188 0.43629 0.88688 0.0
C92 C 0.43595 0.52496 0.90262 0.0
O93 O 0.45432 0.53038 0.91731 0.0
O94 O 0.46044 0.53982 0.88983 0.0
O95 O 0.55018 0.55043 0.90996 0.0
O96 O 0.58368 0.51242 0.91465 0.0
O97 O 0.53868 0.6344 0.90117 0.0
C98 C 0.57446 0.5623 0.86924 0.0
C99 C 0.56556 0.53357 0.92008 0.0
Zn100 Zn 0.4487 0.02529 0.90304 0.0
Zn101 Zn 0.47625 0.96018 0.89971 0.0
C102 C 0.53722 0.09322 0.90955 0.0
O103 O 0.51586 0.09966 0.92162 0.0
C104 C 0.39741 0.87963 0.89142 0.0
O105 O 0.42097 0.88427 0.87808 0.0
O106 O 0.43072 0.07081 0.90358 0.0
O107 O 0.4167 0.98515 0.88421 0.0
O108 O 0.47942 0.9908 0.87759 0.0
C109 C 0.4364 0.09225 0.89021 0.0
O110 O 0.44903 0.08029 0.87679 0.0
O111 O 0.51559 0.06175 0.89942 0.0
C112 C 0.51977 0.91642 0.91072 0.0
O113 O 0.50284 0.9203 0.92475 0.0
O114 O 0.51325 0.932 0.89746 0.0
O115 O 0.49647 0.99439 0.92162 0.0
O116 O 0.43594 0.99659 0.92512 0.0
O117 O 0.4137 0.90897 0.90269 0.0
C118 C 0.4434 0.98784 0.87311 0.0
C119 C 0.46912 0.99674 0.93128 0.0
Zn120 Zn 0.07674 0.28507 0.4165 0.0
Zn121 Zn 0.16607 0.396 0.42183 0.0
C122 C 0.12314 0.24207 0.41524 0.0
O123 O 0.09916 0.23098 0.40166 0.0
C124 C 0.1645 0.47296 0.43228 0.0
O125 O 0.18136 0.46593 0.44571 0.0
O126 O 0.01746 0.23006 0.41733 0.0
O127 O 0.07131 0.33098 0.42863 0.0
O128 O 0.1328 0.36142 0.44252 0.0
C129 C 1.00516 0.21028 0.43124 0.0
O130 O 0.03125 0.22669 0.44417 0.0
O131 O 0.12039 0.2684 0.42539 0.0
C132 C 0.25493 0.45375 0.41448 0.0
O133 O 0.23527 0.45688 0.40108 0.0
O134 O 0.23165 0.42668 0.42578 0.0
O135 O 0.15322 0.36813 0.39851 0.0
O136 O 0.09367 0.30372 0.39346 0.0
O137 O 0.15374 0.44617 0.4202 0.0
C138 C 0.09113 0.34159 0.44239 0.0
C139 C 0.12836 0.33753 0.3885 0.0
Zn140 Zn 0.74469 0.81666 0.42079 0.0
Zn141 Zn 0.62939 0.79419 0.42291 0.0
C142 C 0.75481 0.90261 0.42875 0.0
O143 O 0.72225 0.89143 0.4183 0.0
C144 C 0.55442 0.71347 0.43296 0.0
O145 O 0.55972 0.73692 0.44638 0.0
O146 O 0.79751 0.80821 0.42006 0.0
O147 O 0.69475 0.76593 0.43204 0.0
O148 O 0.66393 0.79944 0.44388 0.0
C149 C 0.82172 0.81719 0.4329 0.0
O150 O 0.80977 0.82842 0.44668 0.0
O151 O 0.76633 0.87474 0.43248 0.0
C152 C 0.58481 0.8439 0.41536 0.0
O153 O 0.59902 0.84532 0.40013 0.0
O154 O 0.59569 0.82615 0.42678 0.0
O155 O 0.66031 0.81085 0.40021 0.0
O156 O 0.72834 0.82233 0.39779 0.0
O157 O 0.58171 0.73065 0.42107 0.0
C158 C 0.68431 0.77835 0.44512 0.0
C159 C 0.69419 0.8201 0.39146 0.0
Zn160 Zn 0.23055 0.95752 0.41779 0.0
Zn161 Zn 0.23445 0.86288 0.42349 0.0
C162 C 0.14094 0.92103 0.41602 0.0
O163 O 0.15677 0.94673 0.40293 0.0
C164 C 0.32123 0.87938 0.43353 0.0
O165 O 0.30498 0.87423 0.44862 0.0
O166 O 0.24108 0.01942 0.41854 0.0
O167 O 0.27722 0.95471 0.43061 0.0
O168 O 0.23087 0.89603 0.44399 0.0
C169 C 0.22903 0.03153 0.43146 0.0
O170 O 0.21277 1.00434 0.4441 0.0
O171 O 0.16782 0.9184 0.42591 0.0
C172 C 0.20691 0.77489 0.41647 0.0
O173 O 0.22898 0.7952 0.403 0.0
O174 O 0.2023 0.79738 0.42786 0.0
O175 O 0.2172 0.87227 0.39994 0.0
O176 O 0.23103 0.94007 0.39472 0.0
O177 O 0.29781 0.87759 0.42117 0.0
C178 C 0.26116 0.93597 0.44429 0.0
C179 C 0.2196 0.9015 0.38987 0.0
Zn180 Zn 0.63834 0.74382 0.23957 0.0
Zn181 Zn 0.73959 0.83712 0.23439 0.0
C182 C 0.58958 0.7841 0.24415 0.0
O183 O 0.58245 0.75961 0.25743 0.0
C184 C 0.80833 0.8206 0.2236 0.0
O185 O 0.7982 0.83008 0.20904 0.0
O186 O 0.58275 0.68423 0.24005 0.0
O187 O 0.6793 0.74052 0.22345 0.0
O188 O 0.7025 0.80683 0.21383 0.0
C189 C 0.55909 0.6718 0.22699 0.0
O190 O 0.57341 0.6964 0.21358 0.0
O191 O 0.61639 0.78529 0.23322 0.0
C192 C 0.7829 0.93292 0.23934 0.0
O193 O 0.76284 0.92286 0.25382 0.0
O194 O 0.77598 0.90228 0.22923 0.0
O195 O 0.71268 0.82964 0.25764 0.0
O196 O 0.66256 0.75979 0.26224 0.0
O197 O 0.78621 0.81947 0.23633 0.0
C198 C 0.68951 0.76652 0.21125 0.0
C199 C 0.68761 0.79857 0.26747 0.0
Zn200 Zn 0.28619 0.87681 0.23891 0.0
Zn201 Zn 0.20267 0.91074 0.23338 0.0
C202 C 0.20758 0.79427 0.22971 0.0
O203 O 0.18806 0.80488 0.24122 0.0
C204 C 0.20726 0.99118 0.22378 0.0
O205 O 0.1929 0.96931 0.20977 0.0
O206 O 0.34399 0.87815 0.24123 0.0
O207 O 0.29956 0.93267 0.2279 0.0
O208 O 0.23954 0.91206 0.21346 0.0
C209 C 0.36147 0.87205 0.2284 0.0
O210 O 0.34183 0.86599 0.21394 0.0
O211 O 0.24719 0.82154 0.22587 0.0
C212 C 0.10775 0.85444 0.23812 0.0
O213 O 0.11904 0.84806 0.25299 0.0
O214 O 0.13768 0.87731 0.22759 0.0
O215 O 0.21223 0.89271 0.25655 0.0
O216 O 0.26187 0.87271 0.26137 0.0
O217 O 0.21532 0.97314 0.23594 0.0
C218 C 0.28104 0.92909 0.21407 0.0
C219 C 0.23186 0.87986 0.26644 0.0
Zn220 Zn 0.14554 0.41462 0.2365 0.0
Zn221 Zn 0.13201 0.30597 0.23232 0.0
C222 C 0.23447 0.46805 0.23778 0.0
O223 O 0.21797 0.47937 0.25022 0.0
C224 C 0.04829 0.2325 0.22178 0.0
O225 O 0.06648 0.24357 0.20697 0.0
O226 O 0.13415 0.46533 0.23509 0.0
O227 O 0.09691 0.36257 0.22534 0.0
O228 O 0.13452 0.34004 0.21127 0.0
C229 C 0.14166 0.48594 0.22137 0.0
O230 O 0.15473 0.47235 0.20853 0.0
O231 O 0.20801 0.43746 0.22811 0.0
C232 C 0.16287 0.2487 0.24067 0.0
O233 O 0.13922 0.24573 0.25379 0.0
O234 O 0.16735 0.27554 0.22918 0.0
O235 O 0.1463 0.3359 0.25534 0.0
O236 O 0.1468 0.3986 0.25968 0.0
O237 O 0.0695 0.25532 0.23432 0.0
C238 C 0.10892 0.35563 0.21146 0.0
C239 C 0.15037 0.36657 0.265 0.0
Zn240 Zn 0.77742 0.59804 0.75599 0.0
Zn241 Zn 0.87105 0.72143 0.76202 0.0
C242 C 0.80737 0.54028 0.75309 0.0
O243 O 0.77631 0.52799 0.74184 0.0
C244 C 0.86618 0.79661 0.77195 0.0
O245 O 0.88549 0.79265 0.78529 0.0
O246 O 0.71363 0.55086 0.75687 0.0
O247 O 0.79005 0.6522 0.76776 0.0
O248 O 0.84458 0.69048 0.7841 0.0
C249 C 0.70073 0.52142 0.76807 0.0
O250 O 0.72887 0.52388 0.77936 0.0
O251 O 0.81538 0.57254 0.76247 0.0
C252 C 0.95634 0.78119 0.75096 0.0
O253 O 0.93202 0.78514 0.73946 0.0
O254 O 0.93741 0.75309 0.76249 0.0
O255 O 0.84705 0.68555 0.74027 0.0
O256 O 0.79522 0.6184 0.73301 0.0
O257 O 0.85583 0.76889 0.76027 0.0
C258 C 0.80557 0.65934 0.78229 0.0
C259 C 0.8263 0.65645 0.72911 0.0
Zn260 Zn 0.4367 0.13444 0.73857 0.0
Zn261 Zn 0.33207 0.12012 0.74622 0.0
C262 C 0.46889 0.22505 0.73826 0.0
O263 O 0.4745 0.21746 0.7227 0.0
C264 C 0.26091 0.03939 0.75811 0.0
O265 O 0.27091 0.06266 0.77186 0.0
O266 O 0.49558 0.13656 0.73674 0.0
O267 O 0.39705 0.08428 0.75304 0.0
O268 O 0.37127 0.12223 0.76566 0.0
C269 C 0.52145 0.14908 0.7492 0.0
O270 O 0.50855 0.15861 0.76314 0.0
O271 O 0.45062 0.19282 0.74828 0.0
C272 C 0.26824 0.14621 0.74148 0.0
O273 O 0.26463 0.12448 0.72772 0.0
O274 O 0.29772 0.15145 0.75195 0.0
O275 O 0.35456 0.13592 0.7222 0.0
O276 O 0.4128 0.12978 0.71604 0.0
O277 O 0.28396 0.0567 0.74515 0.0
C278 C 0.38404 0.09415 0.76617 0.0
C279 C 0.38175 0.13606 0.71165 0.0
Zn280 Zn 0.93047 0.27045 0.74841 0.0
Zn281 Zn 0.92447 0.17771 0.75623 0.0
C282 C 0.84122 0.23557 0.73866 0.0
O283 O 0.86212 0.26008 0.72573 0.0
C284 C 1.00675 0.18324 0.76508 0.0
O285 O 0.98318 0.16206 0.77816 0.0
O286 O 0.93906 0.33073 0.74406 0.0
O287 O 0.95981 0.27292 0.76957 0.0
O288 O 0.91286 0.20488 0.77665 0.0
C289 C 0.9578 0.3629 0.75407 0.0
O290 O 0.97868 0.35981 0.76707 0.0
O291 O 0.86369 0.23235 0.75044 0.0
C292 C 0.89711 0.0894 0.74933 0.0
O293 O 0.91645 0.10782 0.73521 0.0
O294 O 0.89493 0.11322 0.76072 0.0
O295 O 0.90132 0.1833 0.73354 0.0
O296 O 0.95275 0.25167 0.72933 0.0
O297 O 0.98958 0.19619 0.75411 0.0
C298 C 0.93652 0.24509 0.78049 0.0
C299 C 0.92488 0.21448 0.72359 0.0
Zn300 Zn 0.27503 0.13005 0.56066 0.0
Zn301 Zn 0.41384 0.20302 0.56017 0.0
C302 C 0.21977 0.16123 0.57072 0.0
O303 O 0.21224 0.13191 0.58231 0.0
C304 C 0.46052 0.1551 0.55782 0.0
O305 O 0.43074 0.13226 0.54654 0.0
O306 O 0.23266 0.06737 0.55468 0.0
O307 O 0.33076 0.15695 0.54887 0.0
O308 O 0.39247 0.18063 0.53648 0.0
C309 C 0.20354 0.05802 0.54361 0.0
O310 O 0.20294 0.08999 0.53539 0.0
O311 O 0.24636 0.16664 0.55904 0.0
C312 C 0.46968 0.28904 0.57308 0.0
O313 O 0.47176 0.26551 0.58537 0.0
O314 O 0.44473 0.26933 0.5608 0.0
O315 O 0.36602 0.17406 0.57855 0.0
O316 O 0.29475 0.13412 0.58407 0.0
O317 O 0.4593 0.18627 0.56532 0.0
C318 C 0.3512 0.15664 0.53609 0.0
C319 C 0.33449 0.15523 0.58902 0.0
Zn320 Zn 0.93531 0.26853 0.57834 0.0
Zn321 Zn 0.84363 0.24701 0.57061 0.0
C322 C 0.90529 0.17825 0.58554 0.0
O323 O 0.92613 0.19736 0.59934 0.0
C324 C 0.84745 0.32848 0.56161 0.0
O325 O 0.83124 0.30677 0.54768 0.0
O326 O 0.99767 0.28268 0.58109 0.0
O327 O 0.93481 0.30409 0.55933 0.0
O328 O 0.87744 0.24502 0.55017 0.0
C329 C 0.01372 0.27575 0.56804 0.0
O330 O 0.99011 0.2638 0.55438 0.0
O331 O 0.90284 0.20193 0.57405 0.0
C332 C 0.75117 0.18086 0.57345 0.0
O333 O 0.7637 0.168 0.58665 0.0
O334 O 0.77964 0.21247 0.56471 0.0
O335 O 0.8499 0.22533 0.59366 0.0
O336 O 0.91463 0.28213 0.59906 0.0
O337 O 0.85655 0.31002 0.57335 0.0
C338 C 0.91339 0.28009 0.54722 0.0
C339 C 0.87809 0.2512 0.60413 0.0
Zn340 Zn 0.83605 0.78385 0.58085 0.0
Zn341 Zn 0.80535 0.66668 0.57458 0.0
C342 C 0.92513 0.80384 0.57461 0.0
O343 O 0.92377 0.79455 0.5905 0.0
C344 C 0.72371 0.59582 0.56375 0.0
O345 O 0.7469 0.60436 0.55002 0.0
O346 O 0.83757 0.84229 0.58398 0.0
O347 O 0.78256 0.74205 0.56799 0.0
O348 O 0.8101 0.70582 0.55513 0.0
C349 C 0.82821 0.86104 0.57241 0.0
O350 O 0.81468 0.8411 0.55801 0.0
O351 O 0.89065 0.79913 0.56762 0.0
C352 C 0.82675 0.60088 0.58057 0.0
O353 O 0.80467 0.5995 0.59397 0.0
O354 O 0.83437 0.63013 0.56963 0.0
O355 O 0.82441 0.69328 0.59752 0.0
O356 O 0.83867 0.7609 0.60325 0.0
O357 O 0.74122 0.62022 0.57638 0.0
C358 C 0.7903 0.72777 0.55467 0.0
C359 C 0.83521 0.72468 0.60773 0.0
H360 H 0.51934 0.92913 0.0476 0.0
H361 H 0.49389 0.91928 0.10041 0.0
H362 H 0.54506 0.87686 0.04992 0.0
H363 H 0.51769 0.86511 0.10274 0.0
H364 H 0.58823 0.78671 0.10398 0.0
H365 H 0.57389 0.84753 0.10195 0.0
H366 H 0.5166 0.80182 0.05331 0.0
H367 H 0.53272 0.7424 0.0551 0.0
C368 C 0.51938 0.9158 0.05975 0.0
C369 C 0.50439 0.9282 0.07381 0.0
C370 C 0.53376 0.8854 0.06108 0.0
C371 C 0.53283 0.86581 0.07647 0.0
C372 C 0.51934 0.87957 0.09067 0.0
C373 C 0.50557 0.91063 0.08937 0.0
C374 C 0.57293 0.78993 0.09278 0.0
C375 C 0.56172 0.75966 0.07968 0.0
C376 C 0.56437 0.82471 0.09167 0.0
C377 C 0.54396 0.82993 0.07748 0.0
C378 C 0.53316 0.79971 0.06432 0.0
C379 C 0.54217 0.76529 0.06537 0.0
H380 H 0.31718 0.88272 0.06232 0.0
H381 H 0.3209 0.87763 0.11599 0.0
H382 H 0.25426 0.80829 0.06197 0.0
H383 H 0.25756 0.80374 0.11566 0.0
H384 H 0.1913 0.65452 0.1053 0.0
H385 H 0.24497 0.73229 0.1076 0.0
H386 H 0.17728 0.76128 0.06923 0.0
H387 H 0.12394 0.68321 0.06668 0.0
C388 C 0.30412 0.86602 0.07405 0.0
C389 C 0.32432 0.88593 0.08916 0.0
C390 C 0.2679 0.82342 0.07387 0.0
C391 C 0.25105 0.79989 0.0888 0.0
C392 C 0.27018 0.82061 0.10393 0.0
C393 C 0.3064 0.86308 0.10411 0.0
C394 C 0.18742 0.67748 0.09752 0.0
C395 C 0.15351 0.66255 0.08571 0.0
C396 C 0.21814 0.72218 0.09888 0.0
C397 C 0.21565 0.75304 0.0885 0.0
C398 C 0.18055 0.7383 0.07722 0.0
C399 C 0.14979 0.69356 0.07585 0.0
H400 H 0.22919 0.5158 0.11885 0.0
H401 H 0.21989 0.50769 0.06519 0.0
H402 H 0.29798 0.51503 0.11757 0.0
H403 H 0.28904 0.50767 0.06392 0.0
H404 H 0.40457 0.48909 0.06522 0.0
H405 H 0.32835 0.46838 0.07064 0.0
H406 H 0.37136 0.56939 0.1082 0.0
H407 H 0.44719 0.58957 0.10303 0.0
C408 C 0.24164 0.51352 0.10678 0.0
C409 C 0.21941 0.5124 0.09209 0.0
C410 C 0.28106 0.51311 0.10607 0.0
C411 C 0.29905 0.5115 0.09065 0.0
C412 C 0.27578 0.50838 0.07601 0.0
C413 C 0.23635 0.50881 0.07672 0.0
C414 C 0.39768 0.50612 0.07493 0.0
C415 C 0.43197 0.54151 0.08349 0.0
C416 C 0.35404 0.49445 0.07795 0.0
C417 C 0.34392 0.51775 0.08964 0.0
C418 C 0.37799 0.55066 0.09915 0.0
C419 C 0.42156 0.5624 0.09612 0.0
H420 H 0.92809 0.55891 0.8955 0.0
H421 H 0.85559 0.43271 0.87135 0.0
H422 H 0.87218 0.57654 0.88692 0.0
H423 H 0.79927 0.44939 0.8634 0.0
H424 H 0.7006 0.48322 0.84848 0.0
H425 H 0.77242 0.48854 0.84855 0.0
H426 H 0.80012 0.5526 0.89651 0.0
H427 H 0.72939 0.54892 0.89604 0.0
C428 C 0.90066 0.53524 0.88813 0.0
C429 C 0.89593 0.49408 0.88438 0.0
C430 C 0.86841 0.54521 0.88331 0.0
C431 C 0.83066 0.51414 0.87472 0.0
C432 C 0.82787 0.47441 0.86987 0.0
C433 C 0.86017 0.46461 0.87457 0.0
C434 C 0.7225 0.49925 0.85886 0.0
C435 C 0.70903 0.51484 0.87241 0.0
C436 C 0.76361 0.50215 0.85894 0.0
C437 C 0.79186 0.52013 0.8727 0.0
C438 C 0.77958 0.53878 0.88564 0.0
C439 C 0.73874 0.53641 0.88543 0.0
H440 H 0.45562 0.14968 0.86452 0.0
H441 H 0.42291 0.13221 0.9169 0.0
H442 H 0.47597 0.22647 0.86658 0.0
H443 H 0.44235 0.20896 0.91884 0.0
H444 H 0.5554 0.35371 0.91992 0.0
H445 H 0.5153 0.27421 0.91789 0.0
H446 H 0.45564 0.28237 0.87204 0.0
H447 H 0.4966 0.3624 0.8739 0.0
C448 C 0.45163 0.16192 0.87637 0.0
C449 C 0.43855 0.13516 0.89063 0.0
C450 C 0.46308 0.20592 0.87753 0.0
C451 C 0.46149 0.22388 0.89294 0.0
C452 C 0.44476 0.19615 0.90687 0.0
C453 C 0.43338 0.15215 0.90573 0.0
C454 C 0.53353 0.33863 0.90946 0.0
C455 C 0.52946 0.36431 0.89699 0.0
C456 C 0.51014 0.293 0.90839 0.0
C457 C 0.48212 0.27203 0.89485 0.0
C458 C 0.4772 0.29767 0.88257 0.0
C459 C 0.50062 0.34343 0.88365 0.0
H460 H 0.59153 0.15879 0.9306 0.0
H461 H 0.59228 0.09553 0.88466 0.0
H462 H 0.66939 0.21078 0.92743 0.0
H463 H 0.67097 0.14743 0.88161 0.0
H464 H 0.79376 0.28455 0.87192 0.0
H465 H 0.71883 0.22442 0.87537 0.0
H466 H 0.74198 0.22003 0.92794 0.0
H467 H 0.81695 0.28108 0.92452 0.0
C468 C 0.60839 0.15567 0.91987 0.0
C469 C 0.58544 0.12304 0.90783 0.0
C470 C 0.65332 0.18539 0.91812 0.0
C471 C 0.67674 0.18345 0.90427 0.0
C472 C 0.65396 0.15025 0.89236 0.0
C473 C 0.60887 0.12033 0.89413 0.0
C474 C 0.78312 0.27054 0.88421 0.0
C475 C 0.81142 0.28803 0.89797 0.0
C476 C 0.74007 0.23574 0.88617 0.0
C477 C 0.72403 0.21741 0.90196 0.0
C478 C 0.75291 0.23377 0.91563 0.0
C479 C 0.79606 0.26861 0.91366 0.0
H480 H 0.19058 0.05882 0.45446 0.0
H481 H 0.26224 0.0968 0.40803 0.0
H482 H 0.17516 0.11861 0.45166 0.0
H483 H 0.24813 0.15764 0.40552 0.0
H484 H 0.14638 0.19933 0.39317 0.0
H485 H 0.18208 0.15719 0.39858 0.0
H486 H 0.19808 0.19621 0.45027 0.0
H487 H 0.16089 0.23819 0.44482 0.0
C488 C 0.20397 0.08058 0.44384 0.0
C489 C 0.22683 0.07246 0.43127 0.0
C490 C 0.19539 0.11515 0.44231 0.0
C491 C 0.20976 0.14256 0.42822 0.0
C492 C 0.23568 0.13651 0.41634 0.0
C493 C 0.24393 0.10173 0.4178 0.0
C494 C 0.15789 0.19945 0.40568 0.0
C495 C 0.15032 0.2217 0.41861 0.0
C496 C 0.1789 0.17557 0.40876 0.0
C497 C 0.19306 0.17321 0.42487 0.0
C498 C 0.18722 0.19704 0.43773 0.0
C499 C 0.16618 0.22126 0.43462 0.0
H500 H 0.94514 0.16535 0.40678 0.0
H501 H 0.97057 0.15977 0.45908 0.0
H502 H 0.87954 0.09316 0.40878 0.0
H503 H 0.90453 0.08778 0.46111 0.0
H504 H 0.82741 0.93762 0.44873 0.0
H505 H 0.88374 0.01452 0.45101 0.0
H506 H 0.80567 0.05085 0.42066 0.0
H507 H 0.74944 0.97368 0.41813 0.0
C508 C 0.93644 0.14898 0.41875 0.0
C509 C 0.96335 0.16813 0.43272 0.0
C510 C 0.89861 0.10772 0.41994 0.0
C511 C 0.88683 0.08464 0.43511 0.0
C512 C 0.91297 0.10447 0.44921 0.0
C513 C 0.95077 0.14579 0.44803 0.0
C514 C 0.82177 0.96202 0.44281 0.0
C515 C 0.78417 0.9494 0.43304 0.0
C516 C 0.85406 0.00621 0.44418 0.0
C517 C 0.84948 0.03878 0.43582 0.0
C518 C 0.81051 0.02643 0.42699 0.0
C519 C 0.77813 0.98221 0.42565 0.0
H520 H 0.07785 0.91343 0.39472 0.0
H521 H 0.0952 0.87558 0.44403 0.0
H522 H 0.99983 0.88052 0.39963 0.0
H523 H 0.01586 0.8414 0.44891 0.0
H524 H 0.88637 0.84794 0.45652 0.0
H525 H 0.96225 0.86551 0.45302 0.0
H526 H 0.9325 0.8125 0.40319 0.0
H527 H 0.85692 0.79608 0.40652 0.0
C528 C 0.06492 0.89758 0.40659 0.0
C529 C 0.0929 0.8974 0.41903 0.0
C530 C 0.0199 0.87824 0.40935 0.0
C531 C 1.00135 0.85804 0.42463 0.0
C532 C 0.02913 0.85694 0.43702 0.0
C533 C 0.0745 0.87629 0.43421 0.0
C534 C 0.89582 0.83943 0.4449 0.0
C535 C 0.8657 0.82126 0.4317 0.0
C536 C 0.93936 0.84928 0.44293 0.0
C537 C 0.95372 0.84103 0.42774 0.0
C538 C 0.9228 0.8202 0.41494 0.0
C539 C 0.87937 0.81056 0.41687 0.0
H540 H 0.41602 0.89253 0.25524 0.0
H541 H 0.39736 0.84306 0.20495 0.0
H542 H 0.47789 0.88032 0.25853 0.0
H543 H 0.45816 0.82929 0.20842 0.0
H544 H 0.58491 0.82777 0.2164 0.0
H545 H 0.53567 0.8573 0.21211 0.0
H546 H 0.48488 0.81738 0.26197 0.0
H547 H 0.53443 0.78952 0.26636 0.0
C548 C 0.42521 0.87917 0.24486 0.0
C549 C 0.40141 0.86828 0.22991 0.0
C550 C 0.4606 0.87198 0.24676 0.0
C551 C 0.47276 0.85324 0.23382 0.0
C552 C 0.45009 0.84413 0.2186 0.0
C553 C 0.41494 0.85173 0.21666 0.0
C554 C 0.56368 0.82603 0.22649 0.0
C555 C 0.56347 0.80609 0.24168 0.0
C556 C 0.53524 0.84264 0.22401 0.0
C557 C 0.50616 0.8397 0.23668 0.0
C558 C 0.50719 0.82099 0.252 0.0
C559 C 0.53548 0.80456 0.25447 0.0
H560 H 0.1287 0.72414 0.2391 0.0
H561 H 0.24231 0.75929 0.20827 0.0
H562 H 0.1039 0.6466 0.23476 0.0
H563 H 0.21793 0.68198 0.20419 0.0
H564 H 0.15717 0.53818 0.19407 0.0
H565 H 0.16415 0.61069 0.19313 0.0
H566 H 0.13174 0.60041 0.24542 0.0
H567 H 0.12411 0.5278 0.24631 0.0
C568 C 0.14796 0.7154 0.23113 0.0
C569 C 0.18785 0.74798 0.22424 0.0
C570 C 0.13388 0.67092 0.22875 0.0
C571 C 0.15927 0.65806 0.21936 0.0
C572 C 0.19742 0.69065 0.21143 0.0
C573 C 0.21153 0.73509 0.21384 0.0
C574 C 0.15096 0.55115 0.20532 0.0
C575 C 0.1406 0.52742 0.22033 0.0
C576 C 0.15508 0.59277 0.20477 0.0
C577 C 0.14882 0.61153 0.21921 0.0
C578 C 0.13632 0.5868 0.23401 0.0
C579 C 0.13223 0.54523 0.23456 0.0
H580 H 0.51732 0.61567 0.25299 0.0
H581 H 0.49783 0.64174 0.20209 0.0
H582 H 0.44 0.55951 0.25487 0.0
H583 H 0.4203 0.58631 0.20412 0.0
H584 H 0.28288 0.46606 0.21098 0.0
H585 H 0.3631 0.50857 0.20767 0.0
H586 H 0.37453 0.56508 0.25641 0.0
H587 H 0.29572 0.52282 0.25976 0.0
C588 C 0.4967 0.60912 0.24214 0.0
C589 C 0.51371 0.63366 0.22747 0.0
C590 C 0.45228 0.57704 0.24323 0.0
C591 C 0.42372 0.56881 0.22972 0.0
C592 C 0.44131 0.59157 0.21474 0.0
C593 C 0.4858 0.62361 0.21362 0.0
C594 C 0.30273 0.48726 0.22101 0.0
C595 C 0.28284 0.49117 0.23559 0.0
C596 C 0.34859 0.51172 0.2191 0.0
C597 C 0.37534 0.54011 0.23182 0.0
C598 C 0.35523 0.54305 0.24648 0.0
C599 C 0.30976 0.51902 0.24832 0.0
H600 H 0.78809 0.46348 0.73837 0.0
H601 H 0.88494 0.56605 0.76967 0.0
H602 H 0.83104 0.42713 0.73824 0.0
H603 H 0.92906 0.5299 0.76918 0.0
H604 H 0.96171 0.41752 0.77902 0.0
H605 H 0.92924 0.46458 0.77891 0.0
H606 H 0.89754 0.43583 0.72681 0.0
H607 H 0.92853 0.38762 0.72709 0.0
C608 C 0.81878 0.47844 0.74517 0.0
C609 C 0.83322 0.51776 0.75397 0.0
C610 C 0.84369 0.45777 0.74496 0.0
C611 C 0.88398 0.47601 0.75342 0.0
C612 C 0.89816 0.51499 0.76253 0.0
C613 C 0.87294 0.53567 0.76282 0.0
C614 C 0.94869 0.42205 0.76745 0.0
C615 C 0.94718 0.39847 0.7531 0.0
C616 C 0.93008 0.44907 0.76739 0.0
C617 C 0.90994 0.45325 0.75295 0.0
C618 C 0.91164 0.43233 0.73828 0.0
C619 C 0.92976 0.40501 0.73838 0.0
H620 H 0.63267 0.50779 0.74777 0.0
H621 H 0.66909 0.4458 0.78605 0.0
H622 H 0.56513 0.43856 0.74283 0.0
H623 H 0.60265 0.37645 0.78073 0.0
H624 H 0.47829 0.25412 0.77053 0.0
H625 H 0.52449 0.32947 0.78028 0.0
H626 H 0.55424 0.3739 0.72926 0.0
H627 H 0.5074 0.29948 0.71963 0.0
C628 C 0.62599 0.47953 0.75528 0.0
C629 C 0.65663 0.482 0.76706 0.0
C630 C 0.58736 0.43982 0.75242 0.0
C631 C 0.57879 0.40169 0.76116 0.0
C632 C 0.6079 0.40512 0.77383 0.0
C633 C 0.64631 0.4449 0.77679 0.0
C634 C 0.49388 0.28022 0.76143 0.0
C635 C 0.48983 0.27078 0.74432 0.0
C636 C 0.52055 0.32334 0.76701 0.0
C637 C 0.54358 0.35773 0.75557 0.0
C638 C 0.53678 0.34848 0.73846 0.0
C639 C 0.51016 0.30557 0.73291 0.0
H640 H 0.58528 0.17932 0.7731 0.0
H641 H 0.55999 0.13385 0.72222 0.0
H642 H 0.66067 0.19499 0.77048 0.0
H643 H 0.6353 0.14851 0.71971 0.0
H644 H 0.78553 0.23579 0.71513 0.0
H645 H 0.70772 0.21062 0.7178 0.0
H646 H 0.70845 0.16486 0.76764 0.0
H647 H 0.78707 0.19125 0.76509 0.0
C648 C 0.59562 0.17214 0.76139 0.0
C649 C 0.56651 0.15555 0.74783 0.0
C650 C 0.63892 0.18086 0.75993 0.0
C651 C 0.65437 0.17318 0.74487 0.0
C652 C 0.62486 0.1555 0.73143 0.0
C653 C 0.58152 0.14684 0.73289 0.0
C654 C 0.76914 0.22005 0.72664 0.0
C655 C 0.79276 0.21583 0.73994 0.0
C656 C 0.72425 0.20528 0.72813 0.0
C657 C 0.70155 0.18574 0.74296 0.0
C658 C 0.72491 0.18031 0.75611 0.0
C659 C 0.76996 0.19513 0.75461 0.0
H660 H 0.06205 0.28079 0.59553 0.0
H661 H 0.05657 0.26422 0.54212 0.0
H662 H 0.12042 0.26259 0.59694 0.0
H663 H 0.11373 0.24498 0.54358 0.0
H664 H 0.22951 0.22621 0.54941 0.0
H665 H 0.18894 0.26568 0.54962 0.0
H666 H 0.11779 0.19288 0.59326 0.0
H667 H 0.15891 0.15439 0.5933 0.0
C668 C 0.07385 0.27409 0.58407 0.0
C669 C 0.05427 0.27323 0.56875 0.0
C670 C 0.10703 0.26336 0.58489 0.0
C671 C 0.1212 0.25168 0.5704 0.0
C672 C 0.1038 0.25404 0.55496 0.0
C673 C 0.07074 0.26477 0.55415 0.0
C674 C 0.20549 0.21897 0.55913 0.0
C675 C 0.19706 0.18686 0.57123 0.0
C676 C 0.18226 0.24155 0.55925 0.0
C677 C 0.15012 0.23239 0.57145 0.0
C678 C 0.14281 0.20128 0.58385 0.0
C679 C 0.16607 0.17883 0.58376 0.0
H680 H 0.87273 0.91925 0.59748 0.0
H681 H 0.80013 0.90519 0.55242 0.0
H682 H 0.88824 0.99445 0.60032 0.0
H683 H 0.81388 0.9799 0.5556 0.0
H684 H 0.88836 0.13139 0.55646 0.0
H685 H 0.86755 0.05429 0.55339 0.0
H686 H 0.86004 0.03968 0.60692 0.0
H687 H 0.88279 0.11691 0.60987 0.0
C688 C 0.85947 0.932 0.5883 0.0
C689 C 0.83519 0.90607 0.57472 0.0
C690 C 0.86814 0.97524 0.58997 0.0
C691 C 0.85229 0.99373 0.57822 0.0
C692 C 0.82735 0.96739 0.56477 0.0
C693 C 0.81913 0.92427 0.56301 0.0
C694 C 0.88184 0.11149 0.56753 0.0
C695 C 0.8876 0.13037 0.5834 0.0
C696 C 0.86974 0.06712 0.5658 0.0
C697 C 0.8625 0.0404 0.57991 0.0
C698 C 0.86648 0.05916 0.59574 0.0
C699 C 0.87919 0.10351 0.59745 0.0
H700 H 0.12261 0.03082 0.53041 0.0
H701 H 0.20048 0.9827 0.55406 0.0
H702 H 0.05717 0.9597 0.53414 0.0
H703 H 0.13513 0.91054 0.55715 0.0
H704 H 1.00637 0.83227 0.58772 0.0
H705 H 0.07614 0.88595 0.57588 0.0
H706 H 0.01146 0.88359 0.52983 0.0
H707 H 0.94092 0.83084 0.54205 0.0
C708 C 0.12597 1.00457 0.53592 0.0
C709 C 0.16644 0.0126 0.54232 0.0
C710 C 0.08837 0.96351 0.53798 0.0
C711 C 0.09058 0.92942 0.54626 0.0
C712 C 0.13198 0.93636 0.55114 0.0
C713 C 0.16948 0.97764 0.5493 0.0
C714 C 1.00702 0.84243 0.57495 0.0
C715 C 0.96795 0.82806 0.56598 0.0
C716 C 0.04729 0.87311 0.56806 0.0
C717 C 0.04953 0.88982 0.55194 0.0
C718 C 0.01084 0.87228 0.54242 0.0
C719 C 0.97042 0.84182 0.54938 0.0
H720 H 0.46829 0.0861 0.03005 0.0
H721 H 0.5474 0.02504 0.03618 0.0
H722 H 0.46689 0.07547 0.0001 0.0
H723 H 0.54459 0.01252 0.00601 0.0
H724 H 0.54668 0.02294 0.94778 0.0
H725 H 0.56206 0.04305 0.97723 0.0
H726 H 0.42676 0.00839 0.9845 0.0
H727 H 0.41183 0.98955 0.95531 0.0
C728 C 0.486 0.07102 0.02487 0.0
C729 C 0.5077 0.05613 0.03529 0.0
C730 C 0.48487 0.06453 0.00777 0.0
C731 C 0.50456 0.04203 0.00076 0.0
C732 C 0.52906 0.02989 0.01107 0.0
C733 C 0.53079 0.03711 0.02828 0.0
C734 C 0.52027 0.01942 0.95575 0.0
C735 C 0.47815 0.00514 0.94923 0.0
C736 C 0.52909 0.03092 0.97258 0.0
C737 C 0.49587 0.0282 0.98309 0.0
C738 C 0.45344 0.01219 0.97662 0.0
C739 C 0.44476 1.00103 0.9599 0.0
H740 H 0.93157 0.43192 0.95755 0.0
H741 H 0.06532 0.53225 0.94691 0.0
H742 H 0.94451 0.44814 0.98704 0.0
H743 H 0.07789 0.54932 0.97646 0.0
H744 H 0.09919 0.51614 0.0299 0.0
H745 H 0.08594 0.51208 0.00015 0.0
H746 H 0.95927 0.50016 0.00905 0.0
H747 H 0.97204 0.50306 0.03896 0.0
C748 C 0.96354 0.45801 0.96146 0.0
C749 C 0.99764 0.48034 0.94988 0.0
C750 C 0.97086 0.4675 0.97839 0.0
C751 C 0.01236 0.49974 0.98412 0.0
C752 C 0.04579 0.52369 0.97246 0.0
C753 C 0.03854 0.51402 0.95552 0.0
C754 C 0.06859 0.51293 0.02555 0.0
C755 C 0.03646 0.50944 0.03683 0.0
C756 C 0.06116 0.51099 0.00846 0.0
C757 C 0.02154 0.5058 0.00222 0.0
C758 C 0.98989 0.50359 0.01348 0.0
C759 C 0.99724 0.50532 0.03062 0.0
H760 H 0.59948 0.50652 0.9449 0.0
H761 H 0.52768 0.57464 0.93627 0.0
H762 H 0.59806 0.51789 0.97465 0.0
H763 H 0.52432 0.58409 0.96613 0.0
H764 H 0.57229 0.63824 0.01829 0.0
H765 H 0.57038 0.62496 0.98856 0.0
H766 H 0.55139 0.49575 -0.00171 0.0
H767 H 0.55517 0.50982 0.02805 0.0
C768 C 0.58295 0.52351 0.94936 0.0
C769 C 0.5636 0.53958 0.9382 0.0
C770 C 0.58181 0.5297 0.96646 0.0
C771 C 0.56093 0.55177 0.97282 0.0
C772 C 0.54119 0.56746 0.96165 0.0
C773 C 0.54275 0.56168 0.94453 0.0
C774 C 0.56756 0.60692 0.0141 0.0
C775 C 0.56407 0.57515 0.02556 0.0
C776 C 0.56617 0.59918 -0.00298 0.0
C777 C 0.56078 0.55929 0.991 0.0
C778 C 0.55638 0.52716 0.00248 0.0
C779 C 0.55827 0.5351 0.01956 0.0
H780 H 0.08629 0.27621 0.36436 0.0
H781 H 0.19501 0.4077 0.37208 0.0
H782 H 0.10009 0.28403 0.33464 0.0
H783 H 0.20936 0.4151 0.34218 0.0
H784 H 0.16753 0.42898 0.28847 0.0
H785 H 0.16983 0.42204 0.31843 0.0
H786 H 0.15126 0.29181 0.3125 0.0
H787 H 0.14796 0.29829 0.28236 0.0
C788 C 0.11346 0.30668 0.35974 0.0
C789 C 0.13915 0.34162 0.37058 0.0
C790 C 0.12167 0.31092 0.34269 0.0
C791 C 0.15577 0.35018 0.33608 0.0
C792 C 0.18254 0.38461 0.34694 0.0
C793 C 0.17436 0.38034 0.36406 0.0
C794 C 0.1643 0.39895 0.2935 0.0
C795 C 0.15676 0.36385 0.28303 0.0
C796 C 0.16611 0.39519 0.31069 0.0
C797 C 0.16045 0.35629 0.31782 0.0
C798 C 0.15513 0.32198 0.30734 0.0
C799 C 0.15338 0.32575 0.29009 0.0
H800 H 0.62339 0.80289 0.37201 0.0
H801 H 0.7629 0.85042 0.36973 0.0
H802 H 0.62086 0.80431 0.34166 0.0
H803 H 0.76008 0.85122 0.33951 0.0
H804 H 0.74576 0.87203 0.28482 0.0
H805 H 0.74621 0.88468 0.31475 0.0
H806 H 0.62927 0.75789 0.32048 0.0
H807 H 0.62839 0.7454 0.29072 0.0
C808 C 0.65358 0.81418 0.36507 0.0
C809 C 0.69322 0.82595 0.37328 0.0
C810 C 0.65207 0.81481 0.34771 0.0
C811 C 0.6902 0.82752 0.33824 0.0
C812 C 0.73023 0.84158 0.34647 0.0
C813 C 0.73172 0.84074 0.3638 0.0
C814 C 0.71995 0.84706 0.29245 0.0
C815 C 0.68731 0.80753 0.28542 0.0
C816 C 0.72028 0.85428 0.30957 0.0
C817 C 0.68776 0.82229 0.31992 0.0
C818 C 0.65443 0.7834 0.31279 0.0
C819 C 0.65426 0.77606 0.29575 0.0
H820 H 0.17466 0.89835 0.28284 0.0
H821 H 0.26416 0.84949 0.29068 0.0
H822 H 0.16226 0.89608 0.31281 0.0
H823 H 0.2524 0.84812 0.3205 0.0
H824 H 0.20651 0.82752 0.37346 0.0
H825 H 0.20019 0.81482 0.34346 0.0
H826 H 0.20868 0.94034 0.3358 0.0
H827 H 0.21412 0.95271 0.36562 0.0
C828 C 0.19137 0.88676 0.29091 0.0
C829 C 0.22084 0.87465 0.28437 0.0
C830 C 0.18435 0.88559 0.30807 0.0
C831 C 0.20657 0.87218 0.31901 0.0
C832 C 0.23442 0.85815 0.3124 0.0
C833 C 0.24147 0.85937 0.29529 0.0
C834 C 0.20643 0.85212 0.36538 0.0
C835 C 0.21146 0.8914 0.37192 0.0
C836 C 0.20295 0.84489 0.3482 0.0
C837 C 0.2042 0.87669 0.33726 0.0
C838 C 0.20714 0.91498 0.34388 0.0
C839 C 0.21072 0.92225 0.361 0.0
H840 H 0.79191 0.60129 0.70262 0.0
H841 H 0.88105 0.73704 0.71517 0.0
H842 H 0.80066 0.62025 0.67333 0.0
H843 H 0.89103 0.75587 0.68565 0.0
H844 H 0.84196 0.77598 0.6344 0.0
H845 H 0.84667 0.76108 0.6637 0.0
H846 H 0.85049 0.6442 0.65021 0.0
H847 H 0.84457 0.6584 0.62097 0.0
C848 C 0.81395 0.63515 0.69913 0.0
C849 C 0.83559 0.66774 0.71128 0.0
C850 C 0.81927 0.64595 0.68229 0.0
C851 C 0.84652 0.6896 0.67714 0.0
C852 C 0.86939 0.72202 0.68924 0.0
C853 C 0.86396 0.71118 0.70615 0.0
C854 C 0.84419 0.74731 0.63768 0.0
C855 C 0.84215 0.71799 0.62538 0.0
C856 C 0.84722 0.73894 0.65447 0.0
C857 C 0.84858 0.70124 0.65929 0.0
C858 C 0.84861 0.67305 0.64692 0.0
C859 C 0.84528 0.68124 0.63016 0.0
H860 H 0.41436 0.1931 0.60488 0.0
H861 H 0.27448 0.11959 0.61402 0.0
H862 H 0.42772 0.19323 0.63474 0.0
H863 H 0.28782 0.11862 0.64354 0.0
H864 H 0.32283 0.15531 0.69725 0.0
H865 H 0.31406 0.16491 0.66774 0.0
H866 H 0.42036 0.1413 0.65612 0.0
H867 H 0.42996 0.13285 0.68558 0.0
C868 C 0.38653 0.17708 0.61323 0.0
C869 C 0.3434 0.15634 0.60705 0.0
C870 C 0.39416 0.17692 0.63031 0.0
C871 C 0.35881 0.156 0.64152 0.0
C872 C 0.31578 0.13569 0.63531 0.0
C873 C 0.30817 0.13592 0.61832 0.0
C874 C 0.34444 0.15233 0.68842 0.0
C875 C 0.37684 0.14294 0.69379 0.0
C876 C 0.33934 0.15771 0.67149 0.0
C877 C 0.36639 0.15366 0.65957 0.0
C878 C 0.39935 0.14517 0.66498 0.0
C879 C 0.40457 0.13995 0.68189 0.0
H880 H 0.90944 0.30996 0.62909 0.0
H881 H 0.8367 0.17065 0.61932 0.0
H882 H 0.91557 0.29552 0.65827 0.0
H883 H 0.84391 0.15599 0.6487 0.0
H884 H 0.8465 0.15982 0.70813 0.0
H885 H 0.82751 0.16492 0.67913 0.0
H886 H 0.96129 0.26727 0.67013 0.0
H887 H 0.97986 0.2628 0.69888 0.0
C888 C 0.89417 0.2762 0.6333 0.0
C889 C 0.87307 0.24143 0.62202 0.0
C890 C 0.89793 0.26791 0.64994 0.0
C891 C 0.88129 0.22467 0.65561 0.0
C892 C 0.85718 0.18962 0.64461 0.0
C893 C 0.85295 0.19798 0.62787 0.0
C894 C 0.87189 0.18275 0.69981 0.0
C895 C 0.91452 0.21133 0.70573 0.0
C896 C 0.86099 0.18575 0.68328 0.0
C897 C 0.89267 0.21726 0.67255 0.0
C898 C 0.93587 0.2436 0.67828 0.0
C899 C 0.94661 0.24083 0.69469 0.0
H900 H 0.25402 0.92514 0.1818 0.0
H901 H 0.37036 0.97175 0.21216 0.0
H902 H 0.30012 0.95472 0.15712 0.0
H903 H 0.41626 1.00252 0.18766 0.0
H904 H 0.4822 0.01224 0.13677 0.0
H905 H 0.43903 0.98351 0.16231 0.0
H906 H 0.34888 0.02449 0.1449 0.0
H907 H 0.39105 0.05169 0.11937 0.0
C908 C 0.28936 0.94185 0.18322 0.0
C909 C 0.30845 0.94628 0.19894 0.0
C910 C 0.31584 0.95908 0.16911 0.0
C911 C 0.36196 0.98137 0.17044 0.0
C912 C 0.38093 0.98524 0.18615 0.0
C913 C 0.35451 0.96782 0.20022 0.0
C914 C 0.45357 0.01567 0.1386 0.0
C915 C 0.43978 0.0339 0.1261 0.0
C916 C 0.42875 0.99916 0.15317 0.0
C917 C 0.39003 1.00102 0.15551 0.0
C918 C 0.37775 0.02135 0.14331 0.0
C919 C 0.4022 0.03738 0.12876 0.0
H920 H 0.12265 0.52597 0.13159 0.0
H921 H 0.99121 0.4156 0.12776 0.0
H922 H 0.13653 0.49188 0.15567 0.0
H923 H 1.00425 0.38214 0.15227 0.0
H924 H 0.03882 0.36611 0.207 0.0
H925 H 0.02325 0.40005 0.18355 0.0
H926 H 0.1405 0.41925 0.15878 0.0
H927 H 0.15605 0.38459 0.18234 0.0
C928 C 0.09672 0.49457 0.13604 0.0
C929 C 0.05616 0.47301 0.12785 0.0
C930 C 0.10461 0.47513 0.14974 0.0
C931 C 0.0717 0.4341 0.15556 0.0
C932 C 0.03017 0.41377 0.14795 0.0
C933 C 0.02253 0.433 0.13409 0.0
C934 C 0.06113 0.37723 0.19648 0.0
C935 C 0.09867 0.37278 0.19645 0.0
C936 C 0.05211 0.39655 0.18309 0.0
C937 C 0.08079 0.4124 0.16948 0.0
C938 C 0.11812 0.40753 0.16927 0.0
C939 C 0.12679 0.38741 0.18261 0.0
H940 H 0.67746 0.6872 0.20191 0.0
H941 H 0.68246 0.80402 0.18237 0.0
H942 H 0.65918 0.65397 0.17448 0.0
H943 H 0.66256 0.77003 0.15488 0.0
H944 H 0.66595 0.71099 0.10481 0.0
H945 H 0.68871 0.74613 0.13188 0.0
H946 H 0.59857 0.62329 0.1558 0.0
H947 H 0.57692 0.58778 0.12871 0.0
C948 C 0.67455 0.70577 0.19173 0.0
C949 C 0.6812 0.74816 0.19429 0.0
C950 C 0.66374 0.68656 0.17602 0.0
C951 C 0.6589 0.70909 0.16252 0.0
C952 C 0.66645 0.75193 0.16499 0.0
C953 C 0.67772 0.77138 0.18073 0.0
C954 C 0.65108 0.69144 0.11585 0.0
C955 C 0.61965 0.64658 0.11463 0.0
C956 C 0.66393 0.71169 0.13137 0.0
C957 C 0.64545 0.68759 0.146 0.0
C958 C 0.61401 0.64267 0.14477 0.0
C959 C 0.60142 0.62232 0.12925 0.0
H960 H 0.94369 0.33435 0.88236 0.0
H961 H 0.01062 0.44663 0.84973 0.0
H962 H 0.91776 0.28575 0.85831 0.0
H963 H 0.98485 0.39783 0.82568 0.0
H964 H 0.9103 0.30407 0.78498 0.0
H965 H 0.91678 0.34495 0.81037 0.0
H966 H 0.95715 0.26473 0.83726 0.0
H967 H 0.95092 0.22405 0.81163 0.0
C968 C 0.95236 0.34874 0.87004 0.0
C969 C 0.97939 0.39436 0.86791 0.0
C970 C 0.93766 0.32082 0.85631 0.0
C971 C 0.94945 0.33799 0.84018 0.0
C972 C 0.9749 0.38373 0.838 0.0
C973 C 0.98986 0.41167 0.85175 0.0
C974 C 0.92011 0.29502 0.7964 0.0
C975 C 0.93109 0.26182 0.79645 0.0
C976 C 0.92373 0.31827 0.81088 0.0
C977 C 0.93819 0.30848 0.82567 0.0
C978 C 0.94582 0.27284 0.826 0.0
C979 C 0.94227 0.24957 0.81142 0.0
H980 H 0.64671 0.6423 0.86424 0.0
H981 H 0.58588 0.50639 0.84963 0.0
H982 H 0.70786 0.66049 0.84516 0.0
H983 H 0.64684 0.52451 0.83038 0.0
H984 H 0.7181 0.60236 0.78112 0.0
H985 H 0.66641 0.57337 0.80393 0.0
H986 H 0.77199 0.64334 0.83891 0.0
H987 H 0.82496 0.67093 0.81579 0.0
C988 C 0.64674 0.61636 0.85701 0.0
C989 C 0.61187 0.57301 0.85828 0.0
C990 C 0.68187 0.62661 0.8463 0.0
C991 C 0.68213 0.5938 0.83645 0.0
C992 C 0.64743 0.55032 0.83792 0.0
C993 C 0.61268 0.53998 0.84885 0.0
C994 C 0.73085 0.61003 0.79365 0.0
C995 C 0.77588 0.63809 0.79661 0.0
C996 C 0.70104 0.59365 0.80675 0.0
C997 C 0.71527 0.60597 0.82315 0.0
C998 C 0.76034 0.63332 0.82631 0.0
C999 C 0.79054 0.64898 0.81312 0.0
H1000 H 0.4111 0.1365 0.79608 0.0
H1001 H 0.37058 0.01266 0.77173 0.0
H1002 H 0.42773 0.10845 0.82147 0.0
H1003 H 0.38587 0.98444 0.79718 0.0
H1004 H 0.36608 0.95206 0.85669 0.0
H1005 H 0.35088 0.97718 0.83041 0.0
H1006 H 0.48823 0.07373 0.82551 0.0
H1007 H 0.50384 0.04762 0.8516 0.0
C1008 C 0.4051 0.10316 0.79628 0.0
C1009 C 0.38951 0.07662 0.78205 0.0
C1010 C 0.41498 0.08736 0.81067 0.0
C1011 C 0.40835 0.04456 0.81107 0.0
C1012 C 0.3914 0.01761 0.79704 0.0
C1013 C 0.38258 0.0337 0.78258 0.0
C1014 C 0.39314 0.97792 0.84977 0.0
C1015 C 0.43614 0.99768 0.85601 0.0
C1016 C 0.3844 0.99238 0.83486 0.0
C1017 C 0.41837 0.02757 0.82619 0.0
C1018 C 0.46159 0.04667 0.83214 0.0
C1019 C 0.47055 0.03141 0.84687 0.0
H1020 H 0.98415 0.35611 0.53707 0.0
H1021 H 0.89342 0.22396 0.52076 0.0
H1022 H 0.02721 0.36907 0.5119 0.0
H1023 H 0.93714 0.23688 0.49549 0.0
H1024 H 1.00218 0.29655 0.44505 0.0
H1025 H 0.95791 0.28074 0.46997 0.0
H1026 H 0.07572 0.34502 0.49979 0.0
H1027 H 0.12054 0.36167 0.47462 0.0
C1028 C 0.97323 0.32987 0.52803 0.0
C1029 C 0.93543 0.28894 0.5309 0.0
C1030 C 0.99822 0.33719 0.5137 0.0
C1031 C 0.98597 0.3038 0.50186 0.0
C1032 C 0.94731 0.26328 0.50441 0.0
C1033 C 0.92218 0.25592 0.51882 0.0
C1034 C 0.01884 0.3073 0.4569 0.0
C1035 C 0.06499 0.33066 0.45785 0.0
C1036 C 0.99332 0.29788 0.47121 0.0
C1037 C 0.01328 0.31174 0.48682 0.0
C1038 C 0.05944 0.33445 0.48786 0.0
C1039 C 0.0851 0.3438 0.47349 0.0
H1040 H 0.6941 0.8235 0.47408 0.0
H1041 H 0.71336 0.72212 0.45239 0.0
H1042 H 0.7233 0.81486 0.50048 0.0
H1043 H 0.74045 0.71199 0.47877 0.0
H1044 H 0.82219 0.72703 0.52377 0.0
H1045 H 0.79981 0.74349 0.49731 0.0
H1046 H 0.70446 0.7655 0.52299 0.0
H1047 H 0.7284 0.75113 0.54943 0.0
C1048 C 0.70426 0.79918 0.47501 0.0
C1049 C 0.70146 0.77349 0.46122 0.0
C1050 C 0.72083 0.79406 0.49013 0.0
C1051 C 0.73428 0.76271 0.49178 0.0
C1052 C 0.73132 0.73708 0.47791 0.0
C1053 C 0.7154 0.74262 0.4628 0.0
C1054 C 0.79653 0.73549 0.52372 0.0
C1055 C 0.77691 0.73763 0.53863 0.0
C1056 C 0.78354 0.74477 0.50857 0.0
C1057 C 0.75011 0.75561 0.50798 0.0
C1058 C 0.73078 0.75801 0.52296 0.0
C1059 C 0.74424 0.7494 0.53812 0.0
H1060 H 0.33646 0.01094 0.45017 0.0
H1061 H 0.20908 0.92477 0.47168 0.0
H1062 H 0.3528 0.06324 0.47241 0.0
H1063 H 0.22499 0.97837 0.49402 0.0
H1064 H 0.2982 0.06909 0.53988 0.0
H1065 H 0.27147 0.013 0.51819 0.0
H1066 H 0.33199 0.11486 0.48089 0.0
H1067 H 0.35923 0.17055 0.50275 0.0
C1068 C 0.31189 1.00321 0.45973 0.0
C1069 C 0.27142 0.96394 0.45917 0.0
C1070 C 0.32105 0.03348 0.47239 0.0
C1071 C 0.28979 0.02561 0.48478 0.0
C1072 C 0.24974 0.98546 0.48462 0.0
C1073 C 0.24067 0.95471 0.47192 0.0
C1074 C 0.30427 0.07932 0.52698 0.0
C1075 C 0.3299 0.12393 0.52287 0.0
C1076 C 0.28929 0.04724 0.51457 0.0
C1077 C 0.30001 0.05935 0.49781 0.0
C1078 C 0.32397 0.10433 0.49371 0.0
C1079 C 0.33927 0.13627 0.50615 0.0
H1080 H 0.48976 0.3788 0.05391 0.0
H1081 H 0.55821 0.42452 0.10066 0.0
H1082 H 0.4775 0.30548 0.05962 0.0
H1083 H 0.54757 0.35183 0.10611 0.0
H1084 H 0.50044 0.21021 0.11767 0.0
H1085 H 0.4994 0.27799 0.11286 0.0
H1086 H 0.51606 0.26696 0.0601 0.0
H1087 H 0.51529 0.19826 0.06492 0.0
C1088 C 0.50203 0.37316 0.06546 0.0
C1089 C 0.52504 0.40766 0.07681 0.0
C1090 C 0.49533 0.3311 0.06868 0.0
C1091 C 0.51184 0.32243 0.08327 0.0
C1092 C 0.53375 0.35676 0.09484 0.0
C1093 C 0.54005 0.3987 0.09169 0.0
C1094 C 0.50335 0.22199 0.10502 0.0
C1095 C 0.50812 0.19881 0.09169 0.0
C1096 C 0.50312 0.26117 0.10225 0.0
C1097 C 0.50812 0.27857 0.08609 0.0
C1098 C 0.51155 0.25456 0.07271 0.0
C1099 C 0.51132 0.21511 0.07547 0.0
H1100 H 0.70646 0.14398 0.07316 0.0
H1101 H 0.65192 0.19554 0.10882 0.0
H1102 H 0.77945 0.20694 0.07805 0.0
H1103 H 0.7243 0.25872 0.11334 0.0
H1104 H 0.86309 0.35699 0.12632 0.0
H1105 H 0.79653 0.28545 0.12431 0.0
H1106 H 0.81702 0.28395 0.07134 0.0
H1107 H 0.88409 0.35478 0.07343 0.0
C1108 C 0.71006 0.16851 0.08214 0.0
C1109 C 0.67327 0.16484 0.09051 0.0
C1110 C 0.75186 0.20474 0.08487 0.0
C1111 C 0.75778 0.23812 0.096 0.0
C1112 C 0.72117 0.23347 0.10483 0.0
C1113 C 0.6795 0.19727 0.10215 0.0
C1114 C 0.85365 0.34114 0.11428 0.0
C1115 C 0.87869 0.36178 0.10001 0.0
C1116 C 0.81537 0.30021 0.11311 0.0
C1117 C 0.80112 0.27905 0.09764 0.0
C1118 C 0.82718 0.29898 0.08349 0.0
C1119 C 0.86556 0.3398 0.08467 0.0
H1120 H 0.70808 0.53956 0.11414 0.0
H1121 H 0.72192 0.58386 0.06316 0.0
H1122 H 0.77512 0.5359 0.11149 0.0
H1123 H 0.78949 0.58102 0.06064 0.0
H1124 H 0.86225 0.50249 0.05623 0.0
H1125 H 0.80484 0.52115 0.05911 0.0
H1126 H 0.85483 0.57658 0.10761 0.0
H1127 H 0.9122 0.5571 0.10484 0.0
C1128 C 0.72582 0.54926 0.10245 0.0
C1129 C 0.70935 0.56151 0.0888 0.0
C1130 C 0.76444 0.54742 0.10097 0.0
C1131 C 0.78748 0.55782 0.08581 0.0
C1132 C 0.77212 0.57211 0.07241 0.0
C1133 C 0.73349 0.57394 0.07388 0.0
C1134 C 0.86137 0.51906 0.06745 0.0
C1135 C 0.89164 0.52802 0.08036 0.0
C1136 C 0.82858 0.53008 0.06905 0.0
C1137 C 0.82517 0.55032 0.0836 0.0
C1138 C 0.85631 0.56058 0.09631 0.0
C1139 C 0.8893 0.54965 0.09469 0.0
H1140 H 0.37432 0.48843 0.9273 0.0
H1141 H 0.38883 0.52191 0.87506 0.0
H1142 H 0.29686 0.46674 0.92591 0.0
H1143 H 0.31189 0.50157 0.87376 0.0
H1144 H 0.16581 0.43885 0.87245 0.0
H1145 H 0.2374 0.44432 0.87472 0.0
H1146 H 0.25416 0.50193 0.92358 0.0
H1147 H 0.18192 0.49507 0.92149 0.0
C1148 C 0.36093 0.49087 0.91548 0.0
C1149 C 0.38789 0.50715 0.90131 0.0
C1150 C 0.31653 0.47871 0.91471 0.0
C1151 C 0.29802 0.4827 0.89976 0.0
C1152 C 0.3247 0.49747 0.88545 0.0
C1153 C 0.36902 0.50939 0.8862 0.0
C1154 C 0.18451 0.45209 0.88378 0.0
C1155 C 0.16826 0.46679 0.89675 0.0
C1156 C 0.22575 0.45552 0.88504 0.0
C1157 C 0.25197 0.4741 0.89924 0.0
C1158 C 0.23481 0.48703 0.91251 0.0
C1159 C 0.19337 0.48325 0.91131 0.0
H1160 H 0.53954 0.88034 0.93694 0.0
H1161 H 0.54904 0.89247 0.88334 0.0
H1162 H 0.56474 0.82735 0.93585 0.0
H1163 H 0.5737 0.83898 0.88229 0.0
H1164 H 0.6317 0.75093 0.88552 0.0
H1165 H 0.63027 0.81889 0.89019 0.0
H1166 H 0.52401 0.75125 0.9253 0.0
H1167 H 0.52559 0.68386 0.92076 0.0
C1168 C 0.5476 0.87219 0.92494 0.0
C1169 C 0.54151 0.88991 0.91019 0.0
C1170 C 0.56203 0.84186 0.92434 0.0
C1171 C 0.57065 0.82871 0.90899 0.0
C1172 C 0.56758 0.84875 0.89432 0.0
C1173 C 0.55314 0.87913 0.89491 0.0
C1174 C 0.60872 0.75092 0.89449 0.0
C1175 C 0.57839 0.71205 0.90263 0.0
C1176 C 0.60779 0.78971 0.8971 0.0
C1177 C 0.57693 0.79026 0.90804 0.0
C1178 C 0.54849 0.75198 0.91692 0.0
C1179 C 0.54914 0.71326 0.91421 0.0
H1180 H 0.35433 0.81203 0.86947 0.0
H1181 H 0.34164 0.85581 0.91829 0.0
H1182 H 0.28589 0.74341 0.87364 0.0
H1183 H 0.27243 0.78725 0.92235 0.0
H1184 H 0.18826 0.63759 0.93156 0.0
H1185 H 0.24964 0.71119 0.92707 0.0
H1186 H 0.20693 0.70833 0.87647 0.0
H1187 H 0.14561 0.63382 0.8809 0.0
C1188 C 0.33668 0.80727 0.88104 0.0
C1189 C 0.35378 0.83941 0.8936 0.0
C1190 C 0.29713 0.76792 0.88338 0.0
C1191 C 0.27352 0.75954 0.89836 0.0
C1192 C 0.28999 0.79226 0.91074 0.0
C1193 C 0.3296 0.83171 0.90839 0.0
C1194 C 0.19158 0.6527 0.9195 0.0
C1195 C 0.16205 0.62954 0.90656 0.0
C1196 C 0.22676 0.6952 0.91696 0.0
C1197 C 0.23351 0.71584 0.90138 0.0
C1198 C 0.20312 0.69325 0.88857 0.0
C1199 C 0.16775 0.65063 0.89113 0.0
H1200 H 0.20996 0.71901 0.39381 0.0
H1201 H 0.17036 0.72383 0.44431 0.0
H1202 H 0.19313 0.64391 0.39808 0.0
H1203 H 0.15248 0.64779 0.44851 0.0
H1204 H 0.19007 0.53913 0.45499 0.0
H1205 H 0.19329 0.60933 0.45133 0.0
H1206 H 0.13594 0.5691 0.40244 0.0
H1207 H 0.13368 0.49916 0.40594 0.0
C1208 C 0.19702 0.70382 0.40578 0.0
C1209 C 0.19182 0.72761 0.41876 0.0
C1210 C 0.18703 0.66051 0.40819 0.0
C1211 C 0.17152 0.63972 0.42366 0.0
C1212 C 0.16488 0.663 0.4365 0.0
C1213 C 0.17485 0.70647 0.43407 0.0
C1214 C 0.17772 0.54503 0.44351 0.0
C1215 C 0.16203 0.51365 0.43069 0.0
C1216 C 0.17928 0.58524 0.44146 0.0
C1217 C 0.16513 0.59506 0.42654 0.0
C1218 C 0.14777 0.56292 0.41398 0.0
C1219 C 0.14627 0.52271 0.41602 0.0
H1220 H 0.4872 0.67048 0.45514 0.0
H1221 H 0.53137 0.65732 0.40642 0.0
H1222 H 0.41797 0.60282 0.45077 0.0
H1223 H 0.46235 0.58893 0.4022 0.0
H1224 H 0.31259 0.51297 0.39222 0.0
H1225 H 0.38765 0.5708 0.39715 0.0
H1226 H 0.38037 0.52374 0.44738 0.0
H1227 H 0.30444 0.46608 0.44253 0.0
C1228 C 0.48247 0.65277 0.44359 0.0
C1229 C 0.51468 0.66962 0.43105 0.0
C1230 C 0.4428 0.61372 0.44114 0.0
C1231 C 0.43439 0.59051 0.42608 0.0
C1232 C 0.46745 0.60635 0.41384 0.0
C1233 C 0.50713 0.64546 0.41629 0.0
C1234 C 0.32707 0.51453 0.40427 0.0
C1235 C 0.30233 0.48508 0.41702 0.0
C1236 C 0.37035 0.5476 0.40707 0.0
C1237 C 0.3901 0.55212 0.42269 0.0
C1238 C 0.36596 0.52155 0.43527 0.0
C1239 C 0.32254 0.48832 0.43245 0.0
H1240 H 0.55922 0.88936 0.39496 0.0
H1241 H 0.53527 0.82851 0.44345 0.0
H1242 H 0.50009 0.90524 0.39959 0.0
H1243 H 0.47523 0.84272 0.44783 0.0
H1244 H 0.38443 0.89535 0.45669 0.0
H1245 H 0.45259 0.89436 0.45269 0.0
H1246 H 0.42265 0.86724 0.40038 0.0
H1247 H 0.35557 0.87002 0.4043 0.0
C1248 C 0.54148 0.87956 0.40665 0.0
C1249 C 0.55191 0.85751 0.4188 0.0
C1250 C 0.50731 0.88837 0.40926 0.0
C1251 C 0.48241 0.87497 0.42404 0.0
C1252 C 0.49389 0.85416 0.43639 0.0
C1253 C 0.5283 0.84575 0.43384 0.0
C1254 C 0.39271 0.88969 0.4443 0.0
C1255 C 0.36444 0.88257 0.43084 0.0
C1256 C 0.43169 0.88882 0.44201 0.0
C1257 C 0.44318 0.88032 0.42623 0.0
C1258 C 0.41542 0.87451 0.41268 0.0
C1259 C 0.37669 0.87585 0.41494 0.0
H1260 H 0.85728 0.81272 0.19886 0.0
H1261 H 0.84992 0.81994 0.25232 0.0
H1262 H 0.92659 0.81343 0.2015 0.0
H1263 H 0.91995 0.82226 0.25497 0.0
H1264 H 0.03511 0.80044 0.25667 0.0
H1265 H 0.96004 0.78496 0.25257 0.0
H1266 H 1.0006 0.86427 0.20794 0.0
H1267 H 0.07511 0.87837 0.21174 0.0
C1268 C 0.87036 0.81426 0.21119 0.0
C1269 C 0.84812 0.81651 0.22537 0.0
C1270 C 0.91033 0.81498 0.21271 0.0
C1271 C 0.92934 0.81836 0.22844 0.0
C1272 C 0.90624 0.81909 0.24265 0.0
C1273 C 0.86606 0.81798 0.24114 0.0
C1274 C 0.02784 0.81404 0.24585 0.0
C1275 C 0.06122 0.8408 0.23457 0.0
C1276 C 0.9848 0.80544 0.24356 0.0
C1277 C 0.97408 0.82367 0.23001 0.0
C1278 C 1.00726 0.84913 0.21842 0.0
C1279 C 0.0502 0.85743 0.22063 0.0
H1280 H 0.18582 0.03506 0.20103 0.0
H1281 H 0.2345 0.04495 0.25112 0.0
H1282 H 0.18267 0.10186 0.20521 0.0
H1283 H 0.23242 0.11257 0.25517 0.0
H1284 H 0.1578 0.18822 0.26307 0.0
H1285 H 0.17557 0.13064 0.25875 0.0
H1286 H 0.22293 0.1804 0.20934 0.0
H1287 H 0.20403 0.23774 0.21354 0.0
C1288 C 0.19653 0.05186 0.21286 0.0
C1289 C 0.20997 0.03435 0.2258 0.0
C1290 C 0.19502 0.09043 0.21522 0.0
C1291 C 0.20704 0.11256 0.23057 0.0
C1292 C 0.22223 0.096 0.24328 0.0
C1293 C 0.22363 0.05733 0.24093 0.0
C1294 C 0.17247 0.18729 0.25133 0.0
C1295 C 0.17913 0.21741 0.2386 0.0
C1296 C 0.18298 0.15435 0.2489 0.0
C1297 C 0.20053 0.15066 0.23366 0.0
C1298 C 0.20888 0.1819 0.22114 0.0
C1299 C 0.19833 0.21495 0.22359 0.0
H1300 H 0.80348 0.00684 0.25732 0.0
H1301 H 0.84016 0.96314 0.21308 0.0
H1302 H 0.86375 0.0813 0.25254 0.0
H1303 H 0.90116 0.03709 0.20859 0.0
H1304 H 0.99106 0.18054 0.19763 0.0
H1305 H 0.92329 0.11065 0.20116 0.0
H1306 H 0.94171 0.12121 0.25449 0.0
H1307 H 0.0086 0.19169 0.25096 0.0
C1308 C 0.82426 0.01313 0.24652 0.0
C1309 C 0.81702 0.97893 0.23562 0.0
C1310 C 0.85907 0.05583 0.24384 0.0
C1311 C 0.88769 0.06535 0.23024 0.0
C1312 C 0.87958 0.03129 0.21908 0.0
C1313 C 0.84463 0.9887 0.2217 0.0
C1314 C 0.9804 0.16814 0.21012 0.0
C1315 C 1.00538 0.19167 0.224 0.0
C1316 C 0.94164 0.12787 0.21215 0.0
C1317 C 0.92701 0.10993 0.22811 0.0
C1318 C 0.95148 0.13413 0.24201 0.0
C1319 C 0.99008 0.17454 0.23999 0.0
H1320 H 0.8281 0.81454 0.7458 0.0
H1321 H 0.89228 0.86625 0.79299 0.0
H1322 H 0.82655 0.88197 0.74068 0.0
H1323 H 0.89152 0.93398 0.78768 0.0
H1324 H 0.86279 0.04296 0.77811 0.0
H1325 H 0.8464 0.96829 0.78415 0.0
H1326 H 0.88352 0.95651 0.73397 0.0
H1327 H 0.89904 0.03055 0.72784 0.0
C1328 C 0.84152 0.84012 0.75515 0.0
C1329 C 0.86076 0.83528 0.76973 0.0
C1330 C 0.84077 0.8788 0.75218 0.0
C1331 C 0.85927 0.91344 0.7637 0.0
C1332 C 0.87662 0.90774 0.77863 0.0
C1333 C 0.87732 0.86902 0.78162 0.0
C1334 C 0.86683 0.02417 0.76831 0.0
C1335 C 0.88257 0.04277 0.75253 0.0
C1336 C 0.85765 0.98151 0.7718 0.0
C1337 C 0.86391 0.95662 0.75958 0.0
C1338 C 0.87786 0.97462 0.74361 0.0
C1339 C 0.88707 0.01722 0.74013 0.0
H1340 H 0.22782 0.98442 0.73126 0.0
H1341 H 0.20244 0.99566 0.78313 0.0
H1342 H 0.15743 0.9164 0.72929 0.0
H1343 H 0.13181 0.92833 0.78106 0.0
H1344 H 0.01557 0.79185 0.77534 0.0
H1345 H 0.09279 0.84918 0.77698 0.0
H1346 H 0.0818 0.89933 0.72922 0.0
H1347 H 1.00538 0.84188 0.72744 0.0
C1348 C 0.20744 0.9722 0.74228 0.0
C1349 C 0.22059 0.99572 0.75731 0.0
C1350 C 0.16699 0.93331 0.74113 0.0
C1351 C 0.13877 0.91707 0.75498 0.0
C1352 C 0.15286 0.9396 0.77019 0.0
C1353 C 0.1933 0.97844 0.77134 0.0
C1354 C 0.02989 0.81472 0.76509 0.0
C1355 C 1.00423 0.81246 0.75132 0.0
C1356 C 0.07405 0.84773 0.76607 0.0
C1357 C 0.09347 0.87902 0.75327 0.0
C1358 C 0.06816 0.87553 0.73922 0.0
C1359 C 0.02414 0.84269 0.73825 0.0
H1360 H 0.20667 0.14426 0.72038 0.0
H1361 H 0.25508 0.17952 0.77064 0.0
H1362 H 0.14815 0.15964 0.72648 0.0
H1363 H 0.19656 0.19591 0.77671 0.0
H1364 H 0.05114 0.15811 0.78615 0.0
H1365 H 0.11794 0.15579 0.78069 0.0
H1366 H 0.12879 0.21461 0.73245 0.0
H1367 H 0.06115 0.21605 0.7378 0.0
C1368 C 0.20524 0.15591 0.73271 0.0
C1369 C 0.2356 0.16038 0.74504 0.0
C1370 C 0.17169 0.16509 0.73618 0.0
C1371 C 0.16733 0.179 0.75211 0.0
C1372 C 0.1985 0.18476 0.76434 0.0
C1373 C 0.23229 0.17566 0.76084 0.0
C1374 C 0.06796 0.17104 0.77443 0.0
C1375 C 0.05042 0.18697 0.76237 0.0
C1376 C 0.10659 0.16996 0.77134 0.0
C1377 C 0.12887 0.18474 0.75607 0.0
C1378 C 0.11223 0.20227 0.74425 0.0
C1379 C 0.07355 0.2034 0.74736 0.0
H1380 H 0.48996 0.11328 0.53744 0.0
H1381 H 0.51469 0.18011 0.58471 0.0
H1382 H 0.55653 0.10847 0.5409 0.0
H1383 H 0.58069 0.17474 0.58821 0.0
H1384 H 0.68254 0.13465 0.5947 0.0
H1385 H 0.60677 0.11792 0.59104 0.0
H1386 H 0.63783 0.17197 0.54139 0.0
H1387 H 0.71364 0.18915 0.54503 0.0
C1388 C 0.50913 0.12617 0.54869 0.0
C1389 C 0.49745 0.14741 0.56075 0.0
C1390 C 0.54717 0.12348 0.55063 0.0
C1391 C 0.57354 0.14119 0.56481 0.0
C1392 C 0.56062 0.16041 0.57724 0.0
C1393 C 0.52308 0.16378 0.57518 0.0
C1394 C 0.67299 0.1421 0.58287 0.0
C1395 C 0.7041 0.16372 0.57022 0.0
C1396 C 0.62971 0.13264 0.58083 0.0
C1397 C 0.61671 0.14393 0.56599 0.0
C1398 C 0.64702 0.16269 0.55291 0.0
C1399 C 0.69042 0.17275 0.55504 0.0
H1400 H 0.87827 0.38239 0.58894 0.0
H1401 H 0.82683 0.37441 0.53947 0.0
H1402 H 0.88069 0.45221 0.59324 0.0
H1403 H 0.82822 0.44349 0.54391 0.0
H1404 H 0.86068 0.58404 0.5524 0.0
H1405 H 0.87245 0.522 0.54758 0.0
H1406 H 0.8286 0.47604 0.59764 0.0
H1407 H 0.81794 0.53806 0.60254 0.0
C1408 C 0.86766 0.39558 0.57895 0.0
C1409 C 0.85204 0.37253 0.56391 0.0
C1410 C 0.86883 0.43556 0.58144 0.0
C1411 C 0.85435 0.45351 0.56897 0.0
C1412 C 0.84011 0.43108 0.55373 0.0
C1413 C 0.839 0.39117 0.55123 0.0
C1414 C 0.85419 0.561 0.56243 0.0
C1415 C 0.8382 0.56602 0.57783 0.0
C1416 C 0.86061 0.52523 0.55964 0.0
C1417 C 0.85133 0.49376 0.5722 0.0
C1418 C 0.8367 0.49975 0.58774 0.0
C1419 C 0.83026 0.53532 0.59051 0.0
H1420 H 0.47883 0.34732 0.54856 0.0
H1421 H 0.52989 0.33973 0.59656 0.0
H1422 H 0.53473 0.42483 0.5466 0.0
H1423 H 0.58619 0.41664 0.59443 0.0
H1424 H 0.67023 0.5632 0.59114 0.0
H1425 H 0.60315 0.49211 0.59386 0.0
H1426 H 0.61305 0.46481 0.54211 0.0
H1427 H 0.67924 0.536 0.53931 0.0
C1428 C 0.50167 0.36225 0.55877 0.0
C1429 C 0.50008 0.33718 0.57266 0.0
C1430 C 0.53389 0.40664 0.5576 0.0
C1431 C 0.56524 0.42697 0.57029 0.0
C1432 C 0.56236 0.4023 0.5845 0.0
C1433 C 0.53017 0.358 0.58567 0.0
C1434 C 0.65768 0.5423 0.58029 0.0
C1435 C 0.68032 0.55519 0.56504 0.0
C1436 C 0.61937 0.50142 0.58187 0.0
C1437 C 0.60281 0.47252 0.56824 0.0
C1438 C 0.62448 0.48632 0.55283 0.0
C1439 C 0.66271 0.52713 0.55125 0.0
loop_
_geom_bond_atom_site_label_1
_geom_bond_atom_site_label_2
_geom_bond_distance
_geom_bond_site_symmetry_2
_ccdc_geom_bond_type
Zn0 O6 1.969 . S
Zn0 O7 1.965 . S
Zn0 O11 2.024 . S
Zn0 O16 1.969 . S
Zn1 O8 1.969 . S
Zn1 O14 1.969 . S
Zn1 O15 1.965 . S
Zn1 O17 2.024 . S
C2 O3 1.229 . S
C2 O11 1.058 . S
O3 C2 1.229 . S
C4 O5 1.229 . S
C4 O17 1.058 . S
O5 C4 1.229 . S
O6 Zn0 1.969 . S
O6 C9 1.267 . S
O7 Zn0 1.965 . S
O7 C18 1.260 1_565 S
O8 Zn1 1.969 . S
O8 C18 1.258 . S
C9 O6 1.267 . S
C9 O10 1.228 . S
O10 C9 1.228 . S
O11 Zn0 2.024 . S
O11 C2 1.058 . S
C12 O13 1.228 . S
C12 O14 1.267 . S
O13 C12 1.228 . S
O14 Zn1 1.969 . S
O14 C12 1.267 . S
O15 Zn1 1.965 . S
O15 C19 1.260 . S
O16 Zn0 1.969 . S
O16 C19 1.258 1_565 S
O17 Zn1 2.024 . S
O17 C4 1.058 . S
C18 O7 1.260 1_545 S
C18 O8 1.258 . S
C19 O15 1.260 . S
C19 O16 1.258 1_545 S
Zn20 O26 1.969 . S
Zn20 O27 1.965 . S
Zn20 O31 2.024 . S
Zn20 O36 1.969 . S
Zn21 O28 1.969 . S
Zn21 O34 1.969 . S
Zn21 O35 1.965 . S
Zn21 O37 2.024 . S
C22 O23 1.229 . S
C22 O31 1.058 . S
O23 C22 1.229 . S
C24 O25 1.229 . S
C24 O37 1.058 . S
O25 C24 1.229 . S
O26 Zn20 1.969 . S
O26 C29 1.267 . S
O27 Zn20 1.965 . S
O27 C38 1.260 . S
O28 Zn21 1.969 . S
O28 C38 1.258 1_655 S
C29 O26 1.267 . S
C29 O30 1.228 . S
O30 C29 1.228 . S
O31 Zn20 2.024 . S
O31 C22 1.058 . S
C32 O33 1.228 . S
C32 O34 1.267 . S
O33 C32 1.228 . S
O34 Zn21 1.969 . S
O34 C32 1.267 . S
O35 Zn21 1.965 . S
O35 C39 1.260 1_655 S
O36 Zn20 1.969 . S
O36 C39 1.258 . S
O37 Zn21 2.024 . S
O37 C24 1.058 . S
C38 O27 1.260 . S
C38 O28 1.258 1_455 S
C39 O35 1.260 1_455 S
C39 O36 1.258 . S
Zn40 O46 1.969 . S
Zn40 O47 1.965 . S
Zn40 O51 2.024 . S
Zn40 O56 1.969 . S
Zn41 O48 1.969 . S
Zn41 O54 1.969 . S
Zn41 O55 1.965 . S
Zn41 O57 2.024 . S
C42 O43 1.229 . S
C42 O51 1.058 . S
O43 C42 1.229 . S
C44 O45 1.229 . S
C44 O57 1.058 . S
O45 C44 1.229 . S
O46 Zn40 1.969 . S
O46 C49 1.267 . S
O47 Zn40 1.965 . S
O47 C58 1.260 . S
O48 Zn41 1.969 . S
O48 C58 1.258 . S
C49 O46 1.267 . S
C49 O50 1.228 . S
O50 C49 1.228 . S
O51 Zn40 2.024 . S
O51 C42 1.058 . S
C52 O53 1.228 . S
C52 O54 1.267 . S
O53 C52 1.228 . S
O54 Zn41 1.969 . S
O54 C52 1.267 . S
O55 Zn41 1.965 . S
O55 C59 1.260 . S
O56 Zn40 1.969 . S
O56 C59 1.258 . S
O57 Zn41 2.024 . S
O57 C44 1.058 . S
C58 O47 1.260 . S
C58 O48 1.258 . S
C59 O55 1.260 . S
C59 O56 1.258 . S
Zn60 O66 1.969 . S
Zn60 O67 1.965 . S
Zn60 O71 2.024 . S
Zn60 O76 1.969 . S
Zn61 O68 1.969 . S
Zn61 O74 1.969 . S
Zn61 O75 1.965 . S
Zn61 O77 2.024 . S
C62 O63 1.229 . S
C62 O71 1.058 . S
O63 C62 1.229 . S
C64 O65 1.229 . S
C64 O77 1.058 . S
O65 C64 1.229 . S
O66 Zn60 1.969 . S
O66 C69 1.267 . S
O67 Zn60 1.965 . S
O67 C78 1.260 1_655 S
O68 Zn61 1.969 . S
O68 C78 1.258 . S
C69 O66 1.267 . S
C69 O70 1.228 . S
O70 C69 1.228 . S
O71 Zn60 2.024 . S
O71 C62 1.058 . S
C72 O73 1.228 . S
C72 O74 1.267 . S
O73 C72 1.228 . S
O74 Zn61 1.969 . S
O74 C72 1.267 . S
O75 Zn61 1.965 . S
O75 C79 1.260 . S
O76 Zn60 1.969 . S
O76 C79 1.258 1_655 S
O77 Zn61 2.024 . S
O77 C64 1.058 . S
C78 O67 1.260 1_455 S
C78 O68 1.258 . S
C79 O75 1.260 . S
C79 O76 1.258 1_455 S
Zn80 O86 1.969 . S
Zn80 O87 1.965 . S
Zn80 O91 2.024 . S
Zn80 O96 1.969 . S
Zn81 O88 1.969 . S
Zn81 O94 1.969 . S
Zn81 O95 1.965 . S
Zn81 O97 2.024 . S
C82 O83 1.229 . S
C82 O91 1.058 . S
O83 C82 1.229 . S
C84 O85 1.229 . S
C84 O97 1.058 . S
O85 C84 1.229 . S
O86 Zn80 1.969 . S
O86 C89 1.267 . S
O87 Zn80 1.965 . S
O87 C98 1.260 . S
O88 Zn81 1.969 . S
O88 C98 1.258 . S
C89 O86 1.267 . S
C89 O90 1.228 . S
O90 C89 1.228 . S
O91 Zn80 2.024 . S
O91 C82 1.058 . S
C92 O93 1.228 . S
C92 O94 1.267 . S
O93 C92 1.228 . S
O94 Zn81 1.969 . S
O94 C92 1.267 . S
O95 Zn81 1.965 . S
O95 C99 1.260 . S
O96 Zn80 1.969 . S
O96 C99 1.258 . S
O97 Zn81 2.024 . S
O97 C84 1.058 . S
C98 O87 1.260 . S
C98 O88 1.258 . S
C99 O95 1.260 . S
C99 O96 1.258 . S
Zn100 O106 1.969 . S
Zn100 O107 1.965 . S
Zn100 O111 2.024 . S
Zn100 O116 1.969 . S
Zn101 O108 1.969 . S
Zn101 O114 1.969 . S
Zn101 O115 1.965 . S
Zn101 O117 2.024 . S
C102 O103 1.229 . S
C102 O111 1.058 . S
O103 C102 1.229 . S
C104 O105 1.229 . S
C104 O117 1.058 . S
O105 C104 1.229 . S
O106 Zn100 1.969 . S
O106 C109 1.267 . S
O107 Zn100 1.965 . S
O107 C118 1.260 . S
O108 Zn101 1.969 . S
O108 C118 1.258 1_565 S
C109 O106 1.267 . S
C109 O110 1.228 . S
O110 C109 1.228 . S
O111 Zn100 2.024 . S
O111 C102 1.058 . S
C112 O113 1.228 . S
C112 O114 1.267 . S
O113 C112 1.228 . S
O114 Zn101 1.969 . S
O114 C112 1.267 . S
O115 Zn101 1.965 . S
O115 C119 1.260 1_565 S
O116 Zn100 1.969 . S
O116 C119 1.258 . S
O117 Zn101 2.024 . S
O117 C104 1.058 . S
C118 O107 1.260 . S
C118 O108 1.258 1_545 S
C119 O115 1.260 1_545 S
C119 O116 1.258 . S
Zn120 O126 1.969 . S
Zn120 O127 1.965 . S
Zn120 O131 2.024 . S
Zn120 O136 1.969 . S
Zn121 O128 1.969 . S
Zn121 O134 1.969 . S
Zn121 O135 1.965 . S
Zn121 O137 2.024 . S
C122 O123 1.229 . S
C122 O131 1.058 . S
O123 C122 1.229 . S
C124 O125 1.229 . S
C124 O137 1.058 . S
O125 C124 1.229 . S
O126 Zn120 1.969 . S
O126 C129 1.267 . S
O127 Zn120 1.965 . S
O127 C138 1.260 . S
O128 Zn121 1.969 . S
O128 C138 1.258 . S
C129 O126 1.267 . S
C129 O130 1.228 . S
O130 C129 1.228 . S
O131 Zn120 2.024 . S
O131 C122 1.058 . S
C132 O133 1.228 . S
C132 O134 1.267 . S
O133 C132 1.228 . S
O134 Zn121 1.969 . S
O134 C132 1.267 . S
O135 Zn121 1.965 . S
O135 C139 1.260 . S
O136 Zn120 1.969 . S
O136 C139 1.258 . S
O137 Zn121 2.024 . S
O137 C124 1.058 . S
C138 O127 1.260 . S
C138 O128 1.258 . S
C139 O135 1.260 . S
C139 O136 1.258 . S
Zn140 O146 1.969 . S
Zn140 O147 1.965 . S
Zn140 O151 2.024 . S
Zn140 O156 1.969 . S
Zn141 O148 1.969 . S
Zn141 O154 1.969 . S
Zn141 O155 1.965 . S
Zn141 O157 2.024 . S
C142 O143 1.229 . S
C142 O151 1.058 . S
O143 C142 1.229 . S
C144 O145 1.229 . S
C144 O157 1.058 . S
O145 C144 1.229 . S
O146 Zn140 1.969 . S
O146 C149 1.267 . S
O147 Zn140 1.965 . S
O147 C158 1.260 . S
O148 Zn141 1.969 . S
O148 C158 1.258 . S
C149 O146 1.267 . S
C149 O150 1.228 . S
O150 C149 1.228 . S
O151 Zn140 2.024 . S
O151 C142 1.058 . S
C152 O153 1.228 . S
C152 O154 1.267 . S
O153 C152 1.228 . S
O154 Zn141 1.969 . S
O154 C152 1.267 . S
O155 Zn141 1.965 . S
O155 C159 1.260 . S
O156 Zn140 1.969 . S
O156 C159 1.258 . S
O157 Zn141 2.024 . S
O157 C144 1.058 . S
C158 O147 1.260 . S
C158 O148 1.258 . S
C159 O155 1.260 . S
C159 O156 1.258 . S
Zn160 O166 1.969 . S
Zn160 O167 1.965 . S
Zn160 O171 2.024 . S
Zn160 O176 1.969 . S
Zn161 O168 1.969 . S
Zn161 O174 1.969 . S
Zn161 O175 1.965 . S
Zn161 O177 2.024 . S
C162 O163 1.229 . S
C162 O171 1.058 . S
O163 C162 1.229 . S
C164 O165 1.229 . S
C164 O177 1.058 . S
O165 C164 1.229 . S
O166 Zn160 1.969 . S
O166 C169 1.261 1_565 S
O167 Zn160 1.965 . S
O167 C178 1.260 . S
O168 Zn161 1.969 . S
O168 C178 1.258 . S
C169 O166 1.261 1_545 S
C169 O170 1.227 1_545 S
O170 C169 1.227 1_565 S
O171 Zn160 2.024 . S
O171 C162 1.058 . S
C172 O173 1.228 . S
C172 O174 1.267 . S
O173 C172 1.228 . S
O174 Zn161 1.969 . S
O174 C172 1.267 . S
O175 Zn161 1.965 . S
O175 C179 1.260 . S
O176 Zn160 1.969 . S
O176 C179 1.258 . S
O177 Zn161 2.024 . S
O177 C164 1.058 . S
C178 O167 1.260 . S
C178 O168 1.258 . S
C179 O175 1.260 . S
C179 O176 1.258 . S
Zn180 O186 1.969 . S
Zn180 O187 1.965 . S
Zn180 O191 2.024 . S
Zn180 O196 1.969 . S
Zn181 O188 1.969 . S
Zn181 O194 1.969 . S
Zn181 O195 1.965 . S
Zn181 O197 2.024 . S
C182 O183 1.229 . S
C182 O191 1.058 . S
O183 C182 1.229 . S
C184 O185 1.229 . S
C184 O197 1.058 . S
O185 C184 1.229 . S
O186 Zn180 1.969 . S
O186 C189 1.267 . S
O187 Zn180 1.965 . S
O187 C198 1.260 . S
O188 Zn181 1.969 . S
O188 C198 1.258 . S
C189 O186 1.267 . S
C189 O190 1.228 . S
O190 C189 1.228 . S
O191 Zn180 2.024 . S
O191 C182 1.058 . S
C192 O193 1.228 . S
C192 O194 1.267 . S
O193 C192 1.228 . S
O194 Zn181 1.969 . S
O194 C192 1.267 . S
O195 Zn181 1.965 . S
O195 C199 1.260 . S
O196 Zn180 1.969 . S
O196 C199 1.258 . S
O197 Zn181 2.024 . S
O197 C184 1.058 . S
C198 O187 1.260 . S
C198 O188 1.258 . S
C199 O195 1.260 . S
C199 O196 1.258 . S
Zn200 O206 1.969 . S
Zn200 O207 1.965 . S
Zn200 O211 2.024 . S
Zn200 O216 1.969 . S
Zn201 O208 1.969 . S
Zn201 O214 1.969 . S
Zn201 O215 1.965 . S
Zn201 O217 2.024 . S
C202 O203 1.229 . S
C202 O211 1.058 . S
O203 C202 1.229 . S
C204 O205 1.229 . S
C204 O217 1.058 . S
O205 C204 1.229 . S
O206 Zn200 1.969 . S
O206 C209 1.267 . S
O207 Zn200 1.965 . S
O207 C218 1.260 . S
O208 Zn201 1.969 . S
O208 C218 1.258 . S
C209 O206 1.267 . S
C209 O210 1.228 . S
O210 C209 1.228 . S
O211 Zn200 2.024 . S
O211 C202 1.058 . S
C212 O213 1.228 . S
C212 O214 1.267 . S
O213 C212 1.228 . S
O214 Zn201 1.969 . S
O214 C212 1.267 . S
O215 Zn201 1.965 . S
O215 C219 1.260 . S
O216 Zn200 1.969 . S
O216 C219 1.258 . S
O217 Zn201 2.024 . S
O217 C204 1.058 . S
C218 O207 1.260 . S
C218 O208 1.258 . S
C219 O215 1.260 . S
C219 O216 1.258 . S
Zn220 O226 1.969 . S
Zn220 O227 1.965 . S
Zn220 O231 2.024 . S
Zn220 O236 1.969 . S
Zn221 O228 1.969 . S
Zn221 O234 1.969 . S
Zn221 O235 1.965 . S
Zn221 O237 2.024 . S
C222 O223 1.229 . S
C222 O231 1.058 . S
O223 C222 1.229 . S
C224 O225 1.229 . S
C224 O237 1.058 . S
O225 C224 1.229 . S
O226 Zn220 1.969 . S
O226 C229 1.267 . S
O227 Zn220 1.965 . S
O227 C238 1.260 . S
O228 Zn221 1.969 . S
O228 C238 1.258 . S
C229 O226 1.267 . S
C229 O230 1.228 . S
O230 C229 1.228 . S
O231 Zn220 2.024 . S
O231 C222 1.058 . S
C232 O233 1.228 . S
C232 O234 1.267 . S
O233 C232 1.228 . S
O234 Zn221 1.969 . S
O234 C232 1.267 . S
O235 Zn221 1.965 . S
O235 C239 1.260 . S
O236 Zn220 1.969 . S
O236 C239 1.258 . S
O237 Zn221 2.024 . S
O237 C224 1.058 . S
C238 O227 1.260 . S
C238 O228 1.258 . S
C239 O235 1.260 . S
C239 O236 1.258 . S
Zn240 O246 1.969 . S
Zn240 O247 1.965 . S
Zn240 O251 2.024 . S
Zn240 O256 1.969 . S
Zn241 O248 1.969 . S
Zn241 O254 1.969 . S
Zn241 O255 1.965 . S
Zn241 O257 2.024 . S
C242 O243 1.229 . S
C242 O251 1.058 . S
O243 C242 1.229 . S
C244 O245 1.229 . S
C244 O257 1.058 . S
O245 C244 1.229 . S
O246 Zn240 1.969 . S
O246 C249 1.267 . S
O247 Zn240 1.965 . S
O247 C258 1.260 . S
O248 Zn241 1.969 . S
O248 C258 1.258 . S
C249 O246 1.267 . S
C249 O250 1.228 . S
O250 C249 1.228 . S
O251 Zn240 2.024 . S
O251 C242 1.058 . S
C252 O253 1.228 . S
C252 O254 1.267 . S
O253 C252 1.228 . S
O254 Zn241 1.969 . S
O254 C252 1.267 . S
O255 Zn241 1.965 . S
O255 C259 1.260 . S
O256 Zn240 1.969 . S
O256 C259 1.258 . S
O257 Zn241 2.024 . S
O257 C244 1.058 . S
C258 O247 1.260 . S
C258 O248 1.258 . S
C259 O255 1.260 . S
C259 O256 1.258 . S
Zn260 O266 1.969 . S
Zn260 O267 1.965 . S
Zn260 O271 2.024 . S
Zn260 O276 1.969 . S
Zn261 O268 1.969 . S
Zn261 O274 1.969 . S
Zn261 O275 1.965 . S
Zn261 O277 2.024 . S
C262 O263 1.229 . S
C262 O271 1.058 . S
O263 C262 1.229 . S
C264 O265 1.229 . S
C264 O277 1.058 . S
O265 C264 1.229 . S
O266 Zn260 1.969 . S
O266 C269 1.267 . S
O267 Zn260 1.965 . S
O267 C278 1.260 . S
O268 Zn261 1.969 . S
O268 C278 1.258 . S
C269 O266 1.267 . S
C269 O270 1.228 . S
O270 C269 1.228 . S
O271 Zn260 2.024 . S
O271 C262 1.058 . S
C272 O273 1.228 . S
C272 O274 1.267 . S
O273 C272 1.228 . S
O274 Zn261 1.969 . S
O274 C272 1.267 . S
O275 Zn261 1.965 . S
O275 C279 1.260 . S
O276 Zn260 1.969 . S
O276 C279 1.258 . S
O277 Zn261 2.024 . S
O277 C264 1.058 . S
C278 O267 1.260 . S
C278 O268 1.258 . S
C279 O275 1.260 . S
C279 O276 1.258 . S
Zn280 O286 1.969 . S
Zn280 O287 1.965 . S
Zn280 O291 2.024 . S
Zn280 O296 1.969 . S
Zn281 O288 1.969 . S
Zn281 O294 1.969 . S
Zn281 O295 1.965 . S
Zn281 O297 2.024 . S
C282 O283 1.229 . S
C282 O291 1.058 . S
O283 C282 1.229 . S
C284 O285 1.229 . S
C284 O297 1.058 . S
O285 C284 1.229 . S
O286 Zn280 1.969 . S
O286 C289 1.267 . S
O287 Zn280 1.965 . S
O287 C298 1.260 . S
O288 Zn281 1.969 . S
O288 C298 1.258 . S
C289 O286 1.267 . S
C289 O290 1.228 . S
O290 C289 1.228 . S
O291 Zn280 2.024 . S
O291 C282 1.058 . S
C292 O293 1.228 . S
C292 O294 1.267 . S
O293 C292 1.228 . S
O294 Zn281 1.969 . S
O294 C292 1.267 . S
O295 Zn281 1.965 . S
O295 C299 1.260 . S
O296 Zn280 1.969 . S
O296 C299 1.258 . S
O297 Zn281 2.024 . S
O297 C284 1.058 . S
C298 O287 1.260 . S
C298 O288 1.258 . S
C299 O295 1.260 . S
C299 O296 1.258 . S
Zn300 O306 1.969 . S
Zn300 O307 1.965 . S
Zn300 O311 2.024 . S
Zn300 O316 1.969 . S
Zn301 O308 1.969 . S
Zn301 O314 1.969 . S
Zn301 O315 1.965 . S
Zn301 O317 2.024 . S
C302 O303 1.229 . S
C302 O311 1.058 . S
O303 C302 1.229 . S
C304 O305 1.229 . S
C304 O317 1.058 . S
O305 C304 1.229 . S
O306 Zn300 1.969 . S
O306 C309 1.267 . S
O307 Zn300 1.965 . S
O307 C318 1.260 . S
O308 Zn301 1.969 . S
O308 C318 1.258 . S
C309 O306 1.267 . S
C309 O310 1.228 . S
O310 C309 1.228 . S
O311 Zn300 2.024 . S
O311 C302 1.058 . S
C312 O313 1.228 . S
C312 O314 1.267 . S
O313 C312 1.228 . S
O314 Zn301 1.969 . S
O314 C312 1.267 . S
O315 Zn301 1.965 . S
O315 C319 1.260 . S
O316 Zn300 1.969 . S
O316 C319 1.258 . S
O317 Zn301 2.024 . S
O317 C304 1.058 . S
C318 O307 1.260 . S
C318 O308 1.258 . S
C319 O315 1.260 . S
C319 O316 1.258 . S
Zn320 O326 1.969 . S
Zn320 O327 1.965 . S
Zn320 O331 2.024 . S
Zn320 O336 1.969 . S
Zn321 O328 1.969 . S
Zn321 O334 1.969 . S
Zn321 O335 1.965 . S
Zn321 O337 2.024 . S
C322 O323 1.229 . S
C322 O331 1.058 . S
O323 C322 1.229 . S
C324 O325 1.229 . S
C324 O337 1.058 . S
O325 C324 1.229 . S
O326 Zn320 1.969 . S
O326 C329 1.261 1_655 S
O327 Zn320 1.965 . S
O327 C338 1.260 . S
O328 Zn321 1.969 . S
O328 C338 1.258 . S
C329 O326 1.261 1_455 S
C329 O330 1.227 1_455 S
O330 C329 1.227 1_655 S
O331 Zn320 2.024 . S
O331 C322 1.058 . S
C332 O333 1.228 . S
C332 O334 1.267 . S
O333 C332 1.228 . S
O334 Zn321 1.969 . S
O334 C332 1.267 . S
O335 Zn321 1.965 . S
O335 C339 1.260 . S
O336 Zn320 1.969 . S
O336 C339 1.258 . S
O337 Zn321 2.024 . S
O337 C324 1.058 . S
C338 O327 1.260 . S
C338 O328 1.258 . S
C339 O335 1.260 . S
C339 O336 1.258 . S
Zn340 O346 1.969 . S
Zn340 O347 1.965 . S
Zn340 O351 2.024 . S
Zn340 O356 1.969 . S
Zn341 O348 1.969 . S
Zn341 O354 1.969 . S
Zn341 O355 1.965 . S
Zn341 O357 2.024 . S
C342 O343 1.229 . S
C342 O351 1.058 . S
O343 C342 1.229 . S
C344 O345 1.229 . S
C344 O357 1.058 . S
O345 C344 1.229 . S
O346 Zn340 1.969 . S
O346 C349 1.267 . S
O347 Zn340 1.965 . S
O347 C358 1.260 . S
O348 Zn341 1.969 . S
O348 C358 1.258 . S
C349 O346 1.267 . S
C349 O350 1.228 . S
O350 C349 1.228 . S
O351 Zn340 2.024 . S
O351 C342 1.058 . S
C352 O353 1.228 . S
C352 O354 1.267 . S
O353 C352 1.228 . S
O354 Zn341 1.969 . S
O354 C352 1.267 . S
O355 Zn341 1.965 . S
O355 C359 1.260 . S
O356 Zn340 1.969 . S
O356 C359 1.258 . S
O357 Zn341 2.024 . S
O357 C344 1.058 . S
C358 O347 1.260 . S
C358 O348 1.258 . S
C359 O355 1.260 . S
C359 O356 1.258 . S
H360 C368 0.950 . S
H361 C373 0.950 . S
H362 C370 0.950 . S
H363 C372 0.950 . S
H364 C374 0.950 . S
H365 C376 0.950 . S
H366 C378 0.950 . S
H367 C379 0.950 . S
C368 H360 0.950 . S
C368 C369 1.386 . S
C368 C370 1.391 . S
C369 C368 1.386 . S
C369 C373 1.393 . S
C370 H362 0.950 . S
C370 C368 1.391 . S
C370 C371 1.400 . S
C371 C370 1.400 . S
C371 C372 1.398 . S
C371 C377 1.491 . S
C372 H363 0.950 . S
C372 C371 1.398 . S
C372 C373 1.391 . S
C373 H361 0.950 . S
C373 C369 1.393 . S
C373 C372 1.391 . S
C374 H364 0.950 . S
C374 C375 1.386 . S
C374 C376 1.391 . S
C375 C374 1.386 . S
C375 C379 1.393 . S
C376 H365 0.950 . S
C376 C374 1.391 . S
C376 C377 1.400 . S
C377 C371 1.491 . S
C377 C376 1.400 . S
C377 C378 1.398 . S
C378 H366 0.950 . S
C378 C377 1.398 . S
C378 C379 1.391 . S
C379 H367 0.950 . S
C379 C375 1.393 . S
C379 C378 1.391 . S
H380 C388 0.950 . S
H381 C393 0.950 . S
H382 C390 0.950 . S
H383 C392 0.950 . S
H384 C394 0.950 . S
H385 C396 0.950 . S
H386 C398 0.950 . S
H387 C399 0.950 . S
C388 H380 0.950 . S
C388 C389 1.386 . S
C388 C390 1.391 . S
C389 C388 1.386 . S
C389 C393 1.393 . S
C390 H382 0.950 . S
C390 C388 1.391 . S
C390 C391 1.400 . S
C391 C390 1.400 . S
C391 C392 1.398 . S
C391 C397 1.491 . S
C392 H383 0.950 . S
C392 C391 1.398 . S
C392 C393 1.391 . S
C393 H381 0.950 . S
C393 C389 1.393 . S
C393 C392 1.391 . S
C394 H384 0.950 . S
C394 C395 1.386 . S
C394 C396 1.391 . S
C395 C394 1.386 . S
C395 C399 1.393 . S
C396 H385 0.950 . S
C396 C394 1.391 . S
C396 C397 1.400 . S
C397 C391 1.491 . S
C397 C396 1.400 . S
C397 C398 1.398 . S
C398 H386 0.950 . S
C398 C397 1.398 . S
C398 C399 1.391 . S
C399 H387 0.950 . S
C399 C395 1.393 . S
C399 C398 1.391 . S
H400 C408 0.950 . S
H401 C413 0.950 . S
H402 C410 0.950 . S
H403 C412 0.950 . S
H404 C414 0.950 . S
H405 C416 0.950 . S
H406 C418 0.950 . S
H407 C419 0.950 . S
C408 H400 0.950 . S
C408 C409 1.386 . S
C408 C410 1.391 . S
C409 C408 1.386 . S
C409 C413 1.393 . S
C410 H402 0.950 . S
C410 C408 1.391 . S
C410 C411 1.400 . S
C411 C410 1.400 . S
C411 C412 1.398 . S
C411 C417 1.491 . S
C412 H403 0.950 . S
C412 C411 1.398 . S
C412 C413 1.391 . S
C413 H401 0.950 . S
C413 C409 1.393 . S
C413 C412 1.391 . S
C414 H404 0.950 . S
C414 C415 1.386 . S
C414 C416 1.391 . S
C415 C414 1.386 . S
C415 C419 1.393 . S
C416 H405 0.950 . S
C416 C414 1.391 . S
C416 C417 1.400 . S
C417 C411 1.491 . S
C417 C416 1.400 . S
C417 C418 1.398 . S
C418 H406 0.950 . S
C418 C417 1.398 . S
C418 C419 1.391 . S
C419 H407 0.950 . S
C419 C415 1.393 . S
C419 C418 1.391 . S
H420 C428 0.950 . S
H421 C433 0.950 . S
H422 C430 0.950 . S
H423 C432 0.950 . S
H424 C434 0.950 . S
H425 C436 0.950 . S
H426 C438 0.950 . S
H427 C439 0.950 . S
C428 H420 0.950 . S
C428 C429 1.386 . S
C428 C430 1.391 . S
C429 C428 1.386 . S
C429 C433 1.393 . S
C430 H422 0.950 . S
C430 C428 1.391 . S
C430 C431 1.400 . S
C431 C430 1.400 . S
C431 C432 1.398 . S
C431 C437 1.491 . S
C432 H423 0.950 . S
C432 C431 1.398 . S
C432 C433 1.391 . S
C433 H421 0.950 . S
C433 C429 1.393 . S
C433 C432 1.391 . S
C434 H424 0.950 . S
C434 C435 1.386 . S
C434 C436 1.391 . S
C435 C434 1.386 . S
C435 C439 1.393 . S
C436 H425 0.950 . S
C436 C434 1.391 . S
C436 C437 1.400 . S
C437 C431 1.491 . S
C437 C436 1.400 . S
C437 C438 1.398 . S
C438 H426 0.950 . S
C438 C437 1.398 . S
C438 C439 1.391 . S
C439 H427 0.950 . S
C439 C435 1.393 . S
C439 C438 1.391 . S
H440 C448 0.950 . S
H441 C453 0.950 . S
H442 C450 0.950 . S
H443 C452 0.950 . S
H444 C454 0.950 . S
H445 C456 0.950 . S
H446 C458 0.950 . S
H447 C459 0.950 . S
C448 H440 0.950 . S
C448 C449 1.386 . S
C448 C450 1.391 . S
C449 C448 1.386 . S
C449 C453 1.393 . S
C450 H442 0.950 . S
C450 C448 1.391 . S
C450 C451 1.400 . S
C451 C450 1.400 . S
C451 C452 1.398 . S
C451 C457 1.491 . S
C452 H443 0.950 . S
C452 C451 1.398 . S
C452 C453 1.391 . S
C453 H441 0.950 . S
C453 C449 1.393 . S
C453 C452 1.391 . S
C454 H444 0.950 . S
C454 C455 1.386 . S
C454 C456 1.391 . S
C455 C454 1.386 . S
C455 C459 1.393 . S
C456 H445 0.950 . S
C456 C454 1.391 . S
C456 C457 1.400 . S
C457 C451 1.491 . S
C457 C456 1.400 . S
C457 C458 1.398 . S
C458 H446 0.950 . S
C458 C457 1.398 . S
C458 C459 1.391 . S
C459 H447 0.950 . S
C459 C455 1.393 . S
C459 C458 1.391 . S
H460 C468 0.950 . S
H461 C473 0.950 . S
H462 C470 0.950 . S
H463 C472 0.950 . S
H464 C474 0.950 . S
H465 C476 0.950 . S
H466 C478 0.950 . S
H467 C479 0.950 . S
C468 H460 0.950 . S
C468 C469 1.386 . S
C468 C470 1.391 . S
C469 C468 1.386 . S
C469 C473 1.393 . S
C470 H462 0.950 . S
C470 C468 1.391 . S
C470 C471 1.400 . S
C471 C470 1.400 . S
C471 C472 1.398 . S
C471 C477 1.491 . S
C472 H463 0.950 . S
C472 C471 1.398 . S
C472 C473 1.391 . S
C473 H461 0.950 . S
C473 C469 1.393 . S
C473 C472 1.391 . S
C474 H464 0.950 . S
C474 C475 1.386 . S
C474 C476 1.391 . S
C475 C474 1.386 . S
C475 C479 1.393 . S
C476 H465 0.950 . S
C476 C474 1.391 . S
C476 C477 1.400 . S
C477 C471 1.491 . S
C477 C476 1.400 . S
C477 C478 1.398 . S
C478 H466 0.950 . S
C478 C477 1.398 . S
C478 C479 1.391 . S
C479 H467 0.950 . S
C479 C475 1.393 . S
C479 C478 1.391 . S
H480 C488 0.950 . S
H481 C493 0.950 . S
H482 C490 0.950 . S
H483 C492 0.950 . S
H484 C494 0.950 . S
H485 C496 0.950 . S
H486 C498 0.950 . S
H487 C499 0.950 . S
C488 H480 0.950 . S
C488 C489 1.386 . S
C488 C490 1.391 . S
C489 C488 1.386 . S
C489 C493 1.393 . S
C490 H482 0.950 . S
C490 C488 1.391 . S
C490 C491 1.400 . S
C491 C490 1.400 . S
C491 C492 1.398 . S
C491 C497 1.491 . S
C492 H483 0.950 . S
C492 C491 1.398 . S
C492 C493 1.391 . S
C493 H481 0.950 . S
C493 C489 1.393 . S
C493 C492 1.391 . S
C494 H484 0.950 . S
C494 C495 1.386 . S
C494 C496 1.391 . S
C495 C494 1.386 . S
C495 C499 1.393 . S
C496 H485 0.950 . S
C496 C494 1.391 . S
C496 C497 1.400 . S
C497 C491 1.491 . S
C497 C496 1.400 . S
C497 C498 1.398 . S
C498 H486 0.950 . S
C498 C497 1.398 . S
C498 C499 1.391 . S
C499 H487 0.950 . S
C499 C495 1.393 . S
C499 C498 1.391 . S
H500 C508 0.950 . S
H501 C513 0.950 1_455 S
H502 C510 0.950 . S
H503 C512 0.950 . S
H504 C514 0.950 . S
H505 C516 0.950 . S
H506 C518 0.950 . S
H507 C519 0.950 . S
C508 H500 0.950 . S
C508 C509 1.386 1_655 S
C508 C510 1.391 . S
C509 C508 1.386 1_455 S
C509 C513 1.393 1_455 S
C510 H502 0.950 . S
C510 C508 1.391 . S
C510 C511 1.400 . S
C511 C510 1.400 . S
C511 C512 1.398 . S
C511 C517 1.491 . S
C512 H503 0.950 . S
C512 C511 1.398 . S
C512 C513 1.391 . S
C513 H501 0.950 1_655 S
C513 C509 1.393 1_655 S
C513 C512 1.391 . S
C514 H504 0.950 . S
C514 C515 1.386 . S
C514 C516 1.391 1_565 S
C515 C514 1.386 . S
C515 C519 1.393 . S
C516 H505 0.950 . S
C516 C514 1.391 1_545 S
C516 C517 1.400 . S
C517 C511 1.491 . S
C517 C516 1.400 . S
C517 C518 1.398 . S
C518 H506 0.950 . S
C518 C517 1.398 . S
C518 C519 1.391 1_545 S
C519 H507 0.950 . S
C519 C515 1.393 . S
C519 C518 1.391 1_565 S
H520 C528 0.950 . S
H521 C533 0.950 . S
H522 C530 0.950 . S
H523 C532 0.950 1_655 S
H524 C534 0.950 . S
H525 C536 0.950 . S
H526 C538 0.950 . S
H527 C539 0.950 . S
C528 H520 0.950 . S
C528 C529 1.386 . S
C528 C530 1.391 1_455 S
C529 C528 1.386 . S
C529 C533 1.393 . S
C530 H522 0.950 . S
C530 C528 1.391 1_655 S
C530 C531 1.400 . S
C531 C530 1.400 . S
C531 C532 1.398 1_655 S
C531 C537 1.491 . S
C532 H523 0.950 1_455 S
C532 C531 1.398 1_455 S
C532 C533 1.391 . S
C533 H521 0.950 . S
C533 C529 1.393 . S
C533 C532 1.391 . S
C534 H524 0.950 . S
C534 C535 1.386 . S
C534 C536 1.391 . S
C535 C534 1.386 . S
C535 C539 1.393 . S
C536 H525 0.950 . S
C536 C534 1.391 . S
C536 C537 1.400 . S
C537 C531 1.491 . S
C537 C536 1.400 . S
C537 C538 1.398 . S
C538 H526 0.950 . S
C538 C537 1.398 . S
C538 C539 1.391 . S
C539 H527 0.950 . S
C539 C535 1.393 . S
C539 C538 1.391 . S
H540 C548 0.950 . S
H541 C553 0.950 . S
H542 C550 0.950 . S
H543 C552 0.950 . S
H544 C554 0.950 . S
H545 C556 0.950 . S
H546 C558 0.950 . S
H547 C559 0.950 . S
C548 H540 0.950 . S
C548 C549 1.386 . S
C548 C550 1.391 . S
C549 C548 1.386 . S
C549 C553 1.393 . S
C550 H542 0.950 . S
C550 C548 1.391 . S
C550 C551 1.400 . S
C551 C550 1.400 . S
C551 C552 1.398 . S
C551 C557 1.491 . S
C552 H543 0.950 . S
C552 C551 1.398 . S
C552 C553 1.391 . S
C553 H541 0.950 . S
C553 C549 1.393 . S
C553 C552 1.391 . S
C554 H544 0.950 . S
C554 C555 1.386 . S
C554 C556 1.391 . S
C555 C554 1.386 . S
C555 C559 1.393 . S
C556 H545 0.950 . S
C556 C554 1.391 . S
C556 C557 1.400 . S
C557 C551 1.491 . S
C557 C556 1.400 . S
C557 C558 1.398 . S
C558 H546 0.950 . S
C558 C557 1.398 . S
C558 C559 1.391 . S
C559 H547 0.950 . S
C559 C555 1.393 . S
C559 C558 1.391 . S
H560 C568 0.950 . S
H561 C573 0.950 . S
H562 C570 0.950 . S
H563 C572 0.950 . S
H564 C574 0.950 . S
H565 C576 0.950 . S
H566 C578 0.950 . S
H567 C579 0.950 . S
C568 H560 0.950 . S
C568 C569 1.386 . S
C568 C570 1.391 . S
C569 C568 1.386 . S
C569 C573 1.393 . S
C570 H562 0.950 . S
C570 C568 1.391 . S
C570 C571 1.400 . S
C571 C570 1.400 . S
C571 C572 1.398 . S
C571 C577 1.491 . S
C572 H563 0.950 . S
C572 C571 1.398 . S
C572 C573 1.391 . S
C573 H561 0.950 . S
C573 C569 1.393 . S
C573 C572 1.391 . S
C574 H564 0.950 . S
C574 C575 1.386 . S
C574 C576 1.391 . S
C575 C574 1.386 . S
C575 C579 1.393 . S
C576 H565 0.950 . S
C576 C574 1.391 . S
C576 C577 1.400 . S
C577 C571 1.491 . S
C577 C576 1.400 . S
C577 C578 1.398 . S
C578 H566 0.950 . S
C578 C577 1.398 . S
C578 C579 1.391 . S
C579 H567 0.950 . S
C579 C575 1.393 . S
C579 C578 1.391 . S
H580 C588 0.950 . S
H581 C593 0.950 . S
H582 C590 0.950 . S
H583 C592 0.950 . S
H584 C594 0.950 . S
H585 C596 0.950 . S
H586 C598 0.950 . S
H587 C599 0.950 . S
C588 H580 0.950 . S
C588 C589 1.386 . S
C588 C590 1.391 . S
C589 C588 1.386 . S
C589 C593 1.393 . S
C590 H582 0.950 . S
C590 C588 1.391 . S
C590 C591 1.400 . S
C591 C590 1.400 . S
C591 C592 1.398 . S
C591 C597 1.491 . S
C592 H583 0.950 . S
C592 C591 1.398 . S
C592 C593 1.391 . S
C593 H581 0.950 . S
C593 C589 1.393 . S
C593 C592 1.391 . S
C594 H584 0.950 . S
C594 C595 1.386 . S
C594 C596 1.391 . S
C595 C594 1.386 . S
C595 C599 1.393 . S
C596 H585 0.950 . S
C596 C594 1.391 . S
C596 C597 1.400 . S
C597 C591 1.491 . S
C597 C596 1.400 . S
C597 C598 1.398 . S
C598 H586 0.950 . S
C598 C597 1.398 . S
C598 C599 1.391 . S
C599 H587 0.950 . S
C599 C595 1.393 . S
C599 C598 1.391 . S
H600 C608 0.950 . S
H601 C613 0.950 . S
H602 C610 0.950 . S
H603 C612 0.950 . S
H604 C614 0.950 . S
H605 C616 0.950 . S
H606 C618 0.950 . S
H607 C619 0.950 . S
C608 H600 0.950 . S
C608 C609 1.386 . S
C608 C610 1.391 . S
C609 C608 1.386 . S
C609 C613 1.393 . S
C610 H602 0.950 . S
C610 C608 1.391 . S
C610 C611 1.400 . S
C611 C610 1.400 . S
C611 C612 1.398 . S
C611 C617 1.491 . S
C612 H603 0.950 . S
C612 C611 1.398 . S
C612 C613 1.391 . S
C613 H601 0.950 . S
C613 C609 1.393 . S
C613 C612 1.391 . S
C614 H604 0.950 . S
C614 C615 1.386 . S
C614 C616 1.391 . S
C615 C614 1.386 . S
C615 C619 1.393 . S
C616 H605 0.950 . S
C616 C614 1.391 . S
C616 C617 1.400 . S
C617 C611 1.491 . S
C617 C616 1.400 . S
C617 C618 1.398 . S
C618 H606 0.950 . S
C618 C617 1.398 . S
C618 C619 1.391 . S
C619 H607 0.950 . S
C619 C615 1.393 . S
C619 C618 1.391 . S
H620 C628 0.950 . S
H621 C633 0.950 . S
H622 C630 0.950 . S
H623 C632 0.950 . S
H624 C634 0.950 . S
H625 C636 0.950 . S
H626 C638 0.950 . S
H627 C639 0.950 . S
C628 H620 0.950 . S
C628 C629 1.386 . S
C628 C630 1.391 . S
C629 C628 1.386 . S
C629 C633 1.393 . S
C630 H622 0.950 . S
C630 C628 1.391 . S
C630 C631 1.400 . S
C631 C630 1.400 . S
C631 C632 1.398 . S
C631 C637 1.491 . S
C632 H623 0.950 . S
C632 C631 1.398 . S
C632 C633 1.391 . S
C633 H621 0.950 . S
C633 C629 1.393 . S
C633 C632 1.391 . S
C634 H624 0.950 . S
C634 C635 1.386 . S
C634 C636 1.391 . S
C635 C634 1.386 . S
C635 C639 1.393 . S
C636 H625 0.950 . S
C636 C634 1.391 . S
C636 C637 1.400 . S
C637 C631 1.491 . S
C637 C636 1.400 . S
C637 C638 1.398 . S
C638 H626 0.950 . S
C638 C637 1.398 . S
C638 C639 1.391 . S
C639 H627 0.950 . S
C639 C635 1.393 . S
C639 C638 1.391 . S
H640 C648 0.950 . S
H641 C653 0.950 . S
H642 C650 0.950 . S
H643 C652 0.950 . S
H644 C654 0.950 . S
H645 C656 0.950 . S
H646 C658 0.950 . S
H647 C659 0.950 . S
C648 H640 0.950 . S
C648 C649 1.386 . S
C648 C650 1.391 . S
C649 C648 1.386 . S
C649 C653 1.393 . S
C650 H642 0.950 . S
C650 C648 1.391 . S
C650 C651 1.400 . S
C651 C650 1.400 . S
C651 C652 1.398 . S
C651 C657 1.491 . S
C652 H643 0.950 . S
C652 C651 1.398 . S
C652 C653 1.391 . S
C653 H641 0.950 . S
C653 C649 1.393 . S
C653 C652 1.391 . S
C654 H644 0.950 . S
C654 C655 1.386 . S
C654 C656 1.391 . S
C655 C654 1.386 . S
C655 C659 1.393 . S
C656 H645 0.950 . S
C656 C654 1.391 . S
C656 C657 1.400 . S
C657 C651 1.491 . S
C657 C656 1.400 . S
C657 C658 1.398 . S
C658 H646 0.950 . S
C658 C657 1.398 . S
C658 C659 1.391 . S
C659 H647 0.950 . S
C659 C655 1.393 . S
C659 C658 1.391 . S
H660 C668 0.950 1_655 S
H661 C673 0.950 . S
H662 C670 0.950 . S
H663 C672 0.950 . S
H664 C674 0.950 . S
H665 C676 0.950 . S
H666 C678 0.950 . S
H667 C679 0.950 . S
C668 H660 0.950 1_455 S
C668 C669 1.386 . S
C668 C670 1.391 . S
C669 C668 1.386 . S
C669 C673 1.393 . S
C670 H662 0.950 . S
C670 C668 1.391 . S
C670 C671 1.400 . S
C671 C670 1.400 . S
C671 C672 1.398 . S
C671 C677 1.491 . S
C672 H663 0.950 . S
C672 C671 1.398 . S
C672 C673 1.391 . S
C673 H661 0.950 . S
C673 C669 1.393 . S
C673 C672 1.391 . S
C674 H664 0.950 . S
C674 C675 1.386 . S
C674 C676 1.391 . S
C675 C674 1.386 . S
C675 C679 1.393 . S
C676 H665 0.950 . S
C676 C674 1.391 . S
C676 C677 1.400 . S
C677 C671 1.491 . S
C677 C676 1.400 . S
C677 C678 1.398 . S
C678 H666 0.950 . S
C678 C677 1.398 . S
C678 C679 1.391 . S
C679 H667 0.950 . S
C679 C675 1.393 . S
C679 C678 1.391 . S
H680 C688 0.950 . S
H681 C693 0.950 . S
H682 C690 0.950 . S
H683 C692 0.950 . S
H684 C694 0.950 . S
H685 C696 0.950 . S
H686 C698 0.950 . S
H687 C699 0.950 . S
C688 H680 0.950 . S
C688 C689 1.386 . S
C688 C690 1.391 . S
C689 C688 1.386 . S
C689 C693 1.393 . S
C690 H682 0.950 . S
C690 C688 1.391 . S
C690 C691 1.400 . S
C691 C690 1.400 . S
C691 C692 1.398 . S
C691 C697 1.491 . S
C692 H683 0.950 . S
C692 C691 1.398 . S
C692 C693 1.391 . S
C693 H681 0.950 . S
C693 C689 1.393 . S
C693 C692 1.391 . S
C694 H684 0.950 . S
C694 C695 1.386 . S
C694 C696 1.391 1_545 S
C695 C694 1.386 . S
C695 C699 1.393 . S
C696 H685 0.950 . S
C696 C694 1.391 1_565 S
C696 C697 1.400 . S
C697 C691 1.491 . S
C697 C696 1.400 . S
C697 C698 1.398 . S
C698 H686 0.950 . S
C698 C697 1.398 . S
C698 C699 1.391 1_565 S
C699 H687 0.950 . S
C699 C695 1.393 . S
C699 C698 1.391 1_545 S
H700 C708 0.950 . S
H701 C713 0.950 . S
H702 C710 0.950 . S
H703 C712 0.950 . S
H704 C714 0.950 1_655 S
H705 C716 0.950 . S
H706 C718 0.950 . S
H707 C719 0.950 . S
C708 H700 0.950 . S
C708 C709 1.378 1_545 S
C708 C710 1.391 1_545 S
C709 C708 1.378 1_565 S
C709 C713 1.405 . S
C710 H702 0.950 . S
C710 C708 1.391 1_565 S
C710 C711 1.400 . S
C711 C710 1.400 . S
C711 C712 1.398 . S
C711 C717 1.491 . S
C712 H703 0.950 . S
C712 C711 1.398 . S
C712 C713 1.391 . S
C713 H701 0.950 . S
C713 C709 1.405 . S
C713 C712 1.391 . S
C714 H704 0.950 1_455 S
C714 C715 1.386 1_455 S
C714 C716 1.391 . S
C715 C714 1.386 1_655 S
C715 C719 1.393 . S
C716 H705 0.950 . S
C716 C714 1.391 . S
C716 C717 1.400 . S
C717 C711 1.491 . S
C717 C716 1.400 . S
C717 C718 1.398 . S
C718 H706 0.950 . S
C718 C717 1.398 . S
C718 C719 1.391 1_455 S
C719 H707 0.950 . S
C719 C715 1.393 . S
C719 C718 1.391 1_655 S
H720 C728 0.950 . S
H721 C733 0.950 . S
H722 C730 0.950 . S
H723 C732 0.950 . S
H724 C734 0.950 . S
H725 C736 0.950 . S
H726 C738 0.950 . S
H727 C739 0.950 . S
C728 H720 0.950 . S
C728 C729 1.386 . S
C728 C730 1.391 . S
C729 C728 1.386 . S
C729 C733 1.393 . S
C730 H722 0.950 . S
C730 C728 1.391 . S
C730 C731 1.400 . S
C731 C730 1.400 . S
C731 C732 1.398 . S
C731 C737 1.491 1_554 S
C732 H723 0.950 . S
C732 C731 1.398 . S
C732 C733 1.391 . S
C733 H721 0.950 . S
C733 C729 1.393 . S
C733 C732 1.391 . S
C734 H724 0.950 . S
C734 C735 1.386 . S
C734 C736 1.391 . S
C735 C734 1.386 . S
C735 C739 1.393 . S
C736 H725 0.950 . S
C736 C734 1.391 . S
C736 C737 1.400 . S
C737 C731 1.491 1_556 S
C737 C736 1.400 . S
C737 C738 1.398 . S
C738 H726 0.950 . S
C738 C737 1.398 . S
C738 C739 1.391 . S
C739 H727 0.950 . S
C739 C735 1.393 . S
C739 C738 1.391 . S
H740 C748 0.950 . S
H741 C753 0.950 . S
H742 C750 0.950 . S
H743 C752 0.950 . S
H744 C754 0.950 . S
H745 C756 0.950 . S
H746 C758 0.950 . S
H747 C759 0.950 . S
C748 H740 0.950 . S
C748 C749 1.386 1_655 S
C748 C750 1.391 . S
C749 C748 1.386 1_455 S
C749 C753 1.393 . S
C750 H742 0.950 . S
C750 C748 1.391 . S
C750 C751 1.400 1_655 S
C751 C750 1.400 1_455 S
C751 C752 1.398 . S
C751 C757 1.491 1_556 S
C752 H743 0.950 . S
C752 C751 1.398 . S
C752 C753 1.391 . S
C753 H741 0.950 . S
C753 C749 1.393 . S
C753 C752 1.391 . S
C754 H744 0.950 . S
C754 C755 1.386 . S
C754 C756 1.391 . S
C755 C754 1.386 . S
C755 C759 1.393 1_455 S
C756 H745 0.950 . S
C756 C754 1.391 . S
C756 C757 1.400 . S
C757 C751 1.491 1_554 S
C757 C756 1.400 . S
C757 C758 1.398 1_455 S
C758 H746 0.950 . S
C758 C757 1.398 1_655 S
C758 C759 1.391 . S
C759 H747 0.950 . S
C759 C755 1.393 1_655 S
C759 C758 1.391 . S
H760 C768 0.950 . S
H761 C773 0.950 . S
H762 C770 0.950 . S
H763 C772 0.950 . S
H764 C774 0.950 . S
H765 C776 0.950 . S
H766 C778 0.950 . S
H767 C779 0.950 . S
C768 H760 0.950 . S
C768 C769 1.386 . S
C768 C770 1.391 . S
C769 C768 1.386 . S
C769 C773 1.393 . S
C770 H762 0.950 . S
C770 C768 1.391 . S
C770 C771 1.400 . S
C771 C770 1.400 . S
C771 C772 1.398 . S
C771 C777 1.491 1_556 S
C772 H763 0.950 . S
C772 C771 1.398 . S
C772 C773 1.391 . S
C773 H761 0.950 . S
C773 C769 1.393 . S
C773 C772 1.391 . S
C774 H764 0.950 . S
C774 C775 1.386 . S
C774 C776 1.391 . S
C775 C774 1.386 . S
C775 C779 1.393 . S
C776 H765 0.950 . S
C776 C774 1.391 . S
C776 C777 1.400 . S
C777 C771 1.491 1_554 S
C777 C776 1.400 . S
C777 C778 1.398 . S
C778 H766 0.950 . S
C778 C777 1.398 . S
C778 C779 1.391 . S
C779 H767 0.950 . S
C779 C775 1.393 . S
C779 C778 1.391 . S
H780 C788 0.950 . S
H781 C793 0.950 . S
H782 C790 0.950 . S
H783 C792 0.950 . S
H784 C794 0.950 . S
H785 C796 0.950 . S
H786 C798 0.950 . S
H787 C799 0.950 . S
C788 H780 0.950 . S
C788 C789 1.386 . S
C788 C790 1.391 . S
C789 C788 1.386 . S
C789 C793 1.393 . S
C790 H782 0.950 . S
C790 C788 1.391 . S
C790 C791 1.400 . S
C791 C790 1.400 . S
C791 C792 1.398 . S
C791 C797 1.491 . S
C792 H783 0.950 . S
C792 C791 1.398 . S
C792 C793 1.391 . S
C793 H781 0.950 . S
C793 C789 1.393 . S
C793 C792 1.391 . S
C794 H784 0.950 . S
C794 C795 1.386 . S
C794 C796 1.391 . S
C795 C794 1.386 . S
C795 C799 1.393 . S
C796 H785 0.950 . S
C796 C794 1.391 . S
C796 C797 1.400 . S
C797 C791 1.491 . S
C797 C796 1.400 . S
C797 C798 1.398 . S
C798 H786 0.950 . S
C798 C797 1.398 . S
C798 C799 1.391 . S
C799 H787 0.950 . S
C799 C795 1.393 . S
C799 C798 1.391 . S
H800 C808 0.950 . S
H801 C813 0.950 . S
H802 C810 0.950 . S
H803 C812 0.950 . S
H804 C814 0.950 . S
H805 C816 0.950 . S
H806 C818 0.950 . S
H807 C819 0.950 . S
C808 H800 0.950 . S
C808 C809 1.386 . S
C808 C810 1.391 . S
C809 C808 1.386 . S
C809 C813 1.393 . S
C810 H802 0.950 . S
C810 C808 1.391 . S
C810 C811 1.400 . S
C811 C810 1.400 . S
C811 C812 1.398 . S
C811 C817 1.491 . S
C812 H803 0.950 . S
C812 C811 1.398 . S
C812 C813 1.391 . S
C813 H801 0.950 . S
C813 C809 1.393 . S
C813 C812 1.391 . S
C814 H804 0.950 . S
C814 C815 1.386 . S
C814 C816 1.391 . S
C815 C814 1.386 . S
C815 C819 1.393 . S
C816 H805 0.950 . S
C816 C814 1.391 . S
C816 C817 1.400 . S
C817 C811 1.491 . S
C817 C816 1.400 . S
C817 C818 1.398 . S
C818 H806 0.950 . S
C818 C817 1.398 . S
C818 C819 1.391 . S
C819 H807 0.950 . S
C819 C815 1.393 . S
C819 C818 1.391 . S
H820 C828 0.950 . S
H821 C833 0.950 . S
H822 C830 0.950 . S
H823 C832 0.950 . S
H824 C834 0.950 . S
H825 C836 0.950 . S
H826 C838 0.950 . S
H827 C839 0.950 . S
C828 H820 0.950 . S
C828 C829 1.386 . S
C828 C830 1.391 . S
C829 C828 1.386 . S
C829 C833 1.393 . S
C830 H822 0.950 . S
C830 C828 1.391 . S
C830 C831 1.400 . S
C831 C830 1.400 . S
C831 C832 1.398 . S
C831 C837 1.491 . S
C832 H823 0.950 . S
C832 C831 1.398 . S
C832 C833 1.391 . S
C833 H821 0.950 . S
C833 C829 1.393 . S
C833 C832 1.391 . S
C834 H824 0.950 . S
C834 C835 1.386 . S
C834 C836 1.391 . S
C835 C834 1.386 . S
C835 C839 1.393 . S
C836 H825 0.950 . S
C836 C834 1.391 . S
C836 C837 1.400 . S
C837 C831 1.491 . S
C837 C836 1.400 . S
C837 C838 1.398 . S
C838 H826 0.950 . S
C838 C837 1.398 . S
C838 C839 1.391 . S
C839 H827 0.950 . S
C839 C835 1.393 . S
C839 C838 1.391 . S
H840 C848 0.950 . S
H841 C853 0.950 . S
H842 C850 0.950 . S
H843 C852 0.950 . S
H844 C854 0.950 . S
H845 C856 0.950 . S
H846 C858 0.950 . S
H847 C859 0.950 . S
C848 H840 0.950 . S
C848 C849 1.386 . S
C848 C850 1.391 . S
C849 C848 1.386 . S
C849 C853 1.393 . S
C850 H842 0.950 . S
C850 C848 1.391 . S
C850 C851 1.400 . S
C851 C850 1.400 . S
C851 C852 1.398 . S
C851 C857 1.491 . S
C852 H843 0.950 . S
C852 C851 1.398 . S
C852 C853 1.391 . S
C853 H841 0.950 . S
C853 C849 1.393 . S
C853 C852 1.391 . S
C854 H844 0.950 . S
C854 C855 1.386 . S
C854 C856 1.391 . S
C855 C854 1.386 . S
C855 C859 1.393 . S
C856 H845 0.950 . S
C856 C854 1.391 . S
C856 C857 1.400 . S
C857 C851 1.491 . S
C857 C856 1.400 . S
C857 C858 1.398 . S
C858 H846 0.950 . S
C858 C857 1.398 . S
C858 C859 1.391 . S
C859 H847 0.950 . S
C859 C855 1.393 . S
C859 C858 1.391 . S
H860 C868 0.950 . S
H861 C873 0.950 . S
H862 C870 0.950 . S
H863 C872 0.950 . S
H864 C874 0.950 . S
H865 C876 0.950 . S
H866 C878 0.950 . S
H867 C879 0.950 . S
C868 H860 0.950 . S
C868 C869 1.386 . S
C868 C870 1.391 . S
C869 C868 1.386 . S
C869 C873 1.393 . S
C870 H862 0.950 . S
C870 C868 1.391 . S
C870 C871 1.400 . S
C871 C870 1.400 . S
C871 C872 1.398 . S
C871 C877 1.491 . S
C872 H863 0.950 . S
C872 C871 1.398 . S
C872 C873 1.391 . S
C873 H861 0.950 . S
C873 C869 1.393 . S
C873 C872 1.391 . S
C874 H864 0.950 . S
C874 C875 1.386 . S
C874 C876 1.391 . S
C875 C874 1.386 . S
C875 C879 1.393 . S
C876 H865 0.950 . S
C876 C874 1.391 . S
C876 C877 1.400 . S
C877 C871 1.491 . S
C877 C876 1.400 . S
C877 C878 1.398 . S
C878 H866 0.950 . S
C878 C877 1.398 . S
C878 C879 1.391 . S
C879 H867 0.950 . S
C879 C875 1.393 . S
C879 C878 1.391 . S
H880 C888 0.950 . S
H881 C893 0.950 . S
H882 C890 0.950 . S
H883 C892 0.950 . S
H884 C894 0.950 . S
H885 C896 0.950 . S
H886 C898 0.950 . S
H887 C899 0.950 . S
C888 H880 0.950 . S
C888 C889 1.386 . S
C888 C890 1.391 . S
C889 C888 1.386 . S
C889 C893 1.393 . S
C890 H882 0.950 . S
C890 C888 1.391 . S
C890 C891 1.400 . S
C891 C890 1.400 . S
C891 C892 1.398 . S
C891 C897 1.491 . S
C892 H883 0.950 . S
C892 C891 1.398 . S
C892 C893 1.391 . S
C893 H881 0.950 . S
C893 C889 1.393 . S
C893 C892 1.391 . S
C894 H884 0.950 . S
C894 C895 1.386 . S
C894 C896 1.391 . S
C895 C894 1.386 . S
C895 C899 1.393 . S
C896 H885 0.950 . S
C896 C894 1.391 . S
C896 C897 1.400 . S
C897 C891 1.491 . S
C897 C896 1.400 . S
C897 C898 1.398 . S
C898 H886 0.950 . S
C898 C897 1.398 . S
C898 C899 1.391 . S
C899 H887 0.950 . S
C899 C895 1.393 . S
C899 C898 1.391 . S
H900 C908 0.950 . S
H901 C913 0.950 . S
H902 C910 0.950 . S
H903 C912 0.950 . S
H904 C914 0.950 . S
H905 C916 0.950 . S
H906 C918 0.950 . S
H907 C919 0.950 . S
C908 H900 0.950 . S
C908 C909 1.386 . S
C908 C910 1.391 . S
C909 C908 1.386 . S
C909 C913 1.393 . S
C910 H902 0.950 . S
C910 C908 1.391 . S
C910 C911 1.400 . S
C911 C910 1.400 . S
C911 C912 1.398 . S
C911 C917 1.491 . S
C912 H903 0.950 . S
C912 C911 1.398 . S
C912 C913 1.391 . S
C913 H901 0.950 . S
C913 C909 1.393 . S
C913 C912 1.391 . S
C914 H904 0.950 . S
C914 C915 1.386 . S
C914 C916 1.391 . S
C915 C914 1.386 . S
C915 C919 1.393 . S
C916 H905 0.950 . S
C916 C914 1.391 . S
C916 C917 1.400 . S
C917 C911 1.491 . S
C917 C916 1.400 . S
C917 C918 1.398 . S
C918 H906 0.950 . S
C918 C917 1.398 . S
C918 C919 1.391 . S
C919 H907 0.950 . S
C919 C915 1.393 . S
C919 C918 1.391 . S
H920 C928 0.950 . S
H921 C933 0.950 . S
H922 C930 0.950 . S
H923 C932 0.950 . S
H924 C934 0.950 . S
H925 C936 0.950 . S
H926 C938 0.950 . S
H927 C939 0.950 . S
C928 H920 0.950 . S
C928 C929 1.386 . S
C928 C930 1.391 . S
C929 C928 1.386 . S
C929 C933 1.393 . S
C930 H922 0.950 . S
C930 C928 1.391 . S
C930 C931 1.400 . S
C931 C930 1.400 . S
C931 C932 1.398 . S
C931 C937 1.491 . S
C932 H923 0.950 . S
C932 C931 1.398 . S
C932 C933 1.391 . S
C933 H921 0.950 . S
C933 C929 1.393 . S
C933 C932 1.391 . S
C934 H924 0.950 . S
C934 C935 1.386 . S
C934 C936 1.391 . S
C935 C934 1.386 . S
C935 C939 1.393 . S
C936 H925 0.950 . S
C936 C934 1.391 . S
C936 C937 1.400 . S
C937 C931 1.491 . S
C937 C936 1.400 . S
C937 C938 1.398 . S
C938 H926 0.950 . S
C938 C937 1.398 . S
C938 C939 1.391 . S
C939 H927 0.950 . S
C939 C935 1.393 . S
C939 C938 1.391 . S
H940 C948 0.950 . S
H941 C953 0.950 . S
H942 C950 0.950 . S
H943 C952 0.950 . S
H944 C954 0.950 . S
H945 C956 0.950 . S
H946 C958 0.950 . S
H947 C959 0.950 . S
C948 H940 0.950 . S
C948 C949 1.386 . S
C948 C950 1.391 . S
C949 C948 1.386 . S
C949 C953 1.393 . S
C950 H942 0.950 . S
C950 C948 1.391 . S
C950 C951 1.400 . S
C951 C950 1.400 . S
C951 C952 1.398 . S
C951 C957 1.491 . S
C952 H943 0.950 . S
C952 C951 1.398 . S
C952 C953 1.391 . S
C953 H941 0.950 . S
C953 C949 1.393 . S
C953 C952 1.391 . S
C954 H944 0.950 . S
C954 C955 1.386 . S
C954 C956 1.391 . S
C955 C954 1.386 . S
C955 C959 1.393 . S
C956 H945 0.950 . S
C956 C954 1.391 . S
C956 C957 1.400 . S
C957 C951 1.491 . S
C957 C956 1.400 . S
C957 C958 1.398 . S
C958 H946 0.950 . S
C958 C957 1.398 . S
C958 C959 1.391 . S
C959 H947 0.950 . S
C959 C955 1.393 . S
C959 C958 1.391 . S
H960 C968 0.950 1_455 S
H961 C973 0.950 . S
H962 C970 0.950 . S
H963 C972 0.950 . S
H964 C974 0.950 . S
H965 C976 0.950 . S
H966 C978 0.950 . S
H967 C979 0.950 . S
C968 H960 0.950 1_655 S
C968 C969 1.386 . S
C968 C970 1.391 . S
C969 C968 1.386 . S
C969 C973 1.393 . S
C970 H962 0.950 . S
C970 C968 1.391 . S
C970 C971 1.400 . S
C971 C970 1.400 . S
C971 C972 1.398 . S
C971 C977 1.491 . S
C972 H963 0.950 . S
C972 C971 1.398 . S
C972 C973 1.391 . S
C973 H961 0.950 . S
C973 C969 1.393 . S
C973 C972 1.391 . S
C974 H964 0.950 . S
C974 C975 1.386 . S
C974 C976 1.391 . S
C975 C974 1.386 . S
C975 C979 1.393 . S
C976 H965 0.950 . S
C976 C974 1.391 . S
C976 C977 1.400 . S
C977 C971 1.491 . S
C977 C976 1.400 . S
C977 C978 1.398 . S
C978 H966 0.950 . S
C978 C977 1.398 . S
C978 C979 1.391 . S
C979 H967 0.950 . S
C979 C975 1.393 . S
C979 C978 1.391 . S
H980 C988 0.950 . S
H981 C993 0.950 . S
H982 C990 0.950 . S
H983 C992 0.950 . S
H984 C994 0.950 . S
H985 C996 0.950 . S
H986 C998 0.950 . S
H987 C999 0.950 . S
C988 H980 0.950 . S
C988 C989 1.386 . S
C988 C990 1.391 . S
C989 C988 1.386 . S
C989 C993 1.393 . S
C990 H982 0.950 . S
C990 C988 1.391 . S
C990 C991 1.400 . S
C991 C990 1.400 . S
C991 C992 1.398 . S
C991 C997 1.491 . S
C992 H983 0.950 . S
C992 C991 1.398 . S
C992 C993 1.391 . S
C993 H981 0.950 . S
C993 C989 1.393 . S
C993 C992 1.391 . S
C994 H984 0.950 . S
C994 C995 1.386 . S
C994 C996 1.391 . S
C995 C994 1.386 . S
C995 C999 1.393 . S
C996 H985 0.950 . S
C996 C994 1.391 . S
C996 C997 1.400 . S
C997 C991 1.491 . S
C997 C996 1.400 . S
C997 C998 1.398 . S
C998 H986 0.950 . S
C998 C997 1.398 . S
C998 C999 1.391 . S
C999 H987 0.950 . S
C999 C995 1.393 . S
C999 C998 1.391 . S
H1000 C1008 0.950 . S
H1001 C1013 0.950 . S
H1002 C1010 0.950 . S
H1003 C1012 0.950 . S
H1004 C1014 0.950 . S
H1005 C1016 0.950 . S
H1006 C1018 0.950 . S
H1007 C1019 0.950 . S
C1008 H1000 0.950 . S
C1008 C1009 1.386 . S
C1008 C1010 1.391 . S
C1009 C1008 1.386 . S
C1009 C1013 1.393 . S
C1010 H1002 0.950 . S
C1010 C1008 1.391 . S
C1010 C1011 1.400 . S
C1011 C1010 1.400 . S
C1011 C1012 1.398 . S
C1011 C1017 1.491 . S
C1012 H1003 0.950 . S
C1012 C1011 1.398 . S
C1012 C1013 1.391 . S
C1013 H1001 0.950 . S
C1013 C1009 1.393 . S
C1013 C1012 1.391 . S
C1014 H1004 0.950 . S
C1014 C1015 1.386 . S
C1014 C1016 1.391 . S
C1015 C1014 1.386 . S
C1015 C1019 1.393 . S
C1016 H1005 0.950 . S
C1016 C1014 1.391 . S
C1016 C1017 1.400 . S
C1017 C1011 1.491 . S
C1017 C1016 1.400 . S
C1017 C1018 1.398 . S
C1018 H1006 0.950 . S
C1018 C1017 1.398 . S
C1018 C1019 1.391 . S
C1019 H1007 0.950 . S
C1019 C1015 1.393 . S
C1019 C1018 1.391 . S
H1020 C1028 0.950 . S
H1021 C1033 0.950 . S
H1022 C1030 0.950 . S
H1023 C1032 0.950 . S
H1024 C1034 0.950 . S
H1025 C1036 0.950 . S
H1026 C1038 0.950 . S
H1027 C1039 0.950 . S
C1028 H1020 0.950 . S
C1028 C1029 1.386 . S
C1028 C1030 1.391 . S
C1029 C1028 1.386 . S
C1029 C1033 1.393 . S
C1030 H1022 0.950 . S
C1030 C1028 1.391 . S
C1030 C1031 1.400 . S
C1031 C1030 1.400 . S
C1031 C1032 1.398 . S
C1031 C1037 1.491 1_655 S
C1032 H1023 0.950 . S
C1032 C1031 1.398 . S
C1032 C1033 1.391 . S
C1033 H1021 0.950 . S
C1033 C1029 1.393 . S
C1033 C1032 1.391 . S
C1034 H1024 0.950 . S
C1034 C1035 1.386 . S
C1034 C1036 1.391 . S
C1035 C1034 1.386 . S
C1035 C1039 1.393 . S
C1036 H1025 0.950 . S
C1036 C1034 1.391 . S
C1036 C1037 1.400 . S
C1037 C1031 1.491 1_455 S
C1037 C1036 1.400 . S
C1037 C1038 1.398 . S
C1038 H1026 0.950 . S
C1038 C1037 1.398 . S
C1038 C1039 1.391 . S
C1039 H1027 0.950 . S
C1039 C1035 1.393 . S
C1039 C1038 1.391 . S
H1040 C1048 0.950 . S
H1041 C1053 0.950 . S
H1042 C1050 0.950 . S
H1043 C1052 0.950 . S
H1044 C1054 0.950 . S
H1045 C1056 0.950 . S
H1046 C1058 0.950 . S
H1047 C1059 0.950 . S
C1048 H1040 0.950 . S
C1048 C1049 1.386 . S
C1048 C1050 1.391 . S
C1049 C1048 1.386 . S
C1049 C1053 1.393 . S
C1050 H1042 0.950 . S
C1050 C1048 1.391 . S
C1050 C1051 1.400 . S
C1051 C1050 1.400 . S
C1051 C1052 1.398 . S
C1051 C1057 1.491 . S
C1052 H1043 0.950 . S
C1052 C1051 1.398 . S
C1052 C1053 1.391 . S
C1053 H1041 0.950 . S
C1053 C1049 1.393 . S
C1053 C1052 1.391 . S
C1054 H1044 0.950 . S
C1054 C1055 1.386 . S
C1054 C1056 1.391 . S
C1055 C1054 1.386 . S
C1055 C1059 1.393 . S
C1056 H1045 0.950 . S
C1056 C1054 1.391 . S
C1056 C1057 1.400 . S
C1057 C1051 1.491 . S
C1057 C1056 1.400 . S
C1057 C1058 1.398 . S
C1058 H1046 0.950 . S
C1058 C1057 1.398 . S
C1058 C1059 1.391 . S
C1059 H1047 0.950 . S
C1059 C1055 1.393 . S
C1059 C1058 1.391 . S
H1060 C1068 0.950 . S
H1061 C1073 0.950 . S
H1062 C1070 0.950 1_545 S
H1063 C1072 0.950 . S
H1064 C1074 0.950 . S
H1065 C1076 0.950 . S
H1066 C1078 0.950 . S
H1067 C1079 0.950 . S
C1068 H1060 0.950 . S
C1068 C1069 1.386 . S
C1068 C1070 1.391 . S
C1069 C1068 1.386 . S
C1069 C1073 1.393 . S
C1070 H1062 0.950 1_565 S
C1070 C1068 1.391 . S
C1070 C1071 1.400 . S
C1071 C1070 1.400 . S
C1071 C1072 1.398 . S
C1071 C1077 1.491 1_565 S
C1072 H1063 0.950 . S
C1072 C1071 1.398 . S
C1072 C1073 1.391 . S
C1073 H1061 0.950 . S
C1073 C1069 1.393 . S
C1073 C1072 1.391 . S
C1074 H1064 0.950 . S
C1074 C1075 1.386 . S
C1074 C1076 1.391 . S
C1075 C1074 1.386 . S
C1075 C1079 1.393 . S
C1076 H1065 0.950 . S
C1076 C1074 1.391 . S
C1076 C1077 1.400 . S
C1077 C1071 1.491 1_545 S
C1077 C1076 1.400 . S
C1077 C1078 1.398 . S
C1078 H1066 0.950 . S
C1078 C1077 1.398 . S
C1078 C1079 1.391 . S
C1079 H1067 0.950 . S
C1079 C1075 1.393 . S
C1079 C1078 1.391 . S
H1080 C1088 0.950 . S
H1081 C1093 0.950 . S
H1082 C1090 0.950 . S
H1083 C1092 0.950 . S
H1084 C1094 0.950 . S
H1085 C1096 0.950 . S
H1086 C1098 0.950 . S
H1087 C1099 0.950 . S
C1088 H1080 0.950 . S
C1088 C1089 1.386 . S
C1088 C1090 1.391 . S
C1089 C1088 1.386 . S
C1089 C1093 1.393 . S
C1090 H1082 0.950 . S
C1090 C1088 1.391 . S
C1090 C1091 1.400 . S
C1091 C1090 1.400 . S
C1091 C1092 1.398 . S
C1091 C1097 1.491 . S
C1092 H1083 0.950 . S
C1092 C1091 1.398 . S
C1092 C1093 1.391 . S
C1093 H1081 0.950 . S
C1093 C1089 1.393 . S
C1093 C1092 1.391 . S
C1094 H1084 0.950 . S
C1094 C1095 1.386 . S
C1094 C1096 1.391 . S
C1095 C1094 1.386 . S
C1095 C1099 1.393 . S
C1096 H1085 0.950 . S
C1096 C1094 1.391 . S
C1096 C1097 1.400 . S
C1097 C1091 1.491 . S
C1097 C1096 1.400 . S
C1097 C1098 1.398 . S
C1098 H1086 0.950 . S
C1098 C1097 1.398 . S
C1098 C1099 1.391 . S
C1099 H1087 0.950 . S
C1099 C1095 1.393 . S
C1099 C1098 1.391 . S
H1100 C1108 0.950 . S
H1101 C1113 0.950 . S
H1102 C1110 0.950 . S
H1103 C1112 0.950 . S
H1104 C1114 0.950 . S
H1105 C1116 0.950 . S
H1106 C1118 0.950 . S
H1107 C1119 0.950 . S
C1108 H1100 0.950 . S
C1108 C1109 1.386 . S
C1108 C1110 1.391 . S
C1109 C1108 1.386 . S
C1109 C1113 1.393 . S
C1110 H1102 0.950 . S
C1110 C1108 1.391 . S
C1110 C1111 1.400 . S
C1111 C1110 1.400 . S
C1111 C1112 1.398 . S
C1111 C1117 1.491 . S
C1112 H1103 0.950 . S
C1112 C1111 1.398 . S
C1112 C1113 1.391 . S
C1113 H1101 0.950 . S
C1113 C1109 1.393 . S
C1113 C1112 1.391 . S
C1114 H1104 0.950 . S
C1114 C1115 1.386 . S
C1114 C1116 1.391 . S
C1115 C1114 1.386 . S
C1115 C1119 1.393 . S
C1116 H1105 0.950 . S
C1116 C1114 1.391 . S
C1116 C1117 1.400 . S
C1117 C1111 1.491 . S
C1117 C1116 1.400 . S
C1117 C1118 1.398 . S
C1118 H1106 0.950 . S
C1118 C1117 1.398 . S
C1118 C1119 1.391 . S
C1119 H1107 0.950 . S
C1119 C1115 1.393 . S
C1119 C1118 1.391 . S
H1120 C1128 0.950 . S
H1121 C1133 0.950 . S
H1122 C1130 0.950 . S
H1123 C1132 0.950 . S
H1124 C1134 0.950 . S
H1125 C1136 0.950 . S
H1126 C1138 0.950 . S
H1127 C1139 0.950 . S
C1128 H1120 0.950 . S
C1128 C1129 1.386 . S
C1128 C1130 1.391 . S
C1129 C1128 1.386 . S
C1129 C1133 1.393 . S
C1130 H1122 0.950 . S
C1130 C1128 1.391 . S
C1130 C1131 1.400 . S
C1131 C1130 1.400 . S
C1131 C1132 1.398 . S
C1131 C1137 1.491 . S
C1132 H1123 0.950 . S
C1132 C1131 1.398 . S
C1132 C1133 1.391 . S
C1133 H1121 0.950 . S
C1133 C1129 1.393 . S
C1133 C1132 1.391 . S
C1134 H1124 0.950 . S
C1134 C1135 1.386 . S
C1134 C1136 1.391 . S
C1135 C1134 1.386 . S
C1135 C1139 1.393 . S
C1136 H1125 0.950 . S
C1136 C1134 1.391 . S
C1136 C1137 1.400 . S
C1137 C1131 1.491 . S
C1137 C1136 1.400 . S
C1137 C1138 1.398 . S
C1138 H1126 0.950 . S
C1138 C1137 1.398 . S
C1138 C1139 1.391 . S
C1139 H1127 0.950 . S
C1139 C1135 1.393 . S
C1139 C1138 1.391 . S
H1140 C1148 0.950 . S
H1141 C1153 0.950 . S
H1142 C1150 0.950 . S
H1143 C1152 0.950 . S
H1144 C1154 0.950 . S
H1145 C1156 0.950 . S
H1146 C1158 0.950 . S
H1147 C1159 0.950 . S
C1148 H1140 0.950 . S
C1148 C1149 1.386 . S
C1148 C1150 1.391 . S
C1149 C1148 1.386 . S
C1149 C1153 1.393 . S
C1150 H1142 0.950 . S
C1150 C1148 1.391 . S
C1150 C1151 1.400 . S
C1151 C1150 1.400 . S
C1151 C1152 1.398 . S
C1151 C1157 1.491 . S
C1152 H1143 0.950 . S
C1152 C1151 1.398 . S
C1152 C1153 1.391 . S
C1153 H1141 0.950 . S
C1153 C1149 1.393 . S
C1153 C1152 1.391 . S
C1154 H1144 0.950 . S
C1154 C1155 1.386 . S
C1154 C1156 1.391 . S
C1155 C1154 1.386 . S
C1155 C1159 1.393 . S
C1156 H1145 0.950 . S
C1156 C1154 1.391 . S
C1156 C1157 1.400 . S
C1157 C1151 1.491 . S
C1157 C1156 1.400 . S
C1157 C1158 1.398 . S
C1158 H1146 0.950 . S
C1158 C1157 1.398 . S
C1158 C1159 1.391 . S
C1159 H1147 0.950 . S
C1159 C1155 1.393 . S
C1159 C1158 1.391 . S
H1160 C1168 0.950 . S
H1161 C1173 0.950 . S
H1162 C1170 0.950 . S
H1163 C1172 0.950 . S
H1164 C1174 0.950 . S
H1165 C1176 0.950 . S
H1166 C1178 0.950 . S
H1167 C1179 0.950 . S
C1168 H1160 0.950 . S
C1168 C1169 1.386 . S
C1168 C1170 1.391 . S
C1169 C1168 1.386 . S
C1169 C1173 1.393 . S
C1170 H1162 0.950 . S
C1170 C1168 1.391 . S
C1170 C1171 1.400 . S
C1171 C1170 1.400 . S
C1171 C1172 1.398 . S
C1171 C1177 1.491 . S
C1172 H1163 0.950 . S
C1172 C1171 1.398 . S
C1172 C1173 1.391 . S
C1173 H1161 0.950 . S
C1173 C1169 1.393 . S
C1173 C1172 1.391 . S
C1174 H1164 0.950 . S
C1174 C1175 1.386 . S
C1174 C1176 1.391 . S
C1175 C1174 1.386 . S
C1175 C1179 1.393 . S
C1176 H1165 0.950 . S
C1176 C1174 1.391 . S
C1176 C1177 1.400 . S
C1177 C1171 1.491 . S
C1177 C1176 1.400 . S
C1177 C1178 1.398 . S
C1178 H1166 0.950 . S
C1178 C1177 1.398 . S
C1178 C1179 1.391 . S
C1179 H1167 0.950 . S
C1179 C1175 1.393 . S
C1179 C1178 1.391 . S
H1180 C1188 0.950 . S
H1181 C1193 0.950 . S
H1182 C1190 0.950 . S
H1183 C1192 0.950 . S
H1184 C1194 0.950 . S
H1185 C1196 0.950 . S
H1186 C1198 0.950 . S
H1187 C1199 0.950 . S
C1188 H1180 0.950 . S
C1188 C1189 1.386 . S
C1188 C1190 1.391 . S
C1189 C1188 1.386 . S
C1189 C1193 1.393 . S
C1190 H1182 0.950 . S
C1190 C1188 1.391 . S
C1190 C1191 1.400 . S
C1191 C1190 1.400 . S
C1191 C1192 1.398 . S
C1191 C1197 1.491 . S
C1192 H1183 0.950 . S
C1192 C1191 1.398 . S
C1192 C1193 1.391 . S
C1193 H1181 0.950 . S
C1193 C1189 1.393 . S
C1193 C1192 1.391 . S
C1194 H1184 0.950 . S
C1194 C1195 1.386 . S
C1194 C1196 1.391 . S
C1195 C1194 1.386 . S
C1195 C1199 1.393 . S
C1196 H1185 0.950 . S
C1196 C1194 1.391 . S
C1196 C1197 1.400 . S
C1197 C1191 1.491 . S
C1197 C1196 1.400 . S
C1197 C1198 1.398 . S
C1198 H1186 0.950 . S
C1198 C1197 1.398 . S
C1198 C1199 1.391 . S
C1199 H1187 0.950 . S
C1199 C1195 1.393 . S
C1199 C1198 1.391 . S
H1200 C1208 0.950 . S
H1201 C1213 0.950 . S
H1202 C1210 0.950 . S
H1203 C1212 0.950 . S
H1204 C1214 0.950 . S
H1205 C1216 0.950 . S
H1206 C1218 0.950 . S
H1207 C1219 0.950 . S
C1208 H1200 0.950 . S
C1208 C1209 1.386 . S
C1208 C1210 1.391 . S
C1209 C1208 1.386 . S
C1209 C1213 1.393 . S
C1210 H1202 0.950 . S
C1210 C1208 1.391 . S
C1210 C1211 1.400 . S
C1211 C1210 1.400 . S
C1211 C1212 1.398 . S
C1211 C1217 1.491 . S
C1212 H1203 0.950 . S
C1212 C1211 1.398 . S
C1212 C1213 1.391 . S
C1213 H1201 0.950 . S
C1213 C1209 1.393 . S
C1213 C1212 1.391 . S
C1214 H1204 0.950 . S
C1214 C1215 1.386 . S
C1214 C1216 1.391 . S
C1215 C1214 1.386 . S
C1215 C1219 1.393 . S
C1216 H1205 0.950 . S
C1216 C1214 1.391 . S
C1216 C1217 1.400 . S
C1217 C1211 1.491 . S
C1217 C1216 1.400 . S
C1217 C1218 1.398 . S
C1218 H1206 0.950 . S
C1218 C1217 1.398 . S
C1218 C1219 1.391 . S
C1219 H1207 0.950 . S
C1219 C1215 1.393 . S
C1219 C1218 1.391 . S
H1220 C1228 0.950 . S
H1221 C1233 0.950 . S
H1222 C1230 0.950 . S
H1223 C1232 0.950 . S
H1224 C1234 0.950 . S
H1225 C1236 0.950 . S
H1226 C1238 0.950 . S
H1227 C1239 0.950 . S
C1228 H1220 0.950 . S
C1228 C1229 1.386 . S
C1228 C1230 1.391 . S
C1229 C1228 1.386 . S
C1229 C1233 1.393 . S
C1230 H1222 0.950 . S
C1230 C1228 1.391 . S
C1230 C1231 1.400 . S
C1231 C1230 1.400 . S
C1231 C1232 1.398 . S
C1231 C1237 1.491 . S
C1232 H1223 0.950 . S
C1232 C1231 1.398 . S
C1232 C1233 1.391 . S
C1233 H1221 0.950 . S
C1233 C1229 1.393 . S
C1233 C1232 1.391 . S
C1234 H1224 0.950 . S
C1234 C1235 1.386 . S
C1234 C1236 1.391 . S
C1235 C1234 1.386 . S
C1235 C1239 1.393 . S
C1236 H1225 0.950 . S
C1236 C1234 1.391 . S
C1236 C1237 1.400 . S
C1237 C1231 1.491 . S
C1237 C1236 1.400 . S
C1237 C1238 1.398 . S
C1238 H1226 0.950 . S
C1238 C1237 1.398 . S
C1238 C1239 1.391 . S
C1239 H1227 0.950 . S
C1239 C1235 1.393 . S
C1239 C1238 1.391 . S
H1240 C1248 0.950 . S
H1241 C1253 0.950 . S
H1242 C1250 0.950 . S
H1243 C1252 0.950 . S
H1244 C1254 0.950 . S
H1245 C1256 0.950 . S
H1246 C1258 0.950 . S
H1247 C1259 0.950 . S
C1248 H1240 0.950 . S
C1248 C1249 1.386 . S
C1248 C1250 1.391 . S
C1249 C1248 1.386 . S
C1249 C1253 1.393 . S
C1250 H1242 0.950 . S
C1250 C1248 1.391 . S
C1250 C1251 1.400 . S
C1251 C1250 1.400 . S
C1251 C1252 1.398 . S
C1251 C1257 1.491 . S
C1252 H1243 0.950 . S
C1252 C1251 1.398 . S
C1252 C1253 1.391 . S
C1253 H1241 0.950 . S
C1253 C1249 1.393 . S
C1253 C1252 1.391 . S
C1254 H1244 0.950 . S
C1254 C1255 1.386 . S
C1254 C1256 1.391 . S
C1255 C1254 1.386 . S
C1255 C1259 1.393 . S
C1256 H1245 0.950 . S
C1256 C1254 1.391 . S
C1256 C1257 1.400 . S
C1257 C1251 1.491 . S
C1257 C1256 1.400 . S
C1257 C1258 1.398 . S
C1258 H1246 0.950 . S
C1258 C1257 1.398 . S
C1258 C1259 1.391 . S
C1259 H1247 0.950 . S
C1259 C1255 1.393 . S
C1259 C1258 1.391 . S
H1260 C1268 0.950 . S
H1261 C1273 0.950 . S
H1262 C1270 0.950 . S
H1263 C1272 0.950 . S
H1264 C1274 0.950 . S
H1265 C1276 0.950 . S
H1266 C1278 0.950 . S
H1267 C1279 0.950 . S
C1268 H1260 0.950 . S
C1268 C1269 1.386 . S
C1268 C1270 1.391 . S
C1269 C1268 1.386 . S
C1269 C1273 1.393 . S
C1270 H1262 0.950 . S
C1270 C1268 1.391 . S
C1270 C1271 1.400 . S
C1271 C1270 1.400 . S
C1271 C1272 1.398 . S
C1271 C1277 1.491 . S
C1272 H1263 0.950 . S
C1272 C1271 1.398 . S
C1272 C1273 1.391 . S
C1273 H1261 0.950 . S
C1273 C1269 1.393 . S
C1273 C1272 1.391 . S
C1274 H1264 0.950 . S
C1274 C1275 1.386 . S
C1274 C1276 1.391 1_455 S
C1275 C1274 1.386 . S
C1275 C1279 1.393 . S
C1276 H1265 0.950 . S
C1276 C1274 1.391 1_655 S
C1276 C1277 1.400 . S
C1277 C1271 1.491 . S
C1277 C1276 1.400 . S
C1277 C1278 1.398 . S
C1278 H1266 0.950 . S
C1278 C1277 1.398 . S
C1278 C1279 1.391 1_655 S
C1279 H1267 0.950 . S
C1279 C1275 1.393 . S
C1279 C1278 1.391 1_455 S
H1280 C1288 0.950 . S
H1281 C1293 0.950 1_565 S
H1282 C1290 0.950 . S
H1283 C1292 0.950 . S
H1284 C1294 0.950 . S
H1285 C1296 0.950 . S
H1286 C1298 0.950 . S
H1287 C1299 0.950 . S
C1288 H1280 0.950 . S
C1288 C1289 1.386 . S
C1288 C1290 1.391 . S
C1289 C1288 1.386 . S
C1289 C1293 1.393 . S
C1290 H1282 0.950 . S
C1290 C1288 1.391 . S
C1290 C1291 1.400 . S
C1291 C1290 1.400 . S
C1291 C1292 1.398 . S
C1291 C1297 1.491 . S
C1292 H1283 0.950 . S
C1292 C1291 1.398 . S
C1292 C1293 1.391 . S
C1293 H1281 0.950 1_545 S
C1293 C1289 1.393 . S
C1293 C1292 1.391 . S
C1294 H1284 0.950 . S
C1294 C1295 1.386 . S
C1294 C1296 1.391 . S
C1295 C1294 1.386 . S
C1295 C1299 1.393 . S
C1296 H1285 0.950 . S
C1296 C1294 1.391 . S
C1296 C1297 1.400 . S
C1297 C1291 1.491 . S
C1297 C1296 1.400 . S
C1297 C1298 1.398 . S
C1298 H1286 0.950 . S
C1298 C1297 1.398 . S
C1298 C1299 1.391 . S
C1299 H1287 0.950 . S
C1299 C1295 1.393 . S
C1299 C1298 1.391 . S
H1300 C1308 0.950 . S
H1301 C1313 0.950 1_565 S
H1302 C1310 0.950 . S
H1303 C1312 0.950 . S
H1304 C1314 0.950 . S
H1305 C1316 0.950 . S
H1306 C1318 0.950 . S
H1307 C1319 0.950 . S
C1308 H1300 0.950 . S
C1308 C1309 1.386 1_545 S
C1308 C1310 1.391 . S
C1309 C1308 1.386 1_565 S
C1309 C1313 1.393 1_565 S
C1310 H1302 0.950 . S
C1310 C1308 1.391 . S
C1310 C1311 1.400 . S
C1311 C1310 1.400 . S
C1311 C1312 1.398 . S
C1311 C1317 1.491 . S
C1312 H1303 0.950 . S
C1312 C1311 1.398 . S
C1312 C1313 1.391 . S
C1313 H1301 0.950 1_545 S
C1313 C1309 1.393 1_545 S
C1313 C1312 1.391 . S
C1314 H1304 0.950 . S
C1314 C1315 1.386 . S
C1314 C1316 1.391 1_455 S
C1315 C1314 1.386 . S
C1315 C1319 1.393 1_455 S
C1316 H1305 0.950 . S
C1316 C1314 1.391 1_655 S
C1316 C1317 1.400 . S
C1317 C1311 1.491 . S
C1317 C1316 1.400 . S
C1317 C1318 1.398 . S
C1318 H1306 0.950 . S
C1318 C1317 1.398 . S
C1318 C1319 1.391 . S
C1319 H1307 0.950 . S
C1319 C1315 1.393 1_655 S
C1319 C1318 1.391 . S
H1320 C1328 0.950 . S
H1321 C1333 0.950 . S
H1322 C1330 0.950 . S
H1323 C1332 0.950 . S
H1324 C1334 0.950 . S
H1325 C1336 0.950 . S
H1326 C1338 0.950 . S
H1327 C1339 0.950 . S
C1328 H1320 0.950 . S
C1328 C1329 1.386 . S
C1328 C1330 1.391 . S
C1329 C1328 1.386 . S
C1329 C1333 1.393 . S
C1330 H1322 0.950 . S
C1330 C1328 1.391 . S
C1330 C1331 1.400 . S
C1331 C1330 1.400 . S
C1331 C1332 1.398 . S
C1331 C1337 1.491 . S
C1332 H1323 0.950 . S
C1332 C1331 1.398 . S
C1332 C1333 1.391 . S
C1333 H1321 0.950 . S
C1333 C1329 1.393 . S
C1333 C1332 1.391 . S
C1334 H1324 0.950 . S
C1334 C1335 1.386 . S
C1334 C1336 1.391 1_545 S
C1335 C1334 1.386 . S
C1335 C1339 1.393 . S
C1336 H1325 0.950 . S
C1336 C1334 1.391 1_565 S
C1336 C1337 1.400 . S
C1337 C1331 1.491 . S
C1337 C1336 1.400 . S
C1337 C1338 1.398 . S
C1338 H1326 0.950 . S
C1338 C1337 1.398 . S
C1338 C1339 1.391 1_565 S
C1339 H1327 0.950 . S
C1339 C1335 1.393 . S
C1339 C1338 1.391 1_545 S
H1340 C1348 0.950 . S
H1341 C1353 0.950 . S
H1342 C1350 0.950 . S
H1343 C1352 0.950 . S
H1344 C1354 0.950 . S
H1345 C1356 0.950 . S
H1346 C1358 0.950 . S
H1347 C1359 0.950 1_655 S
C1348 H1340 0.950 . S
C1348 C1349 1.386 . S
C1348 C1350 1.391 1_545 S
C1349 C1348 1.386 . S
C1349 C1353 1.393 1_545 S
C1350 H1342 0.950 . S
C1350 C1348 1.391 1_565 S
C1350 C1351 1.400 . S
C1351 C1350 1.400 . S
C1351 C1352 1.398 . S
C1351 C1357 1.491 . S
C1352 H1343 0.950 . S
C1352 C1351 1.398 . S
C1352 C1353 1.391 . S
C1353 H1341 0.950 . S
C1353 C1349 1.393 1_565 S
C1353 C1352 1.391 . S
C1354 H1344 0.950 . S
C1354 C1355 1.386 1_455 S
C1354 C1356 1.391 . S
C1355 C1354 1.386 1_655 S
C1355 C1359 1.393 1_655 S
C1356 H1345 0.950 . S
C1356 C1354 1.391 . S
C1356 C1357 1.400 . S
C1357 C1351 1.491 . S
C1357 C1356 1.400 . S
C1357 C1358 1.398 . S
C1358 H1346 0.950 . S
C1358 C1357 1.398 . S
C1358 C1359 1.391 . S
C1359 H1347 0.950 1_455 S
C1359 C1355 1.393 1_455 S
C1359 C1358 1.391 . S
H1360 C1368 0.950 . S
H1361 C1373 0.950 . S
H1362 C1370 0.950 . S
H1363 C1372 0.950 . S
H1364 C1374 0.950 . S
H1365 C1376 0.950 . S
H1366 C1378 0.950 . S
H1367 C1379 0.950 1_655 S
C1368 H1360 0.950 . S
C1368 C1369 1.386 . S
C1368 C1370 1.391 . S
C1369 C1368 1.386 . S
C1369 C1373 1.393 . S
C1370 H1362 0.950 . S
C1370 C1368 1.391 . S
C1370 C1371 1.400 . S
C1371 C1370 1.400 . S
C1371 C1372 1.398 . S
C1371 C1377 1.491 . S
C1372 H1363 0.950 . S
C1372 C1371 1.398 . S
C1372 C1373 1.391 . S
C1373 H1361 0.950 . S
C1373 C1369 1.393 . S
C1373 C1372 1.391 . S
C1374 H1364 0.950 . S
C1374 C1375 1.386 . S
C1374 C1376 1.391 . S
C1375 C1374 1.386 . S
C1375 C1379 1.393 . S
C1376 H1365 0.950 . S
C1376 C1374 1.391 . S
C1376 C1377 1.400 . S
C1377 C1371 1.491 . S
C1377 C1376 1.400 . S
C1377 C1378 1.398 . S
C1378 H1366 0.950 . S
C1378 C1377 1.398 . S
C1378 C1379 1.391 . S
C1379 H1367 0.950 1_455 S
C1379 C1375 1.393 . S
C1379 C1378 1.391 . S
H1380 C1388 0.950 . S
H1381 C1393 0.950 . S
H1382 C1390 0.950 . S
H1383 C1392 0.950 . S
H1384 C1394 0.950 . S
H1385 C1396 0.950 . S
H1386 C1398 0.950 . S
H1387 C1399 0.950 . S
C1388 H1380 0.950 . S
C1388 C1389 1.386 . S
C1388 C1390 1.391 . S
C1389 C1388 1.386 . S
C1389 C1393 1.393 . S
C1390 H1382 0.950 . S
C1390 C1388 1.391 . S
C1390 C1391 1.400 . S
C1391 C1390 1.400 . S
C1391 C1392 1.398 . S
C1391 C1397 1.491 . S
C1392 H1383 0.950 . S
C1392 C1391 1.398 . S
C1392 C1393 1.391 . S
C1393 H1381 0.950 . S
C1393 C1389 1.393 . S
C1393 C1392 1.391 . S
C1394 H1384 0.950 . S
C1394 C1395 1.386 . S
C1394 C1396 1.391 . S
C1395 C1394 1.386 . S
C1395 C1399 1.393 . S
C1396 H1385 0.950 . S
C1396 C1394 1.391 . S
C1396 C1397 1.400 . S
C1397 C1391 1.491 . S
C1397 C1396 1.400 . S
C1397 C1398 1.398 . S
C1398 H1386 0.950 . S
C1398 C1397 1.398 . S
C1398 C1399 1.391 . S
C1399 H1387 0.950 . S
C1399 C1395 1.393 . S
C1399 C1398 1.391 . S
H1400 C1408 0.950 . S
H1401 C1413 0.950 . S
H1402 C1410 0.950 . S
H1403 C1412 0.950 . S
H1404 C1414 0.950 . S
H1405 C1416 0.950 . S
H1406 C1418 0.950 . S
H1407 C1419 0.950 . S
C1408 H1400 0.950 . S
C1408 C1409 1.386 . S
C1408 C1410 1.391 . S
C1409 C1408 1.386 . S
C1409 C1413 1.393 . S
C1410 H1402 0.950 . S
C1410 C1408 1.391 . S
C1410 C1411 1.400 . S
C1411 C1410 1.400 . S
C1411 C1412 1.398 . S
C1411 C1417 1.491 . S
C1412 H1403 0.950 . S
C1412 C1411 1.398 . S
C1412 C1413 1.391 . S
C1413 H1401 0.950 . S
C1413 C1409 1.393 . S
C1413 C1412 1.391 . S
C1414 H1404 0.950 . S
C1414 C1415 1.386 . S
C1414 C1416 1.391 . S
C1415 C1414 1.386 . S
C1415 C1419 1.393 . S
C1416 H1405 0.950 . S
C1416 C1414 1.391 . S
C1416 C1417 1.400 . S
C1417 C1411 1.491 . S
C1417 C1416 1.400 . S
C1417 C1418 1.398 . S
C1418 H1406 0.950 . S
C1418 C1417 1.398 . S
C1418 C1419 1.391 . S
C1419 H1407 0.950 . S
C1419 C1415 1.393 . S
C1419 C1418 1.391 . S
H1420 C1428 0.950 . S
H1421 C1433 0.950 . S
H1422 C1430 0.950 . S
H1423 C1432 0.950 . S
H1424 C1434 0.950 . S
H1425 C1436 0.950 . S
H1426 C1438 0.950 . S
H1427 C1439 0.950 . S
C1428 H1420 0.950 . S
C1428 C1429 1.386 . S
C1428 C1430 1.391 . S
C1429 C1428 1.386 . S
C1429 C1433 1.393 . S
C1430 H1422 0.950 . S
C1430 C1428 1.391 . S
C1430 C1431 1.400 . S
C1431 C1430 1.400 . S
C1431 C1432 1.398 . S
C1431 C1437 1.491 . S
C1432 H1423 0.950 . S
C1432 C1431 1.398 . S
C1432 C1433 1.391 . S
C1433 H1421 0.950 . S
C1433 C1429 1.393 . S
C1433 C1432 1.391 . S
C1434 H1424 0.950 . S
C1434 C1435 1.386 . S
C1434 C1436 1.391 . S
C1435 C1434 1.386 . S
C1435 C1439 1.393 . S
C1436 H1425 0.950 . S
C1436 C1434 1.391 . S
C1436 C1437 1.400 . S
C1437 C1431 1.491 . S
C1437 C1436 1.400 . S
C1437 C1438 1.398 . S
C1438 H1426 0.950 . S
C1438 C1437 1.398 . S
C1438 C1439 1.391 . S
C1439 H1427 0.950 . S
C1439 C1435 1.393 . S
C1439 C1438 1.391 . S
C369 C2 1.022 . S
C375 C49 0.968 . S
C389 C9 0.971 . S
C395 C22 1.028 . S
C409 C29 1.017 . S
C415 C42 0.997 . S
C429 C62 1.021 . S
C435 C89 0.968 . S
C449 C109 1.004 . S
C455 C82 0.990 . S
C469 C102 1.012 . S
C475 C69 0.972 . S
C489 C169 1.024 . S
C495 C122 1.001 . S
C509 C129 0.972 . S
C515 C142 1.029 . S
C529 C162 1.029 . S
C535 C149 0.987 . S
C549 C209 0.970 . S
C555 C182 1.015 . S
C569 C202 1.030 . S
C575 C229 0.974 . S
C589 C189 0.980 . S
C595 C222 1.002 . S
C609 C242 1.007 . S
C615 C289 0.976 . S
C629 C249 0.982 . S
C635 C262 1.030 . S
C649 C269 1.002 . S
C655 C282 0.991 . S
C669 C329 0.986 . S
C675 C302 1.004 . S
C689 C349 0.970 . S
C695 C322 1.026 . S
C709 C309 0.989 1_565 S
C715 C342 0.991 . S
C729 C19 1.741 . S
C735 C119 1.741 . S
C749 C79 1.730 . S
C755 C39 1.731 . S
C769 C99 1.740 . S
C775 C59 1.740 . S
C789 C139 1.739 . S
C795 C239 1.740 . S
C809 C159 1.739 . S
C815 C199 1.739 . S
C829 C219 1.732 . S
C835 C179 1.731 . S
C849 C259 1.731 . S
C855 C359 1.732 . S
C869 C319 1.739 . S
C875 C279 1.738 . S
C889 C339 1.741 . S
C895 C299 1.741 . S
C909 C218 1.917 . S
C915 C18 1.927 1_565 S
C929 C38 1.934 . S
C935 C238 1.940 . S
C949 C198 1.928 . S
C955 C58 1.917 . S
C969 C78 1.925 1_655 S
C975 C298 1.917 . S
C989 C98 1.936 . S
C995 C258 1.923 . S
C1009 C278 1.939 . S
C1015 C118 1.937 . S
C1029 C338 1.937 . S
C1035 C138 1.939 . S
C1049 C158 1.931 . S
C1055 C358 1.940 . S
C1069 C178 1.940 . S
C1075 C318 1.932 . S
C1089 C52 1.481 . S
C1095 C4 1.388 . S
C1109 C12 1.482 . S
C1115 C24 1.388 . S
C1129 C44 1.366 . S
C1135 C32 1.497 . S
C1149 C92 1.481 . S
C1155 C64 1.388 . S
C1169 C112 1.480 . S
C1175 C84 1.387 . S
C1189 C104 1.347 . S
C1195 C72 1.490 . S
C1209 C172 1.496 . S
C1215 C124 1.371 . S
C1229 C144 1.347 . S
C1235 C132 1.490 . S
C1249 C152 1.484 . S
C1255 C164 1.388 . S
C1269 C184 1.346 . S
C1275 C212 1.492 . S
C1289 C204 1.348 1_545 S
C1295 C232 1.488 . S
C1309 C192 1.478 . S
C1315 C224 1.381 . S
C1329 C244 1.388 . S
C1335 C292 1.485 . S
C1349 C264 1.388 . S
C1355 C252 1.486 . S
C1369 C272 1.489 . S
C1375 C284 1.385 1_455 S
C1389 C304 1.355 . S
C1395 C332 1.497 . S
C1409 C324 1.385 . S
C1415 C352 1.489 . S
C1429 C312 1.480 . S
C1435 C344 1.362 . S
