# Generated by pormake.
# Topology smd, (6)-cn, num edge types: 1
# Building blocks:
#     Node 0, Type 0, BuildingBlock: HISSIN_clean_sbu_0, # of connection points: 6
#     Node 1, Type 0, BuildingBlock: HISSIN_clean_sbu_0, # of connection points: 6
#     Node 2, Type 0, BuildingBlock: HISSIN_clean_sbu_0, # of connection points: 6
#     Node 3, Type 0, BuildingBlock: HISSIN_clean_sbu_0, # of connection points: 6
#     Node 4, Type 0, BuildingBlock: HISSIN_clean_sbu_0, # of connection points: 6
#     Node 5, Type 0, BuildingBlock: HISSIN_clean_sbu_0, # of connection points: 6
#     Node 6, Type 0, BuildingBlock: HISSIN_clean_sbu_0, # of connection points: 6
#     Node 7, Type 0, BuildingBlock: HISSIN_clean_sbu_0, # of connection points: 6
#     Node 8, Type 0, BuildingBlock: HISSIN_clean_sbu_0, # of connection points: 6
#     Node 9, Type 0, BuildingBlock: HISSIN_clean_sbu_0, # of connection points: 6
#     Node 10, Type 0, BuildingBlock: HISSIN_clean_sbu_0, # of connection points: 6
#     Node 11, Type 0, BuildingBlock: HISSIN_clean_sbu_0, # of connection points: 6
#     Node 12, Type 0, BuildingBlock: HISSIN_clean_sbu_0, # of connection points: 6
#     Node 13, Type 0, BuildingBlock: HISSIN_clean_sbu_0, # of connection points: 6
#     Node 14, Type 0, BuildingBlock: HISSIN_clean_sbu_0, # of connection points: 6
#     Node 15, Type 0, BuildingBlock: HISSIN_clean_sbu_0, # of connection points: 6
#     Node 16, Type 0, BuildingBlock: HISSIN_clean_sbu_0, # of connection points: 6
#     Node 17, Type 0, BuildingBlock: HISSIN_clean_sbu_0, # of connection points: 6
#     Edge 18, Type (0, 0), None
#     Edge 19, Type (0, 0), None
#     Edge 20, Type (0, 0), None
#     Edge 21, Type (0, 0), None
#     Edge 22, Type (0, 0), None
#     Edge 23, Type (0, 0), None
#     Edge 24, Type (0, 0), None
#     Edge 25, Type (0, 0), None
#     Edge 26, Type (0, 0), None
#     Edge 27, Type (0, 0), None
#     Edge 28, Type (0, 0), None
#     Edge 29, Type (0, 0), None
#     Edge 30, Type (0, 0), None
#     Edge 31, Type (0, 0), None
#     Edge 32, Type (0, 0), None
#     Edge 33, Type (0, 0), None
#     Edge 34, Type (0, 0), None
#     Edge 35, Type (0, 0), None
#     Edge 36, Type (0, 0), None
#     Edge 37, Type (0, 0), None
#     Edge 38, Type (0, 0), None
#     Edge 39, Type (0, 0), None
#     Edge 40, Type (0, 0), None
#     Edge 41, Type (0, 0), None
#     Edge 42, Type (0, 0), None
#     Edge 43, Type (0, 0), None
#     Edge 44, Type (0, 0), None
#     Edge 45, Type (0, 0), None
#     Edge 46, Type (0, 0), None
#     Edge 47, Type (0, 0), None
#     Edge 48, Type (0, 0), None
#     Edge 49, Type (0, 0), None
#     Edge 50, Type (0, 0), None
#     Edge 51, Type (0, 0), None
#     Edge 52, Type (0, 0), None
#     Edge 53, Type (0, 0), None
#     Edge 54, Type (0, 0), None
#     Edge 55, Type (0, 0), None
#     Edge 56, Type (0, 0), None
#     Edge 57, Type (0, 0), None
#     Edge 58, Type (0, 0), None
#     Edge 59, Type (0, 0), None
#     Edge 60, Type (0, 0), None
#     Edge 61, Type (0, 0), None
#     Edge 62, Type (0, 0), None
#     Edge 63, Type (0, 0), None
#     Edge 64, Type (0, 0), None
#     Edge 65, Type (0, 0), None
#     Edge 66, Type (0, 0), None
#     Edge 67, Type (0, 0), None
#     Edge 68, Type (0, 0), None
#     Edge 69, Type (0, 0), None
#     Edge 70, Type (0, 0), None
#     Edge 71, Type (0, 0), None
# Relax obj value: 0.377
# Max RMSD: 0.448
# Mean RMSD: 0.421
data_MOF--net-smd--node1-HISSIN_clean_sbu_0--edge1-none
_symmetry_space_group_name_H-M    P1
_symmetry_Int_Tables_number       1
_symmetry_cell_setting            triclinic
loop_
_symmetry_equiv_pos_as_xyz
'x, y, z'
_cell_length_a     28.788394
_cell_length_b     29.452385
_cell_length_c     15.411589
_cell_angle_alpha  92.521454
_cell_angle_beta   92.197266
_cell_angle_gamma 119.70486
loop_
_atom_site_label
_atom_site_type_symbol
_atom_site_fract_x
_atom_site_fract_y
_atom_site_fract_z
_atom_type_partial_charge
Eu0 Eu 0.03308 0.25457 0.62196 0.0
Eu1 Eu 0.97534 0.21665 0.49737 0.0
C2 C 0.94004 0.24734 0.70176 0.0
C3 C 0.05473 0.27194 0.85916 0.0
C4 C 0.00733 0.2235 0.85865 0.0
C5 C 0.06377 0.27401 1.01632 0.0
C6 C 0.98785 0.2008 0.93654 0.0
C7 C 0.08283 0.2959 0.93815 0.0
C8 C 0.01542 0.22636 1.01699 0.0
C9 C 0.07574 0.29632 0.77753 0.0
O10 O 0.00262 0.29041 0.43491 0.0
O11 O 0.07939 0.31066 0.50643 0.0
C12 C 0.05413 0.31796 0.43767 0.0
O13 O 0.05887 0.19547 0.6101 0.0
O14 O 0.92551 0.20832 0.38295 0.0
O15 O 0.9459 0.14763 0.4064 0.0
O16 O 0.05536 0.21357 0.47616 0.0
C17 C 0.07529 0.19522 0.53409 0.0
O18 O 0.97508 0.16559 0.64967 0.0
O19 O 0.90779 0.15927 0.56701 0.0
O20 O 0.95433 0.25855 0.61829 0.0
O21 O 0.09272 0.27186 0.72775 0.0
O22 O 0.04645 0.31051 0.73316 0.0
O23 O 0.95516 0.25661 0.62266 0.0
C24 C 0.94973 0.17507 0.26376 0.0
C25 C 0.00541 0.20263 0.25768 0.0
C26 C 0.93723 0.17605 0.10757 0.0
C27 C 0.02689 0.21668 0.17711 0.0
C28 C 0.91611 0.16074 0.18791 0.0
C29 C 0.99303 0.20512 0.10106 0.0
C30 C 0.92737 0.16775 0.34953 0.0
C31 C 0.923 0.13942 0.62661 0.0
H32 H 0.98529 0.20298 0.7984 0.0
H33 H 0.08676 0.29528 1.07597 0.0
H34 H 0.95137 0.16319 0.93317 0.0
H35 H 0.12014 0.33113 0.93886 0.0
H36 H 0.03241 0.21476 0.31542 0.0
H37 H 0.90941 0.16714 1.05171 0.0
H38 H 0.07007 0.23758 0.17534 0.0
H39 H 0.87345 0.14063 0.19125 0.0
Eu40 Eu 0.77836 0.75512 0.5394 0.0
Eu41 Eu 0.75755 0.78486 0.65633 0.0
C42 C 0.69767 0.76538 0.43809 0.0
C43 C 0.77851 0.72111 0.30721 0.0
C44 C 0.73055 0.70192 0.2559 0.0
C45 C 0.82744 0.7755 0.19202 0.0
C46 C 0.73077 0.72065 0.17503 0.0
C47 C 0.82694 0.75852 0.27512 0.0
C48 C 0.77917 0.75703 0.14213 0.0
C49 C 0.77676 0.70531 0.39637 0.0
O50 O 0.71076 0.70747 0.71427 0.0
O51 O 0.77482 0.7006 0.65398 0.0
C52 C 0.73945 0.68512 0.71493 0.0
O53 O 0.86301 0.81772 0.55012 0.0
O54 O 0.70794 0.78196 0.76141 0.0
O55 O 0.79186 0.84477 0.76279 0.0
O56 O 0.84519 0.79392 0.681 0.0
C57 C 0.88245 0.81509 0.62462 0.0
O58 O 0.81063 0.84368 0.50505 0.0
O59 O 0.75895 0.85307 0.59845 0.0
O60 O 0.69674 0.75525 0.52447 0.0
O61 O 0.81974 0.73314 0.44738 0.0
O62 O 0.73323 0.69376 0.43513 0.0
O63 O 0.70059 0.75706 0.52015 0.0
C64 C 0.76068 0.80575 0.89385 0.0
C65 C 0.80014 0.79137 0.90833 0.0
C66 C 0.74049 0.79455 1.04431 0.0
C67 C 0.80811 0.77674 0.99039 0.0
C68 C 0.73009 0.80529 0.96198 0.0
C69 C 0.77751 0.77779 1.05836 0.0
C70 C 0.74977 0.81923 0.80784 0.0
C71 C 0.79126 0.87304 0.5376 0.0
H72 H 0.69264 0.67349 0.27928 0.0
H73 H 0.86498 0.80451 0.16834 0.0
H74 H 0.69291 0.70702 0.13824 0.0
H75 H 0.86435 0.77544 0.31452 0.0
H76 H 0.82356 0.79002 0.856 0.0
H77 H 0.71826 0.79754 0.09708 0.0
H78 H 0.83676 0.7634 1.00009 0.0
H79 H 0.69721 0.81193 0.95246 0.0
Eu80 Eu 0.22763 0.98298 0.63053 0.0
Eu81 Eu 0.2431 0.03012 0.51031 0.0
C82 C 0.31422 0.0766 0.71943 0.0
C83 C 0.23056 0.97013 0.86637 0.0
C84 C 0.23166 0.01828 0.87612 0.0
C85 C 0.2315 0.96606 1.02205 0.0
C86 C 0.23385 0.04082 0.95863 0.0
C87 C 0.23057 0.94447 0.93962 0.0
C88 C 0.23344 0.01454 1.03236 0.0
C89 C 0.22645 0.94542 0.78001 0.0
O90 O 0.26087 0.98356 0.41497 0.0
O91 O 0.24245 0.93006 0.52196 0.0
C92 C 0.25622 0.94068 0.43967 0.0
O93 O 0.14086 0.95423 0.5985 0.0
O94 O 0.3055 0.08008 0.42657 0.0
O95 O 0.2317 0.08268 0.43193 0.0
O96 O 0.16591 0.94786 0.47093 0.0
C97 C 0.12615 0.92935 0.52293 0.0
O98 O 0.2184 0.05632 0.6735 0.0
O99 O 0.18189 0.05174 0.54702 0.0
O100 O 0.30993 0.0598 0.6339 0.0
O101 O 0.18333 0.93424 0.73253 0.0
O102 O 0.26933 0.96712 0.7367 0.0
O103 O 0.30724 0.05906 0.63802 0.0
C104 C 0.25949 0.07585 0.29524 0.0
C105 C 0.21852 0.0244 0.27162 0.0
C106 C 0.27407 0.09074 0.14329 0.0
C107 C 0.20774 0.00529 0.18513 0.0
C108 C 0.28615 0.10936 0.23064 0.0
C109 C 0.23719 0.03768 0.12061 0.0
C110 C 0.2731 0.09296 0.38759 0.0
C111 C 0.19455 0.07488 0.62395 0.0
H112 H 0.23013 0.03826 0.82045 0.0
H113 H 0.23121 0.94514 1.07807 0.0
H114 H 0.23484 0.07808 0.96458 0.0
H115 H 0.2285 0.90719 0.93263 0.0
H116 H 0.19553 -0.00154 0.32025 0.0
H117 H 0.29514 0.11722 0.09409 0.0
H118 H 0.17738 0.96475 0.169 0.0
H119 H 0.31552 0.14977 0.24747 0.0
Eu120 Eu 0.03342 0.79034 0.65437 0.0
Eu121 Eu 0.97645 0.75924 0.52681 0.0
C122 C 0.93561 0.81637 0.62427 0.0
C123 C 0.06312 0.83285 0.88618 0.0
C124 C 0.00819 0.81415 0.89238 0.0
C125 C 0.07264 0.82796 1.04182 0.0
C126 C 0.98568 0.80316 0.97252 0.0
C127 C 0.0953 0.84071 0.96176 0.0
C128 C 0.01725 0.80869 1.04859 0.0
C129 C 0.08489 0.8388 0.79996 0.0
O130 O 0.03649 0.84746 0.50028 0.0
O131 O 0.10106 0.84996 0.58566 0.0
C132 C 0.08798 0.87206 0.52664 0.0
O133 O 0.05128 0.74957 0.52784 0.0
O134 O 0.91445 0.74509 0.42636 0.0
O135 O 0.96172 0.70805 0.40999 0.0
O136 O 0.05159 0.7516 0.52464 0.0
C137 C 0.07478 0.76814 0.45204 0.0
O138 O 1.00014 0.71532 0.71941 0.0
O139 O 0.92771 0.7004 0.63753 0.0
O140 O 0.95567 0.82159 0.55004 0.0
O141 O 0.08507 0.79733 0.76578 0.0
O142 O 0.06711 0.86005 0.74397 0.0
O143 O 0.95372 0.79434 0.67817 0.0
C144 C 0.9496 0.7484 0.29057 0.0
C145 C 0.00225 0.79007 0.2901 0.0
C146 C 0.93792 0.75299 0.1354 0.0
C147 C 0.02337 0.81164 0.21264 0.0
C148 C 0.91687 0.73203 0.21349 0.0
C149 C 0.99234 0.7916 0.13308 0.0
C150 C 0.93041 0.72206 0.37127 0.0
C151 C 0.94845 0.68887 0.70766 0.0
H152 H 0.98221 0.80722 0.83507 0.0
H153 H 0.09867 0.8314 0.09721 0.0
H154 H 0.94335 0.7899 0.97368 0.0
H155 H 0.13737 0.8537 0.95834 0.0
H156 H 0.02765 0.80548 0.34938 0.0
H157 H 0.91162 0.73654 1.0769 0.0
H158 H 0.06434 0.84353 0.21577 0.0
H159 H 0.87552 0.70175 0.21238 0.0
Eu160 Eu 0.24826 0.21845 0.50852 0.0
Eu161 Eu 0.22444 0.24823 0.62422 0.0
C162 C 0.12482 0.19048 0.52972 0.0
C163 C 0.23472 0.18372 0.27212 0.0
C164 C 0.19644 0.14274 0.21458 0.0
C165 C 0.2524 0.24462 0.16122 0.0
C166 C 0.18674 0.15266 0.13002 0.0
C167 C 0.26242 0.23467 0.24476 0.0
C168 C 0.21422 0.20389 0.10379 0.0
C169 C 0.24436 0.17336 0.361 0.0
O170 O 0.19113 0.15817 0.64599 0.0
O171 O 0.25508 0.15677 0.57493 0.0
C172 C 0.21687 0.13286 0.62515 0.0
O173 O 0.30781 0.25735 0.64079 0.0
O174 O 0.17597 0.26253 0.71371 0.0
O175 O 0.26089 0.29737 0.74522 0.0
O176 O 0.30668 0.25567 0.64369 0.0
C177 C 0.31239 0.23772 0.71734 0.0
O178 O 0.29523 0.29175 0.44575 0.0
O179 O 0.23757 0.30846 0.51056 0.0
O180 O 0.14166 0.1813 0.60104 0.0
O181 O 0.29006 0.20766 0.40312 0.0
O182 O 0.20284 0.15541 0.40903 0.0
O183 O 0.16479 0.21664 0.48071 0.0
C184 C 0.20436 0.2559 0.85551 0.0
C185 C 0.21504 0.21449 0.86266 0.0
C186 C 0.18853 0.25415 1.00844 0.0
C187 C 0.21518 0.19488 0.94326 0.0
C188 C 0.18849 0.27354 0.92791 0.0
C189 C 0.20378 0.21611 1.01691 0.0
C190 C 0.21432 0.28308 0.77494 0.0
C191 C 0.26993 0.31747 0.44461 0.0
H192 H 0.17437 0.10318 0.23494 0.0
H193 H 0.27481 0.28416 0.14123 0.0
H194 H 0.15733 0.12079 0.08586 0.0
H195 H 0.29234 0.26694 0.28723 0.0
H196 H 0.22545 0.19881 0.80694 0.0
H197 H 0.17906 0.27054 1.06486 0.0
H198 H 0.227 0.16539 0.94889 0.0
H199 H 0.17875 0.30412 0.92355 0.0
Eu200 Eu 0.77097 0.98261 0.64284 0.0
Eu201 Eu 0.78527 0.02639 0.52362 0.0
C202 C 0.88643 0.08237 0.6332 0.0
C203 C 0.76191 0.94137 0.85728 0.0
C204 C 0.80516 0.99135 0.88317 0.0
C205 C 0.74022 0.92643 1.00604 0.0
C206 C 0.81406 0.00965 0.9705 0.0
C207 C 0.72945 0.91043 0.91824 0.0
C208 C 0.78093 0.97718 1.0322 0.0
C209 C 0.74804 0.92242 0.76628 0.0
O210 O 0.78738 0.94809 0.48223 0.0
O211 O 0.83052 0.9587 0.60346 0.0
C212 C 0.81346 0.93112 0.53032 0.0
O213 O 0.70152 0.95126 0.52137 0.0
O214 O 0.83155 0.07157 0.42019 0.0
O215 O 0.7472 0.04709 0.41806 0.0
O216 O 0.70436 0.95242 0.51639 0.0
C217 C 0.69647 0.93961 0.43309 0.0
O218 O 0.75288 0.02926 0.73962 0.0
O219 O 0.76764 0.0795 0.62895 0.0
O220 O 0.87227 0.05567 0.55916 0.0
O221 O 0.71156 0.93019 0.72749 0.0
O222 O 0.78933 0.93403 0.72101 0.0
O223 O 0.84602 0.06516 0.6831 0.0
C224 C 0.78273 0.03951 0.28704 0.0
C225 C 0.78359 0.99235 0.2761 0.0
C226 C 0.78063 0.04458 0.13144 0.0
C227 C 0.78287 0.9714 0.19295 0.0
C228 C 0.77965 0.0643 0.21421 0.0
C229 C 0.7829 -0.00156 0.12041 0.0
C230 C 0.78967 0.06487 0.37382 0.0
C231 C 0.75478 0.07067 0.71225 0.0
H232 H 0.83058 0.01672 0.8359 0.0
H233 H 0.71507 0.90047 1.05271 0.0
H234 H 0.84571 0.04929 0.98959 0.0
H235 H 0.69535 0.87466 0.89518 0.0
H236 H 0.78617 0.97243 0.33147 0.0
H237 H 0.77976 0.0654 1.07581 0.0
H238 H 0.78352 0.93497 0.18537 0.0
H239 H 0.77965 0.10042 0.22098 0.0
Eu240 Eu 0.64142 0.55181 0.8576 0.0
Eu241 Eu 0.70517 0.58869 0.97456 0.0
C242 C 0.73589 0.64777 0.78428 0.0
C243 C 0.62796 0.53736 0.61215 0.0
C244 C 0.68336 0.5611 0.60832 0.0
C245 C 0.61716 0.52667 0.4555 0.0
C246 C 0.70601 0.5707 0.52857 0.0
C247 C 0.59499 0.51861 0.53553 0.0
C248 C 0.67343 0.5545 0.44982 0.0
C249 C 0.60443 0.52841 0.69593 0.0
O250 O 0.66285 0.6207 1.0502 0.0
O251 O 0.59102 0.56942 0.96153 0.0
C252 C 0.61163 0.59825 1.03741 0.0
O253 O 0.57461 0.4858 0.91685 0.0
O254 O 0.75843 0.64713 1.07721 0.0
O255 O 0.74869 0.56861 1.06616 0.0
O256 O 0.6444 0.50043 1.00424 0.0
C257 C 0.59284 0.46972 0.97863 0.0
O258 O 0.70129 0.51802 0.85498 0.0
O259 O 0.76936 0.5953 0.89072 0.0
O260 O 0.70621 0.63855 0.8539 0.0
O261 O 0.61582 0.49911 0.74286 0.0
O262 O 0.60886 0.56902 0.74148 0.0
O263 O 0.70679 0.63819 0.85239 0.0
C264 C 0.74268 0.59951 0.20241 0.0
C265 C 0.68716 0.57037 0.20696 0.0
C266 C 0.75375 0.59393 0.35689 0.0
C267 C 0.66484 0.55599 0.286 0.0
C268 C 0.7758 0.61129 0.27795 0.0
C269 C 0.69756 0.56764 0.36353 0.0
C270 C 0.76393 0.61126 0.11665 0.0
C271 C 0.75378 0.54977 0.85304 0.0
H272 H 0.70926 0.57172 0.66702 0.0
H273 H 0.5888 0.51055 0.39972 0.0
H274 H 0.74912 0.59103 0.53131 0.0
H275 H 0.55185 0.49774 0.53703 0.0
H276 H 0.66046 0.55776 0.14905 0.0
H277 H 0.78205 0.60326 0.41171 0.0
H278 H 0.62176 0.53567 0.28332 0.0
H279 H 0.81871 0.63336 0.27688 0.0
Eu280 Eu 0.44822 0.09246 0.87595 0.0
Eu281 Eu 0.43037 0.12668 0.98838 0.0
C282 C 0.36655 0.10073 0.77499 0.0
C283 C 0.44857 0.06256 0.64434 0.0
C284 C 0.40211 0.04123 0.5884 0.0
C285 C 0.49779 0.1235 0.5363 0.0
C286 C 0.40314 0.06164 0.50842 0.0
C287 C 0.49625 0.10483 0.61848 0.0
C288 C 0.45116 0.1016 0.48096 0.0
C289 C 0.44551 0.04326 0.73166 0.0
O290 O 0.37605 0.04975 1.0368 0.0
O291 O 0.44232 0.03982 0.9974 0.0
C292 C 0.40326 0.02679 1.05154 0.0
O293 O 0.53255 0.15587 0.87866 0.0
O294 O 0.38645 0.12769 0.09877 0.0
O295 O 0.47142 0.18566 0.09552 0.0
O296 O 0.51665 0.133 1.00971 0.0
C297 C 0.5532 0.15433 0.9526 0.0
O298 O 0.47921 0.18098 0.83973 0.0
O299 O 0.42415 0.18965 0.9253 0.0
O300 O 0.36675 0.09177 0.86125 0.0
O301 O 0.4881 0.06831 0.78443 0.0
O302 O 0.40199 0.0314 0.7705 0.0
O303 O 0.3701 0.09336 0.85724 0.0
C304 C 0.43993 0.15109 0.22976 0.0
C305 C 0.4651 0.12115 0.24158 0.0
C306 C 0.42733 0.1522 0.38396 0.0
C307 C 0.47075 0.10632 0.32456 0.0
C308 C 0.42177 0.16677 0.30149 0.0
C309 C 0.45124 0.12145 0.3957 0.0
C310 C 0.42988 0.16383 0.14282 0.0
C311 C 0.45668 0.20912 0.8647 0.0
H312 H 0.36484 0.00883 0.60675 0.0
H313 H 0.53496 0.15537 0.51653 0.0
H314 H 0.36675 0.04494 0.46653 0.0
H315 H 0.53243 0.12347 0.66128 0.0
H316 H 0.47929 0.10844 0.18669 0.0
H317 H 0.41181 0.16387 0.43832 0.0
H318 H 0.48876 0.08192 0.33283 0.0
H319 H 0.40201 0.18908 0.29373 0.0
Eu320 Eu 0.92489 0.36492 0.85006 0.0
Eu321 Eu 0.89675 0.3184 0.96698 0.0
C322 C 0.92084 0.27898 0.75479 0.0
C323 C 0.94171 0.38476 0.61598 0.0
C324 C 0.89176 0.33898 0.59899 0.0
C325 C 0.95211 0.3908 0.46165 0.0
C326 C 0.87283 0.31844 0.51368 0.0
C327 C 0.97195 0.41003 0.54716 0.0
C328 C 0.90294 0.34447 0.44435 0.0
C329 C 0.96084 0.40717 0.70516 0.0
O330 O 0.96381 0.36408 1.06538 0.0
O331 O 0.99177 0.42164 0.96502 0.0
C332 C 0.99811 0.41003 1.04647 0.0
O333 O 0.86384 0.38831 0.86867 0.0
O334 O 0.91429 0.27307 1.05791 0.0
O335 O 0.83426 0.26268 1.04205 0.0
O336 O 0.89544 0.3975 1.0023 0.0
C337 C 0.87132 0.41194 0.94422 0.0
O338 O 0.84029 0.28876 0.80598 0.0
O339 O 0.81173 0.29484 0.93023 0.0
O340 O 0.92897 0.28738 0.84395 0.0
O341 O 0.92655 0.41395 0.74825 0.0
O342 O 0.98375 0.38651 0.75077 0.0
O343 O 0.92735 0.28912 0.83896 0.0
C344 C 0.8733 0.27883 0.18283 0.0
C345 C 0.8818 0.3298 0.19991 0.0
C346 C 0.87392 0.26882 0.33718 0.0
C347 C 0.89016 0.35131 0.28527 0.0
C348 C 0.87058 0.24914 0.25182 0.0
C349 C 0.88674 0.32085 0.35462 0.0
C350 C 0.86871 0.25814 0.09292 0.0
C351 C 0.79858 0.27085 0.85406 0.0
H352 H 0.86741 0.31913 0.65151 0.0
H353 H 0.97562 0.41103 0.40866 0.0
H354 H 0.83478 0.28242 0.50184 0.0
H355 H 0.0105 0.44474 0.55994 0.0
H356 H 0.88332 0.3535 0.14739 0.0
H357 H 0.86833 0.2442 0.39018 0.0
H358 H 0.89956 0.39161 0.29711 0.0
H359 H 0.86476 0.21043 0.23932 0.0
Eu360 Eu 0.70414 0.13114 0.97863 0.0
Eu361 Eu 0.64716 0.10014 0.85707 0.0
C362 C 0.6067 0.15682 0.95212 0.0
C363 C 0.72041 0.16393 0.21732 0.0
C364 C 0.66766 0.1544 0.2233 0.0
C365 C 0.72465 0.15167 0.37136 0.0
C366 C 0.64387 0.14407 0.30319 0.0
C367 C 0.74803 0.16228 0.29254 0.0
C368 C 0.67252 0.14304 0.37842 0.0
C369 C 0.74567 0.17288 0.13298 0.0
O370 O 0.7082 0.18884 0.8307 0.0
O371 O 0.77322 0.19018 0.91263 0.0
C372 C 0.76007 0.21317 0.8555 0.0
O373 O 0.72172 0.08936 0.85301 0.0
O374 O 0.58172 0.08421 0.76291 0.0
O375 O 0.63011 0.04941 0.73869 0.0
O376 O 0.72165 0.09141 0.84952 0.0
C377 C 0.74264 0.10542 0.77458 0.0
O378 O 0.67924 0.05456 1.02815 0.0
O379 O 0.60164 0.04132 0.97137 0.0
O380 O 0.62803 0.16393 0.87894 0.0
O381 O 0.74948 0.13379 0.09685 0.0
O382 O 0.73062 0.19608 1.07655 0.0
O383 O 0.62349 0.13267 1.00322 0.0
C384 C 0.61138 0.08759 0.62309 0.0
C385 C 0.66316 0.13025 0.61962 0.0
C386 C 0.5946 0.09137 0.46884 0.0
C387 C 0.68144 0.15151 0.54099 0.0
C388 C 0.57635 0.07008 0.54825 0.0
C389 C 0.64846 0.12998 0.46359 0.0
C390 C 0.5961 0.06149 0.70461 0.0
C391 C 0.62805 0.02956 1.03204 0.0
H392 H 0.64465 0.15474 0.16656 0.0
H393 H 0.74742 0.14886 0.4264 0.0
H394 H 0.60336 0.13716 0.30592 0.0
H395 H 0.78731 0.16735 0.29158 0.0
H396 H 0.69042 0.14583 0.67706 0.0
H397 H 0.56761 0.07465 0.41095 0.0
H398 H 0.7224 0.18323 0.5404 0.0
H399 H 0.53579 0.03834 0.54975 0.0
Eu400 Eu 0.89523 0.58097 0.96238 0.0
Eu401 Eu 0.91868 0.555 0.83803 0.0
C402 C 0.86975 0.46208 0.94314 0.0
C403 C 0.88571 0.60981 0.18008 0.0
C404 C 0.93493 0.63365 0.22986 0.0
C405 C 0.84691 0.54579 0.28882 0.0
C406 C 0.93988 0.61403 0.30799 0.0
C407 C 0.84257 0.56382 0.20835 0.0
C408 C 0.89553 0.57132 0.33913 0.0
C409 C 0.88255 0.62749 0.0927 0.0
O410 O 0.8361 0.55294 0.80448 0.0
O411 O 0.80838 0.52489 0.93049 0.0
C412 C 0.79507 0.5327 0.8545 0.0
O413 O 0.93637 0.63877 0.84461 0.0
O414 O 0.91003 0.50142 0.72827 0.0
O415 O 0.97122 0.58286 0.73092 0.0
O416 O 0.93541 0.63897 0.84201 0.0
C417 C 0.91461 0.64952 0.77388 0.0
O418 O 0.9511 0.58267 1.06349 0.0
O419 O 0.98975 0.57114 0.94894 0.0
O420 O 0.86079 0.47367 0.86708 0.0
O421 O 0.92766 0.65022 1.05411 0.0
O422 O 0.8424 0.59394 1.03981 0.0
O423 O 0.89209 0.50245 1.00065 0.0
C424 C 0.92542 0.54087 0.5958 0.0
C425 C 0.89898 0.56935 0.58177 0.0
C426 C 0.92171 0.52312 0.43988 0.0
C427 C 0.887 0.57746 0.49744 0.0
C428 C 0.93364 0.51518 0.52451 0.0
C429 C 0.90003 0.55576 0.42634 0.0
C430 C 0.94466 0.53841 0.68411 0.0
C431 C 0.99159 0.58149 1.03601 0.0
H432 H 0.96994 0.6672 0.20801 0.0
H433 H 0.81247 0.51214 0.31176 0.0
H434 H 0.97795 0.63339 0.34568 0.0
H435 H 0.80498 0.54222 0.16953 0.0
H436 H 0.88826 0.58585 0.63575 0.0
H437 H 0.93095 0.50526 0.38521 0.0
H438 H 0.86916 0.60191 0.4877 0.0
H439 H 0.95003 0.48977 0.53397 0.0
Eu440 Eu 0.43131 0.3031 0.9853 0.0
Eu441 Eu 0.4589 0.36851 0.85931 0.0
C442 C 0.55713 0.41868 1.01813 0.0
C443 C 0.43698 0.28637 0.21514 0.0
C444 C 0.489 0.32876 0.23664 0.0
C445 C 0.41197 0.29788 0.35886 0.0
C446 C 0.50228 0.35527 0.31898 0.0
C447 C 0.39842 0.27243 0.27601 0.0
C448 C 0.46394 0.33958 0.38137 0.0
C449 C 0.42179 0.25915 0.12771 0.0
O450 O 0.45599 0.28772 0.81633 0.0
O451 O 0.49637 0.29016 0.93865 0.0
C452 C 0.48069 0.2675 0.86179 0.0
O453 O 0.36414 0.25472 0.86594 0.0
O454 O 0.52976 0.40016 0.78492 0.0
O455 O 0.47397 0.4301 0.77466 0.0
O456 O 0.37929 0.32299 0.78632 0.0
C457 C 0.35266 0.27276 0.79346 0.0
O458 O 0.4112 0.35391 1.06868 0.0
O459 O 0.43663 0.41421 0.96863 0.0
O460 O 0.50897 0.38291 0.9855 0.0
O461 O 0.38025 0.25712 0.08589 0.0
O462 O 0.46137 0.26983 1.07842 0.0
O463 O 0.50907 0.38522 0.97888 0.0
C464 C 0.501 0.40766 0.64418 0.0
C465 C 0.45095 0.39224 0.60133 0.0
C466 C 0.52803 0.38082 0.51326 0.0
C467 C 0.43974 0.37177 0.51536 0.0
C468 C 0.53932 0.40149 0.59958 0.0
C469 C 0.47788 0.36535 0.47049 0.0
C470 C 0.51086 0.42405 0.73766 0.0
C471 C 0.42056 0.39967 1.04889 0.0
H472 H 0.51939 0.34183 0.18984 0.0
H473 H 0.38211 0.28417 0.40611 0.0
H474 H 0.54239 0.3881 0.33353 0.0
H475 H 0.35836 0.2403 0.2603 0.0
H476 H 0.41974 0.39481 0.63448 0.0
H477 H 0.55789 0.37534 0.48125 0.0
H478 H 0.40086 0.36063 0.48436 0.0
H479 H 0.57767 0.41173 0.63192 0.0
Eu480 Eu 0.36416 0.91692 0.29599 0.0
Eu481 Eu 0.30444 0.88178 0.17198 0.0
C482 C 0.26589 0.90618 0.37431 0.0
C483 C 0.39312 0.92772 0.53214 0.0
C484 C 0.34083 0.88541 0.5333 0.0
C485 C 0.4053 0.92391 0.68785 0.0
C486 C 0.32008 0.86406 0.61112 0.0
C487 C 0.42598 0.94496 0.60932 0.0
C488 C 0.35116 0.88472 0.69048 0.0
C489 C 0.41122 0.95438 0.45105 0.0
O490 O 0.33071 0.95717 0.11647 0.0
O491 O 0.40882 0.97559 0.1817 0.0
C492 C 0.38218 0.98466 0.1172 0.0
O493 O 0.38196 0.85249 0.27343 0.0
O494 O 0.25348 0.87354 1.05812 0.0
O495 O 0.27547 0.8136 0.07976 0.0
O496 O 0.38563 0.88203 0.14771 0.0
C497 C 0.40284 0.85876 0.19999 0.0
O498 O 0.30591 0.82865 0.3237 0.0
O499 O 0.23836 0.82422 0.24411 0.0
O500 O 0.28779 0.92385 0.29738 0.0
O501 O 0.42772 0.93244 0.3947 0.0
O502 O 0.37862 0.9672 0.4135 0.0
O503 O 0.28775 0.922 0.30054 0.0
C504 C 0.27974 0.84176 0.93721 0.0
C505 C 0.33435 0.85848 0.93048 0.0
C506 C 0.27138 0.85039 0.7823 0.0
C507 C 0.35722 0.8707 0.85041 0.0
C508 C 0.24846 0.83702 0.86205 0.0
C509 C 0.32628 0.86763 0.77506 0.0
C510 C 0.25702 0.83404 1.02332 0.0
C511 C 0.25377 0.80357 0.30228 0.0
H512 H 0.31524 0.86957 0.4743 0.0
H513 H 0.43132 0.94072 0.74668 0.0
H514 H 0.27923 0.83192 0.60868 0.0
H515 H 0.46689 0.97632 0.61015 0.0
H516 H 0.35975 0.86281 0.98726 0.0
H517 H 0.24606 0.84898 0.72732 0.0
H518 H 0.39927 0.88277 0.8483 0.0
H519 H 0.20687 0.8259 0.86562 0.0
Eu520 Eu 0.13208 0.43685 0.20681 0.0
Eu521 Eu 0.1074 0.46622 0.32338 0.0
C522 C 0.04161 0.44581 0.11706 0.0
C523 C 0.15578 0.43605 0.97698 0.0
C524 C 0.1372 0.47139 0.96382 0.0
C525 C 0.18622 0.44672 0.83156 0.0
C526 C 0.1402 0.49177 0.88309 0.0
C527 C 0.18337 0.42695 0.91263 0.0
C528 C 0.16273 0.4776 0.8156 0.0
C529 C 0.14294 0.40574 1.05434 0.0
O530 O 0.05481 0.39132 0.37654 0.0
O531 O 0.11167 0.37172 0.31462 0.0
C532 C 0.07688 0.36249 0.37672 0.0
O533 O 0.21778 0.49679 0.24128 0.0
O534 O 0.07062 0.47915 0.4337 0.0
O535 O 0.1567 0.53157 0.41773 0.0
O536 O 0.18497 0.46012 0.35656 0.0
C537 C 0.22864 0.48449 0.31478 0.0
O538 O 0.16489 0.52673 0.18624 0.0
O539 O 0.09879 0.52584 0.25355 0.0
O540 O 0.04716 0.42706 0.19365 0.0
O541 O 0.18037 0.42206 0.11686 0.0
O542 O 0.09612 0.39166 0.08262 0.0
O543 O 0.04911 0.42907 0.1909 0.0
C544 C 0.13087 0.50567 0.55813 0.0
C545 C 0.16184 0.54828 0.61861 0.0
C546 C 0.12539 0.44588 0.6648 0.0
C547 C 0.17272 0.53958 0.70329 0.0
C548 C 0.11341 0.45452 0.58137 0.0
C549 C 0.1546 0.48826 0.72635 0.0
C550 C 0.11756 0.51458 0.47063 0.0
C551 C 0.13739 0.55057 0.20441 0.0
H552 H 0.11854 0.48167 1.01428 0.0
H553 H 0.20418 0.43576 0.78013 0.0
H554 H 0.122 0.51577 0.87184 0.0
H555 H 0.19892 0.40125 0.92383 0.0
H556 H 0.17664 0.58808 0.60086 0.0
H557 H 0.11065 0.406 0.68197 0.0
H558 H 0.19518 0.57263 0.75053 0.0
H559 H 0.08976 0.42111 0.53581 0.0
Eu560 Eu 0.55866 0.65764 0.29481 0.0
Eu561 Eu 0.56453 0.70061 0.17584 0.0
C562 C 0.64529 0.74615 0.38259 0.0
C563 C 0.56318 0.64435 0.53028 0.0
C564 C 0.55813 0.68928 0.53959 0.0
C565 C 0.55952 0.63739 0.6853 0.0
C566 C 0.55441 0.70851 0.62142 0.0
C567 C 0.56495 0.61942 0.60358 0.0
C568 C 0.55429 0.68204 0.69471 0.0
C569 C 0.55929 0.61996 0.44389 0.0
O570 O 0.56542 0.64477 1.0741 0.0
O571 O 0.5875 0.6155 0.18838 0.0
C572 C 0.58264 0.61503 0.10128 0.0
O573 O 0.46968 0.62229 0.26619 0.0
O574 O 0.62074 0.74839 0.08381 0.0
O575 O 0.54587 0.74902 0.09668 0.0
O576 O 0.49207 0.61736 0.13722 0.0
C577 C 0.45384 0.59744 0.19059 0.0
O578 O 0.55264 0.73319 0.33907 0.0
O579 O 0.50375 0.72047 0.22389 0.0
O580 O 0.63874 0.73312 0.29379 0.0
O581 O 0.51666 0.6103 0.39727 0.0
O582 O 0.60166 0.64102 0.39967 0.0
O583 O 0.63721 0.7328 0.29962 0.0
C584 C 0.56934 0.74042 0.95625 0.0
C585 C 0.53 0.68846 0.93148 0.0
C586 C 0.58824 0.75603 0.80594 0.0
C587 C 0.52264 0.66949 0.84467 0.0
C588 C 0.59583 0.77393 0.89259 0.0
C589 C 0.55343 0.70299 0.78203 0.0
C590 C 0.58543 0.75879 1.048 0.0
C591 C 0.5235 0.74875 0.296 0.0
H592 H 0.55558 0.70875 0.48385 0.0
H593 H 0.55976 0.61684 0.74152 0.0
H594 H 0.55059 0.7433 0.6272 0.0
H595 H 0.56886 0.5853 0.59695 0.0
H596 H 0.50621 0.66222 0.97904 0.0
H597 H 0.61189 0.78306 0.75891 0.0
H598 H 0.49432 0.62851 0.82698 0.0
H599 H 0.6228 0.81384 0.91095 0.0
Eu600 Eu 0.38015 0.46322 0.31997 0.0
Eu601 Eu 0.3155 0.42085 0.19482 0.0
C602 C 0.2678 0.46533 0.31439 0.0
C603 C 0.42322 0.4989 0.55044 0.0
C604 C 0.37129 0.49034 0.56086 0.0
C605 C 0.43669 0.50109 0.70741 0.0
C606 C 0.35098 0.48323 0.64275 0.0
C607 C 0.45608 0.50532 0.62457 0.0
C608 C 0.38274 0.48603 0.71658 0.0
C609 C 0.44123 0.50006 0.46186 0.0
O610 O 0.36689 0.51304 0.18335 0.0
O611 O 0.44126 0.51948 0.2404 0.0
C612 C 0.4201 0.53991 0.19271 0.0
O613 O 0.39208 0.41605 0.19641 0.0
O614 O 0.2737 0.43017 0.0831 0.0
O615 O 0.29606 0.37011 1.07436 0.0
O616 O 0.39242 0.41766 0.19309 0.0
C617 C 0.41361 0.43407 0.11912 0.0
O618 O 0.32305 0.40618 0.40851 0.0
O619 O 0.279 0.35206 0.29252 0.0
O620 O 0.25181 0.42099 0.27084 0.0
O621 O 0.42908 0.45449 0.42296 0.0
O622 O 0.43003 0.52842 0.41131 0.0
O623 O 0.32043 0.49605 0.32686 0.0
C624 C 0.30861 0.42126 0.9525 0.0
C625 C 0.35918 0.46707 0.95744 0.0
C626 C 0.3067 0.42111 0.79508 0.0
C627 C 0.38384 0.48896 0.88131 0.0
C628 C 0.28294 0.39961 0.87064 0.0
C629 C 0.35751 0.46604 0.79906 0.0
C630 C 0.28065 0.39821 1.03148 0.0
C631 C 0.28622 0.36011 0.37972 0.0
H632 H 0.34556 0.48741 0.50528 0.0
H633 H 0.46295 0.50636 0.76358 0.0
H634 H 0.30979 0.47391 0.64782 0.0
H635 H 0.49574 0.51126 0.6188 0.0
H636 H 0.37936 0.48634 1.01974 0.0
H637 H 0.28507 0.4019 0.73328 0.0
H638 H 0.42292 0.52402 0.88685 0.0
H639 H 0.24325 0.36725 0.86441 0.0
Eu640 Eu 0.5794 0.89018 0.16686 0.0
Eu641 Eu 0.56197 0.92572 0.27646 0.0
C642 C 0.45683 0.86282 0.2015 0.0
C643 C 0.57802 0.87348 0.92675 0.0
C644 C 0.53647 0.84011 0.86515 0.0
C645 C 0.61341 0.93979 0.82288 0.0
C646 C 0.53412 0.856 0.78198 0.0
C647 C 0.61655 0.92335 0.90477 0.0
C648 C 0.57252 0.90626 0.75975 0.0
C649 C 0.58148 0.85541 1.01274 0.0
O650 O 0.52749 0.83694 0.31388 0.0
O651 O 0.58041 0.82468 0.22764 0.0
C652 C 0.54694 0.80646 0.2868 0.0
O653 O 0.64254 0.92408 0.29361 0.0
O654 O 0.52429 0.95223 0.3692 0.0
O655 O 0.61061 0.98875 0.37697 0.0
O656 O 0.63899 0.92247 0.29733 0.0
C657 C 0.64328 0.91501 0.37954 0.0
O658 O 0.6348 0.96755 0.1204 0.0
O659 O 0.56669 0.97593 0.15222 0.0
O660 O 0.47767 0.86349 0.27662 0.0
O661 O 0.62496 0.88511 1.063 0.0
O662 O 0.53755 0.83521 1.05448 0.0
O663 O 0.49293 0.88271 0.14346 0.0
C664 C 0.5679 0.96137 0.5072 0.0
C665 C 0.61637 0.98054 0.55681 0.0
C666 C 0.5215 0.90543 0.6224 0.0
C667 C 0.61787 0.96036 0.63595 0.0
C668 C 0.52046 0.92294 0.54007 0.0
C669 C 0.57047 0.92385 0.67147 0.0
C670 C 0.56834 0.97832 0.41867 0.0
C671 C 0.60713 0.98949 0.10112 0.0
H672 H 0.50658 0.80119 0.88075 0.0
H673 H 0.64342 0.97901 0.80995 0.0
H674 H 0.50273 0.8284 0.73507 0.0
H675 H 0.64941 0.94987 0.95054 0.0
H676 H 0.65353 0.01038 0.53332 0.0
H677 H 0.48382 0.87772 0.64721 0.0
H678 H 0.65649 0.97423 0.66954 0.0
H679 H 0.48247 0.90627 0.50248 0.0
Eu680 Eu 0.10075 0.64552 0.31535 0.0
Eu681 Eu 0.11833 0.69519 0.19484 0.0
C682 C 0.2176 0.74653 0.30559 0.0
C683 C 0.0865 0.60177 0.53074 0.0
C684 C 0.1267 0.65393 0.55176 0.0
C685 C 0.07603 0.58887 0.68425 0.0
C686 C 0.13932 0.67417 0.63785 0.0
C687 C 0.06288 0.56895 0.59756 0.0
C688 C 0.11233 0.64233 0.70463 0.0
C689 C 0.07077 0.58319 0.43882 0.0
O690 O 0.13542 0.62646 0.15432 0.0
O691 O 0.16624 0.62897 0.28533 0.0
C692 C 0.15814 0.60813 0.20718 0.0
O693 O 0.03943 0.61654 0.18466 0.0
O694 O 0.16181 0.74699 0.09556 0.0
O695 O 0.07519 0.70706 0.08606 0.0
O696 O 0.04139 0.61661 0.1815 0.0
C697 C 0.0365 0.59312 0.10453 0.0
O698 O 0.07955 0.69058 0.40881 0.0
O699 O 0.10159 0.74645 0.30487 0.0
O700 O 0.20434 0.72277 0.22921 0.0
O701 O 0.03856 0.59661 0.40057 0.0
O702 O 0.11095 0.59203 0.39244 0.0
O703 O 0.17706 0.72761 0.35599 0.0
C704 C 0.11841 0.70961 0.95918 0.0
C705 C 0.11996 0.66278 0.94957 0.0
C706 C 0.11755 0.71379 0.80334 0.0
C707 C 0.11878 0.64074 0.86699 0.0
C708 C 0.11743 0.73483 0.88584 0.0
C709 C 0.11742 0.66618 0.79302 0.0
C710 C 0.11876 0.73256 1.04543 0.0
C711 C 0.08563 0.73435 0.386 0.0
H712 H 0.14779 0.67944 0.50151 0.0
H713 H 0.05567 0.56302 0.73471 0.0
H714 H 0.16908 0.71512 0.65192 0.0
H715 H 0.03453 0.5282 0.58305 0.0
H716 H 0.12198 0.6431 1.00546 0.0
H717 H 0.11658 0.73406 0.74717 0.0
H718 H 0.1192 0.60417 0.86109 0.0
H719 H 0.11734 0.77111 0.8929 0.0
loop_
_geom_bond_atom_site_label_1
_geom_bond_atom_site_label_2
_geom_bond_distance
_geom_bond_site_symmetry_2
_ccdc_geom_bond_type
Eu0 C9 2.828 . S
Eu0 O11 2.392 . S
Eu0 O13 2.418 . S
Eu0 O18 2.373 1_455 S
Eu0 O21 2.488 . S
Eu0 O22 2.471 . S
Eu0 O23 2.349 1_455 S
Eu1 O10 2.373 1_655 S
Eu1 O14 2.488 . S
Eu1 O15 2.471 1_655 S
Eu1 O16 2.349 1_655 S
Eu1 O19 2.392 . S
Eu1 O20 2.418 . S
Eu1 C30 2.828 . S
C2 O20 1.244 . S
C2 O23 1.265 . S
C3 C4 1.379 1_455 S
C3 C7 1.373 . S
C3 C9 1.505 . S
C4 C3 1.379 1_655 S
C4 C6 1.369 . S
C4 H32 0.930 . S
C5 C7 1.383 . S
C5 C8 1.382 . S
C5 H33 0.930 . S
C6 C4 1.369 . S
C6 C8 1.392 1_655 S
C6 H34 0.930 . S
C7 C3 1.373 . S
C7 C5 1.383 . S
C7 H35 0.931 . S
C8 C5 1.382 . S
C8 C6 1.392 1_455 S
C9 Eu0 2.828 . S
C9 C3 1.505 . S
C9 O21 1.249 . S
C9 O22 1.244 . S
O10 Eu1 2.373 1_455 S
O10 C12 1.258 . S
O11 Eu0 2.392 . S
O11 C12 1.242 . S
C12 O10 1.258 . S
C12 O11 1.242 . S
O13 Eu0 2.418 . S
O13 C17 1.244 . S
O14 Eu1 2.488 . S
O14 C30 1.249 . S
O15 Eu1 2.471 1_455 S
O15 C30 1.244 1_455 S
O16 Eu1 2.349 1_455 S
O16 C17 1.265 . S
C17 O13 1.244 . S
C17 O16 1.265 . S
O18 Eu0 2.373 1_655 S
O18 C31 1.258 . S
O19 Eu1 2.392 . S
O19 C31 1.242 . S
O20 Eu1 2.418 . S
O20 C2 1.244 . S
O21 Eu0 2.488 . S
O21 C9 1.249 . S
O22 Eu0 2.471 . S
O22 C9 1.244 . S
O23 Eu0 2.349 1_655 S
O23 C2 1.265 . S
C24 C25 1.379 1_655 S
C24 C28 1.373 . S
C24 C30 1.505 . S
C25 C24 1.379 1_455 S
C25 C27 1.369 . S
C25 H36 0.930 . S
C26 C28 1.383 . S
C26 C29 1.382 . S
C26 H37 0.930 . S
C27 C25 1.369 . S
C27 C29 1.392 1_455 S
C27 H38 0.930 . S
C28 C24 1.373 . S
C28 C26 1.383 . S
C28 H39 0.931 . S
C29 C26 1.382 . S
C29 C27 1.392 1_655 S
C30 Eu1 2.828 . S
C30 O14 1.249 . S
C30 O15 1.244 1_655 S
C30 C24 1.505 . S
C31 O18 1.258 . S
C31 O19 1.242 . S
H32 C4 0.930 . S
H33 C5 0.930 . S
H34 C6 0.930 . S
H35 C7 0.931 . S
H36 C25 0.930 . S
H37 C26 0.930 . S
H38 C27 0.930 . S
H39 C28 0.931 . S
Eu40 C49 2.828 . S
Eu40 O51 2.392 . S
Eu40 O53 2.418 . S
Eu40 O58 2.373 . S
Eu40 O61 2.488 . S
Eu40 O62 2.471 . S
Eu40 O63 2.349 . S
Eu41 O50 2.373 . S
Eu41 O54 2.488 . S
Eu41 O55 2.471 . S
Eu41 O56 2.349 . S
Eu41 O59 2.392 . S
Eu41 O60 2.418 . S
Eu41 C70 2.828 . S
C42 O60 1.244 . S
C42 O63 1.265 . S
C43 C44 1.379 . S
C43 C47 1.373 . S
C43 C49 1.505 . S
C44 C43 1.379 . S
C44 C46 1.369 . S
C44 H72 0.930 . S
C45 C47 1.383 . S
C45 C48 1.382 . S
C45 H73 0.930 . S
C46 C44 1.369 . S
C46 C48 1.392 . S
C46 H74 0.930 . S
C47 C43 1.373 . S
C47 C45 1.383 . S
C47 H75 0.931 . S
C48 C45 1.382 . S
C48 C46 1.392 . S
C49 Eu40 2.828 . S
C49 C43 1.505 . S
C49 O61 1.249 . S
C49 O62 1.244 . S
O50 Eu41 2.373 . S
O50 C52 1.258 . S
O51 Eu40 2.392 . S
O51 C52 1.242 . S
C52 O50 1.258 . S
C52 O51 1.242 . S
O53 Eu40 2.418 . S
O53 C57 1.244 . S
O54 Eu41 2.488 . S
O54 C70 1.249 . S
O55 Eu41 2.471 . S
O55 C70 1.244 . S
O56 Eu41 2.349 . S
O56 C57 1.265 . S
C57 O53 1.244 . S
C57 O56 1.265 . S
O58 Eu40 2.373 . S
O58 C71 1.258 . S
O59 Eu41 2.392 . S
O59 C71 1.242 . S
O60 Eu41 2.418 . S
O60 C42 1.244 . S
O61 Eu40 2.488 . S
O61 C49 1.249 . S
O62 Eu40 2.471 . S
O62 C49 1.244 . S
O63 Eu40 2.349 . S
O63 C42 1.265 . S
C64 C65 1.379 . S
C64 C68 1.373 . S
C64 C70 1.505 . S
C65 C64 1.379 . S
C65 C67 1.369 . S
C65 H76 0.930 . S
C66 C68 1.383 . S
C66 C69 1.382 . S
C66 H77 0.930 . S
C67 C65 1.369 . S
C67 C69 1.392 . S
C67 H78 0.930 . S
C68 C64 1.373 . S
C68 C66 1.383 . S
C68 H79 0.931 . S
C69 C66 1.382 . S
C69 C67 1.392 . S
C70 Eu41 2.828 . S
C70 O54 1.249 . S
C70 O55 1.244 . S
C70 C64 1.505 . S
C71 O58 1.258 . S
C71 O59 1.242 . S
H72 C44 0.930 . S
H73 C45 0.930 . S
H74 C46 0.930 . S
H75 C47 0.931 . S
H76 C65 0.930 . S
H77 C66 0.930 . S
H78 C67 0.930 . S
H79 C68 0.931 . S
Eu80 C89 2.828 . S
Eu80 O91 2.392 . S
Eu80 O93 2.418 . S
Eu80 O98 2.373 1_565 S
Eu80 O101 2.488 . S
Eu80 O102 2.471 1_565 S
Eu80 O103 2.349 1_565 S
Eu81 O90 2.373 1_545 S
Eu81 O94 2.488 . S
Eu81 O95 2.471 . S
Eu81 O96 2.349 1_545 S
Eu81 O99 2.392 . S
Eu81 O100 2.418 . S
Eu81 C110 2.828 . S
C82 O100 1.244 . S
C82 O103 1.265 . S
C83 C84 1.379 1_565 S
C83 C87 1.373 . S
C83 C89 1.505 . S
C84 C83 1.379 1_545 S
C84 C86 1.369 . S
C84 H112 0.930 . S
C85 C87 1.383 . S
C85 C88 1.382 1_565 S
C85 H113 0.930 . S
C86 C84 1.369 . S
C86 C88 1.392 . S
C86 H114 0.930 . S
C87 C83 1.373 . S
C87 C85 1.383 . S
C87 H115 0.931 . S
C88 C85 1.382 1_545 S
C88 C86 1.392 . S
C89 Eu80 2.828 . S
C89 C83 1.505 . S
C89 O101 1.249 . S
C89 O102 1.244 1_565 S
O90 Eu81 2.373 1_565 S
O90 C92 1.258 . S
O91 Eu80 2.392 . S
O91 C92 1.242 . S
C92 O90 1.258 . S
C92 O91 1.242 . S
O93 Eu80 2.418 . S
O93 C97 1.244 . S
O94 Eu81 2.488 . S
O94 C110 1.249 . S
O95 Eu81 2.471 . S
O95 C110 1.244 . S
O96 Eu81 2.349 1_565 S
O96 C97 1.265 . S
C97 O93 1.244 . S
C97 O96 1.265 . S
O98 Eu80 2.373 1_545 S
O98 C111 1.258 . S
O99 Eu81 2.392 . S
O99 C111 1.242 . S
O100 Eu81 2.418 . S
O100 C82 1.244 . S
O101 Eu80 2.488 . S
O101 C89 1.249 . S
O102 Eu80 2.471 1_545 S
O102 C89 1.244 1_545 S
O103 Eu80 2.349 1_545 S
O103 C82 1.265 . S
C104 C105 1.379 1_545 S
C104 C108 1.373 . S
C104 C110 1.505 . S
C105 C104 1.379 1_565 S
C105 C107 1.369 . S
C105 H116 0.930 . S
C106 C108 1.383 . S
C106 C109 1.382 . S
C106 H117 0.930 . S
C107 C105 1.369 . S
C107 C109 1.392 1_565 S
C107 H118 0.930 . S
C108 C104 1.373 . S
C108 C106 1.383 . S
C108 H119 0.931 . S
C109 C106 1.382 . S
C109 C107 1.392 1_545 S
C110 Eu81 2.828 . S
C110 O94 1.249 . S
C110 O95 1.244 . S
C110 C104 1.505 . S
C111 O98 1.258 . S
C111 O99 1.242 . S
H112 C84 0.930 . S
H113 C85 0.930 . S
H114 C86 0.930 . S
H115 C87 0.931 . S
H116 C105 0.930 . S
H117 C106 0.930 . S
H118 C107 0.930 . S
H119 C108 0.931 . S
Eu120 C129 2.828 . S
Eu120 O131 2.392 . S
Eu120 O133 2.418 . S
Eu120 O138 2.373 1_455 S
Eu120 O141 2.488 . S
Eu120 O142 2.471 . S
Eu120 O143 2.349 1_455 S
Eu121 O130 2.373 1_655 S
Eu121 O134 2.488 . S
Eu121 O135 2.472 1_655 S
Eu121 O136 2.349 1_655 S
Eu121 O139 2.392 . S
Eu121 O140 2.418 . S
Eu121 C150 2.828 . S
C122 O140 1.244 . S
C122 O143 1.265 . S
C123 C124 1.379 1_455 S
C123 C127 1.373 . S
C123 C129 1.505 . S
C124 C123 1.379 1_655 S
C124 C126 1.369 . S
C124 H152 0.930 . S
C125 C127 1.383 . S
C125 C128 1.382 1_556 S
C125 H153 0.928 1_556 S
C126 C124 1.369 . S
C126 C128 1.392 1_656 S
C126 H154 0.930 . S
C127 C123 1.373 . S
C127 C125 1.383 . S
C127 H155 0.931 . S
C128 C125 1.382 1_554 S
C128 C126 1.392 1_454 S
C129 Eu120 2.828 . S
C129 C123 1.505 . S
C129 O141 1.249 . S
C129 O142 1.244 . S
O130 Eu121 2.373 1_455 S
O130 C132 1.258 . S
O131 Eu120 2.392 . S
O131 C132 1.242 . S
C132 O130 1.258 . S
C132 O131 1.242 . S
O133 Eu120 2.418 . S
O133 C137 1.244 . S
O134 Eu121 2.488 . S
O134 C150 1.249 . S
O135 Eu121 2.472 1_455 S
O135 C150 1.245 1_455 S
O136 Eu121 2.349 1_455 S
O136 C137 1.265 . S
C137 O133 1.244 . S
C137 O136 1.265 . S
O138 Eu120 2.373 1_655 S
O138 C151 1.258 . S
O139 Eu121 2.392 . S
O139 C151 1.242 . S
O140 Eu121 2.418 . S
O140 C122 1.244 . S
O141 Eu120 2.488 . S
O141 C129 1.249 . S
O142 Eu120 2.471 . S
O142 C129 1.244 . S
O143 Eu120 2.349 1_655 S
O143 C122 1.265 . S
C144 C145 1.379 1_655 S
C144 C148 1.373 . S
C144 C150 1.505 . S
C145 C144 1.379 1_455 S
C145 C147 1.369 . S
C145 H156 0.930 . S
C146 C148 1.383 . S
C146 C149 1.382 . S
C146 H157 0.930 . S
C147 C145 1.369 . S
C147 C149 1.392 1_455 S
C147 H158 0.930 . S
C148 C144 1.373 . S
C148 C146 1.383 . S
C148 H159 0.931 . S
C149 C146 1.382 . S
C149 C147 1.392 1_655 S
C150 Eu121 2.828 . S
C150 O134 1.249 . S
C150 O135 1.245 1_655 S
C150 C144 1.505 . S
C151 O138 1.258 . S
C151 O139 1.242 . S
H152 C124 0.930 . S
H153 C125 0.928 1_554 S
H154 C126 0.930 . S
H155 C127 0.931 . S
H156 C145 0.930 . S
H157 C146 0.930 . S
H158 C147 0.930 . S
H159 C148 0.931 . S
Eu160 C169 2.828 . S
Eu160 O171 2.392 . S
Eu160 O173 2.418 . S
Eu160 O178 2.373 . S
Eu160 O181 2.488 . S
Eu160 O182 2.471 . S
Eu160 O183 2.349 . S
Eu161 O170 2.373 . S
Eu161 O174 2.488 . S
Eu161 O175 2.471 . S
Eu161 O176 2.349 . S
Eu161 O179 2.392 . S
Eu161 O180 2.418 . S
Eu161 C190 2.828 . S
C162 O180 1.244 . S
C162 O183 1.265 . S
C163 C164 1.379 . S
C163 C167 1.373 . S
C163 C169 1.505 . S
C164 C163 1.379 . S
C164 C166 1.369 . S
C164 H192 0.930 . S
C165 C167 1.383 . S
C165 C168 1.382 . S
C165 H193 0.930 . S
C166 C164 1.369 . S
C166 C168 1.392 . S
C166 H194 0.930 . S
C167 C163 1.373 . S
C167 C165 1.383 . S
C167 H195 0.931 . S
C168 C165 1.382 . S
C168 C166 1.392 . S
C169 Eu160 2.828 . S
C169 C163 1.505 . S
C169 O181 1.249 . S
C169 O182 1.244 . S
O170 Eu161 2.373 . S
O170 C172 1.258 . S
O171 Eu160 2.392 . S
O171 C172 1.242 . S
C172 O170 1.258 . S
C172 O171 1.242 . S
O173 Eu160 2.418 . S
O173 C177 1.244 . S
O174 Eu161 2.488 . S
O174 C190 1.249 . S
O175 Eu161 2.471 . S
O175 C190 1.244 . S
O176 Eu161 2.349 . S
O176 C177 1.265 . S
C177 O173 1.244 . S
C177 O176 1.265 . S
O178 Eu160 2.373 . S
O178 C191 1.258 . S
O179 Eu161 2.392 . S
O179 C191 1.242 . S
O180 Eu161 2.418 . S
O180 C162 1.244 . S
O181 Eu160 2.488 . S
O181 C169 1.249 . S
O182 Eu160 2.471 . S
O182 C169 1.244 . S
O183 Eu160 2.349 . S
O183 C162 1.265 . S
C184 C185 1.379 . S
C184 C188 1.373 . S
C184 C190 1.505 . S
C185 C184 1.379 . S
C185 C187 1.369 . S
C185 H196 0.930 . S
C186 C188 1.383 . S
C186 C189 1.382 1_556 S
C186 H197 0.930 . S
C187 C185 1.369 . S
C187 C189 1.392 1_556 S
C187 H198 0.930 . S
C188 C184 1.373 . S
C188 C186 1.383 . S
C188 H199 0.931 . S
C189 C186 1.382 1_554 S
C189 C187 1.392 1_554 S
C190 Eu161 2.828 . S
C190 O174 1.249 . S
C190 O175 1.244 . S
C190 C184 1.505 . S
C191 O178 1.258 . S
C191 O179 1.242 . S
H192 C164 0.930 . S
H193 C165 0.930 . S
H194 C166 0.930 . S
H195 C167 0.931 . S
H196 C185 0.930 . S
H197 C186 0.930 . S
H198 C187 0.930 . S
H199 C188 0.931 . S
Eu200 C209 2.828 . S
Eu200 O211 2.392 . S
Eu200 O213 2.418 . S
Eu200 O218 2.373 1_565 S
Eu200 O221 2.488 . S
Eu200 O222 2.471 1_565 S
Eu200 O223 2.349 1_565 S
Eu201 O210 2.373 1_545 S
Eu201 O214 2.488 . S
Eu201 O215 2.471 . S
Eu201 O216 2.349 1_545 S
Eu201 O219 2.392 . S
Eu201 O220 2.418 . S
Eu201 C230 2.828 . S
C202 O220 1.244 . S
C202 O223 1.265 . S
C203 C204 1.379 1_565 S
C203 C207 1.373 . S
C203 C209 1.505 . S
C204 C203 1.379 1_545 S
C204 C206 1.369 . S
C204 H232 0.930 . S
C205 C207 1.383 . S
C205 C208 1.382 1_565 S
C205 H233 0.930 . S
C206 C204 1.369 . S
C206 C208 1.392 . S
C206 H234 0.930 . S
C207 C203 1.373 . S
C207 C205 1.383 . S
C207 H235 0.931 . S
C208 C205 1.382 1_545 S
C208 C206 1.392 . S
C209 Eu200 2.828 . S
C209 C203 1.505 . S
C209 O221 1.249 . S
C209 O222 1.244 1_565 S
O210 Eu201 2.373 1_565 S
O210 C212 1.258 . S
O211 Eu200 2.392 . S
O211 C212 1.242 . S
C212 O210 1.258 . S
C212 O211 1.242 . S
O213 Eu200 2.418 . S
O213 C217 1.244 . S
O214 Eu201 2.488 . S
O214 C230 1.249 . S
O215 Eu201 2.471 . S
O215 C230 1.244 . S
O216 Eu201 2.349 1_565 S
O216 C217 1.265 . S
C217 O213 1.244 . S
C217 O216 1.265 . S
O218 Eu200 2.373 1_545 S
O218 C231 1.258 . S
O219 Eu201 2.392 . S
O219 C231 1.242 . S
O220 Eu201 2.418 . S
O220 C202 1.244 . S
O221 Eu200 2.488 . S
O221 C209 1.249 . S
O222 Eu200 2.471 1_545 S
O222 C209 1.244 1_545 S
O223 Eu200 2.349 1_545 S
O223 C202 1.265 . S
C224 C225 1.379 1_545 S
C224 C228 1.373 . S
C224 C230 1.505 . S
C225 C224 1.379 1_565 S
C225 C227 1.369 . S
C225 H236 0.930 . S
C226 C228 1.383 . S
C226 C229 1.382 . S
C226 H237 0.930 . S
C227 C225 1.369 . S
C227 C229 1.392 1_565 S
C227 H238 0.930 . S
C228 C224 1.373 . S
C228 C226 1.383 . S
C228 H239 0.931 . S
C229 C226 1.382 . S
C229 C227 1.392 1_545 S
C230 Eu201 2.828 . S
C230 O214 1.249 . S
C230 O215 1.244 . S
C230 C224 1.505 . S
C231 O218 1.258 . S
C231 O219 1.242 . S
H232 C204 0.930 . S
H233 C205 0.930 . S
H234 C206 0.930 . S
H235 C207 0.931 . S
H236 C225 0.930 . S
H237 C226 0.930 . S
H238 C227 0.930 . S
H239 C228 0.931 . S
Eu240 C249 2.828 . S
Eu240 O251 2.392 . S
Eu240 O253 2.418 . S
Eu240 O258 2.373 . S
Eu240 O261 2.488 . S
Eu240 O262 2.471 . S
Eu240 O263 2.349 . S
Eu241 O250 2.373 . S
Eu241 O254 2.488 1_556 S
Eu241 O255 2.471 1_556 S
Eu241 O256 2.349 . S
Eu241 O259 2.392 . S
Eu241 O260 2.418 . S
Eu241 C270 2.828 1_556 S
C242 O260 1.244 . S
C242 O263 1.265 . S
C243 C244 1.379 . S
C243 C247 1.373 . S
C243 C249 1.505 . S
C244 C243 1.379 . S
C244 C246 1.369 . S
C244 H272 0.930 . S
C245 C247 1.383 . S
C245 C248 1.382 . S
C245 H273 0.930 . S
C246 C244 1.369 . S
C246 C248 1.392 . S
C246 H274 0.930 . S
C247 C243 1.373 . S
C247 C245 1.383 . S
C247 H275 0.931 . S
C248 C245 1.382 . S
C248 C246 1.392 . S
C249 Eu240 2.828 . S
C249 C243 1.505 . S
C249 O261 1.249 . S
C249 O262 1.244 . S
O250 Eu241 2.373 . S
O250 C252 1.258 . S
O251 Eu240 2.392 . S
O251 C252 1.242 . S
C252 O250 1.258 . S
C252 O251 1.242 . S
O253 Eu240 2.418 . S
O253 C257 1.244 . S
O254 Eu241 2.488 1_554 S
O254 C270 1.249 . S
O255 Eu241 2.471 1_554 S
O255 C270 1.244 . S
O256 Eu241 2.349 . S
O256 C257 1.265 . S
C257 O253 1.244 . S
C257 O256 1.265 . S
O258 Eu240 2.373 . S
O258 C271 1.258 . S
O259 Eu241 2.392 . S
O259 C271 1.242 . S
O260 Eu241 2.418 . S
O260 C242 1.244 . S
O261 Eu240 2.488 . S
O261 C249 1.249 . S
O262 Eu240 2.471 . S
O262 C249 1.244 . S
O263 Eu240 2.349 . S
O263 C242 1.265 . S
C264 C265 1.379 . S
C264 C268 1.373 . S
C264 C270 1.505 . S
C265 C264 1.379 . S
C265 C267 1.369 . S
C265 H276 0.930 . S
C266 C268 1.383 . S
C266 C269 1.382 . S
C266 H277 0.930 . S
C267 C265 1.369 . S
C267 C269 1.392 . S
C267 H278 0.930 . S
C268 C264 1.373 . S
C268 C266 1.383 . S
C268 H279 0.931 . S
C269 C266 1.382 . S
C269 C267 1.392 . S
C270 Eu241 2.828 1_554 S
C270 O254 1.249 . S
C270 O255 1.244 . S
C270 C264 1.505 . S
C271 O258 1.258 . S
C271 O259 1.242 . S
H272 C244 0.930 . S
H273 C245 0.930 . S
H274 C246 0.930 . S
H275 C247 0.931 . S
H276 C265 0.930 . S
H277 C266 0.930 . S
H278 C267 0.930 . S
H279 C268 0.931 . S
Eu280 C289 2.828 . S
Eu280 O291 2.392 . S
Eu280 O293 2.418 . S
Eu280 O298 2.373 . S
Eu280 O301 2.488 . S
Eu280 O302 2.471 . S
Eu280 O303 2.349 . S
Eu281 O290 2.373 . S
Eu281 O294 2.488 . S
Eu281 O295 2.471 1_556 S
Eu281 O296 2.349 . S
Eu281 O299 2.392 . S
Eu281 O300 2.418 . S
Eu281 C310 2.828 1_556 S
C282 O300 1.244 . S
C282 O303 1.265 . S
C283 C284 1.379 . S
C283 C287 1.373 . S
C283 C289 1.505 . S
C284 C283 1.379 . S
C284 C286 1.369 . S
C284 H312 0.930 . S
C285 C287 1.383 . S
C285 C288 1.382 . S
C285 H313 0.930 . S
C286 C284 1.369 . S
C286 C288 1.392 . S
C286 H314 0.930 . S
C287 C283 1.373 . S
C287 C285 1.383 . S
C287 H315 0.931 . S
C288 C285 1.382 . S
C288 C286 1.392 . S
C289 Eu280 2.828 . S
C289 C283 1.505 . S
C289 O301 1.249 . S
C289 O302 1.244 . S
O290 Eu281 2.373 . S
O290 C292 1.258 . S
O291 Eu280 2.392 . S
O291 C292 1.242 . S
C292 O290 1.258 . S
C292 O291 1.242 . S
O293 Eu280 2.418 . S
O293 C297 1.244 . S
O294 Eu281 2.488 . S
O294 C310 1.249 1_556 S
O295 Eu281 2.471 1_554 S
O295 C310 1.244 . S
O296 Eu281 2.349 . S
O296 C297 1.265 . S
C297 O293 1.244 . S
C297 O296 1.265 . S
O298 Eu280 2.373 . S
O298 C311 1.258 . S
O299 Eu281 2.392 . S
O299 C311 1.242 . S
O300 Eu281 2.418 . S
O300 C282 1.244 . S
O301 Eu280 2.488 . S
O301 C289 1.249 . S
O302 Eu280 2.471 . S
O302 C289 1.244 . S
O303 Eu280 2.349 . S
O303 C282 1.265 . S
C304 C305 1.379 . S
C304 C308 1.373 . S
C304 C310 1.505 . S
C305 C304 1.379 . S
C305 C307 1.369 . S
C305 H316 0.930 . S
C306 C308 1.383 . S
C306 C309 1.382 . S
C306 H317 0.930 . S
C307 C305 1.369 . S
C307 C309 1.392 . S
C307 H318 0.930 . S
C308 C304 1.373 . S
C308 C306 1.383 . S
C308 H319 0.931 . S
C309 C306 1.382 . S
C309 C307 1.392 . S
C310 Eu281 2.828 1_554 S
C310 O294 1.249 1_554 S
C310 O295 1.244 . S
C310 C304 1.505 . S
C311 O298 1.258 . S
C311 O299 1.242 . S
H312 C284 0.930 . S
H313 C285 0.930 . S
H314 C286 0.930 . S
H315 C287 0.931 . S
H316 C305 0.930 . S
H317 C306 0.930 . S
H318 C307 0.930 . S
H319 C308 0.931 . S
Eu320 C329 2.828 . S
Eu320 O331 2.392 . S
Eu320 O333 2.418 . S
Eu320 O338 2.373 . S
Eu320 O341 2.488 . S
Eu320 O342 2.471 . S
Eu320 O343 2.349 . S
Eu321 O330 2.373 . S
Eu321 O334 2.488 1_556 S
Eu321 O335 2.471 1_556 S
Eu321 O336 2.349 . S
Eu321 O339 2.392 . S
Eu321 O340 2.418 . S
Eu321 C350 2.828 1_556 S
C322 O340 1.244 . S
C322 O343 1.265 . S
C323 C324 1.379 . S
C323 C327 1.373 . S
C323 C329 1.505 . S
C324 C323 1.379 . S
C324 C326 1.369 . S
C324 H352 0.930 . S
C325 C327 1.383 . S
C325 C328 1.382 . S
C325 H353 0.930 . S
C326 C324 1.369 . S
C326 C328 1.392 . S
C326 H354 0.930 . S
C327 C323 1.373 . S
C327 C325 1.383 . S
C327 H355 0.931 . S
C328 C325 1.382 . S
C328 C326 1.392 . S
C329 Eu320 2.828 . S
C329 C323 1.505 . S
C329 O341 1.249 . S
C329 O342 1.244 . S
O330 Eu321 2.373 . S
O330 C332 1.258 1_655 S
O331 Eu320 2.392 . S
O331 C332 1.242 1_655 S
C332 O330 1.258 1_455 S
C332 O331 1.242 1_455 S
O333 Eu320 2.418 . S
O333 C337 1.244 . S
O334 Eu321 2.488 1_554 S
O334 C350 1.249 . S
O335 Eu321 2.471 1_554 S
O335 C350 1.244 . S
O336 Eu321 2.349 . S
O336 C337 1.265 . S
C337 O333 1.244 . S
C337 O336 1.265 . S
O338 Eu320 2.373 . S
O338 C351 1.258 . S
O339 Eu321 2.392 . S
O339 C351 1.242 . S
O340 Eu321 2.418 . S
O340 C322 1.244 . S
O341 Eu320 2.488 . S
O341 C329 1.249 . S
O342 Eu320 2.471 . S
O342 C329 1.244 . S
O343 Eu320 2.349 . S
O343 C322 1.265 . S
C344 C345 1.379 . S
C344 C348 1.373 . S
C344 C350 1.505 . S
C345 C344 1.379 . S
C345 C347 1.369 . S
C345 H356 0.930 . S
C346 C348 1.383 . S
C346 C349 1.382 . S
C346 H357 0.930 . S
C347 C345 1.369 . S
C347 C349 1.392 . S
C347 H358 0.930 . S
C348 C344 1.373 . S
C348 C346 1.383 . S
C348 H359 0.931 . S
C349 C346 1.382 . S
C349 C347 1.392 . S
C350 Eu321 2.828 1_554 S
C350 O334 1.249 . S
C350 O335 1.244 . S
C350 C344 1.505 . S
C351 O338 1.258 . S
C351 O339 1.242 . S
H352 C324 0.930 . S
H353 C325 0.930 . S
H354 C326 0.930 . S
H355 C327 0.931 . S
H356 C345 0.930 . S
H357 C346 0.930 . S
H358 C347 0.930 . S
H359 C348 0.931 . S
Eu360 C369 2.828 1_556 S
Eu360 O371 2.392 . S
Eu360 O373 2.418 . S
Eu360 O378 2.373 . S
Eu360 O381 2.488 1_556 S
Eu360 O382 2.471 1_556 S
Eu360 O383 2.349 . S
Eu361 O370 2.373 . S
Eu361 O374 2.488 . S
Eu361 O375 2.471 . S
Eu361 O376 2.349 . S
Eu361 O379 2.392 . S
Eu361 O380 2.418 . S
Eu361 C390 2.828 . S
C362 O380 1.244 . S
C362 O383 1.265 . S
C363 C364 1.379 . S
C363 C367 1.373 . S
C363 C369 1.505 . S
C364 C363 1.379 . S
C364 C366 1.369 . S
C364 H392 0.930 . S
C365 C367 1.383 . S
C365 C368 1.382 . S
C365 H393 0.930 . S
C366 C364 1.369 . S
C366 C368 1.392 . S
C366 H394 0.930 . S
C367 C363 1.373 . S
C367 C365 1.383 . S
C367 H395 0.931 . S
C368 C365 1.382 . S
C368 C366 1.392 . S
C369 Eu360 2.828 1_554 S
C369 C363 1.505 . S
C369 O381 1.249 . S
C369 O382 1.244 . S
O370 Eu361 2.373 . S
O370 C372 1.258 . S
O371 Eu360 2.392 . S
O371 C372 1.242 . S
C372 O370 1.258 . S
C372 O371 1.242 . S
O373 Eu360 2.418 . S
O373 C377 1.244 . S
O374 Eu361 2.488 . S
O374 C390 1.249 . S
O375 Eu361 2.471 . S
O375 C390 1.244 . S
O376 Eu361 2.349 . S
O376 C377 1.265 . S
C377 O373 1.244 . S
C377 O376 1.265 . S
O378 Eu360 2.373 . S
O378 C391 1.258 . S
O379 Eu361 2.392 . S
O379 C391 1.242 . S
O380 Eu361 2.418 . S
O380 C362 1.244 . S
O381 Eu360 2.488 1_554 S
O381 C369 1.249 . S
O382 Eu360 2.471 1_554 S
O382 C369 1.244 . S
O383 Eu360 2.349 . S
O383 C362 1.265 . S
C384 C385 1.379 . S
C384 C388 1.373 . S
C384 C390 1.505 . S
C385 C384 1.379 . S
C385 C387 1.369 . S
C385 H396 0.930 . S
C386 C388 1.383 . S
C386 C389 1.382 . S
C386 H397 0.930 . S
C387 C385 1.369 . S
C387 C389 1.392 . S
C387 H398 0.930 . S
C388 C384 1.373 . S
C388 C386 1.383 . S
C388 H399 0.931 . S
C389 C386 1.382 . S
C389 C387 1.392 . S
C390 Eu361 2.828 . S
C390 O374 1.249 . S
C390 O375 1.244 . S
C390 C384 1.505 . S
C391 O378 1.258 . S
C391 O379 1.242 . S
H392 C364 0.930 . S
H393 C365 0.930 . S
H394 C366 0.930 . S
H395 C367 0.931 . S
H396 C385 0.930 . S
H397 C386 0.930 . S
H398 C387 0.930 . S
H399 C388 0.931 . S
Eu400 C409 2.828 1_556 S
Eu400 O411 2.392 . S
Eu400 O413 2.418 . S
Eu400 O418 2.373 . S
Eu400 O421 2.488 1_556 S
Eu400 O422 2.471 1_556 S
Eu400 O423 2.349 . S
Eu401 O410 2.373 . S
Eu401 O414 2.488 . S
Eu401 O415 2.471 . S
Eu401 O416 2.349 . S
Eu401 O419 2.387 1_655 S
Eu401 O420 2.418 . S
Eu401 C430 2.828 . S
C402 O420 1.244 . S
C402 O423 1.265 . S
C403 C404 1.379 . S
C403 C407 1.373 . S
C403 C409 1.505 . S
C404 C403 1.379 . S
C404 C406 1.369 . S
C404 H432 0.930 . S
C405 C407 1.383 . S
C405 C408 1.382 . S
C405 H433 0.930 . S
C406 C404 1.369 . S
C406 C408 1.392 . S
C406 H434 0.930 . S
C407 C403 1.373 . S
C407 C405 1.383 . S
C407 H435 0.931 . S
C408 C405 1.382 . S
C408 C406 1.392 . S
C409 Eu400 2.828 1_554 S
C409 C403 1.505 . S
C409 O421 1.249 . S
C409 O422 1.244 . S
O410 Eu401 2.373 . S
O410 C412 1.258 . S
O411 Eu400 2.392 . S
O411 C412 1.242 . S
C412 O410 1.258 . S
C412 O411 1.242 . S
O413 Eu400 2.418 . S
O413 C417 1.244 . S
O414 Eu401 2.488 . S
O414 C430 1.249 . S
O415 Eu401 2.471 . S
O415 C430 1.244 . S
O416 Eu401 2.349 . S
O416 C417 1.265 . S
C417 O413 1.244 . S
C417 O416 1.265 . S
O418 Eu400 2.373 . S
O418 C431 1.258 1_655 S
O419 Eu401 2.387 1_455 S
O419 C431 1.240 . S
O420 Eu401 2.418 . S
O420 C402 1.244 . S
O421 Eu400 2.488 1_554 S
O421 C409 1.249 . S
O422 Eu400 2.471 1_554 S
O422 C409 1.244 . S
O423 Eu400 2.349 . S
O423 C402 1.265 . S
C424 C425 1.379 . S
C424 C428 1.373 . S
C424 C430 1.505 . S
C425 C424 1.379 . S
C425 C427 1.369 . S
C425 H436 0.930 . S
C426 C428 1.383 . S
C426 C429 1.382 . S
C426 H437 0.930 . S
C427 C425 1.369 . S
C427 C429 1.392 . S
C427 H438 0.930 . S
C428 C424 1.373 . S
C428 C426 1.383 . S
C428 H439 0.931 . S
C429 C426 1.382 . S
C429 C427 1.392 . S
C430 Eu401 2.828 . S
C430 O414 1.249 . S
C430 O415 1.244 . S
C430 C424 1.505 . S
C431 O418 1.258 1_455 S
C431 O419 1.240 . S
H432 C404 0.930 . S
H433 C405 0.930 . S
H434 C406 0.930 . S
H435 C407 0.931 . S
H436 C425 0.930 . S
H437 C426 0.930 . S
H438 C427 0.930 . S
H439 C428 0.931 . S
Eu440 C449 2.828 1_556 S
Eu440 O451 2.392 . S
Eu440 O453 2.418 . S
Eu440 O458 2.373 . S
Eu440 O461 2.488 1_556 S
Eu440 O462 2.471 1_556 S
Eu440 O463 2.349 . S
Eu441 O450 2.373 . S
Eu441 O454 2.488 . S
Eu441 O455 2.471 . S
Eu441 O456 2.349 . S
Eu441 O459 2.392 . S
Eu441 O460 2.418 . S
Eu441 C470 2.828 . S
C442 O460 1.244 . S
C442 O463 1.265 . S
C443 C444 1.379 . S
C443 C447 1.373 . S
C443 C449 1.505 . S
C444 C443 1.379 . S
C444 C446 1.369 . S
C444 H472 0.930 . S
C445 C447 1.383 . S
C445 C448 1.382 . S
C445 H473 0.930 . S
C446 C444 1.369 . S
C446 C448 1.392 . S
C446 H474 0.930 . S
C447 C443 1.373 . S
C447 C445 1.383 . S
C447 H475 0.931 . S
C448 C445 1.382 . S
C448 C446 1.392 . S
C449 Eu440 2.828 1_554 S
C449 C443 1.505 . S
C449 O461 1.249 . S
C449 O462 1.244 . S
O450 Eu441 2.373 . S
O450 C452 1.258 . S
O451 Eu440 2.392 . S
O451 C452 1.242 . S
C452 O450 1.258 . S
C452 O451 1.242 . S
O453 Eu440 2.418 . S
O453 C457 1.244 . S
O454 Eu441 2.488 . S
O454 C470 1.249 . S
O455 Eu441 2.471 . S
O455 C470 1.244 . S
O456 Eu441 2.349 . S
O456 C457 1.265 . S
C457 O453 1.244 . S
C457 O456 1.265 . S
O458 Eu440 2.373 . S
O458 C471 1.258 . S
O459 Eu441 2.392 . S
O459 C471 1.242 . S
O460 Eu441 2.418 . S
O460 C442 1.244 . S
O461 Eu440 2.488 1_554 S
O461 C449 1.249 . S
O462 Eu440 2.471 1_554 S
O462 C449 1.244 . S
O463 Eu440 2.349 . S
O463 C442 1.265 . S
C464 C465 1.379 . S
C464 C468 1.373 . S
C464 C470 1.505 . S
C465 C464 1.379 . S
C465 C467 1.369 . S
C465 H476 0.930 . S
C466 C468 1.383 . S
C466 C469 1.382 . S
C466 H477 0.930 . S
C467 C465 1.369 . S
C467 C469 1.392 . S
C467 H478 0.930 . S
C468 C464 1.373 . S
C468 C466 1.383 . S
C468 H479 0.931 . S
C469 C466 1.382 . S
C469 C467 1.392 . S
C470 Eu441 2.828 . S
C470 O454 1.249 . S
C470 O455 1.244 . S
C470 C464 1.505 . S
C471 O458 1.258 . S
C471 O459 1.242 . S
H472 C444 0.930 . S
H473 C445 0.930 . S
H474 C446 0.930 . S
H475 C447 0.931 . S
H476 C465 0.930 . S
H477 C466 0.930 . S
H478 C467 0.930 . S
H479 C468 0.931 . S
Eu480 C489 2.828 . S
Eu480 O491 2.392 1_565 S
Eu480 O493 2.418 . S
Eu480 O498 2.373 . S
Eu480 O501 2.488 . S
Eu480 O502 2.471 . S
Eu480 O503 2.349 . S
Eu481 O490 2.373 . S
Eu481 O494 2.488 1_554 S
Eu481 O495 2.471 1_554 S
Eu481 O496 2.349 . S
Eu481 O499 2.392 . S
Eu481 O500 2.418 . S
Eu481 C510 2.828 1_554 S
C482 O500 1.244 . S
C482 O503 1.265 . S
C483 C484 1.379 . S
C483 C487 1.373 . S
C483 C489 1.505 . S
C484 C483 1.379 . S
C484 C486 1.369 . S
C484 H512 0.930 . S
C485 C487 1.383 . S
C485 C488 1.382 . S
C485 H513 0.930 . S
C486 C484 1.369 . S
C486 C488 1.392 . S
C486 H514 0.930 . S
C487 C483 1.373 . S
C487 C485 1.383 . S
C487 H515 0.931 . S
C488 C485 1.382 . S
C488 C486 1.392 . S
C489 Eu480 2.828 . S
C489 C483 1.505 . S
C489 O501 1.249 . S
C489 O502 1.244 . S
O490 Eu481 2.373 . S
O490 C492 1.258 1_565 S
O491 Eu480 2.392 1_545 S
O491 C492 1.242 . S
C492 O490 1.258 1_545 S
C492 O491 1.242 . S
O493 Eu480 2.418 . S
O493 C497 1.244 . S
O494 Eu481 2.488 1_556 S
O494 C510 1.249 . S
O495 Eu481 2.471 1_556 S
O495 C510 1.244 . S
O496 Eu481 2.349 . S
O496 C497 1.265 . S
C497 O493 1.244 . S
C497 O496 1.265 . S
O498 Eu480 2.373 . S
O498 C511 1.258 . S
O499 Eu481 2.392 . S
O499 C511 1.242 . S
O500 Eu481 2.418 . S
O500 C482 1.244 . S
O501 Eu480 2.488 . S
O501 C489 1.249 . S
O502 Eu480 2.471 . S
O502 C489 1.244 . S
O503 Eu480 2.349 . S
O503 C482 1.265 . S
C504 C505 1.379 . S
C504 C508 1.373 . S
C504 C510 1.505 . S
C505 C504 1.379 . S
C505 C507 1.369 . S
C505 H516 0.930 . S
C506 C508 1.383 . S
C506 C509 1.382 . S
C506 H517 0.930 . S
C507 C505 1.369 . S
C507 C509 1.392 . S
C507 H518 0.930 . S
C508 C504 1.373 . S
C508 C506 1.383 . S
C508 H519 0.931 . S
C509 C506 1.382 . S
C509 C507 1.392 . S
C510 Eu481 2.828 1_556 S
C510 O494 1.249 . S
C510 O495 1.244 . S
C510 C504 1.505 . S
C511 O498 1.258 . S
C511 O499 1.242 . S
H512 C484 0.930 . S
H513 C485 0.930 . S
H514 C486 0.930 . S
H515 C487 0.931 . S
H516 C505 0.930 . S
H517 C506 0.930 . S
H518 C507 0.930 . S
H519 C508 0.931 . S
Eu520 C529 2.828 1_554 S
Eu520 O531 2.392 . S
Eu520 O533 2.418 . S
Eu520 O538 2.373 . S
Eu520 O541 2.488 1_554 S
Eu520 O542 2.471 1_554 S
Eu520 O543 2.349 . S
Eu521 O530 2.373 . S
Eu521 O534 2.488 . S
Eu521 O535 2.471 . S
Eu521 O536 2.349 . S
Eu521 O539 2.392 . S
Eu521 O540 2.418 . S
Eu521 C550 2.828 . S
C522 O540 1.244 . S
C522 O543 1.265 . S
C523 C524 1.379 . S
C523 C527 1.373 . S
C523 C529 1.505 . S
C524 C523 1.379 . S
C524 C526 1.369 . S
C524 H552 0.930 . S
C525 C527 1.383 . S
C525 C528 1.382 . S
C525 H553 0.930 . S
C526 C524 1.369 . S
C526 C528 1.392 . S
C526 H554 0.930 . S
C527 C523 1.373 . S
C527 C525 1.383 . S
C527 H555 0.931 . S
C528 C525 1.382 . S
C528 C526 1.392 . S
C529 Eu520 2.828 1_556 S
C529 C523 1.505 . S
C529 O541 1.249 . S
C529 O542 1.244 . S
O530 Eu521 2.373 . S
O530 C532 1.258 . S
O531 Eu520 2.392 . S
O531 C532 1.242 . S
C532 O530 1.258 . S
C532 O531 1.242 . S
O533 Eu520 2.418 . S
O533 C537 1.244 . S
O534 Eu521 2.488 . S
O534 C550 1.249 . S
O535 Eu521 2.471 . S
O535 C550 1.244 . S
O536 Eu521 2.349 . S
O536 C537 1.265 . S
C537 O533 1.244 . S
C537 O536 1.265 . S
O538 Eu520 2.373 . S
O538 C551 1.258 . S
O539 Eu521 2.392 . S
O539 C551 1.242 . S
O540 Eu521 2.418 . S
O540 C522 1.244 . S
O541 Eu520 2.488 1_556 S
O541 C529 1.249 . S
O542 Eu520 2.471 1_556 S
O542 C529 1.244 . S
O543 Eu520 2.349 . S
O543 C522 1.265 . S
C544 C545 1.379 . S
C544 C548 1.373 . S
C544 C550 1.505 . S
C545 C544 1.379 . S
C545 C547 1.369 . S
C545 H556 0.930 . S
C546 C548 1.383 . S
C546 C549 1.382 . S
C546 H557 0.930 . S
C547 C545 1.369 . S
C547 C549 1.392 . S
C547 H558 0.930 . S
C548 C544 1.373 . S
C548 C546 1.383 . S
C548 H559 0.931 . S
C549 C546 1.382 . S
C549 C547 1.392 . S
C550 Eu521 2.828 . S
C550 O534 1.249 . S
C550 O535 1.244 . S
C550 C544 1.505 . S
C551 O538 1.258 . S
C551 O539 1.242 . S
H552 C524 0.930 . S
H553 C525 0.930 . S
H554 C526 0.930 . S
H555 C527 0.931 . S
H556 C545 0.930 . S
H557 C546 0.930 . S
H558 C547 0.930 . S
H559 C548 0.931 . S
Eu560 C569 2.828 . S
Eu560 O571 2.392 . S
Eu560 O573 2.418 . S
Eu560 O578 2.373 . S
Eu560 O581 2.488 . S
Eu560 O582 2.471 . S
Eu560 O583 2.349 . S
Eu561 O570 2.373 . S
Eu561 O574 2.488 1_554 S
Eu561 O575 2.471 1_554 S
Eu561 O576 2.349 . S
Eu561 O579 2.392 . S
Eu561 O580 2.418 . S
Eu561 C590 2.828 1_554 S
C562 O580 1.244 . S
C562 O583 1.265 . S
C563 C564 1.379 . S
C563 C567 1.373 . S
C563 C569 1.505 . S
C564 C563 1.379 . S
C564 C566 1.369 . S
C564 H592 0.930 . S
C565 C567 1.383 . S
C565 C568 1.382 . S
C565 H593 0.930 . S
C566 C564 1.369 . S
C566 C568 1.392 . S
C566 H594 0.930 . S
C567 C563 1.373 . S
C567 C565 1.383 . S
C567 H595 0.931 . S
C568 C565 1.382 . S
C568 C566 1.392 . S
C569 Eu560 2.828 . S
C569 C563 1.505 . S
C569 O581 1.249 . S
C569 O582 1.244 . S
O570 Eu561 2.373 . S
O570 C572 1.258 . S
O571 Eu560 2.392 . S
O571 C572 1.242 . S
C572 O570 1.258 . S
C572 O571 1.242 . S
O573 Eu560 2.418 . S
O573 C577 1.244 . S
O574 Eu561 2.488 1_556 S
O574 C590 1.249 . S
O575 Eu561 2.471 1_556 S
O575 C590 1.244 . S
O576 Eu561 2.349 . S
O576 C577 1.265 . S
C577 O573 1.244 . S
C577 O576 1.265 . S
O578 Eu560 2.373 . S
O578 C591 1.258 . S
O579 Eu561 2.392 . S
O579 C591 1.242 . S
O580 Eu561 2.418 . S
O580 C562 1.244 . S
O581 Eu560 2.488 . S
O581 C569 1.249 . S
O582 Eu560 2.471 . S
O582 C569 1.244 . S
O583 Eu560 2.349 . S
O583 C562 1.265 . S
C584 C585 1.379 . S
C584 C588 1.373 . S
C584 C590 1.505 . S
C585 C584 1.379 . S
C585 C587 1.369 . S
C585 H596 0.930 . S
C586 C588 1.383 . S
C586 C589 1.382 . S
C586 H597 0.930 . S
C587 C585 1.369 . S
C587 C589 1.392 . S
C587 H598 0.930 . S
C588 C584 1.373 . S
C588 C586 1.383 . S
C588 H599 0.931 . S
C589 C586 1.382 . S
C589 C587 1.392 . S
C590 Eu561 2.828 1_556 S
C590 O574 1.249 . S
C590 O575 1.244 . S
C590 C584 1.505 . S
C591 O578 1.258 . S
C591 O579 1.242 . S
H592 C564 0.930 . S
H593 C565 0.930 . S
H594 C566 0.930 . S
H595 C567 0.931 . S
H596 C585 0.930 . S
H597 C586 0.930 . S
H598 C587 0.930 . S
H599 C588 0.931 . S
Eu600 C609 2.828 . S
Eu600 O611 2.392 . S
Eu600 O613 2.418 . S
Eu600 O618 2.373 . S
Eu600 O621 2.488 . S
Eu600 O622 2.471 . S
Eu600 O623 2.349 . S
Eu601 O610 2.373 . S
Eu601 O614 2.488 1_554 S
Eu601 O615 2.471 1_554 S
Eu601 O616 2.349 . S
Eu601 O619 2.392 . S
Eu601 O620 2.418 . S
Eu601 C630 2.828 1_554 S
C602 O620 1.244 . S
C602 O623 1.265 . S
C603 C604 1.379 . S
C603 C607 1.373 . S
C603 C609 1.505 . S
C604 C603 1.379 . S
C604 C606 1.369 . S
C604 H632 0.930 . S
C605 C607 1.383 . S
C605 C608 1.382 . S
C605 H633 0.930 . S
C606 C604 1.369 . S
C606 C608 1.392 . S
C606 H634 0.930 . S
C607 C603 1.373 . S
C607 C605 1.383 . S
C607 H635 0.931 . S
C608 C605 1.382 . S
C608 C606 1.392 . S
C609 Eu600 2.828 . S
C609 C603 1.505 . S
C609 O621 1.249 . S
C609 O622 1.244 . S
O610 Eu601 2.373 . S
O610 C612 1.258 . S
O611 Eu600 2.392 . S
O611 C612 1.242 . S
C612 O610 1.258 . S
C612 O611 1.242 . S
O613 Eu600 2.418 . S
O613 C617 1.244 . S
O614 Eu601 2.488 1_556 S
O614 C630 1.249 . S
O615 Eu601 2.471 1_556 S
O615 C630 1.244 . S
O616 Eu601 2.349 . S
O616 C617 1.265 . S
C617 O613 1.244 . S
C617 O616 1.265 . S
O618 Eu600 2.373 . S
O618 C631 1.258 . S
O619 Eu601 2.392 . S
O619 C631 1.242 . S
O620 Eu601 2.418 . S
O620 C602 1.244 . S
O621 Eu600 2.488 . S
O621 C609 1.249 . S
O622 Eu600 2.471 . S
O622 C609 1.244 . S
O623 Eu600 2.349 . S
O623 C602 1.265 . S
C624 C625 1.379 . S
C624 C628 1.373 . S
C624 C630 1.505 . S
C625 C624 1.379 . S
C625 C627 1.369 . S
C625 H636 0.930 . S
C626 C628 1.383 . S
C626 C629 1.382 . S
C626 H637 0.930 . S
C627 C625 1.369 . S
C627 C629 1.392 . S
C627 H638 0.930 . S
C628 C624 1.373 . S
C628 C626 1.383 . S
C628 H639 0.931 . S
C629 C626 1.382 . S
C629 C627 1.392 . S
C630 Eu601 2.828 1_556 S
C630 O614 1.249 . S
C630 O615 1.244 . S
C630 C624 1.505 . S
C631 O618 1.258 . S
C631 O619 1.242 . S
H632 C604 0.930 . S
H633 C605 0.930 . S
H634 C606 0.930 . S
H635 C607 0.931 . S
H636 C625 0.930 . S
H637 C626 0.930 . S
H638 C627 0.930 . S
H639 C628 0.931 . S
Eu640 C649 2.828 1_554 S
Eu640 O651 2.392 . S
Eu640 O653 2.418 . S
Eu640 O658 2.373 . S
Eu640 O661 2.488 1_554 S
Eu640 O662 2.471 1_554 S
Eu640 O663 2.349 . S
Eu641 O650 2.373 . S
Eu641 O654 2.488 . S
Eu641 O655 2.471 . S
Eu641 O656 2.349 . S
Eu641 O659 2.392 1_565 S
Eu641 O660 2.418 . S
Eu641 C670 2.828 . S
C642 O660 1.244 . S
C642 O663 1.265 . S
C643 C644 1.379 . S
C643 C647 1.373 . S
C643 C649 1.505 . S
C644 C643 1.379 . S
C644 C646 1.369 . S
C644 H672 0.930 . S
C645 C647 1.383 . S
C645 C648 1.382 . S
C645 H673 0.930 . S
C646 C644 1.369 . S
C646 C648 1.392 . S
C646 H674 0.930 . S
C647 C643 1.373 . S
C647 C645 1.383 . S
C647 H675 0.931 . S
C648 C645 1.382 . S
C648 C646 1.392 . S
C649 Eu640 2.828 1_556 S
C649 C643 1.505 . S
C649 O661 1.249 . S
C649 O662 1.244 . S
O650 Eu641 2.373 . S
O650 C652 1.258 . S
O651 Eu640 2.392 . S
O651 C652 1.242 . S
C652 O650 1.258 . S
C652 O651 1.242 . S
O653 Eu640 2.418 . S
O653 C657 1.244 . S
O654 Eu641 2.488 . S
O654 C670 1.249 . S
O655 Eu641 2.471 . S
O655 C670 1.244 . S
O656 Eu641 2.349 . S
O656 C657 1.265 . S
C657 O653 1.244 . S
C657 O656 1.265 . S
O658 Eu640 2.373 . S
O658 C671 1.258 1_565 S
O659 Eu641 2.392 1_545 S
O659 C671 1.242 . S
O660 Eu641 2.418 . S
O660 C642 1.244 . S
O661 Eu640 2.488 1_556 S
O661 C649 1.249 . S
O662 Eu640 2.471 1_556 S
O662 C649 1.244 . S
O663 Eu640 2.349 . S
O663 C642 1.265 . S
C664 C665 1.379 . S
C664 C668 1.373 . S
C664 C670 1.505 . S
C665 C664 1.379 . S
C665 C667 1.369 . S
C665 H676 0.930 . S
C666 C668 1.383 . S
C666 C669 1.382 . S
C666 H677 0.930 . S
C667 C665 1.369 . S
C667 C669 1.392 . S
C667 H678 0.930 . S
C668 C664 1.373 . S
C668 C666 1.383 . S
C668 H679 0.931 . S
C669 C666 1.382 . S
C669 C667 1.392 . S
C670 Eu641 2.828 . S
C670 O654 1.249 . S
C670 O655 1.244 . S
C670 C664 1.505 . S
C671 O658 1.258 1_545 S
C671 O659 1.242 . S
H672 C644 0.930 . S
H673 C645 0.930 . S
H674 C646 0.930 . S
H675 C647 0.931 . S
H676 C665 0.930 . S
H677 C666 0.930 . S
H678 C667 0.930 . S
H679 C668 0.931 . S
Eu680 C689 2.828 . S
Eu680 O691 2.392 . S
Eu680 O693 2.418 . S
Eu680 O698 2.373 . S
Eu680 O701 2.488 . S
Eu680 O702 2.471 . S
Eu680 O703 2.349 . S
Eu681 O690 2.373 . S
Eu681 O694 2.488 1_554 S
Eu681 O695 2.471 1_554 S
Eu681 O696 2.349 . S
Eu681 O699 2.392 . S
Eu681 O700 2.418 . S
Eu681 C710 2.828 1_554 S
C682 O700 1.244 . S
C682 O703 1.265 . S
C683 C684 1.379 . S
C683 C687 1.373 . S
C683 C689 1.505 . S
C684 C683 1.379 . S
C684 C686 1.369 . S
C684 H712 0.930 . S
C685 C687 1.383 . S
C685 C688 1.382 . S
C685 H713 0.930 . S
C686 C684 1.369 . S
C686 C688 1.392 . S
C686 H714 0.930 . S
C687 C683 1.373 . S
C687 C685 1.383 . S
C687 H715 0.931 . S
C688 C685 1.382 . S
C688 C686 1.392 . S
C689 Eu680 2.828 . S
C689 C683 1.505 . S
C689 O701 1.249 . S
C689 O702 1.244 . S
O690 Eu681 2.373 . S
O690 C692 1.258 . S
O691 Eu680 2.392 . S
O691 C692 1.242 . S
C692 O690 1.258 . S
C692 O691 1.242 . S
O693 Eu680 2.418 . S
O693 C697 1.244 . S
O694 Eu681 2.488 1_556 S
O694 C710 1.249 . S
O695 Eu681 2.471 1_556 S
O695 C710 1.244 . S
O696 Eu681 2.349 . S
O696 C697 1.265 . S
C697 O693 1.244 . S
C697 O696 1.265 . S
O698 Eu680 2.373 . S
O698 C711 1.258 . S
O699 Eu681 2.392 . S
O699 C711 1.242 . S
O700 Eu681 2.418 . S
O700 C682 1.244 . S
O701 Eu680 2.488 . S
O701 C689 1.249 . S
O702 Eu680 2.471 . S
O702 C689 1.244 . S
O703 Eu680 2.349 . S
O703 C682 1.265 . S
C704 C705 1.379 . S
C704 C708 1.373 . S
C704 C710 1.505 . S
C705 C704 1.379 . S
C705 C707 1.369 . S
C705 H716 0.930 . S
C706 C708 1.383 . S
C706 C709 1.382 . S
C706 H717 0.930 . S
C707 C705 1.369 . S
C707 C709 1.392 . S
C707 H718 0.930 . S
C708 C704 1.373 . S
C708 C706 1.383 . S
C708 H719 0.931 . S
C709 C706 1.382 . S
C709 C707 1.392 . S
C710 Eu681 2.828 1_556 S
C710 O694 1.249 . S
C710 O695 1.244 . S
C710 C704 1.505 . S
C711 O698 1.258 . S
C711 O699 1.242 . S
H712 C684 0.930 . S
H713 C685 0.930 . S
H714 C686 0.930 . S
H715 C687 0.931 . S
H716 C705 0.930 . S
H717 C706 0.930 . S
H718 C707 0.930 . S
H719 C708 0.931 . S
C532 C12 4.230 . S
C42 C562 4.279 . S
C92 C482 4.238 . S
C82 C282 4.084 . S
C322 C2 4.450 . S
C52 C242 4.366 . S
C151 C417 4.186 . S
C177 C457 3.869 . S
C377 C231 3.792 . S
C657 C217 4.296 . S
C137 C711 4.246 . S
C631 C191 4.242 . S
C332 C522 4.099 1_556 S
C252 C572 4.056 1_556 S
C292 C492 4.442 1_556 S
C391 C671 4.638 1_556 S
C697 C431 4.325 1_554 S
C617 C471 4.686 1_554 S
C17 C162 1.429 . S
C212 C71 2.408 . S
C132 C97 1.836 . S
C172 C111 2.472 . S
C202 C31 2.075 . S
C122 C57 1.632 . S
C412 C271 2.467 . S
C452 C311 2.608 . S
C372 C351 2.576 . S
C402 C337 1.566 . S
C442 C257 1.598 . S
C362 C297 1.445 . S
C642 C497 1.575 . S
C692 C551 2.422 . S
C577 C612 2.029 . S
C591 C652 2.638 . S
C511 C682 2.030 . S
C602 C537 1.572 . S
C29 C8 1.984 1_654 S
C48 C69 2.269 1_554 S
C109 C88 1.582 1_554 S
C128 C149 2.293 1_455 S
C168 C189 1.736 . S
C229 C208 2.245 1_554 S
C269 C248 3.019 . S
C288 C309 1.729 . S
C349 C328 2.751 . S
C368 C389 1.897 . S
C408 C429 2.724 . S
C448 C469 1.519 . S
C488 C509 1.991 . S
C528 C549 2.177 . S
C589 C568 1.762 . S
C629 C608 2.453 . S
C648 C669 1.862 . S
C688 C709 1.988 . S
